# Generated by pormake.
# Topology pth, (4,4)-cn, num edge types: 1
# Building blocks:
#     Node 0, Type 0, BuildingBlock: AZAVOO_clean_sbu_0, # of connection points: 4
#     Node 1, Type 0, BuildingBlock: AZAVOO_clean_sbu_0, # of connection points: 4
#     Node 2, Type 0, BuildingBlock: AZAVOO_clean_sbu_0, # of connection points: 4
#     Node 3, Type 1, BuildingBlock: AZAVOO_clean_linker_0, # of connection points: 4
#     Node 4, Type 1, BuildingBlock: AZAVOO_clean_linker_0, # of connection points: 4
#     Node 5, Type 1, BuildingBlock: AZAVOO_clean_linker_0, # of connection points: 4
#     Edge 6, Type (0, 1), BuildingBlock: FUNLAD_clean_linker_0, # of connection points: 2
#     Edge 7, Type (0, 1), BuildingBlock: FUNLAD_clean_linker_0, # of connection points: 2
#     Edge 8, Type (0, 1), BuildingBlock: FUNLAD_clean_linker_0, # of connection points: 2
#     Edge 9, Type (0, 1), BuildingBlock: FUNLAD_clean_linker_0, # of connection points: 2
#     Edge 10, Type (0, 1), BuildingBlock: FUNLAD_clean_linker_0, # of connection points: 2
#     Edge 11, Type (0, 1), BuildingBlock: FUNLAD_clean_linker_0, # of connection points: 2
#     Edge 12, Type (0, 1), BuildingBlock: FUNLAD_clean_linker_0, # of connection points: 2
#     Edge 13, Type (0, 1), BuildingBlock: FUNLAD_clean_linker_0, # of connection points: 2
#     Edge 14, Type (0, 1), BuildingBlock: FUNLAD_clean_linker_0, # of connection points: 2
#     Edge 15, Type (0, 1), BuildingBlock: FUNLAD_clean_linker_0, # of connection points: 2
#     Edge 16, Type (0, 1), BuildingBlock: FUNLAD_clean_linker_0, # of connection points: 2
#     Edge 17, Type (0, 1), BuildingBlock: FUNLAD_clean_linker_0, # of connection points: 2
# Relax obj value: 0.169
# Max RMSD: 0.230
# Mean RMSD: 0.224
data_MOF--net-pth--node1-AZAVOO_clean_sbu_0--node2-AZAVOO_clean_linker_0--edge1-FUNLAD_clean_linker_0
_symmetry_space_group_name_H-M    P1
_symmetry_Int_Tables_number       1
_symmetry_cell_setting            triclinic
loop_
_symmetry_equiv_pos_as_xyz
'x, y, z'
_cell_length_a     29.544488
_cell_length_b     30.225111
_cell_length_c     79.298456
_cell_angle_alpha  92.248785
_cell_angle_beta   91.904966
_cell_angle_gamma 122.10233
loop_
_atom_site_label
_atom_site_type_symbol
_atom_site_fract_x
_atom_site_fract_y
_atom_site_fract_z
_atom_type_partial_charge
Mg0 Mg 0.07345 0.02979 0.05571 0.0
O1 O 0.03752 0.04793 0.03363 0.0
O2 O 0.09203 0.12547 0.02349 0.0
Mg3 Mg 0.16336 0.16339 0.04346 0.0
C4 C 0.04747 0.08174 0.02296 0.0
C5 C 0.97665 0.91264 0.06093 0.0
O6 O 0.92612 0.87437 0.05899 0.0
O7 O 0.05471 0.07793 0.07351 0.0
O8 O 0.10995 0.158 0.06482 0.0
O9 O 0.11446 0.00707 0.03714 0.0
O10 O 0.15032 0.08662 0.04949 0.0
C11 C 0.07411 0.12718 0.07448 0.0
C12 C 0.15335 0.05571 0.03866 0.0
O13 O 0.98966 0.95785 0.05679 0.0
Mg14 Mg 0.92 0.00199 0.37824 0.0
O15 O 0.99717 0.03449 0.39495 0.0
O16 O 0.0131 0.10529 0.41041 0.0
Mg17 Mg 0.94614 0.11888 0.40328 0.0
C18 C 0.02551 0.07217 0.40603 0.0
C19 C 0.92281 0.90329 0.36688 0.0
O20 O 0.88889 0.88389 0.37881 0.0
O21 O 0.96319 0.06803 0.36039 0.0
O22 O 0.97555 0.13622 0.37661 0.0
O23 O 0.87391 0.9553 0.39962 0.0
O24 O 0.89285 0.0351 0.39551 0.0
C25 C 0.98018 0.11665 0.3627 0.0
C26 C 0.87347 0.99611 0.40493 0.0
O27 O 0.94184 0.95049 0.36339 0.0
Mg28 Mg 0.01638 0.03727 0.72403 0.0
O29 O 0.07988 0.11287 0.73896 0.0
O30 O 0.03902 0.13928 0.75605 0.0
Mg31 Mg 0.94897 0.07844 0.75268 0.0
C32 C 0.08144 0.14544 0.75006 0.0
C33 C 0.1229 0.0536 0.71175 0.0
O34 O 0.13195 0.05542 0.72818 0.0
O35 O 0.99222 0.0827 0.70772 0.0
O36 O 0.94673 0.1015 0.72552 0.0
O37 O 0.01958 0.98952 0.74422 0.0
O38 O 0.96495 0.01851 0.74351 0.0
C39 C 0.96381 0.10202 0.71088 0.0
C40 C 0.98302 0.99381 0.75125 0.0
O41 O 0.07877 0.04675 0.70601 0.0
H42 H 0.06042 0.5199 0.10696 0.0
H43 H 0.18782 0.92139 0.25475 0.0
H44 H 0.01294 0.47452 0.19533 0.0
H45 H 0.00575 0.39916 0.18009 0.0
H46 H 0.16289 0.44573 0.20129 0.0
H47 H 0.1705 0.52252 0.21591 0.0
H48 H 0.02892 0.5669 0.17624 0.0
H49 H 0.02761 0.54538 0.1461 0.0
H50 H 0.1825 0.56395 0.1541 0.0
H51 H 0.18366 0.58627 0.18419 0.0
H52 H 0.0361 0.65853 0.19773 0.0
H53 H 0.03214 0.70477 0.17369 0.0
H54 H 0.19005 0.74367 0.16135 0.0
H55 H 0.19417 0.69809 0.18576 0.0
H56 H 0.03465 0.66421 0.23501 0.0
H57 H 0.044 0.7451 0.24657 0.0
H58 H 0.21146 0.83071 0.23605 0.0
H59 H 0.20169 0.74927 0.22477 0.0
H60 H 0.01836 0.57175 0.25308 0.0
H61 H 0.0059 0.61098 0.27858 0.0
H62 H 0.17583 0.72671 0.28348 0.0
H63 H 0.18757 0.68765 0.25771 0.0
H64 H 0.01565 0.47102 0.23514 0.0
H65 H 0.01195 0.40739 0.25415 0.0
H66 H 0.17696 0.51781 0.27149 0.0
H67 H 0.17991 0.58126 0.2526 0.0
O68 O 0.06188 0.52873 0.11892 0.0
O69 O 0.14123 0.53813 0.12374 0.0
O70 O 0.09677 0.84292 0.25544 0.0
O71 O 0.18282 0.88898 0.25 0.0
C72 C 0.10089 0.55522 0.21261 0.0
C73 C 0.10712 0.59133 0.20069 0.0
C74 C 0.11318 0.63931 0.20614 0.0
C75 C 0.11284 0.65111 0.22348 0.0
C76 C 0.10752 0.61533 0.23547 0.0
C77 C 0.10184 0.5675 0.23004 0.0
C78 C 0.09249 0.50422 0.20651 0.0
C79 C 0.04532 0.46778 0.19693 0.0
C80 C 0.04118 0.42452 0.18833 0.0
C81 C 0.08404 0.41671 0.1893 0.0
C82 C 0.12959 0.4512 0.20002 0.0
C83 C 0.13386 0.49477 0.20851 0.0
C84 C 0.10649 0.57839 0.18236 0.0
C85 C 0.06267 0.56665 0.17143 0.0
C86 C 0.06196 0.55419 0.15423 0.0
C87 C 0.10497 0.55296 0.14768 0.0
C88 C 0.14875 0.56459 0.15873 0.0
C89 C 0.14951 0.57728 0.17591 0.0
C90 C 0.11535 0.67495 0.19344 0.0
C91 C 0.07042 0.67825 0.19012 0.0
C92 C 0.06802 0.70416 0.1763 0.0
C93 C 0.11049 0.72709 0.16553 0.0
C94 C 0.15686 0.72647 0.16947 0.0
C95 C 0.15923 0.70044 0.18334 0.0
C96 C 0.11758 0.70092 0.22916 0.0
C97 C 0.07327 0.70051 0.23518 0.0
C98 C 0.07873 0.74676 0.24177 0.0
C99 C 0.12857 0.79437 0.2423 0.0
C100 C 0.17257 0.79473 0.23588 0.0
C101 C 0.16709 0.74836 0.22936 0.0
C102 C 0.10375 0.62721 0.25349 0.0
C103 C 0.05318 0.60418 0.26007 0.0
C104 C 0.04615 0.62684 0.27464 0.0
C105 C 0.08974 0.67272 0.28285 0.0
C106 C 0.1413 0.69211 0.27722 0.0
C107 C 0.14823 0.66949 0.26264 0.0
C108 C 0.09802 0.53067 0.24253 0.0
C109 C 0.05079 0.48147 0.24315 0.0
C110 C 0.04893 0.4451 0.2539 0.0
C111 C 0.09429 0.45742 0.26425 0.0
C112 C 0.14119 0.50728 0.26382 0.0
C113 C 0.14299 0.54357 0.25305 0.0
C114 C 0.10399 0.53953 0.12941 0.0
C115 C 0.13485 0.84342 0.24964 0.0
H116 H 0.57355 0.06771 0.44012 0.0
H117 H 0.27203 0.1688 0.57229 0.0
H118 H 0.56825 0.02735 0.5311 0.0
H119 H 0.63633 0.01527 0.51928 0.0
H120 H 0.75825 0.17428 0.53662 0.0
H121 H 0.68899 0.18643 0.54789 0.0
H122 H 0.493 0.03856 0.50777 0.0
H123 H 0.51371 0.03606 0.47826 0.0
H124 H 0.6522 0.19356 0.48655 0.0
H125 H 0.63061 0.19571 0.51599 0.0
H126 H 0.40889 0.03864 0.52336 0.0
H127 H 0.34796 0.03731 0.50148 0.0
H128 H 0.4564 0.20381 0.49757 0.0
H129 H 0.51823 0.20378 0.51889 0.0
H130 H 0.40051 0.043 0.56448 0.0
H131 H 0.32101 0.04315 0.57212 0.0
H132 H 0.3967 0.20403 0.55907 0.0
H133 H 0.47621 0.2035 0.55167 0.0
H134 H 0.48958 0.0418 0.58638 0.0
H135 H 0.45056 0.03431 0.61366 0.0
H136 H 0.49038 0.19399 0.6126 0.0
H137 H 0.5308 0.20154 0.58559 0.0
H138 H 0.57636 0.03805 0.57214 0.0
H139 H 0.63699 0.03979 0.59446 0.0
H140 H 0.70737 0.20614 0.6041 0.0
H141 H 0.64645 0.20395 0.58182 0.0
O142 O 0.56589 0.06967 0.4518 0.0
O143 O 0.63671 0.15061 0.45674 0.0
O144 O 0.26598 0.08507 0.576 0.0
O145 O 0.30293 0.16766 0.56935 0.0
C146 C 0.58089 0.11666 0.54483 0.0
C147 C 0.548 0.11866 0.53192 0.0
C148 C 0.50376 0.12175 0.53614 0.0
C149 C 0.4925 0.12316 0.55323 0.0
C150 C 0.52646 0.12291 0.56617 0.0
C151 C 0.57088 0.12003 0.56195 0.0
C152 C 0.62375 0.10786 0.54017 0.0
C153 C 0.60981 0.05927 0.53257 0.0
C154 C 0.6489 0.05234 0.52596 0.0
C155 C 0.70281 0.0939 0.52694 0.0
C156 C 0.717 0.14173 0.53547 0.0
C157 C 0.67767 0.14868 0.54201 0.0
C158 C 0.56005 0.11747 0.51394 0.0
C159 C 0.52747 0.07264 0.50313 0.0
C160 C 0.53956 0.07124 0.48631 0.0
C161 C 0.58459 0.11464 0.48003 0.0
C162 C 0.61718 0.1595 0.49096 0.0
C163 C 0.60496 0.16085 0.50777 0.0
C164 C 0.46773 0.12127 0.52264 0.0
C165 C 0.41948 0.07465 0.51764 0.0
C166 C 0.38459 0.07416 0.50524 0.0
C167 C 0.39696 0.12056 0.4978 0.0
C168 C 0.44583 0.16721 0.50281 0.0
C169 C 0.48107 0.16744 0.51506 0.0
C170 C 0.44401 0.12323 0.55754 0.0
C171 C 0.39981 0.07823 0.56331 0.0
C172 C 0.35447 0.07842 0.56764 0.0
C173 C 0.3525 0.12364 0.5662 0.0
C174 C 0.39688 0.16857 0.56032 0.0
C175 C 0.44227 0.16836 0.55604 0.0
C176 C 0.51285 0.12216 0.58403 0.0
C177 C 0.4914 0.07565 0.59232 0.0
C178 C 0.46862 0.07129 0.60779 0.0
C179 C 0.46675 0.11334 0.61517 0.0
C180 C 0.49153 0.16103 0.60733 0.0
C181 C 0.51446 0.16539 0.59188 0.0
C182 C 0.60712 0.12085 0.57546 0.0
C183 C 0.60489 0.07477 0.57911 0.0
C184 C 0.63934 0.07583 0.59183 0.0
C185 C 0.67687 0.12314 0.60095 0.0
C186 C 0.6792 0.1693 0.59714 0.0
C187 C 0.64433 0.16807 0.58454 0.0
C188 C 0.59747 0.11294 0.46218 0.0
C189 C 0.30446 0.12408 0.57082 0.0
H190 H 0.6015 0.64641 0.00905 0.0
H191 H 0.34631 0.20054 0.87124 0.0
H192 H 0.60247 0.67302 0.91381 0.0
H193 H 0.67285 0.76315 0.92347 0.0
H194 H 0.79199 0.72269 0.91894 0.0
H195 H 0.72156 0.63298 0.90891 0.0
H196 H 0.52259 0.57182 0.93868 0.0
H197 H 0.54146 0.60219 0.96863 0.0
H198 H 0.69309 0.61248 0.96777 0.0
H199 H 0.67338 0.5815 0.93788 0.0
H200 H 0.4395 0.4565 0.91994 0.0
H201 H 0.39149 0.38739 0.9394 0.0
H202 H 0.53884 0.39728 0.9542 0.0
H203 H 0.58639 0.46588 0.93456 0.0
H204 H 0.43215 0.45408 0.88176 0.0
H205 H 0.3618 0.36456 0.87204 0.0
H206 H 0.46443 0.31016 0.888 0.0
H207 H 0.53472 0.40004 0.89745 0.0
H208 H 0.50259 0.54667 0.86268 0.0
H209 H 0.45509 0.50052 0.83583 0.0
H210 H 0.53519 0.41527 0.83637 0.0
H211 H 0.58065 0.46027 0.8637 0.0
H212 H 0.60797 0.66184 0.87731 0.0
H213 H 0.67109 0.72367 0.85805 0.0
H214 H 0.73887 0.62814 0.85179 0.0
H215 H 0.67547 0.56659 0.87092 0.0
O216 O 0.59475 0.63426 -0.00277 0.0
O217 O 0.67234 0.63904 0.9961 0.0
O218 O 0.3225 0.26638 0.86683 0.0
O219 O 0.3734 0.23628 0.87502 0.0
C220 C 0.61434 0.59187 0.90557 0.0
C221 C 0.58516 0.55671 0.91793 0.0
C222 C 0.54454 0.50445 0.91295 0.0
C223 C 0.53175 0.4881 0.8956 0.0
C224 C 0.56075 0.52344 0.88326 0.0
C225 C 0.60284 0.57486 0.88825 0.0
C226 C 0.65708 0.64664 0.91078 0.0
C227 C 0.64385 0.68389 0.91474 0.0
C228 C 0.68395 0.73522 0.92012 0.0
C229 C 0.73766 0.74964 0.92188 0.0
C230 C 0.75081 0.71238 0.91767 0.0
C231 C 0.71081 0.66134 0.912 0.0
C232 C 0.59675 0.57479 0.93612 0.0
C233 C 0.55979 0.58057 0.94501 0.0
C234 C 0.57072 0.59799 0.9621 0.0
C235 C 0.61886 0.6099 0.97059 0.0
C236 C 0.65571 0.60379 0.96161 0.0
C237 C 0.64465 0.58627 0.94453 0.0
C238 C 0.51637 0.4661 0.92583 0.0
C239 C 0.46137 0.44381 0.92743 0.0
C240 C 0.43402 0.40421 0.93845 0.0
C241 C 0.46139 0.38671 0.94821 0.0
C242 C 0.5168 0.41019 0.94691 0.0
C243 C 0.544 0.4494 0.93575 0.0
C244 C 0.48849 0.43345 0.89024 0.0
C245 C 0.43935 0.42276 0.8831 0.0
C246 C 0.39924 0.3716 0.87759 0.0
C247 C 0.40753 0.33018 0.87922 0.0
C248 C 0.45674 0.34111 0.88654 0.0
C249 C 0.4969 0.39234 0.89199 0.0
C250 C 0.54466 0.50648 0.86513 0.0
C251 C 0.51107 0.51921 0.85671 0.0
C252 C 0.48398 0.49271 0.84132 0.0
C253 C 0.49054 0.4534 0.83401 0.0
C254 C 0.52815 0.44433 0.84182 0.0
C255 C 0.55473 0.47045 0.85732 0.0
C256 C 0.63729 0.60988 0.87547 0.0
C257 C 0.63624 0.65422 0.87165 0.0
C258 C 0.67249 0.68956 0.86076 0.0
C259 C 0.71014 0.68089 0.85347 0.0
C260 C 0.71003 0.63563 0.85705 0.0
C261 C 0.67392 0.60048 0.86797 0.0
C262 C 0.63045 0.6286 0.98873 0.0
C263 C 0.36513 0.2758 0.87331 0.0
C264 C 0.07594 0.20382 0.08828 0.0
C265 C 0.05869 0.15059 0.08811 0.0
C266 C 0.06837 0.22836 0.10216 0.0
C267 C 0.04375 0.20036 0.1163 0.0
C268 C 0.02308 0.14639 0.11569 0.0
C269 C 0.03066 0.12167 0.10174 0.0
C270 C 0.04067 0.22735 0.13186 0.0
C271 C 0.0807 0.27636 0.13698 0.0
C272 C 0.08084 0.30783 0.15188 0.0
C273 C 0.12852 0.35559 0.15662 0.0
C274 C 0.13 0.38969 0.16929 0.0
C275 C 0.08374 0.37686 0.17762 0.0
H276 H 0.99706 0.25785 0.15733 0.0
C277 C 0.03639 0.32811 0.1734 0.0
C278 C 0.03482 0.29394 0.16062 0.0
H279 H 0.00013 0.3169 0.17968 0.0
H280 H 0.09666 0.22708 0.07786 0.0
H281 H 0.08267 0.26955 0.1019 0.0
H282 H 0.0031 0.12382 0.12632 0.0
H283 H 0.01649 0.08049 0.10195 0.0
H284 H 0.00662 0.20553 0.13945 0.0
H285 H 0.11625 0.29498 0.12978 0.0
H286 H 0.16457 0.3675 0.1501 0.0
H287 H 0.16692 0.42725 0.17195 0.0
C288 C 0.85368 0.04419 0.42668 0.0
C289 C 0.85658 0.00058 0.42191 0.0
C290 C 0.83996 0.05033 0.44284 0.0
C291 C 0.82854 0.01284 0.45466 0.0
C292 C 0.82974 0.96833 0.44979 0.0
C293 C 0.84409 0.9624 0.43358 0.0
C294 C 0.81115 0.01787 0.47157 0.0
C295 C 0.82975 0.06496 0.47971 0.0
C296 C 0.8037 0.0734 0.49408 0.0
C297 C 0.80911 0.1223 0.49639 0.0
C298 C 0.77857 0.12989 0.50781 0.0
C299 C 0.74235 0.08884 0.51735 0.0
H300 H 0.7669 0.99588 0.50361 0.0
C301 C 0.74022 0.04119 0.51607 0.0
C302 C 0.77058 0.03347 0.50454 0.0
H303 H 0.71372 0.00923 0.52358 0.0
H304 H 0.86147 0.07357 0.41788 0.0
H305 H 0.83697 0.0839 0.44586 0.0
H306 H 0.81998 0.93837 0.45857 0.0
H307 H 0.84561 0.92815 0.43022 0.0
H308 H 0.78005 0.98224 0.4767 0.0
H309 H 0.86171 0.09976 0.47438 0.0
H310 H 0.83468 0.1539 0.48861 0.0
H311 H 0.78102 0.16697 0.50834 0.0
C312 C 0.9759 0.9368 0.7744 0.0
C313 C 0.96087 0.9692 0.76716 0.0
C314 C 0.94991 0.90827 0.78819 0.0
C315 C 0.9084 0.91171 0.79499 0.0
C316 C 0.89572 0.94646 0.7884 0.0
C317 C 0.92131 0.97458 0.77455 0.0
C318 C 0.87607 0.87827 0.80845 0.0
C319 C 0.86515 0.82928 0.80976 0.0
C320 C 0.82643 0.79238 0.82144 0.0
C321 C 0.80096 0.73842 0.81734 0.0
C322 C 0.76305 0.70226 0.82767 0.0
C323 C 0.75008 0.71932 0.84242 0.0
H324 H 0.83423 0.8507 0.84029 0.0
C325 C 0.77627 0.77333 0.84671 0.0
C326 C 0.8142 0.80952 0.83638 0.0
H327 H 0.76808 0.78763 0.85822 0.0
H328 H 0.00656 0.93216 0.76909 0.0
H329 H 0.96192 0.88312 0.79333 0.0
H330 H 0.86428 0.95022 0.79353 0.0
H331 H 0.90875 0.99919 0.76933 0.0
H332 H 0.85598 0.89233 0.81617 0.0
H333 H 0.8813 0.81374 0.80087 0.0
H334 H 0.80975 0.72412 0.80595 0.0
H335 H 0.74334 0.66092 0.82395 0.0
C336 C 0.01032 0.85387 0.06502 0.0
C337 C 0.01644 0.9027 0.06834 0.0
C338 C 0.04112 0.83993 0.07438 0.0
C339 C 0.07716 0.87389 0.08772 0.0
C340 C 0.0867 0.9246 0.08994 0.0
C341 C 0.05666 0.93903 0.08027 0.0
C342 C 0.10059 0.85585 0.10058 0.0
C343 C 0.07538 0.80524 0.10429 0.0
C344 C 0.08834 0.78602 0.11953 0.0
C345 C 0.04872 0.73679 0.12456 0.0
C346 C 0.05637 0.71786 0.13939 0.0
C347 C 0.1041 0.74754 0.14957 0.0
H348 H 0.16924 0.85267 0.12577 0.0
C349 C 0.14491 0.79593 0.14429 0.0
C350 C 0.13712 0.81517 0.1294 0.0
H351 H 0.18232 0.81932 0.15185 0.0
H352 H 0.98034 0.82571 0.05558 0.0
H353 H 0.03475 0.80164 0.07155 0.0
H354 H 0.11484 0.95189 0.09992 0.0
H355 H 0.06215 0.97704 0.083 0.0
H356 H 0.13456 0.88561 0.10863 0.0
H357 H 0.03905 0.77654 0.09689 0.0
H358 H 0.01097 0.71316 0.11716 0.0
H359 H 0.02475 0.6798 0.14291 0.0
C360 C 0.11067 0.12166 0.42442 0.0
C361 C 0.07253 0.07582 0.41476 0.0
C362 C 0.15288 0.12369 0.43368 0.0
C363 C 0.15753 0.07972 0.43355 0.0
C364 C 0.11991 0.03424 0.42372 0.0
C365 C 0.07815 0.03243 0.41427 0.0
C366 C 0.19827 0.07863 0.44462 0.0
C367 C 0.24648 0.12147 0.44929 0.0
C368 C 0.28461 0.12 0.46151 0.0
C369 C 0.33982 0.15259 0.45984 0.0
C370 C 0.37639 0.15241 0.47145 0.0
C371 C 0.35839 0.12038 0.4852 0.0
H372 H 0.2242 0.06388 0.47722 0.0
C373 C 0.30296 0.08852 0.48699 0.0
C374 C 0.26651 0.08815 0.47526 0.0
H375 H 0.28756 0.0645 0.49766 0.0
H376 H 0.10744 0.15574 0.42507 0.0
H377 H 0.18044 0.15898 0.44144 0.0
H378 H 0.12242 -0.00026 0.42352 0.0
H379 H 0.04929 0.99641 0.40703 0.0
H380 H 0.18831 0.0409 0.44888 0.0
H381 H 0.25902 0.15829 0.44374 0.0
H382 H 0.35467 0.17777 0.44941 0.0
H383 H 0.41871 0.17704 0.46955 0.0
C384 C 0.18181 0.19394 0.75254 0.0
C385 C 0.13421 0.19087 0.75655 0.0
C386 C 0.23139 0.23513 0.7595 0.0
C387 C 0.23441 0.27422 0.77058 0.0
C388 C 0.18717 0.27241 0.77398 0.0
C389 C 0.13755 0.231 0.76716 0.0
C390 C 0.28576 0.31654 0.77918 0.0
C391 C 0.32572 0.3095 0.78375 0.0
C392 C 0.37232 0.34804 0.79514 0.0
C393 C 0.39352 0.32955 0.80701 0.0
C394 C 0.43336 0.36402 0.8192 0.0
C395 C 0.45378 0.41808 0.81958 0.0
H396 H 0.37994 0.41785 0.78558 0.0
C397 C 0.43482 0.43691 0.80699 0.0
C398 C 0.39434 0.40224 0.79492 0.0
H399 H 0.45044 0.47837 0.80665 0.0
H400 H 0.18081 0.16401 0.74427 0.0
H401 H 0.26717 0.23613 0.7562 0.0
H402 H 0.18846 0.30231 0.78236 0.0
H403 H 0.10179 0.23021 0.77037 0.0
H404 H 0.2881 0.35225 0.7836 0.0
H405 H 0.32105 0.2718 0.78088 0.0
H406 H 0.37737 0.28797 0.80738 0.0
H407 H 0.44615 0.34778 0.82881 0.0
C408 C 0.9098 0.13748 0.69987 0.0
C409 C 0.94529 0.12081 0.69686 0.0
C410 C 0.88557 0.14754 0.68644 0.0
C411 C 0.89629 0.14121 0.66969 0.0
C412 C 0.93469 0.12844 0.66671 0.0
C413 C 0.95877 0.11796 0.68017 0.0
C414 C 0.86601 0.14534 0.6552 0.0
C415 C 0.81348 0.12735 0.65572 0.0
C416 C 0.78005 0.12661 0.64123 0.0
C417 C 0.72501 0.08855 0.64011 0.0
C418 C 0.69172 0.087 0.62689 0.0
C419 C 0.71269 0.12412 0.61467 0.0
H420 H 0.84322 0.19439 0.62965 0.0
C421 C 0.7677 0.16261 0.61583 0.0
C422 C 0.8012 0.16378 0.62896 0.0
H423 H 0.78483 0.19167 0.60653 0.0
H424 H 0.89906 0.14095 0.71256 0.0
H425 H 0.85754 0.15919 0.68918 0.0
H426 H 0.94416 0.12408 0.65391 0.0
H427 H 0.98633 0.10574 0.6774 0.0
H428 H 0.88586 0.15871 0.64352 0.0
H429 H 0.79296 0.10897 0.66692 0.0
H430 H 0.70768 0.05976 0.64949 0.0
H431 H 0.64935 0.05734 0.62642 0.0
C432 C 0.02092 0.06656 0.99206 0.0
C433 C 0.00704 0.06552 0.00886 0.0
C434 C 0.98136 0.03498 0.97924 0.0
C435 C 0.9275 0.00245 0.98315 0.0
C436 C 0.91351 0.00612 -0.00035 0.0
C437 C 0.95284 0.03715 0.01238 0.0
C438 C 0.88684 0.95782 0.97164 0.0
C439 C 0.8903 0.95212 0.95492 0.0
C440 C 0.8534 0.90087 0.94565 0.0
C441 C 0.82372 0.89706 0.93089 0.0
C442 C 0.78615 0.84783 0.92296 0.0
C443 C 0.77918 0.80208 0.92944 0.0
H444 H 0.87011 0.85722 0.96315 0.0
C445 C 0.81057 0.80627 0.9438 0.0
C446 C 0.84704 0.85514 0.9519 0.0
H447 H 0.80572 0.77157 0.94907 0.0
H448 H 0.06261 0.08756 0.98912 0.0
H449 H 0.99384 0.0329 0.96671 0.0
H450 H 0.87241 0.98175 0.00301 0.0
H451 H 0.94125 0.0357 0.02527 0.0
H452 H 0.8533 0.92576 0.97754 0.0
H453 H 0.92023 0.98417 0.94808 0.0
H454 H 0.82831 0.93192 0.92584 0.0
H455 H 0.76243 0.84541 0.91184 0.0
C456 C 0.97976 0.89304 0.34632 0.0
C457 C 0.93996 0.87109 0.35802 0.0
C458 C 0.99674 0.86295 0.33822 0.0
C459 C 0.97439 0.81017 0.34169 0.0
C460 C 0.93398 0.78805 0.35314 0.0
C461 C 0.91715 0.81821 0.36131 0.0
C462 C 0.99041 0.77652 0.33301 0.0
C463 C 0.03892 0.79558 0.32684 0.0
C464 C 0.05373 0.76309 0.31679 0.0
C465 C 0.09368 0.78767 0.3053 0.0
C466 C 0.1066 0.75849 0.29474 0.0
C467 C 0.08032 0.70393 0.29557 0.0
H468 H -0.00087 0.68855 0.32723 0.0
C469 C 0.04189 0.67949 0.30757 0.0
C470 C 0.02879 0.70874 0.31812 0.0
H471 H 0.02149 0.63763 0.30868 0.0
H472 H -0.00213 0.93355 0.3434 0.0
H473 H 0.02654 0.88103 0.32901 0.0
H474 H 0.91559 0.74735 0.35589 0.0
H475 H 0.88621 0.8 0.37019 0.0
H476 H 0.96077 0.73481 0.33161 0.0
H477 H 0.06848 0.83731 0.3284 0.0
H478 H 0.11373 0.82946 0.30405 0.0
H479 H 0.13566 0.77854 0.28543 0.0
C480 C 0.21288 0.06826 0.70636 0.0
C481 C 0.16305 0.05837 0.70007 0.0
C482 C 0.25041 0.07182 0.69529 0.0
C483 C 0.23882 0.06567 0.67769 0.0
C484 C 0.18894 0.05556 0.67146 0.0
C485 C 0.15158 0.05222 0.6825 0.0
C486 C 0.27655 0.06754 0.66541 0.0
C487 C 0.32994 0.09269 0.66868 0.0
C488 C 0.3663 0.09554 0.6557 0.0
C489 C 0.41823 0.14011 0.65577 0.0
C490 C 0.45177 0.14545 0.64292 0.0
C491 C 0.4342 0.10586 0.62988 0.0
H492 H 0.31063 0.0192 0.64296 0.0
C493 C 0.38318 0.06014 0.63031 0.0
C494 C 0.34969 0.05492 0.64309 0.0
H495 H 0.36823 0.02903 0.62041 0.0
H496 H 0.22283 0.0729 0.71984 0.0
H497 H 0.28779 0.07825 0.70062 0.0
H498 H 0.17881 0.0503 0.65796 0.0
H499 H 0.11351 0.04438 0.67723 0.0
H500 H 0.25964 0.04977 0.65278 0.0
H501 H 0.34804 0.11508 0.68067 0.0
H502 H 0.43225 0.17162 0.66549 0.0
H503 H 0.49113 0.18084 0.64304 0.0
C504 C 0.24656 0.12063 0.0323 0.0
C505 C 0.19558 0.07852 0.02661 0.0
C506 C 0.28421 0.15026 0.02081 0.0
C507 C 0.27098 0.13937 0.00328 0.0
C508 C 0.22124 0.09472 -0.00235 0.0
C509 C 0.18378 0.06437 0.00923 0.0
C510 C 0.30629 0.17521 0.99063 0.0
C511 C 0.34414 0.22606 0.99457 0.0
C512 C 0.3751 0.26432 0.98194 0.0
C513 C 0.42467 0.30934 0.98729 0.0
C514 C 0.45313 0.34861 0.97626 0.0
C515 C 0.43218 0.34405 0.95969 0.0
H516 H 0.31574 0.22595 0.96077 0.0
C517 C 0.38274 0.29887 0.95425 0.0
C518 C 0.35445 0.25932 0.96524 0.0
H519 H 0.36581 0.29421 0.94149 0.0
H520 H 0.25669 0.1318 0.04569 0.0
H521 H 0.32289 0.18237 0.02584 0.0
H522 H 0.21019 0.08486 0.98425 0.0
H523 H 0.14451 0.03218 0.00456 0.0
H524 H 0.29837 0.15998 0.97752 0.0
H525 H 0.35244 0.24172 0.0076 0.0
H526 H 0.44117 0.31447 0.00014 0.0
H527 H 0.49087 0.38322 0.98086 0.0
C528 C 0.03081 0.20619 0.3522 0.0
C529 C 0.00318 0.15171 0.34871 0.0
C530 C 0.04685 0.2399 0.33913 0.0
C531 C 0.03606 0.22005 0.32215 0.0
C532 C 0.00999 0.16568 0.31863 0.0
C533 C 0.99405 0.13177 0.33179 0.0
C534 C 0.04638 0.25459 0.30802 0.0
C535 C 0.08358 0.30637 0.30941 0.0
C536 C 0.08773 0.34398 0.29706 0.0
C537 C 0.11448 0.3972 0.30256 0.0
C538 C 0.11682 0.43395 0.29192 0.0
C539 C 0.09273 0.41842 0.27543 0.0
H540 H 0.04513 0.28829 0.27542 0.0
C541 C 0.06715 0.36539 0.26972 0.0
C542 C 0.06474 0.32852 0.28039 0.0
H543 H 0.0493 0.3524 0.25693 0.0
H544 H 0.03857 0.22294 0.36508 0.0
H545 H 0.06521 0.28122 0.34249 0.0
H546 H 0.00073 0.14929 0.30567 0.0
H547 H 0.97261 0.08996 0.32868 0.0
H548 H 0.02023 0.23684 0.29663 0.0
H549 H 0.11029 0.32307 0.32074 0.0
H550 H 0.13263 0.41033 0.31532 0.0
H551 H 0.1365 0.4744 0.29676 0.0
loop_
_geom_bond_atom_site_label_1
_geom_bond_atom_site_label_2
_geom_bond_distance
_geom_bond_site_symmetry_2
_ccdc_geom_bond_type
Mg0 O1 2.028 . S
Mg0 O7 1.986 . S
Mg0 O9 2.114 . S
Mg0 O10 2.251 . S
Mg0 O13 2.010 . S
O1 Mg0 2.028 . S
O1 C4 1.250 . S
O2 Mg3 2.028 . S
O2 C4 1.248 . S
Mg3 O2 2.028 . S
Mg3 O8 2.032 . S
Mg3 O10 2.079 . S
C4 O1 1.250 . S
C4 O2 1.248 . S
C5 O6 1.264 . S
C5 O13 1.249 . S
O6 C5 1.264 . S
O7 Mg0 1.986 . S
O7 C11 1.246 . S
O8 Mg3 2.032 . S
O8 C11 1.259 . S
O9 Mg0 2.114 . S
O9 C12 1.252 . S
O10 Mg0 2.251 . S
O10 Mg3 2.079 . S
O10 C12 1.273 . S
C11 O7 1.246 . S
C11 O8 1.259 . S
C12 O9 1.252 . S
C12 O10 1.273 . S
O13 Mg0 2.010 . S
O13 C5 1.249 . S
Mg14 O15 2.028 1_655 S
Mg14 O21 1.986 1_655 S
Mg14 O23 2.114 1_545 S
Mg14 O24 2.251 . S
Mg14 O27 2.010 1_545 S
O15 Mg14 2.028 1_455 S
O15 C18 1.250 . S
O16 Mg17 2.028 . S
O16 C18 1.248 . S
Mg17 O16 2.028 . S
Mg17 O22 2.032 . S
Mg17 O24 2.079 1_455 S
C18 O15 1.250 . S
C18 O16 1.248 . S
C19 O20 1.264 . S
C19 O27 1.249 . S
O20 C19 1.264 . S
O21 Mg14 1.986 1_455 S
O21 C25 1.246 . S
O22 Mg17 2.032 . S
O22 C25 1.259 . S
O23 Mg14 2.114 1_565 S
O23 C26 1.270 . S
O24 Mg14 2.251 . S
O24 Mg17 2.079 1_655 S
O24 C26 1.259 1_545 S
C25 O21 1.246 . S
C25 O22 1.259 . S
C26 O23 1.270 . S
C26 O24 1.259 1_565 S
O27 Mg14 2.010 1_565 S
O27 C19 1.249 . S
Mg28 O29 2.028 . S
Mg28 O35 1.986 . S
Mg28 O37 2.114 . S
Mg28 O38 2.251 . S
Mg28 O41 2.010 . S
O29 Mg28 2.028 . S
O29 C32 1.250 . S
O30 Mg31 2.028 . S
O30 C32 1.248 . S
Mg31 O30 2.028 . S
Mg31 O36 2.032 . S
Mg31 O38 2.079 . S
C32 O29 1.250 . S
C32 O30 1.248 . S
C33 O34 1.264 . S
C33 O41 1.249 . S
O34 C33 1.264 . S
O35 Mg28 1.986 . S
O35 C39 1.246 . S
O36 Mg31 2.032 . S
O36 C39 1.259 . S
O37 Mg28 2.114 . S
O37 C40 1.252 . S
O38 Mg28 2.251 . S
O38 Mg31 2.079 . S
O38 C40 1.273 . S
C39 O35 1.246 . S
C39 O36 1.259 . S
C40 O37 1.252 . S
C40 O38 1.273 . S
O41 Mg28 2.010 . S
O41 C33 1.249 . S
H42 O68 0.856 . S
H43 O71 0.854 . S
H44 C79 0.930 1_655 S
H45 C80 0.926 1_655 S
H46 C82 0.930 . S
H47 C83 0.930 . S
H48 C85 0.931 . S
H49 C86 0.930 . S
H50 C88 0.930 . S
H51 C89 0.929 . S
H52 C91 0.915 1_655 S
H53 C92 0.931 . S
H54 C94 0.930 . S
H55 C95 0.929 . S
H56 C97 0.931 1_655 S
H57 C98 0.930 1_655 S
H58 C100 0.930 . S
H59 C101 0.932 . S
H60 C103 0.930 . S
H61 C104 0.929 . S
H62 C106 0.931 . S
H63 C107 0.930 . S
H64 C109 0.929 1_655 S
H65 C110 0.931 1_655 S
H66 C112 0.930 . S
H67 C113 0.929 . S
O68 H42 0.856 . S
O68 C114 1.300 . S
O69 C114 1.209 . S
O70 C115 1.199 . S
O71 H43 0.854 . S
O71 C115 1.297 . S
C72 C73 1.404 . S
C72 C77 1.397 . S
C72 C78 1.492 . S
C73 C72 1.404 . S
C73 C74 1.396 . S
C73 C84 1.492 . S
C74 C73 1.396 . S
C74 C75 1.397 . S
C74 C90 1.509 . S
C75 C74 1.397 . S
C75 C76 1.412 . S
C75 C96 1.485 . S
C76 C75 1.412 . S
C76 C77 1.388 . S
C76 C102 1.490 . S
C77 C72 1.397 . S
C77 C76 1.388 . S
C77 C108 1.519 . S
C78 C72 1.492 . S
C78 C79 1.363 . S
C78 C83 1.390 . S
C79 H44 0.930 1_455 S
C79 C78 1.363 . S
C79 C80 1.370 . S
C80 H45 0.926 1_455 S
C80 C79 1.370 . S
C80 C81 1.390 . S
C81 C80 1.390 . S
C81 C82 1.395 . S
C82 H46 0.930 . S
C82 C81 1.395 . S
C82 C83 1.362 . S
C83 H47 0.930 . S
C83 C78 1.390 . S
C83 C82 1.362 . S
C84 C73 1.492 . S
C84 C85 1.377 . S
C84 C89 1.397 . S
C85 H48 0.931 . S
C85 C84 1.377 . S
C85 C86 1.376 . S
C86 H49 0.930 . S
C86 C85 1.376 . S
C86 C87 1.376 . S
C87 C86 1.376 . S
C87 C88 1.378 . S
C87 C114 1.486 . S
C88 H50 0.930 . S
C88 C87 1.378 . S
C88 C89 1.376 . S
C89 H51 0.929 . S
C89 C84 1.397 . S
C89 C88 1.376 . S
C90 C74 1.509 . S
C90 C91 1.391 . S
C90 C95 1.386 . S
C91 H52 0.915 1_455 S
C91 C90 1.391 . S
C91 C92 1.375 . S
C92 H53 0.931 . S
C92 C91 1.375 . S
C92 C93 1.375 . S
C93 C92 1.375 . S
C93 C94 1.361 . S
C94 H54 0.930 . S
C94 C93 1.361 . S
C94 C95 1.399 . S
C95 H55 0.929 . S
C95 C90 1.386 . S
C95 C94 1.399 . S
C96 C75 1.485 . S
C96 C97 1.394 . S
C96 C101 1.360 . S
C97 H56 0.931 1_455 S
C97 C96 1.394 . S
C97 C98 1.372 . S
C98 H57 0.930 1_455 S
C98 C97 1.372 . S
C98 C99 1.397 . S
C99 C98 1.397 . S
C99 C100 1.390 . S
C99 C115 1.476 . S
C100 H58 0.930 . S
C100 C99 1.390 . S
C100 C101 1.366 . S
C101 H59 0.932 . S
C101 C96 1.360 . S
C101 C100 1.366 . S
C102 C76 1.490 . S
C102 C103 1.380 1_455 S
C102 C107 1.386 . S
C103 H60 0.930 . S
C103 C102 1.380 1_655 S
C103 C104 1.381 . S
C104 H61 0.929 . S
C104 C103 1.381 . S
C104 C105 1.371 1_655 S
C105 C104 1.371 1_455 S
C105 C106 1.380 . S
C106 H62 0.931 . S
C106 C105 1.380 . S
C106 C107 1.387 . S
C107 H63 0.930 . S
C107 C102 1.386 . S
C107 C106 1.387 . S
C108 C77 1.519 . S
C108 C109 1.377 . S
C108 C113 1.361 . S
C109 H64 0.929 1_455 S
C109 C108 1.377 . S
C109 C110 1.386 . S
C110 H65 0.931 1_455 S
C110 C109 1.386 . S
C110 C111 1.363 . S
C111 C110 1.363 . S
C111 C112 1.385 . S
C112 H66 0.930 . S
C112 C111 1.385 . S
C112 C113 1.396 . S
C113 H67 0.929 . S
C113 C108 1.361 . S
C113 C112 1.396 . S
C114 O68 1.300 . S
C114 O69 1.209 . S
C114 C87 1.486 . S
C115 O70 1.199 . S
C115 O71 1.297 . S
C115 C99 1.476 . S
H116 O142 0.856 . S
H117 O145 0.854 . S
H118 C153 0.930 . S
H119 C154 0.930 . S
H120 C156 0.930 . S
H121 C157 0.930 . S
H122 C159 0.931 . S
H123 C160 0.930 . S
H124 C162 0.930 . S
H125 C163 0.929 . S
H126 C165 0.930 . S
H127 C166 0.931 . S
H128 C168 0.930 . S
H129 C169 0.929 . S
H130 C171 0.931 . S
H131 C172 0.930 . S
H132 C174 0.930 . S
H133 C175 0.932 . S
H134 C177 0.930 . S
H135 C178 0.929 . S
H136 C180 0.931 . S
H137 C181 0.930 . S
H138 C183 0.929 . S
H139 C184 0.931 . S
H140 C186 0.930 . S
H141 C187 0.929 . S
O142 H116 0.856 . S
O142 C188 1.300 . S
O143 C188 1.209 . S
O144 C189 1.199 . S
O145 H117 0.854 . S
O145 C189 1.297 . S
C146 C147 1.404 . S
C146 C151 1.397 . S
C146 C152 1.492 . S
C147 C146 1.404 . S
C147 C148 1.396 . S
C147 C158 1.492 . S
C148 C147 1.396 . S
C148 C149 1.397 . S
C148 C164 1.509 . S
C149 C148 1.397 . S
C149 C150 1.412 . S
C149 C170 1.485 . S
C150 C149 1.412 . S
C150 C151 1.388 . S
C150 C176 1.490 . S
C151 C146 1.397 . S
C151 C150 1.388 . S
C151 C182 1.519 . S
C152 C146 1.492 . S
C152 C153 1.363 . S
C152 C157 1.390 . S
C153 H118 0.930 . S
C153 C152 1.363 . S
C153 C154 1.372 . S
C154 H119 0.930 . S
C154 C153 1.372 . S
C154 C155 1.383 . S
C155 C154 1.383 . S
C155 C156 1.395 . S
C156 H120 0.930 . S
C156 C155 1.395 . S
C156 C157 1.362 . S
C157 H121 0.930 . S
C157 C152 1.390 . S
C157 C156 1.362 . S
C158 C147 1.492 . S
C158 C159 1.377 . S
C158 C163 1.397 . S
C159 H122 0.931 . S
C159 C158 1.377 . S
C159 C160 1.376 . S
C160 H123 0.930 . S
C160 C159 1.376 . S
C160 C161 1.376 . S
C161 C160 1.376 . S
C161 C162 1.378 . S
C161 C188 1.486 . S
C162 H124 0.930 . S
C162 C161 1.378 . S
C162 C163 1.376 . S
C163 H125 0.929 . S
C163 C158 1.397 . S
C163 C162 1.376 . S
C164 C148 1.509 . S
C164 C165 1.391 . S
C164 C169 1.386 . S
C165 H126 0.930 . S
C165 C164 1.391 . S
C165 C166 1.375 . S
C166 H127 0.931 . S
C166 C165 1.375 . S
C166 C167 1.375 . S
C167 C166 1.375 . S
C167 C168 1.361 . S
C168 H128 0.930 . S
C168 C167 1.361 . S
C168 C169 1.399 . S
C169 H129 0.929 . S
C169 C164 1.386 . S
C169 C168 1.399 . S
C170 C149 1.485 . S
C170 C171 1.394 . S
C170 C175 1.360 . S
C171 H130 0.931 . S
C171 C170 1.394 . S
C171 C172 1.372 . S
C172 H131 0.930 . S
C172 C171 1.372 . S
C172 C173 1.397 . S
C173 C172 1.397 . S
C173 C174 1.390 . S
C173 C189 1.476 . S
C174 H132 0.930 . S
C174 C173 1.390 . S
C174 C175 1.366 . S
C175 H133 0.932 . S
C175 C170 1.360 . S
C175 C174 1.366 . S
C176 C150 1.490 . S
C176 C177 1.380 . S
C176 C181 1.386 . S
C177 H134 0.930 . S
C177 C176 1.380 . S
C177 C178 1.381 . S
C178 H135 0.929 . S
C178 C177 1.381 . S
C178 C179 1.371 . S
C179 C178 1.371 . S
C179 C180 1.380 . S
C180 H136 0.931 . S
C180 C179 1.380 . S
C180 C181 1.387 . S
C181 H137 0.930 . S
C181 C176 1.386 . S
C181 C180 1.387 . S
C182 C151 1.519 . S
C182 C183 1.377 . S
C182 C187 1.361 . S
C183 H138 0.929 . S
C183 C182 1.377 . S
C183 C184 1.386 . S
C184 H139 0.931 . S
C184 C183 1.386 . S
C184 C185 1.363 . S
C185 C184 1.363 . S
C185 C186 1.385 . S
C186 H140 0.930 . S
C186 C185 1.385 . S
C186 C187 1.396 . S
C187 H141 0.929 . S
C187 C182 1.361 . S
C187 C186 1.396 . S
C188 O142 1.300 . S
C188 O143 1.209 . S
C188 C161 1.486 . S
C189 O144 1.199 . S
C189 O145 1.297 . S
C189 C173 1.476 . S
H190 O216 0.856 . S
H191 O219 0.854 . S
H192 C227 0.930 . S
H193 C228 0.930 . S
H194 C230 0.930 . S
H195 C231 0.930 . S
H196 C233 0.931 . S
H197 C234 0.930 . S
H198 C236 0.930 . S
H199 C237 0.929 . S
H200 C239 0.930 . S
H201 C240 0.931 . S
H202 C242 0.930 . S
H203 C243 0.929 . S
H204 C245 0.931 . S
H205 C246 0.930 . S
H206 C248 0.930 . S
H207 C249 0.932 . S
H208 C251 0.930 . S
H209 C252 0.929 . S
H210 C254 0.931 . S
H211 C255 0.930 . S
H212 C257 0.929 . S
H213 C258 0.931 . S
H214 C260 0.930 . S
H215 C261 0.929 . S
O216 H190 0.856 . S
O216 C262 1.300 1_554 S
O217 C262 1.213 . S
O218 C263 1.199 . S
O219 H191 0.854 . S
O219 C263 1.297 . S
C220 C221 1.404 . S
C220 C225 1.397 . S
C220 C226 1.492 . S
C221 C220 1.404 . S
C221 C222 1.396 . S
C221 C232 1.492 . S
C222 C221 1.396 . S
C222 C223 1.397 . S
C222 C238 1.509 . S
C223 C222 1.397 . S
C223 C224 1.412 . S
C223 C244 1.485 . S
C224 C223 1.412 . S
C224 C225 1.388 . S
C224 C250 1.490 . S
C225 C220 1.397 . S
C225 C224 1.388 . S
C225 C256 1.519 . S
C226 C220 1.492 . S
C226 C227 1.363 . S
C226 C231 1.390 . S
C227 H192 0.930 . S
C227 C226 1.363 . S
C227 C228 1.372 . S
C228 H193 0.930 . S
C228 C227 1.372 . S
C228 C229 1.383 . S
C229 C228 1.383 . S
C229 C230 1.395 . S
C230 H194 0.930 . S
C230 C229 1.395 . S
C230 C231 1.362 . S
C231 H195 0.930 . S
C231 C226 1.390 . S
C231 C230 1.362 . S
C232 C221 1.492 . S
C232 C233 1.377 . S
C232 C237 1.397 . S
C233 H196 0.931 . S
C233 C232 1.377 . S
C233 C234 1.376 . S
C234 H197 0.930 . S
C234 C233 1.376 . S
C234 C235 1.376 . S
C235 C234 1.376 . S
C235 C236 1.378 . S
C235 C262 1.486 . S
C236 H198 0.930 . S
C236 C235 1.378 . S
C236 C237 1.376 . S
C237 H199 0.929 . S
C237 C232 1.397 . S
C237 C236 1.376 . S
C238 C222 1.509 . S
C238 C239 1.391 . S
C238 C243 1.386 . S
C239 H200 0.930 . S
C239 C238 1.391 . S
C239 C240 1.375 . S
C240 H201 0.931 . S
C240 C239 1.375 . S
C240 C241 1.375 . S
C241 C240 1.375 . S
C241 C242 1.361 . S
C242 H202 0.930 . S
C242 C241 1.361 . S
C242 C243 1.399 . S
C243 H203 0.929 . S
C243 C238 1.386 . S
C243 C242 1.399 . S
C244 C223 1.485 . S
C244 C245 1.394 . S
C244 C249 1.360 . S
C245 H204 0.931 . S
C245 C244 1.394 . S
C245 C246 1.372 . S
C246 H205 0.930 . S
C246 C245 1.372 . S
C246 C247 1.397 . S
C247 C246 1.397 . S
C247 C248 1.390 . S
C247 C263 1.476 . S
C248 H206 0.930 . S
C248 C247 1.390 . S
C248 C249 1.366 . S
C249 H207 0.932 . S
C249 C244 1.360 . S
C249 C248 1.366 . S
C250 C224 1.490 . S
C250 C251 1.380 . S
C250 C255 1.386 . S
C251 H208 0.930 . S
C251 C250 1.380 . S
C251 C252 1.381 . S
C252 H209 0.929 . S
C252 C251 1.381 . S
C252 C253 1.371 . S
C253 C252 1.371 . S
C253 C254 1.380 . S
C254 H210 0.931 . S
C254 C253 1.380 . S
C254 C255 1.387 . S
C255 H211 0.930 . S
C255 C250 1.386 . S
C255 C254 1.387 . S
C256 C225 1.519 . S
C256 C257 1.377 . S
C256 C261 1.361 . S
C257 H212 0.929 . S
C257 C256 1.377 . S
C257 C258 1.386 . S
C258 H213 0.931 . S
C258 C257 1.386 . S
C258 C259 1.363 . S
C259 C258 1.363 . S
C259 C260 1.385 . S
C260 H214 0.930 . S
C260 C259 1.385 . S
C260 C261 1.396 . S
C261 H215 0.929 . S
C261 C256 1.361 . S
C261 C260 1.396 . S
C262 O216 1.300 1_556 S
C262 O217 1.213 . S
C262 C235 1.486 . S
C263 O218 1.199 . S
C263 O219 1.297 . S
C263 C247 1.476 . S
C264 C265 1.386 . S
C264 C266 1.383 . S
C264 H280 0.951 . S
C265 C264 1.386 . S
C265 C269 1.383 . S
C266 C264 1.383 . S
C266 C267 1.402 . S
C266 H281 0.951 . S
C267 C266 1.402 . S
C267 C268 1.375 . S
C267 C270 1.481 . S
C268 C267 1.375 . S
C268 C269 1.367 . S
C268 H282 0.951 1_455 S
C269 C265 1.383 . S
C269 C268 1.367 . S
C269 H283 0.950 1_455 S
C270 C267 1.481 . S
C270 C271 1.297 . S
C270 H284 0.950 1_455 S
C271 C270 1.297 . S
C271 C272 1.479 . S
C271 H285 0.950 . S
C272 C271 1.479 . S
C272 C273 1.375 . S
C272 C278 1.404 . S
C273 C272 1.375 . S
C273 C274 1.369 . S
C273 H286 0.950 . S
C274 C273 1.369 . S
C274 C275 1.392 . S
C274 H287 0.951 . S
C275 C274 1.392 . S
C275 C277 1.384 1_455 S
H276 C278 0.949 1_655 S
C277 C275 1.384 1_655 S
C277 C278 1.385 1_655 S
C277 H279 0.950 . S
C278 C272 1.404 . S
C278 H276 0.949 1_455 S
C278 C277 1.385 1_455 S
H279 C277 0.950 . S
H280 C264 0.951 . S
H281 C266 0.951 . S
H282 C268 0.951 1_655 S
H283 C269 0.950 1_655 S
H284 C270 0.950 1_655 S
H285 C271 0.950 . S
H286 C273 0.950 . S
H287 C274 0.951 . S
C288 C289 1.386 1_545 S
C288 C290 1.383 . S
C288 H304 0.951 . S
C289 C288 1.386 1_565 S
C289 C293 1.383 . S
C290 C288 1.383 . S
C290 C291 1.405 . S
C290 H305 0.951 . S
C291 C290 1.405 . S
C291 C292 1.371 1_545 S
C291 C294 1.482 . S
C292 C291 1.371 1_565 S
C292 C293 1.367 . S
C292 H306 0.951 . S
C293 C289 1.383 . S
C293 C292 1.367 . S
C293 H307 0.950 . S
C294 C291 1.482 . S
C294 C295 1.297 . S
C294 H308 0.950 1_545 S
C295 C294 1.297 . S
C295 C296 1.479 . S
C295 H309 0.950 . S
C296 C295 1.479 . S
C296 C297 1.375 . S
C296 C302 1.404 . S
C297 C296 1.375 . S
C297 C298 1.369 . S
C297 H310 0.950 . S
C298 C297 1.369 . S
C298 C299 1.392 . S
C298 H311 0.951 . S
C299 C298 1.392 . S
C299 C301 1.384 . S
H300 C302 0.949 1_565 S
C301 C299 1.384 . S
C301 C302 1.385 . S
C301 H303 0.950 . S
C302 C296 1.404 . S
C302 H300 0.949 1_545 S
C302 C301 1.385 . S
H303 C301 0.950 . S
H304 C288 0.951 . S
H305 C290 0.951 . S
H306 C292 0.951 . S
H307 C293 0.950 . S
H308 C294 0.950 1_565 S
H309 C295 0.950 . S
H310 C297 0.950 . S
H311 C298 0.951 . S
C312 C313 1.386 . S
C312 C314 1.383 . S
C312 H328 0.951 . S
C313 C312 1.386 . S
C313 C317 1.383 . S
C314 C312 1.383 . S
C314 C315 1.402 . S
C314 H329 0.951 . S
C315 C314 1.402 . S
C315 C316 1.375 . S
C315 C318 1.481 . S
C316 C315 1.375 . S
C316 C317 1.367 . S
C316 H330 0.951 . S
C317 C313 1.383 . S
C317 C316 1.367 . S
C317 H331 0.950 1_565 S
C318 C315 1.481 . S
C318 C319 1.297 . S
C318 H332 0.950 . S
C319 C318 1.297 . S
C319 C320 1.479 . S
C319 H333 0.950 . S
C320 C319 1.479 . S
C320 C321 1.375 . S
C320 C326 1.404 . S
C321 C320 1.375 . S
C321 C322 1.369 . S
C321 H334 0.950 . S
C322 C321 1.369 . S
C322 C323 1.392 . S
C322 H335 0.951 . S
C323 C322 1.392 . S
C323 C325 1.384 . S
H324 C326 0.949 . S
C325 C323 1.384 . S
C325 C326 1.385 . S
C325 H327 0.950 . S
C326 C320 1.404 . S
C326 H324 0.949 . S
C326 C325 1.385 . S
H327 C325 0.950 . S
H328 C312 0.951 . S
H329 C314 0.951 . S
H330 C316 0.951 . S
H331 C317 0.950 1_545 S
H332 C318 0.950 . S
H333 C319 0.950 . S
H334 C321 0.950 . S
H335 C322 0.951 . S
C336 C337 1.386 . S
C336 C338 1.383 . S
C336 H352 0.951 . S
C337 C336 1.386 . S
C337 C341 1.383 1_565 S
C338 C336 1.383 . S
C338 C339 1.402 . S
C338 H353 0.951 . S
C339 C338 1.402 . S
C339 C340 1.375 . S
C339 C342 1.481 . S
C340 C339 1.375 . S
C340 C341 1.367 1_565 S
C340 H354 0.951 . S
C341 C337 1.383 1_545 S
C341 C340 1.367 1_545 S
C341 H355 0.950 . S
C342 C339 1.481 . S
C342 C343 1.297 . S
C342 H356 0.950 . S
C343 C342 1.297 . S
C343 C344 1.479 . S
C343 H357 0.950 . S
C344 C343 1.479 . S
C344 C345 1.375 . S
C344 C350 1.404 . S
C345 C344 1.375 . S
C345 C346 1.369 . S
C345 H358 0.950 . S
C346 C345 1.369 . S
C346 C347 1.392 . S
C346 H359 0.951 . S
C347 C346 1.392 . S
C347 C349 1.384 . S
H348 C350 0.949 . S
C349 C347 1.384 . S
C349 C350 1.385 . S
C349 H351 0.950 . S
C350 C344 1.404 . S
C350 H348 0.949 . S
C350 C349 1.385 . S
H351 C349 0.950 . S
H352 C336 0.951 . S
H353 C338 0.951 . S
H354 C340 0.951 . S
H355 C341 0.950 . S
H356 C342 0.950 . S
H357 C343 0.950 . S
H358 C345 0.950 . S
H359 C346 0.951 . S
C360 C361 1.386 . S
C360 C362 1.383 . S
C360 H376 0.951 . S
C361 C360 1.386 . S
C361 C365 1.386 . S
C362 C360 1.383 . S
C362 C363 1.402 . S
C362 H377 0.951 . S
C363 C362 1.402 . S
C363 C364 1.375 . S
C363 C366 1.481 . S
C364 C363 1.375 . S
C364 C365 1.366 . S
C364 H378 0.951 1_545 S
C365 C361 1.386 . S
C365 C364 1.366 . S
C365 H379 0.948 1_545 S
C366 C363 1.481 . S
C366 C367 1.297 . S
C366 H380 0.950 . S
C367 C366 1.297 . S
C367 C368 1.479 . S
C367 H381 0.950 . S
C368 C367 1.479 . S
C368 C369 1.375 . S
C368 C374 1.404 . S
C369 C368 1.375 . S
C369 C370 1.369 . S
C369 H382 0.950 . S
C370 C369 1.369 . S
C370 C371 1.392 . S
C370 H383 0.951 . S
C371 C370 1.392 . S
C371 C373 1.384 . S
H372 C374 0.949 . S
C373 C371 1.384 . S
C373 C374 1.385 . S
C373 H375 0.950 . S
C374 C368 1.404 . S
C374 H372 0.949 . S
C374 C373 1.385 . S
H375 C373 0.950 . S
H376 C360 0.951 . S
H377 C362 0.951 . S
H378 C364 0.951 1_565 S
H379 C365 0.948 1_565 S
H380 C366 0.950 . S
H381 C367 0.950 . S
H382 C369 0.950 . S
H383 C370 0.951 . S
C384 C385 1.386 . S
C384 C386 1.383 . S
C384 H400 0.951 . S
C385 C384 1.386 . S
C385 C389 1.383 . S
C386 C384 1.383 . S
C386 C387 1.402 . S
C386 H401 0.951 . S
C387 C386 1.402 . S
C387 C388 1.375 . S
C387 C390 1.481 . S
C388 C387 1.375 . S
C388 C389 1.367 . S
C388 H402 0.951 . S
C389 C385 1.383 . S
C389 C388 1.367 . S
C389 H403 0.950 . S
C390 C387 1.481 . S
C390 C391 1.297 . S
C390 H404 0.950 . S
C391 C390 1.297 . S
C391 C392 1.479 . S
C391 H405 0.950 . S
C392 C391 1.479 . S
C392 C393 1.375 . S
C392 C398 1.404 . S
C393 C392 1.375 . S
C393 C394 1.369 . S
C393 H406 0.950 . S
C394 C393 1.369 . S
C394 C395 1.392 . S
C394 H407 0.951 . S
C395 C394 1.392 . S
C395 C397 1.384 . S
H396 C398 0.949 . S
C397 C395 1.384 . S
C397 C398 1.385 . S
C397 H399 0.950 . S
C398 C392 1.404 . S
C398 H396 0.949 . S
C398 C397 1.385 . S
H399 C397 0.950 . S
H400 C384 0.951 . S
H401 C386 0.951 . S
H402 C388 0.951 . S
H403 C389 0.950 . S
H404 C390 0.950 . S
H405 C391 0.950 . S
H406 C393 0.950 . S
H407 C394 0.951 . S
C408 C409 1.386 . S
C408 C410 1.383 . S
C408 H424 0.951 . S
C409 C408 1.386 . S
C409 C413 1.383 1_655 S
C410 C408 1.383 . S
C410 C411 1.402 . S
C410 H425 0.951 . S
C411 C410 1.402 . S
C411 C412 1.375 . S
C411 C414 1.481 . S
C412 C411 1.375 . S
C412 C413 1.367 1_655 S
C412 H426 0.951 . S
C413 C409 1.383 1_455 S
C413 C412 1.367 1_455 S
C413 H427 0.950 . S
C414 C411 1.481 . S
C414 C415 1.297 . S
C414 H428 0.950 . S
C415 C414 1.297 . S
C415 C416 1.479 . S
C415 H429 0.950 . S
C416 C415 1.479 . S
C416 C417 1.375 . S
C416 C422 1.404 . S
C417 C416 1.375 . S
C417 C418 1.369 . S
C417 H430 0.950 . S
C418 C417 1.369 . S
C418 C419 1.392 . S
C418 H431 0.951 . S
C419 C418 1.392 . S
C419 C421 1.384 . S
H420 C422 0.949 . S
C421 C419 1.384 . S
C421 C422 1.385 . S
C421 H423 0.950 . S
C422 C416 1.404 . S
C422 H420 0.949 . S
C422 C421 1.385 . S
H423 C421 0.950 . S
H424 C408 0.951 . S
H425 C410 0.951 . S
H426 C412 0.951 . S
H427 C413 0.950 . S
H428 C414 0.950 . S
H429 C415 0.950 . S
H430 C417 0.950 . S
H431 C418 0.951 . S
C432 C433 1.386 1_545 S
C432 C434 1.383 1_545 S
C432 H448 0.951 1_655 S
C433 C432 1.386 1_565 S
C433 C437 1.383 . S
C434 C432 1.383 1_565 S
C434 C435 1.402 . S
C434 H449 0.951 1_554 S
C435 C434 1.402 . S
C435 C436 1.375 . S
C435 C438 1.481 1_554 S
C436 C435 1.375 . S
C436 C437 1.367 . S
C436 H450 0.951 . S
C437 C433 1.383 . S
C437 C436 1.367 . S
C437 H451 0.950 . S
C438 C435 1.481 1_556 S
C438 C439 1.297 . S
C438 H452 0.950 . S
C439 C438 1.297 . S
C439 C440 1.479 . S
C439 H453 0.950 . S
C440 C439 1.479 . S
C440 C441 1.375 . S
C440 C446 1.404 . S
C441 C440 1.375 . S
C441 C442 1.369 . S
C441 H454 0.950 . S
C442 C441 1.369 . S
C442 C443 1.392 . S
C442 H455 0.951 . S
C443 C442 1.392 . S
C443 C445 1.384 . S
H444 C446 0.949 . S
C445 C443 1.384 . S
C445 C446 1.385 . S
C445 H447 0.950 . S
C446 C440 1.404 . S
C446 H444 0.949 . S
C446 C445 1.385 . S
H447 C445 0.950 . S
H448 C432 0.951 1_455 S
H449 C434 0.951 1_556 S
H450 C436 0.951 . S
H451 C437 0.950 . S
H452 C438 0.950 . S
H453 C439 0.950 . S
H454 C441 0.950 . S
H455 C442 0.951 . S
C456 C457 1.386 1_455 S
C456 C458 1.383 . S
C456 H472 0.951 . S
C457 C456 1.386 1_655 S
C457 C461 1.383 . S
C458 C456 1.383 . S
C458 C459 1.402 1_455 S
C458 H473 0.951 . S
C459 C458 1.402 1_655 S
C459 C460 1.375 . S
C459 C462 1.481 . S
C460 C459 1.375 . S
C460 C461 1.367 . S
C460 H474 0.951 . S
C461 C457 1.383 . S
C461 C460 1.367 . S
C461 H475 0.950 . S
C462 C459 1.481 . S
C462 C463 1.297 1_655 S
C462 H476 0.950 . S
C463 C462 1.297 1_455 S
C463 C464 1.479 . S
C463 H477 0.950 . S
C464 C463 1.479 . S
C464 C465 1.375 . S
C464 C470 1.404 1_455 S
C465 C464 1.375 . S
C465 C466 1.369 . S
C465 H478 0.950 . S
C466 C465 1.369 . S
C466 C467 1.392 . S
C466 H479 0.951 . S
C467 C466 1.392 . S
C467 C469 1.384 1_455 S
H468 C470 0.949 . S
C469 C467 1.384 1_655 S
C469 C470 1.385 . S
C469 H471 0.950 . S
C470 C464 1.404 1_655 S
C470 H468 0.949 . S
C470 C469 1.385 . S
H471 C469 0.950 . S
H472 C456 0.951 . S
H473 C458 0.951 . S
H474 C460 0.951 . S
H475 C461 0.950 . S
H476 C462 0.950 . S
H477 C463 0.950 . S
H478 C465 0.950 . S
H479 C466 0.951 . S
C480 C481 1.386 . S
C480 C482 1.383 . S
C480 H496 0.951 . S
C481 C480 1.386 . S
C481 C485 1.383 . S
C482 C480 1.383 . S
C482 C483 1.402 . S
C482 H497 0.951 . S
C483 C482 1.402 . S
C483 C484 1.375 . S
C483 C486 1.481 . S
C484 C483 1.375 . S
C484 C485 1.367 . S
C484 H498 0.951 1_545 S
C485 C481 1.383 . S
C485 C484 1.367 . S
C485 H499 0.950 . S
C486 C483 1.481 . S
C486 C487 1.297 . S
C486 H500 0.950 . S
C487 C486 1.297 . S
C487 C488 1.479 . S
C487 H501 0.950 . S
C488 C487 1.479 . S
C488 C489 1.375 . S
C488 C494 1.404 . S
C489 C488 1.375 . S
C489 C490 1.369 . S
C489 H502 0.950 . S
C490 C489 1.369 . S
C490 C491 1.392 . S
C490 H503 0.951 . S
C491 C490 1.392 . S
C491 C493 1.384 . S
H492 C494 0.949 . S
C493 C491 1.384 . S
C493 C494 1.385 . S
C493 H495 0.950 . S
C494 C488 1.404 . S
C494 H492 0.949 . S
C494 C493 1.385 . S
H495 C493 0.950 . S
H496 C480 0.951 . S
H497 C482 0.951 . S
H498 C484 0.951 1_565 S
H499 C485 0.950 . S
H500 C486 0.950 . S
H501 C487 0.950 . S
H502 C489 0.950 . S
H503 C490 0.951 . S
C504 C505 1.386 . S
C504 C506 1.383 . S
C504 H520 0.951 . S
C505 C504 1.386 . S
C505 C509 1.383 . S
C506 C504 1.383 . S
C506 C507 1.402 . S
C506 H521 0.951 . S
C507 C506 1.402 . S
C507 C508 1.375 . S
C507 C510 1.481 1_554 S
C508 C507 1.375 . S
C508 C509 1.367 . S
C508 H522 0.951 . S
C509 C505 1.383 . S
C509 C508 1.367 . S
C509 H523 0.950 . S
C510 C507 1.481 1_556 S
C510 C511 1.297 . S
C510 H524 0.950 . S
C511 C510 1.297 . S
C511 C512 1.479 . S
C511 H525 0.950 1_556 S
C512 C511 1.479 . S
C512 C513 1.375 . S
C512 C518 1.404 . S
C513 C512 1.375 . S
C513 C514 1.369 . S
C513 H526 0.950 . S
C514 C513 1.369 . S
C514 C515 1.392 . S
C514 H527 0.951 . S
C515 C514 1.392 . S
C515 C517 1.384 . S
H516 C518 0.949 . S
C517 C515 1.384 . S
C517 C518 1.385 . S
C517 H519 0.950 . S
C518 C512 1.404 . S
C518 H516 0.949 . S
C518 C517 1.385 . S
H519 C517 0.950 . S
H520 C504 0.951 . S
H521 C506 0.951 . S
H522 C508 0.951 . S
H523 C509 0.950 . S
H524 C510 0.950 . S
H525 C511 0.950 1_554 S
H526 C513 0.950 . S
H527 C514 0.951 . S
C528 C529 1.386 . S
C528 C530 1.383 . S
C528 H544 0.951 . S
C529 C528 1.386 . S
C529 C533 1.383 . S
C530 C528 1.383 . S
C530 C531 1.402 . S
C530 H545 0.951 . S
C531 C530 1.402 . S
C531 C532 1.375 . S
C531 C534 1.481 . S
C532 C531 1.375 . S
C532 C533 1.367 . S
C532 H546 0.951 1_455 S
C533 C529 1.383 . S
C533 C532 1.367 . S
C533 H547 0.950 1_455 S
C534 C531 1.481 . S
C534 C535 1.297 . S
C534 H548 0.950 . S
C535 C534 1.297 . S
C535 C536 1.479 . S
C535 H549 0.950 . S
C536 C535 1.479 . S
C536 C537 1.375 . S
C536 C542 1.404 . S
C537 C536 1.375 . S
C537 C538 1.369 . S
C537 H550 0.950 . S
C538 C537 1.369 . S
C538 C539 1.392 . S
C538 H551 0.951 . S
C539 C538 1.392 . S
C539 C541 1.384 . S
H540 C542 0.949 . S
C541 C539 1.384 . S
C541 C542 1.385 . S
C541 H543 0.950 . S
C542 C536 1.404 . S
C542 H540 0.949 . S
C542 C541 1.385 . S
H543 C541 0.950 . S
H544 C528 0.951 . S
H545 C530 0.951 . S
H546 C532 0.951 1_655 S
H547 C533 0.950 1_655 S
H548 C534 0.950 . S
H549 C535 0.950 . S
H550 C537 0.950 . S
H551 C538 0.951 . S
C275 C81 1.178 . S
C265 C11 1.315 . S
C289 C26 1.407 . S
C299 C155 1.310 . S
C313 C40 2.035 1_665 S
C323 C259 2.043 . S
C337 C5 0.671 1_565 S
C347 C93 0.646 . S
C371 C167 0.800 . S
C361 C18 0.804 . S
C385 C32 1.391 . S
C395 C253 1.314 . S
C419 C185 1.973 . S
C409 C39 1.975 1_655 S
C433 C4 1.355 1_665 S
C443 C229 1.322 . S
C467 C105 1.342 . S
C457 C19 1.241 . S
C491 C179 1.225 . S
C481 C33 1.042 . S
C515 C241 0.672 . S
C505 C12 0.665 . S
C529 C25 2.126 . S
C539 C111 2.127 . S
