# Generated by pormake.
# Topology rtl, (3,6)-cn, num edge types: 1
# Building blocks:
#     Node 0, Type 0, BuildingBlock: MIDCAF_clean_linker_0, # of connection points: 3
#     Node 1, Type 0, BuildingBlock: MIDCAF_clean_linker_0, # of connection points: 3
#     Node 2, Type 0, BuildingBlock: MIDCAF_clean_linker_0, # of connection points: 3
#     Node 3, Type 0, BuildingBlock: MIDCAF_clean_linker_0, # of connection points: 3
#     Node 4, Type 1, BuildingBlock: KUMBOL_clean_sbu_1, # of connection points: 6
#     Node 5, Type 1, BuildingBlock: KUMBOL_clean_sbu_1, # of connection points: 6
#     Edge 6, Type (0, 1), BuildingBlock: UVAHIK_clean_linker_0, # of connection points: 2
#     Edge 7, Type (0, 1), BuildingBlock: UVAHIK_clean_linker_0, # of connection points: 2
#     Edge 8, Type (0, 1), BuildingBlock: UVAHIK_clean_linker_0, # of connection points: 2
#     Edge 9, Type (0, 1), BuildingBlock: UVAHIK_clean_linker_0, # of connection points: 2
#     Edge 10, Type (0, 1), BuildingBlock: UVAHIK_clean_linker_0, # of connection points: 2
#     Edge 11, Type (0, 1), BuildingBlock: UVAHIK_clean_linker_0, # of connection points: 2
#     Edge 12, Type (0, 1), BuildingBlock: UVAHIK_clean_linker_0, # of connection points: 2
#     Edge 13, Type (0, 1), BuildingBlock: UVAHIK_clean_linker_0, # of connection points: 2
#     Edge 14, Type (0, 1), BuildingBlock: UVAHIK_clean_linker_0, # of connection points: 2
#     Edge 15, Type (0, 1), BuildingBlock: UVAHIK_clean_linker_0, # of connection points: 2
#     Edge 16, Type (0, 1), BuildingBlock: UVAHIK_clean_linker_0, # of connection points: 2
#     Edge 17, Type (0, 1), BuildingBlock: UVAHIK_clean_linker_0, # of connection points: 2
# Relax obj value: 0.017
# Max RMSD: 0.085
# Mean RMSD: 0.052
data_MOF--net-rtl--node1-KUMBOL_clean_sbu_1--node2-MIDCAF_clean_linker_0--edge1-UVAHIK_clean_linker_0
_symmetry_space_group_name_H-M    P1
_symmetry_Int_Tables_number       1
_symmetry_cell_setting            triclinic
loop_
_symmetry_equiv_pos_as_xyz
'x, y, z'
_cell_length_a     48.907744
_cell_length_b     49.443771
_cell_length_c     42.650839
_cell_angle_alpha  81.790122
_cell_angle_beta   99.695137
_cell_angle_gamma 90.341887
loop_
_atom_site_label
_atom_site_type_symbol
_atom_site_fract_x
_atom_site_fract_y
_atom_site_fract_z
_atom_type_partial_charge
C0 C 0.18671 0.91481 0.10517 0.0
C1 C 0.20239 0.90686 0.13591 0.0
C2 C 0.22738 0.89212 0.13849 0.0
C3 C 0.23595 0.88466 0.11123 0.0
H4 H 0.27367 0.8163 0.08359 0.0
H5 H 0.30482 0.77707 0.08804 0.0
H6 H 0.31643 0.80143 0.98977 0.0
H7 H 0.28452 0.83982 0.98499 0.0
H8 H 0.22013 0.85853 0.94187 0.0
H9 H 0.19438 0.87342 0.88824 0.0
H10 H 0.16279 0.94367 0.92123 0.0
H11 H 0.18849 0.92873 0.97534 0.0
H12 H 0.18244 0.91346 0.05466 0.0
H13 H 0.16721 0.92591 0.10226 0.0
H14 H 0.2403 0.88614 0.16167 0.0
H15 H 0.2551 0.87296 0.11429 0.0
N16 N 0.24823 0.86273 0.05576 0.0
N17 N 0.24186 0.86327 1.0 0.0
N18 N 0.21482 0.89226 0.02188 0.0
C19 C 0.2553 0.85319 0.02983 0.0
C20 C 0.22162 0.88276 0.99575 0.0
C21 C 0.22811 0.88239 0.05199 0.0
C22 C 0.27635 0.831 0.03382 0.0
C23 C 0.28307 0.81337 0.06304 0.0
C24 C 0.30104 0.79092 0.06562 0.0
C25 C 0.31292 0.78581 0.03913 0.0
C26 C 0.30711 0.80424 0.01041 0.0
C27 C 0.28891 0.8264 0.00771 0.0
C28 C 0.20638 0.89243 0.96299 0.0
C29 C 0.2078 0.87722 0.93782 0.0
C30 C 0.19291 0.88562 0.90709 0.0
C31 C 0.17653 0.90961 0.90066 0.0
C32 C 0.17538 0.92513 0.92557 0.0
C33 C 0.18999 0.91651 0.95654 0.0
C34 C 0.21987 0.89193 0.0806 0.0
C35 C 0.19539 0.90751 0.07783 0.0
C36 C 0.60261 0.65714 0.49069 0.0
C37 C 0.61016 0.66895 0.46144 0.0
C38 C 0.62748 0.69172 0.46127 0.0
C39 C 0.63738 0.7022 0.48966 0.0
H40 H 0.70627 0.73982 0.53185 0.0
H41 H 0.74284 0.77272 0.52906 0.0
H42 H 0.72538 0.80114 0.61506 0.0
H43 H 0.68927 0.76692 0.61866 0.0
H44 H 0.64764 0.72388 0.66066 0.0
H45 H 0.63328 0.70388 0.71122 0.0
H46 H 0.60637 0.63173 0.66936 0.0
H47 H 0.62024 0.65162 0.61891 0.0
H48 H 0.60638 0.658 0.54131 0.0
H49 H 0.58911 0.6397 0.49157 0.0
H50 H 0.63404 0.70107 0.43926 0.0
H51 H 0.65094 0.71958 0.4885 0.0
N52 N 0.6613 0.72044 0.54912 0.0
N53 N 0.66344 0.7208 0.60441 0.0
N54 N 0.63323 0.69119 0.57741 0.0
C55 C 0.67234 0.73045 0.57642 0.0
C56 C 0.64392 0.70102 0.60506 0.0
C57 C 0.64165 0.70098 0.54926 0.0
C58 C 0.69467 0.75083 0.57538 0.0
C59 C 0.7101 0.7531 0.55019 0.0
C60 C 0.73106 0.7722 0.54846 0.0
C61 C 0.73695 0.79003 0.57153 0.0
C62 C 0.72164 0.78765 0.59697 0.0
C63 C 0.70084 0.76812 0.59899 0.0
C64 C 0.63508 0.68937 0.63572 0.0
C65 C 0.63863 0.70377 0.66225 0.0
C66 C 0.63032 0.69241 0.69112 0.0
C67 C 0.61885 0.66623 0.69418 0.0
C68 C 0.61538 0.65185 0.66773 0.0
C69 C 0.62318 0.66335 0.63877 0.0
C70 C 0.63017 0.69023 0.51905 0.0
C71 C 0.61243 0.66772 0.51917 0.0
C72 C 0.82574 0.09751 0.94391 0.0
C73 C 0.81249 0.10671 0.91232 0.0
C74 C 0.78844 0.12327 0.90766 0.0
C75 C 0.77809 0.13067 0.93395 0.0
H76 H 0.73342 0.1944 0.96142 0.0
H77 H 0.70182 0.23332 0.95698 0.0
H78 H 0.68953 0.20818 0.05481 0.0
H79 H 0.72156 0.16993 0.05958 0.0
H80 H 0.77507 0.14199 0.10657 0.0
H81 H 0.79905 0.12544 0.16058 0.0
H82 H 0.84818 0.06986 0.12243 0.0
H83 H 0.82405 0.08616 0.06822 0.0
H84 H 0.82635 0.09746 0.99406 0.0
H85 H 0.84458 0.08516 0.94846 0.0
H86 H 0.77749 0.13043 0.88367 0.0
H87 H 0.75959 0.14352 0.92946 0.0
N88 N 0.76065 0.14926 0.98936 0.0
N89 N 0.7635 0.1459 0.04523 0.0
N90 N 0.79272 0.11881 0.02389 0.0
C91 C 0.75167 0.15727 0.01516 0.0
C92 C 0.78402 0.12668 0.04986 0.0
C93 C 0.78112 0.12989 0.99357 0.0
C94 C 0.73032 0.17923 0.01099 0.0
C95 C 0.72376 0.19705 0.98187 0.0
C96 C 0.70556 0.21932 0.97929 0.0
C97 C 0.69342 0.22411 0.00569 0.0
C98 C 0.69905 0.20552 0.03426 0.0
C99 C 0.71734 0.18346 0.03693 0.0
C100 C 0.79767 0.11553 0.0829 0.0
C101 C 0.79085 0.12613 0.10957 0.0
C102 C 0.80471 0.11677 0.14058 0.0
C103 C 0.82561 0.09648 0.14572 0.0
C104 C 0.83202 0.08539 0.11923 0.0
C105 C 0.81826 0.09485 0.08814 0.0
C106 C 0.79149 0.12158 0.96553 0.0
C107 C 0.81533 0.10476 0.97015 0.0
C108 C 0.41436 0.33781 0.55735 0.0
C109 C 0.40169 0.33141 0.58468 0.0
C110 C 0.37963 0.31302 0.58348 0.0
C111 C 0.3699 0.30198 0.55535 0.0
H112 H 0.30225 0.26331 0.51167 0.0
H113 H 0.26263 0.23314 0.51035 0.0
H114 H 0.27808 0.21 0.42102 0.0
H115 H 0.31779 0.24048 0.42202 0.0
H116 H 0.34439 0.29744 0.37895 0.0
H117 H 0.35971 0.31884 0.32996 0.0
H118 H 0.43274 0.34777 0.3867 0.0
H119 H 0.417 0.32722 0.43561 0.0
H120 H 0.41464 0.33257 0.5085 0.0
H121 H 0.43168 0.35157 0.5576 0.0
H122 H 0.36916 0.30788 0.60393 0.0
H123 H 0.35245 0.28839 0.55517 0.0
N124 N 0.34866 0.28156 0.49588 0.0
N125 N 0.34745 0.28207 0.44056 0.0
N126 N 0.38034 0.30784 0.46967 0.0
C127 C 0.3372 0.27292 0.46781 0.0
C128 C 0.36904 0.29958 0.4413 0.0
C129 C 0.37032 0.29892 0.49709 0.0
C130 C 0.31322 0.25435 0.46693 0.0
C131 C 0.2973 0.25181 0.49171 0.0
C132 C 0.27447 0.23467 0.49089 0.0
C133 C 0.26724 0.21933 0.46553 0.0
C134 C 0.28328 0.22155 0.4409 0.0
C135 C 0.30591 0.23908 0.44143 0.0
C136 C 0.37933 0.31076 0.41131 0.0
C137 C 0.3638 0.30823 0.38099 0.0
C138 C 0.37267 0.32043 0.35282 0.0
C139 C 0.39738 0.33527 0.35427 0.0
C140 C 0.41329 0.33706 0.3846 0.0
C141 C 0.40432 0.32509 0.41273 0.0
C142 C 0.38197 0.30908 0.52766 0.0
C143 C 0.40462 0.32681 0.52919 0.0
C144 C 0.97035 0.09015 0.49406 0.0
C145 C 0.92352 0.08546 0.46572 0.0
C146 C 0.94704 0.07435 0.48747 0.0
C147 C 0.92376 0.11266 0.45076 0.0
C148 C 0.97066 0.11745 0.47907 0.0
C149 C 0.94725 0.1286 0.4574 0.0
N150 N 0.99281 0.07874 0.51486 0.0
C151 C 0.01595 0.09361 0.52241 0.0
C152 C 0.99455 0.1327 0.48623 0.0
C153 C 0.01725 0.12074 0.50807 0.0
Gd154 Gd 0.02506 0.96986 0.50813 0.0
Gd155 Gd 0.98868 0.0331 0.53701 0.0
N156 N 0.94782 0.04774 0.50137 0.0
C157 C 0.90059 0.0688 0.45941 0.0
C158 C 0.9252 0.0317 0.49619 0.0
C159 C 0.90138 0.04187 0.47488 0.0
H160 H 0.92537 0.01108 0.5084 0.0
H161 H 0.8836 0.02895 0.47048 0.0
H162 H 0.08674 1.00033 0.5006 0.0
H163 H 0.03322 0.0847 0.53997 0.0
H164 H 0.13384 0.99965 0.53161 0.0
H165 H 0.88215 0.07656 0.44279 0.0
H166 H 0.90591 0.12153 0.4339 0.0
H167 H 0.99339 0.91574 0.54086 0.0
H168 H 0.99561 0.15373 0.47517 0.0
H169 H 0.03568 0.13246 0.51402 0.0
H170 H 0.13406 0.92489 0.61653 0.0
H171 H 0.94713 0.14952 0.44561 0.0
H172 H 0.0515 0.87234 0.61783 0.0
H173 H 0.00459 0.87692 0.58482 0.0
N174 N 0.03353 0.93267 0.54928 0.0
C175 C 0.05971 0.93014 0.56642 0.0
C176 C 0.01392 0.91373 0.55518 0.0
C177 C 0.04677 0.88924 0.59847 0.0
C178 C 0.02022 0.89179 0.57995 0.0
C179 C 0.0669 0.90851 0.59184 0.0
H180 H 0.09956 0.89067 0.62985 0.0
N181 N 0.07157 0.9703 0.53413 0.0
C182 C 0.07905 0.94978 0.55907 0.0
C183 C 0.12582 0.96665 0.56745 0.0
C184 C 0.10626 0.94775 0.57675 0.0
C185 C 0.09135 0.98689 0.52308 0.0
C186 C 0.11847 0.98593 0.54007 0.0
O187 O 0.98363 0.03375 0.48312 0.0
O188 O 0.98913 0.98957 0.47231 0.0
O189 O 0.04846 0.96135 0.47075 0.0
O190 O 0.01812 0.93252 0.48731 0.0
O191 O 0.96929 0.99137 0.54517 0.0
O192 O 0.97906 0.96567 0.50668 0.0
O193 O 0.02008 0.96993 0.56022 0.0
O194 O 0.02813 0.01426 0.56656 0.0
O195 O 0.96388 0.02573 0.57497 0.0
O196 O 0.98667 0.06323 0.56894 0.0
O197 O 0.03826 0.01315 0.49158 0.0
O198 O 0.03435 0.03423 0.53531 0.0
C199 C 0.98033 0.01506 0.46381 0.0
C200 C 0.96405 0.97125 0.5279 0.0
C201 C 0.04187 0.91911 0.44637 0.0
C202 C 0.06528 0.90745 0.40362 0.0
C203 C 0.03438 0.87508 0.42756 0.0
C204 C 0.02919 0.89347 0.44785 0.0
C205 C 0.0523 0.88195 0.40563 0.0
C206 C 0.05983 0.92611 0.424 0.0
C207 C 0.03624 0.93808 0.46844 0.0
C208 C 0.11333 0.92657 0.60254 0.0
C209 C 0.09372 0.90699 0.61003 0.0
H210 H 0.14693 0.96578 0.58039 0.0
C211 C 0.03047 0.98825 0.578 0.0
C212 C 0.04467 0.03297 0.50905 0.0
C213 C 0.98092 0.04505 0.6215 0.0
C214 C 0.97044 0.0458 0.67529 0.0
C215 C 0.01685 0.03347 0.66815 0.0
C216 C 0.00843 0.03739 0.63487 0.0
C217 C 0.99799 0.03756 0.68832 0.0
C218 C 0.96203 0.04938 0.64172 0.0
C219 C 0.97155 0.04811 0.5866 0.0
H220 H 0.02446 0.85542 0.42884 0.0
H221 H 0.01528 0.88752 0.46477 0.0
H222 H 0.05579 0.86737 0.38994 0.0
H223 H 0.06982 0.94577 0.42273 0.0
H224 H 0.03809 0.02744 0.67834 0.0
H225 H 0.02333 0.03458 0.61955 0.0
H226 H 0.00509 0.03484 0.71405 0.0
H227 H 0.94075 0.05527 0.63133 0.0
C228 C 0.58263 0.54458 0.0106 0.0
C229 C 0.572 0.59319 0.99944 0.0
C230 C 0.56599 0.56659 0.01317 0.0
C231 C 0.59395 0.59709 0.98193 0.0
C232 C 0.60502 0.54847 0.9936 0.0
C233 C 0.61041 0.5748 0.97902 0.0
N234 N 0.57627 0.51913 0.02383 0.0
C235 C 0.59218 0.49691 0.02237 0.0
C236 C 0.62112 0.52569 0.99141 0.0
C237 C 0.61476 0.49983 0.00604 0.0
Gd238 Gd 0.46781 0.49425 0.99377 0.0
Gd239 Gd 0.53755 0.516 0.04982 0.0
N240 N 0.54452 0.56215 0.02982 0.0
C241 C 0.55623 0.6152 0.00443 0.0
C242 C 0.53116 0.58384 0.03748 0.0
C243 C 0.53616 0.61055 0.02417 0.0
H244 H 0.51728 0.58094 0.05468 0.0
H245 H 0.52493 0.62757 0.02971 0.0
H246 H 0.48685 0.4274 0.99731 0.0
H247 H 0.5873 0.47696 0.03372 0.0
H248 H 0.4737 0.38249 0.02182 0.0
H249 H 0.56021 0.63594 0.99434 0.0
H250 H 0.59863 0.61735 0.97095 0.0
H251 H 0.4187 0.53792 0.002 0.0
H252 H 0.63849 0.52785 0.97854 0.0
H253 H 0.6272 0.48214 0.00466 0.0
H254 H 0.39241 0.40066 0.06479 0.0
H255 H 0.62737 0.57816 0.9656 0.0
H256 H 0.35853 0.49313 0.04951 0.0
H257 H 0.37555 0.53707 0.02506 0.0
N258 N 0.42635 0.49525 0.01423 0.0
C259 C 0.41704 0.47078 0.02677 0.0
C260 C 0.41167 0.51881 0.01316 0.0
C261 C 0.3775 0.49344 0.03952 0.0
C262 C 0.3871 0.51831 0.02587 0.0
C263 C 0.39246 0.46927 0.04008 0.0
H264 H 0.36511 0.44233 0.06444 0.0
N265 N 0.45653 0.44945 0.01447 0.0
C266 C 0.43275 0.4473 0.0273 0.0
C267 C 0.43926 0.39827 0.03955 0.0
C268 C 0.42378 0.42168 0.04068 0.0
C269 C 0.4703 0.42639 0.01104 0.0
C270 C 0.46233 0.40061 0.02415 0.0
O271 O 0.53645 0.51562 0.99656 0.0
O272 O 0.49224 0.52976 0.97407 0.0
O273 O 0.46173 0.47685 0.94847 0.0
O274 O 0.43266 0.50743 0.9569 0.0
O275 O 0.49683 0.53705 0.05205 0.0
O276 O 0.47239 0.53848 1.00058 0.0
O277 O 0.46789 0.49137 0.04741 0.0
O278 O 0.51319 0.48121 0.07114 0.0
O279 O 0.54765 0.53302 0.0951 0.0
O280 O 0.57442 0.5018 0.0838 0.0
O281 O 0.5079 0.47106 0.99385 0.0
O282 O 0.53385 0.47142 0.04454 0.0
C283 C 0.51887 0.52914 0.97313 0.0
C284 C 0.47733 0.5478 0.02834 0.0
C285 C 0.42209 0.49098 0.90549 0.0
C286 C 0.41441 0.47669 0.85223 0.0
C287 C 0.38192 0.50816 0.86602 0.0
C288 C 0.39771 0.50716 0.89659 0.0
C289 C 0.39027 0.49319 0.84388 0.0
C290 C 0.43019 0.47537 0.88327 0.0
C291 C 0.43926 0.49163 0.9374 0.0
C292 C 0.39946 0.42015 0.05424 0.0
C293 C 0.38384 0.44386 0.05392 0.0
H294 H 0.43305 0.37823 0.04952 0.0
C295 C 0.4864 0.47976 0.07143 0.0
C296 C 0.52771 0.46089 0.0176 0.0
C297 C 0.58918 0.51826 0.13478 0.0
C298 C 0.60259 0.53568 0.18595 0.0
C299 C 0.63184 0.50208 0.17038 0.0
C300 C 0.61334 0.50174 0.14177 0.0
C301 C 0.62659 0.51893 0.19231 0.0
C302 C 0.5838 0.53513 0.15711 0.0
C303 C 0.57006 0.51784 0.10409 0.0
H304 H 0.36324 0.52075 0.85939 0.0
H305 H 0.3909 0.51931 0.91315 0.0
H306 H 0.37774 0.49434 0.8202 0.0
H307 H 0.44898 0.46288 0.8897 0.0
H308 H 0.65036 0.48923 0.17557 0.0
H309 H 0.61802 0.48854 0.12509 0.0
H310 H 0.6412 0.51864 0.21448 0.0
H311 H 0.56533 0.5481 0.15188 0.0
C312 C 0.24546 0.17373 0.46019 0.0
C313 C 0.24306 0.20104 0.4651 0.0
C314 C 0.22312 0.15606 0.46207 0.0
C315 C 0.15779 0.14905 0.49589 0.0
H316 H 0.14481 0.08973 0.4451 0.0
C317 C 0.0838 0.06276 0.527 0.0
C318 C 0.06703 0.05192 0.50189 0.0
C319 C 0.10479 0.08091 0.52073 0.0
C320 C 0.14792 0.10637 0.45922 0.0
H321 H 0.21509 0.23169 0.47417 0.0
H322 H 0.17588 0.20129 0.47642 0.0
H323 H 0.18134 0.1222 0.43587 0.0
H324 H 0.05931 0.05116 0.45054 0.0
H325 H 0.09569 0.08359 0.43927 0.0
H326 H 0.12391 0.13388 0.51852 0.0
C327 C 0.19521 0.19309 0.47223 0.0
C328 C 0.16915 0.12481 0.45424 0.0
C329 C 0.21763 0.2106 0.47079 0.0
C330 C 0.07195 0.05928 0.47033 0.0
C331 C 0.09287 0.07773 0.46395 0.0
C332 C 0.13646 0.13083 0.50064 0.0
C333 C 0.19778 0.16543 0.46851 0.0
C334 C 0.17452 0.14629 0.4727 0.0
C335 C 0.10945 0.08894 0.4891 0.0
C336 C 0.13142 0.10902 0.48268 0.0
H337 H 0.26491 0.16579 0.45598 0.0
H338 H 0.22607 0.13486 0.45948 0.0
H339 H 0.16144 0.16501 0.51095 0.0
H340 H 0.08087 0.05701 0.55168 0.0
H341 H 0.11756 0.08845 0.54083 0.0
C342 C 0.34867 0.75048 0.06899 0.0
C343 C 0.33027 0.7608 0.04081 0.0
C344 C 0.36449 0.72669 0.07037 0.0
C345 C 0.36767 0.66596 0.02845 0.0
H346 H 0.44423 0.66041 0.07172 0.0
C347 C 0.44512 0.58746 0.00535 0.0
C348 C 0.46111 0.57194 0.03232 0.0
C349 C 0.42911 0.60973 0.00884 0.0
C350 C 0.42278 0.6616 0.05985 0.0
H351 H 0.31392 0.75374 0.99214 0.0
H352 H 0.3422 0.71333 0.99404 0.0
H353 H 0.41629 0.70093 0.07314 0.0
H354 H 0.47326 0.56807 0.08411 0.0
H355 H 0.44563 0.60763 0.09005 0.0
H356 H 0.37452 0.62708 0.01427 0.0
C357 C 0.34409 0.72319 0.01537 0.0
C358 C 0.40673 0.68475 0.06072 0.0
C359 C 0.32817 0.74675 0.01409 0.0
C360 C 0.46118 0.57962 0.06285 0.0
C361 C 0.44543 0.60224 0.06628 0.0
C362 C 0.38379 0.64306 0.02729 0.0
C363 C 0.36235 0.71271 0.04356 0.0
C364 C 0.37906 0.6874 0.04461 0.0
C365 C 0.42901 0.6173 0.03931 0.0
C366 C 0.41159 0.64081 0.0426 0.0
H367 H 0.35103 0.76088 0.08995 0.0
H368 H 0.37816 0.71911 0.09257 0.0
H369 H 0.34626 0.6669 0.0165 0.0
H370 H 0.44481 0.58234 0.98143 0.0
H371 H 0.41694 0.62124 0.98759 0.0
C372 C 0.76363 0.82318 0.53828 0.0
C373 C 0.75906 0.81079 0.56876 0.0
C374 C 0.78558 0.84098 0.53525 0.0
C375 C 0.83137 0.88841 0.57449 0.0
H376 H 0.88256 0.87068 0.51988 0.0
C377 C 0.93103 0.95028 0.56298 0.0
C378 C 0.94038 0.95347 0.53331 0.0
C379 C 0.90909 0.93292 0.56837 0.0
C380 C 0.86828 0.87631 0.53477 0.0
H381 H 0.77376 0.80848 0.62007 0.0
H382 H 0.81153 0.84058 0.61461 0.0
H383 H 0.84337 0.84128 0.52718 0.0
H384 H 0.93362 0.9416 0.48568 0.0
H385 H 0.89463 0.91237 0.49439 0.0
H386 H 0.85543 0.92402 0.58117 0.0
C387 C 0.79813 0.83601 0.59315 0.0
C388 C 0.84593 0.85928 0.53912 0.0
C389 C 0.7764 0.81774 0.59622 0.0
C390 C 0.92707 0.9393 0.50894 0.0
C391 C 0.9048 0.92236 0.51409 0.0
C392 C 0.85346 0.90579 0.56967 0.0
C393 C 0.8032 0.84736 0.5626 0.0
C394 C 0.82724 0.8652 0.55893 0.0
C395 C 0.89561 0.91869 0.54398 0.0
C396 C 0.87221 0.90004 0.54963 0.0
H397 H 0.7503 0.81907 0.51658 0.0
H398 H 0.7888 0.84984 0.51143 0.0
H399 H 0.81709 0.89348 0.58972 0.0
H400 H 0.94107 0.96077 0.58234 0.0
H401 H 0.90307 0.93034 0.59188 0.0
C402 C 0.65705 0.25893 0.97635 0.0
C403 C 0.67603 0.249 0.00417 0.0
C404 C 0.64102 0.28253 0.97523 0.0
C405 C 0.63849 0.34386 0.0158 0.0
H406 H 0.56058 0.34698 0.97763 0.0
C407 C 0.56275 0.42344 0.04023 0.0
C408 C 0.54414 0.4368 0.0139 0.0
C409 C 0.57884 0.4012 0.0368 0.0
C410 C 0.58239 0.3465 0.98803 0.0
H411 H 0.69334 0.25649 0.0524 0.0
H412 H 0.66492 0.29685 0.05083 0.0
H413 H 0.58881 0.30682 0.9756 0.0
H414 H 0.52778 0.43704 0.96328 0.0
H415 H 0.55574 0.39779 0.95749 0.0
H416 H 0.63193 0.38321 0.02887 0.0
C417 C 0.66261 0.28671 0.02967 0.0
C418 C 0.59859 0.32355 0.98683 0.0
C419 C 0.67864 0.26326 0.03075 0.0
C420 C 0.5418 0.42715 0.9841 0.0
C421 C 0.55776 0.40466 0.98076 0.0
C422 C 0.6223 0.36665 0.01718 0.0
C423 C 0.64367 0.29673 1.00189 0.0
C424 C 0.62675 0.32179 1.00112 0.0
C425 C 0.5766 0.39161 0.00704 0.0
C426 C 0.594 0.36807 0.0037 0.0
H427 H 0.65439 0.24834 0.95553 0.0
H428 H 0.62677 0.28981 0.95337 0.0
H429 H 0.66026 0.3435 0.02638 0.0
H430 H 0.565 0.43019 0.06358 0.0
H431 H 0.5929 0.3913 0.0576 0.0
C432 C 0.19532 0.89291 0.19288 0.0
C433 C 0.19212 0.91268 0.16527 0.0
C434 C 0.1848 0.89765 0.2201 0.0
C435 C 0.13095 0.93678 0.24515 0.0
H436 H 0.17103 0.91081 0.33053 0.0
C437 C 0.08171 0.93906 0.35918 0.0
C438 C 0.08431 0.91415 0.38004 0.0
C439 C 0.09769 0.94379 0.33463 0.0
C440 C 0.15956 0.91817 0.30685 0.0
H441 H 0.17576 0.9533 0.14507 0.0
H442 H 0.15703 0.96141 0.19264 0.0
H443 H 0.1937 0.90996 0.28393 0.0
H444 H 0.10666 0.87537 0.39276 0.0
H445 H 0.13427 0.88345 0.35006 0.0
H446 H 0.09649 0.94415 0.26801 0.0
C447 C 0.16762 0.94217 0.19301 0.0
C448 C 0.17254 0.91766 0.28016 0.0
C449 C 0.17829 0.93747 0.16574 0.0
C450 C 0.10403 0.89465 0.37683 0.0
C451 C 0.12005 0.89942 0.35253 0.0
C452 C 0.11793 0.93726 0.27189 0.0
C453 C 0.17067 0.92224 0.22046 0.0
C454 C 0.15814 0.92625 0.24894 0.0
C455 C 0.11674 0.92381 0.33075 0.0
C456 C 0.13184 0.92724 0.30297 0.0
H457 H 0.20529 0.87335 0.19322 0.0
H458 H 0.18702 0.88163 0.24058 0.0
H459 H 0.11922 0.94337 0.22141 0.0
H460 H 0.0666 0.95441 0.36105 0.0
H461 H 0.09482 0.96289 0.31839 0.0
C462 C 0.5932 0.66789 0.74019 0.0
C463 C 0.61056 0.65367 0.72481 0.0
C464 C 0.58398 0.65521 0.76795 0.0
C465 C 0.57607 0.58589 0.8128 0.0
H466 H 0.56275 0.62664 0.88016 0.0
C467 C 0.55276 0.53381 0.93513 0.0
C468 C 0.52943 0.54393 0.94519 0.0
C469 C 0.56313 0.54787 0.90897 0.0
C470 C 0.56625 0.61508 0.86141 0.0
H471 H 0.63295 0.61562 0.7271 0.0
H472 H 0.6179 0.59385 0.77606 0.0
H473 H 0.58086 0.65004 0.83369 0.0
H474 H 0.49885 0.57685 0.9363 0.0
H475 H 0.51719 0.6017 0.89051 0.0
H476 H 0.56208 0.55083 0.84102 0.0
C477 C 0.61042 0.61438 0.76622 0.0
C478 C 0.57652 0.62847 0.83469 0.0
C479 C 0.61924 0.62689 0.73824 0.0
C480 C 0.51674 0.56851 0.92879 0.0
C481 C 0.52737 0.58282 0.90286 0.0
C482 C 0.56621 0.57248 0.83968 0.0
C483 C 0.59226 0.62816 0.7812 0.0
C484 C 0.58156 0.61405 0.80996 0.0
C485 C 0.55053 0.5725 0.89254 0.0
C486 C 0.56115 0.58693 0.86421 0.0
H487 H 0.58604 0.6885 0.73016 0.0
H488 H 0.56976 0.66641 0.77846 0.0
H489 H 0.57897 0.57414 0.79401 0.0
H490 H 0.56289 0.51486 0.94737 0.0
H491 H 0.58114 0.53957 0.90169 0.0
C492 C 0.85032 0.1068 0.19897 0.0
C493 C 0.84111 0.08748 0.17856 0.0
C494 C 0.86509 0.0985 0.22981 0.0
C495 C 0.90667 0.04067 0.27959 0.0
H496 H 0.89319 0.07757 0.35006 0.0
C497 C 0.95386 0.00291 0.41224 0.0
C498 C 0.96476 0.02297 0.43089 0.0
C499 C 0.93859 0.0104 0.38146 0.0
C500 C 0.89734 0.06723 0.33056 0.0
H501 H 0.83987 0.04426 0.1746 0.0
H502 H 0.86539 0.02966 0.22867 0.0
H503 H 0.86651 0.09109 0.29647 0.0
H504 H 0.96901 0.06664 0.43125 0.0
H505 H 0.94193 0.07967 0.37788 0.0
H506 H 0.93739 0.01668 0.31387 0.0
C507 C 0.86164 0.0513 0.22062 0.0
C508 C 0.8821 0.07499 0.29984 0.0
C509 C 0.84698 0.05964 0.18967 0.0
C510 C 0.96034 0.05066 0.4179 0.0
C511 C 0.94487 0.05815 0.38726 0.0
C512 C 0.92182 0.03281 0.31037 0.0
C513 C 0.87089 0.07065 0.24106 0.0
C514 C 0.88667 0.06191 0.27392 0.0
C515 C 0.93381 0.0381 0.36872 0.0
C516 C 0.91741 0.0461 0.33614 0.0
H517 H 0.84653 0.12844 0.19089 0.0
H518 H 0.87235 0.114 0.24464 0.0
H519 H 0.91104 0.03044 0.26011 0.0
H520 H 0.9568 0.98137 0.42154 0.0
H521 H 0.93011 0.9945 0.36784 0.0
C522 C 0.41115 0.33083 0.64477 0.0
C523 C 0.41023 0.34514 0.6136 0.0
C524 C 0.41678 0.34447 0.67169 0.0
C525 C 0.41033 0.41305 0.6933 0.0
H526 H 0.45508 0.38314 0.77469 0.0
C527 C 0.42555 0.47517 0.79764 0.0
C528 C 0.42269 0.46128 0.82793 0.0
C529 C 0.42892 0.46071 0.77272 0.0
C530 C 0.44237 0.39168 0.75218 0.0
H531 H 0.41528 0.38494 0.58651 0.0
H532 H 0.42552 0.40851 0.63334 0.0
H533 H 0.45171 0.35811 0.72863 0.0
H534 H 0.42245 0.42151 0.8566 0.0
H535 H 0.42766 0.39595 0.81271 0.0
H536 H 0.40025 0.44612 0.71662 0.0
C537 C 0.4216 0.38679 0.63696 0.0
C538 C 0.44047 0.37735 0.72581 0.0
C539 C 0.41603 0.37319 0.61012 0.0
C540 C 0.42475 0.43264 0.83342 0.0
C541 C 0.42778 0.41806 0.80829 0.0
C542 C 0.41211 0.42724 0.71956 0.0
C543 C 0.42149 0.37273 0.66801 0.0
C544 C 0.42443 0.38793 0.69606 0.0
C545 C 0.42903 0.43195 0.77734 0.0
C546 C 0.42817 0.41682 0.74936 0.0
H547 H 0.40714 0.30914 0.64834 0.0
H548 H 0.41642 0.33306 0.69526 0.0
H549 H 0.39727 0.42149 0.67098 0.0
H550 H 0.42432 0.4973 0.79297 0.0
H551 H 0.43062 0.47211 0.7495 0.0
C552 C 0.60213 0.62855 0.4316 0.0
C553 C 0.60118 0.65699 0.43136 0.0
C554 C 0.5965 0.61746 0.40286 0.0
C555 C 0.59911 0.6361 0.31691 0.0
H556 H 0.56425 0.56605 0.31009 0.0
C557 C 0.61934 0.56871 0.22397 0.0
C558 C 0.59753 0.55356 0.20964 0.0
C559 C 0.61555 0.58381 0.2482 0.0
C560 C 0.57368 0.58582 0.31141 0.0
H561 H 0.59188 0.69595 0.4009 0.0
H562 H 0.58199 0.6766 0.35077 0.0
H563 H 0.56391 0.58742 0.35825 0.0
H564 H 0.5544 0.54294 0.20888 0.0
H565 H 0.5477 0.56953 0.25138 0.0
H566 H 0.60914 0.6344 0.27028 0.0
C567 C 0.58764 0.6629 0.37312 0.0
C568 C 0.57376 0.59792 0.33916 0.0
C569 C 0.5933 0.67399 0.40185 0.0
C570 C 0.57155 0.55451 0.21941 0.0
C571 C 0.56779 0.56953 0.2439 0.0
C572 C 0.59908 0.62399 0.28925 0.0
C573 C 0.58974 0.63454 0.37321 0.0
C574 C 0.58695 0.62296 0.34249 0.0
C575 C 0.58987 0.5841 0.25881 0.0
C576 C 0.58689 0.59844 0.28645 0.0
H577 H 0.60841 0.6149 0.45386 0.0
H578 H 0.59866 0.59556 0.4038 0.0
H579 H 0.60967 0.65527 0.31873 0.0
H580 H 0.63952 0.5686 0.21671 0.0
H581 H 0.63309 0.59454 0.25938 0.0
C582 C 0.83631 0.07361 0.8857 0.0
C583 C 0.82427 0.09958 0.8845 0.0
C584 C 0.84913 0.0675 0.8606 0.0
C585 C 0.88139 0.10138 0.79321 0.0
H586 H 0.88001 0.02857 0.76918 0.0
C587 C 0.9338 0.07484 0.68952 0.0
C588 C 0.95071 0.05113 0.69668 0.0
C589 C 0.91611 0.08052 0.71039 0.0
C590 C 0.88065 0.04896 0.77575 0.0
H591 H 0.81573 0.13927 0.85537 0.0
H592 H 0.83721 0.1283 0.81111 0.0
H593 H 0.8524 0.03901 0.80872 0.0
H594 H 0.96177 0.01441 0.73077 0.0
H595 H 0.93083 0.02433 0.76727 0.0
H596 H 0.90961 0.11128 0.76016 0.0
C597 C 0.83727 0.11282 0.83182 0.0
C598 C 0.8649 0.05495 0.79846 0.0
C599 C 0.8246 0.119 0.85704 0.0
C600 C 0.94914 0.03294 0.72479 0.0
C601 C 0.93126 0.03849 0.7455 0.0
C602 C 0.89694 0.09544 0.77033 0.0
C603 C 0.85007 0.08713 0.83349 0.0
C604 C 0.86533 0.08116 0.80778 0.0
C605 C 0.91477 0.06248 0.73869 0.0
C606 C 0.89699 0.0691 0.76163 0.0
H607 H 0.83606 0.05799 0.90622 0.0
H608 H 0.85898 0.04759 0.86292 0.0
H609 H 0.88265 0.12163 0.80016 0.0
H610 H 0.93472 0.08933 0.66814 0.0
H611 H 0.9035 0.09907 0.70442 0.0
C612 C 0.40224 0.33752 0.29594 0.0
C613 C 0.40626 0.34942 0.32442 0.0
C614 C 0.41053 0.35101 0.26801 0.0
C615 C 0.45857 0.40316 0.24057 0.0
H616 H 0.41002 0.40775 0.15802 0.0
C617 C 0.49491 0.44544 0.1214 0.0
C618 C 0.47689 0.46417 0.09981 0.0
C619 C 0.48606 0.43068 0.14822 0.0
C620 C 0.42375 0.40668 0.18093 0.0
H621 H 0.4216 0.38529 0.34535 0.0
H622 H 0.43651 0.4084 0.29694 0.0
H623 H 0.39492 0.38347 0.20614 0.0
H624 H 0.43572 0.48268 0.0901 0.0
H625 H 0.41997 0.45631 0.13641 0.0
H626 H 0.48732 0.42647 0.21552 0.0
C627 C 0.42719 0.38851 0.29635 0.0
C628 C 0.41522 0.3926 0.20841 0.0
C629 C 0.41872 0.37517 0.32416 0.0
C630 C 0.44983 0.46784 0.1057 0.0
C631 C 0.44086 0.45283 0.13234 0.0
C632 C 0.4672 0.41699 0.2131 0.0
C633 C 0.42323 0.37659 0.26798 0.0
C634 C 0.43247 0.39085 0.23856 0.0
C635 C 0.45895 0.43421 0.154 0.0
C636 C 0.44985 0.41902 0.183 0.0
H637 H 0.39306 0.31758 0.29531 0.0
H638 H 0.40746 0.34119 0.24658 0.0
H639 H 0.47242 0.40196 0.26341 0.0
H640 H 0.51587 0.44203 0.11752 0.0
H641 H 0.5004 0.4163 0.16433 0.0
C642 C 0.16199 0.94504 0.85246 0.0
C643 C 0.16061 0.91815 0.86798 0.0
C644 C 0.14788 0.95264 0.82107 0.0
C645 C 0.08917 0.93487 0.76278 0.0
H646 H 0.12908 0.97227 0.6986 0.0
C647 C 0.03989 0.95484 0.62862 0.0
C648 C 0.04574 0.97964 0.61079 0.0
C649 C 0.0543 0.94689 0.65975 0.0
C650 C 0.11746 0.9622 0.71627 0.0
H651 H 0.14289 0.87835 0.86332 0.0
H652 H 0.11789 0.89176 0.80865 0.0
H653 H 0.1528 0.96024 0.75389 0.0
H654 H 0.07128 0.01558 0.61133 0.0
H655 H 0.09552 0.00245 0.66607 0.0
H656 H 0.05363 0.93737 0.72562 0.0
C657 C 0.13002 0.90687 0.82065 0.0
C658 C 0.13112 0.95526 0.74793 0.0
C659 C 0.14444 0.89917 0.85181 0.0
C660 C 0.06626 0.99637 0.62463 0.0
C661 C 0.08039 0.98865 0.65589 0.0
C662 C 0.07538 0.94214 0.73123 0.0
C663 C 0.13179 0.93361 0.80487 0.0
C664 C 0.11713 0.94146 0.77146 0.0
C665 C 0.07459 0.96381 0.67393 0.0
C666 C 0.08936 0.95585 0.70751 0.0
H667 H 0.17444 0.96001 0.86434 0.0
H668 H 0.14943 0.97344 0.8095 0.0
H669 H 0.07784 0.92446 0.78055 0.0
H670 H 0.02403 0.94165 0.61857 0.0
H671 H 0.04958 0.92739 0.67262 0.0
loop_
_geom_bond_atom_site_label_1
_geom_bond_atom_site_label_2
_geom_bond_distance
_geom_bond_site_symmetry_2
_ccdc_geom_bond_type
C0 C1 1.384 . S
C0 H13 0.947 . S
C0 C35 1.382 . S
C1 C0 1.384 . S
C1 C2 1.378 . S
C2 C1 1.378 . S
C2 C3 1.378 . S
C2 H14 0.952 . S
C3 C2 1.378 . S
C3 H15 0.950 . S
C3 C34 1.383 . S
H4 C23 0.947 . S
H5 C24 0.946 . S
H6 C26 0.953 1_556 S
H7 C27 0.945 . S
H8 C29 0.952 . S
H9 C30 0.949 . S
H10 C32 0.950 . S
H11 C33 0.948 . S
H12 C35 0.951 . S
H13 C0 0.947 . S
H14 C2 0.952 . S
H15 C3 0.950 . S
N16 C19 1.382 . S
N16 C21 1.363 . S
N17 C19 1.371 1_556 S
N17 C20 1.372 . S
N18 C20 1.361 1_554 S
N18 C21 1.377 . S
C19 N16 1.382 . S
C19 N17 1.371 1_554 S
C19 C22 1.480 . S
C20 N17 1.372 . S
C20 N18 1.361 1_556 S
C20 C28 1.457 . S
C21 N16 1.363 . S
C21 N18 1.377 . S
C21 C34 1.479 . S
C22 C19 1.480 . S
C22 C23 1.383 . S
C22 C27 1.385 1_554 S
C23 H4 0.947 . S
C23 C22 1.383 . S
C23 C24 1.388 . S
C24 H5 0.946 . S
C24 C23 1.388 . S
C24 C25 1.384 . S
C25 C24 1.384 . S
C25 C26 1.377 . S
C26 H6 0.953 1_554 S
C26 C25 1.377 . S
C26 C27 1.369 1_554 S
C27 H7 0.945 . S
C27 C22 1.385 1_556 S
C27 C26 1.369 1_556 S
C28 C20 1.457 . S
C28 C29 1.372 . S
C28 C33 1.364 . S
C29 H8 0.952 . S
C29 C28 1.372 . S
C29 C30 1.389 . S
C30 H9 0.949 . S
C30 C29 1.389 . S
C30 C31 1.387 . S
C31 C30 1.387 . S
C31 C32 1.372 . S
C32 H10 0.950 . S
C32 C31 1.372 . S
C32 C33 1.379 . S
C33 H11 0.948 . S
C33 C28 1.364 . S
C33 C32 1.379 . S
C34 C3 1.383 . S
C34 C21 1.479 . S
C34 C35 1.398 . S
C35 C0 1.382 . S
C35 H12 0.951 . S
C35 C34 1.398 . S
C36 C37 1.384 . S
C36 H49 0.947 . S
C36 C71 1.382 . S
C37 C36 1.384 . S
C37 C38 1.378 . S
C38 C37 1.378 . S
C38 C39 1.378 . S
C38 H50 0.952 . S
C39 C38 1.378 . S
C39 H51 0.950 . S
C39 C70 1.383 . S
H40 C59 0.947 . S
H41 C60 0.946 . S
H42 C62 0.953 . S
H43 C63 0.945 . S
H44 C65 0.952 . S
H45 C66 0.949 . S
H46 C68 0.950 . S
H47 C69 0.948 . S
H48 C71 0.951 . S
H49 C36 0.947 . S
H50 C38 0.952 . S
H51 C39 0.950 . S
N52 C55 1.382 . S
N52 C57 1.363 . S
N53 C55 1.371 . S
N53 C56 1.372 . S
N54 C56 1.361 . S
N54 C57 1.377 . S
C55 N52 1.382 . S
C55 N53 1.371 . S
C55 C58 1.480 . S
C56 N53 1.372 . S
C56 N54 1.361 . S
C56 C64 1.457 . S
C57 N52 1.363 . S
C57 N54 1.377 . S
C57 C70 1.479 . S
C58 C55 1.480 . S
C58 C59 1.383 . S
C58 C63 1.385 . S
C59 H40 0.947 . S
C59 C58 1.383 . S
C59 C60 1.388 . S
C60 H41 0.946 . S
C60 C59 1.388 . S
C60 C61 1.384 . S
C61 C60 1.384 . S
C61 C62 1.377 . S
C62 H42 0.953 . S
C62 C61 1.377 . S
C62 C63 1.369 . S
C63 H43 0.945 . S
C63 C58 1.385 . S
C63 C62 1.369 . S
C64 C56 1.457 . S
C64 C65 1.372 . S
C64 C69 1.364 . S
C65 H44 0.952 . S
C65 C64 1.372 . S
C65 C66 1.389 . S
C66 H45 0.949 . S
C66 C65 1.389 . S
C66 C67 1.387 . S
C67 C66 1.387 . S
C67 C68 1.372 . S
C68 H46 0.950 . S
C68 C67 1.372 . S
C68 C69 1.379 . S
C69 H47 0.948 . S
C69 C64 1.364 . S
C69 C68 1.379 . S
C70 C39 1.383 . S
C70 C57 1.479 . S
C70 C71 1.398 . S
C71 C36 1.382 . S
C71 H48 0.951 . S
C71 C70 1.398 . S
C72 C73 1.384 . S
C72 H85 0.947 . S
C72 C107 1.382 . S
C73 C72 1.384 . S
C73 C74 1.378 . S
C74 C73 1.378 . S
C74 C75 1.378 . S
C74 H86 0.952 . S
C75 C74 1.378 . S
C75 H87 0.950 . S
C75 C106 1.383 . S
H76 C95 0.947 . S
H77 C96 0.946 . S
H78 C98 0.953 . S
H79 C99 0.945 . S
H80 C101 0.952 . S
H81 C102 0.949 . S
H82 C104 0.950 . S
H83 C105 0.948 . S
H84 C107 0.951 . S
H85 C72 0.947 . S
H86 C74 0.952 . S
H87 C75 0.950 . S
N88 C91 1.382 1_556 S
N88 C93 1.363 . S
N89 C91 1.371 . S
N89 C92 1.372 . S
N90 C92 1.361 . S
N90 C93 1.379 1_554 S
C91 N88 1.382 1_554 S
C91 N89 1.371 . S
C91 C94 1.480 . S
C92 N89 1.372 . S
C92 N90 1.361 . S
C92 C100 1.457 . S
C93 N88 1.363 . S
C93 N90 1.379 1_556 S
C93 C106 1.476 . S
C94 C91 1.480 . S
C94 C95 1.383 1_554 S
C94 C99 1.385 . S
C95 H76 0.947 . S
C95 C94 1.383 1_556 S
C95 C96 1.388 . S
C96 H77 0.946 . S
C96 C95 1.388 . S
C96 C97 1.384 1_556 S
C97 C96 1.384 1_554 S
C97 C98 1.377 . S
C98 H78 0.953 . S
C98 C97 1.377 . S
C98 C99 1.369 . S
C99 H79 0.945 . S
C99 C94 1.385 . S
C99 C98 1.369 . S
C100 C92 1.457 . S
C100 C101 1.372 . S
C100 C105 1.364 . S
C101 H80 0.952 . S
C101 C100 1.372 . S
C101 C102 1.389 . S
C102 H81 0.949 . S
C102 C101 1.389 . S
C102 C103 1.387 . S
C103 C102 1.387 . S
C103 C104 1.372 . S
C104 H82 0.950 . S
C104 C103 1.372 . S
C104 C105 1.379 . S
C105 H83 0.948 . S
C105 C100 1.364 . S
C105 C104 1.379 . S
C106 C75 1.383 . S
C106 C93 1.476 . S
C106 C107 1.398 . S
C107 C72 1.382 . S
C107 H84 0.951 . S
C107 C106 1.398 . S
C108 C109 1.384 . S
C108 H121 0.947 . S
C108 C143 1.382 . S
C109 C108 1.384 . S
C109 C110 1.378 . S
C110 C109 1.378 . S
C110 C111 1.378 . S
C110 H122 0.952 . S
C111 C110 1.378 . S
C111 H123 0.950 . S
C111 C142 1.383 . S
H112 C131 0.947 . S
H113 C132 0.946 . S
H114 C134 0.953 . S
H115 C135 0.945 . S
H116 C137 0.952 . S
H117 C138 0.949 . S
H118 C140 0.950 . S
H119 C141 0.948 . S
H120 C143 0.951 . S
H121 C108 0.947 . S
H122 C110 0.952 . S
H123 C111 0.950 . S
N124 C127 1.382 . S
N124 C129 1.363 . S
N125 C127 1.371 . S
N125 C128 1.372 . S
N126 C128 1.361 . S
N126 C129 1.377 . S
C127 N124 1.382 . S
C127 N125 1.371 . S
C127 C130 1.480 . S
C128 N125 1.372 . S
C128 N126 1.361 . S
C128 C136 1.457 . S
C129 N124 1.363 . S
C129 N126 1.377 . S
C129 C142 1.479 . S
C130 C127 1.480 . S
C130 C131 1.383 . S
C130 C135 1.385 . S
C131 H112 0.947 . S
C131 C130 1.383 . S
C131 C132 1.388 . S
C132 H113 0.946 . S
C132 C131 1.388 . S
C132 C133 1.384 . S
C133 C132 1.384 . S
C133 C134 1.377 . S
C134 H114 0.953 . S
C134 C133 1.377 . S
C134 C135 1.369 . S
C135 H115 0.945 . S
C135 C130 1.385 . S
C135 C134 1.369 . S
C136 C128 1.457 . S
C136 C137 1.372 . S
C136 C141 1.364 . S
C137 H116 0.952 . S
C137 C136 1.372 . S
C137 C138 1.389 . S
C138 H117 0.949 . S
C138 C137 1.389 . S
C138 C139 1.387 . S
C139 C138 1.387 . S
C139 C140 1.372 . S
C140 H118 0.950 . S
C140 C139 1.372 . S
C140 C141 1.379 . S
C141 H119 0.948 . S
C141 C136 1.364 . S
C141 C140 1.379 . S
C142 C111 1.383 . S
C142 C129 1.479 . S
C142 C143 1.398 . S
C143 C108 1.382 . S
C143 H120 0.951 . S
C143 C142 1.398 . S
C144 C146 1.422 . S
C144 C148 1.415 . S
C144 N150 1.369 . S
C145 C146 1.421 . S
C145 C147 1.417 . S
C145 C157 1.422 . S
C146 C144 1.422 . S
C146 C145 1.421 . S
C146 N156 1.359 . S
C147 C145 1.417 . S
C147 C149 1.329 . S
C147 H166 0.930 . S
C148 C144 1.415 . S
C148 C149 1.437 . S
C148 C152 1.413 . S
C149 C147 1.329 . S
C149 C148 1.437 . S
C149 H171 0.929 . S
N150 C144 1.369 . S
N150 C151 1.338 1_655 S
N150 Gd155 2.622 . S
C151 N150 1.338 1_455 S
C151 C153 1.378 . S
C151 H163 0.929 . S
C152 C148 1.413 . S
C152 C153 1.341 1_655 S
C152 H168 0.931 . S
C153 C151 1.378 . S
C153 C152 1.341 1_455 S
C153 H169 0.937 . S
Gd154 N174 2.622 . S
Gd154 N181 2.570 . S
Gd154 O188 2.363 1_455 S
Gd154 O189 2.468 . S
Gd154 O190 2.427 . S
Gd154 O192 2.388 1_455 S
Gd154 O193 2.386 . S
Gd154 O197 2.307 1_565 S
Gd154 C207 2.805 . S
Gd155 N150 2.622 . S
Gd155 N156 2.570 . S
Gd155 O187 2.386 . S
Gd155 O191 2.307 1_545 S
Gd155 O194 2.353 1_655 S
Gd155 O195 2.468 . S
Gd155 O196 2.427 . S
Gd155 O198 2.388 1_655 S
Gd155 C219 2.805 . S
N156 C146 1.359 . S
N156 Gd155 2.570 . S
N156 C158 1.343 . S
C157 C145 1.422 . S
C157 C159 1.321 . S
C157 H165 0.931 . S
C158 N156 1.343 . S
C158 C159 1.390 . S
C158 H160 0.931 . S
C159 C157 1.321 . S
C159 C158 1.390 . S
C159 H161 0.930 . S
H160 C158 0.931 . S
H161 C159 0.930 . S
H162 C185 0.931 . S
H163 C151 0.929 . S
H164 C186 0.930 . S
H165 C157 0.931 . S
H166 C147 0.930 . S
H167 C176 0.929 1_655 S
H168 C152 0.931 . S
H169 C153 0.937 . S
H170 C208 0.930 . S
H171 C149 0.929 . S
H172 C177 0.931 . S
H173 C178 0.930 1_655 S
N174 Gd154 2.622 . S
N174 C175 1.369 . S
N174 C176 1.338 . S
C175 N174 1.369 . S
C175 C179 1.415 . S
C175 C182 1.422 . S
C176 H167 0.929 1_455 S
C176 N174 1.338 . S
C176 C178 1.378 . S
C177 H172 0.931 . S
C177 C178 1.348 . S
C177 C179 1.413 . S
C178 H173 0.930 1_455 S
C178 C176 1.378 . S
C178 C177 1.348 . S
C179 C175 1.415 . S
C179 C177 1.413 . S
C179 C209 1.437 . S
H180 C209 0.929 . S
N181 Gd154 2.570 . S
N181 C182 1.359 . S
N181 C185 1.343 . S
C182 C175 1.422 . S
C182 N181 1.359 . S
C182 C184 1.421 . S
C183 C184 1.422 . S
C183 C186 1.321 . S
C183 H210 0.931 . S
C184 C182 1.421 . S
C184 C183 1.422 . S
C184 C208 1.417 . S
C185 H162 0.931 . S
C185 N181 1.343 . S
C185 C186 1.390 . S
C186 H164 0.930 . S
C186 C183 1.321 . S
C186 C185 1.390 . S
O187 Gd155 2.386 . S
O187 C199 1.265 . S
O188 Gd154 2.363 1_655 S
O188 C199 1.226 1_565 S
O189 Gd154 2.468 . S
O189 C207 1.263 . S
O190 Gd154 2.427 . S
O190 C207 1.252 . S
O191 Gd155 2.307 1_565 S
O191 C200 1.261 . S
O192 Gd154 2.388 1_655 S
O192 C200 1.252 . S
O193 Gd154 2.386 . S
O193 C211 1.265 . S
O194 Gd155 2.353 1_455 S
O194 C211 1.242 1_545 S
O195 Gd155 2.468 . S
O195 C219 1.263 . S
O196 Gd155 2.427 . S
O196 C219 1.252 . S
O197 Gd154 2.307 1_545 S
O197 C212 1.261 . S
O198 Gd155 2.388 1_455 S
O198 C212 1.252 . S
C199 O187 1.265 . S
C199 O188 1.226 1_545 S
C200 O191 1.261 . S
C200 O192 1.252 . S
C201 C204 1.394 . S
C201 C206 1.370 . S
C201 C207 1.500 . S
C202 C205 1.383 . S
C202 C206 1.395 . S
C203 C204 1.396 . S
C203 C205 1.365 . S
C203 H220 0.929 . S
C204 C201 1.394 . S
C204 C203 1.396 . S
C204 H221 0.930 . S
C205 C202 1.383 . S
C205 C203 1.365 . S
C205 H222 0.931 . S
C206 C201 1.370 . S
C206 C202 1.395 . S
C206 H223 0.930 . S
C207 Gd154 2.805 . S
C207 O189 1.263 . S
C207 O190 1.252 . S
C207 C201 1.500 . S
C208 H170 0.930 . S
C208 C184 1.417 . S
C208 C209 1.329 . S
C209 C179 1.437 . S
C209 H180 0.929 . S
C209 C208 1.329 . S
H210 C183 0.931 . S
C211 O193 1.265 . S
C211 O194 1.242 1_565 S
C212 O197 1.261 . S
C212 O198 1.252 . S
C213 C216 1.394 . S
C213 C218 1.370 . S
C213 C219 1.500 . S
C214 C217 1.383 . S
C214 C218 1.395 . S
C215 C216 1.396 . S
C215 C217 1.365 . S
C215 H224 0.929 . S
C216 C213 1.394 . S
C216 C215 1.396 . S
C216 H225 0.930 . S
C217 C214 1.383 . S
C217 C215 1.365 . S
C217 H226 0.931 . S
C218 C213 1.370 . S
C218 C214 1.395 . S
C218 H227 0.930 . S
C219 Gd155 2.805 . S
C219 O195 1.263 . S
C219 O196 1.252 . S
C219 C213 1.500 . S
H220 C203 0.929 . S
H221 C204 0.930 . S
H222 C205 0.931 . S
H223 C206 0.930 . S
H224 C215 0.929 . S
H225 C216 0.930 . S
H226 C217 0.931 . S
H227 C218 0.930 . S
C228 C230 1.422 . S
C228 C232 1.415 . S
C228 N234 1.369 . S
C229 C230 1.421 . S
C229 C231 1.417 . S
C229 C241 1.422 . S
C230 C228 1.422 . S
C230 C229 1.421 . S
C230 N240 1.359 . S
C231 C229 1.417 . S
C231 C233 1.329 . S
C231 H250 0.930 . S
C232 C228 1.415 . S
C232 C233 1.437 . S
C232 C236 1.413 . S
C233 C231 1.329 . S
C233 C232 1.437 . S
C233 H255 0.929 . S
N234 C228 1.369 . S
N234 C235 1.338 . S
N234 Gd239 2.622 . S
C235 N234 1.338 . S
C235 C237 1.378 . S
C235 H247 0.929 . S
C236 C232 1.413 . S
C236 C237 1.348 . S
C236 H252 0.931 . S
C237 C235 1.378 . S
C237 C236 1.348 . S
C237 H253 0.930 . S
Gd238 N258 2.622 . S
Gd238 N265 2.570 1_556 S
Gd238 O272 2.353 . S
Gd238 O273 2.468 . S
Gd238 O274 2.427 . S
Gd238 O276 2.388 . S
Gd238 O277 2.386 1_556 S
Gd238 O281 2.307 1_556 S
Gd238 C291 2.805 . S
Gd239 N234 2.622 . S
Gd239 N240 2.570 . S
Gd239 O271 2.386 1_554 S
Gd239 O275 2.307 . S
Gd239 O278 2.353 . S
Gd239 O279 2.468 . S
Gd239 O280 2.427 . S
Gd239 O282 2.388 . S
Gd239 C303 2.805 . S
N240 C230 1.359 . S
N240 Gd239 2.570 . S
N240 C242 1.343 . S
C241 C229 1.422 . S
C241 C243 1.321 . S
C241 H249 0.931 . S
C242 N240 1.343 . S
C242 C243 1.390 . S
C242 H244 0.931 . S
C243 C241 1.321 . S
C243 C242 1.390 . S
C243 H245 0.930 . S
H244 C242 0.931 . S
H245 C243 0.930 . S
H246 C269 0.931 . S
H247 C235 0.929 . S
H248 C270 0.930 . S
H249 C241 0.931 . S
H250 C231 0.930 . S
H251 C260 0.929 . S
H252 C236 0.931 . S
H253 C237 0.930 . S
H254 C292 0.930 . S
H255 C233 0.929 . S
H256 C261 0.931 . S
H257 C262 0.930 . S
N258 Gd238 2.622 . S
N258 C259 1.369 1_556 S
N258 C260 1.338 . S
C259 N258 1.369 1_554 S
C259 C263 1.415 . S
C259 C266 1.422 . S
C260 H251 0.929 . S
C260 N258 1.338 . S
C260 C262 1.378 . S
C261 H256 0.931 . S
C261 C262 1.348 1_554 S
C261 C263 1.413 . S
C262 H257 0.930 . S
C262 C260 1.378 . S
C262 C261 1.348 1_556 S
C263 C259 1.415 . S
C263 C261 1.413 . S
C263 C293 1.437 . S
H264 C293 0.929 . S
N265 Gd238 2.570 1_554 S
N265 C266 1.359 . S
N265 C269 1.343 . S
C266 C259 1.422 . S
C266 N265 1.359 . S
C266 C268 1.421 . S
C267 C268 1.422 . S
C267 C270 1.321 . S
C267 H294 0.931 . S
C268 C266 1.421 . S
C268 C267 1.422 . S
C268 C292 1.417 . S
C269 H246 0.931 . S
C269 N265 1.343 . S
C269 C270 1.390 . S
C270 H248 0.930 . S
C270 C267 1.321 . S
C270 C269 1.390 . S
O271 Gd239 2.386 1_556 S
O271 C283 1.265 . S
O272 Gd238 2.353 . S
O272 C283 1.242 . S
O273 Gd238 2.468 . S
O273 C291 1.263 . S
O274 Gd238 2.427 . S
O274 C291 1.252 . S
O275 Gd239 2.307 . S
O275 C284 1.261 . S
O276 Gd238 2.388 . S
O276 C284 1.252 1_556 S
O277 Gd238 2.386 1_554 S
O277 C295 1.265 . S
O278 Gd239 2.353 . S
O278 C295 1.242 . S
O279 Gd239 2.468 . S
O279 C303 1.263 . S
O280 Gd239 2.427 . S
O280 C303 1.252 . S
O281 Gd238 2.307 1_554 S
O281 C296 1.261 . S
O282 Gd239 2.388 . S
O282 C296 1.252 . S
C283 O271 1.265 . S
C283 O272 1.242 . S
C284 O275 1.261 . S
C284 O276 1.252 1_554 S
C285 C288 1.394 . S
C285 C290 1.370 . S
C285 C291 1.500 . S
C286 C289 1.383 . S
C286 C290 1.395 . S
C287 C288 1.396 . S
C287 C289 1.365 . S
C287 H304 0.929 . S
C288 C285 1.394 . S
C288 C287 1.396 . S
C288 H305 0.930 . S
C289 C286 1.383 . S
C289 C287 1.365 . S
C289 H306 0.931 . S
C290 C285 1.370 . S
C290 C286 1.395 . S
C290 H307 0.930 . S
C291 Gd238 2.805 . S
C291 O273 1.263 . S
C291 O274 1.252 . S
C291 C285 1.500 . S
C292 H254 0.930 . S
C292 C268 1.417 . S
C292 C293 1.329 . S
C293 C263 1.437 . S
C293 H264 0.929 . S
C293 C292 1.329 . S
H294 C267 0.931 . S
C295 O277 1.265 . S
C295 O278 1.242 . S
C296 O281 1.261 . S
C296 O282 1.252 . S
C297 C300 1.394 . S
C297 C302 1.370 . S
C297 C303 1.500 . S
C298 C301 1.383 . S
C298 C302 1.395 . S
C299 C300 1.396 . S
C299 C301 1.365 . S
C299 H308 0.929 . S
C300 C297 1.394 . S
C300 C299 1.396 . S
C300 H309 0.930 . S
C301 C298 1.383 . S
C301 C299 1.365 . S
C301 H310 0.931 . S
C302 C297 1.370 . S
C302 C298 1.395 . S
C302 H311 0.930 . S
C303 Gd239 2.805 . S
C303 O279 1.263 . S
C303 O280 1.252 . S
C303 C297 1.500 . S
H304 C287 0.929 . S
H305 C288 0.930 . S
H306 C289 0.931 . S
H307 C290 0.930 . S
H308 C299 0.929 . S
H309 C300 0.930 . S
H310 C301 0.931 . S
H311 C302 0.930 . S
C312 C313 1.349 . S
C312 C314 1.327 . S
C312 H337 0.950 . S
C313 C312 1.349 . S
C313 C329 1.349 . S
C314 C312 1.327 . S
C314 C333 1.429 . S
C314 H338 0.950 . S
C315 C332 1.574 . S
C315 C334 1.368 . S
C315 H339 0.949 . S
H316 C320 0.949 . S
C317 C318 1.349 . S
C317 C319 1.327 . S
C317 H340 0.950 . S
C318 C317 1.349 . S
C318 C330 1.349 . S
C319 C317 1.327 . S
C319 C335 1.429 . S
C319 H341 0.950 . S
C320 H316 0.949 . S
C320 C328 1.574 . S
C320 C336 1.368 . S
H321 C329 0.950 . S
H322 C327 0.950 . S
H323 C328 0.949 . S
H324 C330 0.950 . S
H325 C331 0.950 . S
H326 C332 0.949 . S
C327 H322 0.950 . S
C327 C329 1.327 . S
C327 C333 1.429 . S
C328 C320 1.574 . S
C328 H323 0.949 . S
C328 C334 1.368 . S
C329 C313 1.349 . S
C329 H321 0.950 . S
C329 C327 1.327 . S
C330 C318 1.349 . S
C330 H324 0.950 . S
C330 C331 1.327 . S
C331 H325 0.950 . S
C331 C330 1.327 . S
C331 C335 1.429 . S
C332 C315 1.574 . S
C332 H326 0.949 . S
C332 C336 1.368 . S
C333 C314 1.429 . S
C333 C327 1.429 . S
C333 C334 1.523 . S
C334 C315 1.368 . S
C334 C328 1.368 . S
C334 C333 1.523 . S
C335 C319 1.429 . S
C335 C331 1.429 . S
C335 C336 1.523 . S
C336 C320 1.368 . S
C336 C332 1.368 . S
C336 C335 1.523 . S
H337 C312 0.950 . S
H338 C314 0.950 . S
H339 C315 0.949 . S
H340 C317 0.950 . S
H341 C319 0.950 . S
C342 C343 1.349 . S
C342 C344 1.327 . S
C342 H367 0.950 . S
C343 C342 1.349 . S
C343 C359 1.349 . S
C344 C342 1.327 . S
C344 C363 1.429 . S
C344 H368 0.950 . S
C345 C362 1.574 . S
C345 C364 1.368 . S
C345 H369 0.949 1_554 S
H346 C350 0.949 . S
C347 C348 1.349 . S
C347 C349 1.327 . S
C347 H370 0.950 1_554 S
C348 C347 1.349 . S
C348 C360 1.349 . S
C349 C347 1.327 . S
C349 C365 1.429 . S
C349 H371 0.950 1_554 S
C350 H346 0.949 . S
C350 C358 1.574 . S
C350 C366 1.368 . S
H351 C359 0.950 1_556 S
H352 C357 0.950 1_556 S
H353 C358 0.949 . S
H354 C360 0.950 . S
H355 C361 0.950 . S
H356 C362 0.949 1_556 S
C357 H352 0.950 1_554 S
C357 C359 1.327 . S
C357 C363 1.429 . S
C358 C350 1.574 . S
C358 H353 0.949 . S
C358 C364 1.368 . S
C359 C343 1.349 . S
C359 H351 0.950 1_554 S
C359 C357 1.327 . S
C360 C348 1.349 . S
C360 H354 0.950 . S
C360 C361 1.327 . S
C361 H355 0.950 . S
C361 C360 1.327 . S
C361 C365 1.429 . S
C362 C345 1.574 . S
C362 H356 0.949 1_554 S
C362 C366 1.368 . S
C363 C344 1.429 . S
C363 C357 1.429 . S
C363 C364 1.523 . S
C364 C345 1.368 . S
C364 C358 1.368 . S
C364 C363 1.523 . S
C365 C349 1.429 . S
C365 C361 1.429 . S
C365 C366 1.523 . S
C366 C350 1.368 . S
C366 C362 1.368 . S
C366 C365 1.523 . S
H367 C342 0.950 . S
H368 C344 0.950 . S
H369 C345 0.949 1_556 S
H370 C347 0.950 1_556 S
H371 C349 0.950 1_556 S
C372 C373 1.349 . S
C372 C374 1.327 . S
C372 H397 0.950 . S
C373 C372 1.349 . S
C373 C389 1.349 . S
C374 C372 1.327 . S
C374 C393 1.429 . S
C374 H398 0.950 . S
C375 C392 1.574 . S
C375 C394 1.368 . S
C375 H399 0.949 . S
H376 C380 0.949 . S
C377 C378 1.349 . S
C377 C379 1.327 . S
C377 H400 0.950 . S
C378 C377 1.349 . S
C378 C390 1.349 . S
C379 C377 1.327 . S
C379 C395 1.429 . S
C379 H401 0.950 . S
C380 H376 0.949 . S
C380 C388 1.574 . S
C380 C396 1.368 . S
H381 C389 0.950 . S
H382 C387 0.950 . S
H383 C388 0.949 . S
H384 C390 0.950 . S
H385 C391 0.950 . S
H386 C392 0.949 . S
C387 H382 0.950 . S
C387 C389 1.327 . S
C387 C393 1.429 . S
C388 C380 1.574 . S
C388 H383 0.949 . S
C388 C394 1.368 . S
C389 C373 1.349 . S
C389 H381 0.950 . S
C389 C387 1.327 . S
C390 C378 1.349 . S
C390 H384 0.950 . S
C390 C391 1.327 . S
C391 H385 0.950 . S
C391 C390 1.327 . S
C391 C395 1.429 . S
C392 C375 1.574 . S
C392 H386 0.949 . S
C392 C396 1.368 . S
C393 C374 1.429 . S
C393 C387 1.429 . S
C393 C394 1.523 . S
C394 C375 1.368 . S
C394 C388 1.368 . S
C394 C393 1.523 . S
C395 C379 1.429 . S
C395 C391 1.429 . S
C395 C396 1.523 . S
C396 C380 1.368 . S
C396 C392 1.368 . S
C396 C395 1.523 . S
H397 C372 0.950 . S
H398 C374 0.950 . S
H399 C375 0.949 . S
H400 C377 0.950 . S
H401 C379 0.950 . S
C402 C403 1.349 1_556 S
C402 C404 1.327 . S
C402 H427 0.950 . S
C403 C402 1.349 1_554 S
C403 C419 1.349 . S
C404 C402 1.327 . S
C404 C423 1.429 1_556 S
C404 H428 0.950 . S
C405 C422 1.574 . S
C405 C424 1.368 . S
C405 H429 0.949 . S
H406 C410 0.949 . S
C407 C408 1.349 . S
C407 C409 1.327 . S
C407 H430 0.950 . S
C408 C407 1.349 . S
C408 C420 1.349 . S
C409 C407 1.327 . S
C409 C425 1.429 . S
C409 H431 0.950 . S
C410 H406 0.949 . S
C410 C418 1.574 . S
C410 C426 1.368 1_556 S
H411 C419 0.950 . S
H412 C417 0.950 . S
H413 C418 0.949 . S
H414 C420 0.950 1_556 S
H415 C421 0.950 1_556 S
H416 C422 0.949 . S
C417 H412 0.950 . S
C417 C419 1.327 . S
C417 C423 1.429 . S
C418 C410 1.574 . S
C418 H413 0.949 . S
C418 C424 1.368 1_556 S
C419 C403 1.349 . S
C419 H411 0.950 . S
C419 C417 1.327 . S
C420 C408 1.349 . S
C420 H414 0.950 1_554 S
C420 C421 1.327 . S
C421 H415 0.950 1_554 S
C421 C420 1.327 . S
C421 C425 1.429 . S
C422 C405 1.574 . S
C422 H416 0.949 . S
C422 C426 1.368 . S
C423 C404 1.429 1_554 S
C423 C417 1.429 . S
C423 C424 1.523 . S
C424 C405 1.368 . S
C424 C418 1.368 1_554 S
C424 C423 1.523 . S
C425 C409 1.429 . S
C425 C421 1.429 . S
C425 C426 1.523 . S
C426 C410 1.368 1_554 S
C426 C422 1.368 . S
C426 C425 1.523 . S
H427 C402 0.950 . S
H428 C404 0.950 . S
H429 C405 0.949 . S
H430 C407 0.950 . S
H431 C409 0.950 . S
C432 C433 1.349 . S
C432 C434 1.327 . S
C432 H457 0.950 . S
C433 C432 1.349 . S
C433 C449 1.349 . S
C434 C432 1.327 . S
C434 C453 1.429 . S
C434 H458 0.950 . S
C435 C452 1.574 . S
C435 C454 1.368 . S
C435 H459 0.949 . S
H436 C440 0.949 . S
C437 C438 1.349 . S
C437 C439 1.327 . S
C437 H460 0.950 . S
C438 C437 1.349 . S
C438 C450 1.349 . S
C439 C437 1.327 . S
C439 C455 1.429 . S
C439 H461 0.950 . S
C440 H436 0.949 . S
C440 C448 1.574 . S
C440 C456 1.368 . S
H441 C449 0.950 . S
H442 C447 0.950 . S
H443 C448 0.949 . S
H444 C450 0.950 . S
H445 C451 0.950 . S
H446 C452 0.949 . S
C447 H442 0.950 . S
C447 C449 1.327 . S
C447 C453 1.429 . S
C448 C440 1.574 . S
C448 H443 0.949 . S
C448 C454 1.368 . S
C449 C433 1.349 . S
C449 H441 0.950 . S
C449 C447 1.327 . S
C450 C438 1.349 . S
C450 H444 0.950 . S
C450 C451 1.327 . S
C451 H445 0.950 . S
C451 C450 1.327 . S
C451 C455 1.429 . S
C452 C435 1.574 . S
C452 H446 0.949 . S
C452 C456 1.368 . S
C453 C434 1.429 . S
C453 C447 1.429 . S
C453 C454 1.523 . S
C454 C435 1.368 . S
C454 C448 1.368 . S
C454 C453 1.523 . S
C455 C439 1.429 . S
C455 C451 1.429 . S
C455 C456 1.523 . S
C456 C440 1.368 . S
C456 C452 1.368 . S
C456 C455 1.523 . S
H457 C432 0.950 . S
H458 C434 0.950 . S
H459 C435 0.949 . S
H460 C437 0.950 . S
H461 C439 0.950 . S
C462 C463 1.349 . S
C462 C464 1.327 . S
C462 H487 0.950 . S
C463 C462 1.349 . S
C463 C479 1.349 . S
C464 C462 1.327 . S
C464 C483 1.429 . S
C464 H488 0.950 . S
C465 C482 1.574 . S
C465 C484 1.368 . S
C465 H489 0.949 . S
H466 C470 0.949 . S
C467 C468 1.349 . S
C467 C469 1.327 . S
C467 H490 0.950 . S
C468 C467 1.349 . S
C468 C480 1.349 . S
C469 C467 1.327 . S
C469 C485 1.429 . S
C469 H491 0.950 . S
C470 H466 0.949 . S
C470 C478 1.574 . S
C470 C486 1.368 . S
H471 C479 0.950 . S
H472 C477 0.950 . S
H473 C478 0.949 . S
H474 C480 0.950 . S
H475 C481 0.950 . S
H476 C482 0.949 . S
C477 H472 0.950 . S
C477 C479 1.327 . S
C477 C483 1.429 . S
C478 C470 1.574 . S
C478 H473 0.949 . S
C478 C484 1.368 . S
C479 C463 1.349 . S
C479 H471 0.950 . S
C479 C477 1.327 . S
C480 C468 1.349 . S
C480 H474 0.950 . S
C480 C481 1.327 . S
C481 H475 0.950 . S
C481 C480 1.327 . S
C481 C485 1.429 . S
C482 C465 1.574 . S
C482 H476 0.949 . S
C482 C486 1.368 . S
C483 C464 1.429 . S
C483 C477 1.429 . S
C483 C484 1.523 . S
C484 C465 1.368 . S
C484 C478 1.368 . S
C484 C483 1.523 . S
C485 C469 1.429 . S
C485 C481 1.429 . S
C485 C486 1.523 . S
C486 C470 1.368 . S
C486 C482 1.368 . S
C486 C485 1.523 . S
H487 C462 0.950 . S
H488 C464 0.950 . S
H489 C465 0.949 . S
H490 C467 0.950 . S
H491 C469 0.950 . S
C492 C493 1.349 . S
C492 C494 1.327 . S
C492 H517 0.950 . S
C493 C492 1.349 . S
C493 C509 1.349 . S
C494 C492 1.327 . S
C494 C513 1.429 . S
C494 H518 0.950 . S
C495 C512 1.574 . S
C495 C514 1.368 . S
C495 H519 0.949 . S
H496 C500 0.949 . S
C497 C498 1.349 . S
C497 C499 1.327 . S
C497 H520 0.950 1_545 S
C498 C497 1.349 . S
C498 C510 1.349 . S
C499 C497 1.327 . S
C499 C515 1.429 . S
C499 H521 0.950 . S
C500 H496 0.949 . S
C500 C508 1.574 . S
C500 C516 1.368 . S
H501 C509 0.950 . S
H502 C507 0.950 . S
H503 C508 0.949 . S
H504 C510 0.950 . S
H505 C511 0.950 . S
H506 C512 0.949 . S
C507 H502 0.950 . S
C507 C509 1.327 . S
C507 C513 1.429 . S
C508 C500 1.574 . S
C508 H503 0.949 . S
C508 C514 1.368 . S
C509 C493 1.349 . S
C509 H501 0.950 . S
C509 C507 1.327 . S
C510 C498 1.349 . S
C510 H504 0.950 . S
C510 C511 1.327 . S
C511 H505 0.950 . S
C511 C510 1.327 . S
C511 C515 1.429 . S
C512 C495 1.574 . S
C512 H506 0.949 . S
C512 C516 1.368 . S
C513 C494 1.429 . S
C513 C507 1.429 . S
C513 C514 1.523 . S
C514 C495 1.368 . S
C514 C508 1.368 . S
C514 C513 1.523 . S
C515 C499 1.429 . S
C515 C511 1.429 . S
C515 C516 1.523 . S
C516 C500 1.368 . S
C516 C512 1.368 . S
C516 C515 1.523 . S
H517 C492 0.950 . S
H518 C494 0.950 . S
H519 C495 0.949 . S
H520 C497 0.950 1_565 S
H521 C499 0.950 . S
C522 C523 1.349 . S
C522 C524 1.327 . S
C522 H547 0.950 . S
C523 C522 1.349 . S
C523 C539 1.349 . S
C524 C522 1.327 . S
C524 C543 1.429 . S
C524 H548 0.950 . S
C525 C542 1.574 . S
C525 C544 1.368 . S
C525 H549 0.949 . S
H526 C530 0.949 . S
C527 C528 1.349 . S
C527 C529 1.327 . S
C527 H550 0.950 . S
C528 C527 1.349 . S
C528 C540 1.349 . S
C529 C527 1.327 . S
C529 C545 1.429 . S
C529 H551 0.950 . S
C530 H526 0.949 . S
C530 C538 1.574 . S
C530 C546 1.368 . S
H531 C539 0.950 . S
H532 C537 0.950 . S
H533 C538 0.949 . S
H534 C540 0.950 . S
H535 C541 0.950 . S
H536 C542 0.949 . S
C537 H532 0.950 . S
C537 C539 1.327 . S
C537 C543 1.429 . S
C538 C530 1.574 . S
C538 H533 0.949 . S
C538 C544 1.368 . S
C539 C523 1.349 . S
C539 H531 0.950 . S
C539 C537 1.327 . S
C540 C528 1.349 . S
C540 H534 0.950 . S
C540 C541 1.327 . S
C541 H535 0.950 . S
C541 C540 1.327 . S
C541 C545 1.429 . S
C542 C525 1.574 . S
C542 H536 0.949 . S
C542 C546 1.368 . S
C543 C524 1.429 . S
C543 C537 1.429 . S
C543 C544 1.523 . S
C544 C525 1.368 . S
C544 C538 1.368 . S
C544 C543 1.523 . S
C545 C529 1.429 . S
C545 C541 1.429 . S
C545 C546 1.523 . S
C546 C530 1.368 . S
C546 C542 1.368 . S
C546 C545 1.523 . S
H547 C522 0.950 . S
H548 C524 0.950 . S
H549 C525 0.949 . S
H550 C527 0.950 . S
H551 C529 0.950 . S
C552 C553 1.349 . S
C552 C554 1.327 . S
C552 H577 0.950 . S
C553 C552 1.349 . S
C553 C569 1.349 . S
C554 C552 1.327 . S
C554 C573 1.429 . S
C554 H578 0.950 . S
C555 C572 1.574 . S
C555 C574 1.368 . S
C555 H579 0.949 . S
H556 C560 0.949 . S
C557 C558 1.349 . S
C557 C559 1.327 . S
C557 H580 0.950 . S
C558 C557 1.349 . S
C558 C570 1.349 . S
C559 C557 1.327 . S
C559 C575 1.429 . S
C559 H581 0.950 . S
C560 H556 0.949 . S
C560 C568 1.574 . S
C560 C576 1.368 . S
H561 C569 0.950 . S
H562 C567 0.950 . S
H563 C568 0.949 . S
H564 C570 0.950 . S
H565 C571 0.950 . S
H566 C572 0.949 . S
C567 H562 0.950 . S
C567 C569 1.327 . S
C567 C573 1.429 . S
C568 C560 1.574 . S
C568 H563 0.949 . S
C568 C574 1.368 . S
C569 C553 1.349 . S
C569 H561 0.950 . S
C569 C567 1.327 . S
C570 C558 1.349 . S
C570 H564 0.950 . S
C570 C571 1.327 . S
C571 H565 0.950 . S
C571 C570 1.327 . S
C571 C575 1.429 . S
C572 C555 1.574 . S
C572 H566 0.949 . S
C572 C576 1.368 . S
C573 C554 1.429 . S
C573 C567 1.429 . S
C573 C574 1.523 . S
C574 C555 1.368 . S
C574 C568 1.368 . S
C574 C573 1.523 . S
C575 C559 1.429 . S
C575 C571 1.429 . S
C575 C576 1.523 . S
C576 C560 1.368 . S
C576 C572 1.368 . S
C576 C575 1.523 . S
H577 C552 0.950 . S
H578 C554 0.950 . S
H579 C555 0.949 . S
H580 C557 0.950 . S
H581 C559 0.950 . S
C582 C583 1.349 . S
C582 C584 1.327 . S
C582 H607 0.950 . S
C583 C582 1.349 . S
C583 C599 1.349 . S
C584 C582 1.327 . S
C584 C603 1.429 . S
C584 H608 0.950 . S
C585 C602 1.574 . S
C585 C604 1.368 . S
C585 H609 0.949 . S
H586 C590 0.949 . S
C587 C588 1.349 . S
C587 C589 1.327 . S
C587 H610 0.950 . S
C588 C587 1.349 . S
C588 C600 1.349 . S
C589 C587 1.327 . S
C589 C605 1.429 . S
C589 H611 0.950 . S
C590 H586 0.949 . S
C590 C598 1.574 . S
C590 C606 1.368 . S
H591 C599 0.950 . S
H592 C597 0.950 . S
H593 C598 0.949 . S
H594 C600 0.950 . S
H595 C601 0.950 . S
H596 C602 0.949 . S
C597 H592 0.950 . S
C597 C599 1.327 . S
C597 C603 1.429 . S
C598 C590 1.574 . S
C598 H593 0.949 . S
C598 C604 1.368 . S
C599 C583 1.349 . S
C599 H591 0.950 . S
C599 C597 1.327 . S
C600 C588 1.349 . S
C600 H594 0.950 . S
C600 C601 1.327 . S
C601 H595 0.950 . S
C601 C600 1.327 . S
C601 C605 1.429 . S
C602 C585 1.574 . S
C602 H596 0.949 . S
C602 C606 1.368 . S
C603 C584 1.429 . S
C603 C597 1.429 . S
C603 C604 1.523 . S
C604 C585 1.368 . S
C604 C598 1.368 . S
C604 C603 1.523 . S
C605 C589 1.429 . S
C605 C601 1.429 . S
C605 C606 1.523 . S
C606 C590 1.368 . S
C606 C602 1.368 . S
C606 C605 1.523 . S
H607 C582 0.950 . S
H608 C584 0.950 . S
H609 C585 0.949 . S
H610 C587 0.950 . S
H611 C589 0.950 . S
C612 C613 1.349 . S
C612 C614 1.327 . S
C612 H637 0.950 . S
C613 C612 1.349 . S
C613 C629 1.349 . S
C614 C612 1.327 . S
C614 C633 1.429 . S
C614 H638 0.950 . S
C615 C632 1.574 . S
C615 C634 1.368 . S
C615 H639 0.949 . S
H616 C620 0.949 . S
C617 C618 1.349 . S
C617 C619 1.327 . S
C617 H640 0.950 . S
C618 C617 1.349 . S
C618 C630 1.349 . S
C619 C617 1.327 . S
C619 C635 1.429 . S
C619 H641 0.950 . S
C620 H616 0.949 . S
C620 C628 1.574 . S
C620 C636 1.368 . S
H621 C629 0.950 . S
H622 C627 0.950 . S
H623 C628 0.949 . S
H624 C630 0.950 . S
H625 C631 0.950 . S
H626 C632 0.949 . S
C627 H622 0.950 . S
C627 C629 1.327 . S
C627 C633 1.429 . S
C628 C620 1.574 . S
C628 H623 0.949 . S
C628 C634 1.368 . S
C629 C613 1.349 . S
C629 H621 0.950 . S
C629 C627 1.327 . S
C630 C618 1.349 . S
C630 H624 0.950 . S
C630 C631 1.327 . S
C631 H625 0.950 . S
C631 C630 1.327 . S
C631 C635 1.429 . S
C632 C615 1.574 . S
C632 H626 0.949 . S
C632 C636 1.368 . S
C633 C614 1.429 . S
C633 C627 1.429 . S
C633 C634 1.523 . S
C634 C615 1.368 . S
C634 C628 1.368 . S
C634 C633 1.523 . S
C635 C619 1.429 . S
C635 C631 1.429 . S
C635 C636 1.523 . S
C636 C620 1.368 . S
C636 C632 1.368 . S
C636 C635 1.523 . S
H637 C612 0.950 . S
H638 C614 0.950 . S
H639 C615 0.949 . S
H640 C617 0.950 . S
H641 C619 0.950 . S
C642 C643 1.349 . S
C642 C644 1.327 . S
C642 H667 0.950 . S
C643 C642 1.349 . S
C643 C659 1.349 . S
C644 C642 1.327 . S
C644 C663 1.429 . S
C644 H668 0.950 . S
C645 C662 1.574 . S
C645 C664 1.368 . S
C645 H669 0.949 . S
H646 C650 0.949 . S
C647 C648 1.349 . S
C647 C649 1.327 . S
C647 H670 0.950 . S
C648 C647 1.349 . S
C648 C660 1.349 . S
C649 C647 1.327 . S
C649 C665 1.429 . S
C649 H671 0.950 . S
C650 H646 0.949 . S
C650 C658 1.574 . S
C650 C666 1.368 . S
H651 C659 0.950 . S
H652 C657 0.950 . S
H653 C658 0.949 . S
H654 C660 0.950 1_545 S
H655 C661 0.950 1_545 S
H656 C662 0.949 . S
C657 H652 0.950 . S
C657 C659 1.327 . S
C657 C663 1.429 . S
C658 C650 1.574 . S
C658 H653 0.949 . S
C658 C664 1.368 . S
C659 C643 1.349 . S
C659 H651 0.950 . S
C659 C657 1.327 . S
C660 C648 1.349 . S
C660 H654 0.950 1_565 S
C660 C661 1.327 . S
C661 H655 0.950 1_565 S
C661 C660 1.327 . S
C661 C665 1.429 . S
C662 C645 1.574 . S
C662 H656 0.949 . S
C662 C666 1.368 . S
C663 C644 1.429 . S
C663 C657 1.429 . S
C663 C664 1.523 . S
C664 C645 1.368 . S
C664 C658 1.368 . S
C664 C663 1.523 . S
C665 C649 1.429 . S
C665 C661 1.429 . S
C665 C666 1.523 . S
C666 C650 1.368 . S
C666 C662 1.368 . S
C666 C665 1.523 . S
H667 C642 0.950 . S
H668 C644 0.950 . S
H669 C645 0.949 . S
H670 C647 0.950 . S
H671 C649 0.950 . S
C318 C212 1.615 . S
C313 C133 1.634 . S
C343 C25 1.613 . S
C348 C284 1.602 . S
C373 C61 1.615 . S
C378 C200 1.616 . S
C403 C97 1.585 . S
C408 C296 1.602 . S
C438 C202 1.410 . S
C433 C1 1.562 . S
C468 C283 1.605 . S
C463 C67 1.581 . S
C493 C103 1.569 . S
C498 C199 1.598 . S
C523 C109 1.542 . S
C528 C286 1.399 . S
C558 C298 1.399 . S
C553 C37 1.532 . S
C588 C214 1.410 . S
C583 C73 1.549 . S
C618 C295 1.605 . S
C613 C139 1.599 . S
C643 C31 1.596 . S
C648 C211 1.599 . S
