# Generated by pormake.
# Topology pyr, (3,6)-cn, num edge types: 1
# Building blocks:
#     Node 0, Type 0, BuildingBlock: BETDIP_clean_linker_0, # of connection points: 3
#     Node 1, Type 0, BuildingBlock: BETDIP_clean_linker_0, # of connection points: 3
#     Node 2, Type 0, BuildingBlock: BETDIP_clean_linker_0, # of connection points: 3
#     Node 3, Type 0, BuildingBlock: BETDIP_clean_linker_0, # of connection points: 3
#     Node 4, Type 0, BuildingBlock: BETDIP_clean_linker_0, # of connection points: 3
#     Node 5, Type 0, BuildingBlock: BETDIP_clean_linker_0, # of connection points: 3
#     Node 6, Type 0, BuildingBlock: BETDIP_clean_linker_0, # of connection points: 3
#     Node 7, Type 0, BuildingBlock: BETDIP_clean_linker_0, # of connection points: 3
#     Node 8, Type 1, BuildingBlock: MIDCAF_clean_sbu_0, # of connection points: 6
#     Node 9, Type 1, BuildingBlock: MIDCAF_clean_sbu_0, # of connection points: 6
#     Node 10, Type 1, BuildingBlock: MIDCAF_clean_sbu_0, # of connection points: 6
#     Node 11, Type 1, BuildingBlock: MIDCAF_clean_sbu_0, # of connection points: 6
#     Edge 12, Type (0, 1), BuildingBlock: UVAHIK_clean_linker_0, # of connection points: 2
#     Edge 13, Type (0, 1), BuildingBlock: UVAHIK_clean_linker_0, # of connection points: 2
#     Edge 14, Type (0, 1), BuildingBlock: UVAHIK_clean_linker_0, # of connection points: 2
#     Edge 15, Type (0, 1), BuildingBlock: UVAHIK_clean_linker_0, # of connection points: 2
#     Edge 16, Type (0, 1), BuildingBlock: UVAHIK_clean_linker_0, # of connection points: 2
#     Edge 17, Type (0, 1), BuildingBlock: UVAHIK_clean_linker_0, # of connection points: 2
#     Edge 18, Type (0, 1), BuildingBlock: UVAHIK_clean_linker_0, # of connection points: 2
#     Edge 19, Type (0, 1), BuildingBlock: UVAHIK_clean_linker_0, # of connection points: 2
#     Edge 20, Type (0, 1), BuildingBlock: UVAHIK_clean_linker_0, # of connection points: 2
#     Edge 21, Type (0, 1), BuildingBlock: UVAHIK_clean_linker_0, # of connection points: 2
#     Edge 22, Type (0, 1), BuildingBlock: UVAHIK_clean_linker_0, # of connection points: 2
#     Edge 23, Type (0, 1), BuildingBlock: UVAHIK_clean_linker_0, # of connection points: 2
#     Edge 24, Type (0, 1), BuildingBlock: UVAHIK_clean_linker_0, # of connection points: 2
#     Edge 25, Type (0, 1), BuildingBlock: UVAHIK_clean_linker_0, # of connection points: 2
#     Edge 26, Type (0, 1), BuildingBlock: UVAHIK_clean_linker_0, # of connection points: 2
#     Edge 27, Type (0, 1), BuildingBlock: UVAHIK_clean_linker_0, # of connection points: 2
#     Edge 28, Type (0, 1), BuildingBlock: UVAHIK_clean_linker_0, # of connection points: 2
#     Edge 29, Type (0, 1), BuildingBlock: UVAHIK_clean_linker_0, # of connection points: 2
#     Edge 30, Type (0, 1), BuildingBlock: UVAHIK_clean_linker_0, # of connection points: 2
#     Edge 31, Type (0, 1), BuildingBlock: UVAHIK_clean_linker_0, # of connection points: 2
#     Edge 32, Type (0, 1), BuildingBlock: UVAHIK_clean_linker_0, # of connection points: 2
#     Edge 33, Type (0, 1), BuildingBlock: UVAHIK_clean_linker_0, # of connection points: 2
#     Edge 34, Type (0, 1), BuildingBlock: UVAHIK_clean_linker_0, # of connection points: 2
#     Edge 35, Type (0, 1), BuildingBlock: UVAHIK_clean_linker_0, # of connection points: 2
# Relax obj value: 0.086
# Max RMSD: 0.179
# Mean RMSD: 0.137
data_MOF--net-pyr--node1-MIDCAF_clean_sbu_0--node2-BETDIP_clean_linker_0--edge1-UVAHIK_clean_linker_0
_symmetry_space_group_name_H-M    P1
_symmetry_Int_Tables_number       1
_symmetry_cell_setting            triclinic
loop_
_symmetry_equiv_pos_as_xyz
'x, y, z'
_cell_length_a     45.318294
_cell_length_b     44.829371
_cell_length_c     47.160623
_cell_angle_alpha  93.213735
_cell_angle_beta   85.937412
_cell_angle_gamma 97.092512
loop_
_atom_site_label
_atom_site_type_symbol
_atom_site_fract_x
_atom_site_fract_y
_atom_site_fract_z
_atom_type_partial_charge
H0 H 0.20961 0.21983 0.2363 0.0
H1 H 0.28335 0.21848 0.17412 0.0
H2 H 0.28464 0.17497 0.25299 0.0
H3 H 0.26631 0.25976 0.15896 0.0
C4 C 0.2423 0.25596 0.16307 0.0
C5 C 0.23148 0.21338 0.22993 0.0
C6 C 0.24549 0.19628 0.2478 0.0
C7 C 0.24535 0.22236 0.20384 0.0
C8 C 0.27337 0.21335 0.19506 0.0
C9 C 0.28778 0.19608 0.21263 0.0
C10 C 0.27385 0.18824 0.23924 0.0
N11 N 0.22962 0.23902 0.18646 0.0
H12 H 0.2938 0.84177 0.76974 0.0
H13 H 0.29902 0.78109 0.69653 0.0
H14 H 0.36183 0.7822 0.76075 0.0
H15 H 0.24995 0.78594 0.6963 0.0
C16 C 0.24898 0.80957 0.7023 0.0
C17 C 0.30466 0.82427 0.75799 0.0
C18 C 0.32971 0.81387 0.76842 0.0
C19 C 0.29301 0.81213 0.73256 0.0
C20 C 0.30683 0.78936 0.71697 0.0
C21 C 0.33158 0.77809 0.72708 0.0
C22 C 0.34269 0.7905 0.75289 0.0
N23 N 0.26824 0.82431 0.72264 0.0
H24 H 0.7635 0.36527 0.7902 0.0
H25 H 0.70928 0.27997 0.78014 0.0
H26 H 0.76734 0.29557 0.84863 0.0
H27 H 0.68122 0.30521 0.75668 0.0
C28 C 0.69529 0.32379 0.74705 0.0
C29 C 0.75631 0.34279 0.79728 0.0
C30 C 0.76863 0.33254 0.82095 0.0
C31 C 0.73446 0.32435 0.78269 0.0
C32 C 0.72536 0.29497 0.79159 0.0
C33 C 0.73735 0.28441 0.81525 0.0
C34 C 0.75895 0.3033 0.82972 0.0
N35 N 0.72223 0.33611 0.75928 0.0
H36 H 0.77631 0.72161 0.27212 0.0
H37 H 0.83984 0.79975 0.28533 0.0
H38 H 0.75811 0.78954 0.33721 0.0
H39 H 0.87267 0.7693 0.26948 0.0
C40 C 0.86207 0.75138 0.25592 0.0
C41 C 0.78245 0.74302 0.28329 0.0
C42 C 0.76318 0.75375 0.30517 0.0
C43 C 0.81044 0.75889 0.27653 0.0
C44 C 0.81852 0.78692 0.29054 0.0
C45 C 0.79955 0.79809 0.31233 0.0
C46 C 0.77207 0.78137 0.31958 0.0
N47 N 0.83047 0.74498 0.25695 0.0
H48 H 0.8437 0.83184 0.89569 0.0
H49 H 0.91112 0.81956 0.82869 0.0
H50 H 0.86476 0.89793 0.83238 0.0
H51 H 0.93139 0.80013 0.86776 0.0
C52 C 0.91169 0.78522 0.87455 0.0
C53 C 0.8565 0.83974 0.87671 0.0
C54 C 0.85138 0.86678 0.86529 0.0
C55 C 0.87842 0.82297 0.864 0.0
C56 C 0.89488 0.83297 0.83919 0.0
C57 C 0.88988 0.85984 0.82739 0.0
C58 C 0.8681 0.87661 0.84067 0.0
N59 N 0.88338 0.79594 0.8763 0.0
H60 H 0.66051 0.11368 0.35602 0.0
H61 H 0.66795 0.17617 0.42838 0.0
H62 H 0.60312 0.18365 0.36754 0.0
H63 H 0.68572 0.13638 0.44763 0.0
C64 C 0.69896 0.12709 0.42996 0.0
C65 C 0.65295 0.1328 0.36829 0.0
C66 C 0.62999 0.14732 0.35878 0.0
C67 C 0.66646 0.14265 0.39346 0.0
C68 C 0.65731 0.16792 0.40916 0.0
C69 C 0.63435 0.18277 0.4 0.0
C70 C 0.62081 0.17232 0.37476 0.0
N71 N 0.68976 0.12712 0.40177 0.0
H72 H 0.32908 0.65992 0.22139 0.0
H73 H 0.40968 0.70035 0.17829 0.0
H74 H 0.32512 0.71146 0.14767 0.0
H75 H 0.42922 0.69794 0.21926 0.0
C76 C 0.41771 0.67807 0.22907 0.0
C77 C 0.34012 0.67339 0.20447 0.0
C78 C 0.32322 0.68483 0.18463 0.0
C79 C 0.37127 0.67967 0.20298 0.0
C80 C 0.38563 0.69672 0.18073 0.0
C81 C 0.36913 0.70857 0.16087 0.0
C82 C 0.33797 0.70251 0.16302 0.0
N83 N 0.38747 0.66801 0.22375 0.0
H84 H 0.16054 0.32272 0.67603 0.0
H85 H 0.18934 0.41469 0.70123 0.0
H86 H 0.20503 0.38305 0.61438 0.0
H87 H 0.13963 0.40308 0.72718 0.0
C88 C 0.14654 0.38384 0.73687 0.0
C89 C 0.17122 0.34482 0.67057 0.0
C90 C 0.18224 0.35015 0.64247 0.0
C91 C 0.17283 0.36817 0.69155 0.0
C92 C 0.18689 0.39684 0.68479 0.0
C93 C 0.19847 0.40232 0.65697 0.0
C94 C 0.19559 0.37905 0.6358 0.0
N95 N 0.16079 0.36227 0.71953 0.0
Zn96 Zn 0.01462 0.06224 0.55801 0.0
Zn97 Zn 0.05192 0.9749 0.48475 0.0
Zn98 Zn 0.03279 0.01953 0.52111 0.0
C99 C 0.08468 0.03098 0.47102 0.0
C100 C 0.9915 0.9791 0.47702 0.0
O101 O 0.03301 0.00341 0.56437 0.0
O102 O 0.01438 0.03868 0.59244 0.0
C103 C 0.06617 0.0874 0.52876 0.0
O104 O 0.0691 0.04044 0.49286 0.0
O105 O 0.08154 0.00346 0.46292 0.0
O106 O 0.01176 0.96261 0.47003 0.0
O107 O 0.99585 0.00167 0.49494 0.0
O108 O 0.04856 0.09308 0.54972 0.0
O109 O 0.06303 0.06174 0.51491 0.0
O110 O 0.9864 0.02548 0.5123 0.0
O111 O 0.97685 0.06524 0.53985 0.0
C112 C 0.96912 0.04543 0.52082 0.0
O113 O 0.04945 0.98489 0.54605 0.0
O114 O 0.06583 0.95129 0.51448 0.0
C115 C 0.02414 0.01342 0.58928 0.0
C116 C 0.06207 0.96082 0.54004 0.0
Zn117 Zn 0.52073 0.04956 0.98922 0.0
Zn118 Zn 0.57491 0.97748 0.04764 0.0
Zn119 Zn 0.54772 0.01216 0.01862 0.0
C120 C 0.61822 0.00382 0.01006 0.0
C121 C 0.53069 0.94031 0.02092 0.0
O122 O 0.5283 0.04506 0.04885 0.0
O123 O 0.50891 0.07595 0.02233 0.0
C124 C 0.57992 0.05284 0.96775 0.0
O125 O 0.59506 0.01404 0.00171 0.0
O126 O 0.61594 0.98811 0.03164 0.0
O127 O 0.55325 0.93866 0.03471 0.0
O128 O 0.52457 0.96601 0.0136 0.0
O129 O 0.55592 0.06306 0.96367 0.0
O130 O 0.58095 0.03415 0.98733 0.0
O131 O 0.51177 0.98446 0.99563 0.0
O132 O 0.4905 0.01794 0.97395 0.0
C133 C 0.49199 0.99088 0.9793 0.0
O134 O 0.54549 0.02834 0.06444 0.0
O135 O 0.56474 0.99368 0.08636 0.0
C136 C 0.51416 0.06798 0.04656 0.0
C137 C 0.55285 0.01775 0.08749 0.0
Zn138 Zn 0.56269 0.56178 0.54883 0.0
Zn139 Zn 0.48622 0.48821 0.48647 0.0
Zn140 Zn 0.52342 0.52391 0.5182 0.0
C141 C 0.52271 0.45127 0.50925 0.0
C142 C 0.51754 0.52829 0.44992 0.0
O143 O 0.4975 0.54913 0.55124 0.0
O144 O 0.53148 0.57762 0.57545 0.0
C145 C 0.57463 0.5019 0.55401 0.0
O146 O 0.53491 0.47696 0.51907 0.0
O147 O 0.49957 0.44976 0.49558 0.0
O148 O 0.49945 0.50455 0.44885 0.0
O149 O 0.52795 0.5385 0.47378 0.0
O150 O 0.58428 0.52884 0.56081 0.0
O151 O 0.55235 0.49602 0.53821 0.0
O152 O 0.54911 0.5562 0.4897 0.0
O153 O 0.57916 0.58687 0.5164 0.0
C154 C 0.56927 0.57889 0.49242 0.0
O155 O 0.47787 0.52773 0.53639 0.0
O156 O 0.44914 0.50061 0.50595 0.0
C157 C 0.50445 0.56906 0.57125 0.0
C158 C 0.45188 0.51749 0.52819 0.0
Zn159 Zn 0.06914 0.53991 0.00543 0.0
Zn160 Zn 0.9911 0.46793 0.07455 0.0
Zn161 Zn 0.0296 0.50392 0.03933 0.0
C162 C 0.04279 0.43927 0.05972 0.0
C163 C 0.96289 0.47795 0.02418 0.0
O164 O 0.00447 0.52013 0.00623 0.0
O165 O 0.03787 0.55047 0.9815 0.0
C166 C 0.0706 0.56395 0.06166 0.0
O167 O 0.04887 0.46173 0.04352 0.0
O168 O 0.01922 0.43693 0.07589 0.0
O169 O 0.95959 0.46266 0.04619 0.0
O170 O 0.98692 0.49593 0.01927 0.0
O171 O 0.08295 0.56834 0.03714 0.0
O172 O 0.05002 0.54182 0.06573 0.0
O173 O 0.06311 0.4764 0.01967 0.0
O174 O 0.09252 0.50664 0.99136 0.0
C175 C 0.08497 0.48077 0.00078 0.0
O176 O 0.02446 0.52821 0.0807 0.0
O177 O 0.98965 0.5 0.10581 0.0
C178 C 0.01132 0.53864 0.98621 0.0
C179 C 0.007 0.52419 0.10327 0.0
C180 C 0.19992 0.17203 0.27448 0.0
C181 C 0.22973 0.18508 0.27449 0.0
C182 C 0.18553 0.15948 0.29894 0.0
C183 C 0.15505 0.14597 0.35652 0.0
H184 H 0.19927 0.09829 0.4005 0.0
C185 C 0.09793 0.08191 0.45164 0.0
C186 C 0.10474 0.05249 0.45384 0.0
C187 C 0.11525 0.10159 0.43343 0.0
C188 C 0.18657 0.11144 0.3884 0.0
H189 H 0.26756 0.19614 0.3004 0.0
H190 H 0.24226 0.17462 0.34339 0.0
H191 H 0.22474 0.1261 0.36116 0.0
H192 H 0.13488 0.02035 0.43856 0.0
H193 H 0.16458 0.05421 0.40596 0.0
H194 H 0.11656 0.13004 0.38263 0.0
C195 C 0.23018 0.17354 0.32428 0.0
C196 C 0.20127 0.12774 0.36605 0.0
C197 C 0.24465 0.18594 0.29971 0.0
C198 C 0.12932 0.04307 0.43752 0.0
C199 C 0.14649 0.0626 0.41903 0.0
C200 C 0.14032 0.12953 0.3787 0.0
C201 C 0.20053 0.15985 0.3241 0.0
C202 C 0.18557 0.14479 0.34951 0.0
C203 C 0.13942 0.092 0.41645 0.0
C204 C 0.15578 0.11166 0.39465 0.0
H205 H 0.188 0.17058 0.25525 0.0
H206 H 0.16291 0.14862 0.2978 0.0
H207 H 0.14236 0.15926 0.34455 0.0
H208 H 0.07832 0.08924 0.46295 0.0
H209 H 0.10923 0.1241 0.43219 0.0
C210 C 0.3568 0.81096 0.81317 0.0
C211 C 0.34294 0.828 0.79489 0.0
C212 C 0.37087 0.8247 0.83685 0.0
C213 C 0.37185 0.8882 0.88812 0.0
H214 H 0.4568 0.88518 0.89007 0.0
C215 C 0.44497 0.97433 0.9554 0.0
C216 C 0.47169 0.96709 0.96508 0.0
C217 C 0.42739 0.95367 0.93857 0.0
C218 C 0.43297 0.88575 0.89043 0.0
H219 H 0.33299 0.87314 0.78792 0.0
H220 H 0.35616 0.89654 0.82998 0.0
H221 H 0.42911 0.85566 0.85348 0.0
H222 H 0.50091 0.93234 0.96449 0.0
H223 H 0.46923 0.8953 0.93688 0.0
H224 H 0.37522 0.91771 0.9252 0.0
C225 C 0.35625 0.87256 0.82564 0.0
C226 C 0.41718 0.86894 0.86927 0.0
C227 C 0.34278 0.85901 0.80161 0.0
C228 C 0.47995 0.93825 0.95828 0.0
C229 C 0.46206 0.91726 0.9418 0.0
C230 C 0.38746 0.90449 0.90965 0.0
C231 C 0.37075 0.85562 0.84324 0.0
C232 C 0.38666 0.87063 0.86752 0.0
C233 C 0.43583 0.92493 0.93113 0.0
C234 C 0.41845 0.90424 0.91066 0.0
H235 H 0.35686 0.78694 0.80927 0.0
H236 H 0.38175 0.81115 0.85027 0.0
H237 H 0.34822 0.88956 0.88737 0.0
H238 H 0.43805 0.99647 0.96005 0.0
H239 H 0.40783 0.96089 0.93043 0.0
C240 C 0.7005 0.36275 0.71006 0.0
C241 C 0.68411 0.33785 0.72292 0.0
C242 C 0.68899 0.37631 0.68793 0.0
C243 C 0.61771 0.38577 0.65869 0.0
H244 H 0.66826 0.41692 0.59461 0.0
C245 C 0.57086 0.45042 0.57321 0.0
C246 C 0.58816 0.47748 0.56612 0.0
C247 C 0.58282 0.42917 0.58822 0.0
C248 C 0.65386 0.40842 0.61241 0.0
H249 H 0.64328 0.3072 0.72241 0.0
H250 H 0.62318 0.33078 0.68369 0.0
H251 H 0.68883 0.38809 0.62926 0.0
H252 H 0.63173 0.50319 0.56845 0.0
H253 H 0.65246 0.46652 0.59492 0.0
H254 H 0.58297 0.40672 0.64237 0.0
C255 C 0.64474 0.34005 0.69086 0.0
C256 C 0.66567 0.39194 0.63229 0.0
C257 C 0.65629 0.32647 0.71293 0.0
C258 C 0.6179 0.48246 0.57352 0.0
C259 C 0.62985 0.4613 0.58852 0.0
C260 C 0.60593 0.40227 0.63886 0.0
C261 C 0.66084 0.36529 0.67825 0.0
C262 C 0.64785 0.38084 0.65591 0.0
C263 C 0.61227 0.43469 0.59661 0.0
C264 C 0.62398 0.41424 0.61573 0.0
H265 H 0.72204 0.37203 0.71727 0.0
H266 H 0.70181 0.39594 0.67892 0.0
H267 H 0.60346 0.37786 0.67682 0.0
H268 H 0.54768 0.44625 0.56832 0.0
H269 H 0.56876 0.40877 0.59388 0.0
C270 C 0.8686 0.70597 0.2236 0.0
C271 C 0.88103 0.73022 0.24078 0.0
C272 C 0.88643 0.68493 0.21107 0.0
C273 C 0.96445 0.67217 0.19105 0.0
H274 H 0.93004 0.58857 0.18967 0.0
C275 C 0.99149 0.54348 0.15206 0.0
C276 C 0.00381 0.54931 0.12448 0.0
C277 C 0.98216 0.56676 0.17012 0.0
C278 C 0.94031 0.61171 0.19029 0.0
H279 H 0.92181 0.75199 0.25778 0.0
H280 H 0.95303 0.71499 0.23607 0.0
H281 H 0.90191 0.62675 0.21284 0.0
H282 H 0.01754 0.58437 0.09478 0.0
H283 H 0.00109 0.62483 0.12602 0.0
H284 H 0.003 0.65693 0.16856 0.0
C285 C 0.92959 0.71236 0.23209 0.0
C286 C 0.92391 0.6337 0.20317 0.0
C287 C 0.91173 0.73347 0.24458 0.0
C288 C 0.0086 0.57918 0.11606 0.0
C289 C 0.99905 0.60244 0.13403 0.0
C290 C 0.98096 0.65008 0.17818 0.0
C291 C 0.91704 0.6876 0.21551 0.0
C292 C 0.9355 0.66425 0.20325 0.0
C293 C 0.98457 0.59629 0.16081 0.0
C294 C 0.96889 0.61961 0.17728 0.0
H295 H 0.84505 0.70298 0.22006 0.0
H296 H 0.87617 0.6665 0.1979 0.0
H297 H 0.97402 0.69552 0.19069 0.0
H298 H 0.98775 0.52069 0.1592 0.0
H299 H 0.9718 0.56136 0.1909 0.0
C300 C 0.33818 0.20206 0.18587 0.0
C301 C 0.31631 0.1845 0.20243 0.0
C302 C 0.36397 0.19025 0.17471 0.0
C303 C 0.39108 0.11687 0.1555 0.0
H304 H 0.46709 0.1658 0.1425 0.0
C305 C 0.48883 0.06673 0.09533 0.0
C306 C 0.50093 0.0833 0.07198 0.0
C307 C 0.47122 0.07988 0.11691 0.0
C308 C 0.44601 0.15186 0.14612 0.0
H309 H 0.30495 0.14078 0.22063 0.0
H310 H 0.35028 0.12085 0.20238 0.0
H311 H 0.4262 0.18733 0.16974 0.0
H312 H 0.50551 0.12693 0.05353 0.0
H313 H 0.47468 0.14991 0.09111 0.0
H314 H 0.41062 0.08162 0.13153 0.0
C315 C 0.34726 0.14354 0.19744 0.0
C316 C 0.42254 0.16421 0.16157 0.0
C317 C 0.32138 0.1552 0.2083 0.0
C318 C 0.49651 0.11371 0.07138 0.0
C319 C 0.47902 0.1269 0.09299 0.0
C320 C 0.41456 0.10451 0.14031 0.0
C321 C 0.36863 0.16066 0.18002 0.0
C322 C 0.39459 0.14702 0.16598 0.0
C323 C 0.46532 0.10981 0.11545 0.0
C324 C 0.4421 0.122 0.13498 0.0
H325 H 0.33526 0.22486 0.18123 0.0
H326 H 0.37976 0.20403 0.16116 0.0
H327 H 0.36978 0.10307 0.15793 0.0
H328 H 0.49141 0.0431 0.09607 0.0
H329 H 0.46114 0.06624 0.13409 0.0
C330 C 0.20868 0.80995 0.66917 0.0
C331 C 0.22685 0.82548 0.68939 0.0
C332 C 0.18844 0.82462 0.65576 0.0
C333 C 0.14756 0.89151 0.66056 0.0
H334 H 0.14491 0.87564 0.57909 0.0
C335 C 0.08685 0.96049 0.58606 0.0
C336 C 0.07413 0.9448 0.5624 0.0
C337 C 0.10279 0.94577 0.60434 0.0
C338 C 0.14492 0.88002 0.60191 0.0
H339 H 0.23764 0.86853 0.71196 0.0
H340 H 0.20227 0.89428 0.68836 0.0
H341 H 0.17805 0.85063 0.60537 0.0
H342 H 0.06627 0.90108 0.54046 0.0
H343 H 0.09318 0.87532 0.57254 0.0
H344 H 0.11431 0.92108 0.65688 0.0
C345 C 0.20356 0.87065 0.68302 0.0
C346 C 0.16404 0.86568 0.61699 0.0
C347 C 0.22395 0.85593 0.69642 0.0
C348 C 0.07611 0.91383 0.55835 0.0
C349 C 0.09175 0.89913 0.57664 0.0
C350 C 0.12823 0.90586 0.64541 0.0
C351 C 0.18584 0.85523 0.66225 0.0
C352 C 0.16552 0.87106 0.64651 0.0
C353 C 0.10624 0.91509 0.59925 0.0
C354 C 0.12653 0.90009 0.61589 0.0
H355 H 0.21035 0.78643 0.66347 0.0
H356 H 0.17481 0.81194 0.6402 0.0
H357 H 0.14806 0.89602 0.68333 0.0
H358 H 0.08589 0.98445 0.58955 0.0
H359 H 0.11369 0.9588 0.6215 0.0
C360 C 0.78647 0.38278 0.84443 0.0
C361 C 0.7905 0.35252 0.83761 0.0
C362 C 0.80514 0.4004 0.86291 0.0
C363 C 0.85019 0.39133 0.92224 0.0
H364 H 0.88506 0.47367 0.91125 0.0
C365 C 0.94784 0.47699 0.9739 0.0
C366 C 0.9401 0.47252 0.00289 0.0
C367 C 0.92762 0.46698 0.95332 0.0
C368 C 0.87537 0.45071 0.91457 0.0
H369 H 0.81861 0.31776 0.84325 0.0
H370 H 0.85082 0.34832 0.87568 0.0
H371 H 0.85504 0.44638 0.87451 0.0
H372 H 0.9045 0.45568 0.03313 0.0
H373 H 0.8693 0.4382 0.99726 0.0
H374 H 0.87055 0.39526 0.96196 0.0
C375 C 0.83294 0.35826 0.86711 0.0
C376 C 0.85814 0.43518 0.89366 0.0
C377 C 0.81447 0.34076 0.84857 0.0
C378 C 0.91121 0.45929 0.01096 0.0
C379 C 0.89108 0.4492 0.99042 0.0
C380 C 0.86705 0.40687 0.94317 0.0
C381 C 0.82806 0.38802 0.87501 0.0
C382 C 0.8457 0.40519 0.89718 0.0
C383 C 0.8994 0.45205 0.96133 0.0
C384 C 0.88 0.43666 0.93954 0.0
H385 H 0.76809 0.39247 0.83653 0.0
H386 H 0.80082 0.42325 0.86873 0.0
H387 H 0.84056 0.36838 0.92571 0.0
H388 H 0.97011 0.48635 0.96688 0.0
H389 H 0.93478 0.46924 0.93106 0.0
C390 C 0.73463 0.70364 0.31676 0.0
C391 C 0.7353 0.735 0.31511 0.0
C392 C 0.71014 0.68668 0.33014 0.0
C393 C 0.65875 0.69512 0.38975 0.0
H394 H 0.61726 0.61831 0.36486 0.0
C395 C 0.58022 0.62753 0.46905 0.0
C396 C 0.58059 0.59632 0.46769 0.0
C397 C 0.59291 0.64469 0.44654 0.0
C398 C 0.62883 0.63958 0.37227 0.0
H399 H 0.70949 0.77252 0.32414 0.0
H400 H 0.66736 0.74299 0.34859 0.0
H401 H 0.65131 0.64744 0.3312 0.0
H402 H 0.59337 0.55809 0.4418 0.0
H403 H 0.61745 0.58811 0.40309 0.0
H404 H 0.63866 0.68683 0.4311 0.0
C405 C 0.68585 0.7317 0.33941 0.0
C406 C 0.64809 0.65632 0.35289 0.0
C407 C 0.71008 0.74859 0.32564 0.0
C408 C 0.593 0.58225 0.44319 0.0
C409 C 0.6065 0.59951 0.42093 0.0
C410 C 0.64014 0.6782 0.40922 0.0
C411 C 0.68605 0.70077 0.34244 0.0
C412 C 0.66334 0.68413 0.36159 0.0
C413 C 0.60727 0.6311 0.42261 0.0
C414 C 0.62507 0.65002 0.4009 0.0
H415 H 0.7537 0.69238 0.30926 0.0
H416 H 0.71092 0.66289 0.33249 0.0
H417 H 0.6707 0.71626 0.3971 0.0
H418 H 0.57026 0.63869 0.48766 0.0
H419 H 0.59201 0.66874 0.44829 0.0
C420 C 0.19199 0.26597 0.14954 0.0
C421 C 0.2232 0.27189 0.1464 0.0
C422 C 0.17412 0.282 0.13457 0.0
C423 C 0.17454 0.35437 0.1026 0.0
H424 H 0.10261 0.31615 0.0695 0.0
C425 C 0.0948 0.42498 0.0541 0.0
C426 C 0.06433 0.41721 0.06141 0.0
C427 C 0.11552 0.40546 0.05895 0.0
C428 C 0.12253 0.32721 0.07877 0.0
H429 H 0.2602 0.29857 0.12473 0.0
H430 H 0.22889 0.32693 0.09869 0.0
H431 H 0.13647 0.28525 0.08875 0.0
H432 H 0.03166 0.38254 0.079 0.0
H433 H 0.06771 0.34893 0.08824 0.0
H434 H 0.1602 0.39634 0.09379 0.0
C435 C 0.2183 0.30995 0.1128 0.0
C436 C 0.14194 0.30948 0.08973 0.0
C437 C 0.23619 0.2937 0.12759 0.0
C438 C 0.05496 0.38915 0.07301 0.0
C439 C 0.07567 0.36975 0.07808 0.0
C440 C 0.15504 0.37211 0.09184 0.0
C441 C 0.18706 0.30442 0.1163 0.0
C442 C 0.1679 0.32291 0.10218 0.0
C443 C 0.1063 0.37789 0.07164 0.0
C444 C 0.12851 0.35879 0.08022 0.0
H445 H 0.18129 0.24918 0.16376 0.0
H446 H 0.15013 0.27744 0.13795 0.0
H447 H 0.1942 0.3654 0.11236 0.0
H448 H 0.10291 0.4467 0.04581 0.0
H449 H 0.13886 0.41234 0.0534 0.0
C450 C 0.74593 0.2352 0.83441 0.0
C451 C 0.72615 0.25433 0.82599 0.0
C452 C 0.73512 0.20774 0.84629 0.0
C453 C 0.66602 0.1538 0.8561 0.0
H454 H 0.70373 0.13112 0.9216 0.0
C455 C 0.62809 0.08545 0.96236 0.0
C456 C 0.60675 0.06401 0.95048 0.0
C457 C 0.64876 0.10276 0.94467 0.0
C458 C 0.69287 0.13711 0.90337 0.0
H459 H 0.67959 0.25978 0.82343 0.0
H460 H 0.66069 0.21242 0.84458 0.0
H461 H 0.72638 0.17415 0.89516 0.0
H462 H 0.59164 0.04147 0.9115 0.0
H463 H 0.62891 0.07012 0.88057 0.0
H464 H 0.63139 0.11848 0.86535 0.0
C465 C 0.68458 0.21802 0.84136 0.0
C466 C 0.70609 0.16161 0.88794 0.0
C467 C 0.69539 0.24528 0.82928 0.0
C468 C 0.608 0.05802 0.92099 0.0
C469 C 0.62909 0.07475 0.90334 0.0
C470 C 0.65263 0.12963 0.87169 0.0
C471 C 0.70427 0.19894 0.85021 0.0
C472 C 0.69239 0.17075 0.86454 0.0
C473 C 0.6486 0.09857 0.91482 0.0
C474 C 0.66548 0.12132 0.89596 0.0
H475 H 0.76979 0.24152 0.83189 0.0
H476 H 0.75095 0.19347 0.85247 0.0
H477 H 0.65516 0.1597 0.83783 0.0
H478 H 0.62718 0.09056 0.98511 0.0
H479 H 0.6632 0.12091 0.95444 0.0
C480 C 0.82216 0.85203 0.31637 0.0
C481 C 0.80986 0.82558 0.32949 0.0
C482 C 0.83433 0.87697 0.33269 0.0
C483 C 0.84276 0.90662 0.40822 0.0
H484 H 0.919 0.94371 0.37683 0.0
C485 C 0.94499 0.94487 0.47114 0.0
C486 C 0.9627 0.97173 0.46451 0.0
C487 C 0.91972 0.93526 0.4563 0.0
C488 C 0.89743 0.93412 0.3857 0.0
H489 H 0.80016 0.80449 0.36984 0.0
H490 H 0.82221 0.84724 0.39817 0.0
H491 H 0.88683 0.91068 0.34644 0.0
H492 H 0.9679 0.01034 0.43828 0.0
H493 H 0.92396 0.99286 0.41132 0.0
H494 H 0.85494 0.92828 0.44815 0.0
C495 C 0.82168 0.84945 0.37548 0.0
C496 C 0.87887 0.91516 0.36826 0.0
C497 C 0.80916 0.82477 0.35923 0.0
C498 C 0.95431 0.98956 0.44366 0.0
C499 C 0.92932 0.97962 0.42835 0.0
C500 C 0.8616 0.92518 0.42576 0.0
C501 C 0.83492 0.87574 0.36243 0.0
C502 C 0.85176 0.90026 0.37953 0.0
C503 C 0.91223 0.95202 0.43415 0.0
C504 C 0.8895 0.93829 0.41482 0.0
H505 H 0.8227 0.85326 0.29346 0.0
H506 H 0.84382 0.89697 0.32191 0.0
H507 H 0.8217 0.89624 0.41748 0.0
H508 H 0.95131 0.93082 0.4871 0.0
H509 H 0.90715 0.91372 0.46092 0.0
C510 C 0.37714 0.75295 0.71057 0.0
C511 C 0.34614 0.75373 0.71057 0.0
C512 C 0.39064 0.7297 0.69594 0.0
C513 C 0.38964 0.68015 0.63505 0.0
H514 H 0.42866 0.62642 0.6775 0.0
C515 C 0.45506 0.58949 0.57671 0.0
C516 C 0.48134 0.58395 0.58848 0.0
C517 C 0.43478 0.6063 0.59224 0.0
C518 C 0.41825 0.6414 0.66519 0.0
H519 H 0.30529 0.73026 0.6946 0.0
H520 H 0.32941 0.69063 0.66778 0.0
H521 H 0.40147 0.66453 0.70287 0.0
H522 H 0.50733 0.59228 0.62552 0.0
H523 H 0.47318 0.62281 0.65193 0.0
H524 H 0.40781 0.65871 0.59733 0.0
C525 C 0.34291 0.70797 0.67965 0.0
C526 C 0.40246 0.66303 0.67981 0.0
C527 C 0.32922 0.73085 0.69485 0.0
C528 C 0.48702 0.59575 0.61603 0.0
C529 C 0.46715 0.61306 0.63131 0.0
C530 C 0.40601 0.65896 0.62034 0.0
C531 C 0.37366 0.70708 0.68036 0.0
C532 C 0.38832 0.68275 0.66486 0.0
C533 C 0.44081 0.61888 0.61959 0.0
C534 C 0.42096 0.63952 0.63519 0.0
H535 H 0.3912 0.77044 0.72163 0.0
H536 H 0.4145 0.72961 0.69645 0.0
H537 H 0.37899 0.69531 0.62312 0.0
H538 H 0.45074 0.58192 0.55507 0.0
H539 H 0.41468 0.60989 0.58247 0.0
C540 C 0.93862 0.86939 0.79839 0.0
C541 C 0.90773 0.87096 0.80164 0.0
C542 C 0.95566 0.88218 0.77523 0.0
C543 C 0.98198 0.89986 0.71502 0.0
H544 H 0.96602 0.98072 0.70149 0.0
C545 C 0.0156 0.96332 0.6113 0.0
C546 C 0.02263 0.99471 0.61418 0.0
C547 C 0.00791 0.94648 0.6354 0.0
C548 C 0.97109 0.95832 0.70519 0.0
H549 H 0.87028 0.88549 0.78218 0.0
H550 H 0.90004 0.9082 0.74218 0.0
H551 H 0.93876 0.95386 0.74038 0.0
H552 H 0.02976 0.03276 0.64434 0.0
H553 H 0.0166 0.00341 0.68634 0.0
H554 H 0.0141 0.90438 0.67928 0.0
C555 C 0.91111 0.89744 0.75773 0.0
C556 C 0.95517 0.9428 0.72724 0.0
C557 C 0.8941 0.88453 0.78068 0.0
C558 C 0.02411 0.00862 0.64153 0.0
C559 C 0.01652 0.99185 0.66554 0.0
C560 C 0.9978 0.91536 0.69262 0.0
C561 C 0.94211 0.89692 0.75507 0.0
C562 C 0.96018 0.91333 0.7322 0.0
C563 C 0.00703 0.96086 0.66267 0.0
C564 C 0.99237 0.94473 0.68746 0.0
H565 H 0.94983 0.8593 0.81427 0.0
H566 H 0.97954 0.88161 0.77371 0.0
H567 H 0.98621 0.87711 0.71844 0.0
H568 H 0.01395 0.95208 0.59044 0.0
H569 H 1.00057 0.92265 0.63253 0.0
C570 C 0.60685 0.10523 0.32744 0.0
C571 C 0.61575 0.13611 0.33217 0.0
C572 C 0.59528 0.09416 0.30173 0.0
C573 C 0.56488 0.11609 0.23542 0.0
H574 H 0.59184 0.04101 0.20573 0.0
C575 C 0.5558 0.06546 0.11839 0.0
C576 C 0.54963 0.03397 0.11549 0.0
C577 C 0.55905 0.07976 0.14545 0.0
C578 C 0.58375 0.0618 0.21385 0.0
H579 H 0.61878 0.17978 0.314 0.0
H580 H 0.59919 0.16039 0.26863 0.0
H581 H 0.60734 0.06231 0.25143 0.0
H582 H 0.53969 0.99306 0.13847 0.0
H583 H 0.54498 0.01786 0.18539 0.0
H584 H 0.54191 0.11562 0.19697 0.0
C585 C 0.60066 0.14473 0.285 0.0
C586 C 0.5926 0.07403 0.24017 0.0
C587 C 0.61198 0.15586 0.31094 0.0
C588 C 0.54471 0.01734 0.14008 0.0
C589 C 0.54788 0.03153 0.16693 0.0
C590 C 0.55615 0.10387 0.2088 0.0
C591 C 0.59267 0.11364 0.27987 0.0
C592 C 0.58309 0.10117 0.25152 0.0
C593 C 0.55633 0.06271 0.16987 0.0
C594 C 0.56527 0.0764 0.19791 0.0
H595 H 0.60897 0.08955 0.34363 0.0
H596 H 0.58862 0.07019 0.29891 0.0
H597 H 0.55701 0.13696 0.24354 0.0
H598 H 0.55997 0.07877 0.09974 0.0
H599 H 0.56555 0.10384 0.14706 0.0
C600 C 0.4641 0.67216 0.25249 0.0
C601 C 0.43381 0.66271 0.24901 0.0
C602 C 0.47972 0.65798 0.2713 0.0
C603 C 0.50203 0.63606 0.32506 0.0
H604 H 0.48193 0.55047 0.33427 0.0
C605 C 0.52109 0.57696 0.42627 0.0
C606 C 0.52318 0.54595 0.42431 0.0
C607 C 0.51847 0.59238 0.40178 0.0
C608 C 0.48844 0.57427 0.33168 0.0
H609 H 0.39596 0.63113 0.26256 0.0
H610 H 0.42287 0.60685 0.2958 0.0
H611 H 0.46036 0.57422 0.29718 0.0
H612 H 0.52708 0.50723 0.39539 0.0
H613 H 0.52378 0.53428 0.35248 0.0
H614 H 0.53036 0.63594 0.35954 0.0
C615 C 0.43488 0.62476 0.28357 0.0
C616 C 0.47555 0.58802 0.31065 0.0
C617 C 0.41934 0.63882 0.26466 0.0
C618 C 0.52529 0.53115 0.39738 0.0
C619 C 0.52313 0.54662 0.37288 0.0
C620 C 0.51515 0.62223 0.34603 0.0
C621 C 0.46528 0.6341 0.2871 0.0
C622 C 0.48152 0.6192 0.30757 0.0
C623 C 0.518 0.57702 0.3749 0.0
C624 C 0.50797 0.59125 0.35005 0.0
H625 H 0.47575 0.6905 0.24055 0.0
H626 H 0.50315 0.66555 0.27325 0.0
H627 H 0.50709 0.66016 0.32333 0.0
H628 H 0.519 0.58877 0.44685 0.0
H629 H 0.51444 0.61572 0.40428 0.0
C630 C 0.11986 0.39805 0.78232 0.0
C631 C 0.13958 0.38005 0.76756 0.0
C632 C 0.11414 0.39627 0.81163 0.0
C633 C 0.1493 0.38225 0.87485 0.0
H634 H 0.07035 0.3897 0.90978 0.0
C635 C 0.08115 0.42665 0.98394 0.0
C636 C 0.09812 0.45502 0.9862 0.0
C637 C 0.08926 0.40515 0.96316 0.0
C638 C 0.0925 0.38681 0.90069 0.0
H639 H 0.16868 0.34577 0.77161 0.0
H640 H 0.15914 0.34317 0.82335 0.0
H641 H 0.07627 0.37483 0.85958 0.0
H642 H 0.13884 0.48166 0.97124 0.0
H643 H 0.15276 0.44455 0.93492 0.0
H644 H 0.16568 0.39597 0.91568 0.0
C645 C 0.14786 0.35836 0.81206 0.0
C646 C 0.09587 0.37861 0.8718 0.0
C647 C 0.15323 0.35981 0.78253 0.0
C648 C 0.12515 0.46009 0.96975 0.0
C649 C 0.13326 0.43864 0.94903 0.0
C650 C 0.14595 0.3906 0.90382 0.0
C651 C 0.12835 0.37671 0.82687 0.0
C652 C 0.12438 0.37772 0.85832 0.0
C653 C 0.1144 0.41173 0.94432 0.0
C654 C 0.11762 0.39441 0.91671 0.0
H655 H 0.10916 0.41387 0.77122 0.0
H656 H 0.09942 0.41108 0.82256 0.0
H657 H 0.17156 0.38167 0.86497 0.0
H658 H 0.06022 0.42201 0.99632 0.0
H659 H 0.07457 0.38437 0.96037 0.0
C660 C 0.80875 0.89722 0.86357 0.0
C661 C 0.82935 0.8855 0.87946 0.0
C662 C 0.78849 0.91553 0.87683 0.0
C663 C 0.75399 0.9347 0.94804 0.0
H664 H 0.72823 1.00048 0.90976 0.0
C665 C 0.67324 0.00619 0.00679 0.0
C666 C 0.64685 0.00647 0.99298 0.0
C667 C 0.69903 0.99883 0.99156 0.0
C668 C 0.73532 0.98222 0.92066 0.0
H669 H 0.84557 0.88436 0.92143 0.0
H670 H 0.81078 0.91682 0.94455 0.0
H671 H 0.7663 0.97161 0.88622 0.0
H672 H 0.62741 0.00234 0.95208 0.0
H673 H 0.67271 0.98936 0.92529 0.0
H674 H 0.72313 0.94512 0.98237 0.0
C675 C 0.80957 0.91126 0.92199 0.0
C676 C 0.75695 0.96554 0.90717 0.0
C677 C 0.82955 0.89266 0.90879 0.0
C678 C 0.64755 0.00252 0.96319 0.0
C679 C 0.67346 0.99495 0.94789 0.0
C680 C 0.73273 0.9515 0.96156 0.0
C681 C 0.78862 0.92278 0.90624 0.0
C682 C 0.76642 0.94143 0.92066 0.0
C683 C 0.69886 0.99134 0.96226 0.0
C684 C 0.72306 0.97536 0.94805 0.0
H685 H 0.80807 0.8919 0.84092 0.0
H686 H 0.77239 0.92352 0.86409 0.0
H687 H 0.76007 0.9159 0.95886 0.0
H688 H 0.67332 0.00945 0.02973 0.0
H689 H 0.71852 0.9969 0.00307 0.0
C690 C 0.74429 0.10189 0.41379 0.0
C691 C 0.72526 0.11242 0.43595 0.0
C692 C 0.76964 0.0891 0.41986 0.0
C693 C 0.80486 0.05528 0.4769 0.0
H694 H 0.879 0.08636 0.43686 0.0
C695 C 0.93523 0.07602 0.49962 0.0
C696 C 0.94147 0.0476 0.50677 0.0
C697 C 0.90882 0.07924 0.48731 0.0
C698 C 0.85843 0.07725 0.44803 0.0
H699 H 0.71741 0.11729 0.48168 0.0
H700 H 0.76171 0.09496 0.49234 0.0
H701 H 0.83201 0.10055 0.4229 0.0
H702 H 0.92491 1.00024 0.50718 0.0
H703 H 0.87806 0.00584 0.48562 0.0
H704 H 0.8316 0.03282 0.50267 0.0
C705 C 0.75694 0.09635 0.4703 0.0
C706 C 0.8315 0.08523 0.43994 0.0
C707 C 0.73172 0.10934 0.46423 0.0
C708 C 0.92076 0.0223 0.50136 0.0
C709 C 0.89395 0.02556 0.48931 0.0
C710 C 0.83184 0.04706 0.48482 0.0
C711 C 0.77638 0.08638 0.44819 0.0
C712 C 0.80447 0.07496 0.45474 0.0
C713 C 0.88776 0.05414 0.48222 0.0
C714 C 0.85895 0.05864 0.47095 0.0
H715 H 0.7399 0.1039 0.39175 0.0
H716 H 0.78408 0.08145 0.40237 0.0
H717 H 0.78435 0.04675 0.4885 0.0
H718 H 0.95084 0.0959 0.50364 0.0
H719 H 0.9045 0.10158 0.48248 0.0
C720 C 0.27674 0.64807 0.18896 0.0
C721 C 0.29029 0.67769 0.18543 0.0
C722 C 0.24643 0.64042 0.18469 0.0
C723 C 0.19344 0.66241 0.13919 0.0
H724 H 0.13537 0.60663 0.17967 0.0
C725 C 0.09049 0.61332 0.08371 0.0
C726 C 0.08274 0.58228 0.08592 0.0
C727 C 0.10855 0.62963 0.10337 0.0
C728 C 0.15135 0.62211 0.168 0.0
H729 H 0.2821 0.72309 0.1776 0.0
H730 H 0.22943 0.70958 0.16962 0.0
H731 H 0.18205 0.6258 0.2011 0.0
H732 H 0.08555 0.54417 0.11134 0.0
H733 H 0.1187 0.57196 0.14458 0.0
H734 H 0.16468 0.65731 0.1052 0.0
C735 C 0.24229 0.69226 0.17536 0.0
C736 C 0.17798 0.63318 0.1804 0.0
C737 C 0.27245 0.69992 0.17977 0.0
C738 C 0.09129 0.56819 0.10931 0.0
C739 C 0.11024 0.58427 0.12845 0.0
C740 C 0.16726 0.65098 0.12661 0.0
C741 C 0.22926 0.66225 0.17674 0.0
C742 C 0.19944 0.6531 0.16587 0.0
C743 C 0.12033 0.61494 0.12489 0.0
C744 C 0.14597 0.63024 0.14054 0.0
H745 H 0.2899 0.63043 0.19322 0.0
H746 H 0.23698 0.61707 0.18569 0.0
H747 H 0.20981 0.67731 0.12725 0.0
H748 H 0.08373 0.62468 0.06599 0.0
H749 H 0.11467 0.65345 0.1006 0.0
C750 C 0.21079 0.44635 0.62626 0.0
C751 C 0.21621 0.43124 0.65026 0.0
C752 C 0.23134 0.46989 0.61637 0.0
C753 C 0.30461 0.51548 0.63034 0.0
H754 H 0.32062 0.49647 0.55001 0.0
C755 C 0.42158 0.52093 0.57424 0.0
C756 C 0.4247 0.52437 0.54478 0.0
C757 C 0.39378 0.52203 0.58893 0.0
C758 C 0.31629 0.50291 0.57225 0.0
H759 H 0.24587 0.43019 0.68411 0.0
H760 H 0.28234 0.47039 0.66636 0.0
H761 H 0.27409 0.47626 0.57325 0.0
H762 H 0.40262 0.53455 0.50791 0.0
H763 H 0.35435 0.53748 0.53359 0.0
H764 H 0.34807 0.54073 0.6293 0.0
C765 C 0.26202 0.4648 0.65543 0.0
C766 C 0.28936 0.49125 0.58568 0.0
C767 C 0.2412 0.4416 0.66557 0.0
C768 C 0.40048 0.5314 0.53061 0.0
C769 C 0.37291 0.53302 0.54532 0.0
C770 C 0.33175 0.52717 0.61682 0.0
C771 C 0.25802 0.47823 0.62993 0.0
C772 C 0.28357 0.49643 0.6151 0.0
C773 C 0.36884 0.52677 0.57431 0.0
C774 C 0.33827 0.5201 0.5878 0.0
H775 H 0.1914 0.43895 0.61435 0.0
H776 H 0.22718 0.48029 0.59709 0.0
H777 H 0.30065 0.5203 0.65295 0.0
H778 H 0.44009 0.51553 0.58553 0.0
H779 H 0.39145 0.51696 0.61121 0.0
C780 C 0.94439 0.7482 0.88707 0.0
C781 C 0.91555 0.7551 0.88384 0.0
C782 C 0.94894 0.7198 0.89525 0.0
C783 C 0.91105 0.65103 0.92848 0.0
H784 H 0.984 0.62039 0.89909 0.0
C785 C 0.96623 0.56473 0.98582 0.0
C786 C 0.98813 0.54961 0.97074 0.0
C787 C 0.95031 0.5836 0.97174 0.0
C788 C 0.96308 0.62792 0.90713 0.0
H789 H 0.86866 0.73777 0.88645 0.0
H790 H 0.87661 0.68762 0.90006 0.0
H791 H 0.97053 0.6656 0.8808 0.0
H792 H 0.00821 0.53899 0.92905 0.0
H793 H 0.97875 0.56973 0.90398 0.0
H794 H 0.90328 0.61273 0.95434 0.0
C795 C 0.89574 0.70438 0.89685 0.0
C796 C 0.95567 0.65445 0.89699 0.0
C797 C 0.89117 0.73306 0.88896 0.0
C798 C 0.99152 0.55073 0.94107 0.0
C799 C 0.97493 0.56874 0.92685 0.0
C800 C 0.91822 0.62407 0.93835 0.0
C801 C 0.92475 0.69734 0.89993 0.0
C802 C 0.93016 0.66698 0.90823 0.0
C803 C 0.95562 0.58707 0.94221 0.0
C804 C 0.94486 0.61261 0.92845 0.0
H805 H 0.96352 0.76489 0.88342 0.0
H806 H 0.97153 0.7156 0.89815 0.0
H807 H 0.89116 0.65994 0.93762 0.0
H808 H 0.96347 0.56429 0.00881 0.0
H809 H 0.93578 0.59723 0.98449 0.0
C810 C 0.37471 0.72549 0.11046 0.0
C811 C 0.38445 0.72779 0.13829 0.0
C812 C 0.38895 0.74419 0.08957 0.0
C813 C 0.45984 0.79085 0.07229 0.0
H814 H 0.41388 0.83703 0.02848 0.0
C815 C 0.47958 0.91278 0.02506 0.0
C816 C 0.50993 0.91277 0.01687 0.0
C817 C 0.46166 0.88561 0.02992 0.0
C818 C 0.42702 0.82412 0.04038 0.0
H819 H 0.41646 0.75196 0.166 0.0
H820 H 0.44148 0.78406 0.1296 0.0
H821 H 0.38822 0.79798 0.05877 0.0
H822 H 0.5446 0.88487 0.00364 0.0
H823 H 0.51308 0.8374 0.01072 0.0
H824 H 0.49843 0.81779 0.05569 0.0
C825 C 0.42309 0.76754 0.12382 0.0
C826 C 0.41234 0.80164 0.05755 0.0
C827 C 0.40877 0.7491 0.14468 0.0
C828 C 0.52127 0.88532 0.01029 0.0
C829 C 0.50326 0.85821 0.01457 0.0
C830 C 0.47445 0.81317 0.05524 0.0
C831 C 0.41338 0.76529 0.09606 0.0
C832 C 0.42863 0.78556 0.07441 0.0
C833 C 0.47385 0.85811 0.02635 0.0
C834 C 0.45822 0.83074 0.03971 0.0
H835 H 0.35625 0.70906 0.10474 0.0
H836 H 0.38112 0.74191 0.06829 0.0
H837 H 0.47297 0.77848 0.08474 0.0
H838 H 0.47043 0.93377 0.03028 0.0
H839 H 0.43912 0.88646 0.03897 0.0
C840 C 0.16966 0.3304 0.59349 0.0
C841 C 0.17987 0.32557 0.62011 0.0
C842 C 0.16552 0.30669 0.57309 0.0
C843 C 0.13463 0.24752 0.5491 0.0
H844 H 0.18599 0.18437 0.53616 0.0
C845 C 0.11631 0.1136 0.53629 0.0
C846 C 0.09048 0.11081 0.52129 0.0
C847 C 0.13487 0.14088 0.53735 0.0
C848 C 0.1714 0.20181 0.53946 0.0
H849 H 0.19539 0.29272 0.6457 0.0
H850 H 0.18791 0.2512 0.61018 0.0
H851 H 0.2043 0.23178 0.56075 0.0
H852 H 0.06462 0.13297 0.49392 0.0
H853 H 0.09808 0.17998 0.49395 0.0
H854 H 0.10092 0.21728 0.53013 0.0
C855 C 0.18323 0.27331 0.60501 0.0
C856 C 0.18194 0.22896 0.55347 0.0
C857 C 0.1871 0.29694 0.62549 0.0
C858 C 0.08481 0.13457 0.50522 0.0
C859 C 0.10374 0.16161 0.50566 0.0
C860 C 0.12397 0.22034 0.53547 0.0
C861 C 0.17181 0.27779 0.57884 0.0
C862 C 0.16325 0.25164 0.55928 0.0
C863 C 0.12786 0.16578 0.5233 0.0
C864 C 0.1418 0.19665 0.53142 0.0
H865 H 0.16386 0.35226 0.58881 0.0
H866 H 0.15673 0.31076 0.55307 0.0
H867 H 0.1196 0.26446 0.55351 0.0
H868 H 0.12064 0.09565 0.54931 0.0
H869 H 0.15299 0.14311 0.55138 0.0
C870 C 0.64491 0.23311 0.42596 0.0
C871 C 0.62428 0.20912 0.41678 0.0
C872 C 0.63515 0.25854 0.44057 0.0
C873 C 0.56761 0.29804 0.45181 0.0
H874 H 0.61134 0.34426 0.5107 0.0
C875 C 0.51838 0.39568 0.51126 0.0
C876 C 0.53666 0.42334 0.51074 0.0
C877 C 0.53048 0.36874 0.50522 0.0
C878 C 0.59898 0.33156 0.49425 0.0
H879 H 0.57742 0.19221 0.41691 0.0
H880 H 0.56035 0.23595 0.44301 0.0
H881 H 0.62942 0.29832 0.4891 0.0
H882 H 0.58223 0.44442 0.5056 0.0
H883 H 0.6036 0.39699 0.49509 0.0
H884 H 0.53718 0.33098 0.45693 0.0
C885 C 0.58404 0.23578 0.43817 0.0
C886 C 0.60936 0.30532 0.48177 0.0
C887 C 0.59379 0.21061 0.42328 0.0
C888 C 0.56767 0.42338 0.50639 0.0
C889 C 0.57986 0.39626 0.50029 0.0
C890 C 0.55716 0.32392 0.46443 0.0
C891 C 0.60452 0.26038 0.44657 0.0
C892 C 0.59373 0.28818 0.46039 0.0
C893 C 0.56115 0.36882 0.49834 0.0
C894 C 0.5726 0.34095 0.48584 0.0
H895 H 0.66857 0.23259 0.4211 0.0
H896 H 0.65158 0.2771 0.44638 0.0
H897 H 0.55539 0.28608 0.43489 0.0
H898 H 0.49441 0.39498 0.51474 0.0
H899 H 0.51558 0.3479 0.50448 0.0
loop_
_geom_bond_atom_site_label_1
_geom_bond_atom_site_label_2
_geom_bond_distance
_geom_bond_site_symmetry_2
_ccdc_geom_bond_type
H0 C5 0.930 . S
H1 C8 0.930 . S
H2 C10 0.930 . S
H3 C4 1.016 . S
C4 H3 1.016 . S
C4 N11 1.286 . S
C5 H0 0.930 . S
C5 C6 1.397 . S
C5 C7 1.361 . S
C6 C5 1.397 . S
C6 C10 1.390 . S
C7 C5 1.361 . S
C7 C8 1.393 . S
C7 N11 1.413 . S
C8 H1 0.930 . S
C8 C7 1.393 . S
C8 C9 1.399 . S
C9 C8 1.399 . S
C9 C10 1.381 . S
C10 H2 0.930 . S
C10 C6 1.390 . S
C10 C9 1.381 . S
N11 C4 1.286 . S
N11 C7 1.413 . S
H12 C17 0.930 . S
H13 C20 0.930 . S
H14 C22 0.930 . S
H15 C16 1.016 . S
C16 H15 1.016 . S
C16 N23 1.286 . S
C17 H12 0.930 . S
C17 C18 1.397 . S
C17 C19 1.361 . S
C18 C17 1.397 . S
C18 C22 1.390 . S
C19 C17 1.361 . S
C19 C20 1.393 . S
C19 N23 1.413 . S
C20 H13 0.930 . S
C20 C19 1.393 . S
C20 C21 1.399 . S
C21 C20 1.399 . S
C21 C22 1.381 . S
C22 H14 0.930 . S
C22 C18 1.390 . S
C22 C21 1.381 . S
N23 C16 1.286 . S
N23 C19 1.413 . S
H24 C29 0.930 . S
H25 C32 0.930 . S
H26 C34 0.930 . S
H27 C28 1.016 . S
C28 H27 1.016 . S
C28 N35 1.286 . S
C29 H24 0.930 . S
C29 C30 1.397 . S
C29 C31 1.361 . S
C30 C29 1.397 . S
C30 C34 1.390 . S
C31 C29 1.361 . S
C31 C32 1.393 . S
C31 N35 1.413 . S
C32 H25 0.930 . S
C32 C31 1.393 . S
C32 C33 1.399 . S
C33 C32 1.399 . S
C33 C34 1.381 . S
C34 H26 0.930 . S
C34 C30 1.390 . S
C34 C33 1.381 . S
N35 C28 1.286 . S
N35 C31 1.413 . S
H36 C41 0.930 . S
H37 C44 0.930 . S
H38 C46 0.930 . S
H39 C40 1.016 . S
C40 H39 1.016 . S
C40 N47 1.286 . S
C41 H36 0.930 . S
C41 C42 1.397 . S
C41 C43 1.361 . S
C42 C41 1.397 . S
C42 C46 1.390 . S
C43 C41 1.361 . S
C43 C44 1.393 . S
C43 N47 1.413 . S
C44 H37 0.930 . S
C44 C43 1.393 . S
C44 C45 1.399 . S
C45 C44 1.399 . S
C45 C46 1.381 . S
C46 H38 0.930 . S
C46 C42 1.390 . S
C46 C45 1.381 . S
N47 C40 1.286 . S
N47 C43 1.413 . S
H48 C53 0.930 . S
H49 C56 0.930 . S
H50 C58 0.930 . S
H51 C52 1.016 . S
C52 H51 1.016 . S
C52 N59 1.286 . S
C53 H48 0.930 . S
C53 C54 1.397 . S
C53 C55 1.361 . S
C54 C53 1.397 . S
C54 C58 1.390 . S
C55 C53 1.361 . S
C55 C56 1.393 . S
C55 N59 1.413 . S
C56 H49 0.930 . S
C56 C55 1.393 . S
C56 C57 1.399 . S
C57 C56 1.399 . S
C57 C58 1.381 . S
C58 H50 0.930 . S
C58 C54 1.390 . S
C58 C57 1.381 . S
N59 C52 1.286 . S
N59 C55 1.413 . S
H60 C65 0.930 . S
H61 C68 0.930 . S
H62 C70 0.930 . S
H63 C64 1.016 . S
C64 H63 1.016 . S
C64 N71 1.286 . S
C65 H60 0.930 . S
C65 C66 1.397 . S
C65 C67 1.361 . S
C66 C65 1.397 . S
C66 C70 1.390 . S
C67 C65 1.361 . S
C67 C68 1.393 . S
C67 N71 1.413 . S
C68 H61 0.930 . S
C68 C67 1.393 . S
C68 C69 1.399 . S
C69 C68 1.399 . S
C69 C70 1.381 . S
C70 H62 0.930 . S
C70 C66 1.390 . S
C70 C69 1.381 . S
N71 C64 1.286 . S
N71 C67 1.413 . S
H72 C77 0.930 . S
H73 C80 0.930 . S
H74 C82 0.930 . S
H75 C76 1.016 . S
C76 H75 1.016 . S
C76 N83 1.286 . S
C77 H72 0.930 . S
C77 C78 1.397 . S
C77 C79 1.361 . S
C78 C77 1.397 . S
C78 C82 1.390 . S
C79 C77 1.361 . S
C79 C80 1.393 . S
C79 N83 1.413 . S
C80 H73 0.930 . S
C80 C79 1.393 . S
C80 C81 1.399 . S
C81 C80 1.399 . S
C81 C82 1.381 . S
C82 H74 0.930 . S
C82 C78 1.390 . S
C82 C81 1.381 . S
N83 C76 1.286 . S
N83 C79 1.413 . S
H84 C89 0.930 . S
H85 C92 0.930 . S
H86 C94 0.930 . S
H87 C88 1.016 . S
C88 H87 1.016 . S
C88 N95 1.286 . S
C89 H84 0.930 . S
C89 C90 1.397 . S
C89 C91 1.361 . S
C90 C89 1.397 . S
C90 C94 1.390 . S
C91 C89 1.361 . S
C91 C92 1.393 . S
C91 N95 1.413 . S
C92 H85 0.930 . S
C92 C91 1.393 . S
C92 C93 1.399 . S
C93 C92 1.399 . S
C93 C94 1.381 . S
C94 H86 0.930 . S
C94 C90 1.390 . S
C94 C93 1.381 . S
N95 C88 1.286 . S
N95 C91 1.413 . S
Zn96 O102 1.920 . S
Zn96 O108 1.898 . S
Zn96 O111 1.905 . S
Zn97 O105 1.905 1_565 S
Zn97 O106 1.898 . S
Zn97 O114 1.920 . S
Zn98 O101 2.080 1_455 S
Zn98 O104 2.114 . S
Zn98 O107 2.120 1_445 S
Zn98 O109 2.120 . S
Zn98 O110 2.114 1_455 S
Zn98 O113 2.080 . S
C99 O104 1.166 . S
C99 O105 1.182 . S
C100 O106 1.167 1_655 S
C100 O107 1.299 . S
O101 Zn98 2.080 1_655 S
O101 C115 1.305 . S
O102 Zn96 1.920 . S
O102 C115 1.234 . S
C103 O108 1.167 1_455 S
C103 O109 1.299 . S
O104 Zn98 2.114 . S
O104 C99 1.166 . S
O105 Zn97 1.905 1_545 S
O105 C99 1.182 . S
O106 Zn97 1.898 . S
O106 C100 1.167 1_455 S
O107 Zn98 2.120 1_665 S
O107 C100 1.299 . S
O108 Zn96 1.898 . S
O108 C103 1.167 1_655 S
O109 Zn98 2.120 . S
O109 C103 1.299 . S
O110 Zn98 2.114 1_655 S
O110 C112 1.166 . S
O111 Zn96 1.905 . S
O111 C112 1.182 . S
C112 O110 1.166 . S
C112 O111 1.182 . S
O113 Zn98 2.080 . S
O113 C116 1.305 1_545 S
O114 Zn97 1.920 . S
O114 C116 1.234 . S
C115 O101 1.305 . S
C115 O102 1.234 . S
C116 O113 1.305 1_565 S
C116 O114 1.234 . S
Zn117 O123 1.920 1_556 S
Zn117 O129 1.898 . S
Zn117 O132 1.905 . S
Zn118 O126 1.905 . S
Zn118 O127 1.898 . S
Zn118 O135 1.920 . S
Zn119 O122 2.080 . S
Zn119 O125 2.114 1_545 S
Zn119 O128 2.120 1_545 S
Zn119 O130 2.120 . S
Zn119 O131 2.114 1_544 S
Zn119 O134 2.080 . S
C120 O125 1.166 . S
C120 O126 1.182 . S
C121 O127 1.167 . S
C121 O128 1.299 . S
O122 Zn119 2.080 . S
O122 C136 1.305 . S
O123 Zn117 1.920 1_554 S
O123 C136 1.234 . S
C124 O129 1.167 . S
C124 O130 1.299 1_556 S
O125 Zn119 2.114 1_565 S
O125 C120 1.166 . S
O126 Zn118 1.905 . S
O126 C120 1.182 . S
O127 Zn118 1.898 . S
O127 C121 1.167 . S
O128 Zn119 2.120 1_565 S
O128 C121 1.299 . S
O129 Zn117 1.898 . S
O129 C124 1.167 . S
O130 Zn119 2.120 . S
O130 C124 1.299 1_554 S
O131 Zn119 2.114 1_566 S
O131 C133 1.166 . S
O132 Zn117 1.905 . S
O132 C133 1.182 1_545 S
C133 O131 1.166 . S
C133 O132 1.182 1_565 S
O134 Zn119 2.080 . S
O134 C137 1.305 . S
O135 Zn118 1.920 . S
O135 C137 1.234 1_565 S
C136 O122 1.305 . S
C136 O123 1.234 . S
C137 O134 1.305 . S
C137 O135 1.234 1_545 S
Zn138 O144 1.920 . S
Zn138 O150 1.898 . S
Zn138 O153 1.905 . S
Zn139 O147 1.905 . S
Zn139 O148 1.898 . S
Zn139 O156 1.920 . S
Zn140 O143 2.080 . S
Zn140 O146 2.114 . S
Zn140 O149 2.120 . S
Zn140 O151 2.120 . S
Zn140 O152 2.114 . S
Zn140 O155 2.080 . S
C141 O146 1.166 . S
C141 O147 1.182 . S
C142 O148 1.167 . S
C142 O149 1.299 . S
O143 Zn140 2.080 . S
O143 C157 1.305 . S
O144 Zn138 1.920 . S
O144 C157 1.234 . S
C145 O150 1.167 . S
C145 O151 1.299 . S
O146 Zn140 2.114 . S
O146 C141 1.166 . S
O147 Zn139 1.905 . S
O147 C141 1.182 . S
O148 Zn139 1.898 . S
O148 C142 1.167 . S
O149 Zn140 2.120 . S
O149 C142 1.299 . S
O150 Zn138 1.898 . S
O150 C145 1.167 . S
O151 Zn140 2.120 . S
O151 C145 1.299 . S
O152 Zn140 2.114 . S
O152 C154 1.166 . S
O153 Zn138 1.905 . S
O153 C154 1.182 . S
C154 O152 1.166 . S
C154 O153 1.182 . S
O155 Zn140 2.080 . S
O155 C158 1.305 . S
O156 Zn139 1.920 . S
O156 C158 1.234 . S
C157 O143 1.305 . S
C157 O144 1.234 . S
C158 O155 1.305 . S
C158 O156 1.234 . S
Zn159 O165 1.920 . S
Zn159 O171 1.898 . S
Zn159 O174 1.905 . S
Zn160 O168 1.905 1_655 S
Zn160 O169 1.898 . S
Zn160 O177 1.920 . S
Zn161 O164 2.080 1_554 S
Zn161 O167 2.114 . S
Zn161 O170 2.120 1_554 S
Zn161 O172 2.120 . S
Zn161 O173 2.114 1_554 S
Zn161 O176 2.080 . S
C162 O167 1.166 . S
C162 O168 1.182 . S
C163 O169 1.167 1_556 S
C163 O170 1.299 1_655 S
O164 Zn161 2.080 1_556 S
O164 C178 1.305 . S
O165 Zn159 1.920 . S
O165 C178 1.234 . S
C166 O171 1.167 1_554 S
C166 O172 1.299 . S
O167 Zn161 2.114 . S
O167 C162 1.166 . S
O168 Zn160 1.905 1_455 S
O168 C162 1.182 . S
O169 Zn160 1.898 . S
O169 C163 1.167 1_554 S
O170 Zn161 2.120 1_556 S
O170 C163 1.299 1_455 S
O171 Zn159 1.898 . S
O171 C166 1.167 1_556 S
O172 Zn161 2.120 . S
O172 C166 1.299 . S
O173 Zn161 2.114 1_556 S
O173 C175 1.166 . S
O174 Zn159 1.905 . S
O174 C175 1.182 . S
C175 O173 1.166 . S
C175 O174 1.182 . S
O176 Zn161 2.080 . S
O176 C179 1.305 . S
O177 Zn160 1.920 . S
O177 C179 1.234 1_655 S
C178 O164 1.305 . S
C178 O165 1.234 . S
C179 O176 1.305 . S
C179 O177 1.234 1_455 S
C180 C181 1.349 . S
C180 C182 1.327 . S
C180 H205 0.950 . S
C181 C180 1.349 . S
C181 C197 1.349 . S
C182 C180 1.327 . S
C182 C201 1.429 . S
C182 H206 0.950 . S
C183 C200 1.574 . S
C183 C202 1.368 . S
C183 H207 0.949 . S
H184 C188 0.949 . S
C185 C186 1.349 . S
C185 C187 1.327 . S
C185 H208 0.950 . S
C186 C185 1.349 . S
C186 C198 1.349 . S
C187 C185 1.327 . S
C187 C203 1.429 . S
C187 H209 0.950 . S
C188 H184 0.949 . S
C188 C196 1.574 . S
C188 C204 1.368 . S
H189 C197 0.950 . S
H190 C195 0.950 . S
H191 C196 0.949 . S
H192 C198 0.950 . S
H193 C199 0.950 . S
H194 C200 0.949 . S
C195 H190 0.950 . S
C195 C197 1.327 . S
C195 C201 1.429 . S
C196 C188 1.574 . S
C196 H191 0.949 . S
C196 C202 1.368 . S
C197 C181 1.349 . S
C197 H189 0.950 . S
C197 C195 1.327 . S
C198 C186 1.349 . S
C198 H192 0.950 . S
C198 C199 1.327 . S
C199 H193 0.950 . S
C199 C198 1.327 . S
C199 C203 1.429 . S
C200 C183 1.574 . S
C200 H194 0.949 . S
C200 C204 1.368 . S
C201 C182 1.429 . S
C201 C195 1.429 . S
C201 C202 1.523 . S
C202 C183 1.368 . S
C202 C196 1.368 . S
C202 C201 1.523 . S
C203 C187 1.429 . S
C203 C199 1.429 . S
C203 C204 1.523 . S
C204 C188 1.368 . S
C204 C200 1.368 . S
C204 C203 1.523 . S
H205 C180 0.950 . S
H206 C182 0.950 . S
H207 C183 0.949 . S
H208 C185 0.950 . S
H209 C187 0.950 . S
C210 C211 1.349 . S
C210 C212 1.327 . S
C210 H235 0.950 . S
C211 C210 1.349 . S
C211 C227 1.349 . S
C212 C210 1.327 . S
C212 C231 1.429 . S
C212 H236 0.950 . S
C213 C230 1.574 . S
C213 C232 1.368 . S
C213 H237 0.949 . S
H214 C218 0.949 . S
C215 C216 1.349 . S
C215 C217 1.327 . S
C215 H238 0.950 1_565 S
C216 C215 1.349 . S
C216 C228 1.349 . S
C217 C215 1.327 . S
C217 C233 1.429 . S
C217 H239 0.950 . S
C218 H214 0.949 . S
C218 C226 1.574 . S
C218 C234 1.368 . S
H219 C227 0.950 . S
H220 C225 0.950 . S
H221 C226 0.949 . S
H222 C228 0.950 . S
H223 C229 0.950 . S
H224 C230 0.949 . S
C225 H220 0.950 . S
C225 C227 1.327 . S
C225 C231 1.429 . S
C226 C218 1.574 . S
C226 H221 0.949 . S
C226 C232 1.368 . S
C227 C211 1.349 . S
C227 H219 0.950 . S
C227 C225 1.327 . S
C228 C216 1.349 . S
C228 H222 0.950 . S
C228 C229 1.327 . S
C229 H223 0.950 . S
C229 C228 1.327 . S
C229 C233 1.429 . S
C230 C213 1.574 . S
C230 H224 0.949 . S
C230 C234 1.368 . S
C231 C212 1.429 . S
C231 C225 1.429 . S
C231 C232 1.523 . S
C232 C213 1.368 . S
C232 C226 1.368 . S
C232 C231 1.523 . S
C233 C217 1.429 . S
C233 C229 1.429 . S
C233 C234 1.523 . S
C234 C218 1.368 . S
C234 C230 1.368 . S
C234 C233 1.523 . S
H235 C210 0.950 . S
H236 C212 0.950 . S
H237 C213 0.949 . S
H238 C215 0.950 1_545 S
H239 C217 0.950 . S
C240 C241 1.349 . S
C240 C242 1.327 . S
C240 H265 0.950 . S
C241 C240 1.349 . S
C241 C257 1.349 . S
C242 C240 1.327 . S
C242 C261 1.429 . S
C242 H266 0.950 . S
C243 C260 1.574 . S
C243 C262 1.368 . S
C243 H267 0.949 . S
H244 C248 0.949 . S
C245 C246 1.349 . S
C245 C247 1.327 . S
C245 H268 0.950 . S
C246 C245 1.349 . S
C246 C258 1.349 . S
C247 C245 1.327 . S
C247 C263 1.429 . S
C247 H269 0.950 . S
C248 H244 0.949 . S
C248 C256 1.574 . S
C248 C264 1.368 . S
H249 C257 0.950 . S
H250 C255 0.950 . S
H251 C256 0.949 . S
H252 C258 0.950 . S
H253 C259 0.950 . S
H254 C260 0.949 . S
C255 H250 0.950 . S
C255 C257 1.327 . S
C255 C261 1.429 . S
C256 C248 1.574 . S
C256 H251 0.949 . S
C256 C262 1.368 . S
C257 C241 1.349 . S
C257 H249 0.950 . S
C257 C255 1.327 . S
C258 C246 1.349 . S
C258 H252 0.950 . S
C258 C259 1.327 . S
C259 H253 0.950 . S
C259 C258 1.327 . S
C259 C263 1.429 . S
C260 C243 1.574 . S
C260 H254 0.949 . S
C260 C264 1.368 . S
C261 C242 1.429 . S
C261 C255 1.429 . S
C261 C262 1.523 . S
C262 C243 1.368 . S
C262 C256 1.368 . S
C262 C261 1.523 . S
C263 C247 1.429 . S
C263 C259 1.429 . S
C263 C264 1.523 . S
C264 C248 1.368 . S
C264 C260 1.368 . S
C264 C263 1.523 . S
H265 C240 0.950 . S
H266 C242 0.950 . S
H267 C243 0.949 . S
H268 C245 0.950 . S
H269 C247 0.950 . S
C270 C271 1.349 . S
C270 C272 1.327 . S
C270 H295 0.950 . S
C271 C270 1.349 . S
C271 C287 1.349 . S
C272 C270 1.327 . S
C272 C291 1.429 . S
C272 H296 0.950 . S
C273 C290 1.574 . S
C273 C292 1.368 . S
C273 H297 0.949 . S
H274 C278 0.949 . S
C275 C276 1.349 . S
C275 C277 1.327 . S
C275 H298 0.950 . S
C276 C275 1.349 . S
C276 C288 1.349 1_455 S
C277 C275 1.327 . S
C277 C293 1.429 1_455 S
C277 H299 0.950 . S
C278 H274 0.949 . S
C278 C286 1.574 . S
C278 C294 1.368 . S
H279 C287 0.950 . S
H280 C285 0.950 . S
H281 C286 0.949 . S
H282 C288 0.950 . S
H283 C289 0.950 . S
H284 C290 0.949 1_455 S
C285 H280 0.950 . S
C285 C287 1.327 . S
C285 C291 1.429 . S
C286 C278 1.574 . S
C286 H281 0.949 . S
C286 C292 1.368 . S
C287 C271 1.349 . S
C287 H279 0.950 . S
C287 C285 1.327 . S
C288 C276 1.349 1_655 S
C288 H282 0.950 . S
C288 C289 1.327 . S
C289 H283 0.950 . S
C289 C288 1.327 . S
C289 C293 1.429 . S
C290 C273 1.574 . S
C290 H284 0.949 1_655 S
C290 C294 1.368 . S
C291 C272 1.429 . S
C291 C285 1.429 . S
C291 C292 1.523 . S
C292 C273 1.368 . S
C292 C286 1.368 . S
C292 C291 1.523 . S
C293 C277 1.429 1_655 S
C293 C289 1.429 . S
C293 C294 1.523 . S
C294 C278 1.368 . S
C294 C290 1.368 . S
C294 C293 1.523 . S
H295 C270 0.950 . S
H296 C272 0.950 . S
H297 C273 0.949 . S
H298 C275 0.950 . S
H299 C277 0.950 . S
C300 C301 1.349 . S
C300 C302 1.327 . S
C300 H325 0.950 . S
C301 C300 1.349 . S
C301 C317 1.349 . S
C302 C300 1.327 . S
C302 C321 1.429 . S
C302 H326 0.950 . S
C303 C320 1.574 . S
C303 C322 1.368 . S
C303 H327 0.949 . S
H304 C308 0.949 . S
C305 C306 1.349 . S
C305 C307 1.327 . S
C305 H328 0.950 . S
C306 C305 1.349 . S
C306 C318 1.349 . S
C307 C305 1.327 . S
C307 C323 1.429 . S
C307 H329 0.950 . S
C308 H304 0.949 . S
C308 C316 1.574 . S
C308 C324 1.368 . S
H309 C317 0.950 . S
H310 C315 0.950 . S
H311 C316 0.949 . S
H312 C318 0.950 . S
H313 C319 0.950 . S
H314 C320 0.949 . S
C315 H310 0.950 . S
C315 C317 1.327 . S
C315 C321 1.429 . S
C316 C308 1.574 . S
C316 H311 0.949 . S
C316 C322 1.368 . S
C317 C301 1.349 . S
C317 H309 0.950 . S
C317 C315 1.327 . S
C318 C306 1.349 . S
C318 H312 0.950 . S
C318 C319 1.327 . S
C319 H313 0.950 . S
C319 C318 1.327 . S
C319 C323 1.429 . S
C320 C303 1.574 . S
C320 H314 0.949 . S
C320 C324 1.368 . S
C321 C302 1.429 . S
C321 C315 1.429 . S
C321 C322 1.523 . S
C322 C303 1.368 . S
C322 C316 1.368 . S
C322 C321 1.523 . S
C323 C307 1.429 . S
C323 C319 1.429 . S
C323 C324 1.523 . S
C324 C308 1.368 . S
C324 C320 1.368 . S
C324 C323 1.523 . S
H325 C300 0.950 . S
H326 C302 0.950 . S
H327 C303 0.949 . S
H328 C305 0.950 . S
H329 C307 0.950 . S
C330 C331 1.349 . S
C330 C332 1.327 . S
C330 H355 0.950 . S
C331 C330 1.349 . S
C331 C347 1.349 . S
C332 C330 1.327 . S
C332 C351 1.429 . S
C332 H356 0.950 . S
C333 C350 1.574 . S
C333 C352 1.368 . S
C333 H357 0.949 . S
H334 C338 0.949 . S
C335 C336 1.349 . S
C335 C337 1.327 . S
C335 H358 0.950 1_565 S
C336 C335 1.349 . S
C336 C348 1.349 . S
C337 C335 1.327 . S
C337 C353 1.429 . S
C337 H359 0.950 . S
C338 H334 0.949 . S
C338 C346 1.574 . S
C338 C354 1.368 . S
H339 C347 0.950 . S
H340 C345 0.950 . S
H341 C346 0.949 . S
H342 C348 0.950 . S
H343 C349 0.950 . S
H344 C350 0.949 . S
C345 H340 0.950 . S
C345 C347 1.327 . S
C345 C351 1.429 . S
C346 C338 1.574 . S
C346 H341 0.949 . S
C346 C352 1.368 . S
C347 C331 1.349 . S
C347 H339 0.950 . S
C347 C345 1.327 . S
C348 C336 1.349 . S
C348 H342 0.950 . S
C348 C349 1.327 . S
C349 H343 0.950 . S
C349 C348 1.327 . S
C349 C353 1.429 . S
C350 C333 1.574 . S
C350 H344 0.949 . S
C350 C354 1.368 . S
C351 C332 1.429 . S
C351 C345 1.429 . S
C351 C352 1.523 . S
C352 C333 1.368 . S
C352 C346 1.368 . S
C352 C351 1.523 . S
C353 C337 1.429 . S
C353 C349 1.429 . S
C353 C354 1.523 . S
C354 C338 1.368 . S
C354 C350 1.368 . S
C354 C353 1.523 . S
H355 C330 0.950 . S
H356 C332 0.950 . S
H357 C333 0.949 . S
H358 C335 0.950 1_545 S
H359 C337 0.950 . S
C360 C361 1.349 . S
C360 C362 1.327 . S
C360 H385 0.950 . S
C361 C360 1.349 . S
C361 C377 1.349 . S
C362 C360 1.327 . S
C362 C381 1.429 . S
C362 H386 0.950 . S
C363 C380 1.574 . S
C363 C382 1.368 . S
C363 H387 0.949 . S
H364 C368 0.949 . S
C365 C366 1.349 . S
C365 C367 1.327 . S
C365 H388 0.950 . S
C366 C365 1.349 . S
C366 C378 1.349 . S
C367 C365 1.327 . S
C367 C383 1.429 . S
C367 H389 0.950 . S
C368 H364 0.949 . S
C368 C376 1.574 . S
C368 C384 1.368 . S
H369 C377 0.950 . S
H370 C375 0.950 . S
H371 C376 0.949 . S
H372 C378 0.950 . S
H373 C379 0.950 . S
H374 C380 0.949 . S
C375 H370 0.950 . S
C375 C377 1.327 . S
C375 C381 1.429 . S
C376 C368 1.574 . S
C376 H371 0.949 . S
C376 C382 1.368 . S
C377 C361 1.349 . S
C377 H369 0.950 . S
C377 C375 1.327 . S
C378 C366 1.349 . S
C378 H372 0.950 . S
C378 C379 1.327 . S
C379 H373 0.950 . S
C379 C378 1.327 . S
C379 C383 1.429 . S
C380 C363 1.574 . S
C380 H374 0.949 . S
C380 C384 1.368 . S
C381 C362 1.429 . S
C381 C375 1.429 . S
C381 C382 1.523 . S
C382 C363 1.368 . S
C382 C376 1.368 . S
C382 C381 1.523 . S
C383 C367 1.429 . S
C383 C379 1.429 . S
C383 C384 1.523 . S
C384 C368 1.368 . S
C384 C380 1.368 . S
C384 C383 1.523 . S
H385 C360 0.950 . S
H386 C362 0.950 . S
H387 C363 0.949 . S
H388 C365 0.950 . S
H389 C367 0.950 . S
C390 C391 1.349 . S
C390 C392 1.327 . S
C390 H415 0.950 . S
C391 C390 1.349 . S
C391 C407 1.349 . S
C392 C390 1.327 . S
C392 C411 1.429 . S
C392 H416 0.950 . S
C393 C410 1.574 . S
C393 C412 1.368 . S
C393 H417 0.949 . S
H394 C398 0.949 . S
C395 C396 1.349 . S
C395 C397 1.327 . S
C395 H418 0.950 . S
C396 C395 1.349 . S
C396 C408 1.349 . S
C397 C395 1.327 . S
C397 C413 1.429 . S
C397 H419 0.950 . S
C398 H394 0.949 . S
C398 C406 1.574 . S
C398 C414 1.368 . S
H399 C407 0.950 . S
H400 C405 0.950 . S
H401 C406 0.949 . S
H402 C408 0.950 . S
H403 C409 0.950 . S
H404 C410 0.949 . S
C405 H400 0.950 . S
C405 C407 1.327 . S
C405 C411 1.429 . S
C406 C398 1.574 . S
C406 H401 0.949 . S
C406 C412 1.368 . S
C407 C391 1.349 . S
C407 H399 0.950 . S
C407 C405 1.327 . S
C408 C396 1.349 . S
C408 H402 0.950 . S
C408 C409 1.327 . S
C409 H403 0.950 . S
C409 C408 1.327 . S
C409 C413 1.429 . S
C410 C393 1.574 . S
C410 H404 0.949 . S
C410 C414 1.368 . S
C411 C392 1.429 . S
C411 C405 1.429 . S
C411 C412 1.523 . S
C412 C393 1.368 . S
C412 C406 1.368 . S
C412 C411 1.523 . S
C413 C397 1.429 . S
C413 C409 1.429 . S
C413 C414 1.523 . S
C414 C398 1.368 . S
C414 C410 1.368 . S
C414 C413 1.523 . S
H415 C390 0.950 . S
H416 C392 0.950 . S
H417 C393 0.949 . S
H418 C395 0.950 . S
H419 C397 0.950 . S
C420 C421 1.349 . S
C420 C422 1.327 . S
C420 H445 0.950 . S
C421 C420 1.349 . S
C421 C437 1.349 . S
C422 C420 1.327 . S
C422 C441 1.429 . S
C422 H446 0.950 . S
C423 C440 1.574 . S
C423 C442 1.368 . S
C423 H447 0.949 . S
H424 C428 0.949 . S
C425 C426 1.349 . S
C425 C427 1.327 . S
C425 H448 0.950 . S
C426 C425 1.349 . S
C426 C438 1.349 . S
C427 C425 1.327 . S
C427 C443 1.429 . S
C427 H449 0.950 . S
C428 H424 0.949 . S
C428 C436 1.574 . S
C428 C444 1.368 . S
H429 C437 0.950 . S
H430 C435 0.950 . S
H431 C436 0.949 . S
H432 C438 0.950 . S
H433 C439 0.950 . S
H434 C440 0.949 . S
C435 H430 0.950 . S
C435 C437 1.327 . S
C435 C441 1.429 . S
C436 C428 1.574 . S
C436 H431 0.949 . S
C436 C442 1.368 . S
C437 C421 1.349 . S
C437 H429 0.950 . S
C437 C435 1.327 . S
C438 C426 1.349 . S
C438 H432 0.950 . S
C438 C439 1.327 . S
C439 H433 0.950 . S
C439 C438 1.327 . S
C439 C443 1.429 . S
C440 C423 1.574 . S
C440 H434 0.949 . S
C440 C444 1.368 . S
C441 C422 1.429 . S
C441 C435 1.429 . S
C441 C442 1.523 . S
C442 C423 1.368 . S
C442 C436 1.368 . S
C442 C441 1.523 . S
C443 C427 1.429 . S
C443 C439 1.429 . S
C443 C444 1.523 . S
C444 C428 1.368 . S
C444 C440 1.368 . S
C444 C443 1.523 . S
H445 C420 0.950 . S
H446 C422 0.950 . S
H447 C423 0.949 . S
H448 C425 0.950 . S
H449 C427 0.950 . S
C450 C451 1.349 . S
C450 C452 1.327 . S
C450 H475 0.950 . S
C451 C450 1.349 . S
C451 C467 1.349 . S
C452 C450 1.327 . S
C452 C471 1.429 . S
C452 H476 0.950 . S
C453 C470 1.574 . S
C453 C472 1.368 . S
C453 H477 0.949 . S
H454 C458 0.949 . S
C455 C456 1.349 . S
C455 C457 1.327 . S
C455 H478 0.950 . S
C456 C455 1.349 . S
C456 C468 1.349 . S
C457 C455 1.327 . S
C457 C473 1.429 . S
C457 H479 0.950 . S
C458 H454 0.949 . S
C458 C466 1.574 . S
C458 C474 1.368 . S
H459 C467 0.950 . S
H460 C465 0.950 . S
H461 C466 0.949 . S
H462 C468 0.950 . S
H463 C469 0.950 . S
H464 C470 0.949 . S
C465 H460 0.950 . S
C465 C467 1.327 . S
C465 C471 1.429 . S
C466 C458 1.574 . S
C466 H461 0.949 . S
C466 C472 1.368 . S
C467 C451 1.349 . S
C467 H459 0.950 . S
C467 C465 1.327 . S
C468 C456 1.349 . S
C468 H462 0.950 . S
C468 C469 1.327 . S
C469 H463 0.950 . S
C469 C468 1.327 . S
C469 C473 1.429 . S
C470 C453 1.574 . S
C470 H464 0.949 . S
C470 C474 1.368 . S
C471 C452 1.429 . S
C471 C465 1.429 . S
C471 C472 1.523 . S
C472 C453 1.368 . S
C472 C466 1.368 . S
C472 C471 1.523 . S
C473 C457 1.429 . S
C473 C469 1.429 . S
C473 C474 1.523 . S
C474 C458 1.368 . S
C474 C470 1.368 . S
C474 C473 1.523 . S
H475 C450 0.950 . S
H476 C452 0.950 . S
H477 C453 0.949 . S
H478 C455 0.950 . S
H479 C457 0.950 . S
C480 C481 1.349 . S
C480 C482 1.327 . S
C480 H505 0.950 . S
C481 C480 1.349 . S
C481 C497 1.349 . S
C482 C480 1.327 . S
C482 C501 1.429 . S
C482 H506 0.950 . S
C483 C500 1.574 . S
C483 C502 1.368 . S
C483 H507 0.949 . S
H484 C488 0.949 . S
C485 C486 1.349 . S
C485 C487 1.327 . S
C485 H508 0.950 . S
C486 C485 1.349 . S
C486 C498 1.349 . S
C487 C485 1.327 . S
C487 C503 1.429 . S
C487 H509 0.950 . S
C488 H484 0.949 . S
C488 C496 1.574 . S
C488 C504 1.368 . S
H489 C497 0.950 . S
H490 C495 0.950 . S
H491 C496 0.949 . S
H492 C498 0.950 . S
H493 C499 0.950 . S
H494 C500 0.949 . S
C495 H490 0.950 . S
C495 C497 1.327 . S
C495 C501 1.429 . S
C496 C488 1.574 . S
C496 H491 0.949 . S
C496 C502 1.368 . S
C497 C481 1.349 . S
C497 H489 0.950 . S
C497 C495 1.327 . S
C498 C486 1.349 . S
C498 H492 0.950 . S
C498 C499 1.327 . S
C499 H493 0.950 . S
C499 C498 1.327 . S
C499 C503 1.429 . S
C500 C483 1.574 . S
C500 H494 0.949 . S
C500 C504 1.368 . S
C501 C482 1.429 . S
C501 C495 1.429 . S
C501 C502 1.523 . S
C502 C483 1.368 . S
C502 C496 1.368 . S
C502 C501 1.523 . S
C503 C487 1.429 . S
C503 C499 1.429 . S
C503 C504 1.523 . S
C504 C488 1.368 . S
C504 C500 1.368 . S
C504 C503 1.523 . S
H505 C480 0.950 . S
H506 C482 0.950 . S
H507 C483 0.949 . S
H508 C485 0.950 . S
H509 C487 0.950 . S
C510 C511 1.349 . S
C510 C512 1.327 . S
C510 H535 0.950 . S
C511 C510 1.349 . S
C511 C527 1.349 . S
C512 C510 1.327 . S
C512 C531 1.429 . S
C512 H536 0.950 . S
C513 C530 1.574 . S
C513 C532 1.368 . S
C513 H537 0.949 . S
H514 C518 0.949 . S
C515 C516 1.349 . S
C515 C517 1.327 . S
C515 H538 0.950 . S
C516 C515 1.349 . S
C516 C528 1.349 . S
C517 C515 1.327 . S
C517 C533 1.429 . S
C517 H539 0.950 . S
C518 H514 0.949 . S
C518 C526 1.574 . S
C518 C534 1.368 . S
H519 C527 0.950 . S
H520 C525 0.950 . S
H521 C526 0.949 . S
H522 C528 0.950 . S
H523 C529 0.950 . S
H524 C530 0.949 . S
C525 H520 0.950 . S
C525 C527 1.327 . S
C525 C531 1.429 . S
C526 C518 1.574 . S
C526 H521 0.949 . S
C526 C532 1.368 . S
C527 C511 1.349 . S
C527 H519 0.950 . S
C527 C525 1.327 . S
C528 C516 1.349 . S
C528 H522 0.950 . S
C528 C529 1.327 . S
C529 H523 0.950 . S
C529 C528 1.327 . S
C529 C533 1.429 . S
C530 C513 1.574 . S
C530 H524 0.949 . S
C530 C534 1.368 . S
C531 C512 1.429 . S
C531 C525 1.429 . S
C531 C532 1.523 . S
C532 C513 1.368 . S
C532 C526 1.368 . S
C532 C531 1.523 . S
C533 C517 1.429 . S
C533 C529 1.429 . S
C533 C534 1.523 . S
C534 C518 1.368 . S
C534 C530 1.368 . S
C534 C533 1.523 . S
H535 C510 0.950 . S
H536 C512 0.950 . S
H537 C513 0.949 . S
H538 C515 0.950 . S
H539 C517 0.950 . S
C540 C541 1.349 . S
C540 C542 1.327 . S
C540 H565 0.950 1_565 S
C541 C540 1.349 . S
C541 C557 1.349 . S
C542 C540 1.327 . S
C542 C561 1.429 . S
C542 H566 0.950 1_565 S
C543 C560 1.574 . S
C543 C562 1.368 . S
C543 H567 0.949 . S
H544 C548 0.949 1_455 S
C545 C546 1.349 1_565 S
C545 C547 1.327 . S
C545 H568 0.950 . S
C546 C545 1.349 1_545 S
C546 C558 1.349 1_655 S
C547 C545 1.327 . S
C547 C563 1.429 . S
C547 H569 0.950 . S
C548 H544 0.949 1_655 S
C548 C556 1.574 . S
C548 C564 1.368 1_545 S
H549 C557 0.950 . S
H550 C555 0.950 . S
H551 C556 0.949 1_455 S
H552 C558 0.950 . S
H553 C559 0.950 . S
H554 C560 0.949 . S
C555 H550 0.950 . S
C555 C557 1.327 . S
C555 C561 1.429 . S
C556 C548 1.574 . S
C556 H551 0.949 1_655 S
C556 C562 1.368 1_545 S
C557 C541 1.349 . S
C557 H549 0.950 . S
C557 C555 1.327 . S
C558 C546 1.349 1_455 S
C558 H552 0.950 . S
C558 C559 1.327 . S
C559 H553 0.950 . S
C559 C558 1.327 . S
C559 C563 1.429 1_445 S
C560 C543 1.574 . S
C560 H554 0.949 . S
C560 C564 1.368 . S
C561 C542 1.429 . S
C561 C555 1.429 . S
C561 C562 1.523 . S
C562 C543 1.368 . S
C562 C556 1.368 1_565 S
C562 C561 1.523 . S
C563 C547 1.429 . S
C563 C559 1.429 1_665 S
C563 C564 1.523 . S
C564 C548 1.368 1_565 S
C564 C560 1.368 . S
C564 C563 1.523 . S
H565 C540 0.950 1_545 S
H566 C542 0.950 1_545 S
H567 C543 0.949 . S
H568 C545 0.950 . S
H569 C547 0.950 . S
C570 C571 1.349 . S
C570 C572 1.327 . S
C570 H595 0.950 . S
C571 C570 1.349 . S
C571 C587 1.349 . S
C572 C570 1.327 . S
C572 C591 1.429 . S
C572 H596 0.950 . S
C573 C590 1.574 . S
C573 C592 1.368 . S
C573 H597 0.949 . S
H574 C578 0.949 . S
C575 C576 1.349 . S
C575 C577 1.327 . S
C575 H598 0.950 . S
C576 C575 1.349 . S
C576 C588 1.349 . S
C577 C575 1.327 . S
C577 C593 1.429 . S
C577 H599 0.950 . S
C578 H574 0.949 . S
C578 C586 1.574 . S
C578 C594 1.368 . S
H579 C587 0.950 . S
H580 C585 0.950 . S
H581 C586 0.949 . S
H582 C588 0.950 1_565 S
H583 C589 0.950 . S
H584 C590 0.949 . S
C585 H580 0.950 . S
C585 C587 1.327 . S
C585 C591 1.429 . S
C586 C578 1.574 . S
C586 H581 0.949 . S
C586 C592 1.368 . S
C587 C571 1.349 . S
C587 H579 0.950 . S
C587 C585 1.327 . S
C588 C576 1.349 . S
C588 H582 0.950 1_545 S
C588 C589 1.327 . S
C589 H583 0.950 . S
C589 C588 1.327 . S
C589 C593 1.429 . S
C590 C573 1.574 . S
C590 H584 0.949 . S
C590 C594 1.368 . S
C591 C572 1.429 . S
C591 C585 1.429 . S
C591 C592 1.523 . S
C592 C573 1.368 . S
C592 C586 1.368 . S
C592 C591 1.523 . S
C593 C577 1.429 . S
C593 C589 1.429 . S
C593 C594 1.523 . S
C594 C578 1.368 . S
C594 C590 1.368 . S
C594 C593 1.523 . S
H595 C570 0.950 . S
H596 C572 0.950 . S
H597 C573 0.949 . S
H598 C575 0.950 . S
H599 C577 0.950 . S
C600 C601 1.349 . S
C600 C602 1.327 . S
C600 H625 0.950 . S
C601 C600 1.349 . S
C601 C617 1.349 . S
C602 C600 1.327 . S
C602 C621 1.429 . S
C602 H626 0.950 . S
C603 C620 1.574 . S
C603 C622 1.368 . S
C603 H627 0.949 . S
H604 C608 0.949 . S
C605 C606 1.349 . S
C605 C607 1.327 . S
C605 H628 0.950 . S
C606 C605 1.349 . S
C606 C618 1.349 . S
C607 C605 1.327 . S
C607 C623 1.429 . S
C607 H629 0.950 . S
C608 H604 0.949 . S
C608 C616 1.574 . S
C608 C624 1.368 . S
H609 C617 0.950 . S
H610 C615 0.950 . S
H611 C616 0.949 . S
H612 C618 0.950 . S
H613 C619 0.950 . S
H614 C620 0.949 . S
C615 H610 0.950 . S
C615 C617 1.327 . S
C615 C621 1.429 . S
C616 C608 1.574 . S
C616 H611 0.949 . S
C616 C622 1.368 . S
C617 C601 1.349 . S
C617 H609 0.950 . S
C617 C615 1.327 . S
C618 C606 1.349 . S
C618 H612 0.950 . S
C618 C619 1.327 . S
C619 H613 0.950 . S
C619 C618 1.327 . S
C619 C623 1.429 . S
C620 C603 1.574 . S
C620 H614 0.949 . S
C620 C624 1.368 . S
C621 C602 1.429 . S
C621 C615 1.429 . S
C621 C622 1.523 . S
C622 C603 1.368 . S
C622 C616 1.368 . S
C622 C621 1.523 . S
C623 C607 1.429 . S
C623 C619 1.429 . S
C623 C624 1.523 . S
C624 C608 1.368 . S
C624 C620 1.368 . S
C624 C623 1.523 . S
H625 C600 0.950 . S
H626 C602 0.950 . S
H627 C603 0.949 . S
H628 C605 0.950 . S
H629 C607 0.950 . S
C630 C631 1.349 . S
C630 C632 1.327 . S
C630 H655 0.950 . S
C631 C630 1.349 . S
C631 C647 1.349 . S
C632 C630 1.327 . S
C632 C651 1.429 . S
C632 H656 0.950 . S
C633 C650 1.574 . S
C633 C652 1.368 . S
C633 H657 0.949 . S
H634 C638 0.949 . S
C635 C636 1.349 . S
C635 C637 1.327 . S
C635 H658 0.950 . S
C636 C635 1.349 . S
C636 C648 1.349 . S
C637 C635 1.327 . S
C637 C653 1.429 . S
C637 H659 0.950 . S
C638 H634 0.949 . S
C638 C646 1.574 . S
C638 C654 1.368 . S
H639 C647 0.950 . S
H640 C645 0.950 . S
H641 C646 0.949 . S
H642 C648 0.950 . S
H643 C649 0.950 . S
H644 C650 0.949 . S
C645 H640 0.950 . S
C645 C647 1.327 . S
C645 C651 1.429 . S
C646 C638 1.574 . S
C646 H641 0.949 . S
C646 C652 1.368 . S
C647 C631 1.349 . S
C647 H639 0.950 . S
C647 C645 1.327 . S
C648 C636 1.349 . S
C648 H642 0.950 . S
C648 C649 1.327 . S
C649 H643 0.950 . S
C649 C648 1.327 . S
C649 C653 1.429 . S
C650 C633 1.574 . S
C650 H644 0.949 . S
C650 C654 1.368 . S
C651 C632 1.429 . S
C651 C645 1.429 . S
C651 C652 1.523 . S
C652 C633 1.368 . S
C652 C646 1.368 . S
C652 C651 1.523 . S
C653 C637 1.429 . S
C653 C649 1.429 . S
C653 C654 1.523 . S
C654 C638 1.368 . S
C654 C650 1.368 . S
C654 C653 1.523 . S
H655 C630 0.950 . S
H656 C632 0.950 . S
H657 C633 0.949 . S
H658 C635 0.950 . S
H659 C637 0.950 . S
C660 C661 1.349 . S
C660 C662 1.327 . S
C660 H685 0.950 . S
C661 C660 1.349 . S
C661 C677 1.349 . S
C662 C660 1.327 . S
C662 C681 1.429 . S
C662 H686 0.950 . S
C663 C680 1.574 . S
C663 C682 1.368 1_554 S
C663 H687 0.949 . S
H664 C668 0.949 . S
C665 C666 1.349 . S
C665 C667 1.327 . S
C665 H688 0.950 1_565 S
C666 C665 1.349 . S
C666 C678 1.349 1_554 S
C667 C665 1.327 . S
C667 C683 1.429 1_554 S
C667 H689 0.950 . S
C668 H664 0.949 . S
C668 C676 1.574 . S
C668 C684 1.368 . S
H669 C677 0.950 . S
H670 C675 0.950 1_554 S
H671 C676 0.949 . S
H672 C678 0.950 . S
H673 C679 0.950 . S
H674 C680 0.949 . S
C675 H670 0.950 1_556 S
C675 C677 1.327 . S
C675 C681 1.429 . S
C676 C668 1.574 . S
C676 H671 0.949 . S
C676 C682 1.368 . S
C677 C661 1.349 . S
C677 H669 0.950 . S
C677 C675 1.327 . S
C678 C666 1.349 1_556 S
C678 H672 0.950 . S
C678 C679 1.327 . S
C679 H673 0.950 . S
C679 C678 1.327 . S
C679 C683 1.429 . S
C680 C663 1.574 . S
C680 H674 0.949 . S
C680 C684 1.368 1_554 S
C681 C662 1.429 . S
C681 C675 1.429 . S
C681 C682 1.523 . S
C682 C663 1.368 1_556 S
C682 C676 1.368 . S
C682 C681 1.523 . S
C683 C667 1.429 1_556 S
C683 C679 1.429 . S
C683 C684 1.523 . S
C684 C668 1.368 . S
C684 C680 1.368 1_556 S
C684 C683 1.523 . S
H685 C660 0.950 . S
H686 C662 0.950 . S
H687 C663 0.949 . S
H688 C665 0.950 1_545 S
H689 C667 0.950 . S
C690 C691 1.349 . S
C690 C692 1.327 . S
C690 H715 0.950 . S
C691 C690 1.349 . S
C691 C707 1.349 . S
C692 C690 1.327 . S
C692 C711 1.429 . S
C692 H716 0.950 . S
C693 C710 1.574 . S
C693 C712 1.368 . S
C693 H717 0.949 . S
H694 C698 0.949 . S
C695 C696 1.349 . S
C695 C697 1.327 . S
C695 H718 0.950 . S
C696 C695 1.349 . S
C696 C708 1.349 . S
C697 C695 1.327 . S
C697 C713 1.429 . S
C697 H719 0.950 . S
C698 H694 0.949 . S
C698 C706 1.574 . S
C698 C714 1.368 . S
H699 C707 0.950 . S
H700 C705 0.950 . S
H701 C706 0.949 . S
H702 C708 0.950 1_565 S
H703 C709 0.950 . S
H704 C710 0.949 . S
C705 H700 0.950 . S
C705 C707 1.327 . S
C705 C711 1.429 . S
C706 C698 1.574 . S
C706 H701 0.949 . S
C706 C712 1.368 . S
C707 C691 1.349 . S
C707 H699 0.950 . S
C707 C705 1.327 . S
C708 C696 1.349 . S
C708 H702 0.950 1_545 S
C708 C709 1.327 . S
C709 H703 0.950 . S
C709 C708 1.327 . S
C709 C713 1.429 . S
C710 C693 1.574 . S
C710 H704 0.949 . S
C710 C714 1.368 . S
C711 C692 1.429 . S
C711 C705 1.429 . S
C711 C712 1.523 . S
C712 C693 1.368 . S
C712 C706 1.368 . S
C712 C711 1.523 . S
C713 C697 1.429 . S
C713 C709 1.429 . S
C713 C714 1.523 . S
C714 C698 1.368 . S
C714 C710 1.368 . S
C714 C713 1.523 . S
H715 C690 0.950 . S
H716 C692 0.950 . S
H717 C693 0.949 . S
H718 C695 0.950 . S
H719 C697 0.950 . S
C720 C721 1.349 . S
C720 C722 1.327 . S
C720 H745 0.950 . S
C721 C720 1.349 . S
C721 C737 1.349 . S
C722 C720 1.327 . S
C722 C741 1.429 . S
C722 H746 0.950 . S
C723 C740 1.574 . S
C723 C742 1.368 . S
C723 H747 0.949 . S
H724 C728 0.949 . S
C725 C726 1.349 . S
C725 C727 1.327 . S
C725 H748 0.950 1_554 S
C726 C725 1.349 . S
C726 C738 1.349 . S
C727 C725 1.327 . S
C727 C743 1.429 . S
C727 H749 0.950 . S
C728 H724 0.949 . S
C728 C736 1.574 . S
C728 C744 1.368 . S
H729 C737 0.950 . S
H730 C735 0.950 . S
H731 C736 0.949 . S
H732 C738 0.950 . S
H733 C739 0.950 . S
H734 C740 0.949 . S
C735 H730 0.950 . S
C735 C737 1.327 . S
C735 C741 1.429 . S
C736 C728 1.574 . S
C736 H731 0.949 . S
C736 C742 1.368 . S
C737 C721 1.349 . S
C737 H729 0.950 . S
C737 C735 1.327 . S
C738 C726 1.349 . S
C738 H732 0.950 . S
C738 C739 1.327 . S
C739 H733 0.950 . S
C739 C738 1.327 . S
C739 C743 1.429 . S
C740 C723 1.574 . S
C740 H734 0.949 . S
C740 C744 1.368 . S
C741 C722 1.429 . S
C741 C735 1.429 . S
C741 C742 1.523 . S
C742 C723 1.368 . S
C742 C736 1.368 . S
C742 C741 1.523 . S
C743 C727 1.429 . S
C743 C739 1.429 . S
C743 C744 1.523 . S
C744 C728 1.368 . S
C744 C740 1.368 . S
C744 C743 1.523 . S
H745 C720 0.950 . S
H746 C722 0.950 . S
H747 C723 0.949 . S
H748 C725 0.950 1_556 S
H749 C727 0.950 . S
C750 C751 1.349 . S
C750 C752 1.327 . S
C750 H775 0.950 . S
C751 C750 1.349 . S
C751 C767 1.349 . S
C752 C750 1.327 . S
C752 C771 1.429 . S
C752 H776 0.950 . S
C753 C770 1.574 . S
C753 C772 1.368 . S
C753 H777 0.949 . S
H754 C758 0.949 . S
C755 C756 1.349 . S
C755 C757 1.327 . S
C755 H778 0.950 . S
C756 C755 1.349 . S
C756 C768 1.349 . S
C757 C755 1.327 . S
C757 C773 1.429 . S
C757 H779 0.950 . S
C758 H754 0.949 . S
C758 C766 1.574 . S
C758 C774 1.368 . S
H759 C767 0.950 . S
H760 C765 0.950 . S
H761 C766 0.949 . S
H762 C768 0.950 . S
H763 C769 0.950 . S
H764 C770 0.949 . S
C765 H760 0.950 . S
C765 C767 1.327 . S
C765 C771 1.429 . S
C766 C758 1.574 . S
C766 H761 0.949 . S
C766 C772 1.368 . S
C767 C751 1.349 . S
C767 H759 0.950 . S
C767 C765 1.327 . S
C768 C756 1.349 . S
C768 H762 0.950 . S
C768 C769 1.327 . S
C769 H763 0.950 . S
C769 C768 1.327 . S
C769 C773 1.429 . S
C770 C753 1.574 . S
C770 H764 0.949 . S
C770 C774 1.368 . S
C771 C752 1.429 . S
C771 C765 1.429 . S
C771 C772 1.523 . S
C772 C753 1.368 . S
C772 C766 1.368 . S
C772 C771 1.523 . S
C773 C757 1.429 . S
C773 C769 1.429 . S
C773 C774 1.523 . S
C774 C758 1.368 . S
C774 C770 1.368 . S
C774 C773 1.523 . S
H775 C750 0.950 . S
H776 C752 0.950 . S
H777 C753 0.949 . S
H778 C755 0.950 . S
H779 C757 0.950 . S
C780 C781 1.349 1_455 S
C780 C782 1.327 . S
C780 H805 0.950 . S
C781 C780 1.349 1_655 S
C781 C797 1.349 . S
C782 C780 1.327 . S
C782 C801 1.437 . S
C782 H806 0.950 . S
C783 C800 1.576 . S
C783 C802 1.368 1_655 S
C783 H807 0.949 1_556 S
H784 C788 0.949 . S
C785 C786 1.349 1_554 S
C785 C787 1.327 . S
C785 H808 0.950 . S
C786 C785 1.349 1_556 S
C786 C798 1.349 . S
C787 C785 1.327 . S
C787 C803 1.429 1_554 S
C787 H809 0.950 1_455 S
C788 H784 0.949 . S
C788 C796 1.574 . S
C788 C804 1.368 . S
H789 C797 0.950 . S
H790 C795 0.929 1_554 S
H791 C796 0.949 . S
H792 C798 0.950 . S
H793 C799 0.950 . S
H794 C800 0.941 1_554 S
C795 H790 0.929 1_556 S
C795 C797 1.327 . S
C795 C801 1.412 1_655 S
C796 C788 1.574 . S
C796 H791 0.949 . S
C796 C802 1.368 . S
C797 C781 1.349 . S
C797 H789 0.950 . S
C797 C795 1.327 . S
C798 C786 1.349 . S
C798 H792 0.950 . S
C798 C799 1.327 . S
C799 H793 0.950 . S
C799 C798 1.327 . S
C799 C803 1.429 . S
C800 C783 1.576 . S
C800 H794 0.941 1_556 S
C800 C804 1.375 1_655 S
C801 C782 1.437 . S
C801 C795 1.412 1_455 S
C801 C802 1.531 . S
C802 C783 1.368 1_455 S
C802 C796 1.368 . S
C802 C801 1.531 . S
C803 C787 1.429 1_556 S
C803 C799 1.429 . S
C803 C804 1.523 . S
C804 C788 1.368 . S
C804 C800 1.375 1_455 S
C804 C803 1.523 . S
H805 C780 0.950 . S
H806 C782 0.950 . S
H807 C783 0.949 1_554 S
H808 C785 0.950 . S
H809 C787 0.950 1_655 S
C810 C811 1.349 . S
C810 C812 1.327 . S
C810 H835 0.950 . S
C811 C810 1.349 . S
C811 C827 1.349 . S
C812 C810 1.327 . S
C812 C831 1.429 . S
C812 H836 0.950 . S
C813 C830 1.574 . S
C813 C832 1.368 . S
C813 H837 0.949 . S
H814 C818 0.949 . S
C815 C816 1.349 . S
C815 C817 1.327 . S
C815 H838 0.950 . S
C816 C815 1.349 . S
C816 C828 1.349 . S
C817 C815 1.327 . S
C817 C833 1.429 . S
C817 H839 0.950 . S
C818 H814 0.949 . S
C818 C826 1.574 . S
C818 C834 1.368 . S
H819 C827 0.950 . S
H820 C825 0.950 . S
H821 C826 0.949 . S
H822 C828 0.950 . S
H823 C829 0.950 . S
H824 C830 0.949 . S
C825 H820 0.950 . S
C825 C827 1.327 . S
C825 C831 1.429 . S
C826 C818 1.574 . S
C826 H821 0.949 . S
C826 C832 1.368 . S
C827 C811 1.349 . S
C827 H819 0.950 . S
C827 C825 1.327 . S
C828 C816 1.349 . S
C828 H822 0.950 . S
C828 C829 1.327 . S
C829 H823 0.950 . S
C829 C828 1.327 . S
C829 C833 1.429 . S
C830 C813 1.574 . S
C830 H824 0.949 . S
C830 C834 1.368 . S
C831 C812 1.429 . S
C831 C825 1.429 . S
C831 C832 1.523 . S
C832 C813 1.368 . S
C832 C826 1.368 . S
C832 C831 1.523 . S
C833 C817 1.429 . S
C833 C829 1.429 . S
C833 C834 1.523 . S
C834 C818 1.368 . S
C834 C830 1.368 . S
C834 C833 1.523 . S
H835 C810 0.950 . S
H836 C812 0.950 . S
H837 C813 0.949 . S
H838 C815 0.950 . S
H839 C817 0.950 . S
C840 C841 1.349 . S
C840 C842 1.327 . S
C840 H865 0.950 . S
C841 C840 1.349 . S
C841 C857 1.349 . S
C842 C840 1.327 . S
C842 C861 1.429 . S
C842 H866 0.950 . S
C843 C860 1.574 . S
C843 C862 1.368 . S
C843 H867 0.949 . S
H844 C848 0.949 . S
C845 C846 1.349 . S
C845 C847 1.327 . S
C845 H868 0.950 . S
C846 C845 1.349 . S
C846 C858 1.349 . S
C847 C845 1.327 . S
C847 C863 1.429 . S
C847 H869 0.950 . S
C848 H844 0.949 . S
C848 C856 1.574 . S
C848 C864 1.368 . S
H849 C857 0.950 . S
H850 C855 0.950 . S
H851 C856 0.949 . S
H852 C858 0.950 . S
H853 C859 0.950 . S
H854 C860 0.949 . S
C855 H850 0.950 . S
C855 C857 1.327 . S
C855 C861 1.429 . S
C856 C848 1.574 . S
C856 H851 0.949 . S
C856 C862 1.368 . S
C857 C841 1.349 . S
C857 H849 0.950 . S
C857 C855 1.327 . S
C858 C846 1.349 . S
C858 H852 0.950 . S
C858 C859 1.327 . S
C859 H853 0.950 . S
C859 C858 1.327 . S
C859 C863 1.429 . S
C860 C843 1.574 . S
C860 H854 0.949 . S
C860 C864 1.368 . S
C861 C842 1.429 . S
C861 C855 1.429 . S
C861 C862 1.523 . S
C862 C843 1.368 . S
C862 C856 1.368 . S
C862 C861 1.523 . S
C863 C847 1.429 . S
C863 C859 1.429 . S
C863 C864 1.523 . S
C864 C848 1.368 . S
C864 C860 1.368 . S
C864 C863 1.523 . S
H865 C840 0.950 . S
H866 C842 0.950 . S
H867 C843 0.949 . S
H868 C845 0.950 . S
H869 C847 0.950 . S
C870 C871 1.349 . S
C870 C872 1.327 . S
C870 H895 0.950 . S
C871 C870 1.349 . S
C871 C887 1.349 . S
C872 C870 1.327 . S
C872 C891 1.429 . S
C872 H896 0.950 . S
C873 C890 1.574 . S
C873 C892 1.368 . S
C873 H897 0.949 . S
H874 C878 0.949 . S
C875 C876 1.349 . S
C875 C877 1.327 . S
C875 H898 0.950 . S
C876 C875 1.349 . S
C876 C888 1.349 . S
C877 C875 1.327 . S
C877 C893 1.429 . S
C877 H899 0.950 . S
C878 H874 0.949 . S
C878 C886 1.574 . S
C878 C894 1.368 . S
H879 C887 0.950 . S
H880 C885 0.950 . S
H881 C886 0.949 . S
H882 C888 0.950 . S
H883 C889 0.950 . S
H884 C890 0.949 . S
C885 H880 0.950 . S
C885 C887 1.327 . S
C885 C891 1.429 . S
C886 C878 1.574 . S
C886 H881 0.949 . S
C886 C892 1.368 . S
C887 C871 1.349 . S
C887 H879 0.950 . S
C887 C885 1.327 . S
C888 C876 1.349 . S
C888 H882 0.950 . S
C888 C889 1.327 . S
C889 H883 0.950 . S
C889 C888 1.327 . S
C889 C893 1.429 . S
C890 C873 1.574 . S
C890 H884 0.949 . S
C890 C894 1.368 . S
C891 C872 1.429 . S
C891 C885 1.429 . S
C891 C892 1.523 . S
C892 C873 1.368 . S
C892 C886 1.368 . S
C892 C891 1.523 . S
C893 C877 1.429 . S
C893 C889 1.429 . S
C893 C894 1.523 . S
C894 C878 1.368 . S
C894 C890 1.368 . S
C894 C893 1.523 . S
H895 C870 0.950 . S
H896 C872 0.950 . S
H897 C873 0.949 . S
H898 C875 0.950 . S
H899 C877 0.950 . S
C181 C6 1.759 . S
C186 C99 1.634 . S
C211 C18 1.845 . S
C216 C133 1.709 . S
C246 C145 1.393 . S
C241 C28 1.492 . S
C271 C40 0.904 . S
C276 C179 0.867 . S
C306 C136 1.722 . S
C301 C9 1.864 . S
C336 C116 1.420 . S
C331 C16 1.516 . S
C366 C163 1.410 . S
C361 C30 1.514 . S
C396 C154 1.102 . S
C391 C42 1.179 . S
C421 C4 1.526 . S
C426 C162 1.437 . S
C456 C124 1.460 . S
C451 C33 1.594 . S
C481 C45 1.235 . S
C486 C100 1.143 . S
C511 C21 1.812 . S
C516 C157 1.705 . S
C546 C115 1.701 . S
C541 C57 1.823 . S
C571 C66 1.924 . S
C576 C137 1.783 . S
C601 C76 1.685 . S
C606 C142 1.588 . S
C631 C88 1.003 . S
C636 C175 0.974 . S
C661 C54 1.897 . S
C666 C120 1.770 . S
C696 C112 1.556 . S
C691 C64 1.647 . S
C726 C166 1.375 . S
C721 C78 1.433 . S
C756 C158 1.217 . S
C751 C93 1.294 . S
C781 C52 1.464 . S
C786 C178 1.400 . S
C816 C121 1.548 . S
C811 C81 1.673 . S
C846 C103 1.280 . S
C841 C90 1.372 . S
C871 C69 1.859 . S
C876 C141 1.756 . S
