# Generated by pormake.
# Topology the, (3,8)-cn, num edge types: 1
# Building blocks:
#     Node 0, Type 0, BuildingBlock: BETDAH_clean_linker_0, # of connection points: 3
#     Node 1, Type 0, BuildingBlock: BETDAH_clean_linker_0, # of connection points: 3
#     Node 2, Type 0, BuildingBlock: BETDAH_clean_linker_0, # of connection points: 3
#     Node 3, Type 0, BuildingBlock: BETDAH_clean_linker_0, # of connection points: 3
#     Node 4, Type 0, BuildingBlock: BETDAH_clean_linker_0, # of connection points: 3
#     Node 5, Type 0, BuildingBlock: BETDAH_clean_linker_0, # of connection points: 3
#     Node 6, Type 0, BuildingBlock: BETDAH_clean_linker_0, # of connection points: 3
#     Node 7, Type 0, BuildingBlock: BETDAH_clean_linker_0, # of connection points: 3
#     Node 8, Type 1, BuildingBlock: GIZVER_clean_sbu_0, # of connection points: 8
#     Node 9, Type 1, BuildingBlock: GIZVER_clean_sbu_0, # of connection points: 8
#     Node 10, Type 1, BuildingBlock: GIZVER_clean_sbu_0, # of connection points: 8
#     Edge 11, Type (0, 1), BuildingBlock: ZUJKAS_clean_linker_0, # of connection points: 2
#     Edge 12, Type (0, 1), BuildingBlock: ZUJKAS_clean_linker_0, # of connection points: 2
#     Edge 13, Type (0, 1), BuildingBlock: ZUJKAS_clean_linker_0, # of connection points: 2
#     Edge 14, Type (0, 1), BuildingBlock: ZUJKAS_clean_linker_0, # of connection points: 2
#     Edge 15, Type (0, 1), BuildingBlock: ZUJKAS_clean_linker_0, # of connection points: 2
#     Edge 16, Type (0, 1), BuildingBlock: ZUJKAS_clean_linker_0, # of connection points: 2
#     Edge 17, Type (0, 1), BuildingBlock: ZUJKAS_clean_linker_0, # of connection points: 2
#     Edge 18, Type (0, 1), BuildingBlock: ZUJKAS_clean_linker_0, # of connection points: 2
#     Edge 19, Type (0, 1), BuildingBlock: ZUJKAS_clean_linker_0, # of connection points: 2
#     Edge 20, Type (0, 1), BuildingBlock: ZUJKAS_clean_linker_0, # of connection points: 2
#     Edge 21, Type (0, 1), BuildingBlock: ZUJKAS_clean_linker_0, # of connection points: 2
#     Edge 22, Type (0, 1), BuildingBlock: ZUJKAS_clean_linker_0, # of connection points: 2
#     Edge 23, Type (0, 1), BuildingBlock: ZUJKAS_clean_linker_0, # of connection points: 2
#     Edge 24, Type (0, 1), BuildingBlock: ZUJKAS_clean_linker_0, # of connection points: 2
#     Edge 25, Type (0, 1), BuildingBlock: ZUJKAS_clean_linker_0, # of connection points: 2
#     Edge 26, Type (0, 1), BuildingBlock: ZUJKAS_clean_linker_0, # of connection points: 2
#     Edge 27, Type (0, 1), BuildingBlock: ZUJKAS_clean_linker_0, # of connection points: 2
#     Edge 28, Type (0, 1), BuildingBlock: ZUJKAS_clean_linker_0, # of connection points: 2
#     Edge 29, Type (0, 1), BuildingBlock: ZUJKAS_clean_linker_0, # of connection points: 2
#     Edge 30, Type (0, 1), BuildingBlock: ZUJKAS_clean_linker_0, # of connection points: 2
#     Edge 31, Type (0, 1), BuildingBlock: ZUJKAS_clean_linker_0, # of connection points: 2
#     Edge 32, Type (0, 1), BuildingBlock: ZUJKAS_clean_linker_0, # of connection points: 2
#     Edge 33, Type (0, 1), BuildingBlock: ZUJKAS_clean_linker_0, # of connection points: 2
#     Edge 34, Type (0, 1), BuildingBlock: ZUJKAS_clean_linker_0, # of connection points: 2
# Relax obj value: 0.072
# Max RMSD: 0.193
# Mean RMSD: 0.136
data_MOF--net-the--node1-GIZVER_clean_sbu_0--node2-BETDAH_clean_linker_0--edge1-ZUJKAS_clean_linker_0
_symmetry_space_group_name_H-M    P1
_symmetry_Int_Tables_number       1
_symmetry_cell_setting            triclinic
loop_
_symmetry_equiv_pos_as_xyz
'x, y, z'
_cell_length_a     51.822104
_cell_length_b     49.159507
_cell_length_c     46.883877
_cell_angle_alpha  87.093727
_cell_angle_beta   94.533513
_cell_angle_gamma 107.34647
loop_
_atom_site_label
_atom_site_type_symbol
_atom_site_fract_x
_atom_site_fract_y
_atom_site_fract_z
_atom_type_partial_charge
H0 H 0.40073 0.30955 0.35779 0.0
H1 H 0.38034 0.31992 0.44292 0.0
H2 H 0.36761 0.37733 0.37525 0.0
C3 C 0.39308 0.32098 0.37264 0.0
C4 C 0.38488 0.34492 0.36282 0.0
C5 C 0.39122 0.31146 0.40142 0.0
C6 C 0.38111 0.32627 0.42045 0.0
C7 C 0.37195 0.34936 0.41093 0.0
C8 C 0.37366 0.35863 0.38211 0.0
N9 N 0.36295 0.36414 0.43134 0.0
C10 C 0.33929 0.37196 0.42718 0.0
H11 H 0.75335 0.28267 0.35121 0.0
H12 H 0.78646 0.33595 0.27922 0.0
H13 H 0.70923 0.27233 0.26866 0.0
C14 C 0.7515 0.28943 0.32896 0.0
C15 C 0.72875 0.27492 0.31142 0.0
C16 C 0.77257 0.31143 0.3176 0.0
C17 C 0.77043 0.31906 0.28842 0.0
C18 C 0.74739 0.30565 0.27097 0.0
C19 C 0.7266 0.28342 0.28242 0.0
N20 N 0.74661 0.31361 0.24151 0.0
C21 C 0.72478 0.32035 0.22698 0.0
H22 H 0.75055 0.64799 0.32609 0.0
H23 H 0.78305 0.72587 0.37208 0.0
H24 H 0.72047 0.72006 0.30566 0.0
C25 C 0.75088 0.66965 0.32981 0.0
C26 C 0.73328 0.68191 0.31279 0.0
C27 C 0.76904 0.68512 0.35142 0.0
C28 C 0.76857 0.71293 0.35656 0.0
C29 C 0.7504 0.725 0.34084 0.0
C30 C 0.73301 0.70963 0.3189 0.0
N31 N 0.75314 0.75428 0.34386 0.0
C32 C 0.73524 0.76414 0.35805 0.0
H33 H 0.31575 0.71719 0.35383 0.0
H34 H 0.36774 0.74209 0.28399 0.0
H35 H 0.29698 0.6698 0.27607 0.0
C36 C 0.32065 0.71366 0.33255 0.0
C37 C 0.30325 0.69117 0.3165 0.0
C38 C 0.34397 0.7322 0.3211 0.0
C39 C 0.35004 0.72782 0.29335 0.0
C40 C 0.33359 0.70486 0.27757 0.0
C41 C 0.31025 0.68659 0.28909 0.0
N42 N 0.33911 0.70228 0.24893 0.0
C43 C 0.34829 0.68036 0.24032 0.0
H44 H 0.34602 0.73167 0.6886 0.0
H45 H 0.31353 0.67491 0.75856 0.0
H46 H 0.3904 0.73891 0.77094 0.0
C47 C 0.34797 0.72399 0.71053 0.0
C48 C 0.3707 0.73792 0.72838 0.0
C49 C 0.32707 0.70132 0.72118 0.0
C50 C 0.3294 0.69242 0.74995 0.0
C51 C 0.3524 0.70525 0.76771 0.0
C52 C 0.37303 0.72823 0.75699 0.0
N53 N 0.35323 0.69558 0.79669 0.0
C54 C 0.37629 0.69256 0.81218 0.0
H55 H 0.41309 0.28512 0.73199 0.0
H56 H 0.35141 0.32839 0.7199 0.0
H57 H 0.3524 0.26391 0.6622 0.0
C58 C 0.39557 0.28866 0.72002 0.0
C59 C 0.3843 0.27211 0.69596 0.0
C60 C 0.38381 0.30899 0.7292 0.0
C61 C 0.36052 0.31266 0.71356 0.0
C62 C 0.34921 0.29615 0.68948 0.0
C63 C 0.36114 0.27613 0.68106 0.0
N64 N 0.32583 0.29857 0.67286 0.0
C65 C 0.31178 0.31825 0.6757 0.0
H66 H 0.78726 0.30158 0.67857 0.0
H67 H 0.79697 0.35109 0.75417 0.0
H68 H 0.73276 0.27267 0.74589 0.0
C69 C 0.78064 0.30466 0.6992 0.0
C70 C 0.75781 0.28447 0.70985 0.0
C71 C 0.79515 0.32868 0.71509 0.0
C72 C 0.78614 0.33269 0.7417 0.0
C73 C 0.76353 0.31249 0.75262 0.0
C74 C 0.74983 0.28838 0.73691 0.0
N75 N 0.75499 0.31497 0.78009 0.0
C76 C 0.75164 0.33992 0.78968 0.0
H77 H 0.76471 0.62691 0.68678 0.0
H78 H 0.77335 0.68013 0.61051 0.0
H79 H 0.71882 0.68721 0.67206 0.0
C80 C 0.75909 0.64325 0.67355 0.0
C81 C 0.74013 0.65584 0.68271 0.0
C82 C 0.77089 0.65163 0.64736 0.0
C83 C 0.76397 0.67305 0.63053 0.0
C84 C 0.74545 0.68598 0.6392 0.0
C85 C 0.7334 0.6774 0.66536 0.0
N86 N 0.73999 0.70768 0.62081 0.0
C87 C 0.72058 0.72138 0.62388 0.0
Co88 Co 0.10387 0.48846 0.5348 0.0
Co89 Co 0.07363 0.46948 0.48835 0.0
Co90 Co 0.04862 0.51147 0.51692 0.0
O91 O 0.06576 0.4799 0.52351 0.0
H92 H 0.05466 0.46365 0.53383 0.0
O93 O 0.03139 0.54294 0.51063 0.0
Co94 Co 0.993 0.53492 0.50071 0.0
Co95 Co 0.02486 0.55309 0.54684 0.0
H96 H 0.04235 0.5592 0.50022 0.0
O97 O 0.08216 0.43591 0.48297 0.0
O98 O 0.11091 0.47802 0.4965 0.0
O99 O 0.06868 0.49322 0.45561 0.0
O100 O 0.07086 0.52925 0.48328 0.0
O101 O 0.02009 0.48646 0.49051 0.0
O102 O 0.95835 0.53099 0.49032 0.0
O103 O 0.99366 0.57086 0.48872 0.0
O104 O 0.98703 0.49594 0.51086 0.0
O105 O 0.02626 0.49363 0.55037 0.0
O106 O 0.03123 0.52939 0.57919 0.0
O107 O 0.98737 0.54302 0.54022 0.0
O108 O 0.01485 0.58566 0.55373 0.0
C109 C 0.12871 0.46679 0.55509 0.0
C110 C 0.10237 0.54202 0.53897 0.0
C111 C 0.07434 0.51978 0.45938 0.0
C112 C 0.10676 0.45214 0.48809 0.0
C113 C 0.96775 0.55808 0.48405 0.0
C114 C 0.99494 0.48074 0.49438 0.0
C115 C 0.02411 0.50286 0.57483 0.0
C116 C 0.99059 0.56837 0.54945 0.0
O117 O 0.13824 0.49336 0.54693 0.0
O118 O 0.10308 0.45338 0.5494 0.0
O119 O 0.07732 0.53653 0.54328 0.0
O120 O 0.10961 0.52659 0.5222 0.0
Co121 Co 0.56873 0.95314 0.5036 0.0
Co122 Co 0.58855 0.98096 0.55074 0.0
Co123 Co 0.54592 0.00881 0.52015 0.0
O124 O 0.57597 0.99203 0.51477 0.0
H125 H 0.59065 1.00507 0.505 0.0
O126 O 0.51593 0.02566 0.52585 0.0
Co127 Co 0.52383 0.06405 0.53901 0.0
Co128 Co 0.50374 0.03886 0.49108 0.0
H129 H 0.50107 0.0124 0.53516 0.0
O130 O 0.62101 0.9714 0.55742 0.0
O131 O 0.58024 0.94261 0.54267 0.0
O132 O 0.56745 0.98168 0.58255 0.0
O133 O 0.53149 0.98214 0.55366 0.0
O134 O 0.57138 0.0368 0.54665 0.0
O135 O 0.52838 0.0983 0.55261 0.0
O136 O 0.49129 0.06017 0.55337 0.0
O137 O 0.55935 0.07313 0.52688 0.0
O138 O 0.56044 0.0354 0.48659 0.0
O139 O 0.52496 0.04012 0.45902 0.0
O140 O 0.51057 0.07655 0.50125 0.0
O141 O 0.47061 0.04652 0.48556 0.0
C142 C 0.59037 0.9298 0.486 0.0
C143 C 0.51651 0.95393 0.49715 0.0
C144 C 0.542 0.97615 0.57791 0.0
C145 C 0.60527 0.94601 0.55187 0.0
C146 C 0.50371 0.08665 0.55989 0.0
C147 C 0.57605 0.06362 0.54256 0.0
C148 C 0.55018 0.04335 0.46303 0.0
C149 C 0.48524 0.07203 0.49237 0.0
O150 O 0.56528 0.91807 0.49201 0.0
O151 O 0.60194 0.95667 0.49146 0.0
O152 O 0.52072 0.98075 0.49341 0.0
O153 O 0.53266 0.94463 0.51391 0.0
Co154 Co 0.51487 0.5089 0.07786 0.0
Co155 Co 0.50061 0.45968 0.05317 0.0
Co156 Co 0.54857 0.50445 0.01976 0.0
O157 O 0.51407 0.49721 0.03934 0.0
H158 H 0.50027 0.50229 0.02709 0.0
O159 O 0.58321 0.51174 1.00036 0.0
Co160 Co 0.58316 0.50037 0.96195 0.0
Co161 Co 0.59682 0.54946 0.98701 0.0
H162 H 0.59697 0.50666 0.01279 0.0
O163 O 0.46482 0.44334 0.06431 0.0
O164 O 0.50061 0.4689 0.09117 0.0
O165 O 0.5251 0.43702 0.05295 0.0
O166 O 0.56089 0.47372 0.04266 0.0
O167 O 0.52794 0.47584 0.99037 0.0
O168 O 0.58639 0.48909 0.92723 0.0
O169 O 0.61699 0.49695 0.96508 0.0
O170 O 0.54745 0.5018 0.95406 0.0
O171 O 0.53629 0.53519 0.99674 0.0
O172 O 0.57237 0.57204 0.98775 0.0
O173 O 0.59631 0.54051 0.94886 0.0
O174 O 0.63243 0.56618 0.9751 0.0
C175 C 0.4889 0.52154 0.10138 0.0
C176 C 0.56956 0.52642 0.07589 0.0
C177 C 0.55051 0.44803 0.05185 0.0
C178 C 0.47551 0.4533 0.08902 0.0
C179 C 0.61006 0.48892 0.93874 0.0
C180 C 0.52845 0.48138 0.96346 0.0
C181 C 0.5469 0.56105 0.98812 0.0
C182 C 0.62125 0.55649 0.95046 0.0
O183 O 0.51244 0.52063 0.11259 0.0
O184 O 0.48145 0.5135 0.0751 0.0
O185 O 0.56921 0.53296 0.04918 0.0
O186 O 0.55035 0.50638 0.08554 0.0
H187 H 0.29087 0.3352 0.43734 0.0
H188 H 0.24917 0.34711 0.44486 0.0
H189 H 0.29012 0.43597 0.42756 0.0
H190 H 0.33172 0.42393 0.41976 0.0
H191 H 0.24388 0.38216 0.48669 0.0
H192 H 0.21862 0.42339 0.37909 0.0
H193 H 0.24206 0.40256 0.38501 0.0
H194 H 0.25287 0.43992 0.39255 0.0
C195 C 0.29065 0.35716 0.43452 0.0
C196 C 0.31412 0.37869 0.42768 0.0
C197 C 0.26695 0.36396 0.43895 0.0
C198 C 0.26645 0.39238 0.43649 0.0
C199 C 0.28988 0.41384 0.42899 0.0
H200 H 0.16078 0.48088 0.49555 0.0
H201 H 0.19903 0.46509 0.48347 0.0
C202 C 0.3136 0.40701 0.4246 0.0
C203 C 0.24208 0.3998 0.44379 0.0
H204 H 0.19505 0.43241 0.4176 0.0
C205 C 0.23316 0.39304 0.47153 0.0
C206 C 0.22792 0.41371 0.4239 0.0
C207 C 0.23565 0.4201 0.39338 0.0
C208 C 0.21088 0.40052 0.48011 0.0
C209 C 0.19727 0.41507 0.46046 0.0
C210 C 0.2058 0.42142 0.43261 0.0
C211 C 0.17416 0.42403 0.4686 0.0
C212 C 0.20173 0.3926 0.50996 0.0
C213 C 0.14767 0.40591 0.46452 0.0
C214 C 0.12575 0.41478 0.47145 0.0
C215 C 0.13002 0.44198 0.48251 0.0
C216 C 0.15674 0.45984 0.48704 0.0
C217 C 0.17862 0.45092 0.4801 0.0
H218 H 0.21684 0.38543 0.52407 0.0
H219 H 0.19778 0.41093 0.51974 0.0
H220 H 0.18237 0.37508 0.5088 0.0
H221 H 0.14397 0.38503 0.45571 0.0
H222 H 0.10546 0.40049 0.46772 0.0
H223 H 0.70047 0.27188 0.35871 0.0
H224 H 0.67018 0.22926 0.38076 0.0
H225 H 0.68252 0.17815 0.31388 0.0
H226 H 0.71174 0.22108 0.29105 0.0
H227 H 0.63234 0.16003 0.32601 0.0
H228 H 0.69424 0.17136 0.42855 0.0
H229 H 0.68306 0.20221 0.42057 0.0
H230 H 0.70554 0.19354 0.39747 0.0
C231 C 0.69645 0.25155 0.34864 0.0
C232 C 0.70844 0.24969 0.32326 0.0
C233 C 0.67941 0.22714 0.3614 0.0
C234 C 0.67471 0.20024 0.34955 0.0
C235 C 0.68598 0.19856 0.32362 0.0
H236 H 0.60424 0.04991 0.45836 0.0
H237 H 0.63513 0.08449 0.42775 0.0
C238 C 0.70259 0.22308 0.31053 0.0
C239 C 0.65803 0.17395 0.36415 0.0
H240 H 0.6494 0.1389 0.4291 0.0
C241 C 0.63626 0.15527 0.34849 0.0
C242 C 0.6635 0.16711 0.3933 0.0
C243 C 0.68805 0.18445 0.41082 0.0
C244 C 0.61926 0.13069 0.36138 0.0
C245 C 0.62345 0.12513 0.39108 0.0
C246 C 0.64584 0.14321 0.40645 0.0
C247 C 0.60425 0.10166 0.40703 0.0
C248 C 0.59724 0.11083 0.34282 0.0
C249 C 0.57652 0.09938 0.4054 0.0
C250 C 0.55878 0.07925 0.42237 0.0
C251 C 0.56843 0.06136 0.44205 0.0
C252 C 0.59612 0.06327 0.44338 0.0
C253 C 0.61381 0.08312 0.42595 0.0
H254 H 0.60312 0.11172 0.32043 0.0
H255 H 0.59258 0.08842 0.35102 0.0
H256 H 0.57858 0.11755 0.34229 0.0
H257 H 0.56865 0.11396 0.39183 0.0
H258 H 0.53768 0.07876 0.42105 0.0
H259 H 0.78888 0.6925 0.40777 0.0
H260 H 0.82467 0.67553 0.43251 0.0
H261 H 0.83045 0.63187 0.35689 0.0
H262 H 0.79616 0.65032 0.33137 0.0
H263 H 0.82869 0.62498 0.44731 0.0
H264 H 0.90831 0.67398 0.37292 0.0
H265 H 0.8767 0.68253 0.37113 0.0
H266 H 0.87891 0.65118 0.35432 0.0
C267 C 0.79803 0.67967 0.39617 0.0
C268 C 0.7896 0.67309 0.36735 0.0
C269 C 0.81841 0.66976 0.41049 0.0
C270 C 0.83084 0.65294 0.39644 0.0
C271 C 0.82185 0.64552 0.36803 0.0
H272 H 0.91366 0.53635 0.46991 0.0
H273 H 0.88186 0.56171 0.45124 0.0
C274 C 0.80174 0.65569 0.35358 0.0
C275 C 0.85275 0.6426 0.4116 0.0
H276 H 0.91605 0.63675 0.40454 0.0
C277 C 0.84789 0.62784 0.43805 0.0
C278 C 0.87821 0.64691 0.40008 0.0
C279 C 0.88597 0.66481 0.37323 0.0
C280 C 0.86717 0.61621 0.45253 0.0
C281 C 0.89169 0.61857 0.43982 0.0
C282 C 0.89709 0.63446 0.41409 0.0
C283 C 0.9113 0.60352 0.45205 0.0
C284 C 0.86111 0.60166 0.48141 0.0
C285 C 0.93879 0.61839 0.45803 0.0
C286 C 0.95727 0.6038 0.46846 0.0
C287 C 0.94862 0.57403 0.47293 0.0
C288 C 0.9211 0.55928 0.46685 0.0
C289 C 0.90274 0.57382 0.45639 0.0
H290 H 0.84692 0.61008 0.4923 0.0
H291 H 0.85133 0.57852 0.4785 0.0
H292 H 0.87988 0.60443 0.49557 0.0
H293 H 0.94594 0.64131 0.45468 0.0
H294 H 0.97829 0.61582 0.47301 0.0
H295 H 0.3626 0.73159 0.37723 0.0
H296 H 0.39079 0.77186 0.4052 0.0
H297 H 0.39315 0.82791 0.33108 0.0
H298 H 0.36483 0.78775 0.30294 0.0
H299 H 0.44551 0.811 0.38802 0.0
H300 H 0.3665 0.86483 0.39992 0.0
H301 H 0.35796 0.8272 0.39318 0.0
H302 H 0.36976 0.85292 0.36503 0.0
C303 C 0.36899 0.75252 0.36694 0.0
C304 C 0.36147 0.75652 0.33791 0.0
C305 C 0.38514 0.77544 0.3829 0.0
C306 C 0.39379 0.80283 0.37023 0.0
C307 C 0.38645 0.80695 0.34126 0.0
H308 H 0.48905 0.96425 0.44711 0.0
H309 H 0.45895 0.92857 0.41504 0.0
C310 C 0.37048 0.78397 0.32519 0.0
C311 C 0.41103 0.82689 0.3873 0.0
H312 H 0.41013 0.88648 0.42117 0.0
C313 C 0.43785 0.82757 0.39523 0.0
C314 C 0.40099 0.84858 0.39631 0.0
C315 C 0.37219 0.84851 0.38838 0.0
C316 C 0.45493 0.84931 0.41219 0.0
C317 C 0.44461 0.87047 0.4222 0.0
C318 C 0.41794 0.87017 0.41364 0.0
C319 C 0.461 0.89235 0.44238 0.0
C320 C 0.48396 0.84954 0.41897 0.0
C321 C 0.47124 0.88389 0.46883 0.0
C322 C 0.48846 0.90409 0.487 0.0
C323 C 0.49553 0.93329 0.47934 0.0
C324 C 0.48401 0.94192 0.45359 0.0
C325 C 0.46689 0.92157 0.43523 0.0
H326 H 0.4908 0.83784 0.40285 0.0
H327 H 0.49781 0.87165 0.41982 0.0
H328 H 0.48568 0.83881 0.44013 0.0
H329 H 0.46632 0.86154 0.47521 0.0
H330 H 0.49668 0.89674 0.50686 0.0
H331 H 0.32526 0.68465 0.66606 0.0
H332 H 0.28524 0.66015 0.63562 0.0
H333 H 0.23395 0.66079 0.70348 0.0
H334 H 0.27381 0.68564 0.73392 0.0
H335 H 0.24658 0.6058 0.64997 0.0
H336 H 0.1987 0.6931 0.63158 0.0
H337 H 0.23404 0.69968 0.64323 0.0
H338 H 0.20842 0.68564 0.66814 0.0
C339 C 0.30543 0.67991 0.67437 0.0
C340 C 0.30272 0.6871 0.7024 0.0
C341 C 0.28261 0.66581 0.65701 0.0
C342 C 0.25663 0.65893 0.6672 0.0
C343 C 0.25379 0.66624 0.69507 0.0
H344 H 0.0971 0.56705 0.58855 0.0
H345 H 0.13386 0.59601 0.62044 0.0
C346 C 0.27661 0.68019 0.71252 0.0
C347 C 0.23267 0.64295 0.64907 0.0
H348 H 0.1743 0.64817 0.61301 0.0
C349 C 0.23079 0.61506 0.64185 0.0
C350 C 0.21196 0.65499 0.63882 0.0
C351 C 0.21331 0.68507 0.6456 0.0
C352 C 0.20875 0.59883 0.62461 0.0
C353 C 0.18837 0.61111 0.61367 0.0
C354 C 0.18998 0.63885 0.62132 0.0
C355 C 0.1658 0.59569 0.59349 0.0
C356 C 0.20734 0.56851 0.61861 0.0
C357 C 0.17148 0.58686 0.56733 0.0
C358 C 0.15066 0.57032 0.54924 0.0
C359 C 0.12361 0.56249 0.55673 0.0
C360 C 0.11773 0.57267 0.58221 0.0
C361 C 0.1387 0.58915 0.60046 0.0
H362 H 0.21962 0.55977 0.63503 0.0
H363 H 0.18612 0.5544 0.6179 0.0
H364 H 0.21552 0.56799 0.59754 0.0
H365 H 0.19215 0.59231 0.56114 0.0
H366 H 0.15588 0.56317 0.5296 0.0
H367 H 0.43804 0.27814 0.68991 0.0
H368 H 0.45724 0.2449 0.66792 0.0
H369 H 0.37751 0.18497 0.65659 0.0
H370 H 0.35825 0.21796 0.67848 0.0
H371 H 0.45623 0.18877 0.68191 0.0
H372 H 0.403 0.1951 0.57545 0.0
H373 H 0.40501 0.21988 0.60325 0.0
H374 H 0.38085 0.18498 0.60424 0.0
C375 C 0.42467 0.25773 0.68308 0.0
C376 C 0.39657 0.25086 0.68564 0.0
C377 C 0.43563 0.23882 0.67035 0.0
C378 C 0.41872 0.21273 0.65993 0.0
C379 C 0.39086 0.2053 0.66369 0.0
H380 H 0.45037 0.07288 0.57324 0.0
H381 H 0.42888 0.10254 0.59795 0.0
C382 C 0.3799 0.22416 0.67631 0.0
C383 C 0.43014 0.1933 0.64508 0.0
H384 H 0.42675 0.16054 0.5816 0.0
C385 C 0.44981 0.18265 0.65997 0.0
C386 C 0.42176 0.18529 0.6164 0.0
C387 C 0.40169 0.19708 0.59876 0.0
C388 C 0.4611 0.164 0.64712 0.0
C389 C 0.45273 0.15603 0.61849 0.0
C390 C 0.43295 0.1665 0.60362 0.0
C391 C 0.46536 0.13803 0.60323 0.0
C392 C 0.48177 0.15276 0.66435 0.0
C393 C 0.49277 0.14836 0.59755 0.0
C394 C 0.50501 0.13161 0.58346 0.0
C395 C 0.49011 0.10406 0.57467 0.0
C396 C 0.46247 0.09386 0.57996 0.0
C397 C 0.45017 0.1108 0.594 0.0
H398 H 0.48112 0.15517 0.6877 0.0
H399 H 0.47849 0.12991 0.66014 0.0
H400 H 0.50234 0.16487 0.65806 0.0
H401 H 0.50475 0.1695 0.604 0.0
H402 H 0.52627 0.14031 0.57958 0.0
H403 H 0.84395 0.35151 0.7447 0.0
H404 H 0.88596 0.38238 0.72591 0.0
H405 H 0.84521 0.38133 0.64198 0.0
H406 H 0.80309 0.35094 0.66066 0.0
H407 H 0.91416 0.36963 0.68084 0.0
H408 H 0.88229 0.46689 0.65587 0.0
H409 H 0.86449 0.43853 0.67953 0.0
H410 H 0.85916 0.43489 0.64139 0.0
C411 C 0.84383 0.35827 0.72235 0.0
C412 C 0.82017 0.34885 0.70418 0.0
C413 C 0.86788 0.37571 0.71162 0.0
C414 C 0.86863 0.38433 0.68263 0.0
C415 C 0.84499 0.37523 0.66451 0.0
H416 H 0.99724 0.44597 0.56937 0.0
H417 H 0.96208 0.41664 0.59902 0.0
C418 C 0.821 0.35769 0.67517 0.0
C419 C 0.89429 0.40202 0.67097 0.0
H420 H 0.92279 0.46533 0.63621 0.0
C421 C 0.91618 0.39067 0.6713 0.0
C422 C 0.89697 0.42957 0.65885 0.0
C423 C 0.87459 0.44337 0.65906 0.0
C424 C 0.94039 0.40578 0.65893 0.0
C425 C 0.9426 0.43281 0.64569 0.0
C426 C 0.92102 0.44453 0.64623 0.0
C427 C 0.96663 0.44902 0.63021 0.0
C428 C 0.96335 0.39271 0.66014 0.0
C429 C 0.98118 0.47684 0.63808 0.0
C430 C 1.0013 0.49373 0.62114 0.0
C431 C 1.0071 0.48321 0.59577 0.0
C432 C 0.99346 0.45476 0.58879 0.0
C433 C 0.97334 0.43789 0.60579 0.0
H434 H 0.96152 0.37625 0.67762 0.0
H435 H 0.96296 0.38228 0.6396 0.0
H436 H 0.98325 0.40922 0.66334 0.0
H437 H 0.97631 0.48586 0.65682 0.0
H438 H 0.01136 0.51549 0.62723 0.0
H439 H 0.72216 0.76641 0.6553 0.0
H440 H 0.69756 0.80157 0.64296 0.0
H441 H 0.65539 0.75141 0.57127 0.0
H442 H 0.68002 0.71637 0.58361 0.0
H443 H 0.68272 0.80892 0.55715 0.0
H444 H 0.61771 0.80007 0.6479 0.0
H445 H 0.65261 0.8033 0.65824 0.0
H446 H 0.63201 0.77222 0.63991 0.0
C447 C 0.70697 0.76256 0.63751 0.0
C448 C 0.7025 0.73871 0.62059 0.0
C449 C 0.693 0.78258 0.63044 0.0
C450 C 0.67452 0.77894 0.60632 0.0
C451 C 0.66943 0.75449 0.59004 0.0
H452 H 0.57578 0.88985 0.54986 0.0
H453 H 0.59194 0.84832 0.5609 0.0
C454 C 0.68332 0.73446 0.59719 0.0
C455 C 0.66251 0.80187 0.59651 0.0
H456 H 0.62263 0.84074 0.61653 0.0
C457 C 0.66941 0.81575 0.57002 0.0
C458 C 0.64502 0.81055 0.61326 0.0
C459 C 0.63615 0.79564 0.64131 0.0
C460 C 0.65989 0.83868 0.56023 0.0
C461 C 0.6432 0.84796 0.57746 0.0
C462 C 0.63563 0.83361 0.60353 0.0
C463 C 0.63382 0.87297 0.56909 0.0
C464 C 0.66776 0.85295 0.53163 0.0
C465 C 0.65214 0.90049 0.56988 0.0
C466 C 0.64298 0.9243 0.5638 0.0
C467 C 0.61535 0.92091 0.55675 0.0
C468 C 0.59718 0.89321 0.55529 0.0
C469 C 0.60633 0.86945 0.5616 0.0
H470 H 0.67629 0.83991 0.51854 0.0
H471 H 0.64999 0.85708 0.5194 0.0
H472 H 0.68331 0.87382 0.53512 0.0
H473 H 0.67343 0.90355 0.57581 0.0
H474 H 0.65748 0.94533 0.56498 0.0
H475 H 0.43652 0.29785 0.38856 0.0
H476 H 0.45126 0.25687 0.40651 0.0
H477 H 0.38112 0.22763 0.45622 0.0
H478 H 0.36614 0.26841 0.43825 0.0
H479 H 0.42952 0.22625 0.48703 0.0
H480 H 0.4169 0.17413 0.38241 0.0
H481 H 0.43781 0.21056 0.3821 0.0
H482 H 0.40248 0.2024 0.38832 0.0
C483 C 0.42406 0.28252 0.40304 0.0
C484 C 0.40009 0.28635 0.41187 0.0
C485 C 0.43254 0.25916 0.41333 0.0
C486 C 0.41713 0.23906 0.43247 0.0
C487 C 0.39332 0.2429 0.44149 0.0
H488 H 0.43421 0.07053 0.471 0.0
H489 H 0.41657 0.11092 0.4594 0.0
C490 C 0.38483 0.26626 0.43124 0.0
C491 C 0.4258 0.21399 0.44307 0.0
H492 H 0.43917 0.15483 0.42083 0.0
C493 C 0.43157 0.21056 0.47261 0.0
C494 C 0.42805 0.19334 0.42425 0.0
C495 C 0.42075 0.19504 0.39254 0.0
C496 C 0.44009 0.18732 0.48373 0.0
C497 C 0.44321 0.16724 0.46475 0.0
C498 C 0.43694 0.17039 0.43532 0.0
C499 C 0.45307 0.14277 0.47472 0.0
C500 C 0.44535 0.18421 0.51568 0.0
C501 C 0.47937 0.14726 0.48751 0.0
C502 C 0.48958 0.1242 0.4941 0.0
C503 C 0.47368 0.09623 0.48793 0.0
C504 C 0.44704 0.09178 0.47597 0.0
C505 C 0.4369 0.11483 0.46931 0.0
H506 H 0.43549 0.19691 0.52763 0.0
H507 H 0.43795 0.16154 0.52297 0.0
H508 H 0.46749 0.19193 0.52123 0.0
H509 H 0.49235 0.16868 0.49146 0.0
H510 H 0.51018 0.12841 0.5033 0.0
H511 H 0.77459 0.33062 0.37177 0.0
H512 H 0.81473 0.35597 0.40152 0.0
H513 H 0.86583 0.3503 0.33516 0.0
H514 H 0.82578 0.32521 0.30522 0.0
H515 H 0.85929 0.34032 0.42281 0.0
H516 H 0.89042 0.43501 0.34957 0.0
H517 H 0.85771 0.40866 0.34538 0.0
H518 H 0.88719 0.40181 0.33324 0.0
C519 C 0.79439 0.33467 0.36358 0.0
C520 C 0.79698 0.32614 0.33603 0.0
C521 C 0.81731 0.34921 0.38056 0.0
C522 C 0.84327 0.35551 0.37037 0.0
C523 C 0.84598 0.34636 0.34318 0.0
H524 H 1.00181 0.4525 0.44778 0.0
H525 H 0.96635 0.41927 0.41801 0.0
C526 C 0.82307 0.33199 0.32611 0.0
C527 C 0.86744 0.37164 0.38827 0.0
H528 H 0.92015 0.43318 0.39006 0.0
C529 C 0.87262 0.3606 0.41562 0.0
C530 C 0.88487 0.3981 0.37886 0.0
C531 C 0.87971 0.41178 0.35028 0.0
C532 C 0.89467 0.37532 0.43383 0.0
C533 C 0.91185 0.4019 0.42455 0.0
C534 C 0.90704 0.41268 0.39701 0.0
C535 C 0.93371 0.41989 0.44378 0.0
C536 C 0.89944 0.36236 0.46289 0.0
C537 C 0.92709 0.43113 0.46814 0.0
C538 C 0.94718 0.45014 0.48503 0.0
C539 C 0.97437 0.45837 0.47792 0.0
C540 C 0.9811 0.44649 0.45392 0.0
C541 C 0.96088 0.42757 0.43686 0.0
H542 H 0.88931 0.339 0.46377 0.0
H543 H 0.92143 0.36634 0.46859 0.0
H544 H 0.89102 0.37224 0.47924 0.0
H545 H 0.90621 0.42587 0.4736 0.0
H546 H 0.94126 0.45888 0.50334 0.0
H547 H 0.75396 0.81743 0.37673 0.0
H548 H 0.72904 0.84411 0.40049 0.0
H549 H 0.65754 0.77137 0.39563 0.0
H550 H 0.68272 0.74451 0.372 0.0
H551 H 0.68318 0.85798 0.37898 0.0
H552 H 0.66307 0.79315 0.47974 0.0
H553 H 0.68771 0.79007 0.4559 0.0
H554 H 0.65222 0.77329 0.44758 0.0
C555 C 0.73297 0.80712 0.38098 0.0
C556 C 0.72018 0.77901 0.37276 0.0
C557 C 0.71876 0.82235 0.3945 0.0
C558 C 0.6915 0.80968 0.40021 0.0
C559 C 0.67869 0.78142 0.39199 0.0
H560 H 0.57159 0.87374 0.47161 0.0
H561 H 0.59633 0.84491 0.45134 0.0
C562 C 0.69297 0.76616 0.37838 0.0
C563 C 0.67638 0.82666 0.41353 0.0
H564 H 0.6417 0.82959 0.47183 0.0
C565 C 0.67425 0.85185 0.39937 0.0
C566 C 0.66463 0.81863 0.4401 0.0
C567 C 0.66716 0.79245 0.45691 0.0
C568 C 0.66046 0.86902 0.41081 0.0
C569 C 0.64887 0.86112 0.43747 0.0
C570 C 0.65079 0.83579 0.45154 0.0
C571 C 0.63429 0.87863 0.4508 0.0
C572 C 0.65786 0.89511 0.39384 0.0
C573 C 0.64749 0.90711 0.45784 0.0
C574 C 0.63334 0.92378 0.46932 0.0
C575 C 0.60571 0.91223 0.4742 0.0
C576 C 0.59277 0.88346 0.46789 0.0
C577 C 0.60692 0.86686 0.45638 0.0
H578 H 0.66142 0.89403 0.37092 0.0
H579 H 0.63748 0.8978 0.39524 0.0
H580 H 0.67318 0.91428 0.40266 0.0
H581 H 0.66878 0.91648 0.45439 0.0
H582 H 0.64404 0.9457 0.47432 0.0
H583 H 0.27892 0.63344 0.3122 0.0
H584 H 0.23608 0.60504 0.33111 0.0
H585 H 0.22651 0.68049 0.36645 0.0
H586 H 0.26841 0.70915 0.34653 0.0
H587 H 0.22323 0.59632 0.3862 0.0
H588 H 0.15275 0.64763 0.32662 0.0
H589 H 0.18708 0.65355 0.31699 0.0
H590 H 0.1802 0.67273 0.34577 0.0
C591 C 0.26747 0.64406 0.32359 0.0
C592 C 0.27721 0.6736 0.32788 0.0
C593 C 0.24305 0.62778 0.33451 0.0
C594 C 0.22781 0.64069 0.34979 0.0
C595 C 0.23753 0.67012 0.35417 0.0
H596 H 0.09864 0.5774 0.46363 0.0
H597 H 0.13404 0.60731 0.43435 0.0
C598 C 0.26181 0.68641 0.34316 0.0
C599 C 0.20255 0.62323 0.36254 0.0
H600 H 0.1355 0.61745 0.36684 0.0
C601 C 0.20401 0.60077 0.3817 0.0
C602 C 0.17743 0.62906 0.3567 0.0
C603 C 0.17415 0.65187 0.33518 0.0
C604 C 0.18125 0.58446 0.39569 0.0
C605 C 0.15636 0.59068 0.39028 0.0
C606 C 0.15471 0.6129 0.37097 0.0
C607 C 0.13201 0.57419 0.40489 0.0
C608 C 0.18402 0.56099 0.41666 0.0
C609 C 0.11847 0.54609 0.39722 0.0
C610 C 0.09816 0.52897 0.41376 0.0
C611 C 0.09113 0.53961 0.43842 0.0
C612 C 0.10351 0.56846 0.44484 0.0
C613 C 0.12379 0.5856 0.42818 0.0
H614 H 0.20547 0.56136 0.42131 0.0
H615 H 0.17524 0.56286 0.43706 0.0
H616 H 0.17258 0.54002 0.40767 0.0
H617 H 0.12447 0.53702 0.37917 0.0
H618 H 0.08901 0.50693 0.40803 0.0
H619 H 0.38568 0.79152 0.74924 0.0
H620 H 0.41379 0.83539 0.72676 0.0
H621 H 0.42962 0.78596 0.66035 0.0
H622 H 0.40036 0.74241 0.68199 0.0
H623 H 0.46385 0.85631 0.71494 0.0
H624 H 0.40264 0.84136 0.61193 0.0
H625 H 0.39206 0.81893 0.64304 0.0
H626 H 0.41559 0.81175 0.62025 0.0
C627 C 0.39541 0.79011 0.72998 0.0
C628 C 0.3908 0.7637 0.71721 0.0
C629 C 0.41138 0.81516 0.71707 0.0
C630 C 0.42324 0.8142 0.69132 0.0
C631 C 0.4199 0.78751 0.67956 0.0
H632 H 0.55647 0.94257 0.62052 0.0
H633 H 0.5268 0.90595 0.64964 0.0
C634 C 0.40347 0.76257 0.6921 0.0
C635 C 0.43892 0.84101 0.67668 0.0
H636 H 0.44642 0.87588 0.61156 0.0
C637 C 0.45984 0.86071 0.69239 0.0
C638 C 0.4333 0.84737 0.64743 0.0
C639 C 0.40947 0.82888 0.62981 0.0
C640 C 0.47586 0.88589 0.67947 0.0
C641 C 0.47162 0.89107 0.6497 0.0
C642 C 0.45006 0.8719 0.63427 0.0
C643 C 0.48991 0.91537 0.63376 0.0
C644 C 0.49687 0.90678 0.69811 0.0
C645 C 0.47923 0.93277 0.61446 0.0
C646 C 0.49621 0.95342 0.59708 0.0
C647 C 0.52429 0.95732 0.59885 0.0
C648 C 0.53502 0.94057 0.61889 0.0
C649 C 0.51801 0.91962 0.6358 0.0
H650 H 0.49067 0.90554 0.7204 0.0
H651 H 0.51625 0.9014 0.69894 0.0
H652 H 0.50039 0.92905 0.68977 0.0
H653 H 0.45762 0.92991 0.61233 0.0
H654 H 0.48728 0.96585 0.58179 0.0
H655 H 0.32335 0.37592 0.67648 0.0
H656 H 0.29177 0.40362 0.66168 0.0
H657 H 0.22718 0.3253 0.64862 0.0
H658 H 0.25842 0.29793 0.66416 0.0
H659 H 0.26647 0.40365 0.61013 0.0
H660 H 0.18819 0.36945 0.68868 0.0
H661 H 0.22049 0.3624 0.69425 0.0
H662 H 0.19332 0.33943 0.6724 0.0
C663 C 0.30218 0.36481 0.67131 0.0
C664 C 0.29303 0.33495 0.67186 0.0
C665 C 0.28421 0.38056 0.6627 0.0
C666 C 0.2569 0.36659 0.65445 0.0
C667 C 0.24782 0.33665 0.65568 0.0
H668 H 0.12035 0.4093 0.56507 0.0
H669 H 0.15211 0.38592 0.58939 0.0
C670 C 0.2657 0.32101 0.66445 0.0
C671 C 0.23857 0.38295 0.6418 0.0
H672 H 0.17535 0.39053 0.64453 0.0
C673 C 0.24668 0.40104 0.6179 0.0
C674 C 0.21268 0.37955 0.65182 0.0
C675 C 0.20328 0.36188 0.67838 0.0
C676 C 0.22938 0.41503 0.6032 0.0
C677 C 0.20321 0.41103 0.61278 0.0
C678 C 0.19525 0.39333 0.63696 0.0
C679 C 0.18389 0.4252 0.59819 0.0
C680 C 0.23928 0.43347 0.57722 0.0
C681 C 0.19101 0.45502 0.59536 0.0
C682 C 0.17306 0.46835 0.5813 0.0
C683 C 0.14735 0.45219 0.57014 0.0
C684 C 0.13997 0.42234 0.57347 0.0
C685 C 0.1581 0.40897 0.58736 0.0
H686 H 0.25457 0.42627 0.56687 0.0
H687 H 0.22247 0.43358 0.56112 0.0
H688 H 0.2491 0.4557 0.584 0.0
H689 H 0.2105 0.46805 0.60409 0.0
H690 H 0.17932 0.49141 0.57939 0.0
H691 H 0.7028 0.26254 0.70226 0.0
H692 H 0.67679 0.22162 0.67425 0.0
H693 H 0.75094 0.20898 0.65028 0.0
H694 H 0.77724 0.24999 0.67844 0.0
H695 H 0.71379 0.20655 0.6044 0.0
H696 H 0.66499 0.13735 0.69377 0.0
H697 H 0.66 0.17197 0.69321 0.0
H698 H 0.69367 0.16864 0.69943 0.0
C699 C 0.71362 0.25084 0.69137 0.0
C700 C 0.74212 0.25944 0.69277 0.0
C701 C 0.6987 0.2274 0.67539 0.0
C702 C 0.71191 0.21188 0.66063 0.0
C703 C 0.74034 0.22055 0.66167 0.0
H704 H 0.61396 0.05194 0.58177 0.0
H705 H 0.65038 0.08632 0.60931 0.0
C706 C 0.75532 0.24407 0.67765 0.0
C707 C 0.69587 0.18735 0.64324 0.0
H708 H 0.64459 0.12491 0.64659 0.0
C709 C 0.69891 0.1885 0.61368 0.0
C710 C 0.67681 0.16352 0.6554 0.0
C711 C 0.67384 0.16009 0.68724 0.0
C712 C 0.68243 0.16722 0.59575 0.0
C713 C 0.66207 0.14445 0.60766 0.0
C714 C 0.65999 0.14252 0.63741 0.0
C715 C 0.64151 0.12355 0.58953 0.0
C716 C 0.68684 0.16948 0.56419 0.0
C717 C 0.62443 0.13305 0.56933 0.0
C718 C 0.60372 0.11356 0.5536 0.0
C719 C 0.59941 0.08404 0.55789 0.0
C720 C 0.61677 0.07451 0.57788 0.0
C721 C 0.63756 0.09412 0.59365 0.0
H722 H 0.70798 0.18197 0.56008 0.0
H723 H 0.68241 0.14809 0.55493 0.0
H724 H 0.67313 0.18067 0.5529 0.0
H725 H 0.62664 0.1556 0.56626 0.0
H726 H 0.5907 0.1217 0.5385 0.0
H727 H 0.81512 0.64289 0.67776 0.0
H728 H 0.85101 0.62688 0.65934 0.0
H729 H 0.80765 0.61538 0.57631 0.0
H730 H 0.77195 0.63161 0.59449 0.0
H731 H 0.85093 0.57716 0.63398 0.0
H732 H 0.88113 0.66994 0.55829 0.0
H733 H 0.85857 0.6683 0.58617 0.0
H734 H 0.84612 0.64952 0.55357 0.0
C735 C 0.81311 0.63656 0.65571 0.0
C736 C 0.79095 0.63877 0.63745 0.0
C737 C 0.83363 0.62756 0.64518 0.0
C738 C 0.83226 0.62061 0.61629 0.0
C739 C 0.80945 0.6214 0.59845 0.0
H740 H 0.93727 0.53703 0.54324 0.0
H741 H 0.89813 0.54962 0.5577 0.0
C742 C 0.78905 0.63055 0.60888 0.0
C743 C 0.85493 0.61311 0.60469 0.0
H744 H 0.90232 0.63372 0.55499 0.0
C745 C 0.86219 0.5895 0.61673 0.0
C746 C 0.86972 0.62947 0.58235 0.0
C747 C 0.86371 0.65588 0.56949 0.0
C748 C 0.88381 0.5817 0.60693 0.0
C749 C 0.89822 0.59773 0.58422 0.0
C750 C 0.89104 0.62138 0.57224 0.0
C751 C 0.92156 0.59092 0.57341 0.0
C752 C 0.89144 0.55678 0.62139 0.0
C753 C 0.94752 0.6105 0.57637 0.0
C754 C 0.96994 0.60351 0.56789 0.0
C755 C 0.96672 0.57681 0.55626 0.0
C756 C 0.9405 0.55769 0.55233 0.0
C757 C 0.9181 0.56475 0.56072 0.0
H758 H 0.88249 0.55092 0.64243 0.0
H759 H 0.88383 0.53799 0.60758 0.0
H760 H 0.91379 0.56164 0.6247 0.0
H761 H 0.95052 0.63091 0.58595 0.0
H762 H 0.98983 0.61877 0.57106 0.0
H763 H 0.35171 0.3672 0.32588 0.0
H764 H 0.36006 0.3863 0.27695 0.0
H765 H 0.43651 0.36764 0.28332 0.0
H766 H 0.42869 0.34912 0.3321 0.0
H767 H 0.40464 0.43164 0.25719 0.0
H768 H 0.39781 0.32887 0.20913 0.0
H769 H 0.38491 0.33095 0.24338 0.0
H770 H 0.4205 0.33614 0.24067 0.0
C771 C 0.37035 0.36727 0.3169 0.0
C772 C 0.38937 0.35628 0.3329 0.0
C773 C 0.37503 0.37809 0.28891 0.0
C774 C 0.39868 0.37793 0.27634 0.0
C775 C 0.41782 0.36736 0.29235 0.0
H776 H 0.49264 0.47025 0.14367 0.0
H777 H 0.4695 0.45356 0.1873 0.0
C778 C 0.41324 0.35667 0.32026 0.0
C779 C 0.40396 0.38927 0.24671 0.0
H780 H 0.41941 0.37116 0.18223 0.0
C781 C 0.40749 0.41837 0.24064 0.0
C782 C 0.4072 0.37185 0.22498 0.0
C783 C 0.40215 0.34015 0.22971 0.0
C784 C 0.41568 0.4308 0.21388 0.0
C785 C 0.42079 0.41371 0.19286 0.0
C786 C 0.41575 0.38433 0.19842 0.0
C787 C 0.4333 0.42607 0.16587 0.0
C788 C 0.41913 0.46217 0.20848 0.0
C789 C 0.42076 0.41608 0.13918 0.0
C790 C 0.43403 0.4256 0.11401 0.0
C791 C 0.46023 0.44503 0.11515 0.0
C792 C 0.47243 0.45542 0.1419 0.0
C793 C 0.45914 0.44603 0.16695 0.0
H794 H 0.40641 0.46989 0.22222 0.0
H795 H 0.4406 0.4744 0.21364 0.0
H796 H 0.41379 0.46679 0.18571 0.0
H797 H 0.40091 0.4005 0.13787 0.0
H798 H 0.42405 0.41714 0.0938 0.0
H799 H 0.37566 0.68482 0.86912 0.0
H800 H 0.40642 0.66575 0.90083 0.0
H801 H 0.45291 0.66303 0.82918 0.0
H802 H 0.42164 0.68166 0.79729 0.0
H803 H 0.44017 0.61306 0.85982 0.0
H804 H 0.4827 0.70197 0.93406 0.0
H805 H 0.44635 0.69033 0.93138 0.0
H806 H 0.46442 0.70605 0.90051 0.0
C807 C 0.39282 0.6807 0.86034 0.0
C808 C 0.39666 0.68497 0.83101 0.0
C809 C 0.41043 0.66989 0.87846 0.0
C810 C 0.43228 0.66335 0.86753 0.0
C811 C 0.43632 0.66811 0.83814 0.0
H812 H 0.56208 0.6157 0.96585 0.0
H813 H 0.53386 0.64035 0.93759 0.0
C814 C 0.41861 0.67886 0.81999 0.0
C815 C 0.44965 0.64968 0.88638 0.0
H816 H 0.48978 0.65734 0.94871 0.0
C817 C 0.45115 0.62283 0.87916 0.0
C818 C 0.46415 0.66249 0.91154 0.0
C819 C 0.46459 0.69192 0.91972 0.0
C820 C 0.46636 0.60827 0.89657 0.0
C821 C 0.48003 0.6206 0.92228 0.0
C822 C 0.47895 0.64768 0.92926 0.0
C823 C 0.49653 0.60625 0.94151 0.0
C824 C 0.46806 0.58006 0.88695 0.0
C825 C 0.48481 0.57921 0.954 0.0
C826 C 0.50093 0.56493 0.97021 0.0
C827 C 0.52912 0.57751 0.97439 0.0
C828 C 0.54051 0.60522 0.96302 0.0
C829 C 0.52439 0.61941 0.94681 0.0
H830 H 0.46238 0.57716 0.86371 0.0
H831 H 0.48883 0.57816 0.89143 0.0
H832 H 0.45387 0.5625 0.89879 0.0
H833 H 0.46323 0.5689 0.95077 0.0
H834 H 0.4914 0.54371 0.97872 0.0
H835 H 0.35734 0.32523 0.771 0.0
H836 H 0.37726 0.35291 0.81348 0.0
H837 H 0.45725 0.35865 0.78927 0.0
H838 H 0.43766 0.33162 0.74645 0.0
H839 H 0.44789 0.34241 0.84849 0.0
H840 H 0.41853 0.43966 0.81409 0.0
H841 H 0.39182 0.40645 0.81282 0.0
H842 H 0.41884 0.41284 0.78931 0.0
C843 C 0.37919 0.33268 0.77444 0.0
C844 C 0.39582 0.32613 0.7551 0.0
C845 C 0.39054 0.34842 0.79885 0.0
C846 C 0.41876 0.358 0.8045 0.0
C847 C 0.43541 0.3514 0.78541 0.0
H848 H 0.52558 0.48906 0.90551 0.0
H849 H 0.49652 0.45783 0.86989 0.0
C850 C 0.42412 0.3358 0.76096 0.0
C851 C 0.43112 0.37497 0.8302 0.0
H852 H 0.44153 0.43997 0.85946 0.0
C853 C 0.44634 0.36366 0.85107 0.0
C854 C 0.4292 0.40275 0.83341 0.0
C855 C 0.41391 0.41637 0.81119 0.0
C856 C 0.4601 0.37955 0.87477 0.0
C857 C 0.45835 0.40744 0.87789 0.0
C858 C 0.44268 0.41851 0.85726 0.0
C859 C 0.47491 0.42664 0.90052 0.0
C860 C 0.47732 0.36679 0.89559 0.0
C861 C 0.47224 0.41987 0.9299 0.0
C862 C 0.4891 0.43782 0.95063 0.0
C863 C 0.50883 0.46292 0.94231 0.0
C864 C 0.51076 0.46991 0.91287 0.0
C865 C 0.49406 0.45205 0.89234 0.0
H866 H 0.48074 0.34753 0.88711 0.0
H867 H 0.4973 0.38258 0.90073 0.0
H868 H 0.46698 0.36048 0.91578 0.0
H869 H 0.45725 0.40064 0.9368 0.0
H870 H 0.48697 0.43183 0.97307 0.0
H871 H 0.71693 0.36665 0.76505 0.0
H872 H 0.69747 0.39893 0.78837 0.0
H873 H 0.74808 0.39471 0.86509 0.0
H874 H 0.76765 0.36262 0.84162 0.0
H875 H 0.66912 0.38184 0.83742 0.0
H876 H 0.75442 0.48013 0.85715 0.0
H877 H 0.75509 0.45438 0.83126 0.0
H878 H 0.76157 0.44757 0.86875 0.0
C879 C 0.72439 0.37336 0.7866 0.0
C880 C 0.7439 0.36261 0.80156 0.0
C881 C 0.71325 0.39166 0.79992 0.0
C882 C 0.72152 0.3995 0.82838 0.0
C883 C 0.74181 0.38949 0.84295 0.0
H884 H 0.65683 0.47656 0.95784 0.0
H885 H 0.68497 0.45673 0.93031 0.0
C886 C 0.75292 0.37114 0.8296 0.0
C887 C 0.70672 0.41525 0.84376 0.0
H888 H 0.71425 0.47557 0.88083 0.0
C889 C 0.67894 0.40246 0.84668 0.0
C890 C 0.71964 0.44197 0.85613 0.0
C891 C 0.74928 0.457 0.85303 0.0
C892 C 0.66379 0.41538 0.86199 0.0
C893 C 0.67662 0.44222 0.87421 0.0
C894 C 0.70444 0.45506 0.87136 0.0
C895 C 0.66132 0.45695 0.8902 0.0
C896 C 0.63432 0.39975 0.86561 0.0
C897 C 0.63923 0.46451 0.87659 0.0
C898 C 0.62303 0.47559 0.89226 0.0
C899 C 0.62876 0.47964 0.92184 0.0
C900 C 0.65177 0.47352 0.93513 0.0
C901 C 0.6679 0.46224 0.91943 0.0
H902 H 0.62954 0.37664 0.86159 0.0
H903 H 0.62871 0.40222 0.8875 0.0
H904 H 0.62153 0.40873 0.85005 0.0
H905 H 0.63416 0.46124 0.85391 0.0
H906 H 0.60573 0.48053 0.88125 0.0
H907 H 0.7206 0.60122 0.7037 0.0
H908 H 0.70183 0.58538 0.74999 0.0
H909 H 0.7127 0.67269 0.77086 0.0
H910 H 0.73156 0.68875 0.72447 0.0
H911 H 0.72584 0.59833 0.8045 0.0
H912 H 0.63348 0.63379 0.78623 0.0
H913 H 0.65404 0.63168 0.75758 0.0
H914 H 0.66468 0.66131 0.78111 0.0
C915 C 0.71905 0.61709 0.71815 0.0
C916 C 0.72759 0.64627 0.71039 0.0
C917 C 0.70827 0.60798 0.74458 0.0
C918 C 0.70564 0.6278 0.7638 0.0
C919 C 0.71408 0.65697 0.75615 0.0
H920 H 0.67277 0.59226 0.94463 0.0
H921 H 0.69468 0.60941 0.89994 0.0
C922 C 0.72482 0.66612 0.72963 0.0
C923 C 0.69438 0.61778 0.79193 0.0
H924 H 0.64194 0.61567 0.83261 0.0
C925 C 0.70753 0.60217 0.8107 0.0
C926 C 0.67032 0.62254 0.79984 0.0
C927 C 0.65462 0.63801 0.78008 0.0
C928 C 0.69728 0.59123 0.83716 0.0
C929 C 0.67347 0.59638 0.84521 0.0
C930 C 0.66032 0.61196 0.82646 0.0
C931 C 0.66116 0.58488 0.87248 0.0
C932 C 0.71156 0.57362 0.85598 0.0
C933 C 0.6351 0.56545 0.87186 0.0
C934 C 0.62253 0.55573 0.89725 0.0
C935 C 0.63571 0.56533 0.92388 0.0
C936 C 0.66208 0.58439 0.92451 0.0
C937 C 0.67467 0.59413 0.899 0.0
H938 H 0.72615 0.56667 0.84417 0.0
H939 H 0.72294 0.58654 0.87418 0.0
H940 H 0.6967 0.55445 0.86489 0.0
H941 H 0.62432 0.55803 0.85163 0.0
H942 H 0.60221 0.54109 0.89588 0.0
H943 H 0.68223 0.6825 0.29129 0.0
H944 H 0.65624 0.65883 0.24908 0.0
H945 H 0.71976 0.62179 0.23543 0.0
H946 H 0.74669 0.64688 0.2763 0.0
H947 H 0.70183 0.63988 0.18605 0.0
H948 H 0.61312 0.57697 0.24386 0.0
H949 H 0.62016 0.61463 0.24773 0.0
H950 H 0.64434 0.59697 0.26231 0.0
C951 C 0.69085 0.66953 0.27924 0.0
C952 C 0.7166 0.66651 0.28764 0.0
C953 C 0.67573 0.65564 0.25523 0.0
C954 C 0.68569 0.63794 0.23929 0.0
C955 C 0.71144 0.6351 0.24742 0.0
H956 H 0.58702 0.50763 0.12699 0.0
H957 H 0.61688 0.5356 0.16461 0.0
C958 C 0.72672 0.64923 0.27117 0.0
C959 C 0.66951 0.6225 0.21406 0.0
H960 H 0.60838 0.57569 0.19323 0.0
C961 C 0.68141 0.62578 0.18765 0.0
C962 C 0.64295 0.60378 0.21609 0.0
C963 C 0.62948 0.59761 0.24407 0.0
C964 C 0.6676 0.61092 0.16337 0.0
C965 C 0.64077 0.5928 0.16524 0.0
C966 C 0.62886 0.58967 0.19162 0.0
C967 C 0.62492 0.57577 0.14072 0.0
C968 C 0.68226 0.61411 0.13629 0.0
C969 C 0.61984 0.58876 0.11425 0.0
C970 C 0.60307 0.57255 0.09232 0.0
C971 C 0.5906 0.5432 0.09674 0.0
C972 C 0.59624 0.53022 0.12294 0.0
C973 C 0.61327 0.54624 0.14455 0.0
H974 H 0.7046 0.62181 0.14069 0.0
H975 H 0.67703 0.59359 0.12513 0.0
H976 H 0.67629 0.62999 0.12167 0.0
H977 H 0.62802 0.61157 0.11086 0.0
H978 H 0.59881 0.5832 0.0725 0.0
H979 H 0.34913 0.62828 0.26203 0.0
H980 H 0.37122 0.59616 0.24192 0.0
H981 H 0.39558 0.65634 0.17173 0.0
H982 H 0.3738 0.6883 0.19186 0.0
H983 H 0.3632 0.571 0.18657 0.0
H984 H 0.46707 0.64396 0.20614 0.0
H985 H 0.43834 0.64788 0.2231 0.0
H986 H 0.44428 0.6607 0.18687 0.0
C987 C 0.35917 0.63443 0.24227 0.0
C988 C 0.36001 0.6606 0.22841 0.0
C989 C 0.37171 0.61616 0.23081 0.0
C990 C 0.38536 0.62407 0.20554 0.0
C991 C 0.38556 0.65003 0.19147 0.0
H992 H 0.44181 0.53373 0.08334 0.0
H993 H 0.41507 0.55506 0.11104 0.0
C994 C 0.37305 0.66818 0.20288 0.0
C995 C 0.39978 0.6056 0.19382 0.0
H996 H 0.46203 0.60598 0.1745 0.0
C997 C 0.38485 0.57848 0.18415 0.0
C998 C 0.42809 0.6152 0.19113 0.0
C999 C 0.44547 0.64341 0.20261 0.0
C1000 C 0.39736 0.5612 0.17078 0.0
C1001 C 0.42541 0.57154 0.16665 0.0
C1002 C 0.44047 0.59817 0.17737 0.0
C1003 C 0.43965 0.55561 0.15068 0.0
C1004 C 0.3805 0.53203 0.16128 0.0
C1005 C 0.46237 0.54884 0.16369 0.0
C1006 C 0.47783 0.53695 0.14785 0.0
C1007 C 0.47096 0.53167 0.11859 0.0
C1008 C 0.44763 0.53751 0.10582 0.0
C1009 C 0.43221 0.54952 0.1217 0.0
H1010 H 0.36177 0.52414 0.17302 0.0
H1011 H 0.37441 0.53318 0.13813 0.0
H1012 H 0.3922 0.51638 0.16454 0.0
H1013 H 0.46851 0.55337 0.186 0.0
H1014 H 0.49552 0.53246 0.15844 0.0
H1015 H 0.73431 0.37277 0.20341 0.0
H1016 H 0.70314 0.3914 0.17175 0.0
H1017 H 0.6412 0.31062 0.17883 0.0
H1018 H 0.6725 0.29203 0.21082 0.0
H1019 H 0.67755 0.36972 0.11868 0.0
H1020 H 0.60256 0.36918 0.19741 0.0
H1021 H 0.63595 0.36643 0.20813 0.0
H1022 H 0.60999 0.33604 0.19429 0.0
C1023 C 0.71393 0.35915 0.19837 0.0
C1024 C 0.70556 0.33116 0.20955 0.0
C1025 C 0.69621 0.36973 0.18024 0.0
C1026 C 0.66976 0.35251 0.17311 0.0
C1027 C 0.66136 0.32443 0.1844 0.0
H1028 H 0.53654 0.39232 0.07128 0.0
H1029 H 0.56551 0.36755 0.09824 0.0
C1030 C 0.67918 0.3138 0.20256 0.0
C1031 C 0.6514 0.36398 0.15336 0.0
H1032 H 0.59287 0.38282 0.14978 0.0
C1033 C 0.65899 0.37253 0.12543 0.0
C1034 C 0.62716 0.36755 0.16219 0.0
C1035 C 0.61842 0.35956 0.19219 0.0
C1036 C 0.64301 0.38454 0.10608 0.0
C1037 C 0.61904 0.38866 0.11508 0.0
C1038 C 0.61123 0.37966 0.14287 0.0
C1039 C 0.60212 0.40297 0.0964 0.0
C1040 C 0.65179 0.39237 0.07607 0.0
C1041 C 0.61308 0.43107 0.08608 0.0
C1042 C 0.59659 0.4453 0.07047 0.0
C1043 C 0.56868 0.43182 0.06512 0.0
C1044 C 0.55792 0.40342 0.07493 0.0
C1045 C 0.57444 0.3892 0.09044 0.0
H1046 H 0.66542 0.38023 0.07004 0.0
H1047 H 0.63407 0.38834 0.06023 0.0
H1048 H 0.66311 0.4154 0.07483 0.0
H1049 H 0.63424 0.44239 0.09092 0.0
H1050 H 0.60557 0.46723 0.06353 0.0
loop_
_geom_bond_atom_site_label_1
_geom_bond_atom_site_label_2
_geom_bond_distance
_geom_bond_site_symmetry_2
_ccdc_geom_bond_type
H0 C3 0.929 . S
H1 C6 0.929 . S
H2 C8 0.930 . S
C3 H0 0.929 . S
C3 C4 1.398 . S
C3 C5 1.396 . S
C4 C3 1.398 . S
C4 C8 1.407 . S
C5 C3 1.396 . S
C5 C6 1.394 . S
C6 H1 0.929 . S
C6 C5 1.394 . S
C6 C7 1.382 . S
C7 C6 1.382 . S
C7 C8 1.392 . S
C7 N9 1.420 . S
C8 H2 0.930 . S
C8 C4 1.407 . S
C8 C7 1.392 . S
N9 C7 1.420 . S
N9 C10 1.244 . S
C10 N9 1.244 . S
H11 C14 0.929 . S
H12 C17 0.929 . S
H13 C19 0.930 . S
C14 H11 0.929 . S
C14 C15 1.398 . S
C14 C16 1.396 . S
C15 C14 1.398 . S
C15 C19 1.407 . S
C16 C14 1.396 . S
C16 C17 1.394 . S
C17 H12 0.929 . S
C17 C16 1.394 . S
C17 C18 1.382 . S
C18 C17 1.382 . S
C18 C19 1.392 . S
C18 N20 1.420 . S
C19 H13 0.930 . S
C19 C15 1.407 . S
C19 C18 1.392 . S
N20 C18 1.420 . S
N20 C21 1.244 . S
C21 N20 1.244 . S
H22 C25 0.929 . S
H23 C28 0.929 . S
H24 C30 0.930 . S
C25 H22 0.929 . S
C25 C26 1.398 . S
C25 C27 1.396 . S
C26 C25 1.398 . S
C26 C30 1.407 . S
C27 C25 1.396 . S
C27 C28 1.394 . S
C28 H23 0.929 . S
C28 C27 1.394 . S
C28 C29 1.382 . S
C29 C28 1.382 . S
C29 C30 1.392 . S
C29 N31 1.420 . S
C30 H24 0.930 . S
C30 C26 1.407 . S
C30 C29 1.392 . S
N31 C29 1.420 . S
N31 C32 1.244 . S
C32 N31 1.244 . S
H33 C36 0.929 . S
H34 C39 0.929 . S
H35 C41 0.930 . S
C36 H33 0.929 . S
C36 C37 1.398 . S
C36 C38 1.396 . S
C37 C36 1.398 . S
C37 C41 1.407 . S
C38 C36 1.396 . S
C38 C39 1.394 . S
C39 H34 0.929 . S
C39 C38 1.394 . S
C39 C40 1.382 . S
C40 C39 1.382 . S
C40 C41 1.392 . S
C40 N42 1.420 . S
C41 H35 0.930 . S
C41 C37 1.407 . S
C41 C40 1.392 . S
N42 C40 1.420 . S
N42 C43 1.244 . S
C43 N42 1.244 . S
H44 C47 0.929 . S
H45 C50 0.929 . S
H46 C52 0.930 . S
C47 H44 0.929 . S
C47 C48 1.398 . S
C47 C49 1.396 . S
C48 C47 1.398 . S
C48 C52 1.407 . S
C49 C47 1.396 . S
C49 C50 1.394 . S
C50 H45 0.929 . S
C50 C49 1.394 . S
C50 C51 1.382 . S
C51 C50 1.382 . S
C51 C52 1.392 . S
C51 N53 1.420 . S
C52 H46 0.930 . S
C52 C48 1.407 . S
C52 C51 1.392 . S
N53 C51 1.420 . S
N53 C54 1.244 . S
C54 N53 1.244 . S
H55 C58 0.929 . S
H56 C61 0.929 . S
H57 C63 0.930 . S
C58 H55 0.929 . S
C58 C59 1.398 . S
C58 C60 1.396 . S
C59 C58 1.398 . S
C59 C63 1.407 . S
C60 C58 1.396 . S
C60 C61 1.394 . S
C61 H56 0.929 . S
C61 C60 1.394 . S
C61 C62 1.382 . S
C62 C61 1.382 . S
C62 C63 1.392 . S
C62 N64 1.420 . S
C63 H57 0.930 . S
C63 C59 1.407 . S
C63 C62 1.392 . S
N64 C62 1.420 . S
N64 C65 1.244 . S
C65 N64 1.244 . S
H66 C69 0.929 . S
H67 C72 0.929 . S
H68 C74 0.930 . S
C69 H66 0.929 . S
C69 C70 1.398 . S
C69 C71 1.396 . S
C70 C69 1.398 . S
C70 C74 1.407 . S
C71 C69 1.396 . S
C71 C72 1.394 . S
C72 H67 0.929 . S
C72 C71 1.394 . S
C72 C73 1.382 . S
C73 C72 1.382 . S
C73 C74 1.392 . S
C73 N75 1.420 . S
C74 H68 0.930 . S
C74 C70 1.407 . S
C74 C73 1.392 . S
N75 C73 1.420 . S
N75 C76 1.244 . S
C76 N75 1.244 . S
H77 C80 0.929 . S
H78 C83 0.929 . S
H79 C85 0.930 . S
C80 H77 0.929 . S
C80 C81 1.398 . S
C80 C82 1.396 . S
C81 C80 1.398 . S
C81 C85 1.407 . S
C82 C80 1.396 . S
C82 C83 1.394 . S
C83 H78 0.929 . S
C83 C82 1.394 . S
C83 C84 1.382 . S
C84 C83 1.382 . S
C84 C85 1.392 . S
C84 N86 1.420 . S
C85 H79 0.930 . S
C85 C81 1.407 . S
C85 C84 1.392 . S
N86 C84 1.420 . S
N86 C87 1.244 . S
C87 N86 1.244 . S
Co88 O91 2.042 . S
Co88 O98 2.264 . S
Co88 O117 2.286 . S
Co88 O118 2.069 . S
Co88 O120 2.015 . S
Co89 O91 2.122 . S
Co89 O97 2.073 . S
Co89 O98 2.327 . S
Co89 O99 1.976 . S
Co90 O91 2.087 . S
Co90 O93 2.087 . S
Co90 O100 2.111 . S
Co90 O101 2.143 1_455 S
Co90 O105 2.111 . S
Co90 O119 2.143 . S
O91 Co88 2.042 . S
O91 Co89 2.122 . S
O91 Co90 2.087 . S
O91 H92 0.980 . S
H92 O91 0.980 . S
O93 Co90 2.087 . S
O93 Co94 2.042 1_455 S
O93 Co95 2.122 1_455 S
O93 H96 0.980 . S
Co94 O93 2.042 1_655 S
Co94 O102 2.286 . S
Co94 O103 2.069 . S
Co94 O104 2.015 . S
Co94 O107 2.264 . S
Co95 O93 2.122 1_655 S
Co95 O106 1.976 . S
Co95 O107 2.327 . S
Co95 O108 2.073 . S
H96 O93 0.980 . S
O97 Co89 2.073 . S
O97 C112 1.245 . S
O98 Co88 2.264 . S
O98 Co89 2.327 . S
O98 C112 1.257 . S
O99 Co89 1.976 . S
O99 C111 1.251 . S
O100 Co90 2.111 . S
O100 C111 1.274 . S
O101 Co90 2.143 1_655 S
O101 C114 1.246 . S
O102 Co94 2.286 . S
O102 C113 1.259 . S
O103 Co94 2.069 . S
O103 C113 1.289 . S
O104 Co94 2.015 . S
O104 C114 1.257 . S
O105 Co90 2.111 . S
O105 C115 1.274 1_455 S
O106 Co95 1.976 . S
O106 C115 1.251 . S
O107 Co94 2.264 . S
O107 Co95 2.327 . S
O107 C116 1.257 . S
O108 Co95 2.073 . S
O108 C116 1.245 . S
C109 O117 1.259 . S
C109 O118 1.289 . S
C110 O119 1.246 . S
C110 O120 1.257 . S
C111 O99 1.251 . S
C111 O100 1.274 . S
C112 O97 1.245 . S
C112 O98 1.257 . S
C113 O102 1.259 . S
C113 O103 1.289 . S
C114 O101 1.246 . S
C114 O104 1.257 . S
C115 O105 1.274 1_655 S
C115 O106 1.251 . S
C116 O107 1.257 . S
C116 O108 1.245 . S
O117 Co88 2.286 . S
O117 C109 1.259 . S
O118 Co88 2.069 . S
O118 C109 1.289 . S
O119 Co90 2.143 . S
O119 C110 1.246 . S
O120 Co88 2.015 . S
O120 C110 1.257 . S
Co121 O124 2.042 . S
Co121 O131 2.264 . S
Co121 O150 2.286 . S
Co121 O151 2.069 . S
Co121 O153 2.015 . S
Co122 O124 2.122 . S
Co122 O130 2.073 . S
Co122 O131 2.327 . S
Co122 O132 1.976 . S
Co123 O124 2.087 1_545 S
Co123 O126 2.087 . S
Co123 O133 2.111 1_545 S
Co123 O134 2.143 . S
Co123 O138 2.111 . S
Co123 O152 2.143 1_545 S
O124 Co121 2.042 . S
O124 Co122 2.122 . S
O124 Co123 2.087 1_565 S
O124 H125 0.980 1_565 S
H125 O124 0.980 1_545 S
O126 Co123 2.087 . S
O126 Co127 2.042 . S
O126 Co128 2.122 . S
O126 H129 0.980 . S
Co127 O126 2.042 . S
Co127 O135 2.286 . S
Co127 O136 2.069 . S
Co127 O137 2.015 . S
Co127 O140 2.264 . S
Co128 O126 2.122 . S
Co128 O139 1.976 . S
Co128 O140 2.327 . S
Co128 O141 2.073 . S
H129 O126 0.980 . S
O130 Co122 2.073 . S
O130 C145 1.245 . S
O131 Co121 2.264 . S
O131 Co122 2.327 . S
O131 C145 1.257 . S
O132 Co122 1.976 . S
O132 C144 1.251 . S
O133 Co123 2.111 1_565 S
O133 C144 1.274 . S
O134 Co123 2.143 . S
O134 C147 1.246 . S
O135 Co127 2.286 . S
O135 C146 1.259 . S
O136 Co127 2.069 . S
O136 C146 1.289 . S
O137 Co127 2.015 . S
O137 C147 1.257 . S
O138 Co123 2.111 . S
O138 C148 1.274 . S
O139 Co128 1.976 . S
O139 C148 1.251 . S
O140 Co127 2.264 . S
O140 Co128 2.327 . S
O140 C149 1.257 . S
O141 Co128 2.073 . S
O141 C149 1.245 . S
C142 O150 1.259 . S
C142 O151 1.289 . S
C143 O152 1.246 . S
C143 O153 1.257 . S
C144 O132 1.251 . S
C144 O133 1.274 . S
C145 O130 1.245 . S
C145 O131 1.257 . S
C146 O135 1.259 . S
C146 O136 1.289 . S
C147 O134 1.246 . S
C147 O137 1.257 . S
C148 O138 1.274 . S
C148 O139 1.251 . S
C149 O140 1.257 . S
C149 O141 1.245 . S
O150 Co121 2.286 . S
O150 C142 1.259 . S
O151 Co121 2.069 . S
O151 C142 1.289 . S
O152 Co123 2.143 1_565 S
O152 C143 1.246 . S
O153 Co121 2.015 . S
O153 C143 1.257 . S
Co154 O157 2.042 . S
Co154 O164 2.264 . S
Co154 O183 2.286 . S
Co154 O184 2.069 . S
Co154 O186 2.015 . S
Co155 O157 2.122 . S
Co155 O163 2.073 . S
Co155 O164 2.327 . S
Co155 O165 1.976 . S
Co156 O157 2.087 . S
Co156 O159 2.087 1_554 S
Co156 O166 2.111 . S
Co156 O167 2.143 1_554 S
Co156 O171 2.111 1_554 S
Co156 O185 2.143 . S
O157 Co154 2.042 . S
O157 Co155 2.122 . S
O157 Co156 2.087 . S
O157 H158 0.980 . S
H158 O157 0.980 . S
O159 Co156 2.087 1_556 S
O159 Co160 2.042 . S
O159 Co161 2.122 . S
O159 H162 0.980 . S
Co160 O159 2.042 . S
Co160 O168 2.286 . S
Co160 O169 2.069 . S
Co160 O170 2.015 . S
Co160 O173 2.264 . S
Co161 O159 2.122 . S
Co161 O172 1.976 . S
Co161 O173 2.327 . S
Co161 O174 2.073 . S
H162 O159 0.980 . S
O163 Co155 2.073 . S
O163 C178 1.245 . S
O164 Co154 2.264 . S
O164 Co155 2.327 . S
O164 C178 1.257 . S
O165 Co155 1.976 . S
O165 C177 1.251 . S
O166 Co156 2.111 . S
O166 C177 1.274 . S
O167 Co156 2.143 1_556 S
O167 C180 1.246 . S
O168 Co160 2.286 . S
O168 C179 1.259 . S
O169 Co160 2.069 . S
O169 C179 1.289 . S
O170 Co160 2.015 . S
O170 C180 1.257 . S
O171 Co156 2.111 1_556 S
O171 C181 1.274 . S
O172 Co161 1.976 . S
O172 C181 1.251 . S
O173 Co160 2.264 . S
O173 Co161 2.327 . S
O173 C182 1.257 . S
O174 Co161 2.073 . S
O174 C182 1.245 . S
C175 O183 1.259 . S
C175 O184 1.289 . S
C176 O185 1.246 . S
C176 O186 1.257 . S
C177 O165 1.251 . S
C177 O166 1.274 . S
C178 O163 1.245 . S
C178 O164 1.257 . S
C179 O168 1.259 . S
C179 O169 1.289 . S
C180 O167 1.246 . S
C180 O170 1.257 . S
C181 O171 1.274 . S
C181 O172 1.251 . S
C182 O173 1.257 . S
C182 O174 1.245 . S
O183 Co154 2.286 . S
O183 C175 1.259 . S
O184 Co154 2.069 . S
O184 C175 1.289 . S
O185 Co156 2.143 . S
O185 C176 1.246 . S
O186 Co154 2.015 . S
O186 C176 1.257 . S
H187 C195 0.929 . S
H188 C197 0.930 . S
H189 C199 0.930 . S
H190 C202 0.929 . S
H191 C205 0.930 . S
H192 C207 0.960 . S
H193 C207 0.960 . S
H194 C207 0.960 . S
C195 H187 0.929 . S
C195 C196 1.377 . S
C195 C197 1.384 . S
C196 C195 1.377 . S
C196 C202 1.390 . S
C197 H188 0.930 . S
C197 C195 1.384 . S
C197 C198 1.372 . S
C198 C197 1.372 . S
C198 C199 1.400 . S
C198 C203 1.490 . S
C199 H189 0.930 . S
C199 C198 1.400 . S
C199 C202 1.386 . S
H200 C216 0.930 . S
H201 C217 0.931 . S
C202 H190 0.929 . S
C202 C196 1.390 . S
C202 C199 1.386 . S
C203 C198 1.490 . S
C203 C205 1.395 . S
C203 C206 1.403 . S
H204 C210 0.930 . S
C205 H191 0.930 . S
C205 C203 1.395 . S
C205 C208 1.403 . S
C206 C203 1.403 . S
C206 C207 1.524 . S
C206 C210 1.400 . S
C207 H192 0.960 . S
C207 H193 0.960 . S
C207 H194 0.960 . S
C207 C206 1.524 . S
C208 C205 1.403 . S
C208 C209 1.392 . S
C208 C212 1.495 . S
C209 C208 1.392 . S
C209 C210 1.385 . S
C209 C211 1.478 . S
C210 H204 0.930 . S
C210 C206 1.400 . S
C210 C209 1.385 . S
C211 C209 1.478 . S
C211 C213 1.381 . S
C211 C217 1.383 . S
C212 C208 1.495 . S
C212 H218 0.959 . S
C212 H219 0.961 . S
C212 H220 0.960 . S
C213 C211 1.381 . S
C213 C214 1.394 . S
C213 H221 0.930 . S
C214 C213 1.394 . S
C214 C215 1.383 . S
C214 H222 0.929 . S
C215 C214 1.383 . S
C215 C216 1.377 . S
C216 H200 0.930 . S
C216 C215 1.377 . S
C216 C217 1.379 . S
C217 H201 0.931 . S
C217 C211 1.383 . S
C217 C216 1.379 . S
H218 C212 0.959 . S
H219 C212 0.961 . S
H220 C212 0.960 . S
H221 C213 0.930 . S
H222 C214 0.929 . S
H223 C231 0.929 . S
H224 C233 0.930 . S
H225 C235 0.930 . S
H226 C238 0.929 . S
H227 C241 0.930 . S
H228 C243 0.960 . S
H229 C243 0.960 . S
H230 C243 0.960 . S
C231 H223 0.929 . S
C231 C232 1.377 . S
C231 C233 1.384 . S
C232 C231 1.377 . S
C232 C238 1.390 . S
C233 H224 0.930 . S
C233 C231 1.384 . S
C233 C234 1.372 . S
C234 C233 1.372 . S
C234 C235 1.400 . S
C234 C239 1.490 . S
C235 H225 0.930 . S
C235 C234 1.400 . S
C235 C238 1.386 . S
H236 C252 0.930 . S
H237 C253 0.931 . S
C238 H226 0.929 . S
C238 C232 1.390 . S
C238 C235 1.386 . S
C239 C234 1.490 . S
C239 C241 1.395 . S
C239 C242 1.403 . S
H240 C246 0.930 . S
C241 H227 0.930 . S
C241 C239 1.395 . S
C241 C244 1.403 . S
C242 C239 1.403 . S
C242 C243 1.524 . S
C242 C246 1.400 . S
C243 H228 0.960 . S
C243 H229 0.960 . S
C243 H230 0.960 . S
C243 C242 1.524 . S
C244 C241 1.403 . S
C244 C245 1.392 . S
C244 C248 1.495 . S
C245 C244 1.392 . S
C245 C246 1.385 . S
C245 C247 1.478 . S
C246 H240 0.930 . S
C246 C242 1.400 . S
C246 C245 1.385 . S
C247 C245 1.478 . S
C247 C249 1.381 . S
C247 C253 1.383 . S
C248 C244 1.495 . S
C248 H254 0.959 . S
C248 H255 0.961 . S
C248 H256 0.960 . S
C249 C247 1.381 . S
C249 C250 1.394 . S
C249 H257 0.930 . S
C250 C249 1.394 . S
C250 C251 1.383 . S
C250 H258 0.929 . S
C251 C250 1.383 . S
C251 C252 1.377 . S
C252 H236 0.930 . S
C252 C251 1.377 . S
C252 C253 1.379 . S
C253 H237 0.931 . S
C253 C247 1.383 . S
C253 C252 1.379 . S
H254 C248 0.959 . S
H255 C248 0.961 . S
H256 C248 0.960 . S
H257 C249 0.930 . S
H258 C250 0.929 . S
H259 C267 0.929 . S
H260 C269 0.930 . S
H261 C271 0.930 . S
H262 C274 0.929 . S
H263 C277 0.930 . S
H264 C279 0.960 . S
H265 C279 0.960 . S
H266 C279 0.960 . S
C267 H259 0.929 . S
C267 C268 1.377 . S
C267 C269 1.384 . S
C268 C267 1.377 . S
C268 C274 1.390 . S
C269 H260 0.930 . S
C269 C267 1.384 . S
C269 C270 1.372 . S
C270 C269 1.372 . S
C270 C271 1.400 . S
C270 C275 1.490 . S
C271 H261 0.930 . S
C271 C270 1.400 . S
C271 C274 1.386 . S
H272 C288 0.930 . S
H273 C289 0.931 . S
C274 H262 0.929 . S
C274 C268 1.390 . S
C274 C271 1.386 . S
C275 C270 1.490 . S
C275 C277 1.395 . S
C275 C278 1.403 . S
H276 C282 0.930 . S
C277 H263 0.930 . S
C277 C275 1.395 . S
C277 C280 1.403 . S
C278 C275 1.403 . S
C278 C279 1.524 . S
C278 C282 1.400 . S
C279 H264 0.960 . S
C279 H265 0.960 . S
C279 H266 0.960 . S
C279 C278 1.524 . S
C280 C277 1.403 . S
C280 C281 1.392 . S
C280 C284 1.495 . S
C281 C280 1.392 . S
C281 C282 1.385 . S
C281 C283 1.478 . S
C282 H276 0.930 . S
C282 C278 1.400 . S
C282 C281 1.385 . S
C283 C281 1.478 . S
C283 C285 1.381 . S
C283 C289 1.383 . S
C284 C280 1.495 . S
C284 H290 0.959 . S
C284 H291 0.961 . S
C284 H292 0.960 . S
C285 C283 1.381 . S
C285 C286 1.394 . S
C285 H293 0.930 . S
C286 C285 1.394 . S
C286 C287 1.383 . S
C286 H294 0.929 . S
C287 C286 1.383 . S
C287 C288 1.377 . S
C288 H272 0.930 . S
C288 C287 1.377 . S
C288 C289 1.379 . S
C289 H273 0.931 . S
C289 C283 1.383 . S
C289 C288 1.379 . S
H290 C284 0.959 . S
H291 C284 0.961 . S
H292 C284 0.960 . S
H293 C285 0.930 . S
H294 C286 0.929 . S
H295 C303 0.929 . S
H296 C305 0.930 . S
H297 C307 0.930 . S
H298 C310 0.929 . S
H299 C313 0.930 . S
H300 C315 0.960 . S
H301 C315 0.960 . S
H302 C315 0.960 . S
C303 H295 0.929 . S
C303 C304 1.377 . S
C303 C305 1.384 . S
C304 C303 1.377 . S
C304 C310 1.390 . S
C305 H296 0.930 . S
C305 C303 1.384 . S
C305 C306 1.372 . S
C306 C305 1.372 . S
C306 C307 1.400 . S
C306 C311 1.490 . S
C307 H297 0.930 . S
C307 C306 1.400 . S
C307 C310 1.386 . S
H308 C324 0.930 . S
H309 C325 0.931 . S
C310 H298 0.929 . S
C310 C304 1.390 . S
C310 C307 1.386 . S
C311 C306 1.490 . S
C311 C313 1.395 . S
C311 C314 1.403 . S
H312 C318 0.930 . S
C313 H299 0.930 . S
C313 C311 1.395 . S
C313 C316 1.403 . S
C314 C311 1.403 . S
C314 C315 1.524 . S
C314 C318 1.400 . S
C315 H300 0.960 . S
C315 H301 0.960 . S
C315 H302 0.960 . S
C315 C314 1.524 . S
C316 C313 1.403 . S
C316 C317 1.392 . S
C316 C320 1.495 . S
C317 C316 1.392 . S
C317 C318 1.385 . S
C317 C319 1.478 . S
C318 H312 0.930 . S
C318 C314 1.400 . S
C318 C317 1.385 . S
C319 C317 1.478 . S
C319 C321 1.381 . S
C319 C325 1.383 . S
C320 C316 1.495 . S
C320 H326 0.959 . S
C320 H327 0.961 . S
C320 H328 0.960 . S
C321 C319 1.381 . S
C321 C322 1.394 . S
C321 H329 0.930 . S
C322 C321 1.394 . S
C322 C323 1.383 . S
C322 H330 0.929 . S
C323 C322 1.383 . S
C323 C324 1.377 . S
C324 H308 0.930 . S
C324 C323 1.377 . S
C324 C325 1.379 . S
C325 H309 0.931 . S
C325 C319 1.383 . S
C325 C324 1.379 . S
H326 C320 0.959 . S
H327 C320 0.961 . S
H328 C320 0.960 . S
H329 C321 0.930 . S
H330 C322 0.929 . S
H331 C339 0.929 . S
H332 C341 0.930 . S
H333 C343 0.930 . S
H334 C346 0.929 . S
H335 C349 0.930 . S
H336 C351 0.960 . S
H337 C351 0.960 . S
H338 C351 0.960 . S
C339 H331 0.929 . S
C339 C340 1.377 . S
C339 C341 1.384 . S
C340 C339 1.377 . S
C340 C346 1.390 . S
C341 H332 0.930 . S
C341 C339 1.384 . S
C341 C342 1.372 . S
C342 C341 1.372 . S
C342 C343 1.400 . S
C342 C347 1.490 . S
C343 H333 0.930 . S
C343 C342 1.400 . S
C343 C346 1.386 . S
H344 C360 0.930 . S
H345 C361 0.931 . S
C346 H334 0.929 . S
C346 C340 1.390 . S
C346 C343 1.386 . S
C347 C342 1.490 . S
C347 C349 1.395 . S
C347 C350 1.403 . S
H348 C354 0.930 . S
C349 H335 0.930 . S
C349 C347 1.395 . S
C349 C352 1.403 . S
C350 C347 1.403 . S
C350 C351 1.524 . S
C350 C354 1.400 . S
C351 H336 0.960 . S
C351 H337 0.960 . S
C351 H338 0.960 . S
C351 C350 1.524 . S
C352 C349 1.403 . S
C352 C353 1.392 . S
C352 C356 1.495 . S
C353 C352 1.392 . S
C353 C354 1.385 . S
C353 C355 1.478 . S
C354 H348 0.930 . S
C354 C350 1.400 . S
C354 C353 1.385 . S
C355 C353 1.478 . S
C355 C357 1.381 . S
C355 C361 1.383 . S
C356 C352 1.495 . S
C356 H362 0.959 . S
C356 H363 0.961 . S
C356 H364 0.960 . S
C357 C355 1.381 . S
C357 C358 1.394 . S
C357 H365 0.930 . S
C358 C357 1.394 . S
C358 C359 1.383 . S
C358 H366 0.929 . S
C359 C358 1.383 . S
C359 C360 1.377 . S
C360 H344 0.930 . S
C360 C359 1.377 . S
C360 C361 1.379 . S
C361 H345 0.931 . S
C361 C355 1.383 . S
C361 C360 1.379 . S
H362 C356 0.959 . S
H363 C356 0.961 . S
H364 C356 0.960 . S
H365 C357 0.930 . S
H366 C358 0.929 . S
H367 C375 0.929 . S
H368 C377 0.930 . S
H369 C379 0.930 . S
H370 C382 0.929 . S
H371 C385 0.930 . S
H372 C387 0.960 . S
H373 C387 0.960 . S
H374 C387 0.960 . S
C375 H367 0.929 . S
C375 C376 1.377 . S
C375 C377 1.384 . S
C376 C375 1.377 . S
C376 C382 1.390 . S
C377 H368 0.930 . S
C377 C375 1.384 . S
C377 C378 1.372 . S
C378 C377 1.372 . S
C378 C379 1.400 . S
C378 C383 1.490 . S
C379 H369 0.930 . S
C379 C378 1.400 . S
C379 C382 1.386 . S
H380 C396 0.930 . S
H381 C397 0.931 . S
C382 H370 0.929 . S
C382 C376 1.390 . S
C382 C379 1.386 . S
C383 C378 1.490 . S
C383 C385 1.395 . S
C383 C386 1.403 . S
H384 C390 0.930 . S
C385 H371 0.930 . S
C385 C383 1.395 . S
C385 C388 1.403 . S
C386 C383 1.403 . S
C386 C387 1.524 . S
C386 C390 1.400 . S
C387 H372 0.960 . S
C387 H373 0.960 . S
C387 H374 0.960 . S
C387 C386 1.524 . S
C388 C385 1.403 . S
C388 C389 1.392 . S
C388 C392 1.495 . S
C389 C388 1.392 . S
C389 C390 1.385 . S
C389 C391 1.478 . S
C390 H384 0.930 . S
C390 C386 1.400 . S
C390 C389 1.385 . S
C391 C389 1.478 . S
C391 C393 1.381 . S
C391 C397 1.383 . S
C392 C388 1.495 . S
C392 H398 0.959 . S
C392 H399 0.961 . S
C392 H400 0.960 . S
C393 C391 1.381 . S
C393 C394 1.394 . S
C393 H401 0.930 . S
C394 C393 1.394 . S
C394 C395 1.383 . S
C394 H402 0.929 . S
C395 C394 1.383 . S
C395 C396 1.377 . S
C396 H380 0.930 . S
C396 C395 1.377 . S
C396 C397 1.379 . S
C397 H381 0.931 . S
C397 C391 1.383 . S
C397 C396 1.379 . S
H398 C392 0.959 . S
H399 C392 0.961 . S
H400 C392 0.960 . S
H401 C393 0.930 . S
H402 C394 0.929 . S
H403 C411 0.929 . S
H404 C413 0.930 . S
H405 C415 0.930 . S
H406 C418 0.929 . S
H407 C421 0.930 . S
H408 C423 0.960 . S
H409 C423 0.960 . S
H410 C423 0.960 . S
C411 H403 0.929 . S
C411 C412 1.377 . S
C411 C413 1.384 . S
C412 C411 1.377 . S
C412 C418 1.390 . S
C413 H404 0.930 . S
C413 C411 1.384 . S
C413 C414 1.372 . S
C414 C413 1.372 . S
C414 C415 1.400 . S
C414 C419 1.490 . S
C415 H405 0.930 . S
C415 C414 1.400 . S
C415 C418 1.386 . S
H416 C432 0.930 . S
H417 C433 0.931 . S
C418 H406 0.929 . S
C418 C412 1.390 . S
C418 C415 1.386 . S
C419 C414 1.490 . S
C419 C421 1.395 . S
C419 C422 1.403 . S
H420 C426 0.930 . S
C421 H407 0.930 . S
C421 C419 1.395 . S
C421 C424 1.403 . S
C422 C419 1.403 . S
C422 C423 1.524 . S
C422 C426 1.400 . S
C423 H408 0.960 . S
C423 H409 0.960 . S
C423 H410 0.960 . S
C423 C422 1.524 . S
C424 C421 1.403 . S
C424 C425 1.392 . S
C424 C428 1.495 . S
C425 C424 1.392 . S
C425 C426 1.385 . S
C425 C427 1.478 . S
C426 H420 0.930 . S
C426 C422 1.400 . S
C426 C425 1.385 . S
C427 C425 1.478 . S
C427 C429 1.381 . S
C427 C433 1.383 . S
C428 C424 1.495 . S
C428 H434 0.959 . S
C428 H435 0.961 . S
C428 H436 0.960 . S
C429 C427 1.381 . S
C429 C430 1.394 . S
C429 H437 0.930 . S
C430 C429 1.394 . S
C430 C431 1.383 . S
C430 H438 0.929 . S
C431 C430 1.383 . S
C431 C432 1.377 . S
C432 H416 0.930 . S
C432 C431 1.377 . S
C432 C433 1.379 . S
C433 H417 0.931 . S
C433 C427 1.383 . S
C433 C432 1.379 . S
H434 C428 0.959 . S
H435 C428 0.961 . S
H436 C428 0.960 . S
H437 C429 0.930 . S
H438 C430 0.929 . S
H439 C447 0.929 . S
H440 C449 0.930 . S
H441 C451 0.930 . S
H442 C454 0.929 . S
H443 C457 0.930 . S
H444 C459 0.960 . S
H445 C459 0.960 . S
H446 C459 0.960 . S
C447 H439 0.929 . S
C447 C448 1.377 . S
C447 C449 1.384 . S
C448 C447 1.377 . S
C448 C454 1.390 . S
C449 H440 0.930 . S
C449 C447 1.384 . S
C449 C450 1.372 . S
C450 C449 1.372 . S
C450 C451 1.400 . S
C450 C455 1.490 . S
C451 H441 0.930 . S
C451 C450 1.400 . S
C451 C454 1.386 . S
H452 C468 0.930 . S
H453 C469 0.931 . S
C454 H442 0.929 . S
C454 C448 1.390 . S
C454 C451 1.386 . S
C455 C450 1.490 . S
C455 C457 1.395 . S
C455 C458 1.403 . S
H456 C462 0.930 . S
C457 H443 0.930 . S
C457 C455 1.395 . S
C457 C460 1.403 . S
C458 C455 1.403 . S
C458 C459 1.524 . S
C458 C462 1.400 . S
C459 H444 0.960 . S
C459 H445 0.960 . S
C459 H446 0.960 . S
C459 C458 1.524 . S
C460 C457 1.403 . S
C460 C461 1.392 . S
C460 C464 1.495 . S
C461 C460 1.392 . S
C461 C462 1.385 . S
C461 C463 1.478 . S
C462 H456 0.930 . S
C462 C458 1.400 . S
C462 C461 1.385 . S
C463 C461 1.478 . S
C463 C465 1.381 . S
C463 C469 1.383 . S
C464 C460 1.495 . S
C464 H470 0.959 . S
C464 H471 0.961 . S
C464 H472 0.960 . S
C465 C463 1.381 . S
C465 C466 1.394 . S
C465 H473 0.930 . S
C466 C465 1.394 . S
C466 C467 1.383 . S
C466 H474 0.929 . S
C467 C466 1.383 . S
C467 C468 1.377 . S
C468 H452 0.930 . S
C468 C467 1.377 . S
C468 C469 1.379 . S
C469 H453 0.931 . S
C469 C463 1.383 . S
C469 C468 1.379 . S
H470 C464 0.959 . S
H471 C464 0.961 . S
H472 C464 0.960 . S
H473 C465 0.930 . S
H474 C466 0.929 . S
H475 C483 0.929 . S
H476 C485 0.930 . S
H477 C487 0.930 . S
H478 C490 0.929 . S
H479 C493 0.930 . S
H480 C495 0.960 . S
H481 C495 0.960 . S
H482 C495 0.960 . S
C483 H475 0.929 . S
C483 C484 1.377 . S
C483 C485 1.384 . S
C484 C483 1.377 . S
C484 C490 1.390 . S
C485 H476 0.930 . S
C485 C483 1.384 . S
C485 C486 1.372 . S
C486 C485 1.372 . S
C486 C487 1.400 . S
C486 C491 1.490 . S
C487 H477 0.930 . S
C487 C486 1.400 . S
C487 C490 1.386 . S
H488 C504 0.930 . S
H489 C505 0.931 . S
C490 H478 0.929 . S
C490 C484 1.390 . S
C490 C487 1.386 . S
C491 C486 1.490 . S
C491 C493 1.395 . S
C491 C494 1.403 . S
H492 C498 0.930 . S
C493 H479 0.930 . S
C493 C491 1.395 . S
C493 C496 1.403 . S
C494 C491 1.403 . S
C494 C495 1.524 . S
C494 C498 1.400 . S
C495 H480 0.960 . S
C495 H481 0.960 . S
C495 H482 0.960 . S
C495 C494 1.524 . S
C496 C493 1.403 . S
C496 C497 1.392 . S
C496 C500 1.495 . S
C497 C496 1.392 . S
C497 C498 1.385 . S
C497 C499 1.478 . S
C498 H492 0.930 . S
C498 C494 1.400 . S
C498 C497 1.385 . S
C499 C497 1.478 . S
C499 C501 1.381 . S
C499 C505 1.383 . S
C500 C496 1.495 . S
C500 H506 0.959 . S
C500 H507 0.961 . S
C500 H508 0.960 . S
C501 C499 1.381 . S
C501 C502 1.394 . S
C501 H509 0.930 . S
C502 C501 1.394 . S
C502 C503 1.383 . S
C502 H510 0.929 . S
C503 C502 1.383 . S
C503 C504 1.377 . S
C504 H488 0.930 . S
C504 C503 1.377 . S
C504 C505 1.379 . S
C505 H489 0.931 . S
C505 C499 1.383 . S
C505 C504 1.379 . S
H506 C500 0.959 . S
H507 C500 0.961 . S
H508 C500 0.960 . S
H509 C501 0.930 . S
H510 C502 0.929 . S
H511 C519 0.929 . S
H512 C521 0.930 . S
H513 C523 0.930 . S
H514 C526 0.929 . S
H515 C529 0.930 . S
H516 C531 0.960 . S
H517 C531 0.960 . S
H518 C531 0.960 . S
C519 H511 0.929 . S
C519 C520 1.377 . S
C519 C521 1.384 . S
C520 C519 1.377 . S
C520 C526 1.390 . S
C521 H512 0.930 . S
C521 C519 1.384 . S
C521 C522 1.372 . S
C522 C521 1.372 . S
C522 C523 1.400 . S
C522 C527 1.490 . S
C523 H513 0.930 . S
C523 C522 1.400 . S
C523 C526 1.386 . S
H524 C540 0.930 . S
H525 C541 0.931 . S
C526 H514 0.929 . S
C526 C520 1.390 . S
C526 C523 1.386 . S
C527 C522 1.490 . S
C527 C529 1.395 . S
C527 C530 1.403 . S
H528 C534 0.930 . S
C529 H515 0.930 . S
C529 C527 1.395 . S
C529 C532 1.403 . S
C530 C527 1.403 . S
C530 C531 1.524 . S
C530 C534 1.400 . S
C531 H516 0.960 . S
C531 H517 0.960 . S
C531 H518 0.960 . S
C531 C530 1.524 . S
C532 C529 1.403 . S
C532 C533 1.392 . S
C532 C536 1.495 . S
C533 C532 1.392 . S
C533 C534 1.385 . S
C533 C535 1.478 . S
C534 H528 0.930 . S
C534 C530 1.400 . S
C534 C533 1.385 . S
C535 C533 1.478 . S
C535 C537 1.381 . S
C535 C541 1.383 . S
C536 C532 1.495 . S
C536 H542 0.959 . S
C536 H543 0.961 . S
C536 H544 0.960 . S
C537 C535 1.381 . S
C537 C538 1.394 . S
C537 H545 0.930 . S
C538 C537 1.394 . S
C538 C539 1.383 . S
C538 H546 0.929 . S
C539 C538 1.383 . S
C539 C540 1.377 . S
C540 H524 0.930 . S
C540 C539 1.377 . S
C540 C541 1.379 . S
C541 H525 0.931 . S
C541 C535 1.383 . S
C541 C540 1.379 . S
H542 C536 0.959 . S
H543 C536 0.961 . S
H544 C536 0.960 . S
H545 C537 0.930 . S
H546 C538 0.929 . S
H547 C555 0.929 . S
H548 C557 0.930 . S
H549 C559 0.930 . S
H550 C562 0.929 . S
H551 C565 0.930 . S
H552 C567 0.960 . S
H553 C567 0.960 . S
H554 C567 0.960 . S
C555 H547 0.929 . S
C555 C556 1.377 . S
C555 C557 1.384 . S
C556 C555 1.377 . S
C556 C562 1.390 . S
C557 H548 0.930 . S
C557 C555 1.384 . S
C557 C558 1.372 . S
C558 C557 1.372 . S
C558 C559 1.400 . S
C558 C563 1.490 . S
C559 H549 0.930 . S
C559 C558 1.400 . S
C559 C562 1.386 . S
H560 C576 0.930 . S
H561 C577 0.931 . S
C562 H550 0.929 . S
C562 C556 1.390 . S
C562 C559 1.386 . S
C563 C558 1.490 . S
C563 C565 1.395 . S
C563 C566 1.403 . S
H564 C570 0.930 . S
C565 H551 0.930 . S
C565 C563 1.395 . S
C565 C568 1.403 . S
C566 C563 1.403 . S
C566 C567 1.524 . S
C566 C570 1.400 . S
C567 H552 0.960 . S
C567 H553 0.960 . S
C567 H554 0.960 . S
C567 C566 1.524 . S
C568 C565 1.403 . S
C568 C569 1.392 . S
C568 C572 1.495 . S
C569 C568 1.392 . S
C569 C570 1.385 . S
C569 C571 1.478 . S
C570 H564 0.930 . S
C570 C566 1.400 . S
C570 C569 1.385 . S
C571 C569 1.478 . S
C571 C573 1.381 . S
C571 C577 1.383 . S
C572 C568 1.495 . S
C572 H578 0.959 . S
C572 H579 0.961 . S
C572 H580 0.960 . S
C573 C571 1.381 . S
C573 C574 1.394 . S
C573 H581 0.930 . S
C574 C573 1.394 . S
C574 C575 1.383 . S
C574 H582 0.929 . S
C575 C574 1.383 . S
C575 C576 1.377 . S
C576 H560 0.930 . S
C576 C575 1.377 . S
C576 C577 1.379 . S
C577 H561 0.931 . S
C577 C571 1.383 . S
C577 C576 1.379 . S
H578 C572 0.959 . S
H579 C572 0.961 . S
H580 C572 0.960 . S
H581 C573 0.930 . S
H582 C574 0.929 . S
H583 C591 0.929 . S
H584 C593 0.930 . S
H585 C595 0.930 . S
H586 C598 0.929 . S
H587 C601 0.930 . S
H588 C603 0.960 . S
H589 C603 0.960 . S
H590 C603 0.960 . S
C591 H583 0.929 . S
C591 C592 1.377 . S
C591 C593 1.384 . S
C592 C591 1.377 . S
C592 C598 1.390 . S
C593 H584 0.930 . S
C593 C591 1.384 . S
C593 C594 1.372 . S
C594 C593 1.372 . S
C594 C595 1.400 . S
C594 C599 1.490 . S
C595 H585 0.930 . S
C595 C594 1.400 . S
C595 C598 1.386 . S
H596 C612 0.930 . S
H597 C613 0.931 . S
C598 H586 0.929 . S
C598 C592 1.390 . S
C598 C595 1.386 . S
C599 C594 1.490 . S
C599 C601 1.395 . S
C599 C602 1.403 . S
H600 C606 0.930 . S
C601 H587 0.930 . S
C601 C599 1.395 . S
C601 C604 1.403 . S
C602 C599 1.403 . S
C602 C603 1.524 . S
C602 C606 1.400 . S
C603 H588 0.960 . S
C603 H589 0.960 . S
C603 H590 0.960 . S
C603 C602 1.524 . S
C604 C601 1.403 . S
C604 C605 1.392 . S
C604 C608 1.495 . S
C605 C604 1.392 . S
C605 C606 1.385 . S
C605 C607 1.478 . S
C606 H600 0.930 . S
C606 C602 1.400 . S
C606 C605 1.385 . S
C607 C605 1.478 . S
C607 C609 1.381 . S
C607 C613 1.383 . S
C608 C604 1.495 . S
C608 H614 0.959 . S
C608 H615 0.961 . S
C608 H616 0.960 . S
C609 C607 1.381 . S
C609 C610 1.394 . S
C609 H617 0.930 . S
C610 C609 1.394 . S
C610 C611 1.383 . S
C610 H618 0.929 . S
C611 C610 1.383 . S
C611 C612 1.377 . S
C612 H596 0.930 . S
C612 C611 1.377 . S
C612 C613 1.379 . S
C613 H597 0.931 . S
C613 C607 1.383 . S
C613 C612 1.379 . S
H614 C608 0.959 . S
H615 C608 0.961 . S
H616 C608 0.960 . S
H617 C609 0.930 . S
H618 C610 0.929 . S
H619 C627 0.929 . S
H620 C629 0.930 . S
H621 C631 0.930 . S
H622 C634 0.929 . S
H623 C637 0.930 . S
H624 C639 0.960 . S
H625 C639 0.960 . S
H626 C639 0.960 . S
C627 H619 0.929 . S
C627 C628 1.377 . S
C627 C629 1.384 . S
C628 C627 1.377 . S
C628 C634 1.390 . S
C629 H620 0.930 . S
C629 C627 1.384 . S
C629 C630 1.372 . S
C630 C629 1.372 . S
C630 C631 1.400 . S
C630 C635 1.490 . S
C631 H621 0.930 . S
C631 C630 1.400 . S
C631 C634 1.386 . S
H632 C648 0.930 . S
H633 C649 0.931 . S
C634 H622 0.929 . S
C634 C628 1.390 . S
C634 C631 1.386 . S
C635 C630 1.490 . S
C635 C637 1.395 . S
C635 C638 1.403 . S
H636 C642 0.930 . S
C637 H623 0.930 . S
C637 C635 1.395 . S
C637 C640 1.403 . S
C638 C635 1.403 . S
C638 C639 1.524 . S
C638 C642 1.400 . S
C639 H624 0.960 . S
C639 H625 0.960 . S
C639 H626 0.960 . S
C639 C638 1.524 . S
C640 C637 1.403 . S
C640 C641 1.392 . S
C640 C644 1.495 . S
C641 C640 1.392 . S
C641 C642 1.385 . S
C641 C643 1.478 . S
C642 H636 0.930 . S
C642 C638 1.400 . S
C642 C641 1.385 . S
C643 C641 1.478 . S
C643 C645 1.381 . S
C643 C649 1.383 . S
C644 C640 1.495 . S
C644 H650 0.959 . S
C644 H651 0.961 . S
C644 H652 0.960 . S
C645 C643 1.381 . S
C645 C646 1.394 . S
C645 H653 0.930 . S
C646 C645 1.394 . S
C646 C647 1.383 . S
C646 H654 0.929 . S
C647 C646 1.383 . S
C647 C648 1.377 . S
C648 H632 0.930 . S
C648 C647 1.377 . S
C648 C649 1.379 . S
C649 H633 0.931 . S
C649 C643 1.383 . S
C649 C648 1.379 . S
H650 C644 0.959 . S
H651 C644 0.961 . S
H652 C644 0.960 . S
H653 C645 0.930 . S
H654 C646 0.929 . S
H655 C663 0.929 . S
H656 C665 0.930 . S
H657 C667 0.930 . S
H658 C670 0.929 . S
H659 C673 0.930 . S
H660 C675 0.960 . S
H661 C675 0.960 . S
H662 C675 0.960 . S
C663 H655 0.929 . S
C663 C664 1.377 . S
C663 C665 1.384 . S
C664 C663 1.377 . S
C664 C670 1.390 . S
C665 H656 0.930 . S
C665 C663 1.384 . S
C665 C666 1.372 . S
C666 C665 1.372 . S
C666 C667 1.400 . S
C666 C671 1.490 . S
C667 H657 0.930 . S
C667 C666 1.400 . S
C667 C670 1.386 . S
H668 C684 0.930 . S
H669 C685 0.931 . S
C670 H658 0.929 . S
C670 C664 1.390 . S
C670 C667 1.386 . S
C671 C666 1.490 . S
C671 C673 1.395 . S
C671 C674 1.403 . S
H672 C678 0.930 . S
C673 H659 0.930 . S
C673 C671 1.395 . S
C673 C676 1.403 . S
C674 C671 1.403 . S
C674 C675 1.524 . S
C674 C678 1.400 . S
C675 H660 0.960 . S
C675 H661 0.960 . S
C675 H662 0.960 . S
C675 C674 1.524 . S
C676 C673 1.403 . S
C676 C677 1.392 . S
C676 C680 1.495 . S
C677 C676 1.392 . S
C677 C678 1.385 . S
C677 C679 1.478 . S
C678 H672 0.930 . S
C678 C674 1.400 . S
C678 C677 1.385 . S
C679 C677 1.478 . S
C679 C681 1.381 . S
C679 C685 1.383 . S
C680 C676 1.495 . S
C680 H686 0.959 . S
C680 H687 0.961 . S
C680 H688 0.960 . S
C681 C679 1.381 . S
C681 C682 1.394 . S
C681 H689 0.930 . S
C682 C681 1.394 . S
C682 C683 1.383 . S
C682 H690 0.929 . S
C683 C682 1.383 . S
C683 C684 1.377 . S
C684 H668 0.930 . S
C684 C683 1.377 . S
C684 C685 1.379 . S
C685 H669 0.931 . S
C685 C679 1.383 . S
C685 C684 1.379 . S
H686 C680 0.959 . S
H687 C680 0.961 . S
H688 C680 0.960 . S
H689 C681 0.930 . S
H690 C682 0.929 . S
H691 C699 0.929 . S
H692 C701 0.930 . S
H693 C703 0.930 . S
H694 C706 0.929 . S
H695 C709 0.930 . S
H696 C711 0.960 . S
H697 C711 0.960 . S
H698 C711 0.960 . S
C699 H691 0.929 . S
C699 C700 1.377 . S
C699 C701 1.384 . S
C700 C699 1.377 . S
C700 C706 1.390 . S
C701 H692 0.930 . S
C701 C699 1.384 . S
C701 C702 1.372 . S
C702 C701 1.372 . S
C702 C703 1.400 . S
C702 C707 1.490 . S
C703 H693 0.930 . S
C703 C702 1.400 . S
C703 C706 1.386 . S
H704 C720 0.930 . S
H705 C721 0.931 . S
C706 H694 0.929 . S
C706 C700 1.390 . S
C706 C703 1.386 . S
C707 C702 1.490 . S
C707 C709 1.395 . S
C707 C710 1.403 . S
H708 C714 0.930 . S
C709 H695 0.930 . S
C709 C707 1.395 . S
C709 C712 1.403 . S
C710 C707 1.403 . S
C710 C711 1.524 . S
C710 C714 1.400 . S
C711 H696 0.960 . S
C711 H697 0.960 . S
C711 H698 0.960 . S
C711 C710 1.524 . S
C712 C709 1.403 . S
C712 C713 1.392 . S
C712 C716 1.495 . S
C713 C712 1.392 . S
C713 C714 1.385 . S
C713 C715 1.478 . S
C714 H708 0.930 . S
C714 C710 1.400 . S
C714 C713 1.385 . S
C715 C713 1.478 . S
C715 C717 1.381 . S
C715 C721 1.383 . S
C716 C712 1.495 . S
C716 H722 0.959 . S
C716 H723 0.961 . S
C716 H724 0.960 . S
C717 C715 1.381 . S
C717 C718 1.394 . S
C717 H725 0.930 . S
C718 C717 1.394 . S
C718 C719 1.383 . S
C718 H726 0.929 . S
C719 C718 1.383 . S
C719 C720 1.377 . S
C720 H704 0.930 . S
C720 C719 1.377 . S
C720 C721 1.379 . S
C721 H705 0.931 . S
C721 C715 1.383 . S
C721 C720 1.379 . S
H722 C716 0.959 . S
H723 C716 0.961 . S
H724 C716 0.960 . S
H725 C717 0.930 . S
H726 C718 0.929 . S
H727 C735 0.929 . S
H728 C737 0.930 . S
H729 C739 0.930 . S
H730 C742 0.929 . S
H731 C745 0.930 . S
H732 C747 0.960 . S
H733 C747 0.960 . S
H734 C747 0.960 . S
C735 H727 0.929 . S
C735 C736 1.377 . S
C735 C737 1.384 . S
C736 C735 1.377 . S
C736 C742 1.390 . S
C737 H728 0.930 . S
C737 C735 1.384 . S
C737 C738 1.372 . S
C738 C737 1.372 . S
C738 C739 1.400 . S
C738 C743 1.490 . S
C739 H729 0.930 . S
C739 C738 1.400 . S
C739 C742 1.386 . S
H740 C756 0.930 . S
H741 C757 0.931 . S
C742 H730 0.929 . S
C742 C736 1.390 . S
C742 C739 1.386 . S
C743 C738 1.490 . S
C743 C745 1.395 . S
C743 C746 1.403 . S
H744 C750 0.930 . S
C745 H731 0.930 . S
C745 C743 1.395 . S
C745 C748 1.403 . S
C746 C743 1.403 . S
C746 C747 1.524 . S
C746 C750 1.400 . S
C747 H732 0.960 . S
C747 H733 0.960 . S
C747 H734 0.960 . S
C747 C746 1.524 . S
C748 C745 1.403 . S
C748 C749 1.392 . S
C748 C752 1.495 . S
C749 C748 1.392 . S
C749 C750 1.385 . S
C749 C751 1.478 . S
C750 H744 0.930 . S
C750 C746 1.400 . S
C750 C749 1.385 . S
C751 C749 1.478 . S
C751 C753 1.381 . S
C751 C757 1.383 . S
C752 C748 1.495 . S
C752 H758 0.959 . S
C752 H759 0.961 . S
C752 H760 0.960 . S
C753 C751 1.381 . S
C753 C754 1.394 . S
C753 H761 0.930 . S
C754 C753 1.394 . S
C754 C755 1.383 . S
C754 H762 0.929 . S
C755 C754 1.383 . S
C755 C756 1.377 . S
C756 H740 0.930 . S
C756 C755 1.377 . S
C756 C757 1.379 . S
C757 H741 0.931 . S
C757 C751 1.383 . S
C757 C756 1.379 . S
H758 C752 0.959 . S
H759 C752 0.961 . S
H760 C752 0.960 . S
H761 C753 0.930 . S
H762 C754 0.929 . S
H763 C771 0.929 . S
H764 C773 0.930 . S
H765 C775 0.930 . S
H766 C778 0.929 . S
H767 C781 0.930 . S
H768 C783 0.960 . S
H769 C783 0.960 . S
H770 C783 0.960 . S
C771 H763 0.929 . S
C771 C772 1.377 . S
C771 C773 1.384 . S
C772 C771 1.377 . S
C772 C778 1.390 . S
C773 H764 0.930 . S
C773 C771 1.384 . S
C773 C774 1.372 . S
C774 C773 1.372 . S
C774 C775 1.400 . S
C774 C779 1.490 . S
C775 H765 0.930 . S
C775 C774 1.400 . S
C775 C778 1.386 . S
H776 C792 0.930 . S
H777 C793 0.931 . S
C778 H766 0.929 . S
C778 C772 1.390 . S
C778 C775 1.386 . S
C779 C774 1.490 . S
C779 C781 1.395 . S
C779 C782 1.403 . S
H780 C786 0.930 . S
C781 H767 0.930 . S
C781 C779 1.395 . S
C781 C784 1.403 . S
C782 C779 1.403 . S
C782 C783 1.524 . S
C782 C786 1.400 . S
C783 H768 0.960 . S
C783 H769 0.960 . S
C783 H770 0.960 . S
C783 C782 1.524 . S
C784 C781 1.403 . S
C784 C785 1.392 . S
C784 C788 1.495 . S
C785 C784 1.392 . S
C785 C786 1.385 . S
C785 C787 1.478 . S
C786 H780 0.930 . S
C786 C782 1.400 . S
C786 C785 1.385 . S
C787 C785 1.478 . S
C787 C789 1.381 . S
C787 C793 1.383 . S
C788 C784 1.495 . S
C788 H794 0.959 . S
C788 H795 0.961 . S
C788 H796 0.960 . S
C789 C787 1.381 . S
C789 C790 1.394 . S
C789 H797 0.930 . S
C790 C789 1.394 . S
C790 C791 1.383 . S
C790 H798 0.929 . S
C791 C790 1.383 . S
C791 C792 1.377 . S
C792 H776 0.930 . S
C792 C791 1.377 . S
C792 C793 1.379 . S
C793 H777 0.931 . S
C793 C787 1.383 . S
C793 C792 1.379 . S
H794 C788 0.959 . S
H795 C788 0.961 . S
H796 C788 0.960 . S
H797 C789 0.930 . S
H798 C790 0.929 . S
H799 C807 0.929 . S
H800 C809 0.930 . S
H801 C811 0.930 . S
H802 C814 0.929 . S
H803 C817 0.930 . S
H804 C819 0.960 . S
H805 C819 0.960 . S
H806 C819 0.960 . S
C807 H799 0.929 . S
C807 C808 1.377 . S
C807 C809 1.384 . S
C808 C807 1.377 . S
C808 C814 1.390 . S
C809 H800 0.930 . S
C809 C807 1.384 . S
C809 C810 1.372 . S
C810 C809 1.372 . S
C810 C811 1.400 . S
C810 C815 1.490 . S
C811 H801 0.930 . S
C811 C810 1.400 . S
C811 C814 1.386 . S
H812 C828 0.930 . S
H813 C829 0.931 . S
C814 H802 0.929 . S
C814 C808 1.390 . S
C814 C811 1.386 . S
C815 C810 1.490 . S
C815 C817 1.395 . S
C815 C818 1.403 . S
H816 C822 0.930 . S
C817 H803 0.930 . S
C817 C815 1.395 . S
C817 C820 1.403 . S
C818 C815 1.403 . S
C818 C819 1.524 . S
C818 C822 1.400 . S
C819 H804 0.960 . S
C819 H805 0.960 . S
C819 H806 0.960 . S
C819 C818 1.524 . S
C820 C817 1.403 . S
C820 C821 1.392 . S
C820 C824 1.495 . S
C821 C820 1.392 . S
C821 C822 1.385 . S
C821 C823 1.478 . S
C822 H816 0.930 . S
C822 C818 1.400 . S
C822 C821 1.385 . S
C823 C821 1.478 . S
C823 C825 1.381 . S
C823 C829 1.383 . S
C824 C820 1.495 . S
C824 H830 0.959 . S
C824 H831 0.961 . S
C824 H832 0.960 . S
C825 C823 1.381 . S
C825 C826 1.394 . S
C825 H833 0.930 . S
C826 C825 1.394 . S
C826 C827 1.383 . S
C826 H834 0.929 . S
C827 C826 1.383 . S
C827 C828 1.377 . S
C828 H812 0.930 . S
C828 C827 1.377 . S
C828 C829 1.379 . S
C829 H813 0.931 . S
C829 C823 1.383 . S
C829 C828 1.379 . S
H830 C824 0.959 . S
H831 C824 0.961 . S
H832 C824 0.960 . S
H833 C825 0.930 . S
H834 C826 0.929 . S
H835 C843 0.929 . S
H836 C845 0.930 . S
H837 C847 0.930 . S
H838 C850 0.929 . S
H839 C853 0.930 . S
H840 C855 0.960 . S
H841 C855 0.960 . S
H842 C855 0.960 . S
C843 H835 0.929 . S
C843 C844 1.377 . S
C843 C845 1.384 . S
C844 C843 1.377 . S
C844 C850 1.390 . S
C845 H836 0.930 . S
C845 C843 1.384 . S
C845 C846 1.372 . S
C846 C845 1.372 . S
C846 C847 1.400 . S
C846 C851 1.490 . S
C847 H837 0.930 . S
C847 C846 1.400 . S
C847 C850 1.386 . S
H848 C864 0.930 . S
H849 C865 0.931 . S
C850 H838 0.929 . S
C850 C844 1.390 . S
C850 C847 1.386 . S
C851 C846 1.490 . S
C851 C853 1.395 . S
C851 C854 1.403 . S
H852 C858 0.930 . S
C853 H839 0.930 . S
C853 C851 1.395 . S
C853 C856 1.403 . S
C854 C851 1.403 . S
C854 C855 1.524 . S
C854 C858 1.400 . S
C855 H840 0.960 . S
C855 H841 0.960 . S
C855 H842 0.960 . S
C855 C854 1.524 . S
C856 C853 1.403 . S
C856 C857 1.392 . S
C856 C860 1.495 . S
C857 C856 1.392 . S
C857 C858 1.385 . S
C857 C859 1.478 . S
C858 H852 0.930 . S
C858 C854 1.400 . S
C858 C857 1.385 . S
C859 C857 1.478 . S
C859 C861 1.381 . S
C859 C865 1.383 . S
C860 C856 1.495 . S
C860 H866 0.959 . S
C860 H867 0.961 . S
C860 H868 0.960 . S
C861 C859 1.381 . S
C861 C862 1.394 . S
C861 H869 0.930 . S
C862 C861 1.394 . S
C862 C863 1.383 . S
C862 H870 0.929 . S
C863 C862 1.383 . S
C863 C864 1.377 . S
C864 H848 0.930 . S
C864 C863 1.377 . S
C864 C865 1.379 . S
C865 H849 0.931 . S
C865 C859 1.383 . S
C865 C864 1.379 . S
H866 C860 0.959 . S
H867 C860 0.961 . S
H868 C860 0.960 . S
H869 C861 0.930 . S
H870 C862 0.929 . S
H871 C879 0.929 . S
H872 C881 0.930 . S
H873 C883 0.930 . S
H874 C886 0.929 . S
H875 C889 0.930 . S
H876 C891 0.960 . S
H877 C891 0.960 . S
H878 C891 0.960 . S
C879 H871 0.929 . S
C879 C880 1.377 . S
C879 C881 1.384 . S
C880 C879 1.377 . S
C880 C886 1.390 . S
C881 H872 0.930 . S
C881 C879 1.384 . S
C881 C882 1.372 . S
C882 C881 1.372 . S
C882 C883 1.400 . S
C882 C887 1.490 . S
C883 H873 0.930 . S
C883 C882 1.400 . S
C883 C886 1.386 . S
H884 C900 0.930 . S
H885 C901 0.931 . S
C886 H874 0.929 . S
C886 C880 1.390 . S
C886 C883 1.386 . S
C887 C882 1.490 . S
C887 C889 1.395 . S
C887 C890 1.403 . S
H888 C894 0.930 . S
C889 H875 0.930 . S
C889 C887 1.395 . S
C889 C892 1.403 . S
C890 C887 1.403 . S
C890 C891 1.524 . S
C890 C894 1.400 . S
C891 H876 0.960 . S
C891 H877 0.960 . S
C891 H878 0.960 . S
C891 C890 1.524 . S
C892 C889 1.403 . S
C892 C893 1.392 . S
C892 C896 1.495 . S
C893 C892 1.392 . S
C893 C894 1.385 . S
C893 C895 1.478 . S
C894 H888 0.930 . S
C894 C890 1.400 . S
C894 C893 1.385 . S
C895 C893 1.478 . S
C895 C897 1.381 . S
C895 C901 1.383 . S
C896 C892 1.495 . S
C896 H902 0.959 . S
C896 H903 0.961 . S
C896 H904 0.960 . S
C897 C895 1.381 . S
C897 C898 1.394 . S
C897 H905 0.930 . S
C898 C897 1.394 . S
C898 C899 1.383 . S
C898 H906 0.929 . S
C899 C898 1.383 . S
C899 C900 1.377 . S
C900 H884 0.930 . S
C900 C899 1.377 . S
C900 C901 1.379 . S
C901 H885 0.931 . S
C901 C895 1.383 . S
C901 C900 1.379 . S
H902 C896 0.959 . S
H903 C896 0.961 . S
H904 C896 0.960 . S
H905 C897 0.930 . S
H906 C898 0.929 . S
H907 C915 0.929 . S
H908 C917 0.930 . S
H909 C919 0.930 . S
H910 C922 0.929 . S
H911 C925 0.930 . S
H912 C927 0.960 . S
H913 C927 0.960 . S
H914 C927 0.960 . S
C915 H907 0.929 . S
C915 C916 1.377 . S
C915 C917 1.384 . S
C916 C915 1.377 . S
C916 C922 1.390 . S
C917 H908 0.930 . S
C917 C915 1.384 . S
C917 C918 1.372 . S
C918 C917 1.372 . S
C918 C919 1.400 . S
C918 C923 1.490 . S
C919 H909 0.930 . S
C919 C918 1.400 . S
C919 C922 1.386 . S
H920 C936 0.930 . S
H921 C937 0.931 . S
C922 H910 0.929 . S
C922 C916 1.390 . S
C922 C919 1.386 . S
C923 C918 1.490 . S
C923 C925 1.395 . S
C923 C926 1.403 . S
H924 C930 0.930 . S
C925 H911 0.930 . S
C925 C923 1.395 . S
C925 C928 1.403 . S
C926 C923 1.403 . S
C926 C927 1.524 . S
C926 C930 1.400 . S
C927 H912 0.960 . S
C927 H913 0.960 . S
C927 H914 0.960 . S
C927 C926 1.524 . S
C928 C925 1.403 . S
C928 C929 1.392 . S
C928 C932 1.495 . S
C929 C928 1.392 . S
C929 C930 1.385 . S
C929 C931 1.478 . S
C930 H924 0.930 . S
C930 C926 1.400 . S
C930 C929 1.385 . S
C931 C929 1.478 . S
C931 C933 1.381 . S
C931 C937 1.383 . S
C932 C928 1.495 . S
C932 H938 0.959 . S
C932 H939 0.961 . S
C932 H940 0.960 . S
C933 C931 1.381 . S
C933 C934 1.394 . S
C933 H941 0.930 . S
C934 C933 1.394 . S
C934 C935 1.383 . S
C934 H942 0.929 . S
C935 C934 1.383 . S
C935 C936 1.377 . S
C936 H920 0.930 . S
C936 C935 1.377 . S
C936 C937 1.379 . S
C937 H921 0.931 . S
C937 C931 1.383 . S
C937 C936 1.379 . S
H938 C932 0.959 . S
H939 C932 0.961 . S
H940 C932 0.960 . S
H941 C933 0.930 . S
H942 C934 0.929 . S
H943 C951 0.929 . S
H944 C953 0.930 . S
H945 C955 0.930 . S
H946 C958 0.929 . S
H947 C961 0.930 . S
H948 C963 0.960 . S
H949 C963 0.960 . S
H950 C963 0.960 . S
C951 H943 0.929 . S
C951 C952 1.377 . S
C951 C953 1.384 . S
C952 C951 1.377 . S
C952 C958 1.390 . S
C953 H944 0.930 . S
C953 C951 1.384 . S
C953 C954 1.372 . S
C954 C953 1.372 . S
C954 C955 1.400 . S
C954 C959 1.490 . S
C955 H945 0.930 . S
C955 C954 1.400 . S
C955 C958 1.386 . S
H956 C972 0.930 . S
H957 C973 0.931 . S
C958 H946 0.929 . S
C958 C952 1.390 . S
C958 C955 1.386 . S
C959 C954 1.490 . S
C959 C961 1.395 . S
C959 C962 1.403 . S
H960 C966 0.930 . S
C961 H947 0.930 . S
C961 C959 1.395 . S
C961 C964 1.403 . S
C962 C959 1.403 . S
C962 C963 1.524 . S
C962 C966 1.400 . S
C963 H948 0.960 . S
C963 H949 0.960 . S
C963 H950 0.960 . S
C963 C962 1.524 . S
C964 C961 1.403 . S
C964 C965 1.392 . S
C964 C968 1.495 . S
C965 C964 1.392 . S
C965 C966 1.385 . S
C965 C967 1.478 . S
C966 H960 0.930 . S
C966 C962 1.400 . S
C966 C965 1.385 . S
C967 C965 1.478 . S
C967 C969 1.381 . S
C967 C973 1.383 . S
C968 C964 1.495 . S
C968 H974 0.959 . S
C968 H975 0.961 . S
C968 H976 0.960 . S
C969 C967 1.381 . S
C969 C970 1.394 . S
C969 H977 0.930 . S
C970 C969 1.394 . S
C970 C971 1.383 . S
C970 H978 0.929 . S
C971 C970 1.383 . S
C971 C972 1.377 . S
C972 H956 0.930 . S
C972 C971 1.377 . S
C972 C973 1.379 . S
C973 H957 0.931 . S
C973 C967 1.383 . S
C973 C972 1.379 . S
H974 C968 0.959 . S
H975 C968 0.961 . S
H976 C968 0.960 . S
H977 C969 0.930 . S
H978 C970 0.929 . S
H979 C987 0.929 . S
H980 C989 0.930 . S
H981 C991 0.930 . S
H982 C994 0.929 . S
H983 C997 0.930 . S
H984 C999 0.960 . S
H985 C999 0.960 . S
H986 C999 0.960 . S
C987 H979 0.929 . S
C987 C988 1.377 . S
C987 C989 1.384 . S
C988 C987 1.377 . S
C988 C994 1.390 . S
C989 H980 0.930 . S
C989 C987 1.384 . S
C989 C990 1.372 . S
C990 C989 1.372 . S
C990 C991 1.400 . S
C990 C995 1.490 . S
C991 H981 0.930 . S
C991 C990 1.400 . S
C991 C994 1.386 . S
H992 C1008 0.930 . S
H993 C1009 0.931 . S
C994 H982 0.929 . S
C994 C988 1.390 . S
C994 C991 1.386 . S
C995 C990 1.490 . S
C995 C997 1.395 . S
C995 C998 1.403 . S
H996 C1002 0.930 . S
C997 H983 0.930 . S
C997 C995 1.395 . S
C997 C1000 1.403 . S
C998 C995 1.403 . S
C998 C999 1.524 . S
C998 C1002 1.400 . S
C999 H984 0.960 . S
C999 H985 0.960 . S
C999 H986 0.960 . S
C999 C998 1.524 . S
C1000 C997 1.403 . S
C1000 C1001 1.392 . S
C1000 C1004 1.495 . S
C1001 C1000 1.392 . S
C1001 C1002 1.385 . S
C1001 C1003 1.478 . S
C1002 H996 0.930 . S
C1002 C998 1.400 . S
C1002 C1001 1.385 . S
C1003 C1001 1.478 . S
C1003 C1005 1.381 . S
C1003 C1009 1.383 . S
C1004 C1000 1.495 . S
C1004 H1010 0.959 . S
C1004 H1011 0.961 . S
C1004 H1012 0.960 . S
C1005 C1003 1.381 . S
C1005 C1006 1.394 . S
C1005 H1013 0.930 . S
C1006 C1005 1.394 . S
C1006 C1007 1.383 . S
C1006 H1014 0.929 . S
C1007 C1006 1.383 . S
C1007 C1008 1.377 . S
C1008 H992 0.930 . S
C1008 C1007 1.377 . S
C1008 C1009 1.379 . S
C1009 H993 0.931 . S
C1009 C1003 1.383 . S
C1009 C1008 1.379 . S
H1010 C1004 0.959 . S
H1011 C1004 0.961 . S
H1012 C1004 0.960 . S
H1013 C1005 0.930 . S
H1014 C1006 0.929 . S
H1015 C1023 0.929 . S
H1016 C1025 0.930 . S
H1017 C1027 0.930 . S
H1018 C1030 0.929 . S
H1019 C1033 0.930 . S
H1020 C1035 0.960 . S
H1021 C1035 0.960 . S
H1022 C1035 0.960 . S
C1023 H1015 0.929 . S
C1023 C1024 1.377 . S
C1023 C1025 1.384 . S
C1024 C1023 1.377 . S
C1024 C1030 1.390 . S
C1025 H1016 0.930 . S
C1025 C1023 1.384 . S
C1025 C1026 1.372 . S
C1026 C1025 1.372 . S
C1026 C1027 1.400 . S
C1026 C1031 1.490 . S
C1027 H1017 0.930 . S
C1027 C1026 1.400 . S
C1027 C1030 1.386 . S
H1028 C1044 0.930 . S
H1029 C1045 0.931 . S
C1030 H1018 0.929 . S
C1030 C1024 1.390 . S
C1030 C1027 1.386 . S
C1031 C1026 1.490 . S
C1031 C1033 1.395 . S
C1031 C1034 1.403 . S
H1032 C1038 0.930 . S
C1033 H1019 0.930 . S
C1033 C1031 1.395 . S
C1033 C1036 1.403 . S
C1034 C1031 1.403 . S
C1034 C1035 1.524 . S
C1034 C1038 1.400 . S
C1035 H1020 0.960 . S
C1035 H1021 0.960 . S
C1035 H1022 0.960 . S
C1035 C1034 1.524 . S
C1036 C1033 1.403 . S
C1036 C1037 1.392 . S
C1036 C1040 1.495 . S
C1037 C1036 1.392 . S
C1037 C1038 1.385 . S
C1037 C1039 1.478 . S
C1038 H1032 0.930 . S
C1038 C1034 1.400 . S
C1038 C1037 1.385 . S
C1039 C1037 1.478 . S
C1039 C1041 1.381 . S
C1039 C1045 1.383 . S
C1040 C1036 1.495 . S
C1040 H1046 0.959 . S
C1040 H1047 0.961 . S
C1040 H1048 0.960 . S
C1041 C1039 1.381 . S
C1041 C1042 1.394 . S
C1041 H1049 0.930 . S
C1042 C1041 1.394 . S
C1042 C1043 1.383 . S
C1042 H1050 0.929 . S
C1043 C1042 1.383 . S
C1043 C1044 1.377 . S
C1044 H1028 0.930 . S
C1044 C1043 1.377 . S
C1044 C1045 1.379 . S
C1045 H1029 0.931 . S
C1045 C1039 1.383 . S
C1045 C1044 1.379 . S
H1046 C1040 0.959 . S
H1047 C1040 0.961 . S
H1048 C1040 0.960 . S
H1049 C1041 0.930 . S
H1050 C1042 0.929 . S
C215 C112 1.328 . S
C196 C10 1.391 . S
C251 C148 1.205 . S
C232 C15 1.332 . S
C287 C113 1.695 . S
C268 C27 1.717 . S
C323 C143 1.514 . S
C304 C38 1.607 . S
C359 C110 1.362 . S
C340 C49 1.457 . S
C376 C59 1.952 . S
C395 C146 1.948 . S
C412 C71 0.611 . S
C431 C115 0.705 . S
C467 C145 1.451 . S
C448 C87 1.510 . S
C503 C149 1.821 . S
C484 C5 1.860 . S
C539 C114 1.069 . S
C520 C16 1.082 . S
C575 C142 1.638 . S
C556 C32 1.628 . S
C611 C111 1.064 . S
C592 C37 1.196 . S
C647 C144 1.645 . S
C628 C48 1.803 . S
C664 C65 1.316 . S
C683 C109 1.294 . S
C700 C70 1.069 . S
C719 C147 1.025 . S
C755 C116 1.415 . S
C736 C82 1.504 . S
C791 C178 2.025 . S
C772 C4 2.096 . S
C808 C54 1.918 . S
C827 C181 1.802 . S
C863 C180 2.045 . S
C844 C60 2.095 . S
C880 C76 1.239 . S
C899 C179 1.211 . S
C935 C182 2.058 . S
C916 C81 2.183 . S
C952 C26 1.984 . S
C971 C176 1.895 . S
C1007 C175 2.027 . S
C988 C43 2.037 . S
C1024 C21 1.027 . S
C1043 C177 1.014 . S
