# Generated by pormake.
# Topology eea, (3,6)-cn, num edge types: 1
# Building blocks:
#     Node 0, Type 0, BuildingBlock: BETDAH_clean_linker_0, # of connection points: 3
#     Node 1, Type 0, BuildingBlock: BETDAH_clean_linker_0, # of connection points: 3
#     Node 2, Type 0, BuildingBlock: BETDAH_clean_linker_0, # of connection points: 3
#     Node 3, Type 0, BuildingBlock: BETDAH_clean_linker_0, # of connection points: 3
#     Node 4, Type 0, BuildingBlock: BETDAH_clean_linker_0, # of connection points: 3
#     Node 5, Type 0, BuildingBlock: BETDAH_clean_linker_0, # of connection points: 3
#     Node 6, Type 0, BuildingBlock: BETDAH_clean_linker_0, # of connection points: 3
#     Node 7, Type 0, BuildingBlock: BETDAH_clean_linker_0, # of connection points: 3
#     Node 8, Type 0, BuildingBlock: BETDAH_clean_linker_0, # of connection points: 3
#     Node 9, Type 0, BuildingBlock: BETDAH_clean_linker_0, # of connection points: 3
#     Node 10, Type 0, BuildingBlock: BETDAH_clean_linker_0, # of connection points: 3
#     Node 11, Type 0, BuildingBlock: BETDAH_clean_linker_0, # of connection points: 3
#     Node 12, Type 0, BuildingBlock: BETDAH_clean_linker_0, # of connection points: 3
#     Node 13, Type 0, BuildingBlock: BETDAH_clean_linker_0, # of connection points: 3
#     Node 14, Type 0, BuildingBlock: BETDAH_clean_linker_0, # of connection points: 3
#     Node 15, Type 0, BuildingBlock: BETDAH_clean_linker_0, # of connection points: 3
#     Node 16, Type 0, BuildingBlock: BETDAH_clean_linker_0, # of connection points: 3
#     Node 17, Type 0, BuildingBlock: BETDAH_clean_linker_0, # of connection points: 3
#     Node 18, Type 1, BuildingBlock: CUWYAW_clean_sbu_0, # of connection points: 6
#     Node 19, Type 1, BuildingBlock: CUWYAW_clean_sbu_0, # of connection points: 6
#     Node 20, Type 1, BuildingBlock: CUWYAW_clean_sbu_0, # of connection points: 6
#     Node 21, Type 1, BuildingBlock: CUWYAW_clean_sbu_0, # of connection points: 6
#     Node 22, Type 1, BuildingBlock: CUWYAW_clean_sbu_0, # of connection points: 6
#     Node 23, Type 1, BuildingBlock: CUWYAW_clean_sbu_0, # of connection points: 6
#     Node 24, Type 1, BuildingBlock: CUWYAW_clean_sbu_0, # of connection points: 6
#     Node 25, Type 1, BuildingBlock: CUWYAW_clean_sbu_0, # of connection points: 6
#     Node 26, Type 1, BuildingBlock: CUWYAW_clean_sbu_0, # of connection points: 6
#     Edge 27, Type (0, 1), BuildingBlock: MIFKUJ_clean_linker_0, # of connection points: 2
#     Edge 28, Type (0, 1), BuildingBlock: MIFKUJ_clean_linker_0, # of connection points: 2
#     Edge 29, Type (0, 1), BuildingBlock: MIFKUJ_clean_linker_0, # of connection points: 2
#     Edge 30, Type (0, 1), BuildingBlock: MIFKUJ_clean_linker_0, # of connection points: 2
#     Edge 31, Type (0, 1), BuildingBlock: MIFKUJ_clean_linker_0, # of connection points: 2
#     Edge 32, Type (0, 1), BuildingBlock: MIFKUJ_clean_linker_0, # of connection points: 2
#     Edge 33, Type (0, 1), BuildingBlock: MIFKUJ_clean_linker_0, # of connection points: 2
#     Edge 34, Type (0, 1), BuildingBlock: MIFKUJ_clean_linker_0, # of connection points: 2
#     Edge 35, Type (0, 1), BuildingBlock: MIFKUJ_clean_linker_0, # of connection points: 2
#     Edge 36, Type (0, 1), BuildingBlock: MIFKUJ_clean_linker_0, # of connection points: 2
#     Edge 37, Type (0, 1), BuildingBlock: MIFKUJ_clean_linker_0, # of connection points: 2
#     Edge 38, Type (0, 1), BuildingBlock: MIFKUJ_clean_linker_0, # of connection points: 2
#     Edge 39, Type (0, 1), BuildingBlock: MIFKUJ_clean_linker_0, # of connection points: 2
#     Edge 40, Type (0, 1), BuildingBlock: MIFKUJ_clean_linker_0, # of connection points: 2
#     Edge 41, Type (0, 1), BuildingBlock: MIFKUJ_clean_linker_0, # of connection points: 2
#     Edge 42, Type (0, 1), BuildingBlock: MIFKUJ_clean_linker_0, # of connection points: 2
#     Edge 43, Type (0, 1), BuildingBlock: MIFKUJ_clean_linker_0, # of connection points: 2
#     Edge 44, Type (0, 1), BuildingBlock: MIFKUJ_clean_linker_0, # of connection points: 2
#     Edge 45, Type (0, 1), BuildingBlock: MIFKUJ_clean_linker_0, # of connection points: 2
#     Edge 46, Type (0, 1), BuildingBlock: MIFKUJ_clean_linker_0, # of connection points: 2
#     Edge 47, Type (0, 1), BuildingBlock: MIFKUJ_clean_linker_0, # of connection points: 2
#     Edge 48, Type (0, 1), BuildingBlock: MIFKUJ_clean_linker_0, # of connection points: 2
#     Edge 49, Type (0, 1), BuildingBlock: MIFKUJ_clean_linker_0, # of connection points: 2
#     Edge 50, Type (0, 1), BuildingBlock: MIFKUJ_clean_linker_0, # of connection points: 2
#     Edge 51, Type (0, 1), BuildingBlock: MIFKUJ_clean_linker_0, # of connection points: 2
#     Edge 52, Type (0, 1), BuildingBlock: MIFKUJ_clean_linker_0, # of connection points: 2
#     Edge 53, Type (0, 1), BuildingBlock: MIFKUJ_clean_linker_0, # of connection points: 2
#     Edge 54, Type (0, 1), BuildingBlock: MIFKUJ_clean_linker_0, # of connection points: 2
#     Edge 55, Type (0, 1), BuildingBlock: MIFKUJ_clean_linker_0, # of connection points: 2
#     Edge 56, Type (0, 1), BuildingBlock: MIFKUJ_clean_linker_0, # of connection points: 2
#     Edge 57, Type (0, 1), BuildingBlock: MIFKUJ_clean_linker_0, # of connection points: 2
#     Edge 58, Type (0, 1), BuildingBlock: MIFKUJ_clean_linker_0, # of connection points: 2
#     Edge 59, Type (0, 1), BuildingBlock: MIFKUJ_clean_linker_0, # of connection points: 2
#     Edge 60, Type (0, 1), BuildingBlock: MIFKUJ_clean_linker_0, # of connection points: 2
#     Edge 61, Type (0, 1), BuildingBlock: MIFKUJ_clean_linker_0, # of connection points: 2
#     Edge 62, Type (0, 1), BuildingBlock: MIFKUJ_clean_linker_0, # of connection points: 2
#     Edge 63, Type (0, 1), BuildingBlock: MIFKUJ_clean_linker_0, # of connection points: 2
#     Edge 64, Type (0, 1), BuildingBlock: MIFKUJ_clean_linker_0, # of connection points: 2
#     Edge 65, Type (0, 1), BuildingBlock: MIFKUJ_clean_linker_0, # of connection points: 2
#     Edge 66, Type (0, 1), BuildingBlock: MIFKUJ_clean_linker_0, # of connection points: 2
#     Edge 67, Type (0, 1), BuildingBlock: MIFKUJ_clean_linker_0, # of connection points: 2
#     Edge 68, Type (0, 1), BuildingBlock: MIFKUJ_clean_linker_0, # of connection points: 2
#     Edge 69, Type (0, 1), BuildingBlock: MIFKUJ_clean_linker_0, # of connection points: 2
#     Edge 70, Type (0, 1), BuildingBlock: MIFKUJ_clean_linker_0, # of connection points: 2
#     Edge 71, Type (0, 1), BuildingBlock: MIFKUJ_clean_linker_0, # of connection points: 2
#     Edge 72, Type (0, 1), BuildingBlock: MIFKUJ_clean_linker_0, # of connection points: 2
#     Edge 73, Type (0, 1), BuildingBlock: MIFKUJ_clean_linker_0, # of connection points: 2
#     Edge 74, Type (0, 1), BuildingBlock: MIFKUJ_clean_linker_0, # of connection points: 2
#     Edge 75, Type (0, 1), BuildingBlock: MIFKUJ_clean_linker_0, # of connection points: 2
#     Edge 76, Type (0, 1), BuildingBlock: MIFKUJ_clean_linker_0, # of connection points: 2
#     Edge 77, Type (0, 1), BuildingBlock: MIFKUJ_clean_linker_0, # of connection points: 2
#     Edge 78, Type (0, 1), BuildingBlock: MIFKUJ_clean_linker_0, # of connection points: 2
#     Edge 79, Type (0, 1), BuildingBlock: MIFKUJ_clean_linker_0, # of connection points: 2
#     Edge 80, Type (0, 1), BuildingBlock: MIFKUJ_clean_linker_0, # of connection points: 2
# Relax obj value: 0.055
# Max RMSD: 0.193
# Mean RMSD: 0.135
data_MOF--net-eea--node1-CUWYAW_clean_sbu_0--node2-BETDAH_clean_linker_0--edge1-MIFKUJ_clean_linker_0
_symmetry_space_group_name_H-M    P1
_symmetry_Int_Tables_number       1
_symmetry_cell_setting            triclinic
loop_
_symmetry_equiv_pos_as_xyz
'x, y, z'
_cell_length_a     71.471015
_cell_length_b     71.299411
_cell_length_c     86.047486
_cell_angle_alpha  93.330516
_cell_angle_beta   93.4636
_cell_angle_gamma 119.79149
loop_
_atom_site_label
_atom_site_type_symbol
_atom_site_fract_x
_atom_site_fract_y
_atom_site_fract_z
_atom_type_partial_charge
H0 H 0.23883 0.08732 0.43137 0.0
H1 H 0.24585 0.14851 0.42021 0.0
H2 H 0.22874 0.09743 0.38357 0.0
C3 C 0.23827 0.09767 0.42283 0.0
C4 C 0.23291 0.08973 0.40695 0.0
C5 C 0.24295 0.11886 0.42775 0.0
C6 C 0.24222 0.13215 0.41654 0.0
C7 C 0.23703 0.12433 0.40057 0.0
C8 C 0.23256 0.10328 0.39591 0.0
N9 N 0.23659 0.13727 0.3888 0.0
C10 C 0.23289 0.15452 0.39129 0.0
H11 H 0.93707 0.17121 0.4434 0.0
H12 H 0.87907 0.10909 0.43088 0.0
H13 H 0.92506 0.138 0.39744 0.0
C14 C 0.92674 0.15747 0.43488 0.0
C15 C 0.93348 0.15656 0.42 0.0
C16 C 0.9072 0.14028 0.439 0.0
C17 C 0.89426 0.12223 0.42792 0.0
C18 C 0.90069 0.12157 0.41286 0.0
C19 C 0.92021 0.13868 0.40907 0.0
N20 N 0.88796 0.1043 0.40102 0.0
C21 C 0.8705 0.08423 0.40327 0.0
H22 H 0.8559 0.76969 0.44685 0.0
H23 H 0.90946 0.76112 0.43574 0.0
H24 H 0.87311 0.77243 0.39973 0.0
C25 C 0.86659 0.76947 0.43852 0.0
C26 C 0.86274 0.77208 0.42283 0.0
C27 C 0.8833 0.76534 0.44337 0.0
C28 C 0.89661 0.76437 0.43225 0.0
C29 C 0.89276 0.76688 0.4165 0.0
C30 C 0.87582 0.7705 0.41192 0.0
N31 N 0.90455 0.76451 0.40461 0.0
C32 C 0.92608 0.76967 0.40648 0.0
H33 H 0.07223 0.23546 0.5791 0.0
H34 H 0.12574 0.22381 0.58663 0.0
H35 H 0.07877 0.2062 0.61977 0.0
C36 C 0.08099 0.22955 0.58602 0.0
C37 C 0.07296 0.22038 0.59986 0.0
C38 C 0.09999 0.23081 0.58096 0.0
C39 C 0.11135 0.22336 0.59038 0.0
C40 C 0.10361 0.21453 0.6044 0.0
C41 C 0.08449 0.21299 0.60892 0.0
N42 N 0.11411 0.20644 0.61419 0.0
C43 C 0.13484 0.20968 0.61323 0.0
H44 H 0.76813 0.83974 0.59949 0.0
H45 H 0.77402 0.90273 0.60751 0.0
H46 H 0.78719 0.87372 0.6458 0.0
C47 C 0.77172 0.85375 0.60742 0.0
C48 C 0.77776 0.8544 0.62339 0.0
C49 C 0.77044 0.87116 0.60155 0.0
C50 C 0.77523 0.88939 0.61187 0.0
C51 C 0.78096 0.89004 0.62789 0.0
C52 C 0.78216 0.87263 0.63349 0.0
N53 N 0.78547 0.90776 0.63886 0.0
C54 C 0.78926 0.92796 0.6351 0.0
H55 H 0.1606 0.92004 0.59157 0.0
H56 H 0.09543 0.86725 0.59322 0.0
H57 H 0.12465 0.92009 0.62979 0.0
C58 C 0.146 0.91222 0.59747 0.0
C59 C 0.14498 0.9223 0.61162 0.0
C60 C 0.12825 0.89236 0.5907 0.0
C61 C 0.10925 0.88243 0.59838 0.0
C62 C 0.10814 0.89246 0.61262 0.0
C63 C 0.1259 0.91229 0.61902 0.0
N64 N 0.08927 0.88382 0.62066 0.0
C65 C 0.07244 0.86238 0.61894 0.0
H66 H 0.90495 0.42308 0.76295 0.0
H67 H 0.91453 0.48549 0.75254 0.0
H68 H 0.90148 0.43675 0.71519 0.0
C69 C 0.90533 0.43396 0.75453 0.0
C70 C 0.90216 0.42709 0.73847 0.0
C71 C 0.90998 0.45505 0.75978 0.0
C72 C 0.91103 0.46923 0.74869 0.0
C73 C 0.90808 0.46255 0.73261 0.0
C74 C 0.90393 0.44171 0.72763 0.0
N75 N 0.90983 0.47658 0.72107 0.0
C76 C 0.90367 0.49218 0.72265 0.0
H77 H 0.60304 0.50235 0.77524 0.0
H78 H 0.53964 0.44654 0.76173 0.0
H79 H 0.58335 0.4757 0.72707 0.0
C80 C 0.5909 0.49045 0.76631 0.0
C81 C 0.59579 0.49085 0.75071 0.0
C82 C 0.57066 0.47454 0.77049 0.0
C83 C 0.55542 0.45865 0.75881 0.0
C84 C 0.56012 0.45911 0.74317 0.0
C85 C 0.58009 0.4753 0.73923 0.0
N86 N 0.54486 0.44414 0.73094 0.0
C87 C 0.52882 0.42312 0.73281 0.0
H88 H 0.51868 0.09914 0.77727 0.0
H89 H 0.58416 0.11216 0.7752 0.0
H90 H 0.55552 0.13425 0.74072 0.0
C91 C 0.53348 0.10593 0.77156 0.0
C92 C 0.53481 0.11659 0.75813 0.0
C93 C 0.55116 0.1042 0.77781 0.0
C94 C 0.57041 0.11326 0.7704 0.0
C95 C 0.57185 0.12397 0.7569 0.0
C96 C 0.55411 0.12561 0.75095 0.0
N97 N 0.59098 0.13407 0.74919 0.0
C98 C 0.60789 0.12969 0.75042 0.0
H99 H 0.7405 0.5752 0.91526 0.0
H100 H 0.7929 0.56184 0.92227 0.0
H101 H 0.74711 0.54633 0.95621 0.0
C102 C 0.74917 0.56923 0.92226 0.0
C103 C 0.74178 0.56117 0.93653 0.0
C104 C 0.76759 0.56951 0.91695 0.0
C105 C 0.77868 0.56163 0.92617 0.0
C106 C 0.77124 0.55336 0.94039 0.0
C107 C 0.75286 0.55309 0.94536 0.0
N108 N 0.78129 0.54459 0.94993 0.0
C109 C 0.80187 0.54741 0.94896 0.0
H110 H 0.44044 0.18034 0.92868 0.0
H111 H 0.44329 0.2411 0.94152 0.0
H112 H 0.46416 0.21176 0.97553 0.0
C113 C 0.44401 0.19354 0.93744 0.0
C114 C 0.45284 0.19398 0.95256 0.0
C115 C 0.44058 0.21052 0.93334 0.0
C116 C 0.44596 0.22803 0.9446 0.0
C117 C 0.4544 0.22834 0.95988 0.0
C118 C 0.45776 0.21138 0.96369 0.0
N119 N 0.45971 0.24525 0.97186 0.0
C120 C 0.45817 0.26371 0.97022 0.0
H121 H 0.8175 0.25332 0.91959 0.0
H122 H 0.76609 0.1903 0.92867 0.0
H123 H 0.8019 0.24017 0.96658 0.0
C124 C 0.80747 0.24231 0.92765 0.0
C125 C 0.81121 0.24949 0.94365 0.0
C126 C 0.79121 0.22099 0.92204 0.0
C127 C 0.77851 0.20681 0.93275 0.0
C128 C 0.78244 0.21387 0.94883 0.0
C129 C 0.79877 0.23504 0.95413 0.0
N130 N 0.77147 0.19984 0.96024 0.0
C131 C 0.74997 0.18324 0.95834 0.0
H132 H 0.56823 0.75734 0.1019 0.0
H133 H 0.58073 0.82067 0.09111 0.0
H134 H 0.57251 0.77302 0.05434 0.0
C135 C 0.5702 0.76875 0.09347 0.0
C136 C 0.56934 0.76257 0.07756 0.0
C137 C 0.57477 0.78987 0.09859 0.0
C138 C 0.57748 0.80446 0.08739 0.0
C139 C 0.57664 0.79832 0.07142 0.0
C140 C 0.57306 0.77762 0.06667 0.0
N141 N 0.57991 0.81275 0.05986 0.0
C142 C 0.57436 0.82885 0.06099 0.0
H143 H 0.26702 0.83416 0.10671 0.0
H144 H 0.20639 0.77501 0.09266 0.0
H145 H 0.25171 0.80514 0.05911 0.0
C146 C 0.25602 0.82127 0.09783 0.0
C147 C 0.26205 0.82137 0.08258 0.0
C148 C 0.23589 0.80464 0.10164 0.0
C149 C 0.22183 0.78799 0.08991 0.0
C150 C 0.22761 0.78828 0.07457 0.0
C151 C 0.24753 0.80499 0.07102 0.0
N152 N 0.21367 0.77241 0.06223 0.0
C153 C 0.19715 0.75166 0.06418 0.0
H154 H 0.1892 0.44138 0.11339 0.0
H155 H 0.23841 0.42601 0.10231 0.0
H156 H 0.20343 0.43792 0.06577 0.0
C157 C 0.19862 0.43906 0.10489 0.0
C158 C 0.19473 0.44115 0.08903 0.0
C159 C 0.21404 0.43321 0.10983 0.0
C160 C 0.2265 0.43051 0.09875 0.0
C161 C 0.22277 0.43259 0.08289 0.0
C162 C 0.2067 0.43739 0.07815 0.0
N163 N 0.23345 0.42809 0.07111 0.0
C164 C 0.25511 0.43361 0.07254 0.0
H165 H 0.40653 0.90183 0.2474 0.0
H166 H 0.46582 0.90042 0.25612 0.0
H167 H 0.42286 0.88635 0.29196 0.0
C168 C 0.41758 0.89959 0.25522 0.0
C169 C 0.41209 0.89357 0.27028 0.0
C170 C 0.43696 0.9022 0.24998 0.0
C171 C 0.45078 0.89827 0.25994 0.0
C172 C 0.44553 0.89247 0.27508 0.0
C173 C 0.42644 0.89041 0.28015 0.0
N174 N 0.45917 0.8891 0.28583 0.0
C175 C 0.47621 0.88606 0.28216 0.0
H176 H 0.10522 0.50776 0.26217 0.0
H177 H 0.09914 0.56422 0.27274 0.0
H178 H 0.1176 0.53675 0.30961 0.0
C179 C 0.1059 0.52004 0.2706 0.0
C180 C 0.11215 0.52044 0.28645 0.0
C181 C 0.10124 0.53582 0.2655 0.0
C182 C 0.103 0.55218 0.27649 0.0
C183 C 0.10883 0.55241 0.29243 0.0
C184 C 0.11323 0.53651 0.29728 0.0
N185 N 0.10993 0.56801 0.304 0.0
C186 C 0.11307 0.58828 0.30108 0.0
H187 H 0.49114 0.58805 0.25724 0.0
H188 H 0.42726 0.53401 0.26046 0.0
H189 H 0.45618 0.58789 0.2962 0.0
C190 C 0.47703 0.57996 0.2636 0.0
C191 C 0.47599 0.59045 0.27756 0.0
C192 C 0.45956 0.55962 0.25733 0.0
C193 C 0.44084 0.54958 0.26528 0.0
C194 C 0.43975 0.55991 0.27936 0.0
C195 C 0.45723 0.5802 0.28531 0.0
N196 N 0.42127 0.55095 0.28781 0.0
C197 C 0.40427 0.52961 0.28576 0.0
C198 C 0.52699 0.01895 0.0618 0.0
Eu199 Eu 0.51294 0.01512 0.03247 0.0
C200 C 0.51824 0.00793 0.07576 0.0
C201 C 0.52634 0.01953 0.09061 0.0
C202 C 0.51789 0.00951 0.104 0.0
C203 C 0.5012 0.98769 0.10276 0.0
C204 C 0.49297 0.97615 0.08784 0.0
C205 C 0.50147 0.98618 0.07444 0.0
C206 C 0.50095 0.04122 0.01885 0.0
C207 C 0.46103 0.97926 0.02669 0.0
C208 C 0.47616 0.99429 0.96978 0.0
Eu209 Eu 0.49018 0.99852 0.99918 0.0
C210 C 0.48494 0.00328 0.9551 0.0
C211 C 0.48297 0.98909 0.94229 0.0
C212 C 0.49062 0.99702 0.92814 0.0
C213 C 0.50029 0.01934 0.92644 0.0
C214 C 0.50237 0.03357 0.93932 0.0
C215 C 0.49484 0.02565 0.95353 0.0
C216 C 0.50236 0.97261 0.01303 0.0
C217 C 0.54224 0.03451 0.00486 0.0
O218 O 0.53014 0.00777 0.05068 0.0
O219 O 0.51835 0.02999 0.05639 0.0
O220 O 0.51867 0.04844 0.02811 0.0
O221 O 0.4899 0.02077 0.01788 0.0
O222 O 0.4795 0.98714 0.03573 0.0
O223 O 0.46048 0.98397 0.01211 0.0
O224 O 0.47494 0.00731 0.98052 0.0
O225 O 0.48256 0.98167 0.97568 0.0
O226 O 0.48445 0.96524 0.00397 0.0
O227 O 0.51335 0.99302 0.01373 0.0
O228 O 0.52394 0.02558 0.99547 0.0
O229 O 0.54264 0.03087 0.01973 0.0
H230 H 0.53921 0.03636 0.09184 0.0
H231 H 0.5246 0.01874 0.11537 0.0
H232 H 0.47999 0.95937 0.08655 0.0
H233 H 0.49498 0.97695 0.06307 0.0
H234 H 0.47541 0.97179 0.94321 0.0
H235 H 0.48899 0.98562 0.91853 0.0
H236 H 0.50935 0.05077 0.93829 0.0
H237 H 0.49658 0.03704 0.96319 0.0
C238 C 0.99754 0.51622 0.05754 0.0
Eu239 Eu 0.99697 0.50324 0.02849 0.0
C240 C 0.00791 0.51728 0.07317 0.0
C241 C 0.99481 0.508 0.08519 0.0
C242 C 0.00411 0.50931 0.10025 0.0
C243 C 0.02675 0.5201 0.10362 0.0
C244 C 0.0399 0.52927 0.09155 0.0
C245 C 0.03058 0.5278 0.07642 0.0
C246 C 0.96855 0.46398 0.01317 0.0
C247 C 0.03102 0.48528 0.0252 0.0
C248 C 0.00707 0.48143 0.96713 0.0
Eu249 Eu 0.00815 0.49445 0.99627 0.0
C250 C 0.9974 0.48222 0.95177 0.0
C251 C 0.99513 0.5001 0.94846 0.0
C252 C 0.98626 0.50063 0.93366 0.0
C253 C 0.97928 0.48319 0.92201 0.0
C254 C 0.98126 0.46519 0.9255 0.0
C255 C 0.99028 0.46475 0.94024 0.0
C256 C 0.03675 0.53349 0.01175 0.0
C257 C 0.9744 0.51288 0.99955 0.0
O258 O 0.00985 0.52905 0.04766 0.0
O259 O 0.98332 0.49686 0.05088 0.0
O260 O 0.96281 0.4754 0.02182 0.0
O261 O 0.9889 0.47322 0.01358 0.0
O262 O 0.02396 0.49572 0.03413 0.0
O263 O 0.02491 0.48023 0.01003 0.0
O264 O 0.99352 0.46914 0.97663 0.0
O265 O 0.0226 0.4999 0.97424 0.0
O266 O 0.04236 0.52208 0.00296 0.0
O267 O 0.01641 0.52447 0.01121 0.0
O268 O 0.98166 0.50268 0.99056 0.0
O269 O 0.98016 0.51741 0.01477 0.0
H270 H 0.97731 0.49989 0.08297 0.0
H271 H 0.99357 0.50229 0.10935 0.0
H272 H 0.0574 0.5375 0.09378 0.0
H273 H 0.0411 0.53501 0.06735 0.0
H274 H 1.00029 0.51367 0.95728 0.0
H275 H 0.98473 0.51461 0.93134 0.0
H276 H 0.97623 0.45162 0.91671 0.0
H277 H 0.99184 0.45079 0.9426 0.0
C278 C 0.48068 0.49569 0.96623 0.0
Eu279 Eu 0.49454 0.50863 0.99571 0.0
C280 C 0.48988 0.49314 0.95185 0.0
C281 C 0.48963 0.50453 0.93914 0.0
C282 C 0.49833 0.50254 0.92544 0.0
C283 C 0.50729 0.48894 0.92409 0.0
C284 C 0.50752 0.4775 0.9368 0.0
C285 C 0.49901 0.47966 0.95058 0.0
C286 C 0.50651 0.54812 0.01023 0.0
C287 C 0.54671 0.52657 1.00027 0.0
C288 C 0.53355 0.53355 0.05755 0.0
Eu289 Eu 0.51811 0.51876 0.02845 0.0
C290 C 0.52534 0.53265 0.07291 0.0
C291 C 0.50431 0.51662 0.0754 0.0
C292 C 0.49692 0.51599 0.09018 0.0
C293 C 0.51048 0.53135 0.10271 0.0
C294 C 0.53146 0.54748 0.10004 0.0
C295 C 0.53878 0.5481 0.08528 0.0
C296 C 0.50648 0.47923 0.01412 0.0
C297 C 0.46525 0.49936 0.02378 0.0
O298 O 0.47816 0.4824 0.97685 0.0
O299 O 0.48796 0.51563 0.97231 0.0
O300 O 0.48821 0.53624 0.00162 0.0
O301 O 0.51782 0.5391 0.0103 0.0
O302 O 0.5281 0.51463 0.99142 0.0
O303 O 0.54736 0.53323 0.01504 0.0
O304 O 0.52928 0.54449 0.04764 0.0
O305 O 0.53118 0.5154 0.05096 0.0
O306 O 0.52432 0.49097 0.02326 0.0
O307 O 0.4951 0.4882 0.01378 0.0
O308 O 0.48361 0.50961 0.03317 0.0
O309 O 0.46493 0.49489 0.00862 0.0
H310 H 0.48266 0.51497 0.93981 0.0
H311 H 0.49769 0.51136 0.91578 0.0
H312 H 0.51448 0.46705 0.93613 0.0
H313 H 0.49959 0.47077 0.96022 0.0
H314 H 0.49371 0.50453 0.06595 0.0
H315 H 0.48075 0.50327 0.09185 0.0
H316 H 0.54218 0.55979 0.10933 0.0
H317 H 0.55501 0.56068 0.08354 0.0
C318 C 0.19715 0.34959 0.39336 0.0
Eu319 Eu 0.18182 0.34634 0.36447 0.0
C320 C 0.18871 0.33894 0.40755 0.0
C321 C 0.19529 0.35148 0.42207 0.0
C322 C 0.18699 0.3419 0.43564 0.0
C323 C 0.17205 0.31953 0.43495 0.0
C324 C 0.1656 0.30696 0.42036 0.0
C325 C 0.17371 0.3166 0.40676 0.0
C326 C 0.16997 0.37323 0.35198 0.0
C327 C 0.12952 0.31175 0.36013 0.0
C328 C 0.14168 0.32677 0.3027 0.0
Eu329 Eu 0.15676 0.33025 0.33174 0.0
C330 C 0.15042 0.33692 0.28839 0.0
C331 C 0.14301 0.3242 0.27392 0.0
C332 C 0.1513 0.33333 0.26021 0.0
C333 C 0.16721 0.35541 0.26069 0.0
C334 C 0.1746 0.36815 0.27523 0.0
C335 C 0.16632 0.35898 0.28896 0.0
C336 C 0.1687 0.30357 0.34458 0.0
C337 C 0.20918 0.36504 0.33597 0.0
O338 O 0.19902 0.33788 0.38192 0.0
O339 O 0.18934 0.36159 0.38845 0.0
O340 O 0.18814 0.38005 0.36058 0.0
O341 O 0.15853 0.35284 0.35108 0.0
O342 O 0.14837 0.31879 0.36847 0.0
O343 O 0.1281 0.3167 0.34573 0.0
O344 O 0.14041 0.33914 0.31395 0.0
O345 O 0.14867 0.31425 0.30791 0.0
O346 O 0.15027 0.29659 0.33626 0.0
O347 O 0.18013 0.32391 0.3451 0.0
O348 O 0.19028 0.35714 0.32746 0.0
O349 O 0.21054 0.36081 0.35061 0.0
H350 H 0.20679 0.36875 0.42291 0.0
H351 H 0.19245 0.35198 0.44671 0.0
H352 H 0.15424 0.2897 0.41942 0.0
H353 H 0.16827 0.30658 0.39565 0.0
H354 H 0.13076 0.30716 0.27322 0.0
H355 H 0.14503 0.32312 0.2492 0.0
H356 H 0.18698 0.38514 0.27603 0.0
H357 H 0.17239 0.36911 0.30001 0.0
C358 C 0.67003 0.85461 0.39357 0.0
Eu359 Eu 0.66846 0.84018 0.3647 0.0
C360 C 0.67984 0.85498 0.40921 0.0
C361 C 0.66767 0.85167 0.42199 0.0
C362 C 0.67662 0.85225 0.43702 0.0
C363 C 0.69796 0.85629 0.43952 0.0
C364 C 0.71008 0.85938 0.42668 0.0
C365 C 0.70107 0.85866 0.41161 0.0
C366 C 0.63952 0.80017 0.35066 0.0
C367 C 0.70175 0.82121 0.36147 0.0
C368 C 0.67579 0.81593 0.30327 0.0
Eu369 Eu 0.6781 0.82917 0.33255 0.0
C370 C 0.66511 0.81707 0.28843 0.0
C371 C 0.67682 0.82304 0.27536 0.0
C372 C 0.66733 0.82494 0.2613 0.0
C373 C 0.64589 0.82088 0.26003 0.0
C374 C 0.63415 0.81491 0.27316 0.0
C375 C 0.64368 0.81305 0.28725 0.0
C376 C 0.70711 0.86909 0.34666 0.0
C377 C 0.6443 0.8473 0.33575 0.0
O378 O 0.68319 0.86637 0.38364 0.0
O379 O 0.65469 0.83565 0.38707 0.0
O380 O 0.63409 0.81217 0.35895 0.0
O381 O 0.6598 0.8093 0.35074 0.0
O382 O 0.69578 0.83298 0.37009 0.0
O383 O 0.6944 0.81475 0.34654 0.0
O384 O 0.66324 0.80348 0.31322 0.0
O385 O 0.69158 0.83444 0.31007 0.0
O386 O 0.71245 0.85703 0.33835 0.0
O387 O 0.68681 0.86008 0.34651 0.0
O388 O 0.6502 0.83539 0.32733 0.0
O389 O 0.652 0.85435 0.35054 0.0
H390 H 0.65126 0.84878 0.42036 0.0
H391 H 0.66698 0.84994 0.44673 0.0
H392 H 0.7265 0.8623 0.42831 0.0
H393 H 0.71073 0.86112 0.40189 0.0
H394 H 0.69336 0.82627 0.27603 0.0
H395 H 0.6767 0.82923 0.25134 0.0
H396 H 0.61767 0.81185 0.27258 0.0
H397 H 0.63433 0.80851 0.2972 0.0
C398 C 0.14712 0.82118 0.29965 0.0
Eu399 Eu 0.16246 0.83576 0.32877 0.0
C400 C 0.15533 0.81955 0.28463 0.0
C401 C 0.1459 0.82245 0.27092 0.0
C402 C 0.15332 0.82102 0.2565 0.0
C403 C 0.1703 0.81649 0.25544 0.0
C404 C 0.1799 0.81384 0.2693 0.0
C405 C 0.1725 0.81537 0.28376 0.0
C406 C 0.17459 0.87554 0.34276 0.0
C407 C 0.21497 0.85457 0.33313 0.0
C408 C 0.20128 0.86076 0.39084 0.0
Eu409 Eu 0.18658 0.84663 0.36158 0.0
C410 C 0.19236 0.86002 0.40603 0.0
C411 C 0.19702 0.84988 0.41794 0.0
C412 C 0.18931 0.84942 0.43254 0.0
C413 C 0.17689 0.85929 0.43565 0.0
C414 C 0.17202 0.86924 0.42362 0.0
C415 C 0.17963 0.86957 0.40896 0.0
C416 C 0.17483 0.80705 0.34742 0.0
C417 C 0.1339 0.82769 0.35717 0.0
O418 O 0.14783 0.809 0.31023 0.0
O419 O 0.15271 0.84077 0.30557 0.0
O420 O 0.15648 0.86371 0.33392 0.0
O421 O 0.18582 0.86643 0.34315 0.0
O422 O 0.19633 0.84305 0.32421 0.0
O423 O 0.21577 0.86076 0.34806 0.0
O424 O 0.19876 0.87251 0.38068 0.0
O425 O 0.19845 0.84237 0.38431 0.0
O426 O 0.19289 0.81897 0.35629 0.0
O427 O 0.16337 0.81593 0.34717 0.0
O428 O 0.15237 0.83822 0.36638 0.0
O429 O 0.13325 0.82249 0.34208 0.0
H430 H 0.13278 0.8259 0.27138 0.0
H431 H 0.14586 0.82371 0.24619 0.0
H432 H 0.19285 0.81013 0.26898 0.0
H433 H 0.1801 0.81313 0.29422 0.0
H434 H 0.20676 0.84237 0.41598 0.0
H435 H 0.19309 0.84129 0.4414 0.0
H436 H 0.16274 0.87723 0.42563 0.0
H437 H 0.17573 0.87753 0.40002 0.0
C438 C 0.86166 0.67601 0.72597 0.0
Eu439 Eu 0.84729 0.67811 0.69793 0.0
C440 C 0.85207 0.66634 0.7402 0.0
C441 C 0.83319 0.66573 0.74463 0.0
C442 C 0.82446 0.65659 0.75824 0.0
C443 C 0.83427 0.64763 0.76756 0.0
C444 C 0.85298 0.64797 0.76292 0.0
C445 C 0.8618 0.65728 0.74939 0.0
C446 C 0.83358 0.70544 0.68919 0.0
C447 C 0.79475 0.64409 0.6924 0.0
C448 C 0.8084 0.6681 0.63682 0.0
Eu449 Eu 0.82296 0.6666 0.66497 0.0
C450 C 0.81786 0.67622 0.62223 0.0
C451 C 0.83786 0.67836 0.6191 0.0
C452 C 0.84682 0.68659 0.60532 0.0
C453 C 0.83604 0.69304 0.59453 0.0
C454 C 0.81608 0.69096 0.59781 0.0
C455 C 0.80708 0.6826 0.61152 0.0
C456 C 0.83643 0.6392 0.67397 0.0
C457 C 0.87563 0.70083 0.67046 0.0
O458 O 0.85848 0.66228 0.71397 0.0
O459 O 0.8596 0.69239 0.722 0.0
O460 O 0.85166 0.71185 0.69782 0.0
O461 O 0.82317 0.68508 0.68642 0.0
O462 O 0.81342 0.65048 0.70083 0.0
O463 O 0.79393 0.65092 0.67855 0.0
O464 O 0.81324 0.68296 0.64842 0.0
O465 O 0.80913 0.65122 0.6413 0.0
O466 O 0.81827 0.63277 0.66546 0.0
O467 O 0.84699 0.65958 0.67648 0.0
O468 O 0.85697 0.69361 0.66177 0.0
O469 O 0.87651 0.6949 0.68464 0.0
H470 H 0.8252 0.67234 0.73759 0.0
H471 H 0.80995 0.65641 0.76141 0.0
H472 H 0.86105 0.64141 0.76991 0.0
H473 H 0.8763 0.65749 0.74613 0.0
H474 H 0.84658 0.67378 0.62734 0.0
H475 H 0.86232 0.68822 0.60321 0.0
H476 H 0.80729 0.69557 0.58966 0.0
H477 H 0.7917 0.68118 0.61379 0.0
C478 C 0.3372 0.19028 0.725 0.0
Eu479 Eu 0.33521 0.17499 0.6963 0.0
C480 C 0.3462 0.19052 0.74092 0.0
C481 C 0.33337 0.18727 0.75329 0.0
C482 C 0.34161 0.18808 0.7686 0.0
C483 C 0.36294 0.19233 0.77184 0.0
C484 C 0.37575 0.19535 0.75941 0.0
C485 C 0.36741 0.19434 0.74404 0.0
C486 C 0.30644 0.13473 0.68265 0.0
C487 C 0.36852 0.15604 0.69311 0.0
C488 C 0.34328 0.15001 0.63511 0.0
Eu489 Eu 0.34478 0.16394 0.66409 0.0
C490 C 0.33431 0.1512 0.61955 0.0
C491 C 0.34743 0.15653 0.60721 0.0
C492 C 0.33939 0.15775 0.59233 0.0
C493 C 0.31801 0.15356 0.58949 0.0
C494 C 0.30489 0.1483 0.6019 0.0
C495 C 0.31299 0.1472 0.61683 0.0
C496 C 0.37337 0.20414 0.67803 0.0
C497 C 0.31091 0.18205 0.66707 0.0
O498 O 0.35096 0.20126 0.71514 0.0
O499 O 0.32122 0.17164 0.71854 0.0
O500 O 0.30108 0.14659 0.69118 0.0
O501 O 0.32671 0.14404 0.68242 0.0
O502 O 0.36228 0.16745 0.70186 0.0
O503 O 0.36131 0.14983 0.67816 0.0
O504 O 0.32944 0.13839 0.64473 0.0
O505 O 0.35936 0.16822 0.64207 0.0
O506 O 0.37896 0.19228 0.66975 0.0
O507 O 0.35308 0.19477 0.67793 0.0
O508 O 0.31731 0.17069 0.65848 0.0
O509 O 0.31813 0.18851 0.68201 0.0
H510 H 0.31698 0.18432 0.75112 0.0
H511 H 0.33146 0.18585 0.77798 0.0
H512 H 0.39218 0.19846 0.76158 0.0
H513 H 0.3776 0.19677 0.73466 0.0
H514 H 0.3639 0.15965 0.60907 0.0
H515 H 0.34979 0.16154 0.58296 0.0
H516 H 0.28842 0.14517 0.60009 0.0
H517 H 0.30257 0.14318 0.62619 0.0
C518 C 0.81323 0.15429 0.63484 0.0
Eu519 Eu 0.82876 0.17006 0.66375 0.0
C520 C 0.8225 0.15361 0.62012 0.0
C521 C 0.81236 0.15455 0.60597 0.0
C522 C 0.82117 0.15443 0.59191 0.0
C523 C 0.84023 0.15328 0.59179 0.0
C524 C 0.85046 0.15251 0.60599 0.0
C525 C 0.84167 0.15266 0.62006 0.0
C526 C 0.83933 0.20968 0.67718 0.0
C527 C 0.88191 0.19197 0.66647 0.0
C528 C 0.87056 0.19977 0.7247 0.0
Eu529 Eu 0.85537 0.18369 0.69582 0.0
C530 C 0.86062 0.19847 0.7394 0.0
C531 C 0.84155 0.1796 0.7421 0.0
C532 C 0.83207 0.1787 0.75599 0.0
C533 C 0.84137 0.19672 0.76737 0.0
C534 C 0.86033 0.21566 0.76453 0.0
C535 C 0.86988 0.2165 0.75067 0.0
C536 C 0.84555 0.1444 0.68227 0.0
C537 C 0.80209 0.16123 0.6932 0.0
O538 O 0.81499 0.14284 0.64559 0.0
O539 O 0.81723 0.17345 0.64059 0.0
O540 O 0.82085 0.1967 0.66906 0.0
O541 O 0.85158 0.20169 0.67716 0.0
O542 O 0.86292 0.17958 0.65815 0.0
O543 O 0.88351 0.19842 0.68145 0.0
O544 O 0.86675 0.21042 0.71426 0.0
O545 O 0.86913 0.18182 0.71854 0.0
O546 O 0.86371 0.15741 0.69074 0.0
O547 O 0.83295 0.15202 0.68228 0.0
O548 O 0.8211 0.17337 0.70155 0.0
O549 O 0.80053 0.15534 0.67811 0.0
H550 H 0.79763 0.1554 0.60579 0.0
H551 H 0.81292 0.15494 0.5811 0.0
H552 H 0.8653 0.15188 0.60622 0.0
H553 H 0.84986 0.15203 0.63086 0.0
H554 H 0.83392 0.16558 0.73345 0.0
H555 H 0.81731 0.164 0.75775 0.0
H556 H 0.86798 0.22973 0.77313 0.0
H557 H 0.88451 0.23124 0.74875 0.0
H558 H 0.29051 0.81554 0.06625 0.0
H559 H 0.32474 0.84329 0.05804 0.0
H560 H 0.316 0.8934 0.08108 0.0
H561 H 0.2818 0.86552 0.08958 0.0
H562 H 0.33251 0.87264 0.03932 0.0
H563 H 0.36575 0.93853 0.09247 0.0
H564 H 0.36532 0.94104 0.12116 0.0
H565 H 0.35419 0.8761 0.12152 0.0
H566 H 0.35485 0.87331 0.09289 0.0
H567 H 0.41955 0.96808 0.01595 0.0
H568 H 0.38597 0.94283 0.02653 0.0
H569 H 0.42282 0.93071 0.06207 0.0
H570 H 0.45634 0.95646 0.05194 0.0
H571 H 0.39228 0.93265 0.07474 0.0
H572 H 0.39538 0.89495 0.02786 0.0
H573 H 0.39844 0.88938 0.99978 0.0
H574 H 0.34067 0.89215 0.98797 0.0
H575 H 0.33744 0.89802 0.016 0.0
C576 C 0.29593 0.83248 0.06961 0.0
C577 C 0.28346 0.83838 0.07851 0.0
C578 C 0.31549 0.84833 0.0649 0.0
C579 C 0.32302 0.87047 0.06894 0.0
C580 C 0.31072 0.87643 0.078 0.0
C581 C 0.29118 0.86051 0.08285 0.0
C582 C 0.34337 0.88715 0.06316 0.0
C583 C 0.34554 0.88578 0.04708 0.0
C584 C 0.36057 0.90415 0.07328 0.0
C585 C 0.36008 0.90563 0.09051 0.0
C586 C 0.36324 0.9248 0.09868 0.0
C587 C 0.36296 0.92627 0.11494 0.0
C588 C 0.35965 0.90871 0.12315 0.0
C589 C 0.35666 0.88965 0.11514 0.0
C590 C 0.35694 0.88811 0.09889 0.0
C591 C 0.42047 0.96006 0.02604 0.0
C592 C 0.44061 0.96423 0.03308 0.0
C593 C 0.40126 0.94557 0.03206 0.0
C594 C 0.40178 0.93457 0.04499 0.0
C595 C 0.42193 0.93899 0.05213 0.0
C596 C 0.44112 0.95371 0.04629 0.0
C597 C 0.38141 0.9181 0.0509 0.0
C598 C 0.37918 0.91957 0.06697 0.0
C599 C 0.36443 0.90073 0.04087 0.0
C600 C 0.3663 0.89714 0.02402 0.0
C601 C 0.38342 0.89452 0.01927 0.0
C602 C 0.38517 0.89129 0.00337 0.0
C603 C 0.36979 0.89047 0.9921 0.0
C604 C 0.35259 0.89282 0.99672 0.0
C605 C 0.35078 0.89608 0.01261 0.0
H606 H 0.37118 0.88796 0.97979 0.0
H607 H 0.35947 0.90989 0.13574 0.0
H608 H 0.15536 0.42878 0.10045 0.0
H609 H 0.12759 0.43693 0.09116 0.0
H610 H 0.16668 0.47202 0.05524 0.0
H611 H 0.19537 0.46567 0.06534 0.0
H612 H 0.14896 0.49267 0.06499 0.0
H613 H 0.12126 0.41747 0.04868 0.0
H614 H 0.11046 0.37931 0.05165 0.0
H615 H 0.0636 0.37496 0.08239 0.0
H616 H 0.07432 0.4132 0.07975 0.0
H617 H 0.06006 0.47784 0.01078 0.0
H618 H 0.08722 0.47033 0.02298 0.0
H619 H 0.0642 0.47184 0.06793 0.0
H620 H 0.03739 0.48003 0.05593 0.0
H621 H 0.07263 0.4328 0.0542 0.0
H622 H 0.10302 0.51071 0.06923 0.0
H623 H 0.11316 0.54756 0.06262 0.0
H624 H 0.155 0.5447 0.02994 0.0
H625 H 0.14477 0.50764 0.03617 0.0
C626 C 0.15835 0.43863 0.09079 0.0
C627 C 0.17773 0.44642 0.08363 0.0
C628 C 0.14219 0.44297 0.08529 0.0
C629 C 0.1447 0.45467 0.07222 0.0
C630 C 0.16419 0.46283 0.06526 0.0
C631 C 0.18053 0.4589 0.07095 0.0
C632 C 0.12709 0.45835 0.06572 0.0
C633 C 0.13234 0.47947 0.06257 0.0
C634 C 0.10524 0.44126 0.06254 0.0
C635 C 0.09875 0.41826 0.06415 0.0
C636 C 0.10876 0.40842 0.05616 0.0
C637 C 0.10264 0.38677 0.05777 0.0
C638 C 0.0864 0.37474 0.06724 0.0
C639 C 0.07621 0.38432 0.07508 0.0
C640 C 0.08228 0.40597 0.07352 0.0
C641 C 0.06067 0.47644 0.02324 0.0
C642 C 0.0466 0.47954 0.0324 0.0
C643 C 0.0762 0.47218 0.03018 0.0
C644 C 0.07764 0.47056 0.04632 0.0
C645 C 0.06327 0.47304 0.05544 0.0
C646 C 0.04804 0.47777 0.04858 0.0
C647 C 0.09468 0.46694 0.05367 0.0
C648 C 0.08928 0.44588 0.05683 0.0
C649 C 0.11643 0.48391 0.05652 0.0
C650 C 0.12294 0.50634 0.05304 0.0
C651 C 0.11422 0.51787 0.06053 0.0
C652 C 0.12001 0.5388 0.05687 0.0
C653 C 0.13466 0.54844 0.04583 0.0
C654 C 0.14362 0.5372 0.03848 0.0
C655 C 0.13784 0.51624 0.04207 0.0
H656 H 0.13911 0.56464 0.043 0.0
H657 H 0.08169 0.35798 0.06847 0.0
H658 H 0.53442 0.72432 0.08288 0.0
H659 H 0.52505 0.68765 0.07261 0.0
H660 H 0.58441 0.71421 0.05039 0.0
H661 H 0.59314 0.75096 0.06 0.0
H662 H 0.555 0.68559 0.03104 0.0
H663 H 0.57541 0.68551 0.08457 0.0
H664 H 0.57592 0.69044 0.11322 0.0
H665 H 0.50852 0.64179 0.11004 0.0
H666 H 0.50752 0.63679 0.08133 0.0
H667 H 0.5475 0.57916 0.02181 0.0
H668 H 0.55929 0.61561 0.03446 0.0
H669 H 0.49316 0.60184 0.03004 0.0
H670 H 0.48132 0.56562 0.01695 0.0
H671 H 0.52786 0.62338 0.06321 0.0
H672 H 0.50971 0.6291 0.00759 0.0
H673 H 0.51313 0.62416 0.97949 0.0
H674 H 0.58244 0.66275 0.98835 0.0
H675 H 0.57938 0.66763 0.01655 0.0
C676 C 0.5455 0.72223 0.0759 0.0
C677 C 0.56449 0.74036 0.07222 0.0
C678 C 0.54023 0.70128 0.07011 0.0
C679 C 0.55417 0.69801 0.0609 0.0
C680 C 0.57334 0.71621 0.05743 0.0
C681 C 0.57837 0.73719 0.06294 0.0
C682 C 0.54829 0.67576 0.05429 0.0
C683 C 0.54933 0.67214 0.0382 0.0
C684 C 0.54084 0.65799 0.0635 0.0
C685 C 0.54135 0.66092 0.08077 0.0
C686 C 0.56065 0.67598 0.08996 0.0
C687 C 0.56104 0.67877 0.10622 0.0
C688 C 0.54225 0.66647 0.11344 0.0
C689 C 0.52305 0.65132 0.10442 0.0
C690 C 0.52257 0.64849 0.08816 0.0
C691 C 0.5355 0.58392 0.02357 0.0
C692 C 0.51353 0.5697 0.01834 0.0
C693 C 0.54224 0.60467 0.03079 0.0
C694 C 0.52706 0.6113 0.03312 0.0
C695 C 0.50506 0.59693 0.0283 0.0
C696 C 0.49836 0.57634 0.02079 0.0
C697 C 0.53427 0.63352 0.04014 0.0
C698 C 0.53358 0.63703 0.05623 0.0
C699 C 0.54253 0.65128 0.03108 0.0
C700 C 0.54433 0.64848 0.01416 0.0
C701 C 0.52567 0.63632 0.00355 0.0
C702 C 0.52755 0.63359 0.98761 0.0
C703 C 0.548 0.64307 0.98214 0.0
C704 C 0.56661 0.65537 0.9926 0.0
C705 C 0.56482 0.65814 0.00856 0.0
H706 H 0.54942 0.64094 0.9698 0.0
H707 H 0.54258 0.66865 0.12603 0.0
H708 H 0.80753 0.278 0.96393 0.0
H709 H 0.83566 0.31489 0.97408 0.0
H710 H 0.88142 0.30865 0.94693 0.0
H711 H 0.85327 0.27162 0.93671 0.0
H712 H 0.89747 0.32577 0.97858 0.0
H713 H 0.86226 0.33839 0.93452 0.0
H714 H 0.83098 0.33465 0.91797 0.0
H715 H 0.81487 0.36368 0.95615 0.0
H716 H 0.84589 0.36729 0.97302 0.0
H717 H 0.9781 0.43722 0.99561 0.0
H718 H 0.95261 0.40139 0.982 0.0
H719 H 0.89932 0.40535 0.99974 0.0
H720 H 0.92467 0.44163 0.01264 0.0
H721 H 0.88843 0.38935 0.97084 0.0
H722 H 0.92094 0.37445 0.01554 0.0
H723 H 0.95103 0.37729 0.03309 0.0
H724 H 0.97093 0.35177 0.99514 0.0
H725 H 0.94111 0.34904 0.97731 0.0
C726 C 0.8236 0.28449 0.96014 0.0
C727 C 0.82823 0.27198 0.94952 0.0
C728 C 0.8396 0.30557 0.96588 0.0
C729 C 0.86056 0.31452 0.96117 0.0
C730 C 0.86532 0.30203 0.95066 0.0
C731 C 0.84922 0.28099 0.94477 0.0
C732 C 0.87749 0.33685 0.96741 0.0
C733 C 0.89573 0.33977 0.97669 0.0
C734 C 0.87488 0.35495 0.96522 0.0
C735 C 0.8563 0.35294 0.95507 0.0
C736 C 0.85195 0.34382 0.93943 0.0
C737 C 0.83428 0.34175 0.92998 0.0
C738 C 0.82092 0.34888 0.93601 0.0
C739 C 0.82523 0.35814 0.9515 0.0
C740 C 0.84287 0.36023 0.961 0.0
C741 C 0.96093 0.43052 0.99645 0.0
C742 C 0.95333 0.44223 0.00509 0.0
C743 C 0.94637 0.40993 0.9888 0.0
C744 C 0.92401 0.40048 0.99 0.0
C745 C 0.91646 0.41227 0.99861 0.0
C746 C 0.93097 0.43296 0.00605 0.0
C747 C 0.90838 0.37835 0.9823 0.0
C748 C 0.89034 0.37544 0.97269 0.0
C749 C 0.91106 0.36021 0.98435 0.0
C750 C 0.92894 0.36177 0.99506 0.0
C751 C 0.93183 0.3696 0.01091 0.0
C752 C 0.94882 0.37116 0.02091 0.0
C753 C 0.96292 0.36478 0.01522 0.0
C754 C 0.96002 0.35675 0.99952 0.0
C755 C 0.94307 0.35517 0.98947 0.0
H756 H 0.97606 0.366 0.02298 0.0
H757 H 0.80724 0.34726 0.92868 0.0
H758 H 0.7025 0.54836 0.92006 0.0
H759 H 0.66985 0.54503 0.93035 0.0
H760 H 0.70469 0.56977 0.97635 0.0
H761 H 0.73722 0.57302 0.96616 0.0
H762 H 0.66732 0.53435 0.978 0.0
H763 H 0.69105 0.59956 0.95313 0.0
H764 H 0.7021 0.62289 0.93154 0.0
H765 H 0.63946 0.58225 0.90605 0.0
H766 H 0.62813 0.55848 0.92739 0.0
H767 H 0.58807 0.54767 0.01505 0.0
H768 H 0.62155 0.55577 0.0037 0.0
H769 H 0.58529 0.52642 0.95862 0.0
H770 H 0.55177 0.51834 0.9698 0.0
H771 H 0.62323 0.56473 0.95646 0.0
H772 H 0.6007 0.49848 0.98042 0.0
H773 H 0.58941 0.47516 0.00203 0.0
H774 H 0.64993 0.51869 0.02931 0.0
H775 H 0.66144 0.54246 0.00794 0.0
C776 C 0.70327 0.5534 0.93231 0.0
C777 C 0.72241 0.56082 0.94232 0.0
C778 C 0.68459 0.55148 0.93818 0.0
C779 C 0.68479 0.5572 0.95414 0.0
C780 C 0.70407 0.56513 0.96403 0.0
C781 C 0.72265 0.56695 0.9582 0.0
C782 C 0.66474 0.55395 0.96077 0.0
C783 C 0.65789 0.54129 0.9734 0.0
C784 C 0.65209 0.56255 0.95457 0.0
C785 C 0.65888 0.57694 0.94175 0.0
C786 C 0.67971 0.59541 0.94284 0.0
C787 C 0.68601 0.60877 0.93066 0.0
C788 C 0.67154 0.60397 0.91739 0.0
C789 C 0.6507 0.58588 0.9163 0.0
C790 C 0.64434 0.57245 0.92844 0.0
C791 C 0.5872 0.54302 0.0027 0.0
C792 C 0.56719 0.53224 0.99337 0.0
C793 C 0.60636 0.54762 0.99624 0.0
C794 C 0.60589 0.54152 0.98034 0.0
C795 C 0.58603 0.53127 0.97091 0.0
C796 C 0.56686 0.52658 0.97736 0.0
C797 C 0.626 0.54525 0.97363 0.0
C798 C 0.63279 0.55791 0.96101 0.0
C799 C 0.63866 0.53671 0.97983 0.0
C800 C 0.63184 0.52236 0.99264 0.0
C801 C 0.61153 0.50316 0.99107 0.0
C802 C 0.6051 0.48985 0.00327 0.0
C803 C 0.61893 0.49547 0.01705 0.0
C804 C 0.63923 0.51438 0.01864 0.0
C805 C 0.64572 0.52777 0.00649 0.0
H806 H 0.61392 0.48514 0.02648 0.0
H807 H 0.67644 0.61434 0.90797 0.0
H808 H 0.42693 0.1499 0.9454 0.0
H809 H 0.43382 0.12134 0.9536 0.0
H810 H 0.49536 0.1701 0.97774 0.0
H811 H 0.48886 0.19864 0.96926 0.0
H812 H 0.49874 0.13798 0.96229 0.0
H813 H 0.45089 0.14373 0.99736 0.0
H814 H 0.41751 0.14322 0.00389 0.0
H815 H 0.3792 0.07751 0.98265 0.0
H816 H 0.41235 0.07774 0.97581 0.0
H817 H 0.5245 0.08503 0.01884 0.0
H818 H 0.51475 0.10839 0.00499 0.0
H819 H 0.45403 0.05232 0.98601 0.0
H820 H 0.46336 0.02896 1.00047 0.0
H821 H 0.44793 0.08461 0.9955 0.0
H822 H 0.4975 0.07751 0.96428 0.0
H823 H 0.53168 0.07851 0.95961 0.0
H824 H 0.56743 0.14701 0.97378 0.0
H825 H 0.53363 0.14638 0.97911 0.0
C826 C 0.44204 0.15452 0.95228 0.0
C827 C 0.45726 0.17653 0.95681 0.0
C828 C 0.4459 0.13819 0.95704 0.0
C829 C 0.46501 0.14359 0.96643 0.0
C830 C 0.48049 0.16555 0.97053 0.0
C831 C 0.47665 0.18184 0.96581 0.0
C832 C 0.46868 0.12652 0.97258 0.0
C833 C 0.4877 0.12634 0.9696 0.0
C834 C 0.45398 0.111 0.98178 0.0
C835 C 0.43406 0.11084 0.9859 0.0
C836 C 0.43533 0.12924 0.99396 0.0
C837 C 0.41646 0.12899 0.99774 0.0
C838 C 0.39624 0.11037 0.99364 0.0
C839 C 0.39486 0.09193 0.98579 0.0
C840 C 0.41368 0.09211 0.98196 0.0
C841 C 0.50906 0.07769 0.01173 0.0
C842 C 0.4948 0.05517 0.01055 0.0
C843 C 0.50357 0.09103 0.00372 0.0
C844 C 0.48386 0.08206 0.99416 0.0
C845 C 0.46941 0.05957 0.99319 0.0
C846 C 0.47481 0.04624 0.00136 0.0
C847 C 0.47825 0.09632 0.9855 0.0
C848 C 0.45885 0.09596 0.98797 0.0
C849 C 0.49265 0.11137 0.97585 0.0
C850 C 0.51297 0.11187 0.9722 0.0
C851 C 0.51264 0.09279 0.96649 0.0
C852 C 0.53195 0.09327 0.96373 0.0
C853 C 0.55167 0.1128 0.96634 0.0
C854 C 0.55213 0.13189 0.97174 0.0
C855 C 0.53291 0.13148 0.97467 0.0
H856 H 0.56659 0.11312 0.96419 0.0
H857 H 0.38165 0.1102 0.99658 0.0
H858 H 0.71644 0.15667 0.93623 0.0
H859 H 0.67958 0.12906 0.94138 0.0
H860 H 0.69835 0.14628 0.99106 0.0
H861 H 0.73486 0.1734 0.98591 0.0
H862 H 0.67684 0.10314 0.98415 0.0
H863 H 0.66793 0.16368 0.97038 0.0
H864 H 0.66903 0.19029 0.95283 0.0
H865 H 0.62485 0.13838 0.91838 0.0
H866 H 0.62371 0.11146 0.93565 0.0
H867 H 0.58174 0.06187 0.02111 0.0
H868 H 0.61578 0.08543 0.0106 0.0
H869 H 0.58378 0.06331 0.96362 0.0
H870 H 0.54938 0.04022 0.9741 0.0
H871 H 0.61081 0.10509 0.9656 0.0
H872 H 0.61673 0.04444 0.97985 0.0
H873 H 0.61508 0.0173 0.99707 0.0
H874 H 0.66465 0.06813 0.02973 0.0
H875 H 0.66639 0.09561 0.01281 0.0
C876 C 0.71251 0.15442 0.9482 0.0
C877 C 0.72823 0.16695 0.96072 0.0
C878 C 0.69154 0.13877 0.95114 0.0
C879 C 0.68618 0.13566 0.96663 0.0
C880 C 0.70209 0.1483 0.97904 0.0
C881 C 0.7229 0.16381 0.9761 0.0
C882 C 0.66418 0.11925 0.97022 0.0
C883 C 0.66241 0.10364 0.98016 0.0
C884 C 0.64523 0.11938 0.96457 0.0
C885 C 0.64595 0.13558 0.95422 0.0
C886 C 0.6586 0.15795 0.959 0.0
C887 C 0.6592 0.17309 0.94912 0.0
C888 C 0.64708 0.16604 0.93448 0.0
C889 C 0.63427 0.14383 0.9297 0.0
C890 C 0.63364 0.12863 0.93954 0.0
C891 C 0.58191 0.06196 0.00854 0.0
C892 C 0.56287 0.04896 0.99845 0.0
C893 C 0.60144 0.07539 0.00252 0.0
C894 C 0.60251 0.07579 0.98628 0.0
C895 C 0.58342 0.06319 0.97618 0.0
C896 C 0.56378 0.04994 0.9822 0.0
C897 C 0.62358 0.08941 0.97995 0.0
C898 C 0.62517 0.10439 0.96945 0.0
C899 C 0.64239 0.08861 0.98498 0.0
C900 C 0.64159 0.0721 0.9951 0.0
C901 C 0.6272 0.04984 0.99074 0.0
C902 C 0.62626 0.03439 1.00045 0.0
C903 C 0.63973 0.04099 0.0145 0.0
C904 C 0.65422 0.06305 0.01885 0.0
C905 C 0.65522 0.07856 0.00919 0.0
H906 H 0.63895 0.02901 0.022 0.0
H907 H 0.64756 0.17778 0.92684 0.0
H908 H 0.82389 0.53953 0.92721 0.0
H909 H 0.85709 0.53754 0.93254 0.0
H910 H 0.85851 0.55472 0.98174 0.0
H911 H 0.82588 0.55721 0.9763 0.0
H912 H 0.89823 0.57429 0.9736 0.0
H913 H 0.83641 0.50078 0.96509 0.0
H914 H 0.80446 0.47011 0.9497 0.0
H915 H 0.84401 0.47101 0.9138 0.0
H916 H 0.87616 0.50186 0.92891 0.0
H917 H 0.95259 0.52988 0.01443 0.0
H918 H 0.92665 0.53907 0.00275 0.0
H919 H 0.93582 0.51969 0.95671 0.0
H920 H 0.96153 0.50994 0.96836 0.0
H921 H 0.8941 0.50383 0.95931 0.0
H922 H 0.95707 0.57399 0.97002 0.0
H923 H 0.98894 0.60397 0.98594 0.0
H924 H 0.94758 0.60939 0.0179 0.0
H925 H 0.91548 0.57923 0.00229 0.0
C926 C 0.83163 0.54324 0.93907 0.0
C927 C 0.82259 0.54859 0.95138 0.0
C928 C 0.85045 0.54197 0.94215 0.0
C929 C 0.86018 0.54569 0.9576 0.0
C930 C 0.85141 0.55181 0.96974 0.0
C931 C 0.83276 0.55321 0.96665 0.0
C932 C 0.87877 0.54224 0.96146 0.0
C933 C 0.89729 0.55886 0.97052 0.0
C934 C 0.8779 0.52233 0.95708 0.0
C935 C 0.85861 0.50377 0.94803 0.0
C936 C 0.83825 0.49453 0.95386 0.0
C937 C 0.82012 0.4771 0.9452 0.0
C938 C 0.82219 0.46866 0.93076 0.0
C939 C 0.84242 0.47759 0.92497 0.0
C940 C 0.8606 0.49504 0.93358 0.0
C941 C 0.94925 0.52769 0.00181 0.0
C942 C 0.95922 0.51922 0.99235 0.0
C943 C 0.93445 0.53308 0.99513 0.0
C944 C 0.9295 0.53042 0.97881 0.0
C945 C 0.93943 0.52197 0.96932 0.0
C946 C 0.95416 0.51644 0.97601 0.0
C947 C 0.9133 0.53568 0.97183 0.0
C948 C 0.89525 0.51942 0.96217 0.0
C949 C 0.9146 0.55591 0.97569 0.0
C950 C 0.93386 0.57425 0.98501 0.0
C951 C 0.95477 0.58149 0.98049 0.0
C952 C 0.97288 0.59853 0.98945 0.0
C953 C 0.97029 0.60856 0.00293 0.0
C954 C 0.94957 0.60161 0.00745 0.0
C955 C 0.9314 0.58456 0.99853 0.0
H956 H 0.98433 0.62173 0.00987 0.0
H957 H 0.80813 0.45517 0.92407 0.0
H958 H 0.4579 0.28817 0.94715 0.0
H959 H 0.46178 0.32452 0.95093 0.0
H960 H 0.46409 0.32138 1.00093 0.0
H961 H 0.4597 0.28512 0.99708 0.0
H962 H 0.44148 0.33951 0.99311 0.0
H963 H 0.51061 0.34783 0.98164 0.0
H964 H 0.53526 0.34234 0.96556 0.0
H965 H 0.52078 0.37229 0.9284 0.0
H966 H 0.49584 0.37771 0.94421 0.0
H967 H 0.53006 0.45893 0.01342 0.0
H968 H 0.51828 0.42198 0.00231 0.0
H969 H 0.45577 0.41328 0.98644 0.0
H970 H 0.4674 0.45023 0.99785 0.0
H971 H 0.50514 0.40095 0.97379 0.0
H972 H 0.41736 0.36053 0.99013 0.0
H973 H 0.39593 0.36556 0.00972 0.0
H974 H 0.45307 0.40009 0.04234 0.0
H975 H 0.47475 0.39511 0.02301 0.0
C976 C 0.45892 0.29525 0.95887 0.0
C977 C 0.45852 0.28411 0.97186 0.0
C978 C 0.46123 0.31598 0.96105 0.0
C979 C 0.46343 0.3258 0.97624 0.0
C980 C 0.46232 0.31417 0.98911 0.0
C981 C 0.4599 0.29351 0.98692 0.0
C982 C 0.4681 0.34857 0.97906 0.0
C983 C 0.45523 0.35291 0.98869 0.0
C984 C 0.4862 0.36615 0.97351 0.0
C985 C 0.50118 0.36292 0.96401 0.0
C986 C 0.51257 0.35309 0.96999 0.0
C987 C 0.52661 0.35002 0.96094 0.0
C988 C 0.52953 0.35689 0.94594 0.0
C989 C 0.51846 0.36692 0.94 0.0
C990 C 0.50438 0.37 0.949 0.0
C991 C 0.51383 0.44916 0.00752 0.0
C992 C 0.49958 0.45735 0.00659 0.0
C993 C 0.50716 0.4281 1.00108 0.0
C994 C 0.48609 0.41479 0.99363 0.0
C995 C 0.47202 0.42318 0.99228 0.0
C996 C 0.47869 0.44429 0.99875 0.0
C997 C 0.47874 0.39185 0.98804 0.0
C998 C 0.49107 0.3875 0.97787 0.0
C999 C 0.46052 0.37428 0.99347 0.0
C1000 C 0.44769 0.37766 0.00506 0.0
C1001 C 0.42532 0.36921 0.00148 0.0
C1002 C 0.41314 0.37205 0.01253 0.0
C1003 C 0.42315 0.38315 0.02725 0.0
C1004 C 0.44536 0.39155 0.03092 0.0
C1005 C 0.45761 0.38877 0.01991 0.0
H1006 H 0.41367 0.38513 0.03585 0.0
H1007 H 0.5404 0.3545 0.93895 0.0
H1008 H 0.15491 0.73495 0.06904 0.0
H1009 H 0.12618 0.69664 0.06329 0.0
H1010 H 0.17397 0.67976 0.05088 0.0
H1011 H 0.2025 0.71789 0.05661 0.0
H1012 H 0.14053 0.66602 0.02787 0.0
H1013 H 0.14962 0.66374 0.08347 0.0
H1014 H 0.15108 0.67537 0.11128 0.0
H1015 H 0.08507 0.66091 0.10422 0.0
H1016 H 0.08332 0.64949 0.0763 0.0
H1017 H 0.08057 0.55292 0.01526 0.0
H1018 H 0.1066 0.58954 0.0272 0.0
H1019 H 0.05403 0.59957 0.03857 0.0
H1020 H 0.02779 0.56266 0.02671 0.0
H1021 H 0.0879 0.61724 0.06239 0.0
H1022 H 0.07836 0.61971 0.00727 0.0
H1023 H 0.07627 0.6083 0.97932 0.0
H1024 H 0.14252 0.6233 0.98525 0.0
H1025 H 0.14491 0.6345 0.01331 0.0
C1026 C 0.1592 0.72287 0.06544 0.0
C1027 C 0.18073 0.72907 0.06332 0.0
C1028 C 0.14286 0.70107 0.06217 0.0
C1029 C 0.14797 0.68536 0.05667 0.0
C1030 C 0.16969 0.69161 0.05511 0.0
C1031 C 0.18595 0.71331 0.05844 0.0
C1032 C 0.13065 0.66283 0.05118 0.0
C1033 C 0.12922 0.65527 0.03549 0.0
C1034 C 0.11538 0.64911 0.06097 0.0
C1035 C 0.11642 0.656 0.07775 0.0
C1036 C 0.13549 0.66325 0.08781 0.0
C1037 C 0.13635 0.66976 0.1036 0.0
C1038 C 0.1182 0.66895 0.1095 0.0
C1039 C 0.09913 0.66157 0.09963 0.0
C1040 C 0.09819 0.65506 0.08382 0.0
C1041 C 0.07455 0.56287 0.02038 0.0
C1042 C 0.0522 0.55509 0.01991 0.0
C1043 C 0.08943 0.58378 0.0272 0.0
C1044 C 0.08225 0.5974 0.03356 0.0
C1045 C 0.0599 0.58934 0.0337 0.0
C1046 C 0.04496 0.56832 0.02688 0.0
C1047 C 0.09817 0.62036 0.0392 0.0
C1048 C 0.09924 0.62804 0.05481 0.0
C1049 C 0.11307 0.63436 0.02933 0.0
C1050 C 0.11175 0.62776 0.01243 0.0
C1051 C 0.09244 0.62042 0.00264 0.0
C1052 C 0.09121 0.61402 0.98677 0.0
C1053 C 0.10924 0.61503 0.98052 0.0
C1054 C 0.12856 0.6225 0.99011 0.0
C1055 C 0.12987 0.6289 0.006 0.0
H1056 H 0.10825 0.61006 0.96823 0.0
H1057 H 0.1189 0.67398 0.12174 0.0
H1058 H 0.28987 0.44664 0.09425 0.0
H1059 H 0.32705 0.45687 0.0887 0.0
H1060 H 0.30623 0.4438 0.03917 0.0
H1061 H 0.26935 0.43334 0.04475 0.0
H1062 H 0.33138 0.42735 0.04621 0.0
H1063 H 0.33418 0.49619 0.05842 0.0
H1064 H 0.3306 0.52316 0.07532 0.0
H1065 H 0.37745 0.52547 0.11023 0.0
H1066 H 0.3811 0.4983 0.09361 0.0
H1067 H 0.42492 0.48226 0.00801 0.0
H1068 H 0.39058 0.47059 0.01892 0.0
H1069 H 0.4236 0.48874 0.06562 0.0
H1070 H 0.45825 0.50107 0.05476 0.0
H1071 H 0.39388 0.50073 0.0635 0.0
H1072 H 0.39448 0.43539 0.05008 0.0
H1073 H 0.39894 0.40921 0.03306 0.0
H1074 H 0.34592 0.39966 1.00091 0.0
H1075 H 0.34144 0.42623 0.01757 0.0
C1076 C 0.29338 0.44592 0.08223 0.0
C1077 C 0.27698 0.43924 0.06989 0.0
C1078 C 0.31456 0.45182 0.07905 0.0
C1079 C 0.31951 0.45125 0.06348 0.0
C1080 C 0.30287 0.44432 0.05125 0.0
C1081 C 0.28183 0.43841 0.05443 0.0
C1082 C 0.3419 0.45796 0.05966 0.0
C1083 C 0.34501 0.44345 0.04992 0.0
C1084 C 0.35989 0.4787 0.0649 0.0
C1085 C 0.35772 0.49504 0.07486 0.0
C1086 C 0.34359 0.50232 0.06976 0.0
C1087 C 0.34157 0.51767 0.07927 0.0
C1088 C 0.35374 0.52597 0.09386 0.0
C1089 C 0.368 0.51899 0.09895 0.0
C1090 C 0.37006 0.50363 0.08948 0.0
C1091 C 0.42496 0.48377 0.02061 0.0
C1092 C 0.44439 0.49244 0.03049 0.0
C1093 C 0.40524 0.477 0.02685 0.0
C1094 C 0.40439 0.47837 0.04312 0.0
C1095 C 0.4238 0.4874 0.05303 0.0
C1096 C 0.44361 0.49437 0.04679 0.0
C1097 C 0.38318 0.47034 0.04966 0.0
C1098 C 0.38032 0.48454 0.05994 0.0
C1099 C 0.3654 0.44926 0.04497 0.0
C1100 C 0.36772 0.43293 0.03505 0.0
C1101 C 0.38384 0.4278 0.03934 0.0
C1102 C 0.38637 0.41288 0.02975 0.0
C1103 C 0.37272 0.40275 0.01591 0.0
C1104 C 0.35648 0.40752 0.01164 0.0
C1105 C 0.35394 0.42251 0.02116 0.0
H1106 H 0.37473 0.3912 0.00851 0.0
H1107 H 0.35216 0.53784 0.10121 0.0
H1108 H 0.53335 0.82006 0.05563 0.0
H1109 H 0.52133 0.84598 0.05001 0.0
H1110 H 0.58762 0.89859 0.0576 0.0
H1111 H 0.59961 0.87255 0.0633 0.0
H1112 H 0.55805 0.90939 0.06984 0.0
H1113 H 0.56674 0.87835 0.02152 0.0
H1114 H 0.56102 0.84845 0.00234 0.0
H1115 H 0.49242 0.82415 0.99803 0.0
H1116 H 0.49771 0.85375 0.01737 0.0
H1117 H 0.54217 0.98503 0.028 0.0
H1118 H 0.55454 0.96158 0.03883 0.0
H1119 H 0.49097 0.90574 0.02586 0.0
H1120 H 0.47874 0.92908 0.01473 0.0
H1121 H 0.52035 0.89734 0.01674 0.0
H1122 H 0.51007 0.92504 0.06586 0.0
H1123 H 0.51396 0.95293 0.08607 0.0
H1124 H 0.58322 0.98272 0.08896 0.0
H1125 H 0.57971 0.95457 0.06894 0.0
C1126 C 0.54524 0.83722 0.05637 0.0
C1127 C 0.56731 0.84449 0.05989 0.0
C1128 C 0.53841 0.85197 0.05311 0.0
C1129 C 0.55362 0.87417 0.0532 0.0
C1130 C 0.57565 0.88155 0.05746 0.0
C1131 C 0.58247 0.86673 0.0607 0.0
C1132 C 0.54663 0.88933 0.04783 0.0
C1133 C 0.55005 0.90696 0.05817 0.0
C1134 C 0.53581 0.88587 0.03271 0.0
C1135 C 0.53261 0.86815 0.021 0.0
C1136 C 0.55042 0.86653 0.01658 0.0
C1137 C 0.54726 0.84966 0.00566 0.0
C1138 C 0.52636 0.83438 0.999 0.0
C1139 C 0.50859 0.83598 0.00321 0.0
C1140 C 0.51167 0.85282 0.01414 0.0
C1141 C 0.53081 0.96778 0.02761 0.0
C1142 C 0.50954 0.95882 0.02047 0.0
C1143 C 0.53784 0.9544 0.03389 0.0
C1144 C 0.52365 0.93187 0.03328 0.0
C1145 C 0.50225 0.92304 0.02644 0.0
C1146 C 0.49527 0.93638 0.02009 0.0
C1147 C 0.5314 0.9173 0.03882 0.0
C1148 C 0.52829 0.89983 0.02844 0.0
C1149 C 0.54233 0.92082 0.05391 0.0
C1150 C 0.54463 0.93788 0.06581 0.0
C1151 C 0.52613 0.93762 0.07073 0.0
C1152 C 0.52827 0.95346 0.08218 0.0
C1153 C 0.54881 0.96979 0.08869 0.0
C1154 C 0.5673 0.97012 0.08388 0.0
C1155 C 0.56526 0.95415 0.07255 0.0
H1156 H 0.55038 0.98208 0.09751 0.0
H1157 H 0.52395 0.82132 0.99055 0.0
H1158 H 0.94891 0.20038 0.42217 0.0
H1159 H 0.98278 0.22851 0.41323 0.0
H1160 H 0.99917 0.17975 0.39945 0.0
H1161 H 0.96535 0.15167 0.40816 0.0
H1162 H 0.03402 0.21819 0.41614 0.0
H1163 H 0.97927 0.19578 0.37236 0.0
H1164 H 0.94455 0.18921 0.35936 0.0
H1165 H 0.96444 0.25658 0.36962 0.0
H1166 H 0.99918 0.26347 0.3829 0.0
H1167 H 0.11854 0.27216 0.36898 0.0
H1168 H 0.08542 0.24687 0.37992 0.0
H1169 H 0.06365 0.29356 0.37875 0.0
H1170 H 0.096 0.31794 0.36635 0.0
H1171 H 0.03119 0.25759 0.37121 0.0
H1172 H 0.085 0.28028 0.4163 0.0
H1173 H 0.11916 0.28686 0.43039 0.0
H1174 H 0.10141 0.22042 0.41817 0.0
H1175 H 0.06689 0.21332 0.40438 0.0
C1176 C 0.95989 0.19578 0.41737 0.0
C1177 C 0.95454 0.1739 0.41577 0.0
C1178 C 0.97912 0.21178 0.41221 0.0
C1179 C 0.99338 0.20615 0.4056 0.0
C1180 C 0.98837 0.18441 0.4045 0.0
C1181 C 0.96905 0.16841 0.40941 0.0
C1182 C 0.01332 0.2227 0.39944 0.0
C1183 C 0.03345 0.22679 0.40628 0.0
C1184 C 0.01255 0.2342 0.38681 0.0
C1185 C 0.99171 0.23008 0.37879 0.0
C1186 C 0.97616 0.20915 0.37198 0.0
C1187 C 0.95649 0.20537 0.36453 0.0
C1188 C 0.95226 0.22245 0.36371 0.0
C1189 C 0.96772 0.24335 0.37029 0.0
C1190 C 0.9874 0.2472 0.37778 0.0
C1191 C 0.10658 0.27689 0.37105 0.0
C1192 C 0.10965 0.29687 0.3669 0.0
C1193 C 0.08777 0.26259 0.37753 0.0
C1194 C 0.07217 0.26846 0.38074 0.0
C1195 C 0.07537 0.28857 0.37652 0.0
C1196 C 0.09383 0.30253 0.36947 0.0
C1197 C 0.05222 0.25336 0.38794 0.0
C1198 C 0.03197 0.24939 0.38125 0.0
C1199 C 0.05287 0.24212 0.40086 0.0
C1200 C 0.0735 0.24633 0.40924 0.0
C1201 C 0.08844 0.26711 0.41662 0.0
C1202 C 0.10782 0.2709 0.42458 0.0
C1203 C 0.11252 0.25409 0.42507 0.0
C1204 C 0.09778 0.23343 0.41772 0.0
C1205 C 0.07822 0.22946 0.40998 0.0
H1206 H 0.12746 0.25695 0.43127 0.0
H1207 H 0.93703 0.2195 0.35792 0.0
H1208 H 0.85125 0.79949 0.43748 0.0
H1209 H 0.82303 0.80737 0.42825 0.0
H1210 H 0.80591 0.76189 0.38735 0.0
H1211 H 0.83395 0.75387 0.39652 0.0
H1212 H 0.81052 0.79985 0.37965 0.0
H1213 H 0.77344 0.74974 0.41745 0.0
H1214 H 0.7692 0.73642 0.44356 0.0
H1215 H 0.77336 0.79522 0.46332 0.0
H1216 H 0.77771 0.80895 0.43733 0.0
H1217 H 0.71351 0.79281 0.34911 0.0
H1218 H 0.74002 0.78423 0.3607 0.0
H1219 H 0.75209 0.82815 0.40162 0.0
H1220 H 0.72516 0.83642 0.39028 0.0
H1221 H 0.75086 0.79253 0.4101 0.0
H1222 H 0.78721 0.84275 0.37307 0.0
H1223 H 0.79237 0.85739 0.34742 0.0
H1224 H 0.79139 0.80055 0.32681 0.0
H1225 H 0.78591 0.78542 0.3523 0.0
C1226 C 0.84127 0.79095 0.42663 0.0
C1227 C 0.84492 0.77613 0.4177 0.0
C1228 C 0.82516 0.79549 0.42136 0.0
C1229 C 0.81228 0.78515 0.40714 0.0
C1230 C 0.81571 0.77014 0.39832 0.0
C1231 C 0.8318 0.76563 0.40356 0.0
C1232 C 0.79576 0.79048 0.40108 0.0
C1233 C 0.79729 0.79796 0.38622 0.0
C1234 C 0.77896 0.78876 0.40988 0.0
C1235 C 0.77611 0.78044 0.42548 0.0
C1236 C 0.77357 0.75987 0.42738 0.0
C1237 C 0.77108 0.75223 0.44215 0.0
C1238 C 0.77101 0.76497 0.45509 0.0
C1239 C 0.77335 0.78535 0.45328 0.0
C1240 C 0.77579 0.79306 0.43853 0.0
C1241 C 0.72174 0.80063 0.36059 0.0
C1242 C 0.7173 0.81542 0.36871 0.0
C1243 C 0.73698 0.79576 0.36719 0.0
C1244 C 0.74835 0.80583 0.38192 0.0
C1245 C 0.74357 0.82022 0.39022 0.0
C1246 C 0.72819 0.82497 0.38369 0.0
C1247 C 0.76542 0.80156 0.38854 0.0
C1248 C 0.76407 0.79441 0.40352 0.0
C1249 C 0.78255 0.80378 0.37992 0.0
C1250 C 0.78595 0.81287 0.36457 0.0
C1251 C 0.78794 0.8333 0.36305 0.0
C1252 C 0.79094 0.8417 0.34854 0.0
C1253 C 0.79216 0.82989 0.33549 0.0
C1254 C 0.79042 0.80967 0.33693 0.0
C1255 C 0.78738 0.80119 0.35141 0.0
H1256 H 0.79449 0.83641 0.32427 0.0
H1257 H 0.76911 0.75904 0.46651 0.0
H1258 H 0.25594 0.06976 0.41454 0.0
H1259 H 0.24717 0.0327 0.40554 0.0
H1260 H 0.18893 0.02208 0.3791 0.0
H1261 H 0.19769 0.05911 0.38794 0.0
H1262 H 0.1835 0.98735 0.39744 0.0
H1263 H 0.22967 0.03294 0.36012 0.0
H1264 H 0.26315 0.0636 0.35258 0.0
H1265 H 0.30053 0.03749 0.37299 0.0
H1266 H 0.26727 0.00683 0.38086 0.0
H1267 H 0.15146 0.89636 0.34354 0.0
H1268 H 0.16279 0.93232 0.35652 0.0
H1269 H 0.22438 0.93935 0.37309 0.0
H1270 H 0.21333 0.90359 0.35966 0.0
H1271 H 0.23026 0.97565 0.36243 0.0
H1272 H 0.18535 0.92866 0.3978 0.0
H1273 H 0.1528 0.89771 0.40611 0.0
H1274 H 0.11447 0.92578 0.39145 0.0
H1275 H 0.14671 0.95674 0.38277 0.0
C1276 C 0.24122 0.05944 0.40688 0.0
C1277 C 0.22752 0.06726 0.40187 0.0
C1278 C 0.23627 0.03836 0.40173 0.0
C1279 C 0.21744 0.02474 0.39165 0.0
C1280 C 0.20352 0.03237 0.3869 0.0
C1281 C 0.20861 0.05352 0.39186 0.0
C1282 C 0.21243 0.00269 0.38567 0.0
C1283 C 0.19359 0.98473 0.38969 0.0
C1284 C 0.22606 0.99936 0.37603 0.0
C1285 C 0.24603 0.01774 0.37124 0.0
C1286 C 0.24505 0.03385 0.36313 0.0
C1287 C 0.26399 0.0512 0.35877 0.0
C1288 C 0.28397 0.05253 0.36235 0.0
C1289 C 0.28505 0.03647 0.37025 0.0
C1290 C 0.26617 0.01909 0.37466 0.0
C1291 C 0.1674 0.90558 0.34996 0.0
C1292 C 0.18146 0.89717 0.35071 0.0
C1293 C 0.17382 0.92606 0.35746 0.0
C1294 C 0.19431 0.93839 0.36601 0.0
C1295 C 0.20846 0.93008 0.36663 0.0
C1296 C 0.20209 0.90962 0.35904 0.0
C1297 C 0.20102 0.96017 0.37393 0.0
C1298 C 0.22022 0.97813 0.37031 0.0
C1299 C 0.18788 0.96345 0.38415 0.0
C1300 C 0.16845 0.94497 0.38952 0.0
C1301 C 0.16996 0.92818 0.39624 0.0
C1302 C 0.15156 0.91063 0.40103 0.0
C1303 C 0.13158 0.90976 0.39929 0.0
C1304 C 0.12996 0.92647 0.39278 0.0
C1305 C 0.1483 0.94404 0.38794 0.0
H1306 H 0.11735 0.89616 0.403 0.0
H1307 H 0.29861 0.06598 0.35895 0.0
H1308 H 0.4735 0.62496 0.2906 0.0
H1309 H 0.50318 0.66049 0.30149 0.0
H1310 H 0.54947 0.64149 0.28919 0.0
H1311 H 0.51971 0.60544 0.27881 0.0
H1312 H 0.56057 0.6621 0.31796 0.0
H1313 H 0.54106 0.67615 0.26797 0.0
H1314 H 0.51662 0.67545 0.24618 0.0
H1315 H 0.49827 0.71277 0.27594 0.0
H1316 H 0.52237 0.71342 0.29799 0.0
H1317 H 0.64851 0.77145 0.33525 0.0
H1318 H 0.62254 0.73601 0.32116 0.0
H1319 H 0.5697 0.74535 0.33297 0.0
H1320 H 0.59559 0.78085 0.34688 0.0
H1321 H 0.56455 0.72981 0.30238 0.0
H1322 H 0.5826 0.71289 0.35285 0.0
H1323 H 0.60758 0.71351 0.37421 0.0
H1324 H 0.62973 0.68175 0.34251 0.0
H1325 H 0.60506 0.6812 0.32091 0.0
C1326 C 0.48997 0.62822 0.29032 0.0
C1327 C 0.4942 0.61229 0.28386 0.0
C1328 C 0.50695 0.64867 0.29639 0.0
C1329 C 0.52858 0.65379 0.29596 0.0
C1330 C 0.53291 0.63794 0.28957 0.0
C1331 C 0.51589 0.6174 0.28353 0.0
C1332 C 0.54654 0.67557 0.3025 0.0
C1333 C 0.56167 0.67692 0.31435 0.0
C1334 C 0.54785 0.69492 0.29792 0.0
C1335 C 0.53341 0.69468 0.28467 0.0
C1336 C 0.5317 0.68407 0.2699 0.0
C1337 C 0.51792 0.68371 0.2575 0.0
C1338 C 0.50587 0.69403 0.25968 0.0
C1339 C 0.50761 0.70478 0.27427 0.0
C1340 C 0.52135 0.70517 0.28672 0.0
C1341 C 0.63135 0.76593 0.33479 0.0
C1342 C 0.62401 0.77882 0.34218 0.0
C1343 C 0.61654 0.74568 0.3268 0.0
C1344 C 0.59418 0.73797 0.32613 0.0
C1345 C 0.58689 0.75098 0.33335 0.0
C1346 C 0.60167 0.77119 0.34135 0.0
C1347 C 0.57824 0.71628 0.31803 0.0
C1348 C 0.56353 0.71498 0.30587 0.0
C1349 C 0.57744 0.697 0.32223 0.0
C1350 C 0.59216 0.69722 0.33523 0.0
C1351 C 0.59292 0.70619 0.35041 0.0
C1352 C 0.607 0.7065 0.36256 0.0
C1353 C 0.62028 0.69773 0.35971 0.0
C1354 C 0.61946 0.68857 0.3447 0.0
C1355 C 0.60542 0.68824 0.3325 0.0
H1356 H 0.63117 0.69799 0.36913 0.0
H1357 H 0.49521 0.69373 0.25006 0.0
H1358 H 0.38477 0.86197 0.28765 0.0
H1359 H 0.35151 0.85723 0.29735 0.0
H1360 H 0.35855 0.9124 0.2746 0.0
H1361 H 0.39254 0.91792 0.26542 0.0
H1362 H 0.34645 0.91377 0.3029 0.0
H1363 H 0.32175 0.86019 0.25908 0.0
H1364 H 0.31961 0.82961 0.24255 0.0
H1365 H 0.29687 0.78902 0.27999 0.0
H1366 H 0.29915 0.81945 0.29682 0.0
H1367 H 0.21975 0.84858 0.30228 0.0
H1368 H 0.25295 0.85719 0.29056 0.0
H1369 H 0.28949 0.88179 0.33602 0.0
H1370 H 0.25632 0.87364 0.34784 0.0
H1371 H 0.27899 0.84195 0.2941 0.0
H1372 H 0.34106 0.92147 0.33235 0.0
H1373 H 0.34213 0.95312 0.34654 0.0
H1374 H 0.28791 0.94388 0.31588 0.0
H1375 H 0.2867 0.91237 0.30138 0.0
C1376 C 0.37942 0.87328 0.28482 0.0
C1377 C 0.39141 0.89037 0.27575 0.0
C1378 C 0.36023 0.87038 0.29025 0.0
C1379 C 0.35234 0.88428 0.28655 0.0
C1380 C 0.36427 0.90142 0.27756 0.0
C1381 C 0.38359 0.90442 0.27219 0.0
C1382 C 0.3317 0.88088 0.29215 0.0
C1383 C 0.33168 0.89808 0.30096 0.0
C1384 C 0.31229 0.86054 0.28936 0.0
C1385 C 0.31079 0.84216 0.27925 0.0
C1386 C 0.31643 0.84478 0.26382 0.0
C1387 C 0.31517 0.82747 0.25439 0.0
C1388 C 0.30815 0.8074 0.26023 0.0
C1389 C 0.30232 0.80458 0.27549 0.0
C1390 C 0.30357 0.82185 0.28497 0.0
C1391 C 0.23484 0.85593 0.30982 0.0
C1392 C 0.23534 0.86043 0.32603 0.0
C1393 C 0.25384 0.86081 0.30307 0.0
C1394 C 0.27379 0.87029 0.31236 0.0
C1395 C 0.27437 0.87483 0.32856 0.0
C1396 C 0.25535 0.87007 0.33532 0.0
C1397 C 0.2938 0.87472 0.30512 0.0
C1398 C 0.29371 0.85768 0.29603 0.0
C1399 C 0.31293 0.89535 0.30734 0.0
C1400 C 0.31367 0.91443 0.31588 0.0
C1401 C 0.32942 0.92624 0.3286 0.0
C1402 C 0.33004 0.94415 0.33671 0.0
C1403 C 0.31505 0.95046 0.33215 0.0
C1404 C 0.29946 0.93893 0.31944 0.0
C1405 C 0.29878 0.92102 0.31129 0.0
H1406 H 0.31555 0.96432 0.33844 0.0
H1407 H 0.30719 0.79401 0.25291 0.0
H1408 H 0.14768 0.5283 0.30548 0.0
H1409 H 0.15685 0.50178 0.3148 0.0
H1410 H 0.09877 0.44978 0.2888 0.0
H1411 H 0.08949 0.47632 0.27941 0.0
H1412 H 0.10493 0.44264 0.32009 0.0
H1413 H 0.14495 0.46359 0.27542 0.0
H1414 H 0.17057 0.48896 0.25852 0.0
H1415 H 0.22221 0.51207 0.29559 0.0
H1416 H 0.19682 0.48713 0.31283 0.0
H1417 H 0.13154 0.36148 0.33512 0.0
H1418 H 0.12127 0.38509 0.3221 0.0
H1419 H 0.18311 0.44086 0.33957 0.0
H1420 H 0.19386 0.4171 0.35185 0.0
H1421 H 0.17369 0.44456 0.31085 0.0
H1422 H 0.13445 0.4271 0.35628 0.0
H1423 H 0.10962 0.40291 0.37414 0.0
H1424 H 0.05763 0.37481 0.33704 0.0
H1425 H 0.08224 0.39865 0.3189 0.0
C1426 C 0.13686 0.51121 0.30176 0.0
C1427 C 0.11786 0.50433 0.29175 0.0
C1428 C 0.14219 0.49611 0.307 0.0
C1429 C 0.12855 0.47386 0.3024 0.0
C1430 C 0.10952 0.46691 0.29243 0.0
C1431 C 0.10431 0.48205 0.28703 0.0
C1432 C 0.13394 0.45788 0.3084 0.0
C1433 C 0.11978 0.44278 0.31787 0.0
C1434 C 0.15361 0.45853 0.30582 0.0
C1435 C 0.1689 0.47365 0.29548 0.0
C1436 C 0.16171 0.47425 0.28004 0.0
C1437 C 0.17621 0.48853 0.27038 0.0
C1438 C 0.19799 0.50217 0.27599 0.0
C1439 C 0.20533 0.50153 0.29127 0.0
C1440 C 0.19089 0.48732 0.30099 0.0
C1441 C 0.14302 0.37874 0.33601 0.0
C1442 C 0.16353 0.38747 0.3444 0.0
C1443 C 0.13705 0.39226 0.32872 0.0
C1444 C 0.15128 0.41483 0.33004 0.0
C1445 C 0.17183 0.42352 0.33838 0.0
C1446 C 0.17792 0.40996 0.34548 0.0
C1447 C 0.14482 0.42945 0.32277 0.0
C1448 C 0.15877 0.4443 0.31303 0.0
C1449 C 0.12509 0.42878 0.32529 0.0
C1450 C 0.11025 0.4145 0.3362 0.0
C1451 C 0.11776 0.41566 0.35191 0.0
C1452 C 0.10372 0.40202 0.36208 0.0
C1453 C 0.08208 0.38729 0.35672 0.0
C1454 C 0.07441 0.3862 0.34117 0.0
C1455 C 0.08839 0.39978 0.33094 0.0
H1456 H 0.07123 0.37675 0.36462 0.0
H1457 H 0.20919 0.51319 0.26849 0.0
H1458 H 0.39919 0.5035 0.30817 0.0
H1459 H 0.36537 0.47174 0.31337 0.0
H1460 H 0.33291 0.47748 0.27148 0.0
H1461 H 0.36685 0.50976 0.26655 0.0
H1462 H 0.3103 0.47382 0.29491 0.0
H1463 H 0.34209 0.43391 0.2749 0.0
H1464 H 0.3702 0.42392 0.27183 0.0
H1465 H 0.3695 0.41066 0.31989 0.0
H1466 H 0.3416 0.42087 0.32333 0.0
H1467 H 0.21251 0.37836 0.30657 0.0
H1468 H 0.24532 0.40305 0.29511 0.0
H1469 H 0.28408 0.40907 0.33754 0.0
H1470 H 0.25129 0.3842 0.34912 0.0
H1471 H 0.30185 0.40447 0.31085 0.0
H1472 H 0.27177 0.4477 0.3307 0.0
H1473 H 0.24262 0.45642 0.33291 0.0
H1474 H 0.23935 0.46224 0.28357 0.0
H1475 H 0.26826 0.4532 0.28102 0.0
C1476 C 0.38494 0.49756 0.29988 0.0
C1477 C 0.38549 0.50871 0.28689 0.0
C1478 C 0.36562 0.4794 0.30283 0.0
C1479 C 0.34656 0.47201 0.29274 0.0
C1480 C 0.34739 0.48282 0.2794 0.0
C1481 C 0.36675 0.5011 0.27651 0.0
C1482 C 0.32553 0.45434 0.29698 0.0
C1483 C 0.30834 0.45847 0.29806 0.0
C1484 C 0.32301 0.43443 0.30139 0.0
C1485 C 0.33985 0.42833 0.2994 0.0
C1486 C 0.34805 0.42904 0.28486 0.0
C1487 C 0.36393 0.4233 0.28304 0.0
C1488 C 0.37166 0.4167 0.29567 0.0
C1489 C 0.3635 0.41579 0.31013 0.0
C1490 C 0.34764 0.42152 0.31201 0.0
C1491 C 0.22798 0.38484 0.31349 0.0
C1492 C 0.22922 0.3794 0.32884 0.0
C1493 C 0.24673 0.39899 0.3069 0.0
C1494 C 0.26711 0.40807 0.31553 0.0
C1495 C 0.26849 0.40225 0.33068 0.0
C1496 C 0.24972 0.3881 0.33731 0.0
C1497 C 0.28694 0.42418 0.30896 0.0
C1498 C 0.30384 0.41974 0.30749 0.0
C1499 C 0.28913 0.44372 0.30406 0.0
C1500 C 0.27203 0.44956 0.30564 0.0
C1501 C 0.26474 0.4507 0.3203 0.0
C1502 C 0.24827 0.45571 0.32162 0.0
C1503 C 0.2391 0.45983 0.30838 0.0
C1504 C 0.24644 0.45902 0.29381 0.0
C1505 C 0.26288 0.45396 0.29242 0.0
H1506 H 0.22634 0.46369 0.30942 0.0
H1507 H 0.38394 0.41225 0.29423 0.0
H1508 H 0.47335 0.84792 0.28637 0.0
H1509 H 0.50369 0.84154 0.29178 0.0
H1510 H 0.54863 0.90746 0.2834 0.0
H1511 H 0.51814 0.9139 0.27807 0.0
H1512 H 0.56001 0.87333 0.27282 0.0
H1513 H 0.54129 0.90266 0.31796 0.0
H1514 H 0.51555 0.90325 0.33556 0.0
H1515 H 0.49689 0.83844 0.34601 0.0
H1516 H 0.52231 0.83737 0.32828 0.0
H1517 H 0.63576 0.87928 0.34549 0.0
H1518 H 0.60886 0.88706 0.33325 0.0
H1519 H 0.58904 0.83364 0.29771 0.0
H1520 H 0.61629 0.82632 0.30953 0.0
H1521 H 0.56668 0.86378 0.32923 0.0
H1522 H 0.57051 0.84009 0.26562 0.0
H1523 H 0.59747 0.83892 0.2495 0.0
H1524 H 0.64849 0.89549 0.27705 0.0
H1525 H 0.62196 0.89668 0.29356 0.0
C1526 C 0.48967 0.86079 0.28519 0.0
C1527 C 0.49359 0.88133 0.28177 0.0
C1528 C 0.50695 0.85715 0.28828 0.0
C1529 C 0.52837 0.87405 0.28803 0.0
C1530 C 0.5322 0.89418 0.28351 0.0
C1531 C 0.51485 0.89786 0.28051 0.0
C1532 C 0.54652 0.87162 0.29479 0.0
C1533 C 0.56153 0.87129 0.28514 0.0
C1534 C 0.54861 0.86914 0.31089 0.0
C1535 C 0.53353 0.86986 0.32169 0.0
C1536 C 0.53157 0.88848 0.32392 0.0
C1537 C 0.51707 0.88891 0.33393 0.0
C1538 C 0.50455 0.87087 0.34187 0.0
C1539 C 0.50657 0.85239 0.33984 0.0
C1540 C 0.52103 0.85187 0.32982 0.0
C1541 C 0.62578 0.86932 0.33499 0.0
C1542 C 0.62828 0.85232 0.32839 0.0
C1543 C 0.6104 0.87377 0.32801 0.0
C1544 C 0.59715 0.86118 0.31439 0.0
C1545 C 0.59947 0.84401 0.30793 0.0
C1546 C 0.61502 0.83977 0.31475 0.0
C1547 C 0.5803 0.86545 0.30733 0.0
C1548 C 0.56536 0.86598 0.31692 0.0
C1549 C 0.57847 0.8683 0.29125 0.0
C1550 C 0.59426 0.86852 0.28076 0.0
C1551 C 0.58745 0.8524 0.26812 0.0
C1552 C 0.60266 0.85165 0.25898 0.0
C1553 C 0.62462 0.86721 0.26217 0.0
C1554 C 0.63146 0.88348 0.27457 0.0
C1555 C 0.61638 0.88414 0.28386 0.0
H1556 H 0.63634 0.86664 0.25507 0.0
H1557 H 0.49333 0.87124 0.34961 0.0
H1558 H 0.15287 0.62298 0.30257 0.0
H1559 H 0.16244 0.66116 0.30673 0.0
H1560 H 0.09459 0.64164 0.30339 0.0
H1561 H 0.085 0.6033 0.29922 0.0
H1562 H 0.12251 0.68179 0.28924 0.0
H1563 H 0.1168 0.64885 0.33765 0.0
H1564 H 0.12464 0.62795 0.3562 0.0
H1565 H 0.19263 0.67459 0.35894 0.0
H1566 H 0.1852 0.6956 0.34021 0.0
H1567 H 0.13494 0.77683 0.33294 0.0
H1568 H 0.12368 0.74 0.32155 0.0
H1569 H 0.18859 0.75191 0.33284 0.0
H1570 H 0.19973 0.78846 0.3445 0.0
H1571 H 0.16057 0.715 0.34223 0.0
H1572 H 0.16805 0.74771 0.29417 0.0
H1573 H 0.16213 0.76913 0.27506 0.0
H1574 H 0.09351 0.72481 0.27133 0.0
H1575 H 0.09906 0.70297 0.29038 0.0
C1576 C 0.14005 0.62695 0.30231 0.0
C1577 C 0.11828 0.61048 0.30058 0.0
C1578 C 0.1455 0.64868 0.30471 0.0
C1579 C 0.12921 0.65416 0.30548 0.0
C1580 C 0.10737 0.63771 0.30276 0.0
C1581 C 0.10192 0.61591 0.30042 0.0
C1582 C 0.13508 0.67667 0.31097 0.0
C1583 C 0.1306 0.68903 0.30088 0.0
C1584 C 0.14598 0.68617 0.32604 0.0
C1585 C 0.15046 0.67367 0.33742 0.0
C1586 C 0.13343 0.65455 0.34211 0.0
C1587 C 0.1378 0.6427 0.35267 0.0
C1588 C 0.15913 0.64991 0.35871 0.0
C1589 C 0.17613 0.66902 0.35424 0.0
C1590 C 0.17184 0.68091 0.34366 0.0
C1591 C 0.14681 0.7716 0.33284 0.0
C1592 C 0.16816 0.78538 0.33966 0.0
C1593 C 0.1404 0.75062 0.32626 0.0
C1594 C 0.15533 0.74321 0.32626 0.0
C1595 C 0.17678 0.75723 0.33275 0.0
C1596 C 0.18313 0.7781 0.33941 0.0
C1597 C 0.14839 0.72045 0.32044 0.0
C1598 C 0.15252 0.7079 0.33056 0.0
C1599 C 0.1374 0.71095 0.30536 0.0
C1600 C 0.13395 0.72384 0.2938 0.0
C1601 C 0.15168 0.7426 0.28934 0.0
C1602 C 0.1484 0.75481 0.27851 0.0
C1603 C 0.12745 0.74847 0.27208 0.0
C1604 C 0.10974 0.72975 0.27636 0.0
C1605 C 0.11295 0.71739 0.28712 0.0
H1606 H 0.12495 0.75802 0.26374 0.0
H1607 H 0.16248 0.64071 0.36689 0.0
H1608 H 0.87375 0.049 0.39668 0.0
H1609 H 0.84377 0.01173 0.38994 0.0
H1610 H 0.79802 0.03235 0.40021 0.0
H1611 H 0.8282 0.06989 0.4069 0.0
H1612 H 0.78803 0.98895 0.40991 0.0
H1613 H 0.80429 0.0299 0.36509 0.0
H1614 H 0.82841 0.05424 0.34697 0.0
H1615 H 0.84909 0.00851 0.33511 0.0
H1616 H 0.82532 0.98404 0.35336 0.0
H1617 H 0.69861 0.89782 0.36277 0.0
H1618 H 0.72505 0.93417 0.37538 0.0
H1619 H 0.77725 0.92552 0.36088 0.0
H1620 H 0.75098 0.88927 0.34838 0.0
H1621 H 0.78189 0.96393 0.3538 0.0
H1622 H 0.76876 0.92437 0.39902 0.0
H1623 H 0.7465 0.8997 0.41767 0.0
H1624 H 0.72069 0.94132 0.42872 0.0
H1625 H 0.74299 0.96639 0.41013 0.0
C1626 C 0.85732 0.04541 0.39789 0.0
C1627 C 0.8531 0.06205 0.40234 0.0
C1628 C 0.84024 0.0242 0.39401 0.0
C1629 C 0.81871 0.01936 0.39448 0.0
C1630 C 0.81454 0.03579 0.39984 0.0
C1631 C 0.8317 0.05713 0.40364 0.0
C1632 C 0.8008 0.99775 0.38777 0.0
C1633 C 0.7864 0.98356 0.3976 0.0
C1634 C 0.79899 0.99064 0.37177 0.0
C1635 C 0.81318 0.00524 0.3607 0.0
C1636 C 0.81412 0.02512 0.35872 0.0
C1637 C 0.8277 0.03892 0.34841 0.0
C1638 C 0.84032 0.03295 0.33993 0.0
C1639 C 0.83933 0.01313 0.34171 0.0
C1640 C 0.82579 0.99928 0.35202 0.0
C1641 C 0.71574 0.90364 0.36242 0.0
C1642 C 0.72278 0.89077 0.35462 0.0
C1643 C 0.73081 0.92435 0.36965 0.0
C1644 C 0.75312 0.9325 0.36913 0.0
C1645 C 0.76012 0.91956 0.36141 0.0
C1646 C 0.7451 0.89887 0.35427 0.0
C1647 C 0.76925 0.95488 0.37596 0.0
C1648 C 0.78332 0.9693 0.3661 0.0
C1649 C 0.77079 0.96207 0.39192 0.0
C1650 C 0.75734 0.94711 0.40308 0.0
C1651 C 0.75821 0.92818 0.40534 0.0
C1652 C 0.74562 0.91415 0.41593 0.0
C1653 C 0.73204 0.91883 0.42431 0.0
C1654 C 0.73117 0.93768 0.42219 0.0
C1655 C 0.74384 0.95186 0.41168 0.0
H1656 H 0.72226 0.90791 0.43249 0.0
H1657 H 0.85082 0.04366 0.33195 0.0
H1658 H 0.95842 0.77435 0.42786 0.0
H1659 H 0.99532 0.78334 0.4223 0.0
H1660 H 0.9792 0.78661 0.37374 0.0
H1661 H 0.94267 0.77755 0.37927 0.0
H1662 H 0.99877 0.76278 0.37676 0.0
H1663 H 0.01011 0.83244 0.39921 0.0
H1664 H 0.00951 0.85718 0.42018 0.0
H1665 H 0.05119 0.84538 0.45107 0.0
H1666 H 0.05181 0.82035 0.43033 0.0
H1667 H 0.09477 0.8165 0.34172 0.0
H1668 H 0.06076 0.80607 0.3528 0.0
H1669 H 0.09208 0.81374 0.39909 0.0
H1670 H 0.12653 0.82518 0.38809 0.0
H1671 H 0.06578 0.82878 0.40067 0.0
H1672 H 0.05784 0.76226 0.37815 0.0
H1673 H 0.05893 0.73724 0.35768 0.0
H1674 H 0.01099 0.74152 0.32797 0.0
H1675 H 0.00983 0.76681 0.34817 0.0
C1676 C 0.96295 0.77708 0.41606 0.0
C1677 C 0.94796 0.77532 0.40394 0.0
C1678 C 0.98394 0.78224 0.41289 0.0
C1679 C 0.99003 0.78569 0.39759 0.0
C1680 C 0.97488 0.78394 0.38559 0.0
C1681 C 0.95406 0.77884 0.38876 0.0
C1682 C 0.01196 0.79082 0.3937 0.0
C1683 C 0.01342 0.77727 0.38194 0.0
C1684 C 0.03116 0.80927 0.40087 0.0
C1685 C 0.03078 0.82432 0.41329 0.0
C1686 C 0.01899 0.83497 0.41052 0.0
C1687 C 0.01868 0.84908 0.42235 0.0
C1688 C 0.03024 0.85279 0.43697 0.0
C1689 C 0.0422 0.84245 0.43976 0.0
C1690 C 0.04254 0.82832 0.42797 0.0
C1691 C 0.09444 0.81592 0.35426 0.0
C1692 C 0.1133 0.82142 0.364 0.0
C1693 C 0.07493 0.80984 0.36059 0.0
C1694 C 0.07364 0.80854 0.37677 0.0
C1695 C 0.09258 0.81445 0.38657 0.0
C1696 C 0.11225 0.82093 0.38026 0.0
C1697 C 0.05252 0.80111 0.38332 0.0
C1698 C 0.05121 0.81412 0.39562 0.0
C1699 C 0.03341 0.78199 0.37677 0.0
C1700 C 0.03384 0.76654 0.36466 0.0
C1701 C 0.0476 0.75795 0.36723 0.0
C1702 C 0.04823 0.74371 0.35567 0.0
C1703 C 0.03506 0.73782 0.34153 0.0
C1704 C 0.02119 0.7461 0.33893 0.0
C1705 C 0.02051 0.76036 0.35044 0.0
H1706 H 0.03558 0.72681 0.33259 0.0
H1707 H 0.02998 0.86372 0.44611 0.0
H1708 H 0.19342 0.14944 0.39361 0.0
H1709 H 0.18251 0.17657 0.38941 0.0
H1710 H 0.24884 0.22422 0.38431 0.0
H1711 H 0.25972 0.19703 0.38861 0.0
H1712 H 0.22733 0.24187 0.40046 0.0
H1713 H 0.21608 0.19744 0.35257 0.0
H1714 H 0.20184 0.16292 0.33587 0.0
H1715 H 0.13676 0.14643 0.34331 0.0
H1716 H 0.15065 0.18074 0.36025 0.0
H1717 H 0.20939 0.31367 0.35588 0.0
H1718 H 0.22034 0.28972 0.36757 0.0
H1719 H 0.15331 0.23867 0.36397 0.0
H1720 H 0.14253 0.26227 0.35147 0.0
H1721 H 0.17513 0.22273 0.35346 0.0
H1722 H 0.18618 0.26674 0.40214 0.0
H1723 H 0.20077 0.30042 0.41997 0.0
H1724 H 0.26551 0.31803 0.41081 0.0
H1725 H 0.25143 0.28416 0.3933 0.0
C1726 C 0.20567 0.16587 0.39196 0.0
C1727 C 0.22734 0.17135 0.39145 0.0
C1728 C 0.19946 0.18129 0.3895 0.0
C1729 C 0.21484 0.20232 0.38636 0.0
C1730 C 0.23674 0.20809 0.38672 0.0
C1731 C 0.24294 0.19262 0.38916 0.0
C1732 C 0.20778 0.2176 0.38138 0.0
C1733 C 0.21601 0.23779 0.39014 0.0
C1734 C 0.19279 0.21212 0.36805 0.0
C1735 C 0.18441 0.19154 0.35781 0.0
C1736 C 0.19874 0.18637 0.35075 0.0
C1737 C 0.19073 0.16686 0.34122 0.0
C1738 C 0.16841 0.15246 0.33857 0.0
C1739 C 0.15405 0.15758 0.3454 0.0
C1740 C 0.16197 0.17706 0.35496 0.0
C1741 C 0.19702 0.29738 0.35771 0.0
C1742 C 0.17516 0.2897 0.35266 0.0
C1743 C 0.20326 0.28375 0.36457 0.0
C1744 C 0.18766 0.26239 0.36689 0.0
C1745 C 0.16569 0.25503 0.36229 0.0
C1746 C 0.15952 0.2685 0.35514 0.0
C1747 C 0.19429 0.24706 0.37269 0.0
C1748 C 0.18617 0.22682 0.36395 0.0
C1749 C 0.20931 0.25252 0.38605 0.0
C1750 C 0.21775 0.27305 0.39631 0.0
C1751 C 0.20352 0.27788 0.40385 0.0
C1752 C 0.21168 0.29696 0.41391 0.0
C1753 C 0.23398 0.31148 0.41635 0.0
C1754 C 0.24823 0.30682 0.40887 0.0
C1755 C 0.24019 0.28761 0.39897 0.0
H1756 H 0.24023 0.32627 0.4241 0.0
H1757 H 0.16224 0.13737 0.33119 0.0
H1758 H 0.61819 0.53464 0.7598 0.0
H1759 H 0.65219 0.56217 0.75085 0.0
H1760 H 0.65561 0.51204 0.72276 0.0
H1761 H 0.62165 0.48458 0.73153 0.0
H1762 H 0.69278 0.56999 0.75265 0.0
H1763 H 0.67528 0.53 0.68876 0.0
H1764 H 0.64381 0.50683 0.66944 0.0
H1765 H 0.60612 0.52981 0.69223 0.0
H1766 H 0.63744 0.55334 0.71154 0.0
H1767 H 0.78947 0.61784 0.71557 0.0
H1768 H 0.75595 0.59332 0.72634 0.0
H1769 H 0.72067 0.61332 0.69549 0.0
H1770 H 0.75406 0.63711 0.68414 0.0
H1771 H 0.69823 0.57277 0.69553 0.0
H1772 H 0.73434 0.6305 0.7368 0.0
H1773 H 0.76382 0.65643 0.75658 0.0
H1774 H 0.762 0.60354 0.77921 0.0
H1775 H 0.73263 0.57725 0.75946 0.0
C1776 C 0.62633 0.5295 0.75184 0.0
C1777 C 0.61713 0.50748 0.74623 0.0
C1778 C 0.64573 0.54523 0.74672 0.0
C1779 C 0.65627 0.53922 0.73592 0.0
C1780 C 0.64753 0.51714 0.73081 0.0
C1781 C 0.62812 0.50146 0.73583 0.0
C1782 C 0.67609 0.55598 0.72966 0.0
C1783 C 0.69401 0.57064 0.74016 0.0
C1784 C 0.67752 0.55717 0.71338 0.0
C1785 C 0.65866 0.54327 0.70168 0.0
C1786 C 0.66031 0.53018 0.68961 0.0
C1787 C 0.64249 0.51697 0.67867 0.0
C1788 C 0.62296 0.5168 0.67964 0.0
C1789 C 0.62123 0.5299 0.69152 0.0
C1790 C 0.639 0.54316 0.70248 0.0
C1791 C 0.77457 0.61703 0.71109 0.0
C1792 C 0.7744 0.62939 0.69898 0.0
C1793 C 0.7554 0.60311 0.71736 0.0
C1794 C 0.73574 0.60169 0.71197 0.0
C1795 C 0.73558 0.61409 0.69988 0.0
C1796 C 0.75469 0.6277 0.69339 0.0
C1797 C 0.71521 0.58671 0.7185 0.0
C1798 C 0.6971 0.57227 0.70803 0.0
C1799 C 0.71347 0.58615 0.73482 0.0
C1800 C 0.73136 0.60191 0.74658 0.0
C1801 C 0.74033 0.62439 0.74592 0.0
C1802 C 0.75698 0.63914 0.75714 0.0
C1803 C 0.76471 0.63162 0.76916 0.0
C1804 C 0.75593 0.60932 0.76992 0.0
C1805 C 0.73926 0.59449 0.75872 0.0
H1806 H 0.77747 0.64307 0.77789 0.0
H1807 H 0.60918 0.50655 0.67117 0.0
H1808 H 0.51742 0.10882 0.72771 0.0
H1809 H 0.48788 0.11382 0.71703 0.0
H1810 H 0.48111 0.13471 0.76339 0.0
H1811 H 0.51036 0.12924 0.77416 0.0
H1812 H 0.44246 0.10954 0.74812 0.0
H1813 H 0.50832 0.17137 0.73655 0.0
H1814 H 0.54378 0.19032 0.72605 0.0
H1815 H 0.5135 0.1603 0.67984 0.0
H1816 H 0.47788 0.14093 0.69012 0.0
H1817 H 0.38487 0.16297 0.72391 0.0
H1818 H 0.4118 0.1546 0.73522 0.0
H1819 H 0.41475 0.12795 0.68974 0.0
H1820 H 0.38792 0.13626 0.67832 0.0
H1821 H 0.45502 0.15601 0.70471 0.0
H1822 H 0.38893 0.09459 0.71659 0.0
H1823 H 0.3536 0.07632 0.72733 0.0
H1824 H 0.38462 0.10673 0.77332 0.0
H1825 H 0.42012 0.12542 0.7628 0.0
C1826 C 0.50962 0.11448 0.73561 0.0
C1827 C 0.51629 0.11879 0.75175 0.0
C1828 C 0.49276 0.11737 0.7295 0.0
C1829 C 0.48251 0.12504 0.73936 0.0
C1830 C 0.48878 0.12882 0.75554 0.0
C1831 C 0.50549 0.12568 0.76169 0.0
C1832 C 0.46556 0.12952 0.73276 0.0
C1833 C 0.44532 0.11993 0.73877 0.0
C1834 C 0.46909 0.14278 0.72036 0.0
C1835 C 0.49047 0.15455 0.71413 0.0
C1836 C 0.50924 0.1687 0.72417 0.0
C1837 C 0.52937 0.17953 0.71825 0.0
C1838 C 0.53089 0.17648 0.70229 0.0
C1839 C 0.51229 0.16263 0.69221 0.0
C1840 C 0.49213 0.15174 0.69807 0.0
C1841 C 0.39115 0.15522 0.71631 0.0
C1842 C 0.3842 0.15027 0.70019 0.0
C1843 C 0.40649 0.15039 0.72282 0.0
C1844 C 0.41519 0.14054 0.71333 0.0
C1845 C 0.40825 0.13555 0.69727 0.0
C1846 C 0.39284 0.14026 0.69078 0.0
C1847 C 0.43198 0.13599 0.72004 0.0
C1848 C 0.45219 0.14561 0.71406 0.0
C1849 C 0.42846 0.12289 0.73251 0.0
C1850 C 0.40715 0.11157 0.73888 0.0
C1851 C 0.3882 0.09752 0.72897 0.0
C1852 C 0.36815 0.08706 0.73502 0.0
C1853 C 0.36686 0.09041 0.75099 0.0
C1854 C 0.38564 0.10417 0.76095 0.0
C1855 C 0.40573 0.11468 0.75495 0.0
H1856 H 0.35132 0.0823 0.75565 0.0
H1857 H 0.54649 0.18487 0.69774 0.0
H1858 H 0.87447 0.38914 0.75024 0.0
H1859 H 0.86491 0.35219 0.74063 0.0
H1860 H 0.90798 0.37728 0.70462 0.0
H1861 H 0.91783 0.41428 0.71426 0.0
H1862 H 0.86929 0.3436 0.69282 0.0
H1863 H 0.92205 0.35923 0.73605 0.0
H1864 H 0.93844 0.37065 0.76342 0.0
H1865 H 0.8816 0.31787 0.77876 0.0
H1866 H 0.86473 0.30631 0.75148 0.0
H1867 H 0.87901 0.24014 0.69146 0.0
H1868 H 0.8902 0.27695 0.70271 0.0
H1869 H 0.82566 0.26547 0.69048 0.0
H1870 H 0.81439 0.22861 0.67916 0.0
H1871 H 0.87663 0.29274 0.72627 0.0
H1872 H 0.83028 0.31252 0.6787 0.0
H1873 H 0.81665 0.30206 0.65072 0.0
H1874 H 0.86601 0.2859 0.64302 0.0
H1875 H 0.8801 0.29655 0.6709 0.0
C1876 C 0.88214 0.38682 0.74041 0.0
C1877 C 0.8969 0.40468 0.733 0.0
C1878 C 0.87661 0.36569 0.73491 0.0
C1879 C 0.8858 0.362 0.72195 0.0
C1880 C 0.90062 0.37976 0.71459 0.0
C1881 C 0.90618 0.40089 0.72009 0.0
C1882 C 0.87961 0.33958 0.71582 0.0
C1883 C 0.87087 0.33248 0.70015 0.0
C1884 C 0.88192 0.32515 0.72532 0.0
C1885 C 0.89204 0.33204 0.74173 0.0
C1886 C 0.91297 0.35016 0.74527 0.0
C1887 C 0.92236 0.35664 0.76077 0.0
C1888 C 0.91105 0.34503 0.77283 0.0
C1889 C 0.89033 0.32687 0.76941 0.0
C1890 C 0.88086 0.32034 0.75393 0.0
C1891 C 0.86717 0.24543 0.69127 0.0
C1892 C 0.84586 0.2316 0.6844 0.0
C1893 C 0.87358 0.26643 0.69772 0.0
C1894 C 0.85882 0.274 0.69731 0.0
C1895 C 0.83738 0.26003 0.69074 0.0
C1896 C 0.83096 0.23901 0.6843 0.0
C1897 C 0.86607 0.29672 0.70334 0.0
C1898 C 0.87497 0.30385 0.71898 0.0
C1899 C 0.86425 0.31132 0.69375 0.0
C1900 C 0.85608 0.30512 0.67692 0.0
C1901 C 0.83826 0.30681 0.67102 0.0
C1902 C 0.83045 0.30083 0.65518 0.0
C1903 C 0.84041 0.29325 0.64511 0.0
C1904 C 0.85825 0.2917 0.65085 0.0
C1905 C 0.86614 0.29767 0.66667 0.0
H1906 H 0.83433 0.28862 0.63286 0.0
H1907 H 0.91835 0.35007 0.78482 0.0
H1908 H 0.16216 0.93454 0.6422 0.0
H1909 H 0.19093 0.97039 0.65383 0.0
H1910 H 0.19854 0.99388 0.60824 0.0
H1911 H 0.1695 0.95818 0.59658 0.0
H1912 H 0.23343 0.99579 0.6497 0.0
H1913 H 0.20783 0.04652 0.61297 0.0
H1914 H 0.17483 0.04306 0.59913 0.0
H1915 H 0.1355 0.99572 0.62917 0.0
H1916 H 0.16825 0.99919 0.64335 0.0
H1917 H 0.31497 0.10739 0.66479 0.0
H1918 H 0.28878 0.07123 0.65193 0.0
H1919 H 0.23686 0.07598 0.67145 0.0
H1920 H 0.26283 0.11249 0.6836 0.0
H1921 H 0.22423 0.0595 0.64302 0.0
H1922 H 0.25923 0.04522 0.68653 0.0
H1923 H 0.29037 0.0484 0.70296 0.0
H1924 H 0.30747 0.02174 0.66394 0.0
H1925 H 0.27658 0.01866 0.64722 0.0
C1926 C 0.16998 0.94736 0.63466 0.0
C1927 C 0.16347 0.94359 0.61849 0.0
C1928 C 0.18652 0.96776 0.6413 0.0
C1929 C 0.19675 0.98484 0.63192 0.0
C1930 C 0.19073 0.98097 0.61571 0.0
C1931 C 0.17424 0.96053 0.60905 0.0
C1932 C 0.21304 0.00691 0.63922 0.0
C1933 C 0.23149 0.00976 0.6482 0.0
C1934 C 0.21031 0.02505 0.63749 0.0
C1935 C 0.19049 0.0229 0.62907 0.0
C1936 C 0.19213 0.03541 0.61663 0.0
C1937 C 0.17347 0.03345 0.60873 0.0
C1938 C 0.15307 0.0191 0.61322 0.0
C1939 C 0.1513 0.00675 0.62565 0.0
C1940 C 0.16991 0.00868 0.63361 0.0
C1941 C 0.29794 0.10075 0.6662 0.0
C1942 C 0.29089 0.11275 0.67512 0.0
C1943 C 0.283 0.08 0.65898 0.0
C1944 C 0.26083 0.07071 0.66086 0.0
C1945 C 0.25385 0.08277 0.66978 0.0
C1946 C 0.26871 0.1036 0.67679 0.0
C1947 C 0.24476 0.04851 0.65351 0.0
C1948 C 0.22633 0.04561 0.64445 0.0
C1949 C 0.24727 0.03026 0.65552 0.0
C1950 C 0.26572 0.03191 0.66559 0.0
C1951 C 0.26971 0.04016 0.68143 0.0
C1952 C 0.28731 0.04193 0.69079 0.0
C1953 C 0.30092 0.03533 0.68448 0.0
C1954 C 0.29693 0.02687 0.66881 0.0
C1955 C 0.27937 0.0251 0.65939 0.0
H1956 H 0.31454 0.03672 0.69175 0.0
H1957 H 0.13865 0.01761 0.60708 0.0
H1958 H 0.05893 0.24996 0.599 0.0
H1959 H 0.02577 0.2466 0.60827 0.0
H1960 H 0.00782 0.18293 0.62177 0.0
H1961 H 0.04037 0.18579 0.61197 0.0
H1962 H 0.97324 0.18273 0.60899 0.0
H1963 H 0.03199 0.22851 0.64862 0.0
H1964 H 0.06733 0.26021 0.65879 0.0
H1965 H 0.04476 0.30316 0.64519 0.0
H1966 H 0.00937 0.27168 0.63475 0.0
H1967 H 0.92232 0.20436 0.68032 0.0
H1968 H 0.95419 0.2107 0.66738 0.0
H1969 H 0.91857 0.20019 0.62234 0.0
H1970 H 0.88641 0.1929 0.6352 0.0
H1971 H 0.97966 0.23832 0.64976 0.0
H1972 H 0.93538 0.17782 0.59494 0.0
H1973 H 0.90047 0.14447 0.58649 0.0
H1974 H 0.89469 0.12765 0.63377 0.0
H1975 H 0.92971 0.16075 0.64246 0.0
C1976 C 0.04776 0.23512 0.60373 0.0
C1977 C 0.05244 0.21823 0.60487 0.0
C1978 C 0.0289 0.23329 0.60915 0.0
C1979 C 0.01442 0.21463 0.61593 0.0
C1980 C 0.01875 0.19752 0.61665 0.0
C1981 C 0.03751 0.19929 0.61119 0.0
C1982 C 0.99512 0.21305 0.62276 0.0
C1983 C 0.97463 0.19495 0.61784 0.0
C1984 C 0.9969 0.22884 0.63444 0.0
C1985 C 0.01813 0.24776 0.64075 0.0
C1986 C 0.03463 0.24472 0.64769 0.0
C1987 C 0.05465 0.26264 0.65352 0.0
C1988 C 0.05831 0.28369 0.6526 0.0
C1989 C 0.04192 0.28685 0.64587 0.0
C1990 C 0.02187 0.26898 0.64001 0.0
C1991 C 0.92133 0.20354 0.66766 0.0
C1992 C 0.9018 0.19792 0.65877 0.0
C1993 C 0.93957 0.20719 0.66026 0.0
C1994 C 0.93873 0.20554 0.64385 0.0
C1995 C 0.91952 0.201 0.63499 0.0
C1996 C 0.90116 0.19693 0.64237 0.0
C1997 C 0.95775 0.2079 0.6361 0.0
C1998 C 0.9782 0.22619 0.6408 0.0
C1999 C 0.95598 0.19202 0.62446 0.0
C2000 C 0.93509 0.17185 0.61935 0.0
C2001 C 0.92671 0.16694 0.60351 0.0
C2002 C 0.90691 0.1481 0.59868 0.0
C2003 C 0.89539 0.13396 0.60958 0.0
C2004 C 0.90364 0.13863 0.62534 0.0
C2005 C 0.92346 0.15743 0.63023 0.0
H2006 H 0.8801 0.11936 0.60581 0.0
H2007 H 0.07382 0.29754 0.65712 0.0
H2008 H 0.76732 0.83756 0.65156 0.0
H2009 H 0.77558 0.81163 0.66288 0.0
H2010 H 0.80075 0.80366 0.62021 0.0
H2011 H 0.79399 0.83076 0.6092 0.0
H2012 H 0.76397 0.77144 0.65743 0.0
H2013 H 0.84259 0.79543 0.62778 0.0
H2014 H 0.87182 0.8275 0.61748 0.0
H2015 H 0.86038 0.86961 0.64818 0.0
H2016 H 0.8313 0.83783 0.6588 0.0
H2017 H 0.79625 0.69415 0.67099 0.0
H2018 H 0.78547 0.7184 0.65966 0.0
H2019 H 0.84271 0.7738 0.68395 0.0
H2020 H 0.85432 0.74958 0.6943 0.0
H2021 H 0.83834 0.78305 0.6568 0.0
H2022 H 0.78887 0.75317 0.69538 0.0
H2023 H 0.76124 0.72431 0.70922 0.0
H2024 H 0.71726 0.69976 0.66721 0.0
H2025 H 0.74473 0.72831 0.65306 0.0
C2026 C 0.77481 0.83047 0.64461 0.0
C2027 C 0.78033 0.8366 0.62954 0.0
C2028 C 0.77929 0.81541 0.65105 0.0
C2029 C 0.78918 0.80597 0.64253 0.0
C2030 C 0.79356 0.81109 0.62716 0.0
C2031 C 0.7894 0.8264 0.62079 0.0
C2032 C 0.79564 0.79144 0.64998 0.0
C2033 C 0.78023 0.77395 0.65727 0.0
C2034 C 0.817 0.795 0.65016 0.0
C2035 C 0.83461 0.81423 0.64395 0.0
C2036 C 0.84637 0.81154 0.63236 0.0
C2037 C 0.8629 0.82967 0.62647 0.0
C2038 C 0.8679 0.85058 0.63213 0.0
C2039 C 0.85644 0.85341 0.64376 0.0
C2040 C 0.83992 0.83535 0.64971 0.0
C2041 C 0.80662 0.71152 0.67377 0.0
C2042 C 0.82629 0.72002 0.68331 0.0
C2043 C 0.8003 0.72538 0.66747 0.0
C2044 C 0.81312 0.748 0.67106 0.0
C2045 C 0.83256 0.75645 0.68091 0.0
C2046 C 0.83913 0.74259 0.6869 0.0
C2047 C 0.80666 0.76292 0.66423 0.0
C2048 C 0.82207 0.78048 0.65698 0.0
C2049 C 0.78553 0.75988 0.66463 0.0
C2050 C 0.76893 0.74276 0.67313 0.0
C2051 C 0.77335 0.74153 0.68907 0.0
C2052 C 0.75772 0.72524 0.69697 0.0
C2053 C 0.73753 0.71018 0.68909 0.0
C2054 C 0.73291 0.71142 0.6733 0.0
C2055 C 0.7485 0.72766 0.66533 0.0
H2056 H 0.72545 0.69757 0.69523 0.0
H2057 H 0.88069 0.86458 0.62754 0.0
H2058 H 0.03495 0.84122 0.5998 0.0
H2059 H 1.00098 0.80988 0.60579 0.0
H2060 H 0.03369 0.807 0.64866 0.0
H2061 H 0.06762 0.83787 0.64244 0.0
H2062 H 0.00455 0.76702 0.63635 0.0
H2063 H 0.00536 0.83454 0.64781 0.0
H2064 H 0.00823 0.86919 0.64169 0.0
H2065 H 0.95365 0.83495 0.60685 0.0
H2066 H 0.95064 0.8001 0.61263 0.0
H2067 H 0.91753 0.71874 0.68388 0.0
H2068 H 0.95083 0.74315 0.67264 0.0
H2069 H 0.91315 0.74036 0.63057 0.0
H2070 H 0.87984 0.71622 0.64173 0.0
H2071 H 0.94374 0.78137 0.64042 0.0
H2072 H 0.94107 0.71319 0.63104 0.0
H2073 H 0.93806 0.67886 0.63812 0.0
H2074 H 0.99596 0.71443 0.66992 0.0
H2075 H 0.99914 0.749 0.66319 0.0
C2076 C 0.0349 0.8334 0.61025 0.0
C2077 C 0.05372 0.84167 0.62064 0.0
C2078 C 0.01551 0.81568 0.61374 0.0
C2079 C 0.01467 0.80631 0.62783 0.0
C2080 C 0.03389 0.81391 0.63774 0.0
C2081 C 0.05326 0.83151 0.63419 0.0
C2082 C 0.99364 0.78987 0.63293 0.0
C2083 C 0.99129 0.77021 0.63733 0.0
C2084 C 0.97617 0.79384 0.63399 0.0
C2085 C 0.97794 0.81476 0.63053 0.0
C2086 C 0.99408 0.83442 0.63876 0.0
C2087 C 0.99571 0.85409 0.63537 0.0
C2088 C 0.98117 0.85428 0.62385 0.0
C2089 C 0.96493 0.83478 0.61574 0.0
C2090 C 0.96324 0.81507 0.61908 0.0
C2091 C 0.91631 0.72327 0.67223 0.0
C2092 C 0.89597 0.71549 0.66373 0.0
C2093 C 0.93538 0.73714 0.66578 0.0
C2094 C 0.93451 0.74341 0.65069 0.0
C2095 C 0.91423 0.73572 0.64222 0.0
C2096 C 0.89518 0.72187 0.64863 0.0
C2097 C 0.95467 0.75856 0.64392 0.0
C2098 C 0.95687 0.77804 0.63927 0.0
C2099 C 0.972 0.75445 0.64272 0.0
C2100 C 0.97024 0.73369 0.6467 0.0
C2101 C 0.95307 0.7137 0.63962 0.0
C2102 C 0.95135 0.69419 0.64356 0.0
C2103 C 0.96678 0.69446 0.65449 0.0
C2104 C 0.98401 0.71425 0.66147 0.0
C2105 C 0.98579 0.7338 0.65758 0.0
H2106 H 0.96541 0.67934 0.65753 0.0
H2107 H 0.98246 0.86952 0.62124 0.0
H2108 H 0.165 0.23114 0.63749 0.0
H2109 H 0.1978 0.22919 0.6437 0.0
H2110 H 0.18423 0.18918 0.60022 0.0
H2111 H 0.15097 0.19078 0.59423 0.0
H2112 H 0.19281 0.17136 0.62325 0.0
H2113 H 0.22801 0.24242 0.6067 0.0
H2114 H 0.23681 0.28035 0.60535 0.0
H2115 H 0.2598 0.29514 0.65424 0.0
H2116 H 0.25085 0.25721 0.65594 0.0
H2117 H 0.2914 0.17029 0.63698 0.0
H2118 H 0.26401 0.17758 0.62521 0.0
H2119 H 0.26686 0.21295 0.66853 0.0
H2120 H 0.29441 0.20587 0.68041 0.0
H2121 H 0.26531 0.23365 0.64281 0.0
H2122 H 0.22687 0.16136 0.6593 0.0
H2123 H 0.21876 0.12356 0.66019 0.0
H2124 H 0.20241 0.11141 0.61039 0.0
H2125 H 0.21076 0.14927 0.60917 0.0
C2126 C 0.16936 0.22239 0.62912 0.0
C2127 C 0.15579 0.21132 0.61534 0.0
C2128 C 0.18812 0.2213 0.63263 0.0
C2129 C 0.1937 0.20923 0.62235 0.0
C2130 C 0.18033 0.19865 0.60831 0.0
C2131 C 0.16146 0.19967 0.60483 0.0
C2132 C 0.21243 0.20628 0.62695 0.0
C2133 C 0.20878 0.18503 0.6272 0.0
C2134 C 0.2332 0.22405 0.63243 0.0
C2135 C 0.23859 0.2469 0.63147 0.0
C2136 C 0.23478 0.25371 0.61719 0.0
C2137 C 0.23983 0.27522 0.61636 0.0
C2138 C 0.24882 0.29013 0.6297 0.0
C2139 C 0.25282 0.28357 0.64391 0.0
C2140 C 0.24779 0.26207 0.64481 0.0
C2141 C 0.28632 0.17972 0.64402 0.0
C2142 C 0.29504 0.18737 0.6597 0.0
C2143 C 0.27061 0.18383 0.63726 0.0
C2144 C 0.26322 0.19561 0.64604 0.0
C2145 C 0.27232 0.20381 0.66154 0.0
C2146 C 0.28801 0.19967 0.66834 0.0
C2147 C 0.24553 0.19882 0.63926 0.0
C2148 C 0.24938 0.22006 0.63865 0.0
C2149 C 0.22498 0.18107 0.63336 0.0
C2150 C 0.21966 0.15821 0.63412 0.0
C2151 C 0.2217 0.15067 0.64852 0.0
C2152 C 0.21704 0.12923 0.64909 0.0
C2153 C 0.21013 0.11511 0.63535 0.0
C2154 C 0.2078 0.12238 0.62102 0.0
C2155 C 0.21248 0.14383 0.62039 0.0
H2156 H 0.20654 0.09851 0.63582 0.0
H2157 H 0.25272 0.30678 0.62903 0.0
H2158 H 0.82941 0.96227 0.63749 0.0
H2159 H 0.83939 1.0006 0.64134 0.0
H2160 H 0.7718 0.98198 0.63521 0.0
H2161 H 0.76182 0.94351 0.63136 0.0
H2162 H 0.8013 0.02235 0.62203 0.0
H2163 H 0.79162 0.98795 0.67019 0.0
H2164 H 0.79801 0.9665 0.68907 0.0
H2165 H 0.86615 0.01307 0.69425 0.0
H2166 H 0.86019 0.03463 0.6752 0.0
H2167 H 0.80665 0.11294 0.66718 0.0
H2168 H 0.79783 0.07718 0.65497 0.0
H2169 H 0.86366 0.09247 0.66729 0.0
H2170 H 0.87253 0.12816 0.67946 0.0
H2171 H 0.83509 0.05393 0.67621 0.0
H2172 H 0.84662 0.08841 0.629 0.0
H2173 H 0.84252 0.11045 0.60959 0.0
H2174 H 0.77395 0.06591 0.60246 0.0
H2175 H 0.77768 0.04337 0.62179 0.0
C2176 C 0.81678 0.96648 0.63651 0.0
C2177 C 0.79493 0.95022 0.63411 0.0
C2178 C 0.82246 0.98829 0.63874 0.0
C2179 C 0.80631 0.99406 0.63868 0.0
C2180 C 0.78448 0.97783 0.63523 0.0
C2181 C 0.77879 0.95595 0.63305 0.0
C2182 C 0.81212 0.01654 0.6442 0.0
C2183 C 0.80845 0.02922 0.63391 0.0
C2184 C 0.82191 0.02561 0.6596 0.0
C2185 C 0.82549 0.01277 0.67116 0.0
C2186 C 0.80799 0.99352 0.67526 0.0
C2187 C 0.81153 0.98135 0.68601 0.0
C2188 C 0.83248 0.98838 0.69283 0.0
C2189 C 0.84994 0.00763 0.68894 0.0
C2190 C 0.84648 0.01983 0.67818 0.0
C2191 C 0.81927 0.10874 0.66709 0.0
C2192 C 0.84024 0.12324 0.67429 0.0
C2193 C 0.81425 0.08837 0.66007 0.0
C2194 C 0.83013 0.08222 0.66016 0.0
C2195 C 0.85117 0.09688 0.66711 0.0
C2196 C 0.8562 0.11723 0.67408 0.0
C2197 C 0.82444 0.05994 0.65405 0.0
C2198 C 0.82801 0.04718 0.66429 0.0
C2199 C 0.81481 0.05097 0.6386 0.0
C2200 C 0.8124 0.06433 0.62695 0.0
C2201 C 0.83064 0.08338 0.62337 0.0
C2202 C 0.82839 0.09595 0.61236 0.0
C2203 C 0.80798 0.08973 0.60488 0.0
C2204 C 0.78976 0.07075 0.6083 0.0
C2205 C 0.79194 0.058 0.61923 0.0
H2206 H 0.80629 0.09958 0.5964 0.0
H2207 H 0.83519 0.97895 0.70115 0.0
H2208 H 0.53552 0.39001 0.72606 0.0
H2209 H 0.50773 0.35169 0.71976 0.0
H2210 H 0.45823 0.36687 0.73044 0.0
H2211 H 0.48619 0.4054 0.73674 0.0
H2212 H 0.45147 0.32554 0.74032 0.0
H2213 H 0.46548 0.36476 0.6947 0.0
H2214 H 0.48859 0.3892 0.67619 0.0
H2215 H 0.51285 0.34612 0.66556 0.0
H2216 H 0.49012 0.32157 0.6842 0.0
H2217 H 0.36405 0.23238 0.69387 0.0
H2218 H 0.38986 0.26901 0.70628 0.0
H2219 H 0.44297 0.26175 0.69208 0.0
H2220 H 0.4173 0.22517 0.67974 0.0
H2221 H 0.44654 0.29952 0.68463 0.0
H2222 H 0.43408 0.26083 0.73014 0.0
H2223 H 0.41212 0.23612 0.74892 0.0
H2224 H 0.38531 0.27695 0.75964 0.0
H2225 H 0.4072 0.30197 0.74089 0.0
C2226 C 0.51875 0.38502 0.72742 0.0
C2227 C 0.51282 0.40038 0.73188 0.0
C2228 C 0.50292 0.36321 0.7238 0.0
C2229 C 0.48093 0.35652 0.72451 0.0
C2230 C 0.47512 0.37173 0.72987 0.0
C2231 C 0.49102 0.39364 0.73344 0.0
C2232 C 0.4641 0.33421 0.71812 0.0
C2233 C 0.45014 0.31989 0.72811 0.0
C2234 C 0.46267 0.32679 0.70225 0.0
C2235 C 0.47626 0.34145 0.69096 0.0
C2236 C 0.47589 0.3606 0.68852 0.0
C2237 C 0.48889 0.37445 0.67799 0.0
C2238 C 0.50223 0.36924 0.66974 0.0
C2239 C 0.50254 0.35014 0.67198 0.0
C2240 C 0.48959 0.33625 0.68251 0.0
C2241 C 0.38125 0.23855 0.69355 0.0
C2242 C 0.38872 0.22598 0.68587 0.0
C2243 C 0.39596 0.25943 0.70068 0.0
C2244 C 0.41834 0.26805 0.70019 0.0
C2245 C 0.42578 0.25541 0.69259 0.0
C2246 C 0.41111 0.23454 0.68555 0.0
C2247 C 0.43404 0.29063 0.70685 0.0
C2248 C 0.44777 0.3051 0.69685 0.0
C2249 C 0.43526 0.29807 0.7227 0.0
C2250 C 0.4221 0.28314 0.734 0.0
C2251 C 0.42338 0.26445 0.73642 0.0
C2252 C 0.41097 0.25041 0.74708 0.0
C2253 C 0.3972 0.25487 0.75541 0.0
C2254 C 0.39594 0.27348 0.75316 0.0
C2255 C 0.4084 0.28764 0.74255 0.0
H2256 H 0.38758 0.24396 0.76364 0.0
H2257 H 0.51228 0.37999 0.66159 0.0
H2258 H 0.61277 0.10753 0.72638 0.0
H2259 H 0.64646 0.10924 0.7201 0.0
H2260 H 0.6792 0.14932 0.76351 0.0
H2261 H 0.64538 0.14801 0.76954 0.0
H2262 H 0.70189 0.16733 0.74092 0.0
H2263 H 0.67021 0.09628 0.75651 0.0
H2264 H 0.64223 0.05816 0.75804 0.0
H2265 H 0.64219 0.04366 0.7089 0.0
H2266 H 0.66996 0.08178 0.70702 0.0
H2267 H 0.79927 0.17067 0.72394 0.0
H2268 H 0.7667 0.1616 0.73673 0.0
H2269 H 0.72711 0.12803 0.69339 0.0
H2270 H 0.75969 0.13679 0.68047 0.0
H2271 H 0.70977 0.10589 0.71923 0.0
H2272 H 0.73935 0.17953 0.70437 0.0
H2273 H 0.76872 0.21748 0.70425 0.0
H2274 H 0.77385 0.22629 0.75444 0.0
H2275 H 0.74471 0.18827 0.75482 0.0
C2276 C 0.62705 0.11619 0.73475 0.0
C2277 C 0.6266 0.12742 0.74849 0.0
C2278 C 0.6463 0.11714 0.73119 0.0
C2279 C 0.66543 0.12923 0.74139 0.0
C2280 C 0.66469 0.13983 0.75547 0.0
C2281 C 0.64539 0.13896 0.75898 0.0
C2282 C 0.68643 0.13246 0.73656 0.0
C2283 C 0.70369 0.15381 0.7365 0.0
C2284 C 0.68885 0.11493 0.73058 0.0
C2285 C 0.67207 0.09196 0.73161 0.0
C2286 C 0.66411 0.08501 0.746 0.0
C2287 C 0.64831 0.06339 0.74693 0.0
C2288 C 0.6404 0.04851 0.73357 0.0
C2289 C 0.64832 0.05522 0.71924 0.0
C2290 C 0.66412 0.07683 0.71824 0.0
C2291 C 0.78366 0.1612 0.71711 0.0
C2292 C 0.78215 0.1546 0.70111 0.0
C2293 C 0.76504 0.15606 0.72446 0.0
C2294 C 0.74448 0.14436 0.71598 0.0
C2295 C 0.74283 0.1371 0.70016 0.0
C2296 C 0.76148 0.14221 0.69277 0.0
C2297 C 0.72482 0.14065 0.72336 0.0
C2298 C 0.70789 0.11928 0.72386 0.0
C2299 C 0.72278 0.15812 0.72995 0.0
C2300 C 0.73997 0.18107 0.72964 0.0
C2301 C 0.74681 0.18955 0.71538 0.0
C2302 C 0.76342 0.21106 0.71525 0.0
C2303 C 0.77317 0.22428 0.72933 0.0
C2304 C 0.76629 0.21604 0.74355 0.0
C2305 C 0.74973 0.19453 0.74372 0.0
H2306 H 0.78603 0.24092 0.72921 0.0
H2307 H 0.62817 0.03177 0.73432 0.0
H2308 H 0.92651 0.53568 0.73033 0.0
H2309 H 0.91442 0.5616 0.72448 0.0
H2310 H 0.85159 0.50823 0.70596 0.0
H2311 H 0.86373 0.48247 0.71176 0.0
H2312 H 0.86928 0.53833 0.6855 0.0
H2313 H 0.85739 0.53767 0.73975 0.0
H2314 H 0.86689 0.54123 0.7682 0.0
H2315 H 0.91595 0.60784 0.7668 0.0
H2316 H 0.90697 0.60459 0.73827 0.0
H2317 H 0.81321 0.59511 0.6723 0.0
H2318 H 0.82477 0.57079 0.68261 0.0
H2319 H 0.887 0.62598 0.69993 0.0
H2320 H 0.87551 0.65041 0.68957 0.0
H2321 H 0.87045 0.59593 0.72148 0.0
H2322 H 0.88307 0.59657 0.66745 0.0
H2323 H 0.87373 0.59342 0.639 0.0
H2324 H 0.8238 0.52707 0.64008 0.0
H2325 H 0.83264 0.52992 0.6686 0.0
C2326 C 0.90999 0.5296 0.72535 0.0
C2327 C 0.89591 0.50727 0.72154 0.0
C2328 C 0.90309 0.54434 0.72202 0.0
C2329 C 0.88208 0.53682 0.71481 0.0
C2330 C 0.86785 0.51437 0.71152 0.0
C2331 C 0.87472 0.49969 0.71489 0.0
C2332 C 0.87547 0.55227 0.70944 0.0
C2333 C 0.86923 0.55071 0.69342 0.0
C2334 C 0.87609 0.56887 0.7197 0.0
C2335 C 0.88168 0.5708 0.73683 0.0
C2336 C 0.87037 0.55301 0.74547 0.0
C2337 C 0.87562 0.55499 0.76162 0.0
C2338 C 0.89206 0.57472 0.7693 0.0
C2339 C 0.90325 0.59254 0.76083 0.0
C2340 C 0.89808 0.59064 0.74467 0.0
C2341 C 0.82936 0.60204 0.67828 0.0
C2342 C 0.84348 0.6246 0.68015 0.0
C2343 C 0.83594 0.58815 0.68417 0.0
C2344 C 0.85679 0.59659 0.69195 0.0
C2345 C 0.87083 0.61916 0.694 0.0
C2346 C 0.86427 0.63306 0.68806 0.0
C2347 C 0.86403 0.58175 0.6976 0.0
C2348 C 0.87049 0.5835 0.71361 0.0
C2349 C 0.8637 0.56533 0.68735 0.0
C2350 C 0.85838 0.56353 0.67019 0.0
C2351 C 0.86998 0.58136 0.66165 0.0
C2352 C 0.86479 0.57962 0.6455 0.0
C2353 C 0.84814 0.56008 0.63774 0.0
C2354 C 0.83668 0.54221 0.64611 0.0
C2355 C 0.84178 0.54387 0.66226 0.0
H2356 H 0.84416 0.55876 0.62524 0.0
H2357 H 0.89608 0.57623 0.78181 0.0
H2358 H 0.434 0.93443 0.23644 0.0
H2359 H 0.44332 0.94633 0.21057 0.0
H2360 H 0.46257 0.89841 0.20198 0.0
H2361 H 0.45345 0.88655 0.22802 0.0
H2362 H 0.49113 0.93527 0.19245 0.0
H2363 H 0.41443 0.89169 0.18461 0.0
H2364 H 0.37645 0.87847 0.1895 0.0
H2365 H 0.38391 0.94069 0.18184 0.0
H2366 H 0.42207 0.95443 0.17715 0.0
H2367 H 0.49545 0.94869 0.11054 0.0
H2368 H 0.48314 0.93195 0.13479 0.0
H2369 H 0.47542 0.98572 0.15134 0.0
H2370 H 0.48794 0.00264 0.12719 0.0
H2371 H 0.43985 0.94305 0.15557 0.0
H2372 H 0.51809 0.9863 0.165 0.0
H2373 H 0.55529 0.99765 0.1589 0.0
H2374 H 0.5433 0.93281 0.16222 0.0
H2375 H 0.50588 0.92099 0.16811 0.0
C2376 C 0.44003 0.92628 0.22899 0.0
C2377 C 0.44284 0.90943 0.23424 0.0
C2378 C 0.44533 0.93308 0.21418 0.0
C2379 C 0.4533 0.92303 0.20418 0.0
C2380 C 0.45639 0.90638 0.20946 0.0
C2381 C 0.45122 0.89965 0.22435 0.0
C2382 C 0.45884 0.9303 0.18839 0.0
C2383 C 0.47975 0.9366 0.18431 0.0
C2384 C 0.44412 0.93229 0.17776 0.0
C2385 C 0.4212 0.92416 0.18068 0.0
C2386 C 0.40805 0.90263 0.18411 0.0
C2387 C 0.38647 0.89503 0.18683 0.0
C2388 C 0.37779 0.90875 0.18602 0.0
C2389 C 0.39067 0.93009 0.18248 0.0
C2390 C 0.41227 0.93779 0.17979 0.0
C2391 C 0.49095 0.95683 0.1193 0.0
C2392 C 0.49271 0.97699 0.11704 0.0
C2393 C 0.48401 0.9473 0.13314 0.0
C2394 C 0.47847 0.95767 0.14486 0.0
C2395 C 0.47963 0.97749 0.14243 0.0
C2396 C 0.48688 0.98718 0.1287 0.0
C2397 C 0.4721 0.94821 0.15986 0.0
C2398 C 0.45108 0.94152 0.16374 0.0
C2399 C 0.48658 0.94557 0.1702 0.0
C2400 C 0.50912 0.95271 0.16682 0.0
C2401 C 0.52333 0.97442 0.1643 0.0
C2402 C 0.54446 0.98095 0.1609 0.0
C2403 C 0.55164 0.96594 0.16013 0.0
C2404 C 0.53771 0.9444 0.1628 0.0
C2405 C 0.51654 0.93778 0.16617 0.0
H2406 H 0.56801 0.97103 0.1575 0.0
H2407 H 0.36107 0.90282 0.18811 0.0
H2408 H 0.1148 0.56955 0.24721 0.0
H2409 H 0.10374 0.56787 0.21944 0.0
H2410 H 0.06112 0.49862 0.21816 0.0
H2411 H 0.07222 0.50019 0.24585 0.0
H2412 H 0.08311 0.50781 0.19337 0.0
H2413 H 0.04175 0.53428 0.21909 0.0
H2414 H 0.03613 0.55883 0.23708 0.0
H2415 H 0.07598 0.61268 0.2118 0.0
H2416 H 0.08209 0.58849 0.19378 0.0
H2417 H 0.01506 0.48851 0.12355 0.0
H2418 H 0.0298 0.49238 0.15072 0.0
H2419 H 0.07507 0.5601 0.14744 0.0
H2420 H 0.06022 0.55638 0.12028 0.0
H2421 H 0.05362 0.55317 0.17413 0.0
H2422 H 0.09313 0.52541 0.14747 0.0
H2423 H 0.09758 0.50006 0.12945 0.0
H2424 H 0.05976 0.44764 0.15652 0.0
H2425 H 0.0548 0.47261 0.17459 0.0
C2426 C 0.10294 0.554 0.24103 0.0
C2427 C 0.09438 0.535 0.24871 0.0
C2428 C 0.09665 0.55306 0.22516 0.0
C2429 C 0.08146 0.53314 0.21674 0.0
C2430 C 0.07293 0.51416 0.2244 0.0
C2431 C 0.0793 0.51507 0.24022 0.0
C2432 C 0.07451 0.53197 0.19992 0.0
C2433 C 0.07644 0.51756 0.18919 0.0
C2434 C 0.06626 0.54505 0.1944 0.0
C2435 C 0.06257 0.55961 0.2052 0.0
C2436 C 0.04946 0.55139 0.21745 0.0
C2437 C 0.04616 0.56523 0.22764 0.0
C2438 C 0.05574 0.58731 0.22561 0.0
C2439 C 0.0686 0.59558 0.21337 0.0
C2440 C 0.07197 0.58181 0.20316 0.0
C2441 C 0.02817 0.50422 0.12862 0.0
C2442 C 0.0365 0.52215 0.1198 0.0
C2443 C 0.03666 0.50637 0.1441 0.0
C2444 C 0.05361 0.5265 0.15105 0.0
C2445 C 0.06203 0.54442 0.14227 0.0
C2446 C 0.05365 0.54223 0.12674 0.0
C2447 C 0.06208 0.52891 0.16765 0.0
C2448 C 0.06042 0.54353 0.17831 0.0
C2449 C 0.07042 0.51592 0.17312 0.0
C2450 C 0.07343 0.50086 0.16231 0.0
C2451 C 0.08561 0.50844 0.14951 0.0
C2452 C 0.08825 0.49414 0.1393 0.0
C2453 C 0.07892 0.47224 0.14181 0.0
C2454 C 0.06696 0.4646 0.15457 0.0
C2455 C 0.06425 0.47883 0.16481 0.0
H2456 H 0.08099 0.4612 0.13389 0.0
H2457 H 0.05317 0.59801 0.23351 0.0
H2458 H 0.49267 0.55418 0.24856 0.0
H2459 H 0.4981 0.54464 0.22213 0.0
H2460 H 0.43534 0.53414 0.20494 0.0
H2461 H 0.42973 0.5435 0.23151 0.0
H2462 H 0.44531 0.50505 0.18965 0.0
H2463 H 0.47825 0.58194 0.20265 0.0
H2464 H 0.50112 0.61655 0.21914 0.0
H2465 H 0.55708 0.60999 0.21419 0.0
H2466 H 0.53445 0.57511 0.19789 0.0
H2467 H 0.47058 0.52343 0.11031 0.0
H2468 H 0.45908 0.52395 0.1365 0.0
H2469 H 0.5219 0.53827 0.15706 0.0
H2470 H 0.53343 0.53765 0.131 0.0
H2471 H 0.51013 0.56513 0.17027 0.0
H2472 H 0.47692 0.48796 0.15718 0.0
H2473 H 0.45376 0.45316 0.14098 0.0
H2474 H 0.39817 0.46043 0.14573 0.0
H2475 H 0.42107 0.49544 0.16181 0.0
C2476 C 0.47986 0.54945 0.23919 0.0
C2477 C 0.4609 0.54985 0.24203 0.0
C2478 C 0.48298 0.54401 0.22411 0.0
C2479 C 0.46732 0.53913 0.21152 0.0
C2480 C 0.44766 0.53794 0.21448 0.0
C2481 C 0.44446 0.54326 0.22965 0.0
C2482 C 0.47247 0.53743 0.19521 0.0
C2483 C 0.45932 0.51825 0.18532 0.0
C2484 C 0.49088 0.55461 0.18963 0.0
C2485 C 0.50462 0.57581 0.19916 0.0
C2486 C 0.49541 0.58781 0.20516 0.0
C2487 C 0.50833 0.60747 0.21447 0.0
C2488 C 0.53053 0.61544 0.21774 0.0
C2489 C 0.53987 0.60378 0.21166 0.0
C2490 C 0.52701 0.58407 0.20238 0.0
C2491 C 0.48183 0.52639 0.12041 0.0
C2492 C 0.50298 0.53062 0.11855 0.0
C2493 C 0.47524 0.52669 0.13537 0.0
C2494 C 0.4896 0.53106 0.14876 0.0
C2495 C 0.51057 0.53496 0.14691 0.0
C2496 C 0.51717 0.53469 0.13199 0.0
C2497 C 0.48323 0.53256 0.16472 0.0
C2498 C 0.49612 0.55186 0.17455 0.0
C2499 C 0.46456 0.51552 0.17016 0.0
C2500 C 0.45075 0.49443 0.16056 0.0
C2501 C 0.45979 0.48223 0.15467 0.0
C2502 C 0.4467 0.46244 0.14553 0.0
C2503 C 0.42452 0.45462 0.14229 0.0
C2504 C 0.41536 0.46653 0.14823 0.0
C2505 C 0.42839 0.48633 0.15737 0.0
H2506 H 0.41441 0.4393 0.13521 0.0
H2507 H 0.5405 0.63066 0.22496 0.0
H2508 H 0.88869 0.43248 0.78373 0.0
H2509 H 0.89953 0.44247 0.81176 0.0
H2510 H 0.95279 0.5042 0.80253 0.0
H2511 H 0.94246 0.49395 0.77437 0.0
H2512 H 0.96648 0.48531 0.82196 0.0
H2513 H 0.90919 0.50096 0.81988 0.0
H2514 H 0.87242 0.49474 0.81303 0.0
H2515 H 0.84592 0.44006 0.84004 0.0
H2516 H 0.88251 0.44575 0.84687 0.0
H2517 H 0.99551 0.51694 0.90379 0.0
H2518 H 0.98253 0.517 0.87678 0.0
H2519 H 0.9305 0.45107 0.8773 0.0
H2520 H 0.94327 0.45097 0.90433 0.0
H2521 H 0.91736 0.47732 0.86262 0.0
H2522 H 0.9746 0.45968 0.86163 0.0
H2523 H 0.01152 0.4662 0.86837 0.0
H2524 H 0.0382 0.5259 0.84689 0.0
H2525 H 0.00141 0.51986 0.84022 0.0
C2526 C 0.90263 0.44825 0.78766 0.0
C2527 C 0.91479 0.46236 0.77681 0.0
C2528 C 0.90868 0.45405 0.80371 0.0
C2529 C 0.92689 0.47418 0.80929 0.0
C2530 C 0.93864 0.48862 0.7985 0.0
C2531 C 0.93261 0.48281 0.78242 0.0
C2532 C 0.93462 0.47922 0.82625 0.0
C2533 C 0.95586 0.48406 0.83083 0.0
C2534 C 0.92068 0.4772 0.83786 0.0
C2535 C 0.89861 0.4737 0.8338 0.0
C2536 C 0.89551 0.4875 0.82426 0.0
C2537 C 0.8747 0.48409 0.8204 0.0
C2538 C 0.85684 0.46699 0.82607 0.0
C2539 C 0.85977 0.45329 0.83565 0.0
C2540 C 0.88055 0.45662 0.83954 0.0
C2541 C 0.98111 0.50259 0.89822 0.0
C2542 C 0.97048 0.48389 0.90612 0.0
C2543 C 0.97378 0.50261 0.88278 0.0
C2544 C 0.95566 0.48398 0.87502 0.0
C2545 C 0.94452 0.46561 0.88309 0.0
C2546 C 0.95192 0.46551 0.89847 0.0
C2547 C 0.94902 0.48307 0.85821 0.0
C2548 C 0.92801 0.47895 0.85369 0.0
C2549 C 0.96318 0.48585 0.84664 0.0
C2550 C 0.98528 0.48945 0.8506 0.0
C2551 C 0.98835 0.47429 0.85847 0.0
C2552 C 0.00925 0.47788 0.86225 0.0
C2553 C 0.0272 0.49649 0.85811 0.0
C2554 C 0.02428 0.51152 0.85013 0.0
C2555 C 0.00341 0.50801 0.84634 0.0
H2556 H 0.04337 0.49924 0.86104 0.0
H2557 H 0.84073 0.46438 0.82307 0.0
H2558 H 0.54867 0.43998 0.78758 0.0
H2559 H 0.53903 0.4409 0.81431 0.0
H2560 H 0.57092 0.51082 0.81736 0.0
H2561 H 0.58031 0.51005 0.79061 0.0
H2562 H 0.58095 0.49669 0.84375 0.0
H2563 H 0.51657 0.48063 0.81092 0.0
H2564 H 0.48674 0.45985 0.78995 0.0
H2565 H 0.46443 0.40256 0.81405 0.0
H2566 H 0.49433 0.42295 0.83506 0.0
H2567 H 0.53393 0.52095 0.90678 0.0
H2568 H 0.54645 0.51671 0.88165 0.0
H2569 H 0.51273 0.44719 0.88286 0.0
H2570 H 0.50005 0.45134 0.90799 0.0
H2571 H 0.50402 0.45872 0.85483 0.0
H2572 H 0.5663 0.47473 0.88852 0.0
H2573 H 0.59702 0.4942 0.909 0.0
H2574 H 0.62383 0.55035 0.88347 0.0
H2575 H 0.59304 0.53138 0.86296 0.0
C2576 C 0.55351 0.45555 0.79389 0.0
C2577 C 0.56526 0.47494 0.78691 0.0
C2578 C 0.54805 0.45605 0.80919 0.0
C2579 C 0.55414 0.47593 0.81779 0.0
C2580 C 0.56614 0.4953 0.81096 0.0
C2581 C 0.57156 0.49483 0.79567 0.0
C2582 C 0.5478 0.47662 0.83385 0.0
C2583 C 0.56412 0.48861 0.84617 0.0
C2584 C 0.52588 0.46549 0.83705 0.0
C2585 C 0.50782 0.45325 0.82447 0.0
C2586 C 0.50541 0.46356 0.81168 0.0
C2587 C 0.48847 0.45186 0.7998 0.0
C2588 C 0.47374 0.42988 0.80064 0.0
C2589 C 0.47587 0.41958 0.8134 0.0
C2590 C 0.4928 0.4312 0.8253 0.0
C2591 C 0.52925 0.50477 0.90171 0.0
C2592 C 0.51597 0.48647 0.90933 0.0
C2593 C 0.53655 0.50238 0.88741 0.0
C2594 C 0.53062 0.48164 0.88042 0.0
C2595 C 0.51754 0.46335 0.88808 0.0
C2596 C 0.51042 0.46575 0.90246 0.0
C2597 C 0.53717 0.47905 0.86475 0.0
C2598 C 0.52087 0.46672 0.85247 0.0
C2599 C 0.55913 0.48983 0.86161 0.0
C2600 C 0.57721 0.50167 0.87425 0.0
C2601 C 0.57856 0.49134 0.88737 0.0
C2602 C 0.59603 0.50227 0.89897 0.0
C2603 C 0.61236 0.52349 0.89754 0.0
C2604 C 0.61116 0.53391 0.88458 0.0
C2605 C 0.59369 0.52308 0.87296 0.0
H2606 H 0.62602 0.53178 0.90642 0.0
H2607 H 0.46063 0.42085 0.79143 0.0
H2608 H 0.57931 0.11976 0.80453 0.0
H2609 H 0.57329 0.10465 0.82983 0.0
H2610 H 0.51274 0.04967 0.8093 0.0
H2611 H 0.51854 0.06494 0.78416 0.0
H2612 H 0.50662 0.06641 0.83492 0.0
H2613 H 0.55849 0.04581 0.82088 0.0
H2614 H 0.59333 0.05177 0.81266 0.0
H2615 H 0.62719 0.09614 0.85377 0.0
H2616 H 0.59256 0.09067 0.86214 0.0
H2617 H 0.47984 0.00091 0.89711 0.0
H2618 H 0.49124 0.01482 0.87205 0.0
H2619 H 0.54821 0.07075 0.89591 0.0
H2620 H 0.53724 0.05657 0.9211 0.0
H2621 H 0.5574 0.05478 0.86933 0.0
H2622 H 0.50557 0.07527 0.88324 0.0
H2623 H 0.47072 0.06923 0.89151 0.0
H2624 H 0.43686 0.02496 0.85035 0.0
H2625 H 0.4715 0.0305 0.84194 0.0
C2626 C 0.56497 0.10422 0.80537 0.0
C2627 C 0.54934 0.09357 0.79242 0.0
C2628 C 0.56152 0.09559 0.81983 0.0
C2629 C 0.54254 0.07598 0.82151 0.0
C2630 C 0.52743 0.06488 0.80836 0.0
C2631 C 0.53077 0.07359 0.79399 0.0
C2632 C 0.53749 0.06777 0.83712 0.0
C2633 C 0.51763 0.06356 0.84231 0.0
C2634 C 0.55211 0.06472 0.84705 0.0
C2635 C 0.57294 0.068 0.84205 0.0
C2636 C 0.57338 0.05698 0.8281 0.0
C2637 C 0.59309 0.06024 0.82343 0.0
C2638 C 0.61247 0.07437 0.83266 0.0
C2639 C 0.61217 0.08522 0.84662 0.0
C2640 C 0.5925 0.08203 0.85134 0.0
C2641 C 0.49497 0.01601 0.89705 0.0
C2642 C 0.50759 0.02764 0.91115 0.0
C2643 C 0.50137 0.02404 0.88271 0.0
C2644 C 0.52045 0.04396 0.88211 0.0
C2645 C 0.53339 0.05538 0.8961 0.0
C2646 C 0.52699 0.04735 0.91049 0.0
C2647 C 0.52642 0.05308 0.8669 0.0
C2648 C 0.54644 0.0576 0.86187 0.0
C2649 C 0.51197 0.05642 0.85705 0.0
C2650 C 0.49112 0.05316 0.86204 0.0
C2651 C 0.49068 0.06413 0.87601 0.0
C2652 C 0.47096 0.06081 0.88072 0.0
C2653 C 0.45158 0.04668 0.87148 0.0
C2654 C 0.45188 0.03588 0.8575 0.0
C2655 C 0.47155 0.03912 0.85275 0.0
H2656 H 0.43633 0.04414 0.87514 0.0
H2657 H 0.62771 0.07688 0.82902 0.0
H2658 H 0.14191 0.25493 0.57325 0.0
H2659 H 0.1537 0.26876 0.54823 0.0
H2660 H 0.08699 0.24138 0.5294 0.0
H2661 H 0.07508 0.22591 0.55377 0.0
H2662 H 0.10615 0.23546 0.50818 0.0
H2663 H 0.1226 0.29793 0.54246 0.0
H2664 H 0.13871 0.32409 0.5661 0.0
H2665 H 0.20248 0.34013 0.55511 0.0
H2666 H 0.18672 0.31385 0.5315 0.0
H2667 H 0.15677 0.33468 0.45795 0.0
H2668 H 0.14328 0.3188 0.48215 0.0
H2669 H 0.15404 0.26587 0.46894 0.0
H2670 H 0.16757 0.28174 0.4447 0.0
H2671 H 0.16228 0.31245 0.50606 0.0
H2672 H 0.11887 0.22075 0.48342 0.0
H2673 H 0.09528 0.19564 0.4606 0.0
H2674 H 0.07543 0.24122 0.44859 0.0
H2675 H 0.09911 0.2667 0.4712 0.0
C2676 C 0.1297 0.25152 0.56373 0.0
C2677 C 0.10748 0.23942 0.56571 0.0
C2678 C 0.1365 0.25976 0.54945 0.0
C2679 C 0.12128 0.25654 0.53693 0.0
C2680 C 0.09913 0.24423 0.53883 0.0
C2681 C 0.09232 0.23564 0.55295 0.0
C2682 C 0.12824 0.26585 0.52182 0.0
C2683 C 0.1185 0.2523 0.50777 0.0
C2684 C 0.14393 0.28797 0.52112 0.0
C2685 C 0.15347 0.30376 0.53531 0.0
C2686 C 0.14005 0.30692 0.54516 0.0
C2687 C 0.14912 0.32178 0.55853 0.0
C2688 C 0.1716 0.33372 0.56213 0.0
C2689 C 0.18507 0.33085 0.55233 0.0
C2690 C 0.17608 0.31598 0.53894 0.0
C2691 C 0.1563 0.31967 0.46022 0.0
C2692 C 0.16326 0.30947 0.44943 0.0
C2693 C 0.14853 0.31057 0.47404 0.0
C2694 C 0.14751 0.29105 0.47738 0.0
C2695 C 0.15431 0.28074 0.46655 0.0
C2696 C 0.16208 0.28984 0.4527 0.0
C2697 C 0.1402 0.28202 0.49248 0.0
C2698 C 0.15001 0.2956 0.50652 0.0
C2699 C 0.12387 0.2602 0.49315 0.0
C2700 C 0.1109 0.24568 0.47891 0.0
C2701 C 0.1096 0.22547 0.47582 0.0
C2702 C 0.09622 0.21118 0.46294 0.0
C2703 C 0.08385 0.21683 0.45317 0.0
C2704 C 0.08505 0.23689 0.45616 0.0
C2705 C 0.09859 0.25134 0.46892 0.0
H2706 H 0.07334 0.20566 0.44329 0.0
H2707 H 0.17859 0.34522 0.57249 0.0
H2708 H 0.78923 0.90307 0.58202 0.0
H2709 H 0.77899 0.90119 0.55407 0.0
H2710 H 0.72704 0.83526 0.55498 0.0
H2711 H 0.73736 0.837 0.58287 0.0
H2712 H 0.74754 0.83825 0.52991 0.0
H2713 H 0.71774 0.87836 0.55436 0.0
H2714 H 0.71842 0.90773 0.57145 0.0
H2715 H 0.76448 0.95529 0.54453 0.0
H2716 H 0.7643 0.92619 0.5274 0.0
H2717 H 0.68063 0.82749 0.46119 0.0
H2718 H 0.69565 0.83075 0.48823 0.0
H2719 H 0.75169 0.89172 0.4812 0.0
H2720 H 0.7368 0.88843 0.45405 0.0
H2721 H 0.73145 0.89253 0.50871 0.0
H2722 H 0.7587 0.851 0.48307 0.0
H2723 H 0.75622 0.82083 0.46585 0.0
H2724 H 0.71294 0.77491 0.49506 0.0
H2725 H 0.71483 0.80481 0.51231 0.0
C2726 C 0.77553 0.88824 0.57627 0.0
C2727 C 0.76407 0.8702 0.58464 0.0
C2728 C 0.7697 0.88717 0.5603 0.0
C2729 C 0.75211 0.86814 0.55244 0.0
C2730 C 0.74072 0.85009 0.56077 0.0
C2731 C 0.74663 0.8511 0.5767 0.0
C2732 C 0.7455 0.867 0.53554 0.0
C2733 C 0.74381 0.85 0.52532 0.0
C2734 C 0.74108 0.88259 0.52945 0.0
C2735 C 0.74119 0.90011 0.53971 0.0
C2736 C 0.72815 0.89509 0.55216 0.0
C2737 C 0.72842 0.91169 0.56184 0.0
C2738 C 0.74154 0.93337 0.5591 0.0
C2739 C 0.75436 0.93849 0.54665 0.0
C2740 C 0.75417 0.92195 0.53695 0.0
C2741 C 0.6962 0.84152 0.46541 0.0
C2742 C 0.70759 0.8577 0.45558 0.0
C2743 C 0.70479 0.84332 0.4808 0.0
C2744 C 0.7248 0.86144 0.48666 0.0
C2745 C 0.73625 0.87761 0.47686 0.0
C2746 C 0.72781 0.87565 0.46137 0.0
C2747 C 0.73334 0.86373 0.5032 0.0
C2748 C 0.73535 0.88091 0.51333 0.0
C2749 C 0.73783 0.84819 0.50922 0.0
C2750 C 0.73674 0.83016 0.49891 0.0
C2751 C 0.74849 0.83446 0.48575 0.0
C2752 C 0.74722 0.81741 0.47599 0.0
C2753 C 0.73439 0.79596 0.47934 0.0
C2754 C 0.72285 0.79153 0.49247 0.0
C2755 C 0.72402 0.80853 0.50225 0.0
H2756 H 0.73342 0.78277 0.47178 0.0
H2757 H 0.74172 0.94619 0.56661 0.0
H2758 H 0.09889 0.87756 0.56463 0.0
H2759 H 0.10433 0.86802 0.5381 0.0
H2760 H 0.16642 0.87687 0.55538 0.0
H2761 H 0.16112 0.88656 0.5818 0.0
H2762 H 0.17026 0.89976 0.53141 0.0
H2763 H 0.12263 0.82623 0.54221 0.0
H2764 H 0.08905 0.79593 0.54996 0.0
H2765 H 0.05201 0.80252 0.51169 0.0
H2766 H 0.08535 0.83307 0.50383 0.0
H2767 H 0.19944 0.86497 0.46408 0.0
H2768 H 0.18825 0.86672 0.49005 0.0
H2769 H 0.12745 0.85769 0.46943 0.0
H2770 H 0.13812 0.85487 0.44327 0.0
H2771 H 0.12142 0.83485 0.49447 0.0
H2772 H 0.16845 0.90809 0.4837 0.0
H2773 H 0.20172 0.93864 0.4758 0.0
H2774 H 0.23941 0.93308 0.51414 0.0
H2775 H 0.2064 0.90228 0.52214 0.0
C2776 C 0.11343 0.87693 0.5628 0.0
C2777 C 0.12966 0.88295 0.57525 0.0
C2778 C 0.11655 0.8715 0.54764 0.0
C2779 C 0.13583 0.87178 0.54471 0.0
C2780 C 0.1515 0.8767 0.55731 0.0
C2781 C 0.14845 0.88222 0.5724 0.0
C2782 C 0.14064 0.86882 0.52846 0.0
C2783 C 0.15971 0.88539 0.52344 0.0
C2784 C 0.12651 0.85047 0.51783 0.0
C2785 C 0.10646 0.83209 0.52253 0.0
C2786 C 0.1073 0.82135 0.53553 0.0
C2787 C 0.08832 0.8041 0.53993 0.0
C2788 C 0.0684 0.79735 0.53135 0.0
C2789 C 0.06744 0.80779 0.51834 0.0
C2790 C 0.08638 0.82506 0.51389 0.0
C2791 C 0.18351 0.86296 0.465 0.0
C2792 C 0.16972 0.85983 0.45151 0.0
C2793 C 0.17723 0.86421 0.4799 0.0
C2794 C 0.15714 0.86269 0.48172 0.0
C2795 C 0.14307 0.85902 0.46833 0.0
C2796 C 0.1493 0.85764 0.45337 0.0
C2797 C 0.15124 0.8656 0.4976 0.0
C2798 C 0.13194 0.84916 0.5025 0.0
C2799 C 0.1651 0.88413 0.50816 0.0
C2800 C 0.18497 0.90275 0.50344 0.0
C2801 C 0.18385 0.91328 0.49038 0.0
C2802 C 0.20266 0.93066 0.48589 0.0
C2803 C 0.22267 0.93776 0.49444 0.0
C2804 C 0.2239 0.92754 0.50752 0.0
C2805 C 0.20515 0.91014 0.51205 0.0
H2806 H 0.23722 0.95122 0.49095 0.0
H2807 H 0.05373 0.78399 0.53478 0.0
H2808 H 0.60622 0.82877 0.11382 0.0
H2809 H 0.61534 0.83855 0.14201 0.0
H2810 H 0.56149 0.7767 0.15028 0.0
H2811 H 0.55174 0.76707 0.12204 0.0
H2812 H 0.56744 0.8096 0.17217 0.0
H2813 H 0.61086 0.78259 0.14958 0.0
H2814 H 0.63562 0.78189 0.1311 0.0
H2815 H 0.68353 0.84744 0.14832 0.0
H2816 H 0.6589 0.84862 0.16675 0.0
H2817 H 0.60517 0.79253 0.24575 0.0
H2818 H 0.59041 0.79223 0.21931 0.0
H2819 H 0.64884 0.85186 0.21352 0.0
H2820 H 0.66376 0.85209 0.23989 0.0
H2821 H 0.6406 0.82288 0.1904 0.0
H2822 H 0.59822 0.84993 0.21378 0.0
H2823 H 0.5732 0.85141 0.2317 0.0
H2824 H 0.52416 0.78665 0.21372 0.0
H2825 H 0.54879 0.7849 0.19552 0.0
C2826 C 0.59592 0.81746 0.1216 0.0
C2827 C 0.57837 0.79701 0.11565 0.0
C2828 C 0.60127 0.82303 0.13774 0.0
C2829 C 0.58933 0.80819 0.14824 0.0
C2830 C 0.571 0.78834 0.14238 0.0
C2831 C 0.56558 0.78278 0.12624 0.0
C2832 C 0.59711 0.8125 0.16516 0.0
C2833 C 0.58338 0.81239 0.1762 0.0
C2834 C 0.61806 0.81654 0.17039 0.0
C2835 C 0.63295 0.81577 0.15942 0.0
C2836 C 0.62661 0.7969 0.14934 0.0
C2837 C 0.64063 0.79641 0.13889 0.0
C2838 C 0.66112 0.81463 0.13851 0.0
C2839 C 0.66765 0.83335 0.14861 0.0
C2840 C 0.65367 0.83394 0.15907 0.0
C2841 C 0.61467 0.80584 0.23897 0.0
C2842 C 0.63575 0.82219 0.24483 0.0
C2843 C 0.60617 0.8057 0.22386 0.0
C2844 C 0.61847 0.82207 0.21439 0.0
C2845 C 0.63908 0.839 0.22055 0.0
C2846 C 0.64764 0.83905 0.23559 0.0
C2847 C 0.61102 0.82016 0.19756 0.0
C2848 C 0.62478 0.82048 0.18647 0.0
C2849 C 0.59015 0.81637 0.19234 0.0
C2850 C 0.5754 0.81723 0.20339 0.0
C2851 C 0.58213 0.83597 0.21371 0.0
C2852 C 0.56799 0.83689 0.22386 0.0
C2853 C 0.54716 0.81909 0.22392 0.0
C2854 C 0.54033 0.80041 0.21369 0.0
C2855 C 0.55432 0.79949 0.20339 0.0
H2856 H 0.53629 0.8198 0.23186 0.0
H2857 H 0.67195 0.81422 0.13041 0.0
H2858 H 0.26109 0.81476 0.12959 0.0
H2859 H 0.25069 0.8165 0.15595 0.0
H2860 H 0.18562 0.79632 0.13659 0.0
H2861 H 0.19611 0.79535 0.11018 0.0
H2862 H 0.19941 0.82924 0.15857 0.0
H2863 H 0.19791 0.76123 0.15435 0.0
H2864 H 0.21225 0.73659 0.14935 0.0
H2865 H 0.26324 0.77231 0.18656 0.0
H2866 H 0.24936 0.79737 0.19164 0.0
H2867 H 0.14571 0.79872 0.22715 0.0
H2868 H 0.15809 0.79708 0.20158 0.0
H2869 H 0.22395 0.82699 0.2228 0.0
H2870 H 0.21189 0.82958 0.24846 0.0
H2871 H 0.21095 0.78996 0.20047 0.0
H2872 H 0.21132 0.85756 0.20473 0.0
H2873 H 0.19591 0.88127 0.2097 0.0
H2874 H 0.14568 0.84497 0.17211 0.0
H2875 H 0.16061 0.82081 0.16707 0.0
C2876 C 0.24459 0.81082 0.13093 0.0
C2877 C 0.22943 0.8049 0.11775 0.0
C2878 C 0.23861 0.8116 0.14603 0.0
C2879 C 0.2173 0.80632 0.14828 0.0
C2880 C 0.20214 0.8004 0.13515 0.0
C2881 C 0.20811 0.79966 0.12005 0.0
C2882 C 0.21091 0.80744 0.16429 0.0
C2883 C 0.20169 0.82041 0.16765 0.0
C2884 C 0.21434 0.79635 0.17629 0.0
C2885 C 0.22273 0.78132 0.17326 0.0
C2886 C 0.21229 0.76395 0.16138 0.0
C2887 C 0.22031 0.74988 0.15855 0.0
C2888 C 0.23869 0.75292 0.1676 0.0
C2889 C 0.24903 0.77 0.17954 0.0
C2890 C 0.24109 0.78413 0.18241 0.0
C2891 C 0.16288 0.80524 0.22643 0.0
C2892 C 0.1778 0.81452 0.23993 0.0
C2893 C 0.16989 0.80412 0.21179 0.0
C2894 C 0.19194 0.81206 0.2103 0.0
C2895 C 0.20685 0.82075 0.22373 0.0
C2896 C 0.19988 0.82212 0.2384 0.0
C2897 C 0.19934 0.81159 0.19462 0.0
C2898 C 0.20875 0.79879 0.19135 0.0
C2899 C 0.19595 0.82271 0.18266 0.0
C2900 C 0.18696 0.83723 0.18563 0.0
C2901 C 0.19687 0.8545 0.19762 0.0
C2902 C 0.18824 0.86805 0.20043 0.0
C2903 C 0.16979 0.86459 0.19125 0.0
C2904 C 0.15995 0.8476 0.17922 0.0
C2905 C 0.1685 0.83399 0.17638 0.0
H2906 H 0.16314 0.8751 0.19344 0.0
H2907 H 0.24487 0.74201 0.16539 0.0
H2908 H 0.21407 0.45556 0.13693 0.0
H2909 H 0.21049 0.44375 0.16323 0.0
H2910 H 0.21354 0.3873 0.14628 0.0
H2911 H 0.21646 0.39868 0.11984 0.0
H2912 H 0.17964 0.37604 0.16248 0.0
H2913 H 0.25516 0.42895 0.17089 0.0
H2914 H 0.28776 0.46493 0.17074 0.0
H2915 H 0.2617 0.49317 0.20194 0.0
H2916 H 0.22879 0.4574 0.20212 0.0
H2917 H 0.17854 0.33773 0.23647 0.0
H2918 H 0.19057 0.35246 0.2117 0.0
H2919 H 0.18749 0.40953 0.22679 0.0
H2920 H 0.17549 0.39489 0.25167 0.0
H2921 H 0.2229 0.42035 0.21167 0.0
H2922 H 0.14677 0.36831 0.20199 0.0
H2923 H 0.11383 0.33255 0.20208 0.0
H2924 H 0.14088 0.30305 0.17299 0.0
H2925 H 0.17412 0.3386 0.17291 0.0
C2926 C 0.2142 0.44074 0.13883 0.0
C2927 C 0.21546 0.42802 0.12624 0.0
C2928 C 0.21233 0.43409 0.15392 0.0
C2929 C 0.21181 0.41465 0.15679 0.0
C2930 C 0.21391 0.40236 0.14437 0.0
C2931 C 0.2158 0.409 0.12928 0.0
C2932 C 0.20736 0.40629 0.1724 0.0
C2933 C 0.18938 0.3856 0.1732 0.0
C2934 C 0.21963 0.41897 0.18646 0.0
C2935 C 0.23941 0.44051 0.1864 0.0
C2936 C 0.25629 0.44286 0.17762 0.0
C2937 C 0.27485 0.46321 0.17755 0.0
C2938 C 0.27678 0.48133 0.18629 0.0
C2939 C 0.26018 0.47913 0.19516 0.0
C2940 C 0.24158 0.45881 0.19526 0.0
C2941 C 0.18037 0.3534 0.23452 0.0
C2942 C 0.17581 0.36502 0.246 0.0
C2943 C 0.1873 0.36183 0.22035 0.0
C2944 C 0.18961 0.38196 0.21726 0.0
C2945 C 0.1858 0.39396 0.2289 0.0
C2946 C 0.17897 0.38557 0.24312 0.0
C2947 C 0.19524 0.39012 0.20169 0.0
C2948 C 0.21332 0.41077 0.20091 0.0
C2949 C 0.18303 0.37745 0.18761 0.0
C2950 C 0.16302 0.35607 0.18758 0.0
C2951 C 0.14576 0.35416 0.19571 0.0
C2952 C 0.12703 0.33394 0.19574 0.0
C2953 C 0.12529 0.31553 0.18758 0.0
C2954 C 0.14226 0.31732 0.17933 0.0
C2955 C 0.16105 0.3375 0.17928 0.0
H2956 H 0.11077 0.29989 0.18762 0.0
H2957 H 0.29116 0.49708 0.18623 0.0
H2958 H 0.7712 0.60596 0.90527 0.0
H2959 H 0.78173 0.61852 0.87968 0.0
H2960 H 0.79089 0.56407 0.86833 0.0
H2961 H 0.78051 0.55153 0.89399 0.0
H2962 H 0.82292 0.59995 0.85923 0.0
H2963 H 0.7453 0.56506 0.85348 0.0
H2964 H 0.7096 0.55816 0.86043 0.0
H2965 H 0.72736 0.62397 0.85378 0.0
H2966 H 0.7633 0.63136 0.84701 0.0
H2967 H 0.82847 0.60978 0.77807 0.0
H2968 H 0.81607 0.59575 0.80299 0.0
H2969 H 0.80774 0.6505 0.81523 0.0
H2970 H 0.82004 0.66454 0.79027 0.0
H2971 H 0.77488 0.61392 0.82365 0.0
H2972 H 0.85273 0.64892 0.82995 0.0
H2973 H 0.88841 0.65577 0.82296 0.0
H2974 H 0.87001 0.58952 0.82854 0.0
H2975 H 0.8341 0.5822 0.83536 0.0
C2976 C 0.77536 0.59661 0.8973 0.0
C2977 C 0.77489 0.57767 0.90163 0.0
C2978 C 0.78137 0.60379 0.88265 0.0
C2979 C 0.78676 0.59205 0.87194 0.0
C2980 C 0.78676 0.57339 0.87637 0.0
C2981 C 0.78089 0.56627 0.89106 0.0
C2982 C 0.79242 0.59922 0.85613 0.0
C2983 C 0.81226 0.6027 0.85137 0.0
C2984 C 0.77876 0.60328 0.84596 0.0
C2985 C 0.75707 0.59882 0.84988 0.0
C2986 C 0.74165 0.5781 0.8536 0.0
C2987 C 0.72136 0.5741 0.8575 0.0
C2988 C 0.71623 0.59063 0.85758 0.0
C2989 C 0.73136 0.61119 0.85372 0.0
C2990 C 0.75169 0.61529 0.84985 0.0
C2991 C 0.82402 0.61883 0.78608 0.0
C2992 C 0.82542 0.63837 0.78225 0.0
C2993 C 0.81692 0.6108 0.80032 0.0
C2994 C 0.81133 0.62226 0.81113 0.0
C2995 C 0.81201 0.64139 0.80711 0.0
C2996 C 0.81902 0.64939 0.79283 0.0
C2997 C 0.80537 0.61465 0.82679 0.0
C2998 C 0.7855 0.61112 0.83151 0.0
C2999 C 0.81899 0.61053 0.83693 0.0
C3000 C 0.84067 0.61497 0.83302 0.0
C3001 C 0.85625 0.63578 0.82959 0.0
C3002 C 0.87652 0.63975 0.82567 0.0
C3003 C 0.88145 0.62308 0.82527 0.0
C3004 C 0.86616 0.60241 0.82884 0.0
C3005 C 0.84585 0.59835 0.83275 0.0
H3006 H 0.89715 0.62618 0.82222 0.0
H3007 H 0.70052 0.5875 0.8606 0.0
H3008 H 0.40503 0.17692 0.91641 0.0
H3009 H 0.39205 0.17473 0.88905 0.0
H3010 H 0.44375 0.24027 0.88621 0.0
H3011 H 0.45636 0.24271 0.91379 0.0
H3012 H 0.40837 0.23428 0.87053 0.0
H3013 H 0.44638 0.1949 0.87186 0.0
H3014 H 0.45534 0.16774 0.88066 0.0
H3015 H 0.39097 0.11649 0.86415 0.0
H3016 H 0.38151 0.14339 0.85546 0.0
H3017 H 0.40149 0.22443 0.78684 0.0
H3018 H 0.41517 0.2282 0.81437 0.0
H3019 H 0.35809 0.16798 0.82121 0.0
H3020 H 0.34431 0.16418 0.79374 0.0
H3021 H 0.39745 0.17203 0.8344 0.0
H3022 H 0.36004 0.21273 0.83345 0.0
H3023 H 0.35233 0.24056 0.82429 0.0
H3024 H 0.41785 0.29029 0.83953 0.0
H3025 H 0.42605 0.26269 0.84857 0.0
C3026 C 0.41354 0.19088 0.90994 0.0
C3027 C 0.4318 0.20991 0.91715 0.0
C3028 C 0.40618 0.1896 0.8943 0.0
C3029 C 0.41723 0.20715 0.88543 0.0
C3030 C 0.43502 0.22648 0.89277 0.0
C3031 C 0.4422 0.22787 0.90852 0.0
C3032 C 0.41048 0.20513 0.86843 0.0
C3033 C 0.4063 0.22083 0.86261 0.0
C3034 C 0.40749 0.18744 0.85806 0.0
C3035 C 0.41318 0.17119 0.86314 0.0
C3036 C 0.43409 0.17785 0.8702 0.0
C3037 C 0.43926 0.1625 0.87516 0.0
C3038 C 0.42372 0.14041 0.873 0.0
C3039 C 0.40299 0.13362 0.86583 0.0
C3040 C 0.39771 0.14891 0.86088 0.0
C3041 C 0.39199 0.21191 0.7942 0.0
C3042 C 0.37183 0.19403 0.7882 0.0
C3043 C 0.39974 0.21414 0.80991 0.0
C3044 C 0.38755 0.19844 0.81982 0.0
C3045 C 0.3677 0.18029 0.81374 0.0
C3046 C 0.35982 0.17819 0.7981 0.0
C3047 C 0.39526 0.20108 0.83662 0.0
C3048 C 0.39963 0.1855 0.84236 0.0
C3049 C 0.39866 0.21899 0.84685 0.0
C3050 C 0.39372 0.23562 0.84153 0.0
C3051 C 0.37286 0.22958 0.83472 0.0
C3052 C 0.36839 0.24531 0.82958 0.0
C3053 C 0.38461 0.26718 0.83128 0.0
C3054 C 0.40531 0.27335 0.83819 0.0
C3055 C 0.40988 0.25767 0.84333 0.0
H3056 H 0.38112 0.27934 0.82729 0.0
H3057 H 0.42776 0.12855 0.87685 0.0
H3058 H 0.78576 0.18237 0.90893 0.0
H3059 H 0.78768 0.17285 0.8815 0.0
H3060 H 0.79426 0.23368 0.86969 0.0
H3061 H 0.79147 0.24288 0.8969 0.0
H3062 H 0.77095 0.20269 0.84646 0.0
H3063 H 0.83874 0.22811 0.8781 0.0
H3064 H 0.86241 0.22785 0.90006 0.0
H3065 H 0.84609 0.16306 0.88334 0.0
H3066 H 0.82206 0.16283 0.86139 0.0
H3067 H 0.83443 0.22742 0.78214 0.0
H3068 H 0.81988 0.2264 0.8073 0.0
H3069 H 0.81146 0.1627 0.81137 0.0
H3070 H 0.82626 0.16374 0.78628 0.0
H3071 H 0.83224 0.19041 0.83792 0.0
H3072 H 0.76794 0.16798 0.80371 0.0
H3073 H 0.74566 0.17018 0.78165 0.0
H3074 H 0.75695 0.2314 0.80287 0.0
H3075 H 0.77958 0.22975 0.82495 0.0
C3076 C 0.787 0.19344 0.90041 0.0
C3077 C 0.78878 0.21353 0.90514 0.0
C3078 C 0.78831 0.18807 0.88476 0.0
C3079 C 0.7916 0.20277 0.87359 0.0
C3080 C 0.79188 0.22214 0.87809 0.0
C3081 C 0.79047 0.22746 0.89369 0.0
C3082 C 0.79658 0.19897 0.85756 0.0
C3083 C 0.7844 0.20008 0.84458 0.0
C3084 C 0.81392 0.19522 0.85508 0.0
C3085 C 0.82841 0.19536 0.86822 0.0
C3086 C 0.84007 0.21375 0.87918 0.0
C3087 C 0.85357 0.2137 0.89161 0.0
C3088 C 0.8557 0.19542 0.89312 0.0
C3089 C 0.84438 0.17718 0.88217 0.0
C3090 C 0.83082 0.17713 0.86974 0.0
C3091 C 0.82945 0.21319 0.78839 0.0
C3092 C 0.83153 0.19568 0.78225 0.0
C3093 C 0.82095 0.21253 0.80269 0.0
C3094 C 0.8144 0.19438 0.81115 0.0
C3095 C 0.81631 0.17681 0.805 0.0
C3096 C 0.82466 0.17738 0.79064 0.0
C3097 C 0.80676 0.19435 0.82682 0.0
C3098 C 0.81854 0.19262 0.83975 0.0
C3099 C 0.78922 0.19777 0.82923 0.0
C3100 C 0.7756 0.19881 0.81595 0.0
C3101 C 0.76583 0.18201 0.80362 0.0
C3102 C 0.75311 0.18314 0.79111 0.0
C3103 C 0.74991 0.20093 0.79086 0.0
C3104 C 0.75944 0.21762 0.80309 0.0
C3105 C 0.7722 0.21659 0.81561 0.0
H3106 H 0.74 0.20176 0.78121 0.0
H3107 H 0.86616 0.19542 0.90275 0.0
H3108 H 0.2229 0.09821 0.45261 0.0
H3109 H 0.23533 0.10966 0.48041 0.0
H3110 H 0.28938 0.16922 0.4688 0.0
H3111 H 0.27712 0.15766 0.44087 0.0
H3112 H 0.302 0.14836 0.48869 0.0
H3113 H 0.24937 0.1708 0.48638 0.0
H3114 H 0.21359 0.16721 0.47986 0.0
H3115 H 0.18483 0.11522 0.5091 0.0
H3116 H 0.22038 0.11828 0.51563 0.0
H3117 H 0.33778 0.18393 0.56903 0.0
H3118 H 0.32459 0.18314 0.54195 0.0
H3119 H 0.26567 0.12342 0.54666 0.0
H3120 H 0.27867 0.12426 0.57379 0.0
H3121 H 0.25704 0.14934 0.53012 0.0
H3122 H 0.30809 0.12366 0.52959 0.0
H3123 H 0.34341 0.12607 0.5358 0.0
H3124 H 0.37458 0.18311 0.51146 0.0
H3125 H 0.33946 0.1812 0.50529 0.0
C3126 C 0.23732 0.11384 0.456 0.0
C3127 C 0.24911 0.12701 0.44459 0.0
C3128 C 0.24431 0.12044 0.47188 0.0
C3129 C 0.26321 0.14036 0.47668 0.0
C3130 C 0.27471 0.15383 0.46533 0.0
C3131 C 0.26763 0.14728 0.44941 0.0
C3132 C 0.27176 0.14615 0.49345 0.0
C3133 C 0.29236 0.14907 0.49773 0.0
C3134 C 0.25897 0.14654 0.50526 0.0
C3135 C 0.23754 0.14468 0.50141 0.0
C3136 C 0.23539 0.15849 0.49133 0.0
C3137 C 0.21515 0.15657 0.48765 0.0
C3138 C 0.19694 0.14097 0.49404 0.0
C3139 C 0.19895 0.12729 0.50415 0.0
C3140 C 0.21915 0.12913 0.50787 0.0
C3141 C 0.32198 0.17067 0.5643 0.0
C3142 C 0.30934 0.15405 0.57349 0.0
C3143 C 0.31446 0.17025 0.54884 0.0
C3144 C 0.29428 0.15304 0.5422 0.0
C3145 C 0.28128 0.13687 0.55154 0.0
C3146 C 0.28872 0.13737 0.56704 0.0
C3147 C 0.28713 0.15123 0.52534 0.0
C3148 C 0.2668 0.14899 0.52105 0.0
C3149 C 0.3001 0.15133 0.5135 0.0
C3150 C 0.3212 0.15244 0.51714 0.0
C3151 C 0.32251 0.13681 0.52567 0.0
C3152 C 0.34248 0.13807 0.52916 0.0
C3153 C 0.36124 0.15477 0.52407 0.0
C3154 C 0.36005 0.17021 0.51542 0.0
C3155 C 0.34011 0.16904 0.51192 0.0
H3156 H 0.37669 0.15572 0.52678 0.0
H3157 H 0.18129 0.13952 0.49117 0.0
H3158 H 0.90727 0.17443 0.45518 0.0
H3159 H 0.897 0.17631 0.48156 0.0
H3160 H 0.88209 0.11029 0.48528 0.0
H3161 H 0.89189 0.10821 0.4587 0.0
H3162 H 0.85236 0.11569 0.49707 0.0
H3163 H 0.92954 0.15512 0.50387 0.0
H3164 H 0.96644 0.18253 0.49883 0.0
H3165 H 0.95313 0.23357 0.51147 0.0
H3166 H 0.91602 0.20643 0.51638 0.0
H3167 H 0.8517 0.12416 0.5807 0.0
H3168 H 0.86436 0.1218 0.55513 0.0
H3169 H 0.86183 0.17865 0.54373 0.0
H3170 H 0.84878 0.18083 0.56913 0.0
H3171 H 0.90138 0.17701 0.53673 0.0
H3172 H 0.82289 0.13557 0.5287 0.0
H3173 H 0.78689 0.10717 0.53461 0.0
H3174 H 0.80457 0.05849 0.52531 0.0
H3175 H 0.84083 0.0867 0.51958 0.0
C3176 C 0.90188 0.16035 0.46165 0.0
C3177 C 0.90049 0.14121 0.45491 0.0
C3178 C 0.89607 0.16145 0.47676 0.0
C3179 C 0.88915 0.14357 0.48558 0.0
C3180 C 0.88742 0.12432 0.47875 0.0
C3181 C 0.89299 0.12313 0.46356 0.0
C3182 C 0.88352 0.14494 0.50184 0.0
C3183 C 0.86327 0.12894 0.50578 0.0
C3184 C 0.89759 0.16233 0.51324 0.0
C3185 C 0.91992 0.17872 0.51035 0.0
C3186 C 0.93442 0.17218 0.50546 0.0
C3187 C 0.95539 0.18767 0.50265 0.0
C3188 C 0.96211 0.20977 0.50479 0.0
C3189 C 0.94789 0.21644 0.5098 0.0
C3190 C 0.92689 0.20101 0.51261 0.0
C3191 C 0.85402 0.13623 0.57277 0.0
C3192 C 0.84918 0.15262 0.57681 0.0
C3193 C 0.86119 0.13484 0.55819 0.0
C3194 C 0.86394 0.15001 0.54756 0.0
C3195 C 0.8598 0.16681 0.5518 0.0
C3196 C 0.85226 0.16797 0.56623 0.0
C3197 C 0.8703 0.14792 0.53177 0.0
C3198 C 0.89064 0.16375 0.52797 0.0
C3199 C 0.85648 0.13024 0.52058 0.0
C3200 C 0.83465 0.11327 0.5239 0.0
C3201 C 0.81917 0.11884 0.52806 0.0
C3202 C 0.79871 0.10277 0.53135 0.0
C3203 C 0.79347 0.08104 0.53038 0.0
C3204 C 0.80867 0.07533 0.52608 0.0
C3205 C 0.82917 0.09135 0.5228 0.0
H3206 H 0.77762 0.06862 0.53293 0.0
H3207 H 0.97835 0.22174 0.50261 0.0
H3208 H 0.88088 0.78623 0.47022 0.0
H3209 H 0.87863 0.77488 0.49656 0.0
H3210 H 0.88877 0.72256 0.48024 0.0
H3211 H 0.89014 0.73333 0.45364 0.0
H3212 H 0.85533 0.70763 0.49646 0.0
H3213 H 0.92757 0.76684 0.50544 0.0
H3214 H 0.95769 0.8043 0.50505 0.0
H3215 H 0.92593 0.82826 0.53427 0.0
H3216 H 0.89545 0.79096 0.53466 0.0
H3217 H 0.8543 0.67739 0.5742 0.0
H3218 H 0.86797 0.69082 0.54933 0.0
H3219 H 0.85244 0.74167 0.55681 0.0
H3220 H 0.83898 0.72848 0.58173 0.0
H3221 H 0.89252 0.7563 0.54539 0.0
H3222 H 0.81865 0.69712 0.53349 0.0
H3223 H 0.78873 0.65951 0.5338 0.0
H3224 H 0.82484 0.63548 0.50992 0.0
H3225 H 0.85511 0.67298 0.50967 0.0
C3226 C 0.88282 0.77241 0.47225 0.0
C3227 C 0.88553 0.7606 0.45978 0.0
C3228 C 0.88175 0.76606 0.48737 0.0
C3229 C 0.88367 0.74793 0.49046 0.0
C3230 C 0.88728 0.73662 0.47817 0.0
C3231 C 0.88826 0.74292 0.46299 0.0
C3232 C 0.88004 0.73978 0.50618 0.0
C3233 C 0.86385 0.71818 0.50714 0.0
C3234 C 0.89082 0.75359 0.52016 0.0
C3235 C 0.90913 0.77608 0.51998 0.0
C3236 C 0.92692 0.7801 0.51169 0.0
C3237 C 0.94408 0.80131 0.51149 0.0
C3238 C 0.94371 0.81865 0.51961 0.0
C3239 C 0.92619 0.81481 0.52798 0.0
C3240 C 0.90898 0.79363 0.52821 0.0
C3241 C 0.85405 0.6916 0.57063 0.0
C3242 C 0.84542 0.70179 0.57986 0.0
C3243 C 0.86176 0.69918 0.55639 0.0
C3244 C 0.86106 0.71714 0.55117 0.0
C3245 C 0.85311 0.72777 0.56061 0.0
C3246 C 0.84526 0.72011 0.57477 0.0
C3247 C 0.86769 0.72435 0.53557 0.0
C3248 C 0.88434 0.74574 0.53466 0.0
C3249 C 0.85744 0.71034 0.52162 0.0
C3250 C 0.83924 0.68782 0.52173 0.0
C3251 C 0.82028 0.68381 0.52843 0.0
C3252 C 0.80325 0.66251 0.52857 0.0
C3253 C 0.80491 0.64511 0.52193 0.0
C3254 C 0.82359 0.64898 0.51509 0.0
C3255 C 0.84069 0.67024 0.51494 0.0
H3256 H 0.7917 0.62864 0.52204 0.0
H3257 H 0.95701 0.83506 0.51944 0.0
loop_
_geom_bond_atom_site_label_1
_geom_bond_atom_site_label_2
_geom_bond_distance
_geom_bond_site_symmetry_2
_ccdc_geom_bond_type
H0 C3 0.929 . S
H1 C6 0.929 . S
H2 C8 0.930 . S
C3 H0 0.929 . S
C3 C4 1.398 . S
C3 C5 1.396 . S
C4 C3 1.398 . S
C4 C8 1.407 . S
C5 C3 1.396 . S
C5 C6 1.394 . S
C6 H1 0.929 . S
C6 C5 1.394 . S
C6 C7 1.382 . S
C7 C6 1.382 . S
C7 C8 1.392 . S
C7 N9 1.420 . S
C8 H2 0.930 . S
C8 C4 1.407 . S
C8 C7 1.392 . S
N9 C7 1.420 . S
N9 C10 1.244 . S
C10 N9 1.244 . S
H11 C14 0.929 . S
H12 C17 0.929 . S
H13 C19 0.930 . S
C14 H11 0.929 . S
C14 C15 1.398 . S
C14 C16 1.396 . S
C15 C14 1.398 . S
C15 C19 1.407 . S
C16 C14 1.396 . S
C16 C17 1.394 . S
C17 H12 0.929 . S
C17 C16 1.394 . S
C17 C18 1.382 . S
C18 C17 1.382 . S
C18 C19 1.392 . S
C18 N20 1.420 . S
C19 H13 0.930 . S
C19 C15 1.407 . S
C19 C18 1.392 . S
N20 C18 1.420 . S
N20 C21 1.244 . S
C21 N20 1.244 . S
H22 C25 0.929 . S
H23 C28 0.929 . S
H24 C30 0.930 . S
C25 H22 0.929 . S
C25 C26 1.398 . S
C25 C27 1.396 . S
C26 C25 1.398 . S
C26 C30 1.407 . S
C27 C25 1.396 . S
C27 C28 1.394 . S
C28 H23 0.929 . S
C28 C27 1.394 . S
C28 C29 1.382 . S
C29 C28 1.382 . S
C29 C30 1.392 . S
C29 N31 1.420 . S
C30 H24 0.930 . S
C30 C26 1.407 . S
C30 C29 1.392 . S
N31 C29 1.420 . S
N31 C32 1.244 . S
C32 N31 1.244 . S
H33 C36 0.929 . S
H34 C39 0.929 . S
H35 C41 0.930 . S
C36 H33 0.929 . S
C36 C37 1.398 . S
C36 C38 1.396 . S
C37 C36 1.398 . S
C37 C41 1.407 . S
C38 C36 1.396 . S
C38 C39 1.394 . S
C39 H34 0.929 . S
C39 C38 1.394 . S
C39 C40 1.382 . S
C40 C39 1.382 . S
C40 C41 1.392 . S
C40 N42 1.420 . S
C41 H35 0.930 . S
C41 C37 1.407 . S
C41 C40 1.392 . S
N42 C40 1.420 . S
N42 C43 1.244 . S
C43 N42 1.244 . S
H44 C47 0.929 . S
H45 C50 0.929 . S
H46 C52 0.930 . S
C47 H44 0.929 . S
C47 C48 1.398 . S
C47 C49 1.396 . S
C48 C47 1.398 . S
C48 C52 1.407 . S
C49 C47 1.396 . S
C49 C50 1.394 . S
C50 H45 0.929 . S
C50 C49 1.394 . S
C50 C51 1.382 . S
C51 C50 1.382 . S
C51 C52 1.392 . S
C51 N53 1.420 . S
C52 H46 0.930 . S
C52 C48 1.407 . S
C52 C51 1.392 . S
N53 C51 1.420 . S
N53 C54 1.244 . S
C54 N53 1.244 . S
H55 C58 0.929 . S
H56 C61 0.929 . S
H57 C63 0.930 . S
C58 H55 0.929 . S
C58 C59 1.398 . S
C58 C60 1.396 . S
C59 C58 1.398 . S
C59 C63 1.407 . S
C60 C58 1.396 . S
C60 C61 1.394 . S
C61 H56 0.929 . S
C61 C60 1.394 . S
C61 C62 1.382 . S
C62 C61 1.382 . S
C62 C63 1.392 . S
C62 N64 1.420 . S
C63 H57 0.930 . S
C63 C59 1.407 . S
C63 C62 1.392 . S
N64 C62 1.420 . S
N64 C65 1.244 . S
C65 N64 1.244 . S
H66 C69 0.929 . S
H67 C72 0.929 . S
H68 C74 0.930 . S
C69 H66 0.929 . S
C69 C70 1.398 . S
C69 C71 1.396 . S
C70 C69 1.398 . S
C70 C74 1.407 . S
C71 C69 1.396 . S
C71 C72 1.394 . S
C72 H67 0.929 . S
C72 C71 1.394 . S
C72 C73 1.382 . S
C73 C72 1.382 . S
C73 C74 1.392 . S
C73 N75 1.420 . S
C74 H68 0.930 . S
C74 C70 1.407 . S
C74 C73 1.392 . S
N75 C73 1.420 . S
N75 C76 1.244 . S
C76 N75 1.244 . S
H77 C80 0.929 . S
H78 C83 0.929 . S
H79 C85 0.930 . S
C80 H77 0.929 . S
C80 C81 1.398 . S
C80 C82 1.396 . S
C81 C80 1.398 . S
C81 C85 1.407 . S
C82 C80 1.396 . S
C82 C83 1.394 . S
C83 H78 0.929 . S
C83 C82 1.394 . S
C83 C84 1.382 . S
C84 C83 1.382 . S
C84 C85 1.392 . S
C84 N86 1.420 . S
C85 H79 0.930 . S
C85 C81 1.407 . S
C85 C84 1.392 . S
N86 C84 1.420 . S
N86 C87 1.244 . S
C87 N86 1.244 . S
H88 C91 0.929 . S
H89 C94 0.929 . S
H90 C96 0.930 . S
C91 H88 0.929 . S
C91 C92 1.398 . S
C91 C93 1.396 . S
C92 C91 1.398 . S
C92 C96 1.407 . S
C93 C91 1.396 . S
C93 C94 1.394 . S
C94 H89 0.929 . S
C94 C93 1.394 . S
C94 C95 1.382 . S
C95 C94 1.382 . S
C95 C96 1.392 . S
C95 N97 1.420 . S
C96 H90 0.930 . S
C96 C92 1.407 . S
C96 C95 1.392 . S
N97 C95 1.420 . S
N97 C98 1.244 . S
C98 N97 1.244 . S
H99 C102 0.929 . S
H100 C105 0.929 . S
H101 C107 0.930 . S
C102 H99 0.929 . S
C102 C103 1.398 . S
C102 C104 1.396 . S
C103 C102 1.398 . S
C103 C107 1.407 . S
C104 C102 1.396 . S
C104 C105 1.394 . S
C105 H100 0.929 . S
C105 C104 1.394 . S
C105 C106 1.382 . S
C106 C105 1.382 . S
C106 C107 1.392 . S
C106 N108 1.420 . S
C107 H101 0.930 . S
C107 C103 1.407 . S
C107 C106 1.392 . S
N108 C106 1.420 . S
N108 C109 1.244 . S
C109 N108 1.244 . S
H110 C113 0.929 . S
H111 C116 0.929 . S
H112 C118 0.930 . S
C113 H110 0.929 . S
C113 C114 1.398 . S
C113 C115 1.396 . S
C114 C113 1.398 . S
C114 C118 1.407 . S
C115 C113 1.396 . S
C115 C116 1.394 . S
C116 H111 0.929 . S
C116 C115 1.394 . S
C116 C117 1.382 . S
C117 C116 1.382 . S
C117 C118 1.392 . S
C117 N119 1.420 . S
C118 H112 0.930 . S
C118 C114 1.407 . S
C118 C117 1.392 . S
N119 C117 1.420 . S
N119 C120 1.244 . S
C120 N119 1.244 . S
H121 C124 0.929 . S
H122 C127 0.929 . S
H123 C129 0.930 . S
C124 H121 0.929 . S
C124 C125 1.398 . S
C124 C126 1.396 . S
C125 C124 1.398 . S
C125 C129 1.407 . S
C126 C124 1.396 . S
C126 C127 1.394 . S
C127 H122 0.929 . S
C127 C126 1.394 . S
C127 C128 1.382 . S
C128 C127 1.382 . S
C128 C129 1.392 . S
C128 N130 1.420 . S
C129 H123 0.930 . S
C129 C125 1.407 . S
C129 C128 1.392 . S
N130 C128 1.420 . S
N130 C131 1.244 . S
C131 N130 1.244 . S
H132 C135 0.929 . S
H133 C138 0.929 . S
H134 C140 0.930 . S
C135 H132 0.929 . S
C135 C136 1.398 . S
C135 C137 1.396 . S
C136 C135 1.398 . S
C136 C140 1.407 . S
C137 C135 1.396 . S
C137 C138 1.394 . S
C138 H133 0.929 . S
C138 C137 1.394 . S
C138 C139 1.382 . S
C139 C138 1.382 . S
C139 C140 1.392 . S
C139 N141 1.420 . S
C140 H134 0.930 . S
C140 C136 1.407 . S
C140 C139 1.392 . S
N141 C139 1.420 . S
N141 C142 1.244 . S
C142 N141 1.244 . S
H143 C146 0.929 . S
H144 C149 0.929 . S
H145 C151 0.930 . S
C146 H143 0.929 . S
C146 C147 1.398 . S
C146 C148 1.396 . S
C147 C146 1.398 . S
C147 C151 1.407 . S
C148 C146 1.396 . S
C148 C149 1.394 . S
C149 H144 0.929 . S
C149 C148 1.394 . S
C149 C150 1.382 . S
C150 C149 1.382 . S
C150 C151 1.392 . S
C150 N152 1.420 . S
C151 H145 0.930 . S
C151 C147 1.407 . S
C151 C150 1.392 . S
N152 C150 1.420 . S
N152 C153 1.244 . S
C153 N152 1.244 . S
H154 C157 0.929 . S
H155 C160 0.929 . S
H156 C162 0.930 . S
C157 H154 0.929 . S
C157 C158 1.398 . S
C157 C159 1.396 . S
C158 C157 1.398 . S
C158 C162 1.407 . S
C159 C157 1.396 . S
C159 C160 1.394 . S
C160 H155 0.929 . S
C160 C159 1.394 . S
C160 C161 1.382 . S
C161 C160 1.382 . S
C161 C162 1.392 . S
C161 N163 1.420 . S
C162 H156 0.930 . S
C162 C158 1.407 . S
C162 C161 1.392 . S
N163 C161 1.420 . S
N163 C164 1.244 . S
C164 N163 1.244 . S
H165 C168 0.929 . S
H166 C171 0.929 . S
H167 C173 0.930 . S
C168 H165 0.929 . S
C168 C169 1.398 . S
C168 C170 1.396 . S
C169 C168 1.398 . S
C169 C173 1.407 . S
C170 C168 1.396 . S
C170 C171 1.394 . S
C171 H166 0.929 . S
C171 C170 1.394 . S
C171 C172 1.382 . S
C172 C171 1.382 . S
C172 C173 1.392 . S
C172 N174 1.420 . S
C173 H167 0.930 . S
C173 C169 1.407 . S
C173 C172 1.392 . S
N174 C172 1.420 . S
N174 C175 1.244 . S
C175 N174 1.244 . S
H176 C179 0.929 . S
H177 C182 0.929 . S
H178 C184 0.930 . S
C179 H176 0.929 . S
C179 C180 1.398 . S
C179 C181 1.396 . S
C180 C179 1.398 . S
C180 C184 1.407 . S
C181 C179 1.396 . S
C181 C182 1.394 . S
C182 H177 0.929 . S
C182 C181 1.394 . S
C182 C183 1.382 . S
C183 C182 1.382 . S
C183 C184 1.392 . S
C183 N185 1.420 . S
C184 H178 0.930 . S
C184 C180 1.407 . S
C184 C183 1.392 . S
N185 C183 1.420 . S
N185 C186 1.244 . S
C186 N185 1.244 . S
H187 C190 0.929 . S
H188 C193 0.929 . S
H189 C195 0.930 . S
C190 H187 0.929 . S
C190 C191 1.398 . S
C190 C192 1.396 . S
C191 C190 1.398 . S
C191 C195 1.407 . S
C192 C190 1.396 . S
C192 C193 1.394 . S
C193 H188 0.929 . S
C193 C192 1.394 . S
C193 C194 1.382 . S
C194 C193 1.382 . S
C194 C195 1.392 . S
C194 N196 1.420 . S
C195 H189 0.930 . S
C195 C191 1.407 . S
C195 C194 1.392 . S
N196 C194 1.420 . S
N196 C197 1.244 . S
C197 N196 1.244 . S
C198 Eu199 2.835 . S
C198 C200 1.500 1_545 S
C198 O218 1.257 1_545 S
C198 O219 1.260 . S
Eu199 C198 2.835 . S
Eu199 O218 2.473 1_545 S
Eu199 O219 2.480 . S
Eu199 O220 2.430 . S
Eu199 O221 2.670 . S
Eu199 O222 2.394 1_545 S
Eu199 O227 2.355 1_545 S
Eu199 O229 2.374 . S
C200 C198 1.500 1_565 S
C200 C201 1.377 1_565 S
C200 C205 1.377 . S
C201 C200 1.377 1_545 S
C201 C202 1.387 1_545 S
C201 H230 0.931 . S
C202 C201 1.387 1_565 S
C202 C203 1.419 . S
C202 H231 0.904 1_565 S
C203 C202 1.419 . S
C203 C204 1.394 . S
C204 C203 1.394 . S
C204 C205 1.378 . S
C204 H232 0.931 . S
C205 C200 1.377 . S
C205 C204 1.378 . S
C205 H233 0.931 . S
C206 O220 1.259 . S
C206 O221 1.270 . S
C207 O222 1.251 . S
C207 O223 1.251 . S
C208 Eu209 2.835 1_545 S
C208 C210 1.500 . S
C208 O224 1.257 . S
C208 O225 1.260 1_545 S
Eu209 C208 2.835 1_565 S
Eu209 O221 2.355 1_566 S
Eu209 O223 2.374 1_556 S
Eu209 O224 2.473 1_565 S
Eu209 O225 2.480 . S
Eu209 O226 2.430 . S
Eu209 O227 2.670 1_556 S
Eu209 O228 2.394 1_565 S
C210 C208 1.500 . S
C210 C211 1.377 . S
C210 C215 1.377 . S
C211 C210 1.377 . S
C211 C212 1.395 . S
C211 H234 0.931 1_545 S
C212 C211 1.395 . S
C212 C213 1.383 . S
C212 H235 0.931 . S
C213 C212 1.383 . S
C213 C214 1.394 . S
C214 C213 1.394 . S
C214 C215 1.378 . S
C214 H236 0.931 . S
C215 C210 1.377 . S
C215 C214 1.378 . S
C215 H237 0.931 . S
C216 O226 1.259 1_554 S
C216 O227 1.270 . S
C217 O228 1.251 1_554 S
C217 O229 1.251 . S
O218 C198 1.257 1_565 S
O218 Eu199 2.473 1_565 S
O219 C198 1.260 . S
O219 Eu199 2.480 . S
O220 Eu199 2.430 . S
O220 C206 1.259 . S
O221 Eu199 2.670 . S
O221 C206 1.270 . S
O221 Eu209 2.355 1_544 S
O222 Eu199 2.394 1_565 S
O222 C207 1.251 . S
O223 C207 1.251 . S
O223 Eu209 2.374 1_554 S
O224 C208 1.257 . S
O224 Eu209 2.473 1_545 S
O225 C208 1.260 1_565 S
O225 Eu209 2.480 . S
O226 Eu209 2.430 . S
O226 C216 1.259 1_556 S
O227 Eu199 2.355 1_565 S
O227 Eu209 2.670 1_554 S
O227 C216 1.270 . S
O228 Eu209 2.394 1_545 S
O228 C217 1.251 1_556 S
O229 Eu199 2.374 . S
O229 C217 1.251 . S
H230 C201 0.931 . S
H231 C202 0.904 1_545 S
H232 C204 0.931 . S
H233 C205 0.931 . S
H234 C211 0.931 1_565 S
H235 C212 0.931 . S
H236 C214 0.931 . S
H237 C215 0.931 . S
C238 Eu239 2.835 1_455 S
C238 C240 1.500 . S
C238 O258 1.257 . S
C238 O259 1.260 1_455 S
Eu239 C238 2.835 1_655 S
Eu239 O258 2.473 1_655 S
Eu239 O259 2.480 . S
Eu239 O260 2.430 . S
Eu239 O261 2.670 . S
Eu239 O262 2.394 1_655 S
Eu239 O267 2.355 1_655 S
Eu239 O269 2.374 . S
C240 C238 1.500 . S
C240 C241 1.377 . S
C240 C245 1.377 . S
C241 C240 1.377 . S
C241 C242 1.395 . S
C241 H270 0.931 1_455 S
C242 C241 1.395 . S
C242 C243 1.383 . S
C242 H271 0.931 . S
C243 C242 1.383 . S
C243 C244 1.394 . S
C244 C243 1.394 . S
C244 C245 1.378 . S
C244 H272 0.931 . S
C245 C240 1.377 . S
C245 C244 1.378 . S
C245 H273 0.931 . S
C246 O260 1.259 . S
C246 O261 1.270 . S
C247 O262 1.251 . S
C247 O263 1.251 . S
C248 Eu249 2.835 1_655 S
C248 C250 1.500 . S
C248 O264 1.257 . S
C248 O265 1.260 1_655 S
Eu249 C248 2.835 1_455 S
Eu249 O261 2.355 1_456 S
Eu249 O263 2.374 1_556 S
Eu249 O264 2.473 1_455 S
Eu249 O265 2.480 . S
Eu249 O266 2.443 . S
Eu249 O267 2.670 1_556 S
Eu249 O268 2.394 1_455 S
C250 C248 1.500 . S
C250 C251 1.377 1_655 S
C250 C255 1.377 . S
C251 C250 1.377 1_455 S
C251 C252 1.395 1_455 S
C251 H274 0.931 . S
C252 C251 1.395 1_655 S
C252 C253 1.383 . S
C252 H275 0.931 1_655 S
C253 C252 1.383 . S
C253 C254 1.394 . S
C254 C253 1.394 . S
C254 C255 1.378 . S
C254 H276 0.931 . S
C255 C250 1.377 . S
C255 C254 1.378 . S
C255 H277 0.931 . S
C256 O266 1.207 1_554 S
C256 O267 1.270 . S
C257 O268 1.274 . S
C257 O269 1.212 1_556 S
O258 C238 1.257 . S
O258 Eu239 2.473 1_455 S
O259 C238 1.260 1_655 S
O259 Eu239 2.480 . S
O260 Eu239 2.430 . S
O260 C246 1.259 . S
O261 Eu239 2.670 . S
O261 C246 1.270 . S
O261 Eu249 2.355 1_654 S
O262 Eu239 2.394 1_455 S
O262 C247 1.251 . S
O263 C247 1.251 . S
O263 Eu249 2.374 1_554 S
O264 C248 1.257 . S
O264 Eu249 2.473 1_655 S
O265 C248 1.260 1_455 S
O265 Eu249 2.480 . S
O266 Eu249 2.443 . S
O266 C256 1.207 1_556 S
O267 Eu239 2.355 1_455 S
O267 Eu249 2.670 1_554 S
O267 C256 1.270 . S
O268 Eu249 2.394 1_655 S
O268 C257 1.274 . S
O269 Eu239 2.374 . S
O269 C257 1.212 1_554 S
H270 C241 0.931 1_655 S
H271 C242 0.931 . S
H272 C244 0.931 . S
H273 C245 0.931 . S
H274 C251 0.931 . S
H275 C252 0.931 1_455 S
H276 C254 0.931 . S
H277 C255 0.931 . S
C278 Eu279 2.835 . S
C278 C280 1.500 . S
C278 O298 1.257 . S
C278 O299 1.260 . S
Eu279 C278 2.835 . S
Eu279 O298 2.473 . S
Eu279 O299 2.480 . S
Eu279 O300 2.430 1_556 S
Eu279 O301 2.670 1_556 S
Eu279 O302 2.394 . S
Eu279 O307 2.355 1_556 S
Eu279 O309 2.374 1_556 S
C280 C278 1.500 . S
C280 C281 1.377 . S
C280 C285 1.377 . S
C281 C280 1.377 . S
C281 C282 1.395 . S
C281 H310 0.931 . S
C282 C281 1.395 . S
C282 C283 1.383 . S
C282 H311 0.931 . S
C283 C282 1.383 . S
C283 C284 1.394 . S
C284 C283 1.394 . S
C284 C285 1.378 . S
C284 H312 0.931 . S
C285 C280 1.377 . S
C285 C284 1.378 . S
C285 H313 0.931 . S
C286 O300 1.259 . S
C286 O301 1.270 . S
C287 O302 1.251 1_554 S
C287 O303 1.251 . S
C288 Eu289 2.835 . S
C288 C290 1.500 . S
C288 O304 1.257 . S
C288 O305 1.260 . S
Eu289 C288 2.835 . S
Eu289 O301 2.355 . S
Eu289 O303 2.374 . S
Eu289 O304 2.473 . S
Eu289 O305 2.480 . S
Eu289 O306 2.430 . S
Eu289 O307 2.670 . S
Eu289 O308 2.394 . S
C290 C288 1.500 . S
C290 C291 1.377 . S
C290 C295 1.377 . S
C291 C290 1.377 . S
C291 C292 1.395 . S
C291 H314 0.931 . S
C292 C291 1.395 . S
C292 C293 1.383 . S
C292 H315 0.931 . S
C293 C292 1.383 . S
C293 C294 1.394 . S
C294 C293 1.394 . S
C294 C295 1.378 . S
C294 H316 0.931 . S
C295 C290 1.377 . S
C295 C294 1.378 . S
C295 H317 0.931 . S
C296 O306 1.259 . S
C296 O307 1.270 . S
C297 O308 1.251 . S
C297 O309 1.251 . S
O298 C278 1.257 . S
O298 Eu279 2.473 . S
O299 C278 1.260 . S
O299 Eu279 2.480 . S
O300 Eu279 2.430 1_554 S
O300 C286 1.259 . S
O301 Eu279 2.670 1_554 S
O301 C286 1.270 . S
O301 Eu289 2.355 . S
O302 Eu279 2.394 . S
O302 C287 1.251 1_556 S
O303 C287 1.251 . S
O303 Eu289 2.374 . S
O304 C288 1.257 . S
O304 Eu289 2.473 . S
O305 C288 1.260 . S
O305 Eu289 2.480 . S
O306 Eu289 2.430 . S
O306 C296 1.259 . S
O307 Eu279 2.355 1_554 S
O307 Eu289 2.670 . S
O307 C296 1.270 . S
O308 Eu289 2.394 . S
O308 C297 1.251 . S
O309 Eu279 2.374 1_554 S
O309 C297 1.251 . S
H310 C281 0.931 . S
H311 C282 0.931 . S
H312 C284 0.931 . S
H313 C285 0.931 . S
H314 C291 0.931 . S
H315 C292 0.931 . S
H316 C294 0.931 . S
H317 C295 0.931 . S
C318 Eu319 2.835 . S
C318 C320 1.500 . S
C318 O338 1.257 . S
C318 O339 1.260 . S
Eu319 C318 2.835 . S
Eu319 O338 2.473 . S
Eu319 O339 2.480 . S
Eu319 O340 2.430 . S
Eu319 O341 2.670 . S
Eu319 O342 2.394 . S
Eu319 O347 2.355 . S
Eu319 O349 2.374 . S
C320 C318 1.500 . S
C320 C321 1.377 . S
C320 C325 1.377 . S
C321 C320 1.377 . S
C321 C322 1.395 . S
C321 H350 0.931 . S
C322 C321 1.395 . S
C322 C323 1.383 . S
C322 H351 0.931 . S
C323 C322 1.383 . S
C323 C324 1.394 . S
C324 C323 1.394 . S
C324 C325 1.378 . S
C324 H352 0.931 . S
C325 C320 1.377 . S
C325 C324 1.378 . S
C325 H353 0.931 . S
C326 O340 1.259 . S
C326 O341 1.270 . S
C327 O342 1.251 . S
C327 O343 1.251 . S
C328 Eu329 2.835 . S
C328 C330 1.500 . S
C328 O344 1.257 . S
C328 O345 1.260 . S
Eu329 C328 2.835 . S
Eu329 O341 2.355 . S
Eu329 O343 2.374 . S
Eu329 O344 2.473 . S
Eu329 O345 2.480 . S
Eu329 O346 2.430 . S
Eu329 O347 2.670 . S
Eu329 O348 2.394 . S
C330 C328 1.500 . S
C330 C331 1.377 . S
C330 C335 1.377 . S
C331 C330 1.377 . S
C331 C332 1.395 . S
C331 H354 0.931 . S
C332 C331 1.395 . S
C332 C333 1.383 . S
C332 H355 0.931 . S
C333 C332 1.383 . S
C333 C334 1.394 . S
C334 C333 1.394 . S
C334 C335 1.378 . S
C334 H356 0.931 . S
C335 C330 1.377 . S
C335 C334 1.378 . S
C335 H357 0.931 . S
C336 O346 1.259 . S
C336 O347 1.270 . S
C337 O348 1.251 . S
C337 O349 1.251 . S
O338 C318 1.257 . S
O338 Eu319 2.473 . S
O339 C318 1.260 . S
O339 Eu319 2.480 . S
O340 Eu319 2.430 . S
O340 C326 1.259 . S
O341 Eu319 2.670 . S
O341 C326 1.270 . S
O341 Eu329 2.355 . S
O342 Eu319 2.394 . S
O342 C327 1.251 . S
O343 C327 1.251 . S
O343 Eu329 2.374 . S
O344 C328 1.257 . S
O344 Eu329 2.473 . S
O345 C328 1.260 . S
O345 Eu329 2.480 . S
O346 Eu329 2.430 . S
O346 C336 1.259 . S
O347 Eu319 2.355 . S
O347 Eu329 2.670 . S
O347 C336 1.270 . S
O348 Eu329 2.394 . S
O348 C337 1.251 . S
O349 Eu319 2.374 . S
O349 C337 1.251 . S
H350 C321 0.931 . S
H351 C322 0.931 . S
H352 C324 0.931 . S
H353 C325 0.931 . S
H354 C331 0.931 . S
H355 C332 0.931 . S
H356 C334 0.931 . S
H357 C335 0.931 . S
C358 Eu359 2.835 . S
C358 C360 1.500 . S
C358 O378 1.257 . S
C358 O379 1.260 . S
Eu359 C358 2.835 . S
Eu359 O378 2.473 . S
Eu359 O379 2.480 . S
Eu359 O380 2.430 . S
Eu359 O381 2.670 . S
Eu359 O382 2.394 . S
Eu359 O387 2.355 . S
Eu359 O389 2.374 . S
C360 C358 1.500 . S
C360 C361 1.377 . S
C360 C365 1.377 . S
C361 C360 1.377 . S
C361 C362 1.395 . S
C361 H390 0.931 . S
C362 C361 1.395 . S
C362 C363 1.383 . S
C362 H391 0.931 . S
C363 C362 1.383 . S
C363 C364 1.394 . S
C364 C363 1.394 . S
C364 C365 1.378 . S
C364 H392 0.931 . S
C365 C360 1.377 . S
C365 C364 1.378 . S
C365 H393 0.931 . S
C366 O380 1.259 . S
C366 O381 1.270 . S
C367 O382 1.251 . S
C367 O383 1.251 . S
C368 Eu369 2.835 . S
C368 C370 1.500 . S
C368 O384 1.257 . S
C368 O385 1.260 . S
Eu369 C368 2.835 . S
Eu369 O381 2.355 . S
Eu369 O383 2.374 . S
Eu369 O384 2.473 . S
Eu369 O385 2.480 . S
Eu369 O386 2.430 . S
Eu369 O387 2.670 . S
Eu369 O388 2.394 . S
C370 C368 1.500 . S
C370 C371 1.377 . S
C370 C375 1.377 . S
C371 C370 1.377 . S
C371 C372 1.395 . S
C371 H394 0.931 . S
C372 C371 1.395 . S
C372 C373 1.383 . S
C372 H395 0.931 . S
C373 C372 1.383 . S
C373 C374 1.394 . S
C374 C373 1.394 . S
C374 C375 1.378 . S
C374 H396 0.931 . S
C375 C370 1.377 . S
C375 C374 1.378 . S
C375 H397 0.931 . S
C376 O386 1.259 . S
C376 O387 1.270 . S
C377 O388 1.251 . S
C377 O389 1.251 . S
O378 C358 1.257 . S
O378 Eu359 2.473 . S
O379 C358 1.260 . S
O379 Eu359 2.480 . S
O380 Eu359 2.430 . S
O380 C366 1.259 . S
O381 Eu359 2.670 . S
O381 C366 1.270 . S
O381 Eu369 2.355 . S
O382 Eu359 2.394 . S
O382 C367 1.251 . S
O383 C367 1.251 . S
O383 Eu369 2.374 . S
O384 C368 1.257 . S
O384 Eu369 2.473 . S
O385 C368 1.260 . S
O385 Eu369 2.480 . S
O386 Eu369 2.430 . S
O386 C376 1.259 . S
O387 Eu359 2.355 . S
O387 Eu369 2.670 . S
O387 C376 1.270 . S
O388 Eu369 2.394 . S
O388 C377 1.251 . S
O389 Eu359 2.374 . S
O389 C377 1.251 . S
H390 C361 0.931 . S
H391 C362 0.931 . S
H392 C364 0.931 . S
H393 C365 0.931 . S
H394 C371 0.931 . S
H395 C372 0.931 . S
H396 C374 0.931 . S
H397 C375 0.931 . S
C398 Eu399 2.835 . S
C398 C400 1.500 . S
C398 O418 1.257 . S
C398 O419 1.260 . S
Eu399 C398 2.835 . S
Eu399 O418 2.473 . S
Eu399 O419 2.480 . S
Eu399 O420 2.430 . S
Eu399 O421 2.670 . S
Eu399 O422 2.394 . S
Eu399 O427 2.355 . S
Eu399 O429 2.374 . S
C400 C398 1.500 . S
C400 C401 1.377 . S
C400 C405 1.377 . S
C401 C400 1.377 . S
C401 C402 1.395 . S
C401 H430 0.931 . S
C402 C401 1.395 . S
C402 C403 1.383 . S
C402 H431 0.931 . S
C403 C402 1.383 . S
C403 C404 1.394 . S
C404 C403 1.394 . S
C404 C405 1.378 . S
C404 H432 0.931 . S
C405 C400 1.377 . S
C405 C404 1.378 . S
C405 H433 0.931 . S
C406 O420 1.259 . S
C406 O421 1.270 . S
C407 O422 1.251 . S
C407 O423 1.251 . S
C408 Eu409 2.835 . S
C408 C410 1.500 . S
C408 O424 1.257 . S
C408 O425 1.260 . S
Eu409 C408 2.835 . S
Eu409 O421 2.355 . S
Eu409 O423 2.374 . S
Eu409 O424 2.473 . S
Eu409 O425 2.480 . S
Eu409 O426 2.430 . S
Eu409 O427 2.670 . S
Eu409 O428 2.394 . S
C410 C408 1.500 . S
C410 C411 1.377 . S
C410 C415 1.377 . S
C411 C410 1.377 . S
C411 C412 1.395 . S
C411 H434 0.931 . S
C412 C411 1.395 . S
C412 C413 1.383 . S
C412 H435 0.931 . S
C413 C412 1.383 . S
C413 C414 1.394 . S
C414 C413 1.394 . S
C414 C415 1.378 . S
C414 H436 0.931 . S
C415 C410 1.377 . S
C415 C414 1.378 . S
C415 H437 0.931 . S
C416 O426 1.259 . S
C416 O427 1.270 . S
C417 O428 1.251 . S
C417 O429 1.251 . S
O418 C398 1.257 . S
O418 Eu399 2.473 . S
O419 C398 1.260 . S
O419 Eu399 2.480 . S
O420 Eu399 2.430 . S
O420 C406 1.259 . S
O421 Eu399 2.670 . S
O421 C406 1.270 . S
O421 Eu409 2.355 . S
O422 Eu399 2.394 . S
O422 C407 1.251 . S
O423 C407 1.251 . S
O423 Eu409 2.374 . S
O424 C408 1.257 . S
O424 Eu409 2.473 . S
O425 C408 1.260 . S
O425 Eu409 2.480 . S
O426 Eu409 2.430 . S
O426 C416 1.259 . S
O427 Eu399 2.355 . S
O427 Eu409 2.670 . S
O427 C416 1.270 . S
O428 Eu409 2.394 . S
O428 C417 1.251 . S
O429 Eu399 2.374 . S
O429 C417 1.251 . S
H430 C401 0.931 . S
H431 C402 0.931 . S
H432 C404 0.931 . S
H433 C405 0.931 . S
H434 C411 0.931 . S
H435 C412 0.931 . S
H436 C414 0.931 . S
H437 C415 0.931 . S
C438 Eu439 2.835 . S
C438 C440 1.500 . S
C438 O458 1.257 . S
C438 O459 1.260 . S
Eu439 C438 2.835 . S
Eu439 O458 2.473 . S
Eu439 O459 2.480 . S
Eu439 O460 2.430 . S
Eu439 O461 2.670 . S
Eu439 O462 2.394 . S
Eu439 O467 2.355 . S
Eu439 O469 2.374 . S
C440 C438 1.500 . S
C440 C441 1.377 . S
C440 C445 1.377 . S
C441 C440 1.377 . S
C441 C442 1.395 . S
C441 H470 0.931 . S
C442 C441 1.395 . S
C442 C443 1.383 . S
C442 H471 0.931 . S
C443 C442 1.383 . S
C443 C444 1.394 . S
C444 C443 1.394 . S
C444 C445 1.378 . S
C444 H472 0.931 . S
C445 C440 1.377 . S
C445 C444 1.378 . S
C445 H473 0.931 . S
C446 O460 1.259 . S
C446 O461 1.270 . S
C447 O462 1.251 . S
C447 O463 1.251 . S
C448 Eu449 2.835 . S
C448 C450 1.500 . S
C448 O464 1.257 . S
C448 O465 1.260 . S
Eu449 C448 2.835 . S
Eu449 O461 2.355 . S
Eu449 O463 2.374 . S
Eu449 O464 2.473 . S
Eu449 O465 2.480 . S
Eu449 O466 2.430 . S
Eu449 O467 2.670 . S
Eu449 O468 2.394 . S
C450 C448 1.500 . S
C450 C451 1.377 . S
C450 C455 1.377 . S
C451 C450 1.377 . S
C451 C452 1.395 . S
C451 H474 0.931 . S
C452 C451 1.395 . S
C452 C453 1.383 . S
C452 H475 0.931 . S
C453 C452 1.383 . S
C453 C454 1.394 . S
C454 C453 1.394 . S
C454 C455 1.378 . S
C454 H476 0.931 . S
C455 C450 1.377 . S
C455 C454 1.378 . S
C455 H477 0.931 . S
C456 O466 1.259 . S
C456 O467 1.270 . S
C457 O468 1.251 . S
C457 O469 1.251 . S
O458 C438 1.257 . S
O458 Eu439 2.473 . S
O459 C438 1.260 . S
O459 Eu439 2.480 . S
O460 Eu439 2.430 . S
O460 C446 1.259 . S
O461 Eu439 2.670 . S
O461 C446 1.270 . S
O461 Eu449 2.355 . S
O462 Eu439 2.394 . S
O462 C447 1.251 . S
O463 C447 1.251 . S
O463 Eu449 2.374 . S
O464 C448 1.257 . S
O464 Eu449 2.473 . S
O465 C448 1.260 . S
O465 Eu449 2.480 . S
O466 Eu449 2.430 . S
O466 C456 1.259 . S
O467 Eu439 2.355 . S
O467 Eu449 2.670 . S
O467 C456 1.270 . S
O468 Eu449 2.394 . S
O468 C457 1.251 . S
O469 Eu439 2.374 . S
O469 C457 1.251 . S
H470 C441 0.931 . S
H471 C442 0.931 . S
H472 C444 0.931 . S
H473 C445 0.931 . S
H474 C451 0.931 . S
H475 C452 0.931 . S
H476 C454 0.931 . S
H477 C455 0.931 . S
C478 Eu479 2.835 . S
C478 C480 1.500 . S
C478 O498 1.257 . S
C478 O499 1.260 . S
Eu479 C478 2.835 . S
Eu479 O498 2.473 . S
Eu479 O499 2.480 . S
Eu479 O500 2.430 . S
Eu479 O501 2.670 . S
Eu479 O502 2.394 . S
Eu479 O507 2.355 . S
Eu479 O509 2.374 . S
C480 C478 1.500 . S
C480 C481 1.377 . S
C480 C485 1.377 . S
C481 C480 1.377 . S
C481 C482 1.395 . S
C481 H510 0.931 . S
C482 C481 1.395 . S
C482 C483 1.383 . S
C482 H511 0.931 . S
C483 C482 1.383 . S
C483 C484 1.394 . S
C484 C483 1.394 . S
C484 C485 1.378 . S
C484 H512 0.931 . S
C485 C480 1.377 . S
C485 C484 1.378 . S
C485 H513 0.931 . S
C486 O500 1.259 . S
C486 O501 1.270 . S
C487 O502 1.251 . S
C487 O503 1.251 . S
C488 Eu489 2.835 . S
C488 C490 1.500 . S
C488 O504 1.257 . S
C488 O505 1.260 . S
Eu489 C488 2.835 . S
Eu489 O501 2.355 . S
Eu489 O503 2.374 . S
Eu489 O504 2.473 . S
Eu489 O505 2.480 . S
Eu489 O506 2.430 . S
Eu489 O507 2.670 . S
Eu489 O508 2.394 . S
C490 C488 1.500 . S
C490 C491 1.377 . S
C490 C495 1.377 . S
C491 C490 1.377 . S
C491 C492 1.395 . S
C491 H514 0.931 . S
C492 C491 1.395 . S
C492 C493 1.383 . S
C492 H515 0.931 . S
C493 C492 1.383 . S
C493 C494 1.394 . S
C494 C493 1.394 . S
C494 C495 1.378 . S
C494 H516 0.931 . S
C495 C490 1.377 . S
C495 C494 1.378 . S
C495 H517 0.931 . S
C496 O506 1.259 . S
C496 O507 1.270 . S
C497 O508 1.251 . S
C497 O509 1.251 . S
O498 C478 1.257 . S
O498 Eu479 2.473 . S
O499 C478 1.260 . S
O499 Eu479 2.480 . S
O500 Eu479 2.430 . S
O500 C486 1.259 . S
O501 Eu479 2.670 . S
O501 C486 1.270 . S
O501 Eu489 2.355 . S
O502 Eu479 2.394 . S
O502 C487 1.251 . S
O503 C487 1.251 . S
O503 Eu489 2.374 . S
O504 C488 1.257 . S
O504 Eu489 2.473 . S
O505 C488 1.260 . S
O505 Eu489 2.480 . S
O506 Eu489 2.430 . S
O506 C496 1.259 . S
O507 Eu479 2.355 . S
O507 Eu489 2.670 . S
O507 C496 1.270 . S
O508 Eu489 2.394 . S
O508 C497 1.251 . S
O509 Eu479 2.374 . S
O509 C497 1.251 . S
H510 C481 0.931 . S
H511 C482 0.931 . S
H512 C484 0.931 . S
H513 C485 0.931 . S
H514 C491 0.931 . S
H515 C492 0.931 . S
H516 C494 0.931 . S
H517 C495 0.931 . S
C518 Eu519 2.835 . S
C518 C520 1.500 . S
C518 O538 1.257 . S
C518 O539 1.260 . S
Eu519 C518 2.835 . S
Eu519 O538 2.473 . S
Eu519 O539 2.480 . S
Eu519 O540 2.430 . S
Eu519 O541 2.670 . S
Eu519 O542 2.394 . S
Eu519 O547 2.355 . S
Eu519 O549 2.374 . S
C520 C518 1.500 . S
C520 C521 1.377 . S
C520 C525 1.377 . S
C521 C520 1.377 . S
C521 C522 1.395 . S
C521 H550 0.931 . S
C522 C521 1.395 . S
C522 C523 1.383 . S
C522 H551 0.931 . S
C523 C522 1.383 . S
C523 C524 1.394 . S
C524 C523 1.394 . S
C524 C525 1.378 . S
C524 H552 0.931 . S
C525 C520 1.377 . S
C525 C524 1.378 . S
C525 H553 0.931 . S
C526 O540 1.259 . S
C526 O541 1.270 . S
C527 O542 1.251 . S
C527 O543 1.251 . S
C528 Eu529 2.835 . S
C528 C530 1.500 . S
C528 O544 1.257 . S
C528 O545 1.260 . S
Eu529 C528 2.835 . S
Eu529 O541 2.355 . S
Eu529 O543 2.374 . S
Eu529 O544 2.473 . S
Eu529 O545 2.480 . S
Eu529 O546 2.430 . S
Eu529 O547 2.670 . S
Eu529 O548 2.394 . S
C530 C528 1.500 . S
C530 C531 1.377 . S
C530 C535 1.377 . S
C531 C530 1.377 . S
C531 C532 1.395 . S
C531 H554 0.931 . S
C532 C531 1.395 . S
C532 C533 1.383 . S
C532 H555 0.931 . S
C533 C532 1.383 . S
C533 C534 1.394 . S
C534 C533 1.394 . S
C534 C535 1.378 . S
C534 H556 0.931 . S
C535 C530 1.377 . S
C535 C534 1.378 . S
C535 H557 0.931 . S
C536 O546 1.259 . S
C536 O547 1.270 . S
C537 O548 1.251 . S
C537 O549 1.251 . S
O538 C518 1.257 . S
O538 Eu519 2.473 . S
O539 C518 1.260 . S
O539 Eu519 2.480 . S
O540 Eu519 2.430 . S
O540 C526 1.259 . S
O541 Eu519 2.670 . S
O541 C526 1.270 . S
O541 Eu529 2.355 . S
O542 Eu519 2.394 . S
O542 C527 1.251 . S
O543 C527 1.251 . S
O543 Eu529 2.374 . S
O544 C528 1.257 . S
O544 Eu529 2.473 . S
O545 C528 1.260 . S
O545 Eu529 2.480 . S
O546 Eu529 2.430 . S
O546 C536 1.259 . S
O547 Eu519 2.355 . S
O547 Eu529 2.670 . S
O547 C536 1.270 . S
O548 Eu529 2.394 . S
O548 C537 1.251 . S
O549 Eu519 2.374 . S
O549 C537 1.251 . S
H550 C521 0.931 . S
H551 C522 0.931 . S
H552 C524 0.931 . S
H553 C525 0.931 . S
H554 C531 0.931 . S
H555 C532 0.931 . S
H556 C534 0.931 . S
H557 C535 0.931 . S
H558 C576 0.951 . S
H559 C578 0.951 . S
H560 C580 0.950 . S
H561 C581 0.950 . S
H562 C583 0.950 . S
H563 C586 0.950 . S
H564 C587 0.950 . S
H565 C589 0.950 . S
H566 C590 0.950 . S
H567 C591 0.951 . S
H568 C593 0.951 . S
H569 C595 0.950 . S
H570 C596 0.950 . S
H571 C598 0.950 . S
H572 C601 0.941 1_554 S
H573 C602 0.950 . S
H574 C604 0.950 . S
H575 C605 0.950 . S
C576 H558 0.951 . S
C576 C577 1.366 . S
C576 C578 1.388 . S
C577 C576 1.366 . S
C577 C581 1.385 . S
C578 H559 0.951 . S
C578 C576 1.388 . S
C578 C579 1.366 . S
C579 C578 1.366 . S
C579 C580 1.414 . S
C579 C582 1.499 . S
C580 H560 0.950 . S
C580 C579 1.414 . S
C580 C581 1.374 . S
C581 H561 0.950 . S
C581 C577 1.385 . S
C581 C580 1.374 . S
C582 C579 1.499 . S
C582 C583 1.373 . S
C582 C584 1.389 . S
C583 H562 0.950 . S
C583 C582 1.373 . S
C583 C599 1.377 . S
C584 C582 1.389 . S
C584 C585 1.524 . S
C584 C598 1.377 . S
C585 C584 1.524 . S
C585 C586 1.397 . S
C585 C590 1.363 . S
C586 H563 0.950 . S
C586 C585 1.397 . S
C586 C587 1.334 . S
C587 H564 0.950 . S
C587 C586 1.334 . S
C587 C588 1.287 . S
C588 C587 1.287 . S
C588 C589 1.524 . S
C588 H607 0.913 . S
C589 H565 0.950 . S
C589 C588 1.524 . S
C589 C590 1.415 . S
C590 H566 0.950 . S
C590 C585 1.363 . S
C590 C589 1.415 . S
C591 H567 0.951 . S
C591 C592 1.366 . S
C591 C593 1.388 . S
C592 C591 1.366 . S
C592 C596 1.385 . S
C593 H568 0.951 . S
C593 C591 1.388 . S
C593 C594 1.366 . S
C594 C593 1.366 . S
C594 C595 1.414 . S
C594 C597 1.499 . S
C595 H569 0.950 . S
C595 C594 1.414 . S
C595 C596 1.374 . S
C596 H570 0.950 . S
C596 C592 1.385 . S
C596 C595 1.374 . S
C597 C594 1.499 . S
C597 C598 1.373 . S
C597 C599 1.389 . S
C598 H571 0.950 . S
C598 C584 1.377 . S
C598 C597 1.373 . S
C599 C583 1.377 . S
C599 C597 1.389 . S
C599 C600 1.524 . S
C600 C599 1.524 . S
C600 C601 1.352 1_554 S
C600 C605 1.363 . S
C601 H572 0.941 1_556 S
C601 C600 1.352 1_556 S
C601 C602 1.387 . S
C602 H573 0.950 . S
C602 C601 1.387 . S
C602 C603 1.287 . S
C603 C602 1.287 . S
C603 C604 1.524 . S
C603 H606 0.999 . S
C604 H574 0.950 . S
C604 C603 1.524 . S
C604 C605 1.415 1_556 S
C605 H575 0.950 . S
C605 C600 1.363 . S
C605 C604 1.415 1_554 S
H606 C603 0.999 . S
H607 C588 0.913 . S
H608 C626 0.951 . S
H609 C628 0.951 . S
H610 C630 0.950 . S
H611 C631 0.950 . S
H612 C633 0.950 . S
H613 C636 0.950 . S
H614 C637 0.950 . S
H615 C639 0.950 . S
H616 C640 0.950 . S
H617 C641 0.951 . S
H618 C643 0.951 . S
H619 C645 0.950 . S
H620 C646 0.950 . S
H621 C648 0.950 . S
H622 C651 0.950 . S
H623 C652 0.950 . S
H624 C654 0.950 . S
H625 C655 0.950 . S
C626 H608 0.951 . S
C626 C627 1.366 . S
C626 C628 1.388 . S
C627 C626 1.366 . S
C627 C631 1.385 . S
C628 H609 0.951 . S
C628 C626 1.388 . S
C628 C629 1.366 . S
C629 C628 1.366 . S
C629 C630 1.414 . S
C629 C632 1.499 . S
C630 H610 0.950 . S
C630 C629 1.414 . S
C630 C631 1.374 . S
C631 H611 0.950 . S
C631 C627 1.385 . S
C631 C630 1.374 . S
C632 C629 1.499 . S
C632 C633 1.373 . S
C632 C634 1.389 . S
C633 H612 0.950 . S
C633 C632 1.373 . S
C633 C649 1.377 . S
C634 C632 1.389 . S
C634 C635 1.524 . S
C634 C648 1.377 . S
C635 C634 1.524 . S
C635 C636 1.397 . S
C635 C640 1.363 . S
C636 H613 0.950 . S
C636 C635 1.397 . S
C636 C637 1.334 . S
C637 H614 0.950 . S
C637 C636 1.334 . S
C637 C638 1.287 . S
C638 C637 1.287 . S
C638 C639 1.524 . S
C638 H657 0.913 . S
C639 H615 0.950 . S
C639 C638 1.524 . S
C639 C640 1.415 . S
C640 H616 0.950 . S
C640 C635 1.363 . S
C640 C639 1.415 . S
C641 H617 0.951 . S
C641 C642 1.366 . S
C641 C643 1.388 . S
C642 C641 1.366 . S
C642 C646 1.385 . S
C643 H618 0.951 . S
C643 C641 1.388 . S
C643 C644 1.366 . S
C644 C643 1.366 . S
C644 C645 1.414 . S
C644 C647 1.499 . S
C645 H619 0.950 . S
C645 C644 1.414 . S
C645 C646 1.374 . S
C646 H620 0.950 . S
C646 C642 1.385 . S
C646 C645 1.374 . S
C647 C644 1.499 . S
C647 C648 1.373 . S
C647 C649 1.389 . S
C648 H621 0.950 . S
C648 C634 1.377 . S
C648 C647 1.373 . S
C649 C633 1.377 . S
C649 C647 1.389 . S
C649 C650 1.524 . S
C650 C649 1.524 . S
C650 C651 1.397 . S
C650 C655 1.363 . S
C651 H622 0.950 . S
C651 C650 1.397 . S
C651 C652 1.334 . S
C652 H623 0.950 . S
C652 C651 1.334 . S
C652 C653 1.287 . S
C653 C652 1.287 . S
C653 C654 1.524 . S
C653 H656 0.999 . S
C654 H624 0.950 . S
C654 C653 1.524 . S
C654 C655 1.415 . S
C655 H625 0.950 . S
C655 C650 1.363 . S
C655 C654 1.415 . S
H656 C653 0.999 . S
H657 C638 0.913 . S
H658 C676 0.951 . S
H659 C678 0.951 . S
H660 C680 0.950 . S
H661 C681 0.950 . S
H662 C683 0.950 . S
H663 C686 0.950 . S
H664 C687 0.950 . S
H665 C689 0.950 . S
H666 C690 0.950 . S
H667 C691 0.951 . S
H668 C693 0.951 . S
H669 C695 0.950 . S
H670 C696 0.950 . S
H671 C698 0.950 . S
H672 C701 0.981 . S
H673 C702 0.950 . S
H674 C704 0.950 . S
H675 C705 0.960 . S
C676 H658 0.951 . S
C676 C677 1.366 . S
C676 C678 1.388 . S
C677 C676 1.366 . S
C677 C681 1.385 . S
C678 H659 0.951 . S
C678 C676 1.388 . S
C678 C679 1.366 . S
C679 C678 1.366 . S
C679 C680 1.414 . S
C679 C682 1.499 . S
C680 H660 0.950 . S
C680 C679 1.414 . S
C680 C681 1.374 . S
C681 H661 0.950 . S
C681 C677 1.385 . S
C681 C680 1.374 . S
C682 C679 1.499 . S
C682 C683 1.373 . S
C682 C684 1.389 . S
C683 H662 0.950 . S
C683 C682 1.373 . S
C683 C699 1.377 . S
C684 C682 1.389 . S
C684 C685 1.524 . S
C684 C698 1.377 . S
C685 C684 1.524 . S
C685 C686 1.397 . S
C685 C690 1.363 . S
C686 H663 0.950 . S
C686 C685 1.397 . S
C686 C687 1.334 . S
C687 H664 0.950 . S
C687 C686 1.334 . S
C687 C688 1.287 . S
C688 C687 1.287 . S
C688 C689 1.524 . S
C688 H707 0.913 . S
C689 H665 0.950 . S
C689 C688 1.524 . S
C689 C690 1.415 . S
C690 H666 0.950 . S
C690 C685 1.363 . S
C690 C689 1.415 . S
C691 H667 0.951 . S
C691 C692 1.366 . S
C691 C693 1.388 . S
C692 C691 1.366 . S
C692 C696 1.385 . S
C693 H668 0.951 . S
C693 C691 1.388 . S
C693 C694 1.366 . S
C694 C693 1.366 . S
C694 C695 1.414 . S
C694 C697 1.499 . S
C695 H669 0.950 . S
C695 C694 1.414 . S
C695 C696 1.374 . S
C696 H670 0.950 . S
C696 C692 1.385 . S
C696 C695 1.374 . S
C697 C694 1.499 . S
C697 C698 1.373 . S
C697 C699 1.389 . S
C698 H671 0.950 . S
C698 C684 1.377 . S
C698 C697 1.373 . S
C699 C683 1.377 . S
C699 C697 1.389 . S
C699 C700 1.524 . S
C700 C699 1.524 . S
C700 C701 1.397 1_554 S
C700 C705 1.363 1_554 S
C701 H672 0.981 . S
C701 C700 1.397 1_556 S
C701 C702 1.334 . S
C702 H673 0.950 . S
C702 C701 1.334 . S
C702 C703 1.287 . S
C703 C702 1.287 . S
C703 C704 1.524 . S
C703 H706 0.999 . S
C704 H674 0.950 . S
C704 C703 1.524 . S
C704 C705 1.415 . S
C705 H675 0.960 . S
C705 C700 1.363 1_556 S
C705 C704 1.415 . S
H706 C703 0.999 . S
H707 C688 0.913 . S
H708 C726 0.951 . S
H709 C728 0.951 . S
H710 C730 0.950 . S
H711 C731 0.950 . S
H712 C733 0.950 . S
H713 C736 0.950 . S
H714 C737 0.950 . S
H715 C739 0.950 . S
H716 C740 0.950 . S
H717 C741 0.951 . S
H718 C743 0.951 . S
H719 C745 0.950 . S
H720 C746 0.950 . S
H721 C748 0.950 . S
H722 C751 0.950 . S
H723 C752 0.950 . S
H724 C754 0.950 . S
H725 C755 1.006 . S
C726 H708 0.951 . S
C726 C727 1.366 . S
C726 C728 1.388 . S
C727 C726 1.366 . S
C727 C731 1.385 . S
C728 H709 0.951 . S
C728 C726 1.388 . S
C728 C729 1.366 . S
C729 C728 1.366 . S
C729 C730 1.414 . S
C729 C732 1.499 . S
C730 H710 0.950 . S
C730 C729 1.414 . S
C730 C731 1.374 . S
C731 H711 0.950 . S
C731 C727 1.385 . S
C731 C730 1.374 . S
C732 C729 1.499 . S
C732 C733 1.373 . S
C732 C734 1.389 . S
C733 H712 0.950 . S
C733 C732 1.373 . S
C733 C749 1.377 . S
C734 C732 1.389 . S
C734 C735 1.524 . S
C734 C748 1.377 . S
C735 C734 1.524 . S
C735 C736 1.397 . S
C735 C740 1.363 . S
C736 H713 0.950 . S
C736 C735 1.397 . S
C736 C737 1.334 . S
C737 H714 0.950 . S
C737 C736 1.334 . S
C737 C738 1.287 . S
C738 C737 1.287 . S
C738 C739 1.524 . S
C738 H757 0.913 . S
C739 H715 0.950 . S
C739 C738 1.524 . S
C739 C740 1.415 . S
C740 H716 0.950 . S
C740 C735 1.363 . S
C740 C739 1.415 . S
C741 H717 0.951 . S
C741 C742 1.366 1_556 S
C741 C743 1.388 . S
C742 C741 1.366 1_554 S
C742 C746 1.385 . S
C743 H718 0.951 . S
C743 C741 1.388 . S
C743 C744 1.366 . S
C744 C743 1.366 . S
C744 C745 1.414 . S
C744 C747 1.499 . S
C745 H719 0.950 . S
C745 C744 1.414 . S
C745 C746 1.374 1_556 S
C746 H720 0.950 . S
C746 C742 1.385 . S
C746 C745 1.374 1_554 S
C747 C744 1.499 . S
C747 C748 1.373 . S
C747 C749 1.389 . S
C748 H721 0.950 . S
C748 C734 1.377 . S
C748 C747 1.373 . S
C749 C733 1.377 . S
C749 C747 1.389 . S
C749 C750 1.524 1_556 S
C750 C749 1.524 1_554 S
C750 C751 1.397 . S
C750 C755 1.363 . S
C751 H722 0.950 . S
C751 C750 1.397 . S
C751 C752 1.334 . S
C752 H723 0.950 . S
C752 C751 1.334 . S
C752 C753 1.287 . S
C753 C752 1.287 . S
C753 C754 1.524 . S
C753 H756 0.999 . S
C754 H724 0.950 . S
C754 C753 1.524 . S
C754 C755 1.415 . S
C755 H725 1.006 . S
C755 C750 1.363 . S
C755 C754 1.415 . S
H756 C753 0.999 . S
H757 C738 0.913 . S
H758 C776 0.951 . S
H759 C778 0.951 . S
H760 C780 0.950 . S
H761 C781 0.950 . S
H762 C783 0.950 . S
H763 C786 0.950 . S
H764 C787 0.950 . S
H765 C789 0.950 . S
H766 C790 0.950 . S
H767 C791 0.951 . S
H768 C793 0.951 . S
H769 C795 0.950 . S
H770 C796 0.950 . S
H771 C798 0.950 . S
H772 C801 0.950 . S
H773 C802 0.950 . S
H774 C804 0.950 . S
H775 C805 0.950 . S
C776 H758 0.951 . S
C776 C777 1.366 . S
C776 C778 1.388 . S
C777 C776 1.366 . S
C777 C781 1.385 . S
C778 H759 0.951 . S
C778 C776 1.388 . S
C778 C779 1.366 . S
C779 C778 1.366 . S
C779 C780 1.414 . S
C779 C782 1.499 . S
C780 H760 0.950 . S
C780 C779 1.414 . S
C780 C781 1.374 . S
C781 H761 0.950 . S
C781 C777 1.385 . S
C781 C780 1.374 . S
C782 C779 1.499 . S
C782 C783 1.373 . S
C782 C784 1.389 . S
C783 H762 0.950 . S
C783 C782 1.373 . S
C783 C799 1.377 . S
C784 C782 1.389 . S
C784 C785 1.524 . S
C784 C798 1.377 . S
C785 C784 1.524 . S
C785 C786 1.397 . S
C785 C790 1.363 . S
C786 H763 0.950 . S
C786 C785 1.397 . S
C786 C787 1.334 . S
C787 H764 0.950 . S
C787 C786 1.334 . S
C787 C788 1.287 . S
C788 C787 1.287 . S
C788 C789 1.524 . S
C788 H807 0.913 . S
C789 H765 0.950 . S
C789 C788 1.524 . S
C789 C790 1.415 . S
C790 H766 0.950 . S
C790 C785 1.363 . S
C790 C789 1.415 . S
C791 H767 0.951 . S
C791 C792 1.366 1_554 S
C791 C793 1.388 . S
C792 C791 1.366 1_556 S
C792 C796 1.385 . S
C793 H768 0.951 . S
C793 C791 1.388 . S
C793 C794 1.366 1_554 S
C794 C793 1.366 1_556 S
C794 C795 1.414 . S
C794 C797 1.499 . S
C795 H769 0.950 . S
C795 C794 1.414 . S
C795 C796 1.374 . S
C796 H770 0.950 . S
C796 C792 1.385 . S
C796 C795 1.374 . S
C797 C794 1.499 . S
C797 C798 1.373 . S
C797 C799 1.389 . S
C798 H771 0.950 . S
C798 C784 1.377 . S
C798 C797 1.373 . S
C799 C783 1.377 . S
C799 C797 1.389 . S
C799 C800 1.524 . S
C800 C799 1.524 . S
C800 C801 1.397 . S
C800 C805 1.363 1_556 S
C801 H772 0.950 . S
C801 C800 1.397 . S
C801 C802 1.334 . S
C802 H773 0.950 . S
C802 C801 1.334 . S
C802 C803 1.287 1_556 S
C803 C802 1.287 1_554 S
C803 C804 1.524 . S
C803 H806 0.999 . S
C804 H774 0.950 . S
C804 C803 1.524 . S
C804 C805 1.415 . S
C805 H775 0.950 . S
C805 C800 1.363 1_554 S
C805 C804 1.415 . S
H806 C803 0.999 . S
H807 C788 0.913 . S
H808 C826 0.951 . S
H809 C828 0.951 . S
H810 C830 0.950 . S
H811 C831 0.950 . S
H812 C833 0.950 . S
H813 C836 0.950 . S
H814 C837 0.950 . S
H815 C839 0.950 . S
H816 C840 0.950 . S
H817 C841 0.951 . S
H818 C843 0.951 . S
H819 C845 0.950 . S
H820 C846 0.950 . S
H821 C848 0.950 . S
H822 C851 0.950 . S
H823 C852 0.950 . S
H824 C854 0.950 . S
H825 C855 0.950 . S
C826 H808 0.951 . S
C826 C827 1.366 . S
C826 C828 1.388 . S
C827 C826 1.366 . S
C827 C831 1.385 . S
C828 H809 0.951 . S
C828 C826 1.388 . S
C828 C829 1.366 . S
C829 C828 1.366 . S
C829 C830 1.414 . S
C829 C832 1.499 . S
C830 H810 0.950 . S
C830 C829 1.414 . S
C830 C831 1.374 . S
C831 H811 0.950 . S
C831 C827 1.385 . S
C831 C830 1.374 . S
C832 C829 1.499 . S
C832 C833 1.373 . S
C832 C834 1.389 1_556 S
C833 H812 0.950 . S
C833 C832 1.373 . S
C833 C849 1.377 . S
C834 C832 1.389 1_554 S
C834 C835 1.524 . S
C834 C848 1.377 . S
C835 C834 1.524 . S
C835 C836 1.397 . S
C835 C840 1.363 . S
C836 H813 0.950 . S
C836 C835 1.397 . S
C836 C837 1.334 . S
C837 H814 0.950 . S
C837 C836 1.334 . S
C837 C838 1.287 . S
C838 C837 1.287 . S
C838 C839 1.524 . S
C838 H857 0.913 . S
C839 H815 0.950 . S
C839 C838 1.524 . S
C839 C840 1.415 . S
C840 H816 0.950 . S
C840 C835 1.363 . S
C840 C839 1.415 . S
C841 H817 0.951 . S
C841 C842 1.366 . S
C841 C843 1.388 . S
C842 C841 1.366 . S
C842 C846 1.385 . S
C843 H818 0.951 . S
C843 C841 1.388 . S
C843 C844 1.366 1_554 S
C844 C843 1.366 1_556 S
C844 C845 1.414 . S
C844 C847 1.499 . S
C845 H819 0.950 . S
C845 C844 1.414 . S
C845 C846 1.374 1_556 S
C846 H820 0.950 . S
C846 C842 1.385 . S
C846 C845 1.374 1_554 S
C847 C844 1.499 . S
C847 C848 1.373 1_556 S
C847 C849 1.389 . S
C848 H821 0.950 . S
C848 C834 1.377 . S
C848 C847 1.373 1_554 S
C849 C833 1.377 . S
C849 C847 1.389 . S
C849 C850 1.524 . S
C850 C849 1.524 . S
C850 C851 1.397 . S
C850 C855 1.363 . S
C851 H822 0.950 . S
C851 C850 1.397 . S
C851 C852 1.334 . S
C852 H823 0.950 . S
C852 C851 1.334 . S
C852 C853 1.287 . S
C853 C852 1.287 . S
C853 C854 1.524 . S
C853 H856 0.999 . S
C854 H824 0.950 . S
C854 C853 1.524 . S
C854 C855 1.415 . S
C855 H825 0.950 . S
C855 C850 1.363 . S
C855 C854 1.415 . S
H856 C853 0.999 . S
H857 C838 0.913 . S
H858 C876 0.951 . S
H859 C878 0.951 . S
H860 C880 0.950 . S
H861 C881 0.950 . S
H862 C883 0.950 1_554 S
H863 C886 0.950 . S
H864 C887 0.950 . S
H865 C889 0.950 . S
H866 C890 0.950 . S
H867 C891 0.951 . S
H868 C893 0.951 . S
H869 C895 0.950 . S
H870 C896 0.950 . S
H871 C898 0.950 . S
H872 C901 0.950 . S
H873 C902 0.950 . S
H874 C904 0.950 . S
H875 C905 0.950 . S
C876 H858 0.951 . S
C876 C877 1.366 . S
C876 C878 1.388 . S
C877 C876 1.366 . S
C877 C881 1.385 . S
C878 H859 0.951 . S
C878 C876 1.388 . S
C878 C879 1.366 . S
C879 C878 1.366 . S
C879 C880 1.414 . S
C879 C882 1.499 . S
C880 H860 0.950 . S
C880 C879 1.414 . S
C880 C881 1.374 . S
C881 H861 0.950 . S
C881 C877 1.385 . S
C881 C880 1.374 . S
C882 C879 1.499 . S
C882 C883 1.373 . S
C882 C884 1.389 . S
C883 H862 0.950 1_556 S
C883 C882 1.373 . S
C883 C899 1.376 1_556 S
C884 C882 1.389 . S
C884 C885 1.524 . S
C884 C898 1.377 . S
C885 C884 1.524 . S
C885 C886 1.397 . S
C885 C890 1.363 . S
C886 H863 0.950 . S
C886 C885 1.397 . S
C886 C887 1.334 . S
C887 H864 0.950 . S
C887 C886 1.334 . S
C887 C888 1.287 . S
C888 C887 1.287 . S
C888 C889 1.524 . S
C888 H907 0.913 . S
C889 H865 0.950 . S
C889 C888 1.524 . S
C889 C890 1.415 . S
C890 H866 0.950 . S
C890 C885 1.363 . S
C890 C889 1.415 . S
C891 H867 0.951 . S
C891 C892 1.366 1_554 S
C891 C893 1.388 . S
C892 C891 1.366 1_556 S
C892 C896 1.385 . S
C893 H868 0.951 . S
C893 C891 1.388 . S
C893 C894 1.366 1_554 S
C894 C893 1.366 1_556 S
C894 C895 1.414 . S
C894 C897 1.499 . S
C895 H869 0.950 . S
C895 C894 1.414 . S
C895 C896 1.374 . S
C896 H870 0.950 . S
C896 C892 1.385 . S
C896 C895 1.374 . S
C897 C894 1.499 . S
C897 C898 1.373 . S
C897 C899 1.389 1_556 S
C898 H871 0.950 . S
C898 C884 1.377 . S
C898 C897 1.373 . S
C899 C883 1.376 1_554 S
C899 C897 1.389 1_554 S
C899 C900 1.525 . S
C900 C899 1.525 . S
C900 C901 1.397 . S
C900 C905 1.363 . S
C901 H872 0.950 . S
C901 C900 1.397 . S
C901 C902 1.334 . S
C902 H873 0.950 . S
C902 C901 1.334 . S
C902 C903 1.287 . S
C903 C902 1.287 . S
C903 C904 1.524 . S
C903 H906 0.999 . S
C904 H874 0.950 . S
C904 C903 1.524 . S
C904 C905 1.415 . S
C905 H875 0.950 . S
C905 C900 1.363 . S
C905 C904 1.415 . S
H906 C903 0.999 . S
H907 C888 0.913 . S
H908 C926 0.951 . S
H909 C928 0.951 . S
H910 C930 0.950 . S
H911 C931 0.950 . S
H912 C933 0.950 . S
H913 C936 0.950 . S
H914 C937 0.950 . S
H915 C939 0.950 . S
H916 C940 0.950 . S
H917 C941 0.958 . S
H918 C943 0.951 1_554 S
H919 C945 0.950 . S
H920 C946 0.950 . S
H921 C948 0.950 . S
H922 C951 0.950 . S
H923 C952 0.950 . S
H924 C954 0.950 . S
H925 C955 0.950 . S
C926 H908 0.951 . S
C926 C927 1.366 . S
C926 C928 1.388 . S
C927 C926 1.366 . S
C927 C931 1.385 . S
C928 H909 0.951 . S
C928 C926 1.388 . S
C928 C929 1.366 . S
C929 C928 1.366 . S
C929 C930 1.414 . S
C929 C932 1.499 . S
C930 H910 0.950 . S
C930 C929 1.414 . S
C930 C931 1.374 . S
C931 H911 0.950 . S
C931 C927 1.385 . S
C931 C930 1.374 . S
C932 C929 1.499 . S
C932 C933 1.373 . S
C932 C934 1.389 . S
C933 H912 0.950 . S
C933 C932 1.373 . S
C933 C949 1.377 . S
C934 C932 1.389 . S
C934 C935 1.524 . S
C934 C948 1.377 . S
C935 C934 1.524 . S
C935 C936 1.397 . S
C935 C940 1.363 . S
C936 H913 0.950 . S
C936 C935 1.397 . S
C936 C937 1.334 . S
C937 H914 0.950 . S
C937 C936 1.334 . S
C937 C938 1.287 . S
C938 C937 1.287 . S
C938 C939 1.524 . S
C938 H957 0.913 . S
C939 H915 0.950 . S
C939 C938 1.524 . S
C939 C940 1.415 . S
C940 H916 0.950 . S
C940 C935 1.363 . S
C940 C939 1.415 . S
C941 H917 0.958 . S
C941 C942 1.361 1_554 S
C941 C943 1.386 1_554 S
C942 C941 1.361 1_556 S
C942 C946 1.385 . S
C943 H918 0.951 1_556 S
C943 C941 1.386 1_556 S
C943 C944 1.366 . S
C944 C943 1.366 . S
C944 C945 1.414 . S
C944 C947 1.499 . S
C945 H919 0.950 . S
C945 C944 1.414 . S
C945 C946 1.374 . S
C946 H920 0.950 . S
C946 C942 1.385 . S
C946 C945 1.374 . S
C947 C944 1.499 . S
C947 C948 1.373 . S
C947 C949 1.389 . S
C948 H921 0.950 . S
C948 C934 1.377 . S
C948 C947 1.373 . S
C949 C933 1.377 . S
C949 C947 1.389 . S
C949 C950 1.524 1_556 S
C950 C949 1.524 1_554 S
C950 C951 1.397 . S
C950 C955 1.363 . S
C951 H922 0.950 . S
C951 C950 1.397 . S
C951 C952 1.334 . S
C952 H923 0.950 . S
C952 C951 1.334 . S
C952 C953 1.287 . S
C953 C952 1.287 . S
C953 C954 1.524 . S
C953 H956 0.999 . S
C954 H924 0.950 . S
C954 C953 1.524 . S
C954 C955 1.415 . S
C955 H925 0.950 . S
C955 C950 1.363 . S
C955 C954 1.415 . S
H956 C953 0.999 . S
H957 C938 0.913 . S
H958 C976 0.951 . S
H959 C978 0.951 . S
H960 C980 0.950 . S
H961 C981 0.950 . S
H962 C983 0.950 . S
H963 C986 0.950 . S
H964 C987 0.950 . S
H965 C989 0.950 . S
H966 C990 0.950 . S
H967 C991 0.951 . S
H968 C993 0.951 . S
H969 C995 0.950 . S
H970 C996 0.950 . S
H971 C998 0.950 . S
H972 C1001 0.945 1_556 S
H973 C1002 0.950 . S
H974 C1004 0.950 . S
H975 C1005 0.950 . S
C976 H958 0.951 . S
C976 C977 1.366 . S
C976 C978 1.388 . S
C977 C976 1.366 . S
C977 C981 1.385 1_556 S
C978 H959 0.951 . S
C978 C976 1.388 . S
C978 C979 1.366 . S
C979 C978 1.366 . S
C979 C980 1.414 1_556 S
C979 C982 1.499 . S
C980 H960 0.950 . S
C980 C979 1.414 1_554 S
C980 C981 1.374 . S
C981 H961 0.950 . S
C981 C977 1.385 1_554 S
C981 C980 1.374 . S
C982 C979 1.499 . S
C982 C983 1.373 1_556 S
C982 C984 1.389 . S
C983 H962 0.950 . S
C983 C982 1.373 1_554 S
C983 C999 1.377 . S
C984 C982 1.389 . S
C984 C985 1.524 . S
C984 C998 1.377 . S
C985 C984 1.524 . S
C985 C986 1.397 . S
C985 C990 1.363 . S
C986 H963 0.950 . S
C986 C985 1.397 . S
C986 C987 1.334 . S
C987 H964 0.950 . S
C987 C986 1.334 . S
C987 C988 1.287 . S
C988 C987 1.287 . S
C988 C989 1.524 . S
C988 H1007 0.913 . S
C989 H965 0.950 . S
C989 C988 1.524 . S
C989 C990 1.415 . S
C990 H966 0.950 . S
C990 C985 1.363 . S
C990 C989 1.415 . S
C991 H967 0.951 . S
C991 C992 1.366 . S
C991 C993 1.388 . S
C992 C991 1.366 . S
C992 C996 1.385 1_554 S
C993 H968 0.951 . S
C993 C991 1.388 . S
C993 C994 1.366 . S
C994 C993 1.366 . S
C994 C995 1.414 1_554 S
C994 C997 1.503 . S
C995 H969 0.950 . S
C995 C994 1.414 1_556 S
C995 C996 1.374 . S
C996 H970 0.950 . S
C996 C992 1.385 1_556 S
C996 C995 1.374 . S
C997 C994 1.503 . S
C997 C998 1.343 1_554 S
C997 C999 1.421 . S
C998 H971 0.950 . S
C998 C984 1.377 . S
C998 C997 1.343 1_556 S
C999 C983 1.377 . S
C999 C997 1.421 . S
C999 C1000 1.524 . S
C1000 C999 1.524 . S
C1000 C1001 1.397 . S
C1000 C1005 1.363 . S
C1001 H972 0.945 1_554 S
C1001 C1000 1.397 . S
C1001 C1002 1.334 . S
C1002 H973 0.950 . S
C1002 C1001 1.334 . S
C1002 C1003 1.287 . S
C1003 C1002 1.287 . S
C1003 C1004 1.524 . S
C1003 H1006 0.999 . S
C1004 H974 0.950 . S
C1004 C1003 1.524 . S
C1004 C1005 1.415 . S
C1005 H975 0.950 . S
C1005 C1000 1.363 . S
C1005 C1004 1.415 . S
H1006 C1003 0.999 . S
H1007 C988 0.913 . S
H1008 C1026 0.951 . S
H1009 C1028 0.951 . S
H1010 C1030 0.950 . S
H1011 C1031 0.950 . S
H1012 C1033 0.950 . S
H1013 C1036 0.950 . S
H1014 C1037 0.950 . S
H1015 C1039 0.950 . S
H1016 C1040 0.950 . S
H1017 C1041 0.951 . S
H1018 C1043 0.951 . S
H1019 C1045 0.950 . S
H1020 C1046 0.950 . S
H1021 C1048 0.950 . S
H1022 C1051 0.950 1_554 S
H1023 C1052 0.950 . S
H1024 C1054 0.950 . S
H1025 C1055 0.950 . S
C1026 H1008 0.951 . S
C1026 C1027 1.366 . S
C1026 C1028 1.388 . S
C1027 C1026 1.366 . S
C1027 C1031 1.385 . S
C1028 H1009 0.951 . S
C1028 C1026 1.388 . S
C1028 C1029 1.366 . S
C1029 C1028 1.366 . S
C1029 C1030 1.414 . S
C1029 C1032 1.499 . S
C1030 H1010 0.950 . S
C1030 C1029 1.414 . S
C1030 C1031 1.374 . S
C1031 H1011 0.950 . S
C1031 C1027 1.385 . S
C1031 C1030 1.374 . S
C1032 C1029 1.499 . S
C1032 C1033 1.373 . S
C1032 C1034 1.389 . S
C1033 H1012 0.950 . S
C1033 C1032 1.373 . S
C1033 C1049 1.377 . S
C1034 C1032 1.389 . S
C1034 C1035 1.524 . S
C1034 C1048 1.377 . S
C1035 C1034 1.524 . S
C1035 C1036 1.397 . S
C1035 C1040 1.363 . S
C1036 H1013 0.950 . S
C1036 C1035 1.397 . S
C1036 C1037 1.334 . S
C1037 H1014 0.950 . S
C1037 C1036 1.334 . S
C1037 C1038 1.287 . S
C1038 C1037 1.287 . S
C1038 C1039 1.524 . S
C1038 H1057 0.913 . S
C1039 H1015 0.950 . S
C1039 C1038 1.524 . S
C1039 C1040 1.415 . S
C1040 H1016 0.950 . S
C1040 C1035 1.363 . S
C1040 C1039 1.415 . S
C1041 H1017 0.951 . S
C1041 C1042 1.366 . S
C1041 C1043 1.388 . S
C1042 C1041 1.366 . S
C1042 C1046 1.385 . S
C1043 H1018 0.951 . S
C1043 C1041 1.388 . S
C1043 C1044 1.366 . S
C1044 C1043 1.366 . S
C1044 C1045 1.414 . S
C1044 C1047 1.499 . S
C1045 H1019 0.950 . S
C1045 C1044 1.414 . S
C1045 C1046 1.374 . S
C1046 H1020 0.950 . S
C1046 C1042 1.385 . S
C1046 C1045 1.374 . S
C1047 C1044 1.499 . S
C1047 C1048 1.373 . S
C1047 C1049 1.389 . S
C1048 H1021 0.950 . S
C1048 C1034 1.377 . S
C1048 C1047 1.373 . S
C1049 C1033 1.377 . S
C1049 C1047 1.389 . S
C1049 C1050 1.551 . S
C1050 C1049 1.551 . S
C1050 C1051 1.396 1_554 S
C1050 C1055 1.339 1_554 S
C1051 H1022 0.950 1_556 S
C1051 C1050 1.396 1_556 S
C1051 C1052 1.334 . S
C1052 H1023 0.950 . S
C1052 C1051 1.334 . S
C1052 C1053 1.287 . S
C1053 C1052 1.287 . S
C1053 C1054 1.524 . S
C1053 H1056 0.999 . S
C1054 H1024 0.950 . S
C1054 C1053 1.524 . S
C1054 C1055 1.415 . S
C1055 H1025 0.950 . S
C1055 C1050 1.339 1_556 S
C1055 C1054 1.415 . S
H1056 C1053 0.999 . S
H1057 C1038 0.913 . S
H1058 C1076 0.951 . S
H1059 C1078 0.951 . S
H1060 C1080 0.950 . S
H1061 C1081 0.950 . S
H1062 C1083 0.950 . S
H1063 C1086 0.950 . S
H1064 C1087 0.950 . S
H1065 C1089 0.950 . S
H1066 C1090 0.950 . S
H1067 C1091 0.951 . S
H1068 C1093 0.951 . S
H1069 C1095 0.950 . S
H1070 C1096 0.950 . S
H1071 C1098 0.950 . S
H1072 C1101 0.950 . S
H1073 C1102 0.950 . S
H1074 C1104 0.950 1_556 S
H1075 C1105 0.950 . S
C1076 H1058 0.951 . S
C1076 C1077 1.366 . S
C1076 C1078 1.388 . S
C1077 C1076 1.366 . S
C1077 C1081 1.385 . S
C1078 H1059 0.951 . S
C1078 C1076 1.388 . S
C1078 C1079 1.366 . S
C1079 C1078 1.366 . S
C1079 C1080 1.414 . S
C1079 C1082 1.499 . S
C1080 H1060 0.950 . S
C1080 C1079 1.414 . S
C1080 C1081 1.374 . S
C1081 H1061 0.950 . S
C1081 C1077 1.385 . S
C1081 C1080 1.374 . S
C1082 C1079 1.499 . S
C1082 C1083 1.373 . S
C1082 C1084 1.389 . S
C1083 H1062 0.950 . S
C1083 C1082 1.373 . S
C1083 C1099 1.377 . S
C1084 C1082 1.389 . S
C1084 C1085 1.524 . S
C1084 C1098 1.377 . S
C1085 C1084 1.524 . S
C1085 C1086 1.397 . S
C1085 C1090 1.363 . S
C1086 H1063 0.950 . S
C1086 C1085 1.397 . S
C1086 C1087 1.334 . S
C1087 H1064 0.950 . S
C1087 C1086 1.334 . S
C1087 C1088 1.287 . S
C1088 C1087 1.287 . S
C1088 C1089 1.524 . S
C1088 H1107 0.913 . S
C1089 H1065 0.950 . S
C1089 C1088 1.524 . S
C1089 C1090 1.415 . S
C1090 H1066 0.950 . S
C1090 C1085 1.363 . S
C1090 C1089 1.415 . S
C1091 H1067 0.951 . S
C1091 C1092 1.366 . S
C1091 C1093 1.388 . S
C1092 C1091 1.366 . S
C1092 C1096 1.385 . S
C1093 H1068 0.951 . S
C1093 C1091 1.388 . S
C1093 C1094 1.366 . S
C1094 C1093 1.366 . S
C1094 C1095 1.414 . S
C1094 C1097 1.499 . S
C1095 H1069 0.950 . S
C1095 C1094 1.414 . S
C1095 C1096 1.374 . S
C1096 H1070 0.950 . S
C1096 C1092 1.385 . S
C1096 C1095 1.374 . S
C1097 C1094 1.499 . S
C1097 C1098 1.373 . S
C1097 C1099 1.389 . S
C1098 H1071 0.950 . S
C1098 C1084 1.377 . S
C1098 C1097 1.373 . S
C1099 C1083 1.377 . S
C1099 C1097 1.389 . S
C1099 C1100 1.524 . S
C1100 C1099 1.524 . S
C1100 C1101 1.397 . S
C1100 C1105 1.363 . S
C1101 H1072 0.950 . S
C1101 C1100 1.397 . S
C1101 C1102 1.334 . S
C1102 H1073 0.950 . S
C1102 C1101 1.334 . S
C1102 C1103 1.287 . S
C1103 C1102 1.287 . S
C1103 C1104 1.524 . S
C1103 H1106 0.999 . S
C1104 H1074 0.950 1_554 S
C1104 C1103 1.524 . S
C1104 C1105 1.415 . S
C1105 H1075 0.950 . S
C1105 C1100 1.363 . S
C1105 C1104 1.415 . S
H1106 C1103 0.999 . S
H1107 C1088 0.913 . S
H1108 C1126 0.951 . S
H1109 C1128 0.951 . S
H1110 C1130 0.950 . S
H1111 C1131 0.950 . S
H1112 C1133 0.950 . S
H1113 C1136 0.948 . S
H1114 C1137 0.950 . S
H1115 C1139 0.950 . S
H1116 C1140 0.950 . S
H1117 C1141 0.951 . S
H1118 C1143 0.951 . S
H1119 C1145 0.950 . S
H1120 C1146 0.950 . S
H1121 C1148 0.950 . S
H1122 C1151 0.950 . S
H1123 C1152 0.950 . S
H1124 C1154 0.950 1_545 S
H1125 C1155 0.950 . S
C1126 H1108 0.951 . S
C1126 C1127 1.366 . S
C1126 C1128 1.388 . S
C1127 C1126 1.366 . S
C1127 C1131 1.385 . S
C1128 H1109 0.951 . S
C1128 C1126 1.388 . S
C1128 C1129 1.366 . S
C1129 C1128 1.366 . S
C1129 C1130 1.414 . S
C1129 C1132 1.499 . S
C1130 H1110 0.950 . S
C1130 C1129 1.414 . S
C1130 C1131 1.374 . S
C1131 H1111 0.950 . S
C1131 C1127 1.385 . S
C1131 C1130 1.374 . S
C1132 C1129 1.499 . S
C1132 C1133 1.373 . S
C1132 C1134 1.389 . S
C1133 H1112 0.950 . S
C1133 C1132 1.373 . S
C1133 C1149 1.377 . S
C1134 C1132 1.389 . S
C1134 C1135 1.524 . S
C1134 C1148 1.377 . S
C1135 C1134 1.524 . S
C1135 C1136 1.397 1_554 S
C1135 C1140 1.363 . S
C1136 H1113 0.948 . S
C1136 C1135 1.397 1_556 S
C1136 C1137 1.334 . S
C1137 H1114 0.950 . S
C1137 C1136 1.334 . S
C1137 C1138 1.287 . S
C1138 C1137 1.287 . S
C1138 C1139 1.524 . S
C1138 H1157 0.913 . S
C1139 H1115 0.950 . S
C1139 C1138 1.524 . S
C1139 C1140 1.415 1_556 S
C1140 H1116 0.950 . S
C1140 C1135 1.363 . S
C1140 C1139 1.415 1_554 S
C1141 H1117 0.951 . S
C1141 C1142 1.366 . S
C1141 C1143 1.388 . S
C1142 C1141 1.366 . S
C1142 C1146 1.385 . S
C1143 H1118 0.951 . S
C1143 C1141 1.388 . S
C1143 C1144 1.366 . S
C1144 C1143 1.366 . S
C1144 C1145 1.414 . S
C1144 C1147 1.499 . S
C1145 H1119 0.950 . S
C1145 C1144 1.414 . S
C1145 C1146 1.374 . S
C1146 H1120 0.950 . S
C1146 C1142 1.385 . S
C1146 C1145 1.374 . S
C1147 C1144 1.499 . S
C1147 C1148 1.373 . S
C1147 C1149 1.389 . S
C1148 H1121 0.950 . S
C1148 C1134 1.377 . S
C1148 C1147 1.373 . S
C1149 C1133 1.377 . S
C1149 C1147 1.389 . S
C1149 C1150 1.524 . S
C1150 C1149 1.524 . S
C1150 C1151 1.397 . S
C1150 C1155 1.363 . S
C1151 H1122 0.950 . S
C1151 C1150 1.397 . S
C1151 C1152 1.334 . S
C1152 H1123 0.950 . S
C1152 C1151 1.334 . S
C1152 C1153 1.287 . S
C1153 C1152 1.287 . S
C1153 C1154 1.524 . S
C1153 H1156 0.999 1_565 S
C1154 H1124 0.950 1_565 S
C1154 C1153 1.524 . S
C1154 C1155 1.415 . S
C1155 H1125 0.950 . S
C1155 C1150 1.363 . S
C1155 C1154 1.415 . S
H1156 C1153 0.999 1_545 S
H1157 C1138 0.913 . S
H1158 C1176 0.951 . S
H1159 C1178 0.951 . S
H1160 C1180 0.950 . S
H1161 C1181 0.950 . S
H1162 C1183 0.950 . S
H1163 C1186 0.950 . S
H1164 C1187 0.950 . S
H1165 C1189 0.950 . S
H1166 C1190 0.950 . S
H1167 C1191 0.951 . S
H1168 C1193 0.951 . S
H1169 C1195 0.950 . S
H1170 C1196 0.950 . S
H1171 C1198 0.951 . S
H1172 C1201 0.950 . S
H1173 C1202 0.950 . S
H1174 C1204 0.950 . S
H1175 C1205 0.950 . S
C1176 H1158 0.951 . S
C1176 C1177 1.366 . S
C1176 C1178 1.388 . S
C1177 C1176 1.366 . S
C1177 C1181 1.385 . S
C1178 H1159 0.951 . S
C1178 C1176 1.388 . S
C1178 C1179 1.366 . S
C1179 C1178 1.366 . S
C1179 C1180 1.414 . S
C1179 C1182 1.499 . S
C1180 H1160 0.950 . S
C1180 C1179 1.414 . S
C1180 C1181 1.374 . S
C1181 H1161 0.950 . S
C1181 C1177 1.385 . S
C1181 C1180 1.374 . S
C1182 C1179 1.499 . S
C1182 C1183 1.373 . S
C1182 C1184 1.389 . S
C1183 H1162 0.950 . S
C1183 C1182 1.373 . S
C1183 C1199 1.377 1_655 S
C1184 C1182 1.389 . S
C1184 C1185 1.524 . S
C1184 C1198 1.379 1_655 S
C1185 C1184 1.524 . S
C1185 C1186 1.397 . S
C1185 C1190 1.363 . S
C1186 H1163 0.950 . S
C1186 C1185 1.397 . S
C1186 C1187 1.334 . S
C1187 H1164 0.950 . S
C1187 C1186 1.334 . S
C1187 C1188 1.287 . S
C1188 C1187 1.287 . S
C1188 C1189 1.524 . S
C1188 H1207 0.913 . S
C1189 H1165 0.950 . S
C1189 C1188 1.524 . S
C1189 C1190 1.415 . S
C1190 H1166 0.950 . S
C1190 C1185 1.363 . S
C1190 C1189 1.415 . S
C1191 H1167 0.951 . S
C1191 C1192 1.366 . S
C1191 C1193 1.388 . S
C1192 C1191 1.366 . S
C1192 C1196 1.385 . S
C1193 H1168 0.951 . S
C1193 C1191 1.388 . S
C1193 C1194 1.366 . S
C1194 C1193 1.366 . S
C1194 C1195 1.414 . S
C1194 C1197 1.499 . S
C1195 H1169 0.950 . S
C1195 C1194 1.414 . S
C1195 C1196 1.374 . S
C1196 H1170 0.950 . S
C1196 C1192 1.385 . S
C1196 C1195 1.374 . S
C1197 C1194 1.499 . S
C1197 C1198 1.371 . S
C1197 C1199 1.389 . S
C1198 H1171 0.951 . S
C1198 C1184 1.379 1_455 S
C1198 C1197 1.371 . S
C1199 C1183 1.377 1_455 S
C1199 C1197 1.389 . S
C1199 C1200 1.524 . S
C1200 C1199 1.524 . S
C1200 C1201 1.397 . S
C1200 C1205 1.363 . S
C1201 H1172 0.950 . S
C1201 C1200 1.397 . S
C1201 C1202 1.334 . S
C1202 H1173 0.950 . S
C1202 C1201 1.334 . S
C1202 C1203 1.287 . S
C1203 C1202 1.287 . S
C1203 C1204 1.524 . S
C1203 H1206 0.999 . S
C1204 H1174 0.950 . S
C1204 C1203 1.524 . S
C1204 C1205 1.415 . S
C1205 H1175 0.950 . S
C1205 C1200 1.363 . S
C1205 C1204 1.415 . S
H1206 C1203 0.999 . S
H1207 C1188 0.913 . S
H1208 C1226 0.951 . S
H1209 C1228 0.951 . S
H1210 C1230 0.950 . S
H1211 C1231 0.950 . S
H1212 C1233 0.950 . S
H1213 C1236 0.950 . S
H1214 C1237 0.950 . S
H1215 C1239 0.950 . S
H1216 C1240 0.950 . S
H1217 C1241 0.951 . S
H1218 C1243 0.951 . S
H1219 C1245 0.950 . S
H1220 C1246 0.950 . S
H1221 C1248 0.950 . S
H1222 C1251 0.950 . S
H1223 C1252 0.950 . S
H1224 C1254 0.950 . S
H1225 C1255 0.950 . S
C1226 H1208 0.951 . S
C1226 C1227 1.366 . S
C1226 C1228 1.388 . S
C1227 C1226 1.366 . S
C1227 C1231 1.385 . S
C1228 H1209 0.951 . S
C1228 C1226 1.388 . S
C1228 C1229 1.366 . S
C1229 C1228 1.366 . S
C1229 C1230 1.414 . S
C1229 C1232 1.499 . S
C1230 H1210 0.950 . S
C1230 C1229 1.414 . S
C1230 C1231 1.374 . S
C1231 H1211 0.950 . S
C1231 C1227 1.385 . S
C1231 C1230 1.374 . S
C1232 C1229 1.499 . S
C1232 C1233 1.373 . S
C1232 C1234 1.389 . S
C1233 H1212 0.950 . S
C1233 C1232 1.373 . S
C1233 C1249 1.377 . S
C1234 C1232 1.389 . S
C1234 C1235 1.524 . S
C1234 C1248 1.377 . S
C1235 C1234 1.524 . S
C1235 C1236 1.397 . S
C1235 C1240 1.363 . S
C1236 H1213 0.950 . S
C1236 C1235 1.397 . S
C1236 C1237 1.334 . S
C1237 H1214 0.950 . S
C1237 C1236 1.334 . S
C1237 C1238 1.287 . S
C1238 C1237 1.287 . S
C1238 C1239 1.524 . S
C1238 H1257 0.913 . S
C1239 H1215 0.950 . S
C1239 C1238 1.524 . S
C1239 C1240 1.415 . S
C1240 H1216 0.950 . S
C1240 C1235 1.363 . S
C1240 C1239 1.415 . S
C1241 H1217 0.951 . S
C1241 C1242 1.366 . S
C1241 C1243 1.388 . S
C1242 C1241 1.366 . S
C1242 C1246 1.385 . S
C1243 H1218 0.951 . S
C1243 C1241 1.388 . S
C1243 C1244 1.366 . S
C1244 C1243 1.366 . S
C1244 C1245 1.414 . S
C1244 C1247 1.499 . S
C1245 H1219 0.950 . S
C1245 C1244 1.414 . S
C1245 C1246 1.374 . S
C1246 H1220 0.950 . S
C1246 C1242 1.385 . S
C1246 C1245 1.374 . S
C1247 C1244 1.499 . S
C1247 C1248 1.373 . S
C1247 C1249 1.389 . S
C1248 H1221 0.950 . S
C1248 C1234 1.377 . S
C1248 C1247 1.373 . S
C1249 C1233 1.377 . S
C1249 C1247 1.389 . S
C1249 C1250 1.524 . S
C1250 C1249 1.524 . S
C1250 C1251 1.397 . S
C1250 C1255 1.363 . S
C1251 H1222 0.950 . S
C1251 C1250 1.397 . S
C1251 C1252 1.334 . S
C1252 H1223 0.950 . S
C1252 C1251 1.334 . S
C1252 C1253 1.287 . S
C1253 C1252 1.287 . S
C1253 C1254 1.524 . S
C1253 H1256 0.999 . S
C1254 H1224 0.950 . S
C1254 C1253 1.524 . S
C1254 C1255 1.415 . S
C1255 H1225 0.950 . S
C1255 C1250 1.363 . S
C1255 C1254 1.415 . S
H1256 C1253 0.999 . S
H1257 C1238 0.913 . S
H1258 C1276 0.951 . S
H1259 C1278 0.951 . S
H1260 C1280 0.950 . S
H1261 C1281 0.950 . S
H1262 C1283 0.950 . S
H1263 C1286 0.950 . S
H1264 C1287 0.950 . S
H1265 C1289 0.950 . S
H1266 C1290 0.950 . S
H1267 C1291 0.951 . S
H1268 C1293 0.951 . S
H1269 C1295 0.950 . S
H1270 C1296 0.950 . S
H1271 C1298 0.950 . S
H1272 C1301 0.950 . S
H1273 C1302 0.950 . S
H1274 C1304 0.950 . S
H1275 C1305 0.950 . S
C1276 H1258 0.951 . S
C1276 C1277 1.366 . S
C1276 C1278 1.388 . S
C1277 C1276 1.366 . S
C1277 C1281 1.385 . S
C1278 H1259 0.951 . S
C1278 C1276 1.388 . S
C1278 C1279 1.366 . S
C1279 C1278 1.366 . S
C1279 C1280 1.414 . S
C1279 C1282 1.499 . S
C1280 H1260 0.950 . S
C1280 C1279 1.414 . S
C1280 C1281 1.374 . S
C1281 H1261 0.950 . S
C1281 C1277 1.385 . S
C1281 C1280 1.374 . S
C1282 C1279 1.499 . S
C1282 C1283 1.373 . S
C1282 C1284 1.389 . S
C1283 H1262 0.950 . S
C1283 C1282 1.373 . S
C1283 C1299 1.377 . S
C1284 C1282 1.389 . S
C1284 C1285 1.524 . S
C1284 C1298 1.377 . S
C1285 C1284 1.524 . S
C1285 C1286 1.397 . S
C1285 C1290 1.363 . S
C1286 H1263 0.950 . S
C1286 C1285 1.397 . S
C1286 C1287 1.334 . S
C1287 H1264 0.950 . S
C1287 C1286 1.334 . S
C1287 C1288 1.287 . S
C1288 C1287 1.287 . S
C1288 C1289 1.524 . S
C1288 H1307 0.913 . S
C1289 H1265 0.950 . S
C1289 C1288 1.524 . S
C1289 C1290 1.415 . S
C1290 H1266 0.950 . S
C1290 C1285 1.363 . S
C1290 C1289 1.415 . S
C1291 H1267 0.951 . S
C1291 C1292 1.366 . S
C1291 C1293 1.388 . S
C1292 C1291 1.366 . S
C1292 C1296 1.385 . S
C1293 H1268 0.951 . S
C1293 C1291 1.388 . S
C1293 C1294 1.366 . S
C1294 C1293 1.366 . S
C1294 C1295 1.414 . S
C1294 C1297 1.499 . S
C1295 H1269 0.950 . S
C1295 C1294 1.414 . S
C1295 C1296 1.374 . S
C1296 H1270 0.950 . S
C1296 C1292 1.385 . S
C1296 C1295 1.374 . S
C1297 C1294 1.499 . S
C1297 C1298 1.373 1_565 S
C1297 C1299 1.389 1_565 S
C1298 H1271 0.950 . S
C1298 C1284 1.377 . S
C1298 C1297 1.373 1_545 S
C1299 C1283 1.377 . S
C1299 C1297 1.389 1_545 S
C1299 C1300 1.524 1_545 S
C1300 C1299 1.524 1_565 S
C1300 C1301 1.397 . S
C1300 C1305 1.363 . S
C1301 H1272 0.950 . S
C1301 C1300 1.397 . S
C1301 C1302 1.334 . S
C1302 H1273 0.950 . S
C1302 C1301 1.334 . S
C1302 C1303 1.287 . S
C1303 C1302 1.287 . S
C1303 C1304 1.524 . S
C1303 H1306 0.999 . S
C1304 H1274 0.950 . S
C1304 C1303 1.524 . S
C1304 C1305 1.415 . S
C1305 H1275 0.950 . S
C1305 C1300 1.363 . S
C1305 C1304 1.415 . S
H1306 C1303 0.999 . S
H1307 C1288 0.913 . S
H1308 C1326 0.951 . S
H1309 C1328 0.951 . S
H1310 C1330 0.950 . S
H1311 C1331 0.950 . S
H1312 C1333 0.950 . S
H1313 C1336 0.950 . S
H1314 C1337 0.950 . S
H1315 C1339 0.950 . S
H1316 C1340 0.950 . S
H1317 C1341 0.951 . S
H1318 C1343 0.951 . S
H1319 C1345 0.950 . S
H1320 C1346 0.950 . S
H1321 C1348 0.950 . S
H1322 C1351 0.950 . S
H1323 C1352 0.950 . S
H1324 C1354 0.950 . S
H1325 C1355 0.950 . S
C1326 H1308 0.951 . S
C1326 C1327 1.366 . S
C1326 C1328 1.388 . S
C1327 C1326 1.366 . S
C1327 C1331 1.385 . S
C1328 H1309 0.951 . S
C1328 C1326 1.388 . S
C1328 C1329 1.366 . S
C1329 C1328 1.366 . S
C1329 C1330 1.414 . S
C1329 C1332 1.499 . S
C1330 H1310 0.950 . S
C1330 C1329 1.414 . S
C1330 C1331 1.374 . S
C1331 H1311 0.950 . S
C1331 C1327 1.385 . S
C1331 C1330 1.374 . S
C1332 C1329 1.499 . S
C1332 C1333 1.373 . S
C1332 C1334 1.389 . S
C1333 H1312 0.950 . S
C1333 C1332 1.373 . S
C1333 C1349 1.377 . S
C1334 C1332 1.389 . S
C1334 C1335 1.524 . S
C1334 C1348 1.377 . S
C1335 C1334 1.524 . S
C1335 C1336 1.397 . S
C1335 C1340 1.363 . S
C1336 H1313 0.950 . S
C1336 C1335 1.397 . S
C1336 C1337 1.334 . S
C1337 H1314 0.950 . S
C1337 C1336 1.334 . S
C1337 C1338 1.287 . S
C1338 C1337 1.287 . S
C1338 C1339 1.524 . S
C1338 H1357 0.913 . S
C1339 H1315 0.950 . S
C1339 C1338 1.524 . S
C1339 C1340 1.415 . S
C1340 H1316 0.950 . S
C1340 C1335 1.363 . S
C1340 C1339 1.415 . S
C1341 H1317 0.951 . S
C1341 C1342 1.366 . S
C1341 C1343 1.388 . S
C1342 C1341 1.366 . S
C1342 C1346 1.385 . S
C1343 H1318 0.951 . S
C1343 C1341 1.388 . S
C1343 C1344 1.366 . S
C1344 C1343 1.366 . S
C1344 C1345 1.414 . S
C1344 C1347 1.499 . S
C1345 H1319 0.950 . S
C1345 C1344 1.414 . S
C1345 C1346 1.374 . S
C1346 H1320 0.950 . S
C1346 C1342 1.385 . S
C1346 C1345 1.374 . S
C1347 C1344 1.499 . S
C1347 C1348 1.373 . S
C1347 C1349 1.389 . S
C1348 H1321 0.950 . S
C1348 C1334 1.377 . S
C1348 C1347 1.373 . S
C1349 C1333 1.377 . S
C1349 C1347 1.389 . S
C1349 C1350 1.524 . S
C1350 C1349 1.524 . S
C1350 C1351 1.397 . S
C1350 C1355 1.363 . S
C1351 H1322 0.950 . S
C1351 C1350 1.397 . S
C1351 C1352 1.334 . S
C1352 H1323 0.950 . S
C1352 C1351 1.334 . S
C1352 C1353 1.287 . S
C1353 C1352 1.287 . S
C1353 C1354 1.524 . S
C1353 H1356 0.999 . S
C1354 H1324 0.950 . S
C1354 C1353 1.524 . S
C1354 C1355 1.415 . S
C1355 H1325 0.950 . S
C1355 C1350 1.363 . S
C1355 C1354 1.415 . S
H1356 C1353 0.999 . S
H1357 C1338 0.913 . S
H1358 C1376 0.951 . S
H1359 C1378 0.951 . S
H1360 C1380 0.950 . S
H1361 C1381 0.950 . S
H1362 C1383 0.950 . S
H1363 C1386 0.950 . S
H1364 C1387 0.950 . S
H1365 C1389 0.950 . S
H1366 C1390 0.950 . S
H1367 C1391 0.951 . S
H1368 C1393 0.951 . S
H1369 C1395 0.950 . S
H1370 C1396 0.950 . S
H1371 C1398 0.950 . S
H1372 C1401 0.950 . S
H1373 C1402 0.950 . S
H1374 C1404 0.950 . S
H1375 C1405 0.950 . S
C1376 H1358 0.951 . S
C1376 C1377 1.366 . S
C1376 C1378 1.388 . S
C1377 C1376 1.366 . S
C1377 C1381 1.385 . S
C1378 H1359 0.951 . S
C1378 C1376 1.388 . S
C1378 C1379 1.366 . S
C1379 C1378 1.366 . S
C1379 C1380 1.414 . S
C1379 C1382 1.499 . S
C1380 H1360 0.950 . S
C1380 C1379 1.414 . S
C1380 C1381 1.374 . S
C1381 H1361 0.950 . S
C1381 C1377 1.385 . S
C1381 C1380 1.374 . S
C1382 C1379 1.499 . S
C1382 C1383 1.373 . S
C1382 C1384 1.389 . S
C1383 H1362 0.950 . S
C1383 C1382 1.373 . S
C1383 C1399 1.377 . S
C1384 C1382 1.389 . S
C1384 C1385 1.524 . S
C1384 C1398 1.377 . S
C1385 C1384 1.524 . S
C1385 C1386 1.397 . S
C1385 C1390 1.363 . S
C1386 H1363 0.950 . S
C1386 C1385 1.397 . S
C1386 C1387 1.334 . S
C1387 H1364 0.950 . S
C1387 C1386 1.334 . S
C1387 C1388 1.287 . S
C1388 C1387 1.287 . S
C1388 C1389 1.524 . S
C1388 H1407 0.913 . S
C1389 H1365 0.950 . S
C1389 C1388 1.524 . S
C1389 C1390 1.415 . S
C1390 H1366 0.950 . S
C1390 C1385 1.363 . S
C1390 C1389 1.415 . S
C1391 H1367 0.951 . S
C1391 C1392 1.366 . S
C1391 C1393 1.388 . S
C1392 C1391 1.366 . S
C1392 C1396 1.385 . S
C1393 H1368 0.951 . S
C1393 C1391 1.388 . S
C1393 C1394 1.366 . S
C1394 C1393 1.366 . S
C1394 C1395 1.414 . S
C1394 C1397 1.499 . S
C1395 H1369 0.950 . S
C1395 C1394 1.414 . S
C1395 C1396 1.374 . S
C1396 H1370 0.950 . S
C1396 C1392 1.385 . S
C1396 C1395 1.374 . S
C1397 C1394 1.499 . S
C1397 C1398 1.373 . S
C1397 C1399 1.389 . S
C1398 H1371 0.950 . S
C1398 C1384 1.377 . S
C1398 C1397 1.373 . S
C1399 C1383 1.377 . S
C1399 C1397 1.389 . S
C1399 C1400 1.524 . S
C1400 C1399 1.524 . S
C1400 C1401 1.397 . S
C1400 C1405 1.363 . S
C1401 H1372 0.950 . S
C1401 C1400 1.397 . S
C1401 C1402 1.334 . S
C1402 H1373 0.950 . S
C1402 C1401 1.334 . S
C1402 C1403 1.287 . S
C1403 C1402 1.287 . S
C1403 C1404 1.524 . S
C1403 H1406 0.999 . S
C1404 H1374 0.950 . S
C1404 C1403 1.524 . S
C1404 C1405 1.415 . S
C1405 H1375 0.950 . S
C1405 C1400 1.363 . S
C1405 C1404 1.415 . S
H1406 C1403 0.999 . S
H1407 C1388 0.913 . S
H1408 C1426 0.951 . S
H1409 C1428 0.951 . S
H1410 C1430 0.950 . S
H1411 C1431 0.950 . S
H1412 C1433 0.950 . S
H1413 C1436 0.950 . S
H1414 C1437 0.950 . S
H1415 C1439 0.950 . S
H1416 C1440 0.950 . S
H1417 C1441 0.951 . S
H1418 C1443 0.951 . S
H1419 C1445 0.950 . S
H1420 C1446 0.950 . S
H1421 C1448 0.950 . S
H1422 C1451 0.950 . S
H1423 C1452 0.950 . S
H1424 C1454 0.950 . S
H1425 C1455 0.950 . S
C1426 H1408 0.951 . S
C1426 C1427 1.366 . S
C1426 C1428 1.388 . S
C1427 C1426 1.366 . S
C1427 C1431 1.385 . S
C1428 H1409 0.951 . S
C1428 C1426 1.388 . S
C1428 C1429 1.366 . S
C1429 C1428 1.366 . S
C1429 C1430 1.414 . S
C1429 C1432 1.499 . S
C1430 H1410 0.950 . S
C1430 C1429 1.414 . S
C1430 C1431 1.374 . S
C1431 H1411 0.950 . S
C1431 C1427 1.385 . S
C1431 C1430 1.374 . S
C1432 C1429 1.499 . S
C1432 C1433 1.373 . S
C1432 C1434 1.389 . S
C1433 H1412 0.950 . S
C1433 C1432 1.373 . S
C1433 C1449 1.377 . S
C1434 C1432 1.389 . S
C1434 C1435 1.524 . S
C1434 C1448 1.377 . S
C1435 C1434 1.524 . S
C1435 C1436 1.397 . S
C1435 C1440 1.363 . S
C1436 H1413 0.950 . S
C1436 C1435 1.397 . S
C1436 C1437 1.334 . S
C1437 H1414 0.950 . S
C1437 C1436 1.334 . S
C1437 C1438 1.287 . S
C1438 C1437 1.287 . S
C1438 C1439 1.524 . S
C1438 H1457 0.913 . S
C1439 H1415 0.950 . S
C1439 C1438 1.524 . S
C1439 C1440 1.415 . S
C1440 H1416 0.950 . S
C1440 C1435 1.363 . S
C1440 C1439 1.415 . S
C1441 H1417 0.951 . S
C1441 C1442 1.366 . S
C1441 C1443 1.388 . S
C1442 C1441 1.366 . S
C1442 C1446 1.385 . S
C1443 H1418 0.951 . S
C1443 C1441 1.388 . S
C1443 C1444 1.366 . S
C1444 C1443 1.366 . S
C1444 C1445 1.414 . S
C1444 C1447 1.499 . S
C1445 H1419 0.950 . S
C1445 C1444 1.414 . S
C1445 C1446 1.374 . S
C1446 H1420 0.950 . S
C1446 C1442 1.385 . S
C1446 C1445 1.374 . S
C1447 C1444 1.499 . S
C1447 C1448 1.373 . S
C1447 C1449 1.389 . S
C1448 H1421 0.950 . S
C1448 C1434 1.377 . S
C1448 C1447 1.373 . S
C1449 C1433 1.377 . S
C1449 C1447 1.389 . S
C1449 C1450 1.524 . S
C1450 C1449 1.524 . S
C1450 C1451 1.397 . S
C1450 C1455 1.363 . S
C1451 H1422 0.950 . S
C1451 C1450 1.397 . S
C1451 C1452 1.334 . S
C1452 H1423 0.950 . S
C1452 C1451 1.334 . S
C1452 C1453 1.287 . S
C1453 C1452 1.287 . S
C1453 C1454 1.524 . S
C1453 H1456 0.999 . S
C1454 H1424 0.950 . S
C1454 C1453 1.524 . S
C1454 C1455 1.415 . S
C1455 H1425 0.950 . S
C1455 C1450 1.363 . S
C1455 C1454 1.415 . S
H1456 C1453 0.999 . S
H1457 C1438 0.913 . S
H1458 C1476 0.951 . S
H1459 C1478 0.951 . S
H1460 C1480 0.950 . S
H1461 C1481 0.950 . S
H1462 C1483 0.950 . S
H1463 C1486 0.950 . S
H1464 C1487 0.950 . S
H1465 C1489 0.950 . S
H1466 C1490 0.950 . S
H1467 C1491 0.951 . S
H1468 C1493 0.951 . S
H1469 C1495 0.950 . S
H1470 C1496 0.950 . S
H1471 C1498 0.950 . S
H1472 C1501 0.950 . S
H1473 C1502 0.950 . S
H1474 C1504 0.950 . S
H1475 C1505 0.950 . S
C1476 H1458 0.951 . S
C1476 C1477 1.366 . S
C1476 C1478 1.388 . S
C1477 C1476 1.366 . S
C1477 C1481 1.385 . S
C1478 H1459 0.951 . S
C1478 C1476 1.388 . S
C1478 C1479 1.366 . S
C1479 C1478 1.366 . S
C1479 C1480 1.414 . S
C1479 C1482 1.499 . S
C1480 H1460 0.950 . S
C1480 C1479 1.414 . S
C1480 C1481 1.374 . S
C1481 H1461 0.950 . S
C1481 C1477 1.385 . S
C1481 C1480 1.374 . S
C1482 C1479 1.499 . S
C1482 C1483 1.373 . S
C1482 C1484 1.389 . S
C1483 H1462 0.950 . S
C1483 C1482 1.373 . S
C1483 C1499 1.377 . S
C1484 C1482 1.389 . S
C1484 C1485 1.524 . S
C1484 C1498 1.377 . S
C1485 C1484 1.524 . S
C1485 C1486 1.397 . S
C1485 C1490 1.363 . S
C1486 H1463 0.950 . S
C1486 C1485 1.397 . S
C1486 C1487 1.334 . S
C1487 H1464 0.950 . S
C1487 C1486 1.334 . S
C1487 C1488 1.287 . S
C1488 C1487 1.287 . S
C1488 C1489 1.524 . S
C1488 H1507 0.913 . S
C1489 H1465 0.950 . S
C1489 C1488 1.524 . S
C1489 C1490 1.415 . S
C1490 H1466 0.950 . S
C1490 C1485 1.363 . S
C1490 C1489 1.415 . S
C1491 H1467 0.951 . S
C1491 C1492 1.366 . S
C1491 C1493 1.388 . S
C1492 C1491 1.366 . S
C1492 C1496 1.385 . S
C1493 H1468 0.951 . S
C1493 C1491 1.388 . S
C1493 C1494 1.366 . S
C1494 C1493 1.366 . S
C1494 C1495 1.414 . S
C1494 C1497 1.499 . S
C1495 H1469 0.950 . S
C1495 C1494 1.414 . S
C1495 C1496 1.374 . S
C1496 H1470 0.950 . S
C1496 C1492 1.385 . S
C1496 C1495 1.374 . S
C1497 C1494 1.499 . S
C1497 C1498 1.373 . S
C1497 C1499 1.389 . S
C1498 H1471 0.950 . S
C1498 C1484 1.377 . S
C1498 C1497 1.373 . S
C1499 C1483 1.377 . S
C1499 C1497 1.389 . S
C1499 C1500 1.524 . S
C1500 C1499 1.524 . S
C1500 C1501 1.397 . S
C1500 C1505 1.363 . S
C1501 H1472 0.950 . S
C1501 C1500 1.397 . S
C1501 C1502 1.334 . S
C1502 H1473 0.950 . S
C1502 C1501 1.334 . S
C1502 C1503 1.287 . S
C1503 C1502 1.287 . S
C1503 C1504 1.524 . S
C1503 H1506 0.999 . S
C1504 H1474 0.950 . S
C1504 C1503 1.524 . S
C1504 C1505 1.415 . S
C1505 H1475 0.950 . S
C1505 C1500 1.363 . S
C1505 C1504 1.415 . S
H1506 C1503 0.999 . S
H1507 C1488 0.913 . S
H1508 C1526 0.951 . S
H1509 C1528 0.951 . S
H1510 C1530 0.950 . S
H1511 C1531 0.950 . S
H1512 C1533 0.950 . S
H1513 C1536 0.950 . S
H1514 C1537 0.950 . S
H1515 C1539 0.950 . S
H1516 C1540 0.950 . S
H1517 C1541 0.951 . S
H1518 C1543 0.951 . S
H1519 C1545 0.950 . S
H1520 C1546 0.950 . S
H1521 C1548 0.950 . S
H1522 C1551 0.950 . S
H1523 C1552 0.950 . S
H1524 C1554 0.950 . S
H1525 C1555 0.950 . S
C1526 H1508 0.951 . S
C1526 C1527 1.366 . S
C1526 C1528 1.388 . S
C1527 C1526 1.366 . S
C1527 C1531 1.385 . S
C1528 H1509 0.951 . S
C1528 C1526 1.388 . S
C1528 C1529 1.366 . S
C1529 C1528 1.366 . S
C1529 C1530 1.414 . S
C1529 C1532 1.499 . S
C1530 H1510 0.950 . S
C1530 C1529 1.414 . S
C1530 C1531 1.374 . S
C1531 H1511 0.950 . S
C1531 C1527 1.385 . S
C1531 C1530 1.374 . S
C1532 C1529 1.499 . S
C1532 C1533 1.373 . S
C1532 C1534 1.389 . S
C1533 H1512 0.950 . S
C1533 C1532 1.373 . S
C1533 C1549 1.377 . S
C1534 C1532 1.389 . S
C1534 C1535 1.524 . S
C1534 C1548 1.377 . S
C1535 C1534 1.524 . S
C1535 C1536 1.397 . S
C1535 C1540 1.363 . S
C1536 H1513 0.950 . S
C1536 C1535 1.397 . S
C1536 C1537 1.334 . S
C1537 H1514 0.950 . S
C1537 C1536 1.334 . S
C1537 C1538 1.287 . S
C1538 C1537 1.287 . S
C1538 C1539 1.524 . S
C1538 H1557 0.913 . S
C1539 H1515 0.950 . S
C1539 C1538 1.524 . S
C1539 C1540 1.415 . S
C1540 H1516 0.950 . S
C1540 C1535 1.363 . S
C1540 C1539 1.415 . S
C1541 H1517 0.951 . S
C1541 C1542 1.366 . S
C1541 C1543 1.388 . S
C1542 C1541 1.366 . S
C1542 C1546 1.385 . S
C1543 H1518 0.951 . S
C1543 C1541 1.388 . S
C1543 C1544 1.366 . S
C1544 C1543 1.366 . S
C1544 C1545 1.414 . S
C1544 C1547 1.499 . S
C1545 H1519 0.950 . S
C1545 C1544 1.414 . S
C1545 C1546 1.374 . S
C1546 H1520 0.950 . S
C1546 C1542 1.385 . S
C1546 C1545 1.374 . S
C1547 C1544 1.499 . S
C1547 C1548 1.373 . S
C1547 C1549 1.389 . S
C1548 H1521 0.950 . S
C1548 C1534 1.377 . S
C1548 C1547 1.373 . S
C1549 C1533 1.377 . S
C1549 C1547 1.389 . S
C1549 C1550 1.524 . S
C1550 C1549 1.524 . S
C1550 C1551 1.397 . S
C1550 C1555 1.363 . S
C1551 H1522 0.950 . S
C1551 C1550 1.397 . S
C1551 C1552 1.334 . S
C1552 H1523 0.950 . S
C1552 C1551 1.334 . S
C1552 C1553 1.287 . S
C1553 C1552 1.287 . S
C1553 C1554 1.524 . S
C1553 H1556 0.999 . S
C1554 H1524 0.950 . S
C1554 C1553 1.524 . S
C1554 C1555 1.415 . S
C1555 H1525 0.950 . S
C1555 C1550 1.363 . S
C1555 C1554 1.415 . S
H1556 C1553 0.999 . S
H1557 C1538 0.913 . S
H1558 C1576 0.951 . S
H1559 C1578 0.951 . S
H1560 C1580 0.950 . S
H1561 C1581 0.950 . S
H1562 C1583 0.950 . S
H1563 C1586 0.950 . S
H1564 C1587 0.950 . S
H1565 C1589 0.950 . S
H1566 C1590 0.950 . S
H1567 C1591 0.951 . S
H1568 C1593 0.951 . S
H1569 C1595 0.950 . S
H1570 C1596 0.950 . S
H1571 C1598 0.950 . S
H1572 C1601 0.950 . S
H1573 C1602 0.950 . S
H1574 C1604 0.950 . S
H1575 C1605 0.950 . S
C1576 H1558 0.951 . S
C1576 C1577 1.366 . S
C1576 C1578 1.388 . S
C1577 C1576 1.366 . S
C1577 C1581 1.385 . S
C1578 H1559 0.951 . S
C1578 C1576 1.388 . S
C1578 C1579 1.366 . S
C1579 C1578 1.366 . S
C1579 C1580 1.414 . S
C1579 C1582 1.499 . S
C1580 H1560 0.950 . S
C1580 C1579 1.414 . S
C1580 C1581 1.374 . S
C1581 H1561 0.950 . S
C1581 C1577 1.385 . S
C1581 C1580 1.374 . S
C1582 C1579 1.499 . S
C1582 C1583 1.373 . S
C1582 C1584 1.389 . S
C1583 H1562 0.950 . S
C1583 C1582 1.373 . S
C1583 C1599 1.377 . S
C1584 C1582 1.389 . S
C1584 C1585 1.524 . S
C1584 C1598 1.377 . S
C1585 C1584 1.524 . S
C1585 C1586 1.397 . S
C1585 C1590 1.363 . S
C1586 H1563 0.950 . S
C1586 C1585 1.397 . S
C1586 C1587 1.334 . S
C1587 H1564 0.950 . S
C1587 C1586 1.334 . S
C1587 C1588 1.287 . S
C1588 C1587 1.287 . S
C1588 C1589 1.524 . S
C1588 H1607 0.913 . S
C1589 H1565 0.950 . S
C1589 C1588 1.524 . S
C1589 C1590 1.415 . S
C1590 H1566 0.950 . S
C1590 C1585 1.363 . S
C1590 C1589 1.415 . S
C1591 H1567 0.951 . S
C1591 C1592 1.366 . S
C1591 C1593 1.388 . S
C1592 C1591 1.366 . S
C1592 C1596 1.385 . S
C1593 H1568 0.951 . S
C1593 C1591 1.388 . S
C1593 C1594 1.366 . S
C1594 C1593 1.366 . S
C1594 C1595 1.414 . S
C1594 C1597 1.499 . S
C1595 H1569 0.950 . S
C1595 C1594 1.414 . S
C1595 C1596 1.374 . S
C1596 H1570 0.950 . S
C1596 C1592 1.385 . S
C1596 C1595 1.374 . S
C1597 C1594 1.499 . S
C1597 C1598 1.373 . S
C1597 C1599 1.389 . S
C1598 H1571 0.950 . S
C1598 C1584 1.377 . S
C1598 C1597 1.373 . S
C1599 C1583 1.377 . S
C1599 C1597 1.389 . S
C1599 C1600 1.524 . S
C1600 C1599 1.524 . S
C1600 C1601 1.397 . S
C1600 C1605 1.363 . S
C1601 H1572 0.950 . S
C1601 C1600 1.397 . S
C1601 C1602 1.334 . S
C1602 H1573 0.950 . S
C1602 C1601 1.334 . S
C1602 C1603 1.287 . S
C1603 C1602 1.287 . S
C1603 C1604 1.524 . S
C1603 H1606 0.999 . S
C1604 H1574 0.950 . S
C1604 C1603 1.524 . S
C1604 C1605 1.415 . S
C1605 H1575 0.950 . S
C1605 C1600 1.363 . S
C1605 C1604 1.415 . S
H1606 C1603 0.999 . S
H1607 C1588 0.913 . S
H1608 C1626 0.951 . S
H1609 C1628 0.951 . S
H1610 C1630 0.950 . S
H1611 C1631 0.950 . S
H1612 C1633 0.950 . S
H1613 C1636 0.950 . S
H1614 C1637 0.950 . S
H1615 C1639 0.950 . S
H1616 C1640 0.950 . S
H1617 C1641 0.951 . S
H1618 C1643 0.951 . S
H1619 C1645 0.950 . S
H1620 C1646 0.950 . S
H1621 C1648 0.950 . S
H1622 C1651 0.950 . S
H1623 C1652 0.950 . S
H1624 C1654 0.950 . S
H1625 C1655 0.950 . S
C1626 H1608 0.951 . S
C1626 C1627 1.366 . S
C1626 C1628 1.388 . S
C1627 C1626 1.366 . S
C1627 C1631 1.385 . S
C1628 H1609 0.951 . S
C1628 C1626 1.388 . S
C1628 C1629 1.366 . S
C1629 C1628 1.366 . S
C1629 C1630 1.414 . S
C1629 C1632 1.499 1_545 S
C1630 H1610 0.950 . S
C1630 C1629 1.414 . S
C1630 C1631 1.374 . S
C1631 H1611 0.950 . S
C1631 C1627 1.385 . S
C1631 C1630 1.374 . S
C1632 C1629 1.499 1_565 S
C1632 C1633 1.373 . S
C1632 C1634 1.389 . S
C1633 H1612 0.950 . S
C1633 C1632 1.373 . S
C1633 C1649 1.377 . S
C1634 C1632 1.389 . S
C1634 C1635 1.524 . S
C1634 C1648 1.377 . S
C1635 C1634 1.524 . S
C1635 C1636 1.397 1_565 S
C1635 C1640 1.363 . S
C1636 H1613 0.950 . S
C1636 C1635 1.397 1_545 S
C1636 C1637 1.334 . S
C1637 H1614 0.950 . S
C1637 C1636 1.334 . S
C1637 C1638 1.287 . S
C1638 C1637 1.287 . S
C1638 C1639 1.524 1_545 S
C1638 H1657 0.913 . S
C1639 H1615 0.950 . S
C1639 C1638 1.524 1_565 S
C1639 C1640 1.415 . S
C1640 H1616 0.950 . S
C1640 C1635 1.363 . S
C1640 C1639 1.415 . S
C1641 H1617 0.951 . S
C1641 C1642 1.366 . S
C1641 C1643 1.388 . S
C1642 C1641 1.366 . S
C1642 C1646 1.385 . S
C1643 H1618 0.951 . S
C1643 C1641 1.388 . S
C1643 C1644 1.366 . S
C1644 C1643 1.366 . S
C1644 C1645 1.414 . S
C1644 C1647 1.499 . S
C1645 H1619 0.950 . S
C1645 C1644 1.414 . S
C1645 C1646 1.374 . S
C1646 H1620 0.950 . S
C1646 C1642 1.385 . S
C1646 C1645 1.374 . S
C1647 C1644 1.499 . S
C1647 C1648 1.373 . S
C1647 C1649 1.389 . S
C1648 H1621 0.950 . S
C1648 C1634 1.377 . S
C1648 C1647 1.373 . S
C1649 C1633 1.377 . S
C1649 C1647 1.389 . S
C1649 C1650 1.524 . S
C1650 C1649 1.524 . S
C1650 C1651 1.397 . S
C1650 C1655 1.363 . S
C1651 H1622 0.950 . S
C1651 C1650 1.397 . S
C1651 C1652 1.334 . S
C1652 H1623 0.950 . S
C1652 C1651 1.334 . S
C1652 C1653 1.287 . S
C1653 C1652 1.287 . S
C1653 C1654 1.524 . S
C1653 H1656 0.999 . S
C1654 H1624 0.950 . S
C1654 C1653 1.524 . S
C1654 C1655 1.415 . S
C1655 H1625 0.950 . S
C1655 C1650 1.363 . S
C1655 C1654 1.415 . S
H1656 C1653 0.999 . S
H1657 C1638 0.913 . S
H1658 C1676 0.951 . S
H1659 C1678 0.951 . S
H1660 C1680 0.950 1_455 S
H1661 C1681 0.950 . S
H1662 C1683 0.950 . S
H1663 C1686 0.950 . S
H1664 C1687 0.950 . S
H1665 C1689 0.950 . S
H1666 C1690 0.950 . S
H1667 C1691 0.951 . S
H1668 C1693 0.951 . S
H1669 C1695 0.950 . S
H1670 C1696 0.950 . S
H1671 C1698 0.950 . S
H1672 C1701 0.950 . S
H1673 C1702 0.950 . S
H1674 C1704 0.950 . S
H1675 C1705 0.950 . S
C1676 H1658 0.951 . S
C1676 C1677 1.366 . S
C1676 C1678 1.388 1_655 S
C1677 C1676 1.366 . S
C1677 C1681 1.385 . S
C1678 H1659 0.951 . S
C1678 C1676 1.388 1_455 S
C1678 C1679 1.366 . S
C1679 C1678 1.366 . S
C1679 C1680 1.414 1_455 S
C1679 C1682 1.499 . S
C1680 H1660 0.950 1_655 S
C1680 C1679 1.414 1_655 S
C1680 C1681 1.374 . S
C1681 H1661 0.950 . S
C1681 C1677 1.385 . S
C1681 C1680 1.374 . S
C1682 C1679 1.499 . S
C1682 C1683 1.373 . S
C1682 C1684 1.389 . S
C1683 H1662 0.950 . S
C1683 C1682 1.373 . S
C1683 C1699 1.377 . S
C1684 C1682 1.389 . S
C1684 C1685 1.524 . S
C1684 C1698 1.377 . S
C1685 C1684 1.524 . S
C1685 C1686 1.397 . S
C1685 C1690 1.363 . S
C1686 H1663 0.950 . S
C1686 C1685 1.397 . S
C1686 C1687 1.334 . S
C1687 H1664 0.950 . S
C1687 C1686 1.334 . S
C1687 C1688 1.287 . S
C1688 C1687 1.287 . S
C1688 C1689 1.524 . S
C1688 H1707 0.913 . S
C1689 H1665 0.950 . S
C1689 C1688 1.524 . S
C1689 C1690 1.415 . S
C1690 H1666 0.950 . S
C1690 C1685 1.363 . S
C1690 C1689 1.415 . S
C1691 H1667 0.951 . S
C1691 C1692 1.366 . S
C1691 C1693 1.388 . S
C1692 C1691 1.366 . S
C1692 C1696 1.385 . S
C1693 H1668 0.951 . S
C1693 C1691 1.388 . S
C1693 C1694 1.366 . S
C1694 C1693 1.366 . S
C1694 C1695 1.414 . S
C1694 C1697 1.499 . S
C1695 H1669 0.950 . S
C1695 C1694 1.414 . S
C1695 C1696 1.374 . S
C1696 H1670 0.950 . S
C1696 C1692 1.385 . S
C1696 C1695 1.374 . S
C1697 C1694 1.499 . S
C1697 C1698 1.373 . S
C1697 C1699 1.389 . S
C1698 H1671 0.950 . S
C1698 C1684 1.377 . S
C1698 C1697 1.373 . S
C1699 C1683 1.377 . S
C1699 C1697 1.389 . S
C1699 C1700 1.524 . S
C1700 C1699 1.524 . S
C1700 C1701 1.397 . S
C1700 C1705 1.363 . S
C1701 H1672 0.950 . S
C1701 C1700 1.397 . S
C1701 C1702 1.334 . S
C1702 H1673 0.950 . S
C1702 C1701 1.334 . S
C1702 C1703 1.287 . S
C1703 C1702 1.287 . S
C1703 C1704 1.524 . S
C1703 H1706 0.999 . S
C1704 H1674 0.950 . S
C1704 C1703 1.524 . S
C1704 C1705 1.415 . S
C1705 H1675 0.950 . S
C1705 C1700 1.363 . S
C1705 C1704 1.415 . S
H1706 C1703 0.999 . S
H1707 C1688 0.913 . S
H1708 C1726 0.951 . S
H1709 C1728 0.951 . S
H1710 C1730 0.950 . S
H1711 C1731 0.950 . S
H1712 C1733 0.950 . S
H1713 C1736 0.950 . S
H1714 C1737 0.950 . S
H1715 C1739 0.950 . S
H1716 C1740 0.950 . S
H1717 C1741 0.951 . S
H1718 C1743 0.951 . S
H1719 C1745 0.950 . S
H1720 C1746 0.950 . S
H1721 C1748 0.950 . S
H1722 C1751 0.950 . S
H1723 C1752 0.950 . S
H1724 C1754 0.950 . S
H1725 C1755 0.950 . S
C1726 H1708 0.951 . S
C1726 C1727 1.366 . S
C1726 C1728 1.388 . S
C1727 C1726 1.366 . S
C1727 C1731 1.385 . S
C1728 H1709 0.951 . S
C1728 C1726 1.388 . S
C1728 C1729 1.366 . S
C1729 C1728 1.366 . S
C1729 C1730 1.414 . S
C1729 C1732 1.499 . S
C1730 H1710 0.950 . S
C1730 C1729 1.414 . S
C1730 C1731 1.374 . S
C1731 H1711 0.950 . S
C1731 C1727 1.385 . S
C1731 C1730 1.374 . S
C1732 C1729 1.499 . S
C1732 C1733 1.373 . S
C1732 C1734 1.389 . S
C1733 H1712 0.950 . S
C1733 C1732 1.373 . S
C1733 C1749 1.377 . S
C1734 C1732 1.389 . S
C1734 C1735 1.524 . S
C1734 C1748 1.377 . S
C1735 C1734 1.524 . S
C1735 C1736 1.397 . S
C1735 C1740 1.363 . S
C1736 H1713 0.950 . S
C1736 C1735 1.397 . S
C1736 C1737 1.334 . S
C1737 H1714 0.950 . S
C1737 C1736 1.334 . S
C1737 C1738 1.287 . S
C1738 C1737 1.287 . S
C1738 C1739 1.524 . S
C1738 H1757 0.913 . S
C1739 H1715 0.950 . S
C1739 C1738 1.524 . S
C1739 C1740 1.415 . S
C1740 H1716 0.950 . S
C1740 C1735 1.363 . S
C1740 C1739 1.415 . S
C1741 H1717 0.951 . S
C1741 C1742 1.366 . S
C1741 C1743 1.388 . S
C1742 C1741 1.366 . S
C1742 C1746 1.385 . S
C1743 H1718 0.951 . S
C1743 C1741 1.388 . S
C1743 C1744 1.366 . S
C1744 C1743 1.366 . S
C1744 C1745 1.414 . S
C1744 C1747 1.499 . S
C1745 H1719 0.950 . S
C1745 C1744 1.414 . S
C1745 C1746 1.374 . S
C1746 H1720 0.950 . S
C1746 C1742 1.385 . S
C1746 C1745 1.374 . S
C1747 C1744 1.499 . S
C1747 C1748 1.373 . S
C1747 C1749 1.389 . S
C1748 H1721 0.950 . S
C1748 C1734 1.377 . S
C1748 C1747 1.373 . S
C1749 C1733 1.377 . S
C1749 C1747 1.389 . S
C1749 C1750 1.524 . S
C1750 C1749 1.524 . S
C1750 C1751 1.397 . S
C1750 C1755 1.363 . S
C1751 H1722 0.950 . S
C1751 C1750 1.397 . S
C1751 C1752 1.334 . S
C1752 H1723 0.950 . S
C1752 C1751 1.334 . S
C1752 C1753 1.287 . S
C1753 C1752 1.287 . S
C1753 C1754 1.524 . S
C1753 H1756 0.999 . S
C1754 H1724 0.950 . S
C1754 C1753 1.524 . S
C1754 C1755 1.415 . S
C1755 H1725 0.950 . S
C1755 C1750 1.363 . S
C1755 C1754 1.415 . S
H1756 C1753 0.999 . S
H1757 C1738 0.913 . S
H1758 C1776 0.951 . S
H1759 C1778 0.951 . S
H1760 C1780 0.950 . S
H1761 C1781 0.950 . S
H1762 C1783 0.950 . S
H1763 C1786 0.950 . S
H1764 C1787 0.950 . S
H1765 C1789 0.950 . S
H1766 C1790 0.950 . S
H1767 C1791 0.951 . S
H1768 C1793 0.951 . S
H1769 C1795 0.950 . S
H1770 C1796 0.950 . S
H1771 C1798 0.950 . S
H1772 C1801 0.950 . S
H1773 C1802 0.950 . S
H1774 C1804 0.950 . S
H1775 C1805 0.950 . S
C1776 H1758 0.951 . S
C1776 C1777 1.366 . S
C1776 C1778 1.388 . S
C1777 C1776 1.366 . S
C1777 C1781 1.385 . S
C1778 H1759 0.951 . S
C1778 C1776 1.388 . S
C1778 C1779 1.366 . S
C1779 C1778 1.366 . S
C1779 C1780 1.414 . S
C1779 C1782 1.499 . S
C1780 H1760 0.950 . S
C1780 C1779 1.414 . S
C1780 C1781 1.374 . S
C1781 H1761 0.950 . S
C1781 C1777 1.385 . S
C1781 C1780 1.374 . S
C1782 C1779 1.499 . S
C1782 C1783 1.373 . S
C1782 C1784 1.389 . S
C1783 H1762 0.950 . S
C1783 C1782 1.373 . S
C1783 C1799 1.377 . S
C1784 C1782 1.389 . S
C1784 C1785 1.524 . S
C1784 C1798 1.377 . S
C1785 C1784 1.524 . S
C1785 C1786 1.397 . S
C1785 C1790 1.363 . S
C1786 H1763 0.950 . S
C1786 C1785 1.397 . S
C1786 C1787 1.334 . S
C1787 H1764 0.950 . S
C1787 C1786 1.334 . S
C1787 C1788 1.287 . S
C1788 C1787 1.287 . S
C1788 C1789 1.524 . S
C1788 H1807 0.913 . S
C1789 H1765 0.950 . S
C1789 C1788 1.524 . S
C1789 C1790 1.415 . S
C1790 H1766 0.950 . S
C1790 C1785 1.363 . S
C1790 C1789 1.415 . S
C1791 H1767 0.951 . S
C1791 C1792 1.366 . S
C1791 C1793 1.388 . S
C1792 C1791 1.366 . S
C1792 C1796 1.385 . S
C1793 H1768 0.951 . S
C1793 C1791 1.388 . S
C1793 C1794 1.366 . S
C1794 C1793 1.366 . S
C1794 C1795 1.414 . S
C1794 C1797 1.499 . S
C1795 H1769 0.950 . S
C1795 C1794 1.414 . S
C1795 C1796 1.374 . S
C1796 H1770 0.950 . S
C1796 C1792 1.385 . S
C1796 C1795 1.374 . S
C1797 C1794 1.499 . S
C1797 C1798 1.373 . S
C1797 C1799 1.389 . S
C1798 H1771 0.950 . S
C1798 C1784 1.377 . S
C1798 C1797 1.373 . S
C1799 C1783 1.377 . S
C1799 C1797 1.389 . S
C1799 C1800 1.524 . S
C1800 C1799 1.524 . S
C1800 C1801 1.397 . S
C1800 C1805 1.363 . S
C1801 H1772 0.950 . S
C1801 C1800 1.397 . S
C1801 C1802 1.334 . S
C1802 H1773 0.950 . S
C1802 C1801 1.334 . S
C1802 C1803 1.287 . S
C1803 C1802 1.287 . S
C1803 C1804 1.524 . S
C1803 H1806 0.999 . S
C1804 H1774 0.950 . S
C1804 C1803 1.524 . S
C1804 C1805 1.415 . S
C1805 H1775 0.950 . S
C1805 C1800 1.363 . S
C1805 C1804 1.415 . S
H1806 C1803 0.999 . S
H1807 C1788 0.913 . S
H1808 C1826 0.951 . S
H1809 C1828 0.951 . S
H1810 C1830 0.950 . S
H1811 C1831 0.950 . S
H1812 C1833 0.950 . S
H1813 C1836 0.950 . S
H1814 C1837 0.950 . S
H1815 C1839 0.950 . S
H1816 C1840 0.950 . S
H1817 C1841 0.951 . S
H1818 C1843 0.951 . S
H1819 C1845 0.950 . S
H1820 C1846 0.950 . S
H1821 C1848 0.950 . S
H1822 C1851 0.950 . S
H1823 C1852 0.950 . S
H1824 C1854 0.950 . S
H1825 C1855 0.950 . S
C1826 H1808 0.951 . S
C1826 C1827 1.366 . S
C1826 C1828 1.388 . S
C1827 C1826 1.366 . S
C1827 C1831 1.385 . S
C1828 H1809 0.951 . S
C1828 C1826 1.388 . S
C1828 C1829 1.366 . S
C1829 C1828 1.366 . S
C1829 C1830 1.414 . S
C1829 C1832 1.499 . S
C1830 H1810 0.950 . S
C1830 C1829 1.414 . S
C1830 C1831 1.374 . S
C1831 H1811 0.950 . S
C1831 C1827 1.385 . S
C1831 C1830 1.374 . S
C1832 C1829 1.499 . S
C1832 C1833 1.373 . S
C1832 C1834 1.389 . S
C1833 H1812 0.950 . S
C1833 C1832 1.373 . S
C1833 C1849 1.377 . S
C1834 C1832 1.389 . S
C1834 C1835 1.524 . S
C1834 C1848 1.377 . S
C1835 C1834 1.524 . S
C1835 C1836 1.397 . S
C1835 C1840 1.363 . S
C1836 H1813 0.950 . S
C1836 C1835 1.397 . S
C1836 C1837 1.334 . S
C1837 H1814 0.950 . S
C1837 C1836 1.334 . S
C1837 C1838 1.287 . S
C1838 C1837 1.287 . S
C1838 C1839 1.524 . S
C1838 H1857 0.913 . S
C1839 H1815 0.950 . S
C1839 C1838 1.524 . S
C1839 C1840 1.415 . S
C1840 H1816 0.950 . S
C1840 C1835 1.363 . S
C1840 C1839 1.415 . S
C1841 H1817 0.951 . S
C1841 C1842 1.366 . S
C1841 C1843 1.388 . S
C1842 C1841 1.366 . S
C1842 C1846 1.385 . S
C1843 H1818 0.951 . S
C1843 C1841 1.388 . S
C1843 C1844 1.366 . S
C1844 C1843 1.366 . S
C1844 C1845 1.414 . S
C1844 C1847 1.499 . S
C1845 H1819 0.950 . S
C1845 C1844 1.414 . S
C1845 C1846 1.374 . S
C1846 H1820 0.950 . S
C1846 C1842 1.385 . S
C1846 C1845 1.374 . S
C1847 C1844 1.499 . S
C1847 C1848 1.373 . S
C1847 C1849 1.389 . S
C1848 H1821 0.950 . S
C1848 C1834 1.377 . S
C1848 C1847 1.373 . S
C1849 C1833 1.377 . S
C1849 C1847 1.389 . S
C1849 C1850 1.524 . S
C1850 C1849 1.524 . S
C1850 C1851 1.397 . S
C1850 C1855 1.363 . S
C1851 H1822 0.950 . S
C1851 C1850 1.397 . S
C1851 C1852 1.334 . S
C1852 H1823 0.950 . S
C1852 C1851 1.334 . S
C1852 C1853 1.287 . S
C1853 C1852 1.287 . S
C1853 C1854 1.524 . S
C1853 H1856 0.999 . S
C1854 H1824 0.950 . S
C1854 C1853 1.524 . S
C1854 C1855 1.415 . S
C1855 H1825 0.950 . S
C1855 C1850 1.363 . S
C1855 C1854 1.415 . S
H1856 C1853 0.999 . S
H1857 C1838 0.913 . S
H1858 C1876 0.951 . S
H1859 C1878 0.951 . S
H1860 C1880 0.950 . S
H1861 C1881 0.950 . S
H1862 C1883 0.950 . S
H1863 C1886 0.950 . S
H1864 C1887 0.950 . S
H1865 C1889 0.950 . S
H1866 C1890 0.950 . S
H1867 C1891 0.951 . S
H1868 C1893 0.951 . S
H1869 C1895 0.950 . S
H1870 C1896 0.950 . S
H1871 C1898 0.950 . S
H1872 C1901 0.950 . S
H1873 C1902 0.950 . S
H1874 C1904 0.950 . S
H1875 C1905 0.950 . S
C1876 H1858 0.951 . S
C1876 C1877 1.366 . S
C1876 C1878 1.388 . S
C1877 C1876 1.366 . S
C1877 C1881 1.385 . S
C1878 H1859 0.951 . S
C1878 C1876 1.388 . S
C1878 C1879 1.366 . S
C1879 C1878 1.366 . S
C1879 C1880 1.414 . S
C1879 C1882 1.499 . S
C1880 H1860 0.950 . S
C1880 C1879 1.414 . S
C1880 C1881 1.374 . S
C1881 H1861 0.950 . S
C1881 C1877 1.385 . S
C1881 C1880 1.374 . S
C1882 C1879 1.499 . S
C1882 C1883 1.373 . S
C1882 C1884 1.389 . S
C1883 H1862 0.950 . S
C1883 C1882 1.373 . S
C1883 C1899 1.377 . S
C1884 C1882 1.389 . S
C1884 C1885 1.524 . S
C1884 C1898 1.377 . S
C1885 C1884 1.524 . S
C1885 C1886 1.397 . S
C1885 C1890 1.363 . S
C1886 H1863 0.950 . S
C1886 C1885 1.397 . S
C1886 C1887 1.334 . S
C1887 H1864 0.950 . S
C1887 C1886 1.334 . S
C1887 C1888 1.287 . S
C1888 C1887 1.287 . S
C1888 C1889 1.524 . S
C1888 H1907 0.913 . S
C1889 H1865 0.950 . S
C1889 C1888 1.524 . S
C1889 C1890 1.415 . S
C1890 H1866 0.950 . S
C1890 C1885 1.363 . S
C1890 C1889 1.415 . S
C1891 H1867 0.951 . S
C1891 C1892 1.366 . S
C1891 C1893 1.388 . S
C1892 C1891 1.366 . S
C1892 C1896 1.385 . S
C1893 H1868 0.951 . S
C1893 C1891 1.388 . S
C1893 C1894 1.366 . S
C1894 C1893 1.366 . S
C1894 C1895 1.414 . S
C1894 C1897 1.499 . S
C1895 H1869 0.950 . S
C1895 C1894 1.414 . S
C1895 C1896 1.374 . S
C1896 H1870 0.950 . S
C1896 C1892 1.385 . S
C1896 C1895 1.374 . S
C1897 C1894 1.499 . S
C1897 C1898 1.373 . S
C1897 C1899 1.389 . S
C1898 H1871 0.950 . S
C1898 C1884 1.377 . S
C1898 C1897 1.373 . S
C1899 C1883 1.377 . S
C1899 C1897 1.389 . S
C1899 C1900 1.524 . S
C1900 C1899 1.524 . S
C1900 C1901 1.397 . S
C1900 C1905 1.363 . S
C1901 H1872 0.950 . S
C1901 C1900 1.397 . S
C1901 C1902 1.334 . S
C1902 H1873 0.950 . S
C1902 C1901 1.334 . S
C1902 C1903 1.287 . S
C1903 C1902 1.287 . S
C1903 C1904 1.524 . S
C1903 H1906 0.999 . S
C1904 H1874 0.950 . S
C1904 C1903 1.524 . S
C1904 C1905 1.415 . S
C1905 H1875 0.950 . S
C1905 C1900 1.363 . S
C1905 C1904 1.415 . S
H1906 C1903 0.999 . S
H1907 C1888 0.913 . S
H1908 C1926 0.951 . S
H1909 C1928 0.951 . S
H1910 C1930 0.950 . S
H1911 C1931 0.950 . S
H1912 C1933 0.950 . S
H1913 C1936 0.950 . S
H1914 C1937 0.950 . S
H1915 C1939 0.950 . S
H1916 C1940 0.950 . S
H1917 C1941 0.951 . S
H1918 C1943 0.951 . S
H1919 C1945 0.950 . S
H1920 C1946 0.950 . S
H1921 C1948 0.950 . S
H1922 C1951 0.950 . S
H1923 C1952 0.950 . S
H1924 C1954 0.950 . S
H1925 C1955 0.952 1_565 S
C1926 H1908 0.951 . S
C1926 C1927 1.366 . S
C1926 C1928 1.388 . S
C1927 C1926 1.366 . S
C1927 C1931 1.385 . S
C1928 H1909 0.951 . S
C1928 C1926 1.388 . S
C1928 C1929 1.366 . S
C1929 C1928 1.366 . S
C1929 C1930 1.414 . S
C1929 C1932 1.499 . S
C1930 H1910 0.950 . S
C1930 C1929 1.414 . S
C1930 C1931 1.374 . S
C1931 H1911 0.950 . S
C1931 C1927 1.385 . S
C1931 C1930 1.374 . S
C1932 C1929 1.499 . S
C1932 C1933 1.373 . S
C1932 C1934 1.389 . S
C1933 H1912 0.950 . S
C1933 C1932 1.373 . S
C1933 C1949 1.341 1_565 S
C1934 C1932 1.389 . S
C1934 C1935 1.524 . S
C1934 C1948 1.377 1_565 S
C1935 C1934 1.524 . S
C1935 C1936 1.397 . S
C1935 C1940 1.363 . S
C1936 H1913 0.950 . S
C1936 C1935 1.397 . S
C1936 C1937 1.334 . S
C1937 H1914 0.950 . S
C1937 C1936 1.334 . S
C1937 C1938 1.287 . S
C1938 C1937 1.287 . S
C1938 C1939 1.524 . S
C1938 H1957 0.913 . S
C1939 H1915 0.950 . S
C1939 C1938 1.524 . S
C1939 C1940 1.415 . S
C1940 H1916 0.950 . S
C1940 C1935 1.363 . S
C1940 C1939 1.415 . S
C1941 H1917 0.951 . S
C1941 C1942 1.366 . S
C1941 C1943 1.388 . S
C1942 C1941 1.366 . S
C1942 C1946 1.385 . S
C1943 H1918 0.951 . S
C1943 C1941 1.388 . S
C1943 C1944 1.366 . S
C1944 C1943 1.366 . S
C1944 C1945 1.414 . S
C1944 C1947 1.499 . S
C1945 H1919 0.950 . S
C1945 C1944 1.414 . S
C1945 C1946 1.374 . S
C1946 H1920 0.950 . S
C1946 C1942 1.385 . S
C1946 C1945 1.374 . S
C1947 C1944 1.499 . S
C1947 C1948 1.373 . S
C1947 C1949 1.438 . S
C1948 H1921 0.950 . S
C1948 C1934 1.377 1_545 S
C1948 C1947 1.373 . S
C1949 C1933 1.341 1_545 S
C1949 C1947 1.438 . S
C1949 C1950 1.508 . S
C1950 C1949 1.508 . S
C1950 C1951 1.397 . S
C1950 C1955 1.371 . S
C1951 H1922 0.950 . S
C1951 C1950 1.397 . S
C1951 C1952 1.334 . S
C1952 H1923 0.950 . S
C1952 C1951 1.334 . S
C1952 C1953 1.287 . S
C1953 C1952 1.287 . S
C1953 C1954 1.524 . S
C1953 H1956 0.999 . S
C1954 H1924 0.950 . S
C1954 C1953 1.524 . S
C1954 C1955 1.406 . S
C1955 H1925 0.952 1_545 S
C1955 C1950 1.371 . S
C1955 C1954 1.406 . S
H1956 C1953 0.999 . S
H1957 C1938 0.913 . S
H1958 C1976 0.951 . S
H1959 C1978 0.951 . S
H1960 C1980 0.950 . S
H1961 C1981 0.950 . S
H1962 C1983 0.950 . S
H1963 C1986 0.950 . S
H1964 C1987 0.950 . S
H1965 C1989 0.950 . S
H1966 C1990 0.950 . S
H1967 C1991 0.951 . S
H1968 C1993 0.951 . S
H1969 C1995 0.950 . S
H1970 C1996 0.950 . S
H1971 C1998 0.926 . S
H1972 C2001 0.950 . S
H1973 C2002 0.950 . S
H1974 C2004 0.950 . S
H1975 C2005 0.950 . S
C1976 H1958 0.951 . S
C1976 C1977 1.366 . S
C1976 C1978 1.388 . S
C1977 C1976 1.366 . S
C1977 C1981 1.385 . S
C1978 H1959 0.951 . S
C1978 C1976 1.388 . S
C1978 C1979 1.366 . S
C1979 C1978 1.366 . S
C1979 C1980 1.414 . S
C1979 C1982 1.499 . S
C1980 H1960 0.950 . S
C1980 C1979 1.414 . S
C1980 C1981 1.374 . S
C1981 H1961 0.950 . S
C1981 C1977 1.385 . S
C1981 C1980 1.374 . S
C1982 C1979 1.499 . S
C1982 C1983 1.373 . S
C1982 C1984 1.389 . S
C1983 H1962 0.950 . S
C1983 C1982 1.373 . S
C1983 C1999 1.377 1_455 S
C1984 C1982 1.389 . S
C1984 C1985 1.524 . S
C1984 C1998 1.375 1_455 S
C1985 C1984 1.524 . S
C1985 C1986 1.397 . S
C1985 C1990 1.363 . S
C1986 H1963 0.950 . S
C1986 C1985 1.397 . S
C1986 C1987 1.334 . S
C1987 H1964 0.950 . S
C1987 C1986 1.334 . S
C1987 C1988 1.287 . S
C1988 C1987 1.287 . S
C1988 C1989 1.524 . S
C1988 H2007 0.913 . S
C1989 H1965 0.950 . S
C1989 C1988 1.524 . S
C1989 C1990 1.415 . S
C1990 H1966 0.950 . S
C1990 C1985 1.363 . S
C1990 C1989 1.415 . S
C1991 H1967 0.951 . S
C1991 C1992 1.366 . S
C1991 C1993 1.388 . S
C1992 C1991 1.366 . S
C1992 C1996 1.385 . S
C1993 H1968 0.951 . S
C1993 C1991 1.388 . S
C1993 C1994 1.366 . S
C1994 C1993 1.366 . S
C1994 C1995 1.414 . S
C1994 C1997 1.499 . S
C1995 H1969 0.950 . S
C1995 C1994 1.414 . S
C1995 C1996 1.374 . S
C1996 H1970 0.950 . S
C1996 C1992 1.385 . S
C1996 C1995 1.374 . S
C1997 C1994 1.499 . S
C1997 C1998 1.374 . S
C1997 C1999 1.389 . S
C1998 H1971 0.926 . S
C1998 C1984 1.375 1_655 S
C1998 C1997 1.374 . S
C1999 C1983 1.377 1_655 S
C1999 C1997 1.389 . S
C1999 C2000 1.524 . S
C2000 C1999 1.524 . S
C2000 C2001 1.397 . S
C2000 C2005 1.363 . S
C2001 H1972 0.950 . S
C2001 C2000 1.397 . S
C2001 C2002 1.334 . S
C2002 H1973 0.950 . S
C2002 C2001 1.334 . S
C2002 C2003 1.287 . S
C2003 C2002 1.287 . S
C2003 C2004 1.524 . S
C2003 H2006 0.999 . S
C2004 H1974 0.950 . S
C2004 C2003 1.524 . S
C2004 C2005 1.415 . S
C2005 H1975 0.950 . S
C2005 C2000 1.363 . S
C2005 C2004 1.415 . S
H2006 C2003 0.999 . S
H2007 C1988 0.913 . S
H2008 C2026 0.951 . S
H2009 C2028 0.951 . S
H2010 C2030 0.950 . S
H2011 C2031 0.950 . S
H2012 C2033 0.950 . S
H2013 C2036 0.950 . S
H2014 C2037 0.950 . S
H2015 C2039 0.950 . S
H2016 C2040 0.950 . S
H2017 C2041 0.951 . S
H2018 C2043 0.951 . S
H2019 C2045 0.950 . S
H2020 C2046 0.950 . S
H2021 C2048 0.950 . S
H2022 C2051 0.950 . S
H2023 C2052 0.950 . S
H2024 C2054 0.950 . S
H2025 C2055 0.950 . S
C2026 H2008 0.951 . S
C2026 C2027 1.366 . S
C2026 C2028 1.388 . S
C2027 C2026 1.366 . S
C2027 C2031 1.385 . S
C2028 H2009 0.951 . S
C2028 C2026 1.388 . S
C2028 C2029 1.366 . S
C2029 C2028 1.366 . S
C2029 C2030 1.414 . S
C2029 C2032 1.499 . S
C2030 H2010 0.950 . S
C2030 C2029 1.414 . S
C2030 C2031 1.374 . S
C2031 H2011 0.950 . S
C2031 C2027 1.385 . S
C2031 C2030 1.374 . S
C2032 C2029 1.499 . S
C2032 C2033 1.373 . S
C2032 C2034 1.389 . S
C2033 H2012 0.950 . S
C2033 C2032 1.373 . S
C2033 C2049 1.377 . S
C2034 C2032 1.389 . S
C2034 C2035 1.524 . S
C2034 C2048 1.377 . S
C2035 C2034 1.524 . S
C2035 C2036 1.397 . S
C2035 C2040 1.363 . S
C2036 H2013 0.950 . S
C2036 C2035 1.397 . S
C2036 C2037 1.334 . S
C2037 H2014 0.950 . S
C2037 C2036 1.334 . S
C2037 C2038 1.287 . S
C2038 C2037 1.287 . S
C2038 C2039 1.524 . S
C2038 H2057 0.913 . S
C2039 H2015 0.950 . S
C2039 C2038 1.524 . S
C2039 C2040 1.415 . S
C2040 H2016 0.950 . S
C2040 C2035 1.363 . S
C2040 C2039 1.415 . S
C2041 H2017 0.951 . S
C2041 C2042 1.366 . S
C2041 C2043 1.388 . S
C2042 C2041 1.366 . S
C2042 C2046 1.385 . S
C2043 H2018 0.951 . S
C2043 C2041 1.388 . S
C2043 C2044 1.366 . S
C2044 C2043 1.366 . S
C2044 C2045 1.414 . S
C2044 C2047 1.499 . S
C2045 H2019 0.950 . S
C2045 C2044 1.414 . S
C2045 C2046 1.374 . S
C2046 H2020 0.950 . S
C2046 C2042 1.385 . S
C2046 C2045 1.374 . S
C2047 C2044 1.499 . S
C2047 C2048 1.373 . S
C2047 C2049 1.389 . S
C2048 H2021 0.950 . S
C2048 C2034 1.377 . S
C2048 C2047 1.373 . S
C2049 C2033 1.377 . S
C2049 C2047 1.389 . S
C2049 C2050 1.524 . S
C2050 C2049 1.524 . S
C2050 C2051 1.397 . S
C2050 C2055 1.363 . S
C2051 H2022 0.950 . S
C2051 C2050 1.397 . S
C2051 C2052 1.334 . S
C2052 H2023 0.950 . S
C2052 C2051 1.334 . S
C2052 C2053 1.287 . S
C2053 C2052 1.287 . S
C2053 C2054 1.524 . S
C2053 H2056 0.999 . S
C2054 H2024 0.950 . S
C2054 C2053 1.524 . S
C2054 C2055 1.415 . S
C2055 H2025 0.950 . S
C2055 C2050 1.363 . S
C2055 C2054 1.415 . S
H2056 C2053 0.999 . S
H2057 C2038 0.913 . S
H2058 C2076 0.951 . S
H2059 C2078 0.951 . S
H2060 C2080 0.950 . S
H2061 C2081 0.950 . S
H2062 C2083 0.950 . S
H2063 C2086 0.981 . S
H2064 C2087 0.950 1_455 S
H2065 C2089 0.950 . S
H2066 C2090 0.950 . S
H2067 C2091 0.951 . S
H2068 C2093 0.951 . S
H2069 C2095 0.950 . S
H2070 C2096 0.950 . S
H2071 C2098 0.950 . S
H2072 C2101 0.950 . S
H2073 C2102 0.950 . S
H2074 C2104 0.950 . S
H2075 C2105 0.950 . S
C2076 H2058 0.951 . S
C2076 C2077 1.366 . S
C2076 C2078 1.388 . S
C2077 C2076 1.366 . S
C2077 C2081 1.385 . S
C2078 H2059 0.951 . S
C2078 C2076 1.388 . S
C2078 C2079 1.366 . S
C2079 C2078 1.366 . S
C2079 C2080 1.414 . S
C2079 C2082 1.499 1_455 S
C2080 H2060 0.950 . S
C2080 C2079 1.414 . S
C2080 C2081 1.374 . S
C2081 H2061 0.950 . S
C2081 C2077 1.385 . S
C2081 C2080 1.374 . S
C2082 C2079 1.499 1_655 S
C2082 C2083 1.373 . S
C2082 C2084 1.389 . S
C2083 H2062 0.950 . S
C2083 C2082 1.373 . S
C2083 C2099 1.377 . S
C2084 C2082 1.389 . S
C2084 C2085 1.524 . S
C2084 C2098 1.377 . S
C2085 C2084 1.524 . S
C2085 C2086 1.397 . S
C2085 C2090 1.363 . S
C2086 H2063 0.981 . S
C2086 C2085 1.397 . S
C2086 C2087 1.334 . S
C2087 H2064 0.950 1_655 S
C2087 C2086 1.334 . S
C2087 C2088 1.287 . S
C2088 C2087 1.287 . S
C2088 C2089 1.524 . S
C2088 H2107 0.913 . S
C2089 H2065 0.950 . S
C2089 C2088 1.524 . S
C2089 C2090 1.415 . S
C2090 H2066 0.950 . S
C2090 C2085 1.363 . S
C2090 C2089 1.415 . S
C2091 H2067 0.951 . S
C2091 C2092 1.366 . S
C2091 C2093 1.388 . S
C2092 C2091 1.366 . S
C2092 C2096 1.385 . S
C2093 H2068 0.951 . S
C2093 C2091 1.388 . S
C2093 C2094 1.366 . S
C2094 C2093 1.366 . S
C2094 C2095 1.414 . S
C2094 C2097 1.499 . S
C2095 H2069 0.950 . S
C2095 C2094 1.414 . S
C2095 C2096 1.374 . S
C2096 H2070 0.950 . S
C2096 C2092 1.385 . S
C2096 C2095 1.374 . S
C2097 C2094 1.499 . S
C2097 C2098 1.373 . S
C2097 C2099 1.389 . S
C2098 H2071 0.950 . S
C2098 C2084 1.377 . S
C2098 C2097 1.373 . S
C2099 C2083 1.377 . S
C2099 C2097 1.389 . S
C2099 C2100 1.524 . S
C2100 C2099 1.524 . S
C2100 C2101 1.397 . S
C2100 C2105 1.363 . S
C2101 H2072 0.950 . S
C2101 C2100 1.397 . S
C2101 C2102 1.334 . S
C2102 H2073 0.950 . S
C2102 C2101 1.334 . S
C2102 C2103 1.287 . S
C2103 C2102 1.287 . S
C2103 C2104 1.524 . S
C2103 H2106 0.999 . S
C2104 H2074 0.950 . S
C2104 C2103 1.524 . S
C2104 C2105 1.415 . S
C2105 H2075 0.950 . S
C2105 C2100 1.363 . S
C2105 C2104 1.415 . S
H2106 C2103 0.999 . S
H2107 C2088 0.913 . S
H2108 C2126 0.951 . S
H2109 C2128 0.951 . S
H2110 C2130 0.950 . S
H2111 C2131 0.950 . S
H2112 C2133 0.950 . S
H2113 C2136 0.950 . S
H2114 C2137 0.950 . S
H2115 C2139 0.950 . S
H2116 C2140 0.950 . S
H2117 C2141 0.951 . S
H2118 C2143 0.951 . S
H2119 C2145 0.950 . S
H2120 C2146 0.950 . S
H2121 C2148 0.950 . S
H2122 C2151 0.950 . S
H2123 C2152 0.950 . S
H2124 C2154 0.950 . S
H2125 C2155 0.950 . S
C2126 H2108 0.951 . S
C2126 C2127 1.366 . S
C2126 C2128 1.388 . S
C2127 C2126 1.366 . S
C2127 C2131 1.385 . S
C2128 H2109 0.951 . S
C2128 C2126 1.388 . S
C2128 C2129 1.366 . S
C2129 C2128 1.366 . S
C2129 C2130 1.414 . S
C2129 C2132 1.499 . S
C2130 H2110 0.950 . S
C2130 C2129 1.414 . S
C2130 C2131 1.374 . S
C2131 H2111 0.950 . S
C2131 C2127 1.385 . S
C2131 C2130 1.374 . S
C2132 C2129 1.499 . S
C2132 C2133 1.373 . S
C2132 C2134 1.389 . S
C2133 H2112 0.950 . S
C2133 C2132 1.373 . S
C2133 C2149 1.377 . S
C2134 C2132 1.389 . S
C2134 C2135 1.524 . S
C2134 C2148 1.377 . S
C2135 C2134 1.524 . S
C2135 C2136 1.397 . S
C2135 C2140 1.363 . S
C2136 H2113 0.950 . S
C2136 C2135 1.397 . S
C2136 C2137 1.334 . S
C2137 H2114 0.950 . S
C2137 C2136 1.334 . S
C2137 C2138 1.287 . S
C2138 C2137 1.287 . S
C2138 C2139 1.524 . S
C2138 H2157 0.913 . S
C2139 H2115 0.950 . S
C2139 C2138 1.524 . S
C2139 C2140 1.415 . S
C2140 H2116 0.950 . S
C2140 C2135 1.363 . S
C2140 C2139 1.415 . S
C2141 H2117 0.951 . S
C2141 C2142 1.366 . S
C2141 C2143 1.388 . S
C2142 C2141 1.366 . S
C2142 C2146 1.385 . S
C2143 H2118 0.951 . S
C2143 C2141 1.388 . S
C2143 C2144 1.366 . S
C2144 C2143 1.366 . S
C2144 C2145 1.414 . S
C2144 C2147 1.499 . S
C2145 H2119 0.950 . S
C2145 C2144 1.414 . S
C2145 C2146 1.374 . S
C2146 H2120 0.950 . S
C2146 C2142 1.385 . S
C2146 C2145 1.374 . S
C2147 C2144 1.499 . S
C2147 C2148 1.373 . S
C2147 C2149 1.389 . S
C2148 H2121 0.950 . S
C2148 C2134 1.377 . S
C2148 C2147 1.373 . S
C2149 C2133 1.377 . S
C2149 C2147 1.389 . S
C2149 C2150 1.524 . S
C2150 C2149 1.524 . S
C2150 C2151 1.397 . S
C2150 C2155 1.363 . S
C2151 H2122 0.950 . S
C2151 C2150 1.397 . S
C2151 C2152 1.334 . S
C2152 H2123 0.950 . S
C2152 C2151 1.334 . S
C2152 C2153 1.287 . S
C2153 C2152 1.287 . S
C2153 C2154 1.524 . S
C2153 H2156 0.999 . S
C2154 H2124 0.950 . S
C2154 C2153 1.524 . S
C2154 C2155 1.415 . S
C2155 H2125 0.950 . S
C2155 C2150 1.363 . S
C2155 C2154 1.415 . S
H2156 C2153 0.999 . S
H2157 C2138 0.913 . S
H2158 C2176 0.951 . S
H2159 C2178 0.951 . S
H2160 C2180 0.950 . S
H2161 C2181 0.950 . S
H2162 C2183 0.950 . S
H2163 C2186 0.950 . S
H2164 C2187 0.945 1_565 S
H2165 C2189 0.950 . S
H2166 C2190 0.950 . S
H2167 C2191 0.951 . S
H2168 C2193 0.951 . S
H2169 C2195 0.950 . S
H2170 C2196 0.950 . S
H2171 C2198 0.950 . S
H2172 C2201 0.950 . S
H2173 C2202 0.950 . S
H2174 C2204 0.950 . S
H2175 C2205 0.950 . S
C2176 H2158 0.951 . S
C2176 C2177 1.366 . S
C2176 C2178 1.388 . S
C2177 C2176 1.366 . S
C2177 C2181 1.385 . S
C2178 H2159 0.951 . S
C2178 C2176 1.388 . S
C2178 C2179 1.366 . S
C2179 C2178 1.366 . S
C2179 C2180 1.414 . S
C2179 C2182 1.499 1_565 S
C2180 H2160 0.950 . S
C2180 C2179 1.414 . S
C2180 C2181 1.374 . S
C2181 H2161 0.950 . S
C2181 C2177 1.385 . S
C2181 C2180 1.374 . S
C2182 C2179 1.499 1_545 S
C2182 C2183 1.373 . S
C2182 C2184 1.389 . S
C2183 H2162 0.950 . S
C2183 C2182 1.373 . S
C2183 C2199 1.377 . S
C2184 C2182 1.389 . S
C2184 C2185 1.524 . S
C2184 C2198 1.377 . S
C2185 C2184 1.524 . S
C2185 C2186 1.397 . S
C2185 C2190 1.363 . S
C2186 H2163 0.950 . S
C2186 C2185 1.397 . S
C2186 C2187 1.340 . S
C2187 H2164 0.945 1_545 S
C2187 C2186 1.340 . S
C2187 C2188 1.286 . S
C2188 C2187 1.286 . S
C2188 C2189 1.524 . S
C2188 H2207 0.913 . S
C2189 H2165 0.950 . S
C2189 C2188 1.524 . S
C2189 C2190 1.415 . S
C2190 H2166 0.950 . S
C2190 C2185 1.363 . S
C2190 C2189 1.415 . S
C2191 H2167 0.951 . S
C2191 C2192 1.366 . S
C2191 C2193 1.388 . S
C2192 C2191 1.366 . S
C2192 C2196 1.385 . S
C2193 H2168 0.951 . S
C2193 C2191 1.388 . S
C2193 C2194 1.366 . S
C2194 C2193 1.366 . S
C2194 C2195 1.414 . S
C2194 C2197 1.499 . S
C2195 H2169 0.950 . S
C2195 C2194 1.414 . S
C2195 C2196 1.374 . S
C2196 H2170 0.950 . S
C2196 C2192 1.385 . S
C2196 C2195 1.374 . S
C2197 C2194 1.499 . S
C2197 C2198 1.373 . S
C2197 C2199 1.389 . S
C2198 H2171 0.950 . S
C2198 C2184 1.377 . S
C2198 C2197 1.373 . S
C2199 C2183 1.377 . S
C2199 C2197 1.389 . S
C2199 C2200 1.524 . S
C2200 C2199 1.524 . S
C2200 C2201 1.397 . S
C2200 C2205 1.363 . S
C2201 H2172 0.950 . S
C2201 C2200 1.397 . S
C2201 C2202 1.334 . S
C2202 H2173 0.950 . S
C2202 C2201 1.334 . S
C2202 C2203 1.287 . S
C2203 C2202 1.287 . S
C2203 C2204 1.524 . S
C2203 H2206 0.999 . S
C2204 H2174 0.950 . S
C2204 C2203 1.524 . S
C2204 C2205 1.415 . S
C2205 H2175 0.950 . S
C2205 C2200 1.363 . S
C2205 C2204 1.415 . S
H2206 C2203 0.999 . S
H2207 C2188 0.913 . S
H2208 C2226 0.951 . S
H2209 C2228 0.951 . S
H2210 C2230 0.950 . S
H2211 C2231 0.950 . S
H2212 C2233 0.950 . S
H2213 C2236 0.950 . S
H2214 C2237 0.950 . S
H2215 C2239 0.950 . S
H2216 C2240 0.950 . S
H2217 C2241 0.951 . S
H2218 C2243 0.951 . S
H2219 C2245 0.950 . S
H2220 C2246 0.950 . S
H2221 C2248 0.950 . S
H2222 C2251 0.950 . S
H2223 C2252 0.950 . S
H2224 C2254 0.950 . S
H2225 C2255 0.950 . S
C2226 H2208 0.951 . S
C2226 C2227 1.366 . S
C2226 C2228 1.388 . S
C2227 C2226 1.366 . S
C2227 C2231 1.385 . S
C2228 H2209 0.951 . S
C2228 C2226 1.388 . S
C2228 C2229 1.366 . S
C2229 C2228 1.366 . S
C2229 C2230 1.414 . S
C2229 C2232 1.499 . S
C2230 H2210 0.950 . S
C2230 C2229 1.414 . S
C2230 C2231 1.374 . S
C2231 H2211 0.950 . S
C2231 C2227 1.385 . S
C2231 C2230 1.374 . S
C2232 C2229 1.499 . S
C2232 C2233 1.373 . S
C2232 C2234 1.389 . S
C2233 H2212 0.950 . S
C2233 C2232 1.373 . S
C2233 C2249 1.377 . S
C2234 C2232 1.389 . S
C2234 C2235 1.524 . S
C2234 C2248 1.377 . S
C2235 C2234 1.524 . S
C2235 C2236 1.397 . S
C2235 C2240 1.363 . S
C2236 H2213 0.950 . S
C2236 C2235 1.397 . S
C2236 C2237 1.334 . S
C2237 H2214 0.950 . S
C2237 C2236 1.334 . S
C2237 C2238 1.287 . S
C2238 C2237 1.287 . S
C2238 C2239 1.524 . S
C2238 H2257 0.913 . S
C2239 H2215 0.950 . S
C2239 C2238 1.524 . S
C2239 C2240 1.415 . S
C2240 H2216 0.950 . S
C2240 C2235 1.363 . S
C2240 C2239 1.415 . S
C2241 H2217 0.951 . S
C2241 C2242 1.366 . S
C2241 C2243 1.388 . S
C2242 C2241 1.366 . S
C2242 C2246 1.385 . S
C2243 H2218 0.951 . S
C2243 C2241 1.388 . S
C2243 C2244 1.366 . S
C2244 C2243 1.366 . S
C2244 C2245 1.414 . S
C2244 C2247 1.499 . S
C2245 H2219 0.950 . S
C2245 C2244 1.414 . S
C2245 C2246 1.374 . S
C2246 H2220 0.950 . S
C2246 C2242 1.385 . S
C2246 C2245 1.374 . S
C2247 C2244 1.499 . S
C2247 C2248 1.373 . S
C2247 C2249 1.389 . S
C2248 H2221 0.950 . S
C2248 C2234 1.377 . S
C2248 C2247 1.373 . S
C2249 C2233 1.377 . S
C2249 C2247 1.389 . S
C2249 C2250 1.524 . S
C2250 C2249 1.524 . S
C2250 C2251 1.397 . S
C2250 C2255 1.363 . S
C2251 H2222 0.950 . S
C2251 C2250 1.397 . S
C2251 C2252 1.334 . S
C2252 H2223 0.950 . S
C2252 C2251 1.334 . S
C2252 C2253 1.287 . S
C2253 C2252 1.287 . S
C2253 C2254 1.524 . S
C2253 H2256 0.999 . S
C2254 H2224 0.950 . S
C2254 C2253 1.524 . S
C2254 C2255 1.415 . S
C2255 H2225 0.950 . S
C2255 C2250 1.363 . S
C2255 C2254 1.415 . S
H2256 C2253 0.999 . S
H2257 C2238 0.913 . S
H2258 C2276 0.951 . S
H2259 C2278 0.951 . S
H2260 C2280 0.950 . S
H2261 C2281 0.950 . S
H2262 C2283 0.950 . S
H2263 C2286 0.950 . S
H2264 C2287 0.950 . S
H2265 C2289 0.950 . S
H2266 C2290 0.950 . S
H2267 C2291 0.951 . S
H2268 C2293 0.951 . S
H2269 C2295 0.950 . S
H2270 C2296 0.950 . S
H2271 C2298 0.950 . S
H2272 C2301 0.950 . S
H2273 C2302 0.950 . S
H2274 C2304 0.950 . S
H2275 C2305 0.950 . S
C2276 H2258 0.951 . S
C2276 C2277 1.366 . S
C2276 C2278 1.388 . S
C2277 C2276 1.366 . S
C2277 C2281 1.385 . S
C2278 H2259 0.951 . S
C2278 C2276 1.388 . S
C2278 C2279 1.366 . S
C2279 C2278 1.366 . S
C2279 C2280 1.414 . S
C2279 C2282 1.499 . S
C2280 H2260 0.950 . S
C2280 C2279 1.414 . S
C2280 C2281 1.374 . S
C2281 H2261 0.950 . S
C2281 C2277 1.385 . S
C2281 C2280 1.374 . S
C2282 C2279 1.499 . S
C2282 C2283 1.373 . S
C2282 C2284 1.389 . S
C2283 H2262 0.950 . S
C2283 C2282 1.373 . S
C2283 C2299 1.377 . S
C2284 C2282 1.389 . S
C2284 C2285 1.524 . S
C2284 C2298 1.377 . S
C2285 C2284 1.524 . S
C2285 C2286 1.397 . S
C2285 C2290 1.363 . S
C2286 H2263 0.950 . S
C2286 C2285 1.397 . S
C2286 C2287 1.334 . S
C2287 H2264 0.950 . S
C2287 C2286 1.334 . S
C2287 C2288 1.287 . S
C2288 C2287 1.287 . S
C2288 C2289 1.524 . S
C2288 H2307 0.913 . S
C2289 H2265 0.950 . S
C2289 C2288 1.524 . S
C2289 C2290 1.415 . S
C2290 H2266 0.950 . S
C2290 C2285 1.363 . S
C2290 C2289 1.415 . S
C2291 H2267 0.951 . S
C2291 C2292 1.366 . S
C2291 C2293 1.388 . S
C2292 C2291 1.366 . S
C2292 C2296 1.385 . S
C2293 H2268 0.951 . S
C2293 C2291 1.388 . S
C2293 C2294 1.366 . S
C2294 C2293 1.366 . S
C2294 C2295 1.414 . S
C2294 C2297 1.499 . S
C2295 H2269 0.950 . S
C2295 C2294 1.414 . S
C2295 C2296 1.374 . S
C2296 H2270 0.950 . S
C2296 C2292 1.385 . S
C2296 C2295 1.374 . S
C2297 C2294 1.499 . S
C2297 C2298 1.373 . S
C2297 C2299 1.389 . S
C2298 H2271 0.950 . S
C2298 C2284 1.377 . S
C2298 C2297 1.373 . S
C2299 C2283 1.377 . S
C2299 C2297 1.389 . S
C2299 C2300 1.524 . S
C2300 C2299 1.524 . S
C2300 C2301 1.397 . S
C2300 C2305 1.363 . S
C2301 H2272 0.950 . S
C2301 C2300 1.397 . S
C2301 C2302 1.334 . S
C2302 H2273 0.950 . S
C2302 C2301 1.334 . S
C2302 C2303 1.287 . S
C2303 C2302 1.287 . S
C2303 C2304 1.524 . S
C2303 H2306 0.999 . S
C2304 H2274 0.950 . S
C2304 C2303 1.524 . S
C2304 C2305 1.415 . S
C2305 H2275 0.950 . S
C2305 C2300 1.363 . S
C2305 C2304 1.415 . S
H2306 C2303 0.999 . S
H2307 C2288 0.913 . S
H2308 C2326 0.951 . S
H2309 C2328 0.951 . S
H2310 C2330 0.950 . S
H2311 C2331 0.950 . S
H2312 C2333 0.950 . S
H2313 C2336 0.950 . S
H2314 C2337 0.950 . S
H2315 C2339 0.950 . S
H2316 C2340 0.950 . S
H2317 C2341 0.951 . S
H2318 C2343 0.951 . S
H2319 C2345 0.950 . S
H2320 C2346 0.950 . S
H2321 C2348 0.950 . S
H2322 C2351 0.950 . S
H2323 C2352 0.950 . S
H2324 C2354 0.950 . S
H2325 C2355 0.950 . S
C2326 H2308 0.951 . S
C2326 C2327 1.366 . S
C2326 C2328 1.388 . S
C2327 C2326 1.366 . S
C2327 C2331 1.385 . S
C2328 H2309 0.951 . S
C2328 C2326 1.388 . S
C2328 C2329 1.366 . S
C2329 C2328 1.366 . S
C2329 C2330 1.414 . S
C2329 C2332 1.499 . S
C2330 H2310 0.950 . S
C2330 C2329 1.414 . S
C2330 C2331 1.374 . S
C2331 H2311 0.950 . S
C2331 C2327 1.385 . S
C2331 C2330 1.374 . S
C2332 C2329 1.499 . S
C2332 C2333 1.373 . S
C2332 C2334 1.389 . S
C2333 H2312 0.950 . S
C2333 C2332 1.373 . S
C2333 C2349 1.377 . S
C2334 C2332 1.389 . S
C2334 C2335 1.524 . S
C2334 C2348 1.377 . S
C2335 C2334 1.524 . S
C2335 C2336 1.397 . S
C2335 C2340 1.363 . S
C2336 H2313 0.950 . S
C2336 C2335 1.397 . S
C2336 C2337 1.334 . S
C2337 H2314 0.950 . S
C2337 C2336 1.334 . S
C2337 C2338 1.287 . S
C2338 C2337 1.287 . S
C2338 C2339 1.524 . S
C2338 H2357 0.913 . S
C2339 H2315 0.950 . S
C2339 C2338 1.524 . S
C2339 C2340 1.415 . S
C2340 H2316 0.950 . S
C2340 C2335 1.363 . S
C2340 C2339 1.415 . S
C2341 H2317 0.951 . S
C2341 C2342 1.366 . S
C2341 C2343 1.388 . S
C2342 C2341 1.366 . S
C2342 C2346 1.385 . S
C2343 H2318 0.951 . S
C2343 C2341 1.388 . S
C2343 C2344 1.366 . S
C2344 C2343 1.366 . S
C2344 C2345 1.414 . S
C2344 C2347 1.499 . S
C2345 H2319 0.950 . S
C2345 C2344 1.414 . S
C2345 C2346 1.374 . S
C2346 H2320 0.950 . S
C2346 C2342 1.385 . S
C2346 C2345 1.374 . S
C2347 C2344 1.499 . S
C2347 C2348 1.373 . S
C2347 C2349 1.389 . S
C2348 H2321 0.950 . S
C2348 C2334 1.377 . S
C2348 C2347 1.373 . S
C2349 C2333 1.377 . S
C2349 C2347 1.389 . S
C2349 C2350 1.524 . S
C2350 C2349 1.524 . S
C2350 C2351 1.397 . S
C2350 C2355 1.363 . S
C2351 H2322 0.950 . S
C2351 C2350 1.397 . S
C2351 C2352 1.334 . S
C2352 H2323 0.950 . S
C2352 C2351 1.334 . S
C2352 C2353 1.287 . S
C2353 C2352 1.287 . S
C2353 C2354 1.524 . S
C2353 H2356 0.999 . S
C2354 H2324 0.950 . S
C2354 C2353 1.524 . S
C2354 C2355 1.415 . S
C2355 H2325 0.950 . S
C2355 C2350 1.363 . S
C2355 C2354 1.415 . S
H2356 C2353 0.999 . S
H2357 C2338 0.913 . S
H2358 C2376 0.951 . S
H2359 C2378 0.951 . S
H2360 C2380 0.950 . S
H2361 C2381 0.950 . S
H2362 C2383 0.950 . S
H2363 C2386 0.950 . S
H2364 C2387 0.950 . S
H2365 C2389 0.950 . S
H2366 C2390 0.950 . S
H2367 C2391 0.951 . S
H2368 C2393 0.951 . S
H2369 C2395 0.950 . S
H2370 C2396 0.950 . S
H2371 C2398 0.950 . S
H2372 C2401 0.950 . S
H2373 C2402 0.950 . S
H2374 C2404 0.950 . S
H2375 C2405 0.950 . S
C2376 H2358 0.951 . S
C2376 C2377 1.366 . S
C2376 C2378 1.388 . S
C2377 C2376 1.366 . S
C2377 C2381 1.385 . S
C2378 H2359 0.951 . S
C2378 C2376 1.388 . S
C2378 C2379 1.366 . S
C2379 C2378 1.366 . S
C2379 C2380 1.414 . S
C2379 C2382 1.499 . S
C2380 H2360 0.950 . S
C2380 C2379 1.414 . S
C2380 C2381 1.374 . S
C2381 H2361 0.950 . S
C2381 C2377 1.385 . S
C2381 C2380 1.374 . S
C2382 C2379 1.499 . S
C2382 C2383 1.373 . S
C2382 C2384 1.389 . S
C2383 H2362 0.950 . S
C2383 C2382 1.373 . S
C2383 C2399 1.377 . S
C2384 C2382 1.389 . S
C2384 C2385 1.524 . S
C2384 C2398 1.377 . S
C2385 C2384 1.524 . S
C2385 C2386 1.397 . S
C2385 C2390 1.363 . S
C2386 H2363 0.950 . S
C2386 C2385 1.397 . S
C2386 C2387 1.334 . S
C2387 H2364 0.950 . S
C2387 C2386 1.334 . S
C2387 C2388 1.287 . S
C2388 C2387 1.287 . S
C2388 C2389 1.524 . S
C2388 H2407 0.913 . S
C2389 H2365 0.950 . S
C2389 C2388 1.524 . S
C2389 C2390 1.415 . S
C2390 H2366 0.950 . S
C2390 C2385 1.363 . S
C2390 C2389 1.415 . S
C2391 H2367 0.951 . S
C2391 C2392 1.366 . S
C2391 C2393 1.388 . S
C2392 C2391 1.366 . S
C2392 C2396 1.385 . S
C2393 H2368 0.951 . S
C2393 C2391 1.388 . S
C2393 C2394 1.366 . S
C2394 C2393 1.366 . S
C2394 C2395 1.414 . S
C2394 C2397 1.499 . S
C2395 H2369 0.950 . S
C2395 C2394 1.414 . S
C2395 C2396 1.374 . S
C2396 H2370 0.950 . S
C2396 C2392 1.385 . S
C2396 C2395 1.374 . S
C2397 C2394 1.499 . S
C2397 C2398 1.373 . S
C2397 C2399 1.389 . S
C2398 H2371 0.950 . S
C2398 C2384 1.377 . S
C2398 C2397 1.373 . S
C2399 C2383 1.377 . S
C2399 C2397 1.389 . S
C2399 C2400 1.524 . S
C2400 C2399 1.524 . S
C2400 C2401 1.397 1_565 S
C2400 C2405 1.363 . S
C2401 H2372 0.950 . S
C2401 C2400 1.397 1_545 S
C2401 C2402 1.334 . S
C2402 H2373 0.950 . S
C2402 C2401 1.334 . S
C2402 C2403 1.287 . S
C2403 C2402 1.287 . S
C2403 C2404 1.524 . S
C2403 H2406 0.999 . S
C2404 H2374 0.950 . S
C2404 C2403 1.524 . S
C2404 C2405 1.415 1_545 S
C2405 H2375 0.950 . S
C2405 C2400 1.363 . S
C2405 C2404 1.415 1_565 S
H2406 C2403 0.999 . S
H2407 C2388 0.913 . S
H2408 C2426 0.951 . S
H2409 C2428 0.951 . S
H2410 C2430 0.950 . S
H2411 C2431 0.950 . S
H2412 C2433 0.950 . S
H2413 C2436 0.950 . S
H2414 C2437 0.950 . S
H2415 C2439 0.950 . S
H2416 C2440 0.950 . S
H2417 C2441 0.951 . S
H2418 C2443 0.951 . S
H2419 C2445 0.950 . S
H2420 C2446 0.950 . S
H2421 C2448 0.950 . S
H2422 C2451 0.950 . S
H2423 C2452 0.950 . S
H2424 C2454 0.950 . S
H2425 C2455 0.950 . S
C2426 H2408 0.951 . S
C2426 C2427 1.366 . S
C2426 C2428 1.388 . S
C2427 C2426 1.366 . S
C2427 C2431 1.385 . S
C2428 H2409 0.951 . S
C2428 C2426 1.388 . S
C2428 C2429 1.366 . S
C2429 C2428 1.366 . S
C2429 C2430 1.414 . S
C2429 C2432 1.499 . S
C2430 H2410 0.950 . S
C2430 C2429 1.414 . S
C2430 C2431 1.374 . S
C2431 H2411 0.950 . S
C2431 C2427 1.385 . S
C2431 C2430 1.374 . S
C2432 C2429 1.499 . S
C2432 C2433 1.373 . S
C2432 C2434 1.389 . S
C2433 H2412 0.950 . S
C2433 C2432 1.373 . S
C2433 C2449 1.377 . S
C2434 C2432 1.389 . S
C2434 C2435 1.524 . S
C2434 C2448 1.377 . S
C2435 C2434 1.524 . S
C2435 C2436 1.397 . S
C2435 C2440 1.363 . S
C2436 H2413 0.950 . S
C2436 C2435 1.397 . S
C2436 C2437 1.334 1_455 S
C2437 H2414 0.950 . S
C2437 C2436 1.334 1_655 S
C2437 C2438 1.287 . S
C2438 C2437 1.287 . S
C2438 C2439 1.524 1_655 S
C2438 H2457 0.913 . S
C2439 H2415 0.950 . S
C2439 C2438 1.524 1_455 S
C2439 C2440 1.415 . S
C2440 H2416 0.950 . S
C2440 C2435 1.363 . S
C2440 C2439 1.415 . S
C2441 H2417 0.951 . S
C2441 C2442 1.366 . S
C2441 C2443 1.388 . S
C2442 C2441 1.366 . S
C2442 C2446 1.385 . S
C2443 H2418 0.951 . S
C2443 C2441 1.388 . S
C2443 C2444 1.366 . S
C2444 C2443 1.366 . S
C2444 C2445 1.414 . S
C2444 C2447 1.499 . S
C2445 H2419 0.950 . S
C2445 C2444 1.414 . S
C2445 C2446 1.374 . S
C2446 H2420 0.950 . S
C2446 C2442 1.385 . S
C2446 C2445 1.374 . S
C2447 C2444 1.499 . S
C2447 C2448 1.373 . S
C2447 C2449 1.389 . S
C2448 H2421 0.950 . S
C2448 C2434 1.377 . S
C2448 C2447 1.373 . S
C2449 C2433 1.377 . S
C2449 C2447 1.389 . S
C2449 C2450 1.524 . S
C2450 C2449 1.524 . S
C2450 C2451 1.397 . S
C2450 C2455 1.363 . S
C2451 H2422 0.950 . S
C2451 C2450 1.397 . S
C2451 C2452 1.334 . S
C2452 H2423 0.950 . S
C2452 C2451 1.334 . S
C2452 C2453 1.287 . S
C2453 C2452 1.287 . S
C2453 C2454 1.524 . S
C2453 H2456 0.999 . S
C2454 H2424 0.950 . S
C2454 C2453 1.524 . S
C2454 C2455 1.415 . S
C2455 H2425 0.950 . S
C2455 C2450 1.363 . S
C2455 C2454 1.415 . S
H2456 C2453 0.999 . S
H2457 C2438 0.913 . S
H2458 C2476 0.951 . S
H2459 C2478 0.951 . S
H2460 C2480 0.950 . S
H2461 C2481 0.950 . S
H2462 C2483 0.950 . S
H2463 C2486 0.950 . S
H2464 C2487 0.950 . S
H2465 C2489 0.950 . S
H2466 C2490 0.950 . S
H2467 C2491 0.951 . S
H2468 C2493 0.951 . S
H2469 C2495 0.950 . S
H2470 C2496 0.950 . S
H2471 C2498 0.950 . S
H2472 C2501 0.950 . S
H2473 C2502 0.950 . S
H2474 C2504 0.950 . S
H2475 C2505 0.950 . S
C2476 H2458 0.951 . S
C2476 C2477 1.366 . S
C2476 C2478 1.388 . S
C2477 C2476 1.366 . S
C2477 C2481 1.385 . S
C2478 H2459 0.951 . S
C2478 C2476 1.388 . S
C2478 C2479 1.366 . S
C2479 C2478 1.366 . S
C2479 C2480 1.414 . S
C2479 C2482 1.499 . S
C2480 H2460 0.950 . S
C2480 C2479 1.414 . S
C2480 C2481 1.374 . S
C2481 H2461 0.950 . S
C2481 C2477 1.385 . S
C2481 C2480 1.374 . S
C2482 C2479 1.499 . S
C2482 C2483 1.373 . S
C2482 C2484 1.389 . S
C2483 H2462 0.950 . S
C2483 C2482 1.373 . S
C2483 C2499 1.377 . S
C2484 C2482 1.389 . S
C2484 C2485 1.524 . S
C2484 C2498 1.377 . S
C2485 C2484 1.524 . S
C2485 C2486 1.397 . S
C2485 C2490 1.363 . S
C2486 H2463 0.950 . S
C2486 C2485 1.397 . S
C2486 C2487 1.334 . S
C2487 H2464 0.950 . S
C2487 C2486 1.334 . S
C2487 C2488 1.287 . S
C2488 C2487 1.287 . S
C2488 C2489 1.524 . S
C2488 H2507 0.913 . S
C2489 H2465 0.950 . S
C2489 C2488 1.524 . S
C2489 C2490 1.415 . S
C2490 H2466 0.950 . S
C2490 C2485 1.363 . S
C2490 C2489 1.415 . S
C2491 H2467 0.951 . S
C2491 C2492 1.366 . S
C2491 C2493 1.388 . S
C2492 C2491 1.366 . S
C2492 C2496 1.385 . S
C2493 H2468 0.951 . S
C2493 C2491 1.388 . S
C2493 C2494 1.366 . S
C2494 C2493 1.366 . S
C2494 C2495 1.414 . S
C2494 C2497 1.499 . S
C2495 H2469 0.950 . S
C2495 C2494 1.414 . S
C2495 C2496 1.374 . S
C2496 H2470 0.950 . S
C2496 C2492 1.385 . S
C2496 C2495 1.374 . S
C2497 C2494 1.499 . S
C2497 C2498 1.373 . S
C2497 C2499 1.389 . S
C2498 H2471 0.950 . S
C2498 C2484 1.377 . S
C2498 C2497 1.373 . S
C2499 C2483 1.377 . S
C2499 C2497 1.389 . S
C2499 C2500 1.524 . S
C2500 C2499 1.524 . S
C2500 C2501 1.397 . S
C2500 C2505 1.363 . S
C2501 H2472 0.950 . S
C2501 C2500 1.397 . S
C2501 C2502 1.334 . S
C2502 H2473 0.950 . S
C2502 C2501 1.334 . S
C2502 C2503 1.287 . S
C2503 C2502 1.287 . S
C2503 C2504 1.524 . S
C2503 H2506 0.999 . S
C2504 H2474 0.950 . S
C2504 C2503 1.524 . S
C2504 C2505 1.415 . S
C2505 H2475 0.950 . S
C2505 C2500 1.363 . S
C2505 C2504 1.415 . S
H2506 C2503 0.999 . S
H2507 C2488 0.913 . S
H2508 C2526 0.951 . S
H2509 C2528 0.951 . S
H2510 C2530 0.950 . S
H2511 C2531 0.950 . S
H2512 C2533 0.950 . S
H2513 C2536 0.950 . S
H2514 C2537 0.950 . S
H2515 C2539 0.950 . S
H2516 C2540 0.950 . S
H2517 C2541 0.924 1_455 S
H2518 C2543 0.951 . S
H2519 C2545 0.950 . S
H2520 C2546 0.950 . S
H2521 C2548 0.950 . S
H2522 C2551 0.950 . S
H2523 C2552 0.950 . S
H2524 C2554 0.950 . S
H2525 C2555 0.950 . S
C2526 H2508 0.951 . S
C2526 C2527 1.366 . S
C2526 C2528 1.388 . S
C2527 C2526 1.366 . S
C2527 C2531 1.385 . S
C2528 H2509 0.951 . S
C2528 C2526 1.388 . S
C2528 C2529 1.366 . S
C2529 C2528 1.366 . S
C2529 C2530 1.414 . S
C2529 C2532 1.499 . S
C2530 H2510 0.950 . S
C2530 C2529 1.414 . S
C2530 C2531 1.374 . S
C2531 H2511 0.950 . S
C2531 C2527 1.385 . S
C2531 C2530 1.374 . S
C2532 C2529 1.499 . S
C2532 C2533 1.373 . S
C2532 C2534 1.389 . S
C2533 H2512 0.950 . S
C2533 C2532 1.373 . S
C2533 C2549 1.377 . S
C2534 C2532 1.389 . S
C2534 C2535 1.524 . S
C2534 C2548 1.377 . S
C2535 C2534 1.524 . S
C2535 C2536 1.397 . S
C2535 C2540 1.363 . S
C2536 H2513 0.950 . S
C2536 C2535 1.397 . S
C2536 C2537 1.334 . S
C2537 H2514 0.950 . S
C2537 C2536 1.334 . S
C2537 C2538 1.287 . S
C2538 C2537 1.287 . S
C2538 C2539 1.524 . S
C2538 H2557 0.913 . S
C2539 H2515 0.950 . S
C2539 C2538 1.524 . S
C2539 C2540 1.415 . S
C2540 H2516 0.950 . S
C2540 C2535 1.363 . S
C2540 C2539 1.415 . S
C2541 H2517 0.924 1_655 S
C2541 C2542 1.366 . S
C2541 C2543 1.388 . S
C2542 C2541 1.366 . S
C2542 C2546 1.385 . S
C2543 H2518 0.951 . S
C2543 C2541 1.388 . S
C2543 C2544 1.366 . S
C2544 C2543 1.366 . S
C2544 C2545 1.414 . S
C2544 C2547 1.499 . S
C2545 H2519 0.950 . S
C2545 C2544 1.414 . S
C2545 C2546 1.374 . S
C2546 H2520 0.950 . S
C2546 C2542 1.385 . S
C2546 C2545 1.374 . S
C2547 C2544 1.499 . S
C2547 C2548 1.373 . S
C2547 C2549 1.389 . S
C2548 H2521 0.950 . S
C2548 C2534 1.377 . S
C2548 C2547 1.373 . S
C2549 C2533 1.377 . S
C2549 C2547 1.389 . S
C2549 C2550 1.524 . S
C2550 C2549 1.524 . S
C2550 C2551 1.397 . S
C2550 C2555 1.363 1_655 S
C2551 H2522 0.950 . S
C2551 C2550 1.397 . S
C2551 C2552 1.334 1_655 S
C2552 H2523 0.950 . S
C2552 C2551 1.334 1_455 S
C2552 C2553 1.287 . S
C2553 C2552 1.287 . S
C2553 C2554 1.524 . S
C2553 H2556 0.999 . S
C2554 H2524 0.950 . S
C2554 C2553 1.524 . S
C2554 C2555 1.415 . S
C2555 H2525 0.950 . S
C2555 C2550 1.363 1_455 S
C2555 C2554 1.415 . S
H2556 C2553 0.999 . S
H2557 C2538 0.913 . S
H2558 C2576 0.951 . S
H2559 C2578 0.951 . S
H2560 C2580 0.950 . S
H2561 C2581 0.950 . S
H2562 C2583 0.950 . S
H2563 C2586 0.950 . S
H2564 C2587 0.950 . S
H2565 C2589 0.950 . S
H2566 C2590 0.950 . S
H2567 C2591 0.951 . S
H2568 C2593 0.951 . S
H2569 C2595 0.950 . S
H2570 C2596 0.950 . S
H2571 C2598 0.950 . S
H2572 C2601 0.950 . S
H2573 C2602 0.950 . S
H2574 C2604 0.950 . S
H2575 C2605 0.950 . S
C2576 H2558 0.951 . S
C2576 C2577 1.366 . S
C2576 C2578 1.388 . S
C2577 C2576 1.366 . S
C2577 C2581 1.385 . S
C2578 H2559 0.951 . S
C2578 C2576 1.388 . S
C2578 C2579 1.366 . S
C2579 C2578 1.366 . S
C2579 C2580 1.414 . S
C2579 C2582 1.499 . S
C2580 H2560 0.950 . S
C2580 C2579 1.414 . S
C2580 C2581 1.374 . S
C2581 H2561 0.950 . S
C2581 C2577 1.385 . S
C2581 C2580 1.374 . S
C2582 C2579 1.499 . S
C2582 C2583 1.373 . S
C2582 C2584 1.389 . S
C2583 H2562 0.950 . S
C2583 C2582 1.373 . S
C2583 C2599 1.377 . S
C2584 C2582 1.389 . S
C2584 C2585 1.524 . S
C2584 C2598 1.377 . S
C2585 C2584 1.524 . S
C2585 C2586 1.397 . S
C2585 C2590 1.363 . S
C2586 H2563 0.950 . S
C2586 C2585 1.397 . S
C2586 C2587 1.334 . S
C2587 H2564 0.950 . S
C2587 C2586 1.334 . S
C2587 C2588 1.287 . S
C2588 C2587 1.287 . S
C2588 C2589 1.524 . S
C2588 H2607 0.913 . S
C2589 H2565 0.950 . S
C2589 C2588 1.524 . S
C2589 C2590 1.415 . S
C2590 H2566 0.950 . S
C2590 C2585 1.363 . S
C2590 C2589 1.415 . S
C2591 H2567 0.951 . S
C2591 C2592 1.366 . S
C2591 C2593 1.388 . S
C2592 C2591 1.366 . S
C2592 C2596 1.385 . S
C2593 H2568 0.951 . S
C2593 C2591 1.388 . S
C2593 C2594 1.366 . S
C2594 C2593 1.366 . S
C2594 C2595 1.414 . S
C2594 C2597 1.499 . S
C2595 H2569 0.950 . S
C2595 C2594 1.414 . S
C2595 C2596 1.374 . S
C2596 H2570 0.950 . S
C2596 C2592 1.385 . S
C2596 C2595 1.374 . S
C2597 C2594 1.499 . S
C2597 C2598 1.373 . S
C2597 C2599 1.389 . S
C2598 H2571 0.950 . S
C2598 C2584 1.377 . S
C2598 C2597 1.373 . S
C2599 C2583 1.377 . S
C2599 C2597 1.389 . S
C2599 C2600 1.524 . S
C2600 C2599 1.524 . S
C2600 C2601 1.397 . S
C2600 C2605 1.363 . S
C2601 H2572 0.950 . S
C2601 C2600 1.397 . S
C2601 C2602 1.334 . S
C2602 H2573 0.950 . S
C2602 C2601 1.334 . S
C2602 C2603 1.287 . S
C2603 C2602 1.287 . S
C2603 C2604 1.524 . S
C2603 H2606 0.999 . S
C2604 H2574 0.950 . S
C2604 C2603 1.524 . S
C2604 C2605 1.415 . S
C2605 H2575 0.950 . S
C2605 C2600 1.363 . S
C2605 C2604 1.415 . S
H2606 C2603 0.999 . S
H2607 C2588 0.913 . S
H2608 C2626 0.951 . S
H2609 C2628 0.951 . S
H2610 C2630 0.950 . S
H2611 C2631 0.950 . S
H2612 C2633 0.950 . S
H2613 C2636 0.950 . S
H2614 C2637 0.950 . S
H2615 C2639 0.950 . S
H2616 C2640 0.950 . S
H2617 C2641 0.951 . S
H2618 C2643 0.951 . S
H2619 C2645 0.950 . S
H2620 C2646 0.950 . S
H2621 C2648 0.950 . S
H2622 C2651 0.950 . S
H2623 C2652 0.950 . S
H2624 C2654 0.947 1_565 S
H2625 C2655 0.950 . S
C2626 H2608 0.951 . S
C2626 C2627 1.366 . S
C2626 C2628 1.388 . S
C2627 C2626 1.366 . S
C2627 C2631 1.385 . S
C2628 H2609 0.951 . S
C2628 C2626 1.388 . S
C2628 C2629 1.366 . S
C2629 C2628 1.366 . S
C2629 C2630 1.414 . S
C2629 C2632 1.499 . S
C2630 H2610 0.950 . S
C2630 C2629 1.414 . S
C2630 C2631 1.374 . S
C2631 H2611 0.950 . S
C2631 C2627 1.385 . S
C2631 C2630 1.374 . S
C2632 C2629 1.499 . S
C2632 C2633 1.373 . S
C2632 C2634 1.389 . S
C2633 H2612 0.950 . S
C2633 C2632 1.373 . S
C2633 C2649 1.377 . S
C2634 C2632 1.389 . S
C2634 C2635 1.524 . S
C2634 C2648 1.377 . S
C2635 C2634 1.524 . S
C2635 C2636 1.397 . S
C2635 C2640 1.363 . S
C2636 H2613 0.950 . S
C2636 C2635 1.397 . S
C2636 C2637 1.334 . S
C2637 H2614 0.950 . S
C2637 C2636 1.334 . S
C2637 C2638 1.287 . S
C2638 C2637 1.287 . S
C2638 C2639 1.524 . S
C2638 H2657 0.913 . S
C2639 H2615 0.950 . S
C2639 C2638 1.524 . S
C2639 C2640 1.415 . S
C2640 H2616 0.950 . S
C2640 C2635 1.363 . S
C2640 C2639 1.415 . S
C2641 H2617 0.951 . S
C2641 C2642 1.366 . S
C2641 C2643 1.388 . S
C2642 C2641 1.366 . S
C2642 C2646 1.385 . S
C2643 H2618 0.951 . S
C2643 C2641 1.388 . S
C2643 C2644 1.366 . S
C2644 C2643 1.366 . S
C2644 C2645 1.414 . S
C2644 C2647 1.499 . S
C2645 H2619 0.950 . S
C2645 C2644 1.414 . S
C2645 C2646 1.374 . S
C2646 H2620 0.950 . S
C2646 C2642 1.385 . S
C2646 C2645 1.374 . S
C2647 C2644 1.499 . S
C2647 C2648 1.373 . S
C2647 C2649 1.389 . S
C2648 H2621 0.950 . S
C2648 C2634 1.377 . S
C2648 C2647 1.373 . S
C2649 C2633 1.377 . S
C2649 C2647 1.389 . S
C2649 C2650 1.524 . S
C2650 C2649 1.524 . S
C2650 C2651 1.397 . S
C2650 C2655 1.363 . S
C2651 H2622 0.950 . S
C2651 C2650 1.397 . S
C2651 C2652 1.334 . S
C2652 H2623 0.950 . S
C2652 C2651 1.334 . S
C2652 C2653 1.287 . S
C2653 C2652 1.287 . S
C2653 C2654 1.524 . S
C2653 H2656 0.999 . S
C2654 H2624 0.947 1_545 S
C2654 C2653 1.524 . S
C2654 C2655 1.415 . S
C2655 H2625 0.950 . S
C2655 C2650 1.363 . S
C2655 C2654 1.415 . S
H2656 C2653 0.999 . S
H2657 C2638 0.913 . S
H2658 C2676 0.951 . S
H2659 C2678 0.951 . S
H2660 C2680 0.950 . S
H2661 C2681 0.950 . S
H2662 C2683 0.950 . S
H2663 C2686 0.950 . S
H2664 C2687 0.950 . S
H2665 C2689 0.950 . S
H2666 C2690 0.950 . S
H2667 C2691 0.951 . S
H2668 C2693 0.951 . S
H2669 C2695 0.950 . S
H2670 C2696 0.950 . S
H2671 C2698 0.950 . S
H2672 C2701 0.950 . S
H2673 C2702 0.950 . S
H2674 C2704 0.950 . S
H2675 C2705 0.950 . S
C2676 H2658 0.951 . S
C2676 C2677 1.366 . S
C2676 C2678 1.388 . S
C2677 C2676 1.366 . S
C2677 C2681 1.385 . S
C2678 H2659 0.951 . S
C2678 C2676 1.388 . S
C2678 C2679 1.366 . S
C2679 C2678 1.366 . S
C2679 C2680 1.414 . S
C2679 C2682 1.499 . S
C2680 H2660 0.950 . S
C2680 C2679 1.414 . S
C2680 C2681 1.374 . S
C2681 H2661 0.950 . S
C2681 C2677 1.385 . S
C2681 C2680 1.374 . S
C2682 C2679 1.499 . S
C2682 C2683 1.373 . S
C2682 C2684 1.389 . S
C2683 H2662 0.950 . S
C2683 C2682 1.373 . S
C2683 C2699 1.377 . S
C2684 C2682 1.389 . S
C2684 C2685 1.524 . S
C2684 C2698 1.377 . S
C2685 C2684 1.524 . S
C2685 C2686 1.397 . S
C2685 C2690 1.363 . S
C2686 H2663 0.950 . S
C2686 C2685 1.397 . S
C2686 C2687 1.334 . S
C2687 H2664 0.950 . S
C2687 C2686 1.334 . S
C2687 C2688 1.287 . S
C2688 C2687 1.287 . S
C2688 C2689 1.524 . S
C2688 H2707 0.913 . S
C2689 H2665 0.950 . S
C2689 C2688 1.524 . S
C2689 C2690 1.415 . S
C2690 H2666 0.950 . S
C2690 C2685 1.363 . S
C2690 C2689 1.415 . S
C2691 H2667 0.951 . S
C2691 C2692 1.366 . S
C2691 C2693 1.388 . S
C2692 C2691 1.366 . S
C2692 C2696 1.385 . S
C2693 H2668 0.951 . S
C2693 C2691 1.388 . S
C2693 C2694 1.366 . S
C2694 C2693 1.366 . S
C2694 C2695 1.414 . S
C2694 C2697 1.499 . S
C2695 H2669 0.950 . S
C2695 C2694 1.414 . S
C2695 C2696 1.374 . S
C2696 H2670 0.950 . S
C2696 C2692 1.385 . S
C2696 C2695 1.374 . S
C2697 C2694 1.499 . S
C2697 C2698 1.373 . S
C2697 C2699 1.389 . S
C2698 H2671 0.950 . S
C2698 C2684 1.377 . S
C2698 C2697 1.373 . S
C2699 C2683 1.377 . S
C2699 C2697 1.389 . S
C2699 C2700 1.524 . S
C2700 C2699 1.524 . S
C2700 C2701 1.397 . S
C2700 C2705 1.363 . S
C2701 H2672 0.950 . S
C2701 C2700 1.397 . S
C2701 C2702 1.334 . S
C2702 H2673 0.950 . S
C2702 C2701 1.334 . S
C2702 C2703 1.287 . S
C2703 C2702 1.287 . S
C2703 C2704 1.524 . S
C2703 H2706 0.999 . S
C2704 H2674 0.950 . S
C2704 C2703 1.524 . S
C2704 C2705 1.415 . S
C2705 H2675 0.950 . S
C2705 C2700 1.363 . S
C2705 C2704 1.415 . S
H2706 C2703 0.999 . S
H2707 C2688 0.913 . S
H2708 C2726 0.951 . S
H2709 C2728 0.951 . S
H2710 C2730 0.950 . S
H2711 C2731 0.950 . S
H2712 C2733 0.950 . S
H2713 C2736 0.950 . S
H2714 C2737 0.950 . S
H2715 C2739 0.950 . S
H2716 C2740 0.950 . S
H2717 C2741 0.951 . S
H2718 C2743 0.951 . S
H2719 C2745 0.950 . S
H2720 C2746 0.950 . S
H2721 C2748 0.950 . S
H2722 C2751 0.950 . S
H2723 C2752 0.950 . S
H2724 C2754 0.950 . S
H2725 C2755 0.950 . S
C2726 H2708 0.951 . S
C2726 C2727 1.366 . S
C2726 C2728 1.388 . S
C2727 C2726 1.366 . S
C2727 C2731 1.385 . S
C2728 H2709 0.951 . S
C2728 C2726 1.388 . S
C2728 C2729 1.366 . S
C2729 C2728 1.366 . S
C2729 C2730 1.414 . S
C2729 C2732 1.499 . S
C2730 H2710 0.950 . S
C2730 C2729 1.414 . S
C2730 C2731 1.374 . S
C2731 H2711 0.950 . S
C2731 C2727 1.385 . S
C2731 C2730 1.374 . S
C2732 C2729 1.499 . S
C2732 C2733 1.373 . S
C2732 C2734 1.389 . S
C2733 H2712 0.950 . S
C2733 C2732 1.373 . S
C2733 C2749 1.377 . S
C2734 C2732 1.389 . S
C2734 C2735 1.524 . S
C2734 C2748 1.377 . S
C2735 C2734 1.524 . S
C2735 C2736 1.397 . S
C2735 C2740 1.363 . S
C2736 H2713 0.950 . S
C2736 C2735 1.397 . S
C2736 C2737 1.334 . S
C2737 H2714 0.950 . S
C2737 C2736 1.334 . S
C2737 C2738 1.287 . S
C2738 C2737 1.287 . S
C2738 C2739 1.524 . S
C2738 H2757 0.913 . S
C2739 H2715 0.950 . S
C2739 C2738 1.524 . S
C2739 C2740 1.415 . S
C2740 H2716 0.950 . S
C2740 C2735 1.363 . S
C2740 C2739 1.415 . S
C2741 H2717 0.951 . S
C2741 C2742 1.366 . S
C2741 C2743 1.388 . S
C2742 C2741 1.366 . S
C2742 C2746 1.385 . S
C2743 H2718 0.951 . S
C2743 C2741 1.388 . S
C2743 C2744 1.366 . S
C2744 C2743 1.366 . S
C2744 C2745 1.414 . S
C2744 C2747 1.499 . S
C2745 H2719 0.950 . S
C2745 C2744 1.414 . S
C2745 C2746 1.374 . S
C2746 H2720 0.950 . S
C2746 C2742 1.385 . S
C2746 C2745 1.374 . S
C2747 C2744 1.499 . S
C2747 C2748 1.373 . S
C2747 C2749 1.389 . S
C2748 H2721 0.950 . S
C2748 C2734 1.377 . S
C2748 C2747 1.373 . S
C2749 C2733 1.377 . S
C2749 C2747 1.389 . S
C2749 C2750 1.524 . S
C2750 C2749 1.524 . S
C2750 C2751 1.397 . S
C2750 C2755 1.363 . S
C2751 H2722 0.950 . S
C2751 C2750 1.397 . S
C2751 C2752 1.334 . S
C2752 H2723 0.950 . S
C2752 C2751 1.334 . S
C2752 C2753 1.287 . S
C2753 C2752 1.287 . S
C2753 C2754 1.524 . S
C2753 H2756 0.999 . S
C2754 H2724 0.950 . S
C2754 C2753 1.524 . S
C2754 C2755 1.415 . S
C2755 H2725 0.950 . S
C2755 C2750 1.363 . S
C2755 C2754 1.415 . S
H2756 C2753 0.999 . S
H2757 C2738 0.913 . S
H2758 C2776 0.951 . S
H2759 C2778 0.951 . S
H2760 C2780 0.950 . S
H2761 C2781 0.950 . S
H2762 C2783 0.950 . S
H2763 C2786 0.950 . S
H2764 C2787 0.950 . S
H2765 C2789 0.950 . S
H2766 C2790 0.950 . S
H2767 C2791 0.951 . S
H2768 C2793 0.951 . S
H2769 C2795 0.950 . S
H2770 C2796 0.950 . S
H2771 C2798 0.950 . S
H2772 C2801 0.950 . S
H2773 C2802 0.950 . S
H2774 C2804 0.950 . S
H2775 C2805 0.950 . S
C2776 H2758 0.951 . S
C2776 C2777 1.366 . S
C2776 C2778 1.388 . S
C2777 C2776 1.366 . S
C2777 C2781 1.385 . S
C2778 H2759 0.951 . S
C2778 C2776 1.388 . S
C2778 C2779 1.366 . S
C2779 C2778 1.366 . S
C2779 C2780 1.414 . S
C2779 C2782 1.499 . S
C2780 H2760 0.950 . S
C2780 C2779 1.414 . S
C2780 C2781 1.374 . S
C2781 H2761 0.950 . S
C2781 C2777 1.385 . S
C2781 C2780 1.374 . S
C2782 C2779 1.499 . S
C2782 C2783 1.373 . S
C2782 C2784 1.389 . S
C2783 H2762 0.950 . S
C2783 C2782 1.373 . S
C2783 C2799 1.377 . S
C2784 C2782 1.389 . S
C2784 C2785 1.524 . S
C2784 C2798 1.377 . S
C2785 C2784 1.524 . S
C2785 C2786 1.397 . S
C2785 C2790 1.363 . S
C2786 H2763 0.950 . S
C2786 C2785 1.397 . S
C2786 C2787 1.334 . S
C2787 H2764 0.950 . S
C2787 C2786 1.334 . S
C2787 C2788 1.287 . S
C2788 C2787 1.287 . S
C2788 C2789 1.524 . S
C2788 H2807 0.913 . S
C2789 H2765 0.950 . S
C2789 C2788 1.524 . S
C2789 C2790 1.415 . S
C2790 H2766 0.950 . S
C2790 C2785 1.363 . S
C2790 C2789 1.415 . S
C2791 H2767 0.951 . S
C2791 C2792 1.366 . S
C2791 C2793 1.388 . S
C2792 C2791 1.366 . S
C2792 C2796 1.385 . S
C2793 H2768 0.951 . S
C2793 C2791 1.388 . S
C2793 C2794 1.366 . S
C2794 C2793 1.366 . S
C2794 C2795 1.414 . S
C2794 C2797 1.499 . S
C2795 H2769 0.950 . S
C2795 C2794 1.414 . S
C2795 C2796 1.374 . S
C2796 H2770 0.950 . S
C2796 C2792 1.385 . S
C2796 C2795 1.374 . S
C2797 C2794 1.499 . S
C2797 C2798 1.373 . S
C2797 C2799 1.389 . S
C2798 H2771 0.950 . S
C2798 C2784 1.377 . S
C2798 C2797 1.373 . S
C2799 C2783 1.377 . S
C2799 C2797 1.389 . S
C2799 C2800 1.524 . S
C2800 C2799 1.524 . S
C2800 C2801 1.397 . S
C2800 C2805 1.363 . S
C2801 H2772 0.950 . S
C2801 C2800 1.397 . S
C2801 C2802 1.334 . S
C2802 H2773 0.950 . S
C2802 C2801 1.334 . S
C2802 C2803 1.287 . S
C2803 C2802 1.287 . S
C2803 C2804 1.524 . S
C2803 H2806 0.999 . S
C2804 H2774 0.950 . S
C2804 C2803 1.524 . S
C2804 C2805 1.415 . S
C2805 H2775 0.950 . S
C2805 C2800 1.363 . S
C2805 C2804 1.415 . S
H2806 C2803 0.999 . S
H2807 C2788 0.913 . S
H2808 C2826 0.951 . S
H2809 C2828 0.951 . S
H2810 C2830 0.950 . S
H2811 C2831 0.950 . S
H2812 C2833 0.950 . S
H2813 C2836 0.950 . S
H2814 C2837 0.950 . S
H2815 C2839 0.950 . S
H2816 C2840 0.950 . S
H2817 C2841 0.951 . S
H2818 C2843 0.951 . S
H2819 C2845 0.950 . S
H2820 C2846 0.950 . S
H2821 C2848 0.950 . S
H2822 C2851 0.950 . S
H2823 C2852 0.950 . S
H2824 C2854 0.950 . S
H2825 C2855 0.950 . S
C2826 H2808 0.951 . S
C2826 C2827 1.366 . S
C2826 C2828 1.388 . S
C2827 C2826 1.366 . S
C2827 C2831 1.385 . S
C2828 H2809 0.951 . S
C2828 C2826 1.388 . S
C2828 C2829 1.366 . S
C2829 C2828 1.366 . S
C2829 C2830 1.414 . S
C2829 C2832 1.499 . S
C2830 H2810 0.950 . S
C2830 C2829 1.414 . S
C2830 C2831 1.374 . S
C2831 H2811 0.950 . S
C2831 C2827 1.385 . S
C2831 C2830 1.374 . S
C2832 C2829 1.499 . S
C2832 C2833 1.373 . S
C2832 C2834 1.389 . S
C2833 H2812 0.950 . S
C2833 C2832 1.373 . S
C2833 C2849 1.377 . S
C2834 C2832 1.389 . S
C2834 C2835 1.524 . S
C2834 C2848 1.377 . S
C2835 C2834 1.524 . S
C2835 C2836 1.397 . S
C2835 C2840 1.363 . S
C2836 H2813 0.950 . S
C2836 C2835 1.397 . S
C2836 C2837 1.334 . S
C2837 H2814 0.950 . S
C2837 C2836 1.334 . S
C2837 C2838 1.287 . S
C2838 C2837 1.287 . S
C2838 C2839 1.524 . S
C2838 H2857 0.913 . S
C2839 H2815 0.950 . S
C2839 C2838 1.524 . S
C2839 C2840 1.415 . S
C2840 H2816 0.950 . S
C2840 C2835 1.363 . S
C2840 C2839 1.415 . S
C2841 H2817 0.951 . S
C2841 C2842 1.366 . S
C2841 C2843 1.388 . S
C2842 C2841 1.366 . S
C2842 C2846 1.385 . S
C2843 H2818 0.951 . S
C2843 C2841 1.388 . S
C2843 C2844 1.366 . S
C2844 C2843 1.366 . S
C2844 C2845 1.414 . S
C2844 C2847 1.499 . S
C2845 H2819 0.950 . S
C2845 C2844 1.414 . S
C2845 C2846 1.374 . S
C2846 H2820 0.950 . S
C2846 C2842 1.385 . S
C2846 C2845 1.374 . S
C2847 C2844 1.499 . S
C2847 C2848 1.373 . S
C2847 C2849 1.389 . S
C2848 H2821 0.950 . S
C2848 C2834 1.377 . S
C2848 C2847 1.373 . S
C2849 C2833 1.377 . S
C2849 C2847 1.389 . S
C2849 C2850 1.524 . S
C2850 C2849 1.524 . S
C2850 C2851 1.397 . S
C2850 C2855 1.363 . S
C2851 H2822 0.950 . S
C2851 C2850 1.397 . S
C2851 C2852 1.334 . S
C2852 H2823 0.950 . S
C2852 C2851 1.334 . S
C2852 C2853 1.287 . S
C2853 C2852 1.287 . S
C2853 C2854 1.524 . S
C2853 H2856 0.999 . S
C2854 H2824 0.950 . S
C2854 C2853 1.524 . S
C2854 C2855 1.415 . S
C2855 H2825 0.950 . S
C2855 C2850 1.363 . S
C2855 C2854 1.415 . S
H2856 C2853 0.999 . S
H2857 C2838 0.913 . S
H2858 C2876 0.951 . S
H2859 C2878 0.951 . S
H2860 C2880 0.950 . S
H2861 C2881 0.950 . S
H2862 C2883 0.950 . S
H2863 C2886 0.950 . S
H2864 C2887 0.950 . S
H2865 C2889 0.950 . S
H2866 C2890 0.950 . S
H2867 C2891 0.951 . S
H2868 C2893 0.951 . S
H2869 C2895 0.950 . S
H2870 C2896 0.950 . S
H2871 C2898 0.950 . S
H2872 C2901 0.950 . S
H2873 C2902 0.950 . S
H2874 C2904 0.950 . S
H2875 C2905 0.950 . S
C2876 H2858 0.951 . S
C2876 C2877 1.366 . S
C2876 C2878 1.388 . S
C2877 C2876 1.366 . S
C2877 C2881 1.385 . S
C2878 H2859 0.951 . S
C2878 C2876 1.388 . S
C2878 C2879 1.366 . S
C2879 C2878 1.366 . S
C2879 C2880 1.414 . S
C2879 C2882 1.499 . S
C2880 H2860 0.950 . S
C2880 C2879 1.414 . S
C2880 C2881 1.374 . S
C2881 H2861 0.950 . S
C2881 C2877 1.385 . S
C2881 C2880 1.374 . S
C2882 C2879 1.499 . S
C2882 C2883 1.373 . S
C2882 C2884 1.389 . S
C2883 H2862 0.950 . S
C2883 C2882 1.373 . S
C2883 C2899 1.377 . S
C2884 C2882 1.389 . S
C2884 C2885 1.524 . S
C2884 C2898 1.377 . S
C2885 C2884 1.524 . S
C2885 C2886 1.397 . S
C2885 C2890 1.363 . S
C2886 H2863 0.950 . S
C2886 C2885 1.397 . S
C2886 C2887 1.334 . S
C2887 H2864 0.950 . S
C2887 C2886 1.334 . S
C2887 C2888 1.287 . S
C2888 C2887 1.287 . S
C2888 C2889 1.524 . S
C2888 H2907 0.913 . S
C2889 H2865 0.950 . S
C2889 C2888 1.524 . S
C2889 C2890 1.415 . S
C2890 H2866 0.950 . S
C2890 C2885 1.363 . S
C2890 C2889 1.415 . S
C2891 H2867 0.951 . S
C2891 C2892 1.366 . S
C2891 C2893 1.388 . S
C2892 C2891 1.366 . S
C2892 C2896 1.385 . S
C2893 H2868 0.951 . S
C2893 C2891 1.388 . S
C2893 C2894 1.366 . S
C2894 C2893 1.366 . S
C2894 C2895 1.414 . S
C2894 C2897 1.499 . S
C2895 H2869 0.950 . S
C2895 C2894 1.414 . S
C2895 C2896 1.374 . S
C2896 H2870 0.950 . S
C2896 C2892 1.385 . S
C2896 C2895 1.374 . S
C2897 C2894 1.499 . S
C2897 C2898 1.373 . S
C2897 C2899 1.389 . S
C2898 H2871 0.950 . S
C2898 C2884 1.377 . S
C2898 C2897 1.373 . S
C2899 C2883 1.377 . S
C2899 C2897 1.389 . S
C2899 C2900 1.524 . S
C2900 C2899 1.524 . S
C2900 C2901 1.397 . S
C2900 C2905 1.363 . S
C2901 H2872 0.950 . S
C2901 C2900 1.397 . S
C2901 C2902 1.334 . S
C2902 H2873 0.950 . S
C2902 C2901 1.334 . S
C2902 C2903 1.287 . S
C2903 C2902 1.287 . S
C2903 C2904 1.524 . S
C2903 H2906 0.999 . S
C2904 H2874 0.950 . S
C2904 C2903 1.524 . S
C2904 C2905 1.415 . S
C2905 H2875 0.950 . S
C2905 C2900 1.363 . S
C2905 C2904 1.415 . S
H2906 C2903 0.999 . S
H2907 C2888 0.913 . S
H2908 C2926 0.951 . S
H2909 C2928 0.951 . S
H2910 C2930 0.950 . S
H2911 C2931 0.950 . S
H2912 C2933 0.950 . S
H2913 C2936 0.950 . S
H2914 C2937 0.950 . S
H2915 C2939 0.950 . S
H2916 C2940 0.950 . S
H2917 C2941 0.951 . S
H2918 C2943 0.951 . S
H2919 C2945 0.950 . S
H2920 C2946 0.950 . S
H2921 C2948 0.950 . S
H2922 C2951 0.950 . S
H2923 C2952 0.950 . S
H2924 C2954 0.950 . S
H2925 C2955 0.950 . S
C2926 H2908 0.951 . S
C2926 C2927 1.366 . S
C2926 C2928 1.388 . S
C2927 C2926 1.366 . S
C2927 C2931 1.385 . S
C2928 H2909 0.951 . S
C2928 C2926 1.388 . S
C2928 C2929 1.366 . S
C2929 C2928 1.366 . S
C2929 C2930 1.414 . S
C2929 C2932 1.499 . S
C2930 H2910 0.950 . S
C2930 C2929 1.414 . S
C2930 C2931 1.374 . S
C2931 H2911 0.950 . S
C2931 C2927 1.385 . S
C2931 C2930 1.374 . S
C2932 C2929 1.499 . S
C2932 C2933 1.373 . S
C2932 C2934 1.389 . S
C2933 H2912 0.950 . S
C2933 C2932 1.373 . S
C2933 C2949 1.377 . S
C2934 C2932 1.389 . S
C2934 C2935 1.524 . S
C2934 C2948 1.377 . S
C2935 C2934 1.524 . S
C2935 C2936 1.397 . S
C2935 C2940 1.363 . S
C2936 H2913 0.950 . S
C2936 C2935 1.397 . S
C2936 C2937 1.334 . S
C2937 H2914 0.950 . S
C2937 C2936 1.334 . S
C2937 C2938 1.287 . S
C2938 C2937 1.287 . S
C2938 C2939 1.524 . S
C2938 H2957 0.913 . S
C2939 H2915 0.950 . S
C2939 C2938 1.524 . S
C2939 C2940 1.415 . S
C2940 H2916 0.950 . S
C2940 C2935 1.363 . S
C2940 C2939 1.415 . S
C2941 H2917 0.951 . S
C2941 C2942 1.366 . S
C2941 C2943 1.388 . S
C2942 C2941 1.366 . S
C2942 C2946 1.385 . S
C2943 H2918 0.951 . S
C2943 C2941 1.388 . S
C2943 C2944 1.366 . S
C2944 C2943 1.366 . S
C2944 C2945 1.414 . S
C2944 C2947 1.499 . S
C2945 H2919 0.950 . S
C2945 C2944 1.414 . S
C2945 C2946 1.374 . S
C2946 H2920 0.950 . S
C2946 C2942 1.385 . S
C2946 C2945 1.374 . S
C2947 C2944 1.499 . S
C2947 C2948 1.373 . S
C2947 C2949 1.389 . S
C2948 H2921 0.950 . S
C2948 C2934 1.377 . S
C2948 C2947 1.373 . S
C2949 C2933 1.377 . S
C2949 C2947 1.389 . S
C2949 C2950 1.524 . S
C2950 C2949 1.524 . S
C2950 C2951 1.397 . S
C2950 C2955 1.363 . S
C2951 H2922 0.950 . S
C2951 C2950 1.397 . S
C2951 C2952 1.334 . S
C2952 H2923 0.950 . S
C2952 C2951 1.334 . S
C2952 C2953 1.287 . S
C2953 C2952 1.287 . S
C2953 C2954 1.524 . S
C2953 H2956 0.999 . S
C2954 H2924 0.950 . S
C2954 C2953 1.524 . S
C2954 C2955 1.415 . S
C2955 H2925 0.950 . S
C2955 C2950 1.363 . S
C2955 C2954 1.415 . S
H2956 C2953 0.999 . S
H2957 C2938 0.913 . S
H2958 C2976 0.951 . S
H2959 C2978 0.951 . S
H2960 C2980 0.950 . S
H2961 C2981 0.950 . S
H2962 C2983 0.950 . S
H2963 C2986 0.950 . S
H2964 C2987 0.950 . S
H2965 C2989 0.950 . S
H2966 C2990 0.950 . S
H2967 C2991 0.951 . S
H2968 C2993 0.951 . S
H2969 C2995 0.950 . S
H2970 C2996 0.950 . S
H2971 C2998 0.950 . S
H2972 C3001 0.950 . S
H2973 C3002 0.950 . S
H2974 C3004 0.950 . S
H2975 C3005 0.950 . S
C2976 H2958 0.951 . S
C2976 C2977 1.366 . S
C2976 C2978 1.388 . S
C2977 C2976 1.366 . S
C2977 C2981 1.385 . S
C2978 H2959 0.951 . S
C2978 C2976 1.388 . S
C2978 C2979 1.366 . S
C2979 C2978 1.366 . S
C2979 C2980 1.414 . S
C2979 C2982 1.499 . S
C2980 H2960 0.950 . S
C2980 C2979 1.414 . S
C2980 C2981 1.374 . S
C2981 H2961 0.950 . S
C2981 C2977 1.385 . S
C2981 C2980 1.374 . S
C2982 C2979 1.499 . S
C2982 C2983 1.373 . S
C2982 C2984 1.389 . S
C2983 H2962 0.950 . S
C2983 C2982 1.373 . S
C2983 C2999 1.377 . S
C2984 C2982 1.389 . S
C2984 C2985 1.524 . S
C2984 C2998 1.377 . S
C2985 C2984 1.524 . S
C2985 C2986 1.397 . S
C2985 C2990 1.363 . S
C2986 H2963 0.950 . S
C2986 C2985 1.397 . S
C2986 C2987 1.334 . S
C2987 H2964 0.950 . S
C2987 C2986 1.334 . S
C2987 C2988 1.287 . S
C2988 C2987 1.287 . S
C2988 C2989 1.524 . S
C2988 H3007 0.913 . S
C2989 H2965 0.950 . S
C2989 C2988 1.524 . S
C2989 C2990 1.415 . S
C2990 H2966 0.950 . S
C2990 C2985 1.363 . S
C2990 C2989 1.415 . S
C2991 H2967 0.951 . S
C2991 C2992 1.366 . S
C2991 C2993 1.388 . S
C2992 C2991 1.366 . S
C2992 C2996 1.385 . S
C2993 H2968 0.951 . S
C2993 C2991 1.388 . S
C2993 C2994 1.366 . S
C2994 C2993 1.366 . S
C2994 C2995 1.414 . S
C2994 C2997 1.499 . S
C2995 H2969 0.950 . S
C2995 C2994 1.414 . S
C2995 C2996 1.374 . S
C2996 H2970 0.950 . S
C2996 C2992 1.385 . S
C2996 C2995 1.374 . S
C2997 C2994 1.499 . S
C2997 C2998 1.373 . S
C2997 C2999 1.389 . S
C2998 H2971 0.950 . S
C2998 C2984 1.377 . S
C2998 C2997 1.373 . S
C2999 C2983 1.377 . S
C2999 C2997 1.389 . S
C2999 C3000 1.524 . S
C3000 C2999 1.524 . S
C3000 C3001 1.397 . S
C3000 C3005 1.363 . S
C3001 H2972 0.950 . S
C3001 C3000 1.397 . S
C3001 C3002 1.334 . S
C3002 H2973 0.950 . S
C3002 C3001 1.334 . S
C3002 C3003 1.287 . S
C3003 C3002 1.287 . S
C3003 C3004 1.524 . S
C3003 H3006 0.999 . S
C3004 H2974 0.950 . S
C3004 C3003 1.524 . S
C3004 C3005 1.415 . S
C3005 H2975 0.950 . S
C3005 C3000 1.363 . S
C3005 C3004 1.415 . S
H3006 C3003 0.999 . S
H3007 C2988 0.913 . S
H3008 C3026 0.951 . S
H3009 C3028 0.951 . S
H3010 C3030 0.950 . S
H3011 C3031 0.950 . S
H3012 C3033 0.950 . S
H3013 C3036 0.950 . S
H3014 C3037 0.950 . S
H3015 C3039 0.950 . S
H3016 C3040 0.950 . S
H3017 C3041 0.951 . S
H3018 C3043 0.951 . S
H3019 C3045 0.950 . S
H3020 C3046 0.950 . S
H3021 C3048 0.950 . S
H3022 C3051 0.950 . S
H3023 C3052 0.950 . S
H3024 C3054 0.950 . S
H3025 C3055 0.950 . S
C3026 H3008 0.951 . S
C3026 C3027 1.366 . S
C3026 C3028 1.388 . S
C3027 C3026 1.366 . S
C3027 C3031 1.385 . S
C3028 H3009 0.951 . S
C3028 C3026 1.388 . S
C3028 C3029 1.366 . S
C3029 C3028 1.366 . S
C3029 C3030 1.414 . S
C3029 C3032 1.499 . S
C3030 H3010 0.950 . S
C3030 C3029 1.414 . S
C3030 C3031 1.374 . S
C3031 H3011 0.950 . S
C3031 C3027 1.385 . S
C3031 C3030 1.374 . S
C3032 C3029 1.499 . S
C3032 C3033 1.373 . S
C3032 C3034 1.389 . S
C3033 H3012 0.950 . S
C3033 C3032 1.373 . S
C3033 C3049 1.377 . S
C3034 C3032 1.389 . S
C3034 C3035 1.524 . S
C3034 C3048 1.377 . S
C3035 C3034 1.524 . S
C3035 C3036 1.397 . S
C3035 C3040 1.363 . S
C3036 H3013 0.950 . S
C3036 C3035 1.397 . S
C3036 C3037 1.334 . S
C3037 H3014 0.950 . S
C3037 C3036 1.334 . S
C3037 C3038 1.287 . S
C3038 C3037 1.287 . S
C3038 C3039 1.524 . S
C3038 H3057 0.913 . S
C3039 H3015 0.950 . S
C3039 C3038 1.524 . S
C3039 C3040 1.415 . S
C3040 H3016 0.950 . S
C3040 C3035 1.363 . S
C3040 C3039 1.415 . S
C3041 H3017 0.951 . S
C3041 C3042 1.366 . S
C3041 C3043 1.388 . S
C3042 C3041 1.366 . S
C3042 C3046 1.385 . S
C3043 H3018 0.951 . S
C3043 C3041 1.388 . S
C3043 C3044 1.366 . S
C3044 C3043 1.366 . S
C3044 C3045 1.414 . S
C3044 C3047 1.499 . S
C3045 H3019 0.950 . S
C3045 C3044 1.414 . S
C3045 C3046 1.374 . S
C3046 H3020 0.950 . S
C3046 C3042 1.385 . S
C3046 C3045 1.374 . S
C3047 C3044 1.499 . S
C3047 C3048 1.373 . S
C3047 C3049 1.389 . S
C3048 H3021 0.950 . S
C3048 C3034 1.377 . S
C3048 C3047 1.373 . S
C3049 C3033 1.377 . S
C3049 C3047 1.389 . S
C3049 C3050 1.524 . S
C3050 C3049 1.524 . S
C3050 C3051 1.397 . S
C3050 C3055 1.363 . S
C3051 H3022 0.950 . S
C3051 C3050 1.397 . S
C3051 C3052 1.334 . S
C3052 H3023 0.950 . S
C3052 C3051 1.334 . S
C3052 C3053 1.287 . S
C3053 C3052 1.287 . S
C3053 C3054 1.524 . S
C3053 H3056 0.999 . S
C3054 H3024 0.950 . S
C3054 C3053 1.524 . S
C3054 C3055 1.415 . S
C3055 H3025 0.950 . S
C3055 C3050 1.363 . S
C3055 C3054 1.415 . S
H3056 C3053 0.999 . S
H3057 C3038 0.913 . S
H3058 C3076 0.951 . S
H3059 C3078 0.951 . S
H3060 C3080 0.950 . S
H3061 C3081 0.950 . S
H3062 C3083 0.950 . S
H3063 C3086 0.950 . S
H3064 C3087 0.950 . S
H3065 C3089 0.950 . S
H3066 C3090 0.950 . S
H3067 C3091 0.951 . S
H3068 C3093 0.951 . S
H3069 C3095 0.950 . S
H3070 C3096 0.950 . S
H3071 C3098 0.950 . S
H3072 C3101 0.950 . S
H3073 C3102 0.950 . S
H3074 C3104 0.950 . S
H3075 C3105 0.950 . S
C3076 H3058 0.951 . S
C3076 C3077 1.366 . S
C3076 C3078 1.388 . S
C3077 C3076 1.366 . S
C3077 C3081 1.385 . S
C3078 H3059 0.951 . S
C3078 C3076 1.388 . S
C3078 C3079 1.366 . S
C3079 C3078 1.366 . S
C3079 C3080 1.414 . S
C3079 C3082 1.499 . S
C3080 H3060 0.950 . S
C3080 C3079 1.414 . S
C3080 C3081 1.374 . S
C3081 H3061 0.950 . S
C3081 C3077 1.385 . S
C3081 C3080 1.374 . S
C3082 C3079 1.499 . S
C3082 C3083 1.373 . S
C3082 C3084 1.389 . S
C3083 H3062 0.950 . S
C3083 C3082 1.373 . S
C3083 C3099 1.377 . S
C3084 C3082 1.389 . S
C3084 C3085 1.524 . S
C3084 C3098 1.377 . S
C3085 C3084 1.524 . S
C3085 C3086 1.397 . S
C3085 C3090 1.363 . S
C3086 H3063 0.950 . S
C3086 C3085 1.397 . S
C3086 C3087 1.334 . S
C3087 H3064 0.950 . S
C3087 C3086 1.334 . S
C3087 C3088 1.287 . S
C3088 C3087 1.287 . S
C3088 C3089 1.524 . S
C3088 H3107 0.913 . S
C3089 H3065 0.950 . S
C3089 C3088 1.524 . S
C3089 C3090 1.415 . S
C3090 H3066 0.950 . S
C3090 C3085 1.363 . S
C3090 C3089 1.415 . S
C3091 H3067 0.951 . S
C3091 C3092 1.366 . S
C3091 C3093 1.388 . S
C3092 C3091 1.366 . S
C3092 C3096 1.385 . S
C3093 H3068 0.951 . S
C3093 C3091 1.388 . S
C3093 C3094 1.366 . S
C3094 C3093 1.366 . S
C3094 C3095 1.414 . S
C3094 C3097 1.499 . S
C3095 H3069 0.950 . S
C3095 C3094 1.414 . S
C3095 C3096 1.374 . S
C3096 H3070 0.950 . S
C3096 C3092 1.385 . S
C3096 C3095 1.374 . S
C3097 C3094 1.499 . S
C3097 C3098 1.373 . S
C3097 C3099 1.389 . S
C3098 H3071 0.950 . S
C3098 C3084 1.377 . S
C3098 C3097 1.373 . S
C3099 C3083 1.377 . S
C3099 C3097 1.389 . S
C3099 C3100 1.524 . S
C3100 C3099 1.524 . S
C3100 C3101 1.397 . S
C3100 C3105 1.363 . S
C3101 H3072 0.950 . S
C3101 C3100 1.397 . S
C3101 C3102 1.334 . S
C3102 H3073 0.950 . S
C3102 C3101 1.334 . S
C3102 C3103 1.287 . S
C3103 C3102 1.287 . S
C3103 C3104 1.524 . S
C3103 H3106 0.999 . S
C3104 H3074 0.950 . S
C3104 C3103 1.524 . S
C3104 C3105 1.415 . S
C3105 H3075 0.950 . S
C3105 C3100 1.363 . S
C3105 C3104 1.415 . S
H3106 C3103 0.999 . S
H3107 C3088 0.913 . S
H3108 C3126 0.951 . S
H3109 C3128 0.951 . S
H3110 C3130 0.950 . S
H3111 C3131 0.950 . S
H3112 C3133 0.950 . S
H3113 C3136 0.950 . S
H3114 C3137 0.950 . S
H3115 C3139 0.950 . S
H3116 C3140 0.950 . S
H3117 C3141 0.951 . S
H3118 C3143 0.951 . S
H3119 C3145 0.950 . S
H3120 C3146 0.950 . S
H3121 C3148 0.950 . S
H3122 C3151 0.950 . S
H3123 C3152 0.950 . S
H3124 C3154 0.950 . S
H3125 C3155 0.950 . S
C3126 H3108 0.951 . S
C3126 C3127 1.366 . S
C3126 C3128 1.388 . S
C3127 C3126 1.366 . S
C3127 C3131 1.385 . S
C3128 H3109 0.951 . S
C3128 C3126 1.388 . S
C3128 C3129 1.366 . S
C3129 C3128 1.366 . S
C3129 C3130 1.414 . S
C3129 C3132 1.499 . S
C3130 H3110 0.950 . S
C3130 C3129 1.414 . S
C3130 C3131 1.374 . S
C3131 H3111 0.950 . S
C3131 C3127 1.385 . S
C3131 C3130 1.374 . S
C3132 C3129 1.499 . S
C3132 C3133 1.373 . S
C3132 C3134 1.389 . S
C3133 H3112 0.950 . S
C3133 C3132 1.373 . S
C3133 C3149 1.377 . S
C3134 C3132 1.389 . S
C3134 C3135 1.524 . S
C3134 C3148 1.377 . S
C3135 C3134 1.524 . S
C3135 C3136 1.397 . S
C3135 C3140 1.363 . S
C3136 H3113 0.950 . S
C3136 C3135 1.397 . S
C3136 C3137 1.334 . S
C3137 H3114 0.950 . S
C3137 C3136 1.334 . S
C3137 C3138 1.287 . S
C3138 C3137 1.287 . S
C3138 C3139 1.524 . S
C3138 H3157 0.913 . S
C3139 H3115 0.950 . S
C3139 C3138 1.524 . S
C3139 C3140 1.415 . S
C3140 H3116 0.950 . S
C3140 C3135 1.363 . S
C3140 C3139 1.415 . S
C3141 H3117 0.951 . S
C3141 C3142 1.366 . S
C3141 C3143 1.388 . S
C3142 C3141 1.366 . S
C3142 C3146 1.385 . S
C3143 H3118 0.951 . S
C3143 C3141 1.388 . S
C3143 C3144 1.366 . S
C3144 C3143 1.366 . S
C3144 C3145 1.414 . S
C3144 C3147 1.499 . S
C3145 H3119 0.950 . S
C3145 C3144 1.414 . S
C3145 C3146 1.374 . S
C3146 H3120 0.950 . S
C3146 C3142 1.385 . S
C3146 C3145 1.374 . S
C3147 C3144 1.499 . S
C3147 C3148 1.373 . S
C3147 C3149 1.389 . S
C3148 H3121 0.950 . S
C3148 C3134 1.377 . S
C3148 C3147 1.373 . S
C3149 C3133 1.377 . S
C3149 C3147 1.389 . S
C3149 C3150 1.524 . S
C3150 C3149 1.524 . S
C3150 C3151 1.397 . S
C3150 C3155 1.363 . S
C3151 H3122 0.950 . S
C3151 C3150 1.397 . S
C3151 C3152 1.334 . S
C3152 H3123 0.950 . S
C3152 C3151 1.334 . S
C3152 C3153 1.287 . S
C3153 C3152 1.287 . S
C3153 C3154 1.524 . S
C3153 H3156 0.999 . S
C3154 H3124 0.950 . S
C3154 C3153 1.524 . S
C3154 C3155 1.415 . S
C3155 H3125 0.950 . S
C3155 C3150 1.363 . S
C3155 C3154 1.415 . S
H3156 C3153 0.999 . S
H3157 C3138 0.913 . S
H3158 C3176 0.951 . S
H3159 C3178 0.951 . S
H3160 C3180 0.950 . S
H3161 C3181 0.950 . S
H3162 C3183 0.950 . S
H3163 C3186 0.950 . S
H3164 C3187 0.950 . S
H3165 C3189 0.950 . S
H3166 C3190 0.950 . S
H3167 C3191 0.951 . S
H3168 C3193 0.951 . S
H3169 C3195 0.950 . S
H3170 C3196 0.950 . S
H3171 C3198 0.950 . S
H3172 C3201 0.950 . S
H3173 C3202 0.950 . S
H3174 C3204 0.950 . S
H3175 C3205 0.950 . S
C3176 H3158 0.951 . S
C3176 C3177 1.366 . S
C3176 C3178 1.388 . S
C3177 C3176 1.366 . S
C3177 C3181 1.385 . S
C3178 H3159 0.951 . S
C3178 C3176 1.388 . S
C3178 C3179 1.366 . S
C3179 C3178 1.366 . S
C3179 C3180 1.414 . S
C3179 C3182 1.499 . S
C3180 H3160 0.950 . S
C3180 C3179 1.414 . S
C3180 C3181 1.374 . S
C3181 H3161 0.950 . S
C3181 C3177 1.385 . S
C3181 C3180 1.374 . S
C3182 C3179 1.499 . S
C3182 C3183 1.373 . S
C3182 C3184 1.389 . S
C3183 H3162 0.950 . S
C3183 C3182 1.373 . S
C3183 C3199 1.377 . S
C3184 C3182 1.389 . S
C3184 C3185 1.524 . S
C3184 C3198 1.377 . S
C3185 C3184 1.524 . S
C3185 C3186 1.397 . S
C3185 C3190 1.363 . S
C3186 H3163 0.950 . S
C3186 C3185 1.397 . S
C3186 C3187 1.334 . S
C3187 H3164 0.950 . S
C3187 C3186 1.334 . S
C3187 C3188 1.287 . S
C3188 C3187 1.287 . S
C3188 C3189 1.524 . S
C3188 H3207 0.913 . S
C3189 H3165 0.950 . S
C3189 C3188 1.524 . S
C3189 C3190 1.415 . S
C3190 H3166 0.950 . S
C3190 C3185 1.363 . S
C3190 C3189 1.415 . S
C3191 H3167 0.951 . S
C3191 C3192 1.366 . S
C3191 C3193 1.388 . S
C3192 C3191 1.366 . S
C3192 C3196 1.385 . S
C3193 H3168 0.951 . S
C3193 C3191 1.388 . S
C3193 C3194 1.366 . S
C3194 C3193 1.366 . S
C3194 C3195 1.414 . S
C3194 C3197 1.499 . S
C3195 H3169 0.950 . S
C3195 C3194 1.414 . S
C3195 C3196 1.374 . S
C3196 H3170 0.950 . S
C3196 C3192 1.385 . S
C3196 C3195 1.374 . S
C3197 C3194 1.499 . S
C3197 C3198 1.373 . S
C3197 C3199 1.389 . S
C3198 H3171 0.950 . S
C3198 C3184 1.377 . S
C3198 C3197 1.373 . S
C3199 C3183 1.377 . S
C3199 C3197 1.389 . S
C3199 C3200 1.524 . S
C3200 C3199 1.524 . S
C3200 C3201 1.397 . S
C3200 C3205 1.363 . S
C3201 H3172 0.950 . S
C3201 C3200 1.397 . S
C3201 C3202 1.334 . S
C3202 H3173 0.950 . S
C3202 C3201 1.334 . S
C3202 C3203 1.287 . S
C3203 C3202 1.287 . S
C3203 C3204 1.524 . S
C3203 H3206 0.999 . S
C3204 H3174 0.950 . S
C3204 C3203 1.524 . S
C3204 C3205 1.415 . S
C3205 H3175 0.950 . S
C3205 C3200 1.363 . S
C3205 C3204 1.415 . S
H3206 C3203 0.999 . S
H3207 C3188 0.913 . S
H3208 C3226 0.951 . S
H3209 C3228 0.951 . S
H3210 C3230 0.950 . S
H3211 C3231 0.950 . S
H3212 C3233 0.950 . S
H3213 C3236 0.950 . S
H3214 C3237 0.950 . S
H3215 C3239 0.950 . S
H3216 C3240 0.950 . S
H3217 C3241 0.951 . S
H3218 C3243 0.951 . S
H3219 C3245 0.950 . S
H3220 C3246 0.950 . S
H3221 C3248 0.950 . S
H3222 C3251 0.950 . S
H3223 C3252 0.950 . S
H3224 C3254 0.950 . S
H3225 C3255 0.950 . S
C3226 H3208 0.951 . S
C3226 C3227 1.366 . S
C3226 C3228 1.388 . S
C3227 C3226 1.366 . S
C3227 C3231 1.385 . S
C3228 H3209 0.951 . S
C3228 C3226 1.388 . S
C3228 C3229 1.366 . S
C3229 C3228 1.366 . S
C3229 C3230 1.414 . S
C3229 C3232 1.499 . S
C3230 H3210 0.950 . S
C3230 C3229 1.414 . S
C3230 C3231 1.374 . S
C3231 H3211 0.950 . S
C3231 C3227 1.385 . S
C3231 C3230 1.374 . S
C3232 C3229 1.499 . S
C3232 C3233 1.373 . S
C3232 C3234 1.389 . S
C3233 H3212 0.950 . S
C3233 C3232 1.373 . S
C3233 C3249 1.377 . S
C3234 C3232 1.389 . S
C3234 C3235 1.524 . S
C3234 C3248 1.377 . S
C3235 C3234 1.524 . S
C3235 C3236 1.397 . S
C3235 C3240 1.363 . S
C3236 H3213 0.950 . S
C3236 C3235 1.397 . S
C3236 C3237 1.334 . S
C3237 H3214 0.950 . S
C3237 C3236 1.334 . S
C3237 C3238 1.287 . S
C3238 C3237 1.287 . S
C3238 C3239 1.524 . S
C3238 H3257 0.913 . S
C3239 H3215 0.950 . S
C3239 C3238 1.524 . S
C3239 C3240 1.415 . S
C3240 H3216 0.950 . S
C3240 C3235 1.363 . S
C3240 C3239 1.415 . S
C3241 H3217 0.951 . S
C3241 C3242 1.366 . S
C3241 C3243 1.388 . S
C3242 C3241 1.366 . S
C3242 C3246 1.385 . S
C3243 H3218 0.951 . S
C3243 C3241 1.388 . S
C3243 C3244 1.366 . S
C3244 C3243 1.366 . S
C3244 C3245 1.414 . S
C3244 C3247 1.499 . S
C3245 H3219 0.950 . S
C3245 C3244 1.414 . S
C3245 C3246 1.374 . S
C3246 H3220 0.950 . S
C3246 C3242 1.385 . S
C3246 C3245 1.374 . S
C3247 C3244 1.499 . S
C3247 C3248 1.373 . S
C3247 C3249 1.389 . S
C3248 H3221 0.950 . S
C3248 C3234 1.377 . S
C3248 C3247 1.373 . S
C3249 C3233 1.377 . S
C3249 C3247 1.389 . S
C3249 C3250 1.524 . S
C3250 C3249 1.524 . S
C3250 C3251 1.397 . S
C3250 C3255 1.363 . S
C3251 H3222 0.950 . S
C3251 C3250 1.397 . S
C3251 C3252 1.334 . S
C3252 H3223 0.950 . S
C3252 C3251 1.334 . S
C3252 C3253 1.287 . S
C3253 C3252 1.287 . S
C3253 C3254 1.524 . S
C3253 H3256 0.999 . S
C3254 H3224 0.950 . S
C3254 C3253 1.524 . S
C3254 C3255 1.415 . S
C3255 H3225 0.950 . S
C3255 C3250 1.363 . S
C3255 C3254 1.415 . S
H3256 C3253 0.999 . S
H3257 C3238 0.913 . S
C577 C147 1.677 . S
C592 C207 1.672 . S
C627 C158 1.829 . S
C642 C247 1.821 . S
C677 C136 1.604 . S
C692 C286 1.573 . S
C727 C125 1.466 . S
C742 C246 1.428 . S
C792 C287 1.482 1_556 S
C777 C103 1.488 . S
C827 C114 1.316 . S
C842 C206 1.297 . S
C892 C217 1.642 1_556 S
C877 C131 1.656 . S
C942 C257 1.688 . S
C927 C109 1.689 . S
C977 C120 1.666 . S
C992 C296 1.675 . S
C1027 C153 1.491 . S
C1042 C256 1.486 . S
C1077 C164 1.438 . S
C1092 C297 1.420 . S
C1142 C216 1.429 . S
C1127 C142 1.418 . S
C1192 C327 1.671 . S
C1177 C15 1.676 . S
C1227 C26 1.829 . S
C1242 C367 1.821 . S
C1277 C4 1.604 . S
C1292 C406 1.572 . S
C1327 C191 1.466 . S
C1342 C366 1.427 . S
C1377 C169 1.488 . S
C1392 C407 1.483 . S
C1427 C180 1.316 . S
C1442 C326 1.297 . S
C1477 C197 1.656 . S
C1492 C337 1.642 . S
C1527 C175 1.689 . S
C1542 C377 1.674 . S
C1592 C416 1.674 . S
C1577 C186 1.665 . S
C1627 C21 1.490 . S
C1642 C376 1.486 . S
C1692 C417 1.420 . S
C1677 C32 1.438 . S
C1727 C10 1.418 . S
C1742 C336 1.429 . S
C1792 C447 1.672 . S
C1777 C81 1.677 . S
C1827 C92 1.829 . S
C1842 C487 1.822 . S
C1892 C526 1.573 . S
C1877 C70 1.604 . S
C1942 C486 1.427 . S
C1927 C59 1.466 . S
C1992 C527 1.482 . S
C1977 C37 1.488 . S
C2027 C48 1.316 . S
C2042 C446 1.296 . S
C2077 C65 1.656 . S
C2092 C457 1.642 . S
C2127 C43 1.689 . S
C2142 C497 1.674 . S
C2192 C536 1.674 . S
C2177 C54 1.665 . S
C2227 C87 1.490 . S
C2242 C496 1.486 . S
C2277 C98 1.438 . S
C2292 C537 1.420 . S
C2327 C76 1.419 . S
C2342 C456 1.430 . S
C2377 C170 1.417 . S
C2392 C203 1.412 . S
C2442 C243 1.975 . S
C2427 C181 1.974 . S
C2477 C192 1.564 . S
C2492 C293 1.580 . S
C2527 C71 1.825 . S
C2542 C253 1.841 . S
C2577 C82 1.685 . S
C2592 C283 1.687 . S
C2642 C213 1.264 . S
C2627 C93 1.254 . S
C2677 C38 1.418 . S
C2692 C323 1.412 . S
C2727 C49 1.974 . S
C2742 C363 1.975 . S
C2777 C60 1.563 . S
C2792 C413 1.580 . S
C2827 C137 1.824 . S
C2842 C373 1.841 . S
C2892 C403 1.687 . S
C2877 C148 1.685 . S
C2927 C159 1.254 . S
C2942 C333 1.263 . S
C2977 C104 1.418 . S
C2992 C443 1.413 . S
C3027 C115 1.975 . S
C3042 C483 1.976 . S
C3092 C533 1.580 . S
C3077 C126 1.564 . S
C3127 C5 1.824 . S
C3142 C493 1.841 . S
C3177 C16 1.685 . S
C3192 C523 1.688 . S
C3227 C27 1.254 . S
C3242 C453 1.263 . S
