# Generated by pormake.
# Topology tsx, (6,3)-cn, num edge types: 1
# Building blocks:
#     Node 0, Type 0, BuildingBlock: FUNLAD_clean_sbu_0, # of connection points: 6
#     Node 1, Type 0, BuildingBlock: FUNLAD_clean_sbu_0, # of connection points: 6
#     Node 2, Type 1, BuildingBlock: QEWDON_clean_linker_0, # of connection points: 3
#     Node 3, Type 1, BuildingBlock: QEWDON_clean_linker_0, # of connection points: 3
#     Node 4, Type 1, BuildingBlock: QEWDON_clean_linker_0, # of connection points: 3
#     Node 5, Type 1, BuildingBlock: QEWDON_clean_linker_0, # of connection points: 3
#     Edge 6, Type (0, 1), BuildingBlock: ZUJKAS_clean_linker_0, # of connection points: 2
#     Edge 7, Type (0, 1), BuildingBlock: ZUJKAS_clean_linker_0, # of connection points: 2
#     Edge 8, Type (0, 1), BuildingBlock: ZUJKAS_clean_linker_0, # of connection points: 2
#     Edge 9, Type (0, 1), BuildingBlock: ZUJKAS_clean_linker_0, # of connection points: 2
#     Edge 10, Type (0, 1), BuildingBlock: ZUJKAS_clean_linker_0, # of connection points: 2
#     Edge 11, Type (0, 1), BuildingBlock: ZUJKAS_clean_linker_0, # of connection points: 2
#     Edge 12, Type (0, 1), BuildingBlock: ZUJKAS_clean_linker_0, # of connection points: 2
#     Edge 13, Type (0, 1), BuildingBlock: ZUJKAS_clean_linker_0, # of connection points: 2
#     Edge 14, Type (0, 1), BuildingBlock: ZUJKAS_clean_linker_0, # of connection points: 2
#     Edge 15, Type (0, 1), BuildingBlock: ZUJKAS_clean_linker_0, # of connection points: 2
#     Edge 16, Type (0, 1), BuildingBlock: ZUJKAS_clean_linker_0, # of connection points: 2
#     Edge 17, Type (0, 1), BuildingBlock: ZUJKAS_clean_linker_0, # of connection points: 2
# Relax obj value: 0.116
# Max RMSD: 0.174
# Mean RMSD: 0.150
data_MOF--net-tsx--node1-FUNLAD_clean_sbu_0--node2-QEWDON_clean_linker_0--edge1-ZUJKAS_clean_linker_0
_symmetry_space_group_name_H-M    P1
_symmetry_Int_Tables_number       1
_symmetry_cell_setting            triclinic
loop_
_symmetry_equiv_pos_as_xyz
'x, y, z'
_cell_length_a     26.89763
_cell_length_b     29.584055
_cell_length_c     49.24001
_cell_angle_alpha  91.059461
_cell_angle_beta   106.91403
_cell_angle_gamma 89.930821
loop_
_atom_site_label
_atom_site_type_symbol
_atom_site_fract_x
_atom_site_fract_y
_atom_site_fract_z
_atom_type_partial_charge
C0 C 0.9662 0.929 0.9915 0.0
N1 N 0.03199 0.01053 0.06373 0.0
C2 C -0.01091 -0.00094 0.07143 0.0
C3 C -0.01024 0.00158 0.09981 0.0
C4 C 0.035 0.01608 0.12055 0.0
C5 C 0.07908 0.02694 0.11209 0.0
C6 C 0.07669 0.02397 0.08339 0.0
Zn7 Zn 0.02615 0.01016 0.02154 0.0
C8 C 0.11052 0.96333 0.00737 0.0
N9 N 0.00616 0.01059 0.93274 0.0
C10 C 0.96054 0.00263 0.91226 0.0
C11 C 0.05045 0.02047 0.92597 0.0
C12 C 0.05007 0.02282 0.89773 0.0
C13 C 0.00366 0.01489 0.87609 0.0
C14 C 0.95839 0.00466 0.88359 0.0
Zn15 Zn 0.01132 0.00983 0.9748 0.0
O16 O 0.98705 0.94657 0.01594 0.0
C17 C 0.92709 0.05659 0.98966 0.0
O18 O 0.96927 0.94911 0.9695 0.0
H19 H 0.08626 0.027 0.94255 0.0
H20 H 0.95394 0.98849 0.05546 0.0
H21 H 0.92583 -0.00514 0.91816 0.0
O22 O 0.95493 0.04447 0.01391 0.0
O23 O 0.94146 0.04682 0.96786 0.0
H24 H 0.11024 0.0331 0.07675 0.0
O25 O 0.05242 0.07087 0.98017 0.0
O26 O 0.06554 0.07359 0.02621 0.0
O27 O 0.08173 0.97256 0.98268 0.0
O28 O 0.09699 0.97615 0.02891 0.0
C29 C 0.0707 0.09126 0.00384 0.0
H30 H 0.95519 0.99214 0.10544 0.0
H31 H 0.11464 0.03859 0.12739 0.0
H32 H 0.08564 0.03154 0.89292 0.0
H33 H 0.92189 -0.00207 0.86751 0.0
C34 C 0.45104 0.42838 0.49221 0.0
N35 N 0.52013 0.50409 0.56708 0.0
C36 C 0.47618 0.49603 0.57463 0.0
C37 C 0.47747 0.4967 0.60317 0.0
C38 C 0.52446 0.50569 0.62424 0.0
C39 C 0.56937 0.5134 0.61586 0.0
C40 C 0.5663 0.51251 0.58703 0.0
Zn41 Zn 0.51505 0.50554 0.52484 0.0
C42 C 0.59784 0.45497 0.51038 0.0
N43 N 0.49943 0.50969 0.43619 0.0
C44 C 0.45325 0.50386 0.41578 0.0
C45 C 0.54373 0.51912 0.4293 0.0
C46 C 0.54266 0.52339 0.401 0.0
C47 C 0.49557 0.51782 0.37945 0.0
C48 C 0.45043 0.50779 0.38712 0.0
Zn49 Zn 0.50401 0.50681 0.47825 0.0
O50 O 0.46904 0.44544 0.51708 0.0
C51 C 0.42134 0.55752 0.49316 0.0
O52 O 0.45999 0.44774 0.47133 0.0
H53 H 0.58002 0.52391 0.44583 0.0
H54 H 0.43987 0.48935 0.55846 0.0
H55 H 0.41852 0.49639 0.42174 0.0
O56 O 0.44765 0.54505 0.51766 0.0
O57 O 0.43587 0.54597 0.47167 0.0
H58 H 0.60072 0.51903 0.58056 0.0
O59 O 0.54787 0.56575 0.48534 0.0
O60 O 0.56121 0.56561 0.53142 0.0
O61 O 0.57229 0.46765 0.48575 0.0
O62 O 0.58239 0.46615 0.53159 0.0
C63 C 0.568 0.5838 0.50957 0.0
H64 H 0.44208 0.48989 0.60868 0.0
H65 H 0.60632 0.52088 0.63138 0.0
H66 H 0.57826 0.53178 0.39612 0.0
H67 H 0.4134 0.50267 0.37117 0.0
H68 H 0.03548 0.05057 0.42316 0.0
C69 C 0.05031 0.01795 0.43145 0.0
C70 C 0.05986 0.98431 0.4132 0.0
C71 C 0.06314 0.01076 0.46073 0.0
H72 H 0.0865 0.91623 0.41035 0.0
C73 C 0.07928 0.94244 0.42439 0.0
C74 C 0.09118 0.93457 0.45362 0.0
C75 C 0.08394 0.96936 0.47183 0.0
C76 C 0.05531 0.04703 0.47959 0.0
H77 H 0.09352 0.96402 0.4945 0.0
C78 C -0.00526 0.06882 0.47363 0.0
C79 C -0.00452 0.13649 0.50934 0.0
C80 C 0.10653 0.06799 0.50568 0.0
H81 H 0.14357 0.05198 0.50769 0.0
C82 C 0.10746 0.11164 0.52891 0.0
H83 H 0.96396 0.05361 0.45616 0.0
C84 C 0.05723 0.14445 0.53139 0.0
H85 H 0.06459 0.17136 0.54725 0.0
H86 H 0.14484 0.1196 0.5438 0.0
H87 H 0.98611 0.07037 0.57028 0.0
C88 C 0.96187 0.04124 0.56159 0.0
C89 C 0.94522 0.01281 0.57968 0.0
C90 C 0.9453 0.03325 0.53211 0.0
H91 H 0.90339 0.95172 0.58215 0.0
C92 C 0.91516 0.97467 0.5682 0.0
C93 C 0.89976 0.96581 0.53892 0.0
C94 C 0.91351 -0.00402 0.52073 0.0
C95 C 0.96296 0.06301 0.51343 0.0
H96 H 0.90139 0.98946 0.49799 0.0
C97 C 0.02791 0.06974 0.51923 0.0
C98 C 0.04639 0.12673 0.48279 0.0
C99 C 0.91917 0.09038 0.48708 0.0
H100 H 0.87869 0.08392 0.48514 0.0
C101 C 0.93064 0.12725 0.46339 0.0
H102 H 0.05349 0.05128 0.53695 0.0
C103 C -0.01131 0.14525 0.46059 0.0
H104 H -0.01085 0.16954 0.44451 0.0
H105 H 0.89662 0.14114 0.44839 0.0
H106 H 0.54861 0.54939 0.93101 0.0
C107 C 0.56266 0.5167 0.93953 0.0
C108 C 0.57122 0.48231 0.92143 0.0
C109 C 0.57496 0.5099 0.9689 0.0
H110 H 0.59577 0.41347 0.919 0.0
C111 C 0.58953 0.44034 0.93291 0.0
C112 C 0.60126 0.43292 0.96217 0.0
C113 C 0.59492 0.46831 0.98023 0.0
C114 C 0.567 0.54668 0.98752 0.0
H115 H 0.6043 0.46321 0.00291 0.0
C116 C 0.50771 0.5716 0.97955 0.0
C117 C 0.50895 0.64071 0.01427 0.0
C118 C 0.61732 0.56579 0.01487 0.0
H119 H 0.65361 0.54787 0.01816 0.0
C120 C 0.61855 0.61036 0.03752 0.0
H121 H 0.47745 0.55737 0.96143 0.0
C122 C 0.56954 0.64613 0.03803 0.0
H123 H 0.57697 0.67323 0.05376 0.0
H124 H 0.65528 0.61682 0.05341 0.0
H125 H 0.49634 0.57366 0.07463 0.0
C126 C 0.46718 0.54804 0.06548 0.0
C127 C 0.44888 0.52042 0.08335 0.0
C128 C 0.44817 0.54245 0.03582 0.0
H129 H 0.39756 0.4654 0.08498 0.0
C130 C 0.41211 0.48679 0.0713 0.0
C131 C 0.39334 0.48057 0.0418 0.0
C132 C 0.41049 0.50926 0.024 0.0
C133 C 0.47033 0.56948 0.01748 0.0
H134 H 0.39667 0.50422 0.00116 0.0
C135 C 0.53607 0.57271 0.02536 0.0
C136 C 0.56313 0.62683 0.99011 0.0
C137 C 0.43091 0.59805 0.99 0.0
H138 H 0.38961 0.59406 0.98677 0.0
C139 C 0.44792 0.63306 0.96703 0.0
H140 H 0.55868 0.55391 0.0438 0.0
C141 C 0.50843 0.64755 0.96625 0.0
H142 H 0.51246 0.67117 0.9505 0.0
H143 H 0.41612 0.64822 0.9511 0.0
H144 H 0.07698 0.14049 0.95885 0.0
H145 H 0.1246 0.21076 0.95965 0.0
H146 H 0.17349 0.21134 0.05119 0.0
H147 H 0.12503 0.14094 0.05069 0.0
H148 H 0.14019 0.29722 0.02633 0.0
H149 H 0.28434 0.21386 0.98087 0.0
H150 H 0.2175 0.20627 0.96061 0.0
H151 H 0.24079 0.18229 -0.00475 0.0
C152 C 0.09771 0.15552 0.97922 0.0
C153 C 0.09776 0.13489 0.00476 0.0
C154 C 0.12494 0.19565 0.97958 0.0
C155 C 0.15313 0.21568 0.00544 0.0
C156 C 0.15202 0.19611 0.03102 0.0
H157 H 0.40857 0.39312 0.05662 0.0
H158 H 0.34611 0.33097 0.04323 0.0
C159 C 0.1245 0.15592 0.0307 0.0
C160 C 0.18524 0.25623 0.00575 0.0
H161 H 0.29277 0.2926 0.98896 0.0
C162 C 0.17334 0.29644 0.01799 0.0
C163 C 0.22844 0.25479 -0.00513 0.0
C164 C 0.24396 0.21195 0.98235 0.0
C165 C 0.20431 0.33524 0.02017 0.0
C166 C 0.24778 0.33363 0.00953 0.0
C167 C 0.25894 0.29371 -0.00328 0.0
C168 C 0.28609 0.37083 0.01498 0.0
C169 C 0.19177 0.37701 0.03493 0.0
C170 C 0.27338 0.41343 0.00279 0.0
C171 C 0.30922 0.4491 0.01039 0.0
C172 C 0.3578 0.44237 0.03035 0.0
C173 C 0.37108 0.39915 0.04141 0.0
C174 C 0.33558 0.36369 0.03374 0.0
H175 H 0.16101 0.37061 0.04535 0.0
H176 H 0.22707 0.38976 0.05121 0.0
H177 H 0.17806 0.40399 0.01917 0.0
H178 H 0.23548 0.41926 0.98796 0.0
H179 H 0.29828 0.48222 0.00164 0.0
H180 H 0.14772 0.92758 0.96566 0.0
H181 H 0.22122 0.87633 0.97136 0.0
H182 H 0.25336 0.8852 0.06233 0.0
H183 H 0.17994 0.9367 0.05696 0.0
H184 H 0.34404 0.88992 0.04017 0.0
H185 H 0.21227 0.74387 -0.00135 0.0
H186 H 0.20047 0.79279 0.97659 0.0
H187 H 0.19025 0.79586 0.01104 0.0
C188 C 0.17063 0.91898 0.98691 0.0
C189 C 0.15768 0.93579 0.01086 0.0
C190 C 0.2125 0.88966 0.99009 0.0
C191 C 0.24202 0.87665 0.01723 0.0
C192 C 0.23072 0.89481 0.04123 0.0
H193 H 0.44162 0.64013 0.04716 0.0
H194 H 0.38023 0.69887 0.05157 0.0
C195 C 0.18875 0.92411 0.03809 0.0
C196 C 0.2831 0.84243 0.0204 0.0
H197 H 0.30217 0.73194 0.00543 0.0
C198 C 0.33506 0.85529 0.03276 0.0
C199 C 0.2709 0.79724 0.0111 0.0
C200 C 0.21544 0.78132 -0.00119 0.0
C201 C 0.37552 0.8242 0.03523 0.0
C202 C 0.36338 0.77946 0.02482 0.0
C203 C 0.31128 0.76636 0.01328 0.0
C204 C 0.40389 0.74591 0.0245 0.0
C205 C 0.4308 0.8394 0.04895 0.0
C206 C 0.438 0.75329 0.00825 0.0
C207 C 0.47253 0.71956 0.00544 0.0
C208 C 0.47219 0.67734 0.018 0.0
C209 C 0.44048 0.6712 0.03583 0.0
C210 C 0.40588 0.70492 0.03863 0.0
H211 H 0.43255 0.86979 0.06281 0.0
H212 H 0.45411 0.81209 0.0618 0.0
H213 H 0.44888 0.84828 0.03216 0.0
H214 H 0.43698 0.78466 -0.00289 0.0
H215 H 0.49857 0.72623 0.99288 0.0
H216 H 0.98583 0.85775 0.02722 0.0
H217 H 0.93244 0.7898 0.02411 0.0
H218 H 0.82385 0.8398 0.94773 0.0
H219 H 0.87922 0.90563 0.94968 0.0
H220 H 0.84538 0.7847 0.03056 0.0
H221 H 0.82004 0.71308 0.92379 0.0
H222 H 0.86816 0.75615 0.9387 0.0
H223 H 0.80214 0.77136 0.91997 0.0
C224 C 0.95113 0.85348 0.00945 0.0
C225 C 0.93648 0.88666 0.98866 0.0
C226 C 0.92067 0.8147 0.00763 0.0
C227 C 0.87435 0.80903 0.9854 0.0
C228 C 0.86025 0.84216 0.96446 0.0
H229 H 0.59343 0.71316 0.00407 0.0
H230 H 0.67266 0.75113 0.00242 0.0
C231 C 0.89157 0.88017 0.96578 0.0
C232 C 0.83736 0.77212 0.98613 0.0
H233 H 0.74649 0.7013 0.94331 0.0
C234 C 0.82482 0.76571 0.01156 0.0
C235 C 0.81111 0.74608 0.96173 0.0
C236 C 0.82667 0.74672 0.93467 0.0
C237 C 0.78441 0.73679 0.01271 0.0
C238 C 0.75384 0.71546 0.98741 0.0
C239 C 0.76886 0.71883 0.96252 0.0
C240 C 0.7042 0.69267 0.98615 0.0
C241 C 0.77449 0.73009 0.04102 0.0
C242 C 0.69345 0.64838 0.97528 0.0
C243 C 0.6472 0.62695 0.9755 0.0
C244 C 0.6122 0.64902 0.98765 0.0
C245 C 0.62121 0.69447 -0.00377 0.0
C246 C 0.66662 0.7161 -0.00456 0.0
H247 H 0.8111 0.7333 0.05869 0.0
H248 H 0.74763 0.75667 0.04438 0.0
H249 H 0.75699 0.69644 0.04212 0.0
H250 H 0.72109 0.63019 0.96704 0.0
H251 H 0.63954 0.593 0.96677 0.0
H252 H 0.86651 0.09991 0.94297 0.0
H253 H 0.80045 0.15731 0.94227 0.0
H254 H 0.81919 0.13645 0.03112 0.0
H255 H 0.88461 0.07882 0.03204 0.0
H256 H 0.71325 0.15182 -0.003 0.0
H257 H 0.85482 0.27972 0.9833 0.0
H258 H 0.84057 0.23485 0.95705 0.0
H259 H 0.87314 0.22239 0.99348 0.0
C260 C 0.85582 0.10689 0.96221 0.0
C261 C 0.88138 0.08542 0.98766 0.0
C262 C 0.81824 0.13972 0.96179 0.0
C263 C 0.80582 0.1515 0.98678 0.0
C264 C 0.82852 0.12789 0.01168 0.0
H265 H 0.68562 0.4175 0.00772 0.0
H266 H 0.73176 0.34587 0.01971 0.0
C267 C 0.86604 0.09512 0.01214 0.0
C268 C 0.77329 0.19136 0.98773 0.0
H269 H 0.7706 0.30575 0.98082 0.0
C270 C 0.72566 0.18556 0.99355 0.0
C271 C 0.79046 0.2353 0.984 0.0
C272 C 0.84274 0.24371 0.97937 0.0
C273 C 0.69374 0.22272 -0.00526 0.0
C274 C 0.70991 0.26645 0.98969 0.0
C275 C 0.75829 0.27219 0.98473 0.0
C276 C 0.6762 0.30661 0.9872 0.0
C277 C 0.64324 0.21487 0.00146 0.0
C278 C 0.62878 0.30783 0.9657 0.0
C279 C 0.60225 0.34853 0.959 0.0
C280 C 0.62306 0.38881 0.97344 0.0
C281 C 0.66858 0.38696 -0.00367 0.0
C282 C 0.69504 0.34613 0.00311 0.0
H283 H 0.64465 0.18353 0.01376 0.0
H284 H 0.63368 0.2438 0.01371 0.0
H285 H 0.61145 0.21086 0.98132 0.0
H286 H 0.61395 0.278 0.95282 0.0
H287 H 0.56685 0.34896 0.94147 0.0
H288 H 0.57846 0.63387 0.46595 0.0
H289 H 0.63528 0.69857 0.46821 0.0
H290 H 0.68756 0.69146 0.55954 0.0
H291 H 0.62996 0.6263 0.55759 0.0
H292 H 0.6623 0.7803 0.53715 0.0
H293 H 0.79494 0.68885 0.48742 0.0
H294 H 0.72737 0.68505 0.46772 0.0
H295 H 0.74978 0.66004 0.50211 0.0
C296 C 0.6019 0.64598 0.4866 0.0
C297 C 0.60012 0.62474 0.51164 0.0
C298 C 0.63449 0.68284 0.48778 0.0
C299 C 0.6662 0.69899 0.51395 0.0
C300 C 0.6635 0.67899 0.53912 0.0
H301 H 0.92534 0.87983 0.55468 0.0
H302 H 0.86748 0.814 0.54482 0.0
C303 C 0.63065 0.64195 0.53799 0.0
C304 C 0.70202 0.73693 0.51478 0.0
H305 H 0.80637 0.76842 0.49325 0.0
C306 C 0.69385 0.77781 0.52761 0.0
C307 C 0.74318 0.73317 0.50239 0.0
C308 C 0.75479 0.68932 0.48934 0.0
C309 C 0.72572 0.81543 0.52819 0.0
C310 C 0.76611 0.81198 0.51522 0.0
C311 C 0.77462 0.77097 0.50264 0.0
C312 C 0.80277 0.84954 0.51692 0.0
C313 C 0.71679 0.85825 0.54322 0.0
C314 C 0.78599 0.89049 0.50336 0.0
C315 C 0.81907 0.92807 0.50887 0.0
C316 C 0.86895 0.92484 0.52806 0.0
C317 C 0.88678 0.88296 0.53996 0.0
C318 C 0.85393 0.84548 0.53434 0.0
H319 H 0.69002 0.85275 0.55632 0.0
H320 H 0.75415 0.87191 0.55715 0.0
H321 H 0.69946 0.88416 0.52725 0.0
H322 H 0.74667 0.89385 0.48959 0.0
H323 H 0.80466 0.96018 0.49958 0.0
H324 H 0.66127 0.42152 0.55986 0.0
H325 H 0.73441 0.36968 0.56516 0.0
H326 H 0.71157 0.37142 0.4748 0.0
H327 H 0.63848 0.42296 0.46918 0.0
H328 H 0.71513 0.28314 0.49998 0.0
H329 H 0.88191 0.3947 0.5553 0.0
H330 H 0.8273 0.39365 0.56946 0.0
H331 H 0.81978 0.41684 0.53511 0.0
C332 C 0.67214 0.4112 0.54115 0.0
C333 C 0.644 0.42616 0.51407 0.0
C334 C 0.71401 0.3818 0.54426 0.0
C335 C 0.72832 0.36713 0.52038 0.0
C336 C 0.70098 0.3826 0.49345 0.0
H337 H 0.98165 0.22281 0.48998 0.0
H338 H 0.91871 0.27875 0.49622 0.0
C339 C 0.65928 0.41201 0.4903 0.0
C340 C 0.76973 0.33346 0.523 0.0
H341 H 0.90098 0.31871 0.54682 0.0
C342 C 0.75576 0.29069 0.51038 0.0
C343 C 0.82248 0.34383 0.5365 0.0
C344 C 0.83915 0.3898 0.54976 0.0
C345 C 0.79344 0.258 0.51048 0.0
C346 C 0.84627 0.26837 0.52387 0.0
C347 C 0.86027 0.31096 0.53682 0.0
C348 C 0.88755 0.23631 0.52272 0.0
C349 C 0.77669 0.21319 0.49543 0.0
C350 C 0.89194 0.19476 0.53641 0.0
C351 C 0.9274 0.16262 0.53257 0.0
C352 C 0.95785 0.1712 0.51437 0.0
C353 C 0.95634 0.21428 0.50266 0.0
C354 C 0.92098 0.24644 0.50652 0.0
H355 H 0.73565 0.2137 0.48191 0.0
H356 H 0.80191 0.20386 0.48193 0.0
H357 H 0.78045 0.18645 0.51141 0.0
H358 H 0.86735 0.18697 0.54967 0.0
H359 H 0.9301 0.13089 0.54335 0.0
H360 H 0.41851 0.38119 0.53115 0.0
H361 H 0.35788 0.31748 0.52183 0.0
H362 H 0.34933 0.31894 0.433 0.0
H363 H 0.40944 0.38301 0.44199 0.0
H364 H 0.25425 0.32312 0.44226 0.0
H365 H 0.36861 0.18351 0.50322 0.0
H366 H 0.37401 0.2344 0.5243 0.0
H367 H 0.39859 0.23327 0.49397 0.0
C368 C 0.40441 0.3675 0.50971 0.0
C369 C 0.41846 0.38729 0.48729 0.0
C370 C 0.37016 0.33083 0.50447 0.0
C371 C 0.34983 0.31315 0.4768 0.0
C372 C 0.36501 0.33193 0.45452 0.0
H373 H 0.11418 0.09716 0.45287 0.0
H374 H 0.18867 0.13818 0.44611 0.0
C375 C 0.39919 0.36861 0.45972 0.0
C376 C 0.308 0.27894 0.47076 0.0
H377 H 0.275 0.17825 0.4935 0.0
C378 C 0.25904 0.29095 0.45293 0.0
C379 C 0.31455 0.23678 0.48437 0.0
C380 C 0.36696 0.221 0.5023 0.0
C381 C 0.21554 0.26338 0.4501 0.0
C382 C 0.22131 0.22322 0.46571 0.0
C383 C 0.27084 0.20942 0.48179 0.0
C384 C 0.17579 0.19847 0.46859 0.0
C385 C 0.16332 0.27835 0.43145 0.0
C386 C 0.14413 0.21908 0.48328 0.0
C387 C 0.10248 0.19553 0.48763 0.0
C388 C 0.09256 0.15059 0.47802 0.0
C389 C 0.12268 0.13078 0.46197 0.0
C390 C 0.16484 0.15428 0.45781 0.0
H391 H 0.16746 0.30222 0.41508 0.0
H392 H 0.13957 0.24889 0.42073 0.0
H393 H 0.14204 0.29593 0.44475 0.0
H394 H 0.15205 0.25329 0.49167 0.0
H395 H 0.07831 0.2124 0.4988 0.0
H396 H 0.36255 0.5985 0.44515 0.0
H397 H 0.29664 0.65681 0.44222 0.0
H398 H 0.31386 0.64401 0.53157 0.0
H399 H 0.37936 0.58551 0.53476 0.0
H400 H 0.20704 0.65589 0.49497 0.0
H401 H 0.34922 0.78252 0.48029 0.0
H402 H 0.33736 0.73527 0.45575 0.0
H403 H 0.36795 0.72629 0.49285 0.0
C404 C 0.35171 0.60754 0.46407 0.0
C405 C 0.37669 0.58794 0.49027 0.0
C406 C 0.31416 0.64084 0.46236 0.0
C407 C 0.30118 0.65494 0.48678 0.0
C408 C 0.32363 0.63354 0.51255 0.0
H409 H 0.17456 0.9207 0.49993 0.0
H410 H 0.22158 0.8499 0.5133 0.0
C411 C 0.36118 0.6003 0.51432 0.0
C412 C 0.26789 0.69476 0.48603 0.0
H413 H 0.2641 0.80836 0.47571 0.0
C414 C 0.21938 0.68932 0.49087 0.0
C415 C 0.28489 0.73829 0.48133 0.0
C416 C 0.33788 0.74624 0.4775 0.0
C417 C 0.18648 0.72645 0.49017 0.0
C418 C 0.20267 0.76969 0.48427 0.0
C419 C 0.25183 0.77513 0.48026 0.0
C420 C 0.16849 0.80961 0.48027 0.0
C421 C 0.13493 0.71914 0.49581 0.0
C422 C 0.1223 0.80999 0.45785 0.0
C423 C 0.09525 0.85026 0.45031 0.0
C424 C 0.11429 0.89088 0.46488 0.0
C425 C 0.15879 0.88988 0.48845 0.0
C426 C 0.18577 0.84953 0.49603 0.0
H427 H 0.1353 0.68824 0.50836 0.0
H428 H 0.12454 0.74857 0.50737 0.0
H429 H 0.10421 0.71477 0.47528 0.0
H430 H 0.1088 0.77976 0.4451 0.0
H431 H 0.06065 0.85 0.43227 0.0
H432 H 0.95907 0.04969 0.14195 0.0
H433 H 0.95909 0.05334 0.19163 0.0
H434 H 0.11236 -0.00499 0.21698 0.0
H435 H 0.11257 0.99095 0.16737 0.0
H436 H 0.96835 0.98113 0.22813 0.0
H437 H 0.12745 0.10536 0.27017 0.0
H438 H 0.09569 0.09749 0.23266 0.0
H439 H 0.1455 0.05902 0.25101 0.0
C440 C -0.00722 0.0376 0.15811 0.0
C441 C 0.03584 0.01998 0.15075 0.0
C442 C -0.00719 0.03996 0.18646 0.0
C443 C 0.036 0.02508 0.20796 0.0
C444 C 0.07913 0.00768 0.20074 0.0
H445 H 0.12666 0.96345 0.38271 0.0
H446 H 0.116 0.97716 0.33264 0.0
C447 C 0.07917 0.00532 0.17239 0.0
C448 C 0.03497 0.02537 0.23783 0.0
H449 H 0.10206 0.06191 0.30452 0.0
C450 C -0.00294 -0.0007 0.24483 0.0
C451 C 0.07236 0.04931 0.25945 0.0
C452 C 0.11225 0.07975 0.25296 0.0
C453 C -0.00282 -0.00533 0.27315 0.0
C454 C 0.03581 0.01725 0.29486 0.0
C455 C 0.07258 0.04459 0.28776 0.0
C456 C 0.04144 0.00996 0.32521 0.0
C457 C 0.95755 0.96407 0.27978 0.0
C458 C 0.00314 0.02428 0.33762 0.0
C459 C 0.00894 0.01617 0.36629 0.0
C460 C 0.0531 -0.00643 0.38285 0.0
C461 C 0.09168 0.98005 0.37035 0.0
C462 C 0.08589 0.98821 0.34183 0.0
H463 H 0.93603 0.94326 0.26104 0.0
H464 H 0.9766 0.94117 0.29735 0.0
H465 H 0.92899 0.98492 0.28673 0.0
H466 H 0.96886 0.04168 0.32515 0.0
H467 H 0.97866 0.027 0.37539 0.0
H468 H 0.07598 0.98258 0.85164 0.0
H469 H 0.07652 0.98984 0.80237 0.0
H470 H 0.92972 0.05945 0.78295 0.0
H471 H 0.92966 0.05365 0.83245 0.0
H472 H 0.00422 0.956 0.75465 0.0
H473 H 0.01828 0.14251 0.74991 0.0
H474 H 0.03206 0.11287 0.78301 0.0
H475 H 0.96598 0.12394 0.76285 0.0
C476 C 0.04413 -3e-05 0.83697 0.0
C477 C 0.0029 0.0178 0.84596 0.0
C478 C 0.04445 0.00395 0.80884 0.0
C479 C 0.00372 0.02597 0.78922 0.0
C480 C 0.96213 0.04327 0.79797 0.0
H481 H 0.87861 0.01151 0.61171 0.0
H482 H 0.89974 0.01807 0.66333 0.0
C483 C 0.96177 0.03933 0.82613 0.0
C484 C 0.00323 0.02854 0.75921 0.0
H485 H -0.00654 0.10205 0.70524 0.0
C486 C 0.00267 0.98793 0.74396 0.0
C487 C 0.00172 0.07029 0.74543 0.0
C488 C 0.00506 0.11491 0.7612 0.0
C489 C -0.00185 0.98796 0.71491 0.0
C490 C -0.00608 0.02958 0.70087 0.0
C491 C -0.00337 0.07026 0.71624 0.0
C492 C 0.98151 0.03077 0.66977 0.0
C493 C -0.00385 0.94353 0.69907 0.0
C494 C 0.02056 0.03692 0.65651 0.0
C495 C 0.00867 0.03294 0.62692 0.0
C496 C 0.95766 0.0226 0.61049 0.0
C497 C 0.91841 0.01868 0.62393 0.0
C498 C 0.93028 0.02265 0.65332 0.0
H499 H 0.00776 0.91469 0.71369 0.0
H500 H 0.95594 0.93738 0.68529 0.0
H501 H 0.02203 0.94467 0.68516 0.0
H502 H 0.06035 0.04319 0.66907 0.0
H503 H 0.03958 0.03602 0.61705 0.0
H504 H 0.45399 0.54332 0.64842 0.0
H505 H 0.45629 0.54331 0.69848 0.0
H506 H 0.6019 0.47179 0.71911 0.0
H507 H 0.59928 0.47058 0.66901 0.0
H508 H 0.52602 0.43435 0.74198 0.0
H509 H 0.55131 0.61924 0.7645 0.0
H510 H 0.49809 0.60281 0.73431 0.0
H511 H 0.56364 0.59262 0.73381 0.0
C512 C 0.48643 0.52744 0.66359 0.0
C513 C 0.52649 0.50695 0.65473 0.0
C514 C 0.48794 0.52793 0.69222 0.0
C515 C 0.52959 0.50809 0.71251 0.0
C516 C 0.56959 0.48759 0.70376 0.0
H517 H 0.63569 0.45799 0.89015 0.0
H518 H 0.62111 0.46556 0.83919 0.0
C519 C 0.56819 0.48716 0.67517 0.0
C520 C 0.53074 0.50702 0.74274 0.0
H521 H 0.54173 0.57371 0.80162 0.0
C522 C 0.52934 0.46482 0.75501 0.0
C523 C 0.53456 0.54688 0.75957 0.0
C524 C 0.53739 0.59302 0.74754 0.0
C525 C 0.53228 0.46131 0.78379 0.0
C526 C 0.53767 0.50104 0.80083 0.0
C527 C 0.53762 0.54337 0.78844 0.0
C528 C 0.54687 0.49883 0.8319 0.0
C529 C 0.52969 0.41507 0.79576 0.0
C530 C 0.51071 0.51651 0.84482 0.0
C531 C 0.51886 0.51212 0.87409 0.0
C532 C 0.56338 0.49007 0.89076 0.0
C533 C 0.60036 0.47408 0.87778 0.0
C534 C 0.59218 0.47845 0.84868 0.0
H535 H 0.51147 0.38982 0.7788 0.0
H536 H 0.56969 0.40351 0.80663 0.0
H537 H 0.50739 0.41596 0.81152 0.0
H538 H 0.47567 0.5327 0.83218 0.0
H539 H 0.48975 0.52478 0.88351 0.0
H540 H 0.42108 0.55946 0.33729 0.0
H541 H 0.41808 0.56636 0.28736 0.0
H542 H 0.56325 0.49489 0.30339 0.0
H543 H 0.5663 0.48725 0.3532 0.0
H544 H 0.55534 0.57534 0.26956 0.0
H545 H 0.38767 0.4574 0.23037 0.0
H546 H 0.37848 0.50345 0.25273 0.0
H547 H 0.42575 0.46071 0.26718 0.0
C548 C 0.45214 0.54487 0.33015 0.0
C549 C 0.49377 0.52256 0.3492 0.0
C550 C 0.4505 0.54906 0.30167 0.0
C551 C 0.49029 0.53088 0.29174 0.0
C552 C 0.53229 0.50929 0.31073 0.0
H553 H 0.48296 0.4548 0.12219 0.0
H554 H 0.49821 0.46117 0.17351 0.0
C555 C 0.53397 0.50504 0.33918 0.0
C556 C 0.48739 0.53288 0.26134 0.0
H557 H 0.41865 0.49257 0.19589 0.0
C558 C 0.52541 0.55743 0.25337 0.0
C559 C 0.44855 0.50908 0.24044 0.0
C560 C 0.40795 0.48083 0.24799 0.0
C561 C 0.52554 0.55874 0.22488 0.0
C562 C 0.48651 0.53509 0.204 0.0
C563 C 0.44843 0.51077 0.21201 0.0
C564 C 0.4851 0.53332 0.17375 0.0
C565 C 0.56798 0.58438 0.21736 0.0
C566 C 0.47412 0.57207 0.15703 0.0
C567 C 0.46544 0.56851 0.12761 0.0
C568 C 0.46713 0.52606 0.11462 0.0
C569 C 0.48087 0.48782 0.13166 0.0
C570 C 0.48965 0.49142 0.16094 0.0
H571 H 0.60051 0.5935 0.23645 0.0
H572 H 0.58354 0.56412 0.20247 0.0
H573 H 0.55173 0.61604 0.2066 0.0
H574 H 0.46977 0.60462 0.1665 0.0
H575 H 0.45451 0.59839 0.11488 0.0
loop_
_geom_bond_atom_site_label_1
_geom_bond_atom_site_label_2
_geom_bond_distance
_geom_bond_site_symmetry_2
_ccdc_geom_bond_type
C0 O16 1.251 . S
C0 O18 1.254 1_554 S
N1 C2 1.333 . S
N1 C6 1.307 . S
N1 Zn7 2.020 . S
C2 N1 1.333 . S
C2 C3 1.379 . S
C2 H20 0.952 1_445 S
C3 C2 1.379 . S
C3 C4 1.390 . S
C3 H30 0.949 1_445 S
C4 C3 1.390 . S
C4 C5 1.357 . S
C5 C4 1.357 . S
C5 C6 1.370 . S
C5 H31 0.950 . S
C6 N1 1.307 . S
C6 C5 1.370 . S
C6 H24 0.948 . S
Zn7 N1 2.020 . S
Zn7 O16 2.039 1_445 S
Zn7 O22 2.034 1_455 S
Zn7 O26 2.025 . S
Zn7 O28 2.024 1_545 S
C8 O27 1.246 1_554 S
C8 O28 1.249 . S
N9 C10 1.307 1_455 S
N9 C11 1.333 . S
N9 Zn15 2.020 . S
C10 N9 1.307 1_655 S
C10 C14 1.370 . S
C10 H21 0.948 1_545 S
C11 N9 1.333 . S
C11 C12 1.379 . S
C11 H19 0.952 . S
C12 C11 1.379 . S
C12 C13 1.390 1_455 S
C12 H32 0.949 . S
C13 C12 1.390 1_655 S
C13 C14 1.357 . S
C14 C10 1.370 . S
C14 C13 1.357 . S
C14 H33 0.950 1_545 S
Zn15 N9 2.020 . S
Zn15 O18 2.025 1_445 S
Zn15 O23 2.024 1_455 S
Zn15 O25 2.039 . S
Zn15 O27 2.034 1_545 S
O16 C0 1.251 . S
O16 Zn7 2.039 1_665 S
C17 O22 1.276 . S
C17 O23 1.214 1_554 S
O18 C0 1.254 1_556 S
O18 Zn15 2.025 1_665 S
H19 C11 0.952 . S
H20 C2 0.952 1_665 S
H21 C10 0.948 1_565 S
O22 Zn7 2.034 1_655 S
O22 C17 1.276 . S
O23 Zn15 2.024 1_655 S
O23 C17 1.214 1_556 S
H24 C6 0.948 . S
O25 Zn15 2.039 . S
O25 C29 1.251 1_556 S
O26 Zn7 2.025 . S
O26 C29 1.254 . S
O27 C8 1.246 1_556 S
O27 Zn15 2.034 1_565 S
O28 Zn7 2.024 1_565 S
O28 C8 1.249 . S
C29 O25 1.251 1_554 S
C29 O26 1.254 . S
H30 C3 0.949 1_665 S
H31 C5 0.950 . S
H32 C12 0.949 . S
H33 C14 0.950 1_565 S
C34 O50 1.251 . S
C34 O52 1.254 . S
N35 C36 1.333 . S
N35 C40 1.307 . S
N35 Zn41 2.020 . S
C36 N35 1.333 . S
C36 C37 1.379 . S
C36 H54 0.952 . S
C37 C36 1.379 . S
C37 C38 1.390 . S
C37 H64 0.949 . S
C38 C37 1.390 . S
C38 C39 1.357 . S
C39 C38 1.357 . S
C39 C40 1.370 . S
C39 H65 0.950 . S
C40 N35 1.307 . S
C40 C39 1.370 . S
C40 H58 0.948 . S
Zn41 N35 2.020 . S
Zn41 O50 2.039 . S
Zn41 O56 2.034 . S
Zn41 O60 2.025 . S
Zn41 O62 2.024 . S
C42 O61 1.246 . S
C42 O62 1.249 . S
N43 C44 1.307 . S
N43 C45 1.333 . S
N43 Zn49 2.020 . S
C44 N43 1.307 . S
C44 C48 1.370 . S
C44 H55 0.948 . S
C45 N43 1.333 . S
C45 C46 1.379 . S
C45 H53 0.952 . S
C46 C45 1.379 . S
C46 C47 1.390 . S
C46 H66 0.949 . S
C47 C46 1.390 . S
C47 C48 1.357 . S
C48 C44 1.370 . S
C48 C47 1.357 . S
C48 H67 0.950 . S
Zn49 N43 2.020 . S
Zn49 O52 2.025 . S
Zn49 O57 2.024 . S
Zn49 O59 2.039 . S
Zn49 O61 2.034 . S
O50 C34 1.251 . S
O50 Zn41 2.039 . S
C51 O56 1.246 . S
C51 O57 1.249 . S
O52 C34 1.254 . S
O52 Zn49 2.025 . S
H53 C45 0.952 . S
H54 C36 0.952 . S
H55 C44 0.948 . S
O56 Zn41 2.034 . S
O56 C51 1.246 . S
O57 Zn49 2.024 . S
O57 C51 1.249 . S
H58 C40 0.948 . S
O59 Zn49 2.039 . S
O59 C63 1.251 . S
O60 Zn41 2.025 . S
O60 C63 1.254 . S
O61 C42 1.246 . S
O61 Zn49 2.034 . S
O62 Zn41 2.024 . S
O62 C42 1.249 . S
C63 O59 1.251 . S
C63 O60 1.254 . S
H64 C37 0.949 . S
H65 C39 0.950 . S
H66 C46 0.949 . S
H67 C48 0.950 . S
H68 C69 0.949 . S
C69 H68 0.949 . S
C69 C70 1.395 . S
C69 C71 1.391 . S
C70 C69 1.395 . S
C70 C73 1.390 1_545 S
C71 C69 1.391 . S
C71 C75 1.387 . S
C71 C76 1.491 . S
H72 C73 0.950 . S
C73 C70 1.390 1_565 S
C73 H72 0.950 . S
C73 C74 1.378 . S
C74 C73 1.378 . S
C74 C75 1.409 1_565 S
C75 C71 1.387 . S
C75 C74 1.409 1_545 S
C75 H77 0.951 1_545 S
C76 C71 1.491 . S
C76 C78 1.382 1_455 S
C76 C80 1.404 . S
H77 C75 0.951 1_565 S
C78 C76 1.382 1_655 S
C78 C79 1.390 . S
C78 H83 0.949 . S
C79 C78 1.390 . S
C79 C84 1.399 1_655 S
C80 C76 1.404 . S
C80 H81 0.950 . S
C80 C82 1.375 . S
H81 C80 0.950 . S
C82 C80 1.375 . S
C82 C84 1.382 . S
C82 H86 0.950 . S
H83 C78 0.949 . S
C84 C79 1.399 1_455 S
C84 C82 1.382 . S
C84 H85 0.952 . S
H85 C84 0.952 . S
H86 C82 0.950 . S
H87 C88 0.954 . S
C88 H87 0.954 . S
C88 C89 1.389 1_455 S
C88 C90 1.391 1_455 S
C89 C88 1.389 1_655 S
C89 C92 1.390 1_545 S
C90 C88 1.391 1_655 S
C90 C94 1.387 . S
C90 C95 1.491 1_655 S
H91 C92 0.950 . S
C92 C89 1.390 1_565 S
C92 H91 0.950 . S
C92 C93 1.378 . S
C93 C92 1.378 . S
C93 C94 1.409 1_565 S
C94 C90 1.387 . S
C94 C93 1.409 1_545 S
C94 H96 0.949 1_545 S
C95 C90 1.491 1_455 S
C95 C97 1.382 . S
C95 C99 1.404 1_455 S
H96 C94 0.949 1_565 S
C97 C95 1.382 . S
C97 C98 1.390 . S
C97 H102 0.949 . S
C98 C97 1.390 . S
C98 C103 1.399 . S
C99 C95 1.404 1_655 S
C99 H100 0.950 . S
C99 C101 1.375 . S
H100 C99 0.950 . S
C101 C99 1.375 . S
C101 C103 1.382 1_655 S
C101 H105 0.950 . S
H102 C97 0.949 . S
C103 C98 1.399 . S
C103 C101 1.382 1_455 S
C103 H104 0.952 . S
H104 C103 0.952 . S
H105 C101 0.950 . S
H106 C107 0.949 . S
C107 H106 0.949 . S
C107 C108 1.395 . S
C107 C109 1.391 . S
C108 C107 1.395 . S
C108 C111 1.390 . S
C109 C107 1.391 . S
C109 C113 1.387 . S
C109 C114 1.491 1_556 S
H110 C111 0.950 . S
C111 C108 1.390 . S
C111 H110 0.950 . S
C111 C112 1.378 . S
C112 C111 1.378 . S
C112 C113 1.409 . S
C113 C109 1.387 . S
C113 C112 1.409 . S
C113 H115 0.951 1_556 S
C114 C109 1.491 1_554 S
C114 C116 1.382 1_554 S
C114 C118 1.404 . S
H115 C113 0.951 1_554 S
C116 C114 1.382 1_556 S
C116 C117 1.390 1_556 S
C116 H121 0.949 . S
C117 C116 1.390 1_554 S
C117 C122 1.399 . S
C118 C114 1.404 . S
C118 H119 0.950 . S
C118 C120 1.375 . S
H119 C118 0.950 . S
C120 C118 1.375 . S
C120 C122 1.382 . S
C120 H124 0.950 . S
H121 C116 0.949 . S
C122 C117 1.399 . S
C122 C120 1.382 . S
C122 H123 0.952 . S
H123 C122 0.952 . S
H124 C120 0.950 . S
H125 C126 0.949 . S
C126 H125 0.949 . S
C126 C127 1.395 . S
C126 C128 1.391 . S
C127 C126 1.395 . S
C127 C130 1.390 . S
C128 C126 1.391 . S
C128 C132 1.387 . S
C128 C133 1.491 . S
H129 C130 0.950 . S
C130 C127 1.390 . S
C130 H129 0.950 . S
C130 C131 1.378 . S
C131 C130 1.378 . S
C131 C132 1.409 . S
C132 C128 1.387 . S
C132 C131 1.409 . S
C132 H134 0.951 1_554 S
C133 C128 1.491 . S
C133 C135 1.382 . S
C133 C137 1.404 1_554 S
H134 C132 0.951 1_556 S
C135 C133 1.382 . S
C135 C136 1.390 . S
C135 H140 0.949 . S
C136 C135 1.390 . S
C136 C141 1.399 1_554 S
C137 C133 1.404 1_556 S
C137 H138 0.950 . S
C137 C139 1.375 . S
H138 C137 0.950 . S
C139 C137 1.375 . S
C139 C141 1.382 . S
C139 H143 0.950 . S
H140 C135 0.949 . S
C141 C136 1.399 1_556 S
C141 C139 1.382 . S
C141 H142 0.952 . S
H142 C141 0.952 . S
H143 C139 0.950 . S
H144 C152 0.929 . S
H145 C154 0.930 . S
H146 C156 0.930 . S
H147 C159 0.929 . S
H148 C162 0.930 . S
H149 C164 0.960 . S
H150 C164 0.960 . S
H151 C164 0.960 . S
C152 H144 0.929 . S
C152 C153 1.377 1_556 S
C152 C154 1.384 . S
C153 C152 1.377 1_554 S
C153 C159 1.390 . S
C154 H145 0.930 . S
C154 C152 1.384 . S
C154 C155 1.372 1_556 S
C155 C154 1.372 1_554 S
C155 C156 1.400 . S
C155 C160 1.490 . S
C156 H146 0.930 . S
C156 C155 1.400 . S
C156 C159 1.386 . S
H157 C173 0.930 . S
H158 C174 0.931 . S
C159 H147 0.929 . S
C159 C153 1.390 . S
C159 C156 1.386 . S
C160 C155 1.490 . S
C160 C162 1.395 . S
C160 C163 1.403 . S
H161 C167 0.930 . S
C162 H148 0.930 . S
C162 C160 1.395 . S
C162 C165 1.403 . S
C163 C160 1.403 . S
C163 C164 1.524 . S
C163 C167 1.400 . S
C164 H149 0.960 . S
C164 H150 0.960 . S
C164 H151 0.960 . S
C164 C163 1.524 . S
C165 C162 1.403 . S
C165 C166 1.392 . S
C165 C169 1.495 . S
C166 C165 1.392 . S
C166 C167 1.385 . S
C166 C168 1.478 . S
C167 H161 0.930 . S
C167 C163 1.400 . S
C167 C166 1.385 . S
C168 C166 1.478 . S
C168 C170 1.381 1_554 S
C168 C174 1.383 . S
C169 C165 1.495 . S
C169 H175 0.959 . S
C169 H176 0.961 . S
C169 H177 0.960 1_554 S
C170 C168 1.381 1_556 S
C170 C171 1.394 1_556 S
C170 H178 0.930 . S
C171 C170 1.394 1_554 S
C171 C172 1.382 . S
C171 H179 0.930 1_554 S
C172 C171 1.382 . S
C172 C173 1.377 . S
C173 H157 0.930 . S
C173 C172 1.377 . S
C173 C174 1.379 . S
C174 H158 0.931 . S
C174 C168 1.383 . S
C174 C173 1.379 . S
H175 C169 0.959 . S
H176 C169 0.961 . S
H177 C169 0.960 1_556 S
H178 C170 0.930 . S
H179 C171 0.930 1_556 S
H180 C188 0.929 . S
H181 C190 0.930 . S
H182 C192 0.930 . S
H183 C195 0.929 . S
H184 C198 0.930 . S
H185 C200 0.960 . S
H186 C200 0.960 . S
H187 C200 0.960 . S
C188 H180 0.929 . S
C188 C189 1.377 . S
C188 C190 1.384 . S
C189 C188 1.377 . S
C189 C195 1.390 . S
C190 H181 0.930 . S
C190 C188 1.384 . S
C190 C191 1.372 . S
C191 C190 1.372 . S
C191 C192 1.400 . S
C191 C196 1.490 . S
C192 H182 0.930 . S
C192 C191 1.400 . S
C192 C195 1.386 . S
H193 C209 0.930 . S
H194 C210 0.931 . S
C195 H183 0.929 . S
C195 C189 1.390 . S
C195 C192 1.386 . S
C196 C191 1.490 . S
C196 C198 1.395 . S
C196 C199 1.403 1_554 S
H197 C203 0.930 . S
C198 H184 0.930 . S
C198 C196 1.395 . S
C198 C201 1.403 . S
C199 C196 1.403 1_556 S
C199 C200 1.524 . S
C199 C203 1.400 . S
C200 H185 0.960 . S
C200 H186 0.960 . S
C200 H187 0.960 . S
C200 C199 1.524 . S
C201 C198 1.403 . S
C201 C202 1.392 . S
C201 C205 1.495 . S
C202 C201 1.392 . S
C202 C203 1.385 1_554 S
C202 C204 1.478 . S
C203 H197 0.930 . S
C203 C199 1.400 . S
C203 C202 1.385 1_556 S
C204 C202 1.478 . S
C204 C206 1.381 . S
C204 C210 1.383 . S
C205 C201 1.495 . S
C205 H211 0.959 . S
C205 H212 0.961 . S
C205 H213 0.960 . S
C206 C204 1.381 . S
C206 C207 1.394 . S
C206 H214 0.926 1_554 S
C207 C206 1.394 . S
C207 C208 1.383 . S
C207 H215 0.929 1_554 S
C208 C207 1.383 . S
C208 C209 1.377 . S
C209 H193 0.930 . S
C209 C208 1.377 . S
C209 C210 1.379 . S
C210 H194 0.931 . S
C210 C204 1.383 . S
C210 C209 1.379 . S
H211 C205 0.959 . S
H212 C205 0.961 . S
H213 C205 0.960 . S
H214 C206 0.926 1_556 S
H215 C207 0.929 1_556 S
H216 C224 0.929 . S
H217 C226 0.930 . S
H218 C228 0.930 . S
H219 C231 0.929 . S
H220 C234 0.930 . S
H221 C236 0.960 . S
H222 C236 0.960 . S
H223 C236 0.960 . S
C224 H216 0.929 . S
C224 C225 1.377 . S
C224 C226 1.384 . S
C225 C224 1.377 . S
C225 C231 1.390 1_554 S
C226 H217 0.930 . S
C226 C224 1.384 . S
C226 C227 1.372 . S
C227 C226 1.372 . S
C227 C228 1.400 1_554 S
C227 C232 1.490 . S
C228 H218 0.930 . S
C228 C227 1.400 1_556 S
C228 C231 1.386 . S
H229 C245 0.930 . S
H230 C246 0.931 . S
C231 H219 0.929 . S
C231 C225 1.390 1_556 S
C231 C228 1.386 . S
C232 C227 1.490 . S
C232 C234 1.395 . S
C232 C235 1.403 1_554 S
H233 C239 0.930 . S
C234 H220 0.930 . S
C234 C232 1.395 . S
C234 C237 1.403 . S
C235 C232 1.403 1_556 S
C235 C236 1.524 . S
C235 C239 1.400 . S
C236 H221 0.960 . S
C236 H222 0.960 . S
C236 H223 0.960 . S
C236 C235 1.524 . S
C237 C234 1.403 . S
C237 C238 1.392 . S
C237 C241 1.495 . S
C238 C237 1.392 . S
C238 C239 1.385 1_554 S
C238 C240 1.478 . S
C239 H233 0.930 . S
C239 C235 1.400 . S
C239 C238 1.385 1_556 S
C240 C238 1.478 . S
C240 C242 1.381 . S
C240 C246 1.383 1_554 S
C241 C237 1.495 . S
C241 H247 0.959 . S
C241 H248 0.961 . S
C241 H249 0.960 . S
C242 C240 1.381 . S
C242 C243 1.394 . S
C242 H250 0.930 . S
C243 C242 1.394 . S
C243 C244 1.383 . S
C243 H251 0.929 . S
C244 C243 1.383 . S
C244 C245 1.377 1_554 S
C245 H229 0.930 . S
C245 C244 1.377 1_556 S
C245 C246 1.379 . S
C246 H230 0.931 . S
C246 C240 1.383 1_556 S
C246 C245 1.379 . S
H247 C241 0.959 . S
H248 C241 0.961 . S
H249 C241 0.960 . S
H250 C242 0.930 . S
H251 C243 0.929 . S
H252 C260 0.929 . S
H253 C262 0.930 . S
H254 C264 0.930 . S
H255 C267 0.929 . S
H256 C270 0.930 . S
H257 C272 0.960 . S
H258 C272 0.960 . S
H259 C272 0.960 1_554 S
C260 H252 0.929 . S
C260 C261 1.399 . S
C260 C262 1.384 . S
C261 C260 1.399 . S
C261 C267 1.366 1_556 S
C262 H253 0.930 . S
C262 C260 1.384 . S
C262 C263 1.372 . S
C263 C262 1.372 . S
C263 C264 1.400 1_556 S
C263 C268 1.490 . S
C264 H254 0.930 . S
C264 C263 1.400 1_554 S
C264 C267 1.386 . S
H265 C281 0.930 . S
H266 C282 0.931 . S
C267 H255 0.929 . S
C267 C261 1.366 1_554 S
C267 C264 1.386 . S
C268 C263 1.490 . S
C268 C270 1.395 . S
C268 C271 1.403 . S
H269 C275 0.930 . S
C270 H256 0.930 . S
C270 C268 1.395 . S
C270 C273 1.403 . S
C271 C268 1.403 . S
C271 C272 1.524 . S
C271 C275 1.400 . S
C272 H257 0.960 . S
C272 H258 0.960 . S
C272 H259 0.960 1_556 S
C272 C271 1.524 . S
C273 C270 1.403 . S
C273 C274 1.392 . S
C273 C277 1.495 . S
C274 C273 1.392 . S
C274 C275 1.385 . S
C274 C276 1.478 . S
C275 H269 0.930 . S
C275 C271 1.400 . S
C275 C274 1.385 . S
C276 C274 1.478 . S
C276 C278 1.381 . S
C276 C282 1.383 1_556 S
C277 C273 1.495 . S
C277 H283 0.959 . S
C277 H284 0.961 1_556 S
C277 H285 0.960 . S
C278 C276 1.381 . S
C278 C279 1.394 . S
C278 H286 0.930 . S
C279 C278 1.394 . S
C279 C280 1.383 . S
C279 H287 0.929 . S
C280 C279 1.383 . S
C280 C281 1.377 1_556 S
C281 H265 0.930 . S
C281 C280 1.377 1_554 S
C281 C282 1.379 . S
C282 H266 0.931 . S
C282 C276 1.383 1_554 S
C282 C281 1.379 . S
H283 C277 0.959 . S
H284 C277 0.961 1_554 S
H285 C277 0.960 . S
H286 C278 0.930 . S
H287 C279 0.929 . S
H288 C296 0.929 . S
H289 C298 0.930 . S
H290 C300 0.930 . S
H291 C303 0.929 . S
H292 C306 0.930 . S
H293 C308 0.960 . S
H294 C308 0.960 . S
H295 C308 0.960 . S
C296 H288 0.929 . S
C296 C297 1.377 . S
C296 C298 1.384 . S
C297 C296 1.377 . S
C297 C303 1.390 . S
C298 H289 0.930 . S
C298 C296 1.384 . S
C298 C299 1.372 . S
C299 C298 1.372 . S
C299 C300 1.400 . S
C299 C304 1.490 . S
C300 H290 0.930 . S
C300 C299 1.400 . S
C300 C303 1.386 . S
H301 C317 0.930 . S
H302 C318 0.931 . S
C303 H291 0.929 . S
C303 C297 1.390 . S
C303 C300 1.386 . S
C304 C299 1.490 . S
C304 C306 1.395 . S
C304 C307 1.403 . S
H305 C311 0.930 . S
C306 H292 0.930 . S
C306 C304 1.395 . S
C306 C309 1.403 . S
C307 C304 1.403 . S
C307 C308 1.524 . S
C307 C311 1.400 . S
C308 H293 0.960 . S
C308 H294 0.960 . S
C308 H295 0.960 . S
C308 C307 1.524 . S
C309 C306 1.403 . S
C309 C310 1.392 . S
C309 C313 1.495 . S
C310 C309 1.392 . S
C310 C311 1.385 . S
C310 C312 1.478 . S
C311 H305 0.930 . S
C311 C307 1.400 . S
C311 C310 1.385 . S
C312 C310 1.478 . S
C312 C314 1.381 . S
C312 C318 1.383 . S
C313 C309 1.495 . S
C313 H319 0.959 . S
C313 H320 0.961 . S
C313 H321 0.960 . S
C314 C312 1.381 . S
C314 C315 1.394 . S
C314 H322 0.930 . S
C315 C314 1.394 . S
C315 C316 1.383 . S
C315 H323 0.929 . S
C316 C315 1.383 . S
C316 C317 1.377 . S
C317 H301 0.930 . S
C317 C316 1.377 . S
C317 C318 1.379 . S
C318 H302 0.931 . S
C318 C312 1.383 . S
C318 C317 1.379 . S
H319 C313 0.959 . S
H320 C313 0.961 . S
H321 C313 0.960 . S
H322 C314 0.930 . S
H323 C315 0.929 . S
H324 C332 0.929 . S
H325 C334 0.930 . S
H326 C336 0.930 . S
H327 C339 0.929 . S
H328 C342 0.930 . S
H329 C344 0.960 . S
H330 C344 0.960 . S
H331 C344 0.960 . S
C332 H324 0.929 . S
C332 C333 1.377 . S
C332 C334 1.384 . S
C333 C332 1.377 . S
C333 C339 1.390 . S
C334 H325 0.930 . S
C334 C332 1.384 . S
C334 C335 1.372 . S
C335 C334 1.372 . S
C335 C336 1.400 . S
C335 C340 1.490 . S
C336 H326 0.930 . S
C336 C335 1.400 . S
C336 C339 1.386 . S
H337 C353 0.930 . S
H338 C354 0.931 . S
C339 H327 0.929 . S
C339 C333 1.390 . S
C339 C336 1.386 . S
C340 C335 1.490 . S
C340 C342 1.395 . S
C340 C343 1.403 . S
H341 C347 0.930 . S
C342 H328 0.930 . S
C342 C340 1.395 . S
C342 C345 1.403 . S
C343 C340 1.403 . S
C343 C344 1.524 . S
C343 C347 1.400 . S
C344 H329 0.960 . S
C344 H330 0.960 . S
C344 H331 0.960 . S
C344 C343 1.524 . S
C345 C342 1.403 . S
C345 C346 1.392 . S
C345 C349 1.495 . S
C346 C345 1.392 . S
C346 C347 1.385 . S
C346 C348 1.478 . S
C347 H341 0.930 . S
C347 C343 1.400 . S
C347 C346 1.385 . S
C348 C346 1.478 . S
C348 C350 1.381 . S
C348 C354 1.383 . S
C349 C345 1.495 . S
C349 H355 0.959 . S
C349 H356 0.961 . S
C349 H357 0.960 . S
C350 C348 1.381 . S
C350 C351 1.394 . S
C350 H358 0.930 . S
C351 C350 1.394 . S
C351 C352 1.383 . S
C351 H359 0.929 . S
C352 C351 1.383 . S
C352 C353 1.377 . S
C353 H337 0.930 . S
C353 C352 1.377 . S
C353 C354 1.379 . S
C354 H338 0.931 . S
C354 C348 1.383 . S
C354 C353 1.379 . S
H355 C349 0.959 . S
H356 C349 0.961 . S
H357 C349 0.960 . S
H358 C350 0.930 . S
H359 C351 0.929 . S
H360 C368 0.929 . S
H361 C370 0.930 . S
H362 C372 0.930 . S
H363 C375 0.929 . S
H364 C378 0.930 . S
H365 C380 0.960 . S
H366 C380 0.960 . S
H367 C380 0.960 . S
C368 H360 0.929 . S
C368 C369 1.377 . S
C368 C370 1.384 . S
C369 C368 1.377 . S
C369 C375 1.390 . S
C370 H361 0.930 . S
C370 C368 1.384 . S
C370 C371 1.372 . S
C371 C370 1.372 . S
C371 C372 1.400 . S
C371 C376 1.490 . S
C372 H362 0.930 . S
C372 C371 1.400 . S
C372 C375 1.386 . S
H373 C389 0.930 . S
H374 C390 0.931 . S
C375 H363 0.929 . S
C375 C369 1.390 . S
C375 C372 1.386 . S
C376 C371 1.490 . S
C376 C378 1.395 . S
C376 C379 1.403 . S
H377 C383 0.930 . S
C378 H364 0.930 . S
C378 C376 1.395 . S
C378 C381 1.403 . S
C379 C376 1.403 . S
C379 C380 1.524 . S
C379 C383 1.400 . S
C380 H365 0.960 . S
C380 H366 0.960 . S
C380 H367 0.960 . S
C380 C379 1.524 . S
C381 C378 1.403 . S
C381 C382 1.392 . S
C381 C385 1.495 . S
C382 C381 1.392 . S
C382 C383 1.385 . S
C382 C384 1.478 . S
C383 H377 0.930 . S
C383 C379 1.400 . S
C383 C382 1.385 . S
C384 C382 1.478 . S
C384 C386 1.381 . S
C384 C390 1.383 . S
C385 C381 1.495 . S
C385 H391 0.959 . S
C385 H392 0.961 . S
C385 H393 0.960 . S
C386 C384 1.381 . S
C386 C387 1.394 . S
C386 H394 0.930 . S
C387 C386 1.394 . S
C387 C388 1.383 . S
C387 H395 0.929 . S
C388 C387 1.383 . S
C388 C389 1.377 . S
C389 H373 0.930 . S
C389 C388 1.377 . S
C389 C390 1.379 . S
C390 H374 0.931 . S
C390 C384 1.383 . S
C390 C389 1.379 . S
H391 C385 0.959 . S
H392 C385 0.961 . S
H393 C385 0.960 . S
H394 C386 0.930 . S
H395 C387 0.929 . S
H396 C404 0.929 . S
H397 C406 0.930 . S
H398 C408 0.930 . S
H399 C411 0.929 . S
H400 C414 0.930 . S
H401 C416 0.960 . S
H402 C416 0.960 . S
H403 C416 0.960 . S
C404 H396 0.929 . S
C404 C405 1.377 . S
C404 C406 1.384 . S
C405 C404 1.377 . S
C405 C411 1.390 . S
C406 H397 0.930 . S
C406 C404 1.384 . S
C406 C407 1.372 . S
C407 C406 1.372 . S
C407 C408 1.400 . S
C407 C412 1.490 . S
C408 H398 0.930 . S
C408 C407 1.400 . S
C408 C411 1.386 . S
H409 C425 0.930 . S
H410 C426 0.931 . S
C411 H399 0.929 . S
C411 C405 1.390 . S
C411 C408 1.386 . S
C412 C407 1.490 . S
C412 C414 1.395 . S
C412 C415 1.403 . S
H413 C419 0.930 . S
C414 H400 0.930 . S
C414 C412 1.395 . S
C414 C417 1.403 . S
C415 C412 1.403 . S
C415 C416 1.524 . S
C415 C419 1.400 . S
C416 H401 0.960 . S
C416 H402 0.960 . S
C416 H403 0.960 . S
C416 C415 1.524 . S
C417 C414 1.403 . S
C417 C418 1.392 . S
C417 C421 1.495 . S
C418 C417 1.392 . S
C418 C419 1.385 . S
C418 C420 1.478 . S
C419 H413 0.930 . S
C419 C415 1.400 . S
C419 C418 1.385 . S
C420 C418 1.478 . S
C420 C422 1.381 . S
C420 C426 1.383 . S
C421 C417 1.495 . S
C421 H427 0.959 . S
C421 H428 0.961 . S
C421 H429 0.960 . S
C422 C420 1.381 . S
C422 C423 1.394 . S
C422 H430 0.930 . S
C423 C422 1.394 . S
C423 C424 1.383 . S
C423 H431 0.929 . S
C424 C423 1.383 . S
C424 C425 1.377 . S
C425 H409 0.930 . S
C425 C424 1.377 . S
C425 C426 1.379 . S
C426 H410 0.931 . S
C426 C420 1.383 . S
C426 C425 1.379 . S
H427 C421 0.959 . S
H428 C421 0.961 . S
H429 C421 0.960 . S
H430 C422 0.930 . S
H431 C423 0.929 . S
H432 C440 0.929 1_655 S
H433 C442 0.930 1_655 S
H434 C444 0.930 1_565 S
H435 C447 0.930 1_565 S
H436 C450 0.930 1_655 S
H437 C452 0.960 . S
H438 C452 0.960 . S
H439 C452 0.960 . S
C440 H432 0.929 1_455 S
C440 C441 1.377 . S
C440 C442 1.384 . S
C441 C440 1.377 . S
C441 C447 1.389 . S
C442 H433 0.930 1_455 S
C442 C440 1.384 . S
C442 C443 1.372 . S
C443 C442 1.372 . S
C443 C444 1.400 . S
C443 C448 1.490 . S
C444 H434 0.930 1_545 S
C444 C443 1.400 . S
C444 C447 1.386 . S
H445 C461 0.930 . S
H446 C462 0.931 . S
C447 H435 0.930 1_545 S
C447 C441 1.389 . S
C447 C444 1.386 . S
C448 C443 1.490 . S
C448 C450 1.395 1_545 S
C448 C451 1.403 . S
H449 C455 0.930 . S
C450 H436 0.930 1_455 S
C450 C448 1.395 1_565 S
C450 C453 1.403 . S
C451 C448 1.403 . S
C451 C452 1.524 . S
C451 C455 1.400 . S
C452 H437 0.960 . S
C452 H438 0.960 . S
C452 H439 0.960 . S
C452 C451 1.524 . S
C453 C450 1.403 . S
C453 C454 1.392 1_565 S
C453 C457 1.495 1_455 S
C454 C453 1.392 1_545 S
C454 C455 1.385 . S
C454 C456 1.478 . S
C455 H449 0.930 . S
C455 C451 1.400 . S
C455 C454 1.385 . S
C456 C454 1.478 . S
C456 C458 1.381 . S
C456 C462 1.383 1_545 S
C457 C453 1.495 1_655 S
C457 H463 0.959 . S
C457 H464 0.961 . S
C457 H465 0.960 . S
C458 C456 1.381 . S
C458 C459 1.394 . S
C458 H466 0.930 1_455 S
C459 C458 1.394 . S
C459 C460 1.383 . S
C459 H467 0.929 1_455 S
C460 C459 1.383 . S
C460 C461 1.377 1_545 S
C461 H445 0.930 . S
C461 C460 1.377 1_565 S
C461 C462 1.379 . S
C462 H446 0.931 . S
C462 C456 1.383 1_565 S
C462 C461 1.379 . S
H463 C457 0.959 . S
H464 C457 0.961 . S
H465 C457 0.960 . S
H466 C458 0.930 1_655 S
H467 C459 0.929 1_655 S
H468 C476 0.929 1_565 S
H469 C478 0.930 1_565 S
H470 C480 0.930 . S
H471 C483 0.929 . S
H472 C486 0.930 . S
H473 C488 0.960 . S
H474 C488 0.960 1_455 S
H475 C488 0.960 . S
C476 H468 0.929 1_545 S
C476 C477 1.377 1_455 S
C476 C478 1.384 . S
C477 C476 1.377 1_655 S
C477 C483 1.390 . S
C478 H469 0.930 1_545 S
C478 C476 1.384 . S
C478 C479 1.372 1_455 S
C479 C478 1.372 1_655 S
C479 C480 1.400 . S
C479 C484 1.490 . S
C480 H470 0.930 . S
C480 C479 1.400 . S
C480 C483 1.386 . S
H481 C497 0.930 . S
H482 C498 0.931 . S
C483 H471 0.929 . S
C483 C477 1.390 . S
C483 C480 1.386 . S
C484 C479 1.490 . S
C484 C486 1.395 1_645 S
C484 C487 1.403 . S
H485 C491 0.930 . S
C486 H472 0.930 . S
C486 C484 1.395 1_465 S
C486 C489 1.403 . S
C487 C484 1.403 . S
C487 C488 1.524 . S
C487 C491 1.400 . S
C488 H473 0.960 . S
C488 H474 0.960 1_655 S
C488 H475 0.960 . S
C488 C487 1.524 . S
C489 C486 1.403 . S
C489 C490 1.392 1_465 S
C489 C493 1.495 . S
C490 C489 1.392 1_645 S
C490 C491 1.385 . S
C490 C492 1.478 . S
C491 H485 0.930 . S
C491 C487 1.400 . S
C491 C490 1.385 . S
C492 C490 1.478 . S
C492 C494 1.381 1_655 S
C492 C498 1.383 . S
C493 C489 1.495 . S
C493 H499 0.959 . S
C493 H500 0.961 1_455 S
C493 H501 0.960 . S
C494 C492 1.381 1_455 S
C494 C495 1.394 . S
C494 H502 0.930 1_545 S
C495 C494 1.394 . S
C495 C496 1.383 1_455 S
C495 H503 0.929 . S
C496 C495 1.383 1_655 S
C496 C497 1.377 . S
C497 H481 0.930 . S
C497 C496 1.377 . S
C497 C498 1.379 . S
C498 H482 0.931 . S
C498 C492 1.383 . S
C498 C497 1.379 . S
H499 C493 0.959 . S
H500 C493 0.961 1_655 S
H501 C493 0.960 . S
H502 C494 0.930 1_565 S
H503 C495 0.929 . S
H504 C512 0.929 . S
H505 C514 0.930 . S
H506 C516 0.930 . S
H507 C519 0.929 . S
H508 C522 0.930 . S
H509 C524 0.960 . S
H510 C524 0.960 . S
H511 C524 0.960 . S
C512 H504 0.929 . S
C512 C513 1.377 . S
C512 C514 1.384 . S
C513 C512 1.377 . S
C513 C519 1.390 . S
C514 H505 0.930 . S
C514 C512 1.384 . S
C514 C515 1.372 . S
C515 C514 1.372 . S
C515 C516 1.400 . S
C515 C520 1.490 . S
C516 H506 0.930 . S
C516 C515 1.400 . S
C516 C519 1.386 . S
H517 C533 0.930 . S
H518 C534 0.931 . S
C519 H507 0.929 . S
C519 C513 1.390 . S
C519 C516 1.386 . S
C520 C515 1.490 . S
C520 C522 1.395 . S
C520 C523 1.403 . S
H521 C527 0.930 . S
C522 H508 0.930 . S
C522 C520 1.395 . S
C522 C525 1.403 . S
C523 C520 1.403 . S
C523 C524 1.524 . S
C523 C527 1.400 . S
C524 H509 0.960 . S
C524 H510 0.960 . S
C524 H511 0.960 . S
C524 C523 1.524 . S
C525 C522 1.403 . S
C525 C526 1.392 . S
C525 C529 1.495 . S
C526 C525 1.392 . S
C526 C527 1.385 . S
C526 C528 1.478 . S
C527 H521 0.930 . S
C527 C523 1.400 . S
C527 C526 1.385 . S
C528 C526 1.478 . S
C528 C530 1.381 . S
C528 C534 1.383 . S
C529 C525 1.495 . S
C529 H535 0.959 . S
C529 H536 0.961 . S
C529 H537 0.960 . S
C530 C528 1.381 . S
C530 C531 1.394 . S
C530 H538 0.930 . S
C531 C530 1.394 . S
C531 C532 1.383 . S
C531 H539 0.929 . S
C532 C531 1.383 . S
C532 C533 1.377 . S
C533 H517 0.930 . S
C533 C532 1.377 . S
C533 C534 1.379 . S
C534 H518 0.931 . S
C534 C528 1.383 . S
C534 C533 1.379 . S
H535 C529 0.959 . S
H536 C529 0.961 . S
H537 C529 0.960 . S
H538 C530 0.930 . S
H539 C531 0.929 . S
H540 C548 0.929 . S
H541 C550 0.930 . S
H542 C552 0.930 . S
H543 C555 0.929 . S
H544 C558 0.930 . S
H545 C560 0.960 . S
H546 C560 0.960 . S
H547 C560 0.960 . S
C548 H540 0.929 . S
C548 C549 1.377 . S
C548 C550 1.384 . S
C549 C548 1.377 . S
C549 C555 1.390 . S
C550 H541 0.930 . S
C550 C548 1.384 . S
C550 C551 1.372 . S
C551 C550 1.372 . S
C551 C552 1.400 . S
C551 C556 1.490 . S
C552 H542 0.930 . S
C552 C551 1.400 . S
C552 C555 1.386 . S
H553 C569 0.930 . S
H554 C570 0.931 . S
C555 H543 0.929 . S
C555 C549 1.390 . S
C555 C552 1.386 . S
C556 C551 1.490 . S
C556 C558 1.395 . S
C556 C559 1.403 . S
H557 C563 0.930 . S
C558 H544 0.930 . S
C558 C556 1.395 . S
C558 C561 1.403 . S
C559 C556 1.403 . S
C559 C560 1.524 . S
C559 C563 1.400 . S
C560 H545 0.960 . S
C560 H546 0.960 . S
C560 H547 0.960 . S
C560 C559 1.524 . S
C561 C558 1.403 . S
C561 C562 1.392 . S
C561 C565 1.495 . S
C562 C561 1.392 . S
C562 C563 1.385 . S
C562 C564 1.478 . S
C563 H557 0.930 . S
C563 C559 1.400 . S
C563 C562 1.385 . S
C564 C562 1.478 . S
C564 C566 1.381 . S
C564 C570 1.383 . S
C565 C561 1.495 . S
C565 H571 0.959 . S
C565 H572 0.961 . S
C565 H573 0.960 . S
C566 C564 1.381 . S
C566 C567 1.394 . S
C566 H574 0.930 . S
C567 C566 1.394 . S
C567 C568 1.383 . S
C567 H575 0.929 . S
C568 C567 1.383 . S
C568 C569 1.377 . S
C569 H553 0.930 . S
C569 C568 1.377 . S
C569 C570 1.379 . S
C570 H554 0.931 . S
C570 C564 1.383 . S
C570 C569 1.379 . S
H571 C565 0.959 . S
H572 C565 0.961 . S
H573 C565 0.960 . S
H574 C566 0.930 . S
H575 C567 0.929 . S
C172 C131 1.525 . S
C153 C29 1.558 . S
C189 C8 1.363 . S
C208 C117 1.299 . S
C225 C0 1.375 . S
C244 C136 1.345 . S
C261 C17 1.573 1_556 S
C280 C112 1.538 . S
C297 C63 1.557 . S
C316 C93 1.512 . S
C333 C42 1.364 . S
C352 C79 1.351 . S
C388 C98 1.309 . S
C369 C34 1.373 . S
C424 C74 1.542 . S
C405 C51 1.563 . S
C441 C4 1.551 . S
C460 C70 1.537 . S
C477 C13 1.542 . S
C496 C89 1.515 . S
C532 C108 1.531 . S
C513 C38 1.551 . S
C549 C47 1.542 . S
C568 C127 1.538 . S
