# Generated by pormake.
# Topology nom, (4,4)-cn, num edge types: 1
# Building blocks:
#     Node 0, Type 0, BuildingBlock: GIZVER_clean_linker_0, # of connection points: 4
#     Node 1, Type 0, BuildingBlock: GIZVER_clean_linker_0, # of connection points: 4
#     Node 2, Type 0, BuildingBlock: GIZVER_clean_linker_0, # of connection points: 4
#     Node 3, Type 0, BuildingBlock: GIZVER_clean_linker_0, # of connection points: 4
#     Node 4, Type 0, BuildingBlock: GIZVER_clean_linker_0, # of connection points: 4
#     Node 5, Type 0, BuildingBlock: GIZVER_clean_linker_0, # of connection points: 4
#     Node 6, Type 1, BuildingBlock: TATPOV_clean_sbu_0, # of connection points: 4
#     Node 7, Type 1, BuildingBlock: TATPOV_clean_sbu_0, # of connection points: 4
#     Node 8, Type 1, BuildingBlock: TATPOV_clean_sbu_0, # of connection points: 4
#     Node 9, Type 1, BuildingBlock: TATPOV_clean_sbu_0, # of connection points: 4
#     Node 10, Type 1, BuildingBlock: TATPOV_clean_sbu_0, # of connection points: 4
#     Node 11, Type 1, BuildingBlock: TATPOV_clean_sbu_0, # of connection points: 4
#     Edge 12, Type (0, 1), BuildingBlock: CIFDUS_clean_linker_0, # of connection points: 2
#     Edge 13, Type (0, 1), BuildingBlock: CIFDUS_clean_linker_0, # of connection points: 2
#     Edge 14, Type (0, 1), BuildingBlock: CIFDUS_clean_linker_0, # of connection points: 2
#     Edge 15, Type (0, 1), BuildingBlock: CIFDUS_clean_linker_0, # of connection points: 2
#     Edge 16, Type (0, 1), BuildingBlock: CIFDUS_clean_linker_0, # of connection points: 2
#     Edge 17, Type (0, 1), BuildingBlock: CIFDUS_clean_linker_0, # of connection points: 2
#     Edge 18, Type (0, 1), BuildingBlock: CIFDUS_clean_linker_0, # of connection points: 2
#     Edge 19, Type (0, 1), BuildingBlock: CIFDUS_clean_linker_0, # of connection points: 2
#     Edge 20, Type (0, 1), BuildingBlock: CIFDUS_clean_linker_0, # of connection points: 2
#     Edge 21, Type (0, 1), BuildingBlock: CIFDUS_clean_linker_0, # of connection points: 2
#     Edge 22, Type (0, 1), BuildingBlock: CIFDUS_clean_linker_0, # of connection points: 2
#     Edge 23, Type (0, 1), BuildingBlock: CIFDUS_clean_linker_0, # of connection points: 2
#     Edge 24, Type (0, 1), BuildingBlock: CIFDUS_clean_linker_0, # of connection points: 2
#     Edge 25, Type (0, 1), BuildingBlock: CIFDUS_clean_linker_0, # of connection points: 2
#     Edge 26, Type (0, 1), BuildingBlock: CIFDUS_clean_linker_0, # of connection points: 2
#     Edge 27, Type (0, 1), BuildingBlock: CIFDUS_clean_linker_0, # of connection points: 2
#     Edge 28, Type (0, 1), BuildingBlock: CIFDUS_clean_linker_0, # of connection points: 2
#     Edge 29, Type (0, 1), BuildingBlock: CIFDUS_clean_linker_0, # of connection points: 2
#     Edge 30, Type (0, 1), BuildingBlock: CIFDUS_clean_linker_0, # of connection points: 2
#     Edge 31, Type (0, 1), BuildingBlock: CIFDUS_clean_linker_0, # of connection points: 2
#     Edge 32, Type (0, 1), BuildingBlock: CIFDUS_clean_linker_0, # of connection points: 2
#     Edge 33, Type (0, 1), BuildingBlock: CIFDUS_clean_linker_0, # of connection points: 2
#     Edge 34, Type (0, 1), BuildingBlock: CIFDUS_clean_linker_0, # of connection points: 2
#     Edge 35, Type (0, 1), BuildingBlock: CIFDUS_clean_linker_0, # of connection points: 2
# Relax obj value: 0.021
# Max RMSD: 0.120
# Mean RMSD: 0.091
data_MOF--net-nom--node1-TATPOV_clean_sbu_0--node2-GIZVER_clean_linker_0--edge1-CIFDUS_clean_linker_0
_symmetry_space_group_name_H-M    P1
_symmetry_Int_Tables_number       1
_symmetry_cell_setting            triclinic
loop_
_symmetry_equiv_pos_as_xyz
'x, y, z'
_cell_length_a     39.955612
_cell_length_b     40.41371
_cell_length_c     41.505459
_cell_angle_alpha  90.56047
_cell_angle_beta   90.620804
_cell_angle_gamma 119.88479
loop_
_atom_site_label
_atom_site_type_symbol
_atom_site_fract_x
_atom_site_fract_y
_atom_site_fract_z
_atom_type_partial_charge
H0 H 0.9969 0.51796 0.33555 0.0
H1 H 0.0208 0.50058 0.23848 0.0
H2 H 0.90381 0.44345 0.27166 0.0
H3 H 0.05006 0.56874 0.30702 0.0
H4 H 0.05672 0.56314 0.26568 0.0
H5 H 0.07082 0.53637 0.34846 0.0
H6 H 0.18757 0.56765 0.32715 0.0
H7 H 0.10834 0.55425 0.25056 0.0
C8 C 0.98695 0.50272 0.31267 0.0
C9 C 0.94741 0.47697 0.3074 0.0
C10 C 1.01321 0.51192 0.28753 0.0
C11 C 1.00025 0.49296 0.25772 0.0
C12 C 0.96059 0.46896 0.25123 0.0
C13 C 0.93457 0.46011 0.27663 0.0
C14 C 0.05137 0.54859 0.28927 0.0
C15 C 0.08508 0.54342 0.2983 0.0
C16 C 0.09253 0.54075 0.33093 0.0
C17 C 0.12955 0.54943 0.34149 0.0
C18 C 0.15829 0.55783 0.3187 0.0
C19 C 0.15125 0.56008 0.28576 0.0
C20 C 0.11389 0.55118 0.27566 0.0
H21 H 0.43526 0.01476 0.48772 0.0
H22 H 0.48693 0.03844 0.39447 0.0
H23 H 0.44183 0.9268 0.43456 0.0
H24 H 0.43608 0.06511 0.4523 0.0
H25 H 0.46107 0.07633 0.41517 0.0
H26 H 0.4791 0.07617 0.50446 0.0
H27 H 0.57356 0.19143 0.50451 0.0
H28 H 0.52048 0.13453 0.41501 0.0
C29 C 0.44551 1.00595 0.46714 0.0
C30 C 0.43941 0.96854 0.46539 0.0
C31 C 0.46276 0.03131 0.44159 0.0
C32 C 0.47437 0.0191 0.41436 0.0
C33 C 0.4664 0.98119 0.41129 0.0
C34 C 0.44996 0.95658 0.43731 0.0
C35 C 0.46256 0.06861 0.44061 0.0
C36 C 0.49708 0.10088 0.45774 0.0
C37 C 0.49986 0.10081 0.49144 0.0
C38 C 0.52724 0.13334 0.50865 0.0
C39 C 0.55356 0.16545 0.49152 0.0
C40 C 0.55162 0.16603 0.4578 0.0
C41 C 0.52321 0.13364 0.44095 0.0
H42 H 0.45339 0.53578 0.57838 0.0
H43 H 0.46073 0.51648 0.67876 0.0
H44 H 0.47599 0.62446 0.64715 0.0
H45 H 0.44107 0.47443 0.59579 0.0
H46 H 0.43096 0.46359 0.63732 0.0
H47 H 0.50771 0.49896 0.57577 0.0
H48 H 0.57746 0.4651 0.62968 0.0
H49 H 0.47793 0.46051 0.67313 0.0
C50 C 0.45972 0.54665 0.60298 0.0
C51 C 0.46443 0.58275 0.6102 0.0
C52 C 0.46089 0.52373 0.6278 0.0
C53 C 0.46414 0.53623 0.65998 0.0
C54 C 0.46828 0.57216 0.66765 0.0
C55 C 0.47172 0.59627 0.64215 0.0
C56 C 0.45319 0.48381 0.62062 0.0
C57 C 0.48944 0.48115 0.62438 0.0
C58 C 0.51419 0.48956 0.59817 0.0
C59 C 0.54627 0.48429 0.60029 0.0
C60 C 0.55397 0.47125 0.62901 0.0
C61 C 0.52949 0.46224 0.65547 0.0
C62 C 0.49744 0.46784 0.65312 0.0
H63 H 0.9208 0.40719 0.73242 0.0
H64 H 0.9865 0.45336 0.82104 0.0
H65 H 0.86932 0.42824 0.81473 0.0
H66 H 0.98814 0.42695 0.73258 0.0
H67 H 0.99361 0.40724 0.76887 0.0
H68 H 0.03021 0.49525 0.72157 0.0
H69 H 0.13525 0.55446 0.77749 0.0
H70 H 0.04353 0.44671 0.80943 0.0
C71 C 0.92342 0.41852 0.75666 0.0
C72 C 0.89056 0.41556 0.77161 0.0
C73 C 0.95899 0.43359 0.77392 0.0
C74 C 0.96071 0.44459 0.8065 0.0
C75 C 0.9285 0.44308 0.82086 0.0
C76 C 0.8943 0.42995 0.80304 0.0
C77 C 0.99284 0.43235 0.75903 0.0
C78 C 0.03166 0.46791 0.76564 0.0
C79 C 0.04682 0.49754 0.74313 0.0
C80 C 0.08458 0.52841 0.74711 0.0
C81 C 0.10602 0.53074 0.7748 0.0
C82 C 0.09183 0.5016 0.79748 0.0
C83 C 0.05451 0.47005 0.79266 0.0
H84 H 0.6455 0.06483 -0.01518 0.0
H85 H 0.57061 0.01895 0.90094 0.0
H86 H 0.5984 0.12848 0.94018 0.0
H87 H 0.6363 1.00688 0.95997 0.0
H88 H 0.62159 0.99989 0.91848 0.0
H89 H 0.5764 0.98428 0.00077 0.0
H90 H 0.49052 0.86852 0.97785 0.0
H91 H 0.57079 0.93693 0.9057 0.0
C92 C 0.62645 0.06664 0.96704 0.0
C93 C 0.62409 0.1002 0.96528 0.0
C94 C 0.60634 0.03659 0.94421 0.0
C95 C 0.58415 0.04073 0.91968 0.0
C96 C 0.581 0.07375 0.9184 0.0
C97 C 0.5999 0.10247 0.94184 0.0
C98 C 0.6125 1.0025 0.94318 0.0
C99 C 0.57654 0.96569 0.95172 0.0
C100 C 0.56239 0.96111 -0.01677 0.0
C101 C 0.53175 0.9259 -0.00735 0.0
C102 C 0.5141 0.89579 0.97027 0.0
C103 C 0.5277 0.89939 0.93894 0.0
C104 C 0.55932 0.93436 0.92965 0.0
H105 H 0.59196 0.52723 0.09737 0.0
H106 H 0.60861 0.55349 0.19842 0.0
H107 H 0.59362 0.44652 0.16297 0.0
H108 H 0.61878 0.5932 0.11873 0.0
H109 H 0.62166 0.60256 0.16101 0.0
H110 H 0.55742 0.56867 0.08866 0.0
H111 H 0.47104 0.58704 0.13255 0.0
H112 H 0.56611 0.59764 0.18986 0.0
C113 C 0.59295 0.5183 0.12172 0.0
C114 C 0.5933 0.48408 0.12688 0.0
C115 C 0.59732 0.54281 0.14773 0.0
C116 C 0.60198 0.53287 0.17909 0.0
C117 C 0.60147 0.49837 0.18493 0.0
C118 C 0.59439 0.47321 0.15876 0.0
C119 C 0.60316 0.58213 0.14167 0.0
C120 C 0.56519 0.58156 0.13975 0.0
C121 C 0.54553 0.57442 0.10995 0.0
C122 C 0.51146 0.57622 0.10727 0.0
C123 C 0.49649 0.58403 0.13479 0.0
C124 C 0.51602 0.5919 0.16453 0.0
C125 C 0.55037 0.59053 0.16707 0.0
Zn126 Zn 0.74173 0.53464 0.4134 0.0
Zn127 Zn 0.70273 0.45706 0.40946 0.0
O128 O 0.75934 0.47113 0.40458 0.0
O129 O 0.79129 0.53393 0.40474 0.0
O130 O 0.67448 0.39928 0.41 0.0
O131 O 0.72376 0.53373 0.45871 0.0
O132 O 0.68556 0.47176 0.45121 0.0
C133 C 0.79098 0.5025 0.40221 0.0
C134 C 0.68507 0.50187 0.36087 0.0
O135 O 0.68222 0.47056 0.3698 0.0
O136 O 0.70686 0.53278 0.3761 0.0
C137 C 0.64062 0.37853 0.39825 0.0
O138 O 0.62281 0.39496 0.38485 0.0
C139 C 0.69661 0.50209 0.46809 0.0
Zn140 Zn 0.22919 0.71771 0.55988 0.0
Zn141 Zn 0.27554 0.68598 0.55583 0.0
O142 O 0.31345 0.74367 0.55115 0.0
O143 O 0.27693 0.7699 0.55685 0.0
O144 O 0.30777 0.65989 0.5549 0.0
O145 O 0.20812 0.69173 0.6021 0.0
O146 O 0.24647 0.66733 0.59832 0.0
C147 C 0.30978 0.77328 0.55213 0.0
C148 C 0.21141 0.66557 0.50567 0.0
O149 O 0.23915 0.662 0.51705 0.0
O150 O 0.20222 0.68815 0.51908 0.0
C151 C 0.34373 0.67473 0.54969 0.0
O152 O 0.3643 0.71143 0.54408 0.0
C153 C 0.22048 0.67065 0.61315 0.0
Zn154 Zn 0.50134 0.21119 0.744 0.0
Zn155 Zn 0.57898 0.25602 0.74802 0.0
O156 O 0.55928 0.29501 0.74682 0.0
O157 O 0.49609 0.25808 0.74422 0.0
O158 O 0.6369 0.28677 0.75602 0.0
O159 O 0.49818 0.18362 0.78486 0.0
O160 O 0.56179 0.21631 0.78416 0.0
C161 C 0.52556 0.29115 0.74497 0.0
C162 C 0.5439 0.20445 0.68976 0.0
O163 O 0.57354 0.23049 0.70456 0.0
O164 O 0.51065 0.19149 0.70167 0.0
C165 C 0.66318 0.30361 0.73529 0.0
O166 O 0.65343 0.30396 0.70502 0.0
C167 C 0.53051 0.19058 0.79632 0.0
Zn168 Zn 0.34322 0.52846 0.89562 0.0
Zn169 Zn 0.37579 0.60578 0.89706 0.0
O170 O 0.31719 0.58654 0.89074 0.0
O171 O 0.29178 0.52424 0.8854 0.0
O172 O 0.40338 0.66419 0.89866 0.0
O173 O 0.35907 0.52893 0.94154 0.0
O174 O 0.39236 0.59185 0.93992 0.0
C175 C 0.28785 0.55347 0.8856 0.0
C176 C 0.40004 0.56576 0.84713 0.0
O177 O 0.39949 0.59512 0.8578 0.0
O178 O 0.37995 0.53364 0.8601 0.0
C179 C 0.38879 0.68402 0.88865 0.0
O180 O 0.3533 0.66657 0.87696 0.0
C181 C 0.38252 0.56076 0.95453 0.0
Zn182 Zn 0.82225 0.47393 0.04402 0.0
Zn183 Zn 0.78127 0.39935 0.0338 0.0
O184 O 0.7385 0.41496 0.03784 0.0
O185 O 0.77441 0.47714 0.04545 0.0
O186 O 0.75267 0.34352 0.01941 0.0
O187 O 0.8505 0.486 0.00317 0.0
O188 O 0.81945 0.42354 -0.0042 0.0
C189 C 0.7415 0.44776 0.04183 0.0
C190 C 0.83507 0.42989 0.09212 0.0
O191 O 0.80914 0.4009 0.07655 0.0
O192 O 0.84506 0.46327 0.08289 0.0
C193 C 0.74165 0.31335 0.0357 0.0
O194 O 0.74709 0.31606 0.06711 0.0
C195 C 0.84405 0.457 -0.01338 0.0
Zn196 Zn 0.38077 0.8155 0.20364 0.0
Zn197 Zn 0.41993 0.77923 0.21756 0.0
O198 O 0.36286 0.73583 0.21717 0.0
O199 O 0.33113 0.76523 0.20342 0.0
O200 O 0.45119 0.75275 0.22317 0.0
O201 O 0.40968 0.83721 0.16327 0.0
O202 O 0.44105 0.80671 0.17459 0.0
C203 C 0.33109 0.73485 0.21069 0.0
C204 C 0.42634 0.84172 0.26282 0.0
O205 O 0.43553 0.81643 0.25628 0.0
O206 O 0.4032 0.84591 0.24451 0.0
C207 C 0.43913 0.71957 0.23433 0.0
O208 O 0.40367 0.70018 0.24485 0.0
C209 C 0.43529 0.82875 0.15644 0.0
H210 H 0.16144 0.61391 0.24224 0.0
H211 H 0.21765 0.55546 0.28203 0.0
H212 H 0.27874 0.60286 0.25879 0.0
H213 H 0.31769 0.66631 0.23452 0.0
H214 H 0.25974 0.72347 0.19529 0.0
H215 H 0.19765 0.67041 0.21027 0.0
C216 C 0.18649 0.61037 0.24487 0.0
C217 C 0.18487 0.58128 0.26431 0.0
C218 C 0.22151 0.63795 0.23193 0.0
C219 C 0.21815 0.57792 0.26764 0.0
C220 C 0.25316 0.6051 0.25444 0.0
C221 C 0.29143 0.66682 0.22869 0.0
C222 C 0.29357 0.69932 0.21449 0.0
C223 C 0.25551 0.63621 0.23776 0.0
C224 C 0.25915 0.69922 0.20675 0.0
C225 C 0.2235 0.66883 0.21531 0.0
H226 H 0.52746 0.20266 0.41756 0.0
H227 H 0.62951 0.21237 0.4631 0.0
H228 H 0.6672 0.27872 0.44624 0.0
H229 H 0.66922 0.33574 0.42405 0.0
H230 H 0.56644 0.32664 0.38017 0.0
H231 H 0.53109 0.25834 0.39063 0.0
C232 C 0.55819 0.21902 0.42293 0.0
C233 C 0.57576 0.20275 0.44148 0.0
C234 C 0.57939 0.25746 0.41396 0.0
C235 C 0.61545 0.22441 0.44882 0.0
C236 C 0.63691 0.26236 0.43937 0.0
C237 C 0.63919 0.31878 0.41647 0.0
C238 C 0.62042 0.33648 0.40174 0.0
C239 C 0.61888 0.27954 0.42286 0.0
C240 C 0.58158 0.31392 0.39182 0.0
C241 C 0.56129 0.27479 0.39779 0.0
H242 H 0.39445 0.55439 0.58225 0.0
H243 H 0.50579 0.65633 0.58963 0.0
H244 H 0.47849 0.69388 0.56728 0.0
H245 H 0.42086 0.69899 0.55434 0.0
H246 H 0.30867 0.59715 0.55175 0.0
H247 H 0.33825 0.55834 0.5634 0.0
C248 C 0.41299 0.58455 0.57769 0.0
C249 C 0.4521 0.60257 0.58719 0.0
C250 C 0.39664 0.60614 0.56655 0.0
C251 C 0.4757 0.64186 0.58206 0.0
C252 C 0.45995 0.66335 0.56972 0.0
C253 C 0.40295 0.66825 0.5558 0.0
C254 C 0.36252 0.65112 0.55265 0.0
C255 C 0.4201 0.64607 0.56327 0.0
C256 C 0.33979 0.6112 0.55453 0.0
C257 C 0.35669 0.58891 0.56112 0.0
H258 H 0.8266 0.36212 0.80035 0.0
H259 H 0.86557 0.42015 0.71023 0.0
H260 H 0.79831 0.38948 0.69021 0.0
H261 H 0.72788 0.34929 0.70031 0.0
H262 H 0.6913 0.29564 0.79274 0.0
H263 H 0.75821 0.32238 0.81014 0.0
C264 C 0.82048 0.36827 0.77631 0.0
C265 C 0.851 0.39393 0.757 0.0
C266 C 0.78207 0.35172 0.76559 0.0
C267 C 0.84261 0.40058 0.72558 0.0
C268 C 0.80414 0.3833 0.7143 0.0
C269 C 0.7346 0.34345 0.72424 0.0
C270 C 0.7044 0.3206 0.74524 0.0
C271 C 0.77353 0.35938 0.73439 0.0
C272 C 0.71372 0.31331 0.77613 0.0
C273 C 0.75206 0.32847 0.78611 0.0
H274 H 0.45408 0.8594 0.91676 0.0
H275 H 0.56187 0.85953 0.91816 0.0
H276 H 0.52842 0.7922 0.901 0.0
H277 H 0.46708 0.73121 0.89296 0.0
H278 H 0.35947 0.73198 0.89115 0.0
H279 H 0.39408 0.80082 0.90114 0.0
C280 C 0.47033 0.84496 0.9121 0.0
C281 C 0.51036 0.86435 0.9184 0.0
C282 C 0.45074 0.80612 0.90303 0.0
C283 C 0.53116 0.84533 0.91286 0.0
C284 C 0.5119 0.80667 0.90359 0.0
C285 C 0.45128 0.74654 0.89449 0.0
C286 C 0.41065 0.72631 0.89187 0.0
C287 C 0.47149 0.78639 0.89986 0.0
C288 C 0.39067 0.74671 0.8933 0.0
C289 C 0.41045 0.78614 0.89901 0.0
H290 H 0.64044 0.51804 0.07641 0.0
H291 H 0.56966 0.40731 0.11788 0.0
H292 H 0.60701 0.38313 0.09023 0.0
H293 H 0.66908 0.39846 0.06458 0.0
H294 H 0.73806 0.50973 0.02353 0.0
H295 H 0.69129 0.52806 0.03985 0.0
C296 C 0.63173 0.48811 0.07844 0.0
C297 C 0.60324 0.46514 0.10046 0.0
C298 C 0.65366 0.47456 0.06292 0.0
C299 C 0.59254 0.42626 0.10215 0.0
C300 C 0.61398 0.41235 0.08639 0.0
C301 C 0.67311 0.42619 0.05833 0.0
C302 C 0.70753 0.4531 0.04377 0.0
C303 C 0.64624 0.43701 0.0684 0.0
C304 C 0.71225 0.48884 0.0355 0.0
C305 C 0.68551 0.49941 0.04482 0.0
H306 H 0.45168 0.91266 0.48912 0.0
H307 H 0.37519 0.95894 0.49664 0.0
H308 H 0.33114 0.9049 0.52882 0.0
H309 H 0.30969 0.84033 0.54771 0.0
H310 H 0.38352 0.7914 0.53672 0.0
H311 H 0.43306 0.8505 0.51305 0.0
C312 C 0.42555 0.91112 0.4981 0.0
C313 C 0.41669 0.93975 0.49012 0.0
C314 C 0.39952 0.87915 0.51561 0.0
C315 C 0.38308 0.93765 0.50253 0.0
C316 C 0.35756 0.90644 0.52067 0.0
C317 C 0.33685 0.84271 0.54067 0.0
C318 C 0.34253 0.81113 0.54357 0.0
C319 C 0.3648 0.8764 0.52631 0.0
C320 C 0.37813 0.81503 0.53454 0.0
C321 C 0.40647 0.84882 0.52088 0.0
H322 H 0.47382 0.40035 0.68623 0.0
H323 H 0.59702 0.47648 0.68555 0.0
H324 H 0.60696 0.43164 0.71759 0.0
H325 H 0.58104 0.36606 0.73728 0.0
H326 H 0.45751 0.29094 0.73839 0.0
H327 H 0.44751 0.34056 0.71559 0.0
C328 C 0.50278 0.40791 0.69406 0.0
C329 C 0.53464 0.44133 0.68273 0.0
C330 C 0.50836 0.38182 0.71221 0.0
C331 C 0.57198 0.45046 0.69322 0.0
C332 C 0.57772 0.42479 0.71151 0.0
C333 C 0.55192 0.36084 0.73328 0.0
C334 C 0.52019 0.32438 0.73879 0.0
C335 C 0.54621 0.38952 0.71977 0.0
C336 C 0.48262 0.31842 0.73386 0.0
C337 C 0.47677 0.34681 0.72071 0.0
H338 H 0.14421 0.56279 0.83376 0.0
H339 H 0.10152 0.44251 0.81762 0.0
H340 H 0.15655 0.44743 0.84781 0.0
H341 H 0.22162 0.48755 0.87058 0.0
H342 H 0.26758 0.60903 0.88198 0.0
H343 H 0.20682 0.60206 0.86134 0.0
C344 C 0.1467 0.53752 0.83716 0.0
C345 C 0.11899 0.50246 0.82286 0.0
C346 C 0.17954 0.54097 0.85303 0.0
C347 C 0.12215 0.46984 0.82834 0.0
C348 C 0.154 0.47275 0.84524 0.0
C349 C 0.2183 0.51253 0.86898 0.0
C350 C 0.24948 0.5489 0.87737 0.0
C351 C 0.18366 0.50845 0.85638 0.0
C352 C 0.24432 0.58078 0.8754 0.0
C353 C 0.20954 0.5768 0.86358 0.0
H354 H 0.67008 0.17001 0.94193 0.0
H355 H 0.63553 0.10956 0.03128 0.0
H356 H 0.67055 0.17049 0.06154 0.0
H357 H 0.7067 0.24166 0.06192 0.0
H358 H 0.73708 0.30011 0.97109 0.0
H359 H 0.70737 0.23929 0.94214 0.0
C360 C 0.67035 0.17012 0.96809 0.0
C361 C 0.64988 0.13543 -0.01561 0.0
C362 C 0.68931 0.205 -0.01499 0.0
C363 C 0.65111 0.1359 0.01822 0.0
C364 C 0.67082 0.17076 0.03544 0.0
C365 C 0.70691 0.24105 0.03581 0.0
C366 C 0.7239 0.27562 0.01878 0.0
C367 C 0.68929 0.20562 0.01904 0.0
C368 C 0.72398 0.27417 -0.01508 0.0
C369 C 0.7071 0.23933 0.96825 0.0
H370 H 0.55152 0.66447 0.18617 0.0
H371 H 0.44962 0.55505 0.19814 0.0
H372 H 0.41822 0.58543 0.22644 0.0
H373 H 0.41573 0.64387 0.23823 0.0
H374 H 0.51591 0.75368 0.22129 0.0
H375 H 0.55214 0.72264 0.20484 0.0
C376 C 0.52308 0.64729 0.19624 0.0
C377 C 0.50294 0.60769 0.19053 0.0
C378 C 0.50457 0.66519 0.21084 0.0
C379 C 0.46571 0.58557 0.20278 0.0
C380 C 0.44764 0.603 0.21854 0.0
C381 C 0.44575 0.66104 0.23166 0.0
C382 C 0.46286 0.70101 0.23048 0.0
C383 C 0.4661 0.64294 0.22126 0.0
C384 C 0.50184 0.72283 0.22196 0.0
C385 C 0.52262 0.70511 0.21253 0.0
H386 H 0.94739 0.53407 0.34244 0.0
H387 H 0.88174 0.41237 0.32526 0.0
H388 H 0.82863 0.40877 0.35675 0.0
H389 H 0.79821 0.44148 0.38346 0.0
H390 H 0.86391 0.5636 0.39897 0.0
H391 H 0.92002 0.5655 0.37455 0.0
C392 C 0.92202 0.50653 0.34639 0.0
C393 C 0.91853 0.47353 0.33143 0.0
C394 C 0.89142 0.5048 0.36399 0.0
C395 C 0.885 0.43824 0.33631 0.0
C396 C 0.85462 0.43618 0.35427 0.0
C397 C 0.82501 0.46843 0.38206 0.0
C398 C 0.8266 0.50241 0.39267 0.0
C399 C 0.85705 0.46948 0.36735 0.0
C400 C 0.86166 0.53704 0.39073 0.0
C401 C 0.8938 0.5382 0.37668 0.0
H402 H 0.11268 0.59354 0.37923 0.0
H403 H 0.17499 0.53183 0.37951 0.0
H404 H 0.20507 0.56148 0.43159 0.0
H405 H 0.2177 0.60932 0.4743 0.0
H406 H 0.15556 0.67141 0.47235 0.0
H407 H 0.12103 0.63679 0.42359 0.0
C408 C 0.13182 0.58551 0.39112 0.0
C409 C 0.14136 0.56028 0.37569 0.0
C410 C 0.14953 0.60325 0.42044 0.0
C411 C 0.16715 0.55112 0.39104 0.0
C412 C 0.18449 0.56823 0.42065 0.0
C413 C 0.1965 0.61517 0.46328 0.0
C414 C 0.18961 0.64328 0.47677 0.0
C415 C 0.17669 0.59517 0.4351 0.0
C416 C 0.1617 0.65017 0.46238 0.0
C417 C 0.14184 0.63033 0.43451 0.0
H418 H 0.58625 0.16933 0.55278 0.0
H419 H 0.46176 0.10493 0.54431 0.0
H420 H 0.45647 0.11794 0.60063 0.0
H421 H 0.48644 0.15359 0.65029 0.0
H422 H 0.61056 0.22289 0.65805 0.0
H423 H 0.61658 0.20261 0.60383 0.0
C424 C 0.55796 0.15802 0.56328 0.0
C425 C 0.52455 0.13628 0.54413 0.0
C426 C 0.55496 0.16707 0.59543 0.0
C427 C 0.48811 0.1212 0.55839 0.0
C428 C 0.48496 0.12907 0.59059 0.0
C429 C 0.51487 0.16407 0.64029 0.0
C430 C 0.54794 0.19005 0.65805 0.0
C431 C 0.51811 0.15289 0.60901 0.0
C432 C 0.58457 0.20313 0.64476 0.0
C433 C 0.58806 0.19152 0.61378 0.0
H434 H 0.48183 0.54698 0.72554 0.0
H435 H 0.43865 0.61808 0.68667 0.0
H436 H 0.42101 0.62747 0.73961 0.0
H437 H 0.40864 0.60881 0.79569 0.0
H438 H 0.4387 0.52776 0.83308 0.0
H439 H 0.46899 0.52779 0.78199 0.0
C440 C 0.46828 0.56429 0.72829 0.0
C441 C 0.46214 0.58172 0.7013 0.0
C442 C 0.4549 0.56724 0.75877 0.0
C443 C 0.44543 0.605 0.70636 0.0
C444 C 0.4344 0.60997 0.73687 0.0
C445 C 0.4224 0.59164 0.79276 0.0
C446 C 0.42163 0.56841 0.81789 0.0
C447 C 0.43786 0.59033 0.76299 0.0
C448 C 0.43892 0.54577 0.81382 0.0
C449 C 0.45619 0.54581 0.78468 0.0
H450 H 0.91821 0.49703 0.8499 0.0
H451 H 0.93223 0.40003 0.86871 0.0
H452 H 0.90751 0.39575 0.92318 0.0
H453 H 0.87365 0.41457 0.96241 0.0
H454 H 0.86145 0.51284 0.94369 0.0
H455 H 0.89334 0.52161 0.89205 0.0
C456 C 0.91715 0.47594 0.86648 0.0
C457 C 0.92706 0.44902 0.85571 0.0
C458 C 0.90214 0.47319 0.89728 0.0
C459 C 0.92524 0.42137 0.87692 0.0
C460 C 0.91051 0.41854 0.90778 0.0
C461 C 0.87818 0.43791 0.94697 0.0
C462 C 0.86463 0.46255 0.95627 0.0
C463 C 0.89737 0.44332 0.91768 0.0
C464 C 0.87139 0.49333 0.93667 0.0
C465 C 0.88968 0.49843 0.90726 0.0
H466 H 0.53329 0.87332 0.0304 0.0
H467 H 0.50163 0.9608 0.02939 0.0
H468 H 0.46981 0.93903 0.08142 0.0
H469 H 0.44619 0.89126 0.12417 0.0
H470 H 0.47802 0.80363 0.12463 0.0
H471 H 0.51464 0.82923 0.07548 0.0
C472 C 0.51992 0.88793 0.04196 0.0
C473 C 0.51938 0.91833 0.02635 0.0
C474 C 0.50133 0.87486 0.07129 0.0
C475 C 0.50238 0.93742 0.04128 0.0
C476 C 0.48395 0.92474 0.07075 0.0
C477 C 0.4612 0.8778 0.11354 0.0
C478 C 0.45892 0.84522 0.12767 0.0
C479 C 0.48236 0.89281 0.08547 0.0
C480 C 0.47913 0.82855 0.11405 0.0
C481 C 0.50007 0.84317 0.086 0.0
H482 H 0.59451 0.52324 0.24544 0.0
H483 H 0.64013 0.45899 0.19709 0.0
H484 H 0.66454 0.4504 0.24763 0.0
H485 H 0.67877 0.46548 0.3049 0.0
H486 H 0.64541 0.53986 0.35187 0.0
H487 H 0.61195 0.54141 0.30244 0.0
C488 C 0.61008 0.50767 0.24565 0.0
C489 C 0.61434 0.49128 0.2169 0.0
C490 C 0.62706 0.50517 0.27469 0.0
C491 C 0.63435 0.4707 0.21844 0.0
C492 C 0.64925 0.46628 0.24748 0.0
C493 C 0.66389 0.48177 0.30428 0.0
C494 C 0.66421 0.50234 0.33172 0.0
C495 C 0.64638 0.48389 0.27558 0.0
C496 C 0.64548 0.52391 0.33077 0.0
C497 C 0.62635 0.52471 0.30261 0.0
H498 H 0.48527 0.92591 0.39749 0.0
H499 H 0.44858 0.99905 0.35271 0.0
H500 H 0.43733 0.96453 0.30212 0.0
H501 H 0.42918 0.9089 0.2726 0.0
H502 H 0.46082 0.83198 0.31685 0.0
H503 H 0.48203 0.87226 0.36582 0.0
C504 C 0.47512 0.9345 0.37659 0.0
C505 C 0.46763 0.96503 0.37923 0.0
C506 C 0.46692 0.91333 0.34765 0.0
C507 C 0.45528 0.97621 0.35161 0.0
C508 C 0.4482 0.95606 0.32262 0.0
C509 C 0.44084 0.90091 0.29288 0.0
C510 C 0.44268 0.86712 0.29141 0.0
C511 C 0.45252 0.92382 0.32076 0.0
C512 C 0.45876 0.8577 0.31757 0.0
C513 C 0.47085 0.8807 0.34553 0.0
H514 H 0.62421 0.52346 0.59529 0.0
H515 H 0.51928 0.45044 0.54162 0.0
H516 H 0.55679 0.44744 0.49665 0.0
H517 H 0.61938 0.46409 0.47332 0.0
H518 H 0.72456 0.54064 0.52512 0.0
H519 H 0.68713 0.54325 0.57053 0.0
C520 C 0.60972 0.50728 0.57355 0.0
C521 C 0.56917 0.48731 0.57159 0.0
C522 C 0.63146 0.50575 0.54785 0.0
C523 C 0.55051 0.46647 0.54339 0.0
C524 C 0.57191 0.4644 0.51788 0.0
C525 C 0.634 0.48093 0.49477 0.0
C526 C 0.6745 0.50151 0.49638 0.0
C527 C 0.61234 0.48349 0.52004 0.0
C528 C 0.69332 0.52422 0.52372 0.0
C529 C 0.67196 0.52587 0.54951 0.0
H530 H 0.15538 0.55093 0.72394 0.0
H531 H 0.05752 0.56763 0.71163 0.0
H532 H 0.09216 0.61531 0.67028 0.0
H533 H 0.15033 0.65173 0.63768 0.0
H534 H 0.24745 0.63368 0.65054 0.0
H535 H 0.21333 0.58776 0.69265 0.0
C536 C 0.14174 0.56534 0.71252 0.0
C537 C 0.10413 0.55618 0.7211 0.0
C538 C 0.16185 0.5927 0.68922 0.0
C539 C 0.08642 0.57421 0.70538 0.0
C540 C 0.10632 0.6016 0.68196 0.0
C541 C 0.16426 0.63817 0.65003 0.0
C542 C 0.20151 0.64628 0.64109 0.0
C543 C 0.14413 0.61115 0.67379 0.0
C544 C 0.21889 0.62802 0.65699 0.0
C545 C 0.19933 0.60164 0.68095 0.0
H546 H 0.52767 0.0966 0.91717 0.0
H547 H 0.60084 0.07391 0.85619 0.0
H548 H 0.59117 0.10829 0.81226 0.0
H549 H 0.56881 0.15184 0.79388 0.0
H550 H 0.49379 0.17296 0.85373 0.0
H551 H 0.49772 0.13274 0.89586 0.0
C552 C 0.54044 0.09824 0.89388 0.0
C553 C 0.56494 0.08289 0.88981 0.0
C554 C 0.53545 0.11878 0.86905 0.0
C555 C 0.58149 0.08512 0.85968 0.0
C556 C 0.57651 0.10533 0.83477 0.0
C557 C 0.55336 0.1475 0.81621 0.0
C558 C 0.53194 0.16592 0.82137 0.0
C559 C 0.55486 0.12355 0.83968 0.0
C560 C 0.51097 0.15941 0.84973 0.0
C561 C 0.51307 0.13633 0.87363 0.0
H562 H 0.43593 0.53397 0.0901 0.0
H563 H 0.54714 0.61637 0.05393 0.0
H564 H 0.51667 0.62098 0.00402 0.0
H565 H 0.45797 0.60273 0.97131 0.0
H566 H 0.3473 0.51762 0.00631 0.0
H567 H 0.37772 0.51351 0.05646 0.0
C568 C 0.45341 0.55264 0.0711 0.0
C569 C 0.49361 0.5747 0.07551 0.0
C570 C 0.43571 0.55521 0.04264 0.0
C571 C 0.51615 0.59871 0.0508 0.0
C572 C 0.49872 0.60169 0.02247 0.0
C573 C 0.44061 0.58372 -0.00982 0.0
C574 C 0.40052 0.56102 -0.01437 0.0
C575 C 0.45848 0.58046 0.01832 0.0
C576 C 0.37823 0.53562 0.00966 0.0
C577 C 0.3956 0.53311 0.03816 0.0
H578 H 0.89593 0.40573 0.22568 0.0
H579 H 0.99108 0.51599 0.19995 0.0
H580 H 0.96249 0.5102 0.14738 0.0
H581 H 0.90724 0.47923 0.11133 0.0
H582 H 0.80873 0.37157 0.13598 0.0
H583 H 0.84159 0.37126 0.18639 0.0
C584 C 0.91057 0.42832 0.20848 0.0
C585 C 0.94586 0.46118 0.21721 0.0
C586 C 0.893 0.42576 0.17824 0.0
C587 C 0.96456 0.48984 0.1942 0.0
C588 C 0.94788 0.48695 0.16403 0.0
C589 C 0.89293 0.4555 0.12762 0.0
C590 C 0.85537 0.42591 0.12042 0.0
C591 C 0.91163 0.45582 0.15631 0.0
C592 C 0.8376 0.39487 0.14125 0.0
C593 C 0.85634 0.39479 0.17005 0.0
loop_
_geom_bond_atom_site_label_1
_geom_bond_atom_site_label_2
_geom_bond_distance
_geom_bond_site_symmetry_2
_ccdc_geom_bond_type
H0 C8 0.930 . S
H1 C11 0.930 . S
H2 C13 0.930 . S
H3 C14 0.955 1_655 S
H4 C14 0.970 . S
H5 C16 0.930 . S
H6 C18 0.930 . S
H7 C20 0.930 . S
C8 H0 0.930 . S
C8 C9 1.382 . S
C8 C10 1.426 . S
C9 C8 1.382 . S
C9 C13 1.389 . S
C10 C8 1.426 . S
C10 C11 1.375 . S
C10 C14 1.532 1_655 S
C11 H1 0.930 . S
C11 C10 1.375 . S
C11 C12 1.416 . S
C12 C11 1.416 . S
C12 C13 1.371 . S
C13 H2 0.930 . S
C13 C9 1.389 . S
C13 C12 1.371 . S
C14 H3 0.955 1_455 S
C14 H4 0.970 . S
C14 C10 1.532 1_455 S
C14 C15 1.499 . S
C15 C14 1.499 . S
C15 C16 1.370 . S
C15 C20 1.415 . S
C16 H5 0.930 . S
C16 C15 1.370 . S
C16 C17 1.407 . S
C17 C16 1.407 . S
C17 C18 1.365 . S
C18 H6 0.930 . S
C18 C17 1.365 . S
C18 C19 1.393 . S
C19 C18 1.393 . S
C19 C20 1.387 . S
C20 H7 0.930 . S
C20 C15 1.415 . S
C20 C19 1.387 . S
H21 C29 0.930 . S
H22 C32 0.930 . S
H23 C34 0.930 . S
H24 C35 0.970 . S
H25 C35 0.970 . S
H26 C37 0.930 . S
H27 C39 0.930 . S
H28 C41 0.930 . S
C29 H21 0.930 . S
C29 C30 1.382 . S
C29 C31 1.426 . S
C30 C29 1.382 . S
C30 C34 1.389 . S
C31 C29 1.426 . S
C31 C32 1.375 . S
C31 C35 1.532 1_565 S
C32 H22 0.930 . S
C32 C31 1.375 . S
C32 C33 1.416 . S
C33 C32 1.416 . S
C33 C34 1.371 . S
C34 H23 0.930 . S
C34 C30 1.389 . S
C34 C33 1.371 . S
C35 H24 0.970 . S
C35 H25 0.970 . S
C35 C31 1.532 1_545 S
C35 C36 1.499 . S
C36 C35 1.499 . S
C36 C37 1.370 . S
C36 C41 1.415 . S
C37 H26 0.930 . S
C37 C36 1.370 . S
C37 C38 1.407 . S
C38 C37 1.407 . S
C38 C39 1.365 . S
C39 H27 0.930 . S
C39 C38 1.365 . S
C39 C40 1.393 . S
C40 C39 1.393 . S
C40 C41 1.387 . S
C41 H28 0.930 . S
C41 C36 1.415 . S
C41 C40 1.387 . S
H42 C50 0.930 . S
H43 C53 0.930 . S
H44 C55 0.930 . S
H45 C56 0.970 . S
H46 C56 0.970 . S
H47 C58 0.930 . S
H48 C60 0.930 . S
H49 C62 0.930 . S
C50 H42 0.930 . S
C50 C51 1.382 . S
C50 C52 1.426 . S
C51 C50 1.382 . S
C51 C55 1.389 . S
C52 C50 1.426 . S
C52 C53 1.375 . S
C52 C56 1.532 . S
C53 H43 0.930 . S
C53 C52 1.375 . S
C53 C54 1.416 . S
C54 C53 1.416 . S
C54 C55 1.371 . S
C55 H44 0.930 . S
C55 C51 1.389 . S
C55 C54 1.371 . S
C56 H45 0.970 . S
C56 H46 0.970 . S
C56 C52 1.532 . S
C56 C57 1.499 . S
C57 C56 1.499 . S
C57 C58 1.370 . S
C57 C62 1.415 . S
C58 H47 0.930 . S
C58 C57 1.370 . S
C58 C59 1.407 . S
C59 C58 1.407 . S
C59 C60 1.365 . S
C60 H48 0.930 . S
C60 C59 1.365 . S
C60 C61 1.393 . S
C61 C60 1.393 . S
C61 C62 1.387 . S
C62 H49 0.930 . S
C62 C57 1.415 . S
C62 C61 1.387 . S
H63 C71 0.930 . S
H64 C74 0.930 . S
H65 C76 0.930 . S
H66 C77 0.970 . S
H67 C77 0.970 . S
H68 C79 0.930 . S
H69 C81 0.930 . S
H70 C83 0.930 . S
C71 H63 0.930 . S
C71 C72 1.382 . S
C71 C73 1.426 . S
C72 C71 1.382 . S
C72 C76 1.389 . S
C73 C71 1.426 . S
C73 C74 1.375 . S
C73 C77 1.532 1_655 S
C74 H64 0.930 . S
C74 C73 1.375 . S
C74 C75 1.416 . S
C75 C74 1.416 . S
C75 C76 1.371 . S
C76 H65 0.930 . S
C76 C72 1.389 . S
C76 C75 1.371 . S
C77 H66 0.970 . S
C77 H67 0.970 . S
C77 C73 1.532 1_455 S
C77 C78 1.499 . S
C78 C77 1.499 . S
C78 C79 1.370 . S
C78 C83 1.415 . S
C79 H68 0.930 . S
C79 C78 1.370 . S
C79 C80 1.407 . S
C80 C79 1.407 . S
C80 C81 1.365 . S
C81 H69 0.930 . S
C81 C80 1.365 . S
C81 C82 1.393 . S
C82 C81 1.393 . S
C82 C83 1.387 . S
C83 H70 0.930 . S
C83 C78 1.415 . S
C83 C82 1.387 . S
H84 C92 0.930 . S
H85 C95 0.930 . S
H86 C97 0.930 . S
H87 C98 0.970 1_554 S
H88 C98 0.970 . S
H89 C100 0.930 . S
H90 C102 0.930 . S
H91 C104 0.930 . S
C92 H84 0.930 . S
C92 C93 1.382 1_554 S
C92 C94 1.426 1_554 S
C93 C92 1.382 1_556 S
C93 C97 1.389 . S
C94 C92 1.426 1_556 S
C94 C95 1.375 . S
C94 C98 1.532 . S
C95 H85 0.930 . S
C95 C94 1.375 . S
C95 C96 1.416 . S
C96 C95 1.416 . S
C96 C97 1.371 . S
C97 H86 0.930 . S
C97 C93 1.389 . S
C97 C96 1.371 . S
C98 H87 0.970 1_556 S
C98 H88 0.970 . S
C98 C94 1.532 . S
C98 C99 1.499 1_545 S
C99 C98 1.499 1_565 S
C99 C100 1.370 1_556 S
C99 C104 1.415 . S
C100 H89 0.930 . S
C100 C99 1.370 1_554 S
C100 C101 1.407 . S
C101 C100 1.407 . S
C101 C102 1.365 . S
C102 H90 0.930 . S
C102 C101 1.365 . S
C102 C103 1.393 1_554 S
C103 C102 1.393 1_556 S
C103 C104 1.387 . S
C104 H91 0.930 . S
C104 C99 1.415 . S
C104 C103 1.387 . S
H105 C113 0.930 . S
H106 C116 0.930 . S
H107 C118 0.930 . S
H108 C119 0.970 . S
H109 C119 0.970 . S
H110 C121 0.930 . S
H111 C123 0.930 . S
H112 C125 0.930 . S
C113 H105 0.930 . S
C113 C114 1.382 . S
C113 C115 1.426 . S
C114 C113 1.382 . S
C114 C118 1.389 . S
C115 C113 1.426 . S
C115 C116 1.375 . S
C115 C119 1.532 . S
C116 H106 0.930 . S
C116 C115 1.375 . S
C116 C117 1.416 . S
C117 C116 1.416 . S
C117 C118 1.371 . S
C118 H107 0.930 . S
C118 C114 1.389 . S
C118 C117 1.371 . S
C119 H108 0.970 . S
C119 H109 0.970 . S
C119 C115 1.532 . S
C119 C120 1.499 . S
C120 C119 1.499 . S
C120 C121 1.370 . S
C120 C125 1.415 . S
C121 H110 0.930 . S
C121 C120 1.370 . S
C121 C122 1.407 . S
C122 C121 1.407 . S
C122 C123 1.365 . S
C123 H111 0.930 . S
C123 C122 1.365 . S
C123 C124 1.393 . S
C124 C123 1.393 . S
C124 C125 1.387 . S
C125 H112 0.930 . S
C125 C120 1.415 . S
C125 C124 1.387 . S
Zn126 O129 2.031 . S
Zn126 O131 2.049 . S
Zn126 O136 2.067 . S
Zn127 O128 1.962 . S
Zn127 O130 1.986 . S
Zn127 O132 1.996 . S
Zn127 O135 1.943 . S
O128 Zn127 1.962 . S
O128 C133 1.254 . S
O129 Zn126 2.031 . S
O129 C133 1.269 . S
O130 Zn127 1.986 . S
O130 C137 1.262 . S
O131 Zn126 2.049 . S
O131 C139 1.260 . S
O132 Zn127 1.996 . S
O132 C139 1.257 . S
C133 O128 1.254 . S
C133 O129 1.269 . S
C134 O135 1.249 . S
C134 O136 1.270 . S
O135 Zn127 1.943 . S
O135 C134 1.249 . S
O136 Zn126 2.067 . S
O136 C134 1.270 . S
C137 O130 1.262 . S
C137 O138 1.232 . S
O138 C137 1.232 . S
C139 O131 1.260 . S
C139 O132 1.257 . S
Zn140 O143 2.031 . S
Zn140 O145 2.049 . S
Zn140 O150 2.067 . S
Zn141 O142 1.962 . S
Zn141 O144 1.986 . S
Zn141 O146 1.996 . S
Zn141 O149 1.943 . S
O142 Zn141 1.962 . S
O142 C147 1.254 . S
O143 Zn140 2.031 . S
O143 C147 1.269 . S
O144 Zn141 1.986 . S
O144 C151 1.262 . S
O145 Zn140 2.049 . S
O145 C153 1.260 . S
O146 Zn141 1.996 . S
O146 C153 1.257 . S
C147 O142 1.254 . S
C147 O143 1.269 . S
C148 O149 1.249 . S
C148 O150 1.270 . S
O149 Zn141 1.943 . S
O149 C148 1.249 . S
O150 Zn140 2.067 . S
O150 C148 1.270 . S
C151 O144 1.262 . S
C151 O152 1.232 . S
O152 C151 1.232 . S
C153 O145 1.260 . S
C153 O146 1.257 . S
Zn154 O157 2.031 . S
Zn154 O159 2.049 . S
Zn154 O164 2.067 . S
Zn155 O156 1.962 . S
Zn155 O158 1.986 . S
Zn155 O160 1.996 . S
Zn155 O163 1.943 . S
O156 Zn155 1.962 . S
O156 C161 1.254 . S
O157 Zn154 2.031 . S
O157 C161 1.269 . S
O158 Zn155 1.986 . S
O158 C165 1.262 . S
O159 Zn154 2.049 . S
O159 C167 1.260 . S
O160 Zn155 1.996 . S
O160 C167 1.257 . S
C161 O156 1.254 . S
C161 O157 1.269 . S
C162 O163 1.249 . S
C162 O164 1.270 . S
O163 Zn155 1.943 . S
O163 C162 1.249 . S
O164 Zn154 2.067 . S
O164 C162 1.270 . S
C165 O158 1.262 . S
C165 O166 1.232 . S
O166 C165 1.232 . S
C167 O159 1.260 . S
C167 O160 1.257 . S
Zn168 O171 2.031 . S
Zn168 O173 2.049 . S
Zn168 O178 2.067 . S
Zn169 O170 1.962 . S
Zn169 O172 1.986 . S
Zn169 O174 1.996 . S
Zn169 O177 1.943 . S
O170 Zn169 1.962 . S
O170 C175 1.254 . S
O171 Zn168 2.031 . S
O171 C175 1.269 . S
O172 Zn169 1.986 . S
O172 C179 1.262 . S
O173 Zn168 2.049 . S
O173 C181 1.260 . S
O174 Zn169 1.996 . S
O174 C181 1.257 . S
C175 O170 1.254 . S
C175 O171 1.269 . S
C176 O177 1.249 . S
C176 O178 1.270 . S
O177 Zn169 1.943 . S
O177 C176 1.249 . S
O178 Zn168 2.067 . S
O178 C176 1.270 . S
C179 O172 1.262 . S
C179 O180 1.232 . S
O180 C179 1.232 . S
C181 O173 1.260 . S
C181 O174 1.257 . S
Zn182 O185 2.031 . S
Zn182 O187 2.049 . S
Zn182 O192 2.067 . S
Zn183 O184 1.962 . S
Zn183 O186 1.986 . S
Zn183 O188 1.996 . S
Zn183 O191 1.943 . S
O184 Zn183 1.962 . S
O184 C189 1.254 . S
O185 Zn182 2.031 . S
O185 C189 1.269 . S
O186 Zn183 1.986 . S
O186 C193 1.262 . S
O187 Zn182 2.049 . S
O187 C195 1.260 . S
O188 Zn183 1.996 . S
O188 C195 1.257 . S
C189 O184 1.254 . S
C189 O185 1.269 . S
C190 O191 1.249 . S
C190 O192 1.270 . S
O191 Zn183 1.943 . S
O191 C190 1.249 . S
O192 Zn182 2.067 . S
O192 C190 1.270 . S
C193 O186 1.262 . S
C193 O194 1.232 . S
O194 C193 1.232 . S
C195 O187 1.260 . S
C195 O188 1.257 . S
Zn196 O199 2.031 . S
Zn196 O201 2.049 . S
Zn196 O206 2.067 . S
Zn197 O198 1.962 . S
Zn197 O200 1.986 . S
Zn197 O202 1.996 . S
Zn197 O205 1.943 . S
O198 Zn197 1.962 . S
O198 C203 1.254 . S
O199 Zn196 2.031 . S
O199 C203 1.269 . S
O200 Zn197 1.986 . S
O200 C207 1.262 . S
O201 Zn196 2.049 . S
O201 C209 1.260 . S
O202 Zn197 1.996 . S
O202 C209 1.257 . S
C203 O198 1.254 . S
C203 O199 1.269 . S
C204 O205 1.249 . S
C204 O206 1.270 . S
O205 Zn197 1.943 . S
O205 C204 1.249 . S
O206 Zn196 2.067 . S
O206 C204 1.270 . S
C207 O200 1.262 . S
C207 O208 1.232 . S
O208 C207 1.232 . S
C209 O201 1.260 . S
C209 O202 1.257 . S
H210 C216 0.930 . S
H211 C219 0.930 . S
H212 C220 0.930 . S
H213 C221 0.930 . S
H214 C224 0.930 . S
H215 C225 0.930 . S
C216 H210 0.930 . S
C216 C217 1.355 . S
C216 C218 1.415 . S
C217 C216 1.355 . S
C217 C219 1.419 . S
C218 C216 1.415 . S
C218 C223 1.425 . S
C218 C225 1.409 . S
C219 H211 0.930 . S
C219 C217 1.419 . S
C219 C220 1.362 . S
C220 H212 0.930 . S
C220 C219 1.362 . S
C220 C223 1.409 . S
C221 H213 0.930 . S
C221 C222 1.355 . S
C221 C223 1.415 . S
C222 C221 1.355 . S
C222 C224 1.419 . S
C223 C218 1.425 . S
C223 C220 1.409 . S
C223 C221 1.415 . S
C224 H214 0.930 . S
C224 C222 1.419 . S
C224 C225 1.362 . S
C225 H215 0.930 . S
C225 C218 1.409 . S
C225 C224 1.362 . S
H226 C232 0.930 . S
H227 C235 0.930 . S
H228 C236 0.930 . S
H229 C237 0.930 . S
H230 C240 0.930 . S
H231 C241 0.930 . S
C232 H226 0.930 . S
C232 C233 1.355 . S
C232 C234 1.415 . S
C233 C232 1.355 . S
C233 C235 1.419 . S
C234 C232 1.415 . S
C234 C239 1.425 . S
C234 C241 1.409 . S
C235 H227 0.930 . S
C235 C233 1.419 . S
C235 C236 1.362 . S
C236 H228 0.930 . S
C236 C235 1.362 . S
C236 C239 1.409 . S
C237 H229 0.930 . S
C237 C238 1.355 . S
C237 C239 1.415 . S
C238 C237 1.355 . S
C238 C240 1.419 . S
C239 C234 1.425 . S
C239 C236 1.409 . S
C239 C237 1.415 . S
C240 H230 0.930 . S
C240 C238 1.419 . S
C240 C241 1.362 . S
C241 H231 0.930 . S
C241 C234 1.409 . S
C241 C240 1.362 . S
H242 C248 0.930 . S
H243 C251 0.930 . S
H244 C252 0.930 . S
H245 C253 0.930 . S
H246 C256 0.930 . S
H247 C257 0.930 . S
C248 H242 0.930 . S
C248 C249 1.355 . S
C248 C250 1.415 . S
C249 C248 1.355 . S
C249 C251 1.419 . S
C250 C248 1.415 . S
C250 C255 1.425 . S
C250 C257 1.409 . S
C251 H243 0.930 . S
C251 C249 1.419 . S
C251 C252 1.362 . S
C252 H244 0.930 . S
C252 C251 1.362 . S
C252 C255 1.409 . S
C253 H245 0.930 . S
C253 C254 1.355 . S
C253 C255 1.415 . S
C254 C253 1.355 . S
C254 C256 1.419 . S
C255 C250 1.425 . S
C255 C252 1.409 . S
C255 C253 1.415 . S
C256 H246 0.930 . S
C256 C254 1.419 . S
C256 C257 1.362 . S
C257 H247 0.930 . S
C257 C250 1.409 . S
C257 C256 1.362 . S
H258 C264 0.930 . S
H259 C267 0.930 . S
H260 C268 0.930 . S
H261 C269 0.930 . S
H262 C272 0.930 . S
H263 C273 0.930 . S
C264 H258 0.930 . S
C264 C265 1.355 . S
C264 C266 1.415 . S
C265 C264 1.355 . S
C265 C267 1.419 . S
C266 C264 1.415 . S
C266 C271 1.425 . S
C266 C273 1.409 . S
C267 H259 0.930 . S
C267 C265 1.419 . S
C267 C268 1.362 . S
C268 H260 0.930 . S
C268 C267 1.362 . S
C268 C271 1.409 . S
C269 H261 0.930 . S
C269 C270 1.355 . S
C269 C271 1.415 . S
C270 C269 1.355 . S
C270 C272 1.419 . S
C271 C266 1.425 . S
C271 C268 1.409 . S
C271 C269 1.415 . S
C272 H262 0.930 . S
C272 C270 1.419 . S
C272 C273 1.362 . S
C273 H263 0.930 . S
C273 C266 1.409 . S
C273 C272 1.362 . S
H274 C280 0.930 . S
H275 C283 0.930 . S
H276 C284 0.930 . S
H277 C285 0.930 . S
H278 C288 0.930 . S
H279 C289 0.930 . S
C280 H274 0.930 . S
C280 C281 1.355 . S
C280 C282 1.415 . S
C281 C280 1.355 . S
C281 C283 1.419 . S
C282 C280 1.415 . S
C282 C287 1.425 . S
C282 C289 1.409 . S
C283 H275 0.930 . S
C283 C281 1.419 . S
C283 C284 1.362 . S
C284 H276 0.930 . S
C284 C283 1.362 . S
C284 C287 1.409 . S
C285 H277 0.930 . S
C285 C286 1.355 . S
C285 C287 1.415 . S
C286 C285 1.355 . S
C286 C288 1.419 . S
C287 C282 1.425 . S
C287 C284 1.409 . S
C287 C285 1.415 . S
C288 H278 0.930 . S
C288 C286 1.419 . S
C288 C289 1.362 . S
C289 H279 0.930 . S
C289 C282 1.409 . S
C289 C288 1.362 . S
H290 C296 0.930 . S
H291 C299 0.930 . S
H292 C300 0.930 . S
H293 C301 0.930 . S
H294 C304 0.930 . S
H295 C305 0.930 . S
C296 H290 0.930 . S
C296 C297 1.355 . S
C296 C298 1.415 . S
C297 C296 1.355 . S
C297 C299 1.419 . S
C298 C296 1.415 . S
C298 C303 1.425 . S
C298 C305 1.409 . S
C299 H291 0.930 . S
C299 C297 1.419 . S
C299 C300 1.362 . S
C300 H292 0.930 . S
C300 C299 1.362 . S
C300 C303 1.409 . S
C301 H293 0.930 . S
C301 C302 1.355 . S
C301 C303 1.415 . S
C302 C301 1.355 . S
C302 C304 1.419 . S
C303 C298 1.425 . S
C303 C300 1.409 . S
C303 C301 1.415 . S
C304 H294 0.930 . S
C304 C302 1.419 . S
C304 C305 1.362 . S
C305 H295 0.930 . S
C305 C298 1.409 . S
C305 C304 1.362 . S
H306 C312 0.930 . S
H307 C315 0.930 . S
H308 C316 0.930 . S
H309 C317 0.930 . S
H310 C320 0.930 . S
H311 C321 0.930 . S
C312 H306 0.930 . S
C312 C313 1.355 . S
C312 C314 1.415 . S
C313 C312 1.355 . S
C313 C315 1.419 . S
C314 C312 1.415 . S
C314 C319 1.425 . S
C314 C321 1.409 . S
C315 H307 0.930 . S
C315 C313 1.419 . S
C315 C316 1.362 . S
C316 H308 0.930 . S
C316 C315 1.362 . S
C316 C319 1.409 . S
C317 H309 0.930 . S
C317 C318 1.355 . S
C317 C319 1.415 . S
C318 C317 1.355 . S
C318 C320 1.419 . S
C319 C314 1.425 . S
C319 C316 1.409 . S
C319 C317 1.415 . S
C320 H310 0.930 . S
C320 C318 1.419 . S
C320 C321 1.362 . S
C321 H311 0.930 . S
C321 C314 1.409 . S
C321 C320 1.362 . S
H322 C328 0.930 . S
H323 C331 0.930 . S
H324 C332 0.930 . S
H325 C333 0.930 . S
H326 C336 0.930 . S
H327 C337 0.930 . S
C328 H322 0.930 . S
C328 C329 1.355 . S
C328 C330 1.415 . S
C329 C328 1.355 . S
C329 C331 1.419 . S
C330 C328 1.415 . S
C330 C335 1.425 . S
C330 C337 1.409 . S
C331 H323 0.930 . S
C331 C329 1.419 . S
C331 C332 1.362 . S
C332 H324 0.930 . S
C332 C331 1.362 . S
C332 C335 1.409 . S
C333 H325 0.930 . S
C333 C334 1.355 . S
C333 C335 1.415 . S
C334 C333 1.355 . S
C334 C336 1.419 . S
C335 C330 1.425 . S
C335 C332 1.409 . S
C335 C333 1.415 . S
C336 H326 0.930 . S
C336 C334 1.419 . S
C336 C337 1.362 . S
C337 H327 0.930 . S
C337 C330 1.409 . S
C337 C336 1.362 . S
H338 C344 0.930 . S
H339 C347 0.930 . S
H340 C348 0.930 . S
H341 C349 0.930 . S
H342 C352 0.930 . S
H343 C353 0.930 . S
C344 H338 0.930 . S
C344 C345 1.355 . S
C344 C346 1.415 . S
C345 C344 1.355 . S
C345 C347 1.419 . S
C346 C344 1.415 . S
C346 C351 1.425 . S
C346 C353 1.409 . S
C347 H339 0.930 . S
C347 C345 1.419 . S
C347 C348 1.362 . S
C348 H340 0.930 . S
C348 C347 1.362 . S
C348 C351 1.409 . S
C349 H341 0.930 . S
C349 C350 1.355 . S
C349 C351 1.415 . S
C350 C349 1.355 . S
C350 C352 1.419 . S
C351 C346 1.425 . S
C351 C348 1.409 . S
C351 C349 1.415 . S
C352 H342 0.930 . S
C352 C350 1.419 . S
C352 C353 1.362 . S
C353 H343 0.930 . S
C353 C346 1.409 . S
C353 C352 1.362 . S
H354 C360 0.930 1_556 S
H355 C363 0.930 . S
H356 C364 0.930 . S
H357 C365 0.930 . S
H358 C368 0.930 . S
H359 C369 0.912 1_556 S
C360 H354 0.930 1_554 S
C360 C361 1.355 . S
C360 C362 1.415 . S
C361 C360 1.355 . S
C361 C363 1.419 . S
C362 C360 1.415 . S
C362 C367 1.425 . S
C362 C369 1.409 . S
C363 H355 0.930 . S
C363 C361 1.419 . S
C363 C364 1.362 . S
C364 H356 0.930 . S
C364 C363 1.362 . S
C364 C367 1.409 . S
C365 H357 0.930 . S
C365 C366 1.355 . S
C365 C367 1.415 . S
C366 C365 1.355 . S
C366 C368 1.419 . S
C367 C362 1.425 . S
C367 C364 1.409 . S
C367 C365 1.415 . S
C368 H358 0.930 . S
C368 C366 1.419 . S
C368 C369 1.362 . S
C369 H359 0.912 1_554 S
C369 C362 1.409 . S
C369 C368 1.362 . S
H370 C376 0.930 . S
H371 C379 0.930 . S
H372 C380 0.930 . S
H373 C381 0.930 . S
H374 C384 0.930 . S
H375 C385 0.930 . S
C376 H370 0.930 . S
C376 C377 1.355 . S
C376 C378 1.415 . S
C377 C376 1.355 . S
C377 C379 1.419 . S
C378 C376 1.415 . S
C378 C383 1.425 . S
C378 C385 1.409 . S
C379 H371 0.930 . S
C379 C377 1.419 . S
C379 C380 1.362 . S
C380 H372 0.930 . S
C380 C379 1.362 . S
C380 C383 1.409 . S
C381 H373 0.930 . S
C381 C382 1.355 . S
C381 C383 1.415 . S
C382 C381 1.355 . S
C382 C384 1.419 . S
C383 C378 1.425 . S
C383 C380 1.409 . S
C383 C381 1.415 . S
C384 H374 0.930 . S
C384 C382 1.419 . S
C384 C385 1.362 . S
C385 H375 0.930 . S
C385 C378 1.409 . S
C385 C384 1.362 . S
H386 C392 0.930 . S
H387 C395 0.930 . S
H388 C396 0.930 . S
H389 C397 0.930 . S
H390 C400 0.930 . S
H391 C401 0.930 . S
C392 H386 0.930 . S
C392 C393 1.355 . S
C392 C394 1.415 . S
C393 C392 1.355 . S
C393 C395 1.419 . S
C394 C392 1.415 . S
C394 C399 1.425 . S
C394 C401 1.409 . S
C395 H387 0.930 . S
C395 C393 1.419 . S
C395 C396 1.362 . S
C396 H388 0.930 . S
C396 C395 1.362 . S
C396 C399 1.409 . S
C397 H389 0.930 . S
C397 C398 1.355 . S
C397 C399 1.415 . S
C398 C397 1.355 . S
C398 C400 1.419 . S
C399 C394 1.425 . S
C399 C396 1.409 . S
C399 C397 1.415 . S
C400 H390 0.930 . S
C400 C398 1.419 . S
C400 C401 1.362 . S
C401 H391 0.930 . S
C401 C394 1.409 . S
C401 C400 1.362 . S
H402 C408 0.930 . S
H403 C411 0.930 . S
H404 C412 0.930 . S
H405 C413 0.930 . S
H406 C416 0.930 . S
H407 C417 0.930 . S
C408 H402 0.930 . S
C408 C409 1.355 . S
C408 C410 1.415 . S
C409 C408 1.355 . S
C409 C411 1.419 . S
C410 C408 1.415 . S
C410 C415 1.425 . S
C410 C417 1.409 . S
C411 H403 0.930 . S
C411 C409 1.419 . S
C411 C412 1.362 . S
C412 H404 0.930 . S
C412 C411 1.362 . S
C412 C415 1.409 . S
C413 H405 0.930 . S
C413 C414 1.355 . S
C413 C415 1.415 . S
C414 C413 1.355 . S
C414 C416 1.419 . S
C415 C410 1.425 . S
C415 C412 1.409 . S
C415 C413 1.415 . S
C416 H406 0.930 . S
C416 C414 1.419 . S
C416 C417 1.362 . S
C417 H407 0.930 . S
C417 C410 1.409 . S
C417 C416 1.362 . S
H418 C424 0.930 . S
H419 C427 0.930 . S
H420 C428 0.930 . S
H421 C429 0.930 . S
H422 C432 0.930 . S
H423 C433 0.930 . S
C424 H418 0.930 . S
C424 C425 1.355 . S
C424 C426 1.415 . S
C425 C424 1.355 . S
C425 C427 1.419 . S
C426 C424 1.415 . S
C426 C431 1.425 . S
C426 C433 1.409 . S
C427 H419 0.930 . S
C427 C425 1.419 . S
C427 C428 1.362 . S
C428 H420 0.930 . S
C428 C427 1.362 . S
C428 C431 1.409 . S
C429 H421 0.930 . S
C429 C430 1.355 . S
C429 C431 1.415 . S
C430 C429 1.355 . S
C430 C432 1.419 . S
C431 C426 1.425 . S
C431 C428 1.409 . S
C431 C429 1.415 . S
C432 H422 0.930 . S
C432 C430 1.419 . S
C432 C433 1.362 . S
C433 H423 0.930 . S
C433 C426 1.409 . S
C433 C432 1.362 . S
H434 C440 0.930 . S
H435 C443 0.930 . S
H436 C444 0.930 . S
H437 C445 0.930 . S
H438 C448 0.930 . S
H439 C449 0.930 . S
C440 H434 0.930 . S
C440 C441 1.355 . S
C440 C442 1.415 . S
C441 C440 1.355 . S
C441 C443 1.419 . S
C442 C440 1.415 . S
C442 C447 1.425 . S
C442 C449 1.409 . S
C443 H435 0.930 . S
C443 C441 1.419 . S
C443 C444 1.362 . S
C444 H436 0.930 . S
C444 C443 1.362 . S
C444 C447 1.409 . S
C445 H437 0.930 . S
C445 C446 1.355 . S
C445 C447 1.415 . S
C446 C445 1.355 . S
C446 C448 1.419 . S
C447 C442 1.425 . S
C447 C444 1.409 . S
C447 C445 1.415 . S
C448 H438 0.930 . S
C448 C446 1.419 . S
C448 C449 1.362 . S
C449 H439 0.930 . S
C449 C442 1.409 . S
C449 C448 1.362 . S
H450 C456 0.930 . S
H451 C459 0.930 . S
H452 C460 0.930 . S
H453 C461 0.930 . S
H454 C464 0.930 . S
H455 C465 0.930 . S
C456 H450 0.930 . S
C456 C457 1.355 . S
C456 C458 1.415 . S
C457 C456 1.355 . S
C457 C459 1.419 . S
C458 C456 1.415 . S
C458 C463 1.425 . S
C458 C465 1.409 . S
C459 H451 0.930 . S
C459 C457 1.419 . S
C459 C460 1.362 . S
C460 H452 0.930 . S
C460 C459 1.362 . S
C460 C463 1.409 . S
C461 H453 0.930 . S
C461 C462 1.355 . S
C461 C463 1.415 . S
C462 C461 1.355 . S
C462 C464 1.419 1_556 S
C463 C458 1.425 . S
C463 C460 1.409 . S
C463 C461 1.415 . S
C464 H454 0.930 . S
C464 C462 1.419 1_554 S
C464 C465 1.362 1_554 S
C465 H455 0.930 . S
C465 C458 1.409 . S
C465 C464 1.362 1_556 S
H466 C472 0.930 . S
H467 C475 0.930 . S
H468 C476 0.930 . S
H469 C477 0.930 . S
H470 C480 0.930 . S
H471 C481 0.930 . S
C472 H466 0.930 . S
C472 C473 1.355 . S
C472 C474 1.415 . S
C473 C472 1.355 . S
C473 C475 1.419 . S
C474 C472 1.415 . S
C474 C479 1.425 . S
C474 C481 1.409 . S
C475 H467 0.930 . S
C475 C473 1.419 . S
C475 C476 1.362 . S
C476 H468 0.930 . S
C476 C475 1.362 . S
C476 C479 1.409 . S
C477 H469 0.930 . S
C477 C478 1.355 . S
C477 C479 1.415 . S
C478 C477 1.355 . S
C478 C480 1.419 . S
C479 C474 1.425 . S
C479 C476 1.409 . S
C479 C477 1.415 . S
C480 H470 0.930 . S
C480 C478 1.419 . S
C480 C481 1.362 . S
C481 H471 0.930 . S
C481 C474 1.409 . S
C481 C480 1.362 . S
H482 C488 0.930 . S
H483 C491 0.930 . S
H484 C492 0.930 . S
H485 C493 0.930 . S
H486 C496 0.930 . S
H487 C497 0.930 . S
C488 H482 0.930 . S
C488 C489 1.355 . S
C488 C490 1.415 . S
C489 C488 1.355 . S
C489 C491 1.419 . S
C490 C488 1.415 . S
C490 C495 1.425 . S
C490 C497 1.409 . S
C491 H483 0.930 . S
C491 C489 1.419 . S
C491 C492 1.362 . S
C492 H484 0.930 . S
C492 C491 1.362 . S
C492 C495 1.409 . S
C493 H485 0.930 . S
C493 C494 1.355 . S
C493 C495 1.415 . S
C494 C493 1.355 . S
C494 C496 1.419 . S
C495 C490 1.425 . S
C495 C492 1.409 . S
C495 C493 1.415 . S
C496 H486 0.930 . S
C496 C494 1.419 . S
C496 C497 1.362 . S
C497 H487 0.930 . S
C497 C490 1.409 . S
C497 C496 1.362 . S
H498 C504 0.930 . S
H499 C507 0.930 . S
H500 C508 0.930 . S
H501 C509 0.930 . S
H502 C512 0.930 . S
H503 C513 0.930 . S
C504 H498 0.930 . S
C504 C505 1.355 . S
C504 C506 1.415 . S
C505 C504 1.355 . S
C505 C507 1.419 . S
C506 C504 1.415 . S
C506 C511 1.425 . S
C506 C513 1.409 . S
C507 H499 0.930 . S
C507 C505 1.419 . S
C507 C508 1.362 . S
C508 H500 0.930 . S
C508 C507 1.362 . S
C508 C511 1.409 . S
C509 H501 0.930 . S
C509 C510 1.355 . S
C509 C511 1.415 . S
C510 C509 1.355 . S
C510 C512 1.419 . S
C511 C506 1.425 . S
C511 C508 1.409 . S
C511 C509 1.415 . S
C512 H502 0.930 . S
C512 C510 1.419 . S
C512 C513 1.362 . S
C513 H503 0.930 . S
C513 C506 1.409 . S
C513 C512 1.362 . S
H514 C520 0.930 . S
H515 C523 0.930 . S
H516 C524 0.930 . S
H517 C525 0.930 . S
H518 C528 0.930 . S
H519 C529 0.930 . S
C520 H514 0.930 . S
C520 C521 1.355 . S
C520 C522 1.415 . S
C521 C520 1.355 . S
C521 C523 1.419 . S
C522 C520 1.415 . S
C522 C527 1.425 . S
C522 C529 1.409 . S
C523 H515 0.930 . S
C523 C521 1.419 . S
C523 C524 1.362 . S
C524 H516 0.930 . S
C524 C523 1.362 . S
C524 C527 1.409 . S
C525 H517 0.930 . S
C525 C526 1.355 . S
C525 C527 1.415 . S
C526 C525 1.355 . S
C526 C528 1.419 . S
C527 C522 1.425 . S
C527 C524 1.409 . S
C527 C525 1.415 . S
C528 H518 0.930 . S
C528 C526 1.419 . S
C528 C529 1.362 . S
C529 H519 0.930 . S
C529 C522 1.409 . S
C529 C528 1.362 . S
H530 C536 0.930 . S
H531 C539 0.930 . S
H532 C540 0.930 . S
H533 C541 0.930 . S
H534 C544 0.930 . S
H535 C545 0.930 . S
C536 H530 0.930 . S
C536 C537 1.355 . S
C536 C538 1.415 . S
C537 C536 1.355 . S
C537 C539 1.419 . S
C538 C536 1.415 . S
C538 C543 1.425 . S
C538 C545 1.409 . S
C539 H531 0.930 . S
C539 C537 1.419 . S
C539 C540 1.362 . S
C540 H532 0.930 . S
C540 C539 1.362 . S
C540 C543 1.409 . S
C541 H533 0.930 . S
C541 C542 1.355 . S
C541 C543 1.415 . S
C542 C541 1.355 . S
C542 C544 1.419 . S
C543 C538 1.425 . S
C543 C540 1.409 . S
C543 C541 1.415 . S
C544 H534 0.930 . S
C544 C542 1.419 . S
C544 C545 1.362 . S
C545 H535 0.930 . S
C545 C538 1.409 . S
C545 C544 1.362 . S
H546 C552 0.930 . S
H547 C555 0.930 . S
H548 C556 0.930 . S
H549 C557 0.930 . S
H550 C560 0.930 . S
H551 C561 0.930 . S
C552 H546 0.930 . S
C552 C553 1.355 . S
C552 C554 1.415 . S
C553 C552 1.355 . S
C553 C555 1.419 . S
C554 C552 1.415 . S
C554 C559 1.425 . S
C554 C561 1.409 . S
C555 H547 0.930 . S
C555 C553 1.419 . S
C555 C556 1.362 . S
C556 H548 0.930 . S
C556 C555 1.362 . S
C556 C559 1.409 . S
C557 H549 0.930 . S
C557 C558 1.355 . S
C557 C559 1.415 . S
C558 C557 1.355 . S
C558 C560 1.419 . S
C559 C554 1.425 . S
C559 C556 1.409 . S
C559 C557 1.415 . S
C560 H550 0.930 . S
C560 C558 1.419 . S
C560 C561 1.362 . S
C561 H551 0.930 . S
C561 C554 1.409 . S
C561 C560 1.362 . S
H562 C568 0.930 . S
H563 C571 0.930 . S
H564 C572 0.930 . S
H565 C573 0.930 . S
H566 C576 0.930 . S
H567 C577 0.930 . S
C568 H562 0.930 . S
C568 C569 1.355 . S
C568 C570 1.415 . S
C569 C568 1.355 . S
C569 C571 1.419 . S
C570 C568 1.415 . S
C570 C575 1.425 . S
C570 C577 1.409 . S
C571 H563 0.930 . S
C571 C569 1.419 . S
C571 C572 1.362 . S
C572 H564 0.930 . S
C572 C571 1.362 . S
C572 C575 1.409 . S
C573 H565 0.930 . S
C573 C574 1.355 . S
C573 C575 1.415 1_556 S
C574 C573 1.355 . S
C574 C576 1.419 1_556 S
C575 C570 1.425 . S
C575 C572 1.409 . S
C575 C573 1.415 1_554 S
C576 H566 0.930 . S
C576 C574 1.419 1_554 S
C576 C577 1.362 . S
C577 H567 0.930 . S
C577 C570 1.409 . S
C577 C576 1.362 . S
H578 C584 0.930 . S
H579 C587 0.930 . S
H580 C588 0.930 . S
H581 C589 0.930 . S
H582 C592 0.930 . S
H583 C593 0.930 . S
C584 H578 0.930 . S
C584 C585 1.355 . S
C584 C586 1.415 . S
C585 C584 1.355 . S
C585 C587 1.419 . S
C586 C584 1.415 . S
C586 C591 1.425 . S
C586 C593 1.409 . S
C587 H579 0.930 . S
C587 C585 1.419 . S
C587 C588 1.362 . S
C588 H580 0.930 . S
C588 C587 1.362 . S
C588 C591 1.409 . S
C589 H581 0.930 . S
C589 C590 1.355 . S
C589 C591 1.415 . S
C590 C589 1.355 . S
C590 C592 1.419 . S
C591 C586 1.425 . S
C591 C588 1.409 . S
C591 C589 1.415 . S
C592 H582 0.930 . S
C592 C590 1.419 . S
C592 C593 1.362 . S
C593 H583 0.930 . S
C593 C586 1.409 . S
C593 C592 1.362 . S
C222 C203 1.553 . S
C217 C19 1.502 . S
C233 C40 1.432 . S
C238 C137 1.493 . S
C249 C51 1.400 . S
C254 C151 1.429 . S
C265 C72 1.409 . S
C270 C165 1.488 . S
C286 C179 1.457 . S
C281 C103 1.374 . S
C297 C114 1.467 . S
C302 C189 1.517 . S
C313 C30 1.431 . S
C318 C147 1.572 . S
C329 C61 1.518 . S
C334 C161 1.614 . S
C345 C82 1.419 . S
C350 C175 1.556 . S
C366 C193 1.480 . S
C361 C93 1.435 1_554 S
C382 C207 1.497 . S
C377 C124 1.464 . S
C398 C133 1.540 . S
C393 C9 1.489 . S
C409 C17 1.410 . S
C414 C148 1.414 . S
C425 C38 1.520 . S
C430 C162 1.555 . S
C446 C176 1.482 . S
C441 C54 1.454 . S
C457 C75 1.368 . S
C462 C195 1.403 1_556 S
C478 C209 1.438 . S
C473 C101 1.438 . S
C494 C134 1.410 . S
C489 C117 1.370 . S
C510 C204 1.429 . S
C505 C33 1.373 . S
C521 C59 1.316 . S
C526 C139 1.316 . S
C542 C153 1.400 . S
C537 C80 1.396 . S
C553 C96 1.372 . S
C558 C167 1.378 . S
C569 C122 1.446 . S
C574 C181 1.434 . S
C585 C12 1.481 . S
C590 C190 1.495 . S
