# Generated by pormake.
# Topology pth, (4,4)-cn, num edge types: 1
# Building blocks:
#     Node 0, Type 0, BuildingBlock: KUFVIS_clean_sbu_0, # of connection points: 4
#     Node 1, Type 0, BuildingBlock: KUFVIS_clean_sbu_0, # of connection points: 4
#     Node 2, Type 0, BuildingBlock: KUFVIS_clean_sbu_0, # of connection points: 4
#     Node 3, Type 1, BuildingBlock: AZAVOO_clean_linker_0, # of connection points: 4
#     Node 4, Type 1, BuildingBlock: AZAVOO_clean_linker_0, # of connection points: 4
#     Node 5, Type 1, BuildingBlock: AZAVOO_clean_linker_0, # of connection points: 4
#     Edge 6, Type (0, 1), BuildingBlock: CIFDUS_clean_linker_0, # of connection points: 2
#     Edge 7, Type (0, 1), BuildingBlock: CIFDUS_clean_linker_0, # of connection points: 2
#     Edge 8, Type (0, 1), BuildingBlock: CIFDUS_clean_linker_0, # of connection points: 2
#     Edge 9, Type (0, 1), BuildingBlock: CIFDUS_clean_linker_0, # of connection points: 2
#     Edge 10, Type (0, 1), BuildingBlock: CIFDUS_clean_linker_0, # of connection points: 2
#     Edge 11, Type (0, 1), BuildingBlock: CIFDUS_clean_linker_0, # of connection points: 2
#     Edge 12, Type (0, 1), BuildingBlock: CIFDUS_clean_linker_0, # of connection points: 2
#     Edge 13, Type (0, 1), BuildingBlock: CIFDUS_clean_linker_0, # of connection points: 2
#     Edge 14, Type (0, 1), BuildingBlock: CIFDUS_clean_linker_0, # of connection points: 2
#     Edge 15, Type (0, 1), BuildingBlock: CIFDUS_clean_linker_0, # of connection points: 2
#     Edge 16, Type (0, 1), BuildingBlock: CIFDUS_clean_linker_0, # of connection points: 2
#     Edge 17, Type (0, 1), BuildingBlock: CIFDUS_clean_linker_0, # of connection points: 2
# Relax obj value: 0.118
# Max RMSD: 0.225
# Mean RMSD: 0.161
data_MOF--net-pth--node1-KUFVIS_clean_sbu_0--node2-AZAVOO_clean_linker_0--edge1-CIFDUS_clean_linker_0
_symmetry_space_group_name_H-M    P1
_symmetry_Int_Tables_number       1
_symmetry_cell_setting            triclinic
loop_
_symmetry_equiv_pos_as_xyz
'x, y, z'
_cell_length_a     23.287717
_cell_length_b     23.562057
_cell_length_c     64.075027
_cell_angle_alpha  92.754284
_cell_angle_beta   90.926769
_cell_angle_gamma 120.19445
loop_
_atom_site_label
_atom_site_type_symbol
_atom_site_fract_x
_atom_site_fract_y
_atom_site_fract_z
_atom_type_partial_charge
Mn0 Mn 0.0985 0.07997 0.06822 0.0
Mn1 Mn 0.02892 0.16096 0.04675 0.0
C2 C 0.04811 0.0466 0.03526 0.0
C3 C 0.09036 -0.00041 0.08973 0.0
C4 C 0.17676 0.21081 0.04759 0.0
O5 O 0.09311 0.13349 0.09311 0.0
O6 O 0.044 0.18277 0.07741 0.0
C7 C 0.89886 0.09067 0.06629 0.0
N8 N 0.93466 0.11055 0.04883 0.0
C9 C 0.83495 0.06155 0.02661 0.0
C10 C 0.79695 0.04088 0.04437 0.0
C11 C 0.82907 0.0553 0.06428 0.0
C12 C 0.9043 0.09641 0.02959 0.0
H13 H 0.92341 0.10171 0.08162 0.0
C14 C 0.06881 0.17127 0.0935 0.0
O15 O 0.14777 0.04966 0.08596 0.0
O16 O 0.03807 0.99683 0.08121 0.0
N17 N 0.01104 0.14578 0.01713 0.0
C18 C 0.05495 0.1666 0.00156 0.0
C19 C 0.03087 0.15434 0.98063 0.0
C20 C 0.96205 0.12188 0.97594 0.0
C21 C 0.91789 0.10219 0.99224 0.0
C22 C 0.94478 0.11575 0.0128 0.0
H23 H 0.10792 0.19196 0.00507 0.0
O24 O 0.09025 0.02955 0.04149 0.0
O25 O 0.03461 0.08086 0.0488 0.0
O26 O 0.17535 0.16323 0.05682 0.0
O27 O 0.12519 0.21495 0.04348 0.0
C28 C 0.84821 0.06857 0.9889 0.0
C29 C 0.80677 0.04812 0.00607 0.0
H30 H 0.74312 0.01351 0.04288 0.0
H31 H 0.80009 0.03923 0.07805 0.0
H32 H 0.06529 0.16987 0.96813 0.0
H33 H 0.94366 0.11212 0.95977 0.0
H34 H 0.82596 0.05714 0.97317 0.0
H35 H 0.75327 0.02129 0.00328 0.0
Mn36 Mn 0.03354 0.06052 0.39555 0.0
Mn37 Mn 0.11395 0.21217 0.42028 0.0
C38 C 0.10945 0.08343 0.42263 0.0
C39 C 0.02805 0.98596 0.36927 0.0
C40 C 0.97339 0.10851 0.42935 0.0
O41 O 0.01639 0.11534 0.37546 0.0
O42 O 0.07406 0.21467 0.39288 0.0
C43 C 0.22175 0.27587 0.39077 0.0
N44 N 0.20214 0.25907 0.41054 0.0
C45 C 0.31568 0.30992 0.4238 0.0
C46 C 0.33709 0.32816 0.4036 0.0
C47 C 0.2899 0.31095 0.38702 0.0
C48 C 0.24712 0.27522 0.4266 0.0
H49 H 0.18566 0.26246 0.37795 0.0
C50 C 0.03804 0.17713 0.37715 0.0
O51 O 0.97473 0.97699 0.37828 0.0
O52 O 0.0829 0.04011 0.37452 0.0
N53 N 0.15569 0.2179 0.4469 0.0
C54 C 0.12683 0.19535 0.46535 0.0
C55 C 0.16722 0.20747 0.48344 0.0
C56 C 0.23676 0.24332 0.48244 0.0
C57 C 0.26529 0.26729 0.46339 0.0
C58 C 0.22252 0.25403 0.4459 0.0
H59 H 0.07342 0.1677 0.46624 0.0
O60 O 0.06481 0.02319 0.41706 0.0
O61 O 0.10963 0.12898 0.41186 0.0
O62 O 0.9684 0.06361 0.41616 0.0
O63 O 0.02466 0.16609 0.43164 0.0
C64 C 0.33448 0.30283 0.46097 0.0
C65 C 0.35965 0.32402 0.44119 0.0
H66 H 0.38961 0.35498 0.40062 0.0
H67 H 0.30603 0.32457 0.37137 0.0
H68 H 0.14481 0.18892 0.4981 0.0
H69 H 0.26774 0.25196 0.49638 0.0
H70 H 0.36878 0.31353 0.47419 0.0
H71 H 0.41294 0.35074 0.43949 0.0
Mn72 Mn 0.08724 0.09072 0.73779 0.0
Mn73 Mn 0.04446 0.19787 0.75843 0.0
C74 C 0.15832 0.17395 0.7618 0.0
C75 C 0.14049 0.0623 0.71244 0.0
C76 C 0.98617 0.05806 0.77171 0.0
O77 O 0.01291 0.07811 0.71755 0.0
O78 O 0.99176 0.15492 0.7317 0.0
C79 C 0.09444 0.29558 0.72619 0.0
N80 N 0.09446 0.28094 0.74649 0.0
C81 C 0.17415 0.39377 0.75705 0.0
C82 C 0.17466 0.41011 0.73627 0.0
C83 C 0.13467 0.36078 0.72078 0.0
C84 C 0.13252 0.32808 0.76155 0.0
H85 H 0.06403 0.25776 0.71421 0.0
C86 C 0.9819 0.11005 0.71754 0.0
O87 O 0.09486 0.01781 0.72334 0.0
O88 O 0.15197 0.12192 0.71549 0.0
N89 N 0.09267 0.24305 0.7841 0.0
C90 C 0.09018 0.21829 0.80307 0.0
C91 C 0.12957 0.26078 0.8201 0.0
C92 C 0.17079 0.32825 0.81748 0.0
C93 C 0.17212 0.35267 0.79785 0.0
C94 C 0.13148 0.30804 0.78148 0.0
H95 H 0.05899 0.1664 0.80514 0.0
O96 O 0.16232 0.12124 0.75893 0.0
O97 O 0.11229 0.17604 0.7507 0.0
O98 O 0.01935 0.0414 0.75978 0.0
O99 O 0.99155 0.11479 0.77211 0.0
C100 C 0.21351 0.41923 0.79376 0.0
C101 C 0.21447 0.43978 0.77338 0.0
H102 H 0.20605 0.46024 0.732 0.0
H103 H 0.13506 0.37296 0.70469 0.0
H104 H 0.12853 0.2415 0.83517 0.0
H105 H 0.20173 0.36071 0.83059 0.0
H106 H 0.24563 0.45483 0.80609 0.0
H107 H 0.24723 0.4909 0.77036 0.0
H108 H 0.92513 0.33493 0.09757 0.0
H109 H 0.03298 0.93564 0.24073 0.0
H110 H 0.8816 0.35097 0.20859 0.0
H111 H 0.89831 0.26596 0.19118 0.0
H112 H 0.10786 0.38018 0.20866 0.0
H113 H 0.09069 0.46485 0.22618 0.0
H114 H 0.87612 0.44191 0.1752 0.0
H115 H 0.87726 0.39152 0.14098 0.0
H116 H 0.08726 0.4628 0.15133 0.0
H117 H 0.08538 0.51302 0.18544 0.0
H118 H 0.88097 0.58822 0.19112 0.0
H119 H 0.89243 0.66395 0.1646 0.0
H120 H 0.09198 0.70324 0.15439 0.0
H121 H 0.08106 0.63005 0.18173 0.0
H122 H 0.87514 0.60793 0.24039 0.0
H123 H 0.87517 0.71109 0.24707 0.0
H124 H 0.07649 0.81916 0.22655 0.0
H125 H 0.07617 0.71576 0.22029 0.0
H126 H 0.88472 0.52388 0.27369 0.0
H127 H 0.88348 0.59541 0.30246 0.0
H128 H 0.08428 0.74367 0.28921 0.0
H129 H 0.08632 0.66982 0.26211 0.0
H130 H 0.8892 0.38143 0.25554 0.0
H131 H 0.90106 0.32509 0.28507 0.0
H132 H 0.09942 0.48941 0.29921 0.0
H133 H 0.08676 0.54537 0.26985 0.0
O134 O 0.92603 0.35637 0.11094 0.0
O135 O 0.0341 0.39482 0.11696 0.0
O136 O 0.92801 0.83624 0.24854 0.0
O137 O 0.03135 0.89407 0.23801 0.0
C138 C 0.97977 0.47398 0.22182 0.0
C139 C 0.97868 0.50728 0.20411 0.0
C140 C 0.97707 0.56615 0.20669 0.0
C141 C 0.97669 0.59191 0.22699 0.0
C142 C 0.97997 0.55986 0.24475 0.0
C143 C 0.98106 0.5005 0.2422 0.0
C144 C 0.98503 0.41412 0.21848 0.0
C145 C 0.93045 0.35599 0.20958 0.0
C146 C 0.94009 0.30755 0.19963 0.0
C147 C 0.0045 0.3171 0.1984 0.0
C148 C 0.05781 0.37197 0.20936 0.0
C149 C 0.04802 0.42006 0.21947 0.0
C150 C 0.98055 0.48077 0.18278 0.0
C151 C 0.92236 0.44697 0.16995 0.0
C152 C 0.92315 0.41806 0.15046 0.0
C153 C 0.98228 0.42274 0.14348 0.0
C154 C 0.04082 0.45795 0.15627 0.0
C155 C 0.03992 0.48673 0.17573 0.0
C156 C 0.9801 0.60357 0.18833 0.0
C157 C 0.92678 0.61258 0.18294 0.0
C158 C 0.93341 0.6557 0.1677 0.0
C159 C 0.99336 0.69014 0.15742 0.0
C160 C 0.04559 0.67851 0.16224 0.0
C161 C 0.03911 0.63592 0.17763 0.0
C162 C 0.97555 0.6544 0.22981 0.0
C163 C 0.91908 0.65395 0.23729 0.0
C164 C 0.91926 0.71292 0.24109 0.0
C165 C 0.9759 0.77342 0.23735 0.0
C166 C 0.03208 0.7735 0.22959 0.0
C167 C 0.03193 0.71451 0.22589 0.0
C168 C 0.98548 0.59192 0.26578 0.0
C169 C 0.92934 0.57062 0.27778 0.0
C170 C 0.92835 0.61236 0.29392 0.0
C171 C 0.98313 0.67649 0.29801 0.0
C172 C 0.04118 0.69484 0.28697 0.0
C173 C 0.04262 0.65254 0.27131 0.0
C174 C 0.9869 0.46772 0.26067 0.0
C175 C 0.93501 0.40529 0.26513 0.0
C176 C 0.94206 0.37304 0.2819 0.0
C177 C 0.00116 0.40276 0.29453 0.0
C178 C 0.05285 0.46555 0.29003 0.0
C179 C 0.04578 0.49763 0.27325 0.0
C180 C 0.98265 0.39064 0.12301 0.0
C181 C 0.97669 0.83628 0.24165 0.0
H182 H 0.57754 0.03404 0.43071 0.0
H183 H 0.22489 0.13828 0.62405 0.0
H184 H 0.59195 0.96963 0.538 0.0
H185 H 0.67553 0.98496 0.51329 0.0
H186 H 0.80478 0.18176 0.54124 0.0
H187 H 0.71721 0.16789 0.56431 0.0
H188 H 0.47879 0.97351 0.51485 0.0
H189 H 0.50458 0.98045 0.47785 0.0
H190 H 0.66329 0.18158 0.49075 0.0
H191 H 0.63618 0.17429 0.52761 0.0
H192 H 0.36486 0.96415 0.53913 0.0
H193 H 0.28258 0.9682 0.51595 0.0
H194 H 0.41536 0.17674 0.51132 0.0
H195 H 0.49744 0.17218 0.53468 0.0
H196 H 0.34623 0.96135 0.57923 0.0
H197 H 0.25315 0.96656 0.59451 0.0
H198 H 0.37599 0.17822 0.60336 0.0
H199 H 0.4685 0.17221 0.58801 0.0
H200 H 0.43056 0.95631 0.60974 0.0
H201 H 0.36517 0.96275 0.63789 0.0
H202 H 0.50656 0.17092 0.64853 0.0
H203 H 0.56794 0.16459 0.61897 0.0
H204 H 0.59075 0.96905 0.59976 0.0
H205 H 0.67008 0.98258 0.62806 0.0
H206 H 0.75667 0.19363 0.62873 0.0
H207 H 0.67674 0.1794 0.60089 0.0
O208 O 0.56742 0.03272 0.44533 0.0
O209 O 0.64895 0.13567 0.45286 0.0
O210 O 0.19921 0.02596 0.61264 0.0
O211 O 0.25999 0.13498 0.61724 0.0
C212 C 0.58844 0.06702 0.56104 0.0
C213 C 0.54225 0.06787 0.54652 0.0
C214 C 0.48429 0.06564 0.55356 0.0
C215 C 0.4722 0.06292 0.575 0.0
C216 C 0.51812 0.06222 0.58957 0.0
C217 C 0.57715 0.06591 0.58268 0.0
C218 C 0.64808 0.06775 0.55286 0.0
C219 C 0.63926 0.0153 0.53923 0.0
C220 C 0.6875 0.02437 0.52501 0.0
C221 C 0.74675 0.08551 0.52468 0.0
C222 C 0.75882 0.13491 0.54035 0.0
C223 C 0.70947 0.1265 0.55408 0.0
C224 C 0.55571 0.07332 0.52388 0.0
C225 C 0.51862 0.0192 0.50959 0.0
C226 C 0.53369 0.02323 0.4885 0.0
C227 C 0.58618 0.0815 0.48135 0.0
C228 C 0.62264 0.13594 0.49572 0.0
C229 C 0.60729 0.13192 0.51678 0.0
C230 C 0.43664 0.06791 0.53859 0.0
C231 C 0.37603 0.01063 0.5331 0.0
C232 C 0.32915 0.01314 0.51998 0.0
C233 C 0.34249 0.07294 0.51203 0.0
C234 C 0.40402 0.13004 0.5172 0.0
C235 C 0.45074 0.12755 0.53048 0.0
C236 C 0.4139 0.0664 0.58251 0.0
C237 C 0.35254 0.00881 0.58421 0.0
C238 C 0.29964 0.01194 0.59305 0.0
C239 C 0.30724 0.07283 0.60025 0.0
C240 C 0.36845 0.13056 0.59801 0.0
C241 C 0.42129 0.12733 0.58919 0.0
C242 C 0.50317 0.06017 0.61202 0.0
C243 C 0.44916 0.00267 0.61883 0.0
C244 C 0.41144 0.00665 0.63496 0.0
C245 C 0.42874 0.06806 0.64496 0.0
C246 C 0.48989 0.12334 0.64051 0.0
C247 C 0.52635 0.11961 0.62395 0.0
C248 C 0.62839 0.07329 0.59827 0.0
C249 C 0.62746 0.01809 0.60591 0.0
C250 C 0.67282 0.02597 0.62201 0.0
C251 C 0.71937 0.08919 0.63075 0.0
C252 C 0.72084 0.14426 0.6226 0.0
C253 C 0.67565 0.13631 0.60658 0.0
C254 C 0.60291 0.08521 0.45902 0.0
C255 C 0.25205 0.07624 0.61036 0.0
H256 H 0.66917 0.81494 0.03303 0.0
H257 H 0.25828 0.19414 0.88055 0.0
H258 H 0.63692 0.78613 0.91778 0.0
H259 H 0.72085 0.88108 0.93952 0.0
H260 H 0.85356 0.80332 0.93513 0.0
H261 H 0.76947 0.70883 0.91336 0.0
H262 H 0.54501 0.693 0.95054 0.0
H263 H 0.58064 0.74634 0.98583 0.0
H264 H 0.74144 0.70453 0.98641 0.0
H265 H 0.70479 0.65075 0.95123 0.0
H266 H 0.42162 0.55093 0.93155 0.0
H267 H 0.35508 0.49285 0.96062 0.0
H268 H 0.51504 0.46617 0.98364 0.0
H269 H 0.57994 0.52168 0.95378 0.0
H270 H 0.40556 0.52172 0.88618 0.0
H271 H 0.30779 0.41397 0.87679 0.0
H272 H 0.41262 0.31972 0.89974 0.0
H273 H 0.51044 0.42798 0.90879 0.0
H274 H 0.49182 0.59977 0.85535 0.0
H275 H 0.42034 0.51564 0.82816 0.0
H276 H 0.51644 0.40439 0.84142 0.0
H277 H 0.58728 0.48846 0.86863 0.0
H278 H 0.60362 0.73132 0.86699 0.0
H279 H 0.67419 0.80076 0.84014 0.0
H280 H 0.79888 0.71435 0.84592 0.0
H281 H 0.72672 0.64392 0.8724 0.0
O282 O 0.65484 0.79213 0.01932 0.0
O283 O 0.7346 0.76646 0.01926 0.0
O284 O 0.24413 0.28832 0.87298 0.0
O285 O 0.29567 0.23733 0.88459 0.0
C286 C 0.63938 0.67362 0.90969 0.0
C287 C 0.60236 0.63841 0.92661 0.0
C288 C 0.5454 0.57579 0.92282 0.0
C289 C 0.5259 0.54802 0.90217 0.0
C290 C 0.56439 0.5823 0.88531 0.0
C291 C 0.62088 0.64539 0.88904 0.0
C292 C 0.69706 0.74049 0.91425 0.0
C293 C 0.68549 0.79152 0.92057 0.0
C294 C 0.73314 0.84528 0.93315 0.0
C295 C 0.79294 0.8486 0.93939 0.0
C296 C 0.80794 0.80206 0.93055 0.0
C297 C 0.76007 0.74813 0.91802 0.0
C298 C 0.62246 0.66826 0.94836 0.0
C299 C 0.58759 0.69502 0.95841 0.0
C300 C 0.60816 0.72556 0.97853 0.0
C301 C 0.66392 0.72972 0.98894 0.0
C302 C 0.69825 0.70209 0.97886 0.0
C303 C 0.67753 0.67147 0.95876 0.0
C304 C 0.50532 0.54012 0.94051 0.0
C305 C 0.44198 0.53203 0.94279 0.0
C306 C 0.40448 0.49962 0.95959 0.0
C307 C 0.42995 0.47532 0.97462 0.0
C308 C 0.49371 0.48375 0.97229 0.0
C309 C 0.53097 0.51572 0.95532 0.0
C310 C 0.46505 0.48251 0.89805 0.0
C311 C 0.40715 0.4777 0.88923 0.0
C312 C 0.35141 0.41612 0.8839 0.0
C313 C 0.35244 0.35819 0.88747 0.0
C314 C 0.41017 0.36332 0.89676 0.0
C315 C 0.46601 0.42502 0.90201 0.0
C316 C 0.54426 0.54982 0.864 0.0
C317 C 0.49991 0.55908 0.85157 0.0
C318 C 0.45877 0.5107 0.83616 0.0
C319 C 0.46189 0.45284 0.8331 0.0
C320 C 0.51229 0.44801 0.84377 0.0
C321 C 0.55343 0.49639 0.85908 0.0
C322 C 0.66011 0.68266 0.87152 0.0
C323 C 0.64566 0.72686 0.8622 0.0
C324 C 0.68637 0.76681 0.84701 0.0
C325 C 0.74258 0.76353 0.84099 0.0
C326 C 0.7557 0.71769 0.85003 0.0
C327 C 0.71476 0.67759 0.86518 0.0
C328 C 0.68667 0.76364 0.0101 0.0
C329 C 0.29398 0.29267 0.88127 0.0
H330 H 0.00272 0.11853 0.12831 0.0
H331 H 0.13885 0.30198 0.10242 0.0
H332 H 0.1372 0.36309 0.13417 0.0
H333 H 0.09023 0.36454 0.1678 0.0
H334 H 0.94491 0.1828 0.19258 0.0
H335 H 0.9569 0.12022 0.16288 0.0
C336 C 0.0326 0.1718 0.1299 0.0
C337 C 0.07132 0.20616 0.11335 0.0
C338 C 0.02944 0.20657 0.14789 0.0
C339 C 0.10902 0.27503 0.11515 0.0
C340 C 0.108 0.3098 0.13322 0.0
C341 C 0.06231 0.31117 0.16692 0.0
C342 C 0.01753 0.27809 0.18242 0.0
C343 C 0.06756 0.27614 0.14951 0.0
C344 C 0.98014 0.20905 0.18086 0.0
C345 C 0.9868 0.17345 0.16387 0.0
H346 H 0.94333 0.1918 0.4506 0.0
H347 H 0.8877 0.98727 0.44293 0.0
H348 H 0.81477 0.96236 0.4723 0.0
H349 H 0.77289 0.00017 0.5015 0.0
H350 H 0.82117 0.20334 0.50688 0.0
H351 H 0.89301 0.22741 0.47765 0.0
C352 C 0.91458 0.14159 0.45518 0.0
C353 C 0.92105 0.09154 0.44461 0.0
C354 C 0.87282 0.1276 0.47205 0.0
C355 C 0.88318 0.02666 0.45066 0.0
C356 C 0.84201 0.01249 0.46761 0.0
C357 C 0.79816 0.0496 0.4962 0.0
C358 C 0.79206 0.09989 0.50693 0.0
C359 C 0.83733 0.06283 0.47864 0.0
C360 C 0.82637 0.16376 0.49969 0.0
C361 C 0.86684 0.17759 0.48265 0.0
H362 H 0.94503 0.92687 0.77279 0.0
H363 H 0.92179 0.08139 0.8032 0.0
H364 H 0.84491 0.00423 0.82695 0.0
H365 H 0.78495 0.89368 0.83951 0.0
H366 H 0.80505 0.73763 0.80907 0.0
H367 H 0.88299 0.81481 0.78516 0.0
C368 C 0.92323 0.94373 0.78461 0.0
C369 C 0.9394 0.01006 0.78609 0.0
C370 C 0.87852 0.89887 0.79831 0.0
C371 C 0.91032 0.03074 0.80154 0.0
C372 C 0.86626 0.98662 0.81521 0.0
C373 C 0.80559 0.87621 0.82747 0.0
C374 C 0.78884 0.80982 0.82606 0.0
C375 C 0.84993 0.92064 0.81372 0.0
C376 C 0.81745 0.78857 0.81064 0.0
C377 C 0.86182 0.83263 0.7969 0.0
H378 H 0.98189 0.87931 0.09297 0.0
H379 H 0.18521 0.00297 0.11629 0.0
H380 H 0.17351 0.9175 0.139 0.0
H381 H 0.10424 0.80937 0.153 0.0
H382 H 0.90244 0.68394 0.12836 0.0
H383 H 0.91471 0.76894 0.10554 0.0
C384 C 0.02368 0.88759 0.10302 0.0
C385 C 0.08419 0.94753 0.10307 0.0
C386 C 0.01678 0.8381 0.11584 0.0
C387 C 0.13809 0.95725 0.11599 0.0
C388 C 0.13139 0.90845 0.12899 0.0
C389 C 0.06324 0.80001 0.14239 0.0
C390 C 0.00236 0.74025 0.14252 0.0
C391 C 0.07086 0.8488 0.1291 0.0
C392 C 0.94949 0.72977 0.12888 0.0
C393 C 0.95655 0.77823 0.11573 0.0
H394 H 0.09274 0.03948 0.46104 0.0
H395 H 0.24244 0.1491 0.41758 0.0
H396 H 0.32951 0.15928 0.44214 0.0
H397 H 0.36152 0.13152 0.47529 0.0
H398 H 0.21041 0.01913 0.51826 0.0
H399 H 0.12509 0.01567 0.49468 0.0
C400 C 0.14465 0.06632 0.45719 0.0
C401 C 0.16204 0.09554 0.43804 0.0
C402 C 0.19379 0.07104 0.47121 0.0
C403 C 0.22877 0.12843 0.43268 0.0
C404 C 0.27823 0.13365 0.4466 0.0
C405 C 0.31002 0.10707 0.47957 0.0
C406 C 0.29204 0.07519 0.49835 0.0
C407 C 0.26121 0.10474 0.46586 0.0
C408 C 0.22513 0.04314 0.5037 0.0
C409 C 0.17644 0.04129 0.49028 0.0
H410 H 0.21541 0.18174 0.79951 0.0
H411 H 0.22947 0.29512 0.74713 0.0
H412 H 0.32537 0.39248 0.76441 0.0
H413 H 0.40495 0.44529 0.79473 0.0
H414 H 0.39421 0.32901 0.8461 0.0
H415 H 0.29765 0.23296 0.82902 0.0
C416 C 0.23939 0.22807 0.79205 0.0
C417 C 0.21401 0.2327 0.77265 0.0
C418 C 0.29529 0.28306 0.80185 0.0
C419 C 0.24662 0.29179 0.7626 0.0
C420 C 0.30181 0.34707 0.77233 0.0
C421 C 0.38156 0.39876 0.80206 0.0
C422 C 0.40684 0.39411 0.82156 0.0
C423 C 0.32637 0.34339 0.79204 0.0
C424 C 0.37624 0.33355 0.83094 0.0
C425 C 0.32077 0.27869 0.82126 0.0
H426 H 0.90655 0.16704 0.71201 0.0
H427 H 0.94671 0.02137 0.68356 0.0
H428 H 0.86821 0.001 0.65446 0.0
H429 H 0.78998 0.02663 0.6366 0.0
H430 H 0.7503 0.17181 0.6656 0.0
H431 H 0.82719 0.19041 0.69486 0.0
C432 C 0.8982 0.1306 0.69952 0.0
C433 C 0.93282 0.09593 0.70007 0.0
C434 C 0.85322 0.11923 0.68282 0.0
C435 C 0.92095 0.04893 0.68364 0.0
C436 C 0.87603 0.03722 0.66694 0.0
C437 C 0.79775 0.06188 0.64942 0.0
C438 C 0.76482 0.09818 0.64878 0.0
C439 C 0.84208 0.07231 0.66632 0.0
C440 C 0.77588 0.14407 0.66547 0.0
C441 C 0.81957 0.1545 0.68229 0.0
H442 H 0.9154 0.98007 0.02888 0.0
H443 H 0.09815 0.0453 0.99747 0.0
H444 H 0.03553 0.99241 0.96427 0.0
H445 H 0.92796 0.92535 0.94452 0.0
H446 H 0.74584 0.86451 0.97622 0.0
H447 H 0.80872 0.91873 0.0089 0.0
C448 C 0.94123 0.98374 0.01462 0.0
C449 C 0.0108 0.0182 0.01523 0.0
C450 C 0.905 0.95396 0.99572 0.0
C451 C 0.04431 0.02009 0.99705 0.0
C452 C 0.00862 0.99 0.97815 0.0
C453 C 0.90231 0.92498 0.95854 0.0
C454 C 0.83247 0.89111 0.95796 0.0
C455 C 0.93886 0.9568 0.9773 0.0
C456 C 0.79962 0.89082 0.97621 0.0
C457 C 0.83547 0.92125 0.99496 0.0
H458 H 0.9232 0.8782 0.34855 0.0
H459 H 0.13573 0.97554 0.36057 0.0
H460 H 0.13929 0.88568 0.34151 0.0
H461 H 0.08278 0.77927 0.32207 0.0
H462 H 0.87268 0.68733 0.30574 0.0
H463 H 0.86716 0.77338 0.32665 0.0
C464 C 0.97024 0.87982 0.34682 0.0
C465 C 0.02906 0.93358 0.35592 0.0
C466 C 0.97231 0.82825 0.33545 0.0
C467 C 0.08974 0.93511 0.35355 0.0
C468 C 0.09185 0.88346 0.34278 0.0
C469 C 0.03575 0.77813 0.32268 0.0
C470 C 0.97838 0.72617 0.31218 0.0
C471 C 0.03348 0.82975 0.33372 0.0
C472 C 0.9177 0.7254 0.31394 0.0
C473 C 0.91455 0.77534 0.32568 0.0
H474 H 0.22982 0.14381 0.68606 0.0
H475 H 0.15 0.95081 0.70938 0.0
H476 H 0.23386 0.93611 0.69122 0.0
H477 H 0.33375 0.98112 0.67031 0.0
H478 H 0.40863 0.17284 0.64604 0.0
H479 H 0.32439 0.18569 0.66371 0.0
C480 C 0.23022 0.09816 0.68702 0.0
C481 C 0.18388 0.04857 0.6991 0.0
C482 C 0.27886 0.09047 0.67682 0.0
C483 C 0.18495 0.98966 0.70009 0.0
C484 C 0.23327 0.98149 0.68987 0.0
C485 C 0.33159 0.0256 0.66875 0.0
C486 C 0.37901 0.07638 0.65711 0.0
C487 C 0.28122 0.03209 0.67846 0.0
C488 C 0.37498 0.13373 0.65547 0.0
C489 C 0.3259 0.14086 0.66531 0.0
H490 H 0.21245 0.33597 0.0403 0.0
H491 H 0.28024 0.19618 0.03468 0.0
H492 H 0.36978 0.26948 0.01286 0.0
H493 H 0.41794 0.36564 0.99144 0.0
H494 H 0.34984 0.50537 0.99757 0.0
H495 H 0.27057 0.43909 0.02296 0.0
C496 C 0.24762 0.3221 0.03462 0.0
C497 C 0.23932 0.26049 0.03886 0.0
C498 C 0.29796 0.36377 0.02183 0.0
C499 C 0.28569 0.24346 0.03167 0.0
C500 C 0.33646 0.28505 0.01901 0.0
C501 C 0.38693 0.38248 -0.00132 0.0
C502 C 0.38887 0.43971 0.99222 0.0
C503 C 0.34152 0.34423 0.01339 0.0
C504 C 0.34804 0.46054 0.00176 0.0
C505 C 0.30299 0.42293 0.01641 0.0
H506 H 0.06758 0.30432 0.37642 0.0
H507 H 0.97364 0.12006 0.33901 0.0
H508 H 0.95242 0.17307 0.3104 0.0
H509 H 0.96401 0.27287 0.29558 0.0
H510 H 0.05691 0.45601 0.3335 0.0
H511 H 0.07552 0.40216 0.36225 0.0
C512 C 0.04227 0.27542 0.36206 0.0
C513 C 0.0225 0.20816 0.35994 0.0
C514 C 0.03035 0.30615 0.34568 0.0
C515 C 0.9895 0.17184 0.34116 0.0
C516 C 0.97741 0.20217 0.32475 0.0
C517 C 0.98759 0.30081 0.31022 0.0
C518 C 0.00941 0.36858 0.31229 0.0
C519 C 0.99799 0.26942 0.32679 0.0
C520 C 0.04061 0.40413 0.33132 0.0
C521 C 0.05097 0.37329 0.34783 0.0
loop_
_geom_bond_atom_site_label_1
_geom_bond_atom_site_label_2
_geom_bond_distance
_geom_bond_site_symmetry_2
_ccdc_geom_bond_type
Mn0 O5 2.095 . S
Mn0 O15 2.162 . S
Mn0 O16 2.297 1_545 S
Mn0 O24 2.385 1_545 S
Mn0 O25 2.209 . S
Mn0 O26 2.094 . S
Mn1 O6 2.121 . S
Mn1 N8 2.257 1_455 S
Mn1 N17 2.282 1_455 S
Mn1 O25 2.215 . S
Mn1 O27 2.117 . S
C2 O24 1.234 1_545 S
C2 O25 1.283 . S
C3 O15 1.281 1_565 S
C3 O16 1.236 . S
C4 O26 1.240 . S
C4 O27 1.264 . S
O5 Mn0 2.095 . S
O5 C14 1.250 . S
O6 Mn1 2.121 . S
O6 C14 1.258 . S
C7 N8 1.326 . S
C7 C11 1.460 . S
C7 H13 0.929 . S
N8 Mn1 2.257 1_655 S
N8 C7 1.326 . S
N8 C12 1.362 . S
C9 C10 1.258 . S
C9 C12 1.431 . S
C9 C29 1.449 1_554 S
C10 C9 1.258 . S
C10 C11 1.477 . S
C10 H30 0.931 . S
C11 C7 1.460 . S
C11 C10 1.477 . S
C11 H31 0.930 . S
C12 N8 1.362 . S
C12 C9 1.431 . S
C12 C22 1.476 . S
H13 C7 0.929 . S
C14 O5 1.250 . S
C14 O6 1.258 . S
O15 Mn0 2.162 . S
O15 C3 1.281 1_545 S
O16 Mn0 2.297 1_565 S
O16 C3 1.236 . S
N17 Mn1 2.282 1_655 S
N17 C18 1.328 1_654 S
N17 C22 1.318 . S
C18 N17 1.328 1_456 S
C18 C19 1.457 . S
C18 H23 0.929 1_556 S
C19 C18 1.457 . S
C19 C20 1.291 1_455 S
C19 H32 0.931 . S
C20 C19 1.291 1_655 S
C20 C21 1.373 . S
C20 H33 0.929 . S
C21 C20 1.373 . S
C21 C22 1.396 1_556 S
C21 C28 1.403 . S
C22 C12 1.476 . S
C22 N17 1.318 . S
C22 C21 1.396 1_554 S
H23 C18 0.929 1_554 S
O24 Mn0 2.385 1_565 S
O24 C2 1.234 1_565 S
O25 Mn0 2.209 . S
O25 Mn1 2.215 . S
O25 C2 1.283 . S
O26 Mn0 2.094 . S
O26 C4 1.240 . S
O27 Mn1 2.117 . S
O27 C4 1.264 . S
C28 C21 1.403 . S
C28 C29 1.399 . S
C28 H34 0.929 . S
C29 C9 1.449 1_556 S
C29 C28 1.399 . S
C29 H35 0.930 . S
H30 C10 0.931 . S
H31 C11 0.930 . S
H32 C19 0.931 . S
H33 C20 0.929 . S
H34 C28 0.929 . S
H35 C29 0.930 . S
Mn36 O41 2.095 . S
Mn36 O51 2.162 1_545 S
Mn36 O52 2.297 1_645 S
Mn36 O60 2.385 1_645 S
Mn36 O61 2.209 1_655 S
Mn36 O62 2.094 1_545 S
Mn37 O42 2.121 . S
Mn37 N44 2.257 . S
Mn37 N53 2.282 . S
Mn37 O61 2.215 . S
Mn37 O63 2.117 1_455 S
C38 O60 1.234 1_545 S
C38 O61 1.283 . S
C39 O51 1.281 . S
C39 O52 1.236 1_655 S
C40 O62 1.240 1_545 S
C40 O63 1.264 . S
O41 Mn36 2.095 . S
O41 C50 1.250 1_655 S
O42 Mn37 2.121 . S
O42 C50 1.258 . S
C43 N44 1.326 . S
C43 C47 1.460 . S
C43 H49 0.929 . S
N44 Mn37 2.257 . S
N44 C43 1.326 . S
N44 C48 1.362 . S
C45 C46 1.258 . S
C45 C48 1.431 . S
C45 C65 1.449 . S
C46 C45 1.258 . S
C46 C47 1.477 . S
C46 H66 0.931 . S
C47 C43 1.460 . S
C47 C46 1.477 . S
C47 H67 0.930 . S
C48 N44 1.362 . S
C48 C45 1.431 . S
C48 C58 1.476 . S
H49 C43 0.929 . S
C50 O41 1.250 1_455 S
C50 O42 1.258 . S
O51 Mn36 2.162 1_565 S
O51 C39 1.281 . S
O52 Mn36 2.297 1_465 S
O52 C39 1.236 1_455 S
N53 Mn37 2.282 . S
N53 C54 1.328 . S
N53 C58 1.318 . S
C54 N53 1.328 . S
C54 C55 1.457 . S
C54 H59 0.929 . S
C55 C54 1.457 . S
C55 C56 1.291 . S
C55 H68 0.931 . S
C56 C55 1.291 . S
C56 C57 1.373 . S
C56 H69 0.929 . S
C57 C56 1.373 . S
C57 C58 1.396 . S
C57 C64 1.403 . S
C58 C48 1.476 . S
C58 N53 1.318 . S
C58 C57 1.396 . S
H59 C54 0.929 . S
O60 Mn36 2.385 1_465 S
O60 C38 1.234 1_565 S
O61 Mn36 2.209 1_455 S
O61 Mn37 2.215 . S
O61 C38 1.283 . S
O62 Mn36 2.094 1_565 S
O62 C40 1.240 1_565 S
O63 Mn37 2.117 1_655 S
O63 C40 1.264 . S
C64 C57 1.403 . S
C64 C65 1.399 . S
C64 H70 0.929 . S
C65 C45 1.449 . S
C65 C64 1.399 . S
C65 H71 0.930 . S
H66 C46 0.931 . S
H67 C47 0.930 . S
H68 C55 0.931 . S
H69 C56 0.929 . S
H70 C64 0.929 . S
H71 C65 0.930 . S
Mn72 O77 2.095 . S
Mn72 O87 2.162 . S
Mn72 O88 2.297 . S
Mn72 O96 2.385 . S
Mn72 O97 2.209 . S
Mn72 O98 2.094 . S
Mn73 O78 2.121 . S
Mn73 N80 2.257 . S
Mn73 N89 2.282 . S
Mn73 O97 2.215 . S
Mn73 O99 2.117 . S
C74 O96 1.234 . S
C74 O97 1.283 . S
C75 O87 1.281 . S
C75 O88 1.236 . S
C76 O98 1.240 . S
C76 O99 1.264 . S
O77 Mn72 2.095 . S
O77 C86 1.250 . S
O78 Mn73 2.121 . S
O78 C86 1.258 . S
C79 N80 1.326 . S
C79 C83 1.460 . S
C79 H85 0.929 . S
N80 Mn73 2.257 . S
N80 C79 1.326 . S
N80 C84 1.362 . S
C81 C82 1.258 . S
C81 C84 1.431 . S
C81 C101 1.449 . S
C82 C81 1.258 . S
C82 C83 1.477 . S
C82 H102 0.931 . S
C83 C79 1.460 . S
C83 C82 1.477 . S
C83 H103 0.930 . S
C84 N80 1.362 . S
C84 C81 1.431 . S
C84 C94 1.476 . S
H85 C79 0.929 . S
C86 O77 1.250 . S
C86 O78 1.258 . S
O87 Mn72 2.162 . S
O87 C75 1.281 . S
O88 Mn72 2.297 . S
O88 C75 1.236 . S
N89 Mn73 2.282 . S
N89 C90 1.328 . S
N89 C94 1.318 . S
C90 N89 1.328 . S
C90 C91 1.457 . S
C90 H95 0.929 . S
C91 C90 1.457 . S
C91 C92 1.291 . S
C91 H104 0.931 . S
C92 C91 1.291 . S
C92 C93 1.373 . S
C92 H105 0.929 . S
C93 C92 1.373 . S
C93 C94 1.396 . S
C93 C100 1.403 . S
C94 C84 1.476 . S
C94 N89 1.318 . S
C94 C93 1.396 . S
H95 C90 0.929 . S
O96 Mn72 2.385 . S
O96 C74 1.234 . S
O97 Mn72 2.209 . S
O97 Mn73 2.215 . S
O97 C74 1.283 . S
O98 Mn72 2.094 . S
O98 C76 1.240 . S
O99 Mn73 2.117 . S
O99 C76 1.264 . S
C100 C93 1.403 . S
C100 C101 1.399 . S
C100 H106 0.929 . S
C101 C81 1.449 . S
C101 C100 1.399 . S
C101 H107 0.930 . S
H102 C82 0.931 . S
H103 C83 0.930 . S
H104 C91 0.931 . S
H105 C92 0.929 . S
H106 C100 0.929 . S
H107 C101 0.930 . S
H108 O134 0.856 . S
H109 O137 0.854 . S
H110 C145 0.930 . S
H111 C146 0.930 . S
H112 C148 0.930 . S
H113 C149 0.930 . S
H114 C151 0.931 1_655 S
H115 C152 0.930 1_655 S
H116 C154 0.930 . S
H117 C155 0.929 . S
H118 C157 0.930 1_655 S
H119 C158 0.931 1_655 S
H120 C160 0.930 . S
H121 C161 0.929 . S
H122 C163 0.931 . S
H123 C164 0.930 . S
H124 C166 0.930 . S
H125 C167 0.932 . S
H126 C169 0.930 . S
H127 C170 0.929 . S
H128 C172 0.931 . S
H129 C173 0.930 . S
H130 C175 0.929 . S
H131 C176 0.931 . S
H132 C178 0.930 . S
H133 C179 0.929 . S
O134 H108 0.856 . S
O134 C180 1.300 . S
O135 C180 1.209 . S
O136 C181 1.199 1_655 S
O137 H109 0.854 . S
O137 C181 1.297 . S
C138 C139 1.404 . S
C138 C143 1.397 . S
C138 C144 1.492 . S
C139 C138 1.404 . S
C139 C140 1.396 . S
C139 C150 1.492 . S
C140 C139 1.396 . S
C140 C141 1.397 . S
C140 C156 1.509 . S
C141 C140 1.397 . S
C141 C142 1.412 . S
C141 C162 1.485 . S
C142 C141 1.412 . S
C142 C143 1.388 . S
C142 C168 1.490 . S
C143 C138 1.397 . S
C143 C142 1.388 . S
C143 C174 1.519 . S
C144 C138 1.492 . S
C144 C145 1.363 1_455 S
C144 C149 1.390 . S
C145 H110 0.930 . S
C145 C144 1.363 1_655 S
C145 C146 1.372 . S
C146 H111 0.930 . S
C146 C145 1.372 . S
C146 C147 1.383 1_655 S
C147 C146 1.383 1_455 S
C147 C148 1.395 . S
C148 H112 0.930 . S
C148 C147 1.395 . S
C148 C149 1.362 . S
C149 H113 0.930 . S
C149 C144 1.390 . S
C149 C148 1.362 . S
C150 C139 1.492 . S
C150 C151 1.377 . S
C150 C155 1.397 . S
C151 H114 0.931 1_455 S
C151 C150 1.377 . S
C151 C152 1.376 . S
C152 H115 0.930 1_455 S
C152 C151 1.376 . S
C152 C153 1.376 . S
C153 C152 1.376 . S
C153 C154 1.378 . S
C153 C180 1.486 . S
C154 H116 0.930 . S
C154 C153 1.378 . S
C154 C155 1.376 . S
C155 H117 0.929 . S
C155 C150 1.397 . S
C155 C154 1.376 . S
C156 C140 1.509 . S
C156 C157 1.391 . S
C156 C161 1.386 . S
C157 H118 0.930 1_455 S
C157 C156 1.391 . S
C157 C158 1.375 . S
C158 H119 0.931 1_455 S
C158 C157 1.375 . S
C158 C159 1.375 . S
C159 C158 1.375 . S
C159 C160 1.361 . S
C160 H120 0.930 . S
C160 C159 1.361 . S
C160 C161 1.399 . S
C161 H121 0.929 . S
C161 C156 1.386 . S
C161 C160 1.399 . S
C162 C141 1.485 . S
C162 C163 1.394 1_455 S
C162 C167 1.360 . S
C163 H122 0.931 . S
C163 C162 1.394 1_655 S
C163 C164 1.372 . S
C164 H123 0.930 . S
C164 C163 1.372 . S
C164 C165 1.397 1_655 S
C165 C164 1.397 1_455 S
C165 C166 1.390 . S
C165 C181 1.476 . S
C166 H124 0.930 . S
C166 C165 1.390 . S
C166 C167 1.366 . S
C167 H125 0.932 . S
C167 C162 1.360 . S
C167 C166 1.366 . S
C168 C142 1.490 . S
C168 C169 1.380 1_455 S
C168 C173 1.386 . S
C169 H126 0.930 . S
C169 C168 1.380 1_655 S
C169 C170 1.381 . S
C170 H127 0.929 . S
C170 C169 1.381 . S
C170 C171 1.371 . S
C171 C170 1.371 . S
C171 C172 1.380 1_655 S
C172 H128 0.931 . S
C172 C171 1.380 1_455 S
C172 C173 1.387 . S
C173 H129 0.930 . S
C173 C168 1.386 . S
C173 C172 1.387 . S
C174 C143 1.519 . S
C174 C175 1.377 1_455 S
C174 C179 1.361 . S
C175 H130 0.929 . S
C175 C174 1.377 1_655 S
C175 C176 1.386 . S
C176 H131 0.931 . S
C176 C175 1.386 . S
C176 C177 1.363 1_655 S
C177 C176 1.363 1_455 S
C177 C178 1.385 . S
C178 H132 0.930 . S
C178 C177 1.385 . S
C178 C179 1.396 . S
C179 H133 0.929 . S
C179 C174 1.361 . S
C179 C178 1.396 . S
C180 O134 1.300 . S
C180 O135 1.209 . S
C180 C153 1.486 . S
C181 O136 1.199 1_455 S
C181 O137 1.297 . S
C181 C165 1.476 . S
H182 O208 0.856 . S
H183 O211 0.854 . S
H184 C219 0.930 . S
H185 C220 0.930 1_565 S
H186 C222 0.930 . S
H187 C223 0.930 . S
H188 C225 0.931 . S
H189 C226 0.930 . S
H190 C228 0.930 . S
H191 C229 0.929 . S
H192 C231 0.930 . S
H193 C232 0.931 . S
H194 C234 0.930 . S
H195 C235 0.929 . S
H196 C237 0.931 . S
H197 C238 0.930 . S
H198 C240 0.930 . S
H199 C241 0.932 . S
H200 C243 0.930 . S
H201 C244 0.929 . S
H202 C246 0.931 . S
H203 C247 0.930 . S
H204 C249 0.929 . S
H205 C250 0.931 . S
H206 C252 0.930 . S
H207 C253 0.929 . S
O208 H182 0.856 . S
O208 C254 1.300 . S
O209 C254 1.209 . S
O210 C255 1.199 . S
O211 H183 0.854 . S
O211 C255 1.297 . S
C212 C213 1.404 . S
C212 C217 1.397 . S
C212 C218 1.492 . S
C213 C212 1.404 . S
C213 C214 1.396 . S
C213 C224 1.492 . S
C214 C213 1.396 . S
C214 C215 1.397 . S
C214 C230 1.509 . S
C215 C214 1.397 . S
C215 C216 1.412 . S
C215 C236 1.485 . S
C216 C215 1.412 . S
C216 C217 1.388 . S
C216 C242 1.490 . S
C217 C212 1.397 . S
C217 C216 1.388 . S
C217 C248 1.519 . S
C218 C212 1.492 . S
C218 C219 1.363 . S
C218 C223 1.390 . S
C219 H184 0.930 . S
C219 C218 1.363 . S
C219 C220 1.372 . S
C220 H185 0.930 1_545 S
C220 C219 1.372 . S
C220 C221 1.383 . S
C221 C220 1.383 . S
C221 C222 1.395 . S
C222 H186 0.930 . S
C222 C221 1.395 . S
C222 C223 1.362 . S
C223 H187 0.930 . S
C223 C218 1.390 . S
C223 C222 1.362 . S
C224 C213 1.492 . S
C224 C225 1.377 . S
C224 C229 1.397 . S
C225 H188 0.931 . S
C225 C224 1.377 . S
C225 C226 1.376 . S
C226 H189 0.930 . S
C226 C225 1.376 . S
C226 C227 1.376 . S
C227 C226 1.376 . S
C227 C228 1.378 . S
C227 C254 1.486 . S
C228 H190 0.930 . S
C228 C227 1.378 . S
C228 C229 1.376 . S
C229 H191 0.929 . S
C229 C224 1.397 . S
C229 C228 1.376 . S
C230 C214 1.509 . S
C230 C231 1.391 . S
C230 C235 1.386 . S
C231 H192 0.930 . S
C231 C230 1.391 . S
C231 C232 1.375 . S
C232 H193 0.931 . S
C232 C231 1.375 . S
C232 C233 1.375 . S
C233 C232 1.375 . S
C233 C234 1.361 . S
C234 H194 0.930 . S
C234 C233 1.361 . S
C234 C235 1.399 . S
C235 H195 0.929 . S
C235 C230 1.386 . S
C235 C234 1.399 . S
C236 C215 1.485 . S
C236 C237 1.394 . S
C236 C241 1.360 . S
C237 H196 0.931 . S
C237 C236 1.394 . S
C237 C238 1.372 . S
C238 H197 0.930 . S
C238 C237 1.372 . S
C238 C239 1.397 . S
C239 C238 1.397 . S
C239 C240 1.390 . S
C239 C255 1.476 . S
C240 H198 0.930 . S
C240 C239 1.390 . S
C240 C241 1.366 . S
C241 H199 0.932 . S
C241 C236 1.360 . S
C241 C240 1.366 . S
C242 C216 1.490 . S
C242 C243 1.380 . S
C242 C247 1.386 . S
C243 H200 0.930 . S
C243 C242 1.380 . S
C243 C244 1.381 . S
C244 H201 0.929 . S
C244 C243 1.381 . S
C244 C245 1.371 . S
C245 C244 1.371 . S
C245 C246 1.380 . S
C246 H202 0.931 . S
C246 C245 1.380 . S
C246 C247 1.387 . S
C247 H203 0.930 . S
C247 C242 1.386 . S
C247 C246 1.387 . S
C248 C217 1.519 . S
C248 C249 1.377 . S
C248 C253 1.361 . S
C249 H204 0.929 . S
C249 C248 1.377 . S
C249 C250 1.386 . S
C250 H205 0.931 . S
C250 C249 1.386 . S
C250 C251 1.363 . S
C251 C250 1.363 . S
C251 C252 1.385 . S
C252 H206 0.930 . S
C252 C251 1.385 . S
C252 C253 1.396 . S
C253 H207 0.929 . S
C253 C248 1.361 . S
C253 C252 1.396 . S
C254 O208 1.300 . S
C254 O209 1.209 . S
C254 C227 1.486 . S
C255 O210 1.199 . S
C255 O211 1.297 . S
C255 C239 1.476 . S
H256 O282 0.856 . S
H257 O285 0.854 . S
H258 C293 0.930 . S
H259 C294 0.930 . S
H260 C296 0.930 . S
H261 C297 0.930 . S
H262 C299 0.931 . S
H263 C300 0.930 1_554 S
H264 C302 0.930 . S
H265 C303 0.929 . S
H266 C305 0.930 . S
H267 C306 0.931 . S
H268 C308 0.930 . S
H269 C309 0.929 . S
H270 C311 0.931 . S
H271 C312 0.930 . S
H272 C314 0.930 . S
H273 C315 0.932 . S
H274 C317 0.930 . S
H275 C318 0.929 . S
H276 C320 0.931 . S
H277 C321 0.930 . S
H278 C323 0.929 . S
H279 C324 0.931 . S
H280 C326 0.930 . S
H281 C327 0.929 . S
O282 H256 0.856 . S
O282 C328 1.300 . S
O283 C328 1.209 . S
O284 C329 1.199 . S
O285 H257 0.854 . S
O285 C329 1.297 . S
C286 C287 1.404 . S
C286 C291 1.397 . S
C286 C292 1.492 . S
C287 C286 1.404 . S
C287 C288 1.396 . S
C287 C298 1.492 . S
C288 C287 1.396 . S
C288 C289 1.397 . S
C288 C304 1.509 . S
C289 C288 1.397 . S
C289 C290 1.412 . S
C289 C310 1.485 . S
C290 C289 1.412 . S
C290 C291 1.388 . S
C290 C316 1.490 . S
C291 C286 1.397 . S
C291 C290 1.388 . S
C291 C322 1.519 . S
C292 C286 1.492 . S
C292 C293 1.363 . S
C292 C297 1.390 . S
C293 H258 0.930 . S
C293 C292 1.363 . S
C293 C294 1.372 . S
C294 H259 0.930 . S
C294 C293 1.372 . S
C294 C295 1.383 . S
C295 C294 1.383 . S
C295 C296 1.395 . S
C296 H260 0.930 . S
C296 C295 1.395 . S
C296 C297 1.362 . S
C297 H261 0.930 . S
C297 C292 1.390 . S
C297 C296 1.362 . S
C298 C287 1.492 . S
C298 C299 1.377 . S
C298 C303 1.397 . S
C299 H262 0.931 . S
C299 C298 1.377 . S
C299 C300 1.376 . S
C300 H263 0.930 1_556 S
C300 C299 1.376 . S
C300 C301 1.376 1_556 S
C301 C300 1.376 1_554 S
C301 C302 1.378 1_554 S
C301 C328 1.486 . S
C302 H264 0.930 . S
C302 C301 1.378 1_556 S
C302 C303 1.376 . S
C303 H265 0.929 . S
C303 C298 1.397 . S
C303 C302 1.376 . S
C304 C288 1.509 . S
C304 C305 1.391 . S
C304 C309 1.386 . S
C305 H266 0.930 . S
C305 C304 1.391 . S
C305 C306 1.375 . S
C306 H267 0.931 . S
C306 C305 1.375 . S
C306 C307 1.375 . S
C307 C306 1.375 . S
C307 C308 1.361 . S
C308 H268 0.930 . S
C308 C307 1.361 . S
C308 C309 1.399 . S
C309 H269 0.929 . S
C309 C304 1.386 . S
C309 C308 1.399 . S
C310 C289 1.485 . S
C310 C311 1.394 . S
C310 C315 1.360 . S
C311 H270 0.931 . S
C311 C310 1.394 . S
C311 C312 1.372 . S
C312 H271 0.930 . S
C312 C311 1.372 . S
C312 C313 1.397 . S
C313 C312 1.397 . S
C313 C314 1.390 . S
C313 C329 1.476 . S
C314 H272 0.930 . S
C314 C313 1.390 . S
C314 C315 1.366 . S
C315 H273 0.932 . S
C315 C310 1.360 . S
C315 C314 1.366 . S
C316 C290 1.490 . S
C316 C317 1.380 . S
C316 C321 1.386 . S
C317 H274 0.930 . S
C317 C316 1.380 . S
C317 C318 1.381 . S
C318 H275 0.929 . S
C318 C317 1.381 . S
C318 C319 1.371 . S
C319 C318 1.371 . S
C319 C320 1.380 . S
C320 H276 0.931 . S
C320 C319 1.380 . S
C320 C321 1.387 . S
C321 H277 0.930 . S
C321 C316 1.386 . S
C321 C320 1.387 . S
C322 C291 1.519 . S
C322 C323 1.377 . S
C322 C327 1.361 . S
C323 H278 0.929 . S
C323 C322 1.377 . S
C323 C324 1.386 . S
C324 H279 0.931 . S
C324 C323 1.386 . S
C324 C325 1.363 . S
C325 C324 1.363 . S
C325 C326 1.385 . S
C326 H280 0.930 . S
C326 C325 1.385 . S
C326 C327 1.396 . S
C327 H281 0.929 . S
C327 C322 1.361 . S
C327 C326 1.396 . S
C328 O282 1.300 . S
C328 O283 1.209 . S
C328 C301 1.486 . S
C329 O284 1.199 . S
C329 O285 1.297 . S
C329 C313 1.476 . S
H330 C336 0.930 1_655 S
H331 C339 0.930 . S
H332 C340 0.930 . S
H333 C341 0.930 . S
H334 C344 0.930 . S
H335 C345 0.930 . S
C336 H330 0.930 1_455 S
C336 C337 1.355 . S
C336 C338 1.415 . S
C337 C336 1.355 . S
C337 C339 1.419 . S
C338 C336 1.415 . S
C338 C343 1.425 . S
C338 C345 1.409 1_455 S
C339 H331 0.930 . S
C339 C337 1.419 . S
C339 C340 1.362 . S
C340 H332 0.930 . S
C340 C339 1.362 . S
C340 C343 1.409 . S
C341 H333 0.930 . S
C341 C342 1.355 . S
C341 C343 1.415 . S
C342 C341 1.355 . S
C342 C344 1.419 1_455 S
C343 C338 1.425 . S
C343 C340 1.409 . S
C343 C341 1.415 . S
C344 H334 0.930 . S
C344 C342 1.419 1_655 S
C344 C345 1.362 . S
C345 H335 0.930 . S
C345 C338 1.409 1_655 S
C345 C344 1.362 . S
H346 C352 0.930 . S
H347 C355 0.930 1_565 S
H348 C356 0.930 1_565 S
H349 C357 0.930 . S
H350 C360 0.930 . S
H351 C361 0.930 . S
C352 H346 0.930 . S
C352 C353 1.355 . S
C352 C354 1.415 . S
C353 C352 1.355 . S
C353 C355 1.419 . S
C354 C352 1.415 . S
C354 C359 1.425 . S
C354 C361 1.409 . S
C355 H347 0.930 1_545 S
C355 C353 1.419 . S
C355 C356 1.362 . S
C356 H348 0.930 1_545 S
C356 C355 1.362 . S
C356 C359 1.409 . S
C357 H349 0.930 . S
C357 C358 1.355 . S
C357 C359 1.415 . S
C358 C357 1.355 . S
C358 C360 1.419 . S
C359 C354 1.425 . S
C359 C356 1.409 . S
C359 C357 1.415 . S
C360 H350 0.930 . S
C360 C358 1.419 . S
C360 C361 1.362 . S
C361 H351 0.930 . S
C361 C354 1.409 . S
C361 C360 1.362 . S
H362 C368 0.930 . S
H363 C371 0.930 1_445 S
H364 C372 0.930 . S
H365 C373 0.930 . S
H366 C376 0.930 . S
H367 C377 0.930 . S
C368 H362 0.930 . S
C368 C369 1.355 . S
C368 C370 1.415 . S
C369 C368 1.355 . S
C369 C371 1.419 . S
C370 C368 1.415 . S
C370 C375 1.425 . S
C370 C377 1.409 . S
C371 H363 0.930 1_665 S
C371 C369 1.419 . S
C371 C372 1.362 . S
C372 H364 0.930 . S
C372 C371 1.362 . S
C372 C375 1.409 . S
C373 H365 0.930 . S
C373 C374 1.355 . S
C373 C375 1.415 . S
C374 C373 1.355 . S
C374 C376 1.419 . S
C375 C370 1.425 . S
C375 C372 1.409 . S
C375 C373 1.415 . S
C376 H366 0.930 . S
C376 C374 1.419 . S
C376 C377 1.362 . S
C377 H367 0.930 . S
C377 C370 1.409 . S
C377 C376 1.362 . S
H378 C384 0.930 . S
H379 C387 0.930 1_545 S
H380 C388 0.930 . S
H381 C389 0.930 . S
H382 C392 0.930 1_655 S
H383 C393 0.930 1_655 S
C384 H378 0.930 . S
C384 C385 1.355 . S
C384 C386 1.415 . S
C385 C384 1.355 . S
C385 C387 1.419 . S
C386 C384 1.415 . S
C386 C391 1.425 . S
C386 C393 1.409 . S
C387 H379 0.930 1_565 S
C387 C385 1.419 . S
C387 C388 1.362 . S
C388 H380 0.930 . S
C388 C387 1.362 . S
C388 C391 1.409 . S
C389 H381 0.930 . S
C389 C390 1.355 . S
C389 C391 1.415 . S
C390 C389 1.355 . S
C390 C392 1.419 . S
C391 C386 1.425 . S
C391 C388 1.409 . S
C391 C389 1.415 . S
C392 H382 0.930 1_455 S
C392 C390 1.419 . S
C392 C393 1.362 . S
C393 H383 0.930 1_455 S
C393 C386 1.409 . S
C393 C392 1.362 . S
H394 C400 0.930 . S
H395 C403 0.930 . S
H396 C404 0.930 . S
H397 C405 0.930 . S
H398 C408 0.930 . S
H399 C409 0.930 . S
C400 H394 0.930 . S
C400 C401 1.355 . S
C400 C402 1.415 . S
C401 C400 1.355 . S
C401 C403 1.419 . S
C402 C400 1.415 . S
C402 C407 1.425 . S
C402 C409 1.409 . S
C403 H395 0.930 . S
C403 C401 1.419 . S
C403 C404 1.362 . S
C404 H396 0.930 . S
C404 C403 1.362 . S
C404 C407 1.409 . S
C405 H397 0.930 . S
C405 C406 1.355 . S
C405 C407 1.415 . S
C406 C405 1.355 . S
C406 C408 1.419 . S
C407 C402 1.425 . S
C407 C404 1.409 . S
C407 C405 1.415 . S
C408 H398 0.930 . S
C408 C406 1.419 . S
C408 C409 1.362 . S
C409 H399 0.930 . S
C409 C402 1.409 . S
C409 C408 1.362 . S
H410 C416 0.930 . S
H411 C419 0.930 . S
H412 C420 0.930 . S
H413 C421 0.930 . S
H414 C424 0.930 . S
H415 C425 0.930 . S
C416 H410 0.930 . S
C416 C417 1.355 . S
C416 C418 1.415 . S
C417 C416 1.355 . S
C417 C419 1.419 . S
C418 C416 1.415 . S
C418 C423 1.425 . S
C418 C425 1.409 . S
C419 H411 0.930 . S
C419 C417 1.419 . S
C419 C420 1.362 . S
C420 H412 0.930 . S
C420 C419 1.362 . S
C420 C423 1.409 . S
C421 H413 0.930 . S
C421 C422 1.355 . S
C421 C423 1.415 . S
C422 C421 1.355 . S
C422 C424 1.419 . S
C423 C418 1.425 . S
C423 C420 1.409 . S
C423 C421 1.415 . S
C424 H414 0.930 . S
C424 C422 1.419 . S
C424 C425 1.362 . S
C425 H415 0.930 . S
C425 C418 1.409 . S
C425 C424 1.362 . S
H426 C432 0.930 . S
H427 C435 0.930 . S
H428 C436 0.930 . S
H429 C437 0.930 . S
H430 C440 0.930 . S
H431 C441 0.930 . S
C432 H426 0.930 . S
C432 C433 1.355 . S
C432 C434 1.415 . S
C433 C432 1.355 . S
C433 C435 1.419 . S
C434 C432 1.415 . S
C434 C439 1.425 . S
C434 C441 1.409 . S
C435 H427 0.930 . S
C435 C433 1.419 . S
C435 C436 1.362 . S
C436 H428 0.930 . S
C436 C435 1.362 . S
C436 C439 1.409 . S
C437 H429 0.930 . S
C437 C438 1.355 . S
C437 C439 1.415 . S
C438 C437 1.355 . S
C438 C440 1.419 . S
C439 C434 1.425 . S
C439 C436 1.409 . S
C439 C437 1.415 . S
C440 H430 0.930 . S
C440 C438 1.419 . S
C440 C441 1.362 . S
C441 H431 0.930 . S
C441 C434 1.409 . S
C441 C440 1.362 . S
H442 C448 0.930 1_545 S
H443 C451 0.930 . S
H444 C452 0.930 . S
H445 C453 0.930 . S
H446 C456 0.930 . S
H447 C457 0.930 1_545 S
C448 H442 0.930 1_565 S
C448 C449 1.355 . S
C448 C450 1.415 1_554 S
C449 C448 1.355 . S
C449 C451 1.419 . S
C450 C448 1.415 1_556 S
C450 C455 1.425 . S
C450 C457 1.409 . S
C451 H443 0.930 . S
C451 C449 1.419 . S
C451 C452 1.362 . S
C452 H444 0.930 . S
C452 C451 1.362 . S
C452 C455 1.409 1_554 S
C453 H445 0.930 . S
C453 C454 1.355 . S
C453 C455 1.415 . S
C454 C453 1.355 . S
C454 C456 1.419 . S
C455 C450 1.425 . S
C455 C452 1.409 1_556 S
C455 C453 1.415 . S
C456 H446 0.930 . S
C456 C454 1.419 . S
C456 C457 1.362 . S
C457 H447 0.930 1_565 S
C457 C450 1.409 . S
C457 C456 1.362 . S
H458 C464 0.930 . S
H459 C467 0.930 . S
H460 C468 0.930 . S
H461 C469 0.930 . S
H462 C472 0.930 . S
H463 C473 0.930 . S
C464 H458 0.930 . S
C464 C465 1.355 . S
C464 C466 1.415 . S
C465 C464 1.355 . S
C465 C467 1.419 1_655 S
C466 C464 1.415 . S
C466 C471 1.425 1_655 S
C466 C473 1.409 . S
C467 H459 0.930 . S
C467 C465 1.419 1_455 S
C467 C468 1.362 . S
C468 H460 0.930 . S
C468 C467 1.362 . S
C468 C471 1.409 . S
C469 H461 0.930 . S
C469 C470 1.355 1_455 S
C469 C471 1.415 . S
C470 C469 1.355 1_655 S
C470 C472 1.419 . S
C471 C466 1.425 1_455 S
C471 C468 1.409 . S
C471 C469 1.415 . S
C472 H462 0.930 . S
C472 C470 1.419 . S
C472 C473 1.362 . S
C473 H463 0.930 . S
C473 C466 1.409 . S
C473 C472 1.362 . S
H474 C480 0.930 . S
H475 C483 0.930 . S
H476 C484 0.930 . S
H477 C485 0.930 . S
H478 C488 0.930 . S
H479 C489 0.930 . S
C480 H474 0.930 . S
C480 C481 1.355 . S
C480 C482 1.415 . S
C481 C480 1.355 . S
C481 C483 1.419 . S
C482 C480 1.415 . S
C482 C487 1.425 . S
C482 C489 1.409 . S
C483 H475 0.930 . S
C483 C481 1.419 . S
C483 C484 1.362 . S
C484 H476 0.930 . S
C484 C483 1.362 . S
C484 C487 1.409 . S
C485 H477 0.930 . S
C485 C486 1.355 . S
C485 C487 1.415 . S
C486 C485 1.355 . S
C486 C488 1.419 . S
C487 C482 1.425 . S
C487 C484 1.409 . S
C487 C485 1.415 . S
C488 H478 0.930 . S
C488 C486 1.419 . S
C488 C489 1.362 . S
C489 H479 0.930 . S
C489 C482 1.409 . S
C489 C488 1.362 . S
H490 C496 0.930 . S
H491 C499 0.930 . S
H492 C500 0.930 1_556 S
H493 C501 0.930 . S
H494 C504 0.930 . S
H495 C505 0.930 . S
C496 H490 0.930 . S
C496 C497 1.355 . S
C496 C498 1.415 . S
C497 C496 1.355 . S
C497 C499 1.419 . S
C498 C496 1.415 . S
C498 C503 1.425 . S
C498 C505 1.409 . S
C499 H491 0.930 . S
C499 C497 1.419 . S
C499 C500 1.362 . S
C500 H492 0.930 1_554 S
C500 C499 1.362 . S
C500 C503 1.409 . S
C501 H493 0.930 . S
C501 C502 1.355 . S
C501 C503 1.415 1_556 S
C502 C501 1.355 . S
C502 C504 1.419 1_556 S
C503 C498 1.425 . S
C503 C500 1.409 . S
C503 C501 1.415 1_554 S
C504 H494 0.930 . S
C504 C502 1.419 1_554 S
C504 C505 1.362 . S
C505 H495 0.930 . S
C505 C498 1.409 . S
C505 C504 1.362 . S
H506 C512 0.930 . S
H507 C515 0.930 . S
H508 C516 0.930 . S
H509 C517 0.930 1_655 S
H510 C520 0.930 . S
H511 C521 0.930 . S
C512 H506 0.930 . S
C512 C513 1.355 . S
C512 C514 1.415 . S
C513 C512 1.355 . S
C513 C515 1.419 1_455 S
C514 C512 1.415 . S
C514 C519 1.425 . S
C514 C521 1.409 . S
C515 H507 0.930 . S
C515 C513 1.419 1_655 S
C515 C516 1.362 . S
C516 H508 0.930 . S
C516 C515 1.362 . S
C516 C519 1.409 1_655 S
C517 H509 0.930 1_455 S
C517 C518 1.355 . S
C517 C519 1.415 . S
C518 C517 1.355 . S
C518 C520 1.419 . S
C519 C514 1.425 . S
C519 C516 1.409 1_455 S
C519 C517 1.415 . S
C520 H510 0.930 . S
C520 C518 1.419 . S
C520 C521 1.362 . S
C521 H511 0.930 . S
C521 C514 1.409 . S
C521 C520 1.362 . S
C342 C147 1.489 . S
C337 C14 1.585 . S
C353 C40 1.436 . S
C358 C221 1.359 . S
C369 C76 2.028 1_665 S
C374 C325 2.058 . S
C385 C3 0.851 . S
C390 C159 0.857 . S
C406 C233 0.911 . S
C401 C38 0.945 . S
C417 C74 1.639 . S
C422 C319 1.447 . S
C438 C251 2.064 . S
C433 C86 2.041 1_655 S
C449 C2 1.561 1_665 S
C454 C295 1.502 . S
C470 C171 1.455 . S
C465 C39 1.610 . S
C486 C245 1.375 . S
C481 C75 1.534 . S
C502 C307 0.875 . S
C497 C4 0.867 . S
C513 C50 2.092 . S
C518 C177 2.131 . S
