# Generated by pormake.
# Topology anh, (6,3)-cn, num edge types: 1
# Building blocks:
#     Node 0, Type 0, BuildingBlock: BETGAK_clean_sbu_0, # of connection points: 6
#     Node 1, Type 0, BuildingBlock: BETGAK_clean_sbu_0, # of connection points: 6
#     Node 2, Type 0, BuildingBlock: BETGAK_clean_sbu_0, # of connection points: 6
#     Node 3, Type 1, BuildingBlock: CUQRIR_clean_linker_1, # of connection points: 3
#     Node 4, Type 1, BuildingBlock: CUQRIR_clean_linker_1, # of connection points: 3
#     Node 5, Type 1, BuildingBlock: CUQRIR_clean_linker_1, # of connection points: 3
#     Node 6, Type 1, BuildingBlock: CUQRIR_clean_linker_1, # of connection points: 3
#     Node 7, Type 1, BuildingBlock: CUQRIR_clean_linker_1, # of connection points: 3
#     Node 8, Type 1, BuildingBlock: CUQRIR_clean_linker_1, # of connection points: 3
#     Edge 9, Type (0, 1), BuildingBlock: TEMPAE_clean_linker_10, # of connection points: 2
#     Edge 10, Type (0, 1), BuildingBlock: TEMPAE_clean_linker_10, # of connection points: 2
#     Edge 11, Type (0, 1), BuildingBlock: TEMPAE_clean_linker_10, # of connection points: 2
#     Edge 12, Type (0, 1), BuildingBlock: TEMPAE_clean_linker_10, # of connection points: 2
#     Edge 13, Type (0, 1), BuildingBlock: TEMPAE_clean_linker_10, # of connection points: 2
#     Edge 14, Type (0, 1), BuildingBlock: TEMPAE_clean_linker_10, # of connection points: 2
#     Edge 15, Type (0, 1), BuildingBlock: TEMPAE_clean_linker_10, # of connection points: 2
#     Edge 16, Type (0, 1), BuildingBlock: TEMPAE_clean_linker_10, # of connection points: 2
#     Edge 17, Type (0, 1), BuildingBlock: TEMPAE_clean_linker_10, # of connection points: 2
#     Edge 18, Type (0, 1), BuildingBlock: TEMPAE_clean_linker_10, # of connection points: 2
#     Edge 19, Type (0, 1), BuildingBlock: TEMPAE_clean_linker_10, # of connection points: 2
#     Edge 20, Type (0, 1), BuildingBlock: TEMPAE_clean_linker_10, # of connection points: 2
#     Edge 21, Type (0, 1), BuildingBlock: TEMPAE_clean_linker_10, # of connection points: 2
#     Edge 22, Type (0, 1), BuildingBlock: TEMPAE_clean_linker_10, # of connection points: 2
#     Edge 23, Type (0, 1), BuildingBlock: TEMPAE_clean_linker_10, # of connection points: 2
#     Edge 24, Type (0, 1), BuildingBlock: TEMPAE_clean_linker_10, # of connection points: 2
#     Edge 25, Type (0, 1), BuildingBlock: TEMPAE_clean_linker_10, # of connection points: 2
#     Edge 26, Type (0, 1), BuildingBlock: TEMPAE_clean_linker_10, # of connection points: 2
# Relax obj value: 0.204
# Max RMSD: 0.217
# Mean RMSD: 0.164
data_MOF--net-anh--node1-BETGAK_clean_sbu_0--node2-CUQRIR_clean_linker_1--edge1-TEMPAE_clean_linker_10
_symmetry_space_group_name_H-M    P1
_symmetry_Int_Tables_number       1
_symmetry_cell_setting            triclinic
loop_
_symmetry_equiv_pos_as_xyz
'x, y, z'
_cell_length_a     30.640131
_cell_length_b     35.924132
_cell_length_c     47.672545
_cell_angle_alpha  88.029867
_cell_angle_beta   90.645132
_cell_angle_gamma 130.79598
loop_
_atom_site_label
_atom_site_type_symbol
_atom_site_fract_x
_atom_site_fract_y
_atom_site_fract_z
_atom_type_partial_charge
La0 La 0.16322 0.53805 0.15079 0.0
La1 La 0.09487 0.56593 0.15455 0.0
C2 C 0.23257 0.52582 0.13804 0.0
C3 C 0.2286 0.4832 0.13574 0.0
C4 C 0.17917 0.43597 0.14504 0.0
C5 C 0.17483 0.39526 0.14092 0.0
C6 C 0.21967 0.40146 0.12723 0.0
C7 C 0.26953 0.44911 0.11862 0.0
C8 C 0.27384 0.48958 0.12279 0.0
C9 C 0.12686 0.53054 0.20219 0.0
C10 C 0.22614 0.65183 0.15723 0.0
C11 C 1.01841 0.57049 0.16537 0.0
C12 C 0.9608 0.54234 0.15342 0.0
C13 C 0.91755 0.53803 0.16726 0.0
C14 C 0.86224 0.50959 0.15602 0.0
C15 C 0.84977 0.48537 0.13075 0.0
C16 C 0.89333 0.4898 0.11704 0.0
C17 C 0.94829 0.51784 0.12835 0.0
C18 C 0.12746 0.57057 0.10215 0.0
C19 C 1.03039 0.45016 0.15251 0.0
O20 O 0.2028 0.5287 0.11972 0.0
O21 O 0.22723 0.53556 0.16329 0.0
O22 O 0.12954 0.49943 0.19157 0.0
O23 O 0.14633 0.56544 0.18461 0.0
O24 O 0.22858 0.61993 0.14596 0.0
O25 O 0.17634 0.63591 0.16738 0.0
O26 O 1.06107 0.6007 0.14766 0.0
O27 O 1.02644 0.54451 0.18063 0.0
O28 O 0.12305 0.60064 0.11265 0.0
O29 O 0.11056 0.53727 0.12055 0.0
O30 O 1.02647 0.4844 0.15582 0.0
O31 O 0.08106 0.46268 0.14797 0.0
H32 H 0.14374 0.43055 0.15505 0.0
H33 H 0.13604 0.35897 0.14776 0.0
H34 H 0.30527 0.45509 0.10854 0.0
H35 H 0.31224 0.52581 0.11555 0.0
H36 H 0.92648 0.55641 0.18674 0.0
H37 H 0.82936 0.50687 0.16691 0.0
H38 H 0.88464 0.47093 0.09779 0.0
H39 H 0.98105 0.52019 0.1176 0.0
La40 La 0.70943 0.07633 0.47101 0.0
La41 La 0.6394 0.10417 0.46422 0.0
C42 C 0.75087 0.03683 0.48601 0.0
C43 C 0.731 0.98864 0.49699 0.0
C44 C 0.71062 0.95051 0.47869 0.0
C45 C 0.69797 0.90722 0.48856 0.0
C46 C 0.70553 0.90091 0.51695 0.0
C47 C 0.72412 0.93833 0.53546 0.0
C48 C 0.73698 0.9818 0.52556 0.0
C49 C 0.70445 0.10053 0.41892 0.0
C50 C 0.57296 0.99237 0.46335 0.0
C51 C 0.59882 0.1445 0.44988 0.0
C52 C 0.60863 0.18802 0.45946 0.0
C53 C 0.63082 0.20615 0.48621 0.0
C54 C 0.63796 0.24626 0.49564 0.0
C55 C 0.62361 0.26937 0.4784 0.0
C56 C 0.60269 0.25181 0.45135 0.0
C57 C 0.59509 0.21136 0.44201 0.0
C58 C 0.64451 0.08171 0.51705 0.0
C59 C 0.77828 0.18982 0.46816 0.0
O60 O 0.7377 0.03896 0.46016 0.0
O61 O 0.7461 0.06229 0.50262 0.0
O62 O 0.75009 0.11153 0.43012 0.0
O63 O 0.66298 0.0749 0.43626 0.0
O64 O 0.6196 1.00472 0.47583 0.0
O65 O 0.57459 0.0274 0.4519 0.0
O66 O 0.57414 0.10775 0.46819 0.0
O67 O 0.64216 0.15307 0.43691 0.0
O68 O 0.60071 0.0737 0.50572 0.0
O69 O 0.68576 0.10561 0.49941 0.0
O70 O 0.72742 0.17762 0.46426 0.0
O71 O 0.78227 0.15564 0.47318 0.0
H72 H 0.70567 0.95444 0.45653 0.0
H73 H 0.68291 0.87884 0.47382 0.0
H74 H 0.73083 0.93483 0.55741 0.0
H75 H 0.75313 1.01063 0.54016 0.0
H76 H 0.64213 0.18897 0.49992 0.0
H77 H 0.65494 0.25935 0.51642 0.0
H78 H 0.59097 0.26866 0.43765 0.0
H79 H 0.57807 0.19798 0.42127 0.0
La80 La 0.62016 0.61743 0.84882 0.0
La81 La 0.53848 0.51081 0.84346 0.0
C82 C 0.67618 0.70832 0.83844 0.0
C83 C 0.66525 0.74169 0.82975 0.0
C84 C 0.70603 0.79168 0.8359 0.0
C85 C 0.69912 0.82487 0.82624 0.0
C86 C 0.65115 0.80896 0.8101 0.0
C87 C 0.60984 0.75853 0.80427 0.0
C88 C 0.6168 0.72529 0.81399 0.0
C89 C 0.5888 0.56639 0.89616 0.0
C90 C 0.47731 0.55944 0.8495 0.0
C91 C 0.48863 0.42056 0.84961 0.0
C92 C 0.50339 0.39043 0.84128 0.0
C93 C 0.53354 0.40084 0.81609 0.0
C94 C 0.54634 0.37158 0.80823 0.0
C95 C 0.52986 0.33147 0.82548 0.0
C96 C 0.50081 0.32187 0.851 0.0
C97 C 0.48759 0.35093 0.85874 0.0
C98 C 0.5699 0.55988 0.79484 0.0
C99 C 0.68121 0.56833 0.84761 0.0
O100 O 0.65937 0.68781 0.86369 0.0
O101 O 0.66529 0.6773 0.81989 0.0
O102 O 0.64086 0.60759 0.89113 0.0
O103 O 0.55702 0.55719 0.87579 0.0
O104 O 0.53312 0.60181 0.84677 0.0
O105 O 0.46931 0.51754 0.85095 0.0
O106 O 0.47778 0.43877 0.82926 0.0
O107 O 0.52115 0.45293 0.86868 0.0
O108 O 0.51919 0.51837 0.80084 0.0
O109 O 0.60206 0.57091 0.81555 0.0
O110 O 0.6254 0.52643 0.84553 0.0
O111 O 0.68998 0.61042 0.84854 0.0
H112 H 0.744 0.80534 0.84779 0.0
H113 H 0.73228 0.86334 0.83089 0.0
H114 H 0.57196 0.74465 0.79226 0.0
H115 H 0.58468 0.68691 0.80889 0.0
H116 H 0.54708 0.43155 0.80239 0.0
H117 H 0.56958 0.38061 0.78868 0.0
H118 H 0.4872 0.2912 0.86475 0.0
H119 H 0.46462 0.34232 0.87833 0.0
C120 C 0.62527 0.05361 0.17035 0.0
N121 N 0.66154 0.09154 0.18813 0.0
N122 N 0.58093 1.01137 0.18477 0.0
C123 C 0.63302 0.05736 0.13905 0.0
C124 C 0.59108 0.02526 0.21174 0.0
N125 N 0.63917 0.07308 0.21384 0.0
C126 C 0.55422 0.99163 0.23647 0.0
H127 H 0.65314 0.09485 0.13084 0.0
H128 H 0.59129 0.03005 0.12857 0.0
H129 H 0.66153 0.04964 0.13375 0.0
H130 H 0.57169 0.97466 0.24507 0.0
H131 H 0.50895 0.96192 0.23017 0.0
H132 H 0.55482 1.01241 0.25338 0.0
C133 C 0.65909 0.57809 0.54873 0.0
N134 N 0.66145 0.60434 0.56944 0.0
N135 N 0.66083 0.54374 0.55959 0.0
C136 C 0.65852 0.58776 0.51785 0.0
C137 C 0.66426 0.54994 0.58762 0.0
N138 N 0.66542 0.5872 0.59363 0.0
C139 C 0.66075 0.51638 0.60919 0.0
H140 H 0.61327 0.56697 0.5113 0.0
H141 H 0.67722 0.57545 0.50543 0.0
H142 H 0.68297 0.62748 0.5132 0.0
H143 H 0.70504 0.53311 0.61551 0.0
H144 H 0.63951 0.4798 0.60063 0.0
H145 H 0.63646 0.5113 0.62816 0.0
C146 C 0.07859 0.56159 0.85215 0.0
N147 N 0.11549 0.56008 0.86975 0.0
N148 N 1.03871 0.56268 0.86645 0.0
C149 C 0.07961 0.55977 0.82093 0.0
C150 C 1.05537 0.56357 0.89322 0.0
N151 N 0.09777 0.56055 0.89523 0.0
C152 C 1.03312 0.57176 0.91832 0.0
H153 H 0.1151 0.59732 0.81219 0.0
H154 H 1.0383 0.54679 0.81198 0.0
H155 H 0.08803 0.53537 0.81491 0.0
H156 H 0.99604 0.53568 0.92801 0.0
H157 H 1.01906 0.59254 0.91224 0.0
H158 H 0.06686 0.59273 0.93444 0.0
C159 C 0.17018 0.59145 0.45058 0.0
N160 N 0.13064 0.5548 0.43278 0.0
N161 N 0.21054 0.63526 0.4362 0.0
C162 C 0.16996 0.58473 0.48184 0.0
C163 C 0.19352 0.62403 0.40925 0.0
N164 N 0.14586 0.57605 0.40712 0.0
C165 C 0.2243 0.66003 0.38456 0.0
H166 H 0.1913 0.61978 0.49241 0.0
H167 H 0.19423 0.57234 0.48692 0.0
H168 H 0.12521 0.55656 0.49011 0.0
H169 H 0.25628 0.65823 0.37582 0.0
H170 H 0.24725 0.6982 0.39094 0.0
H171 H 0.19362 0.65072 0.36773 0.0
C172 C 0.60728 0.08156 0.76712 0.0
N173 N 0.62029 0.06313 0.74764 0.0
N174 N 0.61168 0.11915 0.75587 0.0
C175 C 0.59424 0.06536 0.7976 0.0
C176 C 0.62777 0.12295 0.72887 0.0
N177 N 0.63391 0.08956 0.72389 0.0
C178 C 0.63205 0.15619 0.7067 0.0
H179 H 0.5473 0.03408 0.80033 0.0
H180 H 0.60623 0.09561 0.81079 0.0
H181 H 0.61766 0.05302 0.80489 0.0
H182 H 0.67763 0.19074 0.70454 0.0
H183 H 0.60545 0.16568 0.71246 0.0
H184 H 0.61774 0.13852 0.68608 0.0
C185 C 0.40466 0.25289 0.07721 0.0
N186 N 0.44816 0.28267 0.05833 0.0
N187 N 0.35649 0.24481 0.06924 0.0
C188 C 0.41254 0.23949 0.10592 0.0
C189 C 0.37197 0.2687 0.04379 0.0
N190 N 0.42791 0.29295 0.03759 0.0
C191 C 0.33598 0.2767 0.02766 0.0
H192 H 0.43651 0.22628 0.10414 0.0
H193 H 0.37031 0.21062 0.11655 0.0
H194 H 0.43863 0.27265 0.11883 0.0
H195 H 0.34035 0.30669 0.03718 0.0
H196 H 0.28986 0.24287 0.02855 0.0
H197 H 0.35048 0.28732 0.00539 0.0
C198 C 0.19959 0.32386 0.14261 0.0
C199 C 0.21547 0.35899 0.12146 0.0
C200 C 0.20653 0.2894 0.13846 0.0
C201 C 0.23062 0.29097 0.11281 0.0
C202 C 0.24111 0.32321 0.09053 0.0
C203 C 0.23298 0.35652 0.09512 0.0
C204 C 0.19259 0.25433 0.16233 0.0
C205 C 0.26699 0.32657 0.06277 0.0
C206 C 0.34632 0.28405 0.10615 0.0
C207 C 0.32022 0.24454 0.08831 0.0
C208 C 0.31515 0.29594 0.11748 0.0
C209 C 0.25633 0.26763 0.11065 0.0
C210 C 0.22793 0.2238 0.09584 0.0
C211 C 0.26053 0.21287 0.08458 0.0
C212 C 0.34738 0.3428 0.1334 0.0
C213 C 0.16476 0.19158 0.08916 0.0
H214 H 0.18527 0.32525 0.16293 0.0
H215 H 0.24358 0.38274 0.07848 0.0
H216 H 0.17818 0.21914 0.1545 0.0
H217 H 0.23177 0.27118 0.17499 0.0
H218 H 0.15856 0.24645 0.1764 0.0
H219 H 0.26504 0.34842 0.04658 0.0
H220 H 0.31294 0.34461 0.06579 0.0
H221 H 0.24455 0.28947 0.05472 0.0
H222 H 0.39265 0.30896 0.10868 0.0
H223 H 0.24047 0.18224 0.07084 0.0
H224 H 0.32259 0.33688 0.15233 0.0
H225 H 0.35334 0.3716 0.11982 0.0
H226 H 0.39057 0.35682 0.14002 0.0
H227 H 0.14015 0.19034 0.10664 0.0
H228 H 0.14615 0.15351 0.0849 0.0
H229 H 0.15932 0.20682 0.07014 0.0
C230 C 0.87701 0.25817 0.44681 0.0
C231 C 0.83212 0.24318 0.46518 0.0
C232 C 0.9258 0.30861 0.44178 0.0
C233 C 0.93183 0.3456 0.45638 0.0
C234 C 0.88726 0.33033 0.47567 0.0
C235 C 0.83762 0.27978 0.47925 0.0
C236 C 0.96997 0.32237 0.42 0.0
C237 C 0.89194 0.36745 0.49264 0.0
C238 C 0.08472 0.47409 0.45843 0.0
C239 C 0.08096 0.50274 0.4394 0.0
C240 C 1.03661 0.42378 0.46473 0.0
C241 C 0.98343 0.40001 0.45074 0.0
C242 C 0.97981 0.42856 0.43115 0.0
C243 C 1.02755 0.47928 0.42643 0.0
C244 C 1.0427 0.39611 0.48657 0.0
C245 C 0.92548 0.40547 0.41479 0.0
H246 H 0.87282 0.2304 0.43542 0.0
H247 H 0.80324 0.26877 0.49342 0.0
H248 H 0.97417 0.34725 0.40358 0.0
H249 H 1.0128 0.3427 0.42975 0.0
H250 H 0.95847 0.28969 0.4098 0.0
H251 H 0.85745 0.34961 0.50899 0.0
H252 H 0.93449 0.392 0.50296 0.0
H253 H 0.88886 0.39089 0.47862 0.0
H254 H 0.12549 0.49082 0.46835 0.0
H255 H 1.0227 0.50074 0.41259 0.0
H256 H 1.0393 0.3669 0.47657 0.0
H257 H 1.00725 0.37778 0.50239 0.0
H258 H 0.08458 0.42057 0.49752 0.0
H259 H 0.91131 0.3717 0.40483 0.0
H260 H 0.93145 0.43096 0.39817 0.0
H261 H 0.89029 0.39443 0.42917 0.0
C262 C 0.62477 0.84187 0.77196 0.0
C263 C 0.64489 0.84503 0.79919 0.0
C264 C 0.61997 0.87622 0.76135 0.0
C265 C 0.63552 0.91486 0.77829 0.0
C266 C 0.65567 0.91817 0.80578 0.0
C267 C 0.66007 0.8834 0.81585 0.0
C268 C 0.59841 0.87124 0.73192 0.0
C269 C 0.6724 0.95844 0.82471 0.0
C270 C 0.67243 0.03204 0.74644 0.0
C271 C 0.6221 0.02406 0.75225 0.0
C272 C 0.67685 0.99627 0.75395 0.0
C273 C 0.62977 0.95137 0.76764 0.0
C274 C 0.57805 0.94251 0.77249 0.0
C275 C 0.57485 0.97883 0.76468 0.0
C276 C 0.73268 1.00732 0.74817 0.0
C277 C 0.52662 0.8953 0.78681 0.0
H278 H 0.61363 0.81294 0.75869 0.0
H279 H 0.67485 0.88599 0.83703 0.0
H280 H 0.559 0.86675 0.73243 0.0
H281 H 0.63131 0.90522 0.71916 0.0
H282 H 0.58831 0.83938 0.72133 0.0
H283 H 0.68791 0.95639 0.8454 0.0
H284 H 0.70692 0.99497 0.81451 0.0
H285 H 0.63487 0.95601 0.82825 0.0
H286 H 0.70908 0.06708 0.73699 0.0
H287 H 0.53567 0.9724 0.76882 0.0
H288 H 0.7243 0.97675 0.73689 0.0
H289 H 0.75321 1.01054 0.76833 0.0
H290 H 0.76352 0.04204 0.7355 0.0
H291 H 0.51454 0.86315 0.7757 0.0
H292 H 0.48859 0.89285 0.78764 0.0
H293 H 0.53784 0.89271 0.80858 0.0
C294 C 0.78455 0.46058 0.09012 0.0
C295 C 0.79141 0.45524 0.1187 0.0
C296 C 0.72954 0.43233 0.07839 0.0
C297 C 0.68042 0.39766 0.09566 0.0
C298 C 0.68716 0.39166 0.12446 0.0
C299 C 0.74266 0.42076 0.13568 0.0
C300 C 0.72388 0.44018 0.0477 0.0
C301 C 0.63572 0.35476 0.14346 0.0
C302 C 0.53593 0.35886 0.07663 0.0
C303 C 0.50797 0.31295 0.06526 0.0
C304 C 0.59288 0.38763 0.08566 0.0
C305 C 0.62176 0.36916 0.08398 0.0
C306 C 0.59359 0.32268 0.07236 0.0
C307 C 0.53672 0.29505 0.06302 0.0
C308 C 0.62147 0.43711 0.09771 0.0
C309 C 0.62286 0.30162 0.07056 0.0
H310 H 0.82228 0.48755 0.07702 0.0
H311 H 0.74802 0.41618 0.1577 0.0
H312 H 0.6992 0.40494 0.03679 0.0
H313 H 0.69944 0.45304 0.0455 0.0
H314 H 0.76645 0.46763 0.03698 0.0
H315 H 0.64851 0.35321 0.16508 0.0
H316 H 0.60804 0.36443 0.14464 0.0
H317 H 0.60919 0.31755 0.13475 0.0
H318 H 0.51245 0.37153 0.07911 0.0
H319 H 0.51407 0.25901 0.0546 0.0
H320 H 0.6636 0.46607 0.08704 0.0
H321 H 0.63008 0.43639 0.1203 0.0
H322 H 0.59446 0.44751 0.09557 0.0
H323 H 0.66454 0.32786 0.05899 0.0
H324 H 0.59586 0.26594 0.05992 0.0
H325 H 0.63256 0.29595 0.09199 0.0
C326 C 0.47666 0.92362 0.44159 0.0
C327 C 0.51917 0.93886 0.46158 0.0
C328 C 0.42662 0.87344 0.43926 0.0
C329 C 0.41727 0.83687 0.45779 0.0
C330 C 0.45958 0.8522 0.47836 0.0
C331 C 0.50995 0.9025 0.47976 0.0
C332 C 0.38408 0.85943 0.41651 0.0
C333 C 0.4516 0.81534 0.49901 0.0
C334 C 0.26101 0.712 0.4631 0.0
C335 C 0.26311 0.68256 0.44554 0.0
C336 C 0.31096 0.76134 0.4682 0.0
C337 C 0.3645 0.78272 0.45487 0.0
C338 C 0.36686 0.75256 0.43766 0.0
C339 C 0.31673 0.70318 0.43352 0.0
C340 C 0.30597 0.7911 0.48722 0.0
C341 C 0.42191 0.7731 0.42248 0.0
H342 H 0.48303 0.95094 0.42726 0.0
H343 H 0.54197 0.91344 0.49543 0.0
H344 H 0.37926 0.83286 0.40257 0.0
H345 H 0.34106 0.84093 0.42596 0.0
H346 H 0.39754 0.8918 0.40353 0.0
H347 H 0.48661 0.83308 0.51466 0.0
H348 H 0.40968 0.7945 0.51031 0.0
H349 H 0.45055 0.78831 0.48769 0.0
H350 H 0.21978 0.69702 0.472 0.0
H351 H 0.31876 0.68093 0.41978 0.0
H352 H 0.31145 0.82056 0.47472 0.0
H353 H 0.34065 0.80925 0.50302 0.0
H354 H 0.26357 0.76814 0.49834 0.0
H355 H 0.43485 0.80347 0.4077 0.0
H356 H 0.41734 0.7448 0.41046 0.0
H357 H 0.45734 0.78877 0.43764 0.0
C358 C 0.53296 0.28421 0.78887 0.0
C359 C 0.54217 0.29944 0.81665 0.0
C360 C 0.54402 0.25394 0.78017 0.0
C361 C 0.56537 0.23862 0.7996 0.0
C362 C 0.57485 0.25391 0.82768 0.0
C363 C 0.56291 0.28385 0.83588 0.0
C364 C 0.53275 0.23828 0.75011 0.0
C365 C 0.59822 0.23905 0.84901 0.0
C366 C 0.54779 0.12652 0.78135 0.0
C367 C 0.60149 0.14861 0.76908 0.0
C368 C 0.53576 0.15523 0.79189 0.0
C369 C 0.57862 0.20736 0.79029 0.0
C370 C 0.63355 0.22965 0.77865 0.0
C371 C 0.64418 0.20004 0.76813 0.0
C372 C 0.47657 0.12981 0.80395 0.0
C373 C 0.68076 0.28489 0.7767 0.0
H374 H 0.51624 0.29543 0.77392 0.0
H375 H 0.57076 0.29578 0.8573 0.0
H376 H 0.5733 0.25167 0.73985 0.0
H377 H 0.5017 0.19753 0.7495 0.0
H378 H 0.51517 0.25253 0.73771 0.0
H379 H 0.60267 0.25348 0.87006 0.0
H380 H 0.56936 0.19836 0.85095 0.0
H381 H 0.64108 0.25291 0.84192 0.0
H382 H 0.51468 0.08677 0.78184 0.0
H383 H 0.68576 0.21702 0.75874 0.0
H384 H 0.45493 0.1396 0.7909 0.0
H385 H 0.4801 0.14248 0.82541 0.0
H386 H 0.44896 0.08913 0.80491 0.0
H387 H 0.66742 0.30099 0.76258 0.0
H388 H 0.72199 0.29642 0.76857 0.0
H389 H 0.68831 0.30055 0.79766 0.0
C390 C 0.71797 0.83928 0.51063 0.0
C391 C 0.69676 0.85653 0.52679 0.0
C392 C 0.71073 0.79783 0.51946 0.0
C393 C 0.68135 0.77266 0.54508 0.0
C394 C 0.65989 0.78986 0.56157 0.0
C395 C 0.66803 0.8317 0.55228 0.0
C396 C 0.7347 0.78101 0.50132 0.0
C397 C 0.62796 0.76384 0.5889 0.0
C398 C 0.62038 0.6404 0.55085 0.0
C399 C 0.66332 0.6454 0.56594 0.0
C400 C 0.62446 0.68116 0.5449 0.0
C401 C 0.67281 0.72809 0.55425 0.0
C402 C 0.71511 0.7328 0.57054 0.0
C403 C 0.70973 0.69128 0.57624 0.0
C404 C 0.57811 0.67431 0.52773 0.0
C405 C 0.76732 0.78206 0.58089 0.0
H406 H 0.74111 0.85872 0.49117 0.0
H407 H 0.65116 0.84457 0.56479 0.0
H408 H 0.76572 0.78088 0.51345 0.0
H409 H 0.69938 0.74276 0.4949 0.0
H410 H 0.75694 0.80488 0.48212 0.0
H411 H 0.61453 0.78213 0.59944 0.0
H412 H 0.589 0.72525 0.58504 0.0
H413 H 0.65556 0.76252 0.60338 0.0
H414 H 0.58414 0.6046 0.54329 0.0
H415 H 0.74288 0.69491 0.58785 0.0
H416 H 0.5964 0.69408 0.50709 0.0
H417 H 0.56198 0.69031 0.53841 0.0
H418 H 0.54112 0.63492 0.52405 0.0
H419 H 0.7947 0.80673 0.56272 0.0
H420 H 0.79371 0.77884 0.59516 0.0
H421 H 0.754 0.79983 0.59214 0.0
C422 C 0.72915 0.52607 0.84207 0.0
C423 C 0.73448 0.56758 0.84874 0.0
C424 C 0.77632 0.52473 0.8427 0.0
C425 C 0.83486 0.56537 0.85129 0.0
C426 C 0.8402 0.60722 0.85845 0.0
C427 C 0.79258 0.60799 0.85668 0.0
C428 C 0.7616 0.47808 0.83343 0.0
C429 C 0.89705 0.65282 0.86873 0.0
C430 C 0.93362 0.52945 0.87494 0.0
C431 C 0.98704 0.56027 0.85919 0.0
C432 C 0.88703 0.53117 0.87294 0.0
C433 C 0.8878 0.56355 0.85353 0.0
C434 C 0.94097 0.59383 0.8367 0.0
C435 C 0.98818 0.59249 0.8399 0.0
C436 C 0.8368 0.49766 0.89304 0.0
C437 C 0.94963 0.62908 0.81458 0.0
H438 H 0.68694 0.49342 0.8357 0.0
H439 H 0.80144 0.64131 0.86225 0.0
H440 H 0.80029 0.48328 0.82766 0.0
H441 H 0.73781 0.44971 0.85068 0.0
H442 H 0.73252 0.46357 0.81512 0.0
H443 H 0.89032 0.67055 0.88467 0.0
H444 H 0.92383 0.64504 0.87802 0.0
H445 H 0.92117 0.67963 0.85081 0.0
H446 H 0.92805 0.50337 0.89003 0.0
H447 H 1.02694 0.61801 0.82719 0.0
H448 H 0.80671 0.46032 0.88444 0.0
H449 H 0.813 0.51061 0.89669 0.0
H450 H 0.8516 0.49431 0.91361 0.0
H451 H 0.90845 0.61931 0.80809 0.0
H452 H 0.97153 0.63019 0.79575 0.0
H453 H 0.97819 0.66665 0.82293 0.0
C454 C 0.32731 0.72705 0.14098 0.0
C455 C 0.27966 0.70534 0.15911 0.0
C456 C 0.37747 0.77743 0.14241 0.0
C457 C 0.3815 0.80723 0.16299 0.0
C458 C 0.33362 0.7853 0.18148 0.0
C459 C 0.28342 0.73524 0.17908 0.0
C460 C 0.42626 0.79886 0.12174 0.0
C461 C 0.33576 0.81459 0.20426 0.0
C462 C 0.53067 0.92228 0.18734 0.0
C463 C 0.5357 0.96131 0.17541 0.0
C464 C 0.48165 0.87252 0.18315 0.0
C465 C 0.43618 0.86059 0.16594 0.0
C466 C 0.4423 0.89995 0.15269 0.0
C467 C 0.49133 0.94957 0.15789 0.0
C468 C 0.47745 0.83266 0.19827 0.0
C469 C 0.39611 0.88966 0.13366 0.0
H470 H 0.3251 0.70475 0.1253 0.0
H471 H 0.24733 0.71918 0.19336 0.0
H472 H 0.43704 0.8316 0.11051 0.0
H473 H 0.46541 0.81134 0.13304 0.0
H474 H 0.41558 0.77193 0.10603 0.0
H475 H 0.29564 0.79231 0.21727 0.0
H476 H 0.37277 0.82905 0.21817 0.0
H477 H 0.34257 0.84672 0.19484 0.0
H478 H 0.56446 0.93092 0.20105 0.0
H479 H 0.49395 0.97918 0.14906 0.0
H480 H 0.47014 0.80645 0.18307 0.0
H481 H 0.43995 0.81149 0.21302 0.0
H482 H 0.51687 0.8477 0.21033 0.0
H483 H 0.38469 0.86264 0.11788 0.0
H484 H 0.40978 0.92356 0.12254 0.0
H485 H 0.35655 0.87321 0.14617 0.0
C486 C 0.60952 0.30808 0.51591 0.0
C487 C 0.62945 0.31101 0.48889 0.0
C488 C 0.61469 0.34694 0.52624 0.0
C489 C 0.64096 0.39013 0.50925 0.0
C490 C 0.66112 0.39332 0.48192 0.0
C491 C 0.65483 0.35362 0.47201 0.0
C492 C 0.59201 0.34176 0.55537 0.0
C493 C 0.68997 0.43892 0.4633 0.0
C494 C 0.61004 0.473 0.5288 0.0
C495 C 0.6579 0.50766 0.54507 0.0
C496 C 0.60443 0.43506 0.51649 0.0
C497 C 0.64808 0.43213 0.52041 0.0
C498 C 0.69739 0.46815 0.53618 0.0
C499 C 0.70151 0.50533 0.54844 0.0
C500 C 0.55098 0.39722 0.50007 0.0
C501 C 0.74517 0.46676 0.54065 0.0
H502 H 0.58916 0.27498 0.52891 0.0
H503 H 0.67075 0.35626 0.4512 0.0
H504 H 0.6277 0.37094 0.5687 0.0
H505 H 0.55978 0.34662 0.55439 0.0
H506 H 0.57158 0.30539 0.56566 0.0
H507 H 0.70271 0.43542 0.44249 0.0
H508 H 0.66057 0.4466 0.46004 0.0
H509 H 0.72904 0.47115 0.47363 0.0
H510 H 0.57623 0.47481 0.52649 0.0
H511 H 0.73851 0.53244 0.561 0.0
H512 H 0.52634 0.3605 0.51076 0.0
H513 H 0.563 0.39458 0.47883 0.0
H514 H 0.5224 0.406 0.49784 0.0
H515 H 0.72847 0.4329 0.55297 0.0
H516 H 0.78213 0.49914 0.55196 0.0
H517 H 0.76095 0.46552 0.52017 0.0
C518 C 0.42981 0.60226 0.85513 0.0
C519 C 0.42341 0.55935 0.85145 0.0
C520 C 0.38206 0.60273 0.85748 0.0
C521 C 0.32137 0.55933 0.85535 0.0
C522 C 0.31484 0.516 0.85102 0.0
C523 C 0.3634 0.51649 0.84968 0.0
C524 C 0.39853 0.65156 0.8627 0.0
C525 C 0.25547 0.46713 0.84721 0.0
C526 C 0.1753 0.53239 0.88299 0.0
C527 C 0.16423 0.5579 0.86447 0.0
C528 C 0.22404 0.5335 0.88072 0.0
C529 C 0.26678 0.55893 0.8582 0.0
C530 C 0.25484 0.58346 0.83871 0.0
C531 C 0.20658 0.58325 0.84213 0.0
C532 C 0.229 0.50678 0.9038 0.0
C533 C 0.29322 0.61093 0.81325 0.0
H534 H 0.47351 0.63689 0.85671 0.0
H535 H 0.35347 0.4819 0.84673 0.0
H536 H 0.41025 0.67227 0.84237 0.0
H537 H 0.36303 0.64749 0.87271 0.0
H538 H 0.43697 0.67397 0.87628 0.0
H539 H 0.25639 0.44626 0.83093 0.0
H540 H 0.24101 0.44497 0.86716 0.0
H541 H 0.22346 0.47093 0.84112 0.0
H542 H 0.14489 0.50998 0.9 0.0
H543 H 0.20289 0.60407 0.82688 0.0
H544 H 0.27334 0.52021 0.90565 0.0
H545 H 0.19905 0.46694 0.89956 0.0
H546 H 0.21586 0.5108 0.92433 0.0
H547 H 0.32475 0.65079 0.81745 0.0
H548 H 0.26755 0.60625 0.7949 0.0
H549 H 0.3171 0.5987 0.8077 0.0
C550 C 0.97728 0.36343 0.17172 0.0
C551 C 0.97694 0.39666 0.15551 0.0
C552 C 0.92631 0.3139 0.17683 0.0
C553 C 0.87355 0.29563 0.1642 0.0
C554 C 0.8737 0.32884 0.14689 0.0
C555 C 0.92459 0.37891 0.14351 0.0
C556 C 0.92886 0.28156 0.19649 0.0
C557 C 0.82019 0.31206 0.13187 0.0
C558 C 0.75589 0.15358 0.16204 0.0
C559 C 0.71415 0.14245 0.18143 0.0
C560 C 0.80644 0.20282 0.15548 0.0
C561 C 0.81828 0.24261 0.16986 0.0
C562 C 0.77689 0.23135 0.18994 0.0
C563 C 0.7251 0.18221 0.19463 0.0
C564 C 0.84693 0.21161 0.13306 0.0
C565 C 0.78701 0.2711 0.20683 0.0
H566 H 1.01716 0.37677 0.18145 0.0
H567 H 0.92356 0.4041 0.13099 0.0
H568 H 0.89215 0.26112 0.2117 0.0
H569 H 0.92562 0.25415 0.18429 0.0
H570 H 0.96972 0.30307 0.20835 0.0
H571 H 0.83134 0.33531 0.11265 0.0
H572 H 0.79293 0.27313 0.12584 0.0
H573 H 0.7944 0.31547 0.14587 0.0
H574 H 0.74937 0.12381 0.15194 0.0
H575 H 0.69286 0.1751 0.2087 0.0
H576 H 0.87949 0.21108 0.14289 0.0
H577 H 0.86983 0.24763 0.12175 0.0
H578 H 0.82337 0.18214 0.1175 0.0
H579 H 0.83267 0.29827 0.21333 0.0
H580 H 0.759 0.25561 0.22594 0.0
H581 H 0.77712 0.2909 0.19384 0.0
C582 C 0.14641 0.54179 0.05989 0.0
C583 C 0.12994 0.56659 0.07127 0.0
C584 C 0.15016 0.53978 0.03052 0.0
C585 C 0.13438 0.56101 0.01208 0.0
C586 C 0.11687 0.5854 0.02359 0.0
C587 C 0.11603 0.58871 0.05286 0.0
C588 C 0.171 0.51496 0.01925 0.0
C589 C 0.09744 0.60698 0.00502 0.0
C590 C 0.16799 0.59403 0.93379 0.0
C591 C 0.1153 0.55474 0.92219 0.0
C592 C 0.17729 0.59438 0.96293 0.0
C593 C 0.1321 0.55536 0.98087 0.0
C594 C 0.08067 0.51394 0.96872 0.0
C595 C 0.07348 0.51386 0.93957 0.0
C596 C 0.2338 0.6383 0.97471 0.0
C597 C 1.0305 0.47201 0.98668 0.0
H598 H 0.15712 0.52453 0.07386 0.0
H599 H 0.10287 0.6077 0.06138 0.0
H600 H 0.13511 0.48069 0.00889 0.0
H601 H 0.20538 0.53926 0.00313 0.0
H602 H 0.18802 0.50549 0.03606 0.0
H603 H 0.08417 0.624 0.01726 0.0
H604 H 0.13271 0.63539 0.99028 0.0
H605 H 1.06046 0.5778 0.99221 0.0
H606 H 0.2002 0.62578 0.92043 0.0
H607 H 1.03259 0.48375 0.93051 0.0
H608 H 0.24819 0.62661 0.99163 0.0
H609 H 0.22826 0.66291 0.98396 0.0
H610 H 0.26806 0.65969 0.9582 0.0
H611 H 1.04497 0.45928 0.00278 0.0
H612 H 0.99642 0.44022 0.97401 0.0
H613 H 1.01124 0.48494 -0.0021 0.0
C614 C 0.74588 0.14531 0.37264 0.0
C615 C 0.69885 0.105 0.38845 0.0
C616 C 0.74265 0.14865 0.34332 0.0
C617 C 0.69202 0.10973 0.32943 0.0
C618 C 0.64423 0.06907 0.34545 0.0
C619 C 0.64787 0.0677 0.37484 0.0
C620 C 0.79355 0.19352 0.3272 0.0
C621 C 0.58995 0.02613 0.33149 0.0
C622 C 0.6496 0.1166 0.2555 0.0
C623 C 0.66621 0.09496 0.24018 0.0
C624 C 0.66231 0.12571 0.28414 0.0
C625 C 0.68929 0.11014 0.29812 0.0
C626 C 0.70804 0.08991 0.28243 0.0
C627 C 0.69688 0.0832 0.25355 0.0
C628 C 0.64339 0.14901 0.29975 0.0
C629 C 0.73531 0.07134 0.29651 0.0
H630 H 0.7852 0.17433 0.38327 0.0
H631 H 0.61164 0.03636 0.38707 0.0
H632 H 0.8128 0.18307 0.3135 0.0
H633 H 0.77928 0.20917 0.31336 0.0
H634 H 0.82747 0.22247 0.34131 0.0
H635 H 0.55729 0.99686 0.34689 0.0
H636 H 0.57052 0.03881 0.31927 0.0
H637 H 0.60049 1.00994 0.3165 0.0
H638 H 0.62386 0.12385 0.24537 0.0
H639 H 0.70777 0.06489 0.24178 0.0
H640 H 0.67728 0.17649 0.31439 0.0
H641 H 0.60405 0.12033 0.31242 0.0
H642 H 0.63346 0.16734 0.28518 0.0
H643 H 0.77165 0.09993 0.30977 0.0
H644 H 0.75147 0.06017 0.28109 0.0
H645 H 0.70298 0.03905 0.31051 0.0
C646 C 0.62764 0.62202 0.75516 0.0
C647 C 0.5911 0.57316 0.76547 0.0
C648 C 0.64544 0.63362 0.72674 0.0
C649 C 0.62689 0.59542 0.70854 0.0
C650 C 0.59066 0.54612 0.71913 0.0
C651 C 0.57286 0.53562 0.74734 0.0
C652 C 0.68327 0.68646 0.71611 0.0
C653 C 0.57056 0.50426 0.70066 0.0
C654 C 0.61722 0.59787 0.62932 0.0
C655 C 0.66329 0.60092 0.62132 0.0
C656 C 0.60778 0.60073 0.65765 0.0
C657 C 0.64489 0.60599 0.67837 0.0
C658 C 0.69421 0.61318 0.66999 0.0
C659 C 0.70301 0.61095 0.64148 0.0
C660 C 0.55535 0.59391 0.66557 0.0
C661 C 0.73481 0.61871 0.69126 0.0
H662 H 0.64104 0.65094 0.76904 0.0
H663 H 0.54486 0.4978 0.75535 0.0
H664 H 0.72367 0.69802 0.70678 0.0
H665 H 0.6609 0.69012 0.69925 0.0
H666 H 0.69452 0.7119 0.73299 0.0
H667 H 0.5438 0.46821 0.71237 0.0
H668 H 0.5448 0.50192 0.68314 0.0
H669 H 0.60827 0.51103 0.69126 0.0
H670 H 0.58648 0.59001 0.61368 0.0
H671 H 0.73906 0.61397 0.63506 0.0
H672 H 0.56599 0.61994 0.68187 0.0
H673 H 0.52157 0.55606 0.67449 0.0
H674 H 0.53726 0.59932 0.64715 0.0
H675 H 0.74595 0.64524 0.70731 0.0
H676 H 0.77525 0.6312 0.68129 0.0
H677 H 0.71329 0.58269 0.7023 0.0
C678 C 0.68304 0.07107 0.56081 0.0
C679 C 0.65041 0.08138 0.54799 0.0
C680 C 0.68507 0.06789 0.59033 0.0
C681 C 0.65509 0.07665 0.60735 0.0
C682 C 0.6229 0.08788 0.59434 0.0
C683 C 0.62031 0.08936 0.56496 0.0
C684 C 0.71852 0.05448 0.6033 0.0
C685 C 0.59136 0.09873 0.61148 0.0
C686 C 0.60766 0.03705 0.68374 0.0
C687 C 0.6474 0.08187 0.6969 0.0
C688 C 0.61276 0.03335 0.65482 0.0
C689 C 0.65803 0.07577 0.63872 0.0
C690 C 0.70102 0.11985 0.6526 0.0
C691 C 0.69551 0.12207 0.68157 0.0
C692 C 0.56696 0.98517 0.64114 0.0
C693 C 0.74967 0.1662 0.63649 0.0
H694 H 0.70559 0.06413 0.54785 0.0
H695 H 0.59509 0.09748 0.55519 0.0
H696 H 0.75337 0.08457 0.61653 0.0
H697 H 0.68968 0.02115 0.61723 0.0
H698 H 0.73802 0.04732 0.58723 0.0
H699 H 0.56968 0.10822 0.59813 0.0
H700 H 0.55834 0.0663 0.62518 0.0
H701 H 0.622 0.12984 0.62533 0.0
H702 H 0.57043 1.00595 0.6956 0.0
H703 H 0.7265 0.15654 0.69193 0.0
H704 H 0.58642 0.97762 0.62534 0.0
H705 H 0.53648 0.98718 0.63005 0.0
H706 H 0.54211 0.95395 0.6568 0.0
H707 H 0.76969 0.15846 0.62124 0.0
H708 H 0.7836 0.19512 0.65061 0.0
H709 H 0.7323 0.18086 0.62438 0.0
C710 C 0.61259 0.53552 0.93616 0.0
C711 C 0.57146 0.53036 0.91913 0.0
C712 C 0.59593 0.49892 0.95654 0.0
C713 C 0.53692 0.45636 0.95973 0.0
C714 C 0.49533 0.45146 0.94275 0.0
C715 C 0.51309 0.48871 0.92285 0.0
C716 C 0.64129 0.50557 0.97453 0.0
C717 C 0.43198 0.40662 0.94541 0.0
C718 C 0.48397 0.33577 0.99388 0.0
C719 C 0.46295 0.3364 0.01953 0.0
C720 C 0.51114 0.37592 0.97455 0.0
C721 C 0.51761 0.41741 0.98142 0.0
C722 C 0.49917 0.41898 0.00809 0.0
C723 C 0.47158 0.37821 0.0267 0.0
C724 C 0.52987 0.3728 0.94622 0.0
C725 C 0.50541 0.46244 0.01637 0.0
H726 H 0.65779 0.5677 0.93323 0.0
H727 H 0.48121 0.48476 0.90974 0.0
H728 H 0.6315 0.50443 -0.00297 0.0
H729 H 0.64096 0.47491 0.97151 0.0
H730 H 0.68526 0.54091 0.96955 0.0
H731 H 0.40539 0.40811 0.93019 0.0
H732 H 0.42545 0.37291 0.94191 0.0
H733 H 0.41604 0.40318 0.96694 0.0
H734 H 0.47676 0.30307 0.98855 0.0
H735 H 0.4547 0.37805 0.04661 0.0
H736 H 0.57509 0.40638 0.94148 0.0
H737 H 0.50263 0.37071 0.92969 0.0
H738 H 0.52633 0.34008 0.94502 0.0
H739 H 0.54989 0.49735 0.01187 0.0
H740 H 0.49534 0.4604 0.03898 0.0
H741 H 0.47568 0.46373 0.00382 0.0
C742 C 0.08159 0.48742 0.24842 0.0
C743 C 0.11877 0.53161 0.23254 0.0
C744 C 0.07647 0.48744 0.2777 0.0
C745 C 0.11112 0.53271 0.29149 0.0
C746 C 0.14827 0.57749 0.27539 0.0
C747 C 0.15082 0.57639 0.24602 0.0
C748 C 1.03469 0.43907 0.2939 0.0
C749 C 0.18702 0.62656 0.28926 0.0
C750 C 0.08581 0.55191 0.36545 0.0
C751 C 0.12505 0.55187 0.38076 0.0
C752 C 0.07711 0.54155 0.33678 0.0
C753 C 0.11085 0.53362 0.32279 0.0
C754 C 0.14891 0.53164 0.33849 0.0
C755 C 0.15495 0.54022 0.36738 0.0
C756 C 1.03459 0.5423 0.32114 0.0
C757 C 0.18694 0.52469 0.32442 0.0
H758 H 1.05651 0.45277 0.23789 0.0
H759 H 0.17986 0.61055 0.23374 0.0
H760 H 1.05874 0.43247 0.30755 0.0
H761 H 1.00675 0.4402 0.30777 0.0
H762 H 1.0069 0.40758 0.27983 0.0
H763 H 0.21397 0.6579 0.2738 0.0
H764 H 0.16083 0.63161 0.30156 0.0
H765 H 0.21591 0.62764 0.30416 0.0
H766 H 0.06437 0.56278 0.37562 0.0
H767 H 0.18665 0.54192 0.37915 0.0
H768 H 1.00904 0.51147 0.30654 0.0
H769 H 1.0582 0.5771 0.30842 0.0
H770 H 1.00457 0.53973 0.33569 0.0
H771 H 0.16095 0.49192 0.31125 0.0
H772 H 0.21096 0.52039 0.33984 0.0
H773 H 0.21856 0.55711 0.31033 0.0
loop_
_geom_bond_atom_site_label_1
_geom_bond_atom_site_label_2
_geom_bond_distance
_geom_bond_site_symmetry_2
_ccdc_geom_bond_type
La0 C2 2.928 . S
La0 O20 2.521 . S
La0 O21 2.628 . S
La0 O22 2.554 . S
La0 O23 2.757 1_455 S
La0 O24 2.470 . S
La0 O29 2.482 . S
La0 O31 2.503 1_455 S
La1 C11 2.928 . S
La1 O23 2.482 . S
La1 O25 2.503 1_655 S
La1 O26 2.521 . S
La1 O27 2.628 . S
La1 O28 2.554 . S
La1 O29 2.757 1_655 S
La1 O30 2.470 . S
C2 La0 2.928 . S
C2 C3 1.503 . S
C2 O20 1.261 . S
C2 O21 1.243 . S
C3 C2 1.503 . S
C3 C4 1.394 . S
C3 C8 1.373 . S
C4 C3 1.394 . S
C4 C5 1.380 . S
C4 H32 0.930 . S
C5 C4 1.380 . S
C5 C6 1.376 . S
C5 H33 0.930 . S
C6 C5 1.376 . S
C6 C7 1.370 . S
C7 C6 1.370 . S
C7 C8 1.396 . S
C7 H34 0.929 . S
C8 C3 1.373 . S
C8 C7 1.396 . S
C8 H35 0.929 . S
C9 O22 1.266 . S
C9 O23 1.276 1_455 S
C10 O24 1.258 . S
C10 O25 1.256 . S
C11 La1 2.928 . S
C11 C12 1.503 . S
C11 O26 1.261 . S
C11 O27 1.243 . S
C12 C11 1.503 . S
C12 C13 1.394 . S
C12 C17 1.373 . S
C13 C12 1.394 . S
C13 C14 1.380 . S
C13 H36 0.930 . S
C14 C13 1.380 . S
C14 C15 1.376 . S
C14 H37 0.930 . S
C15 C14 1.376 . S
C15 C16 1.370 . S
C16 C15 1.370 . S
C16 C17 1.396 . S
C16 H38 0.929 . S
C17 C12 1.373 . S
C17 C16 1.396 . S
C17 H39 0.929 . S
C18 O28 1.240 1_455 S
C18 O29 1.289 . S
C19 O30 1.258 . S
C19 O31 1.256 . S
O20 La0 2.521 . S
O20 C2 1.261 . S
O21 La0 2.628 . S
O21 C2 1.243 . S
O22 La0 2.554 . S
O22 C9 1.266 . S
O23 La0 2.757 1_655 S
O23 La1 2.482 . S
O23 C9 1.276 1_655 S
O24 La0 2.470 . S
O24 C10 1.258 . S
O25 La1 2.503 1_455 S
O25 C10 1.256 . S
O26 La1 2.521 . S
O26 C11 1.261 . S
O27 La1 2.628 . S
O27 C11 1.243 . S
O28 La1 2.554 . S
O28 C18 1.240 1_655 S
O29 La0 2.482 . S
O29 La1 2.757 1_455 S
O29 C18 1.289 . S
O30 La1 2.470 . S
O30 C19 1.258 . S
O31 La0 2.503 1_655 S
O31 C19 1.256 . S
H32 C4 0.930 . S
H33 C5 0.930 . S
H34 C7 0.929 . S
H35 C8 0.929 . S
H36 C13 0.930 . S
H37 C14 0.930 . S
H38 C16 0.929 . S
H39 C17 0.929 . S
La40 C42 2.928 1_545 S
La40 O60 2.521 1_545 S
La40 O61 2.628 1_545 S
La40 O62 2.554 . S
La40 O63 2.757 . S
La40 O64 2.470 1_545 S
La40 O69 2.482 . S
La40 O71 2.503 . S
La41 C51 2.928 . S
La41 O63 2.482 . S
La41 O65 2.503 1_545 S
La41 O66 2.521 . S
La41 O67 2.628 . S
La41 O68 2.554 . S
La41 O69 2.757 . S
La41 O70 2.470 . S
C42 La40 2.928 1_565 S
C42 C43 1.503 . S
C42 O60 1.261 . S
C42 O61 1.243 . S
C43 C42 1.503 . S
C43 C44 1.394 . S
C43 C48 1.373 . S
C44 C43 1.394 . S
C44 C45 1.380 . S
C44 H72 0.930 . S
C45 C44 1.380 . S
C45 C46 1.376 . S
C45 H73 0.930 . S
C46 C45 1.376 . S
C46 C47 1.370 . S
C47 C46 1.370 . S
C47 C48 1.396 . S
C47 H74 0.929 . S
C48 C43 1.373 . S
C48 C47 1.396 . S
C48 H75 0.929 . S
C49 O62 1.240 . S
C49 O63 1.289 . S
C50 O64 1.258 . S
C50 O65 1.256 . S
C51 La41 2.928 . S
C51 C52 1.503 . S
C51 O66 1.261 . S
C51 O67 1.243 . S
C52 C51 1.503 . S
C52 C53 1.394 . S
C52 C57 1.373 . S
C53 C52 1.394 . S
C53 C54 1.380 . S
C53 H76 0.930 . S
C54 C53 1.380 . S
C54 C55 1.376 . S
C54 H77 0.930 . S
C55 C54 1.376 . S
C55 C56 1.370 . S
C56 C55 1.370 . S
C56 C57 1.396 . S
C56 H78 0.929 . S
C57 C52 1.373 . S
C57 C56 1.396 . S
C57 H79 0.929 . S
C58 O68 1.240 . S
C58 O69 1.289 . S
C59 O70 1.258 . S
C59 O71 1.256 . S
O60 La40 2.521 1_565 S
O60 C42 1.261 . S
O61 La40 2.628 1_565 S
O61 C42 1.243 . S
O62 La40 2.554 . S
O62 C49 1.240 . S
O63 La40 2.757 . S
O63 La41 2.482 . S
O63 C49 1.289 . S
O64 La40 2.470 1_565 S
O64 C50 1.258 . S
O65 La41 2.503 1_565 S
O65 C50 1.256 . S
O66 La41 2.521 . S
O66 C51 1.261 . S
O67 La41 2.628 . S
O67 C51 1.243 . S
O68 La41 2.554 . S
O68 C58 1.240 . S
O69 La40 2.482 . S
O69 La41 2.757 . S
O69 C58 1.289 . S
O70 La41 2.470 . S
O70 C59 1.258 . S
O71 La40 2.503 . S
O71 C59 1.256 . S
H72 C44 0.930 . S
H73 C45 0.930 . S
H74 C47 0.929 . S
H75 C48 0.929 . S
H76 C53 0.930 . S
H77 C54 0.930 . S
H78 C56 0.929 . S
H79 C57 0.929 . S
La80 C82 2.928 . S
La80 O100 2.521 . S
La80 O101 2.628 . S
La80 O102 2.554 . S
La80 O103 2.757 . S
La80 O104 2.470 . S
La80 O109 2.482 . S
La80 O111 2.503 . S
La81 C91 2.928 . S
La81 O103 2.482 . S
La81 O105 2.503 . S
La81 O106 2.521 . S
La81 O107 2.628 . S
La81 O108 2.554 . S
La81 O109 2.757 . S
La81 O110 2.470 . S
C82 La80 2.928 . S
C82 C83 1.503 . S
C82 O100 1.261 . S
C82 O101 1.243 . S
C83 C82 1.503 . S
C83 C84 1.394 . S
C83 C88 1.373 . S
C84 C83 1.394 . S
C84 C85 1.380 . S
C84 H112 0.930 . S
C85 C84 1.380 . S
C85 C86 1.376 . S
C85 H113 0.930 . S
C86 C85 1.376 . S
C86 C87 1.370 . S
C87 C86 1.370 . S
C87 C88 1.396 . S
C87 H114 0.929 . S
C88 C83 1.373 . S
C88 C87 1.396 . S
C88 H115 0.929 . S
C89 O102 1.240 . S
C89 O103 1.289 . S
C90 O104 1.258 . S
C90 O105 1.256 . S
C91 La81 2.928 . S
C91 C92 1.503 . S
C91 O106 1.261 . S
C91 O107 1.243 . S
C92 C91 1.503 . S
C92 C93 1.394 . S
C92 C97 1.373 . S
C93 C92 1.394 . S
C93 C94 1.380 . S
C93 H116 0.930 . S
C94 C93 1.380 . S
C94 C95 1.376 . S
C94 H117 0.930 . S
C95 C94 1.376 . S
C95 C96 1.370 . S
C96 C95 1.370 . S
C96 C97 1.396 . S
C96 H118 0.929 . S
C97 C92 1.373 . S
C97 C96 1.396 . S
C97 H119 0.929 . S
C98 O108 1.240 . S
C98 O109 1.289 . S
C99 O110 1.258 . S
C99 O111 1.256 . S
O100 La80 2.521 . S
O100 C82 1.261 . S
O101 La80 2.628 . S
O101 C82 1.243 . S
O102 La80 2.554 . S
O102 C89 1.240 . S
O103 La80 2.757 . S
O103 La81 2.482 . S
O103 C89 1.289 . S
O104 La80 2.470 . S
O104 C90 1.258 . S
O105 La81 2.503 . S
O105 C90 1.256 . S
O106 La81 2.521 . S
O106 C91 1.261 . S
O107 La81 2.628 . S
O107 C91 1.243 . S
O108 La81 2.554 . S
O108 C98 1.240 . S
O109 La80 2.482 . S
O109 La81 2.757 . S
O109 C98 1.289 . S
O110 La81 2.470 . S
O110 C99 1.258 . S
O111 La80 2.503 . S
O111 C99 1.256 . S
H112 C84 0.930 . S
H113 C85 0.930 . S
H114 C87 0.929 . S
H115 C88 0.929 . S
H116 C93 0.930 . S
H117 C94 0.930 . S
H118 C96 0.929 . S
H119 C97 0.929 . S
C120 N121 1.317 1_565 S
C120 N122 1.348 . S
C120 C123 1.485 1_565 S
N121 C120 1.317 1_545 S
N121 N125 1.370 . S
N122 C120 1.348 . S
N122 C124 1.346 . S
C123 C120 1.485 1_545 S
C123 H127 0.960 . S
C123 H128 0.961 1_545 S
C123 H129 0.960 . S
C124 N122 1.346 . S
C124 N125 1.307 1_565 S
C124 C126 1.486 . S
N125 N121 1.370 . S
N125 C124 1.307 1_545 S
C126 C124 1.486 . S
C126 H130 0.960 . S
C126 H131 0.960 . S
C126 H132 0.959 . S
H127 C123 0.960 . S
H128 C123 0.961 1_565 S
H129 C123 0.960 . S
H130 C126 0.960 . S
H131 C126 0.960 . S
H132 C126 0.959 . S
C133 N134 1.317 . S
C133 N135 1.348 . S
C133 C136 1.485 . S
N134 C133 1.317 . S
N134 N138 1.370 . S
N135 C133 1.348 . S
N135 C137 1.346 . S
C136 C133 1.485 . S
C136 H140 0.960 . S
C136 H141 0.961 . S
C136 H142 0.960 . S
C137 N135 1.346 . S
C137 N138 1.307 . S
C137 C139 1.486 . S
N138 N134 1.370 . S
N138 C137 1.307 . S
C139 C137 1.486 . S
C139 H143 0.960 . S
C139 H144 0.960 . S
C139 H145 0.959 . S
H140 C136 0.960 . S
H141 C136 0.961 . S
H142 C136 0.960 . S
H143 C139 0.960 . S
H144 C139 0.960 . S
H145 C139 0.959 . S
C146 N147 1.317 . S
C146 N148 1.348 . S
C146 C149 1.485 . S
N147 C146 1.317 . S
N147 N151 1.370 . S
N148 C146 1.348 . S
N148 C150 1.346 . S
C149 C146 1.485 . S
C149 H153 0.960 . S
C149 H154 0.961 . S
C149 H155 0.960 . S
C150 N148 1.346 . S
C150 N151 1.307 . S
C150 C152 1.486 1_455 S
N151 N147 1.370 . S
N151 C150 1.307 . S
C152 C150 1.486 1_655 S
C152 H156 0.960 . S
C152 H157 0.960 . S
C152 H158 0.966 . S
H153 C149 0.960 . S
H154 C149 0.961 . S
H155 C149 0.960 . S
H156 C152 0.960 . S
H157 C152 0.960 . S
H158 C152 0.966 . S
C159 N160 1.317 . S
C159 N161 1.348 . S
C159 C162 1.485 . S
N160 C159 1.317 . S
N160 N164 1.370 . S
N161 C159 1.348 . S
N161 C163 1.346 . S
C162 C159 1.485 . S
C162 H166 0.960 . S
C162 H167 0.961 . S
C162 H168 0.960 . S
C163 N161 1.346 . S
C163 N164 1.307 . S
C163 C165 1.486 . S
N164 N160 1.370 . S
N164 C163 1.307 . S
C165 C163 1.486 . S
C165 H169 0.960 . S
C165 H170 0.960 . S
C165 H171 0.959 . S
H166 C162 0.960 . S
H167 C162 0.961 . S
H168 C162 0.960 . S
H169 C165 0.960 . S
H170 C165 0.960 . S
H171 C165 0.959 . S
C172 N173 1.317 . S
C172 N174 1.348 . S
C172 C175 1.485 . S
N173 C172 1.317 . S
N173 N177 1.370 . S
N174 C172 1.348 . S
N174 C176 1.346 . S
C175 C172 1.485 . S
C175 H179 0.960 . S
C175 H180 0.961 . S
C175 H181 0.960 . S
C176 N174 1.346 . S
C176 N177 1.307 . S
C176 C178 1.486 . S
N177 N173 1.370 . S
N177 C176 1.307 . S
C178 C176 1.486 . S
C178 H182 0.960 . S
C178 H183 0.960 . S
C178 H184 0.959 . S
H179 C175 0.960 . S
H180 C175 0.961 . S
H181 C175 0.960 . S
H182 C178 0.960 . S
H183 C178 0.960 . S
H184 C178 0.959 . S
C185 N186 1.317 . S
C185 N187 1.348 . S
C185 C188 1.485 . S
N186 C185 1.317 . S
N186 N190 1.370 . S
N187 C185 1.348 . S
N187 C189 1.346 . S
C188 C185 1.485 . S
C188 H192 0.960 . S
C188 H193 0.961 . S
C188 H194 0.960 . S
C189 N187 1.346 . S
C189 N190 1.307 . S
C189 C191 1.486 . S
N190 N186 1.370 . S
N190 C189 1.307 . S
C191 C189 1.486 . S
C191 H195 0.960 . S
C191 H196 0.960 . S
C191 H197 0.959 . S
H192 C188 0.960 . S
H193 C188 0.961 . S
H194 C188 0.960 . S
H195 C191 0.960 . S
H196 C191 0.960 . S
H197 C191 0.959 . S
C198 C199 1.391 . S
C198 C200 1.394 . S
C198 H214 0.931 . S
C199 C198 1.391 . S
C199 C203 1.376 . S
C200 C198 1.394 . S
C200 C201 1.369 . S
C200 C204 1.531 . S
C201 C200 1.369 . S
C201 C202 1.410 . S
C201 C209 1.503 . S
C202 C201 1.410 . S
C202 C203 1.392 . S
C202 C205 1.511 . S
C203 C199 1.376 . S
C203 C202 1.392 . S
C203 H215 0.929 . S
C204 C200 1.531 . S
C204 H216 0.960 . S
C204 H217 0.962 . S
C204 H218 0.960 . S
C205 C202 1.511 . S
C205 H219 0.961 . S
C205 H220 0.961 . S
C205 H221 0.961 . S
C206 C207 1.370 . S
C206 C208 1.363 . S
C206 H222 0.931 . S
C207 C206 1.370 . S
C207 C211 1.408 . S
C208 C206 1.363 . S
C208 C209 1.370 . S
C208 C212 1.524 . S
C209 C201 1.503 . S
C209 C208 1.370 . S
C209 C210 1.403 . S
C210 C209 1.403 . S
C210 C211 1.404 . S
C210 C213 1.539 . S
C211 C207 1.408 . S
C211 C210 1.404 . S
C211 H223 0.930 . S
C212 C208 1.524 . S
C212 H224 0.956 . S
C212 H225 0.961 . S
C212 H226 0.961 . S
C213 C210 1.539 . S
C213 H227 0.958 . S
C213 H228 0.961 . S
C213 H229 0.960 . S
H214 C198 0.931 . S
H215 C203 0.929 . S
H216 C204 0.960 . S
H217 C204 0.962 . S
H218 C204 0.960 . S
H219 C205 0.961 . S
H220 C205 0.961 . S
H221 C205 0.961 . S
H222 C206 0.931 . S
H223 C211 0.930 . S
H224 C212 0.956 . S
H225 C212 0.961 . S
H226 C212 0.961 . S
H227 C213 0.958 . S
H228 C213 0.961 . S
H229 C213 0.960 . S
C230 C231 1.391 . S
C230 C232 1.394 . S
C230 H246 0.931 . S
C231 C230 1.391 . S
C231 C235 1.376 . S
C232 C230 1.394 . S
C232 C233 1.369 . S
C232 C236 1.531 . S
C233 C232 1.369 . S
C233 C234 1.410 . S
C233 C241 1.503 . S
C234 C233 1.410 . S
C234 C235 1.392 . S
C234 C237 1.511 . S
C235 C231 1.376 . S
C235 C234 1.392 . S
C235 H247 0.929 . S
C236 C232 1.531 . S
C236 H248 0.960 . S
C236 H249 0.962 . S
C236 H250 0.960 . S
C237 C234 1.511 . S
C237 H251 0.961 . S
C237 H252 0.961 . S
C237 H253 0.961 . S
C238 C239 1.370 . S
C238 C240 1.363 . S
C238 H254 0.931 . S
C239 C238 1.370 . S
C239 C243 1.408 . S
C240 C238 1.363 . S
C240 C241 1.370 . S
C240 C244 1.524 . S
C241 C233 1.503 . S
C241 C240 1.370 . S
C241 C242 1.403 . S
C242 C241 1.403 . S
C242 C243 1.404 . S
C242 C245 1.539 . S
C243 C239 1.408 . S
C243 C242 1.404 . S
C243 H255 0.930 . S
C244 C240 1.524 . S
C244 H256 0.956 . S
C244 H257 0.961 . S
C244 H258 0.961 . S
C245 C242 1.539 . S
C245 H259 0.958 . S
C245 H260 0.961 . S
C245 H261 0.960 . S
H246 C230 0.931 . S
H247 C235 0.929 . S
H248 C236 0.960 . S
H249 C236 0.962 . S
H250 C236 0.960 . S
H251 C237 0.961 . S
H252 C237 0.961 . S
H253 C237 0.961 . S
H254 C238 0.931 . S
H255 C243 0.930 . S
H256 C244 0.956 . S
H257 C244 0.961 . S
H258 C244 0.961 . S
H259 C245 0.958 . S
H260 C245 0.961 . S
H261 C245 0.960 . S
C262 C263 1.391 . S
C262 C264 1.394 . S
C262 H278 0.931 . S
C263 C262 1.391 . S
C263 C267 1.376 . S
C264 C262 1.394 . S
C264 C265 1.369 . S
C264 C268 1.531 . S
C265 C264 1.369 . S
C265 C266 1.410 . S
C265 C273 1.503 . S
C266 C265 1.410 . S
C266 C267 1.392 . S
C266 C269 1.511 . S
C267 C263 1.376 . S
C267 C266 1.392 . S
C267 H279 0.929 . S
C268 C264 1.531 . S
C268 H280 0.960 . S
C268 H281 0.962 . S
C268 H282 0.960 . S
C269 C266 1.511 . S
C269 H283 0.961 . S
C269 H284 0.961 . S
C269 H285 0.961 . S
C270 C271 1.370 1_545 S
C270 C272 1.363 1_545 S
C270 H286 0.931 . S
C271 C270 1.370 1_565 S
C271 C275 1.408 . S
C272 C270 1.363 1_565 S
C272 C273 1.370 . S
C272 C276 1.524 . S
C273 C265 1.503 . S
C273 C272 1.370 . S
C273 C274 1.403 . S
C274 C273 1.403 . S
C274 C275 1.404 . S
C274 C277 1.539 . S
C275 C271 1.408 . S
C275 C274 1.404 . S
C275 H287 0.930 . S
C276 C272 1.524 . S
C276 H288 0.956 . S
C276 H289 0.961 . S
C276 H290 0.961 1_565 S
C277 C274 1.539 . S
C277 H291 0.958 . S
C277 H292 0.961 . S
C277 H293 0.960 . S
H278 C262 0.931 . S
H279 C267 0.929 . S
H280 C268 0.960 . S
H281 C268 0.962 . S
H282 C268 0.960 . S
H283 C269 0.961 . S
H284 C269 0.961 . S
H285 C269 0.961 . S
H286 C270 0.931 . S
H287 C275 0.930 . S
H288 C276 0.956 . S
H289 C276 0.961 . S
H290 C276 0.961 1_545 S
H291 C277 0.958 . S
H292 C277 0.961 . S
H293 C277 0.960 . S
C294 C295 1.391 . S
C294 C296 1.394 . S
C294 H310 0.931 . S
C295 C294 1.391 . S
C295 C299 1.376 . S
C296 C294 1.394 . S
C296 C297 1.369 . S
C296 C300 1.531 . S
C297 C296 1.369 . S
C297 C298 1.410 . S
C297 C305 1.503 . S
C298 C297 1.410 . S
C298 C299 1.392 . S
C298 C301 1.511 . S
C299 C295 1.376 . S
C299 C298 1.392 . S
C299 H311 0.929 . S
C300 C296 1.531 . S
C300 H312 0.960 . S
C300 H313 0.962 . S
C300 H314 0.960 . S
C301 C298 1.511 . S
C301 H315 0.961 . S
C301 H316 0.961 . S
C301 H317 0.961 . S
C302 C303 1.370 . S
C302 C304 1.363 . S
C302 H318 0.931 . S
C303 C302 1.370 . S
C303 C307 1.408 . S
C304 C302 1.363 . S
C304 C305 1.370 . S
C304 C308 1.524 . S
C305 C297 1.503 . S
C305 C304 1.370 . S
C305 C306 1.403 . S
C306 C305 1.403 . S
C306 C307 1.404 . S
C306 C309 1.539 . S
C307 C303 1.408 . S
C307 C306 1.404 . S
C307 H319 0.930 . S
C308 C304 1.524 . S
C308 H320 0.956 . S
C308 H321 0.961 . S
C308 H322 0.961 . S
C309 C306 1.539 . S
C309 H323 0.958 . S
C309 H324 0.961 . S
C309 H325 0.960 . S
H310 C294 0.931 . S
H311 C299 0.929 . S
H312 C300 0.960 . S
H313 C300 0.962 . S
H314 C300 0.960 . S
H315 C301 0.961 . S
H316 C301 0.961 . S
H317 C301 0.961 . S
H318 C302 0.931 . S
H319 C307 0.930 . S
H320 C308 0.956 . S
H321 C308 0.961 . S
H322 C308 0.961 . S
H323 C309 0.958 . S
H324 C309 0.961 . S
H325 C309 0.960 . S
C326 C327 1.391 . S
C326 C328 1.394 . S
C326 H342 0.931 . S
C327 C326 1.391 . S
C327 C331 1.376 . S
C328 C326 1.394 . S
C328 C329 1.369 . S
C328 C332 1.531 . S
C329 C328 1.369 . S
C329 C330 1.410 . S
C329 C337 1.503 . S
C330 C329 1.410 . S
C330 C331 1.392 . S
C330 C333 1.511 . S
C331 C327 1.376 . S
C331 C330 1.392 . S
C331 H343 0.929 . S
C332 C328 1.531 . S
C332 H344 0.960 . S
C332 H345 0.962 . S
C332 H346 0.960 . S
C333 C330 1.511 . S
C333 H347 0.961 . S
C333 H348 0.961 . S
C333 H349 0.961 . S
C334 C335 1.370 . S
C334 C336 1.363 . S
C334 H350 0.931 . S
C335 C334 1.370 . S
C335 C339 1.408 . S
C336 C334 1.363 . S
C336 C337 1.370 . S
C336 C340 1.524 . S
C337 C329 1.503 . S
C337 C336 1.370 . S
C337 C338 1.403 . S
C338 C337 1.403 . S
C338 C339 1.404 . S
C338 C341 1.539 . S
C339 C335 1.408 . S
C339 C338 1.404 . S
C339 H351 0.930 . S
C340 C336 1.524 . S
C340 H352 0.956 . S
C340 H353 0.961 . S
C340 H354 0.961 . S
C341 C338 1.539 . S
C341 H355 0.958 . S
C341 H356 0.961 . S
C341 H357 0.960 . S
H342 C326 0.931 . S
H343 C331 0.929 . S
H344 C332 0.960 . S
H345 C332 0.962 . S
H346 C332 0.960 . S
H347 C333 0.961 . S
H348 C333 0.961 . S
H349 C333 0.961 . S
H350 C334 0.931 . S
H351 C339 0.930 . S
H352 C340 0.956 . S
H353 C340 0.961 . S
H354 C340 0.961 . S
H355 C341 0.958 . S
H356 C341 0.961 . S
H357 C341 0.960 . S
C358 C359 1.391 . S
C358 C360 1.394 . S
C358 H374 0.931 . S
C359 C358 1.391 . S
C359 C363 1.376 . S
C360 C358 1.394 . S
C360 C361 1.369 . S
C360 C364 1.531 . S
C361 C360 1.369 . S
C361 C362 1.410 . S
C361 C369 1.503 . S
C362 C361 1.410 . S
C362 C363 1.392 . S
C362 C365 1.511 . S
C363 C359 1.376 . S
C363 C362 1.392 . S
C363 H375 0.929 . S
C364 C360 1.531 . S
C364 H376 0.960 . S
C364 H377 0.962 . S
C364 H378 0.960 . S
C365 C362 1.511 . S
C365 H379 0.961 . S
C365 H380 0.961 . S
C365 H381 0.961 . S
C366 C367 1.370 . S
C366 C368 1.363 . S
C366 H382 0.931 . S
C367 C366 1.370 . S
C367 C371 1.408 . S
C368 C366 1.363 . S
C368 C369 1.370 . S
C368 C372 1.524 . S
C369 C361 1.503 . S
C369 C368 1.370 . S
C369 C370 1.403 . S
C370 C369 1.403 . S
C370 C371 1.404 . S
C370 C373 1.539 . S
C371 C367 1.408 . S
C371 C370 1.404 . S
C371 H383 0.930 . S
C372 C368 1.524 . S
C372 H384 0.956 . S
C372 H385 0.961 . S
C372 H386 0.961 . S
C373 C370 1.539 . S
C373 H387 0.958 . S
C373 H388 0.961 . S
C373 H389 0.960 . S
H374 C358 0.931 . S
H375 C363 0.929 . S
H376 C364 0.960 . S
H377 C364 0.962 . S
H378 C364 0.960 . S
H379 C365 0.961 . S
H380 C365 0.961 . S
H381 C365 0.961 . S
H382 C366 0.931 . S
H383 C371 0.930 . S
H384 C372 0.956 . S
H385 C372 0.961 . S
H386 C372 0.961 . S
H387 C373 0.958 . S
H388 C373 0.961 . S
H389 C373 0.960 . S
C390 C391 1.391 . S
C390 C392 1.394 . S
C390 H406 0.931 . S
C391 C390 1.391 . S
C391 C395 1.376 . S
C392 C390 1.394 . S
C392 C393 1.369 . S
C392 C396 1.531 . S
C393 C392 1.369 . S
C393 C394 1.410 . S
C393 C401 1.503 . S
C394 C393 1.410 . S
C394 C395 1.392 . S
C394 C397 1.511 . S
C395 C391 1.376 . S
C395 C394 1.392 . S
C395 H407 0.929 . S
C396 C392 1.531 . S
C396 H408 0.960 . S
C396 H409 0.962 . S
C396 H410 0.960 . S
C397 C394 1.511 . S
C397 H411 0.961 . S
C397 H412 0.961 . S
C397 H413 0.961 . S
C398 C399 1.370 . S
C398 C400 1.363 . S
C398 H414 0.931 . S
C399 C398 1.370 . S
C399 C403 1.408 . S
C400 C398 1.363 . S
C400 C401 1.370 . S
C400 C404 1.524 . S
C401 C393 1.503 . S
C401 C400 1.370 . S
C401 C402 1.403 . S
C402 C401 1.403 . S
C402 C403 1.404 . S
C402 C405 1.539 . S
C403 C399 1.408 . S
C403 C402 1.404 . S
C403 H415 0.930 . S
C404 C400 1.524 . S
C404 H416 0.956 . S
C404 H417 0.961 . S
C404 H418 0.961 . S
C405 C402 1.539 . S
C405 H419 0.958 . S
C405 H420 0.961 . S
C405 H421 0.960 . S
H406 C390 0.931 . S
H407 C395 0.929 . S
H408 C396 0.960 . S
H409 C396 0.962 . S
H410 C396 0.960 . S
H411 C397 0.961 . S
H412 C397 0.961 . S
H413 C397 0.961 . S
H414 C398 0.931 . S
H415 C403 0.930 . S
H416 C404 0.956 . S
H417 C404 0.961 . S
H418 C404 0.961 . S
H419 C405 0.958 . S
H420 C405 0.961 . S
H421 C405 0.960 . S
C422 C423 1.391 . S
C422 C424 1.394 . S
C422 H438 0.931 . S
C423 C422 1.391 . S
C423 C427 1.376 . S
C424 C422 1.394 . S
C424 C425 1.369 . S
C424 C428 1.531 . S
C425 C424 1.369 . S
C425 C426 1.410 . S
C425 C433 1.503 . S
C426 C425 1.410 . S
C426 C427 1.392 . S
C426 C429 1.511 . S
C427 C423 1.376 . S
C427 C426 1.392 . S
C427 H439 0.929 . S
C428 C424 1.531 . S
C428 H440 0.960 . S
C428 H441 0.962 . S
C428 H442 0.960 . S
C429 C426 1.511 . S
C429 H443 0.961 . S
C429 H444 0.961 . S
C429 H445 0.961 . S
C430 C431 1.370 . S
C430 C432 1.363 . S
C430 H446 0.931 . S
C431 C430 1.370 . S
C431 C435 1.408 . S
C432 C430 1.363 . S
C432 C433 1.370 . S
C432 C436 1.524 . S
C433 C425 1.503 . S
C433 C432 1.370 . S
C433 C434 1.403 . S
C434 C433 1.403 . S
C434 C435 1.404 . S
C434 C437 1.539 . S
C435 C431 1.408 . S
C435 C434 1.404 . S
C435 H447 0.930 . S
C436 C432 1.524 . S
C436 H448 0.956 . S
C436 H449 0.961 . S
C436 H450 0.961 . S
C437 C434 1.539 . S
C437 H451 0.958 . S
C437 H452 0.961 . S
C437 H453 0.960 . S
H438 C422 0.931 . S
H439 C427 0.929 . S
H440 C428 0.960 . S
H441 C428 0.962 . S
H442 C428 0.960 . S
H443 C429 0.961 . S
H444 C429 0.961 . S
H445 C429 0.961 . S
H446 C430 0.931 . S
H447 C435 0.930 . S
H448 C436 0.956 . S
H449 C436 0.961 . S
H450 C436 0.961 . S
H451 C437 0.958 . S
H452 C437 0.961 . S
H453 C437 0.960 . S
C454 C455 1.391 . S
C454 C456 1.394 . S
C454 H470 0.931 . S
C455 C454 1.391 . S
C455 C459 1.376 . S
C456 C454 1.394 . S
C456 C457 1.369 . S
C456 C460 1.531 . S
C457 C456 1.369 . S
C457 C458 1.410 . S
C457 C465 1.503 . S
C458 C457 1.410 . S
C458 C459 1.392 . S
C458 C461 1.511 . S
C459 C455 1.376 . S
C459 C458 1.392 . S
C459 H471 0.929 . S
C460 C456 1.531 . S
C460 H472 0.960 . S
C460 H473 0.962 . S
C460 H474 0.960 . S
C461 C458 1.511 . S
C461 H475 0.961 . S
C461 H476 0.961 . S
C461 H477 0.961 . S
C462 C463 1.370 . S
C462 C464 1.363 . S
C462 H478 0.931 . S
C463 C462 1.370 . S
C463 C467 1.408 . S
C464 C462 1.363 . S
C464 C465 1.370 . S
C464 C468 1.524 . S
C465 C457 1.503 . S
C465 C464 1.370 . S
C465 C466 1.403 . S
C466 C465 1.403 . S
C466 C467 1.404 . S
C466 C469 1.539 . S
C467 C463 1.408 . S
C467 C466 1.404 . S
C467 H479 0.930 . S
C468 C464 1.524 . S
C468 H480 0.956 . S
C468 H481 0.961 . S
C468 H482 0.961 . S
C469 C466 1.539 . S
C469 H483 0.958 . S
C469 H484 0.961 . S
C469 H485 0.960 . S
H470 C454 0.931 . S
H471 C459 0.929 . S
H472 C460 0.960 . S
H473 C460 0.962 . S
H474 C460 0.960 . S
H475 C461 0.961 . S
H476 C461 0.961 . S
H477 C461 0.961 . S
H478 C462 0.931 . S
H479 C467 0.930 . S
H480 C468 0.956 . S
H481 C468 0.961 . S
H482 C468 0.961 . S
H483 C469 0.958 . S
H484 C469 0.961 . S
H485 C469 0.960 . S
C486 C487 1.391 . S
C486 C488 1.394 . S
C486 H502 0.931 . S
C487 C486 1.391 . S
C487 C491 1.376 . S
C488 C486 1.394 . S
C488 C489 1.369 . S
C488 C492 1.531 . S
C489 C488 1.369 . S
C489 C490 1.410 . S
C489 C497 1.503 . S
C490 C489 1.410 . S
C490 C491 1.392 . S
C490 C493 1.511 . S
C491 C487 1.376 . S
C491 C490 1.392 . S
C491 H503 0.929 . S
C492 C488 1.531 . S
C492 H504 0.960 . S
C492 H505 0.962 . S
C492 H506 0.960 . S
C493 C490 1.511 . S
C493 H507 0.961 . S
C493 H508 0.961 . S
C493 H509 0.961 . S
C494 C495 1.370 . S
C494 C496 1.363 . S
C494 H510 0.931 . S
C495 C494 1.370 . S
C495 C499 1.408 . S
C496 C494 1.363 . S
C496 C497 1.370 . S
C496 C500 1.524 . S
C497 C489 1.503 . S
C497 C496 1.370 . S
C497 C498 1.403 . S
C498 C497 1.403 . S
C498 C499 1.404 . S
C498 C501 1.539 . S
C499 C495 1.408 . S
C499 C498 1.404 . S
C499 H511 0.930 . S
C500 C496 1.524 . S
C500 H512 0.956 . S
C500 H513 0.961 . S
C500 H514 0.961 . S
C501 C498 1.539 . S
C501 H515 0.958 . S
C501 H516 0.961 . S
C501 H517 0.960 . S
H502 C486 0.931 . S
H503 C491 0.929 . S
H504 C492 0.960 . S
H505 C492 0.962 . S
H506 C492 0.960 . S
H507 C493 0.961 . S
H508 C493 0.961 . S
H509 C493 0.961 . S
H510 C494 0.931 . S
H511 C499 0.930 . S
H512 C500 0.956 . S
H513 C500 0.961 . S
H514 C500 0.961 . S
H515 C501 0.958 . S
H516 C501 0.961 . S
H517 C501 0.960 . S
C518 C519 1.391 . S
C518 C520 1.394 . S
C518 H534 0.931 . S
C519 C518 1.391 . S
C519 C523 1.376 . S
C520 C518 1.394 . S
C520 C521 1.369 . S
C520 C524 1.531 . S
C521 C520 1.369 . S
C521 C522 1.410 . S
C521 C529 1.503 . S
C522 C521 1.410 . S
C522 C523 1.392 . S
C522 C525 1.511 . S
C523 C519 1.376 . S
C523 C522 1.392 . S
C523 H535 0.929 . S
C524 C520 1.531 . S
C524 H536 0.960 . S
C524 H537 0.962 . S
C524 H538 0.960 . S
C525 C522 1.511 . S
C525 H539 0.961 . S
C525 H540 0.961 . S
C525 H541 0.961 . S
C526 C527 1.370 . S
C526 C528 1.363 . S
C526 H542 0.931 . S
C527 C526 1.370 . S
C527 C531 1.408 . S
C528 C526 1.363 . S
C528 C529 1.370 . S
C528 C532 1.524 . S
C529 C521 1.503 . S
C529 C528 1.370 . S
C529 C530 1.403 . S
C530 C529 1.403 . S
C530 C531 1.404 . S
C530 C533 1.539 . S
C531 C527 1.408 . S
C531 C530 1.404 . S
C531 H543 0.930 . S
C532 C528 1.524 . S
C532 H544 0.956 . S
C532 H545 0.961 . S
C532 H546 0.961 . S
C533 C530 1.539 . S
C533 H547 0.958 . S
C533 H548 0.961 . S
C533 H549 0.960 . S
H534 C518 0.931 . S
H535 C523 0.929 . S
H536 C524 0.960 . S
H537 C524 0.962 . S
H538 C524 0.960 . S
H539 C525 0.961 . S
H540 C525 0.961 . S
H541 C525 0.961 . S
H542 C526 0.931 . S
H543 C531 0.930 . S
H544 C532 0.956 . S
H545 C532 0.961 . S
H546 C532 0.961 . S
H547 C533 0.958 . S
H548 C533 0.961 . S
H549 C533 0.960 . S
C550 C551 1.391 . S
C550 C552 1.394 . S
C550 H566 0.931 . S
C551 C550 1.391 . S
C551 C555 1.376 . S
C552 C550 1.394 . S
C552 C553 1.369 . S
C552 C556 1.531 . S
C553 C552 1.369 . S
C553 C554 1.410 . S
C553 C561 1.503 . S
C554 C553 1.410 . S
C554 C555 1.392 . S
C554 C557 1.511 . S
C555 C551 1.376 . S
C555 C554 1.392 . S
C555 H567 0.929 . S
C556 C552 1.531 . S
C556 H568 0.960 . S
C556 H569 0.962 . S
C556 H570 0.960 . S
C557 C554 1.511 . S
C557 H571 0.961 . S
C557 H572 0.961 . S
C557 H573 0.961 . S
C558 C559 1.370 . S
C558 C560 1.363 . S
C558 H574 0.931 . S
C559 C558 1.370 . S
C559 C563 1.408 . S
C560 C558 1.363 . S
C560 C561 1.370 . S
C560 C564 1.524 . S
C561 C553 1.503 . S
C561 C560 1.370 . S
C561 C562 1.403 . S
C562 C561 1.403 . S
C562 C563 1.404 . S
C562 C565 1.539 . S
C563 C559 1.408 . S
C563 C562 1.404 . S
C563 H575 0.930 . S
C564 C560 1.524 . S
C564 H576 0.956 . S
C564 H577 0.961 . S
C564 H578 0.961 . S
C565 C562 1.539 . S
C565 H579 0.958 . S
C565 H580 0.961 . S
C565 H581 0.960 . S
H566 C550 0.931 . S
H567 C555 0.929 . S
H568 C556 0.960 . S
H569 C556 0.962 . S
H570 C556 0.960 . S
H571 C557 0.961 . S
H572 C557 0.961 . S
H573 C557 0.961 . S
H574 C558 0.931 . S
H575 C563 0.930 . S
H576 C564 0.956 . S
H577 C564 0.961 . S
H578 C564 0.961 . S
H579 C565 0.958 . S
H580 C565 0.961 . S
H581 C565 0.960 . S
C582 C583 1.391 . S
C582 C584 1.394 . S
C582 H598 0.931 . S
C583 C582 1.391 . S
C583 C587 1.376 1_455 S
C584 C582 1.394 . S
C584 C585 1.369 . S
C584 C588 1.531 . S
C585 C584 1.369 . S
C585 C586 1.410 1_455 S
C585 C593 1.503 1_554 S
C586 C585 1.410 1_655 S
C586 C587 1.392 . S
C586 C589 1.511 . S
C587 C583 1.376 1_655 S
C587 C586 1.392 . S
C587 H599 0.929 . S
C588 C584 1.531 . S
C588 H600 0.960 1_554 S
C588 H601 0.962 . S
C588 H602 0.960 . S
C589 C586 1.511 . S
C589 H603 0.961 . S
C589 H604 0.961 1_554 S
C589 H605 0.961 . S
C590 C591 1.370 . S
C590 C592 1.363 . S
C590 H606 0.931 . S
C591 C590 1.370 . S
C591 C595 1.408 . S
C592 C590 1.363 . S
C592 C593 1.370 . S
C592 C596 1.524 . S
C593 C585 1.503 1_556 S
C593 C592 1.370 . S
C593 C594 1.403 . S
C594 C593 1.403 . S
C594 C595 1.404 . S
C594 C597 1.539 1_455 S
C595 C591 1.408 . S
C595 C594 1.404 . S
C595 H607 0.930 1_455 S
C596 C592 1.524 . S
C596 H608 0.956 1_556 S
C596 H609 0.961 1_556 S
C596 H610 0.961 . S
C597 C594 1.539 1_655 S
C597 H611 0.958 . S
C597 H612 0.961 . S
C597 H613 0.960 . S
H598 C582 0.931 . S
H599 C587 0.929 . S
H600 C588 0.960 1_556 S
H601 C588 0.962 . S
H602 C588 0.960 . S
H603 C589 0.961 . S
H604 C589 0.961 1_556 S
H605 C589 0.961 . S
H606 C590 0.931 . S
H607 C595 0.930 1_655 S
H608 C596 0.956 1_554 S
H609 C596 0.961 1_554 S
H610 C596 0.961 . S
H611 C597 0.958 . S
H612 C597 0.961 . S
H613 C597 0.960 . S
C614 C615 1.391 . S
C614 C616 1.394 . S
C614 H630 0.931 . S
C615 C614 1.391 . S
C615 C619 1.357 1_545 S
C616 C614 1.394 . S
C616 C617 1.369 . S
C616 C620 1.531 . S
C617 C616 1.369 . S
C617 C618 1.410 1_545 S
C617 C625 1.503 . S
C618 C617 1.410 1_565 S
C618 C619 1.393 . S
C618 C621 1.511 . S
C619 C615 1.357 1_565 S
C619 C618 1.393 . S
C619 H631 0.947 . S
C620 C616 1.531 . S
C620 H632 0.960 . S
C620 H633 0.962 . S
C620 H634 0.960 . S
C621 C618 1.511 . S
C621 H635 0.961 . S
C621 H636 0.961 . S
C621 H637 0.961 . S
C622 C623 1.370 . S
C622 C624 1.363 . S
C622 H638 0.931 1_545 S
C623 C622 1.370 . S
C623 C627 1.408 . S
C624 C622 1.363 . S
C624 C625 1.370 . S
C624 C628 1.524 1_545 S
C625 C617 1.503 . S
C625 C624 1.370 . S
C625 C626 1.403 . S
C626 C625 1.403 . S
C626 C627 1.404 . S
C626 C629 1.539 . S
C627 C623 1.408 . S
C627 C626 1.404 . S
C627 H639 0.930 . S
C628 C624 1.524 1_565 S
C628 H640 0.956 1_565 S
C628 H641 0.961 . S
C628 H642 0.961 . S
C629 C626 1.539 . S
C629 H643 0.958 . S
C629 H644 0.961 . S
C629 H645 0.960 . S
H630 C614 0.931 . S
H631 C619 0.947 . S
H632 C620 0.960 . S
H633 C620 0.962 . S
H634 C620 0.960 . S
H635 C621 0.961 . S
H636 C621 0.961 . S
H637 C621 0.961 . S
H638 C622 0.931 1_565 S
H639 C627 0.930 . S
H640 C628 0.956 1_545 S
H641 C628 0.961 . S
H642 C628 0.961 . S
H643 C629 0.958 . S
H644 C629 0.961 . S
H645 C629 0.960 . S
C646 C647 1.391 . S
C646 C648 1.394 . S
C646 H662 0.931 . S
C647 C646 1.391 . S
C647 C651 1.376 . S
C648 C646 1.394 . S
C648 C649 1.369 . S
C648 C652 1.531 . S
C649 C648 1.369 . S
C649 C650 1.410 . S
C649 C657 1.503 . S
C650 C649 1.410 . S
C650 C651 1.392 . S
C650 C653 1.511 . S
C651 C647 1.376 . S
C651 C650 1.392 . S
C651 H663 0.929 . S
C652 C648 1.531 . S
C652 H664 0.960 . S
C652 H665 0.962 . S
C652 H666 0.960 . S
C653 C650 1.511 . S
C653 H667 0.961 . S
C653 H668 0.961 . S
C653 H669 0.961 . S
C654 C655 1.370 . S
C654 C656 1.363 . S
C654 H670 0.931 . S
C655 C654 1.370 . S
C655 C659 1.408 . S
C656 C654 1.363 . S
C656 C657 1.370 . S
C656 C660 1.524 . S
C657 C649 1.503 . S
C657 C656 1.370 . S
C657 C658 1.403 . S
C658 C657 1.403 . S
C658 C659 1.404 . S
C658 C661 1.539 . S
C659 C655 1.408 . S
C659 C658 1.404 . S
C659 H671 0.930 . S
C660 C656 1.524 . S
C660 H672 0.956 . S
C660 H673 0.961 . S
C660 H674 0.961 . S
C661 C658 1.539 . S
C661 H675 0.958 . S
C661 H676 0.961 . S
C661 H677 0.960 . S
H662 C646 0.931 . S
H663 C651 0.929 . S
H664 C652 0.960 . S
H665 C652 0.962 . S
H666 C652 0.960 . S
H667 C653 0.961 . S
H668 C653 0.961 . S
H669 C653 0.961 . S
H670 C654 0.931 . S
H671 C659 0.930 . S
H672 C660 0.956 . S
H673 C660 0.961 . S
H674 C660 0.961 . S
H675 C661 0.958 . S
H676 C661 0.961 . S
H677 C661 0.960 . S
C678 C679 1.391 . S
C678 C680 1.394 . S
C678 H694 0.931 . S
C679 C678 1.391 . S
C679 C683 1.376 . S
C680 C678 1.394 . S
C680 C681 1.369 . S
C680 C684 1.531 . S
C681 C680 1.369 . S
C681 C682 1.410 . S
C681 C689 1.503 . S
C682 C681 1.410 . S
C682 C683 1.392 . S
C682 C685 1.511 1_545 S
C683 C679 1.376 . S
C683 C682 1.392 . S
C683 H695 0.930 1_545 S
C684 C680 1.531 . S
C684 H696 0.960 . S
C684 H697 0.962 . S
C684 H698 0.960 . S
C685 C682 1.511 1_565 S
C685 H699 0.960 . S
C685 H700 0.961 . S
C685 H701 0.962 1_565 S
C686 C687 1.370 1_565 S
C686 C688 1.361 . S
C686 H702 0.931 . S
C687 C686 1.370 1_545 S
C687 C691 1.408 . S
C688 C686 1.361 . S
C688 C689 1.354 1_565 S
C688 C692 1.543 . S
C689 C681 1.503 . S
C689 C688 1.354 1_545 S
C689 C690 1.403 . S
C690 C689 1.403 . S
C690 C691 1.404 . S
C690 C693 1.539 . S
C691 C687 1.408 . S
C691 C690 1.404 . S
C691 H703 0.930 . S
C692 C688 1.543 . S
C692 H704 0.956 . S
C692 H705 0.961 . S
C692 H706 0.961 . S
C693 C690 1.539 . S
C693 H707 0.958 . S
C693 H708 0.961 . S
C693 H709 0.960 . S
H694 C678 0.931 . S
H695 C683 0.930 1_565 S
H696 C684 0.960 . S
H697 C684 0.962 . S
H698 C684 0.960 . S
H699 C685 0.960 . S
H700 C685 0.961 . S
H701 C685 0.962 1_545 S
H702 C686 0.931 . S
H703 C691 0.930 . S
H704 C692 0.956 . S
H705 C692 0.961 . S
H706 C692 0.961 . S
H707 C693 0.958 . S
H708 C693 0.961 . S
H709 C693 0.960 . S
C710 C711 1.391 . S
C710 C712 1.394 . S
C710 H726 0.931 . S
C711 C710 1.391 . S
C711 C715 1.376 . S
C712 C710 1.394 . S
C712 C713 1.369 . S
C712 C716 1.531 . S
C713 C712 1.369 . S
C713 C714 1.410 . S
C713 C721 1.537 . S
C714 C713 1.410 . S
C714 C715 1.392 . S
C714 C717 1.511 . S
C715 C711 1.376 . S
C715 C714 1.392 . S
C715 H727 0.929 . S
C716 C712 1.531 . S
C716 H728 0.960 . S
C716 H729 0.962 . S
C716 H730 0.960 . S
C717 C714 1.511 . S
C717 H731 0.961 . S
C717 H732 0.961 . S
C717 H733 0.961 . S
C718 C719 1.370 . S
C718 C720 1.363 . S
C718 H734 0.931 . S
C719 C718 1.370 . S
C719 C723 1.408 . S
C720 C718 1.363 . S
C720 C721 1.361 1_554 S
C720 C724 1.524 1_554 S
C721 C713 1.537 . S
C721 C720 1.361 1_556 S
C721 C722 1.380 1_556 S
C722 C721 1.380 1_554 S
C722 C723 1.404 . S
C722 C725 1.539 . S
C723 C719 1.408 . S
C723 C722 1.404 . S
C723 H735 0.930 . S
C724 C720 1.524 1_556 S
C724 H736 0.956 . S
C724 H737 0.961 . S
C724 H738 0.961 . S
C725 C722 1.539 . S
C725 H739 0.958 . S
C725 H740 0.961 . S
C725 H741 0.960 1_554 S
H726 C710 0.931 . S
H727 C715 0.929 . S
H728 C716 0.960 . S
H729 C716 0.962 . S
H730 C716 0.960 . S
H731 C717 0.961 . S
H732 C717 0.961 . S
H733 C717 0.961 . S
H734 C718 0.931 . S
H735 C723 0.930 . S
H736 C724 0.956 . S
H737 C724 0.961 . S
H738 C724 0.961 . S
H739 C725 0.958 . S
H740 C725 0.961 . S
H741 C725 0.960 1_556 S
C742 C743 1.391 . S
C742 C744 1.394 . S
C742 H758 0.931 . S
C743 C742 1.391 . S
C743 C747 1.376 1_655 S
C744 C742 1.394 . S
C744 C745 1.369 1_655 S
C744 C748 1.531 . S
C745 C744 1.369 1_455 S
C745 C746 1.410 . S
C745 C753 1.503 . S
C746 C745 1.410 . S
C746 C747 1.392 . S
C746 C749 1.511 . S
C747 C743 1.376 1_455 S
C747 C746 1.392 . S
C747 H759 0.929 . S
C748 C744 1.531 . S
C748 H760 0.960 . S
C748 H761 0.962 . S
C748 H762 0.960 . S
C749 C746 1.511 . S
C749 H763 0.961 . S
C749 H764 0.961 . S
C749 H765 0.961 . S
C750 C751 1.370 . S
C750 C752 1.363 . S
C750 H766 0.931 . S
C751 C750 1.370 . S
C751 C755 1.408 . S
C752 C750 1.363 . S
C752 C753 1.370 . S
C752 C756 1.524 . S
C753 C745 1.503 . S
C753 C752 1.370 . S
C753 C754 1.403 . S
C754 C753 1.403 . S
C754 C755 1.404 . S
C754 C757 1.539 1_455 S
C755 C751 1.408 . S
C755 C754 1.404 . S
C755 H767 0.930 . S
C756 C752 1.524 . S
C756 H768 0.940 1_455 S
C756 H769 0.961 . S
C756 H770 0.961 . S
C757 C754 1.539 1_655 S
C757 H771 0.958 . S
C757 H772 0.961 1_655 S
C757 H773 0.960 1_655 S
H758 C742 0.931 . S
H759 C747 0.929 . S
H760 C748 0.960 . S
H761 C748 0.962 . S
H762 C748 0.960 . S
H763 C749 0.961 . S
H764 C749 0.961 . S
H765 C749 0.961 . S
H766 C750 0.931 . S
H767 C755 0.930 . S
H768 C756 0.940 1_655 S
H769 C756 0.961 . S
H770 C756 0.961 . S
H771 C757 0.958 . S
H772 C757 0.961 1_455 S
H773 C757 0.960 1_455 S
C199 C6 0.380 . S
C207 N187 0.350 . S
C231 C59 1.804 . S
C239 N160 1.809 1_655 S
C263 C86 1.139 . S
C271 N173 1.174 1_565 S
C295 C15 0.762 . S
C303 N186 0.703 . S
C335 N161 1.974 . S
C327 C50 1.953 . S
C367 N174 1.356 . S
C359 C95 1.308 . S
C391 C46 1.059 . S
C399 N134 1.080 . S
C423 C99 2.833 . S
C431 N148 2.814 1_655 S
C455 C10 1.967 . S
C463 N122 2.013 . S
C495 N135 1.402 . S
C487 C55 1.344 . S
C527 N147 3.308 . S
C519 C90 3.257 . S
C551 C19 1.806 . S
C559 N121 1.819 . S
C591 N151 1.738 . S
C583 C18 1.727 . S
C615 C49 1.440 . S
C623 N125 1.478 . S
C647 C98 1.515 . S
C655 N138 1.578 . S
C687 N177 1.531 . S
C679 C58 1.430 . S
C719 N190 1.234 . S
C711 C89 1.223 . S
C743 C9 1.396 1_655 S
C751 N164 1.460 . S
