# Generated by pormake.
# Topology zzz, (3,6)-cn, num edge types: 1
# Building blocks:
#     Node 0, Type 0, BuildingBlock: PAMTOO_clean_linker_0, # of connection points: 3
#     Node 1, Type 0, BuildingBlock: PAMTOO_clean_linker_0, # of connection points: 3
#     Node 2, Type 0, BuildingBlock: PAMTOO_clean_linker_0, # of connection points: 3
#     Node 3, Type 0, BuildingBlock: PAMTOO_clean_linker_0, # of connection points: 3
#     Node 4, Type 0, BuildingBlock: PAMTOO_clean_linker_0, # of connection points: 3
#     Node 5, Type 0, BuildingBlock: PAMTOO_clean_linker_0, # of connection points: 3
#     Node 6, Type 0, BuildingBlock: PAMTOO_clean_linker_0, # of connection points: 3
#     Node 7, Type 0, BuildingBlock: PAMTOO_clean_linker_0, # of connection points: 3
#     Node 8, Type 1, BuildingBlock: MIFKUJ_clean_sbu_0, # of connection points: 6
#     Node 9, Type 1, BuildingBlock: MIFKUJ_clean_sbu_0, # of connection points: 6
#     Node 10, Type 1, BuildingBlock: MIFKUJ_clean_sbu_0, # of connection points: 6
#     Node 11, Type 1, BuildingBlock: MIFKUJ_clean_sbu_0, # of connection points: 6
#     Edge 12, Type (0, 1), BuildingBlock: EZIPEK_clean_linker_0, # of connection points: 2
#     Edge 13, Type (0, 1), BuildingBlock: EZIPEK_clean_linker_0, # of connection points: 2
#     Edge 14, Type (0, 1), BuildingBlock: EZIPEK_clean_linker_0, # of connection points: 2
#     Edge 15, Type (0, 1), BuildingBlock: EZIPEK_clean_linker_0, # of connection points: 2
#     Edge 16, Type (0, 1), BuildingBlock: EZIPEK_clean_linker_0, # of connection points: 2
#     Edge 17, Type (0, 1), BuildingBlock: EZIPEK_clean_linker_0, # of connection points: 2
#     Edge 18, Type (0, 1), BuildingBlock: EZIPEK_clean_linker_0, # of connection points: 2
#     Edge 19, Type (0, 1), BuildingBlock: EZIPEK_clean_linker_0, # of connection points: 2
#     Edge 20, Type (0, 1), BuildingBlock: EZIPEK_clean_linker_0, # of connection points: 2
#     Edge 21, Type (0, 1), BuildingBlock: EZIPEK_clean_linker_0, # of connection points: 2
#     Edge 22, Type (0, 1), BuildingBlock: EZIPEK_clean_linker_0, # of connection points: 2
#     Edge 23, Type (0, 1), BuildingBlock: EZIPEK_clean_linker_0, # of connection points: 2
#     Edge 24, Type (0, 1), BuildingBlock: EZIPEK_clean_linker_0, # of connection points: 2
#     Edge 25, Type (0, 1), BuildingBlock: EZIPEK_clean_linker_0, # of connection points: 2
#     Edge 26, Type (0, 1), BuildingBlock: EZIPEK_clean_linker_0, # of connection points: 2
#     Edge 27, Type (0, 1), BuildingBlock: EZIPEK_clean_linker_0, # of connection points: 2
#     Edge 28, Type (0, 1), BuildingBlock: EZIPEK_clean_linker_0, # of connection points: 2
#     Edge 29, Type (0, 1), BuildingBlock: EZIPEK_clean_linker_0, # of connection points: 2
#     Edge 30, Type (0, 1), BuildingBlock: EZIPEK_clean_linker_0, # of connection points: 2
#     Edge 31, Type (0, 1), BuildingBlock: EZIPEK_clean_linker_0, # of connection points: 2
#     Edge 32, Type (0, 1), BuildingBlock: EZIPEK_clean_linker_0, # of connection points: 2
#     Edge 33, Type (0, 1), BuildingBlock: EZIPEK_clean_linker_0, # of connection points: 2
#     Edge 34, Type (0, 1), BuildingBlock: EZIPEK_clean_linker_0, # of connection points: 2
#     Edge 35, Type (0, 1), BuildingBlock: EZIPEK_clean_linker_0, # of connection points: 2
# Relax obj value: 0.121
# Max RMSD: 0.123
# Mean RMSD: 0.082
data_MOF--net-zzz--node1-MIFKUJ_clean_sbu_0--node2-PAMTOO_clean_linker_0--edge1-EZIPEK_clean_linker_0
_symmetry_space_group_name_H-M    P1
_symmetry_Int_Tables_number       1
_symmetry_cell_setting            triclinic
loop_
_symmetry_equiv_pos_as_xyz
'x, y, z'
_cell_length_a     37.649026
_cell_length_b     37.599939
_cell_length_c     11.990208
_cell_angle_alpha  90.435999
_cell_angle_beta   89.539908
_cell_angle_gamma 90.456301
loop_
_atom_site_label
_atom_site_type_symbol
_atom_site_fract_x
_atom_site_fract_y
_atom_site_fract_z
_atom_type_partial_charge
H0 H 0.81889 0.55306 0.11573 0.0
H1 H 0.72809 0.59281 0.94294 0.0
H2 H 0.71452 0.53435 0.24783 0.0
H3 H 0.68646 0.50626 0.98859 0.0
C4 C 0.67551 0.53297 0.9705 0.0
O5 O 0.68252 0.55584 0.05958 0.0
H6 H 0.69059 0.54184 0.89552 0.0
C7 C 0.79046 0.55732 0.11033 0.0
C8 C 0.76896 0.54616 0.19836 0.0
C9 C 0.77621 0.57253 0.01482 0.0
C10 C 0.73961 0.57864 0.01162 0.0
C11 C 0.71696 0.56179 0.08898 0.0
C12 C 0.73166 0.54638 0.18552 0.0
H13 H -0.00166 0.82096 0.12136 0.0
H14 H 0.9706 0.73101 0.92225 0.0
H15 H -0.00265 0.71716 0.26978 0.0
H16 H 0.03076 0.6606 0.06752 0.0
C17 C 0.00752 0.66581 0.01393 0.0
O18 O 0.98165 0.68325 0.07638 0.0
H19 H 0.01834 0.68362 0.94776 0.0
C20 C -0.00621 0.79241 0.11492 0.0
C21 C -0.00257 0.77148 0.2087 0.0
C22 C 0.98438 0.77783 0.01299 0.0
C23 C 0.97756 0.7416 0.00309 0.0
C24 C 0.98351 0.71905 0.09376 0.0
C25 C -0.00673 0.73408 0.19848 0.0
H26 H 0.66604 0.94881 0.10399 0.0
H27 H 0.75916 0.98582 0.93114 0.0
H28 H 0.76881 0.93749 0.25324 0.0
H29 H 0.81183 0.91716 -0.00742 0.0
C30 C 0.82774 0.93832 0.0348 0.0
O31 O 0.80433 0.96338 0.07757 0.0
H32 H 0.84209 0.92601 0.10504 0.0
C33 C 0.69484 0.95046 0.09803 0.0
C34 C 0.71517 0.94126 0.18967 0.0
C35 C 0.71015 0.96839 0.00867 0.0
C36 C 0.74715 0.97171 0.00048 0.0
C37 C 0.76864 0.95844 0.08512 0.0
C38 C 0.75259 0.94408 0.18225 0.0
H39 H 0.49578 0.68061 0.13336 0.0
H40 H 0.5135 0.77188 0.9337 0.0
H41 H 0.47747 0.78447 0.2751 0.0
H42 H 0.44841 0.84004 0.06571 0.0
C43 C 0.47333 0.83497 0.0185 0.0
O44 O 0.49776 0.81913 0.08826 0.0
H45 H 0.46502 0.81614 0.95121 0.0
C46 C 0.49677 0.70944 0.12691 0.0
C47 C 0.48637 0.73021 0.21742 0.0
C48 C 0.50483 0.72451 0.02491 0.0
C49 C 0.5076 0.76113 0.01494 0.0
C50 C 0.49786 0.78333 0.10454 0.0
C51 C 0.48629 0.76778 0.20651 0.0
H52 H 0.17253 0.44303 0.14189 0.0
H53 H 0.26893 0.44506 0.32805 0.0
H54 H 0.27201 0.46019 0.97351 0.0
H55 H 0.35355 0.42922 0.1103 0.0
C56 C 0.33752 0.43471 0.18657 0.0
O57 O 0.3101 0.45739 0.15935 0.0
H58 H 0.32745 0.40793 0.20877 0.0
C59 C 0.20139 0.44258 0.14298 0.0
C60 C 0.21975 0.44992 0.04436 0.0
C61 C 0.21864 0.44455 0.24531 0.0
C62 C 0.25563 0.44341 0.24837 0.0
C63 C 0.27537 0.44803 0.14994 0.0
C64 C 0.25732 0.45211 0.04719 0.0
H65 H 0.98315 0.17441 0.10712 0.0
H66 H 0.95673 0.26948 0.28173 0.0
H67 H 0.01477 0.27555 0.97003 0.0
H68 H 0.03673 0.33346 0.18161 0.0
C69 C 0.01033 0.32868 0.22035 0.0
O70 O 0.98789 0.31341 0.14181 0.0
H71 H 0.01577 0.30948 0.28841 0.0
C72 C 0.98386 0.20329 0.11161 0.0
C73 C -0.00023 0.22258 0.02568 0.0
C74 C 0.96859 0.22034 0.20301 0.0
C75 C 0.96815 0.25721 0.20856 0.0
C76 C 0.98578 0.27754 0.12735 0.0
C77 C 0.00184 0.26013 0.03479 0.0
H78 H 0.31637 0.05743 0.13478 0.0
H79 H 0.22164 0.04099 0.32555 0.0
H80 H 0.21545 0.05369 0.96967 0.0
H81 H 0.14978 0.09118 0.17082 0.0
C82 C 0.15687 0.06845 0.22337 0.0
O83 O 0.17789 0.04667 0.15758 0.0
H84 H 0.17235 0.08019 0.29348 0.0
C85 C 0.2875 0.05739 0.13914 0.0
C86 C 0.26822 0.05668 0.0405 0.0
C87 C 0.271 0.04896 0.23951 0.0
C88 C 0.23415 0.04744 0.24653 0.0
C89 C 0.2136 0.05144 0.15015 0.0
C90 C 0.23076 0.05523 0.04564 0.0
H91 H 0.50404 0.32855 0.10165 0.0
H92 H 0.53054 0.23021 0.2575 0.0
H93 H 0.47289 0.22964 0.94789 0.0
H94 H 0.44674 0.16958 0.1335 0.0
C95 C 0.46906 0.17739 0.1884 0.0
O96 O 0.4956 0.19004 0.11817 0.0
H97 H 0.45946 0.19907 0.24486 0.0
C98 C 0.50394 0.29965 0.10076 0.0
C99 C 0.4888 0.28157 0.01103 0.0
C100 C 0.51842 0.28135 0.19003 0.0
C101 C 0.51932 0.2443 0.18782 0.0
C102 C 0.50111 0.22548 0.10449 0.0
C103 C 0.48612 0.24408 0.01425 0.0
Zn104 Zn 0.98019 0.04906 0.60855 0.0
Zn105 Zn 0.00661 0.95382 0.62145 0.0
C106 C -0.00715 0.09618 0.79353 0.0
O107 O 0.96157 0.08375 0.82365 0.0
C108 C 0.01884 0.89451 0.47588 0.0
O109 O 0.049 0.89685 0.52951 0.0
O110 O 0.95424 0.08587 0.52643 0.0
O111 O 0.01032 0.02357 0.48943 0.0
O112 O 0.04643 0.98878 0.57963 0.0
C113 C 0.96213 0.09465 0.42771 0.0
O114 O 0.98401 0.07522 0.36789 0.0
O115 O 0.00915 0.08117 0.71278 0.0
C116 C -0.00079 0.89765 0.74552 0.0
O117 O 0.97009 0.90192 0.68861 0.0
O118 O 0.0242 0.92037 0.73714 0.0
O119 O 0.95928 0.96972 0.69403 0.0
O120 O 0.94063 0.02445 0.68978 0.0
O121 O -0.00341 0.91967 0.48847 0.0
C122 C 0.04152 0.01226 0.50588 0.0
C123 C 0.93579 0.99264 0.71886 0.0
Zn124 Zn 0.43838 0.00363 0.6069 0.0
Zn125 Zn 0.54623 0.00029 0.57699 0.0
C126 C 0.37856 0.01355 0.74221 0.0
O127 O 0.37257 0.98221 0.69674 0.0
C128 C 0.59723 0.95473 0.4797 0.0
O129 O 0.59975 0.94509 0.58432 0.0
O130 O 0.40307 0.98313 0.5002 0.0
O131 O 0.46722 0.04002 0.52309 0.0
O132 O 0.52529 0.04417 0.50895 0.0
C133 C 0.39747 -0.00069 0.40993 0.0
O134 O 0.42291 0.01881 0.36581 0.0
O135 O 0.40785 0.02927 0.72125 0.0
C136 C 0.59153 0.0104 0.76813 0.0
O137 O 0.56644 0.99318 0.82258 0.0
O138 O 0.58671 0.01851 0.66722 0.0
O139 O 0.51953 0.96484 0.67596 0.0
O140 O 0.46079 0.96477 0.69297 0.0
O141 O 0.57188 0.97481 0.45154 0.0
C142 C 0.49475 0.05584 0.48653 0.0
C143 C 0.49085 0.95208 0.71647 0.0
Zn144 Zn 0.50148 0.4545 0.59239 0.0
Zn145 Zn 0.47806 0.5492 0.62743 0.0
C146 C 0.48592 0.40939 0.78092 0.0
O147 O 0.51311 0.42657 0.82338 0.0
C148 C 0.46539 0.60774 0.48298 0.0
O149 O 0.43389 0.60234 0.5278 0.0
O150 O 0.52586 0.41994 0.49892 0.0
O151 O 0.47281 0.48225 0.48096 0.0
O152 O 0.43703 0.51636 0.57791 0.0
C153 C 0.50452 0.40164 0.44109 0.0
O154 O 0.47071 0.41006 0.43941 0.0
O155 O 0.47259 0.42043 0.69043 0.0
C156 C 0.48787 0.60365 0.75647 0.0
O157 O 0.51696 0.5971 0.70017 0.0
O158 O 0.46127 0.5829 0.74614 0.0
O159 O 0.52444 0.53075 0.70085 0.0
O160 O 0.542 0.47635 0.67309 0.0
O161 O 0.4895 0.58476 0.49996 0.0
C162 C 0.44157 0.49221 0.50452 0.0
C163 C 0.54719 0.5065 0.71629 0.0
Zn164 Zn 0.04596 0.49515 0.61481 0.0
Zn165 Zn 0.93706 0.49767 0.62945 0.0
C166 C 0.09992 0.49501 0.78585 0.0
O167 O 0.09333 0.52924 0.78086 0.0
C168 C 0.88264 0.50415 0.48117 0.0
O169 O 0.88003 0.47259 0.52689 0.0
O170 O 0.07561 0.49923 0.47873 0.0
O171 O 0.00572 0.46291 0.56391 0.0
O172 O 0.94894 0.44973 0.56362 0.0
C173 C 0.10727 0.51023 0.4857 0.0
O174 O 0.11668 0.52797 0.57527 0.0
O175 O 0.07991 0.47365 0.7312 0.0
C176 C 0.89173 0.53031 0.75822 0.0
O177 O 0.91253 0.5541 0.71094 0.0
O178 O 0.89867 0.49747 0.7448 0.0
O179 O 0.97836 0.51931 0.71996 0.0
O180 O 0.0285 0.54329 0.66696 0.0
O181 O 0.91019 0.52311 0.50316 0.0
C182 C 0.9804 0.44272 0.53212 0.0
C183 C -0.00207 0.54686 0.71095 0.0
C184 C 0.09472 0.0704 0.30596 0.0
C185 C 0.12478 0.04931 0.2775 0.0
C186 C 0.09672 0.00065 0.38541 0.0
C187 C 0.07126 0.02449 0.43057 0.0
N188 N 0.05605 0.08604 0.45824 0.0
N189 N 0.15632 0.99386 0.31719 0.0
C190 C 0.07313 0.06052 0.39786 0.0
C191 C 0.12659 0.01433 0.32506 0.0
N192 N 0.08587 0.09965 0.24562 0.0
N193 N 0.09203 0.96481 0.3953 0.0
H194 H 0.1789 -9e-05 0.2716 0.0
H195 H 0.15939 0.97085 0.36407 0.0
H196 H 0.06939 0.95361 0.43113 0.0
H197 H 0.10843 0.94641 0.35527 0.0
H198 H 0.06292 0.11418 0.26258 0.0
H199 H 0.09767 0.10624 0.16974 0.0
H200 H 0.05954 0.11311 0.44257 0.0
H201 H 0.04248 0.08022 0.5318 0.0
C202 C 0.45104 0.13202 0.33416 0.0
C203 C 0.47861 0.14579 0.26382 0.0
C204 C 0.51611 0.09682 0.32868 0.0
C205 C 0.49067 0.08774 0.41272 0.0
N206 N 0.44004 0.10935 0.51793 0.0
N207 N 0.54317 0.14605 0.23334 0.0
C208 C 0.45986 0.10895 0.42218 0.0
C209 C 0.513 0.12989 0.27218 0.0
N210 N 0.41623 0.14071 0.31911 0.0
N211 N 0.54249 0.07389 0.29814 0.0
H212 H 0.5445 0.17183 0.20404 0.0
H213 H 0.56832 0.13556 0.24716 0.0
H214 H 0.54409 0.04791 0.32674 0.0
H215 H 0.5599 0.07918 0.23208 0.0
H216 H 0.39578 0.12797 0.36297 0.0
H217 H 0.40731 0.15784 0.25778 0.0
H218 H 0.41885 0.12676 0.52959 0.0
H219 H 0.44755 0.0961 0.58999 0.0
C220 C 0.36137 0.44086 0.38921 0.0
C221 C 0.36153 0.45225 0.27541 0.0
C222 C 0.41161 0.49306 0.31725 0.0
C223 C 0.41186 0.48117 0.42927 0.0
N224 N 0.38392 0.4486 0.57811 0.0
N225 N 0.38134 0.49567 0.14 0.0
C226 C 0.38573 0.45656 0.46699 0.0
C227 C 0.38501 0.48032 0.24241 0.0
N228 N 0.33855 0.41456 0.42335 0.0
N229 N 0.4374 0.51624 0.28149 0.0
H230 H 0.36305 0.4872 0.08059 0.0
H231 H 0.39437 0.51896 0.1164 0.0
H232 H 0.45532 0.52868 0.3353 0.0
H233 H 0.44229 0.52191 0.19791 0.0
H234 H 0.34133 0.40075 0.4976 0.0
H235 H 0.31687 0.40571 0.37745 0.0
H236 H 0.36335 0.43411 0.61486 0.0
H237 H 0.4019 0.45871 0.63627 0.0
C238 C 0.9689 0.3579 0.36126 0.0
C239 C -0.00526 0.36207 0.27602 0.0
C240 C 0.0033 0.42367 0.34128 0.0
C241 C 0.98598 0.41496 0.444 0.0
N242 N 0.95366 0.3712 0.55252 0.0
N243 N 0.03234 0.4023 0.17222 0.0
C244 C 0.96915 0.38128 0.45428 0.0
C245 C 0.01075 0.39607 0.26202 0.0
N246 N 0.94207 0.33386 0.34837 0.0
N247 N 0.01018 0.4584 0.31551 0.0
H248 H 0.034 0.38476 0.10461 0.0
H249 H 0.04856 0.42478 0.16547 0.0
H250 H 0.00339 0.47955 0.36792 0.0
H251 H 0.01938 0.4665 0.2375 0.0
H252 H 0.92149 0.33082 0.40635 0.0
H253 H 0.93698 0.32262 0.27047 0.0
H254 H 0.94343 0.34565 0.56481 0.0
H255 H 0.95426 0.38698 0.6244 0.0
C256 C 0.8672 0.98974 0.95766 0.0
C257 C 0.85518 0.95377 0.95147 0.0
C258 C 0.89108 0.94589 0.77979 0.0
C259 C 0.90335 0.98162 0.78676 0.0
N260 N 0.88834 0.0407 0.85526 0.0
N261 N 0.8664 0.89505 0.87564 0.0
C262 C 0.88715 0.00462 0.86741 0.0
C263 C 0.87002 0.93115 0.86751 0.0
N264 N 0.86246 0.0091 0.05346 0.0
N265 N 0.8971 0.92674 0.68428 0.0
H266 H 0.85384 0.88248 0.94248 0.0
H267 H 0.88 0.87728 0.82402 0.0
H268 H 0.90925 0.93782 0.61403 0.0
H269 H 0.88605 0.90169 0.66918 0.0
H270 H 0.87328 0.03444 0.06522 0.0
H271 H 0.85278 -0.00195 0.12718 0.0
H272 H 0.87428 0.05804 0.90716 0.0
H273 H 0.89775 0.05329 0.78406 0.0
C274 C 0.47492 0.9026 0.98974 0.0
C275 C 0.48805 0.86843 0.96099 0.0
C276 C 0.50734 0.89044 0.77801 0.0
C277 C 0.49237 0.92401 0.80313 0.0
N278 N 0.4712 0.96531 0.94312 0.0
N279 N 0.53289 0.83752 0.85544 0.0
C280 C 0.47893 0.93112 0.91241 0.0
C281 C 0.50924 0.86461 0.86335 0.0
N282 N 0.45875 0.9077 0.09088 0.0
N283 N 0.51861 0.88259 0.67212 0.0
H284 H 0.53942 0.82282 0.92529 0.0
H285 H 0.55027 0.83419 0.78816 0.0
H286 H 0.51754 0.9007 0.60682 0.0
H287 H 0.52617 0.85709 0.64739 0.0
H288 H 0.44407 0.93016 0.11172 0.0
H289 H 0.46014 0.88903 0.15463 0.0
H290 H 0.46413 0.97296 0.0238 0.0
H291 H 0.47477 0.98686 0.88977 0.0
C292 C 0.61918 0.49766 0.94177 0.0
C293 C 0.63656 0.53088 0.93537 0.0
C294 C 0.59569 0.5486 0.78687 0.0
C295 C 0.58 0.51382 0.78617 0.0
N296 N 0.58876 0.45184 0.83993 0.0
N297 N 0.63413 0.59188 0.87926 0.0
C298 C 0.59466 0.48734 0.85777 0.0
C299 C 0.62226 0.55768 0.86703 0.0
N300 N 0.62627 0.47579 0.02912 0.0
N301 N 0.58875 0.57139 0.70166 0.0
H302 H 0.6536 0.59895 0.93681 0.0
H303 H 0.62216 0.61357 0.84186 0.0
H304 H 0.5742 0.56377 0.63173 0.0
H305 H 0.601 0.5961 0.69217 0.0
H306 H 0.61216 0.45235 0.04451 0.0
H307 H 0.64307 0.48362 0.09388 0.0
H308 H 0.60149 0.43214 0.8849 0.0
H309 H 0.5767 0.44111 0.76996 0.0
C310 C 0.9757 0.63526 0.8522 0.0
C311 C -0.00623 0.63204 0.95483 0.0
C312 C 0.00571 0.56927 0.90914 0.0
C313 C -0.00554 0.57538 0.7975 0.0
N314 N 0.96989 0.61481 0.66118 0.0
N315 N 0.01749 0.5938 0.09456 0.0
C316 C 0.97961 0.60852 0.76875 0.0
C317 C 0.00583 0.5981 0.98792 0.0
N318 N 0.9531 0.66288 0.83742 0.0
N319 N 0.01653 0.53605 0.93905 0.0
H320 H 0.01335 0.61307 0.15633 0.0
H321 H 0.03043 0.57138 0.12328 0.0
H322 H 0.01853 0.5149 0.88275 0.0
H323 H 0.02261 0.52869 0.02001 0.0
H324 H 0.93746 0.66582 0.76686 0.0
H325 H 0.94571 0.67919 0.90387 0.0
H326 H 0.96272 0.63987 0.63291 0.0
H327 H 0.9714 0.59552 0.59832 0.0
C328 C 0.98004 0.19198 0.38365 0.0
C329 C 0.95611 0.19804 0.29567 0.0
C330 C 0.92944 0.13923 0.31712 0.0
C331 C 0.95619 0.13149 0.39508 0.0
N332 N 0.00186 0.15152 0.52232 0.0
N333 N 0.90144 0.18429 0.20385 0.0
C334 C 0.9795 0.15845 0.43609 0.0
C335 C 0.92812 0.17394 0.27253 0.0
N336 N 0.00508 0.21718 0.40995 0.0
N337 N 0.90679 0.11295 0.2818 0.0
H338 H 0.9008 0.20992 0.17093 0.0
H339 H 0.87893 0.16897 0.1872 0.0
H340 H 0.90668 0.08747 0.31578 0.0
H341 H 0.8891 0.1158 0.21631 0.0
H342 H 0.02652 0.21305 0.46223 0.0
H343 H 0.00487 0.2428 0.37782 0.0
H344 H 0.01735 0.17054 0.56287 0.0
H345 H 0.00329 0.12682 0.55987 0.0
C346 C 0.31638 0.057 0.38432 0.0
C347 C 0.2938 0.03364 0.32535 0.0
C348 C 0.33681 0.98553 0.33783 0.0
C349 C 0.36058 0.00968 0.38931 0.0
N350 N 0.37015 0.06457 0.49078 0.0
N351 N 0.27661 0.97369 0.27689 0.0
C352 C 0.34932 0.04422 0.42257 0.0
C353 C 0.30196 -0.00298 0.31394 0.0
N354 N 0.3069 0.09182 0.39735 0.0
N355 N 0.34821 0.9525 0.30617 0.0
H356 H 0.2508 0.9815 0.25902 0.0
H357 H 0.27998 0.94625 0.27392 0.0
H358 H 0.37353 0.94318 0.32439 0.0
H359 H 0.33355 0.93518 0.25608 0.0
H360 H 0.32383 0.11177 0.42646 0.0
H361 H 0.28183 0.10086 0.37467 0.0
H362 H 0.36268 0.08926 0.52215 0.0
H363 H 0.39399 0.05552 0.523 0.0
C364 C 0.55195 0.33049 0.27503 0.0
C365 C 0.52728 0.30239 0.29024 0.0
C366 C 0.49735 0.3362 0.4366 0.0
C367 C 0.51576 0.36694 0.3991 0.0
N368 N 0.56158 0.39418 0.28525 0.0
N369 N 0.47859 0.27624 0.3946 0.0
C370 C 0.54418 0.36429 0.32141 0.0
C371 C 0.50145 0.30407 0.37671 0.0
N372 N 0.58117 0.325 0.20937 0.0
N373 N 0.47592 0.33772 0.5291 0.0
H374 H 0.48213 0.25113 0.3598 0.0
H375 H 0.45542 0.27826 0.44216 0.0
H376 H 0.47155 0.36105 0.57418 0.0
H377 H 0.46522 0.31531 0.56774 0.0
H378 H 0.60154 0.34364 0.1994 0.0
H379 H 0.58616 0.30015 0.17317 0.0
H380 H 0.57993 0.39416 0.21984 0.0
H381 H 0.55594 0.41963 0.31526 0.0
C382 C 0.19822 0.49689 0.35667 0.0
C383 C 0.19721 0.45935 0.33851 0.0
C384 C 0.13436 0.45784 0.38577 0.0
C385 C 0.13558 0.4947 0.41398 0.0
N386 N 0.16868 0.54978 0.42458 0.0
N387 N 0.16783 0.4034 0.36749 0.0
C388 C 0.16767 0.51424 0.39964 0.0
C389 C 0.16655 0.43966 0.36727 0.0
N390 N 0.22734 0.51651 0.32556 0.0
N391 N 0.10287 0.44067 0.36659 0.0
H392 H 0.1914 0.38983 0.35062 0.0
H393 H 0.14678 0.38748 0.39509 0.0
H394 H 0.07906 0.45394 0.35677 0.0
H395 H 0.10121 0.41427 0.33993 0.0
H396 H 0.22721 0.54405 0.3175 0.0
H397 H 0.25181 0.50569 0.30508 0.0
H398 H 0.19215 0.56423 0.43512 0.0
H399 H 0.14576 0.56478 0.4368 0.0
C400 C 0.95977 0.83115 0.93231 0.0
C401 C 0.98332 0.8024 0.91887 0.0
C402 C 0.02151 0.83803 0.79714 0.0
C403 C -0.00015 0.86775 0.82189 0.0
N404 N 0.95384 0.89508 0.93236 0.0
N405 N 0.03629 0.77692 0.83815 0.0
C406 C 0.97051 0.86499 0.89541 0.0
C407 C 0.01378 0.80511 0.84905 0.0
N408 N 0.92794 0.82595 0.98537 0.0
N409 N 0.04939 0.84143 0.72461 0.0
H410 H 0.0305 0.75189 0.87036 0.0
H411 H 0.06108 0.77832 0.79945 0.0
H412 H 0.05944 0.86617 0.70177 0.0
H413 H 0.06266 0.82002 0.68836 0.0
H414 H 0.90869 0.84551 -0.00629 0.0
H415 H 0.91983 0.80081 0.01258 0.0
H416 H 0.93433 0.89508 -0.00559 0.0
H417 H 0.96225 0.9205 0.90884 0.0
C418 C 0.68233 0.97867 0.82287 0.0
C419 C 0.68607 0.98825 0.93602 0.0
C420 C 0.63137 0.02284 0.92964 0.0
C421 C 0.62751 0.01257 0.81674 0.0
N422 N 0.65915 -0.00285 0.64716 0.0
N423 N 0.67129 0.02886 0.08626 0.0
C424 C 0.65613 0.99579 0.76005 0.0
C425 C 0.66298 0.01377 0.98568 0.0
N426 N 0.70224 0.95211 0.77641 0.0
N427 N 0.60458 0.04046 0.98344 0.0
H428 H 0.69496 0.02337 0.12717 0.0
H429 H 0.65661 0.04919 0.12327 0.0
H430 H 0.58231 0.04973 0.94158 0.0
H431 H 0.60394 0.04471 0.06939 0.0
H432 H 0.69723 0.94174 0.69709 0.0
H433 H 0.72164 0.93849 0.82011 0.0
H434 H 0.68077 0.98663 0.60361 0.0
H435 H 0.64359 0.01407 0.60067 0.0
C436 C 0.47247 0.6962 0.86839 0.0
C437 C 0.5046 0.70036 0.9286 0.0
C438 C 0.51938 0.63863 0.89629 0.0
C439 C 0.48861 0.63463 0.83019 0.0
N440 N 0.43843 0.66089 0.73802 0.0
N441 N 0.56291 0.67956 0.97187 0.0
C442 C 0.46585 0.66378 0.81137 0.0
C443 C 0.52978 0.67291 0.93098 0.0
N444 N 0.44727 0.72218 0.8716 0.0
N445 N 0.53787 0.60937 0.92883 0.0
H446 H 0.5706 0.70499 -0.00157 0.0
H447 H 0.58332 0.661 0.96893 0.0
H448 H 0.52963 0.5835 0.90913 0.0
H449 H 0.55893 0.61059 0.9846 0.0
H450 H 0.42149 0.71845 0.84263 0.0
H451 H 0.45144 0.7471 0.90769 0.0
H452 H 0.42457 0.68272 0.70842 0.0
H453 H 0.43029 0.63678 0.7036 0.0
C454 C 0.83444 0.58984 0.93747 0.0
C455 C 0.8003 0.57569 0.91624 0.0
C456 C 0.82545 0.53221 0.78606 0.0
C457 C 0.8601 0.54315 0.8191 0.0
N458 N 0.89781 0.57925 0.9371 0.0
N459 N 0.76312 0.54687 0.77994 0.0
C460 C 0.86473 0.5717 0.89617 0.0
C461 C 0.79565 0.55097 0.82795 0.0
N462 N 0.83727 0.61944 0.0034 0.0
N463 N 0.82062 0.50343 0.71743 0.0
H464 H 0.74191 0.56325 0.79942 0.0
H465 H 0.75845 0.53141 0.70911 0.0
H466 H 0.84123 0.48867 0.68384 0.0
H467 H 0.79595 0.49182 0.70189 0.0
H468 H 0.86103 0.63295 0.01814 0.0
H469 H 0.81469 0.63202 0.03545 0.0
H470 H 0.90271 0.59776 0.00014 0.0
H471 H 0.92022 0.56447 0.91577 0.0
C472 C 0.03697 0.17522 0.94094 0.0
C473 C 0.01024 0.20109 0.92588 0.0
C474 C 0.97949 0.16148 0.7948 0.0
C475 C 0.0024 0.13332 0.82634 0.0
N476 N 0.05559 0.11361 0.91625 0.0
N477 N 0.96103 0.22291 0.82245 0.0
C478 C 0.03258 0.1405 0.89333 0.0
C479 C 0.98377 0.19574 0.84446 0.0
N480 N 0.0652 0.18384 0.00689 0.0
N481 N 0.95328 0.15512 0.71865 0.0
H482 H 0.96512 0.24851 0.85395 0.0
H483 H 0.93848 0.22076 0.77344 0.0
H484 H 0.94875 0.13028 0.68262 0.0
H485 H 0.93706 0.17448 0.68524 0.0
H486 H 0.08639 0.16712 0.02289 0.0
H487 H 0.06799 0.2093 0.04142 0.0
H488 H 0.07719 0.11603 0.96923 0.0
H489 H 0.05278 0.08812 0.88237 0.0
C490 C 0.30528 0.07107 0.87203 0.0
C491 C 0.28923 0.0452 0.94154 0.0
C492 C 0.33656 0.0032 0.89804 0.0
C493 C 0.35174 0.02774 0.82225 0.0
N494 N 0.35451 0.08749 0.74947 0.0
N495 N 0.28437 0.98422 0.00017 0.0
C496 C 0.33717 0.06249 0.81201 0.0
C497 C 0.30307 0.01032 0.94623 0.0
N498 N 0.28958 0.10358 0.86408 0.0
N499 N 0.3556 0.97426 0.93052 0.0
H500 H 0.25944 0.98868 0.03595 0.0
H501 H 0.29189 0.95762 -0.00037 0.0
H502 H 0.38154 0.96967 0.90283 0.0
H503 H 0.34756 0.95748 -0.00513 0.0
H504 H 0.29846 0.1241 0.81318 0.0
H505 H 0.26585 0.10936 0.90577 0.0
H506 H 0.34593 0.1134 0.7385 0.0
H507 H 0.37917 0.08322 0.71254 0.0
C508 C 0.50604 0.31235 0.837 0.0
C509 C 0.47877 0.3041 0.91468 0.0
C510 C 0.45066 0.36191 0.88147 0.0
C511 C 0.48026 0.37175 0.81438 0.0
N512 N 0.5323 0.35482 0.7084 0.0
N513 N 0.42094 0.31563 0.99025 0.0
C514 C 0.50659 0.34627 0.78515 0.0
C515 C 0.44934 0.3271 0.92845 0.0
N516 N 0.5329 0.28859 0.8205 0.0
N517 N 0.42506 0.38651 0.90488 0.0
H518 H 0.42015 0.29015 0.02438 0.0
H519 H 0.39756 0.32982 0.00125 0.0
H520 H 0.42524 0.41181 0.86961 0.0
H521 H 0.40424 0.38256 0.96107 0.0
H522 H 0.5563 0.29402 0.77706 0.0
H523 H 0.5319 0.26295 0.85303 0.0
H524 H 0.55036 0.33682 0.6749 0.0
H525 H 0.53414 0.37972 0.6713 0.0
C526 C 0.18563 0.44482 0.86265 0.0
C527 C 0.19726 0.46554 0.95459 0.0
C528 C 0.14382 0.5019 0.94196 0.0
C529 C 0.13286 0.48307 0.84473 0.0
N530 N 0.1506 0.4432 0.69412 0.0
N531 N 0.19339 0.52096 0.05539 0.0
C532 C 0.15582 0.45636 0.79923 0.0
C533 C 0.17856 0.49691 0.98336 0.0
N534 N 0.20245 0.41378 0.83737 0.0
N535 N 0.12036 0.52263 0.00027 0.0
H536 H 0.21898 0.51778 0.08654 0.0
H537 H 0.18186 0.54543 0.07404 0.0
H538 H 0.09354 0.52424 0.98015 0.0
H539 H 0.12646 0.53439 0.07685 0.0
H540 H 0.19274 0.39546 0.77925 0.0
H541 H 0.22519 0.40574 0.87929 0.0
H542 H 0.16849 0.42619 0.65445 0.0
H543 H 0.13081 0.45216 0.64153 0.0
C544 C 0.97595 0.80708 0.37019 0.0
C545 C 0.00527 0.79215 0.31225 0.0
C546 C 0.04007 0.84629 0.34761 0.0
C547 C 0.01143 0.86129 0.40944 0.0
N548 N 0.95201 0.85399 0.48652 0.0
N549 N 0.06757 0.79315 0.27151 0.0
C550 C 0.97939 0.84107 0.42342 0.0
C551 C 0.03834 0.81016 0.31267 0.0
N552 N 0.94391 0.78983 0.36616 0.0
N553 N 0.06775 0.86751 0.31415 0.0
H554 H 0.06618 0.76685 0.24301 0.0
H555 H 0.09317 0.80378 0.27569 0.0
H556 H 0.06822 0.89485 0.32906 0.0
H557 H 0.0878 0.859 0.26014 0.0
H558 H 0.91999 0.80116 0.39144 0.0
H559 H 0.94128 0.76424 0.3328 0.0
H560 H 0.93115 0.8382 0.5159 0.0
H561 H 0.94978 0.88048 0.50965 0.0
C562 C 0.67123 0.90976 0.3118 0.0
C563 C 0.69458 0.93915 0.2959 0.0
C564 C 0.6512 0.97882 0.38206 0.0
C565 C 0.62839 0.94948 0.4048 0.0
N566 N 0.61618 0.88665 0.39324 0.0
N567 N 0.7117 -0.00166 0.35126 0.0
C568 C 0.63853 0.91462 0.3716 0.0
C569 C 0.68625 0.9724 0.34444 0.0
N570 N 0.68003 0.87779 0.265 0.0
N571 N 0.63933 0.01298 0.39169 0.0
H572 H 0.73783 0.99415 0.32539 0.0
H573 H 0.70779 0.02226 0.39401 0.0
H574 H 0.61393 0.01963 0.41897 0.0
H575 H 0.65404 0.03482 0.36378 0.0
H576 H 0.66335 0.85561 0.26331 0.0
H577 H 0.70458 0.87395 0.22573 0.0
H578 H 0.62247 0.86019 0.37777 0.0
H579 H 0.59102 0.89002 0.42887 0.0
C580 C 0.49921 0.70076 0.39731 0.0
C581 C 0.47387 0.70925 0.31567 0.0
C582 C 0.44589 0.65039 0.33678 0.0
C583 C 0.47153 0.64114 0.41745 0.0
N584 N 0.52276 0.65806 0.52648 0.0
N585 N 0.41791 0.69689 0.22955 0.0
C586 C 0.49806 0.66664 0.4491 0.0
C587 C 0.445 0.68571 0.29535 0.0
N588 N 0.52595 0.72458 0.41857 0.0
N589 N 0.4242 0.62454 0.29316 0.0
H590 H 0.41761 0.72256 0.19684 0.0
H591 H 0.39476 0.68221 0.21596 0.0
H592 H 0.42576 0.59789 0.31629 0.0
H593 H 0.40747 0.62857 0.22581 0.0
H594 H 0.54799 0.71935 0.46734 0.0
H595 H 0.52602 0.75014 0.38523 0.0
H596 H 0.53829 0.67657 0.56925 0.0
H597 H 0.52887 0.6319 0.54378 0.0
C598 C 0.80523 0.5593 0.36677 0.0
C599 C 0.78838 0.53343 0.29807 0.0
C600 C 0.83562 0.49127 0.33865 0.0
C601 C 0.85211 0.51641 0.41174 0.0
N602 N 0.84752 0.57242 0.51223 0.0
N603 N 0.78177 0.47232 0.24431 0.0
C604 C 0.83547 0.5499 0.4309 0.0
C605 C 0.80154 0.49844 0.29408 0.0
N606 N 0.79319 0.59348 0.36622 0.0
N607 N 0.85356 0.46149 0.30547 0.0
H608 H 0.75682 0.47737 0.2108 0.0
H609 H 0.78835 0.44548 0.2471 0.0
H610 H 0.87976 0.45663 0.32819 0.0
H611 H 0.84409 0.44382 0.24514 0.0
H612 H 0.80713 0.61487 0.40071 0.0
H613 H 0.76983 0.60056 0.32591 0.0
H614 H 0.83382 0.59496 0.53857 0.0
H615 H 0.86983 0.56746 0.55952 0.0
loop_
_geom_bond_atom_site_label_1
_geom_bond_atom_site_label_2
_geom_bond_distance
_geom_bond_site_symmetry_2
_ccdc_geom_bond_type
H0 C7 0.929 . S
H1 C10 0.930 . S
H2 C12 0.929 . S
H3 C4 0.969 . S
C4 H3 0.969 . S
C4 O5 1.550 1_556 S
C4 H6 0.973 . S
O5 C4 1.550 1_554 S
O5 C11 1.412 . S
H6 C4 0.973 . S
C7 H0 0.929 . S
C7 C8 1.400 . S
C7 C9 1.364 1_554 S
C8 C7 1.400 . S
C8 C12 1.377 . S
C9 C7 1.364 1_556 S
C9 C10 1.374 . S
C10 H1 0.930 . S
C10 C9 1.374 . S
C10 C11 1.383 1_556 S
C11 O5 1.412 . S
C11 C10 1.383 1_554 S
C11 C12 1.394 . S
C12 H2 0.929 . S
C12 C8 1.377 . S
C12 C11 1.394 . S
H13 C20 0.928 1_655 S
H14 C23 0.931 . S
H15 C25 0.928 1_655 S
H16 C17 0.969 . S
C17 H16 0.969 . S
C17 O18 1.550 1_456 S
C17 H19 0.973 1_455 S
O18 C17 1.550 1_654 S
O18 C24 1.404 1_655 S
H19 C17 0.973 1_655 S
C20 H13 0.928 1_455 S
C20 C21 1.399 . S
C20 C22 1.364 1_554 S
C21 C20 1.399 . S
C21 C25 1.377 . S
C22 C20 1.364 1_556 S
C22 C23 1.374 1_455 S
C23 H14 0.931 . S
C23 C22 1.374 1_655 S
C23 C24 1.382 1_656 S
C24 O18 1.404 1_455 S
C24 C23 1.382 1_454 S
C24 C25 1.394 . S
C25 H15 0.928 1_455 S
C25 C21 1.377 . S
C25 C24 1.394 . S
H26 C33 0.929 . S
H27 C36 0.930 . S
H28 C38 0.929 . S
H29 C30 0.969 . S
C30 H29 0.969 . S
C30 O31 1.550 1_556 S
C30 H32 0.973 . S
O31 C30 1.550 1_554 S
O31 C37 1.412 . S
H32 C30 0.973 . S
C33 H26 0.929 . S
C33 C34 1.400 . S
C33 C35 1.364 1_554 S
C34 C33 1.400 . S
C34 C38 1.377 . S
C35 C33 1.364 1_556 S
C35 C36 1.374 . S
C36 H27 0.930 . S
C36 C35 1.374 . S
C36 C37 1.383 1_556 S
C37 O31 1.412 . S
C37 C36 1.383 1_554 S
C37 C38 1.394 . S
C38 H28 0.929 . S
C38 C34 1.377 . S
C38 C37 1.394 . S
H39 C46 0.929 . S
H40 C49 0.930 . S
H41 C51 0.929 . S
H42 C43 0.969 . S
C43 H42 0.969 . S
C43 O44 1.550 1_556 S
C43 H45 0.973 . S
O44 C43 1.550 1_554 S
O44 C50 1.412 . S
H45 C43 0.973 . S
C46 H39 0.929 . S
C46 C47 1.400 . S
C46 C48 1.364 1_554 S
C47 C46 1.400 . S
C47 C51 1.377 . S
C48 C46 1.364 1_556 S
C48 C49 1.374 . S
C49 H40 0.930 . S
C49 C48 1.374 . S
C49 C50 1.383 1_556 S
C50 O44 1.412 . S
C50 C49 1.383 1_554 S
C50 C51 1.394 . S
C51 H41 0.929 . S
C51 C47 1.377 . S
C51 C50 1.394 . S
H52 C59 0.929 . S
H53 C62 0.930 . S
H54 C64 0.929 . S
H55 C56 0.969 . S
C56 H55 0.969 . S
C56 O57 1.550 . S
C56 H58 0.973 . S
O57 C56 1.550 . S
O57 C63 1.412 . S
H58 C56 0.973 . S
C59 H52 0.929 . S
C59 C60 1.400 . S
C59 C61 1.364 . S
C60 C59 1.400 . S
C60 C64 1.377 . S
C61 C59 1.364 . S
C61 C62 1.374 . S
C62 H53 0.930 . S
C62 C61 1.374 . S
C62 C63 1.383 . S
C63 O57 1.412 . S
C63 C62 1.383 . S
C63 C64 1.394 . S
C64 H54 0.929 . S
C64 C60 1.377 . S
C64 C63 1.394 . S
H65 C72 0.928 1_655 S
H66 C75 0.930 . S
H67 C77 0.928 1_655 S
H68 C69 0.969 . S
C69 H68 0.969 . S
C69 O70 1.550 1_455 S
C69 H71 0.973 1_455 S
O70 C69 1.550 1_655 S
O70 C76 1.412 1_655 S
H71 C69 0.973 1_655 S
C72 H65 0.928 1_455 S
C72 C73 1.400 . S
C72 C74 1.364 . S
C73 C72 1.400 . S
C73 C77 1.377 . S
C74 C72 1.364 . S
C74 C75 1.374 1_455 S
C75 H66 0.930 . S
C75 C74 1.374 1_655 S
C75 C76 1.383 1_655 S
C76 O70 1.412 1_455 S
C76 C75 1.383 1_455 S
C76 C77 1.395 . S
C77 H67 0.928 1_455 S
C77 C73 1.377 . S
C77 C76 1.395 . S
H78 C85 0.929 . S
H79 C88 0.930 . S
H80 C90 0.929 . S
H81 C82 0.969 . S
C82 H81 0.969 . S
C82 O83 1.550 . S
C82 H84 0.973 . S
O83 C82 1.550 . S
O83 C89 1.412 . S
H84 C82 0.973 . S
C85 H78 0.929 . S
C85 C86 1.400 . S
C85 C87 1.364 . S
C86 C85 1.400 . S
C86 C90 1.377 . S
C87 C85 1.364 . S
C87 C88 1.374 . S
C88 H79 0.930 . S
C88 C87 1.374 . S
C88 C89 1.383 . S
C89 O83 1.412 . S
C89 C88 1.383 . S
C89 C90 1.394 . S
C90 H80 0.929 . S
C90 C86 1.377 . S
C90 C89 1.394 . S
H91 C98 0.929 . S
H92 C101 0.930 . S
H93 C103 0.929 . S
H94 C95 0.969 . S
C95 H94 0.969 . S
C95 O96 1.550 . S
C95 H97 0.973 . S
O96 C95 1.550 . S
O96 C102 1.412 . S
H97 C95 0.973 . S
C98 H91 0.929 . S
C98 C99 1.400 . S
C98 C100 1.364 . S
C99 C98 1.400 . S
C99 C103 1.377 . S
C100 C98 1.364 . S
C100 C101 1.374 . S
C101 H92 0.930 . S
C101 C100 1.374 . S
C101 C102 1.383 . S
C102 O96 1.412 . S
C102 C101 1.383 . S
C102 C103 1.394 . S
C103 H93 0.929 . S
C103 C99 1.377 . S
C103 C102 1.394 . S
Zn104 O110 1.969 . S
Zn104 O111 1.965 1_655 S
Zn104 O115 2.024 1_655 S
Zn104 O120 1.969 . S
Zn105 O112 1.969 . S
Zn105 O118 1.969 . S
Zn105 O119 1.965 1_455 S
Zn105 O121 2.024 1_455 S
C106 O107 1.229 1_455 S
C106 O115 1.058 . S
O107 C106 1.229 1_655 S
C108 O109 1.229 1_655 S
C108 O121 1.058 . S
O109 C108 1.229 1_455 S
O110 Zn104 1.969 . S
O110 C113 1.267 . S
O111 Zn104 1.965 1_455 S
O111 C122 1.260 . S
O112 Zn105 1.969 . S
O112 C122 1.258 1_565 S
C113 O110 1.267 . S
C113 O114 1.228 1_655 S
O114 C113 1.228 1_455 S
O115 Zn104 2.024 1_455 S
O115 C106 1.058 . S
C116 O117 1.228 1_455 S
C116 O118 1.267 . S
O117 C116 1.228 1_655 S
O118 Zn105 1.969 . S
O118 C116 1.267 . S
O119 Zn105 1.965 1_655 S
O119 C123 1.260 1_565 S
O120 Zn104 1.969 . S
O120 C123 1.258 . S
O121 Zn105 2.024 1_655 S
O121 C108 1.058 . S
C122 O111 1.260 . S
C122 O112 1.258 1_545 S
C123 O119 1.260 1_545 S
C123 O120 1.258 . S
Zn124 O130 1.969 1_545 S
Zn124 O131 1.965 . S
Zn124 O135 2.024 . S
Zn124 O140 1.969 1_545 S
Zn125 O132 1.989 . S
Zn125 O138 1.978 . S
Zn125 O139 1.955 1_545 S
Zn125 O141 2.011 1_545 S
C126 O127 1.229 . S
C126 O135 1.058 . S
O127 C126 1.229 . S
C128 O129 1.229 1_565 S
C128 O141 1.058 . S
O129 C128 1.229 1_545 S
O130 Zn124 1.969 1_565 S
O130 C133 1.267 1_565 S
O131 Zn124 1.965 . S
O131 C142 1.260 . S
O132 Zn125 1.989 . S
O132 C142 1.258 . S
C133 O130 1.267 1_545 S
C133 O134 1.228 . S
O134 C133 1.228 . S
O135 Zn124 2.024 . S
O135 C126 1.058 . S
C136 O137 1.228 . S
C136 O138 1.267 1_565 S
O137 C136 1.228 . S
O138 Zn125 1.978 . S
O138 C136 1.267 1_545 S
O139 Zn125 1.955 1_565 S
O139 C143 1.260 . S
O140 Zn124 1.969 1_565 S
O140 C143 1.258 . S
O141 Zn125 2.011 1_565 S
O141 C128 1.058 . S
C142 O131 1.260 . S
C142 O132 1.258 . S
C143 O139 1.260 . S
C143 O140 1.258 . S
Zn144 O150 1.969 . S
Zn144 O151 1.965 . S
Zn144 O155 2.024 . S
Zn144 O160 1.969 . S
Zn145 O152 1.969 . S
Zn145 O158 1.969 . S
Zn145 O159 1.965 . S
Zn145 O161 2.024 . S
C146 O147 1.229 . S
C146 O155 1.058 . S
O147 C146 1.229 . S
C148 O149 1.229 . S
C148 O161 1.058 . S
O149 C148 1.229 . S
O150 Zn144 1.969 . S
O150 C153 1.267 . S
O151 Zn144 1.965 . S
O151 C162 1.260 . S
O152 Zn145 1.969 . S
O152 C162 1.258 . S
C153 O150 1.267 . S
C153 O154 1.228 . S
O154 C153 1.228 . S
O155 Zn144 2.024 . S
O155 C146 1.058 . S
C156 O157 1.228 . S
C156 O158 1.267 . S
O157 C156 1.228 . S
O158 Zn145 1.969 . S
O158 C156 1.267 . S
O159 Zn145 1.965 . S
O159 C163 1.260 . S
O160 Zn144 1.969 . S
O160 C163 1.258 . S
O161 Zn145 2.024 . S
O161 C148 1.058 . S
C162 O151 1.260 . S
C162 O152 1.258 . S
C163 O159 1.260 . S
C163 O160 1.258 . S
Zn164 O170 1.969 . S
Zn164 O171 1.965 . S
Zn164 O175 2.024 . S
Zn164 O180 1.969 . S
Zn165 O172 1.969 . S
Zn165 O178 1.969 . S
Zn165 O179 1.965 . S
Zn165 O181 2.024 . S
C166 O167 1.229 . S
C166 O175 1.058 . S
O167 C166 1.229 . S
C168 O169 1.229 . S
C168 O181 1.058 . S
O169 C168 1.229 . S
O170 Zn164 1.969 . S
O170 C173 1.267 . S
O171 Zn164 1.965 . S
O171 C182 1.260 1_455 S
O172 Zn165 1.969 . S
O172 C182 1.258 . S
C173 O170 1.267 . S
C173 O174 1.228 . S
O174 C173 1.228 . S
O175 Zn164 2.024 . S
O175 C166 1.058 . S
C176 O177 1.228 . S
C176 O178 1.267 . S
O177 C176 1.228 . S
O178 Zn165 1.969 . S
O178 C176 1.267 . S
O179 Zn165 1.965 . S
O179 C183 1.260 1_655 S
O180 Zn164 1.969 . S
O180 C183 1.258 . S
O181 Zn165 2.024 . S
O181 C168 1.058 . S
C182 O171 1.260 1_655 S
C182 O172 1.258 . S
C183 O179 1.260 1_455 S
C183 O180 1.258 . S
C184 C185 1.363 . S
C184 C190 1.379 . S
C184 N192 1.356 . S
C185 C184 1.363 . S
C185 C191 1.363 . S
C186 C187 1.363 1_565 S
C186 C191 1.379 1_565 S
C186 N193 1.356 . S
C187 C186 1.363 1_545 S
C187 C190 1.363 . S
N188 C190 1.356 . S
N188 H200 0.984 . S
N188 H201 0.985 . S
N189 C191 1.356 1_565 S
N189 H194 0.984 1_565 S
N189 H195 0.985 . S
C190 C184 1.379 . S
C190 C187 1.363 . S
C190 N188 1.356 . S
C191 C185 1.363 . S
C191 C186 1.379 1_545 S
C191 N189 1.356 1_545 S
N192 C184 1.356 . S
N192 H198 0.984 . S
N192 H199 0.984 . S
N193 C186 1.356 . S
N193 H196 0.984 . S
N193 H197 0.985 . S
H194 N189 0.984 1_545 S
H195 N189 0.985 . S
H196 N193 0.984 . S
H197 N193 0.985 . S
H198 N192 0.984 . S
H199 N192 0.984 . S
H200 N188 0.984 . S
H201 N188 0.985 . S
C202 C203 1.363 . S
C202 C208 1.379 . S
C202 N210 1.356 . S
C203 C202 1.363 . S
C203 C209 1.363 . S
C204 C205 1.363 . S
C204 C209 1.379 . S
C204 N211 1.356 . S
C205 C204 1.363 . S
C205 C208 1.363 . S
N206 C208 1.356 . S
N206 H218 0.984 . S
N206 H219 0.985 . S
N207 C209 1.356 . S
N207 H212 0.984 . S
N207 H213 0.985 . S
C208 C202 1.379 . S
C208 C205 1.363 . S
C208 N206 1.356 . S
C209 C203 1.363 . S
C209 C204 1.379 . S
C209 N207 1.356 . S
N210 C202 1.356 . S
N210 H216 0.984 . S
N210 H217 0.984 . S
N211 C204 1.356 . S
N211 H214 0.984 . S
N211 H215 0.985 . S
H212 N207 0.984 . S
H213 N207 0.985 . S
H214 N211 0.984 . S
H215 N211 0.985 . S
H216 N210 0.984 . S
H217 N210 0.984 . S
H218 N206 0.984 . S
H219 N206 0.985 . S
C220 C221 1.363 . S
C220 C226 1.379 . S
C220 N228 1.356 . S
C221 C220 1.363 . S
C221 C227 1.363 . S
C222 C223 1.363 . S
C222 C227 1.379 . S
C222 N229 1.356 . S
C223 C222 1.363 . S
C223 C226 1.363 . S
N224 C226 1.356 . S
N224 H236 0.984 . S
N224 H237 0.985 . S
N225 C227 1.356 . S
N225 H230 0.984 . S
N225 H231 0.985 . S
C226 C220 1.379 . S
C226 C223 1.363 . S
C226 N224 1.356 . S
C227 C221 1.363 . S
C227 C222 1.379 . S
C227 N225 1.356 . S
N228 C220 1.356 . S
N228 H234 0.984 . S
N228 H235 0.984 . S
N229 C222 1.356 . S
N229 H232 0.984 . S
N229 H233 0.985 . S
H230 N225 0.984 . S
H231 N225 0.985 . S
H232 N229 0.984 . S
H233 N229 0.985 . S
H234 N228 0.984 . S
H235 N228 0.984 . S
H236 N224 0.984 . S
H237 N224 0.985 . S
C238 C239 1.369 . S
C238 C244 1.379 . S
C238 N246 1.356 . S
C239 C238 1.369 . S
C239 C245 1.357 1_655 S
C240 C241 1.363 1_455 S
C240 C245 1.379 . S
C240 N247 1.356 . S
C241 C240 1.363 1_655 S
C241 C244 1.363 . S
N242 C244 1.356 . S
N242 H254 0.984 . S
N242 H255 0.985 . S
N243 C245 1.356 . S
N243 H248 0.984 . S
N243 H249 0.985 . S
C244 C238 1.379 . S
C244 C241 1.363 . S
C244 N242 1.356 . S
C245 C239 1.357 1_455 S
C245 C240 1.379 . S
C245 N243 1.356 . S
N246 C238 1.356 . S
N246 H252 0.984 . S
N246 H253 0.984 . S
N247 C240 1.356 . S
N247 H250 0.984 . S
N247 H251 0.985 . S
H248 N243 0.984 . S
H249 N243 0.985 . S
H250 N247 0.984 . S
H251 N247 0.985 . S
H252 N246 0.984 . S
H253 N246 0.984 . S
H254 N242 0.984 . S
H255 N242 0.985 . S
C256 C257 1.363 1_545 S
C256 C262 1.379 . S
C256 N264 1.356 . S
C257 C256 1.363 1_565 S
C257 C263 1.363 . S
C258 C259 1.363 . S
C258 C263 1.379 . S
C258 N265 1.356 . S
C259 C258 1.363 . S
C259 C262 1.363 1_565 S
N260 C262 1.356 . S
N260 H272 0.984 . S
N260 H273 0.985 . S
N261 C263 1.356 . S
N261 H266 0.984 . S
N261 H267 0.985 . S
C262 C256 1.379 . S
C262 C259 1.363 1_545 S
C262 N260 1.356 . S
C263 C257 1.363 . S
C263 C258 1.379 . S
C263 N261 1.356 . S
N264 C256 1.356 . S
N264 H270 0.984 . S
N264 H271 0.984 1_556 S
N265 C258 1.356 . S
N265 H268 0.984 . S
N265 H269 0.985 . S
H266 N261 0.984 . S
H267 N261 0.985 . S
H268 N265 0.984 . S
H269 N265 0.985 . S
H270 N264 0.984 . S
H271 N264 0.984 1_554 S
H272 N260 0.984 . S
H273 N260 0.985 . S
C274 C275 1.363 . S
C274 C280 1.379 . S
C274 N282 1.356 1_556 S
C275 C274 1.363 . S
C275 C281 1.363 . S
C276 C277 1.363 . S
C276 C281 1.379 . S
C276 N283 1.356 . S
C277 C276 1.363 . S
C277 C280 1.363 . S
N278 C280 1.356 . S
N278 H290 0.984 . S
N278 H291 0.985 . S
N279 C281 1.356 . S
N279 H284 0.984 . S
N279 H285 0.985 . S
C280 C274 1.379 . S
C280 C277 1.363 . S
C280 N278 1.356 . S
C281 C275 1.363 . S
C281 C276 1.379 . S
C281 N279 1.356 . S
N282 C274 1.356 1_554 S
N282 H288 0.984 . S
N282 H289 0.984 . S
N283 C276 1.356 . S
N283 H286 0.984 . S
N283 H287 0.985 . S
H284 N279 0.984 . S
H285 N279 0.985 . S
H286 N283 0.984 . S
H287 N283 0.985 . S
H288 N282 0.984 . S
H289 N282 0.984 . S
H290 N278 0.984 . S
H291 N278 0.985 . S
C292 C293 1.363 . S
C292 C298 1.379 . S
C292 N300 1.356 . S
C293 C292 1.363 . S
C293 C299 1.363 . S
C294 C295 1.363 . S
C294 C299 1.379 . S
C294 N301 1.356 . S
C295 C294 1.363 . S
C295 C298 1.363 . S
N296 C298 1.356 . S
N296 H308 0.984 . S
N296 H309 0.985 . S
N297 C299 1.356 . S
N297 H302 0.984 . S
N297 H303 0.985 . S
C298 C292 1.379 . S
C298 C295 1.363 . S
C298 N296 1.356 . S
C299 C293 1.363 . S
C299 C294 1.379 . S
C299 N297 1.356 . S
N300 C292 1.356 . S
N300 H306 0.984 . S
N300 H307 0.984 . S
N301 C294 1.356 . S
N301 H304 0.984 . S
N301 H305 0.985 . S
H302 N297 0.984 . S
H303 N297 0.985 . S
H304 N301 0.984 . S
H305 N301 0.985 . S
H306 N300 0.984 . S
H307 N300 0.984 . S
H308 N296 0.984 . S
H309 N296 0.985 . S
C310 C311 1.361 1_655 S
C310 C316 1.379 . S
C310 N318 1.356 . S
C311 C310 1.361 1_455 S
C311 C317 1.366 . S
C312 C313 1.363 . S
C312 C317 1.379 . S
C312 N319 1.356 . S
C313 C312 1.363 . S
C313 C316 1.363 1_455 S
N314 C316 1.356 . S
N314 H326 0.984 . S
N314 H327 0.985 . S
N315 C317 1.356 1_554 S
N315 H320 0.984 . S
N315 H321 0.985 . S
C316 C310 1.379 . S
C316 C313 1.363 1_655 S
C316 N314 1.356 . S
C317 C311 1.366 . S
C317 C312 1.379 . S
C317 N315 1.356 1_556 S
N318 C310 1.356 . S
N318 H324 0.984 . S
N318 H325 0.984 . S
N319 C312 1.356 . S
N319 H322 0.984 . S
N319 H323 0.985 . S
H320 N315 0.984 . S
H321 N315 0.985 . S
H322 N319 0.984 . S
H323 N319 0.985 . S
H324 N318 0.984 . S
H325 N318 0.984 . S
H326 N314 0.984 . S
H327 N314 0.985 . S
C328 C329 1.363 1_455 S
C328 C334 1.379 . S
C328 N336 1.356 . S
C329 C328 1.363 1_655 S
C329 C335 1.363 . S
C330 C331 1.363 . S
C330 C335 1.379 . S
C330 N337 1.356 . S
C331 C330 1.363 . S
C331 C334 1.363 1_655 S
N332 C334 1.356 . S
N332 H344 0.984 . S
N332 H345 0.985 . S
N333 C335 1.356 . S
N333 H338 0.984 . S
N333 H339 0.985 . S
C334 C328 1.379 . S
C334 C331 1.363 1_455 S
C334 N332 1.356 . S
C335 C329 1.363 . S
C335 C330 1.379 . S
C335 N333 1.356 . S
N336 C328 1.356 . S
N336 H342 0.984 . S
N336 H343 0.984 . S
N337 C330 1.356 . S
N337 H340 0.984 . S
N337 H341 0.985 . S
H338 N333 0.984 . S
H339 N333 0.985 . S
H340 N337 0.984 . S
H341 N337 0.985 . S
H342 N336 0.984 . S
H343 N336 0.984 . S
H344 N332 0.984 . S
H345 N332 0.985 . S
C346 C347 1.363 . S
C346 C352 1.379 . S
C346 N354 1.356 . S
C347 C346 1.363 . S
C347 C353 1.363 . S
C348 C349 1.363 1_565 S
C348 C353 1.379 1_565 S
C348 N355 1.356 . S
C349 C348 1.363 1_545 S
C349 C352 1.363 . S
N350 C352 1.356 . S
N350 H362 0.984 . S
N350 H363 0.985 . S
N351 C353 1.356 . S
N351 H356 0.984 . S
N351 H357 0.985 1_545 S
C352 C346 1.379 . S
C352 C349 1.363 . S
C352 N350 1.356 . S
C353 C347 1.363 . S
C353 C348 1.379 1_545 S
C353 N351 1.356 . S
N354 C346 1.356 . S
N354 H360 0.984 . S
N354 H361 0.984 . S
N355 C348 1.356 . S
N355 H358 0.984 . S
N355 H359 0.985 . S
H356 N351 0.984 . S
H357 N351 0.985 1_565 S
H358 N355 0.984 . S
H359 N355 0.985 . S
H360 N354 0.984 . S
H361 N354 0.984 . S
H362 N350 0.984 . S
H363 N350 0.985 . S
C364 C365 1.363 . S
C364 C370 1.379 . S
C364 N372 1.356 . S
C365 C364 1.363 . S
C365 C371 1.363 . S
C366 C367 1.363 . S
C366 C371 1.379 . S
C366 N373 1.356 . S
C367 C366 1.363 . S
C367 C370 1.363 . S
N368 C370 1.356 . S
N368 H380 0.984 . S
N368 H381 0.985 . S
N369 C371 1.356 . S
N369 H374 0.984 . S
N369 H375 0.985 . S
C370 C364 1.379 . S
C370 C367 1.363 . S
C370 N368 1.356 . S
C371 C365 1.363 . S
C371 C366 1.379 . S
C371 N369 1.356 . S
N372 C364 1.356 . S
N372 H378 0.984 . S
N372 H379 0.984 . S
N373 C366 1.356 . S
N373 H376 0.984 . S
N373 H377 0.985 . S
H374 N369 0.984 . S
H375 N369 0.985 . S
H376 N373 0.984 . S
H377 N373 0.985 . S
H378 N372 0.984 . S
H379 N372 0.984 . S
H380 N368 0.984 . S
H381 N368 0.985 . S
C382 C383 1.363 . S
C382 C388 1.379 . S
C382 N390 1.356 . S
C383 C382 1.363 . S
C383 C389 1.363 . S
C384 C385 1.363 . S
C384 C389 1.379 . S
C384 N391 1.356 . S
C385 C384 1.363 . S
C385 C388 1.363 . S
N386 C388 1.356 . S
N386 H398 0.984 . S
N386 H399 0.985 . S
N387 C389 1.356 . S
N387 H392 0.984 . S
N387 H393 0.985 . S
C388 C382 1.379 . S
C388 C385 1.363 . S
C388 N386 1.356 . S
C389 C383 1.363 . S
C389 C384 1.379 . S
C389 N387 1.356 . S
N390 C382 1.356 . S
N390 H396 0.984 . S
N390 H397 0.984 . S
N391 C384 1.356 . S
N391 H394 0.984 . S
N391 H395 0.985 . S
H392 N387 0.984 . S
H393 N387 0.985 . S
H394 N391 0.984 . S
H395 N391 0.985 . S
H396 N390 0.984 . S
H397 N390 0.984 . S
H398 N386 0.984 . S
H399 N386 0.985 . S
C400 C401 1.363 1_655 S
C400 C406 1.379 . S
C400 N408 1.356 1_556 S
C401 C400 1.363 1_455 S
C401 C407 1.363 . S
C402 C403 1.363 . S
C402 C407 1.379 . S
C402 N409 1.356 . S
C403 C402 1.363 . S
C403 C406 1.363 1_455 S
N404 C406 1.356 . S
N404 H416 0.984 1_556 S
N404 H417 0.985 . S
N405 C407 1.356 . S
N405 H410 0.984 . S
N405 H411 0.985 . S
C406 C400 1.379 . S
C406 C403 1.363 1_655 S
C406 N404 1.356 . S
C407 C401 1.363 . S
C407 C402 1.379 . S
C407 N405 1.356 . S
N408 C400 1.356 1_554 S
N408 H414 0.984 . S
N408 H415 0.984 . S
N409 C402 1.356 . S
N409 H412 0.984 . S
N409 H413 0.985 . S
H410 N405 0.984 . S
H411 N405 0.985 . S
H412 N409 0.984 . S
H413 N409 0.985 . S
H414 N408 0.984 . S
H415 N408 0.984 . S
H416 N404 0.984 1_554 S
H417 N404 0.985 . S
C418 C419 1.363 . S
C418 C424 1.379 . S
C418 N426 1.356 . S
C419 C418 1.363 . S
C419 C425 1.363 . S
C420 C421 1.363 . S
C420 C425 1.379 . S
C420 N427 1.356 1_565 S
C421 C420 1.363 . S
C421 C424 1.363 . S
N422 C424 1.356 . S
N422 H434 0.984 . S
N422 H435 0.985 . S
N423 C425 1.356 1_554 S
N423 H428 0.984 . S
N423 H429 0.985 . S
C424 C418 1.379 . S
C424 C421 1.363 . S
C424 N422 1.356 . S
C425 C419 1.363 . S
C425 C420 1.379 . S
C425 N423 1.356 1_556 S
N426 C418 1.356 . S
N426 H432 0.984 . S
N426 H433 0.984 . S
N427 C420 1.356 1_545 S
N427 H430 0.984 . S
N427 H431 0.985 1_556 S
H428 N423 0.984 . S
H429 N423 0.985 . S
H430 N427 0.984 . S
H431 N427 0.985 1_554 S
H432 N426 0.984 . S
H433 N426 0.984 . S
H434 N422 0.984 . S
H435 N422 0.985 . S
C436 C437 1.363 . S
C436 C442 1.379 . S
C436 N444 1.356 . S
C437 C436 1.363 . S
C437 C443 1.363 . S
C438 C439 1.363 . S
C438 C443 1.379 . S
C438 N445 1.356 . S
C439 C438 1.363 . S
C439 C442 1.363 . S
N440 C442 1.356 . S
N440 H452 0.984 . S
N440 H453 0.985 . S
N441 C443 1.356 1_554 S
N441 H446 0.984 . S
N441 H447 0.985 . S
C442 C436 1.379 . S
C442 C439 1.363 . S
C442 N440 1.356 . S
C443 C437 1.363 . S
C443 C438 1.379 . S
C443 N441 1.356 1_556 S
N444 C436 1.356 . S
N444 H450 0.984 . S
N444 H451 0.984 . S
N445 C438 1.356 . S
N445 H448 0.984 . S
N445 H449 0.985 . S
H446 N441 0.984 . S
H447 N441 0.985 . S
H448 N445 0.984 . S
H449 N445 0.985 . S
H450 N444 0.984 . S
H451 N444 0.984 . S
H452 N440 0.984 . S
H453 N440 0.985 . S
C454 C455 1.363 . S
C454 C460 1.379 . S
C454 N462 1.356 1_556 S
C455 C454 1.363 . S
C455 C461 1.363 . S
C456 C457 1.363 . S
C456 C461 1.379 . S
C456 N463 1.356 . S
C457 C456 1.363 . S
C457 C460 1.363 . S
N458 C460 1.356 . S
N458 H470 0.984 1_556 S
N458 H471 0.985 . S
N459 C461 1.356 . S
N459 H464 0.984 . S
N459 H465 0.985 . S
C460 C454 1.379 . S
C460 C457 1.363 . S
C460 N458 1.356 . S
C461 C455 1.363 . S
C461 C456 1.379 . S
C461 N459 1.356 . S
N462 C454 1.356 1_554 S
N462 H468 0.984 . S
N462 H469 0.984 . S
N463 C456 1.356 . S
N463 H466 0.984 . S
N463 H467 0.985 . S
H464 N459 0.984 . S
H465 N459 0.985 . S
H466 N463 0.984 . S
H467 N463 0.985 . S
H468 N462 0.984 . S
H469 N462 0.984 . S
H470 N458 0.984 1_554 S
H471 N458 0.985 . S
C472 C473 1.363 1_554 S
C472 C478 1.379 1_554 S
C472 N480 1.356 . S
C473 C472 1.363 1_556 S
C473 C479 1.363 1_455 S
C474 C475 1.363 1_655 S
C474 C479 1.379 . S
C474 N481 1.356 . S
C475 C474 1.363 1_455 S
C475 C478 1.363 . S
N476 C478 1.356 1_554 S
N476 H488 0.984 . S
N476 H489 0.985 1_554 S
N477 C479 1.356 . S
N477 H482 0.984 . S
N477 H483 0.985 . S
C478 C472 1.379 1_556 S
C478 C475 1.363 . S
C478 N476 1.356 1_556 S
C479 C473 1.363 1_655 S
C479 C474 1.379 . S
C479 N477 1.356 . S
N480 C472 1.356 . S
N480 H486 0.984 . S
N480 H487 0.984 . S
N481 C474 1.356 . S
N481 H484 0.984 . S
N481 H485 0.985 . S
H482 N477 0.984 . S
H483 N477 0.985 . S
H484 N481 0.984 . S
H485 N481 0.985 . S
H486 N480 0.984 . S
H487 N480 0.984 . S
H488 N476 0.984 . S
H489 N476 0.985 1_556 S
C490 C491 1.363 . S
C490 C496 1.379 . S
C490 N498 1.356 . S
C491 C490 1.363 . S
C491 C497 1.363 1_556 S
C492 C493 1.363 . S
C492 C497 1.379 1_556 S
C492 N499 1.356 1_545 S
C493 C492 1.363 . S
C493 C496 1.363 . S
N494 C496 1.356 . S
N494 H506 0.984 . S
N494 H507 0.985 . S
N495 C497 1.356 . S
N495 H500 0.984 . S
N495 H501 0.985 1_545 S
C496 C490 1.379 . S
C496 C493 1.363 . S
C496 N494 1.356 . S
C497 C491 1.363 1_554 S
C497 C492 1.379 1_554 S
C497 N495 1.356 . S
N498 C490 1.356 . S
N498 H504 0.984 . S
N498 H505 0.984 . S
N499 C492 1.356 1_565 S
N499 H502 0.984 1_565 S
N499 H503 0.985 1_556 S
H500 N495 0.984 . S
H501 N495 0.985 1_565 S
H502 N499 0.984 1_545 S
H503 N499 0.985 1_554 S
H504 N498 0.984 . S
H505 N498 0.984 . S
H506 N494 0.984 . S
H507 N494 0.985 . S
C508 C509 1.363 . S
C508 C514 1.379 . S
C508 N516 1.356 . S
C509 C508 1.363 . S
C509 C515 1.363 1_556 S
C510 C511 1.363 . S
C510 C515 1.379 1_556 S
C510 N517 1.356 . S
C511 C510 1.363 . S
C511 C514 1.363 . S
N512 C514 1.356 . S
N512 H524 0.984 . S
N512 H525 0.985 . S
N513 C515 1.356 . S
N513 H518 0.984 . S
N513 H519 0.985 . S
C514 C508 1.379 . S
C514 C511 1.363 . S
C514 N512 1.356 . S
C515 C509 1.363 1_554 S
C515 C510 1.379 1_554 S
C515 N513 1.356 . S
N516 C508 1.356 . S
N516 H522 0.984 . S
N516 H523 0.984 . S
N517 C510 1.356 . S
N517 H520 0.984 . S
N517 H521 0.985 1_556 S
H518 N513 0.984 . S
H519 N513 0.985 . S
H520 N517 0.984 . S
H521 N517 0.985 1_554 S
H522 N516 0.984 . S
H523 N516 0.984 . S
H524 N512 0.984 . S
H525 N512 0.985 . S
C526 C527 1.363 . S
C526 C532 1.379 . S
C526 N534 1.356 . S
C527 C526 1.363 . S
C527 C533 1.363 1_556 S
C528 C529 1.363 . S
C528 C533 1.379 1_556 S
C528 N535 1.356 . S
C529 C528 1.363 . S
C529 C532 1.363 . S
N530 C532 1.356 . S
N530 H542 0.984 . S
N530 H543 0.985 . S
N531 C533 1.356 . S
N531 H536 0.984 . S
N531 H537 0.985 . S
C532 C526 1.379 . S
C532 C529 1.363 . S
C532 N530 1.356 . S
C533 C527 1.363 1_554 S
C533 C528 1.379 1_554 S
C533 N531 1.356 . S
N534 C526 1.356 . S
N534 H540 0.984 . S
N534 H541 0.984 . S
N535 C528 1.356 . S
N535 H538 0.984 . S
N535 H539 0.985 1_556 S
H536 N531 0.984 . S
H537 N531 0.985 . S
H538 N535 0.984 . S
H539 N535 0.985 1_554 S
H540 N534 0.984 . S
H541 N534 0.984 . S
H542 N530 0.984 . S
H543 N530 0.985 . S
C544 C545 1.363 . S
C544 C550 1.379 . S
C544 N552 1.356 . S
C545 C544 1.363 . S
C545 C551 1.363 1_655 S
C546 C547 1.363 1_455 S
C546 C551 1.379 . S
C546 N553 1.356 . S
C547 C546 1.363 1_655 S
C547 C550 1.363 . S
N548 C550 1.356 . S
N548 H560 0.984 . S
N548 H561 0.985 . S
N549 C551 1.356 . S
N549 H554 0.984 . S
N549 H555 0.985 . S
C550 C544 1.379 . S
C550 C547 1.363 . S
C550 N548 1.356 . S
C551 C545 1.363 1_455 S
C551 C546 1.379 . S
C551 N549 1.356 . S
N552 C544 1.356 . S
N552 H558 0.984 . S
N552 H559 0.984 . S
N553 C546 1.356 . S
N553 H556 0.984 . S
N553 H557 0.985 . S
H554 N549 0.984 . S
H555 N549 0.985 . S
H556 N553 0.984 . S
H557 N553 0.985 . S
H558 N552 0.984 . S
H559 N552 0.984 . S
H560 N548 0.984 . S
H561 N548 0.985 . S
C562 C563 1.363 . S
C562 C568 1.379 . S
C562 N570 1.356 . S
C563 C562 1.363 . S
C563 C569 1.363 . S
C564 C565 1.363 . S
C564 C569 1.379 . S
C564 N571 1.356 1_565 S
C565 C564 1.363 . S
C565 C568 1.363 . S
N566 C568 1.356 . S
N566 H578 0.984 . S
N566 H579 0.985 . S
N567 C569 1.356 1_545 S
N567 H572 0.984 1_545 S
N567 H573 0.985 . S
C568 C562 1.379 . S
C568 C565 1.363 . S
C568 N566 1.356 . S
C569 C563 1.363 . S
C569 C564 1.379 . S
C569 N567 1.356 1_565 S
N570 C562 1.356 . S
N570 H576 0.984 . S
N570 H577 0.984 . S
N571 C564 1.356 1_545 S
N571 H574 0.984 . S
N571 H575 0.985 . S
H572 N567 0.984 1_565 S
H573 N567 0.985 . S
H574 N571 0.984 . S
H575 N571 0.985 . S
H576 N570 0.984 . S
H577 N570 0.984 . S
H578 N566 0.984 . S
H579 N566 0.985 . S
C580 C581 1.363 . S
C580 C586 1.379 . S
C580 N588 1.356 . S
C581 C580 1.363 . S
C581 C587 1.363 . S
C582 C583 1.363 . S
C582 C587 1.379 . S
C582 N589 1.356 . S
C583 C582 1.363 . S
C583 C586 1.363 . S
N584 C586 1.356 . S
N584 H596 0.984 . S
N584 H597 0.985 . S
N585 C587 1.356 . S
N585 H590 0.984 . S
N585 H591 0.985 . S
C586 C580 1.379 . S
C586 C583 1.363 . S
C586 N584 1.356 . S
C587 C581 1.363 . S
C587 C582 1.379 . S
C587 N585 1.356 . S
N588 C580 1.356 . S
N588 H594 0.984 . S
N588 H595 0.984 . S
N589 C582 1.356 . S
N589 H592 0.984 . S
N589 H593 0.985 . S
H590 N585 0.984 . S
H591 N585 0.985 . S
H592 N589 0.984 . S
H593 N589 0.985 . S
H594 N588 0.984 . S
H595 N588 0.984 . S
H596 N584 0.984 . S
H597 N584 0.985 . S
C598 C599 1.363 . S
C598 C604 1.379 . S
C598 N606 1.356 . S
C599 C598 1.363 . S
C599 C605 1.363 . S
C600 C601 1.363 . S
C600 C605 1.379 . S
C600 N607 1.356 . S
C601 C600 1.363 . S
C601 C604 1.363 . S
N602 C604 1.356 . S
N602 H614 0.984 . S
N602 H615 0.985 . S
N603 C605 1.356 . S
N603 H608 0.984 . S
N603 H609 0.985 . S
C604 C598 1.379 . S
C604 C601 1.363 . S
C604 N602 1.356 . S
C605 C599 1.363 . S
C605 C600 1.379 . S
C605 N603 1.356 . S
N606 C598 1.356 . S
N606 H612 0.984 . S
N606 H613 0.984 . S
N607 C600 1.356 . S
N607 H610 0.984 . S
N607 H611 0.985 . S
H608 N603 0.984 . S
H609 N603 0.985 . S
H610 N607 0.984 . S
H611 N607 0.985 . S
H612 N606 0.984 . S
H613 N606 0.984 . S
H614 N602 0.984 . S
H615 N602 0.985 . S
C185 C82 1.481 . S
C187 C122 1.588 . S
C205 C142 1.506 . S
C203 C95 1.389 . S
C223 C162 1.589 . S
C221 C56 1.480 . S
C241 C182 1.508 . S
C239 C69 1.390 1_655 S
C259 C123 1.591 1_565 S
C257 C30 1.413 . S
C275 C43 1.387 . S
C277 C143 1.506 . S
C293 C4 1.409 . S
C295 C163 1.589 . S
C311 C17 1.388 . S
C313 C183 1.509 . S
C331 C113 0.995 . S
C329 C74 1.023 1_655 S
C349 C133 1.024 . S
C347 C87 1.056 . S
C367 C153 0.996 . S
C365 C100 1.024 . S
C383 C61 1.054 . S
C385 C173 1.019 . S
C401 C22 1.023 . S
C403 C116 0.993 . S
C421 C136 1.024 . S
C419 C35 1.053 . S
C439 C156 0.996 . S
C437 C48 1.023 . S
C455 C9 1.051 . S
C457 C176 1.024 . S
C473 C73 1.523 1_556 S
C475 C106 1.456 . S
C491 C86 1.551 1_556 S
C493 C126 1.489 . S
C511 C146 1.452 . S
C509 C99 1.519 1_556 S
C529 C166 1.492 . S
C527 C60 1.551 1_556 S
C545 C21 1.524 1_655 S
C547 C108 1.457 . S
C565 C128 1.489 . S
C563 C34 1.548 . S
C583 C148 1.452 . S
C581 C47 1.522 . S
C599 C8 1.551 . S
C601 C168 1.495 . S
