# Generated by pormake.
# Topology pts, (4,4)-cn, num edge types: 1
# Building blocks:
#     Node 0, Type 0, BuildingBlock: AZAVOO_clean_linker_0, # of connection points: 4
#     Node 1, Type 0, BuildingBlock: AZAVOO_clean_linker_0, # of connection points: 4
#     Node 2, Type 1, BuildingBlock: AZAVOO_clean_sbu_0, # of connection points: 4
#     Node 3, Type 1, BuildingBlock: AZAVOO_clean_sbu_0, # of connection points: 4
#     Edge 4, Type (0, 1), BuildingBlock: XIVTED_clean_linker_0, # of connection points: 2
#     Edge 5, Type (0, 1), BuildingBlock: XIVTED_clean_linker_0, # of connection points: 2
#     Edge 6, Type (0, 1), BuildingBlock: XIVTED_clean_linker_0, # of connection points: 2
#     Edge 7, Type (0, 1), BuildingBlock: XIVTED_clean_linker_0, # of connection points: 2
#     Edge 8, Type (0, 1), BuildingBlock: XIVTED_clean_linker_0, # of connection points: 2
#     Edge 9, Type (0, 1), BuildingBlock: XIVTED_clean_linker_0, # of connection points: 2
#     Edge 10, Type (0, 1), BuildingBlock: XIVTED_clean_linker_0, # of connection points: 2
#     Edge 11, Type (0, 1), BuildingBlock: XIVTED_clean_linker_0, # of connection points: 2
# Relax obj value: 0.120
# Max RMSD: 0.230
# Mean RMSD: 0.159
data_MOF--net-pts--node1-AZAVOO_clean_sbu_0--node2-AZAVOO_clean_linker_0--edge1-XIVTED_clean_linker_0
_symmetry_space_group_name_H-M    P1
_symmetry_Int_Tables_number       1
_symmetry_cell_setting            triclinic
loop_
_symmetry_equiv_pos_as_xyz
'x, y, z'
_cell_length_a     26.414542
_cell_length_b     27.162485
_cell_length_c     47.013881
_cell_angle_alpha  91.56938
_cell_angle_beta   98.478425
_cell_angle_gamma 89.757701
loop_
_atom_site_label
_atom_site_type_symbol
_atom_site_fract_x
_atom_site_fract_y
_atom_site_fract_z
_atom_type_partial_charge
H0 H 0.42004 0.16028 0.80532 0.0
H1 H 0.88116 0.96429 0.01286 0.0
H2 H 0.44348 0.13893 0.95708 0.0
H3 H 0.35907 0.14135 0.9276 0.0
H4 H 0.34398 0.9844 0.93616 0.0
H5 H 0.4286 0.9822 0.96534 0.0
H6 H 0.53337 0.14775 0.92161 0.0
H7 H 0.49181 0.16697 0.87313 0.0
H8 H 0.43211 0.01856 0.86208 0.0
H9 H 0.47458 -0.00037 0.91036 0.0
H10 H 0.65003 0.13141 0.95296 0.0
H11 H 0.70107 0.1459 0.91442 0.0
H12 H 0.6412 0.01173 0.87071 0.0
H13 H 0.59055 -0.0024 0.90927 0.0
H14 H 0.67322 0.10247 0.01882 0.0
H15 H 0.76475 0.08825 0.03357 0.0
H16 H 0.75524 0.95566 0.97998 0.0
H17 H 0.66356 0.96991 0.96579 0.0
H18 H 0.58707 0.09252 0.05511 0.0
H19 H 0.64902 0.07676 0.09808 0.0
H20 H 0.67949 0.93286 0.06305 0.0
H21 H 0.61673 0.94843 0.02049 0.0
H22 H 0.46949 0.11799 0.02244 0.0
H23 H 0.40904 0.11183 0.05686 0.0
H24 H 0.43429 0.95454 0.05985 0.0
H25 H 0.49545 0.96136 0.0257 0.0
O26 O 0.43689 0.15167 0.82421 0.0
O27 O 0.40611 0.07532 0.81994 0.0
O28 O 0.84785 0.03933 0.03456 0.0
O29 O 0.84521 0.97125 0.007 0.0
C30 C 0.49858 0.05597 0.97096 0.0
C31 C 0.53014 0.06145 0.94941 0.0
C32 C 0.58361 0.05623 0.95623 0.0
C33 C 0.60547 0.0437 0.98427 0.0
C34 C 0.57372 0.0366 0.00565 0.0
C35 C 0.52035 0.04401 -0.00082 0.0
C36 C 0.44234 0.06028 0.9629 0.0
C37 C 0.42097 0.10547 0.95361 0.0
C38 C 0.37298 0.10675 0.93668 0.0
C39 C 0.34557 0.06292 0.92922 0.0
C40 C 0.36426 0.01872 0.94166 0.0
C41 C 0.41254 0.0174 0.95838 0.0
C42 C 0.50685 0.07238 0.91948 0.0
C43 C 0.51168 0.11936 0.90856 0.0
C44 C 0.48775 0.13026 0.88092 0.0
C45 C 0.4585 0.09434 0.86376 0.0
C46 C 0.45429 0.04709 0.87472 0.0
C47 C 0.47844 0.03619 0.90229 0.0
C48 C 0.61656 0.06358 0.93377 0.0
C49 C 0.64835 0.10505 0.93513 0.0
C50 C 0.67737 0.11324 0.91315 0.0
C51 C 0.67469 0.0802 0.88944 0.0
C52 C 0.64329 0.03832 0.88843 0.0
C53 C 0.61462 0.03001 0.91047 0.0
C54 C 0.66181 0.03719 0.99128 0.0
C55 C 0.69106 0.0705 0.0102 0.0
C56 C 0.7433 0.06227 0.0186 0.0
C57 C 0.76729 0.0207 0.00801 0.0
C58 C 0.73798 0.98797 0.98856 0.0
C59 C 0.68568 -0.00385 0.98029 0.0
C60 C 0.59774 0.02175 0.03466 0.0
C61 C 0.60543 0.0568 0.05732 0.0
C62 C 0.64103 0.04785 0.08172 0.0
C63 C 0.66959 0.00394 0.08355 0.0
C64 C 0.65843 0.96724 0.06194 0.0
C65 C 0.62233 0.9759 0.03781 0.0
C66 C 0.48691 0.04016 0.0217 0.0
C67 C 0.46222 0.08229 0.03074 0.0
C68 C 0.42736 0.07861 0.05019 0.0
C69 C 0.4165 0.03263 0.06094 0.0
C70 C 0.44214 0.99056 0.0522 0.0
C71 C 0.47707 -0.00568 0.03272 0.0
C72 C 0.43223 0.10632 0.83464 0.0
C73 C 0.82254 0.0112 0.01736 0.0
H74 H 0.08308 0.49702 0.31238 0.0
H75 H 0.08049 0.84895 0.58732 0.0
H76 H 0.02195 0.44013 0.47194 0.0
H77 H 0.02517 0.36933 0.43935 0.0
H78 H 0.18784 0.39166 0.44183 0.0
H79 H 0.18373 0.4634 0.47415 0.0
H80 H 0.02582 0.51118 0.42784 0.0
H81 H 0.03543 0.49967 0.37711 0.0
H82 H 0.188 0.56097 0.39526 0.0
H83 H 0.17806 0.57167 0.44603 0.0
H84 H 0.00602 0.61448 0.44411 0.0
H85 H 0.99579 0.68142 0.40978 0.0
H86 H 0.14497 0.73742 0.44591 0.0
H87 H 0.15549 0.66961 0.47966 0.0
H88 H 0.993 0.63971 0.52016 0.0
H89 H 0.97627 0.7186 0.54352 0.0
H90 H 0.13861 0.74983 0.55739 0.0
H91 H 0.1547 0.67071 0.53417 0.0
H92 H 0.0044 0.54207 0.55673 0.0
H93 H 0.99033 0.57457 0.60388 0.0
H94 H 0.1459 0.62955 0.61854 0.0
H95 H 0.16024 0.59362 0.57255 0.0
H96 H 0.00934 0.4581 0.52514 0.0
H97 H 0.00557 0.38689 0.55548 0.0
H98 H 0.16898 0.39729 0.58256 0.0
H99 H 0.1723 0.46816 0.55159 0.0
O100 O 0.08005 0.50204 0.33252 0.0
O101 O 0.158 0.53439 0.3429 0.0
O102 O 0.00283 0.80017 0.56984 0.0
O103 O 0.08592 0.81792 0.57758 0.0
C104 C 0.09763 0.50587 0.48889 0.0
C105 C 0.09606 0.54763 0.47151 0.0
C106 C 0.0887 0.59484 0.48342 0.0
C107 C 0.08499 0.6006 0.51289 0.0
C108 C 0.08748 0.55889 0.53037 0.0
C109 C 0.09255 0.51145 0.51823 0.0
C110 C 0.10264 0.45651 0.47554 0.0
C111 C 0.05858 0.42858 0.46631 0.0
C112 C 0.06056 0.38819 0.44757 0.0
C113 C 0.10675 0.37504 0.43776 0.0
C114 C 0.15155 0.4013 0.44862 0.0
C115 C 0.14947 0.44181 0.46736 0.0
C116 C 0.10141 0.54186 0.44058 0.0
C117 C 0.06136 0.52186 0.42081 0.0
C118 C 0.06691 0.51546 0.39185 0.0
C119 C 0.11255 0.52927 0.38214 0.0
C120 C 0.1524 0.54985 0.40203 0.0
C121 C 0.14683 0.55608 0.43101 0.0
C122 C 0.08134 0.63755 0.46441 0.0
C123 C 0.03629 0.64144 0.44469 0.0
C124 C 0.03057 0.67944 0.42512 0.0
C125 C 0.06956 0.71445 0.42532 0.0
C126 C 0.11413 0.71115 0.4456 0.0
C127 C 0.12016 0.67266 0.46487 0.0
C128 C 0.07496 0.64989 0.52526 0.0
C129 C 0.02478 0.66393 0.52802 0.0
C130 C 0.0154 0.70888 0.54145 0.0
C131 C 0.05614 0.74055 0.55233 0.0
C132 C 0.10637 0.7264 0.54923 0.0
C133 C 0.11567 0.68139 0.53583 0.0
C134 C 0.08321 0.56587 0.56126 0.0
C135 C 0.03603 0.55908 0.57081 0.0
C136 C 0.0279 0.57842 0.5976 0.0
C137 C 0.06647 0.60598 0.61484 0.0
C138 C 0.11523 0.60839 0.60619 0.0
C139 C 0.12357 0.58811 0.57972 0.0
C140 C 0.09111 0.4678 0.53612 0.0
C141 C 0.04429 0.44473 0.53753 0.0
C142 C 0.04219 0.40444 0.55507 0.0
C143 C 0.08696 0.38661 0.57152 0.0
C144 C 0.13394 0.4099 0.56994 0.0
C145 C 0.13594 0.45032 0.55237 0.0
C146 C 0.11843 0.52216 0.35138 0.0
C147 C 0.04648 0.78796 0.56706 0.0
Mg148 Mg 0.10629 0.04274 0.24947 0.0
O149 O 0.02126 0.03315 0.22688 0.0
O150 O 0.97103 0.02368 0.26103 0.0
Mg151 Mg 0.01649 0.0604 0.30033 0.0
C152 C 0.97801 0.02243 0.23466 0.0
C153 C 0.17819 0.01917 0.20812 0.0
O154 O 0.19313 -0.00537 0.23158 0.0
O155 O 0.10426 0.12742 0.25543 0.0
O156 O 0.02886 0.11286 0.26569 0.0
O157 O 0.10594 0.96304 0.25896 0.0
O158 O 0.0847 0.02124 0.2889 0.0
C159 C 0.06664 0.14171 0.26752 0.0
C160 C 0.08944 0.97512 0.28279 0.0
O161 O 0.13816 0.04566 0.20706 0.0
Mg162 Mg 0.9804 0.00639 0.71317 0.0
O163 O 0.04979 0.00944 0.7487 0.0
O164 O 0.11806 0.98431 0.7291 0.0
Mg165 Mg 0.09158 0.9607 0.68228 0.0
C166 C 0.09769 0.00077 0.75048 0.0
C167 C 0.88758 0.05849 0.73335 0.0
O168 O 0.86697 0.04068 0.70803 0.0
O169 O 0.01018 0.0737 0.69303 0.0
O170 O 0.07457 0.04198 0.67244 0.0
O171 O 0.96314 0.92958 0.72416 0.0
O172 O 0.01449 0.94923 0.69303 0.0
C173 C 0.04598 0.07815 0.67774 0.0
C174 C 0.99519 0.91587 0.70717 0.0
O175 O 0.93527 0.05292 0.74125 0.0
H176 H 0.32426 0.0804 0.05921 0.0
H177 H 0.2619 0.96208 0.20408 0.0
H178 H 0.4218 0.97588 0.10865 0.0
H179 H 0.16674 0.07285 0.15864 0.0
H180 H 0.31743 0.96301 0.16721 0.0
H181 H 0.2635 0.0752 0.09354 0.0
C182 C 0.33302 0.05648 0.07733 0.0
C183 C 0.37844 0.02873 0.08112 0.0
C184 C 0.28436 0.98705 0.16517 0.0
C185 C 0.30865 0.02216 0.12029 0.0
C186 C 0.25249 0.98653 0.18625 0.0
C187 C 0.20969 0.01769 0.18457 0.0
C188 C 0.27361 0.01905 0.14213 0.0
C189 C 0.19939 0.04831 0.16083 0.0
C190 C 0.29813 0.05332 0.09682 0.0
C191 C 0.38716 -0.0024 0.10468 0.0
N192 N 0.23132 0.04841 0.14058 0.0
N193 N 0.35271 -0.00469 0.12338 0.0
H194 H 0.15305 0.30848 0.57853 0.0
H195 H 0.98883 0.16281 0.67926 0.0
H196 H 0.01528 0.36625 0.60619 0.0
H197 H 0.12216 0.10324 0.64725 0.0
H198 H 0.00136 0.24019 0.65583 0.0
H199 H 0.14608 0.23571 0.60704 0.0
C200 C 0.1216 0.30608 0.59084 0.0
C201 C 0.08454 0.34337 0.58986 0.0
C202 C 0.02795 0.2102 0.65406 0.0
C203 C 0.07593 0.25986 0.62228 0.0
C204 C 0.02087 0.16602 0.66746 0.0
C205 C 0.05425 0.12624 0.66508 0.0
C206 C 0.06875 0.21468 0.63821 0.0
C207 C 0.09517 0.13268 0.64954 0.0
C208 C 0.11744 0.26437 0.60698 0.0
C209 C 0.04424 0.33798 0.60596 0.0
N210 N 0.10112 0.17592 0.63664 0.0
N211 N 0.04091 0.29693 0.62144 0.0
H212 H 0.7665 0.97724 0.07629 0.0
H213 H 0.87874 0.00928 0.24302 0.0
H214 H 0.67526 0.02067 0.14166 0.0
H215 H 0.97406 0.01175 0.17586 0.0
H216 H 0.80374 -0.00111 0.20659 0.0
H217 H 0.84247 0.97556 0.11309 0.0
C218 C 0.76239 0.98563 0.09851 0.0
C219 C 0.71459 -0.00112 0.10607 0.0
C220 C 0.84107 0.00149 0.19982 0.0
C221 C 0.80118 -0.00261 0.14809 0.0
C222 C 0.88411 0.00726 0.22062 0.0
C223 C 0.93301 0.01184 0.21254 0.0
C224 C 0.8467 -0.00012 0.17063 0.0
C225 C 0.93719 0.00873 0.1831 0.0
C226 C 0.80577 0.98506 0.1194 0.0
C227 C 0.71147 0.01039 0.13499 0.0
N228 N 0.89453 0.00307 0.16318 0.0
N229 N 0.75421 0.00932 0.15498 0.0
H230 H 0.12815 0.63412 0.66539 0.0
H231 H 0.08892 0.87729 0.70193 0.0
H232 H 0.97627 0.65462 0.61855 0.0
H233 H 0.93207 0.83657 0.7043 0.0
H234 H 0.10759 0.79215 0.68877 0.0
H235 H 0.11338 0.70424 0.69697 0.0
C236 C 0.0915 0.65269 0.66193 0.0
C237 C 0.05398 0.63899 0.63866 0.0
C238 C 0.06944 0.8015 0.69298 0.0
C239 C 0.03684 0.71851 0.67495 0.0
C240 C 0.05863 0.85019 0.70004 0.0
C241 C 0.00879 0.8638 0.70375 0.0
C242 C 0.02976 0.76663 0.689 0.0
C243 C 0.97099 0.82728 0.70154 0.0
C244 C 0.08319 0.69261 0.67999 0.0
C245 C 0.00652 0.66345 0.63604 0.0
N246 N 0.98192 0.78044 0.69351 0.0
N247 N -0.00043 0.70236 0.65375 0.0
H248 H 0.34601 0.10265 0.87701 0.0
H249 H 0.07191 0.00543 0.80496 0.0
H250 H 0.25135 0.01805 0.92499 0.0
H251 H 0.19954 0.02206 0.75826 0.0
H252 H 0.12905 0.02508 0.84998 0.0
H253 H 0.283 0.09042 0.83397 0.0
C254 C 0.31133 0.08243 0.87863 0.0
C255 C 0.30365 0.06151 0.9046 0.0
C256 C 0.14428 0.02436 0.82981 0.0
C257 C 0.23178 0.04693 0.85536 0.0
C258 C 0.11185 0.0133 0.80418 0.0
C259 C 0.13116 0.01188 0.77789 0.0
C260 C 0.1959 0.03517 0.82892 0.0
C261 C 0.18316 0.0223 0.77806 0.0
C262 C 0.27572 0.07502 0.854 0.0
C263 C 0.25855 0.03472 0.90533 0.0
N264 N 0.21364 0.03382 0.80316 0.0
N265 N 0.22411 0.02816 0.88098 0.0
H266 H 0.0539 0.28784 0.43051 0.0
H267 H 0.14769 0.20555 0.28264 0.0
H268 H 0.15894 0.37631 0.39139 0.0
H269 H 0.00412 0.1609 0.30763 0.0
H270 H 0.16178 0.26103 0.32528 0.0
H271 H 0.04602 0.23144 0.38882 0.0
C272 C 0.0755 0.29532 0.41324 0.0
C273 C 0.10677 0.33715 0.4144 0.0
C274 C 0.12724 0.23902 0.32126 0.0
C275 C 0.09825 0.27244 0.3667 0.0
C276 C 0.11914 0.20749 0.29698 0.0
C277 C 0.07485 0.17827 0.29165 0.0
C278 C 0.09112 0.24065 0.3404 0.0
C279 C 0.039 0.18241 0.31088 0.0
C280 C 0.071 0.2631 0.38945 0.0
C281 C 0.13476 0.34429 0.39159 0.0
N282 N 0.04814 0.21264 0.33447 0.0
N283 N 0.1297 0.31233 0.36859 0.0
H284 H 0.77461 0.10988 0.89368 0.0
H285 H 0.78308 0.06572 0.72577 0.0
H286 H 0.64318 0.07023 0.83151 0.0
H287 H 0.9172 0.0916 0.78885 0.0
H288 H 0.72937 0.08199 0.76301 0.0
H289 H 0.82528 0.11732 0.85446 0.0
C290 C 0.75627 0.10336 0.87174 0.0
C291 C 0.70482 0.08879 0.86584 0.0
C292 C 0.77054 0.08466 0.76863 0.0
C293 C 0.76254 0.09688 0.82093 0.0
C294 C 0.80125 0.07554 0.74735 0.0
C295 C 0.85474 0.07648 0.7543 0.0
C296 C 0.79349 0.09469 0.79709 0.0
C297 C 0.87612 0.08984 0.78258 0.0
C298 C 0.78524 0.10741 0.84938 0.0
C299 C 0.68304 0.08053 0.83704 0.0
N300 N 0.84543 0.09783 0.80302 0.0
N301 N 0.7121 0.08435 0.81568 0.0
H302 H 0.04232 0.70348 0.36726 0.0
H303 H 0.06972 0.98953 0.33772 0.0
H304 H 0.08628 0.81312 0.43437 0.0
H305 H 0.08205 0.87529 0.2734 0.0
H306 H 0.05787 0.9264 0.37215 0.0
H307 H 0.0394 0.76768 0.3314 0.0
C308 C 0.05077 0.74121 0.37441 0.0
C309 C 0.06475 0.75322 0.40371 0.0
C310 C 0.06284 0.91523 0.35044 0.0
C311 C 0.06145 0.8264 0.36305 0.0
C312 C 0.06938 0.95118 0.33074 0.0
C313 C 0.07733 0.93753 0.30274 0.0
C314 C 0.06376 0.86535 0.342 0.0
C315 C 0.07647 0.88733 0.29486 0.0
C316 C 0.04938 0.77765 0.35399 0.0
C317 C 0.07583 0.80243 0.41192 0.0
N318 N 0.06996 0.85295 0.31445 0.0
N319 N 0.07392 0.83732 0.39167 0.0
loop_
_geom_bond_atom_site_label_1
_geom_bond_atom_site_label_2
_geom_bond_distance
_geom_bond_site_symmetry_2
_ccdc_geom_bond_type
H0 O26 0.856 . S
H1 O29 0.854 . S
H2 C37 0.930 . S
H3 C38 0.930 . S
H4 C40 0.930 1_565 S
H5 C41 0.930 1_565 S
H6 C43 0.931 . S
H7 C44 0.930 . S
H8 C46 0.930 . S
H9 C47 0.929 . S
H10 C49 0.930 . S
H11 C50 0.931 . S
H12 C52 0.930 . S
H13 C53 0.929 . S
H14 C55 0.931 . S
H15 C56 0.930 . S
H16 C58 0.930 . S
H17 C59 0.932 . S
H18 C61 0.930 . S
H19 C62 0.929 . S
H20 C64 0.931 1_565 S
H21 C65 0.930 1_565 S
H22 C67 0.929 . S
H23 C68 0.931 . S
H24 C70 0.930 . S
H25 C71 0.929 . S
O26 H0 0.856 . S
O26 C72 1.300 . S
O27 C72 1.209 1_565 S
O28 C73 1.199 . S
O29 H1 0.854 . S
O29 C73 1.297 1_565 S
C30 C31 1.404 . S
C30 C35 1.397 1_556 S
C30 C36 1.492 . S
C31 C30 1.404 . S
C31 C32 1.396 . S
C31 C42 1.492 . S
C32 C31 1.396 . S
C32 C33 1.397 . S
C32 C48 1.509 . S
C33 C32 1.397 . S
C33 C34 1.412 1_556 S
C33 C54 1.485 1_556 S
C34 C33 1.412 1_554 S
C34 C35 1.388 . S
C34 C60 1.490 . S
C35 C30 1.397 1_554 S
C35 C34 1.388 . S
C35 C66 1.519 . S
C36 C30 1.492 . S
C36 C37 1.363 . S
C36 C41 1.390 . S
C37 H2 0.930 . S
C37 C36 1.363 . S
C37 C38 1.372 . S
C38 H3 0.930 . S
C38 C37 1.372 . S
C38 C39 1.383 . S
C39 C38 1.383 . S
C39 C40 1.395 . S
C40 H4 0.930 1_545 S
C40 C39 1.395 . S
C40 C41 1.362 . S
C41 H5 0.930 1_545 S
C41 C36 1.390 . S
C41 C40 1.362 . S
C42 C31 1.492 . S
C42 C43 1.377 . S
C42 C47 1.397 1_545 S
C43 H6 0.931 . S
C43 C42 1.377 . S
C43 C44 1.376 . S
C44 H7 0.930 . S
C44 C43 1.376 . S
C44 C45 1.376 . S
C45 C44 1.376 . S
C45 C46 1.378 1_545 S
C45 C72 1.486 . S
C46 H8 0.930 . S
C46 C45 1.378 1_565 S
C46 C47 1.376 . S
C47 H9 0.929 . S
C47 C42 1.397 1_565 S
C47 C46 1.376 . S
C48 C32 1.509 . S
C48 C49 1.391 . S
C48 C53 1.386 1_545 S
C49 H10 0.930 . S
C49 C48 1.391 . S
C49 C50 1.375 . S
C50 H11 0.931 . S
C50 C49 1.375 . S
C50 C51 1.375 . S
C51 C50 1.375 . S
C51 C52 1.361 1_545 S
C52 H12 0.930 . S
C52 C51 1.361 1_565 S
C52 C53 1.399 . S
C53 H13 0.929 . S
C53 C48 1.386 1_565 S
C53 C52 1.399 . S
C54 C33 1.485 1_554 S
C54 C55 1.394 . S
C54 C59 1.360 1_544 S
C55 H14 0.931 . S
C55 C54 1.394 . S
C55 C56 1.372 . S
C56 H15 0.930 . S
C56 C55 1.372 . S
C56 C57 1.397 . S
C57 C56 1.397 . S
C57 C58 1.390 1_545 S
C57 C73 1.476 . S
C58 H16 0.930 . S
C58 C57 1.390 1_565 S
C58 C59 1.366 1_554 S
C59 H17 0.932 . S
C59 C54 1.360 1_566 S
C59 C58 1.366 1_556 S
C60 C34 1.490 . S
C60 C61 1.380 . S
C60 C65 1.386 . S
C61 H18 0.930 . S
C61 C60 1.380 . S
C61 C62 1.381 . S
C62 H19 0.929 . S
C62 C61 1.381 . S
C62 C63 1.371 . S
C63 C62 1.371 . S
C63 C64 1.380 . S
C64 H20 0.931 1_545 S
C64 C63 1.380 . S
C64 C65 1.387 . S
C65 H21 0.930 1_545 S
C65 C60 1.386 . S
C65 C64 1.387 . S
C66 C35 1.519 . S
C66 C67 1.377 . S
C66 C71 1.361 1_545 S
C67 H22 0.929 . S
C67 C66 1.377 . S
C67 C68 1.386 . S
C68 H23 0.931 . S
C68 C67 1.386 . S
C68 C69 1.363 . S
C69 C68 1.363 . S
C69 C70 1.385 1_545 S
C70 H24 0.930 . S
C70 C69 1.385 1_565 S
C70 C71 1.396 . S
C71 H25 0.929 . S
C71 C66 1.361 1_565 S
C71 C70 1.396 . S
C72 O26 1.300 . S
C72 O27 1.209 1_545 S
C72 C45 1.486 . S
C73 O28 1.199 . S
C73 O29 1.297 1_545 S
C73 C57 1.476 . S
H74 O100 0.856 . S
H75 O103 0.854 . S
H76 C111 0.930 1_655 S
H77 C112 0.930 1_655 S
H78 C114 0.930 . S
H79 C115 0.930 . S
H80 C117 0.931 . S
H81 C118 0.930 . S
H82 C120 0.930 . S
H83 C121 0.929 . S
H84 C123 0.930 . S
H85 C124 0.931 . S
H86 C126 0.930 . S
H87 C127 0.929 . S
H88 C129 0.931 1_655 S
H89 C130 0.928 . S
H90 C132 0.930 . S
H91 C133 0.932 . S
H92 C135 0.930 1_655 S
H93 C136 0.929 . S
H94 C138 0.931 . S
H95 C139 0.930 . S
H96 C141 0.929 1_655 S
H97 C142 0.931 1_655 S
H98 C144 0.930 . S
H99 C145 0.929 . S
O100 H74 0.856 . S
O100 C146 1.300 . S
O101 C146 1.209 . S
O102 C147 1.199 . S
O103 H75 0.854 . S
O103 C147 1.297 . S
C104 C105 1.404 . S
C104 C109 1.397 . S
C104 C110 1.492 . S
C105 C104 1.404 . S
C105 C106 1.396 . S
C105 C116 1.492 . S
C106 C105 1.396 . S
C106 C107 1.397 . S
C106 C122 1.509 . S
C107 C106 1.397 . S
C107 C108 1.412 . S
C107 C128 1.485 . S
C108 C107 1.412 . S
C108 C109 1.388 . S
C108 C134 1.490 . S
C109 C104 1.397 . S
C109 C108 1.388 . S
C109 C140 1.519 . S
C110 C104 1.492 . S
C110 C111 1.363 . S
C110 C115 1.390 . S
C111 H76 0.930 1_455 S
C111 C110 1.363 . S
C111 C112 1.372 . S
C112 H77 0.930 1_455 S
C112 C111 1.372 . S
C112 C113 1.383 . S
C113 C112 1.383 . S
C113 C114 1.395 . S
C114 H78 0.930 . S
C114 C113 1.395 . S
C114 C115 1.362 . S
C115 H79 0.930 . S
C115 C110 1.390 . S
C115 C114 1.362 . S
C116 C105 1.492 . S
C116 C117 1.377 . S
C116 C121 1.397 . S
C117 H80 0.931 . S
C117 C116 1.377 . S
C117 C118 1.376 . S
C118 H81 0.930 . S
C118 C117 1.376 . S
C118 C119 1.376 . S
C119 C118 1.376 . S
C119 C120 1.378 . S
C119 C146 1.486 . S
C120 H82 0.930 . S
C120 C119 1.378 . S
C120 C121 1.376 . S
C121 H83 0.929 . S
C121 C116 1.397 . S
C121 C120 1.376 . S
C122 C106 1.509 . S
C122 C123 1.391 . S
C122 C127 1.386 . S
C123 H84 0.930 . S
C123 C122 1.391 . S
C123 C124 1.375 . S
C124 H85 0.931 . S
C124 C123 1.375 . S
C124 C125 1.375 . S
C125 C124 1.375 . S
C125 C126 1.361 . S
C126 H86 0.930 . S
C126 C125 1.361 . S
C126 C127 1.399 . S
C127 H87 0.929 . S
C127 C122 1.386 . S
C127 C126 1.399 . S
C128 C107 1.485 . S
C128 C129 1.394 . S
C128 C133 1.360 . S
C129 H88 0.931 1_455 S
C129 C128 1.394 . S
C129 C130 1.372 . S
C130 H89 0.928 . S
C130 C129 1.372 . S
C130 C131 1.397 . S
C131 C130 1.397 . S
C131 C132 1.390 . S
C131 C147 1.476 . S
C132 H90 0.930 . S
C132 C131 1.390 . S
C132 C133 1.366 . S
C133 H91 0.932 . S
C133 C128 1.360 . S
C133 C132 1.366 . S
C134 C108 1.490 . S
C134 C135 1.380 . S
C134 C139 1.386 . S
C135 H92 0.930 1_455 S
C135 C134 1.380 . S
C135 C136 1.381 1_455 S
C136 H93 0.929 . S
C136 C135 1.381 1_655 S
C136 C137 1.371 1_655 S
C137 C136 1.371 1_455 S
C137 C138 1.380 . S
C138 H94 0.931 . S
C138 C137 1.380 . S
C138 C139 1.387 . S
C139 H95 0.930 . S
C139 C134 1.386 . S
C139 C138 1.387 . S
C140 C109 1.519 . S
C140 C141 1.377 . S
C140 C145 1.361 . S
C141 H96 0.929 1_455 S
C141 C140 1.377 . S
C141 C142 1.386 . S
C142 H97 0.931 1_455 S
C142 C141 1.386 . S
C142 C143 1.363 . S
C143 C142 1.363 . S
C143 C144 1.385 . S
C144 H98 0.930 . S
C144 C143 1.385 . S
C144 C145 1.396 . S
C145 H99 0.929 . S
C145 C140 1.361 . S
C145 C144 1.396 . S
C146 O100 1.300 . S
C146 O101 1.209 . S
C146 C119 1.486 . S
C147 O102 1.199 . S
C147 O103 1.297 . S
C147 C131 1.476 . S
Mg148 O149 2.028 . S
Mg148 O155 1.986 . S
Mg148 O157 2.114 1_545 S
Mg148 O158 2.251 . S
Mg148 O161 2.010 . S
O149 Mg148 2.028 . S
O149 C152 1.250 1_455 S
O150 Mg151 2.028 . S
O150 C152 1.248 . S
Mg151 O150 2.028 . S
Mg151 O156 2.032 1_655 S
Mg151 O158 2.079 1_655 S
C152 O149 1.250 1_655 S
C152 O150 1.248 . S
C153 O154 1.264 . S
C153 O161 1.249 . S
O154 C153 1.264 . S
O155 Mg148 1.986 . S
O155 C159 1.246 . S
O156 Mg151 2.032 1_455 S
O156 C159 1.259 . S
O157 Mg148 2.114 1_565 S
O157 C160 1.252 . S
O158 Mg148 2.251 . S
O158 Mg151 2.079 1_455 S
O158 C160 1.273 1_545 S
C159 O155 1.246 . S
C159 O156 1.259 . S
C160 O157 1.252 . S
C160 O158 1.273 1_565 S
O161 Mg148 2.010 . S
O161 C153 1.249 . S
Mg162 O163 2.031 . S
Mg162 O169 1.986 . S
Mg162 O171 2.113 1_545 S
Mg162 O172 2.254 1_545 S
Mg162 O175 2.007 1_455 S
O163 Mg162 2.031 . S
O163 C166 1.250 . S
O164 Mg165 2.028 . S
O164 C166 1.248 . S
Mg165 O164 2.028 . S
Mg165 O170 2.032 . S
Mg165 O172 2.079 1_545 S
C166 O163 1.250 . S
C166 O164 1.248 . S
C167 O168 1.264 . S
C167 O175 1.249 . S
O168 C167 1.264 . S
O169 Mg162 1.986 . S
O169 C173 1.246 . S
O170 Mg165 2.032 . S
O170 C173 1.259 . S
O171 Mg162 2.113 1_565 S
O171 C174 1.266 . S
O172 Mg162 2.254 1_565 S
O172 Mg165 2.079 1_565 S
O172 C174 1.273 . S
C173 O169 1.246 . S
C173 O170 1.259 . S
C174 O171 1.266 . S
C174 O172 1.273 . S
O175 Mg162 2.007 1_655 S
O175 C167 1.249 . S
H176 C182 0.930 . S
H177 C186 0.930 1_565 S
H178 C191 0.929 . S
H179 C189 0.929 . S
H180 C184 0.929 1_565 S
H181 C190 0.929 . S
C182 H176 0.930 . S
C182 C183 1.367 . S
C182 C190 1.378 . S
C183 C182 1.367 . S
C183 C191 1.433 1_545 S
C184 H180 0.929 1_545 S
C184 C186 1.378 . S
C184 C188 1.350 . S
C185 C188 1.463 . S
C185 C190 1.350 . S
C185 N193 1.427 1_545 S
C186 H177 0.930 1_545 S
C186 C184 1.378 . S
C186 C187 1.367 . S
C187 C186 1.367 . S
C187 C189 1.433 . S
C188 C184 1.350 . S
C188 C185 1.463 . S
C188 N192 1.427 . S
C189 H179 0.929 . S
C189 C187 1.433 . S
C189 N192 1.384 . S
C190 H181 0.929 . S
C190 C182 1.378 . S
C190 C185 1.350 . S
C191 H178 0.929 . S
C191 C183 1.433 1_565 S
C191 N193 1.384 . S
N192 C188 1.427 . S
N192 C189 1.384 . S
N193 C185 1.427 1_565 S
N193 C191 1.384 . S
H194 C200 0.930 . S
H195 C204 0.930 . S
H196 C209 0.929 1_655 S
H197 C207 0.929 . S
H198 C202 0.929 . S
H199 C208 0.929 . S
C200 H194 0.930 . S
C200 C201 1.367 . S
C200 C208 1.378 . S
C201 C200 1.367 . S
C201 C209 1.433 . S
C202 H198 0.929 . S
C202 C204 1.378 . S
C202 C206 1.350 1_655 S
C203 C206 1.463 . S
C203 C208 1.350 . S
C203 N211 1.427 . S
C204 H195 0.930 . S
C204 C202 1.378 . S
C204 C205 1.367 1_655 S
C205 C204 1.367 1_455 S
C205 C207 1.433 . S
C206 C202 1.350 1_455 S
C206 C203 1.463 . S
C206 N210 1.427 . S
C207 H197 0.929 . S
C207 C205 1.433 . S
C207 N210 1.384 . S
C208 H199 0.929 . S
C208 C200 1.378 . S
C208 C203 1.350 . S
C209 H196 0.929 1_455 S
C209 C201 1.433 . S
C209 N211 1.384 . S
N210 C206 1.427 . S
N210 C207 1.384 . S
N211 C203 1.427 . S
N211 C209 1.384 . S
H212 C218 0.930 . S
H213 C222 0.930 . S
H214 C227 0.929 . S
H215 C225 0.929 1_565 S
H216 C220 0.929 . S
H217 C226 0.929 . S
C218 H212 0.930 . S
C218 C219 1.367 . S
C218 C226 1.378 . S
C219 C218 1.367 . S
C219 C227 1.433 . S
C220 H216 0.929 . S
C220 C222 1.378 . S
C220 C224 1.350 . S
C221 C224 1.463 . S
C221 C226 1.350 . S
C221 N229 1.427 . S
C222 H213 0.930 . S
C222 C220 1.378 . S
C222 C223 1.367 . S
C223 C222 1.367 . S
C223 C225 1.433 . S
C224 C220 1.350 . S
C224 C221 1.463 . S
C224 N228 1.427 . S
C225 H215 0.929 1_545 S
C225 C223 1.433 . S
C225 N228 1.384 . S
C226 H217 0.929 . S
C226 C218 1.378 . S
C226 C221 1.350 . S
C227 H214 0.929 . S
C227 C219 1.433 . S
C227 N229 1.384 . S
N228 C224 1.427 . S
N228 C225 1.384 . S
N229 C221 1.427 . S
N229 C227 1.384 . S
H230 C236 0.930 . S
H231 C240 0.930 . S
H232 C245 0.929 . S
H233 C243 0.929 . S
H234 C238 0.929 . S
H235 C244 0.929 . S
C236 H230 0.930 . S
C236 C237 1.367 . S
C236 C244 1.378 . S
C237 C236 1.367 . S
C237 C245 1.433 . S
C238 H234 0.929 . S
C238 C240 1.378 . S
C238 C242 1.350 . S
C239 C242 1.463 . S
C239 C244 1.350 . S
C239 N247 1.427 . S
C240 H231 0.930 . S
C240 C238 1.378 . S
C240 C241 1.367 . S
C241 C240 1.367 . S
C241 C243 1.433 . S
C242 C238 1.350 . S
C242 C239 1.463 . S
C242 N246 1.427 . S
C243 H233 0.929 . S
C243 C241 1.433 . S
C243 N246 1.384 . S
C244 H235 0.929 . S
C244 C236 1.378 . S
C244 C239 1.350 . S
C245 H232 0.929 . S
C245 C237 1.433 . S
C245 N247 1.384 . S
N246 C242 1.427 . S
N246 C243 1.384 . S
N247 C239 1.427 . S
N247 C245 1.384 . S
H248 C254 0.930 . S
H249 C258 0.937 . S
H250 C263 0.929 . S
H251 C261 0.929 . S
H252 C256 0.929 . S
H253 C262 0.929 . S
C254 H248 0.930 . S
C254 C255 1.367 . S
C254 C262 1.378 . S
C255 C254 1.367 . S
C255 C263 1.433 . S
C256 H252 0.929 . S
C256 C258 1.378 . S
C256 C260 1.350 . S
C257 C260 1.463 . S
C257 C262 1.350 . S
C257 N265 1.427 . S
C258 H249 0.937 . S
C258 C256 1.378 . S
C258 C259 1.367 . S
C259 C258 1.367 . S
C259 C261 1.433 . S
C260 C256 1.350 . S
C260 C257 1.463 . S
C260 N264 1.427 . S
C261 H251 0.929 . S
C261 C259 1.433 . S
C261 N264 1.384 . S
C262 H253 0.929 . S
C262 C254 1.378 . S
C262 C257 1.350 . S
C263 H250 0.929 . S
C263 C255 1.433 . S
C263 N265 1.384 . S
N264 C260 1.427 . S
N264 C261 1.384 . S
N265 C257 1.427 . S
N265 C263 1.384 . S
H266 C272 0.930 . S
H267 C276 0.930 . S
H268 C281 0.929 . S
H269 C279 0.929 . S
H270 C274 0.929 . S
H271 C280 0.929 . S
C272 H266 0.930 . S
C272 C273 1.367 . S
C272 C280 1.378 . S
C273 C272 1.367 . S
C273 C281 1.433 . S
C274 H270 0.929 . S
C274 C276 1.378 . S
C274 C278 1.350 . S
C275 C278 1.463 . S
C275 C280 1.350 . S
C275 N283 1.427 . S
C276 H267 0.930 . S
C276 C274 1.378 . S
C276 C277 1.367 . S
C277 C276 1.367 . S
C277 C279 1.433 . S
C278 C274 1.350 . S
C278 C275 1.463 . S
C278 N282 1.427 . S
C279 H269 0.929 . S
C279 C277 1.433 . S
C279 N282 1.384 . S
C280 H271 0.929 . S
C280 C272 1.378 . S
C280 C275 1.350 . S
C281 H268 0.929 . S
C281 C273 1.433 . S
C281 N283 1.384 . S
N282 C278 1.427 . S
N282 C279 1.384 . S
N283 C275 1.427 . S
N283 C281 1.384 . S
H284 C290 0.930 . S
H285 C294 0.930 . S
H286 C299 0.926 1_565 S
H287 C297 0.929 . S
H288 C292 0.929 . S
H289 C298 0.929 . S
C290 H284 0.930 . S
C290 C291 1.367 . S
C290 C298 1.378 . S
C291 C290 1.367 . S
C291 C299 1.435 . S
C292 H288 0.929 . S
C292 C294 1.378 . S
C292 C296 1.350 . S
C293 C296 1.463 . S
C293 C298 1.350 . S
C293 N301 1.427 . S
C294 H285 0.930 . S
C294 C292 1.378 . S
C294 C295 1.367 . S
C295 C294 1.367 . S
C295 C297 1.433 . S
C296 C292 1.350 . S
C296 C293 1.463 . S
C296 N300 1.427 . S
C297 H287 0.929 . S
C297 C295 1.433 . S
C297 N300 1.384 . S
C298 H289 0.929 . S
C298 C290 1.378 . S
C298 C293 1.350 . S
C299 H286 0.926 1_545 S
C299 C291 1.435 . S
C299 N301 1.385 . S
N300 C296 1.427 . S
N300 C297 1.384 . S
N301 C293 1.427 . S
N301 C299 1.385 . S
H302 C308 0.930 . S
H303 C312 0.930 . S
H304 C317 0.929 . S
H305 C315 0.938 . S
H306 C310 0.929 . S
H307 C316 0.929 . S
C308 H302 0.930 . S
C308 C309 1.367 . S
C308 C316 1.378 . S
C309 C308 1.367 . S
C309 C317 1.433 . S
C310 H306 0.929 . S
C310 C312 1.378 . S
C310 C314 1.350 . S
C311 C314 1.463 . S
C311 C316 1.350 . S
C311 N319 1.427 . S
C312 H303 0.930 . S
C312 C310 1.378 . S
C312 C313 1.367 . S
C313 C312 1.367 . S
C313 C315 1.433 . S
C314 C310 1.350 . S
C314 C311 1.463 . S
C314 N318 1.427 . S
C315 H305 0.938 . S
C315 C313 1.433 . S
C315 N318 1.384 . S
C316 H307 0.929 . S
C316 C308 1.378 . S
C316 C311 1.350 . S
C317 H304 0.929 . S
C317 C309 1.433 . S
C317 N319 1.384 . S
N318 C314 1.427 . S
N318 C315 1.384 . S
N319 C311 1.427 . S
N319 C317 1.384 . S
C187 C153 1.845 . S
C183 C69 2.115 . S
C205 C173 2.111 . S
C201 C143 2.154 . S
C223 C152 1.531 . S
C219 C63 1.474 . S
C241 C174 1.592 . S
C237 C137 1.482 . S
C259 C166 1.479 . S
C255 C39 1.385 . S
C277 C159 1.371 . S
C273 C113 1.357 . S
C295 C167 0.762 . S
C291 C51 0.815 . S
C309 C125 0.839 . S
C313 C160 0.840 . S
