# Generated by pormake.
# Topology pth, (4,4)-cn, num edge types: 1
# Building blocks:
#     Node 0, Type 0, BuildingBlock: TATPOV_clean_sbu_0, # of connection points: 4
#     Node 1, Type 0, BuildingBlock: TATPOV_clean_sbu_0, # of connection points: 4
#     Node 2, Type 0, BuildingBlock: TATPOV_clean_sbu_0, # of connection points: 4
#     Node 3, Type 1, BuildingBlock: AZAVOO_clean_linker_0, # of connection points: 4
#     Node 4, Type 1, BuildingBlock: AZAVOO_clean_linker_0, # of connection points: 4
#     Node 5, Type 1, BuildingBlock: AZAVOO_clean_linker_0, # of connection points: 4
#     Edge 6, Type (0, 1), BuildingBlock: FUNLAD_clean_linker_1, # of connection points: 2
#     Edge 7, Type (0, 1), BuildingBlock: FUNLAD_clean_linker_1, # of connection points: 2
#     Edge 8, Type (0, 1), BuildingBlock: FUNLAD_clean_linker_1, # of connection points: 2
#     Edge 9, Type (0, 1), BuildingBlock: FUNLAD_clean_linker_1, # of connection points: 2
#     Edge 10, Type (0, 1), BuildingBlock: FUNLAD_clean_linker_1, # of connection points: 2
#     Edge 11, Type (0, 1), BuildingBlock: FUNLAD_clean_linker_1, # of connection points: 2
#     Edge 12, Type (0, 1), BuildingBlock: FUNLAD_clean_linker_1, # of connection points: 2
#     Edge 13, Type (0, 1), BuildingBlock: FUNLAD_clean_linker_1, # of connection points: 2
#     Edge 14, Type (0, 1), BuildingBlock: FUNLAD_clean_linker_1, # of connection points: 2
#     Edge 15, Type (0, 1), BuildingBlock: FUNLAD_clean_linker_1, # of connection points: 2
#     Edge 16, Type (0, 1), BuildingBlock: FUNLAD_clean_linker_1, # of connection points: 2
#     Edge 17, Type (0, 1), BuildingBlock: FUNLAD_clean_linker_1, # of connection points: 2
# Relax obj value: 0.149
# Max RMSD: 0.230
# Mean RMSD: 0.204
data_MOF--net-pth--node1-TATPOV_clean_sbu_0--node2-AZAVOO_clean_linker_0--edge1-FUNLAD_clean_linker_1
_symmetry_space_group_name_H-M    P1
_symmetry_Int_Tables_number       1
_symmetry_cell_setting            triclinic
loop_
_symmetry_equiv_pos_as_xyz
'x, y, z'
_cell_length_a     27.476262
_cell_length_b     27.287863
_cell_length_c     71.886624
_cell_angle_alpha  94.149074
_cell_angle_beta   91.50188
_cell_angle_gamma 121.25603
loop_
_atom_site_label
_atom_site_type_symbol
_atom_site_fract_x
_atom_site_fract_y
_atom_site_fract_z
_atom_type_partial_charge
Zn0 Zn 0.20573 0.01347 0.0264 0.0
Zn1 Zn 0.14958 0.05842 0.04461 0.0
O2 O 0.15102 0.00239 0.06177 0.0
O3 O 0.19995 0.96842 0.04813 0.0
O4 O 0.11329 0.09331 0.06021 0.0
O5 O 0.27265 0.09413 0.02523 0.0
O6 O 0.22615 0.1292 0.03992 0.0
C7 C 0.17229 0.97056 0.06163 0.0
C8 C 0.10031 0.98956 0.00666 0.0
O9 O 0.09737 0.01943 0.02056 0.0
O10 O 0.14082 0.98012 0.00616 0.0
C11 C 0.05986 0.07023 0.06145 0.0
O12 O 0.02424 0.02117 0.05154 0.0
C13 C 0.27011 0.13684 0.032 0.0
Zn14 Zn 0.1349 0.03112 0.34899 0.0
Zn15 Zn 0.05098 0.02546 0.36978 0.0
O16 O 0.12165 0.06057 0.38817 0.0
O17 O 0.1915 0.06883 0.37167 0.0
O18 O 0.99208 0.02331 0.38622 0.0
O19 O 0.1204 0.07835 0.33169 0.0
O20 O 0.05442 0.07529 0.34927 0.0
C21 C 0.17359 0.07541 0.38716 0.0
C22 C 0.03865 0.9152 0.35113 0.0
O23 O 0.01819 0.94051 0.36067 0.0
O24 O 0.08741 0.94402 0.34485 0.0
C25 C 0.9867 0.00193 0.40169 0.0
O26 O 0.01843 0.98085 0.40617 0.0
C27 C 0.08358 0.09179 0.33505 0.0
Zn28 Zn 0.13634 0.98242 0.73067 0.0
Zn29 Zn 0.08666 -0.00182 0.70068 0.0
O30 O 0.13449 0.96759 0.68884 0.0
O31 O 0.17299 0.95185 0.71327 0.0
O32 O 0.04236 0.00398 0.67913 0.0
O33 O 0.05997 0.93017 0.74047 0.0
O34 O 0.02072 0.94409 0.71592 0.0
C35 C 0.16646 0.95135 0.69575 0.0
C36 C 0.17072 0.10161 0.72763 0.0
O37 O 0.13673 0.08129 0.71294 0.0
O38 O 0.17713 0.06838 0.73748 0.0
C39 C 0.06309 0.03875 0.66668 0.0
O40 O 0.11853 0.07412 0.66695 0.0
C41 C 0.01598 0.92126 0.7311 0.0
H42 H 0.97085 0.42788 0.08194 0.0
H43 H 0.07604 0.84829 0.25163 0.0
H44 H 0.92126 0.36098 0.17752 0.0
H45 H 0.92719 0.28557 0.1592 0.0
H46 H 0.09903 0.35621 0.18343 0.0
H47 H 0.09255 0.43165 0.20182 0.0
H48 H 0.92696 0.46694 0.15916 0.0
H49 H 0.92978 0.44859 0.12548 0.0
H50 H 0.09949 0.47809 0.13484 0.0
H51 H 0.09638 0.49709 0.16845 0.0
H52 H 0.9339 0.57405 0.18432 0.0
H53 H 0.94918 0.65113 0.16516 0.0
H54 H 0.12083 0.6898 0.15759 0.0
H55 H 0.10495 0.61299 0.17649 0.0
H56 H 0.92345 0.56421 0.22783 0.0
H57 H 0.92894 0.65211 0.24138 0.0
H58 H 0.10684 0.7513 0.22989 0.0
H59 H 0.10089 0.66309 0.2166 0.0
H60 H 0.91691 0.46388 0.24714 0.0
H61 H 0.91127 0.499 0.27878 0.0
H62 H 0.09064 0.63058 0.28081 0.0
H63 H 0.09567 0.59443 0.24931 0.0
H64 H 0.92902 0.35213 0.2223 0.0
H65 H 0.93532 0.29226 0.24503 0.0
H66 H 0.10016 0.43561 0.26698 0.0
H67 H 0.0948 0.49425 0.24378 0.0
O68 O 0.97069 0.43548 0.0953 0.0
O69 O 0.05918 0.45453 0.10076 0.0
O70 O 0.97951 0.76116 0.24994 0.0
O71 O 0.07264 0.8129 0.2464 0.0
C72 C 0.0069 0.45383 0.19885 0.0
C73 C 0.00906 0.49338 0.18669 0.0
C74 C 0.01061 0.5436 0.19401 0.0
C75 C 0.00876 0.55386 0.21339 0.0
C76 C 0.00703 0.51468 0.22555 0.0
C77 C 0.00725 0.4652 0.21838 0.0
C78 C 0.00664 0.40202 0.19085 0.0
C79 C 0.95979 0.3595 0.17911 0.0
C80 C 0.96361 0.31693 0.16846 0.0
C81 C 0.01451 0.31631 0.1694 0.0
C82 C 0.05964 0.35621 0.18228 0.0
C83 C 0.0559 0.39903 0.19286 0.0
C84 C 0.01132 0.48306 0.16622 0.0
C85 C 0.96475 0.46961 0.15388 0.0
C86 C 0.96645 0.45901 0.13467 0.0
C87 C 0.01483 0.46177 0.12747 0.0
C88 C 0.06157 0.47558 0.13992 0.0
C89 C 0.05985 0.48629 0.15911 0.0
C90 C 0.01809 0.58759 0.18154 0.0
C91 C 0.97446 0.59886 0.17828 0.0
C92 C 0.98328 0.64282 0.16741 0.0
C93 C 0.03556 0.67562 0.15948 0.0
C94 C 0.07926 0.66418 0.16287 0.0
C95 C 0.07045 0.62045 0.17377 0.0
C96 C 0.01168 0.60741 0.22116 0.0
C97 C 0.9635 0.60501 0.22824 0.0
C98 C 0.96676 0.65525 0.23595 0.0
C99 C 0.01834 0.70878 0.23667 0.0
C100 C 0.0665 0.71086 0.22955 0.0
C101 C 0.06317 0.6606 0.22187 0.0
C102 C 0.00646 0.52722 0.24592 0.0
C103 C 0.95518 0.49934 0.25467 0.0
C104 C 0.95199 0.52004 0.27269 0.0
C105 C 0.00027 0.56908 0.28209 0.0
C106 C 0.05265 0.59317 0.27386 0.0
C107 C 0.05568 0.57267 0.25588 0.0
C108 C 0.01128 0.42765 0.23148 0.0
C109 C 0.9668 0.37023 0.23184 0.0
C110 C 0.97049 0.33617 0.24479 0.0
C111 C 0.01846 0.35954 0.25767 0.0
C112 C 0.06275 0.41686 0.25723 0.0
C113 C 0.05964 0.45033 0.24405 0.0
C114 C 0.01645 0.4504 0.10706 0.0
C115 C 0.02209 0.76234 0.24476 0.0
H116 H 0.61879 0.06149 0.41936 0.0
H117 H 0.3275 0.12882 0.58958 0.0
H118 H 0.60033 0.95002 0.51029 0.0
H119 H 0.67046 0.93704 0.49416 0.0
H120 H 0.80678 0.09249 0.52513 0.0
H121 H 0.7357 0.10486 0.54142 0.0
H122 H 0.52539 0.99121 0.49153 0.0
H123 H 0.54937 0.00672 0.45909 0.0
H124 H 0.71189 0.15885 0.47841 0.0
H125 H 0.68701 0.14325 0.51078 0.0
H126 H 0.43521 0.99614 0.51663 0.0
H127 H 0.38359 0.01916 0.4944 0.0
H128 H 0.53361 0.18849 0.49276 0.0
H129 H 0.58504 0.16506 0.51544 0.0
H130 H 0.42321 0.96375 0.55458 0.0
H131 H 0.34724 0.97239 0.5684 0.0
H132 H 0.45521 0.15805 0.57217 0.0
H133 H 0.53129 0.14874 0.55868 0.0
H134 H 0.50016 0.92333 0.56889 0.0
H135 H 0.43493 0.88907 0.59387 0.0
H136 H 0.50346 0.06562 0.61663 0.0
H137 H 0.56822 0.09884 0.59183 0.0
H138 H 0.61511 0.93378 0.55278 0.0
H139 H 0.68245 0.92165 0.57213 0.0
H140 H 0.74255 0.08799 0.60249 0.0
H141 H 0.67655 0.10013 0.5829 0.0
O142 O 0.61004 0.05636 0.43229 0.0
O143 O 0.69325 0.13393 0.44295 0.0
O144 O 0.30518 0.02873 0.58349 0.0
O145 O 0.35668 0.12417 0.58398 0.0
C146 C 0.61969 0.03916 0.5348 0.0
C147 C 0.58993 0.05622 0.52318 0.0
C148 C 0.54583 0.0627 0.53017 0.0
C149 C 0.53034 0.05033 0.54856 0.0
C150 C 0.5601 0.03309 0.56017 0.0
C151 C 0.60583 0.02911 0.55348 0.0
C152 C 0.66304 0.0287 0.52682 0.0
C153 C 0.64537 0.98104 0.51367 0.0
C154 C 0.68552 0.9741 0.50433 0.0
C155 C 0.74416 0.01498 0.50796 0.0
C156 C 0.76181 0.06084 0.52194 0.0
C157 C 0.72147 0.0679 0.53125 0.0
C158 C 0.60439 0.0662 0.50348 0.0
C159 C 0.56598 0.02805 0.48871 0.0
C160 C 0.57988 0.03692 0.4702 0.0
C161 C 0.63257 0.08402 0.46615 0.0
C162 C 0.67096 0.12216 0.48103 0.0
C163 C 0.65692 0.11333 0.49953 0.0
C164 C 0.51363 0.0791 0.51779 0.0
C165 C 0.45646 0.03876 0.51188 0.0
C166 C 0.42692 0.05226 0.49921 0.0
C167 C 0.45425 0.10641 0.49214 0.0
C168 C 0.51144 0.14682 0.49818 0.0
C169 C 0.54079 0.13349 0.51106 0.0
C170 C 0.48286 0.05562 0.55577 0.0
C171 C 0.43037 0.00623 0.55843 0.0
C172 C 0.38705 0.0113 0.56631 0.0
C173 C 0.39523 0.06596 0.57145 0.0
C174 C 0.44754 0.11534 0.5684 0.0
C175 C 0.49098 0.11018 0.56064 0.0
C176 C 0.53855 0.01353 0.57853 0.0
C177 C 0.50303 0.9543 0.57987 0.0
C178 C 0.46546 0.93485 0.59404 0.0
C179 C 0.46353 0.9743 0.60719 0.0
C180 C 0.50389 0.03357 0.60699 0.0
C181 C 0.54128 0.05294 0.59277 0.0
C182 C 0.64149 0.01812 0.56632 0.0
C183 C 0.64287 0.96743 0.56364 0.0
C184 C 0.68129 0.96064 0.57467 0.0
C185 C 0.71916 0.00456 0.5884 0.0
C186 C 0.71574 0.05419 0.59156 0.0
C187 C 0.67734 0.06088 0.58057 0.0
C188 C 0.64732 0.09314 0.44647 0.0
C189 C 0.34954 0.07158 0.57999 0.0
H190 H 0.71571 0.68551 -4e-05 0.0
H191 H 0.34678 0.17062 0.86435 0.0
H192 H 0.63733 0.69473 0.89436 0.0
H193 H 0.71244 0.79038 0.90836 0.0
H194 H 0.83972 0.74852 0.8947 0.0
H195 H 0.76429 0.65296 0.88071 0.0
H196 H 0.58714 0.60853 0.92683 0.0
H197 H 0.62968 0.64646 0.95887 0.0
H198 H 0.77475 0.6331 0.94485 0.0
H199 H 0.73114 0.59409 0.913 0.0
H200 H 0.4915 0.49436 0.91417 0.0
H201 H 0.458 0.44205 0.94183 0.0
H202 H 0.59526 0.4083 0.94094 0.0
H203 H 0.6289 0.46153 0.91327 0.0
H204 H 0.44767 0.4528 0.86769 0.0
H205 H 0.3673 0.35316 0.86206 0.0
H206 H 0.48056 0.29253 0.87506 0.0
H207 H 0.56057 0.39229 0.88043 0.0
H208 H 0.519 0.55065 0.84006 0.0
H209 H 0.463 0.49942 0.81086 0.0
H210 H 0.52537 0.38281 0.81199 0.0
H211 H 0.58155 0.43512 0.84134 0.0
H212 H 0.63279 0.67397 0.85157 0.0
H213 H 0.68715 0.72658 0.82598 0.0
H214 H 0.74186 0.60474 0.81607 0.0
H215 H 0.68825 0.55329 0.84191 0.0
O216 O 0.70019 0.67155 0.98713 0.0
O217 O 0.77876 0.67491 0.9783 0.0
O218 O 0.32123 0.24373 0.85998 0.0
O219 O 0.37767 0.21037 0.86657 0.0
C220 C 0.65005 0.60566 0.8831 0.0
C221 C 0.62909 0.57301 0.89848 0.0
C222 C 0.58382 0.51519 0.8956 0.0
C223 C 0.55871 0.49006 0.87742 0.0
C224 C 0.58073 0.52233 0.86196 0.0
C225 C 0.6274 0.57972 0.86478 0.0
C226 C 0.69558 0.66708 0.88668 0.0
C227 C 0.68161 0.70704 0.89385 0.0
C228 C 0.7244 0.76144 0.90186 0.0
C229 C 0.78147 0.77601 0.90309 0.0
C230 C 0.79579 0.73772 0.89438 0.0
C231 C 0.75297 0.68349 0.8862 0.0
C232 C 0.65611 0.59865 0.91764 0.0
C233 C 0.62811 0.61389 0.93073 0.0
C234 C 0.6525 0.63552 0.949 0.0
C235 C 0.70552 0.6426 0.95443 0.0
C236 C 0.73388 0.62817 0.94113 0.0
C237 C 0.70918 0.60606 0.92293 0.0
C238 C 0.56241 0.48147 0.91181 0.0
C239 C 0.51435 0.47582 0.92003 0.0
C240 C 0.49589 0.44669 0.93596 0.0
C241 C 0.52517 0.42251 0.94381 0.0
C242 C 0.57263 0.42733 0.93529 0.0
C243 C 0.59158 0.45726 0.91951 0.0
C244 C 0.50977 0.42966 0.87455 0.0
C245 C 0.45493 0.41789 0.86934 0.0
C246 C 0.40916 0.36098 0.86614 0.0
C247 C 0.4175 0.31484 0.86813 0.0
C248 C 0.47261 0.32697 0.87343 0.0
C249 C 0.51833 0.3839 0.87658 0.0
C250 C 0.55375 0.49618 0.84287 0.0
C251 C 0.52138 0.51474 0.83375 0.0
C252 C 0.48922 0.48507 0.81696 0.0
C253 C 0.48916 0.43626 0.80901 0.0
C254 C 0.52431 0.42001 0.81776 0.0
C255 C 0.55635 0.4497 0.83452 0.0
C256 C 0.65666 0.60992 0.84854 0.0
C257 C 0.65613 0.65851 0.84371 0.0
C258 C 0.68681 0.68811 0.82892 0.0
C259 C 0.71826 0.6692 0.81876 0.0
C260 C 0.71775 0.62001 0.82356 0.0
C261 C 0.68717 0.59059 0.83827 0.0
C262 C 0.7306 0.66409 0.97396 0.0
C263 C 0.36912 0.2543 0.86464 0.0
H264 H 0.99186 0.07804 0.07448 0.0
C265 C 0.03779 0.09718 0.07446 0.0
H266 H 0.11887 0.16343 0.08639 0.0
H267 H 0.04862 0.33681 0.11741 0.0
H268 H 0.10255 0.38461 0.09141 0.0
H269 H 0.13256 0.33509 0.06872 0.0
H270 H 0.1094 0.23759 0.07195 0.0
C271 C 0.07286 0.14332 0.08655 0.0
C272 C 0.05109 0.17104 0.09966 0.0
C273 C 0.06415 0.22771 0.09739 0.0
C274 C 0.046 0.25589 0.1103 0.0
C275 C 0.06065 0.31297 0.10789 0.0
C276 C 0.09165 0.34101 0.09304 0.0
C277 C 0.10867 0.31317 0.08027 0.0
C278 C 0.09518 0.25721 0.08234 0.0
H279 H 0.05558 0.26759 0.16066 0.0
C280 C 0.02306 0.27687 0.1565 0.0
H281 H 0.96846 0.27066 0.13393 0.0
H282 H 0.02298 0.06419 0.10914 0.0
H283 H 0.96686 0.01547 0.1346 0.0
H284 H 0.93027 0.06216 0.1558 0.0
H285 H 0.95049 0.15838 0.15182 0.0
C286 C 0.99731 0.25789 0.13912 0.0
C287 C 0.0146 0.22725 0.12543 0.0
C288 C 0.00061 0.17021 0.12753 0.0
C289 C 0.01976 0.14241 0.11483 0.0
C290 C 0.00778 0.08661 0.11789 0.0
C291 C 0.97587 0.05823 0.13255 0.0
C292 C 0.95542 0.08459 0.14452 0.0
C293 C 0.96755 0.13993 0.14213 0.0
H294 H 0.92022 0.01949 0.41017 0.0
C295 C 0.94659 0.00292 0.41466 0.0
H296 H 0.96808 0.9678 0.43643 0.0
H297 H 0.84367 0.1 0.4765 0.0
H298 H 0.92721 0.18851 0.46927 0.0
H299 H 0.00191 0.18645 0.45155 0.0
H300 H 0.99272 0.09567 0.44059 0.0
C301 C 0.94297 0.98567 0.43187 0.0
C302 C 0.90243 0.98754 0.44477 0.0
C303 C 0.91001 0.04113 0.45188 0.0
C304 C 0.86846 0.0424 0.46294 0.0
C305 C 0.87507 0.0964 0.46876 0.0
C306 C 0.9227 0.14765 0.4646 0.0
C307 C 0.96463 0.14648 0.45456 0.0
C308 C 0.9586 0.09401 0.44824 0.0
H309 H 0.83058 0.03114 0.50345 0.0
C310 C 0.78749 0.01177 0.49699 0.0
H311 H 0.73451 0.97254 0.47188 0.0
H312 H 0.87654 0.87773 0.43402 0.0
H313 H 0.79537 0.78919 0.44257 0.0
H314 H 0.72546 0.7915 0.46288 0.0
H315 H 0.73611 0.88239 0.47469 0.0
C316 C 0.77666 0.99062 0.47888 0.0
C317 C 0.82108 0.9901 0.46769 0.0
C318 C 0.81461 0.93666 0.46112 0.0
C319 C 0.8553 0.93536 0.44961 0.0
C320 C 0.84723 0.8813 0.44297 0.0
C321 C 0.80078 0.8301 0.44775 0.0
C322 C 0.76139 0.8314 0.45917 0.0
C323 C 0.76798 0.88389 0.46582 0.0
H324 H 0.92191 0.8787 0.72963 0.0
C325 C 0.95904 0.8864 0.7381 0.0
H326 H 0.98957 0.87614 0.76389 0.0
H327 H 0.79027 0.84247 0.8114 0.0
H328 H 0.85958 0.94335 0.82086 0.0
H329 H 0.94592 0.99684 0.80376 0.0
H330 H 0.96363 0.94961 0.77716 0.0
C331 C 0.95253 0.86645 0.75494 0.0
C332 C 0.89621 0.83664 0.763 0.0
C333 C 0.88592 0.86525 0.77823 0.0
C334 C 0.8359 0.83465 0.78794 0.0
C335 C 0.82744 0.86377 0.80345 0.0
C336 C 0.86686 0.9217 0.80902 0.0
C337 C 0.91549 0.9518 0.7994 0.0
C338 C 0.9252 0.92413 0.7842 0.0
H339 H 0.78935 0.69322 0.80075 0.0
C340 C 0.75571 0.70154 0.8041 0.0
H341 H 0.71891 0.75069 0.79767 0.0
H342 H 0.90109 0.76983 0.73356 0.0
H343 H 0.82842 0.67102 0.72282 0.0
H344 H 0.73932 0.61965 0.73877 0.0
H345 H 0.72284 0.66678 0.76576 0.0
C346 C 0.75167 0.74075 0.795 0.0
C347 C 0.79648 0.77556 0.78239 0.0
C348 C 0.80422 0.74844 0.76612 0.0
C349 C 0.85468 0.77871 0.75657 0.0
C350 C 0.86291 0.74944 0.74106 0.0
C351 C 0.82159 0.69262 0.73478 0.0
C352 C 0.77148 0.66364 0.74378 0.0
C353 C 0.76269 0.691 0.7593 0.0
H354 H 0.18304 0.90823 0.07617 0.0
C355 C 0.16273 0.93347 0.07667 0.0
H356 H 0.10431 0.94949 0.09031 0.0
H357 H 0.98346 0.69487 0.11537 0.0
H358 H 0.91125 0.6865 0.09309 0.0
H359 H 0.92998 0.76782 0.07529 0.0
H360 H 0.02132 0.85789 0.07961 0.0
C361 C 0.12718 0.92681 0.09004 0.0
C362 C 0.11283 0.88238 0.10315 0.0
C363 C 0.05846 0.83089 0.10096 0.0
C364 C 0.0473 0.78445 0.11149 0.0
C365 C 0.99378 0.73222 0.10821 0.0
C366 C 0.95199 0.72666 0.09534 0.0
C367 C 0.96257 0.7724 0.0853 0.0
C368 C 0.01519 0.82389 0.08793 0.0
H369 H 0.01797 0.74159 0.15088 0.0
C370 C 0.04392 0.72267 0.14833 0.0
H371 H 0.10639 0.72278 0.13164 0.0
H372 H 0.2183 0.97847 0.11253 0.0
H373 H 0.29001 0.98823 0.13549 0.0
H374 H 0.27095 0.9077 0.15376 0.0
H375 H 0.1801 0.81706 0.14924 0.0
C376 C 0.0806 0.74137 0.13485 0.0
C377 C 0.09015 0.79045 0.12454 0.0
C378 C 0.14358 0.84298 0.12733 0.0
C379 C 0.15481 0.88916 0.1167 0.0
C380 C 0.20812 0.94157 0.11996 0.0
C381 C 0.24948 0.94787 0.13318 0.0
C382 C 0.23872 0.90255 0.14348 0.0
C383 C 0.18644 0.85068 0.1407 0.0
H384 H 0.19276 0.0965 0.41765 0.0
C385 C 0.21072 0.09399 0.40456 0.0
H386 H 0.27953 0.09418 0.39207 0.0
H387 H 0.39343 0.20071 0.47882 0.0
H388 H 0.40158 0.28918 0.4704 0.0
H389 H 0.35942 0.29198 0.44006 0.0
H390 H 0.30848 0.20615 0.41796 0.0
C391 C 0.26224 0.09964 0.40495 0.0
C392 C 0.29022 0.09962 0.42286 0.0
C393 C 0.32045 0.15027 0.43544 0.0
C394 C 0.34575 0.14892 0.45276 0.0
C395 C 0.37454 0.19971 0.46529 0.0
C396 C 0.37928 0.25067 0.46067 0.0
C397 C 0.35544 0.25222 0.4436 0.0
C398 C 0.32626 0.2027 0.43107 0.0
H399 H 0.45232 0.1479 0.46705 0.0
C400 C 0.42583 0.11938 0.47714 0.0
H401 H 0.34152 0.06697 0.48494 0.0
H402 H 0.23416 0.99464 0.4019 0.0
H403 H 0.2264 0.90647 0.41019 0.0
H404 H 0.27148 0.90437 0.44001 0.0
H405 H 0.3243 0.99032 0.46173 0.0
C406 C 0.36894 0.09496 0.47494 0.0
C407 C 0.34125 0.09705 0.45727 0.0
C408 C 0.31068 0.04632 0.44471 0.0
C409 C 0.28525 0.04765 0.42746 0.0
C410 C 0.25473 0.99627 0.41517 0.0
C411 C 0.24988 0.94527 0.41975 0.0
C412 C 0.2752 0.94408 0.43654 0.0
C413 C 0.30536 0.99383 0.4489 0.0
H414 H 0.19891 0.19279 0.72447 0.0
C415 C 0.20477 0.16443 0.73287 0.0
H416 H 0.25099 0.15871 0.75572 0.0
H417 H 0.46775 0.40486 0.75407 0.0
H418 H 0.49028 0.35922 0.72815 0.0
H419 H 0.41754 0.2628 0.71318 0.0
H420 H 0.32175 0.21167 0.72389 0.0
C421 C 0.24428 0.18668 0.7474 0.0
C422 C 0.28223 0.24942 0.7526 0.0
C423 C 0.33752 0.27872 0.74602 0.0
C424 C 0.37964 0.33375 0.75482 0.0
C425 C 0.43468 0.36233 0.74806 0.0
C426 C 0.44797 0.33677 0.73317 0.0
C427 C 0.40699 0.28249 0.72473 0.0
C428 C 0.35231 0.25355 0.73103 0.0
H429 H 0.44706 0.35672 0.7897 0.0
C430 C 0.44952 0.39761 0.79286 0.0
H431 H 0.41262 0.44613 0.78557 0.0
H432 H 0.17735 0.20883 0.76602 0.0
H433 H 0.15354 0.25632 0.79091 0.0
H434 H 0.22689 0.35142 0.80654 0.0
H435 H 0.3243 0.39965 0.7974 0.0
C436 C 0.41308 0.40679 0.78302 0.0
C437 C 0.36648 0.35858 0.77038 0.0
C438 C 0.30943 0.33218 0.77553 0.0
C439 C 0.2672 0.27728 0.76661 0.0
C440 C 0.21099 0.25048 0.77245 0.0
C441 C 0.19679 0.27729 0.78666 0.0
C442 C 0.2381 0.33086 0.79546 0.0
C443 C 0.29389 0.35809 0.79008 0.0
H444 H 0.04356 0.07476 0.64299 0.0
C445 C 0.02477 0.04241 0.65282 0.0
H446 H 0.94847 0.97794 0.66299 0.0
H447 H 0.79815 0.07747 0.63882 0.0
H448 H 0.81191 0.10364 0.67234 0.0
H449 H 0.8795 0.09142 0.69177 0.0
H450 H 0.93363 0.05283 0.67782 0.0
C451 C 0.96765 0.00895 0.65277 0.0
C452 C 0.92877 0.01807 0.64072 0.0
C453 C 0.89766 0.04097 0.6491 0.0
C454 C 0.85917 0.04861 0.63789 0.0
C455 C 0.82836 0.07122 0.64665 0.0
C456 C 0.83577 0.08636 0.66589 0.0
C457 C 0.87377 0.07942 0.67683 0.0
C458 C 0.90448 0.05707 0.66863 0.0
H459 H 0.75156 0.95366 0.60064 0.0
C460 C 0.76127 0.99722 0.59928 0.0
H461 H 0.82348 0.08602 0.60534 0.0
H462 H 0.97897 0.96966 0.62037 0.0
H463 H 0.96711 0.94594 0.58673 0.0
H464 H 0.90364 0.96337 0.5671 0.0
H465 H 0.85105 0.00389 0.58101 0.0
C466 C 0.81167 0.04195 0.60679 0.0
C467 C 0.85177 0.03326 0.61832 0.0
C468 C 0.88333 0.01096 0.60988 0.0
C469 C 0.92135 0.00264 0.62113 0.0
C470 C 0.95073 0.97832 0.61244 0.0
C471 C 0.94413 0.96429 0.59315 0.0
C472 C 0.90829 0.97396 0.5821 0.0
C473 C 0.87816 0.99704 0.59028 0.0
H474 H 0.05988 0.93663 0.98003 0.0
C475 C 0.05702 0.9651 0.99076 0.0
H476 H 0.01054 0.00374 -0.00054 0.0
H477 H 0.94424 0.90127 0.90825 0.0
H478 H 0.03865 0.98169 0.90339 0.0
H479 H 0.10273 0.0485 0.9301 0.0
H480 H 0.07303 0.0349 0.96186 0.0
C481 C 0.01522 0.97646 0.9888 0.0
C482 C 0.97216 0.9476 0.97254 0.0
C483 C 0.9894 0.95746 0.95407 0.0
C484 C 0.95209 0.91977 0.93866 0.0
C485 C 0.97101 0.92897 0.92042 0.0
C486 C 0.02494 0.97498 0.91745 0.0
C487 C 0.06106 0.01256 0.93249 0.0
C488 C 0.04372 0.00409 0.95063 0.0
H489 H 0.81783 0.86441 0.91712 0.0
C490 C 0.82378 0.82798 0.91532 0.0
H491 H 0.86653 0.78918 0.92615 0.0
H492 H 0.92218 0.9245 0.00582 0.0
H493 H 0.82457 0.85027 0.01027 0.0
H494 H 0.75898 0.7866 0.9834 0.0
H495 H 0.79099 0.79522 0.95197 0.0
C496 C 0.86305 0.82711 0.92656 0.0
C497 C 0.89733 0.87341 0.94179 0.0
C498 C 0.87771 0.86773 0.96 0.0
C499 C 0.91525 0.90505 0.97544 0.0
C500 C 0.89528 0.89748 0.99358 0.0
C501 C 0.83938 0.85508 0.99633 0.0
C502 C 0.80249 0.81902 0.9812 0.0
C503 C 0.82135 0.8246 0.96324 0.0
H504 H 0.96064 0.82844 0.35057 0.0
C505 C 0.0047 0.85202 0.34691 0.0
H506 H 0.0713 0.84678 0.33482 0.0
H507 H 0.97701 0.58555 0.33794 0.0
H508 H 0.0303 0.61944 0.36844 0.0
H509 H 0.0667 0.71862 0.38259 0.0
H510 H 0.04972 0.78435 0.36642 0.0
C511 C 0.02686 0.82384 0.33809 0.0
C512 C 0.99295 0.76115 0.33214 0.0
C513 C 0.00273 0.72339 0.34185 0.0
C514 C 0.98243 0.66661 0.33362 0.0
C515 C 0.99271 0.62954 0.34352 0.0
C516 C 0.02285 0.64836 0.36102 0.0
C517 C 0.04333 0.70421 0.36899 0.0
C518 C 0.03353 0.74153 0.35957 0.0
H519 H 0.03769 0.63632 0.30584 0.0
C520 C 0.99724 0.60116 0.29915 0.0
H521 H 0.90787 0.5656 0.29742 0.0
H522 H 0.95912 0.82003 0.31131 0.0
H523 H 0.90126 0.78422 0.28187 0.0
H524 H 0.86601 0.68559 0.26754 0.0
H525 H 0.88855 0.62242 0.28249 0.0
C526 C 0.949 0.59809 0.30425 0.0
C527 C 0.9535 0.64834 0.31557 0.0
C528 C 0.93782 0.68375 0.3069 0.0
C529 C 0.95793 0.74053 0.31517 0.0
C530 C 0.94451 0.77634 0.30575 0.0
C531 C 0.91135 0.75634 0.28882 0.0
C532 C 0.89149 0.70082 0.28076 0.0
C533 C 0.90484 0.66495 0.28953 0.0
H534 H 0.23569 0.93526 0.69107 0.0
C535 C 0.20292 0.93961 0.68394 0.0
H536 H 0.17104 0.94788 0.65815 0.0
H537 H 0.41228 0.07211 0.62517 0.0
H538 H 0.38385 0.14227 0.62415 0.0
H539 H 0.29509 0.12517 0.63741 0.0
H540 H 0.23425 0.03782 0.6517 0.0
C541 C 0.20261 0.94198 0.66535 0.0
C542 C 0.25195 0.94839 0.65522 0.0
C543 C 0.28725 0.00016 0.647 0.0
C544 C 0.33912 0.01069 0.63975 0.0
C545 C 0.37309 0.06232 0.63132 0.0
C546 C 0.35716 0.10298 0.63054 0.0
C547 C 0.30719 0.09332 0.63799 0.0
C548 C 0.27255 0.04273 0.64616 0.0
H549 H 0.37411 0.91402 0.61291 0.0
C550 C 0.41321 0.95332 0.61848 0.0
H551 H 0.44987 0.02238 0.63988 0.0
H552 H 0.18863 0.84004 0.66632 0.0
H553 H 0.2183 0.77063 0.66819 0.0
H554 H 0.31258 0.79288 0.65849 0.0
H555 H 0.3771 0.88393 0.64645 0.0
C556 C 0.41164 0.98314 0.63391 0.0
C557 C 0.35621 0.97003 0.64105 0.0
C558 C 0.32021 0.91759 0.64879 0.0
C559 C 0.26721 0.90605 0.65535 0.0
C560 C 0.23048 0.85198 0.66198 0.0
C561 C 0.2468 0.81164 0.66299 0.0
C562 C 0.29978 0.82407 0.65745 0.0
C563 C 0.33627 0.87638 0.65045 0.0
H564 H 0.30973 0.23122 0.03377 0.0
C565 C 0.31392 0.19554 0.02824 0.0
H566 H 0.35603 0.16895 0.0096 0.0
H567 H 0.37681 0.37706 0.9646 0.0
H568 H 0.2737 0.31928 0.96019 0.0
H569 H 0.21924 0.23213 0.97655 0.0
H570 H 0.26737 0.2028 0.99749 0.0
C571 C 0.35148 0.20414 0.0154 0.0
C572 C 0.38326 0.25938 0.00693 0.0
C573 C 0.3539 0.27542 0.99454 0.0
C574 C 0.38529 0.32469 0.9847 0.0
C575 C 0.3552 0.33985 0.97236 0.0
C576 C 0.29592 0.30701 0.96967 0.0
C577 C 0.26528 0.25805 0.9789 0.0
C578 C 0.29365 0.242 0.99108 0.0
H579 H 0.50907 0.3512 0.96034 0.0
C580 C 0.50426 0.38825 0.95993 0.0
H581 H 0.47327 0.43688 0.97354 0.0
H582 H 0.45172 0.24264 0.03058 0.0
H583 H 0.55525 0.30129 0.03506 0.0
H584 H 0.60957 0.38648 0.01776 0.0
H585 H 0.56067 0.41344 0.99583 0.0
C586 C 0.47772 0.39958 0.97348 0.0
C587 C 0.44574 0.35619 0.98668 0.0
C588 C 0.47485 0.34187 -0.0003 0.0
C589 C 0.44353 0.29317 0.00979 0.0
C590 C 0.47359 0.27916 0.02251 0.0
C591 C 0.53292 0.31253 0.02525 0.0
C592 C 0.56352 0.36048 0.01549 0.0
C593 C 0.53503 0.37527 0.00288 0.0
H594 H 0.09527 0.13272 0.30896 0.0
C595 C 0.07443 0.12585 0.322 0.0
H596 H 0.02061 0.14176 0.33846 0.0
H597 H 0.11762 0.32316 0.27101 0.0
H598 H 0.21213 0.36036 0.28577 0.0
H599 H 0.22567 0.31946 0.31355 0.0
H600 H 0.14489 0.23965 0.32622 0.0
C601 C 0.0425 0.14906 0.32565 0.0
C602 C 0.03338 0.18194 0.31172 0.0
C603 C 0.0806 0.23165 0.30549 0.0
C604 C 0.07227 0.25838 0.29051 0.0
C605 C 0.1209 0.30381 0.28321 0.0
C606 C 0.17557 0.32522 0.29142 0.0
C607 C 0.18323 0.30197 0.30698 0.0
C608 C 0.13649 0.25576 0.31399 0.0
H609 H 0.04584 0.34894 0.28542 0.0
C610 C 0.02332 0.3259 0.27202 0.0
H611 H 0.98485 0.2464 0.25516 0.0
H612 H 0.93337 0.08835 0.32056 0.0
H613 H 0.83813 0.05586 0.3074 0.0
H614 H 0.82294 0.10739 0.28327 0.0
H615 H 0.903 0.19127 0.27197 0.0
C616 C 0.00644 0.27008 0.26857 0.0
C617 C 0.0161 0.23903 0.28305 0.0
C618 C 0.9687 0.19071 0.28976 0.0
C619 C 0.97738 0.16178 0.30398 0.0
C620 C 0.92933 0.11261 0.31002 0.0
C621 C 0.87434 0.09339 0.30256 0.0
C622 C 0.86579 0.12236 0.28896 0.0
C623 C 0.9122 0.17045 0.28258 0.0
loop_
_geom_bond_atom_site_label_1
_geom_bond_atom_site_label_2
_geom_bond_distance
_geom_bond_site_symmetry_2
_ccdc_geom_bond_type
Zn0 O3 2.031 . S
Zn0 O5 2.049 1_565 S
Zn0 O10 2.067 . S
Zn1 O2 1.962 . S
Zn1 O4 1.986 . S
Zn1 O6 1.996 . S
Zn1 O9 1.943 . S
O2 Zn1 1.962 . S
O2 C7 1.254 1_545 S
O3 Zn0 2.031 . S
O3 C7 1.269 . S
O4 Zn1 1.986 . S
O4 C11 1.262 . S
O5 Zn0 2.049 1_545 S
O5 C13 1.260 . S
O6 Zn1 1.996 . S
O6 C13 1.257 . S
C7 O2 1.254 1_565 S
C7 O3 1.269 . S
C8 O9 1.249 1_565 S
C8 O10 1.270 . S
O9 Zn1 1.943 . S
O9 C8 1.249 1_545 S
O10 Zn0 2.067 . S
O10 C8 1.270 . S
C11 O4 1.262 . S
C11 O12 1.232 . S
O12 C11 1.232 . S
C13 O5 1.260 . S
C13 O6 1.257 . S
Zn14 O17 2.031 . S
Zn14 O19 2.049 . S
Zn14 O24 2.067 1_545 S
Zn15 O16 1.962 . S
Zn15 O18 1.986 1_455 S
Zn15 O20 1.996 . S
Zn15 O23 1.943 1_445 S
O16 Zn15 1.962 . S
O16 C21 1.254 . S
O17 Zn14 2.031 . S
O17 C21 1.269 . S
O18 Zn15 1.986 1_655 S
O18 C25 1.262 1_545 S
O19 Zn14 2.049 . S
O19 C27 1.260 . S
O20 Zn15 1.996 . S
O20 C27 1.257 . S
C21 O16 1.254 . S
C21 O17 1.269 . S
C22 O23 1.249 1_455 S
C22 O24 1.270 . S
O23 Zn15 1.943 1_665 S
O23 C22 1.249 1_655 S
O24 Zn14 2.067 1_565 S
O24 C22 1.270 . S
C25 O18 1.262 1_565 S
C25 O26 1.232 . S
O26 C25 1.232 . S
C27 O19 1.260 . S
C27 O20 1.257 . S
Zn28 O31 2.031 1_565 S
Zn28 O33 2.049 . S
Zn28 O38 2.067 1_565 S
Zn29 O30 1.962 1_545 S
Zn29 O32 1.986 . S
Zn29 O34 1.996 1_545 S
Zn29 O37 1.943 . S
O30 Zn29 1.962 1_565 S
O30 C35 1.254 1_565 S
O31 Zn28 2.031 1_545 S
O31 C35 1.269 . S
O32 Zn29 1.986 . S
O32 C39 1.262 . S
O33 Zn28 2.049 . S
O33 C41 1.260 . S
O34 Zn29 1.996 1_565 S
O34 C41 1.257 . S
C35 O30 1.254 1_545 S
C35 O31 1.269 . S
C36 O37 1.249 . S
C36 O38 1.270 . S
O37 Zn29 1.943 . S
O37 C36 1.249 . S
O38 Zn28 2.067 1_545 S
O38 C36 1.270 . S
C39 O32 1.262 . S
C39 O40 1.232 . S
O40 C39 1.232 . S
C41 O33 1.260 . S
C41 O34 1.257 . S
H42 O68 0.856 . S
H43 O71 0.854 . S
H44 C79 0.930 1_655 S
H45 C80 0.930 1_655 S
H46 C82 0.930 . S
H47 C83 0.930 . S
H48 C85 0.931 . S
H49 C86 0.930 . S
H50 C88 0.930 . S
H51 C89 0.929 . S
H52 C91 0.930 . S
H53 C92 0.931 . S
H54 C94 0.930 . S
H55 C95 0.929 . S
H56 C97 0.931 1_655 S
H57 C98 0.930 1_655 S
H58 C100 0.930 . S
H59 C101 0.932 . S
H60 C103 0.930 1_655 S
H61 C104 0.929 . S
H62 C106 0.931 . S
H63 C107 0.930 . S
H64 C109 0.929 1_655 S
H65 C110 0.931 1_655 S
H66 C112 0.930 . S
H67 C113 0.929 . S
O68 H42 0.856 . S
O68 C114 1.300 . S
O69 C114 1.209 . S
O70 C115 1.199 . S
O71 H43 0.854 . S
O71 C115 1.297 . S
C72 C73 1.404 . S
C72 C77 1.397 . S
C72 C78 1.492 . S
C73 C72 1.404 . S
C73 C74 1.396 . S
C73 C84 1.492 . S
C74 C73 1.396 . S
C74 C75 1.397 . S
C74 C90 1.509 . S
C75 C74 1.397 . S
C75 C76 1.412 . S
C75 C96 1.485 . S
C76 C75 1.412 . S
C76 C77 1.388 . S
C76 C102 1.490 . S
C77 C72 1.397 . S
C77 C76 1.388 . S
C77 C108 1.519 . S
C78 C72 1.492 . S
C78 C79 1.363 . S
C78 C83 1.390 . S
C79 H44 0.930 1_455 S
C79 C78 1.363 . S
C79 C80 1.372 . S
C80 H45 0.930 1_455 S
C80 C79 1.372 . S
C80 C81 1.383 . S
C81 C80 1.383 . S
C81 C82 1.395 . S
C82 H46 0.930 . S
C82 C81 1.395 . S
C82 C83 1.362 . S
C83 H47 0.930 . S
C83 C78 1.390 . S
C83 C82 1.362 . S
C84 C73 1.492 . S
C84 C85 1.377 . S
C84 C89 1.397 . S
C85 H48 0.931 . S
C85 C84 1.377 . S
C85 C86 1.376 . S
C86 H49 0.930 . S
C86 C85 1.376 . S
C86 C87 1.376 . S
C87 C86 1.376 . S
C87 C88 1.378 . S
C87 C114 1.486 . S
C88 H50 0.930 . S
C88 C87 1.378 . S
C88 C89 1.376 . S
C89 H51 0.929 . S
C89 C84 1.397 . S
C89 C88 1.376 . S
C90 C74 1.509 . S
C90 C91 1.391 . S
C90 C95 1.386 . S
C91 H52 0.930 . S
C91 C90 1.391 . S
C91 C92 1.375 . S
C92 H53 0.931 . S
C92 C91 1.375 . S
C92 C93 1.375 . S
C93 C92 1.375 . S
C93 C94 1.361 . S
C94 H54 0.930 . S
C94 C93 1.361 . S
C94 C95 1.399 . S
C95 H55 0.929 . S
C95 C90 1.386 . S
C95 C94 1.399 . S
C96 C75 1.485 . S
C96 C97 1.394 . S
C96 C101 1.360 . S
C97 H56 0.931 1_455 S
C97 C96 1.394 . S
C97 C98 1.372 . S
C98 H57 0.930 1_455 S
C98 C97 1.372 . S
C98 C99 1.397 . S
C99 C98 1.397 . S
C99 C100 1.390 . S
C99 C115 1.476 . S
C100 H58 0.930 . S
C100 C99 1.390 . S
C100 C101 1.366 . S
C101 H59 0.932 . S
C101 C96 1.360 . S
C101 C100 1.366 . S
C102 C76 1.490 . S
C102 C103 1.380 . S
C102 C107 1.386 . S
C103 H60 0.930 1_455 S
C103 C102 1.380 . S
C103 C104 1.381 1_455 S
C104 H61 0.929 . S
C104 C103 1.381 1_655 S
C104 C105 1.371 1_655 S
C105 C104 1.371 1_455 S
C105 C106 1.380 . S
C106 H62 0.931 . S
C106 C105 1.380 . S
C106 C107 1.387 . S
C107 H63 0.930 . S
C107 C102 1.386 . S
C107 C106 1.387 . S
C108 C77 1.519 . S
C108 C109 1.377 . S
C108 C113 1.361 . S
C109 H64 0.929 1_455 S
C109 C108 1.377 . S
C109 C110 1.386 . S
C110 H65 0.931 1_455 S
C110 C109 1.386 . S
C110 C111 1.363 . S
C111 C110 1.363 . S
C111 C112 1.385 . S
C112 H66 0.930 . S
C112 C111 1.385 . S
C112 C113 1.396 . S
C113 H67 0.929 . S
C113 C108 1.361 . S
C113 C112 1.396 . S
C114 O68 1.300 . S
C114 O69 1.209 . S
C114 C87 1.486 . S
C115 O70 1.199 . S
C115 O71 1.297 . S
C115 C99 1.476 . S
H116 O142 0.856 . S
H117 O145 0.854 . S
H118 C153 0.930 . S
H119 C154 0.930 . S
H120 C156 0.930 . S
H121 C157 0.930 . S
H122 C159 0.931 1_565 S
H123 C160 0.930 1_565 S
H124 C162 0.930 . S
H125 C163 0.929 . S
H126 C165 0.930 1_565 S
H127 C166 0.931 1_565 S
H128 C168 0.930 . S
H129 C169 0.929 . S
H130 C171 0.949 . S
H131 C172 0.930 1_565 S
H132 C174 0.930 . S
H133 C175 0.932 . S
H134 C177 0.930 . S
H135 C178 0.929 . S
H136 C180 0.931 . S
H137 C181 0.930 . S
H138 C183 0.929 . S
H139 C184 0.920 1_565 S
H140 C186 0.930 . S
H141 C187 0.929 . S
O142 H116 0.856 . S
O142 C188 1.300 . S
O143 C188 1.209 . S
O144 C189 1.199 . S
O145 H117 0.854 . S
O145 C189 1.297 . S
C146 C147 1.404 . S
C146 C151 1.397 . S
C146 C152 1.492 . S
C147 C146 1.404 . S
C147 C148 1.396 . S
C147 C158 1.492 . S
C148 C147 1.396 . S
C148 C149 1.397 . S
C148 C164 1.509 . S
C149 C148 1.397 . S
C149 C150 1.412 . S
C149 C170 1.485 . S
C150 C149 1.412 . S
C150 C151 1.388 . S
C150 C176 1.490 . S
C151 C146 1.397 . S
C151 C150 1.388 . S
C151 C182 1.519 . S
C152 C146 1.492 . S
C152 C153 1.363 1_545 S
C152 C157 1.390 . S
C153 H118 0.930 . S
C153 C152 1.363 1_565 S
C153 C154 1.372 . S
C154 H119 0.930 . S
C154 C153 1.372 . S
C154 C155 1.383 1_565 S
C155 C154 1.383 1_545 S
C155 C156 1.395 . S
C156 H120 0.930 . S
C156 C155 1.395 . S
C156 C157 1.362 . S
C157 H121 0.930 . S
C157 C152 1.390 . S
C157 C156 1.362 . S
C158 C147 1.492 . S
C158 C159 1.377 . S
C158 C163 1.397 . S
C159 H122 0.931 1_545 S
C159 C158 1.377 . S
C159 C160 1.376 . S
C160 H123 0.930 1_545 S
C160 C159 1.376 . S
C160 C161 1.376 . S
C161 C160 1.376 . S
C161 C162 1.378 . S
C161 C188 1.486 . S
C162 H124 0.930 . S
C162 C161 1.378 . S
C162 C163 1.376 . S
C163 H125 0.929 . S
C163 C158 1.397 . S
C163 C162 1.376 . S
C164 C148 1.509 . S
C164 C165 1.391 . S
C164 C169 1.386 . S
C165 H126 0.930 1_545 S
C165 C164 1.391 . S
C165 C166 1.375 . S
C166 H127 0.931 1_545 S
C166 C165 1.375 . S
C166 C167 1.375 . S
C167 C166 1.375 . S
C167 C168 1.361 . S
C168 H128 0.930 . S
C168 C167 1.361 . S
C168 C169 1.399 . S
C169 H129 0.929 . S
C169 C164 1.386 . S
C169 C168 1.399 . S
C170 C149 1.485 . S
C170 C171 1.386 1_545 S
C170 C175 1.360 . S
C171 H130 0.949 . S
C171 C170 1.386 1_565 S
C171 C172 1.362 1_565 S
C172 H131 0.930 1_545 S
C172 C171 1.362 1_545 S
C172 C173 1.397 . S
C173 C172 1.397 . S
C173 C174 1.390 . S
C173 C189 1.476 . S
C174 H132 0.930 . S
C174 C173 1.390 . S
C174 C175 1.366 . S
C175 H133 0.932 . S
C175 C170 1.360 . S
C175 C174 1.366 . S
C176 C150 1.490 . S
C176 C177 1.380 1_545 S
C176 C181 1.386 . S
C177 H134 0.930 . S
C177 C176 1.380 1_565 S
C177 C178 1.381 . S
C178 H135 0.929 . S
C178 C177 1.381 . S
C178 C179 1.371 1_565 S
C179 C178 1.371 1_545 S
C179 C180 1.380 . S
C180 H136 0.931 . S
C180 C179 1.380 . S
C180 C181 1.387 . S
C181 H137 0.930 . S
C181 C176 1.386 . S
C181 C180 1.387 . S
C182 C151 1.519 . S
C182 C183 1.377 1_545 S
C182 C187 1.361 . S
C183 H138 0.929 . S
C183 C182 1.377 1_565 S
C183 C184 1.390 1_565 S
C184 H139 0.920 1_545 S
C184 C183 1.390 1_545 S
C184 C185 1.370 . S
C185 C184 1.370 . S
C185 C186 1.385 . S
C186 H140 0.930 . S
C186 C185 1.385 . S
C186 C187 1.396 . S
C187 H141 0.929 . S
C187 C182 1.361 . S
C187 C186 1.396 . S
C188 O142 1.300 . S
C188 O143 1.209 . S
C188 C161 1.486 . S
C189 O144 1.199 . S
C189 O145 1.297 . S
C189 C173 1.476 . S
H190 O216 0.856 1_554 S
H191 O219 0.854 . S
H192 C227 0.930 . S
H193 C228 0.930 . S
H194 C230 0.930 . S
H195 C231 0.930 . S
H196 C233 0.931 . S
H197 C234 0.930 . S
H198 C236 0.930 . S
H199 C237 0.929 . S
H200 C239 0.930 . S
H201 C240 0.931 . S
H202 C242 0.930 . S
H203 C243 0.929 . S
H204 C245 0.931 . S
H205 C246 0.930 . S
H206 C248 0.930 . S
H207 C249 0.932 . S
H208 C251 0.930 . S
H209 C252 0.929 . S
H210 C254 0.931 . S
H211 C255 0.930 . S
H212 C257 0.929 . S
H213 C258 0.931 . S
H214 C260 0.930 . S
H215 C261 0.929 . S
O216 H190 0.856 1_556 S
O216 C262 1.300 . S
O217 C262 1.209 . S
O218 C263 1.199 . S
O219 H191 0.854 . S
O219 C263 1.297 . S
C220 C221 1.404 . S
C220 C225 1.397 . S
C220 C226 1.492 . S
C221 C220 1.404 . S
C221 C222 1.396 . S
C221 C232 1.492 . S
C222 C221 1.396 . S
C222 C223 1.397 . S
C222 C238 1.509 . S
C223 C222 1.397 . S
C223 C224 1.412 . S
C223 C244 1.485 . S
C224 C223 1.412 . S
C224 C225 1.388 . S
C224 C250 1.490 . S
C225 C220 1.397 . S
C225 C224 1.388 . S
C225 C256 1.519 . S
C226 C220 1.492 . S
C226 C227 1.363 . S
C226 C231 1.390 . S
C227 H192 0.930 . S
C227 C226 1.363 . S
C227 C228 1.372 . S
C228 H193 0.930 . S
C228 C227 1.372 . S
C228 C229 1.383 . S
C229 C228 1.383 . S
C229 C230 1.395 . S
C230 H194 0.930 . S
C230 C229 1.395 . S
C230 C231 1.362 . S
C231 H195 0.930 . S
C231 C226 1.390 . S
C231 C230 1.362 . S
C232 C221 1.492 . S
C232 C233 1.377 . S
C232 C237 1.397 . S
C233 H196 0.931 . S
C233 C232 1.377 . S
C233 C234 1.376 . S
C234 H197 0.930 . S
C234 C233 1.376 . S
C234 C235 1.376 . S
C235 C234 1.376 . S
C235 C236 1.378 . S
C235 C262 1.486 . S
C236 H198 0.930 . S
C236 C235 1.378 . S
C236 C237 1.376 . S
C237 H199 0.929 . S
C237 C232 1.397 . S
C237 C236 1.376 . S
C238 C222 1.509 . S
C238 C239 1.391 . S
C238 C243 1.386 . S
C239 H200 0.930 . S
C239 C238 1.391 . S
C239 C240 1.375 . S
C240 H201 0.931 . S
C240 C239 1.375 . S
C240 C241 1.375 . S
C241 C240 1.375 . S
C241 C242 1.361 . S
C242 H202 0.930 . S
C242 C241 1.361 . S
C242 C243 1.399 . S
C243 H203 0.929 . S
C243 C238 1.386 . S
C243 C242 1.399 . S
C244 C223 1.485 . S
C244 C245 1.394 . S
C244 C249 1.360 . S
C245 H204 0.931 . S
C245 C244 1.394 . S
C245 C246 1.372 . S
C246 H205 0.930 . S
C246 C245 1.372 . S
C246 C247 1.397 . S
C247 C246 1.397 . S
C247 C248 1.390 . S
C247 C263 1.476 . S
C248 H206 0.930 . S
C248 C247 1.390 . S
C248 C249 1.366 . S
C249 H207 0.932 . S
C249 C244 1.360 . S
C249 C248 1.366 . S
C250 C224 1.490 . S
C250 C251 1.380 . S
C250 C255 1.386 . S
C251 H208 0.930 . S
C251 C250 1.380 . S
C251 C252 1.381 . S
C252 H209 0.929 . S
C252 C251 1.381 . S
C252 C253 1.371 . S
C253 C252 1.371 . S
C253 C254 1.380 . S
C254 H210 0.931 . S
C254 C253 1.380 . S
C254 C255 1.387 . S
C255 H211 0.930 . S
C255 C250 1.386 . S
C255 C254 1.387 . S
C256 C225 1.519 . S
C256 C257 1.377 . S
C256 C261 1.361 . S
C257 H212 0.929 . S
C257 C256 1.377 . S
C257 C258 1.386 . S
C258 H213 0.931 . S
C258 C257 1.386 . S
C258 C259 1.363 . S
C259 C258 1.363 . S
C259 C260 1.385 . S
C260 H214 0.930 . S
C260 C259 1.385 . S
C260 C261 1.396 . S
C261 H215 0.929 . S
C261 C256 1.361 . S
C261 C260 1.396 . S
C262 O216 1.300 . S
C262 O217 1.209 . S
C262 C235 1.486 . S
C263 O218 1.199 . S
C263 O219 1.297 . S
C263 C247 1.476 . S
H264 C265 0.951 . S
C265 H264 0.951 . S
C265 C271 1.265 . S
H266 C271 0.950 . S
H267 C275 0.949 . S
H268 C276 0.950 . S
H269 C277 0.951 . S
H270 C278 0.951 . S
C271 C265 1.265 . S
C271 H266 0.950 . S
C271 C272 1.478 . S
C272 C271 1.478 . S
C272 C273 1.397 . S
C272 C289 1.394 . S
C273 C272 1.397 . S
C273 C274 1.438 . S
C273 C278 1.429 . S
C274 C273 1.438 . S
C274 C275 1.428 . S
C274 C287 1.394 . S
C275 H267 0.949 . S
C275 C274 1.428 . S
C275 C276 1.345 . S
C276 H268 0.950 . S
C276 C275 1.345 . S
C276 C277 1.424 . S
C277 H269 0.951 . S
C277 C276 1.424 . S
C277 C278 1.347 . S
C278 H270 0.951 . S
C278 C273 1.429 . S
C278 C277 1.347 . S
H279 C280 0.951 . S
C280 H279 0.951 . S
C280 C286 1.265 . S
H281 C286 0.950 1_655 S
H282 C290 0.949 1_455 S
H283 C291 0.950 . S
H284 C292 0.951 . S
H285 C293 0.951 . S
C286 C280 1.265 . S
C286 H281 0.950 1_455 S
C286 C287 1.478 . S
C287 C274 1.394 . S
C287 C286 1.478 . S
C287 C288 1.397 . S
C288 C287 1.397 . S
C288 C289 1.438 . S
C288 C293 1.429 1_455 S
C289 C272 1.394 . S
C289 C288 1.438 . S
C289 C290 1.428 1_455 S
C290 H282 0.949 1_655 S
C290 C289 1.428 1_655 S
C290 C291 1.345 . S
C291 H283 0.950 . S
C291 C290 1.345 . S
C291 C292 1.424 . S
C292 H284 0.951 . S
C292 C291 1.424 . S
C292 C293 1.347 . S
C293 H285 0.951 . S
C293 C288 1.429 1_655 S
C293 C292 1.347 . S
H294 C295 0.951 . S
C295 H294 0.951 . S
C295 C301 1.265 . S
H296 C301 0.950 . S
H297 C305 0.949 . S
H298 C306 0.950 . S
H299 C307 0.951 1_455 S
H300 C308 0.951 . S
C301 C295 1.265 . S
C301 H296 0.950 . S
C301 C302 1.478 . S
C302 C301 1.478 . S
C302 C303 1.397 1_565 S
C302 C319 1.394 . S
C303 C302 1.397 1_545 S
C303 C304 1.438 . S
C303 C308 1.429 . S
C304 C303 1.438 . S
C304 C305 1.428 . S
C304 C317 1.394 . S
C305 H297 0.949 . S
C305 C304 1.428 . S
C305 C306 1.345 . S
C306 H298 0.950 . S
C306 C305 1.345 . S
C306 C307 1.424 . S
C307 H299 0.951 1_655 S
C307 C306 1.424 . S
C307 C308 1.347 . S
C308 H300 0.951 . S
C308 C303 1.429 . S
C308 C307 1.347 . S
H309 C310 0.951 . S
C310 H309 0.951 . S
C310 C316 1.265 . S
H311 C316 0.950 . S
H312 C320 0.949 . S
H313 C321 0.950 . S
H314 C322 0.951 . S
H315 C323 0.951 . S
C316 C310 1.265 . S
C316 H311 0.950 . S
C316 C317 1.478 . S
C317 C304 1.394 . S
C317 C316 1.478 . S
C317 C318 1.397 1_545 S
C318 C317 1.397 1_565 S
C318 C319 1.438 . S
C318 C323 1.429 . S
C319 C302 1.394 . S
C319 C318 1.438 . S
C319 C320 1.428 . S
C320 H312 0.949 . S
C320 C319 1.428 . S
C320 C321 1.345 . S
C321 H313 0.950 . S
C321 C320 1.345 . S
C321 C322 1.424 . S
C322 H314 0.951 . S
C322 C321 1.424 . S
C322 C323 1.347 . S
C323 H315 0.951 . S
C323 C318 1.429 . S
C323 C322 1.347 . S
H324 C325 0.951 . S
C325 H324 0.951 . S
C325 C331 1.265 . S
H326 C331 0.950 1_455 S
H327 C335 0.949 . S
H328 C336 0.950 . S
H329 C337 0.951 . S
H330 C338 0.951 . S
C331 C325 1.265 . S
C331 H326 0.950 1_655 S
C331 C332 1.478 . S
C332 C331 1.478 . S
C332 C333 1.397 . S
C332 C349 1.394 . S
C333 C332 1.397 . S
C333 C334 1.438 . S
C333 C338 1.429 . S
C334 C333 1.438 . S
C334 C335 1.428 . S
C334 C347 1.394 . S
C335 H327 0.949 . S
C335 C334 1.428 . S
C335 C336 1.345 . S
C336 H328 0.950 . S
C336 C335 1.345 . S
C336 C337 1.424 . S
C337 H329 0.951 . S
C337 C336 1.424 . S
C337 C338 1.347 . S
C338 H330 0.951 . S
C338 C333 1.429 . S
C338 C337 1.347 . S
H339 C340 0.951 . S
C340 H339 0.951 . S
C340 C346 1.265 . S
H341 C346 0.950 . S
H342 C350 0.949 . S
H343 C351 0.950 . S
H344 C352 0.951 . S
H345 C353 0.951 . S
C346 C340 1.265 . S
C346 H341 0.950 . S
C346 C347 1.478 . S
C347 C334 1.394 . S
C347 C346 1.478 . S
C347 C348 1.397 . S
C348 C347 1.397 . S
C348 C349 1.438 . S
C348 C353 1.429 . S
C349 C332 1.394 . S
C349 C348 1.438 . S
C349 C350 1.428 . S
C350 H342 0.949 . S
C350 C349 1.428 . S
C350 C351 1.345 . S
C351 H343 0.950 . S
C351 C350 1.345 . S
C351 C352 1.424 . S
C352 H344 0.951 . S
C352 C351 1.424 . S
C352 C353 1.347 . S
C353 H345 0.951 . S
C353 C348 1.429 . S
C353 C352 1.347 . S
H354 C355 0.951 . S
C355 H354 0.951 . S
C355 C361 1.265 . S
H356 C361 0.950 . S
H357 C365 0.949 . S
H358 C366 0.950 . S
H359 C367 0.951 . S
H360 C368 0.951 . S
C361 C355 1.265 . S
C361 H356 0.950 . S
C361 C362 1.478 . S
C362 C361 1.478 . S
C362 C363 1.397 . S
C362 C379 1.394 . S
C363 C362 1.397 . S
C363 C364 1.438 . S
C363 C368 1.429 . S
C364 C363 1.438 . S
C364 C365 1.428 . S
C364 C377 1.394 . S
C365 H357 0.949 . S
C365 C364 1.428 . S
C365 C366 1.345 1_455 S
C366 H358 0.950 . S
C366 C365 1.345 1_655 S
C366 C367 1.424 . S
C367 H359 0.951 . S
C367 C366 1.424 . S
C367 C368 1.347 1_655 S
C368 H360 0.951 . S
C368 C363 1.429 . S
C368 C367 1.347 1_455 S
H369 C370 0.951 . S
C370 H369 0.951 . S
C370 C376 1.265 . S
H371 C376 0.950 . S
H372 C380 0.949 . S
H373 C381 0.950 . S
H374 C382 0.951 . S
H375 C383 0.951 . S
C376 C370 1.265 . S
C376 H371 0.950 . S
C376 C377 1.478 . S
C377 C364 1.394 . S
C377 C376 1.478 . S
C377 C378 1.397 . S
C378 C377 1.397 . S
C378 C379 1.438 . S
C378 C383 1.429 . S
C379 C362 1.394 . S
C379 C378 1.438 . S
C379 C380 1.428 . S
C380 H372 0.949 . S
C380 C379 1.428 . S
C380 C381 1.345 . S
C381 H373 0.950 . S
C381 C380 1.345 . S
C381 C382 1.424 . S
C382 H374 0.951 . S
C382 C381 1.424 . S
C382 C383 1.347 . S
C383 H375 0.951 . S
C383 C378 1.429 . S
C383 C382 1.347 . S
H384 C385 0.951 . S
C385 H384 0.951 . S
C385 C391 1.265 . S
H386 C391 0.950 . S
H387 C395 0.949 . S
H388 C396 0.950 . S
H389 C397 0.951 . S
H390 C398 0.951 . S
C391 C385 1.265 . S
C391 H386 0.950 . S
C391 C392 1.478 . S
C392 C391 1.478 . S
C392 C393 1.397 . S
C392 C409 1.394 . S
C393 C392 1.397 . S
C393 C394 1.438 . S
C393 C398 1.429 . S
C394 C393 1.438 . S
C394 C395 1.428 . S
C394 C407 1.394 . S
C395 H387 0.949 . S
C395 C394 1.428 . S
C395 C396 1.345 . S
C396 H388 0.950 . S
C396 C395 1.345 . S
C396 C397 1.424 . S
C397 H389 0.951 . S
C397 C396 1.424 . S
C397 C398 1.347 . S
C398 H390 0.951 . S
C398 C393 1.429 . S
C398 C397 1.347 . S
H399 C400 0.951 . S
C400 H399 0.951 . S
C400 C406 1.265 . S
H401 C406 0.950 . S
H402 C410 0.949 . S
H403 C411 0.950 . S
H404 C412 0.951 . S
H405 C413 0.951 . S
C406 C400 1.265 . S
C406 H401 0.950 . S
C406 C407 1.478 . S
C407 C394 1.394 . S
C407 C406 1.478 . S
C407 C408 1.397 . S
C408 C407 1.397 . S
C408 C409 1.438 . S
C408 C413 1.429 1_545 S
C409 C392 1.394 . S
C409 C408 1.438 . S
C409 C410 1.428 1_545 S
C410 H402 0.949 . S
C410 C409 1.428 1_565 S
C410 C411 1.345 . S
C411 H403 0.950 . S
C411 C410 1.345 . S
C411 C412 1.424 . S
C412 H404 0.951 . S
C412 C411 1.424 . S
C412 C413 1.347 . S
C413 H405 0.951 . S
C413 C408 1.429 1_565 S
C413 C412 1.347 . S
H414 C415 0.951 . S
C415 H414 0.951 . S
C415 C421 1.265 . S
H416 C421 0.950 . S
H417 C425 0.949 . S
H418 C426 0.950 . S
H419 C427 0.951 . S
H420 C428 0.951 . S
C421 C415 1.265 . S
C421 H416 0.950 . S
C421 C422 1.478 . S
C422 C421 1.478 . S
C422 C423 1.397 . S
C422 C439 1.394 . S
C423 C422 1.397 . S
C423 C424 1.438 . S
C423 C428 1.429 . S
C424 C423 1.438 . S
C424 C425 1.428 . S
C424 C437 1.394 . S
C425 H417 0.949 . S
C425 C424 1.428 . S
C425 C426 1.345 . S
C426 H418 0.950 . S
C426 C425 1.345 . S
C426 C427 1.424 . S
C427 H419 0.951 . S
C427 C426 1.424 . S
C427 C428 1.347 . S
C428 H420 0.951 . S
C428 C423 1.429 . S
C428 C427 1.347 . S
H429 C430 0.951 . S
C430 H429 0.951 . S
C430 C436 1.265 . S
H431 C436 0.950 . S
H432 C440 0.949 . S
H433 C441 0.950 . S
H434 C442 0.951 . S
H435 C443 0.951 . S
C436 C430 1.265 . S
C436 H431 0.950 . S
C436 C437 1.478 . S
C437 C424 1.394 . S
C437 C436 1.478 . S
C437 C438 1.397 . S
C438 C437 1.397 . S
C438 C439 1.438 . S
C438 C443 1.429 . S
C439 C422 1.394 . S
C439 C438 1.438 . S
C439 C440 1.428 . S
C440 H432 0.949 . S
C440 C439 1.428 . S
C440 C441 1.345 . S
C441 H433 0.950 . S
C441 C440 1.345 . S
C441 C442 1.424 . S
C442 H434 0.951 . S
C442 C441 1.424 . S
C442 C443 1.347 . S
C443 H435 0.951 . S
C443 C438 1.429 . S
C443 C442 1.347 . S
H444 C445 0.951 . S
C445 H444 0.951 . S
C445 C451 1.265 . S
H446 C451 0.950 . S
H447 C455 0.949 . S
H448 C456 0.950 . S
H449 C457 0.951 . S
H450 C458 0.951 . S
C451 C445 1.265 . S
C451 H446 0.950 . S
C451 C452 1.478 . S
C452 C451 1.478 . S
C452 C453 1.397 . S
C452 C469 1.394 . S
C453 C452 1.397 . S
C453 C454 1.438 . S
C453 C458 1.429 . S
C454 C453 1.438 . S
C454 C455 1.428 . S
C454 C467 1.394 . S
C455 H447 0.949 . S
C455 C454 1.428 . S
C455 C456 1.345 . S
C456 H448 0.950 . S
C456 C455 1.345 . S
C456 C457 1.424 . S
C457 H449 0.951 . S
C457 C456 1.424 . S
C457 C458 1.347 . S
C458 H450 0.951 . S
C458 C453 1.429 . S
C458 C457 1.347 . S
H459 C460 0.951 . S
C460 H459 0.951 . S
C460 C466 1.265 . S
H461 C466 0.950 . S
H462 C470 0.939 1_565 S
H463 C471 0.950 . S
H464 C472 0.951 . S
H465 C473 0.951 . S
C466 C460 1.265 . S
C466 H461 0.950 . S
C466 C467 1.478 . S
C467 C454 1.394 . S
C467 C466 1.478 . S
C467 C468 1.397 . S
C468 C467 1.397 . S
C468 C469 1.438 . S
C468 C473 1.429 . S
C469 C452 1.394 . S
C469 C468 1.438 . S
C469 C470 1.442 . S
C470 H462 0.939 1_545 S
C470 C469 1.442 . S
C470 C471 1.340 1_545 S
C471 H463 0.950 . S
C471 C470 1.340 1_565 S
C471 C472 1.424 . S
C472 H464 0.951 . S
C472 C471 1.424 . S
C472 C473 1.347 1_565 S
C473 H465 0.951 . S
C473 C468 1.429 . S
C473 C472 1.347 1_545 S
H474 C475 0.951 . S
C475 H474 0.951 . S
C475 C481 1.288 1_455 S
H476 C481 0.957 . S
H477 C485 0.949 . S
H478 C486 0.950 . S
H479 C487 0.951 1_545 S
H480 C488 0.951 . S
C481 C475 1.288 1_655 S
C481 H476 0.957 . S
C481 C482 1.449 1_554 S
C482 C481 1.449 1_556 S
C482 C483 1.397 . S
C482 C499 1.394 . S
C483 C482 1.397 . S
C483 C484 1.438 . S
C483 C488 1.429 . S
C484 C483 1.438 . S
C484 C485 1.428 . S
C484 C497 1.394 . S
C485 H477 0.949 . S
C485 C484 1.428 . S
C485 C486 1.345 . S
C486 H478 0.950 . S
C486 C485 1.345 . S
C486 C487 1.424 . S
C487 H479 0.951 1_565 S
C487 C486 1.424 . S
C487 C488 1.347 . S
C488 H480 0.951 . S
C488 C483 1.429 . S
C488 C487 1.347 . S
H489 C490 0.951 . S
C490 H489 0.951 . S
C490 C496 1.265 . S
H491 C496 0.950 . S
H492 C500 0.949 . S
H493 C501 0.950 . S
H494 C502 0.951 . S
H495 C503 0.951 . S
C496 C490 1.265 . S
C496 H491 0.950 . S
C496 C497 1.478 . S
C497 C484 1.394 . S
C497 C496 1.478 . S
C497 C498 1.397 . S
C498 C497 1.397 . S
C498 C499 1.438 . S
C498 C503 1.429 . S
C499 C482 1.394 . S
C499 C498 1.438 . S
C499 C500 1.428 1_556 S
C500 H492 0.949 . S
C500 C499 1.428 1_554 S
C500 C501 1.345 . S
C501 H493 0.950 . S
C501 C500 1.345 . S
C501 C502 1.424 1_554 S
C502 H494 0.951 . S
C502 C501 1.424 1_556 S
C502 C503 1.347 . S
C503 H495 0.951 . S
C503 C498 1.429 . S
C503 C502 1.347 . S
H504 C505 0.951 1_655 S
C505 H504 0.951 1_455 S
C505 C511 1.265 . S
H506 C511 0.950 . S
H507 C515 0.949 . S
H508 C516 0.950 . S
H509 C517 0.951 . S
H510 C518 0.951 . S
C511 C505 1.265 . S
C511 H506 0.950 . S
C511 C512 1.478 . S
C512 C511 1.478 . S
C512 C513 1.397 . S
C512 C529 1.394 . S
C513 C512 1.397 . S
C513 C514 1.438 . S
C513 C518 1.429 . S
C514 C513 1.438 . S
C514 C515 1.428 . S
C514 C527 1.394 . S
C515 H507 0.949 . S
C515 C514 1.428 . S
C515 C516 1.345 . S
C516 H508 0.950 . S
C516 C515 1.345 . S
C516 C517 1.424 . S
C517 H509 0.951 . S
C517 C516 1.424 . S
C517 C518 1.347 . S
C518 H510 0.951 . S
C518 C513 1.429 . S
C518 C517 1.347 . S
H519 C520 0.951 . S
C520 H519 0.951 . S
C520 C526 1.265 1_455 S
H521 C526 0.950 . S
H522 C530 0.949 . S
H523 C531 0.950 . S
H524 C532 0.951 . S
H525 C533 0.951 . S
C526 C520 1.265 1_655 S
C526 H521 0.950 . S
C526 C527 1.478 1_655 S
C527 C514 1.394 . S
C527 C526 1.478 1_455 S
C527 C528 1.397 . S
C528 C527 1.397 . S
C528 C529 1.438 . S
C528 C533 1.429 1_455 S
C529 C512 1.394 . S
C529 C528 1.438 . S
C529 C530 1.428 . S
C530 H522 0.949 . S
C530 C529 1.428 . S
C530 C531 1.345 1_455 S
C531 H523 0.950 . S
C531 C530 1.345 1_655 S
C531 C532 1.424 . S
C532 H524 0.951 . S
C532 C531 1.424 . S
C532 C533 1.347 . S
C533 H525 0.951 . S
C533 C528 1.429 1_655 S
C533 C532 1.347 . S
H534 C535 0.951 . S
C535 H534 0.951 . S
C535 C541 1.265 . S
H536 C541 0.950 . S
H537 C545 0.949 . S
H538 C546 0.950 . S
H539 C547 0.951 . S
H540 C548 0.951 . S
C541 C535 1.265 . S
C541 H536 0.950 . S
C541 C542 1.478 . S
C542 C541 1.478 . S
C542 C543 1.397 . S
C542 C559 1.394 1_545 S
C543 C542 1.397 . S
C543 C544 1.438 . S
C543 C548 1.429 . S
C544 C543 1.438 . S
C544 C545 1.428 . S
C544 C557 1.394 . S
C545 H537 0.949 . S
C545 C544 1.428 . S
C545 C546 1.345 . S
C546 H538 0.950 . S
C546 C545 1.345 . S
C546 C547 1.424 . S
C547 H539 0.951 . S
C547 C546 1.424 . S
C547 C548 1.347 . S
C548 H540 0.951 . S
C548 C543 1.429 . S
C548 C547 1.347 . S
H549 C550 0.951 . S
C550 H549 0.951 . S
C550 C556 1.265 . S
H551 C556 0.950 . S
H552 C560 0.949 . S
H553 C561 0.950 . S
H554 C562 0.951 . S
H555 C563 0.951 . S
C556 C550 1.265 . S
C556 H551 0.950 . S
C556 C557 1.478 . S
C557 C544 1.394 . S
C557 C556 1.478 . S
C557 C558 1.397 1_545 S
C558 C557 1.397 1_565 S
C558 C559 1.438 . S
C558 C563 1.429 . S
C559 C542 1.394 1_565 S
C559 C558 1.438 . S
C559 C560 1.428 . S
C560 H552 0.949 . S
C560 C559 1.428 . S
C560 C561 1.345 . S
C561 H553 0.950 . S
C561 C560 1.345 . S
C561 C562 1.424 . S
C562 H554 0.951 . S
C562 C561 1.424 . S
C562 C563 1.347 . S
C563 H555 0.951 . S
C563 C558 1.429 . S
C563 C562 1.347 . S
H564 C565 0.951 . S
C565 H564 0.951 . S
C565 C571 1.265 . S
H566 C571 0.950 1_556 S
H567 C575 0.949 . S
H568 C576 0.950 . S
H569 C577 0.951 . S
H570 C578 0.951 . S
C571 C565 1.265 . S
C571 H566 0.950 1_554 S
C571 C572 1.478 1_554 S
C572 C571 1.478 1_556 S
C572 C573 1.397 . S
C572 C589 1.382 1_556 S
C573 C572 1.397 . S
C573 C574 1.438 . S
C573 C578 1.429 . S
C574 C573 1.438 . S
C574 C575 1.428 . S
C574 C587 1.394 . S
C575 H567 0.949 . S
C575 C574 1.428 . S
C575 C576 1.345 . S
C576 H568 0.950 . S
C576 C575 1.345 . S
C576 C577 1.424 . S
C577 H569 0.951 . S
C577 C576 1.424 . S
C577 C578 1.347 . S
C578 H570 0.951 . S
C578 C573 1.429 . S
C578 C577 1.347 . S
H579 C580 0.951 . S
C580 H579 0.951 . S
C580 C586 1.265 . S
H581 C586 0.950 . S
H582 C590 0.949 . S
H583 C591 0.950 . S
H584 C592 0.951 . S
H585 C593 0.951 . S
C586 C580 1.265 . S
C586 H581 0.950 . S
C586 C587 1.478 . S
C587 C574 1.394 . S
C587 C586 1.478 . S
C587 C588 1.397 . S
C588 C587 1.397 . S
C588 C589 1.408 1_556 S
C588 C593 1.429 . S
C589 C572 1.382 1_554 S
C589 C588 1.408 1_554 S
C589 C590 1.470 . S
C590 H582 0.949 . S
C590 C589 1.470 . S
C590 C591 1.345 . S
C591 H583 0.950 . S
C591 C590 1.345 . S
C591 C592 1.424 . S
C592 H584 0.951 . S
C592 C591 1.424 . S
C592 C593 1.347 1_554 S
C593 H585 0.951 . S
C593 C588 1.429 . S
C593 C592 1.347 1_556 S
H594 C595 0.951 . S
C595 H594 0.951 . S
C595 C601 1.265 . S
H596 C601 0.950 . S
H597 C605 0.949 . S
H598 C606 0.950 . S
H599 C607 0.951 . S
H600 C608 0.951 . S
C601 C595 1.265 . S
C601 H596 0.950 . S
C601 C602 1.478 . S
C602 C601 1.478 . S
C602 C603 1.397 . S
C602 C619 1.394 . S
C603 C602 1.397 . S
C603 C604 1.438 . S
C603 C608 1.429 . S
C604 C603 1.438 . S
C604 C605 1.428 . S
C604 C617 1.394 . S
C605 H597 0.949 . S
C605 C604 1.428 . S
C605 C606 1.345 . S
C606 H598 0.950 . S
C606 C605 1.345 . S
C606 C607 1.424 . S
C607 H599 0.951 . S
C607 C606 1.424 . S
C607 C608 1.347 . S
C608 H600 0.951 . S
C608 C603 1.429 . S
C608 C607 1.347 . S
H609 C610 0.951 . S
C610 H609 0.951 . S
C610 C616 1.265 . S
H611 C616 0.950 . S
H612 C620 0.949 . S
H613 C621 0.950 . S
H614 C622 0.951 . S
H615 C623 0.951 . S
C616 C610 1.265 . S
C616 H611 0.950 . S
C616 C617 1.478 . S
C617 C604 1.394 . S
C617 C616 1.478 . S
C617 C618 1.397 . S
C618 C617 1.397 . S
C618 C619 1.438 . S
C618 C623 1.429 1_455 S
C619 C602 1.394 . S
C619 C618 1.438 . S
C619 C620 1.428 1_455 S
C620 H612 0.949 . S
C620 C619 1.428 1_655 S
C620 C621 1.345 . S
C621 H613 0.950 . S
C621 C620 1.345 . S
C621 C622 1.424 . S
C622 H614 0.951 . S
C622 C621 1.424 . S
C622 C623 1.347 . S
C623 H615 0.951 . S
C623 C618 1.429 1_655 S
C623 C622 1.347 . S
C280 C81 1.242 . S
C265 C11 1.294 . S
C295 C25 1.327 . S
C310 C155 1.323 . S
C325 C41 2.003 1_655 S
C340 C259 2.062 . S
C355 C7 0.686 . S
C370 C93 0.675 . S
C400 C167 0.761 . S
C385 C21 0.755 . S
C415 C36 1.476 . S
C430 C253 1.331 . S
C460 C185 2.028 . S
C445 C39 2.009 1_655 S
C475 C8 1.266 . S
C490 C229 1.332 . S
C520 C105 1.456 . S
C505 C22 1.551 . S
C550 C179 1.292 . S
C535 C35 1.425 . S
C580 C241 0.776 . S
C565 C13 0.853 . S
C595 C27 2.003 . S
C610 C111 2.126 . S
