# Generated by pormake.
# Topology sit, (3,6)-cn, num edge types: 1
# Building blocks:
#     Node 0, Type 0, BuildingBlock: INOVEN_clean_linker_0, # of connection points: 3
#     Node 1, Type 0, BuildingBlock: INOVEN_clean_linker_0, # of connection points: 3
#     Node 2, Type 0, BuildingBlock: INOVEN_clean_linker_0, # of connection points: 3
#     Node 3, Type 0, BuildingBlock: INOVEN_clean_linker_0, # of connection points: 3
#     Node 4, Type 1, BuildingBlock: MIDCAF_clean_sbu_0, # of connection points: 6
#     Node 5, Type 1, BuildingBlock: MIDCAF_clean_sbu_0, # of connection points: 6
#     Edge 6, Type (0, 1), BuildingBlock: FUNLAD_clean_linker_1, # of connection points: 2
#     Edge 7, Type (0, 1), BuildingBlock: FUNLAD_clean_linker_1, # of connection points: 2
#     Edge 8, Type (0, 1), BuildingBlock: FUNLAD_clean_linker_1, # of connection points: 2
#     Edge 9, Type (0, 1), BuildingBlock: FUNLAD_clean_linker_1, # of connection points: 2
#     Edge 10, Type (0, 1), BuildingBlock: FUNLAD_clean_linker_1, # of connection points: 2
#     Edge 11, Type (0, 1), BuildingBlock: FUNLAD_clean_linker_1, # of connection points: 2
#     Edge 12, Type (0, 1), BuildingBlock: FUNLAD_clean_linker_1, # of connection points: 2
#     Edge 13, Type (0, 1), BuildingBlock: FUNLAD_clean_linker_1, # of connection points: 2
#     Edge 14, Type (0, 1), BuildingBlock: FUNLAD_clean_linker_1, # of connection points: 2
#     Edge 15, Type (0, 1), BuildingBlock: FUNLAD_clean_linker_1, # of connection points: 2
#     Edge 16, Type (0, 1), BuildingBlock: FUNLAD_clean_linker_1, # of connection points: 2
#     Edge 17, Type (0, 1), BuildingBlock: FUNLAD_clean_linker_1, # of connection points: 2
# Relax obj value: 0.072
# Max RMSD: 0.181
# Mean RMSD: 0.108
data_MOF--net-sit--node1-MIDCAF_clean_sbu_0--node2-INOVEN_clean_linker_0--edge1-FUNLAD_clean_linker_1
_symmetry_space_group_name_H-M    P1
_symmetry_Int_Tables_number       1
_symmetry_cell_setting            triclinic
loop_
_symmetry_equiv_pos_as_xyz
'x, y, z'
_cell_length_a     21.899844
_cell_length_b     34.480879
_cell_length_c     38.648788
_cell_angle_alpha  90.05616
_cell_angle_beta   86.735962
_cell_angle_gamma 83.850486
loop_
_atom_site_label
_atom_site_type_symbol
_atom_site_fract_x
_atom_site_fract_y
_atom_site_fract_z
_atom_type_partial_charge
H0 H 0.97522 0.29039 0.04782 0.0
H1 H 0.04829 0.39147 0.00477 0.0
H2 H 0.17114 0.29407 0.03616 0.0
N3 N 0.08192 0.25089 0.06036 0.0
N4 N 0.1329 0.23074 0.05943 0.0
C5 C 0.01431 0.30597 0.04036 0.0
C6 C 0.00485 0.34338 0.02607 0.0
C7 C 0.07405 0.28822 0.04461 0.0
C8 C 0.12481 0.30787 0.03356 0.0
C9 C 0.11613 0.34502 0.01861 0.0
C10 C 0.05593 0.36292 0.01601 0.0
H11 H 0.92606 0.74884 0.03382 0.0
H12 H 0.02669 0.638 0.00622 0.0
H13 H 0.11921 0.7276 0.05121 0.0
N14 N 0.01678 0.78034 0.06 0.0
N15 N 0.05981 0.79321 0.0746 0.0
C16 C 0.96838 0.72931 0.0328 0.0
C17 C 0.96914 0.69152 0.01926 0.0
C18 C 0.02157 0.74235 0.04514 0.0
C19 C 0.07726 0.71757 0.04272 0.0
C20 C 0.07854 0.67968 0.02893 0.0
C21 C 0.02433 0.66666 0.01803 0.0
H22 H 0.47472 0.83846 0.56067 0.0
H23 H 0.58494 0.91204 0.49978 0.0
H24 H 0.66917 0.80619 0.54271 0.0
N25 N 0.564 0.78495 0.5746 0.0
N26 N 0.6028 0.75566 0.57339 0.0
C27 C 0.51904 0.84507 0.54966 0.0
C28 C 0.52299 0.87869 0.52956 0.0
C29 C 0.57122 0.81882 0.55453 0.0
C30 C 0.62861 0.82643 0.53928 0.0
C31 C 0.63338 0.85992 0.51909 0.0
C32 C 0.58074 0.88625 0.5151 0.0
H33 H 0.44177 0.21583 0.55526 0.0
H34 H 0.53139 0.10774 0.5127 0.0
H35 H 0.63653 0.18599 0.56447 0.0
N36 N 0.54031 0.24082 0.58079 0.0
N37 N 0.58783 0.24934 0.59406 0.0
C38 C 0.48283 0.1955 0.551 0.0
C39 C 0.4802 0.16074 0.53252 0.0
C40 C 0.53894 0.20489 0.56283 0.0
C41 C 0.59265 0.17888 0.5561 0.0
C42 C 0.58979 0.14365 0.53826 0.0
C43 C 0.5334 0.13456 0.5271 0.0
Zn44 Zn 0.04093 0.10258 0.3284 0.0
Zn45 Zn 0.10651 0.95309 0.34031 0.0
Zn46 Zn 0.07576 0.02747 0.33448 0.0
C47 C 0.11437 0.968 0.27009 0.0
C48 C 0.98886 0.96562 0.36903 0.0
O49 O 0.14538 0.05918 0.35889 0.0
O50 O 0.11701 0.1209 0.34621 0.0
C51 C 0.05139 0.0728 0.26189 0.0
O52 O 0.08991 1.00175 0.28123 0.0
O53 O 0.13115 0.94162 0.29114 0.0
O54 O 0.02805 0.93744 0.35989 0.0
O55 O -0.00038 1.00099 0.3625 0.0
O56 O 0.03021 0.10335 0.27827 0.0
O57 O 0.0726 0.04207 0.27821 0.0
O58 O 0.98622 0.04168 0.36457 0.0
O59 O 0.96525 0.10558 0.35898 0.0
C60 C 0.95164 0.07373 0.37163 0.0
O61 O 0.16121 0.0184 0.36293 0.0
O62 O 0.17137 0.95474 0.37269 0.0
C63 C 0.15402 0.0956 0.35985 0.0
C64 C 0.18885 0.98794 0.37688 0.0
Zn65 Zn 0.54492 0.59901 0.83416 0.0
Zn66 Zn 0.57299 0.44675 0.84488 0.0
Zn67 Zn 0.55816 0.52204 0.83922 0.0
C68 C 0.56984 0.46094 0.77439 0.0
C69 C 0.46021 0.47264 0.87886 0.0
O70 O 0.63262 0.54404 0.86674 0.0
O71 O 0.6137 0.6083 0.86352 0.0
C72 C 0.56834 0.56966 0.76692 0.0
O73 O 0.56469 0.49646 0.78565 0.0
O74 O 0.57458 0.43306 0.79554 0.0
O75 O 0.49665 0.44204 0.87352 0.0
O76 O 0.47412 0.50556 0.86684 0.0
O77 O 0.55929 0.60135 0.78373 0.0
O78 O 0.56839 0.53687 0.783 0.0
O79 O 0.46902 0.54649 0.86537 0.0
O80 O 0.45983 0.60977 0.85412 0.0
C81 C 0.43862 0.58064 0.86807 0.0
O82 O 0.63889 0.50306 0.87055 0.0
O83 O 0.64925 0.43857 0.86906 0.0
C84 C 0.64587 0.57851 0.87406 0.0
C85 C 0.66704 0.47 0.87927 0.0
H86 H 0.18745 0.17807 0.07409 0.0
C87 C 0.14224 0.19446 0.07699 0.0
H88 H 0.05385 0.19779 0.10241 0.0
H89 H 0.04755 0.02995 0.15929 0.0
H90 H 0.98403 0.02608 0.11001 0.0
H91 H 0.97941 0.07757 0.06557 0.0
H92 H 0.03817 0.13317 0.07014 0.0
C93 C 0.09958 0.18208 0.09958 0.0
C94 C 0.11264 0.14739 0.12207 0.0
C95 C 0.07903 0.11479 0.11863 0.0
C96 C 0.08183 0.085 0.14409 0.0
C97 C 0.04671 0.05327 0.14057 0.0
C98 C 0.0103 0.05072 0.11243 0.0
C99 C 0.00771 0.07971 0.08742 0.0
C100 C 0.04146 0.1115 0.09039 0.0
H101 H 0.01897 0.09508 0.21283 0.0
C102 C 0.05442 0.07511 0.22392 0.0
H103 H 0.14482 0.04785 0.2164 0.0
H104 H 0.18525 0.20522 0.13672 0.0
H105 H 0.25396 0.20576 0.18332 0.0
H106 H 0.26341 0.1518 0.22514 0.0
H107 H 0.20334 0.09719 0.22067 0.0
C108 C 0.10669 0.06486 0.2048 0.0
C109 C 0.11852 0.08767 0.17279 0.0
C110 C 0.15733 0.11795 0.17422 0.0
C111 C 0.15329 0.14845 0.14939 0.0
C112 C 0.18805 0.18035 0.1537 0.0
C113 C 0.22748 0.18126 0.18065 0.0
C114 C 0.23269 0.15094 0.20424 0.0
C115 C 0.19782 0.11976 0.20136 0.0
H116 H 0.00767 0.84901 0.08764 0.0
C117 C 0.05077 0.8307 0.09035 0.0
H118 H 0.13509 0.82344 0.11398 0.0
H119 H 0.15513 0.99245 0.16637 0.0
H120 H 0.2325 0.98781 0.11843 0.0
H121 H 0.24031 0.93306 0.07664 0.0
H122 H 0.17101 0.88263 0.08255 0.0
C123 C 0.09186 0.84168 0.11173 0.0
C124 C 0.08017 0.87786 0.13346 0.0
C125 C 0.12031 0.90741 0.12928 0.0
C126 C 0.1157 0.93912 0.15321 0.0
C127 C 0.15709 0.96776 0.1489 0.0
C128 C 0.20146 0.96548 0.12148 0.0
C129 C 0.20583 0.93466 0.09795 0.0
C130 C 0.16592 0.90585 0.10169 0.0
H131 H 0.1555 0.93381 0.22553 0.0
C132 C 0.12029 0.95748 0.23309 0.0
H133 H 0.03706 0.98854 0.21957 0.0
H134 H -0.00424 0.826 0.15051 0.0
H135 H 0.91472 0.83385 0.1957 0.0
H136 H 0.90236 0.89154 0.2342 0.0
H137 H 0.97196 0.94144 0.22786 0.0
C138 C 0.07578 0.96757 0.21136 0.0
C139 C 0.07059 0.94151 0.18107 0.0
C140 C 0.02685 0.91401 0.18344 0.0
C141 C 0.03262 0.88149 0.16031 0.0
C142 C -0.00794 0.85238 0.16586 0.0
C143 C 0.94548 0.85627 0.1921 0.0
C144 C 0.93863 0.88867 0.21384 0.0
C145 C 0.97899 0.91711 0.20989 0.0
H146 H 0.55512 0.72596 0.6144 0.0
C147 C 0.59309 0.72328 0.5948 0.0
H148 H 0.66929 0.68757 0.57281 0.0
H149 H 0.69671 0.59823 0.71632 0.0
H150 H 0.79761 0.62072 0.70555 0.0
H151 H 0.82003 0.65992 0.65389 0.0
H152 H 0.74198 0.67692 0.61275 0.0
C153 C 0.63063 0.68988 0.59186 0.0
C154 C 0.6235 0.65765 0.61708 0.0
C155 C 0.67059 0.64684 0.64001 0.0
C156 C 0.6577 0.62437 0.66988 0.0
C157 C 0.70432 0.61541 0.69337 0.0
C158 C 0.76233 0.62802 0.68743 0.0
C159 C 0.77495 0.65007 0.65831 0.0
C160 C 0.72971 0.65964 0.63489 0.0
H161 H 0.59877 0.54487 0.71459 0.0
C162 C 0.58177 0.5713 0.72896 0.0
H163 H 0.55904 0.63238 0.72745 0.0
H164 H 0.53081 0.66213 0.57234 0.0
H165 H 0.43244 0.63566 0.58149 0.0
H166 H 0.40931 0.59851 0.63436 0.0
H167 H 0.48488 0.58713 0.67822 0.0
C168 C 0.57671 0.60613 0.71299 0.0
C169 C 0.59806 0.61286 0.67661 0.0
C170 C 0.55417 0.61886 0.65122 0.0
C171 C 0.56708 0.64094 0.62115 0.0
C172 C 0.52242 0.64645 0.59609 0.0
C173 C 0.46612 0.63121 0.60095 0.0
C174 C 0.4531 0.61026 0.63071 0.0
C175 C 0.4965 0.6041 0.6557 0.0
H176 H 0.62859 0.28666 0.62875 0.0
C177 C 0.58995 0.28482 0.61262 0.0
H178 H 0.50699 0.31365 0.59587 0.0
H179 H 0.45789 0.40889 0.73706 0.0
H180 H 0.36564 0.37584 0.73405 0.0
H181 H 0.35479 0.3304 0.68598 0.0
H182 H 0.43568 0.31774 0.64069 0.0
C183 C 0.54591 0.31522 0.6118 0.0
C184 C 0.54597 0.34911 0.63594 0.0
C185 C 0.49724 0.35686 0.66161 0.0
C186 C 0.50365 0.38273 0.68954 0.0
C187 C 0.45537 0.38913 0.71553 0.0
C188 C 0.40221 0.3705 0.71403 0.0
C189 C 0.39609 0.34495 0.68694 0.0
C190 C 0.44297 0.33796 0.66105 0.0
H191 H 0.5524 0.47498 0.71924 0.0
C192 C 0.56606 0.45179 0.73712 0.0
H193 H 0.58724 0.39125 0.74446 0.0
H194 H 0.63853 0.35024 0.58556 0.0
H195 H 0.72804 0.38626 0.58736 0.0
H196 H 0.74079 0.42895 0.63717 0.0
H197 H 0.66355 0.4364 0.68529 0.0
C198 C 0.57436 0.41432 0.72629 0.0
C199 C 0.55857 0.4006 0.69182 0.0
C200 C 0.60371 0.39668 0.66405 0.0
C201 C 0.59706 0.37127 0.63579 0.0
C202 C 0.64247 0.36822 0.60812 0.0
C203 C 0.69371 0.38892 0.60876 0.0
C204 C 0.70086 0.413 0.6368 0.0
C205 C 0.6565 0.41692 0.66426 0.0
H206 H 0.21594 0.35031 0.01105 0.0
C207 C 0.17069 0.36336 0.00442 0.0
H208 H 0.12435 0.40652 0.97279 0.0
H209 H 0.3647 0.49751 0.96335 0.0
H210 H 0.30336 0.53768 0.00693 0.0
H211 H 0.20388 0.51893 0.03059 0.0
H212 H 0.16623 0.45895 0.01188 0.0
C213 C 0.16755 0.39284 0.98147 0.0
C214 C 0.22405 0.40615 0.96472 0.0
C215 C 0.24403 0.44195 0.97495 0.0
C216 C 0.3002 0.45355 0.96027 0.0
C217 C 0.32124 0.48812 0.97264 0.0
C218 C 0.28664 0.51132 0.99777 0.0
C219 C 0.23071 0.50067 0.01121 0.0
C220 C 0.20961 0.46625 0.00023 0.0
H221 H 0.3624 0.49105 0.89424 0.0
C222 C 0.40137 0.46977 0.89856 0.0
H223 H 0.43466 0.41853 0.92419 0.0
H224 H 0.19404 0.33824 0.93636 0.0
H225 H 0.25281 0.29937 0.89119 0.0
H226 H 0.34938 0.31991 0.86489 0.0
H227 H 0.38762 0.3794 0.88359 0.0
C228 C 0.39531 0.43978 0.9202 0.0
C229 C 0.33467 0.42994 0.93444 0.0
C230 C 0.31304 0.395 0.9231 0.0
C231 C 0.2576 0.3831 0.93826 0.0
C232 C 0.23651 0.34835 0.92616 0.0
C233 C 0.26962 0.32583 0.90009 0.0
C234 C 0.32395 0.33739 0.88528 0.0
C235 C 0.34553 0.37158 0.89644 0.0
H236 H 0.88207 0.70351 0.99314 0.0
C237 C 0.91366 0.68026 0.00317 0.0
H238 H 0.93192 0.61912 0.00925 0.0
H239 H 0.64531 0.65111 0.95501 0.0
H240 H 0.6183 0.68176 0.01105 0.0
H241 H 0.6979 0.6898 0.05238 0.0
H242 H 0.80506 0.66725 0.0378 0.0
C243 C 0.90213 0.64304 -0.00099 0.0
C244 C 0.85276 0.63341 0.97664 0.0
C245 C 0.79028 0.64635 0.98573 0.0
C246 C 0.7444 0.64129 0.96206 0.0
C247 C 0.68225 0.65444 0.97184 0.0
C248 C 0.66602 0.67196 0.00401 0.0
C249 C 0.71083 0.67653 0.02726 0.0
C250 C 0.77225 0.66376 0.01844 0.0
H251 H 0.72332 0.55755 0.90569 0.0
C252 C 0.69745 0.5833 0.89597 0.0
H253 H 0.6861 0.6449 0.89621 0.0
H254 H 0.96745 0.60067 0.95314 0.0
H255 H -0.00596 0.5681 0.89786 0.0
H256 H 0.9155 0.56247 0.85554 0.0
H257 H 0.80952 0.58806 0.86856 0.0
C258 C 0.71257 0.61856 0.90481 0.0
C259 C 0.76102 0.62284 0.92955 0.0
C260 C 0.82331 0.60865 0.92097 0.0
C261 C 0.86904 0.61323 0.9449 0.0
C262 C 0.93078 0.59829 0.93592 0.0
C263 C 0.94685 0.57968 0.9042 0.0
C264 C 0.90255 0.57633 0.88041 0.0
C265 C 0.8416 0.59082 0.88842 0.0
H266 H 0.91303 0.33926 0.00664 0.0
C267 C 0.94255 0.35955 0.01667 0.0
H268 H 0.95393 0.4186 0.02596 0.0
H269 H 0.83524 0.46825 0.88532 0.0
H270 H 0.93722 0.48892 0.8776 0.0
H271 H 0.01202 0.47671 0.92268 0.0
H272 H 0.98574 0.44291 0.9753 0.0
C273 C 0.92548 0.39821 0.01519 0.0
C274 C 0.87593 0.41374 0.99256 0.0
C275 C 0.8914 0.43527 0.96256 0.0
C276 C 0.84777 0.44327 0.93691 0.0
C277 C 0.86573 0.4624 0.90614 0.0
C278 C 0.92435 0.47432 0.90126 0.0
C279 C 0.96653 0.46731 0.92658 0.0
C280 C 0.95072 0.44779 0.95677 0.0
H281 H 0.72825 0.49483 0.91523 0.0
C282 C 0.71683 0.46822 0.90358 0.0
H283 H 0.73202 0.40668 0.90346 0.0
H284 H 0.82792 0.38029 0.05059 0.0
H285 H 0.72381 0.36258 0.05992 0.0
H286 H 0.64802 0.37614 0.01543 0.0
H287 H 0.67569 0.40761 0.9615 0.0
C288 C 0.74497 0.43385 0.91363 0.0
C289 C 0.78835 0.43072 0.94191 0.0
C290 C 0.77136 0.41225 0.97324 0.0
C291 C 0.81511 0.40399 -0.0013 0.0
C292 C 0.79676 0.38618 0.03003 0.0
C293 C 0.73708 0.37618 0.03581 0.0
C294 C 0.6944 0.38384 0.01078 0.0
C295 C 0.711 0.40175 0.97986 0.0
H296 H 0.1355 0.62283 0.02722 0.0
C297 C 0.13632 0.65383 0.02229 0.0
H298 H 0.18281 0.69605 0.99522 0.0
H299 H 0.43874 0.59511 0.96901 0.0
H300 H 0.46333 0.63473 0.01712 0.0
H301 H 0.38158 0.67526 0.05124 0.0
H302 H 0.27461 0.67659 0.03724 0.0
C303 C 0.18255 0.66548 0.00201 0.0
C304 C 0.23034 0.63686 0.98461 0.0
C305 C 0.2923 0.63574 0.99355 0.0
C306 C 0.33932 0.61204 0.97408 0.0
C307 C 0.4011 0.61237 0.98299 0.0
C308 C 0.41587 0.63497 0.01059 0.0
C309 C 0.36985 0.65781 0.02979 0.0
C310 C 0.3087 0.65836 0.02146 0.0
H311 H 0.34794 0.61163 0.88196 0.0
C312 C 0.38087 0.58763 0.88941 0.0
H313 H 0.40947 0.55063 0.93012 0.0
H314 H 0.11597 0.63206 0.95954 0.0
H315 H 0.0911 0.58823 0.91497 0.0
H316 H 0.17198 0.54313 0.88478 0.0
H317 H 0.27886 0.54274 0.89865 0.0
C318 C 0.37381 0.5718 0.92089 0.0
C319 C 0.3241 0.58948 0.94574 0.0
C320 C 0.26166 0.58801 0.93872 0.0
C321 C 0.21476 0.6125 0.95746 0.0
C322 C 0.15333 0.61271 0.94768 0.0
C323 C 0.13836 0.58784 0.9218 0.0
C324 C 0.18392 0.56261 0.9047 0.0
C325 C 0.24501 0.56277 0.91279 0.0
H326 H 0.73542 0.8564 0.51398 0.0
C327 C 0.69336 0.86721 0.50187 0.0
H328 H 0.65607 0.89418 0.45735 0.0
H329 H 0.92262 0.96741 0.4572 0.0
H330 H 0.87977 1.00288 0.50872 0.0
H331 H 0.77794 0.99142 0.53483 0.0
H332 H 0.72004 0.94267 0.51075 0.0
C333 C 0.69691 0.88619 0.47151 0.0
C334 C 0.75635 0.89501 0.4548 0.0
C335 C 0.78802 0.92489 0.46835 0.0
C336 C 0.8447 0.93342 0.45193 0.0
C337 C 0.87779 0.96124 0.4675 0.0
C338 C 0.85391 0.98164 0.49724 0.0
C339 C 0.79675 0.97501 0.51206 0.0
C340 C 0.76409 0.94686 0.49801 0.0
H341 H 0.89336 0.98055 0.39003 0.0
C342 C 0.9313 0.95766 0.38785 0.0
H343 H 0.96338 0.89965 0.40031 0.0
H344 H 0.70664 0.83619 0.42235 0.0
H345 H 0.74709 0.80262 0.36936 0.0
H346 H 0.84257 0.81982 0.33902 0.0
H347 H 0.89836 0.87046 0.36157 0.0
C348 C 0.92573 0.92291 0.40277 0.0
C349 C 0.86743 0.91372 0.42081 0.0
C350 C 0.83519 0.88425 0.40702 0.0
C351 C 0.77971 0.87475 0.42417 0.0
C352 C 0.7487 0.84488 0.41012 0.0
C353 C 0.77144 0.82533 0.37976 0.0
C354 C 0.82523 0.83497 0.3627 0.0
C355 C 0.85689 0.86407 0.37601 0.0
H356 H 0.3816 0.1508 0.53256 0.0
C357 C 0.42335 0.15266 0.51635 0.0
H358 H 0.46689 0.14932 0.46649 0.0
H359 H 0.32371 0.04815 0.37954 0.0
H360 H 0.42216 1.00827 0.38164 0.0
H361 H 0.49838 0.02453 0.42254 0.0
H362 H 0.47736 0.08104 0.46041 0.0
C363 C 0.42425 0.14707 0.48188 0.0
C364 C 0.37262 0.13289 0.46373 0.0
C365 C 0.38476 0.09852 0.44316 0.0
C366 C 0.33914 0.08701 0.42183 0.0
C367 C 0.3548 0.05537 0.39863 0.0
C368 C 0.41156 0.03295 0.39908 0.0
C369 C 0.45457 0.04227 0.42192 0.0
C370 C 0.44194 0.07492 0.44343 0.0
H371 H 0.22257 0.1365 0.36874 0.0
C372 C 0.20625 0.10917 0.37721 0.0
H373 H 0.21165 0.06516 0.41487 0.0
H374 H 0.33535 0.20338 0.4959 0.0
H375 H 0.23217 0.23677 0.49959 0.0
H376 H 0.14833 0.21011 0.47041 0.0
H377 H 0.16788 0.15058 0.43627 0.0
C378 C 0.22957 0.09133 0.40506 0.0
C379 C 0.27918 0.10706 0.42392 0.0
C380 C 0.26598 0.14043 0.44565 0.0
C381 C 0.31348 0.15441 0.46437 0.0
C382 C 0.30043 0.19003 0.48294 0.0
C383 C 0.2414 0.20977 0.48499 0.0
C384 C 0.19425 0.19484 0.46845 0.0
C385 C 0.20615 0.16066 0.44888 0.0
H386 H 0.42313 0.88771 0.52286 0.0
C387 C 0.46528 0.90176 0.51975 0.0
H388 H 0.50268 0.95245 0.50008 0.0
H389 H 0.27682 0.91418 0.40119 0.0
H390 H 0.34553 0.8574 0.38285 0.0
H391 H 0.44655 0.84327 0.40793 0.0
H392 H 0.47824 0.88529 0.45224 0.0
C393 C 0.4635 0.93573 0.50235 0.0
C394 C 0.40948 0.94923 0.48226 0.0
C395 C 0.39378 0.92586 0.45455 0.0
C396 C 0.33778 0.9356 0.43831 0.0
C397 C 0.32049 0.90965 0.41302 0.0
C398 C 0.35932 0.87664 0.40243 0.0
C399 C 0.41598 0.86856 0.41667 0.0
C400 C 0.43327 0.89276 0.44241 0.0
H401 H 0.28695 0.99088 0.38178 0.0
C402 C 0.24344 0.99005 0.39641 0.0
H403 H 0.19877 0.97876 0.4446 0.0
H404 H 0.43219 1.00356 0.5301 0.0
H405 H 0.36847 0.06421 0.5445 0.0
H406 H 0.27172 0.08182 0.51571 0.0
H407 H 0.23848 0.0392 0.47205 0.0
C408 C 0.2423 0.98106 0.43017 0.0
C409 C 0.3001 0.97048 0.44785 0.0
C410 C 0.31772 0.99507 0.47408 0.0
C411 C 0.37302 0.98465 0.49103 0.0
C412 C 0.39035 1.01005 0.51663 0.0
C413 C 0.3542 0.04487 0.52515 0.0
C414 C 0.29971 0.05479 0.50894 0.0
C415 C 0.28127 0.03017 0.48383 0.0
H416 H 0.64253 0.08579 0.52938 0.0
C417 C 0.64544 0.11705 0.52818 0.0
H418 H 0.69606 0.16149 0.50824 0.0
H419 H 0.95406 0.07165 0.47553 0.0
H420 H 0.97382 0.10637 0.52767 0.0
H421 H 0.88824 0.13954 0.56458 0.0
H422 H 0.7823 0.1384 0.5494 0.0
C423 C 0.69356 0.13028 0.51067 0.0
C424 C 0.74312 0.10371 0.4923 0.0
C425 C 0.80455 0.10373 0.502 0.0
C426 C 0.85382 0.08425 0.48093 0.0
C427 C 0.91488 0.08587 0.49063 0.0
C428 C 0.92686 0.10562 0.52054 0.0
C429 C 0.87868 0.12431 0.54132 0.0
C430 C 0.81815 0.12353 0.53226 0.0
H431 H 0.85964 0.09834 0.39069 0.0
C432 C 0.89589 0.07494 0.39481 0.0
H433 H 0.93082 0.0328 0.43011 0.0
H434 H 0.63032 0.09652 0.46561 0.0
H435 H 0.61107 0.0562 0.41719 0.0
H436 H 0.69667 0.01811 0.38389 0.0
H437 H 0.80236 0.02124 0.39868 0.0
C438 C 0.89245 0.05368 0.42375 0.0
C439 C 0.84145 0.06466 0.45029 0.0
C440 C 0.77983 0.06103 0.44267 0.0
C441 C 0.73046 0.08143 0.46304 0.0
C442 C 0.66969 0.08007 0.45259 0.0
C443 C 0.65789 0.05725 0.42446 0.0
C444 C 0.70606 0.03594 0.40563 0.0
C445 C 0.76644 0.03801 0.41432 0.0
loop_
_geom_bond_atom_site_label_1
_geom_bond_atom_site_label_2
_geom_bond_distance
_geom_bond_site_symmetry_2
_ccdc_geom_bond_type
H0 C5 0.929 . S
H1 C10 0.931 . S
H2 C8 0.930 . S
N3 N4 1.234 . S
N3 C7 1.453 . S
N4 N3 1.234 . S
C5 H0 0.929 . S
C5 C6 1.373 1_554 S
C5 C7 1.368 . S
C6 C5 1.373 1_556 S
C6 C10 1.397 . S
C7 N3 1.453 . S
C7 C5 1.368 . S
C7 C8 1.373 . S
C8 H2 0.930 . S
C8 C7 1.373 . S
C8 C9 1.371 1_554 S
C9 C8 1.371 1_556 S
C9 C10 1.383 . S
C10 H1 0.931 . S
C10 C6 1.397 . S
C10 C9 1.383 . S
H11 C16 0.929 . S
H12 C21 0.931 . S
H13 C19 0.930 . S
N14 N15 1.234 1_655 S
N14 C18 1.453 . S
N15 N14 1.234 1_455 S
C16 H11 0.929 . S
C16 C17 1.373 1_554 S
C16 C18 1.368 . S
C17 C16 1.373 1_556 S
C17 C21 1.397 1_655 S
C18 N14 1.453 . S
C18 C16 1.368 . S
C18 C19 1.373 1_655 S
C19 H13 0.930 . S
C19 C18 1.373 1_455 S
C19 C20 1.370 1_554 S
C20 C19 1.370 1_556 S
C20 C21 1.384 . S
C21 H12 0.931 . S
C21 C17 1.397 1_455 S
C21 C20 1.384 . S
H22 C27 0.929 . S
H23 C32 0.931 . S
H24 C30 0.930 . S
N25 N26 1.234 . S
N25 C29 1.453 . S
N26 N25 1.234 . S
C27 H22 0.929 . S
C27 C28 1.373 . S
C27 C29 1.368 . S
C28 C27 1.373 . S
C28 C32 1.397 . S
C29 N25 1.453 . S
C29 C27 1.368 . S
C29 C30 1.373 . S
C30 H24 0.930 . S
C30 C29 1.373 . S
C30 C31 1.371 . S
C31 C30 1.371 . S
C31 C32 1.383 . S
C32 H23 0.931 . S
C32 C28 1.397 . S
C32 C31 1.383 . S
H33 C38 0.929 . S
H34 C43 0.931 . S
H35 C41 0.930 . S
N36 N37 1.234 . S
N36 C40 1.453 . S
N37 N36 1.234 . S
C38 H33 0.929 . S
C38 C39 1.373 . S
C38 C40 1.368 . S
C39 C38 1.373 . S
C39 C43 1.397 . S
C40 N36 1.453 . S
C40 C38 1.368 . S
C40 C41 1.373 . S
C41 H35 0.930 . S
C41 C40 1.373 . S
C41 C42 1.371 . S
C42 C41 1.371 . S
C42 C43 1.383 . S
C43 H34 0.931 . S
C43 C39 1.397 . S
C43 C42 1.383 . S
Zn44 O50 1.920 . S
Zn44 O56 1.898 . S
Zn44 O59 1.905 1_455 S
Zn45 O53 1.905 . S
Zn45 O54 1.898 . S
Zn45 O62 1.920 . S
Zn46 O49 2.080 . S
Zn46 O52 2.114 1_545 S
Zn46 O55 2.120 1_545 S
Zn46 O57 2.120 . S
Zn46 O58 2.114 1_455 S
Zn46 O61 2.080 1_545 S
C47 O52 1.166 . S
C47 O53 1.182 . S
C48 O54 1.167 . S
C48 O55 1.299 . S
O49 Zn46 2.080 . S
O49 C63 1.305 . S
O50 Zn44 1.920 . S
O50 C63 1.234 . S
C51 O56 1.167 . S
C51 O57 1.299 . S
O52 Zn46 2.114 1_565 S
O52 C47 1.166 . S
O53 Zn45 1.905 . S
O53 C47 1.182 . S
O54 Zn45 1.898 . S
O54 C48 1.167 . S
O55 Zn46 2.120 1_565 S
O55 C48 1.299 . S
O56 Zn44 1.898 . S
O56 C51 1.167 . S
O57 Zn46 2.120 . S
O57 C51 1.299 . S
O58 Zn46 2.114 1_655 S
O58 C60 1.166 . S
O59 Zn44 1.905 1_655 S
O59 C60 1.182 . S
C60 O58 1.166 . S
C60 O59 1.182 . S
O61 Zn46 2.080 1_565 S
O61 C64 1.305 . S
O62 Zn45 1.920 . S
O62 C64 1.234 . S
C63 O49 1.305 . S
C63 O50 1.234 . S
C64 O61 1.305 . S
C64 O62 1.234 . S
Zn65 O71 1.920 . S
Zn65 O77 1.898 . S
Zn65 O80 1.905 . S
Zn66 O74 1.905 . S
Zn66 O75 1.898 . S
Zn66 O83 1.920 . S
Zn67 O70 2.080 . S
Zn67 O73 2.114 . S
Zn67 O76 2.120 . S
Zn67 O78 2.120 . S
Zn67 O79 2.114 . S
Zn67 O82 2.080 . S
C68 O73 1.166 . S
C68 O74 1.182 . S
C69 O75 1.167 . S
C69 O76 1.299 . S
O70 Zn67 2.080 . S
O70 C84 1.305 . S
O71 Zn65 1.920 . S
O71 C84 1.234 . S
C72 O77 1.167 . S
C72 O78 1.299 . S
O73 Zn67 2.114 . S
O73 C68 1.166 . S
O74 Zn66 1.905 . S
O74 C68 1.182 . S
O75 Zn66 1.898 . S
O75 C69 1.167 . S
O76 Zn67 2.120 . S
O76 C69 1.299 . S
O77 Zn65 1.898 . S
O77 C72 1.167 . S
O78 Zn67 2.120 . S
O78 C72 1.299 . S
O79 Zn67 2.114 . S
O79 C81 1.166 . S
O80 Zn65 1.905 . S
O80 C81 1.182 . S
C81 O79 1.166 . S
C81 O80 1.182 . S
O82 Zn67 2.080 . S
O82 C85 1.305 . S
O83 Zn66 1.920 . S
O83 C85 1.234 . S
C84 O70 1.305 . S
C84 O71 1.234 . S
C85 O82 1.305 . S
C85 O83 1.234 . S
H86 C87 0.951 . S
C87 H86 0.951 . S
C87 C93 1.265 . S
H88 C93 0.950 . S
H89 C97 0.949 . S
H90 C98 0.950 . S
H91 C99 0.951 . S
H92 C100 0.951 . S
C93 C87 1.265 . S
C93 H88 0.950 . S
C93 C94 1.478 . S
C94 C93 1.478 . S
C94 C95 1.397 . S
C94 C111 1.394 . S
C95 C94 1.397 . S
C95 C96 1.438 . S
C95 C100 1.429 . S
C96 C95 1.438 . S
C96 C97 1.428 . S
C96 C109 1.394 . S
C97 H89 0.949 . S
C97 C96 1.428 . S
C97 C98 1.345 . S
C98 H90 0.950 . S
C98 C97 1.345 . S
C98 C99 1.424 . S
C99 H91 0.951 . S
C99 C98 1.424 . S
C99 C100 1.347 . S
C100 H92 0.951 . S
C100 C95 1.429 . S
C100 C99 1.347 . S
H101 C102 0.951 . S
C102 H101 0.951 . S
C102 C108 1.265 . S
H103 C108 0.950 . S
H104 C112 0.949 . S
H105 C113 0.950 . S
H106 C114 0.951 . S
H107 C115 0.951 . S
C108 C102 1.265 . S
C108 H103 0.950 . S
C108 C109 1.478 . S
C109 C96 1.394 . S
C109 C108 1.478 . S
C109 C110 1.397 . S
C110 C109 1.397 . S
C110 C111 1.438 . S
C110 C115 1.429 . S
C111 C94 1.394 . S
C111 C110 1.438 . S
C111 C112 1.428 . S
C112 H104 0.949 . S
C112 C111 1.428 . S
C112 C113 1.345 . S
C113 H105 0.950 . S
C113 C112 1.345 . S
C113 C114 1.424 . S
C114 H106 0.951 . S
C114 C113 1.424 . S
C114 C115 1.347 . S
C115 H107 0.951 . S
C115 C110 1.429 . S
C115 C114 1.347 . S
H116 C117 0.951 1_655 S
C117 H116 0.951 1_455 S
C117 C123 1.265 . S
H118 C123 0.950 . S
H119 C127 0.949 . S
H120 C128 0.950 . S
H121 C129 0.951 . S
H122 C130 0.951 . S
C123 C117 1.265 . S
C123 H118 0.950 . S
C123 C124 1.478 . S
C124 C123 1.478 . S
C124 C125 1.397 . S
C124 C141 1.394 . S
C125 C124 1.397 . S
C125 C126 1.438 . S
C125 C130 1.429 . S
C126 C125 1.438 . S
C126 C127 1.428 . S
C126 C139 1.394 . S
C127 H119 0.949 . S
C127 C126 1.428 . S
C127 C128 1.345 . S
C128 H120 0.950 . S
C128 C127 1.345 . S
C128 C129 1.424 . S
C129 H121 0.951 . S
C129 C128 1.424 . S
C129 C130 1.347 . S
C130 H122 0.951 . S
C130 C125 1.429 . S
C130 C129 1.347 . S
H131 C132 0.951 . S
C132 H131 0.951 . S
C132 C138 1.265 . S
H133 C138 0.950 1_655 S
H134 C142 0.949 . S
H135 C143 0.950 . S
H136 C144 0.951 . S
H137 C145 0.951 . S
C138 C132 1.265 . S
C138 H133 0.950 1_455 S
C138 C139 1.478 . S
C139 C126 1.394 . S
C139 C138 1.478 . S
C139 C140 1.401 . S
C140 C139 1.401 . S
C140 C141 1.438 . S
C140 C145 1.425 1_455 S
C141 C124 1.394 . S
C141 C140 1.438 . S
C141 C142 1.428 1_455 S
C142 H134 0.949 . S
C142 C141 1.428 1_655 S
C142 C143 1.345 . S
C143 H135 0.950 . S
C143 C142 1.345 . S
C143 C144 1.424 . S
C144 H136 0.951 . S
C144 C143 1.424 . S
C144 C145 1.347 . S
C145 H137 0.951 . S
C145 C140 1.425 1_655 S
C145 C144 1.347 . S
H146 C147 0.951 . S
C147 H146 0.951 . S
C147 C153 1.265 . S
H148 C153 0.950 . S
H149 C157 0.949 . S
H150 C158 0.950 . S
H151 C159 0.951 . S
H152 C160 0.951 . S
C153 C147 1.265 . S
C153 H148 0.950 . S
C153 C154 1.478 . S
C154 C153 1.478 . S
C154 C155 1.397 . S
C154 C171 1.394 . S
C155 C154 1.397 . S
C155 C156 1.438 . S
C155 C160 1.429 . S
C156 C155 1.438 . S
C156 C157 1.428 . S
C156 C169 1.394 . S
C157 H149 0.949 . S
C157 C156 1.428 . S
C157 C158 1.345 . S
C158 H150 0.950 . S
C158 C157 1.345 . S
C158 C159 1.424 . S
C159 H151 0.951 . S
C159 C158 1.424 . S
C159 C160 1.347 . S
C160 H152 0.951 . S
C160 C155 1.429 . S
C160 C159 1.347 . S
H161 C162 0.951 . S
C162 H161 0.951 . S
C162 C168 1.265 . S
H163 C168 0.950 . S
H164 C172 0.949 . S
H165 C173 0.950 . S
H166 C174 0.951 . S
H167 C175 0.951 . S
C168 C162 1.265 . S
C168 H163 0.950 . S
C168 C169 1.478 . S
C169 C156 1.394 . S
C169 C168 1.478 . S
C169 C170 1.397 . S
C170 C169 1.397 . S
C170 C171 1.438 . S
C170 C175 1.429 . S
C171 C154 1.394 . S
C171 C170 1.438 . S
C171 C172 1.428 . S
C172 H164 0.949 . S
C172 C171 1.428 . S
C172 C173 1.345 . S
C173 H165 0.950 . S
C173 C172 1.345 . S
C173 C174 1.424 . S
C174 H166 0.951 . S
C174 C173 1.424 . S
C174 C175 1.347 . S
C175 H167 0.951 . S
C175 C170 1.429 . S
C175 C174 1.347 . S
H176 C177 0.951 . S
C177 H176 0.951 . S
C177 C183 1.265 . S
H178 C183 0.950 . S
H179 C187 0.949 . S
H180 C188 0.950 . S
H181 C189 0.951 . S
H182 C190 0.951 . S
C183 C177 1.265 . S
C183 H178 0.950 . S
C183 C184 1.478 . S
C184 C183 1.478 . S
C184 C185 1.397 . S
C184 C201 1.394 . S
C185 C184 1.397 . S
C185 C186 1.438 . S
C185 C190 1.429 . S
C186 C185 1.438 . S
C186 C187 1.428 . S
C186 C199 1.394 . S
C187 H179 0.949 . S
C187 C186 1.428 . S
C187 C188 1.345 . S
C188 H180 0.950 . S
C188 C187 1.345 . S
C188 C189 1.424 . S
C189 H181 0.951 . S
C189 C188 1.424 . S
C189 C190 1.347 . S
C190 H182 0.951 . S
C190 C185 1.429 . S
C190 C189 1.347 . S
H191 C192 0.951 . S
C192 H191 0.951 . S
C192 C198 1.265 . S
H193 C198 0.950 . S
H194 C202 0.949 . S
H195 C203 0.950 . S
H196 C204 0.951 . S
H197 C205 0.951 . S
C198 C192 1.265 . S
C198 H193 0.950 . S
C198 C199 1.478 . S
C199 C186 1.394 . S
C199 C198 1.478 . S
C199 C200 1.397 . S
C200 C199 1.397 . S
C200 C201 1.438 . S
C200 C205 1.429 . S
C201 C184 1.394 . S
C201 C200 1.438 . S
C201 C202 1.428 . S
C202 H194 0.949 . S
C202 C201 1.428 . S
C202 C203 1.345 . S
C203 H195 0.950 . S
C203 C202 1.345 . S
C203 C204 1.424 . S
C204 H196 0.951 . S
C204 C203 1.424 . S
C204 C205 1.347 . S
C205 H197 0.951 . S
C205 C200 1.429 . S
C205 C204 1.347 . S
H206 C207 0.951 1_554 S
C207 H206 0.951 1_556 S
C207 C213 1.265 . S
H208 C213 0.950 . S
H209 C217 0.949 . S
H210 C218 0.950 . S
H211 C219 0.951 . S
H212 C220 0.951 . S
C213 C207 1.265 . S
C213 H208 0.950 . S
C213 C214 1.478 . S
C214 C213 1.478 . S
C214 C215 1.397 . S
C214 C231 1.394 . S
C215 C214 1.397 . S
C215 C216 1.438 . S
C215 C220 1.429 . S
C216 C215 1.438 . S
C216 C217 1.428 . S
C216 C229 1.394 . S
C217 H209 0.949 . S
C217 C216 1.428 . S
C217 C218 1.345 . S
C218 H210 0.950 . S
C218 C217 1.345 . S
C218 C219 1.424 . S
C219 H211 0.951 . S
C219 C218 1.424 . S
C219 C220 1.347 . S
C220 H212 0.951 . S
C220 C215 1.429 . S
C220 C219 1.347 . S
H221 C222 0.951 . S
C222 H221 0.951 . S
C222 C228 1.265 . S
H223 C228 0.950 . S
H224 C232 0.949 . S
H225 C233 0.953 . S
H226 C234 0.951 1_554 S
H227 C235 0.951 . S
C228 C222 1.265 . S
C228 H223 0.950 . S
C228 C229 1.478 . S
C229 C216 1.394 . S
C229 C228 1.478 . S
C229 C230 1.397 . S
C230 C229 1.397 . S
C230 C231 1.438 . S
C230 C235 1.429 . S
C231 C214 1.394 . S
C231 C230 1.438 . S
C231 C232 1.428 . S
C232 H224 0.949 . S
C232 C231 1.428 . S
C232 C233 1.342 1_556 S
C233 H225 0.953 . S
C233 C232 1.342 1_554 S
C233 C234 1.423 1_554 S
C234 H226 0.951 1_556 S
C234 C233 1.423 1_556 S
C234 C235 1.347 . S
C235 H227 0.951 . S
C235 C230 1.429 . S
C235 C234 1.347 . S
H236 C237 0.951 . S
C237 H236 0.951 . S
C237 C243 1.265 . S
H238 C243 0.950 1_554 S
H239 C247 0.949 . S
H240 C248 0.950 . S
H241 C249 0.951 . S
H242 C250 0.951 . S
C243 C237 1.265 . S
C243 H238 0.950 1_556 S
C243 C244 1.478 . S
C244 C243 1.478 . S
C244 C245 1.397 . S
C244 C261 1.394 . S
C245 C244 1.397 . S
C245 C246 1.438 . S
C245 C250 1.429 . S
C246 C245 1.438 . S
C246 C247 1.428 . S
C246 C259 1.394 . S
C247 H239 0.949 . S
C247 C246 1.428 . S
C247 C248 1.345 . S
C248 H240 0.950 . S
C248 C247 1.345 . S
C248 C249 1.424 . S
C249 H241 0.951 . S
C249 C248 1.424 . S
C249 C250 1.347 . S
C250 H242 0.951 . S
C250 C245 1.429 . S
C250 C249 1.347 . S
H251 C252 0.951 . S
C252 H251 0.951 . S
C252 C258 1.265 . S
H253 C258 0.950 . S
H254 C262 0.949 . S
H255 C263 0.950 . S
H256 C264 0.951 . S
H257 C265 0.951 . S
C258 C252 1.265 . S
C258 H253 0.950 . S
C258 C259 1.478 . S
C259 C246 1.394 . S
C259 C258 1.478 . S
C259 C260 1.397 . S
C260 C259 1.397 . S
C260 C261 1.438 . S
C260 C265 1.429 . S
C261 C244 1.394 . S
C261 C260 1.438 . S
C261 C262 1.428 . S
C262 H254 0.949 . S
C262 C261 1.428 . S
C262 C263 1.345 . S
C263 H255 0.950 . S
C263 C262 1.345 . S
C263 C264 1.424 . S
C264 H256 0.951 . S
C264 C263 1.424 . S
C264 C265 1.347 . S
C265 H257 0.951 . S
C265 C260 1.429 . S
C265 C264 1.347 . S
H266 C267 0.951 1_655 S
C267 H266 0.951 1_455 S
C267 C273 1.265 . S
H268 C273 0.950 . S
H269 C277 0.949 . S
H270 C278 0.950 . S
H271 C279 0.951 . S
H272 C280 0.951 . S
C273 C267 1.265 . S
C273 H268 0.950 . S
C273 C274 1.478 1_455 S
C274 C273 1.478 1_655 S
C274 C275 1.397 . S
C274 C291 1.394 . S
C275 C274 1.397 . S
C275 C276 1.438 . S
C275 C280 1.429 1_655 S
C276 C275 1.438 . S
C276 C277 1.428 . S
C276 C289 1.394 . S
C277 H269 0.949 . S
C277 C276 1.428 . S
C277 C278 1.345 . S
C278 H270 0.950 . S
C278 C277 1.345 . S
C278 C279 1.424 1_655 S
C279 H271 0.951 . S
C279 C278 1.424 1_455 S
C279 C280 1.347 . S
C280 H272 0.951 . S
C280 C275 1.429 1_455 S
C280 C279 1.347 . S
H281 C282 0.951 . S
C282 H281 0.951 . S
C282 C288 1.265 . S
H283 C288 0.950 . S
H284 C292 0.949 1_554 S
H285 C293 0.950 . S
H286 C294 0.951 1_554 S
H287 C295 0.951 . S
C288 C282 1.265 . S
C288 H283 0.950 . S
C288 C289 1.478 . S
C289 C276 1.394 . S
C289 C288 1.478 . S
C289 C290 1.397 . S
C290 C289 1.397 . S
C290 C291 1.438 . S
C290 C295 1.429 . S
C291 C274 1.394 . S
C291 C290 1.438 . S
C291 C292 1.428 . S
C292 H284 0.949 1_556 S
C292 C291 1.428 . S
C292 C293 1.345 1_556 S
C293 H285 0.950 . S
C293 C292 1.345 1_554 S
C293 C294 1.424 1_554 S
C294 H286 0.951 1_556 S
C294 C293 1.424 1_556 S
C294 C295 1.347 . S
C295 H287 0.951 . S
C295 C290 1.429 . S
C295 C294 1.347 . S
H296 C297 0.951 . S
C297 H296 0.951 . S
C297 C303 1.265 . S
H298 C303 0.950 . S
H299 C307 0.949 . S
H300 C308 0.950 . S
H301 C309 0.951 . S
H302 C310 0.951 . S
C303 C297 1.265 . S
C303 H298 0.950 . S
C303 C304 1.478 . S
C304 C303 1.478 . S
C304 C305 1.397 . S
C304 C321 1.394 . S
C305 C304 1.397 . S
C305 C306 1.438 . S
C305 C310 1.429 1_556 S
C306 C305 1.438 . S
C306 C307 1.428 . S
C306 C319 1.394 . S
C307 H299 0.949 . S
C307 C306 1.428 . S
C307 C308 1.345 1_556 S
C308 H300 0.950 . S
C308 C307 1.345 1_554 S
C308 C309 1.424 . S
C309 H301 0.951 . S
C309 C308 1.424 . S
C309 C310 1.347 . S
C310 H302 0.951 . S
C310 C305 1.429 1_554 S
C310 C309 1.347 . S
H311 C312 0.951 . S
C312 H311 0.951 . S
C312 C318 1.265 . S
H313 C318 0.950 . S
H314 C322 0.949 . S
H315 C323 0.950 . S
H316 C324 0.951 . S
H317 C325 0.951 . S
C318 C312 1.265 . S
C318 H313 0.950 . S
C318 C319 1.478 . S
C319 C306 1.394 . S
C319 C318 1.478 . S
C319 C320 1.397 . S
C320 C319 1.397 . S
C320 C321 1.438 . S
C320 C325 1.429 . S
C321 C304 1.394 . S
C321 C320 1.438 . S
C321 C322 1.428 . S
C322 H314 0.949 . S
C322 C321 1.428 . S
C322 C323 1.345 . S
C323 H315 0.950 . S
C323 C322 1.345 . S
C323 C324 1.424 . S
C324 H316 0.951 . S
C324 C323 1.424 . S
C324 C325 1.347 . S
C325 H317 0.951 . S
C325 C320 1.429 . S
C325 C324 1.347 . S
H326 C327 0.951 . S
C327 H326 0.951 . S
C327 C333 1.265 . S
H328 C333 0.950 . S
H329 C337 0.949 . S
H330 C338 0.950 . S
H331 C339 0.951 . S
H332 C340 0.951 . S
C333 C327 1.265 . S
C333 H328 0.950 . S
C333 C334 1.478 . S
C334 C333 1.478 . S
C334 C335 1.397 . S
C334 C351 1.394 . S
C335 C334 1.397 . S
C335 C336 1.438 . S
C335 C340 1.429 . S
C336 C335 1.438 . S
C336 C337 1.428 . S
C336 C349 1.394 . S
C337 H329 0.949 . S
C337 C336 1.428 . S
C337 C338 1.345 . S
C338 H330 0.950 . S
C338 C337 1.345 . S
C338 C339 1.424 . S
C339 H331 0.951 . S
C339 C338 1.424 . S
C339 C340 1.347 . S
C340 H332 0.951 . S
C340 C335 1.429 . S
C340 C339 1.347 . S
H341 C342 0.951 . S
C342 H341 0.951 . S
C342 C348 1.265 . S
H343 C348 0.950 . S
H344 C352 0.949 . S
H345 C353 0.950 . S
H346 C354 0.951 1_455 S
H347 C355 0.951 1_455 S
C348 C342 1.265 . S
C348 H343 0.950 . S
C348 C349 1.478 . S
C349 C336 1.394 . S
C349 C348 1.478 . S
C349 C350 1.397 . S
C350 C349 1.397 . S
C350 C351 1.438 . S
C350 C355 1.429 . S
C351 C334 1.394 . S
C351 C350 1.438 . S
C351 C352 1.428 . S
C352 H344 0.949 . S
C352 C351 1.428 . S
C352 C353 1.345 . S
C353 H345 0.950 . S
C353 C352 1.345 . S
C353 C354 1.424 . S
C354 H346 0.951 1_655 S
C354 C353 1.424 . S
C354 C355 1.347 . S
C355 H347 0.951 1_655 S
C355 C350 1.429 . S
C355 C354 1.347 . S
H356 C357 0.951 . S
C357 H356 0.951 . S
C357 C363 1.265 . S
H358 C363 0.950 . S
H359 C367 0.949 . S
H360 C368 0.950 . S
H361 C369 0.951 . S
H362 C370 0.951 . S
C363 C357 1.265 . S
C363 H358 0.950 . S
C363 C364 1.478 . S
C364 C363 1.478 . S
C364 C365 1.397 . S
C364 C381 1.394 . S
C365 C364 1.397 . S
C365 C366 1.438 . S
C365 C370 1.429 . S
C366 C365 1.438 . S
C366 C367 1.428 . S
C366 C379 1.394 . S
C367 H359 0.949 . S
C367 C366 1.428 . S
C367 C368 1.345 . S
C368 H360 0.950 . S
C368 C367 1.345 . S
C368 C369 1.424 . S
C369 H361 0.951 . S
C369 C368 1.424 . S
C369 C370 1.347 . S
C370 H362 0.951 . S
C370 C365 1.429 . S
C370 C369 1.347 . S
H371 C372 0.951 . S
C372 H371 0.951 . S
C372 C378 1.265 . S
H373 C378 0.950 . S
H374 C382 0.949 . S
H375 C383 0.950 . S
H376 C384 0.951 . S
H377 C385 0.951 . S
C378 C372 1.265 . S
C378 H373 0.950 . S
C378 C379 1.478 . S
C379 C366 1.394 . S
C379 C378 1.478 . S
C379 C380 1.397 . S
C380 C379 1.397 . S
C380 C381 1.438 . S
C380 C385 1.429 . S
C381 C364 1.394 . S
C381 C380 1.438 . S
C381 C382 1.428 . S
C382 H374 0.949 . S
C382 C381 1.428 . S
C382 C383 1.345 . S
C383 H375 0.950 . S
C383 C382 1.345 . S
C383 C384 1.424 . S
C384 H376 0.951 . S
C384 C383 1.424 . S
C384 C385 1.347 . S
C385 H377 0.951 . S
C385 C380 1.429 . S
C385 C384 1.347 . S
H386 C387 0.951 . S
C387 H386 0.951 . S
C387 C393 1.265 . S
H388 C393 0.950 . S
H389 C397 0.949 . S
H390 C398 0.950 . S
H391 C399 0.951 . S
H392 C400 0.951 . S
C393 C387 1.265 . S
C393 H388 0.950 . S
C393 C394 1.478 . S
C394 C393 1.478 . S
C394 C395 1.397 . S
C394 C411 1.394 . S
C395 C394 1.397 . S
C395 C396 1.438 . S
C395 C400 1.429 . S
C396 C395 1.438 . S
C396 C397 1.428 . S
C396 C409 1.394 . S
C397 H389 0.949 . S
C397 C396 1.428 . S
C397 C398 1.345 . S
C398 H390 0.950 . S
C398 C397 1.345 . S
C398 C399 1.424 . S
C399 H391 0.951 . S
C399 C398 1.424 . S
C399 C400 1.347 . S
C400 H392 0.951 . S
C400 C395 1.429 . S
C400 C399 1.347 . S
H401 C402 0.951 . S
C402 H401 0.951 . S
C402 C408 1.265 . S
H403 C408 0.950 . S
H404 C412 0.949 . S
H405 C413 0.950 . S
H406 C414 0.951 . S
H407 C415 0.951 . S
C408 C402 1.265 . S
C408 H403 0.950 . S
C408 C409 1.478 . S
C409 C396 1.394 . S
C409 C408 1.478 . S
C409 C410 1.397 . S
C410 C409 1.397 . S
C410 C411 1.438 . S
C410 C415 1.429 . S
C411 C394 1.394 . S
C411 C410 1.438 . S
C411 C412 1.428 . S
C412 H404 0.949 . S
C412 C411 1.428 . S
C412 C413 1.345 . S
C413 H405 0.950 . S
C413 C412 1.345 . S
C413 C414 1.424 . S
C414 H406 0.951 . S
C414 C413 1.424 . S
C414 C415 1.347 . S
C415 H407 0.951 . S
C415 C410 1.429 . S
C415 C414 1.347 . S
H416 C417 0.951 . S
C417 H416 0.951 . S
C417 C423 1.265 . S
H418 C423 0.950 . S
H419 C427 0.949 . S
H420 C428 0.950 . S
H421 C429 0.951 . S
H422 C430 0.951 . S
C423 C417 1.265 . S
C423 H418 0.950 . S
C423 C424 1.478 . S
C424 C423 1.478 . S
C424 C425 1.397 . S
C424 C441 1.394 . S
C425 C424 1.397 . S
C425 C426 1.438 . S
C425 C430 1.429 . S
C426 C425 1.438 . S
C426 C427 1.428 . S
C426 C439 1.394 . S
C427 H419 0.949 . S
C427 C426 1.428 . S
C427 C428 1.345 . S
C428 H420 0.950 . S
C428 C427 1.345 . S
C428 C429 1.424 . S
C429 H421 0.951 . S
C429 C428 1.424 . S
C429 C430 1.347 . S
C430 H422 0.951 . S
C430 C425 1.429 . S
C430 C429 1.347 . S
H431 C432 0.951 . S
C432 H431 0.951 . S
C432 C438 1.265 . S
H433 C438 0.950 . S
H434 C442 0.949 . S
H435 C443 0.950 . S
H436 C444 0.951 . S
H437 C445 0.951 . S
C438 C432 1.265 . S
C438 H433 0.950 . S
C438 C439 1.478 . S
C439 C426 1.394 . S
C439 C438 1.478 . S
C439 C440 1.397 . S
C440 C439 1.397 . S
C440 C441 1.438 . S
C440 C445 1.429 . S
C441 C424 1.394 . S
C441 C440 1.438 . S
C441 C442 1.428 . S
C442 H434 0.949 . S
C442 C441 1.428 . S
C442 C443 1.345 . S
C443 H435 0.950 . S
C443 C442 1.345 . S
C443 C444 1.424 . S
C444 H436 0.951 . S
C444 C443 1.424 . S
C444 C445 1.347 . S
C445 H437 0.951 . S
C445 C440 1.429 . S
C445 C444 1.347 . S
C102 C51 1.404 . S
C87 N4 1.516 . S
C132 C47 1.375 . S
C117 N15 1.513 . S
C162 C72 1.438 . S
C147 N26 1.521 . S
C177 N37 1.456 . S
C192 C68 1.418 . S
C207 C9 1.226 . S
C222 C69 1.044 . S
C252 C84 1.124 . S
C237 C17 1.235 . S
C267 C6 1.731 . S
C282 C85 1.637 . S
C312 C81 1.551 . S
C297 C20 1.716 . S
C342 C48 1.044 1_655 S
C327 C31 1.226 . S
C357 C39 1.239 . S
C372 C63 1.042 . S
C402 C64 1.630 . S
C387 C28 1.724 . S
C432 C60 1.551 . S
C417 C42 1.716 . S
