# Generated by pormake.
# Topology zzz, (3,6)-cn, num edge types: 1
# Building blocks:
#     Node 0, Type 0, BuildingBlock: PAMTOO_clean_linker_0, # of connection points: 3
#     Node 1, Type 0, BuildingBlock: PAMTOO_clean_linker_0, # of connection points: 3
#     Node 2, Type 0, BuildingBlock: PAMTOO_clean_linker_0, # of connection points: 3
#     Node 3, Type 0, BuildingBlock: PAMTOO_clean_linker_0, # of connection points: 3
#     Node 4, Type 0, BuildingBlock: PAMTOO_clean_linker_0, # of connection points: 3
#     Node 5, Type 0, BuildingBlock: PAMTOO_clean_linker_0, # of connection points: 3
#     Node 6, Type 0, BuildingBlock: PAMTOO_clean_linker_0, # of connection points: 3
#     Node 7, Type 0, BuildingBlock: PAMTOO_clean_linker_0, # of connection points: 3
#     Node 8, Type 1, BuildingBlock: HISSIN_clean_sbu_0, # of connection points: 6
#     Node 9, Type 1, BuildingBlock: HISSIN_clean_sbu_0, # of connection points: 6
#     Node 10, Type 1, BuildingBlock: HISSIN_clean_sbu_0, # of connection points: 6
#     Node 11, Type 1, BuildingBlock: HISSIN_clean_sbu_0, # of connection points: 6
#     Edge 12, Type (0, 1), BuildingBlock: AJUNOK_clean_linker_0, # of connection points: 2
#     Edge 13, Type (0, 1), BuildingBlock: AJUNOK_clean_linker_0, # of connection points: 2
#     Edge 14, Type (0, 1), BuildingBlock: AJUNOK_clean_linker_0, # of connection points: 2
#     Edge 15, Type (0, 1), BuildingBlock: AJUNOK_clean_linker_0, # of connection points: 2
#     Edge 16, Type (0, 1), BuildingBlock: AJUNOK_clean_linker_0, # of connection points: 2
#     Edge 17, Type (0, 1), BuildingBlock: AJUNOK_clean_linker_0, # of connection points: 2
#     Edge 18, Type (0, 1), BuildingBlock: AJUNOK_clean_linker_0, # of connection points: 2
#     Edge 19, Type (0, 1), BuildingBlock: AJUNOK_clean_linker_0, # of connection points: 2
#     Edge 20, Type (0, 1), BuildingBlock: AJUNOK_clean_linker_0, # of connection points: 2
#     Edge 21, Type (0, 1), BuildingBlock: AJUNOK_clean_linker_0, # of connection points: 2
#     Edge 22, Type (0, 1), BuildingBlock: AJUNOK_clean_linker_0, # of connection points: 2
#     Edge 23, Type (0, 1), BuildingBlock: AJUNOK_clean_linker_0, # of connection points: 2
#     Edge 24, Type (0, 1), BuildingBlock: AJUNOK_clean_linker_0, # of connection points: 2
#     Edge 25, Type (0, 1), BuildingBlock: AJUNOK_clean_linker_0, # of connection points: 2
#     Edge 26, Type (0, 1), BuildingBlock: AJUNOK_clean_linker_0, # of connection points: 2
#     Edge 27, Type (0, 1), BuildingBlock: AJUNOK_clean_linker_0, # of connection points: 2
#     Edge 28, Type (0, 1), BuildingBlock: AJUNOK_clean_linker_0, # of connection points: 2
#     Edge 29, Type (0, 1), BuildingBlock: AJUNOK_clean_linker_0, # of connection points: 2
#     Edge 30, Type (0, 1), BuildingBlock: AJUNOK_clean_linker_0, # of connection points: 2
#     Edge 31, Type (0, 1), BuildingBlock: AJUNOK_clean_linker_0, # of connection points: 2
#     Edge 32, Type (0, 1), BuildingBlock: AJUNOK_clean_linker_0, # of connection points: 2
#     Edge 33, Type (0, 1), BuildingBlock: AJUNOK_clean_linker_0, # of connection points: 2
#     Edge 34, Type (0, 1), BuildingBlock: AJUNOK_clean_linker_0, # of connection points: 2
#     Edge 35, Type (0, 1), BuildingBlock: AJUNOK_clean_linker_0, # of connection points: 2
# Relax obj value: 0.353
# Max RMSD: 0.207
# Mean RMSD: 0.098
data_MOF--net-zzz--node1-HISSIN_clean_sbu_0--node2-PAMTOO_clean_linker_0--edge1-AJUNOK_clean_linker_0
_symmetry_space_group_name_H-M    P1
_symmetry_Int_Tables_number       1
_symmetry_cell_setting            triclinic
loop_
_symmetry_equiv_pos_as_xyz
'x, y, z'
_cell_length_a     35.865833
_cell_length_b     36.10432
_cell_length_c     11.855662
_cell_angle_alpha  90.047523
_cell_angle_beta   90.675032
_cell_angle_gamma 90.39556
loop_
_atom_site_label
_atom_site_type_symbol
_atom_site_fract_x
_atom_site_fract_y
_atom_site_fract_z
_atom_type_partial_charge
H0 H 0.8666 0.45244 0.4225 0.0
H1 H 0.76937 0.4704 0.21528 0.0
H2 H 0.80415 0.55301 0.4572 0.0
H3 H 0.7129 0.55408 0.39614 0.0
C4 C 0.71729 0.53252 0.33077 0.0
O5 O 0.75404 0.53531 0.29578 0.0
H6 H 0.71228 0.50519 0.37093 0.0
C7 C 0.842 0.4686 0.4027 0.0
C8 C 0.83795 0.50327 0.4545 0.0
C9 C 0.81779 0.45658 0.3159 0.0
C10 C 0.78755 0.47887 0.2844 0.0
C11 C 0.78196 0.51329 0.33595 0.0
C12 C 0.80749 0.52577 0.42058 0.0
H13 H 0.11848 0.85872 0.40394 0.0
H14 H 0.11181 0.7608 0.20048 0.0
H15 H 1.02107 0.78877 0.41947 0.0
H16 H 1.03257 0.69571 0.35731 0.0
C17 C 0.05205 0.70369 0.28916 0.0
O18 O 0.04541 0.7406 0.26138 0.0
H19 H 0.08078 0.70071 0.32395 0.0
C20 C 0.10427 0.83308 0.38152 0.0
C21 C 0.069 0.82609 0.42678 0.0
C22 C 0.11969 0.80999 0.29936 0.0
C23 C 0.10013 0.77818 0.26506 0.0
C24 C 0.06478 0.76985 0.30762 0.0
C25 C 0.04888 0.79417 0.38871 0.0
H26 H 0.74193 0.11443 0.4582 0.0
H27 H 0.84125 0.10032 0.26472 0.0
H28 H 0.80388 1.01288 0.48407 0.0
H29 H 0.83451 1.01756 0.18874 0.0
C30 C 0.86071 1.01519 0.23945 0.0
O31 O 0.85808 0.03548 0.33943 0.0
H32 H 0.86274 0.98541 0.26199 0.0
C33 C 0.76638 0.09823 0.43853 0.0
C34 C 0.76975 0.06268 0.48532 0.0
C35 C 0.79164 0.11177 0.3583 0.0
C36 C 0.82212 0.09019 0.32775 0.0
C37 C 0.82712 0.05471 0.37186 0.0
C38 C 0.80048 0.04051 0.45028 0.0
H39 H 0.47339 0.71622 0.4321 0.0
H40 H 0.49205 0.81383 0.23418 0.0
H41 H 0.57271 0.78194 0.48773 0.0
H42 H 0.56421 0.87732 0.42572 0.0
C43 C 0.54752 0.8692 0.34999 0.0
O44 O 0.5554 0.83222 0.32567 0.0
H45 H 0.51762 0.87225 0.3721 0.0
C46 C 0.48967 0.74109 0.41642 0.0
C47 C 0.52374 0.74602 0.47415 0.0
C48 C 0.47811 0.76517 0.33014 0.0
C49 C 0.50031 0.79587 0.30316 0.0
C50 C 0.53391 0.80295 0.3608 0.0
C51 C 0.54602 0.77759 0.44606 0.0
H52 H 0.24187 0.60346 0.12297 0.0
H53 H 0.34467 0.58962 0.30752 0.0
H54 H 0.30802 0.50629 0.06938 0.0
H55 H 0.36892 0.47414 0.27211 0.0
C56 C 0.36524 0.50256 0.30592 0.0
O57 O 0.36227 0.52693 0.21556 0.0
H58 H 0.33882 0.50186 0.35447 0.0
C59 C 0.2674 0.58816 0.13788 0.0
C60 C 0.27197 0.55417 0.08289 0.0
C61 C 0.29319 0.60115 0.21893 0.0
C62 C 0.325 0.58023 0.24334 0.0
C63 C 0.33076 0.5462 0.18966 0.0
C64 C 0.30392 0.53281 0.1099 0.0
H65 H 0.9627 0.22257 0.11062 0.0
H66 H 0.97864 0.3243 0.29335 0.0
H67 H 0.05942 0.29054 0.04813 0.0
H68 H 0.09458 0.34778 0.25489 0.0
C69 C 0.06601 0.34565 0.28962 0.0
O70 O 0.04085 0.34294 0.19955 0.0
H71 H 0.06576 0.31982 0.34094 0.0
C72 C 0.97835 0.24804 0.12409 0.0
C73 C 1.01159 0.25356 0.06486 0.0
C74 C 0.96664 0.27286 0.20764 0.0
C75 C 0.98755 0.30501 0.22918 0.0
C76 C 1.0211 0.31155 0.17331 0.0
C77 C 1.0334 0.28561 0.09117 0.0
H78 H 0.37696 0.08101 0.24363 0.0
H79 H 0.26445 0.08333 0.36437 0.0
H80 H 0.28679 0.04547 1.02756 0.0
H81 H 0.18954 0.07193 0.11161 0.0
C82 C 0.2033 0.07413 0.19576 0.0
O83 O 0.23462 0.05131 0.19389 0.0
H84 H 0.2118 0.10364 0.20656 0.0
C85 C 0.34721 0.07829 0.22844 0.0
C86 C 0.33541 0.06599 0.12168 0.0
C87 C 0.32219 0.08254 0.31842 0.0
C88 C 0.28404 0.07861 0.29726 0.0
C89 C 0.27078 0.06392 0.19572 0.0
C90 C 0.29657 0.05764 0.10605 0.0
H91 H 0.62594 0.34578 0.17032 0.0
H92 H 0.60865 0.24435 0.35024 0.0
H93 H 0.52119 0.28817 0.13769 0.0
H94 H 0.56156 0.192 0.22264 0.0
C95 C 0.53755 0.19977 0.27545 0.0
O96 O 0.53858 0.23765 0.29851 0.0
H97 H 0.51203 0.19403 0.22415 0.0
C98 C 0.60914 0.32124 0.18527 0.0
C99 C 0.57372 0.31881 0.13397 0.0
C100 C 0.62198 0.29495 0.26361 0.0
C101 C 0.59897 0.26481 0.2903 0.0
C102 C 0.56227 0.26259 0.24906 0.0
C103 C 0.54961 0.28951 0.16923 0.0
Eu104 Eu 1.00524 0.04971 0.64422 0.0
Eu105 Eu 0.07167 0.03185 0.82762 0.0
C106 C 1.03706 0.1163 0.80905 0.0
C107 C 0.92589 0.09218 0.47271 0.0
C108 C 0.91185 0.11401 0.56049 0.0
C109 C 0.9066 0.13845 0.33754 0.0
C110 C 0.89696 0.14894 0.53682 0.0
C111 C 0.92085 0.10353 0.36099 0.0
C112 C 0.89722 0.16269 0.42579 0.0
C113 C 0.95252 0.06239 0.49503 0.0
O114 O 1.01841 1.02754 0.93367 0.0
O115 O 0.973 0.04515 0.8071 0.0
C116 C 0.98334 0.0358 0.90992 0.0
O117 O 1.01792 0.98864 0.61434 0.0
O118 O 0.09036 1.01222 0.99198 0.0
O119 O 0.13036 0.03693 0.87916 0.0
O120 O 0.06031 0.97456 0.75433 0.0
C121 C 0.03957 0.96463 0.66664 0.0
O122 O 0.05882 0.06481 0.55297 0.0
O123 O 0.10183 0.03316 0.65797 0.0
O124 O 0.06412 0.09424 0.84241 0.0
O125 O 0.98729 0.07197 0.48241 0.0
O126 O 0.94763 0.04215 0.58467 0.0
O127 O 1.0109 0.10473 0.73779 0.0
C128 C 0.15128 0.99017 1.00573 0.0
C129 C 0.15701 0.98308 0.12045 0.0
C130 C 0.18194 0.93234 0.96063 0.0
C131 C 0.17322 0.9501 0.15553 0.0
C132 C 0.16536 0.96548 0.9255 0.0
C133 C 0.18382 0.92322 0.07616 0.0
C134 C 0.12535 1.01981 0.97456 0.0
C135 C 0.09249 0.05088 0.56471 0.0
H136 H 0.91538 0.1056 0.64765 0.0
H137 H 0.90717 0.14783 0.2508 0.0
H138 H 0.88909 0.16663 0.60629 0.0
H139 H 0.93151 0.08705 0.29227 0.0
H140 H 0.14566 1.00138 0.18341 0.0
H141 H 0.18996 0.91237 0.89732 0.0
H142 H 0.17313 0.94414 0.24499 0.0
H143 H 0.16107 0.97041 0.83617 0.0
Eu144 Eu 0.56691 0.07038 0.91392 0.0
Eu145 Eu 0.54419 1.00638 0.74151 0.0
C146 C 0.56391 0.98367 0.99164 0.0
C147 C 0.61565 0.1468 0.08758 0.0
C148 C 0.62552 0.15354 0.20004 0.0
C149 C 0.6718 0.17871 1.02774 0.0
C150 C 0.65904 0.17117 0.22668 0.0
C151 C 0.63793 0.16107 1.00109 0.0
C152 C 0.68391 0.18158 0.14094 0.0
C153 C 0.58551 0.12022 0.06457 0.0
O154 O 0.49092 1.01615 0.84376 0.0
O155 O 0.50329 0.07423 0.90983 0.0
C156 C 0.47955 0.04677 0.89295 0.0
O157 O 0.5676 0.09992 0.74575 0.0
O158 O 0.52343 0.94988 0.71526 0.0
O159 O 0.53555 0.98438 0.5717 0.0
O160 O 0.52869 0.06036 0.65045 0.0
C161 C 0.54612 0.09264 0.65797 0.0
O162 O 0.62306 0.05701 0.8298 0.0
O163 O 0.60446 1.01593 0.69187 0.0
O164 O 0.57141 0.9758 0.88654 0.0
O165 O 0.56338 0.12686 0.97901 0.0
O166 O 0.59504 0.08545 0.07093 0.0
O167 O 0.55522 1.01797 1.01792 0.0
C168 C 0.47603 0.95839 0.57959 0.0
C169 C 0.45019 0.9606 0.66832 0.0
C170 C 0.4365 0.99794 0.46687 0.0
C171 C 0.4202 0.9848 0.66053 0.0
C172 C 0.46653 0.97386 0.47479 0.0
C173 C 0.41507 1.00564 0.56247 0.0
C174 C 0.51589 0.95654 0.60939 0.0
C175 C 0.63056 0.03666 0.73967 0.0
H176 H 0.6087 0.14253 0.26777 0.0
H177 H 0.69018 0.18657 0.95984 0.0
H178 H 0.66718 0.17217 0.31484 0.0
H179 H 0.63063 0.15606 0.91342 0.0
H180 H 0.45593 0.9479 0.7494 0.0
H181 H 0.43155 1.01249 0.38819 0.0
H182 H 0.40295 0.98931 0.73358 0.0
H183 H 0.4854 0.97194 0.40431 0.0
Eu184 Eu 0.51394 0.54156 0.89034 0.0
Eu185 Eu 0.57767 0.52121 0.70527 0.0
C186 C 0.60232 0.53674 0.96629 0.0
C187 C 0.43451 0.58802 0.04865 0.0
C188 C 0.42562 0.61223 0.96001 0.0
C189 C 0.40864 0.6311 0.18194 0.0
C190 C 0.41016 0.64682 0.98352 0.0
C191 C 0.42346 0.59649 0.15815 0.0
C192 C 0.40477 0.65789 0.09613 0.0
C193 C 0.46184 0.55859 0.03386 0.0
O194 O 0.56282 0.46522 0.78484 0.0
O195 O 0.52877 0.4827 0.93901 0.0
C196 C 0.54664 0.45731 0.88179 0.0
O197 O 0.48135 0.51955 0.7397 0.0
O198 O 0.63453 0.52421 0.64049 0.0
O199 O 0.59122 0.49526 0.54568 0.0
O200 O 0.52435 0.52882 0.60219 0.0
C201 C 0.48977 0.52267 0.63269 0.0
O202 O 0.51925 0.59417 0.78394 0.0
O203 O 0.57544 0.58432 0.69889 0.0
O204 O 0.61021 0.52073 0.86993 0.0
O205 O 0.45666 0.53582 0.94991 0.0
O206 O 0.49649 0.56928 0.04358 0.0
O207 O 0.56916 0.55103 0.98378 0.0
C208 C 0.65177 0.47267 0.52715 0.0
C209 C 0.65286 0.46036 0.41547 0.0
C210 C 0.68801 0.41911 0.58505 0.0
C211 C 0.67002 0.42711 0.38906 0.0
C212 C 0.67071 0.45269 0.61155 0.0
C213 C 0.68589 0.40492 0.47444 0.0
C214 C 0.62663 0.50335 0.55337 0.0
C215 C 0.54724 0.60621 0.72201 0.0
H216 H 0.43385 0.60594 0.87449 0.0
H217 H 0.40523 0.63815 0.26991 0.0
H218 H 0.40683 0.66648 0.91523 0.0
H219 H 0.43009 0.57806 0.22746 0.0
H220 H 0.63831 0.47534 0.34929 0.0
H221 H 0.70045 0.40297 0.65241 0.0
H222 H 0.66737 0.41715 0.30309 0.0
H223 H 0.67015 0.46176 0.69864 0.0
Eu224 Eu 0.06476 0.55978 0.67428 0.0
Eu225 Eu 0.04339 0.49974 0.87239 0.0
C226 C 0.13039 0.529 0.8436 0.0
C227 C 0.11202 0.6339 0.49512 0.0
C228 C 0.13589 0.64757 0.58045 0.0
C229 C 0.15603 0.65392 0.35427 0.0
C230 C 0.17054 0.66292 0.55254 0.0
C231 C 0.12163 0.63864 0.38214 0.0
C232 C 0.18183 0.66425 0.43932 0.0
C233 C 0.08061 0.60921 0.52073 0.0
O234 O 1.03245 0.55639 0.9508 0.0
O235 O 0.06877 0.59251 0.8377 0.0
C236 C 0.04977 0.58798 0.93088 0.0
O237 O 1.00146 0.55604 0.66633 0.0
O238 O 1.01567 0.48584 1.02896 0.0
O239 O 0.05123 0.44536 0.9502 0.0
O240 O 0.98933 0.50406 0.77158 0.0
C241 C 0.97843 0.52981 0.69996 0.0
O242 O 0.06191 0.50522 0.57753 0.0
O243 O 0.04915 0.46322 0.71773 0.0
O244 O 0.10494 0.51199 0.90418 0.0
O245 O 0.08781 0.57404 0.51108 0.0
O246 O 0.06111 0.61648 0.61012 0.0
O247 O 0.12171 0.54566 0.74797 0.0
C248 C 0.99844 0.42388 0.04947 0.0
C249 C 0.97524 0.41147 0.96087 0.0
C250 C 0.95514 0.39875 0.1845 0.0
C251 C 0.94098 0.39455 0.98461 0.0
C252 C 0.98924 0.41544 0.16069 0.0
C253 C 0.92936 0.39068 0.09708 0.0
C254 C 1.0275 0.45179 1.03018 0.0
C255 C 0.0553 0.47105 0.61112 0.0
H256 H 0.12903 0.6439 0.66852 0.0
H257 H 0.16383 0.65366 0.2663 0.0
H258 H 0.1898 0.67068 0.61964 0.0
H259 H 0.10375 0.62785 0.31534 0.0
H260 H 0.98196 0.41786 0.87414 0.0
H261 H 0.94737 0.3968 0.27227 0.0
H262 H 0.92192 0.38841 0.91544 0.0
H263 H 1.00662 0.42521 0.22996 0.0
C264 C 0.18468 0.04943 0.39458 0.0
C265 C 0.17468 0.06483 0.28895 0.0
C266 C 0.15826 0.04465 0.48223 0.0
C267 C 0.12048 0.05542 0.46957 0.0
H268 H 0.2132 0.04116 0.41032 0.0
H269 H 0.16776 0.03278 0.56121 0.0
S270 S 0.07957 0.09637 0.20821 0.0
N271 N 0.12389 0.0904 0.17754 0.0
N272 N 0.07488 0.08137 0.33873 0.0
C273 C 0.11024 0.0705 0.36367 0.0
C274 C 0.13703 0.07532 0.27506 0.0
C275 C 0.52457 0.13758 0.36947 0.0
C276 C 0.53737 0.17456 0.38092 0.0
C277 C 0.52659 0.11177 0.4591 0.0
C278 C 0.54226 0.12126 0.56503 0.0
H279 H 0.51326 0.12826 0.28913 0.0
H280 H 0.51649 0.08384 0.444 0.0
S281 S 0.57952 0.21448 0.6424 0.0
N282 N 0.5657 0.2192 0.50993 0.0
N283 N 0.57022 0.1711 0.67627 0.0
C284 C 0.55504 0.15822 0.57814 0.0
C285 C 0.5526 0.18462 0.487 0.0
C286 C 0.39199 0.52128 0.49806 0.0
C287 C 0.39821 0.51179 0.38451 0.0
C288 C 0.42164 0.52498 0.57651 0.0
C289 C 0.4591 0.51979 0.54522 0.0
H290 H 0.36378 0.52488 0.52757 0.0
H291 H 0.41498 0.53178 0.66295 0.0
S292 S 0.49068 0.49573 0.25687 0.0
N293 N 0.4448 0.49779 0.24434 0.0
N294 N 0.50053 0.50572 0.39 0.0
C295 C 0.4658 0.51146 0.43082 0.0
C296 C 0.43546 0.50721 0.35124 0.0
C297 C 0.07636 0.41362 0.3454 0.0
C298 C 0.05888 0.37918 0.3661 0.0
C299 C 0.07429 0.44335 0.42295 0.0
C300 C 0.05502 0.43994 0.52574 0.0
H301 H 0.09265 0.4173 0.26983 0.0
H302 H 0.08896 0.46883 0.4036 0.0
S303 S 1.00082 0.35694 0.61445 0.0
N304 N 1.01897 0.34469 0.49272 0.0
N305 N 1.01526 0.39981 0.63803 0.0
C306 C 1.03608 0.40611 0.54484 0.0
C307 C 0.03788 0.37607 0.46531 0.0
C308 C 0.92916 1.00784 0.17838 0.0
C309 C 0.89444 1.02583 0.16559 0.0
C310 C 0.95814 1.01208 0.09853 0.0
C311 C 0.95379 0.03425 1.001 0.0
H312 H 0.93344 0.9891 0.24853 0.0
H313 H 0.98363 0.99666 0.11128 0.0
S314 S 0.8703 0.09145 0.93554 0.0
N315 N 0.8592 0.06969 0.05303 0.0
N316 N 0.91274 0.0776 0.90436 0.0
C317 C 0.91992 0.05399 0.991 0.0
C318 C 0.89068 0.04989 0.07266 0.0
C319 C 0.56175 0.93439 0.27972 0.0
C320 C 0.55561 0.89662 0.25317 0.0
C321 C 0.56502 0.96193 0.19559 0.0
C322 C 0.56244 0.95332 0.07971 0.0
H323 H 0.56327 0.94294 0.36723 0.0
H324 H 0.56929 0.9904 0.22203 0.0
S325 S 0.54401 0.85917 0.96279 0.0
N326 N 0.54517 0.85266 0.10064 0.0
N327 N 0.55204 0.9038 0.94333 0.0
C328 C 0.55626 0.91563 0.05154 0.0
C329 C 0.55249 0.8876 0.13762 0.0
C330 C 0.69558 0.52295 0.12514 0.0
C331 C 0.68883 0.53695 0.23404 0.0
C332 C 0.66787 0.5237 0.03937 0.0
C333 C 0.63181 0.53785 0.05839 0.0
H334 H 0.72228 0.51091 0.10632 0.0
H335 H 0.67482 0.51243 0.9574 0.0
S336 S 0.5989 0.57518 0.33203 0.0
N337 N 0.64275 0.56398 0.35725 0.0
N338 N 0.59092 0.56488 0.19819 0.0
C339 C 0.62462 0.5515 0.1677 0.0
C340 C 0.65296 0.55098 0.25448 0.0
C341 C 1.02935 0.64242 0.20321 0.0
C342 C 0.04788 0.67672 0.18871 0.0
C343 C 1.02949 0.61447 0.11953 0.0
C344 C 0.04857 0.61905 1.01686 0.0
H345 H 1.0153 0.63663 0.28171 0.0
H346 H 1.01506 0.5887 0.1369 0.0
S347 S 0.10197 0.70356 0.93599 0.0
N348 N 0.08591 0.71336 0.06236 0.0
N349 N 0.08649 0.66148 0.90623 0.0
C350 C 0.06699 0.65342 1.0008 0.0
C351 C 0.06667 0.6819 0.08611 0.0
C352 C 0.90412 0.24455 0.24088 0.0
C353 C 0.93708 0.26038 0.2855 0.0
C354 C 0.88525 0.21655 0.29949 0.0
C355 C 0.89951 0.20312 0.40276 0.0
H356 H 0.89574 0.25033 0.1546 0.0
H357 H 0.86305 0.20158 0.25605 0.0
S358 S 0.97667 0.24527 0.57171 0.0
N359 N 0.97654 0.26839 0.45173 0.0
N360 N 0.94167 0.21554 0.56125 0.0
C361 C 0.92762 0.22414 0.45758 0.0
C362 C 0.94654 0.25283 0.39835 0.0
C363 C 0.37311 0.09279 0.45848 0.0
C364 C 0.33685 0.07936 0.43596 0.0
C365 C 0.39876 0.07034 0.51522 0.0
C366 C 0.38767 0.03556 0.55678 0.0
H367 H 0.38359 0.11679 0.41375 0.0
H368 H 0.42804 0.07797 0.51385 0.0
S369 S 0.29135 0.99994 0.58079 0.0
N370 N 0.28777 0.03777 0.50357 0.0
N371 N 0.33603 0.99641 0.61333 0.0
C372 C 0.34968 1.0274 0.56305 0.0
C373 C 0.32376 0.0498 0.50334 0.0
C374 C 0.68496 0.32411 0.28641 0.0
C375 C 0.6548 0.3051 0.3356 0.0
C376 C 0.70242 0.35366 0.34351 0.0
C377 C 0.68997 0.36465 0.45067 0.0
H378 H 0.69075 0.32036 0.19764 0.0
H379 H 0.7209 0.37161 0.29644 0.0
S380 S 0.62671 0.31086 0.63482 0.0
N381 N 0.62435 0.28968 0.51177 0.0
N382 N 0.65715 0.34484 0.61865 0.0
C383 C 0.66747 0.33948 0.51011 0.0
C384 C 0.64968 0.30954 0.45214 0.0
C385 C 0.27472 0.62261 0.40718 0.0
C386 C 0.28137 0.63157 0.29394 0.0
C387 C 0.24532 0.63907 0.46473 0.0
C388 C 0.22203 0.66498 0.41057 0.0
H389 H 0.28807 0.59881 0.44546 0.0
H390 H 0.23744 0.627 0.5444 0.0
S391 S 0.23909 0.7089 0.13374 0.0
N392 N 0.27087 0.67609 0.14365 0.0
N393 N 0.21572 0.70757 0.25299 0.0
C394 C 0.23399 0.6799 0.30759 0.0
C395 C 0.26381 0.66299 0.2487 0.0
C396 C 0.14439 0.8294 0.1146 0.0
C397 C 0.15077 0.82476 0.23088 0.0
C398 C 0.1614 0.85846 0.05645 0.0
C399 C 0.1851 0.8838 0.11292 0.0
H400 H 0.12219 0.81424 0.07185 0.0
H401 H 0.1513 0.86415 0.97219 0.0
S402 S 0.22351 0.87251 0.40227 0.0
N403 N 0.19162 0.83945 0.38988 0.0
N404 N 0.22413 0.89407 0.27936 0.0
C405 C 0.19793 0.87414 0.22153 0.0
C406 C 0.18045 0.8446 0.28116 0.0
C407 C 0.77488 0.13784 0.17213 0.0
C408 C 0.78056 0.14391 0.28822 0.0
C409 C 0.74722 0.15716 0.11312 0.0
C410 C 0.7244 0.18267 0.16945 0.0
H411 H 0.7875 0.11435 0.13079 0.0
H412 H 0.73982 0.14722 1.02955 0.0
S413 S 0.7418 0.22102 0.45507 0.0
N414 N 0.7713 0.18623 0.44472 0.0
N415 N 0.71965 0.22328 0.33225 0.0
C416 C 0.73655 0.19534 0.27601 0.0
C417 C 0.76442 0.17538 0.33669 0.0
C418 C 0.45696 0.74531 0.14025 0.0
C419 C 0.44782 0.75264 0.25286 0.0
C420 C 0.4375 0.71827 0.07855 0.0
C421 C 0.40841 0.69767 0.12811 0.0
H422 H 0.48234 0.75658 0.10479 0.0
H423 H 0.44921 0.70994 0.99876 0.0
S424 S 0.36398 0.71854 0.4012 0.0
N425 N 0.40104 0.74599 0.39824 0.0
N426 N 0.36343 0.6959 0.28 0.0
C427 C 0.39411 0.71071 0.23066 0.0
C428 C 0.41432 0.73788 0.29432 0.0
C429 C 0.83793 0.43531 0.12818 0.0
C430 C 0.83063 0.42636 0.24117 0.0
C431 C 0.86668 0.41781 0.07045 0.0
C432 C 0.88898 0.39098 0.12447 0.0
H433 H 0.82544 0.45952 0.08971 0.0
H434 H 0.87487 0.42964 0.99048 0.0
S435 S 0.86936 0.34662 0.39917 0.0
N436 N 0.83918 0.38093 0.39031 0.0
N437 N 0.89299 0.34746 0.28038 0.0
C438 C 0.8762 0.37624 0.22685 0.0
C439 C 0.84708 0.39426 0.2861 0.0
C440 C 0.99626 0.20937 0.90448 0.0
C441 C 1.02277 0.22349 0.98295 0.0
C442 C 1.00195 0.17603 0.84481 0.0
C443 C 1.0344 0.15467 0.86066 0.0
H444 H 0.96995 0.22347 0.8927 0.0
H445 H 0.97977 0.16617 0.78938 0.0
S446 S 0.11448 0.18113 0.04758 0.0
N447 N 0.08407 0.21464 0.06647 0.0
N448 N 0.09516 0.15253 0.9547 0.0
C449 C 0.06217 0.16963 0.93407 0.0
C450 C 0.05631 0.20378 0.99462 0.0
C451 C 0.387 0.0894 0.99498 0.0
C452 C 0.36626 0.05906 0.0372 0.0
C453 C 0.42257 0.08505 0.94544 0.0
C454 C 0.43968 0.05007 0.9352 0.0
H455 H 0.37648 0.1172 1.00604 0.0
H456 H 0.43731 0.10965 0.91783 0.0
S457 S 0.39833 0.9615 0.03568 0.0
N458 N 0.3665 0.99265 0.06684 0.0
N459 N 0.43239 0.9843 0.97304 0.0
C460 C 0.41881 1.01932 0.97414 0.0
C461 C 0.38261 1.02384 1.02523 0.0
C462 C 0.5304 0.37096 0.06876 0.0
C463 C 0.56291 0.34981 0.05331 0.0
C464 C 0.52464 0.4049 1.01063 0.0
C465 C 0.55087 0.41917 0.93318 0.0
H466 H 0.51023 0.36237 0.13092 0.0
H467 H 0.49982 0.42061 1.02895 0.0
S468 S 0.64098 0.37532 0.86406 0.0
N469 N 0.62134 0.34591 0.952 0.0
N470 N 0.61091 0.40924 0.84684 0.0
C471 C 0.58282 0.39771 0.91458 0.0
C472 C 0.58866 0.3633 0.97316 0.0
C473 C 0.21698 0.51264 1.03234 0.0
C474 C 0.24111 0.54203 1.0037 0.0
C475 C 0.18208 0.50762 0.97704 0.0
C476 C 0.16974 0.53163 0.8901 0.0
H477 H 0.22402 0.49484 0.1028 0.0
H478 H 0.16403 0.48546 1.00568 0.0
S479 S 0.22337 0.61221 0.78171 0.0
N480 N 0.25076 0.59461 0.8804 0.0
N481 N 0.18597 0.58533 0.77662 0.0
C482 C 0.19458 0.56002 0.8574 0.0
C483 C 0.2299 0.56516 0.91403 0.0
C484 C 1.02668 0.88035 0.4681 0.0
C485 C 0.05419 0.85534 0.5052 0.0
C486 C 1.02088 0.91459 0.5238 0.0
C487 C 0.04245 0.92566 0.61915 0.0
H488 H 1.01121 0.8746 0.39094 0.0
H489 H 1.00037 0.93324 0.48828 0.0
S490 S 0.11661 0.86873 0.75362 0.0
N491 N 0.10175 0.84314 0.64668 0.0
N492 N 0.09116 0.90664 0.75103 0.0
C493 C 0.06868 0.8998 0.66024 0.0
C494 C 0.07445 0.86505 0.60358 0.0
C495 C 0.7285 0.07248 0.65613 0.0
C496 C 0.73873 0.05007 0.56351 0.0
C497 C 0.6948 0.0669 0.71556 0.0
C498 C 0.66889 0.03887 0.68489 0.0
H499 H 0.74612 0.09573 0.68016 0.0
H500 H 0.68833 0.08591 0.78317 0.0
S501 S 0.68258 0.97133 0.45117 0.0
N502 N 0.72035 0.99772 0.44724 0.0
N503 N 0.65754 0.98708 0.55674 0.0
C504 C 0.67949 1.01534 0.59484 0.0
C505 C 0.71407 1.02092 0.53513 0.0
C506 C 0.50975 0.70205 0.63512 0.0
C507 C 0.53532 0.71531 0.55441 0.0
C508 C 0.51471 0.66796 0.6918 0.0
C509 C 0.5455 0.64485 0.67093 0.0
H510 H 0.48452 0.71747 0.65081 0.0
H511 H 0.49324 0.65906 0.74954 0.0
S512 S 0.62234 0.66764 0.47344 0.0
N513 N 0.5938 0.70317 0.4614 0.0
N514 N 0.60357 0.63968 0.56763 0.0
C515 C 0.57238 0.6587 0.59463 0.0
C516 C 0.56723 0.69361 0.5369 0.0
C517 C 0.88119 0.49227 0.62047 0.0
C518 C 0.86891 0.51585 0.53291 0.0
C519 C 0.91549 0.49806 0.67747 0.0
C520 C 0.93957 0.52767 0.64933 0.0
H521 H 0.86486 0.46789 0.64153 0.0
H522 H 0.92381 0.47811 0.74081 0.0
S523 S 0.91948 0.59902 0.4307 0.0
N524 N 0.88282 0.57112 0.42488 0.0
N525 N 0.94688 0.58242 0.53123 0.0
C526 C 0.92665 0.55262 0.56573 0.0
C527 C 0.89155 0.5467 0.50795 0.0
loop_
_geom_bond_atom_site_label_1
_geom_bond_atom_site_label_2
_geom_bond_distance
_geom_bond_site_symmetry_2
_ccdc_geom_bond_type
H0 C7 0.929 . S
H1 C10 0.930 . S
H2 C12 0.929 . S
H3 C4 0.969 . S
C4 H3 0.969 . S
C4 O5 1.550 . S
C4 H6 0.973 . S
O5 C4 1.550 . S
O5 C11 1.412 . S
H6 C4 0.973 . S
C7 H0 0.929 . S
C7 C8 1.400 . S
C7 C9 1.364 . S
C8 C7 1.400 . S
C8 C12 1.377 . S
C9 C7 1.364 . S
C9 C10 1.374 . S
C10 H1 0.930 . S
C10 C9 1.374 . S
C10 C11 1.383 . S
C11 O5 1.412 . S
C11 C10 1.383 . S
C11 C12 1.394 . S
C12 H2 0.929 . S
C12 C8 1.377 . S
C12 C11 1.394 . S
H13 C20 0.929 . S
H14 C23 0.930 . S
H15 C25 0.929 . S
H16 C17 0.969 1_455 S
C17 H16 0.969 1_655 S
C17 O18 1.550 . S
C17 H19 0.973 . S
O18 C17 1.550 . S
O18 C24 1.412 . S
H19 C17 0.973 . S
C20 H13 0.929 . S
C20 C21 1.400 . S
C20 C22 1.364 . S
C21 C20 1.400 . S
C21 C25 1.377 . S
C22 C20 1.364 . S
C22 C23 1.374 . S
C23 H14 0.930 . S
C23 C22 1.374 . S
C23 C24 1.383 . S
C24 O18 1.412 . S
C24 C23 1.383 . S
C24 C25 1.394 . S
C25 H15 0.929 . S
C25 C21 1.377 . S
C25 C24 1.394 . S
H26 C33 0.929 . S
H27 C36 0.930 . S
H28 C38 0.929 . S
H29 C30 0.969 1_545 S
C30 H29 0.969 1_565 S
C30 O31 1.550 . S
C30 H32 0.973 . S
O31 C30 1.550 . S
O31 C37 1.412 . S
H32 C30 0.973 . S
C33 H26 0.929 . S
C33 C34 1.400 . S
C33 C35 1.364 . S
C34 C33 1.400 . S
C34 C38 1.377 . S
C35 C33 1.364 . S
C35 C36 1.374 . S
C36 H27 0.930 . S
C36 C35 1.374 . S
C36 C37 1.383 . S
C37 O31 1.412 . S
C37 C36 1.383 . S
C37 C38 1.394 . S
C38 H28 0.929 . S
C38 C34 1.377 . S
C38 C37 1.394 . S
H39 C46 0.929 . S
H40 C49 0.930 . S
H41 C51 0.929 . S
H42 C43 0.969 . S
C43 H42 0.969 . S
C43 O44 1.550 . S
C43 H45 0.973 . S
O44 C43 1.550 . S
O44 C50 1.412 . S
H45 C43 0.973 . S
C46 H39 0.929 . S
C46 C47 1.400 . S
C46 C48 1.364 . S
C47 C46 1.400 . S
C47 C51 1.377 . S
C48 C46 1.364 . S
C48 C49 1.374 . S
C49 H40 0.930 . S
C49 C48 1.374 . S
C49 C50 1.383 . S
C50 O44 1.412 . S
C50 C49 1.383 . S
C50 C51 1.394 . S
C51 H41 0.929 . S
C51 C47 1.377 . S
C51 C50 1.394 . S
H52 C59 0.929 . S
H53 C62 0.930 . S
H54 C64 0.929 . S
H55 C56 0.969 . S
C56 H55 0.969 . S
C56 O57 1.550 . S
C56 H58 0.973 . S
O57 C56 1.550 . S
O57 C63 1.412 . S
H58 C56 0.973 . S
C59 H52 0.929 . S
C59 C60 1.400 1_554 S
C59 C61 1.364 . S
C60 C59 1.400 1_556 S
C60 C64 1.377 . S
C61 C59 1.364 . S
C61 C62 1.374 . S
C62 H53 0.930 . S
C62 C61 1.374 . S
C62 C63 1.383 . S
C63 O57 1.412 . S
C63 C62 1.383 . S
C63 C64 1.394 1_554 S
C64 H54 0.929 . S
C64 C60 1.377 . S
C64 C63 1.394 1_556 S
H65 C72 0.929 . S
H66 C75 0.930 . S
H67 C77 0.929 . S
H68 C69 0.969 . S
C69 H68 0.969 . S
C69 O70 1.550 . S
C69 H71 0.973 . S
O70 C69 1.550 . S
O70 C76 1.412 . S
H71 C69 0.973 . S
C72 H65 0.929 . S
C72 C73 1.400 1_554 S
C72 C74 1.364 . S
C73 C72 1.400 1_556 S
C73 C77 1.377 . S
C74 C72 1.364 . S
C74 C75 1.374 . S
C75 H66 0.930 . S
C75 C74 1.374 . S
C75 C76 1.383 . S
C76 O70 1.412 . S
C76 C75 1.383 . S
C76 C77 1.394 1_554 S
C77 H67 0.929 . S
C77 C73 1.377 . S
C77 C76 1.394 1_556 S
H78 C85 0.927 1_556 S
H79 C88 0.930 . S
H80 C90 0.929 . S
H81 C82 0.969 . S
C82 H81 0.969 . S
C82 O83 1.550 . S
C82 H84 0.973 . S
O83 C82 1.550 . S
O83 C89 1.412 . S
H84 C82 0.973 . S
C85 H78 0.927 1_554 S
C85 C86 1.391 1_554 S
C85 C87 1.374 . S
C86 C85 1.391 1_556 S
C86 C90 1.377 . S
C87 C85 1.374 . S
C87 C88 1.374 . S
C88 H79 0.930 . S
C88 C87 1.374 . S
C88 C89 1.383 . S
C89 O83 1.412 . S
C89 C88 1.383 . S
C89 C90 1.394 1_554 S
C90 H80 0.929 . S
C90 C86 1.377 . S
C90 C89 1.394 1_556 S
H91 C98 0.929 . S
H92 C101 0.930 . S
H93 C103 0.929 . S
H94 C95 0.969 . S
C95 H94 0.969 . S
C95 O96 1.550 . S
C95 H97 0.973 . S
O96 C95 1.550 . S
O96 C102 1.412 . S
H97 C95 0.973 . S
C98 H91 0.929 . S
C98 C99 1.400 1_554 S
C98 C100 1.364 . S
C99 C98 1.400 1_556 S
C99 C103 1.377 . S
C100 C98 1.364 . S
C100 C101 1.374 . S
C101 H92 0.930 . S
C101 C100 1.374 . S
C101 C102 1.383 . S
C102 O96 1.412 . S
C102 C101 1.383 . S
C102 C103 1.394 1_554 S
C103 H93 0.929 . S
C103 C99 1.377 . S
C103 C102 1.394 1_556 S
Eu104 C113 2.828 . S
Eu104 O115 2.392 . S
Eu104 O117 2.418 1_545 S
Eu104 O122 2.373 1_655 S
Eu104 O125 2.488 . S
Eu104 O126 2.471 . S
Eu104 O127 2.349 1_655 S
Eu105 O114 2.373 1_455 S
Eu105 O118 2.488 1_556 S
Eu105 O119 2.471 . S
Eu105 O120 2.349 . S
Eu105 O123 2.392 1_565 S
Eu105 O124 2.418 1_565 S
Eu105 C134 2.828 1_556 S
C106 O124 1.244 . S
C106 O127 1.265 . S
C107 C108 1.379 1_655 S
C107 C111 1.373 . S
C107 C113 1.505 . S
C108 C107 1.379 1_455 S
C108 C110 1.369 . S
C108 H136 0.930 . S
C109 C111 1.383 . S
C109 C112 1.382 . S
C109 H137 0.930 . S
C110 C108 1.369 . S
C110 C112 1.392 1_455 S
C110 H138 0.930 . S
C111 C107 1.373 . S
C111 C109 1.383 . S
C111 H139 0.931 . S
C112 C109 1.382 . S
C112 C110 1.392 1_655 S
C113 Eu104 2.828 . S
C113 C107 1.505 . S
C113 O125 1.249 . S
C113 O126 1.244 . S
O114 Eu105 2.373 1_655 S
O114 C116 1.258 . S
O115 Eu104 2.392 . S
O115 C116 1.241 1_545 S
C116 O114 1.258 . S
C116 O115 1.241 1_565 S
O117 Eu104 2.418 1_565 S
O117 C121 1.244 . S
O118 Eu105 2.488 1_554 S
O118 C134 1.249 . S
O119 Eu105 2.471 . S
O119 C134 1.244 1_556 S
O120 Eu105 2.349 . S
O120 C121 1.265 1_455 S
C121 O117 1.244 . S
C121 O120 1.265 1_655 S
O122 Eu104 2.373 1_455 S
O122 C135 1.258 . S
O123 Eu105 2.392 1_545 S
O123 C135 1.242 . S
O124 Eu105 2.418 1_545 S
O124 C106 1.244 . S
O125 Eu104 2.488 . S
O125 C113 1.249 . S
O126 Eu104 2.471 . S
O126 C113 1.244 . S
O127 Eu104 2.349 1_455 S
O127 C106 1.265 . S
C128 C129 1.379 . S
C128 C132 1.373 . S
C128 C134 1.505 . S
C129 C128 1.379 . S
C129 C131 1.369 . S
C129 H140 0.927 1_455 S
C130 C132 1.383 . S
C130 C133 1.382 . S
C130 H141 0.930 . S
C131 C129 1.369 . S
C131 C133 1.392 . S
C131 H142 0.930 1_455 S
C132 C128 1.373 . S
C132 C130 1.383 . S
C132 H143 0.931 . S
C133 C130 1.382 . S
C133 C131 1.392 . S
C134 Eu105 2.828 1_554 S
C134 O118 1.249 . S
C134 O119 1.244 1_554 S
C134 C128 1.505 . S
C135 O122 1.258 . S
C135 O123 1.242 . S
H136 C108 0.930 . S
H137 C109 0.930 . S
H138 C110 0.930 . S
H139 C111 0.931 . S
H140 C129 0.927 1_655 S
H141 C130 0.930 . S
H142 C131 0.930 1_655 S
H143 C132 0.931 . S
Eu144 C153 2.828 . S
Eu144 O155 2.392 . S
Eu144 O157 2.418 . S
Eu144 O162 2.373 . S
Eu144 O165 2.488 . S
Eu144 O166 2.471 . S
Eu144 O167 2.349 1_545 S
Eu145 O154 2.373 1_565 S
Eu145 O158 2.488 . S
Eu145 O159 2.471 1_565 S
Eu145 O160 2.349 1_565 S
Eu145 O163 2.392 . S
Eu145 O164 2.418 . S
Eu145 C174 2.828 . S
C146 O164 1.244 . S
C146 O167 1.265 . S
C147 C148 1.379 . S
C147 C151 1.373 . S
C147 C153 1.505 1_554 S
C148 C147 1.379 . S
C148 C150 1.369 . S
C148 H176 0.930 1_545 S
C149 C151 1.383 . S
C149 C152 1.382 . S
C149 H177 0.930 . S
C150 C148 1.369 . S
C150 C152 1.392 . S
C150 H178 0.930 1_545 S
C151 C147 1.373 . S
C151 C149 1.383 . S
C151 H179 0.931 . S
C152 C149 1.382 . S
C152 C150 1.392 . S
C153 Eu144 2.828 . S
C153 C147 1.505 1_556 S
C153 O165 1.249 . S
C153 O166 1.244 . S
O154 Eu145 2.373 1_545 S
O154 C156 1.258 . S
O155 Eu144 2.392 . S
O155 C156 1.242 . S
C156 O154 1.258 . S
C156 O155 1.242 . S
O157 Eu144 2.418 . S
O157 C161 1.244 . S
O158 Eu145 2.488 . S
O158 C174 1.249 . S
O159 Eu145 2.471 1_545 S
O159 C174 1.244 1_545 S
O160 Eu145 2.349 1_545 S
O160 C161 1.265 . S
C161 O157 1.244 . S
C161 O160 1.265 . S
O162 Eu144 2.373 . S
O162 C175 1.258 1_545 S
O163 Eu145 2.392 . S
O163 C175 1.242 . S
O164 Eu145 2.418 . S
O164 C146 1.244 . S
O165 Eu144 2.488 . S
O165 C153 1.249 . S
O166 Eu144 2.471 . S
O166 C153 1.244 . S
O167 Eu144 2.349 1_565 S
O167 C146 1.265 . S
C168 C169 1.379 1_565 S
C168 C172 1.373 . S
C168 C174 1.505 . S
C169 C168 1.379 1_545 S
C169 C171 1.369 . S
C169 H180 0.930 . S
C170 C172 1.383 . S
C170 C173 1.382 . S
C170 H181 0.930 . S
C171 C169 1.369 . S
C171 C173 1.392 1_545 S
C171 H182 0.930 . S
C172 C168 1.373 . S
C172 C170 1.383 . S
C172 H183 0.931 . S
C173 C170 1.382 . S
C173 C171 1.392 1_565 S
C174 Eu145 2.828 . S
C174 O158 1.249 . S
C174 O159 1.244 1_565 S
C174 C168 1.505 . S
C175 O162 1.258 1_565 S
C175 O163 1.242 . S
H176 C148 0.930 1_565 S
H177 C149 0.930 . S
H178 C150 0.930 1_565 S
H179 C151 0.931 . S
H180 C169 0.930 . S
H181 C170 0.930 . S
H182 C171 0.930 . S
H183 C172 0.931 . S
Eu184 C193 2.828 . S
Eu184 O195 2.392 . S
Eu184 O197 2.418 . S
Eu184 O202 2.373 . S
Eu184 O205 2.488 . S
Eu184 O206 2.471 . S
Eu184 O207 2.349 . S
Eu185 O194 2.373 . S
Eu185 O198 2.488 . S
Eu185 O199 2.471 . S
Eu185 O200 2.349 . S
Eu185 O203 2.392 . S
Eu185 O204 2.418 . S
Eu185 C214 2.828 . S
C186 O204 1.244 . S
C186 O207 1.265 . S
C187 C188 1.379 . S
C187 C191 1.373 . S
C187 C193 1.505 1_554 S
C188 C187 1.379 . S
C188 C190 1.369 . S
C188 H216 0.930 . S
C189 C191 1.383 . S
C189 C192 1.382 . S
C189 H217 0.930 . S
C190 C188 1.369 . S
C190 C192 1.392 . S
C190 H218 0.930 . S
C191 C187 1.373 . S
C191 C189 1.383 . S
C191 H219 0.931 . S
C192 C189 1.382 . S
C192 C190 1.392 . S
C193 Eu184 2.828 . S
C193 C187 1.505 1_556 S
C193 O205 1.249 . S
C193 O206 1.244 . S
O194 Eu185 2.373 . S
O194 C196 1.258 . S
O195 Eu184 2.392 . S
O195 C196 1.242 . S
C196 O194 1.258 . S
C196 O195 1.242 . S
O197 Eu184 2.418 . S
O197 C201 1.244 . S
O198 Eu185 2.488 . S
O198 C214 1.249 . S
O199 Eu185 2.471 . S
O199 C214 1.244 . S
O200 Eu185 2.349 . S
O200 C201 1.265 . S
C201 O197 1.244 . S
C201 O200 1.265 . S
O202 Eu184 2.373 . S
O202 C215 1.258 . S
O203 Eu185 2.392 . S
O203 C215 1.242 . S
O204 Eu185 2.418 . S
O204 C186 1.244 . S
O205 Eu184 2.488 . S
O205 C193 1.249 . S
O206 Eu184 2.471 . S
O206 C193 1.244 . S
O207 Eu184 2.349 . S
O207 C186 1.265 . S
C208 C209 1.379 . S
C208 C212 1.373 . S
C208 C214 1.505 . S
C209 C208 1.379 . S
C209 C211 1.369 . S
C209 H220 0.930 . S
C210 C212 1.383 . S
C210 C213 1.382 . S
C210 H221 0.930 . S
C211 C209 1.369 . S
C211 C213 1.392 . S
C211 H222 0.930 . S
C212 C208 1.373 . S
C212 C210 1.383 . S
C212 H223 0.931 . S
C213 C210 1.382 . S
C213 C211 1.392 . S
C214 Eu185 2.828 . S
C214 O198 1.249 . S
C214 O199 1.244 . S
C214 C208 1.505 . S
C215 O202 1.258 . S
C215 O203 1.242 . S
H216 C188 0.930 . S
H217 C189 0.930 . S
H218 C190 0.930 . S
H219 C191 0.931 . S
H220 C209 0.930 . S
H221 C210 0.930 . S
H222 C211 0.930 . S
H223 C212 0.931 . S
Eu224 C233 2.828 . S
Eu224 O235 2.392 . S
Eu224 O237 2.418 1_455 S
Eu224 O242 2.373 . S
Eu224 O245 2.488 . S
Eu224 O246 2.471 . S
Eu224 O247 2.349 . S
Eu225 O234 2.373 . S
Eu225 O238 2.488 1_556 S
Eu225 O239 2.471 . S
Eu225 O240 2.349 . S
Eu225 O243 2.392 1_655 S
Eu225 O244 2.418 1_655 S
Eu225 C254 2.828 1_556 S
C226 O244 1.244 . S
C226 O247 1.265 . S
C227 C228 1.379 . S
C227 C231 1.373 . S
C227 C233 1.505 . S
C228 C227 1.379 . S
C228 C230 1.369 . S
C228 H256 0.930 . S
C229 C231 1.383 . S
C229 C232 1.382 . S
C229 H257 0.930 . S
C230 C228 1.369 . S
C230 C232 1.392 . S
C230 H258 0.930 . S
C231 C227 1.373 . S
C231 C229 1.383 . S
C231 H259 0.931 . S
C232 C229 1.382 . S
C232 C230 1.392 . S
C233 Eu224 2.828 . S
C233 C227 1.505 . S
C233 O245 1.249 . S
C233 O246 1.244 . S
O234 Eu225 2.373 . S
O234 C236 1.262 . S
O235 Eu224 2.392 . S
O235 C236 1.231 1_455 S
C236 O234 1.262 . S
C236 O235 1.231 1_655 S
O237 Eu224 2.418 1_655 S
O237 C241 1.244 . S
O238 Eu225 2.488 1_554 S
O238 C254 1.249 . S
O239 Eu225 2.471 . S
O239 C254 1.244 1_556 S
O240 Eu225 2.349 . S
O240 C241 1.265 . S
C241 O237 1.244 . S
C241 O240 1.265 . S
O242 Eu224 2.373 . S
O242 C255 1.258 . S
O243 Eu225 2.392 1_455 S
O243 C255 1.242 . S
O244 Eu225 2.418 1_455 S
O244 C226 1.244 . S
O245 Eu224 2.488 . S
O245 C233 1.249 . S
O246 Eu224 2.471 . S
O246 C233 1.244 . S
O247 Eu224 2.349 . S
O247 C226 1.265 . S
C248 C249 1.379 . S
C248 C252 1.373 . S
C248 C254 1.505 . S
C249 C248 1.379 . S
C249 C251 1.369 . S
C249 H260 0.930 . S
C250 C252 1.383 . S
C250 C253 1.382 . S
C250 H261 0.930 . S
C251 C249 1.369 . S
C251 C253 1.392 . S
C251 H262 0.930 . S
C252 C248 1.373 . S
C252 C250 1.383 . S
C252 H263 0.931 . S
C253 C250 1.382 . S
C253 C251 1.392 . S
C254 Eu225 2.828 1_554 S
C254 O238 1.249 . S
C254 O239 1.244 1_554 S
C254 C248 1.505 . S
C255 O242 1.258 . S
C255 O243 1.242 . S
H256 C228 0.930 . S
H257 C229 0.930 . S
H258 C230 0.930 . S
H259 C231 0.931 . S
H260 C249 0.930 . S
H261 C250 0.930 . S
H262 C251 0.930 . S
H263 C252 0.931 . S
C264 C265 1.369 . S
C264 C266 1.421 . S
C264 H268 0.930 1_545 S
C265 C264 1.369 . S
C265 C274 1.429 . S
C266 C264 1.421 . S
C266 C267 1.387 . S
C266 H269 0.902 1_545 S
C267 C266 1.387 . S
C267 C273 1.428 . S
H268 C264 0.930 1_565 S
H269 C266 0.902 1_565 S
S270 N271 1.613 . S
S270 N272 1.610 . S
N271 S270 1.613 . S
N271 C274 1.350 . S
N272 S270 1.610 . S
N272 C273 1.351 . S
C273 C267 1.428 . S
C273 N272 1.351 . S
C273 C274 1.434 . S
C274 C265 1.429 . S
C274 N271 1.350 . S
C274 C273 1.434 . S
C275 C276 1.369 . S
C275 C277 1.419 . S
C275 H279 0.930 . S
C276 C275 1.369 . S
C276 C285 1.429 . S
C277 C275 1.419 . S
C277 C278 1.363 . S
C277 H280 0.929 . S
C278 C277 1.363 . S
C278 C284 1.428 . S
H279 C275 0.930 . S
H280 C277 0.929 . S
S281 N282 1.613 . S
S281 N283 1.610 . S
N282 S281 1.613 . S
N282 C285 1.350 . S
N283 S281 1.610 . S
N283 C284 1.351 . S
C284 C278 1.428 . S
C284 N283 1.351 . S
C284 C285 1.434 . S
C285 C276 1.429 . S
C285 N282 1.350 . S
C285 C284 1.434 . S
C286 C287 1.369 . S
C286 C288 1.419 . S
C286 H290 0.930 . S
C287 C286 1.369 . S
C287 C296 1.429 . S
C288 C286 1.419 . S
C288 C289 1.363 . S
C288 H291 0.929 . S
C289 C288 1.363 . S
C289 C295 1.428 . S
H290 C286 0.930 . S
H291 C288 0.929 . S
S292 N293 1.613 . S
S292 N294 1.610 . S
N293 S292 1.613 . S
N293 C296 1.350 . S
N294 S292 1.610 . S
N294 C295 1.351 . S
C295 C289 1.428 . S
C295 N294 1.351 . S
C295 C296 1.434 . S
C296 C287 1.429 . S
C296 N293 1.350 . S
C296 C295 1.434 . S
C297 C298 1.369 . S
C297 C299 1.419 . S
C297 H301 0.930 . S
C298 C297 1.369 . S
C298 C307 1.429 . S
C299 C297 1.419 . S
C299 C300 1.363 . S
C299 H302 0.929 . S
C300 C299 1.363 . S
C300 C306 1.428 . S
H301 C297 0.930 . S
H302 C299 0.929 . S
S303 N304 1.613 . S
S303 N305 1.610 . S
N304 S303 1.613 . S
N304 C307 1.350 . S
N305 S303 1.610 . S
N305 C306 1.351 . S
C306 C300 1.428 . S
C306 N305 1.351 . S
C306 C307 1.434 . S
C307 C298 1.429 . S
C307 N304 1.350 . S
C307 C306 1.434 . S
C308 C309 1.369 . S
C308 C310 1.419 . S
C308 H312 0.930 . S
C309 C308 1.369 . S
C309 C318 1.429 1_565 S
C310 C308 1.419 . S
C310 C311 1.363 . S
C310 H313 0.929 . S
C311 C310 1.363 . S
C311 C317 1.428 1_565 S
H312 C308 0.930 . S
H313 C310 0.929 . S
S314 N315 1.613 . S
S314 N316 1.610 . S
N315 S314 1.613 . S
N315 C318 1.350 . S
N316 S314 1.610 . S
N316 C317 1.351 . S
C317 C311 1.428 1_545 S
C317 N316 1.351 . S
C317 C318 1.434 . S
C318 C309 1.429 1_545 S
C318 N315 1.350 . S
C318 C317 1.434 . S
C319 C320 1.369 . S
C319 C321 1.419 . S
C319 H323 0.930 . S
C320 C319 1.369 . S
C320 C329 1.429 . S
C321 C319 1.419 . S
C321 C322 1.363 . S
C321 H324 0.929 . S
C322 C321 1.363 . S
C322 C328 1.428 . S
H323 C319 0.930 . S
H324 C321 0.929 . S
S325 N326 1.613 . S
S325 N327 1.610 1_554 S
N326 S325 1.613 . S
N326 C329 1.350 . S
N327 S325 1.610 1_556 S
N327 C328 1.351 1_556 S
C328 C322 1.428 . S
C328 N327 1.351 1_554 S
C328 C329 1.434 . S
C329 C320 1.429 . S
C329 N326 1.350 . S
C329 C328 1.434 . S
C330 C331 1.369 . S
C330 C332 1.419 . S
C330 H334 0.930 . S
C331 C330 1.369 . S
C331 C340 1.429 . S
C332 C330 1.419 . S
C332 C333 1.363 . S
C332 H335 0.929 1_554 S
C333 C332 1.363 . S
C333 C339 1.428 . S
H334 C330 0.930 . S
H335 C332 0.929 1_556 S
S336 N337 1.613 . S
S336 N338 1.610 . S
N337 S336 1.613 . S
N337 C340 1.350 . S
N338 S336 1.610 . S
N338 C339 1.351 . S
C339 C333 1.428 . S
C339 N338 1.351 . S
C339 C340 1.434 . S
C340 C331 1.429 . S
C340 N337 1.350 . S
C340 C339 1.434 . S
C341 C342 1.369 . S
C341 C343 1.419 . S
C341 H345 0.930 . S
C342 C341 1.369 . S
C342 C351 1.429 . S
C343 C341 1.419 . S
C343 C344 1.363 . S
C343 H346 0.925 1_655 S
C344 C343 1.363 . S
C344 C350 1.428 . S
H345 C341 0.930 . S
H346 C343 0.925 1_455 S
S347 N348 1.613 . S
S347 N349 1.610 1_554 S
N348 S347 1.613 . S
N348 C351 1.350 . S
N349 S347 1.610 1_556 S
N349 C350 1.351 1_556 S
C350 C344 1.428 . S
C350 N349 1.351 1_554 S
C350 C351 1.434 . S
C351 C342 1.429 . S
C351 N348 1.350 . S
C351 C350 1.434 . S
C352 C353 1.369 . S
C352 C354 1.419 1_455 S
C352 H356 0.930 . S
C353 C352 1.369 . S
C353 C362 1.429 . S
C354 C352 1.419 1_655 S
C354 C355 1.363 1_655 S
C354 H357 0.929 . S
C355 C354 1.363 1_455 S
C355 C361 1.428 . S
H356 C352 0.930 . S
H357 C354 0.929 . S
S358 N359 1.613 1_556 S
S358 N360 1.610 1_556 S
N359 S358 1.613 1_554 S
N359 C362 1.350 . S
N360 S358 1.610 1_554 S
N360 C361 1.351 . S
C361 C355 1.428 . S
C361 N360 1.351 . S
C361 C362 1.434 . S
C362 C353 1.429 . S
C362 N359 1.350 . S
C362 C361 1.434 . S
C363 C364 1.369 . S
C363 C365 1.419 . S
C363 H367 0.930 . S
C364 C363 1.369 . S
C364 C373 1.429 . S
C365 C363 1.419 . S
C365 C366 1.363 1_545 S
C365 H368 0.929 . S
C366 C365 1.363 1_565 S
C366 C372 1.428 . S
H367 C363 0.930 . S
H368 C365 0.929 . S
S369 N370 1.613 1_565 S
S369 N371 1.610 . S
N370 S369 1.613 1_545 S
N370 C373 1.350 . S
N371 S369 1.610 . S
N371 C372 1.351 . S
C372 C366 1.428 . S
C372 N371 1.351 . S
C372 C373 1.434 1_565 S
C373 C364 1.429 . S
C373 N370 1.350 . S
C373 C372 1.434 1_545 S
C374 C375 1.369 . S
C374 C376 1.419 . S
C374 H378 0.930 . S
C375 C374 1.369 . S
C375 C384 1.429 . S
C376 C374 1.419 . S
C376 C377 1.363 . S
C376 H379 0.929 . S
C377 C376 1.363 . S
C377 C383 1.428 . S
H378 C374 0.930 . S
H379 C376 0.929 . S
S380 N381 1.613 . S
S380 N382 1.610 . S
N381 S380 1.613 . S
N381 C384 1.350 . S
N382 S380 1.610 . S
N382 C383 1.351 . S
C383 C377 1.428 . S
C383 N382 1.351 . S
C383 C384 1.434 . S
C384 C375 1.429 . S
C384 N381 1.350 . S
C384 C383 1.434 . S
C385 C386 1.369 . S
C385 C387 1.419 . S
C385 H389 0.930 . S
C386 C385 1.369 . S
C386 C395 1.429 . S
C387 C385 1.419 . S
C387 C388 1.363 . S
C387 H390 0.929 . S
C388 C387 1.363 . S
C388 C394 1.428 . S
H389 C385 0.930 . S
H390 C387 0.929 . S
S391 N392 1.613 . S
S391 N393 1.610 . S
N392 S391 1.613 . S
N392 C395 1.350 . S
N393 S391 1.610 . S
N393 C394 1.351 . S
C394 C388 1.428 . S
C394 N393 1.351 . S
C394 C395 1.434 . S
C395 C386 1.429 . S
C395 N392 1.350 . S
C395 C394 1.434 . S
C396 C397 1.369 . S
C396 C398 1.419 1_655 S
C396 H400 0.930 . S
C397 C396 1.369 . S
C397 C406 1.429 . S
C398 C396 1.419 1_455 S
C398 C399 1.363 . S
C398 H401 0.929 . S
C399 C398 1.363 . S
C399 C405 1.428 . S
H400 C396 0.930 . S
H401 C398 0.929 . S
S402 N403 1.613 1_455 S
S402 N404 1.610 . S
N403 S402 1.613 1_655 S
N403 C406 1.350 . S
N404 S402 1.610 . S
N404 C405 1.351 . S
C405 C399 1.428 . S
C405 N404 1.351 . S
C405 C406 1.434 1_455 S
C406 C397 1.429 . S
C406 N403 1.350 . S
C406 C405 1.434 1_655 S
C407 C408 1.369 . S
C407 C409 1.419 1_565 S
C407 H411 0.930 . S
C408 C407 1.369 . S
C408 C417 1.429 1_565 S
C409 C407 1.419 1_545 S
C409 C410 1.363 . S
C409 H412 0.929 . S
C410 C409 1.363 . S
C410 C416 1.428 . S
H411 C407 0.930 . S
H412 C409 0.929 . S
S413 N414 1.613 . S
S413 N415 1.610 . S
N414 S413 1.613 . S
N414 C417 1.350 . S
N415 S413 1.610 . S
N415 C416 1.351 . S
C416 C410 1.428 . S
C416 N415 1.351 . S
C416 C417 1.434 . S
C417 C408 1.429 1_545 S
C417 N414 1.350 . S
C417 C416 1.434 . S
C418 C419 1.369 . S
C418 C420 1.419 . S
C418 H422 0.930 . S
C419 C418 1.369 . S
C419 C428 1.429 . S
C420 C418 1.419 . S
C420 C421 1.363 . S
C420 H423 0.929 . S
C421 C420 1.363 . S
C421 C427 1.428 . S
H422 C418 0.930 . S
H423 C420 0.929 . S
S424 N425 1.613 . S
S424 N426 1.610 . S
N425 S424 1.613 . S
N425 C428 1.350 . S
N426 S424 1.610 . S
N426 C427 1.351 . S
C427 C421 1.428 . S
C427 N426 1.351 . S
C427 C428 1.434 . S
C428 C419 1.429 . S
C428 N425 1.350 . S
C428 C427 1.434 . S
C429 C430 1.369 . S
C429 C431 1.419 . S
C429 H433 0.930 . S
C430 C429 1.369 . S
C430 C439 1.429 . S
C431 C429 1.419 . S
C431 C432 1.363 . S
C431 H434 0.929 . S
C432 C431 1.363 . S
C432 C438 1.428 . S
H433 C429 0.930 . S
H434 C431 0.929 . S
S435 N436 1.613 . S
S435 N437 1.610 . S
N436 S435 1.613 . S
N436 C439 1.350 . S
N437 S435 1.610 . S
N437 C438 1.351 . S
C438 C432 1.428 . S
C438 N437 1.351 . S
C438 C439 1.434 . S
C439 C430 1.429 . S
C439 N436 1.350 . S
C439 C438 1.434 . S
C440 C441 1.369 . S
C440 C442 1.419 . S
C440 H444 0.930 1_455 S
C441 C440 1.369 . S
C441 C450 1.429 . S
C442 C440 1.419 . S
C442 C443 1.363 . S
C442 H445 0.929 1_455 S
C443 C442 1.363 . S
C443 C449 1.428 . S
H444 C440 0.930 1_655 S
H445 C442 0.929 1_655 S
S446 N447 1.613 . S
S446 N448 1.610 . S
N447 S446 1.613 . S
N447 C450 1.350 . S
N448 S446 1.610 . S
N448 C449 1.351 . S
C449 C443 1.428 . S
C449 N448 1.351 . S
C449 C450 1.434 . S
C450 C441 1.429 . S
C450 N447 1.350 . S
C450 C449 1.434 . S
C451 C452 1.369 . S
C451 C453 1.419 . S
C451 H455 0.930 . S
C452 C451 1.369 . S
C452 C461 1.429 . S
C453 C451 1.419 . S
C453 C454 1.363 . S
C453 H456 0.929 . S
C454 C453 1.363 . S
C454 C460 1.428 . S
H455 C451 0.930 . S
H456 C453 0.929 . S
S457 N458 1.613 . S
S457 N459 1.610 . S
N458 S457 1.613 . S
N458 C461 1.350 . S
N459 S457 1.610 . S
N459 C460 1.351 . S
C460 C454 1.428 . S
C460 N459 1.351 . S
C460 C461 1.434 . S
C461 C452 1.429 . S
C461 N458 1.350 . S
C461 C460 1.434 . S
C462 C463 1.369 . S
C462 C464 1.419 . S
C462 H466 0.930 . S
C463 C462 1.369 . S
C463 C472 1.429 . S
C464 C462 1.419 . S
C464 C465 1.363 . S
C464 H467 0.929 . S
C465 C464 1.363 . S
C465 C471 1.428 . S
H466 C462 0.930 . S
H467 C464 0.929 . S
S468 N469 1.613 . S
S468 N470 1.610 . S
N469 S468 1.613 . S
N469 C472 1.350 1_554 S
N470 S468 1.610 . S
N470 C471 1.351 1_554 S
C471 C465 1.428 . S
C471 N470 1.351 1_556 S
C471 C472 1.434 . S
C472 C463 1.429 . S
C472 N469 1.350 1_556 S
C472 C471 1.434 . S
C473 C474 1.369 . S
C473 C475 1.419 . S
C473 H477 0.930 1_556 S
C474 C473 1.369 . S
C474 C483 1.429 . S
C475 C473 1.419 . S
C475 C476 1.363 . S
C475 H478 0.929 1_556 S
C476 C475 1.363 . S
C476 C482 1.428 . S
H477 C473 0.930 1_554 S
H478 C475 0.929 1_554 S
S479 N480 1.613 . S
S479 N481 1.610 . S
N480 S479 1.613 . S
N480 C483 1.350 . S
N481 S479 1.610 . S
N481 C482 1.351 . S
C482 C476 1.428 . S
C482 N481 1.351 . S
C482 C483 1.434 . S
C483 C474 1.429 . S
C483 N480 1.350 . S
C483 C482 1.434 . S
C484 C485 1.369 . S
C484 C486 1.419 . S
C484 H488 0.930 . S
C485 C484 1.369 . S
C485 C494 1.429 1_655 S
C486 C484 1.419 . S
C486 C487 1.363 . S
C486 H489 0.929 . S
C487 C486 1.363 . S
C487 C493 1.428 1_655 S
H488 C484 0.930 . S
H489 C486 0.929 . S
S490 N491 1.613 . S
S490 N492 1.610 . S
N491 S490 1.613 . S
N491 C494 1.350 . S
N492 S490 1.610 . S
N492 C493 1.351 . S
C493 C487 1.428 1_455 S
C493 N492 1.351 . S
C493 C494 1.434 . S
C494 C485 1.429 1_455 S
C494 N491 1.350 . S
C494 C493 1.434 . S
C495 C496 1.369 1_545 S
C495 C497 1.419 . S
C495 H499 0.930 . S
C496 C495 1.369 1_565 S
C496 C505 1.429 . S
C497 C495 1.419 . S
C497 C498 1.363 1_545 S
C497 H500 0.929 . S
C498 C497 1.363 1_565 S
C498 C504 1.428 . S
H499 C495 0.930 . S
H500 C497 0.929 . S
S501 N502 1.613 . S
S501 N503 1.610 . S
N502 S501 1.613 . S
N502 C505 1.350 . S
N503 S501 1.610 . S
N503 C504 1.351 . S
C504 C498 1.428 . S
C504 N503 1.351 . S
C504 C505 1.434 . S
C505 C496 1.429 . S
C505 N502 1.350 . S
C505 C504 1.434 . S
C506 C507 1.369 . S
C506 C508 1.419 . S
C506 H510 0.930 . S
C507 C506 1.369 . S
C507 C516 1.429 . S
C508 C506 1.419 . S
C508 C509 1.363 . S
C508 H511 0.929 . S
C509 C508 1.363 . S
C509 C515 1.428 . S
H510 C506 0.930 . S
H511 C508 0.929 . S
S512 N513 1.613 . S
S512 N514 1.610 . S
N513 S512 1.613 . S
N513 C516 1.350 . S
N514 S512 1.610 . S
N514 C515 1.351 . S
C515 C509 1.428 . S
C515 N514 1.351 . S
C515 C516 1.434 . S
C516 C507 1.429 . S
C516 N513 1.350 . S
C516 C515 1.434 . S
C517 C518 1.369 . S
C517 C519 1.419 . S
C517 H521 0.930 . S
C518 C517 1.369 . S
C518 C527 1.429 . S
C519 C517 1.419 . S
C519 C520 1.363 . S
C519 H522 0.929 . S
C520 C519 1.363 . S
C520 C526 1.428 . S
H521 C517 0.930 . S
H522 C519 0.929 . S
S523 N524 1.613 . S
S523 N525 1.610 . S
N524 S523 1.613 . S
N524 C527 1.350 . S
N525 S523 1.610 . S
N525 C526 1.351 . S
C526 C520 1.428 . S
C526 N525 1.351 . S
C526 C527 1.434 . S
C527 C518 1.429 . S
C527 N524 1.350 . S
C527 C526 1.434 . S
C265 C82 2.025 . S
C267 C135 2.458 . S
C278 C161 2.185 . S
C276 C95 1.686 . S
C289 C201 2.179 . S
C287 C56 1.765 . S
C300 C255 2.451 . S
C298 C69 2.058 . S
C311 C116 2.459 1_554 S
C309 C30 1.995 . S
C320 C43 1.728 . S
C322 C146 2.184 1_554 S
C331 C4 1.753 . S
C333 C186 2.177 1_554 S
C342 C17 2.015 . S
C344 C236 2.458 1_554 S
C355 C112 0.884 1_455 S
C353 C74 0.857 . S
C366 C173 0.924 . S
C364 C87 0.931 . S
C377 C213 0.763 . S
C375 C100 0.779 . S
C386 C61 0.788 . S
C388 C232 0.782 . S
C397 C22 0.853 . S
C399 C133 0.886 . S
C410 C152 0.914 . S
C408 C35 0.927 . S
C421 C192 0.769 . S
C419 C48 0.768 . S
C430 C9 0.777 . S
C432 C253 0.787 . S
C441 C73 2.065 . S
C443 C106 2.391 . S
C452 C86 2.432 . S
C454 C156 2.703 . S
C465 C196 2.533 . S
C463 C99 2.267 . S
C476 C226 2.196 . S
C474 C60 1.899 . S
C485 C21 2.062 . S
C487 C121 2.392 . S
C498 C175 2.705 . S
C496 C34 2.424 . S
C509 C215 2.533 . S
C507 C47 2.280 . S
C518 C8 1.888 . S
C520 C241 2.197 . S
