# Generated by pormake.
# Topology nom, (4,4)-cn, num edge types: 1
# Building blocks:
#     Node 0, Type 0, BuildingBlock: MIFKUJ_clean_linker_1, # of connection points: 4
#     Node 1, Type 0, BuildingBlock: MIFKUJ_clean_linker_1, # of connection points: 4
#     Node 2, Type 0, BuildingBlock: MIFKUJ_clean_linker_1, # of connection points: 4
#     Node 3, Type 0, BuildingBlock: MIFKUJ_clean_linker_1, # of connection points: 4
#     Node 4, Type 0, BuildingBlock: MIFKUJ_clean_linker_1, # of connection points: 4
#     Node 5, Type 0, BuildingBlock: MIFKUJ_clean_linker_1, # of connection points: 4
#     Node 6, Type 1, BuildingBlock: TATPOV_clean_sbu_0, # of connection points: 4
#     Node 7, Type 1, BuildingBlock: TATPOV_clean_sbu_0, # of connection points: 4
#     Node 8, Type 1, BuildingBlock: TATPOV_clean_sbu_0, # of connection points: 4
#     Node 9, Type 1, BuildingBlock: TATPOV_clean_sbu_0, # of connection points: 4
#     Node 10, Type 1, BuildingBlock: TATPOV_clean_sbu_0, # of connection points: 4
#     Node 11, Type 1, BuildingBlock: TATPOV_clean_sbu_0, # of connection points: 4
#     Edge 12, Type (0, 1), BuildingBlock: XIVTED_clean_linker_0, # of connection points: 2
#     Edge 13, Type (0, 1), BuildingBlock: XIVTED_clean_linker_0, # of connection points: 2
#     Edge 14, Type (0, 1), BuildingBlock: XIVTED_clean_linker_0, # of connection points: 2
#     Edge 15, Type (0, 1), BuildingBlock: XIVTED_clean_linker_0, # of connection points: 2
#     Edge 16, Type (0, 1), BuildingBlock: XIVTED_clean_linker_0, # of connection points: 2
#     Edge 17, Type (0, 1), BuildingBlock: XIVTED_clean_linker_0, # of connection points: 2
#     Edge 18, Type (0, 1), BuildingBlock: XIVTED_clean_linker_0, # of connection points: 2
#     Edge 19, Type (0, 1), BuildingBlock: XIVTED_clean_linker_0, # of connection points: 2
#     Edge 20, Type (0, 1), BuildingBlock: XIVTED_clean_linker_0, # of connection points: 2
#     Edge 21, Type (0, 1), BuildingBlock: XIVTED_clean_linker_0, # of connection points: 2
#     Edge 22, Type (0, 1), BuildingBlock: XIVTED_clean_linker_0, # of connection points: 2
#     Edge 23, Type (0, 1), BuildingBlock: XIVTED_clean_linker_0, # of connection points: 2
#     Edge 24, Type (0, 1), BuildingBlock: XIVTED_clean_linker_0, # of connection points: 2
#     Edge 25, Type (0, 1), BuildingBlock: XIVTED_clean_linker_0, # of connection points: 2
#     Edge 26, Type (0, 1), BuildingBlock: XIVTED_clean_linker_0, # of connection points: 2
#     Edge 27, Type (0, 1), BuildingBlock: XIVTED_clean_linker_0, # of connection points: 2
#     Edge 28, Type (0, 1), BuildingBlock: XIVTED_clean_linker_0, # of connection points: 2
#     Edge 29, Type (0, 1), BuildingBlock: XIVTED_clean_linker_0, # of connection points: 2
#     Edge 30, Type (0, 1), BuildingBlock: XIVTED_clean_linker_0, # of connection points: 2
#     Edge 31, Type (0, 1), BuildingBlock: XIVTED_clean_linker_0, # of connection points: 2
#     Edge 32, Type (0, 1), BuildingBlock: XIVTED_clean_linker_0, # of connection points: 2
#     Edge 33, Type (0, 1), BuildingBlock: XIVTED_clean_linker_0, # of connection points: 2
#     Edge 34, Type (0, 1), BuildingBlock: XIVTED_clean_linker_0, # of connection points: 2
#     Edge 35, Type (0, 1), BuildingBlock: XIVTED_clean_linker_0, # of connection points: 2
# Relax obj value: 0.019
# Max RMSD: 0.115
# Mean RMSD: 0.104
data_MOF--net-nom--node1-TATPOV_clean_sbu_0--node2-MIFKUJ_clean_linker_1--edge1-XIVTED_clean_linker_0
_symmetry_space_group_name_H-M    P1
_symmetry_Int_Tables_number       1
_symmetry_cell_setting            triclinic
loop_
_symmetry_equiv_pos_as_xyz
'x, y, z'
_cell_length_a     53.01838
_cell_length_b     53.654992
_cell_length_c     56.120019
_cell_angle_alpha  90.685001
_cell_angle_beta   90.544158
_cell_angle_gamma 120.06056
loop_
_atom_site_label
_atom_site_type_symbol
_atom_site_fract_x
_atom_site_fract_y
_atom_site_fract_z
_atom_type_partial_charge
H0 H 0.97059 0.41097 0.26423 0.0
H1 H 0.93673 0.40371 0.23122 0.0
H2 H 0.91932 0.46703 0.26338 0.0
H3 H 0.95356 0.4746 0.29585 0.0
H4 H 0.02126 0.46962 0.27646 0.0
H5 H 0.92644 0.39644 0.31376 0.0
H6 H 0.87765 0.38771 0.32413 0.0
H7 H 0.91732 0.46576 0.36724 0.0
H8 H 0.96535 0.47479 0.35649 0.0
H9 H 0.02732 0.50315 0.37311 0.0
H10 H 0.06389 0.53148 0.40356 0.0
H11 H 0.12145 0.50418 0.3744 0.0
H12 H 0.08422 0.47513 0.34384 0.0
H13 H 0.99623 0.45049 0.36168 0.0
H14 H 0.06153 0.53342 0.32583 0.0
H15 H 0.10638 0.57458 0.31232 0.0
H16 H 0.12252 0.51806 0.26763 0.0
H17 H 0.0776 0.47648 0.2819 0.0
C18 C 0.96428 0.44305 0.28257 0.0
C19 C 0.9592 0.42302 0.26421 0.0
C20 C 0.93976 0.4188 0.24547 0.0
C21 C 0.92542 0.43485 0.24468 0.0
C22 C 0.93026 0.45456 0.26335 0.0
C23 C 0.94961 0.45872 0.28203 0.0
C24 C 0.98646 0.44925 0.30144 0.0
C25 C 0.01589 0.46453 0.29504 0.0
C26 C 0.97927 0.44482 0.32584 0.0
C27 C 0.9496 0.43636 0.33422 0.0
C28 C 0.92452 0.41145 0.32563 0.0
C29 C 0.89674 0.40643 0.33162 0.0
C30 C 0.89381 0.42632 0.34618 0.0
C31 C 0.91893 0.45034 0.35564 0.0
C32 C 0.94644 0.45532 0.34971 0.0
C33 C 0.05294 0.48691 0.35619 0.0
C34 C 0.04757 0.50279 0.37342 0.0
C35 C 0.06864 0.51927 0.39066 0.0
C36 C 0.09562 0.52028 0.39116 0.0
C37 C 0.10079 0.50372 0.37441 0.0
C38 C 0.07963 0.48725 0.35694 0.0
C39 C 0.03103 0.47158 0.33681 0.0
C40 C 0.00176 0.45419 0.34299 0.0
C41 C 0.03809 0.47749 0.3125 0.0
C42 C 0.06655 0.5018 0.30526 0.0
C43 C 0.075 0.52974 0.31351 0.0
C44 C 0.10044 0.55334 0.30549 0.0
C45 C 0.11788 0.54961 0.28876 0.0
C46 C 0.10962 0.52156 0.28066 0.0
C47 C 0.08399 0.49784 0.28873 0.0
H48 H 0.48157 0.98079 0.52564 0.0
H49 H 0.44335 0.93321 0.5367 0.0
H50 H 0.49114 0.89567 0.5054 0.0
H51 H 0.53042 0.94404 0.49521 0.0
H52 H 0.53632 0.01295 0.53718 0.0
H53 H 0.48145 0.97718 0.46125 0.0
H54 H 0.45714 0.93901 0.43118 0.0
H55 H 0.53679 0.93642 0.42222 0.0
H56 H 0.56125 0.97573 0.4518 0.0
H57 H 0.60822 0.08923 0.46172 0.0
H58 H 0.62155 0.13707 0.4469 0.0
H59 H 0.54292 0.12895 0.47668 0.0
H60 H 0.53005 0.08161 0.49151 0.0
H61 H 0.55571 0.03548 0.45157 0.0
H62 H 0.60491 0.09751 0.52269 0.0
H63 H 0.61113 0.13385 0.55285 0.0
H64 H 0.52062 0.08132 0.57151 0.0
H65 H 0.5144 0.04587 0.54121 0.0
C66 C 0.50883 0.96604 0.50944 0.0
C67 C 0.48416 0.96244 0.52144 0.0
C68 C 0.46211 0.93513 0.52752 0.0
C69 C 0.46398 0.91062 0.52156 0.0
C70 C 0.48911 0.91418 0.51021 0.0
C71 C 0.51142 0.94174 0.5042 0.0
C72 C 0.53067 0.99534 0.50165 0.0
C73 C 0.54109 0.01794 0.5185 0.0
C74 C 0.537 0.00179 0.47734 0.0
C75 C 0.52303 0.97912 0.45866 0.0
C76 C 0.49364 0.96843 0.45268 0.0
C77 C 0.47973 0.94635 0.43567 0.0
C78 C 0.49485 0.93427 0.42441 0.0
C79 C 0.52451 0.94532 0.43035 0.0
C80 C 0.53853 0.96771 0.44727 0.0
C81 C 0.56849 0.08218 0.47813 0.0
C82 C 0.594 0.0979 0.46509 0.0
C83 C 0.60147 0.12514 0.45654 0.0
C84 C 0.58342 0.13696 0.46079 0.0
C85 C 0.55766 0.12083 0.47355 0.0
C86 C 0.55025 0.09372 0.48203 0.0
C87 C 0.55999 0.05318 0.48706 0.0
C88 C 0.55243 0.03067 0.47039 0.0
C89 C 0.55462 0.04673 0.5115 0.0
C90 C 0.55922 0.06893 0.52975 0.0
C91 C 0.58644 0.09399 0.53324 0.0
C92 C 0.58999 0.11463 0.55053 0.0
C93 C 0.56631 0.11054 0.56445 0.0
C94 C 0.53918 0.0854 0.56083 0.0
C95 C 0.53568 0.0649 0.54369 0.0
H96 H 0.54222 0.59643 0.69959 0.0
H97 H 0.5202 0.60864 0.73257 0.0
H98 H 0.4346 0.55047 0.7028 0.0
H99 H 0.45668 0.53781 0.6703 0.0
H100 H 0.52868 0.53835 0.69326 0.0
H101 H 0.51726 0.61003 0.64495 0.0
H102 H 0.48371 0.62583 0.63063 0.0
H103 H 0.42891 0.54198 0.59791 0.0
H104 H 0.46226 0.52631 0.61234 0.0
H105 H 0.51135 0.49538 0.59428 0.0
H106 H 0.53339 0.47625 0.56687 0.0
H107 H 0.61282 0.51711 0.60943 0.0
H108 H 0.5911 0.537 0.63621 0.0
H109 H 0.52063 0.54541 0.60577 0.0
H110 H 0.512 0.46991 0.64719 0.0
H111 H 0.51879 0.43307 0.66615 0.0
H112 H 0.5833 0.49742 0.7142 0.0
H113 H 0.57685 0.53464 0.69466 0.0
C114 C 0.50109 0.56635 0.68246 0.0
C115 C 0.51873 0.5868 0.69994 0.0
C116 C 0.50614 0.59388 0.71868 0.0
C117 C 0.47568 0.58036 0.72034 0.0
C118 C 0.45814 0.56102 0.7021 0.0
C119 C 0.47073 0.55396 0.68339 0.0
C120 C 0.51421 0.55535 0.6651 0.0
C121 C 0.52788 0.54076 0.67414 0.0
C122 C 0.5105 0.55603 0.64017 0.0
C123 C 0.49218 0.56697 0.62978 0.0
C124 C 0.49814 0.59519 0.63452 0.0
C125 C 0.47904 0.60419 0.62627 0.0
C126 C 0.45359 0.58503 0.61332 0.0
C127 C 0.44814 0.55708 0.6081 0.0
C128 C 0.46733 0.5482 0.61614 0.0
C129 C 0.54954 0.51765 0.61732 0.0
C130 C 0.53357 0.50036 0.59761 0.0
C131 C 0.54608 0.48913 0.58213 0.0
C132 C 0.57485 0.49509 0.586 0.0
C133 C 0.59072 0.51232 0.6058 0.0
C134 C 0.57824 0.52354 0.62124 0.0
C135 C 0.53639 0.5295 0.63398 0.0
C136 C 0.52251 0.54393 0.62489 0.0
C137 C 0.53764 0.5266 0.65892 0.0
C138 C 0.54419 0.50512 0.66929 0.0
C139 C 0.52807 0.47628 0.66146 0.0
C140 C 0.53168 0.45515 0.67254 0.0
C141 C 0.55135 0.46233 0.69182 0.0
C142 C 0.56807 0.49131 0.69932 0.0
C143 C 0.56435 0.51254 0.68824 0.0
H144 H 0.01884 0.55489 0.76156 0.0
H145 H 0.05796 0.57914 0.73311 0.0
H146 H 0.09525 0.52755 0.75572 0.0
H147 H 0.05519 0.50246 0.78341 0.0
H148 H 0.97702 0.49689 0.7652 0.0
H149 H 0.06333 0.56907 0.81365 0.0
H150 H 0.11402 0.58631 0.82649 0.0
H151 H 0.08759 0.50292 0.85598 0.0
H152 H 0.03763 0.48571 0.84267 0.0
H153 H 0.94719 0.43834 0.85156 0.0
H154 H 0.90856 0.419 0.88098 0.0
H155 H 0.89235 0.48912 0.86739 0.0
H156 H 0.92943 0.50673 0.83692 0.0
H157 H 0.99807 0.50161 0.85205 0.0
H158 H 0.92781 0.42628 0.80399 0.0
H159 H 0.87794 0.39336 0.79041 0.0
H160 H 0.87312 0.46476 0.76049 0.0
H161 H 0.92325 0.49785 0.77465 0.0
C162 C 0.03432 0.52718 0.77484 0.0
C163 C 0.03535 0.54869 0.76027 0.0
C164 C 0.05794 0.56275 0.74419 0.0
C165 C 0.08003 0.5556 0.74233 0.0
C166 C 0.07857 0.53354 0.75661 0.0
C167 C 0.05582 0.51935 0.77261 0.0
C168 C 0.0108 0.51328 0.79248 0.0
C169 C 0.9817 0.49844 0.78419 0.0
C170 C 0.0168 0.51386 0.81721 0.0
C171 C 0.04684 0.52597 0.8269 0.0
C172 C 0.06854 0.55463 0.82298 0.0
C173 C 0.09737 0.56449 0.83044 0.0
C174 C 0.10473 0.54579 0.84189 0.0
C175 C 0.08263 0.51763 0.84678 0.0
C176 C 0.05403 0.50784 0.83937 0.0
C177 C 0.94103 0.47389 0.84218 0.0
C178 C 0.93498 0.44924 0.85486 0.0
C179 C 0.91301 0.43838 0.87181 0.0
C180 C 0.89718 0.45247 0.87684 0.0
C181 C 0.9034 0.47717 0.86382 0.0
C182 C 0.92488 0.48755 0.84652 0.0
C183 C 0.96471 0.48602 0.82472 0.0
C184 C 0.9936 0.50064 0.83305 0.0
C185 C 0.95872 0.48404 0.80003 0.0
C186 C 0.929 0.46447 0.79054 0.0
C187 C 0.91601 0.43484 0.7945 0.0
C188 C 0.88761 0.41602 0.78652 0.0
C189 C 0.87162 0.42646 0.77433 0.0
C190 C 0.88486 0.45615 0.77 0.0
C191 C 0.91346 0.47503 0.77794 0.0
H192 H 0.59092 0.06097 0.02388 0.0
H193 H 0.6181 0.11113 0.03779 0.0
H194 H 0.54939 0.12461 0.0106 0.0
H195 H 0.52196 0.0741 0.99723 0.0
H196 H 0.53493 0.01756 0.03604 0.0
H197 H 0.58376 0.07363 0.96491 0.0
H198 H 0.59175 0.11071 0.93612 0.0
H199 H 0.50021 0.06346 0.91652 0.0
H200 H 0.49221 0.02743 0.94603 0.0
H201 H 0.46293 0.94482 0.95612 0.0
H202 H 0.44206 0.89507 0.94171 0.0
H203 H 0.50903 0.88805 0.98046 0.0
H204 H 0.52947 0.93761 0.99503 0.0
H205 H 0.51314 0.99129 0.95029 0.0
H206 H 0.46026 0.93665 0.01404 0.0
H207 H 0.44011 0.90297 0.04677 0.0
H208 H 0.52368 0.94628 0.0832 0.0
H209 H 0.5444 0.97913 0.04982 0.0
C210 C 0.55459 0.06391 0.00931 0.0
C211 C 0.58166 0.07471 0.02103 0.0
C212 C 0.59726 0.10344 0.0288 0.0
C213 C 0.58601 0.12193 0.02515 0.0
C214 C 0.55857 0.11089 0.01382 0.0
C215 C 0.54298 0.08211 0.00601 0.0
C216 C 0.5388 0.03356 0.00058 0.0
C217 C 0.5306 0.01168 0.01727 0.0
C218 C 0.53155 0.02608 0.97621 0.0
C219 C 0.53729 0.04795 0.95789 0.0
C220 C 0.5654 0.07144 0.95453 0.0
C221 C 0.56998 0.09248 0.9379 0.0
C222 C 0.54657 0.09026 0.92415 0.0
C223 C 0.51863 0.06627 0.92716 0.0
C224 C 0.51406 0.04542 0.94385 0.0
C225 C 0.49761 0.94488 0.97684 0.0
C226 C 0.47315 0.93257 0.96144 0.0
C227 C 0.46131 0.90414 0.95314 0.0
C228 C 0.47381 0.88749 0.95996 0.0
C229 C 0.49852 0.90004 0.97519 0.0
C230 C 0.51029 0.92842 0.9835 0.0
C231 C 0.51017 0.97506 0.98571 0.0
C232 C 0.51769 0.99694 0.96909 0.0
C233 C 0.51564 0.98244 0.0103 0.0
C234 C 0.50405 0.96034 0.02919 0.0
C235 C 0.47462 0.93838 0.02861 0.0
C236 C 0.46302 0.9192 0.04739 0.0
C237 C 0.48038 0.92209 0.06742 0.0
C238 C 0.50987 0.9437 0.06792 0.0
C239 C 0.52165 0.96249 0.0489 0.0
H240 H 0.46583 0.45146 0.21676 0.0
H241 H 0.47926 0.42824 0.24771 0.0
H242 H 0.56892 0.47579 0.22585 0.0
H243 H 0.55556 0.49956 0.19531 0.0
H244 H 0.48756 0.5106 0.21391 0.0
H245 H 0.49909 0.43714 0.16475 0.0
H246 H 0.53339 0.42189 0.15121 0.0
H247 H 0.58705 0.50561 0.12072 0.0
H248 H 0.55381 0.52096 0.13499 0.0
H249 H 0.51052 0.55448 0.11614 0.0
H250 H 0.48946 0.57172 0.08613 0.0
H251 H 0.40882 0.53391 0.12475 0.0
H252 H 0.42954 0.51574 0.1541 0.0
H253 H 0.49812 0.50371 0.12675 0.0
H254 H 0.50911 0.58125 0.16996 0.0
H255 H 0.49826 0.61744 0.18533 0.0
H256 H 0.42982 0.55296 0.22809 0.0
H257 H 0.44034 0.51646 0.21202 0.0
C258 C 0.50962 0.47699 0.20356 0.0
C259 C 0.48835 0.45673 0.21853 0.0
C260 C 0.496 0.44347 0.23615 0.0
C261 C 0.52507 0.45011 0.23903 0.0
C262 C 0.54627 0.46993 0.22372 0.0
C263 C 0.53867 0.48353 0.2063 0.0
C264 C 0.50131 0.49219 0.18609 0.0
C265 C 0.48935 0.50863 0.19482 0.0
C266 C 0.50597 0.49169 0.16131 0.0
C267 C 0.52413 0.48037 0.15124 0.0
C268 C 0.51825 0.45212 0.15512 0.0
C269 C 0.53772 0.44337 0.14724 0.0
C270 C 0.56318 0.46274 0.13528 0.0
C271 C 0.56802 0.4904 0.13038 0.0
C272 C 0.54882 0.49911 0.13832 0.0
C273 C 0.4716 0.53373 0.13734 0.0
C274 C 0.48833 0.54998 0.11816 0.0
C275 C 0.47638 0.56012 0.10118 0.0
C276 C 0.44743 0.55412 0.10303 0.0
C277 C 0.43107 0.53862 0.12267 0.0
C278 C 0.44298 0.52842 0.13957 0.0
C279 C 0.48342 0.52119 0.15453 0.0
C280 C 0.49587 0.50527 0.14582 0.0
C281 C 0.48174 0.52427 0.17941 0.0
C282 C 0.47523 0.54605 0.18956 0.0
C283 C 0.49164 0.57483 0.18255 0.0
C284 C 0.48565 0.5956 0.19158 0.0
C285 C 0.46321 0.5881 0.20797 0.0
C286 C 0.44706 0.55934 0.2153 0.0
C287 C 0.45314 0.53851 0.20626 0.0
Zn288 Zn 0.67582 0.44907 0.40435 0.0
Zn289 Zn 0.64792 0.39253 0.41056 0.0
O290 O 0.68934 0.40256 0.40091 0.0
O291 O 0.71153 0.44873 0.39309 0.0
O292 O 0.62969 0.35032 0.41782 0.0
O293 O 0.67164 0.45673 0.4387 0.0
O294 O 0.64335 0.40993 0.44233 0.0
C295 C 0.71173 0.42528 0.39387 0.0
C296 C 0.62439 0.41718 0.37413 0.0
O297 O 0.62357 0.39497 0.38286 0.0
O298 O 0.64359 0.44221 0.38111 0.0
C299 C 0.6335 0.3333 0.40435 0.0
O300 O 0.64805 0.34311 0.38458 0.0
C301 C 0.65461 0.43542 0.45106 0.0
Zn302 Zn 0.23062 0.68192 0.56653 0.0
Zn303 Zn 0.2616 0.65531 0.57128 0.0
O304 O 0.29194 0.69848 0.56709 0.0
O305 O 0.26657 0.72043 0.56331 0.0
O306 O 0.28738 0.63799 0.57642 0.0
O307 O 0.21294 0.66806 0.59863 0.0
O308 O 0.23664 0.64424 0.60168 0.0
C309 C 0.29091 0.72144 0.56394 0.0
C310 C 0.21891 0.63908 0.5294 0.0
O311 O 0.23769 0.63534 0.54074 0.0
O312 O 0.21228 0.65738 0.53693 0.0
C313 C 0.31107 0.64743 0.56515 0.0
O314 O 0.31778 0.66751 0.54928 0.0
C315 C 0.21875 0.6513 0.61006 0.0
Zn316 Zn 0.53869 0.23088 0.74884 0.0
Zn317 Zn 0.59759 0.26257 0.75155 0.0
O318 O 0.58362 0.2919 0.74963 0.0
O319 O 0.53573 0.26701 0.74837 0.0
O320 O 0.64084 0.28908 0.75431 0.0
O321 O 0.5395 0.21282 0.7802 0.0
O322 O 0.58748 0.23798 0.78154 0.0
C323 C 0.5592 0.29104 0.74848 0.0
C324 C 0.5685 0.2215 0.70928 0.0
O325 O 0.59153 0.2397 0.72056 0.0
O326 O 0.54362 0.21438 0.7175 0.0
C327 C 0.65993 0.28288 0.74774 0.0
O328 O 0.65161 0.25709 0.73884 0.0
C329 C 0.56345 0.21932 0.7905 0.0
Zn330 Zn 0.34075 0.56454 0.90738 0.0
Zn331 Zn 0.36617 0.6208 0.91044 0.0
O332 O 0.32345 0.60911 0.90173 0.0
O333 O 0.30315 0.56202 0.89829 0.0
O334 O 0.38593 0.66368 0.91638 0.0
O335 O 0.34914 0.56019 0.94125 0.0
O336 O 0.37336 0.60752 0.94317 0.0
C337 C 0.3012 0.58452 0.89705 0.0
C338 C 0.38592 0.59256 0.87313 0.0
O339 O 0.38776 0.61543 0.88203 0.0
O340 O 0.36823 0.56828 0.88162 0.0
C341 C 0.38479 0.68172 0.9026 0.0
O342 O 0.37031 0.67267 0.88225 0.0
C343 C 0.36492 0.5833 0.9529 0.0
Zn344 Zn 0.78139 0.44745 0.06795 0.0
Zn345 Zn 0.74954 0.38991 0.06872 0.0
O346 O 0.71966 0.40312 0.07615 0.0
O347 O 0.74642 0.4504 0.07661 0.0
O348 O 0.72541 0.34643 0.06618 0.0
O349 O 0.79135 0.44689 0.03353 0.0
O350 O 0.76869 0.39962 0.03564 0.0
C351 C 0.72199 0.4278 0.0791 0.0
C352 C 0.80053 0.42174 0.1039 0.0
O353 O 0.77879 0.39818 0.0963 0.0
O354 O 0.80647 0.44531 0.09432 0.0
C355 C 0.69954 0.33126 0.07363 0.0
O356 O 0.68721 0.34389 0.08486 0.0
C357 C 0.78377 0.42259 0.02403 0.0
Zn358 Zn 0.34102 0.79035 0.25031 0.0
Zn359 Zn 0.36957 0.76067 0.24706 0.0
O360 O 0.32621 0.73062 0.2494 0.0
O361 O 0.30168 0.75363 0.24914 0.0
O362 O 0.38594 0.7342 0.24417 0.0
O363 O 0.36143 0.8109 0.22014 0.0
O364 O 0.38214 0.78426 0.21653 0.0
C365 C 0.30201 0.73022 0.24968 0.0
C366 C 0.38174 0.80125 0.28951 0.0
O367 O 0.38833 0.78507 0.27748 0.0
O368 O 0.36163 0.80568 0.28227 0.0
C369 C 0.41246 0.74066 0.24565 0.0
O370 O 0.4328 0.76761 0.24948 0.0
C371 C 0.37766 0.80397 0.20881 0.0
H372 H 0.12354 0.60097 0.27544 0.0
H373 H 0.29492 0.67615 0.25326 0.0
H374 H 0.17212 0.55642 0.28117 0.0
H375 H 0.2463 0.72097 0.25139 0.0
H376 H 0.24963 0.63114 0.25994 0.0
H377 H 0.1677 0.64406 0.26322 0.0
C378 C 0.14355 0.60027 0.27415 0.0
C379 C 0.14422 0.57515 0.27964 0.0
C380 C 0.24886 0.6508 0.25793 0.0
C381 C 0.19494 0.62446 0.26543 0.0
C382 C 0.27471 0.67653 0.25408 0.0
C383 C 0.27448 0.70248 0.25192 0.0
C384 C 0.22254 0.65095 0.25964 0.0
C385 C 0.24759 0.70157 0.25307 0.0
C386 C 0.16874 0.62487 0.26705 0.0
C387 C 0.17061 0.57529 0.27707 0.0
N388 N 0.22276 0.67627 0.25697 0.0
N389 N 0.19498 0.59965 0.27032 0.0
H390 H 0.60671 0.16077 0.41766 0.0
H391 H 0.60548 0.30705 0.44525 0.0
H392 H 0.5776 0.17915 0.4837 0.0
H393 H 0.64022 0.2919 0.38093 0.0
H394 H 0.59301 0.2592 0.45869 0.0
H395 H 0.61795 0.20805 0.40328 0.0
C396 C 0.60286 0.1748 0.42921 0.0
C397 C 0.59112 0.1659 0.45192 0.0
C398 C 0.60329 0.26628 0.4416 0.0
C399 C 0.60357 0.21991 0.43543 0.0
C400 C 0.61034 0.29361 0.43387 0.0
C401 C 0.62401 0.30358 0.41194 0.0
C402 C 0.60992 0.2487 0.42732 0.0
C403 C 0.62975 0.28515 0.39797 0.0
C404 C 0.6091 0.20172 0.42091 0.0
C405 C 0.5862 0.18487 0.46594 0.0
N406 N 0.62275 0.25864 0.40593 0.0
N407 N 0.59243 0.21091 0.45747 0.0
H408 H 0.39439 0.55466 0.61755 0.0
H409 H 0.36744 0.67026 0.5508 0.0
H410 H 0.4642 0.63517 0.59223 0.0
H411 H 0.30212 0.60208 0.59294 0.0
H412 H 0.40216 0.65493 0.56207 0.0
H413 H 0.3593 0.56906 0.60502 0.0
C414 C 0.4023 0.57532 0.60922 0.0
C415 C 0.43224 0.59374 0.60586 0.0
C416 C 0.38022 0.64331 0.56882 0.0
C417 C 0.39222 0.61037 0.59152 0.0
C418 C 0.36032 0.65195 0.56231 0.0
C419 C 0.33181 0.63745 0.57097 0.0
C420 C 0.3715 0.61982 0.58392 0.0
C421 C 0.32389 0.61394 0.5859 0.0
C422 C 0.38229 0.58358 0.60221 0.0
C423 C 0.44133 0.62043 0.59529 0.0
N424 N 0.34361 0.60583 0.59187 0.0
N425 N 0.42138 0.6279 0.58839 0.0
H426 H 0.84848 0.37253 0.75406 0.0
H427 H 0.68393 0.33876 0.76337 0.0
H428 H 0.82471 0.43445 0.77848 0.0
H429 H 0.70722 0.27712 0.73709 0.0
H430 H 0.7355 0.37463 0.76743 0.0
H431 H 0.79706 0.33799 0.74592 0.0
C432 C 0.83243 0.37889 0.75763 0.0
C433 C 0.84087 0.40635 0.76712 0.0
C434 C 0.72937 0.3533 0.76072 0.0
C435 C 0.78197 0.36693 0.75781 0.0
C436 C 0.69989 0.33274 0.75843 0.0
C437 C 0.6912 0.3048 0.74998 0.0
C438 C 0.75044 0.34592 0.75458 0.0
C439 C 0.7129 0.29835 0.74376 0.0
C440 C 0.80309 0.35919 0.75291 0.0
C441 C 0.81921 0.4136 0.77102 0.0
N442 N 0.74153 0.31873 0.74626 0.0
N443 N 0.79074 0.39393 0.76651 0.0
H444 H 0.4674 0.84101 0.98485 0.0
H445 H 0.38786 0.72695 0.87771 0.0
H446 H 0.45103 0.86456 0.91551 0.0
H447 H 0.4134 0.70654 0.94467 0.0
H448 H 0.40988 0.77723 0.89124 0.0
H449 H 0.44676 0.79142 0.97046 0.0
C450 C 0.45966 0.83583 0.96653 0.0
C451 C 0.46108 0.85711 0.95137 0.0
C452 C 0.41071 0.76174 0.90293 0.0
C453 C 0.43693 0.80005 0.93483 0.0
C454 C 0.39814 0.73302 0.89521 0.0
C455 C 0.39873 0.71244 0.91007 0.0
C456 C 0.42386 0.76992 0.92571 0.0
C457 C 0.41239 0.7216 0.93258 0.0
C458 C 0.44771 0.80742 0.95836 0.0
C459 C 0.45009 0.84886 0.92795 0.0
N460 N 0.42431 0.74959 0.93971 0.0
N461 N 0.43849 0.82101 0.9204 0.0
H462 H 0.62186 0.49616 0.14112 0.0
H463 H 0.66443 0.38524 0.08434 0.0
H464 H 0.55587 0.41218 0.11514 0.0
H465 H 0.72242 0.4771 0.09168 0.0
H466 H 0.62444 0.39171 0.09912 0.0
H467 H 0.65931 0.48616 0.12764 0.0
C468 C 0.61523 0.47559 0.13245 0.0
C469 C 0.58567 0.45522 0.1288 0.0
C470 C 0.64596 0.41034 0.09737 0.0
C471 C 0.6287 0.44342 0.11345 0.0
C472 C 0.66875 0.4067 0.08895 0.0
C473 C 0.69687 0.43065 0.08677 0.0
C474 C 0.65155 0.43805 0.10388 0.0
C475 C 0.70121 0.45795 0.093 0.0
C476 C 0.63667 0.46985 0.1248 0.0
C477 C 0.57843 0.42853 0.11819 0.0
N478 N 0.6789 0.46082 0.10134 0.0
N479 N 0.59986 0.42342 0.11072 0.0
H480 H 0.40625 0.89179 0.51482 0.0
H481 H 0.34776 0.73285 0.56283 0.0
H482 H 0.46488 0.86333 0.53944 0.0
H483 H 0.29518 0.77297 0.55403 0.0
H484 H 0.39092 0.77839 0.55197 0.0
H485 H 0.3651 0.84581 0.5258 0.0
C486 C 0.41048 0.87586 0.52267 0.0
C487 C 0.43909 0.88163 0.52661 0.0
C488 C 0.36991 0.77714 0.55256 0.0
C489 C 0.39181 0.82851 0.53905 0.0
C490 C 0.34529 0.75122 0.55879 0.0
C491 C 0.31776 0.74904 0.55929 0.0
C492 C 0.36681 0.80083 0.54662 0.0
C493 C 0.31587 0.77352 0.55386 0.0
C494 C 0.38692 0.84953 0.52889 0.0
C495 C 0.44317 0.85977 0.53613 0.0
N496 N 0.33997 0.79824 0.54765 0.0
N497 N 0.41973 0.83413 0.54216 0.0
H498 H 0.60069 0.4619 0.70664 0.0
H499 H 0.51112 0.29734 0.74602 0.0
H500 H 0.50684 0.41035 0.70558 0.0
H501 H 0.60508 0.34594 0.74328 0.0
H502 H 0.50964 0.34067 0.73606 0.0
H503 H 0.60322 0.42179 0.72472 0.0
C504 C 0.58064 0.44226 0.71043 0.0
C505 C 0.55353 0.43927 0.70431 0.0
C506 C 0.53062 0.34195 0.73781 0.0
C507 C 0.55621 0.3934 0.72486 0.0
C508 C 0.53148 0.31719 0.74355 0.0
C509 C 0.55825 0.31789 0.74524 0.0
C510 C 0.5567 0.36767 0.73361 0.0
C511 C 0.58392 0.34433 0.742 0.0
C512 C 0.58208 0.41936 0.72066 0.0
C513 C 0.52822 0.41334 0.70955 0.0
N514 N 0.5825 0.36811 0.73612 0.0
N515 N 0.53019 0.3914 0.71939 0.0
H516 H 0.1319 0.51545 0.83274 0.0
H517 H 0.28509 0.62625 0.8945 0.0
H518 H 0.14733 0.59599 0.8637 0.0
H519 H 0.25342 0.53586 0.88069 0.0
H520 H 0.23815 0.61939 0.87937 0.0
H521 H 0.18061 0.527 0.84518 0.0
C522 C 0.14562 0.53561 0.84225 0.0
C523 C 0.13539 0.55451 0.84766 0.0
C524 C 0.24168 0.60119 0.87976 0.0
C525 C 0.19146 0.56804 0.86197 0.0
C526 C 0.26836 0.60506 0.88837 0.0
C527 C 0.27321 0.5816 0.88892 0.0
C528 C 0.22009 0.57381 0.87142 0.0
C529 C 0.25081 0.55462 0.88073 0.0
C530 C 0.17347 0.54224 0.84933 0.0
C531 C 0.15442 0.58077 0.85935 0.0
N532 N 0.22542 0.55156 0.8723 0.0
N533 N 0.1816 0.58672 0.86636 0.0
H534 H 0.6446 0.15901 0.02084 0.0
H535 H 0.64228 0.293 0.0831 0.0
H536 H 0.56639 0.15496 0.04706 0.0
H537 H 0.71867 0.29807 0.0516 0.0
H538 H 0.6146 0.24184 0.07205 0.0
H539 H 0.67248 0.20938 0.03389 0.0
C540 C 0.6333 0.16867 0.02948 0.0
C541 C 0.60309 0.15268 0.0329 0.0
C542 C 0.63743 0.25414 0.06761 0.0
C543 C 0.63492 0.21056 0.04774 0.0
C544 C 0.6533 0.28335 0.07398 0.0
C545 C 0.68286 0.29992 0.06822 0.0
C546 C 0.65123 0.24134 0.05544 0.0
C547 C 0.69592 0.28621 0.05636 0.0
C548 C 0.64923 0.19751 0.03682 0.0
C549 C 0.58958 0.16653 0.04384 0.0
N550 N 0.68002 0.25777 0.05034 0.0
N551 N 0.60559 0.19465 0.0509 0.0
H552 H 0.50122 0.64423 0.2214 0.0
H553 H 0.37513 0.68296 0.23901 0.0
H554 H 0.40936 0.58242 0.21418 0.0
H555 H 0.46681 0.74595 0.24503 0.0
H556 H 0.38748 0.64546 0.23234 0.0
H557 H 0.48925 0.68124 0.2325 0.0
C558 C 0.47852 0.63842 0.22219 0.0
C559 C 0.45625 0.61019 0.21668 0.0
C560 C 0.40494 0.66745 0.23519 0.0
C561 C 0.44241 0.65246 0.22951 0.0
C562 C 0.39791 0.68894 0.23899 0.0
C563 C 0.41999 0.71774 0.24246 0.0
C564 C 0.4343 0.67469 0.23478 0.0
C565 C 0.44908 0.72407 0.24236 0.0
C566 C 0.47171 0.65955 0.22862 0.0
C567 C 0.42724 0.6038 0.21844 0.0
N568 N 0.4554 0.70272 0.23847 0.0
N569 N 0.42117 0.6248 0.22455 0.0
H570 H 0.84305 0.37855 0.36014 0.0
H571 H 0.76171 0.46932 0.37615 0.0
H572 H 0.87924 0.46788 0.34221 0.0
H573 H 0.72114 0.37919 0.3932 0.0
H574 H 0.80432 0.46795 0.36261 0.0
H575 H 0.79722 0.37678 0.37069 0.0
C576 C 0.84122 0.39765 0.35822 0.0
C577 C 0.86503 0.42351 0.35065 0.0
C578 C 0.78615 0.4484 0.36928 0.0
C579 C 0.81311 0.42175 0.36271 0.0
C580 C 0.76175 0.44919 0.3771 0.0
C581 C 0.7378 0.42437 0.38594 0.0
C582 C 0.78684 0.4226 0.37031 0.0
C583 C 0.73917 0.39888 0.3866 0.0
C584 C 0.81519 0.39669 0.36434 0.0
C585 C 0.86162 0.44767 0.34846 0.0
N586 N 0.76336 0.39866 0.37893 0.0
N587 N 0.83627 0.44622 0.35456 0.0
H588 H 0.11268 0.57601 0.40221 0.0
H589 H 0.21787 0.59042 0.5114 0.0
H590 H 0.13005 0.50804 0.42021 0.0
H591 H 0.18715 0.64971 0.49705 0.0
H592 H 0.19133 0.56234 0.47553 0.0
H593 H 0.14596 0.60598 0.43402 0.0
C594 C 0.1236 0.56743 0.41289 0.0
C595 C 0.11825 0.53935 0.40886 0.0
C596 C 0.1906 0.58159 0.48026 0.0
C597 C 0.15652 0.57361 0.44546 0.0
C598 C 0.20574 0.59763 0.50067 0.0
C599 C 0.20452 0.62231 0.50736 0.0
C600 C 0.17443 0.59055 0.46643 0.0
C601 C 0.18851 0.63069 0.49279 0.0
C602 C 0.14266 0.58457 0.43105 0.0
C603 C 0.13354 0.52957 0.42284 0.0
N604 N 0.17412 0.61485 0.47312 0.0
N605 N 0.15182 0.5466 0.44075 0.0
H606 H 0.52856 0.12973 0.5746 0.0
H607 H 0.61654 0.22246 0.69021 0.0
H608 H 0.61132 0.13973 0.5969 0.0
H609 H 0.52511 0.19096 0.67644 0.0
H610 H 0.61848 0.19916 0.65294 0.0
H611 H 0.53086 0.15971 0.60847 0.0
C612 C 0.54729 0.13833 0.5866 0.0
C613 C 0.56954 0.13179 0.58315 0.0
C614 C 0.59807 0.19749 0.6581 0.0
C615 C 0.57241 0.16637 0.62193 0.0
C616 C 0.59694 0.2108 0.67932 0.0
C617 C 0.57056 0.20848 0.68653 0.0
C618 C 0.57274 0.18209 0.64392 0.0
C619 C 0.54585 0.19312 0.67171 0.0
C620 C 0.54861 0.15549 0.60591 0.0
C621 C 0.59368 0.14421 0.5989 0.0
N622 N 0.54756 0.18054 0.65115 0.0
N623 N 0.59437 0.16073 0.61777 0.0
H624 H 0.43141 0.53803 0.745 0.0
H625 H 0.42259 0.63928 0.84593 0.0
H626 H 0.4899 0.63 0.74607 0.0
H627 H 0.38669 0.54741 0.85143 0.0
H628 H 0.44538 0.63785 0.8083 0.0
H629 H 0.41119 0.5425 0.78239 0.0
C630 C 0.43974 0.55927 0.75296 0.0
C631 C 0.46224 0.5837 0.7423 0.0
C632 C 0.43265 0.61813 0.81794 0.0
C633 C 0.43951 0.58896 0.78559 0.0
C634 C 0.41972 0.61893 0.83939 0.0
C635 C 0.40252 0.5934 0.85179 0.0
C636 C 0.42802 0.59161 0.80886 0.0
C637 C 0.39952 0.56763 0.84249 0.0
C638 C 0.42842 0.56179 0.7745 0.0
C639 C 0.47262 0.61061 0.75377 0.0
N640 N 0.41192 0.56741 0.82158 0.0
N641 N 0.4611 0.61257 0.77484 0.0
H642 H 0.84691 0.45577 0.87964 0.0
H643 H 0.79903 0.38422 0.00675 0.0
H644 H 0.89727 0.42614 0.9188 0.0
H645 H 0.79308 0.45864 0.98718 0.0
H646 H 0.82289 0.38693 0.96872 0.0
H647 H 0.81507 0.44462 0.91382 0.0
C648 C 0.85137 0.4469 0.89527 0.0
C649 C 0.87538 0.44247 0.89629 0.0
C650 C 0.81592 0.40234 0.9727 0.0
C651 C 0.83804 0.42854 0.93504 0.0
C652 C 0.80221 0.40073 0.99424 0.0
C653 C 0.79431 0.42137 8e-05 0.0
C654 C 0.82098 0.42426 0.95676 0.0
C655 C 0.79909 0.44248 0.98337 0.0
C656 C 0.83296 0.44032 0.91467 0.0
C657 C 0.87907 0.4298 0.91688 0.0
N658 N 0.81211 0.44338 0.96242 0.0
N659 N 0.86066 0.42336 0.93544 0.0
H660 H 0.48211 0.94048 0.11304 0.0
H661 H 0.39888 0.78646 0.17167 0.0
H662 H 0.44814 0.86321 0.06952 0.0
H663 H 0.39089 0.85831 0.19731 0.0
H664 H 0.42489 0.81472 0.1368 0.0
H665 H 0.45727 0.911 0.14748 0.0
C666 C 0.46969 0.91726 0.11086 0.0
C667 C 0.46712 0.90417 0.08852 0.0
C668 C 0.41731 0.82413 0.15009 0.0
C669 C 0.43886 0.87045 0.12769 0.0
C670 C 0.40259 0.80812 0.16996 0.0
C671 C 0.39263 0.82004 0.18732 0.0
C672 C 0.42272 0.85243 0.14801 0.0
C673 C 0.39799 0.8482 0.18426 0.0
C674 C 0.45539 0.90051 0.13041 0.0
C675 C 0.45052 0.87402 0.0865 0.0
N676 N 0.41291 0.86353 0.16511 0.0
N677 N 0.43709 0.85808 0.10592 0.0
H678 H 0.5105 0.44859 0.28556 0.0
H679 H 0.606 0.38223 0.3342 0.0
H680 H 0.55949 0.42531 0.2384 0.0
H681 H 0.59565 0.44681 0.37212 0.0
H682 H 0.5765 0.38447 0.30089 0.0
H683 H 0.52904 0.43399 0.31953 0.0
C684 C 0.52474 0.43989 0.28234 0.0
C685 C 0.53369 0.43832 0.25921 0.0
C686 C 0.58038 0.39774 0.31672 0.0
C687 C 0.55483 0.42159 0.29789 0.0
C688 C 0.59695 0.39634 0.33568 0.0
C689 C 0.60325 0.4145 0.35571 0.0
C690 C 0.56962 0.41688 0.31829 0.0
C691 C 0.59137 0.43264 0.35684 0.0
C692 C 0.53538 0.43172 0.3017 0.0
C693 C 0.55239 0.42714 0.25603 0.0
N694 N 0.5751 0.43338 0.33837 0.0
N695 N 0.56248 0.41926 0.27522 0.0
H696 H 0.51655 0.92471 0.38294 0.0
H697 H 0.36185 0.81738 0.32774 0.0
H698 H 0.43829 0.88959 0.42451 0.0
H699 H 0.43879 0.81915 0.30116 0.0
H700 H 0.39002 0.84609 0.36243 0.0
H701 H 0.48947 0.88809 0.35194 0.0
C702 C 0.49384 0.90914 0.38577 0.0
C703 C 0.47963 0.91063 0.4063 0.0
C704 C 0.40069 0.83993 0.34917 0.0
C705 C 0.44849 0.86913 0.37063 0.0
C706 C 0.38466 0.82365 0.32934 0.0
C707 C 0.39807 0.816 0.31156 0.0
C708 C 0.43055 0.84925 0.35099 0.0
C709 C 0.42766 0.82456 0.31454 0.0
C710 C 0.4784 0.8883 0.368 0.0
C711 C 0.45003 0.88994 0.40873 0.0
N712 N 0.4431 0.84118 0.33374 0.0
N713 N 0.43538 0.87035 0.39099 0.0
H714 H 0.63044 0.52395 0.56922 0.0
H715 H 0.60737 0.39858 0.47749 0.0
H716 H 0.55081 0.44185 0.56381 0.0
H717 H 0.68137 0.4849 0.47799 0.0
H718 H 0.58939 0.4111 0.51317 0.0
H719 H 0.65225 0.50705 0.53982 0.0
C720 C 0.61762 0.50222 0.56206 0.0
C721 C 0.58868 0.48435 0.56895 0.0
C722 C 0.60973 0.42716 0.50559 0.0
C723 C 0.61346 0.46493 0.5349 0.0
C724 C 0.62009 0.41998 0.48532 0.0
C725 C 0.64575 0.44082 0.4746 0.0
C726 C 0.62524 0.45531 0.5152 0.0
C727 C 0.66131 0.46824 0.48548 0.0
C728 C 0.63005 0.49262 0.54514 0.0
C729 C 0.57304 0.45652 0.55875 0.0
N730 N 0.65071 0.47472 0.50504 0.0
N731 N 0.58558 0.4477 0.54215 0.0
H732 H 0.1089 0.61311 0.73226 0.0
H733 H 0.21027 0.60244 0.6325 0.0
H734 H 0.10686 0.53369 0.71406 0.0
H735 H 0.19155 0.67181 0.63843 0.0
H736 H 0.1796 0.57993 0.66716 0.0
H737 H 0.14621 0.63772 0.70251 0.0
C738 C 0.11623 0.60079 0.72198 0.0
C739 C 0.10431 0.57113 0.72546 0.0
C740 C 0.18246 0.6002 0.66094 0.0
C741 C 0.14753 0.59941 0.69155 0.0
C742 C 0.20006 0.61312 0.64127 0.0
C743 C 0.20325 0.6389 0.63245 0.0
C744 C 0.16832 0.61338 0.67197 0.0
C745 C 0.18946 0.65178 0.64446 0.0
C746 C 0.13768 0.61492 0.70508 0.0
C747 C 0.11542 0.55656 0.71207 0.0
N748 N 0.17257 0.63886 0.66352 0.0
N749 N 0.13628 0.57081 0.69559 0.0
H750 H 0.51057 0.11191 0.91434 0.0
H751 H 0.60893 0.21637 0.81143 0.0
H752 H 0.59271 0.12002 0.89414 0.0
H753 H 0.51743 0.1873 0.81929 0.0
H754 H 0.60668 0.18766 0.84588 0.0
H755 H 0.51618 0.14597 0.88362 0.0
C756 C 0.52978 0.12077 0.90342 0.0
C757 C 0.55098 0.11267 0.90665 0.0
C758 C 0.58718 0.18774 0.8401 0.0
C759 C 0.55777 0.15221 0.87161 0.0
C760 C 0.58846 0.2042 0.82052 0.0
C761 C 0.56327 0.20409 0.81237 0.0
C762 C 0.56063 0.17136 0.85173 0.0
C763 C 0.53733 0.18787 0.82482 0.0
C764 C 0.53303 0.14036 0.88595 0.0
C765 C 0.57584 0.12565 0.89238 0.0
N766 N 0.53669 0.17216 0.84383 0.0
N767 N 0.57848 0.14467 0.8754 0.0
H768 H 0.47071 0.60423 0.07762 0.0
H769 H 0.34008 0.53748 0.98227 0.0
H770 H 0.39277 0.52131 0.08379 0.0
H771 H 0.41104 0.62521 0.97927 0.0
H772 H 0.35812 0.53282 0.02097 0.0
H773 H 0.44868 0.61396 0.04297 0.0
C774 C 0.44892 0.58818 0.0718 0.0
C775 C 0.43362 0.56186 0.08357 0.0
C776 C 0.36969 0.55322 0.01202 0.0
C777 C 0.40833 0.57285 0.04407 0.0
C778 C 0.35941 0.55587 0.98985 0.0
C779 C 0.37427 0.58168 0.97742 0.0
C780 C 0.3953 0.57642 0.0218 0.0
C781 C 0.399 0.6049 0.98825 0.0
C782 C 0.43631 0.59381 0.05212 0.0
C783 C 0.4053 0.542 0.07547 0.0
N784 N 0.409 0.60161 0.00974 0.0
N785 N 0.39372 0.54781 0.05614 0.0
H786 H 0.92413 0.47835 0.22107 0.0
H787 H 0.79659 0.37594 0.12884 0.0
H788 H 0.88443 0.38578 0.22072 0.0
H789 H 0.84604 0.46875 0.12556 0.0
H790 H 0.82685 0.37828 0.16313 0.0
H791 H 0.89366 0.47446 0.18693 0.0
C792 C 0.90881 0.45714 0.21391 0.0
C793 C 0.9067 0.43234 0.22388 0.0
C794 C 0.83105 0.39807 0.15481 0.0
C795 C 0.87183 0.42769 0.18441 0.0
C796 C 0.81379 0.39676 0.13526 0.0
C797 C 0.81873 0.42218 0.12428 0.0
C798 C 0.85324 0.42498 0.16347 0.0
C799 C 0.84135 0.44855 0.13338 0.0
C800 C 0.89153 0.45493 0.19426 0.0
C801 C 0.88686 0.40546 0.21349 0.0
N802 N 0.85763 0.44923 0.15241 0.0
N803 N 0.87009 0.40383 0.19434 0.0
loop_
_geom_bond_atom_site_label_1
_geom_bond_atom_site_label_2
_geom_bond_distance
_geom_bond_site_symmetry_2
_ccdc_geom_bond_type
H0 C19 0.949 . S
H1 C20 0.950 . S
H2 C22 0.950 . S
H3 C23 0.950 . S
H4 C25 0.950 . S
H5 C28 0.950 . S
H6 C29 0.950 . S
H7 C31 0.951 . S
H8 C32 0.949 . S
H9 C34 0.949 . S
H10 C35 0.950 . S
H11 C37 0.950 . S
H12 C38 0.950 . S
H13 C40 0.945 1_655 S
H14 C43 0.950 . S
H15 C44 0.950 . S
H16 C46 0.951 . S
H17 C47 0.949 . S
C18 C19 1.376 . S
C18 C23 1.386 . S
C18 C24 1.483 . S
C19 H0 0.949 . S
C19 C18 1.376 . S
C19 C20 1.397 . S
C20 H1 0.950 . S
C20 C19 1.397 . S
C20 C21 1.391 . S
C21 C20 1.391 . S
C21 C22 1.405 . S
C22 H2 0.950 . S
C22 C21 1.405 . S
C22 C23 1.367 . S
C23 H3 0.950 . S
C23 C18 1.386 . S
C23 C22 1.367 . S
C24 C18 1.483 . S
C24 C25 1.382 1_655 S
C24 C26 1.403 . S
C25 H4 0.950 . S
C25 C24 1.382 1_455 S
C25 C41 1.411 . S
C26 C24 1.403 . S
C26 C27 1.489 . S
C26 C40 1.402 1_655 S
C27 C26 1.489 . S
C27 C28 1.383 . S
C27 C32 1.382 . S
C28 H5 0.950 . S
C28 C27 1.383 . S
C28 C29 1.395 . S
C29 H6 0.950 . S
C29 C28 1.395 . S
C29 C30 1.288 . S
C30 C29 1.288 . S
C30 C31 1.392 . S
C31 H7 0.951 . S
C31 C30 1.392 . S
C31 C32 1.392 . S
C32 H8 0.949 . S
C32 C27 1.382 . S
C32 C31 1.392 . S
C33 C34 1.376 . S
C33 C38 1.386 . S
C33 C39 1.483 . S
C34 H9 0.949 . S
C34 C33 1.376 . S
C34 C35 1.397 . S
C35 H10 0.950 . S
C35 C34 1.397 . S
C35 C36 1.391 . S
C36 C35 1.391 . S
C36 C37 1.405 . S
C37 H11 0.950 . S
C37 C36 1.405 . S
C37 C38 1.367 . S
C38 H12 0.950 . S
C38 C33 1.386 . S
C38 C37 1.367 . S
C39 C33 1.483 . S
C39 C40 1.396 . S
C39 C41 1.403 . S
C40 H13 0.945 1_455 S
C40 C26 1.402 1_455 S
C40 C39 1.396 . S
C41 C25 1.411 . S
C41 C39 1.403 . S
C41 C42 1.489 . S
C42 C41 1.489 . S
C42 C43 1.383 . S
C42 C47 1.382 . S
C43 H14 0.950 . S
C43 C42 1.383 . S
C43 C44 1.395 . S
C44 H15 0.950 . S
C44 C43 1.395 . S
C44 C45 1.288 . S
C45 C44 1.288 . S
C45 C46 1.392 . S
C46 H16 0.951 . S
C46 C45 1.392 . S
C46 C47 1.392 . S
C47 H17 0.949 . S
C47 C42 1.382 . S
C47 C46 1.392 . S
H48 C67 0.949 . S
H49 C68 0.950 . S
H50 C70 0.950 . S
H51 C71 0.950 . S
H52 C73 0.950 . S
H53 C76 0.950 . S
H54 C77 0.950 . S
H55 C79 0.951 . S
H56 C80 0.949 . S
H57 C82 0.949 . S
H58 C83 0.950 . S
H59 C85 0.950 . S
H60 C86 0.950 . S
H61 C88 0.950 . S
H62 C91 0.950 . S
H63 C92 0.950 . S
H64 C94 0.951 . S
H65 C95 0.949 . S
C66 C67 1.376 . S
C66 C71 1.386 . S
C66 C72 1.483 . S
C67 H48 0.949 . S
C67 C66 1.376 . S
C67 C68 1.397 . S
C68 H49 0.950 . S
C68 C67 1.397 . S
C68 C69 1.391 . S
C69 C68 1.391 . S
C69 C70 1.405 . S
C70 H50 0.950 . S
C70 C69 1.405 . S
C70 C71 1.367 . S
C71 H51 0.950 . S
C71 C66 1.386 . S
C71 C70 1.367 . S
C72 C66 1.483 . S
C72 C73 1.382 . S
C72 C74 1.403 . S
C73 H52 0.950 . S
C73 C72 1.382 . S
C73 C89 1.411 1_565 S
C74 C72 1.403 . S
C74 C75 1.489 . S
C74 C88 1.411 1_565 S
C75 C74 1.489 . S
C75 C76 1.383 . S
C75 C80 1.382 . S
C76 H53 0.950 . S
C76 C75 1.383 . S
C76 C77 1.395 . S
C77 H54 0.950 . S
C77 C76 1.395 . S
C77 C78 1.288 . S
C78 C77 1.288 . S
C78 C79 1.392 . S
C79 H55 0.951 . S
C79 C78 1.392 . S
C79 C80 1.392 . S
C80 H56 0.949 . S
C80 C75 1.382 . S
C80 C79 1.392 . S
C81 C82 1.376 . S
C81 C86 1.386 . S
C81 C87 1.483 . S
C82 H57 0.949 . S
C82 C81 1.376 . S
C82 C83 1.397 . S
C83 H58 0.950 . S
C83 C82 1.397 . S
C83 C84 1.391 . S
C84 C83 1.391 . S
C84 C85 1.405 . S
C85 H59 0.950 . S
C85 C84 1.405 . S
C85 C86 1.367 . S
C86 H60 0.950 . S
C86 C81 1.386 . S
C86 C85 1.367 . S
C87 C81 1.483 . S
C87 C88 1.382 . S
C87 C89 1.403 . S
C88 H61 0.950 . S
C88 C74 1.411 1_545 S
C88 C87 1.382 . S
C89 C73 1.411 1_545 S
C89 C87 1.403 . S
C89 C90 1.489 . S
C90 C89 1.489 . S
C90 C91 1.383 . S
C90 C95 1.382 . S
C91 H62 0.950 . S
C91 C90 1.383 . S
C91 C92 1.395 . S
C92 H63 0.950 . S
C92 C91 1.395 . S
C92 C93 1.288 . S
C93 C92 1.288 . S
C93 C94 1.392 . S
C94 H64 0.951 . S
C94 C93 1.392 . S
C94 C95 1.392 . S
C95 H65 0.949 . S
C95 C90 1.382 . S
C95 C94 1.392 . S
H96 C115 0.949 . S
H97 C116 0.950 . S
H98 C118 0.950 . S
H99 C119 0.950 . S
H100 C121 0.950 . S
H101 C124 0.950 . S
H102 C125 0.950 . S
H103 C127 0.951 . S
H104 C128 0.949 . S
H105 C130 0.949 . S
H106 C131 0.950 . S
H107 C133 0.950 . S
H108 C134 0.950 . S
H109 C136 0.950 . S
H110 C139 0.950 . S
H111 C140 0.950 . S
H112 C142 0.951 . S
H113 C143 0.949 . S
C114 C115 1.376 . S
C114 C119 1.386 . S
C114 C120 1.483 . S
C115 H96 0.949 . S
C115 C114 1.376 . S
C115 C116 1.397 . S
C116 H97 0.950 . S
C116 C115 1.397 . S
C116 C117 1.391 . S
C117 C116 1.391 . S
C117 C118 1.405 . S
C118 H98 0.950 . S
C118 C117 1.405 . S
C118 C119 1.367 . S
C119 H99 0.950 . S
C119 C114 1.386 . S
C119 C118 1.367 . S
C120 C114 1.483 . S
C120 C121 1.382 . S
C120 C122 1.403 . S
C121 H100 0.950 . S
C121 C120 1.382 . S
C121 C137 1.411 . S
C122 C120 1.403 . S
C122 C123 1.489 . S
C122 C136 1.411 . S
C123 C122 1.489 . S
C123 C124 1.383 . S
C123 C128 1.382 . S
C124 H101 0.950 . S
C124 C123 1.383 . S
C124 C125 1.395 . S
C125 H102 0.950 . S
C125 C124 1.395 . S
C125 C126 1.288 . S
C126 C125 1.288 . S
C126 C127 1.392 . S
C127 H103 0.951 . S
C127 C126 1.392 . S
C127 C128 1.392 . S
C128 H104 0.949 . S
C128 C123 1.382 . S
C128 C127 1.392 . S
C129 C130 1.376 . S
C129 C134 1.386 . S
C129 C135 1.483 . S
C130 H105 0.949 . S
C130 C129 1.376 . S
C130 C131 1.397 . S
C131 H106 0.950 . S
C131 C130 1.397 . S
C131 C132 1.391 . S
C132 C131 1.391 . S
C132 C133 1.405 . S
C133 H107 0.950 . S
C133 C132 1.405 . S
C133 C134 1.367 . S
C134 H108 0.950 . S
C134 C129 1.386 . S
C134 C133 1.367 . S
C135 C129 1.483 . S
C135 C136 1.382 . S
C135 C137 1.403 . S
C136 H109 0.950 . S
C136 C122 1.411 . S
C136 C135 1.382 . S
C137 C121 1.411 . S
C137 C135 1.403 . S
C137 C138 1.489 . S
C138 C137 1.489 . S
C138 C139 1.383 . S
C138 C143 1.382 . S
C139 H110 0.950 . S
C139 C138 1.383 . S
C139 C140 1.395 . S
C140 H111 0.950 . S
C140 C139 1.395 . S
C140 C141 1.288 . S
C141 C140 1.288 . S
C141 C142 1.392 . S
C142 H112 0.951 . S
C142 C141 1.392 . S
C142 C143 1.392 . S
C143 H113 0.949 . S
C143 C138 1.382 . S
C143 C142 1.392 . S
H144 C163 0.949 . S
H145 C164 0.950 . S
H146 C166 0.950 . S
H147 C167 0.950 . S
H148 C169 0.950 1_655 S
H149 C172 0.950 . S
H150 C173 0.950 . S
H151 C175 0.951 . S
H152 C176 0.949 . S
H153 C178 0.949 . S
H154 C179 0.950 . S
H155 C181 0.950 . S
H156 C182 0.950 . S
H157 C184 0.950 . S
H158 C187 0.950 . S
H159 C188 0.950 . S
H160 C190 0.951 . S
H161 C191 0.949 . S
C162 C163 1.376 . S
C162 C167 1.386 . S
C162 C168 1.483 . S
C163 H144 0.949 . S
C163 C162 1.376 . S
C163 C164 1.397 . S
C164 H145 0.950 . S
C164 C163 1.397 . S
C164 C165 1.391 . S
C165 C164 1.391 . S
C165 C166 1.405 . S
C166 H146 0.950 . S
C166 C165 1.405 . S
C166 C167 1.367 . S
C167 H147 0.950 . S
C167 C162 1.386 . S
C167 C166 1.367 . S
C168 C162 1.483 . S
C168 C169 1.382 . S
C168 C170 1.403 . S
C169 H148 0.950 1_455 S
C169 C168 1.382 . S
C169 C185 1.411 1_455 S
C170 C168 1.403 . S
C170 C171 1.489 . S
C170 C184 1.411 . S
C171 C170 1.489 . S
C171 C172 1.383 . S
C171 C176 1.382 . S
C172 H149 0.950 . S
C172 C171 1.383 . S
C172 C173 1.395 . S
C173 H150 0.950 . S
C173 C172 1.395 . S
C173 C174 1.288 . S
C174 C173 1.288 . S
C174 C175 1.392 . S
C175 H151 0.951 . S
C175 C174 1.392 . S
C175 C176 1.392 . S
C176 H152 0.949 . S
C176 C171 1.382 . S
C176 C175 1.392 . S
C177 C178 1.376 . S
C177 C182 1.386 . S
C177 C183 1.483 . S
C178 H153 0.949 . S
C178 C177 1.376 . S
C178 C179 1.397 . S
C179 H154 0.950 . S
C179 C178 1.397 . S
C179 C180 1.391 . S
C180 C179 1.391 . S
C180 C181 1.405 . S
C181 H155 0.950 . S
C181 C180 1.405 . S
C181 C182 1.367 . S
C182 H156 0.950 . S
C182 C177 1.386 . S
C182 C181 1.367 . S
C183 C177 1.483 . S
C183 C184 1.382 1_655 S
C183 C185 1.403 . S
C184 H157 0.950 . S
C184 C170 1.411 . S
C184 C183 1.382 1_455 S
C185 C169 1.411 1_655 S
C185 C183 1.403 . S
C185 C186 1.489 . S
C186 C185 1.489 . S
C186 C187 1.383 . S
C186 C191 1.382 . S
C187 H158 0.950 . S
C187 C186 1.383 . S
C187 C188 1.395 . S
C188 H159 0.950 . S
C188 C187 1.395 . S
C188 C189 1.288 . S
C189 C188 1.288 . S
C189 C190 1.392 . S
C190 H160 0.951 . S
C190 C189 1.392 . S
C190 C191 1.392 . S
C191 H161 0.949 . S
C191 C186 1.382 . S
C191 C190 1.392 . S
H192 C211 0.949 . S
H193 C212 0.950 . S
H194 C214 0.950 . S
H195 C215 0.950 . S
H196 C217 0.950 . S
H197 C220 0.950 . S
H198 C221 0.950 . S
H199 C223 0.951 . S
H200 C224 0.949 . S
H201 C226 0.949 . S
H202 C227 0.950 . S
H203 C229 0.950 . S
H204 C230 0.950 . S
H205 C232 0.957 . S
H206 C235 0.950 . S
H207 C236 0.950 . S
H208 C238 0.951 . S
H209 C239 0.949 . S
C210 C211 1.376 . S
C210 C215 1.386 1_554 S
C210 C216 1.483 1_554 S
C211 H192 0.949 . S
C211 C210 1.376 . S
C211 C212 1.397 . S
C212 H193 0.950 . S
C212 C211 1.397 . S
C212 C213 1.391 . S
C213 C212 1.391 . S
C213 C214 1.405 . S
C214 H194 0.950 . S
C214 C213 1.405 . S
C214 C215 1.367 1_554 S
C215 H195 0.950 . S
C215 C210 1.386 1_556 S
C215 C214 1.367 1_556 S
C216 C210 1.483 1_556 S
C216 C217 1.382 1_556 S
C216 C218 1.403 . S
C217 H196 0.950 . S
C217 C216 1.382 1_554 S
C217 C233 1.411 1_545 S
C218 C216 1.403 . S
C218 C219 1.489 . S
C218 C232 1.384 1_545 S
C219 C218 1.489 . S
C219 C220 1.383 . S
C219 C224 1.382 . S
C220 H197 0.950 . S
C220 C219 1.383 . S
C220 C221 1.395 . S
C221 H198 0.950 . S
C221 C220 1.395 . S
C221 C222 1.288 . S
C222 C221 1.288 . S
C222 C223 1.392 . S
C223 H199 0.951 . S
C223 C222 1.392 . S
C223 C224 1.392 . S
C224 H200 0.949 . S
C224 C219 1.382 . S
C224 C223 1.392 . S
C225 C226 1.376 . S
C225 C230 1.386 . S
C225 C231 1.483 . S
C226 H201 0.949 . S
C226 C225 1.376 . S
C226 C227 1.397 . S
C227 H202 0.950 . S
C227 C226 1.397 . S
C227 C228 1.391 . S
C228 C227 1.391 . S
C228 C229 1.405 . S
C229 H203 0.950 . S
C229 C228 1.405 . S
C229 C230 1.367 . S
C230 H204 0.950 . S
C230 C225 1.386 . S
C230 C229 1.367 . S
C231 C225 1.483 . S
C231 C232 1.403 . S
C231 C233 1.403 1_556 S
C232 H205 0.957 . S
C232 C218 1.384 1_565 S
C232 C231 1.403 . S
C233 C217 1.411 1_565 S
C233 C231 1.403 1_554 S
C233 C234 1.489 . S
C234 C233 1.489 . S
C234 C235 1.383 . S
C234 C239 1.382 . S
C235 H206 0.950 . S
C235 C234 1.383 . S
C235 C236 1.395 . S
C236 H207 0.950 . S
C236 C235 1.395 . S
C236 C237 1.288 . S
C237 C236 1.288 . S
C237 C238 1.392 . S
C238 H208 0.951 . S
C238 C237 1.392 . S
C238 C239 1.392 . S
C239 H209 0.949 . S
C239 C234 1.382 . S
C239 C238 1.392 . S
H240 C259 0.949 . S
H241 C260 0.950 . S
H242 C262 0.950 . S
H243 C263 0.950 . S
H244 C265 0.950 . S
H245 C268 0.950 . S
H246 C269 0.950 . S
H247 C271 0.951 . S
H248 C272 0.949 . S
H249 C274 0.949 . S
H250 C275 0.950 . S
H251 C277 0.950 . S
H252 C278 0.950 . S
H253 C280 0.950 . S
H254 C283 0.950 . S
H255 C284 0.950 . S
H256 C286 0.951 . S
H257 C287 0.949 . S
C258 C259 1.376 . S
C258 C263 1.386 . S
C258 C264 1.483 . S
C259 H240 0.949 . S
C259 C258 1.376 . S
C259 C260 1.397 . S
C260 H241 0.950 . S
C260 C259 1.397 . S
C260 C261 1.391 . S
C261 C260 1.391 . S
C261 C262 1.405 . S
C262 H242 0.950 . S
C262 C261 1.405 . S
C262 C263 1.367 . S
C263 H243 0.950 . S
C263 C258 1.386 . S
C263 C262 1.367 . S
C264 C258 1.483 . S
C264 C265 1.382 . S
C264 C266 1.403 . S
C265 H244 0.950 . S
C265 C264 1.382 . S
C265 C281 1.411 . S
C266 C264 1.403 . S
C266 C267 1.489 . S
C266 C280 1.411 . S
C267 C266 1.489 . S
C267 C268 1.383 . S
C267 C272 1.382 . S
C268 H245 0.950 . S
C268 C267 1.383 . S
C268 C269 1.395 . S
C269 H246 0.950 . S
C269 C268 1.395 . S
C269 C270 1.288 . S
C270 C269 1.288 . S
C270 C271 1.392 . S
C271 H247 0.951 . S
C271 C270 1.392 . S
C271 C272 1.392 . S
C272 H248 0.949 . S
C272 C267 1.382 . S
C272 C271 1.392 . S
C273 C274 1.376 . S
C273 C278 1.386 . S
C273 C279 1.483 . S
C274 H249 0.949 . S
C274 C273 1.376 . S
C274 C275 1.397 . S
C275 H250 0.950 . S
C275 C274 1.397 . S
C275 C276 1.391 . S
C276 C275 1.391 . S
C276 C277 1.405 . S
C277 H251 0.950 . S
C277 C276 1.405 . S
C277 C278 1.367 . S
C278 H252 0.950 . S
C278 C273 1.386 . S
C278 C277 1.367 . S
C279 C273 1.483 . S
C279 C280 1.382 . S
C279 C281 1.403 . S
C280 H253 0.950 . S
C280 C266 1.411 . S
C280 C279 1.382 . S
C281 C265 1.411 . S
C281 C279 1.403 . S
C281 C282 1.489 . S
C282 C281 1.489 . S
C282 C283 1.383 . S
C282 C287 1.382 . S
C283 H254 0.950 . S
C283 C282 1.383 . S
C283 C284 1.395 . S
C284 H255 0.950 . S
C284 C283 1.395 . S
C284 C285 1.288 . S
C285 C284 1.288 . S
C285 C286 1.392 . S
C286 H256 0.951 . S
C286 C285 1.392 . S
C286 C287 1.392 . S
C287 H257 0.949 . S
C287 C282 1.382 . S
C287 C286 1.392 . S
Zn288 O291 2.031 . S
Zn288 O293 2.049 . S
Zn288 O298 2.067 . S
Zn289 O290 1.962 . S
Zn289 O292 1.986 . S
Zn289 O294 1.996 . S
Zn289 O297 1.943 . S
O290 Zn289 1.962 . S
O290 C295 1.254 . S
O291 Zn288 2.031 . S
O291 C295 1.269 . S
O292 Zn289 1.986 . S
O292 C299 1.262 . S
O293 Zn288 2.049 . S
O293 C301 1.260 . S
O294 Zn289 1.996 . S
O294 C301 1.257 . S
C295 O290 1.254 . S
C295 O291 1.269 . S
C296 O297 1.249 . S
C296 O298 1.270 . S
O297 Zn289 1.943 . S
O297 C296 1.249 . S
O298 Zn288 2.067 . S
O298 C296 1.270 . S
C299 O292 1.262 . S
C299 O300 1.232 . S
O300 C299 1.232 . S
C301 O293 1.260 . S
C301 O294 1.257 . S
Zn302 O305 2.031 . S
Zn302 O307 2.049 . S
Zn302 O312 2.067 . S
Zn303 O304 1.962 . S
Zn303 O306 1.986 . S
Zn303 O308 1.996 . S
Zn303 O311 1.943 . S
O304 Zn303 1.962 . S
O304 C309 1.254 . S
O305 Zn302 2.031 . S
O305 C309 1.269 . S
O306 Zn303 1.986 . S
O306 C313 1.262 . S
O307 Zn302 2.049 . S
O307 C315 1.260 . S
O308 Zn303 1.996 . S
O308 C315 1.257 . S
C309 O304 1.254 . S
C309 O305 1.269 . S
C310 O311 1.249 . S
C310 O312 1.270 . S
O311 Zn303 1.943 . S
O311 C310 1.249 . S
O312 Zn302 2.067 . S
O312 C310 1.270 . S
C313 O306 1.262 . S
C313 O314 1.232 . S
O314 C313 1.232 . S
C315 O307 1.260 . S
C315 O308 1.257 . S
Zn316 O319 2.031 . S
Zn316 O321 2.049 . S
Zn316 O326 2.067 . S
Zn317 O318 1.962 . S
Zn317 O320 1.986 . S
Zn317 O322 1.996 . S
Zn317 O325 1.943 . S
O318 Zn317 1.962 . S
O318 C323 1.254 . S
O319 Zn316 2.031 . S
O319 C323 1.269 . S
O320 Zn317 1.986 . S
O320 C327 1.262 . S
O321 Zn316 2.049 . S
O321 C329 1.260 . S
O322 Zn317 1.996 . S
O322 C329 1.257 . S
C323 O318 1.254 . S
C323 O319 1.269 . S
C324 O325 1.249 . S
C324 O326 1.270 . S
O325 Zn317 1.943 . S
O325 C324 1.249 . S
O326 Zn316 2.067 . S
O326 C324 1.270 . S
C327 O320 1.262 . S
C327 O328 1.232 . S
O328 C327 1.232 . S
C329 O321 1.260 . S
C329 O322 1.257 . S
Zn330 O333 2.031 . S
Zn330 O335 2.049 . S
Zn330 O340 2.067 . S
Zn331 O332 1.962 . S
Zn331 O334 1.986 . S
Zn331 O336 1.996 . S
Zn331 O339 1.943 . S
O332 Zn331 1.962 . S
O332 C337 1.254 . S
O333 Zn330 2.031 . S
O333 C337 1.269 . S
O334 Zn331 1.986 . S
O334 C341 1.262 . S
O335 Zn330 2.049 . S
O335 C343 1.260 . S
O336 Zn331 1.996 . S
O336 C343 1.257 . S
C337 O332 1.254 . S
C337 O333 1.269 . S
C338 O339 1.249 . S
C338 O340 1.270 . S
O339 Zn331 1.943 . S
O339 C338 1.249 . S
O340 Zn330 2.067 . S
O340 C338 1.270 . S
C341 O334 1.262 . S
C341 O342 1.232 . S
O342 C341 1.232 . S
C343 O335 1.260 . S
C343 O336 1.257 . S
Zn344 O347 2.031 . S
Zn344 O349 2.049 . S
Zn344 O354 2.067 . S
Zn345 O346 1.962 . S
Zn345 O348 1.986 . S
Zn345 O350 1.996 . S
Zn345 O353 1.943 . S
O346 Zn345 1.962 . S
O346 C351 1.254 . S
O347 Zn344 2.031 . S
O347 C351 1.269 . S
O348 Zn345 1.986 . S
O348 C355 1.262 . S
O349 Zn344 2.049 . S
O349 C357 1.260 . S
O350 Zn345 1.996 . S
O350 C357 1.257 . S
C351 O346 1.254 . S
C351 O347 1.269 . S
C352 O353 1.249 . S
C352 O354 1.270 . S
O353 Zn345 1.943 . S
O353 C352 1.249 . S
O354 Zn344 2.067 . S
O354 C352 1.270 . S
C355 O348 1.262 . S
C355 O356 1.232 . S
O356 C355 1.232 . S
C357 O349 1.260 . S
C357 O350 1.257 . S
Zn358 O361 2.031 . S
Zn358 O363 2.049 . S
Zn358 O368 2.067 . S
Zn359 O360 1.962 . S
Zn359 O362 1.986 . S
Zn359 O364 1.996 . S
Zn359 O367 1.943 . S
O360 Zn359 1.962 . S
O360 C365 1.254 . S
O361 Zn358 2.031 . S
O361 C365 1.269 . S
O362 Zn359 1.986 . S
O362 C369 1.262 . S
O363 Zn358 2.049 . S
O363 C371 1.260 . S
O364 Zn359 1.996 . S
O364 C371 1.257 . S
C365 O360 1.254 . S
C365 O361 1.269 . S
C366 O367 1.249 . S
C366 O368 1.270 . S
O367 Zn359 1.943 . S
O367 C366 1.249 . S
O368 Zn358 2.067 . S
O368 C366 1.270 . S
C369 O362 1.262 . S
C369 O370 1.232 . S
O370 C369 1.232 . S
C371 O363 1.260 . S
C371 O364 1.257 . S
H372 C378 0.930 . S
H373 C382 0.930 . S
H374 C387 0.929 . S
H375 C385 0.929 . S
H376 C380 0.929 . S
H377 C386 0.929 . S
C378 H372 0.930 . S
C378 C379 1.367 . S
C378 C386 1.378 . S
C379 C378 1.367 . S
C379 C387 1.433 . S
C380 H376 0.929 . S
C380 C382 1.378 . S
C380 C384 1.350 . S
C381 C384 1.463 . S
C381 C386 1.350 . S
C381 N389 1.427 . S
C382 H373 0.930 . S
C382 C380 1.378 . S
C382 C383 1.367 . S
C383 C382 1.367 . S
C383 C385 1.433 . S
C384 C380 1.350 . S
C384 C381 1.463 . S
C384 N388 1.427 . S
C385 H375 0.929 . S
C385 C383 1.433 . S
C385 N388 1.384 . S
C386 H377 0.929 . S
C386 C378 1.378 . S
C386 C381 1.350 . S
C387 H374 0.929 . S
C387 C379 1.433 . S
C387 N389 1.384 . S
N388 C384 1.427 . S
N388 C385 1.384 . S
N389 C381 1.427 . S
N389 C387 1.384 . S
H390 C396 0.930 . S
H391 C400 0.930 . S
H392 C405 0.929 . S
H393 C403 0.929 . S
H394 C398 0.929 . S
H395 C404 0.929 . S
C396 H390 0.930 . S
C396 C397 1.367 . S
C396 C404 1.378 . S
C397 C396 1.367 . S
C397 C405 1.433 . S
C398 H394 0.929 . S
C398 C400 1.378 . S
C398 C402 1.350 . S
C399 C402 1.463 . S
C399 C404 1.350 . S
C399 N407 1.427 . S
C400 H391 0.930 . S
C400 C398 1.378 . S
C400 C401 1.367 . S
C401 C400 1.367 . S
C401 C403 1.433 . S
C402 C398 1.350 . S
C402 C399 1.463 . S
C402 N406 1.427 . S
C403 H393 0.929 . S
C403 C401 1.433 . S
C403 N406 1.384 . S
C404 H395 0.929 . S
C404 C396 1.378 . S
C404 C399 1.350 . S
C405 H392 0.929 . S
C405 C397 1.433 . S
C405 N407 1.384 . S
N406 C402 1.427 . S
N406 C403 1.384 . S
N407 C399 1.427 . S
N407 C405 1.384 . S
H408 C414 0.930 . S
H409 C418 0.930 . S
H410 C423 0.929 . S
H411 C421 0.929 . S
H412 C416 0.929 . S
H413 C422 0.929 . S
C414 H408 0.930 . S
C414 C415 1.367 . S
C414 C422 1.378 . S
C415 C414 1.367 . S
C415 C423 1.433 . S
C416 H412 0.929 . S
C416 C418 1.378 . S
C416 C420 1.350 . S
C417 C420 1.463 . S
C417 C422 1.350 . S
C417 N425 1.427 . S
C418 H409 0.930 . S
C418 C416 1.378 . S
C418 C419 1.367 . S
C419 C418 1.367 . S
C419 C421 1.433 . S
C420 C416 1.350 . S
C420 C417 1.463 . S
C420 N424 1.427 . S
C421 H411 0.929 . S
C421 C419 1.433 . S
C421 N424 1.384 . S
C422 H413 0.929 . S
C422 C414 1.378 . S
C422 C417 1.350 . S
C423 H410 0.929 . S
C423 C415 1.433 . S
C423 N425 1.384 . S
N424 C420 1.427 . S
N424 C421 1.384 . S
N425 C417 1.427 . S
N425 C423 1.384 . S
H426 C432 0.930 . S
H427 C436 0.930 . S
H428 C441 0.929 . S
H429 C439 0.929 . S
H430 C434 0.929 . S
H431 C440 0.929 . S
C432 H426 0.930 . S
C432 C433 1.367 . S
C432 C440 1.378 . S
C433 C432 1.367 . S
C433 C441 1.433 . S
C434 H430 0.929 . S
C434 C436 1.378 . S
C434 C438 1.350 . S
C435 C438 1.463 . S
C435 C440 1.350 . S
C435 N443 1.427 . S
C436 H427 0.930 . S
C436 C434 1.378 . S
C436 C437 1.367 . S
C437 C436 1.367 . S
C437 C439 1.433 . S
C438 C434 1.350 . S
C438 C435 1.463 . S
C438 N442 1.427 . S
C439 H429 0.929 . S
C439 C437 1.433 . S
C439 N442 1.384 . S
C440 H431 0.929 . S
C440 C432 1.378 . S
C440 C435 1.350 . S
C441 H428 0.929 . S
C441 C433 1.433 . S
C441 N443 1.384 . S
N442 C438 1.427 . S
N442 C439 1.384 . S
N443 C435 1.427 . S
N443 C441 1.384 . S
H444 C450 0.930 . S
H445 C454 0.930 . S
H446 C459 0.929 . S
H447 C457 0.929 . S
H448 C452 0.929 . S
H449 C458 0.929 . S
C450 H444 0.930 . S
C450 C451 1.367 . S
C450 C458 1.378 . S
C451 C450 1.367 . S
C451 C459 1.433 . S
C452 H448 0.929 . S
C452 C454 1.378 . S
C452 C456 1.350 . S
C453 C456 1.463 . S
C453 C458 1.350 . S
C453 N461 1.427 . S
C454 H445 0.930 . S
C454 C452 1.378 . S
C454 C455 1.367 . S
C455 C454 1.367 . S
C455 C457 1.433 . S
C456 C452 1.350 . S
C456 C453 1.463 . S
C456 N460 1.427 . S
C457 H447 0.929 . S
C457 C455 1.433 . S
C457 N460 1.384 . S
C458 H449 0.929 . S
C458 C450 1.378 . S
C458 C453 1.350 . S
C459 H446 0.929 . S
C459 C451 1.433 . S
C459 N461 1.384 . S
N460 C456 1.427 . S
N460 C457 1.384 . S
N461 C453 1.427 . S
N461 C459 1.384 . S
H462 C468 0.930 . S
H463 C472 0.930 . S
H464 C477 0.929 . S
H465 C475 0.929 . S
H466 C470 0.929 . S
H467 C476 0.929 . S
C468 H462 0.930 . S
C468 C469 1.367 . S
C468 C476 1.378 . S
C469 C468 1.367 . S
C469 C477 1.433 . S
C470 H466 0.929 . S
C470 C472 1.378 . S
C470 C474 1.350 . S
C471 C474 1.463 . S
C471 C476 1.350 . S
C471 N479 1.427 . S
C472 H463 0.930 . S
C472 C470 1.378 . S
C472 C473 1.367 . S
C473 C472 1.367 . S
C473 C475 1.433 . S
C474 C470 1.350 . S
C474 C471 1.463 . S
C474 N478 1.427 . S
C475 H465 0.929 . S
C475 C473 1.433 . S
C475 N478 1.384 . S
C476 H467 0.929 . S
C476 C468 1.378 . S
C476 C471 1.350 . S
C477 H464 0.929 . S
C477 C469 1.433 . S
C477 N479 1.384 . S
N478 C474 1.427 . S
N478 C475 1.384 . S
N479 C471 1.427 . S
N479 C477 1.384 . S
H480 C486 0.930 . S
H481 C490 0.930 . S
H482 C495 0.929 . S
H483 C493 0.929 . S
H484 C488 0.929 . S
H485 C494 0.929 . S
C486 H480 0.930 . S
C486 C487 1.367 . S
C486 C494 1.378 . S
C487 C486 1.367 . S
C487 C495 1.433 . S
C488 H484 0.929 . S
C488 C490 1.378 . S
C488 C492 1.350 . S
C489 C492 1.463 . S
C489 C494 1.350 . S
C489 N497 1.427 . S
C490 H481 0.930 . S
C490 C488 1.378 . S
C490 C491 1.367 . S
C491 C490 1.367 . S
C491 C493 1.433 . S
C492 C488 1.350 . S
C492 C489 1.463 . S
C492 N496 1.427 . S
C493 H483 0.929 . S
C493 C491 1.433 . S
C493 N496 1.384 . S
C494 H485 0.929 . S
C494 C486 1.378 . S
C494 C489 1.350 . S
C495 H482 0.929 . S
C495 C487 1.433 . S
C495 N497 1.384 . S
N496 C492 1.427 . S
N496 C493 1.384 . S
N497 C489 1.427 . S
N497 C495 1.384 . S
H498 C504 0.930 . S
H499 C508 0.930 . S
H500 C513 0.929 . S
H501 C511 0.929 . S
H502 C506 0.929 . S
H503 C512 0.929 . S
C504 H498 0.930 . S
C504 C505 1.367 . S
C504 C512 1.378 . S
C505 C504 1.367 . S
C505 C513 1.433 . S
C506 H502 0.929 . S
C506 C508 1.378 . S
C506 C510 1.350 . S
C507 C510 1.463 . S
C507 C512 1.350 . S
C507 N515 1.427 . S
C508 H499 0.930 . S
C508 C506 1.378 . S
C508 C509 1.367 . S
C509 C508 1.367 . S
C509 C511 1.433 . S
C510 C506 1.350 . S
C510 C507 1.463 . S
C510 N514 1.427 . S
C511 H501 0.929 . S
C511 C509 1.433 . S
C511 N514 1.384 . S
C512 H503 0.929 . S
C512 C504 1.378 . S
C512 C507 1.350 . S
C513 H500 0.929 . S
C513 C505 1.433 . S
C513 N515 1.384 . S
N514 C510 1.427 . S
N514 C511 1.384 . S
N515 C507 1.427 . S
N515 C513 1.384 . S
H516 C522 0.930 . S
H517 C526 0.930 . S
H518 C531 0.929 . S
H519 C529 0.929 . S
H520 C524 0.929 . S
H521 C530 0.929 . S
C522 H516 0.930 . S
C522 C523 1.367 . S
C522 C530 1.378 . S
C523 C522 1.367 . S
C523 C531 1.433 . S
C524 H520 0.929 . S
C524 C526 1.378 . S
C524 C528 1.350 . S
C525 C528 1.463 . S
C525 C530 1.350 . S
C525 N533 1.427 . S
C526 H517 0.930 . S
C526 C524 1.378 . S
C526 C527 1.367 . S
C527 C526 1.367 . S
C527 C529 1.433 . S
C528 C524 1.350 . S
C528 C525 1.463 . S
C528 N532 1.427 . S
C529 H519 0.929 . S
C529 C527 1.433 . S
C529 N532 1.384 . S
C530 H521 0.929 . S
C530 C522 1.378 . S
C530 C525 1.350 . S
C531 H518 0.929 . S
C531 C523 1.433 . S
C531 N533 1.384 . S
N532 C528 1.427 . S
N532 C529 1.384 . S
N533 C525 1.427 . S
N533 C531 1.384 . S
H534 C540 0.930 . S
H535 C544 0.930 . S
H536 C549 0.929 . S
H537 C547 0.929 . S
H538 C542 0.929 . S
H539 C548 0.929 . S
C540 H534 0.930 . S
C540 C541 1.367 . S
C540 C548 1.378 . S
C541 C540 1.367 . S
C541 C549 1.433 . S
C542 H538 0.929 . S
C542 C544 1.378 . S
C542 C546 1.350 . S
C543 C546 1.463 . S
C543 C548 1.350 . S
C543 N551 1.427 . S
C544 H535 0.930 . S
C544 C542 1.378 . S
C544 C545 1.367 . S
C545 C544 1.367 . S
C545 C547 1.433 . S
C546 C542 1.350 . S
C546 C543 1.463 . S
C546 N550 1.427 . S
C547 H537 0.929 . S
C547 C545 1.433 . S
C547 N550 1.384 . S
C548 H539 0.929 . S
C548 C540 1.378 . S
C548 C543 1.350 . S
C549 H536 0.929 . S
C549 C541 1.433 . S
C549 N551 1.384 . S
N550 C546 1.427 . S
N550 C547 1.384 . S
N551 C543 1.427 . S
N551 C549 1.384 . S
H552 C558 0.930 . S
H553 C562 0.930 . S
H554 C567 0.929 . S
H555 C565 0.929 . S
H556 C560 0.929 . S
H557 C566 0.929 . S
C558 H552 0.930 . S
C558 C559 1.367 . S
C558 C566 1.378 . S
C559 C558 1.367 . S
C559 C567 1.433 . S
C560 H556 0.929 . S
C560 C562 1.378 . S
C560 C564 1.350 . S
C561 C564 1.463 . S
C561 C566 1.350 . S
C561 N569 1.427 . S
C562 H553 0.930 . S
C562 C560 1.378 . S
C562 C563 1.367 . S
C563 C562 1.367 . S
C563 C565 1.433 . S
C564 C560 1.350 . S
C564 C561 1.463 . S
C564 N568 1.427 . S
C565 H555 0.929 . S
C565 C563 1.433 . S
C565 N568 1.384 . S
C566 H557 0.929 . S
C566 C558 1.378 . S
C566 C561 1.350 . S
C567 H554 0.929 . S
C567 C559 1.433 . S
C567 N569 1.384 . S
N568 C564 1.427 . S
N568 C565 1.384 . S
N569 C561 1.427 . S
N569 C567 1.384 . S
H570 C576 0.930 . S
H571 C580 0.930 . S
H572 C585 0.929 . S
H573 C583 0.929 . S
H574 C578 0.929 . S
H575 C584 0.929 . S
C576 H570 0.930 . S
C576 C577 1.367 . S
C576 C584 1.378 . S
C577 C576 1.367 . S
C577 C585 1.433 . S
C578 H574 0.929 . S
C578 C580 1.378 . S
C578 C582 1.350 . S
C579 C582 1.463 . S
C579 C584 1.350 . S
C579 N587 1.427 . S
C580 H571 0.930 . S
C580 C578 1.378 . S
C580 C581 1.367 . S
C581 C580 1.367 . S
C581 C583 1.433 . S
C582 C578 1.350 . S
C582 C579 1.463 . S
C582 N586 1.427 . S
C583 H573 0.929 . S
C583 C581 1.433 . S
C583 N586 1.384 . S
C584 H575 0.929 . S
C584 C576 1.378 . S
C584 C579 1.350 . S
C585 H572 0.929 . S
C585 C577 1.433 . S
C585 N587 1.384 . S
N586 C582 1.427 . S
N586 C583 1.384 . S
N587 C579 1.427 . S
N587 C585 1.384 . S
H588 C594 0.930 . S
H589 C598 0.930 . S
H590 C603 0.929 . S
H591 C601 0.929 . S
H592 C596 0.929 . S
H593 C602 0.929 . S
C594 H588 0.930 . S
C594 C595 1.367 . S
C594 C602 1.378 . S
C595 C594 1.367 . S
C595 C603 1.433 . S
C596 H592 0.929 . S
C596 C598 1.378 . S
C596 C600 1.350 . S
C597 C600 1.463 . S
C597 C602 1.350 . S
C597 N605 1.427 . S
C598 H589 0.930 . S
C598 C596 1.378 . S
C598 C599 1.367 . S
C599 C598 1.367 . S
C599 C601 1.433 . S
C600 C596 1.350 . S
C600 C597 1.463 . S
C600 N604 1.427 . S
C601 H591 0.929 . S
C601 C599 1.433 . S
C601 N604 1.384 . S
C602 H593 0.929 . S
C602 C594 1.378 . S
C602 C597 1.350 . S
C603 H590 0.929 . S
C603 C595 1.433 . S
C603 N605 1.384 . S
N604 C600 1.427 . S
N604 C601 1.384 . S
N605 C597 1.427 . S
N605 C603 1.384 . S
H606 C612 0.930 . S
H607 C616 0.930 . S
H608 C621 0.929 . S
H609 C619 0.929 . S
H610 C614 0.929 . S
H611 C620 0.929 . S
C612 H606 0.930 . S
C612 C613 1.367 . S
C612 C620 1.378 . S
C613 C612 1.367 . S
C613 C621 1.433 . S
C614 H610 0.929 . S
C614 C616 1.378 . S
C614 C618 1.350 . S
C615 C618 1.463 . S
C615 C620 1.350 . S
C615 N623 1.427 . S
C616 H607 0.930 . S
C616 C614 1.378 . S
C616 C617 1.367 . S
C617 C616 1.367 . S
C617 C619 1.433 . S
C618 C614 1.350 . S
C618 C615 1.463 . S
C618 N622 1.427 . S
C619 H609 0.929 . S
C619 C617 1.433 . S
C619 N622 1.384 . S
C620 H611 0.929 . S
C620 C612 1.378 . S
C620 C615 1.350 . S
C621 H608 0.929 . S
C621 C613 1.433 . S
C621 N623 1.384 . S
N622 C618 1.427 . S
N622 C619 1.384 . S
N623 C615 1.427 . S
N623 C621 1.384 . S
H624 C630 0.930 . S
H625 C634 0.930 . S
H626 C639 0.929 . S
H627 C637 0.929 . S
H628 C632 0.929 . S
H629 C638 0.929 . S
C630 H624 0.930 . S
C630 C631 1.367 . S
C630 C638 1.378 . S
C631 C630 1.367 . S
C631 C639 1.433 . S
C632 H628 0.929 . S
C632 C634 1.378 . S
C632 C636 1.350 . S
C633 C636 1.463 . S
C633 C638 1.350 . S
C633 N641 1.427 . S
C634 H625 0.930 . S
C634 C632 1.378 . S
C634 C635 1.367 . S
C635 C634 1.367 . S
C635 C637 1.433 . S
C636 C632 1.350 . S
C636 C633 1.463 . S
C636 N640 1.427 . S
C637 H627 0.929 . S
C637 C635 1.433 . S
C637 N640 1.384 . S
C638 H629 0.929 . S
C638 C630 1.378 . S
C638 C633 1.350 . S
C639 H626 0.929 . S
C639 C631 1.433 . S
C639 N641 1.384 . S
N640 C636 1.427 . S
N640 C637 1.384 . S
N641 C633 1.427 . S
N641 C639 1.384 . S
H642 C648 0.930 . S
H643 C652 0.930 . S
H644 C657 0.929 . S
H645 C655 0.929 . S
H646 C650 0.930 . S
H647 C656 0.929 . S
C648 H642 0.930 . S
C648 C649 1.367 . S
C648 C656 1.378 . S
C649 C648 1.367 . S
C649 C657 1.433 . S
C650 H646 0.930 . S
C650 C652 1.378 1_556 S
C650 C654 1.350 . S
C651 C654 1.463 . S
C651 C656 1.350 . S
C651 N659 1.427 . S
C652 H643 0.930 . S
C652 C650 1.378 1_554 S
C652 C653 1.367 . S
C653 C652 1.367 . S
C653 C655 1.433 1_554 S
C654 C650 1.350 . S
C654 C651 1.463 . S
C654 N658 1.427 . S
C655 H645 0.929 . S
C655 C653 1.433 1_556 S
C655 N658 1.384 . S
C656 H647 0.929 . S
C656 C648 1.378 . S
C656 C651 1.350 . S
C657 H644 0.929 . S
C657 C649 1.433 . S
C657 N659 1.384 . S
N658 C654 1.427 . S
N658 C655 1.384 . S
N659 C651 1.427 . S
N659 C657 1.384 . S
H660 C666 0.930 . S
H661 C670 0.930 . S
H662 C675 0.929 . S
H663 C673 0.929 . S
H664 C668 0.929 . S
H665 C674 0.929 . S
C666 H660 0.930 . S
C666 C667 1.367 . S
C666 C674 1.378 . S
C667 C666 1.367 . S
C667 C675 1.433 . S
C668 H664 0.929 . S
C668 C670 1.378 . S
C668 C672 1.350 . S
C669 C672 1.463 . S
C669 C674 1.350 . S
C669 N677 1.427 . S
C670 H661 0.930 . S
C670 C668 1.378 . S
C670 C671 1.367 . S
C671 C670 1.367 . S
C671 C673 1.433 . S
C672 C668 1.350 . S
C672 C669 1.463 . S
C672 N676 1.427 . S
C673 H663 0.929 . S
C673 C671 1.433 . S
C673 N676 1.384 . S
C674 H665 0.929 . S
C674 C666 1.378 . S
C674 C669 1.350 . S
C675 H662 0.929 . S
C675 C667 1.433 . S
C675 N677 1.384 . S
N676 C672 1.427 . S
N676 C673 1.384 . S
N677 C669 1.427 . S
N677 C675 1.384 . S
H678 C684 0.930 . S
H679 C688 0.930 . S
H680 C693 0.929 . S
H681 C691 0.929 . S
H682 C686 0.929 . S
H683 C692 0.929 . S
C684 H678 0.930 . S
C684 C685 1.367 . S
C684 C692 1.378 . S
C685 C684 1.367 . S
C685 C693 1.433 . S
C686 H682 0.929 . S
C686 C688 1.378 . S
C686 C690 1.350 . S
C687 C690 1.463 . S
C687 C692 1.350 . S
C687 N695 1.427 . S
C688 H679 0.930 . S
C688 C686 1.378 . S
C688 C689 1.367 . S
C689 C688 1.367 . S
C689 C691 1.433 . S
C690 C686 1.350 . S
C690 C687 1.463 . S
C690 N694 1.427 . S
C691 H681 0.929 . S
C691 C689 1.433 . S
C691 N694 1.384 . S
C692 H683 0.929 . S
C692 C684 1.378 . S
C692 C687 1.350 . S
C693 H680 0.929 . S
C693 C685 1.433 . S
C693 N695 1.384 . S
N694 C690 1.427 . S
N694 C691 1.384 . S
N695 C687 1.427 . S
N695 C693 1.384 . S
H696 C702 0.930 . S
H697 C706 0.930 . S
H698 C711 0.929 . S
H699 C709 0.929 . S
H700 C704 0.929 . S
H701 C710 0.929 . S
C702 H696 0.930 . S
C702 C703 1.367 . S
C702 C710 1.378 . S
C703 C702 1.367 . S
C703 C711 1.433 . S
C704 H700 0.929 . S
C704 C706 1.378 . S
C704 C708 1.350 . S
C705 C708 1.463 . S
C705 C710 1.350 . S
C705 N713 1.427 . S
C706 H697 0.930 . S
C706 C704 1.378 . S
C706 C707 1.367 . S
C707 C706 1.367 . S
C707 C709 1.433 . S
C708 C704 1.350 . S
C708 C705 1.463 . S
C708 N712 1.427 . S
C709 H699 0.929 . S
C709 C707 1.433 . S
C709 N712 1.384 . S
C710 H701 0.929 . S
C710 C702 1.378 . S
C710 C705 1.350 . S
C711 H698 0.929 . S
C711 C703 1.433 . S
C711 N713 1.384 . S
N712 C708 1.427 . S
N712 C709 1.384 . S
N713 C705 1.427 . S
N713 C711 1.384 . S
H714 C720 0.930 . S
H715 C724 0.930 . S
H716 C729 0.929 . S
H717 C727 0.929 . S
H718 C722 0.929 . S
H719 C728 0.929 . S
C720 H714 0.930 . S
C720 C721 1.367 . S
C720 C728 1.378 . S
C721 C720 1.367 . S
C721 C729 1.433 . S
C722 H718 0.929 . S
C722 C724 1.378 . S
C722 C726 1.350 . S
C723 C726 1.463 . S
C723 C728 1.350 . S
C723 N731 1.427 . S
C724 H715 0.930 . S
C724 C722 1.378 . S
C724 C725 1.367 . S
C725 C724 1.367 . S
C725 C727 1.433 . S
C726 C722 1.350 . S
C726 C723 1.463 . S
C726 N730 1.427 . S
C727 H717 0.929 . S
C727 C725 1.433 . S
C727 N730 1.384 . S
C728 H719 0.929 . S
C728 C720 1.378 . S
C728 C723 1.350 . S
C729 H716 0.929 . S
C729 C721 1.433 . S
C729 N731 1.384 . S
N730 C726 1.427 . S
N730 C727 1.384 . S
N731 C723 1.427 . S
N731 C729 1.384 . S
H732 C738 0.930 . S
H733 C742 0.930 . S
H734 C747 0.929 . S
H735 C745 0.929 . S
H736 C740 0.929 . S
H737 C746 0.929 . S
C738 H732 0.930 . S
C738 C739 1.367 . S
C738 C746 1.378 . S
C739 C738 1.367 . S
C739 C747 1.433 . S
C740 H736 0.929 . S
C740 C742 1.378 . S
C740 C744 1.350 . S
C741 C744 1.463 . S
C741 C746 1.350 . S
C741 N749 1.427 . S
C742 H733 0.930 . S
C742 C740 1.378 . S
C742 C743 1.367 . S
C743 C742 1.367 . S
C743 C745 1.433 . S
C744 C740 1.350 . S
C744 C741 1.463 . S
C744 N748 1.427 . S
C745 H735 0.929 . S
C745 C743 1.433 . S
C745 N748 1.384 . S
C746 H737 0.929 . S
C746 C738 1.378 . S
C746 C741 1.350 . S
C747 H734 0.929 . S
C747 C739 1.433 . S
C747 N749 1.384 . S
N748 C744 1.427 . S
N748 C745 1.384 . S
N749 C741 1.427 . S
N749 C747 1.384 . S
H750 C756 0.930 . S
H751 C760 0.930 . S
H752 C765 0.929 . S
H753 C763 0.929 . S
H754 C758 0.929 . S
H755 C764 0.929 . S
C756 H750 0.930 . S
C756 C757 1.367 . S
C756 C764 1.378 . S
C757 C756 1.367 . S
C757 C765 1.433 . S
C758 H754 0.929 . S
C758 C760 1.378 . S
C758 C762 1.350 . S
C759 C762 1.463 . S
C759 C764 1.350 . S
C759 N767 1.427 . S
C760 H751 0.930 . S
C760 C758 1.378 . S
C760 C761 1.367 . S
C761 C760 1.367 . S
C761 C763 1.433 . S
C762 C758 1.350 . S
C762 C759 1.463 . S
C762 N766 1.427 . S
C763 H753 0.929 . S
C763 C761 1.433 . S
C763 N766 1.384 . S
C764 H755 0.929 . S
C764 C756 1.378 . S
C764 C759 1.350 . S
C765 H752 0.929 . S
C765 C757 1.433 . S
C765 N767 1.384 . S
N766 C762 1.427 . S
N766 C763 1.384 . S
N767 C759 1.427 . S
N767 C765 1.384 . S
H768 C774 0.930 . S
H769 C778 0.930 . S
H770 C783 0.929 . S
H771 C781 0.929 . S
H772 C776 0.928 1_554 S
H773 C782 0.929 . S
C774 H768 0.930 . S
C774 C775 1.367 . S
C774 C782 1.378 . S
C775 C774 1.367 . S
C775 C783 1.433 . S
C776 H772 0.928 1_556 S
C776 C778 1.379 . S
C776 C780 1.350 1_556 S
C777 C780 1.463 . S
C777 C782 1.350 . S
C777 N785 1.427 . S
C778 H769 0.930 . S
C778 C776 1.379 . S
C778 C779 1.367 . S
C779 C778 1.367 . S
C779 C781 1.433 . S
C780 C776 1.350 1_554 S
C780 C777 1.463 . S
C780 N784 1.427 1_554 S
C781 H771 0.929 . S
C781 C779 1.433 . S
C781 N784 1.384 . S
C782 H773 0.929 . S
C782 C774 1.378 . S
C782 C777 1.350 . S
C783 H770 0.929 . S
C783 C775 1.433 . S
C783 N785 1.384 . S
N784 C780 1.427 1_556 S
N784 C781 1.384 . S
N785 C777 1.427 . S
N785 C783 1.384 . S
H786 C792 0.930 . S
H787 C796 0.930 . S
H788 C801 0.929 . S
H789 C799 0.929 . S
H790 C794 0.929 . S
H791 C800 0.929 . S
C792 H786 0.930 . S
C792 C793 1.367 . S
C792 C800 1.378 . S
C793 C792 1.367 . S
C793 C801 1.433 . S
C794 H790 0.929 . S
C794 C796 1.378 . S
C794 C798 1.350 . S
C795 C798 1.463 . S
C795 C800 1.350 . S
C795 N803 1.427 . S
C796 H787 0.930 . S
C796 C794 1.378 . S
C796 C797 1.367 . S
C797 C796 1.367 . S
C797 C799 1.433 . S
C798 C794 1.350 . S
C798 C795 1.463 . S
C798 N802 1.427 . S
C799 H789 0.929 . S
C799 C797 1.433 . S
C799 N802 1.384 . S
C800 H791 0.929 . S
C800 C792 1.378 . S
C800 C795 1.350 . S
C801 H788 0.929 . S
C801 C793 1.433 . S
C801 N803 1.384 . S
N802 C798 1.427 . S
N802 C799 1.384 . S
N803 C795 1.427 . S
N803 C801 1.384 . S
C383 C365 1.571 . S
C379 C45 1.568 . S
C397 C84 1.479 . S
C401 C299 1.463 . S
C415 C126 1.384 . S
C419 C313 1.399 . S
C433 C189 1.493 . S
C437 C327 1.463 . S
C455 C341 1.518 . S
C451 C228 1.535 . S
C469 C270 1.490 . S
C473 C351 1.540 . S
C487 C69 1.559 . S
C491 C309 1.584 . S
C505 C141 1.659 . S
C509 C323 1.662 . S
C523 C174 1.544 . S
C527 C337 1.597 . S
C545 C355 1.494 . S
C541 C213 1.494 . S
C563 C369 1.509 . S
C559 C285 1.537 . S
C581 C295 1.551 . S
C577 C30 1.523 . S
C595 C36 1.507 . S
C599 C310 1.447 . S
C613 C93 1.581 . S
C617 C324 1.516 . S
C635 C338 1.532 . S
C631 C117 1.583 . S
C649 C180 1.478 . S
C653 C357 1.418 . S
C671 C371 1.392 . S
C667 C237 1.455 . S
C689 C296 1.426 . S
C685 C261 1.477 . S
C707 C366 1.423 . S
C703 C78 1.467 . S
C721 C132 1.378 . S
C725 C301 1.331 . S
C743 C315 1.336 . S
C739 C165 1.374 . S
C757 C222 1.449 . S
C761 C329 1.402 . S
C775 C276 1.483 . S
C779 C343 1.414 . S
C793 C21 1.509 . S
C797 C352 1.458 . S
