# Generated by pormake.
# Topology ctn, (3,4)-cn, num edge types: 1
# Building blocks:
#     Node 0, Type 0, BuildingBlock: BETDAH_clean_linker_0, # of connection points: 3
#     Node 1, Type 0, BuildingBlock: BETDAH_clean_linker_0, # of connection points: 3
#     Node 2, Type 0, BuildingBlock: BETDAH_clean_linker_0, # of connection points: 3
#     Node 3, Type 0, BuildingBlock: BETDAH_clean_linker_0, # of connection points: 3
#     Node 4, Type 0, BuildingBlock: BETDAH_clean_linker_0, # of connection points: 3
#     Node 5, Type 0, BuildingBlock: BETDAH_clean_linker_0, # of connection points: 3
#     Node 6, Type 0, BuildingBlock: BETDAH_clean_linker_0, # of connection points: 3
#     Node 7, Type 0, BuildingBlock: BETDAH_clean_linker_0, # of connection points: 3
#     Node 8, Type 0, BuildingBlock: BETDAH_clean_linker_0, # of connection points: 3
#     Node 9, Type 0, BuildingBlock: BETDAH_clean_linker_0, # of connection points: 3
#     Node 10, Type 0, BuildingBlock: BETDAH_clean_linker_0, # of connection points: 3
#     Node 11, Type 0, BuildingBlock: BETDAH_clean_linker_0, # of connection points: 3
#     Node 12, Type 0, BuildingBlock: BETDAH_clean_linker_0, # of connection points: 3
#     Node 13, Type 0, BuildingBlock: BETDAH_clean_linker_0, # of connection points: 3
#     Node 14, Type 0, BuildingBlock: BETDAH_clean_linker_0, # of connection points: 3
#     Node 15, Type 0, BuildingBlock: BETDAH_clean_linker_0, # of connection points: 3
#     Node 16, Type 1, BuildingBlock: KUFVIS_clean_sbu_0, # of connection points: 4
#     Node 17, Type 1, BuildingBlock: KUFVIS_clean_sbu_0, # of connection points: 4
#     Node 18, Type 1, BuildingBlock: KUFVIS_clean_sbu_0, # of connection points: 4
#     Node 19, Type 1, BuildingBlock: KUFVIS_clean_sbu_0, # of connection points: 4
#     Node 20, Type 1, BuildingBlock: KUFVIS_clean_sbu_0, # of connection points: 4
#     Node 21, Type 1, BuildingBlock: KUFVIS_clean_sbu_0, # of connection points: 4
#     Node 22, Type 1, BuildingBlock: KUFVIS_clean_sbu_0, # of connection points: 4
#     Node 23, Type 1, BuildingBlock: KUFVIS_clean_sbu_0, # of connection points: 4
#     Node 24, Type 1, BuildingBlock: KUFVIS_clean_sbu_0, # of connection points: 4
#     Node 25, Type 1, BuildingBlock: KUFVIS_clean_sbu_0, # of connection points: 4
#     Node 26, Type 1, BuildingBlock: KUFVIS_clean_sbu_0, # of connection points: 4
#     Node 27, Type 1, BuildingBlock: KUFVIS_clean_sbu_0, # of connection points: 4
#     Edge 28, Type (0, 1), BuildingBlock: ZUJKAS_clean_linker_0, # of connection points: 2
#     Edge 29, Type (0, 1), BuildingBlock: ZUJKAS_clean_linker_0, # of connection points: 2
#     Edge 30, Type (0, 1), BuildingBlock: ZUJKAS_clean_linker_0, # of connection points: 2
#     Edge 31, Type (0, 1), BuildingBlock: ZUJKAS_clean_linker_0, # of connection points: 2
#     Edge 32, Type (0, 1), BuildingBlock: ZUJKAS_clean_linker_0, # of connection points: 2
#     Edge 33, Type (0, 1), BuildingBlock: ZUJKAS_clean_linker_0, # of connection points: 2
#     Edge 34, Type (0, 1), BuildingBlock: ZUJKAS_clean_linker_0, # of connection points: 2
#     Edge 35, Type (0, 1), BuildingBlock: ZUJKAS_clean_linker_0, # of connection points: 2
#     Edge 36, Type (0, 1), BuildingBlock: ZUJKAS_clean_linker_0, # of connection points: 2
#     Edge 37, Type (0, 1), BuildingBlock: ZUJKAS_clean_linker_0, # of connection points: 2
#     Edge 38, Type (0, 1), BuildingBlock: ZUJKAS_clean_linker_0, # of connection points: 2
#     Edge 39, Type (0, 1), BuildingBlock: ZUJKAS_clean_linker_0, # of connection points: 2
#     Edge 40, Type (0, 1), BuildingBlock: ZUJKAS_clean_linker_0, # of connection points: 2
#     Edge 41, Type (0, 1), BuildingBlock: ZUJKAS_clean_linker_0, # of connection points: 2
#     Edge 42, Type (0, 1), BuildingBlock: ZUJKAS_clean_linker_0, # of connection points: 2
#     Edge 43, Type (0, 1), BuildingBlock: ZUJKAS_clean_linker_0, # of connection points: 2
#     Edge 44, Type (0, 1), BuildingBlock: ZUJKAS_clean_linker_0, # of connection points: 2
#     Edge 45, Type (0, 1), BuildingBlock: ZUJKAS_clean_linker_0, # of connection points: 2
#     Edge 46, Type (0, 1), BuildingBlock: ZUJKAS_clean_linker_0, # of connection points: 2
#     Edge 47, Type (0, 1), BuildingBlock: ZUJKAS_clean_linker_0, # of connection points: 2
#     Edge 48, Type (0, 1), BuildingBlock: ZUJKAS_clean_linker_0, # of connection points: 2
#     Edge 49, Type (0, 1), BuildingBlock: ZUJKAS_clean_linker_0, # of connection points: 2
#     Edge 50, Type (0, 1), BuildingBlock: ZUJKAS_clean_linker_0, # of connection points: 2
#     Edge 51, Type (0, 1), BuildingBlock: ZUJKAS_clean_linker_0, # of connection points: 2
#     Edge 52, Type (0, 1), BuildingBlock: ZUJKAS_clean_linker_0, # of connection points: 2
#     Edge 53, Type (0, 1), BuildingBlock: ZUJKAS_clean_linker_0, # of connection points: 2
#     Edge 54, Type (0, 1), BuildingBlock: ZUJKAS_clean_linker_0, # of connection points: 2
#     Edge 55, Type (0, 1), BuildingBlock: ZUJKAS_clean_linker_0, # of connection points: 2
#     Edge 56, Type (0, 1), BuildingBlock: ZUJKAS_clean_linker_0, # of connection points: 2
#     Edge 57, Type (0, 1), BuildingBlock: ZUJKAS_clean_linker_0, # of connection points: 2
#     Edge 58, Type (0, 1), BuildingBlock: ZUJKAS_clean_linker_0, # of connection points: 2
#     Edge 59, Type (0, 1), BuildingBlock: ZUJKAS_clean_linker_0, # of connection points: 2
#     Edge 60, Type (0, 1), BuildingBlock: ZUJKAS_clean_linker_0, # of connection points: 2
#     Edge 61, Type (0, 1), BuildingBlock: ZUJKAS_clean_linker_0, # of connection points: 2
#     Edge 62, Type (0, 1), BuildingBlock: ZUJKAS_clean_linker_0, # of connection points: 2
#     Edge 63, Type (0, 1), BuildingBlock: ZUJKAS_clean_linker_0, # of connection points: 2
#     Edge 64, Type (0, 1), BuildingBlock: ZUJKAS_clean_linker_0, # of connection points: 2
#     Edge 65, Type (0, 1), BuildingBlock: ZUJKAS_clean_linker_0, # of connection points: 2
#     Edge 66, Type (0, 1), BuildingBlock: ZUJKAS_clean_linker_0, # of connection points: 2
#     Edge 67, Type (0, 1), BuildingBlock: ZUJKAS_clean_linker_0, # of connection points: 2
#     Edge 68, Type (0, 1), BuildingBlock: ZUJKAS_clean_linker_0, # of connection points: 2
#     Edge 69, Type (0, 1), BuildingBlock: ZUJKAS_clean_linker_0, # of connection points: 2
#     Edge 70, Type (0, 1), BuildingBlock: ZUJKAS_clean_linker_0, # of connection points: 2
#     Edge 71, Type (0, 1), BuildingBlock: ZUJKAS_clean_linker_0, # of connection points: 2
#     Edge 72, Type (0, 1), BuildingBlock: ZUJKAS_clean_linker_0, # of connection points: 2
#     Edge 73, Type (0, 1), BuildingBlock: ZUJKAS_clean_linker_0, # of connection points: 2
#     Edge 74, Type (0, 1), BuildingBlock: ZUJKAS_clean_linker_0, # of connection points: 2
#     Edge 75, Type (0, 1), BuildingBlock: ZUJKAS_clean_linker_0, # of connection points: 2
# Relax obj value: 0.059
# Max RMSD: 0.160
# Mean RMSD: 0.108
data_MOF--net-ctn--node1-KUFVIS_clean_sbu_0--node2-BETDAH_clean_linker_0--edge1-ZUJKAS_clean_linker_0
_symmetry_space_group_name_H-M    P1
_symmetry_Int_Tables_number       1
_symmetry_cell_setting            triclinic
loop_
_symmetry_equiv_pos_as_xyz
'x, y, z'
_cell_length_a     69.488175
_cell_length_b     69.137984
_cell_length_c     70.532074
_cell_angle_alpha  99.187699
_cell_angle_beta   90.745364
_cell_angle_gamma 95.956131
loop_
_atom_site_label
_atom_site_type_symbol
_atom_site_fract_x
_atom_site_fract_y
_atom_site_fract_z
_atom_type_partial_charge
H0 H 0.07683 0.01821 0.09052 0.0
H1 H 0.08419 0.05559 0.04704 0.0
H2 H 0.04076 0.06486 0.08928 0.0
C3 C 0.07265 0.03036 0.08397 0.0
C4 C 0.05744 0.04068 0.09174 0.0
C5 C 0.08244 0.03554 0.06781 0.0
C6 C 0.0769 0.05151 0.05953 0.0
C7 C 0.06172 0.06197 0.06731 0.0
C8 C 0.05224 0.05649 0.0833 0.0
N9 N 0.05535 0.07815 0.05979 0.0
C10 C 0.06193 0.08554 0.04356 0.0
H11 H 0.34766 0.6817 0.21908 0.0
H12 H 0.37702 0.73543 0.20566 0.0
H13 H 0.3226 0.71146 0.17719 0.0
C14 C 0.3486 0.69358 0.21067 0.0
C15 C 0.33354 0.69456 0.19747 0.0
C16 C 0.36422 0.70837 0.21398 0.0
C17 C 0.36493 0.72399 0.20345 0.0
C18 C 0.35016 0.72522 0.19012 0.0
C19 C 0.33424 0.71056 0.18726 0.0
N20 N 0.35205 0.74161 0.18018 0.0
C21 C 0.33886 0.74603 0.16693 0.0
H22 H 0.02801 0.45997 0.05596 0.0
H23 H 1.0025 0.51441 0.05746 0.0
H24 H 0.99649 0.47079 0.00652 0.0
C25 C 0.01962 0.46936 0.04899 0.0
C26 C 0.01235 0.4628 0.03014 0.0
C27 C 0.01639 0.488 0.05895 0.0
C28 C 1.00476 0.49983 0.05017 0.0
C29 C 0.99748 0.49345 0.03124 0.0
C30 C 1.00153 0.47515 0.02135 0.0
N31 N 0.98842 0.50608 0.02079 0.0
C32 C 0.97287 0.51633 0.027 0.0
H33 H 0.74885 0.83032 0.18811 0.0
H34 H 0.68956 0.8084 0.1961 0.0
H35 H 0.71216 0.86626 0.22373 0.0
C36 C 0.73509 0.83202 0.1949 0.0
C37 C 0.73258 0.84982 0.20684 0.0
C38 C 0.71962 0.81702 0.19064 0.0
C39 C 0.70168 0.81972 0.19922 0.0
C40 C 0.69911 0.83746 0.21123 0.0
C41 C 0.71442 0.85251 0.21468 0.0
N42 N 0.68074 0.84119 0.2185 0.0
C43 C 0.67123 0.83024 0.23111 0.0
H44 H 0.07183 0.00908 0.47425 0.0
H45 H 0.07694 0.96873 0.51433 0.0
H46 H 0.02775 0.96093 0.4752 0.0
C47 C 0.0659 0.99654 0.48059 0.0
C48 C 0.04844 0.98595 0.47308 0.0
C49 C 0.07638 0.99044 0.4954 0.0
C50 C 0.06894 0.97361 0.50302 0.0
C51 C 0.05124 0.96306 0.49574 0.0
C52 C 0.04129 0.96923 0.48077 0.0
N53 N 0.04302 0.94583 0.50246 0.0
C54 C 0.04836 0.93915 0.51914 0.0
H55 H 0.25858 0.69441 0.85268 0.0
H56 H 0.20759 0.70804 0.82431 0.0
H57 H 0.23578 0.65771 0.8005 0.0
C58 C 0.24799 0.69113 0.84089 0.0
C59 C 0.24914 0.67453 0.82672 0.0
C60 C 0.23303 0.70331 0.84019 0.0
C61 C 0.219 0.69863 0.82511 0.0
C62 C 0.21999 0.68206 0.81086 0.0
C63 C 0.23499 0.67018 0.81181 0.0
N64 N 0.20638 0.67683 0.79521 0.0
C65 C 0.1915 0.68771 0.79127 0.0
H66 H 0.97204 0.55437 0.5157 0.0
H67 H 0.02357 0.55466 0.4823 0.0
H68 H 0.98473 0.50159 0.47914 0.0
C69 C 0.98115 0.54685 0.50521 0.0
C70 C 0.97609 0.52683 0.49795 0.0
C71 C 0.99828 0.55704 0.49977 0.0
C72 C 0.01033 0.54699 0.48654 0.0
C73 C 1.00532 0.52693 0.4791 0.0
C74 C 0.98843 0.51702 0.48504 0.0
N75 N 0.01708 0.51586 0.46613 0.0
C76 C 0.03042 0.52348 0.454 0.0
H77 H 0.86157 0.79111 0.83767 0.0
H78 H 0.83959 0.84187 0.82014 0.0
H79 H 0.81707 0.81932 0.86962 0.0
C80 C 0.85195 0.80259 0.83976 0.0
C81 C 0.83913 0.80331 0.85505 0.0
C82 C 0.85228 0.81644 0.82704 0.0
C83 C 0.83958 0.83124 0.82987 0.0
C84 C 0.82683 0.83217 0.84526 0.0
C85 C 0.82684 0.81833 0.85773 0.0
N86 N 0.81388 0.84686 0.84901 0.0
C87 C 0.80852 0.85903 0.83638 0.0
H88 H 0.35237 0.29329 0.32821 0.0
H89 H 0.33115 0.34447 0.31074 0.0
H90 H 0.30748 0.32141 0.35953 0.0
C91 C 0.34274 0.30477 0.33016 0.0
C92 C 0.32963 0.30537 0.34517 0.0
C93 C 0.34348 0.31879 0.3176 0.0
C94 C 0.3308 0.33362 0.32028 0.0
C95 C 0.31776 0.33447 0.33543 0.0
C96 C 0.31742 0.32047 0.34778 0.0
N97 N 0.30516 0.34946 0.3393 0.0
C98 C 0.2986 0.36058 0.32621 0.0
H99 H 0.52388 0.96508 0.55924 0.0
H100 H 0.51431 0.02617 0.57016 0.0
H101 H 0.48924 0.98912 0.51933 0.0
C102 C 0.5169 0.97724 0.55531 0.0
C103 C 0.506 0.97461 0.53793 0.0
C104 C 0.5199 0.99569 0.56714 0.0
C105 C 0.51195 0.01174 0.56134 0.0
C106 C 0.50062 0.00938 0.5444 0.0
C107 C 0.49757 0.99079 0.53269 0.0
N108 N 0.49403 0.02643 0.5388 0.0
C109 C 0.47574 0.02741 0.53097 0.0
H110 H 0.25244 0.33689 0.67741 0.0
H111 H 0.22788 0.28816 0.70379 0.0
H112 H 0.24833 0.34272 0.73886 0.0
C113 C 0.24808 0.33067 0.69003 0.0
C114 C 0.25171 0.34225 0.70829 0.0
C115 C 0.23979 0.31093 0.68801 0.0
C116 C 0.2336 0.30346 0.70463 0.0
C117 C 0.23592 0.31525 0.72275 0.0
C118 C 0.24518 0.33444 0.72458 0.0
N119 N 0.23194 0.30671 0.73939 0.0
C120 C 0.21437 0.30765 0.74845 0.0
H121 H 0.84799 0.184 0.72519 0.0
H122 H 0.87337 0.2417 0.718 0.0
H123 H 0.82003 0.21691 0.68797 0.0
C124 C 0.84801 0.19697 0.71833 0.0
C125 C 0.83256 0.19842 0.70574 0.0
C126 C 0.86274 0.21254 0.72308 0.0
C127 C 0.86205 0.22955 0.71466 0.0
C128 C 0.84698 0.23118 0.70183 0.0
C129 C 0.83205 0.21561 0.69745 0.0
N130 N 0.84716 0.24913 0.69444 0.0
C131 C 0.83661 0.25221 0.67852 0.0
H132 H 0.58192 0.53153 0.58953 0.0
H133 H 0.57779 0.54218 0.53113 0.0
H134 H 0.53331 0.558 0.57026 0.0
C135 C 0.57453 0.53738 0.57843 0.0
C136 C 0.55692 0.54539 0.58245 0.0
C137 C 0.58223 0.53602 0.55995 0.0
C138 C 0.57234 0.54338 0.54555 0.0
C139 C 0.55496 0.55166 0.54944 0.0
C140 C 0.54728 0.55255 0.56777 0.0
N141 N 0.54363 0.5561 0.5342 0.0
C142 C 0.546 0.57417 0.52781 0.0
H143 H 0.57802 0.50532 0.97192 0.0
H144 H 0.57314 0.47866 0.02311 0.0
H145 H 0.52245 0.48093 0.98821 0.0
C146 C 0.56928 0.49748 0.98147 0.0
C147 C 0.54923 0.49359 0.97791 0.0
C148 C 0.57804 0.49231 0.9978 0.0
C149 C 0.56653 0.4826 0.01046 0.0
C150 C 0.54642 0.47838 0.00684 0.0
C151 C 0.53795 0.48419 0.99081 0.0
N152 N 0.53399 0.46893 0.01919 0.0
C153 C 0.53955 0.45717 0.03211 0.0
H154 H 0.75562 0.19532 0.35067 0.0
H155 H 0.70991 0.2139 0.31835 0.0
H156 H 0.74239 0.16765 0.29218 0.0
C157 C 0.74701 0.19383 0.33749 0.0
C158 C 0.75086 0.17983 0.32163 0.0
C159 C 0.73233 0.20621 0.33638 0.0
C160 C 0.72122 0.20438 0.31924 0.0
C161 C 0.72471 0.19019 0.30338 0.0
C162 C 0.73951 0.17814 0.30469 0.0
N163 N 0.71391 0.18762 0.28575 0.0
C164 C 0.69854 0.19799 0.28206 0.0
H165 H 0.4715 0.05814 0.01166 0.0
H166 H 0.52618 0.05634 0.98373 0.0
H167 H 0.48735 1.00343 0.98097 0.0
C168 C 0.48161 0.04989 1.00303 0.0
C169 C 0.47687 0.0296 0.99663 0.0
C170 C 0.49944 0.05965 0.99872 0.0
C171 C 0.51243 0.049 0.98717 0.0
C172 C 0.5078 0.02873 0.98054 0.0
C173 C 0.49034 0.01917 0.98566 0.0
N174 N 0.52063 0.01716 0.96942 0.0
C175 C 0.53409 0.02405 0.95697 0.0
Mn176 Mn 0.26433 0.88843 0.01756 0.0
Mn177 Mn 0.26722 0.90919 0.97734 0.0
C178 C 0.25048 0.87144 0.98873 0.0
C179 C 0.27586 0.86939 0.03899 0.0
C180 C 0.23914 0.92019 0.0086 0.0
O181 O 0.28677 0.9101 0.02433 0.0
O182 O 0.28668 0.92323 0.99703 0.0
C183 C 0.30612 0.89884 0.96561 0.0
N184 N 0.28686 0.89841 0.96151 0.0
C185 C 0.29067 0.88285 0.92896 0.0
C186 C 0.31057 0.88319 0.9328 0.0
C187 C 0.3183 0.89111 0.95124 0.0
C188 C 0.27922 0.89056 0.94392 0.0
H189 H 0.31216 0.90509 0.97971 0.0
C190 C 0.29333 0.92265 0.01392 0.0
O191 O 0.26401 0.88242 0.04427 0.0
O192 O 0.28147 0.8678 0.02137 0.0
N193 N 0.2495 0.89708 0.95688 0.0
C194 C 0.22987 0.89673 0.95592 0.0
C195 C 0.21977 0.88863 0.93863 0.0
C196 C 0.22999 0.88137 0.92242 0.0
C197 C 0.25021 0.882 0.92375 0.0
C198 C 0.25945 0.88997 0.94142 0.0
H199 H 0.222 0.90259 0.96826 0.0
O200 O 0.2442 0.86735 0.00505 0.0
O201 O 0.26455 0.88557 0.98973 0.0
O202 O 0.24464 0.90892 0.0198 0.0
O203 O 0.24644 0.92117 0.99224 0.0
C204 C 0.26156 0.87499 0.90824 0.0
C205 C 0.28174 0.87518 0.91091 0.0
H206 H 0.32002 0.87736 0.92171 0.0
H207 H 0.33363 0.89139 0.95433 0.0
H208 H 0.20417 0.88818 0.93773 0.0
H209 H 0.22216 0.87526 0.90907 0.0
H210 H 0.25488 0.86913 0.89427 0.0
H211 H 0.29024 0.86934 0.89898 0.0
Mn212 Mn 0.16749 0.52598 0.25466 0.0
Mn213 Mn 0.15373 0.57207 0.26096 0.0
C214 C 0.18498 0.55043 0.24098 0.0
C215 C 0.18476 0.5019 0.26486 0.0
C216 C 0.13384 0.5384 0.23218 0.0
O217 O 0.1493 0.52586 0.27718 0.0
O218 O 0.14192 0.55711 0.28048 0.0
C219 C 0.17382 0.58698 0.29854 0.0
N220 N 0.17038 0.58882 0.27989 0.0
C221 C 0.19109 0.61938 0.28343 0.0
C222 C 0.19477 0.61789 0.30271 0.0
C223 C 0.18615 0.60158 0.31027 0.0
C224 C 0.1787 0.60437 0.27243 0.0
H225 H 0.16721 0.57448 0.30441 0.0
C226 C 0.1407 0.54012 0.28568 0.0
O227 O 0.1698 0.4972 0.25319 0.0
O228 O 0.18942 0.52055 0.27091 0.0
N229 N 0.16396 0.58867 0.24343 0.0
C230 C 0.15971 0.58737 0.22432 0.0
C231 C 0.16729 0.60248 0.21453 0.0
C232 C 0.17899 0.61882 0.2245 0.0
C233 C 0.18325 0.61978 0.24412 0.0
C234 C 0.17509 0.60442 0.25318 0.0
H235 H 0.15053 0.57496 0.21664 0.0
O236 O 0.18597 0.53195 0.23441 0.0
O237 O 0.174 0.55419 0.25567 0.0
O238 O 0.14443 0.5253 0.23579 0.0
O239 O 0.13602 0.55617 0.24094 0.0
C240 C 0.19544 0.63527 0.255 0.0
C241 C 0.19944 0.63501 0.27461 0.0
H242 H 0.20429 0.6291 0.3118 0.0
H243 H 0.18898 0.60028 0.32511 0.0
H244 H 0.16403 0.6016 0.19935 0.0
H245 H 0.18474 0.63051 0.21694 0.0
H246 H 0.20203 0.64731 0.24835 0.0
H247 H 0.20906 0.64686 0.28276 0.0
Mn248 Mn 0.78159 0.64082 0.01017 0.0
Mn249 Mn 0.74214 0.65334 0.98842 0.0
C250 C 0.75181 0.62173 0.01011 0.0
C251 C 0.80979 0.62494 0.01049 0.0
C252 C 0.75702 0.67325 0.02793 0.0
O253 O 0.79372 0.66008 0.99318 0.0
O254 O 0.76618 0.66696 0.98002 0.0
C255 C 0.74997 0.6349 0.94881 0.0
N256 N 0.73783 0.63721 0.96382 0.0
C257 C 0.71145 0.61811 0.94477 0.0
C258 C 0.72364 0.61552 0.92908 0.0
C259 C 0.74304 0.6238 0.93117 0.0
C260 C 0.71935 0.62879 0.96215 0.0
H261 H 0.76477 0.64161 0.95025 0.0
C262 C 0.78463 0.669 0.98193 0.0
O263 O 0.80708 0.64016 0.02311 0.0
O264 O 0.7963 0.61918 0.99726 0.0
N265 N 0.71743 0.64154 0.99459 0.0
C266 C 0.70771 0.64517 0.01122 0.0
C267 C 0.68808 0.63801 0.01158 0.0
C268 C 0.67852 0.62779 0.9947 0.0
C269 C 0.6888 0.62435 0.97771 0.0
C270 C 0.70843 0.63141 0.97835 0.0
H271 H 0.71482 0.65365 0.02405 0.0
O272 O 0.76529 0.62125 0.02287 0.0
O273 O 0.75618 0.63303 0.99736 0.0
O274 O 0.77161 0.66356 0.02839 0.0
O275 O 0.74501 0.67056 0.01368 0.0
C276 C 0.68031 0.61429 0.96013 0.0
C277 C 0.69171 0.61084 0.94378 0.0
H278 H 0.71824 0.60727 0.91535 0.0
H279 H 0.75253 0.6219 0.91912 0.0
H280 H 0.68024 0.64073 0.02473 0.0
H281 H 0.66329 0.62257 0.99495 0.0
H282 H 0.66508 0.60885 0.95912 0.0
H283 H 0.68509 0.60275 0.93047 0.0
Mn284 Mn 0.91219 0.02291 0.28116 0.0
Mn285 Mn 0.9216 0.97537 0.27398 0.0
C286 C 0.89104 0.99887 0.26276 0.0
C287 C 0.89788 0.04924 0.29824 0.0
C288 C 0.94215 0.00636 0.25321 0.0
O289 O 0.93229 0.0225 0.30251 0.0
O290 O 0.93637 0.99015 0.29702 0.0
C291 C 0.90362 0.96316 0.30863 0.0
N292 N 0.90492 0.9607 0.28916 0.0
C293 C 0.88025 0.93311 0.28512 0.0
C294 C 0.87873 0.93528 0.30513 0.0
C295 C 0.89044 0.95039 0.31693 0.0
C296 C 0.89371 0.94622 0.27767 0.0
H297 H 0.91255 0.97479 0.31775 0.0
C298 C 0.9399 0.00756 0.30667 0.0
O299 O 0.91233 0.05211 0.28716 0.0
O300 O 0.89253 0.03115 0.30023 0.0
N301 N 0.90801 0.95941 0.25225 0.0
C302 C 0.91053 0.95998 0.23321 0.0
C303 C 0.89959 0.94611 0.21946 0.0
C304 C 0.88626 0.93174 0.2254 0.0
C305 C 0.88399 0.93138 0.24507 0.0
C306 C 0.89543 0.94546 0.25812 0.0
H307 H 0.92076 0.97098 0.22855 0.0
O308 O 0.89129 0.01717 0.2606 0.0
O309 O 0.90325 0.99519 0.27546 0.0
O310 O 0.93308 0.02061 0.26088 0.0
O311 O 0.93916 0.989 0.25735 0.0
C312 C 0.87058 0.91782 0.25225 0.0
C313 C 0.86869 0.91871 0.27225 0.0
H314 H 0.8685 0.92553 0.31159 0.0
H315 H 0.88927 0.95221 0.33239 0.0
H316 H 0.9014 0.9465 0.2043 0.0
H317 H 0.87779 0.92112 0.21475 0.0
H318 H 0.86146 0.90682 0.2425 0.0
H319 H 0.85814 0.90838 0.27759 0.0
Mn320 Mn 0.28074 0.13699 0.49738 0.0
Mn321 Mn 0.23914 0.14859 0.47876 0.0
C322 C 0.25182 0.11754 0.49993 0.0
C323 C 0.30936 0.12172 0.49485 0.0
C324 C 0.25768 0.16985 0.51649 0.0
O325 O 0.29035 0.15658 0.47961 0.0
O326 O 0.26172 0.16103 0.46664 0.0
C327 C 0.24166 0.12745 0.43909 0.0
N328 N 0.23182 0.13071 0.45567 0.0
C329 C 0.2039 0.10969 0.44145 0.0
C330 C 0.21371 0.10608 0.4242 0.0
C331 C 0.23274 0.11486 0.42307 0.0
C332 C 0.21376 0.12184 0.4571 0.0
H333 H 0.25613 0.13452 0.43806 0.0
C334 C 0.28022 0.16397 0.46788 0.0
O335 O 0.30738 0.13682 0.50789 0.0
O336 O 0.29487 0.11579 0.48276 0.0
N337 N 0.21577 0.13771 0.48886 0.0
C338 C 0.20807 0.14324 0.50632 0.0
C339 C 0.18918 0.13559 0.50988 0.0
C340 C 0.17812 0.12298 0.49523 0.0
C341 C 0.18608 0.11811 0.47715 0.0
C342 C 0.20518 0.1257 0.47462 0.0
H343 H 0.21627 0.15338 0.51748 0.0
O344 O 0.26655 0.11704 0.51125 0.0
O345 O 0.25456 0.12893 0.48699 0.0
O346 O 0.2716 0.15925 0.51668 0.0
O347 O 0.24515 0.16766 0.5027 0.0
C348 C 0.17562 0.10648 0.46138 0.0
C349 C 0.1846 0.10205 0.44361 0.0
H350 H 0.20675 0.09669 0.41171 0.0
H351 H 0.2404 0.11218 0.40981 0.0
H352 H 0.18305 0.13966 0.5238 0.0
H353 H 0.16345 0.11736 0.49793 0.0
H354 H 0.16075 0.10058 0.46285 0.0
H355 H 0.17651 0.0928 0.43169 0.0
Mn356 Mn 0.42029 0.52641 0.78008 0.0
Mn357 Mn 0.4394 0.48299 0.77381 0.0
C358 C 0.40348 0.4986 0.76202 0.0
C359 C 0.40156 0.54971 0.79615 0.0
C360 C 0.45215 0.51572 0.75156 0.0
O361 O 0.44067 0.53072 0.80193 0.0
O362 O 0.4527 0.5014 0.79562 0.0
C363 C 0.42715 0.46988 0.81021 0.0
N364 N 0.42757 0.46653 0.79066 0.0
C365 C 0.41206 0.43355 0.78922 0.0
C366 C 0.41148 0.43662 0.80934 0.0
C367 C 0.41894 0.45491 0.81986 0.0
C368 C 0.4201 0.44913 0.78039 0.0
H369 H 0.43312 0.48381 0.81837 0.0
C370 C 0.45237 0.51858 0.80551 0.0
O371 O 0.41529 0.55454 0.78497 0.0
O372 O 0.39922 0.53142 0.79869 0.0
N373 N 0.42797 0.46345 0.75342 0.0
C374 C 0.42878 0.46325 0.7341 0.0
C375 C 0.4216 0.44614 0.72148 0.0
C376 C 0.41406 0.4293 0.72886 0.0
C377 C 0.4134 0.42987 0.74881 0.0
C378 C 0.42049 0.44743 0.76066 0.0
H379 H 0.43498 0.47601 0.72837 0.0
O380 O 0.40027 0.51614 0.75934 0.0
O381 O 0.4166 0.49775 0.77511 0.0
O382 O 0.44128 0.52799 0.75996 0.0
O383 O 0.45242 0.4984 0.75553 0.0
C384 C 0.40603 0.4137 0.75741 0.0
C385 C 0.40508 0.41562 0.77758 0.0
H386 H 0.40534 0.42504 0.81684 0.0
H387 H 0.41855 0.4574 0.83539 0.0
H388 H 0.42212 0.44582 0.70611 0.0
H389 H 0.40875 0.41605 0.71908 0.0
H390 H 0.40076 0.3998 0.74863 0.0
H391 H 0.39901 0.40321 0.784 0.0
Mn392 Mn 0.76353 0.38552 0.52054 0.0
Mn393 Mn 0.76202 0.40155 0.47782 0.0
C394 C 0.74735 0.36584 0.49414 0.0
C395 C 0.77774 0.36884 0.54252 0.0
C396 C 0.73815 0.41683 0.5116 0.0
O397 O 0.786 0.40755 0.52328 0.0
O398 O 0.78455 0.41575 0.4936 0.0
C399 C 0.79783 0.38725 0.46114 0.0
N400 N 0.77831 0.38768 0.46004 0.0
C401 C 0.77603 0.3668 0.42916 0.0
C402 C 0.79613 0.36619 0.42994 0.0
C403 C 0.80707 0.37643 0.44602 0.0
C404 C 0.76764 0.3779 0.44462 0.0
H405 H 0.80629 0.39509 0.47349 0.0
C406 C 0.79245 0.41747 0.51041 0.0
O407 O 0.7663 0.38224 0.54798 0.0
O408 O 0.78152 0.36567 0.52438 0.0
N409 N 0.74099 0.38863 0.4612 0.0
C410 C 0.72164 0.38969 0.46328 0.0
C411 C 0.70862 0.37997 0.4486 0.0
C412 C 0.71562 0.36931 0.43195 0.0
C413 C 0.73558 0.36825 0.43023 0.0
C414 C 0.74788 0.37844 0.44522 0.0
H415 H 0.71618 0.39794 0.47601 0.0
O416 O 0.74278 0.36339 0.51145 0.0
O417 O 0.76086 0.37999 0.4929 0.0
O418 O 0.7437 0.40572 0.52291 0.0
O419 O 0.74443 0.41665 0.49467 0.0
C420 C 0.74374 0.35731 0.41433 0.0
C421 C 0.76394 0.35653 0.41383 0.0
H422 H 0.8033 0.35777 0.41835 0.0
H423 H 0.82257 0.37596 0.44676 0.0
H424 H 0.69322 0.38074 0.45009 0.0
H425 H 0.70551 0.36192 0.42063 0.0
H426 H 0.73459 0.34922 0.40253 0.0
H427 H 0.77001 0.34782 0.40167 0.0
Mn428 Mn 0.67653 0.02144 0.76085 0.0
Mn429 Mn 0.66243 0.06726 0.76454 0.0
C430 C 0.69417 0.04516 0.74644 0.0
C431 C 0.69371 0.9982 0.77258 0.0
C432 C 0.64297 0.03213 0.73719 0.0
O433 O 0.65782 0.02241 0.78303 0.0
O434 O 0.65081 0.05377 0.78522 0.0
C435 C 0.68266 0.08487 0.80143 0.0
N436 N 0.67924 0.08516 0.78243 0.0
C437 C 0.7008 0.11494 0.78356 0.0
C438 C 0.70445 0.11502 0.80318 0.0
C439 C 0.69538 0.0999 0.81213 0.0
C440 C 0.68796 0.0996 0.77365 0.0
H441 H 0.67573 0.07325 0.80835 0.0
C442 C 0.64938 0.03705 0.79103 0.0
O443 O 0.67889 0.99292 0.76081 0.0
O444 O 0.6982 0.01699 0.77796 0.0
N445 N 0.67259 0.08222 0.74561 0.0
C446 C 0.66813 0.07953 0.72643 0.0
C447 C 0.67621 0.09325 0.7153 0.0
C448 C 0.68865 0.10967 0.72401 0.0
C449 C 0.69292 0.1122 0.74378 0.0
C450 C 0.68428 0.09815 0.75419 0.0
H451 H 0.6585 0.067 0.71966 0.0
O452 O 0.6955 0.02658 0.74068 0.0
O453 O 0.68277 0.04937 0.76066 0.0
O454 O 0.65396 0.01961 0.74133 0.0
O455 O 0.64461 0.05009 0.74541 0.0
C456 C 0.70563 0.12796 0.75353 0.0
C457 C 0.70962 0.12929 0.7734 0.0
H458 H 0.71431 0.12655 0.81147 0.0
H459 H 0.6982 0.09982 0.82724 0.0
H460 H 0.67286 0.09119 0.70003 0.0
H461 H 0.69486 0.12021 0.71537 0.0
H462 H 0.71262 0.13898 0.74584 0.0
H463 H 0.71962 0.14132 0.78068 0.0
Mn464 Mn 0.03712 0.24495 0.88708 0.0
Mn465 Mn 0.99334 0.24045 0.90704 0.0
C466 C 0.01057 0.22808 0.86918 0.0
C467 C 0.06081 0.26129 0.87043 0.0
C468 C 0.02608 0.21713 0.91584 0.0
O469 O 0.03986 0.26692 0.91041 0.0
O470 O 0.00953 0.26366 0.92145 0.0
C471 C 0.9782 0.27674 0.89856 0.0
N472 N 0.97642 0.25675 0.89708 0.0
C473 C 0.94566 0.25378 0.88021 0.0
C474 C 0.94712 0.27434 0.88162 0.0
C475 C 0.96349 0.28586 0.89078 0.0
C476 C 0.96078 0.24552 0.88822 0.0
H477 H 0.99072 0.28566 0.90564 0.0
C478 C 0.02675 0.27249 0.922 0.0
O479 O 0.06508 0.24912 0.88166 0.0
O480 O 0.04277 0.26449 0.86931 0.0
N481 N 0.97631 0.21872 0.89406 0.0
C482 C 0.97782 0.19905 0.89263 0.0
C483 C 0.963 0.18546 0.88315 0.0
C484 C 0.94671 0.19222 0.87541 0.0
C485 C 0.94545 0.21253 0.87712 0.0
C486 C 0.96071 0.22537 0.88664 0.0
H487 H 0.99027 0.19377 0.89863 0.0
O488 O 0.02798 0.22443 0.86444 0.0
O489 O 0.0093 0.24116 0.88438 0.0
O490 O 0.03798 0.22386 0.90431 0.0
O491 O 0.00921 0.2227 0.91824 0.0
C492 C 0.92976 0.22053 0.86957 0.0
C493 C 0.92992 0.24113 0.87099 0.0
H494 H 0.93582 0.28143 0.87562 0.0
H495 H 0.96475 0.30174 0.89187 0.0
H496 H 0.96411 0.16981 0.88185 0.0
H497 H 0.93532 0.18169 0.86809 0.0
H498 H 0.91764 0.21095 0.86234 0.0
H499 H 0.91795 0.24709 0.86475 0.0
Mn500 Mn 0.52125 0.75402 0.39193 0.0
Mn501 Mn 0.4775 0.74942 0.41191 0.0
C502 C 0.49525 0.73492 0.37483 0.0
C503 C 0.54426 0.76933 0.37371 0.0
C504 C 0.51095 0.72795 0.4225 0.0
O505 O 0.52332 0.77767 0.41366 0.0
O506 O 0.49339 0.77332 0.42531 0.0
C507 C 0.46182 0.78482 0.40181 0.0
N508 N 0.46024 0.76494 0.40131 0.0
C509 C 0.42855 0.76105 0.38617 0.0
C510 C 0.4298 0.78149 0.38656 0.0
C511 C 0.44656 0.7934 0.39431 0.0
C512 C 0.44429 0.75332 0.39367 0.0
H513 H 0.47457 0.79406 0.40794 0.0
C514 C 0.51012 0.78306 0.42521 0.0
O515 O 0.54915 0.75864 0.38615 0.0
O516 O 0.52604 0.77177 0.37237 0.0
N517 N 0.46051 0.72714 0.40001 0.0
C518 C 0.46225 0.7076 0.39938 0.0
C519 C 0.44708 0.6936 0.39123 0.0
C520 C 0.43018 0.69986 0.38414 0.0
C521 C 0.42872 0.72006 0.38503 0.0
C522 C 0.44442 0.73329 0.39301 0.0
H523 H 0.47511 0.70275 0.40506 0.0
O524 O 0.51291 0.73164 0.37078 0.0
O525 O 0.49332 0.74902 0.38903 0.0
O526 O 0.52296 0.73485 0.41114 0.0
O527 O 0.49366 0.73254 0.42391 0.0
C528 C 0.41234 0.72759 0.37824 0.0
C529 C 0.41233 0.74805 0.37862 0.0
H530 H 0.41802 0.78818 0.38089 0.0
H531 H 0.44765 0.80918 0.39463 0.0
H532 H 0.44834 0.67804 0.39056 0.0
H533 H 0.41847 0.68903 0.37798 0.0
H534 H 0.39979 0.71773 0.37237 0.0
H535 H 0.39982 0.75361 0.37293 0.0
Mn536 Mn 0.02058 0.7654 0.65554 0.0
Mn537 Mn 0.9968 0.72318 0.66556 0.0
C538 C 0.02167 0.73594 0.63458 0.0
C539 C 0.02241 0.79429 0.64197 0.0
C540 C 0.03538 0.74093 0.68438 0.0
O541 O 1.00185 0.77567 0.67605 0.0
O542 O 0.98719 0.7465 0.68115 0.0
C543 C 0.95819 0.72843 0.65011 0.0
N544 N 0.97323 0.71733 0.65054 0.0
C545 C 0.95617 0.69043 0.62891 0.0
C546 C 0.94045 0.70152 0.62829 0.0
C547 C 0.94152 0.72065 0.63885 0.0
C548 C 0.97249 0.69906 0.64019 0.0
H549 H 0.95887 0.74307 0.65836 0.0
C550 C 0.98939 0.76535 0.68449 0.0
O551 O 0.03405 0.79234 0.65591 0.0
O552 O 0.00919 0.77971 0.63638 0.0
N553 N 1.00409 0.69913 0.6516 0.0
C554 C 0.02077 0.69067 0.65319 0.0
C555 C 0.02225 0.67166 0.64315 0.0
C556 C 0.00641 0.66136 0.63199 0.0
C557 C 0.98928 0.67025 0.63081 0.0
C558 C 0.98875 0.68931 0.64093 0.0
H559 H 0.03285 0.69839 0.66204 0.0
O560 O 0.03496 0.75057 0.63456 0.0
O561 O 0.00789 0.73895 0.64669 0.0
O562 O 0.03705 0.75598 0.67592 0.0
O563 O 0.02095 0.72768 0.68148 0.0
C564 C 0.97272 0.66097 0.61997 0.0
C565 C 0.95628 0.67114 0.61882 0.0
H566 H 0.92752 0.69551 0.61972 0.0
H567 H 0.92947 0.72933 0.63842 0.0
H568 H 0.0355 0.66488 0.64416 0.0
H569 H 0.00758 0.64666 0.62434 0.0
H570 H 0.97253 0.64608 0.61229 0.0
H571 H 0.94378 0.66398 0.61016 0.0
Mn572 Mn 0.51863 0.26879 0.15324 0.0
Mn573 Mn 0.49524 0.22626 0.16297 0.0
C574 C 0.5199 0.23951 0.13207 0.0
C575 C 0.52024 0.2979 0.14008 0.0
C576 C 0.53386 0.24406 0.18165 0.0
O577 O 0.49982 0.27874 0.17379 0.0
O578 O 0.48558 0.24939 0.17886 0.0
C579 C 0.45645 0.23151 0.14794 0.0
N580 N 0.47157 0.22047 0.14811 0.0
C581 C 0.45449 0.19371 0.12631 0.0
C582 C 0.43869 0.20475 0.12597 0.0
C583 C 0.43974 0.22378 0.13674 0.0
C584 C 0.47086 0.2023 0.13753 0.0
H585 H 0.45711 0.24607 0.15634 0.0
C586 C 0.48753 0.26825 0.18223 0.0
O587 O 0.53193 0.29583 0.15391 0.0
O588 O 0.50711 0.28328 0.13428 0.0
N589 N 0.50254 0.20235 0.1487 0.0
C590 C 0.51926 0.19389 0.15011 0.0
C591 C 0.52074 0.17497 0.13986 0.0
C592 C 0.50488 0.16475 0.12867 0.0
C593 C 0.48771 0.17362 0.12772 0.0
C594 C 0.48718 0.1926 0.13803 0.0
H595 H 0.53137 0.20154 0.15895 0.0
O596 O 0.53308 0.25426 0.13215 0.0
O597 O 0.5061 0.24231 0.1442 0.0
O598 O 0.53523 0.25931 0.17347 0.0
O599 O 0.51955 0.23067 0.17867 0.0
C600 C 0.47111 0.16438 0.11693 0.0
C601 C 0.4546 0.17451 0.11603 0.0
H602 H 0.42571 0.19877 0.11746 0.0
H603 H 0.42763 0.23241 0.13652 0.0
H604 H 0.53403 0.16821 0.1407 0.0
H605 H 0.50606 0.15013 0.12085 0.0
H606 H 0.47092 0.14954 0.10912 0.0
H607 H 0.44206 0.16738 0.10741 0.0
H608 H 0.26317 0.73028 0.85494 0.0
H609 H 0.2623 0.75941 0.87951 0.0
H610 H 0.2006 0.74616 0.88332 0.0
H611 H 0.20139 0.71667 0.85894 0.0
H612 H 0.23991 0.7917 0.87742 0.0
H613 H 0.2214 0.7542 0.94003 0.0
H614 H 0.23105 0.74164 0.91837 0.0
H615 H 0.20626 0.74676 0.91869 0.0
C616 C 0.24944 0.73341 0.86116 0.0
C617 C 0.23236 0.72109 0.85506 0.0
C618 C 0.24895 0.75011 0.87512 0.0
C619 C 0.23143 0.7548 0.88339 0.0
C620 C 0.21431 0.74263 0.87731 0.0
H621 H 0.21515 0.85215 0.97659 0.0
H622 H 0.20825 0.82477 0.94968 0.0
C623 C 0.21477 0.72592 0.86325 0.0
C624 C 0.2312 0.7728 0.89792 0.0
H625 H 0.22523 0.78893 0.94564 0.0
C626 C 0.23659 0.79111 0.89231 0.0
C627 C 0.22668 0.77199 0.91729 0.0
C628 C 0.22113 0.75262 0.9241 0.0
C629 C 0.23794 0.80862 0.90563 0.0
C630 C 0.23418 0.80781 0.92515 0.0
C631 C 0.22814 0.78954 0.93066 0.0
C632 C 0.2378 0.82551 0.94027 0.0
C633 C 0.24336 0.82787 0.89868 0.0
C634 C 0.25665 0.83499 0.9439 0.0
C635 C 0.26058 0.85047 0.95924 0.0
C636 C 0.24569 0.85703 0.97106 0.0
C637 C 0.22679 0.84765 0.96738 0.0
C638 C 0.22286 0.83202 0.95208 0.0
H639 H 0.24072 0.82662 0.88294 0.0
H640 H 0.23497 0.83945 0.90617 0.0
H641 H 0.259 0.83244 0.90181 0.0
H642 H 0.26851 0.82989 0.93534 0.0
H643 H 0.27542 0.85677 0.96233 0.0
H644 H 0.03068 0.55212 0.4318 0.0
H645 H 0.05085 0.55508 0.4037 0.0
H646 H 0.07973 0.50543 0.41445 0.0
H647 H 0.05963 0.5025 0.44243 0.0
H648 H 0.09354 0.55886 0.40056 0.0
H649 H 0.05659 0.48987 0.35834 0.0
H650 H 0.04624 0.50288 0.37938 0.0
H651 H 0.06554 0.48803 0.38195 0.0
C652 C 0.04159 0.54212 0.42828 0.0
C653 C 0.04381 0.52719 0.43918 0.0
C654 C 0.05302 0.54375 0.41225 0.0
C655 C 0.06658 0.53029 0.40686 0.0
C656 C 0.06919 0.51579 0.41821 0.0
H657 H 0.13939 0.5097 0.30677 0.0
H658 H 0.12204 0.50716 0.33651 0.0
C659 C 0.05784 0.51423 0.43424 0.0
C660 C 0.07763 0.531 0.38907 0.0
H661 H 0.08324 0.50549 0.34417 0.0
C662 C 0.09129 0.54723 0.38821 0.0
C663 C 0.07475 0.51572 0.37304 0.0
C664 C 0.05989 0.49817 0.37305 0.0
C665 C 0.1023 0.54851 0.37178 0.0
C666 C 0.09918 0.53339 0.35559 0.0
C667 C 0.08563 0.51706 0.35656 0.0
C668 C 0.10937 0.53458 0.33733 0.0
C669 C 0.11742 0.5659 0.37209 0.0
C670 C 0.10759 0.55052 0.32762 0.0
C671 C 0.11749 0.55205 0.31073 0.0
C672 C 0.12925 0.53751 0.30295 0.0
C673 C 0.13049 0.52116 0.31233 0.0
C674 C 0.12062 0.51971 0.32936 0.0
H675 H 0.12211 0.57263 0.38702 0.0
H676 H 0.13034 0.56155 0.36406 0.0
H677 H 0.11121 0.57733 0.36525 0.0
H678 H 0.09855 0.56187 0.33314 0.0
H679 H 0.11597 0.56475 0.30383 0.0
H680 H 0.80671 0.78367 0.86717 0.0
H681 H 0.80459 0.75945 0.88899 0.0
H682 H 0.86685 0.76409 0.89391 0.0
H683 H 0.86912 0.78861 0.87208 0.0
H684 H 0.82338 0.72187 0.88371 0.0
H685 H 0.84622 0.77377 0.951 0.0
H686 H 0.83651 0.78229 0.9303 0.0
H687 H 0.86036 0.77459 0.92984 0.0
C688 C 0.81997 0.77967 0.87298 0.0
C689 C 0.83809 0.78819 0.86799 0.0
C690 C 0.81873 0.76575 0.88537 0.0
C691 C 0.83554 0.76011 0.8932 0.0
C692 C 0.8537 0.76838 0.88815 0.0
H693 H 0.82425 0.67951 0.98034 0.0
H694 H 0.84074 0.70034 0.95882 0.0
C695 C 0.85496 0.78227 0.87559 0.0
C696 C 0.83371 0.7454 0.90646 0.0
H697 H 0.83418 0.74141 0.95416 0.0
C698 C 0.8261 0.72604 0.89907 0.0
C699 C 0.83743 0.75082 0.92648 0.0
C700 C 0.84553 0.77149 0.93504 0.0
C701 C 0.82121 0.71221 0.91126 0.0
C702 C 0.82362 0.718 0.9314 0.0
C703 C 0.83237 0.737 0.93873 0.0
C704 C 0.81432 0.70564 0.94484 0.0
C705 C 0.81277 0.69169 0.90252 0.0
C706 C 0.79412 0.70211 0.94438 0.0
C707 C 0.78476 0.69045 0.95655 0.0
C708 C 0.79532 0.68194 0.96968 0.0
C709 C 0.81566 0.68575 0.97041 0.0
C710 C 0.82509 0.69763 0.95813 0.0
H711 H 0.81743 0.68772 0.88752 0.0
H712 H 0.81708 0.6806 0.91109 0.0
H713 H 0.79674 0.69099 0.9022 0.0
H714 H 0.78549 0.70842 0.93451 0.0
H715 H 0.7691 0.68803 0.95547 0.0
H716 H 0.04094 0.0231 0.46827 0.0
H717 H 0.02422 0.03266 0.44084 0.0
H718 H 0.01594 0.97188 0.41358 0.0
H719 H 0.03271 0.96223 0.44075 0.0
H720 H 0.03291 1.00285 0.39036 0.0
H721 H 0.96379 0.01831 0.42613 0.0
H722 H 0.98645 0.02812 0.43845 0.0
H723 H 0.97954 1.00207 0.43457 0.0
C724 C 0.03558 0.0118 0.4564 0.0
C725 C 0.03806 0.99189 0.45671 0.0
C726 C 0.02595 0.01727 0.44083 0.0
C727 C 0.01877 1.00294 0.42529 0.0
C728 C 0.02132 0.98312 0.4255 0.0
H729 H 0.96121 0.98003 0.31759 0.0
H730 H 0.98155 0.98263 0.34629 0.0
C731 C 0.03079 0.97763 0.44108 0.0
C732 C 0.00882 0.00842 0.40855 0.0
H733 H 0.96516 0.01957 0.39306 0.0
C734 C 0.01819 0.00677 0.39097 0.0
C735 C 0.98972 0.01376 0.40949 0.0
C736 C 0.97913 0.01566 0.42811 0.0
C737 C 0.0087 0.00961 0.37411 0.0
C738 C 0.98915 0.01371 0.37478 0.0
C739 C 0.98011 0.01639 0.39256 0.0
C740 C 0.97728 0.01294 0.35697 0.0
C741 C 0.01959 0.00783 0.35566 0.0
C742 C 0.96771 0.02905 0.35356 0.0
C743 C 0.95584 0.02761 0.33702 0.0
C744 C 0.95319 0.00994 0.32377 0.0
C745 C 0.96289 0.99392 0.32735 0.0
C746 C 0.9747 0.9954 0.34374 0.0
H747 H 0.03542 0.01147 0.35851 0.0
H748 H 0.01712 0.9924 0.34806 0.0
H749 H 0.01463 0.01766 0.34602 0.0
H750 H 0.96936 0.04267 0.36371 0.0
H751 H 0.94851 0.04018 0.33481 0.0
H752 H 0.21353 0.27892 0.67362 0.0
H753 H 0.21595 0.25502 0.64452 0.0
H754 H 0.26692 0.28962 0.62925 0.0
H755 H 0.26589 0.31236 0.65905 0.0
H756 H 0.21454 0.25523 0.60792 0.0
H757 H 0.28785 0.23834 0.62618 0.0
H758 H 0.27408 0.25339 0.64297 0.0
H759 H 0.28782 0.264 0.62493 0.0
C760 C 0.22546 0.28134 0.66427 0.0
C761 C 0.23963 0.2976 0.66905 0.0
C762 C 0.2267 0.26772 0.64747 0.0
C763 C 0.24196 0.27016 0.63491 0.0
C764 C 0.25539 0.28698 0.639 0.0
H765 H 0.24261 0.20505 0.51786 0.0
H766 H 0.23857 0.22948 0.54633 0.0
C767 C 0.25448 0.30031 0.65598 0.0
C768 C 0.24401 0.25505 0.61768 0.0
H769 H 0.27654 0.22703 0.59385 0.0
C770 C 0.22806 0.24894 0.60492 0.0
C771 C 0.26151 0.24646 0.61392 0.0
C772 C 0.27869 0.25072 0.62785 0.0
C773 C 0.22919 0.23477 0.5884 0.0
C774 C 0.24705 0.22709 0.58405 0.0
C775 C 0.26291 0.23305 0.59696 0.0
C776 C 0.24961 0.21247 0.56654 0.0
C777 C 0.21103 0.2278 0.5762 0.0
C778 C 0.25803 0.19516 0.56819 0.0
C779 C 0.26101 0.18157 0.55188 0.0
C780 C 0.25534 0.1848 0.53356 0.0
C781 C 0.24695 0.2021 0.53184 0.0
C782 C 0.24443 0.21597 0.54814 0.0
H783 H 0.19783 0.2299 0.58468 0.0
H784 H 0.21056 0.23658 0.56436 0.0
H785 H 0.21057 0.21199 0.56987 0.0
H786 H 0.26221 0.19207 0.58216 0.0
H787 H 0.26737 0.16829 0.55366 0.0
H788 H 0.53777 0.57382 0.60382 0.0
H789 H 0.52155 0.57205 0.63426 0.0
H790 H 0.53904 0.51402 0.63427 0.0
H791 H 0.55505 0.51555 0.60388 0.0
H792 H 0.49146 0.54449 0.64144 0.0
H793 H 0.55547 0.5421 0.68834 0.0
H794 H 0.55745 0.54966 0.66503 0.0
H795 H 0.55402 0.52392 0.667 0.0
C796 C 0.5382 0.5607 0.61034 0.0
C797 C 0.54787 0.5449 0.60145 0.0
C798 C 0.52899 0.55975 0.62776 0.0
C799 C 0.52937 0.54305 0.63672 0.0
C800 C 0.53899 0.52728 0.6279 0.0
H801 H 0.47661 0.49343 0.72964 0.0
H802 H 0.49537 0.50191 0.70259 0.0
C803 C 0.54818 0.5282 0.6105 0.0
C804 C 0.51884 0.54157 0.65472 0.0
H805 H 0.52458 0.53285 0.70069 0.0
C806 C 0.49871 0.54221 0.65449 0.0
C807 C 0.52834 0.53858 0.67172 0.0
C808 C 0.55004 0.53871 0.67316 0.0
C809 C 0.48772 0.53912 0.67054 0.0
C810 C 0.49716 0.53564 0.68738 0.0
C811 C 0.51735 0.53548 0.68776 0.0
C812 C 0.48625 0.5311 0.70439 0.0
C813 C 0.466 0.53881 0.66906 0.0
C814 C 0.47513 0.54485 0.71465 0.0
C815 C 0.46431 0.54005 0.7302 0.0
C816 C 0.46447 0.52142 0.73583 0.0
C817 C 0.47606 0.5079 0.72576 0.0
C818 C 0.48684 0.51272 0.71026 0.0
H819 H 0.46069 0.53745 0.65392 0.0
H820 H 0.45872 0.52639 0.67543 0.0
H821 H 0.46168 0.55274 0.67712 0.0
H822 H 0.47475 0.55927 0.71059 0.0
H823 H 0.45566 0.55088 0.73763 0.0
H824 H 0.80043 0.26241 0.67386 0.0
H825 H 0.78959 0.28038 0.64891 0.0
H826 H 0.84514 0.27759 0.6226 0.0
H827 H 0.85591 0.25965 0.64745 0.0
H828 H 0.8328 0.3165 0.63224 0.0
H829 H 0.77671 0.26301 0.58997 0.0
H830 H 0.77486 0.26632 0.61569 0.0
H831 H 0.79515 0.25545 0.60466 0.0
C832 C 0.81005 0.26518 0.66239 0.0
C833 C 0.82885 0.25951 0.66228 0.0
C834 C 0.8039 0.27544 0.6482 0.0
C835 C 0.81654 0.2802 0.63383 0.0
C836 C 0.83514 0.27397 0.63348 0.0
H837 H 0.79681 0.33599 0.53414 0.0
H838 H 0.80655 0.31466 0.55636 0.0
C839 C 0.84123 0.26365 0.64758 0.0
C840 C 0.81108 0.29311 0.62018 0.0
H841 H 0.78017 0.2955 0.58275 0.0
C842 C 0.82131 0.31191 0.6214 0.0
C843 C 0.79617 0.28703 0.60601 0.0
C844 C 0.78512 0.26681 0.60381 0.0
C845 C 0.81687 0.32488 0.60895 0.0
C846 C 0.80177 0.31893 0.59496 0.0
C847 C 0.79169 0.30004 0.59357 0.0
C848 C 0.79628 0.33214 0.58165 0.0
C849 C 0.82846 0.34481 0.61068 0.0
C850 C 0.78734 0.34907 0.58854 0.0
C851 C 0.78169 0.36125 0.57589 0.0
C852 C 0.78497 0.35676 0.55611 0.0
C853 C 0.79419 0.33993 0.5493 0.0
C854 C 0.79968 0.32767 0.56195 0.0
H855 H 0.84185 0.34575 0.61972 0.0
H856 H 0.83251 0.34813 0.59627 0.0
H857 H 0.81951 0.35632 0.61735 0.0
H858 H 0.78446 0.35269 0.60368 0.0
H859 H 0.77456 0.37405 0.58158 0.0
H860 H 0.5479 0.02575 0.5809 0.0
H861 H 0.56774 0.02967 0.61047 0.0
H862 H 0.53908 0.97529 0.62371 0.0
H863 H 0.5189 0.97144 0.59432 0.0
H864 H 0.54282 0.00716 0.65519 0.0
H865 H 0.61257 0.9968 0.61946 0.0
H866 H 0.59942 0.0151 0.61127 0.0
H867 H 0.58941 0.9897 0.60702 0.0
C868 C 0.54571 0.0147 0.59017 0.0
C869 C 0.53185 0.99826 0.58523 0.0
C870 C 0.55719 0.01686 0.60696 0.0
C871 C 0.55506 1.00263 0.61914 0.0
C872 C 0.54105 0.98636 0.61443 0.0
H873 H 0.63739 0.99685 0.71248 0.0
H874 H 0.61499 0.98814 0.68461 0.0
C875 C 0.52961 0.98414 0.59759 0.0
C876 C 0.56732 1.00487 0.6369 0.0
H877 H 0.61428 0.00844 0.65311 0.0
C878 C 0.55843 0.00732 0.65476 0.0
C879 C 0.58765 1.00478 0.63628 0.0
C880 C 0.59786 1.00128 0.61749 0.0
C881 C 0.56942 0.01032 0.67205 0.0
C882 C 0.58983 0.01107 0.67143 0.0
C883 C 0.59865 0.00799 0.65356 0.0
C884 C 0.60237 0.01576 0.68911 0.0
C885 C 0.55911 0.01263 0.69083 0.0
C886 C 0.60268 0.03416 0.7009 0.0
C887 C 0.61545 0.03922 0.7168 0.0
C888 C 0.62829 0.02598 0.72125 0.0
C889 C 0.62768 0.00739 0.70958 0.0
C890 C 0.61492 1.00238 0.6936 0.0
H891 H 0.54369 0.00637 0.68892 0.0
H892 H 0.56626 1.00534 0.70152 0.0
H893 H 0.5595 0.02854 0.69674 0.0
H894 H 0.59338 0.04486 0.6975 0.0
H895 H 0.61552 0.0537 0.72537 0.0
H896 H 0.88243 0.18095 0.72743 0.0
H897 H 0.90676 0.17909 0.7524 0.0
H898 H 0.90274 0.23998 0.77602 0.0
H899 H 0.87802 0.24177 0.7517 0.0
H900 H 0.94284 0.2008 0.76145 0.0
H901 H 0.89395 0.2125 0.82257 0.0
H902 H 0.88505 0.20636 0.79795 0.0
H903 H 0.89392 0.23139 0.80785 0.0
C904 C 0.88661 0.19389 0.73806 0.0
C905 C 0.87819 0.21149 0.73759 0.0
C906 C 0.90059 0.19283 0.75223 0.0
C907 C 0.9063 0.20929 0.76626 0.0
C908 C 0.89826 0.22698 0.76557 0.0
H909 H 0.98739 0.25287 0.85715 0.0
H910 H 0.96171 0.24536 0.83228 0.0
C911 C 0.8843 0.22805 0.75147 0.0
C912 C 0.92074 0.20824 0.78163 0.0
H913 H 0.92796 0.21776 0.83023 0.0
C914 C 0.93954 0.20413 0.77653 0.0
C915 C 0.91635 0.21243 0.80129 0.0
C916 C 0.89616 0.21572 0.80776 0.0
C917 C 0.95435 0.20526 0.79059 0.0
C918 C 0.95013 0.21043 0.8102 0.0
C919 C 0.93116 0.21375 0.81526 0.0
C920 C 0.96544 0.21435 0.82558 0.0
C921 C 0.97459 0.20193 0.78437 0.0
C922 C 0.97594 0.19934 0.83023 0.0
C923 C 0.99056 0.20361 0.84465 0.0
C924 C 0.99454 0.22284 0.8548 0.0
C925 C 0.98412 0.23779 0.84998 0.0
C926 C 0.96957 0.23355 0.83568 0.0
H927 H 0.97605 0.20107 0.76859 0.0
H928 H 0.98521 0.21397 0.79177 0.0
H929 H 0.97835 0.18788 0.78839 0.0
H930 H 0.97285 0.18438 0.82271 0.0
H931 H 0.99866 0.19194 0.84795 0.0
H932 H 0.50027 0.93772 0.5477 0.0
H933 H 0.5031 0.90619 0.52718 0.0
H934 H 0.51187 0.93585 0.4782 0.0
H935 H 0.50949 0.96764 0.49873 0.0
H936 H 0.48494 0.89961 0.47226 0.0
H937 H 0.55593 0.89025 0.50472 0.0
H938 H 0.53745 0.89601 0.52168 0.0
H939 H 0.54632 0.91379 0.50701 0.0
C940 C 0.5028 0.93758 0.53256 0.0
C941 C 0.50487 0.95526 0.52491 0.0
C942 C 0.50444 0.91954 0.52087 0.0
C943 C 0.50811 0.91876 0.50128 0.0
C944 C 0.5092 0.93619 0.49334 0.0
H945 H 0.53875 0.81368 0.42425 0.0
H946 H 0.53987 0.84736 0.44214 0.0
C947 C 0.50766 0.95432 0.50507 0.0
C948 C 0.51091 0.89968 0.48923 0.0
H949 H 0.53982 0.86217 0.48446 0.0
C950 C 0.49703 0.89151 0.47478 0.0
C951 C 0.52684 0.88926 0.4924 0.0
C952 C 0.54262 0.8978 0.50717 0.0
C953 C 0.49821 0.87278 0.46397 0.0
C954 C 0.51362 0.86194 0.46781 0.0
C955 C 0.52796 0.87046 0.48167 0.0
C956 C 0.51431 0.8413 0.45829 0.0
C957 C 0.48283 0.86458 0.44867 0.0
C958 C 0.50006 0.82665 0.46205 0.0
C959 C 0.49945 0.80749 0.45204 0.0
C960 C 0.5131 0.80249 0.43798 0.0
C961 C 0.52804 0.81698 0.43498 0.0
C962 C 0.52865 0.83625 0.44511 0.0
H963 H 0.47485 0.87635 0.44431 0.0
H964 H 0.48928 0.85663 0.43577 0.0
H965 H 0.47225 0.85394 0.45436 0.0
H966 H 0.48908 0.83018 0.47244 0.0
H967 H 0.48783 0.79674 0.45491 0.0
H968 H 0.17887 0.29089 0.73545 0.0
H969 H 0.14997 0.28673 0.75476 0.0
H970 H 0.18214 0.31816 0.80507 0.0
H971 H 0.21085 0.32253 0.78568 0.0
H972 H 0.1475 0.26655 0.7847 0.0
H973 H 0.1317 0.34317 0.80964 0.0
H974 H 0.14744 0.33679 0.78995 0.0
H975 H 0.1564 0.3396 0.8144 0.0
C976 C 0.17953 0.29725 0.75054 0.0
C977 C 0.19684 0.30715 0.75917 0.0
C978 C 0.1631 0.29486 0.76156 0.0
C979 C 0.16379 0.30239 0.78132 0.0
C980 C 0.18109 0.31266 0.78978 0.0
H981 H 0.09944 0.25742 0.87071 0.0
H982 H 0.1235 0.26845 0.84872 0.0
C983 C 0.19749 0.31506 0.77876 0.0
C984 C 0.14713 0.29781 0.79345 0.0
H985 H 0.11711 0.31855 0.82706 0.0
C986 C 0.14071 0.27794 0.79378 0.0
C987 C 0.13813 0.31266 0.80518 0.0
C988 C 0.14363 0.33425 0.80466 0.0
C989 C 0.12607 0.2725 0.80601 0.0
C990 C 0.11782 0.28732 0.8185 0.0
C991 C 0.12366 0.30721 0.81766 0.0
C992 C 0.10349 0.28228 0.83283 0.0
C993 C 0.11959 0.25089 0.80549 0.0
C994 C 0.08443 0.28711 0.83169 0.0
C995 C 0.07061 0.2809 0.84435 0.0
C996 C 0.07569 0.26983 0.85839 0.0
C997 C 0.09501 0.26579 0.85999 0.0
C998 C 0.10877 0.272 0.84737 0.0
H999 H 0.12344 0.24188 0.79186 0.0
H1000 H 0.12686 0.24564 0.81752 0.0
H1001 H 0.1037 0.24837 0.80718 0.0
H1002 H 0.08011 0.29515 0.82063 0.0
H1003 H 0.05585 0.28427 0.84278 0.0
H1004 H 0.57232 0.58833 0.50415 0.0
H1005 H 0.57017 0.61692 0.48772 0.0
H1006 H 0.51671 0.62785 0.51594 0.0
H1007 H 0.5191 0.59958 0.53254 0.0
H1008 H 0.54168 0.62157 0.46258 0.0
H1009 H 0.54533 0.68259 0.52413 0.0
H1010 H 0.55206 0.65852 0.52639 0.0
H1011 H 0.52699 0.66301 0.52672 0.0
C1012 C 0.56038 0.59717 0.50709 0.0
C1013 C 0.54599 0.59208 0.5197 0.0
C1014 C 0.5591 0.6134 0.49768 0.0
C1015 C 0.54344 0.62476 0.50082 0.0
C1016 C 0.5292 0.61968 0.51366 0.0
H1017 H 0.49024 0.71126 0.44968 0.0
H1018 H 0.49983 0.68686 0.46843 0.0
C1019 C 0.53051 0.6035 0.52307 0.0
C1020 C 0.54114 0.64096 0.48965 0.0
H1021 H 0.53291 0.68936 0.49423 0.0
C1022 C 0.54005 0.63647 0.46949 0.0
C1023 C 0.53899 0.66041 0.49865 0.0
C1024 C 0.5411 0.66649 0.52016 0.0
C1025 C 0.53609 0.65065 0.45816 0.0
C1026 C 0.53337 0.66992 0.46721 0.0
C1027 C 0.53492 0.67455 0.48733 0.0
C1028 C 0.52805 0.6852 0.45609 0.0
C1029 C 0.53411 0.64473 0.43663 0.0
C1030 C 0.54085 0.69259 0.44309 0.0
C1031 C 0.53544 0.70663 0.43232 0.0
C1032 C 0.51709 0.71356 0.43435 0.0
C1033 C 0.50445 0.70628 0.44765 0.0
C1034 C 0.50991 0.69233 0.45844 0.0
H1035 H 0.53292 0.62848 0.43222 0.0
H1036 H 0.52118 0.65036 0.43094 0.0
H1037 H 0.54705 0.65124 0.42991 0.0
H1038 H 0.55503 0.68749 0.44125 0.0
H1039 H 0.54559 0.7119 0.42229 0.0
H1040 H 0.87544 0.84643 0.81479 0.0
H1041 H 0.89869 0.84375 0.78877 0.0
H1042 H 0.8832 0.78089 0.77698 0.0
H1043 H 0.85985 0.78347 0.8026 0.0
H1044 H 0.9309 0.82107 0.78543 0.0
H1045 H 0.87906 0.79761 0.72383 0.0
H1046 H 0.87183 0.80901 0.74713 0.0
H1047 H 0.8749 0.78316 0.74266 0.0
C1048 C 0.87682 0.83209 0.80645 0.0
C1049 C 0.8658 0.81516 0.81077 0.0
C1050 C 0.89017 0.83057 0.79167 0.0
C1051 C 0.89251 0.81215 0.78078 0.0
C1052 C 0.88142 0.7953 0.78498 0.0
H1053 H 0.96021 0.74753 0.70312 0.0
H1054 H 0.93791 0.76261 0.72559 0.0
C1055 C 0.86821 0.79677 0.79977 0.0
C1056 C 0.90705 0.81016 0.7655 0.0
H1057 H 0.91188 0.79048 0.71846 0.0
C1058 C 0.92678 0.81478 0.77068 0.0
C1059 C 0.90164 0.80209 0.74624 0.0
C1060 C 0.88069 0.79786 0.73956 0.0
C1061 C 0.94125 0.81022 0.75739 0.0
C1062 C 0.93578 0.80102 0.73844 0.0
C1063 C 0.91606 0.79747 0.73302 0.0
C1064 C 0.94999 0.79255 0.7248 0.0
C1065 C 0.96222 0.81412 0.76398 0.0
C1066 C 0.96434 0.80441 0.71679 0.0
C1067 C 0.97734 0.79577 0.70374 0.0
C1068 C 0.97617 0.77513 0.69854 0.0
C1069 C 0.96173 0.76345 0.70672 0.0
C1070 C 0.94884 0.77205 0.7196 0.0
H1071 H 0.96396 0.81937 0.7797 0.0
H1072 H 0.96954 0.80052 0.76035 0.0
H1073 H 0.96966 0.82551 0.7564 0.0
H1074 H 0.96534 0.82031 0.72046 0.0
H1075 H 0.98819 0.80521 0.69769 0.0
H1076 H 0.0231 0.93845 0.54743 0.0
H1077 H 0.02131 0.91627 0.57132 0.0
H1078 H 0.07429 0.89402 0.55073 0.0
H1079 H 0.07576 0.916 0.52646 0.0
H1080 H 0.04631 0.86475 0.55201 0.0
H1081 H 0.04917 0.91524 0.62144 0.0
H1082 H 0.03076 0.92018 0.60537 0.0
H1083 H 0.05582 0.92362 0.59922 0.0
C1084 C 0.03465 0.92923 0.54844 0.0
C1085 C 0.04972 0.92904 0.53543 0.0
C1086 C 0.03366 0.91659 0.56212 0.0
C1087 C 0.04781 0.90363 0.56307 0.0
C1088 C 0.06328 0.90398 0.55039 0.0
H1089 H 0.05091 0.82517 0.64856 0.0
H1090 H 0.05738 0.8519 0.62981 0.0
C1091 C 0.06421 0.91659 0.53664 0.0
C1092 C 0.04531 0.88838 0.5758 0.0
H1093 H 0.03672 0.88159 0.62204 0.0
C1094 C 0.04442 0.86847 0.56736 0.0
C1095 C 0.04299 0.89316 0.59587 0.0
C1096 C 0.04493 0.91422 0.60604 0.0
C1097 C 0.04077 0.85325 0.57828 0.0
C1098 C 0.03745 0.85802 0.59816 0.0
C1099 C 0.03892 0.87792 0.60674 0.0
C1100 C 0.03272 0.84251 0.61027 0.0
C1101 C 0.04073 0.8322 0.56841 0.0
C1102 C 0.01636 0.82865 0.6059 0.0
C1103 C 0.01266 0.81329 0.61655 0.0
C1104 C 0.02514 0.81161 0.63192 0.0
C1105 C 0.04103 0.82601 0.63678 0.0
C1106 C 0.04476 0.84131 0.62608 0.0
H1107 H 0.04879 0.83127 0.55485 0.0
H1108 H 0.04725 0.82312 0.57789 0.0
H1109 H 0.02558 0.82578 0.56475 0.0
H1110 H 0.00659 0.82955 0.59407 0.0
H1111 H 1.00023 0.80254 0.6125 0.0
H1112 H 0.15448 0.67194 0.78656 0.0
H1113 H 0.12804 0.68512 0.771 0.0
H1114 H 0.16628 0.73696 0.765 0.0
H1115 H 0.19285 0.72356 0.78034 0.0
H1116 H 0.11048 0.72012 0.77929 0.0
H1117 H 0.14777 0.71514 0.70966 0.0
H1118 H 0.15572 0.7036 0.72916 0.0
H1119 H 0.16126 0.72968 0.72983 0.0
C1120 C 0.15709 0.68628 0.78216 0.0
C1121 C 0.17552 0.69683 0.78458 0.0
C1122 C 0.14204 0.69378 0.77327 0.0
C1123 C 0.14527 0.71188 0.76656 0.0
C1124 C 0.16356 0.72281 0.76975 0.0
H1125 H 0.06936 0.76486 0.69395 0.0
H1126 H 0.0958 0.75971 0.71521 0.0
C1127 C 0.17865 0.71527 0.77863 0.0
C1128 C 0.12968 0.71871 0.75551 0.0
H1129 H 0.11748 0.7276 0.71085 0.0
C1130 C 0.11203 0.72186 0.76436 0.0
C1131 C 0.13173 0.72097 0.73601 0.0
C1132 C 0.15006 0.71703 0.7255 0.0
C1133 C 0.09635 0.7271 0.7542 0.0
C1134 C 0.09827 0.72891 0.7346 0.0
C1135 C 0.11605 0.72623 0.72589 0.0
C1136 C 0.08176 0.7326 0.72257 0.0
C1137 C 0.07789 0.73069 0.76457 0.0
C1138 C 0.06514 0.71901 0.71955 0.0
C1139 C 0.04999 0.72186 0.70739 0.0
C1140 C 0.05118 0.73836 0.69789 0.0
C1141 C 0.06787 0.75202 0.70104 0.0
C1142 C 0.08303 0.74911 0.71319 0.0
H1143 H 0.08051 0.73435 0.78037 0.0
H1144 H 0.07101 0.74286 0.75958 0.0
H1145 H 0.06756 0.71713 0.7616 0.0
H1146 H 0.06403 0.70593 0.72629 0.0
H1147 H 0.03747 0.71095 0.70526 0.0
H1148 H 0.0332 0.57374 0.51646 0.0
H1149 H 0.03991 0.60615 0.53681 0.0
H1150 H 0.98224 0.61941 0.52443 0.0
H1151 H 0.97544 0.58713 0.50421 0.0
H1152 H 0.03643 0.64741 0.53184 0.0
H1153 H 0.98513 0.61953 0.58345 0.0
H1154 H 0.99466 0.60344 0.56394 0.0
H1155 H 0.9752 0.6175 0.55949 0.0
C1156 C 0.02214 0.58379 0.51769 0.0
C1157 C 1.00371 0.57782 0.50896 0.0
C1158 C 0.02598 0.60226 0.52935 0.0
C1159 C 0.01145 0.61501 0.53238 0.0
C1160 C 0.99355 0.60965 0.52252 0.0
H1161 H 0.99103 0.71955 0.61108 0.0
H1162 H 0.98983 0.69092 0.58543 0.0
C1163 C 0.98968 0.59122 0.51099 0.0
C1164 C 0.01417 0.63298 0.5472 0.0
H1165 H 0.99652 0.65338 0.58972 0.0
C1166 C 0.0278 0.64873 0.54459 0.0
C1167 C 1.00298 0.63459 0.56388 0.0
C1168 C 0.98879 0.61782 0.56802 0.0
C1169 C 0.03006 0.66634 0.55799 0.0
C1170 C 0.01856 0.66804 0.57449 0.0
C1171 C 1.00521 0.65213 0.57711 0.0
C1172 C 0.01984 0.68612 0.58925 0.0
C1173 C 0.04429 0.68315 0.5541 0.0
C1174 C 0.03707 0.69293 0.59999 0.0
C1175 C 0.03769 0.7092 0.61474 0.0
C1176 C 0.02097 0.71857 0.6193 0.0
C1177 C 1.00391 0.7121 0.60825 0.0
C1178 C 1.00329 0.69591 0.59349 0.0
H1179 H 0.04831 0.6814 0.53877 0.0
H1180 H 0.03826 0.69747 0.55799 0.0
H1181 H 0.05768 0.68359 0.56297 0.0
H1182 H 0.04992 0.68543 0.59725 0.0
H1183 H 0.0511 0.71417 0.6229 0.0
H1184 H 0.73175 0.88879 0.20454 0.0
H1185 H 0.7584 0.91524 0.21113 0.0
H1186 H 0.79635 0.8735 0.22487 0.0
H1187 H 0.76986 0.84694 0.21778 0.0
H1188 H 0.77802 0.92927 0.24337 0.0
H1189 H 0.8295 0.90108 0.18925 0.0
H1190 H 0.80461 0.89054 0.18908 0.0
H1191 H 0.82245 0.88353 0.20471 0.0
C1192 C 0.74582 0.88527 0.2089 0.0
C1193 C 0.74877 0.86582 0.21062 0.0
C1194 C 0.76104 0.90037 0.2126 0.0
C1195 C 0.7795 0.89633 0.21816 0.0
C1196 C 0.78242 0.87691 0.22004 0.0
H1197 H 0.86742 0.97732 0.28332 0.0
H1198 H 0.83978 0.95341 0.27155 0.0
C1199 C 0.76726 0.86176 0.21611 0.0
C1200 C 0.79535 0.9126 0.22302 0.0
H1201 H 0.84252 0.92684 0.21436 0.0
C1202 C 0.79206 0.9288 0.23688 0.0
C1203 C 0.8136 0.91222 0.21432 0.0
C1204 C 0.81769 0.896 0.19837 0.0
C1205 C 0.80667 0.94428 0.24274 0.0
C1206 C 0.82525 0.94328 0.23491 0.0
C1207 C 0.82836 0.92746 0.22056 0.0
C1208 C 0.84184 0.95807 0.24197 0.0
C1209 C 0.80194 0.9616 0.25716 0.0
C1210 C 0.85249 0.96836 0.2292 0.0
C1211 C 0.86854 0.98179 0.2359 0.0
C1212 C 0.87438 0.98471 0.25534 0.0
C1213 C 0.86346 0.97483 0.26815 0.0
C1214 C 0.8475 0.96142 0.26149 0.0
H1215 H 0.78623 0.96335 0.25669 0.0
H1216 H 0.80575 0.95909 0.27183 0.0
H1217 H 0.81017 0.97554 0.25458 0.0
H1218 H 0.84838 0.96599 0.21407 0.0
H1219 H 0.8766 0.9896 0.22588 0.0
H1220 H 0.78726 0.19076 0.33802 0.0
H1221 H 0.81437 0.17069 0.33748 0.0
H1222 H 0.77845 0.12089 0.30629 0.0
H1223 H 0.75119 0.14067 0.30704 0.0
H1224 H 0.81755 0.13324 0.35062 0.0
H1225 H 0.82595 0.12927 0.27196 0.0
H1226 H 0.81236 0.14709 0.28594 0.0
H1227 H 0.80183 0.12206 0.27898 0.0
C1228 C 0.78501 0.17545 0.3313 0.0
C1229 C 0.76705 0.16738 0.32243 0.0
C1230 C 0.80056 0.16404 0.33093 0.0
C1231 C 0.79849 0.14442 0.3216 0.0
C1232 C 0.78045 0.13613 0.31327 0.0
H1233 H 0.86589 0.04697 0.32023 0.0
H1234 H 0.84363 0.072 0.32815 0.0
C1235 C 0.7649 0.14748 0.31367 0.0
C1236 C 0.81525 0.13267 0.32006 0.0
H1237 H 0.84368 0.10828 0.28731 0.0
C1238 C 0.82338 0.12787 0.33681 0.0
C1239 C 0.82303 0.12598 0.30207 0.0
C1240 C 0.8155 0.13148 0.2837 0.0
C1241 C 0.83867 0.11594 0.33594 0.0
C1242 C 0.84585 0.10851 0.31784 0.0
C1243 C 0.83813 0.11389 0.30118 0.0
C1244 C 0.86074 0.09442 0.31559 0.0
C1245 C 0.84701 0.11143 0.35439 0.0
C1246 C 0.87788 0.0987 0.30602 0.0
C1247 C 0.89062 0.08437 0.3014 0.0
C1248 C 0.88637 0.06541 0.30611 0.0
C1249 C 0.86965 0.06145 0.31647 0.0
C1250 C 0.85693 0.0758 0.3211 0.0
H1251 H 0.84412 0.12263 0.36688 0.0
H1252 H 0.84019 0.09689 0.35701 0.0
H1253 H 0.86288 0.11075 0.35356 0.0
H1254 H 0.88107 0.11295 0.30156 0.0
H1255 H 0.90334 0.08789 0.29337 0.0
H1256 H 0.45421 0.99938 0.97413 0.0
H1257 H 0.42333 0.98276 0.98167 0.0
H1258 H 0.42472 0.02054 0.03669 0.0
H1259 H 0.45645 0.03626 0.02994 0.0
H1260 H 0.41132 0.98435 0.04053 0.0
H1261 H 0.37257 1.00401 0.97863 0.0
H1262 H 0.39231 0.99028 0.97085 0.0
H1263 H 0.39705 0.01421 0.98554 0.0
C1264 C 0.4482 1.00401 0.98799 0.0
C1265 C 0.45792 0.01935 1.00133 0.0
C1266 C 0.4303 0.99467 0.99215 0.0
C1267 C 0.42137 1.00074 0.00953 0.0
C1268 C 0.43117 0.01573 0.02308 0.0
H1269 H 0.29867 0.96208 0.01423 0.0
H1270 H 0.32955 0.98297 0.01736 0.0
C1271 C 0.44926 0.02489 0.01907 0.0
C1272 C 0.40185 0.99143 0.01348 0.0
H1273 H 0.35629 0.97871 0.99384 0.0
C1274 C 0.39921 0.9833 0.03043 0.0
C1275 C 0.38586 0.99044 1.00058 0.0
C1276 C 0.38702 1.00041 0.98301 0.0
C1277 C 0.38124 0.97366 0.03448 0.0
C1278 C 0.36564 0.9715 0.02091 0.0
C1279 C 0.36819 0.98015 1.00425 0.0
C1280 C 0.34666 0.95997 0.02315 0.0
C1281 C 0.37918 0.9662 0.05339 0.0
C1282 C 0.34572 0.94027 0.02621 0.0
C1283 C 0.32792 0.92853 0.0251 0.0
C1284 C 0.31085 0.93612 0.02036 0.0
C1285 C 0.31164 0.95598 0.01811 0.0
C1286 C 0.32931 0.96785 0.01974 0.0
H1287 H 0.38931 0.97507 0.06457 0.0
H1288 H 0.36421 0.96656 0.05863 0.0
H1289 H 0.38284 0.95077 0.05155 0.0
H1290 H 0.35882 0.93356 0.02828 0.0
H1291 H 0.32772 0.9131 0.02642 0.0
H1292 H 0.26078 0.3554 0.31678 0.0
H1293 H 0.24181 0.37869 0.30396 0.0
H1294 H 0.29401 0.41745 0.30055 0.0
H1295 H 0.31302 0.39405 0.31344 0.0
H1296 H 0.24086 0.41856 0.32278 0.0
H1297 H 0.26513 0.41453 0.24757 0.0
H1298 H 0.26797 0.39526 0.26161 0.0
H1299 H 0.28395 0.41773 0.26591 0.0
C1300 C 0.26822 0.36868 0.31284 0.0
C1301 C 0.2883 0.37292 0.3158 0.0
C1302 C 0.25739 0.38201 0.30563 0.0
C1303 C 0.26649 0.39975 0.30117 0.0
C1304 C 0.28672 0.40371 0.3036 0.0
H1305 H 0.21451 0.50721 0.29161 0.0
H1306 H 0.23423 0.48239 0.30034 0.0
C1307 C 0.29756 0.39038 0.31093 0.0
C1308 C 0.25459 0.41467 0.29545 0.0
H1309 H 0.24469 0.43914 0.25858 0.0
C1310 C 0.24169 0.42305 0.30874 0.0
C1311 C 0.2556 0.42042 0.27709 0.0
C1312 C 0.26878 0.41146 0.2621 0.0
C1313 C 0.22995 0.43717 0.30425 0.0
C1314 C 0.23116 0.44314 0.28601 0.0
C1315 C 0.24387 0.4346 0.2726 0.0
C1316 C 0.21924 0.45818 0.28063 0.0
C1317 C 0.21614 0.44545 0.31896 0.0
C1318 C 0.20433 0.45283 0.26656 0.0
C1319 C 0.19293 0.46695 0.26164 0.0
C1320 C 0.19638 0.48677 0.27053 0.0
C1321 C 0.21142 0.49208 0.28453 0.0
C1322 C 0.2227 0.47792 0.28955 0.0
H1323 H 0.21433 0.43672 0.33087 0.0
H1324 H 0.22181 0.46079 0.32519 0.0
H1325 H 0.20173 0.44589 0.31215 0.0
H1326 H 0.20144 0.43767 0.2595 0.0
H1327 H 0.18154 0.46238 0.25073 0.0
H1328 H 0.11085 0.97523 0.49935 0.0
H1329 H 0.14329 0.99365 0.50317 0.0
H1330 H 0.11765 0.04832 0.50855 0.0
H1331 H 0.08533 0.03014 0.5049 0.0
H1332 H 0.14686 0.034 0.47475 0.0
H1333 H 0.17163 0.03958 0.55098 0.0
H1334 H 0.15809 0.01739 0.53843 0.0
H1335 H 0.14625 0.0392 0.54486 0.0
C1336 C 0.11215 0.99119 0.50198 0.0
C1337 C 0.09558 1.00126 0.5017 0.0
C1338 C 0.13066 1.00166 0.50409 0.0
C1339 C 0.13279 0.02231 0.50613 0.0
C1340 C 0.11626 0.03239 0.50705 0.0
H1341 H 0.22519 0.11589 0.52762 0.0
H1342 H 0.19714 0.09141 0.52773 0.0
C1343 C 0.09784 0.02199 0.50491 0.0
C1344 C 0.15197 0.03339 0.50469 0.0
H1345 H 0.19142 0.05689 0.53112 0.0
C1346 C 0.15674 0.03902 0.48701 0.0
C1347 C 0.16473 0.03963 0.52068 0.0
C1348 C 0.16009 0.03371 0.5399 0.0
C1349 C 0.17356 0.05154 0.48496 0.0
C1350 C 0.18624 0.05856 0.50117 0.0
C1351 C 0.18173 0.05202 0.51872 0.0
C1352 C 0.20345 0.07353 0.50078 0.0
C1353 C 0.17686 0.05726 0.46542 0.0
C1354 C 0.21667 0.07192 0.48577 0.0
C1355 C 0.23174 0.08687 0.48498 0.0
C1356 C 0.23473 0.10304 0.49985 0.0
C1357 C 0.22266 0.10391 0.51564 0.0
C1358 C 0.20681 0.08969 0.51581 0.0
H1359 H 0.16297 0.05728 0.45744 0.0
H1360 H 0.18496 0.07194 0.46637 0.0
H1361 H 0.18525 0.04631 0.45686 0.0
H1362 H 0.21534 0.05919 0.47454 0.0
H1363 H 0.24146 0.08547 0.47307 0.0
H1364 H 0.83472 0.15969 0.69214 0.0
H1365 H 0.80987 0.13219 0.69363 0.0
H1366 H 0.76997 0.17336 0.71621 0.0
H1367 H 0.79463 0.20086 0.71397 0.0
H1368 H 0.79613 0.12323 0.72552 0.0
H1369 H 0.7341 0.13501 0.68044 0.0
H1370 H 0.75783 0.14808 0.67932 0.0
H1371 H 0.74159 0.15643 0.69784 0.0
C1372 C 0.82041 0.16282 0.69679 0.0
C1373 C 0.81648 0.18233 0.7028 0.0
C1374 C 0.80625 0.14713 0.69774 0.0
C1375 C 0.78795 0.15063 0.70493 0.0
C1376 C 0.78375 0.17021 0.71015 0.0
H1377 H 0.71842 0.07351 0.76818 0.0
H1378 H 0.74129 0.09843 0.75716 0.0
C1379 C 0.79786 0.18594 0.70891 0.0
C1380 C 0.77427 0.13389 0.70911 0.0
H1381 H 0.72724 0.11341 0.70359 0.0
C1382 C 0.78111 0.121 0.72053 0.0
C1383 C 0.7547 0.13075 0.70248 0.0
C1384 C 0.74668 0.14319 0.68917 0.0
C1385 C 0.7689 0.10546 0.72589 0.0
C1386 C 0.74908 0.10304 0.72022 0.0
C1387 C 0.74234 0.11549 0.70828 0.0
C1388 C 0.73508 0.08795 0.72686 0.0
C1389 C 0.77749 0.09167 0.73742 0.0
C1390 C 0.72361 0.07402 0.71355 0.0
C1391 C 0.71026 0.06002 0.7199 0.0
C1392 C 0.70787 0.06006 0.73963 0.0
C1393 C 0.71963 0.07364 0.7529 0.0
C1394 C 0.7329 0.08765 0.74659 0.0
H1395 H 0.79324 0.09136 0.735 0.0
H1396 H 0.77571 0.09687 0.75294 0.0
H1397 H 0.77025 0.07641 0.73372 0.0
H1398 H 0.72506 0.07393 0.69827 0.0
H1399 H 0.70158 0.04937 0.70943 0.0
H1400 H 0.4564 0.05489 0.55079 0.0
H1401 H 0.42742 0.0681 0.5402 0.0
H1402 H 0.42533 0.02701 0.48715 0.0
H1403 H 0.45461 0.01377 0.49778 0.0
H1404 H 0.42577 0.08374 0.502 0.0
H1405 H 0.36825 0.02369 0.51103 0.0
H1406 H 0.39067 0.02756 0.52506 0.0
H1407 H 0.39058 0.01753 0.50001 0.0
C1408 C 0.44955 0.04849 0.537 0.0
C1409 C 0.4575 0.03328 0.52512 0.0
C1410 C 0.43308 0.05607 0.53095 0.0
C1411 C 0.4242 0.04849 0.51295 0.0
C1412 C 0.43189 0.03293 0.50117 0.0
H1413 H 0.31716 0.08815 0.4709 0.0
H1414 H 0.34548 0.06987 0.47242 0.0
C1415 C 0.44853 0.02538 0.50722 0.0
C1416 C 0.40756 0.05778 0.50635 0.0
H1417 H 0.35819 0.05256 0.5022 0.0
C1418 C 0.411 0.07685 0.50182 0.0
C1419 C 0.38836 0.04869 0.50595 0.0
C1420 C 0.38404 0.02825 0.5108 0.0
C1421 C 0.39569 0.0873 0.49742 0.0
C1422 C 0.37636 0.07866 0.49806 0.0
C1423 C 0.37298 0.05923 0.50179 0.0
C1424 C 0.35956 0.09007 0.49638 0.0
C1425 C 0.40039 0.10757 0.49222 0.0
C1426 C 0.35798 0.10743 0.50937 0.0
C1427 C 0.34193 0.1179 0.50848 0.0
C1428 C 0.32693 0.11117 0.49469 0.0
C1429 C 0.32851 0.09381 0.48161 0.0
C1430 C 0.34466 0.08331 0.4825 0.0
H1431 H 0.41501 0.10922 0.48608 0.0
H1432 H 0.38959 0.11072 0.48169 0.0
H1433 H 0.40035 0.11876 0.50539 0.0
H1434 H 0.36901 0.11271 0.52051 0.0
H1435 H 0.34113 0.13111 0.51889 0.0
H1436 H 0.58787 0.50911 0.52815 0.0
H1437 H 0.6155 0.49012 0.52155 0.0
H1438 H 0.64333 0.51929 0.57499 0.0
H1439 H 0.61587 0.53871 0.58153 0.0
H1440 H 0.66829 0.51587 0.54298 0.0
H1441 H 0.6268 0.44446 0.55 0.0
H1442 H 0.61603 0.45779 0.5335 0.0
H1443 H 0.61809 0.4679 0.55864 0.0
C1444 C 0.59998 0.51173 0.53838 0.0
C1445 C 0.59963 0.52544 0.55539 0.0
C1446 C 0.61567 0.50068 0.53469 0.0
C1447 C 0.63131 0.50306 0.54793 0.0
C1448 C 0.63132 0.51712 0.56465 0.0
H1449 H 0.71915 0.42076 0.54577 0.0
H1450 H 0.69417 0.44247 0.55581 0.0
C1451 C 0.61559 0.52814 0.5684 0.0
C1452 C 0.64759 0.49075 0.54432 0.0
H1453 H 0.65827 0.44304 0.53736 0.0
C1454 C 0.66615 0.49996 0.54185 0.0
C1455 C 0.64481 0.47002 0.54316 0.0
C1456 C 0.62541 0.45942 0.54663 0.0
C1457 C 0.68189 0.48892 0.53764 0.0
C1458 C 0.67892 0.46812 0.53565 0.0
C1459 C 0.66049 0.45897 0.53872 0.0
C1460 C 0.69461 0.45552 0.52989 0.0
C1461 C 0.70158 0.49961 0.53543 0.0
C1462 C 0.70303 0.45553 0.51193 0.0
C1463 C 0.71727 0.44314 0.50612 0.0
C1464 C 0.72338 0.43036 0.51813 0.0
C1465 C 0.7149 0.43042 0.53616 0.0
C1466 C 0.70059 0.44281 0.54193 0.0
H1467 H 0.70257 0.51527 0.54245 0.0
H1468 H 0.71315 0.49238 0.54165 0.0
H1469 H 0.70428 0.49934 0.51992 0.0
H1470 H 0.69836 0.46491 0.50223 0.0
H1471 H 0.72334 0.44347 0.49209 0.0
H1472 H 0.73105 0.24551 0.33651 0.0
H1473 H 0.7297 0.27133 0.36449 0.0
H1474 H 0.7247 0.22718 0.40154 0.0
H1475 H 0.72683 0.20142 0.37365 0.0
H1476 H 0.70437 0.28001 0.39194 0.0
H1477 H 0.77143 0.26155 0.42525 0.0
H1478 H 0.76328 0.25074 0.40118 0.0
H1479 H 0.75255 0.24147 0.4215 0.0
C1480 C 0.72948 0.24134 0.35062 0.0
C1481 C 0.72927 0.22153 0.35299 0.0
C1482 C 0.72872 0.25608 0.3666 0.0
C1483 C 0.72756 0.25126 0.38519 0.0
C1484 C 0.7262 0.23133 0.38743 0.0
H1485 H 0.71213 0.34455 0.48419 0.0
H1486 H 0.70536 0.31584 0.45862 0.0
C1487 C 0.72731 0.21663 0.3715 0.0
C1488 C 0.7286 0.26716 0.40219 0.0
H1489 H 0.75507 0.28612 0.44326 0.0
C1490 C 0.71547 0.2814 0.40318 0.0
C1491 C 0.74316 0.26902 0.41679 0.0
C1492 C 0.75852 0.255 0.41609 0.0
C1493 C 0.71672 0.29765 0.4181 0.0
C1494 C 0.73123 0.29946 0.43279 0.0
C1495 C 0.74397 0.28485 0.43204 0.0
C1496 C 0.73464 0.31698 0.44826 0.0
C1497 C 0.70293 0.31299 0.41748 0.0
C1498 C 0.75343 0.32675 0.45156 0.0
C1499 C 0.75734 0.34259 0.46646 0.0
C1500 C 0.74246 0.34963 0.47797 0.0
C1501 C 0.7237 0.33977 0.47503 0.0
C1502 C 0.71982 0.3235 0.46032 0.0
H1503 H 0.69699 0.31262 0.4027 0.0
H1504 H 0.69059 0.3101 0.42683 0.0
H1505 H 0.71014 0.32795 0.4227 0.0
H1506 H 0.76521 0.32201 0.44268 0.0
H1507 H 0.77213 0.34926 0.46909 0.0
H1508 H 0.56153 1.00109 0.94444 0.0
H1509 H 0.58236 1.0039 0.91696 0.0
H1510 H 0.55735 0.05645 0.90815 0.0
H1511 H 0.5365 0.05363 0.93577 0.0
H1512 H 0.56872 1.00359 0.87878 0.0
H1513 H 0.6164 0.07213 0.90647 0.0
H1514 H 0.60243 0.05813 0.92207 0.0
H1515 H 0.59087 0.07391 0.90863 0.0
C1516 C 0.56078 0.01343 0.93681 0.0
C1517 C 0.54769 0.02729 0.9422 0.0
C1518 C 0.57259 0.01497 0.92111 0.0
C1519 C 0.57155 0.03047 0.91061 0.0
C1520 C 0.55863 0.04456 0.91624 0.0
H1521 H 0.6255 0.06291 0.80882 0.0
H1522 H 0.6067 0.06039 0.83739 0.0
C1523 C 0.54675 0.04297 0.93196 0.0
C1524 C 0.58318 0.03117 0.89315 0.0
H1525 H 0.61888 0.05885 0.87361 0.0
C1526 C 0.57976 0.01561 0.87765 0.0
C1527 C 0.59751 0.04689 0.89172 0.0
C1528 C 0.60221 0.06367 0.90814 0.0
C1529 C 0.59 0.01556 0.86059 0.0
C1530 C 0.6044 0.03127 0.85914 0.0
C1531 C 0.60787 0.04678 0.87471 0.0
C1532 C 0.61567 0.03226 0.84144 0.0
C1533 C 0.58486 0.99897 0.84407 0.0
C1534 C 0.62708 0.01728 0.83415 0.0
C1535 C 0.63781 0.01857 0.81761 0.0
C1536 C 0.63753 0.03502 0.80818 0.0
C1537 C 0.62613 0.05001 0.81563 0.0
C1538 C 0.61536 0.04863 0.83204 0.0
H1539 H 0.57026 0.99121 0.84554 0.0
H1540 H 0.58521 1.00448 0.83012 0.0
H1541 H 0.59553 0.98806 0.8438 0.0
H1542 H 0.62792 1.0047 0.84139 0.0
H1543 H 0.64655 0.00685 0.81241 0.0
H1544 H 0.29693 0.28565 0.3568 0.0
H1545 H 0.29448 0.26058 0.37778 0.0
H1546 H 0.35668 0.26505 0.3833 0.0
H1547 H 0.3593 0.29033 0.3623 0.0
H1548 H 0.31612 0.22251 0.37072 0.0
H1549 H 0.33236 0.27276 0.44042 0.0
H1550 H 0.32199 0.28135 0.42007 0.0
H1551 H 0.34669 0.27608 0.4198 0.0
C1552 C 0.31011 0.28145 0.36259 0.0
C1553 C 0.32831 0.29006 0.35793 0.0
C1554 C 0.30868 0.26705 0.37449 0.0
C1555 C 0.32539 0.26107 0.38216 0.0
C1556 C 0.34362 0.26956 0.37758 0.0
H1557 H 0.31848 0.18015 0.46824 0.0
H1558 H 0.33292 0.20242 0.44703 0.0
C1559 C 0.34507 0.28389 0.36551 0.0
C1560 C 0.32349 0.24569 0.39468 0.0
H1561 H 0.3222 0.23947 0.44176 0.0
C1562 C 0.31772 0.22614 0.38624 0.0
C1563 C 0.32582 0.25044 0.41488 0.0
C1564 C 0.33203 0.27127 0.4245 0.0
C1565 C 0.3135 0.21133 0.39753 0.0
C1566 C 0.31457 0.21629 0.41782 0.0
C1567 C 0.32134 0.23566 0.42623 0.0
C1568 C 0.3065 0.20224 0.43037 0.0
C1569 C 0.30757 0.19053 0.38759 0.0
C1570 C 0.28689 0.19493 0.4282 0.0
C1571 C 0.27867 0.18233 0.44016 0.0
C1572 C 0.28978 0.17676 0.45485 0.0
C1573 C 0.30951 0.18404 0.45704 0.0
C1574 C 0.31777 0.1968 0.44497 0.0
H1575 H 0.31386 0.18781 0.37312 0.0
H1576 H 0.31215 0.17955 0.39614 0.0
H1577 H 0.29158 0.18823 0.38563 0.0
H1578 H 0.27777 0.19925 0.41737 0.0
H1579 H 0.26344 0.17711 0.43793 0.0
H1580 H 0.56171 0.48869 0.94101 0.0
H1581 H 0.5462 0.49742 0.9126 0.0
H1582 H 0.50055 0.52013 0.94748 0.0
H1583 H 0.51605 0.51157 0.97602 0.0
H1584 H 0.50565 0.48263 0.89997 0.0
H1585 H 0.51947 0.56449 0.91473 0.0
H1586 H 0.53421 0.54881 0.92545 0.0
H1587 H 0.51041 0.55219 0.93398 0.0
C1588 C 0.54851 0.49578 0.94268 0.0
C1589 C 0.5401 0.49942 0.96076 0.0
C1590 C 0.53965 0.50071 0.92645 0.0
C1591 C 0.52236 0.50961 0.928 0.0
C1592 C 0.51403 0.5135 0.94604 0.0
H1593 H 0.44467 0.539 0.84073 0.0
H1594 H 0.46225 0.53875 0.87116 0.0
C1595 C 0.52279 0.50842 0.96227 0.0
C1596 C 0.51243 0.51357 0.91051 0.0
H1597 H 0.50047 0.55039 0.88692 0.0
C1598 C 0.50454 0.49743 0.89709 0.0
C1599 C 0.5108 0.53291 0.90696 0.0
C1600 C 0.51924 0.55068 0.92093 0.0
C1601 C 0.49504 0.50008 0.88017 0.0
C1602 C 0.49391 0.51941 0.87627 0.0
C1603 C 0.5015 0.5356 0.88987 0.0
C1604 C 0.48512 0.52281 0.85793 0.0
C1605 C 0.48602 0.48208 0.86678 0.0
C1606 C 0.49273 0.51494 0.8404 0.0
C1607 C 0.4827 0.51494 0.82313 0.0
C1608 C 0.46504 0.52317 0.823 0.0
C1609 C 0.45832 0.53268 0.8404 0.0
C1610 C 0.46828 0.53244 0.85778 0.0
H1611 H 0.4833 0.46915 0.87429 0.0
H1612 H 0.47212 0.48487 0.86032 0.0
H1613 H 0.49605 0.4782 0.85498 0.0
H1614 H 0.50595 0.50788 0.84014 0.0
H1615 H 0.4883 0.50764 0.80992 0.0
H1616 H 0.75032 0.79492 0.18633 0.0
H1617 H 0.75597 0.76929 0.15934 0.0
H1618 H 0.69991 0.77391 0.13459 0.0
H1619 H 0.69431 0.79983 0.16126 0.0
H1620 H 0.73409 0.73214 0.14388 0.0
H1621 H 0.73862 0.78546 0.09248 0.0
H1622 H 0.74008 0.79317 0.1182 0.0
H1623 H 0.71704 0.78479 0.10623 0.0
C1624 C 0.73915 0.79039 0.17519 0.0
C1625 C 0.72193 0.79953 0.17587 0.0
C1626 C 0.74237 0.77571 0.15983 0.0
C1627 C 0.7285 0.76998 0.14482 0.0
C1628 C 0.71092 0.77836 0.1459 0.0
H1629 H 0.72581 0.69442 0.03407 0.0
H1630 H 0.71907 0.71727 0.06273 0.0
C1631 C 0.70766 0.79301 0.16127 0.0
C1632 C 0.73276 0.75583 0.12766 0.0
H1633 H 0.73982 0.75195 0.07943 0.0
C1634 C 0.73539 0.73644 0.12978 0.0
C1635 C 0.73449 0.76154 0.10932 0.0
C1636 C 0.73259 0.78241 0.10634 0.0
C1637 C 0.73931 0.72245 0.11394 0.0
C1638 C 0.74105 0.72816 0.09557 0.0
C1639 C 0.73847 0.74759 0.0935 0.0
C1640 C 0.74535 0.71421 0.07825 0.0
C1641 C 0.7411 0.70157 0.11692 0.0
C1642 C 0.76254 0.70513 0.0773 0.0
C1643 C 0.76646 0.69199 0.06091 0.0
C1644 C 0.75333 0.6878 0.04505 0.0
C1645 C 0.73629 0.69726 0.04596 0.0
C1646 C 0.73237 0.71033 0.06236 0.0
H1647 H 0.73437 0.69838 0.13044 0.0
H1648 H 0.73421 0.6908 0.10473 0.0
H1649 H 0.75665 0.69935 0.11785 0.0
H1650 H 0.77299 0.70826 0.0892 0.0
H1651 H 0.77978 0.6851 0.06072 0.0
H1652 H 0.07251 0.03106 0.12478 0.0
H1653 H 0.05491 0.02334 0.15303 0.0
H1654 H 1.00109 0.03088 0.1254 0.0
H1655 H 0.01843 0.038 0.09701 0.0
H1656 H 0.03193 0.04716 0.1766 0.0
H1657 H 0.98908 0.97776 0.1432 0.0
H1658 H 0.0098 0.9886 0.13195 0.0
H1659 H 0.98665 0.99781 0.13032 0.0
C1660 C 0.0569 0.03074 0.12461 0.0
C1661 C 0.04688 0.03513 0.10863 0.0
C1662 C 0.04688 0.02647 0.14081 0.0
C1663 C 0.02666 0.02631 0.14124 0.0
C1664 C 0.01664 0.03058 0.12527 0.0
H1665 H 0.95048 0.03988 0.23721 0.0
H1666 H 0.9723 0.04455 0.21105 0.0
C1667 C 0.02661 0.03486 0.10913 0.0
C1668 C 0.01601 0.02243 0.15859 0.0
H1669 H 0.9787 0.99299 0.17362 0.0
C1670 C 0.02041 0.03521 0.17601 0.0
C1671 C 1.00116 0.00668 0.15787 0.0
C1672 C 0.9965 0.9918 0.13988 0.0
C1673 C 0.00992 0.03304 0.19259 0.0
C1674 C 0.99441 0.01789 0.1916 0.0
C1675 C 0.99045 1.00474 0.17433 0.0
C1676 C 0.98194 0.01547 0.2082 0.0
C1677 C 0.01564 0.04691 0.21101 0.0
C1678 C 0.97982 0.99746 0.21513 0.0
C1679 C 0.96721 0.99466 0.22997 0.0
C1680 C 0.95636 0.00981 0.2382 0.0
C1681 C 0.95868 0.02793 0.23135 0.0
C1682 C 0.97126 0.03068 0.21645 0.0
H1683 H 0.03089 0.05356 0.2109 0.0
H1684 H 0.00624 0.05907 0.2127 0.0
H1685 H 0.01387 0.03923 0.22366 0.0
H1686 H 0.98784 0.98548 0.20893 0.0
H1687 H 0.96582 0.98049 0.23481 0.0
H1688 H 0.34493 0.74293 0.12903 0.0
H1689 H 0.33177 0.76266 0.1069 0.0
H1690 H 0.29657 0.7887 0.15196 0.0
H1691 H 0.30996 0.76913 0.17415 0.0
H1692 H 0.29393 0.76741 0.09415 0.0
H1693 H 0.33001 0.83627 0.13719 0.0
H1694 H 0.33559 0.81214 0.14066 0.0
H1695 H 0.31401 0.82157 0.15036 0.0
C1696 C 0.33403 0.75253 0.134 0.0
C1697 C 0.32828 0.75451 0.15313 0.0
C1698 C 0.32659 0.76384 0.12141 0.0
C1699 C 0.31345 0.77741 0.12787 0.0
C1700 C 0.30694 0.77857 0.14677 0.0
H1701 H 0.26561 0.86899 0.07623 0.0
H1702 H 0.27417 0.84626 0.09746 0.0
C1703 C 0.31441 0.76727 0.15936 0.0
C1704 C 0.30748 0.79107 0.11517 0.0
H1705 H 0.31025 0.8398 0.11074 0.0
C1706 C 0.29748 0.78323 0.09776 0.0
C1707 C 0.3122 0.81173 0.11987 0.0
C1708 C 0.32369 0.82098 0.13794 0.0
C1709 C 0.29184 0.79551 0.08506 0.0
C1710 C 0.29665 0.81615 0.08973 0.0
C1711 C 0.30656 0.82398 0.10718 0.0
C1712 C 0.29159 0.82993 0.07673 0.0
C1713 C 0.28047 0.78629 0.06692 0.0
C1714 C 0.29885 0.82859 0.05812 0.0
C1715 C 0.294 0.84159 0.04594 0.0
C1716 C 0.28188 0.85628 0.05218 0.0
C1717 C 0.27496 0.85784 0.07096 0.0
C1718 C 0.27982 0.84484 0.08312 0.0
H1719 H 0.27357 0.77127 0.06794 0.0
H1720 H 0.26903 0.7955 0.06373 0.0
H1721 H 0.29039 0.78502 0.05469 0.0
H1722 H 0.30833 0.81751 0.05303 0.0
H1723 H 0.29963 0.84003 0.0316 0.0
H1724 H 1.00167 0.50596 0.09257 0.0
H1725 H 0.01896 0.51645 0.12386 0.0
H1726 H 0.0713 0.49692 0.09888 0.0
H1727 H 0.05433 0.48663 0.06783 0.0
H1728 H 0.04025 0.49113 0.14524 0.0
H1729 H 0.08678 0.55486 0.12591 0.0
H1730 H 0.06471 0.54441 0.11265 0.0
H1731 H 0.08647 0.53253 0.10886 0.0
C1732 C 0.0169 0.50411 0.09378 0.0
C1733 C 0.02661 0.49538 0.07779 0.0
C1734 C 0.02672 0.50999 0.11163 0.0
C1735 C 0.04643 0.50755 0.11363 0.0
C1736 C 0.05615 0.49909 0.09762 0.0
H1737 H 0.12445 0.50271 0.20866 0.0
H1738 H 0.10154 0.49542 0.18114 0.0
C1739 C 0.04638 0.4931 0.07992 0.0
C1740 C 0.05702 0.51335 0.13243 0.0
H1741 H 0.09589 0.54317 0.15437 0.0
C1742 C 0.05228 0.50266 0.14736 0.0
C1743 C 0.07263 0.52845 0.13518 0.0
C1744 C 0.0779 0.54087 0.11988 0.0
C1745 C 0.06319 0.50625 0.16475 0.0
C1746 C 0.07935 0.52077 0.16716 0.0
C1747 C 0.08363 0.53191 0.15246 0.0
C1748 C 0.09216 0.52464 0.1847 0.0
C1749 C 0.05735 0.49448 0.1804 0.0
C1750 C 0.09463 0.5435 0.19579 0.0
C1751 C 0.10774 0.54774 0.21146 0.0
C1752 C 0.11885 0.53324 0.21638 0.0
C1753 C 0.11611 0.51422 0.20541 0.0
C1754 C 0.10293 0.50999 0.18971 0.0
H1755 H 0.04205 0.48784 0.17841 0.0
H1756 H 0.06667 0.48234 0.18007 0.0
H1757 H 0.05924 0.50383 0.19478 0.0
H1758 H 0.08655 0.55506 0.19215 0.0
H1759 H 0.10941 0.56257 0.21949 0.0
H1760 H 0.37927 0.73916 0.24097 0.0
H1761 H 0.40192 0.73851 0.26762 0.0
H1762 H 0.40496 0.67647 0.2489 0.0
H1763 H 0.38236 0.677 0.22195 0.0
H1764 H 0.3935 0.7099 0.29602 0.0
H1765 H 0.46341 0.70458 0.25863 0.0
H1766 H 0.4437 0.71545 0.24888 0.0
H1767 H 0.442 0.68934 0.24833 0.0
C1768 C 0.38503 0.72545 0.24227 0.0
C1769 C 0.37906 0.70814 0.22931 0.0
C1770 C 0.39788 0.72509 0.25756 0.0
C1771 C 0.40517 0.70748 0.26011 0.0
C1772 C 0.3996 0.69023 0.24703 0.0
H1773 H 0.48828 0.69825 0.35323 0.0
H1774 H 0.46522 0.68814 0.32574 0.0
C1775 C 0.38661 0.69054 0.23176 0.0
C1776 C 0.41755 0.70713 0.27724 0.0
H1777 H 0.46454 0.70788 0.2924 0.0
C1778 C 0.409 0.70923 0.29523 0.0
C1779 C 0.4377 0.70601 0.27609 0.0
C1780 C 0.44741 0.70377 0.257 0.0
C1781 C 0.42019 0.71091 0.31221 0.0
C1782 C 0.44049 0.71093 0.31122 0.0
C1783 C 0.44896 0.7079 0.29315 0.0
C1784 C 0.45326 0.7161 0.32871 0.0
C1785 C 0.41024 0.71295 0.33111 0.0
C1786 C 0.45416 0.73512 0.33943 0.0
C1787 C 0.46735 0.7409 0.35489 0.0
C1788 C 0.4796 0.72767 0.36027 0.0
C1789 C 0.47862 0.70856 0.34966 0.0
C1790 C 0.46554 0.70281 0.33397 0.0
H1791 H 0.39466 0.70724 0.32936 0.0
H1792 H 0.41731 0.70492 0.34123 0.0
H1793 H 0.41124 0.72879 0.33743 0.0
H1794 H 0.44519 0.74578 0.33535 0.0
H1795 H 0.46854 0.75603 0.36211 0.0
H1796 H 0.04644 0.44591 0.02998 0.0
H1797 H 0.05332 0.414 0.01245 0.0
H1798 H 0.99514 0.40397 0.98834 0.0
H1799 H 0.98799 0.43569 0.00604 0.0
H1800 H 0.03447 0.37609 0.01437 0.0
H1801 H 0.02925 0.39473 0.94099 0.0
H1802 H 0.03181 0.41326 0.9623 0.0
H1803 H 0.00858 0.39986 0.95523 0.0
C1804 C 0.03503 0.43686 0.02108 0.0
C1805 C 0.01664 0.4434 0.01943 0.0
C1806 C 0.03905 0.41868 0.01098 0.0
C1807 C 0.02484 0.40676 0.99889 0.0
C1808 C 0.00644 0.41314 0.99729 0.0
H1809 H 0.0064 0.28475 0.95368 0.0
H1810 H 0.00933 0.31732 0.97331 0.0
C1811 C 1.00239 0.43128 0.00741 0.0
C1812 C 0.02903 0.3874 0.98829 0.0
H1813 H 0.02917 0.36062 0.94322 0.0
C1814 C 0.03352 0.37276 0.9988 0.0
C1815 C 0.02811 0.38317 0.96799 0.0
C1816 C 0.02436 0.39863 0.95592 0.0
C1817 C 0.03624 0.35371 0.98956 0.0
C1818 C 0.03423 0.34918 0.9693 0.0
C1819 C 0.03062 0.36408 0.95876 0.0
C1820 C 0.03423 0.32877 0.95885 0.0
C1821 C 0.04104 0.33856 1.00156 0.0
C1822 C 0.04733 0.32429 0.9442 0.0
C1823 C 0.04571 0.30556 0.93287 0.0
C1824 C 0.03075 0.29111 0.93583 0.0
C1825 C 0.0181 0.29549 0.95098 0.0
C1826 C 0.01982 0.31411 0.96233 0.0
H1827 H 0.04785 0.34562 0.01565 0.0
H1828 H 0.0275 0.3296 1.00438 0.0
H1829 H 0.05096 0.3285 0.994 0.0
H1830 H 0.05848 0.33546 0.9412 0.0
H1831 H 0.05559 0.30274 0.92124 0.0
H1832 H 0.67979 0.83635 0.26897 0.0
H1833 H 0.65966 0.82499 0.29424 0.0
H1834 H 0.6179 0.79429 0.25109 0.0
H1835 H 0.63816 0.80556 0.22582 0.0
H1836 H 0.62176 0.8336 0.30129 0.0
H1837 H 0.62529 0.7528 0.28556 0.0
H1838 H 0.6423 0.77019 0.27617 0.0
H1839 H 0.61854 0.76356 0.26522 0.0
C1840 C 0.66649 0.82684 0.26494 0.0
C1841 C 0.66051 0.82157 0.24559 0.0
C1842 C 0.65498 0.82045 0.27934 0.0
C1843 C 0.63737 0.80863 0.27455 0.0
C1844 C 0.6316 0.80307 0.25509 0.0
H1845 H 0.5382 0.79168 0.3459 0.0
H1846 H 0.5613 0.80192 0.32255 0.0
C1847 C 0.64311 0.80951 0.2407 0.0
C1848 C 0.6245 0.80322 0.28994 0.0
H1849 H 0.60189 0.76403 0.30787 0.0
C1850 C 0.61748 0.81839 0.30279 0.0
C1851 C 0.61907 0.78338 0.29199 0.0
C1852 C 0.6268 0.76652 0.27913 0.0
C1853 C 0.6049 0.81425 0.3174 0.0
C1854 C 0.59901 0.79441 0.31907 0.0
C1855 C 0.60632 0.77924 0.30647 0.0
C1856 C 0.58524 0.78906 0.33378 0.0
C1857 C 0.59818 0.83115 0.33106 0.0
C1858 C 0.59099 0.77835 0.34779 0.0
C1859 C 0.57783 0.7725 0.36116 0.0
C1860 C 0.55859 0.77708 0.36066 0.0
C1861 C 0.55293 0.78802 0.34675 0.0
C1862 C 0.56613 0.79393 0.33342 0.0
H1863 H 0.60762 0.84511 0.33089 0.0
H1864 H 0.58327 0.83342 0.32673 0.0
H1865 H 0.59788 0.82791 0.34598 0.0
H1866 H 0.60566 0.7744 0.34829 0.0
H1867 H 0.58265 0.76401 0.37162 0.0
H1868 H 0.05906 0.07169 0.00531 0.0
H1869 H 0.05792 0.09179 0.97957 0.0
H1870 H 0.06826 0.14462 0.02175 0.0
H1871 H 0.06998 0.12457 0.04716 0.0
H1872 H 0.03176 0.11578 0.97564 0.0
H1873 H 0.10297 0.15991 0.98083 0.0
H1874 H 0.09841 0.13849 0.99243 0.0
H1875 H 0.09208 0.16213 1.00385 0.0
C1876 C 0.06178 0.08759 0.00887 0.0
C1877 C 0.06495 0.0967 0.02803 0.0
C1878 C 0.06099 0.09906 0.99423 0.0
C1879 C 0.0633 0.11978 0.99863 0.0
C1880 C 0.06704 0.12874 0.01783 0.0
H1881 H 0.00726 0.20274 0.9454 0.0
H1882 H 0.01702 0.17807 0.96365 0.0
C1883 C 0.06795 0.11729 0.03237 0.0
C1884 C 0.05959 0.13207 0.98371 0.0
H1885 H 0.07677 0.17391 0.96665 0.0
C1886 C 0.04177 0.12829 0.97345 0.0
C1887 C 0.0727 0.14826 0.98054 0.0
C1888 C 0.09269 0.15229 0.98986 0.0
C1889 C 0.03633 0.14077 0.9609 0.0
C1890 C 0.04878 0.15784 0.95895 0.0
C1891 C 0.06703 0.16106 0.96841 0.0
C1892 C 0.04291 0.17286 0.9477 0.0
C1893 C 0.01724 0.13549 0.94989 0.0
C1894 C 0.05453 0.17874 0.93306 0.0
C1895 C 0.04914 0.19313 0.92275 0.0
C1896 C 0.03198 0.20198 0.92687 0.0
C1897 C 0.02046 0.19616 0.94167 0.0
C1898 C 0.02596 0.1819 0.95205 0.0
H1899 H 0.01282 0.11936 0.94785 0.0
H1900 H 0.00585 0.14293 0.95815 0.0
H1901 H 0.01792 0.14021 0.93557 0.0
H1902 H 0.06775 0.17209 0.92952 0.0
H1903 H 0.05838 0.19722 0.91146 0.0
H1904 H 0.35212 0.28608 0.29339 0.0
H1905 H 0.37718 0.28376 0.26943 0.0
H1906 H 0.3918 0.34673 0.28172 0.0
H1907 H 0.36695 0.34913 0.30619 0.0
H1908 H 0.38196 0.30161 0.23639 0.0
H1909 H 0.44408 0.32497 0.28857 0.0
H1910 H 0.42005 0.31766 0.29608 0.0
H1911 H 0.42556 0.34135 0.28896 0.0
C1912 C 0.36071 0.29946 0.29109 0.0
C1913 C 0.35766 0.31777 0.30188 0.0
C1914 C 0.37496 0.29812 0.27729 0.0
C1915 C 0.38658 0.31502 0.27398 0.0
C1916 C 0.38323 0.33344 0.28427 0.0
H1917 H 0.48529 0.30805 0.19479 0.0
H1918 H 0.46123 0.32285 0.21633 0.0
C1919 C 0.36889 0.33481 0.2981 0.0
C1920 C 0.40224 0.31299 0.25984 0.0
H1921 H 0.45145 0.31493 0.25629 0.0
C1922 C 0.39714 0.3048 0.2407 0.0
C1923 C 0.42208 0.31725 0.26543 0.0
C1924 C 0.4284 0.32568 0.28588 0.0
C1925 C 0.41129 0.30005 0.22721 0.0
C1926 C 0.43107 0.30333 0.23303 0.0
C1927 C 0.43627 0.31248 0.25188 0.0
C1928 C 0.44616 0.29493 0.2205 0.0
C1929 C 0.40495 0.29096 0.20692 0.0
C1930 C 0.44589 0.27443 0.21612 0.0
C1931 C 0.45953 0.26599 0.20405 0.0
C1932 C 0.47391 0.27783 0.19597 0.0
C1933 C 0.47444 0.29848 0.2007 0.0
C1934 C 0.46071 0.30696 0.21298 0.0
H1935 H 0.39021 0.29444 0.20332 0.0
H1936 H 0.41521 0.29617 0.19641 0.0
H1937 H 0.40462 0.2747 0.20539 0.0
H1938 H 0.43498 0.26488 0.222 0.0
H1939 H 0.45857 0.25006 0.20088 0.0
H1940 H 0.51528 0.45157 0.06028 0.0
H1941 H 0.51458 0.42568 0.0803 0.0
H1942 H 0.566 0.40562 0.0535 0.0
H1943 H 0.56637 0.43141 0.03306 0.0
H1944 H 0.53839 0.37554 0.05422 0.0
H1945 H 0.54639 0.42019 0.12678 0.0
H1946 H 0.5268 0.42673 0.11316 0.0
H1947 H 0.55124 0.4307 0.10528 0.0
C1948 C 0.52665 0.44186 0.059 0.0
C1949 C 0.54102 0.44351 0.04543 0.0
C1950 C 0.5263 0.42713 0.07048 0.0
C1951 C 0.54044 0.41388 0.0687 0.0
C1952 C 0.55504 0.41577 0.05526 0.0
H1953 H 0.549 0.32848 0.14659 0.0
H1954 H 0.55452 0.35634 0.12919 0.0
C1955 C 0.55532 0.43051 0.04368 0.0
C1956 C 0.53903 0.39724 0.07985 0.0
H1957 H 0.53389 0.38624 0.12518 0.0
C1958 C 0.53761 0.37789 0.06976 0.0
C1959 C 0.53824 0.40026 0.10015 0.0
C1960 C 0.54096 0.4206 0.11198 0.0
C1961 C 0.53485 0.36152 0.07932 0.0
C1962 C 0.53296 0.36454 0.09952 0.0
C1963 C 0.53499 0.38389 0.10968 0.0
C1964 C 0.52914 0.34785 0.11042 0.0
C1965 C 0.53423 0.34115 0.06767 0.0
C1966 C 0.51278 0.334 0.106 0.0
C1967 C 0.50964 0.31796 0.11587 0.0
C1968 C 0.52267 0.31559 0.13053 0.0
C1969 C 0.53868 0.32984 0.13536 0.0
C1970 C 0.54187 0.34579 0.12541 0.0
H1971 H 0.54153 0.34144 0.05379 0.0
H1972 H 0.54123 0.33105 0.07569 0.0
H1973 H 0.51892 0.33507 0.06441 0.0
H1974 H 0.50245 0.33555 0.09486 0.0
H1975 H 0.4971 0.30733 0.11188 0.0
H1976 H 0.6983 0.21756 0.25217 0.0
H1977 H 0.66999 0.22855 0.2375 0.0
H1978 H 0.63404 0.20824 0.28129 0.0
H1979 H 0.66246 0.19733 0.29604 0.0
H1980 H 0.63731 0.20267 0.22323 0.0
H1981 H 0.61731 0.2635 0.27836 0.0
H1982 H 0.64098 0.25482 0.27797 0.0
H1983 H 0.62084 0.24101 0.28707 0.0
C1984 C 0.6844 0.21589 0.25887 0.0
C1985 C 0.68242 0.20684 0.27525 0.0
C1986 C 0.66827 0.22209 0.25047 0.0
C1987 C 0.64994 0.21938 0.2584 0.0
C1988 C 0.64809 0.21081 0.27515 0.0
H1989 H 0.53894 0.2116 0.19824 0.0
H1990 H 0.56671 0.20617 0.21758 0.0
C1991 C 0.66427 0.20456 0.28353 0.0
C1992 C 0.63259 0.2239 0.24811 0.0
H1993 H 0.59497 0.25233 0.25211 0.0
C1994 C 0.62809 0.21356 0.22953 0.0
C1995 C 0.62064 0.23819 0.25632 0.0
C1996 C 0.6252 0.25018 0.27597 0.0
C1997 C 0.61183 0.21695 0.21901 0.0
C1998 C 0.59965 0.23093 0.22736 0.0
C1999 C 0.60427 0.2415 0.24583 0.0
C2000 C 0.58219 0.23484 0.21689 0.0
C2001 C 0.60793 0.20571 0.19893 0.0
C2002 C 0.58147 0.25295 0.21051 0.0
C2003 C 0.56562 0.25613 0.19939 0.0
C2004 C 0.55008 0.24128 0.19457 0.0
C2005 C 0.55061 0.22337 0.20159 0.0
C2006 C 0.56651 0.22019 0.21261 0.0
H2007 H 0.62073 0.19859 0.19317 0.0
H2008 H 0.59576 0.19401 0.19912 0.0
H2009 H 0.60371 0.21562 0.18903 0.0
H2010 H 0.59343 0.26445 0.2137 0.0
H2011 H 0.5657 0.27013 0.19433 0.0
H2012 H 0.53332 0.07636 0.01752 0.0
H2013 H 0.53929 0.10913 0.03726 0.0
H2014 H 0.48321 0.1228 0.01994 0.0
H2015 H 0.47716 0.09016 1.00022 0.0
H2016 H 0.53719 0.15027 0.03057 0.0
H2017 H 0.4816 0.12419 0.07928 0.0
H2018 H 0.49222 0.10758 0.06099 0.0
H2019 H 0.47358 0.12177 0.05461 0.0
C2020 C 0.52249 0.08656 0.01751 0.0
C2021 C 0.50466 0.0806 0.00752 0.0
C2022 C 0.5259 0.10524 0.02884 0.0
C2023 C 0.51155 0.11823 0.0303 0.0
C2024 C 0.49435 0.11287 0.01922 0.0
H2025 H 0.48948 0.22318 0.10826 0.0
H2026 H 0.48854 0.19471 0.08248 0.0
C2027 C 0.49091 0.09422 0.00798 0.0
C2028 C 0.5136 0.13646 0.04481 0.0
H2029 H 0.49388 0.15772 0.08587 0.0
C2030 C 0.5278 0.15193 0.04276 0.0
C2031 C 0.50139 0.13853 0.06072 0.0
C2032 C 0.48644 0.1221 0.06421 0.0
C2033 C 0.52973 0.16965 0.05599 0.0
C2034 C 0.51735 0.17174 0.07183 0.0
C2035 C 0.50331 0.15617 0.07382 0.0
C2036 C 0.51849 0.18983 0.08662 0.0
C2037 C 0.5446 0.18613 0.05256 0.0
C2038 C 0.5356 0.19659 0.0976 0.0
C2039 C 0.53609 0.21285 0.11234 0.0
C2040 C 0.51935 0.22222 0.11673 0.0
C2041 C 0.50239 0.21577 0.10552 0.0
C2042 C 0.50192 0.19964 0.0907 0.0
H2043 H 0.54884 0.18445 0.0373 0.0
H2044 H 0.5391 0.2007 0.05656 0.0
H2045 H 0.55779 0.1859 0.06153 0.0
H2046 H 0.54845 0.18905 0.09507 0.0
H2047 H 0.54941 0.21779 0.12066 0.0
H2048 H 0.2497 0.37631 0.73431 0.0
H2049 H 0.27435 0.40473 0.74107 0.0
H2050 H 0.30758 0.37944 0.69403 0.0
H2051 H 0.28374 0.35074 0.68777 0.0
H2052 H 0.3281 0.38793 0.72788 0.0
H2053 H 0.29158 0.45267 0.71538 0.0
H2054 H 0.27905 0.4376 0.73083 0.0
H2055 H 0.28191 0.42763 0.70603 0.0
C2056 C 0.26215 0.37691 0.72526 0.0
C2057 C 0.26468 0.36113 0.71051 0.0
C2058 C 0.2761 0.3933 0.72899 0.0
C2059 C 0.29273 0.39429 0.71794 0.0
C2060 C 0.2948 0.37905 0.70265 0.0
H2061 H 0.38665 0.48988 0.72618 0.0
H2062 H 0.35996 0.46423 0.71489 0.0
C2063 C 0.28099 0.36267 0.699 0.0
C2064 C 0.30916 0.40971 0.72367 0.0
H2065 H 0.32284 0.45933 0.73084 0.0
C2066 C 0.32694 0.40354 0.72843 0.0
C2067 C 0.30766 0.43005 0.7243 0.0
C2068 C 0.28908 0.43745 0.71871 0.0
C2069 C 0.34323 0.41708 0.7339 0.0
C2070 C 0.34173 0.43746 0.73502 0.0
C2071 C 0.32398 0.4437 0.73006 0.0
C2072 C 0.35839 0.45244 0.74153 0.0
C2073 C 0.36203 0.4094 0.73805 0.0
C2074 C 0.3664 0.45429 0.7602 0.0
C2075 C 0.38163 0.46882 0.76658 0.0
C2076 C 0.38929 0.48166 0.75437 0.0
C2077 C 0.38127 0.47985 0.73571 0.0
C2078 C 0.36598 0.46532 0.72931 0.0
H2079 H 0.36194 0.39346 0.73229 0.0
H2080 H 0.3741 0.41767 0.73165 0.0
H2081 H 0.36463 0.41145 0.75382 0.0
H2082 H 0.36051 0.44484 0.77004 0.0
H2083 H 0.38693 0.4705 0.78132 0.0
H2084 H 0.28753 0.68627 0.83626 0.0
H2085 H 0.3143 0.66568 0.83465 0.0
H2086 H 0.2744 0.61395 0.8159 0.0
H2087 H 0.24746 0.63425 0.81797 0.0
H2088 H 0.3183 0.62832 0.85265 0.0
H2089 H 0.31672 0.61857 0.77273 0.0
H2090 H 0.3065 0.63867 0.78734 0.0
H2091 H 0.29393 0.61432 0.78403 0.0
C2092 C 0.28436 0.67047 0.83216 0.0
C2093 C 0.26531 0.66196 0.82709 0.0
C2094 C 0.2997 0.65875 0.83118 0.0
C2095 C 0.29631 0.63835 0.82501 0.0
C2096 C 0.27731 0.62971 0.82052 0.0
H2097 H 0.37005 0.54354 0.81831 0.0
H2098 H 0.34538 0.56597 0.82728 0.0
C2099 C 0.26196 0.64137 0.8216 0.0
C2100 C 0.3127 0.62619 0.82226 0.0
H2101 H 0.33813 0.60071 0.7874 0.0
C2102 C 0.3227 0.62228 0.83841 0.0
C2103 C 0.31845 0.61852 0.80367 0.0
C2104 C 0.30849 0.62278 0.78588 0.0
C2105 C 0.33818 0.61056 0.8364 0.0
C2106 C 0.34368 0.60259 0.81778 0.0
C2107 C 0.33384 0.60679 0.80167 0.0
C2108 C 0.35965 0.58986 0.8145 0.0
C2109 C 0.34868 0.60697 0.85414 0.0
C2110 C 0.37591 0.5959 0.80448 0.0
C2111 C 0.39001 0.58315 0.79936 0.0
C2112 C 0.38802 0.56401 0.80398 0.0
C2113 C 0.37205 0.55821 0.8146 0.0
C2114 C 0.35796 0.57104 0.81979 0.0
H2115 H 0.34547 0.61746 0.86707 0.0
H2116 H 0.34407 0.5918 0.85677 0.0
H2117 H 0.36457 0.60826 0.85217 0.0
H2118 H 0.37746 0.61034 0.80021 0.0
H2119 H 0.40211 0.58809 0.79117 0.0
H2120 H 0.94022 0.53987 0.50179 0.0
H2121 H 0.91003 0.52163 0.50943 0.0
H2122 H 0.94051 0.4714 0.51464 0.0
H2123 H 0.97079 0.48957 0.50705 0.0
H2124 H 0.90853 0.46167 0.49119 0.0
H2125 H 0.8893 0.50633 0.55927 0.0
H2126 H 0.89408 0.52072 0.54048 0.0
H2127 H 0.91322 0.5088 0.54962 0.0
C2128 C 0.94058 0.52508 0.50493 0.0
C2129 C 0.95793 0.51617 0.50375 0.0
C2130 C 0.92331 0.51468 0.50937 0.0
C2131 C 0.92304 0.49524 0.5129 0.0
C2132 C 0.94038 0.48642 0.51205 0.0
H2133 H 0.81952 0.42016 0.54001 0.0
H2134 H 0.8517 0.43908 0.54298 0.0
C2135 C 0.95765 0.49678 0.50758 0.0
C2136 C 0.90442 0.48355 0.51577 0.0
H2137 H 0.86372 0.4836 0.54254 0.0
C2138 C 0.89888 0.46634 0.50259 0.0
C2139 C 0.89188 0.48952 0.53075 0.0
C2140 C 0.89748 0.50725 0.54596 0.0
C2141 C 0.88082 0.45545 0.50348 0.0
C2142 C 0.86786 0.46201 0.51779 0.0
C2143 C 0.87366 0.47871 0.5315 0.0
C2144 C 0.84779 0.45239 0.51765 0.0
C2145 C 0.87552 0.43717 0.48882 0.0
C2146 C 0.83482 0.45416 0.50283 0.0
C2147 C 0.81656 0.4435 0.5011 0.0
C2148 C 0.81079 0.43077 0.5142 0.0
C2149 C 0.82346 0.4298 0.52968 0.0
C2150 C 0.84186 0.44056 0.53139 0.0
H2151 H 0.88847 0.43164 0.48163 0.0
H2152 H 0.86787 0.42526 0.49564 0.0
H2153 H 0.86563 0.44064 0.47765 0.0
H2154 H 0.83908 0.46339 0.4922 0.0
H2155 H 0.80717 0.44483 0.4891 0.0
H2156 H 0.81564 0.89859 0.84243 0.0
H2157 H 0.79668 0.92177 0.82932 0.0
H2158 H 0.76219 0.87296 0.79478 0.0
H2159 H 0.78102 0.84979 0.80811 0.0
H2160 H 0.78831 0.92837 0.79168 0.0
H2161 H 0.72204 0.90177 0.82718 0.0
H2162 H 0.74574 0.8955 0.83302 0.0
H2163 H 0.73281 0.883 0.81155 0.0
C2164 C 0.80427 0.89291 0.83173 0.0
C2165 C 0.79978 0.87254 0.82611 0.0
C2166 C 0.79341 0.90611 0.82431 0.0
C2167 C 0.77779 0.8991 0.81133 0.0
C2168 C 0.77394 0.87869 0.80504 0.0
H2169 H 0.68837 0.95804 0.76266 0.0
H2170 H 0.70899 0.93401 0.77145 0.0
C2171 C 0.7848 0.8655 0.81247 0.0
C2172 C 0.76506 0.91309 0.80512 0.0
H2173 H 0.71877 0.92575 0.80732 0.0
C2174 C 0.77311 0.92781 0.79508 0.0
C2175 C 0.74522 0.91237 0.80961 0.0
C2176 C 0.73592 0.89744 0.82107 0.0
C2177 C 0.76181 0.94167 0.78923 0.0
C2178 C 0.742 0.94104 0.79387 0.0
C2179 C 0.73394 0.92622 0.80377 0.0
C2180 C 0.72943 0.9557 0.78874 0.0
C2181 C 0.7711 0.95665 0.77783 0.0
C2182 C 0.7338 0.97587 0.79586 0.0
C2183 C 0.72203 0.98964 0.79088 0.0
C2184 C 0.70555 0.98351 0.77876 0.0
C2185 C 0.70096 0.96326 0.772 0.0
C2186 C 0.71275 0.9495 0.77699 0.0
H2187 H 0.78453 0.95187 0.77102 0.0
H2188 H 0.76099 0.95932 0.76644 0.0
H2189 H 0.77505 0.9708 0.7876 0.0
H2190 H 0.74632 0.98097 0.80532 0.0
H2191 H 0.72594 1.00511 0.7964 0.0
H2192 H 0.60784 0.48607 0.97365 0.0
H2193 H 0.64069 0.503 0.97741 0.0
H2194 H 0.62804 0.5307 0.03445 0.0
H2195 H 0.59522 0.51347 0.03082 0.0
H2196 H 0.64403 0.54279 0.98165 0.0
H2197 H 0.68453 0.52073 0.04144 0.0
H2198 H 0.66354 0.50587 0.02957 0.0
H2199 H 0.66065 0.52694 0.04745 0.0
C2200 C 0.6123 0.49526 0.98723 0.0
C2201 C 0.59897 0.49857 1.00191 0.0
C2202 C 0.63107 0.5049 0.98939 0.0
C2203 C 0.63691 0.51809 0.00624 0.0
C2204 C 0.62406 0.5203 0.02147 0.0
H2205 H 0.72779 0.61418 0.03879 0.0
H2206 H 0.70025 0.58864 0.03714 0.0
C2207 C 0.60526 0.5105 0.01937 0.0
C2208 C 0.6547 0.53206 0.00632 0.0
H2209 H 0.69706 0.55064 0.03084 0.0
C2210 C 0.65577 0.5443 0.99226 0.0
C2211 C 0.66985 0.53426 0.02033 0.0
C2212 C 0.66973 0.52114 0.03547 0.0
C2213 C 0.67114 0.55906 0.9921 0.0
C2214 C 0.68638 0.56152 0.00613 0.0
C2215 C 0.68547 0.54896 0.02007 0.0
C2216 C 0.70298 0.57735 0.00693 0.0
C2217 C 0.67008 0.57267 0.9776 0.0
C2218 C 0.71382 0.57974 0.99056 0.0
C2219 C 0.7291 0.5948 0.99137 0.0
C2220 C 0.73424 0.60747 0.00869 0.0
C2221 C 0.72385 0.6048 0.02518 0.0
C2222 C 0.70823 0.59009 0.02426 0.0
H2223 H 0.65505 0.57277 0.97207 0.0
H2224 H 0.67553 0.58776 0.98431 0.0
H2225 H 0.67908 0.56795 0.96518 0.0
H2226 H 0.71073 0.56974 0.97718 0.0
H2227 H 0.73733 0.59612 0.97862 0.0
H2228 H 0.29531 0.69976 0.20184 0.0
H2229 H 0.26882 0.67435 0.2056 0.0
H2230 H 0.30759 0.62946 0.19282 0.0
H2231 H 0.33412 0.65482 0.18957 0.0
H2232 H 0.25102 0.63998 0.18355 0.0
H2233 H 0.29077 0.62314 0.2466 0.0
H2234 H 0.29815 0.64424 0.23533 0.0
H2235 H 0.30404 0.62017 0.22487 0.0
C2236 C 0.298 0.68442 0.1994 0.0
C2237 C 0.31675 0.67922 0.1956 0.0
C2238 C 0.28292 0.66993 0.20163 0.0
C2239 C 0.28637 0.65006 0.19999 0.0
C2240 C 0.30472 0.64474 0.19466 0.0
H2241 H 0.1945 0.55292 0.20408 0.0
H2242 H 0.21906 0.57631 0.19298 0.0
C2243 C 0.31982 0.6592 0.19266 0.0
C2244 C 0.27124 0.63514 0.20519 0.0
H2245 H 0.26218 0.60246 0.23628 0.0
C2246 C 0.25335 0.63181 0.19515 0.0
C2247 C 0.27428 0.62464 0.22043 0.0
C2248 C 0.29277 0.62832 0.23256 0.0
C2249 C 0.23837 0.61824 0.19988 0.0
C2250 C 0.24151 0.60741 0.21495 0.0
C2251 C 0.25956 0.61073 0.22484 0.0
C2252 C 0.22635 0.59304 0.22132 0.0
C2253 C 0.2194 0.61607 0.18873 0.0
C2254 C 0.22293 0.59374 0.24103 0.0
C2255 C 0.20952 0.57984 0.24737 0.0
C2256 C 0.19856 0.56552 0.23415 0.0
C2257 C 0.20225 0.56438 0.2145 0.0
C2258 C 0.21614 0.57789 0.20815 0.0
H2259 H 0.21684 0.63001 0.18362 0.0
H2260 H 0.21987 0.60457 0.17588 0.0
H2261 H 0.207 0.61174 0.19735 0.0
H2262 H 0.23074 0.60498 0.25162 0.0
H2263 H 0.2078 0.58025 0.26266 0.0
H2264 H 0.93894 0.50421 0.00832 0.0
H2265 H 0.91118 0.52316 0.00691 0.0
H2266 H 0.94048 0.57062 0.04767 0.0
H2267 H 0.96853 0.55173 0.04867 0.0
H2268 H 0.88655 0.53847 0.03335 0.0
H2269 H 0.92863 0.59884 1.00356 0.0
H2270 H 0.93817 0.57591 0.00541 0.0
H2271 H 0.93803 0.5947 0.02622 0.0
C2272 C 0.93928 0.51859 0.01717 0.0
C2273 C 0.95569 0.52656 0.02866 0.0
C2274 C 0.92347 0.52943 0.01632 0.0
C2275 C 0.92384 0.5485 0.02688 0.0
C2276 C 0.94001 0.55614 0.03904 0.0
H2277 H 0.84121 0.63568 0.03497 0.0
H2278 H 0.8687 0.61708 0.03886 0.0
C2279 C 0.95591 0.54529 0.0398 0.0
C2280 C 0.90747 0.56038 0.02473 0.0
H2281 H 0.89608 0.6032 0.011 0.0
C2282 C 0.88865 0.55261 0.02844 0.0
C2283 C 0.91015 0.57881 0.01821 0.0
C2284 C 0.92979 0.58751 0.01293 0.0
C2285 C 0.87253 0.56283 0.02604 0.0
C2286 C 0.87524 0.58123 0.01955 0.0
C2287 C 0.89404 0.58908 0.01597 0.0
C2288 C 0.85877 0.59265 0.01662 0.0
C2289 C 0.85274 0.554 0.03075 0.0
C2290 C 0.84423 0.58529 1.00251 0.0
C2291 C 0.82851 0.59596 1.00016 0.0
C2292 C 0.82704 0.61418 0.0119 0.0
C2293 C 0.84185 0.62168 0.02572 0.0
C2294 C 0.85759 0.61107 0.02798 0.0
H2295 H 0.85361 0.54208 0.03949 0.0
H2296 H 0.84447 0.56546 0.03868 0.0
H2297 H 0.84456 0.54762 0.01719 0.0
H2298 H 0.84501 0.57125 0.99337 0.0
H2299 H 0.81737 0.58978 0.98937 0.0
H2300 H 0.11779 0.04974 0.05575 0.0
H2301 H 0.14458 0.03088 0.04433 0.0
H2302 H 0.1102 0.97695 0.05112 0.0
H2303 H 0.08329 0.99556 0.06202 0.0
H2304 H 0.16417 0.00642 0.06428 0.0
H2305 H 0.1299 0.96439 0.9966 0.0
H2306 H 0.12042 0.98589 0.0095 0.0
H2307 H 0.11559 0.96241 0.01735 0.0
C2308 C 0.11583 0.03384 0.05449 0.0
C2309 C 0.09839 0.02417 0.05982 0.0
C2310 C 0.1312 0.02309 0.0481 0.0
C2311 C 0.12934 1.00248 0.04669 0.0
C2312 C 0.11189 0.9928 0.0518 0.0
H2313 H 0.21994 0.92393 0.04269 0.0
H2314 H 0.19378 0.94431 0.05205 0.0
C2315 C 0.09657 1.0035 0.05822 0.0
C2316 C 0.14583 0.9911 0.0406 0.0
H2317 H 0.15903 0.95362 0.0073 0.0
C2318 C 0.1631 0.99495 0.05176 0.0
C2319 C 0.14449 0.97626 0.02416 0.0
C2320 C 0.12668 0.97207 0.01109 0.0
C2321 C 0.1789 0.98408 0.04716 0.0
C2322 C 0.17729 0.96877 0.03112 0.0
C2323 C 0.16018 0.96521 0.01973 0.0
C2324 C 0.19332 0.9565 0.02565 0.0
C2325 C 0.19726 0.98926 0.05937 0.0
C2326 C 0.20151 0.95623 0.00755 0.0
C2327 C 0.21638 0.94453 1.00211 0.0
C2328 C 0.22338 0.9327 0.01461 0.0
C2329 C 0.21504 0.9329 0.03272 0.0
C2330 C 0.20013 0.94465 0.03815 0.0
H2331 H 0.19791 1.00429 0.06791 0.0
H2332 H 0.19785 0.97863 0.06955 0.0
H2333 H 0.21023 0.9884 0.05036 0.0
H2334 H 0.19642 0.96517 0.99762 0.0
H2335 H 0.22233 0.94475 0.98802 0.0
loop_
_geom_bond_atom_site_label_1
_geom_bond_atom_site_label_2
_geom_bond_distance
_geom_bond_site_symmetry_2
_ccdc_geom_bond_type
H0 C3 0.929 . S
H1 C6 0.929 . S
H2 C8 0.930 . S
C3 H0 0.929 . S
C3 C4 1.398 . S
C3 C5 1.396 . S
C4 C3 1.398 . S
C4 C8 1.407 . S
C5 C3 1.396 . S
C5 C6 1.394 . S
C6 H1 0.929 . S
C6 C5 1.394 . S
C6 C7 1.382 . S
C7 C6 1.382 . S
C7 C8 1.392 . S
C7 N9 1.420 . S
C8 H2 0.930 . S
C8 C4 1.407 . S
C8 C7 1.392 . S
N9 C7 1.420 . S
N9 C10 1.244 . S
C10 N9 1.244 . S
H11 C14 0.929 . S
H12 C17 0.929 . S
H13 C19 0.930 . S
C14 H11 0.929 . S
C14 C15 1.398 . S
C14 C16 1.396 . S
C15 C14 1.398 . S
C15 C19 1.407 . S
C16 C14 1.396 . S
C16 C17 1.394 . S
C17 H12 0.929 . S
C17 C16 1.394 . S
C17 C18 1.382 . S
C18 C17 1.382 . S
C18 C19 1.392 . S
C18 N20 1.420 . S
C19 H13 0.930 . S
C19 C15 1.407 . S
C19 C18 1.392 . S
N20 C18 1.420 . S
N20 C21 1.244 . S
C21 N20 1.244 . S
H22 C25 0.929 . S
H23 C28 0.929 . S
H24 C30 0.930 . S
C25 H22 0.929 . S
C25 C26 1.398 1_455 S
C25 C27 1.396 . S
C26 C25 1.398 1_655 S
C26 C30 1.407 . S
C27 C25 1.396 . S
C27 C28 1.394 1_455 S
C28 H23 0.929 . S
C28 C27 1.394 1_655 S
C28 C29 1.382 . S
C29 C28 1.382 . S
C29 C30 1.392 . S
C29 N31 1.420 . S
C30 H24 0.930 . S
C30 C26 1.407 . S
C30 C29 1.392 . S
N31 C29 1.420 . S
N31 C32 1.244 . S
C32 N31 1.244 . S
H33 C36 0.929 . S
H34 C39 0.929 . S
H35 C41 0.930 . S
C36 H33 0.929 . S
C36 C37 1.398 . S
C36 C38 1.396 . S
C37 C36 1.398 . S
C37 C41 1.407 . S
C38 C36 1.396 . S
C38 C39 1.394 . S
C39 H34 0.929 . S
C39 C38 1.394 . S
C39 C40 1.382 . S
C40 C39 1.382 . S
C40 C41 1.392 . S
C40 N42 1.420 . S
C41 H35 0.930 . S
C41 C37 1.407 . S
C41 C40 1.392 . S
N42 C40 1.420 . S
N42 C43 1.244 . S
C43 N42 1.244 . S
H44 C47 0.969 . S
H45 C50 0.929 . S
H46 C52 0.930 . S
C47 H44 0.969 . S
C47 C48 1.398 . S
C47 C49 1.396 . S
C48 C47 1.398 . S
C48 C52 1.407 . S
C49 C47 1.396 . S
C49 C50 1.394 . S
C50 H45 0.929 . S
C50 C49 1.394 . S
C50 C51 1.382 . S
C51 C50 1.382 . S
C51 C52 1.392 . S
C51 N53 1.420 . S
C52 H46 0.930 . S
C52 C48 1.407 . S
C52 C51 1.392 . S
N53 C51 1.420 . S
N53 C54 1.244 . S
C54 N53 1.244 . S
H55 C58 0.929 . S
H56 C61 0.929 . S
H57 C63 0.930 . S
C58 H55 0.929 . S
C58 C59 1.398 . S
C58 C60 1.396 . S
C59 C58 1.398 . S
C59 C63 1.407 . S
C60 C58 1.396 . S
C60 C61 1.394 . S
C61 H56 0.929 . S
C61 C60 1.394 . S
C61 C62 1.382 . S
C62 C61 1.382 . S
C62 C63 1.392 . S
C62 N64 1.420 . S
C63 H57 0.930 . S
C63 C59 1.407 . S
C63 C62 1.392 . S
N64 C62 1.420 . S
N64 C65 1.244 . S
C65 N64 1.244 . S
H66 C69 0.929 . S
H67 C72 0.929 . S
H68 C74 0.930 . S
C69 H66 0.929 . S
C69 C70 1.398 . S
C69 C71 1.396 . S
C70 C69 1.398 . S
C70 C74 1.407 . S
C71 C69 1.396 . S
C71 C72 1.394 1_655 S
C72 H67 0.929 . S
C72 C71 1.394 1_455 S
C72 C73 1.382 . S
C73 C72 1.382 . S
C73 C74 1.391 1_455 S
C73 N75 1.421 . S
C74 H68 0.930 . S
C74 C70 1.407 . S
C74 C73 1.391 1_655 S
N75 C73 1.421 . S
N75 C76 1.244 . S
C76 N75 1.244 . S
H77 C80 0.929 . S
H78 C83 0.929 . S
H79 C85 0.930 . S
C80 H77 0.929 . S
C80 C81 1.398 . S
C80 C82 1.396 . S
C81 C80 1.398 . S
C81 C85 1.407 . S
C82 C80 1.396 . S
C82 C83 1.394 . S
C83 H78 0.929 . S
C83 C82 1.394 . S
C83 C84 1.382 . S
C84 C83 1.382 . S
C84 C85 1.392 . S
C84 N86 1.420 . S
C85 H79 0.930 . S
C85 C81 1.407 . S
C85 C84 1.392 . S
N86 C84 1.420 . S
N86 C87 1.244 . S
C87 N86 1.244 . S
H88 C91 0.929 . S
H89 C94 0.929 . S
H90 C96 0.930 . S
C91 H88 0.929 . S
C91 C92 1.398 . S
C91 C93 1.396 . S
C92 C91 1.398 . S
C92 C96 1.407 . S
C93 C91 1.396 . S
C93 C94 1.394 . S
C94 H89 0.929 . S
C94 C93 1.394 . S
C94 C95 1.382 . S
C95 C94 1.382 . S
C95 C96 1.392 . S
C95 N97 1.420 . S
C96 H90 0.930 . S
C96 C92 1.407 . S
C96 C95 1.392 . S
N97 C95 1.420 . S
N97 C98 1.244 . S
C98 N97 1.244 . S
H99 C102 0.929 . S
H100 C105 0.929 1_545 S
H101 C107 0.930 . S
C102 H99 0.929 . S
C102 C103 1.398 . S
C102 C104 1.396 . S
C103 C102 1.398 . S
C103 C107 1.407 . S
C104 C102 1.396 . S
C104 C105 1.394 . S
C105 H100 0.929 1_565 S
C105 C104 1.394 . S
C105 C106 1.382 . S
C106 C105 1.382 . S
C106 C107 1.392 . S
C106 N108 1.420 1_565 S
C107 H101 0.930 . S
C107 C103 1.407 . S
C107 C106 1.392 . S
N108 C106 1.420 1_545 S
N108 C109 1.244 . S
C109 N108 1.244 . S
H110 C113 0.929 . S
H111 C116 0.929 . S
H112 C118 0.930 . S
C113 H110 0.929 . S
C113 C114 1.398 . S
C113 C115 1.396 . S
C114 C113 1.398 . S
C114 C118 1.407 . S
C115 C113 1.396 . S
C115 C116 1.394 . S
C116 H111 0.929 . S
C116 C115 1.394 . S
C116 C117 1.382 . S
C117 C116 1.382 . S
C117 C118 1.392 . S
C117 N119 1.420 . S
C118 H112 0.930 . S
C118 C114 1.407 . S
C118 C117 1.392 . S
N119 C117 1.420 . S
N119 C120 1.244 . S
C120 N119 1.244 . S
H121 C124 0.929 . S
H122 C127 0.929 . S
H123 C129 0.930 . S
C124 H121 0.929 . S
C124 C125 1.398 . S
C124 C126 1.396 . S
C125 C124 1.398 . S
C125 C129 1.407 . S
C126 C124 1.396 . S
C126 C127 1.394 . S
C127 H122 0.929 . S
C127 C126 1.394 . S
C127 C128 1.382 . S
C128 C127 1.382 . S
C128 C129 1.392 . S
C128 N130 1.420 . S
C129 H123 0.930 . S
C129 C125 1.407 . S
C129 C128 1.392 . S
N130 C128 1.420 . S
N130 C131 1.244 . S
C131 N130 1.244 . S
H132 C135 0.929 . S
H133 C138 0.929 . S
H134 C140 0.930 . S
C135 H132 0.929 . S
C135 C136 1.398 . S
C135 C137 1.396 . S
C136 C135 1.398 . S
C136 C140 1.407 . S
C137 C135 1.396 . S
C137 C138 1.394 . S
C138 H133 0.929 . S
C138 C137 1.394 . S
C138 C139 1.382 . S
C139 C138 1.382 . S
C139 C140 1.392 . S
C139 N141 1.420 . S
C140 H134 0.930 . S
C140 C136 1.407 . S
C140 C139 1.392 . S
N141 C139 1.420 . S
N141 C142 1.244 . S
C142 N141 1.244 . S
H143 C146 0.929 . S
H144 C149 0.929 . S
H145 C151 0.930 . S
C146 H143 0.929 . S
C146 C147 1.398 . S
C146 C148 1.396 . S
C147 C146 1.398 . S
C147 C151 1.407 . S
C148 C146 1.396 . S
C148 C149 1.394 1_556 S
C149 H144 0.929 . S
C149 C148 1.394 1_554 S
C149 C150 1.382 1_554 S
C150 C149 1.382 1_556 S
C150 C151 1.392 . S
C150 N152 1.420 1_556 S
C151 H145 0.930 . S
C151 C147 1.407 . S
C151 C150 1.392 . S
N152 C150 1.420 1_554 S
N152 C153 1.244 . S
C153 N152 1.244 . S
H154 C157 0.929 . S
H155 C160 0.929 . S
H156 C162 0.930 . S
C157 H154 0.929 . S
C157 C158 1.398 . S
C157 C159 1.396 . S
C158 C157 1.398 . S
C158 C162 1.407 . S
C159 C157 1.396 . S
C159 C160 1.394 . S
C160 H155 0.929 . S
C160 C159 1.394 . S
C160 C161 1.382 . S
C161 C160 1.382 . S
C161 C162 1.392 . S
C161 N163 1.420 . S
C162 H156 0.930 . S
C162 C158 1.407 . S
C162 C161 1.392 . S
N163 C161 1.420 . S
N163 C164 1.244 . S
C164 N163 1.244 . S
H165 C168 0.940 . S
H166 C171 0.929 . S
H167 C173 0.930 . S
C168 H165 0.940 . S
C168 C169 1.398 . S
C168 C170 1.396 . S
C169 C168 1.398 . S
C169 C173 1.407 . S
C170 C168 1.396 . S
C170 C171 1.394 . S
C171 H166 0.929 . S
C171 C170 1.394 . S
C171 C172 1.382 . S
C172 C171 1.382 . S
C172 C173 1.392 . S
C172 N174 1.420 . S
C173 H167 0.930 . S
C173 C169 1.407 . S
C173 C172 1.392 . S
N174 C172 1.420 . S
N174 C175 1.244 . S
C175 N174 1.244 . S
Mn176 O181 2.095 . S
Mn176 O191 2.162 . S
Mn176 O192 2.297 . S
Mn176 O200 2.385 . S
Mn176 O201 2.209 . S
Mn176 O202 2.094 . S
Mn177 O182 2.121 . S
Mn177 N184 2.257 1_554 S
Mn177 N193 2.282 1_554 S
Mn177 O201 2.215 . S
Mn177 O203 2.117 . S
C178 O200 1.234 . S
C178 O201 1.283 . S
C179 O191 1.281 . S
C179 O192 1.236 . S
C180 O202 1.240 . S
C180 O203 1.264 . S
O181 Mn176 2.095 . S
O181 C190 1.250 . S
O182 Mn177 2.121 . S
O182 C190 1.258 . S
C183 N184 1.326 . S
C183 C187 1.460 . S
C183 H189 0.929 . S
N184 Mn177 2.257 1_556 S
N184 C183 1.326 . S
N184 C188 1.362 . S
C185 C186 1.258 . S
C185 C188 1.431 . S
C185 C205 1.449 . S
C186 C185 1.258 . S
C186 C187 1.477 . S
C186 H206 0.931 . S
C187 C183 1.460 . S
C187 C186 1.477 . S
C187 H207 0.930 . S
C188 N184 1.362 . S
C188 C185 1.431 . S
C188 C198 1.476 . S
H189 C183 0.929 . S
C190 O181 1.250 . S
C190 O182 1.258 . S
O191 Mn176 2.162 . S
O191 C179 1.281 . S
O192 Mn176 2.297 . S
O192 C179 1.236 . S
N193 Mn177 2.282 1_556 S
N193 C194 1.328 . S
N193 C198 1.318 . S
C194 N193 1.328 . S
C194 C195 1.457 . S
C194 H199 0.929 1_556 S
C195 C194 1.457 . S
C195 C196 1.291 . S
C195 H208 0.931 . S
C196 C195 1.291 . S
C196 C197 1.373 . S
C196 H209 0.929 . S
C197 C196 1.373 . S
C197 C198 1.396 . S
C197 C204 1.403 . S
C198 C188 1.476 . S
C198 N193 1.318 . S
C198 C197 1.396 . S
H199 C194 0.929 1_554 S
O200 Mn176 2.385 . S
O200 C178 1.234 . S
O201 Mn176 2.209 . S
O201 Mn177 2.215 . S
O201 C178 1.283 . S
O202 Mn176 2.094 . S
O202 C180 1.240 . S
O203 Mn177 2.117 . S
O203 C180 1.264 . S
C204 C197 1.403 . S
C204 C205 1.399 . S
C204 H210 0.929 . S
C205 C185 1.449 . S
C205 C204 1.399 . S
C205 H211 0.930 . S
H206 C186 0.931 . S
H207 C187 0.930 . S
H208 C195 0.931 . S
H209 C196 0.929 . S
H210 C204 0.929 . S
H211 C205 0.930 . S
Mn212 O217 2.095 . S
Mn212 O227 2.162 . S
Mn212 O228 2.297 . S
Mn212 O236 2.385 . S
Mn212 O237 2.209 . S
Mn212 O238 2.094 . S
Mn213 O218 2.121 . S
Mn213 N220 2.257 . S
Mn213 N229 2.282 . S
Mn213 O237 2.215 . S
Mn213 O239 2.117 . S
C214 O236 1.234 . S
C214 O237 1.283 . S
C215 O227 1.281 . S
C215 O228 1.236 . S
C216 O238 1.240 . S
C216 O239 1.264 . S
O217 Mn212 2.095 . S
O217 C226 1.250 . S
O218 Mn213 2.121 . S
O218 C226 1.258 . S
C219 N220 1.326 . S
C219 C223 1.460 . S
C219 H225 0.929 . S
N220 Mn213 2.257 . S
N220 C219 1.326 . S
N220 C224 1.362 . S
C221 C222 1.258 . S
C221 C224 1.431 . S
C221 C241 1.449 . S
C222 C221 1.258 . S
C222 C223 1.477 . S
C222 H242 0.931 . S
C223 C219 1.460 . S
C223 C222 1.477 . S
C223 H243 0.930 . S
C224 N220 1.362 . S
C224 C221 1.431 . S
C224 C234 1.476 . S
H225 C219 0.929 . S
C226 O217 1.250 . S
C226 O218 1.258 . S
O227 Mn212 2.162 . S
O227 C215 1.281 . S
O228 Mn212 2.297 . S
O228 C215 1.236 . S
N229 Mn213 2.282 . S
N229 C230 1.328 . S
N229 C234 1.318 . S
C230 N229 1.328 . S
C230 C231 1.457 . S
C230 H235 0.929 . S
C231 C230 1.457 . S
C231 C232 1.291 . S
C231 H244 0.931 . S
C232 C231 1.291 . S
C232 C233 1.373 . S
C232 H245 0.929 . S
C233 C232 1.373 . S
C233 C234 1.396 . S
C233 C240 1.403 . S
C234 C224 1.476 . S
C234 N229 1.318 . S
C234 C233 1.396 . S
H235 C230 0.929 . S
O236 Mn212 2.385 . S
O236 C214 1.234 . S
O237 Mn212 2.209 . S
O237 Mn213 2.215 . S
O237 C214 1.283 . S
O238 Mn212 2.094 . S
O238 C216 1.240 . S
O239 Mn213 2.117 . S
O239 C216 1.264 . S
C240 C233 1.403 . S
C240 C241 1.399 . S
C240 H246 0.929 . S
C241 C221 1.449 . S
C241 C240 1.399 . S
C241 H247 0.930 . S
H242 C222 0.931 . S
H243 C223 0.930 . S
H244 C231 0.931 . S
H245 C232 0.929 . S
H246 C240 0.929 . S
H247 C241 0.930 . S
Mn248 O253 2.095 1_554 S
Mn248 O263 2.162 . S
Mn248 O264 2.297 1_554 S
Mn248 O272 2.385 . S
Mn248 O273 2.209 1_554 S
Mn248 O274 2.094 . S
Mn249 O254 2.121 . S
Mn249 N256 2.257 . S
Mn249 N265 2.282 1_556 S
Mn249 O273 2.215 . S
Mn249 O275 2.117 1_556 S
C250 O272 1.251 . S
C250 O273 1.269 1_554 S
C251 O263 1.310 . S
C251 O264 1.207 1_554 S
C252 O274 1.240 . S
C252 O275 1.264 . S
O253 Mn248 2.095 1_556 S
O253 C262 1.250 . S
O254 Mn249 2.121 . S
O254 C262 1.258 . S
C255 N256 1.326 . S
C255 C259 1.460 . S
C255 H261 0.929 . S
N256 Mn249 2.257 . S
N256 C255 1.326 . S
N256 C260 1.362 . S
C257 C258 1.258 . S
C257 C260 1.431 . S
C257 C277 1.449 . S
C258 C257 1.258 . S
C258 C259 1.477 . S
C258 H278 0.931 . S
C259 C255 1.460 . S
C259 C258 1.477 . S
C259 H279 0.930 . S
C260 N256 1.362 . S
C260 C257 1.431 . S
C260 C270 1.476 . S
H261 C255 0.929 . S
C262 O253 1.250 . S
C262 O254 1.258 . S
O263 Mn248 2.162 . S
O263 C251 1.310 . S
O264 Mn248 2.297 1_556 S
O264 C251 1.207 1_556 S
N265 Mn249 2.282 1_554 S
N265 C266 1.328 . S
N265 C270 1.318 1_554 S
C266 N265 1.328 . S
C266 C267 1.457 . S
C266 H271 0.929 . S
C267 C266 1.457 . S
C267 C268 1.291 . S
C267 H280 0.931 . S
C268 C267 1.291 . S
C268 C269 1.373 1_554 S
C268 H281 0.929 . S
C269 C268 1.373 1_556 S
C269 C270 1.396 . S
C269 C276 1.403 . S
C270 C260 1.476 . S
C270 N265 1.318 1_556 S
C270 C269 1.396 . S
H271 C266 0.929 . S
O272 Mn248 2.385 . S
O272 C250 1.251 . S
O273 Mn248 2.209 1_556 S
O273 Mn249 2.215 . S
O273 C250 1.269 1_556 S
O274 Mn248 2.094 . S
O274 C252 1.240 . S
O275 Mn249 2.117 1_554 S
O275 C252 1.264 . S
C276 C269 1.403 . S
C276 C277 1.399 . S
C276 H282 0.929 . S
C277 C257 1.449 . S
C277 C276 1.399 . S
C277 H283 0.930 . S
H278 C258 0.931 . S
H279 C259 0.930 . S
H280 C267 0.931 . S
H281 C268 0.929 . S
H282 C276 0.929 . S
H283 C277 0.930 . S
Mn284 O289 2.095 . S
Mn284 O299 2.162 . S
Mn284 O300 2.297 . S
Mn284 O308 2.385 . S
Mn284 O309 2.209 . S
Mn284 O310 2.094 . S
Mn285 O290 2.121 1_565 S
Mn285 N292 2.257 . S
Mn285 N301 2.282 . S
Mn285 O309 2.215 1_565 S
Mn285 O311 2.117 1_565 S
C286 O308 1.234 . S
C286 O309 1.283 . S
C287 O299 1.281 . S
C287 O300 1.236 . S
C288 O310 1.240 . S
C288 O311 1.264 . S
O289 Mn284 2.095 . S
O289 C298 1.250 . S
O290 Mn285 2.121 1_545 S
O290 C298 1.258 . S
C291 N292 1.326 . S
C291 C295 1.460 . S
C291 H297 0.929 . S
N292 Mn285 2.257 . S
N292 C291 1.326 . S
N292 C296 1.362 . S
C293 C294 1.258 . S
C293 C296 1.431 . S
C293 C313 1.449 . S
C294 C293 1.258 . S
C294 C295 1.477 . S
C294 H314 0.931 . S
C295 C291 1.460 . S
C295 C294 1.477 . S
C295 H315 0.930 . S
C296 N292 1.362 . S
C296 C293 1.431 . S
C296 C306 1.476 . S
H297 C291 0.929 . S
C298 O289 1.250 . S
C298 O290 1.258 . S
O299 Mn284 2.162 . S
O299 C287 1.281 . S
O300 Mn284 2.297 . S
O300 C287 1.236 . S
N301 Mn285 2.282 . S
N301 C302 1.328 . S
N301 C306 1.318 . S
C302 N301 1.328 . S
C302 C303 1.457 . S
C302 H307 0.929 . S
C303 C302 1.457 . S
C303 C304 1.291 . S
C303 H316 0.931 . S
C304 C303 1.291 . S
C304 C305 1.373 . S
C304 H317 0.929 . S
C305 C304 1.373 . S
C305 C306 1.396 . S
C305 C312 1.403 . S
C306 C296 1.476 . S
C306 N301 1.318 . S
C306 C305 1.396 . S
H307 C302 0.929 . S
O308 Mn284 2.385 . S
O308 C286 1.234 . S
O309 Mn284 2.209 . S
O309 Mn285 2.215 1_545 S
O309 C286 1.283 . S
O310 Mn284 2.094 . S
O310 C288 1.240 . S
O311 Mn285 2.117 1_545 S
O311 C288 1.264 . S
C312 C305 1.403 . S
C312 C313 1.399 . S
C312 H318 0.929 . S
C313 C293 1.449 . S
C313 C312 1.399 . S
C313 H319 0.930 . S
H314 C294 0.931 . S
H315 C295 0.930 . S
H316 C303 0.931 . S
H317 C304 0.929 . S
H318 C312 0.929 . S
H319 C313 0.930 . S
Mn320 O325 2.095 . S
Mn320 O335 2.162 . S
Mn320 O336 2.297 . S
Mn320 O344 2.385 . S
Mn320 O345 2.209 . S
Mn320 O346 2.094 . S
Mn321 O326 2.121 . S
Mn321 N328 2.257 . S
Mn321 N337 2.282 . S
Mn321 O345 2.215 . S
Mn321 O347 2.117 . S
C322 O344 1.234 . S
C322 O345 1.283 . S
C323 O335 1.281 . S
C323 O336 1.236 . S
C324 O346 1.240 . S
C324 O347 1.264 . S
O325 Mn320 2.095 . S
O325 C334 1.250 . S
O326 Mn321 2.121 . S
O326 C334 1.258 . S
C327 N328 1.326 . S
C327 C331 1.460 . S
C327 H333 0.929 . S
N328 Mn321 2.257 . S
N328 C327 1.326 . S
N328 C332 1.362 . S
C329 C330 1.258 . S
C329 C332 1.431 . S
C329 C349 1.449 . S
C330 C329 1.258 . S
C330 C331 1.477 . S
C330 H350 0.931 . S
C331 C327 1.460 . S
C331 C330 1.477 . S
C331 H351 0.930 . S
C332 N328 1.362 . S
C332 C329 1.431 . S
C332 C342 1.476 . S
H333 C327 0.929 . S
C334 O325 1.250 . S
C334 O326 1.258 . S
O335 Mn320 2.162 . S
O335 C323 1.281 . S
O336 Mn320 2.297 . S
O336 C323 1.236 . S
N337 Mn321 2.282 . S
N337 C338 1.328 . S
N337 C342 1.318 . S
C338 N337 1.328 . S
C338 C339 1.457 . S
C338 H343 0.929 . S
C339 C338 1.457 . S
C339 C340 1.291 . S
C339 H352 0.931 . S
C340 C339 1.291 . S
C340 C341 1.373 . S
C340 H353 0.929 . S
C341 C340 1.373 . S
C341 C342 1.396 . S
C341 C348 1.403 . S
C342 C332 1.476 . S
C342 N337 1.318 . S
C342 C341 1.396 . S
H343 C338 0.929 . S
O344 Mn320 2.385 . S
O344 C322 1.234 . S
O345 Mn320 2.209 . S
O345 Mn321 2.215 . S
O345 C322 1.283 . S
O346 Mn320 2.094 . S
O346 C324 1.240 . S
O347 Mn321 2.117 . S
O347 C324 1.264 . S
C348 C341 1.403 . S
C348 C349 1.399 . S
C348 H354 0.929 . S
C349 C329 1.449 . S
C349 C348 1.399 . S
C349 H355 0.930 . S
H350 C330 0.931 . S
H351 C331 0.930 . S
H352 C339 0.931 . S
H353 C340 0.929 . S
H354 C348 0.929 . S
H355 C349 0.930 . S
Mn356 O361 2.095 . S
Mn356 O371 2.162 . S
Mn356 O372 2.297 . S
Mn356 O380 2.385 . S
Mn356 O381 2.209 . S
Mn356 O382 2.094 . S
Mn357 O362 2.121 . S
Mn357 N364 2.257 . S
Mn357 N373 2.282 . S
Mn357 O381 2.215 . S
Mn357 O383 2.117 . S
C358 O380 1.234 . S
C358 O381 1.283 . S
C359 O371 1.281 . S
C359 O372 1.236 . S
C360 O382 1.240 . S
C360 O383 1.264 . S
O361 Mn356 2.095 . S
O361 C370 1.250 . S
O362 Mn357 2.121 . S
O362 C370 1.258 . S
C363 N364 1.326 . S
C363 C367 1.460 . S
C363 H369 0.929 . S
N364 Mn357 2.257 . S
N364 C363 1.326 . S
N364 C368 1.362 . S
C365 C366 1.258 . S
C365 C368 1.431 . S
C365 C385 1.449 . S
C366 C365 1.258 . S
C366 C367 1.477 . S
C366 H386 0.931 . S
C367 C363 1.460 . S
C367 C366 1.477 . S
C367 H387 0.930 . S
C368 N364 1.362 . S
C368 C365 1.431 . S
C368 C378 1.476 . S
H369 C363 0.929 . S
C370 O361 1.250 . S
C370 O362 1.258 . S
O371 Mn356 2.162 . S
O371 C359 1.281 . S
O372 Mn356 2.297 . S
O372 C359 1.236 . S
N373 Mn357 2.282 . S
N373 C374 1.328 . S
N373 C378 1.318 . S
C374 N373 1.328 . S
C374 C375 1.457 . S
C374 H379 0.929 . S
C375 C374 1.457 . S
C375 C376 1.291 . S
C375 H388 0.931 . S
C376 C375 1.291 . S
C376 C377 1.373 . S
C376 H389 0.929 . S
C377 C376 1.373 . S
C377 C378 1.396 . S
C377 C384 1.403 . S
C378 C368 1.476 . S
C378 N373 1.318 . S
C378 C377 1.396 . S
H379 C374 0.929 . S
O380 Mn356 2.385 . S
O380 C358 1.234 . S
O381 Mn356 2.209 . S
O381 Mn357 2.215 . S
O381 C358 1.283 . S
O382 Mn356 2.094 . S
O382 C360 1.240 . S
O383 Mn357 2.117 . S
O383 C360 1.264 . S
C384 C377 1.403 . S
C384 C385 1.399 . S
C384 H390 0.929 . S
C385 C365 1.449 . S
C385 C384 1.399 . S
C385 H391 0.930 . S
H386 C366 0.931 . S
H387 C367 0.930 . S
H388 C375 0.931 . S
H389 C376 0.929 . S
H390 C384 0.929 . S
H391 C385 0.930 . S
Mn392 O397 2.095 . S
Mn392 O407 2.162 . S
Mn392 O408 2.297 . S
Mn392 O416 2.385 . S
Mn392 O417 2.209 . S
Mn392 O418 2.094 . S
Mn393 O398 2.121 . S
Mn393 N400 2.257 . S
Mn393 N409 2.282 . S
Mn393 O417 2.215 . S
Mn393 O419 2.117 . S
C394 O416 1.234 . S
C394 O417 1.283 . S
C395 O407 1.281 . S
C395 O408 1.236 . S
C396 O418 1.240 . S
C396 O419 1.264 . S
O397 Mn392 2.095 . S
O397 C406 1.250 . S
O398 Mn393 2.121 . S
O398 C406 1.258 . S
C399 N400 1.326 . S
C399 C403 1.460 . S
C399 H405 0.929 . S
N400 Mn393 2.257 . S
N400 C399 1.326 . S
N400 C404 1.362 . S
C401 C402 1.258 . S
C401 C404 1.431 . S
C401 C421 1.449 . S
C402 C401 1.258 . S
C402 C403 1.477 . S
C402 H422 0.931 . S
C403 C399 1.460 . S
C403 C402 1.477 . S
C403 H423 0.930 . S
C404 N400 1.362 . S
C404 C401 1.431 . S
C404 C414 1.476 . S
H405 C399 0.929 . S
C406 O397 1.250 . S
C406 O398 1.258 . S
O407 Mn392 2.162 . S
O407 C395 1.281 . S
O408 Mn392 2.297 . S
O408 C395 1.236 . S
N409 Mn393 2.282 . S
N409 C410 1.328 . S
N409 C414 1.318 . S
C410 N409 1.328 . S
C410 C411 1.457 . S
C410 H415 0.929 . S
C411 C410 1.457 . S
C411 C412 1.291 . S
C411 H424 0.931 . S
C412 C411 1.291 . S
C412 C413 1.373 . S
C412 H425 0.929 . S
C413 C412 1.373 . S
C413 C414 1.396 . S
C413 C420 1.403 . S
C414 C404 1.476 . S
C414 N409 1.318 . S
C414 C413 1.396 . S
H415 C410 0.929 . S
O416 Mn392 2.385 . S
O416 C394 1.234 . S
O417 Mn392 2.209 . S
O417 Mn393 2.215 . S
O417 C394 1.283 . S
O418 Mn392 2.094 . S
O418 C396 1.240 . S
O419 Mn393 2.117 . S
O419 C396 1.264 . S
C420 C413 1.403 . S
C420 C421 1.399 . S
C420 H426 0.929 . S
C421 C401 1.449 . S
C421 C420 1.399 . S
C421 H427 0.930 . S
H422 C402 0.931 . S
H423 C403 0.930 . S
H424 C411 0.931 . S
H425 C412 0.929 . S
H426 C420 0.929 . S
H427 C421 0.930 . S
Mn428 O433 2.095 . S
Mn428 O443 2.162 . S
Mn428 O444 2.297 . S
Mn428 O452 2.385 1_565 S
Mn428 O453 2.209 1_565 S
Mn428 O454 2.094 . S
Mn429 O434 2.121 . S
Mn429 N436 2.257 . S
Mn429 N445 2.282 . S
Mn429 O453 2.215 . S
Mn429 O455 2.117 . S
C430 O452 1.234 . S
C430 O453 1.283 . S
C431 O443 1.281 . S
C431 O444 1.236 . S
C432 O454 1.257 . S
C432 O455 1.245 1_565 S
O433 Mn428 2.095 . S
O433 C442 1.250 1_565 S
O434 Mn429 2.121 . S
O434 C442 1.258 . S
C435 N436 1.326 . S
C435 C439 1.460 . S
C435 H441 0.929 . S
N436 Mn429 2.257 . S
N436 C435 1.326 . S
N436 C440 1.362 . S
C437 C438 1.258 . S
C437 C440 1.431 . S
C437 C457 1.449 . S
C438 C437 1.258 . S
C438 C439 1.477 . S
C438 H458 0.931 . S
C439 C435 1.460 . S
C439 C438 1.477 . S
C439 H459 0.930 . S
C440 N436 1.362 . S
C440 C437 1.431 . S
C440 C450 1.476 . S
H441 C435 0.929 . S
C442 O433 1.250 1_545 S
C442 O434 1.258 . S
O443 Mn428 2.162 . S
O443 C431 1.281 . S
O444 Mn428 2.297 . S
O444 C431 1.236 . S
N445 Mn429 2.282 . S
N445 C446 1.328 . S
N445 C450 1.318 . S
C446 N445 1.328 . S
C446 C447 1.457 . S
C446 H451 0.929 . S
C447 C446 1.457 . S
C447 C448 1.291 . S
C447 H460 0.931 . S
C448 C447 1.291 . S
C448 C449 1.373 . S
C448 H461 0.929 . S
C449 C448 1.373 . S
C449 C450 1.396 . S
C449 C456 1.403 . S
C450 C440 1.476 . S
C450 N445 1.318 . S
C450 C449 1.396 . S
H451 C446 0.929 . S
O452 Mn428 2.385 1_545 S
O452 C430 1.234 . S
O453 Mn428 2.209 1_545 S
O453 Mn429 2.215 . S
O453 C430 1.283 . S
O454 Mn428 2.094 . S
O454 C432 1.257 . S
O455 Mn429 2.117 . S
O455 C432 1.245 1_545 S
C456 C449 1.403 . S
C456 C457 1.399 . S
C456 H462 0.929 . S
C457 C437 1.449 . S
C457 C456 1.399 . S
C457 H463 0.930 . S
H458 C438 0.931 . S
H459 C439 0.930 . S
H460 C447 0.931 . S
H461 C448 0.929 . S
H462 C456 0.929 . S
H463 C457 0.930 . S
Mn464 O469 2.095 . S
Mn464 O479 2.162 . S
Mn464 O480 2.297 . S
Mn464 O488 2.385 . S
Mn464 O489 2.209 1_455 S
Mn464 O490 2.094 . S
Mn465 O470 2.121 . S
Mn465 N472 2.257 . S
Mn465 N481 2.282 . S
Mn465 O489 2.215 . S
Mn465 O491 2.117 1_655 S
C466 O488 1.234 1_655 S
C466 O489 1.283 . S
C467 O479 1.281 . S
C467 O480 1.236 . S
C468 O490 1.240 . S
C468 O491 1.264 . S
O469 Mn464 2.095 . S
O469 C478 1.250 . S
O470 Mn465 2.121 . S
O470 C478 1.258 1_655 S
C471 N472 1.326 . S
C471 C475 1.460 . S
C471 H477 0.929 . S
N472 Mn465 2.257 . S
N472 C471 1.326 . S
N472 C476 1.362 . S
C473 C474 1.258 . S
C473 C476 1.431 . S
C473 C493 1.449 . S
C474 C473 1.258 . S
C474 C475 1.477 . S
C474 H494 0.931 . S
C475 C471 1.460 . S
C475 C474 1.477 . S
C475 H495 0.930 . S
C476 N472 1.362 . S
C476 C473 1.431 . S
C476 C486 1.476 . S
H477 C471 0.929 . S
C478 O469 1.250 . S
C478 O470 1.258 1_455 S
O479 Mn464 2.162 . S
O479 C467 1.281 . S
O480 Mn464 2.297 . S
O480 C467 1.236 . S
N481 Mn465 2.282 . S
N481 C482 1.328 . S
N481 C486 1.318 . S
C482 N481 1.328 . S
C482 C483 1.457 . S
C482 H487 0.929 . S
C483 C482 1.457 . S
C483 C484 1.291 . S
C483 H496 0.931 . S
C484 C483 1.291 . S
C484 C485 1.373 . S
C484 H497 0.929 . S
C485 C484 1.373 . S
C485 C486 1.396 . S
C485 C492 1.403 . S
C486 C476 1.476 . S
C486 N481 1.318 . S
C486 C485 1.396 . S
H487 C482 0.929 . S
O488 Mn464 2.385 . S
O488 C466 1.234 1_455 S
O489 Mn464 2.209 1_655 S
O489 Mn465 2.215 . S
O489 C466 1.283 . S
O490 Mn464 2.094 . S
O490 C468 1.240 . S
O491 Mn465 2.117 1_455 S
O491 C468 1.264 . S
C492 C485 1.403 . S
C492 C493 1.399 . S
C492 H498 0.929 . S
C493 C473 1.449 . S
C493 C492 1.399 . S
C493 H499 0.930 . S
H494 C474 0.931 . S
H495 C475 0.930 . S
H496 C483 0.931 . S
H497 C484 0.929 . S
H498 C492 0.929 . S
H499 C493 0.930 . S
Mn500 O505 2.095 . S
Mn500 O515 2.162 . S
Mn500 O516 2.297 . S
Mn500 O524 2.385 . S
Mn500 O525 2.209 . S
Mn500 O526 2.094 . S
Mn501 O506 2.121 . S
Mn501 N508 2.257 . S
Mn501 N517 2.282 . S
Mn501 O525 2.215 . S
Mn501 O527 2.117 . S
C502 O524 1.234 . S
C502 O525 1.283 . S
C503 O515 1.281 . S
C503 O516 1.236 . S
C504 O526 1.240 . S
C504 O527 1.264 . S
O505 Mn500 2.095 . S
O505 C514 1.250 . S
O506 Mn501 2.121 . S
O506 C514 1.258 . S
C507 N508 1.326 . S
C507 C511 1.460 . S
C507 H513 0.929 . S
N508 Mn501 2.257 . S
N508 C507 1.326 . S
N508 C512 1.362 . S
C509 C510 1.258 . S
C509 C512 1.431 . S
C509 C529 1.449 . S
C510 C509 1.258 . S
C510 C511 1.477 . S
C510 H530 0.931 . S
C511 C507 1.460 . S
C511 C510 1.477 . S
C511 H531 0.930 . S
C512 N508 1.362 . S
C512 C509 1.431 . S
C512 C522 1.476 . S
H513 C507 0.929 . S
C514 O505 1.250 . S
C514 O506 1.258 . S
O515 Mn500 2.162 . S
O515 C503 1.281 . S
O516 Mn500 2.297 . S
O516 C503 1.236 . S
N517 Mn501 2.282 . S
N517 C518 1.328 . S
N517 C522 1.318 . S
C518 N517 1.328 . S
C518 C519 1.457 . S
C518 H523 0.929 . S
C519 C518 1.457 . S
C519 C520 1.291 . S
C519 H532 0.931 . S
C520 C519 1.291 . S
C520 C521 1.373 . S
C520 H533 0.929 . S
C521 C520 1.373 . S
C521 C522 1.396 . S
C521 C528 1.403 . S
C522 C512 1.476 . S
C522 N517 1.318 . S
C522 C521 1.396 . S
H523 C518 0.929 . S
O524 Mn500 2.385 . S
O524 C502 1.234 . S
O525 Mn500 2.209 . S
O525 Mn501 2.215 . S
O525 C502 1.283 . S
O526 Mn500 2.094 . S
O526 C504 1.240 . S
O527 Mn501 2.117 . S
O527 C504 1.264 . S
C528 C521 1.403 . S
C528 C529 1.399 . S
C528 H534 0.929 . S
C529 C509 1.449 . S
C529 C528 1.399 . S
C529 H535 0.930 . S
H530 C510 0.931 . S
H531 C511 0.930 . S
H532 C519 0.931 . S
H533 C520 0.929 . S
H534 C528 0.929 . S
H535 C529 0.930 . S
Mn536 O541 2.096 1_455 S
Mn536 O551 2.162 . S
Mn536 O552 2.297 . S
Mn536 O560 2.385 . S
Mn536 O561 2.214 . S
Mn536 O562 2.094 . S
Mn537 O542 2.121 . S
Mn537 N544 2.257 . S
Mn537 N553 2.282 1_655 S
Mn537 O561 2.213 1_655 S
Mn537 O563 2.117 1_655 S
C538 O560 1.234 . S
C538 O561 1.291 . S
C539 O551 1.281 . S
C539 O552 1.236 . S
C540 O562 1.240 . S
C540 O563 1.264 . S
O541 Mn536 2.096 1_655 S
O541 C550 1.248 . S
O542 Mn537 2.121 . S
O542 C550 1.258 . S
C543 N544 1.326 . S
C543 C547 1.460 . S
C543 H549 0.929 . S
N544 Mn537 2.257 . S
N544 C543 1.326 . S
N544 C548 1.362 . S
C545 C546 1.258 . S
C545 C548 1.431 . S
C545 C565 1.449 . S
C546 C545 1.258 . S
C546 C547 1.477 . S
C546 H566 0.931 . S
C547 C543 1.460 . S
C547 C546 1.477 . S
C547 H567 0.930 . S
C548 N544 1.362 . S
C548 C545 1.431 . S
C548 C558 1.476 . S
H549 C543 0.929 . S
C550 O541 1.248 . S
C550 O542 1.258 . S
O551 Mn536 2.162 . S
O551 C539 1.281 . S
O552 Mn536 2.297 . S
O552 C539 1.236 . S
N553 Mn537 2.282 1_455 S
N553 C554 1.328 . S
N553 C558 1.318 1_455 S
C554 N553 1.328 . S
C554 C555 1.457 . S
C554 H559 0.929 . S
C555 C554 1.457 . S
C555 C556 1.291 . S
C555 H568 0.931 . S
C556 C555 1.291 . S
C556 C557 1.373 1_455 S
C556 H569 0.929 . S
C557 C556 1.373 1_655 S
C557 C558 1.396 . S
C557 C564 1.403 . S
C558 C548 1.476 . S
C558 N553 1.318 1_655 S
C558 C557 1.396 . S
H559 C554 0.929 . S
O560 Mn536 2.385 . S
O560 C538 1.234 . S
O561 Mn536 2.214 . S
O561 Mn537 2.213 1_455 S
O561 C538 1.291 . S
O562 Mn536 2.094 . S
O562 C540 1.240 . S
O563 Mn537 2.117 1_455 S
O563 C540 1.264 . S
C564 C557 1.403 . S
C564 C565 1.399 . S
C564 H570 0.929 . S
C565 C545 1.449 . S
C565 C564 1.399 . S
C565 H571 0.930 . S
H566 C546 0.931 . S
H567 C547 0.930 . S
H568 C555 0.931 . S
H569 C556 0.929 . S
H570 C564 0.929 . S
H571 C565 0.930 . S
Mn572 O577 2.095 . S
Mn572 O587 2.162 . S
Mn572 O588 2.297 . S
Mn572 O596 2.385 . S
Mn572 O597 2.209 . S
Mn572 O598 2.094 . S
Mn573 O578 2.121 . S
Mn573 N580 2.257 . S
Mn573 N589 2.282 . S
Mn573 O597 2.215 . S
Mn573 O599 2.117 . S
C574 O596 1.234 . S
C574 O597 1.283 . S
C575 O587 1.281 . S
C575 O588 1.236 . S
C576 O598 1.240 . S
C576 O599 1.264 . S
O577 Mn572 2.095 . S
O577 C586 1.250 . S
O578 Mn573 2.121 . S
O578 C586 1.258 . S
C579 N580 1.326 . S
C579 C583 1.460 . S
C579 H585 0.929 . S
N580 Mn573 2.257 . S
N580 C579 1.326 . S
N580 C584 1.362 . S
C581 C582 1.258 . S
C581 C584 1.431 . S
C581 C601 1.449 . S
C582 C581 1.258 . S
C582 C583 1.477 . S
C582 H602 0.931 . S
C583 C579 1.460 . S
C583 C582 1.477 . S
C583 H603 0.930 . S
C584 N580 1.362 . S
C584 C581 1.431 . S
C584 C594 1.476 . S
H585 C579 0.929 . S
C586 O577 1.250 . S
C586 O578 1.258 . S
O587 Mn572 2.162 . S
O587 C575 1.281 . S
O588 Mn572 2.297 . S
O588 C575 1.236 . S
N589 Mn573 2.282 . S
N589 C590 1.328 . S
N589 C594 1.318 . S
C590 N589 1.328 . S
C590 C591 1.457 . S
C590 H595 0.929 . S
C591 C590 1.457 . S
C591 C592 1.291 . S
C591 H604 0.931 . S
C592 C591 1.291 . S
C592 C593 1.373 . S
C592 H605 0.929 . S
C593 C592 1.373 . S
C593 C594 1.396 . S
C593 C600 1.403 . S
C594 C584 1.476 . S
C594 N589 1.318 . S
C594 C593 1.396 . S
H595 C590 0.929 . S
O596 Mn572 2.385 . S
O596 C574 1.234 . S
O597 Mn572 2.209 . S
O597 Mn573 2.215 . S
O597 C574 1.283 . S
O598 Mn572 2.094 . S
O598 C576 1.240 . S
O599 Mn573 2.117 . S
O599 C576 1.264 . S
C600 C593 1.403 . S
C600 C601 1.399 . S
C600 H606 0.929 . S
C601 C581 1.449 . S
C601 C600 1.399 . S
C601 H607 0.930 . S
H602 C582 0.931 . S
H603 C583 0.930 . S
H604 C591 0.931 . S
H605 C592 0.929 . S
H606 C600 0.929 . S
H607 C601 0.930 . S
H608 C616 0.929 . S
H609 C618 0.930 . S
H610 C620 0.930 . S
H611 C623 0.929 . S
H612 C626 0.930 . S
H613 C628 0.960 . S
H614 C628 0.960 . S
H615 C628 0.960 . S
C616 H608 0.929 . S
C616 C617 1.377 . S
C616 C618 1.384 . S
C617 C616 1.377 . S
C617 C623 1.390 . S
C618 H609 0.930 . S
C618 C616 1.384 . S
C618 C619 1.372 . S
C619 C618 1.372 . S
C619 C620 1.400 . S
C619 C624 1.490 . S
C620 H610 0.930 . S
C620 C619 1.400 . S
C620 C623 1.386 . S
H621 C637 0.930 . S
H622 C638 0.931 . S
C623 H611 0.929 . S
C623 C617 1.390 . S
C623 C620 1.386 . S
C624 C619 1.490 . S
C624 C626 1.395 . S
C624 C627 1.403 . S
H625 C631 0.930 . S
C626 H612 0.930 . S
C626 C624 1.395 . S
C626 C629 1.403 . S
C627 C624 1.403 . S
C627 C628 1.524 . S
C627 C631 1.400 . S
C628 H613 0.960 . S
C628 H614 0.960 . S
C628 H615 0.960 . S
C628 C627 1.524 . S
C629 C626 1.403 . S
C629 C630 1.392 . S
C629 C633 1.495 . S
C630 C629 1.392 . S
C630 C631 1.385 . S
C630 C632 1.478 . S
C631 H625 0.930 . S
C631 C627 1.400 . S
C631 C630 1.385 . S
C632 C630 1.478 . S
C632 C634 1.381 . S
C632 C638 1.383 . S
C633 C629 1.495 . S
C633 H639 0.959 . S
C633 H640 0.961 . S
C633 H641 0.960 . S
C634 C632 1.381 . S
C634 C635 1.394 . S
C634 H642 0.930 . S
C635 C634 1.394 . S
C635 C636 1.383 . S
C635 H643 0.929 . S
C636 C635 1.383 . S
C636 C637 1.377 . S
C637 H621 0.930 . S
C637 C636 1.377 . S
C637 C638 1.379 . S
C638 H622 0.931 . S
C638 C632 1.383 . S
C638 C637 1.379 . S
H639 C633 0.959 . S
H640 C633 0.961 . S
H641 C633 0.960 . S
H642 C634 0.930 . S
H643 C635 0.929 . S
H644 C652 0.929 . S
H645 C654 0.930 . S
H646 C656 0.930 . S
H647 C659 0.929 . S
H648 C662 0.930 . S
H649 C664 0.960 . S
H650 C664 0.960 . S
H651 C664 0.960 . S
C652 H644 0.929 . S
C652 C653 1.377 . S
C652 C654 1.384 . S
C653 C652 1.377 . S
C653 C659 1.390 . S
C654 H645 0.930 . S
C654 C652 1.384 . S
C654 C655 1.372 . S
C655 C654 1.372 . S
C655 C656 1.400 . S
C655 C660 1.490 . S
C656 H646 0.930 . S
C656 C655 1.400 . S
C656 C659 1.386 . S
H657 C673 0.930 . S
H658 C674 0.931 . S
C659 H647 0.929 . S
C659 C653 1.390 . S
C659 C656 1.386 . S
C660 C655 1.490 . S
C660 C662 1.395 . S
C660 C663 1.403 . S
H661 C667 0.930 . S
C662 H648 0.930 . S
C662 C660 1.395 . S
C662 C665 1.403 . S
C663 C660 1.403 . S
C663 C664 1.524 . S
C663 C667 1.400 . S
C664 H649 0.960 . S
C664 H650 0.960 . S
C664 H651 0.960 . S
C664 C663 1.524 . S
C665 C662 1.403 . S
C665 C666 1.392 . S
C665 C669 1.495 . S
C666 C665 1.392 . S
C666 C667 1.385 . S
C666 C668 1.478 . S
C667 H661 0.930 . S
C667 C663 1.400 . S
C667 C666 1.385 . S
C668 C666 1.478 . S
C668 C670 1.381 . S
C668 C674 1.383 . S
C669 C665 1.495 . S
C669 H675 0.959 . S
C669 H676 0.961 . S
C669 H677 0.960 . S
C670 C668 1.381 . S
C670 C671 1.394 . S
C670 H678 0.930 . S
C671 C670 1.394 . S
C671 C672 1.383 . S
C671 H679 0.929 . S
C672 C671 1.383 . S
C672 C673 1.377 . S
C673 H657 0.930 . S
C673 C672 1.377 . S
C673 C674 1.379 . S
C674 H658 0.931 . S
C674 C668 1.383 . S
C674 C673 1.379 . S
H675 C669 0.959 . S
H676 C669 0.961 . S
H677 C669 0.960 . S
H678 C670 0.930 . S
H679 C671 0.929 . S
H680 C688 0.929 . S
H681 C690 0.930 . S
H682 C692 0.930 . S
H683 C695 0.929 . S
H684 C698 0.930 . S
H685 C700 0.960 . S
H686 C700 0.960 . S
H687 C700 0.960 . S
C688 H680 0.929 . S
C688 C689 1.377 . S
C688 C690 1.384 . S
C689 C688 1.377 . S
C689 C695 1.390 . S
C690 H681 0.930 . S
C690 C688 1.384 . S
C690 C691 1.372 . S
C691 C690 1.372 . S
C691 C692 1.400 . S
C691 C696 1.490 . S
C692 H682 0.930 . S
C692 C691 1.400 . S
C692 C695 1.386 . S
H693 C709 0.930 . S
H694 C710 0.931 . S
C695 H683 0.929 . S
C695 C689 1.390 . S
C695 C692 1.386 . S
C696 C691 1.490 . S
C696 C698 1.395 . S
C696 C699 1.403 . S
H697 C703 0.930 . S
C698 H684 0.930 . S
C698 C696 1.395 . S
C698 C701 1.403 . S
C699 C696 1.403 . S
C699 C700 1.524 . S
C699 C703 1.400 . S
C700 H685 0.960 . S
C700 H686 0.960 . S
C700 H687 0.960 . S
C700 C699 1.524 . S
C701 C698 1.403 . S
C701 C702 1.392 . S
C701 C705 1.495 . S
C702 C701 1.392 . S
C702 C703 1.385 . S
C702 C704 1.478 . S
C703 H697 0.930 . S
C703 C699 1.400 . S
C703 C702 1.385 . S
C704 C702 1.478 . S
C704 C706 1.381 . S
C704 C710 1.383 . S
C705 C701 1.495 . S
C705 H711 0.959 . S
C705 H712 0.961 . S
C705 H713 0.960 . S
C706 C704 1.381 . S
C706 C707 1.394 . S
C706 H714 0.930 . S
C707 C706 1.394 . S
C707 C708 1.383 . S
C707 H715 0.929 . S
C708 C707 1.383 . S
C708 C709 1.377 . S
C709 H693 0.930 . S
C709 C708 1.377 . S
C709 C710 1.379 . S
C710 H694 0.931 . S
C710 C704 1.383 . S
C710 C709 1.379 . S
H711 C705 0.959 . S
H712 C705 0.961 . S
H713 C705 0.960 . S
H714 C706 0.930 . S
H715 C707 0.929 . S
H716 C724 0.945 . S
H717 C726 0.930 . S
H718 C728 0.930 1_655 S
H719 C731 0.929 . S
H720 C734 0.930 . S
H721 C736 0.960 . S
H722 C736 0.960 . S
H723 C736 0.960 1_565 S
C724 H716 0.945 . S
C724 C725 1.346 1_545 S
C724 C726 1.401 . S
C725 C724 1.346 1_565 S
C725 C731 1.390 . S
C726 H717 0.930 . S
C726 C724 1.401 . S
C726 C727 1.372 1_545 S
C727 C726 1.372 1_565 S
C727 C728 1.400 . S
C727 C732 1.495 . S
C728 H718 0.930 1_455 S
C728 C727 1.400 . S
C728 C731 1.386 . S
H729 C745 0.930 1_565 S
H730 C746 0.916 1_565 S
C731 H719 0.929 . S
C731 C725 1.390 . S
C731 C728 1.386 . S
C732 C727 1.495 . S
C732 C734 1.394 . S
C732 C735 1.399 1_465 S
H733 C739 0.930 . S
C734 H720 0.930 . S
C734 C732 1.394 . S
C734 C737 1.403 1_565 S
C735 C732 1.399 1_645 S
C735 C736 1.524 . S
C735 C739 1.400 . S
C736 H721 0.960 . S
C736 H722 0.960 . S
C736 H723 0.960 1_545 S
C736 C735 1.524 . S
C737 C734 1.403 1_545 S
C737 C738 1.392 1_455 S
C737 C741 1.495 . S
C738 C737 1.392 1_655 S
C738 C739 1.385 . S
C738 C740 1.478 . S
C739 H733 0.930 . S
C739 C735 1.400 . S
C739 C738 1.385 . S
C740 C738 1.478 . S
C740 C742 1.381 . S
C740 C746 1.390 . S
C741 C737 1.495 . S
C741 H747 0.959 1_545 S
C741 H748 0.961 1_545 S
C741 H749 0.960 . S
C742 C740 1.381 . S
C742 C743 1.394 . S
C742 H750 0.930 . S
C743 C742 1.394 . S
C743 C744 1.383 . S
C743 H751 0.929 . S
C744 C743 1.383 . S
C744 C745 1.377 . S
C745 H729 0.930 1_545 S
C745 C744 1.377 . S
C745 C746 1.387 . S
C746 H730 0.916 1_545 S
C746 C740 1.390 . S
C746 C745 1.387 . S
H747 C741 0.959 1_565 S
H748 C741 0.961 1_565 S
H749 C741 0.960 . S
H750 C742 0.930 . S
H751 C743 0.929 . S
H752 C760 0.929 . S
H753 C762 0.930 . S
H754 C764 0.930 . S
H755 C767 0.929 . S
H756 C770 0.930 . S
H757 C772 0.960 . S
H758 C772 0.960 . S
H759 C772 0.960 . S
C760 H752 0.929 . S
C760 C761 1.377 . S
C760 C762 1.384 . S
C761 C760 1.377 . S
C761 C767 1.390 . S
C762 H753 0.930 . S
C762 C760 1.384 . S
C762 C763 1.372 . S
C763 C762 1.372 . S
C763 C764 1.400 . S
C763 C768 1.490 . S
C764 H754 0.930 . S
C764 C763 1.400 . S
C764 C767 1.386 . S
H765 C781 0.930 . S
H766 C782 0.931 . S
C767 H755 0.929 . S
C767 C761 1.390 . S
C767 C764 1.386 . S
C768 C763 1.490 . S
C768 C770 1.395 . S
C768 C771 1.403 . S
H769 C775 0.930 . S
C770 H756 0.930 . S
C770 C768 1.395 . S
C770 C773 1.403 . S
C771 C768 1.403 . S
C771 C772 1.524 . S
C771 C775 1.400 . S
C772 H757 0.960 . S
C772 H758 0.960 . S
C772 H759 0.960 . S
C772 C771 1.524 . S
C773 C770 1.403 . S
C773 C774 1.392 . S
C773 C777 1.495 . S
C774 C773 1.392 . S
C774 C775 1.385 . S
C774 C776 1.478 . S
C775 H769 0.930 . S
C775 C771 1.400 . S
C775 C774 1.385 . S
C776 C774 1.478 . S
C776 C778 1.381 . S
C776 C782 1.383 . S
C777 C773 1.495 . S
C777 H783 0.959 . S
C777 H784 0.961 . S
C777 H785 0.960 . S
C778 C776 1.381 . S
C778 C779 1.394 . S
C778 H786 0.930 . S
C779 C778 1.394 . S
C779 C780 1.383 . S
C779 H787 0.929 . S
C780 C779 1.383 . S
C780 C781 1.377 . S
C781 H765 0.930 . S
C781 C780 1.377 . S
C781 C782 1.379 . S
C782 H766 0.931 . S
C782 C776 1.383 . S
C782 C781 1.379 . S
H783 C777 0.959 . S
H784 C777 0.961 . S
H785 C777 0.960 . S
H786 C778 0.930 . S
H787 C779 0.929 . S
H788 C796 0.929 . S
H789 C798 0.930 . S
H790 C800 0.930 . S
H791 C803 0.929 . S
H792 C806 0.930 . S
H793 C808 0.960 . S
H794 C808 0.960 . S
H795 C808 0.960 . S
C796 H788 0.929 . S
C796 C797 1.377 . S
C796 C798 1.384 . S
C797 C796 1.377 . S
C797 C803 1.390 . S
C798 H789 0.930 . S
C798 C796 1.384 . S
C798 C799 1.372 . S
C799 C798 1.372 . S
C799 C800 1.400 . S
C799 C804 1.490 . S
C800 H790 0.930 . S
C800 C799 1.400 . S
C800 C803 1.386 . S
H801 C817 0.930 . S
H802 C818 0.931 . S
C803 H791 0.929 . S
C803 C797 1.390 . S
C803 C800 1.386 . S
C804 C799 1.490 . S
C804 C806 1.395 . S
C804 C807 1.403 . S
H805 C811 0.930 . S
C806 H792 0.930 . S
C806 C804 1.395 . S
C806 C809 1.403 . S
C807 C804 1.403 . S
C807 C808 1.524 . S
C807 C811 1.400 . S
C808 H793 0.960 . S
C808 H794 0.960 . S
C808 H795 0.960 . S
C808 C807 1.524 . S
C809 C806 1.403 . S
C809 C810 1.392 . S
C809 C813 1.495 . S
C810 C809 1.392 . S
C810 C811 1.385 . S
C810 C812 1.478 . S
C811 H805 0.930 . S
C811 C807 1.400 . S
C811 C810 1.385 . S
C812 C810 1.478 . S
C812 C814 1.381 . S
C812 C818 1.383 . S
C813 C809 1.495 . S
C813 H819 0.959 . S
C813 H820 0.961 . S
C813 H821 0.960 . S
C814 C812 1.381 . S
C814 C815 1.394 . S
C814 H822 0.930 . S
C815 C814 1.394 . S
C815 C816 1.383 . S
C815 H823 0.929 . S
C816 C815 1.383 . S
C816 C817 1.377 . S
C817 H801 0.930 . S
C817 C816 1.377 . S
C817 C818 1.379 . S
C818 H802 0.931 . S
C818 C812 1.383 . S
C818 C817 1.379 . S
H819 C813 0.959 . S
H820 C813 0.961 . S
H821 C813 0.960 . S
H822 C814 0.930 . S
H823 C815 0.929 . S
H824 C832 0.929 . S
H825 C834 0.930 . S
H826 C836 0.930 . S
H827 C839 0.929 . S
H828 C842 0.930 . S
H829 C844 0.960 . S
H830 C844 0.960 . S
H831 C844 0.960 . S
C832 H824 0.929 . S
C832 C833 1.377 . S
C832 C834 1.384 . S
C833 C832 1.377 . S
C833 C839 1.390 . S
C834 H825 0.930 . S
C834 C832 1.384 . S
C834 C835 1.372 . S
C835 C834 1.372 . S
C835 C836 1.400 . S
C835 C840 1.490 . S
C836 H826 0.930 . S
C836 C835 1.400 . S
C836 C839 1.386 . S
H837 C853 0.930 . S
H838 C854 0.931 . S
C839 H827 0.929 . S
C839 C833 1.390 . S
C839 C836 1.386 . S
C840 C835 1.490 . S
C840 C842 1.395 . S
C840 C843 1.403 . S
H841 C847 0.930 . S
C842 H828 0.930 . S
C842 C840 1.395 . S
C842 C845 1.403 . S
C843 C840 1.403 . S
C843 C844 1.524 . S
C843 C847 1.400 . S
C844 H829 0.960 . S
C844 H830 0.960 . S
C844 H831 0.960 . S
C844 C843 1.524 . S
C845 C842 1.403 . S
C845 C846 1.392 . S
C845 C849 1.495 . S
C846 C845 1.392 . S
C846 C847 1.385 . S
C846 C848 1.478 . S
C847 H841 0.930 . S
C847 C843 1.400 . S
C847 C846 1.385 . S
C848 C846 1.478 . S
C848 C850 1.381 . S
C848 C854 1.383 . S
C849 C845 1.495 . S
C849 H855 0.959 . S
C849 H856 0.961 . S
C849 H857 0.960 . S
C850 C848 1.381 . S
C850 C851 1.394 . S
C850 H858 0.930 . S
C851 C850 1.394 . S
C851 C852 1.383 . S
C851 H859 0.929 . S
C852 C851 1.383 . S
C852 C853 1.377 . S
C853 H837 0.930 . S
C853 C852 1.377 . S
C853 C854 1.379 . S
C854 H838 0.931 . S
C854 C848 1.383 . S
C854 C853 1.379 . S
H855 C849 0.959 . S
H856 C849 0.961 . S
H857 C849 0.960 . S
H858 C850 0.930 . S
H859 C851 0.929 . S
H860 C868 0.929 . S
H861 C870 0.930 . S
H862 C872 0.930 . S
H863 C875 0.929 . S
H864 C878 0.930 . S
H865 C880 0.960 . S
H866 C880 0.960 . S
H867 C880 0.960 . S
C868 H860 0.929 . S
C868 C869 1.377 1_545 S
C868 C870 1.384 . S
C869 C868 1.377 1_565 S
C869 C875 1.390 . S
C870 H861 0.930 . S
C870 C868 1.384 . S
C870 C871 1.372 1_545 S
C871 C870 1.372 1_565 S
C871 C872 1.400 . S
C871 C876 1.490 . S
C872 H862 0.930 . S
C872 C871 1.400 . S
C872 C875 1.386 . S
H873 C889 0.930 . S
H874 C890 0.931 . S
C875 H863 0.929 . S
C875 C869 1.390 . S
C875 C872 1.386 . S
C876 C871 1.490 . S
C876 C878 1.395 1_565 S
C876 C879 1.403 . S
H877 C883 0.930 . S
C878 H864 0.930 . S
C878 C876 1.395 1_545 S
C878 C881 1.403 . S
C879 C876 1.403 . S
C879 C880 1.524 . S
C879 C883 1.400 . S
C880 H865 0.960 . S
C880 H866 0.960 . S
C880 H867 0.960 . S
C880 C879 1.524 . S
C881 C878 1.403 . S
C881 C882 1.392 1_545 S
C881 C885 1.495 . S
C882 C881 1.392 1_565 S
C882 C883 1.385 . S
C882 C884 1.478 . S
C883 H877 0.930 . S
C883 C879 1.400 . S
C883 C882 1.385 . S
C884 C882 1.478 . S
C884 C886 1.381 1_565 S
C884 C890 1.383 . S
C885 C881 1.495 . S
C885 H891 0.959 . S
C885 H892 0.961 . S
C885 H893 0.960 . S
C886 C884 1.381 1_545 S
C886 C887 1.394 . S
C886 H894 0.930 . S
C887 C886 1.394 . S
C887 C888 1.383 1_545 S
C887 H895 0.929 . S
C888 C887 1.383 1_565 S
C888 C889 1.377 . S
C889 H873 0.930 . S
C889 C888 1.377 . S
C889 C890 1.379 . S
C890 H874 0.931 . S
C890 C884 1.383 . S
C890 C889 1.379 . S
H891 C885 0.959 . S
H892 C885 0.961 . S
H893 C885 0.960 . S
H894 C886 0.930 . S
H895 C887 0.929 . S
H896 C904 0.929 . S
H897 C906 0.930 . S
H898 C908 0.930 . S
H899 C911 0.929 . S
H900 C914 0.930 . S
H901 C916 0.960 . S
H902 C916 0.960 . S
H903 C916 0.960 . S
C904 H896 0.929 . S
C904 C905 1.377 . S
C904 C906 1.384 . S
C905 C904 1.377 . S
C905 C911 1.390 . S
C906 H897 0.930 . S
C906 C904 1.384 . S
C906 C907 1.372 . S
C907 C906 1.372 . S
C907 C908 1.400 . S
C907 C912 1.490 . S
C908 H898 0.930 . S
C908 C907 1.400 . S
C908 C911 1.386 . S
H909 C925 0.930 . S
H910 C926 0.931 . S
C911 H899 0.929 . S
C911 C905 1.390 . S
C911 C908 1.386 . S
C912 C907 1.490 . S
C912 C914 1.395 . S
C912 C915 1.403 . S
H913 C919 0.930 . S
C914 H900 0.930 . S
C914 C912 1.395 . S
C914 C917 1.403 . S
C915 C912 1.403 . S
C915 C916 1.524 . S
C915 C919 1.400 . S
C916 H901 0.960 . S
C916 H902 0.960 . S
C916 H903 0.960 . S
C916 C915 1.524 . S
C917 C914 1.403 . S
C917 C918 1.392 . S
C917 C921 1.495 . S
C918 C917 1.392 . S
C918 C919 1.385 . S
C918 C920 1.478 . S
C919 H913 0.930 . S
C919 C915 1.400 . S
C919 C918 1.385 . S
C920 C918 1.478 . S
C920 C922 1.381 . S
C920 C926 1.383 . S
C921 C917 1.495 . S
C921 H927 0.959 . S
C921 H928 0.961 . S
C921 H929 0.960 . S
C922 C920 1.381 . S
C922 C923 1.394 . S
C922 H930 0.930 . S
C923 C922 1.394 . S
C923 C924 1.383 . S
C923 H931 0.929 . S
C924 C923 1.383 . S
C924 C925 1.377 . S
C925 H909 0.930 . S
C925 C924 1.377 . S
C925 C926 1.379 . S
C926 H910 0.931 . S
C926 C920 1.383 . S
C926 C925 1.379 . S
H927 C921 0.959 . S
H928 C921 0.961 . S
H929 C921 0.960 . S
H930 C922 0.930 . S
H931 C923 0.929 . S
H932 C940 0.929 . S
H933 C942 0.930 . S
H934 C944 0.930 . S
H935 C947 0.929 . S
H936 C950 0.930 . S
H937 C952 0.960 . S
H938 C952 0.960 . S
H939 C952 0.960 . S
C940 H932 0.929 . S
C940 C941 1.377 . S
C940 C942 1.384 . S
C941 C940 1.377 . S
C941 C947 1.390 . S
C942 H933 0.930 . S
C942 C940 1.384 . S
C942 C943 1.372 . S
C943 C942 1.372 . S
C943 C944 1.400 . S
C943 C948 1.490 . S
C944 H934 0.930 . S
C944 C943 1.400 . S
C944 C947 1.386 . S
H945 C961 0.930 . S
H946 C962 0.931 . S
C947 H935 0.929 . S
C947 C941 1.390 . S
C947 C944 1.386 . S
C948 C943 1.490 . S
C948 C950 1.395 . S
C948 C951 1.403 . S
H949 C955 0.930 . S
C950 H936 0.930 . S
C950 C948 1.395 . S
C950 C953 1.403 . S
C951 C948 1.403 . S
C951 C952 1.524 . S
C951 C955 1.400 . S
C952 H937 0.960 . S
C952 H938 0.960 . S
C952 H939 0.960 . S
C952 C951 1.524 . S
C953 C950 1.403 . S
C953 C954 1.392 . S
C953 C957 1.495 . S
C954 C953 1.392 . S
C954 C955 1.385 . S
C954 C956 1.478 . S
C955 H949 0.930 . S
C955 C951 1.400 . S
C955 C954 1.385 . S
C956 C954 1.478 . S
C956 C958 1.381 . S
C956 C962 1.383 . S
C957 C953 1.495 . S
C957 H963 0.959 . S
C957 H964 0.961 . S
C957 H965 0.960 . S
C958 C956 1.381 . S
C958 C959 1.394 . S
C958 H966 0.930 . S
C959 C958 1.394 . S
C959 C960 1.383 . S
C959 H967 0.929 . S
C960 C959 1.383 . S
C960 C961 1.377 . S
C961 H945 0.930 . S
C961 C960 1.377 . S
C961 C962 1.379 . S
C962 H946 0.931 . S
C962 C956 1.383 . S
C962 C961 1.379 . S
H963 C957 0.959 . S
H964 C957 0.961 . S
H965 C957 0.960 . S
H966 C958 0.930 . S
H967 C959 0.929 . S
H968 C976 0.929 . S
H969 C978 0.930 . S
H970 C980 0.930 . S
H971 C983 0.929 . S
H972 C986 0.930 . S
H973 C988 0.960 . S
H974 C988 0.960 . S
H975 C988 0.960 . S
C976 H968 0.929 . S
C976 C977 1.377 . S
C976 C978 1.384 . S
C977 C976 1.377 . S
C977 C983 1.390 . S
C978 H969 0.930 . S
C978 C976 1.384 . S
C978 C979 1.372 . S
C979 C978 1.372 . S
C979 C980 1.400 . S
C979 C984 1.490 . S
C980 H970 0.930 . S
C980 C979 1.400 . S
C980 C983 1.386 . S
H981 C997 0.930 . S
H982 C998 0.931 . S
C983 H971 0.929 . S
C983 C977 1.390 . S
C983 C980 1.386 . S
C984 C979 1.490 . S
C984 C986 1.395 . S
C984 C987 1.403 . S
H985 C991 0.930 . S
C986 H972 0.930 . S
C986 C984 1.395 . S
C986 C989 1.403 . S
C987 C984 1.403 . S
C987 C988 1.524 . S
C987 C991 1.400 . S
C988 H973 0.960 . S
C988 H974 0.960 . S
C988 H975 0.960 . S
C988 C987 1.524 . S
C989 C986 1.403 . S
C989 C990 1.392 . S
C989 C993 1.495 . S
C990 C989 1.392 . S
C990 C991 1.385 . S
C990 C992 1.478 . S
C991 H985 0.930 . S
C991 C987 1.400 . S
C991 C990 1.385 . S
C992 C990 1.478 . S
C992 C994 1.381 . S
C992 C998 1.383 . S
C993 C989 1.495 . S
C993 H999 0.959 . S
C993 H1000 0.961 . S
C993 H1001 0.960 . S
C994 C992 1.381 . S
C994 C995 1.394 . S
C994 H1002 0.930 . S
C995 C994 1.394 . S
C995 C996 1.383 . S
C995 H1003 0.929 . S
C996 C995 1.383 . S
C996 C997 1.377 . S
C997 H981 0.930 . S
C997 C996 1.377 . S
C997 C998 1.379 . S
C998 H982 0.931 . S
C998 C992 1.383 . S
C998 C997 1.379 . S
H999 C993 0.959 . S
H1000 C993 0.961 . S
H1001 C993 0.960 . S
H1002 C994 0.930 . S
H1003 C995 0.929 . S
H1004 C1012 0.929 . S
H1005 C1014 0.930 . S
H1006 C1016 0.930 . S
H1007 C1019 0.929 . S
H1008 C1022 0.930 . S
H1009 C1024 0.960 . S
H1010 C1024 0.960 . S
H1011 C1024 0.960 . S
C1012 H1004 0.929 . S
C1012 C1013 1.377 . S
C1012 C1014 1.384 . S
C1013 C1012 1.377 . S
C1013 C1019 1.390 . S
C1014 H1005 0.930 . S
C1014 C1012 1.384 . S
C1014 C1015 1.372 . S
C1015 C1014 1.372 . S
C1015 C1016 1.400 . S
C1015 C1020 1.490 . S
C1016 H1006 0.930 . S
C1016 C1015 1.400 . S
C1016 C1019 1.386 . S
H1017 C1033 0.930 . S
H1018 C1034 0.931 . S
C1019 H1007 0.929 . S
C1019 C1013 1.390 . S
C1019 C1016 1.386 . S
C1020 C1015 1.490 . S
C1020 C1022 1.395 . S
C1020 C1023 1.403 . S
H1021 C1027 0.930 . S
C1022 H1008 0.930 . S
C1022 C1020 1.395 . S
C1022 C1025 1.403 . S
C1023 C1020 1.403 . S
C1023 C1024 1.524 . S
C1023 C1027 1.400 . S
C1024 H1009 0.960 . S
C1024 H1010 0.960 . S
C1024 H1011 0.960 . S
C1024 C1023 1.524 . S
C1025 C1022 1.403 . S
C1025 C1026 1.392 . S
C1025 C1029 1.495 . S
C1026 C1025 1.392 . S
C1026 C1027 1.385 . S
C1026 C1028 1.478 . S
C1027 H1021 0.930 . S
C1027 C1023 1.400 . S
C1027 C1026 1.385 . S
C1028 C1026 1.478 . S
C1028 C1030 1.381 . S
C1028 C1034 1.383 . S
C1029 C1025 1.495 . S
C1029 H1035 0.959 . S
C1029 H1036 0.961 . S
C1029 H1037 0.960 . S
C1030 C1028 1.381 . S
C1030 C1031 1.394 . S
C1030 H1038 0.930 . S
C1031 C1030 1.394 . S
C1031 C1032 1.383 . S
C1031 H1039 0.929 . S
C1032 C1031 1.383 . S
C1032 C1033 1.377 . S
C1033 H1017 0.930 . S
C1033 C1032 1.377 . S
C1033 C1034 1.379 . S
C1034 H1018 0.931 . S
C1034 C1028 1.383 . S
C1034 C1033 1.379 . S
H1035 C1029 0.959 . S
H1036 C1029 0.961 . S
H1037 C1029 0.960 . S
H1038 C1030 0.930 . S
H1039 C1031 0.929 . S
H1040 C1048 0.929 . S
H1041 C1050 0.930 . S
H1042 C1052 0.930 . S
H1043 C1055 0.929 . S
H1044 C1058 0.930 . S
H1045 C1060 0.960 . S
H1046 C1060 0.960 . S
H1047 C1060 0.960 . S
C1048 H1040 0.929 . S
C1048 C1049 1.377 . S
C1048 C1050 1.384 . S
C1049 C1048 1.377 . S
C1049 C1055 1.390 . S
C1050 H1041 0.930 . S
C1050 C1048 1.384 . S
C1050 C1051 1.372 . S
C1051 C1050 1.372 . S
C1051 C1052 1.400 . S
C1051 C1056 1.490 . S
C1052 H1042 0.930 . S
C1052 C1051 1.400 . S
C1052 C1055 1.386 . S
H1053 C1069 0.930 . S
H1054 C1070 0.931 . S
C1055 H1043 0.929 . S
C1055 C1049 1.390 . S
C1055 C1052 1.386 . S
C1056 C1051 1.490 . S
C1056 C1058 1.395 . S
C1056 C1059 1.403 . S
H1057 C1063 0.930 . S
C1058 H1044 0.930 . S
C1058 C1056 1.395 . S
C1058 C1061 1.403 . S
C1059 C1056 1.403 . S
C1059 C1060 1.524 . S
C1059 C1063 1.400 . S
C1060 H1045 0.960 . S
C1060 H1046 0.960 . S
C1060 H1047 0.960 . S
C1060 C1059 1.524 . S
C1061 C1058 1.403 . S
C1061 C1062 1.392 . S
C1061 C1065 1.495 . S
C1062 C1061 1.392 . S
C1062 C1063 1.385 . S
C1062 C1064 1.478 . S
C1063 H1057 0.930 . S
C1063 C1059 1.400 . S
C1063 C1062 1.385 . S
C1064 C1062 1.478 . S
C1064 C1066 1.381 . S
C1064 C1070 1.383 . S
C1065 C1061 1.495 . S
C1065 H1071 0.959 . S
C1065 H1072 0.961 . S
C1065 H1073 0.960 . S
C1066 C1064 1.381 . S
C1066 C1067 1.394 . S
C1066 H1074 0.930 . S
C1067 C1066 1.394 . S
C1067 C1068 1.383 . S
C1067 H1075 0.929 . S
C1068 C1067 1.383 . S
C1068 C1069 1.377 . S
C1069 H1053 0.930 . S
C1069 C1068 1.377 . S
C1069 C1070 1.379 . S
C1070 H1054 0.931 . S
C1070 C1064 1.383 . S
C1070 C1069 1.379 . S
H1071 C1065 0.959 . S
H1072 C1065 0.961 . S
H1073 C1065 0.960 . S
H1074 C1066 0.930 . S
H1075 C1067 0.929 . S
H1076 C1084 0.929 . S
H1077 C1086 0.930 . S
H1078 C1088 0.930 . S
H1079 C1091 0.929 . S
H1080 C1094 0.930 . S
H1081 C1096 0.960 . S
H1082 C1096 0.960 . S
H1083 C1096 0.960 . S
C1084 H1076 0.929 . S
C1084 C1085 1.377 . S
C1084 C1086 1.384 . S
C1085 C1084 1.377 . S
C1085 C1091 1.390 . S
C1086 H1077 0.930 . S
C1086 C1084 1.384 . S
C1086 C1087 1.372 . S
C1087 C1086 1.372 . S
C1087 C1088 1.400 . S
C1087 C1092 1.490 . S
C1088 H1078 0.930 . S
C1088 C1087 1.400 . S
C1088 C1091 1.386 . S
H1089 C1105 0.930 . S
H1090 C1106 0.931 . S
C1091 H1079 0.929 . S
C1091 C1085 1.390 . S
C1091 C1088 1.386 . S
C1092 C1087 1.490 . S
C1092 C1094 1.395 . S
C1092 C1095 1.403 . S
H1093 C1099 0.930 . S
C1094 H1080 0.930 . S
C1094 C1092 1.395 . S
C1094 C1097 1.403 . S
C1095 C1092 1.403 . S
C1095 C1096 1.524 . S
C1095 C1099 1.400 . S
C1096 H1081 0.960 . S
C1096 H1082 0.960 . S
C1096 H1083 0.960 . S
C1096 C1095 1.524 . S
C1097 C1094 1.403 . S
C1097 C1098 1.392 . S
C1097 C1101 1.495 . S
C1098 C1097 1.392 . S
C1098 C1099 1.385 . S
C1098 C1100 1.478 . S
C1099 H1093 0.930 . S
C1099 C1095 1.400 . S
C1099 C1098 1.385 . S
C1100 C1098 1.478 . S
C1100 C1102 1.381 . S
C1100 C1106 1.383 . S
C1101 C1097 1.495 . S
C1101 H1107 0.959 . S
C1101 H1108 0.961 . S
C1101 H1109 1.003 . S
C1102 C1100 1.381 . S
C1102 C1103 1.394 . S
C1102 H1110 0.930 1_455 S
C1103 C1102 1.394 . S
C1103 C1104 1.383 . S
C1103 H1111 0.929 1_455 S
C1104 C1103 1.383 . S
C1104 C1105 1.377 . S
C1105 H1089 0.930 . S
C1105 C1104 1.377 . S
C1105 C1106 1.379 . S
C1106 H1090 0.931 . S
C1106 C1100 1.383 . S
C1106 C1105 1.379 . S
H1107 C1101 0.959 . S
H1108 C1101 0.961 . S
H1109 C1101 1.003 . S
H1110 C1102 0.930 1_655 S
H1111 C1103 0.929 1_655 S
H1112 C1120 0.929 . S
H1113 C1122 0.930 . S
H1114 C1124 0.930 . S
H1115 C1127 0.929 . S
H1116 C1130 0.930 . S
H1117 C1132 0.960 . S
H1118 C1132 0.960 . S
H1119 C1132 0.960 . S
C1120 H1112 0.929 . S
C1120 C1121 1.377 . S
C1120 C1122 1.384 . S
C1121 C1120 1.377 . S
C1121 C1127 1.390 . S
C1122 H1113 0.930 . S
C1122 C1120 1.384 . S
C1122 C1123 1.372 . S
C1123 C1122 1.372 . S
C1123 C1124 1.400 . S
C1123 C1128 1.490 . S
C1124 H1114 0.930 . S
C1124 C1123 1.400 . S
C1124 C1127 1.386 . S
H1125 C1141 0.930 . S
H1126 C1142 0.931 . S
C1127 H1115 0.929 . S
C1127 C1121 1.390 . S
C1127 C1124 1.386 . S
C1128 C1123 1.490 . S
C1128 C1130 1.395 . S
C1128 C1131 1.403 . S
H1129 C1135 0.930 . S
C1130 H1116 0.930 . S
C1130 C1128 1.395 . S
C1130 C1133 1.403 . S
C1131 C1128 1.403 . S
C1131 C1132 1.524 . S
C1131 C1135 1.400 . S
C1132 H1117 0.960 . S
C1132 H1118 0.960 . S
C1132 H1119 0.960 . S
C1132 C1131 1.524 . S
C1133 C1130 1.403 . S
C1133 C1134 1.392 . S
C1133 C1137 1.495 . S
C1134 C1133 1.392 . S
C1134 C1135 1.385 . S
C1134 C1136 1.478 . S
C1135 H1129 0.930 . S
C1135 C1131 1.400 . S
C1135 C1134 1.385 . S
C1136 C1134 1.478 . S
C1136 C1138 1.381 . S
C1136 C1142 1.383 . S
C1137 C1133 1.495 . S
C1137 H1143 0.959 . S
C1137 H1144 0.961 . S
C1137 H1145 0.960 . S
C1138 C1136 1.381 . S
C1138 C1139 1.394 . S
C1138 H1146 0.930 . S
C1139 C1138 1.394 . S
C1139 C1140 1.383 . S
C1139 H1147 0.929 . S
C1140 C1139 1.383 . S
C1140 C1141 1.377 . S
C1141 H1125 0.930 . S
C1141 C1140 1.377 . S
C1141 C1142 1.379 . S
C1142 H1126 0.931 . S
C1142 C1136 1.383 . S
C1142 C1141 1.379 . S
H1143 C1137 0.959 . S
H1144 C1137 0.961 . S
H1145 C1137 0.960 . S
H1146 C1138 0.930 . S
H1147 C1139 0.929 . S
H1148 C1156 0.929 . S
H1149 C1158 0.930 . S
H1150 C1160 0.930 . S
H1151 C1163 0.929 . S
H1152 C1166 0.930 . S
H1153 C1168 0.960 . S
H1154 C1168 0.960 . S
H1155 C1168 0.960 . S
C1156 H1148 0.929 . S
C1156 C1157 1.377 1_455 S
C1156 C1158 1.384 . S
C1157 C1156 1.377 1_655 S
C1157 C1163 1.390 . S
C1158 H1149 0.930 . S
C1158 C1156 1.384 . S
C1158 C1159 1.356 1_455 S
C1159 C1158 1.356 1_655 S
C1159 C1160 1.416 . S
C1159 C1164 1.490 1_655 S
C1160 H1150 0.930 . S
C1160 C1159 1.416 . S
C1160 C1163 1.386 . S
H1161 C1177 0.923 1_655 S
H1162 C1178 0.928 1_655 S
C1163 H1151 0.929 . S
C1163 C1157 1.390 . S
C1163 C1160 1.386 . S
C1164 C1159 1.490 1_455 S
C1164 C1166 1.395 . S
C1164 C1167 1.403 1_455 S
H1165 C1171 0.930 . S
C1166 H1152 0.930 . S
C1166 C1164 1.395 . S
C1166 C1169 1.403 . S
C1167 C1164 1.403 1_655 S
C1167 C1168 1.524 . S
C1167 C1171 1.400 . S
C1168 H1153 0.960 . S
C1168 H1154 0.960 . S
C1168 H1155 0.960 . S
C1168 C1167 1.524 . S
C1169 C1166 1.403 . S
C1169 C1170 1.392 . S
C1169 C1173 1.495 . S
C1170 C1169 1.392 . S
C1170 C1171 1.385 1_455 S
C1170 C1172 1.478 . S
C1171 H1165 0.930 . S
C1171 C1167 1.400 . S
C1171 C1170 1.385 1_655 S
C1172 C1170 1.478 . S
C1172 C1174 1.381 . S
C1172 C1178 1.386 . S
C1173 C1169 1.495 . S
C1173 H1179 0.959 . S
C1173 H1180 0.961 . S
C1173 H1181 0.960 . S
C1174 C1172 1.381 . S
C1174 C1175 1.394 . S
C1174 H1182 0.930 . S
C1175 C1174 1.394 . S
C1175 C1176 1.383 . S
C1175 H1183 0.929 . S
C1176 C1175 1.383 . S
C1176 C1177 1.382 . S
C1177 H1161 0.923 1_455 S
C1177 C1176 1.382 . S
C1177 C1178 1.380 . S
C1178 H1162 0.928 1_455 S
C1178 C1172 1.386 . S
C1178 C1177 1.380 . S
H1179 C1173 0.959 . S
H1180 C1173 0.961 . S
H1181 C1173 0.960 . S
H1182 C1174 0.930 . S
H1183 C1175 0.929 . S
H1184 C1192 0.929 . S
H1185 C1194 0.930 . S
H1186 C1196 0.930 . S
H1187 C1199 0.929 . S
H1188 C1202 0.930 . S
H1189 C1204 0.960 . S
H1190 C1204 0.960 . S
H1191 C1204 0.960 . S
C1192 H1184 0.929 . S
C1192 C1193 1.377 . S
C1192 C1194 1.384 . S
C1193 C1192 1.377 . S
C1193 C1199 1.390 . S
C1194 H1185 0.930 . S
C1194 C1192 1.384 . S
C1194 C1195 1.372 . S
C1195 C1194 1.372 . S
C1195 C1196 1.400 . S
C1195 C1200 1.490 . S
C1196 H1186 0.930 . S
C1196 C1195 1.400 . S
C1196 C1199 1.386 . S
H1197 C1213 0.930 . S
H1198 C1214 0.931 . S
C1199 H1187 0.929 . S
C1199 C1193 1.390 . S
C1199 C1196 1.386 . S
C1200 C1195 1.490 . S
C1200 C1202 1.395 . S
C1200 C1203 1.403 . S
H1201 C1207 0.930 . S
C1202 H1188 0.930 . S
C1202 C1200 1.395 . S
C1202 C1205 1.403 . S
C1203 C1200 1.403 . S
C1203 C1204 1.524 . S
C1203 C1207 1.400 . S
C1204 H1189 0.960 . S
C1204 H1190 0.960 . S
C1204 H1191 0.960 . S
C1204 C1203 1.524 . S
C1205 C1202 1.403 . S
C1205 C1206 1.392 . S
C1205 C1209 1.495 . S
C1206 C1205 1.392 . S
C1206 C1207 1.385 . S
C1206 C1208 1.478 . S
C1207 H1201 0.930 . S
C1207 C1203 1.400 . S
C1207 C1206 1.385 . S
C1208 C1206 1.478 . S
C1208 C1210 1.381 . S
C1208 C1214 1.383 . S
C1209 C1205 1.495 . S
C1209 H1215 0.959 . S
C1209 H1216 0.961 . S
C1209 H1217 0.960 . S
C1210 C1208 1.381 . S
C1210 C1211 1.394 . S
C1210 H1218 0.930 . S
C1211 C1210 1.394 . S
C1211 C1212 1.383 . S
C1211 H1219 0.929 1_565 S
C1212 C1211 1.383 . S
C1212 C1213 1.377 . S
C1213 H1197 0.930 . S
C1213 C1212 1.377 . S
C1213 C1214 1.379 . S
C1214 H1198 0.931 . S
C1214 C1208 1.383 . S
C1214 C1213 1.379 . S
H1215 C1209 0.959 . S
H1216 C1209 0.961 . S
H1217 C1209 0.960 . S
H1218 C1210 0.930 . S
H1219 C1211 0.929 1_545 S
H1220 C1228 0.929 . S
H1221 C1230 0.930 . S
H1222 C1232 0.930 . S
H1223 C1235 0.929 . S
H1224 C1238 0.930 . S
H1225 C1240 0.960 . S
H1226 C1240 0.960 . S
H1227 C1240 0.960 . S
C1228 H1220 0.929 . S
C1228 C1229 1.377 . S
C1228 C1230 1.384 . S
C1229 C1228 1.377 . S
C1229 C1235 1.390 . S
C1230 H1221 0.930 . S
C1230 C1228 1.384 . S
C1230 C1231 1.372 . S
C1231 C1230 1.372 . S
C1231 C1232 1.400 . S
C1231 C1236 1.490 . S
C1232 H1222 0.930 . S
C1232 C1231 1.400 . S
C1232 C1235 1.386 . S
H1233 C1249 0.930 . S
H1234 C1250 0.931 . S
C1235 H1223 0.929 . S
C1235 C1229 1.390 . S
C1235 C1232 1.386 . S
C1236 C1231 1.490 . S
C1236 C1238 1.395 . S
C1236 C1239 1.403 . S
H1237 C1243 0.930 . S
C1238 H1224 0.930 . S
C1238 C1236 1.395 . S
C1238 C1241 1.403 . S
C1239 C1236 1.403 . S
C1239 C1240 1.524 . S
C1239 C1243 1.400 . S
C1240 H1225 0.960 . S
C1240 H1226 0.960 . S
C1240 H1227 0.960 . S
C1240 C1239 1.524 . S
C1241 C1238 1.403 . S
C1241 C1242 1.392 . S
C1241 C1245 1.495 . S
C1242 C1241 1.392 . S
C1242 C1243 1.385 . S
C1242 C1244 1.478 . S
C1243 H1237 0.930 . S
C1243 C1239 1.400 . S
C1243 C1242 1.385 . S
C1244 C1242 1.478 . S
C1244 C1246 1.381 . S
C1244 C1250 1.383 . S
C1245 C1241 1.495 . S
C1245 H1251 0.959 . S
C1245 H1252 0.961 . S
C1245 H1253 0.960 . S
C1246 C1244 1.381 . S
C1246 C1247 1.394 . S
C1246 H1254 0.930 . S
C1247 C1246 1.394 . S
C1247 C1248 1.383 . S
C1247 H1255 0.929 . S
C1248 C1247 1.383 . S
C1248 C1249 1.377 . S
C1249 H1233 0.930 . S
C1249 C1248 1.377 . S
C1249 C1250 1.379 . S
C1250 H1234 0.931 . S
C1250 C1244 1.383 . S
C1250 C1249 1.379 . S
H1251 C1245 0.959 . S
H1252 C1245 0.961 . S
H1253 C1245 0.960 . S
H1254 C1246 0.930 . S
H1255 C1247 0.929 . S
H1256 C1264 0.929 . S
H1257 C1266 0.930 . S
H1258 C1268 0.930 . S
H1259 C1271 0.922 1_554 S
H1260 C1274 0.930 . S
H1261 C1276 0.960 . S
H1262 C1276 0.960 . S
H1263 C1276 0.960 1_554 S
C1264 H1256 0.929 . S
C1264 C1265 1.377 1_565 S
C1264 C1266 1.384 . S
C1265 C1264 1.377 1_545 S
C1265 C1271 1.405 . S
C1266 H1257 0.930 . S
C1266 C1264 1.384 . S
C1266 C1267 1.372 . S
C1267 C1266 1.372 . S
C1267 C1268 1.400 1_566 S
C1267 C1272 1.490 1_556 S
C1268 H1258 0.930 . S
C1268 C1267 1.400 1_544 S
C1268 C1271 1.378 1_554 S
H1269 C1285 0.930 . S
H1270 C1286 0.931 . S
C1271 H1259 0.922 1_556 S
C1271 C1265 1.405 . S
C1271 C1268 1.378 1_556 S
C1272 C1267 1.490 1_554 S
C1272 C1274 1.395 . S
C1272 C1275 1.403 . S
H1273 C1279 0.930 . S
C1274 H1260 0.930 . S
C1274 C1272 1.395 . S
C1274 C1277 1.403 . S
C1275 C1272 1.403 . S
C1275 C1276 1.524 1_564 S
C1275 C1279 1.400 . S
C1276 H1261 0.960 . S
C1276 H1262 0.960 . S
C1276 H1263 0.960 1_556 S
C1276 C1275 1.524 1_546 S
C1277 C1274 1.403 . S
C1277 C1278 1.392 . S
C1277 C1281 1.495 . S
C1278 C1277 1.392 . S
C1278 C1279 1.385 . S
C1278 C1280 1.478 . S
C1279 H1273 0.930 . S
C1279 C1275 1.400 . S
C1279 C1278 1.385 . S
C1280 C1278 1.478 . S
C1280 C1282 1.381 . S
C1280 C1286 1.383 . S
C1281 C1277 1.495 . S
C1281 H1287 0.959 . S
C1281 H1288 0.961 . S
C1281 H1289 0.960 . S
C1282 C1280 1.381 . S
C1282 C1283 1.394 . S
C1282 H1290 0.930 1_554 S
C1283 C1282 1.394 . S
C1283 C1284 1.383 . S
C1283 H1291 0.929 . S
C1284 C1283 1.383 . S
C1284 C1285 1.377 . S
C1285 H1269 0.930 . S
C1285 C1284 1.377 . S
C1285 C1286 1.379 . S
C1286 H1270 0.931 . S
C1286 C1280 1.383 . S
C1286 C1285 1.379 . S
H1287 C1281 0.959 . S
H1288 C1281 0.961 . S
H1289 C1281 0.960 . S
H1290 C1282 0.930 1_556 S
H1291 C1283 0.929 . S
H1292 C1300 0.929 . S
H1293 C1302 0.930 . S
H1294 C1304 0.930 . S
H1295 C1307 0.929 . S
H1296 C1310 0.930 . S
H1297 C1312 0.960 . S
H1298 C1312 0.960 . S
H1299 C1312 0.960 . S
C1300 H1292 0.929 . S
C1300 C1301 1.377 . S
C1300 C1302 1.384 . S
C1301 C1300 1.377 . S
C1301 C1307 1.390 . S
C1302 H1293 0.930 . S
C1302 C1300 1.384 . S
C1302 C1303 1.372 . S
C1303 C1302 1.372 . S
C1303 C1304 1.400 . S
C1303 C1308 1.490 . S
C1304 H1294 0.930 . S
C1304 C1303 1.400 . S
C1304 C1307 1.386 . S
H1305 C1321 0.930 . S
H1306 C1322 0.931 . S
C1307 H1295 0.929 . S
C1307 C1301 1.390 . S
C1307 C1304 1.386 . S
C1308 C1303 1.490 . S
C1308 C1310 1.395 . S
C1308 C1311 1.403 . S
H1309 C1315 0.930 . S
C1310 H1296 0.930 . S
C1310 C1308 1.395 . S
C1310 C1313 1.403 . S
C1311 C1308 1.403 . S
C1311 C1312 1.524 . S
C1311 C1315 1.400 . S
C1312 H1297 0.960 . S
C1312 H1298 0.960 . S
C1312 H1299 0.960 . S
C1312 C1311 1.524 . S
C1313 C1310 1.403 . S
C1313 C1314 1.392 . S
C1313 C1317 1.495 . S
C1314 C1313 1.392 . S
C1314 C1315 1.385 . S
C1314 C1316 1.478 . S
C1315 H1309 0.930 . S
C1315 C1311 1.400 . S
C1315 C1314 1.385 . S
C1316 C1314 1.478 . S
C1316 C1318 1.381 . S
C1316 C1322 1.383 . S
C1317 C1313 1.495 . S
C1317 H1323 0.959 . S
C1317 H1324 0.961 . S
C1317 H1325 0.960 . S
C1318 C1316 1.381 . S
C1318 C1319 1.394 . S
C1318 H1326 0.930 . S
C1319 C1318 1.394 . S
C1319 C1320 1.383 . S
C1319 H1327 0.929 . S
C1320 C1319 1.383 . S
C1320 C1321 1.377 . S
C1321 H1305 0.930 . S
C1321 C1320 1.377 . S
C1321 C1322 1.379 . S
C1322 H1306 0.931 . S
C1322 C1316 1.383 . S
C1322 C1321 1.379 . S
H1323 C1317 0.959 . S
H1324 C1317 0.961 . S
H1325 C1317 0.960 . S
H1326 C1318 0.930 . S
H1327 C1319 0.929 . S
H1328 C1336 0.978 . S
H1329 C1338 0.930 . S
H1330 C1340 0.930 . S
H1331 C1343 0.929 . S
H1332 C1346 0.930 . S
H1333 C1348 0.960 . S
H1334 C1348 0.960 . S
H1335 C1348 0.960 . S
C1336 H1328 0.978 . S
C1336 C1337 1.360 1_565 S
C1336 C1338 1.355 1_565 S
C1337 C1336 1.360 1_545 S
C1337 C1343 1.390 . S
C1338 H1329 0.930 . S
C1338 C1336 1.355 1_545 S
C1338 C1339 1.372 . S
C1339 C1338 1.372 . S
C1339 C1340 1.400 . S
C1339 C1344 1.490 . S
C1340 H1330 0.930 . S
C1340 C1339 1.400 . S
C1340 C1343 1.386 . S
H1341 C1357 0.930 . S
H1342 C1358 0.931 . S
C1343 H1331 0.929 . S
C1343 C1337 1.390 . S
C1343 C1340 1.386 . S
C1344 C1339 1.490 . S
C1344 C1346 1.395 . S
C1344 C1347 1.403 . S
H1345 C1351 0.930 . S
C1346 H1332 0.930 . S
C1346 C1344 1.395 . S
C1346 C1349 1.403 . S
C1347 C1344 1.403 . S
C1347 C1348 1.524 . S
C1347 C1351 1.400 . S
C1348 H1333 0.960 . S
C1348 H1334 0.960 . S
C1348 H1335 0.960 . S
C1348 C1347 1.524 . S
C1349 C1346 1.403 . S
C1349 C1350 1.392 . S
C1349 C1353 1.495 . S
C1350 C1349 1.392 . S
C1350 C1351 1.385 . S
C1350 C1352 1.478 . S
C1351 H1345 0.930 . S
C1351 C1347 1.400 . S
C1351 C1350 1.385 . S
C1352 C1350 1.478 . S
C1352 C1354 1.381 . S
C1352 C1358 1.383 . S
C1353 C1349 1.495 . S
C1353 H1359 0.959 . S
C1353 H1360 0.961 . S
C1353 H1361 0.960 . S
C1354 C1352 1.381 . S
C1354 C1355 1.394 . S
C1354 H1362 0.930 . S
C1355 C1354 1.394 . S
C1355 C1356 1.383 . S
C1355 H1363 0.929 . S
C1356 C1355 1.383 . S
C1356 C1357 1.377 . S
C1357 H1341 0.930 . S
C1357 C1356 1.377 . S
C1357 C1358 1.379 . S
C1358 H1342 0.931 . S
C1358 C1352 1.383 . S
C1358 C1357 1.379 . S
H1359 C1353 0.959 . S
H1360 C1353 0.961 . S
H1361 C1353 0.960 . S
H1362 C1354 0.930 . S
H1363 C1355 0.929 . S
H1364 C1372 0.929 . S
H1365 C1374 0.930 . S
H1366 C1376 0.930 . S
H1367 C1379 0.929 . S
H1368 C1382 0.930 . S
H1369 C1384 0.960 . S
H1370 C1384 0.960 . S
H1371 C1384 0.960 . S
C1372 H1364 0.929 . S
C1372 C1373 1.377 . S
C1372 C1374 1.384 . S
C1373 C1372 1.377 . S
C1373 C1379 1.390 . S
C1374 H1365 0.930 . S
C1374 C1372 1.384 . S
C1374 C1375 1.372 . S
C1375 C1374 1.372 . S
C1375 C1376 1.400 . S
C1375 C1380 1.490 . S
C1376 H1366 0.930 . S
C1376 C1375 1.400 . S
C1376 C1379 1.386 . S
H1377 C1393 0.930 . S
H1378 C1394 0.931 . S
C1379 H1367 0.929 . S
C1379 C1373 1.390 . S
C1379 C1376 1.386 . S
C1380 C1375 1.490 . S
C1380 C1382 1.395 . S
C1380 C1383 1.403 . S
H1381 C1387 0.930 . S
C1382 H1368 0.930 . S
C1382 C1380 1.395 . S
C1382 C1385 1.403 . S
C1383 C1380 1.403 . S
C1383 C1384 1.524 . S
C1383 C1387 1.400 . S
C1384 H1369 0.960 . S
C1384 H1370 0.960 . S
C1384 H1371 0.960 . S
C1384 C1383 1.524 . S
C1385 C1382 1.403 . S
C1385 C1386 1.392 . S
C1385 C1389 1.495 . S
C1386 C1385 1.392 . S
C1386 C1387 1.385 . S
C1386 C1388 1.478 . S
C1387 H1381 0.930 . S
C1387 C1383 1.400 . S
C1387 C1386 1.385 . S
C1388 C1386 1.478 . S
C1388 C1390 1.381 . S
C1388 C1394 1.383 . S
C1389 C1385 1.495 . S
C1389 H1395 0.959 . S
C1389 H1396 0.961 . S
C1389 H1397 0.960 . S
C1390 C1388 1.381 . S
C1390 C1391 1.394 . S
C1390 H1398 0.930 . S
C1391 C1390 1.394 . S
C1391 C1392 1.383 . S
C1391 H1399 0.929 . S
C1392 C1391 1.383 . S
C1392 C1393 1.377 . S
C1393 H1377 0.930 . S
C1393 C1392 1.377 . S
C1393 C1394 1.379 . S
C1394 H1378 0.931 . S
C1394 C1388 1.383 . S
C1394 C1393 1.379 . S
H1395 C1389 0.959 . S
H1396 C1389 0.961 . S
H1397 C1389 0.960 . S
H1398 C1390 0.930 . S
H1399 C1391 0.929 . S
H1400 C1408 0.929 . S
H1401 C1410 0.930 . S
H1402 C1412 0.930 . S
H1403 C1415 0.929 . S
H1404 C1418 0.930 . S
H1405 C1420 0.960 . S
H1406 C1420 0.960 . S
H1407 C1420 0.960 . S
C1408 H1400 0.929 . S
C1408 C1409 1.377 . S
C1408 C1410 1.384 . S
C1409 C1408 1.377 . S
C1409 C1415 1.390 . S
C1410 H1401 0.930 . S
C1410 C1408 1.384 . S
C1410 C1411 1.372 . S
C1411 C1410 1.372 . S
C1411 C1412 1.400 . S
C1411 C1416 1.490 . S
C1412 H1402 0.930 . S
C1412 C1411 1.400 . S
C1412 C1415 1.386 . S
H1413 C1429 0.930 . S
H1414 C1430 0.931 . S
C1415 H1403 0.929 . S
C1415 C1409 1.390 . S
C1415 C1412 1.386 . S
C1416 C1411 1.490 . S
C1416 C1418 1.395 . S
C1416 C1419 1.403 . S
H1417 C1423 0.930 . S
C1418 H1404 0.930 . S
C1418 C1416 1.395 . S
C1418 C1421 1.403 . S
C1419 C1416 1.403 . S
C1419 C1420 1.524 . S
C1419 C1423 1.400 . S
C1420 H1405 0.960 . S
C1420 H1406 0.960 . S
C1420 H1407 0.960 . S
C1420 C1419 1.524 . S
C1421 C1418 1.403 . S
C1421 C1422 1.392 . S
C1421 C1425 1.495 . S
C1422 C1421 1.392 . S
C1422 C1423 1.385 . S
C1422 C1424 1.478 . S
C1423 H1417 0.930 . S
C1423 C1419 1.400 . S
C1423 C1422 1.385 . S
C1424 C1422 1.478 . S
C1424 C1426 1.381 . S
C1424 C1430 1.383 . S
C1425 C1421 1.495 . S
C1425 H1431 0.959 . S
C1425 H1432 0.961 . S
C1425 H1433 0.960 . S
C1426 C1424 1.381 . S
C1426 C1427 1.394 . S
C1426 H1434 0.930 . S
C1427 C1426 1.394 . S
C1427 C1428 1.383 . S
C1427 H1435 0.929 . S
C1428 C1427 1.383 . S
C1428 C1429 1.377 . S
C1429 H1413 0.930 . S
C1429 C1428 1.377 . S
C1429 C1430 1.379 . S
C1430 H1414 0.931 . S
C1430 C1424 1.383 . S
C1430 C1429 1.379 . S
H1431 C1425 0.959 . S
H1432 C1425 0.961 . S
H1433 C1425 0.960 . S
H1434 C1426 0.930 . S
H1435 C1427 0.929 . S
H1436 C1444 0.929 . S
H1437 C1446 0.930 . S
H1438 C1448 0.930 . S
H1439 C1451 0.929 . S
H1440 C1454 0.930 . S
H1441 C1456 0.960 . S
H1442 C1456 0.960 . S
H1443 C1456 0.960 . S
C1444 H1436 0.929 . S
C1444 C1445 1.377 . S
C1444 C1446 1.384 . S
C1445 C1444 1.377 . S
C1445 C1451 1.390 . S
C1446 H1437 0.930 . S
C1446 C1444 1.384 . S
C1446 C1447 1.372 . S
C1447 C1446 1.372 . S
C1447 C1448 1.400 . S
C1447 C1452 1.490 . S
C1448 H1438 0.930 . S
C1448 C1447 1.400 . S
C1448 C1451 1.386 . S
H1449 C1465 0.930 . S
H1450 C1466 0.931 . S
C1451 H1439 0.929 . S
C1451 C1445 1.390 . S
C1451 C1448 1.386 . S
C1452 C1447 1.490 . S
C1452 C1454 1.395 . S
C1452 C1455 1.403 . S
H1453 C1459 0.930 . S
C1454 H1440 0.930 . S
C1454 C1452 1.395 . S
C1454 C1457 1.403 . S
C1455 C1452 1.403 . S
C1455 C1456 1.524 . S
C1455 C1459 1.400 . S
C1456 H1441 0.960 . S
C1456 H1442 0.960 . S
C1456 H1443 0.960 . S
C1456 C1455 1.524 . S
C1457 C1454 1.403 . S
C1457 C1458 1.392 . S
C1457 C1461 1.495 . S
C1458 C1457 1.392 . S
C1458 C1459 1.385 . S
C1458 C1460 1.478 . S
C1459 H1453 0.930 . S
C1459 C1455 1.400 . S
C1459 C1458 1.385 . S
C1460 C1458 1.478 . S
C1460 C1462 1.381 . S
C1460 C1466 1.383 . S
C1461 C1457 1.495 . S
C1461 H1467 0.959 . S
C1461 H1468 0.961 . S
C1461 H1469 0.960 . S
C1462 C1460 1.381 . S
C1462 C1463 1.394 . S
C1462 H1470 0.930 . S
C1463 C1462 1.394 . S
C1463 C1464 1.383 . S
C1463 H1471 0.929 . S
C1464 C1463 1.383 . S
C1464 C1465 1.377 . S
C1465 H1449 0.930 . S
C1465 C1464 1.377 . S
C1465 C1466 1.379 . S
C1466 H1450 0.931 . S
C1466 C1460 1.383 . S
C1466 C1465 1.379 . S
H1467 C1461 0.959 . S
H1468 C1461 0.961 . S
H1469 C1461 0.960 . S
H1470 C1462 0.930 . S
H1471 C1463 0.929 . S
H1472 C1480 0.929 . S
H1473 C1482 0.930 . S
H1474 C1484 0.930 . S
H1475 C1487 0.929 . S
H1476 C1490 0.930 . S
H1477 C1492 0.960 . S
H1478 C1492 0.960 . S
H1479 C1492 0.960 . S
C1480 H1472 0.929 . S
C1480 C1481 1.377 . S
C1480 C1482 1.384 . S
C1481 C1480 1.377 . S
C1481 C1487 1.390 . S
C1482 H1473 0.930 . S
C1482 C1480 1.384 . S
C1482 C1483 1.372 . S
C1483 C1482 1.372 . S
C1483 C1484 1.400 . S
C1483 C1488 1.490 . S
C1484 H1474 0.930 . S
C1484 C1483 1.400 . S
C1484 C1487 1.386 . S
H1485 C1501 0.930 . S
H1486 C1502 0.931 . S
C1487 H1475 0.929 . S
C1487 C1481 1.390 . S
C1487 C1484 1.386 . S
C1488 C1483 1.490 . S
C1488 C1490 1.395 . S
C1488 C1491 1.403 . S
H1489 C1495 0.930 . S
C1490 H1476 0.930 . S
C1490 C1488 1.395 . S
C1490 C1493 1.403 . S
C1491 C1488 1.403 . S
C1491 C1492 1.524 . S
C1491 C1495 1.400 . S
C1492 H1477 0.960 . S
C1492 H1478 0.960 . S
C1492 H1479 0.960 . S
C1492 C1491 1.524 . S
C1493 C1490 1.403 . S
C1493 C1494 1.392 . S
C1493 C1497 1.495 . S
C1494 C1493 1.392 . S
C1494 C1495 1.385 . S
C1494 C1496 1.478 . S
C1495 H1489 0.930 . S
C1495 C1491 1.400 . S
C1495 C1494 1.385 . S
C1496 C1494 1.478 . S
C1496 C1498 1.381 . S
C1496 C1502 1.383 . S
C1497 C1493 1.495 . S
C1497 H1503 0.959 . S
C1497 H1504 0.961 . S
C1497 H1505 0.960 . S
C1498 C1496 1.381 . S
C1498 C1499 1.394 . S
C1498 H1506 0.930 . S
C1499 C1498 1.394 . S
C1499 C1500 1.383 . S
C1499 H1507 0.929 . S
C1500 C1499 1.383 . S
C1500 C1501 1.377 . S
C1501 H1485 0.930 . S
C1501 C1500 1.377 . S
C1501 C1502 1.379 . S
C1502 H1486 0.931 . S
C1502 C1496 1.383 . S
C1502 C1501 1.379 . S
H1503 C1497 0.959 . S
H1504 C1497 0.961 . S
H1505 C1497 0.960 . S
H1506 C1498 0.930 . S
H1507 C1499 0.929 . S
H1508 C1516 0.929 . S
H1509 C1518 0.930 . S
H1510 C1520 0.930 . S
H1511 C1523 0.929 . S
H1512 C1526 0.930 . S
H1513 C1528 0.960 . S
H1514 C1528 0.960 . S
H1515 C1528 0.960 . S
C1516 H1508 0.929 . S
C1516 C1517 1.377 . S
C1516 C1518 1.384 . S
C1517 C1516 1.377 . S
C1517 C1523 1.390 . S
C1518 H1509 0.930 . S
C1518 C1516 1.384 . S
C1518 C1519 1.372 . S
C1519 C1518 1.372 . S
C1519 C1520 1.400 . S
C1519 C1524 1.490 . S
C1520 H1510 0.930 . S
C1520 C1519 1.400 . S
C1520 C1523 1.386 . S
H1521 C1537 0.930 1_565 S
H1522 C1538 0.931 1_565 S
C1523 H1511 0.929 . S
C1523 C1517 1.390 . S
C1523 C1520 1.386 . S
C1524 C1519 1.490 . S
C1524 C1526 1.395 . S
C1524 C1527 1.403 . S
H1525 C1531 0.930 . S
C1526 H1512 0.930 . S
C1526 C1524 1.395 . S
C1526 C1529 1.403 . S
C1527 C1524 1.403 . S
C1527 C1528 1.524 . S
C1527 C1531 1.400 . S
C1528 H1513 0.960 . S
C1528 H1514 0.960 . S
C1528 H1515 0.960 . S
C1528 C1527 1.524 . S
C1529 C1526 1.403 . S
C1529 C1530 1.392 . S
C1529 C1533 1.495 1_545 S
C1530 C1529 1.392 . S
C1530 C1531 1.385 . S
C1530 C1532 1.478 . S
C1531 H1525 0.930 . S
C1531 C1527 1.400 . S
C1531 C1530 1.385 . S
C1532 C1530 1.478 . S
C1532 C1534 1.381 . S
C1532 C1538 1.383 . S
C1533 C1529 1.495 1_565 S
C1533 H1539 0.959 . S
C1533 H1540 0.961 . S
C1533 H1541 0.960 . S
C1534 C1532 1.381 . S
C1534 C1535 1.394 . S
C1534 H1542 0.930 . S
C1535 C1534 1.394 . S
C1535 C1536 1.383 . S
C1535 H1543 0.929 . S
C1536 C1535 1.383 . S
C1536 C1537 1.377 . S
C1537 H1521 0.930 1_545 S
C1537 C1536 1.377 . S
C1537 C1538 1.379 . S
C1538 H1522 0.931 1_545 S
C1538 C1532 1.383 . S
C1538 C1537 1.379 . S
H1539 C1533 0.959 . S
H1540 C1533 0.961 . S
H1541 C1533 0.960 . S
H1542 C1534 0.930 . S
H1543 C1535 0.929 . S
H1544 C1552 0.929 . S
H1545 C1554 0.930 . S
H1546 C1556 0.930 . S
H1547 C1559 0.929 . S
H1548 C1562 0.930 . S
H1549 C1564 0.960 . S
H1550 C1564 0.960 . S
H1551 C1564 0.960 . S
C1552 H1544 0.929 . S
C1552 C1553 1.377 . S
C1552 C1554 1.384 . S
C1553 C1552 1.377 . S
C1553 C1559 1.390 . S
C1554 H1545 0.930 . S
C1554 C1552 1.384 . S
C1554 C1555 1.372 . S
C1555 C1554 1.372 . S
C1555 C1556 1.400 . S
C1555 C1560 1.490 . S
C1556 H1546 0.930 . S
C1556 C1555 1.400 . S
C1556 C1559 1.386 . S
H1557 C1573 0.930 . S
H1558 C1574 0.931 . S
C1559 H1547 0.929 . S
C1559 C1553 1.390 . S
C1559 C1556 1.386 . S
C1560 C1555 1.490 . S
C1560 C1562 1.395 . S
C1560 C1563 1.403 . S
H1561 C1567 0.930 . S
C1562 H1548 0.930 . S
C1562 C1560 1.395 . S
C1562 C1565 1.403 . S
C1563 C1560 1.403 . S
C1563 C1564 1.524 . S
C1563 C1567 1.400 . S
C1564 H1549 0.960 . S
C1564 H1550 0.960 . S
C1564 H1551 0.960 . S
C1564 C1563 1.524 . S
C1565 C1562 1.403 . S
C1565 C1566 1.392 . S
C1565 C1569 1.495 . S
C1566 C1565 1.392 . S
C1566 C1567 1.385 . S
C1566 C1568 1.478 . S
C1567 H1561 0.930 . S
C1567 C1563 1.400 . S
C1567 C1566 1.385 . S
C1568 C1566 1.478 . S
C1568 C1570 1.381 . S
C1568 C1574 1.383 . S
C1569 C1565 1.495 . S
C1569 H1575 0.959 . S
C1569 H1576 0.961 . S
C1569 H1577 0.960 . S
C1570 C1568 1.381 . S
C1570 C1571 1.394 . S
C1570 H1578 0.930 . S
C1571 C1570 1.394 . S
C1571 C1572 1.383 . S
C1571 H1579 0.929 . S
C1572 C1571 1.383 . S
C1572 C1573 1.377 . S
C1573 H1557 0.930 . S
C1573 C1572 1.377 . S
C1573 C1574 1.379 . S
C1574 H1558 0.931 . S
C1574 C1568 1.383 . S
C1574 C1573 1.379 . S
H1575 C1569 0.959 . S
H1576 C1569 0.961 . S
H1577 C1569 0.960 . S
H1578 C1570 0.930 . S
H1579 C1571 0.929 . S
H1580 C1588 0.929 . S
H1581 C1590 0.930 . S
H1582 C1592 0.930 . S
H1583 C1595 0.929 . S
H1584 C1598 0.930 . S
H1585 C1600 0.960 . S
H1586 C1600 0.960 . S
H1587 C1600 0.960 . S
C1588 H1580 0.929 . S
C1588 C1589 1.377 . S
C1588 C1590 1.384 . S
C1589 C1588 1.377 . S
C1589 C1595 1.390 . S
C1590 H1581 0.930 . S
C1590 C1588 1.384 . S
C1590 C1591 1.372 . S
C1591 C1590 1.372 . S
C1591 C1592 1.400 . S
C1591 C1596 1.490 . S
C1592 H1582 0.930 . S
C1592 C1591 1.400 . S
C1592 C1595 1.386 . S
H1593 C1609 0.930 . S
H1594 C1610 0.931 . S
C1595 H1583 0.929 . S
C1595 C1589 1.390 . S
C1595 C1592 1.386 . S
C1596 C1591 1.490 . S
C1596 C1598 1.395 . S
C1596 C1599 1.403 . S
H1597 C1603 0.930 . S
C1598 H1584 0.930 . S
C1598 C1596 1.395 . S
C1598 C1601 1.403 . S
C1599 C1596 1.403 . S
C1599 C1600 1.524 . S
C1599 C1603 1.400 . S
C1600 H1585 0.960 . S
C1600 H1586 0.960 . S
C1600 H1587 0.960 . S
C1600 C1599 1.524 . S
C1601 C1598 1.403 . S
C1601 C1602 1.392 . S
C1601 C1605 1.495 . S
C1602 C1601 1.392 . S
C1602 C1603 1.385 . S
C1602 C1604 1.478 . S
C1603 H1597 0.930 . S
C1603 C1599 1.400 . S
C1603 C1602 1.385 . S
C1604 C1602 1.478 . S
C1604 C1606 1.381 . S
C1604 C1610 1.383 . S
C1605 C1601 1.495 . S
C1605 H1611 0.959 . S
C1605 H1612 0.961 . S
C1605 H1613 0.960 . S
C1606 C1604 1.381 . S
C1606 C1607 1.394 . S
C1606 H1614 0.930 . S
C1607 C1606 1.394 . S
C1607 C1608 1.383 . S
C1607 H1615 0.929 . S
C1608 C1607 1.383 . S
C1608 C1609 1.377 . S
C1609 H1593 0.930 . S
C1609 C1608 1.377 . S
C1609 C1610 1.379 . S
C1610 H1594 0.931 . S
C1610 C1604 1.383 . S
C1610 C1609 1.379 . S
H1611 C1605 0.959 . S
H1612 C1605 0.961 . S
H1613 C1605 0.960 . S
H1614 C1606 0.930 . S
H1615 C1607 0.929 . S
H1616 C1624 0.929 . S
H1617 C1626 0.930 . S
H1618 C1628 0.930 . S
H1619 C1631 0.929 . S
H1620 C1634 0.930 . S
H1621 C1636 0.960 . S
H1622 C1636 0.960 . S
H1623 C1636 0.960 . S
C1624 H1616 0.929 . S
C1624 C1625 1.377 . S
C1624 C1626 1.384 . S
C1625 C1624 1.377 . S
C1625 C1631 1.390 . S
C1626 H1617 0.930 . S
C1626 C1624 1.384 . S
C1626 C1627 1.372 . S
C1627 C1626 1.372 . S
C1627 C1628 1.400 . S
C1627 C1632 1.490 . S
C1628 H1618 0.930 . S
C1628 C1627 1.400 . S
C1628 C1631 1.386 . S
H1629 C1645 0.930 . S
H1630 C1646 0.931 . S
C1631 H1619 0.929 . S
C1631 C1625 1.390 . S
C1631 C1628 1.386 . S
C1632 C1627 1.490 . S
C1632 C1634 1.395 . S
C1632 C1635 1.403 . S
H1633 C1639 0.930 . S
C1634 H1620 0.930 . S
C1634 C1632 1.395 . S
C1634 C1637 1.403 . S
C1635 C1632 1.403 . S
C1635 C1636 1.524 . S
C1635 C1639 1.400 . S
C1636 H1621 0.960 . S
C1636 H1622 0.960 . S
C1636 H1623 0.960 . S
C1636 C1635 1.524 . S
C1637 C1634 1.403 . S
C1637 C1638 1.392 . S
C1637 C1641 1.495 . S
C1638 C1637 1.392 . S
C1638 C1639 1.385 . S
C1638 C1640 1.478 . S
C1639 H1633 0.930 . S
C1639 C1635 1.400 . S
C1639 C1638 1.385 . S
C1640 C1638 1.478 . S
C1640 C1642 1.381 . S
C1640 C1646 1.383 . S
C1641 C1637 1.495 . S
C1641 H1647 0.959 . S
C1641 H1648 0.961 . S
C1641 H1649 0.960 . S
C1642 C1640 1.381 . S
C1642 C1643 1.394 . S
C1642 H1650 0.930 . S
C1643 C1642 1.394 . S
C1643 C1644 1.383 . S
C1643 H1651 0.929 . S
C1644 C1643 1.383 . S
C1644 C1645 1.377 . S
C1645 H1629 0.930 . S
C1645 C1644 1.377 . S
C1645 C1646 1.379 . S
C1646 H1630 0.931 . S
C1646 C1640 1.383 . S
C1646 C1645 1.379 . S
H1647 C1641 0.959 . S
H1648 C1641 0.961 . S
H1649 C1641 0.960 . S
H1650 C1642 0.930 . S
H1651 C1643 0.929 . S
H1652 C1660 0.929 . S
H1653 C1662 0.930 . S
H1654 C1664 0.930 1_655 S
H1655 C1667 0.929 . S
H1656 C1670 0.930 . S
H1657 C1672 0.960 . S
H1658 C1672 0.938 1_565 S
H1659 C1672 0.960 . S
C1660 H1652 0.929 . S
C1660 C1661 1.377 . S
C1660 C1662 1.384 . S
C1661 C1660 1.377 . S
C1661 C1667 1.390 . S
C1662 H1653 0.930 . S
C1662 C1660 1.384 . S
C1662 C1663 1.372 . S
C1663 C1662 1.372 . S
C1663 C1664 1.400 . S
C1663 C1668 1.490 . S
C1664 H1654 0.930 1_455 S
C1664 C1663 1.400 . S
C1664 C1667 1.386 . S
H1665 C1681 0.930 . S
H1666 C1682 0.931 . S
C1667 H1655 0.929 . S
C1667 C1661 1.390 . S
C1667 C1664 1.386 . S
C1668 C1663 1.490 . S
C1668 C1670 1.395 . S
C1668 C1671 1.403 1_455 S
H1669 C1675 0.930 . S
C1670 H1656 0.930 . S
C1670 C1668 1.395 . S
C1670 C1673 1.403 . S
C1671 C1668 1.403 1_655 S
C1671 C1672 1.524 . S
C1671 C1675 1.400 . S
C1672 H1657 0.960 . S
C1672 H1658 0.938 1_545 S
C1672 H1659 0.960 . S
C1672 C1671 1.524 . S
C1673 C1670 1.403 . S
C1673 C1674 1.392 1_455 S
C1673 C1677 1.495 . S
C1674 C1673 1.392 1_655 S
C1674 C1675 1.385 . S
C1674 C1676 1.478 . S
C1675 H1669 0.930 . S
C1675 C1671 1.400 . S
C1675 C1674 1.385 . S
C1676 C1674 1.478 . S
C1676 C1678 1.381 . S
C1676 C1682 1.383 . S
C1677 C1673 1.495 . S
C1677 H1683 0.959 . S
C1677 H1684 0.961 . S
C1677 H1685 0.960 . S
C1678 C1676 1.381 . S
C1678 C1679 1.394 . S
C1678 H1686 0.930 . S
C1679 C1678 1.394 . S
C1679 C1680 1.383 . S
C1679 H1687 0.929 . S
C1680 C1679 1.383 . S
C1680 C1681 1.377 . S
C1681 H1665 0.930 . S
C1681 C1680 1.377 . S
C1681 C1682 1.379 . S
C1682 H1666 0.931 . S
C1682 C1676 1.383 . S
C1682 C1681 1.379 . S
H1683 C1677 0.959 . S
H1684 C1677 0.961 . S
H1685 C1677 0.960 . S
H1686 C1678 0.930 . S
H1687 C1679 0.929 . S
H1688 C1696 0.929 . S
H1689 C1698 0.930 . S
H1690 C1700 0.930 . S
H1691 C1703 0.929 . S
H1692 C1706 0.930 . S
H1693 C1708 0.960 . S
H1694 C1708 0.960 . S
H1695 C1708 0.960 . S
C1696 H1688 0.929 . S
C1696 C1697 1.377 . S
C1696 C1698 1.384 . S
C1697 C1696 1.377 . S
C1697 C1703 1.390 . S
C1698 H1689 0.930 . S
C1698 C1696 1.384 . S
C1698 C1699 1.372 . S
C1699 C1698 1.372 . S
C1699 C1700 1.400 . S
C1699 C1704 1.490 . S
C1700 H1690 0.930 . S
C1700 C1699 1.400 . S
C1700 C1703 1.386 . S
H1701 C1717 0.930 . S
H1702 C1718 0.931 . S
C1703 H1691 0.929 . S
C1703 C1697 1.390 . S
C1703 C1700 1.386 . S
C1704 C1699 1.490 . S
C1704 C1706 1.395 . S
C1704 C1707 1.403 . S
H1705 C1711 0.930 . S
C1706 H1692 0.930 . S
C1706 C1704 1.395 . S
C1706 C1709 1.403 . S
C1707 C1704 1.403 . S
C1707 C1708 1.524 . S
C1707 C1711 1.400 . S
C1708 H1693 0.960 . S
C1708 H1694 0.960 . S
C1708 H1695 0.960 . S
C1708 C1707 1.524 . S
C1709 C1706 1.403 . S
C1709 C1710 1.392 . S
C1709 C1713 1.495 . S
C1710 C1709 1.392 . S
C1710 C1711 1.385 . S
C1710 C1712 1.478 . S
C1711 H1705 0.930 . S
C1711 C1707 1.400 . S
C1711 C1710 1.385 . S
C1712 C1710 1.478 . S
C1712 C1714 1.381 . S
C1712 C1718 1.383 . S
C1713 C1709 1.495 . S
C1713 H1719 0.959 . S
C1713 H1720 0.961 . S
C1713 H1721 0.960 . S
C1714 C1712 1.381 . S
C1714 C1715 1.394 . S
C1714 H1722 0.930 . S
C1715 C1714 1.394 . S
C1715 C1716 1.383 . S
C1715 H1723 0.929 . S
C1716 C1715 1.383 . S
C1716 C1717 1.377 . S
C1717 H1701 0.930 . S
C1717 C1716 1.377 . S
C1717 C1718 1.379 . S
C1718 H1702 0.931 . S
C1718 C1712 1.383 . S
C1718 C1717 1.379 . S
H1719 C1713 0.959 . S
H1720 C1713 0.961 . S
H1721 C1713 0.960 . S
H1722 C1714 0.930 . S
H1723 C1715 0.929 . S
H1724 C1732 0.929 1_655 S
H1725 C1734 0.930 . S
H1726 C1736 0.930 . S
H1727 C1739 0.929 . S
H1728 C1742 0.930 . S
H1729 C1744 0.960 . S
H1730 C1744 0.960 . S
H1731 C1744 0.960 . S
C1732 H1724 0.929 1_455 S
C1732 C1733 1.377 . S
C1732 C1734 1.384 . S
C1733 C1732 1.377 . S
C1733 C1739 1.390 . S
C1734 H1725 0.930 . S
C1734 C1732 1.384 . S
C1734 C1735 1.372 . S
C1735 C1734 1.372 . S
C1735 C1736 1.400 . S
C1735 C1740 1.490 . S
C1736 H1726 0.930 . S
C1736 C1735 1.400 . S
C1736 C1739 1.386 . S
H1737 C1753 0.930 . S
H1738 C1754 0.931 . S
C1739 H1727 0.929 . S
C1739 C1733 1.390 . S
C1739 C1736 1.386 . S
C1740 C1735 1.490 . S
C1740 C1742 1.395 . S
C1740 C1743 1.403 . S
H1741 C1747 0.930 . S
C1742 H1728 0.930 . S
C1742 C1740 1.395 . S
C1742 C1745 1.403 . S
C1743 C1740 1.403 . S
C1743 C1744 1.524 . S
C1743 C1747 1.400 . S
C1744 H1729 0.960 . S
C1744 H1730 0.960 . S
C1744 H1731 0.960 . S
C1744 C1743 1.524 . S
C1745 C1742 1.403 . S
C1745 C1746 1.392 . S
C1745 C1749 1.495 . S
C1746 C1745 1.392 . S
C1746 C1747 1.385 . S
C1746 C1748 1.478 . S
C1747 H1741 0.930 . S
C1747 C1743 1.400 . S
C1747 C1746 1.385 . S
C1748 C1746 1.478 . S
C1748 C1750 1.381 . S
C1748 C1754 1.383 . S
C1749 C1745 1.495 . S
C1749 H1755 0.959 . S
C1749 H1756 0.961 . S
C1749 H1757 0.960 . S
C1750 C1748 1.381 . S
C1750 C1751 1.394 . S
C1750 H1758 0.930 . S
C1751 C1750 1.394 . S
C1751 C1752 1.383 . S
C1751 H1759 0.929 . S
C1752 C1751 1.383 . S
C1752 C1753 1.377 . S
C1753 H1737 0.930 . S
C1753 C1752 1.377 . S
C1753 C1754 1.379 . S
C1754 H1738 0.931 . S
C1754 C1748 1.383 . S
C1754 C1753 1.379 . S
H1755 C1749 0.959 . S
H1756 C1749 0.961 . S
H1757 C1749 0.960 . S
H1758 C1750 0.930 . S
H1759 C1751 0.929 . S
H1760 C1768 0.929 . S
H1761 C1770 0.930 . S
H1762 C1772 0.930 . S
H1763 C1775 0.929 . S
H1764 C1778 0.930 . S
H1765 C1780 0.960 . S
H1766 C1780 0.960 . S
H1767 C1780 0.960 . S
C1768 H1760 0.929 . S
C1768 C1769 1.377 . S
C1768 C1770 1.384 . S
C1769 C1768 1.377 . S
C1769 C1775 1.390 . S
C1770 H1761 0.930 . S
C1770 C1768 1.384 . S
C1770 C1771 1.372 . S
C1771 C1770 1.372 . S
C1771 C1772 1.400 . S
C1771 C1776 1.490 . S
C1772 H1762 0.930 . S
C1772 C1771 1.400 . S
C1772 C1775 1.386 . S
H1773 C1789 0.930 . S
H1774 C1790 0.931 . S
C1775 H1763 0.929 . S
C1775 C1769 1.390 . S
C1775 C1772 1.386 . S
C1776 C1771 1.490 . S
C1776 C1778 1.395 . S
C1776 C1779 1.403 . S
H1777 C1783 0.930 . S
C1778 H1764 0.930 . S
C1778 C1776 1.395 . S
C1778 C1781 1.403 . S
C1779 C1776 1.403 . S
C1779 C1780 1.524 . S
C1779 C1783 1.400 . S
C1780 H1765 0.960 . S
C1780 H1766 0.960 . S
C1780 H1767 0.960 . S
C1780 C1779 1.524 . S
C1781 C1778 1.403 . S
C1781 C1782 1.392 . S
C1781 C1785 1.495 . S
C1782 C1781 1.392 . S
C1782 C1783 1.385 . S
C1782 C1784 1.478 . S
C1783 H1777 0.930 . S
C1783 C1779 1.400 . S
C1783 C1782 1.385 . S
C1784 C1782 1.478 . S
C1784 C1786 1.381 . S
C1784 C1790 1.383 . S
C1785 C1781 1.495 . S
C1785 H1791 0.959 . S
C1785 H1792 0.961 . S
C1785 H1793 0.960 . S
C1786 C1784 1.381 . S
C1786 C1787 1.394 . S
C1786 H1794 0.930 . S
C1787 C1786 1.394 . S
C1787 C1788 1.383 . S
C1787 H1795 0.929 . S
C1788 C1787 1.383 . S
C1788 C1789 1.377 . S
C1789 H1773 0.930 . S
C1789 C1788 1.377 . S
C1789 C1790 1.379 . S
C1790 H1774 0.931 . S
C1790 C1784 1.383 . S
C1790 C1789 1.379 . S
H1791 C1785 0.959 . S
H1792 C1785 0.961 . S
H1793 C1785 0.960 . S
H1794 C1786 0.930 . S
H1795 C1787 0.929 . S
H1796 C1804 0.929 . S
H1797 C1806 0.930 . S
H1798 C1808 0.930 . S
H1799 C1811 0.933 . S
H1800 C1814 0.930 . S
H1801 C1816 0.960 . S
H1802 C1816 0.960 . S
H1803 C1816 0.960 . S
C1804 H1796 0.929 . S
C1804 C1805 1.377 1_455 S
C1804 C1806 1.384 1_554 S
C1805 C1804 1.377 1_655 S
C1805 C1811 1.394 . S
C1806 H1797 0.930 . S
C1806 C1804 1.384 1_556 S
C1806 C1807 1.372 . S
C1807 C1806 1.372 . S
C1807 C1808 1.400 1_455 S
C1807 C1812 1.490 . S
C1808 H1798 0.930 . S
C1808 C1807 1.400 1_655 S
C1808 C1811 1.378 1_556 S
H1809 C1825 0.947 . S
H1810 C1826 0.931 . S
C1811 H1799 0.933 . S
C1811 C1805 1.394 . S
C1811 C1808 1.378 1_554 S
C1812 C1807 1.490 . S
C1812 C1814 1.395 . S
C1812 C1815 1.403 1_455 S
H1813 C1819 0.930 1_655 S
C1814 H1800 0.930 . S
C1814 C1812 1.395 . S
C1814 C1817 1.403 . S
C1815 C1812 1.403 1_655 S
C1815 C1816 1.524 . S
C1815 C1819 1.400 1_655 S
C1816 H1801 0.960 . S
C1816 H1802 0.960 . S
C1816 H1803 0.960 . S
C1816 C1815 1.524 . S
C1817 C1814 1.403 . S
C1817 C1818 1.392 . S
C1817 C1821 1.495 . S
C1818 C1817 1.392 . S
C1818 C1819 1.385 . S
C1818 C1820 1.478 . S
C1819 H1813 0.930 1_455 S
C1819 C1815 1.400 1_455 S
C1819 C1818 1.385 . S
C1820 C1818 1.478 . S
C1820 C1822 1.381 . S
C1820 C1826 1.383 1_455 S
C1821 C1817 1.495 . S
C1821 H1827 0.959 . S
C1821 H1828 0.961 . S
C1821 H1829 0.960 . S
C1822 C1820 1.381 . S
C1822 C1823 1.394 . S
C1822 H1830 0.930 . S
C1823 C1822 1.394 . S
C1823 C1824 1.383 . S
C1823 H1831 0.929 . S
C1824 C1823 1.383 . S
C1824 C1825 1.355 1_455 S
C1825 H1809 0.947 . S
C1825 C1824 1.355 1_655 S
C1825 C1826 1.384 . S
C1826 H1810 0.931 . S
C1826 C1820 1.383 1_655 S
C1826 C1825 1.384 . S
H1827 C1821 0.959 . S
H1828 C1821 0.961 . S
H1829 C1821 0.960 . S
H1830 C1822 0.930 . S
H1831 C1823 0.929 . S
H1832 C1840 0.929 . S
H1833 C1842 0.930 . S
H1834 C1844 0.930 . S
H1835 C1847 0.929 . S
H1836 C1850 0.930 . S
H1837 C1852 0.960 . S
H1838 C1852 0.960 . S
H1839 C1852 0.960 . S
C1840 H1832 0.929 . S
C1840 C1841 1.377 . S
C1840 C1842 1.384 . S
C1841 C1840 1.377 . S
C1841 C1847 1.390 . S
C1842 H1833 0.930 . S
C1842 C1840 1.384 . S
C1842 C1843 1.372 . S
C1843 C1842 1.372 . S
C1843 C1844 1.400 . S
C1843 C1848 1.490 . S
C1844 H1834 0.930 . S
C1844 C1843 1.400 . S
C1844 C1847 1.386 . S
H1845 C1861 0.930 . S
H1846 C1862 0.931 . S
C1847 H1835 0.929 . S
C1847 C1841 1.390 . S
C1847 C1844 1.386 . S
C1848 C1843 1.490 . S
C1848 C1850 1.395 . S
C1848 C1851 1.403 . S
H1849 C1855 0.930 . S
C1850 H1836 0.930 . S
C1850 C1848 1.395 . S
C1850 C1853 1.403 . S
C1851 C1848 1.403 . S
C1851 C1852 1.524 . S
C1851 C1855 1.400 . S
C1852 H1837 0.960 . S
C1852 H1838 0.960 . S
C1852 H1839 0.960 . S
C1852 C1851 1.524 . S
C1853 C1850 1.403 . S
C1853 C1854 1.392 . S
C1853 C1857 1.495 . S
C1854 C1853 1.392 . S
C1854 C1855 1.385 . S
C1854 C1856 1.478 . S
C1855 H1849 0.930 . S
C1855 C1851 1.400 . S
C1855 C1854 1.385 . S
C1856 C1854 1.478 . S
C1856 C1858 1.381 . S
C1856 C1862 1.383 . S
C1857 C1853 1.495 . S
C1857 H1863 0.959 . S
C1857 H1864 0.961 . S
C1857 H1865 0.960 . S
C1858 C1856 1.381 . S
C1858 C1859 1.394 . S
C1858 H1866 0.930 . S
C1859 C1858 1.394 . S
C1859 C1860 1.383 . S
C1859 H1867 0.929 . S
C1860 C1859 1.383 . S
C1860 C1861 1.377 . S
C1861 H1845 0.930 . S
C1861 C1860 1.377 . S
C1861 C1862 1.379 . S
C1862 H1846 0.931 . S
C1862 C1856 1.383 . S
C1862 C1861 1.379 . S
H1863 C1857 0.959 . S
H1864 C1857 0.961 . S
H1865 C1857 0.960 . S
H1866 C1858 0.930 . S
H1867 C1859 0.929 . S
H1868 C1876 0.929 . S
H1869 C1878 0.930 . S
H1870 C1880 0.930 . S
H1871 C1883 0.929 . S
H1872 C1886 0.930 . S
H1873 C1888 0.960 . S
H1874 C1888 0.960 . S
H1875 C1888 0.960 . S
C1876 H1868 0.929 . S
C1876 C1877 1.377 1_556 S
C1876 C1878 1.384 . S
C1877 C1876 1.377 1_554 S
C1877 C1883 1.390 . S
C1878 H1869 0.930 . S
C1878 C1876 1.384 . S
C1878 C1879 1.372 . S
C1879 C1878 1.372 . S
C1879 C1880 1.400 1_556 S
C1879 C1884 1.490 . S
C1880 H1870 0.930 . S
C1880 C1879 1.400 1_554 S
C1880 C1883 1.386 . S
H1881 C1897 0.930 . S
H1882 C1898 0.931 . S
C1883 H1871 0.929 . S
C1883 C1877 1.390 . S
C1883 C1880 1.386 . S
C1884 C1879 1.490 . S
C1884 C1886 1.395 . S
C1884 C1887 1.403 . S
H1885 C1891 0.930 . S
C1886 H1872 0.930 . S
C1886 C1884 1.395 . S
C1886 C1889 1.403 . S
C1887 C1884 1.403 . S
C1887 C1888 1.524 . S
C1887 C1891 1.400 . S
C1888 H1873 0.960 . S
C1888 H1874 0.960 . S
C1888 H1875 0.960 . S
C1888 C1887 1.524 . S
C1889 C1886 1.403 . S
C1889 C1890 1.392 . S
C1889 C1893 1.495 . S
C1890 C1889 1.392 . S
C1890 C1891 1.385 . S
C1890 C1892 1.478 . S
C1891 H1885 0.930 . S
C1891 C1887 1.400 . S
C1891 C1890 1.385 . S
C1892 C1890 1.478 . S
C1892 C1894 1.381 . S
C1892 C1898 1.383 . S
C1893 C1889 1.495 . S
C1893 H1899 0.959 1_455 S
C1893 H1900 0.961 1_455 S
C1893 H1901 0.960 . S
C1894 C1892 1.381 . S
C1894 C1895 1.394 . S
C1894 H1902 0.930 . S
C1895 C1894 1.394 . S
C1895 C1896 1.383 . S
C1895 H1903 0.929 . S
C1896 C1895 1.383 . S
C1896 C1897 1.377 . S
C1897 H1881 0.930 . S
C1897 C1896 1.377 . S
C1897 C1898 1.379 . S
C1898 H1882 0.931 . S
C1898 C1892 1.383 . S
C1898 C1897 1.379 . S
H1899 C1893 0.959 1_655 S
H1900 C1893 0.961 1_655 S
H1901 C1893 0.960 . S
H1902 C1894 0.930 . S
H1903 C1895 0.929 . S
H1904 C1912 0.929 . S
H1905 C1914 0.930 . S
H1906 C1916 0.930 . S
H1907 C1919 0.929 . S
H1908 C1922 0.930 . S
H1909 C1924 0.960 . S
H1910 C1924 0.960 . S
H1911 C1924 0.960 . S
C1912 H1904 0.929 . S
C1912 C1913 1.377 . S
C1912 C1914 1.384 . S
C1913 C1912 1.377 . S
C1913 C1919 1.390 . S
C1914 H1905 0.930 . S
C1914 C1912 1.384 . S
C1914 C1915 1.372 . S
C1915 C1914 1.372 . S
C1915 C1916 1.400 . S
C1915 C1920 1.490 . S
C1916 H1906 0.930 . S
C1916 C1915 1.400 . S
C1916 C1919 1.386 . S
H1917 C1933 0.930 . S
H1918 C1934 0.931 . S
C1919 H1907 0.929 . S
C1919 C1913 1.390 . S
C1919 C1916 1.386 . S
C1920 C1915 1.490 . S
C1920 C1922 1.395 . S
C1920 C1923 1.403 . S
H1921 C1927 0.930 . S
C1922 H1908 0.930 . S
C1922 C1920 1.395 . S
C1922 C1925 1.403 . S
C1923 C1920 1.403 . S
C1923 C1924 1.524 . S
C1923 C1927 1.400 . S
C1924 H1909 0.960 . S
C1924 H1910 0.960 . S
C1924 H1911 0.960 . S
C1924 C1923 1.524 . S
C1925 C1922 1.403 . S
C1925 C1926 1.392 . S
C1925 C1929 1.495 . S
C1926 C1925 1.392 . S
C1926 C1927 1.385 . S
C1926 C1928 1.478 . S
C1927 H1921 0.930 . S
C1927 C1923 1.400 . S
C1927 C1926 1.385 . S
C1928 C1926 1.478 . S
C1928 C1930 1.381 . S
C1928 C1934 1.383 . S
C1929 C1925 1.495 . S
C1929 H1935 0.959 . S
C1929 H1936 0.961 . S
C1929 H1937 0.960 . S
C1930 C1928 1.381 . S
C1930 C1931 1.394 . S
C1930 H1938 0.930 . S
C1931 C1930 1.394 . S
C1931 C1932 1.383 . S
C1931 H1939 0.929 . S
C1932 C1931 1.383 . S
C1932 C1933 1.377 . S
C1933 H1917 0.930 . S
C1933 C1932 1.377 . S
C1933 C1934 1.379 . S
C1934 H1918 0.931 . S
C1934 C1928 1.383 . S
C1934 C1933 1.379 . S
H1935 C1929 0.959 . S
H1936 C1929 0.961 . S
H1937 C1929 0.960 . S
H1938 C1930 0.930 . S
H1939 C1931 0.929 . S
H1940 C1948 0.929 . S
H1941 C1950 0.930 . S
H1942 C1952 0.930 . S
H1943 C1955 0.929 . S
H1944 C1958 0.930 . S
H1945 C1960 0.960 . S
H1946 C1960 0.960 . S
H1947 C1960 0.960 . S
C1948 H1940 0.929 . S
C1948 C1949 1.377 . S
C1948 C1950 1.384 . S
C1949 C1948 1.377 . S
C1949 C1955 1.390 . S
C1950 H1941 0.930 . S
C1950 C1948 1.384 . S
C1950 C1951 1.372 . S
C1951 C1950 1.372 . S
C1951 C1952 1.400 . S
C1951 C1956 1.490 . S
C1952 H1942 0.930 . S
C1952 C1951 1.400 . S
C1952 C1955 1.386 . S
H1953 C1969 0.930 . S
H1954 C1970 0.931 . S
C1955 H1943 0.929 . S
C1955 C1949 1.390 . S
C1955 C1952 1.386 . S
C1956 C1951 1.490 . S
C1956 C1958 1.395 . S
C1956 C1959 1.403 . S
H1957 C1963 0.930 . S
C1958 H1944 0.930 . S
C1958 C1956 1.395 . S
C1958 C1961 1.403 . S
C1959 C1956 1.403 . S
C1959 C1960 1.524 . S
C1959 C1963 1.400 . S
C1960 H1945 0.960 . S
C1960 H1946 0.960 . S
C1960 H1947 0.960 . S
C1960 C1959 1.524 . S
C1961 C1958 1.403 . S
C1961 C1962 1.392 . S
C1961 C1965 1.495 . S
C1962 C1961 1.392 . S
C1962 C1963 1.385 . S
C1962 C1964 1.478 . S
C1963 H1957 0.930 . S
C1963 C1959 1.400 . S
C1963 C1962 1.385 . S
C1964 C1962 1.478 . S
C1964 C1966 1.381 . S
C1964 C1970 1.383 . S
C1965 C1961 1.495 . S
C1965 H1971 0.959 . S
C1965 H1972 0.961 . S
C1965 H1973 0.960 . S
C1966 C1964 1.381 . S
C1966 C1967 1.394 . S
C1966 H1974 0.930 . S
C1967 C1966 1.394 . S
C1967 C1968 1.383 . S
C1967 H1975 0.929 . S
C1968 C1967 1.383 . S
C1968 C1969 1.377 . S
C1969 H1953 0.930 . S
C1969 C1968 1.377 . S
C1969 C1970 1.379 . S
C1970 H1954 0.931 . S
C1970 C1964 1.383 . S
C1970 C1969 1.379 . S
H1971 C1965 0.959 . S
H1972 C1965 0.961 . S
H1973 C1965 0.960 . S
H1974 C1966 0.930 . S
H1975 C1967 0.929 . S
H1976 C1984 0.929 . S
H1977 C1986 0.930 . S
H1978 C1988 0.930 . S
H1979 C1991 0.929 . S
H1980 C1994 0.930 . S
H1981 C1996 0.960 . S
H1982 C1996 0.960 . S
H1983 C1996 0.960 . S
C1984 H1976 0.929 . S
C1984 C1985 1.377 . S
C1984 C1986 1.384 . S
C1985 C1984 1.377 . S
C1985 C1991 1.390 . S
C1986 H1977 0.930 . S
C1986 C1984 1.384 . S
C1986 C1987 1.372 . S
C1987 C1986 1.372 . S
C1987 C1988 1.400 . S
C1987 C1992 1.490 . S
C1988 H1978 0.930 . S
C1988 C1987 1.400 . S
C1988 C1991 1.386 . S
H1989 C2005 0.930 . S
H1990 C2006 0.931 . S
C1991 H1979 0.929 . S
C1991 C1985 1.390 . S
C1991 C1988 1.386 . S
C1992 C1987 1.490 . S
C1992 C1994 1.395 . S
C1992 C1995 1.403 . S
H1993 C1999 0.930 . S
C1994 H1980 0.930 . S
C1994 C1992 1.395 . S
C1994 C1997 1.403 . S
C1995 C1992 1.403 . S
C1995 C1996 1.524 . S
C1995 C1999 1.400 . S
C1996 H1981 0.960 . S
C1996 H1982 0.960 . S
C1996 H1983 0.960 . S
C1996 C1995 1.524 . S
C1997 C1994 1.403 . S
C1997 C1998 1.392 . S
C1997 C2001 1.495 . S
C1998 C1997 1.392 . S
C1998 C1999 1.385 . S
C1998 C2000 1.478 . S
C1999 H1993 0.930 . S
C1999 C1995 1.400 . S
C1999 C1998 1.385 . S
C2000 C1998 1.478 . S
C2000 C2002 1.381 . S
C2000 C2006 1.383 . S
C2001 C1997 1.495 . S
C2001 H2007 0.959 . S
C2001 H2008 0.961 . S
C2001 H2009 0.960 . S
C2002 C2000 1.381 . S
C2002 C2003 1.394 . S
C2002 H2010 0.930 . S
C2003 C2002 1.394 . S
C2003 C2004 1.383 . S
C2003 H2011 0.929 . S
C2004 C2003 1.383 . S
C2004 C2005 1.377 . S
C2005 H1989 0.930 . S
C2005 C2004 1.377 . S
C2005 C2006 1.379 . S
C2006 H1990 0.931 . S
C2006 C2000 1.383 . S
C2006 C2005 1.379 . S
H2007 C2001 0.959 . S
H2008 C2001 0.961 . S
H2009 C2001 0.960 . S
H2010 C2002 0.930 . S
H2011 C2003 0.929 . S
H2012 C2020 0.929 . S
H2013 C2022 0.930 . S
H2014 C2024 0.930 . S
H2015 C2027 0.929 1_556 S
H2016 C2030 0.930 . S
H2017 C2032 0.960 . S
H2018 C2032 0.960 . S
H2019 C2032 0.960 . S
C2020 H2012 0.929 . S
C2020 C2021 1.374 1_554 S
C2020 C2022 1.384 . S
C2021 C2020 1.374 1_556 S
C2021 C2027 1.389 1_556 S
C2022 H2013 0.930 . S
C2022 C2020 1.384 . S
C2022 C2023 1.372 . S
C2023 C2022 1.372 . S
C2023 C2024 1.400 . S
C2023 C2028 1.490 . S
C2024 H2014 0.930 . S
C2024 C2023 1.400 . S
C2024 C2027 1.386 . S
H2025 C2041 0.930 . S
H2026 C2042 0.931 . S
C2027 H2015 0.929 1_554 S
C2027 C2021 1.389 1_554 S
C2027 C2024 1.386 . S
C2028 C2023 1.490 . S
C2028 C2030 1.395 . S
C2028 C2031 1.403 . S
H2029 C2035 0.930 . S
C2030 H2016 0.930 . S
C2030 C2028 1.395 . S
C2030 C2033 1.403 . S
C2031 C2028 1.403 . S
C2031 C2032 1.524 . S
C2031 C2035 1.400 . S
C2032 H2017 0.960 . S
C2032 H2018 0.960 . S
C2032 H2019 0.960 . S
C2032 C2031 1.524 . S
C2033 C2030 1.403 . S
C2033 C2034 1.392 . S
C2033 C2037 1.495 . S
C2034 C2033 1.392 . S
C2034 C2035 1.385 . S
C2034 C2036 1.478 . S
C2035 H2029 0.930 . S
C2035 C2031 1.400 . S
C2035 C2034 1.385 . S
C2036 C2034 1.478 . S
C2036 C2038 1.381 . S
C2036 C2042 1.383 . S
C2037 C2033 1.495 . S
C2037 H2043 0.959 . S
C2037 H2044 0.961 . S
C2037 H2045 0.960 . S
C2038 C2036 1.381 . S
C2038 C2039 1.394 . S
C2038 H2046 0.930 . S
C2039 C2038 1.394 . S
C2039 C2040 1.383 . S
C2039 H2047 0.929 . S
C2040 C2039 1.383 . S
C2040 C2041 1.377 . S
C2041 H2025 0.930 . S
C2041 C2040 1.377 . S
C2041 C2042 1.379 . S
C2042 H2026 0.931 . S
C2042 C2036 1.383 . S
C2042 C2041 1.379 . S
H2043 C2037 0.959 . S
H2044 C2037 0.961 . S
H2045 C2037 0.960 . S
H2046 C2038 0.930 . S
H2047 C2039 0.929 . S
H2048 C2056 0.929 . S
H2049 C2058 0.930 . S
H2050 C2060 0.930 . S
H2051 C2063 0.929 . S
H2052 C2066 0.930 . S
H2053 C2068 0.960 . S
H2054 C2068 0.960 . S
H2055 C2068 0.960 . S
C2056 H2048 0.929 . S
C2056 C2057 1.377 . S
C2056 C2058 1.384 . S
C2057 C2056 1.377 . S
C2057 C2063 1.390 . S
C2058 H2049 0.930 . S
C2058 C2056 1.384 . S
C2058 C2059 1.372 . S
C2059 C2058 1.372 . S
C2059 C2060 1.400 . S
C2059 C2064 1.490 . S
C2060 H2050 0.930 . S
C2060 C2059 1.400 . S
C2060 C2063 1.386 . S
H2061 C2077 0.930 . S
H2062 C2078 0.931 . S
C2063 H2051 0.929 . S
C2063 C2057 1.390 . S
C2063 C2060 1.386 . S
C2064 C2059 1.490 . S
C2064 C2066 1.395 . S
C2064 C2067 1.403 . S
H2065 C2071 0.930 . S
C2066 H2052 0.930 . S
C2066 C2064 1.395 . S
C2066 C2069 1.403 . S
C2067 C2064 1.403 . S
C2067 C2068 1.524 . S
C2067 C2071 1.400 . S
C2068 H2053 0.960 . S
C2068 H2054 0.960 . S
C2068 H2055 0.960 . S
C2068 C2067 1.524 . S
C2069 C2066 1.403 . S
C2069 C2070 1.392 . S
C2069 C2073 1.495 . S
C2070 C2069 1.392 . S
C2070 C2071 1.385 . S
C2070 C2072 1.478 . S
C2071 H2065 0.930 . S
C2071 C2067 1.400 . S
C2071 C2070 1.385 . S
C2072 C2070 1.478 . S
C2072 C2074 1.381 . S
C2072 C2078 1.383 . S
C2073 C2069 1.495 . S
C2073 H2079 0.959 . S
C2073 H2080 0.961 . S
C2073 H2081 0.960 . S
C2074 C2072 1.381 . S
C2074 C2075 1.394 . S
C2074 H2082 0.930 . S
C2075 C2074 1.394 . S
C2075 C2076 1.383 . S
C2075 H2083 0.929 . S
C2076 C2075 1.383 . S
C2076 C2077 1.377 . S
C2077 H2061 0.930 . S
C2077 C2076 1.377 . S
C2077 C2078 1.379 . S
C2078 H2062 0.931 . S
C2078 C2072 1.383 . S
C2078 C2077 1.379 . S
H2079 C2073 0.959 . S
H2080 C2073 0.961 . S
H2081 C2073 0.960 . S
H2082 C2074 0.930 . S
H2083 C2075 0.929 . S
H2084 C2092 0.929 . S
H2085 C2094 0.930 . S
H2086 C2096 0.930 . S
H2087 C2099 0.929 . S
H2088 C2102 0.930 . S
H2089 C2104 0.960 . S
H2090 C2104 0.960 . S
H2091 C2104 0.960 . S
C2092 H2084 0.929 . S
C2092 C2093 1.377 . S
C2092 C2094 1.384 . S
C2093 C2092 1.377 . S
C2093 C2099 1.390 . S
C2094 H2085 0.930 . S
C2094 C2092 1.384 . S
C2094 C2095 1.372 . S
C2095 C2094 1.372 . S
C2095 C2096 1.400 . S
C2095 C2100 1.490 . S
C2096 H2086 0.930 . S
C2096 C2095 1.400 . S
C2096 C2099 1.386 . S
H2097 C2113 0.930 . S
H2098 C2114 0.931 . S
C2099 H2087 0.929 . S
C2099 C2093 1.390 . S
C2099 C2096 1.386 . S
C2100 C2095 1.490 . S
C2100 C2102 1.395 . S
C2100 C2103 1.403 . S
H2101 C2107 0.930 . S
C2102 H2088 0.930 . S
C2102 C2100 1.395 . S
C2102 C2105 1.403 . S
C2103 C2100 1.403 . S
C2103 C2104 1.524 . S
C2103 C2107 1.400 . S
C2104 H2089 0.960 . S
C2104 H2090 0.960 . S
C2104 H2091 0.960 . S
C2104 C2103 1.524 . S
C2105 C2102 1.403 . S
C2105 C2106 1.392 . S
C2105 C2109 1.495 . S
C2106 C2105 1.392 . S
C2106 C2107 1.385 . S
C2106 C2108 1.478 . S
C2107 H2101 0.930 . S
C2107 C2103 1.400 . S
C2107 C2106 1.385 . S
C2108 C2106 1.478 . S
C2108 C2110 1.381 . S
C2108 C2114 1.383 . S
C2109 C2105 1.495 . S
C2109 H2115 0.959 . S
C2109 H2116 0.961 . S
C2109 H2117 0.960 . S
C2110 C2108 1.381 . S
C2110 C2111 1.394 . S
C2110 H2118 0.930 . S
C2111 C2110 1.394 . S
C2111 C2112 1.383 . S
C2111 H2119 0.929 . S
C2112 C2111 1.383 . S
C2112 C2113 1.377 . S
C2113 H2097 0.930 . S
C2113 C2112 1.377 . S
C2113 C2114 1.379 . S
C2114 H2098 0.931 . S
C2114 C2108 1.383 . S
C2114 C2113 1.379 . S
H2115 C2109 0.959 . S
H2116 C2109 0.961 . S
H2117 C2109 0.960 . S
H2118 C2110 0.930 . S
H2119 C2111 0.929 . S
H2120 C2128 0.929 . S
H2121 C2130 0.930 . S
H2122 C2132 0.930 . S
H2123 C2135 0.929 . S
H2124 C2138 0.930 . S
H2125 C2140 0.960 . S
H2126 C2140 0.960 . S
H2127 C2140 0.960 . S
C2128 H2120 0.929 . S
C2128 C2129 1.377 . S
C2128 C2130 1.384 . S
C2129 C2128 1.377 . S
C2129 C2135 1.390 . S
C2130 H2121 0.930 . S
C2130 C2128 1.384 . S
C2130 C2131 1.372 . S
C2131 C2130 1.372 . S
C2131 C2132 1.400 . S
C2131 C2136 1.490 . S
C2132 H2122 0.930 . S
C2132 C2131 1.400 . S
C2132 C2135 1.386 . S
H2133 C2149 0.930 . S
H2134 C2150 0.931 . S
C2135 H2123 0.929 . S
C2135 C2129 1.390 . S
C2135 C2132 1.386 . S
C2136 C2131 1.490 . S
C2136 C2138 1.395 . S
C2136 C2139 1.403 . S
H2137 C2143 0.930 . S
C2138 H2124 0.930 . S
C2138 C2136 1.395 . S
C2138 C2141 1.403 . S
C2139 C2136 1.403 . S
C2139 C2140 1.524 . S
C2139 C2143 1.400 . S
C2140 H2125 0.960 . S
C2140 H2126 0.960 . S
C2140 H2127 0.960 . S
C2140 C2139 1.524 . S
C2141 C2138 1.403 . S
C2141 C2142 1.392 . S
C2141 C2145 1.495 . S
C2142 C2141 1.392 . S
C2142 C2143 1.385 . S
C2142 C2144 1.478 . S
C2143 H2137 0.930 . S
C2143 C2139 1.400 . S
C2143 C2142 1.385 . S
C2144 C2142 1.478 . S
C2144 C2146 1.381 . S
C2144 C2150 1.383 . S
C2145 C2141 1.495 . S
C2145 H2151 0.959 . S
C2145 H2152 0.961 . S
C2145 H2153 0.960 . S
C2146 C2144 1.381 . S
C2146 C2147 1.394 . S
C2146 H2154 0.930 . S
C2147 C2146 1.394 . S
C2147 C2148 1.383 . S
C2147 H2155 0.929 . S
C2148 C2147 1.383 . S
C2148 C2149 1.377 . S
C2149 H2133 0.930 . S
C2149 C2148 1.377 . S
C2149 C2150 1.379 . S
C2150 H2134 0.931 . S
C2150 C2144 1.383 . S
C2150 C2149 1.379 . S
H2151 C2145 0.959 . S
H2152 C2145 0.961 . S
H2153 C2145 0.960 . S
H2154 C2146 0.930 . S
H2155 C2147 0.929 . S
H2156 C2164 0.929 . S
H2157 C2166 0.930 . S
H2158 C2168 0.930 . S
H2159 C2171 0.929 . S
H2160 C2174 0.930 . S
H2161 C2176 0.960 . S
H2162 C2176 0.960 . S
H2163 C2176 0.960 . S
C2164 H2156 0.929 . S
C2164 C2165 1.377 . S
C2164 C2166 1.384 . S
C2165 C2164 1.377 . S
C2165 C2171 1.390 . S
C2166 H2157 0.930 . S
C2166 C2164 1.384 . S
C2166 C2167 1.372 . S
C2167 C2166 1.372 . S
C2167 C2168 1.400 . S
C2167 C2172 1.490 . S
C2168 H2158 0.930 . S
C2168 C2167 1.400 . S
C2168 C2171 1.386 . S
H2169 C2185 0.930 . S
H2170 C2186 0.931 . S
C2171 H2159 0.929 . S
C2171 C2165 1.390 . S
C2171 C2168 1.386 . S
C2172 C2167 1.490 . S
C2172 C2174 1.395 . S
C2172 C2175 1.403 . S
H2173 C2179 0.930 . S
C2174 H2160 0.930 . S
C2174 C2172 1.395 . S
C2174 C2177 1.403 . S
C2175 C2172 1.403 . S
C2175 C2176 1.524 . S
C2175 C2179 1.400 . S
C2176 H2161 0.960 . S
C2176 H2162 0.960 . S
C2176 H2163 0.960 . S
C2176 C2175 1.524 . S
C2177 C2174 1.403 . S
C2177 C2178 1.392 . S
C2177 C2181 1.495 . S
C2178 C2177 1.392 . S
C2178 C2179 1.385 . S
C2178 C2180 1.478 . S
C2179 H2173 0.930 . S
C2179 C2175 1.400 . S
C2179 C2178 1.385 . S
C2180 C2178 1.478 . S
C2180 C2182 1.381 . S
C2180 C2186 1.383 . S
C2181 C2177 1.495 . S
C2181 H2187 0.959 . S
C2181 H2188 0.961 . S
C2181 H2189 0.960 . S
C2182 C2180 1.381 . S
C2182 C2183 1.394 . S
C2182 H2190 0.930 . S
C2183 C2182 1.394 . S
C2183 C2184 1.383 . S
C2183 H2191 0.929 . S
C2184 C2183 1.383 . S
C2184 C2185 1.377 . S
C2185 H2169 0.930 . S
C2185 C2184 1.377 . S
C2185 C2186 1.379 . S
C2186 H2170 0.931 . S
C2186 C2180 1.383 . S
C2186 C2185 1.379 . S
H2187 C2181 0.959 . S
H2188 C2181 0.961 . S
H2189 C2181 0.960 . S
H2190 C2182 0.930 . S
H2191 C2183 0.929 . S
H2192 C2200 0.929 . S
H2193 C2202 0.930 . S
H2194 C2204 0.930 . S
H2195 C2207 0.929 . S
H2196 C2210 0.930 . S
H2197 C2212 0.960 . S
H2198 C2212 0.960 . S
H2199 C2212 0.960 . S
C2200 H2192 0.929 . S
C2200 C2201 1.377 . S
C2200 C2202 1.384 . S
C2201 C2200 1.377 . S
C2201 C2207 1.390 1_556 S
C2202 H2193 0.930 . S
C2202 C2200 1.384 . S
C2202 C2203 1.372 . S
C2203 C2202 1.372 . S
C2203 C2204 1.400 1_556 S
C2203 C2208 1.490 . S
C2204 H2194 0.930 . S
C2204 C2203 1.400 1_554 S
C2204 C2207 1.386 . S
H2205 C2221 0.930 . S
H2206 C2222 0.931 . S
C2207 H2195 0.929 . S
C2207 C2201 1.390 1_554 S
C2207 C2204 1.386 . S
C2208 C2203 1.490 . S
C2208 C2210 1.395 . S
C2208 C2211 1.403 1_556 S
H2209 C2215 0.930 . S
C2210 H2196 0.930 . S
C2210 C2208 1.395 . S
C2210 C2213 1.403 . S
C2211 C2208 1.403 1_554 S
C2211 C2212 1.524 . S
C2211 C2215 1.400 . S
C2212 H2197 0.960 . S
C2212 H2198 0.960 . S
C2212 H2199 0.960 . S
C2212 C2211 1.524 . S
C2213 C2210 1.403 . S
C2213 C2214 1.392 . S
C2213 C2217 1.495 . S
C2214 C2213 1.392 . S
C2214 C2215 1.385 1_556 S
C2214 C2216 1.478 . S
C2215 H2209 0.930 . S
C2215 C2211 1.400 . S
C2215 C2214 1.385 1_554 S
C2216 C2214 1.478 . S
C2216 C2218 1.381 . S
C2216 C2222 1.383 1_556 S
C2217 C2213 1.495 . S
C2217 H2223 0.959 . S
C2217 H2224 0.961 . S
C2217 H2225 0.960 . S
C2218 C2216 1.381 . S
C2218 C2219 1.394 . S
C2218 H2226 0.930 . S
C2219 C2218 1.394 . S
C2219 C2220 1.383 . S
C2219 H2227 0.929 . S
C2220 C2219 1.383 . S
C2220 C2221 1.377 1_556 S
C2221 H2205 0.930 . S
C2221 C2220 1.377 1_554 S
C2221 C2222 1.379 . S
C2222 H2206 0.931 . S
C2222 C2216 1.383 1_554 S
C2222 C2221 1.379 . S
H2223 C2217 0.959 . S
H2224 C2217 0.961 . S
H2225 C2217 0.960 . S
H2226 C2218 0.930 . S
H2227 C2219 0.929 . S
H2228 C2236 0.929 . S
H2229 C2238 0.930 . S
H2230 C2240 0.930 . S
H2231 C2243 0.929 . S
H2232 C2246 0.930 . S
H2233 C2248 0.960 . S
H2234 C2248 0.960 . S
H2235 C2248 0.960 . S
C2236 H2228 0.929 . S
C2236 C2237 1.377 . S
C2236 C2238 1.384 . S
C2237 C2236 1.377 . S
C2237 C2243 1.390 . S
C2238 H2229 0.930 . S
C2238 C2236 1.384 . S
C2238 C2239 1.372 . S
C2239 C2238 1.372 . S
C2239 C2240 1.400 . S
C2239 C2244 1.490 . S
C2240 H2230 0.930 . S
C2240 C2239 1.400 . S
C2240 C2243 1.386 . S
H2241 C2257 0.930 . S
H2242 C2258 0.931 . S
C2243 H2231 0.929 . S
C2243 C2237 1.390 . S
C2243 C2240 1.386 . S
C2244 C2239 1.490 . S
C2244 C2246 1.395 . S
C2244 C2247 1.403 . S
H2245 C2251 0.930 . S
C2246 H2232 0.930 . S
C2246 C2244 1.395 . S
C2246 C2249 1.403 . S
C2247 C2244 1.403 . S
C2247 C2248 1.524 . S
C2247 C2251 1.400 . S
C2248 H2233 0.960 . S
C2248 H2234 0.960 . S
C2248 H2235 0.960 . S
C2248 C2247 1.524 . S
C2249 C2246 1.403 . S
C2249 C2250 1.392 . S
C2249 C2253 1.495 . S
C2250 C2249 1.392 . S
C2250 C2251 1.385 . S
C2250 C2252 1.478 . S
C2251 H2245 0.930 . S
C2251 C2247 1.400 . S
C2251 C2250 1.385 . S
C2252 C2250 1.478 . S
C2252 C2254 1.381 . S
C2252 C2258 1.383 . S
C2253 C2249 1.495 . S
C2253 H2259 0.959 . S
C2253 H2260 0.961 . S
C2253 H2261 0.960 . S
C2254 C2252 1.381 . S
C2254 C2255 1.394 . S
C2254 H2262 0.930 . S
C2255 C2254 1.394 . S
C2255 C2256 1.383 . S
C2255 H2263 0.929 . S
C2256 C2255 1.383 . S
C2256 C2257 1.377 . S
C2257 H2241 0.930 . S
C2257 C2256 1.377 . S
C2257 C2258 1.379 . S
C2258 H2242 0.931 . S
C2258 C2252 1.383 . S
C2258 C2257 1.379 . S
H2259 C2253 0.959 . S
H2260 C2253 0.961 . S
H2261 C2253 0.960 . S
H2262 C2254 0.930 . S
H2263 C2255 0.929 . S
H2264 C2272 0.929 . S
H2265 C2274 0.930 . S
H2266 C2276 0.930 . S
H2267 C2279 0.929 . S
H2268 C2282 0.930 . S
H2269 C2284 0.960 . S
H2270 C2284 0.960 . S
H2271 C2284 0.960 1_554 S
C2272 H2264 0.929 . S
C2272 C2273 1.377 . S
C2272 C2274 1.384 . S
C2273 C2272 1.377 . S
C2273 C2279 1.390 . S
C2274 H2265 0.930 . S
C2274 C2272 1.384 . S
C2274 C2275 1.372 . S
C2275 C2274 1.372 . S
C2275 C2276 1.400 . S
C2275 C2280 1.490 . S
C2276 H2266 0.930 . S
C2276 C2275 1.400 . S
C2276 C2279 1.386 . S
H2277 C2293 0.930 . S
H2278 C2294 0.931 . S
C2279 H2267 0.929 . S
C2279 C2273 1.390 . S
C2279 C2276 1.386 . S
C2280 C2275 1.490 . S
C2280 C2282 1.395 . S
C2280 C2283 1.403 . S
H2281 C2287 0.930 1_556 S
C2282 H2268 0.930 . S
C2282 C2280 1.395 . S
C2282 C2285 1.403 . S
C2283 C2280 1.403 . S
C2283 C2284 1.524 1_554 S
C2283 C2287 1.400 . S
C2284 H2269 0.960 . S
C2284 H2270 0.960 . S
C2284 H2271 0.960 1_556 S
C2284 C2283 1.524 1_556 S
C2285 C2282 1.403 . S
C2285 C2286 1.392 . S
C2285 C2289 1.495 . S
C2286 C2285 1.392 . S
C2286 C2287 1.385 . S
C2286 C2288 1.478 . S
C2287 H2281 0.930 1_554 S
C2287 C2283 1.400 . S
C2287 C2286 1.385 . S
C2288 C2286 1.478 . S
C2288 C2290 1.381 1_554 S
C2288 C2294 1.383 . S
C2289 C2285 1.495 . S
C2289 H2295 0.959 . S
C2289 H2296 0.961 . S
C2289 H2297 0.960 . S
C2290 C2288 1.381 1_556 S
C2290 C2291 1.394 . S
C2290 H2298 0.930 . S
C2291 C2290 1.394 . S
C2291 C2292 1.383 1_556 S
C2291 H2299 0.929 . S
C2292 C2291 1.383 1_554 S
C2292 C2293 1.377 . S
C2293 H2277 0.930 . S
C2293 C2292 1.377 . S
C2293 C2294 1.379 . S
C2294 H2278 0.931 . S
C2294 C2288 1.383 . S
C2294 C2293 1.379 . S
H2295 C2289 0.959 . S
H2296 C2289 0.961 . S
H2297 C2289 0.960 . S
H2298 C2290 0.930 . S
H2299 C2291 0.929 . S
H2300 C2308 0.929 . S
H2301 C2310 0.930 . S
H2302 C2312 0.930 . S
H2303 C2315 0.929 . S
H2304 C2318 0.930 1_545 S
H2305 C2320 0.960 . S
H2306 C2320 0.960 . S
H2307 C2320 0.960 . S
C2308 H2300 0.929 . S
C2308 C2309 1.377 . S
C2308 C2310 1.384 . S
C2309 C2308 1.377 . S
C2309 C2315 1.390 . S
C2310 H2301 0.930 . S
C2310 C2308 1.384 . S
C2310 C2311 1.372 1_545 S
C2311 C2310 1.372 1_565 S
C2311 C2312 1.400 . S
C2311 C2316 1.490 . S
C2312 H2302 0.930 . S
C2312 C2311 1.400 . S
C2312 C2315 1.386 1_565 S
H2313 C2329 0.930 . S
H2314 C2330 0.931 . S
C2315 H2303 0.929 . S
C2315 C2309 1.390 . S
C2315 C2312 1.386 1_545 S
C2316 C2311 1.490 . S
C2316 C2318 1.395 . S
C2316 C2319 1.403 . S
H2317 C2323 0.930 . S
C2318 H2304 0.930 1_565 S
C2318 C2316 1.395 . S
C2318 C2321 1.403 . S
C2319 C2316 1.403 . S
C2319 C2320 1.524 . S
C2319 C2323 1.400 . S
C2320 H2305 0.960 . S
C2320 H2306 0.960 . S
C2320 H2307 0.960 . S
C2320 C2319 1.524 . S
C2321 C2318 1.403 . S
C2321 C2322 1.392 . S
C2321 C2325 1.495 . S
C2322 C2321 1.392 . S
C2322 C2323 1.385 . S
C2322 C2324 1.478 . S
C2323 H2317 0.930 . S
C2323 C2319 1.400 . S
C2323 C2322 1.385 . S
C2324 C2322 1.478 . S
C2324 C2326 1.381 . S
C2324 C2330 1.383 . S
C2325 C2321 1.495 . S
C2325 H2331 0.959 1_565 S
C2325 H2332 0.961 . S
C2325 H2333 0.960 . S
C2326 C2324 1.381 . S
C2326 C2327 1.394 . S
C2326 H2334 0.930 . S
C2327 C2326 1.394 . S
C2327 C2328 1.383 . S
C2327 H2335 0.929 . S
C2328 C2327 1.383 . S
C2328 C2329 1.377 . S
C2329 H2313 0.930 . S
C2329 C2328 1.377 . S
C2329 C2330 1.379 . S
C2330 H2314 0.931 . S
C2330 C2324 1.383 . S
C2330 C2329 1.379 . S
H2331 C2325 0.959 1_545 S
H2332 C2325 0.961 . S
H2333 C2325 0.960 . S
H2334 C2326 0.930 . S
H2335 C2327 0.929 . S
C636 C178 1.508 1_556 S
C617 C60 1.496 . S
C672 C226 1.370 . S
C653 C76 1.436 . S
C689 C81 1.546 . S
C708 C262 1.495 . S
C744 C298 1.659 . S
C725 C48 1.752 . S
C780 C324 1.401 . S
C761 C115 1.405 . S
C816 C360 1.743 . S
C797 C136 1.764 . S
C833 C131 1.340 . S
C852 C395 1.350 . S
C888 C432 1.550 . S
C869 C104 1.561 . S
C905 C126 1.427 . S
C924 C466 1.416 . S
C960 C514 1.464 . S
C941 C103 1.524 . S
C977 C120 1.316 . S
C996 C467 1.321 . S
C1032 C504 1.565 . S
C1013 C142 1.565 . S
C1049 C82 1.336 . S
C1068 C550 1.293 . S
C1085 C54 1.954 . S
C1104 C539 1.954 . S
C1121 C65 1.441 . S
C1140 C540 1.435 . S
C1157 C71 1.336 . S
C1176 C538 1.322 . S
C1193 C37 1.469 . S
C1212 C286 1.452 1_565 S
C1229 C158 1.968 . S
C1248 C287 1.977 . S
C1284 C190 1.511 . S
C1265 C169 1.568 . S
C1320 C215 1.091 . S
C1301 C98 1.091 . S
C1337 C49 1.862 1_545 S
C1356 C322 1.866 . S
C1392 C430 1.377 . S
C1373 C125 1.385 . S
C1428 C323 1.400 . S
C1409 C109 1.418 . S
C1464 C396 1.925 . S
C1445 C137 1.943 . S
C1500 C394 1.500 . S
C1481 C159 1.493 . S
C1517 C175 1.433 . S
C1536 C442 1.420 . S
C1553 C92 1.547 . S
C1572 C334 1.484 . S
C1608 C370 1.650 . S
C1589 C147 1.752 . S
C1625 C38 1.404 . S
C1644 C252 1.406 . S
C1680 C288 1.759 . S
C1661 C4 1.765 . S
C1716 C179 1.335 . S
C1697 C21 1.336 . S
C1752 C216 1.570 . S
C1733 C27 1.564 . S
C1769 C16 1.430 . S
C1788 C502 1.440 . S
C1805 C26 1.525 . S
C1824 C478 1.484 . S
C1841 C43 1.313 . S
C1860 C503 1.318 . S
C1877 C10 1.566 . S
C1896 C468 1.563 . S
C1932 C586 1.290 . S
C1913 C93 1.335 . S
C1968 C575 1.955 . S
C1949 C153 1.954 . S
C2004 C576 1.432 . S
C1985 C164 1.437 . S
C2021 C170 1.341 . S
C2040 C574 1.324 . S
C2057 C114 1.470 . S
C2076 C358 1.471 . S
C2112 C359 1.979 . S
C2093 C59 1.968 . S
C2148 C406 1.461 . S
C2129 C70 1.566 . S
C2184 C431 1.095 . S
C2165 C87 1.094 . S
C2201 C148 1.862 . S
C2220 C250 1.865 1_556 S
C2256 C214 1.372 . S
C2237 C15 1.382 . S
C2273 C32 1.419 . S
C2292 C251 1.413 . S
C2328 C180 1.936 . S
C2309 C5 1.944 . S
