# Generated by pormake.
# Topology zzz, (3,6)-cn, num edge types: 1
# Building blocks:
#     Node 0, Type 0, BuildingBlock: ESEHIV_clean_linker_0, # of connection points: 3
#     Node 1, Type 0, BuildingBlock: ESEHIV_clean_linker_0, # of connection points: 3
#     Node 2, Type 0, BuildingBlock: ESEHIV_clean_linker_0, # of connection points: 3
#     Node 3, Type 0, BuildingBlock: ESEHIV_clean_linker_0, # of connection points: 3
#     Node 4, Type 0, BuildingBlock: ESEHIV_clean_linker_0, # of connection points: 3
#     Node 5, Type 0, BuildingBlock: ESEHIV_clean_linker_0, # of connection points: 3
#     Node 6, Type 0, BuildingBlock: ESEHIV_clean_linker_0, # of connection points: 3
#     Node 7, Type 0, BuildingBlock: ESEHIV_clean_linker_0, # of connection points: 3
#     Node 8, Type 1, BuildingBlock: KUMBUR_clean_sbu_0, # of connection points: 6
#     Node 9, Type 1, BuildingBlock: KUMBUR_clean_sbu_0, # of connection points: 6
#     Node 10, Type 1, BuildingBlock: KUMBUR_clean_sbu_0, # of connection points: 6
#     Node 11, Type 1, BuildingBlock: KUMBUR_clean_sbu_0, # of connection points: 6
#     Edge 12, Type (0, 1), BuildingBlock: CIFDUS_clean_linker_0, # of connection points: 2
#     Edge 13, Type (0, 1), BuildingBlock: CIFDUS_clean_linker_0, # of connection points: 2
#     Edge 14, Type (0, 1), BuildingBlock: CIFDUS_clean_linker_0, # of connection points: 2
#     Edge 15, Type (0, 1), BuildingBlock: CIFDUS_clean_linker_0, # of connection points: 2
#     Edge 16, Type (0, 1), BuildingBlock: CIFDUS_clean_linker_0, # of connection points: 2
#     Edge 17, Type (0, 1), BuildingBlock: CIFDUS_clean_linker_0, # of connection points: 2
#     Edge 18, Type (0, 1), BuildingBlock: CIFDUS_clean_linker_0, # of connection points: 2
#     Edge 19, Type (0, 1), BuildingBlock: CIFDUS_clean_linker_0, # of connection points: 2
#     Edge 20, Type (0, 1), BuildingBlock: CIFDUS_clean_linker_0, # of connection points: 2
#     Edge 21, Type (0, 1), BuildingBlock: CIFDUS_clean_linker_0, # of connection points: 2
#     Edge 22, Type (0, 1), BuildingBlock: CIFDUS_clean_linker_0, # of connection points: 2
#     Edge 23, Type (0, 1), BuildingBlock: CIFDUS_clean_linker_0, # of connection points: 2
#     Edge 24, Type (0, 1), BuildingBlock: CIFDUS_clean_linker_0, # of connection points: 2
#     Edge 25, Type (0, 1), BuildingBlock: CIFDUS_clean_linker_0, # of connection points: 2
#     Edge 26, Type (0, 1), BuildingBlock: CIFDUS_clean_linker_0, # of connection points: 2
#     Edge 27, Type (0, 1), BuildingBlock: CIFDUS_clean_linker_0, # of connection points: 2
#     Edge 28, Type (0, 1), BuildingBlock: CIFDUS_clean_linker_0, # of connection points: 2
#     Edge 29, Type (0, 1), BuildingBlock: CIFDUS_clean_linker_0, # of connection points: 2
#     Edge 30, Type (0, 1), BuildingBlock: CIFDUS_clean_linker_0, # of connection points: 2
#     Edge 31, Type (0, 1), BuildingBlock: CIFDUS_clean_linker_0, # of connection points: 2
#     Edge 32, Type (0, 1), BuildingBlock: CIFDUS_clean_linker_0, # of connection points: 2
#     Edge 33, Type (0, 1), BuildingBlock: CIFDUS_clean_linker_0, # of connection points: 2
#     Edge 34, Type (0, 1), BuildingBlock: CIFDUS_clean_linker_0, # of connection points: 2
#     Edge 35, Type (0, 1), BuildingBlock: CIFDUS_clean_linker_0, # of connection points: 2
# Relax obj value: 0.369
# Max RMSD: 0.223
# Mean RMSD: 0.215
data_MOF--net-zzz--node1-KUMBUR_clean_sbu_0--node2-ESEHIV_clean_linker_0--edge1-CIFDUS_clean_linker_0
_symmetry_space_group_name_H-M    P1
_symmetry_Int_Tables_number       1
_symmetry_cell_setting            triclinic
loop_
_symmetry_equiv_pos_as_xyz
'x, y, z'
_cell_length_a     37.407104
_cell_length_b     37.389761
_cell_length_c     13.256707
_cell_angle_alpha  91.7348
_cell_angle_beta   89.70836
_cell_angle_gamma 89.809234
loop_
_atom_site_label
_atom_site_type_symbol
_atom_site_fract_x
_atom_site_fract_y
_atom_site_fract_z
_atom_type_partial_charge
H0 H 0.81612 0.60925 0.34923 0.0
H1 H 0.73354 0.61842 0.13336 0.0
H2 H 0.73534 0.52835 0.33291 0.0
C3 C 0.79121 0.59967 0.31721 0.0
C4 C 0.77748 0.5677 0.35307 0.0
C5 C 0.779 0.61363 0.22688 0.0
C6 C 0.74477 0.60362 0.19437 0.0
C7 C 0.72795 0.57244 0.22959 0.0
C8 C 0.74542 0.55385 0.30899 0.0
H9 H 0.07423 0.83545 0.24109 0.0
H10 H 0.07456 0.73795 0.06835 0.0
H11 H 0.99837 0.75321 0.31326 0.0
C12 C 0.06424 0.80841 0.23186 0.0
C13 C 0.03685 0.79655 0.29546 0.0
C14 C 0.07898 0.7869 0.15446 0.0
C15 C 0.06371 0.75379 0.13128 0.0
C16 C 0.03403 0.74134 0.18536 0.0
C17 C 0.02054 0.76285 0.26903 0.0
H18 H 0.69294 0.9985 0.18568 0.0
H19 H 0.79223 0.98678 0.02877 0.0
H20 H 0.79139 0.99551 0.35445 0.0
C21 C 0.72163 0.99414 0.18838 0.0
C22 C 0.73898 0.9949 0.28204 0.0
C23 C 0.74105 0.99232 0.0982 0.0
C24 C 0.77791 0.98769 0.10027 0.0
C25 C 0.79698 0.98829 0.19093 0.0
C26 C 0.7773 0.99296 0.28348 0.0
H27 H 0.6058 0.73089 0.30174 0.0
H28 H 0.51937 0.80656 0.306 0.0
H29 H 0.60987 0.82018 0.10712 0.0
C30 C 0.59514 0.75624 0.27819 0.0
C31 C 0.61166 0.77391 0.19818 0.0
C32 C 0.56224 0.76746 0.31967 0.0
C33 C 0.54561 0.79831 0.27921 0.0
C34 C 0.56353 0.81859 0.20433 0.0
C35 C 0.59696 0.80635 0.16798 0.0
H36 H 0.23643 0.43737 0.10574 0.0
H37 H 0.3271 0.43017 0.29774 0.0
H38 H 0.31117 0.52379 0.11762 0.0
C39 C 0.26189 0.44772 0.13132 0.0
C40 C 0.2728 0.48084 0.09544 0.0
C41 C 0.27991 0.4305 0.2088 0.0
C42 C 0.31231 0.44497 0.2428 0.0
C43 C 0.32379 0.47928 0.21476 0.0
C44 C 0.3036 0.49723 0.1397 0.0
H45 H 0.09381 0.21337 0.11788 0.0
H46 H 0.11773 0.30968 0.28403 0.0
H47 H 1.01572 0.29675 0.13235 0.0
C48 C 0.0866 0.24017 0.14382 0.0
C49 C 0.05378 0.25366 0.11253 0.0
C50 C 0.10836 0.25899 0.21296 0.0
C51 C 0.0986 0.29434 0.24063 0.0
C52 C 0.06426 0.30848 0.21976 0.0
C53 C 0.04209 0.2876 0.1523 0.0
H54 H 0.29542 0.11674 1.00746 0.0
H55 H 0.20878 0.12683 0.21493 0.0
H56 H 0.24348 0.02191 0.11051 0.0
C57 C 0.27438 0.10439 0.05033 0.0
C58 C 0.27183 0.06689 0.04685 0.0
C59 C 0.25713 0.1247 0.12738 0.0
C60 C 0.22615 0.10984 0.16876 0.0
C61 C 0.22091 0.07251 0.1668 0.0
C62 C 0.24501 0.05077 0.10757 0.0
H63 H 0.42965 0.33417 0.11624 0.0
H64 H 0.48962 0.23793 0.05786 0.0
H65 H 0.41548 0.2459 0.30994 0.0
C66 C 0.43484 0.30655 0.13425 0.0
C67 C 0.41881 0.29177 0.21944 0.0
C68 C 0.46034 0.28798 0.07585 0.0
C69 C 0.46955 0.25238 0.10191 0.0
C70 C 0.45262 0.23597 0.18604 0.0
C71 C 0.42719 0.25642 0.24236 0.0
Tb72 Tb 0.05531 1.01725 0.81466 0.0
C73 C 0.91622 0.98333 0.59644 0.0
C74 C 0.92907 0.94066 0.46079 0.0
C75 C 0.87035 0.94147 0.53989 0.0
C76 C 0.93988 0.96871 0.52737 0.0
C77 C 0.88091 0.97039 0.6028 0.0
C78 C 0.89441 0.92665 0.46875 0.0
C79 C 0.86819 1.01785 0.72519 0.0
N80 N 0.92735 1.01163 0.65389 0.0
C81 C 0.90328 0.03004 0.7146 0.0
C82 C 0.85703 0.98764 0.66978 0.0
Tb83 Tb 0.98569 0.03006 0.63324 0.0
N84 N 0.97293 0.9833 0.52191 0.0
C85 C 0.99601 0.97186 0.44708 0.0
C86 C 0.95308 0.92817 0.38668 0.0
C87 C 0.98662 0.944 0.3795 0.0
H88 H 0.91151 0.05345 0.758 0.0
H89 H 1.00542 0.93451 0.32242 0.0
H90 H 0.88572 0.90492 0.41887 0.0
H91 H 0.84974 0.03189 0.77569 0.0
H92 H 0.02207 0.98342 0.43919 0.0
H93 H 0.0312 0.93788 0.14305 0.0
H94 H 0.9459 0.90664 0.3342 0.0
H95 H 0.08942 0.09941 0.79559 0.0
H96 H 0.03799 0.94832 0.96219 0.0
H97 H 0.10793 0.14887 0.90894 0.0
H98 H 0.84342 0.931 0.54387 0.0
H99 H 0.04023 0.98761 0.26772 0.0
H100 H 0.05458 0.0525 0.30241 0.0
H101 H 0.82973 0.97845 0.67722 0.0
H102 H 0.07891 0.10873 0.23972 0.0
N103 N 0.05037 1.0038 0.98236 0.0
C104 C 0.04227 0.97034 1.01496 0.0
C105 C 0.04315 0.99234 0.18815 0.0
C106 C 0.05321 0.02595 0.15492 0.0
C107 C 0.03821 0.96424 0.11797 0.0
C108 C 0.0575 0.03056 0.05053 0.0
H109 H 0.10063 0.14427 0.09358 0.0
N110 N 0.07235 0.06578 0.91395 0.0
C111 C 0.09715 0.1247 0.93997 0.0
C112 C 0.06959 0.06247 1.0151 0.0
C113 C 0.08654 0.09634 0.87574 0.0
C114 C 0.09308 0.12201 0.04408 0.0
C115 C 0.07893 0.0907 0.0829 0.0
O116 O 0.09216 0.97501 0.79701 0.0
O117 O 0.02711 0.99533 0.68304 0.0
O118 O 0.965 1.00132 0.76592 0.0
O119 O 1.00394 1.01622 0.89873 0.0
O120 O 0.04018 0.96055 0.78807 0.0
O121 O 0.11024 0.02916 0.80132 0.0
O122 O 0.95201 0.06992 0.5782 0.0
O123 O 0.01988 0.05452 0.74715 0.0
O124 O 0.0718 0.05057 0.68858 0.0
O125 O 0.03922 0.02621 0.55857 0.0
O126 O 0.97166 0.07779 0.72873 0.0
O127 O 0.99948 0.05447 0.49702 0.0
C128 C 0.02445 0.96243 0.70225 0.0
C129 C 0.15148 0.98531 0.85401 0.0
C130 C 0.18436 0.93919 0.94143 0.0
C131 C 0.15304 0.95146 0.89581 0.0
C132 C 0.21424 0.96168 0.948 0.0
C133 C 0.18181 1.00734 0.85906 0.0
C134 C 0.21295 0.99556 0.90608 0.0
C135 C 0.97249 1.00481 0.8641 0.0
C136 C 0.11981 0.99587 0.7959 0.0
C137 C 0.07315 0.08697 0.18673 0.0
C138 C 0.05959 0.05485 0.22247 0.0
C139 C 1.00012 0.07983 0.78117 0.0
C140 C 0.98544 0.11634 0.51238 0.0
C141 C 0.0217 0.12632 0.51874 0.0
C142 C 0.0312 0.16245 0.53344 0.0
C143 C 1.00378 0.18839 0.54204 0.0
C144 C 0.9588 0.14278 0.51992 0.0
C145 C 0.96798 0.17855 0.53527 0.0
C146 C 0.06908 0.04127 0.59209 0.0
C147 C 0.97455 0.07851 0.50854 0.0
H148 H 0.12969 0.93436 0.8928 0.0
H149 H 0.23852 0.95291 0.98405 0.0
H150 H 0.18165 0.03337 0.82529 0.0
H151 H 0.23627 1.01255 0.90875 0.0
H152 H 0.04248 0.10618 0.51288 0.0
H153 H 1.00989 0.21661 0.55033 0.0
H154 H 0.93078 0.13563 0.516 0.0
H155 H 0.94726 0.19879 0.54125 0.0
Tb156 Tb 0.52045 0.05933 0.74583 0.0
C157 C 0.53286 0.91162 0.53417 0.0
C158 C 0.57298 0.9227 0.39561 0.0
C159 C 0.56951 0.86315 0.46319 0.0
C160 C 0.54721 0.93481 0.46715 0.0
C161 C 0.54319 0.87526 0.53206 0.0
C162 C 0.58445 0.88688 0.39512 0.0
C163 C 0.49934 0.86529 0.66208 0.0
N164 N 0.50793 0.92457 0.59991 0.0
C165 C 0.48999 0.90153 0.66076 0.0
C166 C 0.52637 0.85213 0.5981 0.0
Tb167 Tb 0.49347 0.9845 0.59402 0.0
N168 N 0.53599 0.96934 0.47243 0.0
C169 C 0.54905 0.99303 0.40442 0.0
C170 C 0.5867 0.94703 0.32766 0.0
C171 C 0.57458 0.9823 0.33196 0.0
H172 H 0.46888 0.91133 0.71029 0.0
H173 H 0.58533 1.00141 0.2803 0.0
H174 H 0.6047 0.87721 0.34224 0.0
H175 H 0.48561 0.84755 0.71223 0.0
H176 H 0.54118 0.02073 0.40666 0.0
H177 H 0.60153 0.04001 0.07938 0.0
H178 H 0.60675 0.93895 0.27222 0.0
H179 H 0.45107 0.11779 0.73077 0.0
H180 H 0.59151 0.04657 0.89843 0.0
H181 H 0.4034 0.14028 0.8419 0.0
H182 H 0.57823 0.83547 0.46136 0.0
H183 H 0.55155 0.04918 0.20062 0.0
H184 H 0.48776 0.06719 0.23125 0.0
H185 H 0.53351 0.82402 0.5988 0.0
H186 H 0.43439 0.09716 0.16763 0.0
N187 N 0.53563 0.05818 0.91417 0.0
C188 C 0.56933 0.05104 0.94936 0.0
C189 C 0.54693 0.0519 0.12063 0.0
C190 C 0.51352 0.06246 0.0852 0.0
C191 C 0.57521 0.04703 0.05256 0.0
C192 C 0.50887 0.06604 0.98057 0.0
H193 H 0.40277 0.12549 1.02171 0.0
N194 N 0.47614 0.08626 0.84309 0.0
C195 C 0.4238 0.12288 0.87122 0.0
C196 C 0.47793 0.08071 0.94362 0.0
C197 C 0.45088 0.10928 0.80764 0.0
C198 C 0.42343 0.1143 0.97277 0.0
C199 C 0.45126 0.09376 1.01091 0.0
O200 O 0.54039 0.09293 0.6349 0.0
O201 O 0.53641 0.02152 0.62604 0.0
O202 O 0.5215 0.96185 0.72394 0.0
O203 O 0.52492 1.0107 0.83838 0.0
O204 O 0.57397 0.03575 0.72917 0.0
O205 O 0.54257 0.10958 0.78908 0.0
O206 O 0.4457 0.95587 0.57387 0.0
O207 O 0.47559 0.02757 0.69788 0.0
O208 O 0.47961 0.0743 0.63555 0.0
O209 O 0.492 0.03431 0.50577 0.0
O210 O 0.45564 0.97857 0.72096 0.0
O211 O 0.4641 0.99044 0.45987 0.0
C212 C 0.5687 1.0156 0.65089 0.0
C213 C 0.58938 0.12669 0.67923 0.0
C214 C 0.65182 0.10931 0.69345 0.0
C215 C 0.6164 0.10847 0.72836 0.0
C216 C 0.66067 0.13177 0.61415 0.0
C217 C 0.59827 0.14871 0.59912 0.0
C218 C 0.63394 0.15172 0.56803 0.0
C219 C 0.52698 0.97579 0.81589 0.0
C220 C 0.55201 0.11703 0.69769 0.0
C221 C 0.45452 0.08773 0.11455 0.0
C222 C 0.48529 0.07133 0.15126 0.0
C223 C 0.45418 1.01108 0.75419 0.0
C224 C 0.40171 0.9903 0.49658 0.0
C225 C 0.39592 0.02254 0.44729 0.0
C226 C 0.36236 0.03983 0.45195 0.0
C227 C 0.33479 0.02445 0.50882 0.0
C228 C 0.37363 0.97553 0.55231 0.0
C229 C 0.34055 0.9927 0.55894 0.0
C230 C 0.48131 0.06646 0.53782 0.0
C231 C 0.43711 0.97249 0.49344 0.0
H232 H 0.60948 0.09224 0.7916 0.0
H233 H 0.68787 0.13315 0.5862 0.0
H234 H 0.57756 0.16253 0.55859 0.0
H235 H 0.64067 0.16853 0.50571 0.0
H236 H 0.41766 0.03415 0.40544 0.0
H237 H 0.30831 0.03616 0.51234 0.0
H238 H 0.37731 0.95076 0.59137 0.0
H239 H 0.3191 0.98109 0.60205 0.0
Tb240 Tb 0.56192 0.51554 0.63704 0.0
C241 C 0.41385 0.50627 0.83387 0.0
C242 C 0.37192 0.53421 0.72216 0.0
C243 C 0.35149 0.4878 0.8328 0.0
C244 C 0.40695 0.53077 0.76039 0.0
C245 C 0.38613 0.48481 0.87182 0.0
C246 C 0.34442 0.5124 0.75799 0.0
C247 C 0.42837 0.46017 0.98788 0.0
N248 N 0.44752 0.50424 0.87059 0.0
C249 C 0.4546 0.48283 0.95068 0.0
C250 C 0.39392 0.4612 0.94859 0.0
Tb251 Tb 0.4894 0.54112 0.80021 0.0
N252 N 0.43432 0.55138 0.72702 0.0
C253 C 0.42727 0.57742 0.65889 0.0
C254 C 0.36538 0.55963 0.64952 0.0
C255 C 0.39311 0.58146 0.61842 0.0
H256 H 0.48106 0.48211 0.98288 0.0
H257 H 0.38821 0.60157 0.56304 0.0
H258 H 0.31748 0.51464 0.7291 0.0
H259 H 0.43484 0.44171 0.04621 0.0
H260 H 0.44739 0.59519 0.63212 0.0
H261 H 0.66422 0.45718 0.87355 0.0
H262 H 0.33895 0.56292 0.61792 0.0
H263 H 0.56909 0.57379 0.45183 0.0
H264 H 0.60508 0.46156 0.80159 0.0
H265 H 0.61455 0.61509 0.38798 0.0
H266 H 0.3299 0.4715 0.86079 0.0
H267 H 0.71206 0.49841 0.82343 0.0
H268 H 0.7319 0.54866 0.71663 0.0
H269 H 0.37349 0.44399 0.97879 0.0
H270 H 0.71847 0.5916 0.58488 0.0
N271 N 0.61693 0.50678 0.71101 0.0
C272 C 0.62465 0.48046 0.77759 0.0
C273 C 0.6857 0.50077 0.79072 0.0
C274 C 0.6785 0.52637 0.71897 0.0
C275 C 0.65876 0.47752 0.81926 0.0
C276 C 0.64361 0.52852 0.67914 0.0
H277 H 0.6751 0.61613 0.46114 0.0
N278 N 0.60269 0.55353 0.56681 0.0
C279 C 0.62108 0.5975 0.44839 0.0
C280 C 0.63616 0.55284 0.60544 0.0
C281 C 0.59536 0.57421 0.48539 0.0
C282 C 0.65512 0.59826 0.49066 0.0
C283 C 0.66321 0.57541 0.56905 0.0
O284 O 0.58587 0.4997 0.49912 0.0
O285 O 0.5043 0.51856 0.65464 0.0
O286 O 0.49014 0.4821 0.78002 0.0
O287 O 0.54979 0.47154 0.74117 0.0
O288 O 0.5236 0.53043 0.5175 0.0
O289 O 0.55852 0.46146 0.58859 0.0
O290 O 0.46741 0.5571 0.94073 0.0
O291 O 0.54713 0.53785 0.78338 0.0
O292 O 0.56122 0.57411 0.65905 0.0
O293 O 0.50172 0.58579 0.69691 0.0
O294 O 0.52724 0.52501 0.9193 0.0
O295 O 0.49494 0.59486 0.85013 0.0
C296 C 0.49444 0.52681 0.56744 0.0
C297 C 0.55085 0.45827 0.41113 0.0
C298 C 0.49316 0.44526 0.33357 0.0
C299 C 0.51409 0.45158 0.41977 0.0
C300 C 0.5095 0.44695 0.23768 0.0
C301 C 0.56672 0.45895 0.31526 0.0
C302 C 0.54602 0.45375 0.22892 0.0
C303 C 0.51856 0.46088 0.77778 0.0
C304 C 0.57217 0.46797 0.50053 0.0
C305 C 0.69752 0.57413 0.61094 0.0
C306 C 0.70516 0.54967 0.68578 0.0
C307 C 0.55662 0.52924 0.87086 0.0
C308 C 0.50562 0.59663 0.02678 0.0
C309 C 0.5415 0.60667 1.01372 0.0
C310 C 0.56388 0.61298 0.09747 0.0
C311 C 0.54984 0.6074 0.19481 0.0
C312 C 0.49229 0.59196 0.12443 0.0
C313 C 0.51444 0.59687 0.2078 0.0
C314 C 0.53316 0.59577 0.65975 0.0
C315 C 0.48252 0.58821 0.93947 0.0
H316 H 0.50179 0.45103 0.49381 0.0
H317 H 0.49458 0.44125 0.16929 0.0
H318 H 0.59508 0.46391 0.30752 0.0
H319 H 0.55842 0.45433 0.15504 0.0
H320 H 0.55189 0.60973 0.93816 0.0
H321 H 0.56543 0.61291 0.26191 0.0
H322 H 0.46478 0.58419 0.13583 0.0
H323 H 0.50393 0.5933 0.28304 0.0
Tb324 Tb 0.04553 0.55591 0.63133 0.0
C325 C 0.98108 0.41955 0.7237 0.0
C326 C 0.91678 0.42106 0.74713 0.0
C327 C 0.94498 0.3687 0.66788 0.0
C328 C 0.95053 0.43752 0.75539 0.0
C329 C 0.97872 0.38412 0.68452 0.0
C330 C 0.91401 0.38718 0.69917 0.0
C331 C 0.04252 0.379 0.7034 0.0
N332 N 1.0132 0.435 0.74386 0.0
C333 C 0.04341 0.41423 0.74223 0.0
C334 C 1.01022 0.36434 0.67067 0.0
Tb335 Tb 1.0111 0.49372 0.80083 0.0
N336 N 0.95439 0.47004 0.80256 0.0
C337 C 0.92623 0.48509 0.8554 0.0
C338 C 0.88721 0.43828 0.79207 0.0
C339 C 0.89214 0.46998 0.84866 0.0
H340 H 0.06859 0.42439 0.76931 0.0
H341 H 0.86972 0.48275 0.88724 0.0
H342 H 0.88825 0.3743 0.69056 0.0
H343 H 0.06681 0.3632 0.6988 0.0
H344 H 0.92971 0.50946 0.89943 0.0
H345 H 0.12447 0.65213 0.85177 0.0
H346 H 0.86082 0.4265 0.78756 0.0
H347 H 0.99734 0.58125 0.43214 0.0
H348 H 0.11561 0.59745 0.74911 0.0
H349 H 0.95611 0.63073 0.39275 0.0
H350 H 0.94265 0.34177 0.63611 0.0
H351 H 0.07699 0.69829 0.86354 0.0
H352 H 1.01856 0.72129 0.79717 0.0
H353 H 1.00962 0.33701 0.64111 0.0
H354 H 0.97154 0.71546 0.66832 0.0
N355 N 0.06121 0.60943 0.7121 0.0
C356 C 0.09363 0.6161 0.7567 0.0
C357 C 0.07245 0.67371 0.82013 0.0
C358 C 0.04137 0.66886 0.76342 0.0
C359 C 0.09928 0.64773 0.81363 0.0
C360 C 0.03687 0.63629 0.7084 0.0
H361 H 0.9489 0.68218 0.51305 0.0
N362 N 1.01105 0.60314 0.57716 0.0
C363 C 0.97074 0.63143 0.46287 0.0
C364 C 1.01046 0.63293 0.6376 0.0
C365 C 0.99415 0.60354 0.48535 0.0
C366 C 0.96661 0.66034 0.53124 0.0
C367 C 0.9878 0.66209 0.6179 0.0
O368 O 0.06714 0.57846 0.50019 0.0
O369 O 0.03848 0.49896 0.65783 0.0
O370 O 0.06938 0.48639 0.78161 0.0
O371 O 0.08528 0.54417 0.75017 0.0
O372 O 0.02473 0.51645 0.51953 0.0
O373 O 0.09608 0.539 0.57852 0.0
O374 O 0.0308 0.50935 0.94464 0.0
O375 O 0.02909 0.54828 0.78385 0.0
O376 O 0.98676 0.55323 0.61065 0.0
O377 O 0.96555 0.50548 0.70152 0.0
O378 O 0.98217 0.54234 0.85569 0.0
O379 O 1.01004 0.45719 0.91895 0.0
C380 C 0.02754 0.48809 0.57158 0.0
C381 C 0.09511 0.53257 0.4009 0.0
C382 C 0.11294 0.47571 0.31678 0.0
C383 C 0.11001 0.49807 0.40405 0.0
C384 C 0.09835 0.48829 0.22625 0.0
C385 C 0.0811 0.54432 0.30963 0.0
C386 C 0.0823 0.52205 0.22335 0.0
C387 C 0.09328 0.51242 0.78546 0.0
C388 C 0.0929 0.5553 0.49431 0.0
C389 C 0.98931 0.69307 0.68044 0.0
C390 C 1.01612 0.69642 0.75364 0.0
C391 C 1.0052 0.56614 0.83118 0.0
C392 C 0.99146 0.48728 0.06682 0.0
C393 C 0.97547 0.52127 0.08092 0.0
C394 C 0.94174 0.52453 0.12588 0.0
C395 C 0.92524 0.4941 0.16444 0.0
C396 C 0.97568 0.45757 0.1112 0.0
C397 C 0.94283 0.46113 0.16082 0.0
C398 C 0.96083 0.53119 0.63683 0.0
C399 C 1.01846 0.48124 0.98683 0.0
H400 H 0.11948 0.489 0.47559 0.0
H401 H 0.10047 0.47304 0.1559 0.0
H402 H 0.06903 0.5706 0.30502 0.0
H403 H 0.0715 0.53133 0.15311 0.0
H404 H 0.98743 0.5447 0.04903 0.0
H405 H 0.89848 0.49569 0.19581 0.0
H406 H 0.98747 0.43119 0.10103 0.0
H407 H 0.93003 0.43787 0.19135 0.0
H408 H 0.20577 0.09563 0.35974 0.0
H409 H 0.17313 1.01614 0.13662 0.0
H410 H 0.12404 0.99823 0.2487 0.0
H411 H 0.08782 1.00816 0.40822 0.0
H412 H 0.11996 0.09195 0.61948 0.0
H413 H 0.1706 0.106 0.51227 0.0
C414 C 0.18768 0.07473 0.33388 0.0
C415 C 0.19306 0.05791 0.23781 0.0
C416 C 0.15877 0.06572 0.39658 0.0
C417 C 0.16996 0.02973 0.20946 0.0
C418 C 0.14157 1.01973 0.27344 0.0
C419 C 0.10577 0.02968 0.4302 0.0
C420 C 0.09954 0.04921 0.52207 0.0
C421 C 0.13521 0.03805 0.36665 0.0
C422 C 0.12372 0.07644 0.54989 0.0
C423 C 0.15285 0.08455 0.48833 0.0
H424 H 0.40998 0.18784 0.28479 0.0
H425 H 0.51826 0.20016 0.17713 0.0
H426 H 0.53603 0.14683 0.26812 0.0
H427 H 0.52215 0.10019 0.39543 0.0
H428 H 0.41638 0.09759 0.52476 0.0
H429 H 0.39721 0.14534 0.41527 0.0
C430 C 0.43783 0.17979 0.28229 0.0
C431 C 0.46279 0.19948 0.22532 0.0
C432 C 0.44855 0.15097 0.34146 0.0
C433 C 0.49812 0.18622 0.21952 0.0
C434 C 0.50851 0.15586 0.27325 0.0
C435 C 0.49477 0.10979 0.39818 0.0
C436 C 0.47022 0.09426 0.4656 0.0
C437 C 0.48419 0.13858 0.33704 0.0
C438 C 0.43536 0.10808 0.4714 0.0
C439 C 0.42443 0.1355 0.40881 0.0
H440 H 0.34447 0.46994 0.41223 0.0
H441 H 0.375 0.52706 0.14692 0.0
H442 H 0.42823 0.54926 0.23566 0.0
H443 H 0.46904 0.54879 0.38492 0.0
H444 H 0.44289 0.48093 0.63125 0.0
H445 H 0.38614 0.46544 0.55189 0.0
C446 C 0.36288 0.48657 0.37149 0.0
C447 C 0.35535 0.49591 0.27063 0.0
C448 C 0.39463 0.49744 0.42044 0.0
C449 C 0.37938 0.51924 0.22385 0.0
C450 C 0.41022 0.53175 0.2745 0.0
C451 C 0.45065 0.53098 0.4217 0.0
C452 C 0.45948 0.51778 0.51761 0.0
C453 C 0.41854 0.52053 0.37226 0.0
C454 C 0.43608 0.49325 0.56112 0.0
C455 C 0.40367 0.48404 0.51489 0.0
H456 H 0.09383 0.34453 0.38937 0.0
H457 H 1.00492 0.3528 0.18291 0.0
H458 H 0.98437 0.40584 0.27754 0.0
H459 H 0.99261 0.45241 0.41591 0.0
H460 H 0.08719 0.44769 0.59877 0.0
H461 H 0.10538 0.39216 0.51147 0.0
C462 C 0.07069 0.35784 0.35987 0.0
C463 C 0.05182 0.34324 0.27492 0.0
C464 C 0.05981 0.38978 0.41128 0.0
C465 C 0.02063 0.36191 0.24675 0.0
C466 C 1.0088 0.39295 0.30074 0.0
C467 C 1.01692 0.43883 0.43759 0.0
C468 C 0.03725 0.45311 0.51932 0.0
C469 C 0.02821 0.40731 0.38312 0.0
C470 C 0.06976 0.43627 0.54145 0.0
C471 C 0.08045 0.40465 0.49023 0.0
H472 H 0.8375 0.94085 0.08176 0.0
H473 H 0.84631 0.03792 0.2626 0.0
H474 H 0.90492 0.04969 0.18556 0.0
H475 H 0.9486 0.0376 0.04362 0.0
H476 H 0.9322 0.94525 0.84677 0.0
H477 H 0.88179 0.92696 0.95032 0.0
C478 C 0.85275 0.96407 0.10688 0.0
C479 C 0.83716 0.98839 0.17849 0.0
C480 C 0.8848 0.97219 0.05583 0.0
C481 C 0.85747 1.01839 0.20918 0.0
C482 C 0.89077 0.02551 0.16314 0.0
C483 C 0.93435 1.01319 1.02452 0.0
C484 C 0.94442 0.9928 0.93689 0.0
C485 C 0.90393 1.00351 0.0827 0.0
C486 C 0.92517 0.96149 0.91307 0.0
C487 C 0.89627 0.95096 0.97258 0.0
H488 H 0.59471 0.8824 0.15896 0.0
H489 H 0.49638 0.82396 0.12138 0.0
H490 H 0.47607 0.86728 0.99823 0.0
H491 H 0.48871 0.91927 0.88916 0.0
H492 H 0.58725 0.97705 0.92956 0.0
H493 H 0.60491 0.93691 0.06303 0.0
C494 C 0.56838 0.87956 0.12601 0.0
C495 C 0.54711 0.84972 0.15069 0.0
C496 C 0.55718 0.9043 0.05383 0.0
C497 C 0.5132 0.84668 0.10582 0.0
C498 C 0.50179 0.87127 0.03396 0.0
C499 C 0.51407 0.92296 0.92712 0.0
C500 C 0.5368 0.95114 0.89847 0.0
C501 C 0.52398 0.89965 1.00509 0.0
C502 C 0.56919 0.95591 0.95014 0.0
C503 C 0.57934 0.93279 1.02648 0.0
H504 H 0.7069 0.58282 0.0309 0.0
H505 H 0.67266 0.52966 0.29994 0.0
H506 H 0.61858 0.50982 0.21123 0.0
H507 H 0.57967 0.50882 0.05758 0.0
H508 H 0.60871 0.57532 0.81094 0.0
H509 H 0.66536 0.58981 0.89256 0.0
C510 C 0.68759 0.56791 0.07341 0.0
C511 C 0.69468 0.55859 0.17476 0.0
C512 C 0.65541 0.55839 1.02443 0.0
C513 C 0.66899 0.53724 0.22252 0.0
C514 C 0.63767 0.52599 0.17177 0.0
C515 C 0.59867 0.52611 1.02119 0.0
C516 C 0.59103 0.53861 0.92355 0.0
C517 C 0.63046 0.53647 0.07262 0.0
C518 C 0.61494 0.56295 0.88143 0.0
C519 C 0.6472 0.57173 0.92923 0.0
H520 H 0.06857 0.67785 0.1528 0.0
H521 H 0.9652 0.72702 0.12097 0.0
H522 H 0.94627 0.67672 1.00987 0.0
H523 H 0.96193 0.62153 0.90497 0.0
H524 H 0.06697 0.57543 0.93547 0.0
H525 H 0.08234 0.62139 0.06161 0.0
C526 C 0.0415 0.67718 0.12378 0.0
C527 C 1.01835 0.7064 0.14637 0.0
C528 C 0.03146 0.64902 0.05633 0.0
C529 C 0.98349 0.70489 0.10694 0.0
C530 C 0.9729 0.67632 0.0416 0.0
C531 C 0.98824 0.62179 0.93884 0.0
C532 C 1.01378 0.59568 0.90679 0.0
C533 C 0.99711 0.64881 1.01258 0.0
C534 C 0.04724 0.59577 0.95479 0.0
C535 C 0.05595 0.62194 0.02826 0.0
H536 H 0.13082 0.27333 0.41016 0.0
H537 H 0.14899 0.19593 0.16957 0.0
H538 H 0.13167 0.14779 0.27982 0.0
H539 H 0.08416 0.1362 0.40787 0.0
H540 H 0.06473 0.21538 0.64523 0.0
H541 H 0.10949 0.25423 0.57381 0.0
C542 C 0.13234 0.24589 0.38182 0.0
C543 C 0.13392 0.23835 0.27703 0.0
C544 C 0.12026 0.21893 0.44465 0.0
C545 C 0.14231 0.20269 0.24744 0.0
C546 C 0.13194 0.17503 0.31009 0.0
C547 C 0.09094 0.16106 0.44719 0.0
C548 C 0.06905 0.17436 0.52672 0.0
C549 C 0.11612 0.18382 0.40382 0.0
C550 C 0.07967 0.20564 0.57996 0.0
C551 C 0.10536 0.22795 0.53909 0.0
H552 H 0.32943 0.14647 0.11088 0.0
H553 H 0.24033 0.1676 0.30621 0.0
H554 H 0.27342 0.14369 0.44804 0.0
H555 H 0.31657 0.09618 0.49552 0.0
H556 H 0.39121 0.05586 0.26826 0.0
H557 H 0.37289 0.10223 0.15671 0.0
C558 C 0.31667 0.14512 0.18416 0.0
C559 C 0.2794 0.14985 0.19311 0.0
C560 C 0.33314 0.12488 0.25801 0.0
C561 C 0.26713 0.1575 0.29262 0.0
C562 C 0.28574 0.14309 0.37385 0.0
C563 C 0.32927 0.09767 0.42214 0.0
C564 C 0.35522 0.07202 0.39119 0.0
C565 C 0.31687 0.12285 0.35394 0.0
C566 C 0.37178 0.07528 0.29622 0.0
C567 C 0.36154 0.10211 0.23174 0.0
H568 H 0.37493 0.35024 0.19065 0.0
H569 H 0.42141 0.29003 0.42883 0.0
H570 H 0.43911 0.34464 0.5159 0.0
H571 H 0.46808 0.40047 0.47519 0.0
H572 H 0.43459 0.45815 0.21546 0.0
H573 H 0.38732 0.41444 0.18288 0.0
C574 C 0.3878 0.34928 0.26372 0.0
C575 C 0.40123 0.31632 0.29609 0.0
C576 C 0.40281 0.38065 0.30537 0.0
C577 C 0.41357 0.31502 0.39621 0.0
C578 C 0.42451 0.3465 0.44579 0.0
C579 C 0.44943 0.40474 0.41439 0.0
C580 C 0.45633 0.43097 0.34304 0.0
C581 C 0.42382 0.37847 0.39339 0.0
C582 C 0.43114 0.43651 0.26684 0.0
C583 C 0.40393 0.41173 0.249 0.0
H584 H 0.23011 0.3778 0.15472 0.0
H585 H 0.28118 0.42443 0.41674 0.0
H586 H 0.22375 0.43478 0.49648 0.0
H587 H 0.16518 0.45672 0.45341 0.0
H588 H 0.11204 0.41607 0.18437 0.0
H589 H 0.16403 0.37893 0.14405 0.0
C590 C 0.22863 0.3888 0.23132 0.0
C591 C 0.25914 0.40556 0.2733 0.0
C592 C 0.19502 0.39848 0.27166 0.0
C593 C 0.2577 0.41485 0.37705 0.0
C594 C 0.22455 0.4216 0.42252 0.0
C595 C 0.16349 0.4391 0.3876 0.0
C596 C 0.13565 0.4424 0.31668 0.0
C597 C 0.19352 0.41805 0.36424 0.0
C598 C 0.13443 0.41703 0.23568 0.0
C599 C 0.16401 0.39514 0.21323 0.0
H600 H 0.13767 0.82147 0.22495 0.0
H601 H 0.08725 0.78467 0.9489 0.0
H602 H 0.12627 0.82308 0.85196 0.0
H603 H 0.16239 0.87749 0.85179 0.0
H604 H 0.20396 0.92147 0.13149 0.0
H605 H 0.18186 0.86962 0.22075 0.0
C606 C 0.13578 0.82139 0.14328 0.0
C607 C 0.10892 0.8012 0.09432 0.0
C608 C 0.15656 0.84526 0.08901 0.0
C609 C 0.10744 0.80025 0.98846 0.0
C610 C 0.12953 0.82248 0.9331 0.0
C611 C 0.16749 0.87505 0.93183 0.0
C612 C 0.18381 0.90347 0.98588 0.0
C613 C 0.15238 0.84671 0.98337 0.0
C614 C 0.1912 0.89996 0.08872 0.0
C615 C 0.17812 0.87057 0.13985 0.0
H616 H 0.7636 0.04529 0.98309 0.0
H617 H 0.68093 0.96569 1.00567 0.0
H618 H 0.64989 0.99133 0.86186 0.0
H619 H 0.64293 0.04075 0.74792 0.0
H620 H 0.72082 0.12556 0.7456 0.0
H621 H 0.75876 0.09211 0.85937 0.0
C622 C 0.73925 0.03299 0.95474 0.0
C623 C 0.72447 1.00364 1.00385 0.0
C624 C 0.72106 0.04871 0.87585 0.0
C625 C 0.69259 0.98831 0.9685 0.0
C626 C 0.67498 1.00294 0.88673 0.0
C627 C 0.66823 0.05191 0.77197 0.0
C628 C 0.67853 0.08609 0.74115 0.0
C629 C 0.68841 0.03387 0.84256 0.0
C630 C 0.71215 0.09948 0.76906 0.0
C631 C 0.73359 0.08056 0.83498 0.0
H632 H 0.66474 0.72424 0.24173 0.0
H633 H 0.61658 0.77487 0.98887 0.0
H634 H 0.6071 0.71741 0.90606 0.0
H635 H 0.58444 0.65904 0.95083 0.0
H636 H 0.62489 0.6076 0.214 0.0
H637 H 0.66437 0.65824 0.24842 0.0
C638 C 0.65365 0.72268 0.16626 0.0
C639 C 0.63624 0.75298 0.12862 0.0
C640 C 0.64451 0.689 0.12441 0.0
C641 C 0.62669 0.75151 1.02578 0.0
C642 C 0.62055 0.71831 0.97833 0.0
C643 C 0.60293 0.65764 1.01316 0.0
C644 C 0.59908 0.63122 0.08591 0.0
C645 C 0.62458 0.68735 0.03408 0.0
C646 C 0.625 0.6294 0.1623 0.0
C647 C 0.64793 0.6582 0.18133 0.0
H648 H 0.84351 0.65032 0.25269 0.0
H649 H 0.77964 0.59946 1.02025 0.0
H650 H 0.83189 0.56913 0.952 0.0
H651 H 0.88747 0.5393 1.002 0.0
H652 H 0.95124 0.58536 0.24156 0.0
H653 H 0.90705 0.63363 0.26743 0.0
C654 C 0.84122 0.63345 0.18505 0.0
C655 C 0.80692 0.6233 0.15052 0.0
C656 C 0.87107 0.61329 0.15186 0.0
C657 C 0.80509 0.60537 0.05542 0.0
C658 C 0.83503 0.58718 1.01688 0.0
C659 C 0.89241 0.56073 0.05691 0.0
C660 C 0.92166 0.55848 0.12207 0.0
C661 C 0.8669 0.58786 0.07178 0.0
C662 C 0.92829 0.58648 0.19223 0.0
C663 C 0.90309 0.61396 0.20689 0.0
H664 H 0.0221 0.18969 0.15211 0.0
H665 H 0.04251 0.26153 0.91086 0.0
H666 H 0.02768 0.21396 0.78667 0.0
H667 H 1.01678 0.14932 0.74587 0.0
H668 H 0.99264 0.0788 0.98694 0.0
H669 H 1.001 0.12789 0.11098 0.0
C670 C 0.02203 0.19535 0.07234 0.0
C671 C 0.0329 0.22962 0.04135 0.0
C672 C 1.01429 0.16746 1.00091 0.0
C673 C 0.03354 0.23593 0.93737 0.0
C674 C 0.02585 0.20837 0.86607 0.0
C675 C 1.01383 0.14465 0.82569 0.0
C676 C 1.00673 0.10954 0.85735 0.0
C677 C 1.0177 0.17358 0.89676 0.0
C678 C 1.00031 0.10474 0.96056 0.0
C679 C 1.00461 0.13309 0.03161 0.0
H680 H 0.30098 0.07691 0.85902 0.0
H681 H 0.31372 1.01355 0.12271 0.0
H682 H 0.3717 0.99188 0.05845 0.0
H683 H 0.42104 0.99358 0.93075 0.0
H684 H 0.40777 0.05752 0.66886 0.0
H685 H 0.34859 0.07665 0.72898 0.0
C686 C 0.3161 0.05783 0.90181 0.0
C687 C 0.3024 0.04672 0.99574 0.0
C688 C 0.35007 0.04633 0.86568 0.0
C689 C 0.32278 0.02204 0.04952 0.0
C690 C 0.3564 1.0101 1.01342 0.0
C691 C 0.40534 1.01215 0.88782 0.0
C692 C 0.41971 0.02542 0.79739 0.0
C693 C 0.37075 0.02264 0.9226 0.0
C694 C 0.39828 0.04821 0.74066 0.0
C695 C 0.3641 0.05876 0.77455 0.0
H696 H 0.51743 0.33358 0.08544 0.0
H697 H 0.43588 0.29378 0.88427 0.0
H698 H 0.44639 0.34367 0.77225 0.0
H699 H 0.4741 0.40308 0.74129 0.0
H700 H 0.55758 0.44129 0.93892 0.0
H701 H 0.55091 0.38842 0.04207 0.0
C702 C 0.50322 0.33483 1.01453 0.0
C703 C 0.47668 0.3089 0.99204 0.0
C704 C 0.50905 0.36422 0.95097 0.0
C705 C 0.45735 0.31227 0.90193 0.0
C706 C 0.46289 0.34136 0.8387 0.0
C707 C 0.49127 0.39943 0.80584 0.0
C708 C 0.5165 0.42621 0.83182 0.0
C709 C 0.48791 0.36818 0.86385 0.0
C710 C 0.53833 0.42104 0.91623 0.0
C711 C 0.53442 0.39075 0.9756 0.0
H712 H 0.24184 0.45033 0.92852 0.0
H713 H 0.24417 0.5495 0.10229 0.0
H714 H 0.19017 0.5697 1.01516 0.0
H715 H 0.13729 0.55554 0.90463 0.0
H716 H 0.13249 0.45215 0.75209 0.0
H717 H 0.19136 0.43697 0.81725 0.0
C718 C 0.23099 0.47673 0.94633 0.0
C719 C 0.24741 0.49822 1.02274 0.0
C720 C 0.19853 0.48699 0.90132 0.0
C721 C 0.23277 0.53241 0.0435 0.0
C722 C 0.20134 0.54369 0.99474 0.0
C723 C 0.14937 0.52985 0.88497 0.0
C724 C 0.13023 0.50495 0.82326 0.0
C725 C 0.18317 0.52068 0.92606 0.0
C726 C 0.14623 0.47168 0.79972 0.0
C727 C 0.18009 0.46304 0.83672 0.0
H728 H 0.08183 0.84042 0.40505 0.0
H729 H 0.97098 0.80895 0.3957 0.0
H730 H 0.95717 0.85572 0.52556 0.0
H731 H 0.9767 0.90951 0.6339 0.0
H732 H 0.08519 0.94652 0.60288 0.0
H733 H 0.09928 0.89516 0.49228 0.0
C734 C 0.05415 0.84405 0.42772 0.0
C735 C 0.02739 0.82122 0.3859 0.0
C736 C 0.04591 0.87289 0.49465 0.0
C737 C 0.99241 0.82566 0.42457 0.0
C738 C 0.98442 0.85287 0.49841 0.0
C739 C 1.00323 0.9065 0.60148 0.0
C740 C 0.02984 0.93237 0.62609 0.0
C741 C 1.01086 0.87735 0.53243 0.0
C742 C 0.06417 0.92757 0.58467 0.0
C743 C 0.07229 0.898 0.52162 0.0
H744 H 0.70221 0.94944 0.40625 0.0
H745 H 0.71883 0.06089 0.34863 0.0
H746 H 0.66577 0.07685 0.44876 0.0
H747 H 0.61168 0.059 0.5432 0.0
H748 H 0.59892 0.94914 0.62248 0.0
H749 H 0.65265 0.93256 0.52392 0.0
C750 C 0.69511 0.97734 0.41932 0.0
C751 C 0.71539 1.00401 0.37157 0.0
C752 C 0.66428 0.98647 0.47822 0.0
C753 C 0.7047 0.03991 0.38678 0.0
C754 C 0.67385 0.04902 0.44281 0.0
C755 C 0.62046 0.03135 0.53785 0.0
C756 C 0.59973 1.00489 0.58436 0.0
C757 C 0.65283 0.0225 0.48662 0.0
C758 C 0.61291 0.96963 0.58206 0.0
C759 C 0.64412 0.9603 0.52718 0.0
H760 H 0.59344 0.73986 0.48594 0.0
H761 H 0.49457 0.73717 0.32115 0.0
H762 H 0.47487 0.68559 0.41789 0.0
H763 H 0.48916 0.63617 0.53665 0.0
H764 H 0.59085 0.63804 0.68855 0.0
H765 H 0.60597 0.69408 0.60959 0.0
C766 C 0.56715 0.72857 0.47249 0.0
C767 C 0.54555 0.74292 0.39591 0.0
C768 C 0.55673 0.69794 0.52545 0.0
C769 C 0.51167 0.72748 0.38014 0.0
C770 C 0.50062 0.69746 0.43474 0.0
C771 C 0.51422 0.64932 0.55427 0.0
C772 C 0.53867 0.63271 0.61995 0.0
C773 C 0.52334 0.6817 0.50582 0.0
C774 C 0.57141 0.64997 0.63925 0.0
C775 C 0.58015 0.68216 0.59376 0.0
H776 H 0.84257 0.54312 0.30095 0.0
H777 H 0.77153 0.5514 0.55637 0.0
H778 H 0.82156 0.53802 0.66991 0.0
H779 H 0.88851 0.53173 0.69707 0.0
H780 H 0.95758 0.53144 0.43536 0.0
H781 H 0.90613 0.53637 0.32698 0.0
C782 C 0.83767 0.54082 0.38131 0.0
C783 C 0.80286 0.54758 0.4193 0.0
C784 C 0.86695 0.53599 0.44615 0.0
C785 C 0.79754 0.54547 0.52418 0.0
C786 C 0.8265 0.5385 0.58937 0.0
C787 C 0.89214 0.5321 0.61599 0.0
C788 C 0.92734 0.53173 0.57497 0.0
C789 C 0.86178 0.53493 0.55155 0.0
C790 C 0.93128 0.53249 0.46977 0.0
C791 C 0.9017 0.53458 0.40682 0.0
loop_
_geom_bond_atom_site_label_1
_geom_bond_atom_site_label_2
_geom_bond_distance
_geom_bond_site_symmetry_2
_ccdc_geom_bond_type
H0 C3 0.931 . S
H1 C6 0.928 . S
H2 C8 0.930 . S
C3 H0 0.931 . S
C3 C4 1.413 . S
C3 C5 1.360 . S
C4 C3 1.413 . S
C4 C8 1.429 . S
C5 C3 1.360 . S
C5 C6 1.372 . S
C6 H1 0.928 . S
C6 C5 1.372 . S
C6 C7 1.404 . S
C7 C6 1.404 . S
C7 C8 1.391 . S
C8 H2 0.930 . S
C8 C4 1.429 . S
C8 C7 1.391 . S
H9 C12 0.931 . S
H10 C15 0.928 . S
H11 C17 0.930 . S
C12 H9 0.931 . S
C12 C13 1.413 . S
C12 C14 1.360 . S
C13 C12 1.413 . S
C13 C17 1.429 . S
C14 C12 1.360 . S
C14 C15 1.372 . S
C15 H10 0.928 . S
C15 C14 1.372 . S
C15 C16 1.404 . S
C16 C15 1.404 . S
C16 C17 1.391 . S
C17 H11 0.930 . S
C17 C13 1.429 . S
C17 C16 1.391 . S
H18 C21 0.931 . S
H19 C24 0.928 . S
H20 C26 0.930 . S
C21 H18 0.931 . S
C21 C22 1.413 . S
C21 C23 1.360 . S
C22 C21 1.413 . S
C22 C26 1.429 . S
C23 C21 1.360 . S
C23 C24 1.372 . S
C24 H19 0.928 . S
C24 C23 1.372 . S
C24 C25 1.404 . S
C25 C24 1.404 . S
C25 C26 1.391 . S
C26 H20 0.930 . S
C26 C22 1.429 . S
C26 C25 1.391 . S
H27 C30 0.931 . S
H28 C33 0.928 . S
H29 C35 0.930 . S
C30 H27 0.931 . S
C30 C31 1.413 . S
C30 C32 1.360 . S
C31 C30 1.413 . S
C31 C35 1.429 . S
C32 C30 1.360 . S
C32 C33 1.372 . S
C33 H28 0.928 . S
C33 C32 1.372 . S
C33 C34 1.404 . S
C34 C33 1.404 . S
C34 C35 1.391 . S
C35 H29 0.930 . S
C35 C31 1.429 . S
C35 C34 1.391 . S
H36 C39 0.931 1_556 S
H37 C42 0.928 . S
H38 C44 0.930 . S
C39 H36 0.931 1_554 S
C39 C40 1.413 1_554 S
C39 C41 1.360 . S
C40 C39 1.413 1_556 S
C40 C44 1.429 . S
C41 C39 1.360 . S
C41 C42 1.372 . S
C42 H37 0.928 . S
C42 C41 1.372 . S
C42 C43 1.404 . S
C43 C42 1.404 . S
C43 C44 1.391 1_554 S
C44 H38 0.930 . S
C44 C40 1.429 . S
C44 C43 1.391 1_556 S
H45 C48 0.931 . S
H46 C51 0.928 . S
H47 C53 0.930 . S
C48 H45 0.931 . S
C48 C49 1.413 . S
C48 C50 1.360 1_556 S
C49 C48 1.413 . S
C49 C53 1.429 . S
C50 C48 1.360 1_554 S
C50 C51 1.372 . S
C51 H46 0.928 . S
C51 C50 1.372 . S
C51 C52 1.404 . S
C52 C51 1.404 . S
C52 C53 1.391 1_554 S
C53 H47 0.930 . S
C53 C49 1.429 . S
C53 C52 1.391 1_556 S
H54 C57 0.931 . S
H55 C60 0.928 . S
H56 C62 0.930 . S
C57 H54 0.931 . S
C57 C58 1.413 . S
C57 C59 1.360 1_556 S
C58 C57 1.413 . S
C58 C62 1.429 . S
C59 C57 1.360 1_554 S
C59 C60 1.372 . S
C60 H55 0.928 . S
C60 C59 1.372 . S
C60 C61 1.404 . S
C61 C60 1.404 . S
C61 C62 1.391 1_554 S
C62 H56 0.930 . S
C62 C58 1.429 . S
C62 C61 1.391 1_556 S
H63 C66 0.931 . S
H64 C69 0.928 . S
H65 C71 0.930 . S
C66 H63 0.931 . S
C66 C67 1.413 1_556 S
C66 C68 1.360 . S
C67 C66 1.413 1_554 S
C67 C71 1.429 . S
C68 C66 1.360 . S
C68 C69 1.372 . S
C69 H64 0.928 . S
C69 C68 1.372 . S
C69 C70 1.404 1_556 S
C70 C69 1.404 1_554 S
C70 C71 1.391 . S
C71 H65 0.930 . S
C71 C67 1.429 . S
C71 C70 1.391 . S
Tb72 N103 2.660 1_565 S
Tb72 N110 2.600 . S
Tb72 O116 2.546 . S
Tb72 O117 2.610 1_455 S
Tb72 O119 2.320 1_455 S
Tb72 O120 2.552 . S
Tb72 O121 2.413 . S
Tb72 O123 2.362 1_565 S
Tb72 O124 2.421 . S
Tb72 C136 2.833 . S
C73 C76 1.432 . S
C73 C77 1.414 . S
C73 N80 1.359 1_565 S
C74 C76 1.417 . S
C74 C78 1.432 . S
C74 C86 1.410 . S
C75 C77 1.444 . S
C75 C78 1.317 . S
C75 H98 0.929 . S
C76 C73 1.432 . S
C76 C74 1.417 . S
C76 N84 1.360 . S
C77 C73 1.414 . S
C77 C75 1.444 . S
C77 C82 1.385 1_565 S
C78 C74 1.432 . S
C78 C75 1.317 . S
C78 H90 0.930 . S
C79 C81 1.392 . S
C79 C82 1.370 . S
C79 H91 0.931 . S
N80 C73 1.359 1_545 S
N80 C81 1.327 . S
N80 Tb83 2.600 . S
C81 C79 1.392 . S
C81 N80 1.327 . S
C81 H88 0.930 . S
C82 C77 1.385 1_545 S
C82 C79 1.370 . S
C82 H101 0.930 . S
Tb83 N80 2.600 . S
Tb83 N84 2.660 1_545 S
Tb83 O117 2.362 1_545 S
Tb83 O118 2.421 . S
Tb83 O122 2.546 . S
Tb83 O123 2.610 1_655 S
Tb83 O125 2.320 1_655 S
Tb83 O126 2.563 . S
Tb83 O127 2.413 . S
Tb83 C147 2.833 . S
N84 C76 1.360 . S
N84 Tb83 2.660 1_565 S
N84 C85 1.305 . S
C85 N84 1.305 . S
C85 C87 1.407 . S
C85 H92 0.930 1_655 S
C86 C74 1.410 . S
C86 C87 1.345 . S
C86 H94 0.930 . S
C87 C85 1.407 . S
C87 C86 1.345 . S
C87 H89 0.930 1_655 S
H88 C81 0.930 . S
H89 C87 0.930 1_455 S
H90 C78 0.930 . S
H91 C79 0.931 . S
H92 C85 0.930 1_455 S
H93 C107 0.930 1_655 S
H94 C86 0.930 . S
H95 C113 0.930 . S
H96 C104 0.930 1_655 S
H97 C111 0.931 . S
H98 C75 0.929 . S
H99 C105 0.930 . S
H100 C138 0.930 . S
H101 C82 0.930 . S
H102 C137 0.929 . S
N103 Tb72 2.660 1_545 S
N103 C104 1.305 . S
N103 C108 1.360 . S
C104 H96 0.930 1_455 S
C104 N103 1.305 . S
C104 C107 1.407 1_556 S
C105 H99 0.930 . S
C105 C106 1.410 . S
C105 C107 1.345 . S
C106 C105 1.410 . S
C106 C108 1.417 1_554 S
C106 C138 1.432 . S
C107 H93 0.930 1_455 S
C107 C104 1.407 1_554 S
C107 C105 1.345 . S
C108 N103 1.360 . S
C108 C106 1.417 1_556 S
C108 C112 1.432 . S
H109 C114 0.930 . S
N110 Tb72 2.600 . S
N110 C112 1.359 1_565 S
N110 C113 1.327 . S
C111 H97 0.931 . S
C111 C113 1.392 . S
C111 C114 1.370 1_565 S
C112 C108 1.432 . S
C112 N110 1.359 1_545 S
C112 C115 1.414 . S
C113 H95 0.930 . S
C113 N110 1.327 . S
C113 C111 1.392 . S
C114 H109 0.930 . S
C114 C111 1.370 1_545 S
C114 C115 1.385 . S
C115 C112 1.414 . S
C115 C114 1.385 . S
C115 C137 1.444 1_556 S
O116 Tb72 2.546 . S
O116 C136 1.251 . S
O117 Tb72 2.610 1_655 S
O117 Tb83 2.362 1_565 S
O117 C128 1.283 . S
O118 Tb83 2.421 . S
O118 C135 1.271 . S
O119 Tb72 2.320 1_655 S
O119 C135 1.256 1_565 S
O120 Tb72 2.552 . S
O120 C128 1.243 1_455 S
O121 Tb72 2.413 . S
O121 C136 1.256 . S
O122 Tb83 2.546 . S
O122 C147 1.251 . S
O123 Tb72 2.362 1_545 S
O123 Tb83 2.610 1_455 S
O123 C139 1.283 . S
O124 Tb72 2.421 . S
O124 C146 1.262 1_565 S
O125 Tb83 2.320 1_455 S
O125 C146 1.260 . S
O126 Tb83 2.563 . S
O126 C139 1.222 1_655 S
O127 Tb83 2.413 . S
O127 C147 1.256 . S
C128 O117 1.283 . S
C128 O120 1.243 1_655 S
C129 C131 1.382 . S
C129 C133 1.393 . S
C129 C136 1.500 . S
C130 C131 1.400 1_554 S
C130 C132 1.384 . S
C131 C129 1.382 . S
C131 C130 1.400 1_556 S
C131 H148 0.930 . S
C132 C130 1.384 . S
C132 C134 1.392 . S
C132 H149 0.931 . S
C133 C129 1.393 . S
C133 C134 1.401 1_556 S
C133 H150 0.930 . S
C134 C132 1.392 . S
C134 C133 1.401 1_554 S
C134 H151 0.930 . S
C135 O118 1.271 . S
C135 O119 1.256 1_545 S
C136 Tb72 2.833 . S
C136 O116 1.251 . S
C136 O121 1.256 . S
C136 C129 1.500 . S
C137 H102 0.929 . S
C137 C115 1.444 1_554 S
C137 C138 1.317 . S
C138 H100 0.930 . S
C138 C106 1.432 . S
C138 C137 1.317 . S
C139 O123 1.283 . S
C139 O126 1.222 1_455 S
C140 C141 1.382 . S
C140 C144 1.393 . S
C140 C147 1.500 . S
C141 C140 1.382 . S
C141 C142 1.400 . S
C141 H152 0.958 . S
C142 C141 1.400 . S
C142 C143 1.384 . S
C143 C142 1.384 . S
C143 C145 1.392 . S
C143 H153 0.931 . S
C144 C140 1.393 . S
C144 C145 1.401 . S
C144 H154 0.930 . S
C145 C143 1.392 . S
C145 C144 1.401 . S
C145 H155 0.930 . S
C146 O124 1.262 1_545 S
C146 O125 1.260 . S
C147 Tb83 2.833 . S
C147 O122 1.251 . S
C147 O127 1.256 . S
C147 C140 1.500 . S
H148 C131 0.930 . S
H149 C132 0.931 . S
H150 C133 0.930 . S
H151 C134 0.930 . S
H152 C141 0.958 . S
H153 C143 0.931 . S
H154 C144 0.930 . S
H155 C145 0.930 . S
Tb156 N187 2.660 . S
Tb156 N194 2.600 . S
Tb156 O200 2.546 . S
Tb156 O201 2.610 1_545 S
Tb156 O203 2.320 1_545 S
Tb156 O204 2.552 . S
Tb156 O205 2.413 . S
Tb156 O207 2.362 . S
Tb156 O208 2.421 . S
Tb156 C220 2.833 . S
C157 C160 1.432 . S
C157 C161 1.414 . S
C157 N164 1.359 . S
C158 C160 1.417 . S
C158 C162 1.432 . S
C158 C170 1.410 . S
C159 C161 1.444 . S
C159 C162 1.317 . S
C159 H182 0.929 . S
C160 C157 1.432 . S
C160 C158 1.417 . S
C160 N168 1.360 . S
C161 C157 1.414 . S
C161 C159 1.444 . S
C161 C166 1.385 . S
C162 C158 1.432 . S
C162 C159 1.317 . S
C162 H174 0.930 . S
C163 C165 1.392 . S
C163 C166 1.370 . S
C163 H175 0.931 . S
N164 C157 1.359 . S
N164 C165 1.327 . S
N164 Tb167 2.600 . S
C165 C163 1.392 . S
C165 N164 1.327 . S
C165 H172 0.930 . S
C166 C161 1.385 . S
C166 C163 1.370 . S
C166 H185 0.930 . S
Tb167 N164 2.600 . S
Tb167 N168 2.660 . S
Tb167 O201 2.362 . S
Tb167 O202 2.421 . S
Tb167 O206 2.546 . S
Tb167 O207 2.610 1_565 S
Tb167 O209 2.320 1_565 S
Tb167 O210 2.561 . S
Tb167 O211 2.413 . S
Tb167 C231 2.833 . S
N168 C160 1.360 . S
N168 Tb167 2.660 . S
N168 C169 1.305 . S
C169 N168 1.305 . S
C169 C171 1.407 . S
C169 H176 0.930 1_565 S
C170 C158 1.410 . S
C170 C171 1.345 . S
C170 H178 0.930 . S
C171 C169 1.407 . S
C171 C170 1.345 . S
C171 H173 0.930 1_565 S
H172 C165 0.930 . S
H173 C171 0.930 1_545 S
H174 C162 0.930 . S
H175 C163 0.931 . S
H176 C169 0.930 1_545 S
H177 C191 0.930 1_565 S
H178 C170 0.930 . S
H179 C197 0.930 . S
H180 C188 0.930 1_565 S
H181 C195 0.931 . S
H182 C159 0.929 . S
H183 C189 0.930 . S
H184 C222 0.930 . S
H185 C166 0.930 . S
H186 C221 0.929 . S
N187 Tb156 2.660 . S
N187 C188 1.305 . S
N187 C192 1.360 . S
C188 H180 0.930 1_545 S
C188 N187 1.305 . S
C188 C191 1.407 1_556 S
C189 H183 0.930 . S
C189 C190 1.410 . S
C189 C191 1.345 . S
C190 C189 1.410 . S
C190 C192 1.417 1_554 S
C190 C222 1.432 . S
C191 H177 0.930 1_545 S
C191 C188 1.407 1_554 S
C191 C189 1.345 . S
C192 N187 1.360 . S
C192 C190 1.417 1_556 S
C192 C196 1.432 . S
H193 C198 0.930 . S
N194 Tb156 2.600 . S
N194 C196 1.359 . S
N194 C197 1.327 . S
C195 H181 0.931 . S
C195 C197 1.392 . S
C195 C198 1.370 . S
C196 C192 1.432 . S
C196 N194 1.359 . S
C196 C199 1.414 . S
C197 H179 0.930 . S
C197 N194 1.327 . S
C197 C195 1.392 . S
C198 H193 0.930 . S
C198 C195 1.370 . S
C198 C199 1.385 . S
C199 C196 1.414 . S
C199 C198 1.385 . S
C199 C221 1.444 1_556 S
O200 Tb156 2.546 . S
O200 C220 1.251 . S
O201 Tb156 2.610 1_565 S
O201 Tb167 2.362 . S
O201 C212 1.283 . S
O202 Tb167 2.421 . S
O202 C219 1.262 . S
O203 Tb156 2.320 1_565 S
O203 C219 1.260 . S
O204 Tb156 2.552 . S
O204 C212 1.243 1_545 S
O205 Tb156 2.413 . S
O205 C220 1.256 . S
O206 Tb167 2.546 . S
O206 C231 1.251 . S
O207 Tb156 2.362 . S
O207 Tb167 2.610 1_545 S
O207 C223 1.283 . S
O208 Tb156 2.421 . S
O208 C230 1.262 . S
O209 Tb167 2.320 1_545 S
O209 C230 1.260 . S
O210 Tb167 2.561 . S
O210 C223 1.225 1_565 S
O211 Tb167 2.413 . S
O211 C231 1.256 . S
C212 O201 1.283 . S
C212 O204 1.243 1_565 S
C213 C215 1.382 . S
C213 C217 1.393 . S
C213 C220 1.500 . S
C214 C215 1.400 1_554 S
C214 C216 1.384 . S
C215 C213 1.382 . S
C215 C214 1.400 1_556 S
C215 H232 0.930 . S
C216 C214 1.384 . S
C216 C218 1.392 . S
C216 H233 0.931 . S
C217 C213 1.393 . S
C217 C218 1.401 1_556 S
C217 H234 0.930 . S
C218 C216 1.392 . S
C218 C217 1.401 1_554 S
C218 H235 0.930 . S
C219 O202 1.262 . S
C219 O203 1.260 . S
C220 Tb156 2.833 . S
C220 O200 1.251 . S
C220 O205 1.256 . S
C220 C213 1.500 . S
C221 H186 0.929 . S
C221 C199 1.444 1_554 S
C221 C222 1.317 . S
C222 H184 0.930 . S
C222 C190 1.432 . S
C222 C221 1.317 . S
C223 O207 1.283 . S
C223 O210 1.225 1_545 S
C224 C225 1.382 . S
C224 C228 1.393 . S
C224 C231 1.500 . S
C225 C224 1.382 . S
C225 C226 1.400 . S
C225 H236 0.961 . S
C226 C225 1.400 . S
C226 C227 1.384 . S
C227 C226 1.384 . S
C227 C229 1.392 . S
C227 H237 0.931 . S
C228 C224 1.393 . S
C228 C229 1.401 . S
C228 H238 0.930 . S
C229 C227 1.392 . S
C229 C228 1.401 . S
C229 H239 0.930 . S
C230 O208 1.262 . S
C230 O209 1.260 . S
C231 Tb167 2.833 . S
C231 O206 1.251 . S
C231 O211 1.256 . S
C231 C224 1.500 . S
H232 C215 0.930 . S
H233 C216 0.931 . S
H234 C217 0.930 . S
H235 C218 0.930 . S
H236 C225 0.961 . S
H237 C227 0.931 . S
H238 C228 0.930 . S
H239 C229 0.930 . S
Tb240 N271 2.660 . S
Tb240 N278 2.600 . S
Tb240 O284 2.546 . S
Tb240 O285 2.610 . S
Tb240 O287 2.320 . S
Tb240 O288 2.552 . S
Tb240 O289 2.413 . S
Tb240 O291 2.362 . S
Tb240 O292 2.421 . S
Tb240 C304 2.833 . S
C241 C244 1.432 . S
C241 C245 1.414 . S
C241 N248 1.359 . S
C242 C244 1.417 . S
C242 C246 1.432 . S
C242 C254 1.410 . S
C243 C245 1.444 . S
C243 C246 1.317 . S
C243 H266 0.929 . S
C244 C241 1.432 . S
C244 C242 1.417 . S
C244 N252 1.360 . S
C245 C241 1.414 . S
C245 C243 1.444 . S
C245 C250 1.385 . S
C246 C242 1.432 . S
C246 C243 1.317 . S
C246 H258 0.930 . S
C247 C249 1.392 . S
C247 C250 1.370 . S
C247 H259 0.931 . S
N248 C241 1.359 . S
N248 C249 1.327 . S
N248 Tb251 2.600 . S
C249 C247 1.392 . S
C249 N248 1.327 . S
C249 H256 0.930 . S
C250 C245 1.385 . S
C250 C247 1.370 . S
C250 H269 0.930 . S
Tb251 N248 2.600 . S
Tb251 N252 2.660 . S
Tb251 O285 2.362 . S
Tb251 O286 2.421 . S
Tb251 O290 2.546 . S
Tb251 O291 2.610 . S
Tb251 O293 2.320 . S
Tb251 O294 2.552 . S
Tb251 O295 2.413 . S
Tb251 C315 2.833 . S
N252 C244 1.360 . S
N252 Tb251 2.660 . S
N252 C253 1.305 . S
C253 N252 1.305 . S
C253 C255 1.407 . S
C253 H260 0.930 . S
C254 C242 1.410 . S
C254 C255 1.345 . S
C254 H262 0.930 . S
C255 C253 1.407 . S
C255 C254 1.345 . S
C255 H257 0.930 . S
H256 C249 0.930 . S
H257 C255 0.930 . S
H258 C246 0.930 . S
H259 C247 0.931 . S
H260 C253 0.930 . S
H261 C275 0.930 . S
H262 C254 0.930 . S
H263 C281 0.930 . S
H264 C272 0.930 . S
H265 C279 0.931 . S
H266 C243 0.929 . S
H267 C273 0.930 . S
H268 C306 0.930 . S
H269 C250 0.930 . S
H270 C305 0.929 . S
N271 Tb240 2.660 . S
N271 C272 1.305 . S
N271 C276 1.360 . S
C272 H264 0.930 . S
C272 N271 1.305 . S
C272 C275 1.407 . S
C273 H267 0.930 . S
C273 C274 1.410 . S
C273 C275 1.345 . S
C274 C273 1.410 . S
C274 C276 1.417 . S
C274 C306 1.432 . S
C275 H261 0.930 . S
C275 C272 1.407 . S
C275 C273 1.345 . S
C276 N271 1.360 . S
C276 C274 1.417 . S
C276 C280 1.432 . S
H277 C282 0.930 . S
N278 Tb240 2.600 . S
N278 C280 1.359 . S
N278 C281 1.327 . S
C279 H265 0.931 . S
C279 C281 1.392 . S
C279 C282 1.370 . S
C280 C276 1.432 . S
C280 N278 1.359 . S
C280 C283 1.414 . S
C281 H263 0.930 . S
C281 N278 1.327 . S
C281 C279 1.392 . S
C282 H277 0.930 . S
C282 C279 1.370 . S
C282 C283 1.385 . S
C283 C280 1.414 . S
C283 C282 1.385 . S
C283 C305 1.444 . S
O284 Tb240 2.546 . S
O284 C304 1.251 . S
O285 Tb240 2.610 . S
O285 Tb251 2.362 . S
O285 C296 1.283 . S
O286 Tb251 2.421 . S
O286 C303 1.262 . S
O287 Tb240 2.320 . S
O287 C303 1.260 . S
O288 Tb240 2.552 . S
O288 C296 1.243 . S
O289 Tb240 2.413 . S
O289 C304 1.256 . S
O290 Tb251 2.546 . S
O290 C315 1.251 . S
O291 Tb240 2.362 . S
O291 Tb251 2.610 . S
O291 C307 1.283 . S
O292 Tb240 2.421 . S
O292 C314 1.262 . S
O293 Tb251 2.320 . S
O293 C314 1.260 . S
O294 Tb251 2.552 . S
O294 C307 1.243 . S
O295 Tb251 2.413 . S
O295 C315 1.256 . S
C296 O285 1.283 . S
C296 O288 1.243 . S
C297 C299 1.382 . S
C297 C301 1.393 . S
C297 C304 1.500 . S
C298 C299 1.400 . S
C298 C300 1.384 . S
C299 C297 1.382 . S
C299 C298 1.400 . S
C299 H316 0.930 . S
C300 C298 1.384 . S
C300 C302 1.392 . S
C300 H317 0.931 . S
C301 C297 1.393 . S
C301 C302 1.401 . S
C301 H318 0.930 . S
C302 C300 1.392 . S
C302 C301 1.401 . S
C302 H319 0.930 . S
C303 O286 1.262 . S
C303 O287 1.260 . S
C304 Tb240 2.833 . S
C304 O284 1.251 . S
C304 O289 1.256 . S
C304 C297 1.500 . S
C305 H270 0.929 . S
C305 C283 1.444 . S
C305 C306 1.317 . S
C306 H268 0.930 . S
C306 C274 1.432 . S
C306 C305 1.317 . S
C307 O291 1.283 . S
C307 O294 1.243 . S
C308 C309 1.382 . S
C308 C312 1.393 . S
C308 C315 1.500 1_554 S
C309 C308 1.382 . S
C309 C310 1.400 . S
C309 H320 0.930 1_554 S
C310 C309 1.400 . S
C310 C311 1.384 . S
C311 C310 1.384 . S
C311 C313 1.392 . S
C311 H321 0.931 . S
C312 C308 1.393 . S
C312 C313 1.401 . S
C312 H322 0.930 . S
C313 C311 1.392 . S
C313 C312 1.401 . S
C313 H323 0.930 . S
C314 O292 1.262 . S
C314 O293 1.260 . S
C315 Tb251 2.833 . S
C315 O290 1.251 . S
C315 O295 1.256 . S
C315 C308 1.500 1_556 S
H316 C299 0.930 . S
H317 C300 0.931 . S
H318 C301 0.930 . S
H319 C302 0.930 . S
H320 C309 0.930 1_556 S
H321 C311 0.931 . S
H322 C312 0.930 . S
H323 C313 0.930 . S
Tb324 N355 2.660 . S
Tb324 N362 2.600 . S
Tb324 O368 2.546 . S
Tb324 O369 2.610 . S
Tb324 O371 2.320 . S
Tb324 O372 2.552 . S
Tb324 O373 2.413 . S
Tb324 O375 2.362 1_455 S
Tb324 O376 2.421 1_455 S
Tb324 C388 2.833 . S
C325 C328 1.432 . S
C325 C329 1.414 . S
C325 N332 1.359 . S
C326 C328 1.417 . S
C326 C330 1.432 . S
C326 C338 1.410 . S
C327 C329 1.444 . S
C327 C330 1.317 . S
C327 H350 0.929 . S
C328 C325 1.432 . S
C328 C326 1.417 . S
C328 N336 1.360 . S
C329 C325 1.414 . S
C329 C327 1.444 . S
C329 C334 1.385 1_655 S
C330 C326 1.432 . S
C330 C327 1.317 . S
C330 H342 0.930 . S
C331 C333 1.392 . S
C331 C334 1.370 . S
C331 H343 0.931 . S
N332 C325 1.359 . S
N332 C333 1.327 1_655 S
N332 Tb335 2.600 . S
C333 C331 1.392 . S
C333 N332 1.327 1_455 S
C333 H340 0.930 . S
C334 C329 1.385 1_455 S
C334 C331 1.370 . S
C334 H353 0.930 . S
Tb335 N332 2.600 . S
Tb335 N336 2.660 . S
Tb335 O369 2.362 1_655 S
Tb335 O370 2.421 1_655 S
Tb335 O374 2.546 . S
Tb335 O375 2.610 . S
Tb335 O377 2.320 . S
Tb335 O378 2.552 . S
Tb335 O379 2.413 . S
Tb335 C399 2.833 . S
N336 C328 1.360 . S
N336 Tb335 2.660 . S
N336 C337 1.305 . S
C337 N336 1.305 . S
C337 C339 1.407 . S
C337 H344 0.930 . S
C338 C326 1.410 . S
C338 C339 1.345 . S
C338 H346 0.930 . S
C339 C337 1.407 . S
C339 C338 1.345 . S
C339 H341 0.930 . S
H340 C333 0.930 . S
H341 C339 0.930 . S
H342 C330 0.930 . S
H343 C331 0.931 . S
H344 C337 0.930 . S
H345 C359 0.930 . S
H346 C338 0.930 . S
H347 C365 0.930 . S
H348 C356 0.930 . S
H349 C363 0.931 . S
H350 C327 0.929 . S
H351 C357 0.930 . S
H352 C390 0.930 . S
H353 C334 0.930 . S
H354 C389 0.929 . S
N355 Tb324 2.660 . S
N355 C356 1.305 . S
N355 C360 1.360 . S
C356 H348 0.930 . S
C356 N355 1.305 . S
C356 C359 1.407 . S
C357 H351 0.930 . S
C357 C358 1.410 . S
C357 C359 1.345 . S
C358 C357 1.410 . S
C358 C360 1.417 . S
C358 C390 1.432 . S
C359 H345 0.930 . S
C359 C356 1.407 . S
C359 C357 1.345 . S
C360 N355 1.360 . S
C360 C358 1.417 . S
C360 C364 1.432 . S
H361 C366 0.930 . S
N362 Tb324 2.600 . S
N362 C364 1.359 . S
N362 C365 1.327 1_455 S
C363 H349 0.931 . S
C363 C365 1.392 . S
C363 C366 1.370 1_655 S
C364 C360 1.432 . S
C364 N362 1.359 . S
C364 C367 1.414 . S
C365 H347 0.930 . S
C365 N362 1.327 1_655 S
C365 C363 1.392 . S
C366 H361 0.930 . S
C366 C363 1.370 1_455 S
C366 C367 1.385 . S
C367 C364 1.414 . S
C367 C366 1.385 . S
C367 C389 1.444 . S
O368 Tb324 2.546 . S
O368 C388 1.251 . S
O369 Tb324 2.610 . S
O369 Tb335 2.362 1_455 S
O369 C380 1.283 . S
O370 Tb335 2.421 1_455 S
O370 C387 1.262 . S
O371 Tb324 2.320 . S
O371 C387 1.260 . S
O372 Tb324 2.552 . S
O372 C380 1.243 . S
O373 Tb324 2.413 . S
O373 C388 1.256 . S
O374 Tb335 2.546 . S
O374 C399 1.251 . S
O375 Tb324 2.362 1_655 S
O375 Tb335 2.610 . S
O375 C391 1.283 . S
O376 Tb324 2.421 1_655 S
O376 C398 1.262 . S
O377 Tb335 2.320 . S
O377 C398 1.260 . S
O378 Tb335 2.552 . S
O378 C391 1.243 . S
O379 Tb335 2.413 . S
O379 C399 1.256 . S
C380 O369 1.283 . S
C380 O372 1.243 . S
C381 C383 1.382 . S
C381 C385 1.393 . S
C381 C388 1.500 . S
C382 C383 1.400 . S
C382 C384 1.384 . S
C383 C381 1.382 . S
C383 C382 1.400 . S
C383 H400 0.930 . S
C384 C382 1.384 . S
C384 C386 1.392 . S
C384 H401 0.931 . S
C385 C381 1.393 . S
C385 C386 1.401 . S
C385 H402 0.930 . S
C386 C384 1.392 . S
C386 C385 1.401 . S
C386 H403 0.930 . S
C387 O370 1.262 . S
C387 O371 1.260 . S
C388 Tb324 2.833 . S
C388 O368 1.251 . S
C388 O373 1.256 . S
C388 C381 1.500 . S
C389 H354 0.929 . S
C389 C367 1.444 . S
C389 C390 1.317 . S
C390 H352 0.930 . S
C390 C358 1.432 . S
C390 C389 1.317 . S
C391 O375 1.283 . S
C391 O378 1.243 . S
C392 C393 1.382 . S
C392 C396 1.393 . S
C392 C399 1.500 1_554 S
C393 C392 1.382 . S
C393 C394 1.400 . S
C393 H404 0.930 1_554 S
C394 C393 1.400 . S
C394 C395 1.384 . S
C395 C394 1.384 . S
C395 C397 1.392 . S
C395 H405 0.931 . S
C396 C392 1.393 . S
C396 C397 1.401 . S
C396 H406 0.930 . S
C397 C395 1.392 . S
C397 C396 1.401 . S
C397 H407 0.930 . S
C398 O376 1.262 . S
C398 O377 1.260 . S
C399 Tb335 2.833 . S
C399 O374 1.251 . S
C399 O379 1.256 . S
C399 C392 1.500 1_556 S
H400 C383 0.930 . S
H401 C384 0.931 . S
H402 C385 0.930 . S
H403 C386 0.930 . S
H404 C393 0.930 1_556 S
H405 C395 0.931 . S
H406 C396 0.930 . S
H407 C397 0.930 . S
H408 C414 0.930 . S
H409 C417 0.930 . S
H410 C418 0.930 . S
H411 C419 0.930 . S
H412 C422 0.930 . S
H413 C423 0.930 . S
C414 H408 0.930 . S
C414 C415 1.355 . S
C414 C416 1.415 . S
C415 C414 1.355 . S
C415 C417 1.419 . S
C416 C414 1.415 . S
C416 C421 1.425 . S
C416 C423 1.409 1_545 S
C417 H409 0.930 . S
C417 C415 1.419 . S
C417 C418 1.362 . S
C418 H410 0.930 . S
C418 C417 1.362 . S
C418 C421 1.409 . S
C419 H411 0.930 . S
C419 C420 1.355 . S
C419 C421 1.415 . S
C420 C419 1.355 . S
C420 C422 1.419 1_545 S
C421 C416 1.425 . S
C421 C418 1.409 . S
C421 C419 1.415 . S
C422 H412 0.930 . S
C422 C420 1.419 1_565 S
C422 C423 1.362 . S
C423 H413 0.930 . S
C423 C416 1.409 1_565 S
C423 C422 1.362 . S
H424 C430 0.930 . S
H425 C433 0.930 . S
H426 C434 0.930 . S
H427 C435 0.930 . S
H428 C438 0.930 . S
H429 C439 0.930 . S
C430 H424 0.930 . S
C430 C431 1.355 . S
C430 C432 1.415 . S
C431 C430 1.355 . S
C431 C433 1.419 . S
C432 C430 1.415 . S
C432 C437 1.425 . S
C432 C439 1.409 . S
C433 H425 0.930 . S
C433 C431 1.419 . S
C433 C434 1.362 . S
C434 H426 0.930 . S
C434 C433 1.362 . S
C434 C437 1.409 . S
C435 H427 0.930 . S
C435 C436 1.355 . S
C435 C437 1.415 . S
C436 C435 1.355 . S
C436 C438 1.419 . S
C437 C432 1.425 . S
C437 C434 1.409 . S
C437 C435 1.415 . S
C438 H428 0.930 . S
C438 C436 1.419 . S
C438 C439 1.362 . S
C439 H429 0.930 . S
C439 C432 1.409 . S
C439 C438 1.362 . S
H440 C446 0.930 . S
H441 C449 0.930 . S
H442 C450 0.930 . S
H443 C451 0.930 . S
H444 C454 0.930 . S
H445 C455 0.930 . S
C446 H440 0.930 . S
C446 C447 1.355 . S
C446 C448 1.415 . S
C447 C446 1.355 . S
C447 C449 1.419 . S
C448 C446 1.415 . S
C448 C453 1.425 . S
C448 C455 1.409 . S
C449 H441 0.930 . S
C449 C447 1.419 . S
C449 C450 1.362 . S
C450 H442 0.930 . S
C450 C449 1.362 . S
C450 C453 1.409 . S
C451 H443 0.930 . S
C451 C452 1.355 . S
C451 C453 1.415 . S
C452 C451 1.355 . S
C452 C454 1.419 . S
C453 C448 1.425 . S
C453 C450 1.409 . S
C453 C451 1.415 . S
C454 H444 0.930 . S
C454 C452 1.419 . S
C454 C455 1.362 . S
C455 H445 0.930 . S
C455 C448 1.409 . S
C455 C454 1.362 . S
H456 C462 0.930 . S
H457 C465 0.930 . S
H458 C466 0.930 . S
H459 C467 0.930 . S
H460 C470 0.930 . S
H461 C471 0.930 . S
C462 H456 0.930 . S
C462 C463 1.355 . S
C462 C464 1.415 . S
C463 C462 1.355 . S
C463 C465 1.419 . S
C464 C462 1.415 . S
C464 C469 1.425 . S
C464 C471 1.409 . S
C465 H457 0.930 . S
C465 C463 1.419 . S
C465 C466 1.362 . S
C466 H458 0.930 . S
C466 C465 1.362 . S
C466 C469 1.409 . S
C467 H459 0.930 . S
C467 C468 1.355 . S
C467 C469 1.415 . S
C468 C467 1.355 . S
C468 C470 1.419 . S
C469 C464 1.425 . S
C469 C466 1.409 . S
C469 C467 1.415 . S
C470 H460 0.930 . S
C470 C468 1.419 . S
C470 C471 1.362 . S
C471 H461 0.930 . S
C471 C464 1.409 . S
C471 C470 1.362 . S
H472 C478 0.930 . S
H473 C481 0.930 . S
H474 C482 0.930 . S
H475 C483 0.930 . S
H476 C486 0.930 . S
H477 C487 0.930 . S
C478 H472 0.930 . S
C478 C479 1.355 . S
C478 C480 1.415 . S
C479 C478 1.355 . S
C479 C481 1.419 . S
C480 C478 1.415 . S
C480 C485 1.425 . S
C480 C487 1.409 . S
C481 H473 0.930 . S
C481 C479 1.419 . S
C481 C482 1.362 . S
C482 H474 0.930 . S
C482 C481 1.362 . S
C482 C485 1.409 . S
C483 H475 0.930 . S
C483 C484 1.355 . S
C483 C485 1.415 1_556 S
C484 C483 1.355 . S
C484 C486 1.419 . S
C485 C480 1.425 . S
C485 C482 1.409 . S
C485 C483 1.415 1_554 S
C486 H476 0.930 . S
C486 C484 1.419 . S
C486 C487 1.362 1_556 S
C487 H477 0.930 . S
C487 C480 1.409 . S
C487 C486 1.362 1_554 S
H488 C494 0.930 . S
H489 C497 0.930 . S
H490 C498 0.930 . S
H491 C499 0.930 . S
H492 C502 0.930 . S
H493 C503 0.930 . S
C494 H488 0.930 . S
C494 C495 1.355 . S
C494 C496 1.415 . S
C495 C494 1.355 . S
C495 C497 1.419 . S
C496 C494 1.415 . S
C496 C501 1.425 . S
C496 C503 1.409 . S
C497 H489 0.930 . S
C497 C495 1.419 . S
C497 C498 1.362 . S
C498 H490 0.930 . S
C498 C497 1.362 . S
C498 C501 1.409 . S
C499 H491 0.930 . S
C499 C500 1.355 . S
C499 C501 1.415 1_556 S
C500 C499 1.355 . S
C500 C502 1.419 . S
C501 C496 1.425 . S
C501 C498 1.409 . S
C501 C499 1.415 1_554 S
C502 H492 0.930 . S
C502 C500 1.419 . S
C502 C503 1.362 1_556 S
C503 H493 0.930 . S
C503 C496 1.409 . S
C503 C502 1.362 1_554 S
H504 C510 0.930 . S
H505 C513 0.930 . S
H506 C514 0.930 . S
H507 C515 0.930 . S
H508 C518 0.930 . S
H509 C519 0.930 . S
C510 H504 0.930 . S
C510 C511 1.355 . S
C510 C512 1.415 . S
C511 C510 1.355 . S
C511 C513 1.419 . S
C512 C510 1.415 . S
C512 C517 1.425 . S
C512 C519 1.409 1_554 S
C513 H505 0.930 . S
C513 C511 1.419 . S
C513 C514 1.362 . S
C514 H506 0.930 . S
C514 C513 1.362 . S
C514 C517 1.409 . S
C515 H507 0.930 . S
C515 C516 1.355 . S
C515 C517 1.415 1_556 S
C516 C515 1.355 . S
C516 C518 1.419 . S
C517 C512 1.425 . S
C517 C514 1.409 . S
C517 C515 1.415 1_554 S
C518 H508 0.930 . S
C518 C516 1.419 . S
C518 C519 1.362 . S
C519 H509 0.930 . S
C519 C512 1.409 1_556 S
C519 C518 1.362 . S
H520 C526 0.927 1_455 S
H521 C529 0.930 . S
H522 C530 0.930 . S
H523 C531 0.930 . S
H524 C534 0.930 . S
H525 C535 0.930 . S
C526 H520 0.927 1_655 S
C526 C527 1.355 . S
C526 C528 1.415 . S
C527 C526 1.355 . S
C527 C529 1.419 . S
C528 C526 1.415 . S
C528 C533 1.425 . S
C528 C535 1.409 1_655 S
C529 H521 0.930 . S
C529 C527 1.419 . S
C529 C530 1.362 . S
C530 H522 0.930 . S
C530 C529 1.362 . S
C530 C533 1.409 . S
C531 H523 0.930 . S
C531 C532 1.355 . S
C531 C533 1.415 1_556 S
C532 C531 1.355 . S
C532 C534 1.419 1_655 S
C533 C528 1.425 . S
C533 C530 1.409 . S
C533 C531 1.415 1_554 S
C534 H524 0.930 . S
C534 C532 1.419 1_455 S
C534 C535 1.362 1_556 S
C535 H525 0.930 . S
C535 C528 1.409 1_455 S
C535 C534 1.362 1_554 S
H536 C542 0.930 . S
H537 C545 0.930 . S
H538 C546 0.930 . S
H539 C547 0.930 . S
H540 C550 0.930 . S
H541 C551 0.930 . S
C542 H536 0.930 . S
C542 C543 1.355 . S
C542 C544 1.415 . S
C543 C542 1.355 . S
C543 C545 1.419 . S
C544 C542 1.415 . S
C544 C549 1.425 . S
C544 C551 1.409 1_455 S
C545 H537 0.930 . S
C545 C543 1.419 . S
C545 C546 1.362 . S
C546 H538 0.930 . S
C546 C545 1.362 . S
C546 C549 1.409 . S
C547 H539 0.930 . S
C547 C548 1.355 1_455 S
C547 C549 1.415 . S
C548 C547 1.355 1_655 S
C548 C550 1.419 . S
C549 C544 1.425 . S
C549 C546 1.409 . S
C549 C547 1.415 . S
C550 H540 0.930 . S
C550 C548 1.419 . S
C550 C551 1.362 . S
C551 H541 0.930 . S
C551 C544 1.409 1_655 S
C551 C550 1.362 . S
H552 C558 0.930 . S
H553 C561 0.930 . S
H554 C562 0.930 1_565 S
H555 C563 0.930 . S
H556 C566 0.930 . S
H557 C567 0.930 . S
C558 H552 0.930 . S
C558 C559 1.355 . S
C558 C560 1.415 . S
C559 C558 1.355 . S
C559 C561 1.419 . S
C560 C558 1.415 . S
C560 C565 1.425 . S
C560 C567 1.409 . S
C561 H553 0.930 . S
C561 C559 1.419 . S
C561 C562 1.362 . S
C562 H554 0.930 1_545 S
C562 C561 1.362 . S
C562 C565 1.409 . S
C563 H555 0.930 . S
C563 C564 1.355 . S
C563 C565 1.415 1_565 S
C564 C563 1.355 . S
C564 C566 1.419 1_565 S
C565 C560 1.425 . S
C565 C562 1.409 . S
C565 C563 1.415 1_545 S
C566 H556 0.930 . S
C566 C564 1.419 1_545 S
C566 C567 1.362 . S
C567 H557 0.930 . S
C567 C560 1.409 . S
C567 C566 1.362 . S
H568 C574 0.930 . S
H569 C577 0.930 . S
H570 C578 0.930 . S
H571 C579 0.930 . S
H572 C582 0.930 . S
H573 C583 0.930 . S
C574 H568 0.930 . S
C574 C575 1.355 . S
C574 C576 1.415 . S
C575 C574 1.355 . S
C575 C577 1.419 . S
C576 C574 1.415 . S
C576 C581 1.425 . S
C576 C583 1.409 . S
C577 H569 0.930 . S
C577 C575 1.419 . S
C577 C578 1.362 . S
C578 H570 0.930 . S
C578 C577 1.362 . S
C578 C581 1.409 . S
C579 H571 0.930 . S
C579 C580 1.355 . S
C579 C581 1.415 . S
C580 C579 1.355 . S
C580 C582 1.419 . S
C581 C576 1.425 . S
C581 C578 1.409 . S
C581 C579 1.415 . S
C582 H572 0.930 . S
C582 C580 1.419 . S
C582 C583 1.362 . S
C583 H573 0.930 . S
C583 C576 1.409 . S
C583 C582 1.362 . S
H584 C590 0.930 . S
H585 C593 0.930 . S
H586 C594 0.930 . S
H587 C595 0.930 . S
H588 C598 0.930 . S
H589 C599 0.930 . S
C590 H584 0.930 . S
C590 C591 1.355 . S
C590 C592 1.415 . S
C591 C590 1.355 . S
C591 C593 1.419 . S
C592 C590 1.415 . S
C592 C597 1.425 . S
C592 C599 1.409 . S
C593 H585 0.930 . S
C593 C591 1.419 . S
C593 C594 1.362 . S
C594 H586 0.930 . S
C594 C593 1.362 . S
C594 C597 1.409 . S
C595 H587 0.930 . S
C595 C596 1.355 . S
C595 C597 1.415 . S
C596 C595 1.355 . S
C596 C598 1.419 . S
C597 C592 1.425 . S
C597 C594 1.409 . S
C597 C595 1.415 . S
C598 H588 0.930 . S
C598 C596 1.419 . S
C598 C599 1.362 . S
C599 H589 0.930 . S
C599 C592 1.409 . S
C599 C598 1.362 . S
H600 C606 0.930 . S
H601 C609 0.930 . S
H602 C610 0.930 . S
H603 C611 0.930 1_556 S
H604 C614 0.930 . S
H605 C615 0.930 . S
C606 H600 0.930 . S
C606 C607 1.355 . S
C606 C608 1.415 . S
C607 C606 1.355 . S
C607 C609 1.419 . S
C608 C606 1.415 . S
C608 C613 1.425 . S
C608 C615 1.409 . S
C609 H601 0.930 . S
C609 C607 1.419 . S
C609 C610 1.362 . S
C610 H602 0.930 . S
C610 C609 1.362 . S
C610 C613 1.409 . S
C611 H603 0.930 1_554 S
C611 C612 1.355 . S
C611 C613 1.415 1_455 S
C612 C611 1.355 . S
C612 C614 1.419 . S
C613 C608 1.425 . S
C613 C610 1.409 . S
C613 C611 1.415 1_655 S
C614 H604 0.930 . S
C614 C612 1.419 . S
C614 C615 1.362 1_455 S
C615 H605 0.930 . S
C615 C608 1.409 . S
C615 C614 1.362 1_655 S
H616 C622 0.930 1_545 S
H617 C625 0.930 . S
H618 C626 0.930 . S
H619 C627 0.930 . S
H620 C630 0.930 . S
H621 C631 0.930 . S
C622 H616 0.930 1_565 S
C622 C623 1.355 . S
C622 C624 1.415 1_565 S
C623 C622 1.355 . S
C623 C625 1.419 . S
C624 C622 1.415 1_545 S
C624 C629 1.425 1_545 S
C624 C631 1.409 . S
C625 H617 0.930 . S
C625 C623 1.419 . S
C625 C626 1.362 . S
C626 H618 0.930 . S
C626 C625 1.362 . S
C626 C629 1.409 . S
C627 H619 0.930 . S
C627 C628 1.355 1_565 S
C627 C629 1.415 . S
C628 C627 1.355 1_545 S
C628 C630 1.419 . S
C629 C624 1.425 1_565 S
C629 C626 1.409 . S
C629 C627 1.415 . S
C630 H620 0.930 . S
C630 C628 1.419 . S
C630 C631 1.362 . S
C631 H621 0.930 . S
C631 C624 1.409 . S
C631 C630 1.362 . S
H632 C638 0.930 . S
H633 C641 0.930 . S
H634 C642 0.930 . S
H635 C643 0.930 . S
H636 C646 0.930 1_556 S
H637 C647 0.930 1_556 S
C638 H632 0.930 . S
C638 C639 1.355 . S
C638 C640 1.415 . S
C639 C638 1.355 . S
C639 C641 1.419 . S
C640 C638 1.415 . S
C640 C645 1.425 . S
C640 C647 1.409 . S
C641 H633 0.930 . S
C641 C639 1.419 . S
C641 C642 1.362 . S
C642 H634 0.930 . S
C642 C641 1.362 . S
C642 C645 1.409 . S
C643 H635 0.930 . S
C643 C644 1.355 . S
C643 C645 1.415 . S
C644 C643 1.355 . S
C644 C646 1.419 . S
C645 C640 1.425 . S
C645 C642 1.409 . S
C645 C643 1.415 . S
C646 H636 0.930 1_554 S
C646 C644 1.419 . S
C646 C647 1.362 . S
C647 H637 0.930 1_554 S
C647 C640 1.409 . S
C647 C646 1.362 . S
H648 C654 0.930 . S
H649 C657 0.930 . S
H650 C658 0.930 . S
H651 C659 0.930 . S
H652 C662 0.930 . S
H653 C663 0.930 . S
C654 H648 0.930 . S
C654 C655 1.355 . S
C654 C656 1.415 . S
C655 C654 1.355 . S
C655 C657 1.419 . S
C656 C654 1.415 . S
C656 C661 1.425 . S
C656 C663 1.409 . S
C657 H649 0.930 . S
C657 C655 1.419 . S
C657 C658 1.362 . S
C658 H650 0.930 . S
C658 C657 1.362 . S
C658 C661 1.409 . S
C659 H651 0.930 . S
C659 C660 1.355 . S
C659 C661 1.415 . S
C660 C659 1.355 . S
C660 C662 1.419 . S
C661 C656 1.425 . S
C661 C658 1.409 . S
C661 C659 1.415 . S
C662 H652 0.930 . S
C662 C660 1.419 . S
C662 C663 1.362 . S
C663 H653 0.930 . S
C663 C656 1.409 . S
C663 C662 1.362 . S
H664 C670 0.930 . S
H665 C673 0.930 . S
H666 C674 0.930 . S
H667 C675 0.930 . S
H668 C678 0.930 . S
H669 C679 0.930 . S
C670 H664 0.930 . S
C670 C671 1.355 . S
C670 C672 1.415 . S
C671 C670 1.355 . S
C671 C673 1.419 . S
C672 C670 1.415 . S
C672 C677 1.425 . S
C672 C679 1.409 . S
C673 H665 0.930 . S
C673 C671 1.419 . S
C673 C674 1.362 . S
C674 H666 0.930 . S
C674 C673 1.362 . S
C674 C677 1.409 . S
C675 H667 0.930 . S
C675 C676 1.355 . S
C675 C677 1.415 . S
C676 C675 1.355 . S
C676 C678 1.419 . S
C677 C672 1.425 . S
C677 C674 1.409 . S
C677 C675 1.415 . S
C678 H668 0.930 . S
C678 C676 1.419 . S
C678 C679 1.362 . S
C679 H669 0.930 . S
C679 C672 1.409 . S
C679 C678 1.362 . S
H680 C686 0.930 . S
H681 C689 0.930 . S
H682 C690 0.930 . S
H683 C691 0.930 . S
H684 C694 0.930 . S
H685 C695 0.930 . S
C686 H680 0.930 . S
C686 C687 1.355 . S
C686 C688 1.415 . S
C687 C686 1.355 . S
C687 C689 1.419 . S
C688 C686 1.415 . S
C688 C693 1.425 . S
C688 C695 1.409 . S
C689 H681 0.930 . S
C689 C687 1.419 . S
C689 C690 1.362 . S
C690 H682 0.930 . S
C690 C689 1.362 . S
C690 C693 1.409 . S
C691 H683 0.930 . S
C691 C692 1.355 . S
C691 C693 1.415 . S
C692 C691 1.355 . S
C692 C694 1.419 . S
C693 C688 1.425 . S
C693 C690 1.409 . S
C693 C691 1.415 . S
C694 H684 0.930 . S
C694 C692 1.419 . S
C694 C695 1.362 . S
C695 H685 0.930 . S
C695 C688 1.409 . S
C695 C694 1.362 . S
H696 C702 0.930 . S
H697 C705 0.930 . S
H698 C706 0.930 . S
H699 C707 0.930 . S
H700 C710 0.930 . S
H701 C711 0.930 . S
C702 H696 0.930 . S
C702 C703 1.355 . S
C702 C704 1.415 . S
C703 C702 1.355 . S
C703 C705 1.419 . S
C704 C702 1.415 . S
C704 C709 1.425 . S
C704 C711 1.409 . S
C705 H697 0.930 . S
C705 C703 1.419 . S
C705 C706 1.362 . S
C706 H698 0.930 . S
C706 C705 1.362 . S
C706 C709 1.409 . S
C707 H699 0.930 . S
C707 C708 1.355 . S
C707 C709 1.415 . S
C708 C707 1.355 . S
C708 C710 1.419 . S
C709 C704 1.425 . S
C709 C706 1.409 . S
C709 C707 1.415 . S
C710 H700 0.930 . S
C710 C708 1.419 . S
C710 C711 1.362 . S
C711 H701 0.930 . S
C711 C704 1.409 . S
C711 C710 1.362 . S
H712 C718 0.930 . S
H713 C721 0.930 . S
H714 C722 0.930 . S
H715 C723 0.930 . S
H716 C726 0.930 . S
H717 C727 0.930 . S
C718 H712 0.930 . S
C718 C719 1.355 . S
C718 C720 1.415 . S
C719 C718 1.355 . S
C719 C721 1.419 . S
C720 C718 1.415 . S
C720 C725 1.425 . S
C720 C727 1.409 . S
C721 H713 0.930 . S
C721 C719 1.419 . S
C721 C722 1.362 . S
C722 H714 0.930 . S
C722 C721 1.362 . S
C722 C725 1.409 . S
C723 H715 0.930 . S
C723 C724 1.355 . S
C723 C725 1.415 . S
C724 C723 1.355 . S
C724 C726 1.419 . S
C725 C720 1.425 . S
C725 C722 1.409 . S
C725 C723 1.415 . S
C726 H716 0.930 . S
C726 C724 1.419 . S
C726 C727 1.362 . S
C727 H717 0.930 . S
C727 C720 1.409 . S
C727 C726 1.362 . S
H728 C734 0.949 . S
H729 C737 0.930 . S
H730 C738 0.930 . S
H731 C739 0.930 . S
H732 C742 0.930 . S
H733 C743 0.930 . S
C734 H728 0.949 . S
C734 C735 1.355 . S
C734 C736 1.415 . S
C735 C734 1.355 . S
C735 C737 1.419 . S
C736 C734 1.415 . S
C736 C741 1.425 . S
C736 C743 1.409 1_655 S
C737 H729 0.930 . S
C737 C735 1.419 . S
C737 C738 1.362 . S
C738 H730 0.930 . S
C738 C737 1.362 . S
C738 C741 1.409 . S
C739 H731 0.930 . S
C739 C740 1.355 . S
C739 C741 1.415 . S
C740 C739 1.355 . S
C740 C742 1.419 1_655 S
C741 C736 1.425 . S
C741 C738 1.409 . S
C741 C739 1.415 . S
C742 H732 0.930 . S
C742 C740 1.419 1_455 S
C742 C743 1.362 . S
C743 H733 0.930 . S
C743 C736 1.409 1_455 S
C743 C742 1.362 . S
H744 C750 0.930 . S
H745 C753 0.930 . S
H746 C754 0.930 . S
H747 C755 0.930 . S
H748 C758 0.930 . S
H749 C759 0.930 . S
C750 H744 0.930 . S
C750 C751 1.355 . S
C750 C752 1.415 . S
C751 C750 1.355 . S
C751 C753 1.419 . S
C752 C750 1.415 . S
C752 C757 1.425 . S
C752 C759 1.409 . S
C753 H745 0.930 . S
C753 C751 1.419 . S
C753 C754 1.362 . S
C754 H746 0.930 . S
C754 C753 1.362 . S
C754 C757 1.409 . S
C755 H747 0.930 . S
C755 C756 1.355 . S
C755 C757 1.415 . S
C756 C755 1.355 . S
C756 C758 1.419 . S
C757 C752 1.425 . S
C757 C754 1.409 . S
C757 C755 1.415 . S
C758 H748 0.930 . S
C758 C756 1.419 . S
C758 C759 1.362 . S
C759 H749 0.930 . S
C759 C752 1.409 . S
C759 C758 1.362 . S
H760 C766 0.930 . S
H761 C769 0.930 . S
H762 C770 0.930 . S
H763 C771 0.930 . S
H764 C774 0.930 . S
H765 C775 0.930 . S
C766 H760 0.930 . S
C766 C767 1.355 . S
C766 C768 1.415 . S
C767 C766 1.355 . S
C767 C769 1.419 . S
C768 C766 1.415 . S
C768 C773 1.425 . S
C768 C775 1.409 . S
C769 H761 0.930 . S
C769 C767 1.419 . S
C769 C770 1.362 . S
C770 H762 0.930 . S
C770 C769 1.362 . S
C770 C773 1.409 . S
C771 H763 0.930 . S
C771 C772 1.355 . S
C771 C773 1.415 . S
C772 C771 1.355 . S
C772 C774 1.419 . S
C773 C768 1.425 . S
C773 C770 1.409 . S
C773 C771 1.415 . S
C774 H764 0.930 . S
C774 C772 1.419 . S
C774 C775 1.362 . S
C775 H765 0.930 . S
C775 C768 1.409 . S
C775 C774 1.362 . S
H776 C782 0.930 . S
H777 C785 0.930 . S
H778 C786 0.930 . S
H779 C787 0.930 . S
H780 C790 0.930 . S
H781 C791 0.930 . S
C782 H776 0.930 . S
C782 C783 1.355 . S
C782 C784 1.415 . S
C783 C782 1.355 . S
C783 C785 1.419 . S
C784 C782 1.415 . S
C784 C789 1.425 . S
C784 C791 1.409 . S
C785 H777 0.930 . S
C785 C783 1.419 . S
C785 C786 1.362 . S
C786 H778 0.930 . S
C786 C785 1.362 . S
C786 C789 1.409 . S
C787 H779 0.930 . S
C787 C788 1.355 . S
C787 C789 1.415 . S
C788 C787 1.355 . S
C788 C790 1.419 . S
C789 C784 1.425 . S
C789 C786 1.409 . S
C789 C787 1.415 . S
C790 H780 0.930 . S
C790 C788 1.419 . S
C790 C791 1.362 . S
C791 H781 0.930 . S
C791 C784 1.409 . S
C791 C790 1.362 . S
C415 C61 1.910 . S
C420 C146 1.966 . S
C436 C230 2.027 . S
C431 C70 1.961 . S
C452 C296 1.973 . S
C447 C43 2.024 . S
C468 C380 1.950 . S
C463 C52 2.002 . S
C484 C135 1.970 1_565 S
C479 C25 1.865 . S
C495 C34 1.902 . S
C500 C219 2.005 . S
C511 C7 2.033 . S
C516 C307 1.976 . S
C527 C16 1.965 . S
C532 C391 1.901 . S
C548 C142 0.700 . S
C543 C50 0.791 . S
C564 C226 0.734 . S
C559 C59 0.643 . S
C580 C298 0.586 . S
C575 C67 0.678 . S
C591 C41 0.738 . S
C596 C382 0.611 . S
C607 C14 0.751 . S
C612 C130 0.727 . S
C628 C214 0.659 . S
C623 C23 0.771 . S
C644 C310 0.705 . S
C639 C31 0.569 . S
C655 C5 0.642 . S
C660 C394 0.662 . S
C671 C49 2.079 . S
C676 C139 2.136 . S
C687 C58 1.981 . S
C692 C223 2.114 . S
C708 C303 2.106 . S
C703 C68 1.953 . S
C724 C387 2.166 . S
C719 C40 1.935 . S
C735 C13 2.067 . S
C740 C128 2.120 . S
C756 C212 2.143 . S
C751 C22 2.056 . S
C772 C314 2.150 . S
C767 C32 1.895 . S
C783 C4 1.978 . S
C788 C398 2.148 . S
