# Generated by pormake.
# Topology apo, (3,6)-cn, num edge types: 1
# Building blocks:
#     Node 0, Type 0, BuildingBlock: KAKCAD_clean_linker_0, # of connection points: 3
#     Node 1, Type 0, BuildingBlock: KAKCAD_clean_linker_0, # of connection points: 3
#     Node 2, Type 0, BuildingBlock: KAKCAD_clean_linker_0, # of connection points: 3
#     Node 3, Type 0, BuildingBlock: KAKCAD_clean_linker_0, # of connection points: 3
#     Node 4, Type 0, BuildingBlock: KAKCAD_clean_linker_0, # of connection points: 3
#     Node 5, Type 0, BuildingBlock: KAKCAD_clean_linker_0, # of connection points: 3
#     Node 6, Type 0, BuildingBlock: KAKCAD_clean_linker_0, # of connection points: 3
#     Node 7, Type 0, BuildingBlock: KAKCAD_clean_linker_0, # of connection points: 3
#     Node 8, Type 1, BuildingBlock: MIDCAF_clean_sbu_0, # of connection points: 6
#     Node 9, Type 1, BuildingBlock: MIDCAF_clean_sbu_0, # of connection points: 6
#     Node 10, Type 1, BuildingBlock: MIDCAF_clean_sbu_0, # of connection points: 6
#     Node 11, Type 1, BuildingBlock: MIDCAF_clean_sbu_0, # of connection points: 6
#     Edge 12, Type (0, 1), BuildingBlock: UVAHIK_clean_linker_0, # of connection points: 2
#     Edge 13, Type (0, 1), BuildingBlock: UVAHIK_clean_linker_0, # of connection points: 2
#     Edge 14, Type (0, 1), BuildingBlock: UVAHIK_clean_linker_0, # of connection points: 2
#     Edge 15, Type (0, 1), BuildingBlock: UVAHIK_clean_linker_0, # of connection points: 2
#     Edge 16, Type (0, 1), BuildingBlock: UVAHIK_clean_linker_0, # of connection points: 2
#     Edge 17, Type (0, 1), BuildingBlock: UVAHIK_clean_linker_0, # of connection points: 2
#     Edge 18, Type (0, 1), BuildingBlock: UVAHIK_clean_linker_0, # of connection points: 2
#     Edge 19, Type (0, 1), BuildingBlock: UVAHIK_clean_linker_0, # of connection points: 2
#     Edge 20, Type (0, 1), BuildingBlock: UVAHIK_clean_linker_0, # of connection points: 2
#     Edge 21, Type (0, 1), BuildingBlock: UVAHIK_clean_linker_0, # of connection points: 2
#     Edge 22, Type (0, 1), BuildingBlock: UVAHIK_clean_linker_0, # of connection points: 2
#     Edge 23, Type (0, 1), BuildingBlock: UVAHIK_clean_linker_0, # of connection points: 2
#     Edge 24, Type (0, 1), BuildingBlock: UVAHIK_clean_linker_0, # of connection points: 2
#     Edge 25, Type (0, 1), BuildingBlock: UVAHIK_clean_linker_0, # of connection points: 2
#     Edge 26, Type (0, 1), BuildingBlock: UVAHIK_clean_linker_0, # of connection points: 2
#     Edge 27, Type (0, 1), BuildingBlock: UVAHIK_clean_linker_0, # of connection points: 2
#     Edge 28, Type (0, 1), BuildingBlock: UVAHIK_clean_linker_0, # of connection points: 2
#     Edge 29, Type (0, 1), BuildingBlock: UVAHIK_clean_linker_0, # of connection points: 2
#     Edge 30, Type (0, 1), BuildingBlock: UVAHIK_clean_linker_0, # of connection points: 2
#     Edge 31, Type (0, 1), BuildingBlock: UVAHIK_clean_linker_0, # of connection points: 2
#     Edge 32, Type (0, 1), BuildingBlock: UVAHIK_clean_linker_0, # of connection points: 2
#     Edge 33, Type (0, 1), BuildingBlock: UVAHIK_clean_linker_0, # of connection points: 2
#     Edge 34, Type (0, 1), BuildingBlock: UVAHIK_clean_linker_0, # of connection points: 2
#     Edge 35, Type (0, 1), BuildingBlock: UVAHIK_clean_linker_0, # of connection points: 2
# Relax obj value: 0.086
# Max RMSD: 0.099
# Mean RMSD: 0.089
data_MOF--net-apo--node1-MIDCAF_clean_sbu_0--node2-KAKCAD_clean_linker_0--edge1-UVAHIK_clean_linker_0
_symmetry_space_group_name_H-M    P1
_symmetry_Int_Tables_number       1
_symmetry_cell_setting            triclinic
loop_
_symmetry_equiv_pos_as_xyz
'x, y, z'
_cell_length_a     52.553149
_cell_length_b     62.716906
_cell_length_c     56.131421
_cell_angle_alpha  89.692974
_cell_angle_beta   89.985323
_cell_angle_gamma 90.246519
loop_
_atom_site_label
_atom_site_type_symbol
_atom_site_fract_x
_atom_site_fract_y
_atom_site_fract_z
_atom_type_partial_charge
C0 C 0.32596 0.4386 0.33374 0.0
C1 C 0.35169 0.43299 0.33065 0.0
C2 C 0.31011 0.42673 0.34885 0.0
C3 C 0.31969 0.40922 0.36158 0.0
C4 C 0.34516 0.40329 0.35831 0.0
C5 C 0.36091 0.41489 0.34283 0.0
C6 C 0.30335 0.39772 0.37897 0.0
C7 C 0.27943 0.3899 0.37215 0.0
C8 C 0.26331 0.37967 0.38873 0.0
C9 C 0.27162 0.37753 0.41255 0.0
C10 C 0.29573 0.38511 0.41961 0.0
C11 C 0.31143 0.39514 0.40259 0.0
C12 C 0.30464 0.38299 0.44475 0.0
C13 C 0.28824 0.38707 0.464 0.0
C14 C 0.3301 0.37771 0.44961 0.0
C15 C 0.33917 0.37723 0.473 0.0
C16 C 0.32303 0.38197 0.49222 0.0
C17 C 0.23815 0.37094 0.38092 0.0
C18 C 0.22384 0.38137 0.36312 0.0
C19 C 0.22858 0.35174 0.39054 0.0
C20 C 0.20558 0.34312 0.38242 0.0
C21 C 0.19177 0.35329 0.36424 0.0
C22 C 0.20108 0.37253 0.35472 0.0
C23 C 0.29733 0.38654 0.48749 0.0
H24 H 0.31815 0.45261 0.32515 0.0
H25 H 0.29056 0.43171 0.35125 0.0
H26 H 0.35289 0.38968 0.36777 0.0
H27 H 0.38037 0.4097 0.34058 0.0
H28 H 0.27373 0.39141 0.35367 0.0
H29 H 0.32972 0.40162 0.40788 0.0
H30 H 0.25939 0.36992 0.42562 0.0
H31 H 0.26858 0.39138 0.4609 0.0
H32 H 0.34314 0.37401 0.43528 0.0
H33 H 0.35892 0.37316 0.47603 0.0
H34 H 0.23016 0.39642 0.35562 0.0
H35 H 0.23915 0.343 0.40393 0.0
H36 H 0.28443 0.39039 0.50187 0.0
H37 H 0.19063 0.38083 0.34089 0.0
H38 H 0.19894 0.32814 0.38991 0.0
C39 C 0.19243 0.04285 0.88342 0.0
C40 C 0.16576 0.04207 0.88535 0.0
C41 C 0.2062 0.05987 0.89314 0.0
C42 C 0.19357 0.07648 0.90494 0.0
C43 C 0.16684 0.076 0.90613 0.0
C44 C 0.15312 0.05899 0.89652 0.0
C45 C 0.20812 0.0938 0.91687 0.0
C46 C 0.2296 0.10313 0.90607 0.0
C47 C 0.24313 0.1196 0.91743 0.0
C48 C 0.23521 0.12652 0.94008 0.0
C49 C 0.21386 0.11721 0.95115 0.0
C50 C 0.20049 0.10097 0.93941 0.0
C51 C 0.20531 0.12387 0.97515 0.0
C52 C 0.22188 0.12289 0.99476 0.0
C53 C 0.1797 0.12917 0.97894 0.0
C54 C 0.17057 0.13272 1.00195 0.0
C55 C 0.1868 0.13078 0.02174 0.0
C56 C 0.26506 0.12987 0.90517 0.0
C57 C 0.28448 0.11742 0.8952 0.0
C58 C 0.26613 0.15214 0.90242 0.0
C59 C 0.28593 0.16172 0.88949 0.0
C60 C 0.30529 0.14926 0.87942 0.0
C61 C 0.30453 0.12703 0.88265 0.0
C62 C 0.21265 0.12614 0.01789 0.0
H63 H 0.20273 0.02996 0.87508 0.0
H64 H 0.22678 0.05965 0.89209 0.0
H65 H 0.15647 0.08877 0.91463 0.0
H66 H 0.13256 0.05908 0.89787 0.0
H67 H 0.23538 0.09803 0.88846 0.0
H68 H 0.18439 0.09348 0.94824 0.0
H69 H 0.24558 0.13913 0.94903 0.0
H70 H 0.24167 0.11868 0.99229 0.0
H71 H 0.16655 0.13001 0.9641 0.0
H72 H 0.15053 0.13608 1.00432 0.0
H73 H 0.28412 0.10022 0.89711 0.0
H74 H 0.25131 0.16209 0.90977 0.0
H75 H 0.22561 0.12468 0.0328 0.0
H76 H 0.31916 0.11705 0.87501 0.0
H77 H 0.28616 0.1789 0.88741 0.0
C78 C 0.82558 0.0595 0.67798 0.0
C79 C 0.85129 0.06531 0.68116 0.0
C80 C 0.80956 0.07171 0.66351 0.0
C81 C 0.81893 0.08979 0.65152 0.0
C82 C 0.84441 0.09584 0.65483 0.0
C83 C 0.86035 0.08388 0.66966 0.0
C84 C 0.80229 0.102 0.63514 0.0
C85 C 0.7785 0.10927 0.64284 0.0
C86 C 0.76247 0.12071 0.62737 0.0
C87 C 0.77027 0.1243 0.60365 0.0
C88 C 0.7942 0.11721 0.59571 0.0
C89 C 0.81008 0.10617 0.61168 0.0
C90 C 0.803 0.12135 0.57089 0.0
C91 C 0.78699 0.11755 0.55128 0.0
C92 C 0.82804 0.12835 0.56666 0.0
C93 C 0.83706 0.13107 0.54344 0.0
C94 C 0.82131 0.12681 0.52376 0.0
C95 C 0.73802 0.12935 0.63643 0.0
C96 C 0.71538 0.12719 0.62333 0.0
C97 C 0.73719 0.13963 0.6586 0.0
C98 C 0.71428 0.14745 0.66757 0.0
C99 C 0.69149 0.14509 0.65469 0.0
C100 C 0.69235 0.13489 0.6324 0.0
C101 C 0.7961 0.12012 0.52794 0.0
H102 H 0.81792 0.04514 0.68606 0.0
H103 H 0.79 0.06663 0.66108 0.0
H104 H 0.85199 0.1099 0.64599 0.0
H105 H 0.8798 0.08919 0.67201 0.0
H106 H 0.77253 0.10611 0.66102 0.0
H107 H 0.82834 0.10028 0.60567 0.0
H108 H 0.75815 0.13327 0.59165 0.0
H109 H 0.76763 0.11203 0.55397 0.0
H110 H 0.84079 0.13161 0.58138 0.0
H111 H 0.85666 0.136 0.54092 0.0
H112 H 0.71539 0.11918 0.60628 0.0
H113 H 0.75439 0.14187 0.66893 0.0
H114 H 0.78344 0.11685 0.51317 0.0
H115 H 0.67518 0.13256 0.62208 0.0
H116 H 0.71457 0.15567 0.68448 0.0
C117 C 0.69254 0.45526 0.1308 0.0
C118 C 0.66587 0.45597 0.1289 0.0
C119 C 0.70628 0.43868 0.1204 0.0
C120 C 0.69366 0.42247 0.1078 0.0
C121 C 0.66694 0.42282 0.10656 0.0
C122 C 0.6532 0.43936 0.117 0.0
C123 C 0.70838 0.40602 0.09478 0.0
C124 C 0.72974 0.39631 0.10518 0.0
C125 C 0.74449 0.3815 0.09241 0.0
C126 C 0.73739 0.37655 0.06879 0.0
C127 C 0.71563 0.38571 0.05846 0.0
C128 C 0.70137 0.40042 0.07153 0.0
C129 C 0.70734 0.38013 0.034 0.0
C130 C 0.72384 0.38258 0.01447 0.0
C131 C 0.68207 0.37375 0.02994 0.0
C132 C 0.67325 0.37037 0.0068 0.0
C133 C 0.68941 0.37356 0.98713 0.0
C134 C 0.7668 0.37094 0.10401 0.0
C135 C 0.78194 0.38193 0.12071 0.0
C136 C 0.77278 0.34955 0.09902 0.0
C137 C 0.79316 0.33948 0.11042 0.0
C138 C 0.80786 0.35039 0.12737 0.0
C139 C 0.80204 0.37171 0.13242 0.0
C140 C 0.71488 0.37952 0.9912 0.0
H141 H 0.70285 0.46766 0.14013 0.0
H142 H 0.72685 0.43895 0.12156 0.0
H143 H 0.65663 0.41043 0.09722 0.0
H144 H 0.6327 0.43948 0.11506 0.0
H145 H 0.73446 0.4 0.12348 0.0
H146 H 0.68511 0.408 0.06322 0.0
H147 H 0.74857 0.36547 0.05844 0.0
H148 H 0.74337 0.38762 0.01715 0.0
H149 H 0.66899 0.37172 0.04471 0.0
H150 H 0.65348 0.36598 1.00425 0.0
H151 H 0.77839 0.39852 0.12472 0.0
H152 H 0.76138 0.34035 0.0867 0.0
H153 H 0.72777 0.38198 0.97637 0.0
H154 H 0.81325 0.38056 0.14522 0.0
H155 H 0.79707 0.32294 0.10637 0.0
C156 C 0.65635 0.56635 0.66548 0.0
C157 C 0.65511 0.54634 0.65437 0.0
C158 C 0.665 0.58429 0.65293 0.0
C159 C 0.6727 0.58264 0.62899 0.0
C160 C 0.67108 0.5627 0.61779 0.0
C161 C 0.66241 0.54477 0.63032 0.0
C162 C 0.68349 0.60141 0.61611 0.0
C163 C 0.70057 0.6151 0.62775 0.0
C164 C 0.71183 0.63236 0.61569 0.0
C165 C 0.70573 0.63608 0.59166 0.0
C166 C 0.68841 0.62272 0.57969 0.0
C167 C 0.67748 0.60536 0.59206 0.0
C168 C 0.68159 0.62693 0.55436 0.0
C169 C 0.67621 0.64774 0.54649 0.0
C170 C 0.68001 0.61012 0.53795 0.0
C171 C 0.67296 0.614 0.51429 0.0
C172 C 0.66712 0.63477 0.50645 0.0
C173 C 0.73057 0.64596 0.62825 0.0
C174 C 0.72483 0.65431 0.65076 0.0
C175 C 0.75476 0.64969 0.61845 0.0
C176 C 0.77312 0.66109 0.63123 0.0
C177 C 0.76756 0.66928 0.65396 0.0
C178 C 0.74303 0.66598 0.6634 0.0
C179 C 0.66899 0.65161 0.52286 0.0
H180 H 0.6505 0.56817 0.68385 0.0
H181 H 0.66565 0.59949 0.66199 0.0
H182 H 0.67723 0.56079 0.59951 0.0
H183 H 0.66205 0.52955 0.62131 0.0
H184 H 0.70591 0.61189 0.64607 0.0
H185 H 0.66386 0.59516 0.58309 0.0
H186 H 0.71455 0.64934 0.58229 0.0
H187 H 0.67695 0.661 0.55876 0.0
H188 H 0.68442 0.59395 0.54337 0.0
H189 H 0.6722 0.60068 0.50211 0.0
H190 H 0.70621 0.6518 0.65861 0.0
H191 H 0.75974 0.64319 0.60124 0.0
H192 H 0.66424 0.66775 0.51765 0.0
H193 H 0.73778 0.67243 0.68055 0.0
H194 H 0.79186 0.66299 0.62349 0.0
C195 C 0.8269 0.87009 0.03526 0.0
C196 C 0.85192 0.87625 0.02938 0.0
C197 C 0.81883 0.8695 0.05904 0.0
C198 C 0.83558 0.87504 0.07758 0.0
C199 C 0.86065 0.88104 0.07169 0.0
C200 C 0.8687 0.88166 0.04793 0.0
C201 C 0.82687 0.87497 0.10291 0.0
C202 C 0.8106 0.85878 0.11166 0.0
C203 C 0.80243 0.85881 0.13554 0.0
C204 C 0.81029 0.87538 0.15057 0.0
C205 C 0.82617 0.89179 0.14216 0.0
C206 C 0.83458 0.89138 0.11841 0.0
C207 C 0.83331 0.90965 0.15812 0.0
C208 C 0.81464 0.91988 0.17182 0.0
C209 C 0.85871 0.91654 0.15986 0.0
C210 C 0.86531 0.93326 0.17512 0.0
C211 C 0.84659 0.9436 0.18866 0.0
C212 C 0.78509 0.842 0.14496 0.0
C213 C 0.76247 0.83684 0.13292 0.0
C214 C 0.79013 0.83217 0.16703 0.0
C215 C 0.77255 0.81803 0.17723 0.0
C216 C 0.7494 0.8136 0.16573 0.0
C217 C 0.74472 0.82289 0.14328 0.0
C218 C 0.82118 0.93675 0.18682 0.0
H219 H 0.81337 0.86607 0.02143 0.0
H220 H 0.79929 0.86512 0.06285 0.0
H221 H 0.87421 0.88505 0.0855 0.0
H222 H 0.88822 0.88609 0.04413 0.0
H223 H 0.8047 0.8459 0.10008 0.0
H224 H 0.84642 0.9043 0.11179 0.0
H225 H 0.80377 0.87564 0.1689 0.0
H226 H 0.79487 0.91501 0.17069 0.0
H227 H 0.87349 0.90886 0.1496 0.0
H228 H 0.88502 0.93834 0.17602 0.0
H229 H 0.75805 0.84426 0.11596 0.0
H230 H 0.8075 0.83577 0.17662 0.0
H231 H 0.80637 0.94436 0.19712 0.0
H232 H 0.72714 0.81961 0.1339 0.0
H233 H 0.77665 0.81122 0.19458 0.0
C234 C 0.15877 0.93327 0.34014 0.0
C235 C 0.15968 0.9535 0.35075 0.0
C236 C 0.166 0.91511 0.35298 0.0
C237 C 0.1742 0.91676 0.37677 0.0
C238 C 0.17438 0.93691 0.3876 0.0
C239 C 0.16724 0.95506 0.37473 0.0
C240 C 0.18401 0.89777 0.38975 0.0
C241 C 0.20054 0.88368 0.37819 0.0
C242 C 0.21119 0.86632 0.39037 0.0
C243 C 0.20491 0.86283 0.41441 0.0
C244 C 0.18805 0.87654 0.42628 0.0
C245 C 0.17783 0.89408 0.41381 0.0
C246 C 0.18102 0.87251 0.45162 0.0
C247 C 0.17515 0.85178 0.45958 0.0
C248 C 0.17983 0.88938 0.46798 0.0
C249 C 0.17275 0.88562 0.49168 0.0
C250 C 0.16654 0.86491 0.49961 0.0
C251 C 0.22963 0.85244 0.37798 0.0
C252 C 0.22379 0.84401 0.3555 0.0
C253 C 0.25371 0.84861 0.38785 0.0
C254 C 0.2719 0.83706 0.37517 0.0
C255 C 0.26627 0.82881 0.35246 0.0
C256 C 0.24181 0.83219 0.34297 0.0
C257 C 0.16794 0.84803 0.48324 0.0
H258 H 0.15311 0.93152 0.3217 0.0
H259 H 0.16542 0.89978 0.34421 0.0
H260 H 0.18077 0.93874 0.40582 0.0
H261 H 0.16777 0.97038 0.38354 0.0
H262 H 0.20601 0.88671 0.35985 0.0
H263 H 0.16465 0.90464 0.4227 0.0
H264 H 0.21327 0.84947 0.42387 0.0
H265 H 0.17555 0.83847 0.44736 0.0
H266 H 0.1846 0.90549 0.4625 0.0
H267 H 0.17232 0.89897 0.50382 0.0
H268 H 0.20525 0.84662 0.3476 0.0
H269 H 0.25877 0.85518 0.40502 0.0
H270 H 0.16287 0.83193 0.48853 0.0
H271 H 0.2365 0.8257 0.32584 0.0
H272 H 0.2906 0.83512 0.38295 0.0
C273 C 0.32438 0.62991 0.97331 0.0
C274 C 0.34911 0.62324 0.97934 0.0
C275 C 0.31652 0.63068 0.94948 0.0
C276 C 0.33319 0.62481 0.93105 0.0
C277 C 0.35799 0.61836 0.93708 0.0
C278 C 0.36583 0.61757 0.96089 0.0
C279 C 0.32468 0.62491 0.90569 0.0
C280 C 0.30922 0.6414 0.89666 0.0
C281 C 0.30134 0.64139 0.8727 0.0
C282 C 0.30872 0.62457 0.85785 0.0
C283 C 0.32367 0.60779 0.86659 0.0
C284 C 0.33174 0.60817 0.89044 0.0
C285 C 0.32997 0.58945 0.851 0.0
C286 C 0.31118 0.58027 0.83641 0.0
C287 C 0.35458 0.58077 0.85085 0.0
C288 C 0.3602 0.56318 0.83658 0.0
C289 C 0.34128 0.55379 0.82229 0.0
C290 C 0.28454 0.65836 0.86306 0.0
C291 C 0.26194 0.66377 0.8749 0.0
C292 C 0.28995 0.66797 0.84093 0.0
C293 C 0.27271 0.68212 0.83045 0.0
C294 C 0.24954 0.68676 0.84175 0.0
C295 C 0.24453 0.67772 0.86427 0.0
C296 C 0.31675 0.56263 0.82226 0.0
H297 H 0.31089 0.63417 0.98706 0.0
H298 H 0.29718 0.63544 0.94553 0.0
H299 H 0.37149 0.61408 0.92335 0.0
H300 H 0.38516 0.61276 0.9648 0.0
H301 H 0.30371 0.65446 0.90809 0.0
H302 H 0.34278 0.59498 0.8974 0.0
H303 H 0.30243 0.62439 0.83946 0.0
H304 H 0.29196 0.58646 0.83629 0.0
H305 H 0.3695 0.58759 0.86175 0.0
H306 H 0.37921 0.55661 0.83718 0.0
H307 H 0.25723 0.65651 0.8919 0.0
H308 H 0.30731 0.66417 0.83148 0.0
H309 H 0.30181 0.55586 0.81133 0.0
H310 H 0.22693 0.68117 0.87349 0.0
H311 H 0.27705 0.68873 0.81305 0.0
Zn312 Zn 0.01982 0.16618 0.30533 0.0
Zn313 Zn 0.97091 0.1585 0.22407 0.0
Zn314 Zn 0.99472 0.16398 0.26517 0.0
C315 C 0.01959 0.14307 0.2171 0.0
C316 C 0.94304 0.1359 0.25787 0.0
O317 O 0.97081 0.14896 0.29374 0.0
O318 O 0.99518 0.15076 0.32577 0.0
C319 C 0.0107 0.20813 0.2904 0.0
O320 O 0.02107 0.14904 0.23903 0.0
O321 O 0.99878 0.14467 0.20601 0.0
O322 O 0.94243 0.14066 0.236 0.0
O323 O 0.96073 0.14352 0.27132 0.0
O324 O 0.02033 0.19751 0.30726 0.0
O325 O 1.00014 0.19858 0.27266 0.0
O326 O 0.03128 0.14651 0.26211 0.0
O327 O 0.05133 0.15111 0.29632 0.0
C328 C 0.05054 0.14303 0.2758 0.0
O329 O 0.9849 0.19654 0.2521 0.0
O330 O 0.96539 0.18919 0.21811 0.0
C331 C 0.97444 0.14539 0.31616 0.0
C332 C 0.97327 0.20267 0.23305 0.0
Zn333 Zn 0.51834 0.33344 0.70425 0.0
Zn334 Zn 0.47218 0.33565 0.78833 0.0
Zn335 Zn 0.49514 0.33395 0.74574 0.0
C336 C 0.44306 0.3598 0.75647 0.0
C337 C 0.47428 0.29267 0.77491 0.0
O338 O 0.5012 0.29989 0.73609 0.0
O339 O 0.51968 0.30223 0.70076 0.0
C340 C 0.55005 0.35599 0.73446 0.0
O341 O 0.46064 0.35375 0.74202 0.0
O342 O 0.44318 0.35364 0.77792 0.0
O343 O 0.46687 0.30451 0.79161 0.0
O344 O 0.48542 0.30068 0.75643 0.0
O345 O 0.54975 0.34886 0.71348 0.0
O346 O 0.53155 0.35172 0.74884 0.0
O347 O 0.47024 0.3502 0.71903 0.0
O348 O 0.49253 0.34928 0.68564 0.0
C349 C 0.47257 0.35451 0.69662 0.0
O350 O 0.52188 0.34837 0.77195 0.0
O351 O 0.50075 0.34914 0.80603 0.0
C352 C 0.51124 0.29095 0.71772 0.0
C353 C 0.5209 0.35273 0.79438 0.0
Zn354 Zn 0.00565 0.81889 0.79356 0.0
Zn355 Zn 0.97363 0.84726 0.72488 0.0
Zn356 Zn 0.99697 0.83722 0.75966 0.0
C357 C 0.97686 0.88406 0.75353 0.0
C358 C 0.94807 0.81251 0.74585 0.0
O359 O 0.03419 0.822 0.75623 0.0
O360 O 0.01929 0.79393 0.77519 0.0
C361 C 0.02546 0.8601 0.79926 0.0
O362 O 0.98696 0.87063 0.76818 0.0
O363 O 0.96987 0.8781 0.73308 0.0
O364 O 0.94446 0.8271 0.7306 0.0
O365 O 0.96832 0.81259 0.75835 0.0
O366 O 0.03232 0.8413 0.80447 0.0
O367 O 0.00612 0.86247 0.78533 0.0
O368 O 0.97823 0.85499 0.78891 0.0
O369 O 0.96927 0.8238 0.80502 0.0
C370 C 0.96466 0.8436 0.80338 0.0
O371 O 0.02755 0.83673 0.73341 0.0
O372 O 0.00193 0.83921 0.70248 0.0
C373 C 0.03659 0.80237 0.76249 0.0
C374 C 0.02413 0.83679 0.71079 0.0
Zn375 Zn 0.50443 0.67968 0.2139 0.0
Zn376 Zn 0.47238 0.65173 0.28302 0.0
Zn377 Zn 0.49556 0.66167 0.24796 0.0
C378 C 0.5231 0.66251 0.2966 0.0
C379 C 0.47518 0.61475 0.25467 0.0
O380 O 0.47656 0.64361 0.21899 0.0
O381 O 0.46801 0.67467 0.20254 0.0
C382 C 0.53542 0.69669 0.24457 0.0
O383 O 0.52632 0.66249 0.27396 0.0
O384 O 0.50096 0.66 0.30511 0.0
O385 O 0.4683 0.62082 0.2751 0.0
O386 O 0.48533 0.62812 0.23989 0.0
O387 O 0.51814 0.70494 0.23182 0.0
O388 O 0.53292 0.67711 0.25107 0.0
O389 O 0.50427 0.63616 0.22257 0.0
O390 O 0.53101 0.65713 0.20355 0.0
C391 C 0.5238 0.63838 0.20881 0.0
O392 O 0.46699 0.68615 0.24918 0.0
O393 O 0.44332 0.67179 0.27729 0.0
C394 C 0.46308 0.65491 0.20447 0.0
C395 C 0.44684 0.68624 0.26183 0.0
C396 C 0.16816 0.99153 0.33909 0.0
C397 C 0.15327 0.97299 0.33683 0.0
C398 C 0.16169 0.01016 0.32683 0.0
C399 C 0.12198 0.03212 0.27778 0.0
H400 H 0.12292 0.08287 0.31682 0.0
C401 C 0.06149 0.10728 0.25974 0.0
C402 C 0.06948 0.12659 0.26992 0.0
C403 C 0.0766 0.08903 0.26187 0.0
C404 C 0.1231 0.06907 0.30532 0.0
H405 H 0.12025 0.95934 0.31937 0.0
H406 H 0.10877 0.992 0.2981 0.0
H407 H 0.1394 0.04983 0.33277 0.0
H408 H 0.10079 0.14283 0.28719 0.0
H409 H 0.12776 0.1114 0.28971 0.0
H410 H 0.10499 0.05146 0.25049 0.0
C411 C 0.12567 0.99202 0.30914 0.0
C412 C 0.1325 0.05001 0.31459 0.0
C413 C 0.13218 0.97333 0.3214 0.0
C414 C 0.09409 0.12804 0.27945 0.0
C415 C 0.10938 0.10996 0.28115 0.0
C416 C 0.11263 0.05132 0.26841 0.0
C417 C 0.14012 0.01076 0.31203 0.0
C418 C 0.13177 0.03123 0.3011 0.0
C419 C 0.10009 0.08993 0.27391 0.0
C420 C 0.11278 0.07 0.2822 0.0
H421 H 0.18486 0.99166 0.35039 0.0
H422 H 0.1735 0.0242 0.32911 0.0
H423 H 0.1214 0.01795 0.26685 0.0
H424 H 0.04253 0.10572 0.25235 0.0
H425 H 0.06879 0.07395 0.25599 0.0
C426 C 0.36968 0.5323 0.79555 0.0
C427 C 0.3468 0.53427 0.80833 0.0
C428 C 0.37548 0.51333 0.78375 0.0
C429 C 0.36299 0.45641 0.78871 0.0
H430 H 0.39518 0.45274 0.7267 0.0
C431 C 0.40032 0.37634 0.759 0.0
C432 C 0.42508 0.37673 0.74973 0.0
C433 C 0.3858 0.39492 0.75951 0.0
C434 C 0.3863 0.45347 0.74408 0.0
H435 H 0.31183 0.51803 0.81829 0.0
H436 H 0.32198 0.48497 0.79775 0.0
H437 H 0.38006 0.48721 0.74111 0.0
H438 H 0.45334 0.39617 0.73174 0.0
H439 H 0.42862 0.42888 0.73357 0.0
H440 H 0.37034 0.42327 0.79264 0.0
C441 C 0.33542 0.4981 0.79685 0.0
C442 C 0.37761 0.47322 0.75229 0.0
C443 C 0.32954 0.51709 0.80848 0.0
C444 C 0.43419 0.39547 0.73888 0.0
C445 C 0.41994 0.41425 0.73997 0.0
C446 C 0.37191 0.43681 0.7807 0.0
C447 C 0.35862 0.49588 0.78468 0.0
C448 C 0.36611 0.4749 0.77481 0.0
C449 C 0.39612 0.41446 0.75153 0.0
C450 C 0.38397 0.43503 0.75838 0.0
H451 H 0.38324 0.54535 0.79491 0.0
H452 H 0.3936 0.51203 0.77467 0.0
H453 H 0.35463 0.45723 0.80632 0.0
H454 H 0.39282 0.36199 0.76728 0.0
H455 H 0.36713 0.39422 0.76764 0.0
C456 C 0.63085 0.51187 0.65687 0.0
C457 C 0.64665 0.52706 0.6678 0.0
C458 C 0.62394 0.4932 0.66891 0.0
C459 C 0.61866 0.46792 0.72825 0.0
H460 H 0.61892 0.41634 0.69057 0.0
C461 C 0.59341 0.37134 0.72984 0.0
C462 C 0.56917 0.37244 0.74021 0.0
C463 C 0.60835 0.38968 0.72746 0.0
C464 C 0.61922 0.43042 0.70164 0.0
H465 H 0.66718 0.53468 0.70021 0.0
H466 H 0.65498 0.50197 0.7213 0.0
H467 H 0.63321 0.44953 0.67286 0.0
H468 H 0.54272 0.39289 0.75874 0.0
H469 H 0.56834 0.42511 0.7539 0.0
H470 H 0.60445 0.44862 0.75706 0.0
C471 C 0.64785 0.50464 0.70343 0.0
C472 C 0.62701 0.4496 0.69127 0.0
C473 C 0.65481 0.52337 0.69135 0.0
C474 C 0.56139 0.39162 0.7507 0.0
C475 C 0.57612 0.41012 0.74787 0.0
C476 C 0.61082 0.44862 0.73871 0.0
C477 C 0.63266 0.48919 0.69219 0.0
C478 C 0.62629 0.46866 0.70422 0.0
C479 C 0.59901 0.40959 0.73482 0.0
C480 C 0.61061 0.42967 0.72538 0.0
H481 H 0.62378 0.51441 0.63896 0.0
H482 H 0.6117 0.48185 0.65993 0.0
H483 H 0.6179 0.48237 0.73871 0.0
H484 H 0.59993 0.35665 0.72185 0.0
H485 H 0.62632 0.38853 0.71813 0.0
C486 C 0.83906 0.98066 0.20351 0.0
C487 C 0.85341 0.96183 0.20422 0.0
C488 C 0.84609 0.99823 0.21726 0.0
C489 C 0.90235 0.0214 0.24738 0.0
H490 H 0.85286 0.06287 0.26863 0.0
C491 C 0.93605 0.10224 0.28085 0.0
C492 C 0.92623 0.11848 0.26622 0.0
C493 C 0.924 0.08229 0.28187 0.0
C494 C 0.86688 0.05132 0.26304 0.0
H495 H 0.88573 0.94629 0.22064 0.0
H496 H 0.89774 0.97677 0.24513 0.0
H497 H 0.83837 0.02853 0.25325 0.0
H498 H 0.89467 0.12757 0.24362 0.0
H499 H 0.87338 0.09306 0.24581 0.0
H500 H 0.9308 0.04436 0.25666 0.0
C501 C 0.88141 0.97822 0.23349 0.0
C502 C 0.85862 0.03171 0.25401 0.0
C503 C 0.87454 0.96072 0.21949 0.0
C504 C 0.90264 0.1153 0.255 0.0
C505 C 0.89044 0.09551 0.25629 0.0
C506 C 0.9106 0.04086 0.25665 0.0
C507 C 0.86751 0.99735 0.2323 0.0
C508 C 0.87622 0.01678 0.24529 0.0
C509 C 0.90178 0.07844 0.26857 0.0
C510 C 0.89295 0.05632 0.26386 0.0
H511 H 0.82283 0.98204 0.19172 0.0
H512 H 0.83519 0.01275 0.21541 0.0
H513 H 0.91653 0.01052 0.24061 0.0
H514 H 0.9543 0.10418 0.28955 0.0
H515 H 0.933 0.06947 0.2917 0.0
C516 C 0.89433 0.04894 0.68838 0.0
C517 C 0.86879 0.05145 0.69532 0.0
C518 C 0.91018 0.0346 0.7003 0.0
C519 C 0.91485 0.99877 0.75386 0.0
H520 H 0.95759 0.966 0.71148 0.0
C521 C 0.94942 0.91233 0.77018 0.0
C522 C 0.9726 0.90639 0.75986 0.0
C523 C 0.94094 0.93341 0.76826 0.0
C524 C 0.94623 0.97525 0.72375 0.0
H525 H 0.84055 0.04155 0.72143 0.0
H526 H 0.86769 0.01568 0.74124 0.0
H527 H 0.93439 0.99622 0.69597 0.0
H528 H 0.00615 0.91768 0.74134 0.0
H529 H 0.99179 0.95462 0.73853 0.0
H530 H 0.92587 0.97668 0.78135 0.0
C531 C 0.87566 0.02512 0.72684 0.0
C532 C 0.93286 0.99269 0.71482 0.0
C533 C 0.85989 0.03974 0.71514 0.0
C534 C 0.9883 0.92205 0.74963 0.0
C535 C 0.97994 0.9431 0.74781 0.0
C536 C 0.92811 0.98108 0.76278 0.0
C537 C 0.90088 0.02201 0.71924 0.0
C538 C 0.91673 0.00458 0.72963 0.0
C539 C 0.95553 0.94872 0.75585 0.0
C540 C 0.94375 0.96901 0.74772 0.0
H541 H 0.90197 0.05745 0.67314 0.0
H542 H 0.92964 0.03304 0.69423 0.0
H543 H 0.90291 0.00771 0.7659 0.0
H544 H 0.93687 0.90033 0.77776 0.0
H545 H 0.92201 0.93719 0.77455 0.0
C546 C 0.62782 0.47141 0.14978 0.0
C547 C 0.65138 0.47442 0.13833 0.0
C548 C 0.61375 0.4889 0.15767 0.0
C549 C 0.61975 0.54618 0.17257 0.0
H550 H 0.54673 0.54669 0.16265 0.0
C551 C 0.56025 0.62199 0.18689 0.0
C552 C 0.53702 0.61956 0.19902 0.0
C553 C 0.57371 0.60414 0.17916 0.0
C554 C 0.56706 0.54671 0.16576 0.0
H555 H 0.67848 0.49823 0.12604 0.0
H556 H 0.65402 0.52866 0.13977 0.0
H557 H 0.57139 0.5157 0.15054 0.0
H558 H 0.50929 0.59649 0.21179 0.0
H559 H 0.53286 0.56535 0.19854 0.0
H560 H 0.61546 0.57719 0.18772 0.0
C561 C 0.64658 0.51278 0.14302 0.0
C562 C 0.5812 0.52893 0.15886 0.0
C563 C 0.66064 0.49531 0.13517 0.0
C564 C 0.52721 0.59892 0.20268 0.0
C565 C 0.54065 0.58106 0.19491 0.0
C566 C 0.60563 0.56395 0.17944 0.0
C567 C 0.62291 0.5098 0.15427 0.0
C568 C 0.60774 0.52848 0.16211 0.0
C569 C 0.56422 0.58345 0.18332 0.0
C570 C 0.57913 0.56447 0.17603 0.0
H571 H 0.6203 0.45552 0.15277 0.0
H572 H 0.59578 0.48603 0.1666 0.0
H573 H 0.64008 0.54623 0.17571 0.0
H574 H 0.56832 0.63767 0.18374 0.0
H575 H 0.5916 0.60655 0.16993 0.0
C576 C 0.39464 0.4496 0.32266 0.0
C577 C 0.36906 0.44668 0.31596 0.0
C578 C 0.41032 0.46392 0.31033 0.0
C579 C 0.41415 0.4992 0.25615 0.0
H580 H 0.45731 0.53285 0.29757 0.0
C581 C 0.44749 0.58608 0.23888 0.0
C582 C 0.47092 0.59234 0.24857 0.0
C583 C 0.43924 0.56489 0.24105 0.0
C584 C 0.44582 0.52336 0.28558 0.0
H585 H 0.34061 0.45578 0.2898 0.0
H586 H 0.3674 0.48165 0.26932 0.0
H587 H 0.43457 0.50249 0.31373 0.0
H588 H 0.50507 0.58153 0.26625 0.0
H589 H 0.49104 0.54442 0.2696 0.0
H590 H 0.42452 0.52124 0.22832 0.0
C591 C 0.37556 0.47255 0.28385 0.0
C592 C 0.43271 0.50582 0.29487 0.0
C593 C 0.35997 0.45792 0.29593 0.0
C594 C 0.48703 0.57691 0.25843 0.0
C595 C 0.47887 0.55576 0.26055 0.0
C596 C 0.42711 0.517 0.24688 0.0
C597 C 0.4008 0.47611 0.29122 0.0
C598 C 0.41643 0.49361 0.28042 0.0
C599 C 0.45429 0.5498 0.25313 0.0
C600 C 0.44289 0.52939 0.2616 0.0
H601 H 0.40245 0.44147 0.33804 0.0
H602 H 0.42981 0.46579 0.31623 0.0
H603 H 0.40211 0.49002 0.24436 0.0
H604 H 0.43463 0.59789 0.23158 0.0
H605 H 0.42018 0.56084 0.23524 0.0
C606 C 0.13146 0.01448 0.89033 0.0
C607 C 0.15115 0.0234 0.87648 0.0
C608 C 0.11776 0.99682 0.88224 0.0
C609 C 0.10021 0.96786 0.8278 0.0
H610 H 0.08468 0.92159 0.87165 0.0
C611 C 0.05984 0.87609 0.82456 0.0
C612 C 0.03866 0.87881 0.80958 0.0
C613 C 0.07317 0.89377 0.83321 0.0
C614 C 0.08896 0.93433 0.85916 0.0
H615 H 0.17174 0.02084 0.84316 0.0
H616 H 0.14783 0.98985 0.82902 0.0
H617 H 0.10933 0.95221 0.88543 0.0
H618 H 0.01456 0.90229 0.79244 0.0
H619 H 0.03778 0.93309 0.80748 0.0
H620 H 0.08003 0.94989 0.80147 0.0
C621 C 0.14295 0.99664 0.84612 0.0
C622 C 0.10288 0.95196 0.86711 0.0
C623 C 0.15679 0.01425 0.8543 0.0
C624 C 0.03086 0.8996 0.80378 0.0
C625 C 0.04426 0.91728 0.81232 0.0
C626 C 0.08614 0.9503 0.81989 0.0
C627 C 0.12333 0.9877 0.86004 0.0
C628 C 0.10868 0.96891 0.85151 0.0
C629 C 0.06568 0.91456 0.82699 0.0
C630 C 0.08039 0.93333 0.83548 0.0
H631 H 0.12683 0.02101 0.90762 0.0
H632 H 0.1026 0.99043 0.89328 0.0
H633 H 0.10419 0.98075 0.81541 0.0
H634 H 0.06641 0.86028 0.82933 0.0
H635 H 0.08972 0.89114 0.84432 0.0
C636 C 0.15889 0.14844 0.05207 0.0
C637 C 0.1762 0.13227 0.04624 0.0
C638 C 0.14689 0.14858 0.07431 0.0
C639 C 0.13227 0.15001 0.12694 0.0
H640 H 0.1005 0.09665 0.14601 0.0
C641 C 0.06653 0.14494 0.20916 0.0
C642 C 0.04248 0.13637 0.20376 0.0
C643 C 0.087 0.14218 0.19347 0.0
C644 C 0.10944 0.11162 0.14104 0.0
H645 H 0.1949 0.1038 0.05937 0.0
H646 H 0.17382 0.10399 0.09825 0.0
H647 H 0.12886 0.09757 0.11151 0.0
H648 H 0.02145 0.11694 0.17867 0.0
H649 H 0.05711 0.11187 0.1516 0.0
H650 H 0.11213 0.16422 0.15594 0.0
C651 C 0.16958 0.11657 0.08559 0.0
C652 C 0.12581 0.11213 0.12138 0.0
C653 C 0.18181 0.11657 0.06342 0.0
C654 C 0.03976 0.12376 0.18329 0.0
C655 C 0.06024 0.12078 0.16782 0.0
C656 C 0.1161 0.14946 0.14675 0.0
C657 C 0.15173 0.13242 0.09116 0.0
C658 C 0.13692 0.13144 0.11375 0.0
C659 C 0.08386 0.13056 0.17229 0.0
C660 C 0.10401 0.13036 0.15367 0.0
H661 H 0.15429 0.1608 0.03925 0.0
H662 H 0.13307 0.1609 0.07796 0.0
H663 H 0.14072 0.16508 0.12162 0.0
H664 H 0.06916 0.1549 0.22467 0.0
H665 H 0.10505 0.14975 0.19749 0.0
C666 C 0.31974 0.37388 0.53625 0.0
C667 C 0.33333 0.3827 0.51695 0.0
C668 C 0.33007 0.37407 0.55929 0.0
C669 C 0.38033 0.40001 0.59603 0.0
H670 H 0.37901 0.34729 0.63239 0.0
C671 C 0.45774 0.3766 0.6625 0.0
C672 C 0.45172 0.36434 0.68275 0.0
C673 C 0.43888 0.3825 0.64632 0.0
C674 C 0.37909 0.36231 0.62277 0.0
H675 H 0.36802 0.39931 0.50695 0.0
H676 H 0.38613 0.39934 0.54679 0.0
H677 H 0.35426 0.35015 0.59574 0.0
H678 H 0.42097 0.34962 0.70267 0.0
H679 H 0.38773 0.35984 0.67409 0.0
H680 H 0.40599 0.41186 0.62254 0.0
C681 C 0.36743 0.39239 0.54428 0.0
C682 C 0.36493 0.36394 0.6017 0.0
C683 C 0.35719 0.39211 0.52132 0.0
C684 C 0.42612 0.35918 0.68727 0.0
C685 C 0.40716 0.36485 0.67081 0.0
C686 C 0.39449 0.39838 0.61705 0.0
C687 C 0.35412 0.38326 0.56356 0.0
C688 C 0.36603 0.38258 0.58767 0.0
C689 C 0.4135 0.37609 0.64981 0.0
C690 C 0.39469 0.37928 0.63027 0.0
H691 H 0.30136 0.36643 0.53348 0.0
H692 H 0.31925 0.367 0.57376 0.0
H693 H 0.38114 0.41478 0.58597 0.0
H694 H 0.47732 0.38085 0.65859 0.0
H695 H 0.44453 0.39097 0.63029 0.0
C696 C 0.68342 0.38787 0.94562 0.0
C697 C 0.6791 0.37167 0.96257 0.0
C698 C 0.67128 0.3873 0.92341 0.0
C699 C 0.62702 0.38923 0.88791 0.0
H700 H 0.61711 0.33674 0.85282 0.0
C701 C 0.5405 0.37233 0.8283 0.0
C702 C 0.54362 0.36038 0.80741 0.0
C703 C 0.56117 0.37645 0.84322 0.0
C704 C 0.62002 0.35163 0.86215 0.0
H705 H 0.65969 0.34166 0.9691 0.0
H706 H 0.63865 0.34056 0.93036 0.0
H707 H 0.64641 0.33745 0.88662 0.0
H708 H 0.57107 0.34415 0.78523 0.0
H709 H 0.60735 0.35122 0.81154 0.0
H710 H 0.5999 0.40319 0.864 0.0
C711 C 0.65138 0.35373 0.93419 0.0
C712 C 0.6366 0.35197 0.88166 0.0
C713 C 0.66326 0.35443 0.95646 0.0
C714 C 0.56814 0.35357 0.8011 0.0
C715 C 0.58884 0.35744 0.81626 0.0
C716 C 0.61024 0.38883 0.86856 0.0
C717 C 0.65483 0.37036 0.91759 0.0
C718 C 0.63986 0.37065 0.89508 0.0
C719 C 0.58542 0.36848 0.83779 0.0
C720 C 0.60613 0.3699 0.85579 0.0
H721 H 0.69538 0.40143 0.94988 0.0
H722 H 0.67444 0.40028 0.91094 0.0
H723 H 0.62897 0.40384 0.89796 0.0
H724 H 0.52182 0.3778 0.83361 0.0
H725 H 0.55782 0.38484 0.85974 0.0
C726 C 0.84789 0.14588 0.49309 0.0
C727 C 0.83169 0.12879 0.49912 0.0
C728 C 0.85998 0.14663 0.47094 0.0
C729 C 0.86104 0.12432 0.40981 0.0
H730 H 0.93269 0.13876 0.41395 0.0
C731 C 0.96124 0.12502 0.35216 0.0
C732 C 0.95421 0.13657 0.33173 0.0
C733 C 0.94371 0.12114 0.37033 0.0
C734 C 0.91276 0.13448 0.41243 0.0
H735 H 0.81466 0.09955 0.48608 0.0
H736 H 0.83589 0.10086 0.44728 0.0
H737 H 0.90677 0.13898 0.44967 0.0
H738 H 0.92274 0.15151 0.31329 0.0
H739 H 0.8919 0.14498 0.34543 0.0
H740 H 0.86741 0.1197 0.37233 0.0
C741 C 0.83907 0.11375 0.45971 0.0
C742 C 0.89779 0.13491 0.43292 0.0
C743 C 0.82691 0.113 0.48195 0.0
C744 C 0.92864 0.14254 0.32886 0.0
C745 C 0.91102 0.13883 0.34729 0.0
C746 C 0.8761 0.12401 0.38913 0.0
C747 C 0.85627 0.1303 0.4542 0.0
C748 C 0.87174 0.1299 0.43194 0.0
C749 C 0.91876 0.12898 0.3687 0.0
C750 C 0.90221 0.12895 0.39027 0.0
H751 H 0.85156 0.15855 0.50568 0.0
H752 H 0.87265 0.15987 0.46707 0.0
H753 H 0.84099 0.12045 0.40845 0.0
H754 H 0.98075 0.11995 0.35469 0.0
H755 H 0.9501 0.11294 0.38626 0.0
C756 C 0.87645 0.89344 0.99571 0.0
C757 C 0.86058 0.87688 1.00406 0.0
C758 C 0.88503 0.89376 0.97208 0.0
C759 C 0.8725 0.87029 0.91231 0.0
H760 H 0.94335 0.88422 0.90047 0.0
C761 C 0.92791 0.84045 0.83109 0.0
C762 C 0.94714 0.85318 0.82092 0.0
C763 C 0.91439 0.84742 0.85095 0.0
C764 C 0.92339 0.88072 0.90334 0.0
H765 H 0.84142 0.84761 0.99396 0.0
H766 H 0.85645 0.84806 0.95293 0.0
H767 H 0.92594 0.88808 0.94047 0.0
H768 H 0.96639 0.88374 0.82274 0.0
H769 H 0.94272 0.89599 0.85782 0.0
H770 H 0.87024 0.86222 0.87533 0.0
C771 C 0.8619 0.86107 0.96449 0.0
C772 C 0.91338 0.88288 0.92633 0.0
C773 C 0.8533 0.86078 0.98808 0.0
C774 C 0.95157 0.87363 0.83017 0.0
C775 C 0.93821 0.88054 0.85037 0.0
C776 C 0.88252 0.86808 0.88936 0.0
C777 C 0.87797 0.87752 0.95616 0.0
C778 C 0.88795 0.87723 0.93125 0.0
C779 C 0.91992 0.86724 0.86135 0.0
C780 C 0.90824 0.87279 0.8847 0.0
H781 H 0.88211 0.9063 0.0074 0.0
H782 H 0.89707 0.90683 0.96624 0.0
H783 H 0.85269 0.86626 0.91528 0.0
H784 H 0.92405 0.82462 0.82429 0.0
H785 H 0.90063 0.83667 0.859 0.0
C786 C 0.66555 0.65747 0.46919 0.0
C787 C 0.65839 0.63877 0.48151 0.0
C788 C 0.65627 0.66166 0.44625 0.0
C789 C 0.62531 0.63634 0.394 0.0
H790 H 0.59671 0.69244 0.38316 0.0
C791 C 0.56892 0.65697 0.30813 0.0
C792 C 0.54461 0.66494 0.31337 0.0
C793 C 0.5877 0.65617 0.32592 0.0
C794 C 0.60484 0.67676 0.38581 0.0
H795 H 0.63587 0.60978 0.47906 0.0
H796 H 0.62 0.61697 0.43912 0.0
H797 H 0.62027 0.68525 0.41977 0.0
H798 H 0.52148 0.6797 0.34064 0.0
H799 H 0.55411 0.67868 0.37124 0.0
H800 H 0.60889 0.62762 0.36046 0.0
C801 C 0.63305 0.62828 0.44708 0.0
C802 C 0.61847 0.67267 0.40673 0.0
C803 C 0.64218 0.62416 0.47004 0.0
C804 C 0.53999 0.67335 0.33611 0.0
C805 C 0.55877 0.67289 0.35363 0.0
C806 C 0.61183 0.64048 0.37298 0.0
C807 C 0.63975 0.64718 0.435 0.0
C808 C 0.62825 0.65224 0.41139 0.0
C809 C 0.5826 0.66376 0.349 0.0
C810 C 0.6008 0.66056 0.36898 0.0
H811 H 0.67835 0.66893 0.47725 0.0
H812 H 0.66201 0.67626 0.43733 0.0
H813 H 0.6329 0.62051 0.39693 0.0
H814 H 0.57295 0.65035 0.29076 0.0
H815 H 0.60597 0.64915 0.32181 0.0
C816 C 0.3728 0.60547 0.01302 0.0
C817 C 0.35754 0.62233 1.00471 0.0
C818 C 0.38129 0.60492 0.03666 0.0
C819 C 0.36955 0.62835 0.0965 0.0
H820 H 0.44014 0.61383 0.10804 0.0
C821 C 0.42601 0.65801 0.17722 0.0
C822 C 0.44519 0.64527 0.18724 0.0
C823 C 0.41216 0.65099 0.15755 0.0
C824 C 0.42023 0.61749 0.10526 0.0
H825 H 0.33933 0.65187 0.0149 0.0
H826 H 0.35419 0.651 0.05598 0.0
H827 H 0.42247 0.61014 0.06812 0.0
H828 H 0.46395 0.61464 0.18542 0.0
H829 H 0.43968 0.60229 0.15068 0.0
H830 H 0.36761 0.63641 0.1335 0.0
C831 C 0.35924 0.63795 0.04436 0.0
C832 C 0.41009 0.61543 0.08232 0.0
C833 C 0.35073 0.63848 0.02074 0.0
C834 C 0.4492 0.62475 0.17809 0.0
C835 C 0.43548 0.61779 0.15809 0.0
C836 C 0.3797 0.63045 0.11942 0.0
C837 C 0.37475 0.62123 0.05262 0.0
C838 C 0.38478 0.62132 0.07751 0.0
C839 C 0.41728 0.63111 0.14722 0.0
C840 C 0.40535 0.62554 0.12396 0.0
H841 H 0.37806 0.59257 1.00129 0.0
H842 H 0.3929 0.59165 0.04246 0.0
H843 H 0.34983 0.63258 0.0936 0.0
H844 H 0.42247 0.67388 0.18395 0.0
H845 H 0.39848 0.66175 0.14958 0.0
C846 C 0.165 0.84231 0.53694 0.0
C847 C 0.15798 0.861 0.52463 0.0
C848 C 0.15586 0.83818 0.55995 0.0
C849 C 0.12546 0.86356 0.61236 0.0
H850 H 0.09672 0.80735 0.62354 0.0
C851 C 0.06983 0.84267 0.6988 0.0
C852 C 0.04547 0.83451 0.69381 0.0
C853 C 0.08842 0.84361 0.68083 0.0
C854 C 0.10489 0.82306 0.62079 0.0
H855 H 0.13587 0.89005 0.52719 0.0
H856 H 0.12019 0.88293 0.56726 0.0
H857 H 0.11997 0.81458 0.58672 0.0
H858 H 0.02204 0.8196 0.66678 0.0
H859 H 0.05432 0.82085 0.63584 0.0
H860 H 0.10937 0.87224 0.64603 0.0
C861 C 0.13304 0.87159 0.55923 0.0
C862 C 0.11835 0.82718 0.59975 0.0
C863 C 0.14206 0.87567 0.5362 0.0
C864 C 0.0406 0.82608 0.67112 0.0
C865 C 0.05918 0.82668 0.6534 0.0
C866 C 0.11213 0.85938 0.6335 0.0
C867 C 0.13958 0.85268 0.57129 0.0
C868 C 0.12819 0.84764 0.59498 0.0
C869 C 0.08306 0.83598 0.65779 0.0
C870 C 0.10107 0.83925 0.63763 0.0
H871 H 0.17759 0.83082 0.52881 0.0
H872 H 0.16149 0.82358 0.56885 0.0
H873 H 0.1331 0.87941 0.60936 0.0
H874 H 0.07405 0.84932 0.71613 0.0
H875 H 0.10673 0.85076 0.68475 0.0
C876 C 0.16454 0.34066 0.33033 0.0
C877 C 0.16798 0.34357 0.35493 0.0
C878 C 0.14286 0.33019 0.32168 0.0
C879 C 0.09244 0.2927 0.34226 0.0
H880 H 0.06287 0.30419 0.28021 0.0
C881 C 0.0099 0.24215 0.31211 0.0
C882 C 0.01491 0.23133 0.29082 0.0
C883 C 0.02322 0.26075 0.3177 0.0
C884 C 0.0709 0.30089 0.29761 0.0
H885 H 0.15092 0.33888 0.38966 0.0
H886 H 0.1127 0.32138 0.37469 0.0
H887 H 0.09722 0.32704 0.29517 0.0
H888 H 0.03557 0.23255 0.25751 0.0
H889 H 0.05908 0.26518 0.26729 0.0
H890 H 0.06642 0.26658 0.34473 0.0
C891 C 0.12707 0.32641 0.362 0.0
C892 C 0.09069 0.31387 0.30616 0.0
C893 C 0.14892 0.33654 0.37064 0.0
C894 C 0.03114 0.2408 0.2739 0.0
C895 C 0.04473 0.2594 0.27961 0.0
C896 C 0.07258 0.27999 0.33389 0.0
C897 C 0.12396 0.32264 0.33743 0.0
C898 C 0.10189 0.30982 0.32856 0.0
C899 C 0.04208 0.26871 0.30224 0.0
C900 C 0.06163 0.2838 0.31143 0.0
H901 H 0.17905 0.34583 0.31784 0.0
H902 H 0.14142 0.32738 0.30272 0.0
H903 H 0.1009 0.28857 0.35925 0.0
H904 H 0.99756 0.23507 0.32547 0.0
H905 H 0.02035 0.26784 0.33505 0.0
C906 C 0.32036 0.17408 0.84714 0.0
C907 C 0.32604 0.15942 0.86537 0.0
C908 C 0.33988 0.18391 0.83409 0.0
C909 C 0.40512 0.20182 0.83972 0.0
H910 H 0.40383 0.2069 0.77086 0.0
C911 C 0.47677 0.25702 0.79402 0.0
C912 C 0.4667 0.27012 0.77609 0.0
C913 C 0.46373 0.23862 0.80133 0.0
C914 C 0.40445 0.20582 0.7901 0.0
H915 H 0.35656 0.14348 0.8842 0.0
H916 H 0.39079 0.16116 0.86178 0.0
H917 H 0.37188 0.18504 0.79121 0.0
H918 H 0.43607 0.2739 0.75079 0.0
H919 H 0.41277 0.24239 0.76389 0.0
H920 H 0.43636 0.22357 0.83914 0.0
C921 C 0.3712 0.16481 0.85744 0.0
C922 C 0.38617 0.19318 0.80172 0.0
C923 C 0.35165 0.15467 0.87019 0.0
C924 C 0.44445 0.26374 0.76432 0.0
C925 C 0.43106 0.24562 0.77198 0.0
C926 C 0.42307 0.21476 0.8282 0.0
C927 C 0.3655 0.17956 0.83928 0.0
C928 C 0.38612 0.19132 0.82667 0.0
C929 C 0.43986 0.23338 0.79143 0.0
C930 C 0.42281 0.21726 0.80321 0.0
H931 H 0.30078 0.17791 0.84294 0.0
H932 H 0.33494 0.19536 0.82035 0.0
H933 H 0.40538 0.20085 0.859 0.0
H934 H 0.49379 0.26182 0.80351 0.0
H935 H 0.47166 0.22926 0.81577 0.0
C936 C 0.66199 0.15288 0.689 0.0
C937 C 0.66714 0.15364 0.66438 0.0
C938 C 0.64 0.16221 0.69829 0.0
C939 C 0.57632 0.18282 0.68199 0.0
H940 H 0.58738 0.22253 0.73369 0.0
C941 C 0.5177 0.25794 0.69449 0.0
C942 C 0.51622 0.26781 0.71683 0.0
C943 C 0.53011 0.2385 0.69192 0.0
C944 C 0.58363 0.2111 0.71972 0.0
H945 H 0.65262 0.16452 0.63024 0.0
H946 H 0.61417 0.18045 0.6464 0.0
H947 H 0.62166 0.19909 0.72139 0.0
H948 H 0.52421 0.26407 0.75445 0.0
H949 H 0.54577 0.22972 0.75007 0.0
H950 H 0.53851 0.19524 0.67985 0.0
C951 C 0.62712 0.17249 0.6585 0.0
C952 C 0.6034 0.19771 0.71256 0.0
C953 C 0.64921 0.16333 0.64923 0.0
C954 C 0.52503 0.25678 0.73702 0.0
C955 C 0.53767 0.23726 0.73443 0.0
C956 C 0.55646 0.19607 0.68927 0.0
C957 C 0.62245 0.17232 0.68317 0.0
C958 C 0.60026 0.18397 0.69308 0.0
C959 C 0.54146 0.22844 0.71165 0.0
C960 C 0.56016 0.21098 0.70763 0.0
H961 H 0.67504 0.14516 0.70119 0.0
H962 H 0.6368 0.16161 0.71735 0.0
H963 H 0.57317 0.17209 0.66721 0.0
H964 H 0.51098 0.26608 0.67863 0.0
H965 H 0.53267 0.23238 0.67408 0.0
C966 C 0.83098 0.33977 0.16478 0.0
C967 C 0.82907 0.33941 0.13981 0.0
C968 C 0.85007 0.32821 0.17649 0.0
C969 C 0.8938 0.28277 0.16589 0.0
H970 H 0.92472 0.30037 0.22543 0.0
C971 C 0.97271 0.23302 0.20499 0.0
C972 C 0.96766 0.22523 0.22798 0.0
C973 C 0.95989 0.25081 0.19622 0.0
C974 C 0.91621 0.29531 0.20881 0.0
H975 H 0.84636 0.3277 0.10746 0.0
H976 H 0.88014 0.30825 0.12763 0.0
H977 H 0.89396 0.32378 0.20552 0.0
H978 H 0.94709 0.23093 0.2607 0.0
H979 H 0.9244 0.26232 0.2453 0.0
H980 H 0.916 0.25448 0.16899 0.0
C981 C 0.86643 0.31671 0.13838 0.0
C982 C 0.89849 0.30863 0.19743 0.0
C983 C 0.84714 0.32795 0.12675 0.0
C984 C 0.95152 0.23684 0.243 0.0
C985 C 0.93845 0.2547 0.23412 0.0
C986 C 0.91162 0.2697 0.17703 0.0
C987 C 0.86786 0.31625 0.16345 0.0
C988 C 0.88707 0.30253 0.17574 0.0
C989 C 0.94149 0.26106 0.21018 0.0
C990 C 0.92313 0.27579 0.19855 0.0
H991 H 0.81719 0.34841 0.17529 0.0
H992 H 0.85032 0.32811 0.19578 0.0
H993 H 0.88494 0.27709 0.14969 0.0
H994 H 0.98504 0.22427 0.19307 0.0
H995 H 0.96301 0.25561 0.17788 0.0
C996 C 0.80511 0.69433 0.65627 0.0
C997 C 0.78729 0.68105 0.66786 0.0
C998 C 0.82355 0.70536 0.66929 0.0
C999 C 0.83546 0.72882 0.7272 0.0
H1000 H 0.9056 0.7312 0.70572 0.0
C1001 C 0.93768 0.77364 0.74947 0.0
C1002 C 0.92953 0.79485 0.74719 0.0
C1003 C 0.92064 0.75682 0.74526 0.0
C1004 C 0.8862 0.7304 0.71221 0.0
H1005 H 0.77547 0.66875 0.70243 0.0
H1006 H 0.80711 0.68872 0.72511 0.0
H1007 H 0.87551 0.70711 0.68622 0.0
H1008 H 0.89703 0.8152 0.74075 0.0
H1009 H 0.86722 0.78596 0.73414 0.0
H1010 H 0.84589 0.75289 0.75242 0.0
C1011 C 0.80671 0.69044 0.7059 0.0
C1012 C 0.86894 0.7168 0.70089 0.0
C1013 C 0.78848 0.67914 0.69286 0.0
C1014 C 0.90376 0.79896 0.74257 0.0
C1015 C 0.88669 0.78223 0.73888 0.0
C1016 C 0.85264 0.74266 0.7383 0.0
C1017 C 0.82445 0.70362 0.69423 0.0
C1018 C 0.8433 0.71622 0.70794 0.0
C1019 C 0.89514 0.76102 0.73929 0.0
C1020 C 0.87805 0.74389 0.73058 0.0
H1021 H 0.80456 0.69657 0.63714 0.0
H1022 H 0.83675 0.7157 0.65987 0.0
H1023 H 0.81577 0.72872 0.73293 0.0
H1024 H 0.95751 0.77009 0.75285 0.0
H1025 H 0.92759 0.74059 0.74576 0.0
C1026 C 0.73598 0.78115 0.1893 0.0
C1027 C 0.72963 0.80037 0.17777 0.0
C1028 C 0.71735 0.76921 0.20135 0.0
C1029 C 0.65476 0.77439 0.23022 0.0
H1030 H 0.64639 0.71415 0.21709 0.0
C1031 C 0.56011 0.73064 0.24311 0.0
C1032 C 0.55954 0.70862 0.24783 0.0
C1033 C 0.5832 0.74143 0.24048 0.0
C1034 C 0.64877 0.73083 0.22147 0.0
H1035 H 0.69886 0.82226 0.1701 0.0
H1036 H 0.66643 0.80151 0.19113 0.0
H1037 H 0.68243 0.7336 0.20002 0.0
H1038 H 0.58281 0.68097 0.25541 0.0
H1039 H 0.62342 0.69996 0.25113 0.0
H1040 H 0.62104 0.77182 0.2514 0.0
C1041 C 0.68579 0.79565 0.19087 0.0
C1042 C 0.66938 0.742 0.21155 0.0
C1043 C 0.7043 0.80741 0.17858 0.0
C1044 C 0.58263 0.69794 0.25175 0.0
C1045 C 0.60588 0.70878 0.24902 0.0
C1046 C 0.63433 0.76322 0.24031 0.0
C1047 C 0.6921 0.77646 0.20245 0.0
C1048 C 0.67214 0.76403 0.21524 0.0
C1049 C 0.60642 0.73052 0.24253 0.0
C1050 C 0.63058 0.74144 0.23546 0.0
H1051 H 0.75534 0.7753 0.18891 0.0
H1052 H 0.72277 0.75449 0.21013 0.0
H1053 H 0.6567 0.79128 0.23377 0.0
H1054 H 0.54264 0.73937 0.2401 0.0
H1055 H 0.58271 0.75808 0.2353 0.0
C1056 C 0.28715 0.8188 0.31363 0.0
C1057 C 0.28587 0.81696 0.33864 0.0
C1058 C 0.30535 0.8075 0.30067 0.0
C1059 C 0.36748 0.78155 0.30593 0.0
H1060 H 0.3446 0.74501 0.2546 0.0
C1061 C 0.4364 0.725 0.25785 0.0
C1062 C 0.42828 0.70374 0.26034 0.0
C1063 C 0.41932 0.74171 0.26189 0.0
C1064 C 0.3513 0.75538 0.26867 0.0
H1065 H 0.30291 0.80154 0.36945 0.0
H1066 H 0.33506 0.78244 0.34687 0.0
H1067 H 0.31441 0.76905 0.27388 0.0
H1068 H 0.39581 0.68317 0.26697 0.0
H1069 H 0.36594 0.7122 0.27327 0.0
H1070 H 0.40416 0.76742 0.30126 0.0
C1071 C 0.32195 0.79271 0.33738 0.0
C1072 C 0.33408 0.76914 0.27964 0.0
C1073 C 0.30353 0.80373 0.35031 0.0
C1074 C 0.40252 0.69944 0.26499 0.0
C1075 C 0.38541 0.71606 0.2685 0.0
C1076 C 0.38478 0.76803 0.29473 0.0
C1077 C 0.32297 0.79441 0.31244 0.0
C1078 C 0.34186 0.7819 0.29884 0.0
C1079 C 0.39382 0.73733 0.26788 0.0
C1080 C 0.3767 0.75438 0.27643 0.0
H1081 H 0.27426 0.82914 0.304 0.0
H1082 H 0.30584 0.80918 0.28146 0.0
H1083 H 0.37399 0.79136 0.32056 0.0
H1084 H 0.45623 0.72869 0.25443 0.0
H1085 H 0.42624 0.75799 0.26124 0.0
C1086 C 0.20465 0.69277 0.82844 0.0
C1087 C 0.23002 0.69985 0.82938 0.0
C1088 C 0.18636 0.70441 0.81592 0.0
C1089 C 0.17046 0.75788 0.79492 0.0
H1090 H 0.12212 0.72778 0.75502 0.0
C1091 C 0.08374 0.80141 0.755 0.0
C1092 C 0.06066 0.79058 0.75903 0.0
C1093 C 0.10699 0.79071 0.75756 0.0
C1094 C 0.13542 0.73646 0.76612 0.0
H1095 H 0.25606 0.72485 0.81818 0.0
H1096 H 0.22384 0.74548 0.79655 0.0
H1097 H 0.15769 0.70852 0.77272 0.0
H1098 H 0.04376 0.7597 0.76674 0.0
H1099 H 0.08383 0.74124 0.77126 0.0
H1100 H 0.14755 0.7856 0.78936 0.0
C1101 C 0.21823 0.73081 0.80541 0.0
C1102 C 0.15579 0.7254 0.77624 0.0
C1103 C 0.23666 0.71898 0.8177 0.0
C1104 C 0.06122 0.76855 0.76366 0.0
C1105 C 0.08431 0.7579 0.76612 0.0
C1106 C 0.1499 0.76893 0.78497 0.0
C1107 C 0.19293 0.72353 0.80422 0.0
C1108 C 0.17315 0.73586 0.79126 0.0
C1109 C 0.10753 0.76897 0.76399 0.0
C1110 C 0.1317 0.75822 0.77098 0.0
H1111 H 0.19901 0.67798 0.83703 0.0
H1112 H 0.16695 0.69853 0.81558 0.0
H1113 H 0.1835 0.76635 0.80649 0.0
H1114 H 0.08393 0.81839 0.75139 0.0
H1115 H 0.12452 0.79965 0.75538 0.0
loop_
_geom_bond_atom_site_label_1
_geom_bond_atom_site_label_2
_geom_bond_distance
_geom_bond_site_symmetry_2
_ccdc_geom_bond_type
C0 C1 1.386 . S
C0 C2 1.397 . S
C0 H24 0.931 . S
C1 C0 1.386 . S
C1 C5 1.397 . S
C2 C0 1.397 . S
C2 C3 1.384 . S
C2 H25 0.930 . S
C3 C2 1.384 . S
C3 C4 1.377 . S
C3 C6 1.481 . S
C4 C3 1.377 . S
C4 C5 1.389 . S
C4 H26 0.929 . S
C5 C1 1.397 . S
C5 C4 1.389 . S
C5 H27 0.931 . S
C6 C3 1.481 . S
C6 C7 1.387 . S
C6 C11 1.390 . S
C7 C6 1.387 . S
C7 C8 1.401 . S
C7 H28 0.930 . S
C8 C7 1.401 . S
C8 C9 1.376 . S
C8 C17 1.511 . S
C9 C8 1.376 . S
C9 C10 1.392 . S
C9 H30 0.931 . S
C10 C9 1.392 . S
C10 C11 1.361 . S
C10 C12 1.500 . S
C11 C6 1.390 . S
C11 C10 1.361 . S
C11 H29 0.931 . S
C12 C10 1.500 . S
C12 C13 1.371 . S
C12 C14 1.365 . S
C13 C12 1.371 . S
C13 C23 1.386 . S
C13 H31 0.931 . S
C14 C12 1.365 . S
C14 C15 1.409 . S
C14 H32 0.929 . S
C15 C14 1.409 . S
C15 C16 1.380 . S
C15 H33 0.930 . S
C16 C15 1.380 . S
C16 C23 1.357 . S
C17 C8 1.511 . S
C17 C18 1.341 . S
C17 C19 1.371 . S
C18 C17 1.341 . S
C18 C22 1.394 . S
C18 H34 0.930 . S
C19 C17 1.371 . S
C19 C20 1.392 . S
C19 H35 0.931 . S
C20 C19 1.392 . S
C20 C21 1.331 . S
C20 H38 0.932 . S
C21 C20 1.331 . S
C21 C22 1.336 . S
C22 C18 1.394 . S
C22 C21 1.336 . S
C22 H37 0.929 . S
C23 C13 1.386 . S
C23 C16 1.357 . S
C23 H36 0.928 . S
H24 C0 0.931 . S
H25 C2 0.930 . S
H26 C4 0.929 . S
H27 C5 0.931 . S
H28 C7 0.930 . S
H29 C11 0.931 . S
H30 C9 0.931 . S
H31 C13 0.931 . S
H32 C14 0.929 . S
H33 C15 0.930 . S
H34 C18 0.930 . S
H35 C19 0.931 . S
H36 C23 0.928 . S
H37 C22 0.929 . S
H38 C20 0.932 . S
C39 C40 1.386 . S
C39 C41 1.397 . S
C39 H63 0.931 . S
C40 C39 1.386 . S
C40 C44 1.397 . S
C41 C39 1.397 . S
C41 C42 1.384 . S
C41 H64 0.930 . S
C42 C41 1.384 . S
C42 C43 1.377 . S
C42 C45 1.481 . S
C43 C42 1.377 . S
C43 C44 1.389 . S
C43 H65 0.929 . S
C44 C40 1.397 . S
C44 C43 1.389 . S
C44 H66 0.931 . S
C45 C42 1.481 . S
C45 C46 1.387 . S
C45 C50 1.390 . S
C46 C45 1.387 . S
C46 C47 1.401 . S
C46 H67 0.930 . S
C47 C46 1.401 . S
C47 C48 1.376 . S
C47 C56 1.511 . S
C48 C47 1.376 . S
C48 C49 1.392 . S
C48 H69 0.931 . S
C49 C48 1.392 . S
C49 C50 1.361 . S
C49 C51 1.500 . S
C50 C45 1.390 . S
C50 C49 1.361 . S
C50 H68 0.931 . S
C51 C49 1.500 . S
C51 C52 1.371 . S
C51 C53 1.365 . S
C52 C51 1.371 . S
C52 C62 1.386 . S
C52 H70 0.931 . S
C53 C51 1.365 . S
C53 C54 1.409 . S
C53 H71 0.929 . S
C54 C53 1.409 . S
C54 C55 1.380 . S
C54 H72 0.930 . S
C55 C54 1.380 . S
C55 C62 1.357 . S
C56 C47 1.511 . S
C56 C57 1.341 . S
C56 C58 1.371 . S
C57 C56 1.341 . S
C57 C61 1.394 . S
C57 H73 0.930 . S
C58 C56 1.371 . S
C58 C59 1.392 . S
C58 H74 0.931 . S
C59 C58 1.392 . S
C59 C60 1.331 . S
C59 H77 0.932 . S
C60 C59 1.331 . S
C60 C61 1.336 . S
C61 C57 1.394 . S
C61 C60 1.336 . S
C61 H76 0.929 . S
C62 C52 1.386 . S
C62 C55 1.357 . S
C62 H75 0.928 . S
H63 C39 0.931 . S
H64 C41 0.930 . S
H65 C43 0.929 . S
H66 C44 0.931 . S
H67 C46 0.930 . S
H68 C50 0.931 . S
H69 C48 0.931 . S
H70 C52 0.931 . S
H71 C53 0.929 . S
H72 C54 0.930 . S
H73 C57 0.930 . S
H74 C58 0.931 . S
H75 C62 0.928 . S
H76 C61 0.929 . S
H77 C59 0.932 . S
C78 C79 1.386 . S
C78 C80 1.397 . S
C78 H102 0.931 . S
C79 C78 1.386 . S
C79 C83 1.397 . S
C80 C78 1.397 . S
C80 C81 1.384 . S
C80 H103 0.930 . S
C81 C80 1.384 . S
C81 C82 1.377 . S
C81 C84 1.481 . S
C82 C81 1.377 . S
C82 C83 1.389 . S
C82 H104 0.929 . S
C83 C79 1.397 . S
C83 C82 1.389 . S
C83 H105 0.931 . S
C84 C81 1.481 . S
C84 C85 1.387 . S
C84 C89 1.390 . S
C85 C84 1.387 . S
C85 C86 1.401 . S
C85 H106 0.930 . S
C86 C85 1.401 . S
C86 C87 1.376 . S
C86 C95 1.511 . S
C87 C86 1.376 . S
C87 C88 1.392 . S
C87 H108 0.931 . S
C88 C87 1.392 . S
C88 C89 1.361 . S
C88 C90 1.500 . S
C89 C84 1.390 . S
C89 C88 1.361 . S
C89 H107 0.931 . S
C90 C88 1.500 . S
C90 C91 1.371 . S
C90 C92 1.365 . S
C91 C90 1.371 . S
C91 C101 1.386 . S
C91 H109 0.931 . S
C92 C90 1.365 . S
C92 C93 1.409 . S
C92 H110 0.929 . S
C93 C92 1.409 . S
C93 C94 1.380 . S
C93 H111 0.930 . S
C94 C93 1.380 . S
C94 C101 1.357 . S
C95 C86 1.511 . S
C95 C96 1.341 . S
C95 C97 1.371 . S
C96 C95 1.341 . S
C96 C100 1.394 . S
C96 H112 0.930 . S
C97 C95 1.371 . S
C97 C98 1.392 . S
C97 H113 0.931 . S
C98 C97 1.392 . S
C98 C99 1.331 . S
C98 H116 0.932 . S
C99 C98 1.331 . S
C99 C100 1.336 . S
C100 C96 1.394 . S
C100 C99 1.336 . S
C100 H115 0.929 . S
C101 C91 1.386 . S
C101 C94 1.357 . S
C101 H114 0.928 . S
H102 C78 0.931 . S
H103 C80 0.930 . S
H104 C82 0.929 . S
H105 C83 0.931 . S
H106 C85 0.930 . S
H107 C89 0.931 . S
H108 C87 0.931 . S
H109 C91 0.931 . S
H110 C92 0.929 . S
H111 C93 0.930 . S
H112 C96 0.930 . S
H113 C97 0.931 . S
H114 C101 0.928 . S
H115 C100 0.929 . S
H116 C98 0.932 . S
C117 C118 1.386 . S
C117 C119 1.397 . S
C117 H141 0.931 . S
C118 C117 1.386 . S
C118 C122 1.397 . S
C119 C117 1.397 . S
C119 C120 1.384 . S
C119 H142 0.930 . S
C120 C119 1.384 . S
C120 C121 1.377 . S
C120 C123 1.481 . S
C121 C120 1.377 . S
C121 C122 1.389 . S
C121 H143 0.929 . S
C122 C118 1.397 . S
C122 C121 1.389 . S
C122 H144 0.931 . S
C123 C120 1.481 . S
C123 C124 1.387 . S
C123 C128 1.390 . S
C124 C123 1.387 . S
C124 C125 1.401 . S
C124 H145 0.930 . S
C125 C124 1.401 . S
C125 C126 1.376 . S
C125 C134 1.511 . S
C126 C125 1.376 . S
C126 C127 1.392 . S
C126 H147 0.931 . S
C127 C126 1.392 . S
C127 C128 1.361 . S
C127 C129 1.500 . S
C128 C123 1.390 . S
C128 C127 1.361 . S
C128 H146 0.931 . S
C129 C127 1.500 . S
C129 C130 1.371 . S
C129 C131 1.365 . S
C130 C129 1.371 . S
C130 C140 1.386 . S
C130 H148 0.931 . S
C131 C129 1.365 . S
C131 C132 1.409 . S
C131 H149 0.929 . S
C132 C131 1.409 . S
C132 C133 1.380 . S
C132 H150 0.930 . S
C133 C132 1.380 . S
C133 C140 1.357 . S
C134 C125 1.511 . S
C134 C135 1.341 . S
C134 C136 1.371 . S
C135 C134 1.341 . S
C135 C139 1.394 . S
C135 H151 0.930 . S
C136 C134 1.371 . S
C136 C137 1.392 . S
C136 H152 0.931 . S
C137 C136 1.392 . S
C137 C138 1.331 . S
C137 H155 0.932 . S
C138 C137 1.331 . S
C138 C139 1.336 . S
C139 C135 1.394 . S
C139 C138 1.336 . S
C139 H154 0.929 . S
C140 C130 1.386 . S
C140 C133 1.357 . S
C140 H153 0.928 . S
H141 C117 0.931 . S
H142 C119 0.930 . S
H143 C121 0.929 . S
H144 C122 0.931 . S
H145 C124 0.930 . S
H146 C128 0.931 . S
H147 C126 0.931 . S
H148 C130 0.931 . S
H149 C131 0.929 . S
H150 C132 0.930 . S
H151 C135 0.930 . S
H152 C136 0.931 . S
H153 C140 0.928 . S
H154 C139 0.929 . S
H155 C137 0.932 . S
C156 C157 1.386 . S
C156 C158 1.397 . S
C156 H180 0.931 . S
C157 C156 1.386 . S
C157 C161 1.397 . S
C158 C156 1.397 . S
C158 C159 1.384 . S
C158 H181 0.930 . S
C159 C158 1.384 . S
C159 C160 1.377 . S
C159 C162 1.481 . S
C160 C159 1.377 . S
C160 C161 1.389 . S
C160 H182 0.929 . S
C161 C157 1.397 . S
C161 C160 1.389 . S
C161 H183 0.931 . S
C162 C159 1.481 . S
C162 C163 1.387 . S
C162 C167 1.390 . S
C163 C162 1.387 . S
C163 C164 1.401 . S
C163 H184 0.930 . S
C164 C163 1.401 . S
C164 C165 1.376 . S
C164 C173 1.511 . S
C165 C164 1.376 . S
C165 C166 1.392 . S
C165 H186 0.931 . S
C166 C165 1.392 . S
C166 C167 1.361 . S
C166 C168 1.500 . S
C167 C162 1.390 . S
C167 C166 1.361 . S
C167 H185 0.931 . S
C168 C166 1.500 . S
C168 C169 1.371 . S
C168 C170 1.365 . S
C169 C168 1.371 . S
C169 C179 1.386 . S
C169 H187 0.931 . S
C170 C168 1.365 . S
C170 C171 1.409 . S
C170 H188 0.929 . S
C171 C170 1.409 . S
C171 C172 1.380 . S
C171 H189 0.930 . S
C172 C171 1.380 . S
C172 C179 1.357 . S
C173 C164 1.511 . S
C173 C174 1.341 . S
C173 C175 1.371 . S
C174 C173 1.341 . S
C174 C178 1.394 . S
C174 H190 0.930 . S
C175 C173 1.371 . S
C175 C176 1.392 . S
C175 H191 0.931 . S
C176 C175 1.392 . S
C176 C177 1.331 . S
C176 H194 0.932 . S
C177 C176 1.331 . S
C177 C178 1.336 . S
C178 C174 1.394 . S
C178 C177 1.336 . S
C178 H193 0.929 . S
C179 C169 1.386 . S
C179 C172 1.357 . S
C179 H192 0.928 . S
H180 C156 0.931 . S
H181 C158 0.930 . S
H182 C160 0.929 . S
H183 C161 0.931 . S
H184 C163 0.930 . S
H185 C167 0.931 . S
H186 C165 0.931 . S
H187 C169 0.931 . S
H188 C170 0.929 . S
H189 C171 0.930 . S
H190 C174 0.930 . S
H191 C175 0.931 . S
H192 C179 0.928 . S
H193 C178 0.929 . S
H194 C176 0.932 . S
C195 C196 1.386 . S
C195 C197 1.397 . S
C195 H219 0.931 . S
C196 C195 1.386 . S
C196 C200 1.397 . S
C197 C195 1.397 . S
C197 C198 1.384 . S
C197 H220 0.930 . S
C198 C197 1.384 . S
C198 C199 1.377 . S
C198 C201 1.481 . S
C199 C198 1.377 . S
C199 C200 1.389 . S
C199 H221 0.929 . S
C200 C196 1.397 . S
C200 C199 1.389 . S
C200 H222 0.931 . S
C201 C198 1.481 . S
C201 C202 1.387 . S
C201 C206 1.390 . S
C202 C201 1.387 . S
C202 C203 1.401 . S
C202 H223 0.930 . S
C203 C202 1.401 . S
C203 C204 1.376 . S
C203 C212 1.511 . S
C204 C203 1.376 . S
C204 C205 1.392 . S
C204 H225 0.931 . S
C205 C204 1.392 . S
C205 C206 1.361 . S
C205 C207 1.500 . S
C206 C201 1.390 . S
C206 C205 1.361 . S
C206 H224 0.931 . S
C207 C205 1.500 . S
C207 C208 1.371 . S
C207 C209 1.365 . S
C208 C207 1.371 . S
C208 C218 1.386 . S
C208 H226 0.931 . S
C209 C207 1.365 . S
C209 C210 1.409 . S
C209 H227 0.929 . S
C210 C209 1.409 . S
C210 C211 1.380 . S
C210 H228 0.930 . S
C211 C210 1.380 . S
C211 C218 1.357 . S
C212 C203 1.511 . S
C212 C213 1.341 . S
C212 C214 1.371 . S
C213 C212 1.341 . S
C213 C217 1.394 . S
C213 H229 0.930 . S
C214 C212 1.371 . S
C214 C215 1.392 . S
C214 H230 0.931 . S
C215 C214 1.392 . S
C215 C216 1.331 . S
C215 H233 0.932 . S
C216 C215 1.331 . S
C216 C217 1.336 . S
C217 C213 1.394 . S
C217 C216 1.336 . S
C217 H232 0.929 . S
C218 C208 1.386 . S
C218 C211 1.357 . S
C218 H231 0.928 . S
H219 C195 0.931 . S
H220 C197 0.930 . S
H221 C199 0.929 . S
H222 C200 0.931 . S
H223 C202 0.930 . S
H224 C206 0.931 . S
H225 C204 0.931 . S
H226 C208 0.931 . S
H227 C209 0.929 . S
H228 C210 0.930 . S
H229 C213 0.930 . S
H230 C214 0.931 . S
H231 C218 0.928 . S
H232 C217 0.929 . S
H233 C215 0.932 . S
C234 C235 1.386 . S
C234 C236 1.397 . S
C234 H258 0.931 . S
C235 C234 1.386 . S
C235 C239 1.397 . S
C236 C234 1.397 . S
C236 C237 1.384 . S
C236 H259 0.930 . S
C237 C236 1.384 . S
C237 C238 1.377 . S
C237 C240 1.481 . S
C238 C237 1.377 . S
C238 C239 1.389 . S
C238 H260 0.929 . S
C239 C235 1.397 . S
C239 C238 1.389 . S
C239 H261 0.931 . S
C240 C237 1.481 . S
C240 C241 1.387 . S
C240 C245 1.390 . S
C241 C240 1.387 . S
C241 C242 1.401 . S
C241 H262 0.930 . S
C242 C241 1.401 . S
C242 C243 1.376 . S
C242 C251 1.511 . S
C243 C242 1.376 . S
C243 C244 1.392 . S
C243 H264 0.931 . S
C244 C243 1.392 . S
C244 C245 1.361 . S
C244 C246 1.500 . S
C245 C240 1.390 . S
C245 C244 1.361 . S
C245 H263 0.931 . S
C246 C244 1.500 . S
C246 C247 1.371 . S
C246 C248 1.365 . S
C247 C246 1.371 . S
C247 C257 1.386 . S
C247 H265 0.931 . S
C248 C246 1.365 . S
C248 C249 1.409 . S
C248 H266 0.929 . S
C249 C248 1.409 . S
C249 C250 1.380 . S
C249 H267 0.930 . S
C250 C249 1.380 . S
C250 C257 1.357 . S
C251 C242 1.511 . S
C251 C252 1.341 . S
C251 C253 1.371 . S
C252 C251 1.341 . S
C252 C256 1.394 . S
C252 H268 0.930 . S
C253 C251 1.371 . S
C253 C254 1.392 . S
C253 H269 0.931 . S
C254 C253 1.392 . S
C254 C255 1.331 . S
C254 H272 0.932 . S
C255 C254 1.331 . S
C255 C256 1.336 . S
C256 C252 1.394 . S
C256 C255 1.336 . S
C256 H271 0.929 . S
C257 C247 1.386 . S
C257 C250 1.357 . S
C257 H270 0.928 . S
H258 C234 0.931 . S
H259 C236 0.930 . S
H260 C238 0.929 . S
H261 C239 0.931 . S
H262 C241 0.930 . S
H263 C245 0.931 . S
H264 C243 0.931 . S
H265 C247 0.931 . S
H266 C248 0.929 . S
H267 C249 0.930 . S
H268 C252 0.930 . S
H269 C253 0.931 . S
H270 C257 0.928 . S
H271 C256 0.929 . S
H272 C254 0.932 . S
C273 C274 1.386 . S
C273 C275 1.397 . S
C273 H297 0.931 . S
C274 C273 1.386 . S
C274 C278 1.397 . S
C275 C273 1.397 . S
C275 C276 1.384 . S
C275 H298 0.930 . S
C276 C275 1.384 . S
C276 C277 1.377 . S
C276 C279 1.481 . S
C277 C276 1.377 . S
C277 C278 1.389 . S
C277 H299 0.929 . S
C278 C274 1.397 . S
C278 C277 1.389 . S
C278 H300 0.931 . S
C279 C276 1.481 . S
C279 C280 1.387 . S
C279 C284 1.390 . S
C280 C279 1.387 . S
C280 C281 1.401 . S
C280 H301 0.930 . S
C281 C280 1.401 . S
C281 C282 1.376 . S
C281 C290 1.511 . S
C282 C281 1.376 . S
C282 C283 1.392 . S
C282 H303 0.931 . S
C283 C282 1.392 . S
C283 C284 1.361 . S
C283 C285 1.500 . S
C284 C279 1.390 . S
C284 C283 1.361 . S
C284 H302 0.931 . S
C285 C283 1.500 . S
C285 C286 1.371 . S
C285 C287 1.365 . S
C286 C285 1.371 . S
C286 C296 1.386 . S
C286 H304 0.931 . S
C287 C285 1.365 . S
C287 C288 1.409 . S
C287 H305 0.929 . S
C288 C287 1.409 . S
C288 C289 1.380 . S
C288 H306 0.930 . S
C289 C288 1.380 . S
C289 C296 1.357 . S
C290 C281 1.511 . S
C290 C291 1.341 . S
C290 C292 1.371 . S
C291 C290 1.341 . S
C291 C295 1.394 . S
C291 H307 0.930 . S
C292 C290 1.371 . S
C292 C293 1.392 . S
C292 H308 0.931 . S
C293 C292 1.392 . S
C293 C294 1.331 . S
C293 H311 0.932 . S
C294 C293 1.331 . S
C294 C295 1.336 . S
C295 C291 1.394 . S
C295 C294 1.336 . S
C295 H310 0.929 . S
C296 C286 1.386 . S
C296 C289 1.357 . S
C296 H309 0.928 . S
H297 C273 0.931 . S
H298 C275 0.930 . S
H299 C277 0.929 . S
H300 C278 0.931 . S
H301 C280 0.930 . S
H302 C284 0.931 . S
H303 C282 0.931 . S
H304 C286 0.931 . S
H305 C287 0.929 . S
H306 C288 0.930 . S
H307 C291 0.930 . S
H308 C292 0.931 . S
H309 C296 0.928 . S
H310 C295 0.929 . S
H311 C293 0.932 . S
Zn312 O318 1.920 1_455 S
Zn312 O324 1.898 . S
Zn312 O327 1.905 . S
Zn313 O321 1.905 1_655 S
Zn313 O322 1.898 . S
Zn313 O330 1.920 . S
Zn314 O317 2.060 1_455 S
Zn314 O320 2.135 . S
Zn314 O323 2.092 1_455 S
Zn314 O325 2.144 . S
Zn314 O326 2.141 . S
Zn314 O329 2.056 1_455 S
C315 O320 1.166 . S
C315 O321 1.182 . S
C316 O322 1.167 . S
C316 O323 1.299 . S
O317 Zn314 2.060 1_655 S
O317 C331 1.305 . S
O318 Zn312 1.920 1_655 S
O318 C331 1.234 . S
C319 O324 1.167 . S
C319 O325 1.299 . S
O320 Zn314 2.135 . S
O320 C315 1.166 . S
O321 Zn313 1.905 1_455 S
O321 C315 1.182 . S
O322 Zn313 1.898 . S
O322 C316 1.167 . S
O323 Zn314 2.092 1_655 S
O323 C316 1.299 . S
O324 Zn312 1.898 . S
O324 C319 1.167 . S
O325 Zn314 2.144 . S
O325 C319 1.299 . S
O326 Zn314 2.141 . S
O326 C328 1.166 . S
O327 Zn312 1.905 . S
O327 C328 1.182 . S
C328 O326 1.166 . S
C328 O327 1.182 . S
O329 Zn314 2.056 1_655 S
O329 C332 1.305 . S
O330 Zn313 1.920 . S
O330 C332 1.234 . S
C331 O317 1.305 . S
C331 O318 1.234 . S
C332 O329 1.305 . S
C332 O330 1.234 . S
Zn333 O339 1.920 . S
Zn333 O345 1.898 . S
Zn333 O348 1.905 . S
Zn334 O342 1.905 . S
Zn334 O343 1.898 . S
Zn334 O351 1.920 . S
Zn335 O338 2.080 . S
Zn335 O341 2.114 . S
Zn335 O344 2.120 . S
Zn335 O346 2.120 . S
Zn335 O347 2.114 . S
Zn335 O350 2.080 . S
C336 O341 1.166 . S
C336 O342 1.182 . S
C337 O343 1.167 . S
C337 O344 1.299 . S
O338 Zn335 2.080 . S
O338 C352 1.305 . S
O339 Zn333 1.920 . S
O339 C352 1.234 . S
C340 O345 1.167 . S
C340 O346 1.299 . S
O341 Zn335 2.114 . S
O341 C336 1.166 . S
O342 Zn334 1.905 . S
O342 C336 1.182 . S
O343 Zn334 1.898 . S
O343 C337 1.167 . S
O344 Zn335 2.120 . S
O344 C337 1.299 . S
O345 Zn333 1.898 . S
O345 C340 1.167 . S
O346 Zn335 2.120 . S
O346 C340 1.299 . S
O347 Zn335 2.114 . S
O347 C349 1.166 . S
O348 Zn333 1.905 . S
O348 C349 1.182 . S
C349 O347 1.166 . S
C349 O348 1.182 . S
O350 Zn335 2.080 . S
O350 C353 1.305 . S
O351 Zn334 1.920 . S
O351 C353 1.234 . S
C352 O338 1.305 . S
C352 O339 1.234 . S
C353 O350 1.305 . S
C353 O351 1.234 . S
Zn354 O360 1.920 . S
Zn354 O366 1.898 . S
Zn354 O369 1.905 1_455 S
Zn355 O363 1.905 . S
Zn355 O364 1.898 . S
Zn355 O372 1.920 1_655 S
Zn356 O359 2.097 . S
Zn356 O362 2.096 1_455 S
Zn356 O365 2.104 1_455 S
Zn356 O367 2.139 . S
Zn356 O368 2.100 1_455 S
Zn356 O371 2.094 . S
C357 O362 1.166 . S
C357 O363 1.182 . S
C358 O364 1.167 . S
C358 O365 1.299 . S
O359 Zn356 2.097 . S
O359 C373 1.305 . S
O360 Zn354 1.920 . S
O360 C373 1.234 . S
C361 O366 1.167 . S
C361 O367 1.299 . S
O362 Zn356 2.096 1_655 S
O362 C357 1.166 . S
O363 Zn355 1.905 . S
O363 C357 1.182 . S
O364 Zn355 1.898 . S
O364 C358 1.167 . S
O365 Zn356 2.104 1_655 S
O365 C358 1.299 . S
O366 Zn354 1.898 . S
O366 C361 1.167 . S
O367 Zn356 2.139 . S
O367 C361 1.299 . S
O368 Zn356 2.100 1_655 S
O368 C370 1.166 . S
O369 Zn354 1.905 1_655 S
O369 C370 1.182 . S
C370 O368 1.166 . S
C370 O369 1.182 . S
O371 Zn356 2.094 . S
O371 C374 1.305 . S
O372 Zn355 1.920 1_455 S
O372 C374 1.234 . S
C373 O359 1.305 . S
C373 O360 1.234 . S
C374 O371 1.305 . S
C374 O372 1.234 . S
Zn375 O381 1.920 . S
Zn375 O387 1.898 . S
Zn375 O390 1.905 . S
Zn376 O384 1.905 . S
Zn376 O385 1.898 . S
Zn376 O393 1.920 . S
Zn377 O380 2.080 . S
Zn377 O383 2.114 . S
Zn377 O386 2.120 . S
Zn377 O388 2.120 . S
Zn377 O389 2.114 . S
Zn377 O392 2.080 . S
C378 O383 1.166 . S
C378 O384 1.182 . S
C379 O385 1.167 . S
C379 O386 1.299 . S
O380 Zn377 2.080 . S
O380 C394 1.305 . S
O381 Zn375 1.920 . S
O381 C394 1.234 . S
C382 O387 1.167 . S
C382 O388 1.299 . S
O383 Zn377 2.114 . S
O383 C378 1.166 . S
O384 Zn376 1.905 . S
O384 C378 1.182 . S
O385 Zn376 1.898 . S
O385 C379 1.167 . S
O386 Zn377 2.120 . S
O386 C379 1.299 . S
O387 Zn375 1.898 . S
O387 C382 1.167 . S
O388 Zn377 2.120 . S
O388 C382 1.299 . S
O389 Zn377 2.114 . S
O389 C391 1.166 . S
O390 Zn375 1.905 . S
O390 C391 1.182 . S
C391 O389 1.166 . S
C391 O390 1.182 . S
O392 Zn377 2.080 . S
O392 C395 1.305 . S
O393 Zn376 1.920 . S
O393 C395 1.234 . S
C394 O380 1.305 . S
C394 O381 1.234 . S
C395 O392 1.305 . S
C395 O393 1.234 . S
C396 C397 1.349 . S
C396 C398 1.327 . S
C396 H421 0.950 . S
C397 C396 1.349 . S
C397 C413 1.349 . S
C398 C396 1.327 . S
C398 C417 1.429 . S
C398 H422 0.950 . S
C399 C416 1.574 1_565 S
C399 C418 1.368 . S
C399 H423 0.949 . S
H400 C404 0.949 . S
C401 C402 1.349 . S
C401 C403 1.327 . S
C401 H424 0.950 . S
C402 C401 1.349 . S
C402 C414 1.349 . S
C403 C401 1.327 . S
C403 C419 1.429 . S
C403 H425 0.950 . S
C404 H400 0.949 . S
C404 C412 1.574 . S
C404 C420 1.368 . S
H405 C413 0.950 . S
H406 C411 0.950 . S
H407 C412 0.949 . S
H408 C414 0.950 . S
H409 C415 0.950 . S
H410 C416 0.949 . S
C411 H406 0.950 . S
C411 C413 1.327 . S
C411 C417 1.429 . S
C412 C404 1.574 . S
C412 H407 0.949 . S
C412 C418 1.368 1_545 S
C413 C397 1.349 . S
C413 H405 0.950 . S
C413 C411 1.327 . S
C414 C402 1.349 . S
C414 H408 0.950 . S
C414 C415 1.327 . S
C415 H409 0.950 . S
C415 C414 1.327 . S
C415 C419 1.429 . S
C416 C399 1.574 1_545 S
C416 H410 0.949 . S
C416 C420 1.368 . S
C417 C398 1.429 . S
C417 C411 1.429 . S
C417 C418 1.523 . S
C418 C399 1.368 . S
C418 C412 1.368 1_565 S
C418 C417 1.523 . S
C419 C403 1.429 . S
C419 C415 1.429 . S
C419 C420 1.523 . S
C420 C404 1.368 . S
C420 C416 1.368 . S
C420 C419 1.523 . S
H421 C396 0.950 . S
H422 C398 0.950 . S
H423 C399 0.949 . S
H424 C401 0.950 . S
H425 C403 0.950 . S
C426 C427 1.349 . S
C426 C428 1.327 . S
C426 H451 0.950 . S
C427 C426 1.349 . S
C427 C443 1.349 . S
C428 C426 1.327 . S
C428 C447 1.429 . S
C428 H452 0.950 . S
C429 C446 1.574 . S
C429 C448 1.368 . S
C429 H453 0.949 . S
H430 C434 0.949 . S
C431 C432 1.349 . S
C431 C433 1.327 . S
C431 H454 0.950 . S
C432 C431 1.349 . S
C432 C444 1.349 . S
C433 C431 1.327 . S
C433 C449 1.429 . S
C433 H455 0.950 . S
C434 H430 0.949 . S
C434 C442 1.574 . S
C434 C450 1.368 . S
H435 C443 0.950 . S
H436 C441 0.950 . S
H437 C442 0.949 . S
H438 C444 0.950 . S
H439 C445 0.950 . S
H440 C446 0.949 . S
C441 H436 0.950 . S
C441 C443 1.327 . S
C441 C447 1.429 . S
C442 C434 1.574 . S
C442 H437 0.949 . S
C442 C448 1.368 . S
C443 C427 1.349 . S
C443 H435 0.950 . S
C443 C441 1.327 . S
C444 C432 1.349 . S
C444 H438 0.950 . S
C444 C445 1.327 . S
C445 H439 0.950 . S
C445 C444 1.327 . S
C445 C449 1.429 . S
C446 C429 1.574 . S
C446 H440 0.949 . S
C446 C450 1.368 . S
C447 C428 1.429 . S
C447 C441 1.429 . S
C447 C448 1.523 . S
C448 C429 1.368 . S
C448 C442 1.368 . S
C448 C447 1.523 . S
C449 C433 1.429 . S
C449 C445 1.429 . S
C449 C450 1.523 . S
C450 C434 1.368 . S
C450 C446 1.368 . S
C450 C449 1.523 . S
H451 C426 0.950 . S
H452 C428 0.950 . S
H453 C429 0.949 . S
H454 C431 0.950 . S
H455 C433 0.950 . S
C456 C457 1.349 . S
C456 C458 1.327 . S
C456 H481 0.950 . S
C457 C456 1.349 . S
C457 C473 1.349 . S
C458 C456 1.327 . S
C458 C477 1.429 . S
C458 H482 0.950 . S
C459 C476 1.574 . S
C459 C478 1.368 . S
C459 H483 0.949 . S
H460 C464 0.949 . S
C461 C462 1.349 . S
C461 C463 1.327 . S
C461 H484 0.950 . S
C462 C461 1.349 . S
C462 C474 1.349 . S
C463 C461 1.327 . S
C463 C479 1.429 . S
C463 H485 0.950 . S
C464 H460 0.949 . S
C464 C472 1.574 . S
C464 C480 1.368 . S
H465 C473 0.950 . S
H466 C471 0.950 . S
H467 C472 0.949 . S
H468 C474 0.950 . S
H469 C475 0.950 . S
H470 C476 0.949 . S
C471 H466 0.950 . S
C471 C473 1.327 . S
C471 C477 1.429 . S
C472 C464 1.574 . S
C472 H467 0.949 . S
C472 C478 1.368 . S
C473 C457 1.349 . S
C473 H465 0.950 . S
C473 C471 1.327 . S
C474 C462 1.349 . S
C474 H468 0.950 . S
C474 C475 1.327 . S
C475 H469 0.950 . S
C475 C474 1.327 . S
C475 C479 1.429 . S
C476 C459 1.574 . S
C476 H470 0.949 . S
C476 C480 1.368 . S
C477 C458 1.429 . S
C477 C471 1.429 . S
C477 C478 1.523 . S
C478 C459 1.368 . S
C478 C472 1.368 . S
C478 C477 1.523 . S
C479 C463 1.429 . S
C479 C475 1.429 . S
C479 C480 1.523 . S
C480 C464 1.368 . S
C480 C476 1.368 . S
C480 C479 1.523 . S
H481 C456 0.950 . S
H482 C458 0.950 . S
H483 C459 0.949 . S
H484 C461 0.950 . S
H485 C463 0.950 . S
C486 C487 1.349 . S
C486 C488 1.327 . S
C486 H511 0.950 . S
C487 C486 1.349 . S
C487 C503 1.349 . S
C488 C486 1.327 . S
C488 C507 1.429 . S
C488 H512 0.950 . S
C489 C506 1.574 1_565 S
C489 C508 1.368 . S
C489 H513 0.949 . S
H490 C494 0.949 . S
C491 C492 1.349 . S
C491 C493 1.327 . S
C491 H514 0.950 . S
C492 C491 1.349 . S
C492 C504 1.349 . S
C493 C491 1.327 . S
C493 C509 1.429 . S
C493 H515 0.950 . S
C494 H490 0.949 . S
C494 C502 1.574 . S
C494 C510 1.368 . S
H495 C503 0.950 . S
H496 C501 0.950 . S
H497 C502 0.949 . S
H498 C504 0.950 . S
H499 C505 0.950 . S
H500 C506 0.949 . S
C501 H496 0.950 . S
C501 C503 1.327 . S
C501 C507 1.429 . S
C502 C494 1.574 . S
C502 H497 0.949 . S
C502 C508 1.368 1_545 S
C503 C487 1.349 . S
C503 H495 0.950 . S
C503 C501 1.327 . S
C504 C492 1.349 . S
C504 H498 0.950 . S
C504 C505 1.327 . S
C505 H499 0.950 . S
C505 C504 1.327 . S
C505 C509 1.429 . S
C506 C489 1.574 1_545 S
C506 H500 0.949 . S
C506 C510 1.368 . S
C507 C488 1.429 . S
C507 C501 1.429 . S
C507 C508 1.523 . S
C508 C489 1.368 . S
C508 C502 1.368 1_565 S
C508 C507 1.523 . S
C509 C493 1.429 . S
C509 C505 1.429 . S
C509 C510 1.523 . S
C510 C494 1.368 . S
C510 C506 1.368 . S
C510 C509 1.523 . S
H511 C486 0.950 . S
H512 C488 0.950 . S
H513 C489 0.949 . S
H514 C491 0.950 . S
H515 C493 0.950 . S
C516 C517 1.349 . S
C516 C518 1.327 . S
C516 H541 0.950 . S
C517 C516 1.349 . S
C517 C533 1.349 . S
C518 C516 1.327 . S
C518 C537 1.429 . S
C518 H542 0.950 . S
C519 C536 1.574 . S
C519 C538 1.368 1_565 S
C519 H543 0.949 1_565 S
H520 C524 0.949 . S
C521 C522 1.349 . S
C521 C523 1.327 . S
C521 H544 0.950 . S
C522 C521 1.349 . S
C522 C534 1.349 . S
C523 C521 1.327 . S
C523 C539 1.429 . S
C523 H545 0.950 . S
C524 H520 0.949 . S
C524 C532 1.574 . S
C524 C540 1.368 . S
H525 C533 0.950 . S
H526 C531 0.950 . S
H527 C532 0.949 1_545 S
H528 C534 0.950 . S
H529 C535 0.950 . S
H530 C536 0.949 . S
C531 H526 0.950 . S
C531 C533 1.327 . S
C531 C537 1.429 . S
C532 C524 1.574 . S
C532 H527 0.949 1_565 S
C532 C538 1.368 1_565 S
C533 C517 1.349 . S
C533 H525 0.950 . S
C533 C531 1.327 . S
C534 C522 1.349 . S
C534 H528 0.950 . S
C534 C535 1.327 . S
C535 H529 0.950 . S
C535 C534 1.327 . S
C535 C539 1.429 . S
C536 C519 1.574 . S
C536 H530 0.949 . S
C536 C540 1.368 . S
C537 C518 1.429 . S
C537 C531 1.429 . S
C537 C538 1.523 . S
C538 C519 1.368 1_545 S
C538 C532 1.368 1_545 S
C538 C537 1.523 . S
C539 C523 1.429 . S
C539 C535 1.429 . S
C539 C540 1.523 . S
C540 C524 1.368 . S
C540 C536 1.368 . S
C540 C539 1.523 . S
H541 C516 0.950 . S
H542 C518 0.950 . S
H543 C519 0.949 1_545 S
H544 C521 0.950 . S
H545 C523 0.950 . S
C546 C547 1.349 . S
C546 C548 1.327 . S
C546 H571 0.950 . S
C547 C546 1.349 . S
C547 C563 1.349 . S
C548 C546 1.327 . S
C548 C567 1.429 . S
C548 H572 0.950 . S
C549 C566 1.574 . S
C549 C568 1.368 . S
C549 H573 0.949 . S
H550 C554 0.949 . S
C551 C552 1.349 . S
C551 C553 1.327 . S
C551 H574 0.950 . S
C552 C551 1.349 . S
C552 C564 1.349 . S
C553 C551 1.327 . S
C553 C569 1.429 . S
C553 H575 0.950 . S
C554 H550 0.949 . S
C554 C562 1.574 . S
C554 C570 1.368 . S
H555 C563 0.950 . S
H556 C561 0.950 . S
H557 C562 0.949 . S
H558 C564 0.950 . S
H559 C565 0.950 . S
H560 C566 0.949 . S
C561 H556 0.950 . S
C561 C563 1.327 . S
C561 C567 1.429 . S
C562 C554 1.574 . S
C562 H557 0.949 . S
C562 C568 1.368 . S
C563 C547 1.349 . S
C563 H555 0.950 . S
C563 C561 1.327 . S
C564 C552 1.349 . S
C564 H558 0.950 . S
C564 C565 1.327 . S
C565 H559 0.950 . S
C565 C564 1.327 . S
C565 C569 1.429 . S
C566 C549 1.574 . S
C566 H560 0.949 . S
C566 C570 1.368 . S
C567 C548 1.429 . S
C567 C561 1.429 . S
C567 C568 1.523 . S
C568 C549 1.368 . S
C568 C562 1.368 . S
C568 C567 1.523 . S
C569 C553 1.429 . S
C569 C565 1.429 . S
C569 C570 1.523 . S
C570 C554 1.368 . S
C570 C566 1.368 . S
C570 C569 1.523 . S
H571 C546 0.950 . S
H572 C548 0.950 . S
H573 C549 0.949 . S
H574 C551 0.950 . S
H575 C553 0.950 . S
C576 C577 1.349 . S
C576 C578 1.327 . S
C576 H601 0.950 . S
C577 C576 1.349 . S
C577 C593 1.349 . S
C578 C576 1.327 . S
C578 C597 1.429 . S
C578 H602 0.950 . S
C579 C596 1.574 . S
C579 C598 1.368 . S
C579 H603 0.949 . S
H580 C584 0.949 . S
C581 C582 1.349 . S
C581 C583 1.327 . S
C581 H604 0.950 . S
C582 C581 1.349 . S
C582 C594 1.349 . S
C583 C581 1.327 . S
C583 C599 1.429 . S
C583 H605 0.950 . S
C584 H580 0.949 . S
C584 C592 1.574 . S
C584 C600 1.368 . S
H585 C593 0.950 . S
H586 C591 0.950 . S
H587 C592 0.949 . S
H588 C594 0.950 . S
H589 C595 0.950 . S
H590 C596 0.949 . S
C591 H586 0.950 . S
C591 C593 1.327 . S
C591 C597 1.429 . S
C592 C584 1.574 . S
C592 H587 0.949 . S
C592 C598 1.368 . S
C593 C577 1.349 . S
C593 H585 0.950 . S
C593 C591 1.327 . S
C594 C582 1.349 . S
C594 H588 0.950 . S
C594 C595 1.327 . S
C595 H589 0.950 . S
C595 C594 1.327 . S
C595 C599 1.429 . S
C596 C579 1.574 . S
C596 H590 0.949 . S
C596 C600 1.368 . S
C597 C578 1.429 . S
C597 C591 1.429 . S
C597 C598 1.523 . S
C598 C579 1.368 . S
C598 C592 1.368 . S
C598 C597 1.523 . S
C599 C583 1.429 . S
C599 C595 1.429 . S
C599 C600 1.523 . S
C600 C584 1.368 . S
C600 C596 1.368 . S
C600 C599 1.523 . S
H601 C576 0.950 . S
H602 C578 0.950 . S
H603 C579 0.949 . S
H604 C581 0.950 . S
H605 C583 0.950 . S
C606 C607 1.349 . S
C606 C608 1.327 . S
C606 H631 0.950 . S
C607 C606 1.349 . S
C607 C623 1.349 . S
C608 C606 1.327 . S
C608 C627 1.429 . S
C608 H632 0.950 . S
C609 C626 1.574 . S
C609 C628 1.368 1_565 S
C609 H633 0.949 1_565 S
H610 C614 0.949 . S
C611 C612 1.349 . S
C611 C613 1.327 . S
C611 H634 0.950 . S
C612 C611 1.349 . S
C612 C624 1.349 . S
C613 C611 1.327 . S
C613 C629 1.429 . S
C613 H635 0.950 . S
C614 H610 0.949 . S
C614 C622 1.611 . S
C614 C630 1.368 . S
H615 C623 0.950 . S
H616 C621 0.950 . S
H617 C622 0.928 1_545 S
H618 C624 0.950 . S
H619 C625 0.950 . S
H620 C626 0.949 . S
C621 H616 0.950 . S
C621 C623 1.327 . S
C621 C627 1.429 . S
C622 C614 1.611 . S
C622 H617 0.928 1_565 S
C622 C628 1.355 1_565 S
C623 C607 1.349 . S
C623 H615 0.950 . S
C623 C621 1.327 . S
C624 C612 1.349 . S
C624 H618 0.950 . S
C624 C625 1.327 . S
C625 H619 0.950 . S
C625 C624 1.327 . S
C625 C629 1.429 . S
C626 C609 1.574 . S
C626 H620 0.949 . S
C626 C630 1.368 . S
C627 C608 1.429 . S
C627 C621 1.429 . S
C627 C628 1.523 . S
C628 C609 1.368 1_545 S
C628 C622 1.355 1_545 S
C628 C627 1.523 . S
C629 C613 1.429 . S
C629 C625 1.429 . S
C629 C630 1.523 . S
C630 C614 1.368 . S
C630 C626 1.368 . S
C630 C629 1.523 . S
H631 C606 0.950 . S
H632 C608 0.950 . S
H633 C609 0.949 1_545 S
H634 C611 0.950 . S
H635 C613 0.950 . S
C636 C637 1.349 . S
C636 C638 1.327 . S
C636 H661 0.950 . S
C637 C636 1.349 . S
C637 C653 1.349 . S
C638 C636 1.327 . S
C638 C657 1.429 . S
C638 H662 0.950 . S
C639 C656 1.574 . S
C639 C658 1.368 . S
C639 H663 0.949 . S
H640 C644 0.949 . S
C641 C642 1.349 . S
C641 C643 1.327 . S
C641 H664 0.950 . S
C642 C641 1.349 . S
C642 C654 1.349 . S
C643 C641 1.327 . S
C643 C659 1.429 . S
C643 H665 0.950 . S
C644 H640 0.949 . S
C644 C652 1.574 . S
C644 C660 1.368 . S
H645 C653 0.950 . S
H646 C651 0.950 . S
H647 C652 0.949 . S
H648 C654 0.950 . S
H649 C655 0.950 . S
H650 C656 0.949 . S
C651 H646 0.950 . S
C651 C653 1.327 . S
C651 C657 1.429 . S
C652 C644 1.574 . S
C652 H647 0.949 . S
C652 C658 1.368 . S
C653 C637 1.349 . S
C653 H645 0.950 . S
C653 C651 1.327 . S
C654 C642 1.349 . S
C654 H648 0.950 . S
C654 C655 1.327 . S
C655 H649 0.950 . S
C655 C654 1.327 . S
C655 C659 1.429 . S
C656 C639 1.574 . S
C656 H650 0.949 . S
C656 C660 1.368 . S
C657 C638 1.429 . S
C657 C651 1.429 . S
C657 C658 1.523 . S
C658 C639 1.368 . S
C658 C652 1.368 . S
C658 C657 1.523 . S
C659 C643 1.429 . S
C659 C655 1.429 . S
C659 C660 1.523 . S
C660 C644 1.368 . S
C660 C656 1.368 . S
C660 C659 1.523 . S
H661 C636 0.950 . S
H662 C638 0.950 . S
H663 C639 0.949 . S
H664 C641 0.950 . S
H665 C643 0.950 . S
C666 C667 1.349 . S
C666 C668 1.327 . S
C666 H691 0.950 . S
C667 C666 1.349 . S
C667 C683 1.349 . S
C668 C666 1.327 . S
C668 C687 1.429 . S
C668 H692 0.950 . S
C669 C686 1.574 . S
C669 C688 1.368 . S
C669 H693 0.949 . S
H670 C674 0.949 . S
C671 C672 1.349 . S
C671 C673 1.327 . S
C671 H694 0.950 . S
C672 C671 1.349 . S
C672 C684 1.349 . S
C673 C671 1.327 . S
C673 C689 1.429 . S
C673 H695 0.950 . S
C674 H670 0.949 . S
C674 C682 1.574 . S
C674 C690 1.368 . S
H675 C683 0.950 . S
H676 C681 0.950 . S
H677 C682 0.949 . S
H678 C684 0.950 . S
H679 C685 0.950 . S
H680 C686 0.949 . S
C681 H676 0.950 . S
C681 C683 1.327 . S
C681 C687 1.429 . S
C682 C674 1.574 . S
C682 H677 0.949 . S
C682 C688 1.368 . S
C683 C667 1.349 . S
C683 H675 0.950 . S
C683 C681 1.327 . S
C684 C672 1.349 . S
C684 H678 0.950 . S
C684 C685 1.327 . S
C685 H679 0.950 . S
C685 C684 1.327 . S
C685 C689 1.429 . S
C686 C669 1.574 . S
C686 H680 0.949 . S
C686 C690 1.368 . S
C687 C668 1.429 . S
C687 C681 1.429 . S
C687 C688 1.523 . S
C688 C669 1.368 . S
C688 C682 1.368 . S
C688 C687 1.523 . S
C689 C673 1.429 . S
C689 C685 1.429 . S
C689 C690 1.523 . S
C690 C674 1.368 . S
C690 C686 1.368 . S
C690 C689 1.523 . S
H691 C666 0.950 . S
H692 C668 0.950 . S
H693 C669 0.949 . S
H694 C671 0.950 . S
H695 C673 0.950 . S
C696 C697 1.349 . S
C696 C698 1.327 . S
C696 H721 0.950 . S
C697 C696 1.349 . S
C697 C713 1.349 . S
C698 C696 1.327 . S
C698 C717 1.429 . S
C698 H722 0.950 . S
C699 C716 1.574 . S
C699 C718 1.368 . S
C699 H723 0.949 . S
H700 C704 0.949 . S
C701 C702 1.349 . S
C701 C703 1.327 . S
C701 H724 0.950 . S
C702 C701 1.349 . S
C702 C714 1.349 . S
C703 C701 1.327 . S
C703 C719 1.429 . S
C703 H725 0.950 . S
C704 H700 0.949 . S
C704 C712 1.574 . S
C704 C720 1.368 . S
H705 C713 0.963 . S
H706 C711 0.950 . S
H707 C712 0.949 . S
H708 C714 0.950 . S
H709 C715 0.950 . S
H710 C716 0.949 . S
C711 H706 0.950 . S
C711 C713 1.327 . S
C711 C717 1.429 . S
C712 C704 1.574 . S
C712 H707 0.949 . S
C712 C718 1.368 . S
C713 C697 1.349 . S
C713 H705 0.963 . S
C713 C711 1.327 . S
C714 C702 1.349 . S
C714 H708 0.950 . S
C714 C715 1.327 . S
C715 H709 0.950 . S
C715 C714 1.327 . S
C715 C719 1.429 . S
C716 C699 1.574 . S
C716 H710 0.949 . S
C716 C720 1.368 . S
C717 C698 1.429 . S
C717 C711 1.429 . S
C717 C718 1.523 . S
C718 C699 1.368 . S
C718 C712 1.368 . S
C718 C717 1.523 . S
C719 C703 1.429 . S
C719 C715 1.429 . S
C719 C720 1.523 . S
C720 C704 1.368 . S
C720 C716 1.368 . S
C720 C719 1.523 . S
H721 C696 0.950 . S
H722 C698 0.950 . S
H723 C699 0.949 . S
H724 C701 0.950 . S
H725 C703 0.950 . S
C726 C727 1.349 . S
C726 C728 1.327 . S
C726 H751 0.950 . S
C727 C726 1.349 . S
C727 C743 1.349 . S
C728 C726 1.327 . S
C728 C747 1.429 . S
C728 H752 0.950 . S
C729 C746 1.574 . S
C729 C748 1.368 . S
C729 H753 0.949 . S
H730 C734 0.949 . S
C731 C732 1.349 . S
C731 C733 1.327 . S
C731 H754 0.950 . S
C732 C731 1.349 . S
C732 C744 1.349 . S
C733 C731 1.327 . S
C733 C749 1.429 . S
C733 H755 0.950 . S
C734 H730 0.949 . S
C734 C742 1.574 . S
C734 C750 1.368 . S
H735 C743 0.950 . S
H736 C741 0.950 . S
H737 C742 0.949 . S
H738 C744 0.950 . S
H739 C745 0.950 . S
H740 C746 0.949 . S
C741 H736 0.950 . S
C741 C743 1.327 . S
C741 C747 1.429 . S
C742 C734 1.574 . S
C742 H737 0.949 . S
C742 C748 1.368 . S
C743 C727 1.349 . S
C743 H735 0.950 . S
C743 C741 1.327 . S
C744 C732 1.349 . S
C744 H738 0.950 . S
C744 C745 1.327 . S
C745 H739 0.950 . S
C745 C744 1.327 . S
C745 C749 1.429 . S
C746 C729 1.574 . S
C746 H740 0.949 . S
C746 C750 1.368 . S
C747 C728 1.429 . S
C747 C741 1.429 . S
C747 C748 1.523 . S
C748 C729 1.368 . S
C748 C742 1.368 . S
C748 C747 1.523 . S
C749 C733 1.429 . S
C749 C745 1.429 . S
C749 C750 1.523 . S
C750 C734 1.368 . S
C750 C746 1.368 . S
C750 C749 1.523 . S
H751 C726 0.950 . S
H752 C728 0.950 . S
H753 C729 0.949 . S
H754 C731 0.950 . S
H755 C733 0.950 . S
C756 C757 1.349 . S
C756 C758 1.327 . S
C756 H781 0.950 1_556 S
C757 C756 1.349 . S
C757 C773 1.349 . S
C758 C756 1.327 . S
C758 C777 1.429 . S
C758 H782 0.950 . S
C759 C776 1.574 . S
C759 C778 1.368 . S
C759 H783 0.949 . S
H760 C764 0.949 . S
C761 C762 1.349 . S
C761 C763 1.327 . S
C761 H784 0.950 . S
C762 C761 1.349 . S
C762 C774 1.349 . S
C763 C761 1.327 . S
C763 C779 1.429 . S
C763 H785 0.950 . S
C764 H760 0.949 . S
C764 C772 1.574 . S
C764 C780 1.368 . S
H765 C773 0.950 . S
H766 C771 0.950 . S
H767 C772 0.949 . S
H768 C774 0.950 . S
H769 C775 0.950 . S
H770 C776 0.949 . S
C771 H766 0.950 . S
C771 C773 1.327 . S
C771 C777 1.429 . S
C772 C764 1.574 . S
C772 H767 0.949 . S
C772 C778 1.368 . S
C773 C757 1.349 . S
C773 H765 0.950 . S
C773 C771 1.327 . S
C774 C762 1.349 . S
C774 H768 0.950 . S
C774 C775 1.327 . S
C775 H769 0.950 . S
C775 C774 1.327 . S
C775 C779 1.429 . S
C776 C759 1.574 . S
C776 H770 0.949 . S
C776 C780 1.368 . S
C777 C758 1.429 . S
C777 C771 1.429 . S
C777 C778 1.523 . S
C778 C759 1.368 . S
C778 C772 1.368 . S
C778 C777 1.523 . S
C779 C763 1.429 . S
C779 C775 1.429 . S
C779 C780 1.523 . S
C780 C764 1.368 . S
C780 C776 1.368 . S
C780 C779 1.523 . S
H781 C756 0.950 1_554 S
H782 C758 0.950 . S
H783 C759 0.949 . S
H784 C761 0.950 . S
H785 C763 0.950 . S
C786 C787 1.349 . S
C786 C788 1.327 . S
C786 H811 0.950 . S
C787 C786 1.349 . S
C787 C803 1.349 . S
C788 C786 1.327 . S
C788 C807 1.429 . S
C788 H812 0.950 . S
C789 C806 1.574 . S
C789 C808 1.368 . S
C789 H813 0.949 . S
H790 C794 0.949 . S
C791 C792 1.349 . S
C791 C793 1.327 . S
C791 H814 0.950 . S
C792 C791 1.349 . S
C792 C804 1.349 . S
C793 C791 1.327 . S
C793 C809 1.429 . S
C793 H815 0.950 . S
C794 H790 0.949 . S
C794 C802 1.574 . S
C794 C810 1.368 . S
H795 C803 0.950 . S
H796 C801 0.950 . S
H797 C802 0.949 . S
H798 C804 0.950 . S
H799 C805 0.950 . S
H800 C806 0.949 . S
C801 H796 0.950 . S
C801 C803 1.327 . S
C801 C807 1.429 . S
C802 C794 1.574 . S
C802 H797 0.949 . S
C802 C808 1.368 . S
C803 C787 1.349 . S
C803 H795 0.950 . S
C803 C801 1.327 . S
C804 C792 1.349 . S
C804 H798 0.950 . S
C804 C805 1.327 . S
C805 H799 0.950 . S
C805 C804 1.327 . S
C805 C809 1.429 . S
C806 C789 1.574 . S
C806 H800 0.949 . S
C806 C810 1.368 . S
C807 C788 1.429 . S
C807 C801 1.429 . S
C807 C808 1.523 . S
C808 C789 1.368 . S
C808 C802 1.368 . S
C808 C807 1.523 . S
C809 C793 1.429 . S
C809 C805 1.429 . S
C809 C810 1.523 . S
C810 C794 1.368 . S
C810 C806 1.368 . S
C810 C809 1.523 . S
H811 C786 0.950 . S
H812 C788 0.950 . S
H813 C789 0.949 . S
H814 C791 0.950 . S
H815 C793 0.950 . S
C816 C817 1.349 . S
C816 C818 1.327 . S
C816 H841 0.950 1_554 S
C817 C816 1.349 . S
C817 C833 1.349 . S
C818 C816 1.327 . S
C818 C837 1.429 . S
C818 H842 0.950 . S
C819 C836 1.574 . S
C819 C838 1.368 . S
C819 H843 0.949 . S
H820 C824 0.949 . S
C821 C822 1.349 . S
C821 C823 1.327 . S
C821 H844 0.950 . S
C822 C821 1.349 . S
C822 C834 1.349 . S
C823 C821 1.327 . S
C823 C839 1.429 . S
C823 H845 0.950 . S
C824 H820 0.949 . S
C824 C832 1.574 . S
C824 C840 1.368 . S
H825 C833 0.950 . S
H826 C831 0.950 . S
H827 C832 0.949 . S
H828 C834 0.950 . S
H829 C835 0.950 . S
H830 C836 0.949 . S
C831 H826 0.950 . S
C831 C833 1.327 . S
C831 C837 1.429 . S
C832 C824 1.574 . S
C832 H827 0.949 . S
C832 C838 1.368 . S
C833 C817 1.349 . S
C833 H825 0.950 . S
C833 C831 1.327 . S
C834 C822 1.349 . S
C834 H828 0.950 . S
C834 C835 1.327 . S
C835 H829 0.950 . S
C835 C834 1.327 . S
C835 C839 1.429 . S
C836 C819 1.574 . S
C836 H830 0.949 . S
C836 C840 1.368 . S
C837 C818 1.429 . S
C837 C831 1.429 . S
C837 C838 1.523 . S
C838 C819 1.368 . S
C838 C832 1.368 . S
C838 C837 1.523 . S
C839 C823 1.429 . S
C839 C835 1.429 . S
C839 C840 1.523 . S
C840 C824 1.368 . S
C840 C836 1.368 . S
C840 C839 1.523 . S
H841 C816 0.950 1_556 S
H842 C818 0.950 . S
H843 C819 0.949 . S
H844 C821 0.950 . S
H845 C823 0.950 . S
C846 C847 1.349 . S
C846 C848 1.327 . S
C846 H871 0.950 . S
C847 C846 1.349 . S
C847 C863 1.349 . S
C848 C846 1.327 . S
C848 C867 1.429 . S
C848 H872 0.950 . S
C849 C866 1.574 . S
C849 C868 1.368 . S
C849 H873 0.949 . S
H850 C854 0.949 . S
C851 C852 1.349 . S
C851 C853 1.327 . S
C851 H874 0.950 . S
C852 C851 1.349 . S
C852 C864 1.349 . S
C853 C851 1.327 . S
C853 C869 1.429 . S
C853 H875 0.950 . S
C854 H850 0.949 . S
C854 C862 1.574 . S
C854 C870 1.368 . S
H855 C863 0.950 . S
H856 C861 0.950 . S
H857 C862 0.949 . S
H858 C864 0.950 . S
H859 C865 0.950 . S
H860 C866 0.949 . S
C861 H856 0.950 . S
C861 C863 1.327 . S
C861 C867 1.429 . S
C862 C854 1.574 . S
C862 H857 0.949 . S
C862 C868 1.368 . S
C863 C847 1.349 . S
C863 H855 0.950 . S
C863 C861 1.327 . S
C864 C852 1.349 . S
C864 H858 0.950 . S
C864 C865 1.327 . S
C865 H859 0.950 . S
C865 C864 1.327 . S
C865 C869 1.429 . S
C866 C849 1.574 . S
C866 H860 0.949 . S
C866 C870 1.368 . S
C867 C848 1.429 . S
C867 C861 1.429 . S
C867 C868 1.523 . S
C868 C849 1.368 . S
C868 C862 1.368 . S
C868 C867 1.523 . S
C869 C853 1.429 . S
C869 C865 1.429 . S
C869 C870 1.523 . S
C870 C854 1.368 . S
C870 C866 1.368 . S
C870 C869 1.523 . S
H871 C846 0.950 . S
H872 C848 0.950 . S
H873 C849 0.949 . S
H874 C851 0.950 . S
H875 C853 0.950 . S
C876 C877 1.349 . S
C876 C878 1.327 . S
C876 H901 0.950 . S
C877 C876 1.349 . S
C877 C893 1.349 . S
C878 C876 1.327 . S
C878 C897 1.429 . S
C878 H902 0.950 . S
C879 C896 1.574 . S
C879 C898 1.368 . S
C879 H903 0.949 . S
H880 C884 0.949 . S
C881 C882 1.349 . S
C881 C883 1.327 . S
C881 H904 0.950 . S
C882 C881 1.349 . S
C882 C894 1.349 . S
C883 C881 1.327 . S
C883 C899 1.429 . S
C883 H905 0.950 . S
C884 H880 0.949 . S
C884 C892 1.574 . S
C884 C900 1.368 . S
H885 C893 0.950 . S
H886 C891 0.950 . S
H887 C892 0.949 . S
H888 C894 0.950 . S
H889 C895 0.950 . S
H890 C896 0.949 . S
C891 H886 0.950 . S
C891 C893 1.327 . S
C891 C897 1.429 . S
C892 C884 1.574 . S
C892 H887 0.949 . S
C892 C898 1.368 . S
C893 C877 1.349 . S
C893 H885 0.950 . S
C893 C891 1.327 . S
C894 C882 1.349 . S
C894 H888 0.950 . S
C894 C895 1.327 . S
C895 H889 0.950 . S
C895 C894 1.327 . S
C895 C899 1.429 . S
C896 C879 1.574 . S
C896 H890 0.949 . S
C896 C900 1.368 . S
C897 C878 1.429 . S
C897 C891 1.429 . S
C897 C898 1.523 . S
C898 C879 1.368 . S
C898 C892 1.368 . S
C898 C897 1.523 . S
C899 C883 1.429 . S
C899 C895 1.429 . S
C899 C900 1.523 . S
C900 C884 1.368 . S
C900 C896 1.368 . S
C900 C899 1.523 . S
H901 C876 0.950 . S
H902 C878 0.950 . S
H903 C879 0.949 . S
H904 C881 0.950 . S
H905 C883 0.950 . S
C906 C907 1.349 . S
C906 C908 1.327 . S
C906 H931 0.950 . S
C907 C906 1.349 . S
C907 C923 1.349 . S
C908 C906 1.327 . S
C908 C927 1.429 . S
C908 H932 0.950 . S
C909 C926 1.574 . S
C909 C928 1.368 . S
C909 H933 0.949 . S
H910 C914 0.949 . S
C911 C912 1.349 . S
C911 C913 1.327 . S
C911 H934 0.950 . S
C912 C911 1.349 . S
C912 C924 1.349 . S
C913 C911 1.327 . S
C913 C929 1.429 . S
C913 H935 0.950 . S
C914 H910 0.949 . S
C914 C922 1.574 . S
C914 C930 1.368 . S
H915 C923 0.950 . S
H916 C921 0.950 . S
H917 C922 0.949 . S
H918 C924 0.950 . S
H919 C925 0.950 . S
H920 C926 0.949 . S
C921 H916 0.950 . S
C921 C923 1.327 . S
C921 C927 1.429 . S
C922 C914 1.574 . S
C922 H917 0.949 . S
C922 C928 1.368 . S
C923 C907 1.349 . S
C923 H915 0.950 . S
C923 C921 1.327 . S
C924 C912 1.349 . S
C924 H918 0.950 . S
C924 C925 1.327 . S
C925 H919 0.950 . S
C925 C924 1.327 . S
C925 C929 1.429 . S
C926 C909 1.574 . S
C926 H920 0.949 . S
C926 C930 1.368 . S
C927 C908 1.429 . S
C927 C921 1.429 . S
C927 C928 1.523 . S
C928 C909 1.368 . S
C928 C922 1.368 . S
C928 C927 1.523 . S
C929 C913 1.429 . S
C929 C925 1.429 . S
C929 C930 1.523 . S
C930 C914 1.368 . S
C930 C926 1.368 . S
C930 C929 1.523 . S
H931 C906 0.950 . S
H932 C908 0.950 . S
H933 C909 0.949 . S
H934 C911 0.950 . S
H935 C913 0.950 . S
C936 C937 1.349 . S
C936 C938 1.327 . S
C936 H961 0.950 . S
C937 C936 1.349 . S
C937 C953 1.349 . S
C938 C936 1.327 . S
C938 C957 1.429 . S
C938 H962 0.950 . S
C939 C956 1.574 . S
C939 C958 1.368 . S
C939 H963 0.949 . S
H940 C944 0.949 . S
C941 C942 1.349 . S
C941 C943 1.327 . S
C941 H964 0.950 . S
C942 C941 1.349 . S
C942 C954 1.349 . S
C943 C941 1.327 . S
C943 C959 1.429 . S
C943 H965 0.950 . S
C944 H940 0.949 . S
C944 C952 1.574 . S
C944 C960 1.368 . S
H945 C953 0.950 . S
H946 C951 0.950 . S
H947 C952 0.949 . S
H948 C954 0.950 . S
H949 C955 0.950 . S
H950 C956 0.949 . S
C951 H946 0.950 . S
C951 C953 1.327 . S
C951 C957 1.429 . S
C952 C944 1.574 . S
C952 H947 0.949 . S
C952 C958 1.368 . S
C953 C937 1.349 . S
C953 H945 0.950 . S
C953 C951 1.327 . S
C954 C942 1.349 . S
C954 H948 0.950 . S
C954 C955 1.327 . S
C955 H949 0.950 . S
C955 C954 1.327 . S
C955 C959 1.429 . S
C956 C939 1.574 . S
C956 H950 0.949 . S
C956 C960 1.368 . S
C957 C938 1.429 . S
C957 C951 1.429 . S
C957 C958 1.523 . S
C958 C939 1.368 . S
C958 C952 1.368 . S
C958 C957 1.523 . S
C959 C943 1.429 . S
C959 C955 1.429 . S
C959 C960 1.523 . S
C960 C944 1.368 . S
C960 C956 1.368 . S
C960 C959 1.523 . S
H961 C936 0.950 . S
H962 C938 0.950 . S
H963 C939 0.949 . S
H964 C941 0.950 . S
H965 C943 0.950 . S
C966 C967 1.349 . S
C966 C968 1.327 . S
C966 H991 0.950 . S
C967 C966 1.349 . S
C967 C983 1.349 . S
C968 C966 1.327 . S
C968 C987 1.429 . S
C968 H992 0.950 . S
C969 C986 1.574 . S
C969 C988 1.368 . S
C969 H993 0.949 . S
H970 C974 0.949 . S
C971 C972 1.349 . S
C971 C973 1.327 . S
C971 H994 0.950 . S
C972 C971 1.349 . S
C972 C984 1.349 . S
C973 C971 1.327 . S
C973 C989 1.429 . S
C973 H995 0.950 . S
C974 H970 0.949 . S
C974 C982 1.574 . S
C974 C990 1.368 . S
H975 C983 0.950 . S
H976 C981 0.950 . S
H977 C982 0.949 . S
H978 C984 0.950 . S
H979 C985 0.950 . S
H980 C986 0.949 . S
C981 H976 0.950 . S
C981 C983 1.327 . S
C981 C987 1.429 . S
C982 C974 1.574 . S
C982 H977 0.949 . S
C982 C988 1.368 . S
C983 C967 1.349 . S
C983 H975 0.950 . S
C983 C981 1.327 . S
C984 C972 1.349 . S
C984 H978 0.950 . S
C984 C985 1.327 . S
C985 H979 0.950 . S
C985 C984 1.327 . S
C985 C989 1.429 . S
C986 C969 1.574 . S
C986 H980 0.949 . S
C986 C990 1.368 . S
C987 C968 1.429 . S
C987 C981 1.429 . S
C987 C988 1.523 . S
C988 C969 1.368 . S
C988 C982 1.368 . S
C988 C987 1.523 . S
C989 C973 1.429 . S
C989 C985 1.429 . S
C989 C990 1.523 . S
C990 C974 1.368 . S
C990 C986 1.368 . S
C990 C989 1.523 . S
H991 C966 0.950 . S
H992 C968 0.950 . S
H993 C969 0.949 . S
H994 C971 0.950 . S
H995 C973 0.950 . S
C996 C997 1.349 . S
C996 C998 1.327 . S
C996 H1021 0.950 . S
C997 C996 1.349 . S
C997 C1013 1.349 . S
C998 C996 1.327 . S
C998 C1017 1.429 . S
C998 H1022 0.950 . S
C999 C1016 1.574 . S
C999 C1018 1.368 . S
C999 H1023 0.949 . S
H1000 C1004 0.949 . S
C1001 C1002 1.349 . S
C1001 C1003 1.327 . S
C1001 H1024 0.950 . S
C1002 C1001 1.349 . S
C1002 C1014 1.349 . S
C1003 C1001 1.327 . S
C1003 C1019 1.429 . S
C1003 H1025 0.950 . S
C1004 H1000 0.949 . S
C1004 C1012 1.574 . S
C1004 C1020 1.368 . S
H1005 C1013 0.950 . S
H1006 C1011 0.950 . S
H1007 C1012 0.949 . S
H1008 C1014 0.950 . S
H1009 C1015 0.950 . S
H1010 C1016 0.949 . S
C1011 H1006 0.950 . S
C1011 C1013 1.327 . S
C1011 C1017 1.429 . S
C1012 C1004 1.574 . S
C1012 H1007 0.949 . S
C1012 C1018 1.368 . S
C1013 C997 1.349 . S
C1013 H1005 0.950 . S
C1013 C1011 1.327 . S
C1014 C1002 1.349 . S
C1014 H1008 0.950 . S
C1014 C1015 1.327 . S
C1015 H1009 0.950 . S
C1015 C1014 1.327 . S
C1015 C1019 1.429 . S
C1016 C999 1.574 . S
C1016 H1010 0.949 . S
C1016 C1020 1.368 . S
C1017 C998 1.429 . S
C1017 C1011 1.429 . S
C1017 C1018 1.523 . S
C1018 C999 1.368 . S
C1018 C1012 1.368 . S
C1018 C1017 1.523 . S
C1019 C1003 1.429 . S
C1019 C1015 1.429 . S
C1019 C1020 1.523 . S
C1020 C1004 1.368 . S
C1020 C1016 1.368 . S
C1020 C1019 1.523 . S
H1021 C996 0.950 . S
H1022 C998 0.950 . S
H1023 C999 0.949 . S
H1024 C1001 0.950 . S
H1025 C1003 0.950 . S
C1026 C1027 1.349 . S
C1026 C1028 1.327 . S
C1026 H1051 0.950 . S
C1027 C1026 1.349 . S
C1027 C1043 1.349 . S
C1028 C1026 1.327 . S
C1028 C1047 1.429 . S
C1028 H1052 0.950 . S
C1029 C1046 1.574 . S
C1029 C1048 1.368 . S
C1029 H1053 0.949 . S
H1030 C1034 0.949 . S
C1031 C1032 1.349 . S
C1031 C1033 1.327 . S
C1031 H1054 0.950 . S
C1032 C1031 1.349 . S
C1032 C1044 1.349 . S
C1033 C1031 1.327 . S
C1033 C1049 1.429 . S
C1033 H1055 0.950 . S
C1034 H1030 0.949 . S
C1034 C1042 1.574 . S
C1034 C1050 1.368 . S
H1035 C1043 0.950 . S
H1036 C1041 0.950 . S
H1037 C1042 0.949 . S
H1038 C1044 0.950 . S
H1039 C1045 0.950 . S
H1040 C1046 0.949 . S
C1041 H1036 0.950 . S
C1041 C1043 1.327 . S
C1041 C1047 1.429 . S
C1042 C1034 1.574 . S
C1042 H1037 0.949 . S
C1042 C1048 1.368 . S
C1043 C1027 1.349 . S
C1043 H1035 0.950 . S
C1043 C1041 1.327 . S
C1044 C1032 1.349 . S
C1044 H1038 0.950 . S
C1044 C1045 1.327 . S
C1045 H1039 0.950 . S
C1045 C1044 1.327 . S
C1045 C1049 1.429 . S
C1046 C1029 1.574 . S
C1046 H1040 0.949 . S
C1046 C1050 1.368 . S
C1047 C1028 1.429 . S
C1047 C1041 1.429 . S
C1047 C1048 1.523 . S
C1048 C1029 1.368 . S
C1048 C1042 1.368 . S
C1048 C1047 1.523 . S
C1049 C1033 1.429 . S
C1049 C1045 1.429 . S
C1049 C1050 1.523 . S
C1050 C1034 1.368 . S
C1050 C1046 1.368 . S
C1050 C1049 1.523 . S
H1051 C1026 0.950 . S
H1052 C1028 0.950 . S
H1053 C1029 0.949 . S
H1054 C1031 0.950 . S
H1055 C1033 0.950 . S
C1056 C1057 1.349 . S
C1056 C1058 1.327 . S
C1056 H1081 0.950 . S
C1057 C1056 1.349 . S
C1057 C1073 1.349 . S
C1058 C1056 1.327 . S
C1058 C1077 1.429 . S
C1058 H1082 0.950 . S
C1059 C1076 1.574 . S
C1059 C1078 1.368 . S
C1059 H1083 0.949 . S
H1060 C1064 0.949 . S
C1061 C1062 1.349 . S
C1061 C1063 1.327 . S
C1061 H1084 0.950 . S
C1062 C1061 1.349 . S
C1062 C1074 1.349 . S
C1063 C1061 1.327 . S
C1063 C1079 1.429 . S
C1063 H1085 0.950 . S
C1064 H1060 0.949 . S
C1064 C1072 1.574 . S
C1064 C1080 1.368 . S
H1065 C1073 0.950 . S
H1066 C1071 0.950 . S
H1067 C1072 0.949 . S
H1068 C1074 0.950 . S
H1069 C1075 0.950 . S
H1070 C1076 0.949 . S
C1071 H1066 0.950 . S
C1071 C1073 1.327 . S
C1071 C1077 1.429 . S
C1072 C1064 1.574 . S
C1072 H1067 0.949 . S
C1072 C1078 1.368 . S
C1073 C1057 1.349 . S
C1073 H1065 0.950 . S
C1073 C1071 1.327 . S
C1074 C1062 1.349 . S
C1074 H1068 0.950 . S
C1074 C1075 1.327 . S
C1075 H1069 0.950 . S
C1075 C1074 1.327 . S
C1075 C1079 1.429 . S
C1076 C1059 1.574 . S
C1076 H1070 0.949 . S
C1076 C1080 1.368 . S
C1077 C1058 1.429 . S
C1077 C1071 1.429 . S
C1077 C1078 1.523 . S
C1078 C1059 1.368 . S
C1078 C1072 1.368 . S
C1078 C1077 1.523 . S
C1079 C1063 1.429 . S
C1079 C1075 1.429 . S
C1079 C1080 1.523 . S
C1080 C1064 1.368 . S
C1080 C1076 1.368 . S
C1080 C1079 1.523 . S
H1081 C1056 0.950 . S
H1082 C1058 0.950 . S
H1083 C1059 0.949 . S
H1084 C1061 0.950 . S
H1085 C1063 0.950 . S
C1086 C1087 1.349 . S
C1086 C1088 1.327 . S
C1086 H1111 0.950 . S
C1087 C1086 1.349 . S
C1087 C1103 1.349 . S
C1088 C1086 1.327 . S
C1088 C1107 1.429 . S
C1088 H1112 0.950 . S
C1089 C1106 1.574 . S
C1089 C1108 1.368 . S
C1089 H1113 0.949 . S
H1090 C1094 0.949 . S
C1091 C1092 1.349 . S
C1091 C1093 1.327 . S
C1091 H1114 0.950 . S
C1092 C1091 1.349 . S
C1092 C1104 1.349 . S
C1093 C1091 1.327 . S
C1093 C1109 1.429 . S
C1093 H1115 0.950 . S
C1094 H1090 0.949 . S
C1094 C1102 1.574 . S
C1094 C1110 1.368 . S
H1095 C1103 0.950 . S
H1096 C1101 0.950 . S
H1097 C1102 0.949 . S
H1098 C1104 0.950 . S
H1099 C1105 0.950 . S
H1100 C1106 0.949 . S
C1101 H1096 0.950 . S
C1101 C1103 1.327 . S
C1101 C1107 1.429 . S
C1102 C1094 1.574 . S
C1102 H1097 0.949 . S
C1102 C1108 1.368 . S
C1103 C1087 1.349 . S
C1103 H1095 0.950 . S
C1103 C1101 1.327 . S
C1104 C1092 1.349 . S
C1104 H1098 0.950 . S
C1104 C1105 1.327 . S
C1105 H1099 0.950 . S
C1105 C1104 1.327 . S
C1105 C1109 1.429 . S
C1106 C1089 1.574 . S
C1106 H1100 0.949 . S
C1106 C1110 1.368 . S
C1107 C1088 1.429 . S
C1107 C1101 1.429 . S
C1107 C1108 1.523 . S
C1108 C1089 1.368 . S
C1108 C1102 1.368 . S
C1108 C1107 1.523 . S
C1109 C1093 1.429 . S
C1109 C1105 1.429 . S
C1109 C1110 1.523 . S
C1110 C1094 1.368 . S
C1110 C1106 1.368 . S
C1110 C1109 1.523 . S
H1111 C1086 0.950 . S
H1112 C1088 0.950 . S
H1113 C1089 0.949 . S
H1114 C1091 0.950 . S
H1115 C1093 0.950 . S
C397 C235 1.371 . S
C402 C328 1.309 . S
C432 C336 1.299 . S
C427 C289 1.360 . S
C462 C340 1.292 . S
C457 C157 1.361 . S
C487 C211 1.349 . S
C492 C316 1.282 . S
C522 C357 1.307 . S
C517 C79 1.368 . S
C552 C391 1.308 . S
C547 C118 1.369 . S
C577 C1 1.357 . S
C582 C379 1.289 . S
C607 C40 1.358 . S
C612 C361 1.290 . S
C642 C315 1.265 . S
C637 C55 1.411 1_554 S
C672 C349 1.266 . S
C667 C16 1.413 . S
C702 C353 1.268 . S
C697 C133 1.416 1_556 S
C732 C331 1.269 . S
C727 C94 1.417 . S
C762 C370 1.272 . S
C757 C196 1.418 1_556 S
C787 C172 1.416 . S
C792 C378 1.270 . S
C822 C394 1.275 . S
C817 C274 1.423 1_554 S
C847 C250 1.421 . S
C852 C374 1.272 . S
C882 C319 1.311 . S
C877 C21 1.490 . S
C912 C337 1.314 . S
C907 C60 1.494 . S
C937 C99 1.475 . S
C942 C352 1.304 . S
C972 C332 1.307 . S
C967 C138 1.479 . S
C1002 C358 1.316 . S
C997 C177 1.500 . S
C1027 C216 1.492 . S
C1032 C382 1.313 . S
C1057 C255 1.484 . S
C1062 C395 1.310 . S
C1087 C294 1.477 . S
C1092 C373 1.306 . S
