# Generated by pormake.
# Topology nom, (4,4)-cn, num edge types: 1
# Building blocks:
#     Node 0, Type 0, BuildingBlock: MIFKUJ_clean_linker_1, # of connection points: 4
#     Node 1, Type 0, BuildingBlock: MIFKUJ_clean_linker_1, # of connection points: 4
#     Node 2, Type 0, BuildingBlock: MIFKUJ_clean_linker_1, # of connection points: 4
#     Node 3, Type 0, BuildingBlock: MIFKUJ_clean_linker_1, # of connection points: 4
#     Node 4, Type 0, BuildingBlock: MIFKUJ_clean_linker_1, # of connection points: 4
#     Node 5, Type 0, BuildingBlock: MIFKUJ_clean_linker_1, # of connection points: 4
#     Node 6, Type 1, BuildingBlock: TATPOV_clean_sbu_0, # of connection points: 4
#     Node 7, Type 1, BuildingBlock: TATPOV_clean_sbu_0, # of connection points: 4
#     Node 8, Type 1, BuildingBlock: TATPOV_clean_sbu_0, # of connection points: 4
#     Node 9, Type 1, BuildingBlock: TATPOV_clean_sbu_0, # of connection points: 4
#     Node 10, Type 1, BuildingBlock: TATPOV_clean_sbu_0, # of connection points: 4
#     Node 11, Type 1, BuildingBlock: TATPOV_clean_sbu_0, # of connection points: 4
#     Edge 12, Type (0, 1), BuildingBlock: AJUNOK_clean_linker_0, # of connection points: 2
#     Edge 13, Type (0, 1), BuildingBlock: AJUNOK_clean_linker_0, # of connection points: 2
#     Edge 14, Type (0, 1), BuildingBlock: AJUNOK_clean_linker_0, # of connection points: 2
#     Edge 15, Type (0, 1), BuildingBlock: AJUNOK_clean_linker_0, # of connection points: 2
#     Edge 16, Type (0, 1), BuildingBlock: AJUNOK_clean_linker_0, # of connection points: 2
#     Edge 17, Type (0, 1), BuildingBlock: AJUNOK_clean_linker_0, # of connection points: 2
#     Edge 18, Type (0, 1), BuildingBlock: AJUNOK_clean_linker_0, # of connection points: 2
#     Edge 19, Type (0, 1), BuildingBlock: AJUNOK_clean_linker_0, # of connection points: 2
#     Edge 20, Type (0, 1), BuildingBlock: AJUNOK_clean_linker_0, # of connection points: 2
#     Edge 21, Type (0, 1), BuildingBlock: AJUNOK_clean_linker_0, # of connection points: 2
#     Edge 22, Type (0, 1), BuildingBlock: AJUNOK_clean_linker_0, # of connection points: 2
#     Edge 23, Type (0, 1), BuildingBlock: AJUNOK_clean_linker_0, # of connection points: 2
#     Edge 24, Type (0, 1), BuildingBlock: AJUNOK_clean_linker_0, # of connection points: 2
#     Edge 25, Type (0, 1), BuildingBlock: AJUNOK_clean_linker_0, # of connection points: 2
#     Edge 26, Type (0, 1), BuildingBlock: AJUNOK_clean_linker_0, # of connection points: 2
#     Edge 27, Type (0, 1), BuildingBlock: AJUNOK_clean_linker_0, # of connection points: 2
#     Edge 28, Type (0, 1), BuildingBlock: AJUNOK_clean_linker_0, # of connection points: 2
#     Edge 29, Type (0, 1), BuildingBlock: AJUNOK_clean_linker_0, # of connection points: 2
#     Edge 30, Type (0, 1), BuildingBlock: AJUNOK_clean_linker_0, # of connection points: 2
#     Edge 31, Type (0, 1), BuildingBlock: AJUNOK_clean_linker_0, # of connection points: 2
#     Edge 32, Type (0, 1), BuildingBlock: AJUNOK_clean_linker_0, # of connection points: 2
#     Edge 33, Type (0, 1), BuildingBlock: AJUNOK_clean_linker_0, # of connection points: 2
#     Edge 34, Type (0, 1), BuildingBlock: AJUNOK_clean_linker_0, # of connection points: 2
#     Edge 35, Type (0, 1), BuildingBlock: AJUNOK_clean_linker_0, # of connection points: 2
# Relax obj value: 0.019
# Max RMSD: 0.115
# Mean RMSD: 0.105
data_MOF--net-nom--node1-TATPOV_clean_sbu_0--node2-MIFKUJ_clean_linker_1--edge1-AJUNOK_clean_linker_0
_symmetry_space_group_name_H-M    P1
_symmetry_Int_Tables_number       1
_symmetry_cell_setting            triclinic
loop_
_symmetry_equiv_pos_as_xyz
'x, y, z'
_cell_length_a     41.387076
_cell_length_b     41.936903
_cell_length_c     43.684883
_cell_angle_alpha  90.730913
_cell_angle_beta   90.678955
_cell_angle_gamma 120.06706
loop_
_atom_site_label
_atom_site_type_symbol
_atom_site_fract_x
_atom_site_fract_y
_atom_site_fract_z
_atom_type_partial_charge
H0 H 0.9622 0.41175 0.25626 0.0
H1 H 0.91809 0.40103 0.21404 0.0
H2 H 0.89055 0.47759 0.25675 0.0
H3 H 0.93551 0.4891 0.29829 0.0
H4 H 0.02431 0.48455 0.27102 0.0
H5 H 0.9035 0.39519 0.3209 0.0
H6 H 0.84276 0.38539 0.3379 0.0
H7 H 0.89952 0.48162 0.39739 0.0
H8 H 0.95921 0.49271 0.37918 0.0
H9 H 0.03874 0.53013 0.39483 0.0
H10 H 0.08652 0.56459 0.43397 0.0
H11 H 0.15651 0.52597 0.39517 0.0
H12 H 0.10787 0.49061 0.35574 0.0
H13 H 0.99739 0.46214 0.38132 0.0
H14 H 0.08327 0.56719 0.33409 0.0
H15 H 0.14139 0.61754 0.31517 0.0
H16 H 0.15212 0.54143 0.25447 0.0
H17 H 0.09413 0.49042 0.27446 0.0
C18 C 0.95167 0.45074 0.28065 0.0
C19 C 0.94621 0.42578 0.25671 0.0
C20 C 0.92082 0.41946 0.23276 0.0
C21 C 0.90056 0.43815 0.2323 0.0
C22 C 0.90572 0.46274 0.25655 0.0
C23 C 0.93118 0.46914 0.2804 0.0
C24 C 0.9811 0.45996 0.30439 0.0
C25 C 0.01847 0.47877 0.29511 0.0
C26 C 0.97336 0.45507 0.33605 0.0
C27 C 0.93612 0.44493 0.34845 0.0
C28 C 0.90279 0.41407 0.33765 0.0
C29 C 0.86813 0.40824 0.34764 0.0
C30 C 0.86647 0.43289 0.36887 0.0
C31 C 0.89989 0.46242 0.38075 0.0
C32 C 0.93414 0.46853 0.37053 0.0
C33 C 0.06956 0.50754 0.37242 0.0
C34 C 0.06407 0.52851 0.39486 0.0
C35 C 0.09153 0.54849 0.41707 0.0
C36 C 0.12515 0.54796 0.41748 0.0
C37 C 0.13067 0.52659 0.39538 0.0
C38 C 0.10304 0.50658 0.37286 0.0
C39 C 0.0404 0.48818 0.34813 0.0
C40 C 0.00325 0.46667 0.35711 0.0
C41 C 0.04807 0.49514 0.31668 0.0
C42 C 0.08481 0.52483 0.30628 0.0
C43 C 0.09855 0.56104 0.31731 0.0
C44 C 0.13154 0.58991 0.30619 0.0
C45 C 0.15134 0.58339 0.28344 0.0
C46 C 0.13773 0.54713 0.27238 0.0
C47 C 0.10459 0.51806 0.28366 0.0
H48 H 0.42449 0.95707 0.51456 0.0
H49 H 0.38298 0.89662 0.53525 0.0
H50 H 0.46988 0.86856 0.52688 0.0
H51 H 0.51055 0.92877 0.50407 0.0
H52 H 0.50497 0.00863 0.54067 0.0
H53 H 0.42816 0.9347 0.45306 0.0
H54 H 0.4054 0.88878 0.41122 0.0
H55 H 0.51733 0.93564 0.3777 0.0
H56 H 0.54061 0.9806 0.4205 0.0
H57 H 0.60062 0.11743 0.48365 0.0
H58 H 0.62381 0.17979 0.46419 0.0
H59 H 0.51696 0.14378 0.41982 0.0
H60 H 0.49396 0.08152 0.43907 0.0
H61 H 0.52111 0.0328 0.42954 0.0
H62 H 0.57688 0.06608 0.55352 0.0
H63 H 0.58872 0.10752 0.59755 0.0
H64 H 0.51634 0.14249 0.55677 0.0
H65 H 0.50372 0.10026 0.51319 0.0
C66 C 0.47027 0.94704 0.5075 0.0
C67 C 0.43444 0.93772 0.51694 0.0
C68 C 0.4109 0.90326 0.52904 0.0
C69 C 0.42299 0.87758 0.53276 0.0
C70 C 0.45932 0.88728 0.5237 0.0
C71 C 0.48269 0.9217 0.51087 0.0
C72 C 0.49464 0.9842 0.49549 0.0
C73 C 0.50935 0.01399 0.51639 0.0
C74 C 0.50007 0.99089 0.46383 0.0
C75 C 0.48629 0.96069 0.44041 0.0
C76 C 0.44815 0.93423 0.4376 0.0
C77 C 0.43508 0.90813 0.4136 0.0
C78 C 0.4598 0.90863 0.39168 0.0
C79 C 0.49795 0.93459 0.39467 0.0
C80 C 0.51113 0.96029 0.41895 0.0
C81 C 0.54562 0.0949 0.46273 0.0
C82 C 0.58229 0.12297 0.46964 0.0
C83 C 0.59551 0.15843 0.45845 0.0
C84 C 0.57214 0.16636 0.44041 0.0
C85 C 0.53544 0.13829 0.43367 0.0
C86 C 0.52241 0.10278 0.44451 0.0
C87 C 0.53087 0.05732 0.47476 0.0
C88 C 0.51807 0.02749 0.45388 0.0
C89 C 0.52749 0.05049 0.50649 0.0
C90 C 0.53952 0.08017 0.53007 0.0
C91 C 0.56411 0.08318 0.55382 0.0
C92 C 0.57096 0.10692 0.57886 0.0
C93 C 0.55305 0.12777 0.58067 0.0
C94 C 0.53007 0.12627 0.55608 0.0
C95 C 0.52317 0.10248 0.53104 0.0
H96 H 0.54694 0.59275 0.72147 0.0
H97 H 0.52921 0.61695 0.76554 0.0
H98 H 0.41402 0.55628 0.73482 0.0
H99 H 0.43156 0.5313 0.69114 0.0
H100 H 0.52036 0.51839 0.7142 0.0
H101 H 0.50827 0.61321 0.65314 0.0
H102 H 0.46751 0.63689 0.63615 0.0
H103 H 0.38862 0.5294 0.59842 0.0
H104 H 0.42901 0.50581 0.61558 0.0
H105 H 0.50313 0.43295 0.62333 0.0
H106 H 0.53297 0.41129 0.58707 0.0
H107 H 0.60838 0.52388 0.56203 0.0
H108 H 0.5802 0.54537 0.59976 0.0
H109 H 0.50271 0.52641 0.60267 0.0
H110 H 0.48092 0.42987 0.67897 0.0
H111 H 0.49582 0.38551 0.70097 0.0
H112 H 0.61115 0.47145 0.71289 0.0
H113 H 0.5961 0.51541 0.68909 0.0
C114 C 0.49061 0.56033 0.70294 0.0
C115 C 0.51795 0.58521 0.72388 0.0
C116 C 0.50791 0.5991 0.74894 0.0
C117 C 0.47036 0.58843 0.75338 0.0
C118 C 0.44323 0.5652 0.73156 0.0
C119 C 0.45323 0.55096 0.70663 0.0
C120 C 0.50103 0.54141 0.67951 0.0
C121 C 0.51706 0.52077 0.68979 0.0
C122 C 0.49402 0.54192 0.64778 0.0
C123 C 0.47151 0.5577 0.6358 0.0
C124 C 0.48226 0.59484 0.64112 0.0
C125 C 0.45907 0.60832 0.63139 0.0
C126 C 0.42475 0.58476 0.61641 0.0
C127 C 0.41461 0.54792 0.6104 0.0
C128 C 0.43782 0.53456 0.61993 0.0
C129 C 0.53998 0.49086 0.61476 0.0
C130 C 0.5266 0.45298 0.61054 0.0
C131 C 0.54327 0.44058 0.58938 0.0
C132 C 0.57305 0.46586 0.57161 0.0
C133 C 0.58589 0.50371 0.57566 0.0
C134 C 0.56958 0.51603 0.59701 0.0
C135 C 0.52364 0.50503 0.63745 0.0
C136 C 0.50661 0.52476 0.62708 0.0
C137 C 0.52721 0.50165 0.66922 0.0
C138 C 0.53761 0.4755 0.68177 0.0
C139 C 0.50952 0.43897 0.68594 0.0
C140 C 0.51802 0.41381 0.69884 0.0
C141 C 0.55472 0.42488 0.70858 0.0
C142 C 0.5828 0.46186 0.70499 0.0
C143 C 0.57428 0.48701 0.69156 0.0
H144 H 0.0369 0.57895 0.76545 0.0
H145 H 0.08264 0.61065 0.72581 0.0
H146 H 0.11433 0.52698 0.72862 0.0
H147 H 0.06933 0.49613 0.76955 0.0
H148 H 0.97641 0.49582 0.75963 0.0
H149 H 0.0928 0.58475 0.81817 0.0
H150 H 0.15699 0.6035 0.83439 0.0
H151 H 0.11762 0.49682 0.87423 0.0
H152 H 0.05431 0.47762 0.85667 0.0
H153 H 0.9543 0.44035 0.88544 0.0
H154 H 0.91089 0.42565 0.92754 0.0
H155 H 0.86492 0.48657 0.8842 0.0
H156 H 0.90901 0.50204 0.84247 0.0
H157 H 0.00846 0.50303 0.87015 0.0
H158 H 0.90296 0.41109 0.82287 0.0
H159 H 0.83867 0.37295 0.8051 0.0
H160 H 0.85446 0.45549 0.73936 0.0
H161 H 0.91756 0.4955 0.75974 0.0
C162 C 0.04959 0.53511 0.77015 0.0
C163 C 0.0538 0.56752 0.75759 0.0
C164 C 0.07978 0.58545 0.73484 0.0
C165 C 0.10144 0.57081 0.72355 0.0
C166 C 0.09794 0.53883 0.73679 0.0
C167 C 0.07218 0.5211 0.75998 0.0
C168 C 0.0208 0.51602 0.79342 0.0
C169 C 0.98312 0.49766 0.7839 0.0
C170 C 0.03001 0.51625 0.82468 0.0
C171 C 0.06881 0.5295 0.8357 0.0
C172 C 0.0981 0.56533 0.83014 0.0
C173 C 0.13465 0.57622 0.83983 0.0
C174 C 0.14226 0.55159 0.85557 0.0
C175 C 0.11266 0.51625 0.86188 0.0
C176 C 0.07642 0.50533 0.852 0.0
C177 C 0.93491 0.47226 0.86074 0.0
C178 C 0.93466 0.45028 0.88484 0.0
C179 C 0.90956 0.44153 0.9087 0.0
C180 C 0.88431 0.45468 0.90895 0.0
C181 C 0.88404 0.47602 0.88451 0.0
C182 C 0.90909 0.48471 0.86062 0.0
C183 C 0.96358 0.4841 0.83671 0.0
C184 C 0.00127 0.50111 0.84597 0.0
C185 C 0.95425 0.48043 0.80503 0.0
C186 C 0.91507 0.45689 0.79344 0.0
C187 C 0.89234 0.42165 0.80533 0.0
C188 C 0.85564 0.39943 0.79467 0.0
C189 C 0.841 0.41126 0.77106 0.0
C190 C 0.86422 0.44594 0.75831 0.0
C191 C 0.90066 0.46868 0.76964 0.0
H192 H 0.62739 0.09939 0.99145 0.0
H193 H 0.66395 0.1623 0.01226 0.0
H194 H 0.57188 0.14367 0.0694 0.0
H195 H 0.53558 0.08054 0.04885 0.0
H196 H 0.54263 0.02286 0.05005 0.0
H197 H 0.59035 0.05375 0.92024 0.0
H198 H 0.59683 0.09728 0.88059 0.0
H199 H 0.53941 0.1372 0.93744 0.0
H200 H 0.53113 0.0925 0.97614 0.0
H201 H 0.46591 0.93968 0.93773 0.0
H202 H 0.43771 0.87581 0.91869 0.0
H203 H 0.51046 0.85859 0.97933 0.0
H204 H 0.53831 0.92217 0.99846 0.0
H205 H 0.53156 0.99781 0.93799 0.0
H206 H 0.4477 0.92741 0.00983 0.0
H207 H 0.41095 0.88019 0.04662 0.0
H208 H 0.5079 0.92101 0.10658 0.0
H209 H 0.54539 0.96702 0.06871 0.0
C210 C 0.57867 0.08522 0.01849 0.0
C211 C 0.61505 0.10883 0.00846 0.0
C212 C 0.63593 0.14476 0.02038 0.0
C213 C 0.62093 0.15784 0.04268 0.0
C214 C 0.58454 0.13415 0.05278 0.0
C215 C 0.5637 0.09812 0.04093 0.0
C216 C 0.55649 0.04711 0.00553 0.0
C217 C 0.54053 0.01738 0.02557 0.0
C218 C 0.55155 0.04001 0.97352 0.0
C219 C 0.5603 0.06976 0.9513 0.0
C220 C 0.57937 0.07204 0.92427 0.0
C221 C 0.5833 0.09709 0.90172 0.0
C222 C 0.56812 0.12021 0.90576 0.0
C223 C 0.55075 0.1192 0.93345 0.0
C224 C 0.54651 0.09398 0.95581 0.0
C225 C 0.5039 0.93559 0.96982 0.0
C226 C 0.47594 0.92221 0.94678 0.0
C227 C 0.45984 0.88575 0.93594 0.0
C228 C 0.47146 0.86208 0.94793 0.0
C229 C 0.50027 0.87591 0.97026 0.0
C230 C 0.51629 0.91227 0.98111 0.0
C231 C 0.51987 0.97369 0.98255 0.0
C232 C 0.53442 0.00338 0.96248 0.0
C233 C 0.52109 0.98075 0.01446 0.0
C234 C 0.49952 0.95071 0.03629 0.0
C235 C 0.46142 0.92572 0.0305 0.0
C236 C 0.44023 0.89902 0.05177 0.0
C237 C 0.4564 0.89731 0.0797 0.0
C238 C 0.49472 0.92165 0.0852 0.0
C239 C 0.51607 0.94814 0.06371 0.0
H240 H 0.47657 0.44186 0.23172 0.0
H241 H 0.50433 0.4245 0.27377 0.0
H242 H 0.61438 0.50075 0.24157 0.0
H243 H 0.58682 0.51869 0.20027 0.0
H244 H 0.49087 0.51516 0.22443 0.0
H245 H 0.50679 0.4235 0.15617 0.0
H246 H 0.54768 0.40219 0.13517 0.0
H247 H 0.62888 0.51463 0.11379 0.0
H248 H 0.58703 0.53501 0.13289 0.0
H249 H 0.52097 0.57307 0.10051 0.0
H250 H 0.49247 0.59087 0.0597 0.0
H251 H 0.3854 0.5302 0.10259 0.0
H252 H 0.41375 0.51169 0.14296 0.0
H253 H 0.50926 0.50794 0.11306 0.0
H254 H 0.51323 0.60322 0.17092 0.0
H255 H 0.49271 0.645 0.18999 0.0
H256 H 0.39986 0.55407 0.23396 0.0
H257 H 0.42148 0.5125 0.21561 0.0
C258 C 0.52961 0.48134 0.21273 0.0
C259 C 0.50665 0.4544 0.2335 0.0
C260 C 0.52244 0.44435 0.25733 0.0
C261 C 0.5614 0.46148 0.26088 0.0
C262 C 0.58425 0.48732 0.23936 0.0
C263 C 0.56851 0.49735 0.21563 0.0
C264 C 0.51321 0.49504 0.18967 0.0
C265 C 0.49392 0.51264 0.20003 0.0
C266 C 0.51972 0.49438 0.15804 0.0
C267 C 0.54397 0.48078 0.14599 0.0
C268 C 0.53338 0.44336 0.14679 0.0
C269 C 0.55693 0.43133 0.13505 0.0
C270 C 0.59176 0.45672 0.12293 0.0
C271 C 0.60208 0.49418 0.12244 0.0
C272 C 0.5783 0.50597 0.13352 0.0
C273 C 0.46951 0.54104 0.1248 0.0
C274 C 0.49145 0.56396 0.10133 0.0
C275 C 0.47525 0.57447 0.07824 0.0
C276 C 0.4368 0.56216 0.07819 0.0
C277 C 0.41512 0.54015 0.10218 0.0
C278 C 0.43133 0.52971 0.12529 0.0
C279 C 0.48583 0.52699 0.14771 0.0
C280 C 0.50517 0.50953 0.1374 0.0
C281 C 0.48151 0.52989 0.17949 0.0
C282 C 0.4687 0.55473 0.19167 0.0
C283 C 0.4885 0.59229 0.18475 0.0
C284 C 0.47672 0.61613 0.19563 0.0
C285 C 0.44476 0.60293 0.21361 0.0
C286 C 0.42506 0.56527 0.22073 0.0
C287 C 0.43716 0.54143 0.21008 0.0
Zn288 Zn 0.68721 0.46401 0.41815 0.0
Zn289 Zn 0.64491 0.39202 0.41328 0.0
O290 O 0.69934 0.40337 0.40655 0.0
O291 O 0.73422 0.46361 0.40952 0.0
O292 O 0.61686 0.33629 0.41554 0.0
O293 O 0.67178 0.46617 0.46109 0.0
O294 O 0.63145 0.40706 0.45463 0.0
C295 C 0.73125 0.43241 0.40502 0.0
C296 C 0.63169 0.43854 0.36818 0.0
O297 O 0.62329 0.40622 0.37643 0.0
O298 O 0.65701 0.46643 0.38268 0.0
C299 C 0.62744 0.31679 0.40094 0.0
O300 O 0.65451 0.33283 0.38132 0.0
C301 C 0.64466 0.43671 0.47074 0.0
Zn302 Zn 0.2272 0.6874 0.5693 0.0
Zn303 Zn 0.26342 0.65158 0.57906 0.0
O304 O 0.3036 0.70642 0.5735 0.0
O305 O 0.27349 0.73723 0.57246 0.0
O306 O 0.29468 0.62836 0.58948 0.0
O307 O 0.19488 0.66436 0.60551 0.0
O308 O 0.22723 0.63705 0.61568 0.0
C309 C 0.30383 0.73687 0.57202 0.0
C310 C 0.21681 0.63474 0.5208 0.0
O311 O 0.23589 0.62633 0.53862 0.0
O312 O 0.21092 0.6607 0.52822 0.0
C313 C 0.32642 0.63939 0.57768 0.0
O314 O 0.33835 0.66545 0.55729 0.0
C315 C 0.20085 0.64327 0.6221 0.0
Zn316 Zn 0.53664 0.22354 0.75028 0.0
Zn317 Zn 0.61101 0.25664 0.74817 0.0
O318 O 0.59862 0.2986 0.74557 0.0
O319 O 0.53783 0.27216 0.75055 0.0
O320 O 0.66741 0.2848 0.7503 0.0
O321 O 0.53644 0.19907 0.78963 0.0
O322 O 0.59754 0.22616 0.78772 0.0
C323 C 0.56913 0.30091 0.74696 0.0
C324 C 0.56457 0.20392 0.69635 0.0
O325 O 0.59662 0.22529 0.70854 0.0
O326 O 0.53543 0.19906 0.70963 0.0
C327 C 0.68555 0.31366 0.73472 0.0
O328 O 0.66754 0.32296 0.71518 0.0
C329 C 0.56714 0.20476 0.80107 0.0
Zn330 Zn 0.34338 0.55716 0.90562 0.0
Zn331 Zn 0.37199 0.62918 0.91249 0.0
O332 O 0.31688 0.61162 0.90133 0.0
O333 O 0.2944 0.55234 0.89267 0.0
O334 O 0.3941 0.68318 0.92299 0.0
O335 O 0.35375 0.55053 0.94921 0.0
O336 O 0.38272 0.6109 0.95315 0.0
C337 C 0.28987 0.58004 0.89315 0.0
C338 C 0.40265 0.59926 0.86406 0.0
O339 O 0.40127 0.62668 0.87544 0.0
O340 O 0.3821 0.56718 0.87406 0.0
C341 C 0.4034 0.7093 0.90442 0.0
O342 O 0.39866 0.70176 0.87487 0.0
C343 C 0.37346 0.57982 0.96479 0.0
Zn344 Zn 0.78952 0.46416 0.07705 0.0
Zn345 Zn 0.75358 0.39059 0.07378 0.0
O346 O 0.71164 0.40244 0.08254 0.0
O347 O 0.7405 0.46305 0.08076 0.0
O348 O 0.72539 0.33558 0.06596 0.0
O349 O 0.81204 0.46892 0.0357 0.0
O350 O 0.78194 0.40845 0.03313 0.0
C351 C 0.71089 0.43244 0.08389 0.0
C352 C 0.81114 0.43006 0.12501 0.0
O353 O 0.78785 0.39991 0.11142 0.0
O354 O 0.81623 0.46043 0.11492 0.0
C355 C 0.70666 0.3112 0.08546 0.0
O356 O 0.70555 0.32157 0.11374 0.0
C357 C 0.80382 0.43941 0.02123 0.0
Zn358 Zn 0.33083 0.79218 0.23596 0.0
Zn359 Zn 0.37068 0.75804 0.23574 0.0
O360 O 0.31639 0.71676 0.24161 0.0
O361 O 0.28301 0.74413 0.24234 0.0
O362 O 0.39673 0.72863 0.23091 0.0
O363 O 0.34786 0.81169 0.19384 0.0
O364 O 0.38404 0.78735 0.19558 0.0
C365 C 0.28493 0.71501 0.24415 0.0
C366 C 0.38797 0.81655 0.28451 0.0
O367 O 0.39391 0.79149 0.27401 0.0
O368 O 0.36348 0.82221 0.27215 0.0
C369 C 0.39224 0.70353 0.2493 0.0
O370 O 0.372 0.69819 0.27367 0.0
C371 C 0.37277 0.80679 0.18188 0.0
C372 C 0.18407 0.64653 0.26192 0.0
C373 C 0.18523 0.61499 0.27075 0.0
C374 C 0.21614 0.67813 0.25237 0.0
C375 C 0.25086 0.67961 0.25124 0.0
H376 H 0.15815 0.64699 0.26281 0.0
H377 H 0.21372 0.70185 0.24642 0.0
S378 S 0.26848 0.60358 0.27092 0.0
N379 N 0.22352 0.58655 0.277 0.0
N380 N 0.28398 0.64581 0.25871 0.0
C381 C 0.25215 0.6477 0.259 0.0
C382 C 0.21932 0.61544 0.2688 0.0
C383 C 0.56674 0.22295 0.43594 0.0
C384 C 0.58581 0.20401 0.42891 0.0
C385 C 0.57995 0.25911 0.42625 0.0
C386 C 0.61242 0.27749 0.40874 0.0
H387 H 0.54189 0.21 0.44963 0.0
H388 H 0.56476 0.27286 0.43281 0.0
S389 S 0.67098 0.23854 0.3827 0.0
N390 N 0.63769 0.20531 0.40252 0.0
N391 N 0.66241 0.27298 0.38382 0.0
C392 C 0.63107 0.25826 0.40081 0.0
C393 C 0.61784 0.22164 0.41107 0.0
C394 C 0.41227 0.62954 0.58879 0.0
C395 C 0.39931 0.5984 0.60716 0.0
C396 C 0.38835 0.64225 0.57912 0.0
C397 C 0.35066 0.62457 0.58777 0.0
H398 H 0.44099 0.64389 0.5815 0.0
H399 H 0.39969 0.66634 0.56492 0.0
S400 S 0.30366 0.5425 0.63685 0.0
N401 N 0.3469 0.55063 0.63435 0.0
N402 N 0.30186 0.57442 0.61638 0.0
C403 C 0.33752 0.59354 0.60646 0.0
C404 C 0.36185 0.58047 0.61609 0.0
C405 C 0.78683 0.34876 0.75676 0.0
C406 C 0.80168 0.38716 0.75993 0.0
C407 C 0.74934 0.32513 0.7482 0.0
C408 C 0.72551 0.33905 0.74167 0.0
H409 H 0.80424 0.33674 0.76112 0.0
H410 H 0.73893 0.29574 0.74663 0.0
S411 S 0.74946 0.4368 0.74742 0.0
N412 N 0.78854 0.43756 0.75703 0.0
N413 N 0.71875 0.39324 0.7393 0.0
C414 C 0.73993 0.37728 0.7441 0.0
C415 C 0.77785 0.40131 0.75356 0.0
C416 C 0.44897 0.81394 0.90587 0.0
C417 C 0.45339 0.82296 0.93734 0.0
C418 C 0.43267 0.77718 0.89545 0.0
C419 C 0.42001 0.74797 0.91611 0.0
H420 H 0.45872 0.83552 0.88914 0.0
H421 H 0.43026 0.77175 0.87099 0.0
S422 S 0.42295 0.75705 0.00105 0.0
N423 N 0.44214 0.79979 0.9891 0.0
N424 N 0.41188 0.73087 0.96979 0.0
C425 C 0.42377 0.7567 0.94772 0.0
C426 C 0.44036 0.79411 0.95826 0.0
C427 C 0.63803 0.46128 0.08425 0.0
C428 C 0.61794 0.44507 0.11092 0.0
C429 C 0.66695 0.45555 0.07481 0.0
C430 C 0.67623 0.43253 0.09109 0.0
H431 H 0.63222 0.47961 0.07107 0.0
H432 H 0.68285 0.47003 0.05503 0.0
S433 S 0.63139 0.38175 0.16127 0.0
N434 N 0.60906 0.40407 0.153 0.0
N435 N 0.66231 0.39192 0.13411 0.0
C436 C 0.65508 0.41429 0.11663 0.0
C437 C 0.62612 0.42081 0.12678 0.0
C438 C 0.37398 0.83857 0.57017 0.0
C439 C 0.39701 0.84092 0.54575 0.0
C440 C 0.34503 0.80454 0.57973 0.0
C441 C 0.33863 0.77145 0.56587 0.0
H442 H 0.37746 0.86335 0.58131 0.0
H443 H 0.3268 0.80417 0.59749 0.0
S444 S 0.39186 0.76172 0.50233 0.0
N445 N 0.41183 0.80664 0.50857 0.0
N446 N 0.35847 0.74262 0.52768 0.0
C447 C 0.36277 0.77305 0.54282 0.0
C448 C 0.39177 0.8078 0.53253 0.0
C449 C 0.53807 0.37162 0.74279 0.0
C450 C 0.56296 0.3972 0.72192 0.0
C451 C 0.54152 0.34162 0.75206 0.0
C452 C 0.57031 0.33623 0.74121 0.0
H453 H 0.51491 0.37409 0.75126 0.0
H454 H 0.52072 0.32184 0.76713 0.0
S455 S 0.64443 0.39668 0.68791 0.0
N456 N 0.61845 0.41608 0.69176 0.0
N457 N 0.62558 0.36029 0.70993 0.0
C458 C 0.59679 0.36284 0.72185 0.0
C459 C 0.59299 0.3932 0.71205 0.0
C460 C 0.19289 0.53603 0.85734 0.0
C461 C 0.18096 0.56128 0.86416 0.0
C462 C 0.22814 0.54269 0.86666 0.0
C463 C 0.25324 0.57507 0.8831 0.0
H464 H 0.17468 0.51066 0.84473 0.0
H465 H 0.23568 0.5221 0.86086 0.0
S466 S 0.23577 0.65046 0.90638 0.0
N467 N 0.19696 0.62015 0.88814 0.0
N468 N 0.26389 0.63315 0.90533 0.0
C469 C 0.24209 0.6011 0.8895 0.0
C470 C 0.20584 0.59413 0.88007 0.0
C471 C 0.66107 0.22545 0.03388 0.0
C472 C 0.64293 0.19653 0.0545 0.0
C473 C 0.68173 0.26221 0.04419 0.0
C474 C 0.68512 0.27172 0.0756 0.0
H475 H 0.65887 0.21969 0.00946 0.0
H476 H 0.69481 0.28335 0.02723 0.0
S477 S 0.64475 0.20595 0.13917 0.0
N478 N 0.63106 0.17958 0.1079 0.0
N479 N 0.66946 0.24872 0.12736 0.0
C480 C 0.66741 0.24298 0.09654 0.0
C481 C 0.64641 0.20544 0.08598 0.0
C482 C 0.43048 0.65311 0.20283 0.0
C483 C 0.43159 0.62844 0.22377 0.0
C484 C 0.41841 0.67763 0.21151 0.0
C485 C 0.40663 0.67839 0.24148 0.0
H486 H 0.43853 0.65316 0.17931 0.0
H487 H 0.41771 0.69568 0.19432 0.0
S488 S 0.40614 0.62087 0.3056 0.0
N489 N 0.4216 0.6075 0.27626 0.0
N490 N 0.39803 0.65301 0.29248 0.0
C491 C 0.40786 0.65408 0.26278 0.0
C492 C 0.42047 0.62923 0.25395 0.0
C493 C 0.82799 0.46263 0.37605 0.0
C494 C 0.83063 0.43052 0.37706 0.0
C495 C 0.79589 0.46271 0.38534 0.0
C496 C 0.76469 0.43057 0.39582 0.0
H497 H 0.85109 0.48814 0.36801 0.0
H498 H 0.79559 0.48834 0.38401 0.0
S499 S 0.75715 0.33893 0.40274 0.0
N500 N 0.79938 0.36556 0.38933 0.0
N501 N 0.73833 0.3654 0.40641 0.0
C502 C 0.76656 0.39793 0.39646 0.0
C503 C 0.79962 0.39796 0.3871 0.0
C504 C 0.16478 0.60799 0.44465 0.0
C505 C 0.15413 0.57066 0.4409 0.0
C506 C 0.18683 0.62891 0.46972 0.0
C507 C 0.19917 0.61336 0.49213 0.0
H508 H 0.15477 0.62078 0.42863 0.0
H509 H 0.19312 0.65721 0.47208 0.0
S510 S 0.18147 0.51739 0.49137 0.0
N511 N 0.15944 0.51944 0.46034 0.0
N512 N 0.20132 0.55889 0.50764 0.0
C513 C 0.19068 0.57663 0.48764 0.0
C514 C 0.16804 0.55523 0.46197 0.0
C515 C 0.59059 0.17267 0.62305 0.0
C516 C 0.55565 0.14824 0.60937 0.0
C517 C 0.59327 0.19073 0.65104 0.0
C518 C 0.56109 0.18478 0.66655 0.0
H519 H 0.61602 0.17785 0.612 0.0
H520 H 0.62082 0.20936 0.66062 0.0
S521 S 0.46283 0.12171 0.64072 0.0
N522 N 0.48827 0.11794 0.61367 0.0
N523 N 0.49297 0.15176 0.66601 0.0
C524 C 0.52593 0.16017 0.653 0.0
C525 C 0.5233 0.14197 0.62451 0.0
C526 C 0.438 0.61532 0.7833 0.0
C527 C 0.45865 0.59701 0.78271 0.0
C528 C 0.42238 0.6189 0.81061 0.0
C529 C 0.42626 0.60344 0.8378 0.0
H530 H 0.43291 0.62582 0.76236 0.0
H531 H 0.40521 0.63167 0.81 0.0
S532 S 0.47919 0.55455 0.84849 0.0
N533 N 0.48384 0.56517 0.81192 0.0
N534 N 0.45365 0.57102 0.86292 0.0
C535 C 0.44803 0.58641 0.83769 0.0
C536 C 0.46446 0.5834 0.81018 0.0
C537 C 0.86154 0.47961 0.95031 0.0
C538 C 0.86074 0.44905 0.93597 0.0
C539 C 0.84229 0.47592 0.97737 0.0
C540 C 0.82124 0.44145 0.99119 0.0
H541 H 0.87818 0.50689 0.9411 0.0
H542 H 0.84457 0.50057 0.98778 0.0
S543 S 0.80772 0.35221 0.96107 0.0
N544 N 0.83549 0.38282 0.93628 0.0
N545 N 0.79919 0.37565 0.98725 0.0
C546 C 0.81914 0.41036 0.97642 0.0
C547 C 0.83898 0.41422 0.94886 0.0
C548 C 0.44461 0.85005 0.1194 0.0
C549 C 0.43296 0.87184 0.10387 0.0
C550 C 0.4241 0.82779 0.14371 0.0
C551 C 0.39126 0.82669 0.1536 0.0
H552 H 0.47005 0.85053 0.11295 0.0
H553 H 0.43476 0.81223 0.15539 0.0
S554 S 0.34841 0.87812 0.11981 0.0
N555 N 0.38627 0.89062 0.09973 0.0
N556 N 0.34738 0.84852 0.14485 0.0
C557 C 0.37877 0.84762 0.13757 0.0
C558 C 0.39968 0.87024 0.11288 0.0
C559 C 0.57067 0.41989 0.29645 0.0
C560 C 0.57844 0.45541 0.28857 0.0
C561 C 0.58765 0.41442 0.32238 0.0
C562 C 0.61272 0.4443 0.34143 0.0
H563 H 0.55187 0.3963 0.28219 0.0
H564 H 0.58138 0.38667 0.32731 0.0
S565 S 0.63904 0.54245 0.33188 0.0
N566 N 0.61052 0.5204 0.30264 0.0
N567 N 0.64235 0.51063 0.35119 0.0
C568 C 0.61969 0.47987 0.33406 0.0
C569 C 0.60258 0.48529 0.3077 0.0
C570 C 0.4302 0.84713 0.36444 0.0
C571 C 0.44497 0.88547 0.36364 0.0
C572 C 0.41335 0.82481 0.33818 0.0
C573 C 0.40997 0.84023 0.31076 0.0
H574 H 0.4312 0.83437 0.38557 0.0
H575 H 0.4015 0.79527 0.33968 0.0
S576 S 0.4455 0.93927 0.2969 0.0
N577 N 0.45667 0.93799 0.33311 0.0
N578 N 0.42405 0.89611 0.28411 0.0
C579 C 0.42532 0.87859 0.30967 0.0
C580 C 0.44307 0.90123 0.33607 0.0
C581 C 0.62983 0.4726 0.54595 0.0
C582 C 0.59071 0.45348 0.54839 0.0
C583 C 0.6472 0.46542 0.52166 0.0
C584 C 0.62622 0.43845 0.49905 0.0
H585 H 0.64718 0.4942 0.56243 0.0
H586 H 0.67728 0.48201 0.52005 0.0
S587 S 0.52311 0.37901 0.49572 0.0
N588 N 0.53154 0.40531 0.52662 0.0
N589 N 0.56436 0.39105 0.48146 0.0
C590 C 0.58725 0.41753 0.50215 0.0
C591 C 0.56945 0.42521 0.52671 0.0
C592 C 0.16351 0.59539 0.69785 0.0
C593 C 0.12642 0.58827 0.69724 0.0
C594 C 0.18754 0.61295 0.67343 0.0
C595 C 0.17539 0.62427 0.64769 0.0
H596 H 0.17421 0.5879 0.71756 0.0
H597 H 0.21597 0.61825 0.67496 0.0
S598 S 0.07952 0.60783 0.63326 0.0
N599 N 0.07779 0.59068 0.66737 0.0
N600 N 0.12288 0.62436 0.62209 0.0
C601 C 0.13807 0.61638 0.64652 0.0
C602 C 0.11363 0.59823 0.6711 0.0
C603 C 0.60078 0.16593 0.86438 0.0
C604 C 0.56793 0.14328 0.88029 0.0
C605 C 0.60053 0.18651 0.83935 0.0
C606 C 0.56734 0.18496 0.82907 0.0
H607 H 0.62685 0.16766 0.87128 0.0
H608 H 0.62647 0.20319 0.82764 0.0
S609 S 0.47364 0.12929 0.86298 0.0
N610 N 0.50131 0.12013 0.88392 0.0
N611 N 0.50072 0.15895 0.83738 0.0
C612 C 0.53437 0.16265 0.84514 0.0
C613 C 0.5347 0.1418 0.87058 0.0
C614 C 0.38832 0.53843 0.03649 0.0
C615 C 0.41867 0.56865 0.05141 0.0
C616 C 0.37311 0.5427 0.00915 0.0
C617 C 0.3875 0.57741 0.99562 0.0
H618 H 0.37714 0.51094 0.04535 0.0
H619 H 0.35045 0.51828 0.99815 0.0
S620 S 0.46448 0.666 0.02758 0.0
N621 N 0.46086 0.63487 0.05221 0.0
N622 N 0.4323 0.64314 0.00069 0.0
C623 C 0.41677 0.60823 0.01115 0.0
C624 C 0.43241 0.60377 0.039 0.0
C625 C 0.88095 0.46662 0.19167 0.0
C626 C 0.87654 0.43461 0.20542 0.0
C627 C 0.85965 0.46463 0.16587 0.0
C628 C 0.83288 0.4305 0.15258 0.0
H629 H 0.90153 0.49359 0.20065 0.0
H630 H 0.86453 0.49029 0.1562 0.0
S631 S 0.80947 0.3383 0.18078 0.0
N632 N 0.84271 0.36764 0.2046 0.0
N633 N 0.80261 0.36371 0.15584 0.0
C634 C 0.82793 0.39814 0.16627 0.0
C635 C 0.84979 0.40024 0.19268 0.0
loop_
_geom_bond_atom_site_label_1
_geom_bond_atom_site_label_2
_geom_bond_distance
_geom_bond_site_symmetry_2
_ccdc_geom_bond_type
H0 C19 0.949 . S
H1 C20 0.950 . S
H2 C22 0.950 . S
H3 C23 0.950 . S
H4 C25 0.950 . S
H5 C28 0.950 . S
H6 C29 0.950 . S
H7 C31 0.951 . S
H8 C32 0.949 . S
H9 C34 0.949 . S
H10 C35 0.950 . S
H11 C37 0.950 . S
H12 C38 0.950 . S
H13 C40 0.950 . S
H14 C43 0.950 . S
H15 C44 0.950 . S
H16 C46 0.951 . S
H17 C47 0.949 . S
C18 C19 1.376 . S
C18 C23 1.386 . S
C18 C24 1.483 . S
C19 H0 0.949 . S
C19 C18 1.376 . S
C19 C20 1.397 . S
C20 H1 0.950 . S
C20 C19 1.397 . S
C20 C21 1.391 . S
C21 C20 1.391 . S
C21 C22 1.405 . S
C22 H2 0.950 . S
C22 C21 1.405 . S
C22 C23 1.367 . S
C23 H3 0.950 . S
C23 C18 1.386 . S
C23 C22 1.367 . S
C24 C18 1.483 . S
C24 C25 1.382 1_655 S
C24 C26 1.403 . S
C25 H4 0.950 . S
C25 C24 1.382 1_455 S
C25 C41 1.411 . S
C26 C24 1.403 . S
C26 C27 1.489 . S
C26 C40 1.411 . S
C27 C26 1.489 . S
C27 C28 1.383 . S
C27 C32 1.382 . S
C28 H5 0.950 . S
C28 C27 1.383 . S
C28 C29 1.395 . S
C29 H6 0.950 . S
C29 C28 1.395 . S
C29 C30 1.288 . S
C30 C29 1.288 . S
C30 C31 1.392 . S
C31 H7 0.951 . S
C31 C30 1.392 . S
C31 C32 1.392 . S
C32 H8 0.949 . S
C32 C27 1.382 . S
C32 C31 1.392 . S
C33 C34 1.376 . S
C33 C38 1.386 . S
C33 C39 1.483 . S
C34 H9 0.949 . S
C34 C33 1.376 . S
C34 C35 1.397 . S
C35 H10 0.950 . S
C35 C34 1.397 . S
C35 C36 1.391 . S
C36 C35 1.391 . S
C36 C37 1.405 . S
C37 H11 0.950 . S
C37 C36 1.405 . S
C37 C38 1.367 . S
C38 H12 0.950 . S
C38 C33 1.386 . S
C38 C37 1.367 . S
C39 C33 1.483 . S
C39 C40 1.382 1_455 S
C39 C41 1.403 . S
C40 H13 0.950 . S
C40 C26 1.411 . S
C40 C39 1.382 1_655 S
C41 C25 1.411 . S
C41 C39 1.403 . S
C41 C42 1.489 . S
C42 C41 1.489 . S
C42 C43 1.383 . S
C42 C47 1.382 . S
C43 H14 0.950 . S
C43 C42 1.383 . S
C43 C44 1.395 . S
C44 H15 0.950 . S
C44 C43 1.395 . S
C44 C45 1.288 . S
C45 C44 1.288 . S
C45 C46 1.392 . S
C46 H16 0.951 . S
C46 C45 1.392 . S
C46 C47 1.392 . S
C47 H17 0.949 . S
C47 C42 1.382 . S
C47 C46 1.392 . S
H48 C67 0.949 . S
H49 C68 0.950 . S
H50 C70 0.950 . S
H51 C71 0.950 . S
H52 C73 0.950 . S
H53 C76 0.950 . S
H54 C77 0.950 . S
H55 C79 0.951 . S
H56 C80 0.949 . S
H57 C82 0.949 . S
H58 C83 0.950 . S
H59 C85 0.950 . S
H60 C86 0.950 . S
H61 C88 0.950 . S
H62 C91 0.950 . S
H63 C92 0.950 . S
H64 C94 0.951 . S
H65 C95 0.949 . S
C66 C67 1.376 . S
C66 C71 1.386 . S
C66 C72 1.483 . S
C67 H48 0.949 . S
C67 C66 1.376 . S
C67 C68 1.397 . S
C68 H49 0.950 . S
C68 C67 1.397 . S
C68 C69 1.391 . S
C69 C68 1.391 . S
C69 C70 1.405 . S
C70 H50 0.950 . S
C70 C69 1.405 . S
C70 C71 1.367 . S
C71 H51 0.950 . S
C71 C66 1.386 . S
C71 C70 1.367 . S
C72 C66 1.483 . S
C72 C73 1.382 . S
C72 C74 1.403 . S
C73 H52 0.950 . S
C73 C72 1.382 . S
C73 C89 1.411 1_565 S
C74 C72 1.403 . S
C74 C75 1.489 . S
C74 C88 1.411 1_565 S
C75 C74 1.489 . S
C75 C76 1.383 . S
C75 C80 1.382 . S
C76 H53 0.950 . S
C76 C75 1.383 . S
C76 C77 1.395 . S
C77 H54 0.950 . S
C77 C76 1.395 . S
C77 C78 1.288 . S
C78 C77 1.288 . S
C78 C79 1.392 . S
C79 H55 0.951 . S
C79 C78 1.392 . S
C79 C80 1.392 . S
C80 H56 0.949 . S
C80 C75 1.382 . S
C80 C79 1.392 . S
C81 C82 1.376 . S
C81 C86 1.386 . S
C81 C87 1.483 . S
C82 H57 0.949 . S
C82 C81 1.376 . S
C82 C83 1.397 . S
C83 H58 0.950 . S
C83 C82 1.397 . S
C83 C84 1.391 . S
C84 C83 1.391 . S
C84 C85 1.405 . S
C85 H59 0.950 . S
C85 C84 1.405 . S
C85 C86 1.367 . S
C86 H60 0.950 . S
C86 C81 1.386 . S
C86 C85 1.367 . S
C87 C81 1.483 . S
C87 C88 1.382 . S
C87 C89 1.403 . S
C88 H61 0.950 . S
C88 C74 1.411 1_545 S
C88 C87 1.382 . S
C89 C73 1.411 1_545 S
C89 C87 1.403 . S
C89 C90 1.489 . S
C90 C89 1.489 . S
C90 C91 1.383 . S
C90 C95 1.382 . S
C91 H62 0.950 . S
C91 C90 1.383 . S
C91 C92 1.395 . S
C92 H63 0.950 . S
C92 C91 1.395 . S
C92 C93 1.288 . S
C93 C92 1.288 . S
C93 C94 1.392 . S
C94 H64 0.951 . S
C94 C93 1.392 . S
C94 C95 1.392 . S
C95 H65 0.949 . S
C95 C90 1.382 . S
C95 C94 1.392 . S
H96 C115 0.949 . S
H97 C116 0.950 . S
H98 C118 0.950 . S
H99 C119 0.950 . S
H100 C121 0.950 . S
H101 C124 0.950 . S
H102 C125 0.950 . S
H103 C127 0.951 . S
H104 C128 0.949 . S
H105 C130 0.949 . S
H106 C131 0.950 . S
H107 C133 0.950 . S
H108 C134 0.950 . S
H109 C136 0.950 . S
H110 C139 0.950 . S
H111 C140 0.950 . S
H112 C142 0.951 . S
H113 C143 0.949 . S
C114 C115 1.376 . S
C114 C119 1.386 . S
C114 C120 1.483 . S
C115 H96 0.949 . S
C115 C114 1.376 . S
C115 C116 1.397 . S
C116 H97 0.950 . S
C116 C115 1.397 . S
C116 C117 1.391 . S
C117 C116 1.391 . S
C117 C118 1.405 . S
C118 H98 0.950 . S
C118 C117 1.405 . S
C118 C119 1.367 . S
C119 H99 0.950 . S
C119 C114 1.386 . S
C119 C118 1.367 . S
C120 C114 1.483 . S
C120 C121 1.382 . S
C120 C122 1.403 . S
C121 H100 0.950 . S
C121 C120 1.382 . S
C121 C137 1.411 . S
C122 C120 1.403 . S
C122 C123 1.489 . S
C122 C136 1.411 . S
C123 C122 1.489 . S
C123 C124 1.383 . S
C123 C128 1.382 . S
C124 H101 0.950 . S
C124 C123 1.383 . S
C124 C125 1.395 . S
C125 H102 0.950 . S
C125 C124 1.395 . S
C125 C126 1.288 . S
C126 C125 1.288 . S
C126 C127 1.392 . S
C127 H103 0.951 . S
C127 C126 1.392 . S
C127 C128 1.392 . S
C128 H104 0.949 . S
C128 C123 1.382 . S
C128 C127 1.392 . S
C129 C130 1.376 . S
C129 C134 1.386 . S
C129 C135 1.483 . S
C130 H105 0.949 . S
C130 C129 1.376 . S
C130 C131 1.397 . S
C131 H106 0.950 . S
C131 C130 1.397 . S
C131 C132 1.391 . S
C132 C131 1.391 . S
C132 C133 1.405 . S
C133 H107 0.950 . S
C133 C132 1.405 . S
C133 C134 1.367 . S
C134 H108 0.950 . S
C134 C129 1.386 . S
C134 C133 1.367 . S
C135 C129 1.483 . S
C135 C136 1.382 . S
C135 C137 1.403 . S
C136 H109 0.950 . S
C136 C122 1.411 . S
C136 C135 1.382 . S
C137 C121 1.411 . S
C137 C135 1.403 . S
C137 C138 1.489 . S
C138 C137 1.489 . S
C138 C139 1.383 . S
C138 C143 1.382 . S
C139 H110 0.950 . S
C139 C138 1.383 . S
C139 C140 1.395 . S
C140 H111 0.950 . S
C140 C139 1.395 . S
C140 C141 1.288 . S
C141 C140 1.288 . S
C141 C142 1.392 . S
C142 H112 0.951 . S
C142 C141 1.392 . S
C142 C143 1.392 . S
C143 H113 0.949 . S
C143 C138 1.382 . S
C143 C142 1.392 . S
H144 C163 0.949 . S
H145 C164 0.950 . S
H146 C166 0.950 . S
H147 C167 0.950 . S
H148 C169 0.951 . S
H149 C172 0.950 . S
H150 C173 0.950 . S
H151 C175 0.951 . S
H152 C176 0.949 . S
H153 C178 0.949 . S
H154 C179 0.950 . S
H155 C181 0.950 . S
H156 C182 0.950 . S
H157 C184 0.950 . S
H158 C187 0.950 . S
H159 C188 0.950 . S
H160 C190 0.951 . S
H161 C191 0.949 . S
C162 C163 1.376 . S
C162 C167 1.386 . S
C162 C168 1.483 . S
C163 H144 0.949 . S
C163 C162 1.376 . S
C163 C164 1.397 . S
C164 H145 0.950 . S
C164 C163 1.397 . S
C164 C165 1.391 . S
C165 C164 1.391 . S
C165 C166 1.405 . S
C166 H146 0.950 . S
C166 C165 1.405 . S
C166 C167 1.367 . S
C167 H147 0.950 . S
C167 C162 1.386 . S
C167 C166 1.367 . S
C168 C162 1.483 . S
C168 C169 1.380 1_455 S
C168 C170 1.403 . S
C169 H148 0.951 . S
C169 C168 1.380 1_655 S
C169 C185 1.412 . S
C170 C168 1.403 . S
C170 C171 1.489 . S
C170 C184 1.411 . S
C171 C170 1.489 . S
C171 C172 1.383 . S
C171 C176 1.382 . S
C172 H149 0.950 . S
C172 C171 1.383 . S
C172 C173 1.395 . S
C173 H150 0.950 . S
C173 C172 1.395 . S
C173 C174 1.288 . S
C174 C173 1.288 . S
C174 C175 1.392 . S
C175 H151 0.951 . S
C175 C174 1.392 . S
C175 C176 1.392 . S
C176 H152 0.949 . S
C176 C171 1.382 . S
C176 C175 1.392 . S
C177 C178 1.376 . S
C177 C182 1.386 . S
C177 C183 1.483 . S
C178 H153 0.949 . S
C178 C177 1.376 . S
C178 C179 1.397 . S
C179 H154 0.950 . S
C179 C178 1.397 . S
C179 C180 1.391 . S
C180 C179 1.391 . S
C180 C181 1.405 . S
C181 H155 0.950 . S
C181 C180 1.405 . S
C181 C182 1.367 . S
C182 H156 0.950 . S
C182 C177 1.386 . S
C182 C181 1.367 . S
C183 C177 1.483 . S
C183 C184 1.382 1_655 S
C183 C185 1.403 . S
C184 H157 0.950 . S
C184 C170 1.411 . S
C184 C183 1.382 1_455 S
C185 C169 1.412 . S
C185 C183 1.403 . S
C185 C186 1.489 . S
C186 C185 1.489 . S
C186 C187 1.383 . S
C186 C191 1.382 . S
C187 H158 0.950 . S
C187 C186 1.383 . S
C187 C188 1.395 . S
C188 H159 0.950 . S
C188 C187 1.395 . S
C188 C189 1.288 . S
C189 C188 1.288 . S
C189 C190 1.392 . S
C190 H160 0.951 . S
C190 C189 1.392 . S
C190 C191 1.392 . S
C191 H161 0.949 . S
C191 C186 1.382 . S
C191 C190 1.392 . S
H192 C211 0.949 . S
H193 C212 0.950 . S
H194 C214 0.950 . S
H195 C215 0.970 . S
H196 C217 0.950 . S
H197 C220 0.950 . S
H198 C221 0.950 . S
H199 C223 0.951 . S
H200 C224 0.949 . S
H201 C226 0.949 . S
H202 C227 0.950 . S
H203 C229 0.950 . S
H204 C230 0.950 . S
H205 C232 0.950 . S
H206 C235 0.950 . S
H207 C236 0.950 . S
H208 C238 0.951 . S
H209 C239 0.949 . S
C210 C211 1.376 . S
C210 C215 1.378 1_554 S
C210 C216 1.483 1_554 S
C211 H192 0.949 . S
C211 C210 1.376 . S
C211 C212 1.397 . S
C212 H193 0.950 . S
C212 C211 1.397 . S
C212 C213 1.391 . S
C213 C212 1.391 . S
C213 C214 1.405 . S
C214 H194 0.950 . S
C214 C213 1.405 . S
C214 C215 1.357 1_554 S
C215 H195 0.970 . S
C215 C210 1.378 1_556 S
C215 C214 1.357 1_556 S
C216 C210 1.483 1_556 S
C216 C217 1.382 1_556 S
C216 C218 1.403 . S
C217 H196 0.950 . S
C217 C216 1.382 1_554 S
C217 C233 1.411 1_545 S
C218 C216 1.403 . S
C218 C219 1.489 . S
C218 C232 1.411 1_545 S
C219 C218 1.489 . S
C219 C220 1.383 . S
C219 C224 1.382 . S
C220 H197 0.950 . S
C220 C219 1.383 . S
C220 C221 1.395 . S
C221 H198 0.950 . S
C221 C220 1.395 . S
C221 C222 1.288 . S
C222 C221 1.288 . S
C222 C223 1.392 . S
C223 H199 0.951 . S
C223 C222 1.392 . S
C223 C224 1.392 . S
C224 H200 0.949 . S
C224 C219 1.382 . S
C224 C223 1.392 . S
C225 C226 1.376 . S
C225 C230 1.386 . S
C225 C231 1.483 . S
C226 H201 0.949 . S
C226 C225 1.376 . S
C226 C227 1.397 . S
C227 H202 0.950 . S
C227 C226 1.397 . S
C227 C228 1.391 . S
C228 C227 1.391 . S
C228 C229 1.405 . S
C229 H203 0.950 . S
C229 C228 1.405 . S
C229 C230 1.367 . S
C230 H204 0.950 . S
C230 C225 1.386 . S
C230 C229 1.367 . S
C231 C225 1.483 . S
C231 C232 1.382 . S
C231 C233 1.403 1_556 S
C232 H205 0.950 . S
C232 C218 1.411 1_565 S
C232 C231 1.382 . S
C233 C217 1.411 1_565 S
C233 C231 1.403 1_554 S
C233 C234 1.489 . S
C234 C233 1.489 . S
C234 C235 1.383 . S
C234 C239 1.382 . S
C235 H206 0.950 . S
C235 C234 1.383 . S
C235 C236 1.395 . S
C236 H207 0.950 . S
C236 C235 1.395 . S
C236 C237 1.288 . S
C237 C236 1.288 . S
C237 C238 1.392 . S
C238 H208 0.951 . S
C238 C237 1.392 . S
C238 C239 1.392 . S
C239 H209 0.949 . S
C239 C234 1.382 . S
C239 C238 1.392 . S
H240 C259 0.949 . S
H241 C260 0.950 . S
H242 C262 0.950 . S
H243 C263 0.950 . S
H244 C265 0.950 . S
H245 C268 0.950 . S
H246 C269 0.950 . S
H247 C271 0.951 . S
H248 C272 0.949 . S
H249 C274 0.949 . S
H250 C275 0.950 . S
H251 C277 0.950 . S
H252 C278 0.950 . S
H253 C280 0.950 . S
H254 C283 0.950 . S
H255 C284 0.950 . S
H256 C286 0.951 . S
H257 C287 0.949 . S
C258 C259 1.376 . S
C258 C263 1.386 . S
C258 C264 1.483 . S
C259 H240 0.949 . S
C259 C258 1.376 . S
C259 C260 1.397 . S
C260 H241 0.950 . S
C260 C259 1.397 . S
C260 C261 1.391 . S
C261 C260 1.391 . S
C261 C262 1.405 . S
C262 H242 0.950 . S
C262 C261 1.405 . S
C262 C263 1.367 . S
C263 H243 0.950 . S
C263 C258 1.386 . S
C263 C262 1.367 . S
C264 C258 1.483 . S
C264 C265 1.382 . S
C264 C266 1.403 . S
C265 H244 0.950 . S
C265 C264 1.382 . S
C265 C281 1.411 . S
C266 C264 1.403 . S
C266 C267 1.489 . S
C266 C280 1.411 . S
C267 C266 1.489 . S
C267 C268 1.383 . S
C267 C272 1.382 . S
C268 H245 0.950 . S
C268 C267 1.383 . S
C268 C269 1.395 . S
C269 H246 0.950 . S
C269 C268 1.395 . S
C269 C270 1.288 . S
C270 C269 1.288 . S
C270 C271 1.392 . S
C271 H247 0.951 . S
C271 C270 1.392 . S
C271 C272 1.392 . S
C272 H248 0.949 . S
C272 C267 1.382 . S
C272 C271 1.392 . S
C273 C274 1.376 . S
C273 C278 1.386 . S
C273 C279 1.483 . S
C274 H249 0.949 . S
C274 C273 1.376 . S
C274 C275 1.397 . S
C275 H250 0.950 . S
C275 C274 1.397 . S
C275 C276 1.391 . S
C276 C275 1.391 . S
C276 C277 1.405 . S
C277 H251 0.950 . S
C277 C276 1.405 . S
C277 C278 1.367 . S
C278 H252 0.950 . S
C278 C273 1.386 . S
C278 C277 1.367 . S
C279 C273 1.483 . S
C279 C280 1.382 . S
C279 C281 1.403 . S
C280 H253 0.950 . S
C280 C266 1.411 . S
C280 C279 1.382 . S
C281 C265 1.411 . S
C281 C279 1.403 . S
C281 C282 1.489 . S
C282 C281 1.489 . S
C282 C283 1.383 . S
C282 C287 1.382 . S
C283 H254 0.950 . S
C283 C282 1.383 . S
C283 C284 1.395 . S
C284 H255 0.950 . S
C284 C283 1.395 . S
C284 C285 1.288 . S
C285 C284 1.288 . S
C285 C286 1.392 . S
C286 H256 0.951 . S
C286 C285 1.392 . S
C286 C287 1.392 . S
C287 H257 0.949 . S
C287 C282 1.382 . S
C287 C286 1.392 . S
Zn288 O291 2.031 . S
Zn288 O293 2.049 . S
Zn288 O298 2.067 . S
Zn289 O290 1.962 . S
Zn289 O292 1.986 . S
Zn289 O294 1.996 . S
Zn289 O297 1.943 . S
O290 Zn289 1.962 . S
O290 C295 1.254 . S
O291 Zn288 2.031 . S
O291 C295 1.269 . S
O292 Zn289 1.986 . S
O292 C299 1.262 . S
O293 Zn288 2.049 . S
O293 C301 1.260 . S
O294 Zn289 1.996 . S
O294 C301 1.257 . S
C295 O290 1.254 . S
C295 O291 1.269 . S
C296 O297 1.249 . S
C296 O298 1.270 . S
O297 Zn289 1.943 . S
O297 C296 1.249 . S
O298 Zn288 2.067 . S
O298 C296 1.270 . S
C299 O292 1.262 . S
C299 O300 1.232 . S
O300 C299 1.232 . S
C301 O293 1.260 . S
C301 O294 1.257 . S
Zn302 O305 2.031 . S
Zn302 O307 2.049 . S
Zn302 O312 2.067 . S
Zn303 O304 1.962 . S
Zn303 O306 1.986 . S
Zn303 O308 1.996 . S
Zn303 O311 1.943 . S
O304 Zn303 1.962 . S
O304 C309 1.254 . S
O305 Zn302 2.031 . S
O305 C309 1.269 . S
O306 Zn303 1.986 . S
O306 C313 1.262 . S
O307 Zn302 2.049 . S
O307 C315 1.260 . S
O308 Zn303 1.996 . S
O308 C315 1.257 . S
C309 O304 1.254 . S
C309 O305 1.269 . S
C310 O311 1.249 . S
C310 O312 1.270 . S
O311 Zn303 1.943 . S
O311 C310 1.249 . S
O312 Zn302 2.067 . S
O312 C310 1.270 . S
C313 O306 1.262 . S
C313 O314 1.232 . S
O314 C313 1.232 . S
C315 O307 1.260 . S
C315 O308 1.257 . S
Zn316 O319 2.031 . S
Zn316 O321 2.049 . S
Zn316 O326 2.067 . S
Zn317 O318 1.962 . S
Zn317 O320 1.986 . S
Zn317 O322 1.996 . S
Zn317 O325 1.943 . S
O318 Zn317 1.962 . S
O318 C323 1.254 . S
O319 Zn316 2.031 . S
O319 C323 1.269 . S
O320 Zn317 1.986 . S
O320 C327 1.262 . S
O321 Zn316 2.049 . S
O321 C329 1.260 . S
O322 Zn317 1.996 . S
O322 C329 1.257 . S
C323 O318 1.254 . S
C323 O319 1.269 . S
C324 O325 1.249 . S
C324 O326 1.270 . S
O325 Zn317 1.943 . S
O325 C324 1.249 . S
O326 Zn316 2.067 . S
O326 C324 1.270 . S
C327 O320 1.262 . S
C327 O328 1.232 . S
O328 C327 1.232 . S
C329 O321 1.260 . S
C329 O322 1.257 . S
Zn330 O333 2.031 . S
Zn330 O335 2.049 . S
Zn330 O340 2.067 . S
Zn331 O332 1.962 . S
Zn331 O334 1.986 . S
Zn331 O336 1.996 . S
Zn331 O339 1.943 . S
O332 Zn331 1.962 . S
O332 C337 1.254 . S
O333 Zn330 2.031 . S
O333 C337 1.269 . S
O334 Zn331 1.986 . S
O334 C341 1.262 . S
O335 Zn330 2.049 . S
O335 C343 1.260 . S
O336 Zn331 1.996 . S
O336 C343 1.257 . S
C337 O332 1.254 . S
C337 O333 1.269 . S
C338 O339 1.249 . S
C338 O340 1.270 . S
O339 Zn331 1.943 . S
O339 C338 1.249 . S
O340 Zn330 2.067 . S
O340 C338 1.270 . S
C341 O334 1.262 . S
C341 O342 1.232 . S
O342 C341 1.232 . S
C343 O335 1.260 . S
C343 O336 1.257 . S
Zn344 O347 2.031 . S
Zn344 O349 2.049 . S
Zn344 O354 2.067 . S
Zn345 O346 1.962 . S
Zn345 O348 1.986 . S
Zn345 O350 1.996 . S
Zn345 O353 1.943 . S
O346 Zn345 1.962 . S
O346 C351 1.254 . S
O347 Zn344 2.031 . S
O347 C351 1.269 . S
O348 Zn345 1.986 . S
O348 C355 1.262 . S
O349 Zn344 2.049 . S
O349 C357 1.260 . S
O350 Zn345 1.996 . S
O350 C357 1.257 . S
C351 O346 1.254 . S
C351 O347 1.269 . S
C352 O353 1.249 . S
C352 O354 1.270 . S
O353 Zn345 1.943 . S
O353 C352 1.249 . S
O354 Zn344 2.067 . S
O354 C352 1.270 . S
C355 O348 1.262 . S
C355 O356 1.232 . S
O356 C355 1.232 . S
C357 O349 1.260 . S
C357 O350 1.257 . S
Zn358 O361 2.031 . S
Zn358 O363 2.049 . S
Zn358 O368 2.067 . S
Zn359 O360 1.962 . S
Zn359 O362 1.986 . S
Zn359 O364 1.996 . S
Zn359 O367 1.943 . S
O360 Zn359 1.962 . S
O360 C365 1.254 . S
O361 Zn358 2.031 . S
O361 C365 1.269 . S
O362 Zn359 1.986 . S
O362 C369 1.262 . S
O363 Zn358 2.049 . S
O363 C371 1.260 . S
O364 Zn359 1.996 . S
O364 C371 1.257 . S
C365 O360 1.254 . S
C365 O361 1.269 . S
C366 O367 1.249 . S
C366 O368 1.270 . S
O367 Zn359 1.943 . S
O367 C366 1.249 . S
O368 Zn358 2.067 . S
O368 C366 1.270 . S
C369 O362 1.262 . S
C369 O370 1.232 . S
O370 C369 1.232 . S
C371 O363 1.260 . S
C371 O364 1.257 . S
C372 C373 1.369 . S
C372 C374 1.419 . S
C372 H376 0.930 . S
C373 C372 1.369 . S
C373 C382 1.429 . S
C374 C372 1.419 . S
C374 C375 1.363 . S
C374 H377 0.929 . S
C375 C374 1.363 . S
C375 C381 1.428 . S
H376 C372 0.930 . S
H377 C374 0.929 . S
S378 N379 1.613 . S
S378 N380 1.610 . S
N379 S378 1.613 . S
N379 C382 1.350 . S
N380 S378 1.610 . S
N380 C381 1.351 . S
C381 C375 1.428 . S
C381 N380 1.351 . S
C381 C382 1.434 . S
C382 C373 1.429 . S
C382 N379 1.350 . S
C382 C381 1.434 . S
C383 C384 1.369 . S
C383 C385 1.419 . S
C383 H387 0.930 . S
C384 C383 1.369 . S
C384 C393 1.429 . S
C385 C383 1.419 . S
C385 C386 1.363 . S
C385 H388 0.929 . S
C386 C385 1.363 . S
C386 C392 1.428 . S
H387 C383 0.930 . S
H388 C385 0.929 . S
S389 N390 1.613 . S
S389 N391 1.610 . S
N390 S389 1.613 . S
N390 C393 1.350 . S
N391 S389 1.610 . S
N391 C392 1.351 . S
C392 C386 1.428 . S
C392 N391 1.351 . S
C392 C393 1.434 . S
C393 C384 1.429 . S
C393 N390 1.350 . S
C393 C392 1.434 . S
C394 C395 1.369 . S
C394 C396 1.419 . S
C394 H398 0.930 . S
C395 C394 1.369 . S
C395 C404 1.429 . S
C396 C394 1.419 . S
C396 C397 1.363 . S
C396 H399 0.929 . S
C397 C396 1.363 . S
C397 C403 1.428 . S
H398 C394 0.930 . S
H399 C396 0.929 . S
S400 N401 1.613 . S
S400 N402 1.610 . S
N401 S400 1.613 . S
N401 C404 1.350 . S
N402 S400 1.610 . S
N402 C403 1.351 . S
C403 C397 1.428 . S
C403 N402 1.351 . S
C403 C404 1.434 . S
C404 C395 1.429 . S
C404 N401 1.350 . S
C404 C403 1.434 . S
C405 C406 1.369 . S
C405 C407 1.419 . S
C405 H409 0.930 . S
C406 C405 1.369 . S
C406 C415 1.429 . S
C407 C405 1.419 . S
C407 C408 1.363 . S
C407 H410 0.929 . S
C408 C407 1.363 . S
C408 C414 1.428 . S
H409 C405 0.930 . S
H410 C407 0.929 . S
S411 N412 1.613 . S
S411 N413 1.610 . S
N412 S411 1.613 . S
N412 C415 1.350 . S
N413 S411 1.610 . S
N413 C414 1.351 . S
C414 C408 1.428 . S
C414 N413 1.351 . S
C414 C415 1.434 . S
C415 C406 1.429 . S
C415 N412 1.350 . S
C415 C414 1.434 . S
C416 C417 1.369 . S
C416 C418 1.419 . S
C416 H420 0.930 . S
C417 C416 1.369 . S
C417 C426 1.429 . S
C418 C416 1.419 . S
C418 C419 1.363 . S
C418 H421 0.929 . S
C419 C418 1.363 . S
C419 C425 1.428 . S
H420 C416 0.930 . S
H421 C418 0.929 . S
S422 N423 1.613 1_554 S
S422 N424 1.610 1_554 S
N423 S422 1.613 1_556 S
N423 C426 1.350 . S
N424 S422 1.610 1_556 S
N424 C425 1.351 . S
C425 C419 1.428 . S
C425 N424 1.351 . S
C425 C426 1.434 . S
C426 C417 1.429 . S
C426 N423 1.350 . S
C426 C425 1.434 . S
C427 C428 1.369 . S
C427 C429 1.419 . S
C427 H431 0.930 . S
C428 C427 1.369 . S
C428 C437 1.429 . S
C429 C427 1.419 . S
C429 C430 1.363 . S
C429 H432 0.929 . S
C430 C429 1.363 . S
C430 C436 1.428 . S
H431 C427 0.930 . S
H432 C429 0.929 . S
S433 N434 1.613 . S
S433 N435 1.610 . S
N434 S433 1.613 . S
N434 C437 1.350 . S
N435 S433 1.610 . S
N435 C436 1.351 . S
C436 C430 1.428 . S
C436 N435 1.351 . S
C436 C437 1.434 . S
C437 C428 1.429 . S
C437 N434 1.350 . S
C437 C436 1.434 . S
C438 C439 1.369 . S
C438 C440 1.419 . S
C438 H442 0.930 . S
C439 C438 1.369 . S
C439 C448 1.429 . S
C440 C438 1.419 . S
C440 C441 1.363 . S
C440 H443 0.929 . S
C441 C440 1.363 . S
C441 C447 1.428 . S
H442 C438 0.930 . S
H443 C440 0.929 . S
S444 N445 1.613 . S
S444 N446 1.610 . S
N445 S444 1.613 . S
N445 C448 1.350 . S
N446 S444 1.610 . S
N446 C447 1.351 . S
C447 C441 1.428 . S
C447 N446 1.351 . S
C447 C448 1.434 . S
C448 C439 1.429 . S
C448 N445 1.350 . S
C448 C447 1.434 . S
C449 C450 1.369 . S
C449 C451 1.419 . S
C449 H453 0.930 . S
C450 C449 1.369 . S
C450 C459 1.429 . S
C451 C449 1.419 . S
C451 C452 1.363 . S
C451 H454 0.929 . S
C452 C451 1.363 . S
C452 C458 1.428 . S
H453 C449 0.930 . S
H454 C451 0.929 . S
S455 N456 1.613 . S
S455 N457 1.610 . S
N456 S455 1.613 . S
N456 C459 1.350 . S
N457 S455 1.610 . S
N457 C458 1.351 . S
C458 C452 1.428 . S
C458 N457 1.351 . S
C458 C459 1.434 . S
C459 C450 1.429 . S
C459 N456 1.350 . S
C459 C458 1.434 . S
C460 C461 1.369 . S
C460 C462 1.419 . S
C460 H464 0.930 . S
C461 C460 1.369 . S
C461 C470 1.429 . S
C462 C460 1.419 . S
C462 C463 1.363 . S
C462 H465 0.929 . S
C463 C462 1.363 . S
C463 C469 1.428 . S
H464 C460 0.930 . S
H465 C462 0.929 . S
S466 N467 1.613 . S
S466 N468 1.610 . S
N467 S466 1.613 . S
N467 C470 1.350 . S
N468 S466 1.610 . S
N468 C469 1.351 . S
C469 C463 1.428 . S
C469 N468 1.351 . S
C469 C470 1.434 . S
C470 C461 1.429 . S
C470 N467 1.350 . S
C470 C469 1.434 . S
C471 C472 1.369 . S
C471 C473 1.419 . S
C471 H475 0.930 1_554 S
C472 C471 1.369 . S
C472 C481 1.429 . S
C473 C471 1.419 . S
C473 C474 1.363 . S
C473 H476 0.929 . S
C474 C473 1.363 . S
C474 C480 1.428 . S
H475 C471 0.930 1_556 S
H476 C473 0.929 . S
S477 N478 1.613 . S
S477 N479 1.610 . S
N478 S477 1.613 . S
N478 C481 1.350 . S
N479 S477 1.610 . S
N479 C480 1.351 . S
C480 C474 1.428 . S
C480 N479 1.351 . S
C480 C481 1.434 . S
C481 C472 1.429 . S
C481 N478 1.350 . S
C481 C480 1.434 . S
C482 C483 1.369 . S
C482 C484 1.419 . S
C482 H486 0.930 . S
C483 C482 1.369 . S
C483 C492 1.429 . S
C484 C482 1.419 . S
C484 C485 1.363 . S
C484 H487 0.929 . S
C485 C484 1.363 . S
C485 C491 1.428 . S
H486 C482 0.930 . S
H487 C484 0.929 . S
S488 N489 1.613 . S
S488 N490 1.610 . S
N489 S488 1.613 . S
N489 C492 1.350 . S
N490 S488 1.610 . S
N490 C491 1.351 . S
C491 C485 1.428 . S
C491 N490 1.351 . S
C491 C492 1.434 . S
C492 C483 1.429 . S
C492 N489 1.350 . S
C492 C491 1.434 . S
C493 C494 1.369 . S
C493 C495 1.419 . S
C493 H497 0.930 . S
C494 C493 1.369 . S
C494 C503 1.429 . S
C495 C493 1.419 . S
C495 C496 1.363 . S
C495 H498 0.929 . S
C496 C495 1.363 . S
C496 C502 1.428 . S
H497 C493 0.930 . S
H498 C495 0.929 . S
S499 N500 1.613 . S
S499 N501 1.610 . S
N500 S499 1.613 . S
N500 C503 1.350 . S
N501 S499 1.610 . S
N501 C502 1.351 . S
C502 C496 1.428 . S
C502 N501 1.351 . S
C502 C503 1.434 . S
C503 C494 1.429 . S
C503 N500 1.350 . S
C503 C502 1.434 . S
C504 C505 1.369 . S
C504 C506 1.419 . S
C504 H508 0.930 . S
C505 C504 1.369 . S
C505 C514 1.429 . S
C506 C504 1.419 . S
C506 C507 1.363 . S
C506 H509 0.929 . S
C507 C506 1.363 . S
C507 C513 1.428 . S
H508 C504 0.930 . S
H509 C506 0.929 . S
S510 N511 1.613 . S
S510 N512 1.610 . S
N511 S510 1.613 . S
N511 C514 1.350 . S
N512 S510 1.610 . S
N512 C513 1.351 . S
C513 C507 1.428 . S
C513 N512 1.351 . S
C513 C514 1.434 . S
C514 C505 1.429 . S
C514 N511 1.350 . S
C514 C513 1.434 . S
C515 C516 1.369 . S
C515 C517 1.419 . S
C515 H519 0.930 . S
C516 C515 1.369 . S
C516 C525 1.429 . S
C517 C515 1.419 . S
C517 C518 1.363 . S
C517 H520 0.929 . S
C518 C517 1.363 . S
C518 C524 1.428 . S
H519 C515 0.930 . S
H520 C517 0.929 . S
S521 N522 1.613 . S
S521 N523 1.610 . S
N522 S521 1.613 . S
N522 C525 1.350 . S
N523 S521 1.610 . S
N523 C524 1.351 . S
C524 C518 1.428 . S
C524 N523 1.351 . S
C524 C525 1.434 . S
C525 C516 1.429 . S
C525 N522 1.350 . S
C525 C524 1.434 . S
C526 C527 1.369 . S
C526 C528 1.419 . S
C526 H530 0.930 . S
C527 C526 1.369 . S
C527 C536 1.429 . S
C528 C526 1.419 . S
C528 C529 1.363 . S
C528 H531 0.929 . S
C529 C528 1.363 . S
C529 C535 1.428 . S
H530 C526 0.930 . S
H531 C528 0.929 . S
S532 N533 1.613 . S
S532 N534 1.610 . S
N533 S532 1.613 . S
N533 C536 1.350 . S
N534 S532 1.610 . S
N534 C535 1.351 . S
C535 C529 1.428 . S
C535 N534 1.351 . S
C535 C536 1.434 . S
C536 C527 1.429 . S
C536 N533 1.350 . S
C536 C535 1.434 . S
C537 C538 1.369 . S
C537 C539 1.419 1_556 S
C537 H541 0.930 . S
C538 C537 1.369 . S
C538 C547 1.429 . S
C539 C537 1.419 1_554 S
C539 C540 1.363 1_554 S
C539 H542 0.929 . S
C540 C539 1.363 1_556 S
C540 C546 1.428 . S
H541 C537 0.930 . S
H542 C539 0.929 . S
S543 N544 1.613 . S
S543 N545 1.610 . S
N544 S543 1.613 . S
N544 C547 1.350 . S
N545 S543 1.610 . S
N545 C546 1.351 . S
C546 C540 1.428 . S
C546 N545 1.351 . S
C546 C547 1.434 . S
C547 C538 1.429 . S
C547 N544 1.350 . S
C547 C546 1.434 . S
C548 C549 1.369 . S
C548 C550 1.419 . S
C548 H552 0.930 . S
C549 C548 1.369 . S
C549 C558 1.429 . S
C550 C548 1.419 . S
C550 C551 1.363 . S
C550 H553 0.929 . S
C551 C550 1.363 . S
C551 C557 1.428 . S
H552 C548 0.930 . S
H553 C550 0.929 . S
S554 N555 1.613 . S
S554 N556 1.610 . S
N555 S554 1.613 . S
N555 C558 1.350 . S
N556 S554 1.610 . S
N556 C557 1.351 . S
C557 C551 1.428 . S
C557 N556 1.351 . S
C557 C558 1.434 . S
C558 C549 1.429 . S
C558 N555 1.350 . S
C558 C557 1.434 . S
C559 C560 1.369 . S
C559 C561 1.419 . S
C559 H563 0.930 . S
C560 C559 1.369 . S
C560 C569 1.429 . S
C561 C559 1.419 . S
C561 C562 1.363 . S
C561 H564 0.929 . S
C562 C561 1.363 . S
C562 C568 1.428 . S
H563 C559 0.930 . S
H564 C561 0.929 . S
S565 N566 1.613 . S
S565 N567 1.610 . S
N566 S565 1.613 . S
N566 C569 1.350 . S
N567 S565 1.610 . S
N567 C568 1.351 . S
C568 C562 1.428 . S
C568 N567 1.351 . S
C568 C569 1.434 . S
C569 C560 1.429 . S
C569 N566 1.350 . S
C569 C568 1.434 . S
C570 C571 1.369 . S
C570 C572 1.419 . S
C570 H574 0.930 . S
C571 C570 1.369 . S
C571 C580 1.429 . S
C572 C570 1.419 . S
C572 C573 1.363 . S
C572 H575 0.929 . S
C573 C572 1.363 . S
C573 C579 1.428 . S
H574 C570 0.930 . S
H575 C572 0.929 . S
S576 N577 1.613 . S
S576 N578 1.610 . S
N577 S576 1.613 . S
N577 C580 1.350 . S
N578 S576 1.610 . S
N578 C579 1.351 . S
C579 C573 1.428 . S
C579 N578 1.351 . S
C579 C580 1.434 . S
C580 C571 1.429 . S
C580 N577 1.350 . S
C580 C579 1.434 . S
C581 C582 1.369 . S
C581 C583 1.419 . S
C581 H585 0.930 . S
C582 C581 1.369 . S
C582 C591 1.429 . S
C583 C581 1.419 . S
C583 C584 1.363 . S
C583 H586 0.929 . S
C584 C583 1.363 . S
C584 C590 1.428 . S
H585 C581 0.930 . S
H586 C583 0.929 . S
S587 N588 1.613 . S
S587 N589 1.610 . S
N588 S587 1.613 . S
N588 C591 1.350 . S
N589 S587 1.610 . S
N589 C590 1.351 . S
C590 C584 1.428 . S
C590 N589 1.351 . S
C590 C591 1.434 . S
C591 C582 1.429 . S
C591 N588 1.350 . S
C591 C590 1.434 . S
C592 C593 1.369 . S
C592 C594 1.419 . S
C592 H596 0.930 . S
C593 C592 1.369 . S
C593 C602 1.429 . S
C594 C592 1.419 . S
C594 C595 1.363 . S
C594 H597 0.929 . S
C595 C594 1.363 . S
C595 C601 1.428 . S
H596 C592 0.930 . S
H597 C594 0.929 . S
S598 N599 1.613 . S
S598 N600 1.610 . S
N599 S598 1.613 . S
N599 C602 1.350 . S
N600 S598 1.610 . S
N600 C601 1.351 . S
C601 C595 1.428 . S
C601 N600 1.351 . S
C601 C602 1.434 . S
C602 C593 1.429 . S
C602 N599 1.350 . S
C602 C601 1.434 . S
C603 C604 1.369 . S
C603 C605 1.419 . S
C603 H607 0.930 . S
C604 C603 1.369 . S
C604 C613 1.429 . S
C605 C603 1.419 . S
C605 C606 1.363 . S
C605 H608 0.929 . S
C606 C605 1.363 . S
C606 C612 1.428 . S
H607 C603 0.930 . S
H608 C605 0.929 . S
S609 N610 1.613 . S
S609 N611 1.610 . S
N610 S609 1.613 . S
N610 C613 1.350 . S
N611 S609 1.610 . S
N611 C612 1.351 . S
C612 C606 1.428 . S
C612 N611 1.351 . S
C612 C613 1.434 . S
C613 C604 1.429 . S
C613 N610 1.350 . S
C613 C612 1.434 . S
C614 C615 1.369 . S
C614 C616 1.419 1_554 S
C614 H618 0.930 . S
C615 C614 1.369 . S
C615 C624 1.429 . S
C616 C614 1.419 1_556 S
C616 C617 1.363 . S
C616 H619 0.929 . S
C617 C616 1.363 . S
C617 C623 1.428 1_556 S
H618 C614 0.930 . S
H619 C616 0.929 . S
S620 N621 1.613 . S
S620 N622 1.610 . S
N621 S620 1.613 . S
N621 C624 1.350 . S
N622 S620 1.610 . S
N622 C623 1.351 . S
C623 C617 1.428 1_554 S
C623 N622 1.351 . S
C623 C624 1.434 . S
C624 C615 1.429 . S
C624 N621 1.350 . S
C624 C623 1.434 . S
C625 C626 1.369 . S
C625 C627 1.419 . S
C625 H629 0.930 . S
C626 C625 1.369 . S
C626 C635 1.429 . S
C627 C625 1.419 . S
C627 C628 1.363 . S
C627 H630 0.929 . S
C628 C627 1.363 . S
C628 C634 1.428 . S
H629 C625 0.930 . S
H630 C627 0.929 . S
S631 N632 1.613 . S
S631 N633 1.610 . S
N632 S631 1.613 . S
N632 C635 1.350 . S
N633 S631 1.610 . S
N633 C634 1.351 . S
C634 C628 1.428 . S
C634 N633 1.351 . S
C634 C635 1.434 . S
C635 C626 1.429 . S
C635 N632 1.350 . S
C635 C634 1.434 . S
C375 C365 1.597 . S
C373 C45 1.593 . S
C384 C84 1.522 . S
C386 C299 1.495 . S
C395 C126 1.431 . S
C397 C313 1.455 . S
C406 C189 1.558 . S
C408 C327 1.510 . S
C419 C341 1.570 . S
C417 C228 1.595 . S
C428 C270 1.525 . S
C430 C351 1.594 . S
C439 C69 1.580 . S
C441 C309 1.621 . S
C450 C141 1.689 . S
C452 C323 1.694 . S
C461 C174 1.580 . S
C463 C337 1.651 . S
C474 C355 1.552 . S
C472 C213 1.561 . S
C485 C369 1.541 . S
C483 C285 1.583 . S
C496 C295 1.580 . S
C494 C30 1.535 . S
C505 C36 1.522 . S
C507 C310 1.444 . S
C516 C93 1.582 . S
C518 C324 1.504 . S
C529 C338 1.510 . S
C527 C117 1.576 . S
C538 C180 1.492 . S
C540 C357 1.442 1_556 S
C551 C371 1.404 . S
C549 C237 1.471 . S
C562 C296 1.421 . S
C560 C261 1.491 . S
C573 C366 1.421 . S
C571 C78 1.483 . S
C582 C132 1.415 . S
C584 C301 1.370 . S
C595 C315 1.375 . S
C593 C165 1.409 . S
C604 C222 1.464 . S
C606 C329 1.413 . S
C615 C276 1.497 . S
C617 C343 1.451 . S
C626 C21 1.514 . S
C628 C352 1.456 . S
