# Generated by pormake.
# Topology ctn, (3,4)-cn, num edge types: 1
# Building blocks:
#     Node 0, Type 0, BuildingBlock: BETDIP_clean_linker_0, # of connection points: 3
#     Node 1, Type 0, BuildingBlock: BETDIP_clean_linker_0, # of connection points: 3
#     Node 2, Type 0, BuildingBlock: BETDIP_clean_linker_0, # of connection points: 3
#     Node 3, Type 0, BuildingBlock: BETDIP_clean_linker_0, # of connection points: 3
#     Node 4, Type 0, BuildingBlock: BETDIP_clean_linker_0, # of connection points: 3
#     Node 5, Type 0, BuildingBlock: BETDIP_clean_linker_0, # of connection points: 3
#     Node 6, Type 0, BuildingBlock: BETDIP_clean_linker_0, # of connection points: 3
#     Node 7, Type 0, BuildingBlock: BETDIP_clean_linker_0, # of connection points: 3
#     Node 8, Type 0, BuildingBlock: BETDIP_clean_linker_0, # of connection points: 3
#     Node 9, Type 0, BuildingBlock: BETDIP_clean_linker_0, # of connection points: 3
#     Node 10, Type 0, BuildingBlock: BETDIP_clean_linker_0, # of connection points: 3
#     Node 11, Type 0, BuildingBlock: BETDIP_clean_linker_0, # of connection points: 3
#     Node 12, Type 0, BuildingBlock: BETDIP_clean_linker_0, # of connection points: 3
#     Node 13, Type 0, BuildingBlock: BETDIP_clean_linker_0, # of connection points: 3
#     Node 14, Type 0, BuildingBlock: BETDIP_clean_linker_0, # of connection points: 3
#     Node 15, Type 0, BuildingBlock: BETDIP_clean_linker_0, # of connection points: 3
#     Node 16, Type 1, BuildingBlock: TATPOV_clean_sbu_0, # of connection points: 4
#     Node 17, Type 1, BuildingBlock: TATPOV_clean_sbu_0, # of connection points: 4
#     Node 18, Type 1, BuildingBlock: TATPOV_clean_sbu_0, # of connection points: 4
#     Node 19, Type 1, BuildingBlock: TATPOV_clean_sbu_0, # of connection points: 4
#     Node 20, Type 1, BuildingBlock: TATPOV_clean_sbu_0, # of connection points: 4
#     Node 21, Type 1, BuildingBlock: TATPOV_clean_sbu_0, # of connection points: 4
#     Node 22, Type 1, BuildingBlock: TATPOV_clean_sbu_0, # of connection points: 4
#     Node 23, Type 1, BuildingBlock: TATPOV_clean_sbu_0, # of connection points: 4
#     Node 24, Type 1, BuildingBlock: TATPOV_clean_sbu_0, # of connection points: 4
#     Node 25, Type 1, BuildingBlock: TATPOV_clean_sbu_0, # of connection points: 4
#     Node 26, Type 1, BuildingBlock: TATPOV_clean_sbu_0, # of connection points: 4
#     Node 27, Type 1, BuildingBlock: TATPOV_clean_sbu_0, # of connection points: 4
#     Edge 28, Type (0, 1), BuildingBlock: UVAHIK_clean_linker_0, # of connection points: 2
#     Edge 29, Type (0, 1), BuildingBlock: UVAHIK_clean_linker_0, # of connection points: 2
#     Edge 30, Type (0, 1), BuildingBlock: UVAHIK_clean_linker_0, # of connection points: 2
#     Edge 31, Type (0, 1), BuildingBlock: UVAHIK_clean_linker_0, # of connection points: 2
#     Edge 32, Type (0, 1), BuildingBlock: UVAHIK_clean_linker_0, # of connection points: 2
#     Edge 33, Type (0, 1), BuildingBlock: UVAHIK_clean_linker_0, # of connection points: 2
#     Edge 34, Type (0, 1), BuildingBlock: UVAHIK_clean_linker_0, # of connection points: 2
#     Edge 35, Type (0, 1), BuildingBlock: UVAHIK_clean_linker_0, # of connection points: 2
#     Edge 36, Type (0, 1), BuildingBlock: UVAHIK_clean_linker_0, # of connection points: 2
#     Edge 37, Type (0, 1), BuildingBlock: UVAHIK_clean_linker_0, # of connection points: 2
#     Edge 38, Type (0, 1), BuildingBlock: UVAHIK_clean_linker_0, # of connection points: 2
#     Edge 39, Type (0, 1), BuildingBlock: UVAHIK_clean_linker_0, # of connection points: 2
#     Edge 40, Type (0, 1), BuildingBlock: UVAHIK_clean_linker_0, # of connection points: 2
#     Edge 41, Type (0, 1), BuildingBlock: UVAHIK_clean_linker_0, # of connection points: 2
#     Edge 42, Type (0, 1), BuildingBlock: UVAHIK_clean_linker_0, # of connection points: 2
#     Edge 43, Type (0, 1), BuildingBlock: UVAHIK_clean_linker_0, # of connection points: 2
#     Edge 44, Type (0, 1), BuildingBlock: UVAHIK_clean_linker_0, # of connection points: 2
#     Edge 45, Type (0, 1), BuildingBlock: UVAHIK_clean_linker_0, # of connection points: 2
#     Edge 46, Type (0, 1), BuildingBlock: UVAHIK_clean_linker_0, # of connection points: 2
#     Edge 47, Type (0, 1), BuildingBlock: UVAHIK_clean_linker_0, # of connection points: 2
#     Edge 48, Type (0, 1), BuildingBlock: UVAHIK_clean_linker_0, # of connection points: 2
#     Edge 49, Type (0, 1), BuildingBlock: UVAHIK_clean_linker_0, # of connection points: 2
#     Edge 50, Type (0, 1), BuildingBlock: UVAHIK_clean_linker_0, # of connection points: 2
#     Edge 51, Type (0, 1), BuildingBlock: UVAHIK_clean_linker_0, # of connection points: 2
#     Edge 52, Type (0, 1), BuildingBlock: UVAHIK_clean_linker_0, # of connection points: 2
#     Edge 53, Type (0, 1), BuildingBlock: UVAHIK_clean_linker_0, # of connection points: 2
#     Edge 54, Type (0, 1), BuildingBlock: UVAHIK_clean_linker_0, # of connection points: 2
#     Edge 55, Type (0, 1), BuildingBlock: UVAHIK_clean_linker_0, # of connection points: 2
#     Edge 56, Type (0, 1), BuildingBlock: UVAHIK_clean_linker_0, # of connection points: 2
#     Edge 57, Type (0, 1), BuildingBlock: UVAHIK_clean_linker_0, # of connection points: 2
#     Edge 58, Type (0, 1), BuildingBlock: UVAHIK_clean_linker_0, # of connection points: 2
#     Edge 59, Type (0, 1), BuildingBlock: UVAHIK_clean_linker_0, # of connection points: 2
#     Edge 60, Type (0, 1), BuildingBlock: UVAHIK_clean_linker_0, # of connection points: 2
#     Edge 61, Type (0, 1), BuildingBlock: UVAHIK_clean_linker_0, # of connection points: 2
#     Edge 62, Type (0, 1), BuildingBlock: UVAHIK_clean_linker_0, # of connection points: 2
#     Edge 63, Type (0, 1), BuildingBlock: UVAHIK_clean_linker_0, # of connection points: 2
#     Edge 64, Type (0, 1), BuildingBlock: UVAHIK_clean_linker_0, # of connection points: 2
#     Edge 65, Type (0, 1), BuildingBlock: UVAHIK_clean_linker_0, # of connection points: 2
#     Edge 66, Type (0, 1), BuildingBlock: UVAHIK_clean_linker_0, # of connection points: 2
#     Edge 67, Type (0, 1), BuildingBlock: UVAHIK_clean_linker_0, # of connection points: 2
#     Edge 68, Type (0, 1), BuildingBlock: UVAHIK_clean_linker_0, # of connection points: 2
#     Edge 69, Type (0, 1), BuildingBlock: UVAHIK_clean_linker_0, # of connection points: 2
#     Edge 70, Type (0, 1), BuildingBlock: UVAHIK_clean_linker_0, # of connection points: 2
#     Edge 71, Type (0, 1), BuildingBlock: UVAHIK_clean_linker_0, # of connection points: 2
#     Edge 72, Type (0, 1), BuildingBlock: UVAHIK_clean_linker_0, # of connection points: 2
#     Edge 73, Type (0, 1), BuildingBlock: UVAHIK_clean_linker_0, # of connection points: 2
#     Edge 74, Type (0, 1), BuildingBlock: UVAHIK_clean_linker_0, # of connection points: 2
#     Edge 75, Type (0, 1), BuildingBlock: UVAHIK_clean_linker_0, # of connection points: 2
# Relax obj value: 0.066
# Max RMSD: 0.196
# Mean RMSD: 0.113
data_MOF--net-ctn--node1-TATPOV_clean_sbu_0--node2-BETDIP_clean_linker_0--edge1-UVAHIK_clean_linker_0
_symmetry_space_group_name_H-M    P1
_symmetry_Int_Tables_number       1
_symmetry_cell_setting            triclinic
loop_
_symmetry_equiv_pos_as_xyz
'x, y, z'
_cell_length_a     67.818859
_cell_length_b     68.09827
_cell_length_c     74.499465
_cell_angle_alpha  94.576944
_cell_angle_beta   94.63471
_cell_angle_gamma 94.035482
loop_
_atom_site_label
_atom_site_type_symbol
_atom_site_fract_x
_atom_site_fract_y
_atom_site_fract_z
_atom_type_partial_charge
H0 H 0.02619 0.05315 0.04483 0.0
H1 H 0.06813 0.02533 0.01297 0.0
H2 H 0.0541 0.00254 0.06293 0.0
H3 H 0.07028 0.05339 0.00016 0.0
C4 C 0.05644 0.06028 0.00124 0.0
C5 C 0.03648 0.04183 0.043 0.0
C6 C 0.03868 0.0278 0.05574 0.0
C7 C 0.04727 0.04139 0.02774 0.0
C8 C 0.06031 0.02642 0.02503 0.0
C9 C 0.06285 0.01226 0.03764 0.0
C10 C 0.05192 0.01308 0.05293 0.0
N11 N 0.04419 0.05595 0.01528 0.0
H12 H 0.2342 0.68597 0.22126 0.0
H13 H 0.28999 0.72065 0.22978 0.0
H14 H 0.27964 0.67007 0.25989 0.0
H15 H 0.26812 0.74507 0.22079 0.0
C16 C 0.2607 0.73638 0.20898 0.0
C17 C 0.24893 0.68861 0.22821 0.0
C18 C 0.25521 0.67639 0.24154 0.0
C19 C 0.26127 0.70466 0.22407 0.0
C20 C 0.28036 0.70837 0.23312 0.0
C21 C 0.28718 0.69597 0.24617 0.0
C22 C 0.27441 0.68007 0.25027 0.0
N23 N 0.25441 0.7162 0.21011 0.0
H24 H 0.96418 0.4481 0.03349 0.0
H25 H 0.99789 0.41217 0.06747 0.0
H26 H 0.98066 0.46837 0.08906 0.0
H27 H 0.9782 0.43185 0.01148 0.0
C28 C 0.98053 0.41719 0.01559 0.0
C29 C 0.97159 0.44576 0.04646 0.0
C30 C 0.97123 0.4602 0.06099 0.0
C31 C 0.98157 0.42857 0.04871 0.0
C32 C 0.99055 0.42561 0.06575 0.0
C33 C 0.99035 0.43987 0.08042 0.0
C34 C 0.98071 0.45717 0.07789 0.0
N35 N 0.98301 0.41398 0.03422 0.0
H36 H 0.7478 0.74666 0.19293 0.0
H37 H 0.75791 0.79957 0.22873 0.0
H38 H 0.79334 0.79109 0.18373 0.0
H39 H 0.74821 0.77609 0.24946 0.0
C40 C 0.7352 0.76935 0.24116 0.0
C41 C 0.75619 0.7607 0.19685 0.0
C42 C 0.77112 0.76752 0.18633 0.0
C43 C 0.75182 0.77187 0.21242 0.0
C44 C 0.76203 0.79047 0.21725 0.0
C45 C 0.77683 0.79778 0.20676 0.0
C46 C 0.78145 0.78599 0.1915 0.0
N47 N 0.73632 0.76451 0.22238 0.0
H48 H 0.07187 0.97207 0.41873 0.0
H49 H 0.12376 0.99078 0.45472 0.0
H50 H 0.10997 0.02216 0.40802 0.0
H51 H 0.12068 0.9589 0.46188 0.0
C52 C 0.10471 0.95615 0.46184 0.0
C53 C 0.08511 0.98193 0.42226 0.0
C54 C 0.08946 0.9975 0.41161 0.0
C55 C 0.0975 0.9792 0.43768 0.0
C56 C 0.11446 0.99226 0.44248 0.0
C57 C 0.11911 0.00784 0.43186 0.0
C58 C 0.10643 0.01039 0.41648 0.0
N59 N 0.09185 0.96391 0.4486 0.0
H60 H 0.22136 0.7593 0.78408 0.0
H61 H 0.24334 0.71645 0.74681 0.0
H62 H 0.26309 0.71912 0.80318 0.0
H63 H 0.23225 0.73599 0.72596 0.0
C64 C 0.21913 0.74177 0.73118 0.0
C65 C 0.23071 0.74729 0.78161 0.0
C66 C 0.2422 0.74036 0.79601 0.0
C67 C 0.23118 0.73901 0.76384 0.0
C68 C 0.24339 0.72354 0.76033 0.0
C69 C 0.25506 0.71638 0.77447 0.0
C70 C 0.25433 0.72484 0.79224 0.0
N71 N 0.21825 0.74587 0.7501 0.0
H72 H 0.93786 0.58492 0.45009 0.0
H73 H 0.89867 0.53196 0.44226 0.0
H74 H 0.90202 0.56872 0.49234 0.0
H75 H 0.93923 0.5805 0.41988 0.0
C76 C 0.93878 0.56451 0.41766 0.0
C77 C 0.92651 0.57509 0.45476 0.0
C78 C 0.92052 0.57907 0.47221 0.0
C79 C 0.91861 0.55808 0.44389 0.0
C80 C 0.90446 0.54526 0.45052 0.0
C81 C 0.89844 0.54894 0.46799 0.0
C82 C 0.90665 0.5658 0.47885 0.0
N83 N 0.92583 0.55244 0.427 0.0
H84 H 0.83361 0.84376 0.79332 0.0
H85 H 0.87078 0.80575 0.82176 0.0
H86 H 0.81639 0.82208 0.84275 0.0
H87 H 0.89366 0.81535 0.80396 0.0
C88 C 0.8859 0.81942 0.79166 0.0
C89 C 0.83672 0.83536 0.80485 0.0
C90 C 0.82332 0.83446 0.81816 0.0
C91 C 0.85406 0.82544 0.80615 0.0
C92 C 0.85776 0.81401 0.82083 0.0
C93 C 0.84425 0.81267 0.83417 0.0
C94 C 0.82722 0.82332 0.83288 0.0
N95 N 0.86664 0.82636 0.79183 0.0
H96 H 0.34096 0.37397 0.30779 0.0
H97 H 0.37499 0.33282 0.33505 0.0
H98 H 0.32452 0.35564 0.35874 0.0
H99 H 0.39819 0.3408 0.31657 0.0
C100 C 0.3902 0.345 0.30443 0.0
C101 C 0.34367 0.36561 0.31942 0.0
C102 C 0.33064 0.36601 0.33311 0.0
C103 C 0.35999 0.3542 0.32024 0.0
C104 C 0.36324 0.34274 0.33495 0.0
C105 C 0.35055 0.34314 0.34905 0.0
C106 C 0.33452 0.35521 0.34812 0.0
N107 N 0.37174 0.35354 0.30529 0.0
H108 H 0.47556 0.95646 0.52389 0.0
H109 H 0.51312 0.93047 0.56321 0.0
H110 H 0.48745 0.98462 0.57799 0.0
H111 H 0.52503 0.91599 0.5384 0.0
C112 C 0.51241 0.91345 0.52834 0.0
C113 C 0.48281 0.95698 0.53745 0.0
C114 C 0.48013 0.97264 0.55029 0.0
C115 C 0.49491 0.94193 0.54179 0.0
C116 C 0.50415 0.94225 0.5594 0.0
C117 C 0.50121 0.95749 0.5725 0.0
C118 C 0.4892 0.97261 0.56792 0.0
N119 N 0.49698 0.92654 0.52819 0.0
H120 H 0.25121 0.2408 0.6963 0.0
H121 H 0.26277 0.29247 0.73362 0.0
H122 H 0.29722 0.28508 0.68789 0.0
H123 H 0.25226 0.26853 0.75367 0.0
C124 C 0.2391 0.26253 0.74516 0.0
C125 C 0.2599 0.25459 0.70058 0.0
C126 C 0.27472 0.26164 0.69006 0.0
C127 C 0.25595 0.26532 0.71655 0.0
C128 C 0.26655 0.28365 0.72182 0.0
C129 C 0.28123 0.29114 0.71132 0.0
C130 C 0.28543 0.2798 0.69568 0.0
N131 N 0.2403 0.25795 0.72635 0.0
H132 H 0.735 0.18117 0.71684 0.0
H133 H 0.79305 0.21149 0.72325 0.0
H134 H 0.77923 0.16445 0.75636 0.0
H135 H 0.7765 0.23694 0.71441 0.0
C136 C 0.7656 0.22999 0.70392 0.0
C137 C 0.74976 0.18326 0.72379 0.0
C138 C 0.75561 0.17064 0.73697 0.0
C139 C 0.76289 0.19851 0.71927 0.0
C140 C 0.7824 0.20067 0.72757 0.0
C141 C 0.78853 0.18843 0.74097 0.0
C142 C 0.77491 0.17359 0.74569 0.0
N143 N 0.75634 0.21096 0.70586 0.0
H144 H 0.52219 0.55321 0.54807 0.0
H145 H 0.56543 0.52534 0.51772 0.0
H146 H 0.54957 0.50275 0.56721 0.0
H147 H 0.56769 0.55297 0.50456 0.0
C148 C 0.55381 0.55988 0.50519 0.0
C149 C 0.53255 0.5419 0.54658 0.0
C150 C 0.5345 0.52808 0.55955 0.0
C151 C 0.54374 0.54126 0.53156 0.0
C152 C 0.55687 0.52629 0.52933 0.0
C153 C 0.55916 0.51237 0.54219 0.0
C154 C 0.54789 0.5134 0.55725 0.0
N155 N 0.54106 0.55572 0.51891 0.0
H156 H 0.57018 0.46247 0.91427 0.0
H157 H 0.62115 0.47613 0.95266 0.0
H158 H 0.60915 0.51442 0.91068 0.0
H159 H 0.61644 0.44398 0.95763 0.0
C160 C 0.60038 0.44148 0.9566 0.0
C161 C 0.5834 0.47186 0.91916 0.0
C162 C 0.58835 0.48895 0.91061 0.0
C163 C 0.59511 0.46701 0.93429 0.0
C164 C 0.61214 0.47933 0.94075 0.0
C165 C 0.61728 0.49643 0.93227 0.0
C166 C 0.60518 0.5013 0.91735 0.0
N167 N 0.58861 0.45043 0.94333 0.0
H168 H 0.71458 0.25064 0.28603 0.0
H169 H 0.742 0.21594 0.24594 0.0
H170 H 0.76423 0.21787 0.30179 0.0
H171 H 0.72624 0.23338 0.22646 0.0
C172 C 0.71306 0.23801 0.23243 0.0
C173 C 0.72609 0.24109 0.28262 0.0
C174 C 0.73963 0.23554 0.29624 0.0
C175 C 0.72694 0.23433 0.26451 0.0
C176 C 0.74132 0.22136 0.25987 0.0
C177 C 0.7548 0.21512 0.27325 0.0
C178 C 0.75389 0.22245 0.29139 0.0
N179 N 0.71256 0.24037 0.25152 0.0
H180 H 0.47119 0.06991 0.98367 0.0
H181 H 0.44082 0.01208 0.97814 0.0
H182 H 0.42537 0.05539 0.01848 0.0
H183 H 0.46827 0.00301 0.96689 0.0
C184 C 0.47432 0.01538 0.96021 0.0
C185 C 0.46026 0.05948 0.98822 0.0
C186 C 0.44858 0.06529 0.00222 0.0
C187 C 0.45812 0.04021 0.97991 0.0
C188 C 0.44342 0.02672 0.98507 0.0
C189 C 0.43141 0.03223 0.99882 0.0
C190 C 0.43418 0.05144 0.00743 0.0
N191 N 0.47082 0.03505 0.96628 0.0
Zn192 Zn 0.27681 0.8318 0.01489 0.0
Zn193 Zn 0.24546 0.85308 0.01264 0.0
O194 O 0.242 0.83763 0.03538 0.0
O195 O 0.26649 0.81801 0.03544 0.0
O196 O 0.22235 0.87053 0.01191 0.0
O197 O 0.29529 0.85651 0.01948 0.0
O198 O 0.26939 0.87392 0.01565 0.0
C199 C 0.25125 0.82395 0.04225 0.0
C200 C 0.25412 0.82445 0.98047 0.0
O201 O 0.24267 0.83642 0.98759 0.0
O202 O 0.26973 0.82036 0.98944 0.0
C203 C 0.20525 0.86545 0.01665 0.0
O204 O 0.20171 0.8476 0.02173 0.0
C205 C 0.2881 0.8731 0.01851 0.0
Zn206 Zn 0.09626 0.43637 0.29544 0.0
Zn207 Zn 0.11354 0.47174 0.28762 0.0
O208 O 0.09406 0.48027 0.3058 0.0
O209 O 0.07996 0.45194 0.31245 0.0
O210 O 0.12679 0.49722 0.28104 0.0
O211 O 0.12352 0.42854 0.30416 0.0
O212 O 0.13689 0.45723 0.29767 0.0
C213 C 0.08165 0.47067 0.3144 0.0
C214 C 0.08969 0.44363 0.25795 0.0
O215 O 0.09997 0.45967 0.26342 0.0
O216 O 0.08601 0.43086 0.26896 0.0
C217 C 0.13716 0.50901 0.29278 0.0
O218 O 0.13887 0.50464 0.30968 0.0
C219 C 0.1387 0.44037 0.30362 0.0
Zn220 Zn 0.84304 0.62018 0.964 0.0
Zn221 Zn 0.83299 0.64292 0.99227 0.0
O222 O 0.85577 0.62738 0.00285 0.0
O223 O 0.86576 0.6108 0.9791 0.0
O224 O 0.82599 0.65984 0.01399 0.0
O225 O 0.84715 0.64425 0.9504 0.0
O226 O 0.83991 0.66314 0.97397 0.0
C227 C 0.86748 0.61561 0.99594 0.0
C228 C 0.8031 0.61082 0.97297 0.0
O229 O 0.80723 0.62553 0.98466 0.0
O230 O 0.81603 0.60519 0.96274 0.0
C231 C 0.82142 0.65165 0.028 0.0
O232 O 0.82143 0.63235 0.02793 0.0
C233 C 0.845 0.66125 0.95784 0.0
Zn234 Zn 0.89247 0.02595 0.27598 0.0
Zn235 Zn 0.90723 0.02504 0.24346 0.0
O236 O 0.892 0.0506 0.24433 0.0
O237 O 0.88069 0.05145 0.27132 0.0
O238 O 0.91953 0.02419 0.21948 0.0
O239 O 0.91984 0.0273 0.28853 0.0
O240 O 0.9319 0.02496 0.2619 0.0
C241 C 0.88252 0.05904 0.25652 0.0
C242 C 0.87847 0.99103 0.25253 0.0
O243 O 0.88909 0.99925 0.24145 0.0
O244 O 0.87747 -0.00061 0.26822 0.0
C245 C 0.92984 0.03901 0.2149 0.0
O246 O 0.932 0.05536 0.22574 0.0
C247 C 0.93449 0.02624 0.27912 0.0
Zn248 Zn 0.34307 0.13994 0.45527 0.0
Zn249 Zn 0.33369 0.15595 0.48737 0.0
O250 O 0.35556 0.13767 0.49454 0.0
O251 O 0.36314 0.12452 0.46824 0.0
O252 O 0.32706 0.16885 0.51121 0.0
O253 O 0.35156 0.16683 0.44792 0.0
O254 O 0.34171 0.17992 0.47339 0.0
C255 C 0.36566 0.12608 0.48533 0.0
C256 C 0.3023 0.13041 0.46235 0.0
O257 O 0.30765 0.1405 0.4773 0.0
O258 O 0.3145 0.12838 0.45042 0.0
C259 C 0.32227 0.15878 0.52406 0.0
O260 O 0.32173 0.1394 0.5218 0.0
C261 C 0.34885 0.18188 0.45826 0.0
Zn262 Zn 0.39196 0.52062 0.78038 0.0
Zn263 Zn 0.40462 0.52245 0.74782 0.0
O264 O 0.38697 0.5464 0.74982 0.0
O265 O 0.37512 0.54299 0.77614 0.0
O266 O 0.41573 0.52299 0.72334 0.0
O267 O 0.41951 0.52613 0.79244 0.0
O268 O 0.43028 0.52417 0.7653 0.0
C269 C 0.37584 0.55204 0.76199 0.0
C270 C 0.38074 0.48516 0.75761 0.0
O271 O 0.38883 0.49509 0.74596 0.0
O272 O 0.38069 0.49257 0.77374 0.0
C273 C 0.42567 0.53806 0.71877 0.0
O274 O 0.42813 0.55415 0.72994 0.0
C275 C 0.43373 0.52609 0.78246 0.0
Zn276 Zn 0.77614 0.3378 0.51053 0.0
Zn277 Zn 0.74091 0.35326 0.50989 0.0
O278 O 0.7424 0.33837 0.53343 0.0
O279 O 0.77243 0.32783 0.53458 0.0
O280 O 0.71518 0.36674 0.51073 0.0
O281 O 0.79033 0.36462 0.50992 0.0
O282 O 0.7613 0.37727 0.50942 0.0
C283 C 0.75616 0.32962 0.54149 0.0
C284 C 0.74954 0.32317 0.47922 0.0
O285 O 0.73801 0.33532 0.48586 0.0
O286 O 0.76626 0.3211 0.48746 0.0
C287 C 0.71293 0.37767 0.52499 0.0
O288 O 0.72691 0.37904 0.53842 0.0
C289 C 0.78014 0.37946 0.50952 0.0
Zn290 Zn 0.59818 0.92942 0.78561 0.0
Zn291 Zn 0.61903 0.96487 0.78561 0.0
O292 O 0.60184 0.97005 0.80668 0.0
O293 O 0.58655 0.94065 0.80814 0.0
O294 O 0.6353 0.99047 0.78414 0.0
O295 O 0.62417 0.91626 0.78772 0.0
O296 O 0.64038 0.94568 0.79047 0.0
C297 C 0.58998 0.9586 0.81422 0.0
C298 C 0.59043 0.9479 0.75287 0.0
O299 O 0.60375 0.96066 0.76051 0.0
O300 O 0.5847 0.93318 0.76099 0.0
C301 C 0.62752 0.00631 0.78057 0.0
O302 O 0.60809 0.00631 0.77853 0.0
C303 C 0.64036 0.92697 0.79038 0.0
Zn304 Zn 0.01883 0.26665 0.8322 0.0
Zn305 Zn 0.02258 0.23613 0.85157 0.0
O306 O 0.04815 0.23748 0.83772 0.0
O307 O 0.04337 0.26141 0.82 0.0
O308 O 0.0264 0.21317 0.86693 0.0
O309 O 0.01968 0.28522 0.85463 0.0
O310 O 0.0205 0.25953 0.87071 0.0
C311 C 0.0538 0.24798 0.82536 0.0
C312 C 0.98592 0.23769 0.8246 0.0
O313 O 0.99596 0.22816 0.83577 0.0
O314 O 0.99253 0.25465 0.82104 0.0
C315 C 0.0146 0.20927 0.87883 0.0
O316 O -0.00053 0.22007 0.88076 0.0
C317 C 0.01969 0.27809 0.86981 0.0
Zn318 Zn 0.51922 0.76566 0.33403 0.0
Zn319 Zn 0.52394 0.73471 0.35364 0.0
O320 O 0.54871 0.7357 0.33875 0.0
O321 O 0.54363 0.76018 0.32168 0.0
O322 O 0.52784 0.71164 0.36886 0.0
O323 O 0.52078 0.78379 0.35706 0.0
O324 O 0.52356 0.75806 0.37293 0.0
C325 C 0.55401 0.74645 0.32643 0.0
C326 C 0.48658 0.73628 0.32727 0.0
O327 O 0.49663 0.7274 0.33893 0.0
O328 O 0.49308 0.75294 0.32286 0.0
C329 C 0.51586 0.70777 0.38063 0.0
O330 O 0.50073 0.71861 0.38236 0.0
C331 C 0.52239 0.77658 0.37222 0.0
Zn332 Zn 0.9784 0.80202 0.58527 0.0
Zn333 Zn 0.01208 0.79117 0.60211 0.0
O334 O 0.02187 0.8143 0.58792 0.0
O335 O 0.99422 0.82418 0.57529 0.0
O336 O 0.0368 0.78414 0.61625 0.0
O337 O 0.96656 0.80636 0.60922 0.0
O338 O 0.99446 0.79797 0.62257 0.0
C339 C 0.01295 0.826 0.57808 0.0
C340 C 0.98734 0.762 0.57442 0.0
O341 O 0.00215 0.7658 0.58615 0.0
O342 O 0.97533 0.77504 0.57139 0.0
C343 C 0.05227 0.77867 0.60935 0.0
O344 O 0.05264 0.77719 0.59169 0.0
C345 C 0.977 0.80351 0.62352 0.0
Zn346 Zn 0.4692 0.30434 0.0937 0.0
Zn347 Zn 0.50391 0.29554 0.11085 0.0
O348 O 0.51295 0.31595 0.09365 0.0
O349 O 0.48483 0.32412 0.08042 0.0
O350 O 0.52915 0.28943 0.1247 0.0
O351 O 0.45914 0.31236 0.11799 0.0
O352 O 0.48765 0.30543 0.13129 0.0
C353 C 0.50362 0.32599 0.08248 0.0
C354 C 0.4778 0.26343 0.08715 0.0
O355 O 0.49311 0.26883 0.09792 0.0
O356 O 0.46541 0.27578 0.08301 0.0
C357 C 0.54411 0.28342 0.11729 0.0
O358 O 0.54348 0.28112 0.09956 0.0
C359 C 0.47036 0.31138 0.13229 0.0
C360 C 0.22349 0.7553 0.82107 0.0
C361 C 0.24139 0.74914 0.81495 0.0
C362 C 0.22275 0.7633 0.83889 0.0
C363 C 0.24755 0.76273 0.88418 0.0
H364 H 0.22547 0.81282 0.89542 0.0
C365 C 0.26451 0.80477 0.95366 0.0
C366 C 0.24999 0.81551 0.96157 0.0
C367 C 0.26135 0.79633 0.93592 0.0
C368 C 0.23136 0.79864 0.89256 0.0
H369 H 0.27266 0.74719 0.82291 0.0
H370 H 0.27114 0.76046 0.85405 0.0
H371 H 0.22393 0.79876 0.86398 0.0
H372 H 0.22065 0.8258 0.95685 0.0
H373 H 0.21489 0.81059 0.92569 0.0
H374 H 0.25483 0.76229 0.91255 0.0
C375 C 0.25769 0.75901 0.845 0.0
C376 C 0.23055 0.79065 0.87455 0.0
C377 C 0.25851 0.7513 0.82715 0.0
C378 C 0.23212 0.81761 0.95117 0.0
C379 C 0.22888 0.80897 0.9333 0.0
C380 C 0.24814 0.77054 0.90213 0.0
C381 C 0.2398 0.76503 0.85108 0.0
C382 C 0.23907 0.77284 0.87018 0.0
C383 C 0.24346 0.79813 0.9255 0.0
C384 C 0.24055 0.78887 0.90655 0.0
H385 H 0.20991 0.7536 0.81221 0.0
H386 H 0.20874 0.76769 0.84326 0.0
H387 H 0.25387 0.74877 0.88123 0.0
H388 H 0.27858 0.803 0.9611 0.0
H389 H 0.27317 0.78861 0.9303 0.0
C390 C 0.95342 0.53486 0.40351 0.0
C391 C 0.95289 0.55548 0.40598 0.0
C392 C 0.9678 0.52651 0.39358 0.0
C393 C 0.00323 0.53648 0.3598 0.0
H394 H 0.02916 0.49295 0.3795 0.0
C395 C 0.06915 0.50206 0.32762 0.0
C396 C 0.06848 0.4813 0.32607 0.0
C397 C 0.05588 0.51193 0.33786 0.0
C398 C 0.02196 0.50498 0.37374 0.0
H399 H 0.96658 0.5835 0.39969 0.0
H400 H 0.99182 0.56888 0.38229 0.0
H401 H 0.00388 0.50853 0.39582 0.0
H402 H 0.05351 0.45467 0.3343 0.0
H403 H 0.03038 0.47183 0.35195 0.0
H404 H 0.02121 0.53277 0.33761 0.0
C405 C 0.98106 0.55919 0.38795 0.0
C406 C 0.00745 0.51389 0.38308 0.0
C407 C 0.96667 0.56756 0.39794 0.0
C408 C 0.0545 0.47067 0.33523 0.0
C409 C 0.04128 0.48052 0.34545 0.0
C410 C 0.01774 0.52752 0.35042 0.0
C411 C 0.98194 0.53858 0.3859 0.0
C412 C 0.99778 0.5296 0.37613 0.0
C413 C 0.04172 0.50125 0.3468 0.0
C414 C 0.02712 0.51154 0.3572 0.0
H415 H 0.94294 0.52512 0.40946 0.0
H416 H 0.96787 0.51057 0.39196 0.0
H417 H 0.99592 0.54845 0.35404 0.0
H418 H 0.07976 0.5107 0.32076 0.0
H419 H 0.05674 0.52792 0.33881 0.0
C420 C 0.84223 0.80399 0.86628 0.0
C421 C 0.84696 0.79889 0.84854 0.0
C422 C 0.84322 0.79028 0.87929 0.0
C423 C 0.85545 0.76062 0.90633 0.0
H424 H 0.83531 0.70703 0.88959 0.0
C425 C 0.85449 0.67624 0.92996 0.0
C426 C 0.84754 0.67862 0.94722 0.0
C427 C 0.85532 0.69192 0.91905 0.0
C428 C 0.84117 0.72188 0.89446 0.0
H429 H 0.85676 0.77541 0.83073 0.0
H430 H 0.85901 0.75183 0.85346 0.0
H431 H 0.83521 0.73247 0.86852 0.0
H432 H 0.83676 0.69965 0.96682 0.0
H433 H 0.83813 0.72719 0.94757 0.0
H434 H 0.86126 0.74983 0.9324 0.0
C435 C 0.85426 0.76632 0.85727 0.0
C436 C 0.84115 0.73646 0.88237 0.0
C437 C 0.85324 0.77997 0.84428 0.0
C438 C 0.84215 0.69733 0.95359 0.0
C439 C 0.84299 0.7131 0.9426 0.0
C440 C 0.85544 0.74595 0.91851 0.0
C441 C 0.84891 0.77116 0.87483 0.0
C442 C 0.84851 0.75596 0.88807 0.0
C443 C 0.84919 0.7104 0.92506 0.0
C444 C 0.84854 0.72637 0.91261 0.0
H445 H 0.83753 0.81851 0.87004 0.0
H446 H 0.83894 0.79445 0.89268 0.0
H447 H 0.86129 0.77549 0.91113 0.0
H448 H 0.85899 0.66212 0.92467 0.0
H449 H 0.86058 0.68948 0.90577 0.0
C450 C 0.06845 0.01901 0.39381 0.0
C451 C 0.07612 0.0006 0.39554 0.0
C452 C 0.05565 0.02199 0.3788 0.0
C453 C 0.02274 0.99437 0.34128 0.0
H454 H 0.02017 0.04677 0.3247 0.0
C455 C 0.96787 0.01266 0.28202 0.0
C456 C 0.95441 0.02572 0.28849 0.0
C457 C 0.98539 0.01003 0.29257 0.0
C458 C 0.02091 0.03203 0.3291 0.0
H459 H 0.07695 0.97099 0.38287 0.0
H460 H 0.05525 0.97633 0.35619 0.0
H461 H 0.04605 0.04077 0.34788 0.0
H462 H 0.94909 0.04708 0.31037 0.0
H463 H 0.98006 0.04308 0.32841 0.0
H464 H 0.99762 0.98574 0.32221 0.0
C465 C 0.05852 0.98835 0.36665 0.0
C466 C 0.03556 0.02859 0.34253 0.0
C467 C 0.07102 0.98527 0.38188 0.0
C468 C 0.95925 0.03691 0.30511 0.0
C469 C 0.97695 0.03469 0.31538 0.0
C470 C 0.00837 0.99773 0.32757 0.0
C471 C 0.05051 0.00673 0.36495 0.0
C472 C 0.03634 0.00985 0.34921 0.0
C473 C 0.9899 0.02086 0.30944 0.0
C474 C 0.00704 0.01669 0.3217 0.0
H475 H 0.07205 0.03099 0.40428 0.0
H476 H 0.04947 0.03618 0.37831 0.0
H477 H 0.02258 0.97981 0.34616 0.0
H478 H 0.96435 0.00375 0.2693 0.0
H479 H 0.9952 0.99925 0.28778 0.0
C480 C 0.2826 0.26025 0.65766 0.0
C481 C 0.27889 0.25033 0.67303 0.0
C482 C 0.28715 0.24984 0.6418 0.0
C483 C 0.2831 0.20026 0.61738 0.0
H484 H 0.32558 0.22254 0.59158 0.0
C485 C 0.31277 0.15784 0.55588 0.0
C486 C 0.3173 0.1688 0.54132 0.0
C487 C 0.30813 0.16736 0.57217 0.0
C488 C 0.31352 0.21621 0.59849 0.0
H489 H 0.27687 0.22161 0.68369 0.0
H490 H 0.28472 0.20338 0.65589 0.0
H491 H 0.31718 0.23983 0.61949 0.0
H492 H 0.32032 0.19836 0.53245 0.0
H493 H 0.31199 0.21489 0.56071 0.0
H494 H 0.27935 0.17669 0.59628 0.0
C495 C 0.28397 0.21923 0.65613 0.0
C496 C 0.30873 0.22612 0.61451 0.0
C497 C 0.27946 0.22967 0.67204 0.0
C498 C 0.31701 0.18947 0.54341 0.0
C499 C 0.31234 0.19897 0.55967 0.0
C500 C 0.28787 0.19035 0.6013 0.0
C501 C 0.28804 0.22923 0.64088 0.0
C502 C 0.29338 0.21834 0.62408 0.0
C503 C 0.30789 0.18805 0.57428 0.0
C504 C 0.30307 0.19828 0.59161 0.0
H505 H 0.28187 0.2761 0.65782 0.0
H506 H 0.28982 0.25794 0.63019 0.0
H507 H 0.27106 0.19398 0.62434 0.0
H508 H 0.3129 0.1419 0.55474 0.0
H509 H 0.305 0.15852 0.58321 0.0
C510 C 0.52039 0.54723 0.58518 0.0
C511 C 0.52261 0.52903 0.57554 0.0
C512 C 0.50936 0.54813 0.60027 0.0
C513 C 0.48913 0.51697 0.63436 0.0
H514 H 0.45684 0.56092 0.64333 0.0
C515 C 0.43523 0.51918 0.6908 0.0
C516 C 0.43536 0.53714 0.70156 0.0
C517 C 0.44523 0.51813 0.67507 0.0
C518 C 0.46591 0.54862 0.64109 0.0
H519 H 0.51463 0.49753 0.57403 0.0
H520 H 0.49518 0.49907 0.60017 0.0
H521 H 0.47544 0.55912 0.61664 0.0
H522 H 0.44584 0.56815 0.70398 0.0
H523 H 0.4632 0.56631 0.67653 0.0
H524 H 0.47945 0.50643 0.65878 0.0
C525 C 0.50232 0.51265 0.59634 0.0
C526 C 0.47663 0.5476 0.62579 0.0
C527 C 0.51345 0.51175 0.58131 0.0
C528 C 0.44542 0.55408 0.69602 0.0
C529 C 0.4553 0.55306 0.68023 0.0
C530 C 0.47831 0.51794 0.64959 0.0
C531 C 0.50015 0.53085 0.60607 0.0
C532 C 0.48846 0.5318 0.62225 0.0
C533 C 0.45548 0.53503 0.66964 0.0
C534 C 0.46663 0.53381 0.65319 0.0
H535 H 0.52749 0.56079 0.58125 0.0
H536 H 0.50835 0.56237 0.60758 0.0
H537 H 0.49832 0.50476 0.63229 0.0
H538 H 0.42763 0.50584 0.69464 0.0
H539 H 0.44488 0.50407 0.6671 0.0
C540 C 0.77436 0.25664 0.68447 0.0
C541 C 0.76154 0.24039 0.68749 0.0
C542 C 0.77161 0.26623 0.66869 0.0
C543 C 0.73641 0.27801 0.63285 0.0
H544 H 0.78203 0.28126 0.60476 0.0
C545 C 0.73587 0.31204 0.56308 0.0
C546 C 0.75382 0.32162 0.55911 0.0
C547 C 0.73501 0.30217 0.57889 0.0
C548 C 0.76921 0.28083 0.61254 0.0
H549 H 0.73528 0.22182 0.67673 0.0
H550 H 0.73019 0.23902 0.64913 0.0
H551 H 0.78367 0.26414 0.63215 0.0
H552 H 0.78443 0.32977 0.56905 0.0
H553 H 0.78275 0.31365 0.59679 0.0
H554 H 0.72217 0.29537 0.61356 0.0
C555 C 0.74248 0.24412 0.65898 0.0
C556 C 0.77015 0.27084 0.62816 0.0
C557 C 0.74546 0.23425 0.67468 0.0
C558 C 0.77048 0.3222 0.57163 0.0
C559 C 0.76955 0.31276 0.58748 0.0
C560 C 0.73556 0.28835 0.61728 0.0
C561 C 0.75575 0.25998 0.65575 0.0
C562 C 0.75388 0.26954 0.63859 0.0
C563 C 0.75204 0.302 0.59106 0.0
C564 C 0.75211 0.29017 0.60709 0.0
H565 H 0.78683 0.26169 0.69416 0.0
H566 H 0.78196 0.2785 0.66654 0.0
H567 H 0.72368 0.27718 0.64073 0.0
H568 H 0.72282 0.31136 0.55359 0.0
H569 H 0.72127 0.29405 0.58118 0.0
C570 C 0.53145 0.95831 0.59407 0.0
C571 C 0.51074 0.95766 0.59103 0.0
C572 C 0.54048 0.95853 0.61162 0.0
C573 C 0.52988 0.966 0.66017 0.0
H574 H 0.57855 0.93999 0.66794 0.0
C575 C 0.5624 0.94174 0.72872 0.0
C576 C 0.58158 0.95025 0.73448 0.0
C577 C 0.55399 0.94386 0.71131 0.0
C578 C 0.56503 0.9474 0.66588 0.0
H579 H 0.4831 0.95643 0.60362 0.0
H580 H 0.49865 0.95571 0.63421 0.0
H581 H 0.56318 0.94075 0.63729 0.0
H582 H 0.60706 0.96749 0.72654 0.0
H583 H 0.5925 0.97053 0.69574 0.0
H584 H 0.53139 0.97159 0.68903 0.0
C585 C 0.50812 0.95685 0.62327 0.0
C586 C 0.55624 0.94799 0.64833 0.0
C587 C 0.49914 0.95709 0.60574 0.0
C588 C 0.59223 0.96084 0.72247 0.0
C589 C 0.58397 0.96254 0.70489 0.0
C590 C 0.53844 0.96499 0.67773 0.0
C591 C 0.52894 0.95765 0.62649 0.0
C592 C 0.53852 0.9573 0.6452 0.0
C593 C 0.56478 0.95412 0.69925 0.0
C594 C 0.55606 0.95569 0.68069 0.0
H595 H 0.54064 0.95892 0.58286 0.0
H596 H 0.55652 0.95959 0.6135 0.0
H597 H 0.51653 0.97371 0.65838 0.0
H598 H 0.55383 0.93358 0.73773 0.0
H599 H 0.53917 0.9372 0.70715 0.0
C600 C 0.81892 0.21012 0.75345 0.0
C601 C 0.80917 0.1911 0.74991 0.0
C602 C 0.83848 0.21267 0.76116 0.0
C603 C 0.87588 0.19154 0.78971 0.0
H604 H 0.9129 0.22408 0.76557 0.0
C605 C 0.95886 0.21002 0.81724 0.0
C606 C 0.96626 0.22962 0.81589 0.0
C607 C 0.9402 0.20294 0.80867 0.0
C608 C 0.90275 0.2151 0.7726 0.0
H609 H 0.81256 0.15985 0.75204 0.0
H610 H 0.84657 0.16452 0.76616 0.0
H611 H 0.87904 0.2166 0.7521 0.0
H612 H 0.95957 0.25724 0.80488 0.0
H613 H 0.92736 0.2452 0.79056 0.0
H614 H 0.89939 0.19076 0.81065 0.0
C615 C 0.83894 0.17736 0.76277 0.0
C616 C 0.88338 0.21077 0.76482 0.0
C617 C 0.81942 0.17474 0.75477 0.0
C618 C 0.95454 0.24198 0.80604 0.0
C619 C 0.93602 0.23501 0.79767 0.0
C620 C 0.89528 0.19612 0.79768 0.0
C621 C 0.8487 0.19633 0.7658 0.0
C622 C 0.86965 0.1993 0.77345 0.0
C623 C 0.92864 0.21537 0.79866 0.0
C624 C 0.9088 0.20837 0.78941 0.0
H625 H 0.81142 0.22312 0.75036 0.0
H626 H 0.8456 0.2275 0.76362 0.0
H627 H 0.86553 0.18265 0.79662 0.0
H628 H 0.96751 0.20014 0.82475 0.0
H629 H 0.93497 0.18771 0.80967 0.0
C630 C 0.53008 0.88799 0.51139 0.0
C631 C 0.51284 0.8979 0.51337 0.0
C632 C 0.53098 0.87391 0.4968 0.0
C633 C 0.52607 0.83801 0.4693 0.0
H634 H 0.501 0.84905 0.42294 0.0
C635 C 0.52026 0.78202 0.40576 0.0
C636 C 0.52239 0.78977 0.38903 0.0
C637 C 0.51928 0.79464 0.42139 0.0
C638 C 0.50825 0.8458 0.43574 0.0
H639 H 0.48268 0.90032 0.50211 0.0
H640 H 0.48405 0.8755 0.47696 0.0
H641 H 0.49905 0.87198 0.44929 0.0
H642 H 0.52583 0.81687 0.37572 0.0
H643 H 0.5246 0.83876 0.40293 0.0
H644 H 0.53585 0.81213 0.4555 0.0
C645 C 0.49712 0.87893 0.48633 0.0
C646 C 0.50687 0.85883 0.45094 0.0
C647 C 0.49629 0.89311 0.50082 0.0
C648 C 0.52398 0.81038 0.38835 0.0
C649 C 0.52314 0.82296 0.40396 0.0
C650 C 0.52754 0.825 0.45403 0.0
C651 C 0.51456 0.86934 0.48398 0.0
C652 C 0.51578 0.85514 0.46792 0.0
C653 C 0.52052 0.81527 0.42064 0.0
C654 C 0.51873 0.8288 0.43704 0.0
H655 H 0.54303 0.89144 0.52092 0.0
H656 H 0.54472 0.86699 0.49533 0.0
H657 H 0.53292 0.83458 0.48219 0.0
H658 H 0.51894 0.7662 0.40673 0.0
H659 H 0.51707 0.7882 0.43398 0.0
C660 C 0.22048 0.25839 0.77238 0.0
C661 C 0.22038 0.25823 0.75351 0.0
C662 C 0.20274 0.2551 0.78046 0.0
C663 C 0.15038 0.26208 0.77347 0.0
H664 H 0.14217 0.22353 0.80829 0.0
C665 C 0.07383 0.24845 0.7989 0.0
C666 C 0.07256 0.24503 0.81711 0.0
C667 C 0.09189 0.24801 0.79125 0.0
C668 C 0.14428 0.23456 0.79879 0.0
H669 H 0.2017 0.25444 0.72825 0.0
H670 H 0.1707 0.24919 0.74239 0.0
H671 H 0.17401 0.22699 0.79506 0.0
H672 H 0.08904 0.23785 0.84151 0.0
H673 H 0.12101 0.23791 0.82838 0.0
H674 H 0.12127 0.2704 0.77753 0.0
C675 C 0.18452 0.25165 0.75091 0.0
C676 C 0.16249 0.23645 0.79117 0.0
C677 C 0.20226 0.25458 0.74283 0.0
C678 C 0.08963 0.24045 0.8274 0.0
C679 C 0.10792 0.24045 0.81983 0.0
C680 C 0.13239 0.26046 0.78128 0.0
C681 C 0.18457 0.25199 0.7698 0.0
C682 C 0.16559 0.25008 0.77829 0.0
C683 C 0.10936 0.24467 0.80173 0.0
C684 C 0.12892 0.2465 0.79387 0.0
H685 H 0.23428 0.26119 0.78089 0.0
H686 H 0.20315 0.25557 0.79506 0.0
H687 H 0.15253 0.27296 0.76382 0.0
H688 H 0.06082 0.25173 0.79058 0.0
H689 H 0.09216 0.25061 0.77712 0.0
C690 C 0.53204 0.58501 0.4927 0.0
C691 C 0.54924 0.5747 0.4922 0.0
C692 C 0.52817 0.59906 0.48038 0.0
C693 C 0.55305 0.63096 0.44948 0.0
H694 H 0.4995 0.63484 0.42828 0.0
C695 C 0.53597 0.68077 0.39165 0.0
C696 C 0.51925 0.69177 0.3927 0.0
C697 C 0.53941 0.66613 0.40346 0.0
C698 C 0.51451 0.63409 0.43421 0.0
H699 H 0.57575 0.57082 0.47838 0.0
H700 H 0.56895 0.59511 0.45676 0.0
H701 H 0.50586 0.61015 0.44959 0.0
H702 H 0.49295 0.69583 0.40691 0.0
H703 H 0.49902 0.67045 0.42751 0.0
H704 H 0.56171 0.65489 0.43411 0.0
C705 C 0.55857 0.59263 0.4668 0.0
C706 C 0.51816 0.61993 0.44645 0.0
C707 C 0.56242 0.57862 0.47911 0.0
C708 C 0.50596 0.68763 0.40569 0.0
C709 C 0.50938 0.67298 0.41746 0.0
C710 C 0.54941 0.64509 0.43723 0.0
C711 C 0.54143 0.60309 0.46729 0.0
C712 C 0.53748 0.61818 0.45426 0.0
C713 C 0.52621 0.66211 0.41657 0.0
C714 C 0.53009 0.64685 0.42944 0.0
H715 H 0.52159 0.58235 0.50265 0.0
H716 H 0.51495 0.60698 0.4813 0.0
H717 H 0.56806 0.63028 0.45544 0.0
H718 H 0.54649 0.68353 0.38179 0.0
H719 H 0.55238 0.65787 0.40224 0.0
C720 C 0.91513 0.81186 0.77469 0.0
C721 C 0.89589 0.81822 0.77471 0.0
C722 C 0.92454 0.81031 0.75865 0.0
C723 C 0.91362 0.80509 0.7091 0.0
H724 H 0.96896 0.82343 0.70829 0.0
C725 C 0.94939 0.8123 0.64234 0.0
C726 C 0.9686 0.80602 0.64124 0.0
C727 C 0.94108 0.81389 0.65889 0.0
C728 C 0.95356 0.81804 0.70833 0.0
H729 H 0.87143 0.82812 0.758 0.0
H730 H 0.88786 0.82557 0.73016 0.0
H731 H 0.95343 0.82581 0.73677 0.0
H732 H 0.99423 0.79673 0.65679 0.0
H733 H 0.97961 0.79934 0.68567 0.0
H734 H 0.91369 0.79729 0.68074 0.0
C735 C 0.89562 0.82153 0.74244 0.0
C736 C 0.94467 0.8194 0.72464 0.0
C737 C 0.88625 0.82312 0.75845 0.0
C738 C 0.97941 0.80165 0.65715 0.0
C739 C 0.97107 0.80323 0.67373 0.0
C740 C 0.9225 0.80371 0.69283 0.0
C741 C 0.91484 0.81503 0.74233 0.0
C742 C 0.92455 0.81308 0.72517 0.0
C743 C 0.95174 0.8092 0.67475 0.0
C744 C 0.94253 0.8103 0.69221 0.0
H745 H 0.92284 0.80795 0.78705 0.0
H746 H 0.93928 0.80509 0.75898 0.0
H747 H 0.8982 0.79973 0.70911 0.0
H748 H 0.94067 0.81589 0.63038 0.0
H749 H 0.92629 0.81887 0.65925 0.0
C750 C 0.0761 0.94086 0.47658 0.0
C751 C 0.09663 0.94352 0.47519 0.0
C752 C 0.06868 0.92922 0.48949 0.0
C753 C 0.08056 0.88885 0.51734 0.0
H754 H 0.03766 0.9069 0.54422 0.0
C755 C 0.01413 0.85422 0.5586 0.0
C756 C 0.0243 0.84124 0.56909 0.0
C757 C 0.02448 0.8678 0.54909 0.0
C758 C 0.04956 0.90158 0.53675 0.0
H759 H 0.12547 0.93613 0.48611 0.0
H760 H 0.11246 0.91558 0.50867 0.0
H761 H 0.05273 0.92824 0.52351 0.0
H762 H 0.05344 0.83271 0.57813 0.0
H763 H 0.0716 0.85668 0.56157 0.0
H764 H 0.07703 0.86196 0.53021 0.0
C765 C 0.10214 0.92247 0.49974 0.0
C766 C 0.05819 0.91382 0.5249 0.0
C767 C 0.10958 0.93425 0.48689 0.0
C768 C 0.04516 0.84248 0.57016 0.0
C769 C 0.05555 0.85613 0.56058 0.0
C770 C 0.07185 0.87654 0.52915 0.0
C771 C 0.08161 0.91991 0.50123 0.0
C772 C 0.07354 0.90746 0.51482 0.0
C773 C 0.0453 0.86884 0.54982 0.0
C774 C 0.05599 0.88263 0.53874 0.0
H775 H 0.06573 0.94783 0.46778 0.0
H776 H 0.05277 0.92731 0.49015 0.0
H777 H 0.09229 0.88349 0.50966 0.0
H778 H 0.99808 0.85369 0.55743 0.0
H779 H 0.01607 0.87711 0.54072 0.0
C780 C 0.18485 0.75255 0.72446 0.0
C781 C 0.20239 0.74573 0.7183 0.0
C782 C 0.16893 0.75567 0.71217 0.0
C783 C 0.15593 0.76427 0.66454 0.0
H784 H 0.10273 0.74725 0.67534 0.0
C785 C 0.08687 0.76785 0.61395 0.0
C786 C 0.0697 0.77424 0.62124 0.0
C787 C 0.10328 0.76379 0.62531 0.0
C788 C 0.11746 0.75228 0.6722 0.0
H789 H 0.21712 0.73694 0.69456 0.0
H790 H 0.18924 0.74237 0.67301 0.0
H791 H 0.13098 0.74153 0.69606 0.0
H792 H 0.05638 0.78147 0.64624 0.0
H793 H 0.08497 0.77465 0.66595 0.0
H794 H 0.14235 0.77519 0.64073 0.0
C795 C 0.18785 0.74545 0.68732 0.0
C796 C 0.13366 0.74899 0.68408 0.0
C797 C 0.20377 0.74226 0.69963 0.0
C798 C 0.06931 0.77648 0.64013 0.0
C799 C 0.08569 0.77245 0.65146 0.0
C800 C 0.13969 0.76761 0.65265 0.0
C801 C 0.1702 0.75207 0.69346 0.0
C802 C 0.15307 0.75509 0.68048 0.0
C803 C 0.10287 0.76602 0.64422 0.0
C804 C 0.12025 0.7618 0.65642 0.0
H805 H 0.18331 0.75539 0.73877 0.0
H806 H 0.15565 0.76105 0.71733 0.0
H807 H 0.17068 0.76932 0.66147 0.0
H808 H 0.08764 0.76593 0.59946 0.0
H809 H 0.1162 0.75867 0.61928 0.0
C810 C 0.93704 0.59587 0.50131 0.0
C811 C 0.92904 0.59703 0.48348 0.0
C812 C 0.94571 0.61282 0.51163 0.0
C813 C 0.95318 0.6524 0.53393 0.0
H814 H 0.97998 0.69374 0.5099 0.0
C815 C 0.97254 0.74039 0.54742 0.0
C816 C 0.98388 0.74239 0.56419 0.0
C817 C 0.96845 0.7219 0.53789 0.0
C818 C 0.9726 0.68227 0.51677 0.0
H819 H 0.92329 0.61675 0.46259 0.0
H820 H 0.93769 0.64639 0.48068 0.0
H821 H 0.96805 0.66261 0.49276 0.0
H822 H -6e-05 0.72662 0.58412 0.0
H823 H 0.99224 0.69397 0.56754 0.0
H824 H 0.95802 0.67223 0.55801 0.0
C825 C 0.93798 0.63239 0.48659 0.0
C826 C 0.9656 0.66449 0.50695 0.0
C827 C 0.92958 0.61544 0.47624 0.0
C828 C 0.99121 0.7255 0.57119 0.0
C829 C 0.98676 0.70687 0.56178 0.0
C830 C 0.96047 0.67011 0.54381 0.0
C831 C 0.94633 0.63131 0.50438 0.0
C832 C 0.95535 0.64949 0.51528 0.0
C833 C 0.97533 0.70495 0.54506 0.0
C834 C 0.96984 0.68534 0.53521 0.0
H835 H 0.93697 0.58179 0.50713 0.0
H836 H 0.95219 0.61135 0.52517 0.0
H837 H 0.94521 0.64131 0.54079 0.0
H838 H 0.96676 0.75315 0.54165 0.0
H839 H 0.95947 0.72077 0.52509 0.0
C840 C 0.79212 0.82987 0.19768 0.0
C841 C 0.78715 0.81783 0.21141 0.0
C842 C 0.80188 0.84862 0.20194 0.0
C843 C 0.81036 0.88902 0.23784 0.0
H844 H 0.85612 0.90478 0.21283 0.0
C845 C 0.85929 0.96069 0.26061 0.0
C846 C 0.86758 0.97149 0.24737 0.0
C847 C 0.84934 0.9421 0.25598 0.0
C848 C 0.84318 0.90078 0.21975 0.0
H849 H 0.78875 0.81624 0.24047 0.0
H850 H 0.80536 0.84922 0.24787 0.0
H851 H 0.83897 0.87212 0.20525 0.0
H852 H 0.87166 0.97128 0.2188 0.0
H853 H 0.85376 0.93906 0.21059 0.0
H854 H 0.8142 0.91771 0.2521 0.0
C855 C 0.80163 0.84404 0.2338 0.0
C856 C 0.83342 0.88201 0.21545 0.0
C857 C 0.79206 0.82517 0.22954 0.0
C858 C 0.86553 0.9633 0.22934 0.0
C859 C 0.85536 0.94476 0.22466 0.0
C860 C 0.81997 0.90786 0.24201 0.0
C861 C 0.8067 0.85592 0.22003 0.0
C862 C 0.81697 0.8759 0.22451 0.0
C863 C 0.84718 0.93387 0.23794 0.0
C864 C 0.8366 0.91397 0.23311 0.0
H865 H 0.78821 0.82494 0.18357 0.0
H866 H 0.80535 0.85757 0.19106 0.0
H867 H 0.79754 0.88481 0.24486 0.0
H868 H 0.86074 0.96647 0.27467 0.0
H869 H 0.84361 0.93406 0.26665 0.0
C870 C 0.78855 0.20178 0.27755 0.0
C871 C 0.76952 0.20068 0.2683 0.0
C872 C 0.802 0.18781 0.27334 0.0
C873 C 0.80393 0.13737 0.25012 0.0
H874 H 0.86066 0.15057 0.25845 0.0
C875 C 0.86227 0.0804 0.23754 0.0
C876 C 0.87332 0.07769 0.2538 0.0
C877 C 0.851 0.09682 0.23631 0.0
C878 C 0.84485 0.14676 0.2559 0.0
H879 H 0.75 0.18383 0.2471 0.0
H880 H 0.77377 0.16046 0.23901 0.0
H881 H 0.83793 0.17661 0.26171 0.0
H882 H 0.88229 0.09038 0.28108 0.0
H883 H 0.86331 0.11938 0.27867 0.0
H884 H 0.81109 0.1075 0.24412 0.0
C885 C 0.77816 0.17173 0.24995 0.0
C886 C 0.83176 0.16161 0.25797 0.0
C887 C 0.76456 0.18545 0.25441 0.0
C888 C 0.87387 0.09216 0.26839 0.0
C889 C 0.86309 0.10876 0.26701 0.0
C890 C 0.81705 0.12262 0.24768 0.0
C891 C 0.79701 0.17251 0.2595 0.0
C892 C 0.81107 0.15706 0.25557 0.0
C893 C 0.85114 0.11098 0.25115 0.0
C894 C 0.83759 0.12711 0.25094 0.0
H895 H 0.79313 0.21344 0.2881 0.0
H896 H 0.81619 0.18884 0.28126 0.0
H897 H 0.78818 0.13307 0.24842 0.0
H898 H 0.86151 0.06934 0.22616 0.0
H899 H 0.84184 0.09825 0.22395 0.0
C900 C 0.42042 0.99836 0.00676 0.0
C901 C 0.41597 0.01781 0.00412 0.0
C902 C 0.40574 0.98449 0.01097 0.0
C903 C 0.3521 0.97275 0.00553 0.0
H904 H 0.36338 0.93536 0.04091 0.0
C905 C 0.29426 0.90997 0.01855 0.0
C906 C 0.30164 0.89132 0.01998 0.0
C907 C 0.30728 0.92693 0.01893 0.0
C908 C 0.36002 0.94561 0.0309 0.0
H909 H 0.39271 0.03807 0.00399 0.0
H910 H 0.36692 0.01371 0.01131 0.0
H911 H 0.38805 0.96225 0.03725 0.0
H912 H 0.32852 0.87596 0.02325 0.0
H913 H 0.35105 0.90528 0.02359 0.0
H914 H 0.32437 0.95576 0.99871 0.0
C915 C 0.3818 0.00924 0.0101 0.0
C916 C 0.37414 0.96103 0.02885 0.0
C917 C 0.39657 0.0232 0.00605 0.0
C918 C 0.32228 0.89007 0.02216 0.0
C919 C 0.33525 0.90696 0.02249 0.0
C920 C 0.33801 0.95724 0.0075 0.0
C921 C 0.38622 0.98972 0.01252 0.0
C922 C 0.37048 0.97455 0.01591 0.0
C923 C 0.32794 0.92558 0.02073 0.0
C924 C 0.34196 0.94325 0.01997 0.0
H925 H 0.43529 0.99384 0.00549 0.0
H926 H 0.40955 0.9695 0.01257 0.0
H927 H 0.34894 0.98285 0.99533 0.0
H928 H 0.27843 0.91147 0.01692 0.0
H929 H 0.30115 0.94108 0.01774 0.0
C930 C 0.30495 0.38706 0.34554 0.0
C931 C 0.31201 0.37614 0.33089 0.0
C932 C 0.28662 0.39525 0.34358 0.0
C933 C 0.239 0.38795 0.31577 0.0
H934 H 0.23038 0.44075 0.33558 0.0
C935 C 0.17574 0.44686 0.3081 0.0
C936 C 0.15864 0.43423 0.30921 0.0
C937 C 0.19461 0.44051 0.31225 0.0
C938 C 0.2326 0.426 0.32994 0.0
H939 H 0.30542 0.36541 0.30268 0.0
H940 H 0.27373 0.37994 0.2992 0.0
H941 H 0.26348 0.42865 0.33936 0.0
H942 H 0.14798 0.40526 0.31622 0.0
H943 H 0.18084 0.39427 0.32354 0.0
H944 H 0.20834 0.38532 0.30607 0.0
C945 C 0.28226 0.38205 0.31224 0.0
C946 C 0.25149 0.41902 0.33223 0.0
C947 C 0.30055 0.37394 0.31418 0.0
C948 C 0.16082 0.41533 0.31508 0.0
C949 C 0.17966 0.40898 0.3192 0.0
C950 C 0.22017 0.39486 0.31356 0.0
C951 C 0.27495 0.39254 0.32696 0.0
C952 C 0.2549 0.39997 0.32503 0.0
C953 C 0.19677 0.42138 0.31757 0.0
C954 C 0.21675 0.41399 0.32054 0.0
H955 H 0.31352 0.38912 0.35856 0.0
H956 H 0.28133 0.4032 0.35519 0.0
H957 H 0.2411 0.3731 0.31027 0.0
H958 H 0.1746 0.46154 0.30366 0.0
H959 H 0.20751 0.45035 0.31073 0.0
C960 C 0.15529 0.01376 0.44235 0.0
C961 C 0.13729 0.02132 0.43664 0.0
C962 C 0.17262 0.02626 0.446 0.0
C963 C 0.20858 0.05325 0.4404 0.0
H964 H 0.20881 0.10567 0.46498 0.0
C965 C 0.27614 0.10933 0.44254 0.0
C966 C 0.28221 0.12006 0.45921 0.0
C967 C 0.25788 0.09824 0.43997 0.0
C968 C 0.209 0.09103 0.45819 0.0
H969 H 0.12325 0.04805 0.43092 0.0
H970 H 0.1536 0.06981 0.43693 0.0
H971 H 0.17819 0.08403 0.46111 0.0
H972 H 0.27355 0.12802 0.48609 0.0
H973 H 0.2417 0.10847 0.48162 0.0
H974 H 0.23939 0.06003 0.43773 0.0
C975 C 0.15428 0.05424 0.43871 0.0
C976 C 0.19142 0.07871 0.45582 0.0
C977 C 0.13694 0.04173 0.43506 0.0
C978 C 0.26932 0.11993 0.47307 0.0
C979 C 0.25103 0.10879 0.4705 0.0
C980 C 0.2261 0.06555 0.44274 0.0
C981 C 0.17237 0.04661 0.44402 0.0
C982 C 0.19103 0.05967 0.44689 0.0
C983 C 0.24526 0.09756 0.45401 0.0
C984 C 0.22651 0.0846 0.4516 0.0
H985 H 0.1561 0.99809 0.44358 0.0
H986 H 0.18626 0.01996 0.4503 0.0
H987 H 0.20874 0.03877 0.43326 0.0
H988 H 0.28562 0.10922 0.43152 0.0
H989 H 0.2537 0.09007 0.42699 0.0
C990 C 0.74881 0.13566 0.74449 0.0
C991 C 0.74178 0.15416 0.74149 0.0
C992 C 0.73598 0.12015 0.74883 0.0
C993 C 0.68725 0.10923 0.76646 0.0
H994 H 0.6939 0.05606 0.7463 0.0
C995 C 0.63191 0.04174 0.77359 0.0
C996 C 0.64027 0.02406 0.77742 0.0
C997 C 0.64393 0.0581 0.76958 0.0
C998 C 0.69197 0.0708 0.75218 0.0
H999 H 0.71567 0.17083 0.7408 0.0
H1000 H 0.69313 0.14354 0.7479 0.0
H1001 H 0.71525 0.08359 0.73812 0.0
H1002 H 0.66788 0.00986 0.78045 0.0
H1003 H 0.68876 0.03835 0.77349 0.0
H1004 H 0.66379 0.09631 0.78039 0.0
C1005 C 0.70867 0.14115 0.74715 0.0
C1006 C 0.70423 0.08659 0.74751 0.0
C1007 C 0.72154 0.15672 0.74286 0.0
C1008 C 0.66093 0.02322 0.7775 0.0
C1009 C 0.6729 0.03951 0.7734 0.0
C1010 C 0.6749 0.09341 0.77106 0.0
C1011 C 0.71574 0.12266 0.75017 0.0
C1012 C 0.70216 0.10599 0.75471 0.0
C1013 C 0.66453 0.05706 0.76921 0.0
C1014 C 0.67725 0.074 0.76409 0.0
H1015 H 0.76425 0.13308 0.74332 0.0
H1016 H 0.74202 0.10621 0.7513 0.0
H1017 H 0.6854 0.12394 0.77243 0.0
H1018 H 0.61605 0.04288 0.77342 0.0
H1019 H 0.63704 0.07139 0.76631 0.0
C1020 C 0.45557 0.99786 0.55683 0.0
C1021 C 0.46841 0.98926 0.54506 0.0
C1022 C 0.44458 0.01346 0.5517 0.0
C1023 C 0.42479 0.03537 0.51115 0.0
H1024 H 0.42083 0.0823 0.54338 0.0
C1025 C 0.39309 0.10364 0.48425 0.0
C1026 C 0.3794 0.11325 0.49432 0.0
C1027 C 0.40442 0.08956 0.49174 0.0
C1028 C 0.42163 0.06919 0.5343 0.0
H1029 H 0.48025 0.99085 0.51897 0.0
H1030 H 0.46095 0.01776 0.50999 0.0
H1031 H 0.43927 0.05519 0.55406 0.0
H1032 H 0.36752 0.11629 0.52048 0.0
H1033 H 0.38724 0.09134 0.53357 0.0
H1034 H 0.40717 0.0491 0.49143 0.0
C1035 C 0.45914 0.01225 0.52305 0.0
C1036 C 0.43217 0.05369 0.54041 0.0
C1037 C 0.47016 0.99678 0.52818 0.0
C1038 C 0.37797 0.10914 0.51239 0.0
C1039 C 0.38927 0.09487 0.51989 0.0
C1040 C 0.41425 0.05075 0.50509 0.0
C1041 C 0.44614 0.02069 0.53468 0.0
C1042 C 0.43409 0.03675 0.52878 0.0
C1043 C 0.40223 0.08457 0.50945 0.0
C1044 C 0.4128 0.06799 0.51647 0.0
H1045 H 0.45375 0.99231 0.56986 0.0
H1046 H 0.43456 0.01957 0.56088 0.0
H1047 H 0.42563 0.02232 0.502 0.0
H1048 H 0.39477 0.10667 0.47038 0.0
H1049 H 0.41466 0.08229 0.4835 0.0
C1050 C 0.57508 0.48675 0.52311 0.0
C1051 C 0.57358 0.49699 0.54004 0.0
C1052 C 0.58893 0.47261 0.52105 0.0
C1053 C 0.62115 0.44101 0.54724 0.0
H1054 H 0.65023 0.43891 0.50448 0.0
C1055 C 0.69255 0.40018 0.5427 0.0
C1056 C 0.69542 0.38945 0.52632 0.0
C1057 C 0.67661 0.41202 0.54396 0.0
C1058 C 0.64205 0.43911 0.51639 0.0
H1059 H 0.58564 0.50048 0.56805 0.0
H1060 H 0.60987 0.476 0.56447 0.0
H1061 H 0.62461 0.46208 0.50749 0.0
H1062 H 0.68357 0.38259 0.49843 0.0
H1063 H 0.65567 0.40332 0.50064 0.0
H1064 H 0.63887 0.41829 0.55626 0.0
C1065 C 0.60009 0.47858 0.55282 0.0
C1066 C 0.62733 0.4524 0.51812 0.0
C1067 C 0.5862 0.49266 0.55488 0.0
C1068 C 0.68179 0.39066 0.51125 0.0
C1069 C 0.66588 0.40263 0.51249 0.0
C1070 C 0.63591 0.42779 0.54553 0.0
C1071 C 0.60169 0.46838 0.53587 0.0
C1072 C 0.6168 0.45365 0.53365 0.0
C1073 C 0.66315 0.41352 0.52885 0.0
C1074 C 0.64667 0.4268 0.53016 0.0
H1075 H 0.56539 0.48953 0.51145 0.0
H1076 H 0.5895 0.46485 0.50786 0.0
H1077 H 0.6131 0.44125 0.55921 0.0
H1078 H 0.70274 0.39962 0.55458 0.0
H1079 H 0.67511 0.42038 0.5567 0.0
C1080 C 0.73384 0.26295 0.31961 0.0
C1081 C 0.73883 0.24346 0.31545 0.0
C1082 C 0.73304 0.27043 0.33755 0.0
C1083 C 0.75396 0.26536 0.3832 0.0
H1084 H 0.70899 0.29239 0.3987 0.0
C1085 C 0.75212 0.29381 0.45755 0.0
C1086 C 0.74428 0.31206 0.4614 0.0
C1087 C 0.7494 0.28424 0.44015 0.0
C1088 C 0.72179 0.28513 0.39459 0.0
H1089 H 0.74656 0.21654 0.3272 0.0
H1090 H 0.74595 0.22996 0.3585 0.0
H1091 H 0.70859 0.27839 0.36742 0.0
H1092 H 0.72695 0.33439 0.45019 0.0
H1093 H 0.72284 0.31814 0.41954 0.0
H1094 H 0.76767 0.27271 0.40989 0.0
C1095 C 0.74258 0.23934 0.34775 0.0
C1096 C 0.72149 0.27702 0.37668 0.0
C1097 C 0.74306 0.23172 0.3298 0.0
C1098 C 0.73304 0.32025 0.44762 0.0
C1099 C 0.73066 0.31086 0.43004 0.0
C1100 C 0.75443 0.27373 0.40099 0.0
C1101 C 0.73754 0.25876 0.35179 0.0
C1102 C 0.73756 0.26703 0.37084 0.0
C1103 C 0.73918 0.2929 0.42598 0.0
C1104 C 0.73833 0.28369 0.407 0.0
H1105 H 0.73088 0.27262 0.30902 0.0
H1106 H 0.72938 0.28555 0.3403 0.0
H1107 H 0.76668 0.258 0.37898 0.0
H1108 H 0.76065 0.28703 0.46798 0.0
H1109 H 0.75563 0.27015 0.43779 0.0
C1110 C 0.49705 0.02664 0.93733 0.0
C1111 C 0.48748 0.01131 0.9457 0.0
C1112 C 0.5096 0.02235 0.92376 0.0
C1113 C 0.5386 0.98241 0.90535 0.0
H1114 H 0.53638 0.01066 0.86213 0.0
C1115 C 0.56929 0.95276 0.83984 0.0
C1116 C 0.58001 0.96607 0.83007 0.0
C1117 C 0.55956 0.95957 0.85463 0.0
C1118 C 0.53737 0.00283 0.87424 0.0
H1119 H 0.48329 0.97959 0.94641 0.0
H1120 H 0.50488 0.97203 0.92259 0.0
H1121 H 0.5162 0.02015 0.88666 0.0
H1122 H 0.5889 0.99703 0.82824 0.0
H1123 H 0.57169 0.00896 0.85415 0.0
H1124 H 0.5594 0.96481 0.89277 0.0
C1125 C 0.50307 0.98737 0.92667 0.0
C1126 C 0.52582 0.00827 0.88829 0.0
C1127 C 0.49058 0.99167 0.94022 0.0
C1128 C 0.5808 0.98639 0.83549 0.0
C1129 C 0.57088 0.99324 0.85026 0.0
C1130 C 0.55005 0.97694 0.8913 0.0
C1131 C 0.5128 0.00265 0.91832 0.0
C1132 C 0.52606 0.99789 0.90389 0.0
C1133 C 0.56018 0.97987 0.85998 0.0
C1134 C 0.54932 0.98688 0.87547 0.0
H1135 H 0.49496 0.04195 0.94129 0.0
H1136 H 0.517 0.03446 0.91771 0.0
H1137 H 0.5395 0.9744 0.91735 0.0
H1138 H 0.56836 0.93701 0.83606 0.0
H1139 H 0.55122 0.94893 0.86169 0.0
C1140 C 0.37216 0.32508 0.37045 0.0
C1141 C 0.35314 0.3299 0.36399 0.0
C1142 C 0.37437 0.31144 0.38341 0.0
C1143 C 0.35212 0.28869 0.41991 0.0
H1144 H 0.3732 0.24001 0.40242 0.0
C1145 C 0.33996 0.21638 0.45451 0.0
C1146 C 0.35313 0.20162 0.45207 0.0
C1147 C 0.34245 0.23397 0.44615 0.0
C1148 C 0.36778 0.25361 0.40788 0.0
H1149 H 0.32157 0.32405 0.36655 0.0
H1150 H 0.32567 0.30119 0.38978 0.0
H1151 H 0.3735 0.26782 0.38397 0.0
H1152 H 0.38004 0.19409 0.44031 0.0
H1153 H 0.38532 0.22522 0.42685 0.0
H1154 H 0.34669 0.27482 0.44397 0.0
C1155 C 0.33877 0.30799 0.38466 0.0
C1156 C 0.36785 0.26951 0.39716 0.0
C1157 C 0.33649 0.32123 0.3714 0.0
C1158 C 0.36954 0.20521 0.44218 0.0
C1159 C 0.3724 0.22299 0.4343 0.0
C1160 C 0.35248 0.27294 0.43088 0.0
C1161 C 0.35767 0.30274 0.39053 0.0
C1162 C 0.35968 0.28701 0.40293 0.0
C1163 C 0.3585 0.23736 0.43557 0.0
C1164 C 0.35993 0.25498 0.42486 0.0
H1165 H 0.38537 0.33168 0.36538 0.0
H1166 H 0.38911 0.30757 0.38781 0.0
H1167 H 0.34579 0.30213 0.42461 0.0
H1168 H 0.32709 0.21386 0.46199 0.0
H1169 H 0.33124 0.24443 0.44734 0.0
C1170 C 0.56781 0.51249 0.89483 0.0
C1171 C 0.57579 0.49404 0.89475 0.0
C1172 C 0.55539 0.51709 0.88011 0.0
C1173 C 0.52397 0.49298 0.83993 0.0
H1174 H 0.51956 0.54735 0.82909 0.0
C1175 C 0.46804 0.51468 0.78363 0.0
C1176 C 0.45413 0.52655 0.79109 0.0
C1177 C 0.48594 0.51215 0.79363 0.0
C1178 C 0.52081 0.53209 0.83188 0.0
H1179 H 0.5778 0.46621 0.87912 0.0
H1180 H 0.55689 0.47447 0.853 0.0
H1181 H 0.54543 0.53958 0.85156 0.0
H1182 H 0.44849 0.54619 0.81414 0.0
H1183 H 0.48005 0.54237 0.83128 0.0
H1184 H 0.49938 0.48562 0.82005 0.0
C1185 C 0.55951 0.48519 0.86463 0.0
C1186 C 0.53547 0.52761 0.8449 0.0
C1187 C 0.57159 0.48045 0.87953 0.0
C1188 C 0.45898 0.53694 0.8081 0.0
C1189 C 0.47703 0.53481 0.81787 0.0
C1190 C 0.50961 0.49743 0.82666 0.0
C1191 C 0.551 0.50349 0.86479 0.0
C1192 C 0.5369 0.50805 0.84948 0.0
C1193 C 0.49037 0.5219 0.81099 0.0
C1194 C 0.5076 0.51706 0.82284 0.0
H1195 H 0.57076 0.52315 0.9065 0.0
H1196 H 0.54885 0.53114 0.88101 0.0
H1197 H 0.52427 0.47779 0.8432 0.0
H1198 H 0.46457 0.50639 0.77059 0.0
H1199 H 0.49603 0.50211 0.78808 0.0
C1200 C 0.77674 0.73491 0.16994 0.0
C1201 C 0.77588 0.75548 0.16991 0.0
C1202 C 0.78145 0.72366 0.15456 0.0
C1203 C 0.78308 0.72471 0.10506 0.0
H1204 H 0.81827 0.68271 0.11054 0.0
C1205 C 0.81549 0.6842 0.04419 0.0
C1206 C 0.81614 0.66361 0.04417 0.0
C1207 C 0.81046 0.69542 0.05947 0.0
C1208 C 0.80826 0.69424 0.10878 0.0
H1209 H 0.77896 0.78027 0.15352 0.0
H1210 H 0.78758 0.76072 0.12684 0.0
H1211 H 0.80961 0.70216 0.13726 0.0
H1212 H 0.81196 0.63866 0.06023 0.0
H1213 H 0.8031 0.6582 0.0868 0.0
H1214 H 0.7818 0.71682 0.07656 0.0
C1215 C 0.78443 0.75325 0.13871 0.0
C1216 C 0.80327 0.70539 0.12411 0.0
C1217 C 0.77972 0.76449 0.15408 0.0
C1218 C 0.81166 0.6545 0.05978 0.0
C1219 C 0.80668 0.66571 0.07507 0.0
C1220 C 0.78809 0.71358 0.08973 0.0
C1221 C 0.7854 0.73269 0.13876 0.0
C1222 C 0.79061 0.72076 0.12244 0.0
C1223 C 0.80602 0.6863 0.07511 0.0
C1224 C 0.80073 0.6982 0.0914 0.0
H1225 H 0.77404 0.72752 0.18195 0.0
H1226 H 0.78184 0.70783 0.15501 0.0
H1227 H 0.77305 0.73623 0.10329 0.0
H1228 H 0.81889 0.6917 0.03239 0.0
H1229 H 0.81031 0.71128 0.05913 0.0
C1230 C 0.0252 0.04681 0.08178 0.0
C1231 C 0.02724 0.02865 0.072 0.0
C1232 C 0.01433 0.04768 0.09696 0.0
C1233 C 0.99401 0.01661 0.13105 0.0
H1234 H 0.96174 0.06063 0.13974 0.0
C1235 C 0.93991 0.01957 0.18743 0.0
C1236 C 0.93996 0.03768 0.19794 0.0
C1237 C 0.95008 0.01825 0.1718 0.0
C1238 C 0.9708 0.04832 0.13759 0.0
H1239 H 0.01924 0.99714 0.07045 0.0
H1240 H 7e-05 0.99863 0.0968 0.0
H1241 H 0.98035 0.05865 0.11309 0.0
H1242 H 0.95058 0.06866 0.20008 0.0
H1243 H 0.96823 0.06634 0.17284 0.0
H1244 H 0.9843 0.00625 0.15552 0.0
C1245 C 0.0072 0.01221 0.09295 0.0
C1246 C 0.98153 0.0472 0.12231 0.0
C1247 C 0.01817 0.01135 0.07781 0.0
C1248 C 0.9502 0.05447 0.19231 0.0
C1249 C 0.96025 0.05317 0.17663 0.0
C1250 C 0.98319 0.01769 0.14627 0.0
C1251 C 0.0051 0.0304 0.10273 0.0
C1252 C 0.99338 0.03138 0.11887 0.0
C1253 C 0.96042 0.03503 0.16623 0.0
C1254 C 0.97153 0.03361 0.14978 0.0
H1255 H 0.03226 0.06038 0.07783 0.0
H1256 H 0.0134 0.0619 0.10433 0.0
H1257 H 0.00319 0.00438 0.12902 0.0
H1258 H 0.93217 0.00634 0.19136 0.0
H1259 H 0.94973 0.00409 0.16399 0.0
C1260 C 0.2505 0.7351 0.17578 0.0
C1261 C 0.25555 0.7462 0.1924 0.0
C1262 C 0.24642 0.74452 0.16005 0.0
C1263 C 0.2538 0.7935 0.14136 0.0
H1264 H 0.21894 0.76723 0.10148 0.0
C1265 C 0.23862 0.82744 0.07297 0.0
C1266 C 0.24518 0.81546 0.05876 0.0
C1267 C 0.23615 0.81991 0.0897 0.0
C1268 C 0.22857 0.77479 0.11259 0.0
H1269 H 0.25987 0.77573 0.2058 0.0
H1270 H 0.25185 0.79228 0.17855 0.0
H1271 H 0.22166 0.75267 0.13038 0.0
H1272 H 0.2531 0.78604 0.05041 0.0
H1273 H 0.248 0.77273 0.07932 0.0
H1274 H 0.26043 0.81572 0.12342 0.0
C1275 C 0.25163 0.77632 0.17742 0.0
C1276 C 0.23034 0.76637 0.12911 0.0
C1277 C 0.25609 0.76687 0.19309 0.0
C1278 C 0.24804 0.79558 0.06117 0.0
C1279 C 0.24507 0.78795 0.07767 0.0
C1280 C 0.25169 0.8021 0.12495 0.0
C1281 C 0.24694 0.7653 0.1606 0.0
C1282 C 0.2434 0.77532 0.14361 0.0
C1283 C 0.23964 0.80017 0.09223 0.0
C1284 C 0.23942 0.79259 0.1103 0.0
H1285 H 0.25017 0.71912 0.1748 0.0
H1286 H 0.24336 0.73545 0.14739 0.0
H1287 H 0.26424 0.80077 0.152 0.0
H1288 H 0.23647 0.84285 0.07148 0.0
H1289 H 0.23195 0.82959 0.10077 0.0
C1290 C 0.01955 0.4297 0.09939 0.0
C1291 C 0.00066 0.43701 0.09826 0.0
C1292 C 0.02965 0.42787 0.1162 0.0
C1293 C 0.0525 0.43888 0.15278 0.0
H1294 H 0.02474 0.422 0.19308 0.0
C1295 C 0.08478 0.45475 0.22679 0.0
C1296 C 0.08132 0.44033 0.23889 0.0
C1297 C 0.07589 0.45228 0.20911 0.0
C1298 C 0.03278 0.42651 0.18192 0.0
H1299 H 0.9773 0.44756 0.11386 0.0
H1300 H 0.99508 0.44478 0.14319 0.0
H1301 H 0.007 0.42081 0.16317 0.0
H1302 H 0.06624 0.4117 0.24171 0.0
H1303 H 0.05086 0.40733 0.21076 0.0
H1304 H 0.07828 0.44452 0.17151 0.0
C1305 C 0.00202 0.44026 0.1311 0.0
C1306 C 0.02255 0.42605 0.16483 0.0
C1307 C 0.99193 0.44209 0.11429 0.0
C1308 C 0.06915 0.42314 0.23276 0.0
C1309 C 0.06024 0.42067 0.21506 0.0
C1310 C 0.06272 0.43934 0.16987 0.0
C1311 C 0.02108 0.43331 0.13224 0.0
C1312 C 0.03223 0.43248 0.15012 0.0
C1313 C 0.06334 0.43532 0.2031 0.0
C1314 C 0.05291 0.43341 0.18468 0.0
H1315 H 0.02676 0.42582 0.08729 0.0
H1316 H 0.04423 0.42227 0.11663 0.0
H1317 H 0.06035 0.44409 0.14177 0.0
H1318 H 0.09405 0.46818 0.23105 0.0
H1319 H 0.07838 0.46396 0.20031 0.0
C1320 C 0.32376 0.70497 0.24541 0.0
C1321 C 0.30776 0.69909 0.25515 0.0
C1322 C 0.34316 0.707 0.25363 0.0
C1323 C 0.37215 0.71197 0.29864 0.0
H1324 H 0.41525 0.6988 0.2698 0.0
C1325 C 0.45451 0.71561 0.3282 0.0
C1326 C 0.46707 0.72768 0.31886 0.0
C1327 C 0.43517 0.70954 0.32074 0.0
C1328 C 0.40333 0.70246 0.27802 0.0
H1329 H 0.29975 0.69122 0.28143 0.0
H1330 H 0.33354 0.6939 0.29547 0.0
H1331 H 0.38111 0.69367 0.25634 0.0
H1332 H 0.46969 0.74203 0.2941 0.0
H1333 H 0.43631 0.73104 0.28098 0.0
H1334 H 0.39458 0.72062 0.32035 0.0
C1335 C 0.33111 0.69729 0.28155 0.0
C1336 C 0.38377 0.69971 0.27029 0.0
C1337 C 0.31169 0.69549 0.2734 0.0
C1338 C 0.46031 0.7328 0.30165 0.0
C1339 C 0.44123 0.72643 0.29409 0.0
C1340 C 0.39173 0.71447 0.30644 0.0
C1341 C 0.34714 0.70298 0.27176 0.0
C1342 C 0.36791 0.70479 0.28037 0.0
C1343 C 0.42833 0.71506 0.30367 0.0
C1344 C 0.40752 0.71009 0.29611 0.0
H1345 H 0.3214 0.70766 0.2313 0.0
H1346 H 0.35503 0.7118 0.24572 0.0
H1347 H 0.36042 0.7163 0.3068 0.0
H1348 H 0.45933 0.71153 0.34152 0.0
H1349 H 0.4255 0.70071 0.32837 0.0
C1350 C 0.98702 0.38216 0.00587 0.0
C1351 C 0.98364 0.40142 0.00152 0.0
C1352 C 0.99044 0.36762 0.99236 0.0
C1353 C 0.98403 0.35593 0.94266 0.0
H1354 H 0.02534 0.32034 0.95134 0.0
C1355 C 0.01532 0.31156 0.88456 0.0
C1356 C 0.01731 0.29134 0.88614 0.0
C1357 C 0.01123 0.32395 0.89938 0.0
C1358 C 0.01362 0.33004 0.9488 0.0
H1359 H 0.98111 0.42059 0.97977 0.0
H1360 H 0.98737 0.3954 0.95623 0.0
H1361 H 0.01762 0.34393 0.97581 0.0
H1362 H 0.01725 0.26844 0.9048 0.0
H1363 H 0.01023 0.29032 0.93088 0.0
H1364 H 0.98031 0.34236 0.91559 0.0
C1365 C 0.98706 0.39135 0.96998 0.0
C1366 C 0.00916 0.34352 0.96281 0.0
C1367 C 0.9836 0.40583 0.98346 0.0
C1368 C 0.0158 0.28395 0.90312 0.0
C1369 C 0.01181 0.29645 0.91805 0.0
C1370 C 0.98856 0.34257 0.92868 0.0
C1371 C 0.99055 0.37206 0.97425 0.0
C1372 C 0.9945 0.35683 0.95981 0.0
C1373 C 0.00911 0.3165 0.9162 0.0
C1374 C 0.0036 0.32969 0.93151 0.0
H1375 H 0.98706 0.3783 0.0197 0.0
H1376 H 0.99283 0.35287 0.99608 0.0
H1377 H 0.97234 0.36562 0.93998 0.0
H1378 H 0.0165 0.31783 0.87174 0.0
H1379 H 0.0096 0.33941 0.89763 0.0
C1380 C 0.6988 0.75901 0.23947 0.0
C1381 C 0.71693 0.76404 0.24986 0.0
C1382 C 0.68145 0.75498 0.24787 0.0
C1383 C 0.66164 0.73916 0.28902 0.0
H1384 H 0.61737 0.76939 0.27523 0.0
C1385 C 0.5901 0.74014 0.32741 0.0
C1386 C 0.57234 0.74348 0.3175 0.0
C1387 C 0.60799 0.74064 0.31915 0.0
C1388 C 0.62936 0.76045 0.27903 0.0
H1389 H 0.73128 0.76834 0.27707 0.0
H1390 H 0.70088 0.76084 0.2918 0.0
H1391 H 0.64798 0.77369 0.26073 0.0
H1392 H 0.55893 0.7484 0.29104 0.0
H1393 H 0.58963 0.74806 0.2764 0.0
H1394 H 0.64288 0.72554 0.30705 0.0
C1395 C 0.70015 0.76012 0.27718 0.0
C1396 C 0.64698 0.76306 0.27076 0.0
C1397 C 0.71747 0.76449 0.26877 0.0
C1398 C 0.57251 0.74604 0.29903 0.0
C1399 C 0.59019 0.74607 0.2907 0.0
C1400 C 0.64382 0.73626 0.29712 0.0
C1401 C 0.68193 0.75559 0.2668 0.0
C1402 C 0.66328 0.75247 0.27565 0.0
C1403 C 0.60832 0.74413 0.30076 0.0
C1404 C 0.6274 0.74685 0.29219 0.0
H1405 H 0.6979 0.7586 0.22486 0.0
H1406 H 0.66759 0.75144 0.23957 0.0
H1407 H 0.67402 0.73076 0.29298 0.0
H1408 H 0.59033 0.73825 0.34172 0.0
H1409 H 0.62161 0.73918 0.32739 0.0
C1410 C 0.06403 0.07942 0.97512 0.0
C1411 C 0.05135 0.07521 0.98853 0.0
C1412 C 0.05961 0.09352 0.96303 0.0
C1413 C 0.03033 0.13679 0.95743 0.0
H1414 H 0.03952 0.12708 0.9069 0.0
C1415 C 0.00517 0.18905 0.90399 0.0
C1416 C 0.01821 0.19325 0.89081 0.0
C1417 C 0.00881 0.17433 0.91565 0.0
C1418 C 0.03706 0.13013 0.921 0.0
H1419 H 0.02397 0.08243 -0.00022 0.0
H1420 H 0.01617 0.10696 0.97863 0.0
H1421 H 0.04655 0.10208 0.92772 0.0
H1422 H 0.04529 0.18512 0.87952 0.0
H1423 H 0.05174 0.1596 0.89995 0.0
H1424 H 0.02095 0.16488 0.95074 0.0
C1425 C 0.02968 0.09952 0.97756 0.0
C1426 C 0.04109 0.11578 0.93294 0.0
C1427 C 0.03409 0.08537 0.98962 0.0
C1428 C 0.03489 0.18224 0.88947 0.0
C1429 C 0.03854 0.16752 0.90114 0.0
C1430 C 0.02632 0.15115 0.94548 0.0
C1431 C 0.04239 0.10378 0.96411 0.0
C1432 C 0.03781 0.11894 0.95132 0.0
C1433 C 0.02559 0.16344 0.91444 0.0
C1434 C 0.02967 0.14803 0.92711 0.0
H1435 H 0.07745 0.07183 0.97401 0.0
H1436 H 0.06987 0.0966 0.95302 0.0
H1437 H 0.02792 0.13986 0.97154 0.0
H1438 H 0.99213 0.19717 0.90538 0.0
H1439 H 0.99836 0.1714 0.92553 0.0
C1440 C 0.38884 0.3471 0.27089 0.0
C1441 C 0.39907 0.34243 0.28697 0.0
C1442 C 0.3971 0.34422 0.2544 0.0
C1443 C 0.4444 0.33846 0.23418 0.0
H1444 H 0.4103 0.315 0.19258 0.0
C1445 C 0.47451 0.31332 0.16618 0.0
C1446 C 0.46307 0.31639 0.15019 0.0
C1447 C 0.46718 0.31706 0.18303 0.0
C1448 C 0.41998 0.32182 0.20399 0.0
H1449 H 0.42595 0.33123 0.29846 0.0
H1450 H 0.44046 0.32613 0.26954 0.0
H1451 H 0.3967 0.3203 0.22167 0.0
H1452 H 0.43514 0.32633 0.13944 0.0
H1453 H 0.42252 0.33315 0.16879 0.0
H1454 H 0.46768 0.34005 0.21645 0.0
C1455 C 0.42612 0.33216 0.26973 0.0
C1456 C 0.41218 0.32482 0.22068 0.0
C1457 C 0.41779 0.33498 0.28625 0.0
C1458 C 0.44431 0.32368 0.15146 0.0
C1459 C 0.43701 0.32747 0.1683 0.0
C1460 C 0.4522 0.33551 0.21744 0.0
C1461 C 0.41579 0.33663 0.25361 0.0
C1462 C 0.42427 0.33322 0.23596 0.0
C1463 C 0.44826 0.324 0.18428 0.0
C1464 C 0.44007 0.32721 0.20213 0.0
H1465 H 0.37438 0.3529 0.27096 0.0
H1466 H 0.38889 0.34806 0.24226 0.0
H1467 H 0.45404 0.34517 0.24567 0.0
H1468 H 0.48901 0.30767 0.1657 0.0
H1469 H 0.47615 0.31403 0.19504 0.0
C1470 C 0.57029 0.4258 0.96893 0.0
C1471 C 0.59102 0.42874 0.96921 0.0
C1472 C 0.56165 0.41432 0.98136 0.0
C1473 C 0.57203 0.39502 0.02589 0.0
H1474 H 0.52469 0.36057 0.01057 0.0
C1475 C 0.53544 0.34023 0.07182 0.0
C1476 C 0.51459 0.33895 0.07098 0.0
C1477 C 0.54553 0.35128 0.05986 0.0
C1478 C 0.53781 0.37026 0.0151 0.0
H1479 H 0.61896 0.42191 0.98252 0.0
H1480 H 0.60387 0.40155 0.00414 0.0
H1481 H 0.54093 0.37905 0.9885 0.0
H1482 H 0.48806 0.34886 0.05728 0.0
H1483 H 0.50562 0.36812 0.03663 0.0
H1484 H 0.56885 0.3861 0.05254 0.0
C1485 C 0.59429 0.40833 0.99448 0.0
C1486 C 0.54711 0.38086 0.00245 0.0
C1487 C 0.60293 0.41986 0.98205 0.0
C1488 C 0.50412 0.3494 0.05826 0.0
C1489 C 0.51417 0.36035 0.04632 0.0
C1490 C 0.56274 0.38433 0.03856 0.0
C1491 C 0.57353 0.40548 0.99433 0.0
C1492 C 0.56421 0.39354 0.00771 0.0
C1493 C 0.53496 0.36119 0.04678 0.0
C1494 C 0.54539 0.37201 0.03333 0.0
H1495 H 0.56068 0.43255 0.95927 0.0
H1496 H 0.54562 0.4127 0.98103 0.0
H1497 H 0.58505 0.40482 0.03045 0.0
H1498 H 0.54396 0.33235 0.08143 0.0
H1499 H 0.56156 0.35159 0.06049 0.0
C1500 C 0.69677 0.24059 0.20154 0.0
C1501 C 0.69594 0.2427 0.22035 0.0
C1502 C 0.68061 0.24475 0.18996 0.0
C1503 C 0.62655 0.24955 0.18858 0.0
H1504 H 0.63481 0.27796 0.14639 0.0
C1505 C 0.56217 0.28078 0.14757 0.0
C1506 C 0.56187 0.27877 0.12862 0.0
C1507 C 0.57872 0.27613 0.15834 0.0
C1508 C 0.63227 0.26981 0.158 0.0
H1509 H 0.67757 0.25099 0.24185 0.0
H1510 H 0.64952 0.25845 0.2217 0.0
H1511 H 0.66337 0.27032 0.166 0.0
H1512 H 0.57883 0.27041 0.10613 0.0
H1513 H 0.60774 0.26217 0.12499 0.0
H1514 H 0.59549 0.2491 0.18067 0.0
C1515 C 0.66253 0.2533 0.21584 0.0
C1516 C 0.64863 0.26543 0.16924 0.0
C1517 C 0.67868 0.24914 0.2274 0.0
C1518 C 0.57859 0.27214 0.12069 0.0
C1519 C 0.59519 0.26751 0.13149 0.0
C1520 C 0.61022 0.25394 0.17737 0.0
C1521 C 0.66327 0.2511 0.19697 0.0
C1522 C 0.64595 0.25536 0.18473 0.0
C1523 C 0.5954 0.26937 0.15045 0.0
C1524 C 0.61287 0.26424 0.16202 0.0
H1525 H 0.7099 0.23559 0.19578 0.0
H1526 H 0.68159 0.24271 0.1755 0.0
H1527 H 0.62397 0.24144 0.20021 0.0
H1528 H 0.54958 0.28593 0.15414 0.0
H1529 H 0.57851 0.27802 0.1729 0.0
C1530 C 0.43553 0.09536 0.01783 0.0
C1531 C 0.45163 0.08564 0.01152 0.0
C1532 C 0.43848 0.11437 0.02664 0.0
C1533 C 0.46925 0.15976 0.02876 0.0
H1534 H 0.45335 0.17099 0.07719 0.0
C1535 C 0.46301 0.23838 0.06253 0.0
C1536 C 0.47464 0.24282 0.07904 0.0
C1537 C 0.46042 0.21902 0.05453 0.0
C1538 C 0.45784 0.16799 0.06368 0.0
H1539 H 0.48358 0.08848 0.00995 0.0
H1540 H 0.48839 0.12203 0.02447 0.0
H1541 H 0.4481 0.13719 0.06252 0.0
H1542 H 0.49234 0.23047 0.10029 0.0
H1543 H 0.48717 0.19637 0.08649 0.0
H1544 H 0.47848 0.19064 0.0297 0.0
C1545 C 0.47356 0.11472 0.02264 0.0
C1546 C 0.45478 0.14878 0.0553 0.0
C1547 C 0.47072 0.09556 0.01419 0.0
C1548 C 0.48335 0.22746 0.08754 0.0
C1549 C 0.48036 0.208 0.07972 0.0
C1550 C 0.47189 0.17904 0.03697 0.0
C1551 C 0.45749 0.12423 0.02897 0.0
C1552 C 0.46054 0.14453 0.03782 0.0
C1553 C 0.46902 0.20369 0.06308 0.0
C1554 C 0.46628 0.18328 0.05451 0.0
H1555 H 0.42057 0.08843 0.01575 0.0
H1556 H 0.42585 0.12155 0.0313 0.0
H1557 H 0.47373 0.15679 0.01524 0.0
H1558 H 0.4562 0.24992 0.05563 0.0
H1559 H 0.45155 0.21597 0.04171 0.0
C1560 C 0.29606 0.32355 0.70267 0.0
C1561 C 0.29174 0.31104 0.71623 0.0
C1562 C 0.30603 0.34217 0.7071 0.0
C1563 C 0.31658 0.38124 0.74415 0.0
H1564 H 0.35959 0.39876 0.7165 0.0
C1565 C 0.36526 0.45312 0.76599 0.0
C1566 C 0.37127 0.46498 0.75251 0.0
C1567 C 0.35595 0.43425 0.76143 0.0
C1568 C 0.34744 0.39423 0.7242 0.0
H1569 H 0.29461 0.30843 0.74514 0.0
H1570 H 0.31175 0.34115 0.75289 0.0
H1571 H 0.34252 0.36603 0.70894 0.0
H1572 H 0.37228 0.46622 0.72361 0.0
H1573 H 0.35558 0.43337 0.71557 0.0
H1574 H 0.32117 0.40946 0.75923 0.0
C1575 C 0.30733 0.33647 0.73882 0.0
C1576 C 0.33771 0.37544 0.7199 0.0
C1577 C 0.29748 0.31774 0.73437 0.0
C1578 C 0.36789 0.45744 0.73432 0.0
C1579 C 0.3584 0.43856 0.72973 0.0
C1580 C 0.32619 0.40007 0.74836 0.0
C1581 C 0.31177 0.34884 0.72521 0.0
C1582 C 0.32221 0.36873 0.72986 0.0
C1583 C 0.35222 0.42676 0.74324 0.0
C1584 C 0.3418 0.40679 0.7385 0.0
H1585 H 0.29149 0.31909 0.68858 0.0
H1586 H 0.30895 0.35149 0.69635 0.0
H1587 H 0.30448 0.37661 0.75188 0.0
H1588 H 0.3678 0.45837 0.78016 0.0
H1589 H 0.3518 0.42547 0.77222 0.0
C1590 C 0.27911 0.69897 0.75594 0.0
C1591 C 0.26748 0.69959 0.77076 0.0
C1592 C 0.29062 0.68304 0.75242 0.0
C1593 C 0.29445 0.63089 0.76156 0.0
H1594 H 0.34943 0.63938 0.75128 0.0
C1595 C 0.34945 0.57268 0.77263 0.0
C1596 C 0.36334 0.56891 0.75998 0.0
C1597 C 0.33749 0.58838 0.7713 0.0
C1598 C 0.334 0.63675 0.75381 0.0
H1599 H 0.25867 0.68386 0.79335 0.0
H1600 H 0.27881 0.65624 0.78734 0.0
H1601 H 0.32897 0.66754 0.75416 0.0
H1602 H 0.37556 0.57892 0.73599 0.0
H1603 H 0.35448 0.60674 0.73371 0.0
H1604 H 0.29946 0.60026 0.76158 0.0
C1605 C 0.27898 0.66799 0.77836 0.0
C1606 C 0.3223 0.65287 0.7555 0.0
C1607 C 0.2676 0.68394 0.78194 0.0
C1608 C 0.36498 0.58139 0.74592 0.0
C1609 C 0.35299 0.59734 0.74466 0.0
C1610 C 0.30608 0.61486 0.75985 0.0
C1611 C 0.29058 0.6673 0.76353 0.0
C1612 C 0.30253 0.65015 0.75987 0.0
C1613 C 0.33902 0.60088 0.75731 0.0
C1614 C 0.32614 0.61764 0.75646 0.0
H1615 H 0.27943 0.7109 0.74715 0.0
H1616 H 0.29934 0.6829 0.74086 0.0
H1617 H 0.27915 0.62823 0.76448 0.0
H1618 H 0.34772 0.56346 0.78368 0.0
H1619 H 0.32719 0.59089 0.78147 0.0
C1620 C 0.8894 0.52629 0.49133 0.0
C1621 C 0.88432 0.53455 0.47507 0.0
C1622 C 0.877 0.51122 0.4971 0.0
C1623 C 0.82661 0.48801 0.49366 0.0
H1624 H 0.85167 0.43928 0.49981 0.0
C1625 C 0.78136 0.41353 0.49899 0.0
C1626 C 0.79034 0.39919 0.50866 0.0
C1627 C 0.79206 0.43134 0.49657 0.0
C1628 C 0.84442 0.45283 0.49861 0.0
H1629 H 0.86204 0.53431 0.45251 0.0
H1630 H 0.84004 0.5082 0.46289 0.0
H1631 H 0.8715 0.4685 0.49322 0.0
H1632 H 0.81695 0.39264 0.52443 0.0
H1633 H 0.83517 0.42398 0.5212 0.0
H1634 H 0.79959 0.47257 0.49944 0.0
C1635 C 0.85367 0.51329 0.47104 0.0
C1636 C 0.85583 0.46955 0.4947 0.0
C1637 C 0.86626 0.52809 0.46507 0.0
C1638 C 0.80978 0.40335 0.51667 0.0
C1639 C 0.82028 0.42128 0.51465 0.0
C1640 C 0.81521 0.47135 0.49795 0.0
C1641 C 0.85915 0.50445 0.4869 0.0
C1642 C 0.84703 0.48722 0.49205 0.0
C1643 C 0.81182 0.43532 0.50412 0.0
C1644 C 0.82393 0.45346 0.50035 0.0
H1645 H 0.90331 0.53096 0.4992 0.0
H1646 H 0.8815 0.50462 0.5094 0.0
H1647 H 0.81953 0.50154 0.49172 0.0
H1648 H 0.7664 0.41063 0.49262 0.0
H1649 H 0.78504 0.4416 0.48822 0.0
C1650 C 0.79089 0.83831 0.80109 0.0
C1651 C 0.8046 0.84415 0.81602 0.0
C1652 C 0.77306 0.84729 0.79902 0.0
C1653 C 0.75042 0.89254 0.80752 0.0
H1654 H 0.70034 0.86086 0.80509 0.0
C1655 C 0.67569 0.92838 0.80329 0.0
C1656 C 0.65925 0.91772 0.79353 0.0
C1657 C 0.69343 0.91949 0.80662 0.0
C1658 C 0.71414 0.86994 0.80539 0.0
H1659 H 0.81077 0.86389 0.84037 0.0
H1660 H 0.77967 0.88022 0.83637 0.0
H1661 H 0.73139 0.84519 0.80947 0.0
H1662 H 0.64857 0.88958 0.77919 0.0
H1663 H 0.67971 0.87436 0.7841 0.0
H1664 H 0.73351 0.91713 0.80256 0.0
C1665 C 0.78267 0.86852 0.82648 0.0
C1666 C 0.7319 0.86093 0.80808 0.0
C1667 C 0.80033 0.8592 0.82878 0.0
C1668 C 0.66096 0.89809 0.78692 0.0
C1669 C 0.67882 0.88932 0.78989 0.0
C1670 C 0.73268 0.90151 0.80442 0.0
C1671 C 0.76888 0.86253 0.81163 0.0
C1672 C 0.75014 0.87217 0.80918 0.0
C1673 C 0.69529 0.89983 0.79991 0.0
C1674 C 0.71426 0.89033 0.80332 0.0
H1675 H 0.79392 0.82666 0.79115 0.0
H1676 H 0.76263 0.84252 0.78744 0.0
H1677 H 0.7644 0.90143 0.80817 0.0
H1678 H 0.67473 0.94351 0.80869 0.0
H1679 H 0.70556 0.92799 0.8147 0.0
C1680 C 0.65367 0.50061 0.94142 0.0
C1681 C 0.63548 0.50904 0.93887 0.0
C1682 C 0.67102 0.51247 0.94712 0.0
C1683 C 0.69213 0.56465 0.95026 0.0
H1684 H 0.73461 0.54357 0.97908 0.0
C1685 C 0.76666 0.60917 0.97703 0.0
C1686 C 0.7833 0.6 0.97134 0.0
C1687 C 0.74788 0.59891 0.97486 0.0
C1688 C 0.72281 0.54964 0.97109 0.0
H1689 H 0.62095 0.53634 0.9407 0.0
H1690 H 0.65113 0.5571 0.95133 0.0
H1691 H 0.70284 0.52423 0.97247 0.0
H1692 H 0.79344 0.57281 0.95942 0.0
H1693 H 0.76077 0.5548 0.95612 0.0
H1694 H 0.71225 0.59022 0.94923 0.0
C1695 C 0.65218 0.5414 0.94842 0.0
C1696 C 0.70466 0.53852 0.96714 0.0
C1697 C 0.63487 0.52954 0.94241 0.0
C1698 C 0.78088 0.58029 0.96384 0.0
C1699 C 0.76224 0.56995 0.96204 0.0
C1700 C 0.71019 0.57591 0.95449 0.0
C1701 C 0.67054 0.53304 0.95072 0.0
C1702 C 0.68921 0.54567 0.95631 0.0
C1703 C 0.74557 0.57921 0.96739 0.0
C1704 C 0.72579 0.5683 0.96462 0.0
H1705 H 0.65454 0.48485 0.93857 0.0
H1706 H 0.68486 0.50549 0.9483 0.0
H1707 H 0.68075 0.57058 0.94169 0.0
H1708 H 0.7681 0.62436 0.98283 0.0
H1709 H 0.73518 0.60631 0.97909 0.0
C1710 C 0.24088 0.65592 0.26459 0.0
C1711 C 0.24181 0.65977 0.2464 0.0
C1712 C 0.22856 0.64016 0.26925 0.0
C1713 C 0.20271 0.59257 0.25047 0.0
H1714 H 0.17391 0.59834 0.29325 0.0
C1715 C 0.14681 0.53113 0.26909 0.0
C1716 C 0.14778 0.52704 0.28733 0.0
C1717 C 0.15738 0.54778 0.26384 0.0
C1718 C 0.18199 0.59645 0.28135 0.0
H1719 H 0.23044 0.65005 0.21884 0.0
H1720 H 0.20862 0.62275 0.22701 0.0
H1721 H 0.19389 0.62659 0.28443 0.0
H1722 H 0.16043 0.5374 0.3144 0.0
H1723 H 0.17895 0.56638 0.30521 0.0
H1724 H 0.19088 0.5624 0.24744 0.0
C1725 C 0.21762 0.63181 0.23766 0.0
C1726 C 0.19345 0.61263 0.27629 0.0
C1727 C 0.22996 0.64759 0.23299 0.0
C1728 C 0.15933 0.54012 0.30024 0.0
C1729 C 0.16987 0.5568 0.29499 0.0
C1730 C 0.19123 0.5764 0.25551 0.0
C1731 C 0.21682 0.62788 0.25585 0.0
C1732 C 0.20405 0.61086 0.26086 0.0
C1733 C 0.16912 0.56074 0.27671 0.0
C1734 C 0.18083 0.57812 0.27107 0.0
H1735 H 0.24964 0.66516 0.27527 0.0
H1736 H 0.22849 0.63743 0.28337 0.0
H1737 H 0.21093 0.5906 0.23866 0.0
H1738 H 0.138 0.5214 0.2588 0.0
H1739 H 0.15629 0.55054 0.24969 0.0
C1740 C 0.97093 0.49711 0.06493 0.0
C1741 C 0.96133 0.47865 0.05841 0.0
C1742 C 0.96192 0.51454 0.06193 0.0
C1743 C 0.94516 0.5477 0.04148 0.0
H1744 H 0.88869 0.55109 0.04469 0.0
C1745 C 0.8977 0.59705 -0.00013 0.0
C1746 C 0.88184 0.60582 0.00752 0.0
C1747 C 0.90937 0.58487 0.00968 0.0
C1748 C 0.90454 0.55055 0.04403 0.0
H1749 H 0.93457 0.46391 0.04412 0.0
H1750 H 0.91885 0.49434 0.03879 0.0
H1751 H 0.9046 0.52256 0.05527 0.0
H1752 H 0.86642 0.60959 0.0318 0.0
H1753 H 0.88679 0.588 0.04897 0.0
H1754 H 0.94497 0.5754 0.02971 0.0
C1755 C 0.9333 0.49535 0.04629 0.0
C1756 C 0.91359 0.5341 0.04988 0.0
C1757 C 0.94238 0.47794 0.04916 0.0
C1758 C 0.87858 0.60306 0.02557 0.0
C1759 C 0.89013 0.59061 0.03534 0.0
C1760 C 0.93608 0.56407 0.0355 0.0
C1761 C 0.94305 0.51384 0.0525 0.0
C1762 C 0.9339 0.53229 0.04828 0.0
C1763 C 0.90532 0.58101 0.02731 0.0
C1764 C 0.91558 0.56544 0.03632 0.0
H1765 H 0.98561 0.49811 0.072 0.0
H1766 H 0.96973 0.52857 0.06693 0.0
H1767 H 0.96082 0.54669 0.04 0.0
H1768 H 0.90063 0.59898 0.98601 0.0
H1769 H 0.92085 0.57757 0.00306 0.0
C1770 C 0.09559 0.00136 0.02845 0.0
C1771 C 0.07703 0.99672 0.03488 0.0
C1772 C 0.10894 0.98684 0.02591 0.0
C1773 C 0.12111 0.93781 0.03987 0.0
H1774 H 0.15172 0.93669 0.99808 0.0
C1775 C 0.17115 0.87459 0.02326 0.0
C1776 C 0.18985 0.87991 0.01743 0.0
C1777 C 0.15695 0.88845 0.02478 0.0
C1778 C 0.14344 0.93691 0.00992 0.0
H1779 H 0.05792 0.97297 0.04342 0.0
H1780 H 0.08122 0.94765 0.03903 0.0
H1781 H 0.12788 0.96155 0.00199 0.0
H1782 H 0.20814 0.90399 0.0084 0.0
H1783 H 0.18348 0.92816 0.01118 0.0
H1784 H 0.13673 0.91325 0.04786 0.0
C1785 C 0.08555 0.96262 0.03618 0.0
C1786 C 0.12976 0.95118 0.01217 0.0
C1787 C 0.07218 0.97715 0.03871 0.0
C1788 C 0.19388 0.89935 0.01289 0.0
C1789 C 0.17968 0.91321 0.0144 0.0
C1790 C 0.13479 0.92355 0.03763 0.0
C1791 C 0.10412 0.96728 0.02976 0.0
C1792 C 0.11845 0.95186 0.0272 0.0
C1793 C 0.16107 0.90799 0.02049 0.0
C1794 C 0.14619 0.92294 0.02265 0.0
H1795 H 0.09996 0.01634 0.02564 0.0
H1796 H 0.12322 0.99105 0.02124 0.0
H1797 H 0.11289 0.93808 0.05175 0.0
H1798 H 0.16749 0.85974 0.02682 0.0
H1799 H 0.14268 0.88382 0.02925 0.0
loop_
_geom_bond_atom_site_label_1
_geom_bond_atom_site_label_2
_geom_bond_distance
_geom_bond_site_symmetry_2
_ccdc_geom_bond_type
H0 C5 0.930 . S
H1 C8 0.930 . S
H2 C10 0.930 . S
H3 C4 1.016 . S
C4 H3 1.016 . S
C4 N11 1.286 . S
C5 H0 0.930 . S
C5 C6 1.397 . S
C5 C7 1.361 . S
C6 C5 1.397 . S
C6 C10 1.390 . S
C7 C5 1.361 . S
C7 C8 1.393 . S
C7 N11 1.413 . S
C8 H1 0.930 . S
C8 C7 1.393 . S
C8 C9 1.399 . S
C9 C8 1.399 . S
C9 C10 1.381 . S
C10 H2 0.930 . S
C10 C6 1.390 . S
C10 C9 1.381 . S
N11 C4 1.286 . S
N11 C7 1.413 . S
H12 C17 0.930 . S
H13 C20 0.930 . S
H14 C22 0.930 . S
H15 C16 1.016 . S
C16 H15 1.016 . S
C16 N23 1.286 . S
C17 H12 0.930 . S
C17 C18 1.397 . S
C17 C19 1.361 . S
C18 C17 1.397 . S
C18 C22 1.390 . S
C19 C17 1.361 . S
C19 C20 1.393 . S
C19 N23 1.413 . S
C20 H13 0.930 . S
C20 C19 1.393 . S
C20 C21 1.399 . S
C21 C20 1.399 . S
C21 C22 1.381 . S
C22 H14 0.930 . S
C22 C18 1.390 . S
C22 C21 1.381 . S
N23 C16 1.286 . S
N23 C19 1.413 . S
H24 C29 0.930 . S
H25 C32 0.930 . S
H26 C34 0.930 . S
H27 C28 1.016 . S
C28 H27 1.016 . S
C28 N35 1.286 . S
C29 H24 0.930 . S
C29 C30 1.397 . S
C29 C31 1.361 . S
C30 C29 1.397 . S
C30 C34 1.390 . S
C31 C29 1.361 . S
C31 C32 1.393 . S
C31 N35 1.413 . S
C32 H25 0.930 . S
C32 C31 1.393 . S
C32 C33 1.399 . S
C33 C32 1.399 . S
C33 C34 1.381 . S
C34 H26 0.930 . S
C34 C30 1.390 . S
C34 C33 1.381 . S
N35 C28 1.286 . S
N35 C31 1.413 . S
H36 C41 0.930 . S
H37 C44 0.930 . S
H38 C46 0.930 . S
H39 C40 1.016 . S
C40 H39 1.016 . S
C40 N47 1.286 . S
C41 H36 0.930 . S
C41 C42 1.397 . S
C41 C43 1.361 . S
C42 C41 1.397 . S
C42 C46 1.390 . S
C43 C41 1.361 . S
C43 C44 1.393 . S
C43 N47 1.413 . S
C44 H37 0.930 . S
C44 C43 1.393 . S
C44 C45 1.399 . S
C45 C44 1.399 . S
C45 C46 1.381 . S
C46 H38 0.930 . S
C46 C42 1.390 . S
C46 C45 1.381 . S
N47 C40 1.286 . S
N47 C43 1.413 . S
H48 C53 0.930 . S
H49 C56 0.930 . S
H50 C58 0.930 . S
H51 C52 1.016 . S
C52 H51 1.016 . S
C52 N59 1.286 . S
C53 H48 0.930 . S
C53 C54 1.397 . S
C53 C55 1.361 . S
C54 C53 1.397 . S
C54 C58 1.390 . S
C55 C53 1.361 . S
C55 C56 1.393 . S
C55 N59 1.413 . S
C56 H49 0.930 . S
C56 C55 1.393 . S
C56 C57 1.399 . S
C57 C56 1.399 . S
C57 C58 1.381 . S
C58 H50 0.930 . S
C58 C54 1.390 . S
C58 C57 1.381 . S
N59 C52 1.286 . S
N59 C55 1.413 . S
H60 C65 0.930 . S
H61 C68 0.930 . S
H62 C70 0.930 . S
H63 C64 1.016 . S
C64 H63 1.016 . S
C64 N71 1.286 . S
C65 H60 0.930 . S
C65 C66 1.397 . S
C65 C67 1.361 . S
C66 C65 1.397 . S
C66 C70 1.390 . S
C67 C65 1.361 . S
C67 C68 1.393 . S
C67 N71 1.413 . S
C68 H61 0.930 . S
C68 C67 1.393 . S
C68 C69 1.399 . S
C69 C68 1.399 . S
C69 C70 1.381 . S
C70 H62 0.930 . S
C70 C66 1.390 . S
C70 C69 1.381 . S
N71 C64 1.286 . S
N71 C67 1.413 . S
H72 C77 0.930 . S
H73 C80 0.930 . S
H74 C82 0.930 . S
H75 C76 1.016 . S
C76 H75 1.016 . S
C76 N83 1.286 . S
C77 H72 0.930 . S
C77 C78 1.397 . S
C77 C79 1.361 . S
C78 C77 1.397 . S
C78 C82 1.390 . S
C79 C77 1.361 . S
C79 C80 1.393 . S
C79 N83 1.413 . S
C80 H73 0.930 . S
C80 C79 1.393 . S
C80 C81 1.399 . S
C81 C80 1.399 . S
C81 C82 1.381 . S
C82 H74 0.930 . S
C82 C78 1.390 . S
C82 C81 1.381 . S
N83 C76 1.286 . S
N83 C79 1.413 . S
H84 C89 0.930 . S
H85 C92 0.930 . S
H86 C94 0.930 . S
H87 C88 1.016 . S
C88 H87 1.016 . S
C88 N95 1.286 . S
C89 H84 0.930 . S
C89 C90 1.397 . S
C89 C91 1.361 . S
C90 C89 1.397 . S
C90 C94 1.390 . S
C91 C89 1.361 . S
C91 C92 1.393 . S
C91 N95 1.413 . S
C92 H85 0.930 . S
C92 C91 1.393 . S
C92 C93 1.399 . S
C93 C92 1.399 . S
C93 C94 1.381 . S
C94 H86 0.930 . S
C94 C90 1.390 . S
C94 C93 1.381 . S
N95 C88 1.286 . S
N95 C91 1.413 . S
H96 C101 0.930 . S
H97 C104 0.930 . S
H98 C106 0.930 . S
H99 C100 1.016 . S
C100 H99 1.016 . S
C100 N107 1.286 . S
C101 H96 0.930 . S
C101 C102 1.397 . S
C101 C103 1.361 . S
C102 C101 1.397 . S
C102 C106 1.390 . S
C103 C101 1.361 . S
C103 C104 1.393 . S
C103 N107 1.413 . S
C104 H97 0.930 . S
C104 C103 1.393 . S
C104 C105 1.399 . S
C105 C104 1.399 . S
C105 C106 1.381 . S
C106 H98 0.930 . S
C106 C102 1.390 . S
C106 C105 1.381 . S
N107 C100 1.286 . S
N107 C103 1.413 . S
H108 C113 0.930 . S
H109 C116 0.930 . S
H110 C118 0.930 . S
H111 C112 1.016 . S
C112 H111 1.016 . S
C112 N119 1.286 . S
C113 H108 0.930 . S
C113 C114 1.397 . S
C113 C115 1.361 . S
C114 C113 1.397 . S
C114 C118 1.390 . S
C115 C113 1.361 . S
C115 C116 1.393 . S
C115 N119 1.413 . S
C116 H109 0.930 . S
C116 C115 1.393 . S
C116 C117 1.399 . S
C117 C116 1.399 . S
C117 C118 1.381 . S
C118 H110 0.930 . S
C118 C114 1.390 . S
C118 C117 1.381 . S
N119 C112 1.286 . S
N119 C115 1.413 . S
H120 C125 0.930 . S
H121 C128 0.930 . S
H122 C130 0.930 . S
H123 C124 1.016 . S
C124 H123 1.016 . S
C124 N131 1.286 . S
C125 H120 0.930 . S
C125 C126 1.397 . S
C125 C127 1.361 . S
C126 C125 1.397 . S
C126 C130 1.390 . S
C127 C125 1.361 . S
C127 C128 1.393 . S
C127 N131 1.413 . S
C128 H121 0.930 . S
C128 C127 1.393 . S
C128 C129 1.399 . S
C129 C128 1.399 . S
C129 C130 1.381 . S
C130 H122 0.930 . S
C130 C126 1.390 . S
C130 C129 1.381 . S
N131 C124 1.286 . S
N131 C127 1.413 . S
H132 C137 0.930 . S
H133 C140 0.930 . S
H134 C142 0.930 . S
H135 C136 1.016 . S
C136 H135 1.016 . S
C136 N143 1.286 . S
C137 H132 0.930 . S
C137 C138 1.397 . S
C137 C139 1.361 . S
C138 C137 1.397 . S
C138 C142 1.390 . S
C139 C137 1.361 . S
C139 C140 1.393 . S
C139 N143 1.413 . S
C140 H133 0.930 . S
C140 C139 1.393 . S
C140 C141 1.399 . S
C141 C140 1.399 . S
C141 C142 1.381 . S
C142 H134 0.930 . S
C142 C138 1.390 . S
C142 C141 1.381 . S
N143 C136 1.286 . S
N143 C139 1.413 . S
H144 C149 0.930 . S
H145 C152 0.930 . S
H146 C154 0.930 . S
H147 C148 1.016 . S
C148 H147 1.016 . S
C148 N155 1.286 . S
C149 H144 0.930 . S
C149 C150 1.397 . S
C149 C151 1.361 . S
C150 C149 1.397 . S
C150 C154 1.390 . S
C151 C149 1.361 . S
C151 C152 1.393 . S
C151 N155 1.413 . S
C152 H145 0.930 . S
C152 C151 1.393 . S
C152 C153 1.399 . S
C153 C152 1.399 . S
C153 C154 1.381 . S
C154 H146 0.930 . S
C154 C150 1.390 . S
C154 C153 1.381 . S
N155 C148 1.286 . S
N155 C151 1.413 . S
H156 C161 0.930 . S
H157 C164 0.930 . S
H158 C166 0.930 . S
H159 C160 1.016 . S
C160 H159 1.016 . S
C160 N167 1.286 . S
C161 H156 0.930 . S
C161 C162 1.397 . S
C161 C163 1.361 . S
C162 C161 1.397 . S
C162 C166 1.390 . S
C163 C161 1.361 . S
C163 C164 1.393 . S
C163 N167 1.413 . S
C164 H157 0.930 . S
C164 C163 1.393 . S
C164 C165 1.399 . S
C165 C164 1.399 . S
C165 C166 1.381 . S
C166 H158 0.930 . S
C166 C162 1.390 . S
C166 C165 1.381 . S
N167 C160 1.286 . S
N167 C163 1.413 . S
H168 C173 0.930 . S
H169 C176 0.930 . S
H170 C178 0.930 . S
H171 C172 1.016 . S
C172 H171 1.016 . S
C172 N179 1.286 . S
C173 H168 0.930 . S
C173 C174 1.397 . S
C173 C175 1.361 . S
C174 C173 1.397 . S
C174 C178 1.390 . S
C175 C173 1.361 . S
C175 C176 1.393 . S
C175 N179 1.413 . S
C176 H169 0.930 . S
C176 C175 1.393 . S
C176 C177 1.399 . S
C177 C176 1.399 . S
C177 C178 1.381 . S
C178 H170 0.930 . S
C178 C174 1.390 . S
C178 C177 1.381 . S
N179 C172 1.286 . S
N179 C175 1.413 . S
H180 C185 0.930 . S
H181 C188 0.930 . S
H182 C190 0.930 . S
H183 C184 1.016 . S
C184 H183 1.016 . S
C184 N191 1.286 . S
C185 H180 0.930 . S
C185 C186 1.397 . S
C185 C187 1.361 . S
C186 C185 1.397 . S
C186 C190 1.390 . S
C187 C185 1.361 . S
C187 C188 1.393 . S
C187 N191 1.413 . S
C188 H181 0.930 . S
C188 C187 1.393 . S
C188 C189 1.399 . S
C189 C188 1.399 . S
C189 C190 1.381 . S
C190 H182 0.930 . S
C190 C186 1.390 . S
C190 C189 1.381 . S
N191 C184 1.286 . S
N191 C187 1.413 . S
Zn192 O195 2.031 . S
Zn192 O197 2.049 . S
Zn192 O202 2.067 1_554 S
Zn193 O194 1.962 . S
Zn193 O196 1.986 . S
Zn193 O198 1.996 . S
Zn193 O201 1.943 1_554 S
O194 Zn193 1.962 . S
O194 C199 1.254 . S
O195 Zn192 2.031 . S
O195 C199 1.269 . S
O196 Zn193 1.986 . S
O196 C203 1.262 . S
O197 Zn192 2.049 . S
O197 C205 1.260 . S
O198 Zn193 1.996 . S
O198 C205 1.257 . S
C199 O194 1.254 . S
C199 O195 1.269 . S
C200 O201 1.249 . S
C200 O202 1.270 . S
O201 Zn193 1.943 1_556 S
O201 C200 1.249 . S
O202 Zn192 2.067 1_556 S
O202 C200 1.270 . S
C203 O196 1.262 . S
C203 O204 1.232 . S
O204 C203 1.232 . S
C205 O197 1.260 . S
C205 O198 1.257 . S
Zn206 O209 2.031 . S
Zn206 O211 2.049 . S
Zn206 O216 2.067 . S
Zn207 O208 1.962 . S
Zn207 O210 1.986 . S
Zn207 O212 1.996 . S
Zn207 O215 1.943 . S
O208 Zn207 1.962 . S
O208 C213 1.254 . S
O209 Zn206 2.031 . S
O209 C213 1.269 . S
O210 Zn207 1.986 . S
O210 C217 1.262 . S
O211 Zn206 2.049 . S
O211 C219 1.260 . S
O212 Zn207 1.996 . S
O212 C219 1.257 . S
C213 O208 1.254 . S
C213 O209 1.269 . S
C214 O215 1.249 . S
C214 O216 1.270 . S
O215 Zn207 1.943 . S
O215 C214 1.249 . S
O216 Zn206 2.067 . S
O216 C214 1.270 . S
C217 O210 1.262 . S
C217 O218 1.232 . S
O218 C217 1.232 . S
C219 O211 1.260 . S
C219 O212 1.257 . S
Zn220 O223 2.031 . S
Zn220 O225 2.049 . S
Zn220 O230 2.067 . S
Zn221 O222 1.962 . S
Zn221 O224 1.986 . S
Zn221 O226 1.996 1_554 S
Zn221 O229 1.943 . S
O222 Zn221 1.962 . S
O222 C227 1.254 . S
O223 Zn220 2.031 . S
O223 C227 1.269 1_556 S
O224 Zn221 1.986 . S
O224 C231 1.262 . S
O225 Zn220 2.049 . S
O225 C233 1.260 . S
O226 Zn221 1.996 1_556 S
O226 C233 1.257 . S
C227 O222 1.254 . S
C227 O223 1.269 1_554 S
C228 O229 1.249 1_556 S
C228 O230 1.270 . S
O229 Zn221 1.943 . S
O229 C228 1.249 1_554 S
O230 Zn220 2.067 . S
O230 C228 1.270 . S
C231 O224 1.262 . S
C231 O232 1.232 . S
O232 C231 1.232 . S
C233 O225 1.260 . S
C233 O226 1.257 . S
Zn234 O237 2.031 . S
Zn234 O239 2.049 . S
Zn234 O244 2.067 1_545 S
Zn235 O236 1.962 . S
Zn235 O238 1.986 . S
Zn235 O240 1.996 . S
Zn235 O243 1.937 1_545 S
O236 Zn235 1.962 . S
O236 C241 1.254 . S
O237 Zn234 2.031 . S
O237 C241 1.269 . S
O238 Zn235 1.986 . S
O238 C245 1.262 . S
O239 Zn234 2.049 . S
O239 C247 1.260 . S
O240 Zn235 1.996 . S
O240 C247 1.257 . S
C241 O236 1.254 . S
C241 O237 1.269 . S
C242 O243 1.252 . S
C242 O244 1.270 . S
O243 Zn235 1.937 1_565 S
O243 C242 1.252 . S
O244 Zn234 2.067 1_565 S
O244 C242 1.270 . S
C245 O238 1.262 . S
C245 O246 1.232 . S
O246 C245 1.232 . S
C247 O239 1.260 . S
C247 O240 1.257 . S
Zn248 O251 2.031 . S
Zn248 O253 2.049 . S
Zn248 O258 2.067 . S
Zn249 O250 1.962 . S
Zn249 O252 1.986 . S
Zn249 O254 1.996 . S
Zn249 O257 1.943 . S
O250 Zn249 1.962 . S
O250 C255 1.254 . S
O251 Zn248 2.031 . S
O251 C255 1.269 . S
O252 Zn249 1.986 . S
O252 C259 1.262 . S
O253 Zn248 2.049 . S
O253 C261 1.260 . S
O254 Zn249 1.996 . S
O254 C261 1.257 . S
C255 O250 1.254 . S
C255 O251 1.269 . S
C256 O257 1.249 . S
C256 O258 1.270 . S
O257 Zn249 1.943 . S
O257 C256 1.249 . S
O258 Zn248 2.067 . S
O258 C256 1.270 . S
C259 O252 1.262 . S
C259 O260 1.232 . S
O260 C259 1.232 . S
C261 O253 1.260 . S
C261 O254 1.257 . S
Zn262 O265 2.031 . S
Zn262 O267 2.049 . S
Zn262 O272 2.067 . S
Zn263 O264 1.962 . S
Zn263 O266 1.986 . S
Zn263 O268 1.996 . S
Zn263 O271 1.943 . S
O264 Zn263 1.962 . S
O264 C269 1.254 . S
O265 Zn262 2.031 . S
O265 C269 1.269 . S
O266 Zn263 1.986 . S
O266 C273 1.262 . S
O267 Zn262 2.049 . S
O267 C275 1.260 . S
O268 Zn263 1.996 . S
O268 C275 1.257 . S
C269 O264 1.254 . S
C269 O265 1.269 . S
C270 O271 1.249 . S
C270 O272 1.270 . S
O271 Zn263 1.943 . S
O271 C270 1.249 . S
O272 Zn262 2.067 . S
O272 C270 1.270 . S
C273 O266 1.262 . S
C273 O274 1.232 . S
O274 C273 1.232 . S
C275 O267 1.260 . S
C275 O268 1.257 . S
Zn276 O279 2.031 . S
Zn276 O281 2.049 . S
Zn276 O286 2.067 . S
Zn277 O278 1.962 . S
Zn277 O280 1.986 . S
Zn277 O282 1.996 . S
Zn277 O285 1.943 . S
O278 Zn277 1.962 . S
O278 C283 1.254 . S
O279 Zn276 2.031 . S
O279 C283 1.269 . S
O280 Zn277 1.986 . S
O280 C287 1.262 . S
O281 Zn276 2.049 . S
O281 C289 1.260 . S
O282 Zn277 1.996 . S
O282 C289 1.257 . S
C283 O278 1.254 . S
C283 O279 1.269 . S
C284 O285 1.249 . S
C284 O286 1.270 . S
O285 Zn277 1.943 . S
O285 C284 1.249 . S
O286 Zn276 2.067 . S
O286 C284 1.270 . S
C287 O280 1.262 . S
C287 O288 1.232 . S
O288 C287 1.232 . S
C289 O281 1.260 . S
C289 O282 1.257 . S
Zn290 O293 2.031 . S
Zn290 O295 2.049 . S
Zn290 O300 2.067 . S
Zn291 O292 1.962 . S
Zn291 O294 1.986 . S
Zn291 O296 1.996 1_545 S
Zn291 O299 1.943 . S
O292 Zn291 1.962 . S
O292 C297 1.254 . S
O293 Zn290 2.031 . S
O293 C297 1.269 1_565 S
O294 Zn291 1.986 . S
O294 C301 1.262 . S
O295 Zn290 2.049 . S
O295 C303 1.260 . S
O296 Zn291 1.996 1_565 S
O296 C303 1.257 . S
C297 O292 1.254 . S
C297 O293 1.269 1_545 S
C298 O299 1.249 1_565 S
C298 O300 1.270 . S
O299 Zn291 1.943 . S
O299 C298 1.249 1_545 S
O300 Zn290 2.067 . S
O300 C298 1.270 . S
C301 O294 1.262 . S
C301 O302 1.232 . S
O302 C301 1.232 . S
C303 O295 1.260 . S
C303 O296 1.257 . S
Zn304 O307 2.031 . S
Zn304 O309 2.049 1_455 S
Zn304 O314 2.067 1_455 S
Zn305 O306 1.962 . S
Zn305 O308 1.986 . S
Zn305 O310 1.996 . S
Zn305 O313 1.943 1_455 S
O306 Zn305 1.962 . S
O306 C311 1.254 . S
O307 Zn304 2.031 . S
O307 C311 1.269 . S
O308 Zn305 1.986 . S
O308 C315 1.262 . S
O309 Zn304 2.049 1_655 S
O309 C317 1.260 1_655 S
O310 Zn305 1.996 . S
O310 C317 1.257 . S
C311 O306 1.254 . S
C311 O307 1.269 . S
C312 O313 1.249 . S
C312 O314 1.270 . S
O313 Zn305 1.943 1_655 S
O313 C312 1.249 . S
O314 Zn304 2.067 1_655 S
O314 C312 1.270 . S
C315 O308 1.262 . S
C315 O316 1.232 . S
O316 C315 1.232 . S
C317 O309 1.260 1_455 S
C317 O310 1.257 . S
Zn318 O321 2.031 . S
Zn318 O323 2.049 . S
Zn318 O328 2.067 . S
Zn319 O320 1.962 . S
Zn319 O322 1.986 . S
Zn319 O324 1.996 . S
Zn319 O327 1.943 . S
O320 Zn319 1.962 . S
O320 C325 1.254 . S
O321 Zn318 2.031 . S
O321 C325 1.269 . S
O322 Zn319 1.986 . S
O322 C329 1.262 . S
O323 Zn318 2.049 . S
O323 C331 1.260 . S
O324 Zn319 1.996 . S
O324 C331 1.257 . S
C325 O320 1.254 . S
C325 O321 1.269 . S
C326 O327 1.249 . S
C326 O328 1.270 . S
O327 Zn319 1.943 . S
O327 C326 1.249 . S
O328 Zn318 2.067 . S
O328 C326 1.270 . S
C329 O322 1.262 . S
C329 O330 1.232 . S
O330 C329 1.232 . S
C331 O323 1.260 . S
C331 O324 1.257 . S
Zn332 O335 2.031 1_655 S
Zn332 O337 2.049 . S
Zn332 O342 2.067 . S
Zn333 O334 1.962 . S
Zn333 O336 1.986 . S
Zn333 O338 1.996 1_455 S
Zn333 O341 1.943 . S
O334 Zn333 1.962 . S
O334 C339 1.254 . S
O335 Zn332 2.031 1_455 S
O335 C339 1.269 . S
O336 Zn333 1.986 . S
O336 C343 1.262 . S
O337 Zn332 2.049 . S
O337 C345 1.260 . S
O338 Zn333 1.996 1_655 S
O338 C345 1.257 . S
C339 O334 1.254 . S
C339 O335 1.269 . S
C340 O341 1.249 . S
C340 O342 1.270 1_455 S
O341 Zn333 1.943 . S
O341 C340 1.249 . S
O342 Zn332 2.067 . S
O342 C340 1.270 1_655 S
C343 O336 1.262 . S
C343 O344 1.232 . S
O344 C343 1.232 . S
C345 O337 1.260 . S
C345 O338 1.257 . S
Zn346 O349 2.031 . S
Zn346 O351 2.049 . S
Zn346 O356 2.067 . S
Zn347 O348 1.962 . S
Zn347 O350 1.986 . S
Zn347 O352 1.996 . S
Zn347 O355 1.943 . S
O348 Zn347 1.962 . S
O348 C353 1.254 . S
O349 Zn346 2.031 . S
O349 C353 1.269 . S
O350 Zn347 1.986 . S
O350 C357 1.262 . S
O351 Zn346 2.049 . S
O351 C359 1.260 . S
O352 Zn347 1.996 . S
O352 C359 1.257 . S
C353 O348 1.254 . S
C353 O349 1.269 . S
C354 O355 1.249 . S
C354 O356 1.270 . S
O355 Zn347 1.943 . S
O355 C354 1.249 . S
O356 Zn346 2.067 . S
O356 C354 1.270 . S
C357 O350 1.262 . S
C357 O358 1.232 . S
O358 C357 1.232 . S
C359 O351 1.260 . S
C359 O352 1.257 . S
C360 C361 1.349 . S
C360 C362 1.327 . S
C360 H385 0.950 . S
C361 C360 1.349 . S
C361 C377 1.349 . S
C362 C360 1.327 . S
C362 C381 1.429 . S
C362 H386 0.950 . S
C363 C380 1.574 . S
C363 C382 1.368 . S
C363 H387 0.949 . S
H364 C368 0.949 . S
C365 C366 1.349 . S
C365 C367 1.327 . S
C365 H388 0.950 . S
C366 C365 1.349 . S
C366 C378 1.349 . S
C367 C365 1.327 . S
C367 C383 1.429 . S
C367 H389 0.950 . S
C368 H364 0.949 . S
C368 C376 1.574 . S
C368 C384 1.368 . S
H369 C377 0.950 . S
H370 C375 0.950 . S
H371 C376 0.949 . S
H372 C378 0.950 . S
H373 C379 0.950 . S
H374 C380 0.949 . S
C375 H370 0.950 . S
C375 C377 1.327 . S
C375 C381 1.429 . S
C376 C368 1.574 . S
C376 H371 0.949 . S
C376 C382 1.368 . S
C377 C361 1.349 . S
C377 H369 0.950 . S
C377 C375 1.327 . S
C378 C366 1.349 . S
C378 H372 0.950 . S
C378 C379 1.327 . S
C379 H373 0.950 . S
C379 C378 1.327 . S
C379 C383 1.429 . S
C380 C363 1.574 . S
C380 H374 0.949 . S
C380 C384 1.368 . S
C381 C362 1.429 . S
C381 C375 1.429 . S
C381 C382 1.523 . S
C382 C363 1.368 . S
C382 C376 1.368 . S
C382 C381 1.523 . S
C383 C367 1.429 . S
C383 C379 1.429 . S
C383 C384 1.523 . S
C384 C368 1.368 . S
C384 C380 1.368 . S
C384 C383 1.523 . S
H385 C360 0.950 . S
H386 C362 0.950 . S
H387 C363 0.949 . S
H388 C365 0.950 . S
H389 C367 0.950 . S
C390 C391 1.349 1_655 S
C390 C392 1.327 1_655 S
C390 H415 0.950 . S
C391 C390 1.349 1_455 S
C391 C407 1.349 . S
C392 C390 1.327 1_455 S
C392 C411 1.429 . S
C392 H416 0.950 . S
C393 C410 1.574 . S
C393 C412 1.368 . S
C393 H417 0.949 . S
H394 C398 0.949 . S
C395 C396 1.349 . S
C395 C397 1.327 . S
C395 H418 0.950 . S
C396 C395 1.349 . S
C396 C408 1.349 . S
C397 C395 1.327 . S
C397 C413 1.429 . S
C397 H419 0.950 . S
C398 H394 0.949 . S
C398 C406 1.574 . S
C398 C414 1.368 . S
H399 C407 0.950 . S
H400 C405 0.950 . S
H401 C406 0.949 . S
H402 C408 0.950 . S
H403 C409 0.950 . S
H404 C410 0.949 . S
C405 H400 0.950 . S
C405 C407 1.327 . S
C405 C411 1.429 . S
C406 C398 1.574 . S
C406 H401 0.949 . S
C406 C412 1.368 . S
C407 C391 1.349 . S
C407 H399 0.950 . S
C407 C405 1.327 . S
C408 C396 1.349 . S
C408 H402 0.950 . S
C408 C409 1.327 . S
C409 H403 0.950 . S
C409 C408 1.327 . S
C409 C413 1.429 . S
C410 C393 1.574 . S
C410 H404 0.949 . S
C410 C414 1.368 . S
C411 C392 1.429 . S
C411 C405 1.429 . S
C411 C412 1.523 . S
C412 C393 1.368 . S
C412 C406 1.368 . S
C412 C411 1.523 . S
C413 C397 1.429 . S
C413 C409 1.429 . S
C413 C414 1.523 . S
C414 C398 1.368 . S
C414 C410 1.368 . S
C414 C413 1.523 . S
H415 C390 0.950 . S
H416 C392 0.950 . S
H417 C393 0.949 . S
H418 C395 0.950 . S
H419 C397 0.950 . S
C420 C421 1.349 . S
C420 C422 1.327 . S
C420 H445 0.950 . S
C421 C420 1.349 . S
C421 C437 1.349 . S
C422 C420 1.327 . S
C422 C441 1.429 . S
C422 H446 0.950 . S
C423 C440 1.574 . S
C423 C442 1.368 . S
C423 H447 0.949 . S
H424 C428 0.949 . S
C425 C426 1.349 . S
C425 C427 1.327 . S
C425 H448 0.950 . S
C426 C425 1.349 . S
C426 C438 1.349 . S
C427 C425 1.327 . S
C427 C443 1.429 . S
C427 H449 0.950 . S
C428 H424 0.949 . S
C428 C436 1.574 . S
C428 C444 1.368 . S
H429 C437 0.950 . S
H430 C435 0.950 . S
H431 C436 0.949 . S
H432 C438 0.950 . S
H433 C439 0.950 . S
H434 C440 0.949 . S
C435 H430 0.950 . S
C435 C437 1.327 . S
C435 C441 1.429 . S
C436 C428 1.574 . S
C436 H431 0.949 . S
C436 C442 1.368 . S
C437 C421 1.349 . S
C437 H429 0.950 . S
C437 C435 1.327 . S
C438 C426 1.349 . S
C438 H432 0.950 . S
C438 C439 1.327 . S
C439 H433 0.950 . S
C439 C438 1.327 . S
C439 C443 1.429 . S
C440 C423 1.574 . S
C440 H434 0.949 . S
C440 C444 1.368 . S
C441 C422 1.429 . S
C441 C435 1.429 . S
C441 C442 1.523 . S
C442 C423 1.368 . S
C442 C436 1.368 . S
C442 C441 1.523 . S
C443 C427 1.429 . S
C443 C439 1.429 . S
C443 C444 1.523 . S
C444 C428 1.368 . S
C444 C440 1.368 . S
C444 C443 1.523 . S
H445 C420 0.950 . S
H446 C422 0.950 . S
H447 C423 0.949 . S
H448 C425 0.950 . S
H449 C427 0.950 . S
C450 C451 1.349 . S
C450 C452 1.327 . S
C450 H475 0.950 . S
C451 C450 1.349 . S
C451 C467 1.349 . S
C452 C450 1.327 . S
C452 C471 1.429 . S
C452 H476 0.950 1_565 S
C453 C470 1.574 1_455 S
C453 C472 1.368 . S
C453 H477 0.949 . S
H454 C458 0.949 . S
C455 C456 1.349 1_565 S
C455 C457 1.327 . S
C455 H478 0.950 . S
C456 C455 1.349 1_545 S
C456 C468 1.349 . S
C457 C455 1.327 . S
C457 C473 1.429 . S
C457 H479 0.950 . S
C458 H454 0.949 . S
C458 C466 1.572 . S
C458 C474 1.368 1_545 S
H459 C467 0.950 . S
H460 C465 0.950 . S
H461 C466 0.946 . S
H462 C468 0.950 . S
H463 C469 0.950 1_455 S
H464 C470 0.949 . S
C465 H460 0.950 . S
C465 C467 1.327 . S
C465 C471 1.429 . S
C466 C458 1.572 . S
C466 H461 0.946 . S
C466 C472 1.374 1_545 S
C467 C451 1.349 . S
C467 H459 0.950 . S
C467 C465 1.327 . S
C468 C456 1.349 . S
C468 H462 0.950 . S
C468 C469 1.327 . S
C469 H463 0.950 1_655 S
C469 C468 1.327 . S
C469 C473 1.429 1_545 S
C470 C453 1.574 1_655 S
C470 H464 0.949 . S
C470 C474 1.368 1_655 S
C471 C452 1.429 . S
C471 C465 1.429 . S
C471 C472 1.523 . S
C472 C453 1.368 . S
C472 C466 1.374 1_565 S
C472 C471 1.523 . S
C473 C457 1.429 . S
C473 C469 1.429 1_565 S
C473 C474 1.523 1_655 S
C474 C458 1.368 1_565 S
C474 C470 1.368 1_455 S
C474 C473 1.523 1_455 S
H475 C450 0.950 . S
H476 C452 0.950 1_545 S
H477 C453 0.949 . S
H478 C455 0.950 . S
H479 C457 0.950 . S
C480 C481 1.349 . S
C480 C482 1.327 . S
C480 H505 0.950 . S
C481 C480 1.349 . S
C481 C497 1.349 . S
C482 C480 1.327 . S
C482 C501 1.429 . S
C482 H506 0.950 . S
C483 C500 1.574 . S
C483 C502 1.368 . S
C483 H507 0.949 . S
H484 C488 0.949 . S
C485 C486 1.349 . S
C485 C487 1.327 . S
C485 H508 0.950 . S
C486 C485 1.349 . S
C486 C498 1.349 . S
C487 C485 1.327 . S
C487 C503 1.429 . S
C487 H509 0.950 . S
C488 H484 0.949 . S
C488 C496 1.574 . S
C488 C504 1.368 . S
H489 C497 0.950 . S
H490 C495 0.950 . S
H491 C496 0.949 . S
H492 C498 0.950 . S
H493 C499 0.950 . S
H494 C500 0.949 . S
C495 H490 0.950 . S
C495 C497 1.327 . S
C495 C501 1.429 . S
C496 C488 1.574 . S
C496 H491 0.949 . S
C496 C502 1.368 . S
C497 C481 1.349 . S
C497 H489 0.950 . S
C497 C495 1.327 . S
C498 C486 1.349 . S
C498 H492 0.950 . S
C498 C499 1.327 . S
C499 H493 0.950 . S
C499 C498 1.327 . S
C499 C503 1.429 . S
C500 C483 1.574 . S
C500 H494 0.949 . S
C500 C504 1.368 . S
C501 C482 1.429 . S
C501 C495 1.429 . S
C501 C502 1.523 . S
C502 C483 1.368 . S
C502 C496 1.368 . S
C502 C501 1.523 . S
C503 C487 1.429 . S
C503 C499 1.429 . S
C503 C504 1.523 . S
C504 C488 1.368 . S
C504 C500 1.368 . S
C504 C503 1.523 . S
H505 C480 0.950 . S
H506 C482 0.950 . S
H507 C483 0.949 . S
H508 C485 0.950 . S
H509 C487 0.950 . S
C510 C511 1.349 . S
C510 C512 1.327 . S
C510 H535 0.950 . S
C511 C510 1.349 . S
C511 C527 1.349 . S
C512 C510 1.327 . S
C512 C531 1.429 . S
C512 H536 0.950 . S
C513 C530 1.574 . S
C513 C532 1.368 . S
C513 H537 0.949 . S
H514 C518 0.949 . S
C515 C516 1.349 . S
C515 C517 1.327 . S
C515 H538 0.950 . S
C516 C515 1.349 . S
C516 C528 1.349 . S
C517 C515 1.327 . S
C517 C533 1.429 . S
C517 H539 0.950 . S
C518 H514 0.949 . S
C518 C526 1.574 . S
C518 C534 1.368 . S
H519 C527 0.950 . S
H520 C525 0.950 . S
H521 C526 0.949 . S
H522 C528 0.950 . S
H523 C529 0.950 . S
H524 C530 0.949 . S
C525 H520 0.950 . S
C525 C527 1.327 . S
C525 C531 1.429 . S
C526 C518 1.574 . S
C526 H521 0.949 . S
C526 C532 1.368 . S
C527 C511 1.349 . S
C527 H519 0.950 . S
C527 C525 1.327 . S
C528 C516 1.349 . S
C528 H522 0.950 . S
C528 C529 1.327 . S
C529 H523 0.950 . S
C529 C528 1.327 . S
C529 C533 1.429 . S
C530 C513 1.574 . S
C530 H524 0.949 . S
C530 C534 1.368 . S
C531 C512 1.429 . S
C531 C525 1.429 . S
C531 C532 1.523 . S
C532 C513 1.368 . S
C532 C526 1.368 . S
C532 C531 1.523 . S
C533 C517 1.429 . S
C533 C529 1.429 . S
C533 C534 1.523 . S
C534 C518 1.368 . S
C534 C530 1.368 . S
C534 C533 1.523 . S
H535 C510 0.950 . S
H536 C512 0.950 . S
H537 C513 0.949 . S
H538 C515 0.950 . S
H539 C517 0.950 . S
C540 C541 1.349 . S
C540 C542 1.327 . S
C540 H565 0.950 . S
C541 C540 1.349 . S
C541 C557 1.349 . S
C542 C540 1.327 . S
C542 C561 1.429 . S
C542 H566 0.950 . S
C543 C560 1.574 . S
C543 C562 1.368 . S
C543 H567 0.949 . S
H544 C548 0.949 . S
C545 C546 1.349 . S
C545 C547 1.327 . S
C545 H568 0.950 . S
C546 C545 1.349 . S
C546 C558 1.349 . S
C547 C545 1.327 . S
C547 C563 1.429 . S
C547 H569 0.950 . S
C548 H544 0.949 . S
C548 C556 1.574 . S
C548 C564 1.368 . S
H549 C557 0.950 . S
H550 C555 0.950 . S
H551 C556 0.949 . S
H552 C558 0.950 . S
H553 C559 0.950 . S
H554 C560 0.949 . S
C555 H550 0.950 . S
C555 C557 1.327 . S
C555 C561 1.429 . S
C556 C548 1.574 . S
C556 H551 0.949 . S
C556 C562 1.368 . S
C557 C541 1.349 . S
C557 H549 0.950 . S
C557 C555 1.327 . S
C558 C546 1.349 . S
C558 H552 0.950 . S
C558 C559 1.327 . S
C559 H553 0.950 . S
C559 C558 1.327 . S
C559 C563 1.429 . S
C560 C543 1.574 . S
C560 H554 0.949 . S
C560 C564 1.368 . S
C561 C542 1.429 . S
C561 C555 1.429 . S
C561 C562 1.523 . S
C562 C543 1.368 . S
C562 C556 1.368 . S
C562 C561 1.523 . S
C563 C547 1.429 . S
C563 C559 1.429 . S
C563 C564 1.523 . S
C564 C548 1.368 . S
C564 C560 1.368 . S
C564 C563 1.523 . S
H565 C540 0.950 . S
H566 C542 0.950 . S
H567 C543 0.949 . S
H568 C545 0.950 . S
H569 C547 0.950 . S
C570 C571 1.349 . S
C570 C572 1.327 . S
C570 H595 0.950 . S
C571 C570 1.349 . S
C571 C587 1.349 . S
C572 C570 1.327 . S
C572 C591 1.429 . S
C572 H596 0.950 . S
C573 C590 1.574 . S
C573 C592 1.368 . S
C573 H597 0.949 1_565 S
H574 C578 0.949 . S
C575 C576 1.349 1_545 S
C575 C577 1.327 . S
C575 H598 0.950 . S
C576 C575 1.349 1_565 S
C576 C588 1.349 . S
C577 C575 1.327 . S
C577 C593 1.399 1_545 S
C577 H599 0.981 . S
C578 H574 0.949 . S
C578 C586 1.574 . S
C578 C594 1.368 . S
H579 C587 0.950 . S
H580 C585 0.966 . S
H581 C586 0.949 . S
H582 C588 0.950 . S
H583 C589 0.950 . S
H584 C590 0.949 1_545 S
C585 H580 0.966 . S
C585 C587 1.327 . S
C585 C591 1.429 . S
C586 C578 1.574 . S
C586 H581 0.949 . S
C586 C592 1.368 . S
C587 C571 1.349 . S
C587 H579 0.950 . S
C587 C585 1.327 . S
C588 C576 1.349 . S
C588 H582 0.950 . S
C588 C589 1.327 . S
C589 H583 0.950 . S
C589 C588 1.327 . S
C589 C593 1.429 . S
C590 C573 1.574 . S
C590 H584 0.949 1_565 S
C590 C594 1.368 . S
C591 C572 1.429 . S
C591 C585 1.429 . S
C591 C592 1.523 . S
C592 C573 1.368 . S
C592 C586 1.368 . S
C592 C591 1.523 . S
C593 C577 1.399 1_565 S
C593 C589 1.429 . S
C593 C594 1.523 . S
C594 C578 1.368 . S
C594 C590 1.368 . S
C594 C593 1.523 . S
H595 C570 0.950 . S
H596 C572 0.950 . S
H597 C573 0.949 1_545 S
H598 C575 0.950 . S
H599 C577 0.981 . S
C600 C601 1.349 . S
C600 C602 1.327 . S
C600 H625 0.950 . S
C601 C600 1.349 . S
C601 C617 1.349 . S
C602 C600 1.327 . S
C602 C621 1.429 . S
C602 H626 0.950 . S
C603 C620 1.574 . S
C603 C622 1.368 . S
C603 H627 0.949 . S
H604 C608 0.949 . S
C605 C606 1.349 . S
C605 C607 1.327 . S
C605 H628 0.950 . S
C606 C605 1.349 . S
C606 C618 1.349 . S
C607 C605 1.327 . S
C607 C623 1.429 . S
C607 H629 0.950 . S
C608 H604 0.949 . S
C608 C616 1.574 . S
C608 C624 1.368 . S
H609 C617 0.950 . S
H610 C615 0.950 . S
H611 C616 0.949 . S
H612 C618 0.950 . S
H613 C619 0.950 . S
H614 C620 0.949 . S
C615 H610 0.950 . S
C615 C617 1.327 . S
C615 C621 1.429 . S
C616 C608 1.574 . S
C616 H611 0.949 . S
C616 C622 1.368 . S
C617 C601 1.349 . S
C617 H609 0.950 . S
C617 C615 1.327 . S
C618 C606 1.349 . S
C618 H612 0.950 . S
C618 C619 1.327 . S
C619 H613 0.950 . S
C619 C618 1.327 . S
C619 C623 1.429 . S
C620 C603 1.574 . S
C620 H614 0.949 . S
C620 C624 1.368 . S
C621 C602 1.429 . S
C621 C615 1.429 . S
C621 C622 1.523 . S
C622 C603 1.368 . S
C622 C616 1.368 . S
C622 C621 1.523 . S
C623 C607 1.429 . S
C623 C619 1.429 . S
C623 C624 1.523 . S
C624 C608 1.368 . S
C624 C620 1.368 . S
C624 C623 1.523 . S
H625 C600 0.950 . S
H626 C602 0.950 . S
H627 C603 0.949 . S
H628 C605 0.950 . S
H629 C607 0.950 . S
C630 C631 1.349 . S
C630 C632 1.327 . S
C630 H655 0.950 . S
C631 C630 1.349 . S
C631 C647 1.349 . S
C632 C630 1.327 . S
C632 C651 1.429 . S
C632 H656 0.950 . S
C633 C650 1.574 . S
C633 C652 1.368 . S
C633 H657 0.949 . S
H634 C638 0.949 . S
C635 C636 1.349 . S
C635 C637 1.327 . S
C635 H658 0.950 . S
C636 C635 1.349 . S
C636 C648 1.349 . S
C637 C635 1.327 . S
C637 C653 1.429 . S
C637 H659 0.950 . S
C638 H634 0.949 . S
C638 C646 1.574 . S
C638 C654 1.368 . S
H639 C647 0.950 . S
H640 C645 0.950 . S
H641 C646 0.949 . S
H642 C648 0.950 . S
H643 C649 0.950 . S
H644 C650 0.949 . S
C645 H640 0.950 . S
C645 C647 1.327 . S
C645 C651 1.429 . S
C646 C638 1.574 . S
C646 H641 0.949 . S
C646 C652 1.368 . S
C647 C631 1.349 . S
C647 H639 0.950 . S
C647 C645 1.327 . S
C648 C636 1.349 . S
C648 H642 0.950 . S
C648 C649 1.327 . S
C649 H643 0.950 . S
C649 C648 1.327 . S
C649 C653 1.429 . S
C650 C633 1.574 . S
C650 H644 0.949 . S
C650 C654 1.368 . S
C651 C632 1.429 . S
C651 C645 1.429 . S
C651 C652 1.523 . S
C652 C633 1.368 . S
C652 C646 1.368 . S
C652 C651 1.523 . S
C653 C637 1.429 . S
C653 C649 1.429 . S
C653 C654 1.523 . S
C654 C638 1.368 . S
C654 C650 1.368 . S
C654 C653 1.523 . S
H655 C630 0.950 . S
H656 C632 0.950 . S
H657 C633 0.949 . S
H658 C635 0.950 . S
H659 C637 0.950 . S
C660 C661 1.349 . S
C660 C662 1.327 . S
C660 H685 0.950 . S
C661 C660 1.349 . S
C661 C677 1.349 . S
C662 C660 1.327 . S
C662 C681 1.429 . S
C662 H686 0.950 . S
C663 C680 1.574 . S
C663 C682 1.368 . S
C663 H687 0.949 . S
H664 C668 0.949 . S
C665 C666 1.349 . S
C665 C667 1.327 . S
C665 H688 0.950 . S
C666 C665 1.349 . S
C666 C678 1.349 . S
C667 C665 1.327 . S
C667 C683 1.429 . S
C667 H689 0.950 . S
C668 H664 0.949 . S
C668 C676 1.574 . S
C668 C684 1.368 . S
H669 C677 0.950 . S
H670 C675 0.950 . S
H671 C676 0.949 . S
H672 C678 0.950 . S
H673 C679 0.950 . S
H674 C680 0.949 . S
C675 H670 0.950 . S
C675 C677 1.327 . S
C675 C681 1.429 . S
C676 C668 1.574 . S
C676 H671 0.949 . S
C676 C682 1.368 . S
C677 C661 1.349 . S
C677 H669 0.950 . S
C677 C675 1.327 . S
C678 C666 1.349 . S
C678 H672 0.950 . S
C678 C679 1.327 . S
C679 H673 0.950 . S
C679 C678 1.327 . S
C679 C683 1.429 . S
C680 C663 1.574 . S
C680 H674 0.949 . S
C680 C684 1.368 . S
C681 C662 1.429 . S
C681 C675 1.429 . S
C681 C682 1.523 . S
C682 C663 1.368 . S
C682 C676 1.368 . S
C682 C681 1.523 . S
C683 C667 1.429 . S
C683 C679 1.429 . S
C683 C684 1.523 . S
C684 C668 1.368 . S
C684 C680 1.368 . S
C684 C683 1.523 . S
H685 C660 0.950 . S
H686 C662 0.950 . S
H687 C663 0.949 . S
H688 C665 0.950 . S
H689 C667 0.950 . S
C690 C691 1.349 . S
C690 C692 1.327 . S
C690 H715 0.950 . S
C691 C690 1.349 . S
C691 C707 1.349 . S
C692 C690 1.327 . S
C692 C711 1.429 . S
C692 H716 0.950 . S
C693 C710 1.574 . S
C693 C712 1.368 . S
C693 H717 0.949 . S
H694 C698 0.949 . S
C695 C696 1.349 . S
C695 C697 1.327 . S
C695 H718 0.950 . S
C696 C695 1.349 . S
C696 C708 1.349 . S
C697 C695 1.327 . S
C697 C713 1.429 . S
C697 H719 0.950 . S
C698 H694 0.949 . S
C698 C706 1.574 . S
C698 C714 1.368 . S
H699 C707 0.950 . S
H700 C705 0.950 . S
H701 C706 0.949 . S
H702 C708 0.950 . S
H703 C709 0.950 . S
H704 C710 0.949 . S
C705 H700 0.950 . S
C705 C707 1.327 . S
C705 C711 1.429 . S
C706 C698 1.574 . S
C706 H701 0.949 . S
C706 C712 1.368 . S
C707 C691 1.349 . S
C707 H699 0.950 . S
C707 C705 1.327 . S
C708 C696 1.349 . S
C708 H702 0.950 . S
C708 C709 1.327 . S
C709 H703 0.950 . S
C709 C708 1.327 . S
C709 C713 1.429 . S
C710 C693 1.574 . S
C710 H704 0.949 . S
C710 C714 1.368 . S
C711 C692 1.429 . S
C711 C705 1.429 . S
C711 C712 1.523 . S
C712 C693 1.368 . S
C712 C706 1.368 . S
C712 C711 1.523 . S
C713 C697 1.429 . S
C713 C709 1.429 . S
C713 C714 1.523 . S
C714 C698 1.368 . S
C714 C710 1.368 . S
C714 C713 1.523 . S
H715 C690 0.950 . S
H716 C692 0.950 . S
H717 C693 0.949 . S
H718 C695 0.950 . S
H719 C697 0.950 . S
C720 C721 1.349 . S
C720 C722 1.327 . S
C720 H745 0.950 . S
C721 C720 1.349 . S
C721 C737 1.349 . S
C722 C720 1.327 . S
C722 C741 1.429 . S
C722 H746 0.950 . S
C723 C740 1.574 . S
C723 C742 1.368 . S
C723 H747 0.949 . S
H724 C728 0.949 . S
C725 C726 1.349 . S
C725 C727 1.327 . S
C725 H748 0.950 . S
C726 C725 1.349 . S
C726 C738 1.349 . S
C727 C725 1.327 . S
C727 C743 1.429 . S
C727 H749 0.950 . S
C728 H724 0.949 . S
C728 C736 1.574 . S
C728 C744 1.368 . S
H729 C737 0.950 . S
H730 C735 0.950 . S
H731 C736 0.949 . S
H732 C738 0.950 . S
H733 C739 0.950 . S
H734 C740 0.949 . S
C735 H730 0.950 . S
C735 C737 1.327 . S
C735 C741 1.429 . S
C736 C728 1.574 . S
C736 H731 0.949 . S
C736 C742 1.368 . S
C737 C721 1.349 . S
C737 H729 0.950 . S
C737 C735 1.327 . S
C738 C726 1.349 . S
C738 H732 0.950 . S
C738 C739 1.327 . S
C739 H733 0.950 . S
C739 C738 1.327 . S
C739 C743 1.429 . S
C740 C723 1.574 . S
C740 H734 0.949 . S
C740 C744 1.368 . S
C741 C722 1.429 . S
C741 C735 1.429 . S
C741 C742 1.523 . S
C742 C723 1.368 . S
C742 C736 1.368 . S
C742 C741 1.523 . S
C743 C727 1.429 . S
C743 C739 1.429 . S
C743 C744 1.523 . S
C744 C728 1.368 . S
C744 C740 1.368 . S
C744 C743 1.523 . S
H745 C720 0.950 . S
H746 C722 0.950 . S
H747 C723 0.949 . S
H748 C725 0.950 . S
H749 C727 0.950 . S
C750 C751 1.349 . S
C750 C752 1.327 . S
C750 H775 0.950 . S
C751 C750 1.349 . S
C751 C767 1.349 . S
C752 C750 1.327 . S
C752 C771 1.429 . S
C752 H776 0.950 . S
C753 C770 1.574 . S
C753 C772 1.368 . S
C753 H777 0.949 . S
H754 C758 0.949 . S
C755 C756 1.349 . S
C755 C757 1.327 . S
C755 H778 0.950 . S
C756 C755 1.349 . S
C756 C768 1.349 . S
C757 C755 1.327 . S
C757 C773 1.429 . S
C757 H779 0.950 . S
C758 H754 0.949 . S
C758 C766 1.574 . S
C758 C774 1.368 . S
H759 C767 0.950 . S
H760 C765 0.950 . S
H761 C766 0.949 . S
H762 C768 0.950 . S
H763 C769 0.950 . S
H764 C770 0.949 . S
C765 H760 0.950 . S
C765 C767 1.327 . S
C765 C771 1.429 . S
C766 C758 1.574 . S
C766 H761 0.949 . S
C766 C772 1.368 . S
C767 C751 1.349 . S
C767 H759 0.950 . S
C767 C765 1.327 . S
C768 C756 1.349 . S
C768 H762 0.950 . S
C768 C769 1.327 . S
C769 H763 0.950 . S
C769 C768 1.327 . S
C769 C773 1.429 . S
C770 C753 1.574 . S
C770 H764 0.949 . S
C770 C774 1.368 . S
C771 C752 1.429 . S
C771 C765 1.429 . S
C771 C772 1.523 . S
C772 C753 1.368 . S
C772 C766 1.368 . S
C772 C771 1.523 . S
C773 C757 1.429 . S
C773 C769 1.429 . S
C773 C774 1.523 . S
C774 C758 1.368 . S
C774 C770 1.368 . S
C774 C773 1.523 . S
H775 C750 0.950 . S
H776 C752 0.950 . S
H777 C753 0.949 . S
H778 C755 0.950 . S
H779 C757 0.950 . S
C780 C781 1.349 . S
C780 C782 1.327 . S
C780 H805 0.950 . S
C781 C780 1.349 . S
C781 C797 1.349 . S
C782 C780 1.327 . S
C782 C801 1.429 . S
C782 H806 0.950 . S
C783 C800 1.574 . S
C783 C802 1.368 . S
C783 H807 0.949 . S
H784 C788 0.949 . S
C785 C786 1.349 . S
C785 C787 1.327 . S
C785 H808 0.950 . S
C786 C785 1.349 . S
C786 C798 1.349 . S
C787 C785 1.327 . S
C787 C803 1.429 . S
C787 H809 0.950 . S
C788 H784 0.949 . S
C788 C796 1.574 . S
C788 C804 1.368 . S
H789 C797 0.950 . S
H790 C795 0.950 . S
H791 C796 0.949 . S
H792 C798 0.950 . S
H793 C799 0.950 . S
H794 C800 0.949 . S
C795 H790 0.950 . S
C795 C797 1.327 . S
C795 C801 1.429 . S
C796 C788 1.574 . S
C796 H791 0.949 . S
C796 C802 1.368 . S
C797 C781 1.349 . S
C797 H789 0.950 . S
C797 C795 1.327 . S
C798 C786 1.349 . S
C798 H792 0.950 . S
C798 C799 1.327 . S
C799 H793 0.950 . S
C799 C798 1.327 . S
C799 C803 1.429 . S
C800 C783 1.574 . S
C800 H794 0.949 . S
C800 C804 1.368 . S
C801 C782 1.429 . S
C801 C795 1.429 . S
C801 C802 1.523 . S
C802 C783 1.368 . S
C802 C796 1.368 . S
C802 C801 1.523 . S
C803 C787 1.429 . S
C803 C799 1.429 . S
C803 C804 1.523 . S
C804 C788 1.368 . S
C804 C800 1.368 . S
C804 C803 1.523 . S
H805 C780 0.950 . S
H806 C782 0.950 . S
H807 C783 0.949 . S
H808 C785 0.950 . S
H809 C787 0.950 . S
C810 C811 1.349 . S
C810 C812 1.327 . S
C810 H835 0.950 . S
C811 C810 1.349 . S
C811 C827 1.349 . S
C812 C810 1.327 . S
C812 C831 1.429 . S
C812 H836 0.950 1_655 S
C813 C830 1.574 . S
C813 C832 1.368 . S
C813 H837 0.949 . S
H814 C818 0.949 . S
C815 C816 1.349 1_655 S
C815 C817 1.327 . S
C815 H838 0.950 . S
C816 C815 1.349 1_455 S
C816 C828 1.349 . S
C817 C815 1.327 . S
C817 C833 1.441 . S
C817 H839 0.950 . S
C818 H814 0.949 . S
C818 C826 1.574 . S
C818 C834 1.368 1_455 S
H819 C827 0.950 . S
H820 C825 0.950 . S
H821 C826 0.949 . S
H822 C828 0.950 . S
H823 C829 0.950 . S
H824 C830 0.949 . S
C825 H820 0.950 . S
C825 C827 1.327 . S
C825 C831 1.429 . S
C826 C818 1.574 . S
C826 H821 0.949 . S
C826 C832 1.368 1_455 S
C827 C811 1.349 . S
C827 H819 0.950 . S
C827 C825 1.327 . S
C828 C816 1.349 . S
C828 H822 0.950 . S
C828 C829 1.327 . S
C829 H823 0.950 . S
C829 C828 1.327 . S
C829 C833 1.415 1_455 S
C830 C813 1.574 . S
C830 H824 0.949 . S
C830 C834 1.368 . S
C831 C812 1.429 . S
C831 C825 1.429 . S
C831 C832 1.523 . S
C832 C813 1.368 . S
C832 C826 1.368 1_655 S
C832 C831 1.523 . S
C833 C817 1.441 . S
C833 C829 1.415 1_655 S
C833 C834 1.525 . S
C834 C818 1.368 1_655 S
C834 C830 1.368 . S
C834 C833 1.525 . S
H835 C810 0.950 . S
H836 C812 0.950 1_455 S
H837 C813 0.949 . S
H838 C815 0.950 . S
H839 C817 0.950 . S
C840 C841 1.349 . S
C840 C842 1.327 . S
C840 H865 0.950 . S
C841 C840 1.349 . S
C841 C857 1.349 . S
C842 C840 1.327 . S
C842 C861 1.429 . S
C842 H866 0.950 . S
C843 C860 1.574 . S
C843 C862 1.368 . S
C843 H867 0.949 . S
H844 C848 0.949 . S
C845 C846 1.349 . S
C845 C847 1.327 . S
C845 H868 0.950 . S
C846 C845 1.349 . S
C846 C858 1.349 . S
C847 C845 1.327 . S
C847 C863 1.429 . S
C847 H869 0.950 . S
C848 H844 0.949 . S
C848 C856 1.574 . S
C848 C864 1.368 . S
H849 C857 0.950 . S
H850 C855 0.950 . S
H851 C856 0.949 . S
H852 C858 0.950 . S
H853 C859 0.950 . S
H854 C860 0.949 . S
C855 H850 0.950 . S
C855 C857 1.327 . S
C855 C861 1.429 . S
C856 C848 1.574 . S
C856 H851 0.949 . S
C856 C862 1.368 . S
C857 C841 1.349 . S
C857 H849 0.950 . S
C857 C855 1.327 . S
C858 C846 1.349 . S
C858 H852 0.950 . S
C858 C859 1.327 . S
C859 H853 0.950 . S
C859 C858 1.327 . S
C859 C863 1.429 . S
C860 C843 1.574 . S
C860 H854 0.949 . S
C860 C864 1.368 . S
C861 C842 1.429 . S
C861 C855 1.429 . S
C861 C862 1.523 . S
C862 C843 1.368 . S
C862 C856 1.368 . S
C862 C861 1.523 . S
C863 C847 1.429 . S
C863 C859 1.429 . S
C863 C864 1.523 . S
C864 C848 1.368 . S
C864 C860 1.368 . S
C864 C863 1.523 . S
H865 C840 0.950 . S
H866 C842 0.950 . S
H867 C843 0.949 . S
H868 C845 0.950 . S
H869 C847 0.950 . S
C870 C871 1.349 . S
C870 C872 1.327 . S
C870 H895 0.950 . S
C871 C870 1.349 . S
C871 C887 1.349 . S
C872 C870 1.327 . S
C872 C891 1.429 . S
C872 H896 0.950 . S
C873 C890 1.574 . S
C873 C892 1.368 . S
C873 H897 0.949 . S
H874 C878 0.949 . S
C875 C876 1.349 . S
C875 C877 1.327 . S
C875 H898 0.950 . S
C876 C875 1.349 . S
C876 C888 1.349 . S
C877 C875 1.327 . S
C877 C893 1.429 . S
C877 H899 0.950 . S
C878 H874 0.949 . S
C878 C886 1.574 . S
C878 C894 1.368 . S
H879 C887 0.950 . S
H880 C885 0.950 . S
H881 C886 0.949 . S
H882 C888 0.950 . S
H883 C889 0.950 . S
H884 C890 0.949 . S
C885 H880 0.950 . S
C885 C887 1.327 . S
C885 C891 1.429 . S
C886 C878 1.574 . S
C886 H881 0.949 . S
C886 C892 1.368 . S
C887 C871 1.349 . S
C887 H879 0.950 . S
C887 C885 1.327 . S
C888 C876 1.349 . S
C888 H882 0.950 . S
C888 C889 1.327 . S
C889 H883 0.950 . S
C889 C888 1.327 . S
C889 C893 1.429 . S
C890 C873 1.574 . S
C890 H884 0.949 . S
C890 C894 1.368 . S
C891 C872 1.429 . S
C891 C885 1.429 . S
C891 C892 1.523 . S
C892 C873 1.368 . S
C892 C886 1.368 . S
C892 C891 1.523 . S
C893 C877 1.429 . S
C893 C889 1.429 . S
C893 C894 1.523 . S
C894 C878 1.368 . S
C894 C890 1.368 . S
C894 C893 1.523 . S
H895 C870 0.950 . S
H896 C872 0.950 . S
H897 C873 0.949 . S
H898 C875 0.950 . S
H899 C877 0.950 . S
C900 C901 1.349 . S
C900 C902 1.327 1_545 S
C900 H925 0.950 . S
C901 C900 1.349 . S
C901 C917 1.349 . S
C902 C900 1.327 1_565 S
C902 C921 1.429 1_565 S
C902 H926 0.950 . S
C903 C920 1.574 . S
C903 C922 1.368 . S
C903 H927 0.949 1_565 S
H904 C908 0.949 . S
C905 C906 1.349 . S
C905 C907 1.312 1_554 S
C905 H928 0.950 . S
C906 C905 1.349 . S
C906 C918 1.349 1_554 S
C907 C905 1.312 1_556 S
C907 C923 1.447 . S
C907 H929 0.948 1_556 S
C908 H904 0.949 . S
C908 C916 1.574 . S
C908 C924 1.368 . S
H909 C917 0.950 . S
H910 C915 0.950 . S
H911 C916 0.949 . S
H912 C918 0.950 . S
H913 C919 0.950 . S
H914 C920 0.949 . S
C915 H910 0.950 . S
C915 C917 1.327 . S
C915 C921 1.429 . S
C916 C908 1.574 . S
C916 H911 0.949 . S
C916 C922 1.368 . S
C917 C901 1.349 . S
C917 H909 0.950 . S
C917 C915 1.327 . S
C918 C906 1.349 1_556 S
C918 H912 0.950 . S
C918 C919 1.327 . S
C919 H913 0.950 . S
C919 C918 1.327 . S
C919 C923 1.429 . S
C920 C903 1.574 . S
C920 H914 0.949 . S
C920 C924 1.368 . S
C921 C902 1.429 1_545 S
C921 C915 1.429 . S
C921 C922 1.523 1_545 S
C922 C903 1.368 . S
C922 C916 1.368 . S
C922 C921 1.523 1_565 S
C923 C907 1.447 . S
C923 C919 1.429 . S
C923 C924 1.523 . S
C924 C908 1.368 . S
C924 C920 1.368 . S
C924 C923 1.523 . S
H925 C900 0.950 . S
H926 C902 0.950 . S
H927 C903 0.949 1_545 S
H928 C905 0.950 . S
H929 C907 0.948 1_554 S
C930 C931 1.349 . S
C930 C932 1.327 . S
C930 H955 0.950 . S
C931 C930 1.349 . S
C931 C947 1.349 . S
C932 C930 1.327 . S
C932 C951 1.429 . S
C932 H956 0.950 . S
C933 C950 1.574 . S
C933 C952 1.368 . S
C933 H957 0.949 . S
H934 C938 0.949 . S
C935 C936 1.349 . S
C935 C937 1.327 . S
C935 H958 0.950 . S
C936 C935 1.349 . S
C936 C948 1.349 . S
C937 C935 1.327 . S
C937 C953 1.429 . S
C937 H959 0.950 . S
C938 H934 0.949 . S
C938 C946 1.574 . S
C938 C954 1.368 . S
H939 C947 0.950 . S
H940 C945 0.950 . S
H941 C946 0.949 . S
H942 C948 0.950 . S
H943 C949 0.950 . S
H944 C950 0.949 . S
C945 H940 0.950 . S
C945 C947 1.327 . S
C945 C951 1.429 . S
C946 C938 1.574 . S
C946 H941 0.949 . S
C946 C952 1.368 . S
C947 C931 1.349 . S
C947 H939 0.950 . S
C947 C945 1.327 . S
C948 C936 1.349 . S
C948 H942 0.950 . S
C948 C949 1.327 . S
C949 H943 0.950 . S
C949 C948 1.327 . S
C949 C953 1.429 . S
C950 C933 1.574 . S
C950 H944 0.949 . S
C950 C954 1.368 . S
C951 C932 1.429 . S
C951 C945 1.429 . S
C951 C952 1.523 . S
C952 C933 1.368 . S
C952 C946 1.368 . S
C952 C951 1.523 . S
C953 C937 1.429 . S
C953 C949 1.429 . S
C953 C954 1.523 . S
C954 C938 1.368 . S
C954 C950 1.368 . S
C954 C953 1.523 . S
H955 C930 0.950 . S
H956 C932 0.950 . S
H957 C933 0.949 . S
H958 C935 0.950 . S
H959 C937 0.950 . S
C960 C961 1.349 . S
C960 C962 1.327 1_565 S
C960 H985 0.950 . S
C961 C960 1.349 . S
C961 C977 1.349 1_565 S
C962 C960 1.327 1_545 S
C962 C981 1.429 . S
C962 H986 0.950 . S
C963 C980 1.574 . S
C963 C982 1.368 . S
C963 H987 0.949 . S
H964 C968 0.949 . S
C965 C966 1.349 . S
C965 C967 1.327 . S
C965 H988 0.950 . S
C966 C965 1.349 . S
C966 C978 1.349 . S
C967 C965 1.327 . S
C967 C983 1.429 . S
C967 H989 0.950 . S
C968 H964 0.949 . S
C968 C976 1.574 . S
C968 C984 1.368 . S
H969 C977 0.950 . S
H970 C975 0.950 . S
H971 C976 0.949 . S
H972 C978 0.950 . S
H973 C979 0.950 . S
H974 C980 0.949 . S
C975 H970 0.950 . S
C975 C977 1.327 . S
C975 C981 1.429 . S
C976 C968 1.574 . S
C976 H971 0.949 . S
C976 C982 1.368 . S
C977 C961 1.349 1_545 S
C977 H969 0.950 . S
C977 C975 1.327 . S
C978 C966 1.349 . S
C978 H972 0.950 . S
C978 C979 1.327 . S
C979 H973 0.950 . S
C979 C978 1.327 . S
C979 C983 1.429 . S
C980 C963 1.574 . S
C980 H974 0.949 . S
C980 C984 1.368 . S
C981 C962 1.429 . S
C981 C975 1.429 . S
C981 C982 1.523 . S
C982 C963 1.368 . S
C982 C976 1.368 . S
C982 C981 1.523 . S
C983 C967 1.429 . S
C983 C979 1.429 . S
C983 C984 1.523 . S
C984 C968 1.368 . S
C984 C980 1.368 . S
C984 C983 1.523 . S
H985 C960 0.950 . S
H986 C962 0.950 . S
H987 C963 0.949 . S
H988 C965 0.950 . S
H989 C967 0.950 . S
C990 C991 1.349 . S
C990 C992 1.327 . S
C990 H1015 0.950 . S
C991 C990 1.349 . S
C991 C1007 1.349 . S
C992 C990 1.327 . S
C992 C1011 1.429 . S
C992 H1016 0.950 . S
C993 C1010 1.574 . S
C993 C1012 1.368 . S
C993 H1017 0.949 . S
H994 C998 0.949 . S
C995 C996 1.349 . S
C995 C997 1.327 . S
C995 H1018 0.950 . S
C996 C995 1.349 . S
C996 C1008 1.349 . S
C997 C995 1.327 . S
C997 C1013 1.429 . S
C997 H1019 0.950 . S
C998 H994 0.949 . S
C998 C1006 1.574 . S
C998 C1014 1.368 . S
H999 C1007 0.950 . S
H1000 C1005 0.950 . S
H1001 C1006 0.949 . S
H1002 C1008 0.950 . S
H1003 C1009 0.950 . S
H1004 C1010 0.949 . S
C1005 H1000 0.950 . S
C1005 C1007 1.327 . S
C1005 C1011 1.429 . S
C1006 C998 1.574 . S
C1006 H1001 0.949 . S
C1006 C1012 1.368 . S
C1007 C991 1.349 . S
C1007 H999 0.950 . S
C1007 C1005 1.327 . S
C1008 C996 1.349 . S
C1008 H1002 0.950 . S
C1008 C1009 1.327 . S
C1009 H1003 0.950 . S
C1009 C1008 1.327 . S
C1009 C1013 1.429 . S
C1010 C993 1.574 . S
C1010 H1004 0.949 . S
C1010 C1014 1.368 . S
C1011 C992 1.429 . S
C1011 C1005 1.429 . S
C1011 C1012 1.523 . S
C1012 C993 1.368 . S
C1012 C1006 1.368 . S
C1012 C1011 1.523 . S
C1013 C997 1.429 . S
C1013 C1009 1.429 . S
C1013 C1014 1.523 . S
C1014 C998 1.368 . S
C1014 C1010 1.368 . S
C1014 C1013 1.523 . S
H1015 C990 0.950 . S
H1016 C992 0.950 . S
H1017 C993 0.949 . S
H1018 C995 0.950 . S
H1019 C997 0.950 . S
C1020 C1021 1.343 1_545 S
C1020 C1022 1.327 . S
C1020 H1045 0.950 . S
C1021 C1020 1.343 1_565 S
C1021 C1037 1.342 1_565 S
C1022 C1020 1.327 . S
C1022 C1041 1.429 . S
C1022 H1046 0.950 . S
C1023 C1040 1.574 . S
C1023 C1042 1.368 . S
C1023 H1047 0.949 . S
H1024 C1028 0.949 . S
C1025 C1026 1.349 . S
C1025 C1027 1.327 . S
C1025 H1048 0.950 . S
C1026 C1025 1.349 . S
C1026 C1038 1.349 . S
C1027 C1025 1.327 . S
C1027 C1043 1.429 . S
C1027 H1049 0.950 . S
C1028 H1024 0.949 . S
C1028 C1036 1.574 . S
C1028 C1044 1.368 . S
H1029 C1037 0.970 . S
H1030 C1035 0.950 . S
H1031 C1036 0.949 . S
H1032 C1038 0.950 . S
H1033 C1039 0.950 . S
H1034 C1040 0.949 . S
C1035 H1030 0.950 . S
C1035 C1037 1.327 . S
C1035 C1041 1.429 . S
C1036 C1028 1.574 . S
C1036 H1031 0.949 . S
C1036 C1042 1.368 . S
C1037 C1021 1.342 1_545 S
C1037 H1029 0.970 . S
C1037 C1035 1.327 . S
C1038 C1026 1.349 . S
C1038 H1032 0.950 . S
C1038 C1039 1.327 . S
C1039 H1033 0.950 . S
C1039 C1038 1.327 . S
C1039 C1043 1.429 . S
C1040 C1023 1.574 . S
C1040 H1034 0.949 . S
C1040 C1044 1.368 . S
C1041 C1022 1.429 . S
C1041 C1035 1.429 . S
C1041 C1042 1.523 . S
C1042 C1023 1.368 . S
C1042 C1036 1.368 . S
C1042 C1041 1.523 . S
C1043 C1027 1.429 . S
C1043 C1039 1.429 . S
C1043 C1044 1.523 . S
C1044 C1028 1.368 . S
C1044 C1040 1.368 . S
C1044 C1043 1.523 . S
H1045 C1020 0.950 . S
H1046 C1022 0.950 . S
H1047 C1023 0.949 . S
H1048 C1025 0.950 . S
H1049 C1027 0.950 . S
C1050 C1051 1.349 . S
C1050 C1052 1.327 . S
C1050 H1075 0.950 . S
C1051 C1050 1.349 . S
C1051 C1067 1.349 . S
C1052 C1050 1.327 . S
C1052 C1071 1.429 . S
C1052 H1076 0.950 . S
C1053 C1070 1.574 . S
C1053 C1072 1.368 . S
C1053 H1077 0.949 . S
H1054 C1058 0.949 . S
C1055 C1056 1.349 . S
C1055 C1057 1.327 . S
C1055 H1078 0.950 . S
C1056 C1055 1.349 . S
C1056 C1068 1.349 . S
C1057 C1055 1.327 . S
C1057 C1073 1.429 . S
C1057 H1079 0.950 . S
C1058 H1054 0.949 . S
C1058 C1066 1.574 . S
C1058 C1074 1.368 . S
H1059 C1067 0.950 . S
H1060 C1065 0.950 . S
H1061 C1066 0.949 . S
H1062 C1068 0.950 . S
H1063 C1069 0.950 . S
H1064 C1070 0.949 . S
C1065 H1060 0.950 . S
C1065 C1067 1.327 . S
C1065 C1071 1.429 . S
C1066 C1058 1.574 . S
C1066 H1061 0.949 . S
C1066 C1072 1.368 . S
C1067 C1051 1.349 . S
C1067 H1059 0.950 . S
C1067 C1065 1.327 . S
C1068 C1056 1.349 . S
C1068 H1062 0.950 . S
C1068 C1069 1.327 . S
C1069 H1063 0.950 . S
C1069 C1068 1.327 . S
C1069 C1073 1.429 . S
C1070 C1053 1.574 . S
C1070 H1064 0.949 . S
C1070 C1074 1.368 . S
C1071 C1052 1.429 . S
C1071 C1065 1.429 . S
C1071 C1072 1.523 . S
C1072 C1053 1.368 . S
C1072 C1066 1.368 . S
C1072 C1071 1.523 . S
C1073 C1057 1.429 . S
C1073 C1069 1.429 . S
C1073 C1074 1.523 . S
C1074 C1058 1.368 . S
C1074 C1070 1.368 . S
C1074 C1073 1.523 . S
H1075 C1050 0.950 . S
H1076 C1052 0.950 . S
H1077 C1053 0.949 . S
H1078 C1055 0.950 . S
H1079 C1057 0.950 . S
C1080 C1081 1.349 . S
C1080 C1082 1.327 . S
C1080 H1105 0.950 . S
C1081 C1080 1.349 . S
C1081 C1097 1.349 . S
C1082 C1080 1.327 . S
C1082 C1101 1.429 . S
C1082 H1106 0.950 . S
C1083 C1100 1.574 . S
C1083 C1102 1.368 . S
C1083 H1107 0.949 . S
H1084 C1088 0.949 . S
C1085 C1086 1.349 . S
C1085 C1087 1.327 . S
C1085 H1108 0.950 . S
C1086 C1085 1.349 . S
C1086 C1098 1.349 . S
C1087 C1085 1.327 . S
C1087 C1103 1.429 . S
C1087 H1109 0.950 . S
C1088 H1084 0.949 . S
C1088 C1096 1.574 . S
C1088 C1104 1.368 . S
H1089 C1097 0.950 . S
H1090 C1095 0.950 . S
H1091 C1096 0.949 . S
H1092 C1098 0.950 . S
H1093 C1099 0.950 . S
H1094 C1100 0.949 . S
C1095 H1090 0.950 . S
C1095 C1097 1.327 . S
C1095 C1101 1.429 . S
C1096 C1088 1.574 . S
C1096 H1091 0.949 . S
C1096 C1102 1.368 . S
C1097 C1081 1.349 . S
C1097 H1089 0.950 . S
C1097 C1095 1.327 . S
C1098 C1086 1.349 . S
C1098 H1092 0.950 . S
C1098 C1099 1.327 . S
C1099 H1093 0.950 . S
C1099 C1098 1.327 . S
C1099 C1103 1.429 . S
C1100 C1083 1.574 . S
C1100 H1094 0.949 . S
C1100 C1104 1.368 . S
C1101 C1082 1.429 . S
C1101 C1095 1.429 . S
C1101 C1102 1.523 . S
C1102 C1083 1.368 . S
C1102 C1096 1.368 . S
C1102 C1101 1.523 . S
C1103 C1087 1.429 . S
C1103 C1099 1.429 . S
C1103 C1104 1.523 . S
C1104 C1088 1.368 . S
C1104 C1100 1.368 . S
C1104 C1103 1.523 . S
H1105 C1080 0.950 . S
H1106 C1082 0.950 . S
H1107 C1083 0.949 . S
H1108 C1085 0.950 . S
H1109 C1087 0.950 . S
C1110 C1111 1.349 . S
C1110 C1112 1.327 . S
C1110 H1135 0.950 . S
C1111 C1110 1.349 . S
C1111 C1127 1.349 . S
C1112 C1110 1.327 . S
C1112 C1131 1.429 . S
C1112 H1136 0.950 . S
C1113 C1130 1.574 . S
C1113 C1132 1.368 . S
C1113 H1137 0.949 . S
H1114 C1118 0.949 . S
C1115 C1116 1.314 1_565 S
C1115 C1117 1.320 1_565 S
C1115 H1138 0.996 . S
C1116 C1115 1.314 1_545 S
C1116 C1128 1.349 . S
C1117 C1115 1.320 1_545 S
C1117 C1133 1.429 . S
C1117 H1139 0.950 1_545 S
C1118 H1114 0.949 . S
C1118 C1126 1.574 . S
C1118 C1134 1.368 . S
H1119 C1127 0.950 . S
H1120 C1125 0.950 . S
H1121 C1126 0.949 . S
H1122 C1128 0.950 . S
H1123 C1129 0.950 . S
H1124 C1130 0.949 1_565 S
C1125 H1120 0.950 . S
C1125 C1127 1.327 . S
C1125 C1131 1.429 . S
C1126 C1118 1.574 . S
C1126 H1121 0.949 . S
C1126 C1132 1.368 . S
C1127 C1111 1.349 . S
C1127 H1119 0.950 . S
C1127 C1125 1.327 . S
C1128 C1116 1.349 . S
C1128 H1122 0.950 . S
C1128 C1129 1.327 . S
C1129 H1123 0.950 . S
C1129 C1128 1.327 . S
C1129 C1133 1.429 . S
C1130 C1113 1.574 . S
C1130 H1124 0.949 1_545 S
C1130 C1134 1.368 . S
C1131 C1112 1.429 . S
C1131 C1125 1.429 . S
C1131 C1132 1.523 . S
C1132 C1113 1.368 . S
C1132 C1126 1.368 . S
C1132 C1131 1.523 . S
C1133 C1117 1.429 . S
C1133 C1129 1.429 . S
C1133 C1134 1.523 . S
C1134 C1118 1.368 . S
C1134 C1130 1.368 . S
C1134 C1133 1.523 . S
H1135 C1110 0.950 . S
H1136 C1112 0.950 . S
H1137 C1113 0.949 . S
H1138 C1115 0.996 . S
H1139 C1117 0.950 1_565 S
C1140 C1141 1.349 . S
C1140 C1142 1.327 . S
C1140 H1165 0.950 . S
C1141 C1140 1.349 . S
C1141 C1157 1.349 . S
C1142 C1140 1.327 . S
C1142 C1161 1.429 . S
C1142 H1166 0.950 . S
C1143 C1160 1.574 . S
C1143 C1162 1.368 . S
C1143 H1167 0.949 . S
H1144 C1148 0.949 . S
C1145 C1146 1.349 . S
C1145 C1147 1.327 . S
C1145 H1168 0.950 . S
C1146 C1145 1.349 . S
C1146 C1158 1.349 . S
C1147 C1145 1.327 . S
C1147 C1163 1.429 . S
C1147 H1169 0.950 . S
C1148 H1144 0.949 . S
C1148 C1156 1.574 . S
C1148 C1164 1.368 . S
H1149 C1157 0.950 . S
H1150 C1155 0.950 . S
H1151 C1156 0.949 . S
H1152 C1158 0.950 . S
H1153 C1159 0.950 . S
H1154 C1160 0.949 . S
C1155 H1150 0.950 . S
C1155 C1157 1.327 . S
C1155 C1161 1.429 . S
C1156 C1148 1.574 . S
C1156 H1151 0.949 . S
C1156 C1162 1.368 . S
C1157 C1141 1.349 . S
C1157 H1149 0.950 . S
C1157 C1155 1.327 . S
C1158 C1146 1.349 . S
C1158 H1152 0.950 . S
C1158 C1159 1.327 . S
C1159 H1153 0.950 . S
C1159 C1158 1.327 . S
C1159 C1163 1.429 . S
C1160 C1143 1.574 . S
C1160 H1154 0.949 . S
C1160 C1164 1.368 . S
C1161 C1142 1.429 . S
C1161 C1155 1.429 . S
C1161 C1162 1.523 . S
C1162 C1143 1.368 . S
C1162 C1156 1.368 . S
C1162 C1161 1.523 . S
C1163 C1147 1.429 . S
C1163 C1159 1.429 . S
C1163 C1164 1.523 . S
C1164 C1148 1.368 . S
C1164 C1160 1.368 . S
C1164 C1163 1.523 . S
H1165 C1140 0.950 . S
H1166 C1142 0.950 . S
H1167 C1143 0.949 . S
H1168 C1145 0.950 . S
H1169 C1147 0.950 . S
C1170 C1171 1.349 . S
C1170 C1172 1.327 . S
C1170 H1195 0.950 . S
C1171 C1170 1.349 . S
C1171 C1187 1.349 . S
C1172 C1170 1.327 . S
C1172 C1191 1.429 . S
C1172 H1196 0.950 . S
C1173 C1190 1.574 . S
C1173 C1192 1.368 . S
C1173 H1197 0.949 . S
H1174 C1178 0.949 . S
C1175 C1176 1.349 . S
C1175 C1177 1.327 . S
C1175 H1198 0.950 . S
C1176 C1175 1.349 . S
C1176 C1188 1.349 . S
C1177 C1175 1.327 . S
C1177 C1193 1.429 . S
C1177 H1199 0.950 . S
C1178 H1174 0.949 . S
C1178 C1186 1.574 . S
C1178 C1194 1.368 . S
H1179 C1187 0.950 . S
H1180 C1185 0.950 . S
H1181 C1186 0.949 . S
H1182 C1188 0.950 . S
H1183 C1189 0.950 . S
H1184 C1190 0.949 . S
C1185 H1180 0.950 . S
C1185 C1187 1.327 . S
C1185 C1191 1.429 . S
C1186 C1178 1.574 . S
C1186 H1181 0.949 . S
C1186 C1192 1.368 . S
C1187 C1171 1.349 . S
C1187 H1179 0.950 . S
C1187 C1185 1.327 . S
C1188 C1176 1.349 . S
C1188 H1182 0.950 . S
C1188 C1189 1.327 . S
C1189 H1183 0.950 . S
C1189 C1188 1.327 . S
C1189 C1193 1.429 . S
C1190 C1173 1.574 . S
C1190 H1184 0.949 . S
C1190 C1194 1.368 . S
C1191 C1172 1.429 . S
C1191 C1185 1.429 . S
C1191 C1192 1.523 . S
C1192 C1173 1.368 . S
C1192 C1186 1.368 . S
C1192 C1191 1.523 . S
C1193 C1177 1.429 . S
C1193 C1189 1.429 . S
C1193 C1194 1.523 . S
C1194 C1178 1.368 . S
C1194 C1190 1.368 . S
C1194 C1193 1.523 . S
H1195 C1170 0.950 . S
H1196 C1172 0.950 . S
H1197 C1173 0.949 . S
H1198 C1175 0.950 . S
H1199 C1177 0.950 . S
C1200 C1201 1.349 . S
C1200 C1202 1.327 . S
C1200 H1225 0.950 . S
C1201 C1200 1.349 . S
C1201 C1217 1.349 . S
C1202 C1200 1.327 . S
C1202 C1221 1.429 . S
C1202 H1226 0.950 . S
C1203 C1220 1.574 . S
C1203 C1222 1.368 . S
C1203 H1227 0.949 . S
H1204 C1208 0.949 . S
C1205 C1206 1.349 . S
C1205 C1207 1.327 . S
C1205 H1228 0.950 . S
C1206 C1205 1.349 . S
C1206 C1218 1.349 . S
C1207 C1205 1.327 . S
C1207 C1223 1.429 . S
C1207 H1229 0.950 . S
C1208 H1204 0.949 . S
C1208 C1216 1.574 . S
C1208 C1224 1.368 . S
H1209 C1217 0.950 . S
H1210 C1215 0.950 . S
H1211 C1216 0.949 . S
H1212 C1218 0.950 . S
H1213 C1219 0.950 . S
H1214 C1220 0.949 . S
C1215 H1210 0.950 . S
C1215 C1217 1.327 . S
C1215 C1221 1.429 . S
C1216 C1208 1.574 . S
C1216 H1211 0.949 . S
C1216 C1222 1.368 . S
C1217 C1201 1.349 . S
C1217 H1209 0.950 . S
C1217 C1215 1.327 . S
C1218 C1206 1.349 . S
C1218 H1212 0.950 . S
C1218 C1219 1.327 . S
C1219 H1213 0.950 . S
C1219 C1218 1.327 . S
C1219 C1223 1.429 . S
C1220 C1203 1.574 . S
C1220 H1214 0.949 . S
C1220 C1224 1.368 . S
C1221 C1202 1.429 . S
C1221 C1215 1.429 . S
C1221 C1222 1.523 . S
C1222 C1203 1.368 . S
C1222 C1216 1.368 . S
C1222 C1221 1.523 . S
C1223 C1207 1.429 . S
C1223 C1219 1.429 . S
C1223 C1224 1.523 . S
C1224 C1208 1.368 . S
C1224 C1220 1.368 . S
C1224 C1223 1.523 . S
H1225 C1200 0.950 . S
H1226 C1202 0.950 . S
H1227 C1203 0.949 . S
H1228 C1205 0.950 . S
H1229 C1207 0.950 . S
C1230 C1231 1.349 . S
C1230 C1232 1.327 . S
C1230 H1255 0.950 . S
C1231 C1230 1.349 . S
C1231 C1247 1.349 . S
C1232 C1230 1.327 . S
C1232 C1251 1.429 . S
C1232 H1256 0.950 . S
C1233 C1250 1.574 . S
C1233 C1252 1.368 . S
C1233 H1257 0.949 . S
H1234 C1238 0.949 . S
C1235 C1236 1.349 . S
C1235 C1237 1.327 . S
C1235 H1258 0.950 . S
C1236 C1235 1.349 . S
C1236 C1248 1.349 . S
C1237 C1235 1.327 . S
C1237 C1253 1.429 . S
C1237 H1259 0.990 . S
C1238 H1234 0.949 . S
C1238 C1246 1.574 1_655 S
C1238 C1254 1.368 . S
H1239 C1247 0.950 . S
H1240 C1245 0.950 . S
H1241 C1246 0.949 1_655 S
H1242 C1248 0.950 . S
H1243 C1249 0.950 . S
H1244 C1250 0.949 . S
C1245 H1240 0.950 . S
C1245 C1247 1.327 . S
C1245 C1251 1.429 . S
C1246 C1238 1.574 1_455 S
C1246 H1241 0.949 1_455 S
C1246 C1252 1.368 . S
C1247 C1231 1.349 . S
C1247 H1239 0.950 . S
C1247 C1245 1.327 . S
C1248 C1236 1.349 . S
C1248 H1242 0.950 . S
C1248 C1249 1.327 . S
C1249 H1243 0.950 . S
C1249 C1248 1.327 . S
C1249 C1253 1.429 . S
C1250 C1233 1.574 . S
C1250 H1244 0.949 . S
C1250 C1254 1.368 1_455 S
C1251 C1232 1.429 . S
C1251 C1245 1.429 . S
C1251 C1252 1.523 . S
C1252 C1233 1.368 . S
C1252 C1246 1.368 . S
C1252 C1251 1.523 . S
C1253 C1237 1.429 . S
C1253 C1249 1.429 . S
C1253 C1254 1.523 . S
C1254 C1238 1.368 . S
C1254 C1250 1.368 1_655 S
C1254 C1253 1.523 . S
H1255 C1230 0.950 . S
H1256 C1232 0.950 . S
H1257 C1233 0.949 . S
H1258 C1235 0.950 . S
H1259 C1237 0.990 . S
C1260 C1261 1.349 . S
C1260 C1262 1.327 . S
C1260 H1285 0.950 . S
C1261 C1260 1.349 . S
C1261 C1277 1.349 . S
C1262 C1260 1.327 . S
C1262 C1281 1.429 . S
C1262 H1286 0.950 . S
C1263 C1280 1.574 . S
C1263 C1282 1.368 . S
C1263 H1287 0.949 . S
H1264 C1268 0.949 . S
C1265 C1266 1.349 . S
C1265 C1267 1.327 . S
C1265 H1288 0.950 . S
C1266 C1265 1.349 . S
C1266 C1278 1.349 . S
C1267 C1265 1.327 . S
C1267 C1283 1.429 . S
C1267 H1289 0.950 . S
C1268 H1264 0.949 . S
C1268 C1276 1.574 . S
C1268 C1284 1.368 . S
H1269 C1277 0.950 . S
H1270 C1275 0.950 . S
H1271 C1276 0.949 . S
H1272 C1278 0.950 . S
H1273 C1279 0.950 . S
H1274 C1280 0.949 . S
C1275 H1270 0.950 . S
C1275 C1277 1.327 . S
C1275 C1281 1.429 . S
C1276 C1268 1.574 . S
C1276 H1271 0.949 . S
C1276 C1282 1.368 . S
C1277 C1261 1.349 . S
C1277 H1269 0.950 . S
C1277 C1275 1.327 . S
C1278 C1266 1.349 . S
C1278 H1272 0.950 . S
C1278 C1279 1.327 . S
C1279 H1273 0.950 . S
C1279 C1278 1.327 . S
C1279 C1283 1.429 . S
C1280 C1263 1.574 . S
C1280 H1274 0.949 . S
C1280 C1284 1.368 . S
C1281 C1262 1.429 . S
C1281 C1275 1.429 . S
C1281 C1282 1.523 . S
C1282 C1263 1.368 . S
C1282 C1276 1.368 . S
C1282 C1281 1.523 . S
C1283 C1267 1.429 . S
C1283 C1279 1.429 . S
C1283 C1284 1.523 . S
C1284 C1268 1.368 . S
C1284 C1280 1.368 . S
C1284 C1283 1.523 . S
H1285 C1260 0.950 . S
H1286 C1262 0.950 . S
H1287 C1263 0.949 . S
H1288 C1265 0.950 . S
H1289 C1267 0.950 . S
C1290 C1291 1.349 1_455 S
C1290 C1292 1.327 . S
C1290 H1315 0.950 . S
C1291 C1290 1.349 1_655 S
C1291 C1307 1.349 . S
C1292 C1290 1.327 . S
C1292 C1311 1.429 . S
C1292 H1316 0.950 . S
C1293 C1310 1.574 . S
C1293 C1312 1.368 . S
C1293 H1317 0.949 . S
H1294 C1298 0.949 . S
C1295 C1296 1.349 . S
C1295 C1297 1.327 . S
C1295 H1318 0.950 . S
C1296 C1295 1.349 . S
C1296 C1308 1.349 . S
C1297 C1295 1.327 . S
C1297 C1313 1.429 . S
C1297 H1319 0.950 . S
C1298 H1294 0.949 . S
C1298 C1306 1.574 . S
C1298 C1314 1.368 . S
H1299 C1307 0.950 . S
H1300 C1305 0.952 . S
H1301 C1306 0.949 . S
H1302 C1308 0.950 . S
H1303 C1309 0.950 . S
H1304 C1310 0.949 . S
C1305 H1300 0.952 . S
C1305 C1307 1.335 . S
C1305 C1311 1.419 1_655 S
C1306 C1298 1.574 . S
C1306 H1301 0.949 . S
C1306 C1312 1.368 . S
C1307 C1291 1.349 . S
C1307 H1299 0.950 . S
C1307 C1305 1.335 . S
C1308 C1296 1.349 . S
C1308 H1302 0.950 . S
C1308 C1309 1.327 . S
C1309 H1303 0.950 . S
C1309 C1308 1.327 . S
C1309 C1313 1.429 . S
C1310 C1293 1.574 . S
C1310 H1304 0.949 . S
C1310 C1314 1.368 . S
C1311 C1292 1.429 . S
C1311 C1305 1.419 1_455 S
C1311 C1312 1.523 . S
C1312 C1293 1.368 . S
C1312 C1306 1.368 . S
C1312 C1311 1.523 . S
C1313 C1297 1.429 . S
C1313 C1309 1.429 . S
C1313 C1314 1.523 . S
C1314 C1298 1.368 . S
C1314 C1310 1.368 . S
C1314 C1313 1.523 . S
H1315 C1290 0.950 . S
H1316 C1292 0.950 . S
H1317 C1293 0.949 . S
H1318 C1295 0.950 . S
H1319 C1297 0.950 . S
C1320 C1321 1.349 . S
C1320 C1322 1.327 . S
C1320 H1345 0.950 . S
C1321 C1320 1.349 . S
C1321 C1337 1.349 . S
C1322 C1320 1.327 . S
C1322 C1341 1.429 . S
C1322 H1346 0.950 . S
C1323 C1340 1.574 . S
C1323 C1342 1.368 . S
C1323 H1347 0.949 . S
H1324 C1328 0.949 . S
C1325 C1326 1.349 . S
C1325 C1327 1.327 . S
C1325 H1348 0.950 . S
C1326 C1325 1.349 . S
C1326 C1338 1.349 . S
C1327 C1325 1.327 . S
C1327 C1343 1.429 . S
C1327 H1349 0.950 . S
C1328 H1324 0.949 . S
C1328 C1336 1.574 . S
C1328 C1344 1.368 . S
H1329 C1337 0.950 . S
H1330 C1335 0.950 . S
H1331 C1336 0.949 . S
H1332 C1338 0.950 . S
H1333 C1339 0.950 . S
H1334 C1340 0.949 . S
C1335 H1330 0.950 . S
C1335 C1337 1.327 . S
C1335 C1341 1.429 . S
C1336 C1328 1.574 . S
C1336 H1331 0.949 . S
C1336 C1342 1.368 . S
C1337 C1321 1.349 . S
C1337 H1329 0.950 . S
C1337 C1335 1.327 . S
C1338 C1326 1.349 . S
C1338 H1332 0.950 . S
C1338 C1339 1.327 . S
C1339 H1333 0.950 . S
C1339 C1338 1.327 . S
C1339 C1343 1.429 . S
C1340 C1323 1.574 . S
C1340 H1334 0.949 . S
C1340 C1344 1.368 . S
C1341 C1322 1.429 . S
C1341 C1335 1.429 . S
C1341 C1342 1.523 . S
C1342 C1323 1.368 . S
C1342 C1336 1.368 . S
C1342 C1341 1.523 . S
C1343 C1327 1.429 . S
C1343 C1339 1.429 . S
C1343 C1344 1.523 . S
C1344 C1328 1.368 . S
C1344 C1340 1.368 . S
C1344 C1343 1.523 . S
H1345 C1320 0.950 . S
H1346 C1322 0.950 . S
H1347 C1323 0.949 . S
H1348 C1325 0.950 . S
H1349 C1327 0.950 . S
C1350 C1351 1.349 . S
C1350 C1352 1.327 . S
C1350 H1375 0.950 . S
C1351 C1350 1.349 . S
C1351 C1367 1.349 1_554 S
C1352 C1350 1.327 . S
C1352 C1371 1.429 1_554 S
C1352 H1376 0.950 . S
C1353 C1370 1.574 . S
C1353 C1372 1.368 . S
C1353 H1377 0.949 . S
H1354 C1358 0.949 . S
C1355 C1356 1.349 . S
C1355 C1357 1.335 . S
C1355 H1378 0.943 1_655 S
C1356 C1355 1.349 . S
C1356 C1368 1.349 . S
C1357 C1355 1.335 . S
C1357 C1373 1.429 . S
C1357 H1379 0.950 . S
C1358 H1354 0.949 . S
C1358 C1366 1.574 . S
C1358 C1374 1.368 . S
H1359 C1367 0.950 . S
H1360 C1365 0.950 . S
H1361 C1366 0.949 . S
H1362 C1368 0.950 . S
H1363 C1369 0.950 . S
H1364 C1370 0.949 . S
C1365 H1360 0.950 . S
C1365 C1367 1.327 . S
C1365 C1371 1.429 . S
C1366 C1358 1.574 . S
C1366 H1361 0.949 . S
C1366 C1372 1.368 . S
C1367 C1351 1.349 1_556 S
C1367 H1359 0.950 . S
C1367 C1365 1.327 . S
C1368 C1356 1.349 . S
C1368 H1362 0.950 . S
C1368 C1369 1.327 . S
C1369 H1363 0.950 . S
C1369 C1368 1.327 . S
C1369 C1373 1.429 . S
C1370 C1353 1.574 . S
C1370 H1364 0.949 . S
C1370 C1374 1.368 . S
C1371 C1352 1.429 1_556 S
C1371 C1365 1.429 . S
C1371 C1372 1.523 . S
C1372 C1353 1.368 . S
C1372 C1366 1.368 . S
C1372 C1371 1.523 . S
C1373 C1357 1.429 . S
C1373 C1369 1.429 . S
C1373 C1374 1.523 . S
C1374 C1358 1.368 . S
C1374 C1370 1.368 . S
C1374 C1373 1.523 . S
H1375 C1350 0.950 . S
H1376 C1352 0.950 . S
H1377 C1353 0.949 . S
H1378 C1355 0.943 1_455 S
H1379 C1357 0.950 . S
C1380 C1381 1.349 . S
C1380 C1382 1.327 . S
C1380 H1405 0.950 . S
C1381 C1380 1.349 . S
C1381 C1397 1.349 . S
C1382 C1380 1.327 . S
C1382 C1401 1.429 . S
C1382 H1406 0.950 . S
C1383 C1400 1.574 . S
C1383 C1402 1.368 . S
C1383 H1407 0.949 . S
H1384 C1388 0.949 . S
C1385 C1386 1.349 . S
C1385 C1387 1.327 . S
C1385 H1408 0.950 . S
C1386 C1385 1.349 . S
C1386 C1398 1.349 . S
C1387 C1385 1.327 . S
C1387 C1403 1.429 . S
C1387 H1409 0.950 . S
C1388 H1384 0.949 . S
C1388 C1396 1.574 . S
C1388 C1404 1.368 . S
H1389 C1397 0.950 . S
H1390 C1395 0.950 . S
H1391 C1396 0.949 . S
H1392 C1398 0.950 . S
H1393 C1399 0.950 . S
H1394 C1400 0.949 . S
C1395 H1390 0.950 . S
C1395 C1397 1.327 . S
C1395 C1401 1.429 . S
C1396 C1388 1.574 . S
C1396 H1391 0.949 . S
C1396 C1402 1.368 . S
C1397 C1381 1.349 . S
C1397 H1389 0.950 . S
C1397 C1395 1.327 . S
C1398 C1386 1.349 . S
C1398 H1392 0.950 . S
C1398 C1399 1.327 . S
C1399 H1393 0.950 . S
C1399 C1398 1.327 . S
C1399 C1403 1.429 . S
C1400 C1383 1.574 . S
C1400 H1394 0.949 . S
C1400 C1404 1.368 . S
C1401 C1382 1.429 . S
C1401 C1395 1.429 . S
C1401 C1402 1.523 . S
C1402 C1383 1.368 . S
C1402 C1396 1.368 . S
C1402 C1401 1.523 . S
C1403 C1387 1.429 . S
C1403 C1399 1.429 . S
C1403 C1404 1.523 . S
C1404 C1388 1.368 . S
C1404 C1400 1.368 . S
C1404 C1403 1.523 . S
H1405 C1380 0.950 . S
H1406 C1382 0.950 . S
H1407 C1383 0.949 . S
H1408 C1385 0.950 . S
H1409 C1387 0.950 . S
C1410 C1411 1.350 1_556 S
C1410 C1412 1.324 . S
C1410 H1435 0.952 1_556 S
C1411 C1410 1.350 1_554 S
C1411 C1427 1.349 1_554 S
C1412 C1410 1.324 . S
C1412 C1431 1.429 . S
C1412 H1436 0.950 . S
C1413 C1430 1.574 . S
C1413 C1432 1.368 . S
C1413 H1437 0.949 . S
H1414 C1418 0.949 . S
C1415 C1416 1.349 . S
C1415 C1417 1.327 . S
C1415 H1438 0.950 1_455 S
C1416 C1415 1.349 . S
C1416 C1428 1.349 . S
C1417 C1415 1.327 . S
C1417 C1433 1.429 . S
C1417 H1439 0.980 . S
C1418 H1414 0.949 . S
C1418 C1426 1.574 . S
C1418 C1434 1.368 . S
H1419 C1427 0.950 . S
H1420 C1425 0.950 . S
H1421 C1426 0.949 . S
H1422 C1428 0.950 . S
H1423 C1429 0.950 . S
H1424 C1430 0.949 . S
C1425 H1420 0.950 . S
C1425 C1427 1.327 . S
C1425 C1431 1.429 . S
C1426 C1418 1.574 . S
C1426 H1421 0.949 . S
C1426 C1432 1.368 . S
C1427 C1411 1.349 1_556 S
C1427 H1419 0.950 . S
C1427 C1425 1.327 . S
C1428 C1416 1.349 . S
C1428 H1422 0.950 . S
C1428 C1429 1.327 . S
C1429 H1423 0.950 . S
C1429 C1428 1.327 . S
C1429 C1433 1.429 . S
C1430 C1413 1.574 . S
C1430 H1424 0.949 . S
C1430 C1434 1.368 . S
C1431 C1412 1.429 . S
C1431 C1425 1.429 . S
C1431 C1432 1.523 . S
C1432 C1413 1.368 . S
C1432 C1426 1.368 . S
C1432 C1431 1.523 . S
C1433 C1417 1.429 . S
C1433 C1429 1.429 . S
C1433 C1434 1.523 . S
C1434 C1418 1.368 . S
C1434 C1430 1.368 . S
C1434 C1433 1.523 . S
H1435 C1410 0.952 1_554 S
H1436 C1412 0.950 . S
H1437 C1413 0.949 . S
H1438 C1415 0.950 1_655 S
H1439 C1417 0.980 . S
C1440 C1441 1.349 . S
C1440 C1442 1.327 . S
C1440 H1465 0.950 . S
C1441 C1440 1.349 . S
C1441 C1457 1.349 . S
C1442 C1440 1.327 . S
C1442 C1461 1.429 . S
C1442 H1466 0.950 . S
C1443 C1460 1.574 . S
C1443 C1462 1.368 . S
C1443 H1467 0.949 . S
H1444 C1448 0.949 . S
C1445 C1446 1.349 . S
C1445 C1447 1.327 . S
C1445 H1468 0.950 . S
C1446 C1445 1.349 . S
C1446 C1458 1.349 . S
C1447 C1445 1.327 . S
C1447 C1463 1.429 . S
C1447 H1469 0.950 . S
C1448 H1444 0.949 . S
C1448 C1456 1.574 . S
C1448 C1464 1.368 . S
H1449 C1457 0.950 . S
H1450 C1455 0.950 . S
H1451 C1456 0.949 . S
H1452 C1458 0.950 . S
H1453 C1459 0.950 . S
H1454 C1460 0.949 . S
C1455 H1450 0.950 . S
C1455 C1457 1.327 . S
C1455 C1461 1.429 . S
C1456 C1448 1.574 . S
C1456 H1451 0.949 . S
C1456 C1462 1.368 . S
C1457 C1441 1.349 . S
C1457 H1449 0.950 . S
C1457 C1455 1.327 . S
C1458 C1446 1.349 . S
C1458 H1452 0.950 . S
C1458 C1459 1.327 . S
C1459 H1453 0.950 . S
C1459 C1458 1.327 . S
C1459 C1463 1.429 . S
C1460 C1443 1.574 . S
C1460 H1454 0.949 . S
C1460 C1464 1.368 . S
C1461 C1442 1.429 . S
C1461 C1455 1.429 . S
C1461 C1462 1.523 . S
C1462 C1443 1.368 . S
C1462 C1456 1.368 . S
C1462 C1461 1.523 . S
C1463 C1447 1.429 . S
C1463 C1459 1.429 . S
C1463 C1464 1.523 . S
C1464 C1448 1.368 . S
C1464 C1460 1.368 . S
C1464 C1463 1.523 . S
H1465 C1440 0.950 . S
H1466 C1442 0.950 . S
H1467 C1443 0.949 . S
H1468 C1445 0.950 . S
H1469 C1447 0.950 . S
C1470 C1471 1.349 . S
C1470 C1472 1.327 . S
C1470 H1495 0.950 . S
C1471 C1470 1.349 . S
C1471 C1487 1.349 . S
C1472 C1470 1.327 . S
C1472 C1491 1.429 . S
C1472 H1496 0.950 . S
C1473 C1490 1.574 . S
C1473 C1492 1.368 . S
C1473 H1497 0.949 . S
H1474 C1478 0.949 . S
C1475 C1476 1.349 . S
C1475 C1477 1.327 . S
C1475 H1498 0.950 . S
C1476 C1475 1.349 . S
C1476 C1488 1.349 . S
C1477 C1475 1.327 . S
C1477 C1493 1.429 . S
C1477 H1499 0.950 . S
C1478 H1474 0.949 . S
C1478 C1486 1.574 . S
C1478 C1494 1.368 . S
H1479 C1487 0.950 1_556 S
H1480 C1485 0.950 . S
H1481 C1486 0.949 . S
H1482 C1488 0.950 . S
H1483 C1489 0.950 . S
H1484 C1490 0.949 . S
C1485 H1480 0.950 . S
C1485 C1487 1.327 . S
C1485 C1491 1.429 . S
C1486 C1478 1.574 . S
C1486 H1481 0.949 . S
C1486 C1492 1.368 . S
C1487 C1471 1.349 . S
C1487 H1479 0.950 1_554 S
C1487 C1485 1.327 . S
C1488 C1476 1.349 . S
C1488 H1482 0.950 . S
C1488 C1489 1.327 . S
C1489 H1483 0.950 . S
C1489 C1488 1.327 . S
C1489 C1493 1.429 . S
C1490 C1473 1.574 . S
C1490 H1484 0.949 . S
C1490 C1494 1.368 . S
C1491 C1472 1.429 . S
C1491 C1485 1.429 . S
C1491 C1492 1.523 . S
C1492 C1473 1.368 . S
C1492 C1486 1.368 . S
C1492 C1491 1.523 . S
C1493 C1477 1.429 . S
C1493 C1489 1.429 . S
C1493 C1494 1.523 . S
C1494 C1478 1.368 . S
C1494 C1490 1.368 . S
C1494 C1493 1.523 . S
H1495 C1470 0.950 . S
H1496 C1472 0.950 . S
H1497 C1473 0.949 . S
H1498 C1475 0.950 . S
H1499 C1477 0.950 . S
C1500 C1501 1.349 . S
C1500 C1502 1.327 . S
C1500 H1525 0.950 . S
C1501 C1500 1.349 . S
C1501 C1517 1.349 . S
C1502 C1500 1.327 . S
C1502 C1521 1.429 . S
C1502 H1526 0.950 . S
C1503 C1520 1.574 . S
C1503 C1522 1.368 . S
C1503 H1527 0.949 . S
H1504 C1508 0.949 . S
C1505 C1506 1.349 . S
C1505 C1507 1.327 . S
C1505 H1528 0.950 . S
C1506 C1505 1.349 . S
C1506 C1518 1.349 . S
C1507 C1505 1.327 . S
C1507 C1523 1.429 . S
C1507 H1529 0.950 . S
C1508 H1504 0.949 . S
C1508 C1516 1.574 . S
C1508 C1524 1.368 . S
H1509 C1517 0.950 . S
H1510 C1515 0.950 . S
H1511 C1516 0.949 . S
H1512 C1518 0.950 . S
H1513 C1519 0.950 . S
H1514 C1520 0.949 . S
C1515 H1510 0.950 . S
C1515 C1517 1.327 . S
C1515 C1521 1.429 . S
C1516 C1508 1.574 . S
C1516 H1511 0.949 . S
C1516 C1522 1.368 . S
C1517 C1501 1.349 . S
C1517 H1509 0.950 . S
C1517 C1515 1.327 . S
C1518 C1506 1.349 . S
C1518 H1512 0.950 . S
C1518 C1519 1.327 . S
C1519 H1513 0.950 . S
C1519 C1518 1.327 . S
C1519 C1523 1.429 . S
C1520 C1503 1.574 . S
C1520 H1514 0.949 . S
C1520 C1524 1.368 . S
C1521 C1502 1.429 . S
C1521 C1515 1.429 . S
C1521 C1522 1.523 . S
C1522 C1503 1.368 . S
C1522 C1516 1.368 . S
C1522 C1521 1.523 . S
C1523 C1507 1.429 . S
C1523 C1519 1.429 . S
C1523 C1524 1.523 . S
C1524 C1508 1.368 . S
C1524 C1520 1.368 . S
C1524 C1523 1.523 . S
H1525 C1500 0.950 . S
H1526 C1502 0.950 . S
H1527 C1503 0.949 . S
H1528 C1505 0.950 . S
H1529 C1507 0.950 . S
C1530 C1531 1.349 . S
C1530 C1532 1.331 . S
C1530 H1555 0.950 . S
C1531 C1530 1.349 . S
C1531 C1547 1.349 . S
C1532 C1530 1.331 . S
C1532 C1551 1.428 1_556 S
C1532 H1556 0.946 1_556 S
C1533 C1550 1.574 . S
C1533 C1552 1.368 . S
C1533 H1557 0.949 . S
H1534 C1538 0.949 . S
C1535 C1536 1.349 . S
C1535 C1537 1.327 . S
C1535 H1558 0.950 . S
C1536 C1535 1.349 . S
C1536 C1548 1.349 . S
C1537 C1535 1.327 . S
C1537 C1553 1.429 . S
C1537 H1559 0.950 . S
C1538 H1534 0.949 . S
C1538 C1546 1.574 . S
C1538 C1554 1.368 . S
H1539 C1547 0.950 . S
H1540 C1545 0.950 . S
H1541 C1546 0.949 . S
H1542 C1548 0.950 . S
H1543 C1549 0.950 . S
H1544 C1550 0.949 . S
C1545 H1540 0.950 . S
C1545 C1547 1.327 . S
C1545 C1551 1.429 1_556 S
C1546 C1538 1.574 . S
C1546 H1541 0.949 . S
C1546 C1552 1.368 . S
C1547 C1531 1.349 . S
C1547 H1539 0.950 . S
C1547 C1545 1.327 . S
C1548 C1536 1.349 . S
C1548 H1542 0.950 . S
C1548 C1549 1.327 . S
C1549 H1543 0.950 . S
C1549 C1548 1.327 . S
C1549 C1553 1.429 . S
C1550 C1533 1.574 . S
C1550 H1544 0.949 . S
C1550 C1554 1.368 . S
C1551 C1532 1.428 1_554 S
C1551 C1545 1.429 1_554 S
C1551 C1552 1.523 . S
C1552 C1533 1.368 . S
C1552 C1546 1.368 . S
C1552 C1551 1.523 . S
C1553 C1537 1.429 . S
C1553 C1549 1.429 . S
C1553 C1554 1.523 . S
C1554 C1538 1.368 . S
C1554 C1550 1.368 . S
C1554 C1553 1.523 . S
H1555 C1530 0.950 . S
H1556 C1532 0.946 1_554 S
H1557 C1533 0.949 . S
H1558 C1535 0.950 . S
H1559 C1537 0.950 . S
C1560 C1561 1.349 . S
C1560 C1562 1.327 . S
C1560 H1585 0.950 . S
C1561 C1560 1.349 . S
C1561 C1577 1.349 . S
C1562 C1560 1.327 . S
C1562 C1581 1.429 . S
C1562 H1586 0.950 . S
C1563 C1580 1.574 . S
C1563 C1582 1.368 . S
C1563 H1587 0.949 . S
H1564 C1568 0.949 . S
C1565 C1566 1.349 . S
C1565 C1567 1.327 . S
C1565 H1588 0.950 . S
C1566 C1565 1.349 . S
C1566 C1578 1.349 . S
C1567 C1565 1.327 . S
C1567 C1583 1.429 . S
C1567 H1589 0.950 . S
C1568 H1564 0.949 . S
C1568 C1576 1.574 . S
C1568 C1584 1.368 . S
H1569 C1577 0.950 . S
H1570 C1575 0.950 . S
H1571 C1576 0.949 . S
H1572 C1578 0.950 . S
H1573 C1579 0.950 . S
H1574 C1580 0.949 . S
C1575 H1570 0.950 . S
C1575 C1577 1.327 . S
C1575 C1581 1.429 . S
C1576 C1568 1.574 . S
C1576 H1571 0.949 . S
C1576 C1582 1.368 . S
C1577 C1561 1.349 . S
C1577 H1569 0.950 . S
C1577 C1575 1.327 . S
C1578 C1566 1.349 . S
C1578 H1572 0.950 . S
C1578 C1579 1.327 . S
C1579 H1573 0.950 . S
C1579 C1578 1.327 . S
C1579 C1583 1.429 . S
C1580 C1563 1.574 . S
C1580 H1574 0.949 . S
C1580 C1584 1.368 . S
C1581 C1562 1.429 . S
C1581 C1575 1.429 . S
C1581 C1582 1.523 . S
C1582 C1563 1.368 . S
C1582 C1576 1.368 . S
C1582 C1581 1.523 . S
C1583 C1567 1.429 . S
C1583 C1579 1.429 . S
C1583 C1584 1.523 . S
C1584 C1568 1.368 . S
C1584 C1580 1.368 . S
C1584 C1583 1.523 . S
H1585 C1560 0.950 . S
H1586 C1562 0.950 . S
H1587 C1563 0.949 . S
H1588 C1565 0.950 . S
H1589 C1567 0.950 . S
C1590 C1591 1.349 . S
C1590 C1592 1.327 . S
C1590 H1615 0.950 . S
C1591 C1590 1.349 . S
C1591 C1607 1.349 . S
C1592 C1590 1.327 . S
C1592 C1611 1.429 . S
C1592 H1616 0.950 . S
C1593 C1610 1.574 . S
C1593 C1612 1.368 . S
C1593 H1617 0.949 . S
H1594 C1598 0.949 . S
C1595 C1596 1.349 . S
C1595 C1597 1.327 . S
C1595 H1618 0.950 . S
C1596 C1595 1.349 . S
C1596 C1608 1.349 . S
C1597 C1595 1.327 . S
C1597 C1613 1.429 . S
C1597 H1619 0.950 . S
C1598 H1594 0.949 . S
C1598 C1606 1.574 . S
C1598 C1614 1.368 . S
H1599 C1607 0.950 . S
H1600 C1605 0.950 . S
H1601 C1606 0.949 . S
H1602 C1608 0.950 . S
H1603 C1609 0.950 . S
H1604 C1610 0.949 . S
C1605 H1600 0.950 . S
C1605 C1607 1.327 . S
C1605 C1611 1.429 . S
C1606 C1598 1.574 . S
C1606 H1601 0.949 . S
C1606 C1612 1.368 . S
C1607 C1591 1.349 . S
C1607 H1599 0.950 . S
C1607 C1605 1.327 . S
C1608 C1596 1.349 . S
C1608 H1602 0.950 . S
C1608 C1609 1.327 . S
C1609 H1603 0.950 . S
C1609 C1608 1.327 . S
C1609 C1613 1.429 . S
C1610 C1593 1.574 . S
C1610 H1604 0.949 . S
C1610 C1614 1.368 . S
C1611 C1592 1.429 . S
C1611 C1605 1.429 . S
C1611 C1612 1.523 . S
C1612 C1593 1.368 . S
C1612 C1606 1.368 . S
C1612 C1611 1.523 . S
C1613 C1597 1.429 . S
C1613 C1609 1.429 . S
C1613 C1614 1.523 . S
C1614 C1598 1.368 . S
C1614 C1610 1.368 . S
C1614 C1613 1.523 . S
H1615 C1590 0.950 . S
H1616 C1592 0.950 . S
H1617 C1593 0.949 . S
H1618 C1595 0.950 . S
H1619 C1597 0.950 . S
C1620 C1621 1.349 . S
C1620 C1622 1.327 . S
C1620 H1645 0.950 . S
C1621 C1620 1.349 . S
C1621 C1637 1.349 . S
C1622 C1620 1.327 . S
C1622 C1641 1.429 . S
C1622 H1646 0.950 . S
C1623 C1640 1.574 . S
C1623 C1642 1.368 . S
C1623 H1647 0.949 . S
H1624 C1628 0.949 . S
C1625 C1626 1.349 . S
C1625 C1627 1.327 . S
C1625 H1648 0.950 . S
C1626 C1625 1.349 . S
C1626 C1638 1.349 . S
C1627 C1625 1.327 . S
C1627 C1643 1.429 . S
C1627 H1649 0.950 . S
C1628 H1624 0.949 . S
C1628 C1636 1.574 . S
C1628 C1644 1.368 . S
H1629 C1637 0.950 . S
H1630 C1635 0.950 . S
H1631 C1636 0.949 . S
H1632 C1638 0.950 . S
H1633 C1639 0.950 . S
H1634 C1640 0.949 . S
C1635 H1630 0.950 . S
C1635 C1637 1.327 . S
C1635 C1641 1.429 . S
C1636 C1628 1.574 . S
C1636 H1631 0.949 . S
C1636 C1642 1.368 . S
C1637 C1621 1.349 . S
C1637 H1629 0.950 . S
C1637 C1635 1.327 . S
C1638 C1626 1.349 . S
C1638 H1632 0.950 . S
C1638 C1639 1.327 . S
C1639 H1633 0.950 . S
C1639 C1638 1.327 . S
C1639 C1643 1.429 . S
C1640 C1623 1.574 . S
C1640 H1634 0.949 . S
C1640 C1644 1.368 . S
C1641 C1622 1.429 . S
C1641 C1635 1.429 . S
C1641 C1642 1.523 . S
C1642 C1623 1.368 . S
C1642 C1636 1.368 . S
C1642 C1641 1.523 . S
C1643 C1627 1.429 . S
C1643 C1639 1.429 . S
C1643 C1644 1.523 . S
C1644 C1628 1.368 . S
C1644 C1640 1.368 . S
C1644 C1643 1.523 . S
H1645 C1620 0.950 . S
H1646 C1622 0.950 . S
H1647 C1623 0.949 . S
H1648 C1625 0.950 . S
H1649 C1627 0.950 . S
C1650 C1651 1.349 . S
C1650 C1652 1.327 . S
C1650 H1675 0.950 . S
C1651 C1650 1.349 . S
C1651 C1667 1.349 . S
C1652 C1650 1.327 . S
C1652 C1671 1.429 . S
C1652 H1676 0.950 . S
C1653 C1670 1.574 . S
C1653 C1672 1.368 . S
C1653 H1677 0.949 . S
H1654 C1658 0.949 . S
C1655 C1656 1.349 . S
C1655 C1657 1.327 . S
C1655 H1678 0.950 . S
C1656 C1655 1.349 . S
C1656 C1668 1.349 . S
C1657 C1655 1.327 . S
C1657 C1673 1.429 . S
C1657 H1679 0.950 . S
C1658 H1654 0.949 . S
C1658 C1666 1.574 . S
C1658 C1674 1.368 . S
H1659 C1667 0.950 . S
H1660 C1665 0.950 . S
H1661 C1666 0.949 . S
H1662 C1668 0.950 . S
H1663 C1669 0.950 . S
H1664 C1670 0.949 . S
C1665 H1660 0.950 . S
C1665 C1667 1.327 . S
C1665 C1671 1.429 . S
C1666 C1658 1.574 . S
C1666 H1661 0.949 . S
C1666 C1672 1.368 . S
C1667 C1651 1.349 . S
C1667 H1659 0.950 . S
C1667 C1665 1.327 . S
C1668 C1656 1.349 . S
C1668 H1662 0.950 . S
C1668 C1669 1.327 . S
C1669 H1663 0.950 . S
C1669 C1668 1.327 . S
C1669 C1673 1.429 . S
C1670 C1653 1.574 . S
C1670 H1664 0.949 . S
C1670 C1674 1.368 . S
C1671 C1652 1.429 . S
C1671 C1665 1.429 . S
C1671 C1672 1.523 . S
C1672 C1653 1.368 . S
C1672 C1666 1.368 . S
C1672 C1671 1.523 . S
C1673 C1657 1.429 . S
C1673 C1669 1.429 . S
C1673 C1674 1.523 . S
C1674 C1658 1.368 . S
C1674 C1670 1.368 . S
C1674 C1673 1.523 . S
H1675 C1650 0.950 . S
H1676 C1652 0.950 . S
H1677 C1653 0.949 . S
H1678 C1655 0.950 . S
H1679 C1657 0.950 . S
C1680 C1681 1.349 . S
C1680 C1682 1.327 . S
C1680 H1705 0.950 . S
C1681 C1680 1.349 . S
C1681 C1697 1.349 . S
C1682 C1680 1.327 . S
C1682 C1701 1.429 . S
C1682 H1706 0.950 . S
C1683 C1700 1.574 . S
C1683 C1702 1.368 . S
C1683 H1707 0.949 . S
H1684 C1688 0.929 1_554 S
C1685 C1686 1.349 . S
C1685 C1687 1.327 . S
C1685 H1708 0.950 . S
C1686 C1685 1.349 . S
C1686 C1698 1.349 1_556 S
C1687 C1685 1.327 . S
C1687 C1703 1.429 . S
C1687 H1709 0.950 . S
C1688 H1684 0.929 1_556 S
C1688 C1696 1.574 . S
C1688 C1704 1.368 . S
H1689 C1697 0.950 . S
H1690 C1695 0.950 . S
H1691 C1696 0.949 . S
H1692 C1698 0.950 . S
H1693 C1699 0.950 1_554 S
H1694 C1700 0.949 . S
C1695 H1690 0.950 . S
C1695 C1697 1.327 . S
C1695 C1701 1.429 . S
C1696 C1688 1.574 . S
C1696 H1691 0.949 . S
C1696 C1702 1.368 . S
C1697 C1681 1.349 . S
C1697 H1689 0.950 . S
C1697 C1695 1.327 . S
C1698 C1686 1.349 1_554 S
C1698 H1692 0.950 . S
C1698 C1699 1.327 1_554 S
C1699 H1693 0.950 1_556 S
C1699 C1698 1.327 1_556 S
C1699 C1703 1.429 . S
C1700 C1683 1.574 . S
C1700 H1694 0.949 . S
C1700 C1704 1.368 . S
C1701 C1682 1.429 . S
C1701 C1695 1.429 . S
C1701 C1702 1.523 . S
C1702 C1683 1.368 . S
C1702 C1696 1.368 . S
C1702 C1701 1.523 . S
C1703 C1687 1.429 . S
C1703 C1699 1.429 . S
C1703 C1704 1.523 . S
C1704 C1688 1.368 . S
C1704 C1700 1.368 . S
C1704 C1703 1.523 . S
H1705 C1680 0.950 . S
H1706 C1682 0.950 . S
H1707 C1683 0.949 . S
H1708 C1685 0.950 . S
H1709 C1687 0.950 . S
C1710 C1711 1.349 . S
C1710 C1712 1.327 . S
C1710 H1735 0.950 . S
C1711 C1710 1.349 . S
C1711 C1727 1.349 . S
C1712 C1710 1.327 . S
C1712 C1731 1.429 . S
C1712 H1736 0.950 . S
C1713 C1730 1.574 . S
C1713 C1732 1.368 . S
C1713 H1737 0.949 . S
H1714 C1718 0.949 . S
C1715 C1716 1.349 . S
C1715 C1717 1.327 . S
C1715 H1738 0.950 . S
C1716 C1715 1.349 . S
C1716 C1728 1.349 . S
C1717 C1715 1.327 . S
C1717 C1733 1.429 . S
C1717 H1739 0.950 . S
C1718 H1714 0.949 . S
C1718 C1726 1.574 . S
C1718 C1734 1.368 . S
H1719 C1727 0.950 . S
H1720 C1725 0.950 . S
H1721 C1726 0.949 . S
H1722 C1728 0.950 . S
H1723 C1729 0.950 . S
H1724 C1730 0.949 . S
C1725 H1720 0.950 . S
C1725 C1727 1.327 . S
C1725 C1731 1.429 . S
C1726 C1718 1.574 . S
C1726 H1721 0.949 . S
C1726 C1732 1.368 . S
C1727 C1711 1.349 . S
C1727 H1719 0.950 . S
C1727 C1725 1.327 . S
C1728 C1716 1.349 . S
C1728 H1722 0.950 . S
C1728 C1729 1.327 . S
C1729 H1723 0.950 . S
C1729 C1728 1.327 . S
C1729 C1733 1.429 . S
C1730 C1713 1.574 . S
C1730 H1724 0.949 . S
C1730 C1734 1.368 . S
C1731 C1712 1.429 . S
C1731 C1725 1.429 . S
C1731 C1732 1.523 . S
C1732 C1713 1.368 . S
C1732 C1726 1.368 . S
C1732 C1731 1.523 . S
C1733 C1717 1.429 . S
C1733 C1729 1.429 . S
C1733 C1734 1.523 . S
C1734 C1718 1.368 . S
C1734 C1730 1.368 . S
C1734 C1733 1.523 . S
H1735 C1710 0.950 . S
H1736 C1712 0.950 . S
H1737 C1713 0.949 . S
H1738 C1715 0.950 . S
H1739 C1717 0.950 . S
C1740 C1741 1.349 . S
C1740 C1742 1.327 . S
C1740 H1765 0.950 . S
C1741 C1740 1.349 . S
C1741 C1757 1.349 . S
C1742 C1740 1.327 . S
C1742 C1761 1.429 . S
C1742 H1766 0.950 . S
C1743 C1760 1.574 . S
C1743 C1762 1.368 . S
C1743 H1767 0.949 . S
H1744 C1748 0.949 . S
C1745 C1746 1.349 . S
C1745 C1747 1.327 . S
C1745 H1768 0.950 1_554 S
C1746 C1745 1.349 . S
C1746 C1758 1.349 . S
C1747 C1745 1.327 . S
C1747 C1763 1.429 . S
C1747 H1769 0.950 . S
C1748 H1744 0.949 . S
C1748 C1756 1.574 . S
C1748 C1764 1.368 . S
H1749 C1757 0.950 . S
H1750 C1755 0.950 . S
H1751 C1756 0.949 . S
H1752 C1758 0.950 . S
H1753 C1759 0.950 . S
H1754 C1760 0.949 . S
C1755 H1750 0.950 . S
C1755 C1757 1.327 . S
C1755 C1761 1.429 . S
C1756 C1748 1.574 . S
C1756 H1751 0.949 . S
C1756 C1762 1.368 . S
C1757 C1741 1.349 . S
C1757 H1749 0.950 . S
C1757 C1755 1.327 . S
C1758 C1746 1.349 . S
C1758 H1752 0.950 . S
C1758 C1759 1.327 . S
C1759 H1753 0.950 . S
C1759 C1758 1.327 . S
C1759 C1763 1.429 . S
C1760 C1743 1.574 . S
C1760 H1754 0.949 . S
C1760 C1764 1.368 . S
C1761 C1742 1.429 . S
C1761 C1755 1.429 . S
C1761 C1762 1.523 . S
C1762 C1743 1.368 . S
C1762 C1756 1.368 . S
C1762 C1761 1.523 . S
C1763 C1747 1.429 . S
C1763 C1759 1.429 . S
C1763 C1764 1.523 . S
C1764 C1748 1.368 . S
C1764 C1760 1.368 . S
C1764 C1763 1.523 . S
H1765 C1740 0.950 . S
H1766 C1742 0.950 . S
H1767 C1743 0.949 . S
H1768 C1745 0.950 1_556 S
H1769 C1747 0.950 . S
C1770 C1771 1.349 . S
C1770 C1772 1.327 . S
C1770 H1795 0.950 . S
C1771 C1770 1.349 . S
C1771 C1787 1.361 . S
C1772 C1770 1.327 . S
C1772 C1791 1.429 1_545 S
C1772 H1796 0.950 . S
C1773 C1790 1.574 . S
C1773 C1792 1.368 . S
C1773 H1797 0.949 . S
H1774 C1778 0.949 . S
C1775 C1776 1.349 . S
C1775 C1777 1.327 . S
C1775 H1798 0.950 . S
C1776 C1775 1.349 . S
C1776 C1788 1.349 . S
C1777 C1775 1.327 . S
C1777 C1793 1.429 . S
C1777 H1799 0.950 . S
C1778 H1774 0.949 . S
C1778 C1786 1.574 . S
C1778 C1794 1.368 . S
H1779 C1787 0.947 1_565 S
H1780 C1785 0.950 . S
H1781 C1786 0.949 . S
H1782 C1788 0.950 . S
H1783 C1789 0.950 . S
H1784 C1790 0.949 . S
C1785 H1780 0.950 . S
C1785 C1787 1.318 1_565 S
C1785 C1791 1.429 . S
C1786 C1778 1.574 . S
C1786 H1781 0.949 . S
C1786 C1792 1.368 . S
C1787 C1771 1.361 . S
C1787 H1779 0.947 1_545 S
C1787 C1785 1.318 1_545 S
C1788 C1776 1.349 . S
C1788 H1782 0.950 . S
C1788 C1789 1.327 . S
C1789 H1783 0.950 . S
C1789 C1788 1.327 . S
C1789 C1793 1.429 . S
C1790 C1773 1.574 . S
C1790 H1784 0.949 . S
C1790 C1794 1.368 . S
C1791 C1772 1.429 1_565 S
C1791 C1785 1.429 . S
C1791 C1792 1.523 . S
C1792 C1773 1.368 . S
C1792 C1786 1.368 . S
C1792 C1791 1.523 . S
C1793 C1777 1.429 . S
C1793 C1789 1.429 . S
C1793 C1794 1.523 . S
C1794 C1778 1.368 . S
C1794 C1790 1.368 . S
C1794 C1793 1.523 . S
H1795 C1770 0.950 . S
H1796 C1772 0.950 . S
H1797 C1773 0.949 . S
H1798 C1775 0.950 . S
H1799 C1777 0.950 . S
C366 C200 1.753 . S
C361 C66 1.804 . S
C396 C213 1.030 . S
C391 C76 1.031 1_455 S
C421 C93 2.030 . S
C426 C233 1.867 . S
C456 C247 1.289 . S
C451 C54 1.397 . S
C486 C259 1.528 . S
C481 C126 1.542 . S
C516 C273 1.772 . S
C511 C150 1.781 . S
C541 C136 1.035 . S
C546 C283 1.037 . S
C576 C298 1.823 . S
C571 C117 1.847 . S
C601 C141 1.230 . S
C606 C312 1.203 . S
C636 C331 1.182 . S
C631 C112 1.234 . S
C661 C124 1.560 . S
C666 C311 1.547 . S
C696 C329 1.165 . S
C691 C148 1.162 . S
C721 C88 1.419 . S
C726 C345 1.351 . S
C751 C52 1.624 . S
C756 C339 1.621 . S
C781 C64 1.241 . S
C786 C343 1.241 . S
C811 C78 1.165 . S
C816 C340 1.145 . S
C841 C45 1.775 . S
C846 C242 1.753 . S
C871 C177 1.880 . S
C876 C241 1.864 . S
C906 C205 1.226 . S
C901 C189 1.280 . S
C936 C219 1.662 . S
C931 C102 1.778 . S
C961 C57 1.778 . S
C966 C256 1.761 . S
C996 C301 1.481 . S
C991 C138 1.483 . S
C1026 C255 1.779 . S
C1021 C114 1.808 . S
C1056 C287 1.668 . S
C1051 C153 1.669 . S
C1086 C284 1.753 . S
C1081 C174 1.804 . S
C1111 C184 1.031 . S
C1116 C297 1.030 . S
C1141 C105 2.030 . S
C1146 C261 1.867 . S
C1176 C275 1.290 . S
C1171 C162 1.397 . S
C1201 C42 1.542 . S
C1206 C231 1.528 . S
C1236 C245 1.772 . S
C1231 C6 1.781 . S
C1266 C199 1.037 . S
C1261 C16 1.035 . S
C1296 C214 1.823 . S
C1291 C33 1.847 . S
C1321 C21 1.230 . S
C1326 C326 1.203 . S
C1351 C28 1.234 . S
C1356 C317 1.182 1_655 S
C1381 C40 1.560 . S
C1386 C325 1.548 . S
C1411 C4 1.162 . S
C1416 C315 1.165 . S
C1446 C359 1.352 . S
C1441 C100 1.419 . S
C1476 C353 1.621 . S
C1471 C160 1.624 1_554 S
C1506 C357 1.241 . S
C1501 C172 1.242 . S
C1531 C186 1.166 . S
C1536 C354 1.145 . S
C1561 C129 1.775 . S
C1566 C270 1.753 . S
C1596 C269 1.864 . S
C1591 C69 1.880 . S
C1626 C289 1.226 . S
C1621 C81 1.280 . S
C1656 C303 1.662 . S
C1651 C90 1.778 . S
C1681 C165 1.778 . S
C1686 C228 1.762 . S
C1716 C217 1.481 . S
C1711 C18 1.483 . S
C1741 C30 1.795 . S
C1746 C227 1.779 . S
C1776 C203 1.668 . S
C1771 C9 1.669 . S
