# Generated by pormake.
# Topology rtl, (3,6)-cn, num edge types: 1
# Building blocks:
#     Node 0, Type 0, BuildingBlock: BETDAH_clean_linker_0, # of connection points: 3
#     Node 1, Type 0, BuildingBlock: BETDAH_clean_linker_0, # of connection points: 3
#     Node 2, Type 0, BuildingBlock: BETDAH_clean_linker_0, # of connection points: 3
#     Node 3, Type 0, BuildingBlock: BETDAH_clean_linker_0, # of connection points: 3
#     Node 4, Type 1, BuildingBlock: FUNLAD_clean_sbu_0, # of connection points: 6
#     Node 5, Type 1, BuildingBlock: FUNLAD_clean_sbu_0, # of connection points: 6
#     Edge 6, Type (0, 1), BuildingBlock: XIVTED_clean_linker_0, # of connection points: 2
#     Edge 7, Type (0, 1), BuildingBlock: XIVTED_clean_linker_0, # of connection points: 2
#     Edge 8, Type (0, 1), BuildingBlock: XIVTED_clean_linker_0, # of connection points: 2
#     Edge 9, Type (0, 1), BuildingBlock: XIVTED_clean_linker_0, # of connection points: 2
#     Edge 10, Type (0, 1), BuildingBlock: XIVTED_clean_linker_0, # of connection points: 2
#     Edge 11, Type (0, 1), BuildingBlock: XIVTED_clean_linker_0, # of connection points: 2
#     Edge 12, Type (0, 1), BuildingBlock: XIVTED_clean_linker_0, # of connection points: 2
#     Edge 13, Type (0, 1), BuildingBlock: XIVTED_clean_linker_0, # of connection points: 2
#     Edge 14, Type (0, 1), BuildingBlock: XIVTED_clean_linker_0, # of connection points: 2
#     Edge 15, Type (0, 1), BuildingBlock: XIVTED_clean_linker_0, # of connection points: 2
#     Edge 16, Type (0, 1), BuildingBlock: XIVTED_clean_linker_0, # of connection points: 2
#     Edge 17, Type (0, 1), BuildingBlock: XIVTED_clean_linker_0, # of connection points: 2
# Relax obj value: 0.003
# Max RMSD: 0.041
# Mean RMSD: 0.027
data_MOF--net-rtl--node1-FUNLAD_clean_sbu_0--node2-BETDAH_clean_linker_0--edge1-XIVTED_clean_linker_0
_symmetry_space_group_name_H-M    P1
_symmetry_Int_Tables_number       1
_symmetry_cell_setting            triclinic
loop_
_symmetry_equiv_pos_as_xyz
'x, y, z'
_cell_length_a     40.542166
_cell_length_b     40.446579
_cell_length_c     21.135566
_cell_angle_alpha  91.148904
_cell_angle_beta   92.896595
_cell_angle_gamma 89.969498
loop_
_atom_site_label
_atom_site_type_symbol
_atom_site_fract_x
_atom_site_fract_y
_atom_site_fract_z
_atom_type_partial_charge
H0 H 0.12082 0.88403 0.98732 0.0
H1 H 0.15362 0.80948 0.11783 0.0
H2 H 0.17082 0.79731 0.91937 0.0
C3 C 0.13346 0.86084 -0.00344 0.0
C4 C 0.14594 0.84239 0.94618 0.0
C5 C 0.13624 0.84924 0.05848 0.0
C6 C 0.15188 0.81896 0.07015 0.0
C7 C 0.16481 0.80036 0.02063 0.0
C8 C 0.16176 0.81202 0.95822 0.0
N9 N 0.17873 0.76912 0.03508 0.0
C10 C 0.20514 0.75508 0.00503 0.0
H11 H 0.62673 0.62385 0.50338 0.0
H12 H 0.66792 0.71275 0.43109 0.0
H13 H 0.65136 0.70576 0.62961 0.0
C14 C 0.63747 0.6482 0.51167 0.0
C15 C 0.63849 0.6622 0.57292 0.0
C16 C 0.64762 0.66635 0.46013 0.0
C17 C 0.66041 0.69842 0.47067 0.0
C18 C 0.66211 0.71238 0.53224 0.0
C19 C 0.65055 0.69449 0.58258 0.0
N20 N 0.67336 0.74511 0.54463 0.0
C21 C 0.7002 0.75884 0.51648 0.0
H22 H 0.87828 0.12152 0.02811 0.0
H23 H 0.83915 0.21172 0.10594 0.0
H24 H 0.85683 0.20389 0.9075 0.0
C25 C 0.86818 0.14612 0.02139 0.0
C26 C 0.86797 0.16004 0.9612 0.0
C27 C 0.85826 0.16464 0.07404 0.0
C28 C 0.84641 0.19703 0.06552 0.0
C29 C 0.84554 0.21093 0.005 0.0
C30 C 0.8569 0.19264 0.95364 0.0
N31 N 0.83571 0.24408 0.99506 0.0
C32 C 0.808 0.25816 0.02058 0.0
H33 H 0.3876 0.38413 0.52661 0.0
H34 H 0.33319 0.29951 0.58464 0.0
H35 H 0.35133 0.3124 0.38758 0.0
C36 C 0.374 0.36158 0.51464 0.0
C37 C 0.37076 0.35065 0.45145 0.0
C38 C 0.36043 0.34339 0.56278 0.0
C39 C 0.34316 0.31393 0.54741 0.0
C40 C 0.33963 0.30294 0.48369 0.0
C41 C 0.35357 0.32131 0.43634 0.0
N42 N 0.32373 0.27281 0.46534 0.0
C43 C 0.29892 0.25801 0.49777 0.0
C44 C 0.03123 0.97411 0.40861 0.0
N45 N 0.06009 0.05771 0.51917 0.0
C46 C 0.09207 0.04812 0.51471 0.0
C47 C 0.11752 0.07143 0.52024 0.0
C48 C 0.11006 0.105 0.53071 0.0
C49 C 0.0768 0.11412 0.53524 0.0
C50 C 0.05213 0.09002 0.52918 0.0
Zn51 Zn 0.02324 0.023 0.51279 0.0
C52 C 0.96591 0.04419 0.43022 0.0
N53 N 0.94577 0.95108 0.50239 0.0
C54 C 0.95276 0.9186 0.49156 0.0
C55 C 0.9141 0.9616 0.50718 0.0
C56 C 0.88795 0.93918 0.50064 0.0
C57 C 0.89433 0.90551 0.48894 0.0
C58 C 0.92731 0.89529 0.48471 0.0
Zn59 Zn 0.98296 0.98538 0.50878 0.0
O60 O 0.04511 0.99933 0.43507 0.0
C61 C 0.04042 0.96416 0.59114 0.0
O62 O 0.00449 0.96329 0.42935 0.0
H63 H 0.90906 0.98751 0.51583 0.0
H64 H 0.09788 0.02231 0.5068 0.0
H65 H 0.9781 0.91078 0.48764 0.0
O66 O 0.05099 0.99228 0.57552 0.0
O67 O 0.01203 0.95451 0.56996 0.0
H68 H 0.02657 0.09713 0.53281 0.0
O69 O 0.96182 0.00833 0.58839 0.0
O70 O 0.00088 0.0459 0.59017 0.0
O71 O 0.95478 0.01663 0.44759 0.0
O72 O 0.99471 0.05328 0.44987 0.0
C73 C 0.97484 0.03452 0.61269 0.0
H74 H 0.14272 0.06326 0.51538 0.0
H75 H 0.06985 0.13958 0.54407 0.0
H76 H 0.863 0.94812 0.50541 0.0
H77 H 0.93337 0.86966 0.4752 0.0
C78 C 0.46844 0.46345 0.9265 0.0
N79 N 0.56202 0.45158 0.0187 0.0
C80 C 0.55492 0.41919 0.02792 0.0
C81 C 0.58033 0.39601 0.03543 0.0
C82 C 0.61339 0.40624 0.03353 0.0
C83 C 0.6199 0.43979 0.02333 0.0
C84 C 0.59377 0.4621 0.01605 0.0
Zn85 Zn 0.52471 0.48566 0.01197 0.0
C86 C 0.53391 0.5341 0.91108 0.0
N87 N 0.44721 0.55748 0.00147 0.0
C88 C 0.4153 0.54727 0.00311 0.0
C89 C 0.45472 0.58984 0.99314 0.0
C90 C 0.42962 0.61333 0.9855 0.0
C91 C 0.39641 0.60349 0.98654 0.0
C92 C 0.38945 0.56993 -0.00418 0.0
Zn93 Zn 0.48438 0.5232 0.00833 0.0
O94 O 0.49665 0.45408 0.94833 0.0
C95 C 0.47524 0.47509 0.10954 0.0
O96 O 0.4576 0.49167 0.94297 0.0
H97 H 0.48024 0.59744 0.99171 0.0
H98 H 0.52951 0.41137 0.03015 0.0
H99 H 0.40984 0.52144 0.00975 0.0
O100 O 0.50224 0.46413 0.08939 0.0
O101 O 0.46166 0.50012 0.08381 0.0
H102 H 0.5989 0.48793 0.00867 0.0
O103 O 0.51197 0.55423 0.0739 0.0
O104 O 0.55193 0.51759 0.07565 0.0
O105 O 0.50761 0.54558 0.9332 0.0
O106 O 0.54674 0.50807 0.9344 0.0
C107 C 0.54061 0.54525 0.0941 0.0
H108 H 0.57415 0.37047 0.04374 0.0
H109 H 0.64494 0.44872 0.0204 0.0
H110 H 0.43619 0.63883 0.97783 0.0
H111 H 0.36429 0.56125 -0.00191 0.0
H112 H 0.30051 0.20188 0.56517 0.0
H113 H 0.10883 0.16793 0.4842 0.0
H114 H 0.23474 0.27226 0.47499 0.0
H115 H 0.17227 0.10005 0.5882 0.0
H116 H 0.15356 0.20825 0.48853 0.0
H117 H 0.25301 0.16621 0.58313 0.0
C118 C 0.27588 0.21006 0.55054 0.0
C119 C 0.27116 0.2399 0.51908 0.0
C120 C 0.15767 0.18463 0.51081 0.0
C121 C 0.21709 0.19923 0.53766 0.0
C122 C 0.13202 0.16158 0.50862 0.0
C123 C 0.13674 0.13035 0.53554 0.0
C124 C 0.18846 0.17645 0.53979 0.0
C125 C 0.16763 0.12351 0.56567 0.0
C126 C 0.24884 0.18969 0.56036 0.0
C127 C 0.2391 0.24941 0.49991 0.0
N128 N 0.19234 0.14626 0.56663 0.0
N129 N 0.21324 0.22897 0.50899 0.0
H130 H 0.26843 0.77278 0.03064 0.0
H131 H 0.33642 0.59579 0.92137 0.0
H132 H 0.20706 0.69688 0.94044 0.0
H133 H 0.39422 0.66726 0.03356 0.0
H134 H 0.29086 0.63531 0.91443 0.0
H135 H 0.31707 0.73779 0.01664 0.0
C136 C 0.26544 0.74899 0.00653 0.0
C137 C 0.23407 0.73755 0.98618 0.0
C138 C 0.31359 0.64241 0.94023 0.0
C139 C 0.28906 0.69717 0.97136 0.0
C140 C 0.33957 0.61976 0.94463 0.0
C141 C 0.36917 0.62801 0.97872 0.0
C142 C 0.31714 0.67362 0.97009 0.0
C143 C 0.37202 0.65981 0.00646 0.0
C144 C 0.29307 0.72893 -0.00102 0.0
C145 C 0.23109 0.70649 0.9562 0.0
N146 N 0.34628 0.68133 0.00187 0.0
N147 N 0.25827 0.68719 0.95006 0.0
H148 H 0.76329 0.74069 0.54173 0.0
H149 H 0.83363 0.91333 0.42753 0.0
H150 H 0.70285 0.8156 0.45189 0.0
H151 H 0.89197 0.84245 0.5345 0.0
H152 H 0.78719 0.8748 0.42335 0.0
H153 H 0.81253 0.77411 0.52543 0.0
C154 C 0.76061 0.76394 0.51738 0.0
C155 C 0.72935 0.77557 0.49773 0.0
C156 C 0.81021 0.86758 0.4474 0.0
C157 C 0.78503 0.81413 0.48008 0.0
C158 C 0.8367 0.88966 0.45017 0.0
C159 C 0.86669 0.88132 0.4821 0.0
C160 C 0.81361 0.83686 0.47682 0.0
C161 C 0.86942 0.84993 0.50914 0.0
C162 C 0.78859 0.78308 0.50843 0.0
C163 C 0.72677 0.80589 0.46724 0.0
N164 N 0.84316 0.82897 0.5063 0.0
N165 N 0.75429 0.82431 0.4597 0.0
H166 H 0.7454 0.24013 0.98825 0.0
H167 H 0.67301 0.41497 0.09915 0.0
H168 H 0.80393 0.31587 0.08603 0.0
H169 H 0.6167 0.34254 0.98658 0.0
H170 H 0.71931 0.37637 0.10629 0.0
H171 H 0.6959 0.27418 0.00013 0.0
C172 C 0.74757 0.26371 0.01338 0.0
C173 C 0.77839 0.27537 0.0366 0.0
C174 C 0.69676 0.36883 0.08033 0.0
C175 C 0.72245 0.31465 0.04924 0.0
C176 C 0.67036 0.39096 0.07585 0.0
C177 C 0.64098 0.38218 0.04158 0.0
C178 C 0.69388 0.33762 0.05026 0.0
C179 C 0.63876 0.35037 0.01375 0.0
C180 C 0.71945 0.28322 0.01982 0.0
C181 C 0.78034 0.30612 0.06798 0.0
N182 N 0.66492 0.32936 0.01833 0.0
N183 N 0.75272 0.32488 0.07304 0.0
H184 H 0.16614 0.87044 0.17075 0.0
H185 H 0.00102 0.93331 0.3192 0.0
H186 H 0.0728 0.87071 0.06352 0.0
H187 H 0.09586 0.97537 0.3773 0.0
H188 H 0.02688 0.90335 0.23297 0.0
H189 H 0.14071 0.90224 0.25589 0.0
C190 C 0.14029 0.87716 0.16541 0.0
C191 C 0.12145 0.86814 0.11035 0.0
C192 C 0.04195 0.91926 0.26449 0.0
C193 C 0.09234 0.9039 0.20697 0.0
C194 C 0.02727 0.93625 0.31372 0.0
C195 C 0.04635 0.95687 0.35524 0.0
C196 C 0.07604 0.92237 0.25761 0.0
C197 C 0.08026 0.95986 0.34601 0.0
C198 C 0.1259 0.89538 0.21358 0.0
C199 C 0.08812 0.87746 0.10523 0.0
N200 N 0.09413 0.94252 0.29843 0.0
N201 N 0.07451 0.89464 0.15321 0.0
H202 H 0.59686 0.68518 0.66142 0.0
H203 H 0.58663 0.51418 0.84303 0.0
H204 H 0.64876 0.59734 0.60363 0.0
H205 H 0.51803 0.59485 0.86478 0.0
H206 H 0.61358 0.54546 0.76192 0.0
H207 H 0.57221 0.65384 0.74458 0.0
C208 C 0.60334 0.65936 0.66672 0.0
C209 C 0.62489 0.64382 0.62566 0.0
C210 C 0.59257 0.5562 0.78442 0.0
C211 C 0.59649 0.60769 0.72024 0.0
C212 C 0.57719 0.53839 0.83066 0.0
C213 C 0.54999 0.55188 0.86058 0.0
C214 C 0.58084 0.58782 0.76861 0.0
C215 C 0.53883 0.58339 0.8428 0.0
C216 C 0.58904 0.64141 0.71382 0.0
C217 C 0.63203 0.61017 0.63403 0.0
N218 N 0.55438 0.6003 0.7982 0.0
N219 N 0.61789 0.59319 0.68047 0.0
H220 H 0.83907 0.10485 0.11732 0.0
H221 H 0.97829 0.1076 0.39446 0.0
H222 H 0.89368 0.19284 0.17408 0.0
H223 H 0.90733 0.02842 0.36679 0.0
H224 H 0.94594 0.14034 0.31761 0.0
H225 H 0.86091 0.07774 0.21304 0.0
C226 C 0.85507 0.11867 0.15087 0.0
C227 C 0.86469 0.15103 0.13793 0.0
C228 C 0.93727 0.11594 0.32884 0.0
C229 C 0.89052 0.12001 0.24649 0.0
C230 C 0.95583 0.09715 0.37246 0.0
C231 C 0.94571 0.06507 0.38657 0.0
C232 C 0.90858 0.1024 0.29852 0.0
C233 C 0.91622 0.05294 0.35705 0.0
C234 C 0.86765 0.1032 0.20533 0.0
C235 C 0.88554 0.1679 0.18263 0.0
N236 N 0.89891 0.07147 0.31395 0.0
N237 N 0.89825 0.15199 0.23444 0.0
H238 H 0.33755 0.39955 0.61739 0.0
H239 H 0.48201 0.40025 0.88563 0.0
H240 H 0.39961 0.31506 0.65505 0.0
H241 H 0.40903 0.47764 0.86598 0.0
H242 H 0.44968 0.3666 0.80755 0.0
H243 H 0.3596 0.42602 0.71564 0.0
C244 C 0.35514 0.38624 0.64761 0.0
C245 C 0.36671 0.35512 0.62877 0.0
C246 C 0.44059 0.39082 0.82079 0.0
C247 C 0.39307 0.38559 0.73971 0.0
C248 C 0.45913 0.41012 0.86514 0.0
C249 C 0.44845 0.44201 0.88181 0.0
C250 C 0.41129 0.40358 0.79252 0.0
C251 C 0.41843 0.45335 0.85417 0.0
C252 C 0.36795 0.40139 0.70336 0.0
C253 C 0.3899 0.33897 0.66863 0.0
N254 N 0.4011 0.4343 0.81051 0.0
N255 N 0.40279 0.35464 0.72184 0.0
H256 H 0.66647 0.60646 0.41266 0.0
H257 H 0.52756 0.60856 0.13488 0.0
H258 H 0.61185 0.69436 0.36248 0.0
H259 H 0.59908 0.52996 0.15691 0.0
H260 H 0.55949 0.64148 0.21478 0.0
H261 H 0.64459 0.57925 0.315 0.0
C262 C 0.65043 0.62022 0.38016 0.0
C263 C 0.64087 0.6526 0.39542 0.0
C264 C 0.56836 0.61716 0.20164 0.0
C265 C 0.61498 0.62147 0.28466 0.0
C266 C 0.55004 0.59829 0.15627 0.0
C267 C 0.56046 0.56631 0.13967 0.0
C268 C 0.59708 0.60382 0.23112 0.0
C269 C 0.58996 0.55439 0.16853 0.0
C270 C 0.63784 0.6047 0.32459 0.0
C271 C 0.61995 0.66941 0.35207 0.0
N272 N 0.60702 0.57299 0.21328 0.0
N273 N 0.60721 0.65345 0.29909 0.0
H274 H 0.85643 0.09542 0.92522 0.0
H275 H 0.99188 0.09502 0.66363 0.0
H276 H 0.91117 0.18189 0.87619 0.0
H277 H 0.92217 0.01533 0.68008 0.0
H278 H 0.9649 0.12557 0.74702 0.0
H279 H 0.88217 0.06417 0.84026 0.0
C280 C 0.87379 0.10782 0.8964 0.0
C281 C 0.88165 0.14129 0.90759 0.0
C282 C 0.95547 0.10142 0.73241 0.0
C283 C 0.91126 0.10576 0.81088 0.0
C284 C 0.97097 0.08385 0.68498 0.0
C285 C 0.95927 0.05253 0.66485 0.0
C286 C 0.92818 0.08753 0.76042 0.0
C287 C 0.93199 0.03941 0.69413 0.0
C288 C 0.88837 0.09003 0.8479 0.0
C289 C 0.90412 0.15624 0.86869 0.0
N290 N 0.91739 0.05696 0.74061 0.0
N291 N 0.91827 0.13832 0.82234 0.0
H292 H 0.43492 0.37018 0.44933 0.0
H293 H 0.41049 0.47787 0.13983 0.0
H294 H 0.34192 0.37369 0.3413 0.0
H295 H 0.5041 0.43386 0.19671 0.0
H296 H 0.38455 0.4478 0.22385 0.0
H297 H 0.46053 0.4016 0.36675 0.0
C298 C 0.41994 0.37771 0.40821 0.0
C299 C 0.38636 0.36941 0.40173 0.0
C300 C 0.41076 0.44482 0.21781 0.0
C301 C 0.41524 0.40543 0.30795 0.0
C302 C 0.42559 0.46207 0.17026 0.0
C303 C 0.45946 0.45826 0.16136 0.0
C304 C 0.43008 0.42419 0.25734 0.0
C305 C 0.47788 0.43735 0.20183 0.0
C306 C 0.43454 0.39545 0.36116 0.0
C307 C 0.36796 0.3795 0.34758 0.0
N308 N 0.46298 0.42122 0.24836 0.0
N309 N 0.38261 0.39725 0.30279 0.0
H310 H 0.11031 0.81247 0.84815 0.0
H311 H 0.09992 0.9795 0.65127 0.0
H312 H 0.16551 0.90086 0.89914 0.0
H313 H 0.02787 0.901 0.62898 0.0
H314 H 0.13198 0.94602 0.72694 0.0
H315 H 0.08853 0.83935 0.75148 0.0
C316 C 0.11862 0.83715 0.83783 0.0
C317 C 0.13964 0.85459 0.88129 0.0
C318 C 0.10927 0.93602 0.70518 0.0
C319 C 0.11455 0.88558 0.7722 0.0
C320 C 0.0909 0.95514 0.66199 0.0
C321 C 0.06089 0.94324 0.63435 0.0
C322 C 0.09768 0.90467 0.72083 0.0
C323 C 0.05065 0.91134 0.64971 0.0
C324 C 0.10593 0.8526 0.7832 0.0
C325 C 0.14931 0.88668 0.86658 0.0
N326 N 0.06892 0.89323 0.69224 0.0
N327 N 0.13646 0.90127 0.81354 0.0
loop_
_geom_bond_atom_site_label_1
_geom_bond_atom_site_label_2
_geom_bond_distance
_geom_bond_site_symmetry_2
_ccdc_geom_bond_type
H0 C3 0.929 . S
H1 C6 0.929 . S
H2 C8 0.930 . S
C3 H0 0.929 . S
C3 C4 1.398 1_554 S
C3 C5 1.396 . S
C4 C3 1.398 1_556 S
C4 C8 1.407 . S
C5 C3 1.396 . S
C5 C6 1.394 . S
C6 H1 0.929 . S
C6 C5 1.394 . S
C6 C7 1.382 . S
C7 C6 1.382 . S
C7 C8 1.392 1_554 S
C7 N9 1.420 1_554 S
C8 H2 0.930 . S
C8 C4 1.407 . S
C8 C7 1.392 1_556 S
N9 C7 1.420 1_556 S
N9 C10 1.244 1_556 S
C10 N9 1.244 1_554 S
H11 C14 0.929 . S
H12 C17 0.929 . S
H13 C19 0.930 . S
C14 H11 0.929 . S
C14 C15 1.398 . S
C14 C16 1.396 . S
C15 C14 1.398 . S
C15 C19 1.407 . S
C16 C14 1.396 . S
C16 C17 1.394 . S
C17 H12 0.929 . S
C17 C16 1.394 . S
C17 C18 1.382 . S
C18 C17 1.382 . S
C18 C19 1.392 . S
C18 N20 1.420 . S
C19 H13 0.930 . S
C19 C15 1.407 . S
C19 C18 1.392 . S
N20 C18 1.420 . S
N20 C21 1.244 . S
C21 N20 1.244 . S
H22 C25 0.929 . S
H23 C28 0.929 . S
H24 C30 0.930 . S
C25 H22 0.929 . S
C25 C26 1.398 1_554 S
C25 C27 1.396 . S
C26 C25 1.398 1_556 S
C26 C30 1.407 . S
C27 C25 1.396 . S
C27 C28 1.394 . S
C28 H23 0.929 . S
C28 C27 1.394 . S
C28 C29 1.382 1_554 S
C29 C28 1.382 1_556 S
C29 C30 1.392 . S
C29 N31 1.420 . S
C30 H24 0.930 . S
C30 C26 1.407 . S
C30 C29 1.392 . S
N31 C29 1.420 . S
N31 C32 1.244 1_556 S
C32 N31 1.244 1_554 S
H33 C36 0.929 . S
H34 C39 0.929 . S
H35 C41 0.930 . S
C36 H33 0.929 . S
C36 C37 1.398 . S
C36 C38 1.396 . S
C37 C36 1.398 . S
C37 C41 1.407 . S
C38 C36 1.396 . S
C38 C39 1.394 . S
C39 H34 0.929 . S
C39 C38 1.394 . S
C39 C40 1.382 . S
C40 C39 1.382 . S
C40 C41 1.392 . S
C40 N42 1.420 . S
C41 H35 0.930 . S
C41 C37 1.407 . S
C41 C40 1.392 . S
N42 C40 1.420 . S
N42 C43 1.244 . S
C43 N42 1.244 . S
C44 O60 1.230 1_565 S
C44 O62 1.254 . S
N45 C46 1.333 . S
N45 C50 1.307 . S
N45 Zn51 2.020 . S
C46 N45 1.333 . S
C46 C47 1.379 . S
C46 H64 0.952 . S
C47 C46 1.379 . S
C47 C48 1.390 . S
C47 H74 0.949 . S
C48 C47 1.390 . S
C48 C49 1.357 . S
C49 C48 1.357 . S
C49 C50 1.370 . S
C49 H75 0.950 . S
C50 N45 1.307 . S
C50 C49 1.370 . S
C50 H68 0.948 . S
Zn51 N45 2.020 . S
Zn51 O60 2.053 . S
Zn51 O66 2.034 1_545 S
Zn51 O70 2.025 1_455 S
Zn51 O72 2.024 1_455 S
C52 O71 1.246 . S
C52 O72 1.249 . S
N53 C54 1.307 . S
N53 C55 1.333 . S
N53 Zn59 2.020 . S
C54 N53 1.307 . S
C54 C58 1.370 . S
C54 H65 0.948 . S
C55 N53 1.333 . S
C55 C56 1.379 . S
C55 H63 0.952 . S
C56 C55 1.379 . S
C56 C57 1.390 . S
C56 H76 0.949 . S
C57 C56 1.390 . S
C57 C58 1.357 . S
C58 C54 1.370 . S
C58 C57 1.357 . S
C58 H77 0.950 . S
Zn59 N53 2.020 . S
Zn59 O62 2.025 1_655 S
Zn59 O67 2.024 1_655 S
Zn59 O69 2.039 1_565 S
Zn59 O71 2.034 1_565 S
O60 C44 1.230 1_545 S
O60 Zn51 2.053 . S
C61 O66 1.246 . S
C61 O67 1.249 . S
O62 C44 1.254 . S
O62 Zn59 2.025 1_455 S
H63 C55 0.952 . S
H64 C46 0.952 . S
H65 C54 0.948 . S
O66 Zn51 2.034 1_565 S
O66 C61 1.246 . S
O67 Zn59 2.024 1_455 S
O67 C61 1.249 . S
H68 C50 0.948 . S
O69 Zn59 2.039 1_545 S
O69 C73 1.251 . S
O70 Zn51 2.025 1_655 S
O70 C73 1.254 . S
O71 C52 1.246 . S
O71 Zn59 2.034 1_545 S
O72 Zn51 2.024 1_655 S
O72 C52 1.249 . S
C73 O69 1.251 . S
C73 O70 1.254 . S
H74 C47 0.949 . S
H75 C49 0.950 . S
H76 C56 0.949 . S
H77 C58 0.950 . S
C78 O94 1.251 . S
C78 O96 1.254 . S
N79 C80 1.333 . S
N79 C84 1.307 . S
N79 Zn85 2.020 . S
C80 N79 1.333 . S
C80 C81 1.379 . S
C80 H98 0.952 1_554 S
C81 C80 1.379 . S
C81 C82 1.390 . S
C81 H108 0.949 1_554 S
C82 C81 1.390 . S
C82 C83 1.357 . S
C83 C82 1.357 . S
C83 C84 1.370 . S
C83 H109 0.950 . S
C84 N79 1.307 . S
C84 C83 1.370 . S
C84 H102 0.948 . S
Zn85 N79 2.020 . S
Zn85 O94 2.039 1_554 S
Zn85 O100 2.034 . S
Zn85 O104 2.025 . S
Zn85 O106 2.024 1_554 S
C86 O105 1.246 . S
C86 O106 1.249 . S
N87 C88 1.307 . S
N87 C89 1.333 . S
N87 Zn93 2.020 . S
C88 N87 1.307 . S
C88 C92 1.370 . S
C88 H99 0.948 1_554 S
C89 N87 1.333 . S
C89 C90 1.379 . S
C89 H97 0.952 . S
C90 C89 1.379 . S
C90 C91 1.390 . S
C90 H110 0.949 . S
C91 C90 1.390 . S
C91 C92 1.357 . S
C92 C88 1.370 . S
C92 C91 1.357 . S
C92 H111 0.950 1_554 S
Zn93 N87 2.020 . S
Zn93 O96 2.025 1_554 S
Zn93 O101 2.024 . S
Zn93 O103 2.039 . S
Zn93 O105 2.034 1_554 S
O94 C78 1.251 . S
O94 Zn85 2.039 1_556 S
C95 O100 1.246 . S
C95 O101 1.249 . S
O96 C78 1.254 . S
O96 Zn93 2.025 1_556 S
H97 C89 0.952 . S
H98 C80 0.952 1_556 S
H99 C88 0.948 1_556 S
O100 Zn85 2.034 . S
O100 C95 1.246 . S
O101 Zn93 2.024 . S
O101 C95 1.249 . S
H102 C84 0.948 . S
O103 Zn93 2.039 . S
O103 C107 1.251 . S
O104 Zn85 2.025 . S
O104 C107 1.254 . S
O105 C86 1.246 . S
O105 Zn93 2.034 1_556 S
O106 Zn85 2.024 1_556 S
O106 C86 1.249 . S
C107 O103 1.251 . S
C107 O104 1.254 . S
H108 C81 0.949 1_556 S
H109 C83 0.950 . S
H110 C90 0.949 . S
H111 C92 0.950 1_556 S
H112 C118 0.930 . S
H113 C122 0.930 . S
H114 C127 0.929 . S
H115 C125 0.929 . S
H116 C120 0.929 . S
H117 C126 0.929 . S
C118 H112 0.930 . S
C118 C119 1.367 . S
C118 C126 1.378 . S
C119 C118 1.367 . S
C119 C127 1.433 . S
C120 H116 0.929 . S
C120 C122 1.378 . S
C120 C124 1.350 . S
C121 C124 1.463 . S
C121 C126 1.350 . S
C121 N129 1.427 . S
C122 H113 0.930 . S
C122 C120 1.378 . S
C122 C123 1.367 . S
C123 C122 1.367 . S
C123 C125 1.433 . S
C124 C120 1.350 . S
C124 C121 1.463 . S
C124 N128 1.427 . S
C125 H115 0.929 . S
C125 C123 1.433 . S
C125 N128 1.384 . S
C126 H117 0.929 . S
C126 C118 1.378 . S
C126 C121 1.350 . S
C127 H114 0.929 . S
C127 C119 1.433 . S
C127 N129 1.384 . S
N128 C124 1.427 . S
N128 C125 1.384 . S
N129 C121 1.427 . S
N129 C127 1.384 . S
H130 C136 0.930 . S
H131 C140 0.930 . S
H132 C145 0.929 . S
H133 C143 0.929 . S
H134 C138 0.929 . S
H135 C144 0.929 . S
C136 H130 0.930 . S
C136 C137 1.367 . S
C136 C144 1.378 . S
C137 C136 1.367 . S
C137 C145 1.433 1_554 S
C138 H134 0.929 . S
C138 C140 1.378 . S
C138 C142 1.350 1_556 S
C139 C142 1.463 . S
C139 C144 1.350 . S
C139 N147 1.427 1_554 S
C140 H131 0.930 . S
C140 C138 1.378 . S
C140 C141 1.367 1_556 S
C141 C140 1.367 1_554 S
C141 C143 1.433 . S
C142 C138 1.350 1_554 S
C142 C139 1.463 . S
C142 N146 1.427 . S
C143 H133 0.929 . S
C143 C141 1.433 . S
C143 N146 1.384 . S
C144 H135 0.929 . S
C144 C136 1.378 . S
C144 C139 1.350 . S
C145 H132 0.929 . S
C145 C137 1.433 1_556 S
C145 N147 1.384 . S
N146 C142 1.427 . S
N146 C143 1.384 . S
N147 C139 1.427 1_556 S
N147 C145 1.384 . S
H148 C154 0.930 . S
H149 C158 0.930 . S
H150 C163 0.929 . S
H151 C161 0.929 . S
H152 C156 0.929 . S
H153 C162 0.929 . S
C154 H148 0.930 . S
C154 C155 1.367 . S
C154 C162 1.378 . S
C155 C154 1.367 . S
C155 C163 1.433 . S
C156 H152 0.929 . S
C156 C158 1.378 . S
C156 C160 1.350 . S
C157 C160 1.463 . S
C157 C162 1.350 . S
C157 N165 1.427 . S
C158 H149 0.930 . S
C158 C156 1.378 . S
C158 C159 1.367 . S
C159 C158 1.367 . S
C159 C161 1.433 . S
C160 C156 1.350 . S
C160 C157 1.463 . S
C160 N164 1.427 . S
C161 H151 0.929 . S
C161 C159 1.433 . S
C161 N164 1.384 . S
C162 H153 0.929 . S
C162 C154 1.378 . S
C162 C157 1.350 . S
C163 H150 0.929 . S
C163 C155 1.433 . S
C163 N165 1.384 . S
N164 C160 1.427 . S
N164 C161 1.384 . S
N165 C157 1.427 . S
N165 C163 1.384 . S
H166 C172 0.930 . S
H167 C176 0.930 . S
H168 C181 0.929 . S
H169 C179 0.929 . S
H170 C174 0.929 . S
H171 C180 0.929 . S
C172 H166 0.930 . S
C172 C173 1.367 1_556 S
C172 C180 1.378 . S
C173 C172 1.367 1_554 S
C173 C181 1.433 . S
C174 H170 0.929 . S
C174 C176 1.378 . S
C174 C178 1.350 . S
C175 C178 1.463 . S
C175 C180 1.350 1_554 S
C175 N183 1.427 . S
C176 H167 0.930 . S
C176 C174 1.378 . S
C176 C177 1.367 . S
C177 C176 1.367 . S
C177 C179 1.433 1_554 S
C178 C174 1.350 . S
C178 C175 1.463 . S
C178 N182 1.427 1_554 S
C179 H169 0.929 . S
C179 C177 1.433 1_556 S
C179 N182 1.384 . S
C180 H171 0.929 . S
C180 C172 1.378 . S
C180 C175 1.350 1_556 S
C181 H168 0.929 . S
C181 C173 1.433 . S
C181 N183 1.384 . S
N182 C178 1.427 1_556 S
N182 C179 1.384 . S
N183 C175 1.427 . S
N183 C181 1.384 . S
H184 C190 0.930 . S
H185 C194 0.930 . S
H186 C199 0.929 . S
H187 C197 0.929 . S
H188 C192 0.929 . S
H189 C198 0.929 . S
C190 H184 0.930 . S
C190 C191 1.367 . S
C190 C198 1.378 . S
C191 C190 1.367 . S
C191 C199 1.433 . S
C192 H188 0.929 . S
C192 C194 1.378 . S
C192 C196 1.350 . S
C193 C196 1.463 . S
C193 C198 1.350 . S
C193 N201 1.427 . S
C194 H185 0.930 . S
C194 C192 1.378 . S
C194 C195 1.367 . S
C195 C194 1.367 . S
C195 C197 1.433 . S
C196 C192 1.350 . S
C196 C193 1.463 . S
C196 N200 1.427 . S
C197 H187 0.929 . S
C197 C195 1.433 . S
C197 N200 1.384 . S
C198 H189 0.929 . S
C198 C190 1.378 . S
C198 C193 1.350 . S
C199 H186 0.929 . S
C199 C191 1.433 . S
C199 N201 1.384 . S
N200 C196 1.427 . S
N200 C197 1.384 . S
N201 C193 1.427 . S
N201 C199 1.384 . S
H202 C208 0.930 . S
H203 C212 0.930 . S
H204 C217 0.929 . S
H205 C215 0.929 . S
H206 C210 0.929 . S
H207 C216 0.929 . S
C208 H202 0.930 . S
C208 C209 1.367 . S
C208 C216 1.378 . S
C209 C208 1.367 . S
C209 C217 1.433 . S
C210 H206 0.929 . S
C210 C212 1.378 . S
C210 C214 1.350 . S
C211 C214 1.463 . S
C211 C216 1.350 . S
C211 N219 1.427 . S
C212 H203 0.930 . S
C212 C210 1.378 . S
C212 C213 1.367 . S
C213 C212 1.367 . S
C213 C215 1.433 . S
C214 C210 1.350 . S
C214 C211 1.463 . S
C214 N218 1.427 . S
C215 H205 0.929 . S
C215 C213 1.433 . S
C215 N218 1.384 . S
C216 H207 0.929 . S
C216 C208 1.378 . S
C216 C211 1.350 . S
C217 H204 0.929 . S
C217 C209 1.433 . S
C217 N219 1.384 . S
N218 C214 1.427 . S
N218 C215 1.384 . S
N219 C211 1.427 . S
N219 C217 1.384 . S
H220 C226 0.930 . S
H221 C230 0.930 . S
H222 C235 0.929 . S
H223 C233 0.929 . S
H224 C228 0.929 . S
H225 C234 0.929 . S
C226 H220 0.930 . S
C226 C227 1.367 . S
C226 C234 1.378 . S
C227 C226 1.367 . S
C227 C235 1.433 . S
C228 H224 0.929 . S
C228 C230 1.378 . S
C228 C232 1.350 . S
C229 C232 1.463 . S
C229 C234 1.350 . S
C229 N237 1.427 . S
C230 H221 0.930 . S
C230 C228 1.378 . S
C230 C231 1.367 . S
C231 C230 1.367 . S
C231 C233 1.433 . S
C232 C228 1.350 . S
C232 C229 1.463 . S
C232 N236 1.427 . S
C233 H223 0.929 . S
C233 C231 1.433 . S
C233 N236 1.384 . S
C234 H225 0.929 . S
C234 C226 1.378 . S
C234 C229 1.350 . S
C235 H222 0.929 . S
C235 C227 1.433 . S
C235 N237 1.384 . S
N236 C232 1.427 . S
N236 C233 1.384 . S
N237 C229 1.427 . S
N237 C235 1.384 . S
H238 C244 0.930 . S
H239 C248 0.930 . S
H240 C253 0.929 . S
H241 C251 0.929 . S
H242 C246 0.929 . S
H243 C252 0.929 . S
C244 H238 0.930 . S
C244 C245 1.367 . S
C244 C252 1.378 . S
C245 C244 1.367 . S
C245 C253 1.433 . S
C246 H242 0.929 . S
C246 C248 1.378 . S
C246 C250 1.350 . S
C247 C250 1.463 . S
C247 C252 1.350 . S
C247 N255 1.427 . S
C248 H239 0.930 . S
C248 C246 1.378 . S
C248 C249 1.367 . S
C249 C248 1.367 . S
C249 C251 1.433 . S
C250 C246 1.350 . S
C250 C247 1.463 . S
C250 N254 1.427 . S
C251 H241 0.929 . S
C251 C249 1.433 . S
C251 N254 1.384 . S
C252 H243 0.929 . S
C252 C244 1.378 . S
C252 C247 1.350 . S
C253 H240 0.929 . S
C253 C245 1.433 . S
C253 N255 1.384 . S
N254 C250 1.427 . S
N254 C251 1.384 . S
N255 C247 1.427 . S
N255 C253 1.384 . S
H256 C262 0.930 . S
H257 C266 0.930 . S
H258 C271 0.929 . S
H259 C269 0.929 . S
H260 C264 0.929 . S
H261 C270 0.929 . S
C262 H256 0.930 . S
C262 C263 1.367 . S
C262 C270 1.378 . S
C263 C262 1.367 . S
C263 C271 1.433 . S
C264 H260 0.929 . S
C264 C266 1.378 . S
C264 C268 1.350 . S
C265 C268 1.463 . S
C265 C270 1.350 . S
C265 N273 1.427 . S
C266 H257 0.930 . S
C266 C264 1.378 . S
C266 C267 1.367 . S
C267 C266 1.367 . S
C267 C269 1.433 . S
C268 C264 1.350 . S
C268 C265 1.463 . S
C268 N272 1.427 . S
C269 H259 0.929 . S
C269 C267 1.433 . S
C269 N272 1.384 . S
C270 H261 0.929 . S
C270 C262 1.378 . S
C270 C265 1.350 . S
C271 H258 0.929 . S
C271 C263 1.433 . S
C271 N273 1.384 . S
N272 C268 1.427 . S
N272 C269 1.384 . S
N273 C265 1.427 . S
N273 C271 1.384 . S
H274 C280 0.930 . S
H275 C284 0.930 . S
H276 C289 0.929 . S
H277 C287 0.929 . S
H278 C282 0.929 . S
H279 C288 0.929 . S
C280 H274 0.930 . S
C280 C281 1.367 . S
C280 C288 1.378 . S
C281 C280 1.367 . S
C281 C289 1.433 . S
C282 H278 0.929 . S
C282 C284 1.378 . S
C282 C286 1.350 . S
C283 C286 1.463 . S
C283 C288 1.350 . S
C283 N291 1.427 . S
C284 H275 0.930 . S
C284 C282 1.378 . S
C284 C285 1.367 . S
C285 C284 1.367 . S
C285 C287 1.433 . S
C286 C282 1.350 . S
C286 C283 1.463 . S
C286 N290 1.427 . S
C287 H277 0.929 . S
C287 C285 1.433 . S
C287 N290 1.384 . S
C288 H279 0.929 . S
C288 C280 1.378 . S
C288 C283 1.350 . S
C289 H276 0.929 . S
C289 C281 1.433 . S
C289 N291 1.384 . S
N290 C286 1.427 . S
N290 C287 1.384 . S
N291 C283 1.427 . S
N291 C289 1.384 . S
H292 C298 0.930 . S
H293 C302 0.930 . S
H294 C307 0.929 . S
H295 C305 0.929 . S
H296 C300 0.929 . S
H297 C306 0.929 . S
C298 H292 0.930 . S
C298 C299 1.367 . S
C298 C306 1.378 . S
C299 C298 1.367 . S
C299 C307 1.433 . S
C300 H296 0.929 . S
C300 C302 1.378 . S
C300 C304 1.350 . S
C301 C304 1.463 . S
C301 C306 1.350 . S
C301 N309 1.427 . S
C302 H293 0.930 . S
C302 C300 1.378 . S
C302 C303 1.367 . S
C303 C302 1.367 . S
C303 C305 1.433 . S
C304 C300 1.350 . S
C304 C301 1.463 . S
C304 N308 1.427 . S
C305 H295 0.929 . S
C305 C303 1.433 . S
C305 N308 1.384 . S
C306 H297 0.929 . S
C306 C298 1.378 . S
C306 C301 1.350 . S
C307 H294 0.929 . S
C307 C299 1.433 . S
C307 N309 1.384 . S
N308 C304 1.427 . S
N308 C305 1.384 . S
N309 C301 1.427 . S
N309 C307 1.384 . S
H310 C316 0.930 . S
H311 C320 0.930 . S
H312 C325 0.929 . S
H313 C323 0.929 . S
H314 C318 0.929 . S
H315 C324 0.929 . S
C316 H310 0.930 . S
C316 C317 1.367 . S
C316 C324 1.378 . S
C317 C316 1.367 . S
C317 C325 1.433 . S
C318 H314 0.929 . S
C318 C320 1.378 . S
C318 C322 1.350 . S
C319 C322 1.463 . S
C319 C324 1.350 . S
C319 N327 1.427 . S
C320 H311 0.930 . S
C320 C318 1.378 . S
C320 C321 1.367 . S
C321 C320 1.367 . S
C321 C323 1.433 . S
C322 C318 1.350 . S
C322 C319 1.463 . S
C322 N326 1.427 . S
C323 H313 0.929 . S
C323 C321 1.433 . S
C323 N326 1.384 . S
C324 H315 0.929 . S
C324 C316 1.378 . S
C324 C319 1.350 . S
C325 H312 0.929 . S
C325 C317 1.433 . S
C325 N327 1.384 . S
N326 C322 1.427 . S
N326 C323 1.384 . S
N327 C319 1.427 . S
N327 C325 1.384 . S
C123 C48 1.506 . S
C119 C43 1.507 . S
C137 C10 1.508 . S
C141 C91 1.508 . S
C155 C21 1.506 . S
C159 C57 1.509 . S
C173 C32 1.508 . S
C177 C82 1.506 . S
C195 C44 1.561 . S
C191 C5 1.541 . S
C213 C86 1.540 . S
C209 C15 1.538 . S
C227 C27 1.541 . S
C231 C52 1.556 . S
C245 C38 1.519 . S
C249 C78 1.542 . S
C267 C107 1.474 . S
C263 C16 1.452 . S
C285 C73 1.460 . S
C281 C26 1.455 . S
C303 C95 1.472 . S
C299 C37 1.470 . S
C317 C4 1.454 . S
C321 C61 1.458 . S
