# Generated by pormake.
# Topology tsx, (6,3)-cn, num edge types: 1
# Building blocks:
#     Node 0, Type 0, BuildingBlock: LEVNOQ01_clean_sbu_1, # of connection points: 6
#     Node 1, Type 0, BuildingBlock: LEVNOQ01_clean_sbu_1, # of connection points: 6
#     Node 2, Type 1, BuildingBlock: QEWDON_clean_linker_0, # of connection points: 3
#     Node 3, Type 1, BuildingBlock: QEWDON_clean_linker_0, # of connection points: 3
#     Node 4, Type 1, BuildingBlock: QEWDON_clean_linker_0, # of connection points: 3
#     Node 5, Type 1, BuildingBlock: QEWDON_clean_linker_0, # of connection points: 3
#     Edge 6, Type (0, 1), BuildingBlock: XIVTED_clean_linker_0, # of connection points: 2
#     Edge 7, Type (0, 1), BuildingBlock: XIVTED_clean_linker_0, # of connection points: 2
#     Edge 8, Type (0, 1), BuildingBlock: XIVTED_clean_linker_0, # of connection points: 2
#     Edge 9, Type (0, 1), BuildingBlock: XIVTED_clean_linker_0, # of connection points: 2
#     Edge 10, Type (0, 1), BuildingBlock: XIVTED_clean_linker_0, # of connection points: 2
#     Edge 11, Type (0, 1), BuildingBlock: XIVTED_clean_linker_0, # of connection points: 2
#     Edge 12, Type (0, 1), BuildingBlock: XIVTED_clean_linker_0, # of connection points: 2
#     Edge 13, Type (0, 1), BuildingBlock: XIVTED_clean_linker_0, # of connection points: 2
#     Edge 14, Type (0, 1), BuildingBlock: XIVTED_clean_linker_0, # of connection points: 2
#     Edge 15, Type (0, 1), BuildingBlock: XIVTED_clean_linker_0, # of connection points: 2
#     Edge 16, Type (0, 1), BuildingBlock: XIVTED_clean_linker_0, # of connection points: 2
#     Edge 17, Type (0, 1), BuildingBlock: XIVTED_clean_linker_0, # of connection points: 2
# Relax obj value: 0.108
# Max RMSD: 0.205
# Mean RMSD: 0.148
data_MOF--net-tsx--node1-LEVNOQ01_clean_sbu_1--node2-QEWDON_clean_linker_0--edge1-XIVTED_clean_linker_0
_symmetry_space_group_name_H-M    P1
_symmetry_Int_Tables_number       1
_symmetry_cell_setting            triclinic
loop_
_symmetry_equiv_pos_as_xyz
'x, y, z'
_cell_length_a     20.150929
_cell_length_b     24.386308
_cell_length_c     33.405009
_cell_angle_alpha  97.616165
_cell_angle_beta   106.524
_cell_angle_gamma 91.387656
loop_
_atom_site_label
_atom_site_type_symbol
_atom_site_fract_x
_atom_site_fract_y
_atom_site_fract_z
_atom_type_partial_charge
O0 O 0.14889 0.05506 0.1402 0.0
Mg1 Mg 0.21594 0.02971 0.10343 0.0
O2 O 0.05949 0.01192 0.08963 0.0
Mg3 Mg 0.07428 0.02462 0.02425 0.0
O4 O 0.18106 0.06307 0.05024 0.0
O5 O 0.28785 0.08417 0.08944 0.0
O6 O 0.08422 0.0352 0.95741 0.0
O7 O 0.0358 0.11409 0.0363 0.0
Mg8 Mg 0.92191 0.04049 0.96177 0.0
O9 O 0.96784 0.98209 0.99587 0.0
O10 O 0.97808 0.04991 0.91834 0.0
O11 O 0.92198 0.10973 0.00593 0.0
O12 O 0.85842 0.96973 0.95682 0.0
C13 C 0.16681 0.91644 0.0443 0.0
C14 C 0.08796 0.03205 0.12824 0.0
C15 C 0.23924 0.0898 0.0559 0.0
C16 C 0.04233 0.04532 0.92287 0.0
C17 C 0.97691 0.13485 0.03093 0.0
C18 C 0.91056 0.95179 0.98296 0.0
O19 O 0.20477 0.94337 0.07893 0.0
O20 O 0.11974 0.93878 0.01819 0.0
O21 O 0.69985 0.52204 0.62103 0.0
Mg22 Mg 0.74033 0.51765 0.5687 0.0
O23 O 0.58868 0.50659 0.58383 0.0
Mg24 Mg 0.57312 0.51986 0.51372 0.0
O25 O 0.67928 0.55983 0.52656 0.0
O26 O 0.79127 0.58167 0.54969 0.0
O27 O 0.55313 0.53194 0.4444 0.0
O28 O 0.54041 0.61111 0.52921 0.0
Mg29 Mg 0.4188 0.54515 0.48164 0.0
O30 O 0.46646 0.47536 0.49791 0.0
O31 O 0.44759 0.56374 0.42735 0.0
O32 O 0.43513 0.60649 0.53513 0.0
O33 O 0.35176 0.47693 0.4755 0.0
C34 C 0.67296 0.41124 0.50851 0.0
C35 C 0.63684 0.5106 0.61877 0.0
C36 C 0.73146 0.59005 0.52521 0.0
C37 C 0.5031 0.55116 0.41821 0.0
C38 C 0.49123 0.63448 0.54045 0.0
C39 C 0.40597 0.44998 0.48895 0.0
O40 O 0.72632 0.43808 0.53419 0.0
O41 O 0.61351 0.43172 0.49797 0.0
H42 H 0.00442 0.97448 0.41912 0.0
C43 C 0.05444 0.95741 0.42964 0.0
C44 C 0.08485 0.93331 0.39933 0.0
C45 C 0.09118 0.96523 0.47261 0.0
H46 H 0.17313 0.89206 0.38938 0.0
C47 C 0.14831 0.90881 0.41272 0.0
C48 C 0.18242 0.90997 0.45608 0.0
C49 C 0.1531 0.93873 0.48576 0.0
C50 C 0.07344 0.01067 0.50119 0.0
H51 H 0.18013 0.94272 0.51898 0.0
C52 C 0.03268 0.06706 0.47763 0.0
C53 C 0.02584 0.15192 0.53823 0.0
C54 C 0.10438 0.0131 0.55667 0.0
H55 H 0.12865 0.977 0.56823 0.0
C56 C 0.10146 0.06831 0.59633 0.0
H57 H 0.01386 0.06275 0.44323 0.0
C58 C 0.06498 0.13296 0.58923 0.0
H59 H 0.06411 0.16113 0.61694 0.0
H60 H 0.12349 0.06129 0.62861 0.0
H61 H 0.98817 0.07314 0.61641 0.0
C62 C 0.9667 0.03421 0.59727 0.0
C63 C 0.94007 -0.00563 0.61611 0.0
C64 C 0.96943 0.02244 0.55531 0.0
H65 H 0.87963 0.91681 0.60444 0.0
C66 C 0.90285 0.947 0.5905 0.0
C67 C 0.89511 0.93872 0.54688 0.0
C68 C 0.93141 0.97496 0.53001 0.0
C69 C 0.00017 0.06383 0.53399 0.0
H70 H 0.92754 0.96766 0.49667 0.0
C71 C 0.11667 0.10546 0.53315 0.0
C72 C 0.10599 0.14986 0.49755 0.0
C73 C 0.93295 0.08853 0.49756 0.0
H74 H 0.87989 0.07479 0.49411 0.0
C75 C 0.94799 0.13428 0.46674 0.0
H76 H 0.08996 0.08994 0.53754 0.0
C77 C 0.02642 0.16213 0.46715 0.0
H78 H 0.02459 0.19152 0.44538 0.0
H79 H 0.9029 0.1478 0.44485 0.0
H80 H 0.55358 0.50059 0.9042 0.0
C81 C 0.57075 0.4639 0.91785 0.0
C82 C 0.58541 0.41859 0.89153 0.0
C83 C 0.58445 0.46358 0.96167 0.0
H84 H 0.63129 0.33932 0.89074 0.0
C85 C 0.61594 0.37328 0.90987 0.0
C86 C 0.63448 0.37424 0.95364 0.0
C87 C 0.61261 0.41655 0.97848 0.0
C88 C 0.57656 0.51382 0.99044 0.0
H89 H 0.62397 0.4142 0.01163 0.0
C90 C 0.52774 0.56838 0.96842 0.0
C91 C 0.51994 0.64997 0.03129 0.0
C92 C 0.61444 0.51713 0.04594 0.0
H93 H 0.6455 0.48419 0.05764 0.0
C94 C 0.61013 0.57022 0.08652 0.0
H95 H 0.50165 0.56232 0.93453 0.0
C96 C 0.56682 0.63196 0.0812 0.0
H97 H 0.56657 0.65889 0.10962 0.0
H98 H 0.63684 0.56386 0.11839 0.0
H99 H 0.49431 0.56756 0.10903 0.0
C100 C 0.47683 0.52748 0.09045 0.0
C101 C 0.45075 0.48708 0.10909 0.0
C102 C 0.48149 0.51586 0.04889 0.0
H103 H 0.39856 0.40597 0.09809 0.0
C104 C 0.42127 0.43674 0.08436 0.0
C105 C 0.41905 0.42647 0.04163 0.0
C106 C 0.45097 0.46521 0.02439 0.0
C107 C 0.50384 0.56066 0.02695 0.0
H108 H 0.44893 0.45714 0.99135 0.0
C109 C 0.61288 0.61012 0.02188 0.0
C110 C 0.59327 0.65521 0.98694 0.0
C111 C 0.43076 0.58216 0.99303 0.0
H112 H 0.38001 0.56474 0.99141 0.0
C113 C 0.43665 0.63025 0.96176 0.0
H114 H 0.58884 0.59264 0.02717 0.0
C115 C 0.51046 0.66335 0.95944 0.0
H116 H 0.5032 0.69354 0.93785 0.0
H117 H 0.38835 0.64158 0.9415 0.0
H118 H 0.35686 0.1016 0.03284 0.0
H119 H 0.28046 0.40197 0.01936 0.0
H120 H 0.14994 0.15725 0.01038 0.0
H121 H 0.47031 0.3363 0.00534 0.0
H122 H 0.22152 0.30996 0.99408 0.0
H123 H 0.38876 0.17793 1.00025 0.0
C124 C 0.31775 0.12947 0.0202 0.0
C125 C 0.25167 0.12485 0.0258 0.0
C126 C 0.27554 0.3156 0.99525 0.0
C127 C 0.28831 0.21347 0.99003 0.0
C128 C 0.30911 0.36816 0.00976 0.0
C129 C 0.38045 0.3759 0.01542 0.0
C130 C 0.31443 0.27024 0.98801 0.0
C131 C 0.4154 0.33139 0.00215 0.0
C132 C 0.33582 0.17299 0.00141 0.0
C133 C 0.20213 0.1606 0.0077 0.0
N134 N 0.38248 0.27992 0.99017 0.0
N135 N 0.22212 0.20475 0.99188 0.0
H136 H 0.20618 0.88492 0.97432 0.0
H137 H 0.42525 0.64391 0.07377 0.0
H138 H 0.18694 0.82867 0.0877 0.0
H139 H 0.49999 0.75674 0.00488 0.0
H140 H 0.32537 0.69889 0.07131 0.0
H141 H 0.29434 0.81812 0.97147 0.0
C142 C 0.21816 0.8566 0.99743 0.0
C143 C 0.19028 0.86239 0.03155 0.0
C144 C 0.36337 0.71127 0.05636 0.0
C145 C 0.29165 0.78781 0.02927 0.0
C146 C 0.42088 0.68034 0.05809 0.0
C147 C 0.46885 0.69324 0.03681 0.0
C148 C 0.35395 0.75595 0.03349 0.0
C149 C 0.46192 0.74241 0.01876 0.0
C150 C 0.26951 0.81955 0.99637 0.0
C151 C 0.20793 0.82542 0.06107 0.0
N152 N 0.40444 0.77136 0.01661 0.0
N153 N 0.2584 0.79003 0.05962 0.0
H154 H 0.86866 0.93944 0.05085 0.0
H155 H 0.72473 0.6279 0.98814 0.0
H156 H 0.92372 0.84739 0.94705 0.0
H157 H 0.59474 0.76625 0.98282 0.0
H158 H 0.82535 0.69295 0.99679 0.0
H159 H 0.80096 0.85714 0.056 0.0
C160 C 0.86945 0.90093 0.03068 0.0
C161 C 0.90103 0.89974 0.99837 0.0
C162 C 0.77456 0.70856 0.99381 0.0
C163 C 0.8235 0.80675 0.00353 0.0
C164 C 0.71727 0.6718 0.9886 0.0
C165 C 0.65125 0.69184 0.9849 0.0
C166 C 0.76561 0.76554 0.99694 0.0
C167 C 0.64428 0.74888 0.98558 0.0
C168 C 0.83034 0.8544 0.0333 0.0
C169 C 0.89979 0.8494 0.97237 0.0
N170 N 0.70097 0.78384 0.99218 0.0
N171 N 0.86015 0.80475 0.97491 0.0
H172 H 0.02035 0.23201 0.01218 0.0
H173 H 0.64884 0.31679 0.02136 0.0
H174 H 0.91141 0.16446 0.09004 0.0
H175 H 0.75624 0.36503 0.93537 0.0
H176 H 0.75618 0.27992 0.06144 0.0
H177 H 0.9433 0.30815 0.00523 0.0
C178 C 0.98269 0.23497 0.02983 0.0
C179 C 0.96986 0.19104 0.0502 0.0
C180 C 0.7561 0.29887 0.03388 0.0
C181 C 0.87942 0.27527 0.04039 0.0
C182 C 0.69471 0.31902 0.01071 0.0
C183 C 0.69325 0.34281 0.97446 0.0
C184 C 0.81632 0.30302 0.02081 0.0
C185 C 0.75434 0.34554 0.96235 0.0
C186 C 0.93754 0.27773 0.02508 0.0
C187 C 0.9211 0.19703 0.07291 0.0
N188 N 0.81313 0.32588 0.98539 0.0
N189 N 0.87537 0.23711 0.06598 0.0
H190 H 0.63195 0.66427 0.50925 0.0
H191 H 0.92221 0.86383 0.4855 0.0
H192 H 0.81864 0.61491 0.48056 0.0
H193 H 0.76306 0.9085 0.54475 0.0
H194 H 0.85353 0.77756 0.45028 0.0
H195 H 0.6464 0.75382 0.48628 0.0
C196 C 0.6741 0.67141 0.49627 0.0
C197 C 0.72528 0.63341 0.49804 0.0
C198 C 0.83285 0.80694 0.47015 0.0
C199 C 0.74391 0.73556 0.47324 0.0
C200 C 0.87212 0.85599 0.49035 0.0
C201 C 0.8494 0.89193 0.51938 0.0
C202 C 0.77109 0.79385 0.47951 0.0
C203 C 0.78362 0.88053 0.52393 0.0
C204 C 0.68286 0.72264 0.48347 0.0
C205 C 0.77939 0.64435 0.48104 0.0
N206 N 0.74736 0.83191 0.50491 0.0
N207 N 0.78835 0.6951 0.47028 0.0
H208 H 0.65163 0.31545 0.53742 0.0
H209 H 0.02469 0.25871 0.51119 0.0
H210 H 0.73066 0.3821 0.44587 0.0
H211 H 0.92188 0.15655 0.57436 0.0
H212 H 0.92012 0.31064 0.49238 0.0
H213 H 0.74549 0.25238 0.54891 0.0
C214 C 0.68648 0.31459 0.51793 0.0
C215 C 0.68502 0.35515 0.49171 0.0
C216 C 0.92046 0.27648 0.51009 0.0
C217 C 0.79458 0.28614 0.50648 0.0
C218 C 0.98018 0.24699 0.52094 0.0
C219 C 0.979 0.19961 0.5406 0.0
C220 C 0.86114 0.2599 0.52088 0.0
C221 C 0.92317 0.19064 0.55681 0.0
C222 C 0.74145 0.27984 0.52548 0.0
C223 C 0.7311 0.35204 0.46707 0.0
N224 N 0.86565 0.2194 0.54565 0.0
N225 N 0.786 0.31991 0.4763 0.0
H226 H 0.36075 0.37094 0.42119 0.0
H227 H 0.2264 0.1804 0.56025 0.0
H228 H 0.42688 0.39507 0.55706 0.0
H229 H 0.13031 0.18445 0.42765 0.0
H230 H 0.32599 0.23661 0.55678 0.0
H231 H 0.30727 0.27974 0.42111 0.0
C232 C 0.36588 0.35598 0.45099 0.0
C233 C 0.39703 0.3903 0.48919 0.0
C234 C 0.2835 0.22458 0.52834 0.0
C235 C 0.3339 0.28771 0.48948 0.0
C236 C 0.22649 0.19251 0.53023 0.0
C237 C 0.16889 0.17923 0.49444 0.0
C238 C 0.28296 0.24337 0.49035 0.0
C239 C 0.17232 0.19561 0.4564 0.0
C240 C 0.33498 0.30425 0.45097 0.0
C241 C 0.40276 0.36956 0.52701 0.0
N242 N 0.22806 0.22739 0.45546 0.0
N243 N 0.36987 0.3199 0.52628 0.0
H244 H 0.44398 0.70605 0.59503 0.0
H245 H 0.228 0.81846 0.41624 0.0
H246 H 0.52022 0.69823 0.48639 0.0
H247 H 0.2935 0.94135 0.52816 0.0
H248 H 0.33297 0.7712 0.44269 0.0
H249 H 0.39067 0.79262 0.57749 0.0
C250 C 0.45249 0.72401 0.56879 0.0
C251 C 0.48657 0.69499 0.54213 0.0
C252 C 0.32453 0.80907 0.46104 0.0
C253 C 0.42317 0.79169 0.5209 0.0
C254 C 0.26444 0.83631 0.44599 0.0
C255 C 0.25 0.88368 0.47024 0.0
C256 C 0.36966 0.82792 0.50123 0.0
C257 C 0.29995 0.90366 0.50901 0.0
C258 C 0.42189 0.77319 0.55871 0.0
C259 C 0.49522 0.71956 0.50808 0.0
N260 N 0.35654 0.87477 0.52391 0.0
N261 N 0.46132 0.76538 0.49743 0.0
H262 H 0.01951 0.93568 0.13189 0.0
H263 H 0.03932 0.03032 0.37299 0.0
H264 H 0.08769 0.09973 0.19976 0.0
H265 H 0.07155 0.86292 0.32494 0.0
H266 H 0.0136 0.05421 0.30204 0.0
H267 H 0.99591 0.90855 0.19513 0.0
C268 C 0.02733 0.96643 0.15965 0.0
C269 C 0.05641 0.01979 0.16104 0.0
C270 C 0.02491 0.01197 0.30687 0.0
C271 C 0.02936 -0.01074 0.23274 0.0
C272 C 0.03908 -0.00199 0.34736 0.0
C273 C 0.05791 0.94441 0.35506 0.0
C274 C 0.02952 0.97222 0.27361 0.0
C275 C 0.05806 0.90484 0.32048 0.0
C276 C 0.01443 0.95079 0.19568 0.0
C277 C 0.06605 0.05802 0.19772 0.0
N278 N 0.04474 0.91968 0.28119 0.0
N279 N 0.05301 0.0419 0.23225 0.0
H280 H 0.04383 0.13023 0.87865 0.0
H281 H 0.98883 0.91665 0.66719 0.0
H282 H 0.0814 0.95718 0.87851 0.0
H283 H 0.93445 0.08692 0.67137 0.0
H284 H 0.03599 0.93184 0.74423 0.0
H285 H 0.02709 0.1184 0.80257 0.0
C286 C 0.05146 0.09024 0.86271 0.0
C287 C 0.06403 0.04461 0.88456 0.0
C288 C 0.01374 0.96585 0.72826 0.0
C289 C 0.04072 0.02977 0.79741 0.0
C290 C 0.9858 0.95697 0.68438 0.0
C291 C 0.95774 0.00062 0.66282 0.0
C292 C 0.01358 0.01877 0.75072 0.0
C293 C 0.95628 0.05227 0.68662 0.0
C294 C 0.04058 0.08316 0.81919 0.0
C295 C 0.07234 -0.0066 0.8626 0.0
N296 N 0.98395 0.0599 0.7292 0.0
N297 N 0.05893 0.98696 0.81991 0.0
H298 H 0.72195 0.45885 0.67764 0.0
H299 H 0.48478 0.46436 0.83246 0.0
H300 H 0.51756 0.52066 0.64435 0.0
H301 H 0.67793 0.38468 0.84861 0.0
H302 H 0.48945 0.48211 0.76249 0.0
H303 H 0.70084 0.42834 0.73919 0.0
C304 C 0.67268 0.46665 0.68365 0.0
C305 C 0.62205 0.49346 0.65634 0.0
C306 C 0.53003 0.45997 0.78124 0.0
C307 C 0.59709 0.45829 0.72744 0.0
C308 C 0.52761 0.45001 0.82121 0.0
C309 C 0.58114 0.42314 0.84679 0.0
C310 C 0.58657 0.44316 0.76696 0.0
C311 C 0.63479 0.4048 0.83024 0.0
C312 C 0.66031 0.44869 0.71873 0.0
C313 C 0.55828 0.50073 0.66501 0.0
N314 N 0.63625 0.41554 0.79175 0.0
N315 N 0.54783 0.48387 0.70027 0.0
H316 H 0.42916 0.61279 0.35997 0.0
H317 H 0.501 0.41927 0.16784 0.0
H318 H 0.57987 0.48864 0.37648 0.0
H319 H 0.41532 0.57844 0.15406 0.0
H320 H 0.52038 0.43985 0.2442 0.0
H321 H 0.41759 0.59944 0.28423 0.0
C322 C 0.46044 0.58327 0.34772 0.0
C323 C 0.50503 0.55138 0.37441 0.0
C324 C 0.49742 0.4703 0.22446 0.0
C325 C 0.49077 0.53498 0.28797 0.0
C326 C 0.48562 0.4583 0.18092 0.0
C327 C 0.45663 0.49725 0.15473 0.0
C328 C 0.47925 0.52133 0.24188 0.0
C329 C 0.4383 0.54749 0.17327 0.0
C330 C 0.45371 0.57559 0.30455 0.0
C331 C 0.5448 0.51404 0.35702 0.0
N332 N 0.44967 0.55804 0.21575 0.0
N333 N 0.53588 0.5062 0.31476 0.0
loop_
_geom_bond_atom_site_label_1
_geom_bond_atom_site_label_2
_geom_bond_distance
_geom_bond_site_symmetry_2
_ccdc_geom_bond_type
O0 Mg1 1.990 . S
O0 C14 1.253 . S
Mg1 O0 1.990 . S
Mg1 O4 2.180 . S
Mg1 O5 2.117 . S
Mg1 O19 2.030 1_545 S
O2 Mg3 2.072 1_565 S
O2 C14 1.260 1_565 S
Mg3 O2 2.072 1_545 S
Mg3 O4 2.099 . S
Mg3 O6 2.079 1_554 S
Mg3 O7 2.072 . S
Mg3 O9 2.099 1_444 S
Mg3 O20 2.079 1_545 S
O4 Mg1 2.180 . S
O4 Mg3 2.099 . S
O4 C15 1.279 . S
O5 Mg1 2.117 . S
O5 C15 1.250 . S
O6 Mg3 2.079 1_556 S
O6 C16 1.264 . S
O7 Mg3 2.072 . S
O7 C17 1.260 1_454 S
Mg8 O9 2.180 . S
Mg8 O10 2.030 1_565 S
Mg8 O11 1.990 1_565 S
Mg8 O12 2.117 . S
O9 Mg3 2.099 1_666 S
O9 Mg8 2.180 . S
O9 C18 1.279 . S
O10 Mg8 2.030 1_545 S
O10 C16 1.248 1_655 S
O11 Mg8 1.990 1_545 S
O11 C17 1.253 . S
O12 Mg8 2.117 . S
O12 C18 1.250 . S
C13 O19 1.248 . S
C13 O20 1.264 . S
C14 O0 1.253 . S
C14 O2 1.260 1_545 S
C15 O4 1.279 . S
C15 O5 1.250 . S
C16 O6 1.264 . S
C16 O10 1.248 1_455 S
C17 O7 1.260 1_656 S
C17 O11 1.253 . S
C18 O9 1.279 . S
C18 O12 1.250 . S
O19 Mg1 2.030 1_565 S
O19 C13 1.248 . S
O20 Mg3 2.079 1_565 S
O20 C13 1.264 . S
O21 Mg22 1.990 . S
O21 C35 1.253 . S
Mg22 O21 1.990 . S
Mg22 O25 2.180 . S
Mg22 O26 2.117 . S
Mg22 O40 2.030 . S
O23 Mg24 2.072 . S
O23 C35 1.260 . S
Mg24 O23 2.072 . S
Mg24 O25 2.099 . S
Mg24 O27 2.079 . S
Mg24 O28 2.072 . S
Mg24 O30 2.099 . S
Mg24 O41 2.079 . S
O25 Mg22 2.180 . S
O25 Mg24 2.099 . S
O25 C36 1.279 . S
O26 Mg22 2.117 . S
O26 C36 1.250 . S
O27 Mg24 2.079 . S
O27 C37 1.264 . S
O28 Mg24 2.072 . S
O28 C38 1.260 . S
Mg29 O30 2.180 . S
Mg29 O31 2.030 . S
Mg29 O32 1.990 . S
Mg29 O33 2.117 . S
O30 Mg24 2.099 . S
O30 Mg29 2.180 . S
O30 C39 1.279 . S
O31 Mg29 2.030 . S
O31 C37 1.248 . S
O32 Mg29 1.990 . S
O32 C38 1.253 . S
O33 Mg29 2.117 . S
O33 C39 1.250 . S
C34 O40 1.248 . S
C34 O41 1.264 . S
C35 O21 1.253 . S
C35 O23 1.260 . S
C36 O25 1.279 . S
C36 O26 1.250 . S
C37 O27 1.264 . S
C37 O31 1.248 . S
C38 O28 1.260 . S
C38 O32 1.253 . S
C39 O30 1.279 . S
C39 O33 1.250 . S
O40 Mg22 2.030 . S
O40 C34 1.248 . S
O41 Mg24 2.079 . S
O41 C34 1.264 . S
H42 C43 0.949 . S
C43 H42 0.949 . S
C43 C44 1.395 1_545 S
C43 C45 1.391 . S
C44 C43 1.395 1_565 S
C44 C47 1.390 . S
C45 C43 1.391 . S
C45 C49 1.387 1_545 S
C45 C50 1.491 . S
H46 C47 0.950 . S
C47 C44 1.390 . S
C47 H46 0.950 . S
C47 C48 1.378 . S
C48 C47 1.378 . S
C48 C49 1.409 . S
C49 C45 1.387 1_565 S
C49 C48 1.409 . S
C49 H51 0.951 . S
C50 C45 1.491 . S
C50 C52 1.382 . S
C50 C54 1.404 . S
H51 C49 0.951 . S
C52 C50 1.382 . S
C52 C53 1.389 1_455 S
C52 H57 0.949 1_455 S
C53 C52 1.389 1_655 S
C53 C58 1.399 1_655 S
C54 C50 1.404 . S
C54 H55 0.950 . S
C54 C56 1.375 . S
H55 C54 0.950 . S
C56 C54 1.375 . S
C56 C58 1.382 . S
C56 H60 0.950 . S
H57 C52 0.949 1_655 S
C58 C53 1.399 1_455 S
C58 C56 1.382 . S
C58 H59 0.952 . S
H59 C58 0.952 . S
H60 C56 0.950 . S
H61 C62 0.952 . S
C62 H61 0.952 . S
C62 C63 1.392 1_455 S
C62 C64 1.391 1_455 S
C63 C62 1.392 1_655 S
C63 C66 1.390 1_545 S
C64 C62 1.391 1_655 S
C64 C68 1.387 . S
C64 C69 1.491 1_655 S
H65 C66 0.950 . S
C66 C63 1.390 1_565 S
C66 H65 0.950 . S
C66 C67 1.378 . S
C67 C66 1.378 . S
C67 C68 1.409 1_565 S
C68 C64 1.387 . S
C68 C67 1.409 1_545 S
C68 H70 0.951 . S
C69 C64 1.491 1_455 S
C69 C71 1.382 . S
C69 C73 1.404 1_455 S
H70 C68 0.951 . S
C71 C69 1.382 . S
C71 C72 1.390 . S
C71 H76 0.949 . S
C72 C71 1.390 . S
C72 C77 1.399 . S
C73 C69 1.404 1_655 S
C73 H74 0.950 . S
C73 C75 1.375 . S
H74 C73 0.950 . S
C75 C73 1.375 . S
C75 C77 1.382 1_655 S
C75 H79 0.950 . S
H76 C71 0.949 . S
C77 C72 1.399 . S
C77 C75 1.382 1_455 S
C77 H78 0.952 . S
H78 C77 0.952 . S
H79 C75 0.950 . S
H80 C81 0.949 . S
C81 H80 0.949 . S
C81 C82 1.395 . S
C81 C83 1.391 . S
C82 C81 1.395 . S
C82 C85 1.390 . S
C83 C81 1.391 . S
C83 C87 1.387 . S
C83 C88 1.491 1_556 S
H84 C85 0.950 . S
C85 C82 1.390 . S
C85 H84 0.950 . S
C85 C86 1.378 . S
C86 C85 1.378 . S
C86 C87 1.409 . S
C87 C83 1.387 . S
C87 C86 1.409 . S
C87 H89 0.951 1_556 S
C88 C83 1.491 1_554 S
C88 C90 1.382 1_554 S
C88 C92 1.404 . S
H89 C87 0.951 1_554 S
C90 C88 1.382 1_556 S
C90 C91 1.390 1_556 S
C90 H95 0.949 . S
C91 C90 1.390 1_554 S
C91 C96 1.399 . S
C92 C88 1.404 . S
C92 H93 0.950 . S
C92 C94 1.375 . S
H93 C92 0.950 . S
C94 C92 1.375 . S
C94 C96 1.382 . S
C94 H98 0.950 . S
H95 C90 0.949 . S
C96 C91 1.399 . S
C96 C94 1.382 . S
C96 H97 0.952 . S
H97 C96 0.952 . S
H98 C94 0.950 . S
H99 C100 0.949 . S
C100 H99 0.949 . S
C100 C101 1.395 . S
C100 C102 1.391 . S
C101 C100 1.395 . S
C101 C104 1.390 . S
C102 C100 1.391 . S
C102 C106 1.387 . S
C102 C107 1.491 . S
H103 C104 0.950 . S
C104 C101 1.390 . S
C104 H103 0.950 . S
C104 C105 1.378 . S
C105 C104 1.378 . S
C105 C106 1.409 . S
C106 C102 1.387 . S
C106 C105 1.409 . S
C106 H108 0.951 1_554 S
C107 C102 1.491 . S
C107 C109 1.382 . S
C107 C111 1.404 1_554 S
H108 C106 0.951 1_556 S
C109 C107 1.382 . S
C109 C110 1.390 . S
C109 H114 0.949 . S
C110 C109 1.390 . S
C110 C115 1.399 1_554 S
C111 C107 1.404 1_556 S
C111 H112 0.950 . S
C111 C113 1.375 . S
H112 C111 0.950 . S
C113 C111 1.375 . S
C113 C115 1.382 . S
C113 H117 0.950 . S
H114 C109 0.949 . S
C115 C110 1.399 1_556 S
C115 C113 1.382 . S
C115 H116 0.952 . S
H116 C115 0.952 . S
H117 C113 0.950 . S
H118 C124 0.930 . S
H119 C128 0.930 . S
H120 C133 0.929 . S
H121 C131 0.929 . S
H122 C126 0.929 . S
H123 C132 0.929 . S
C124 H118 0.930 . S
C124 C125 1.367 . S
C124 C132 1.378 . S
C125 C124 1.367 . S
C125 C133 1.433 . S
C126 H122 0.929 . S
C126 C128 1.378 . S
C126 C130 1.350 . S
C127 C130 1.463 . S
C127 C132 1.350 . S
C127 N135 1.427 . S
C128 H119 0.930 . S
C128 C126 1.378 . S
C128 C129 1.367 . S
C129 C128 1.367 . S
C129 C131 1.433 . S
C130 C126 1.350 . S
C130 C127 1.463 . S
C130 N134 1.427 . S
C131 H121 0.929 . S
C131 C129 1.433 . S
C131 N134 1.384 . S
C132 H123 0.929 . S
C132 C124 1.378 . S
C132 C127 1.350 . S
C133 H120 0.929 . S
C133 C125 1.433 . S
C133 N135 1.384 . S
N134 C130 1.427 . S
N134 C131 1.384 . S
N135 C127 1.427 . S
N135 C133 1.384 . S
H136 C142 0.930 . S
H137 C146 0.930 . S
H138 C151 0.929 . S
H139 C149 0.929 . S
H140 C144 0.929 . S
H141 C150 0.929 . S
C142 H136 0.930 . S
C142 C143 1.367 1_556 S
C142 C150 1.378 . S
C143 C142 1.367 1_554 S
C143 C151 1.433 . S
C144 H140 0.929 . S
C144 C146 1.378 . S
C144 C148 1.350 . S
C145 C148 1.463 . S
C145 C150 1.350 1_554 S
C145 N153 1.427 . S
C146 H137 0.930 . S
C146 C144 1.378 . S
C146 C147 1.367 . S
C147 C146 1.367 . S
C147 C149 1.433 1_554 S
C148 C144 1.350 . S
C148 C145 1.463 . S
C148 N152 1.427 1_554 S
C149 H139 0.929 . S
C149 C147 1.433 1_556 S
C149 N152 1.384 . S
C150 H141 0.929 . S
C150 C142 1.378 . S
C150 C145 1.350 1_556 S
C151 H138 0.929 . S
C151 C143 1.433 . S
C151 N153 1.384 . S
N152 C148 1.427 1_556 S
N152 C149 1.384 . S
N153 C145 1.427 . S
N153 C151 1.384 . S
H154 C160 0.930 . S
H155 C164 0.930 . S
H156 C169 0.929 . S
H157 C167 0.929 . S
H158 C162 0.929 . S
H159 C168 0.929 . S
C160 H154 0.930 . S
C160 C161 1.367 . S
C160 C168 1.378 . S
C161 C160 1.367 . S
C161 C169 1.433 . S
C162 H158 0.929 . S
C162 C164 1.378 . S
C162 C166 1.350 . S
C163 C166 1.463 . S
C163 C168 1.350 . S
C163 N171 1.427 . S
C164 H155 0.930 . S
C164 C162 1.378 . S
C164 C165 1.367 . S
C165 C164 1.367 . S
C165 C167 1.433 . S
C166 C162 1.350 . S
C166 C163 1.463 . S
C166 N170 1.427 . S
C167 H157 0.929 . S
C167 C165 1.433 . S
C167 N170 1.384 . S
C168 H159 0.929 . S
C168 C160 1.378 . S
C168 C163 1.350 . S
C169 H156 0.929 . S
C169 C161 1.433 . S
C169 N171 1.384 . S
N170 C166 1.427 . S
N170 C167 1.384 . S
N171 C163 1.427 . S
N171 C169 1.384 . S
H172 C178 0.930 . S
H173 C182 0.930 . S
H174 C187 0.929 . S
H175 C185 0.929 . S
H176 C180 0.929 . S
H177 C186 0.929 . S
C178 H172 0.930 . S
C178 C179 1.367 . S
C178 C186 1.378 . S
C179 C178 1.367 . S
C179 C187 1.433 1_556 S
C180 H176 0.929 . S
C180 C182 1.378 . S
C180 C184 1.350 1_554 S
C181 C184 1.463 . S
C181 C186 1.350 . S
C181 N189 1.427 1_556 S
C182 H173 0.930 . S
C182 C180 1.378 . S
C182 C183 1.367 1_554 S
C183 C182 1.367 1_556 S
C183 C185 1.433 . S
C184 C180 1.350 1_556 S
C184 C181 1.463 . S
C184 N188 1.427 . S
C185 H175 0.929 . S
C185 C183 1.433 . S
C185 N188 1.384 . S
C186 H177 0.929 . S
C186 C178 1.378 . S
C186 C181 1.350 . S
C187 H174 0.929 . S
C187 C179 1.433 1_554 S
C187 N189 1.384 . S
N188 C184 1.427 . S
N188 C185 1.384 . S
N189 C181 1.427 1_554 S
N189 C187 1.384 . S
H190 C196 0.930 . S
H191 C200 0.930 . S
H192 C205 0.929 . S
H193 C203 0.929 . S
H194 C198 0.929 . S
H195 C204 0.929 . S
C196 H190 0.930 . S
C196 C197 1.367 . S
C196 C204 1.378 . S
C197 C196 1.367 . S
C197 C205 1.433 . S
C198 H194 0.929 . S
C198 C200 1.378 . S
C198 C202 1.350 . S
C199 C202 1.463 . S
C199 C204 1.350 . S
C199 N207 1.427 . S
C200 H191 0.930 . S
C200 C198 1.378 . S
C200 C201 1.367 . S
C201 C200 1.367 . S
C201 C203 1.433 . S
C202 C198 1.350 . S
C202 C199 1.463 . S
C202 N206 1.427 . S
C203 H193 0.929 . S
C203 C201 1.433 . S
C203 N206 1.384 . S
C204 H195 0.929 . S
C204 C196 1.378 . S
C204 C199 1.350 . S
C205 H192 0.929 . S
C205 C197 1.433 . S
C205 N207 1.384 . S
N206 C202 1.427 . S
N206 C203 1.384 . S
N207 C199 1.427 . S
N207 C205 1.384 . S
H208 C214 0.930 . S
H209 C218 0.930 . S
H210 C223 0.929 . S
H211 C221 0.929 . S
H212 C216 0.929 . S
H213 C222 0.929 . S
C214 H208 0.930 . S
C214 C215 1.367 . S
C214 C222 1.378 . S
C215 C214 1.367 . S
C215 C223 1.433 . S
C216 H212 0.929 . S
C216 C218 1.378 . S
C216 C220 1.350 . S
C217 C220 1.463 . S
C217 C222 1.350 . S
C217 N225 1.427 . S
C218 H209 0.930 . S
C218 C216 1.378 . S
C218 C219 1.367 . S
C219 C218 1.367 . S
C219 C221 1.433 . S
C220 C216 1.350 . S
C220 C217 1.463 . S
C220 N224 1.427 . S
C221 H211 0.929 . S
C221 C219 1.433 . S
C221 N224 1.384 . S
C222 H213 0.929 . S
C222 C214 1.378 . S
C222 C217 1.350 . S
C223 H210 0.929 . S
C223 C215 1.433 . S
C223 N225 1.384 . S
N224 C220 1.427 . S
N224 C221 1.384 . S
N225 C217 1.427 . S
N225 C223 1.384 . S
H226 C232 0.930 . S
H227 C236 0.930 . S
H228 C241 0.929 . S
H229 C239 0.929 . S
H230 C234 0.929 . S
H231 C240 0.929 . S
C232 H226 0.930 . S
C232 C233 1.367 . S
C232 C240 1.378 . S
C233 C232 1.367 . S
C233 C241 1.433 . S
C234 H230 0.929 . S
C234 C236 1.378 . S
C234 C238 1.350 . S
C235 C238 1.463 . S
C235 C240 1.350 . S
C235 N243 1.427 . S
C236 H227 0.930 . S
C236 C234 1.378 . S
C236 C237 1.367 . S
C237 C236 1.367 . S
C237 C239 1.433 . S
C238 C234 1.350 . S
C238 C235 1.463 . S
C238 N242 1.427 . S
C239 H229 0.929 . S
C239 C237 1.433 . S
C239 N242 1.384 . S
C240 H231 0.929 . S
C240 C232 1.378 . S
C240 C235 1.350 . S
C241 H228 0.929 . S
C241 C233 1.433 . S
C241 N243 1.384 . S
N242 C238 1.427 . S
N242 C239 1.384 . S
N243 C235 1.427 . S
N243 C241 1.384 . S
H244 C250 0.930 . S
H245 C254 0.930 . S
H246 C259 0.929 . S
H247 C257 0.929 . S
H248 C252 0.929 . S
H249 C258 0.929 . S
C250 H244 0.930 . S
C250 C251 1.367 . S
C250 C258 1.378 . S
C251 C250 1.367 . S
C251 C259 1.433 . S
C252 H248 0.929 . S
C252 C254 1.378 . S
C252 C256 1.350 . S
C253 C256 1.463 . S
C253 C258 1.350 . S
C253 N261 1.427 . S
C254 H245 0.930 . S
C254 C252 1.378 . S
C254 C255 1.367 . S
C255 C254 1.367 . S
C255 C257 1.433 . S
C256 C252 1.350 . S
C256 C253 1.463 . S
C256 N260 1.427 . S
C257 H247 0.929 . S
C257 C255 1.433 . S
C257 N260 1.384 . S
C258 H249 0.929 . S
C258 C250 1.378 . S
C258 C253 1.350 . S
C259 H246 0.929 . S
C259 C251 1.433 . S
C259 N261 1.384 . S
N260 C256 1.427 . S
N260 C257 1.384 . S
N261 C253 1.427 . S
N261 C259 1.384 . S
H262 C268 0.930 . S
H263 C272 0.930 . S
H264 C277 0.929 . S
H265 C275 0.929 . S
H266 C270 0.929 . S
H267 C276 0.929 . S
C268 H262 0.930 . S
C268 C269 1.367 . S
C268 C276 1.378 . S
C269 C268 1.367 . S
C269 C277 1.433 1_565 S
C270 H266 0.929 . S
C270 C272 1.378 . S
C270 C274 1.350 1_545 S
C271 C274 1.463 . S
C271 C276 1.350 . S
C271 N279 1.427 1_565 S
C272 H263 0.930 . S
C272 C270 1.378 . S
C272 C273 1.367 1_545 S
C273 C272 1.367 1_565 S
C273 C275 1.433 . S
C274 C270 1.350 1_565 S
C274 C271 1.463 . S
C274 N278 1.427 . S
C275 H265 0.929 . S
C275 C273 1.433 . S
C275 N278 1.384 . S
C276 H267 0.929 . S
C276 C268 1.378 . S
C276 C271 1.350 . S
C277 H264 0.929 . S
C277 C269 1.433 1_545 S
C277 N279 1.384 . S
N278 C274 1.427 . S
N278 C275 1.384 . S
N279 C271 1.427 1_545 S
N279 C277 1.384 . S
H280 C286 0.930 . S
H281 C290 0.930 . S
H282 C295 0.929 . S
H283 C293 0.929 . S
H284 C288 0.929 . S
H285 C294 0.929 . S
C286 H280 0.930 . S
C286 C287 1.367 . S
C286 C294 1.378 . S
C287 C286 1.367 . S
C287 C295 1.433 1_545 S
C288 H284 0.929 . S
C288 C290 1.378 . S
C288 C292 1.350 1_665 S
C289 C292 1.463 . S
C289 C294 1.350 . S
C289 N297 1.427 1_545 S
C290 H281 0.930 . S
C290 C288 1.378 . S
C290 C291 1.367 1_565 S
C291 C290 1.367 1_545 S
C291 C293 1.433 . S
C292 C288 1.350 1_445 S
C292 C289 1.463 . S
C292 N296 1.427 . S
C293 H283 0.929 . S
C293 C291 1.433 . S
C293 N296 1.384 1_655 S
C294 H285 0.929 . S
C294 C286 1.378 . S
C294 C289 1.350 . S
C295 H282 0.929 . S
C295 C287 1.433 1_565 S
C295 N297 1.384 . S
N296 C292 1.427 . S
N296 C293 1.384 1_455 S
N297 C289 1.427 1_565 S
N297 C295 1.384 . S
H298 C304 0.930 . S
H299 C308 0.930 . S
H300 C313 0.929 . S
H301 C311 0.929 . S
H302 C306 0.929 . S
H303 C312 0.929 . S
C304 H298 0.930 . S
C304 C305 1.367 . S
C304 C312 1.378 . S
C305 C304 1.367 . S
C305 C313 1.433 . S
C306 H302 0.929 . S
C306 C308 1.378 . S
C306 C310 1.350 . S
C307 C310 1.463 . S
C307 C312 1.350 . S
C307 N315 1.427 . S
C308 H299 0.930 . S
C308 C306 1.378 . S
C308 C309 1.367 . S
C309 C308 1.367 . S
C309 C311 1.433 . S
C310 C306 1.350 . S
C310 C307 1.463 . S
C310 N314 1.427 . S
C311 H301 0.929 . S
C311 C309 1.433 . S
C311 N314 1.384 . S
C312 H303 0.929 . S
C312 C304 1.378 . S
C312 C307 1.350 . S
C313 H300 0.929 . S
C313 C305 1.433 . S
C313 N315 1.384 . S
N314 C310 1.427 . S
N314 C311 1.384 . S
N315 C307 1.427 . S
N315 C313 1.384 . S
H316 C322 0.930 . S
H317 C326 0.930 . S
H318 C331 0.929 . S
H319 C329 0.929 . S
H320 C324 0.929 . S
H321 C330 0.929 . S
C322 H316 0.930 . S
C322 C323 1.367 . S
C322 C330 1.378 . S
C323 C322 1.367 . S
C323 C331 1.433 . S
C324 H320 0.929 . S
C324 C326 1.378 . S
C324 C328 1.350 . S
C325 C328 1.463 . S
C325 C330 1.350 . S
C325 N333 1.427 . S
C326 H317 0.930 . S
C326 C324 1.378 . S
C326 C327 1.367 . S
C327 C326 1.367 . S
C327 C329 1.433 . S
C328 C324 1.350 . S
C328 C325 1.463 . S
C328 N332 1.427 . S
C329 H319 0.929 . S
C329 C327 1.433 . S
C329 N332 1.384 . S
C330 H321 0.929 . S
C330 C322 1.378 . S
C330 C325 1.350 . S
C331 H318 0.929 . S
C331 C323 1.433 . S
C331 N333 1.384 . S
N332 C328 1.427 . S
N332 C329 1.384 . S
N333 C325 1.427 . S
N333 C331 1.384 . S
C129 C105 1.529 . S
C125 C15 1.397 . S
C143 C13 1.430 . S
C147 C91 1.419 . S
C161 C18 1.261 1_554 S
C165 C110 1.456 . S
C179 C17 1.501 . S
C183 C86 1.535 . S
C197 C36 1.401 . S
C201 C67 1.532 . S
C215 C34 1.434 . S
C219 C53 1.418 . S
C237 C72 1.458 . S
C233 C39 1.260 . S
C255 C48 1.528 . S
C251 C38 1.508 . S
C269 C14 1.636 1_565 S
C273 C44 1.669 . S
C287 C16 1.413 . S
C291 C63 1.425 . S
C309 C82 1.671 . S
C305 C35 1.632 . S
C323 C37 1.415 . S
C327 C101 1.424 . S
