# Generated by pormake.
# Topology pts, (4,4)-cn, num edge types: 1
# Building blocks:
#     Node 0, Type 0, BuildingBlock: MUDLON_clean_linker_0, # of connection points: 4
#     Node 1, Type 0, BuildingBlock: MUDLON_clean_linker_0, # of connection points: 4
#     Node 2, Type 1, BuildingBlock: QUQFOY_clean_sbu_1, # of connection points: 4
#     Node 3, Type 1, BuildingBlock: QUQFOY_clean_sbu_1, # of connection points: 4
#     Edge 4, Type (0, 1), BuildingBlock: KIFKEQ_clean_linker_1, # of connection points: 2
#     Edge 5, Type (0, 1), BuildingBlock: KIFKEQ_clean_linker_1, # of connection points: 2
#     Edge 6, Type (0, 1), BuildingBlock: KIFKEQ_clean_linker_1, # of connection points: 2
#     Edge 7, Type (0, 1), BuildingBlock: KIFKEQ_clean_linker_1, # of connection points: 2
#     Edge 8, Type (0, 1), BuildingBlock: KIFKEQ_clean_linker_1, # of connection points: 2
#     Edge 9, Type (0, 1), BuildingBlock: KIFKEQ_clean_linker_1, # of connection points: 2
#     Edge 10, Type (0, 1), BuildingBlock: KIFKEQ_clean_linker_1, # of connection points: 2
#     Edge 11, Type (0, 1), BuildingBlock: KIFKEQ_clean_linker_1, # of connection points: 2
# Relax obj value: 0.109
# Max RMSD: 0.273
# Mean RMSD: 0.180
data_MOF--net-pts--node1-QUQFOY_clean_sbu_1--node2-MUDLON_clean_linker_0--edge1-KIFKEQ_clean_linker_1
_symmetry_space_group_name_H-M    P1
_symmetry_Int_Tables_number       1
_symmetry_cell_setting            triclinic
loop_
_symmetry_equiv_pos_as_xyz
'x, y, z'
_cell_length_a     32.780169
_cell_length_b     35.823102
_cell_length_c     47.836412
_cell_angle_alpha  89.983592
_cell_angle_beta   90.03275
_cell_angle_gamma 90.063797
loop_
_atom_site_label
_atom_site_type_symbol
_atom_site_fract_x
_atom_site_fract_y
_atom_site_fract_z
_atom_type_partial_charge
H0 H 0.6893 0.03568 0.01611 0.0
N1 N 0.64792 0.97283 0.00014 0.0
H2 H 0.73032 0.04318 0.05849 0.0
H3 H 0.65592 0.92451 0.0419 0.0
H4 H 0.69642 0.93191 0.08464 0.0
H5 H 0.70281 0.92713 0.9783 0.0
H6 H 0.74588 0.93751 0.93756 0.0
H7 H 0.64739 0.03501 0.9666 0.0
H8 H 0.68809 0.04472 0.9245 0.0
H9 H 0.61168 0.03281 0.02665 0.0
H10 H 0.5889 0.94054 0.97082 0.0
H11 H 0.54026 0.04942 0.02526 0.0
H12 H 0.51752 0.95897 0.96731 0.0
H13 H 0.29331 0.0901 0.01358 0.0
H14 H 0.25073 0.08224 0.05489 0.0
H15 H 0.31956 0.98368 0.07732 0.0
H16 H 0.35953 0.99011 0.03521 0.0
H17 H 0.31028 0.98264 0.98241 0.0
H18 H 0.26918 0.97226 0.9403 0.0
H19 H 0.30489 0.08085 0.90935 0.0
H20 H 0.34522 0.09112 0.95173 0.0
H21 H 0.41601 0.09172 0.00071 0.0
H22 H 0.48835 0.07564 -7e-05 0.0
H23 H 0.45617 0.95908 0.99022 0.0
N24 N 0.35266 0.04615 0.99542 0.0
H25 H 0.38445 0.97612 0.98874 0.0
C26 C 0.6698 0.9793 0.02585 0.0
C27 C 0.69053 0.01302 0.03106 0.0
C28 C 0.71371 0.01736 0.05538 0.0
C29 C 0.71675 0.98806 0.07483 0.0
C30 C 0.69508 0.95481 0.06987 0.0
C31 C 0.67181 0.95056 0.04562 0.0
C32 C 0.67157 0.97987 0.97526 0.0
C33 C 0.69952 0.9528 0.96655 0.0
C34 C 0.72382 0.95874 0.94305 0.0
C35 C 0.72023 0.9918 0.92729 0.0
C36 C 0.69211 0.01907 0.93614 0.0
C37 C 0.66837 0.01339 0.96008 0.0
C38 C 0.6058 0.9847 -0.0008 0.0
C39 C 0.5915 0.01611 0.0139 0.0
C40 C 0.55033 0.02601 0.01275 0.0
C41 C 0.52262 0.00557 0.99623 0.0
C42 C 0.53741 0.9749 0.98089 0.0
C43 C 0.57835 0.96445 0.98262 0.0
C44 C 0.32993 0.04113 0.02107 0.0
C45 C 0.29915 0.06684 0.02748 0.0
C46 C 0.27506 0.06241 0.05132 0.0
C47 C 0.28166 0.03237 0.06977 0.0
C48 C 0.31294 0.00682 0.06349 0.0
C49 C 0.33641 0.0108 0.03929 0.0
C50 C 0.33048 0.03789 0.97017 0.0
C51 C 0.3095 1.00399 0.96641 0.0
C52 C 0.2862 0.99805 0.94228 0.0
C53 C 0.28351 0.02587 0.92158 0.0
C54 C 0.30575 0.05914 0.9251 0.0
C55 C 0.32894 0.06502 0.94917 0.0
C56 C 0.39494 0.03521 0.99522 0.0
C57 C 0.42484 0.06277 -0.00169 0.0
C58 C 0.46618 0.05337 -0.0019 0.0
C59 C 0.47852 0.01589 0.99531 0.0
C60 C 0.44823 0.98829 0.99197 0.0
C61 C 0.40696 0.99791 0.99146 0.0
H62 H 0.95442 0.65559 0.52973 0.0
N63 N 0.02389 0.64176 0.4997 0.0
H64 H 0.94734 0.70185 0.56704 0.0
H65 H 0.08352 0.67737 0.52588 0.0
H66 H 0.07719 0.72266 0.56385 0.0
H67 H 0.08009 0.65648 0.4613 0.0
H68 H 0.07506 0.70089 0.42256 0.0
H69 H 0.95394 0.67622 0.48175 0.0
H70 H 0.94822 0.71955 0.44276 0.0
H71 H 0.94843 0.61221 0.48736 0.0
H72 H 0.07015 0.58431 0.5141 0.0
H73 H 0.93015 0.54631 0.48699 0.0
H74 H 0.05171 0.51818 0.51507 0.0
H75 H 0.89202 0.32135 0.51583 0.0
H76 H 0.90108 0.27621 0.55329 0.0
H77 H 0.01775 0.32626 0.57332 0.0
H78 H 0.00942 0.36949 0.53437 0.0
H79 H 0.01804 0.33627 0.48444 0.0
H80 H 0.02981 0.29243 0.44622 0.0
H81 H 0.90714 0.31114 0.41645 0.0
H82 H 0.89573 0.35553 0.45471 0.0
H83 H 0.89893 0.42711 0.51286 0.0
H84 H 0.91672 0.49339 0.5152 0.0
H85 H 0.03778 0.46755 0.48511 0.0
N86 N 0.94569 0.37052 0.49701 0.0
H87 H 0.02033 0.40167 0.48412 0.0
C88 C 0.0196 0.66328 0.52495 0.0
C89 C 0.98138 0.66975 0.53734 0.0
C90 C 0.97743 0.69617 0.55875 0.0
C91 C 0.01162 0.71645 0.56816 0.0
C92 C 0.05007 0.70824 0.55669 0.0
C93 C 0.0539 0.68205 0.53527 0.0
C94 C 0.01753 0.66271 0.47433 0.0
C95 C 0.05102 0.66957 0.4569 0.0
C96 C 0.04803 0.69497 0.43479 0.0
C97 C 0.01129 0.71409 0.42968 0.0
C98 C 0.97716 0.70582 0.44639 0.0
C99 C 0.98025 0.68052 0.46854 0.0
C100 C 0.01103 0.60325 0.50042 0.0
C101 C 0.97125 0.592 0.49331 0.0
C102 C 0.96069 0.55409 0.49337 0.0
C103 C 0.98948 0.52663 0.50084 0.0
C104 C 0.02893 0.53826 0.5086 0.0
C105 C 0.03949 0.57608 0.50829 0.0
C106 C 0.94966 0.34901 0.52238 0.0
C107 C 0.9192 0.32289 0.52866 0.0
C108 C 0.92449 0.29714 0.55025 0.0
C109 C 0.96027 0.29726 0.56655 0.0
C110 C 0.99013 0.32465 0.56096 0.0
C111 C 0.98514 0.34995 0.5389 0.0
C112 C 0.95602 0.34967 0.47219 0.0
C113 C 0.99411 0.33198 0.4692 0.0
C114 C 0.00075 0.30672 0.4474 0.0
C115 C 0.9693 0.29819 0.42847 0.0
C116 C 0.9318 0.31692 0.4309 0.0
C117 C 0.92536 0.34251 0.45251 0.0
C118 C 0.9579 0.40928 0.49809 0.0
C119 C 0.92932 0.43587 0.50686 0.0
C120 C 0.9395 0.47379 0.50798 0.0
C121 C 0.97869 0.48609 0.50019 0.0
C122 C 0.00748 0.45925 0.49161 0.0
C123 C 0.99734 0.4213 0.49074 0.0
O124 O 0.94709 0.97667 0.23235 0.0
Cd125 Cd 0.00243 0.96792 0.25154 0.0
Cd126 Cd 0.00314 0.04592 0.2517 0.0
O127 O 0.95064 0.03797 0.22837 0.0
O128 O 0.00241 0.91334 0.25969 0.0
O129 O 0.00602 0.95624 0.29276 0.0
C130 C 0.00475 0.92138 0.28588 0.0
C131 C 0.00064 0.0916 0.28659 0.0
C132 C 0.93233 0.00731 0.22362 0.0
C133 C 0.07246 0.00671 0.22281 0.0
O134 O 0.05833 0.03735 0.23202 0.0
O135 O 0.05407 0.97611 0.22757 0.0
O136 O 0.00355 0.10028 0.26054 0.0
O137 O -0.00073 0.05658 0.29303 0.0
O138 O 0.95155 0.04319 0.77082 0.0
Cd139 Cd 0.00151 0.04793 0.74476 0.0
Cd140 Cd 0.99605 0.97068 0.74525 0.0
O141 O 0.94187 0.98261 0.76526 0.0
O142 O 0.00491 0.10185 0.73471 0.0
O143 O 0.99293 0.05745 0.70363 0.0
C144 C 0.99783 0.09247 0.70917 0.0
C145 C 0.99484 0.92447 0.71068 0.0
C146 C 0.93074 0.01383 0.77527 0.0
C147 C 0.07044 0.00584 0.77141 0.0
O148 O 0.04953 0.97627 0.76798 0.0
O149 O 0.05775 0.03685 0.76193 0.0
O150 O 0.99277 0.91625 0.73686 0.0
O151 O 0.99746 0.95933 0.70395 0.0
H152 H 0.25657 0.9667 0.09434 0.0
H153 H 0.24703 0.08657 0.10285 0.0
H154 H 0.21271 0.95864 0.13461 0.0
H155 H 0.1998 0.07847 0.1412 0.0
H156 H 0.13366 0.05844 0.22106 0.0
H157 H 0.18898 0.06265 0.18722 0.0
H158 H 0.14519 0.96189 0.14724 0.0
H159 H 0.09188 0.9566 0.1822 0.0
C160 C 0.24533 0.99143 0.10477 0.0
C161 C 0.25544 0.02735 0.09502 0.0
C162 C 0.21941 0.98676 0.12771 0.0
C163 C 0.2021 0.01783 0.14122 0.0
C164 C 0.21277 0.05374 0.13175 0.0
C165 C 0.23937 0.05842 0.10921 0.0
C166 C 0.13641 0.03692 0.20526 0.0
C167 C 0.10844 0.00725 0.20422 0.0
C168 C 0.16789 0.03948 0.18564 0.0
C169 C 0.17151 0.01292 0.16407 0.0
C170 C 0.14408 0.98262 0.16367 0.0
C171 C 0.11323 0.97963 0.18368 0.0
H172 H 0.90318 0.26265 0.60005 0.0
H173 H 0.03271 0.26445 0.58245 0.0
H174 H 0.91378 0.21142 0.6328 0.0
H175 H 0.04307 0.21493 0.61674 0.0
H176 H 0.03318 0.16118 0.70906 0.0
H177 H 0.0255 0.21062 0.6741 0.0
H178 H 0.94654 0.13929 0.62555 0.0
H179 H 0.95517 0.08919 0.6601 0.0
C180 C 0.93387 0.25226 0.60299 0.0
C181 C 0.96701 0.26785 0.58826 0.0
C182 C 0.93984 0.22301 0.6219 0.0
C183 C 0.97915 0.20927 0.62706 0.0
C184 C 0.01246 0.22523 0.61308 0.0
C185 C 0.00645 0.25391 0.59366 0.0
C186 C 0.01446 0.15593 0.6908 0.0
C187 C 0.99474 0.12138 0.68725 0.0
C188 C 0.0102 0.18415 0.67084 0.0
C189 C 0.98536 0.17864 0.64732 0.0
C190 C 0.96576 0.1441 0.64363 0.0
C191 C 0.97084 0.11549 0.66327 0.0
H192 H 0.72611 0.04772 0.11023 0.0
H193 H 0.76992 0.93601 0.09462 0.0
H194 H 0.77377 0.05359 0.14933 0.0
H195 H 0.8177 0.94193 0.13319 0.0
H196 H 0.87931 0.94939 0.21591 0.0
H197 H 0.82301 0.94571 0.18287 0.0
H198 H 0.84607 0.05954 0.15736 0.0
H199 H 0.90162 0.06361 0.1911 0.0
C200 C 0.74593 0.02445 0.11516 0.0
C201 C 0.74418 0.99136 0.09941 0.0
C202 C 0.77325 0.02781 0.13751 0.0
C203 C 0.79951 0.9982 0.1445 0.0
C204 C 0.79735 0.96501 0.12885 0.0
C205 C 0.76998 0.96161 0.10666 0.0
C206 C 0.87206 0.97381 0.20351 0.0
C207 C 0.89523 0.00668 0.20595 0.0
C208 C 0.83991 0.97162 0.18443 0.0
C209 C 0.83036 1.00213 0.16713 0.0
C210 C 0.85235 0.03558 0.17048 0.0
C211 C 0.88435 0.03787 0.18976 0.0
H212 H 0.04956 0.78445 0.56781 0.0
H213 H 0.96316 0.71864 0.61501 0.0
H214 H 0.04386 0.83458 0.60183 0.0
H215 H 0.95601 0.76966 0.64847 0.0
H216 H 0.99266 0.84928 0.71944 0.0
H217 H 0.99493 0.79967 0.6848 0.0
H218 H 0.99812 0.88199 0.61878 0.0
H219 H 0.99686 0.93181 0.65362 0.0
C220 C 0.02937 0.78062 0.5855 0.0
C221 C 0.00716 0.74728 0.58882 0.0
C222 C 0.02564 0.80966 0.6048 0.0
C223 C -0.00054 0.80624 0.62791 0.0
C224 C 0.97682 0.77308 0.63108 0.0
C225 C 0.98061 0.74396 0.61175 0.0
C226 C 0.99373 0.85687 0.69754 0.0
C227 C 0.99475 0.89455 0.6893 0.0
C228 C 0.99474 0.82835 0.67764 0.0
C229 C 0.9967 0.83676 0.64897 0.0
C230 C 0.99718 0.87449 0.64071 0.0
C231 C 0.99625 0.90307 0.66066 0.0
H232 H 0.27193 0.96359 0.88895 0.0
H233 H 0.23224 0.07769 0.89929 0.0
H234 H 0.22513 0.95646 0.84941 0.0
H235 H 0.18562 0.0706 0.86023 0.0
H236 H 0.12787 0.06059 0.77681 0.0
H237 H 0.18354 0.06346 0.81039 0.0
H238 H 0.15227 0.95316 0.84008 0.0
H239 H 0.0972 0.94982 0.80586 0.0
C240 C 0.2532 0.9871 0.8828 0.0
C241 C 0.25599 0.02128 0.89713 0.0
C242 C 0.22642 0.98303 0.86017 0.0
C243 C 0.20185 0.01305 0.85147 0.0
C244 C 0.20479 0.04717 0.86586 0.0
C245 C 0.23151 0.05123 0.88834 0.0
C246 C 0.13322 0.03669 0.7902 0.0
C247 C 0.10776 1.00515 0.78887 0.0
C248 C 0.165 0.03844 0.80958 0.0
C249 C 0.17192 0.00883 0.82829 0.0
C250 C 0.14793 0.9764 0.82591 0.0
C251 C 0.11625 0.97454 0.80634 0.0
H252 H 0.0341 0.28692 0.3934 0.0
H253 H 0.91699 0.24114 0.41657 0.0
H254 H 0.04352 0.23605 0.35984 0.0
H255 H 0.92629 0.19051 0.38296 0.0
H256 H 0.01689 0.16568 0.28006 0.0
H257 H 0.01053 0.21526 0.31468 0.0
H258 H 0.97253 0.13444 0.37639 0.0
H259 H 0.97902 0.08456 0.34169 0.0
C260 C 0.01041 0.266 0.39129 0.0
C261 C 0.97471 0.26811 0.40746 0.0
C262 C 0.01571 0.23701 0.37204 0.0
C263 C 0.98567 0.20928 0.36886 0.0
C264 C 0.95011 0.21129 0.38515 0.0
C265 C 0.94459 0.2405 0.40413 0.0
C266 C 0.00735 0.1584 0.30104 0.0
C267 C 0.99834 0.12119 0.30813 0.0
C268 C 0.00393 0.18681 0.3209 0.0
C269 C 0.99097 0.17873 0.34821 0.0
C270 C 0.98226 0.14149 0.35541 0.0
C271 C 0.98618 0.11294 0.3356 0.0
H272 H 0.75298 0.05763 0.90751 0.0
H273 H 0.74656 0.93948 0.8895 0.0
H274 H 0.79751 0.06642 0.86754 0.0
H275 H 0.79427 0.94759 0.85158 0.0
H276 H 0.86308 0.96968 0.77373 0.0
H277 H 0.80716 0.96798 0.80716 0.0
H278 H 0.86406 0.05757 0.85379 0.0
H279 H 0.91814 0.0608 0.81913 0.0
C280 C 0.76086 0.03348 0.89505 0.0
C281 C 0.74626 0.99773 0.90209 0.0
C282 C 0.78711 0.03845 0.8723 0.0
C283 C 0.80011 0.00773 0.85626 0.0
C284 C 0.78474 0.97215 0.86299 0.0
C285 C 0.75786 0.96732 0.8853 0.0
C286 C 0.86314 0.98935 0.79094 0.0
C287 C 0.89496 0.01524 0.79394 0.0
C288 C 0.83128 0.9882 0.81031 0.0
C289 C 0.83114 0.01219 0.83364 0.0
C290 C 0.86251 0.03894 0.83602 0.0
C291 C 0.89378 0.04071 0.81621 0.0
H292 H 0.97275 0.78167 0.43334 0.0
H293 H 0.04581 0.71472 0.37741 0.0
H294 H 0.97059 0.83141 0.39869 0.0
H295 H 0.0452 0.7652 0.34324 0.0
H296 H 0.01241 0.92809 0.34277 0.0
H297 H 0.01413 0.87793 0.37737 0.0
H298 H -0.00021 0.79653 0.31144 0.0
H299 H -0.00094 0.8464 0.27696 0.0
C300 C 0.98816 0.77744 0.41358 0.0
C301 C 0.00927 0.74404 0.40813 0.0
C302 C 0.98743 0.80624 0.39386 0.0
C303 C 0.00784 0.80243 0.36819 0.0
C304 C 0.0288 0.76897 0.36267 0.0
C305 C 0.0295 0.74014 0.38239 0.0
C306 C 0.0097 0.89948 0.3357 0.0
C307 C 0.00569 0.89127 0.30711 0.0
C308 C 0.01044 0.87072 0.35553 0.0
C309 C 0.00713 0.83314 0.3472 0.0
C310 C 0.00305 0.82506 0.31859 0.0
C311 C 0.00239 0.85374 0.29881 0.0
loop_
_geom_bond_atom_site_label_1
_geom_bond_atom_site_label_2
_geom_bond_distance
_geom_bond_site_symmetry_2
_ccdc_geom_bond_type
H0 C27 0.929 . S
N1 C26 1.433 1_556 S
N1 C32 1.435 . S
N1 C38 1.423 . S
H2 C28 0.930 . S
H3 C31 0.931 . S
H4 C30 0.929 . S
H5 C33 0.930 . S
H6 C34 0.932 . S
H7 C37 0.929 . S
H8 C36 0.931 . S
H9 C39 0.929 . S
H10 C43 0.932 1_565 S
H11 C40 0.931 . S
H12 C42 0.929 1_565 S
H13 C45 0.929 . S
H14 C46 0.930 . S
H15 C48 0.929 . S
H16 C49 0.931 . S
H17 C51 0.930 . S
H18 C52 0.932 . S
H19 C54 0.931 . S
H20 C55 0.929 . S
H21 C57 0.929 . S
H22 C58 0.931 . S
H23 C60 0.929 1_565 S
N24 C44 1.433 1_556 S
N24 C50 1.435 . S
N24 C56 1.423 . S
H25 C61 0.932 1_565 S
C26 N1 1.433 1_554 S
C26 C27 1.363 . S
C26 C31 1.370 1_545 S
C27 H0 0.929 . S
C27 C26 1.363 . S
C27 C28 1.385 . S
C28 H2 0.930 . S
C28 C27 1.385 . S
C28 C29 1.357 . S
C29 C28 1.357 . S
C29 C30 1.406 1_545 S
C30 H4 0.929 . S
C30 C29 1.406 1_565 S
C30 C31 1.391 . S
C31 H3 0.931 . S
C31 C26 1.370 1_565 S
C31 C30 1.391 . S
C32 N1 1.435 . S
C32 C33 1.358 1_545 S
C32 C37 1.371 . S
C33 H5 0.930 . S
C33 C32 1.358 1_565 S
C33 C34 1.405 . S
C34 H6 0.932 . S
C34 C33 1.405 . S
C34 C35 1.383 1_565 S
C35 C34 1.383 1_545 S
C35 C36 1.393 . S
C36 H8 0.931 . S
C36 C35 1.393 . S
C36 C37 1.382 . S
C37 H7 0.929 . S
C37 C32 1.371 . S
C37 C36 1.382 . S
C38 N1 1.423 . S
C38 C39 1.362 1_556 S
C38 C43 1.388 . S
C39 H9 0.929 . S
C39 C38 1.362 1_554 S
C39 C40 1.376 . S
C40 H11 0.931 . S
C40 C39 1.376 . S
C40 C41 1.396 1_554 S
C41 C40 1.396 1_556 S
C41 C42 1.348 . S
C41 C59 1.472 . S
C42 H12 0.929 1_545 S
C42 C41 1.348 . S
C42 C43 1.443 . S
C43 H10 0.932 1_545 S
C43 C38 1.388 . S
C43 C42 1.443 . S
C44 N24 1.433 1_554 S
C44 C45 1.363 . S
C44 C49 1.370 1_545 S
C45 H13 0.929 . S
C45 C44 1.363 . S
C45 C46 1.385 . S
C46 H14 0.930 . S
C46 C45 1.385 . S
C46 C47 1.357 . S
C47 C46 1.357 . S
C47 C48 1.406 1_545 S
C48 H15 0.929 . S
C48 C47 1.406 1_565 S
C48 C49 1.391 . S
C49 H16 0.931 . S
C49 C44 1.370 1_565 S
C49 C48 1.391 . S
C50 N24 1.435 . S
C50 C51 1.358 1_545 S
C50 C55 1.371 . S
C51 H17 0.930 . S
C51 C50 1.358 1_565 S
C51 C52 1.405 . S
C52 H18 0.932 . S
C52 C51 1.405 . S
C52 C53 1.383 1_565 S
C53 C52 1.383 1_545 S
C53 C54 1.393 . S
C54 H19 0.931 . S
C54 C53 1.393 . S
C54 C55 1.382 . S
C55 H20 0.929 . S
C55 C50 1.371 . S
C55 C54 1.382 . S
C56 N24 1.423 . S
C56 C57 1.362 1_556 S
C56 C61 1.388 . S
C57 H21 0.929 . S
C57 C56 1.362 1_554 S
C57 C58 1.376 . S
C58 H22 0.931 . S
C58 C57 1.376 . S
C58 C59 1.396 1_554 S
C59 C41 1.472 . S
C59 C58 1.396 1_556 S
C59 C60 1.348 . S
C60 H23 0.929 1_545 S
C60 C59 1.348 . S
C60 C61 1.443 . S
C61 H25 0.932 1_545 S
C61 C56 1.388 . S
C61 C60 1.443 . S
H62 C89 0.929 . S
N63 C88 1.433 . S
N63 C94 1.435 . S
N63 C100 1.423 . S
H64 C90 0.930 . S
H65 C93 0.931 . S
H66 C92 0.929 . S
H67 C95 0.930 . S
H68 C96 0.932 . S
H69 C99 0.929 . S
H70 C98 0.931 . S
H71 C101 0.929 . S
H72 C105 0.932 1_455 S
H73 C102 0.931 . S
H74 C104 0.929 1_455 S
H75 C107 0.929 . S
H76 C108 0.930 . S
H77 C110 0.929 . S
H78 C111 0.931 . S
H79 C113 0.930 . S
H80 C114 0.932 . S
H81 C116 0.931 . S
H82 C117 0.929 . S
H83 C119 0.929 . S
H84 C120 0.931 . S
H85 C122 0.929 1_455 S
N86 C106 1.433 . S
N86 C112 1.435 . S
N86 C118 1.423 . S
H87 C123 0.932 1_455 S
C88 N63 1.433 . S
C88 C89 1.363 . S
C88 C93 1.370 1_655 S
C89 H62 0.929 . S
C89 C88 1.363 . S
C89 C90 1.385 . S
C90 H64 0.930 . S
C90 C89 1.385 . S
C90 C91 1.357 . S
C91 C90 1.357 . S
C91 C92 1.406 1_655 S
C92 H66 0.929 . S
C92 C91 1.406 1_455 S
C92 C93 1.391 . S
C93 H65 0.931 . S
C93 C88 1.370 1_455 S
C93 C92 1.391 . S
C94 N63 1.435 . S
C94 C95 1.358 1_655 S
C94 C99 1.371 . S
C95 H67 0.930 . S
C95 C94 1.358 1_455 S
C95 C96 1.405 . S
C96 H68 0.932 . S
C96 C95 1.405 . S
C96 C97 1.383 1_455 S
C97 C96 1.383 1_655 S
C97 C98 1.393 . S
C98 H70 0.931 . S
C98 C97 1.393 . S
C98 C99 1.382 . S
C99 H69 0.929 . S
C99 C94 1.371 . S
C99 C98 1.382 . S
C100 N63 1.423 . S
C100 C101 1.362 . S
C100 C105 1.388 . S
C101 H71 0.929 . S
C101 C100 1.362 . S
C101 C102 1.376 . S
C102 H73 0.931 . S
C102 C101 1.376 . S
C102 C103 1.396 . S
C103 C102 1.396 . S
C103 C104 1.348 . S
C103 C121 1.472 . S
C104 H74 0.929 1_655 S
C104 C103 1.348 . S
C104 C105 1.443 . S
C105 H72 0.932 1_655 S
C105 C100 1.388 . S
C105 C104 1.443 . S
C106 N86 1.433 . S
C106 C107 1.363 . S
C106 C111 1.370 1_655 S
C107 H75 0.929 . S
C107 C106 1.363 . S
C107 C108 1.385 . S
C108 H76 0.930 . S
C108 C107 1.385 . S
C108 C109 1.357 . S
C109 C108 1.357 . S
C109 C110 1.406 1_655 S
C110 H77 0.929 . S
C110 C109 1.406 1_455 S
C110 C111 1.391 . S
C111 H78 0.931 . S
C111 C106 1.370 1_455 S
C111 C110 1.391 . S
C112 N86 1.435 . S
C112 C113 1.358 1_655 S
C112 C117 1.371 . S
C113 H79 0.930 . S
C113 C112 1.358 1_455 S
C113 C114 1.405 . S
C114 H80 0.932 . S
C114 C113 1.405 . S
C114 C115 1.383 1_455 S
C115 C114 1.383 1_655 S
C115 C116 1.393 . S
C116 H81 0.931 . S
C116 C115 1.393 . S
C116 C117 1.382 . S
C117 H82 0.929 . S
C117 C112 1.371 . S
C117 C116 1.382 . S
C118 N86 1.423 . S
C118 C119 1.362 . S
C118 C123 1.388 . S
C119 H83 0.929 . S
C119 C118 1.362 . S
C119 C120 1.376 . S
C120 H84 0.931 . S
C120 C119 1.376 . S
C120 C121 1.396 . S
C121 C103 1.472 . S
C121 C120 1.396 . S
C121 C122 1.348 . S
C122 H85 0.929 1_655 S
C122 C121 1.348 . S
C122 C123 1.443 . S
C123 H87 0.932 1_655 S
C123 C118 1.388 . S
C123 C122 1.443 . S
O124 Cd125 2.223 1_655 S
O124 C132 1.315 . S
Cd125 O124 2.223 1_455 S
Cd125 O128 2.297 1_455 S
Cd125 O129 2.439 1_455 S
Cd125 O135 2.240 1_565 S
Cd126 O127 2.240 1_545 S
Cd126 O134 2.223 1_655 S
Cd126 O136 2.297 1_655 S
Cd126 O137 2.439 1_655 S
O127 Cd126 2.240 1_565 S
O127 C132 1.279 . S
O128 Cd125 2.297 1_655 S
O128 C130 1.247 . S
O129 Cd125 2.439 1_655 S
O129 C130 1.208 . S
C130 O128 1.247 . S
C130 O129 1.208 . S
C131 O136 1.247 . S
C131 O137 1.208 . S
C132 O124 1.315 . S
C132 O127 1.279 . S
C133 O134 1.315 . S
C133 O135 1.279 . S
O134 Cd126 2.223 1_455 S
O134 C133 1.315 . S
O135 Cd125 2.240 1_545 S
O135 C133 1.279 . S
O136 Cd126 2.297 1_455 S
O136 C131 1.247 . S
O137 Cd126 2.439 1_455 S
O137 C131 1.208 . S
O138 Cd139 2.223 1_655 S
O138 C146 1.315 . S
Cd139 O138 2.223 1_455 S
Cd139 O142 2.297 1_455 S
Cd139 O143 2.439 1_455 S
Cd139 O149 2.240 1_545 S
Cd140 O141 2.240 1_565 S
Cd140 O148 2.223 1_655 S
Cd140 O150 2.297 1_655 S
Cd140 O151 2.439 1_655 S
O141 Cd140 2.240 1_545 S
O141 C146 1.279 . S
O142 Cd139 2.297 1_655 S
O142 C144 1.247 . S
O143 Cd139 2.439 1_655 S
O143 C144 1.208 . S
C144 O142 1.247 . S
C144 O143 1.208 . S
C145 O150 1.247 . S
C145 O151 1.208 . S
C146 O138 1.315 . S
C146 O141 1.279 . S
C147 O148 1.315 . S
C147 O149 1.279 . S
O148 Cd140 2.223 1_455 S
O148 C147 1.315 . S
O149 Cd139 2.240 1_565 S
O149 C147 1.279 . S
O150 Cd140 2.297 1_455 S
O150 C145 1.247 . S
O151 Cd140 2.439 1_455 S
O151 C145 1.208 . S
H152 C160 0.950 . S
H153 C165 0.950 . S
H154 C162 0.950 . S
H155 C164 0.950 . S
H156 C166 0.950 . S
H157 C168 0.950 . S
H158 C170 0.950 . S
H159 C171 0.950 . S
C160 H152 0.950 . S
C160 C161 1.386 1_565 S
C160 C162 1.391 . S
C161 C160 1.386 1_545 S
C161 C165 1.393 . S
C162 H154 0.950 . S
C162 C160 1.391 . S
C162 C163 1.400 1_565 S
C163 C162 1.400 1_545 S
C163 C164 1.398 . S
C163 C169 1.491 . S
C164 H155 0.950 . S
C164 C163 1.398 . S
C164 C165 1.391 . S
C165 H153 0.950 . S
C165 C161 1.393 . S
C165 C164 1.391 . S
C166 H156 0.950 . S
C166 C167 1.386 . S
C166 C168 1.391 . S
C167 C166 1.386 . S
C167 C171 1.393 1_545 S
C168 H157 0.950 . S
C168 C166 1.391 . S
C168 C169 1.400 . S
C169 C163 1.491 . S
C169 C168 1.400 . S
C169 C170 1.398 1_545 S
C170 H158 0.950 . S
C170 C169 1.398 1_565 S
C170 C171 1.391 . S
C171 H159 0.950 . S
C171 C167 1.393 1_565 S
C171 C170 1.391 . S
H172 C180 0.950 . S
H173 C185 0.950 . S
H174 C182 0.950 . S
H175 C184 0.950 . S
H176 C186 0.950 . S
H177 C188 0.950 . S
H178 C190 0.950 . S
H179 C191 0.950 . S
C180 H172 0.950 . S
C180 C181 1.386 . S
C180 C182 1.391 . S
C181 C180 1.386 . S
C181 C185 1.393 1_655 S
C182 H174 0.950 . S
C182 C180 1.391 . S
C182 C183 1.400 . S
C183 C182 1.400 . S
C183 C184 1.398 1_655 S
C183 C189 1.491 . S
C184 H175 0.950 . S
C184 C183 1.398 1_455 S
C184 C185 1.391 . S
C185 H173 0.950 . S
C185 C181 1.393 1_455 S
C185 C184 1.391 . S
C186 H176 0.950 . S
C186 C187 1.386 1_455 S
C186 C188 1.391 . S
C187 C186 1.386 1_655 S
C187 C191 1.393 . S
C188 H177 0.950 . S
C188 C186 1.391 . S
C188 C189 1.400 1_455 S
C189 C183 1.491 . S
C189 C188 1.400 1_655 S
C189 C190 1.398 . S
C190 H178 0.950 . S
C190 C189 1.398 . S
C190 C191 1.391 . S
C191 H179 0.950 . S
C191 C187 1.393 . S
C191 C190 1.391 . S
H192 C200 0.950 . S
H193 C205 0.950 . S
H194 C202 0.950 . S
H195 C204 0.950 . S
H196 C206 0.950 . S
H197 C208 0.950 . S
H198 C210 0.950 . S
H199 C211 0.950 . S
C200 H192 0.950 . S
C200 C201 1.386 1_545 S
C200 C202 1.391 . S
C201 C200 1.386 1_565 S
C201 C205 1.393 . S
C202 H194 0.950 . S
C202 C200 1.391 . S
C202 C203 1.400 1_545 S
C203 C202 1.400 1_565 S
C203 C204 1.398 . S
C203 C209 1.491 . S
C204 H195 0.950 . S
C204 C203 1.398 . S
C204 C205 1.391 . S
C205 H193 0.950 . S
C205 C201 1.393 . S
C205 C204 1.391 . S
C206 H196 0.950 . S
C206 C207 1.386 . S
C206 C208 1.391 . S
C207 C206 1.386 . S
C207 C211 1.393 1_565 S
C208 H197 0.950 . S
C208 C206 1.391 . S
C208 C209 1.400 . S
C209 C203 1.491 . S
C209 C208 1.400 . S
C209 C210 1.398 1_565 S
C210 H198 0.950 . S
C210 C209 1.398 1_545 S
C210 C211 1.391 . S
C211 H199 0.950 . S
C211 C207 1.393 1_545 S
C211 C210 1.391 . S
H212 C220 0.950 . S
H213 C225 0.950 . S
H214 C222 0.950 . S
H215 C224 0.950 . S
H216 C226 0.950 . S
H217 C228 0.950 1_655 S
H218 C230 0.950 . S
H219 C231 0.950 . S
C220 H212 0.950 . S
C220 C221 1.386 . S
C220 C222 1.391 . S
C221 C220 1.386 . S
C221 C225 1.393 1_455 S
C222 H214 0.950 . S
C222 C220 1.391 . S
C222 C223 1.400 . S
C223 C222 1.400 . S
C223 C224 1.398 1_455 S
C223 C229 1.491 . S
C224 H215 0.950 . S
C224 C223 1.398 1_655 S
C224 C225 1.391 . S
C225 H213 0.950 . S
C225 C221 1.393 1_655 S
C225 C224 1.391 . S
C226 H216 0.950 . S
C226 C227 1.386 . S
C226 C228 1.391 . S
C227 C226 1.386 . S
C227 C231 1.393 . S
C228 H217 0.950 1_455 S
C228 C226 1.391 . S
C228 C229 1.400 . S
C229 C223 1.491 . S
C229 C228 1.400 . S
C229 C230 1.398 . S
C230 H218 0.950 . S
C230 C229 1.398 . S
C230 C231 1.391 . S
C231 H219 0.950 . S
C231 C227 1.393 . S
C231 C230 1.391 . S
H232 C240 0.950 . S
H233 C245 0.950 . S
H234 C242 0.950 . S
H235 C244 0.950 . S
H236 C246 0.950 . S
H237 C248 0.950 . S
H238 C250 0.950 . S
H239 C251 0.950 . S
C240 H232 0.950 . S
C240 C241 1.386 . S
C240 C242 1.391 . S
C241 C240 1.386 . S
C241 C245 1.393 1_565 S
C242 H234 0.950 . S
C242 C240 1.391 . S
C242 C243 1.400 . S
C243 C242 1.400 . S
C243 C244 1.398 1_565 S
C243 C249 1.491 . S
C244 H235 0.950 . S
C244 C243 1.398 1_545 S
C244 C245 1.391 . S
C245 H233 0.950 . S
C245 C241 1.393 1_545 S
C245 C244 1.391 . S
C246 H236 0.950 . S
C246 C247 1.386 1_545 S
C246 C248 1.391 . S
C247 C246 1.386 1_565 S
C247 C251 1.393 . S
C248 H237 0.950 . S
C248 C246 1.391 . S
C248 C249 1.400 1_545 S
C249 C243 1.491 . S
C249 C248 1.400 1_565 S
C249 C250 1.398 . S
C250 H238 0.950 . S
C250 C249 1.398 . S
C250 C251 1.391 . S
C251 H239 0.950 . S
C251 C247 1.393 . S
C251 C250 1.391 . S
H252 C260 0.950 . S
H253 C265 0.950 . S
H254 C262 0.950 . S
H255 C264 0.950 . S
H256 C266 0.950 . S
H257 C268 0.950 . S
H258 C270 0.950 . S
H259 C271 0.950 . S
C260 H252 0.950 . S
C260 C261 1.386 . S
C260 C262 1.391 . S
C261 C260 1.386 . S
C261 C265 1.393 1_455 S
C262 H254 0.950 . S
C262 C260 1.391 . S
C262 C263 1.400 . S
C263 C262 1.400 . S
C263 C264 1.398 1_455 S
C263 C269 1.491 . S
C264 H255 0.950 . S
C264 C263 1.398 1_655 S
C264 C265 1.391 . S
C265 H253 0.950 . S
C265 C261 1.393 1_655 S
C265 C264 1.391 . S
C266 H256 0.950 . S
C266 C267 1.386 1_655 S
C266 C268 1.391 . S
C267 C266 1.386 1_455 S
C267 C271 1.393 . S
C268 H257 0.950 . S
C268 C266 1.391 . S
C268 C269 1.400 1_655 S
C269 C263 1.491 . S
C269 C268 1.400 1_455 S
C269 C270 1.398 . S
C270 H258 0.950 . S
C270 C269 1.398 . S
C270 C271 1.391 . S
C271 H259 0.950 . S
C271 C267 1.393 . S
C271 C270 1.391 . S
H272 C280 0.950 . S
H273 C285 0.950 . S
H274 C282 0.950 . S
H275 C284 0.950 . S
H276 C286 0.950 . S
H277 C288 0.950 . S
H278 C290 0.950 . S
H279 C291 0.950 . S
C280 H272 0.950 . S
C280 C281 1.386 . S
C280 C282 1.391 . S
C281 C280 1.386 . S
C281 C285 1.393 1_545 S
C282 H274 0.950 . S
C282 C280 1.391 . S
C282 C283 1.400 . S
C283 C282 1.400 . S
C283 C284 1.398 1_545 S
C283 C289 1.491 . S
C284 H275 0.950 . S
C284 C283 1.398 1_565 S
C284 C285 1.391 . S
C285 H273 0.950 . S
C285 C281 1.393 1_565 S
C285 C284 1.391 . S
C286 H276 0.950 . S
C286 C287 1.386 1_565 S
C286 C288 1.391 . S
C287 C286 1.386 1_545 S
C287 C291 1.393 . S
C288 H277 0.950 . S
C288 C286 1.391 . S
C288 C289 1.400 1_565 S
C289 C283 1.491 . S
C289 C288 1.400 1_545 S
C289 C290 1.398 . S
C290 H278 0.950 . S
C290 C289 1.398 . S
C290 C291 1.391 . S
C291 H279 0.950 . S
C291 C287 1.393 . S
C291 C290 1.391 . S
H292 C300 0.950 . S
H293 C305 0.950 . S
H294 C302 0.950 . S
H295 C304 0.950 . S
H296 C306 0.950 . S
H297 C308 0.950 . S
H298 C310 0.950 . S
H299 C311 0.950 . S
C300 H292 0.950 . S
C300 C301 1.386 . S
C300 C302 1.391 . S
C301 C300 1.386 . S
C301 C305 1.393 1_655 S
C302 H294 0.950 . S
C302 C300 1.391 . S
C302 C303 1.400 . S
C303 C302 1.400 . S
C303 C304 1.398 1_655 S
C303 C309 1.491 . S
C304 H295 0.950 . S
C304 C303 1.398 1_455 S
C304 C305 1.391 . S
C305 H293 0.950 . S
C305 C301 1.393 1_455 S
C305 C304 1.391 . S
C306 H296 0.950 . S
C306 C307 1.386 1_455 S
C306 C308 1.391 . S
C307 C306 1.386 1_655 S
C307 C311 1.393 . S
C308 H297 0.950 . S
C308 C306 1.391 . S
C308 C309 1.400 1_455 S
C309 C303 1.491 . S
C309 C308 1.400 1_655 S
C309 C310 1.398 . S
C310 H298 0.950 . S
C310 C309 1.398 . S
C310 C311 1.391 . S
C311 H299 0.950 . S
C311 C307 1.393 . S
C311 C310 1.391 . S
C167 C133 1.843 . S
C161 C47 1.750 . S
C187 C144 1.759 . S
C181 C109 1.707 . S
C207 C132 1.843 . S
C201 C29 1.762 1_565 S
C227 C145 1.773 . S
C221 C91 1.736 1_455 S
C247 C147 1.580 . S
C241 C53 1.568 1_565 S
C267 C131 1.428 . S
C261 C115 1.470 1_455 S
C287 C146 1.580 . S
C281 C35 1.570 . S
C301 C97 1.463 . S
C307 C130 1.424 . S
