# Generated by pormake.
# Topology zzz, (3,6)-cn, num edge types: 1
# Building blocks:
#     Node 0, Type 0, BuildingBlock: PAMTOO_clean_linker_0, # of connection points: 3
#     Node 1, Type 0, BuildingBlock: PAMTOO_clean_linker_0, # of connection points: 3
#     Node 2, Type 0, BuildingBlock: PAMTOO_clean_linker_0, # of connection points: 3
#     Node 3, Type 0, BuildingBlock: PAMTOO_clean_linker_0, # of connection points: 3
#     Node 4, Type 0, BuildingBlock: PAMTOO_clean_linker_0, # of connection points: 3
#     Node 5, Type 0, BuildingBlock: PAMTOO_clean_linker_0, # of connection points: 3
#     Node 6, Type 0, BuildingBlock: PAMTOO_clean_linker_0, # of connection points: 3
#     Node 7, Type 0, BuildingBlock: PAMTOO_clean_linker_0, # of connection points: 3
#     Node 8, Type 1, BuildingBlock: JUFBIX_clean_sbu_0, # of connection points: 6
#     Node 9, Type 1, BuildingBlock: JUFBIX_clean_sbu_0, # of connection points: 6
#     Node 10, Type 1, BuildingBlock: JUFBIX_clean_sbu_0, # of connection points: 6
#     Node 11, Type 1, BuildingBlock: JUFBIX_clean_sbu_0, # of connection points: 6
#     Edge 12, Type (0, 1), BuildingBlock: OJICUG_clean_linker_0, # of connection points: 2
#     Edge 13, Type (0, 1), BuildingBlock: OJICUG_clean_linker_0, # of connection points: 2
#     Edge 14, Type (0, 1), BuildingBlock: OJICUG_clean_linker_0, # of connection points: 2
#     Edge 15, Type (0, 1), BuildingBlock: OJICUG_clean_linker_0, # of connection points: 2
#     Edge 16, Type (0, 1), BuildingBlock: OJICUG_clean_linker_0, # of connection points: 2
#     Edge 17, Type (0, 1), BuildingBlock: OJICUG_clean_linker_0, # of connection points: 2
#     Edge 18, Type (0, 1), BuildingBlock: OJICUG_clean_linker_0, # of connection points: 2
#     Edge 19, Type (0, 1), BuildingBlock: OJICUG_clean_linker_0, # of connection points: 2
#     Edge 20, Type (0, 1), BuildingBlock: OJICUG_clean_linker_0, # of connection points: 2
#     Edge 21, Type (0, 1), BuildingBlock: OJICUG_clean_linker_0, # of connection points: 2
#     Edge 22, Type (0, 1), BuildingBlock: OJICUG_clean_linker_0, # of connection points: 2
#     Edge 23, Type (0, 1), BuildingBlock: OJICUG_clean_linker_0, # of connection points: 2
#     Edge 24, Type (0, 1), BuildingBlock: OJICUG_clean_linker_0, # of connection points: 2
#     Edge 25, Type (0, 1), BuildingBlock: OJICUG_clean_linker_0, # of connection points: 2
#     Edge 26, Type (0, 1), BuildingBlock: OJICUG_clean_linker_0, # of connection points: 2
#     Edge 27, Type (0, 1), BuildingBlock: OJICUG_clean_linker_0, # of connection points: 2
#     Edge 28, Type (0, 1), BuildingBlock: OJICUG_clean_linker_0, # of connection points: 2
#     Edge 29, Type (0, 1), BuildingBlock: OJICUG_clean_linker_0, # of connection points: 2
#     Edge 30, Type (0, 1), BuildingBlock: OJICUG_clean_linker_0, # of connection points: 2
#     Edge 31, Type (0, 1), BuildingBlock: OJICUG_clean_linker_0, # of connection points: 2
#     Edge 32, Type (0, 1), BuildingBlock: OJICUG_clean_linker_0, # of connection points: 2
#     Edge 33, Type (0, 1), BuildingBlock: OJICUG_clean_linker_0, # of connection points: 2
#     Edge 34, Type (0, 1), BuildingBlock: OJICUG_clean_linker_0, # of connection points: 2
#     Edge 35, Type (0, 1), BuildingBlock: OJICUG_clean_linker_0, # of connection points: 2
# Relax obj value: 0.111
# Max RMSD: 0.173
# Mean RMSD: 0.081
data_MOF--net-zzz--node1-JUFBIX_clean_sbu_0--node2-PAMTOO_clean_linker_0--edge1-OJICUG_clean_linker_0
_symmetry_space_group_name_H-M    P1
_symmetry_Int_Tables_number       1
_symmetry_cell_setting            triclinic
loop_
_symmetry_equiv_pos_as_xyz
'x, y, z'
_cell_length_a     37.592988
_cell_length_b     37.522384
_cell_length_c     13.276728
_cell_angle_alpha  78.504216
_cell_angle_beta   90.08231
_cell_angle_gamma 91.736449
loop_
_atom_site_label
_atom_site_type_symbol
_atom_site_fract_x
_atom_site_fract_y
_atom_site_fract_z
_atom_type_partial_charge
H0 H 0.92726 0.49467 0.33908 0.0
H1 H 0.8364 0.50822 0.14013 0.0
H2 H 0.83049 0.53509 0.43995 0.0
H3 H 0.75046 0.5114 0.34939 0.0
C4 C 0.76598 0.50747 0.28148 0.0
O5 O 0.79497 0.53161 0.26833 0.0
H6 H 0.77457 0.47871 0.29823 0.0
C7 C 0.89941 0.50095 0.32633 0.0
C8 C 0.88077 0.51437 0.40112 0.0
C9 C 0.88388 0.49877 0.23206 0.0
C10 C 0.84848 0.50892 0.21384 0.0
C11 C 0.82884 0.52116 0.28923 0.0
C12 C 0.84517 0.52443 0.38294 0.0
H13 H 0.05815 0.87366 0.32587 0.0
H14 H 0.0589 0.79287 0.13702 0.0
H15 H 1.00872 0.76858 0.43463 0.0
H16 H 0.03934 0.6947 0.34567 0.0
C17 C 0.04567 0.71434 0.27309 0.0
O18 O 0.02349 0.74352 0.2662 0.0
H19 H 0.07413 0.72322 0.27614 0.0
C20 C 0.05325 0.84592 0.31594 0.0
C21 C 0.03416 0.82205 0.39248 0.0
C22 C 0.06177 0.83629 0.2225 0.0
C23 C 0.05287 0.80093 0.20889 0.0
C24 C 0.03445 0.77621 0.2857 0.0
C25 C 0.02465 0.78689 0.37759 0.0
H26 H 0.69263 0.03248 0.22294 0.0
H27 H 0.77425 0.03743 -0.00635 0.0
H28 H 0.79825 1.00057 0.31495 0.0
H29 H 0.85576 0.04932 0.19244 0.0
C30 C 0.85093 0.04265 0.11547 0.0
O31 O 0.82515 1.01496 0.12537 0.0
H32 H 0.84119 0.06747 0.06373 0.0
C33 C 0.72033 0.03026 0.20252 0.0
C34 C 0.74408 1.01678 0.28043 0.0
C35 C 0.73045 0.03768 0.09922 0.0
C36 C 0.76598 0.03235 0.07349 0.0
C37 C 0.79089 1.01995 0.15124 0.0
C38 C 0.77965 1.01147 0.25518 0.0
H39 H 0.53855 0.64001 0.24295 0.0
H40 H 0.5414 0.739 0.01508 0.0
H41 H 0.55411 0.74274 0.3362 0.0
H42 H 0.51091 0.80384 0.21872 0.0
C43 C 0.52122 0.80452 0.13984 0.0
O44 O 0.55047 0.78255 0.14674 0.0
H45 H 0.4997 0.79374 0.0955 0.0
C46 C 0.54075 0.66954 0.22351 0.0
C47 C 0.5467 0.68901 0.3013 0.0
C48 C 0.53873 0.68711 0.12096 0.0
C49 C 0.54241 0.72522 0.09487 0.0
C50 C 0.54733 0.74561 0.17249 0.0
C51 C 0.54979 0.72731 0.27624 0.0
H52 H 0.15812 0.54391 0.28664 0.0
H53 H 0.2519 0.54532 0.47124 0.0
H54 H 0.25827 0.51396 0.17686 0.0
H55 H 0.32001 0.4779 0.33512 0.0
C56 C 0.30846 0.49233 0.39223 0.0
O57 O 0.29479 0.52468 0.34037 0.0
H58 H 0.28712 0.47398 0.43415 0.0
C59 C 0.18662 0.54077 0.29652 0.0
C60 C 0.20616 0.5288 0.22102 0.0
C61 C 0.20268 0.54656 0.38697 0.0
C62 C 0.23926 0.54123 0.40091 0.0
C63 C 0.25946 0.52962 0.32535 0.0
C64 C 0.24283 0.52316 0.23507 0.0
H65 H 0.02935 0.17392 0.29886 0.0
H66 H 1.01932 0.25767 0.47535 0.0
H67 H 0.07237 0.28124 0.18141 0.0
H68 H 0.101 0.33406 0.32985 0.0
C69 C 0.08315 0.3176 0.38923 0.0
O70 O 0.05243 0.30816 0.34193 0.0
H71 H 0.09809 0.29308 0.42487 0.0
C72 C 0.0322 0.2022 0.30577 0.0
C73 C 0.05059 0.22641 0.22853 0.0
C74 C 1.02134 0.21269 0.39606 0.0
C75 C 0.02721 0.24901 0.40576 0.0
C76 C 0.04522 0.27387 0.32818 0.0
C77 C 0.05724 0.26249 0.23946 0.0
H78 H 0.39 1.00959 0.38845 0.0
H79 H 0.30643 0.99619 0.61484 0.0
H80 H 0.28218 0.02881 0.2919 0.0
H81 H 0.23158 0.05911 0.40843 0.0
C82 C 0.23765 0.04405 0.48716 0.0
O83 O 0.25465 1.01239 0.48018 0.0
H84 H 0.25567 0.06201 0.52317 0.0
C85 C 0.36191 1.00924 0.40786 0.0
C86 C 0.33763 1.01965 0.32905 0.0
C87 C 0.35134 1.00044 0.51066 0.0
C88 C 0.31508 1.00237 0.53531 0.0
C89 C 0.28982 1.012 0.45638 0.0
C90 C 0.30128 0.02079 0.35272 0.0
H91 H 0.54366 0.3988 0.37235 0.0
H92 H 0.55617 0.29917 0.59218 0.0
H93 H 0.54647 0.29739 0.26897 0.0
H94 H 0.51564 0.23046 0.38684 0.0
C95 C 0.52476 0.23301 0.46487 0.0
O96 O 0.55409 0.25673 0.45538 0.0
H97 H 0.50233 0.24422 0.50233 0.0
C98 C 0.54561 0.36938 0.38935 0.0
C99 C 0.54387 0.35039 0.30932 0.0
C100 C 0.55046 0.35142 0.49058 0.0
C101 C 0.55279 0.31333 0.51345 0.0
C102 C 0.55111 0.29353 0.43358 0.0
C103 C 0.54719 0.31233 0.33089 0.0
Co104 Co 0.05658 0.03993 0.86492 0.0
C105 C 0.98525 0.02291 0.91483 0.0
Co106 Co 0.03004 1.01002 0.7566 0.0
C107 C 0.06487 0.10005 0.96754 0.0
C108 C 0.11207 0.06916 0.97924 0.0
N109 N 0.07832 0.06958 0.94504 0.0
N110 N 0.08892 0.11917 0.01317 0.0
C111 C 0.11865 0.09947 0.02121 0.0
H112 H 0.03793 0.10818 0.94874 0.0
H113 H 0.13108 0.04888 0.97067 0.0
C114 C 0.10168 0.02754 0.70814 0.0
N115 N 1.00846 0.98013 0.67642 0.0
C116 C 0.02207 0.94959 0.65455 0.0
C117 C 0.97482 0.98042 0.64152 0.0
N118 N 0.99823 0.93029 0.60857 0.0
C119 C 0.96847 0.95002 0.59974 0.0
C120 C 0.02299 0.08255 0.69449 0.0
O121 O 0.09935 0.04172 0.78712 0.0
O122 O 0.07399 1.01211 0.67841 0.0
O123 O 1.01476 0.05269 0.66751 0.0
O124 O 0.04115 0.08211 0.7753 0.0
O125 O 0.98656 1.00852 0.8357 0.0
H126 H 0.95573 1.00072 0.64935 0.0
H127 H 0.04892 0.94151 0.67453 0.0
O128 O 1.01345 0.0379 0.94258 0.0
O129 O 0.07196 0.99714 0.95394 0.0
O130 O 0.04525 0.96808 0.84596 0.0
C131 C 0.06345 0.96739 0.92668 0.0
H132 H 0.14378 0.10665 0.05278 0.0
H133 H 0.94346 0.9429 0.56745 0.0
Co134 Co 0.52734 0.02923 0.86912 0.0
C135 C 0.53992 0.95469 0.91417 0.0
Co136 Co 0.5543 1.01028 0.74205 0.0
C137 C 0.46737 0.0312 0.00086 0.0
C138 C 0.50439 0.07512 0.00699 0.0
N139 N 0.49999 0.04479 0.96798 0.0
N140 N 0.45073 0.05213 0.05692 0.0
C141 C 0.47428 0.07964 0.06189 0.0
H142 H 0.45538 1.00723 0.9795 0.0
H143 H 0.52729 0.09359 -0.00734 0.0
C144 C 0.54136 0.08498 0.69834 0.0
N145 N 0.58168 0.9946 0.643 0.0
C146 C 0.61462 1.00741 0.61058 0.0
C147 C 0.5765 0.96457 0.603 0.0
N148 N 0.63063 0.98628 0.55371 0.0
C149 C 0.60637 0.95947 0.54793 0.0
C150 C 0.48226 1.00516 0.72435 0.0
O151 O 0.52809 0.07723 0.78837 0.0
O152 O 0.5545 0.05949 0.66045 0.0
O153 O 0.51065 0.99895 0.67928 0.0
O154 O 0.48459 1.01846 0.80464 0.0
O155 O 0.55363 0.96177 0.82442 0.0
H156 H 0.55314 0.94669 0.61658 0.0
H157 H 0.62723 0.03098 0.63257 0.0
O158 O 0.5268 0.98059 0.94987 0.0
O159 O 0.57096 0.04038 0.93221 0.0
O160 O 0.59692 0.02127 0.80596 0.0
C161 C 0.59929 0.03439 0.88653 0.0
H162 H 0.4701 0.10174 0.10144 0.0
H163 H 0.60987 0.93747 0.50755 0.0
Co164 Co 0.5742 0.52083 0.81109 0.0
C165 C 0.53951 0.4677 0.96175 0.0
Co166 Co 0.51535 0.51821 0.79962 0.0
C167 C 0.63799 0.52311 0.92861 0.0
C168 C 0.65072 0.52201 0.77233 0.0
N169 N 0.62301 0.52274 0.83608 0.0
N170 N 0.67389 0.52242 0.92585 0.0
C171 C 0.68201 0.52168 0.82732 0.0
H172 H 0.62263 0.52263 -0.00223 0.0
H173 H 0.64831 0.52113 0.69166 0.0
C174 C 0.5501 0.57144 0.64884 0.0
N175 N 0.46648 0.51596 0.77724 0.0
C176 C 0.4499 0.51515 0.68718 0.0
C177 C 0.44 0.51351 0.84666 0.0
N178 N 0.41402 0.51213 0.69726 0.0
C179 C 0.40785 0.51113 0.79802 0.0
C180 C 0.53798 0.56925 0.90782 0.0
O181 O 0.57875 0.55889 0.69153 0.0
O182 O 0.52043 0.55627 0.68148 0.0
O183 O 0.50978 0.55445 0.87968 0.0
O184 O 0.56804 0.55724 0.88956 0.0
O185 O 0.51092 0.48007 0.91875 0.0
H186 H 0.44386 0.5129 0.92774 0.0
H187 H 0.46413 0.51669 0.61565 0.0
O188 O 0.56908 0.48296 0.92931 0.0
O189 O 0.57968 0.48418 0.73152 0.0
O190 O 0.52141 0.48209 0.72044 0.0
C191 C 0.55135 0.46966 0.70283 0.0
H192 H 0.70862 0.52084 0.79704 0.0
H193 H 0.38204 0.50795 0.83517 0.0
Co194 Co 0.0409 0.55041 0.81005 0.0
C195 C 0.09535 0.5148 0.9382 0.0
Co196 Co 0.04661 0.49141 0.81421 0.0
C197 C 0.03712 0.60602 0.92749 0.0
C198 C 0.03483 0.62984 0.76749 0.0
N199 N 0.03669 0.59758 0.8331 0.0
N200 N 0.03595 0.64219 0.92444 0.0
C201 C 0.03433 0.65728 0.82329 0.0
H202 H 0.03853 0.58564 -0.00257 0.0
H203 H 0.03463 0.63325 0.68464 0.0
C204 C 0.99215 0.52692 0.68576 0.0
N205 N 0.05135 0.44409 0.79406 0.0
C206 C 0.05289 0.43388 0.70213 0.0
C207 C 0.05505 0.41311 0.8641 0.0
N208 N 0.05761 0.39779 0.71134 0.0
C209 C 0.05889 0.38465 0.81363 0.0
C210 C 0.99699 0.50149 0.94921 0.0
O211 O 1.00266 0.55607 0.71363 0.0
O212 O 1.0088 0.49776 0.71719 0.0
O213 O 1.01226 0.47571 0.91921 0.0
O214 O 1.00712 0.53419 0.91456 0.0
O215 O 0.08433 0.48561 0.91196 0.0
H216 H 0.05549 0.41143 0.94638 0.0
H217 H 0.05059 0.45284 0.62965 0.0
O218 O 0.07918 0.54407 0.90534 0.0
O219 O 0.0747 0.56617 0.70391 0.0
O220 O 0.08094 0.50765 0.71033 0.0
C221 C 0.09044 0.54051 0.67457 0.0
H222 H 0.03384 0.68612 0.79124 0.0
H223 H 0.06328 0.35666 0.84984 0.0
C224 C 0.20011 0.04578 0.64453 0.0
C225 C 0.20312 0.03613 0.54805 0.0
H226 H 0.16613 0.05087 0.7696 0.0
C227 C 0.17274 0.02181 0.50614 0.0
H228 H 0.22298 0.05683 0.67901 0.0
C229 C 0.13983 1.0183 0.5583 0.0
C230 C 0.13659 0.02922 0.65333 0.0
H231 H 0.17429 1.01423 0.43174 0.0
H232 H 0.11681 1.00778 0.52318 0.0
C233 C 0.16736 0.0425 0.6962 0.0
C234 C 0.54588 0.16824 0.47853 0.0
C235 C 0.53324 0.19562 0.52672 0.0
H236 H 0.55836 0.1118 0.49421 0.0
C237 C 0.526 0.18688 0.63264 0.0
H238 H 0.55184 0.17426 0.397 0.0
C239 C 0.52942 0.15123 0.68801 0.0
C240 C 0.54054 0.1233 0.6393 0.0
H241 H 0.51649 0.20743 0.67201 0.0
H242 H 0.52265 0.14545 0.76904 0.0
C243 C 0.5495 0.13246 0.53417 0.0
C244 C 0.37258 0.49509 0.45114 0.0
C245 C 0.3363 0.49949 0.46882 0.0
H246 H 0.42554 0.49491 0.5096 0.0
C247 C 0.32611 0.50953 0.56067 0.0
H248 H 0.38119 0.48739 0.38085 0.0
C249 C 0.35155 0.51432 0.63441 0.0
C250 C 0.38792 0.50896 0.61854 0.0
H251 H 0.29832 0.51308 0.57623 0.0
H252 H 0.34251 0.52211 0.70398 0.0
C253 C 0.39805 0.49962 0.52514 0.0
C254 C 0.06296 0.32049 0.56913 0.0
C255 C 0.07443 0.33873 0.47129 0.0
H256 H 0.04825 0.32482 0.72176 0.0
C257 C 0.07861 0.37679 0.45197 0.0
H258 H 0.0593 0.29116 0.58565 0.0
C259 C 0.07271 0.39614 0.53003 0.0
C260 C 0.06217 0.37792 0.62931 0.0
H261 H 0.08725 0.39152 0.37696 0.0
H262 H 0.07735 0.4253 0.51279 0.0
C263 C 0.05693 0.33982 0.64727 0.0
C264 C 0.91828 0.04208 0.111 0.0
C265 C 0.88555 0.03255 0.07052 0.0
H266 H 0.97503 0.04627 0.09492 0.0
C267 C 0.88594 1.01819 0.98037 0.0
H268 H 0.91894 0.05386 0.17915 0.0
C269 C 0.91829 1.01376 0.93165 0.0
C270 C 0.951 0.02415 0.97104 0.0
H271 H 0.86115 1.01135 0.94602 0.0
H272 H 0.91756 1.00332 0.86125 0.0
C273 C 0.9505 0.03788 0.06223 0.0
C274 C 0.54539 0.85114 0.98703 0.0
C275 C 0.53023 0.84348 0.08606 0.0
H276 H 0.56066 0.89202 0.85553 0.0
C277 C 0.51955 0.87279 0.12933 0.0
H278 H 0.55326 0.82912 0.95093 0.0
C279 C 0.52346 0.90878 0.07469 0.0
C280 C 0.53803 0.91653 0.97482 0.0
H281 H 0.50726 0.86783 0.20477 0.0
H282 H 0.51434 0.93051 0.11011 0.0
C283 C 0.54943 0.88721 0.9323 0.0
C284 C 0.75277 0.49939 0.09985 0.0
C285 C 0.743 0.51337 0.18613 0.0
H286 H 0.73846 0.4911 0.94966 0.0
C287 C 0.71105 0.53202 0.18324 0.0
H288 H 0.77721 0.48484 0.10014 0.0
C289 C 0.68871 0.53544 0.09744 0.0
C290 C 0.69796 0.52064 0.0119 0.0
H291 H 0.70301 0.54338 0.24826 0.0
H292 H 0.66413 0.54968 0.09818 0.0
C293 C 0.73057 0.50305 0.01362 0.0
C294 C 0.02948 0.71431 0.08553 0.0
C295 C 0.04116 0.69572 0.18209 0.0
H296 H 1.01782 0.71183 0.92908 0.0
C297 C 0.05167 0.65964 0.19159 0.0
H298 H 0.0219 0.74242 0.07463 0.0
C299 C 0.04992 0.64222 0.10772 0.0
C300 C 0.03765 0.66042 0.01123 0.0
H301 H 0.06168 0.64494 0.26418 0.0
H302 H 0.0589 0.61463 0.11879 0.0
C303 C 0.02748 0.69679 0.00148 0.0
C304 C 0.99158 0.15254 0.47015 0.0
C305 C 1.01123 0.18361 0.48522 0.0
H306 H 0.98047 0.09558 0.52398 0.0
C307 C 0.02855 0.18266 0.57938 0.0
H308 H 0.97727 0.15275 0.39915 0.0
C309 C 0.03 0.15012 0.65113 0.0
C310 C 1.01445 0.1179 0.62955 0.0
H311 H 0.04395 0.206 0.59368 0.0
H312 H 0.04568 0.14975 0.71985 0.0
C313 C 0.99355 0.11978 0.54121 0.0
C314 C 0.40844 0.97126 0.57064 0.0
C315 C 0.38012 0.99315 0.58802 0.0
H316 H 0.46341 0.95889 0.597 0.0
C317 C 0.38425 1.01489 0.66195 0.0
H318 H 0.40584 0.95395 0.51457 0.0
C319 C 0.41716 1.01735 0.71 0.0
C320 C 0.44657 0.99855 0.68365 0.0
H321 H 0.36311 0.03224 0.67629 0.0
H322 H 0.42013 0.0358 0.7629 0.0
C323 C 0.44152 0.9744 0.61661 0.0
C324 C 0.58441 0.39277 0.58297 0.0
C325 C 0.55229 0.37433 0.5686 0.0
H326 H 0.60948 0.43773 0.6363 0.0
C327 C 0.52044 0.38616 0.6034 0.0
H328 H 0.60914 0.38476 0.55338 0.0
C329 C 0.5204 0.41691 0.64768 0.0
C330 C 0.55228 0.43653 0.6581 0.0
H331 H 0.49528 0.37303 0.59002 0.0
H332 H 0.49514 0.42582 0.67125 0.0
C333 C 0.58447 0.42347 0.62829 0.0
C334 C 0.17909 0.52605 0.56312 0.0
C335 C 0.17942 0.55204 0.47143 0.0
H336 H 0.14991 0.50195 0.69866 0.0
C337 C 0.15246 0.5778 0.45329 0.0
H338 H 0.1993 0.5057 0.57825 0.0
C339 C 0.12413 0.57577 0.52263 0.0
C340 C 0.12226 0.54748 0.60916 0.0
H341 H 0.15222 0.59798 0.3825 0.0
H342 H 0.10266 0.59462 0.50517 0.0
C343 C 0.15056 0.52358 0.63096 0.0
C344 C 0.05536 0.86748 0.03965 0.0
C345 C 0.07242 0.86572 0.13455 0.0
H346 H 0.03954 0.90104 0.89913 0.0
C347 C 0.09293 0.89616 0.15077 0.0
H348 H 0.03933 0.84478 0.02387 0.0
C349 C 0.09189 0.92918 0.08034 0.0
C350 C 0.07126 0.93182 0.99129 0.0
H351 H 0.10735 0.89532 0.22185 0.0
H352 H 0.10552 0.95295 0.0984 0.0
C353 C 0.05502 0.90013 0.96846 0.0
C354 C 0.67354 0.06777 0.03972 0.0
C355 C 0.70156 0.0455 0.02231 0.0
H356 H 0.61865 0.08065 0.01371 0.0
C357 C 0.69711 0.02392 0.94806 0.0
H358 H 0.67644 0.08516 0.0955 0.0
C359 C 0.66418 0.02182 0.90022 0.0
C360 C 0.63501 0.04082 0.92699 0.0
H361 H 0.71799 1.00633 0.93336 0.0
H362 H 0.66097 1.00343 0.84723 0.0
C363 C 0.64036 0.06493 -0.006 0.0
C364 C 0.50455 0.64246 0.04056 0.0
C365 C 0.53574 0.66377 0.04428 0.0
H366 H 0.48067 0.5956 -0.00564 0.0
C367 C 0.56682 0.65521 -0.00254 0.0
H368 H 0.48055 0.64811 0.07891 0.0
C369 C 0.56729 0.62463 0.95245 0.0
C370 C 0.53655 0.60221 0.95273 0.0
H371 H 0.59138 0.67069 0.00206 0.0
H372 H 0.59203 0.6181 0.91954 0.0
C373 C 0.50482 0.61213 -0.00599 0.0
C374 C 0.90883 0.51889 0.05713 0.0
C375 C 0.90722 0.49263 0.14829 0.0
H376 H 0.9391 0.54212 0.92322 0.0
C377 C 0.93292 0.46552 0.16637 0.0
H378 H 0.88965 0.54026 0.0416 0.0
C379 C 0.96149 0.46662 0.09822 0.0
C380 C 0.96473 0.49519 0.01272 0.0
H381 H 0.93208 0.44492 0.23633 0.0
H382 H 0.9821 0.4468 0.11592 0.0
C383 C 0.93746 0.52028 0.99034 0.0
C384 C 0.04399 0.20124 0.07045 0.0
C385 C 0.06631 0.21049 0.1465 0.0
H386 H 0.03395 0.16575 0.96602 0.0
C387 C 0.09885 0.19317 0.16614 0.0
H388 H 1.0184 0.21374 0.05559 0.0
C389 C 0.10731 0.16454 0.11803 0.0
C390 C 0.08339 0.15271 0.04881 0.0
H391 H 0.11605 0.19922 0.22654 0.0
H392 H 0.1314 0.15019 0.14124 0.0
C393 C 0.05259 0.17292 0.02127 0.0
C394 C 0.36725 0.06669 0.19747 0.0
C395 C 0.35332 0.03094 0.22532 0.0
H396 H 0.40923 0.10165 0.12195 0.0
C397 C 0.36801 1.00382 0.1805 0.0
H398 H 0.35688 0.08796 0.23264 0.0
C399 C 0.39881 1.01124 0.11999 0.0
C400 C 0.41547 0.04609 0.10238 0.0
H401 H 0.35834 0.97586 0.20284 0.0
H402 H 0.41102 0.9888 0.09477 0.0
C403 C 0.39801 0.07422 0.13659 0.0
C404 C 0.5718 0.38545 0.15 0.0
C405 C 0.54065 0.37252 0.20471 0.0
H406 H 0.59593 0.42598 0.03177 0.0
C407 C 0.50841 0.38952 0.17472 0.0
H408 H 0.59711 0.37353 0.17382 0.0
C409 C 0.50762 0.41991 0.09392 0.0
C410 C 0.53925 0.43427 0.04328 0.0
H411 H 0.48425 0.38068 0.21813 0.0
H412 H 0.4826 0.43308 0.07434 0.0
C413 C 0.57114 0.41603 0.07027 0.0
C414 C 0.1748 0.55309 0.06011 0.0
C415 C 0.18635 0.52261 0.12984 0.0
H416 H 0.13684 0.57444 0.94605 0.0
C417 C 0.17004 0.48839 0.12961 0.0
H418 H 0.18638 0.57985 0.06084 0.0
C419 C 0.14125 0.48516 0.06416 0.0
C420 C 0.128 0.51629 -3e-05 0.0
H421 H 0.17788 0.46471 0.18512 0.0
H422 H 0.12814 0.45881 0.06813 0.0
C423 C 0.14593 0.55001 -0.00392 0.0
C424 C 0.04401 0.84929 0.5461 0.0
C425 C 1.02003 0.83811 0.47669 0.0
H426 H 0.05593 0.88652 0.64409 0.0
C427 C 0.98652 0.85381 0.46404 0.0
H428 H 0.07031 0.83809 0.55555 0.0
C429 C 0.97851 0.8827 0.51179 0.0
C430 C 1.00387 0.89653 0.57369 0.0
H431 H 0.9679 0.84628 0.40891 0.0
H432 H 0.95331 0.89554 0.49405 0.0
C433 C 0.03594 0.87791 0.59477 0.0
C434 C 0.71432 0.03269 0.43033 0.0
C435 C 0.72806 1.00545 0.38399 0.0
H436 H 0.67214 0.04849 0.51775 0.0
C437 C 0.71314 0.97007 0.41068 0.0
H438 H 0.72477 0.06041 0.40905 0.0
C439 C 0.6824 0.96316 0.47197 0.0
C440 C 0.66591 0.99154 0.50782 0.0
H441 H 0.72273 0.94872 0.37447 0.0
H442 H 0.67044 0.93604 0.48572 0.0
C443 C 0.68354 0.02589 0.49126 0.0
C444 C 0.58162 0.65131 0.44046 0.0
C445 C 0.5492 0.66719 0.40668 0.0
H446 H 0.60752 0.60839 0.54322 0.0
C447 C 0.51768 0.65288 0.45732 0.0
H448 H 0.60614 0.6611 0.4001 0.0
C449 C 0.51824 0.6222 0.5367 0.0
C450 C 0.5504 0.60501 0.56739 0.0
H451 H 0.49226 0.66387 0.43046 0.0
H452 H 0.4932 0.61129 0.57184 0.0
C453 C 0.58228 0.62068 0.52077 0.0
C454 C 0.91439 0.48818 0.55703 0.0
C455 C 0.90103 0.51919 0.49327 0.0
H456 H 0.95364 0.4664 0.66635 0.0
C457 C 0.91558 0.55361 0.50006 0.0
H458 H 0.90411 0.46133 0.55157 0.0
C459 C 0.94449 0.55667 0.56543 0.0
C460 C 0.95953 0.52526 0.62344 0.0
H461 H 0.90632 0.57783 0.44947 0.0
H462 H 0.9562 0.58333 0.56639 0.0
C463 C 0.94327 0.49115 0.62114 0.0
loop_
_geom_bond_atom_site_label_1
_geom_bond_atom_site_label_2
_geom_bond_distance
_geom_bond_site_symmetry_2
_ccdc_geom_bond_type
H0 C7 0.929 . S
H1 C10 0.930 . S
H2 C12 0.929 . S
H3 C4 0.969 . S
C4 H3 0.969 . S
C4 O5 1.550 . S
C4 H6 0.973 . S
O5 C4 1.550 . S
O5 C11 1.412 . S
H6 C4 0.973 . S
C7 H0 0.929 . S
C7 C8 1.400 . S
C7 C9 1.364 . S
C8 C7 1.400 . S
C8 C12 1.377 . S
C9 C7 1.364 . S
C9 C10 1.374 . S
C10 H1 0.930 . S
C10 C9 1.374 . S
C10 C11 1.383 . S
C11 O5 1.412 . S
C11 C10 1.383 . S
C11 C12 1.394 . S
C12 H2 0.929 . S
C12 C8 1.377 . S
C12 C11 1.394 . S
H13 C20 0.929 . S
H14 C23 0.930 1_556 S
H15 C25 0.929 . S
H16 C17 0.969 . S
C17 H16 0.969 . S
C17 O18 1.550 . S
C17 H19 0.973 1_554 S
O18 C17 1.550 . S
O18 C24 1.412 . S
H19 C17 0.973 1_556 S
C20 H13 0.929 . S
C20 C21 1.400 . S
C20 C22 1.364 . S
C21 C20 1.400 . S
C21 C25 1.377 . S
C22 C20 1.364 . S
C22 C23 1.374 . S
C23 H14 0.930 1_554 S
C23 C22 1.374 . S
C23 C24 1.383 . S
C24 O18 1.412 . S
C24 C23 1.383 . S
C24 C25 1.394 . S
C25 H15 0.929 . S
C25 C21 1.377 . S
C25 C24 1.394 . S
H26 C33 0.929 1_565 S
H27 C36 0.932 . S
H28 C38 0.931 1_565 S
H29 C30 0.969 . S
C30 H29 0.969 . S
C30 O31 1.550 1_546 S
C30 H32 0.973 1_545 S
O31 C30 1.550 1_564 S
O31 C37 1.403 1_565 S
H32 C30 0.973 1_565 S
C33 H26 0.929 1_545 S
C33 C34 1.397 . S
C33 C35 1.365 1_554 S
C34 C33 1.397 . S
C34 C38 1.376 . S
C35 C33 1.365 1_556 S
C35 C36 1.374 1_545 S
C36 H27 0.932 . S
C36 C35 1.374 1_565 S
C36 C37 1.377 1_566 S
C37 O31 1.403 1_545 S
C37 C36 1.377 1_544 S
C37 C38 1.400 . S
C38 H28 0.931 1_545 S
C38 C34 1.376 . S
C38 C37 1.400 . S
H39 C46 0.929 . S
H40 C49 0.933 . S
H41 C51 0.929 . S
H42 C43 0.969 . S
C43 H42 0.969 . S
C43 O44 1.550 . S
C43 H45 0.973 1_554 S
O44 C43 1.550 . S
O44 C50 1.412 . S
H45 C43 0.973 1_556 S
C46 H39 0.929 . S
C46 C47 1.400 . S
C46 C48 1.364 . S
C47 C46 1.400 . S
C47 C51 1.377 . S
C48 C46 1.364 . S
C48 C49 1.374 . S
C49 H40 0.933 . S
C49 C48 1.374 . S
C49 C50 1.383 . S
C50 O44 1.412 . S
C50 C49 1.383 . S
C50 C51 1.394 . S
C51 H41 0.929 . S
C51 C47 1.377 . S
C51 C50 1.394 . S
H52 C59 0.929 . S
H53 C62 0.930 . S
H54 C64 0.929 . S
H55 C56 0.969 . S
C56 H55 0.969 . S
C56 O57 1.550 . S
C56 H58 0.973 . S
O57 C56 1.550 . S
O57 C63 1.412 . S
H58 C56 0.973 . S
C59 H52 0.929 . S
C59 C60 1.400 . S
C59 C61 1.364 . S
C60 C59 1.400 . S
C60 C64 1.377 . S
C61 C59 1.364 . S
C61 C62 1.374 . S
C62 H53 0.930 . S
C62 C61 1.374 . S
C62 C63 1.383 . S
C63 O57 1.412 . S
C63 C62 1.383 . S
C63 C64 1.394 . S
C64 H54 0.929 . S
C64 C60 1.377 . S
C64 C63 1.394 . S
H65 C72 0.929 . S
H66 C75 0.930 . S
H67 C77 0.929 . S
H68 C69 0.969 . S
C69 H68 0.969 . S
C69 O70 1.550 . S
C69 H71 0.973 . S
O70 C69 1.550 . S
O70 C76 1.412 . S
H71 C69 0.973 . S
C72 H65 0.929 . S
C72 C73 1.400 . S
C72 C74 1.364 . S
C73 C72 1.400 . S
C73 C77 1.377 . S
C74 C72 1.364 . S
C74 C75 1.374 . S
C75 H66 0.930 . S
C75 C74 1.374 . S
C75 C76 1.383 . S
C76 O70 1.412 . S
C76 C75 1.383 . S
C76 C77 1.394 . S
C77 H67 0.929 . S
C77 C73 1.377 . S
C77 C76 1.394 . S
H78 C85 0.928 1_565 S
H79 C88 0.930 . S
H80 C90 0.925 1_565 S
H81 C82 0.969 . S
C82 H81 0.969 . S
C82 O83 1.550 1_545 S
C82 H84 0.973 1_545 S
O83 C82 1.550 1_565 S
O83 C89 1.412 1_565 S
H84 C82 0.973 1_565 S
C85 H78 0.928 1_545 S
C85 C86 1.402 . S
C85 C87 1.363 . S
C86 C85 1.402 . S
C86 C90 1.378 . S
C87 C85 1.363 . S
C87 C88 1.375 1_545 S
C88 H79 0.930 . S
C88 C87 1.375 1_565 S
C88 C89 1.383 1_565 S
C89 O83 1.412 1_545 S
C89 C88 1.383 1_545 S
C89 C90 1.396 . S
C90 H80 0.925 1_545 S
C90 C86 1.378 . S
C90 C89 1.396 . S
H91 C98 0.929 . S
H92 C101 0.930 . S
H93 C103 0.929 . S
H94 C95 0.969 . S
C95 H94 0.969 . S
C95 O96 1.550 . S
C95 H97 0.973 . S
O96 C95 1.550 . S
O96 C102 1.412 . S
H97 C95 0.973 . S
C98 H91 0.929 . S
C98 C99 1.400 . S
C98 C100 1.364 . S
C99 C98 1.400 . S
C99 C103 1.377 . S
C100 C98 1.364 . S
C100 C101 1.374 . S
C101 H92 0.930 . S
C101 C100 1.374 . S
C101 C102 1.383 . S
C102 O96 1.412 . S
C102 C101 1.383 . S
C102 C103 1.394 . S
C103 H93 0.929 . S
C103 C99 1.377 . S
C103 C102 1.394 . S
Co104 N109 2.057 1_556 S
Co104 O121 2.021 . S
Co104 O124 2.062 . S
Co104 O128 2.117 1_455 S
Co104 O129 2.020 1_545 S
C105 O125 1.259 1_545 S
C105 O128 1.258 . S
Co106 N115 2.057 . S
Co106 O122 2.117 . S
Co106 O123 2.020 1_565 S
Co106 O125 2.021 1_455 S
Co106 O130 2.062 . S
C107 N109 1.316 . S
C107 N110 1.347 . S
C107 H112 0.931 . S
C108 N109 1.375 . S
C108 C111 1.350 . S
C108 H113 0.930 1_455 S
N109 Co104 2.057 1_554 S
N109 C107 1.316 . S
N109 C108 1.375 . S
N110 C107 1.347 . S
N110 C111 1.373 . S
C111 C108 1.350 . S
C111 N110 1.373 . S
C111 H132 0.951 . S
H112 C107 0.931 . S
H113 C108 0.930 1_655 S
C114 O121 1.259 1_565 S
C114 O122 1.258 . S
N115 Co106 2.057 . S
N115 C116 1.316 1_455 S
N115 C117 1.375 . S
C116 N115 1.316 1_655 S
C116 N118 1.347 . S
C116 H127 0.931 . S
C117 N115 1.375 . S
C117 C119 1.350 . S
C117 H126 0.930 . S
N118 C116 1.347 . S
N118 C119 1.373 1_655 S
C119 C117 1.350 . S
C119 N118 1.373 1_455 S
C119 H133 0.931 . S
C120 O123 1.256 . S
C120 O124 1.255 . S
O121 Co104 2.021 . S
O121 C114 1.259 1_545 S
O122 Co106 2.117 . S
O122 C114 1.258 . S
O123 Co106 2.020 1_545 S
O123 C120 1.256 . S
O124 Co104 2.062 . S
O124 C120 1.255 . S
O125 C105 1.259 1_565 S
O125 Co106 2.021 1_655 S
H126 C117 0.930 . S
H127 C116 0.931 . S
O128 Co104 2.117 1_655 S
O128 C105 1.258 . S
O129 Co104 2.020 1_565 S
O129 C131 1.256 . S
O130 Co106 2.062 . S
O130 C131 1.255 . S
C131 O129 1.256 . S
C131 O130 1.255 . S
H132 C111 0.951 . S
H133 C119 0.931 . S
Co134 N139 2.057 1_546 S
Co134 O151 2.021 . S
Co134 O154 2.062 . S
Co134 O158 2.117 1_545 S
Co134 O159 2.020 . S
C135 O155 1.259 . S
C135 O158 1.258 . S
Co136 N145 2.057 1_565 S
Co136 O152 2.117 1_565 S
Co136 O153 2.020 . S
Co136 O155 2.021 . S
Co136 O160 2.062 . S
C137 N139 1.316 1_545 S
C137 N140 1.347 . S
C137 H142 0.931 . S
C138 N139 1.375 . S
C138 C141 1.350 . S
C138 H143 0.930 . S
N139 Co134 2.057 1_564 S
N139 C137 1.316 1_565 S
N139 C138 1.375 . S
N140 C137 1.347 . S
N140 C141 1.373 1_545 S
C141 C138 1.350 . S
C141 N140 1.373 1_565 S
C141 H162 0.931 . S
H142 C137 0.931 . S
H143 C138 0.930 . S
C144 O151 1.259 . S
C144 O152 1.258 . S
N145 Co136 2.057 1_545 S
N145 C146 1.316 1_545 S
N145 C147 1.375 . S
C146 N145 1.316 1_565 S
C146 N148 1.347 . S
C146 H157 0.931 . S
C147 N145 1.375 . S
C147 C149 1.350 . S
C147 H156 0.930 . S
N148 C146 1.347 . S
N148 C149 1.373 1_565 S
C149 C147 1.350 . S
C149 N148 1.373 1_545 S
C149 H163 0.931 . S
C150 O153 1.256 . S
C150 O154 1.255 1_565 S
O151 Co134 2.021 . S
O151 C144 1.259 . S
O152 Co136 2.117 1_545 S
O152 C144 1.258 . S
O153 Co136 2.020 . S
O153 C150 1.256 . S
O154 Co134 2.062 . S
O154 C150 1.255 1_545 S
O155 C135 1.259 . S
O155 Co136 2.021 . S
H156 C147 0.930 . S
H157 C146 0.931 . S
O158 Co134 2.117 1_565 S
O158 C135 1.258 . S
O159 Co134 2.020 . S
O159 C161 1.256 . S
O160 Co136 2.062 . S
O160 C161 1.255 1_565 S
C161 O159 1.256 . S
C161 O160 1.255 1_545 S
H162 C141 0.931 . S
H163 C149 0.931 . S
Co164 N169 2.057 . S
Co164 O181 2.021 . S
Co164 O184 2.062 . S
Co164 O188 2.117 . S
Co164 O189 2.020 . S
C165 O185 1.259 . S
C165 O188 1.258 . S
Co166 N175 2.057 . S
Co166 O182 2.117 . S
Co166 O183 2.020 . S
Co166 O185 2.021 . S
Co166 O190 2.062 . S
C167 N169 1.316 . S
C167 N170 1.347 . S
C167 H172 0.931 . S
C168 N169 1.375 . S
C168 C171 1.350 1_556 S
C168 H173 0.930 1_556 S
N169 Co164 2.057 . S
N169 C167 1.316 . S
N169 C168 1.375 . S
N170 C167 1.347 . S
N170 C171 1.373 1_556 S
C171 C168 1.350 1_554 S
C171 N170 1.373 1_554 S
C171 H192 0.931 . S
H172 C167 0.931 . S
H173 C168 0.930 1_554 S
C174 O181 1.259 . S
C174 O182 1.258 . S
N175 Co166 2.057 . S
N175 C176 1.316 . S
N175 C177 1.375 . S
C176 N175 1.316 . S
C176 N178 1.347 . S
C176 H187 0.931 . S
C177 N175 1.375 . S
C177 C179 1.350 . S
C177 H186 0.930 . S
N178 C176 1.347 . S
N178 C179 1.373 . S
C179 C177 1.350 . S
C179 N178 1.373 . S
C179 H193 0.931 . S
C180 O183 1.256 . S
C180 O184 1.255 . S
O181 Co164 2.021 . S
O181 C174 1.259 . S
O182 Co166 2.117 . S
O182 C174 1.258 . S
O183 Co166 2.020 . S
O183 C180 1.256 . S
O184 Co164 2.062 . S
O184 C180 1.255 . S
O185 C165 1.259 . S
O185 Co166 2.021 . S
H186 C177 0.930 . S
H187 C176 0.931 . S
O188 Co164 2.117 . S
O188 C165 1.258 . S
O189 Co164 2.020 . S
O189 C191 1.256 . S
O190 Co166 2.062 . S
O190 C191 1.255 . S
C191 O189 1.256 . S
C191 O190 1.255 . S
H192 C171 0.931 . S
H193 C179 0.931 . S
Co194 N199 2.057 . S
Co194 O211 2.021 1_455 S
Co194 O214 2.062 1_455 S
Co194 O218 2.117 . S
Co194 O219 2.020 . S
C195 O215 1.259 . S
C195 O218 1.258 . S
Co196 N205 2.057 . S
Co196 O212 2.117 1_455 S
Co196 O213 2.020 1_455 S
Co196 O215 2.021 . S
Co196 O220 2.062 . S
C197 N199 1.316 . S
C197 N200 1.347 . S
C197 H202 0.931 1_455 S
C198 N199 1.375 . S
C198 C201 1.350 . S
C198 H203 0.930 . S
N199 Co194 2.057 . S
N199 C197 1.316 . S
N199 C198 1.375 . S
N200 C197 1.347 . S
N200 C201 1.373 . S
C201 C198 1.350 . S
C201 N200 1.373 . S
C201 H222 0.931 . S
H202 C197 0.931 1_655 S
H203 C198 0.930 . S
C204 O211 1.259 . S
C204 O212 1.258 . S
N205 Co196 2.057 . S
N205 C206 1.316 . S
N205 C207 1.375 1_455 S
C206 N205 1.316 . S
C206 N208 1.347 . S
C206 H217 0.931 . S
C207 N205 1.375 1_655 S
C207 C209 1.350 1_655 S
C207 H216 0.930 . S
N208 C206 1.347 . S
N208 C209 1.373 . S
C209 C207 1.350 1_455 S
C209 N208 1.373 . S
C209 H223 0.931 1_455 S
C210 O213 1.256 . S
C210 O214 1.255 . S
O211 Co194 2.021 1_655 S
O211 C204 1.259 . S
O212 Co196 2.117 1_655 S
O212 C204 1.258 . S
O213 Co196 2.020 1_655 S
O213 C210 1.256 . S
O214 Co194 2.062 1_655 S
O214 C210 1.255 . S
O215 C195 1.259 . S
O215 Co196 2.021 . S
H216 C207 0.930 . S
H217 C206 0.931 . S
O218 Co194 2.117 . S
O218 C195 1.258 . S
O219 Co194 2.020 . S
O219 C221 1.256 . S
O220 Co196 2.062 . S
O220 C221 1.255 . S
C221 O219 1.256 . S
C221 O220 1.255 . S
H222 C201 0.931 . S
H223 C209 0.931 1_655 S
C224 C225 1.387 1_545 S
C224 H228 0.950 . S
C224 C233 1.390 . S
C225 C224 1.387 1_565 S
C225 C227 1.387 . S
H226 C233 0.950 . S
C227 C225 1.387 . S
C227 C229 1.390 . S
C227 H231 0.950 . S
H228 C224 0.950 . S
C229 C227 1.390 . S
C229 C230 1.387 . S
C229 H232 0.950 . S
C230 C229 1.387 . S
C230 C233 1.387 1_565 S
H231 C227 0.950 . S
H232 C229 0.950 . S
C233 C224 1.390 . S
C233 H226 0.950 . S
C233 C230 1.387 1_545 S
C234 C235 1.387 . S
C234 H238 0.950 . S
C234 C243 1.390 . S
C235 C234 1.387 . S
C235 C237 1.387 . S
H236 C243 0.950 . S
C237 C235 1.387 . S
C237 C239 1.390 . S
C237 H241 0.950 . S
H238 C234 0.950 . S
C239 C237 1.390 . S
C239 C240 1.387 . S
C239 H242 0.950 . S
C240 C239 1.387 . S
C240 C243 1.387 . S
H241 C237 0.950 . S
H242 C239 0.950 . S
C243 C234 1.390 . S
C243 H236 0.950 . S
C243 C240 1.387 . S
C244 C245 1.387 . S
C244 H248 0.950 . S
C244 C253 1.390 . S
C245 C244 1.387 . S
C245 C247 1.387 . S
H246 C253 0.950 . S
C247 C245 1.387 . S
C247 C249 1.390 . S
C247 H251 0.950 . S
H248 C244 0.950 . S
C249 C247 1.390 . S
C249 C250 1.387 . S
C249 H252 0.950 . S
C250 C249 1.387 . S
C250 C253 1.387 . S
H251 C247 0.950 . S
H252 C249 0.950 . S
C253 C244 1.390 . S
C253 H246 0.950 . S
C253 C250 1.387 . S
C254 C255 1.387 . S
C254 H258 0.950 . S
C254 C263 1.390 . S
C255 C254 1.387 . S
C255 C257 1.387 . S
H256 C263 0.950 . S
C257 C255 1.387 . S
C257 C259 1.390 . S
C257 H261 0.950 . S
H258 C254 0.950 . S
C259 C257 1.390 . S
C259 C260 1.387 . S
C259 H262 0.950 . S
C260 C259 1.387 . S
C260 C263 1.387 . S
H261 C257 0.950 . S
H262 C259 0.950 . S
C263 C254 1.390 . S
C263 H256 0.950 . S
C263 C260 1.387 . S
C264 C265 1.387 . S
C264 H268 0.950 . S
C264 C273 1.390 . S
C265 C264 1.387 . S
C265 C267 1.387 1_545 S
H266 C273 0.950 . S
C267 C265 1.387 1_565 S
C267 C269 1.390 . S
C267 H271 0.950 . S
H268 C264 0.950 . S
C269 C267 1.390 . S
C269 C270 1.387 1_565 S
C269 H272 0.950 . S
C270 C269 1.387 1_545 S
C270 C273 1.387 . S
H271 C267 0.950 . S
H272 C269 0.950 . S
C273 C264 1.390 . S
C273 H266 0.950 . S
C273 C270 1.387 . S
C274 C275 1.387 1_556 S
C274 H278 0.950 . S
C274 C283 1.390 . S
C275 C274 1.387 1_554 S
C275 C277 1.387 . S
H276 C283 0.950 . S
C277 C275 1.387 . S
C277 C279 1.390 1_554 S
C277 H281 0.950 . S
H278 C274 0.950 . S
C279 C277 1.390 1_556 S
C279 C280 1.387 . S
C279 H282 0.950 1_556 S
C280 C279 1.387 . S
C280 C283 1.387 . S
H281 C277 0.950 . S
H282 C279 0.950 1_554 S
C283 C274 1.390 . S
C283 H276 0.950 . S
C283 C280 1.387 . S
C284 C285 1.387 . S
C284 H288 0.950 . S
C284 C293 1.390 . S
C285 C284 1.387 . S
C285 C287 1.387 . S
H286 C293 0.950 . S
C287 C285 1.387 . S
C287 C289 1.390 1_554 S
C287 H291 0.950 . S
H288 C284 0.950 . S
C289 C287 1.390 1_556 S
C289 C290 1.387 . S
C289 H292 0.950 . S
C290 C289 1.387 . S
C290 C293 1.387 1_556 S
H291 C287 0.950 . S
H292 C289 0.950 . S
C293 C284 1.390 . S
C293 H286 0.950 . S
C293 C290 1.387 1_554 S
C294 C295 1.387 1_556 S
C294 H298 0.950 . S
C294 C303 1.390 . S
C295 C294 1.387 1_554 S
C295 C297 1.387 1_654 S
H296 C303 0.950 . S
C297 C295 1.387 1_456 S
C297 C299 1.390 . S
C297 H301 0.950 1_556 S
H298 C294 0.950 . S
C299 C297 1.390 . S
C299 C300 1.387 1_455 S
C299 H302 0.950 . S
C300 C299 1.387 1_655 S
C300 C303 1.387 . S
H301 C297 0.950 1_554 S
H302 C299 0.950 . S
C303 C294 1.390 . S
C303 H296 0.950 . S
C303 C300 1.387 . S
C304 C305 1.387 . S
C304 H308 0.950 . S
C304 C313 1.390 . S
C305 C304 1.387 . S
C305 C307 1.387 . S
H306 C313 0.950 . S
C307 C305 1.387 . S
C307 C309 1.390 . S
C307 H311 0.950 . S
H308 C304 0.950 . S
C309 C307 1.390 . S
C309 C310 1.387 . S
C309 H312 0.950 . S
C310 C309 1.387 . S
C310 C313 1.387 . S
H311 C307 0.950 . S
H312 C309 0.950 . S
C313 C304 1.390 . S
C313 H306 0.950 . S
C313 C310 1.387 . S
C314 C315 1.401 . S
C314 H318 0.950 . S
C314 C323 1.390 . S
C315 C314 1.401 . S
C315 C317 1.377 1_565 S
H316 C323 0.950 . S
C317 C315 1.377 1_545 S
C317 C319 1.390 . S
C317 H321 0.950 . S
H318 C314 0.950 . S
C319 C317 1.390 . S
C319 C320 1.387 1_545 S
C319 H322 0.950 . S
C320 C319 1.387 1_565 S
C320 C323 1.387 . S
H321 C317 0.950 . S
H322 C319 0.950 . S
C323 C314 1.390 . S
C323 H316 0.950 . S
C323 C320 1.387 . S
C324 C325 1.387 . S
C324 H328 0.950 . S
C324 C333 1.390 . S
C325 C324 1.387 . S
C325 C327 1.387 . S
H326 C333 0.950 . S
C327 C325 1.387 . S
C327 C329 1.390 . S
C327 H331 0.950 . S
H328 C324 0.950 . S
C329 C327 1.390 . S
C329 C330 1.387 . S
C329 H332 0.950 . S
C330 C329 1.387 . S
C330 C333 1.387 . S
H331 C327 0.950 . S
H332 C329 0.950 . S
C333 C324 1.390 . S
C333 H326 0.950 . S
C333 C330 1.387 . S
C334 C335 1.387 . S
C334 H338 0.950 . S
C334 C343 1.390 . S
C335 C334 1.387 . S
C335 C337 1.387 . S
H336 C343 0.950 . S
C337 C335 1.387 . S
C337 C339 1.390 . S
C337 H341 0.950 . S
H338 C334 0.950 . S
C339 C337 1.390 . S
C339 C340 1.387 . S
C339 H342 0.950 . S
C340 C339 1.387 . S
C340 C343 1.387 . S
H341 C337 0.950 . S
H342 C339 0.950 . S
C343 C334 1.390 . S
C343 H336 0.950 . S
C343 C340 1.387 . S
C344 C345 1.387 . S
C344 H348 0.950 . S
C344 C353 1.390 . S
C345 C344 1.387 . S
C345 C347 1.387 1_556 S
H346 C353 0.950 . S
C347 C345 1.387 1_554 S
C347 C349 1.390 1_654 S
C347 H351 0.945 1_655 S
H348 C344 0.950 . S
C349 C347 1.390 1_456 S
C349 C350 1.387 . S
C349 H352 0.950 1_556 S
C350 C349 1.387 . S
C350 C353 1.387 1_455 S
H351 C347 0.945 1_455 S
H352 C349 0.950 1_554 S
C353 C344 1.390 . S
C353 H346 0.950 . S
C353 C350 1.387 1_655 S
C354 C355 1.403 1_554 S
C354 H358 0.950 . S
C354 C363 1.390 1_554 S
C355 C354 1.403 1_556 S
C355 C357 1.374 1_545 S
H356 C363 0.950 1_554 S
C357 C355 1.374 1_565 S
C357 C359 1.390 . S
C357 H361 0.950 . S
H358 C354 0.950 . S
C359 C357 1.390 . S
C359 C360 1.387 1_565 S
C359 H362 0.950 . S
C360 C359 1.387 1_545 S
C360 C363 1.387 . S
H361 C357 0.950 . S
H362 C359 0.950 . S
C363 C354 1.390 1_556 S
C363 H356 0.950 1_556 S
C363 C360 1.387 . S
C364 C365 1.387 1_556 S
C364 H368 0.950 . S
C364 C373 1.390 . S
C365 C364 1.387 1_554 S
C365 C367 1.387 . S
H366 C373 0.950 . S
C367 C365 1.387 . S
C367 C369 1.390 . S
C367 H371 0.950 . S
H368 C364 0.950 . S
C369 C367 1.390 . S
C369 C370 1.387 1_554 S
C369 H372 0.950 . S
C370 C369 1.387 1_556 S
C370 C373 1.387 . S
H371 C367 0.950 . S
H372 C369 0.950 . S
C373 C364 1.390 . S
C373 H366 0.950 . S
C373 C370 1.387 . S
C374 C375 1.387 . S
C374 H378 0.950 1_554 S
C374 C383 1.390 1_554 S
C375 C374 1.387 . S
C375 C377 1.387 . S
H376 C383 0.950 . S
C377 C375 1.387 . S
C377 C379 1.390 . S
C377 H381 0.950 . S
H378 C374 0.950 1_556 S
C379 C377 1.390 . S
C379 C380 1.387 1_554 S
C379 H382 0.950 . S
C380 C379 1.387 1_556 S
C380 C383 1.387 . S
H381 C377 0.950 . S
H382 C379 0.950 . S
C383 C374 1.390 1_556 S
C383 H376 0.950 . S
C383 C380 1.387 . S
C384 C385 1.387 . S
C384 H388 0.950 . S
C384 C393 1.390 . S
C385 C384 1.387 . S
C385 C387 1.387 . S
H386 C393 0.950 . S
C387 C385 1.387 . S
C387 C389 1.390 . S
C387 H391 0.950 . S
H388 C384 0.950 . S
C389 C387 1.390 . S
C389 C390 1.387 . S
C389 H392 0.950 . S
C390 C389 1.387 . S
C390 C393 1.387 . S
H391 C387 0.950 . S
H392 C389 0.950 . S
C393 C384 1.390 . S
C393 H386 0.950 . S
C393 C390 1.387 . S
C394 C395 1.387 . S
C394 H398 0.950 . S
C394 C403 1.390 . S
C395 C394 1.387 . S
C395 C397 1.387 1_545 S
H396 C403 0.950 . S
C397 C395 1.387 1_565 S
C397 C399 1.390 . S
C397 H401 0.950 . S
H398 C394 0.950 . S
C399 C397 1.390 . S
C399 C400 1.387 1_565 S
C399 H402 0.950 . S
C400 C399 1.387 1_545 S
C400 C403 1.387 . S
H401 C397 0.950 . S
H402 C399 0.950 . S
C403 C394 1.390 . S
C403 H396 0.950 . S
C403 C400 1.387 . S
C404 C405 1.387 . S
C404 H408 0.950 . S
C404 C413 1.390 . S
C405 C404 1.387 . S
C405 C407 1.387 . S
H406 C413 0.950 . S
C407 C405 1.387 . S
C407 C409 1.390 . S
C407 H411 0.950 . S
H408 C404 0.950 . S
C409 C407 1.390 . S
C409 C410 1.387 . S
C409 H412 0.950 . S
C410 C409 1.387 . S
C410 C413 1.387 . S
H411 C407 0.950 . S
H412 C409 0.950 . S
C413 C404 1.390 . S
C413 H406 0.950 . S
C413 C410 1.387 . S
C414 C415 1.387 . S
C414 H418 0.950 . S
C414 C423 1.390 . S
C415 C414 1.387 . S
C415 C417 1.387 . S
H416 C423 0.950 . S
C417 C415 1.387 . S
C417 C419 1.390 . S
C417 H421 0.950 . S
H418 C414 0.950 . S
C419 C417 1.390 . S
C419 C420 1.387 . S
C419 H422 0.950 . S
C420 C419 1.387 . S
C420 C423 1.387 . S
H421 C417 0.950 . S
H422 C419 0.950 . S
C423 C414 1.390 . S
C423 H416 0.950 . S
C423 C420 1.387 . S
C424 C425 1.387 . S
C424 H428 0.950 1_655 S
C424 C433 1.390 1_655 S
C425 C424 1.387 . S
C425 C427 1.387 . S
H426 C433 0.950 . S
C427 C425 1.387 . S
C427 C429 1.390 . S
C427 H431 0.950 . S
H428 C424 0.950 1_455 S
C429 C427 1.390 . S
C429 C430 1.387 . S
C429 H432 0.950 . S
C430 C429 1.387 . S
C430 C433 1.387 1_655 S
H431 C427 0.950 . S
H432 C429 0.950 . S
C433 C424 1.390 1_455 S
C433 H426 0.950 . S
C433 C430 1.387 1_455 S
C434 C435 1.387 1_545 S
C434 H438 0.950 . S
C434 C443 1.390 . S
C435 C434 1.387 1_565 S
C435 C437 1.387 . S
H436 C443 0.950 . S
C437 C435 1.387 . S
C437 C439 1.390 . S
C437 H441 0.950 . S
H438 C434 0.950 . S
C439 C437 1.390 . S
C439 C440 1.387 . S
C439 H442 0.950 . S
C440 C439 1.387 . S
C440 C443 1.387 1_565 S
H441 C437 0.950 . S
H442 C439 0.950 . S
C443 C434 1.390 . S
C443 H436 0.950 . S
C443 C440 1.387 1_545 S
C444 C445 1.387 . S
C444 H448 0.950 . S
C444 C453 1.390 . S
C445 C444 1.387 . S
C445 C447 1.387 . S
H446 C453 0.950 . S
C447 C445 1.387 . S
C447 C449 1.390 . S
C447 H451 0.950 . S
H448 C444 0.950 . S
C449 C447 1.390 . S
C449 C450 1.387 . S
C449 H452 0.950 . S
C450 C449 1.387 . S
C450 C453 1.387 . S
H451 C447 0.950 . S
H452 C449 0.950 . S
C453 C444 1.390 . S
C453 H446 0.950 . S
C453 C450 1.387 . S
C454 C455 1.387 . S
C454 H458 0.950 . S
C454 C463 1.390 . S
C455 C454 1.387 . S
C455 C457 1.387 . S
H456 C463 0.950 . S
C457 C455 1.387 . S
C457 C459 1.390 . S
C457 H461 0.950 . S
H458 C454 0.950 . S
C459 C457 1.390 . S
C459 C460 1.387 . S
C459 H462 0.950 . S
C460 C459 1.387 . S
C460 C463 1.387 . S
H461 C457 0.950 . S
H462 C459 0.950 . S
C463 C454 1.390 . S
C463 H456 0.950 . S
C463 C460 1.387 . S
C225 C82 1.654 1_565 S
C230 C114 1.718 . S
C240 C144 1.799 . S
C235 C95 1.730 . S
C250 N178 1.374 . S
C245 C56 1.310 . S
C260 N208 1.479 . S
C255 C69 1.420 . S
C270 C105 1.718 . S
C265 C30 1.633 . S
C275 C43 1.689 . S
C280 C135 1.803 . S
C285 C4 1.290 . S
C290 N170 1.374 . S
C295 C17 1.327 . S
C300 N200 1.481 1_655 S
C310 C120 0.733 . S
C305 C74 0.736 . S
C320 C150 1.114 . S
C315 C87 1.048 1_565 S
C330 C191 1.372 . S
C325 C100 1.336 . S
C335 C61 0.859 . S
C340 C221 0.859 . S
C345 C22 0.745 1_556 S
C350 C131 0.741 . S
C360 C161 1.113 . S
C355 C35 1.043 . S
C370 C180 1.370 . S
C365 C48 1.330 . S
C375 C9 0.858 . S
C380 C210 0.857 . S
C385 C73 1.466 . S
C390 N110 1.486 . S
C395 C86 1.429 . S
C400 N140 1.439 . S
C410 C165 1.666 1_554 S
C405 C99 1.636 . S
C420 C195 1.595 1_554 S
C415 C60 1.565 . S
C425 C21 1.463 . S
C430 N118 1.492 . S
C440 N148 1.439 . S
C435 C34 1.437 1_565 S
C450 C174 1.666 . S
C445 C47 1.634 . S
C455 C8 1.567 . S
C460 C204 1.595 . S
