# Generated by pormake.
# Topology rtl, (3,6)-cn, num edge types: 1
# Building blocks:
#     Node 0, Type 0, BuildingBlock: VETTIZ_charged_linker_0, # of connection points: 3
#     Node 1, Type 0, BuildingBlock: VETTIZ_charged_linker_0, # of connection points: 3
#     Node 2, Type 0, BuildingBlock: VETTIZ_charged_linker_0, # of connection points: 3
#     Node 3, Type 0, BuildingBlock: VETTIZ_charged_linker_0, # of connection points: 3
#     Node 4, Type 1, BuildingBlock: LEVNOQ01_clean_sbu_1, # of connection points: 6
#     Node 5, Type 1, BuildingBlock: LEVNOQ01_clean_sbu_1, # of connection points: 6
#     Edge 6, Type (0, 1), BuildingBlock: OJICUG_clean_linker_0, # of connection points: 2
#     Edge 7, Type (0, 1), BuildingBlock: OJICUG_clean_linker_0, # of connection points: 2
#     Edge 8, Type (0, 1), BuildingBlock: OJICUG_clean_linker_0, # of connection points: 2
#     Edge 9, Type (0, 1), BuildingBlock: OJICUG_clean_linker_0, # of connection points: 2
#     Edge 10, Type (0, 1), BuildingBlock: OJICUG_clean_linker_0, # of connection points: 2
#     Edge 11, Type (0, 1), BuildingBlock: OJICUG_clean_linker_0, # of connection points: 2
#     Edge 12, Type (0, 1), BuildingBlock: OJICUG_clean_linker_0, # of connection points: 2
#     Edge 13, Type (0, 1), BuildingBlock: OJICUG_clean_linker_0, # of connection points: 2
#     Edge 14, Type (0, 1), BuildingBlock: OJICUG_clean_linker_0, # of connection points: 2
#     Edge 15, Type (0, 1), BuildingBlock: OJICUG_clean_linker_0, # of connection points: 2
#     Edge 16, Type (0, 1), BuildingBlock: OJICUG_clean_linker_0, # of connection points: 2
#     Edge 17, Type (0, 1), BuildingBlock: OJICUG_clean_linker_0, # of connection points: 2
# Relax obj value: 0.027
# Max RMSD: 0.061
# Mean RMSD: 0.047
data_MOF--net-rtl--node1-LEVNOQ01_clean_sbu_1--node2-VETTIZ_charged_linker_0--edge1-OJICUG_clean_linker_0
_symmetry_space_group_name_H-M    P1
_symmetry_Int_Tables_number       1
_symmetry_cell_setting            triclinic
loop_
_symmetry_equiv_pos_as_xyz
'x, y, z'
_cell_length_a     28.878444
_cell_length_b     32.444211
_cell_length_c     23.058642
_cell_angle_alpha  89.918939
_cell_angle_beta   98.348278
_cell_angle_gamma 90.522018
loop_
_atom_site_label
_atom_site_type_symbol
_atom_site_fract_x
_atom_site_fract_y
_atom_site_fract_z
_atom_type_partial_charge
C0 C 0.18976 0.91694 0.90579 0.0
C1 C 0.17232 0.95705 0.8949 0.0
C2 C 0.17305 0.98456 0.94234 0.0
C3 C 0.20671 0.93227 0.00994 0.0
C4 C 0.20714 0.90538 0.96361 0.0
C5 C 0.22798 0.86443 0.98372 0.0
H6 H 0.34109 0.7485 0.2042 0.0
C7 C 0.22531 0.91066 0.06457 0.0
C8 C 0.23822 0.87094 0.04979 0.0
H9 H 0.30961 0.71855 0.02013 0.0
H10 H 0.26488 0.78074 1.00214 0.0
H11 H 0.35865 0.84812 0.19633 0.0
H12 H 0.23785 0.77385 0.21399 0.0
H13 H 0.22519 0.82281 0.23997 0.0
H14 H 0.27421 0.79424 0.27704 0.0
H15 H 0.35158 0.81498 0.25711 0.0
H16 H 0.32971 0.86661 0.254 0.0
C17 C 0.2733 0.85896 0.95604 0.0
C18 C 0.19045 0.83039 0.96705 0.0
C19 C 0.2091 0.97705 0.25807 0.0
C20 C 0.20865 0.95967 0.31384 0.0
C21 C 0.23163 0.92186 0.32699 0.0
C22 C 0.24987 0.89973 0.28319 0.0
C23 C 0.24402 0.91512 0.22558 0.0
C24 C 0.22477 0.95364 0.21416 0.0
C25 C 0.21466 0.96274 0.14971 0.0
C26 C 0.22953 0.92282 0.12417 0.0
C27 C 0.24776 0.89542 0.16866 0.0
C28 C 0.24627 0.99942 0.13657 0.0
C29 C 0.16121 0.9703 0.13346 0.0
C30 C 0.32399 0.75536 0.16034 0.0
C31 C 0.32894 0.72893 0.11345 0.0
C32 C 0.30586 0.73834 0.05694 0.0
C33 C 0.28052 0.77477 0.0464 0.0
C34 C 0.27789 0.80205 0.09292 0.0
C35 C 0.29769 0.79144 0.1492 0.0
C36 C 0.28753 0.82282 0.19368 0.0
C37 C 0.26279 0.85575 0.15391 0.0
C38 C 0.25741 0.84341 0.09488 0.0
C39 C 0.3343 0.83905 0.22743 0.0
C40 C 0.25474 0.80257 0.23353 0.0
H41 H 0.18945 0.99494 0.03334 0.0
H42 H 0.19019 0.89524 0.87022 0.0
H43 H 0.15484 0.84202 0.97062 0.0
H44 H 0.19495 0.80353 0.99676 0.0
H45 H 0.19034 0.81979 0.92124 0.0
H46 H 0.29275 0.88871 0.95575 0.0
H47 H 0.26515 0.84815 0.90997 0.0
H48 H 0.29832 0.83757 0.98067 0.0
H49 H 0.19245 0.00635 0.24675 0.0
H50 H 0.23212 0.9077 0.36963 0.0
H51 H 0.26535 0.87042 0.29495 0.0
H52 H 0.28091 0.99823 0.16484 0.0
H53 H 0.23004 0.02934 0.1449 0.0
H54 H 0.25451 0.99906 0.09123 0.0
H55 H 0.14081 0.95212 0.16216 0.0
H56 H 0.14694 0.96011 0.08874 0.0
H57 H 0.15268 0.0033 0.13839 0.0
H58 H 0.15924 0.0154 0.9355 0.0
C59 C 0.19034 0.97252 0.99943 0.0
C60 C 0.74734 0.59545 0.79952 0.0
C61 C 0.71176 0.56635 0.80542 0.0
C62 C 0.69023 0.5454 0.7548 0.0
C63 C 0.7343 0.58667 0.69383 0.0
C64 C 0.75757 0.60545 0.74357 0.0
C65 C 0.78998 0.63935 0.72914 0.0
H66 H 0.87432 0.75603 0.52372 0.0
C67 C 0.749 0.6073 0.64217 0.0
C68 C 0.78185 0.63809 0.6626 0.0
H69 H 0.9066 0.76746 0.71193 0.0
H70 H 0.85612 0.7088 0.724 0.0
H71 H 0.87742 0.65628 0.51725 0.0
H72 H 0.76616 0.74306 0.5219 0.0
H73 H 0.74466 0.70457 0.47151 0.0
H74 H 0.7939 0.73582 0.45794 0.0
H75 H 0.85621 0.68855 0.456 0.0
H76 H 0.82951 0.63918 0.46694 0.0
C77 C 0.84062 0.62725 0.75435 0.0
C78 C 0.7736 0.68053 0.75323 0.0
C79 C 0.67089 0.56822 0.43725 0.0
C80 C 0.67604 0.58252 0.38079 0.0
C81 C 0.70976 0.61351 0.3754 0.0
C82 C 0.7374 0.63013 0.4251 0.0
C83 C 0.73138 0.61578 0.48113 0.0
C84 C 0.69887 0.58504 0.48641 0.0
C85 C 0.69744 0.57335 0.54933 0.0
C86 C 0.73425 0.60235 0.581 0.0
C87 C 0.75373 0.62734 0.54087 0.0
C88 C 0.71194 0.5276 0.55756 0.0
C89 C 0.6478 0.58285 0.56361 0.0
C90 C 0.8711 0.74549 0.56759 0.0
C91 C 0.8949 0.76592 0.61702 0.0
C92 C 0.88868 0.75206 0.67329 0.0
C93 C 0.85942 0.71803 0.68007 0.0
C94 C 0.83551 0.69818 0.63001 0.0
C95 C 0.84162 0.71213 0.57499 0.0
C96 C 0.81213 0.68875 0.52662 0.0
C97 C 0.78747 0.65806 0.56149 0.0
C98 C 0.80136 0.66355 0.62201 0.0
C99 C 0.84521 0.66716 0.48921 0.0
C100 C 0.77748 0.71939 0.49215 0.0
H101 H 0.68264 0.53913 0.6625 0.0
H102 H 0.76515 0.61184 0.83731 0.0
H103 H 0.7349 0.68079 0.7516 0.0
H104 H 0.78135 0.70755 0.72699 0.0
H105 H 0.78948 0.68544 0.79955 0.0
H106 H 0.84632 0.59385 0.74739 0.0
H107 H 0.84782 0.63328 0.80223 0.0
H108 H 0.86724 0.64339 0.73269 0.0
H109 H 0.64506 0.54482 0.44336 0.0
H110 H 0.71521 0.62466 0.33259 0.0
H111 H 0.76234 0.65361 0.41792 0.0
H112 H 0.73837 0.51946 0.52894 0.0
H113 H 0.68137 0.50662 0.5462 0.0
H114 H 0.72906 0.52069 0.6025 0.0
H115 H 0.63409 0.61164 0.5414 0.0
H116 H 0.64701 0.58845 0.61062 0.0
H117 H 0.62282 0.55751 0.54856 0.0
H118 H 0.66236 0.52322 0.75731 0.0
C119 C 0.7015 0.55521 0.6993 0.0
C120 C 0.83042 0.13323 0.18974 0.0
C121 C 0.85026 0.09433 0.20261 0.0
C122 C 0.8546 0.06697 0.1563 0.0
C123 C 0.81759 0.1163 0.08582 0.0
C124 C 0.8137 0.14329 0.13125 0.0
C125 C 0.78785 0.18179 0.11007 0.0
H126 H 0.65202 0.28305 0.89283 0.0
C127 C 0.79357 0.13454 0.03095 0.0
C128 C 0.77536 0.17261 0.045 0.0
H129 H 0.699 0.32402 0.07002 0.0
H130 H 0.74593 0.26311 0.0889 0.0
H131 H 0.76092 0.25002 0.87499 0.0
H132 H 0.63465 0.19223 0.91593 0.0
H133 H 0.66035 0.15728 0.87227 0.0
H134 H 0.64089 0.20671 0.84229 0.0
H135 H 0.7072 0.24779 0.82487 0.0
H136 H 0.74842 0.20643 0.8301 0.0
C137 C 0.82206 0.21898 0.12168 0.0
C138 C 0.74376 0.18474 0.14087 0.0
C139 C 0.80462 0.06977 0.83306 0.0
C140 C 0.78506 0.08087 0.77554 0.0
C141 C 0.74721 0.10852 0.76806 0.0
C142 C 0.73352 0.12892 0.81614 0.0
C143 C 0.7576 0.12142 0.87243 0.0
C144 C 0.79006 0.09019 0.88083 0.0
C145 C 0.80842 0.084 0.94491 0.0
C146 C 0.78591 0.12001 0.97217 0.0
C147 C 0.7568 0.14213 0.92918 0.0
C148 C 0.86242 0.088 0.95406 0.0
C149 C 0.79014 0.04178 0.96435 0.0
C150 C 0.67297 0.27899 0.93535 0.0
C151 C 0.67194 0.30825 0.97997 0.0
C152 C 0.69977 0.30213 0.03473 0.0
C153 C 0.72653 0.26649 0.04588 0.0
C154 C 0.7257 0.23664 1.00174 0.0
C155 C 0.70058 0.24378 0.94697 0.0
C156 C 0.70681 0.20999 0.90429 0.0
C157 C 0.73802 0.18053 0.94333 0.0
C158 C 0.74839 0.19614 1.00054 0.0
C159 C 0.73191 0.22922 0.85562 0.0
C160 C 0.65828 0.19054 0.88196 0.0
H161 H 0.84291 0.05579 0.06465 0.0
H162 H 0.82626 0.15461 0.22462 0.0
H163 H 0.72608 0.15414 0.14127 0.0
H164 H 0.71707 0.20574 0.11865 0.0
H165 H 0.75316 0.19499 0.18706 0.0
H166 H 0.85908 0.20938 0.12286 0.0
H167 H 0.81917 0.2339 0.16431 0.0
H168 H 0.81654 0.24234 0.08639 0.0
H169 H 0.83305 0.04804 0.84078 0.0
H170 H 0.72996 0.1163 0.7246 0.0
H171 H 0.70599 0.15103 0.80738 0.0
H172 H 0.87347 0.11601 0.9316 0.0
H173 H 0.87852 0.06083 0.93591 0.0
H174 H 0.8775 0.09102 1.00067 0.0
H175 H 0.75986 0.0301 0.93313 0.0
H176 H 0.77686 0.04379 0.007 0.0
H177 H 0.81775 0.01794 0.9674 0.0
H178 H 0.87008 0.03693 0.16538 0.0
C179 C 0.83864 0.07783 0.09801 0.0
C180 C 0.25732 0.44577 0.2809 0.0
C181 C 0.29127 0.47642 0.27508 0.0
C182 C 0.31318 0.49649 0.32634 0.0
C183 C 0.2737 0.45079 0.38694 0.0
C184 C 0.25019 0.43266 0.33685 0.0
C185 C 0.22252 0.39519 0.35031 0.0
H186 H 0.17398 0.25263 0.54755 0.0
C187 C 0.26354 0.42637 0.43791 0.0
C188 C 0.23398 0.39345 0.41663 0.0
H189 H 0.12109 0.25706 0.36268 0.0
H190 H 0.16201 0.32191 0.35398 0.0
H191 H 0.28124 0.28854 0.54216 0.0
H192 H 0.15125 0.34373 0.56983 0.0
H193 H 0.19575 0.37261 0.61158 0.0
H194 H 0.18837 0.31872 0.62824 0.0
H195 H 0.25235 0.2783 0.60469 0.0
H196 H 0.29152 0.32157 0.60351 0.0
C197 C 0.24173 0.35741 0.32053 0.0
C198 C 0.16999 0.40374 0.33011 0.0
C199 C 0.33757 0.46732 0.64373 0.0
C200 C 0.33552 0.45042 0.69964 0.0
C201 C 0.30907 0.414 0.70373 0.0
C202 C 0.28523 0.39488 0.65334 0.0
C203 C 0.28761 0.41228 0.59796 0.0
C204 C 0.31325 0.44805 0.59391 0.0
C205 C 0.31176 0.46228 0.5315 0.0
C206 C 0.27983 0.42982 0.49893 0.0
C207 C 0.26636 0.40029 0.53796 0.0
C208 C 0.36215 0.4606 0.51572 0.0
C209 C 0.28945 0.50558 0.52581 0.0
C210 C 0.1722 0.26721 0.50497 0.0
C211 C 0.14566 0.24935 0.45526 0.0
C212 C 0.14213 0.27003 0.40116 0.0
C213 C 0.16578 0.30763 0.39638 0.0
C214 C 0.19281 0.32486 0.44641 0.0
C215 C 0.1949 0.30501 0.49975 0.0
C216 C 0.22191 0.32941 0.54913 0.0
C217 C 0.23746 0.36641 0.51626 0.0
C218 C 0.22078 0.36334 0.45605 0.0
C219 C 0.26395 0.30323 0.57686 0.0
C220 C 0.18793 0.34166 0.59237 0.0
H221 H 0.32328 0.49969 0.4191 0.0
H222 H 0.23888 0.43011 0.24288 0.0
H223 H 0.16185 0.43674 0.33654 0.0
H224 H 0.14687 0.38643 0.35586 0.0
H225 H 0.15995 0.39652 0.28286 0.0
H226 H 0.28046 0.3596 0.32308 0.0
H227 H 0.22662 0.35549 0.27347 0.0
H228 H 0.23539 0.32787 0.34179 0.0
H229 H 0.35816 0.49479 0.63854 0.0
H230 H 0.30621 0.40049 0.74605 0.0
H231 H 0.26582 0.36727 0.65948 0.0
H232 H 0.38344 0.43684 0.54201 0.0
H233 H 0.38061 0.49065 0.52416 0.0
H234 H 0.36289 0.45146 0.46969 0.0
H235 H 0.2589 0.50694 0.55009 0.0
H236 H 0.27566 0.51383 0.48015 0.0
H237 H 0.31499 0.52965 0.54425 0.0
H238 H 0.3398 0.5199 0.32416 0.0
C239 C 0.30423 0.48412 0.38197 0.0
O240 O 0.94502 0.09601 0.63714 0.0
Mg241 Mg 0.01577 0.09547 0.62912 0.0
O242 O 0.93692 0.03366 0.5986 0.0
Mg243 Mg 0.00283 0.0204 0.55127 0.0
O244 O 0.03016 0.08852 0.54595 0.0
O245 O 0.04031 0.14777 0.59687 0.0
O246 O 0.06762 0.00552 0.50536 0.0
O247 O 0.95591 0.04319 0.46115 0.0
Mg248 Mg 0.97059 0.97104 0.47695 0.0
O249 O 0.97939 0.94891 0.56082 0.0
O250 O 0.02441 0.9829 0.42611 0.0
O251 O 0.90481 0.99347 0.44287 0.0
O252 O 0.96695 0.90953 0.47975 0.0
C253 C 0.07025 0.02452 0.68455 0.0
C254 C 0.9207 0.06387 0.6246 0.0
C255 C 0.04357 0.127 0.54999 0.0
C256 C 0.06384 0.9944 0.45212 0.0
C257 C 0.91801 0.02934 0.43174 0.0
C258 C 0.97176 0.9129 0.53589 0.0
O259 O 0.06273 0.06264 0.68995 0.0
O260 O 0.05072 0.00442 0.63983 0.0
O261 O 0.54376 0.47663 0.18105 0.0
Mg262 Mg 0.50234 0.44607 0.11009 0.0
O263 O 0.54738 0.53446 0.13085 0.0
Mg264 Mg 0.50103 0.52256 0.04025 0.0
O265 O 0.52775 0.45503 0.0332 0.0
O266 O 0.52882 0.39428 0.08029 0.0
O267 O 0.45503 0.51036 0.94973 0.0
O268 O 0.5677 0.53683 0.99431 0.0
Mg269 Mg 0.49388 0.60228 0.96552 0.0
O270 O 0.4752 0.58962 0.04551 0.0
O271 O 0.45018 0.56872 0.8992 0.0
O272 O 0.56603 0.60169 0.96519 0.0
O273 O 0.46789 0.6519 0.00375 0.0
C274 C 0.41129 0.4788 0.10228 0.0
C275 C 0.5585 0.51341 0.17764 0.0
C276 C 0.5391 0.41628 0.03721 0.0
C277 C 0.43995 0.53077 0.90346 0.0
C278 C 0.58723 0.5678 0.9731 0.0
C279 C 0.46157 0.62762 0.04632 0.0
O280 O 0.43002 0.44379 0.10514 0.0
O281 O 0.43365 0.50991 0.08616 0.0
C282 C 0.06978 0.21134 0.45094 0.0
C283 C 0.11887 0.21104 0.46207 0.0
H284 H 0.00629 0.183 0.46998 0.0
C285 C 0.14161 0.17652 0.48935 0.0
H286 H 0.05155 0.2378 0.43038 0.0
C287 C 0.11568 0.14471 0.51045 0.0
C288 C 0.06683 0.14738 0.5053 0.0
H289 H 0.17948 0.17571 0.49833 0.0
H290 H 0.13407 0.12044 0.53645 0.0
C291 C 0.04389 0.17986 0.47307 0.0
C292 C 0.35116 0.65602 0.09725 0.0
C293 C 0.36365 0.69544 0.11981 0.0
H294 H 0.37466 0.60135 0.05878 0.0
C295 C 0.41121 0.70581 0.13424 0.0
H296 H 0.31463 0.64747 0.08571 0.0
C297 C 0.44537 0.67976 0.118 0.0
C298 C 0.43237 0.6427 0.08855 0.0
H299 H 0.42165 0.73614 0.15124 0.0
H300 H 0.48126 0.69074 0.12235 0.0
C301 C 0.38551 0.62952 0.08232 0.0
C302 C 0.95491 0.80096 0.56646 0.0
C303 C 0.9243 0.8025 0.60839 0.0
H304 H 0.99498 0.83513 0.51174 0.0
C305 C 0.91732 0.84045 0.63522 0.0
H306 H 0.96157 0.77203 0.54587 0.0
C307 C 0.93689 0.87684 0.61589 0.0
C308 C 0.96344 0.8755 0.56949 0.0
H309 H 0.89383 0.84243 0.66769 0.0
H310 H 0.92791 0.90614 0.63359 0.0
C311 C 0.97418 0.83706 0.54714 0.0
C312 C 0.65027 0.38195 0.99248 0.0
C313 C 0.63723 0.34176 0.97355 0.0
H314 H 0.62742 0.43908 0.02493 0.0
C315 C 0.58952 0.3316 0.96021 0.0
H316 H 0.6869 0.39046 1.0028 0.0
C317 C 0.55574 0.35913 0.97348 0.0
C318 C 0.5692 0.39745 0.9989 0.0
H319 H 0.57858 0.30078 0.94587 0.0
H320 H 0.51962 0.34882 0.96963 0.0
C321 C 0.61628 0.40987 0.00452 0.0
C322 C 0.1309 0.98852 0.32521 0.0
C323 C 0.17544 0.97582 0.3518 0.0
H324 H 0.06154 0.00496 0.33636 0.0
C325 C 0.18475 0.97409 0.41344 0.0
H326 H 0.12172 0.98942 0.278 0.0
C327 C 0.14937 0.98293 0.44734 0.0
C328 C 0.10423 0.99299 0.41982 0.0
H329 H 0.21871 0.96454 0.43523 0.0
H330 H 0.15652 0.97957 0.49453 0.0
C331 C 0.09594 0.99702 0.35872 0.0
C332 C 0.67053 0.52606 0.87723 0.0
C333 C 0.69141 0.56302 0.86116 0.0
H334 H 0.62131 0.49819 0.92713 0.0
C335 C 0.68586 0.59889 0.89355 0.0
H336 H 0.67502 0.4976 0.8543 0.0
C337 C 0.65588 0.59898 0.93574 0.0
C338 C 0.63045 0.56335 0.94639 0.0
H339 H 0.70103 0.62805 0.88277 0.0
H340 H 0.64941 0.628 0.95624 0.0
C341 C 0.64024 0.52622 0.91958 0.0
C342 C 0.84544 0.04417 0.28337 0.0
C343 C 0.86402 0.08093 0.26408 0.0
H344 H 0.84661 0.99992 0.35197 0.0
C345 C 0.8968 0.10344 0.30296 0.0
H346 H 0.81961 0.0266 0.25446 0.0
C347 C 0.91288 0.08795 0.35909 0.0
C348 C 0.89578 0.05005 0.37741 0.0
H349 H 0.91144 0.13202 0.28901 0.0
H350 H 0.93988 0.10482 0.38717 0.0
C351 C 0.86077 0.0291 0.33947 0.0
C352 C 0.38295 0.44737 0.8006 0.0
C353 C 0.36076 0.47079 0.75324 0.0
H354 H 0.42513 0.44778 0.88519 0.0
C355 C 0.36344 0.51403 0.75708 0.0
H356 H 0.38212 0.41402 0.79901 0.0
C357 C 0.38855 0.53332 0.80612 0.0
C358 C 0.41135 0.50995 0.85301 0.0
H359 H 0.346 0.53314 0.72218 0.0
H360 H 0.39014 0.56669 0.80713 0.0
C361 C 0.40781 0.46673 0.85 0.0
C362 C 0.62922 0.59024 0.28002 0.0
C363 C 0.64656 0.56502 0.32793 0.0
H364 H 0.58786 0.59391 0.19502 0.0
C365 C 0.63514 0.52279 0.32525 0.0
H366 H 0.63682 0.62299 0.2808 0.0
C367 C 0.6067 0.5063 0.27653 0.0
C368 C 0.5891 0.53147 0.2288 0.0
H369 H 0.64854 0.50224 0.36067 0.0
H370 H 0.59872 0.4736 0.27627 0.0
C371 C 0.60092 0.57362 0.23093 0.0
C372 C 0.83378 0.03291 0.72278 0.0
C373 C 0.80946 0.07024 0.72487 0.0
H374 H 0.88805 1.0009 0.68699 0.0
C375 C 0.81515 0.1009 0.68314 0.0
H376 H 0.82968 0.00838 0.75356 0.0
C377 C 0.84802 0.09638 0.64509 0.0
C378 C 0.87581 0.06109 0.64746 0.0
H379 H 0.79765 0.13025 0.68335 0.0
H380 H 0.8546 0.12211 0.61729 0.0
C381 C 0.8667 0.02832 0.68411 0.0
C382 C 0.3321 0.51886 0.20471 0.0
C383 C 0.31015 0.48179 0.21842 0.0
H384 H 0.38146 0.54745 0.15568 0.0
C385 C 0.31331 0.4473 0.18222 0.0
H386 H 0.32932 0.54649 0.23018 0.0
C387 C 0.34197 0.44833 0.13864 0.0
C388 C 0.36888 0.48354 0.13058 0.0
H389 H 0.29742 0.418 0.19072 0.0
H390 H 0.3465 0.42011 0.11507 0.0
C391 C 0.36144 0.51969 0.16125 0.0
C392 C 0.1615 0.01103 0.81705 0.0
C393 C 0.15215 0.97086 0.83519 0.0
H394 H 0.14297 0.0592 0.75516 0.0
C395 C 0.11976 0.9462 0.7987 0.0
H396 H 0.1871 0.03044 0.84338 0.0
C397 C 0.09471 0.96264 0.74725 0.0
C398 C 0.10153 0.004 0.73209 0.0
H399 H 0.11182 0.91511 0.81161 0.0
H400 H 0.06818 0.94386 0.7214 0.0
C401 C 0.13628 0.02748 0.76642 0.0
loop_
_geom_bond_atom_site_label_1
_geom_bond_atom_site_label_2
_geom_bond_distance
_geom_bond_site_symmetry_2
_ccdc_geom_bond_type
C0 C1 1.391 . S
C0 C4 1.391 . S
C0 H42 0.948 . S
C1 C0 1.391 . S
C1 C2 1.391 . S
C2 C1 1.391 . S
C2 H58 0.947 1_565 S
C2 C59 1.392 . S
C3 C4 1.391 . S
C3 C7 1.397 1_556 S
C3 C59 1.419 . S
C4 C0 1.391 . S
C4 C3 1.391 . S
C4 C5 1.399 . S
C5 C4 1.399 . S
C5 C8 1.396 1_556 S
C5 C17 1.453 . S
C5 C18 1.684 . S
H6 C30 0.948 . S
C7 C3 1.397 1_554 S
C7 C8 1.394 . S
C7 C26 1.723 . S
C8 C5 1.396 1_554 S
C8 C7 1.394 . S
C8 C38 1.723 . S
H9 C32 0.947 1_556 S
H10 C33 0.948 1_556 S
H11 C39 0.982 . S
H12 C40 0.979 . S
H13 C40 0.980 . S
H14 C40 0.983 . S
H15 C39 0.979 . S
H16 C39 0.977 . S
C17 C5 1.453 . S
C17 H46 0.982 . S
C17 H47 0.979 . S
C17 H48 0.977 . S
C18 C5 1.684 . S
C18 H43 0.979 . S
C18 H44 0.980 . S
C18 H45 0.983 . S
C19 C20 1.391 . S
C19 C24 1.391 . S
C19 H49 0.948 . S
C20 C19 1.391 . S
C20 C21 1.391 . S
C21 C20 1.391 . S
C21 C22 1.392 . S
C21 H50 0.947 . S
C22 C21 1.392 . S
C22 C23 1.419 . S
C22 H51 0.948 . S
C23 C22 1.419 . S
C23 C24 1.391 . S
C23 C27 1.397 . S
C24 C19 1.391 . S
C24 C23 1.391 . S
C24 C25 1.399 . S
C25 C24 1.399 . S
C25 C26 1.396 . S
C25 C28 1.453 . S
C25 C29 1.684 . S
C26 C7 1.723 . S
C26 C25 1.396 . S
C26 C27 1.394 . S
C27 C23 1.397 . S
C27 C26 1.394 . S
C27 C37 1.723 . S
C28 C25 1.453 . S
C28 H52 0.982 . S
C28 H53 0.979 1_565 S
C28 H54 0.977 . S
C29 C25 1.684 . S
C29 H55 0.979 . S
C29 H56 0.980 . S
C29 H57 0.983 . S
C30 H6 0.948 . S
C30 C31 1.391 . S
C30 C35 1.391 . S
C31 C30 1.391 . S
C31 C32 1.391 . S
C32 H9 0.947 1_554 S
C32 C31 1.391 . S
C32 C33 1.392 . S
C33 H10 0.948 1_554 S
C33 C32 1.392 . S
C33 C34 1.419 . S
C34 C33 1.419 . S
C34 C35 1.391 . S
C34 C38 1.397 . S
C35 C30 1.391 . S
C35 C34 1.391 . S
C35 C36 1.399 . S
C36 C35 1.399 . S
C36 C37 1.396 . S
C36 C39 1.453 . S
C36 C40 1.684 . S
C37 C27 1.723 . S
C37 C36 1.396 . S
C37 C38 1.394 . S
C38 C8 1.723 . S
C38 C34 1.397 . S
C38 C37 1.394 . S
C39 H11 0.982 . S
C39 H15 0.979 . S
C39 H16 0.977 . S
C39 C36 1.453 . S
C40 H12 0.979 . S
C40 H13 0.980 . S
C40 H14 0.983 . S
C40 C36 1.684 . S
H41 C59 0.948 1_554 S
H42 C0 0.948 . S
H43 C18 0.979 . S
H44 C18 0.980 . S
H45 C18 0.983 . S
H46 C17 0.982 . S
H47 C17 0.979 . S
H48 C17 0.977 . S
H49 C19 0.948 . S
H50 C21 0.947 . S
H51 C22 0.948 . S
H52 C28 0.982 . S
H53 C28 0.979 1_545 S
H54 C28 0.977 . S
H55 C29 0.979 . S
H56 C29 0.980 . S
H57 C29 0.983 . S
H58 C2 0.947 1_545 S
C59 C2 1.392 . S
C59 C3 1.419 . S
C59 H41 0.948 1_556 S
C60 C61 1.391 . S
C60 C64 1.391 . S
C60 H102 0.948 . S
C61 C60 1.391 . S
C61 C62 1.391 . S
C62 C61 1.391 . S
C62 H118 0.947 . S
C62 C119 1.392 . S
C63 C64 1.391 . S
C63 C67 1.397 . S
C63 C119 1.419 . S
C64 C60 1.391 . S
C64 C63 1.391 . S
C64 C65 1.399 . S
C65 C64 1.399 . S
C65 C68 1.396 . S
C65 C77 1.453 . S
C65 C78 1.684 . S
H66 C90 0.948 . S
C67 C63 1.397 . S
C67 C68 1.394 . S
C67 C86 1.723 . S
C68 C65 1.396 . S
C68 C67 1.394 . S
C68 C98 1.723 . S
H69 C92 0.947 . S
H70 C93 0.948 . S
H71 C99 0.982 . S
H72 C100 0.979 . S
H73 C100 0.980 . S
H74 C100 0.983 . S
H75 C99 0.979 . S
H76 C99 0.977 . S
C77 C65 1.453 . S
C77 H106 0.982 . S
C77 H107 0.979 . S
C77 H108 0.977 . S
C78 C65 1.684 . S
C78 H103 0.979 . S
C78 H104 0.980 . S
C78 H105 0.983 . S
C79 C80 1.391 . S
C79 C84 1.391 . S
C79 H109 0.948 . S
C80 C79 1.391 . S
C80 C81 1.391 . S
C81 C80 1.391 . S
C81 C82 1.392 . S
C81 H110 0.947 . S
C82 C81 1.392 . S
C82 C83 1.419 . S
C82 H111 0.948 . S
C83 C82 1.419 . S
C83 C84 1.391 . S
C83 C87 1.397 . S
C84 C79 1.391 . S
C84 C83 1.391 . S
C84 C85 1.399 . S
C85 C84 1.399 . S
C85 C86 1.396 . S
C85 C88 1.453 . S
C85 C89 1.684 . S
C86 C67 1.723 . S
C86 C85 1.396 . S
C86 C87 1.394 . S
C87 C83 1.397 . S
C87 C86 1.394 . S
C87 C97 1.723 . S
C88 C85 1.453 . S
C88 H112 0.982 . S
C88 H113 0.979 . S
C88 H114 0.977 . S
C89 C85 1.684 . S
C89 H115 0.979 . S
C89 H116 0.980 . S
C89 H117 0.983 . S
C90 H66 0.948 . S
C90 C91 1.391 . S
C90 C95 1.391 . S
C91 C90 1.391 . S
C91 C92 1.391 . S
C92 H69 0.947 . S
C92 C91 1.391 . S
C92 C93 1.392 . S
C93 H70 0.948 . S
C93 C92 1.392 . S
C93 C94 1.419 . S
C94 C93 1.419 . S
C94 C95 1.391 . S
C94 C98 1.397 . S
C95 C90 1.391 . S
C95 C94 1.391 . S
C95 C96 1.399 . S
C96 C95 1.399 . S
C96 C97 1.396 . S
C96 C99 1.453 . S
C96 C100 1.684 . S
C97 C87 1.723 . S
C97 C96 1.396 . S
C97 C98 1.394 . S
C98 C68 1.723 . S
C98 C94 1.397 . S
C98 C97 1.394 . S
C99 H71 0.982 . S
C99 H75 0.979 . S
C99 H76 0.977 . S
C99 C96 1.453 . S
C100 H72 0.979 . S
C100 H73 0.980 . S
C100 H74 0.983 . S
C100 C96 1.684 . S
H101 C119 0.948 . S
H102 C60 0.948 . S
H103 C78 0.979 . S
H104 C78 0.980 . S
H105 C78 0.983 . S
H106 C77 0.982 . S
H107 C77 0.979 . S
H108 C77 0.977 . S
H109 C79 0.948 . S
H110 C81 0.947 . S
H111 C82 0.948 . S
H112 C88 0.982 . S
H113 C88 0.979 . S
H114 C88 0.977 . S
H115 C89 0.979 . S
H116 C89 0.980 . S
H117 C89 0.983 . S
H118 C62 0.947 . S
C119 C62 1.392 . S
C119 C63 1.419 . S
C119 H101 0.948 . S
C120 C121 1.391 . S
C120 C124 1.391 . S
C120 H162 0.948 . S
C121 C120 1.391 . S
C121 C122 1.391 . S
C122 C121 1.391 . S
C122 H178 0.947 . S
C122 C179 1.392 . S
C123 C124 1.391 . S
C123 C127 1.397 . S
C123 C179 1.419 . S
C124 C120 1.391 . S
C124 C123 1.391 . S
C124 C125 1.399 . S
C125 C124 1.399 . S
C125 C128 1.396 . S
C125 C137 1.453 . S
C125 C138 1.684 . S
H126 C150 0.948 . S
C127 C123 1.397 . S
C127 C128 1.394 . S
C127 C146 1.723 1_554 S
C128 C125 1.396 . S
C128 C127 1.394 . S
C128 C158 1.723 . S
H129 C152 0.947 . S
H130 C153 0.948 . S
H131 C159 0.982 . S
H132 C160 0.979 . S
H133 C160 0.980 . S
H134 C160 0.983 . S
H135 C159 0.979 . S
H136 C159 0.977 . S
C137 C125 1.453 . S
C137 H166 0.982 . S
C137 H167 0.979 . S
C137 H168 0.977 . S
C138 C125 1.684 . S
C138 H163 0.979 . S
C138 H164 0.980 . S
C138 H165 0.983 . S
C139 C140 1.391 . S
C139 C144 1.391 . S
C139 H169 0.948 . S
C140 C139 1.391 . S
C140 C141 1.391 . S
C141 C140 1.391 . S
C141 C142 1.392 . S
C141 H170 0.947 . S
C142 C141 1.392 . S
C142 C143 1.419 . S
C142 H171 0.948 . S
C143 C142 1.419 . S
C143 C144 1.391 . S
C143 C147 1.397 . S
C144 C139 1.391 . S
C144 C143 1.391 . S
C144 C145 1.399 . S
C145 C144 1.399 . S
C145 C146 1.396 . S
C145 C148 1.453 . S
C145 C149 1.684 . S
C146 C127 1.723 1_556 S
C146 C145 1.396 . S
C146 C147 1.394 . S
C147 C143 1.397 . S
C147 C146 1.394 . S
C147 C157 1.723 . S
C148 C145 1.453 . S
C148 H172 0.982 . S
C148 H173 0.979 . S
C148 H174 0.977 1_556 S
C149 C145 1.684 . S
C149 H175 0.979 . S
C149 H176 0.980 1_556 S
C149 H177 0.983 . S
C150 H126 0.948 . S
C150 C151 1.390 . S
C150 C155 1.391 . S
C151 C150 1.390 . S
C151 C152 1.392 1_556 S
C152 H129 0.947 . S
C152 C151 1.392 1_554 S
C152 C153 1.392 . S
C153 H130 0.948 . S
C153 C152 1.392 . S
C153 C154 1.419 . S
C154 C153 1.419 . S
C154 C155 1.391 1_554 S
C154 C158 1.397 . S
C155 C150 1.391 . S
C155 C154 1.391 1_556 S
C155 C156 1.399 . S
C156 C155 1.399 . S
C156 C157 1.396 . S
C156 C159 1.453 . S
C156 C160 1.684 . S
C157 C147 1.723 . S
C157 C156 1.396 . S
C157 C158 1.394 1_556 S
C158 C128 1.723 . S
C158 C154 1.397 . S
C158 C157 1.394 1_554 S
C159 H131 0.982 . S
C159 H135 0.979 . S
C159 H136 0.977 . S
C159 C156 1.453 . S
C160 H132 0.979 . S
C160 H133 0.980 . S
C160 H134 0.983 . S
C160 C156 1.684 . S
H161 C179 0.948 . S
H162 C120 0.948 . S
H163 C138 0.979 . S
H164 C138 0.980 . S
H165 C138 0.983 . S
H166 C137 0.982 . S
H167 C137 0.979 . S
H168 C137 0.977 . S
H169 C139 0.948 . S
H170 C141 0.947 . S
H171 C142 0.948 . S
H172 C148 0.982 . S
H173 C148 0.979 . S
H174 C148 0.977 1_554 S
H175 C149 0.979 . S
H176 C149 0.980 1_554 S
H177 C149 0.983 . S
H178 C122 0.947 . S
C179 C122 1.392 . S
C179 C123 1.419 . S
C179 H161 0.948 . S
C180 C181 1.391 . S
C180 C184 1.391 . S
C180 H222 0.948 . S
C181 C180 1.391 . S
C181 C182 1.391 . S
C182 C181 1.391 . S
C182 H238 0.947 . S
C182 C239 1.392 . S
C183 C184 1.391 . S
C183 C187 1.397 . S
C183 C239 1.419 . S
C184 C180 1.391 . S
C184 C183 1.391 . S
C184 C185 1.399 . S
C185 C184 1.399 . S
C185 C188 1.396 . S
C185 C197 1.453 . S
C185 C198 1.684 . S
H186 C210 0.948 . S
C187 C183 1.397 . S
C187 C188 1.394 . S
C187 C206 1.723 . S
C188 C185 1.396 . S
C188 C187 1.394 . S
C188 C218 1.723 . S
H189 C212 0.947 . S
H190 C213 0.948 . S
H191 C219 0.982 . S
H192 C220 0.979 . S
H193 C220 0.980 . S
H194 C220 0.983 . S
H195 C219 0.979 . S
H196 C219 0.977 . S
C197 C185 1.453 . S
C197 H226 0.982 . S
C197 H227 0.979 . S
C197 H228 0.977 . S
C198 C185 1.684 . S
C198 H223 0.979 . S
C198 H224 0.980 . S
C198 H225 0.983 . S
C199 C200 1.391 . S
C199 C204 1.391 . S
C199 H229 0.948 . S
C200 C199 1.391 . S
C200 C201 1.391 . S
C201 C200 1.391 . S
C201 C202 1.392 . S
C201 H230 0.947 . S
C202 C201 1.392 . S
C202 C203 1.419 . S
C202 H231 0.948 . S
C203 C202 1.419 . S
C203 C204 1.391 . S
C203 C207 1.397 . S
C204 C199 1.391 . S
C204 C203 1.391 . S
C204 C205 1.399 . S
C205 C204 1.399 . S
C205 C206 1.396 . S
C205 C208 1.453 . S
C205 C209 1.684 . S
C206 C187 1.723 . S
C206 C205 1.396 . S
C206 C207 1.394 . S
C207 C203 1.397 . S
C207 C206 1.394 . S
C207 C217 1.723 . S
C208 C205 1.453 . S
C208 H232 0.982 . S
C208 H233 0.979 . S
C208 H234 0.977 . S
C209 C205 1.684 . S
C209 H235 0.979 . S
C209 H236 0.980 . S
C209 H237 0.983 . S
C210 H186 0.948 . S
C210 C211 1.391 . S
C210 C215 1.391 . S
C211 C210 1.391 . S
C211 C212 1.391 . S
C212 H189 0.947 . S
C212 C211 1.391 . S
C212 C213 1.392 . S
C213 H190 0.948 . S
C213 C212 1.392 . S
C213 C214 1.419 . S
C214 C213 1.419 . S
C214 C215 1.391 . S
C214 C218 1.397 . S
C215 C210 1.391 . S
C215 C214 1.391 . S
C215 C216 1.399 . S
C216 C215 1.399 . S
C216 C217 1.396 . S
C216 C219 1.453 . S
C216 C220 1.684 . S
C217 C207 1.723 . S
C217 C216 1.396 . S
C217 C218 1.394 . S
C218 C188 1.723 . S
C218 C214 1.397 . S
C218 C217 1.394 . S
C219 H191 0.982 . S
C219 H195 0.979 . S
C219 H196 0.977 . S
C219 C216 1.453 . S
C220 H192 0.979 . S
C220 H193 0.980 . S
C220 H194 0.983 . S
C220 C216 1.684 . S
H221 C239 0.948 . S
H222 C180 0.948 . S
H223 C198 0.979 . S
H224 C198 0.980 . S
H225 C198 0.983 . S
H226 C197 0.982 . S
H227 C197 0.979 . S
H228 C197 0.977 . S
H229 C199 0.948 . S
H230 C201 0.947 . S
H231 C202 0.948 . S
H232 C208 0.982 . S
H233 C208 0.979 . S
H234 C208 0.977 . S
H235 C209 0.979 . S
H236 C209 0.980 . S
H237 C209 0.983 . S
H238 C182 0.947 . S
C239 C182 1.392 . S
C239 C183 1.419 . S
C239 H221 0.948 . S
O240 Mg241 1.990 1_655 S
O240 C254 1.253 . S
Mg241 O240 1.990 1_455 S
Mg241 O244 2.180 . S
Mg241 O245 2.117 . S
Mg241 O259 2.030 . S
O242 Mg243 2.072 1_655 S
O242 C254 1.260 . S
Mg243 O242 2.072 1_455 S
Mg243 O244 2.099 . S
Mg243 O246 2.079 1_545 S
Mg243 O247 2.072 1_455 S
Mg243 O249 2.099 1_445 S
Mg243 O260 2.079 1_545 S
O244 Mg241 2.180 . S
O244 Mg243 2.099 . S
O244 C255 1.279 . S
O245 Mg241 2.117 . S
O245 C255 1.250 . S
O246 Mg243 2.079 1_565 S
O246 C256 1.264 . S
O247 Mg243 2.072 1_655 S
O247 C257 1.260 . S
Mg248 O249 2.180 . S
Mg248 O250 2.030 1_655 S
Mg248 O251 1.990 . S
Mg248 O252 2.117 . S
O249 Mg243 2.099 1_665 S
O249 Mg248 2.180 . S
O249 C258 1.279 . S
O250 Mg248 2.030 1_455 S
O250 C256 1.248 . S
O251 Mg248 1.990 . S
O251 C257 1.253 1_565 S
O252 Mg248 2.117 . S
O252 C258 1.250 . S
C253 O259 1.248 1_565 S
C253 O260 1.264 . S
C254 O240 1.253 . S
C254 O242 1.260 . S
C255 O244 1.279 . S
C255 O245 1.250 . S
C256 O246 1.264 . S
C256 O250 1.248 . S
C257 O247 1.260 . S
C257 O251 1.253 1_545 S
C258 O249 1.279 . S
C258 O252 1.250 . S
O259 Mg241 2.030 . S
O259 C253 1.248 1_545 S
O260 Mg243 2.079 1_565 S
O260 C253 1.264 . S
O261 Mg262 1.990 . S
O261 C275 1.253 . S
Mg262 O261 1.990 . S
Mg262 O265 2.180 . S
Mg262 O266 2.117 . S
Mg262 O280 2.030 . S
O263 Mg264 2.072 . S
O263 C275 1.260 . S
Mg264 O263 2.072 . S
Mg264 O265 2.099 . S
Mg264 O267 2.079 1_554 S
Mg264 O268 2.072 1_554 S
Mg264 O270 2.099 . S
Mg264 O281 2.079 . S
O265 Mg262 2.180 . S
O265 Mg264 2.099 . S
O265 C276 1.279 . S
O266 Mg262 2.117 . S
O266 C276 1.250 . S
O267 Mg264 2.079 1_556 S
O267 C277 1.264 . S
O268 Mg264 2.072 1_556 S
O268 C278 1.260 . S
Mg269 O270 2.180 1_556 S
Mg269 O271 2.030 . S
Mg269 O272 1.990 . S
Mg269 O273 2.117 . S
O270 Mg264 2.099 . S
O270 Mg269 2.180 1_554 S
O270 C279 1.279 . S
O271 Mg269 2.030 . S
O271 C277 1.248 . S
O272 Mg269 1.990 . S
O272 C278 1.253 . S
O273 Mg269 2.117 . S
O273 C279 1.250 1_556 S
C274 O280 1.248 . S
C274 O281 1.264 . S
C275 O261 1.253 . S
C275 O263 1.260 . S
C276 O265 1.279 . S
C276 O266 1.250 . S
C277 O267 1.264 . S
C277 O271 1.248 . S
C278 O268 1.260 . S
C278 O272 1.253 . S
C279 O270 1.279 . S
C279 O273 1.250 1_554 S
O280 Mg262 2.030 . S
O280 C274 1.248 . S
O281 Mg264 2.079 . S
O281 C274 1.264 . S
C282 C283 1.387 . S
C282 H286 0.950 . S
C282 C291 1.390 . S
C283 C282 1.387 . S
C283 C285 1.387 . S
H284 C291 0.950 . S
C285 C283 1.387 . S
C285 C287 1.390 . S
C285 H289 0.950 . S
H286 C282 0.950 . S
C287 C285 1.390 . S
C287 C288 1.387 . S
C287 H290 0.950 . S
C288 C287 1.387 . S
C288 C291 1.387 . S
H289 C285 0.950 . S
H290 C287 0.950 . S
C291 C282 1.390 . S
C291 H284 0.950 . S
C291 C288 1.387 . S
C292 C293 1.387 . S
C292 H296 0.950 . S
C292 C301 1.390 . S
C293 C292 1.387 . S
C293 C295 1.387 . S
H294 C301 0.950 . S
C295 C293 1.387 . S
C295 C297 1.390 . S
C295 H299 0.950 . S
H296 C292 0.950 . S
C297 C295 1.390 . S
C297 C298 1.387 . S
C297 H300 0.950 . S
C298 C297 1.387 . S
C298 C301 1.387 . S
H299 C295 0.950 . S
H300 C297 0.950 . S
C301 C292 1.390 . S
C301 H294 0.950 . S
C301 C298 1.387 . S
C302 C303 1.387 . S
C302 H306 0.950 . S
C302 C311 1.390 . S
C303 C302 1.387 . S
C303 C305 1.387 . S
H304 C311 0.950 . S
C305 C303 1.387 . S
C305 C307 1.390 . S
C305 H309 0.950 . S
H306 C302 0.950 . S
C307 C305 1.390 . S
C307 C308 1.387 . S
C307 H310 0.950 . S
C308 C307 1.387 . S
C308 C311 1.387 . S
H309 C305 0.950 . S
H310 C307 0.950 . S
C311 C302 1.390 . S
C311 H304 0.950 . S
C311 C308 1.387 . S
C312 C313 1.387 1_554 S
C312 H316 0.950 . S
C312 C321 1.390 . S
C313 C312 1.387 1_556 S
C313 C315 1.387 . S
H314 C321 0.950 . S
C315 C313 1.387 . S
C315 C317 1.390 . S
C315 H319 0.950 . S
H316 C312 0.950 . S
C317 C315 1.390 . S
C317 C318 1.387 1_556 S
C317 H320 0.950 . S
C318 C317 1.387 1_554 S
C318 C321 1.387 . S
H319 C315 0.950 . S
H320 C317 0.950 . S
C321 C312 1.390 . S
C321 H314 0.950 . S
C321 C318 1.387 . S
C322 C323 1.387 . S
C322 H326 0.950 . S
C322 C331 1.390 . S
C323 C322 1.387 . S
C323 C325 1.387 . S
H324 C331 0.950 . S
C325 C323 1.387 . S
C325 C327 1.390 . S
C325 H329 0.950 . S
H326 C322 0.950 . S
C327 C325 1.390 . S
C327 C328 1.387 . S
C327 H330 0.950 1_565 S
C328 C327 1.387 . S
C328 C331 1.387 . S
H329 C325 0.950 . S
H330 C327 0.950 1_545 S
C331 C322 1.390 . S
C331 H324 0.950 . S
C331 C328 1.387 . S
C332 C333 1.387 . S
C332 H336 0.950 . S
C332 C341 1.390 . S
C333 C332 1.387 . S
C333 C335 1.387 . S
H334 C341 0.950 . S
C335 C333 1.387 . S
C335 C337 1.390 . S
C335 H339 0.950 . S
H336 C332 0.950 . S
C337 C335 1.390 . S
C337 C338 1.387 . S
C337 H340 0.950 . S
C338 C337 1.387 . S
C338 C341 1.387 . S
H339 C335 0.950 . S
H340 C337 0.950 . S
C341 C332 1.390 . S
C341 H334 0.950 . S
C341 C338 1.387 . S
C342 C343 1.387 . S
C342 H346 0.950 . S
C342 C351 1.390 . S
C343 C342 1.387 . S
C343 C345 1.387 . S
H344 C351 0.950 1_565 S
C345 C343 1.387 . S
C345 C347 1.390 . S
C345 H349 0.950 . S
H346 C342 0.950 . S
C347 C345 1.390 . S
C347 C348 1.387 . S
C347 H350 0.950 . S
C348 C347 1.387 . S
C348 C351 1.387 . S
H349 C345 0.950 . S
H350 C347 0.950 . S
C351 C342 1.390 . S
C351 H344 0.950 1_545 S
C351 C348 1.387 . S
C352 C353 1.387 . S
C352 H356 0.950 . S
C352 C361 1.390 . S
C353 C352 1.387 . S
C353 C355 1.387 . S
H354 C361 0.950 . S
C355 C353 1.387 . S
C355 C357 1.390 . S
C355 H359 0.950 . S
H356 C352 0.950 . S
C357 C355 1.390 . S
C357 C358 1.387 . S
C357 H360 0.950 . S
C358 C357 1.387 . S
C358 C361 1.387 . S
H359 C355 0.950 . S
H360 C357 0.950 . S
C361 C352 1.390 . S
C361 H354 0.950 . S
C361 C358 1.387 . S
C362 C363 1.387 . S
C362 H366 0.950 . S
C362 C371 1.390 . S
C363 C362 1.387 . S
C363 C365 1.387 . S
H364 C371 0.950 . S
C365 C363 1.387 . S
C365 C367 1.390 . S
C365 H369 0.950 . S
H366 C362 0.950 . S
C367 C365 1.390 . S
C367 C368 1.387 . S
C367 H370 0.950 . S
C368 C367 1.387 . S
C368 C371 1.387 . S
H369 C365 0.950 . S
H370 C367 0.950 . S
C371 C362 1.390 . S
C371 H364 0.950 . S
C371 C368 1.387 . S
C372 C373 1.387 . S
C372 H376 0.950 . S
C372 C381 1.390 . S
C373 C372 1.387 . S
C373 C375 1.387 . S
H374 C381 0.950 1_565 S
C375 C373 1.387 . S
C375 C377 1.390 . S
C375 H379 0.950 . S
H376 C372 0.950 . S
C377 C375 1.390 . S
C377 C378 1.387 . S
C377 H380 0.950 . S
C378 C377 1.387 . S
C378 C381 1.387 . S
H379 C375 0.950 . S
H380 C377 0.950 . S
C381 C372 1.390 . S
C381 H374 0.950 1_545 S
C381 C378 1.387 . S
C382 C383 1.387 . S
C382 H386 0.950 . S
C382 C391 1.390 . S
C383 C382 1.387 . S
C383 C385 1.387 . S
H384 C391 0.950 . S
C385 C383 1.387 . S
C385 C387 1.390 . S
C385 H389 0.950 . S
H386 C382 0.950 . S
C387 C385 1.390 . S
C387 C388 1.387 . S
C387 H390 0.950 . S
C388 C387 1.387 . S
C388 C391 1.387 . S
H389 C385 0.950 . S
H390 C387 0.950 . S
C391 C382 1.390 . S
C391 H384 0.950 . S
C391 C388 1.387 . S
C392 C393 1.387 1_545 S
C392 H396 0.950 . S
C392 C401 1.390 . S
C393 C392 1.387 1_565 S
C393 C395 1.387 . S
H394 C401 0.950 . S
C395 C393 1.387 . S
C395 C397 1.390 . S
C395 H399 0.950 . S
H396 C392 0.950 . S
C397 C395 1.390 . S
C397 C398 1.387 . S
C397 H400 0.950 . S
C398 C397 1.387 . S
C398 C401 1.387 1_565 S
H399 C395 0.950 . S
H400 C397 0.950 . S
C401 C392 1.390 . S
C401 H394 0.950 . S
C401 C398 1.387 1_545 S
C288 C255 1.434 . S
C283 C211 1.610 . S
C293 C31 1.486 . S
C298 C279 1.431 . S
C303 C91 1.635 . S
C308 C258 1.507 . S
C313 C151 1.660 . S
C318 C276 1.507 . S
C328 C256 1.693 . S
C323 C20 1.603 . S
C338 C278 1.628 . S
C333 C61 1.539 . S
C343 C121 1.614 . S
C348 C257 1.526 . S
C353 C200 1.640 . S
C358 C277 1.550 . S
C368 C275 1.525 . S
C363 C80 1.558 . S
C378 C254 1.630 . S
C373 C140 1.660 . S
C388 C274 1.693 . S
C383 C181 1.621 . S
C393 C1 1.550 . S
C398 C253 1.550 . S
