# Generated by pormake.
# Topology dag, (6,3)-cn, num edge types: 1
# Building blocks:
#     Node 0, Type 0, BuildingBlock: MIDCAF_clean_sbu_0, # of connection points: 6
#     Node 1, Type 0, BuildingBlock: MIDCAF_clean_sbu_0, # of connection points: 6
#     Node 2, Type 0, BuildingBlock: MIDCAF_clean_sbu_0, # of connection points: 6
#     Node 3, Type 0, BuildingBlock: MIDCAF_clean_sbu_0, # of connection points: 6
#     Node 4, Type 1, BuildingBlock: MIDCAF_clean_linker_0, # of connection points: 3
#     Node 5, Type 1, BuildingBlock: MIDCAF_clean_linker_0, # of connection points: 3
#     Node 6, Type 1, BuildingBlock: MIDCAF_clean_linker_0, # of connection points: 3
#     Node 7, Type 1, BuildingBlock: MIDCAF_clean_linker_0, # of connection points: 3
#     Node 8, Type 1, BuildingBlock: MIDCAF_clean_linker_0, # of connection points: 3
#     Node 9, Type 1, BuildingBlock: MIDCAF_clean_linker_0, # of connection points: 3
#     Node 10, Type 1, BuildingBlock: MIDCAF_clean_linker_0, # of connection points: 3
#     Node 11, Type 1, BuildingBlock: MIDCAF_clean_linker_0, # of connection points: 3
#     Edge 12, Type (0, 1), BuildingBlock: XUDNAN_clean_linker_2, # of connection points: 2
#     Edge 13, Type (0, 1), BuildingBlock: XUDNAN_clean_linker_2, # of connection points: 2
#     Edge 14, Type (0, 1), BuildingBlock: XUDNAN_clean_linker_2, # of connection points: 2
#     Edge 15, Type (0, 1), BuildingBlock: XUDNAN_clean_linker_2, # of connection points: 2
#     Edge 16, Type (0, 1), BuildingBlock: XUDNAN_clean_linker_2, # of connection points: 2
#     Edge 17, Type (0, 1), BuildingBlock: XUDNAN_clean_linker_2, # of connection points: 2
#     Edge 18, Type (0, 1), BuildingBlock: XUDNAN_clean_linker_2, # of connection points: 2
#     Edge 19, Type (0, 1), BuildingBlock: XUDNAN_clean_linker_2, # of connection points: 2
#     Edge 20, Type (0, 1), BuildingBlock: XUDNAN_clean_linker_2, # of connection points: 2
#     Edge 21, Type (0, 1), BuildingBlock: XUDNAN_clean_linker_2, # of connection points: 2
#     Edge 22, Type (0, 1), BuildingBlock: XUDNAN_clean_linker_2, # of connection points: 2
#     Edge 23, Type (0, 1), BuildingBlock: XUDNAN_clean_linker_2, # of connection points: 2
#     Edge 24, Type (0, 1), BuildingBlock: XUDNAN_clean_linker_2, # of connection points: 2
#     Edge 25, Type (0, 1), BuildingBlock: XUDNAN_clean_linker_2, # of connection points: 2
#     Edge 26, Type (0, 1), BuildingBlock: XUDNAN_clean_linker_2, # of connection points: 2
#     Edge 27, Type (0, 1), BuildingBlock: XUDNAN_clean_linker_2, # of connection points: 2
#     Edge 28, Type (0, 1), BuildingBlock: XUDNAN_clean_linker_2, # of connection points: 2
#     Edge 29, Type (0, 1), BuildingBlock: XUDNAN_clean_linker_2, # of connection points: 2
#     Edge 30, Type (0, 1), BuildingBlock: XUDNAN_clean_linker_2, # of connection points: 2
#     Edge 31, Type (0, 1), BuildingBlock: XUDNAN_clean_linker_2, # of connection points: 2
#     Edge 32, Type (0, 1), BuildingBlock: XUDNAN_clean_linker_2, # of connection points: 2
#     Edge 33, Type (0, 1), BuildingBlock: XUDNAN_clean_linker_2, # of connection points: 2
#     Edge 34, Type (0, 1), BuildingBlock: XUDNAN_clean_linker_2, # of connection points: 2
#     Edge 35, Type (0, 1), BuildingBlock: XUDNAN_clean_linker_2, # of connection points: 2
# Relax obj value: 0.310
# Max RMSD: 0.192
# Mean RMSD: 0.181
data_MOF--net-dag--node1-MIDCAF_clean_sbu_0--node2-MIDCAF_clean_linker_0--edge1-XUDNAN_clean_linker_2
_symmetry_space_group_name_H-M    P1
_symmetry_Int_Tables_number       1
_symmetry_cell_setting            triclinic
loop_
_symmetry_equiv_pos_as_xyz
'x, y, z'
_cell_length_a     47.877723
_cell_length_b     49.003385
_cell_length_c     36.620436
_cell_angle_alpha  85.847124
_cell_angle_beta   90.195117
_cell_angle_gamma 89.896414
loop_
_atom_site_label
_atom_site_type_symbol
_atom_site_fract_x
_atom_site_fract_y
_atom_site_fract_z
_atom_type_partial_charge
Zn0 Zn 0.19986 0.82848 0.08304 0.0
Zn1 Zn 0.14726 0.84744 0.91607 0.0
Zn2 Zn 0.17479 0.84192 0.97742 0.0
C3 C 0.16726 0.89905 0.9298 0.0
C4 C 0.11123 0.82777 0.97356 0.0
O5 O 0.20668 0.81065 0.97728 0.0
O6 O 0.20537 0.8271 0.02976 0.0
C7 C 0.20772 0.8813 0.01946 0.0
O8 O 0.17816 0.88479 0.9571 0.0
O9 O 0.15286 0.88766 0.90629 0.0
O10 O 0.11146 0.83433 0.93953 0.0
O11 O 0.13338 0.82994 0.99279 0.0
O12 O 0.20469 0.86131 0.04334 0.0
O13 O 0.19646 0.87957 0.98789 0.0
O14 O 0.14898 0.83623 0.02948 0.0
O15 O 0.15762 0.82597 0.08967 0.0
C16 C 0.14063 0.83169 0.06315 0.0
O17 O 0.19399 0.81151 0.94294 0.0
O18 O 0.17083 0.82093 0.89124 0.0
C19 C 0.2153 0.80942 0.01022 0.0
C20 C 0.18938 0.80723 0.90914 0.0
Zn21 Zn 0.70288 0.64444 0.49669 0.0
Zn22 Zn 0.67342 0.65935 0.67487 0.0
Zn23 Zn 0.69172 0.65418 0.56448 0.0
C24 C 0.6841 0.60587 0.64001 0.0
C25 C 0.64403 0.67813 0.59702 0.0
O26 O 0.72763 0.68066 0.54875 0.0
O27 O 0.73269 0.67307 0.49032 0.0
C28 C 0.712 0.59637 0.54615 0.0
O29 O 0.68817 0.61805 0.60756 0.0
O30 O 0.67896 0.61867 0.66866 0.0
O31 O 0.66061 0.66877 0.62189 0.0
O32 O 0.65099 0.67372 0.56441 0.0
O33 O 0.71412 0.60603 0.51327 0.0
O34 O 0.7027 0.61134 0.57079 0.0
O35 O 0.65361 0.66158 0.53112 0.0
O36 O 0.66427 0.65067 0.47532 0.0
C37 C 0.64632 0.65795 0.49793 0.0
O38 O 0.72074 0.68406 0.58464 0.0
O39 O 0.6932 0.67204 0.6287 0.0
C40 C 0.74004 0.68555 0.51783 0.0
C41 C 0.71418 0.68587 0.61801 0.0
Zn42 Zn 0.80288 0.19175 0.98758 0.0
Zn43 Zn 0.84758 0.1614 0.10357 0.0
Zn44 Zn 0.82173 0.17893 0.04998 0.0
C45 C 0.88797 0.18102 0.06282 0.0
C46 C 0.79542 0.13873 0.10306 0.0
O47 O 0.78222 0.19629 0.06613 0.0
O48 O 0.76664 0.20353 0.00923 0.0
C49 C 0.84936 0.22534 0.99611 0.0
O50 O 0.86547 0.19308 0.05117 0.0
O51 O 0.88654 0.16005 0.08486 0.0
O52 O 0.82035 0.12998 0.10541 0.0
O53 O 0.79073 0.16328 0.08962 0.0
O54 O 0.8316 0.22037 0.97181 0.0
O55 O 0.84875 0.2116 0.02738 0.0
O56 O 0.8203 0.14 0.02711 0.0
O57 O 0.80586 0.15339 0.97167 0.0
C58 C 0.81327 0.13435 0.99492 0.0
O59 O 0.79976 0.19313 0.09907 0.0
O60 O 0.83683 0.19264 0.13497 0.0
C61 C 0.76293 0.20438 0.04335 0.0
C62 C 0.81192 0.20033 0.12852 0.0
Zn63 Zn 0.3024 0.31367 0.59453 0.0
Zn64 Zn 0.37155 0.32868 0.46051 0.0
Zn65 Zn 0.34148 0.30928 0.50128 0.0
C66 C 0.40438 0.30104 0.50761 0.0
C67 C 0.31862 0.35128 0.45041 0.0
O68 O 0.30034 0.29669 0.48297 0.0
O69 O 0.30115 0.3032 0.54073 0.0
C70 C 0.34754 0.27508 0.56297 0.0
O71 O 0.38152 0.28749 0.50646 0.0
O72 O 0.40446 0.32585 0.49528 0.0
O73 O 0.3431 0.3599 0.45612 0.0
O74 O 0.31326 0.32581 0.45775 0.0
O75 O 0.32656 0.29081 0.56316 0.0
O76 O 0.359 0.27382 0.53188 0.0
O77 O 0.33947 0.34601 0.53207 0.0
O78 O 0.31869 0.35224 0.58595 0.0
C79 C 0.3331 0.3612 0.55812 0.0
O80 O 0.32213 0.29694 0.4509 0.0
O81 O 0.36458 0.29611 0.42821 0.0
C82 C 0.28708 0.29681 0.51318 0.0
C83 C 0.33938 0.2882 0.42737 0.0
C84 C 0.10875 0.19756 0.02366 0.0
C85 C 0.08779 0.19788 0.05066 0.0
C86 C 0.09584 0.19265 0.08765 0.0
C87 C 0.1237 0.18749 0.09725 0.0
H88 H 0.18897 0.20367 0.17992 0.0
H89 H 0.21376 0.21839 0.23358 0.0
H90 H 0.29238 0.20935 0.1778 0.0
H91 H 0.26768 0.19326 0.12552 0.0
H92 H 0.2607 0.12516 0.10091 0.0
H93 H 0.2761 0.07888 0.09172 0.0
H94 H 0.20778 0.06952 0.01658 0.0
H95 H 0.1919 0.11591 0.02587 0.0
H96 H 0.15207 0.1907 0.01198 0.0
H97 H 0.10388 0.20203 0.99498 0.0
H98 H 0.08067 0.19166 0.10949 0.0
H99 H 0.1291 0.18334 0.12588 0.0
N100 N 0.18594 0.19167 0.10796 0.0
N101 N 0.22498 0.16327 0.10301 0.0
N102 N 0.18608 0.15798 0.06525 0.0
C103 C 0.21222 0.18419 0.11865 0.0
C104 C 0.21208 0.14983 0.07659 0.0
C105 C 0.17306 0.179 0.08066 0.0
C106 C 0.22646 0.19703 0.14882 0.0
C107 C 0.21153 0.20517 0.17915 0.0
C108 C 0.22577 0.21365 0.20985 0.0
C109 C 0.25518 0.21455 0.21045 0.0
C110 C 0.26983 0.20801 0.17898 0.0
C111 C 0.25567 0.19903 0.14879 0.0
C112 C 0.22465 0.12419 0.06469 0.0
C113 C 0.24918 0.11361 0.08176 0.0
C114 C 0.25812 0.08705 0.07653 0.0
C115 C 0.24303 0.07061 0.05371 0.0
C116 C 0.21991 0.08187 0.03417 0.0
C117 C 0.21073 0.1084 0.0397 0.0
C118 C 0.14414 0.18634 0.07018 0.0
C119 C 0.1365 0.19133 0.03331 0.0
C120 C 0.37127 0.57726 0.56202 0.0
C121 C 0.34751 0.56064 0.56735 0.0
C122 C 0.32352 0.57183 0.58271 0.0
C123 C 0.32365 0.59857 0.59369 0.0
H124 H 0.30716 0.6415 0.69572 0.0
H125 H 0.2813 0.65565 0.74904 0.0
H126 H 0.28758 0.74001 0.70706 0.0
H127 H 0.31377 0.72608 0.65447 0.0
H128 H 0.38868 0.72937 0.64276 0.0
H129 H 0.43533 0.74907 0.64325 0.0
H130 H 0.46088 0.69671 0.55947 0.0
H131 H 0.41438 0.67705 0.55872 0.0
H132 H 0.39023 0.61599 0.56878 0.0
H133 H 0.39027 0.56931 0.55081 0.0
H134 H 0.30463 0.55986 0.58653 0.0
H135 H 0.30498 0.60634 0.60598 0.0
N136 N 0.32951 0.65021 0.62776 0.0
N137 N 0.35291 0.69193 0.6318 0.0
N138 N 0.37008 0.65972 0.5934 0.0
C139 C 0.33145 0.67502 0.64193 0.0
C140 C 0.37234 0.68447 0.60757 0.0
C141 C 0.34864 0.64257 0.60303 0.0
C142 C 0.31242 0.68273 0.67104 0.0
C143 C 0.30253 0.663 0.69764 0.0
C144 C 0.288 0.67105 0.7282 0.0
C145 C 0.28257 0.69887 0.73203 0.0
C146 C 0.29138 0.71842 0.70459 0.0
C147 C 0.30638 0.71046 0.67458 0.0
C148 C 0.39797 0.70106 0.60137 0.0
C149 C 0.40397 0.72256 0.62367 0.0
C150 C 0.4307 0.7339 0.62401 0.0
C151 C 0.45183 0.72419 0.6018 0.0
C152 C 0.44501 0.70476 0.57681 0.0
C153 C 0.41836 0.69327 0.57663 0.0
C154 C 0.34766 0.6149 0.58916 0.0
C155 C 0.37129 0.60408 0.57258 0.0
C156 C 0.83094 0.85323 0.38687 0.0
C157 C 0.84752 0.83029 0.39733 0.0
C158 C 0.87078 0.8245 0.3759 0.0
C159 C 0.87633 0.84031 0.34346 0.0
H160 H 0.93711 0.86121 0.26118 0.0
H161 H 0.97801 0.85396 0.22367 0.0
H162 H 0.93067 0.87982 0.12647 0.0
H163 H 0.89024 0.88818 0.16411 0.0
H164 H 0.83509 0.92433 0.17491 0.0
H165 H 0.80336 0.96041 0.1517 0.0
H166 H 0.77251 0.96837 0.26107 0.0
H167 H 0.80435 0.9322 0.28456 0.0
H168 H 0.82246 0.8858 0.34634 0.0
H169 H 0.81273 0.85808 0.40266 0.0
H170 H 0.88407 0.80708 0.38353 0.0
H171 H 0.89381 0.83459 0.32693 0.0
N172 N 0.884 0.87032 0.27338 0.0
N173 N 0.86601 0.89932 0.2252 0.0
N174 N 0.84206 0.89406 0.28097 0.0
C175 C 0.88619 0.88178 0.23862 0.0
C176 C 0.84392 0.90565 0.24623 0.0
C177 C 0.86194 0.87627 0.29471 0.0
C178 C 0.91049 0.87557 0.21568 0.0
C179 C 0.93541 0.86522 0.23177 0.0
C180 C 0.95884 0.86089 0.2102 0.0
C181 C 0.95779 0.8665 0.17199 0.0
C182 C 0.9325 0.8759 0.15587 0.0
C183 C 0.90923 0.88059 0.17745 0.0
C184 C 0.82256 0.92557 0.23169 0.0
C185 C 0.82132 0.93347 0.19403 0.0
C186 C 0.80286 0.95395 0.18062 0.0
C187 C 0.78538 0.96716 0.20457 0.0
C188 C 0.78577 0.95854 0.24201 0.0
C189 C 0.80404 0.93783 0.25541 0.0
C190 C 0.8586 0.86214 0.33163 0.0
C191 C 0.83639 0.86896 0.35434 0.0
C192 C 0.62218 0.33034 0.94497 0.0
C193 C 0.61071 0.30713 0.9641 0.0
C194 C 0.58591 0.29599 0.95095 0.0
C195 C 0.57366 0.30697 0.9184 0.0
H196 H 0.52335 0.28353 0.82765 0.0
H197 H 0.48627 0.26077 0.79482 0.0
H198 H 0.46818 0.33679 0.73207 0.0
H199 H 0.50511 0.35933 0.76429 0.0
H200 H 0.55942 0.39681 0.74574 0.0
H201 H 0.58398 0.43078 0.70672 0.0
H202 H 0.65691 0.42081 0.77635 0.0
H203 H 0.63186 0.38724 0.81635 0.0
H204 H 0.61998 0.35863 0.89787 0.0
H205 H 0.64148 0.33921 0.95402 0.0
H206 H 0.57645 0.27824 0.96525 0.0
H207 H 0.55502 0.29735 0.90855 0.0
N208 N 0.5516 0.32755 0.84799 0.0
N209 N 0.55511 0.3566 0.79448 0.0
N210 N 0.58822 0.35937 0.84123 0.0
C211 C 0.54161 0.33632 0.81441 0.0
C212 C 0.57849 0.36815 0.8075 0.0
C213 C 0.57475 0.33924 0.86182 0.0
C214 C 0.51719 0.32316 0.79835 0.0
C215 C 0.51109 0.29542 0.80727 0.0
C216 C 0.49003 0.28238 0.78843 0.0
C217 C 0.47439 0.29705 0.76102 0.0
C218 C 0.47971 0.32505 0.75336 0.0
C219 C 0.50099 0.33791 0.77163 0.0
C220 C 0.59362 0.38927 0.78428 0.0
C221 C 0.58071 0.40177 0.75282 0.0
C222 C 0.59495 0.42112 0.73014 0.0
C223 C 0.6226 0.42836 0.73804 0.0
C224 C 0.63556 0.41589 0.76955 0.0
C225 C 0.6212 0.39662 0.79249 0.0
C226 C 0.586 0.32929 0.89821 0.0
C227 C 0.60998 0.34129 0.91244 0.0
C228 C 0.61583 0.27755 0.5693 0.0
C229 C 0.59968 0.26005 0.54902 0.0
C230 C 0.61242 0.24699 0.52047 0.0
C231 C 0.63997 0.25312 0.51039 0.0
H232 H 0.69392 0.24443 0.42787 0.0
H233 H 0.70618 0.23164 0.36718 0.0
H234 H 0.76803 0.29574 0.3581 0.0
H235 H 0.75598 0.30862 0.41936 0.0
H236 H 0.74785 0.358 0.47358 0.0
H237 H 0.75687 0.40415 0.49161 0.0
H238 H 0.71603 0.38437 0.59502 0.0
H239 H 0.70704 0.3382 0.57726 0.0
H240 H 0.65465 0.29837 0.57438 0.0
H241 H 0.60671 0.28756 0.59185 0.0
H242 H 0.60054 0.2335 0.50417 0.0
H243 H 0.64855 0.24388 0.48688 0.0
N244 N 0.69229 0.2744 0.48176 0.0
N245 N 0.72608 0.3091 0.47871 0.0
N246 N 0.69402 0.30558 0.52712 0.0
C247 C 0.71444 0.28685 0.46447 0.0
C248 C 0.7161 0.31843 0.5103 0.0
C249 C 0.68198 0.28355 0.51314 0.0
C250 C 0.72377 0.27777 0.42859 0.0
C251 C 0.71027 0.25581 0.41322 0.0
C252 C 0.71716 0.24853 0.37822 0.0
C253 C 0.7378 0.26291 0.35762 0.0
C254 C 0.75206 0.28423 0.37335 0.0
C255 C 0.74508 0.29164 0.40843 0.0
C256 C 0.72631 0.34449 0.52371 0.0
C257 C 0.74133 0.36323 0.5005 0.0
C258 C 0.74639 0.38972 0.51074 0.0
C259 C 0.73683 0.39793 0.54453 0.0
C260 C 0.72371 0.37861 0.56887 0.0
C261 C 0.71841 0.35219 0.55852 0.0
C262 C 0.65533 0.27251 0.52863 0.0
C263 C 0.64335 0.28369 0.55926 0.0
C264 C 0.16126 0.21957 0.6937 0.0
C265 C 0.14525 0.23898 0.67246 0.0
C266 C 0.12004 0.24818 0.68703 0.0
C267 C 0.11152 0.2388 0.72225 0.0
H268 H 0.0862 0.21283 0.90897 0.0
H269 H 0.04844 0.23229 0.94251 0.0
H270 H 0.01929 0.27638 0.84323 0.0
H271 H 0.05721 0.25657 0.80919 0.0
H272 H 0.10218 0.15028 0.89376 0.0
H273 H 0.11379 0.10473 0.91885 0.0
H274 H 0.17389 0.09676 0.83239 0.0
H275 H 0.16134 0.1424 0.80614 0.0
H276 H 0.16565 0.19528 0.74426 0.0
H277 H 0.18115 0.21246 0.68405 0.0
H278 H 0.10691 0.26278 0.67137 0.0
H279 H 0.09217 0.2465 0.73281 0.0
N280 N 0.10171 0.22553 0.80037 0.0
N281 N 0.10449 0.19291 0.85027 0.0
N282 N 0.12937 0.1861 0.79681 0.0
C283 C 0.09445 0.21706 0.83522 0.0
C284 C 0.12182 0.17724 0.83137 0.0
C285 C 0.11939 0.21023 0.78114 0.0
C286 C 0.07437 0.2327 0.85621 0.0
C287 C 0.07202 0.22698 0.89426 0.0
C288 C 0.05046 0.23836 0.91367 0.0
C289 C 0.0306 0.25558 0.8955 0.0
C290 C 0.03406 0.26284 0.85789 0.0
C291 C 0.05584 0.25159 0.83843 0.0
C292 C 0.13075 0.15007 0.84778 0.0
C293 C 0.11805 0.13902 0.88009 0.0
C294 C 0.12488 0.11282 0.89474 0.0
C295 C 0.14489 0.09699 0.87781 0.0
C296 C 0.1581 0.10823 0.84589 0.0
C297 C 0.15103 0.13446 0.83095 0.0
C298 C 0.12779 0.21967 0.74346 0.0
C299 C 0.15251 0.20987 0.72856 0.0
C300 C 0.33021 0.695 0.20605 0.0
C301 C 0.32652 0.68321 0.17231 0.0
C302 C 0.33703 0.65662 0.16894 0.0
C303 C 0.34903 0.64167 0.19893 0.0
H304 H 0.30881 0.57466 0.27016 0.0
H305 H 0.28342 0.53271 0.28896 0.0
H306 H 0.33826 0.51937 0.3825 0.0
H307 H 0.36307 0.56107 0.36445 0.0
H308 H 0.40795 0.6001 0.37987 0.0
H309 H 0.44803 0.60934 0.41709 0.0
H310 H 0.46805 0.6799 0.3444 0.0
H311 H 0.42769 0.67026 0.30601 0.0
H312 H 0.34472 0.68945 0.26169 0.0
H313 H 0.32212 0.71515 0.21029 0.0
H314 H 0.33558 0.64701 0.14332 0.0
H315 H 0.35579 0.62083 0.19597 0.0
N316 N 0.34668 0.6126 0.27437 0.0
N317 N 0.37562 0.60424 0.32547 0.0
N318 N 0.38248 0.64369 0.28638 0.0
C319 C 0.35384 0.59664 0.30477 0.0
C320 C 0.39018 0.62752 0.31659 0.0
C321 C 0.3608 0.63611 0.26514 0.0
C322 C 0.33805 0.57133 0.31575 0.0
C323 C 0.31532 0.56284 0.29486 0.0
C324 C 0.30077 0.5388 0.30557 0.0
C325 C 0.30855 0.52286 0.33746 0.0
C326 C 0.33119 0.53147 0.35829 0.0
C327 C 0.34568 0.55535 0.34765 0.0
C328 C 0.4144 0.63444 0.33976 0.0
C329 C 0.42068 0.6177 0.37159 0.0
C330 C 0.44369 0.62313 0.39327 0.0
C331 C 0.46117 0.64553 0.38402 0.0
C332 C 0.45505 0.66239 0.35221 0.0
C333 C 0.43183 0.65695 0.33034 0.0
C334 C 0.35183 0.65327 0.2326 0.0
C335 C 0.34307 0.68028 0.23573 0.0
C336 C 0.81178 0.9217 0.99641 0.0
C337 C 0.79426 0.93632 0.97108 0.0
C338 C 0.77849 0.92157 0.94661 0.0
C339 C 0.78169 0.89321 0.94578 0.0
H340 H 0.83609 0.77057 0.89715 0.0
H341 H 0.82532 0.75132 0.83927 0.0
H342 H 0.75362 0.80456 0.82502 0.0
H343 H 0.7644 0.82415 0.88301 0.0
H344 H 0.86953 0.76712 0.97024 0.0
H345 H 0.91694 0.75869 0.99323 0.0
H346 H 0.90855 0.82485 0.06377 0.0
H347 H 0.8611 0.83325 0.04167 0.0
H348 H 0.82936 0.88317 0.01493 0.0
H349 H 0.82446 0.93221 0.01548 0.0
H350 H 0.7642 0.93203 0.92732 0.0
H351 H 0.77012 0.88271 0.92556 0.0
N352 N 0.79878 0.83701 0.93557 0.0
N353 N 0.82826 0.7997 0.952 0.0
N354 N 0.82698 0.83721 0.98793 0.0
C355 C 0.80881 0.8118 0.92896 0.0
C356 C 0.83726 0.81217 0.9818 0.0
C357 C 0.80779 0.84983 0.96518 0.0
C358 C 0.80111 0.79897 0.89482 0.0
C359 C 0.81789 0.77813 0.88192 0.0
C360 C 0.8119 0.76721 0.84857 0.0
C361 C 0.78877 0.77658 0.82756 0.0
C362 C 0.77156 0.79693 0.84075 0.0
C363 C 0.77779 0.80817 0.8739 0.0
C364 C 0.86177 0.80143 0.00324 0.0
C365 C 0.87726 0.77918 0.99175 0.0
C366 C 0.90433 0.77414 0.0051 0.0
C367 C 0.91616 0.7912 0.03009 0.0
C368 C 0.89965 0.81135 0.04468 0.0
C369 C 0.87256 0.81626 0.03164 0.0
C370 C 0.80053 0.8789 0.96968 0.0
C371 C 0.81473 0.8934 0.99588 0.0
H372 H 0.22527 0.92628 0.97502 0.0
H373 H 0.21998 0.89409 0.08845 0.0
H374 H 0.23768 0.93747 0.10855 0.0
H375 H 0.29103 0.96886 0.99323 0.0
H376 H 0.28064 0.99596 0.96007 0.0
H377 H 0.27185 0.96096 0.95289 0.0
H378 H 0.21825 0.97323 0.94842 0.0
H379 H 0.22944 0.00795 0.95119 0.0
H380 H 0.20418 0.99396 0.9833 0.0
H381 H 0.24728 0.98552 0.11753 0.0
H382 H 0.24781 0.03583 0.11433 0.0
H383 H 0.24875 0.03825 0.9958 0.0
C384 C 0.22836 0.9283 0.004 0.0
C385 C 0.22108 0.9068 0.03015 0.0
C386 C 0.22546 0.91014 0.06784 0.0
C387 C 0.23568 0.93472 0.07961 0.0
C388 C 0.24214 0.95568 0.05339 0.0
C389 C 0.23908 0.95274 0.01631 0.0
C390 C 0.24645 0.97925 0.99431 0.0
C391 C 0.27414 0.97606 0.97393 0.0
C392 C 0.22312 0.98906 0.96769 0.0
C393 C 0.24988 0.99827 0.0249 0.0
C394 C 0.24877 0.98388 0.05875 0.0
C395 C 0.24889 0.99698 0.09124 0.0
C396 C 0.24915 0.02559 0.08915 0.0
C397 C 0.24857 0.04082 0.05481 0.0
C398 C 0.24963 0.02698 0.02233 0.0
H399 H 0.60726 0.70473 0.54896 0.0
H400 H 0.6217 0.68323 0.66452 0.0
H401 H 0.57659 0.70401 0.67911 0.0
H402 H 0.56685 0.77092 0.56453 0.0
H403 H 0.54397 0.76591 0.52642 0.0
H404 H 0.57989 0.75483 0.52526 0.0
H405 H 0.5638 0.70602 0.51342 0.0
H406 H 0.52818 0.71713 0.51383 0.0
H407 H 0.53908 0.68872 0.54451 0.0
H408 H 0.52758 0.71885 0.68056 0.0
H409 H 0.47722 0.72306 0.66836 0.0
H410 H 0.4936 0.73615 0.55208 0.0
C411 C 0.60109 0.70486 0.57735 0.0
C412 C 0.61783 0.6922 0.60561 0.0
C413 C 0.60918 0.69279 0.64244 0.0
C414 C 0.58371 0.7048 0.65104 0.0
C415 C 0.56738 0.71666 0.62256 0.0
C416 C 0.57578 0.71702 0.58643 0.0
C417 C 0.55299 0.72854 0.56084 0.0
C418 C 0.56143 0.75673 0.54323 0.0
C419 C 0.5456 0.70886 0.53145 0.0
C420 C 0.52941 0.73118 0.58784 0.0
C421 C 0.53861 0.72564 0.62346 0.0
C422 C 0.52023 0.72392 0.65292 0.0
C423 C 0.49159 0.72644 0.6457 0.0
C424 C 0.48157 0.73005 0.60924 0.0
C425 C 0.50082 0.73369 0.58018 0.0
H426 H 0.78844 0.12282 0.17362 0.0
H427 H 0.75671 0.11175 0.06527 0.0
H428 H 0.73668 0.06722 0.08736 0.0
H429 H 0.81646 0.06546 0.1876 0.0
H430 H 0.80938 0.05765 0.23555 0.0
H431 H 0.80958 0.09247 0.21735 0.0
H432 H 0.75924 0.09961 0.24029 0.0
H433 H 0.759 0.0647 0.25968 0.0
H434 H 0.73186 0.07668 0.22823 0.0
H435 H 0.73702 0.01933 0.1134 0.0
H436 H 0.75312 0.97498 0.14241 0.0
H437 H 0.7847 0.01601 0.23478 0.0
C438 C 0.77543 0.11176 0.15548 0.0
C439 C 0.77336 0.12071 0.11821 0.0
C440 C 0.75757 0.10551 0.09425 0.0
C441 C 0.74635 0.08006 0.10662 0.0
C442 C 0.75114 0.07034 0.14295 0.0
C443 C 0.76457 0.08621 0.16746 0.0
C444 C 0.77226 0.06947 0.20247 0.0
C445 C 0.80376 0.07137 0.21116 0.0
C446 C 0.75452 0.07813 0.23457 0.0
C447 C 0.76419 0.0412 0.19221 0.0
C448 C 0.75114 0.04215 0.15833 0.0
C449 C 0.74621 0.01838 0.14049 0.0
C450 C 0.7556 0.99327 0.15702 0.0
C451 C 0.76981 0.99211 0.19106 0.0
C452 C 0.77304 0.01624 0.20938 0.0
H453 H 0.34567 0.29931 0.6273 0.0
H454 H 0.3864 0.2343 0.57337 0.0
H455 H 0.4194 0.22745 0.6254 0.0
H456 H 0.40519 0.32911 0.6531 0.0
H457 H 0.39273 0.33987 0.69619 0.0
H458 H 0.36846 0.3352 0.65969 0.0
H459 H 0.34003 0.30092 0.70198 0.0
H460 H 0.36413 0.30566 0.73892 0.0
H461 H 0.35734 0.27178 0.72493 0.0
H462 H 0.4518 0.23238 0.67861 0.0
H463 H 0.48236 0.25041 0.72581 0.0
H464 H 0.42128 0.3135 0.74318 0.0
C465 C 0.36066 0.28277 0.62721 0.0
C466 C 0.36323 0.26696 0.59671 0.0
C467 C 0.38397 0.24637 0.59678 0.0
C468 C 0.40269 0.24229 0.62626 0.0
C469 C 0.40027 0.25897 0.65541 0.0
C470 C 0.3797 0.27878 0.65608 0.0
C471 C 0.38406 0.29686 0.68738 0.0
C472 C 0.38784 0.32702 0.67323 0.0
C473 C 0.35995 0.2936 0.71494 0.0
C474 C 0.41086 0.2848 0.70349 0.0
C475 C 0.41955 0.26254 0.68529 0.0
C476 C 0.44491 0.24941 0.69354 0.0
C477 C 0.46209 0.25972 0.72044 0.0
C478 C 0.45401 0.28319 0.7382 0.0
C479 C 0.42778 0.29537 0.73019 0.0
H480 H 0.70525 0.55576 0.5009 0.0
H481 H 0.73499 0.57127 0.60935 0.0
H482 H 0.74502 0.52166 0.62183 0.0
H483 H 0.67259 0.49173 0.52438 0.0
H484 H 0.6827 0.47728 0.48249 0.0
H485 H 0.67763 0.51363 0.48323 0.0
H486 H 0.72777 0.52198 0.45828 0.0
H487 H 0.73306 0.48564 0.4575 0.0
H488 H 0.75697 0.50582 0.48242 0.0
H489 H 0.75053 0.46924 0.62172 0.0
H490 H 0.7526 0.42028 0.60848 0.0
H491 H 0.72125 0.44145 0.49888 0.0
C492 C 0.71402 0.54879 0.52726 0.0
C493 C 0.71887 0.56717 0.55447 0.0
C494 C 0.73053 0.55732 0.58849 0.0
C495 C 0.73642 0.52926 0.59566 0.0
C496 C 0.73102 0.5116 0.56819 0.0
C497 C 0.72026 0.52117 0.53459 0.0
C498 C 0.71651 0.49846 0.50929 0.0
C499 C 0.68552 0.49508 0.49928 0.0
C500 C 0.73467 0.50327 0.47485 0.0
C501 C 0.72697 0.47445 0.53366 0.0
C502 C 0.73506 0.48222 0.56768 0.0
C503 C 0.74449 0.46306 0.59504 0.0
C504 C 0.74557 0.43534 0.58733 0.0
C505 C 0.73755 0.42719 0.55245 0.0
C506 C 0.72823 0.44713 0.52545 0.0
H507 H 0.86994 0.23785 0.92787 0.0
H508 H 0.88563 0.249 0.04248 0.0
H509 H 0.93283 0.26635 0.02699 0.0
H510 H 0.93183 0.20984 0.91179 0.0
H511 H 0.9364 0.2247 0.86571 0.0
H512 H 0.90189 0.22 0.88401 0.0
H513 H 0.89121 0.27162 0.87034 0.0
H514 H 0.92571 0.27652 0.85143 0.0
H515 H 0.91422 0.29674 0.88777 0.0
H516 H 0.98083 0.27331 0.00085 0.0
H517 H 0.02481 0.27063 0.96621 0.0
H518 H 0.97748 0.25423 0.86903 0.0
C519 C 0.88276 0.24522 0.94949 0.0
C520 C 0.87409 0.24226 0.98632 0.0
C521 C 0.89183 0.25128 0.01401 0.0
C522 C 0.91866 0.26123 0.00545 0.0
C523 C 0.92721 0.26237 0.96901 0.0
C524 C 0.90959 0.25497 0.9414 0.0
C525 C 0.92485 0.25425 0.9054 0.0
C526 C 0.92368 0.2255 0.89092 0.0
C527 C 0.91331 0.2761 0.87706 0.0
C528 C 0.95406 0.26127 0.91731 0.0
C529 C 0.95499 0.26628 0.95395 0.0
C530 C 0.98024 0.27016 0.97193 0.0
C531 C 0.00513 0.26844 0.95208 0.0
C532 C 0.00458 0.26263 0.91471 0.0
C533 C 0.9786 0.25969 0.89712 0.0
H534 H 0.30039 0.39791 0.47573 0.0
H535 H 0.29558 0.34858 0.38283 0.0
H536 H 0.27899 0.3888 0.34404 0.0
H537 H 0.23968 0.44952 0.4425 0.0
H538 H 0.25895 0.47676 0.46148 0.0
H539 H 0.25959 0.44281 0.48406 0.0
H540 H 0.31301 0.44368 0.4821 0.0
H541 H 0.31337 0.47684 0.45842 0.0
H542 H 0.33085 0.44876 0.4388 0.0
H543 H 0.27914 0.43543 0.31278 0.0
H544 H 0.29234 0.48284 0.29313 0.0
H545 H 0.29463 0.50273 0.40648 0.0
C546 C 0.2939 0.39536 0.44781 0.0
C547 C 0.29861 0.37037 0.43217 0.0
C548 C 0.29126 0.36752 0.39532 0.0
C549 C 0.28194 0.39033 0.37313 0.0
C550 C 0.27952 0.41547 0.38864 0.0
C551 C 0.28435 0.41788 0.42561 0.0
C552 C 0.28503 0.44759 0.4345 0.0
C553 C 0.25927 0.45458 0.45695 0.0
C554 C 0.31221 0.45461 0.45452 0.0
C555 C 0.28352 0.46149 0.39631 0.0
C556 C 0.27925 0.44278 0.37029 0.0
C557 C 0.28138 0.45039 0.33292 0.0
C558 C 0.28892 0.47742 0.32196 0.0
C559 C 0.29456 0.49647 0.34832 0.0
C560 C 0.29047 0.48859 0.38576 0.0
H561 H 0.06047 0.84995 0.95935 0.0
H562 H 0.1026 0.78591 0.02629 0.0
H563 H 0.057 0.77055 0.05262 0.0
H564 H 0.00837 0.86602 0.02669 0.0
H565 H 0.98163 0.87258 0.9925 0.0
H566 H 0.01778 0.87878 0.98108 0.0
H567 H 0.01353 0.84672 0.92794 0.0
H568 H 0.9775 0.8404 0.9393 0.0
H569 H 0.00147 0.81212 0.93757 0.0
H570 H 0.00526 0.75956 0.06586 0.0
H571 H 0.95333 0.75643 0.06801 0.0
H572 H 0.94726 0.8299 0.99536 0.0
C573 C 0.06007 0.83278 0.97971 0.0
C574 C 0.08477 0.81898 0.99084 0.0
C575 C 0.08368 0.79671 0.01762 0.0
C576 C 0.05796 0.78793 0.03268 0.0
C577 C 0.03379 0.80197 0.02089 0.0
C578 C 0.03481 0.82414 0.99529 0.0
C579 C 0.00614 0.83546 0.98618 0.0
C580 C 0.00331 0.86498 0.99726 0.0
C581 C 0.99927 0.83354 0.94534 0.0
C582 C 0.9886 0.81599 0.01015 0.0
C583 C 0.0047 0.79662 0.02989 0.0
C584 C 0.99252 0.77504 0.05126 0.0
C585 C 0.96317 0.77335 0.05234 0.0
C586 C 0.94671 0.7933 0.0325 0.0
C587 C 0.9596 0.81489 0.01155 0.0
H588 H 0.81327 0.08692 0.04059 0.0
H589 H 0.80925 0.11708 0.92616 0.0
H590 H 0.8023 0.07011 0.90838 0.0
H591 H 0.85129 0.02463 0.02347 0.0
H592 H 0.83373 0.00416 0.05926 0.0
H593 H 0.83847 0.0403 0.06321 0.0
H594 H 0.78566 0.0454 0.07239 0.0
H595 H 0.78004 0.00962 0.06711 0.0
H596 H 0.76159 0.03494 0.03805 0.0
H597 H 0.79523 0.02055 0.9025 0.0
H598 H 0.79139 0.97043 0.9085 0.0
H599 H 0.79888 0.97157 0.02673 0.0
C600 C 0.81113 0.08358 0.0118 0.0
C601 C 0.81171 0.10571 0.98476 0.0
C602 C 0.80873 0.1005 0.94738 0.0
C603 C 0.80467 0.07389 0.93697 0.0
C604 C 0.80358 0.05264 0.96423 0.0
C605 C 0.80695 0.05703 0.00084 0.0
C606 C 0.80584 0.03024 0.02433 0.0
C607 C 0.83401 0.02449 0.04371 0.0
C608 C 0.78181 0.03007 0.05207 0.0
C609 C 0.80058 0.01032 0.99521 0.0
C610 C 0.79952 0.02373 0.96077 0.0
C611 C 0.79574 0.00978 0.92936 0.0
C612 C 0.79327 0.98125 0.93313 0.0
C613 C 0.79445 0.96684 0.96812 0.0
C614 C 0.79793 0.9818 0.99955 0.0
H615 H 0.45051 0.32693 0.53136 0.0
H616 H 0.41694 0.24631 0.5169 0.0
H617 H 0.46243 0.2256 0.53574 0.0
H618 H 0.51425 0.31729 0.49355 0.0
H619 H 0.53387 0.33675 0.52473 0.0
H620 H 0.49763 0.3444 0.51628 0.0
H621 H 0.48755 0.33748 0.58588 0.0
H622 H 0.5239 0.32972 0.59459 0.0
H623 H 0.49735 0.3058 0.61073 0.0
H624 H 0.51374 0.21479 0.54611 0.0
H625 H 0.56544 0.21484 0.5488 0.0
H626 H 0.56438 0.30261 0.55752 0.0
C627 C 0.45255 0.30487 0.53288 0.0
C628 C 0.43028 0.28819 0.52268 0.0
C629 C 0.43372 0.25942 0.52491 0.0
C630 C 0.45946 0.2475 0.53562 0.0
C631 C 0.48131 0.26464 0.54455 0.0
C632 C 0.47791 0.29271 0.54377 0.0
C633 C 0.50504 0.30692 0.5516 0.0
C634 C 0.51316 0.32753 0.51964 0.0
C635 C 0.50335 0.32079 0.58786 0.0
C636 C 0.52465 0.28266 0.55483 0.0
C637 C 0.5106 0.25836 0.5513 0.0
C638 C 0.52487 0.23361 0.54975 0.0
C639 C 0.55421 0.23384 0.55111 0.0
C640 C 0.56892 0.25867 0.55388 0.0
C641 C 0.55377 0.28317 0.55662 0.0
H642 H 0.16996 0.93596 0.87002 0.0
H643 H 0.16143 0.92926 0.9882 0.0
H644 H 0.15434 0.97917 0.98761 0.0
H645 H 0.20879 0.99938 0.86336 0.0
H646 H 0.19144 0.01271 0.82207 0.0
H647 H 0.19535 0.9763 0.83142 0.0
H648 H 0.14183 0.96999 0.82536 0.0
H649 H 0.13776 0.00633 0.81567 0.0
H650 H 0.11869 0.98903 0.85284 0.0
H651 H 0.15265 0.02996 0.97496 0.0
H652 H 0.14794 0.07782 0.95011 0.0
H653 H 0.15562 0.05159 0.83972 0.0
C654 C 0.16729 0.9452 0.89578 0.0
C655 C 0.16704 0.92904 0.92928 0.0
C656 C 0.16257 0.94151 0.9624 0.0
C657 C 0.1582 0.96974 0.96227 0.0
C658 C 0.15952 0.98531 0.92896 0.0
C659 C 0.16372 0.97352 0.89627 0.0
C660 C 0.16322 0.99486 0.86421 0.0
C661 C 0.19138 0.99587 0.84408 0.0
C662 C 0.13893 0.98975 0.83798 0.0
C663 C 0.15849 0.02051 0.8841 0.0
C664 C 0.1568 0.01454 0.92146 0.0
C665 C 0.15333 0.03487 0.94568 0.0
C666 C 0.15057 0.06199 0.93124 0.0
C667 C 0.15089 0.06855 0.89286 0.0
C668 C 0.15539 0.04743 0.86915 0.0
H669 H 0.62303 0.66839 0.42935 0.0
H670 H 0.60221 0.64714 0.54311 0.0
H671 H 0.55262 0.64357 0.52624 0.0
H672 H 0.56074 0.70971 0.40618 0.0
H673 H 0.55727 0.69735 0.36121 0.0
H674 H 0.59129 0.69927 0.38209 0.0
H675 H 0.59945 0.64781 0.37378 0.0
H676 H 0.56555 0.64575 0.35274 0.0
H677 H 0.57439 0.62307 0.39206 0.0
H678 H 0.50522 0.64419 0.49814 0.0
H679 H 0.4636 0.64149 0.45887 0.0
H680 H 0.51456 0.66083 0.3626 0.0
C681 C 0.60789 0.66369 0.45078 0.0
C682 C 0.6164 0.65879 0.48771 0.0
C683 C 0.59612 0.65183 0.51484 0.0
C684 C 0.56788 0.64964 0.50551 0.0
C685 C 0.56005 0.65537 0.46913 0.0
C686 C 0.57942 0.66201 0.44207 0.0
C687 C 0.56551 0.66529 0.4047 0.0
C688 C 0.56891 0.69466 0.38754 0.0
C689 C 0.5769 0.64422 0.37933 0.0
C690 C 0.53534 0.65938 0.41506 0.0
C691 C 0.5327 0.65411 0.45246 0.0
C692 C 0.50704 0.648 0.46877 0.0
C693 C 0.48354 0.64641 0.44617 0.0
C694 C 0.4858 0.65059 0.40756 0.0
C695 C 0.51205 0.65772 0.39197 0.0
H696 H 0.31572 0.40132 0.60115 0.0
H697 H 0.36753 0.38773 0.50704 0.0
H698 H 0.37655 0.43739 0.49837 0.0
H699 H 0.28428 0.46285 0.56508 0.0
H700 H 0.28414 0.47865 0.60804 0.0
H701 H 0.28254 0.44197 0.60761 0.0
H702 H 0.3264 0.43703 0.64934 0.0
H703 H 0.32791 0.47368 0.65042 0.0
H704 H 0.35789 0.45511 0.63574 0.0
H705 H 0.3774 0.48921 0.49808 0.0
H706 H 0.3737 0.53813 0.50957 0.0
H707 H 0.3232 0.51669 0.60568 0.0
C708 C 0.32922 0.40864 0.5789 0.0
C709 C 0.3407 0.39056 0.55457 0.0
C710 C 0.3582 0.40116 0.52579 0.0
C711 C 0.36355 0.42934 0.52073 0.0
C712 C 0.35126 0.44662 0.5447 0.0
C713 C 0.33474 0.43659 0.57346 0.0
C714 C 0.32391 0.45935 0.59535 0.0
C715 C 0.29181 0.46078 0.59392 0.0
C716 C 0.33468 0.4561 0.63506 0.0
C717 C 0.33685 0.48383 0.57441 0.0
C718 C 0.35234 0.47616 0.54508 0.0
C719 C 0.36565 0.4954 0.5213 0.0
C720 C 0.36351 0.52315 0.52816 0.0
C721 C 0.3483 0.53141 0.55871 0.0
C722 C 0.3347 0.5113 0.58184 0.0
H723 H 0.10704 0.80745 0.11718 0.0
H724 H 0.10906 0.8724 0.03017 0.0
H725 H 0.06167 0.88668 0.0466 0.0
H726 H 0.03184 0.79134 0.10835 0.0
H727 H 0.0278 0.78477 0.15702 0.0
H728 H 0.06094 0.77854 0.13588 0.0
H729 H 0.08449 0.81044 0.18071 0.0
H730 H 0.05115 0.81719 0.20082 0.0
H731 H 0.07226 0.84517 0.18203 0.0
H732 H 0.01671 0.89712 0.07621 0.0
H733 H 0.9743 0.90032 0.11325 0.0
H734 H -0.00036 0.82741 0.17986 0.0
C735 C 0.09728 0.82443 0.10138 0.0
C736 C 0.11146 0.83848 0.07196 0.0
C737 C 0.09829 0.86093 0.05225 0.0
C738 C 0.07145 0.8693 0.06149 0.0
C739 C 0.05803 0.85509 0.09061 0.0
C740 C 0.07028 0.83296 0.11008 0.0
C741 C 0.05146 0.82185 0.14087 0.0
C742 C 0.04249 0.79236 0.13519 0.0
C743 C 0.06569 0.82379 0.17832 0.0
C744 C 0.027 0.8415 0.13598 0.0
C745 C 0.03134 0.86055 0.10692 0.0
C746 C 0.01263 0.88183 0.09835 0.0
C747 C 0.98849 0.88339 0.11953 0.0
C748 C 0.98322 0.86386 0.14918 0.0
C749 C 0.00289 0.84265 0.15738 0.0
H750 H 0.69566 0.5721 0.70053 0.0
H751 H 0.663 0.57238 0.58998 0.0
H752 H 0.65199 0.52326 0.60006 0.0
H753 H 0.72125 0.499 0.70987 0.0
H754 H 0.70951 0.49476 0.75666 0.0
H755 H 0.72141 0.52775 0.73793 0.0
H756 H 0.67448 0.54949 0.7559 0.0
H757 H 0.66243 0.51673 0.77455 0.0
H758 H 0.64218 0.53572 0.73972 0.0
H759 H 0.63828 0.47634 0.62487 0.0
H760 H 0.62011 0.43683 0.663 0.0
H761 H 0.65758 0.46878 0.75919 0.0
C762 C 0.68707 0.56155 0.67806 0.0
C763 C 0.68122 0.57578 0.64399 0.0
C764 C 0.66879 0.56163 0.61576 0.0
C765 C 0.66236 0.53372 0.62132 0.0
C766 C 0.66796 0.5204 0.65551 0.0
C767 C 0.67997 0.53391 0.68346 0.0
C768 C 0.67984 0.51635 0.71923 0.0
C769 C 0.70979 0.50903 0.73165 0.0
C770 C 0.66377 0.53041 0.74907 0.0
C771 C 0.66451 0.49144 0.70755 0.0
C772 C 0.65862 0.4938 0.67047 0.0
C773 C 0.643 0.47417 0.65386 0.0
C774 C 0.63251 0.45193 0.67586 0.0
C775 C 0.63717 0.44974 0.71424 0.0
C776 C 0.65403 0.46949 0.72993 0.0
H777 H 0.92845 0.20431 0.10198 0.0
H778 H 0.90889 0.17863 0.99427 0.0
H779 H 0.95782 0.18762 0.97486 0.0
H780 H 0.98109 0.25924 0.06813 0.0
H781 H 0.00228 0.25227 0.1085 0.0
H782 H 0.96486 0.24852 0.11109 0.0
H783 H 0.97127 0.19863 0.13843 0.0
H784 H 0.00854 0.20203 0.13544 0.0
H785 H 0.99124 0.17494 0.11346 0.0
H786 H 0.01038 0.18824 0.97339 0.0
H787 H 0.0606 0.18593 0.98664 0.0
H788 H 0.0454 0.21867 0.09208 0.0
C789 C 0.93443 0.20143 0.07402 0.0
C790 C 0.91533 0.19073 0.04954 0.0
C791 C 0.9235 0.18688 0.01323 0.0
C792 C 0.95114 0.192 0.00203 0.0
C793 C 0.96994 0.20164 0.02729 0.0
C794 C 0.96169 0.20715 0.06219 0.0
C795 C 0.98623 0.21563 0.08489 0.0
C796 C 0.98345 0.24571 0.09365 0.0
C797 C 0.9895 0.19667 0.1201 0.0
C798 C 0.0099 0.21185 0.05843 0.0
C799 C 0.00012 0.204 0.02525 0.0
C800 C 0.01827 0.19537 0.99873 0.0
C801 C 0.04701 0.19426 0.00658 0.0
C802 C 0.0576 0.20218 0.04054 0.0
C803 C 0.03852 0.21204 0.06602 0.0
H804 H 0.25509 0.81211 0.06264 0.0
H805 H 0.21283 0.75543 0.99576 0.0
H806 H 0.23895 0.7169 0.02747 0.0
H807 H 0.32313 0.7766 0.0656 0.0
H808 H 0.32991 0.78447 0.11212 0.0
H809 H 0.30914 0.80745 0.08247 0.0
H810 H 0.26896 0.80415 0.12981 0.0
H811 H 0.28948 0.78103 0.15947 0.0
H812 H 0.25522 0.77102 0.14494 0.0
H813 H 0.2657 0.68451 0.07141 0.0
H814 H 0.29344 0.6607 0.12039 0.0
H815 H 0.32186 0.73913 0.15488 0.0
C816 C 0.25169 0.79159 0.05438 0.0
C817 C 0.23228 0.78661 0.02657 0.0
C818 C 0.22812 0.75961 0.01648 0.0
C819 C 0.2427 0.73765 0.03451 0.0
C820 C 0.26159 0.74322 0.0621 0.0
C821 C 0.26643 0.76958 0.07159 0.0
C822 C 0.28743 0.77005 0.10256 0.0
C823 C 0.31398 0.78556 0.08992 0.0
C824 C 0.27449 0.78228 0.13617 0.0
C825 C 0.29308 0.73974 0.10979 0.0
C826 C 0.27794 0.72462 0.08625 0.0
C827 C 0.27821 0.69616 0.08938 0.0
C828 C 0.29436 0.6828 0.11728 0.0
C829 C 0.31048 0.69781 0.1416 0.0
C830 C 0.30986 0.72677 0.13723 0.0
H831 H 0.69569 0.70504 0.68135 0.0
H832 H 0.769 0.70224 0.6125 0.0
H833 H 0.79606 0.72677 0.65778 0.0
H834 H 0.70819 0.77258 0.71269 0.0
H835 H 0.69514 0.76334 0.75801 0.0
H836 H 0.68167 0.74664 0.71943 0.0
H837 H 0.69467 0.69942 0.75149 0.0
H838 H 0.70822 0.71594 0.79013 0.0
H839 H 0.73013 0.69303 0.76655 0.0
H840 H 0.81558 0.74887 0.71314 0.0
H841 H 0.82538 0.76901 0.77192 0.0
H842 H 0.73865 0.75794 0.80322 0.0
C843 C 0.71743 0.70963 0.67572 0.0
C844 C 0.73034 0.70173 0.64352 0.0
C845 C 0.75871 0.70835 0.6369 0.0
C846 C 0.77422 0.72215 0.66253 0.0
C847 C 0.76089 0.72935 0.69431 0.0
C848 C 0.73304 0.72352 0.70074 0.0
C849 C 0.72356 0.73314 0.73705 0.0
C850 C 0.70079 0.75524 0.73144 0.0
C851 C 0.71357 0.70894 0.76282 0.0
C852 C 0.75054 0.74497 0.75048 0.0
C853 C 0.77187 0.74255 0.72552 0.0
C854 C 0.79897 0.75107 0.73268 0.0
C855 C 0.80437 0.76234 0.76617 0.0
C856 C 0.78273 0.76514 0.79196 0.0
C857 C 0.75548 0.75644 0.78378 0.0
H858 H 0.83212 0.2224 0.19011 0.0
H859 H 0.75513 0.20497 0.13352 0.0
H860 H 0.72798 0.22258 0.18383 0.0
H861 H 0.80843 0.19975 0.27782 0.0
H862 H 0.82671 0.22534 0.30154 0.0
H863 H 0.84025 0.2145 0.25914 0.0
H864 H 0.84007 0.2647 0.23156 0.0
H865 H 0.82664 0.27575 0.27398 0.0
H866 H 0.80822 0.28438 0.23169 0.0
H867 H 0.70916 0.23864 0.24223 0.0
H868 H 0.69986 0.25228 0.30459 0.0
H869 H 0.789 0.25773 0.32463 0.0
C870 C 0.80955 0.22277 0.18797 0.0
C871 C 0.79576 0.21299 0.15731 0.0
C872 C 0.7662 0.21325 0.156 0.0
C873 C 0.75057 0.22299 0.18466 0.0
C874 C 0.76482 0.23223 0.21461 0.0
C875 C 0.79364 0.23224 0.21648 0.0
C876 C 0.80378 0.24158 0.25281 0.0
C877 C 0.82079 0.21894 0.27408 0.0
C878 C 0.82067 0.26819 0.24716 0.0
C879 C 0.77613 0.24642 0.2713 0.0
C880 C 0.75394 0.24105 0.24868 0.0
C881 C 0.72636 0.24305 0.26012 0.0
C882 C 0.7213 0.25062 0.29568 0.0
C883 C 0.74369 0.25599 0.31954 0.0
C884 C 0.77145 0.2541 0.3069 0.0
H885 H 0.26144 0.24811 0.52391 0.0
H886 H 0.2471 0.3354 0.516 0.0
H887 H 0.2009 0.32827 0.54488 0.0
H888 H 0.18285 0.22616 0.51785 0.0
H889 H 0.18951 0.19793 0.55108 0.0
H890 H 0.21617 0.20893 0.5186 0.0
H891 H 0.2505 0.21451 0.57227 0.0
H892 H 0.22403 0.20427 0.60487 0.0
H893 H 0.24126 0.23675 0.60751 0.0
H894 H 0.16469 0.31338 0.58949 0.0
H895 H 0.14023 0.29204 0.643 0.0
H896 H 0.17595 0.21335 0.62136 0.0
C897 C 0.24757 0.26541 0.52602 0.0
C898 C 0.25705 0.29217 0.51672 0.0
C899 C 0.23951 0.31472 0.52186 0.0
C900 C 0.21332 0.31082 0.53836 0.0
C901 C 0.20508 0.2842 0.54942 0.0
C902 C 0.22143 0.26174 0.54273 0.0
C903 C 0.21043 0.23594 0.56303 0.0
C904 C 0.19905 0.21607 0.53602 0.0
C905 C 0.23289 0.2221 0.58841 0.0
C906 C 0.18699 0.24776 0.58466 0.0
C907 C 0.18373 0.27547 0.5757 0.0
C908 C 0.16627 0.29151 0.59578 0.0
C909 C 0.15235 0.27912 0.62625 0.0
C910 C 0.156 0.25089 0.63658 0.0
C911 C 0.17273 0.23497 0.61444 0.0
H912 H 0.78042 0.69015 0.46581 0.0
H913 H 0.74688 0.73049 0.5577 0.0
H914 H 0.77779 0.77 0.54278 0.0
H915 H 0.85346 0.71864 0.47008 0.0
H916 H 0.85574 0.72179 0.42084 0.0
H917 H 0.83541 0.69464 0.44339 0.0
H918 H 0.7921 0.71063 0.4048 0.0
H919 H 0.81218 0.73776 0.38232 0.0
H920 H 0.78033 0.74557 0.40556 0.0
H921 H 0.80542 0.80832 0.51068 0.0
H922 H 0.82838 0.84103 0.46567 0.0
H923 H 0.84395 0.77514 0.39552 0.0
C924 C 0.7802 0.70695 0.48347 0.0
C925 C 0.76149 0.70714 0.51312 0.0
C926 C 0.76148 0.72963 0.53531 0.0
C927 C 0.77893 0.75222 0.52696 0.0
C928 C 0.79648 0.75177 0.49667 0.0
C929 C 0.79751 0.72948 0.4756 0.0
C930 C 0.81572 0.73505 0.44227 0.0
C931 C 0.84162 0.71643 0.44429 0.0
C932 C 0.79908 0.73209 0.40667 0.0
C933 C 0.82359 0.76448 0.44669 0.0
C934 C 0.8127 0.77372 0.47849 0.0
C935 C 0.81466 0.80112 0.48621 0.0
C936 C 0.82758 0.81958 0.46045 0.0
C937 C 0.83829 0.81051 0.4274 0.0
C938 C 0.83681 0.7825 0.42107 0.0
H939 H 0.71134 0.18951 0.02442 0.0
H940 H 0.75651 0.24808 0.0845 0.0
H941 H 0.71448 0.27749 0.08431 0.0
H942 H 0.68465 0.2323 0.96404 0.0
H943 H 0.6508 0.21701 0.95857 0.0
H944 H 0.67949 0.19621 0.97527 0.0
H945 H 0.65164 0.18045 0.03349 0.0
H946 H 0.6224 0.20101 0.01664 0.0
H947 H 0.63674 0.20557 0.06136 0.0
H948 H 0.67416 0.30586 0.06124 0.0
H949 H 0.63905 0.32928 0.02048 0.0
H950 H 0.62008 0.25243 0.97448 0.0
C951 C 0.71164 0.20773 0.03949 0.0
C952 C 0.73667 0.21635 0.05525 0.0
C953 C 0.73712 0.2408 0.0734 0.0
C954 C 0.71335 0.25765 0.07321 0.0
C955 C 0.68936 0.2495 0.05508 0.0
C956 C 0.68815 0.22468 0.03928 0.0
C957 C 0.6623 0.22273 0.0157 0.0
C958 C 0.66979 0.21675 0.97609 0.0
C959 C 0.64207 0.20116 0.03284 0.0
C960 C 0.65059 0.25125 0.01768 0.0
C961 C 0.66589 0.26614 0.04144 0.0
C962 C 0.66149 0.29415 0.04352 0.0
C963 C 0.64166 0.30735 0.02004 0.0
C964 C 0.62668 0.29261 0.9945 0.0
C965 C 0.63053 0.26406 0.9945 0.0
H966 H 0.28929 0.29222 0.39095 0.0
H967 H 0.36836 0.24876 0.39564 0.0
H968 H 0.35392 0.22325 0.34296 0.0
H969 H 0.24544 0.23654 0.36134 0.0
H970 H 0.22489 0.25892 0.33058 0.0
H971 H 0.24011 0.27172 0.37103 0.0
H972 H 0.26468 0.31024 0.33101 0.0
H973 H 0.24957 0.29755 0.29047 0.0
H974 H 0.2869 0.30137 0.29401 0.0
H975 H 0.33162 0.2032 0.28988 0.0
H976 H 0.30435 0.1917 0.23624 0.0
H977 H 0.24127 0.25133 0.26164 0.0
C978 C 0.30326 0.27693 0.38121 0.0
C979 C 0.32976 0.27207 0.39745 0.0
C980 C 0.34792 0.25257 0.38353 0.0
C981 C 0.33987 0.23797 0.35378 0.0
C982 C 0.31377 0.24345 0.33798 0.0
C983 C 0.2958 0.26261 0.35092 0.0
C984 C 0.26994 0.2661 0.32698 0.0
C985 C 0.24353 0.25782 0.34879 0.0
C986 C 0.26766 0.29556 0.30959 0.0
C987 C 0.27631 0.246 0.2985 0.0
C988 C 0.30151 0.23293 0.30579 0.0
C989 C 0.31196 0.21345 0.28364 0.0
C990 C 0.29638 0.2073 0.25293 0.0
C991 C 0.2708 0.22094 0.24407 0.0
C992 C 0.26061 0.24039 0.26755 0.0
H993 H 0.18447 0.7959 0.83778 0.0
H994 H 0.23107 0.77228 0.93696 0.0
H995 H 0.25702 0.73806 0.90382 0.0
H996 H 0.17995 0.72895 0.80207 0.0
H997 H 0.18465 0.74252 0.75542 0.0
H998 H 0.16818 0.7631 0.78807 0.0
H999 H 0.20463 0.80148 0.7739 0.0
H1000 H 0.22109 0.78112 0.74113 0.0
H1001 H 0.24132 0.79349 0.77809 0.0
H1002 H 0.27901 0.70742 0.85809 0.0
H1003 H 0.29774 0.68661 0.80343 0.0
H1004 H 0.23757 0.73256 0.73492 0.0
C1005 C 0.19989 0.7834 0.85287 0.0
C1006 C 0.20536 0.78651 0.89027 0.0
C1007 C 0.22611 0.76996 0.90856 0.0
C1008 C 0.24096 0.75047 0.88991 0.0
C1009 C 0.23488 0.74796 0.85299 0.0
C1010 C 0.21496 0.76421 0.8347 0.0
C1011 C 0.21356 0.7592 0.79452 0.0
C1012 C 0.18488 0.74775 0.78444 0.0
C1013 C 0.22058 0.78537 0.77052 0.0
C1014 C 0.23616 0.73786 0.79271 0.0
C1015 C 0.24797 0.73122 0.82674 0.0
C1016 C 0.26979 0.71238 0.8314 0.0
C1017 C 0.28018 0.70058 0.80033 0.0
C1018 C 0.26897 0.70803 0.76518 0.0
C1019 C 0.24642 0.72652 0.76156 0.0
loop_
_geom_bond_atom_site_label_1
_geom_bond_atom_site_label_2
_geom_bond_distance
_geom_bond_site_symmetry_2
_ccdc_geom_bond_type
Zn0 O6 1.920 . S
Zn0 O12 1.898 . S
Zn0 O15 1.905 . S
Zn1 O9 1.905 . S
Zn1 O10 1.898 . S
Zn1 O18 1.920 . S
Zn2 O5 2.080 . S
Zn2 O8 2.114 1_554 S
Zn2 O11 2.120 1_554 S
Zn2 O13 2.120 . S
Zn2 O14 2.114 . S
Zn2 O17 2.080 1_554 S
C3 O8 1.166 . S
C3 O9 1.182 . S
C4 O10 1.167 . S
C4 O11 1.299 . S
O5 Zn2 2.080 . S
O5 C19 1.305 . S
O6 Zn0 1.920 . S
O6 C19 1.234 . S
C7 O12 1.167 . S
C7 O13 1.299 . S
O8 Zn2 2.114 1_556 S
O8 C3 1.166 . S
O9 Zn1 1.905 . S
O9 C3 1.182 . S
O10 Zn1 1.898 . S
O10 C4 1.167 . S
O11 Zn2 2.120 1_556 S
O11 C4 1.299 . S
O12 Zn0 1.898 . S
O12 C7 1.167 . S
O13 Zn2 2.120 . S
O13 C7 1.299 . S
O14 Zn2 2.114 . S
O14 C16 1.166 . S
O15 Zn0 1.905 . S
O15 C16 1.182 . S
C16 O14 1.166 . S
C16 O15 1.182 . S
O17 Zn2 2.080 1_556 S
O17 C20 1.305 . S
O18 Zn1 1.920 . S
O18 C20 1.234 . S
C19 O5 1.305 . S
C19 O6 1.234 . S
C20 O17 1.305 . S
C20 O18 1.234 . S
Zn21 O27 1.920 . S
Zn21 O33 1.898 . S
Zn21 O36 1.905 . S
Zn22 O30 1.905 . S
Zn22 O31 1.898 . S
Zn22 O39 1.920 . S
Zn23 O26 2.080 . S
Zn23 O29 2.114 . S
Zn23 O32 2.120 . S
Zn23 O34 2.120 . S
Zn23 O35 2.114 . S
Zn23 O38 2.080 . S
C24 O29 1.166 . S
C24 O30 1.182 . S
C25 O31 1.167 . S
C25 O32 1.299 . S
O26 Zn23 2.080 . S
O26 C40 1.305 . S
O27 Zn21 1.920 . S
O27 C40 1.234 . S
C28 O33 1.167 . S
C28 O34 1.299 . S
O29 Zn23 2.114 . S
O29 C24 1.166 . S
O30 Zn22 1.905 . S
O30 C24 1.182 . S
O31 Zn22 1.898 . S
O31 C25 1.167 . S
O32 Zn23 2.120 . S
O32 C25 1.299 . S
O33 Zn21 1.898 . S
O33 C28 1.167 . S
O34 Zn23 2.120 . S
O34 C28 1.299 . S
O35 Zn23 2.114 . S
O35 C37 1.166 . S
O36 Zn21 1.905 . S
O36 C37 1.182 . S
C37 O35 1.166 . S
C37 O36 1.182 . S
O38 Zn23 2.080 . S
O38 C41 1.305 . S
O39 Zn22 1.920 . S
O39 C41 1.234 . S
C40 O26 1.305 . S
C40 O27 1.234 . S
C41 O38 1.305 . S
C41 O39 1.234 . S
Zn42 O48 1.920 . S
Zn42 O54 1.898 . S
Zn42 O57 1.905 . S
Zn43 O51 1.905 . S
Zn43 O52 1.898 . S
Zn43 O60 1.920 . S
Zn44 O47 2.080 . S
Zn44 O50 2.114 . S
Zn44 O53 2.120 . S
Zn44 O55 2.120 . S
Zn44 O56 2.114 . S
Zn44 O59 2.080 . S
C45 O50 1.166 . S
C45 O51 1.182 . S
C46 O52 1.167 . S
C46 O53 1.299 . S
O47 Zn44 2.080 . S
O47 C61 1.305 . S
O48 Zn42 1.920 . S
O48 C61 1.234 1_556 S
C49 O54 1.167 . S
C49 O55 1.299 1_556 S
O50 Zn44 2.114 . S
O50 C45 1.166 . S
O51 Zn43 1.905 . S
O51 C45 1.182 . S
O52 Zn43 1.898 . S
O52 C46 1.167 . S
O53 Zn44 2.120 . S
O53 C46 1.299 . S
O54 Zn42 1.898 . S
O54 C49 1.167 . S
O55 Zn44 2.120 . S
O55 C49 1.299 1_554 S
O56 Zn44 2.114 . S
O56 C58 1.166 . S
O57 Zn42 1.905 . S
O57 C58 1.182 1_556 S
C58 O56 1.166 . S
C58 O57 1.182 1_554 S
O59 Zn44 2.080 . S
O59 C62 1.305 . S
O60 Zn43 1.920 . S
O60 C62 1.234 . S
C61 O47 1.305 . S
C61 O48 1.234 1_554 S
C62 O59 1.305 . S
C62 O60 1.234 . S
Zn63 O69 1.920 . S
Zn63 O75 1.898 . S
Zn63 O78 1.905 . S
Zn64 O72 1.905 . S
Zn64 O73 1.898 . S
Zn64 O81 1.920 . S
Zn65 O68 2.080 . S
Zn65 O71 2.114 . S
Zn65 O74 2.120 . S
Zn65 O76 2.120 . S
Zn65 O77 2.114 . S
Zn65 O80 2.080 . S
C66 O71 1.166 . S
C66 O72 1.182 . S
C67 O73 1.167 . S
C67 O74 1.299 . S
O68 Zn65 2.080 . S
O68 C82 1.305 . S
O69 Zn63 1.920 . S
O69 C82 1.234 . S
C70 O75 1.167 . S
C70 O76 1.299 . S
O71 Zn65 2.114 . S
O71 C66 1.166 . S
O72 Zn64 1.905 . S
O72 C66 1.182 . S
O73 Zn64 1.898 . S
O73 C67 1.167 . S
O74 Zn65 2.120 . S
O74 C67 1.299 . S
O75 Zn63 1.898 . S
O75 C70 1.167 . S
O76 Zn65 2.120 . S
O76 C70 1.299 . S
O77 Zn65 2.114 . S
O77 C79 1.166 . S
O78 Zn63 1.905 . S
O78 C79 1.182 . S
C79 O77 1.166 . S
C79 O78 1.182 . S
O80 Zn65 2.080 . S
O80 C83 1.305 . S
O81 Zn64 1.920 . S
O81 C83 1.234 . S
C82 O68 1.305 . S
C82 O69 1.234 . S
C83 O80 1.305 . S
C83 O81 1.234 . S
C84 C85 1.384 . S
C84 H97 0.947 . S
C84 C119 1.382 . S
C85 C84 1.384 . S
C85 C86 1.378 . S
C86 C85 1.378 . S
C86 C87 1.378 . S
C86 H98 0.952 . S
C87 C86 1.378 . S
C87 H99 0.950 . S
C87 C118 1.383 . S
H88 C107 0.947 . S
H89 C108 0.946 . S
H90 C110 0.953 . S
H91 C111 0.945 . S
H92 C113 0.952 . S
H93 C114 0.949 . S
H94 C116 0.950 . S
H95 C117 0.948 . S
H96 C119 0.951 . S
H97 C84 0.947 . S
H98 C86 0.952 . S
H99 C87 0.950 . S
N100 C103 1.382 . S
N100 C105 1.363 . S
N101 C103 1.371 . S
N101 C104 1.372 . S
N102 C104 1.361 . S
N102 C105 1.377 . S
C103 N100 1.382 . S
C103 N101 1.371 . S
C103 C106 1.480 . S
C104 N101 1.372 . S
C104 N102 1.361 . S
C104 C112 1.457 . S
C105 N100 1.363 . S
C105 N102 1.377 . S
C105 C118 1.479 . S
C106 C103 1.480 . S
C106 C107 1.383 . S
C106 C111 1.385 . S
C107 H88 0.947 . S
C107 C106 1.383 . S
C107 C108 1.388 . S
C108 H89 0.946 . S
C108 C107 1.388 . S
C108 C109 1.384 . S
C109 C108 1.384 . S
C109 C110 1.377 . S
C110 H90 0.953 . S
C110 C109 1.377 . S
C110 C111 1.369 . S
C111 H91 0.945 . S
C111 C106 1.385 . S
C111 C110 1.369 . S
C112 C104 1.457 . S
C112 C113 1.372 . S
C112 C117 1.364 . S
C113 H92 0.952 . S
C113 C112 1.372 . S
C113 C114 1.389 . S
C114 H93 0.949 . S
C114 C113 1.389 . S
C114 C115 1.387 . S
C115 C114 1.387 . S
C115 C116 1.372 . S
C116 H94 0.950 . S
C116 C115 1.372 . S
C116 C117 1.379 . S
C117 H95 0.948 . S
C117 C112 1.364 . S
C117 C116 1.379 . S
C118 C87 1.383 . S
C118 C105 1.479 . S
C118 C119 1.398 . S
C119 C84 1.382 . S
C119 H96 0.951 . S
C119 C118 1.398 . S
C120 C121 1.384 . S
C120 H133 0.947 . S
C120 C155 1.382 . S
C121 C120 1.384 . S
C121 C122 1.378 . S
C122 C121 1.378 . S
C122 C123 1.378 . S
C122 H134 0.952 . S
C123 C122 1.378 . S
C123 H135 0.950 . S
C123 C154 1.383 . S
H124 C143 0.947 . S
H125 C144 0.946 . S
H126 C146 0.953 . S
H127 C147 0.945 . S
H128 C149 0.952 . S
H129 C150 0.949 . S
H130 C152 0.950 . S
H131 C153 0.948 . S
H132 C155 0.951 . S
H133 C120 0.947 . S
H134 C122 0.952 . S
H135 C123 0.950 . S
N136 C139 1.382 . S
N136 C141 1.363 . S
N137 C139 1.371 . S
N137 C140 1.372 . S
N138 C140 1.361 . S
N138 C141 1.377 . S
C139 N136 1.382 . S
C139 N137 1.371 . S
C139 C142 1.480 . S
C140 N137 1.372 . S
C140 N138 1.361 . S
C140 C148 1.457 . S
C141 N136 1.363 . S
C141 N138 1.377 . S
C141 C154 1.479 . S
C142 C139 1.480 . S
C142 C143 1.383 . S
C142 C147 1.385 . S
C143 H124 0.947 . S
C143 C142 1.383 . S
C143 C144 1.388 . S
C144 H125 0.946 . S
C144 C143 1.388 . S
C144 C145 1.384 . S
C145 C144 1.384 . S
C145 C146 1.377 . S
C146 H126 0.953 . S
C146 C145 1.377 . S
C146 C147 1.369 . S
C147 H127 0.945 . S
C147 C142 1.385 . S
C147 C146 1.369 . S
C148 C140 1.457 . S
C148 C149 1.372 . S
C148 C153 1.364 . S
C149 H128 0.952 . S
C149 C148 1.372 . S
C149 C150 1.389 . S
C150 H129 0.949 . S
C150 C149 1.389 . S
C150 C151 1.387 . S
C151 C150 1.387 . S
C151 C152 1.372 . S
C152 H130 0.950 . S
C152 C151 1.372 . S
C152 C153 1.379 . S
C153 H131 0.948 . S
C153 C148 1.364 . S
C153 C152 1.379 . S
C154 C123 1.383 . S
C154 C141 1.479 . S
C154 C155 1.398 . S
C155 C120 1.382 . S
C155 H132 0.951 . S
C155 C154 1.398 . S
C156 C157 1.384 . S
C156 H169 0.947 . S
C156 C191 1.382 . S
C157 C156 1.384 . S
C157 C158 1.378 . S
C158 C157 1.378 . S
C158 C159 1.378 . S
C158 H170 0.952 . S
C159 C158 1.378 . S
C159 H171 0.950 . S
C159 C190 1.383 . S
H160 C179 0.947 . S
H161 C180 0.946 . S
H162 C182 0.953 . S
H163 C183 0.945 . S
H164 C185 0.952 . S
H165 C186 0.949 . S
H166 C188 0.950 . S
H167 C189 0.948 . S
H168 C191 0.951 . S
H169 C156 0.947 . S
H170 C158 0.952 . S
H171 C159 0.950 . S
N172 C175 1.382 . S
N172 C177 1.363 . S
N173 C175 1.371 . S
N173 C176 1.372 . S
N174 C176 1.361 . S
N174 C177 1.377 . S
C175 N172 1.382 . S
C175 N173 1.371 . S
C175 C178 1.480 . S
C176 N173 1.372 . S
C176 N174 1.361 . S
C176 C184 1.457 . S
C177 N172 1.363 . S
C177 N174 1.377 . S
C177 C190 1.479 . S
C178 C175 1.480 . S
C178 C179 1.383 . S
C178 C183 1.385 . S
C179 H160 0.947 . S
C179 C178 1.383 . S
C179 C180 1.388 . S
C180 H161 0.946 . S
C180 C179 1.388 . S
C180 C181 1.384 . S
C181 C180 1.384 . S
C181 C182 1.377 . S
C182 H162 0.953 . S
C182 C181 1.377 . S
C182 C183 1.369 . S
C183 H163 0.945 . S
C183 C178 1.385 . S
C183 C182 1.369 . S
C184 C176 1.457 . S
C184 C185 1.372 . S
C184 C189 1.364 . S
C185 H164 0.952 . S
C185 C184 1.372 . S
C185 C186 1.389 . S
C186 H165 0.949 . S
C186 C185 1.389 . S
C186 C187 1.387 . S
C187 C186 1.387 . S
C187 C188 1.372 . S
C188 H166 0.950 . S
C188 C187 1.372 . S
C188 C189 1.379 . S
C189 H167 0.948 . S
C189 C184 1.364 . S
C189 C188 1.379 . S
C190 C159 1.383 . S
C190 C177 1.479 . S
C190 C191 1.398 . S
C191 C156 1.382 . S
C191 H168 0.951 . S
C191 C190 1.398 . S
C192 C193 1.384 . S
C192 H205 0.947 . S
C192 C227 1.382 . S
C193 C192 1.384 . S
C193 C194 1.378 . S
C194 C193 1.378 . S
C194 C195 1.378 . S
C194 H206 0.952 . S
C195 C194 1.378 . S
C195 H207 0.950 . S
C195 C226 1.383 . S
H196 C215 0.947 . S
H197 C216 0.946 . S
H198 C218 0.953 . S
H199 C219 0.945 . S
H200 C221 0.952 . S
H201 C222 0.949 . S
H202 C224 0.950 . S
H203 C225 0.948 . S
H204 C227 0.951 . S
H205 C192 0.947 . S
H206 C194 0.952 . S
H207 C195 0.950 . S
N208 C211 1.382 . S
N208 C213 1.363 . S
N209 C211 1.371 . S
N209 C212 1.372 . S
N210 C212 1.361 . S
N210 C213 1.377 . S
C211 N208 1.382 . S
C211 N209 1.371 . S
C211 C214 1.480 . S
C212 N209 1.372 . S
C212 N210 1.361 . S
C212 C220 1.457 . S
C213 N208 1.363 . S
C213 N210 1.377 . S
C213 C226 1.479 . S
C214 C211 1.480 . S
C214 C215 1.383 . S
C214 C219 1.385 . S
C215 H196 0.947 . S
C215 C214 1.383 . S
C215 C216 1.388 . S
C216 H197 0.946 . S
C216 C215 1.388 . S
C216 C217 1.384 . S
C217 C216 1.384 . S
C217 C218 1.377 . S
C218 H198 0.953 . S
C218 C217 1.377 . S
C218 C219 1.369 . S
C219 H199 0.945 . S
C219 C214 1.385 . S
C219 C218 1.369 . S
C220 C212 1.457 . S
C220 C221 1.372 . S
C220 C225 1.364 . S
C221 H200 0.952 . S
C221 C220 1.372 . S
C221 C222 1.389 . S
C222 H201 0.949 . S
C222 C221 1.389 . S
C222 C223 1.387 . S
C223 C222 1.387 . S
C223 C224 1.372 . S
C224 H202 0.950 . S
C224 C223 1.372 . S
C224 C225 1.379 . S
C225 H203 0.948 . S
C225 C220 1.364 . S
C225 C224 1.379 . S
C226 C195 1.383 . S
C226 C213 1.479 . S
C226 C227 1.398 . S
C227 C192 1.382 . S
C227 H204 0.951 . S
C227 C226 1.398 . S
C228 C229 1.384 . S
C228 H241 0.947 . S
C228 C263 1.382 . S
C229 C228 1.384 . S
C229 C230 1.378 . S
C230 C229 1.378 . S
C230 C231 1.378 . S
C230 H242 0.952 . S
C231 C230 1.378 . S
C231 H243 0.950 . S
C231 C262 1.383 . S
H232 C251 0.947 . S
H233 C252 0.946 . S
H234 C254 0.953 . S
H235 C255 0.945 . S
H236 C257 0.952 . S
H237 C258 0.949 . S
H238 C260 0.950 . S
H239 C261 0.948 . S
H240 C263 0.951 . S
H241 C228 0.947 . S
H242 C230 0.952 . S
H243 C231 0.950 . S
N244 C247 1.382 . S
N244 C249 1.363 . S
N245 C247 1.371 . S
N245 C248 1.372 . S
N246 C248 1.361 . S
N246 C249 1.377 . S
C247 N244 1.382 . S
C247 N245 1.371 . S
C247 C250 1.480 . S
C248 N245 1.372 . S
C248 N246 1.361 . S
C248 C256 1.457 . S
C249 N244 1.363 . S
C249 N246 1.377 . S
C249 C262 1.479 . S
C250 C247 1.480 . S
C250 C251 1.383 . S
C250 C255 1.385 . S
C251 H232 0.947 . S
C251 C250 1.383 . S
C251 C252 1.388 . S
C252 H233 0.946 . S
C252 C251 1.388 . S
C252 C253 1.384 . S
C253 C252 1.384 . S
C253 C254 1.377 . S
C254 H234 0.953 . S
C254 C253 1.377 . S
C254 C255 1.369 . S
C255 H235 0.945 . S
C255 C250 1.385 . S
C255 C254 1.369 . S
C256 C248 1.457 . S
C256 C257 1.372 . S
C256 C261 1.364 . S
C257 H236 0.952 . S
C257 C256 1.372 . S
C257 C258 1.389 . S
C258 H237 0.949 . S
C258 C257 1.389 . S
C258 C259 1.387 . S
C259 C258 1.387 . S
C259 C260 1.372 . S
C260 H238 0.950 . S
C260 C259 1.372 . S
C260 C261 1.379 . S
C261 H239 0.948 . S
C261 C256 1.364 . S
C261 C260 1.379 . S
C262 C231 1.383 . S
C262 C249 1.479 . S
C262 C263 1.398 . S
C263 C228 1.382 . S
C263 H240 0.951 . S
C263 C262 1.398 . S
C264 C265 1.384 . S
C264 H277 0.947 . S
C264 C299 1.382 . S
C265 C264 1.384 . S
C265 C266 1.378 . S
C266 C265 1.378 . S
C266 C267 1.378 . S
C266 H278 0.952 . S
C267 C266 1.378 . S
C267 H279 0.950 . S
C267 C298 1.383 . S
H268 C287 0.947 . S
H269 C288 0.946 . S
H270 C290 0.953 . S
H271 C291 0.945 . S
H272 C293 0.952 . S
H273 C294 0.949 . S
H274 C296 0.950 . S
H275 C297 0.948 . S
H276 C299 0.951 . S
H277 C264 0.947 . S
H278 C266 0.952 . S
H279 C267 0.950 . S
N280 C283 1.382 . S
N280 C285 1.363 . S
N281 C283 1.371 . S
N281 C284 1.372 . S
N282 C284 1.361 . S
N282 C285 1.377 . S
C283 N280 1.382 . S
C283 N281 1.371 . S
C283 C286 1.480 . S
C284 N281 1.372 . S
C284 N282 1.361 . S
C284 C292 1.457 . S
C285 N280 1.363 . S
C285 N282 1.377 . S
C285 C298 1.479 . S
C286 C283 1.480 . S
C286 C287 1.383 . S
C286 C291 1.385 . S
C287 H268 0.947 . S
C287 C286 1.383 . S
C287 C288 1.388 1_455 S
C288 H269 0.946 . S
C288 C287 1.388 1_655 S
C288 C289 1.384 . S
C289 C288 1.384 . S
C289 C290 1.377 . S
C290 H270 0.953 . S
C290 C289 1.377 . S
C290 C291 1.369 1_655 S
C291 H271 0.945 . S
C291 C286 1.385 . S
C291 C290 1.369 1_455 S
C292 C284 1.457 . S
C292 C293 1.372 . S
C292 C297 1.364 . S
C293 H272 0.952 . S
C293 C292 1.372 . S
C293 C294 1.389 . S
C294 H273 0.949 . S
C294 C293 1.389 . S
C294 C295 1.387 . S
C295 C294 1.387 . S
C295 C296 1.372 . S
C296 H274 0.950 . S
C296 C295 1.372 . S
C296 C297 1.379 . S
C297 H275 0.948 . S
C297 C292 1.364 . S
C297 C296 1.379 . S
C298 C267 1.383 . S
C298 C285 1.479 . S
C298 C299 1.398 . S
C299 C264 1.382 . S
C299 H276 0.951 . S
C299 C298 1.398 . S
C300 C301 1.384 . S
C300 H313 0.947 . S
C300 C335 1.382 . S
C301 C300 1.384 . S
C301 C302 1.378 . S
C302 C301 1.378 . S
C302 C303 1.378 . S
C302 H314 0.952 . S
C303 C302 1.378 . S
C303 H315 0.950 . S
C303 C334 1.383 . S
H304 C323 0.947 . S
H305 C324 0.946 . S
H306 C326 0.953 . S
H307 C327 0.945 . S
H308 C329 0.952 . S
H309 C330 0.949 . S
H310 C332 0.950 . S
H311 C333 0.948 . S
H312 C335 0.951 . S
H313 C300 0.947 . S
H314 C302 0.952 . S
H315 C303 0.950 . S
N316 C319 1.382 . S
N316 C321 1.363 . S
N317 C319 1.371 . S
N317 C320 1.372 . S
N318 C320 1.361 . S
N318 C321 1.377 . S
C319 N316 1.382 . S
C319 N317 1.371 . S
C319 C322 1.480 . S
C320 N317 1.372 . S
C320 N318 1.361 . S
C320 C328 1.457 . S
C321 N316 1.363 . S
C321 N318 1.377 . S
C321 C334 1.479 . S
C322 C319 1.480 . S
C322 C323 1.383 . S
C322 C327 1.385 . S
C323 H304 0.947 . S
C323 C322 1.383 . S
C323 C324 1.388 . S
C324 H305 0.946 . S
C324 C323 1.388 . S
C324 C325 1.384 . S
C325 C324 1.384 . S
C325 C326 1.377 . S
C326 H306 0.953 . S
C326 C325 1.377 . S
C326 C327 1.369 . S
C327 H307 0.945 . S
C327 C322 1.385 . S
C327 C326 1.369 . S
C328 C320 1.457 . S
C328 C329 1.372 . S
C328 C333 1.364 . S
C329 H308 0.952 . S
C329 C328 1.372 . S
C329 C330 1.389 . S
C330 H309 0.949 . S
C330 C329 1.389 . S
C330 C331 1.387 . S
C331 C330 1.387 . S
C331 C332 1.372 . S
C332 H310 0.950 . S
C332 C331 1.372 . S
C332 C333 1.379 . S
C333 H311 0.948 . S
C333 C328 1.364 . S
C333 C332 1.379 . S
C334 C303 1.383 . S
C334 C321 1.479 . S
C334 C335 1.398 . S
C335 C300 1.382 . S
C335 H312 0.951 . S
C335 C334 1.398 . S
C336 C337 1.384 . S
C336 H349 0.947 1_556 S
C336 C371 1.382 . S
C337 C336 1.384 . S
C337 C338 1.378 . S
C338 C337 1.378 . S
C338 C339 1.378 . S
C338 H350 0.952 . S
C339 C338 1.378 . S
C339 H351 0.950 . S
C339 C370 1.383 . S
H340 C359 0.947 . S
H341 C360 0.946 . S
H342 C362 0.953 . S
H343 C363 0.945 . S
H344 C365 0.952 . S
H345 C366 0.949 . S
H346 C368 0.950 1_554 S
H347 C369 0.948 . S
H348 C371 0.951 . S
H349 C336 0.947 1_554 S
H350 C338 0.952 . S
H351 C339 0.950 . S
N352 C355 1.382 . S
N352 C357 1.363 . S
N353 C355 1.371 . S
N353 C356 1.372 . S
N354 C356 1.361 . S
N354 C357 1.377 . S
C355 N352 1.382 . S
C355 N353 1.371 . S
C355 C358 1.480 . S
C356 N353 1.372 . S
C356 N354 1.361 . S
C356 C364 1.457 . S
C357 N352 1.363 . S
C357 N354 1.377 . S
C357 C370 1.479 . S
C358 C355 1.480 . S
C358 C359 1.383 . S
C358 C363 1.385 . S
C359 H340 0.947 . S
C359 C358 1.383 . S
C359 C360 1.388 . S
C360 H341 0.946 . S
C360 C359 1.388 . S
C360 C361 1.384 . S
C361 C360 1.384 . S
C361 C362 1.377 . S
C362 H342 0.953 . S
C362 C361 1.377 . S
C362 C363 1.369 . S
C363 H343 0.945 . S
C363 C358 1.385 . S
C363 C362 1.369 . S
C364 C356 1.457 . S
C364 C365 1.372 . S
C364 C369 1.364 . S
C365 H344 0.952 . S
C365 C364 1.372 . S
C365 C366 1.389 . S
C366 H345 0.949 . S
C366 C365 1.389 . S
C366 C367 1.387 . S
C367 C366 1.387 . S
C367 C368 1.372 . S
C368 H346 0.950 1_556 S
C368 C367 1.372 . S
C368 C369 1.379 . S
C369 H347 0.948 . S
C369 C364 1.364 . S
C369 C368 1.379 . S
C370 C339 1.383 . S
C370 C357 1.479 . S
C370 C371 1.398 . S
C371 C336 1.382 . S
C371 H348 0.951 . S
C371 C370 1.398 . S
H372 C384 0.930 . S
H373 C386 0.930 . S
H374 C387 0.930 . S
H375 C391 0.959 . S
H376 C391 0.959 . S
H377 C391 0.961 . S
H378 C392 0.960 1_556 S
H379 C392 0.961 1_546 S
H380 C392 0.959 . S
H381 C395 0.929 . S
H382 C396 0.931 . S
H383 C398 0.930 . S
C384 H372 0.930 . S
C384 C385 1.399 . S
C384 C389 1.399 . S
C385 C384 1.399 . S
C385 C386 1.376 . S
C386 H373 0.930 . S
C386 C385 1.376 . S
C386 C387 1.388 . S
C387 H374 0.930 . S
C387 C386 1.388 . S
C387 C388 1.390 . S
C388 C387 1.390 . S
C388 C389 1.394 . S
C388 C394 1.465 . S
C389 C384 1.399 . S
C389 C388 1.394 . S
C389 C390 1.516 . S
C390 C389 1.516 . S
C390 C391 1.502 . S
C390 C392 1.561 . S
C390 C393 1.526 . S
C391 H375 0.959 . S
C391 H376 0.959 . S
C391 H377 0.961 . S
C391 C390 1.502 . S
C392 H378 0.960 1_554 S
C392 H379 0.961 1_564 S
C392 H380 0.959 . S
C392 C390 1.561 . S
C393 C390 1.526 . S
C393 C394 1.396 . S
C393 C398 1.390 1_565 S
C394 C388 1.465 . S
C394 C393 1.396 . S
C394 C395 1.399 . S
C395 H381 0.929 . S
C395 C394 1.399 . S
C395 C396 1.385 1_565 S
C396 H382 0.931 . S
C396 C395 1.385 1_545 S
C396 C397 1.389 . S
C397 C396 1.389 . S
C397 C398 1.387 . S
C398 H383 0.930 . S
C398 C393 1.390 1_545 S
C398 C397 1.387 . S
H399 C411 0.930 . S
H400 C413 0.930 . S
H401 C414 0.930 . S
H402 C418 0.959 . S
H403 C418 0.959 . S
H404 C418 0.961 . S
H405 C419 0.960 . S
H406 C419 0.961 . S
H407 C419 0.959 . S
H408 C422 0.929 . S
H409 C423 0.931 . S
H410 C425 0.930 . S
C411 H399 0.930 . S
C411 C412 1.399 . S
C411 C416 1.399 . S
C412 C411 1.399 . S
C412 C413 1.376 . S
C413 H400 0.930 . S
C413 C412 1.376 . S
C413 C414 1.388 . S
C414 H401 0.930 . S
C414 C413 1.388 . S
C414 C415 1.390 . S
C415 C414 1.390 . S
C415 C416 1.394 . S
C415 C421 1.465 . S
C416 C411 1.399 . S
C416 C415 1.394 . S
C416 C417 1.516 . S
C417 C416 1.516 . S
C417 C418 1.502 . S
C417 C419 1.561 . S
C417 C420 1.526 . S
C418 H402 0.959 . S
C418 H403 0.959 . S
C418 H404 0.961 . S
C418 C417 1.502 . S
C419 H405 0.960 . S
C419 H406 0.961 . S
C419 H407 0.959 . S
C419 C417 1.561 . S
C420 C417 1.526 . S
C420 C421 1.396 . S
C420 C425 1.390 . S
C421 C415 1.465 . S
C421 C420 1.396 . S
C421 C422 1.399 . S
C422 H408 0.929 . S
C422 C421 1.399 . S
C422 C423 1.385 . S
C423 H409 0.931 . S
C423 C422 1.385 . S
C423 C424 1.389 . S
C424 C423 1.389 . S
C424 C425 1.387 . S
C425 H410 0.930 . S
C425 C420 1.390 . S
C425 C424 1.387 . S
H426 C438 0.930 . S
H427 C440 0.930 . S
H428 C441 0.930 . S
H429 C445 0.959 . S
H430 C445 0.959 . S
H431 C445 0.961 . S
H432 C446 0.960 . S
H433 C446 0.961 . S
H434 C446 0.959 . S
H435 C449 0.929 1_565 S
H436 C450 0.931 . S
H437 C452 0.930 . S
C438 H426 0.930 . S
C438 C439 1.399 . S
C438 C443 1.399 . S
C439 C438 1.399 . S
C439 C440 1.376 . S
C440 H427 0.930 . S
C440 C439 1.376 . S
C440 C441 1.388 . S
C441 H428 0.930 . S
C441 C440 1.388 . S
C441 C442 1.390 . S
C442 C441 1.390 . S
C442 C443 1.394 . S
C442 C448 1.465 . S
C443 C438 1.399 . S
C443 C442 1.394 . S
C443 C444 1.516 . S
C444 C443 1.516 . S
C444 C445 1.502 . S
C444 C446 1.561 . S
C444 C447 1.526 . S
C445 H429 0.959 . S
C445 H430 0.959 . S
C445 H431 0.961 . S
C445 C444 1.502 . S
C446 H432 0.960 . S
C446 H433 0.961 . S
C446 H434 0.959 . S
C446 C444 1.561 . S
C447 C444 1.526 . S
C447 C448 1.396 . S
C447 C452 1.390 . S
C448 C442 1.465 . S
C448 C447 1.396 . S
C448 C449 1.399 . S
C449 H435 0.929 1_545 S
C449 C448 1.399 . S
C449 C450 1.385 1_545 S
C450 H436 0.931 . S
C450 C449 1.385 1_565 S
C450 C451 1.389 1_565 S
C451 C450 1.389 1_545 S
C451 C452 1.387 . S
C452 H437 0.930 . S
C452 C447 1.390 . S
C452 C451 1.387 . S
H453 C465 0.930 . S
H454 C467 0.930 . S
H455 C468 0.930 . S
H456 C472 0.959 . S
H457 C472 0.959 . S
H458 C472 0.961 . S
H459 C473 0.960 . S
H460 C473 0.961 . S
H461 C473 0.959 . S
H462 C476 0.929 . S
H463 C477 0.931 . S
H464 C479 0.930 . S
C465 H453 0.930 . S
C465 C466 1.399 . S
C465 C470 1.399 . S
C466 C465 1.399 . S
C466 C467 1.376 . S
C467 H454 0.930 . S
C467 C466 1.376 . S
C467 C468 1.388 . S
C468 H455 0.930 . S
C468 C467 1.388 . S
C468 C469 1.390 . S
C469 C468 1.390 . S
C469 C470 1.394 . S
C469 C475 1.465 . S
C470 C465 1.399 . S
C470 C469 1.394 . S
C470 C471 1.516 . S
C471 C470 1.516 . S
C471 C472 1.502 . S
C471 C473 1.561 . S
C471 C474 1.526 . S
C472 H456 0.959 . S
C472 H457 0.959 . S
C472 H458 0.961 . S
C472 C471 1.502 . S
C473 H459 0.960 . S
C473 H460 0.961 . S
C473 H461 0.959 . S
C473 C471 1.561 . S
C474 C471 1.526 . S
C474 C475 1.396 . S
C474 C479 1.390 . S
C475 C469 1.465 . S
C475 C474 1.396 . S
C475 C476 1.399 . S
C476 H462 0.929 . S
C476 C475 1.399 . S
C476 C477 1.385 . S
C477 H463 0.931 . S
C477 C476 1.385 . S
C477 C478 1.389 . S
C478 C477 1.389 . S
C478 C479 1.387 . S
C479 H464 0.930 . S
C479 C474 1.390 . S
C479 C478 1.387 . S
H480 C492 0.930 . S
H481 C494 0.930 . S
H482 C495 0.930 . S
H483 C499 0.959 . S
H484 C499 0.959 . S
H485 C499 0.961 . S
H486 C500 0.960 . S
H487 C500 0.961 . S
H488 C500 0.959 . S
H489 C503 0.929 . S
H490 C504 0.931 . S
H491 C506 0.930 . S
C492 H480 0.930 . S
C492 C493 1.399 . S
C492 C497 1.399 . S
C493 C492 1.399 . S
C493 C494 1.376 . S
C494 H481 0.930 . S
C494 C493 1.376 . S
C494 C495 1.388 . S
C495 H482 0.930 . S
C495 C494 1.388 . S
C495 C496 1.390 . S
C496 C495 1.390 . S
C496 C497 1.394 . S
C496 C502 1.465 . S
C497 C492 1.399 . S
C497 C496 1.394 . S
C497 C498 1.516 . S
C498 C497 1.516 . S
C498 C499 1.502 . S
C498 C500 1.561 . S
C498 C501 1.526 . S
C499 H483 0.959 . S
C499 H484 0.959 . S
C499 H485 0.961 . S
C499 C498 1.502 . S
C500 H486 0.960 . S
C500 H487 0.961 . S
C500 H488 0.959 . S
C500 C498 1.561 . S
C501 C498 1.526 . S
C501 C502 1.396 . S
C501 C506 1.390 . S
C502 C496 1.465 . S
C502 C501 1.396 . S
C502 C503 1.399 . S
C503 H489 0.929 . S
C503 C502 1.399 . S
C503 C504 1.385 . S
C504 H490 0.931 . S
C504 C503 1.385 . S
C504 C505 1.389 . S
C505 C504 1.389 . S
C505 C506 1.387 . S
C506 H491 0.930 . S
C506 C501 1.390 . S
C506 C505 1.387 . S
H507 C519 0.930 . S
H508 C521 0.930 . S
H509 C522 0.930 . S
H510 C526 0.959 . S
H511 C526 0.959 . S
H512 C526 0.961 . S
H513 C527 0.960 . S
H514 C527 0.961 . S
H515 C527 0.959 . S
H516 C530 0.929 . S
H517 C531 0.931 . S
H518 C533 0.930 . S
C519 H507 0.930 . S
C519 C520 1.399 . S
C519 C524 1.399 . S
C520 C519 1.399 . S
C520 C521 1.376 . S
C521 H508 0.930 . S
C521 C520 1.376 . S
C521 C522 1.388 . S
C522 H509 0.930 . S
C522 C521 1.388 . S
C522 C523 1.390 . S
C523 C522 1.390 . S
C523 C524 1.394 . S
C523 C529 1.465 . S
C524 C519 1.399 . S
C524 C523 1.394 . S
C524 C525 1.516 . S
C525 C524 1.516 . S
C525 C526 1.502 . S
C525 C527 1.561 . S
C525 C528 1.526 . S
C526 H510 0.959 . S
C526 H511 0.959 . S
C526 H512 0.961 . S
C526 C525 1.502 . S
C527 H513 0.960 . S
C527 H514 0.961 . S
C527 H515 0.959 . S
C527 C525 1.561 . S
C528 C525 1.526 . S
C528 C529 1.396 . S
C528 C533 1.390 . S
C529 C523 1.465 . S
C529 C528 1.396 . S
C529 C530 1.399 . S
C530 H516 0.929 . S
C530 C529 1.399 . S
C530 C531 1.385 . S
C531 H517 0.931 . S
C531 C530 1.385 . S
C531 C532 1.389 . S
C532 C531 1.389 . S
C532 C533 1.387 . S
C533 H518 0.930 . S
C533 C528 1.390 . S
C533 C532 1.387 . S
H534 C546 0.930 . S
H535 C548 0.930 . S
H536 C549 0.930 . S
H537 C553 0.959 . S
H538 C553 0.959 . S
H539 C553 0.961 . S
H540 C554 0.960 . S
H541 C554 0.961 . S
H542 C554 0.959 . S
H543 C557 0.929 . S
H544 C558 0.931 . S
H545 C560 0.930 . S
C546 H534 0.930 . S
C546 C547 1.399 . S
C546 C551 1.399 . S
C547 C546 1.399 . S
C547 C548 1.376 . S
C548 H535 0.930 . S
C548 C547 1.376 . S
C548 C549 1.388 . S
C549 H536 0.930 . S
C549 C548 1.388 . S
C549 C550 1.390 . S
C550 C549 1.390 . S
C550 C551 1.394 . S
C550 C556 1.465 . S
C551 C546 1.399 . S
C551 C550 1.394 . S
C551 C552 1.516 . S
C552 C551 1.516 . S
C552 C553 1.502 . S
C552 C554 1.561 . S
C552 C555 1.526 . S
C553 H537 0.959 . S
C553 H538 0.959 . S
C553 H539 0.961 . S
C553 C552 1.502 . S
C554 H540 0.960 . S
C554 H541 0.961 . S
C554 H542 0.959 . S
C554 C552 1.561 . S
C555 C552 1.526 . S
C555 C556 1.396 . S
C555 C560 1.390 . S
C556 C550 1.465 . S
C556 C555 1.396 . S
C556 C557 1.399 . S
C557 H543 0.929 . S
C557 C556 1.399 . S
C557 C558 1.385 . S
C558 H544 0.931 . S
C558 C557 1.385 . S
C558 C559 1.389 . S
C559 C558 1.389 . S
C559 C560 1.387 . S
C560 H545 0.930 . S
C560 C555 1.390 . S
C560 C559 1.387 . S
H561 C573 0.930 . S
H562 C575 0.930 . S
H563 C576 0.930 . S
H564 C580 0.959 . S
H565 C580 0.959 . S
H566 C580 0.961 . S
H567 C581 0.960 . S
H568 C581 0.961 . S
H569 C581 0.959 . S
H570 C584 0.929 . S
H571 C585 0.931 . S
H572 C587 0.930 . S
C573 H561 0.930 . S
C573 C574 1.399 . S
C573 C578 1.399 . S
C574 C573 1.399 . S
C574 C575 1.376 1_556 S
C575 H562 0.930 . S
C575 C574 1.376 1_554 S
C575 C576 1.388 . S
C576 H563 0.930 . S
C576 C575 1.388 . S
C576 C577 1.390 1_554 S
C577 C576 1.390 1_556 S
C577 C578 1.394 . S
C577 C583 1.465 . S
C578 C573 1.399 . S
C578 C577 1.394 . S
C578 C579 1.516 . S
C579 C578 1.516 . S
C579 C580 1.502 . S
C579 C581 1.561 . S
C579 C582 1.526 1_455 S
C580 H564 0.959 . S
C580 H565 0.959 . S
C580 H566 0.961 . S
C580 C579 1.502 . S
C581 H567 0.960 . S
C581 H568 0.961 . S
C581 H569 0.959 . S
C581 C579 1.561 . S
C582 C579 1.526 1_655 S
C582 C583 1.396 1_655 S
C582 C587 1.390 . S
C583 C577 1.465 . S
C583 C582 1.396 1_455 S
C583 C584 1.399 1_456 S
C584 H570 0.929 . S
C584 C583 1.399 1_654 S
C584 C585 1.385 . S
C585 H571 0.931 . S
C585 C584 1.385 . S
C585 C586 1.389 1_554 S
C586 C585 1.389 1_556 S
C586 C587 1.387 . S
C587 H572 0.930 . S
C587 C582 1.390 . S
C587 C586 1.387 . S
H588 C600 0.930 . S
H589 C602 0.930 . S
H590 C603 0.930 . S
H591 C607 0.959 . S
H592 C607 0.959 . S
H593 C607 0.961 . S
H594 C608 0.960 1_545 S
H595 C608 0.961 . S
H596 C608 0.959 . S
H597 C611 0.929 . S
H598 C612 0.931 . S
H599 C614 0.930 . S
C600 H588 0.930 . S
C600 C601 1.399 . S
C600 C605 1.399 . S
C601 C600 1.399 . S
C601 C602 1.376 1_554 S
C602 H589 0.930 . S
C602 C601 1.376 1_556 S
C602 C603 1.388 . S
C603 H590 0.930 . S
C603 C602 1.388 . S
C603 C604 1.390 . S
C604 C603 1.390 . S
C604 C605 1.394 1_556 S
C604 C610 1.465 1_545 S
C605 C600 1.399 . S
C605 C604 1.394 1_554 S
C605 C606 1.516 1_545 S
C606 C605 1.516 1_565 S
C606 C607 1.502 . S
C606 C608 1.561 . S
C606 C609 1.526 . S
C607 H591 0.959 . S
C607 H592 0.959 . S
C607 H593 0.961 . S
C607 C606 1.502 . S
C608 H594 0.960 1_565 S
C608 H595 0.961 . S
C608 H596 0.959 . S
C608 C606 1.561 . S
C609 C606 1.526 . S
C609 C610 1.396 1_554 S
C609 C614 1.390 . S
C610 C604 1.465 1_565 S
C610 C609 1.396 1_556 S
C610 C611 1.399 . S
C611 H597 0.929 . S
C611 C610 1.399 . S
C611 C612 1.385 . S
C612 H598 0.931 . S
C612 C611 1.385 . S
C612 C613 1.389 . S
C613 C612 1.389 . S
C613 C614 1.387 1_556 S
C614 H599 0.930 . S
C614 C609 1.390 . S
C614 C613 1.387 1_554 S
H615 C627 0.930 . S
H616 C629 0.930 . S
H617 C630 0.930 . S
H618 C634 0.959 . S
H619 C634 0.959 . S
H620 C634 0.961 . S
H621 C635 0.960 . S
H622 C635 0.961 . S
H623 C635 0.959 . S
H624 C638 0.929 . S
H625 C639 0.931 . S
H626 C641 0.930 . S
C627 H615 0.930 . S
C627 C628 1.399 . S
C627 C632 1.399 . S
C628 C627 1.399 . S
C628 C629 1.376 . S
C629 H616 0.930 . S
C629 C628 1.376 . S
C629 C630 1.388 . S
C630 H617 0.930 . S
C630 C629 1.388 . S
C630 C631 1.390 . S
C631 C630 1.390 . S
C631 C632 1.394 . S
C631 C637 1.465 . S
C632 C627 1.399 . S
C632 C631 1.394 . S
C632 C633 1.516 . S
C633 C632 1.516 . S
C633 C634 1.502 . S
C633 C635 1.561 . S
C633 C636 1.526 . S
C634 H618 0.959 . S
C634 H619 0.959 . S
C634 H620 0.961 . S
C634 C633 1.502 . S
C635 H621 0.960 . S
C635 H622 0.961 . S
C635 H623 0.959 . S
C635 C633 1.561 . S
C636 C633 1.526 . S
C636 C637 1.396 . S
C636 C641 1.390 . S
C637 C631 1.465 . S
C637 C636 1.396 . S
C637 C638 1.399 . S
C638 H624 0.929 . S
C638 C637 1.399 . S
C638 C639 1.385 . S
C639 H625 0.931 . S
C639 C638 1.385 . S
C639 C640 1.389 . S
C640 C639 1.389 . S
C640 C641 1.387 . S
C641 H626 0.930 . S
C641 C636 1.390 . S
C641 C640 1.387 . S
H642 C654 0.930 . S
H643 C656 0.930 . S
H644 C657 0.930 . S
H645 C661 0.959 . S
H646 C661 0.959 . S
H647 C661 0.961 . S
H648 C662 0.960 . S
H649 C662 0.961 . S
H650 C662 0.959 . S
H651 C665 0.929 . S
H652 C666 0.931 . S
H653 C668 0.930 . S
C654 H642 0.930 . S
C654 C655 1.399 . S
C654 C659 1.399 . S
C655 C654 1.399 . S
C655 C656 1.376 . S
C656 H643 0.930 . S
C656 C655 1.376 . S
C656 C657 1.388 . S
C657 H644 0.930 . S
C657 C656 1.388 . S
C657 C658 1.390 . S
C658 C657 1.390 . S
C658 C659 1.394 . S
C658 C664 1.443 1_565 S
C659 C654 1.399 . S
C659 C658 1.394 . S
C659 C660 1.516 . S
C660 C659 1.516 . S
C660 C661 1.502 . S
C660 C662 1.561 . S
C660 C663 1.526 . S
C661 H645 0.959 . S
C661 H646 0.959 . S
C661 H647 0.961 . S
C661 C660 1.502 . S
C662 H648 0.960 . S
C662 H649 0.961 . S
C662 H650 0.959 . S
C662 C660 1.561 . S
C663 C660 1.526 . S
C663 C664 1.386 1_565 S
C663 C668 1.390 1_565 S
C664 C658 1.443 1_545 S
C664 C663 1.386 1_545 S
C664 C665 1.427 . S
C665 H651 0.929 . S
C665 C664 1.427 . S
C665 C666 1.385 . S
C666 H652 0.931 . S
C666 C665 1.385 . S
C666 C667 1.389 . S
C667 C666 1.389 . S
C667 C668 1.387 . S
C668 H653 0.930 . S
C668 C663 1.390 1_545 S
C668 C667 1.387 . S
H669 C681 0.930 . S
H670 C683 0.930 . S
H671 C684 0.930 . S
H672 C688 0.959 . S
H673 C688 0.959 . S
H674 C688 0.961 . S
H675 C689 0.960 . S
H676 C689 0.961 . S
H677 C689 0.959 . S
H678 C692 0.929 . S
H679 C693 0.931 . S
H680 C695 0.930 . S
C681 H669 0.930 . S
C681 C682 1.399 . S
C681 C686 1.399 . S
C682 C681 1.399 . S
C682 C683 1.376 . S
C683 H670 0.930 . S
C683 C682 1.376 . S
C683 C684 1.388 . S
C684 H671 0.930 . S
C684 C683 1.388 . S
C684 C685 1.390 . S
C685 C684 1.390 . S
C685 C686 1.394 . S
C685 C691 1.465 . S
C686 C681 1.399 . S
C686 C685 1.394 . S
C686 C687 1.516 . S
C687 C686 1.516 . S
C687 C688 1.502 . S
C687 C689 1.561 . S
C687 C690 1.526 . S
C688 H672 0.959 . S
C688 H673 0.959 . S
C688 H674 0.961 . S
C688 C687 1.502 . S
C689 H675 0.960 . S
C689 H676 0.961 . S
C689 H677 0.959 . S
C689 C687 1.561 . S
C690 C687 1.526 . S
C690 C691 1.396 . S
C690 C695 1.390 . S
C691 C685 1.465 . S
C691 C690 1.396 . S
C691 C692 1.399 . S
C692 H678 0.929 . S
C692 C691 1.399 . S
C692 C693 1.385 . S
C693 H679 0.931 . S
C693 C692 1.385 . S
C693 C694 1.389 . S
C694 C693 1.389 . S
C694 C695 1.387 . S
C695 H680 0.930 . S
C695 C690 1.390 . S
C695 C694 1.387 . S
H696 C708 0.930 . S
H697 C710 0.930 . S
H698 C711 0.930 . S
H699 C715 0.959 . S
H700 C715 0.959 . S
H701 C715 0.961 . S
H702 C716 0.960 . S
H703 C716 0.961 . S
H704 C716 0.959 . S
H705 C719 0.929 . S
H706 C720 0.931 . S
H707 C722 0.930 . S
C708 H696 0.930 . S
C708 C709 1.399 . S
C708 C713 1.399 . S
C709 C708 1.399 . S
C709 C710 1.376 . S
C710 H697 0.930 . S
C710 C709 1.376 . S
C710 C711 1.388 . S
C711 H698 0.930 . S
C711 C710 1.388 . S
C711 C712 1.390 . S
C712 C711 1.390 . S
C712 C713 1.394 . S
C712 C718 1.465 . S
C713 C708 1.399 . S
C713 C712 1.394 . S
C713 C714 1.516 . S
C714 C713 1.516 . S
C714 C715 1.502 . S
C714 C716 1.561 . S
C714 C717 1.526 . S
C715 H699 0.959 . S
C715 H700 0.959 . S
C715 H701 0.961 . S
C715 C714 1.502 . S
C716 H702 0.960 . S
C716 H703 0.961 . S
C716 H704 0.959 . S
C716 C714 1.561 . S
C717 C714 1.526 . S
C717 C718 1.396 . S
C717 C722 1.390 . S
C718 C712 1.465 . S
C718 C717 1.396 . S
C718 C719 1.399 . S
C719 H705 0.929 . S
C719 C718 1.399 . S
C719 C720 1.385 . S
C720 H706 0.931 . S
C720 C719 1.385 . S
C720 C721 1.389 . S
C721 C720 1.389 . S
C721 C722 1.387 . S
C722 H707 0.930 . S
C722 C717 1.390 . S
C722 C721 1.387 . S
H723 C735 0.930 . S
H724 C737 0.930 . S
H725 C738 0.930 . S
H726 C742 0.959 . S
H727 C742 0.959 . S
H728 C742 0.961 . S
H729 C743 0.960 . S
H730 C743 0.961 . S
H731 C743 0.959 . S
H732 C746 0.929 . S
H733 C747 0.931 . S
H734 C749 0.926 1_655 S
C735 H723 0.930 . S
C735 C736 1.399 . S
C735 C740 1.399 . S
C736 C735 1.399 . S
C736 C737 1.376 . S
C737 H724 0.930 . S
C737 C736 1.376 . S
C737 C738 1.388 . S
C738 H725 0.930 . S
C738 C737 1.388 . S
C738 C739 1.390 . S
C739 C738 1.390 . S
C739 C740 1.394 . S
C739 C745 1.465 . S
C740 C735 1.399 . S
C740 C739 1.394 . S
C740 C741 1.516 . S
C741 C740 1.516 . S
C741 C742 1.502 . S
C741 C743 1.561 . S
C741 C744 1.526 . S
C742 H726 0.959 . S
C742 H727 0.959 . S
C742 H728 0.961 . S
C742 C741 1.502 . S
C743 H729 0.960 . S
C743 H730 0.961 . S
C743 H731 0.959 . S
C743 C741 1.561 . S
C744 C741 1.526 . S
C744 C745 1.396 . S
C744 C749 1.390 . S
C745 C739 1.465 . S
C745 C744 1.396 . S
C745 C746 1.399 . S
C746 H732 0.929 . S
C746 C745 1.399 . S
C746 C747 1.385 . S
C747 H733 0.931 . S
C747 C746 1.385 . S
C747 C748 1.389 . S
C748 C747 1.389 . S
C748 C749 1.387 . S
C749 H734 0.926 1_455 S
C749 C744 1.390 . S
C749 C748 1.387 . S
H750 C762 0.930 . S
H751 C764 0.930 . S
H752 C765 0.930 . S
H753 C769 0.959 . S
H754 C769 0.959 . S
H755 C769 0.961 . S
H756 C770 0.960 . S
H757 C770 0.961 . S
H758 C770 0.959 . S
H759 C773 0.929 . S
H760 C774 0.931 . S
H761 C776 0.930 . S
C762 H750 0.930 . S
C762 C763 1.399 . S
C762 C767 1.399 . S
C763 C762 1.399 . S
C763 C764 1.376 . S
C764 H751 0.930 . S
C764 C763 1.376 . S
C764 C765 1.388 . S
C765 H752 0.930 . S
C765 C764 1.388 . S
C765 C766 1.390 . S
C766 C765 1.390 . S
C766 C767 1.394 . S
C766 C772 1.465 . S
C767 C762 1.399 . S
C767 C766 1.394 . S
C767 C768 1.516 . S
C768 C767 1.516 . S
C768 C769 1.502 . S
C768 C770 1.561 . S
C768 C771 1.526 . S
C769 H753 0.959 . S
C769 H754 0.959 . S
C769 H755 0.961 . S
C769 C768 1.502 . S
C770 H756 0.960 . S
C770 H757 0.961 . S
C770 H758 0.959 . S
C770 C768 1.561 . S
C771 C768 1.526 . S
C771 C772 1.396 . S
C771 C776 1.390 . S
C772 C766 1.465 . S
C772 C771 1.396 . S
C772 C773 1.399 . S
C773 H759 0.929 . S
C773 C772 1.399 . S
C773 C774 1.385 . S
C774 H760 0.931 . S
C774 C773 1.385 . S
C774 C775 1.389 . S
C775 C774 1.389 . S
C775 C776 1.387 . S
C776 H761 0.930 . S
C776 C771 1.390 . S
C776 C775 1.387 . S
H777 C789 0.930 . S
H778 C791 0.930 . S
H779 C792 0.930 . S
H780 C796 0.959 . S
H781 C796 0.959 . S
H782 C796 0.961 1_655 S
H783 C797 0.960 1_655 S
H784 C797 0.961 . S
H785 C797 0.959 . S
H786 C800 0.929 . S
H787 C801 0.931 . S
H788 C803 0.930 . S
C789 H777 0.930 . S
C789 C790 1.399 . S
C789 C794 1.399 . S
C790 C789 1.399 . S
C790 C791 1.376 . S
C791 H778 0.930 . S
C791 C790 1.376 . S
C791 C792 1.388 . S
C792 H779 0.930 . S
C792 C791 1.388 . S
C792 C793 1.407 . S
C793 C792 1.407 . S
C793 C794 1.404 . S
C793 C799 1.438 1_655 S
C794 C789 1.399 . S
C794 C793 1.404 . S
C794 C795 1.516 1_655 S
C795 C794 1.516 1_455 S
C795 C796 1.502 . S
C795 C797 1.561 . S
C795 C798 1.526 . S
C796 H780 0.959 . S
C796 H781 0.959 . S
C796 H782 0.961 1_455 S
C796 C795 1.502 . S
C797 H783 0.960 1_455 S
C797 H784 0.961 . S
C797 H785 0.959 . S
C797 C795 1.561 . S
C798 C795 1.526 . S
C798 C799 1.396 . S
C798 C803 1.390 . S
C799 C793 1.438 1_455 S
C799 C798 1.396 . S
C799 C800 1.399 . S
C800 H786 0.929 . S
C800 C799 1.399 . S
C800 C801 1.385 . S
C801 H787 0.931 . S
C801 C800 1.385 . S
C801 C802 1.389 . S
C802 C801 1.389 . S
C802 C803 1.387 . S
C803 H788 0.930 . S
C803 C798 1.390 . S
C803 C802 1.387 . S
H804 C816 0.930 . S
H805 C818 0.930 . S
H806 C819 0.930 . S
H807 C823 0.959 . S
H808 C823 0.959 . S
H809 C823 0.961 . S
H810 C824 0.960 . S
H811 C824 0.961 . S
H812 C824 0.959 . S
H813 C827 0.929 . S
H814 C828 0.931 . S
H815 C830 0.930 . S
C816 H804 0.930 . S
C816 C817 1.399 . S
C816 C821 1.399 . S
C817 C816 1.399 . S
C817 C818 1.376 . S
C818 H805 0.930 . S
C818 C817 1.376 . S
C818 C819 1.388 . S
C819 H806 0.930 . S
C819 C818 1.388 . S
C819 C820 1.390 . S
C820 C819 1.390 . S
C820 C821 1.394 . S
C820 C826 1.465 . S
C821 C816 1.399 . S
C821 C820 1.394 . S
C821 C822 1.516 . S
C822 C821 1.516 . S
C822 C823 1.502 . S
C822 C824 1.561 . S
C822 C825 1.526 . S
C823 H807 0.959 . S
C823 H808 0.959 . S
C823 H809 0.961 . S
C823 C822 1.502 . S
C824 H810 0.960 . S
C824 H811 0.961 . S
C824 H812 0.959 . S
C824 C822 1.561 . S
C825 C822 1.526 . S
C825 C826 1.396 . S
C825 C830 1.390 . S
C826 C820 1.465 . S
C826 C825 1.396 . S
C826 C827 1.399 . S
C827 H813 0.929 . S
C827 C826 1.399 . S
C827 C828 1.385 . S
C828 H814 0.931 . S
C828 C827 1.385 . S
C828 C829 1.389 . S
C829 C828 1.389 . S
C829 C830 1.387 . S
C830 H815 0.930 . S
C830 C825 1.390 . S
C830 C829 1.387 . S
H831 C843 0.930 . S
H832 C845 0.930 . S
H833 C846 0.930 . S
H834 C850 0.959 . S
H835 C850 0.959 . S
H836 C850 0.961 . S
H837 C851 0.960 . S
H838 C851 0.961 . S
H839 C851 0.959 . S
H840 C854 0.929 . S
H841 C855 0.931 . S
H842 C857 0.930 . S
C843 H831 0.930 . S
C843 C844 1.399 . S
C843 C848 1.399 . S
C844 C843 1.399 . S
C844 C845 1.376 . S
C845 H832 0.930 . S
C845 C844 1.376 . S
C845 C846 1.388 . S
C846 H833 0.930 . S
C846 C845 1.388 . S
C846 C847 1.390 . S
C847 C846 1.390 . S
C847 C848 1.394 . S
C847 C853 1.465 . S
C848 C843 1.399 . S
C848 C847 1.394 . S
C848 C849 1.516 . S
C849 C848 1.516 . S
C849 C850 1.502 . S
C849 C851 1.561 . S
C849 C852 1.526 . S
C850 H834 0.959 . S
C850 H835 0.959 . S
C850 H836 0.961 . S
C850 C849 1.502 . S
C851 H837 0.960 . S
C851 H838 0.961 . S
C851 H839 0.959 . S
C851 C849 1.561 . S
C852 C849 1.526 . S
C852 C853 1.396 . S
C852 C857 1.390 . S
C853 C847 1.465 . S
C853 C852 1.396 . S
C853 C854 1.399 . S
C854 H840 0.929 . S
C854 C853 1.399 . S
C854 C855 1.385 . S
C855 H841 0.931 . S
C855 C854 1.385 . S
C855 C856 1.389 . S
C856 C855 1.389 . S
C856 C857 1.387 . S
C857 H842 0.930 . S
C857 C852 1.390 . S
C857 C856 1.387 . S
H858 C870 0.930 . S
H859 C872 0.930 . S
H860 C873 0.930 . S
H861 C877 0.959 . S
H862 C877 0.959 . S
H863 C877 0.961 . S
H864 C878 0.960 . S
H865 C878 0.961 . S
H866 C878 0.959 . S
H867 C881 0.929 . S
H868 C882 0.931 . S
H869 C884 0.930 . S
C870 H858 0.930 . S
C870 C871 1.399 . S
C870 C875 1.399 . S
C871 C870 1.399 . S
C871 C872 1.376 . S
C872 H859 0.930 . S
C872 C871 1.376 . S
C872 C873 1.388 . S
C873 H860 0.930 . S
C873 C872 1.388 . S
C873 C874 1.390 . S
C874 C873 1.390 . S
C874 C875 1.394 . S
C874 C880 1.465 . S
C875 C870 1.399 . S
C875 C874 1.394 . S
C875 C876 1.516 . S
C876 C875 1.516 . S
C876 C877 1.502 . S
C876 C878 1.561 . S
C876 C879 1.526 . S
C877 H861 0.959 . S
C877 H862 0.959 . S
C877 H863 0.961 . S
C877 C876 1.502 . S
C878 H864 0.960 . S
C878 H865 0.961 . S
C878 H866 0.959 . S
C878 C876 1.561 . S
C879 C876 1.526 . S
C879 C880 1.396 . S
C879 C884 1.390 . S
C880 C874 1.465 . S
C880 C879 1.396 . S
C880 C881 1.399 . S
C881 H867 0.929 . S
C881 C880 1.399 . S
C881 C882 1.385 . S
C882 H868 0.931 . S
C882 C881 1.385 . S
C882 C883 1.389 . S
C883 C882 1.389 . S
C883 C884 1.387 . S
C884 H869 0.930 . S
C884 C879 1.390 . S
C884 C883 1.387 . S
H885 C897 0.930 . S
H886 C899 0.930 . S
H887 C900 0.930 . S
H888 C904 0.959 . S
H889 C904 0.959 . S
H890 C904 0.961 . S
H891 C905 0.960 . S
H892 C905 0.961 . S
H893 C905 0.959 . S
H894 C908 0.929 . S
H895 C909 0.931 . S
H896 C911 0.930 . S
C897 H885 0.930 . S
C897 C898 1.399 . S
C897 C902 1.399 . S
C898 C897 1.399 . S
C898 C899 1.376 . S
C899 H886 0.930 . S
C899 C898 1.376 . S
C899 C900 1.388 . S
C900 H887 0.930 . S
C900 C899 1.388 . S
C900 C901 1.390 . S
C901 C900 1.390 . S
C901 C902 1.394 . S
C901 C907 1.465 . S
C902 C897 1.399 . S
C902 C901 1.394 . S
C902 C903 1.516 . S
C903 C902 1.516 . S
C903 C904 1.502 . S
C903 C905 1.561 . S
C903 C906 1.526 . S
C904 H888 0.959 . S
C904 H889 0.959 . S
C904 H890 0.961 . S
C904 C903 1.502 . S
C905 H891 0.960 . S
C905 H892 0.961 . S
C905 H893 0.959 . S
C905 C903 1.561 . S
C906 C903 1.526 . S
C906 C907 1.396 . S
C906 C911 1.390 . S
C907 C901 1.465 . S
C907 C906 1.396 . S
C907 C908 1.399 . S
C908 H894 0.929 . S
C908 C907 1.399 . S
C908 C909 1.385 . S
C909 H895 0.931 . S
C909 C908 1.385 . S
C909 C910 1.389 . S
C910 C909 1.389 . S
C910 C911 1.387 . S
C911 H896 0.930 . S
C911 C906 1.390 . S
C911 C910 1.387 . S
H912 C924 0.930 . S
H913 C926 0.930 . S
H914 C927 0.930 . S
H915 C931 0.959 . S
H916 C931 0.959 . S
H917 C931 0.961 . S
H918 C932 0.960 . S
H919 C932 0.961 . S
H920 C932 0.959 . S
H921 C935 0.929 . S
H922 C936 0.931 . S
H923 C938 0.930 . S
C924 H912 0.930 . S
C924 C925 1.399 . S
C924 C929 1.399 . S
C925 C924 1.399 . S
C925 C926 1.376 . S
C926 H913 0.930 . S
C926 C925 1.376 . S
C926 C927 1.388 . S
C927 H914 0.930 . S
C927 C926 1.388 . S
C927 C928 1.390 . S
C928 C927 1.390 . S
C928 C929 1.394 . S
C928 C934 1.465 . S
C929 C924 1.399 . S
C929 C928 1.394 . S
C929 C930 1.516 . S
C930 C929 1.516 . S
C930 C931 1.502 . S
C930 C932 1.561 . S
C930 C933 1.526 . S
C931 H915 0.959 . S
C931 H916 0.959 . S
C931 H917 0.961 . S
C931 C930 1.502 . S
C932 H918 0.960 . S
C932 H919 0.961 . S
C932 H920 0.959 . S
C932 C930 1.561 . S
C933 C930 1.526 . S
C933 C934 1.396 . S
C933 C938 1.390 . S
C934 C928 1.465 . S
C934 C933 1.396 . S
C934 C935 1.399 . S
C935 H921 0.929 . S
C935 C934 1.399 . S
C935 C936 1.385 . S
C936 H922 0.931 . S
C936 C935 1.385 . S
C936 C937 1.389 . S
C937 C936 1.389 . S
C937 C938 1.387 . S
C938 H923 0.930 . S
C938 C933 1.390 . S
C938 C937 1.387 . S
H939 C951 0.930 1_556 S
H940 C953 0.930 . S
H941 C954 0.930 . S
H942 C958 0.959 . S
H943 C958 0.959 . S
H944 C958 0.961 . S
H945 C959 0.957 1_554 S
H946 C959 0.978 . S
H947 C959 0.931 1_554 S
H948 C962 0.933 . S
H949 C963 0.931 . S
H950 C965 0.930 . S
C951 H939 0.930 1_554 S
C951 C952 1.399 . S
C951 C956 1.393 1_554 S
C952 C951 1.399 . S
C952 C953 1.376 . S
C953 H940 0.930 . S
C953 C952 1.376 . S
C953 C954 1.388 . S
C954 H941 0.930 . S
C954 C953 1.388 . S
C954 C955 1.390 . S
C955 C954 1.390 . S
C955 C956 1.381 1_554 S
C955 C961 1.465 1_554 S
C956 C951 1.393 1_556 S
C956 C955 1.381 1_556 S
C956 C957 1.534 . S
C957 C956 1.534 . S
C957 C958 1.502 . S
C957 C959 1.576 . S
C957 C960 1.526 . S
C958 H942 0.959 . S
C958 H943 0.959 . S
C958 H944 0.961 . S
C958 C957 1.502 . S
C959 H945 0.957 1_556 S
C959 H946 0.978 . S
C959 H947 0.931 1_556 S
C959 C957 1.576 . S
C960 C957 1.526 . S
C960 C961 1.396 . S
C960 C965 1.390 . S
C961 C955 1.465 1_556 S
C961 C960 1.396 . S
C961 C962 1.398 1_556 S
C962 H948 0.933 . S
C962 C961 1.398 1_554 S
C962 C963 1.383 1_554 S
C963 H949 0.931 . S
C963 C962 1.383 1_556 S
C963 C964 1.389 . S
C964 C963 1.389 . S
C964 C965 1.387 . S
C965 H950 0.930 . S
C965 C960 1.390 . S
C965 C964 1.387 . S
H966 C978 0.930 . S
H967 C980 0.930 . S
H968 C981 0.930 . S
H969 C985 0.959 . S
H970 C985 0.959 . S
H971 C985 0.961 . S
H972 C986 0.960 . S
H973 C986 0.961 . S
H974 C986 0.959 . S
H975 C989 0.929 . S
H976 C990 0.931 . S
H977 C992 0.930 . S
C978 H966 0.930 . S
C978 C979 1.399 . S
C978 C983 1.399 . S
C979 C978 1.399 . S
C979 C980 1.376 . S
C980 H967 0.930 . S
C980 C979 1.376 . S
C980 C981 1.388 . S
C981 H968 0.930 . S
C981 C980 1.388 . S
C981 C982 1.390 . S
C982 C981 1.390 . S
C982 C983 1.394 . S
C982 C988 1.465 . S
C983 C978 1.399 . S
C983 C982 1.394 . S
C983 C984 1.516 . S
C984 C983 1.516 . S
C984 C985 1.502 . S
C984 C986 1.561 . S
C984 C987 1.526 . S
C985 H969 0.959 . S
C985 H970 0.959 . S
C985 H971 0.961 . S
C985 C984 1.502 . S
C986 H972 0.960 . S
C986 H973 0.961 . S
C986 H974 0.959 . S
C986 C984 1.561 . S
C987 C984 1.526 . S
C987 C988 1.396 . S
C987 C992 1.390 . S
C988 C982 1.465 . S
C988 C987 1.396 . S
C988 C989 1.399 . S
C989 H975 0.929 . S
C989 C988 1.399 . S
C989 C990 1.385 . S
C990 H976 0.931 . S
C990 C989 1.385 . S
C990 C991 1.389 . S
C991 C990 1.389 . S
C991 C992 1.387 . S
C992 H977 0.930 . S
C992 C987 1.390 . S
C992 C991 1.387 . S
H993 C1005 0.930 . S
H994 C1007 0.930 . S
H995 C1008 0.930 . S
H996 C1012 0.959 . S
H997 C1012 0.959 . S
H998 C1012 0.961 . S
H999 C1013 0.960 . S
H1000 C1013 0.961 . S
H1001 C1013 0.959 . S
H1002 C1016 0.929 . S
H1003 C1017 0.931 . S
H1004 C1019 0.930 . S
C1005 H993 0.930 . S
C1005 C1006 1.399 . S
C1005 C1010 1.399 . S
C1006 C1005 1.399 . S
C1006 C1007 1.376 . S
C1007 H994 0.930 . S
C1007 C1006 1.376 . S
C1007 C1008 1.388 . S
C1008 H995 0.930 . S
C1008 C1007 1.388 . S
C1008 C1009 1.390 . S
C1009 C1008 1.390 . S
C1009 C1010 1.394 . S
C1009 C1015 1.465 . S
C1010 C1005 1.399 . S
C1010 C1009 1.394 . S
C1010 C1011 1.516 . S
C1011 C1010 1.516 . S
C1011 C1012 1.502 . S
C1011 C1013 1.561 . S
C1011 C1014 1.526 . S
C1012 H996 0.959 . S
C1012 H997 0.959 . S
C1012 H998 0.961 . S
C1012 C1011 1.502 . S
C1013 H999 0.960 . S
C1013 H1000 0.961 . S
C1013 H1001 0.959 . S
C1013 C1011 1.561 . S
C1014 C1011 1.526 . S
C1014 C1015 1.396 . S
C1014 C1019 1.390 . S
C1015 C1009 1.465 . S
C1015 C1014 1.396 . S
C1015 C1016 1.399 . S
C1016 H1002 0.929 . S
C1016 C1015 1.399 . S
C1016 C1017 1.385 . S
C1017 H1003 0.931 . S
C1017 C1016 1.385 . S
C1017 C1018 1.389 . S
C1018 C1017 1.389 . S
C1018 C1019 1.387 . S
C1019 H1004 0.930 . S
C1019 C1014 1.390 . S
C1019 C1018 1.387 . S
C385 C7 1.066 . S
C397 C115 1.043 . S
C412 C25 0.940 . S
C424 C151 0.921 . S
C439 C46 0.907 . S
C451 C187 0.768 1_545 S
C478 C217 0.989 . S
C466 C70 1.001 . S
C505 C259 1.162 . S
C493 C28 1.111 . S
C520 C49 0.998 . S
C532 C289 0.896 . S
C547 C67 0.675 . S
C559 C325 0.875 . S
C574 C4 1.039 . S
C586 C367 0.984 . S
C601 C58 1.923 . S
C613 C337 1.980 . S
C640 C229 1.904 . S
C628 C66 1.825 . S
C667 C295 1.828 . S
C655 C3 1.773 . S
C682 C37 1.637 . S
C694 C331 1.634 . S
C721 C121 1.984 . S
C709 C79 2.002 . S
C736 C16 1.533 . S
C748 C181 1.620 1_455 S
C775 C223 1.854 . S
C763 C24 1.751 . S
C802 C85 1.863 . S
C790 C45 1.772 . S
C829 C301 1.080 . S
C817 C19 1.031 . S
C856 C361 1.384 . S
C844 C41 1.092 . S
C871 C62 1.359 . S
C883 C253 1.514 . S
C910 C265 1.311 . S
C898 C82 1.180 . S
C937 C157 1.156 . S
C925 C40 1.139 . S
C952 C61 1.307 . S
C964 C193 1.335 . S
C991 C109 1.540 . S
C979 C83 1.271 . S
C1018 C145 1.353 . S
C1006 C20 1.260 . S
