# Generated by pormake.
# Topology pyr, (3,6)-cn, num edge types: 1
# Building blocks:
#     Node 0, Type 0, BuildingBlock: BETDAH_clean_linker_0, # of connection points: 3
#     Node 1, Type 0, BuildingBlock: BETDAH_clean_linker_0, # of connection points: 3
#     Node 2, Type 0, BuildingBlock: BETDAH_clean_linker_0, # of connection points: 3
#     Node 3, Type 0, BuildingBlock: BETDAH_clean_linker_0, # of connection points: 3
#     Node 4, Type 0, BuildingBlock: BETDAH_clean_linker_0, # of connection points: 3
#     Node 5, Type 0, BuildingBlock: BETDAH_clean_linker_0, # of connection points: 3
#     Node 6, Type 0, BuildingBlock: BETDAH_clean_linker_0, # of connection points: 3
#     Node 7, Type 0, BuildingBlock: BETDAH_clean_linker_0, # of connection points: 3
#     Node 8, Type 1, BuildingBlock: PAMTOO_clean_sbu_0, # of connection points: 6
#     Node 9, Type 1, BuildingBlock: PAMTOO_clean_sbu_0, # of connection points: 6
#     Node 10, Type 1, BuildingBlock: PAMTOO_clean_sbu_0, # of connection points: 6
#     Node 11, Type 1, BuildingBlock: PAMTOO_clean_sbu_0, # of connection points: 6
#     Edge 12, Type (0, 1), BuildingBlock: XIVTED_clean_linker_0, # of connection points: 2
#     Edge 13, Type (0, 1), BuildingBlock: XIVTED_clean_linker_0, # of connection points: 2
#     Edge 14, Type (0, 1), BuildingBlock: XIVTED_clean_linker_0, # of connection points: 2
#     Edge 15, Type (0, 1), BuildingBlock: XIVTED_clean_linker_0, # of connection points: 2
#     Edge 16, Type (0, 1), BuildingBlock: XIVTED_clean_linker_0, # of connection points: 2
#     Edge 17, Type (0, 1), BuildingBlock: XIVTED_clean_linker_0, # of connection points: 2
#     Edge 18, Type (0, 1), BuildingBlock: XIVTED_clean_linker_0, # of connection points: 2
#     Edge 19, Type (0, 1), BuildingBlock: XIVTED_clean_linker_0, # of connection points: 2
#     Edge 20, Type (0, 1), BuildingBlock: XIVTED_clean_linker_0, # of connection points: 2
#     Edge 21, Type (0, 1), BuildingBlock: XIVTED_clean_linker_0, # of connection points: 2
#     Edge 22, Type (0, 1), BuildingBlock: XIVTED_clean_linker_0, # of connection points: 2
#     Edge 23, Type (0, 1), BuildingBlock: XIVTED_clean_linker_0, # of connection points: 2
#     Edge 24, Type (0, 1), BuildingBlock: XIVTED_clean_linker_0, # of connection points: 2
#     Edge 25, Type (0, 1), BuildingBlock: XIVTED_clean_linker_0, # of connection points: 2
#     Edge 26, Type (0, 1), BuildingBlock: XIVTED_clean_linker_0, # of connection points: 2
#     Edge 27, Type (0, 1), BuildingBlock: XIVTED_clean_linker_0, # of connection points: 2
#     Edge 28, Type (0, 1), BuildingBlock: XIVTED_clean_linker_0, # of connection points: 2
#     Edge 29, Type (0, 1), BuildingBlock: XIVTED_clean_linker_0, # of connection points: 2
#     Edge 30, Type (0, 1), BuildingBlock: XIVTED_clean_linker_0, # of connection points: 2
#     Edge 31, Type (0, 1), BuildingBlock: XIVTED_clean_linker_0, # of connection points: 2
#     Edge 32, Type (0, 1), BuildingBlock: XIVTED_clean_linker_0, # of connection points: 2
#     Edge 33, Type (0, 1), BuildingBlock: XIVTED_clean_linker_0, # of connection points: 2
#     Edge 34, Type (0, 1), BuildingBlock: XIVTED_clean_linker_0, # of connection points: 2
#     Edge 35, Type (0, 1), BuildingBlock: XIVTED_clean_linker_0, # of connection points: 2
# Relax obj value: 0.126
# Max RMSD: 0.202
# Mean RMSD: 0.126
data_MOF--net-pyr--node1-PAMTOO_clean_sbu_0--node2-BETDAH_clean_linker_0--edge1-XIVTED_clean_linker_0
_symmetry_space_group_name_H-M    P1
_symmetry_Int_Tables_number       1
_symmetry_cell_setting            triclinic
loop_
_symmetry_equiv_pos_as_xyz
'x, y, z'
_cell_length_a     36.124545
_cell_length_b     39.79916
_cell_length_c     40.701471
_cell_angle_alpha  90.36176
_cell_angle_beta   90.61686
_cell_angle_gamma 109.39785
loop_
_atom_site_label
_atom_site_type_symbol
_atom_site_fract_x
_atom_site_fract_y
_atom_site_fract_z
_atom_type_partial_charge
H0 H 0.36616 0.23443 0.25024 0.0
H1 H 0.42449 0.3139 0.17941 0.0
H2 H 0.34568 0.33462 0.24895 0.0
C3 C 0.37196 0.26062 0.23972 0.0
C4 C 0.3535 0.28348 0.25281 0.0
C5 C 0.39784 0.27129 0.21334 0.0
C6 C 0.40548 0.30556 0.20037 0.0
C7 C 0.38618 0.32817 0.21261 0.0
C8 C 0.36062 0.31724 0.23924 0.0
N9 N 0.39082 0.36074 0.19646 0.0
C10 C 0.35947 0.37331 0.19291 0.0
H11 H 0.25668 0.78631 0.75882 0.0
H12 H 0.14661 0.80512 0.74887 0.0
H13 H 0.18479 0.74992 0.67222 0.0
C14 C 0.22983 0.78312 0.74506 0.0
C15 C 0.22432 0.76662 0.714 0.0
C16 C 0.2019 0.79682 0.75799 0.0
C17 C 0.16807 0.79406 0.7394 0.0
C18 C 0.16165 0.77662 0.70867 0.0
C19 C 0.18938 0.76231 0.6964 0.0
N20 N 0.12847 0.77485 0.68902 0.0
C21 C 0.11677 0.80448 0.68515 0.0
H22 H 0.71415 0.36663 0.91709 0.0
H23 H 0.70311 0.45115 0.85648 0.0
H24 H 0.60522 0.35459 0.86665 0.0
C25 C 0.69667 0.37676 0.90067 0.0
C26 C 0.65765 0.35574 0.8935 0.0
C27 C 0.71333 0.41134 0.88811 0.0
C28 C 0.69097 0.42444 0.86604 0.0
C29 C 0.65218 0.4033 0.85753 0.0
C30 C 0.63571 0.36961 0.87193 0.0
N31 N 0.62699 0.41647 0.83811 0.0
C32 C 0.63626 0.43585 0.80903 0.0
H33 H 0.84117 0.73599 0.43589 0.0
H34 H 0.93592 0.76397 0.36768 0.0
H35 H 0.8474 0.65996 0.36203 0.0
C36 C 0.85619 0.72892 0.41544 0.0
C37 C 0.84063 0.69465 0.40127 0.0
C38 C 0.89067 0.75414 0.40404 0.0
C39 C 0.90886 0.74512 0.3766 0.0
C40 C 0.89333 0.71163 0.36084 0.0
C41 C 0.85888 0.68622 0.37319 0.0
N42 N 0.91536 0.70471 0.33423 0.0
C43 C 0.90483 0.67724 0.31072 0.0
H44 H 0.7482 0.77868 0.85871 0.0
H45 H 0.66844 0.74353 0.93896 0.0
H46 H 0.64777 0.81311 0.86592 0.0
C47 C 0.72126 0.77753 0.87086 0.0
C48 C 0.6986 0.79718 0.85822 0.0
C49 C 0.71095 0.75827 0.90005 0.0
C50 C 0.6769 0.75827 0.9164 0.0
C51 C 0.6544 0.77838 0.90449 0.0
C52 C 0.66536 0.79787 0.87539 0.0
N53 N 0.62142 0.77926 0.9226 0.0
C54 C 0.61009 0.80935 0.92389 0.0
H55 H 0.84875 0.22741 0.3825 0.0
H56 H 0.91065 0.31127 0.45007 0.0
H57 H 0.82114 0.3243 0.38572 0.0
C58 C 0.85375 0.25375 0.39285 0.0
C59 C 0.83167 0.2743 0.38114 0.0
C60 C 0.88203 0.26658 0.41785 0.0
C61 C 0.88944 0.30121 0.43029 0.0
C62 C 0.86719 0.3219 0.41918 0.0
C63 C 0.83851 0.30848 0.39433 0.0
N64 N 0.87228 0.35511 0.43477 0.0
C65 C 0.84052 0.36656 0.44027 0.0
H66 H 0.34722 0.7572 0.18167 0.0
H67 H 0.34837 0.68466 0.25968 0.0
H68 H 0.44609 0.7816 0.24767 0.0
C69 C 0.36174 0.75025 0.2027 0.0
C70 C 0.39881 0.77338 0.21245 0.0
C71 C 0.34291 0.71837 0.21942 0.0
C72 C 0.36227 0.70921 0.24669 0.0
C73 C 0.3996 0.7324 0.25711 0.0
C74 C 0.41729 0.7642 0.23985 0.0
N75 N 0.42134 0.72537 0.2842 0.0
C76 C 0.41029 0.69788 0.30713 0.0
H77 H 0.20762 0.36965 0.68323 0.0
H78 H 0.20349 0.44623 0.75712 0.0
H79 H 0.11533 0.34216 0.75405 0.0
C80 C 0.19293 0.37672 0.70388 0.0
C81 C 0.15909 0.35139 0.71632 0.0
C82 C 0.20869 0.41122 0.71753 0.0
C83 C 0.19157 0.4199 0.74617 0.0
C84 C 0.15789 0.39444 0.75959 0.0
C85 C 0.14191 0.36083 0.7442 0.0
N86 N 0.13749 0.4009 0.78755 0.0
C87 C 0.14738 0.42973 0.80959 0.0
Dy88 Dy 0.06301 0.06302 0.53902 0.0
Dy89 Dy 0.98122 0.04198 0.58167 0.0
C90 C 0.05354 0.11448 0.59728 0.0
O91 O 0.06672 0.02046 0.57283 0.0
O92 O 0.01914 0.01865 0.61093 0.0
O93 O 0.12631 0.08383 0.53407 0.0
O94 O 0.08879 0.06186 0.49188 0.0
O95 O 0.97942 0.99155 0.55609 0.0
O96 O 0.01711 0.01813 0.51264 0.0
O97 O 0.97181 0.06618 0.53435 0.0
O98 O 0.03437 0.10246 0.52489 0.0
O99 O 0.91785 0.02022 0.58144 0.0
O100 O 0.94972 0.04497 0.62561 0.0
C101 C 0.04913 0.00971 0.60087 0.0
O102 O 0.07759 0.10253 0.58055 0.0
O103 O 0.0154 0.09803 0.59696 0.0
C104 C 0.14625 0.11006 0.48236 0.0
C105 C 0.18748 0.16306 0.43824 0.0
C106 C 0.20731 0.14452 0.45683 0.0
C107 C 0.18676 0.11807 0.47862 0.0
C108 C 0.12678 0.12996 0.46523 0.0
C109 C 0.1472 0.15608 0.44315 0.0
C110 C 0.12426 0.0794 0.50226 0.0
C111 C 0.99185 0.98997 0.52612 0.0
C112 C 0.99645 0.09467 0.52106 0.0
C113 C 0.88854 1.00028 0.63239 0.0
C114 C 0.8375 0.95076 0.67445 0.0
C115 C 0.87406 0.94772 0.6663 0.0
C116 C 0.89944 0.97236 0.6454 0.0
C117 C 0.8518 1.00286 0.63969 0.0
C118 C 0.82644 0.9783 0.66053 0.0
C119 C 0.91553 0.02794 0.61236 0.0
H120 H 0.23829 0.1492 0.4533 0.0
H121 H 0.20224 0.10303 0.49169 0.0
H122 H 0.09553 0.12448 0.46805 0.0
H123 H 0.13135 0.17024 0.42932 0.0
H124 H 0.88357 0.927 0.67688 0.0
H125 H 0.92783 0.97009 0.63996 0.0
H126 H 0.84297 0.02425 0.62969 0.0
H127 H 0.79828 0.98104 0.66593 0.0
Dy128 Dy 0.48128 0.05097 0.02962 0.0
Dy129 Dy 0.56785 0.07312 0.06614 0.0
C130 C 0.49836 1.00238 0.08496 0.0
O131 O 0.47591 0.07574 0.07785 0.0
O132 O 0.53978 0.11082 0.08611 0.0
O133 O 0.41813 0.02949 0.03295 0.0
O134 O 0.44542 0.05313 0.98759 0.0
O135 O 0.57639 0.10336 1.01917 0.0
O136 O 0.51485 0.10704 1.01525 0.0
O137 O 0.56883 0.03065 0.03078 0.0
O138 O 0.51421 0.02467 0.99803 0.0
O139 O 0.62644 0.11006 0.0733 0.0
O140 O 0.60721 0.06142 0.10129 0.0
C141 C 0.50232 0.10316 0.09193 0.0
O142 O 0.48297 1.0022 0.05556 0.0
O143 O 0.52494 0.03137 0.09678 0.0
C144 C 0.38429 0.0075 0.98343 0.0
C145 C 0.33018 0.95537 0.94391 0.0
C146 C 0.36803 0.95381 0.95 0.0
C147 C 0.3949 0.9797 0.96966 0.0
C148 C 0.34637 0.00865 0.97822 0.0
C149 C 0.31948 0.98279 0.95864 0.0
C150 C 0.41267 0.0362 1.0023 0.0
C151 C 0.55226 0.1192 1.0081 0.0
C152 C 0.54646 0.01744 1.00493 0.0
C153 C 0.64924 0.11276 0.12796 0.0
C154 C 0.67824 0.15117 0.18633 0.0
C155 C 0.65174 0.16075 0.16606 0.0
C156 C 0.63711 0.14153 0.1372 0.0
C157 C 0.67562 0.10314 0.14814 0.0
C158 C 0.68994 0.12211 0.17716 0.0
C159 C 0.63425 0.09233 0.09766 0.0
H160 H 0.37736 0.93329 0.9387 0.0
H161 H 0.42416 0.97849 0.97353 0.0
H162 H 0.33775 0.02991 0.98889 0.0
H163 H 0.29042 0.98443 0.95479 0.0
H164 H 0.64198 0.18281 0.17274 0.0
H165 H 0.61635 0.14915 0.12213 0.0
H166 H 0.68518 0.08096 0.14143 0.0
H167 H 0.71065 0.11439 0.19218 0.0
Dy168 Dy 0.5091 0.51575 0.53435 0.0
Dy169 Dy 0.52915 0.5936 0.57066 0.0
C170 C 0.55944 0.53438 0.60298 0.0
O171 O 0.45195 0.51553 0.55587 0.0
O172 O 0.47824 0.556 0.59707 0.0
O173 O 0.48911 0.45825 0.53723 0.0
O174 O 0.50635 0.48395 0.49059 0.0
O175 O 0.48467 0.59203 0.53087 0.0
O176 O 0.49529 0.55064 0.49653 0.0
O177 O 0.57864 0.60149 0.53561 0.0
O178 O 0.57259 0.54329 0.52353 0.0
O179 O 0.54294 0.6506 0.56752 0.0
O180 O 0.53413 0.62514 0.61494 0.0
C181 C 0.44881 0.5299 0.58446 0.0
O182 O 0.53407 0.51039 0.58416 0.0
O183 O 0.56751 0.56868 0.59796 0.0
C184 C 0.5282 0.43654 0.50283 0.0
C185 C 0.59084 0.41141 0.48941 0.0
C186 C 0.59225 0.43311 0.5171 0.0
C187 C 0.56133 0.44562 0.52367 0.0
C188 C 0.52598 0.41404 0.47573 0.0
C189 C 0.55707 0.4015 0.46906 0.0
C190 C 0.49907 0.45458 0.50706 0.0
C191 C 0.4822 0.57728 0.50156 0.0
C192 C 0.59181 0.57765 0.52203 0.0
C193 C 0.50701 0.67018 0.60665 0.0
C194 C 0.44556 0.69441 0.62611 0.0
C195 C 0.4413 0.67254 0.59811 0.0
C196 C 0.47164 0.66041 0.58859 0.0
C197 C 0.51189 0.69273 0.63408 0.0
C198 C 0.48142 0.70483 0.64374 0.0
C199 C 0.5369 0.65396 0.59872 0.0
H200 H 0.61804 0.44182 0.53293 0.0
H201 H 0.56404 0.46361 0.54435 0.0
H202 H 0.50085 0.40717 0.45915 0.0
H203 H 0.555 0.3846 0.44769 0.0
H204 H 0.41435 0.66447 0.5837 0.0
H205 H 0.46708 0.64271 0.5675 0.0
H206 H 0.53881 0.70013 0.64855 0.0
H207 H 0.48546 0.72132 0.66564 0.0
Dy208 Dy 0.03062 0.59501 0.03969 0.0
Dy209 Dy 0.02187 0.51937 0.0759 0.0
C210 C 0.98576 0.57527 0.10907 0.0
O211 O 0.09005 0.60464 0.06275 0.0
O212 O 0.07423 0.55901 0.10004 0.0
O213 O 0.04076 0.65171 0.04074 0.0
O214 O 0.02885 0.62276 0.9946 0.0
O215 O 0.06753 0.52524 0.03715 0.0
O216 O 0.04858 0.5616 1.00254 0.0
O217 O 0.97489 0.50655 0.03675 0.0
O218 O 0.96768 0.56131 0.03238 0.0
O219 O 0.01657 0.46373 0.07262 0.0
O220 O 0.01745 0.48856 0.12008 0.0
C221 C 0.0984 0.58914 0.08898 0.0
O222 O 0.00732 0.60009 0.08953 0.0
O223 O 0.98173 0.54142 0.10446 0.0
C224 C 0.99957 0.66629 1.00219 0.0
C225 C 0.93436 0.68548 0.98262 0.0
C226 C 0.93263 0.66486 1.01083 0.0
C227 C 0.96489 0.65517 1.02042 0.0
C228 C 1.00185 0.68768 0.97459 0.0
C229 C 0.96949 0.69722 0.96486 0.0
C230 C 0.03151 0.65236 1.00977 0.0
C231 C 0.0668 0.53851 1.00774 0.0
C232 C 0.95527 0.52695 0.02609 0.0
C233 C 0.05384 0.45019 0.11481 0.0
C234 C 0.11911 0.43281 0.1375 0.0
C235 C 0.12417 0.46193 0.11659 0.0
C236 C 0.09188 0.47058 0.10546 0.0
C237 C 0.04838 0.4209 0.13537 0.0
C238 C 0.08081 0.41218 0.1466 0.0
C239 C 0.02061 0.46112 0.10427 0.0
H240 H 0.90585 0.65506 0.02476 0.0
H241 H 0.96234 0.63809 0.0415 0.0
H242 H 0.02826 0.69617 0.96008 0.0
H243 H 0.97179 0.71345 0.94321 0.0
H244 H 0.15311 0.478 0.10862 0.0
H245 H 0.09666 0.49345 0.08972 0.0
H246 H 0.01919 0.40512 0.14304 0.0
H247 H 0.07598 0.38977 0.1629 0.0
H248 H 0.35724 0.31303 0.31402 0.0
H249 H 0.16276 0.16308 0.37487 0.0
H250 H 0.28702 0.22591 0.25281 0.0
H251 H 0.25896 0.21635 0.44083 0.0
H252 H 0.20006 0.19731 0.32926 0.0
H253 H 0.31338 0.28837 0.36024 0.0
C254 C 0.33226 0.289 0.31032 0.0
C255 C 0.32564 0.27119 0.27989 0.0
C256 C 0.21278 0.20178 0.35379 0.0
C257 C 0.27563 0.24333 0.33196 0.0
C258 C 0.19145 0.1825 0.37982 0.0
C259 C 0.20796 0.18685 0.41157 0.0
C260 C 0.25069 0.22584 0.35961 0.0
C261 C 0.24543 0.21204 0.4166 0.0
C262 C 0.30747 0.27494 0.33657 0.0
C263 C 0.2931 0.24014 0.27609 0.0
N264 N 0.26567 0.23059 0.39082 0.0
N265 N 0.26924 0.22716 0.30185 0.0
H266 H 0.22777 0.77596 0.81505 0.0
H267 H 0.28236 0.969 0.89693 0.0
H268 H 0.19536 0.8617 0.77317 0.0
H269 H 0.31599 0.88342 0.93793 0.0
H270 H 0.24211 0.92764 0.85582 0.0
H271 H 0.25166 0.81222 0.86441 0.0
C272 C 0.22528 0.80231 0.81647 0.0
C273 C 0.21008 0.81608 0.78989 0.0
C274 C 0.25796 0.9178 0.874 0.0
C275 C 0.23756 0.85783 0.84613 0.0
C276 C 0.28081 0.94137 0.89763 0.0
C277 C 0.30288 0.92973 0.92077 0.0
C278 C 0.25727 0.88233 0.87337 0.0
C279 C 0.30007 0.89371 0.92018 0.0
C280 C 0.23888 0.82299 0.84464 0.0
C281 C 0.20689 0.85011 0.79314 0.0
N282 N 0.27796 0.87136 0.89668 0.0
N283 N 0.22106 0.87005 0.82059 0.0
H284 H 0.6203 0.40273 0.7499 0.0
H285 H 0.60087 0.57362 0.65585 0.0
H286 H 0.64564 0.50545 0.7965 0.0
H287 H 0.55873 0.46654 0.61636 0.0
H288 H 0.62531 0.55133 0.70474 0.0
H289 H 0.60623 0.4278 0.69818 0.0
C290 C 0.62373 0.43081 0.74899 0.0
C291 C 0.63463 0.45218 0.77731 0.0
C292 C 0.61093 0.53276 0.68527 0.0
C293 C 0.61769 0.48108 0.71834 0.0
C294 C 0.59706 0.5455 0.65722 0.0
C295 C 0.57744 0.52199 0.63179 0.0
C296 C 0.6055 0.49621 0.688 0.0
C297 C 0.57337 0.48577 0.63526 0.0
C298 C 0.61536 0.44509 0.71953 0.0
C299 C 0.63782 0.48821 0.77503 0.0
N300 N 0.58713 0.47408 0.66271 0.0
N301 N 0.62926 0.50151 0.74613 0.0
H302 H 0.91402 0.61175 0.30678 0.0
H303 H 0.97019 0.63762 0.11672 0.0
H304 H 0.90131 0.6968 0.24789 0.0
H305 H 0.95836 0.53955 0.1669 0.0
H306 H 0.94424 0.65875 0.16476 0.0
H307 H 0.92858 0.58352 0.25664 0.0
C308 C 0.9133 0.62397 0.28318 0.0
C309 C 0.90581 0.65634 0.28134 0.0
C310 C 0.94697 0.63247 0.16532 0.0
C311 C 0.92376 0.62495 0.22405 0.0
C312 C 0.96195 0.62035 0.1378 0.0
C313 C 0.96669 0.58668 0.13759 0.0
C314 C 0.937 0.61116 0.19344 0.0
C315 C 0.95516 0.56562 0.16578 0.0
C316 C 0.9219 0.60801 0.25459 0.0
C317 C 0.90631 0.67156 0.2503 0.0
N318 N 0.94129 0.57832 0.19263 0.0
N319 N 0.91545 0.65598 0.22305 0.0
H320 H 0.36011 0.20096 0.19937 0.0
H321 H 0.54619 0.16784 0.11868 0.0
H322 H 0.47312 0.2832 0.19207 0.0
H323 H 0.42827 0.09254 0.11424 0.0
H324 H 0.52216 0.20843 0.15071 0.0
H325 H 0.38691 0.159 0.1733 0.0
C326 C 0.39074 0.21012 0.19257 0.0
C327 C 0.41448 0.24564 0.19803 0.0
C328 C 0.50164 0.18295 0.14282 0.0
C329 C 0.44528 0.19771 0.16764 0.0
C330 C 0.51533 0.1597 0.12463 0.0
C331 C 0.48913 0.12682 0.11353 0.0
C332 C 0.46155 0.17314 0.15007 0.0
C333 C 0.4495 0.11769 0.12204 0.0
C334 C 0.40597 0.18618 0.17747 0.0
C335 C 0.45374 0.25613 0.18808 0.0
N336 N 0.43694 0.14076 0.13969 0.0
N337 N 0.46796 0.23225 0.17334 0.0
H338 H 0.16765 0.86467 0.66185 0.0
H339 H 0.00758 0.96321 0.6475 0.0
H340 H 0.04834 0.81755 0.69364 0.0
H341 H 0.11852 0.99668 0.5975 0.0
H342 H 0.02568 0.91528 0.67331 0.0
H343 H 0.1536 0.91873 0.64672 0.0
C344 C 0.13854 0.866 0.66583 0.0
C345 C 0.10895 0.83698 0.67869 0.0
C346 C 0.04616 0.93338 0.65694 0.0
C347 C 0.09252 0.89823 0.66149 0.0
C348 C 0.03598 0.96086 0.64236 0.0
C349 C 0.06146 0.98379 0.62009 0.0
C350 C 0.08218 0.92906 0.64937 0.0
C351 C 0.09779 0.97939 0.61422 0.0
C352 C 0.13049 0.89672 0.6572 0.0
C353 C 0.07175 0.83962 0.6836 0.0
N354 N 0.10696 0.95247 0.62864 0.0
N355 N 0.06444 0.86978 0.6748 0.0
H356 H 0.73634 0.47992 0.91299 0.0
H357 H 0.92719 0.45943 1.00003 0.0
H358 H 0.77973 0.39305 0.89426 0.0
H359 H 0.90284 0.5585 1.00247 0.0
H360 H 0.87151 0.43464 0.96258 0.0
H361 H 0.79641 0.51017 0.94517 0.0
C362 C 0.75887 0.46761 0.91494 0.0
C363 C 0.75278 0.43373 0.90106 0.0
C364 C 0.87827 0.46183 0.97123 0.0
C365 C 0.82103 0.46768 0.93864 0.0
C366 C 0.91002 0.47598 0.9929 0.0
C367 C 0.91984 0.51115 1.00468 0.0
C368 C 0.85561 0.48273 0.96124 0.0
C369 C 0.89641 0.53123 0.99417 0.0
C370 C 0.79297 0.48471 0.93362 0.0
C371 C 0.78286 0.41889 0.90484 0.0
N372 N 0.86533 0.51672 0.9732 0.0
N373 N 0.81526 0.43567 0.92351 0.0
H374 H 0.83207 0.68117 0.46669 0.0
H375 H 0.61311 0.54746 0.46759 0.0
H376 H 0.77069 0.64907 0.37418 0.0
H377 H 0.65584 0.63653 0.53484 0.0
H378 H 0.6745 0.57078 0.43646 0.0
H379 H 0.77193 0.64955 0.49561 0.0
C380 C 0.80601 0.66704 0.45238 0.0
C381 C 0.80631 0.66856 0.41785 0.0
C382 C 0.67032 0.585 0.4581 0.0
C383 C 0.73724 0.63158 0.45116 0.0
C384 C 0.63553 0.57168 0.47599 0.0
C385 C 0.62937 0.59012 0.50389 0.0
C386 C 0.69958 0.61632 0.46883 0.0
C387 C 0.65924 0.62153 0.51348 0.0
C388 C 0.7717 0.64907 0.46899 0.0
C389 C 0.7718 0.64882 0.40076 0.0
N390 N 0.69311 0.6334 0.49621 0.0
N391 N 0.73844 0.6313 0.41761 0.0
H392 H 0.28641 0.3268 0.187 0.0
H393 H 0.19038 0.47914 0.15811 0.0
H394 H 0.35278 0.43892 0.18803 0.0
H395 H 0.12716 0.36693 0.14434 0.0
H396 H 0.24868 0.46487 0.17414 0.0
H397 H 0.22623 0.3409 0.17649 0.0
C398 C 0.28807 0.35442 0.18512 0.0
C399 C 0.32412 0.38185 0.1882 0.0
C400 C 0.22204 0.44336 0.16771 0.0
C401 C 0.256 0.39824 0.17624 0.0
C402 C 0.18875 0.45147 0.1584 0.0
C403 C 0.15387 0.4242 0.1495 0.0
C404 C 0.22054 0.40768 0.16825 0.0
C405 C 0.15329 0.38881 0.15115 0.0
C406 C 0.25387 0.36247 0.17912 0.0
C407 C 0.32524 0.41717 0.18571 0.0
N408 N 0.18619 0.38158 0.16016 0.0
N409 N 0.29156 0.42442 0.17977 0.0
H410 H 0.6004 0.29473 0.86929 0.0
H411 H 0.6266 0.16747 1.01047 0.0
H412 H 0.67357 0.33472 0.95524 0.0
H413 H 0.51367 0.14781 0.96349 0.0
H414 H 0.65114 0.22461 0.98207 0.0
H415 H 0.57371 0.23677 0.89615 0.0
C416 C 0.61089 0.29165 0.89371 0.0
C417 C 0.63994 0.32009 0.90958 0.0
C418 C 0.62104 0.20768 0.97789 0.0
C419 C 0.61017 0.25315 0.93992 0.0
C420 C 0.60708 0.17497 0.9939 0.0
C421 C 0.56799 0.15282 0.98939 0.0
C422 C 0.59609 0.21806 0.95655 0.0
C423 C 0.54395 0.16414 0.96779 0.0
C424 C 0.59572 0.25839 0.90891 0.0
C425 C 0.6524 0.31374 0.94121 0.0
N426 N 0.55844 0.19587 0.95197 0.0
N427 N 0.63783 0.28104 0.95505 0.0
H428 H 0.89388 0.76697 0.4706 0.0
H429 H 1.00333 0.9778 0.4609 0.0
H430 H 0.92722 0.8214 0.37859 0.0
H431 H 0.94748 0.92386 0.54802 0.0
H432 H 0.98016 0.92095 0.43074 0.0
H433 H 0.91806 0.82399 0.4995 0.0
C434 C 0.90604 0.79091 0.45633 0.0
C435 C 0.90782 0.78913 0.42186 0.0
C436 C 0.97293 0.92159 0.45643 0.0
C437 C 0.93655 0.8551 0.45532 0.0
C438 C 0.98617 0.95407 0.47374 0.0
C439 C 0.97733 0.95579 0.50715 0.0
C440 C 0.95095 0.8904 0.47266 0.0
C441 C 0.95496 0.92403 0.52233 0.0
C442 C 0.92008 0.82358 0.47299 0.0
C443 C 0.92523 0.82126 0.4051 0.0
N444 N 0.94273 0.89277 0.50505 0.0
N445 N 0.9388 0.85287 0.42195 0.0
H446 H 0.30201 0.80601 0.7129 0.0
H447 H 0.36763 0.65392 0.62734 0.0
H448 H 0.21991 0.7047 0.6813 0.0
H449 H 0.4473 0.75918 0.65101 0.0
H450 H 0.31313 0.67175 0.64669 0.0
H451 H 0.35551 0.78894 0.69044 0.0
C452 C 0.29529 0.78003 0.70135 0.0
C453 C 0.25652 0.75652 0.69931 0.0
C454 C 0.3425 0.69099 0.64754 0.0
C455 C 0.3177 0.73691 0.67318 0.0
C456 C 0.37365 0.68091 0.63632 0.0
C457 C 0.41217 0.70514 0.63746 0.0
C458 C 0.34985 0.72552 0.66014 0.0
C459 C 0.41822 0.73949 0.65001 0.0
C460 C 0.32584 0.77039 0.68834 0.0
C461 C 0.24939 0.72359 0.68337 0.0
N462 N 0.3874 0.74863 0.66089 0.0
N463 N 0.27977 0.71464 0.67107 0.0
H464 H 0.70153 0.8658 0.8464 0.0
H465 H 0.82048 0.8785 0.6797 0.0
H466 H 0.72525 0.77671 0.80145 0.0
H467 H 0.79609 0.96752 0.72418 0.0
H468 H 0.78098 0.83961 0.72171 0.0
H469 H 0.73018 0.90212 0.79891 0.0
C470 C 0.71219 0.85373 0.8263 0.0
C471 C 0.71139 0.8183 0.82801 0.0
C472 C 0.78402 0.86761 0.72214 0.0
C473 C 0.74476 0.85979 0.77388 0.0
C474 C 0.80676 0.88984 0.69827 0.0
C475 C 0.81176 0.92633 0.69851 0.0
C476 C 0.76632 0.882 0.74657 0.0
C477 C 0.79276 0.93949 0.72285 0.0
C478 C 0.7288 0.87453 0.7993 0.0
C479 C 0.72596 0.80412 0.80139 0.0
N480 N 0.77112 0.91739 0.74602 0.0
N481 N 0.74232 0.82497 0.77556 0.0
H482 H 0.77576 0.20862 0.3802 0.0
H483 H 0.70774 0.22361 0.1949 0.0
H484 H 0.81813 0.30528 0.32424 0.0
H485 H 0.6847 0.12487 0.24705 0.0
H486 H 0.73846 0.25631 0.24484 0.0
H487 H 0.73192 0.18026 0.33464 0.0
C488 C 0.77556 0.22393 0.35832 0.0
C489 C 0.80107 0.25909 0.35564 0.0
C490 C 0.72638 0.22751 0.24538 0.0
C491 C 0.75105 0.22681 0.30335 0.0
C492 C 0.70874 0.20888 0.21699 0.0
C493 C 0.69409 0.1715 0.21683 0.0
C494 C 0.72906 0.20856 0.27379 0.0
C495 C 0.69626 0.15366 0.24599 0.0
C496 C 0.75053 0.20776 0.33234 0.0
C497 C 0.79902 0.27804 0.32713 0.0
N498 N 0.71358 0.17235 0.27323 0.0
N499 N 0.77477 0.26149 0.30183 0.0
H500 H 0.39828 0.71064 0.37087 0.0
H501 H 0.47353 0.55423 0.43715 0.0
H502 H 0.42619 0.63565 0.30755 0.0
H503 H 0.45318 0.63349 0.50049 0.0
H504 H 0.4503 0.58009 0.39023 0.0
H505 H 0.41136 0.67903 0.41896 0.0
C506 C 0.40622 0.68693 0.36714 0.0
C507 C 0.41052 0.67535 0.33524 0.0
C508 C 0.45068 0.59176 0.41439 0.0
C509 C 0.42669 0.63949 0.39018 0.0
C510 C 0.46395 0.57693 0.44135 0.0
C511 C 0.46555 0.59163 0.4731 0.0
C512 C 0.43875 0.62168 0.41887 0.0
C513 C 0.45262 0.62115 0.47663 0.0
C514 C 0.41407 0.66908 0.3946 0.0
C515 C 0.4219 0.64508 0.33175 0.0
N516 N 0.43997 0.6352 0.44995 0.0
N517 N 0.42974 0.62833 0.35882 0.0
H518 H 0.12469 0.48848 0.80997 0.0
H519 H 0.10488 0.48859 1.00683 0.0
H520 H 0.1629 0.41992 0.87335 0.0
H521 H 0.06985 0.55925 0.94314 0.0
H522 H 0.13036 0.46598 0.95896 0.0
H523 H 0.10937 0.51804 0.85869 0.0
C524 C 0.13081 0.48031 0.83419 0.0
C525 C 0.14576 0.45219 0.83767 0.0
C526 C 0.11733 0.48661 0.95547 0.0
C527 C 0.12707 0.48504 0.89373 0.0
C528 C 0.10276 0.4996 0.98289 0.0
C529 C 0.08497 0.52593 0.97926 0.0
C530 C 0.11414 0.49985 0.92394 0.0
C531 C 0.08316 0.53896 0.94738 0.0
C532 C 0.12171 0.49693 0.86205 0.0
C533 C 0.15207 0.44194 0.86962 0.0
N534 N 0.09729 0.52574 0.92113 0.0
N535 N 0.14251 0.45814 0.89634 0.0
H536 H 0.66253 0.87425 0.93512 0.0
H537 H 0.49789 0.96487 0.96507 0.0
H538 H 0.53877 0.81806 0.92247 0.0
H539 H 0.61804 0.0091 0.99921 0.0
H540 H 0.51391 0.91593 0.93868 0.0
H541 H 0.64808 0.92882 0.94805 0.0
C542 C 0.63232 0.87369 0.93472 0.0
C543 C 0.60169 0.84201 0.92799 0.0
C544 C 0.53681 0.93662 0.95163 0.0
C545 C 0.58482 0.90379 0.94285 0.0
C546 C 0.52777 0.96466 0.9665 0.0
C547 C 0.55661 0.9909 0.98463 0.0
C548 C 0.57501 0.93509 0.95468 0.0
C549 C 0.59478 0.98921 0.98582 0.0
C550 C 0.62405 0.90468 0.94214 0.0
C551 C 0.56304 0.84223 0.92768 0.0
N552 N 0.6028 0.96169 0.97123 0.0
N553 N 0.5556 0.87271 0.93526 0.0
H554 H 0.9599 0.28042 0.43456 0.0
H555 H 0.9204 0.08358 0.50299 0.0
H556 H 0.84683 0.1975 0.43488 0.0
H557 H 0.03656 0.16159 0.49824 0.0
H558 H 0.89379 0.12561 0.47712 0.0
H559 H 0.98943 0.23828 0.45801 0.0
C560 C 0.94136 0.25342 0.43961 0.0
C561 C 0.90097 0.2423 0.43249 0.0
C562 C 0.92514 0.1336 0.48156 0.0
C563 C 0.9343 0.19419 0.45905 0.0
C564 C 0.94039 0.10952 0.49634 0.0
C565 C 0.98075 0.11911 0.50292 0.0
C566 C 0.95033 0.16771 0.47341 0.0
C567 C 0.00522 0.1531 0.4936 0.0
C568 C 0.95819 0.22938 0.45278 0.0
C569 C 0.87822 0.20704 0.43939 0.0
N570 N 0.98958 0.17632 0.47947 0.0
N571 N 0.89518 0.18433 0.45226 0.0
H572 H 0.31487 0.64548 0.20755 0.0
H573 H 0.14281 0.65998 0.09055 0.0
H574 H 0.28097 0.73948 0.20168 0.0
H575 H 0.13763 0.5588 0.13146 0.0
H576 H 0.20014 0.68926 0.1256 0.0
H577 H 0.25468 0.61215 0.17644 0.0
C578 C 0.29452 0.65894 0.20033 0.0
C579 C 0.30338 0.69551 0.20687 0.0
C580 C 0.18649 0.66063 0.12687 0.0
C581 C 0.23538 0.65796 0.17046 0.0
C582 C 0.15395 0.64386 0.10663 0.0
C583 C 0.13524 0.60688 0.10805 0.0
C584 C 0.20107 0.64032 0.14839 0.0
C585 C 0.15098 0.58742 0.12966 0.0
C586 C 0.26039 0.64001 0.18232 0.0
C587 C 0.27591 0.71156 0.19662 0.0
N588 N 0.18308 0.60431 0.14885 0.0
N589 N 0.24369 0.69293 0.17858 0.0
H590 H 0.28074 0.45434 0.74248 0.0
H591 H 0.37622 0.48492 0.56402 0.0
H592 H 0.21363 0.42601 0.65224 0.0
H593 H 0.43758 0.54252 0.64945 0.0
H594 H 0.31703 0.46128 0.59698 0.0
H595 H 0.339 0.48666 0.71022 0.0
C596 C 0.27804 0.45556 0.71603 0.0
C597 C 0.24232 0.43713 0.70006 0.0
C598 C 0.34339 0.47925 0.6085 0.0
C599 C 0.30888 0.47314 0.66296 0.0
C600 C 0.37729 0.49267 0.58966 0.0
C601 C 0.41209 0.51579 0.60385 0.0
C602 C 0.34421 0.48851 0.64203 0.0
C603 C 0.41148 0.52487 0.63733 0.0
C604 C 0.31134 0.47372 0.69758 0.0
C605 C 0.24067 0.43938 0.6656 0.0
N606 N 0.37829 0.51102 0.65529 0.0
N607 N 0.27341 0.4565 0.6483 0.0
H608 H 0.73468 0.75866 0.96435 0.0
H609 H 0.90572 0.68135 0.91979 0.0
H610 H 0.74923 0.71892 0.86816 0.0
H611 H 0.88246 0.70692 1.01895 0.0
H612 H 0.84759 0.69422 0.90081 0.0
H613 H 0.78647 0.73748 0.98565 0.0
C614 C 0.74823 0.74488 0.94784 0.0
C615 C 0.73785 0.74084 0.91435 0.0
C616 C 0.85506 0.69692 0.92675 0.0
C617 C 0.79771 0.71727 0.93839 0.0
C618 C 0.88847 0.68989 0.93755 0.0
C619 C 0.89912 0.69337 0.97096 0.0
C620 C 0.83217 0.70777 0.94947 0.0
C621 C 0.87521 0.70379 0.99299 0.0
C622 C 0.77803 0.73306 0.95996 0.0
C623 C 0.75678 0.72317 0.89402 0.0
N624 N 0.84298 0.71085 0.98182 0.0
N625 N 0.78602 0.71236 0.90628 0.0
H626 H 0.39961 0.78266 0.14563 0.0
H627 H 0.5157 0.99311 0.14984 0.0
H628 H 0.44107 0.84085 0.23605 0.0
H629 H 0.45205 0.93555 0.06523 0.0
H630 H 0.49425 0.93759 0.18126 0.0
H631 H 0.42475 0.83806 0.11535 0.0
C632 C 0.41392 0.8071 0.15922 0.0
C633 C 0.41758 0.80693 0.19365 0.0
C634 C 0.485 0.93719 0.15582 0.0
C635 C 0.44719 0.87098 0.1587 0.0
C636 C 0.49725 0.96888 0.13783 0.0
C637 C 0.48559 0.96918 0.10478 0.0
C638 C 0.46123 0.90541 0.14061 0.0
C639 C 0.46169 0.93684 0.09062 0.0
C640 C 0.42844 0.83882 0.14181 0.0
C641 C 0.43757 0.83953 0.20958 0.0
N642 N 0.45046 0.90643 0.10853 0.0
N643 N 0.45144 0.87022 0.19202 0.0
H644 H 0.11794 0.28588 0.74361 0.0
H645 H 0.11993 0.17053 0.58439 0.0
H646 H 0.15983 0.33436 0.65035 0.0
H647 H 0.02384 0.13652 0.65208 0.0
H648 H 0.14472 0.22784 0.61376 0.0
H649 H 0.09142 0.22808 0.7154 0.0
C650 C 0.12155 0.2847 0.71732 0.0
C651 C 0.14177 0.31558 0.69966 0.0
C652 C 0.11827 0.20775 0.6222 0.0
C653 C 0.11243 0.24886 0.66749 0.0
C654 C 0.10423 0.17498 0.6056 0.0
C655 C 0.06971 0.14869 0.61576 0.0
C656 C 0.09825 0.21406 0.64969 0.0
C657 C 0.05044 0.15611 0.64331 0.0
C658 C 0.10654 0.25152 0.70131 0.0
C659 C 0.14576 0.3116 0.66554 0.0
N660 N 0.06512 0.18799 0.6595 0.0
N661 N 0.13167 0.27899 0.65076 0.0
H662 H 0.81082 0.36987 0.49991 0.0
H663 H 0.62247 0.41015 0.4286 0.0
H664 H 0.79006 0.37933 0.39654 0.0
H665 H 0.63906 0.39037 0.53096 0.0
H666 H 0.68332 0.39884 0.41601 0.0
H667 H 0.74836 0.37882 0.51177 0.0
C668 C 0.79307 0.37419 0.47979 0.0
C669 C 0.80528 0.3743 0.44734 0.0
C670 C 0.67353 0.3968 0.44119 0.0
C671 C 0.73393 0.384 0.4604 0.0
C672 C 0.63859 0.40294 0.44837 0.0
C673 C 0.62566 0.40132 0.48093 0.0
C674 C 0.69578 0.38908 0.46675 0.0
C675 C 0.64817 0.39244 0.50559 0.0
C676 C 0.75741 0.37907 0.48648 0.0
C677 C 0.78145 0.37948 0.42193 0.0
N678 N 0.68217 0.38683 0.49801 0.0
N679 N 0.74677 0.38418 0.42899 0.0
loop_
_geom_bond_atom_site_label_1
_geom_bond_atom_site_label_2
_geom_bond_distance
_geom_bond_site_symmetry_2
_ccdc_geom_bond_type
H0 C3 0.929 . S
H1 C6 0.929 . S
H2 C8 0.930 . S
C3 H0 0.929 . S
C3 C4 1.398 . S
C3 C5 1.396 . S
C4 C3 1.398 . S
C4 C8 1.407 . S
C5 C3 1.396 . S
C5 C6 1.394 . S
C6 H1 0.929 . S
C6 C5 1.394 . S
C6 C7 1.382 . S
C7 C6 1.382 . S
C7 C8 1.392 . S
C7 N9 1.420 . S
C8 H2 0.930 . S
C8 C4 1.407 . S
C8 C7 1.392 . S
N9 C7 1.420 . S
N9 C10 1.244 . S
C10 N9 1.244 . S
H11 C14 0.929 . S
H12 C17 0.929 . S
H13 C19 0.930 . S
C14 H11 0.929 . S
C14 C15 1.398 . S
C14 C16 1.396 . S
C15 C14 1.398 . S
C15 C19 1.407 . S
C16 C14 1.396 . S
C16 C17 1.394 . S
C17 H12 0.929 . S
C17 C16 1.394 . S
C17 C18 1.382 . S
C18 C17 1.382 . S
C18 C19 1.392 . S
C18 N20 1.420 . S
C19 H13 0.930 . S
C19 C15 1.407 . S
C19 C18 1.392 . S
N20 C18 1.420 . S
N20 C21 1.244 . S
C21 N20 1.244 . S
H22 C25 0.929 . S
H23 C28 0.929 . S
H24 C30 0.930 . S
C25 H22 0.929 . S
C25 C26 1.398 . S
C25 C27 1.396 . S
C26 C25 1.398 . S
C26 C30 1.407 . S
C27 C25 1.396 . S
C27 C28 1.394 . S
C28 H23 0.929 . S
C28 C27 1.394 . S
C28 C29 1.382 . S
C29 C28 1.382 . S
C29 C30 1.392 . S
C29 N31 1.420 . S
C30 H24 0.930 . S
C30 C26 1.407 . S
C30 C29 1.392 . S
N31 C29 1.420 . S
N31 C32 1.244 . S
C32 N31 1.244 . S
H33 C36 0.929 . S
H34 C39 0.929 . S
H35 C41 0.930 . S
C36 H33 0.929 . S
C36 C37 1.398 . S
C36 C38 1.396 . S
C37 C36 1.398 . S
C37 C41 1.407 . S
C38 C36 1.396 . S
C38 C39 1.394 . S
C39 H34 0.929 . S
C39 C38 1.394 . S
C39 C40 1.382 . S
C40 C39 1.382 . S
C40 C41 1.392 . S
C40 N42 1.420 . S
C41 H35 0.930 . S
C41 C37 1.407 . S
C41 C40 1.392 . S
N42 C40 1.420 . S
N42 C43 1.244 . S
C43 N42 1.244 . S
H44 C47 0.929 . S
H45 C50 0.929 . S
H46 C52 0.930 . S
C47 H44 0.929 . S
C47 C48 1.398 . S
C47 C49 1.396 . S
C48 C47 1.398 . S
C48 C52 1.407 . S
C49 C47 1.396 . S
C49 C50 1.394 . S
C50 H45 0.929 . S
C50 C49 1.394 . S
C50 C51 1.382 . S
C51 C50 1.382 . S
C51 C52 1.392 . S
C51 N53 1.420 . S
C52 H46 0.930 . S
C52 C48 1.407 . S
C52 C51 1.392 . S
N53 C51 1.420 . S
N53 C54 1.244 . S
C54 N53 1.244 . S
H55 C58 0.929 . S
H56 C61 0.929 . S
H57 C63 0.930 . S
C58 H55 0.929 . S
C58 C59 1.398 . S
C58 C60 1.396 . S
C59 C58 1.398 . S
C59 C63 1.407 . S
C60 C58 1.396 . S
C60 C61 1.394 . S
C61 H56 0.929 . S
C61 C60 1.394 . S
C61 C62 1.382 . S
C62 C61 1.382 . S
C62 C63 1.392 . S
C62 N64 1.420 . S
C63 H57 0.930 . S
C63 C59 1.407 . S
C63 C62 1.392 . S
N64 C62 1.420 . S
N64 C65 1.244 . S
C65 N64 1.244 . S
H66 C69 0.929 . S
H67 C72 0.929 . S
H68 C74 0.930 . S
C69 H66 0.929 . S
C69 C70 1.398 . S
C69 C71 1.396 . S
C70 C69 1.398 . S
C70 C74 1.407 . S
C71 C69 1.396 . S
C71 C72 1.394 . S
C72 H67 0.929 . S
C72 C71 1.394 . S
C72 C73 1.382 . S
C73 C72 1.382 . S
C73 C74 1.392 . S
C73 N75 1.420 . S
C74 H68 0.930 . S
C74 C70 1.407 . S
C74 C73 1.392 . S
N75 C73 1.420 . S
N75 C76 1.244 . S
C76 N75 1.244 . S
H77 C80 0.929 . S
H78 C83 0.929 . S
H79 C85 0.930 . S
C80 H77 0.929 . S
C80 C81 1.398 . S
C80 C82 1.396 . S
C81 C80 1.398 . S
C81 C85 1.407 . S
C82 C80 1.396 . S
C82 C83 1.394 . S
C83 H78 0.929 . S
C83 C82 1.394 . S
C83 C84 1.382 . S
C84 C83 1.382 . S
C84 C85 1.392 . S
C84 N86 1.420 . S
C85 H79 0.930 . S
C85 C81 1.407 . S
C85 C84 1.392 . S
N86 C84 1.420 . S
N86 C87 1.244 . S
C87 N86 1.244 . S
Dy88 O91 2.307 1_545 S
Dy88 O93 2.395 . S
Dy88 O94 2.379 . S
Dy88 O96 2.339 1_545 S
Dy88 O98 2.298 . S
Dy88 O102 2.275 . S
Dy88 C110 2.738 . S
Dy89 O92 2.298 1_645 S
Dy89 O95 2.275 1_545 S
Dy89 O97 2.307 . S
Dy89 O99 2.395 1_545 S
Dy89 O100 2.379 . S
Dy89 O103 2.339 1_655 S
Dy89 C119 2.738 1_545 S
C90 O102 1.254 . S
C90 O103 1.257 . S
O91 Dy88 2.307 1_565 S
O91 C101 1.266 . S
O92 Dy89 2.298 1_465 S
O92 C101 1.236 . S
O93 Dy88 2.395 . S
O93 C110 1.255 . S
O94 Dy88 2.379 . S
O94 C110 1.249 . S
O95 Dy89 2.275 1_565 S
O95 C111 1.254 . S
O96 Dy88 2.339 1_565 S
O96 C111 1.257 1_455 S
O97 Dy89 2.307 . S
O97 C112 1.266 . S
O98 Dy88 2.298 . S
O98 C112 1.236 1_455 S
O99 Dy89 2.395 1_565 S
O99 C119 1.255 . S
O100 Dy89 2.379 . S
O100 C119 1.249 1_545 S
C101 O91 1.266 . S
C101 O92 1.236 . S
O102 Dy88 2.275 . S
O102 C90 1.254 . S
O103 Dy89 2.339 1_455 S
O103 C90 1.257 . S
C104 C107 1.344 . S
C104 C108 1.328 . S
C104 C110 1.516 . S
C105 C106 1.304 . S
C105 C109 1.323 . S
C106 C105 1.304 . S
C106 C107 1.371 . S
C106 H120 0.930 . S
C107 C104 1.344 . S
C107 C106 1.371 . S
C107 H121 0.931 . S
C108 C104 1.328 . S
C108 C109 1.433 . S
C108 H122 0.931 . S
C109 C105 1.323 . S
C109 C108 1.433 . S
C109 H123 0.933 . S
C110 Dy88 2.738 . S
C110 O93 1.255 . S
C110 O94 1.249 . S
C110 C104 1.516 . S
C111 O95 1.254 . S
C111 O96 1.257 1_655 S
C112 O97 1.266 . S
C112 O98 1.236 1_655 S
C113 C116 1.344 . S
C113 C117 1.328 . S
C113 C119 1.516 . S
C114 C115 1.304 . S
C114 C118 1.323 . S
C115 C114 1.304 . S
C115 C116 1.371 . S
C115 H124 0.930 . S
C116 C113 1.344 . S
C116 C115 1.371 . S
C116 H125 0.931 . S
C117 C113 1.328 . S
C117 C118 1.433 . S
C117 H126 0.931 . S
C118 C114 1.323 . S
C118 C117 1.433 . S
C118 H127 0.933 . S
C119 Dy89 2.738 1_565 S
C119 O99 1.255 . S
C119 O100 1.249 1_565 S
C119 C113 1.516 . S
H120 C106 0.930 . S
H121 C107 0.931 . S
H122 C108 0.931 . S
H123 C109 0.933 . S
H124 C115 0.930 . S
H125 C116 0.931 . S
H126 C117 0.931 . S
H127 C118 0.933 . S
Dy128 O131 2.307 . S
Dy128 O133 2.395 1_544 S
Dy128 O134 2.379 1_554 S
Dy128 O136 2.339 1_554 S
Dy128 O138 2.298 1_544 S
Dy128 O142 2.275 1_545 S
Dy128 C150 2.738 1_544 S
Dy129 O132 2.298 . S
Dy129 O135 2.275 . S
Dy129 O137 2.307 1_545 S
Dy129 O139 2.395 . S
Dy129 O140 2.379 . S
Dy129 O143 2.339 1_545 S
Dy129 C159 2.738 . S
C130 O142 1.254 . S
C130 O143 1.257 . S
O131 Dy128 2.307 . S
O131 C141 1.266 . S
O132 Dy129 2.298 . S
O132 C141 1.236 . S
O133 Dy128 2.395 1_566 S
O133 C150 1.255 . S
O134 Dy128 2.379 1_556 S
O134 C150 1.249 1_545 S
O135 Dy129 2.275 . S
O135 C151 1.254 . S
O136 Dy128 2.339 1_556 S
O136 C151 1.257 1_556 S
O137 Dy129 2.307 1_565 S
O137 C152 1.266 . S
O138 Dy128 2.298 1_566 S
O138 C152 1.236 1_556 S
O139 Dy129 2.395 . S
O139 C159 1.255 . S
O140 Dy129 2.379 . S
O140 C159 1.249 . S
C141 O131 1.266 . S
C141 O132 1.236 . S
O142 Dy128 2.275 1_565 S
O142 C130 1.254 . S
O143 Dy129 2.339 1_565 S
O143 C130 1.257 . S
C144 C147 1.344 . S
C144 C148 1.328 . S
C144 C150 1.516 . S
C145 C146 1.304 . S
C145 C149 1.323 . S
C146 C145 1.304 . S
C146 C147 1.371 . S
C146 H160 0.930 . S
C147 C144 1.344 . S
C147 C146 1.371 . S
C147 H161 0.931 . S
C148 C144 1.328 . S
C148 C149 1.433 . S
C148 H162 0.931 . S
C149 C145 1.323 . S
C149 C148 1.433 . S
C149 H163 0.933 . S
C150 Dy128 2.738 1_566 S
C150 O133 1.255 . S
C150 O134 1.249 1_565 S
C150 C144 1.516 . S
C151 O135 1.254 . S
C151 O136 1.257 1_554 S
C152 O137 1.266 . S
C152 O138 1.236 1_554 S
C153 C156 1.344 . S
C153 C157 1.328 . S
C153 C159 1.516 . S
C154 C155 1.304 . S
C154 C158 1.323 . S
C155 C154 1.304 . S
C155 C156 1.371 . S
C155 H164 0.930 . S
C156 C153 1.344 . S
C156 C155 1.371 . S
C156 H165 0.931 . S
C157 C153 1.328 . S
C157 C158 1.433 . S
C157 H166 0.931 . S
C158 C154 1.323 . S
C158 C157 1.433 . S
C158 H167 0.933 . S
C159 Dy129 2.738 . S
C159 O139 1.255 . S
C159 O140 1.249 . S
C159 C153 1.516 . S
H160 C146 0.930 . S
H161 C147 0.931 . S
H162 C148 0.931 . S
H163 C149 0.933 . S
H164 C155 0.930 . S
H165 C156 0.931 . S
H166 C157 0.931 . S
H167 C158 0.933 . S
Dy168 O171 2.307 . S
Dy168 O173 2.395 . S
Dy168 O174 2.379 . S
Dy168 O176 2.339 . S
Dy168 O178 2.298 . S
Dy168 O182 2.275 . S
Dy168 C190 2.738 . S
Dy169 O172 2.298 . S
Dy169 O175 2.275 . S
Dy169 O177 2.307 . S
Dy169 O179 2.395 . S
Dy169 O180 2.379 . S
Dy169 O183 2.339 . S
Dy169 C199 2.738 . S
C170 O182 1.254 . S
C170 O183 1.257 . S
O171 Dy168 2.307 . S
O171 C181 1.266 . S
O172 Dy169 2.298 . S
O172 C181 1.236 . S
O173 Dy168 2.395 . S
O173 C190 1.255 . S
O174 Dy168 2.379 . S
O174 C190 1.249 . S
O175 Dy169 2.275 . S
O175 C191 1.254 . S
O176 Dy168 2.339 . S
O176 C191 1.257 . S
O177 Dy169 2.307 . S
O177 C192 1.266 . S
O178 Dy168 2.298 . S
O178 C192 1.236 . S
O179 Dy169 2.395 . S
O179 C199 1.255 . S
O180 Dy169 2.379 . S
O180 C199 1.249 . S
C181 O171 1.266 . S
C181 O172 1.236 . S
O182 Dy168 2.275 . S
O182 C170 1.254 . S
O183 Dy169 2.339 . S
O183 C170 1.257 . S
C184 C187 1.344 . S
C184 C188 1.328 . S
C184 C190 1.516 . S
C185 C186 1.304 . S
C185 C189 1.323 . S
C186 C185 1.304 . S
C186 C187 1.371 . S
C186 H200 0.930 . S
C187 C184 1.344 . S
C187 C186 1.371 . S
C187 H201 0.931 . S
C188 C184 1.328 . S
C188 C189 1.433 . S
C188 H202 0.931 . S
C189 C185 1.323 . S
C189 C188 1.433 . S
C189 H203 0.933 . S
C190 Dy168 2.738 . S
C190 O173 1.255 . S
C190 O174 1.249 . S
C190 C184 1.516 . S
C191 O175 1.254 . S
C191 O176 1.257 . S
C192 O177 1.266 . S
C192 O178 1.236 . S
C193 C196 1.344 . S
C193 C197 1.328 . S
C193 C199 1.516 . S
C194 C195 1.304 . S
C194 C198 1.323 . S
C195 C194 1.304 . S
C195 C196 1.371 . S
C195 H204 0.930 . S
C196 C193 1.344 . S
C196 C195 1.371 . S
C196 H205 0.931 . S
C197 C193 1.328 . S
C197 C198 1.433 . S
C197 H206 0.931 . S
C198 C194 1.323 . S
C198 C197 1.433 . S
C198 H207 0.933 . S
C199 Dy169 2.738 . S
C199 O179 1.255 . S
C199 O180 1.249 . S
C199 C193 1.516 . S
H200 C186 0.930 . S
H201 C187 0.931 . S
H202 C188 0.931 . S
H203 C189 0.933 . S
H204 C195 0.930 . S
H205 C196 0.931 . S
H206 C197 0.931 . S
H207 C198 0.933 . S
Dy208 O211 2.307 1_556 S
Dy208 O213 2.395 1_455 S
Dy208 O214 2.379 . S
Dy208 O216 2.339 . S
Dy208 O218 2.298 1_455 S
Dy208 O222 2.275 1_556 S
Dy208 C230 2.738 1_455 S
Dy209 O212 2.298 . S
Dy209 O215 2.275 1_554 S
Dy209 O217 2.307 1_455 S
Dy209 O219 2.395 . S
Dy209 O220 2.379 . S
Dy209 O223 2.339 . S
Dy209 C239 2.738 . S
C210 O222 1.254 . S
C210 O223 1.257 . S
O211 Dy208 2.307 1_554 S
O211 C221 1.266 . S
O212 Dy209 2.298 . S
O212 C221 1.236 . S
O213 Dy208 2.395 1_655 S
O213 C230 1.255 . S
O214 Dy208 2.379 . S
O214 C230 1.249 1_455 S
O215 Dy209 2.275 1_556 S
O215 C231 1.254 . S
O216 Dy208 2.339 . S
O216 C231 1.257 . S
O217 Dy209 2.307 1_655 S
O217 C232 1.266 1_554 S
O218 Dy208 2.298 1_655 S
O218 C232 1.236 . S
O219 Dy209 2.395 . S
O219 C239 1.255 . S
O220 Dy209 2.379 . S
O220 C239 1.249 . S
C221 O211 1.266 . S
C221 O212 1.236 . S
O222 Dy208 2.275 1_554 S
O222 C210 1.254 . S
O223 Dy209 2.339 . S
O223 C210 1.257 . S
C224 C227 1.344 . S
C224 C228 1.328 . S
C224 C230 1.516 . S
C225 C226 1.304 . S
C225 C229 1.323 . S
C226 C225 1.304 . S
C226 C227 1.371 . S
C226 H240 0.930 . S
C227 C224 1.344 . S
C227 C226 1.371 . S
C227 H241 0.931 . S
C228 C224 1.328 . S
C228 C229 1.433 . S
C228 H242 0.931 . S
C229 C225 1.323 . S
C229 C228 1.433 . S
C229 H243 0.933 . S
C230 Dy208 2.738 1_655 S
C230 O213 1.255 . S
C230 O214 1.249 1_655 S
C230 C224 1.516 . S
C231 O215 1.254 . S
C231 O216 1.257 . S
C232 O217 1.266 1_556 S
C232 O218 1.236 . S
C233 C236 1.344 . S
C233 C237 1.328 . S
C233 C239 1.516 . S
C234 C235 1.304 . S
C234 C238 1.323 . S
C235 C234 1.304 . S
C235 C236 1.371 . S
C235 H244 0.930 . S
C236 C233 1.344 . S
C236 C235 1.371 . S
C236 H245 0.931 . S
C237 C233 1.328 . S
C237 C238 1.433 . S
C237 H246 0.931 . S
C238 C234 1.323 . S
C238 C237 1.433 . S
C238 H247 0.933 . S
C239 Dy209 2.738 . S
C239 O219 1.255 . S
C239 O220 1.249 . S
C239 C233 1.516 . S
H240 C226 0.930 . S
H241 C227 0.931 . S
H242 C228 0.931 . S
H243 C229 0.933 . S
H244 C235 0.930 . S
H245 C236 0.931 . S
H246 C237 0.931 . S
H247 C238 0.933 . S
H248 C254 0.930 . S
H249 C258 0.930 . S
H250 C263 0.929 . S
H251 C261 0.929 . S
H252 C256 0.929 . S
H253 C262 0.929 . S
C254 H248 0.930 . S
C254 C255 1.367 . S
C254 C262 1.378 . S
C255 C254 1.367 . S
C255 C263 1.433 . S
C256 H252 0.929 . S
C256 C258 1.378 . S
C256 C260 1.350 . S
C257 C260 1.463 . S
C257 C262 1.350 . S
C257 N265 1.427 . S
C258 H249 0.930 . S
C258 C256 1.378 . S
C258 C259 1.367 . S
C259 C258 1.367 . S
C259 C261 1.433 . S
C260 C256 1.350 . S
C260 C257 1.463 . S
C260 N264 1.427 . S
C261 H251 0.929 . S
C261 C259 1.433 . S
C261 N264 1.384 . S
C262 H253 0.929 . S
C262 C254 1.378 . S
C262 C257 1.350 . S
C263 H250 0.929 . S
C263 C255 1.433 . S
C263 N265 1.384 . S
N264 C260 1.427 . S
N264 C261 1.384 . S
N265 C257 1.427 . S
N265 C263 1.384 . S
H266 C272 0.930 . S
H267 C276 0.930 . S
H268 C281 0.929 . S
H269 C279 0.929 . S
H270 C274 0.929 . S
H271 C280 0.929 . S
C272 H266 0.930 . S
C272 C273 1.367 . S
C272 C280 1.378 . S
C273 C272 1.367 . S
C273 C281 1.433 . S
C274 H270 0.929 . S
C274 C276 1.378 . S
C274 C278 1.350 . S
C275 C278 1.463 . S
C275 C280 1.350 . S
C275 N283 1.427 . S
C276 H267 0.930 . S
C276 C274 1.378 . S
C276 C277 1.367 . S
C277 C276 1.367 . S
C277 C279 1.433 . S
C278 C274 1.350 . S
C278 C275 1.463 . S
C278 N282 1.427 . S
C279 H269 0.929 . S
C279 C277 1.433 . S
C279 N282 1.384 . S
C280 H271 0.929 . S
C280 C272 1.378 . S
C280 C275 1.350 . S
C281 H268 0.929 . S
C281 C273 1.433 . S
C281 N283 1.384 . S
N282 C278 1.427 . S
N282 C279 1.384 . S
N283 C275 1.427 . S
N283 C281 1.384 . S
H284 C290 0.930 . S
H285 C294 0.930 . S
H286 C299 0.929 . S
H287 C297 0.929 . S
H288 C292 0.929 . S
H289 C298 0.929 . S
C290 H284 0.930 . S
C290 C291 1.367 . S
C290 C298 1.378 . S
C291 C290 1.367 . S
C291 C299 1.433 . S
C292 H288 0.929 . S
C292 C294 1.378 . S
C292 C296 1.350 . S
C293 C296 1.463 . S
C293 C298 1.350 . S
C293 N301 1.427 . S
C294 H285 0.930 . S
C294 C292 1.378 . S
C294 C295 1.367 . S
C295 C294 1.367 . S
C295 C297 1.433 . S
C296 C292 1.350 . S
C296 C293 1.463 . S
C296 N300 1.427 . S
C297 H287 0.929 . S
C297 C295 1.433 . S
C297 N300 1.384 . S
C298 H289 0.929 . S
C298 C290 1.378 . S
C298 C293 1.350 . S
C299 H286 0.929 . S
C299 C291 1.433 . S
C299 N301 1.384 . S
N300 C296 1.427 . S
N300 C297 1.384 . S
N301 C293 1.427 . S
N301 C299 1.384 . S
H302 C308 0.930 . S
H303 C312 0.942 . S
H304 C317 0.929 . S
H305 C315 0.929 . S
H306 C310 0.929 1_455 S
H307 C316 0.929 . S
C308 H302 0.930 . S
C308 C309 1.367 . S
C308 C316 1.378 . S
C309 C308 1.367 . S
C309 C317 1.433 . S
C310 H306 0.929 1_655 S
C310 C312 1.371 1_655 S
C310 C314 1.350 . S
C311 C314 1.463 . S
C311 C316 1.350 . S
C311 N319 1.427 . S
C312 H303 0.942 . S
C312 C310 1.371 1_455 S
C312 C313 1.361 1_455 S
C313 C312 1.361 1_655 S
C313 C315 1.433 . S
C314 C310 1.350 . S
C314 C311 1.463 . S
C314 N318 1.427 . S
C315 H305 0.929 . S
C315 C313 1.433 . S
C315 N318 1.384 . S
C316 H307 0.929 . S
C316 C308 1.378 . S
C316 C311 1.350 . S
C317 H304 0.929 . S
C317 C309 1.433 . S
C317 N319 1.384 . S
N318 C314 1.427 . S
N318 C315 1.384 . S
N319 C311 1.427 . S
N319 C317 1.384 . S
H320 C326 0.930 . S
H321 C330 0.930 . S
H322 C335 0.929 . S
H323 C333 0.929 . S
H324 C328 0.929 . S
H325 C334 0.929 . S
C326 H320 0.930 . S
C326 C327 1.367 . S
C326 C334 1.378 . S
C327 C326 1.367 . S
C327 C335 1.433 . S
C328 H324 0.929 . S
C328 C330 1.378 . S
C328 C332 1.350 . S
C329 C332 1.463 . S
C329 C334 1.350 . S
C329 N337 1.427 . S
C330 H321 0.930 . S
C330 C328 1.378 . S
C330 C331 1.367 . S
C331 C330 1.367 . S
C331 C333 1.433 . S
C332 C328 1.350 . S
C332 C329 1.463 . S
C332 N336 1.427 . S
C333 H323 0.929 . S
C333 C331 1.433 . S
C333 N336 1.384 . S
C334 H325 0.929 . S
C334 C326 1.378 . S
C334 C329 1.350 . S
C335 H322 0.929 . S
C335 C327 1.433 . S
C335 N337 1.384 . S
N336 C332 1.427 . S
N336 C333 1.384 . S
N337 C329 1.427 . S
N337 C335 1.384 . S
H338 C344 0.930 . S
H339 C348 0.930 . S
H340 C353 0.929 . S
H341 C351 0.929 . S
H342 C346 0.929 . S
H343 C352 0.929 . S
C344 H338 0.930 . S
C344 C345 1.367 . S
C344 C352 1.378 . S
C345 C344 1.367 . S
C345 C353 1.433 . S
C346 H342 0.929 . S
C346 C348 1.378 . S
C346 C350 1.350 . S
C347 C350 1.463 . S
C347 C352 1.350 . S
C347 N355 1.427 . S
C348 H339 0.930 . S
C348 C346 1.378 . S
C348 C349 1.367 . S
C349 C348 1.367 . S
C349 C351 1.433 . S
C350 C346 1.350 . S
C350 C347 1.463 . S
C350 N354 1.427 . S
C351 H341 0.929 . S
C351 C349 1.433 . S
C351 N354 1.384 . S
C352 H343 0.929 . S
C352 C344 1.378 . S
C352 C347 1.350 . S
C353 H340 0.929 . S
C353 C345 1.433 . S
C353 N355 1.384 . S
N354 C350 1.427 . S
N354 C351 1.384 . S
N355 C347 1.427 . S
N355 C353 1.384 . S
H356 C362 0.930 . S
H357 C366 0.930 . S
H358 C371 0.929 . S
H359 C369 0.929 . S
H360 C364 0.929 . S
H361 C370 0.929 . S
C362 H356 0.930 . S
C362 C363 1.367 . S
C362 C370 1.378 . S
C363 C362 1.367 . S
C363 C371 1.433 . S
C364 H360 0.929 . S
C364 C366 1.378 . S
C364 C368 1.350 . S
C365 C368 1.463 . S
C365 C370 1.350 . S
C365 N373 1.427 . S
C366 H357 0.930 . S
C366 C364 1.378 . S
C366 C367 1.367 . S
C367 C366 1.367 . S
C367 C369 1.433 . S
C368 C364 1.350 . S
C368 C365 1.463 . S
C368 N372 1.427 . S
C369 H359 0.929 . S
C369 C367 1.433 . S
C369 N372 1.384 . S
C370 H361 0.929 . S
C370 C362 1.378 . S
C370 C365 1.350 . S
C371 H358 0.929 . S
C371 C363 1.433 . S
C371 N373 1.384 . S
N372 C368 1.427 . S
N372 C369 1.384 . S
N373 C365 1.427 . S
N373 C371 1.384 . S
H374 C380 0.930 . S
H375 C384 0.930 . S
H376 C389 0.929 . S
H377 C387 0.929 . S
H378 C382 0.929 . S
H379 C388 0.929 . S
C380 H374 0.930 . S
C380 C381 1.367 . S
C380 C388 1.378 . S
C381 C380 1.367 . S
C381 C389 1.433 . S
C382 H378 0.929 . S
C382 C384 1.378 . S
C382 C386 1.350 . S
C383 C386 1.463 . S
C383 C388 1.350 . S
C383 N391 1.427 . S
C384 H375 0.930 . S
C384 C382 1.378 . S
C384 C385 1.367 . S
C385 C384 1.367 . S
C385 C387 1.433 . S
C386 C382 1.350 . S
C386 C383 1.463 . S
C386 N390 1.427 . S
C387 H377 0.929 . S
C387 C385 1.433 . S
C387 N390 1.384 . S
C388 H379 0.929 . S
C388 C380 1.378 . S
C388 C383 1.350 . S
C389 H376 0.929 . S
C389 C381 1.433 . S
C389 N391 1.384 . S
N390 C386 1.427 . S
N390 C387 1.384 . S
N391 C383 1.427 . S
N391 C389 1.384 . S
H392 C398 0.930 . S
H393 C402 0.930 . S
H394 C407 0.929 . S
H395 C405 0.929 . S
H396 C400 0.929 . S
H397 C406 0.929 . S
C398 H392 0.930 . S
C398 C399 1.367 . S
C398 C406 1.378 . S
C399 C398 1.367 . S
C399 C407 1.433 . S
C400 H396 0.929 . S
C400 C402 1.378 . S
C400 C404 1.350 . S
C401 C404 1.463 . S
C401 C406 1.350 . S
C401 N409 1.427 . S
C402 H393 0.930 . S
C402 C400 1.378 . S
C402 C403 1.367 . S
C403 C402 1.367 . S
C403 C405 1.433 . S
C404 C400 1.350 . S
C404 C401 1.463 . S
C404 N408 1.427 . S
C405 H395 0.929 . S
C405 C403 1.433 . S
C405 N408 1.384 . S
C406 H397 0.929 . S
C406 C398 1.378 . S
C406 C401 1.350 . S
C407 H394 0.929 . S
C407 C399 1.433 . S
C407 N409 1.384 . S
N408 C404 1.427 . S
N408 C405 1.384 . S
N409 C401 1.427 . S
N409 C407 1.384 . S
H410 C416 0.930 . S
H411 C420 0.930 . S
H412 C425 0.929 . S
H413 C423 0.929 . S
H414 C418 0.929 1_554 S
H415 C424 0.929 . S
C416 H410 0.930 . S
C416 C417 1.367 . S
C416 C424 1.378 . S
C417 C416 1.367 . S
C417 C425 1.433 . S
C418 H414 0.929 1_556 S
C418 C420 1.378 1_556 S
C418 C422 1.350 . S
C419 C422 1.463 . S
C419 C424 1.350 . S
C419 N427 1.427 . S
C420 H411 0.930 . S
C420 C418 1.378 1_554 S
C420 C421 1.367 1_554 S
C421 C420 1.367 1_556 S
C421 C423 1.433 . S
C422 C418 1.350 . S
C422 C419 1.463 . S
C422 N426 1.427 . S
C423 H413 0.929 . S
C423 C421 1.433 . S
C423 N426 1.384 . S
C424 H415 0.929 . S
C424 C416 1.378 . S
C424 C419 1.350 . S
C425 H412 0.929 . S
C425 C417 1.433 . S
C425 N427 1.384 . S
N426 C422 1.427 . S
N426 C423 1.384 . S
N427 C419 1.427 . S
N427 C425 1.384 . S
H428 C434 0.930 . S
H429 C438 0.930 . S
H430 C443 0.929 . S
H431 C441 0.929 . S
H432 C436 0.929 . S
H433 C442 0.929 . S
C434 H428 0.930 . S
C434 C435 1.367 . S
C434 C442 1.378 . S
C435 C434 1.367 . S
C435 C443 1.433 . S
C436 H432 0.929 . S
C436 C438 1.378 . S
C436 C440 1.350 . S
C437 C440 1.463 . S
C437 C442 1.350 . S
C437 N445 1.427 . S
C438 H429 0.930 . S
C438 C436 1.378 . S
C438 C439 1.367 . S
C439 C438 1.367 . S
C439 C441 1.433 . S
C440 C436 1.350 . S
C440 C437 1.463 . S
C440 N444 1.427 . S
C441 H431 0.929 . S
C441 C439 1.433 . S
C441 N444 1.384 . S
C442 H433 0.929 . S
C442 C434 1.378 . S
C442 C437 1.350 . S
C443 H430 0.929 . S
C443 C435 1.433 . S
C443 N445 1.384 . S
N444 C440 1.427 . S
N444 C441 1.384 . S
N445 C437 1.427 . S
N445 C443 1.384 . S
H446 C452 0.930 . S
H447 C456 0.930 . S
H448 C461 0.929 . S
H449 C459 0.929 . S
H450 C454 0.929 . S
H451 C460 0.929 . S
C452 H446 0.930 . S
C452 C453 1.367 . S
C452 C460 1.378 . S
C453 C452 1.367 . S
C453 C461 1.433 . S
C454 H450 0.929 . S
C454 C456 1.378 . S
C454 C458 1.350 . S
C455 C458 1.463 . S
C455 C460 1.350 . S
C455 N463 1.427 . S
C456 H447 0.930 . S
C456 C454 1.378 . S
C456 C457 1.367 . S
C457 C456 1.367 . S
C457 C459 1.433 . S
C458 C454 1.350 . S
C458 C455 1.463 . S
C458 N462 1.427 . S
C459 H449 0.929 . S
C459 C457 1.433 . S
C459 N462 1.384 . S
C460 H451 0.929 . S
C460 C452 1.378 . S
C460 C455 1.350 . S
C461 H448 0.929 . S
C461 C453 1.433 . S
C461 N463 1.384 . S
N462 C458 1.427 . S
N462 C459 1.384 . S
N463 C455 1.427 . S
N463 C461 1.384 . S
H464 C470 0.930 . S
H465 C474 0.930 . S
H466 C479 0.929 . S
H467 C477 0.929 . S
H468 C472 0.929 . S
H469 C478 0.929 . S
C470 H464 0.930 . S
C470 C471 1.367 . S
C470 C478 1.378 . S
C471 C470 1.367 . S
C471 C479 1.433 . S
C472 H468 0.929 . S
C472 C474 1.378 . S
C472 C476 1.350 . S
C473 C476 1.463 . S
C473 C478 1.350 . S
C473 N481 1.427 . S
C474 H465 0.930 . S
C474 C472 1.378 . S
C474 C475 1.367 . S
C475 C474 1.367 . S
C475 C477 1.433 . S
C476 C472 1.350 . S
C476 C473 1.463 . S
C476 N480 1.427 . S
C477 H467 0.929 . S
C477 C475 1.433 . S
C477 N480 1.384 . S
C478 H469 0.929 . S
C478 C470 1.378 . S
C478 C473 1.350 . S
C479 H466 0.929 . S
C479 C471 1.433 . S
C479 N481 1.384 . S
N480 C476 1.427 . S
N480 C477 1.384 . S
N481 C473 1.427 . S
N481 C479 1.384 . S
H482 C488 0.930 . S
H483 C492 0.930 . S
H484 C497 0.929 . S
H485 C495 0.929 . S
H486 C490 0.929 . S
H487 C496 0.929 . S
C488 H482 0.930 . S
C488 C489 1.367 . S
C488 C496 1.378 . S
C489 C488 1.367 . S
C489 C497 1.433 . S
C490 H486 0.929 . S
C490 C492 1.378 . S
C490 C494 1.350 . S
C491 C494 1.463 . S
C491 C496 1.350 . S
C491 N499 1.427 . S
C492 H483 0.930 . S
C492 C490 1.378 . S
C492 C493 1.367 . S
C493 C492 1.367 . S
C493 C495 1.433 . S
C494 C490 1.350 . S
C494 C491 1.463 . S
C494 N498 1.427 . S
C495 H485 0.929 . S
C495 C493 1.433 . S
C495 N498 1.384 . S
C496 H487 0.929 . S
C496 C488 1.378 . S
C496 C491 1.350 . S
C497 H484 0.929 . S
C497 C489 1.433 . S
C497 N499 1.384 . S
N498 C494 1.427 . S
N498 C495 1.384 . S
N499 C491 1.427 . S
N499 C497 1.384 . S
H500 C506 0.930 . S
H501 C510 0.930 . S
H502 C515 0.929 . S
H503 C513 0.929 . S
H504 C508 0.929 . S
H505 C514 0.929 . S
C506 H500 0.930 . S
C506 C507 1.367 . S
C506 C514 1.378 . S
C507 C506 1.367 . S
C507 C515 1.433 . S
C508 H504 0.929 . S
C508 C510 1.378 . S
C508 C512 1.350 . S
C509 C512 1.463 . S
C509 C514 1.350 . S
C509 N517 1.427 . S
C510 H501 0.930 . S
C510 C508 1.378 . S
C510 C511 1.367 . S
C511 C510 1.367 . S
C511 C513 1.433 . S
C512 C508 1.350 . S
C512 C509 1.463 . S
C512 N516 1.427 . S
C513 H503 0.929 . S
C513 C511 1.433 . S
C513 N516 1.384 . S
C514 H505 0.929 . S
C514 C506 1.378 . S
C514 C509 1.350 . S
C515 H502 0.929 . S
C515 C507 1.433 . S
C515 N517 1.384 . S
N516 C512 1.427 . S
N516 C513 1.384 . S
N517 C509 1.427 . S
N517 C515 1.384 . S
H518 C524 0.930 . S
H519 C528 0.930 . S
H520 C533 0.929 . S
H521 C531 0.929 . S
H522 C526 0.929 . S
H523 C532 0.929 . S
C524 H518 0.930 . S
C524 C525 1.367 . S
C524 C532 1.378 . S
C525 C524 1.367 . S
C525 C533 1.433 . S
C526 H522 0.929 . S
C526 C528 1.378 . S
C526 C530 1.350 . S
C527 C530 1.463 . S
C527 C532 1.350 . S
C527 N535 1.427 . S
C528 H519 0.930 . S
C528 C526 1.378 . S
C528 C529 1.367 . S
C529 C528 1.367 . S
C529 C531 1.433 . S
C530 C526 1.350 . S
C530 C527 1.463 . S
C530 N534 1.427 . S
C531 H521 0.929 . S
C531 C529 1.433 . S
C531 N534 1.384 . S
C532 H523 0.929 . S
C532 C524 1.378 . S
C532 C527 1.350 . S
C533 H520 0.929 . S
C533 C525 1.433 . S
C533 N535 1.384 . S
N534 C530 1.427 . S
N534 C531 1.384 . S
N535 C527 1.427 . S
N535 C533 1.384 . S
H536 C542 0.930 . S
H537 C546 0.930 . S
H538 C551 0.929 . S
H539 C549 0.929 1_554 S
H540 C544 0.929 . S
H541 C550 0.929 . S
C542 H536 0.930 . S
C542 C543 1.367 . S
C542 C550 1.378 . S
C543 C542 1.367 . S
C543 C551 1.433 . S
C544 H540 0.929 . S
C544 C546 1.378 . S
C544 C548 1.350 . S
C545 C548 1.463 . S
C545 C550 1.350 . S
C545 N553 1.427 . S
C546 H537 0.930 . S
C546 C544 1.378 . S
C546 C547 1.367 . S
C547 C546 1.367 . S
C547 C549 1.433 . S
C548 C544 1.350 . S
C548 C545 1.463 . S
C548 N552 1.427 . S
C549 H539 0.929 1_556 S
C549 C547 1.433 . S
C549 N552 1.384 . S
C550 H541 0.929 . S
C550 C542 1.378 . S
C550 C545 1.350 . S
C551 H538 0.929 . S
C551 C543 1.433 . S
C551 N553 1.384 . S
N552 C548 1.427 . S
N552 C549 1.384 . S
N553 C545 1.427 . S
N553 C551 1.384 . S
H554 C560 0.930 . S
H555 C564 0.930 . S
H556 C569 0.929 . S
H557 C567 0.929 1_455 S
H558 C562 0.929 . S
H559 C568 0.929 . S
C560 H554 0.930 . S
C560 C561 1.367 . S
C560 C568 1.378 . S
C561 C560 1.367 . S
C561 C569 1.433 . S
C562 H558 0.929 . S
C562 C564 1.378 . S
C562 C566 1.350 . S
C563 C566 1.463 . S
C563 C568 1.350 . S
C563 N571 1.427 . S
C564 H555 0.930 . S
C564 C562 1.378 . S
C564 C565 1.367 . S
C565 C564 1.367 . S
C565 C567 1.433 . S
C566 C562 1.350 . S
C566 C563 1.463 . S
C566 N570 1.427 . S
C567 H557 0.929 1_655 S
C567 C565 1.433 . S
C567 N570 1.384 . S
C568 H559 0.929 . S
C568 C560 1.378 . S
C568 C563 1.350 . S
C569 H556 0.929 . S
C569 C561 1.433 . S
C569 N571 1.384 . S
N570 C566 1.427 . S
N570 C567 1.384 . S
N571 C563 1.427 . S
N571 C569 1.384 . S
H572 C578 0.930 . S
H573 C582 0.930 . S
H574 C587 0.929 . S
H575 C585 0.929 . S
H576 C580 0.929 . S
H577 C586 0.929 . S
C578 H572 0.930 . S
C578 C579 1.367 . S
C578 C586 1.378 . S
C579 C578 1.367 . S
C579 C587 1.433 . S
C580 H576 0.929 . S
C580 C582 1.378 . S
C580 C584 1.350 . S
C581 C584 1.463 . S
C581 C586 1.350 . S
C581 N589 1.427 . S
C582 H573 0.930 . S
C582 C580 1.378 . S
C582 C583 1.367 . S
C583 C582 1.367 . S
C583 C585 1.433 . S
C584 C580 1.350 . S
C584 C581 1.463 . S
C584 N588 1.427 . S
C585 H575 0.929 . S
C585 C583 1.433 . S
C585 N588 1.384 . S
C586 H577 0.929 . S
C586 C578 1.378 . S
C586 C581 1.350 . S
C587 H574 0.929 . S
C587 C579 1.433 . S
C587 N589 1.384 . S
N588 C584 1.427 . S
N588 C585 1.384 . S
N589 C581 1.427 . S
N589 C587 1.384 . S
H590 C596 0.930 . S
H591 C600 0.930 . S
H592 C605 0.929 . S
H593 C603 0.929 . S
H594 C598 0.929 . S
H595 C604 0.929 . S
C596 H590 0.930 . S
C596 C597 1.367 . S
C596 C604 1.378 . S
C597 C596 1.367 . S
C597 C605 1.433 . S
C598 H594 0.929 . S
C598 C600 1.378 . S
C598 C602 1.350 . S
C599 C602 1.463 . S
C599 C604 1.350 . S
C599 N607 1.427 . S
C600 H591 0.930 . S
C600 C598 1.378 . S
C600 C601 1.367 . S
C601 C600 1.367 . S
C601 C603 1.433 . S
C602 C598 1.350 . S
C602 C599 1.463 . S
C602 N606 1.427 . S
C603 H593 0.929 . S
C603 C601 1.433 . S
C603 N606 1.384 . S
C604 H595 0.929 . S
C604 C596 1.378 . S
C604 C599 1.350 . S
C605 H592 0.929 . S
C605 C597 1.433 . S
C605 N607 1.384 . S
N606 C602 1.427 . S
N606 C603 1.384 . S
N607 C599 1.427 . S
N607 C605 1.384 . S
H608 C614 0.930 . S
H609 C618 0.930 . S
H610 C623 0.929 . S
H611 C621 0.929 . S
H612 C616 0.929 . S
H613 C622 0.929 . S
C614 H608 0.930 . S
C614 C615 1.367 . S
C614 C622 1.378 . S
C615 C614 1.367 . S
C615 C623 1.433 . S
C616 H612 0.929 . S
C616 C618 1.378 . S
C616 C620 1.350 . S
C617 C620 1.463 . S
C617 C622 1.350 . S
C617 N625 1.427 . S
C618 H609 0.930 . S
C618 C616 1.378 . S
C618 C619 1.367 . S
C619 C618 1.367 . S
C619 C621 1.433 . S
C620 C616 1.350 . S
C620 C617 1.463 . S
C620 N624 1.427 . S
C621 H611 0.929 . S
C621 C619 1.433 . S
C621 N624 1.384 . S
C622 H613 0.929 . S
C622 C614 1.378 . S
C622 C617 1.350 . S
C623 H610 0.929 . S
C623 C615 1.433 . S
C623 N625 1.384 . S
N624 C620 1.427 . S
N624 C621 1.384 . S
N625 C617 1.427 . S
N625 C623 1.384 . S
H626 C632 0.930 . S
H627 C636 0.930 . S
H628 C641 0.929 . S
H629 C639 0.929 . S
H630 C634 0.929 . S
H631 C640 0.929 . S
C632 H626 0.930 . S
C632 C633 1.367 . S
C632 C640 1.378 . S
C633 C632 1.367 . S
C633 C641 1.433 . S
C634 H630 0.929 . S
C634 C636 1.378 . S
C634 C638 1.350 . S
C635 C638 1.463 . S
C635 C640 1.350 . S
C635 N643 1.427 . S
C636 H627 0.930 . S
C636 C634 1.378 . S
C636 C637 1.367 . S
C637 C636 1.367 . S
C637 C639 1.433 . S
C638 C634 1.350 . S
C638 C635 1.463 . S
C638 N642 1.427 . S
C639 H629 0.929 . S
C639 C637 1.433 . S
C639 N642 1.384 . S
C640 H631 0.929 . S
C640 C632 1.378 . S
C640 C635 1.350 . S
C641 H628 0.929 . S
C641 C633 1.433 . S
C641 N643 1.384 . S
N642 C638 1.427 . S
N642 C639 1.384 . S
N643 C635 1.427 . S
N643 C641 1.384 . S
H644 C650 0.930 . S
H645 C654 0.930 . S
H646 C659 0.929 . S
H647 C657 0.929 . S
H648 C652 0.929 . S
H649 C658 0.929 . S
C650 H644 0.930 . S
C650 C651 1.367 . S
C650 C658 1.378 . S
C651 C650 1.367 . S
C651 C659 1.433 . S
C652 H648 0.929 . S
C652 C654 1.378 . S
C652 C656 1.350 . S
C653 C656 1.463 . S
C653 C658 1.350 . S
C653 N661 1.427 . S
C654 H645 0.930 . S
C654 C652 1.378 . S
C654 C655 1.367 . S
C655 C654 1.367 . S
C655 C657 1.433 . S
C656 C652 1.350 . S
C656 C653 1.463 . S
C656 N660 1.427 . S
C657 H647 0.929 . S
C657 C655 1.433 . S
C657 N660 1.384 . S
C658 H649 0.929 . S
C658 C650 1.378 . S
C658 C653 1.350 . S
C659 H646 0.929 . S
C659 C651 1.433 . S
C659 N661 1.384 . S
N660 C656 1.427 . S
N660 C657 1.384 . S
N661 C653 1.427 . S
N661 C659 1.384 . S
H662 C668 0.930 . S
H663 C672 0.930 . S
H664 C677 0.929 . S
H665 C675 0.929 . S
H666 C670 0.929 . S
H667 C676 0.929 . S
C668 H662 0.930 . S
C668 C669 1.367 . S
C668 C676 1.378 . S
C669 C668 1.367 . S
C669 C677 1.433 . S
C670 H666 0.929 . S
C670 C672 1.378 . S
C670 C674 1.350 . S
C671 C674 1.463 . S
C671 C676 1.350 . S
C671 N679 1.427 . S
C672 H663 0.930 . S
C672 C670 1.378 . S
C672 C673 1.367 . S
C673 C672 1.367 . S
C673 C675 1.433 . S
C674 C670 1.350 . S
C674 C671 1.463 . S
C674 N678 1.427 . S
C675 H665 0.929 . S
C675 C673 1.433 . S
C675 N678 1.384 . S
C676 H667 0.929 . S
C676 C668 1.378 . S
C676 C671 1.350 . S
C677 H664 0.929 . S
C677 C669 1.433 . S
C677 N679 1.384 . S
N678 C674 1.427 . S
N678 C675 1.384 . S
N679 C671 1.427 . S
N679 C677 1.384 . S
C255 C4 1.067 . S
C259 C105 1.095 . S
C273 C16 1.241 . S
C277 C145 1.281 . S
C295 C170 2.018 . S
C291 C32 2.046 . S
C309 C43 2.351 . S
C313 C210 2.295 1_655 S
C331 C141 2.145 . S
C327 C5 2.064 . S
C349 C101 1.419 . S
C345 C21 1.363 . S
C367 C232 1.634 . S
C363 C27 1.648 . S
C385 C192 1.583 . S
C381 C37 1.626 . S
C399 C10 1.188 . S
C403 C234 1.199 . S
C421 C151 2.362 1_556 S
C417 C26 2.401 . S
C435 C38 1.888 . S
C439 C111 1.865 . S
C453 C15 1.500 . S
C457 C194 1.522 . S
C475 C114 1.242 . S
C471 C48 1.207 . S
C489 C59 1.030 . S
C493 C154 1.046 . S
C507 C76 2.364 . S
C511 C191 2.300 . S
C525 C87 2.141 . S
C529 C231 2.118 . S
C543 C54 1.416 . S
C547 C152 1.476 1_556 S
C565 C112 2.110 . S
C561 C60 2.049 . S
C583 C221 1.576 . S
C579 C71 1.585 . S
C601 C181 1.636 . S
C597 C82 1.645 . S
C615 C49 1.565 . S
C619 C225 1.617 . S
C637 C130 1.805 . S
C633 C70 1.847 . S
C655 C90 2.331 . S
C651 C81 2.374 . S
C669 C65 1.199 . S
C673 C185 1.220 . S
