# Generated by pormake.
# Topology ant, (3,6)-cn, num edge types: 1
# Building blocks:
#     Node 0, Type 0, BuildingBlock: QEWDON_clean_linker_0, # of connection points: 3
#     Node 1, Type 0, BuildingBlock: QEWDON_clean_linker_0, # of connection points: 3
#     Node 2, Type 0, BuildingBlock: QEWDON_clean_linker_0, # of connection points: 3
#     Node 3, Type 0, BuildingBlock: QEWDON_clean_linker_0, # of connection points: 3
#     Node 4, Type 0, BuildingBlock: QEWDON_clean_linker_0, # of connection points: 3
#     Node 5, Type 0, BuildingBlock: QEWDON_clean_linker_0, # of connection points: 3
#     Node 6, Type 0, BuildingBlock: QEWDON_clean_linker_0, # of connection points: 3
#     Node 7, Type 0, BuildingBlock: QEWDON_clean_linker_0, # of connection points: 3
#     Node 8, Type 1, BuildingBlock: MIDCAF_clean_sbu_0, # of connection points: 6
#     Node 9, Type 1, BuildingBlock: MIDCAF_clean_sbu_0, # of connection points: 6
#     Node 10, Type 1, BuildingBlock: MIDCAF_clean_sbu_0, # of connection points: 6
#     Node 11, Type 1, BuildingBlock: MIDCAF_clean_sbu_0, # of connection points: 6
#     Edge 12, Type (0, 1), BuildingBlock: XIVTED_clean_linker_0, # of connection points: 2
#     Edge 13, Type (0, 1), BuildingBlock: XIVTED_clean_linker_0, # of connection points: 2
#     Edge 14, Type (0, 1), BuildingBlock: XIVTED_clean_linker_0, # of connection points: 2
#     Edge 15, Type (0, 1), BuildingBlock: XIVTED_clean_linker_0, # of connection points: 2
#     Edge 16, Type (0, 1), BuildingBlock: XIVTED_clean_linker_0, # of connection points: 2
#     Edge 17, Type (0, 1), BuildingBlock: XIVTED_clean_linker_0, # of connection points: 2
#     Edge 18, Type (0, 1), BuildingBlock: XIVTED_clean_linker_0, # of connection points: 2
#     Edge 19, Type (0, 1), BuildingBlock: XIVTED_clean_linker_0, # of connection points: 2
#     Edge 20, Type (0, 1), BuildingBlock: XIVTED_clean_linker_0, # of connection points: 2
#     Edge 21, Type (0, 1), BuildingBlock: XIVTED_clean_linker_0, # of connection points: 2
#     Edge 22, Type (0, 1), BuildingBlock: XIVTED_clean_linker_0, # of connection points: 2
#     Edge 23, Type (0, 1), BuildingBlock: XIVTED_clean_linker_0, # of connection points: 2
#     Edge 24, Type (0, 1), BuildingBlock: XIVTED_clean_linker_0, # of connection points: 2
#     Edge 25, Type (0, 1), BuildingBlock: XIVTED_clean_linker_0, # of connection points: 2
#     Edge 26, Type (0, 1), BuildingBlock: XIVTED_clean_linker_0, # of connection points: 2
#     Edge 27, Type (0, 1), BuildingBlock: XIVTED_clean_linker_0, # of connection points: 2
#     Edge 28, Type (0, 1), BuildingBlock: XIVTED_clean_linker_0, # of connection points: 2
#     Edge 29, Type (0, 1), BuildingBlock: XIVTED_clean_linker_0, # of connection points: 2
#     Edge 30, Type (0, 1), BuildingBlock: XIVTED_clean_linker_0, # of connection points: 2
#     Edge 31, Type (0, 1), BuildingBlock: XIVTED_clean_linker_0, # of connection points: 2
#     Edge 32, Type (0, 1), BuildingBlock: XIVTED_clean_linker_0, # of connection points: 2
#     Edge 33, Type (0, 1), BuildingBlock: XIVTED_clean_linker_0, # of connection points: 2
#     Edge 34, Type (0, 1), BuildingBlock: XIVTED_clean_linker_0, # of connection points: 2
#     Edge 35, Type (0, 1), BuildingBlock: XIVTED_clean_linker_0, # of connection points: 2
# Relax obj value: 0.063
# Max RMSD: 0.161
# Mean RMSD: 0.129
data_MOF--net-ant--node1-MIDCAF_clean_sbu_0--node2-QEWDON_clean_linker_0--edge1-XIVTED_clean_linker_0
_symmetry_space_group_name_H-M    P1
_symmetry_Int_Tables_number       1
_symmetry_cell_setting            triclinic
loop_
_symmetry_equiv_pos_as_xyz
'x, y, z'
_cell_length_a     30.817294
_cell_length_b     30.433821
_cell_length_c     69.750636
_cell_angle_alpha  96.300958
_cell_angle_beta   100.96163
_cell_angle_gamma 89.577181
loop_
_atom_site_label
_atom_site_type_symbol
_atom_site_fract_x
_atom_site_fract_y
_atom_site_fract_z
_atom_type_partial_charge
H0 H 0.16313 0.19346 0.06458 0.0
C1 C 0.1661 0.22916 0.06708 0.0
C2 C 0.15448 0.25367 0.05098 0.0
C3 C 0.17982 0.25041 0.08624 0.0
H4 H 0.14728 0.31908 0.04164 0.0
C5 C 0.15582 0.30012 0.05408 0.0
C6 C 0.17027 0.32219 0.07296 0.0
C7 C 0.18262 0.29705 0.08889 0.0
C8 C 0.18905 0.22411 0.10351 0.0
H9 H 0.19404 0.31408 0.10342 0.0
C10 C 0.20642 0.18096 0.1019 0.0
C11 C 0.21109 0.15471 0.11768 0.0
C12 C 0.17816 0.24123 0.12155 0.0
H13 H 0.16371 0.27357 0.12337 0.0
C14 C 0.18417 0.21621 0.1374 0.0
H15 H 0.21617 0.16772 0.08834 0.0
C16 C 0.20002 0.17327 0.13549 0.0
H17 H 0.20199 0.15419 0.14783 0.0
H18 H 0.17519 0.22972 0.1511 0.0
H19 H 0.04336 0.81092 0.30844 0.0
C20 C 0.0788 0.80843 0.31319 0.0
C21 C 0.10599 0.8045 0.29908 0.0
C22 C 0.09746 0.81071 0.33333 0.0
H23 H 0.1728 0.79847 0.29412 0.0
C24 C 0.15201 0.80248 0.3051 0.0
C25 C 0.1712 0.8029 0.32503 0.0
C26 C 0.14371 0.80687 0.33904 0.0
C27 C 0.0693 0.81892 0.34851 0.0
H28 H 0.1585 0.80714 0.35445 0.0
C29 C 0.02723 0.79855 0.34621 0.0
C30 C 0.00177 0.80632 0.36103 0.0
C31 C 0.08471 0.84798 0.36555 0.0
H32 H 0.11622 0.86507 0.36757 0.0
C33 C 0.05942 0.85601 0.38009 0.0
H34 H 0.01487 0.7758 0.33328 0.0
C35 C 0.0184 0.83527 0.37792 0.0
H36 H -0.00068 0.84233 0.38941 0.0
H37 H 0.07165 0.87854 0.39309 0.0
H38 H 0.66116 0.70045 0.56256 0.0
C39 C 0.66544 0.73605 0.56496 0.0
C40 C 0.651 0.76086 0.54917 0.0
C41 C 0.6834 0.75699 0.58381 0.0
H42 H 0.64328 0.82648 0.54009 0.0
C43 C 0.65397 0.80726 0.5523 0.0
C44 C 0.67229 0.82902 0.57082 0.0
C45 C 0.68751 0.8036 0.5864 0.0
C46 C 0.69547 0.73056 0.60095 0.0
H47 H 0.70202 0.82043 0.60064 0.0
C48 C 0.71098 0.68675 0.59863 0.0
C49 C 0.71865 0.66077 0.61454 0.0
C50 C 0.68923 0.74838 0.61972 0.0
H51 H 0.67622 0.78121 0.62215 0.0
C52 C 0.69813 0.72352 0.6356 0.0
H53 H 0.71702 0.67278 0.58445 0.0
C54 C 0.71231 0.68007 0.63307 0.0
H55 H 0.71673 0.66121 0.64556 0.0
H56 H 0.69275 0.73762 0.64988 0.0
H57 H 0.53727 0.30464 0.80286 0.0
C58 C 0.57161 0.30021 0.8094 0.0
C59 C 0.60131 0.28583 0.7972 0.0
C60 C 0.58626 0.30916 0.82986 0.0
H61 H 0.66919 0.27131 0.79576 0.0
C62 C 0.64618 0.28186 0.8053 0.0
C63 C 0.66169 0.29117 0.82553 0.0
C64 C 0.63152 0.30383 0.83783 0.0
C65 C 0.55485 0.32617 0.84269 0.0
H66 H 0.64354 0.31012 0.85353 0.0
C67 C 0.51038 0.31112 0.83898 0.0
C68 C 0.48036 0.32983 0.85038 0.0
C69 C 0.56883 0.35939 0.85832 0.0
H70 H 0.60231 0.37246 0.86138 0.0
C71 C 0.53942 0.37722 0.86989 0.0
H72 H 0.49889 0.28549 0.82707 0.0
C73 C 0.49551 0.36278 0.86593 0.0
H74 H 0.47332 0.37737 0.8751 0.0
H75 H 0.5506 0.4028 0.88184 0.0
H76 H 0.02782 0.73112 0.93845 0.0
C77 C 0.02174 0.70005 0.92911 0.0
C78 C 0.03036 0.66013 0.93748 0.0
C79 C 0.00146 0.69977 0.90917 0.0
H80 H 0.02673 0.58921 0.93217 0.0
C81 C 0.02006 0.61998 0.9257 0.0
C82 C 0.0003 0.61871 0.90587 0.0
C83 C 0.9917 0.6586 0.89751 0.0
C84 C 0.98452 0.74179 0.9014 0.0
H85 H 0.97572 0.65755 0.88222 0.0
C86 C 0.00947 0.78184 0.90573 0.0
C87 C 0.99069 0.82165 0.89946 0.0
C88 C 0.94112 0.74235 0.89053 0.0
H89 H 0.92072 0.71264 0.8873 0.0
C90 C 0.92277 0.78146 0.88425 0.0
H91 H 0.04296 0.78217 0.91405 0.0
C92 C 0.94717 0.82079 0.88873 0.0
H93 H 0.93212 0.85066 0.88355 0.0
H94 H 0.88927 0.78135 0.87598 0.0
H95 H 0.69966 0.83203 0.19503 0.0
C96 C 0.66444 0.82956 0.18934 0.0
C97 C 0.63638 0.82071 0.20208 0.0
C98 C 0.64696 0.83686 0.16975 0.0
H99 H 0.56948 0.8137 0.2057 0.0
C100 C 0.59062 0.81948 0.19543 0.0
C101 C 0.57203 0.82474 0.17583 0.0
C102 C 0.60052 0.83328 0.16306 0.0
C103 C 0.67673 0.85046 0.15668 0.0
H104 H 0.58647 0.83643 0.14783 0.0
C105 C 0.72148 0.83715 0.15887 0.0
C106 C 0.74995 0.85385 0.14768 0.0
C107 C 0.66105 0.87948 0.14256 0.0
H108 H 0.62762 0.8917 0.14072 0.0
C109 C 0.68869 0.89458 0.13097 0.0
H110 H 0.73463 0.81476 0.1695 0.0
C111 C 0.73278 0.88215 0.13355 0.0
H112 H 0.75366 0.89491 0.12451 0.0
H113 H 0.67607 0.91682 0.12019 0.0
H114 H 0.52378 0.23872 0.43654 0.0
C115 C 0.52199 0.20742 0.42734 0.0
C116 C 0.53441 0.16852 0.43601 0.0
C117 C 0.50512 0.20575 0.40705 0.0
H118 H 0.53879 0.09776 0.43108 0.0
C119 C 0.5301 0.12784 0.4243 0.0
C120 C 0.51287 0.12527 0.4041 0.0
C121 C 0.50112 0.16435 0.39545 0.0
C122 C 0.48677 0.24632 0.39852 0.0
H123 H 0.48743 0.16235 0.37987 0.0
C124 C 0.50993 0.2873 0.4028 0.0
C125 C 0.49028 0.32585 0.39562 0.0
C126 C 0.44419 0.24448 0.38681 0.0
H127 H 0.42535 0.21377 0.38351 0.0
C128 C 0.42478 0.28245 0.3797 0.0
H129 H 0.54286 0.28925 0.41175 0.0
C130 C 0.44747 0.32284 0.38412 0.0
H131 H 0.43177 0.35173 0.37822 0.0
H132 H 0.39188 0.28061 0.37078 0.0
H133 H 0.20282 0.3183 0.69808 0.0
C134 C 0.16831 0.31902 0.69112 0.0
C135 C 0.13657 0.30152 0.70027 0.0
C136 C 0.15547 0.33816 0.6734 0.0
H137 H 0.06725 0.29183 0.69956 0.0
C138 C 0.09161 0.30448 0.69212 0.0
C139 C 0.07757 0.32456 0.67489 0.0
C140 C 0.10966 0.33992 0.66521 0.0
C141 C 0.18939 0.35943 0.66438 0.0
H142 H 0.09869 0.35445 0.65166 0.0
C143 C 0.23327 0.3435 0.66587 0.0
C144 C 0.26536 0.36633 0.65856 0.0
C145 C 0.17845 0.39786 0.65503 0.0
H146 H 0.14598 0.41219 0.65408 0.0
C147 C 0.20963 0.4195 0.64725 0.0
H148 H 0.24279 0.31407 0.67297 0.0
C149 C 0.25265 0.40406 0.64902 0.0
H150 H 0.27619 0.42184 0.64292 0.0
H151 H 0.20057 0.44892 0.64007 0.0
Zn152 Zn 0.18967 0.70268 0.15004 0.0
Zn153 Zn 0.10067 0.79302 0.09935 0.0
Zn154 Zn 0.14893 0.7488 0.12385 0.0
C155 C 0.10649 0.71118 0.07928 0.0
C156 C 0.18155 0.83737 0.10884 0.0
O157 O 0.1135 0.74945 0.14901 0.0
O158 O 0.14839 0.70255 0.16847 0.0
C159 C 0.17697 0.64546 0.11581 0.0
O160 O 0.13365 0.70609 0.09536 0.0
O161 O 0.08443 0.74603 0.07763 0.0
O162 O 0.14566 0.83617 0.09657 0.0
O163 O 0.18917 0.80797 0.12102 0.0
O164 O 0.19622 0.64742 0.13354 0.0
O165 O 0.15639 0.67957 0.1093 0.0
O166 O 0.21556 0.78106 0.13388 0.0
O167 O 0.24274 0.74142 0.15797 0.0
C168 C 0.24718 0.77258 0.14791 0.0
O169 O 0.08629 0.77044 0.13442 0.0
O170 O 0.05376 0.8151 0.11331 0.0
C171 C 0.1175 0.72949 0.16465 0.0
C172 C 0.05441 0.79663 0.12866 0.0
Zn173 Zn 0.55806 0.66095 0.33852 0.0
Zn174 Zn 0.62867 0.77094 0.38877 0.0
Zn175 Zn 0.59087 0.71916 0.3653 0.0
C176 C 0.56884 0.81921 0.36759 0.0
C177 C 0.69425 0.73874 0.37234 0.0
O178 O 0.58587 0.65561 0.37854 0.0
O179 O 0.58 0.6083 0.35181 0.0
C180 C 0.49042 0.72031 0.34685 0.0
O181 O 0.55063 0.78049 0.36524 0.0
O182 O 0.60949 0.82357 0.37488 0.0
O183 O 0.6905 0.7508 0.38982 0.0
O184 O 0.65884 0.7312 0.35913 0.0
O185 O 0.49595 0.68098 0.33984 0.0
O186 O 0.52416 0.74446 0.35539 0.0
O187 O 0.62999 0.71885 0.3418 0.0
O188 O 0.58698 0.6786 0.31727 0.0
C189 C 0.61998 0.7041 0.32343 0.0
O190 O 0.5968 0.69111 0.39362 0.0
O191 O 0.59816 0.75718 0.41011 0.0
C192 C 0.58523 0.61546 0.37028 0.0
C193 C 0.59341 0.71588 0.40944 0.0
Zn194 Zn 0.60174 0.2997 0.60015 0.0
Zn195 Zn 0.70462 0.21036 0.64566 0.0
Zn196 Zn 0.65413 0.25412 0.6214 0.0
C197 C 0.75563 0.28221 0.64242 0.0
C198 C 0.686 0.15367 0.61102 0.0
O199 O 0.59376 0.27344 0.63483 0.0
O200 O 0.55983 0.32305 0.61665 0.0
C201 C 0.68126 0.3436 0.60515 0.0
O202 O 0.72101 0.28832 0.62933 0.0
O203 O 0.75588 0.25137 0.65313 0.0
O204 O 0.71106 0.15718 0.62768 0.0
O205 O 0.66071 0.18606 0.60584 0.0
O206 O 0.64368 0.34213 0.59412 0.0
O207 O 0.69146 0.31442 0.61731 0.0
O208 O 0.63332 0.2122 0.59295 0.0
O209 O 0.57873 0.25264 0.57922 0.0
C210 C 0.60111 0.21784 0.57871 0.0
O211 O 0.62354 0.25019 0.64759 0.0
O212 O 0.66656 0.20469 0.66504 0.0
C213 C 0.5621 0.30127 0.63115 0.0
C214 C 0.6326 0.22833 0.66265 0.0
Zn215 Zn 0.04535 0.15474 0.84099 0.0
Zn216 Zn 0.12716 0.2753 0.89233 0.0
Zn217 Zn 0.08336 0.21557 0.86663 0.0
C218 C 0.11955 0.20247 0.91223 0.0
C219 C 0.04613 0.31276 0.87858 0.0
O220 O 0.11713 0.21081 0.84097 0.0
O221 O 0.07199 0.16745 0.81847 0.0
C222 C 0.07793 0.11103 0.87269 0.0
O223 O 0.09862 0.18664 0.89509 0.0
O224 O 0.13627 0.24086 0.91495 0.0
O225 O 0.08165 0.32147 0.89074 0.0
O226 O 0.03986 0.27454 0.8684 0.0
O227 O 0.06701 0.10257 0.8543 0.0
O228 O 0.0821 0.15169 0.88051 0.0
O229 O 0.01483 0.23829 0.85806 0.0
O230 O 0.98411 0.17544 0.84284 0.0
C231 C 0.98013 0.21487 0.85006 0.0
O232 O 0.14543 0.23445 0.85659 0.0
O233 O 0.17802 0.28504 0.88004 0.0
C234 C 0.1056 0.1926 0.82313 0.0
C235 C 0.17781 0.2617 0.86394 0.0
H236 H 0.23837 0.37377 0.09457 0.0
H237 H 0.11104 0.60339 0.08717 0.0
H238 H 0.1092 0.38288 0.05844 0.0
H239 H 0.24513 0.58906 0.11745 0.0
H240 H 0.1105 0.52495 0.0736 0.0
H241 H 0.24199 0.4541 0.10099 0.0
C242 C 0.21068 0.39275 0.088 0.0
C243 C 0.17327 0.37146 0.07612 0.0
C244 C 0.14026 0.5393 0.08294 0.0
C245 C 0.1771 0.46415 0.08338 0.0
C246 C 0.14069 0.58415 0.0905 0.0
C247 C 0.17809 0.60262 0.10355 0.0
C248 C 0.17748 0.51311 0.08853 0.0
C249 C 0.21542 0.57605 0.1076 0.0
C250 C 0.21283 0.43877 0.09156 0.0
C251 C 0.13872 0.39795 0.06769 0.0
N252 N 0.21399 0.53279 0.10033 0.0
N253 N 0.14124 0.44289 0.07164 0.0
H254 H 0.93075 0.80124 0.33012 0.0
H255 H 0.76966 0.7185 0.39643 0.0
H256 H 0.97286 0.76283 0.38838 0.0
H257 H 0.72173 0.75396 0.33811 0.0
H258 H 0.84514 0.72509 0.39137 0.0
H259 H 0.85539 0.77512 0.33031 0.0
C260 C 0.92429 0.78656 0.34277 0.0
C261 C 0.9579 0.78469 0.35936 0.0
C262 C 0.81827 0.73101 0.3795 0.0
C263 C 0.8721 0.75511 0.35976 0.0
C264 C 0.77504 0.72718 0.3824 0.0
C265 C 0.73925 0.73599 0.36769 0.0
C266 C 0.82619 0.74451 0.36184 0.0
C267 C 0.74828 0.74673 0.34977 0.0
C268 C 0.8813 0.77189 0.34293 0.0
C269 C 0.94778 0.76557 0.37541 0.0
N270 N 0.79092 0.75138 0.34742 0.0
N271 N 0.90588 0.75193 0.37526 0.0
H272 H 0.77096 0.61049 0.6405 0.0
H273 H 0.69092 0.38518 0.57383 0.0
H274 H 0.69087 0.60041 0.58215 0.0
H275 H 0.73278 0.3927 0.6367 0.0
H276 H 0.71421 0.46194 0.57487 0.0
H277 H 0.77724 0.52992 0.63745 0.0
C278 C 0.75496 0.59161 0.62698 0.0
C279 C 0.72951 0.61272 0.61171 0.0
C280 C 0.71928 0.44664 0.58842 0.0
C281 C 0.73785 0.52028 0.60801 0.0
C282 C 0.70638 0.40267 0.58782 0.0
C283 C 0.70938 0.3828 0.60524 0.0
C284 C 0.73494 0.47123 0.60661 0.0
C285 C 0.72982 0.40686 0.62294 0.0
C286 C 0.75892 0.54556 0.62524 0.0
C287 C 0.71097 0.58618 0.59433 0.0
N288 N 0.74098 0.45029 0.62325 0.0
N289 N 0.71518 0.54152 0.59306 0.0
H290 H 0.70149 0.23906 0.85317 0.0
H291 H 0.94946 0.2987 0.84441 0.0
H292 H 0.73036 0.3334 0.81539 0.0
H293 H 0.90851 0.17006 0.8553 0.0
H294 H 0.87231 0.32331 0.84176 0.0
H295 H 0.78108 0.22529 0.86241 0.0
C296 C 0.72471 0.25747 0.84715 0.0
C297 C 0.70956 0.28716 0.83345 0.0
C298 C 0.8805 0.28987 0.84494 0.0
C299 C 0.80018 0.27187 0.84393 0.0
C300 C 0.92441 0.27597 0.84656 0.0
C301 C 0.93517 0.23228 0.84996 0.0
C302 C 0.84761 0.26008 0.8472 0.0
C303 C 0.90144 0.2039 0.85245 0.0
C304 C 0.76995 0.24946 0.85231 0.0
C305 C 0.74089 0.31001 0.82592 0.0
N306 N 0.85926 0.21828 0.85105 0.0
N307 N 0.78476 0.30184 0.83122 0.0
H308 H 0.94517 0.55832 0.9148 0.0
H309 H 0.03625 0.36275 0.84829 0.0
H310 H 0.0264 0.57898 0.8726 0.0
H311 H 0.9911 0.34849 0.90203 0.0
H312 H 0.00931 0.439 0.84943 0.0
H313 H 0.93843 0.47988 0.90241 0.0
C314 C 0.96063 0.54641 0.90254 0.0
C315 C 0.98684 0.57491 0.89485 0.0
C316 C 0.00391 0.4187 0.8606 0.0
C317 C 0.97988 0.48503 0.8808 0.0
C318 C 0.01869 0.37505 0.85981 0.0
C319 C 0.01538 0.3494 0.875 0.0
C320 C 0.98575 0.43657 0.87672 0.0
C321 C 0.99371 0.36715 0.88993 0.0
C322 C 0.95693 0.50164 0.89553 0.0
C323 C 0.00601 0.55798 0.87893 0.0
N324 N 0.98016 0.40982 0.89055 0.0
N325 N 0.00284 0.51386 0.87265 0.0
H326 H 0.79085 0.77291 0.15018 0.0
H327 H 0.02003 0.87581 0.13848 0.0
H328 H 0.81852 0.91228 0.15263 0.0
H329 H 0.00329 0.73656 0.14158 0.0
H330 H 0.94918 0.8895 0.14846 0.0
H331 H 0.86998 0.75812 0.15128 0.0
C332 C 0.81365 0.80038 0.15126 0.0
C333 C 0.798 0.84383 0.15095 0.0
C334 C 0.96101 0.85591 0.1473 0.0
C335 C 0.88821 0.82728 0.15219 0.0
C336 C 0.00166 0.84818 0.14169 0.0
C337 C 0.01732 0.80505 0.13915 0.0
C338 C 0.93499 0.8201 0.14991 0.0
C339 C 0.99227 0.77035 0.14346 0.0
C340 C 0.85874 0.79195 0.15184 0.0
C341 C 0.82895 0.8782 0.1524 0.0
N342 N 0.9518 0.77849 0.14826 0.0
N343 N 0.87226 0.86916 0.15277 0.0
H344 H 0.46095 0.40594 0.40955 0.0
H345 H 0.62722 0.53807 0.36421 0.0
H346 H 0.57282 0.34479 0.38914 0.0
H347 H 0.54269 0.60369 0.40064 0.0
H348 H 0.61302 0.46803 0.37608 0.0
H349 H 0.49396 0.47879 0.4093 0.0
C350 C 0.49291 0.4079 0.40535 0.0
C351 C 0.51403 0.36927 0.39919 0.0
C352 C 0.59828 0.49777 0.38187 0.0
C353 C 0.55173 0.45265 0.39856 0.0
C354 C 0.60652 0.53784 0.37513 0.0
C355 C 0.58598 0.57666 0.38141 0.0
C356 C 0.56823 0.49611 0.3946 0.0
C357 C 0.55931 0.57451 0.39551 0.0
C358 C 0.51178 0.4495 0.40525 0.0
C359 C 0.55546 0.37369 0.39401 0.0
N360 N 0.55037 0.53469 0.4013 0.0
N361 N 0.57255 0.41461 0.39345 0.0
H362 H 0.01855 0.35855 0.69681 0.0
H363 H 0.80333 0.29531 0.614 0.0
H364 H 0.02645 0.30636 0.63759 0.0
H365 H 0.80428 0.3228 0.67596 0.0
H366 H 0.8825 0.3157 0.62017 0.0
H367 H 0.93845 0.3616 0.68722 0.0
C368 C 0.00335 0.34788 0.68171 0.0
C369 C 0.02926 0.33133 0.66809 0.0
C370 C 0.86505 0.31834 0.63232 0.0
C371 C 0.93683 0.33475 0.65689 0.0
C372 C 0.81978 0.30733 0.62877 0.0
C373 C 0.79732 0.30761 0.64451 0.0
C374 C 0.88764 0.32998 0.65173 0.0
C375 C 0.82036 0.32235 0.66342 0.0
C376 C 0.95751 0.34975 0.67621 0.0
C377 C 0.00772 0.31905 0.6486 0.0
N378 N 0.86415 0.33255 0.66651 0.0
N379 N 0.96266 0.3204 0.64362 0.0
H380 H 0.33866 0.41848 0.67171 0.0
H381 H 0.51163 0.23741 0.64197 0.0
H382 H 0.29979 0.28327 0.65081 0.0
H383 H 0.52956 0.37843 0.6452 0.0
H384 H 0.44099 0.24966 0.65344 0.0
H385 H 0.41524 0.39984 0.67054 0.0
C386 C 0.34634 0.38465 0.66704 0.0
C387 C 0.31255 0.3526 0.66098 0.0
C388 C 0.46092 0.27784 0.65202 0.0
C389 C 0.40075 0.33089 0.65957 0.0
C390 C 0.50137 0.27088 0.64569 0.0
C391 C 0.52634 0.30702 0.64265 0.0
C392 C 0.44594 0.32124 0.65556 0.0
C393 C 0.51128 0.34969 0.64735 0.0
C394 C 0.39015 0.37401 0.66638 0.0
C395 C 0.32474 0.30907 0.6555 0.0
N396 N 0.47213 0.35558 0.65345 0.0
N397 N 0.36782 0.29956 0.65465 0.0
H398 H 0.51614 0.87188 0.14944 0.0
H399 H 0.30342 0.78601 0.18281 0.0
H400 H 0.51528 0.76763 0.1867 0.0
H401 H 0.29121 0.80918 0.12211 0.0
H402 H 0.38196 0.80369 0.18825 0.0
H403 H 0.43456 0.86787 0.14163 0.0
C404 C 0.49909 0.84803 0.15588 0.0
C405 C 0.52294 0.82072 0.16914 0.0
C406 C 0.36203 0.80558 0.1738 0.0
C407 C 0.43011 0.81717 0.16072 0.0
C408 C 0.31711 0.7958 0.17069 0.0
C409 C 0.29083 0.79539 0.15189 0.0
C410 C 0.38123 0.81524 0.15806 0.0
C411 C 0.31039 0.80896 0.13681 0.0
C412 C 0.45261 0.84604 0.15149 0.0
C413 C 0.49875 0.79056 0.17701 0.0
N414 N 0.35482 0.81779 0.14013 0.0
N415 N 0.45396 0.79008 0.1729 0.0
H416 H 0.44404 0.2457 0.84417 0.0
H417 H 0.20635 0.3387 0.85487 0.0
H418 H 0.40874 0.38327 0.84693 0.0
H419 H 0.23441 0.19954 0.85124 0.0
H420 H 0.27706 0.35317 0.84589 0.0
H421 H 0.36563 0.22574 0.84138 0.0
C422 C 0.41971 0.2716 0.84387 0.0
C423 C 0.43294 0.31624 0.84611 0.0
C424 C 0.26777 0.31928 0.84671 0.0
C425 C 0.34353 0.2938 0.84294 0.0
C426 C 0.22722 0.31105 0.85172 0.0
C427 C 0.21482 0.26796 0.85383 0.0
C428 C 0.29691 0.28426 0.84429 0.0
C429 C 0.24293 0.23324 0.84966 0.0
C430 C 0.37504 0.26023 0.84233 0.0
C431 C 0.40013 0.3485 0.84564 0.0
N432 N 0.28322 0.24221 0.84545 0.0
N433 N 0.3572 0.33667 0.84427 0.0
H434 H 0.23866 0.84652 0.31401 0.0
H435 H 0.41878 0.6726 0.34979 0.0
H436 H 0.21385 0.7447 0.34911 0.0
H437 H 0.45797 0.80404 0.34181 0.0
H438 H 0.34234 0.69667 0.3469 0.0
H439 H 0.31807 0.83058 0.32155 0.0
C440 C 0.25001 0.82107 0.32343 0.0
C441 C 0.21966 0.7968 0.33093 0.0
C442 C 0.36762 0.72043 0.34594 0.0
C443 C 0.31006 0.77807 0.33933 0.0
C444 C 0.41123 0.70667 0.34747 0.0
C445 C 0.44472 0.7364 0.34602 0.0
C446 C 0.35696 0.76408 0.34245 0.0
C447 C 0.43312 0.78023 0.34315 0.0
C448 C 0.29525 0.81217 0.32778 0.0
C449 C 0.2361 0.76435 0.34312 0.0
N450 N 0.38998 0.79268 0.34117 0.0
N451 N 0.28005 0.75553 0.34671 0.0
H452 H 0.74286 0.88067 0.59023 0.0
H453 H 0.61526 0.11032 0.58574 0.0
H454 H 0.60936 0.88963 0.55827 0.0
H455 H 0.75389 0.09741 0.6096 0.0
H456 H 0.61236 0.03135 0.57299 0.0
H457 H 0.7473 0.96117 0.59594 0.0
C458 C 0.71441 0.89962 0.58444 0.0
C459 C 0.67561 0.87828 0.57388 0.0
C460 C 0.64355 0.0461 0.58072 0.0
C461 C 0.68039 0.97104 0.58029 0.0
C462 C 0.64528 0.09126 0.5878 0.0
C463 C 0.68479 0.11036 0.59888 0.0
C464 C 0.68157 0.02015 0.58484 0.0
C465 C 0.72259 0.08396 0.60133 0.0
C466 C 0.71702 0.94571 0.58757 0.0
C467 C 0.64001 0.90472 0.56643 0.0
N468 N 0.71992 0.04033 0.59462 0.0
N469 N 0.64308 0.94967 0.56993 0.0
H470 H 0.19247 0.09501 0.08444 0.0
H471 H 0.22708 0.8861 0.14202 0.0
H472 H 0.25792 0.10448 0.14534 0.0
H473 H 0.19826 0.8798 0.07885 0.0
H474 H 0.24907 0.96414 0.14374 0.0
H475 H 0.20349 0.01576 0.08187 0.0
C476 C 0.20999 0.08082 0.09723 0.0
C477 C 0.2236 0.10701 0.11524 0.0
C478 C 0.23919 0.94529 0.12949 0.0
C479 C 0.23508 0.01496 0.1125 0.0
C480 C 0.22712 0.90061 0.12852 0.0
C481 C 0.21021 0.87678 0.11028 0.0
C482 C 0.23392 0.96594 0.11209 0.0
C483 C 0.21053 0.89726 0.09323 0.0
C484 C 0.21604 0.03517 0.09576 0.0
C485 C 0.2455 0.08578 0.13128 0.0
N486 N 0.22119 0.9408 0.09455 0.0
N487 N 0.2498 0.04102 0.12964 0.0
H488 H 0.46683 0.05528 0.41172 0.0
H489 H 0.58996 0.88582 0.34826 0.0
H490 H 0.54349 0.09467 0.37071 0.0
H491 H 0.493 0.84589 0.3802 0.0
H492 H 0.56343 0.96155 0.35154 0.0
H493 H 0.46633 0.97898 0.39647 0.0
C494 C 0.48297 0.04783 0.39925 0.0
C495 C 0.5058 0.08107 0.39261 0.0
C496 C 0.54702 0.93618 0.3574 0.0
C497 C 0.5059 0.99369 0.37521 0.0
C498 C 0.562 0.89288 0.35541 0.0
C499 C 0.54362 0.85977 0.36401 0.0
C500 C 0.51423 0.94673 0.36857 0.0
C501 C 0.50782 0.87053 0.37328 0.0
C502 C 0.48259 0.0043 0.39051 0.0
C503 C 0.52573 0.0699 0.37631 0.0
N504 N 0.49492 0.91338 0.37572 0.0
N505 N 0.52605 0.02697 0.3684 0.0
H506 H 0.96599 0.90073 0.91643 0.0
H507 H 0.1223 0.03536 0.86643 0.0
H508 H 0.07085 0.84043 0.89029 0.0
H509 H 0.04012 0.09896 0.90444 0.0
H510 H 0.11142 0.96502 0.87878 0.0
H511 H 0.99854 0.97367 0.91598 0.0
C512 C 0.99649 0.90287 0.91098 0.0
C513 C 0.01562 0.86447 0.90327 0.0
C514 C 0.09655 0.9944 0.88484 0.0
C515 C 0.05268 0.9481 0.90232 0.0
C516 C 0.103 0.03468 0.87786 0.0
C517 C 0.0821 0.07301 0.88444 0.0
C518 C 0.06791 0.99199 0.89814 0.0
C519 C 0.05708 0.07023 0.8991 0.0
C520 C 0.01506 0.94455 0.91072 0.0
C521 C 0.0551 0.86913 0.89642 0.0
N522 N 0.04985 0.03018 0.90515 0.0
N523 N 0.07185 0.91018 0.89576 0.0
H524 H 0.0818 0.26619 0.02288 0.0
H525 H 0.18978 0.172 0.93657 0.0
H526 H 0.20041 0.18942 0.03322 0.0
H527 H 0.049 0.18908 0.92881 0.0
H528 H 0.19319 0.16968 0.97176 0.0
H529 H 0.06717 0.2337 0.9885 0.0
C530 C 0.10446 0.2421 0.01791 0.0
C531 C 0.14256 0.23075 0.03078 0.0
C532 C 0.16125 0.17224 0.96231 0.0
C533 C 0.12635 0.19375 0.99153 0.0
C534 C 0.15929 0.17297 0.94218 0.0
C535 C 0.11903 0.18044 0.92987 0.0
C536 C 0.1229 0.1807 0.97016 0.0
C537 C 0.08057 0.18279 0.93787 0.0
C538 C 0.09594 0.22327 -0.00163 0.0
C539 C 0.1707 0.19907 0.02371 0.0
N540 N 0.08358 0.18435 0.95765 0.0
N541 N 0.16253 0.18232 0.00445 0.0
H542 H 0.05202 0.73872 0.27798 0.0
H543 H 0.09112 0.81234 0.17616 0.0
H544 H 0.11857 0.85915 0.27215 0.0
H545 H 0.08702 0.67684 0.18847 0.0
H546 H 0.06988 0.83603 0.20782 0.0
H547 H 0.03485 0.72318 0.24197 0.0
C548 C 0.06174 0.7625 0.26906 0.0
C549 C 0.08698 0.80001 0.27787 0.0
C550 C 0.07228 0.80105 0.20327 0.0
C551 C 0.06747 0.78273 0.23701 0.0
C552 C 0.08396 0.78749 0.18515 0.0
C553 C 0.09128 0.74263 0.17988 0.0
C554 C 0.0675 0.76942 0.21598 0.0
C555 C 0.08214 0.71179 0.19217 0.0
C556 C 0.05212 0.75359 0.2486 0.0
C557 C 0.09927 0.82972 0.26579 0.0
N558 N 0.07129 0.72578 0.2098 0.0
N559 N 0.08975 0.82026 0.24594 0.0
H560 H 0.68691 0.69195 0.52896 0.0
H561 H 0.52725 0.73397 0.42922 0.0
H562 H 0.57559 0.77942 0.52393 0.0
H563 H 0.64851 0.66192 0.43139 0.0
H564 H 0.53257 0.73052 0.46437 0.0
H565 H 0.66291 0.66318 0.49428 0.0
C566 C 0.65694 0.70445 0.52065 0.0
C567 C 0.63357 0.73864 0.52919 0.0
C568 C 0.55749 0.71434 0.45715 0.0
C569 C 0.60596 0.70593 0.48965 0.0
C570 C 0.55409 0.71581 0.43704 0.0
C571 C 0.58752 0.69824 0.42754 0.0
C572 C 0.59524 0.69616 0.46792 0.0
C573 C 0.62198 0.6756 0.43827 0.0
C574 C 0.64333 0.6881 0.50087 0.0
C575 C 0.59504 0.7537 0.51779 0.0
N576 N 0.6256 0.67613 0.45807 0.0
N577 N 0.58271 0.73757 0.49859 0.0
H578 H 0.56523 0.34069 0.77001 0.0
H579 H 0.61154 0.16435 0.68351 0.0
H580 H 0.60504 0.2062 0.77616 0.0
H581 H 0.59626 0.3035 0.6779 0.0
H582 H 0.58585 0.1755 0.71465 0.0
H583 H 0.55477 0.3241 0.73406 0.0
C584 C 0.57061 0.30742 0.7637 0.0
C585 C 0.5864 0.27477 0.77586 0.0
C586 C 0.58716 0.20354 0.70645 0.0
C587 C 0.57477 0.25564 0.73515 0.0
C588 C 0.60165 0.19712 0.68865 0.0
C589 C 0.60634 0.23315 0.6783 0.0
C590 C 0.57826 0.24651 0.71418 0.0
C591 C 0.5929 0.27488 0.68546 0.0
C592 C 0.56483 0.29801 0.74328 0.0
C593 C 0.59321 0.23226 0.76717 0.0
N594 N 0.58031 0.28066 0.70324 0.0
N595 N 0.58777 0.22403 0.74736 0.0
H596 H 0.99335 0.61501 0.96194 0.0
H597 H 0.17086 0.69856 0.05792 0.0
H598 H 0.10235 0.70276 0.96154 0.0
H599 H 0.03705 0.66099 0.05907 0.0
H600 H 0.15671 0.67767 0.02224 0.0
H601 H 0.01885 0.61219 0.99716 0.0
C602 C 0.02289 0.63348 0.96929 0.0
C603 C 0.04576 0.65934 0.95889 0.0
C604 C 0.13094 0.67264 0.03042 0.0
C605 C 0.07529 0.65582 -0.00089 0.0
C606 C 0.13925 0.68367 0.05078 0.0
C607 C 0.10507 0.68107 0.06131 0.0
C608 C 0.08832 0.65858 0.02075 0.0
C609 C 0.06427 0.66297 0.05139 0.0
C610 C 0.0374 0.63177 0.98935 0.0
C611 C 0.08361 0.68283 0.96912 0.0
N612 N 0.0568 0.65286 0.03159 0.0
N613 N 0.09726 0.68054 0.98873 0.0
H614 H 0.6282 0.86895 0.23641 0.0
H615 H 0.64359 0.65872 0.29119 0.0
H616 H 0.68132 0.74766 0.21315 0.0
H617 H 0.64427 0.78929 0.32221 0.0
H618 H 0.66434 0.69084 0.26348 0.0
H619 H 0.64068 0.84257 0.26894 0.0
C620 C 0.64373 0.83728 0.23837 0.0
C621 C 0.65389 0.81035 0.22225 0.0
C622 C 0.66113 0.71243 0.27654 0.0
C623 C 0.66681 0.77928 0.25907 0.0
C624 C 0.64932 0.69407 0.29233 0.0
C625 C 0.64245 0.72145 0.30895 0.0
C626 C 0.66463 0.7586 0.27716 0.0
C627 C 0.64968 0.76709 0.30967 0.0
C628 C 0.65077 0.82215 0.25687 0.0
C629 C 0.67336 0.76936 0.22534 0.0
N630 N 0.65954 0.78437 0.29382 0.0
N631 N 0.67835 0.75459 0.24333 0.0
H632 H 0.60843 0.13407 0.45733 0.0
H633 H 0.5214 0.19045 0.55775 0.0
H634 H 0.48805 0.20256 0.46345 0.0
H635 H 0.66078 0.18129 0.55724 0.0
H636 H 0.5054 0.16928 0.52235 0.0
H637 H 0.62546 0.13139 0.4932 0.0
C638 C 0.58577 0.14865 0.46627 0.0
C639 C 0.54713 0.16918 0.45758 0.0
C640 C 0.5395 0.17085 0.53001 0.0
C641 C 0.56543 0.16471 0.49811 0.0
C642 C 0.54861 0.18227 0.55023 0.0
C643 C 0.59244 0.1881 0.56028 0.0
C644 C 0.57447 0.16548 0.51976 0.0
C645 C 0.62654 0.17716 0.54993 0.0
C646 C 0.59537 0.14689 0.48661 0.0
C647 C 0.51854 0.18717 0.46965 0.0
N648 N 0.61689 0.16726 0.53003 0.0
N649 N 0.52817 0.18433 0.48928 0.0
H650 H 0.17913 0.34108 0.73598 0.0
H651 H 0.11509 0.13983 0.79024 0.0
H652 H 0.12066 0.21748 0.70685 0.0
H653 H 0.14529 0.27117 0.81967 0.0
H654 H 0.13707 0.1627 0.76099 0.0
H655 H 0.18596 0.31107 0.76779 0.0
C656 C 0.16886 0.30725 0.7363 0.0
C657 C 0.14918 0.28162 0.71891 0.0
C658 C 0.13973 0.18639 0.77395 0.0
C659 C 0.15653 0.24733 0.75496 0.0
C660 C 0.12733 0.17328 0.79068 0.0
C661 C 0.12825 0.20369 0.80738 0.0
C662 C 0.15258 0.23048 0.77376 0.0
C663 C 0.14458 0.24655 0.80719 0.0
C664 C 0.17248 0.29025 0.75439 0.0
C665 C 0.13586 0.23822 0.72 0.0
N666 N 0.15544 0.25895 0.79049 0.0
N667 N 0.13948 0.22257 0.73772 0.0
loop_
_geom_bond_atom_site_label_1
_geom_bond_atom_site_label_2
_geom_bond_distance
_geom_bond_site_symmetry_2
_ccdc_geom_bond_type
H0 C1 0.949 . S
C1 H0 0.949 . S
C1 C2 1.395 . S
C1 C3 1.391 . S
C2 C1 1.395 . S
C2 C5 1.390 . S
C3 C1 1.391 . S
C3 C7 1.387 . S
C3 C8 1.491 . S
H4 C5 0.950 . S
C5 C2 1.390 . S
C5 H4 0.950 . S
C5 C6 1.378 . S
C6 C5 1.378 . S
C6 C7 1.409 . S
C7 C3 1.387 . S
C7 C6 1.409 . S
C7 H9 0.951 . S
C8 C3 1.491 . S
C8 C10 1.382 . S
C8 C12 1.404 . S
H9 C7 0.951 . S
C10 C8 1.382 . S
C10 C11 1.390 . S
C10 H15 0.949 . S
C11 C10 1.390 . S
C11 C16 1.399 . S
C12 C8 1.404 . S
C12 H13 0.950 . S
C12 C14 1.375 . S
H13 C12 0.950 . S
C14 C12 1.375 . S
C14 C16 1.382 . S
C14 H18 0.950 . S
H15 C10 0.949 . S
C16 C11 1.399 . S
C16 C14 1.382 . S
C16 H17 0.952 . S
H17 C16 0.952 . S
H18 C14 0.950 . S
H19 C20 0.949 . S
C20 H19 0.949 . S
C20 C21 1.395 . S
C20 C22 1.391 . S
C21 C20 1.395 . S
C21 C24 1.390 . S
C22 C20 1.391 . S
C22 C26 1.387 . S
C22 C27 1.491 . S
H23 C24 0.950 . S
C24 C21 1.390 . S
C24 H23 0.950 . S
C24 C25 1.378 . S
C25 C24 1.378 . S
C25 C26 1.409 . S
C26 C22 1.387 . S
C26 C25 1.409 . S
C26 H28 0.951 . S
C27 C22 1.491 . S
C27 C29 1.382 . S
C27 C31 1.404 . S
H28 C26 0.951 . S
C29 C27 1.382 . S
C29 C30 1.390 1_455 S
C29 H34 0.949 . S
C30 C29 1.390 1_655 S
C30 C35 1.399 . S
C31 C27 1.404 . S
C31 H32 0.950 . S
C31 C33 1.375 . S
H32 C31 0.950 . S
C33 C31 1.375 . S
C33 C35 1.382 1_455 S
C33 H37 0.950 . S
H34 C29 0.949 . S
C35 C30 1.399 . S
C35 C33 1.382 1_655 S
C35 H36 0.952 . S
H36 C35 0.952 . S
H37 C33 0.950 . S
H38 C39 0.949 . S
C39 H38 0.949 . S
C39 C40 1.395 . S
C39 C41 1.391 . S
C40 C39 1.395 . S
C40 C43 1.390 . S
C41 C39 1.391 . S
C41 C45 1.387 . S
C41 C46 1.491 . S
H42 C43 0.950 . S
C43 C40 1.390 . S
C43 H42 0.950 . S
C43 C44 1.378 . S
C44 C43 1.378 . S
C44 C45 1.409 . S
C45 C41 1.387 . S
C45 C44 1.409 . S
C45 H47 0.951 . S
C46 C41 1.491 . S
C46 C48 1.382 . S
C46 C50 1.404 . S
H47 C45 0.951 . S
C48 C46 1.382 . S
C48 C49 1.390 . S
C48 H53 0.949 . S
C49 C48 1.390 . S
C49 C54 1.399 . S
C50 C46 1.404 . S
C50 H51 0.950 . S
C50 C52 1.375 . S
H51 C50 0.950 . S
C52 C50 1.375 . S
C52 C54 1.382 . S
C52 H56 0.950 . S
H53 C48 0.949 . S
C54 C49 1.399 . S
C54 C52 1.382 . S
C54 H55 0.952 . S
H55 C54 0.952 . S
H56 C52 0.950 . S
H57 C58 0.949 . S
C58 H57 0.949 . S
C58 C59 1.395 . S
C58 C60 1.391 . S
C59 C58 1.395 . S
C59 C62 1.390 . S
C60 C58 1.391 . S
C60 C64 1.387 . S
C60 C65 1.491 . S
H61 C62 0.950 . S
C62 C59 1.390 . S
C62 H61 0.950 . S
C62 C63 1.378 . S
C63 C62 1.378 . S
C63 C64 1.409 . S
C64 C60 1.387 . S
C64 C63 1.409 . S
C64 H66 0.951 . S
C65 C60 1.491 . S
C65 C67 1.382 . S
C65 C69 1.404 . S
H66 C64 0.951 . S
C67 C65 1.382 . S
C67 C68 1.390 . S
C67 H72 0.949 . S
C68 C67 1.390 . S
C68 C73 1.399 . S
C69 C65 1.404 . S
C69 H70 0.950 . S
C69 C71 1.375 . S
H70 C69 0.950 . S
C71 C69 1.375 . S
C71 C73 1.382 . S
C71 H75 0.950 . S
H72 C67 0.949 . S
C73 C68 1.399 . S
C73 C71 1.382 . S
C73 H74 0.952 . S
H74 C73 0.952 . S
H75 C71 0.950 . S
H76 C77 0.949 . S
C77 H76 0.949 . S
C77 C78 1.395 . S
C77 C79 1.391 . S
C78 C77 1.395 . S
C78 C81 1.390 . S
C79 C77 1.391 . S
C79 C83 1.387 . S
C79 C84 1.491 1_455 S
H80 C81 0.950 . S
C81 C78 1.390 . S
C81 H80 0.950 . S
C81 C82 1.378 . S
C82 C81 1.378 . S
C82 C83 1.409 . S
C83 C79 1.387 . S
C83 C82 1.409 . S
C83 H85 0.951 . S
C84 C79 1.491 1_655 S
C84 C86 1.382 1_655 S
C84 C88 1.404 . S
H85 C83 0.951 . S
C86 C84 1.382 1_455 S
C86 C87 1.390 . S
C86 H91 0.949 . S
C87 C86 1.390 . S
C87 C92 1.399 1_455 S
C88 C84 1.404 . S
C88 H89 0.950 . S
C88 C90 1.375 . S
H89 C88 0.950 . S
C90 C88 1.375 . S
C90 C92 1.382 . S
C90 H94 0.950 . S
H91 C86 0.949 . S
C92 C87 1.399 1_655 S
C92 C90 1.382 . S
C92 H93 0.952 . S
H93 C92 0.952 . S
H94 C90 0.950 . S
H95 C96 0.949 . S
C96 H95 0.949 . S
C96 C97 1.395 . S
C96 C98 1.391 . S
C97 C96 1.395 . S
C97 C100 1.390 . S
C98 C96 1.391 . S
C98 C102 1.387 . S
C98 C103 1.491 . S
H99 C100 0.950 . S
C100 C97 1.390 . S
C100 H99 0.950 . S
C100 C101 1.378 . S
C101 C100 1.378 . S
C101 C102 1.409 . S
C102 C98 1.387 . S
C102 C101 1.409 . S
C102 H104 0.951 . S
C103 C98 1.491 . S
C103 C105 1.382 . S
C103 C107 1.404 . S
H104 C102 0.951 . S
C105 C103 1.382 . S
C105 C106 1.390 . S
C105 H110 0.949 . S
C106 C105 1.390 . S
C106 C111 1.399 . S
C107 C103 1.404 . S
C107 H108 0.950 . S
C107 C109 1.375 . S
H108 C107 0.950 . S
C109 C107 1.375 . S
C109 C111 1.382 . S
C109 H113 0.950 . S
H110 C105 0.949 . S
C111 C106 1.399 . S
C111 C109 1.382 . S
C111 H112 0.952 . S
H112 C111 0.952 . S
H113 C109 0.950 . S
H114 C115 0.949 . S
C115 H114 0.949 . S
C115 C116 1.395 . S
C115 C117 1.391 . S
C116 C115 1.395 . S
C116 C119 1.390 . S
C117 C115 1.391 . S
C117 C121 1.387 . S
C117 C122 1.491 . S
H118 C119 0.950 . S
C119 C116 1.390 . S
C119 H118 0.950 . S
C119 C120 1.378 . S
C120 C119 1.378 . S
C120 C121 1.409 . S
C121 C117 1.387 . S
C121 C120 1.409 . S
C121 H123 0.951 . S
C122 C117 1.491 . S
C122 C124 1.382 . S
C122 C126 1.404 . S
H123 C121 0.951 . S
C124 C122 1.382 . S
C124 C125 1.390 . S
C124 H129 0.949 . S
C125 C124 1.390 . S
C125 C130 1.399 . S
C126 C122 1.404 . S
C126 H127 0.950 . S
C126 C128 1.375 . S
H127 C126 0.950 . S
C128 C126 1.375 . S
C128 C130 1.382 . S
C128 H132 0.950 . S
H129 C124 0.949 . S
C130 C125 1.399 . S
C130 C128 1.382 . S
C130 H131 0.952 . S
H131 C130 0.952 . S
H132 C128 0.950 . S
H133 C134 0.949 . S
C134 H133 0.949 . S
C134 C135 1.395 . S
C134 C136 1.391 . S
C135 C134 1.395 . S
C135 C138 1.390 . S
C136 C134 1.391 . S
C136 C140 1.387 . S
C136 C141 1.491 . S
H137 C138 0.950 . S
C138 C135 1.390 . S
C138 H137 0.950 . S
C138 C139 1.378 . S
C139 C138 1.378 . S
C139 C140 1.409 . S
C140 C136 1.387 . S
C140 C139 1.409 . S
C140 H142 0.951 . S
C141 C136 1.491 . S
C141 C143 1.382 . S
C141 C145 1.404 . S
H142 C140 0.951 . S
C143 C141 1.382 . S
C143 C144 1.390 . S
C143 H148 0.949 . S
C144 C143 1.390 . S
C144 C149 1.399 . S
C145 C141 1.404 . S
C145 H146 0.950 . S
C145 C147 1.375 . S
H146 C145 0.950 . S
C147 C145 1.375 . S
C147 C149 1.382 . S
C147 H151 0.950 . S
H148 C143 0.949 . S
C149 C144 1.399 . S
C149 C147 1.382 . S
C149 H150 0.952 . S
H150 C149 0.952 . S
H151 C147 0.950 . S
Zn152 O158 1.920 . S
Zn152 O164 1.898 . S
Zn152 O167 1.905 . S
Zn153 O161 1.905 . S
Zn153 O162 1.898 . S
Zn153 O170 1.920 . S
Zn154 O157 2.080 . S
Zn154 O160 2.114 . S
Zn154 O163 2.120 . S
Zn154 O165 2.120 . S
Zn154 O166 2.114 . S
Zn154 O169 2.080 . S
C155 O160 1.166 . S
C155 O161 1.182 . S
C156 O162 1.167 . S
C156 O163 1.299 . S
O157 Zn154 2.080 . S
O157 C171 1.305 . S
O158 Zn152 1.920 . S
O158 C171 1.234 . S
C159 O164 1.167 . S
C159 O165 1.299 . S
O160 Zn154 2.114 . S
O160 C155 1.166 . S
O161 Zn153 1.905 . S
O161 C155 1.182 . S
O162 Zn153 1.898 . S
O162 C156 1.167 . S
O163 Zn154 2.120 . S
O163 C156 1.299 . S
O164 Zn152 1.898 . S
O164 C159 1.167 . S
O165 Zn154 2.120 . S
O165 C159 1.299 . S
O166 Zn154 2.114 . S
O166 C168 1.166 . S
O167 Zn152 1.905 . S
O167 C168 1.182 . S
C168 O166 1.166 . S
C168 O167 1.182 . S
O169 Zn154 2.080 . S
O169 C172 1.305 . S
O170 Zn153 1.920 . S
O170 C172 1.234 . S
C171 O157 1.305 . S
C171 O158 1.234 . S
C172 O169 1.305 . S
C172 O170 1.234 . S
Zn173 O179 1.920 . S
Zn173 O185 1.898 . S
Zn173 O188 1.905 . S
Zn174 O182 1.905 . S
Zn174 O183 1.898 . S
Zn174 O191 1.920 . S
Zn175 O178 2.080 . S
Zn175 O181 2.114 . S
Zn175 O184 2.120 . S
Zn175 O186 2.120 . S
Zn175 O187 2.114 . S
Zn175 O190 2.080 . S
C176 O181 1.166 . S
C176 O182 1.182 . S
C177 O183 1.167 . S
C177 O184 1.299 . S
O178 Zn175 2.080 . S
O178 C192 1.305 . S
O179 Zn173 1.920 . S
O179 C192 1.234 . S
C180 O185 1.167 . S
C180 O186 1.299 . S
O181 Zn175 2.114 . S
O181 C176 1.166 . S
O182 Zn174 1.905 . S
O182 C176 1.182 . S
O183 Zn174 1.898 . S
O183 C177 1.167 . S
O184 Zn175 2.120 . S
O184 C177 1.299 . S
O185 Zn173 1.898 . S
O185 C180 1.167 . S
O186 Zn175 2.120 . S
O186 C180 1.299 . S
O187 Zn175 2.114 . S
O187 C189 1.166 . S
O188 Zn173 1.905 . S
O188 C189 1.182 . S
C189 O187 1.166 . S
C189 O188 1.182 . S
O190 Zn175 2.080 . S
O190 C193 1.305 . S
O191 Zn174 1.920 . S
O191 C193 1.234 . S
C192 O178 1.305 . S
C192 O179 1.234 . S
C193 O190 1.305 . S
C193 O191 1.234 . S
Zn194 O200 1.920 . S
Zn194 O206 1.898 . S
Zn194 O209 1.905 . S
Zn195 O203 1.905 . S
Zn195 O204 1.898 . S
Zn195 O212 1.920 . S
Zn196 O199 2.080 . S
Zn196 O202 2.114 . S
Zn196 O205 2.120 . S
Zn196 O207 2.120 . S
Zn196 O208 2.114 . S
Zn196 O211 2.080 . S
C197 O202 1.166 . S
C197 O203 1.182 . S
C198 O204 1.167 . S
C198 O205 1.299 . S
O199 Zn196 2.080 . S
O199 C213 1.305 . S
O200 Zn194 1.920 . S
O200 C213 1.234 . S
C201 O206 1.167 . S
C201 O207 1.299 . S
O202 Zn196 2.114 . S
O202 C197 1.166 . S
O203 Zn195 1.905 . S
O203 C197 1.182 . S
O204 Zn195 1.898 . S
O204 C198 1.167 . S
O205 Zn196 2.120 . S
O205 C198 1.299 . S
O206 Zn194 1.898 . S
O206 C201 1.167 . S
O207 Zn196 2.120 . S
O207 C201 1.299 . S
O208 Zn196 2.114 . S
O208 C210 1.166 . S
O209 Zn194 1.905 . S
O209 C210 1.182 . S
C210 O208 1.166 . S
C210 O209 1.182 . S
O211 Zn196 2.080 . S
O211 C214 1.305 . S
O212 Zn195 1.920 . S
O212 C214 1.234 . S
C213 O199 1.305 . S
C213 O200 1.234 . S
C214 O211 1.305 . S
C214 O212 1.234 . S
Zn215 O221 1.920 . S
Zn215 O227 1.898 . S
Zn215 O230 1.905 1_455 S
Zn216 O224 1.905 . S
Zn216 O225 1.898 . S
Zn216 O233 1.920 . S
Zn217 O220 2.080 . S
Zn217 O223 2.114 . S
Zn217 O226 2.120 . S
Zn217 O228 2.120 . S
Zn217 O229 2.114 . S
Zn217 O232 2.080 . S
C218 O223 1.166 . S
C218 O224 1.182 . S
C219 O225 1.167 . S
C219 O226 1.299 . S
O220 Zn217 2.080 . S
O220 C234 1.305 . S
O221 Zn215 1.920 . S
O221 C234 1.234 . S
C222 O227 1.167 . S
C222 O228 1.299 . S
O223 Zn217 2.114 . S
O223 C218 1.166 . S
O224 Zn216 1.905 . S
O224 C218 1.182 . S
O225 Zn216 1.898 . S
O225 C219 1.167 . S
O226 Zn217 2.120 . S
O226 C219 1.299 . S
O227 Zn215 1.898 . S
O227 C222 1.167 . S
O228 Zn217 2.120 . S
O228 C222 1.299 . S
O229 Zn217 2.114 . S
O229 C231 1.166 1_455 S
O230 Zn215 1.905 1_655 S
O230 C231 1.182 . S
C231 O229 1.166 1_655 S
C231 O230 1.182 . S
O232 Zn217 2.080 . S
O232 C235 1.305 . S
O233 Zn216 1.920 . S
O233 C235 1.234 . S
C234 O220 1.305 . S
C234 O221 1.234 . S
C235 O232 1.305 . S
C235 O233 1.234 . S
H236 C242 0.930 . S
H237 C246 0.930 . S
H238 C251 0.929 . S
H239 C249 0.929 . S
H240 C244 0.929 . S
H241 C250 0.929 . S
C242 H236 0.930 . S
C242 C243 1.367 . S
C242 C250 1.378 . S
C243 C242 1.367 . S
C243 C251 1.433 . S
C244 H240 0.929 . S
C244 C246 1.378 . S
C244 C248 1.350 . S
C245 C248 1.463 . S
C245 C250 1.350 . S
C245 N253 1.427 . S
C246 H237 0.930 . S
C246 C244 1.378 . S
C246 C247 1.367 . S
C247 C246 1.367 . S
C247 C249 1.433 . S
C248 C244 1.350 . S
C248 C245 1.463 . S
C248 N252 1.427 . S
C249 H239 0.929 . S
C249 C247 1.433 . S
C249 N252 1.384 . S
C250 H241 0.929 . S
C250 C242 1.378 . S
C250 C245 1.350 . S
C251 H238 0.929 . S
C251 C243 1.433 . S
C251 N253 1.384 . S
N252 C248 1.427 . S
N252 C249 1.384 . S
N253 C245 1.427 . S
N253 C251 1.384 . S
H254 C260 0.930 . S
H255 C264 0.930 . S
H256 C269 0.929 . S
H257 C267 0.929 . S
H258 C262 0.929 . S
H259 C268 0.929 . S
C260 H254 0.930 . S
C260 C261 1.367 . S
C260 C268 1.378 . S
C261 C260 1.367 . S
C261 C269 1.433 . S
C262 H258 0.929 . S
C262 C264 1.378 . S
C262 C266 1.350 . S
C263 C266 1.463 . S
C263 C268 1.350 . S
C263 N271 1.427 . S
C264 H255 0.930 . S
C264 C262 1.378 . S
C264 C265 1.367 . S
C265 C264 1.367 . S
C265 C267 1.433 . S
C266 C262 1.350 . S
C266 C263 1.463 . S
C266 N270 1.427 . S
C267 H257 0.929 . S
C267 C265 1.433 . S
C267 N270 1.384 . S
C268 H259 0.929 . S
C268 C260 1.378 . S
C268 C263 1.350 . S
C269 H256 0.929 . S
C269 C261 1.433 . S
C269 N271 1.384 . S
N270 C266 1.427 . S
N270 C267 1.384 . S
N271 C263 1.427 . S
N271 C269 1.384 . S
H272 C278 0.930 . S
H273 C282 0.930 . S
H274 C287 0.929 . S
H275 C285 0.929 . S
H276 C280 0.929 . S
H277 C286 0.929 . S
C278 H272 0.930 . S
C278 C279 1.367 . S
C278 C286 1.378 . S
C279 C278 1.367 . S
C279 C287 1.433 . S
C280 H276 0.929 . S
C280 C282 1.378 . S
C280 C284 1.350 . S
C281 C284 1.463 . S
C281 C286 1.350 . S
C281 N289 1.427 . S
C282 H273 0.930 . S
C282 C280 1.378 . S
C282 C283 1.367 . S
C283 C282 1.367 . S
C283 C285 1.433 . S
C284 C280 1.350 . S
C284 C281 1.463 . S
C284 N288 1.427 . S
C285 H275 0.929 . S
C285 C283 1.433 . S
C285 N288 1.384 . S
C286 H277 0.929 . S
C286 C278 1.378 . S
C286 C281 1.350 . S
C287 H274 0.929 . S
C287 C279 1.433 . S
C287 N289 1.384 . S
N288 C284 1.427 . S
N288 C285 1.384 . S
N289 C281 1.427 . S
N289 C287 1.384 . S
H290 C296 0.930 . S
H291 C300 0.930 . S
H292 C305 0.929 . S
H293 C303 0.929 . S
H294 C298 0.929 . S
H295 C304 0.929 . S
C296 H290 0.930 . S
C296 C297 1.367 . S
C296 C304 1.378 . S
C297 C296 1.367 . S
C297 C305 1.433 . S
C298 H294 0.929 . S
C298 C300 1.378 . S
C298 C302 1.350 . S
C299 C302 1.463 . S
C299 C304 1.350 . S
C299 N307 1.427 . S
C300 H291 0.930 . S
C300 C298 1.378 . S
C300 C301 1.367 . S
C301 C300 1.367 . S
C301 C303 1.433 . S
C302 C298 1.350 . S
C302 C299 1.463 . S
C302 N306 1.427 . S
C303 H293 0.929 . S
C303 C301 1.433 . S
C303 N306 1.384 . S
C304 H295 0.929 . S
C304 C296 1.378 . S
C304 C299 1.350 . S
C305 H292 0.929 . S
C305 C297 1.433 . S
C305 N307 1.384 . S
N306 C302 1.427 . S
N306 C303 1.384 . S
N307 C299 1.427 . S
N307 C305 1.384 . S
H308 C314 0.930 . S
H309 C318 0.930 . S
H310 C323 0.929 . S
H311 C321 0.929 . S
H312 C316 0.929 . S
H313 C322 0.929 1_655 S
C314 H308 0.930 . S
C314 C315 1.367 1_655 S
C314 C322 1.378 1_655 S
C315 C314 1.367 1_455 S
C315 C323 1.433 . S
C316 H312 0.929 . S
C316 C318 1.378 . S
C316 C320 1.350 . S
C317 C320 1.463 . S
C317 C322 1.350 . S
C317 N325 1.427 . S
C318 H309 0.930 . S
C318 C316 1.378 . S
C318 C319 1.367 . S
C319 C318 1.367 . S
C319 C321 1.433 . S
C320 C316 1.350 . S
C320 C317 1.463 . S
C320 N324 1.427 . S
C321 H311 0.929 . S
C321 C319 1.433 . S
C321 N324 1.384 . S
C322 H313 0.929 1_455 S
C322 C314 1.378 1_455 S
C322 C317 1.350 . S
C323 H310 0.929 . S
C323 C315 1.433 . S
C323 N325 1.384 . S
N324 C320 1.427 . S
N324 C321 1.384 . S
N325 C317 1.427 . S
N325 C323 1.384 . S
H326 C332 0.930 . S
H327 C336 0.930 . S
H328 C341 0.929 . S
H329 C339 0.929 . S
H330 C334 0.929 . S
H331 C340 0.929 . S
C332 H326 0.930 . S
C332 C333 1.367 . S
C332 C340 1.378 . S
C333 C332 1.367 . S
C333 C341 1.433 . S
C334 H330 0.929 . S
C334 C336 1.378 1_655 S
C334 C338 1.350 . S
C335 C338 1.463 . S
C335 C340 1.350 . S
C335 N343 1.427 . S
C336 H327 0.930 . S
C336 C334 1.378 1_455 S
C336 C337 1.367 . S
C337 C336 1.367 . S
C337 C339 1.433 1_455 S
C338 C334 1.350 . S
C338 C335 1.463 . S
C338 N342 1.427 . S
C339 H329 0.929 . S
C339 C337 1.433 1_655 S
C339 N342 1.384 . S
C340 H331 0.929 . S
C340 C332 1.378 . S
C340 C335 1.350 . S
C341 H328 0.929 . S
C341 C333 1.433 . S
C341 N343 1.384 . S
N342 C338 1.427 . S
N342 C339 1.384 . S
N343 C335 1.427 . S
N343 C341 1.384 . S
H344 C350 0.930 . S
H345 C354 0.930 . S
H346 C359 0.929 . S
H347 C357 0.929 . S
H348 C352 0.929 . S
H349 C358 0.929 . S
C350 H344 0.930 . S
C350 C351 1.367 . S
C350 C358 1.378 . S
C351 C350 1.367 . S
C351 C359 1.433 . S
C352 H348 0.929 . S
C352 C354 1.378 . S
C352 C356 1.350 . S
C353 C356 1.463 . S
C353 C358 1.350 . S
C353 N361 1.427 . S
C354 H345 0.930 . S
C354 C352 1.378 . S
C354 C355 1.367 . S
C355 C354 1.367 . S
C355 C357 1.433 . S
C356 C352 1.350 . S
C356 C353 1.463 . S
C356 N360 1.427 . S
C357 H347 0.929 . S
C357 C355 1.433 . S
C357 N360 1.384 . S
C358 H349 0.929 . S
C358 C350 1.378 . S
C358 C353 1.350 . S
C359 H346 0.929 . S
C359 C351 1.433 . S
C359 N361 1.384 . S
N360 C356 1.427 . S
N360 C357 1.384 . S
N361 C353 1.427 . S
N361 C359 1.384 . S
H362 C368 0.930 1_455 S
H363 C372 0.930 . S
H364 C377 0.928 1_455 S
H365 C375 0.929 . S
H366 C370 0.929 . S
H367 C376 0.929 . S
C368 H362 0.930 1_655 S
C368 C369 1.367 1_655 S
C368 C376 1.378 . S
C369 C368 1.367 1_455 S
C369 C377 1.433 1_455 S
C370 H366 0.929 . S
C370 C372 1.378 . S
C370 C374 1.350 . S
C371 C374 1.463 . S
C371 C376 1.350 . S
C371 N379 1.427 . S
C372 H363 0.930 . S
C372 C370 1.378 . S
C372 C373 1.367 . S
C373 C372 1.367 . S
C373 C375 1.433 . S
C374 C370 1.350 . S
C374 C371 1.463 . S
C374 N378 1.427 . S
C375 H365 0.929 . S
C375 C373 1.433 . S
C375 N378 1.384 . S
C376 H367 0.929 . S
C376 C368 1.378 . S
C376 C371 1.350 . S
C377 H364 0.928 1_655 S
C377 C369 1.433 1_655 S
C377 N379 1.385 . S
N378 C374 1.427 . S
N378 C375 1.384 . S
N379 C371 1.427 . S
N379 C377 1.385 . S
H380 C386 0.930 . S
H381 C390 0.930 . S
H382 C395 0.929 . S
H383 C393 0.929 . S
H384 C388 0.929 . S
H385 C394 0.929 . S
C386 H380 0.930 . S
C386 C387 1.367 . S
C386 C394 1.378 . S
C387 C386 1.367 . S
C387 C395 1.433 . S
C388 H384 0.929 . S
C388 C390 1.378 . S
C388 C392 1.350 . S
C389 C392 1.463 . S
C389 C394 1.350 . S
C389 N397 1.427 . S
C390 H381 0.930 . S
C390 C388 1.378 . S
C390 C391 1.367 . S
C391 C390 1.367 . S
C391 C393 1.433 . S
C392 C388 1.350 . S
C392 C389 1.463 . S
C392 N396 1.427 . S
C393 H383 0.929 . S
C393 C391 1.433 . S
C393 N396 1.384 . S
C394 H385 0.929 . S
C394 C386 1.378 . S
C394 C389 1.350 . S
C395 H382 0.929 . S
C395 C387 1.433 . S
C395 N397 1.384 . S
N396 C392 1.427 . S
N396 C393 1.384 . S
N397 C389 1.427 . S
N397 C395 1.384 . S
H398 C404 0.930 . S
H399 C408 0.930 . S
H400 C413 0.929 . S
H401 C411 0.929 . S
H402 C406 0.929 . S
H403 C412 0.929 . S
C404 H398 0.930 . S
C404 C405 1.367 . S
C404 C412 1.378 . S
C405 C404 1.367 . S
C405 C413 1.433 . S
C406 H402 0.929 . S
C406 C408 1.378 . S
C406 C410 1.350 . S
C407 C410 1.463 . S
C407 C412 1.350 . S
C407 N415 1.427 . S
C408 H399 0.930 . S
C408 C406 1.378 . S
C408 C409 1.367 . S
C409 C408 1.367 . S
C409 C411 1.433 . S
C410 C406 1.350 . S
C410 C407 1.463 . S
C410 N414 1.427 . S
C411 H401 0.929 . S
C411 C409 1.433 . S
C411 N414 1.384 . S
C412 H403 0.929 . S
C412 C404 1.378 . S
C412 C407 1.350 . S
C413 H400 0.929 . S
C413 C405 1.433 . S
C413 N415 1.384 . S
N414 C410 1.427 . S
N414 C411 1.384 . S
N415 C407 1.427 . S
N415 C413 1.384 . S
H416 C422 0.930 . S
H417 C426 0.930 . S
H418 C431 0.929 . S
H419 C429 0.929 . S
H420 C424 0.929 . S
H421 C430 0.929 . S
C422 H416 0.930 . S
C422 C423 1.367 . S
C422 C430 1.378 . S
C423 C422 1.367 . S
C423 C431 1.433 . S
C424 H420 0.929 . S
C424 C426 1.378 . S
C424 C428 1.350 . S
C425 C428 1.463 . S
C425 C430 1.350 . S
C425 N433 1.427 . S
C426 H417 0.930 . S
C426 C424 1.378 . S
C426 C427 1.367 . S
C427 C426 1.367 . S
C427 C429 1.433 . S
C428 C424 1.350 . S
C428 C425 1.463 . S
C428 N432 1.427 . S
C429 H419 0.929 . S
C429 C427 1.433 . S
C429 N432 1.384 . S
C430 H421 0.929 . S
C430 C422 1.378 . S
C430 C425 1.350 . S
C431 H418 0.929 . S
C431 C423 1.433 . S
C431 N433 1.384 . S
N432 C428 1.427 . S
N432 C429 1.384 . S
N433 C425 1.427 . S
N433 C431 1.384 . S
H434 C440 0.930 . S
H435 C444 0.930 . S
H436 C449 0.929 . S
H437 C447 0.929 . S
H438 C442 0.929 . S
H439 C448 0.929 . S
C440 H434 0.930 . S
C440 C441 1.367 . S
C440 C448 1.378 . S
C441 C440 1.367 . S
C441 C449 1.433 . S
C442 H438 0.929 . S
C442 C444 1.378 . S
C442 C446 1.350 . S
C443 C446 1.463 . S
C443 C448 1.350 . S
C443 N451 1.427 . S
C444 H435 0.930 . S
C444 C442 1.378 . S
C444 C445 1.367 . S
C445 C444 1.367 . S
C445 C447 1.433 . S
C446 C442 1.350 . S
C446 C443 1.463 . S
C446 N450 1.427 . S
C447 H437 0.929 . S
C447 C445 1.433 . S
C447 N450 1.384 . S
C448 H439 0.929 . S
C448 C440 1.378 . S
C448 C443 1.350 . S
C449 H436 0.929 . S
C449 C441 1.433 . S
C449 N451 1.384 . S
N450 C446 1.427 . S
N450 C447 1.384 . S
N451 C443 1.427 . S
N451 C449 1.384 . S
H452 C458 0.930 . S
H453 C462 0.930 . S
H454 C467 0.929 . S
H455 C465 0.929 . S
H456 C460 0.929 . S
H457 C466 0.929 . S
C458 H452 0.930 . S
C458 C459 1.367 . S
C458 C466 1.378 . S
C459 C458 1.367 . S
C459 C467 1.433 . S
C460 H456 0.929 . S
C460 C462 1.378 1_565 S
C460 C464 1.350 . S
C461 C464 1.463 . S
C461 C466 1.350 . S
C461 N469 1.427 . S
C462 H453 0.930 . S
C462 C460 1.378 1_545 S
C462 C463 1.367 . S
C463 C462 1.367 . S
C463 C465 1.433 . S
C464 C460 1.350 . S
C464 C461 1.463 . S
C464 N468 1.427 1_565 S
C465 H455 0.929 . S
C465 C463 1.433 . S
C465 N468 1.384 . S
C466 H457 0.929 . S
C466 C458 1.378 . S
C466 C461 1.350 . S
C467 H454 0.929 . S
C467 C459 1.433 . S
C467 N469 1.384 . S
N468 C464 1.427 1_545 S
N468 C465 1.384 . S
N469 C461 1.427 . S
N469 C467 1.384 . S
H470 C476 0.930 . S
H471 C480 0.930 . S
H472 C485 0.929 . S
H473 C483 0.929 . S
H474 C478 0.929 . S
H475 C484 0.929 . S
C476 H470 0.930 . S
C476 C477 1.367 . S
C476 C484 1.378 1_545 S
C477 C476 1.367 . S
C477 C485 1.433 . S
C478 H474 0.929 . S
C478 C480 1.378 . S
C478 C482 1.350 . S
C479 C482 1.463 . S
C479 C484 1.350 . S
C479 N487 1.427 1_565 S
C480 H471 0.930 . S
C480 C478 1.378 . S
C480 C481 1.367 . S
C481 C480 1.367 . S
C481 C483 1.433 . S
C482 C478 1.350 . S
C482 C479 1.463 . S
C482 N486 1.427 . S
C483 H473 0.929 . S
C483 C481 1.433 . S
C483 N486 1.384 . S
C484 H475 0.929 . S
C484 C476 1.378 1_565 S
C484 C479 1.350 . S
C485 H472 0.929 . S
C485 C477 1.433 . S
C485 N487 1.384 . S
N486 C482 1.427 . S
N486 C483 1.384 . S
N487 C479 1.427 1_545 S
N487 C485 1.384 . S
H488 C494 0.930 . S
H489 C498 0.930 . S
H490 C503 0.929 . S
H491 C501 0.929 . S
H492 C496 0.929 . S
H493 C502 0.929 . S
C494 H488 0.930 . S
C494 C495 1.367 . S
C494 C502 1.378 . S
C495 C494 1.367 . S
C495 C503 1.433 . S
C496 H492 0.929 . S
C496 C498 1.378 . S
C496 C500 1.350 . S
C497 C500 1.463 1_545 S
C497 C502 1.350 . S
C497 N505 1.427 . S
C498 H489 0.930 . S
C498 C496 1.378 . S
C498 C499 1.367 . S
C499 C498 1.367 . S
C499 C501 1.433 . S
C500 C496 1.350 . S
C500 C497 1.463 1_565 S
C500 N504 1.427 . S
C501 H491 0.929 . S
C501 C499 1.433 . S
C501 N504 1.384 . S
C502 H493 0.929 . S
C502 C494 1.378 . S
C502 C497 1.350 . S
C503 H490 0.929 . S
C503 C495 1.433 . S
C503 N505 1.384 . S
N504 C500 1.427 . S
N504 C501 1.384 . S
N505 C497 1.427 . S
N505 C503 1.384 . S
H506 C512 0.930 . S
H507 C516 0.930 . S
H508 C521 0.929 . S
H509 C519 0.929 . S
H510 C514 0.929 . S
H511 C520 0.929 1_545 S
C512 H506 0.930 . S
C512 C513 1.367 . S
C512 C520 1.378 . S
C513 C512 1.367 . S
C513 C521 1.433 . S
C514 H510 0.929 . S
C514 C516 1.378 . S
C514 C518 1.350 . S
C515 C518 1.463 . S
C515 C520 1.350 1_545 S
C515 N523 1.427 1_545 S
C516 H507 0.930 . S
C516 C514 1.378 . S
C516 C517 1.367 . S
C517 C516 1.367 . S
C517 C519 1.433 . S
C518 C514 1.350 . S
C518 C515 1.463 . S
C518 N522 1.427 . S
C519 H509 0.929 . S
C519 C517 1.433 . S
C519 N522 1.384 . S
C520 H511 0.929 1_565 S
C520 C512 1.378 . S
C520 C515 1.350 1_565 S
C521 H508 0.929 . S
C521 C513 1.433 . S
C521 N523 1.384 . S
N522 C518 1.427 . S
N522 C519 1.384 . S
N523 C515 1.427 1_565 S
N523 C521 1.384 . S
H524 C530 0.930 . S
H525 C534 0.930 . S
H526 C539 0.929 . S
H527 C537 0.929 . S
H528 C532 0.929 . S
H529 C538 0.929 1_556 S
C530 H524 0.930 . S
C530 C531 1.367 . S
C530 C538 1.378 . S
C531 C530 1.367 . S
C531 C539 1.433 . S
C532 H528 0.929 . S
C532 C534 1.378 . S
C532 C536 1.350 . S
C533 C536 1.463 . S
C533 C538 1.350 1_556 S
C533 N541 1.427 1_556 S
C534 H525 0.930 . S
C534 C532 1.378 . S
C534 C535 1.367 . S
C535 C534 1.367 . S
C535 C537 1.433 . S
C536 C532 1.350 . S
C536 C533 1.463 . S
C536 N540 1.427 . S
C537 H527 0.929 . S
C537 C535 1.433 . S
C537 N540 1.384 . S
C538 H529 0.929 1_554 S
C538 C530 1.378 . S
C538 C533 1.350 1_554 S
C539 H526 0.929 . S
C539 C531 1.433 . S
C539 N541 1.384 . S
N540 C536 1.427 . S
N540 C537 1.384 . S
N541 C533 1.427 1_554 S
N541 C539 1.384 . S
H542 C548 0.930 . S
H543 C552 0.930 . S
H544 C557 0.929 . S
H545 C555 0.929 . S
H546 C550 0.929 . S
H547 C556 0.929 . S
C548 H542 0.930 . S
C548 C549 1.367 . S
C548 C556 1.378 . S
C549 C548 1.367 . S
C549 C557 1.433 . S
C550 H546 0.929 . S
C550 C552 1.378 . S
C550 C554 1.350 . S
C551 C554 1.463 . S
C551 C556 1.350 . S
C551 N559 1.427 . S
C552 H543 0.930 . S
C552 C550 1.378 . S
C552 C553 1.367 . S
C553 C552 1.367 . S
C553 C555 1.433 . S
C554 C550 1.350 . S
C554 C551 1.463 . S
C554 N558 1.427 . S
C555 H545 0.929 . S
C555 C553 1.433 . S
C555 N558 1.384 . S
C556 H547 0.929 . S
C556 C548 1.378 . S
C556 C551 1.350 . S
C557 H544 0.929 . S
C557 C549 1.433 . S
C557 N559 1.384 . S
N558 C554 1.427 . S
N558 C555 1.384 . S
N559 C551 1.427 . S
N559 C557 1.384 . S
H560 C566 0.930 . S
H561 C570 0.930 . S
H562 C575 0.929 . S
H563 C573 0.929 . S
H564 C568 0.929 . S
H565 C574 0.929 . S
C566 H560 0.930 . S
C566 C567 1.367 . S
C566 C574 1.378 . S
C567 C566 1.367 . S
C567 C575 1.433 . S
C568 H564 0.929 . S
C568 C570 1.378 . S
C568 C572 1.350 . S
C569 C572 1.463 . S
C569 C574 1.350 . S
C569 N577 1.427 . S
C570 H561 0.930 . S
C570 C568 1.378 . S
C570 C571 1.367 . S
C571 C570 1.367 . S
C571 C573 1.433 . S
C572 C568 1.350 . S
C572 C569 1.463 . S
C572 N576 1.427 . S
C573 H563 0.929 . S
C573 C571 1.433 . S
C573 N576 1.384 . S
C574 H565 0.929 . S
C574 C566 1.378 . S
C574 C569 1.350 . S
C575 H562 0.929 . S
C575 C567 1.433 . S
C575 N577 1.384 . S
N576 C572 1.427 . S
N576 C573 1.384 . S
N577 C569 1.427 . S
N577 C575 1.384 . S
H578 C584 0.930 . S
H579 C588 0.930 . S
H580 C593 0.929 . S
H581 C591 0.929 . S
H582 C586 0.929 . S
H583 C592 0.929 . S
C584 H578 0.930 . S
C584 C585 1.367 . S
C584 C592 1.378 . S
C585 C584 1.367 . S
C585 C593 1.433 . S
C586 H582 0.929 . S
C586 C588 1.378 . S
C586 C590 1.350 . S
C587 C590 1.463 . S
C587 C592 1.350 . S
C587 N595 1.427 . S
C588 H579 0.930 . S
C588 C586 1.378 . S
C588 C589 1.367 . S
C589 C588 1.367 . S
C589 C591 1.433 . S
C590 C586 1.350 . S
C590 C587 1.463 . S
C590 N594 1.427 . S
C591 H581 0.929 . S
C591 C589 1.433 . S
C591 N594 1.384 . S
C592 H583 0.929 . S
C592 C584 1.378 . S
C592 C587 1.350 . S
C593 H580 0.929 . S
C593 C585 1.433 . S
C593 N595 1.384 . S
N594 C590 1.427 . S
N594 C591 1.384 . S
N595 C587 1.427 . S
N595 C593 1.384 . S
H596 C602 0.930 . S
H597 C606 0.930 . S
H598 C611 0.929 . S
H599 C609 0.929 . S
H600 C604 0.929 . S
H601 C610 0.929 . S
C602 H596 0.930 . S
C602 C603 1.367 . S
C602 C610 1.378 . S
C603 C602 1.367 . S
C603 C611 1.433 . S
C604 H600 0.929 . S
C604 C606 1.378 . S
C604 C608 1.350 . S
C605 C608 1.463 . S
C605 C610 1.350 1_554 S
C605 N613 1.427 1_554 S
C606 H597 0.930 . S
C606 C604 1.378 . S
C606 C607 1.367 . S
C607 C606 1.367 . S
C607 C609 1.433 . S
C608 C604 1.350 . S
C608 C605 1.463 . S
C608 N612 1.427 . S
C609 H599 0.929 . S
C609 C607 1.433 . S
C609 N612 1.384 . S
C610 H601 0.929 . S
C610 C602 1.378 . S
C610 C605 1.350 1_556 S
C611 H598 0.929 . S
C611 C603 1.433 . S
C611 N613 1.384 . S
N612 C608 1.427 . S
N612 C609 1.384 . S
N613 C605 1.427 1_556 S
N613 C611 1.384 . S
H614 C620 0.930 . S
H615 C624 0.930 . S
H616 C629 0.929 . S
H617 C627 0.929 . S
H618 C622 0.929 . S
H619 C628 0.929 . S
C620 H614 0.930 . S
C620 C621 1.367 . S
C620 C628 1.378 . S
C621 C620 1.367 . S
C621 C629 1.433 . S
C622 H618 0.929 . S
C622 C624 1.378 . S
C622 C626 1.350 . S
C623 C626 1.463 . S
C623 C628 1.350 . S
C623 N631 1.427 . S
C624 H615 0.930 . S
C624 C622 1.378 . S
C624 C625 1.367 . S
C625 C624 1.367 . S
C625 C627 1.433 . S
C626 C622 1.350 . S
C626 C623 1.463 . S
C626 N630 1.427 . S
C627 H617 0.929 . S
C627 C625 1.433 . S
C627 N630 1.384 . S
C628 H619 0.929 . S
C628 C620 1.378 . S
C628 C623 1.350 . S
C629 H616 0.929 . S
C629 C621 1.433 . S
C629 N631 1.384 . S
N630 C626 1.427 . S
N630 C627 1.384 . S
N631 C623 1.427 . S
N631 C629 1.384 . S
H632 C638 0.930 . S
H633 C642 0.930 . S
H634 C647 0.929 . S
H635 C645 0.929 . S
H636 C640 0.929 . S
H637 C646 0.929 . S
C638 H632 0.930 . S
C638 C639 1.367 . S
C638 C646 1.378 . S
C639 C638 1.367 . S
C639 C647 1.433 . S
C640 H636 0.929 . S
C640 C642 1.378 . S
C640 C644 1.350 . S
C641 C644 1.463 . S
C641 C646 1.350 . S
C641 N649 1.427 . S
C642 H633 0.930 . S
C642 C640 1.378 . S
C642 C643 1.367 . S
C643 C642 1.367 . S
C643 C645 1.433 . S
C644 C640 1.350 . S
C644 C641 1.463 . S
C644 N648 1.427 . S
C645 H635 0.929 . S
C645 C643 1.433 . S
C645 N648 1.384 . S
C646 H637 0.929 . S
C646 C638 1.378 . S
C646 C641 1.350 . S
C647 H634 0.929 . S
C647 C639 1.433 . S
C647 N649 1.384 . S
N648 C644 1.427 . S
N648 C645 1.384 . S
N649 C641 1.427 . S
N649 C647 1.384 . S
H650 C656 0.930 . S
H651 C660 0.930 . S
H652 C665 0.929 . S
H653 C663 0.929 . S
H654 C658 0.929 . S
H655 C664 0.929 . S
C656 H650 0.930 . S
C656 C657 1.367 . S
C656 C664 1.378 . S
C657 C656 1.367 . S
C657 C665 1.433 . S
C658 H654 0.929 . S
C658 C660 1.378 . S
C658 C662 1.350 . S
C659 C662 1.463 . S
C659 C664 1.350 . S
C659 N667 1.427 . S
C660 H651 0.930 . S
C660 C658 1.378 . S
C660 C661 1.367 . S
C661 C660 1.367 . S
C661 C663 1.433 . S
C662 C658 1.350 . S
C662 C659 1.463 . S
C662 N666 1.427 . S
C663 H653 0.929 . S
C663 C661 1.433 . S
C663 N666 1.384 . S
C664 H655 0.929 . S
C664 C656 1.378 . S
C664 C659 1.350 . S
C665 H652 0.929 . S
C665 C657 1.433 . S
C665 N667 1.384 . S
N666 C662 1.427 . S
N666 C663 1.384 . S
N667 C659 1.427 . S
N667 C665 1.384 . S
C247 C159 1.446 . S
C243 C6 1.580 . S
C265 C177 1.380 . S
C261 C30 1.426 . S
C279 C49 1.338 . S
C283 C201 1.307 . S
C301 C231 1.293 . S
C297 C63 1.431 . S
C319 C219 1.254 . S
C315 C82 1.353 . S
C333 C106 1.434 . S
C337 C172 1.413 . S
C351 C125 1.616 . S
C355 C192 1.537 . S
C369 C139 1.432 . S
C373 C197 1.321 . S
C387 C144 1.432 . S
C391 C213 1.394 . S
C405 C101 1.440 . S
C409 C168 1.302 . S
C427 C235 1.397 . S
C423 C68 1.438 . S
C445 C180 1.275 . S
C441 C25 1.429 . S
C459 C44 1.577 . S
C463 C198 1.443 . S
C477 C11 1.361 . S
C481 C156 1.324 . S
C499 C176 1.256 . S
C495 C120 1.340 . S
C517 C222 1.511 . S
C513 C87 1.630 . S
C535 C218 1.426 . S
C531 C2 1.560 . S
C553 C171 1.543 . S
C549 C21 1.569 . S
C567 C40 1.544 . S
C571 C193 1.419 . S
C585 C59 1.584 . S
C589 C214 1.557 . S
C607 C155 1.378 . S
C603 C78 1.639 . S
C621 C97 1.538 . S
C625 C189 1.497 . S
C643 C210 1.397 . S
C639 C116 1.656 . S
C661 C234 1.471 . S
C657 C135 1.513 . S
