# Generated by pormake.
# Topology tsx, (6,3)-cn, num edge types: 1
# Building blocks:
#     Node 0, Type 0, BuildingBlock: MIDCAF_clean_sbu_0, # of connection points: 6
#     Node 1, Type 0, BuildingBlock: MIDCAF_clean_sbu_0, # of connection points: 6
#     Node 2, Type 1, BuildingBlock: INOVEN_clean_linker_0, # of connection points: 3
#     Node 3, Type 1, BuildingBlock: INOVEN_clean_linker_0, # of connection points: 3
#     Node 4, Type 1, BuildingBlock: INOVEN_clean_linker_0, # of connection points: 3
#     Node 5, Type 1, BuildingBlock: INOVEN_clean_linker_0, # of connection points: 3
#     Edge 6, Type (0, 1), BuildingBlock: FUNLAD_clean_linker_1, # of connection points: 2
#     Edge 7, Type (0, 1), BuildingBlock: FUNLAD_clean_linker_1, # of connection points: 2
#     Edge 8, Type (0, 1), BuildingBlock: FUNLAD_clean_linker_1, # of connection points: 2
#     Edge 9, Type (0, 1), BuildingBlock: FUNLAD_clean_linker_1, # of connection points: 2
#     Edge 10, Type (0, 1), BuildingBlock: FUNLAD_clean_linker_1, # of connection points: 2
#     Edge 11, Type (0, 1), BuildingBlock: FUNLAD_clean_linker_1, # of connection points: 2
#     Edge 12, Type (0, 1), BuildingBlock: FUNLAD_clean_linker_1, # of connection points: 2
#     Edge 13, Type (0, 1), BuildingBlock: FUNLAD_clean_linker_1, # of connection points: 2
#     Edge 14, Type (0, 1), BuildingBlock: FUNLAD_clean_linker_1, # of connection points: 2
#     Edge 15, Type (0, 1), BuildingBlock: FUNLAD_clean_linker_1, # of connection points: 2
#     Edge 16, Type (0, 1), BuildingBlock: FUNLAD_clean_linker_1, # of connection points: 2
#     Edge 17, Type (0, 1), BuildingBlock: FUNLAD_clean_linker_1, # of connection points: 2
# Relax obj value: 0.076
# Max RMSD: 0.148
# Mean RMSD: 0.105
data_MOF--net-tsx--node1-MIDCAF_clean_sbu_0--node2-INOVEN_clean_linker_0--edge1-FUNLAD_clean_linker_1
_symmetry_space_group_name_H-M    P1
_symmetry_Int_Tables_number       1
_symmetry_cell_setting            triclinic
loop_
_symmetry_equiv_pos_as_xyz
'x, y, z'
_cell_length_a     21.017027
_cell_length_b     21.619931
_cell_length_c     36.839218
_cell_angle_alpha  90.291812
_cell_angle_beta   102.98196
_cell_angle_gamma 90.010745
loop_
_atom_site_label
_atom_site_type_symbol
_atom_site_fract_x
_atom_site_fract_y
_atom_site_fract_z
_atom_type_partial_charge
Zn0 Zn 0.94589 0.99699 0.96508 0.0
Zn1 Zn 0.16622 0.01448 0.06698 0.0
Zn2 Zn 0.05539 0.00643 0.0147 0.0
C3 C 0.1207 0.13452 0.05164 0.0
C4 C 0.1972 0.95789 0.00536 0.0
O5 O 0.98634 0.94508 0.03563 0.0
O6 O 0.90606 0.92766 0.98647 0.0
C7 C 0.95794 0.11996 0.98793 0.0
O8 O 0.07709 0.10529 0.02746 0.0
O9 O 0.16393 0.10536 0.07444 0.0
O10 O 0.22494 0.98048 0.03653 0.0
O11 O 0.13493 0.96282 0.99311 0.0
O12 O 0.91494 0.08227 0.97149 0.0
O13 O 0.01536 0.10051 0.00359 0.0
O14 O 0.08011 0.97032 0.96363 0.0
O15 O 0.98658 0.98102 0.92249 0.0
C16 C 0.0468 0.96853 0.92977 0.0
O17 O 0.04128 0.95705 0.06461 0.0
O18 O 0.13841 0.95976 0.10356 0.0
C19 C 0.93308 0.91683 0.02001 0.0
C20 C 0.07929 0.94333 0.09614 0.0
Zn21 Zn 0.69906 0.54182 0.54537 0.0
Zn22 Zn 0.45999 0.5168 0.465 0.0
Zn23 Zn 0.57695 0.53391 0.50773 0.0
C24 C 0.54721 0.48333 0.42245 0.0
C25 C 0.47302 0.64357 0.48438 0.0
O26 O 0.57855 0.49321 0.56251 0.0
O27 O 0.68033 0.51173 0.59284 0.0
C28 C 0.70459 0.4628 0.48856 0.0
O29 O 0.58673 0.49292 0.45416 0.0
O30 O 0.48671 0.49209 0.41881 0.0
O31 O 0.43143 0.60326 0.46975 0.0
O32 O 0.53256 0.62751 0.49824 0.0
O33 O 0.74234 0.48347 0.51764 0.0
O34 O 0.64424 0.48002 0.48008 0.0
O35 O 0.59953 0.63411 0.5146 0.0
O36 O 0.7063 0.63191 0.53719 0.0
C37 C 0.6547 0.66236 0.52485 0.0
O38 O 0.52018 0.47492 0.53814 0.0
O39 O 0.43051 0.45284 0.49567 0.0
C40 C 0.6238 0.49172 0.59256 0.0
C41 C 0.46565 0.44554 0.52799 0.0
H42 H 0.09696 0.00371 0.45494 0.0
H43 H 0.08632 0.87659 0.36328 0.0
H44 H 0.95636 0.03222 0.35196 0.0
N45 N 1.00045 0.0777 0.42019 0.0
N46 N 0.98238 0.12332 0.39985 0.0
C47 C 0.07518 0.98923 0.42668 0.0
C48 C 0.09848 0.9363 0.41134 0.0
C49 C 0.02384 0.0239 0.40522 0.0
C50 C 0.99559 0.00513 0.36862 0.0
C51 C 0.01822 0.95273 0.35304 0.0
C52 C 0.06883 0.91773 0.37485 0.0
H53 H 1.00002 0.0583 0.54959 0.0
H54 H 0.93661 0.97778 0.64202 0.0
H55 H 0.11596 0.08072 0.66123 0.0
N56 N 0.1069 0.11188 0.58924 0.0
N57 N 0.15828 0.13255 0.60948 0.0
C58 C 0.00736 0.05025 0.57927 0.0
C59 C 0.96108 0.01626 0.59303 0.0
C60 C 0.06288 0.07453 0.60376 0.0
C61 C 0.07333 0.0621 0.64218 0.0
C62 C 0.02797 0.02685 0.65603 0.0
C63 C 0.97137 0.00557 0.63142 0.0
H64 H 0.60987 0.50946 0.96838 0.0
H65 H 0.66215 0.4535 0.86685 0.0
H66 H 0.4965 0.57159 0.86275 0.0
N67 N 0.51 0.58098 0.93663 0.0
N68 N 0.48001 0.62699 0.92128 0.0
C69 C 0.60112 0.51033 0.93824 0.0
C70 C 0.64295 0.47842 0.91989 0.0
C71 C 0.54953 0.54557 0.9178 0.0
C72 C 0.53735 0.54555 0.87867 0.0
C73 C 0.57638 0.51119 0.85982 0.0
C74 C 0.63022 0.47893 0.88074 0.0
H75 H 0.44476 0.5275 0.03556 0.0
H76 H 0.40499 0.43743 0.1325 0.0
H77 H 0.57212 0.55452 0.14333 0.0
N78 N 0.55252 0.58436 0.07075 0.0
N79 N 0.60207 0.61016 0.08975 0.0
C80 C 0.45691 0.5182 0.06521 0.0
C81 C 0.41616 0.48005 0.08094 0.0
C82 C 0.51335 0.5448 0.08744 0.0
C83 C 0.52966 0.53266 0.1259 0.0
C84 C 0.49015 0.49409 0.14204 0.0
C85 C 0.43378 0.4681 0.11951 0.0
H86 H 0.15135 0.22442 0.07674 0.0
C87 C 0.12689 0.20207 0.05081 0.0
H88 H 0.10491 0.20871 0.99221 0.0
H89 H 0.2082 0.48501 0.06862 0.0
H90 H 0.09438 0.50121 0.07056 0.0
H91 H 0.01192 0.4198 0.04894 0.0
H92 H 0.04286 0.32167 0.02494 0.0
C93 C 0.1232 0.23225 0.01864 0.0
C94 C 0.16491 0.28797 0.01945 0.0
C95 C 0.14627 0.34482 0.03288 0.0
C96 C 0.19403 0.39128 0.04561 0.0
C97 C 0.174 0.44774 0.05914 0.0
C98 C 0.10887 0.45767 0.06024 0.0
C99 C 0.06241 0.41183 0.04807 0.0
C100 C 0.08069 0.35582 0.03456 0.0
H101 H 0.35602 0.44901 0.02633 0.0
C102 C 0.3583 0.45006 0.05611 0.0
H103 H 0.30891 0.42496 0.09792 0.0
H104 H 0.21162 0.19044 0.98601 0.0
H105 H 0.32439 0.17266 0.98322 0.0
H106 H 0.41016 0.2479 0.01063 0.0
H107 H 0.38396 0.34113 0.04002 0.0
C108 C 0.3116 0.42028 0.06901 0.0
C109 C 0.26063 0.38007 0.04559 0.0
C110 C 0.2781 0.32491 0.02888 0.0
C111 C 0.22935 0.27994 0.0146 0.0
C112 C 0.24718 0.22539 0.9979 0.0
C113 C 0.31164 0.21462 0.99607 0.0
C114 C 0.35983 0.25708 0.01139 0.0
C115 C 0.34373 0.31122 0.02792 0.0
H116 H 0.28768 0.93725 0.98754 0.0
C117 C 0.23738 0.92244 0.98489 0.0
H118 H 0.16948 0.84983 0.96901 0.0
H119 H 0.32837 0.71712 0.86312 0.0
H120 H 0.22824 0.74431 0.8194 0.0
H121 H 0.14476 0.80782 0.83911 0.0
H122 H 0.16037 0.84419 0.90289 0.0
C123 C 0.21893 0.8663 0.97066 0.0
C124 C 0.26708 0.82374 0.95952 0.0
C125 C 0.25706 0.80284 0.92218 0.0
C126 C 0.30581 0.76687 0.91075 0.0
C127 C 0.29388 0.74573 0.87332 0.0
C128 C 0.23639 0.76074 0.84788 0.0
C129 C 0.18931 0.79654 0.85899 0.0
C130 C 0.1991 0.81733 0.89566 0.0
H131 H 0.42152 0.643 0.96211 0.0
C132 C 0.43754 0.66156 0.93825 0.0
H133 H 0.43215 0.7327 0.89941 0.0
H134 H 0.29403 0.84094 0.03539 0.0
H135 H 0.39574 0.8174 0.07897 0.0
H136 H 0.48671 0.76835 0.05745 0.0
H137 H 0.47579 0.74103 0.99257 0.0
C138 C 0.41591 0.7163 0.92369 0.0
C139 C 0.36487 0.75245 0.93662 0.0
C140 C 0.37458 0.77279 0.97416 0.0
C141 C 0.32425 0.80575 0.98597 0.0
C142 C 0.33237 0.81978 0.02437 0.0
C143 C 0.39029 0.80592 0.04979 0.0
C144 C 0.44136 0.77802 0.03772 0.0
C145 C 0.43404 0.76183 0.00037 0.0
H146 H 0.92105 0.86825 0.07097 0.0
C147 C 0.90218 0.87258 0.0412 0.0
H148 H 0.83045 0.84341 0.99449 0.0
H149 H 0.80068 0.62223 0.11351 0.0
H150 H 0.91363 0.59631 0.11555 0.0
H151 H 0.98113 0.6624 0.08473 0.0
H152 H 0.93623 0.75475 0.05182 0.0
C153 C 0.85018 0.83868 0.02426 0.0
C154 C 0.81211 0.80016 0.04516 0.0
C155 C 0.83935 0.74607 0.06415 0.0
C156 C 0.80011 0.70742 0.08145 0.0
C157 C 0.82821 0.65334 0.09995 0.0
C158 C 0.89297 0.63777 0.10124 0.0
C159 C 0.93099 0.67502 0.08393 0.0
C160 C 0.90466 0.7283 0.06534 0.0
H161 H 0.62824 0.65761 0.04333 0.0
C162 C 0.64073 0.64999 0.07327 0.0
H163 H 0.70435 0.67012 0.12463 0.0
H164 H 0.74594 0.9025 0.01292 0.0
H165 H 0.63371 0.92933 0.01204 0.0
H166 H 0.56654 0.86334 0.04312 0.0
H167 H 0.61118 0.76998 0.07503 0.0
C168 C 0.69167 0.67933 0.0949 0.0
C169 C 0.73356 0.72229 0.07907 0.0
C170 C 0.70714 0.77767 0.06138 0.0
C171 C 0.74625 0.81625 0.04406 0.0
C172 C 0.71841 0.87107 0.02629 0.0
C173 C 0.65408 0.88729 0.02574 0.0
C174 C 0.61624 0.85011 0.04319 0.0
C175 C 0.64233 0.79621 0.06108 0.0
H176 H 0.98216 0.22001 0.99381 0.0
C177 C 0.94261 0.18663 0.9872 0.0
H178 H 0.84129 0.17244 0.96857 0.0
H179 H 0.80399 0.46364 0.00208 0.0
H180 H 0.85069 0.44211 0.06743 0.0
H181 H 0.90302 0.34162 0.08658 0.0
H182 H 0.90954 0.26226 0.04057 0.0
C183 C 0.88069 0.20601 0.97579 0.0
C184 C 0.86341 0.27093 0.9652 0.0
C185 C 0.85991 0.31633 0.99251 0.0
C186 C 0.82852 0.37373 0.98154 0.0
C187 C 0.82596 0.41875 0.00916 0.0
C188 C 0.85283 0.40707 0.04664 0.0
C189 C 0.88237 0.35049 0.05742 0.0
C190 C 0.88579 0.30534 0.03078 0.0
H191 H 0.68709 0.41036 0.96276 0.0
C192 C 0.6972 0.44064 0.94125 0.0
H193 H 0.76568 0.4693 0.91092 0.0
H194 H 0.8743 0.19826 0.90592 0.0
H195 H 0.83339 0.2218 0.8405 0.0
H196 H 0.77713 0.32043 0.82132 0.0
H197 H 0.76182 0.39594 0.86719 0.0
C198 C 0.75549 0.43808 0.93194 0.0
C199 C 0.80015 0.38485 0.94345 0.0
C200 C 0.80987 0.34194 0.91593 0.0
C201 C 0.84153 0.28486 0.92691 0.0
C202 C 0.84965 0.24202 0.89904 0.0
C203 C 0.82667 0.25502 0.8614 0.0
C204 C 0.79507 0.31055 0.85061 0.0
C205 C 0.78653 0.35358 0.87738 0.0
H206 H 0.61499 0.75811 0.52274 0.0
C207 C 0.65884 0.73069 0.52435 0.0
H208 H 0.76097 0.73081 0.52958 0.0
H209 H 0.81828 0.00416 0.50046 0.0
H210 H 0.79461 0.9706 0.43564 0.0
H211 H 0.741 0.87012 0.41698 0.0
H212 H 0.70974 0.80297 0.46299 0.0
C213 C 0.71758 0.7584 0.52912 0.0
C214 C 0.72942 0.82528 0.53746 0.0
C215 C 0.74728 0.86388 0.51048 0.0
C216 C 0.77965 0.92104 0.5214 0.0
C217 C 0.79568 0.95932 0.49372 0.0
C218 C 0.78188 0.94081 0.45647 0.0
C219 C 0.75163 0.88425 0.44595 0.0
C220 C 0.73431 0.84605 0.47255 0.0
H221 H 0.91741 0.95233 0.54758 0.0
C222 C 0.90578 0.98522 0.56752 0.0
H223 H 0.83456 0.02228 0.59297 0.0
H224 H 0.6908 0.76731 0.59486 0.0
H225 H 0.7098 0.80237 0.65889 0.0
H226 H 0.76806 0.9002 0.67845 0.0
H227 H 0.80739 0.96331 0.63434 0.0
C228 C 0.84473 0.98847 0.57314 0.0
C229 C 0.79599 0.9384 0.55956 0.0
C230 C 0.77127 0.90313 0.58586 0.0
C231 C 0.73785 0.84648 0.5747 0.0
C232 C 0.71633 0.81066 0.60174 0.0
C233 C 0.72688 0.83026 0.63866 0.0
C234 C 0.75964 0.88532 0.64966 0.0
C235 C 0.78197 0.9213 0.62382 0.0
H236 H 0.69212 0.38678 0.44703 0.0
C237 C 0.72794 0.41323 0.46699 0.0
H238 H 0.82625 0.4218 0.49571 0.0
H239 H 0.92465 0.15275 0.50064 0.0
H240 H 0.92492 0.17283 0.56537 0.0
H241 H 0.87304 0.26659 0.58385 0.0
H242 H 0.8212 0.34112 0.53775 0.0
C243 C 0.79111 0.39587 0.47505 0.0
C244 C 0.81401 0.33586 0.46247 0.0
C245 C 0.84264 0.29169 0.48974 0.0
C246 C 0.87107 0.23679 0.47902 0.0
C247 C 0.90131 0.19472 0.50704 0.0
C248 C 0.90194 0.20567 0.5444 0.0
C249 C 0.87284 0.2585 0.5548 0.0
C250 C 0.84352 0.30112 0.52798 0.0
H251 H 0.96509 0.22119 0.40335 0.0
C252 C 0.95288 0.17584 0.41238 0.0
H253 H 0.89053 0.12446 0.43825 0.0
H254 H 0.76547 0.41126 0.4029 0.0
H255 H 0.755 0.38601 0.33773 0.0
H256 H 0.79223 0.28517 0.31876 0.0
H257 H 0.84262 0.21002 0.36505 0.0
C258 C 0.90424 0.1701 0.43037 0.0
C259 C 0.86959 0.2253 0.44094 0.0
C260 C 0.83627 0.26704 0.4134 0.0
C261 C 0.81056 0.32342 0.42423 0.0
C262 C 0.78283 0.36649 0.39629 0.0
C263 C 0.77688 0.35274 0.35871 0.0
C264 C 0.79818 0.29611 0.34804 0.0
C265 C 0.82756 0.25361 0.37492 0.0
H266 H 0.47826 0.38964 0.57931 0.0
C267 C 0.44461 0.40136 0.55341 0.0
H268 H 0.35257 0.38443 0.51764 0.0
H269 H 0.30146 0.12001 0.57052 0.0
H270 H 0.34407 0.09357 0.51643 0.0
H271 H 0.39642 0.17284 0.48492 0.0
H272 H 0.40704 0.27884 0.50757 0.0
C273 C 0.38551 0.37423 0.54417 0.0
C274 C 0.36407 0.32531 0.56697 0.0
C275 C 0.35783 0.26373 0.55326 0.0
C276 C 0.32639 0.21839 0.5709 0.0
C277 C 0.32267 0.1568 0.5573 0.0
C278 C 0.3475 0.14087 0.5265 0.0
C279 C 0.37705 0.18547 0.50879 0.0
C280 C 0.38252 0.24619 0.52196 0.0
H281 H 0.18635 0.185 0.56548 0.0
C282 C 0.20039 0.17107 0.59452 0.0
H283 H 0.2694 0.17832 0.64538 0.0
H284 H 0.37318 0.43788 0.60225 0.0
H285 H 0.33618 0.46279 0.65834 0.0
H286 H 0.28253 0.38391 0.68937 0.0
H287 H 0.26499 0.27984 0.66429 0.0
C288 C 0.25672 0.19126 0.61618 0.0
C289 C 0.29972 0.23517 0.60168 0.0
C290 C 0.31101 0.29541 0.61733 0.0
C291 C 0.34267 0.34078 0.5997 0.0
C292 C 0.35027 0.40143 0.61476 0.0
C293 C 0.32913 0.41641 0.64692 0.0
C294 C 0.29896 0.37198 0.66441 0.0
C295 C 0.28934 0.3123 0.64974 0.0
H296 H 0.48549 0.74323 0.50059 0.0
C297 C 0.45105 0.70844 0.48675 0.0
H298 H 0.35335 0.68764 0.46056 0.0
H299 H 0.18198 0.87661 0.51296 0.0
H300 H 0.17862 0.79629 0.5586 0.0
H301 H 0.25815 0.71058 0.56787 0.0
H302 H 0.34165 0.70468 0.53164 0.0
C303 C 0.38784 0.72329 0.47322 0.0
C304 C 0.35815 0.78464 0.47747 0.0
C305 C 0.31089 0.78842 0.49944 0.0
C306 C 0.26497 0.83763 0.49406 0.0
C307 C 0.21739 0.83957 0.51577 0.0
C308 C 0.21518 0.79403 0.5421 0.0
C309 C 0.25998 0.74576 0.54732 0.0
C310 C 0.30735 0.74271 0.52628 0.0
H311 H 0.15283 0.84955 0.42629 0.0
C312 C 0.15382 0.89898 0.43216 0.0
H313 H 0.21366 0.97336 0.45721 0.0
H314 H 0.44956 0.79716 0.43559 0.0
H315 H 0.45733 0.88125 0.39333 0.0
H316 H 0.37868 0.9676 0.3848 0.0
H317 H 0.29141 0.9702 0.41836 0.0
C318 C 0.20859 0.92361 0.45338 0.0
C319 C 0.26643 0.883 0.46672 0.0
C320 C 0.31882 0.88367 0.44827 0.0
C321 C 0.36457 0.83407 0.45343 0.0
C322 C 0.41396 0.83389 0.43293 0.0
C323 C 0.41893 0.88188 0.4086 0.0
C324 C 0.37462 0.93052 0.40379 0.0
C325 C 0.3248 0.93147 0.42317 0.0
H326 H 0.08985 0.89332 0.14855 0.0
C327 C 0.05415 0.91489 0.12621 0.0
H328 H 0.96108 0.95599 0.11148 0.0
H329 H 1.00176 0.8026 0.27472 0.0
H330 H 0.9833 0.70894 0.23686 0.0
H331 H 0.96466 0.71425 0.16837 0.0
H332 H 0.96439 0.81343 0.13721 0.0
C333 C 0.9952 0.92939 0.13206 0.0
C334 C 0.98559 0.92646 0.17074 0.0
C335 C 0.98425 0.86867 0.18838 0.0
C336 C 0.99465 0.86577 0.2278 0.0
C337 C 0.99432 0.80729 0.24482 0.0
C338 C 0.98364 0.75331 0.22342 0.0
C339 C 0.97317 0.75628 0.18483 0.0
C340 C 0.97349 0.81323 0.16733 0.0
H341 H 0.94235 0.95655 0.30061 0.0
C342 C 0.99076 0.93892 0.31312 0.0
H343 H 0.07721 0.90123 0.30173 0.0
H344 H 0.97806 0.04535 0.1446 0.0
H345 H 0.99423 0.13914 0.18172 0.0
H346 H 0.01825 0.13451 0.25032 0.0
H347 H 0.02548 0.03652 0.28203 0.0
C348 C 0.02771 0.91706 0.29056 0.0
C349 C 0.00599 0.9208 0.24936 0.0
C350 C 1.00247 0.97915 0.23139 0.0
C351 C 0.99062 0.98188 0.1919 0.0
C352 C 0.98762 0.04049 0.17452 0.0
C353 C 0.99678 0.0948 0.1955 0.0
C354 C 0.01013 0.09219 0.23409 0.0
C355 C 0.01352 0.03529 0.25197 0.0
H356 H 0.13234 0.95256 0.90487 0.0
C357 C 0.07978 0.95912 0.89876 0.0
H358 H 0.99361 0.97202 0.85724 0.0
H359 H 0.16857 0.09135 0.75355 0.0
H360 H 0.20534 0.16718 0.80265 0.0
H361 H 0.18319 0.15275 0.86505 0.0
H362 H 0.12474 0.06265 0.87882 0.0
C363 C 0.0463 0.96615 0.86336 0.0
C364 C 0.07662 0.96726 0.83068 0.0
C365 C 0.11229 0.01994 0.82358 0.0
C366 C 0.12432 0.02884 0.78745 0.0
C367 C 0.15806 0.08259 0.78049 0.0
C368 C 0.17942 0.12642 0.80841 0.0
C369 C 0.167 0.11825 0.84354 0.0
C370 C 0.13348 0.066 0.85113 0.0
H371 H 0.9936 0.0033 0.70653 0.0
C372 C 0.03729 0.01158 0.69603 0.0
H373 H 0.14088 0.00955 0.70974 0.0
H374 H 0.01613 0.85727 0.83696 0.0
H375 H 0.98529 0.77883 0.78866 0.0
H376 H 0.00948 0.79309 0.72669 0.0
H377 H 0.06358 0.88645 0.71246 0.0
C378 C 0.09598 0.00302 0.71915 0.0
C379 C 0.09973 0.98578 0.75864 0.0
C380 C 0.07105 0.92985 0.76701 0.0
C381 C 0.05848 0.92107 0.8029 0.0
C382 C 0.02658 0.86624 0.81001 0.0
C383 C 0.00905 0.82075 0.78264 0.0
C384 C 0.02267 0.82878 0.74776 0.0
C385 C 0.05332 0.88262 0.73987 0.0
H386 H 0.65329 0.46061 0.65024 0.0
C387 C 0.61088 0.47136 0.62819 0.0
H388 H 0.51 0.4929 0.61642 0.0
H389 H 0.51632 0.37243 0.77945 0.0
H390 H 0.46351 0.28763 0.74059 0.0
H391 H 0.45202 0.28939 0.67244 0.0
H392 H 0.49213 0.37672 0.64277 0.0
C393 C 0.55284 0.47864 0.63709 0.0
C394 C 0.55082 0.48044 0.67716 0.0
C395 C 0.52857 0.42876 0.69416 0.0
C396 C 0.53692 0.42712 0.73353 0.0
C397 C 0.51253 0.37554 0.74974 0.0
C398 C 0.48199 0.32663 0.72775 0.0
C399 C 0.47547 0.32762 0.68938 0.0
C400 C 0.49863 0.37792 0.67267 0.0
H401 H 0.52808 0.54828 0.8046 0.0
C402 C 0.56048 0.51207 0.81841 0.0
H403 H 0.61234 0.43151 0.8094 0.0
H404 H 0.58645 0.59163 0.65251 0.0
H405 H 0.64288 0.67529 0.69079 0.0
H406 H 0.67059 0.66714 0.75932 0.0
H407 H 0.64048 0.57662 0.78985 0.0
C408 C 0.58411 0.47119 0.79714 0.0
C409 C 0.56957 0.47634 0.75583 0.0
C410 C 0.59082 0.52874 0.73861 0.0
C411 C 0.57876 0.53179 0.69916 0.0
C412 C 0.59691 0.58596 0.68244 0.0
C413 C 0.62904 0.63442 0.70406 0.0
C414 C 0.64435 0.62994 0.74261 0.0
C415 C 0.62595 0.57778 0.75982 0.0
H416 H 0.62557 0.4729 0.39147 0.0
C417 C 0.57323 0.46953 0.38926 0.0
H418 H 0.48014 0.46105 0.35335 0.0
H419 H 0.54152 0.60065 0.219 0.0
H420 H 0.50343 0.68702 0.25083 0.0
H421 H 0.48865 0.67591 0.31507 0.0
H422 H 0.51215 0.5786 0.34789 0.0
C423 C 0.53262 0.46235 0.35573 0.0
C424 C 0.5544 0.47174 0.32061 0.0
C425 C 0.54095 0.52913 0.30205 0.0
C426 C 0.54884 0.53541 0.26502 0.0
C427 C 0.53513 0.59318 0.24699 0.0
C428 C 0.5136 0.64317 0.265 0.0
C429 C 0.50532 0.63693 0.30116 0.0
C430 C 0.51877 0.58072 0.31963 0.0
H431 H 0.46161 0.47447 0.19489 0.0
C432 C 0.50336 0.48383 0.18281 0.0
H433 H 0.60675 0.49249 0.19493 0.0
H434 H 0.59353 0.35891 0.35055 0.0
H435 H 0.63704 0.27429 0.31969 0.0
H436 H 0.65081 0.28532 0.25523 0.0
H437 H 0.62065 0.381 0.22103 0.0
C438 C 0.56304 0.48664 0.20561 0.0
C439 C 0.56919 0.48403 0.24652 0.0
C440 C 0.58858 0.42862 0.26624 0.0
C441 C 0.58097 0.42235 0.30346 0.0
C442 C 0.59844 0.36587 0.32224 0.0
C443 C 0.62341 0.31708 0.30485 0.0
C444 C 0.63121 0.32332 0.26854 0.0
C445 C 0.61376 0.37829 0.24923 0.0
loop_
_geom_bond_atom_site_label_1
_geom_bond_atom_site_label_2
_geom_bond_distance
_geom_bond_site_symmetry_2
_ccdc_geom_bond_type
Zn0 O6 1.920 1_545 S
Zn0 O12 1.898 . S
Zn0 O15 1.905 1_545 S
Zn1 O9 1.905 . S
Zn1 O10 1.898 1_545 S
Zn1 O18 1.920 1_545 S
Zn2 O5 2.080 1_445 S
Zn2 O8 2.114 . S
Zn2 O11 2.120 1_545 S
Zn2 O13 2.120 1_455 S
Zn2 O14 2.114 1_554 S
Zn2 O17 2.080 . S
C3 O8 1.166 . S
C3 O9 1.182 . S
C4 O10 1.167 . S
C4 O11 1.299 . S
O5 Zn2 2.080 1_665 S
O5 C19 1.305 . S
O6 Zn0 1.920 1_565 S
O6 C19 1.234 1_556 S
C7 O12 1.167 . S
C7 O13 1.299 1_556 S
O8 Zn2 2.114 . S
O8 C3 1.166 . S
O9 Zn1 1.905 . S
O9 C3 1.182 . S
O10 Zn1 1.898 1_565 S
O10 C4 1.167 . S
O11 Zn2 2.120 1_565 S
O11 C4 1.299 . S
O12 Zn0 1.898 . S
O12 C7 1.167 . S
O13 Zn2 2.120 1_655 S
O13 C7 1.299 1_554 S
O14 Zn2 2.114 1_556 S
O14 C16 1.170 1_545 S
O15 Zn0 1.905 1_565 S
O15 C16 1.175 1_655 S
C16 O14 1.170 1_565 S
C16 O15 1.175 1_455 S
O17 Zn2 2.080 . S
O17 C20 1.305 1_545 S
O18 Zn1 1.920 1_565 S
O18 C20 1.234 . S
C19 O5 1.305 . S
C19 O6 1.234 1_554 S
C20 O17 1.305 1_565 S
C20 O18 1.234 . S
Zn21 O27 1.920 . S
Zn21 O33 1.898 . S
Zn21 O36 1.905 . S
Zn22 O30 1.905 . S
Zn22 O31 1.898 . S
Zn22 O39 1.920 . S
Zn23 O26 2.080 . S
Zn23 O29 2.114 . S
Zn23 O32 2.120 . S
Zn23 O34 2.120 . S
Zn23 O35 2.114 . S
Zn23 O38 2.080 . S
C24 O29 1.166 . S
C24 O30 1.182 . S
C25 O31 1.167 . S
C25 O32 1.299 . S
O26 Zn23 2.080 . S
O26 C40 1.305 . S
O27 Zn21 1.920 . S
O27 C40 1.234 . S
C28 O33 1.167 . S
C28 O34 1.299 . S
O29 Zn23 2.114 . S
O29 C24 1.166 . S
O30 Zn22 1.905 . S
O30 C24 1.182 . S
O31 Zn22 1.898 . S
O31 C25 1.167 . S
O32 Zn23 2.120 . S
O32 C25 1.299 . S
O33 Zn21 1.898 . S
O33 C28 1.167 . S
O34 Zn23 2.120 . S
O34 C28 1.299 . S
O35 Zn23 2.114 . S
O35 C37 1.166 . S
O36 Zn21 1.905 . S
O36 C37 1.182 . S
C37 O35 1.166 . S
C37 O36 1.182 . S
O38 Zn23 2.080 . S
O38 C41 1.305 . S
O39 Zn22 1.920 . S
O39 C41 1.234 . S
C40 O26 1.305 . S
C40 O27 1.234 . S
C41 O38 1.305 . S
C41 O39 1.234 . S
H42 C47 0.929 1_565 S
H43 C52 0.931 . S
H44 C50 0.930 . S
N45 N46 1.234 . S
N45 C49 1.453 . S
N46 N45 1.234 . S
C47 H42 0.929 1_545 S
C47 C48 1.373 1_545 S
C47 C49 1.368 . S
C48 C47 1.373 1_565 S
C48 C52 1.397 . S
C49 N45 1.453 . S
C49 C47 1.368 . S
C49 C50 1.373 . S
C50 H44 0.930 . S
C50 C49 1.373 . S
C50 C51 1.371 . S
C51 C50 1.371 . S
C51 C52 1.383 1_545 S
C52 H43 0.931 . S
C52 C48 1.397 . S
C52 C51 1.383 1_565 S
H53 C58 0.929 1_565 S
H54 C63 0.931 . S
H55 C61 0.930 . S
N56 N57 1.234 . S
N56 C60 1.453 . S
N57 N56 1.234 . S
C58 H53 0.929 1_545 S
C58 C59 1.373 1_545 S
C58 C60 1.368 1_655 S
C59 C58 1.373 1_565 S
C59 C63 1.397 . S
C60 N56 1.453 . S
C60 C58 1.368 1_455 S
C60 C61 1.373 . S
C61 H55 0.930 . S
C61 C60 1.373 . S
C61 C62 1.371 1_455 S
C62 C61 1.371 1_655 S
C62 C63 1.383 1_545 S
C63 H54 0.931 . S
C63 C59 1.397 . S
C63 C62 1.383 1_565 S
H64 C69 0.929 . S
H65 C74 0.931 . S
H66 C72 0.930 . S
N67 N68 1.234 . S
N67 C71 1.453 . S
N68 N67 1.234 . S
C69 H64 0.929 . S
C69 C70 1.373 . S
C69 C71 1.368 . S
C70 C69 1.373 . S
C70 C74 1.397 . S
C71 N67 1.453 . S
C71 C69 1.368 . S
C71 C72 1.373 . S
C72 H66 0.930 . S
C72 C71 1.373 . S
C72 C73 1.371 . S
C73 C72 1.371 . S
C73 C74 1.383 . S
C74 H65 0.931 . S
C74 C70 1.397 . S
C74 C73 1.383 . S
H75 C80 0.929 . S
H76 C85 0.931 . S
H77 C83 0.930 . S
N78 N79 1.234 . S
N78 C82 1.453 . S
N79 N78 1.234 . S
C80 H75 0.929 . S
C80 C81 1.373 . S
C80 C82 1.368 . S
C81 C80 1.373 . S
C81 C85 1.397 . S
C82 N78 1.453 . S
C82 C80 1.368 . S
C82 C83 1.373 . S
C83 H77 0.930 . S
C83 C82 1.373 . S
C83 C84 1.371 . S
C84 C83 1.371 . S
C84 C85 1.383 . S
C85 H76 0.931 . S
C85 C81 1.397 . S
C85 C84 1.383 . S
H86 C87 0.951 . S
C87 H86 0.951 . S
C87 C93 1.265 . S
H88 C93 0.950 1_556 S
H89 C97 0.949 . S
H90 C98 0.950 1_556 S
H91 C99 0.951 . S
H92 C100 0.951 . S
C93 C87 1.265 . S
C93 H88 0.950 1_554 S
C93 C94 1.478 . S
C94 C93 1.478 . S
C94 C95 1.397 . S
C94 C111 1.394 . S
C95 C94 1.397 . S
C95 C96 1.438 . S
C95 C100 1.429 1_554 S
C96 C95 1.438 . S
C96 C97 1.428 . S
C96 C109 1.394 . S
C97 H89 0.949 . S
C97 C96 1.428 . S
C97 C98 1.345 . S
C98 H90 0.950 1_554 S
C98 C97 1.345 . S
C98 C99 1.424 1_554 S
C99 H91 0.951 . S
C99 C98 1.424 1_556 S
C99 C100 1.347 . S
C100 H92 0.951 . S
C100 C95 1.429 1_556 S
C100 C99 1.347 . S
H101 C102 0.951 . S
C102 H101 0.951 . S
C102 C108 1.265 . S
H103 C108 0.950 . S
H104 C112 0.949 . S
H105 C113 0.950 . S
H106 C114 0.951 . S
H107 C115 0.951 . S
C108 C102 1.265 . S
C108 H103 0.950 . S
C108 C109 1.478 . S
C109 C96 1.394 . S
C109 C108 1.478 . S
C109 C110 1.397 . S
C110 C109 1.397 . S
C110 C111 1.438 . S
C110 C115 1.429 . S
C111 C94 1.394 . S
C111 C110 1.438 . S
C111 C112 1.428 . S
C112 H104 0.949 . S
C112 C111 1.428 . S
C112 C113 1.345 . S
C113 H105 0.950 . S
C113 C112 1.345 . S
C113 C114 1.424 . S
C114 H106 0.951 . S
C114 C113 1.424 . S
C114 C115 1.347 . S
C115 H107 0.951 . S
C115 C110 1.429 . S
C115 C114 1.347 . S
H116 C117 0.951 1_554 S
C117 H116 0.951 1_556 S
C117 C123 1.265 . S
H118 C123 0.950 . S
H119 C127 0.949 . S
H120 C128 0.950 . S
H121 C129 0.951 . S
H122 C130 0.951 . S
C123 C117 1.265 . S
C123 H118 0.950 . S
C123 C124 1.478 . S
C124 C123 1.478 . S
C124 C125 1.397 . S
C124 C141 1.394 1_556 S
C125 C124 1.397 . S
C125 C126 1.438 . S
C125 C130 1.429 . S
C126 C125 1.438 . S
C126 C127 1.428 . S
C126 C139 1.394 . S
C127 H119 0.949 . S
C127 C126 1.428 . S
C127 C128 1.345 . S
C128 H120 0.950 . S
C128 C127 1.345 . S
C128 C129 1.424 . S
C129 H121 0.951 . S
C129 C128 1.424 . S
C129 C130 1.347 . S
C130 H122 0.951 . S
C130 C125 1.429 . S
C130 C129 1.347 . S
H131 C132 0.951 . S
C132 H131 0.951 . S
C132 C138 1.265 . S
H133 C138 0.950 . S
H134 C142 0.949 . S
H135 C143 0.950 . S
H136 C144 0.951 . S
H137 C145 0.951 . S
C138 C132 1.265 . S
C138 H133 0.950 . S
C138 C139 1.478 . S
C139 C126 1.394 . S
C139 C138 1.478 . S
C139 C140 1.397 1_556 S
C140 C139 1.397 1_554 S
C140 C141 1.438 . S
C140 C145 1.429 . S
C141 C124 1.394 1_554 S
C141 C140 1.438 . S
C141 C142 1.428 . S
C142 H134 0.949 . S
C142 C141 1.428 . S
C142 C143 1.345 . S
C143 H135 0.950 . S
C143 C142 1.345 . S
C143 C144 1.424 . S
C144 H136 0.951 . S
C144 C143 1.424 . S
C144 C145 1.347 . S
C145 H137 0.951 . S
C145 C140 1.429 . S
C145 C144 1.347 . S
H146 C147 0.951 1_556 S
C147 H146 0.951 1_554 S
C147 C153 1.265 . S
H148 C153 0.950 . S
H149 C157 0.949 . S
H150 C158 0.950 . S
H151 C159 0.951 . S
H152 C160 0.951 . S
C153 C147 1.265 . S
C153 H148 0.950 . S
C153 C154 1.478 . S
C154 C153 1.478 . S
C154 C155 1.397 . S
C154 C171 1.394 . S
C155 C154 1.397 . S
C155 C156 1.438 . S
C155 C160 1.429 . S
C156 C155 1.438 . S
C156 C157 1.428 . S
C156 C169 1.394 . S
C157 H149 0.949 . S
C157 C156 1.428 . S
C157 C158 1.345 . S
C158 H150 0.950 . S
C158 C157 1.345 . S
C158 C159 1.424 . S
C159 H151 0.951 . S
C159 C158 1.424 . S
C159 C160 1.347 . S
C160 H152 0.951 . S
C160 C155 1.429 . S
C160 C159 1.347 . S
H161 C162 0.951 . S
C162 H161 0.951 . S
C162 C168 1.265 . S
H163 C168 0.950 . S
H164 C172 0.949 . S
H165 C173 0.950 . S
H166 C174 0.951 . S
H167 C175 0.951 . S
C168 C162 1.265 . S
C168 H163 0.950 . S
C168 C169 1.478 . S
C169 C156 1.394 . S
C169 C168 1.478 . S
C169 C170 1.397 . S
C170 C169 1.397 . S
C170 C171 1.438 . S
C170 C175 1.429 1_554 S
C171 C154 1.394 . S
C171 C170 1.438 . S
C171 C172 1.428 1_554 S
C172 H164 0.949 . S
C172 C171 1.428 1_556 S
C172 C173 1.345 . S
C173 H165 0.950 . S
C173 C172 1.345 . S
C173 C174 1.424 . S
C174 H166 0.951 . S
C174 C173 1.424 . S
C174 C175 1.347 . S
C175 H167 0.951 . S
C175 C170 1.429 1_556 S
C175 C174 1.347 . S
H176 C177 0.951 . S
C177 H176 0.951 . S
C177 C183 1.265 . S
H178 C183 0.950 . S
H179 C187 0.949 . S
H180 C188 0.950 . S
H181 C189 0.951 . S
H182 C190 0.951 . S
C183 C177 1.265 . S
C183 H178 0.950 . S
C183 C184 1.478 . S
C184 C183 1.478 . S
C184 C185 1.397 . S
C184 C201 1.394 . S
C185 C184 1.397 . S
C185 C186 1.438 . S
C185 C190 1.429 1_556 S
C186 C185 1.438 . S
C186 C187 1.428 1_556 S
C186 C199 1.394 . S
C187 H179 0.949 . S
C187 C186 1.428 1_554 S
C187 C188 1.345 . S
C188 H180 0.950 . S
C188 C187 1.345 . S
C188 C189 1.424 . S
C189 H181 0.951 . S
C189 C188 1.424 . S
C189 C190 1.347 . S
C190 H182 0.951 . S
C190 C185 1.429 1_554 S
C190 C189 1.347 . S
H191 C192 0.951 . S
C192 H191 0.951 . S
C192 C198 1.265 . S
H193 C198 0.950 . S
H194 C202 0.949 . S
H195 C203 0.950 . S
H196 C204 0.951 . S
H197 C205 0.951 . S
C198 C192 1.265 . S
C198 H193 0.950 . S
C198 C199 1.478 . S
C199 C186 1.394 . S
C199 C198 1.478 . S
C199 C200 1.397 . S
C200 C199 1.397 . S
C200 C201 1.438 . S
C200 C205 1.429 . S
C201 C184 1.394 . S
C201 C200 1.438 . S
C201 C202 1.428 . S
C202 H194 0.949 . S
C202 C201 1.428 . S
C202 C203 1.345 . S
C203 H195 0.950 . S
C203 C202 1.345 . S
C203 C204 1.424 . S
C204 H196 0.951 . S
C204 C203 1.424 . S
C204 C205 1.347 . S
C205 H197 0.951 . S
C205 C200 1.429 . S
C205 C204 1.347 . S
H206 C207 0.951 . S
C207 H206 0.951 . S
C207 C213 1.265 . S
H208 C213 0.950 . S
H209 C217 0.949 . S
H210 C218 0.950 . S
H211 C219 0.951 . S
H212 C220 0.951 . S
C213 C207 1.265 . S
C213 H208 0.950 . S
C213 C214 1.478 . S
C214 C213 1.478 . S
C214 C215 1.397 . S
C214 C231 1.394 . S
C215 C214 1.397 . S
C215 C216 1.438 . S
C215 C220 1.429 . S
C216 C215 1.438 . S
C216 C217 1.428 . S
C216 C229 1.394 . S
C217 H209 0.949 . S
C217 C216 1.428 . S
C217 C218 1.345 . S
C218 H210 0.950 . S
C218 C217 1.345 . S
C218 C219 1.424 . S
C219 H211 0.951 . S
C219 C218 1.424 . S
C219 C220 1.347 . S
C220 H212 0.951 . S
C220 C215 1.429 . S
C220 C219 1.347 . S
H221 C222 0.951 . S
C222 H221 0.951 . S
C222 C228 1.265 . S
H223 C228 0.950 . S
H224 C232 0.949 . S
H225 C233 0.950 . S
H226 C234 0.951 . S
H227 C235 0.951 . S
C228 C222 1.265 . S
C228 H223 0.950 . S
C228 C229 1.478 . S
C229 C216 1.394 . S
C229 C228 1.478 . S
C229 C230 1.397 . S
C230 C229 1.397 . S
C230 C231 1.438 . S
C230 C235 1.429 . S
C231 C214 1.394 . S
C231 C230 1.438 . S
C231 C232 1.428 . S
C232 H224 0.949 . S
C232 C231 1.428 . S
C232 C233 1.345 . S
C233 H225 0.950 . S
C233 C232 1.345 . S
C233 C234 1.424 . S
C234 H226 0.951 . S
C234 C233 1.424 . S
C234 C235 1.347 . S
C235 H227 0.951 . S
C235 C230 1.429 . S
C235 C234 1.347 . S
H236 C237 0.951 . S
C237 H236 0.951 . S
C237 C243 1.265 . S
H238 C243 0.950 . S
H239 C247 0.949 . S
H240 C248 0.950 1_455 S
H241 C249 0.951 . S
H242 C250 0.951 . S
C243 C237 1.265 . S
C243 H238 0.950 . S
C243 C244 1.478 . S
C244 C243 1.478 . S
C244 C245 1.397 . S
C244 C261 1.394 . S
C245 C244 1.397 . S
C245 C246 1.438 . S
C245 C250 1.429 . S
C246 C245 1.438 . S
C246 C247 1.428 . S
C246 C259 1.394 . S
C247 H239 0.949 . S
C247 C246 1.428 . S
C247 C248 1.345 . S
C248 H240 0.950 1_655 S
C248 C247 1.345 . S
C248 C249 1.424 . S
C249 H241 0.951 . S
C249 C248 1.424 . S
C249 C250 1.347 . S
C250 H242 0.951 . S
C250 C245 1.429 . S
C250 C249 1.347 . S
H251 C252 0.951 . S
C252 H251 0.951 . S
C252 C258 1.265 . S
H253 C258 0.950 . S
H254 C262 0.949 . S
H255 C263 0.950 . S
H256 C264 0.951 . S
H257 C265 0.951 . S
C258 C252 1.265 . S
C258 H253 0.950 . S
C258 C259 1.478 . S
C259 C246 1.394 . S
C259 C258 1.478 . S
C259 C260 1.397 . S
C260 C259 1.397 . S
C260 C261 1.438 . S
C260 C265 1.429 . S
C261 C244 1.394 . S
C261 C260 1.438 . S
C261 C262 1.428 . S
C262 H254 0.949 . S
C262 C261 1.428 . S
C262 C263 1.345 . S
C263 H255 0.950 . S
C263 C262 1.345 . S
C263 C264 1.424 . S
C264 H256 0.951 . S
C264 C263 1.424 . S
C264 C265 1.347 . S
C265 H257 0.951 . S
C265 C260 1.429 . S
C265 C264 1.347 . S
H266 C267 0.951 . S
C267 H266 0.951 . S
C267 C273 1.265 . S
H268 C273 0.950 . S
H269 C277 0.949 . S
H270 C278 0.950 . S
H271 C279 0.951 . S
H272 C280 0.951 . S
C273 C267 1.265 . S
C273 H268 0.950 . S
C273 C274 1.478 . S
C274 C273 1.478 . S
C274 C275 1.397 . S
C274 C291 1.394 . S
C275 C274 1.397 . S
C275 C276 1.438 . S
C275 C280 1.429 . S
C276 C275 1.438 . S
C276 C277 1.428 . S
C276 C289 1.394 . S
C277 H269 0.949 . S
C277 C276 1.428 . S
C277 C278 1.345 . S
C278 H270 0.950 . S
C278 C277 1.345 . S
C278 C279 1.424 . S
C279 H271 0.951 . S
C279 C278 1.424 . S
C279 C280 1.347 . S
C280 H272 0.951 . S
C280 C275 1.429 . S
C280 C279 1.347 . S
H281 C282 0.951 . S
C282 H281 0.951 . S
C282 C288 1.265 . S
H283 C288 0.950 . S
H284 C292 0.949 . S
H285 C293 0.950 . S
H286 C294 0.951 . S
H287 C295 0.951 . S
C288 C282 1.265 . S
C288 H283 0.950 . S
C288 C289 1.478 . S
C289 C276 1.394 . S
C289 C288 1.478 . S
C289 C290 1.397 . S
C290 C289 1.397 . S
C290 C291 1.438 . S
C290 C295 1.429 . S
C291 C274 1.394 . S
C291 C290 1.438 . S
C291 C292 1.428 . S
C292 H284 0.949 . S
C292 C291 1.428 . S
C292 C293 1.345 . S
C293 H285 0.950 . S
C293 C292 1.345 . S
C293 C294 1.424 . S
C294 H286 0.951 . S
C294 C293 1.424 . S
C294 C295 1.347 . S
C295 H287 0.951 . S
C295 C290 1.429 . S
C295 C294 1.347 . S
H296 C297 0.951 . S
C297 H296 0.951 . S
C297 C303 1.265 . S
H298 C303 0.950 . S
H299 C307 0.949 . S
H300 C308 0.950 . S
H301 C309 0.951 . S
H302 C310 0.951 . S
C303 C297 1.265 . S
C303 H298 0.950 . S
C303 C304 1.478 . S
C304 C303 1.478 . S
C304 C305 1.397 . S
C304 C321 1.394 . S
C305 C304 1.397 . S
C305 C306 1.438 . S
C305 C310 1.429 . S
C306 C305 1.438 . S
C306 C307 1.428 . S
C306 C319 1.394 . S
C307 H299 0.949 . S
C307 C306 1.428 . S
C307 C308 1.345 . S
C308 H300 0.950 . S
C308 C307 1.345 . S
C308 C309 1.424 . S
C309 H301 0.951 . S
C309 C308 1.424 . S
C309 C310 1.347 . S
C310 H302 0.951 . S
C310 C305 1.429 . S
C310 C309 1.347 . S
H311 C312 0.951 . S
C312 H311 0.951 . S
C312 C318 1.265 . S
H313 C318 0.950 . S
H314 C322 0.949 . S
H315 C323 0.950 . S
H316 C324 0.951 . S
H317 C325 0.951 . S
C318 C312 1.265 . S
C318 H313 0.950 . S
C318 C319 1.478 . S
C319 C306 1.394 . S
C319 C318 1.478 . S
C319 C320 1.397 . S
C320 C319 1.397 . S
C320 C321 1.438 . S
C320 C325 1.429 . S
C321 C304 1.394 . S
C321 C320 1.438 . S
C321 C322 1.428 . S
C322 H314 0.949 . S
C322 C321 1.428 . S
C322 C323 1.345 . S
C323 H315 0.950 . S
C323 C322 1.345 . S
C323 C324 1.424 . S
C324 H316 0.951 . S
C324 C323 1.424 . S
C324 C325 1.347 . S
C325 H317 0.951 . S
C325 C320 1.429 . S
C325 C324 1.347 . S
H326 C327 0.951 . S
C327 H326 0.951 . S
C327 C333 1.265 . S
H328 C333 0.950 1_655 S
H329 C337 0.949 . S
H330 C338 0.950 . S
H331 C339 0.951 1_655 S
H332 C340 0.951 . S
C333 C327 1.265 . S
C333 H328 0.950 1_455 S
C333 C334 1.478 . S
C334 C333 1.478 . S
C334 C335 1.397 . S
C334 C351 1.394 1_565 S
C335 C334 1.397 . S
C335 C336 1.438 . S
C335 C340 1.429 . S
C336 C335 1.438 . S
C336 C337 1.428 . S
C336 C349 1.394 1_565 S
C337 H329 0.949 . S
C337 C336 1.428 . S
C337 C338 1.345 . S
C338 H330 0.950 . S
C338 C337 1.345 . S
C338 C339 1.424 . S
C339 H331 0.951 1_455 S
C339 C338 1.424 . S
C339 C340 1.347 . S
C340 H332 0.951 . S
C340 C335 1.429 . S
C340 C339 1.347 . S
H341 C342 0.951 . S
C342 H341 0.951 . S
C342 C348 1.265 . S
H343 C348 0.950 . S
H344 C352 0.949 . S
H345 C353 0.950 . S
H346 C354 0.951 . S
H347 C355 0.951 . S
C348 C342 1.265 . S
C348 H343 0.950 . S
C348 C349 1.478 . S
C349 C336 1.394 1_545 S
C349 C348 1.478 . S
C349 C350 1.397 . S
C350 C349 1.397 . S
C350 C351 1.438 . S
C350 C355 1.429 . S
C351 C334 1.394 1_545 S
C351 C350 1.438 . S
C351 C352 1.428 . S
C352 H344 0.949 . S
C352 C351 1.428 . S
C352 C353 1.345 . S
C353 H345 0.950 . S
C353 C352 1.345 . S
C353 C354 1.424 . S
C354 H346 0.951 . S
C354 C353 1.424 . S
C354 C355 1.347 . S
C355 H347 0.951 . S
C355 C350 1.429 . S
C355 C354 1.347 . S
H356 C357 0.951 . S
C357 H356 0.951 . S
C357 C363 1.265 1_455 S
H358 C363 0.950 1_545 S
H359 C367 0.949 . S
H360 C368 0.950 . S
H361 C369 0.951 . S
H362 C370 0.951 . S
C363 C357 1.265 1_655 S
C363 H358 0.950 1_565 S
C363 C364 1.478 1_565 S
C364 C363 1.478 1_545 S
C364 C365 1.397 . S
C364 C381 1.394 1_645 S
C365 C364 1.397 . S
C365 C366 1.438 . S
C365 C370 1.429 . S
C366 C365 1.438 . S
C366 C367 1.428 . S
C366 C379 1.394 1_655 S
C367 H359 0.949 . S
C367 C366 1.428 . S
C367 C368 1.345 . S
C368 H360 0.950 . S
C368 C367 1.345 . S
C368 C369 1.424 . S
C369 H361 0.951 . S
C369 C368 1.424 . S
C369 C370 1.347 . S
C370 H362 0.951 . S
C370 C365 1.429 . S
C370 C369 1.347 . S
H371 C372 0.951 . S
C372 H371 0.951 . S
C372 C378 1.265 1_655 S
H373 C378 0.950 . S
H374 C382 0.949 . S
H375 C383 0.950 . S
H376 C384 0.951 . S
H377 C385 0.951 . S
C378 C372 1.265 1_455 S
C378 H373 0.950 . S
C378 C379 1.478 . S
C379 C366 1.394 1_455 S
C379 C378 1.478 . S
C379 C380 1.397 1_545 S
C380 C379 1.397 1_565 S
C380 C381 1.438 . S
C380 C385 1.429 . S
C381 C364 1.394 1_465 S
C381 C380 1.438 . S
C381 C382 1.428 . S
C382 H374 0.949 . S
C382 C381 1.428 . S
C382 C383 1.345 . S
C383 H375 0.950 . S
C383 C382 1.345 . S
C383 C384 1.424 . S
C384 H376 0.951 . S
C384 C383 1.424 . S
C384 C385 1.347 . S
C385 H377 0.951 . S
C385 C380 1.429 . S
C385 C384 1.347 . S
H386 C387 0.951 . S
C387 H386 0.951 . S
C387 C393 1.265 . S
H388 C393 0.950 . S
H389 C397 0.949 . S
H390 C398 0.950 . S
H391 C399 0.951 . S
H392 C400 0.951 . S
C393 C387 1.265 . S
C393 H388 0.950 . S
C393 C394 1.478 . S
C394 C393 1.478 . S
C394 C395 1.397 . S
C394 C411 1.394 . S
C395 C394 1.397 . S
C395 C396 1.438 . S
C395 C400 1.429 . S
C396 C395 1.438 . S
C396 C397 1.428 . S
C396 C409 1.394 . S
C397 H389 0.949 . S
C397 C396 1.428 . S
C397 C398 1.345 . S
C398 H390 0.950 . S
C398 C397 1.345 . S
C398 C399 1.424 . S
C399 H391 0.951 . S
C399 C398 1.424 . S
C399 C400 1.347 . S
C400 H392 0.951 . S
C400 C395 1.429 . S
C400 C399 1.347 . S
H401 C402 0.951 . S
C402 H401 0.951 . S
C402 C408 1.265 . S
H403 C408 0.950 . S
H404 C412 0.949 . S
H405 C413 0.950 . S
H406 C414 0.951 . S
H407 C415 0.951 . S
C408 C402 1.265 . S
C408 H403 0.950 . S
C408 C409 1.478 . S
C409 C396 1.394 . S
C409 C408 1.478 . S
C409 C410 1.397 . S
C410 C409 1.397 . S
C410 C411 1.438 . S
C410 C415 1.429 . S
C411 C394 1.394 . S
C411 C410 1.438 . S
C411 C412 1.428 . S
C412 H404 0.949 . S
C412 C411 1.428 . S
C412 C413 1.345 . S
C413 H405 0.950 . S
C413 C412 1.345 . S
C413 C414 1.424 . S
C414 H406 0.951 . S
C414 C413 1.424 . S
C414 C415 1.347 . S
C415 H407 0.951 . S
C415 C410 1.429 . S
C415 C414 1.347 . S
H416 C417 0.951 . S
C417 H416 0.951 . S
C417 C423 1.265 . S
H418 C423 0.950 . S
H419 C427 0.949 . S
H420 C428 0.950 . S
H421 C429 0.951 . S
H422 C430 0.951 . S
C423 C417 1.265 . S
C423 H418 0.950 . S
C423 C424 1.478 . S
C424 C423 1.478 . S
C424 C425 1.397 . S
C424 C441 1.394 . S
C425 C424 1.397 . S
C425 C426 1.438 . S
C425 C430 1.429 . S
C426 C425 1.438 . S
C426 C427 1.428 . S
C426 C439 1.394 . S
C427 H419 0.949 . S
C427 C426 1.428 . S
C427 C428 1.345 . S
C428 H420 0.950 . S
C428 C427 1.345 . S
C428 C429 1.424 . S
C429 H421 0.951 . S
C429 C428 1.424 . S
C429 C430 1.347 . S
C430 H422 0.951 . S
C430 C425 1.429 . S
C430 C429 1.347 . S
H431 C432 0.951 . S
C432 H431 0.951 . S
C432 C438 1.265 . S
H433 C438 0.950 . S
H434 C442 0.949 . S
H435 C443 0.950 . S
H436 C444 0.951 . S
H437 C445 0.951 . S
C438 C432 1.265 . S
C438 H433 0.950 . S
C438 C439 1.478 . S
C439 C426 1.394 . S
C439 C438 1.478 . S
C439 C440 1.397 . S
C440 C439 1.397 . S
C440 C441 1.438 . S
C440 C445 1.429 . S
C441 C424 1.394 . S
C441 C440 1.438 . S
C441 C442 1.428 . S
C442 H434 0.949 . S
C442 C441 1.428 . S
C442 C443 1.345 . S
C443 H435 0.950 . S
C443 C442 1.345 . S
C443 C444 1.424 . S
C444 H436 0.951 . S
C444 C443 1.424 . S
C444 C445 1.347 . S
C445 H437 0.951 . S
C445 C440 1.429 . S
C445 C444 1.347 . S
C102 C81 1.337 . S
C87 C3 1.168 . S
C117 C4 1.383 1_556 S
C132 N68 1.500 . S
C147 C19 1.397 . S
C162 N79 1.505 . S
C177 C7 1.274 . S
C192 C70 1.309 . S
C207 C37 1.280 . S
C222 C59 1.297 . S
C237 C28 1.464 . S
C252 N46 1.505 1_655 S
C282 N57 1.549 . S
C267 C41 1.516 . S
C312 C48 1.300 . S
C297 C25 1.286 . S
C327 C20 1.273 . S
C342 C51 1.474 . S
C357 C16 1.462 . S
C372 C62 1.515 . S
C402 C73 1.479 . S
C387 C40 1.279 . S
C417 C24 1.455 . S
C432 C84 1.513 . S
