# Generated by pormake.
# Topology hwx, (6,3)-cn, num edge types: 1
# Building blocks:
#     Node 0, Type 0, BuildingBlock: IZENUY_clean_sbu_0, # of connection points: 6
#     Node 1, Type 0, BuildingBlock: IZENUY_clean_sbu_0, # of connection points: 6
#     Node 2, Type 0, BuildingBlock: IZENUY_clean_sbu_0, # of connection points: 6
#     Node 3, Type 0, BuildingBlock: IZENUY_clean_sbu_0, # of connection points: 6
#     Node 4, Type 1, BuildingBlock: VETTIZ_charged_linker_0, # of connection points: 3
#     Node 5, Type 1, BuildingBlock: VETTIZ_charged_linker_0, # of connection points: 3
#     Node 6, Type 1, BuildingBlock: VETTIZ_charged_linker_0, # of connection points: 3
#     Node 7, Type 1, BuildingBlock: VETTIZ_charged_linker_0, # of connection points: 3
#     Node 8, Type 1, BuildingBlock: VETTIZ_charged_linker_0, # of connection points: 3
#     Node 9, Type 1, BuildingBlock: VETTIZ_charged_linker_0, # of connection points: 3
#     Node 10, Type 1, BuildingBlock: VETTIZ_charged_linker_0, # of connection points: 3
#     Node 11, Type 1, BuildingBlock: VETTIZ_charged_linker_0, # of connection points: 3
#     Edge 12, Type (0, 1), BuildingBlock: EZIPEK_clean_linker_0, # of connection points: 2
#     Edge 13, Type (0, 1), BuildingBlock: EZIPEK_clean_linker_0, # of connection points: 2
#     Edge 14, Type (0, 1), BuildingBlock: EZIPEK_clean_linker_0, # of connection points: 2
#     Edge 15, Type (0, 1), BuildingBlock: EZIPEK_clean_linker_0, # of connection points: 2
#     Edge 16, Type (0, 1), BuildingBlock: EZIPEK_clean_linker_0, # of connection points: 2
#     Edge 17, Type (0, 1), BuildingBlock: EZIPEK_clean_linker_0, # of connection points: 2
#     Edge 18, Type (0, 1), BuildingBlock: EZIPEK_clean_linker_0, # of connection points: 2
#     Edge 19, Type (0, 1), BuildingBlock: EZIPEK_clean_linker_0, # of connection points: 2
#     Edge 20, Type (0, 1), BuildingBlock: EZIPEK_clean_linker_0, # of connection points: 2
#     Edge 21, Type (0, 1), BuildingBlock: EZIPEK_clean_linker_0, # of connection points: 2
#     Edge 22, Type (0, 1), BuildingBlock: EZIPEK_clean_linker_0, # of connection points: 2
#     Edge 23, Type (0, 1), BuildingBlock: EZIPEK_clean_linker_0, # of connection points: 2
#     Edge 24, Type (0, 1), BuildingBlock: EZIPEK_clean_linker_0, # of connection points: 2
#     Edge 25, Type (0, 1), BuildingBlock: EZIPEK_clean_linker_0, # of connection points: 2
#     Edge 26, Type (0, 1), BuildingBlock: EZIPEK_clean_linker_0, # of connection points: 2
#     Edge 27, Type (0, 1), BuildingBlock: EZIPEK_clean_linker_0, # of connection points: 2
#     Edge 28, Type (0, 1), BuildingBlock: EZIPEK_clean_linker_0, # of connection points: 2
#     Edge 29, Type (0, 1), BuildingBlock: EZIPEK_clean_linker_0, # of connection points: 2
#     Edge 30, Type (0, 1), BuildingBlock: EZIPEK_clean_linker_0, # of connection points: 2
#     Edge 31, Type (0, 1), BuildingBlock: EZIPEK_clean_linker_0, # of connection points: 2
#     Edge 32, Type (0, 1), BuildingBlock: EZIPEK_clean_linker_0, # of connection points: 2
#     Edge 33, Type (0, 1), BuildingBlock: EZIPEK_clean_linker_0, # of connection points: 2
#     Edge 34, Type (0, 1), BuildingBlock: EZIPEK_clean_linker_0, # of connection points: 2
#     Edge 35, Type (0, 1), BuildingBlock: EZIPEK_clean_linker_0, # of connection points: 2
# Relax obj value: 0.054
# Max RMSD: 0.078
# Mean RMSD: 0.070
data_MOF--net-hwx--node1-IZENUY_clean_sbu_0--node2-VETTIZ_charged_linker_0--edge1-EZIPEK_clean_linker_0
_symmetry_space_group_name_H-M    P1
_symmetry_Int_Tables_number       1
_symmetry_cell_setting            triclinic
loop_
_symmetry_equiv_pos_as_xyz
'x, y, z'
_cell_length_a     44.949536
_cell_length_b     44.834492
_cell_length_c     22.00937
_cell_angle_alpha  90.111132
_cell_angle_beta   90.012677
_cell_angle_gamma 90.016056
loop_
_atom_site_label
_atom_site_type_symbol
_atom_site_fract_x
_atom_site_fract_y
_atom_site_fract_z
_atom_type_partial_charge
Fe0 Fe 0.23876 0.21775 0.06445 0.0
Fe1 Fe 0.23617 0.2081 0.9259 0.0
O2 O 0.22626 0.19712 0.00069 0.0
Fe3 Fe 0.20355 0.16515 0.01175 0.0
O4 O 0.18572 0.17873 0.08139 0.0
O5 O 0.20108 0.22483 0.08948 0.0
O6 O 0.23685 0.25406 0.02656 0.0
C7 C 0.22432 0.26252 0.97821 0.0
C8 C 0.24453 0.15718 0.10135 0.0
O9 O 0.21935 0.2447 0.93498 0.0
C10 C 0.24125 0.14714 0.9161 0.0
O11 O 0.27743 0.21272 0.04435 0.0
O12 O 0.2731 0.2228 0.94697 0.0
O13 O 0.23243 0.14644 0.0545 0.0
O14 O 0.24286 0.18477 0.11373 0.0
C15 C 0.17543 0.19108 0.91598 0.0
O16 O 0.25397 0.17218 0.91127 0.0
O17 O 0.21698 0.14528 0.94446 0.0
C18 C 0.28885 0.22009 0.9944 0.0
O19 O 0.20063 0.19591 0.8918 0.0
O20 O 0.17329 0.18189 0.96982 0.0
C21 C 0.18298 0.20463 0.10321 0.0
Fe22 Fe 0.25729 0.71717 0.55696 0.0
Fe23 Fe 0.29197 0.66645 0.49604 0.0
O24 O 0.26886 0.69846 0.49025 0.0
Fe25 Fe 0.25851 0.71171 0.41769 0.0
O26 O 0.25928 0.75151 0.43835 0.0
O27 O 0.27406 0.75194 0.53361 0.0
O28 O 0.29216 0.70976 0.59758 0.0
C29 C 0.31814 0.70487 0.5772 0.0
C30 C 0.20636 0.72013 0.47993 0.0
O31 O 0.32144 0.68853 0.53072 0.0
C32 C 0.25306 0.6483 0.40929 0.0
O33 O 0.23966 0.6837 0.58631 0.0
O34 O 0.27806 0.65458 0.57064 0.0
O35 O 0.21917 0.70887 0.43442 0.0
O36 O 0.22072 0.72804 0.52681 0.0
C37 C 0.3153 0.69472 0.39201 0.0
O38 O 0.26359 0.6432 0.46148 0.0
O39 O 0.25564 0.67382 0.38455 0.0
C40 C 0.25352 0.65982 0.59651 0.0
O41 O 0.31054 0.67135 0.4222 0.0
O42 O 0.29728 0.7161 0.39589 0.0
C43 C 0.27027 0.76492 0.48371 0.0
Fe44 Fe 0.76083 0.79701 0.92346 0.0
Fe45 Fe 0.7559 0.79832 0.06274 0.0
O46 O 0.76903 0.81419 0.99412 0.0
Fe47 Fe 0.79077 0.84729 0.99657 0.0
O48 O 0.7778 0.86171 0.92295 0.0
O49 O 0.7427 0.83035 0.89557 0.0
O50 O 0.72367 0.7838 0.94662 0.0
C51 C 0.70701 0.79058 0.99106 0.0
C52 C 0.82123 0.81554 0.91127 0.0
O53 O 0.71747 0.80141 0.03937 0.0
C54 C 0.81114 0.81499 0.09936 0.0
O55 O 0.77826 0.76233 0.94562 0.0
O56 O 0.7582 0.75947 0.03648 0.0
O57 O 0.82216 0.82869 0.96184 0.0
O58 O 0.7967 0.8071 0.88831 0.0
C59 C 0.74895 0.86088 0.08122 0.0
O60 O 0.79345 0.79369 0.09068 0.0
O61 O 0.80795 0.83927 0.07087 0.0
C62 C 0.77216 0.74774 0.99271 0.0
O63 O 0.75114 0.83454 0.10172 0.0
O64 O 0.7607 0.86805 0.0314 0.0
C65 C 0.75476 0.85562 0.89236 0.0
Fe66 Fe 0.70835 0.3484 0.50681 0.0
Fe67 Fe 0.73911 0.29617 0.57133 0.0
O68 O 0.72809 0.31405 0.50326 0.0
Fe69 Fe 0.7371 0.29806 0.43184 0.0
O70 O 0.74215 0.33417 0.39324 0.0
O71 O 0.7376 0.3675 0.46611 0.0
O72 O 0.72596 0.36161 0.57786 0.0
C73 C 0.75054 0.35427 0.60157 0.0
C74 C 0.68099 0.31812 0.40828 0.0
O75 O 0.76066 0.32836 0.5943 0.0
C76 C 0.72216 0.24758 0.50463 0.0
O77 O 0.67792 0.33129 0.54736 0.0
O78 O 0.70605 0.30809 0.6143 0.0
O79 O 0.69829 0.29606 0.4105 0.0
O80 O 0.68685 0.34196 0.43677 0.0
C81 C 0.78873 0.28798 0.49422 0.0
O82 O 0.71886 0.26244 0.55279 0.0
O83 O 0.73378 0.25909 0.4577 0.0
C84 C 0.6808 0.31681 0.59592 0.0
O85 O 0.77384 0.28103 0.54067 0.0
O86 O 0.77657 0.29893 0.44788 0.0
C87 C 0.74662 0.36017 0.41413 0.0
C88 C 0.20887 0.55841 0.79971 0.0
C89 C 0.21058 0.58968 0.79843 0.0
C90 C 0.20492 0.60608 0.85171 0.0
C91 C 0.19999 0.56016 0.9085 0.0
C92 C 0.20337 0.54412 0.85525 0.0
C93 C 0.2023 0.51098 0.86605 0.0
H94 H 0.20646 0.39553 0.06348 0.0
C95 C 0.19842 0.53878 0.95937 0.0
C96 C 0.19922 0.50989 0.93486 0.0
H97 H 0.20162 0.39211 0.86774 0.0
H98 H 0.19762 0.44592 0.86353 0.0
H99 H 0.25072 0.45143 0.0709 0.0
H100 H 0.15496 0.44729 0.08068 0.0
H101 H 0.16757 0.47237 0.13666 0.0
H102 H 0.17842 0.43368 0.14056 0.0
H103 H 0.23159 0.43614 0.13531 0.0
H104 H 0.23898 0.4755 0.12916 0.0
C105 C 0.23215 0.49739 0.84428 0.0
C106 C 0.17445 0.49826 0.83346 0.0
C107 C 0.20814 0.57787 0.17469 0.0
C108 C 0.21209 0.5638 0.23086 0.0
C109 C 0.20968 0.53255 0.23466 0.0
C110 C 0.20459 0.51538 0.18218 0.0
C111 C 0.20222 0.52967 0.12544 0.0
C112 C 0.20339 0.56047 0.12275 0.0
C113 C 0.20149 0.57196 0.05886 0.0
C114 C 0.19924 0.54302 0.0233 0.0
C115 C 0.19985 0.51826 0.06233 0.0
C116 C 0.23076 0.58904 0.04514 0.0
C117 C 0.17284 0.591 0.05303 0.0
C118 C 0.20429 0.40655 0.01995 0.0
C119 C 0.20446 0.38993 0.96577 0.0
C120 C 0.20158 0.40472 0.90978 0.0
C121 C 0.19933 0.43587 0.90756 0.0
C122 C 0.20013 0.4524 0.9619 0.0
C123 C 0.20199 0.43772 0.01697 0.0
C124 C 0.20225 0.45907 0.06994 0.0
C125 C 0.20005 0.48891 0.03757 0.0
C126 C 0.19929 0.48481 0.97423 0.0
C127 C 0.23228 0.4554 0.10368 0.0
C128 C 0.17452 0.45282 0.10959 0.0
H129 H 0.19626 0.60518 0.94615 0.0
H130 H 0.21307 0.54546 0.75902 0.0
H131 H 0.15676 0.51546 0.82865 0.0
H132 H 0.16378 0.48005 0.85943 0.0
H133 H 0.17999 0.49011 0.78714 0.0
H134 H 0.25116 0.51153 0.85922 0.0
H135 H 0.23288 0.49587 0.79392 0.0
H136 H 0.23658 0.47508 0.86312 0.0
H137 H 0.21014 0.60188 0.17092 0.0
H138 H 0.21277 0.52146 0.27788 0.0
H139 H 0.20357 0.49161 0.18751 0.0
H140 H 0.25019 0.57739 0.0656 0.0
H141 H 0.23009 0.61197 0.06428 0.0
H142 H 0.23602 0.59049 0.99637 0.0
H143 H 0.15524 0.58314 0.08477 0.0
H144 H 0.16258 0.58929 0.00744 0.0
H145 H 0.17727 0.61482 0.06363 0.0
H146 H 0.2061 0.63022 0.85116 0.0
C147 C 0.19947 0.59149 0.90671 0.0
C148 C 0.06607 0.75786 0.52812 0.0
C149 C 0.08134 0.75102 0.47417 0.0
C150 C 0.06644 0.75316 0.41811 0.0
C151 C 0.02199 0.77027 0.46961 0.0
C152 C 0.0364 0.7673 0.52481 0.0
C153 C 0.01657 0.77525 0.57757 0.0
H154 H 0.88161 0.82255 0.67648 0.0
C155 C 0.99194 0.78214 0.48144 0.0
C156 C 0.98862 0.78526 0.54463 0.0
H157 H 0.95453 0.79013 0.78512 0.0
H158 H 0.98511 0.78482 0.69445 0.0
H159 H 0.91803 0.86389 0.59188 0.0
H160 H 0.88823 0.77357 0.56925 0.0
H161 H 0.87916 0.79397 0.50341 0.0
H162 H 0.86429 0.80553 0.5751 0.0
H163 H 0.88198 0.85578 0.56131 0.0
H164 H 0.91434 0.85907 0.51298 0.0
C165 C 0.0311 0.80116 0.61338 0.0
C166 C 0.0113 0.74667 0.61562 0.0
C167 C 0.91991 0.80002 0.30675 0.0
C168 C 0.8917 0.81351 0.30453 0.0
C169 C 0.88008 0.82714 0.35708 0.0
C170 C 0.89538 0.82565 0.41221 0.0
C171 C 0.92267 0.81053 0.41479 0.0
C172 C 0.93524 0.79932 0.36222 0.0
C173 C 0.96592 0.78695 0.37327 0.0
C174 C 0.96865 0.79091 0.44173 0.0
C175 C 0.94289 0.804 0.46568 0.0
C176 C 0.9886 0.80645 0.33802 0.0
C177 C 0.96598 0.75362 0.35483 0.0
C178 C 0.90426 0.8145 0.68041 0.0
C179 C 0.91585 0.80651 0.73707 0.0
C180 C 0.94535 0.79621 0.74136 0.0
C181 C 0.96286 0.79303 0.68883 0.0
C182 C 0.95054 0.80009 0.63179 0.0
C183 C 0.92179 0.81095 0.62856 0.0
C184 C 0.91184 0.81656 0.56455 0.0
C185 C 0.93903 0.80636 0.52942 0.0
C186 C 0.9617 0.79689 0.56884 0.0
C187 C 0.90603 0.85049 0.55701 0.0
C188 C 0.88436 0.79656 0.55201 0.0
H189 H 0.02677 0.76432 0.37148 0.0
H190 H 0.07713 0.75612 0.57171 0.0
H191 H 0.0125 0.72627 0.58681 0.0
H192 H 0.98887 0.7459 0.6361 0.0
H193 H 0.02826 0.74439 0.65201 0.0
H194 H 0.03982 0.81837 0.58167 0.0
H195 H 0.05001 0.79303 0.64131 0.0
H196 H 0.01527 0.8129 0.64336 0.0
H197 H 0.9295 0.78993 0.26652 0.0
H198 H 0.85854 0.83797 0.35579 0.0
H199 H 0.885 0.83568 0.45099 0.0
H200 H 0.98003 0.82946 0.33074 0.0
H201 H 0.99355 0.79681 0.29261 0.0
H202 H 0.00966 0.80964 0.36321 0.0
H203 H 0.94545 0.74238 0.3713 0.0
H204 H 0.98465 0.74103 0.37483 0.0
H205 H 0.96679 0.75108 0.30464 0.0
H206 H 0.07796 0.74781 0.37625 0.0
C207 C 0.03687 0.76286 0.41551 0.0
C208 C 0.79196 0.46189 0.20936 0.0
C209 C 0.78848 0.43096 0.21644 0.0
C210 C 0.79142 0.41204 0.16585 0.0
C211 C 0.79819 0.45488 0.10072 0.0
C212 C 0.79656 0.47339 0.15092 0.0
C213 C 0.79807 0.50584 0.13372 0.0
H214 H 0.79476 0.61123 0.91393 0.0
C215 C 0.80016 0.47378 0.04613 0.0
C216 C 0.8002 0.50366 0.06488 0.0
H217 H 0.79767 0.62391 0.10828 0.0
H218 H 0.80205 0.57065 0.12325 0.0
H219 H 0.84686 0.55706 0.91018 0.0
H220 H 0.75086 0.5568 0.91443 0.0
H221 H 0.76242 0.52861 0.86424 0.0
H222 H 0.77121 0.56697 0.84742 0.0
H223 H 0.82454 0.57027 0.84811 0.0
H224 H 0.83357 0.53133 0.85599 0.0
C225 C 0.82661 0.51937 0.16209 0.0
C226 C 0.76875 0.52092 0.15453 0.0
C227 C 0.79834 0.42433 0.83943 0.0
C228 C 0.79898 0.43459 0.77869 0.0
C229 C 0.7973 0.46603 0.77043 0.0
C230 C 0.79845 0.48596 0.81977 0.0
C231 C 0.79998 0.47478 0.87912 0.0
C232 C 0.79962 0.44439 0.88791 0.0
C233 C 0.79937 0.43605 0.95386 0.0
C234 C 0.80017 0.46654 0.98345 0.0
C235 C 0.80034 0.48926 0.93968 0.0
C236 C 0.82802 0.41795 0.96727 0.0
C237 C 0.76986 0.41923 0.96723 0.0
C238 C 0.7967 0.60232 0.95948 0.0
C239 C 0.79581 0.62137 0.01018 0.0
C240 C 0.7983 0.60938 0.06891 0.0
C241 C 0.8007 0.57853 0.07736 0.0
C242 C 0.80037 0.55952 0.0265 0.0
C243 C 0.79905 0.57149 0.96867 0.0
C244 C 0.79904 0.54775 0.92017 0.0
C245 C 0.80036 0.51962 0.95844 0.0
C246 C 0.80077 0.52672 0.02071 0.0
C247 C 0.82734 0.55173 0.88103 0.0
C248 C 0.76951 0.55008 0.88412 0.0
H249 H 0.79774 0.40825 0.07112 0.0
H250 H 0.78974 0.47675 0.24796 0.0
H251 H 0.74942 0.50592 0.14639 0.0
H252 H 0.76353 0.54149 0.12931 0.0
H253 H 0.76938 0.52618 0.20386 0.0
H254 H 0.84464 0.50243 0.16512 0.0
H255 H 0.82234 0.5278 0.20877 0.0
H256 H 0.83616 0.53751 0.13428 0.0
H257 H 0.79562 0.40113 0.85081 0.0
H258 H 0.79386 0.47592 0.72643 0.0
H259 H 0.79739 0.50936 0.8098 0.0
H260 H 0.84713 0.42659 0.94037 0.0
H261 H 0.82508 0.39406 0.95527 0.0
H262 H 0.83531 0.41968 0.01509 0.0
H263 H 0.75176 0.42649 0.93607 0.0
H264 H 0.76102 0.42381 0.01315 0.0
H265 H 0.77258 0.39477 0.96143 0.0
H266 H 0.78892 0.38813 0.17095 0.0
C267 C 0.79639 0.42381 0.10804 0.0
C268 C 0.07446 0.21853 0.31174 0.0
C269 C 0.1033 0.20672 0.30724 0.0
C270 C 0.1163 0.19283 0.358 0.0
C271 C 0.07323 0.20526 0.4185 0.0
C272 C 0.05963 0.21703 0.3676 0.0
C273 C 0.02842 0.2273 0.38059 0.0
H274 H 0.91879 0.25249 0.58509 0.0
C275 C 0.053 0.20925 0.47043 0.0
C276 C 0.02645 0.22154 0.44853 0.0
H277 H 0.91491 0.26046 0.38986 0.0
H278 H 0.9664 0.24523 0.38195 0.0
H279 H 0.95552 0.19031 0.58827 0.0
H280 H 0.98443 0.28186 0.59952 0.0
H281 H 0.00662 0.26112 0.64959 0.0
H282 H 0.96702 0.26338 0.66242 0.0
H283 H 0.94728 0.21401 0.65199 0.0
H284 H 0.9817 0.19359 0.64757 0.0
C285 C 0.0066 0.20739 0.34379 0.0
C286 C 0.02637 0.26098 0.36575 0.0
C287 C 0.09301 0.19388 0.68278 0.0
C288 C 0.08139 0.19985 0.74046 0.0
C289 C 0.05162 0.20905 0.74652 0.0
C290 C 0.03378 0.21316 0.69479 0.0
C291 C 0.04609 0.2082 0.6368 0.0
C292 C 0.07515 0.19838 0.63176 0.0
C293 C 0.08505 0.19524 0.56701 0.0
C294 C 0.05733 0.20536 0.5337 0.0
C295 C 0.03454 0.21287 0.57461 0.0
C296 C 0.09222 0.16191 0.55466 0.0
C297 C 0.11162 0.21678 0.55707 0.0
C298 C 0.92932 0.25104 0.54092 0.0
C299 C 0.91329 0.25761 0.48791 0.0
C300 C 0.92722 0.25547 0.43094 0.0
C301 C 0.95694 0.24651 0.42656 0.0
C302 C 0.97275 0.23956 0.47975 0.0
C303 C 0.959 0.2419 0.53576 0.0
C304 C 0.97934 0.23321 0.5871 0.0
C305 C 0.00711 0.22417 0.55237 0.0
C306 C 0.00314 0.22832 0.48965 0.0
C307 C 0.96532 0.20648 0.62107 0.0
C308 C 0.98462 0.26114 0.62728 0.0
H309 H 0.11274 0.18179 0.45101 0.0
H310 H 0.06391 0.22885 0.27285 0.0
H311 H 0.04608 0.27305 0.38402 0.0
H312 H 0.00681 0.27189 0.38633 0.0
H313 H 0.02568 0.26466 0.31587 0.0
H314 H 0.01684 0.18567 0.33101 0.0
H315 H -0.00046 0.21849 0.30107 0.0
H316 H 0.98661 0.20124 0.37037 0.0
H317 H 0.11593 0.18685 0.67751 0.0
H318 H 0.04248 0.21366 0.79109 0.0
H319 H 0.01134 0.22055 0.70182 0.0
H320 H 0.08012 0.14695 0.5865 0.0
H321 H 0.11636 0.15731 0.55995 0.0
H322 H 0.08495 0.15462 0.50889 0.0
H323 H 0.10719 0.23874 0.57894 0.0
H324 H 0.11597 0.22185 0.50896 0.0
H325 H 0.13232 0.20761 0.57727 0.0
H326 H 0.13842 0.18333 0.35485 0.0
C327 C 0.10143 0.19206 0.41364 0.0
C328 C 0.70452 0.9562 0.69141 0.0
C329 C 0.70739 0.92507 0.695 0.0
C330 C 0.70139 0.90744 0.64355 0.0
C331 C 0.69385 0.95197 0.58356 0.0
C332 C 0.69761 0.96918 0.6352 0.0
C333 C 0.69548 0.00203 0.62175 0.0
H334 H 0.70059 0.11291 0.41501 0.0
C335 C 0.69099 0.97222 0.53105 0.0
C336 C 0.69143 1.00161 0.55309 0.0
H337 H 0.69331 0.12053 0.61001 0.0
H338 H 0.68795 0.06697 0.61855 0.0
H339 H 0.74279 0.0555 0.4124 0.0
H340 H 0.6474 0.06348 0.40169 0.0
H341 H 0.65813 0.03517 0.35091 0.0
H342 H 0.67113 0.07283 0.33898 0.0
H343 H 0.72411 0.07114 0.34777 0.0
H344 H 0.73015 0.03161 0.35452 0.0
C345 C 0.72523 0.01681 0.64071 0.0
C346 C 0.66777 0.01471 0.65487 0.0
C347 C 0.69981 0.92925 0.31855 0.0
C348 C 0.70337 0.94246 0.2614 0.0
C349 C 0.70021 0.97353 0.25534 0.0
C350 C 0.6949 0.99147 0.30654 0.0
C351 C 0.69318 0.97814 0.3643 0.0
C352 C 0.69489 0.94744 0.36928 0.0
C353 C 0.69384 0.93714 0.43414 0.0
C354 C 0.69131 0.9667 0.46749 0.0
C355 C 0.69121 0.99067 0.42647 0.0
C356 C 0.72358 0.92092 0.448 0.0
C357 C 0.66564 0.91768 0.44259 0.0
C358 C 0.69759 0.10288 0.45933 0.0
C359 C 0.69768 0.1206 0.51205 0.0
C360 C 0.69346 0.10708 0.56906 0.0
C361 C 0.69047 0.07608 0.57386 0.0
C362 C 0.69179 0.05843 0.5211 0.0
C363 C 0.69432 0.07191 0.46489 0.0
C364 C 0.69412 0.04955 0.41379 0.0
C365 C 0.69141 0.02046 0.4487 0.0
C366 C 0.69078 0.02584 0.51162 0.0
C367 C 0.7242 0.05201 0.37977 0.0
C368 C 0.66643 0.05551 0.3737 0.0
H369 H 0.69101 0.90615 0.54983 0.0
H370 H 0.70897 0.97006 0.73073 0.0
H371 H 0.65099 0.99703 0.66407 0.0
H372 H 0.65577 0.03139 0.62708 0.0
H373 H 0.67389 0.02488 0.6992 0.0
H374 H 0.74441 0.00335 0.62422 0.0
H375 H 0.72696 0.01853 0.69094 0.0
H376 H 0.72836 0.03927 0.62155 0.0
H377 H 0.70253 0.90539 0.32404 0.0
H378 H 0.70308 0.98395 0.21136 0.0
H379 H 0.69345 0.0151 0.29949 0.0
H380 H 0.7425 0.93212 0.4247 0.0
H381 H 0.72293 0.89742 0.43202 0.0
H382 H 0.72971 0.92117 0.49645 0.0
H383 H 0.64736 0.92514 0.41207 0.0
H384 H 0.65622 0.91943 0.4889 0.0
H385 H 0.67025 0.89389 0.43206 0.0
H386 H 0.70346 0.88339 0.64592 0.0
C387 C 0.69441 0.92072 0.5879 0.0
C388 C 0.57067 0.29435 0.20399 0.0
C389 C 0.60154 0.29872 0.2099 0.0
C390 C 0.61979 0.29681 0.15809 0.0
C391 C 0.57665 0.2885 0.09496 0.0
C392 C 0.5588 0.28861 0.1461 0.0
C393 C 0.5269 0.28132 0.13088 0.0
H394 H 0.42161 0.25769 0.91498 0.0
C395 C 0.5576 0.28377 0.04146 0.0
C396 C 0.52847 0.27896 0.0619 0.0
H397 H 0.41253 0.24882 0.10938 0.0
H398 H 0.46439 0.2622 0.12299 0.0
H399 H 0.46349 0.31644 0.91659 0.0
H400 H 0.48342 0.22257 0.90698 0.0
H401 H 0.50688 0.24097 0.85534 0.0
H402 H 0.46715 0.24262 0.84476 0.0
H403 H 0.45721 0.29485 0.84904 0.0
H404 H 0.49275 0.312 0.8645 0.0
C405 C 0.50709 0.30766 0.15146 0.0
C406 C 0.51882 0.2511 0.16096 0.0
C407 C 0.60198 0.29653 0.83174 0.0
C408 C 0.58973 0.29628 0.77331 0.0
C409 C 0.55913 0.29091 0.76554 0.0
C410 C 0.54086 0.28569 0.81612 0.0
C411 C 0.55344 0.28603 0.87472 0.0
C412 C 0.58352 0.2915 0.8816 0.0
C413 C 0.59307 0.29181 0.94688 0.0
C414 C 0.56375 0.28552 0.9784 0.0
C415 C 0.54068 0.28207 0.93605 0.0
C416 C 0.605 0.32348 0.96143 0.0
C417 C 0.61596 0.26632 0.9566 0.0
C418 C 0.43097 0.25858 0.96032 0.0
C419 C 0.41333 0.25221 0.01123 0.0
C420 C 0.42599 0.25355 0.06972 0.0
C421 C 0.45597 0.26125 0.07744 0.0
C422 C 0.47348 0.26731 0.02607 0.0
C423 C 0.46099 0.26566 0.96871 0.0
C424 C 0.48329 0.27141 0.9193 0.0
C425 C 0.51132 0.27624 0.95638 0.0
C426 C 0.50533 0.27436 0.01893 0.0
C427 C 0.47379 0.30002 0.88499 0.0
C428 C 0.48533 0.24312 0.87895 0.0
H429 H 0.62261 0.2912 0.06309 0.0
H430 H 0.55628 0.2953 0.24342 0.0
H431 H 0.53897 0.23771 0.17174 0.0
H432 H 0.50553 0.23661 0.13046 0.0
H433 H 0.50646 0.25448 0.20412 0.0
H434 H 0.51664 0.32919 0.1357 0.0
H435 H 0.50545 0.30852 0.2018 0.0
H436 H 0.48436 0.3065 0.13267 0.0
H437 H 0.6255 0.30078 0.83839 0.0
H438 H 0.54949 0.29081 0.72043 0.0
H439 H 0.51768 0.2817 0.80767 0.0
H440 H 0.59051 0.34081 0.94063 0.0
H441 H 0.62781 0.32654 0.94303 0.0
H442 H 0.60533 0.32874 0.01035 0.0
H443 H 0.61325 0.24825 0.92231 0.0
H444 H 0.61307 0.255 0.00088 0.0
H445 H 0.63916 0.27469 0.953 0.0
H446 H 0.64363 0.29985 0.16198 0.0
C447 C 0.60753 0.29187 0.10075 0.0
C448 C 0.29656 0.05825 0.30315 0.0
C449 C 0.29189 0.0892 0.30103 0.0
C450 C 0.29429 0.10621 0.35448 0.0
C451 C 0.30178 0.06109 0.41282 0.0
C452 C 0.30113 0.04461 0.35966 0.0
C453 C 0.30261 0.01159 0.37158 0.0
H454 H 0.29214 0.8977 0.57154 0.0
C455 C 0.30289 0.04007 0.46436 0.0
C456 C 0.30358 0.01101 0.44063 0.0
H457 H 0.30095 0.89274 0.37657 0.0
H458 H 0.30697 0.94637 0.37131 0.0
H459 H 0.34486 0.94752 0.59102 0.0
H460 H 0.24956 0.95498 0.57475 0.0
H461 H 0.26131 0.97775 0.6353 0.0
H462 H 0.26738 0.93815 0.63918 0.0
H463 H 0.32029 0.93694 0.65154 0.0
H464 H 0.333 0.97492 0.64282 0.0
C465 C 0.33171 0.9994 0.34319 0.0
C466 C 0.27378 0.99721 0.34619 0.0
C467 C 0.29001 0.08026 0.67829 0.0
C468 C 0.28628 0.06635 0.7347 0.0
C469 C 0.28959 0.03521 0.73921 0.0
C470 C 0.29532 0.0179 0.68729 0.0
C471 C 0.29746 0.03193 0.63033 0.0
C472 C 0.29556 0.06269 0.62687 0.0
C473 C 0.29764 0.0738 0.56272 0.0
C474 C 0.30097 0.0447 0.52805 0.0
C475 C 0.30054 0.02018 0.56767 0.0
C476 C 0.32588 0.09345 0.55749 0.0
C477 C 0.26807 0.09006 0.54731 0.0
C478 C 0.29563 0.90835 0.52798 0.0
C479 C 0.29592 0.89139 0.47427 0.0
C480 C 0.3006 0.90564 0.41824 0.0
C481 C 0.30396 0.93669 0.41541 0.0
C482 C 0.30236 0.95365 0.46916 0.0
C483 C 0.29899 0.9394 0.52441 0.0
C484 C 0.2982 0.96107 0.57676 0.0
C485 C 0.30114 0.99068 0.54375 0.0
C486 C 0.30315 0.98616 0.48064 0.0
C487 C 0.32531 0.95483 0.61823 0.0
C488 C 0.26766 0.95789 0.60875 0.0
H489 H 0.30019 0.10641 0.44978 0.0
H490 H 0.29454 0.04485 0.26236 0.0
H491 H 0.25421 0.01174 0.35527 0.0
H492 H 0.26824 0.9757 0.36752 0.0
H493 H 0.27531 0.99389 0.29626 0.0
H494 H 0.34971 0.01643 0.34469 0.0
H495 H 0.32836 0.99303 0.29487 0.0
H496 H 0.34079 0.98012 0.36837 0.0
H497 H 0.28723 0.10416 0.6739 0.0
H498 H 0.28662 0.02424 0.78261 0.0
H499 H 0.29693 0.99421 0.69321 0.0
H500 H 0.34416 0.08451 0.58629 0.0
H501 H 0.32138 0.11666 0.57263 0.0
H502 H 0.33516 0.09387 0.511 0.0
H503 H 0.249 0.08011 0.57239 0.0
H504 H 0.26169 0.08805 0.49905 0.0
H505 H 0.26918 0.11405 0.55977 0.0
H506 H 0.29079 0.13011 0.35324 0.0
C507 C 0.2995 0.09234 0.41036 0.0
C508 C 0.56521 0.75128 0.02353 0.0
C509 C 0.58346 0.75546 0.97241 0.0
C510 C 0.57215 0.74948 0.91408 0.0
C511 C 0.52491 0.73503 0.95794 0.0
C512 C 0.53613 0.74077 0.01529 0.0
C513 C 0.51387 0.73399 0.06453 0.0
H514 H 0.37665 0.68322 0.14098 0.0
C515 C 0.49435 0.72358 0.96488 0.0
C516 C 0.48786 0.72238 0.02727 0.0
H517 H 0.44254 0.72177 0.26014 0.0
H518 H 0.47686 0.72679 0.17538 0.0
H519 H 0.38187 0.73033 0.04748 0.0
H520 H 0.42215 0.64374 0.05372 0.0
H521 H 0.41019 0.64931 0.97847 0.0
H522 H 0.38332 0.64985 0.03944 0.0
H523 H 0.36222 0.69754 0.02378 0.0
H524 H 0.38427 0.71919 0.97152 0.0
C525 C 0.50623 0.76353 0.09774 0.0
C526 C 0.52703 0.70957 0.1062 0.0
C527 C 0.42875 0.70883 0.77962 0.0
C528 C 0.39918 0.6992 0.77347 0.0
C529 C 0.38434 0.68671 0.82354 0.0
C530 C 0.39811 0.68564 0.88042 0.0
C531 C 0.42694 0.69734 0.88715 0.0
C532 C 0.44228 0.70747 0.83685 0.0
C533 C 0.47313 0.71798 0.85277 0.0
C534 C 0.47273 0.71468 0.9215 0.0
C535 C 0.44552 0.70289 0.94116 0.0
C536 C 0.47619 0.75102 0.83327 0.0
C537 C 0.49589 0.69665 0.82234 0.0
C538 C 0.39869 0.69229 0.14876 0.0
C539 C 0.40717 0.702 0.20674 0.0
C540 C 0.43576 0.71415 0.2155 0.0
C541 C 0.45546 0.71715 0.16631 0.0
C542 C 0.44618 0.70835 0.10785 0.0
C543 C 0.41819 0.69613 0.10009 0.0
C544 C 0.41074 0.69064 0.03463 0.0
C545 C 0.43898 0.7013 0.00406 0.0
C546 C 0.45986 0.71131 0.04699 0.0
C547 C 0.3833 0.71015 0.0181 0.0
C548 C 0.4061 0.65667 0.02569 0.0
H549 H 0.53552 0.73516 0.86104 0.0
H550 H 0.57364 0.75563 0.06881 0.0
H551 H 0.53771 0.69173 0.07859 0.0
H552 H 0.51003 0.69824 0.13397 0.0
H553 H 0.54422 0.71904 0.13697 0.0
H554 H 0.50781 0.78292 0.06642 0.0
H555 H 0.52172 0.76767 0.13617 0.0
H556 H 0.4831 0.76408 0.11468 0.0
H557 H 0.4405 0.71833 0.74131 0.0
H558 H 0.36154 0.67914 0.81911 0.0
H559 H 0.38533 0.67687 0.91744 0.0
H560 H 0.45616 0.76392 0.84709 0.0
H561 H 0.4785 0.75289 0.78317 0.0
H562 H 0.49527 0.76243 0.85456 0.0
H563 H 0.48584 0.67458 0.81152 0.0
H564 H 0.51487 0.69142 0.85261 0.0
H565 H 0.5045 0.70607 0.77913 0.0
H566 H 0.58608 0.75251 0.8744 0.0
C567 C 0.54294 0.73931 0.90655 0.0
C568 C 0.13147 0.19878 0.14476 0.0
C569 C 0.16094 0.20963 0.15221 0.0
C570 C 0.14806 0.22664 0.25439 0.0
C571 C 0.12113 0.21031 0.25116 0.0
N572 N 0.0885 0.17759 0.19471 0.0
N573 N 0.19887 0.2289 0.22059 0.0
C574 C 0.11297 0.19564 0.19656 0.0
C575 C 0.1697 0.22258 0.2085 0.0
N576 N 0.12093 0.19215 0.08813 0.0
N577 N 0.15298 0.24599 0.30136 0.0
H578 H 0.21624 0.22445 0.19074 0.0
H579 H 0.20626 0.2355 0.26345 0.0
H580 H 0.13724 0.24996 0.33529 0.0
H581 H 0.1712 0.26038 0.30277 0.0
H582 H 0.09882 0.18652 0.07971 0.0
H583 H 0.13342 0.19571 0.04892 0.0
H584 H 0.0835 0.16397 0.15767 0.0
H585 H 0.07462 0.1742 0.23201 0.0
C586 C 0.21592 0.62458 0.64067 0.0
C587 C 0.24336 0.64 0.64621 0.0
C588 C 0.25149 0.61692 0.74566 0.0
C589 C 0.22215 0.60534 0.74401 0.0
N590 N 0.17506 0.60016 0.69267 0.0
N591 N 0.28591 0.65374 0.70761 0.0
C592 C 0.20395 0.60963 0.69215 0.0
C593 C 0.26091 0.63683 0.69954 0.0
N594 N 0.20199 0.62314 0.58556 0.0
N595 N 0.27065 0.60831 0.79063 0.0
H596 H 0.2939 0.66852 0.67518 0.0
H597 H 0.29742 0.65499 0.74863 0.0
H598 H 0.26469 0.59352 0.82509 0.0
H599 H 0.29325 0.61347 0.79047 0.0
H600 H 0.18329 0.61002 0.5773 0.0
H601 H 0.21092 0.63274 0.54645 0.0
H602 H 0.1598 0.60554 0.6588 0.0
H603 H 0.16575 0.58875 0.7293 0.0
C604 C 0.86244 0.82354 0.1429 0.0
C605 C 0.83274 0.81323 0.15038 0.0
C606 C 0.84512 0.79677 0.25315 0.0
C607 C 0.87286 0.81161 0.24927 0.0
N608 N 0.90623 0.84337 0.19276 0.0
N609 N 0.79412 0.79721 0.22024 0.0
C610 C 0.88117 0.82616 0.1947 0.0
C611 C 0.82356 0.80165 0.2075 0.0
N612 N 0.87319 0.82978 0.08632 0.0
N613 N 0.83939 0.77774 0.30014 0.0
H614 H 0.77699 0.80296 0.19068 0.0
H615 H 0.78654 0.79136 0.26336 0.0
H616 H 0.85504 0.77285 0.33371 0.0
H617 H 0.8204 0.7644 0.30182 0.0
H618 H 0.89547 0.83474 0.078 0.0
H619 H 0.86069 0.82677 0.04698 0.0
H620 H 0.91154 0.85691 0.15589 0.0
H621 H 0.92031 0.84622 0.22999 0.0
C622 C 0.77474 0.40425 0.62588 0.0
C623 C 0.76641 0.37483 0.64401 0.0
C624 C 0.79603 0.38149 0.73629 0.0
C625 C 0.79699 0.41257 0.72597 0.0
N626 N 0.80997 0.44424 0.64253 0.0
N627 N 0.76744 0.33678 0.72249 0.0
C628 C 0.79272 0.42186 0.66528 0.0
C629 C 0.77691 0.36364 0.70056 0.0
N630 N 0.76567 0.41569 0.57161 0.0
N631 N 0.81616 0.36854 0.7743 0.0
H632 H 0.75133 0.3238 0.70099 0.0
H633 H 0.77318 0.32927 0.76577 0.0
H634 H 0.83316 0.38099 0.7945 0.0
H635 H 0.81806 0.34548 0.77913 0.0
H636 H 0.76845 0.43807 0.56013 0.0
H637 H 0.7537 0.40355 0.53984 0.0
H638 H 0.81018 0.45024 0.59682 0.0
H639 H 0.82721 0.45357 0.66812 0.0
C640 C 0.65472 0.33723 0.31487 0.0
C641 C 0.65592 0.31712 0.36456 0.0
C642 C 0.61704 0.28655 0.3177 0.0
C643 C 0.61557 0.30701 0.26868 0.0
N644 N 0.62505 0.35678 0.23234 0.0
N645 N 0.63091 0.27936 0.42303 0.0
C646 C 0.63161 0.33417 0.27163 0.0
C647 C 0.63462 0.29393 0.3692 0.0
N648 N 0.67678 0.35768 0.3059 0.0
N649 N 0.60333 0.25943 0.31392 0.0
H650 H 0.64292 0.28513 0.46189 0.0
H651 H 0.61401 0.26387 0.43044 0.0
H652 H 0.59065 0.25283 0.2766 0.0
H653 H 0.60654 0.24261 0.34588 0.0
H654 H 0.67834 0.37075 0.26693 0.0
H655 H 0.69521 0.35943 0.33415 0.0
H656 H 0.63449 0.37796 0.23578 0.0
H657 H 0.60783 0.35521 0.20063 0.0
C658 C 0.23359 0.10074 0.85028 0.0
C659 C 0.25298 0.12089 0.88093 0.0
C660 C 0.29544 0.09995 0.82471 0.0
C661 C 0.27528 0.08393 0.7873 0.0
N662 N 0.22483 0.07126 0.75991 0.0
N663 N 0.30274 0.12894 0.9169 0.0
C664 C 0.24428 0.08482 0.799 0.0
C665 C 0.28416 0.1175 0.87361 0.0
N666 N 0.20596 0.09449 0.87279 0.0
N667 N 0.32519 0.09926 0.81196 0.0
H668 H 0.29468 0.13963 0.95574 0.0
H669 H 0.32557 0.12513 0.91807 0.0
H670 H 0.33419 0.08583 0.77783 0.0
H671 H 0.34074 0.11317 0.83265 0.0
H672 H 0.19183 0.0786 0.8538 0.0
H673 H 0.19913 0.10065 0.91609 0.0
H674 H 0.20191 0.07462 0.76164 0.0
H675 H 0.23159 0.05869 0.72246 0.0
C676 C 0.3341 0.71088 0.28938 0.0
C677 C 0.33924 0.69531 0.34469 0.0
C678 C 0.38883 0.68129 0.30634 0.0
C679 C 0.38502 0.70098 0.25675 0.0
N680 N 0.35626 0.7399 0.20904 0.0
N681 N 0.37433 0.66806 0.40813 0.0
C682 C 0.35841 0.7176 0.25104 0.0
C683 C 0.36739 0.68111 0.35394 0.0
N684 N 0.30582 0.71719 0.27053 0.0
N685 N 0.41225 0.66184 0.30698 0.0
H686 H 0.35972 0.6662 0.44436 0.0
H687 H 0.39578 0.66105 0.41906 0.0
H688 H 0.42837 0.66119 0.27295 0.0
H689 H 0.41416 0.64453 0.33827 0.0
H690 H 0.30118 0.72648 0.22818 0.0
H691 H 0.28692 0.7092 0.29258 0.0
H692 H 0.33807 0.75429 0.20701 0.0
H693 H 0.37388 0.74596 0.18077 0.0
C694 C 0.76135 0.88152 0.79222 0.0
C695 C 0.7442 0.87674 0.84548 0.0
C696 C 0.70305 0.90557 0.80202 0.0
C697 C 0.72053 0.91089 0.74955 0.0
N698 N 0.7687 0.91093 0.70129 0.0
N699 N 0.70241 0.89057 0.9079 0.0
C700 C 0.7505 0.90111 0.74686 0.0
C701 C 0.71611 0.89073 0.85249 0.0
N702 N 0.78731 0.86626 0.78341 0.0
N703 N 0.67379 0.91378 0.8028 0.0
H704 H 0.71186 0.88051 0.94603 0.0
H705 H 0.68316 0.90262 0.91745 0.0
H706 H 0.66372 0.9252 0.76702 0.0
H707 H 0.65905 0.90751 0.83698 0.0
H708 H 0.79887 0.86612 0.74242 0.0
H709 H 0.7962 0.85177 0.81545 0.0
H710 H 0.79155 0.9071 0.70049 0.0
H711 H 0.76153 0.9254 0.66721 0.0
C712 C 0.85898 0.7844 0.85658 0.0
C713 C 0.84882 0.81303 0.87459 0.0
C714 C 0.88932 0.83612 0.8165 0.0
C715 C 0.89603 0.80796 0.79078 0.0
N716 N 0.88619 0.75521 0.78246 0.0
N717 N 0.85304 0.86677 0.86842 0.0
C718 C 0.88078 0.78198 0.81017 0.0
C719 C 0.86391 0.83912 0.85445 0.0
N720 N 0.84839 0.75957 0.88517 0.0
N721 N 0.90734 0.85996 0.80452 0.0
H722 H 0.83457 0.87024 0.89605 0.0
H723 H 0.86089 0.88636 0.84878 0.0
H724 H 0.92602 0.85836 0.77655 0.0
H725 H 0.90546 0.88044 0.82656 0.0
H726 H 0.85692 0.73824 0.87816 0.0
H727 H 0.83324 0.76079 0.92084 0.0
H728 H 0.87317 0.7363 0.78942 0.0
H729 H 0.90251 0.75233 0.7493 0.0
C730 C 0.78938 0.38072 0.35418 0.0
C731 C 0.75937 0.3832 0.37356 0.0
C732 C 0.74976 0.42088 0.29578 0.0
C733 C 0.77958 0.41794 0.27548 0.0
N734 N 0.82963 0.40118 0.29343 0.0
N735 N 0.71403 0.41225 0.37589 0.0
C736 C 0.80004 0.39979 0.30747 0.0
C737 C 0.74063 0.40563 0.349 0.0
N738 N 0.80752 0.35988 0.38005 0.0
N739 N 0.72956 0.4365 0.26196 0.0
H740 H 0.70582 0.40103 0.41368 0.0
H741 H 0.70116 0.43061 0.36371 0.0
H742 H 0.7351 0.44803 0.22248 0.0
H743 H 0.70675 0.43607 0.27028 0.0
H744 H 0.8284 0.35417 0.36325 0.0
H745 H 0.80114 0.34758 0.41793 0.0
H746 H 0.8462 0.3905 0.31822 0.0
H747 H 0.83794 0.41524 0.2597 0.0
C748 C 0.13808 0.22198 0.86023 0.0
C749 C 0.14821 0.19342 0.87835 0.0
C750 C 0.10844 0.16996 0.81866 0.0
C751 C 0.10154 0.19817 0.7935 0.0
N752 N 0.11076 0.25107 0.78636 0.0
N753 N 0.14371 0.13982 0.87479 0.0
C754 C 0.11643 0.22427 0.81358 0.0
C755 C 0.13332 0.16725 0.85818 0.0
N756 N 0.14848 0.24685 0.88915 0.0
N757 N 0.09099 0.14588 0.80494 0.0
H758 H 0.16099 0.13698 0.90569 0.0
H759 H 0.13636 0.11989 0.85565 0.0
H760 H 0.07273 0.14727 0.7758 0.0
H761 H 0.09296 0.12523 0.82609 0.0
H762 H 0.14 0.26818 0.88213 0.0
H763 H 0.16343 0.24562 0.92514 0.0
H764 H 0.12352 0.27012 0.79378 0.0
H765 H 0.09446 0.25389 0.75314 0.0
C766 C 0.26264 0.60357 0.34365 0.0
C767 C 0.24196 0.62307 0.37195 0.0
C768 C 0.20089 0.59837 0.31795 0.0
C769 C 0.22199 0.58187 0.28378 0.0
N770 N 0.27303 0.57008 0.25977 0.0
N771 N 0.19149 0.63905 0.38868 0.0
C772 C 0.25289 0.58456 0.29594 0.0
C773 C 0.21102 0.62033 0.36011 0.0
N774 N 0.29161 0.60306 0.36257 0.0
N775 N 0.17123 0.59268 0.31037 0.0
H776 H 0.198 0.65369 0.42309 0.0
H777 H 0.16909 0.64086 0.37735 0.0
H778 H 0.16331 0.57682 0.27961 0.0
H779 H 0.15456 0.60194 0.33721 0.0
H780 H 0.30698 0.58715 0.34834 0.0
H781 H 0.2998 0.61676 0.39692 0.0
H782 H 0.29582 0.57418 0.26096 0.0
H783 H 0.2669 0.55535 0.22525 0.0
C784 C 0.34073 0.73141 0.66792 0.0
C785 C 0.34428 0.71217 0.61705 0.0
C786 C 0.38818 0.68969 0.6631 0.0
C787 C 0.3823 0.70567 0.71732 0.0
N788 N 0.35931 0.74797 0.7663 0.0
N789 N 0.38198 0.68999 0.55421 0.0
C790 C 0.36048 0.72862 0.71816 0.0
C791 C 0.37127 0.69629 0.61063 0.0
N792 N 0.31908 0.75277 0.66689 0.0
N793 N 0.40919 0.66772 0.66192 0.0
H794 H 0.37263 0.69986 0.51586 0.0
H795 H 0.4025 0.67982 0.54669 0.0
H796 H 0.42214 0.6622 0.69959 0.0
H797 H 0.41208 0.65359 0.6247 0.0
H798 H 0.31246 0.76527 0.70434 0.0
H799 H 0.30826 0.75864 0.62678 0.0
H800 H 0.34498 0.76609 0.76925 0.0
H801 H 0.37417 0.74702 0.80265 0.0
C802 C 0.7056 0.8865 0.13097 0.0
C803 C 0.73678 0.88456 0.12119 0.0
C804 C 0.74565 0.92185 0.20078 0.0
C805 C 0.71451 0.9241 0.2101 0.0
N806 N 0.66444 0.91265 0.17931 0.0
N807 N 0.78598 0.90496 0.13667 0.0
C808 C 0.69432 0.90764 0.1736 0.0
C809 C 0.75664 0.90374 0.15282 0.0
N810 N 0.68691 0.8679 0.09977 0.0
N811 N 0.76484 0.93602 0.23959 0.0
H812 H 0.7952 0.89186 0.1025 0.0
H813 H 0.80078 0.92089 0.15324 0.0
H814 H 0.75784 0.95024 0.2743 0.0
H815 H 0.78766 0.93207 0.24043 0.0
H816 H 0.66438 0.8655 0.10933 0.0
H817 H 0.69426 0.8539 0.06499 0.0
H818 H 0.64843 0.90352 0.15065 0.0
H819 H 0.65565 0.92776 0.21064 0.0
C820 C 0.64087 0.28422 0.63806 0.0
C821 C 0.65466 0.31262 0.6354 0.0
C822 C 0.6199 0.33174 0.71161 0.0
C823 C 0.60937 0.30229 0.72089 0.0
N824 N 0.61111 0.24977 0.69701 0.0
N825 N 0.6589 0.36333 0.67131 0.0
C826 C 0.61998 0.27831 0.68482 0.0
C827 C 0.64443 0.3365 0.67221 0.0
N828 N 0.6473 0.26316 0.59504 0.0
N829 N 0.60616 0.35511 0.74007 0.0
H830 H 0.6765 0.3679 0.64197 0.0
H831 H 0.6548 0.38041 0.70229 0.0
H832 H 0.58805 0.35228 0.76916 0.0
H833 H 0.61086 0.37737 0.73077 0.0
H834 H 0.63592 0.24302 0.59105 0.0
H835 H 0.66204 0.26711 0.55942 0.0
H836 H 0.62077 0.23105 0.67706 0.0
H837 H 0.59546 0.24457 0.73031 0.0
C838 C 0.28827 0.13516 0.15556 0.0
C839 C 0.257 0.13667 0.14739 0.0
C840 C 0.24954 0.10227 0.23256 0.0
C841 C 0.2805 0.10355 0.24503 0.0
N842 N 0.32954 0.12174 0.22137 0.0
N843 N 0.2074 0.12319 0.17916 0.0
C844 C 0.29998 0.12004 0.20713 0.0
C845 C 0.23751 0.12033 0.18569 0.0
N846 N 0.30667 0.14752 0.11301 0.0
N847 N 0.23158 0.08371 0.26559 0.0
H848 H 0.19758 0.1347 0.14348 0.0
H849 H 0.19199 0.11555 0.21081 0.0
H850 H 0.23899 0.07141 0.30275 0.0
H851 H 0.20968 0.07881 0.25387 0.0
H852 H 0.32968 0.145 0.11299 0.0
H853 H 0.29867 0.15829 0.07434 0.0
H854 H 0.34443 0.13609 0.20003 0.0
H855 H 0.33901 0.10979 0.25712 0.0
C856 C 0.24087 0.31367 0.94768 0.0
C857 C 0.21821 0.29477 0.97067 0.0
C858 C 0.18541 0.33799 0.98475 0.0
C859 C 0.20904 0.3571 0.96719 0.0
N860 N 0.26069 0.36386 0.94091 0.0
N861 N 0.17049 0.28888 0.01925 0.0
C862 C 0.23717 0.34513 0.9509 0.0
C863 C 0.19087 0.30691 0.99142 0.0
N864 N 0.26581 0.30153 0.92212 0.0
N865 N 0.15756 0.34949 0.99352 0.0
H866 H 0.17338 0.26592 0.02368 0.0
H867 H 0.15171 0.29688 0.04164 0.0
H868 H 0.15282 0.37218 0.98955 0.0
H869 H 0.13871 0.33636 -0.00012 0.0
H870 H 0.28169 0.31394 0.89879 0.0
H871 H 0.26946 0.27863 0.91967 0.0
H872 H 0.28252 0.35653 0.9357 0.0
H873 H 0.25892 0.38704 0.94291 0.0
C874 C 0.1647 0.75317 0.44546 0.0
C875 C 0.17419 0.72708 0.47626 0.0
C876 C 0.1223 0.71497 0.50052 0.0
C877 C 0.11332 0.74274 0.47572 0.0
N878 N 0.12665 0.791 0.43561 0.0
N879 N 0.16272 0.68467 0.53912 0.0
C880 C 0.13471 0.76261 0.45115 0.0
C881 C 0.15317 0.70844 0.50572 0.0
N882 N 0.18415 0.76874 0.40986 0.0
N883 N 0.10134 0.69441 0.51699 0.0
H884 H 0.18505 0.67868 0.54183 0.0
H885 H 0.14889 0.67218 0.56725 0.0
H886 H 0.07853 0.69832 0.51334 0.0
H887 H 0.10645 0.67261 0.52936 0.0
H888 H 0.17765 0.78608 0.38137 0.0
H889 H 0.20635 0.76268 0.40453 0.0
H890 H 0.14194 0.80747 0.42383 0.0
H891 H 0.10499 0.79905 0.44024 0.0
C892 C 0.75587 0.6947 0.9803 0.0
C893 C 0.7787 0.71545 0.99428 0.0
C894 C 0.81387 0.6744 0.01023 0.0
C895 C 0.79025 0.65375 0.00246 0.0
N896 N 0.73784 0.64398 0.98912 0.0
N897 N 0.82843 0.72566 0.02971 0.0
C898 C 0.76097 0.66381 0.9898 0.0
C899 C 0.8075 0.70548 0.01108 0.0
N900 N 0.72955 0.70444 0.95639 0.0
N901 N 0.84244 0.66427 0.01538 0.0
H902 H 0.82467 0.74862 0.03007 0.0
H903 H 0.84873 0.71964 0.04888 0.0
H904 H 0.84781 0.64163 0.01522 0.0
H905 H 0.86098 0.67818 0.01478 0.0
H906 H 0.71324 0.69022 0.93928 0.0
H907 H 0.72503 0.72688 0.94865 0.0
H908 H 0.7156 0.65041 0.98732 0.0
H909 H 0.74061 0.6211 0.99538 0.0
C910 C 0.82931 0.25053 0.4802 0.0
C911 C 0.82061 0.28036 0.49234 0.0
C912 C 0.87282 0.29561 0.49958 0.0
C913 C 0.8814 0.26545 0.49136 0.0
N914 N 0.86847 0.21339 0.48331 0.0
N915 N 0.83317 0.33045 0.5232 0.0
C916 C 0.8598 0.24264 0.48448 0.0
C917 C 0.84212 0.30272 0.5047 0.0
N918 N 0.80851 0.22997 0.46271 0.0
N919 N 0.89401 0.31749 0.50108 0.0
H920 H 0.81085 0.33658 0.52655 0.0
H921 H 0.84769 0.34672 0.5394 0.0
H922 H 0.91677 0.31299 0.49925 0.0
H923 H 0.8891 0.34017 0.49995 0.0
H924 H 0.81374 0.20871 0.44692 0.0
H925 H 0.78593 0.2349 0.45934 0.0
H926 H 0.85366 0.19556 0.48538 0.0
H927 H 0.8907 0.20676 0.48507 0.0
C928 C 0.73566 0.19546 0.53643 0.0
C929 C 0.71593 0.21503 0.50558 0.0
C930 C 0.68304 0.17281 0.48206 0.0
C931 C 0.70405 0.15308 0.50835 0.0
N932 N 0.75341 0.14481 0.54795 0.0
N933 N 0.67358 0.2217 0.43977 0.0
C934 C 0.73124 0.16418 0.53201 0.0
C935 C 0.69047 0.20348 0.47541 0.0
N936 N 0.75846 0.20662 0.57066 0.0
N937 N 0.65558 0.16248 0.46556 0.0
H938 H 0.67819 0.24427 0.43464 0.0
H939 H 0.65663 0.21402 0.41152 0.0
H940 H 0.64929 0.1402 0.47009 0.0
H941 H 0.6382 0.17637 0.45229 0.0
H942 H 0.77131 0.19357 0.59967 0.0
H943 H 0.76314 0.22927 0.57405 0.0
H944 H 0.77489 0.15165 0.55905 0.0
H945 H 0.75132 0.12171 0.54427 0.0
C946 C 0.32932 0.25547 0.02764 0.0
C947 C 0.32045 0.22985 0.99382 0.0
C948 C 0.37273 0.21833 0.97293 0.0
C949 C 0.38136 0.24484 0.00355 0.0
N950 N 0.36751 0.29256 0.04552 0.0
N951 N 0.33344 0.19191 0.92056 0.0
C952 C 0.35954 0.26458 0.02671 0.0
C953 C 0.34207 0.2129 0.96194 0.0
N954 N 0.30904 0.27117 0.06102 0.0
N955 N 0.39366 0.19769 0.95669 0.0
H956 H 0.31122 0.1877 0.91047 0.0
H957 H 0.34828 0.18095 0.89183 0.0
H958 H 0.41632 0.20049 0.96512 0.0
H959 H 0.38828 0.17659 0.94009 0.0
H960 H 0.31499 0.28748 0.09254 0.0
H961 H 0.28639 0.26676 0.06034 0.0
H962 H 0.35214 0.30909 0.05658 0.0
H963 H 0.38937 0.30035 0.04418 0.0
C964 C 0.25343 0.81821 0.48688 0.0
C965 C 0.27682 0.79723 0.48 0.0
C966 C 0.31319 0.838 0.47412 0.0
C967 C 0.2895 0.85889 0.47613 0.0
N968 N 0.23686 0.8693 0.47493 0.0
N969 N 0.32847 0.78641 0.46069 0.0
C970 C 0.25953 0.8491 0.47975 0.0
C971 C 0.30661 0.80693 0.47181 0.0
N972 N 0.2256 0.80868 0.50272 0.0
N973 N 0.34195 0.8479 0.47616 0.0
H974 H 0.32456 0.76347 0.46026 0.0
H975 H 0.35002 0.79203 0.44777 0.0
H976 H 0.34752 0.87049 0.47696 0.0
H977 H 0.36024 0.83391 0.48143 0.0
H978 H 0.20836 0.823 0.51488 0.0
H979 H 0.22035 0.78626 0.50884 0.0
H980 H 0.21461 0.86325 0.47017 0.0
H981 H 0.24039 0.8922 0.47076 0.0
C982 C 0.65445 0.80139 0.9594 0.0
C983 C 0.6751 0.7824 0.98895 0.0
C984 C 0.63595 0.74519 0.00501 0.0
C985 C 0.61485 0.76511 0.97967 0.0
N986 N 0.60265 0.81426 0.94301 0.0
N987 N 0.68427 0.73914 0.0515 0.0
C988 C 0.62371 0.79386 0.95974 0.0
C989 C 0.66546 0.7552 0.01543 0.0
N990 N 0.66427 0.82641 0.93034 0.0
N991 N 0.62818 0.71626 0.01667 0.0
H992 H 0.70605 0.74565 0.06039 0.0
H993 H 0.67748 0.72085 0.0771 0.0
H994 H 0.60685 0.70787 0.00915 0.0
H995 H 0.64352 0.69986 0.0285 0.0
H996 H 0.65093 0.83943 0.90225 0.0
H997 H 0.68648 0.833 0.93101 0.0
H998 H 0.60743 0.83653 0.93398 0.0
H999 H 0.57992 0.80958 0.94331 0.0
loop_
_geom_bond_atom_site_label_1
_geom_bond_atom_site_label_2
_geom_bond_distance
_geom_bond_site_symmetry_2
_ccdc_geom_bond_type
Fe0 O2 1.918 . S
Fe0 O5 1.997 . S
Fe0 O6 2.002 . S
Fe0 O11 1.976 . S
Fe0 O14 1.996 . S
Fe1 O2 1.918 1_556 S
Fe1 O9 1.997 . S
Fe1 O12 1.996 . S
Fe1 O16 1.976 . S
Fe1 O19 2.002 . S
O2 Fe0 1.918 . S
O2 Fe1 1.918 1_554 S
O2 Fe3 1.918 1_554 S
Fe3 O2 1.918 1_556 S
Fe3 O4 1.997 1_556 S
Fe3 O13 1.970 1_556 S
Fe3 O17 2.002 . S
Fe3 O20 2.003 . S
O4 Fe3 1.997 1_554 S
O4 C21 1.295 . S
O5 Fe0 1.997 . S
O5 C21 1.235 . S
O6 Fe0 2.002 . S
O6 C7 1.295 . S
C7 O6 1.295 . S
C7 O9 1.235 1_554 S
C8 O13 1.287 . S
C8 O14 1.255 . S
O9 Fe1 1.997 . S
O9 C7 1.235 1_556 S
C10 O16 1.287 . S
C10 O17 1.255 . S
O11 Fe0 1.976 . S
O11 C18 1.287 1_554 S
O12 Fe1 1.996 . S
O12 C18 1.255 . S
O13 Fe3 1.970 1_554 S
O13 C8 1.287 . S
O14 Fe0 1.996 . S
O14 C8 1.255 . S
C15 O19 1.295 . S
C15 O20 1.235 . S
O16 Fe1 1.976 . S
O16 C10 1.287 . S
O17 Fe3 2.002 . S
O17 C10 1.255 . S
C18 O11 1.287 1_556 S
C18 O12 1.255 . S
O19 Fe1 2.002 . S
O19 C15 1.295 . S
O20 Fe3 2.003 . S
O20 C15 1.235 . S
C21 O4 1.295 . S
C21 O5 1.235 . S
Fe22 O24 1.918 . S
Fe22 O27 1.997 . S
Fe22 O28 2.002 . S
Fe22 O33 1.976 . S
Fe22 O36 1.996 . S
Fe23 O24 1.918 . S
Fe23 O31 1.997 . S
Fe23 O34 1.996 . S
Fe23 O38 1.976 . S
Fe23 O41 2.002 . S
O24 Fe22 1.918 . S
O24 Fe23 1.918 . S
O24 Fe25 1.918 . S
Fe25 O24 1.918 . S
Fe25 O26 2.002 . S
Fe25 O35 1.976 . S
Fe25 O39 1.996 . S
Fe25 O42 1.997 . S
O26 Fe25 2.002 . S
O26 C43 1.295 . S
O27 Fe22 1.997 . S
O27 C43 1.235 . S
O28 Fe22 2.002 . S
O28 C29 1.295 . S
C29 O28 1.295 . S
C29 O31 1.235 . S
C30 O35 1.287 . S
C30 O36 1.255 . S
O31 Fe23 1.997 . S
O31 C29 1.235 . S
C32 O38 1.287 . S
C32 O39 1.255 . S
O33 Fe22 1.976 . S
O33 C40 1.287 . S
O34 Fe23 1.996 . S
O34 C40 1.255 . S
O35 Fe25 1.976 . S
O35 C30 1.287 . S
O36 Fe22 1.996 . S
O36 C30 1.255 . S
C37 O41 1.295 . S
C37 O42 1.235 . S
O38 Fe23 1.976 . S
O38 C32 1.287 . S
O39 Fe25 1.996 . S
O39 C32 1.255 . S
C40 O33 1.287 . S
C40 O34 1.255 . S
O41 Fe23 2.002 . S
O41 C37 1.295 . S
O42 Fe25 1.997 . S
O42 C37 1.235 . S
C43 O26 1.295 . S
C43 O27 1.235 . S
Fe44 O46 1.918 1_556 S
Fe44 O49 1.997 . S
Fe44 O50 2.002 . S
Fe44 O55 1.976 . S
Fe44 O58 1.996 . S
Fe45 O46 1.918 . S
Fe45 O53 1.997 . S
Fe45 O56 1.996 . S
Fe45 O60 1.976 . S
Fe45 O63 2.002 . S
O46 Fe44 1.918 1_554 S
O46 Fe45 1.918 . S
O46 Fe47 1.918 . S
Fe47 O46 1.918 . S
Fe47 O48 1.994 1_554 S
Fe47 O57 1.967 1_554 S
Fe47 O61 2.005 . S
Fe47 O64 2.006 . S
O48 Fe47 1.994 1_556 S
O48 C65 1.295 . S
O49 Fe44 1.997 . S
O49 C65 1.235 . S
O50 Fe44 2.002 . S
O50 C51 1.295 . S
C51 O50 1.295 . S
C51 O53 1.235 1_556 S
C52 O57 1.287 . S
C52 O58 1.255 . S
O53 Fe45 1.997 . S
O53 C51 1.235 1_554 S
C54 O60 1.287 . S
C54 O61 1.255 . S
O55 Fe44 1.976 . S
O55 C62 1.287 1_556 S
O56 Fe45 1.996 . S
O56 C62 1.255 . S
O57 Fe47 1.967 1_556 S
O57 C52 1.287 . S
O58 Fe44 1.996 . S
O58 C52 1.255 . S
C59 O63 1.295 . S
C59 O64 1.235 . S
O60 Fe45 1.976 . S
O60 C54 1.287 . S
O61 Fe47 2.005 . S
O61 C54 1.255 . S
C62 O55 1.287 1_554 S
C62 O56 1.255 . S
O63 Fe45 2.002 . S
O63 C59 1.295 . S
O64 Fe47 2.006 . S
O64 C59 1.235 . S
C65 O48 1.295 . S
C65 O49 1.235 . S
Fe66 O68 1.918 . S
Fe66 O71 1.997 . S
Fe66 O72 2.002 . S
Fe66 O77 1.976 . S
Fe66 O80 1.996 . S
Fe67 O68 1.918 . S
Fe67 O75 1.997 . S
Fe67 O78 1.996 . S
Fe67 O82 1.976 . S
Fe67 O85 2.002 . S
O68 Fe66 1.918 . S
O68 Fe67 1.918 . S
O68 Fe69 1.918 . S
Fe69 O68 1.918 . S
Fe69 O70 2.002 . S
Fe69 O79 1.976 . S
Fe69 O83 1.996 . S
Fe69 O86 1.997 . S
O70 Fe69 2.002 . S
O70 C87 1.295 . S
O71 Fe66 1.997 . S
O71 C87 1.235 . S
O72 Fe66 2.002 . S
O72 C73 1.295 . S
C73 O72 1.295 . S
C73 O75 1.235 . S
C74 O79 1.287 . S
C74 O80 1.255 . S
O75 Fe67 1.997 . S
O75 C73 1.235 . S
C76 O82 1.287 . S
C76 O83 1.255 . S
O77 Fe66 1.976 . S
O77 C84 1.287 . S
O78 Fe67 1.996 . S
O78 C84 1.255 . S
O79 Fe69 1.976 . S
O79 C74 1.287 . S
O80 Fe66 1.996 . S
O80 C74 1.255 . S
C81 O85 1.295 . S
C81 O86 1.235 . S
O82 Fe67 1.976 . S
O82 C76 1.287 . S
O83 Fe69 1.996 . S
O83 C76 1.255 . S
C84 O77 1.287 . S
C84 O78 1.255 . S
O85 Fe67 2.002 . S
O85 C81 1.295 . S
O86 Fe69 1.997 . S
O86 C81 1.235 . S
C87 O70 1.295 . S
C87 O71 1.235 . S
C88 C89 1.391 . S
C88 C92 1.391 . S
C88 H130 0.948 . S
C89 C88 1.391 . S
C89 C90 1.391 . S
C90 C89 1.391 . S
C90 H146 0.947 . S
C90 C147 1.392 . S
C91 C92 1.391 . S
C91 C95 1.397 . S
C91 C147 1.419 . S
C92 C88 1.391 . S
C92 C91 1.391 . S
C92 C93 1.399 . S
C93 C92 1.399 . S
C93 C96 1.396 . S
C93 C105 1.453 . S
C93 C106 1.684 . S
H94 C118 0.948 . S
C95 C91 1.397 . S
C95 C96 1.394 . S
C95 C114 1.723 1_556 S
C96 C93 1.396 . S
C96 C95 1.394 . S
C96 C126 1.723 . S
H97 C120 0.947 . S
H98 C121 0.948 . S
H99 C127 0.982 . S
H100 C128 0.979 . S
H101 C128 0.980 . S
H102 C128 0.983 . S
H103 C127 0.979 . S
H104 C127 0.977 . S
C105 C93 1.453 . S
C105 H134 0.982 . S
C105 H135 0.979 . S
C105 H136 0.977 . S
C106 C93 1.684 . S
C106 H131 0.979 . S
C106 H132 0.980 . S
C106 H133 0.983 . S
C107 C108 1.391 . S
C107 C112 1.391 . S
C107 H137 0.948 . S
C108 C107 1.391 . S
C108 C109 1.391 . S
C109 C108 1.391 . S
C109 C110 1.392 . S
C109 H138 0.947 . S
C110 C109 1.392 . S
C110 C111 1.419 . S
C110 H139 0.948 . S
C111 C110 1.419 . S
C111 C112 1.391 . S
C111 C115 1.397 . S
C112 C107 1.391 . S
C112 C111 1.391 . S
C112 C113 1.399 . S
C113 C112 1.399 . S
C113 C114 1.396 . S
C113 C116 1.453 . S
C113 C117 1.684 . S
C114 C95 1.723 1_554 S
C114 C113 1.396 . S
C114 C115 1.394 . S
C115 C111 1.397 . S
C115 C114 1.394 . S
C115 C125 1.723 . S
C116 C113 1.453 . S
C116 H140 0.982 . S
C116 H141 0.979 . S
C116 H142 0.977 1_554 S
C117 C113 1.684 . S
C117 H143 0.979 . S
C117 H144 0.980 1_554 S
C117 H145 0.983 . S
C118 H94 0.948 . S
C118 C119 1.391 1_554 S
C118 C123 1.391 . S
C119 C118 1.391 1_556 S
C119 C120 1.391 . S
C120 H97 0.947 . S
C120 C119 1.391 . S
C120 C121 1.392 . S
C121 H98 0.948 . S
C121 C120 1.392 . S
C121 C122 1.419 . S
C122 C121 1.419 . S
C122 C123 1.391 1_556 S
C122 C126 1.397 . S
C123 C118 1.391 . S
C123 C122 1.391 1_554 S
C123 C124 1.399 . S
C124 C123 1.399 . S
C124 C125 1.396 . S
C124 C127 1.453 . S
C124 C128 1.684 . S
C125 C115 1.723 . S
C125 C124 1.396 . S
C125 C126 1.394 1_554 S
C126 C96 1.723 . S
C126 C122 1.397 . S
C126 C125 1.394 1_556 S
C127 H99 0.982 . S
C127 H103 0.979 . S
C127 H104 0.977 . S
C127 C124 1.453 . S
C128 H100 0.979 . S
C128 H101 0.980 . S
C128 H102 0.983 . S
C128 C124 1.684 . S
H129 C147 0.948 . S
H130 C88 0.948 . S
H131 C106 0.979 . S
H132 C106 0.980 . S
H133 C106 0.983 . S
H134 C105 0.982 . S
H135 C105 0.979 . S
H136 C105 0.977 . S
H137 C107 0.948 . S
H138 C109 0.947 . S
H139 C110 0.948 . S
H140 C116 0.982 . S
H141 C116 0.979 . S
H142 C116 0.977 1_556 S
H143 C117 0.979 . S
H144 C117 0.980 1_556 S
H145 C117 0.983 . S
H146 C90 0.947 . S
C147 C90 1.392 . S
C147 C91 1.419 . S
C147 H129 0.948 . S
C148 C149 1.391 . S
C148 C152 1.391 . S
C148 H190 0.948 . S
C149 C148 1.391 . S
C149 C150 1.391 . S
C150 C149 1.391 . S
C150 H206 0.947 . S
C150 C207 1.392 . S
C151 C152 1.391 . S
C151 C155 1.397 . S
C151 C207 1.419 . S
C152 C148 1.391 . S
C152 C151 1.391 . S
C152 C153 1.399 . S
C153 C152 1.399 . S
C153 C156 1.396 . S
C153 C165 1.453 . S
C153 C166 1.684 . S
H154 C178 0.948 . S
C155 C151 1.397 . S
C155 C156 1.394 . S
C155 C174 1.723 1_455 S
C156 C153 1.396 . S
C156 C155 1.394 . S
C156 C186 1.723 1_455 S
H157 C180 0.947 . S
H158 C181 0.948 . S
H159 C187 0.982 . S
H160 C188 0.979 . S
H161 C188 0.980 . S
H162 C188 0.983 . S
H163 C187 0.979 . S
H164 C187 0.977 . S
C165 C153 1.453 . S
C165 H194 0.982 . S
C165 H195 0.979 . S
C165 H196 0.977 . S
C166 C153 1.684 . S
C166 H191 0.979 . S
C166 H192 0.980 . S
C166 H193 0.983 . S
C167 C168 1.391 . S
C167 C172 1.391 . S
C167 H197 0.948 . S
C168 C167 1.391 . S
C168 C169 1.391 . S
C169 C168 1.391 . S
C169 C170 1.392 . S
C169 H198 0.947 . S
C170 C169 1.392 . S
C170 C171 1.419 . S
C170 H199 0.948 . S
C171 C170 1.419 . S
C171 C172 1.391 . S
C171 C175 1.397 . S
C172 C167 1.391 . S
C172 C171 1.391 . S
C172 C173 1.399 . S
C173 C172 1.399 . S
C173 C174 1.396 . S
C173 C176 1.453 1_655 S
C173 C177 1.684 1_655 S
C174 C155 1.723 1_655 S
C174 C173 1.396 . S
C174 C175 1.394 . S
C175 C171 1.397 . S
C175 C174 1.394 . S
C175 C185 1.723 . S
C176 C173 1.453 1_455 S
C176 H200 0.982 . S
C176 H201 0.979 . S
C176 H202 0.977 . S
C177 C173 1.684 1_455 S
C177 H203 0.979 1_455 S
C177 H204 0.980 . S
C177 H205 0.983 . S
C178 H154 0.948 . S
C178 C179 1.391 . S
C178 C183 1.391 . S
C179 C178 1.391 . S
C179 C180 1.391 . S
C180 H157 0.947 . S
C180 C179 1.391 . S
C180 C181 1.392 . S
C181 H158 0.948 . S
C181 C180 1.392 . S
C181 C182 1.419 . S
C182 C181 1.419 . S
C182 C183 1.391 . S
C182 C186 1.397 . S
C183 C178 1.391 . S
C183 C182 1.391 . S
C183 C184 1.399 . S
C184 C183 1.399 . S
C184 C185 1.396 . S
C184 C187 1.453 . S
C184 C188 1.684 . S
C185 C175 1.723 . S
C185 C184 1.396 . S
C185 C186 1.394 . S
C186 C156 1.723 1_655 S
C186 C182 1.397 . S
C186 C185 1.394 . S
C187 H159 0.982 . S
C187 H163 0.979 . S
C187 H164 0.977 . S
C187 C184 1.453 . S
C188 H160 0.979 . S
C188 H161 0.980 . S
C188 H162 0.983 . S
C188 C184 1.684 . S
H189 C207 0.948 . S
H190 C148 0.948 . S
H191 C166 0.979 . S
H192 C166 0.980 . S
H193 C166 0.983 . S
H194 C165 0.982 . S
H195 C165 0.979 . S
H196 C165 0.977 . S
H197 C167 0.948 . S
H198 C169 0.947 . S
H199 C170 0.948 . S
H200 C176 0.982 . S
H201 C176 0.979 . S
H202 C176 0.977 . S
H203 C177 0.979 1_655 S
H204 C177 0.980 . S
H205 C177 0.983 . S
H206 C150 0.947 . S
C207 C150 1.392 . S
C207 C151 1.419 . S
C207 H189 0.948 . S
C208 C209 1.391 . S
C208 C212 1.391 . S
C208 H250 0.948 . S
C209 C208 1.391 . S
C209 C210 1.391 . S
C210 C209 1.391 . S
C210 H266 0.947 . S
C210 C267 1.392 . S
C211 C212 1.391 . S
C211 C215 1.397 . S
C211 C267 1.419 . S
C212 C208 1.391 . S
C212 C211 1.391 . S
C212 C213 1.399 . S
C213 C212 1.399 . S
C213 C216 1.396 . S
C213 C225 1.453 . S
C213 C226 1.684 . S
H214 C238 0.948 . S
C215 C211 1.397 . S
C215 C216 1.394 . S
C215 C234 1.723 1_554 S
C216 C213 1.396 . S
C216 C215 1.394 . S
C216 C246 1.723 . S
H217 C240 0.947 . S
H218 C241 0.948 . S
H219 C247 0.982 . S
H220 C248 0.979 . S
H221 C248 0.980 . S
H222 C248 0.983 . S
H223 C247 0.979 . S
H224 C247 0.977 . S
C225 C213 1.453 . S
C225 H254 0.982 . S
C225 H255 0.979 . S
C225 H256 0.977 . S
C226 C213 1.684 . S
C226 H251 0.979 . S
C226 H252 0.980 . S
C226 H253 0.983 . S
C227 C228 1.391 . S
C227 C232 1.391 . S
C227 H257 0.948 . S
C228 C227 1.391 . S
C228 C229 1.391 . S
C229 C228 1.391 . S
C229 C230 1.392 . S
C229 H258 0.947 . S
C230 C229 1.392 . S
C230 C231 1.419 . S
C230 H259 0.948 . S
C231 C230 1.419 . S
C231 C232 1.391 . S
C231 C235 1.397 . S
C232 C227 1.391 . S
C232 C231 1.391 . S
C232 C233 1.399 . S
C233 C232 1.399 . S
C233 C234 1.396 . S
C233 C236 1.453 . S
C233 C237 1.684 . S
C234 C215 1.723 1_556 S
C234 C233 1.396 . S
C234 C235 1.394 . S
C235 C231 1.397 . S
C235 C234 1.394 . S
C235 C245 1.723 . S
C236 C233 1.453 . S
C236 H260 0.982 . S
C236 H261 0.979 . S
C236 H262 0.977 1_556 S
C237 C233 1.684 . S
C237 H263 0.979 . S
C237 H264 0.980 1_556 S
C237 H265 0.983 . S
C238 H214 0.948 . S
C238 C239 1.391 1_556 S
C238 C243 1.391 . S
C239 C238 1.391 1_554 S
C239 C240 1.391 . S
C240 H217 0.947 . S
C240 C239 1.391 . S
C240 C241 1.392 . S
C241 H218 0.948 . S
C241 C240 1.392 . S
C241 C242 1.419 . S
C242 C241 1.419 . S
C242 C243 1.391 1_554 S
C242 C246 1.397 . S
C243 C238 1.391 . S
C243 C242 1.391 1_556 S
C243 C244 1.399 . S
C244 C243 1.399 . S
C244 C245 1.396 . S
C244 C247 1.453 . S
C244 C248 1.684 . S
C245 C235 1.723 . S
C245 C244 1.396 . S
C245 C246 1.394 1_556 S
C246 C216 1.723 . S
C246 C242 1.397 . S
C246 C245 1.394 1_554 S
C247 H219 0.982 . S
C247 H223 0.979 . S
C247 H224 0.977 . S
C247 C244 1.453 . S
C248 H220 0.979 . S
C248 H221 0.980 . S
C248 H222 0.983 . S
C248 C244 1.684 . S
H249 C267 0.948 . S
H250 C208 0.948 . S
H251 C226 0.979 . S
H252 C226 0.980 . S
H253 C226 0.983 . S
H254 C225 0.982 . S
H255 C225 0.979 . S
H256 C225 0.977 . S
H257 C227 0.948 . S
H258 C229 0.947 . S
H259 C230 0.948 . S
H260 C236 0.982 . S
H261 C236 0.979 . S
H262 C236 0.977 1_554 S
H263 C237 0.979 . S
H264 C237 0.980 1_554 S
H265 C237 0.983 . S
H266 C210 0.947 . S
C267 C210 1.392 . S
C267 C211 1.419 . S
C267 H249 0.948 . S
C268 C269 1.391 . S
C268 C272 1.391 . S
C268 H310 0.948 . S
C269 C268 1.391 . S
C269 C270 1.391 . S
C270 C269 1.391 . S
C270 H326 0.947 . S
C270 C327 1.392 . S
C271 C272 1.391 . S
C271 C275 1.397 . S
C271 C327 1.419 . S
C272 C268 1.391 . S
C272 C271 1.391 . S
C272 C273 1.399 . S
C273 C272 1.399 . S
C273 C276 1.396 . S
C273 C285 1.453 1_455 S
C273 C286 1.684 1_455 S
H274 C298 0.948 . S
C275 C271 1.397 . S
C275 C276 1.394 . S
C275 C294 1.723 . S
C276 C273 1.396 . S
C276 C275 1.394 . S
C276 C306 1.723 1_455 S
H277 C300 0.947 . S
H278 C301 0.948 . S
H279 C307 0.982 . S
H280 C308 0.979 . S
H281 C308 0.980 . S
H282 C308 0.983 . S
H283 C307 0.979 . S
H284 C307 0.977 . S
C285 C273 1.453 1_655 S
C285 H314 0.982 . S
C285 H315 0.979 . S
C285 H316 0.977 . S
C286 C273 1.684 1_655 S
C286 H311 0.979 1_655 S
C286 H312 0.980 . S
C286 H313 0.983 . S
C287 C288 1.391 . S
C287 C292 1.391 . S
C287 H317 0.948 . S
C288 C287 1.391 . S
C288 C289 1.391 . S
C289 C288 1.391 . S
C289 C290 1.392 . S
C289 H318 0.947 . S
C290 C289 1.392 . S
C290 C291 1.419 . S
C290 H319 0.948 . S
C291 C290 1.419 . S
C291 C292 1.391 . S
C291 C295 1.397 . S
C292 C287 1.391 . S
C292 C291 1.391 . S
C292 C293 1.399 . S
C293 C292 1.399 . S
C293 C294 1.396 . S
C293 C296 1.453 . S
C293 C297 1.684 . S
C294 C275 1.723 . S
C294 C293 1.396 . S
C294 C295 1.394 . S
C295 C291 1.397 . S
C295 C294 1.394 . S
C295 C305 1.723 1_455 S
C296 C293 1.453 . S
C296 H320 0.982 . S
C296 H321 0.979 . S
C296 H322 0.977 . S
C297 C293 1.684 . S
C297 H323 0.979 . S
C297 H324 0.980 . S
C297 H325 0.983 . S
C298 H274 0.948 . S
C298 C299 1.391 . S
C298 C303 1.391 . S
C299 C298 1.391 . S
C299 C300 1.391 . S
C300 H277 0.947 . S
C300 C299 1.391 . S
C300 C301 1.392 . S
C301 H278 0.948 . S
C301 C300 1.392 . S
C301 C302 1.419 . S
C302 C301 1.419 . S
C302 C303 1.391 . S
C302 C306 1.397 . S
C303 C298 1.391 . S
C303 C302 1.391 . S
C303 C304 1.399 . S
C304 C303 1.399 . S
C304 C305 1.396 . S
C304 C307 1.453 . S
C304 C308 1.684 . S
C305 C295 1.723 1_655 S
C305 C304 1.396 . S
C305 C306 1.394 . S
C306 C276 1.723 1_655 S
C306 C302 1.397 . S
C306 C305 1.394 . S
C307 H279 0.982 . S
C307 H283 0.979 . S
C307 H284 0.977 . S
C307 C304 1.453 . S
C308 H280 0.979 . S
C308 H281 0.980 . S
C308 H282 0.983 . S
C308 C304 1.684 . S
H309 C327 0.948 . S
H310 C268 0.948 . S
H311 C286 0.979 1_455 S
H312 C286 0.980 . S
H313 C286 0.983 . S
H314 C285 0.982 . S
H315 C285 0.979 . S
H316 C285 0.977 . S
H317 C287 0.948 . S
H318 C289 0.947 . S
H319 C290 0.948 . S
H320 C296 0.982 . S
H321 C296 0.979 . S
H322 C296 0.977 . S
H323 C297 0.979 . S
H324 C297 0.980 . S
H325 C297 0.983 . S
H326 C270 0.947 . S
C327 C270 1.392 . S
C327 C271 1.419 . S
C327 H309 0.948 . S
C328 C329 1.391 . S
C328 C332 1.391 . S
C328 H370 0.948 . S
C329 C328 1.391 . S
C329 C330 1.391 . S
C330 C329 1.391 . S
C330 H386 0.947 . S
C330 C387 1.392 . S
C331 C332 1.391 . S
C331 C335 1.397 . S
C331 C387 1.419 . S
C332 C328 1.391 . S
C332 C331 1.391 . S
C332 C333 1.399 . S
C333 C332 1.399 . S
C333 C336 1.397 . S
C333 C345 1.453 1_565 S
C333 C346 1.684 1_565 S
H334 C358 0.948 . S
C335 C331 1.397 . S
C335 C336 1.399 . S
C335 C354 1.723 . S
C336 C333 1.397 . S
C336 C335 1.399 . S
C336 C366 1.719 1_565 S
H337 C360 0.947 . S
H338 C361 0.948 . S
H339 C367 0.982 . S
H340 C368 0.979 . S
H341 C368 0.980 . S
H342 C368 0.983 . S
H343 C367 0.979 . S
H344 C367 0.977 . S
C345 C333 1.453 1_545 S
C345 H374 0.982 . S
C345 H375 0.979 . S
C345 H376 0.977 . S
C346 C333 1.684 1_545 S
C346 H371 0.979 . S
C346 H372 0.980 . S
C346 H373 0.983 . S
C347 C348 1.391 . S
C347 C352 1.391 . S
C347 H377 0.948 . S
C348 C347 1.391 . S
C348 C349 1.391 . S
C349 C348 1.391 . S
C349 C350 1.392 . S
C349 H378 0.947 . S
C350 C349 1.392 . S
C350 C351 1.419 . S
C350 H379 0.948 1_565 S
C351 C350 1.419 . S
C351 C352 1.391 . S
C351 C355 1.397 . S
C352 C347 1.391 . S
C352 C351 1.391 . S
C352 C353 1.399 . S
C353 C352 1.399 . S
C353 C354 1.396 . S
C353 C356 1.453 . S
C353 C357 1.684 . S
C354 C335 1.723 . S
C354 C353 1.396 . S
C354 C355 1.394 . S
C355 C351 1.397 . S
C355 C354 1.394 . S
C355 C365 1.723 1_565 S
C356 C353 1.453 . S
C356 H380 0.982 . S
C356 H381 0.979 . S
C356 H382 0.977 . S
C357 C353 1.684 . S
C357 H383 0.979 . S
C357 H384 0.980 . S
C357 H385 0.983 . S
C358 H334 0.948 . S
C358 C359 1.391 . S
C358 C363 1.391 . S
C359 C358 1.391 . S
C359 C360 1.391 . S
C360 H337 0.947 . S
C360 C359 1.391 . S
C360 C361 1.392 . S
C361 H338 0.948 . S
C361 C360 1.392 . S
C361 C362 1.419 . S
C362 C361 1.419 . S
C362 C363 1.391 . S
C362 C366 1.397 . S
C363 C358 1.391 . S
C363 C362 1.391 . S
C363 C364 1.399 . S
C364 C363 1.399 . S
C364 C365 1.396 . S
C364 C367 1.453 . S
C364 C368 1.684 . S
C365 C355 1.723 1_545 S
C365 C364 1.396 . S
C365 C366 1.394 . S
C366 C336 1.719 1_545 S
C366 C362 1.397 . S
C366 C365 1.394 . S
C367 H339 0.982 . S
C367 H343 0.979 . S
C367 H344 0.977 . S
C367 C364 1.453 . S
C368 H340 0.979 . S
C368 H341 0.980 . S
C368 H342 0.983 . S
C368 C364 1.684 . S
H369 C387 0.948 . S
H370 C328 0.948 . S
H371 C346 0.979 . S
H372 C346 0.980 . S
H373 C346 0.983 . S
H374 C345 0.982 . S
H375 C345 0.979 . S
H376 C345 0.977 . S
H377 C347 0.948 . S
H378 C349 0.947 . S
H379 C350 0.948 1_545 S
H380 C356 0.982 . S
H381 C356 0.979 . S
H382 C356 0.977 . S
H383 C357 0.979 . S
H384 C357 0.980 . S
H385 C357 0.983 . S
H386 C330 0.947 . S
C387 C330 1.392 . S
C387 C331 1.419 . S
C387 H369 0.948 . S
C388 C389 1.391 . S
C388 C392 1.391 . S
C388 H430 0.948 . S
C389 C388 1.391 . S
C389 C390 1.391 . S
C390 C389 1.391 . S
C390 H446 0.947 . S
C390 C447 1.392 . S
C391 C392 1.391 . S
C391 C395 1.397 . S
C391 C447 1.419 . S
C392 C388 1.391 . S
C392 C391 1.391 . S
C392 C393 1.399 . S
C393 C392 1.399 . S
C393 C396 1.396 . S
C393 C405 1.453 . S
C393 C406 1.684 . S
H394 C418 0.948 . S
C395 C391 1.397 . S
C395 C396 1.394 . S
C395 C414 1.723 1_554 S
C396 C393 1.396 . S
C396 C395 1.394 . S
C396 C426 1.723 . S
H397 C420 0.947 . S
H398 C421 0.948 . S
H399 C427 0.982 . S
H400 C428 0.979 . S
H401 C428 0.980 . S
H402 C428 0.983 . S
H403 C427 0.979 . S
H404 C427 0.977 . S
C405 C393 1.453 . S
C405 H434 0.982 . S
C405 H435 0.979 . S
C405 H436 0.977 . S
C406 C393 1.684 . S
C406 H431 0.979 . S
C406 H432 0.980 . S
C406 H433 0.983 . S
C407 C408 1.391 . S
C407 C412 1.391 . S
C407 H437 0.948 . S
C408 C407 1.391 . S
C408 C409 1.391 . S
C409 C408 1.391 . S
C409 C410 1.392 . S
C409 H438 0.947 . S
C410 C409 1.392 . S
C410 C411 1.419 . S
C410 H439 0.948 . S
C411 C410 1.419 . S
C411 C412 1.391 . S
C411 C415 1.397 . S
C412 C407 1.391 . S
C412 C411 1.391 . S
C412 C413 1.399 . S
C413 C412 1.399 . S
C413 C414 1.396 . S
C413 C416 1.453 . S
C413 C417 1.684 . S
C414 C395 1.723 1_556 S
C414 C413 1.396 . S
C414 C415 1.394 . S
C415 C411 1.397 . S
C415 C414 1.394 . S
C415 C425 1.723 . S
C416 C413 1.453 . S
C416 H440 0.982 . S
C416 H441 0.979 . S
C416 H442 0.977 1_556 S
C417 C413 1.684 . S
C417 H443 0.979 . S
C417 H444 0.980 1_556 S
C417 H445 0.983 . S
C418 H394 0.948 . S
C418 C419 1.391 1_556 S
C418 C423 1.391 . S
C419 C418 1.391 1_554 S
C419 C420 1.391 . S
C420 H397 0.947 . S
C420 C419 1.391 . S
C420 C421 1.392 . S
C421 H398 0.948 . S
C421 C420 1.392 . S
C421 C422 1.419 . S
C422 C421 1.419 . S
C422 C423 1.391 1_554 S
C422 C426 1.397 . S
C423 C418 1.391 . S
C423 C422 1.391 1_556 S
C423 C424 1.399 . S
C424 C423 1.399 . S
C424 C425 1.396 . S
C424 C427 1.453 . S
C424 C428 1.684 . S
C425 C415 1.723 . S
C425 C424 1.396 . S
C425 C426 1.394 1_556 S
C426 C396 1.723 . S
C426 C422 1.397 . S
C426 C425 1.394 1_554 S
C427 H399 0.982 . S
C427 H403 0.979 . S
C427 H404 0.977 . S
C427 C424 1.453 . S
C428 H400 0.979 . S
C428 H401 0.980 . S
C428 H402 0.983 . S
C428 C424 1.684 . S
H429 C447 0.948 . S
H430 C388 0.948 . S
H431 C406 0.979 . S
H432 C406 0.980 . S
H433 C406 0.983 . S
H434 C405 0.982 . S
H435 C405 0.979 . S
H436 C405 0.977 . S
H437 C407 0.948 . S
H438 C409 0.947 . S
H439 C410 0.948 . S
H440 C416 0.982 . S
H441 C416 0.979 . S
H442 C416 0.977 1_554 S
H443 C417 0.979 . S
H444 C417 0.980 1_554 S
H445 C417 0.983 . S
H446 C390 0.947 . S
C447 C390 1.392 . S
C447 C391 1.419 . S
C447 H429 0.948 . S
C448 C449 1.391 . S
C448 C452 1.391 . S
C448 H490 0.948 . S
C449 C448 1.391 . S
C449 C450 1.391 . S
C450 C449 1.391 . S
C450 H506 0.947 . S
C450 C507 1.392 . S
C451 C452 1.391 . S
C451 C455 1.397 . S
C451 C507 1.419 . S
C452 C448 1.391 . S
C452 C451 1.391 . S
C452 C453 1.399 . S
C453 C452 1.399 . S
C453 C456 1.396 . S
C453 C465 1.453 1_545 S
C453 C466 1.684 1_545 S
H454 C478 0.948 . S
C455 C451 1.397 . S
C455 C456 1.394 . S
C455 C474 1.723 . S
C456 C453 1.396 . S
C456 C455 1.394 . S
C456 C486 1.723 1_545 S
H457 C480 0.947 . S
H458 C481 0.948 . S
H459 C487 0.982 . S
H460 C488 0.979 . S
H461 C488 0.980 . S
H462 C488 0.983 . S
H463 C487 0.979 . S
H464 C487 0.977 . S
C465 C453 1.453 1_565 S
C465 H494 0.982 . S
C465 H495 0.979 . S
C465 H496 0.977 . S
C466 C453 1.684 1_565 S
C466 H491 0.979 . S
C466 H492 0.980 . S
C466 H493 0.983 . S
C467 C468 1.391 . S
C467 C472 1.391 . S
C467 H497 0.948 . S
C468 C467 1.391 . S
C468 C469 1.391 . S
C469 C468 1.391 . S
C469 C470 1.392 . S
C469 H498 0.947 . S
C470 C469 1.392 . S
C470 C471 1.419 . S
C470 H499 0.946 . S
C471 C470 1.419 . S
C471 C472 1.391 . S
C471 C475 1.397 . S
C472 C467 1.391 . S
C472 C471 1.391 . S
C472 C473 1.399 . S
C473 C472 1.399 . S
C473 C474 1.396 . S
C473 C476 1.453 . S
C473 C477 1.684 . S
C474 C455 1.723 . S
C474 C473 1.396 . S
C474 C475 1.394 . S
C475 C471 1.397 . S
C475 C474 1.394 . S
C475 C485 1.723 1_545 S
C476 C473 1.453 . S
C476 H500 0.982 . S
C476 H501 0.979 . S
C476 H502 0.977 . S
C477 C473 1.684 . S
C477 H503 0.979 . S
C477 H504 0.980 . S
C477 H505 0.983 . S
C478 H454 0.948 . S
C478 C479 1.391 . S
C478 C483 1.391 . S
C479 C478 1.391 . S
C479 C480 1.391 . S
C480 H457 0.947 . S
C480 C479 1.391 . S
C480 C481 1.392 . S
C481 H458 0.948 . S
C481 C480 1.392 . S
C481 C482 1.419 . S
C482 C481 1.419 . S
C482 C483 1.391 . S
C482 C486 1.397 . S
C483 C478 1.391 . S
C483 C482 1.391 . S
C483 C484 1.399 . S
C484 C483 1.399 . S
C484 C485 1.396 . S
C484 C487 1.453 . S
C484 C488 1.684 . S
C485 C475 1.723 1_565 S
C485 C484 1.396 . S
C485 C486 1.394 . S
C486 C456 1.723 1_565 S
C486 C482 1.397 . S
C486 C485 1.394 . S
C487 H459 0.982 . S
C487 H463 0.979 . S
C487 H464 0.977 . S
C487 C484 1.453 . S
C488 H460 0.979 . S
C488 H461 0.980 . S
C488 H462 0.983 . S
C488 C484 1.684 . S
H489 C507 0.948 . S
H490 C448 0.948 . S
H491 C466 0.979 . S
H492 C466 0.980 . S
H493 C466 0.983 . S
H494 C465 0.982 . S
H495 C465 0.979 . S
H496 C465 0.977 . S
H497 C467 0.948 . S
H498 C469 0.947 . S
H499 C470 0.946 . S
H500 C476 0.982 . S
H501 C476 0.979 . S
H502 C476 0.977 . S
H503 C477 0.979 . S
H504 C477 0.980 . S
H505 C477 0.983 . S
H506 C450 0.947 . S
C507 C450 1.392 . S
C507 C451 1.419 . S
C507 H489 0.948 . S
C508 C509 1.391 1_554 S
C508 C512 1.391 . S
C508 H550 0.948 . S
C509 C508 1.391 1_556 S
C509 C510 1.391 . S
C510 C509 1.391 . S
C510 H566 0.947 . S
C510 C567 1.392 . S
C511 C512 1.391 1_556 S
C511 C515 1.397 . S
C511 C567 1.419 . S
C512 C508 1.391 . S
C512 C511 1.391 1_554 S
C512 C513 1.399 . S
C513 C512 1.399 . S
C513 C516 1.396 . S
C513 C525 1.453 . S
C513 C526 1.684 . S
H514 C538 0.948 . S
C515 C511 1.397 . S
C515 C516 1.394 1_556 S
C515 C534 1.723 . S
C516 C513 1.396 . S
C516 C515 1.394 1_554 S
C516 C546 1.723 . S
H517 C540 0.947 . S
H518 C541 0.948 . S
H519 C547 0.982 . S
H520 C548 0.979 . S
H521 C548 0.980 1_556 S
H522 C548 0.983 . S
H523 C547 0.979 . S
H524 C547 0.977 1_556 S
C525 C513 1.453 . S
C525 H554 0.982 . S
C525 H555 0.979 . S
C525 H556 0.977 . S
C526 C513 1.684 . S
C526 H551 0.979 . S
C526 H552 0.980 . S
C526 H553 0.983 . S
C527 C528 1.391 . S
C527 C532 1.391 . S
C527 H557 0.948 . S
C528 C527 1.391 . S
C528 C529 1.391 . S
C529 C528 1.391 . S
C529 C530 1.392 . S
C529 H558 0.947 . S
C530 C529 1.392 . S
C530 C531 1.419 . S
C530 H559 0.948 . S
C531 C530 1.419 . S
C531 C532 1.391 . S
C531 C535 1.397 . S
C532 C527 1.391 . S
C532 C531 1.391 . S
C532 C533 1.399 . S
C533 C532 1.399 . S
C533 C534 1.396 . S
C533 C536 1.453 . S
C533 C537 1.684 . S
C534 C515 1.723 . S
C534 C533 1.396 . S
C534 C535 1.394 . S
C535 C531 1.397 . S
C535 C534 1.394 . S
C535 C545 1.723 1_556 S
C536 C533 1.453 . S
C536 H560 0.982 . S
C536 H561 0.979 . S
C536 H562 0.977 . S
C537 C533 1.684 . S
C537 H563 0.979 . S
C537 H564 0.980 . S
C537 H565 0.983 . S
C538 H514 0.948 . S
C538 C539 1.391 . S
C538 C543 1.391 . S
C539 C538 1.391 . S
C539 C540 1.391 . S
C540 H517 0.947 . S
C540 C539 1.391 . S
C540 C541 1.392 . S
C541 H518 0.948 . S
C541 C540 1.392 . S
C541 C542 1.419 . S
C542 C541 1.419 . S
C542 C543 1.391 . S
C542 C546 1.397 . S
C543 C538 1.391 . S
C543 C542 1.391 . S
C543 C544 1.399 . S
C544 C543 1.399 . S
C544 C545 1.396 . S
C544 C547 1.453 . S
C544 C548 1.684 . S
C545 C535 1.723 1_554 S
C545 C544 1.396 . S
C545 C546 1.394 . S
C546 C516 1.723 . S
C546 C542 1.397 . S
C546 C545 1.394 . S
C547 H519 0.982 . S
C547 H523 0.979 . S
C547 H524 0.977 1_554 S
C547 C544 1.453 . S
C548 H520 0.979 . S
C548 H521 0.980 1_554 S
C548 H522 0.983 . S
C548 C544 1.684 . S
H549 C567 0.948 . S
H550 C508 0.948 . S
H551 C526 0.979 . S
H552 C526 0.980 . S
H553 C526 0.983 . S
H554 C525 0.982 . S
H555 C525 0.979 . S
H556 C525 0.977 . S
H557 C527 0.948 . S
H558 C529 0.947 . S
H559 C530 0.948 . S
H560 C536 0.982 . S
H561 C536 0.979 . S
H562 C536 0.977 . S
H563 C537 0.979 . S
H564 C537 0.980 . S
H565 C537 0.983 . S
H566 C510 0.947 . S
C567 C510 1.392 . S
C567 C511 1.419 . S
C567 H549 0.948 . S
C568 C569 1.363 . S
C568 C574 1.379 . S
C568 N576 1.356 . S
C569 C568 1.363 . S
C569 C575 1.363 . S
C570 C571 1.363 . S
C570 C575 1.379 . S
C570 N577 1.356 . S
C571 C570 1.363 . S
C571 C574 1.363 . S
N572 C574 1.356 . S
N572 H584 0.984 . S
N572 H585 0.985 . S
N573 C575 1.356 . S
N573 H578 0.984 . S
N573 H579 0.985 . S
C574 C568 1.379 . S
C574 C571 1.363 . S
C574 N572 1.356 . S
C575 C569 1.363 . S
C575 C570 1.379 . S
C575 N573 1.356 . S
N576 C568 1.356 . S
N576 H582 0.984 . S
N576 H583 0.984 . S
N577 C570 1.356 . S
N577 H580 0.984 . S
N577 H581 0.985 . S
H578 N573 0.984 . S
H579 N573 0.985 . S
H580 N577 0.984 . S
H581 N577 0.985 . S
H582 N576 0.984 . S
H583 N576 0.984 . S
H584 N572 0.984 . S
H585 N572 0.985 . S
C586 C587 1.363 . S
C586 C592 1.379 . S
C586 N594 1.356 . S
C587 C586 1.363 . S
C587 C593 1.363 . S
C588 C589 1.363 . S
C588 C593 1.379 . S
C588 N595 1.356 . S
C589 C588 1.363 . S
C589 C592 1.363 . S
N590 C592 1.356 . S
N590 H602 0.984 . S
N590 H603 0.985 . S
N591 C593 1.356 . S
N591 H596 0.984 . S
N591 H597 0.985 . S
C592 C586 1.379 . S
C592 C589 1.363 . S
C592 N590 1.356 . S
C593 C587 1.363 . S
C593 C588 1.379 . S
C593 N591 1.356 . S
N594 C586 1.356 . S
N594 H600 0.984 . S
N594 H601 0.984 . S
N595 C588 1.356 . S
N595 H598 0.984 . S
N595 H599 0.985 . S
H596 N591 0.984 . S
H597 N591 0.985 . S
H598 N595 0.984 . S
H599 N595 0.985 . S
H600 N594 0.984 . S
H601 N594 0.984 . S
H602 N590 0.984 . S
H603 N590 0.985 . S
C604 C605 1.363 . S
C604 C610 1.379 . S
C604 N612 1.356 . S
C605 C604 1.363 . S
C605 C611 1.363 . S
C606 C607 1.363 . S
C606 C611 1.379 . S
C606 N613 1.356 . S
C607 C606 1.363 . S
C607 C610 1.363 . S
N608 C610 1.356 . S
N608 H620 0.984 . S
N608 H621 0.985 . S
N609 C611 1.356 . S
N609 H614 0.984 . S
N609 H615 0.985 . S
C610 C604 1.379 . S
C610 C607 1.363 . S
C610 N608 1.356 . S
C611 C605 1.363 . S
C611 C606 1.379 . S
C611 N609 1.356 . S
N612 C604 1.356 . S
N612 H618 0.984 . S
N612 H619 0.984 . S
N613 C606 1.356 . S
N613 H616 0.984 . S
N613 H617 0.985 . S
H614 N609 0.984 . S
H615 N609 0.985 . S
H616 N613 0.984 . S
H617 N613 0.985 . S
H618 N612 0.984 . S
H619 N612 0.984 . S
H620 N608 0.984 . S
H621 N608 0.985 . S
C622 C623 1.363 . S
C622 C628 1.379 . S
C622 N630 1.356 . S
C623 C622 1.363 . S
C623 C629 1.363 . S
C624 C625 1.363 . S
C624 C629 1.379 . S
C624 N631 1.356 . S
C625 C624 1.363 . S
C625 C628 1.363 . S
N626 C628 1.356 . S
N626 H638 0.984 . S
N626 H639 0.985 . S
N627 C629 1.356 . S
N627 H632 0.984 . S
N627 H633 0.985 . S
C628 C622 1.379 . S
C628 C625 1.363 . S
C628 N626 1.356 . S
C629 C623 1.363 . S
C629 C624 1.379 . S
C629 N627 1.356 . S
N630 C622 1.356 . S
N630 H636 0.984 . S
N630 H637 0.984 . S
N631 C624 1.356 . S
N631 H634 0.984 . S
N631 H635 0.985 . S
H632 N627 0.984 . S
H633 N627 0.985 . S
H634 N631 0.984 . S
H635 N631 0.985 . S
H636 N630 0.984 . S
H637 N630 0.984 . S
H638 N626 0.984 . S
H639 N626 0.985 . S
C640 C641 1.363 . S
C640 C646 1.379 . S
C640 N648 1.356 . S
C641 C640 1.363 . S
C641 C647 1.363 . S
C642 C643 1.363 . S
C642 C647 1.379 . S
C642 N649 1.356 . S
C643 C642 1.363 . S
C643 C646 1.363 . S
N644 C646 1.356 . S
N644 H656 0.984 . S
N644 H657 0.985 . S
N645 C647 1.356 . S
N645 H650 0.984 . S
N645 H651 0.985 . S
C646 C640 1.379 . S
C646 C643 1.363 . S
C646 N644 1.356 . S
C647 C641 1.363 . S
C647 C642 1.379 . S
C647 N645 1.356 . S
N648 C640 1.356 . S
N648 H654 0.984 . S
N648 H655 0.984 . S
N649 C642 1.356 . S
N649 H652 0.984 . S
N649 H653 0.985 . S
H650 N645 0.984 . S
H651 N645 0.985 . S
H652 N649 0.984 . S
H653 N649 0.985 . S
H654 N648 0.984 . S
H655 N648 0.984 . S
H656 N644 0.984 . S
H657 N644 0.985 . S
C658 C659 1.363 . S
C658 C664 1.379 . S
C658 N666 1.356 . S
C659 C658 1.363 . S
C659 C665 1.363 . S
C660 C661 1.363 . S
C660 C665 1.379 . S
C660 N667 1.356 . S
C661 C660 1.363 . S
C661 C664 1.363 . S
N662 C664 1.356 . S
N662 H674 0.984 . S
N662 H675 0.985 . S
N663 C665 1.356 . S
N663 H668 0.984 . S
N663 H669 0.985 . S
C664 C658 1.379 . S
C664 C661 1.363 . S
C664 N662 1.356 . S
C665 C659 1.363 . S
C665 C660 1.379 . S
C665 N663 1.356 . S
N666 C658 1.356 . S
N666 H672 0.984 . S
N666 H673 0.984 . S
N667 C660 1.356 . S
N667 H670 0.984 . S
N667 H671 0.985 . S
H668 N663 0.984 . S
H669 N663 0.985 . S
H670 N667 0.984 . S
H671 N667 0.985 . S
H672 N666 0.984 . S
H673 N666 0.984 . S
H674 N662 0.984 . S
H675 N662 0.985 . S
C676 C677 1.363 . S
C676 C682 1.379 . S
C676 N684 1.356 . S
C677 C676 1.363 . S
C677 C683 1.363 . S
C678 C679 1.363 . S
C678 C683 1.379 . S
C678 N685 1.356 . S
C679 C678 1.363 . S
C679 C682 1.363 . S
N680 C682 1.356 . S
N680 H692 0.984 . S
N680 H693 0.985 . S
N681 C683 1.356 . S
N681 H686 0.984 . S
N681 H687 0.985 . S
C682 C676 1.379 . S
C682 C679 1.363 . S
C682 N680 1.356 . S
C683 C677 1.363 . S
C683 C678 1.379 . S
C683 N681 1.356 . S
N684 C676 1.356 . S
N684 H690 0.984 . S
N684 H691 0.984 . S
N685 C678 1.356 . S
N685 H688 0.984 . S
N685 H689 0.985 . S
H686 N681 0.984 . S
H687 N681 0.985 . S
H688 N685 0.984 . S
H689 N685 0.985 . S
H690 N684 0.984 . S
H691 N684 0.984 . S
H692 N680 0.984 . S
H693 N680 0.985 . S
C694 C695 1.363 . S
C694 C700 1.379 . S
C694 N702 1.356 . S
C695 C694 1.363 . S
C695 C701 1.363 . S
C696 C697 1.363 . S
C696 C701 1.379 . S
C696 N703 1.356 . S
C697 C696 1.363 . S
C697 C700 1.363 . S
N698 C700 1.356 . S
N698 H710 0.984 . S
N698 H711 0.985 . S
N699 C701 1.356 . S
N699 H704 0.984 . S
N699 H705 0.985 . S
C700 C694 1.379 . S
C700 C697 1.363 . S
C700 N698 1.356 . S
C701 C695 1.363 . S
C701 C696 1.379 . S
C701 N699 1.356 . S
N702 C694 1.356 . S
N702 H708 0.984 . S
N702 H709 0.984 . S
N703 C696 1.356 . S
N703 H706 0.984 . S
N703 H707 0.985 . S
H704 N699 0.984 . S
H705 N699 0.985 . S
H706 N703 0.984 . S
H707 N703 0.985 . S
H708 N702 0.984 . S
H709 N702 0.984 . S
H710 N698 0.984 . S
H711 N698 0.985 . S
C712 C713 1.363 . S
C712 C718 1.379 . S
C712 N720 1.356 . S
C713 C712 1.363 . S
C713 C719 1.363 . S
C714 C715 1.363 . S
C714 C719 1.379 . S
C714 N721 1.356 . S
C715 C714 1.363 . S
C715 C718 1.363 . S
N716 C718 1.356 . S
N716 H728 0.984 . S
N716 H729 0.985 . S
N717 C719 1.356 . S
N717 H722 0.984 . S
N717 H723 0.985 . S
C718 C712 1.379 . S
C718 C715 1.363 . S
C718 N716 1.356 . S
C719 C713 1.363 . S
C719 C714 1.379 . S
C719 N717 1.356 . S
N720 C712 1.356 . S
N720 H726 0.984 . S
N720 H727 0.984 . S
N721 C714 1.356 . S
N721 H724 0.984 . S
N721 H725 0.985 . S
H722 N717 0.984 . S
H723 N717 0.985 . S
H724 N721 0.984 . S
H725 N721 0.985 . S
H726 N720 0.984 . S
H727 N720 0.984 . S
H728 N716 0.984 . S
H729 N716 0.985 . S
C730 C731 1.363 . S
C730 C736 1.379 . S
C730 N738 1.356 . S
C731 C730 1.363 . S
C731 C737 1.363 . S
C732 C733 1.363 . S
C732 C737 1.379 . S
C732 N739 1.356 . S
C733 C732 1.363 . S
C733 C736 1.363 . S
N734 C736 1.356 . S
N734 H746 0.984 . S
N734 H747 0.985 . S
N735 C737 1.356 . S
N735 H740 0.984 . S
N735 H741 0.985 . S
C736 C730 1.379 . S
C736 C733 1.363 . S
C736 N734 1.356 . S
C737 C731 1.363 . S
C737 C732 1.379 . S
C737 N735 1.356 . S
N738 C730 1.356 . S
N738 H744 0.984 . S
N738 H745 0.984 . S
N739 C732 1.356 . S
N739 H742 0.984 . S
N739 H743 0.985 . S
H740 N735 0.984 . S
H741 N735 0.985 . S
H742 N739 0.984 . S
H743 N739 0.985 . S
H744 N738 0.984 . S
H745 N738 0.984 . S
H746 N734 0.984 . S
H747 N734 0.985 . S
C748 C749 1.363 . S
C748 C754 1.379 . S
C748 N756 1.356 . S
C749 C748 1.363 . S
C749 C755 1.363 . S
C750 C751 1.363 . S
C750 C755 1.379 . S
C750 N757 1.356 . S
C751 C750 1.363 . S
C751 C754 1.363 . S
N752 C754 1.356 . S
N752 H764 0.984 . S
N752 H765 0.985 . S
N753 C755 1.356 . S
N753 H758 0.984 . S
N753 H759 0.985 . S
C754 C748 1.379 . S
C754 C751 1.363 . S
C754 N752 1.356 . S
C755 C749 1.363 . S
C755 C750 1.379 . S
C755 N753 1.356 . S
N756 C748 1.356 . S
N756 H762 0.984 . S
N756 H763 0.984 . S
N757 C750 1.356 . S
N757 H760 0.984 . S
N757 H761 0.985 . S
H758 N753 0.984 . S
H759 N753 0.985 . S
H760 N757 0.984 . S
H761 N757 0.985 . S
H762 N756 0.984 . S
H763 N756 0.984 . S
H764 N752 0.984 . S
H765 N752 0.985 . S
C766 C767 1.363 . S
C766 C772 1.379 . S
C766 N774 1.356 . S
C767 C766 1.363 . S
C767 C773 1.363 . S
C768 C769 1.363 . S
C768 C773 1.379 . S
C768 N775 1.356 . S
C769 C768 1.363 . S
C769 C772 1.363 . S
N770 C772 1.356 . S
N770 H782 0.984 . S
N770 H783 0.985 . S
N771 C773 1.356 . S
N771 H776 0.984 . S
N771 H777 0.985 . S
C772 C766 1.379 . S
C772 C769 1.363 . S
C772 N770 1.356 . S
C773 C767 1.363 . S
C773 C768 1.379 . S
C773 N771 1.356 . S
N774 C766 1.356 . S
N774 H780 0.984 . S
N774 H781 0.984 . S
N775 C768 1.356 . S
N775 H778 0.984 . S
N775 H779 0.985 . S
H776 N771 0.984 . S
H777 N771 0.985 . S
H778 N775 0.984 . S
H779 N775 0.985 . S
H780 N774 0.984 . S
H781 N774 0.984 . S
H782 N770 0.984 . S
H783 N770 0.985 . S
C784 C785 1.363 . S
C784 C790 1.379 . S
C784 N792 1.356 . S
C785 C784 1.363 . S
C785 C791 1.363 . S
C786 C787 1.363 . S
C786 C791 1.379 . S
C786 N793 1.356 . S
C787 C786 1.363 . S
C787 C790 1.363 . S
N788 C790 1.356 . S
N788 H800 0.984 . S
N788 H801 0.985 . S
N789 C791 1.356 . S
N789 H794 0.984 . S
N789 H795 0.985 . S
C790 C784 1.379 . S
C790 C787 1.363 . S
C790 N788 1.356 . S
C791 C785 1.363 . S
C791 C786 1.379 . S
C791 N789 1.356 . S
N792 C784 1.356 . S
N792 H798 0.984 . S
N792 H799 0.984 . S
N793 C786 1.356 . S
N793 H796 0.984 . S
N793 H797 0.985 . S
H794 N789 0.984 . S
H795 N789 0.985 . S
H796 N793 0.984 . S
H797 N793 0.985 . S
H798 N792 0.984 . S
H799 N792 0.984 . S
H800 N788 0.984 . S
H801 N788 0.985 . S
C802 C803 1.363 . S
C802 C808 1.379 . S
C802 N810 1.356 . S
C803 C802 1.363 . S
C803 C809 1.363 . S
C804 C805 1.363 . S
C804 C809 1.379 . S
C804 N811 1.356 . S
C805 C804 1.363 . S
C805 C808 1.363 . S
N806 C808 1.356 . S
N806 H818 0.984 . S
N806 H819 0.985 . S
N807 C809 1.356 . S
N807 H812 0.984 . S
N807 H813 0.985 . S
C808 C802 1.379 . S
C808 C805 1.363 . S
C808 N806 1.356 . S
C809 C803 1.363 . S
C809 C804 1.379 . S
C809 N807 1.356 . S
N810 C802 1.356 . S
N810 H816 0.984 . S
N810 H817 0.984 . S
N811 C804 1.356 . S
N811 H814 0.984 . S
N811 H815 0.985 . S
H812 N807 0.984 . S
H813 N807 0.985 . S
H814 N811 0.984 . S
H815 N811 0.985 . S
H816 N810 0.984 . S
H817 N810 0.984 . S
H818 N806 0.984 . S
H819 N806 0.985 . S
C820 C821 1.363 . S
C820 C826 1.379 . S
C820 N828 1.356 . S
C821 C820 1.363 . S
C821 C827 1.363 . S
C822 C823 1.363 . S
C822 C827 1.379 . S
C822 N829 1.356 . S
C823 C822 1.363 . S
C823 C826 1.363 . S
N824 C826 1.356 . S
N824 H836 0.984 . S
N824 H837 0.985 . S
N825 C827 1.356 . S
N825 H830 0.984 . S
N825 H831 0.985 . S
C826 C820 1.379 . S
C826 C823 1.363 . S
C826 N824 1.356 . S
C827 C821 1.363 . S
C827 C822 1.379 . S
C827 N825 1.356 . S
N828 C820 1.356 . S
N828 H834 0.984 . S
N828 H835 0.984 . S
N829 C822 1.356 . S
N829 H832 0.984 . S
N829 H833 0.985 . S
H830 N825 0.984 . S
H831 N825 0.985 . S
H832 N829 0.984 . S
H833 N829 0.985 . S
H834 N828 0.984 . S
H835 N828 0.984 . S
H836 N824 0.984 . S
H837 N824 0.985 . S
C838 C839 1.363 . S
C838 C844 1.379 . S
C838 N846 1.356 . S
C839 C838 1.363 . S
C839 C845 1.363 . S
C840 C841 1.363 . S
C840 C845 1.379 . S
C840 N847 1.356 . S
C841 C840 1.363 . S
C841 C844 1.363 . S
N842 C844 1.356 . S
N842 H854 0.984 . S
N842 H855 0.985 . S
N843 C845 1.356 . S
N843 H848 0.984 . S
N843 H849 0.985 . S
C844 C838 1.379 . S
C844 C841 1.363 . S
C844 N842 1.356 . S
C845 C839 1.363 . S
C845 C840 1.379 . S
C845 N843 1.356 . S
N846 C838 1.356 . S
N846 H852 0.984 . S
N846 H853 0.984 . S
N847 C840 1.356 . S
N847 H850 0.984 . S
N847 H851 0.985 . S
H848 N843 0.984 . S
H849 N843 0.985 . S
H850 N847 0.984 . S
H851 N847 0.985 . S
H852 N846 0.984 . S
H853 N846 0.984 . S
H854 N842 0.984 . S
H855 N842 0.985 . S
C856 C857 1.356 1_556 S
C856 C862 1.379 . S
C856 N864 1.356 . S
C857 C856 1.356 1_554 S
C857 C863 1.370 . S
C858 C859 1.365 . S
C858 C863 1.379 . S
C858 N865 1.356 . S
C859 C858 1.365 . S
C859 C862 1.361 1_554 S
N860 C862 1.356 . S
N860 H872 0.984 . S
N860 H873 0.985 . S
N861 C863 1.356 . S
N861 H866 0.984 . S
N861 H867 0.985 . S
C862 C856 1.379 . S
C862 C859 1.361 1_556 S
C862 N860 1.356 . S
C863 C857 1.370 . S
C863 C858 1.379 . S
C863 N861 1.356 . S
N864 C856 1.356 . S
N864 H870 0.984 . S
N864 H871 0.984 . S
N865 C858 1.356 . S
N865 H868 0.984 . S
N865 H869 0.985 . S
H866 N861 0.984 . S
H867 N861 0.985 . S
H868 N865 0.984 . S
H869 N865 0.985 . S
H870 N864 0.984 . S
H871 N864 0.984 . S
H872 N860 0.984 . S
H873 N860 0.985 . S
C874 C875 1.363 . S
C874 C880 1.379 . S
C874 N882 1.356 . S
C875 C874 1.363 . S
C875 C881 1.363 . S
C876 C877 1.363 . S
C876 C881 1.379 . S
C876 N883 1.356 . S
C877 C876 1.363 . S
C877 C880 1.363 . S
N878 C880 1.356 . S
N878 H890 0.984 . S
N878 H891 0.985 . S
N879 C881 1.356 . S
N879 H884 0.984 . S
N879 H885 0.985 . S
C880 C874 1.379 . S
C880 C877 1.363 . S
C880 N878 1.356 . S
C881 C875 1.363 . S
C881 C876 1.379 . S
C881 N879 1.356 . S
N882 C874 1.356 . S
N882 H888 0.984 . S
N882 H889 0.984 . S
N883 C876 1.356 . S
N883 H886 0.984 . S
N883 H887 0.985 . S
H884 N879 0.984 . S
H885 N879 0.985 . S
H886 N883 0.984 . S
H887 N883 0.985 . S
H888 N882 0.984 . S
H889 N882 0.984 . S
H890 N878 0.984 . S
H891 N878 0.985 . S
C892 C893 1.356 1_556 S
C892 C898 1.379 . S
C892 N900 1.356 . S
C893 C892 1.356 1_554 S
C893 C899 1.370 . S
C894 C895 1.365 . S
C894 C899 1.379 . S
C894 N901 1.356 . S
C895 C894 1.365 . S
C895 C898 1.361 1_554 S
N896 C898 1.356 . S
N896 H908 0.984 . S
N896 H909 0.985 . S
N897 C899 1.356 . S
N897 H902 0.984 . S
N897 H903 0.985 . S
C898 C892 1.379 . S
C898 C895 1.361 1_556 S
C898 N896 1.356 . S
C899 C893 1.370 . S
C899 C894 1.379 . S
C899 N897 1.356 . S
N900 C892 1.356 . S
N900 H906 0.984 . S
N900 H907 0.984 . S
N901 C894 1.356 . S
N901 H904 0.984 . S
N901 H905 0.985 . S
H902 N897 0.984 . S
H903 N897 0.985 . S
H904 N901 0.984 . S
H905 N901 0.985 . S
H906 N900 0.984 . S
H907 N900 0.984 . S
H908 N896 0.984 . S
H909 N896 0.985 . S
C910 C911 1.363 . S
C910 C916 1.379 . S
C910 N918 1.356 . S
C911 C910 1.363 . S
C911 C917 1.363 . S
C912 C913 1.363 . S
C912 C917 1.379 . S
C912 N919 1.356 . S
C913 C912 1.363 . S
C913 C916 1.363 . S
N914 C916 1.356 . S
N914 H926 0.984 . S
N914 H927 0.985 . S
N915 C917 1.356 . S
N915 H920 0.984 . S
N915 H921 0.985 . S
C916 C910 1.379 . S
C916 C913 1.363 . S
C916 N914 1.356 . S
C917 C911 1.363 . S
C917 C912 1.379 . S
C917 N915 1.356 . S
N918 C910 1.356 . S
N918 H924 0.984 . S
N918 H925 0.984 . S
N919 C912 1.356 . S
N919 H922 0.984 . S
N919 H923 0.985 . S
H920 N915 0.984 . S
H921 N915 0.985 . S
H922 N919 0.984 . S
H923 N919 0.985 . S
H924 N918 0.984 . S
H925 N918 0.984 . S
H926 N914 0.984 . S
H927 N914 0.985 . S
C928 C929 1.363 . S
C928 C934 1.379 . S
C928 N936 1.356 . S
C929 C928 1.363 . S
C929 C935 1.363 . S
C930 C931 1.363 . S
C930 C935 1.379 . S
C930 N937 1.356 . S
C931 C930 1.363 . S
C931 C934 1.363 . S
N932 C934 1.356 . S
N932 H944 0.984 . S
N932 H945 0.985 . S
N933 C935 1.356 . S
N933 H938 0.984 . S
N933 H939 0.985 . S
C934 C928 1.379 . S
C934 C931 1.363 . S
C934 N932 1.356 . S
C935 C929 1.363 . S
C935 C930 1.379 . S
C935 N933 1.356 . S
N936 C928 1.356 . S
N936 H942 0.984 . S
N936 H943 0.984 . S
N937 C930 1.356 . S
N937 H940 0.984 . S
N937 H941 0.985 . S
H938 N933 0.984 . S
H939 N933 0.985 . S
H940 N937 0.984 . S
H941 N937 0.985 . S
H942 N936 0.984 . S
H943 N936 0.984 . S
H944 N932 0.984 . S
H945 N932 0.985 . S
C946 C947 1.359 1_554 S
C946 C952 1.379 . S
C946 N954 1.356 . S
C947 C946 1.359 1_556 S
C947 C953 1.367 . S
C948 C949 1.362 . S
C948 C953 1.379 . S
C948 N955 1.356 . S
C949 C948 1.362 . S
C949 C952 1.364 1_556 S
N950 C952 1.356 . S
N950 H962 0.984 . S
N950 H963 0.985 . S
N951 C953 1.356 . S
N951 H956 0.984 . S
N951 H957 0.985 . S
C952 C946 1.379 . S
C952 C949 1.364 1_554 S
C952 N950 1.356 . S
C953 C947 1.367 . S
C953 C948 1.379 . S
C953 N951 1.356 . S
N954 C946 1.356 . S
N954 H960 0.984 . S
N954 H961 0.984 . S
N955 C948 1.356 . S
N955 H958 0.984 . S
N955 H959 0.985 . S
H956 N951 0.984 . S
H957 N951 0.985 . S
H958 N955 0.984 . S
H959 N955 0.985 . S
H960 N954 0.984 . S
H961 N954 0.984 . S
H962 N950 0.984 . S
H963 N950 0.985 . S
C964 C965 1.363 . S
C964 C970 1.379 . S
C964 N972 1.356 . S
C965 C964 1.363 . S
C965 C971 1.363 . S
C966 C967 1.363 . S
C966 C971 1.379 . S
C966 N973 1.356 . S
C967 C966 1.363 . S
C967 C970 1.363 . S
N968 C970 1.356 . S
N968 H980 0.984 . S
N968 H981 0.985 . S
N969 C971 1.356 . S
N969 H974 0.984 . S
N969 H975 0.985 . S
C970 C964 1.379 . S
C970 C967 1.363 . S
C970 N968 1.356 . S
C971 C965 1.363 . S
C971 C966 1.379 . S
C971 N969 1.356 . S
N972 C964 1.356 . S
N972 H978 0.984 . S
N972 H979 0.984 . S
N973 C966 1.356 . S
N973 H976 0.984 . S
N973 H977 0.985 . S
H974 N969 0.984 . S
H975 N969 0.985 . S
H976 N973 0.984 . S
H977 N973 0.985 . S
H978 N972 0.984 . S
H979 N972 0.984 . S
H980 N968 0.984 . S
H981 N968 0.985 . S
C982 C983 1.367 . S
C982 C988 1.379 . S
C982 N990 1.356 . S
C983 C982 1.367 . S
C983 C989 1.359 1_556 S
C984 C985 1.364 1_554 S
C984 C989 1.379 . S
C984 N991 1.356 . S
C985 C984 1.364 1_556 S
C985 C988 1.362 . S
N986 C988 1.356 . S
N986 H998 0.984 . S
N986 H999 0.985 . S
N987 C989 1.356 . S
N987 H992 0.984 . S
N987 H993 0.985 . S
C988 C982 1.379 . S
C988 C985 1.362 . S
C988 N986 1.356 . S
C989 C983 1.359 1_554 S
C989 C984 1.379 . S
C989 N987 1.356 . S
N990 C982 1.356 . S
N990 H996 0.984 . S
N990 H997 0.984 . S
N991 C984 1.356 . S
N991 H994 0.984 . S
N991 H995 0.985 . S
H992 N987 0.984 . S
H993 N987 0.985 . S
H994 N991 0.984 . S
H995 N991 0.985 . S
H996 N990 0.984 . S
H997 N990 0.984 . S
H998 N986 0.984 . S
H999 N986 0.985 . S
C569 C21 1.671 . S
C571 C269 1.542 . S
C587 C40 1.818 . S
C589 C89 1.722 . S
C607 C168 1.507 . S
C605 C54 1.656 . S
C623 C73 1.861 . S
C625 C228 1.705 . S
C643 C389 1.507 . S
C641 C74 1.656 . S
C661 C468 1.671 . S
C659 C10 1.820 . S
C679 C539 1.687 . S
C677 C37 1.670 . S
C697 C329 1.759 . S
C695 C65 1.862 . S
C713 C52 1.668 . S
C715 C179 1.579 . S
C731 C87 1.856 . S
C733 C209 1.645 . S
C749 C15 1.679 . S
C751 C288 1.615 . S
C769 C108 1.777 . S
C767 C32 1.812 . S
C785 C29 1.679 . S
C787 C528 1.626 . S
C805 C348 1.810 . S
C803 C59 1.854 . S
C823 C408 1.577 . S
C821 C84 1.669 . S
C839 C8 1.813 . S
C841 C449 1.606 . S
C859 C119 1.835 1_554 S
C857 C7 1.903 . S
C877 C149 1.613 . S
C875 C30 1.708 . S
C893 C62 1.910 . S
C895 C239 1.740 . S
C911 C81 1.675 . S
C913 C299 1.612 . S
C931 C359 1.853 . S
C929 C76 1.910 . S
C947 C18 1.708 . S
C949 C419 1.612 1_556 S
C965 C43 1.903 . S
C967 C479 1.725 . S
C983 C51 1.675 . S
C985 C509 1.692 . S
