# Generated by pormake.
# Topology tbo, (3,4)-cn, num edge types: 1
# Building blocks:
#     Node 0, Type 0, BuildingBlock: VETTIZ_charged_linker_0, # of connection points: 3
#     Node 1, Type 0, BuildingBlock: VETTIZ_charged_linker_0, # of connection points: 3
#     Node 2, Type 0, BuildingBlock: VETTIZ_charged_linker_0, # of connection points: 3
#     Node 3, Type 0, BuildingBlock: VETTIZ_charged_linker_0, # of connection points: 3
#     Node 4, Type 0, BuildingBlock: VETTIZ_charged_linker_0, # of connection points: 3
#     Node 5, Type 0, BuildingBlock: VETTIZ_charged_linker_0, # of connection points: 3
#     Node 6, Type 0, BuildingBlock: VETTIZ_charged_linker_0, # of connection points: 3
#     Node 7, Type 0, BuildingBlock: VETTIZ_charged_linker_0, # of connection points: 3
#     Node 8, Type 0, BuildingBlock: VETTIZ_charged_linker_0, # of connection points: 3
#     Node 9, Type 0, BuildingBlock: VETTIZ_charged_linker_0, # of connection points: 3
#     Node 10, Type 0, BuildingBlock: VETTIZ_charged_linker_0, # of connection points: 3
#     Node 11, Type 0, BuildingBlock: VETTIZ_charged_linker_0, # of connection points: 3
#     Node 12, Type 0, BuildingBlock: VETTIZ_charged_linker_0, # of connection points: 3
#     Node 13, Type 0, BuildingBlock: VETTIZ_charged_linker_0, # of connection points: 3
#     Node 14, Type 0, BuildingBlock: VETTIZ_charged_linker_0, # of connection points: 3
#     Node 15, Type 0, BuildingBlock: VETTIZ_charged_linker_0, # of connection points: 3
#     Node 16, Type 0, BuildingBlock: VETTIZ_charged_linker_0, # of connection points: 3
#     Node 17, Type 0, BuildingBlock: VETTIZ_charged_linker_0, # of connection points: 3
#     Node 18, Type 0, BuildingBlock: VETTIZ_charged_linker_0, # of connection points: 3
#     Node 19, Type 0, BuildingBlock: VETTIZ_charged_linker_0, # of connection points: 3
#     Node 20, Type 0, BuildingBlock: VETTIZ_charged_linker_0, # of connection points: 3
#     Node 21, Type 0, BuildingBlock: VETTIZ_charged_linker_0, # of connection points: 3
#     Node 22, Type 0, BuildingBlock: VETTIZ_charged_linker_0, # of connection points: 3
#     Node 23, Type 0, BuildingBlock: VETTIZ_charged_linker_0, # of connection points: 3
#     Node 24, Type 0, BuildingBlock: VETTIZ_charged_linker_0, # of connection points: 3
#     Node 25, Type 0, BuildingBlock: VETTIZ_charged_linker_0, # of connection points: 3
#     Node 26, Type 0, BuildingBlock: VETTIZ_charged_linker_0, # of connection points: 3
#     Node 27, Type 0, BuildingBlock: VETTIZ_charged_linker_0, # of connection points: 3
#     Node 28, Type 0, BuildingBlock: VETTIZ_charged_linker_0, # of connection points: 3
#     Node 29, Type 0, BuildingBlock: VETTIZ_charged_linker_0, # of connection points: 3
#     Node 30, Type 0, BuildingBlock: VETTIZ_charged_linker_0, # of connection points: 3
#     Node 31, Type 0, BuildingBlock: VETTIZ_charged_linker_0, # of connection points: 3
#     Node 32, Type 1, BuildingBlock: ESEHIV_clean_sbu_0, # of connection points: 4
#     Node 33, Type 1, BuildingBlock: ESEHIV_clean_sbu_0, # of connection points: 4
#     Node 34, Type 1, BuildingBlock: ESEHIV_clean_sbu_0, # of connection points: 4
#     Node 35, Type 1, BuildingBlock: ESEHIV_clean_sbu_0, # of connection points: 4
#     Node 36, Type 1, BuildingBlock: ESEHIV_clean_sbu_0, # of connection points: 4
#     Node 37, Type 1, BuildingBlock: ESEHIV_clean_sbu_0, # of connection points: 4
#     Node 38, Type 1, BuildingBlock: ESEHIV_clean_sbu_0, # of connection points: 4
#     Node 39, Type 1, BuildingBlock: ESEHIV_clean_sbu_0, # of connection points: 4
#     Node 40, Type 1, BuildingBlock: ESEHIV_clean_sbu_0, # of connection points: 4
#     Node 41, Type 1, BuildingBlock: ESEHIV_clean_sbu_0, # of connection points: 4
#     Node 42, Type 1, BuildingBlock: ESEHIV_clean_sbu_0, # of connection points: 4
#     Node 43, Type 1, BuildingBlock: ESEHIV_clean_sbu_0, # of connection points: 4
#     Node 44, Type 1, BuildingBlock: ESEHIV_clean_sbu_0, # of connection points: 4
#     Node 45, Type 1, BuildingBlock: ESEHIV_clean_sbu_0, # of connection points: 4
#     Node 46, Type 1, BuildingBlock: ESEHIV_clean_sbu_0, # of connection points: 4
#     Node 47, Type 1, BuildingBlock: ESEHIV_clean_sbu_0, # of connection points: 4
#     Node 48, Type 1, BuildingBlock: ESEHIV_clean_sbu_0, # of connection points: 4
#     Node 49, Type 1, BuildingBlock: ESEHIV_clean_sbu_0, # of connection points: 4
#     Node 50, Type 1, BuildingBlock: ESEHIV_clean_sbu_0, # of connection points: 4
#     Node 51, Type 1, BuildingBlock: ESEHIV_clean_sbu_0, # of connection points: 4
#     Node 52, Type 1, BuildingBlock: ESEHIV_clean_sbu_0, # of connection points: 4
#     Node 53, Type 1, BuildingBlock: ESEHIV_clean_sbu_0, # of connection points: 4
#     Node 54, Type 1, BuildingBlock: ESEHIV_clean_sbu_0, # of connection points: 4
#     Node 55, Type 1, BuildingBlock: ESEHIV_clean_sbu_0, # of connection points: 4
#     Edge 56, Type (0, 1), BuildingBlock: XIVTED_clean_linker_0, # of connection points: 2
#     Edge 57, Type (0, 1), BuildingBlock: XIVTED_clean_linker_0, # of connection points: 2
#     Edge 58, Type (0, 1), BuildingBlock: XIVTED_clean_linker_0, # of connection points: 2
#     Edge 59, Type (0, 1), BuildingBlock: XIVTED_clean_linker_0, # of connection points: 2
#     Edge 60, Type (0, 1), BuildingBlock: XIVTED_clean_linker_0, # of connection points: 2
#     Edge 61, Type (0, 1), BuildingBlock: XIVTED_clean_linker_0, # of connection points: 2
#     Edge 62, Type (0, 1), BuildingBlock: XIVTED_clean_linker_0, # of connection points: 2
#     Edge 63, Type (0, 1), BuildingBlock: XIVTED_clean_linker_0, # of connection points: 2
#     Edge 64, Type (0, 1), BuildingBlock: XIVTED_clean_linker_0, # of connection points: 2
#     Edge 65, Type (0, 1), BuildingBlock: XIVTED_clean_linker_0, # of connection points: 2
#     Edge 66, Type (0, 1), BuildingBlock: XIVTED_clean_linker_0, # of connection points: 2
#     Edge 67, Type (0, 1), BuildingBlock: XIVTED_clean_linker_0, # of connection points: 2
#     Edge 68, Type (0, 1), BuildingBlock: XIVTED_clean_linker_0, # of connection points: 2
#     Edge 69, Type (0, 1), BuildingBlock: XIVTED_clean_linker_0, # of connection points: 2
#     Edge 70, Type (0, 1), BuildingBlock: XIVTED_clean_linker_0, # of connection points: 2
#     Edge 71, Type (0, 1), BuildingBlock: XIVTED_clean_linker_0, # of connection points: 2
#     Edge 72, Type (0, 1), BuildingBlock: XIVTED_clean_linker_0, # of connection points: 2
#     Edge 73, Type (0, 1), BuildingBlock: XIVTED_clean_linker_0, # of connection points: 2
#     Edge 74, Type (0, 1), BuildingBlock: XIVTED_clean_linker_0, # of connection points: 2
#     Edge 75, Type (0, 1), BuildingBlock: XIVTED_clean_linker_0, # of connection points: 2
#     Edge 76, Type (0, 1), BuildingBlock: XIVTED_clean_linker_0, # of connection points: 2
#     Edge 77, Type (0, 1), BuildingBlock: XIVTED_clean_linker_0, # of connection points: 2
#     Edge 78, Type (0, 1), BuildingBlock: XIVTED_clean_linker_0, # of connection points: 2
#     Edge 79, Type (0, 1), BuildingBlock: XIVTED_clean_linker_0, # of connection points: 2
#     Edge 80, Type (0, 1), BuildingBlock: XIVTED_clean_linker_0, # of connection points: 2
#     Edge 81, Type (0, 1), BuildingBlock: XIVTED_clean_linker_0, # of connection points: 2
#     Edge 82, Type (0, 1), BuildingBlock: XIVTED_clean_linker_0, # of connection points: 2
#     Edge 83, Type (0, 1), BuildingBlock: XIVTED_clean_linker_0, # of connection points: 2
#     Edge 84, Type (0, 1), BuildingBlock: XIVTED_clean_linker_0, # of connection points: 2
#     Edge 85, Type (0, 1), BuildingBlock: XIVTED_clean_linker_0, # of connection points: 2
#     Edge 86, Type (0, 1), BuildingBlock: XIVTED_clean_linker_0, # of connection points: 2
#     Edge 87, Type (0, 1), BuildingBlock: XIVTED_clean_linker_0, # of connection points: 2
#     Edge 88, Type (0, 1), BuildingBlock: XIVTED_clean_linker_0, # of connection points: 2
#     Edge 89, Type (0, 1), BuildingBlock: XIVTED_clean_linker_0, # of connection points: 2
#     Edge 90, Type (0, 1), BuildingBlock: XIVTED_clean_linker_0, # of connection points: 2
#     Edge 91, Type (0, 1), BuildingBlock: XIVTED_clean_linker_0, # of connection points: 2
#     Edge 92, Type (0, 1), BuildingBlock: XIVTED_clean_linker_0, # of connection points: 2
#     Edge 93, Type (0, 1), BuildingBlock: XIVTED_clean_linker_0, # of connection points: 2
#     Edge 94, Type (0, 1), BuildingBlock: XIVTED_clean_linker_0, # of connection points: 2
#     Edge 95, Type (0, 1), BuildingBlock: XIVTED_clean_linker_0, # of connection points: 2
#     Edge 96, Type (0, 1), BuildingBlock: XIVTED_clean_linker_0, # of connection points: 2
#     Edge 97, Type (0, 1), BuildingBlock: XIVTED_clean_linker_0, # of connection points: 2
#     Edge 98, Type (0, 1), BuildingBlock: XIVTED_clean_linker_0, # of connection points: 2
#     Edge 99, Type (0, 1), BuildingBlock: XIVTED_clean_linker_0, # of connection points: 2
#     Edge 100, Type (0, 1), BuildingBlock: XIVTED_clean_linker_0, # of connection points: 2
#     Edge 101, Type (0, 1), BuildingBlock: XIVTED_clean_linker_0, # of connection points: 2
#     Edge 102, Type (0, 1), BuildingBlock: XIVTED_clean_linker_0, # of connection points: 2
#     Edge 103, Type (0, 1), BuildingBlock: XIVTED_clean_linker_0, # of connection points: 2
#     Edge 104, Type (0, 1), BuildingBlock: XIVTED_clean_linker_0, # of connection points: 2
#     Edge 105, Type (0, 1), BuildingBlock: XIVTED_clean_linker_0, # of connection points: 2
#     Edge 106, Type (0, 1), BuildingBlock: XIVTED_clean_linker_0, # of connection points: 2
#     Edge 107, Type (0, 1), BuildingBlock: XIVTED_clean_linker_0, # of connection points: 2
#     Edge 108, Type (0, 1), BuildingBlock: XIVTED_clean_linker_0, # of connection points: 2
#     Edge 109, Type (0, 1), BuildingBlock: XIVTED_clean_linker_0, # of connection points: 2
#     Edge 110, Type (0, 1), BuildingBlock: XIVTED_clean_linker_0, # of connection points: 2
#     Edge 111, Type (0, 1), BuildingBlock: XIVTED_clean_linker_0, # of connection points: 2
#     Edge 112, Type (0, 1), BuildingBlock: XIVTED_clean_linker_0, # of connection points: 2
#     Edge 113, Type (0, 1), BuildingBlock: XIVTED_clean_linker_0, # of connection points: 2
#     Edge 114, Type (0, 1), BuildingBlock: XIVTED_clean_linker_0, # of connection points: 2
#     Edge 115, Type (0, 1), BuildingBlock: XIVTED_clean_linker_0, # of connection points: 2
#     Edge 116, Type (0, 1), BuildingBlock: XIVTED_clean_linker_0, # of connection points: 2
#     Edge 117, Type (0, 1), BuildingBlock: XIVTED_clean_linker_0, # of connection points: 2
#     Edge 118, Type (0, 1), BuildingBlock: XIVTED_clean_linker_0, # of connection points: 2
#     Edge 119, Type (0, 1), BuildingBlock: XIVTED_clean_linker_0, # of connection points: 2
#     Edge 120, Type (0, 1), BuildingBlock: XIVTED_clean_linker_0, # of connection points: 2
#     Edge 121, Type (0, 1), BuildingBlock: XIVTED_clean_linker_0, # of connection points: 2
#     Edge 122, Type (0, 1), BuildingBlock: XIVTED_clean_linker_0, # of connection points: 2
#     Edge 123, Type (0, 1), BuildingBlock: XIVTED_clean_linker_0, # of connection points: 2
#     Edge 124, Type (0, 1), BuildingBlock: XIVTED_clean_linker_0, # of connection points: 2
#     Edge 125, Type (0, 1), BuildingBlock: XIVTED_clean_linker_0, # of connection points: 2
#     Edge 126, Type (0, 1), BuildingBlock: XIVTED_clean_linker_0, # of connection points: 2
#     Edge 127, Type (0, 1), BuildingBlock: XIVTED_clean_linker_0, # of connection points: 2
#     Edge 128, Type (0, 1), BuildingBlock: XIVTED_clean_linker_0, # of connection points: 2
#     Edge 129, Type (0, 1), BuildingBlock: XIVTED_clean_linker_0, # of connection points: 2
#     Edge 130, Type (0, 1), BuildingBlock: XIVTED_clean_linker_0, # of connection points: 2
#     Edge 131, Type (0, 1), BuildingBlock: XIVTED_clean_linker_0, # of connection points: 2
#     Edge 132, Type (0, 1), BuildingBlock: XIVTED_clean_linker_0, # of connection points: 2
#     Edge 133, Type (0, 1), BuildingBlock: XIVTED_clean_linker_0, # of connection points: 2
#     Edge 134, Type (0, 1), BuildingBlock: XIVTED_clean_linker_0, # of connection points: 2
#     Edge 135, Type (0, 1), BuildingBlock: XIVTED_clean_linker_0, # of connection points: 2
#     Edge 136, Type (0, 1), BuildingBlock: XIVTED_clean_linker_0, # of connection points: 2
#     Edge 137, Type (0, 1), BuildingBlock: XIVTED_clean_linker_0, # of connection points: 2
#     Edge 138, Type (0, 1), BuildingBlock: XIVTED_clean_linker_0, # of connection points: 2
#     Edge 139, Type (0, 1), BuildingBlock: XIVTED_clean_linker_0, # of connection points: 2
#     Edge 140, Type (0, 1), BuildingBlock: XIVTED_clean_linker_0, # of connection points: 2
#     Edge 141, Type (0, 1), BuildingBlock: XIVTED_clean_linker_0, # of connection points: 2
#     Edge 142, Type (0, 1), BuildingBlock: XIVTED_clean_linker_0, # of connection points: 2
#     Edge 143, Type (0, 1), BuildingBlock: XIVTED_clean_linker_0, # of connection points: 2
#     Edge 144, Type (0, 1), BuildingBlock: XIVTED_clean_linker_0, # of connection points: 2
#     Edge 145, Type (0, 1), BuildingBlock: XIVTED_clean_linker_0, # of connection points: 2
#     Edge 146, Type (0, 1), BuildingBlock: XIVTED_clean_linker_0, # of connection points: 2
#     Edge 147, Type (0, 1), BuildingBlock: XIVTED_clean_linker_0, # of connection points: 2
#     Edge 148, Type (0, 1), BuildingBlock: XIVTED_clean_linker_0, # of connection points: 2
#     Edge 149, Type (0, 1), BuildingBlock: XIVTED_clean_linker_0, # of connection points: 2
#     Edge 150, Type (0, 1), BuildingBlock: XIVTED_clean_linker_0, # of connection points: 2
#     Edge 151, Type (0, 1), BuildingBlock: XIVTED_clean_linker_0, # of connection points: 2
# Relax obj value: 0.002
# Max RMSD: 0.117
# Mean RMSD: 0.047
data_MOF--net-tbo--node1-ESEHIV_clean_sbu_0--node2-VETTIZ_charged_linker_0--edge1-XIVTED_clean_linker_0
_symmetry_space_group_name_H-M    P1
_symmetry_Int_Tables_number       1
_symmetry_cell_setting            triclinic
loop_
_symmetry_equiv_pos_as_xyz
'x, y, z'
_cell_length_a     90.921855
_cell_length_b     90.927538
_cell_length_c     90.9867
_cell_angle_alpha  90.046115
_cell_angle_beta   91.93632
_cell_angle_gamma 90.59992
loop_
_atom_site_label
_atom_site_type_symbol
_atom_site_fract_x
_atom_site_fract_y
_atom_site_fract_z
_atom_type_partial_charge
C0 C 0.19352 0.20201 0.13023 0.0
C1 C 0.20732 0.19847 0.12484 0.0
C2 C 0.21469 0.18605 0.13063 0.0
C3 C 0.19484 0.18161 0.14742 0.0
C4 C 0.18759 0.1936 0.14144 0.0
C5 C 0.17331 0.19655 0.14855 0.0
H6 H 0.12588 0.18298 0.20227 0.0
C7 C 0.18572 0.17567 0.15933 0.0
C8 C 0.17313 0.18446 0.15997 0.0
H9 H 0.12317 0.21577 0.16789 0.0
H10 H 0.14515 0.20651 0.15752 0.0
H11 H 0.13429 0.1567 0.18106 0.0
H12 H 0.16135 0.18533 0.20848 0.0
H13 H 0.16765 0.16723 0.21092 0.0
H14 H 0.14913 0.17165 0.21561 0.0
H15 H 0.13646 0.15381 0.20051 0.0
H16 H 0.14905 0.14606 0.18772 0.0
C17 C 0.16069 0.19459 0.13675 0.0
C18 C 0.17439 0.21207 0.15566 0.0
C19 C 0.20278 0.13171 0.19018 0.0
C20 C 0.19675 0.12454 0.20235 0.0
C21 C 0.18311 0.12931 0.20744 0.0
C22 C 0.17574 0.14113 0.20082 0.0
C23 C 0.18201 0.14841 0.18894 0.0
C24 C 0.19526 0.14365 0.1837 0.0
C25 C 0.20023 0.15295 0.17103 0.0
C26 C 0.1877 0.16386 0.16946 0.0
C27 C 0.17709 0.16116 0.18007 0.0
C28 C 0.20117 0.14297 0.15733 0.0
C29 C 0.21495 0.16058 0.17572 0.0
C30 C 0.1301 0.18815 0.19252 0.0
C31 C 0.12279 0.20017 0.18591 0.0
C32 C 0.12848 0.20643 0.17311 0.0
C33 C 0.14134 0.20108 0.16715 0.0
C34 C 0.14872 0.18932 0.17401 0.0
C35 C 0.14296 0.18284 0.18631 0.0
C36 C 0.15212 0.17007 0.1917 0.0
C37 C 0.16448 0.17025 0.18081 0.0
C38 C 0.16246 0.18167 0.17064 0.0
C39 C 0.14255 0.15588 0.19032 0.0
C40 C 0.15785 0.1736 0.20755 0.0
H41 H 0.2147 0.16838 0.14598 0.0
H42 H 0.18736 0.21124 0.12582 0.0
H43 H 0.18571 0.2143 0.16023 0.0
H44 H 0.16724 0.21338 0.16511 0.0
H45 H 0.17178 0.22077 0.14745 0.0
H46 H 0.16364 0.18647 0.12821 0.0
H47 H 0.15822 0.20513 0.13107 0.0
H48 H 0.15047 0.1901 0.14136 0.0
H49 H 0.21327 0.12836 0.18605 0.0
H50 H 0.17809 0.12385 0.21661 0.0
H51 H 0.16546 0.14421 0.20531 0.0
H52 H 0.19166 0.13518 0.15662 0.0
H53 H 0.2114 0.13639 0.15782 0.0
H54 H 0.20071 0.14919 0.14692 0.0
H55 H 0.21486 0.16406 0.18744 0.0
H56 H 0.21706 0.17075 0.16951 0.0
H57 H 0.22436 0.15302 0.1745 0.0
H58 H 0.22535 0.18305 0.12666 0.0
C59 C 0.20852 0.1776 0.1419 0.0
C60 C 0.84003 0.12959 0.20738 0.0
C61 C 0.82663 0.12356 0.20192 0.0
C62 C 0.81919 0.13066 0.1901 0.0
C63 C 0.83849 0.14932 0.18941 0.0
C64 C 0.8457 0.14236 0.20103 0.0
C65 C 0.85973 0.1501 0.20576 0.0
H66 H 0.907 0.20739 0.19958 0.0
C67 C 0.84737 0.16244 0.18553 0.0
C68 C 0.85979 0.16293 0.19512 0.0
H69 H 0.91004 0.17029 0.22917 0.0
H70 H 0.8876 0.16008 0.21852 0.0
H71 H 0.87134 0.21208 0.20118 0.0
H72 H 0.89787 0.18804 0.17123 0.0
H73 H 0.88353 0.19611 0.16078 0.0
H74 H 0.89669 0.20772 0.17069 0.0
H75 H 0.88342 0.22092 0.18863 0.0
H76 H 0.86488 0.2157 0.1831 0.0
C77 C 0.85821 0.15526 0.22188 0.0
C78 C 0.8727 0.1395 0.20333 0.0
C79 C 0.83063 0.19556 0.1432 0.0
C80 C 0.83655 0.20846 0.13706 0.0
C81 C 0.84969 0.21443 0.1434 0.0
C82 C 0.85682 0.20768 0.15549 0.0
C83 C 0.85081 0.19476 0.16141 0.0
C84 C 0.8379 0.18893 0.15528 0.0
C85 C 0.83309 0.17516 0.16305 0.0
C86 C 0.84536 0.17356 0.17467 0.0
C87 C 0.8557 0.1851 0.17369 0.0
C88 C 0.81806 0.17812 0.16995 0.0
C89 C 0.83286 0.16232 0.15185 0.0
C90 C 0.90272 0.19712 0.20379 0.0
C91 C 0.91024 0.18965 0.21528 0.0
C92 C 0.9045 0.17618 0.22028 0.0
C93 C 0.89141 0.1703 0.21411 0.0
C94 C 0.88395 0.17789 0.20271 0.0
C95 C 0.88969 0.19097 0.19759 0.0
C96 C 0.88052 0.19708 0.18493 0.0
C97 C 0.86819 0.18566 0.18356 0.0
C98 C 0.87025 0.17454 0.1941 0.0
C99 C 0.87475 0.2123 0.18955 0.0
C100 C 0.89008 0.1974 0.17115 0.0
H101 H 0.8189 0.14831 0.17481 0.0
H102 H 0.84593 0.12461 0.21661 0.0
H103 H 0.87019 0.13185 0.19401 0.0
H104 H 0.88288 0.14531 0.20023 0.0
H105 H 0.87506 0.13271 0.21325 0.0
H106 H 0.84682 0.15901 0.22378 0.0
H107 H 0.86066 0.14619 0.22973 0.0
H108 H 0.86531 0.16481 0.22481 0.0
H109 H 0.82046 0.19076 0.13879 0.0
H110 H 0.85464 0.22422 0.13884 0.0
H111 H 0.86678 0.21275 0.15974 0.0
H112 H 0.81748 0.18967 0.17392 0.0
H113 H 0.80884 0.17634 0.1618 0.0
H114 H 0.81616 0.17131 0.17976 0.0
H115 H 0.8424 0.16317 0.14454 0.0
H116 H 0.83385 0.15144 0.15712 0.0
H117 H 0.82266 0.16245 0.14477 0.0
H118 H 0.8089 0.12621 0.18559 0.0
C119 C 0.82505 0.14347 0.18381 0.0
C120 C 0.88145 0.84052 0.19431 0.0
C121 C 0.88993 0.8287 0.18945 0.0
C122 C 0.88538 0.8214 0.17632 0.0
C123 C 0.86454 0.8377 0.17319 0.0
C124 C 0.86885 0.84474 0.18611 0.0
C125 C 0.85847 0.8568 0.19003 0.0
H126 H 0.79695 0.89602 0.17419 0.0
C127 C 0.85098 0.84484 0.16732 0.0
C128 C 0.84735 0.856 0.17721 0.0
H129 H 0.82633 0.89928 0.21245 0.0
H130 H 0.84156 0.88032 0.2028 0.0
H131 H 0.79624 0.86098 0.17293 0.0
H132 H 0.82274 0.89267 0.15036 0.0
H133 H 0.81782 0.87878 0.13766 0.0
H134 H 0.80363 0.88964 0.14565 0.0
H135 H 0.7889 0.87233 0.15837 0.0
H136 H 0.79745 0.85497 0.15467 0.0
C137 C 0.85147 0.85274 0.20483 0.0
C138 C 0.86718 0.87154 0.19025 0.0
C139 C 0.82741 0.82812 0.11839 0.0
C140 C 0.8152 0.83315 0.10995 0.0
C141 C 0.80681 0.84474 0.11551 0.0
C142 C 0.81057 0.85135 0.12905 0.0
C143 C 0.82289 0.84638 0.13725 0.0
C144 C 0.83108 0.83493 0.13191 0.0
C145 C 0.84394 0.83128 0.14209 0.0
C146 C 0.84212 0.84244 0.15434 0.0
C147 C 0.82973 0.85123 0.15145 0.0
C148 C 0.84187 0.81529 0.14757 0.0
C149 C 0.85827 0.83399 0.13372 0.0
C150 C 0.80675 0.89271 0.18039 0.0
C151 C 0.81038 0.8991 0.19415 0.0
C152 C 0.82316 0.8944 0.20193 0.0
C153 C 0.83203 0.88339 0.19629 0.0
C154 C 0.82811 0.87685 0.18271 0.0
C155 C 0.81569 0.88156 0.17496 0.0
C156 C 0.81314 0.87308 0.16084 0.0
C157 C 0.82598 0.86246 0.16152 0.0
C158 C 0.83474 0.86479 0.17433 0.0
C159 C 0.79812 0.86495 0.16158 0.0
C160 C 0.81426 0.88403 0.14787 0.0
H161 H 0.86998 0.81981 0.15833 0.0
H162 H 0.88457 0.84652 0.20423 0.0
H163 H 0.87501 0.87195 0.18112 0.0
H164 H 0.86008 0.88121 0.18857 0.0
H165 H 0.87367 0.87293 0.20074 0.0
H166 H 0.85057 0.8406 0.20618 0.0
H167 H 0.85818 0.85708 0.21433 0.0
H168 H 0.84006 0.85666 0.20557 0.0
H169 H 0.83416 0.81932 0.11441 0.0
H170 H 0.79721 0.84868 0.10939 0.0
H171 H 0.80372 0.86012 0.13259 0.0
H172 H 0.83002 0.81266 0.14898 0.0
H173 H 0.84616 0.80726 0.13962 0.0
H174 H 0.84714 0.81338 0.15851 0.0
H175 H 0.85731 0.84399 0.12673 0.0
H176 H 0.86795 0.83608 0.14109 0.0
H177 H 0.86061 0.82456 0.12642 0.0
H178 H 0.89142 0.81206 0.17239 0.0
C179 C 0.87281 0.82584 0.16819 0.0
C180 C 0.18609 0.88252 0.19854 0.0
C181 C 0.17824 0.8881 0.21037 0.0
C182 C 0.16535 0.88063 0.21453 0.0
C183 C 0.16832 0.86254 0.19526 0.0
C184 C 0.18097 0.8698 0.19121 0.0
C185 C 0.18798 0.86252 0.17838 0.0
H186 H 0.18714 0.8088 0.12675 0.0
C187 C 0.16603 0.84969 0.18539 0.0
C188 C 0.17754 0.84959 0.17552 0.0
H189 H 0.21839 0.84462 0.13324 0.0
H190 H 0.20538 0.85296 0.15414 0.0
H191 H 0.18498 0.80063 0.1616 0.0
H192 H 0.15773 0.82804 0.13337 0.0
H193 H 0.14645 0.81631 0.14365 0.0
H194 H 0.15891 0.80848 0.13092 0.0
H195 H 0.17267 0.79295 0.14771 0.0
H196 H 0.16647 0.79749 0.16578 0.0
C197 C 0.20354 0.8574 0.18351 0.0
C198 C 0.18779 0.87355 0.16538 0.0
C199 C 0.12098 0.81708 0.19086 0.0
C200 C 0.11576 0.80426 0.1837 0.0
C201 C 0.12427 0.79793 0.17274 0.0
C202 C 0.13757 0.8046 0.16864 0.0
C203 C 0.14246 0.81766 0.1757 0.0
C204 C 0.13428 0.82349 0.18679 0.0
C205 C 0.14129 0.83702 0.19356 0.0
C206 C 0.15491 0.83862 0.18451 0.0
C207 C 0.15553 0.82735 0.17395 0.0
C208 C 0.14521 0.8337 0.20994 0.0
C209 C 0.1306 0.85002 0.19106 0.0
C210 C 0.19121 0.81837 0.13277 0.0
C211 C 0.20375 0.82614 0.12819 0.0
C212 C 0.20862 0.83859 0.1363 0.0
C213 C 0.20108 0.8434 0.14853 0.0
C214 C 0.18844 0.83574 0.1528 0.0
C215 C 0.18371 0.82339 0.14504 0.0
C216 C 0.16996 0.81676 0.15126 0.0
C217 C 0.16719 0.82727 0.16388 0.0
C218 C 0.1781 0.83835 0.16469 0.0
C219 C 0.17357 0.80109 0.15682 0.0
C220 C 0.15755 0.81729 0.13921 0.0
H221 H 0.15051 0.86279 0.21081 0.0
H222 H 0.19593 0.88805 0.19489 0.0
H223 H 0.17786 0.88059 0.1655 0.0
H224 H 0.18713 0.8681 0.15453 0.0
H225 H 0.1976 0.88093 0.16596 0.0
H226 H 0.20359 0.85362 0.19514 0.0
H227 H 0.21173 0.8665 0.18281 0.0
H228 H 0.20739 0.84786 0.17725 0.0
H229 H 0.11482 0.82202 0.19954 0.0
H230 H 0.12047 0.78803 0.16712 0.0
H231 H 0.14348 0.79942 0.16008 0.0
H232 H 0.14787 0.82188 0.21157 0.0
H233 H 0.13589 0.83629 0.21705 0.0
H234 H 0.15516 0.83968 0.21405 0.0
H235 H 0.12511 0.84933 0.17996 0.0
H236 H 0.13619 0.86085 0.19135 0.0
H237 H 0.12187 0.84993 0.19931 0.0
H238 H 0.15918 0.8845 0.22372 0.0
C239 C 0.16037 0.86792 0.20708 0.0
C240 C 0.20002 0.82522 0.89323 0.0
C241 C 0.19605 0.8122 0.9006 0.0
C242 C 0.18339 0.80437 0.89553 0.0
C243 C 0.17936 0.82207 0.87586 0.0
C244 C 0.19163 0.82987 0.88091 0.0
C245 C 0.19468 0.84314 0.87155 0.0
H246 H 0.17732 0.8841 0.81119 0.0
C247 C 0.1734 0.82953 0.86252 0.0
C248 C 0.18237 0.84187 0.85988 0.0
H249 H 0.21209 0.89202 0.84398 0.0
H250 H 0.20474 0.87035 0.85717 0.0
H251 H 0.15237 0.87535 0.8349 0.0
H252 H 0.18139 0.84993 0.8087 0.0
H253 H 0.16465 0.84018 0.80903 0.0
H254 H 0.16513 0.85829 0.80091 0.0
H255 H 0.15035 0.87394 0.81525 0.0
H256 H 0.14215 0.86058 0.82716 0.0
C257 C 0.19317 0.85708 0.88117 0.0
C258 C 0.21003 0.84132 0.86494 0.0
C259 C 0.128 0.80854 0.83544 0.0
C260 C 0.12061 0.81236 0.8222 0.0
C261 C 0.12577 0.82444 0.8141 0.0
C262 C 0.13802 0.83271 0.81916 0.0
C263 C 0.14532 0.82879 0.83242 0.0
C264 C 0.14038 0.81678 0.84024 0.0
C265 C 0.15 0.81376 0.85366 0.0
C266 C 0.16129 0.82614 0.85279 0.0
C267 C 0.15842 0.83498 0.84039 0.0
C268 C 0.1405 0.81522 0.86738 0.0
C269 C 0.15703 0.79842 0.85179 0.0
C270 C 0.18329 0.88128 0.82128 0.0
C271 C 0.19539 0.88986 0.82643 0.0
C272 C 0.20291 0.88555 0.83955 0.0
C273 C 0.19855 0.87298 0.84729 0.0
C274 C 0.1865 0.86451 0.84194 0.0
C275 C 0.17904 0.86877 0.82918 0.0
C276 C 0.1664 0.85854 0.82521 0.0
C277 C 0.16747 0.84748 0.8377 0.0
C278 C 0.17932 0.85098 0.84745 0.0
C279 C 0.152 0.86748 0.82552 0.0
C280 C 0.16939 0.85138 0.81015 0.0
H281 H 0.16562 0.80271 0.87992 0.0
H282 H 0.20951 0.83169 0.89691 0.0
H283 H 0.21179 0.82969 0.86169 0.0
H284 H 0.21142 0.84775 0.8548 0.0
H285 H 0.21893 0.84444 0.87306 0.0
H286 H 0.18439 0.85554 0.88928 0.0
H287 H 0.2036 0.85961 0.88741 0.0
H288 H 0.18979 0.86684 0.87473 0.0
H289 H 0.1244 0.79915 0.84177 0.0
H290 H 0.12019 0.82761 0.80389 0.0
H291 H 0.14135 0.84181 0.81251 0.0
H292 H 0.133 0.82478 0.86622 0.0
H293 H 0.13359 0.80522 0.86888 0.0
H294 H 0.14709 0.81729 0.87759 0.0
H295 H 0.15844 0.79576 0.83998 0.0
H296 H 0.16826 0.79781 0.85678 0.0
H297 H 0.15008 0.7896 0.85648 0.0
H298 H 0.18011 0.79425 0.90081 0.0
C299 C 0.17504 0.80924 0.88326 0.0
C300 C 0.16004 0.17902 0.8224 0.0
C301 C 0.15196 0.19145 0.82642 0.0
C302 C 0.15701 0.19975 0.83876 0.0
C303 C 0.17741 0.1831 0.84297 0.0
C304 C 0.17265 0.17508 0.83077 0.0
C305 C 0.18244 0.16218 0.82799 0.0
H306 H 0.24004 0.11967 0.8497 0.0
C307 C 0.19069 0.17593 0.84942 0.0
C308 C 0.1937 0.16366 0.84066 0.0
H309 H 0.21193 0.11508 0.81069 0.0
H310 H 0.19858 0.13678 0.81734 0.0
H311 H 0.24488 0.15391 0.84613 0.0
H312 H 0.21443 0.12955 0.87223 0.0
H313 H 0.22219 0.14379 0.88318 0.0
H314 H 0.23394 0.12987 0.87602 0.0
H315 H 0.25056 0.14522 0.86305 0.0
H316 H 0.24333 0.16364 0.86266 0.0
C317 C 0.1895 0.16441 0.81287 0.0
C318 C 0.17306 0.14794 0.82918 0.0
C319 C 0.21565 0.19654 0.89609 0.0
C320 C 0.22789 0.1921 0.90485 0.0
C321 C 0.23567 0.17953 0.90061 0.0
C322 C 0.23127 0.17148 0.88802 0.0
C323 C 0.21895 0.176 0.87947 0.0
C324 C 0.2114 0.18838 0.88354 0.0
C325 C 0.1986 0.19159 0.87314 0.0
C326 C 0.19975 0.17913 0.86211 0.0
C327 C 0.21166 0.17 0.86591 0.0
C328 C 0.20131 0.2068 0.866 0.0
C329 C 0.1843 0.19048 0.88187 0.0
C330 C 0.23092 0.12332 0.84269 0.0
C331 C 0.22694 0.11564 0.82972 0.0
C332 C 0.21522 0.12087 0.82071 0.0
C333 C 0.20745 0.13344 0.82462 0.0
C334 C 0.21151 0.141 0.83763 0.0
C335 C 0.2232 0.13603 0.84633 0.0
C336 C 0.22644 0.14594 0.85932 0.0
C337 C 0.21463 0.15752 0.85711 0.0
C338 C 0.20581 0.15447 0.84448 0.0
C339 C 0.24213 0.1525 0.85788 0.0
C340 C 0.22426 0.13689 0.8735 0.0
H341 H 0.1728 0.20245 0.85625 0.0
H342 H 0.15651 0.1723 0.81308 0.0
H343 H 0.16564 0.14864 0.83863 0.0
H344 H 0.17972 0.13804 0.83124 0.0
H345 H 0.16608 0.14616 0.81906 0.0
H346 H 0.19086 0.1763 0.81029 0.0
H347 H 0.18259 0.15938 0.80386 0.0
H348 H 0.20075 0.15994 0.81256 0.0
H349 H 0.20952 0.20625 0.89886 0.0
H350 H 0.24502 0.17575 0.9072 0.0
H351 H 0.2376 0.16197 0.88548 0.0
H352 H 0.21322 0.2086 0.86409 0.0
H353 H 0.19764 0.21584 0.87318 0.0
H354 H 0.19585 0.20788 0.85503 0.0
H355 H 0.18502 0.18144 0.89009 0.0
H356 H 0.17449 0.18775 0.87489 0.0
H357 H 0.1823 0.20085 0.88791 0.0
H358 H 0.15127 0.20955 0.84199 0.0
C359 C 0.16962 0.19566 0.84701 0.0
C360 C 0.83504 0.14988 0.82798 0.0
C361 C 0.83977 0.14251 0.81543 0.0
C362 C 0.85271 0.14754 0.80879 0.0
C363 C 0.85595 0.16671 0.82732 0.0
C364 C 0.84324 0.16177 0.8337 0.0
C365 C 0.83958 0.17045 0.84708 0.0
H366 H 0.85617 0.2249 0.89541 0.0
C367 C 0.86178 0.17934 0.83618 0.0
C368 C 0.85217 0.18149 0.84776 0.0
H369 H 0.81934 0.19438 0.89529 0.0
H370 H 0.8276 0.18323 0.87312 0.0
H371 H 0.85447 0.23157 0.86119 0.0
H372 H 0.88036 0.20101 0.88682 0.0
H373 H 0.89196 0.20876 0.87379 0.0
H374 H 0.88376 0.22049 0.88718 0.0
H375 H 0.87029 0.2373 0.87213 0.0
H376 H 0.87182 0.23121 0.85336 0.0
C377 C 0.82454 0.17797 0.84405 0.0
C378 C 0.84003 0.15989 0.86048 0.0
C379 C 0.90879 0.20652 0.82231 0.0
C380 C 0.91643 0.21872 0.82855 0.0
C381 C 0.91095 0.22531 0.84125 0.0
C382 C 0.89815 0.21998 0.84761 0.0
C383 C 0.89062 0.20787 0.84125 0.0
C384 C 0.89592 0.20133 0.8288 0.0
C385 C 0.88626 0.18863 0.82356 0.0
C386 C 0.87435 0.18869 0.83492 0.0
C387 C 0.87705 0.19998 0.84527 0.0
C388 C 0.88002 0.19229 0.80798 0.0
C389 C 0.89548 0.17444 0.82436 0.0
C390 C 0.84995 0.21574 0.89065 0.0
C391 C 0.83705 0.21054 0.89714 0.0
C392 C 0.82918 0.19875 0.89044 0.0
C393 C 0.83407 0.1922 0.87759 0.0
C394 C 0.84702 0.19744 0.8713 0.0
C395 C 0.85469 0.20906 0.87778 0.0
C396 C 0.86815 0.2132 0.86946 0.0
C397 C 0.86734 0.20205 0.85699 0.0
C398 C 0.85497 0.19286 0.85818 0.0
C399 C 0.86625 0.22917 0.86378 0.0
C400 C 0.88184 0.21088 0.87978 0.0
H401 H 0.8706 0.16283 0.80917 0.0
H402 H 0.82502 0.14658 0.83323 0.0
H403 H 0.84853 0.1513 0.85924 0.0
H404 H 0.84317 0.16547 0.87092 0.0
H405 H 0.82928 0.15417 0.86167 0.0
H406 H 0.82313 0.18108 0.83227 0.0
H407 H 0.81526 0.17052 0.84673 0.0
H408 H 0.82346 0.18841 0.85012 0.0
H409 H 0.91261 0.20126 0.81249 0.0
H410 H 0.9167 0.23454 0.84644 0.0
H411 H 0.89464 0.22551 0.85727 0.0
H412 H 0.87699 0.2041 0.8072 0.0
H413 H 0.88828 0.19013 0.79953 0.0
H414 H 0.86982 0.18613 0.80506 0.0
H415 H 0.90271 0.17438 0.83448 0.0
H416 H 0.88866 0.16437 0.82502 0.0
H417 H 0.90264 0.17357 0.81475 0.0
H418 H 0.85669 0.14203 0.79916 0.0
C419 C 0.86083 0.15957 0.81467 0.0
C420 C 0.82889 0.83907 0.87025 0.0
C421 C 0.81633 0.84474 0.87687 0.0
C422 C 0.80958 0.85729 0.87066 0.0
C423 C 0.82803 0.85871 0.85211 0.0
C424 C 0.83454 0.84624 0.85793 0.0
C425 C 0.84785 0.84186 0.84954 0.0
H426 H 0.89504 0.85733 0.79518 0.0
C427 C 0.83669 0.86376 0.83959 0.0
C428 C 0.84836 0.85393 0.83798 0.0
H429 H 0.89551 0.81949 0.82401 0.0
H430 H 0.87409 0.82858 0.83599 0.0
H431 H 0.88707 0.88124 0.81914 0.0
H432 H 0.86091 0.85574 0.78799 0.0
H433 H 0.85307 0.87327 0.78831 0.0
H434 H 0.87176 0.87129 0.78259 0.0
H435 H 0.88674 0.88486 0.79974 0.0
H436 H 0.87361 0.89302 0.81164 0.0
C437 C 0.86146 0.84244 0.86022 0.0
C438 C 0.84477 0.82655 0.84258 0.0
C439 C 0.82188 0.91027 0.81201 0.0
C440 C 0.82803 0.91802 0.80026 0.0
C441 C 0.84085 0.91253 0.794 0.0
C442 C 0.84744 0.89964 0.79935 0.0
C443 C 0.84118 0.89208 0.81113 0.0
C444 C 0.82862 0.89743 0.81725 0.0
C445 C 0.82361 0.88805 0.82979 0.0
C446 C 0.83519 0.87612 0.83011 0.0
C447 C 0.84543 0.87855 0.81916 0.0
C448 C 0.82437 0.89757 0.84395 0.0
C449 C 0.80809 0.88181 0.82563 0.0
C450 C 0.8905 0.85083 0.80394 0.0
C451 C 0.89708 0.83761 0.80855 0.0
C452 C 0.89085 0.8298 0.82029 0.0
C453 C 0.87831 0.83504 0.82717 0.0
C454 C 0.87183 0.8482 0.82227 0.0
C455 C 0.87793 0.85579 0.81078 0.0
C456 C 0.86945 0.86932 0.80662 0.0
C457 C 0.85722 0.86867 0.81751 0.0
C458 C 0.85867 0.85636 0.82677 0.0
C459 C 0.87968 0.88288 0.80929 0.0
C460 C 0.86352 0.86748 0.79053 0.0
H461 H 0.80967 0.87379 0.8543 0.0
H462 H 0.83437 0.82946 0.87471 0.0
H463 H 0.83297 0.82532 0.83909 0.0
H464 H 0.85088 0.82476 0.83246 0.0
H465 H 0.84739 0.81761 0.85053 0.0
H466 H 0.86117 0.8524 0.86731 0.0
H467 H 0.86175 0.83265 0.86752 0.0
H468 H 0.87195 0.8432 0.85451 0.0
H469 H 0.81194 0.91403 0.81698 0.0
H470 H 0.84596 0.91834 0.78509 0.0
H471 H 0.85721 0.89612 0.79415 0.0
H472 H 0.83385 0.90541 0.84383 0.0
H473 H 0.81422 0.90412 0.845 0.0
H474 H 0.82624 0.89105 0.85406 0.0
H475 H 0.80699 0.8795 0.81363 0.0
H476 H 0.80576 0.87116 0.83095 0.0
H477 H 0.79939 0.88975 0.82837 0.0
H478 H 0.79971 0.86171 0.87523 0.0
C479 C 0.81534 0.86428 0.8584 0.0
C480 C 0.20064 0.64627 0.68189 0.0
C481 C 0.2125 0.63892 0.67563 0.0
C482 C 0.21838 0.64458 0.66262 0.0
C483 C 0.20059 0.66422 0.66208 0.0
C484 C 0.19483 0.65884 0.67491 0.0
C485 C 0.18205 0.66791 0.67977 0.0
H486 H 0.13653 0.72571 0.66657 0.0
C487 C 0.19209 0.67728 0.65745 0.0
C488 C 0.18117 0.67956 0.66777 0.0
H489 H 0.13518 0.69497 0.70273 0.0
H490 H 0.15643 0.68245 0.69358 0.0
H491 H 0.14211 0.70184 0.64186 0.0
H492 H 0.17097 0.73034 0.66751 0.0
H493 H 0.17796 0.72989 0.64978 0.0
H494 H 0.15975 0.73696 0.65238 0.0
H495 H 0.14328 0.7213 0.63876 0.0
H496 H 0.15533 0.70866 0.62993 0.0
C497 C 0.16816 0.65792 0.67962 0.0
C498 C 0.18618 0.67465 0.69499 0.0
C499 C 0.20501 0.70414 0.61053 0.0
C500 C 0.19915 0.71657 0.60332 0.0
C501 C 0.18738 0.724 0.60961 0.0
C502 C 0.18144 0.71904 0.62276 0.0
C503 C 0.18732 0.70651 0.62976 0.0
C504 C 0.19896 0.69935 0.62366 0.0
C505 C 0.20392 0.68633 0.63268 0.0
C506 C 0.19327 0.68681 0.64517 0.0
C507 C 0.18357 0.6986 0.64336 0.0
C508 C 0.20167 0.67233 0.62309 0.0
C509 C 0.22003 0.68923 0.63815 0.0
C510 C 0.14067 0.71618 0.67247 0.0
C511 C 0.13404 0.71126 0.68532 0.0
C512 C 0.1401 0.69904 0.69283 0.0
C513 C 0.15239 0.69173 0.68745 0.0
C514 C 0.15873 0.69671 0.67443 0.0
C515 C 0.15285 0.7088 0.66726 0.0
C516 C 0.16087 0.71272 0.65365 0.0
C517 C 0.17251 0.70094 0.6537 0.0
C518 C 0.17128 0.69152 0.66587 0.0
C519 C 0.14991 0.71119 0.64029 0.0
C520 C 0.1677 0.72831 0.65578 0.0
H521 H 0.21754 0.66078 0.64599 0.0
H522 H 0.19582 0.64218 0.69184 0.0
H523 H 0.1979 0.67832 0.69547 0.0
H524 H 0.17981 0.68457 0.69742 0.0
H525 H 0.18469 0.66648 0.7039 0.0
H526 H 0.16792 0.65046 0.66991 0.0
H527 H 0.16795 0.65097 0.68964 0.0
H528 H 0.15783 0.66415 0.67866 0.0
H529 H 0.21422 0.69832 0.60615 0.0
H530 H 0.18259 0.73353 0.60424 0.0
H531 H 0.17243 0.72512 0.62692 0.0
H532 H 0.19164 0.67323 0.61581 0.0
H533 H 0.21117 0.67059 0.61596 0.0
H534 H 0.19982 0.66229 0.62963 0.0
H535 H 0.22206 0.70115 0.64024 0.0
H536 H 0.22274 0.68387 0.64878 0.0
H537 H 0.22796 0.68561 0.62989 0.0
H538 H 0.22767 0.63936 0.6577 0.0
C539 C 0.21252 0.65712 0.65586 0.0
C540 C 0.84204 0.63184 0.69862 0.0
C541 C 0.82928 0.62393 0.69432 0.0
C542 C 0.82089 0.62879 0.68194 0.0
C543 C 0.83771 0.6495 0.67897 0.0
C544 C 0.84594 0.64448 0.69095 0.0
C545 C 0.85891 0.6542 0.69474 0.0
H546 H 0.89876 0.7158 0.68378 0.0
C547 C 0.8448 0.66327 0.67383 0.0
C548 C 0.85718 0.666 0.68311 0.0
H549 H 0.90535 0.68198 0.71671 0.0
H550 H 0.88467 0.66841 0.7067 0.0
H551 H 0.86332 0.71658 0.68534 0.0
H552 H 0.89145 0.69298 0.65654 0.0
H553 H 0.87642 0.6995 0.64588 0.0
H554 H 0.8888 0.71246 0.65504 0.0
H555 H 0.87367 0.7256 0.67144 0.0
H556 H 0.85571 0.71774 0.66737 0.0
C557 C 0.85694 0.66036 0.71048 0.0
C558 C 0.87308 0.64512 0.69281 0.0
C559 C 0.82265 0.69194 0.63043 0.0
C560 C 0.82658 0.70533 0.62378 0.0
C561 C 0.83942 0.71279 0.629 0.0
C562 C 0.84801 0.70723 0.64076 0.0
C563 C 0.84377 0.69405 0.64752 0.0
C564 C 0.83133 0.68656 0.64229 0.0
C565 C 0.82848 0.6728 0.65101 0.0
C566 C 0.84125 0.67327 0.66225 0.0
C567 C 0.85017 0.6858 0.66016 0.0
C568 C 0.81345 0.67435 0.65833 0.0
C569 C 0.8294 0.65943 0.64057 0.0
C570 C 0.89574 0.70542 0.68874 0.0
C571 C 0.90361 0.70007 0.70123 0.0
C572 C 0.89931 0.68653 0.70734 0.0
C573 C 0.8873 0.67859 0.70142 0.0
C574 C 0.87932 0.68417 0.68922 0.0
C575 C 0.8836 0.6973 0.68296 0.0
C576 C 0.87364 0.70137 0.67 0.0
C577 C 0.86267 0.68856 0.66969 0.0
C578 C 0.86613 0.67862 0.68101 0.0
C579 C 0.86621 0.71614 0.67356 0.0
C580 C 0.88298 0.70173 0.65609 0.0
H581 H 0.81817 0.64477 0.665 0.0
H582 H 0.84895 0.62829 0.70785 0.0
H583 H 0.87155 0.63692 0.68378 0.0
H584 H 0.88258 0.65192 0.68956 0.0
H585 H 0.87611 0.63899 0.70301 0.0
H586 H 0.84509 0.66159 0.71288 0.0
H587 H 0.86184 0.65293 0.71896 0.0
H588 H 0.86164 0.67153 0.71205 0.0
H589 H 0.81282 0.68599 0.62675 0.0
H590 H 0.84286 0.72298 0.62395 0.0
H591 H 0.85757 0.71349 0.64421 0.0
H592 H 0.81186 0.68583 0.66216 0.0
H593 H 0.80423 0.67156 0.65047 0.0
H594 H 0.8125 0.6675 0.66826 0.0
H595 H 0.83863 0.66087 0.63296 0.0
H596 H 0.83167 0.64905 0.64645 0.0
H597 H 0.81908 0.65809 0.63378 0.0
H598 H 0.81098 0.62291 0.67838 0.0
C599 C 0.82504 0.64153 0.67424 0.0
C600 C 0.90349 0.32974 0.69962 0.0
C601 C 0.91113 0.31801 0.6933 0.0
C602 C 0.90507 0.31119 0.68054 0.0
C603 C 0.88428 0.3276 0.68044 0.0
C604 C 0.89014 0.33443 0.69292 0.0
C605 C 0.88069 0.34706 0.69765 0.0
H606 H 0.81967 0.38884 0.68525 0.0
C607 C 0.87036 0.33494 0.67614 0.0
C608 C 0.86813 0.34642 0.68611 0.0
H609 H 0.8535 0.39422 0.71945 0.0
H610 H 0.86603 0.37288 0.71061 0.0
H611 H 0.8171 0.35323 0.68818 0.0
H612 H 0.84148 0.38125 0.65931 0.0
H613 H 0.83331 0.36695 0.64876 0.0
H614 H 0.82177 0.37962 0.65815 0.0
H615 H 0.80829 0.36326 0.67343 0.0
H616 H 0.81603 0.34533 0.67055 0.0
C617 C 0.87529 0.3437 0.71325 0.0
C618 C 0.88987 0.36143 0.69658 0.0
C619 C 0.84079 0.31564 0.63186 0.0
C620 C 0.82723 0.3195 0.62512 0.0
C621 C 0.81944 0.3314 0.63097 0.0
C622 C 0.82505 0.33921 0.64331 0.0
C623 C 0.8386 0.3351 0.64994 0.0
C624 C 0.84616 0.32345 0.64418 0.0
C625 C 0.86024 0.32039 0.65264 0.0
C626 C 0.85994 0.3321 0.66449 0.0
C627 C 0.84731 0.34076 0.66286 0.0
C628 C 0.85911 0.30465 0.65912 0.0
C629 C 0.87318 0.32284 0.64217 0.0
C630 C 0.82969 0.38534 0.69094 0.0
C631 C 0.83561 0.39337 0.70302 0.0
C632 C 0.84879 0.38844 0.70997 0.0
C633 C 0.85606 0.37599 0.70485 0.0
C634 C 0.85018 0.36829 0.69258 0.0
C635 C 0.83714 0.37295 0.6859 0.0
C636 C 0.83255 0.36348 0.67294 0.0
C637 C 0.84505 0.35253 0.67281 0.0
C638 C 0.85538 0.35535 0.68438 0.0
C639 C 0.81767 0.35596 0.67629 0.0
C640 C 0.83213 0.37325 0.659 0.0
H641 H 0.88783 0.31012 0.66447 0.0
H642 H 0.90792 0.33528 0.70936 0.0
H643 H 0.89708 0.3611 0.68694 0.0
H644 H 0.88302 0.37126 0.69481 0.0
H645 H 0.89706 0.36309 0.70657 0.0
H646 H 0.87213 0.33189 0.71422 0.0
H647 H 0.88406 0.34608 0.72173 0.0
H648 H 0.86534 0.34987 0.71593 0.0
H649 H 0.84724 0.30677 0.62757 0.0
H650 H 0.8089 0.33456 0.62613 0.0
H651 H 0.81859 0.34811 0.64725 0.0
H652 H 0.84761 0.30198 0.66207 0.0
H653 H 0.86253 0.29626 0.65107 0.0
H654 H 0.86562 0.30329 0.66948 0.0
H655 H 0.87057 0.33155 0.63394 0.0
H656 H 0.88335 0.32681 0.64796 0.0
H657 H 0.8756 0.31263 0.63603 0.0
H658 H 0.91059 0.30202 0.67557 0.0
C659 C 0.89176 0.31587 0.67413 0.0
C660 C 0.20027 0.41236 0.71191 0.0
C661 C 0.19499 0.419 0.72461 0.0
C662 C 0.18423 0.41161 0.73267 0.0
C663 C 0.18368 0.39159 0.71491 0.0
C664 C 0.19458 0.39871 0.70735 0.0
C665 C 0.19921 0.39018 0.69417 0.0
H666 H 0.19101 0.33134 0.64911 0.0
C667 C 0.17999 0.37774 0.70695 0.0
C668 C 0.18917 0.3768 0.69491 0.0
H669 H 0.22188 0.36774 0.64675 0.0
H670 H 0.21242 0.37815 0.66863 0.0
H671 H 0.19504 0.32676 0.68467 0.0
H672 H 0.16278 0.35117 0.65901 0.0
H673 H 0.15383 0.34062 0.67233 0.0
H674 H 0.16384 0.33146 0.65833 0.0
H675 H 0.18089 0.31773 0.67366 0.0
H676 H 0.17767 0.32383 0.69214 0.0
C677 C 0.21566 0.38611 0.69657 0.0
C678 C 0.1958 0.3996 0.68029 0.0
C679 C 0.1378 0.34575 0.72388 0.0
C680 C 0.13169 0.33231 0.71895 0.0
C681 C 0.13797 0.32514 0.70695 0.0
C682 C 0.14995 0.33145 0.69979 0.0
C683 C 0.15581 0.34502 0.70473 0.0
C684 C 0.14984 0.35181 0.71673 0.0
C685 C 0.15776 0.36586 0.7209 0.0
C686 C 0.16926 0.36661 0.70924 0.0
C687 C 0.16806 0.35444 0.69967 0.0
C688 C 0.1648 0.36402 0.73655 0.0
C689 C 0.14664 0.37861 0.71941 0.0
C690 C 0.19575 0.34151 0.65338 0.0
C691 C 0.2071 0.34882 0.64598 0.0
C692 C 0.21293 0.36204 0.65195 0.0
C693 C 0.20748 0.36805 0.66479 0.0
C694 C 0.196 0.36084 0.67189 0.0
C695 C 0.19035 0.34775 0.66628 0.0
C696 C 0.17817 0.34173 0.67554 0.0
C697 C 0.17751 0.35341 0.68753 0.0
C698 C 0.18799 0.36455 0.68523 0.0
C699 C 0.18305 0.32667 0.6818 0.0
C700 C 0.16386 0.34108 0.66587 0.0
H701 H 0.17015 0.39294 0.73431 0.0
H702 H 0.20876 0.41766 0.70566 0.0
H703 H 0.18538 0.40576 0.68143 0.0
H704 H 0.19401 0.39298 0.67021 0.0
H705 H 0.20472 0.40778 0.6785 0.0
H706 H 0.21863 0.3849 0.70847 0.0
H707 H 0.22301 0.3947 0.69207 0.0
H708 H 0.21833 0.37534 0.69172 0.0
H709 H 0.1334 0.35137 0.73324 0.0
H710 H 0.13343 0.31477 0.70295 0.0
H711 H 0.15417 0.32554 0.69065 0.0
H712 H 0.1676 0.35234 0.73882 0.0
H713 H 0.15718 0.36762 0.74511 0.0
H714 H 0.17537 0.37005 0.73801 0.0
H715 H 0.13961 0.3773 0.70924 0.0
H716 H 0.15197 0.3895 0.71844 0.0
H717 H 0.13928 0.37882 0.72891 0.0
H718 H 0.18005 0.41654 0.74251 0.0
C719 C 0.17849 0.39795 0.72785 0.0
C720 C 0.20185 0.3223 0.40589 0.0
C721 C 0.19574 0.31006 0.41302 0.0
C722 C 0.18405 0.30224 0.40599 0.0
C723 C 0.18415 0.31932 0.38551 0.0
C724 C 0.19598 0.32666 0.39215 0.0
C725 C 0.20119 0.33939 0.38305 0.0
H726 H 0.1922 0.38307 0.32314 0.0
C727 C 0.18031 0.32701 0.37159 0.0
C728 C 0.19035 0.33866 0.36997 0.0
H729 H 0.22599 0.38551 0.35773 0.0
H730 H 0.21577 0.36417 0.36928 0.0
H731 H 0.16501 0.37474 0.3446 0.0
H732 H 0.19333 0.3473 0.31935 0.0
H733 H 0.17522 0.34041 0.31749 0.0
H734 H 0.17943 0.35857 0.31073 0.0
H735 H 0.16456 0.37477 0.32485 0.0
H736 H 0.15426 0.36142 0.33499 0.0
C737 C 0.19946 0.35366 0.39214 0.0
C738 C 0.21716 0.33628 0.37854 0.0
C739 C 0.13461 0.31091 0.34224 0.0
C740 C 0.12781 0.31574 0.32906 0.0
C741 C 0.13449 0.32723 0.32119 0.0
C742 C 0.14755 0.33404 0.32661 0.0
C743 C 0.15405 0.32925 0.33999 0.0
C744 C 0.14765 0.3177 0.34742 0.0
C745 C 0.15621 0.31363 0.36118 0.0
C746 C 0.16866 0.32483 0.36103 0.0
C747 C 0.16736 0.33407 0.34867 0.0
C748 C 0.14614 0.31594 0.37438 0.0
C749 C 0.16181 0.29768 0.35944 0.0
C750 C 0.19744 0.37894 0.33314 0.0
C751 C 0.20985 0.3862 0.3396 0.0
C752 C 0.21626 0.38041 0.35266 0.0
C753 C 0.21035 0.36791 0.35934 0.0
C754 C 0.19782 0.36098 0.35297 0.0
C755 C 0.19162 0.3664 0.34002 0.0
C756 C 0.17835 0.35743 0.33488 0.0
C757 C 0.17766 0.34581 0.3469 0.0
C758 C 0.18909 0.34803 0.35749 0.0
C759 C 0.16477 0.36755 0.33469 0.0
C760 C 0.1816 0.3506 0.31977 0.0
H761 H 0.16914 0.30054 0.38767 0.0
H762 H 0.21102 0.32838 0.41092 0.0
H763 H 0.21905 0.32427 0.37744 0.0
H764 H 0.21964 0.34086 0.36764 0.0
H765 H 0.22531 0.34062 0.38686 0.0
H766 H 0.18906 0.35331 0.39824 0.0
H767 H 0.20871 0.35507 0.40033 0.0
H768 H 0.19869 0.36364 0.38529 0.0
H769 H 0.12991 0.3019 0.34838 0.0
H770 H 0.12945 0.33113 0.31098 0.0
H771 H 0.15202 0.34283 0.32022 0.0
H772 H 0.13967 0.32619 0.37296 0.0
H773 H 0.13821 0.30664 0.37537 0.0
H774 H 0.15228 0.31732 0.38496 0.0
H775 H 0.16324 0.29483 0.34768 0.0
H776 H 0.17283 0.29607 0.36471 0.0
H777 H 0.15397 0.28955 0.36397 0.0
H778 H 0.17913 0.29281 0.41129 0.0
C779 C 0.17821 0.30681 0.39231 0.0
C780 C 0.20133 0.62227 0.31986 0.0
C781 C 0.19392 0.6154 0.30785 0.0
C782 C 0.1818 0.62254 0.30104 0.0
C783 C 0.18424 0.64264 0.31867 0.0
C784 C 0.19639 0.63581 0.32501 0.0
C785 C 0.2032 0.6445 0.3376 0.0
H786 H 0.20185 0.70368 0.38273 0.0
C787 C 0.18179 0.6564 0.327 0.0
C788 C 0.19296 0.65756 0.33804 0.0
H789 H 0.23411 0.66905 0.38228 0.0
H790 H 0.22092 0.65741 0.36195 0.0
H791 H 0.17375 0.68299 0.3777 0.0
H792 H 0.19969 0.70791 0.3477 0.0
H793 H 0.1812 0.70991 0.34192 0.0
H794 H 0.1872 0.71638 0.35991 0.0
H795 H 0.17256 0.70262 0.37621 0.0
H796 H 0.1614 0.69052 0.36461 0.0
C797 C 0.20242 0.63502 0.3517 0.0
C798 C 0.219 0.64913 0.33348 0.0
C799 C 0.13724 0.68843 0.31473 0.0
C800 C 0.13188 0.70138 0.3211 0.0
C801 C 0.13996 0.70782 0.33299 0.0
C802 C 0.15296 0.70148 0.33855 0.0
C803 C 0.15806 0.68848 0.33223 0.0
C804 C 0.15028 0.68217 0.32049 0.0
C805 C 0.15739 0.66826 0.31531 0.0
C806 C 0.17066 0.66729 0.3259 0.0
C807 C 0.17097 0.67921 0.33577 0.0
C808 C 0.14643 0.65534 0.31734 0.0
C809 C 0.16201 0.67059 0.29924 0.0
C810 C 0.20618 0.69367 0.37818 0.0
C811 C 0.21908 0.6873 0.38425 0.0
C812 C 0.22411 0.67412 0.37805 0.0
C813 C 0.21648 0.66741 0.36612 0.0
C814 C 0.20361 0.6739 0.36023 0.0
C815 C 0.1987 0.68684 0.36624 0.0
C816 C 0.18488 0.69221 0.35852 0.0
C817 C 0.18238 0.68044 0.3468 0.0
C818 C 0.19334 0.66971 0.3479 0.0
C819 C 0.17245 0.69223 0.36977 0.0
C820 C 0.18826 0.70745 0.3517 0.0
H821 H 0.1675 0.64089 0.3009 0.0
H822 H 0.21085 0.61721 0.32515 0.0
H823 H 0.21972 0.65084 0.32142 0.0
H824 H 0.22251 0.65977 0.3384 0.0
H825 H 0.2271 0.64057 0.33674 0.0
H826 H 0.19176 0.62891 0.35194 0.0
H827 H 0.21139 0.62681 0.3522 0.0
H828 H 0.20293 0.6416 0.3619 0.0
H829 H 0.13127 0.68312 0.30564 0.0
H830 H 0.13628 0.71791 0.33795 0.0
H831 H 0.15851 0.70697 0.34761 0.0
H832 H 0.1408 0.65642 0.32795 0.0
H833 H 0.13783 0.65515 0.30837 0.0
H834 H 0.1518 0.64453 0.31784 0.0
H835 H 0.16578 0.68212 0.2975 0.0
H836 H 0.17143 0.66374 0.29631 0.0
H837 H 0.15265 0.66837 0.29136 0.0
H838 H 0.17592 0.61748 0.29177 0.0
C839 C 0.1769 0.63609 0.30642 0.0
C840 C 0.81699 0.63468 0.32584 0.0
C841 C 0.8196 0.62765 0.31242 0.0
C842 C 0.83208 0.63181 0.30455 0.0
C843 C 0.83869 0.65019 0.32296 0.0
C844 C 0.82659 0.64597 0.33082 0.0
C845 C 0.825 0.6552 0.34441 0.0
H846 H 0.8483 0.71293 0.3866 0.0
C847 C 0.84608 0.66264 0.33077 0.0
C848 C 0.83809 0.66565 0.34336 0.0
H849 H 0.8113 0.6837 0.39331 0.0
H850 H 0.81726 0.66981 0.37179 0.0
H851 H 0.84341 0.71603 0.3522 0.0
H852 H 0.87108 0.68719 0.37811 0.0
H853 H 0.88127 0.69297 0.36306 0.0
H854 H 0.87516 0.70642 0.37606 0.0
H855 H 0.85993 0.72235 0.36165 0.0
H856 H 0.86019 0.71483 0.34331 0.0
C857 C 0.81015 0.66338 0.34297 0.0
C858 C 0.82651 0.645 0.35799 0.0
C859 C 0.89105 0.68733 0.30908 0.0
C860 C 0.89952 0.69974 0.31335 0.0
C861 C 0.89639 0.70698 0.32659 0.0
C862 C 0.88485 0.70218 0.33526 0.0
C863 C 0.87619 0.69005 0.33066 0.0
C864 C 0.87941 0.68275 0.31784 0.0
C865 C 0.86873 0.67032 0.31453 0.0
C866 C 0.85864 0.67135 0.32749 0.0
C867 C 0.86307 0.68294 0.33689 0.0
C868 C 0.86051 0.67367 0.29971 0.0
C869 C 0.87745 0.65578 0.31471 0.0
C870 C 0.84157 0.70344 0.38353 0.0
C871 C 0.82923 0.6995 0.39167 0.0
C872 C 0.82071 0.68715 0.38714 0.0
C873 C 0.82423 0.67904 0.37465 0.0
C874 C 0.83641 0.68328 0.36648 0.0
C875 C 0.84492 0.69523 0.37104 0.0
C876 C 0.85741 0.69816 0.36097 0.0
C877 C 0.85496 0.68605 0.3496 0.0
C878 C 0.8426 0.6774 0.35286 0.0
C879 C 0.85529 0.71367 0.35419 0.0
C880 C 0.87206 0.69622 0.36994 0.0
H881 H 0.85087 0.64564 0.30319 0.0
H882 H 0.80744 0.63181 0.33207 0.0
H883 H 0.83477 0.63629 0.35619 0.0
H884 H 0.83056 0.65084 0.368 0.0
H885 H 0.81588 0.63946 0.36025 0.0
H886 H 0.80771 0.66663 0.33136 0.0
H887 H 0.80091 0.65629 0.34654 0.0
H888 H 0.81012 0.67379 0.34921 0.0
H889 H 0.8931 0.68163 0.29891 0.0
H890 H 0.90287 0.71645 0.33022 0.0
H891 H 0.883 0.70826 0.34512 0.0
H892 H 0.85903 0.68571 0.2982 0.0
H893 H 0.86672 0.66956 0.29026 0.0
H894 H 0.84923 0.66905 0.29906 0.0
H895 H 0.88612 0.65593 0.32364 0.0
H896 H 0.87054 0.64605 0.317 0.0
H897 H 0.88296 0.65409 0.30414 0.0
H898 H 0.83444 0.62641 0.29428 0.0
C899 C 0.84164 0.64296 0.30976 0.0
C900 C 0.82861 0.32578 0.38875 0.0
C901 C 0.81575 0.33092 0.39521 0.0
C902 C 0.80965 0.34426 0.3901 0.0
C903 C 0.82895 0.34691 0.37243 0.0
C904 C 0.83495 0.33386 0.37743 0.0
C905 C 0.84847 0.32975 0.36929 0.0
H906 H 0.89724 0.34669 0.31692 0.0
C907 C 0.83825 0.35261 0.3606 0.0
C908 C 0.84976 0.34259 0.35876 0.0
H909 H 0.89624 0.30746 0.34372 0.0
H910 H 0.87503 0.31666 0.3561 0.0
H911 H 0.89076 0.36921 0.34172 0.0
H912 H 0.86323 0.34681 0.30953 0.0
H913 H 0.8564 0.36472 0.31051 0.0
H914 H 0.87506 0.36195 0.30507 0.0
H915 H 0.88948 0.37499 0.32289 0.0
H916 H 0.87722 0.38193 0.33643 0.0
C917 C 0.86168 0.32919 0.38046 0.0
C918 C 0.84526 0.31507 0.36109 0.0
C919 C 0.82515 0.40039 0.33388 0.0
C920 C 0.83225 0.40838 0.32284 0.0
C921 C 0.84561 0.40315 0.31758 0.0
C922 C 0.85178 0.39018 0.32303 0.0
C923 C 0.84456 0.38222 0.3339 0.0
C924 C 0.83158 0.38741 0.33933 0.0
C925 C 0.82586 0.37758 0.35127 0.0
C926 C 0.83737 0.36551 0.35177 0.0
C927 C 0.84818 0.36831 0.34147 0.0
C928 C 0.8259 0.38654 0.36576 0.0
C929 C 0.81052 0.37162 0.34614 0.0
C930 C 0.89241 0.33993 0.32532 0.0
C931 C 0.89842 0.32624 0.32919 0.0
C932 C 0.89193 0.31809 0.34053 0.0
C933 C 0.87953 0.3234 0.34764 0.0
C934 C 0.87351 0.33701 0.34337 0.0
C935 C 0.88003 0.34498 0.33239 0.0
C936 C 0.87217 0.35903 0.32893 0.0
C937 C 0.85974 0.35822 0.33958 0.0
C938 C 0.86054 0.34537 0.3481 0.0
C939 C 0.8829 0.37203 0.33254 0.0
C940 C 0.86646 0.35826 0.31267 0.0
H941 H 0.81094 0.36226 0.37534 0.0
H942 H 0.83376 0.31571 0.39248 0.0
H943 H 0.8336 0.31448 0.35699 0.0
H944 H 0.85181 0.31381 0.35118 0.0
H945 H 0.84722 0.30551 0.36846 0.0
H946 H 0.86125 0.33847 0.38841 0.0
H947 H 0.86157 0.31878 0.38684 0.0
H948 H 0.8724 0.33035 0.37524 0.0
H949 H 0.81493 0.40422 0.33824 0.0
H950 H 0.85119 0.40896 0.30896 0.0
H951 H 0.86189 0.38681 0.31841 0.0
H952 H 0.83539 0.39438 0.36641 0.0
H953 H 0.81568 0.39303 0.36654 0.0
H954 H 0.82726 0.37959 0.37565 0.0
H955 H 0.81041 0.3687 0.33426 0.0
H956 H 0.80734 0.36143 0.35184 0.0
H957 H 0.8019 0.38 0.34769 0.0
H958 H 0.79968 0.34843 0.39467 0.0
C959 C 0.81617 0.35226 0.37878 0.0
C960 C 0.68747 0.21226 0.61687 0.0
C961 C 0.6978 0.20787 0.6066 0.0
C962 C 0.70619 0.19518 0.60944 0.0
C963 C 0.69402 0.19138 0.63241 0.0
C964 C 0.68565 0.20375 0.62962 0.0
C965 C 0.67463 0.20618 0.6414 0.0
H966 H 0.6452 0.18352 0.70543 0.0
C967 C 0.68956 0.18495 0.64651 0.0
C968 C 0.67813 0.19353 0.65187 0.0
H969 H 0.63111 0.21974 0.6778 0.0
H970 H 0.65073 0.21483 0.66124 0.0
H971 H 0.65081 0.16066 0.67875 0.0
H972 H 0.67875 0.19008 0.70434 0.0
H973 H 0.68972 0.17495 0.70025 0.0
H974 H 0.67363 0.1723 0.71112 0.0
H975 H 0.65514 0.15825 0.698 0.0
H976 H 0.66683 0.1511 0.68419 0.0
C977 C 0.65898 0.20471 0.63425 0.0
C978 C 0.67793 0.2213 0.64866 0.0
C979 C 0.71583 0.13968 0.66681 0.0
C980 C 0.71489 0.132 0.68015 0.0
C981 C 0.70478 0.13664 0.69054 0.0
C982 C 0.69559 0.14864 0.68766 0.0
C983 C 0.69658 0.15622 0.67427 0.0
C984 C 0.70672 0.15185 0.6642 0.0
C985 C 0.70678 0.16178 0.65097 0.0
C986 C 0.69487 0.17267 0.65468 0.0
C987 C 0.68881 0.16921 0.66823 0.0
C988 C 0.70241 0.15243 0.63722 0.0
C989 C 0.72217 0.16924 0.65045 0.0
C990 C 0.64619 0.19031 0.69574 0.0
C991 C 0.63645 0.20196 0.69292 0.0
C992 C 0.63847 0.21074 0.68033 0.0
C993 C 0.64981 0.20781 0.67064 0.0
C994 C 0.65927 0.19593 0.67351 0.0
C995 C 0.6574 0.18749 0.68596 0.0
C996 C 0.66846 0.17538 0.68739 0.0
C997 C 0.67706 0.17765 0.67356 0.0
C998 C 0.6717 0.18973 0.66544 0.0
C999 C 0.65998 0.16051 0.68717 0.0
C1000 C 0.67813 0.17817 0.70153 0.0
H1001 H 0.71116 0.17747 0.62372 0.0
H1002 H 0.68075 0.22186 0.61486 0.0
H1003 H 0.68999 0.22294 0.65053 0.0
H1004 H 0.67315 0.22238 0.65959 0.0
H1005 H 0.67384 0.23039 0.64153 0.0
H1006 H 0.65868 0.19626 0.62538 0.0
H1007 H 0.65536 0.21527 0.62926 0.0
H1008 H 0.6507 0.20093 0.64204 0.0
H1009 H 0.72366 0.13646 0.65872 0.0
H1010 H 0.70385 0.13083 0.70087 0.0
H1011 H 0.68806 0.15153 0.69598 0.0
H1012 H 0.6941 0.14386 0.63993 0.0
H1013 H 0.7121 0.14673 0.63288 0.0
H1014 H 0.6971 0.15894 0.62832 0.0
H1015 H 0.7268 0.17139 0.66174 0.0
H1016 H 0.72191 0.18016 0.64515 0.0
H1017 H 0.73007 0.16216 0.64474 0.0
H1018 H 0.71426 0.19165 0.60172 0.0
C1019 C 0.7044 0.18698 0.62226 0.0
C1020 C 0.33548 0.13548 0.70299 0.0
C1021 C 0.32226 0.12944 0.69687 0.0
C1022 C 0.31513 0.13682 0.68508 0.0
C1023 C 0.33427 0.15552 0.68531 0.0
C1024 C 0.34131 0.14849 0.69699 0.0
C1025 C 0.35539 0.15642 0.70176 0.0
H1026 H 0.40308 0.21372 0.69153 0.0
C1027 C 0.34309 0.16859 0.68143 0.0
C1028 C 0.35555 0.16927 0.691 0.0
H1029 H 0.40683 0.17912 0.72395 0.0
H1030 H 0.38389 0.16833 0.7148 0.0
H1031 H 0.36806 0.21904 0.69506 0.0
H1032 H 0.39301 0.19336 0.66519 0.0
H1033 H 0.37831 0.20085 0.65481 0.0
H1034 H 0.39173 0.21298 0.66368 0.0
H1035 H 0.37892 0.22715 0.68103 0.0
H1036 H 0.3601 0.22144 0.67738 0.0
C1037 C 0.35385 0.16166 0.71781 0.0
C1038 C 0.3684 0.1459 0.69957 0.0
C1039 C 0.32496 0.20122 0.6394 0.0
C1040 C 0.33057 0.21415 0.63311 0.0
C1041 C 0.34415 0.2199 0.63862 0.0
C1042 C 0.35185 0.21309 0.6503 0.0
C1043 C 0.34598 0.20032 0.65661 0.0
C1044 C 0.33281 0.19454 0.65107 0.0
C1045 C 0.3283 0.18086 0.65906 0.0
C1046 C 0.34089 0.17942 0.67037 0.0
C1047 C 0.35119 0.19085 0.66891 0.0
C1048 C 0.31346 0.18388 0.66638 0.0
C1049 C 0.32786 0.16795 0.64788 0.0
C1050 C 0.3989 0.20393 0.6968 0.0
C1051 C 0.40686 0.19732 0.7085 0.0
C1052 C 0.40105 0.18439 0.71482 0.0
C1053 C 0.38767 0.17815 0.70953 0.0
C1054 C 0.37994 0.18484 0.69773 0.0
C1055 C 0.38561 0.19753 0.6916 0.0
C1056 C 0.3761 0.20307 0.67901 0.0
C1057 C 0.36377 0.19168 0.67858 0.0
C1058 C 0.36599 0.18098 0.68957 0.0
C1059 C 0.37052 0.21853 0.68318 0.0
C1060 C 0.38519 0.20269 0.6649 0.0
H1061 H 0.31497 0.1547 0.67033 0.0
H1062 H 0.34126 0.13007 0.71204 0.0
H1063 H 0.36674 0.13951 0.6892 0.0
H1064 H 0.37899 0.15175 0.69847 0.0
H1065 H 0.36944 0.13793 0.70878 0.0
H1066 H 0.34261 0.16594 0.71947 0.0
H1067 H 0.35573 0.15246 0.72566 0.0
H1068 H 0.36141 0.17082 0.72082 0.0
H1069 H 0.31452 0.19654 0.63555 0.0
H1070 H 0.3489 0.22968 0.63383 0.0
H1071 H 0.36207 0.21808 0.65398 0.0
H1072 H 0.31283 0.19555 0.67 0.0
H1073 H 0.304 0.18173 0.65861 0.0
H1074 H 0.31197 0.17742 0.67651 0.0
H1075 H 0.33629 0.1695 0.6394 0.0
H1076 H 0.33056 0.15725 0.65299 0.0
H1077 H 0.31696 0.16708 0.64205 0.0
H1078 H 0.30481 0.13266 0.68035 0.0
C1079 C 0.32102 0.14973 0.6793 0.0
C1080 C 0.40007 0.84059 0.70948 0.0
C1081 C 0.40849 0.82909 0.70395 0.0
C1082 C 0.40372 0.82212 0.69075 0.0
C1083 C 0.38249 0.83808 0.6889 0.0
C1084 C 0.3872 0.84484 0.70185 0.0
C1085 C 0.37697 0.8567 0.70646 0.0
H1086 H 0.31529 0.89632 0.69477 0.0
C1087 C 0.36859 0.84514 0.68386 0.0
C1088 C 0.36532 0.85602 0.69413 0.0
H1089 H 0.34748 0.899 0.73083 0.0
H1090 H 0.36133 0.87971 0.7202 0.0
H1091 H 0.31444 0.86027 0.69308 0.0
H1092 H 0.33954 0.89195 0.66858 0.0
H1093 H 0.33191 0.87858 0.65646 0.0
H1094 H 0.31988 0.8903 0.66643 0.0
H1095 H 0.30589 0.87237 0.67982 0.0
H1096 H 0.31392 0.85525 0.67438 0.0
C1097 C 0.37068 0.85224 0.7215 0.0
C1098 C 0.38562 0.87151 0.70655 0.0
C1099 C 0.34281 0.82798 0.63649 0.0
C1100 C 0.3299 0.83224 0.62875 0.0
C1101 C 0.32138 0.84358 0.63466 0.0
C1102 C 0.32575 0.85061 0.64791 0.0
C1103 C 0.33876 0.84625 0.65543 0.0
C1104 C 0.34701 0.83507 0.64966 0.0
C1105 C 0.36047 0.83173 0.65903 0.0
C1106 C 0.35905 0.84276 0.67139 0.0
C1107 C 0.34631 0.8513 0.6693 0.0
C1108 C 0.35916 0.81567 0.66457 0.0
C1109 C 0.3742 0.83489 0.64985 0.0
C1110 C 0.32537 0.89274 0.70028 0.0
C1111 C 0.3302 0.89912 0.71377 0.0
C1112 C 0.34334 0.89411 0.72062 0.0
C1113 C 0.35145 0.88293 0.71436 0.0
C1114 C 0.34648 0.87654 0.70103 0.0
C1115 C 0.33365 0.88139 0.69416 0.0
C1116 C 0.33014 0.87298 0.68011 0.0
C1117 C 0.343 0.86237 0.67977 0.0
C1118 C 0.35249 0.86463 0.69208 0.0
C1119 C 0.31528 0.86482 0.68178 0.0
C1120 C 0.33026 0.88396 0.66714 0.0
H1121 H 0.38777 0.82085 0.6732 0.0
H1122 H 0.40326 0.84601 0.71972 0.0
H1123 H 0.3937 0.8718 0.69763 0.0
H1124 H 0.37853 0.88111 0.70437 0.0
H1125 H 0.39184 0.87319 0.71715 0.0
H1126 H 0.36991 0.84007 0.72261 0.0
H1127 H 0.37777 0.85642 0.7308 0.0
H1128 H 0.35929 0.85604 0.72286 0.0
H1129 H 0.34951 0.81915 0.63248 0.0
H1130 H 0.31143 0.84718 0.6289 0.0
H1131 H 0.31885 0.8592 0.65178 0.0
H1132 H 0.34751 0.81273 0.66668 0.0
H1133 H 0.36316 0.80778 0.65632 0.0
H1134 H 0.36511 0.81383 0.67517 0.0
H1135 H 0.37243 0.84465 0.64266 0.0
H1136 H 0.38411 0.83764 0.65668 0.0
H1137 H 0.37663 0.82541 0.64265 0.0
H1138 H 0.41006 0.81331 0.68617 0.0
C1139 C 0.3908 0.82657 0.68319 0.0
C1140 C 0.69399 0.90294 0.68827 0.0
C1141 C 0.68827 0.90811 0.70145 0.0
C1142 C 0.67771 0.89951 0.70861 0.0
C1143 C 0.67854 0.88102 0.68941 0.0
C1144 C 0.68912 0.88933 0.68257 0.0
C1145 C 0.69464 0.88184 0.66911 0.0
H1146 H 0.69356 0.8228 0.62365 0.0
C1147 C 0.67594 0.86743 0.68067 0.0
C1148 C 0.68549 0.86775 0.66887 0.0
H1149 H 0.72046 0.86226 0.62147 0.0
H1150 H 0.70898 0.87194 0.64275 0.0
H1151 H 0.69526 0.81882 0.65886 0.0
H1152 H 0.66346 0.84045 0.6303 0.0
H1153 H 0.65382 0.8309 0.64376 0.0
H1154 H 0.66481 0.82079 0.63116 0.0
H1155 H 0.68303 0.80887 0.64644 0.0
H1156 H 0.67751 0.81409 0.66454 0.0
C1157 C 0.71127 0.87879 0.67174 0.0
C1158 C 0.69098 0.89169 0.65562 0.0
C1159 C 0.63537 0.83183 0.6946 0.0
C1160 C 0.62992 0.81855 0.68851 0.0
C1161 C 0.63706 0.81244 0.67645 0.0
C1162 C 0.64911 0.8197 0.67029 0.0
C1163 C 0.65414 0.83321 0.67628 0.0
C1164 C 0.64737 0.83893 0.68836 0.0
C1165 C 0.65424 0.85323 0.69349 0.0
C1166 C 0.66597 0.85544 0.68221 0.0
C1167 C 0.6659 0.84369 0.67214 0.0
C1168 C 0.66101 0.85096 0.70919 0.0
C1169 C 0.64232 0.86526 0.69238 0.0
C1170 C 0.69692 0.83358 0.62766 0.0
C1171 C 0.70814 0.84164 0.62086 0.0
C1172 C 0.71214 0.8556 0.62661 0.0
C1173 C 0.70537 0.86128 0.63896 0.0
C1174 C 0.69436 0.85302 0.64572 0.0
C1175 C 0.69018 0.83947 0.63998 0.0
C1176 C 0.67798 0.83245 0.64843 0.0
C1177 C 0.67581 0.84386 0.66037 0.0
C1178 C 0.68547 0.85587 0.65871 0.0
C1179 C 0.6836 0.81772 0.65488 0.0
C1180 C 0.66427 0.83092 0.63794 0.0
H1181 H 0.66463 0.88007 0.70854 0.0
H1182 H 0.70231 0.9092 0.68267 0.0
H1183 H 0.68014 0.89708 0.65675 0.0
H1184 H 0.68989 0.88544 0.64522 0.0
H1185 H 0.6994 0.90051 0.65446 0.0
H1186 H 0.71384 0.87635 0.68353 0.0
H1187 H 0.71808 0.88844 0.66866 0.0
H1188 H 0.71501 0.869 0.66579 0.0
H1189 H 0.63037 0.83666 0.70409 0.0
H1190 H 0.63309 0.80222 0.67155 0.0
H1191 H 0.65397 0.81459 0.66102 0.0
H1192 H 0.66431 0.83934 0.71101 0.0
H1193 H 0.65305 0.85378 0.71771 0.0
H1194 H 0.67128 0.85741 0.71117 0.0
H1195 H 0.63565 0.86409 0.68196 0.0
H1196 H 0.64693 0.87652 0.69218 0.0
H1197 H 0.6347 0.86441 0.70164 0.0
H1198 H 0.67316 0.90331 0.71877 0.0
C1199 C 0.67277 0.88604 0.70263 0.0
C1200 C 0.69563 0.81403 0.39375 0.0
C1201 C 0.68954 0.80127 0.39994 0.0
C1202 C 0.67581 0.79602 0.39435 0.0
C1203 C 0.6749 0.81575 0.37628 0.0
C1204 C 0.68817 0.82106 0.38207 0.0
C1205 C 0.69324 0.83477 0.37445 0.0
H1206 H 0.68272 0.88607 0.32145 0.0
C1207 C 0.67027 0.82555 0.36395 0.0
C1208 C 0.68098 0.83674 0.36293 0.0
H1209 H 0.7183 0.88342 0.35409 0.0
H1210 H 0.70751 0.86145 0.36405 0.0
H1211 H 0.65697 0.87788 0.34309 0.0
H1212 H 0.68179 0.85143 0.31375 0.0
H1213 H 0.66345 0.84522 0.31228 0.0
H1214 H 0.66786 0.8639 0.30726 0.0
H1215 H 0.65421 0.8786 0.32348 0.0
H1216 H 0.64458 0.86539 0.3345 0.0
C1217 C 0.69381 0.8475 0.38583 0.0
C1218 C 0.70815 0.8315 0.36741 0.0
C1219 C 0.62348 0.81442 0.3333 0.0
C1220 C 0.61662 0.82142 0.32109 0.0
C1221 C 0.62326 0.8342 0.31541 0.0
C1222 C 0.63639 0.83992 0.32174 0.0
C1223 C 0.64306 0.83282 0.33392 0.0
C1224 C 0.63661 0.82028 0.3395 0.0
C1225 C 0.64529 0.81423 0.35252 0.0
C1226 C 0.65801 0.82519 0.35379 0.0
C1227 C 0.65661 0.83606 0.34285 0.0
C1228 C 0.63551 0.81473 0.36611 0.0
C1229 C 0.65054 0.79865 0.34849 0.0
C1230 C 0.68825 0.88069 0.33067 0.0
C1231 C 0.70139 0.88657 0.337 0.0
C1232 C 0.70808 0.87929 0.34912 0.0
C1233 C 0.70183 0.86645 0.35486 0.0
C1234 C 0.68869 0.86074 0.34845 0.0
C1235 C 0.68212 0.86785 0.33656 0.0
C1236 C 0.66814 0.86024 0.33126 0.0
C1237 C 0.66739 0.84744 0.34196 0.0
C1238 C 0.67948 0.84778 0.35196 0.0
C1239 C 0.65524 0.87103 0.33303 0.0
C1240 C 0.67026 0.85496 0.31527 0.0
H1241 H 0.65817 0.79853 0.37864 0.0
H1242 H 0.70601 0.81853 0.39797 0.0
H1243 H 0.70821 0.82013 0.36288 0.0
H1244 H 0.71043 0.83868 0.35796 0.0
H1245 H 0.71741 0.83248 0.37564 0.0
H1246 H 0.68525 0.846 0.39417 0.0
H1247 H 0.70467 0.84806 0.39179 0.0
H1248 H 0.69141 0.85832 0.38083 0.0
H1249 H 0.61882 0.80449 0.33787 0.0
H1250 H 0.61817 0.83997 0.30618 0.0
H1251 H 0.6408 0.8497 0.31691 0.0
H1252 H 0.62848 0.82467 0.36584 0.0
H1253 H 0.62812 0.80494 0.36646 0.0
H1254 H 0.64196 0.81554 0.37658 0.0
H1255 H 0.65422 0.79835 0.33696 0.0
H1256 H 0.66011 0.79505 0.35528 0.0
H1257 H 0.64151 0.79042 0.34948 0.0
H1258 H 0.67089 0.78621 0.39893 0.0
C1259 C 0.66849 0.80315 0.38253 0.0
C1260 C 0.69038 0.12218 0.31316 0.0
C1261 C 0.68338 0.11565 0.30074 0.0
C1262 C 0.67126 0.12282 0.29396 0.0
C1263 C 0.67287 0.14218 0.31247 0.0
C1264 C 0.68502 0.13533 0.31877 0.0
C1265 C 0.69129 0.14346 0.33196 0.0
H1266 H 0.68768 0.19974 0.38022 0.0
C1267 C 0.66993 0.15546 0.3214 0.0
C1268 C 0.68079 0.15626 0.33275 0.0
H1269 H 0.72007 0.16529 0.37895 0.0
H1270 H 0.70786 0.15498 0.35739 0.0
H1271 H 0.65984 0.1791 0.37283 0.0
H1272 H 0.68658 0.20603 0.34521 0.0
H1273 H 0.66819 0.20821 0.33913 0.0
H1274 H 0.67372 0.21368 0.35758 0.0
H1275 H 0.65878 0.19879 0.37272 0.0
H1276 H 0.64792 0.18762 0.35996 0.0
C1277 C 0.69028 0.13321 0.3455 0.0
C1278 C 0.70713 0.14862 0.32853 0.0
C1279 C 0.6249 0.1869 0.30986 0.0
C1280 C 0.61908 0.19943 0.31662 0.0
C1281 C 0.62688 0.20571 0.32878 0.0
C1282 C 0.64002 0.19951 0.33425 0.0
C1283 C 0.64551 0.18685 0.32756 0.0
C1284 C 0.63805 0.18082 0.31549 0.0
C1285 C 0.64556 0.16735 0.3098 0.0
C1286 C 0.65865 0.1662 0.32056 0.0
C1287 C 0.65853 0.17766 0.33095 0.0
C1288 C 0.63486 0.1541 0.31103 0.0
C1289 C 0.65042 0.17055 0.29396 0.0
C1290 C 0.69222 0.19005 0.37522 0.0
C1291 C 0.70485 0.1833 0.3814 0.0
C1292 C 0.71024 0.17059 0.3746 0.0
C1293 C 0.70317 0.16466 0.36199 0.0
C1294 C 0.6905 0.17145 0.35603 0.0
C1295 C 0.68526 0.18396 0.3626 0.0
C1296 C 0.67162 0.18962 0.35474 0.0
C1297 C 0.66962 0.1785 0.34233 0.0
C1298 C 0.68069 0.16787 0.34319 0.0
C1299 C 0.65882 0.18889 0.36556 0.0
C1300 C 0.67505 0.20525 0.3489 0.0
H1301 H 0.65656 0.14086 0.29427 0.0
H1302 H 0.69991 0.11713 0.31846 0.0
H1303 H 0.70811 0.15109 0.31663 0.0
H1304 H 0.71035 0.15899 0.33417 0.0
H1305 H 0.7153 0.14003 0.33146 0.0
H1306 H 0.67998 0.12648 0.34485 0.0
H1307 H 0.69969 0.12551 0.34616 0.0
H1308 H 0.68977 0.13924 0.356 0.0
H1309 H 0.61937 0.18191 0.30035 0.0
H1310 H 0.62263 0.21523 0.33432 0.0
H1311 H 0.64531 0.20475 0.34361 0.0
H1312 H 0.62904 0.1545 0.32159 0.0
H1313 H 0.62639 0.15415 0.30194 0.0
H1314 H 0.64046 0.14341 0.31106 0.0
H1315 H 0.65403 0.18221 0.29284 0.0
H1316 H 0.66001 0.16401 0.29088 0.0
H1317 H 0.64123 0.16854 0.28582 0.0
H1318 H 0.66569 0.11803 0.28437 0.0
C1319 C 0.66594 0.13603 0.29978 0.0
C1320 C 0.30499 0.13747 0.35286 0.0
C1321 C 0.30767 0.12846 0.34064 0.0
C1322 C 0.32029 0.1312 0.33245 0.0
C1323 C 0.32694 0.15196 0.34806 0.0
C1324 C 0.31473 0.14918 0.35631 0.0
C1325 C 0.31339 0.16023 0.36856 0.0
H1326 H 0.33936 0.22203 0.40308 0.0
C1327 C 0.33459 0.16513 0.35414 0.0
C1328 C 0.32674 0.17009 0.36618 0.0
H1329 H 0.30145 0.19549 0.41385 0.0
H1330 H 0.30634 0.17891 0.39394 0.0
H1331 H 0.33396 0.22099 0.36832 0.0
H1332 H 0.36091 0.19442 0.39746 0.0
H1333 H 0.37108 0.19825 0.38181 0.0
H1334 H 0.36547 0.21319 0.39333 0.0
H1335 H 0.35068 0.22785 0.377 0.0
H1336 H 0.3507 0.21806 0.35976 0.0
C1337 C 0.29876 0.16856 0.36601 0.0
C1338 C 0.31465 0.15192 0.38338 0.0
C1339 C 0.38021 0.18436 0.32951 0.0
C1340 C 0.38957 0.19657 0.33212 0.0
C1341 C 0.38677 0.20596 0.34405 0.0
C1342 C 0.37483 0.20329 0.35311 0.0
C1343 C 0.36553 0.1911 0.35025 0.0
C1344 C 0.36834 0.18188 0.33862 0.0
C1345 C 0.35728 0.16955 0.33709 0.0
C1346 C 0.34734 0.17285 0.34972 0.0
C1347 C 0.3522 0.18548 0.3574 0.0
C1348 C 0.34913 0.1711 0.32191 0.0
C1349 C 0.36552 0.15483 0.33938 0.0
C1350 C 0.33218 0.21257 0.40127 0.0
C1351 C 0.31995 0.21017 0.41008 0.0
C1352 C 0.31081 0.19779 0.40713 0.0
C1353 C 0.31371 0.18809 0.39559 0.0
C1354 C 0.32589 0.19074 0.38682 0.0
C1355 C 0.33492 0.20278 0.38979 0.0
C1356 C 0.34736 0.20388 0.37934 0.0
C1357 C 0.34431 0.19055 0.36961 0.0
C1358 C 0.33168 0.18288 0.37401 0.0
C1359 C 0.34576 0.21847 0.37066 0.0
C1360 C 0.36204 0.20248 0.38836 0.0
H1361 H 0.33924 0.1443 0.32934 0.0
H1362 H 0.29537 0.13567 0.35934 0.0
H1363 H 0.32279 0.1429 0.38284 0.0
H1364 H 0.3187 0.15897 0.39257 0.0
H1365 H 0.30391 0.14692 0.38623 0.0
H1366 H 0.29662 0.17066 0.35409 0.0
H1367 H 0.28931 0.16208 0.37009 0.0
H1368 H 0.29886 0.17954 0.3712 0.0
H1369 H 0.38212 0.17679 0.32059 0.0
H1370 H 0.39366 0.21555 0.34625 0.0
H1371 H 0.37326 0.21089 0.36194 0.0
H1372 H 0.34811 0.18286 0.31869 0.0
H1373 H 0.35513 0.16543 0.31315 0.0
H1374 H 0.33767 0.16694 0.32188 0.0
H1375 H 0.37474 0.1561 0.34767 0.0
H1376 H 0.3585 0.14602 0.34381 0.0
H1377 H 0.37027 0.15099 0.32898 0.0
H1378 H 0.32277 0.12428 0.32318 0.0
C1379 C 0.32991 0.14283 0.33609 0.0
C1380 C 0.32149 0.8327 0.38575 0.0
C1381 C 0.30974 0.83965 0.39248 0.0
C1382 C 0.30263 0.85137 0.38516 0.0
C1383 C 0.31969 0.84967 0.36521 0.0
C1384 C 0.32619 0.8378 0.37218 0.0
C1385 C 0.3386 0.8316 0.36372 0.0
H1386 H 0.38456 0.83606 0.30711 0.0
C1387 C 0.32776 0.85255 0.3516 0.0
C1388 C 0.33872 0.8419 0.35061 0.0
H1389 H 0.38297 0.80344 0.34167 0.0
H1390 H 0.36195 0.81509 0.35147 0.0
H1391 H 0.37695 0.86458 0.32776 0.0
H1392 H 0.34866 0.83642 0.30064 0.0
H1393 H 0.34315 0.85478 0.29822 0.0
H1394 H 0.36123 0.84936 0.29281 0.0
H1395 H 0.37797 0.86398 0.30809 0.0
H1396 H 0.36485 0.8754 0.3169 0.0
C1397 C 0.35288 0.83305 0.37345 0.0
C1398 C 0.33439 0.81561 0.35914 0.0
C1399 C 0.31563 0.89777 0.3212 0.0
C1400 C 0.3214 0.90394 0.30844 0.0
C1401 C 0.33251 0.89636 0.3012 0.0
C1402 C 0.33815 0.8831 0.30695 0.0
C1403 C 0.33253 0.87732 0.32001 0.0
C1404 C 0.32127 0.88456 0.32673 0.0
C1405 C 0.31631 0.87682 0.3403 0.0
C1406 C 0.32661 0.86383 0.34085 0.0
C1407 C 0.33621 0.86416 0.32901 0.0
C1408 C 0.31903 0.88731 0.35356 0.0
C1409 C 0.30004 0.87193 0.33772 0.0
C1410 C 0.3796 0.83141 0.31674 0.0
C1411 C 0.38569 0.81893 0.32378 0.0
C1412 C 0.37883 0.81323 0.33625 0.0
C1413 C 0.36649 0.81997 0.34189 0.0
C1414 C 0.3608 0.83263 0.33507 0.0
C1415 C 0.36717 0.83807 0.32259 0.0
C1416 C 0.35927 0.85153 0.3168 0.0
C1417 C 0.34727 0.85325 0.32797 0.0
C1418 C 0.34838 0.84216 0.33867 0.0
C1419 C 0.37028 0.86462 0.31729 0.0
C1420 C 0.35277 0.84798 0.30125 0.0
H1421 H 0.3019 0.8656 0.36665 0.0
H1422 H 0.32698 0.82347 0.39099 0.0
H1423 H 0.32224 0.81405 0.35814 0.0
H1424 H 0.33834 0.81268 0.34816 0.0
H1425 H 0.33865 0.80754 0.36735 0.0
H1426 H 0.35311 0.84364 0.37961 0.0
H1427 H 0.35364 0.82402 0.38165 0.0
H1428 H 0.36299 0.83324 0.36709 0.0
H1429 H 0.30687 0.90317 0.32684 0.0
H1430 H 0.33709 0.90089 0.29132 0.0
H1431 H 0.34676 0.87794 0.3011 0.0
H1432 H 0.32975 0.89321 0.35271 0.0
H1433 H 0.31027 0.89571 0.354 0.0
H1434 H 0.31973 0.88155 0.36422 0.0
H1435 H 0.29758 0.86942 0.32592 0.0
H1436 H 0.29737 0.86163 0.34355 0.0
H1437 H 0.29239 0.88067 0.34106 0.0
H1438 H 0.29352 0.85685 0.39015 0.0
C1439 C 0.30756 0.85645 0.37157 0.0
C1440 C 0.69124 0.63797 0.17808 0.0
C1441 C 0.70287 0.63207 0.17018 0.0
C1442 C 0.70745 0.6395 0.15749 0.0
C1443 C 0.68926 0.6584 0.16098 0.0
C1444 C 0.68463 0.65104 0.17329 0.0
C1445 C 0.67211 0.65869 0.18041 0.0
H1446 H 0.62561 0.71621 0.18252 0.0
C1447 C 0.68034 0.67184 0.15922 0.0
C1448 C 0.67028 0.67208 0.17057 0.0
H1449 H 0.62644 0.67711 0.2097 0.0
H1450 H 0.64722 0.66824 0.19695 0.0
H1451 H 0.63079 0.69835 0.15156 0.0
H1452 H 0.66065 0.72128 0.18177 0.0
H1453 H 0.66611 0.72503 0.1638 0.0
H1454 H 0.64828 0.73096 0.1695 0.0
H1455 H 0.63017 0.71787 0.1545 0.0
H1456 H 0.64243 0.71002 0.14161 0.0
C1457 C 0.65841 0.64835 0.17947 0.0
C1458 C 0.67719 0.66301 0.19626 0.0
C1459 C 0.68972 0.70652 0.11681 0.0
C1460 C 0.68421 0.72037 0.11287 0.0
C1461 C 0.67385 0.72708 0.12182 0.0
C1462 C 0.66874 0.71984 0.13434 0.0
C1463 C 0.67419 0.70584 0.13803 0.0
C1464 C 0.68474 0.69958 0.12946 0.0
C1465 C 0.69009 0.68516 0.13553 0.0
C1466 C 0.68069 0.68353 0.1489 0.0
C1467 C 0.67123 0.69556 0.15025 0.0
C1468 C 0.68654 0.67305 0.12392 0.0
C1469 C 0.70668 0.68691 0.13983 0.0
C1470 C 0.63017 0.70568 0.18568 0.0
C1471 C 0.6243 0.69748 0.19732 0.0
C1472 C 0.63082 0.6839 0.20107 0.0
C1473 C 0.64285 0.67863 0.19352 0.0
C1474 C 0.64847 0.68688 0.1819 0.0
C1475 C 0.64213 0.70014 0.17809 0.0
C1476 C 0.64937 0.70713 0.16511 0.0
C1477 C 0.66094 0.69576 0.1617 0.0
C1478 C 0.66041 0.68401 0.17169 0.0
C1479 C 0.63764 0.70855 0.15248 0.0
C1480 C 0.65642 0.72194 0.17017 0.0
H1481 H 0.70474 0.65767 0.14313 0.0
H1482 H 0.68749 0.63268 0.18795 0.0
H1483 H 0.6887 0.66733 0.19646 0.0
H1484 H 0.6706 0.67189 0.20092 0.0
H1485 H 0.67688 0.65336 0.20372 0.0
H1486 H 0.65889 0.64062 0.17002 0.0
H1487 H 0.65753 0.64163 0.1896 0.0
H1488 H 0.64803 0.65439 0.17748 0.0
H1489 H 0.69792 0.70128 0.11025 0.0
H1490 H 0.66955 0.73781 0.11897 0.0
H1491 H 0.66073 0.72541 0.14065 0.0
H1492 H 0.67556 0.67486 0.1185 0.0
H1493 H 0.69482 0.67307 0.11522 0.0
H1494 H 0.68589 0.66192 0.12872 0.0
H1495 H 0.70944 0.69842 0.14314 0.0
H1496 H 0.71002 0.68023 0.14949 0.0
H1497 H 0.71367 0.68407 0.13048 0.0
H1498 H 0.71618 0.63512 0.15102 0.0
C1499 C 0.70073 0.65259 0.15287 0.0
C1500 C 0.33456 0.63845 0.20566 0.0
C1501 C 0.322 0.62985 0.20187 0.0
C1502 C 0.31348 0.63376 0.18922 0.0
C1503 C 0.33025 0.65394 0.18418 0.0
C1504 C 0.33843 0.65038 0.19674 0.0
C1505 C 0.35138 0.66065 0.19928 0.0
H1506 H 0.39376 0.71695 0.17515 0.0
C1507 C 0.33747 0.66665 0.17711 0.0
C1508 C 0.34987 0.67065 0.18595 0.0
H1509 H 0.39855 0.69323 0.21613 0.0
H1510 H 0.37694 0.67853 0.20973 0.0
H1511 H 0.35906 0.7209 0.17698 0.0
H1512 H 0.38531 0.68935 0.15477 0.0
H1513 H 0.37037 0.69335 0.14279 0.0
H1514 H 0.3831 0.70785 0.14829 0.0
H1515 H 0.36886 0.72533 0.16074 0.0
H1516 H 0.35041 0.71781 0.15971 0.0
C1517 C 0.34924 0.66911 0.21384 0.0
C1518 C 0.36561 0.65148 0.19908 0.0
C1519 C 0.31712 0.68661 0.12812 0.0
C1520 C 0.32238 0.69742 0.11849 0.0
C1521 C 0.33538 0.70524 0.12244 0.0
C1522 C 0.3431 0.70236 0.13566 0.0
C1523 C 0.33788 0.69143 0.14511 0.0
C1524 C 0.32513 0.6837 0.14128 0.0
C1525 C 0.32169 0.67206 0.1525 0.0
C1526 C 0.33431 0.67429 0.16373 0.0
C1527 C 0.3437 0.68571 0.15934 0.0
C1528 C 0.30663 0.67563 0.15902 0.0
C1529 C 0.3223 0.65686 0.14485 0.0
C1530 C 0.3902 0.70852 0.18268 0.0
C1531 C 0.3979 0.70618 0.19612 0.0
C1532 C 0.39274 0.69528 0.20575 0.0
C1533 C 0.38022 0.68674 0.20199 0.0
C1534 C 0.37263 0.68918 0.1885 0.0
C1535 C 0.37758 0.70004 0.1792 0.0
C1536 C 0.3678 0.70155 0.16563 0.0
C1537 C 0.35621 0.68978 0.16828 0.0
C1538 C 0.35918 0.68243 0.1816 0.0
C1539 C 0.36121 0.71721 0.16559 0.0
C1540 C 0.37704 0.69796 0.15209 0.0
H1541 H 0.31059 0.648 0.17093 0.0
H1542 H 0.34144 0.63583 0.21522 0.0
H1543 H 0.36499 0.64334 0.18993 0.0
H1544 H 0.37555 0.65819 0.19721 0.0
H1545 H 0.36728 0.64531 0.20953 0.0
H1546 H 0.33736 0.67048 0.21601 0.0
H1547 H 0.3543 0.66317 0.22337 0.0
H1548 H 0.35373 0.68045 0.21358 0.0
H1549 H 0.30724 0.68033 0.12529 0.0
H1550 H 0.33957 0.71371 0.11527 0.0
H1551 H 0.35291 0.70872 0.13796 0.0
H1552 H 0.30539 0.68771 0.16043 0.0
H1553 H 0.29741 0.67168 0.15167 0.0
H1554 H 0.30532 0.67096 0.1701 0.0
H1555 H 0.33115 0.65668 0.1367 0.0
H1556 H 0.32503 0.64783 0.15254 0.0
H1557 H 0.31173 0.65421 0.1389 0.0
H1558 H 0.30356 0.62765 0.18616 0.0
C1559 C 0.31753 0.64568 0.18039 0.0
C1560 C 0.38691 0.33475 0.21251 0.0
C1561 C 0.39394 0.32148 0.20928 0.0
C1562 C 0.38921 0.31346 0.19669 0.0
C1563 C 0.37084 0.33185 0.19073 0.0
C1564 C 0.37532 0.33961 0.2032 0.0
C1565 C 0.36614 0.35307 0.20539 0.0
H1566 H 0.3103 0.39722 0.18222 0.0
C1567 C 0.35854 0.33988 0.18341 0.0
C1568 C 0.35562 0.35225 0.19205 0.0
H1569 H 0.33854 0.40156 0.22121 0.0
H1570 H 0.35141 0.37962 0.21475 0.0
H1571 H 0.30609 0.36073 0.18376 0.0
H1572 H 0.33563 0.38953 0.16111 0.0
H1573 H 0.33181 0.37455 0.14939 0.0
H1574 H 0.31703 0.38643 0.15453 0.0
H1575 H 0.30021 0.37299 0.16929 0.0
H1576 H 0.30696 0.35492 0.16531 0.0
C1577 C 0.35801 0.35124 0.22 0.0
C1578 C 0.37642 0.36675 0.20485 0.0
C1579 C 0.33712 0.32189 0.13408 0.0
C1580 C 0.32647 0.32763 0.12414 0.0
C1581 C 0.31897 0.3405 0.12803 0.0
C1582 C 0.32209 0.34759 0.1415 0.0
C1583 C 0.33294 0.34188 0.15121 0.0
C1584 C 0.34026 0.32924 0.14742 0.0
C1585 C 0.3518 0.32505 0.15887 0.0
C1586 C 0.3503 0.33731 0.17007 0.0
C1587 C 0.33915 0.34709 0.16558 0.0
C1588 C 0.34753 0.30985 0.16523 0.0
C1589 C 0.36697 0.32551 0.1516 0.0
C1590 C 0.31915 0.39331 0.18942 0.0
C1591 C 0.32341 0.40116 0.20224 0.0
C1592 C 0.33514 0.39582 0.2112 0.0
C1593 C 0.34258 0.38302 0.20746 0.0
C1594 C 0.33836 0.37539 0.19455 0.0
C1595 C 0.32683 0.38054 0.18575 0.0
C1596 C 0.3243 0.3712 0.17218 0.0
C1597 C 0.33595 0.35945 0.1745 0.0
C1598 C 0.34415 0.36199 0.18764 0.0
C1599 C 0.30854 0.36463 0.1725 0.0
C1600 C 0.32721 0.38085 0.15852 0.0
H1601 H 0.37476 0.31197 0.17798 0.0
H1602 H 0.39015 0.34103 0.22223 0.0
H1603 H 0.38481 0.36534 0.19635 0.0
H1604 H 0.37056 0.3769 0.20171 0.0
H1605 H 0.38236 0.36853 0.21558 0.0
H1606 H 0.35539 0.33947 0.22215 0.0
H1607 H 0.36484 0.35541 0.22949 0.0
H1608 H 0.34722 0.35674 0.21984 0.0
H1609 H 0.34318 0.31212 0.13135 0.0
H1610 H 0.31062 0.34506 0.12064 0.0
H1611 H 0.31599 0.35731 0.14379 0.0
H1612 H 0.33536 0.30842 0.16535 0.0
H1613 H 0.35193 0.30075 0.15857 0.0
H1614 H 0.35128 0.30848 0.17683 0.0
H1615 H 0.36772 0.33506 0.14401 0.0
H1616 H 0.37627 0.32698 0.15958 0.0
H1617 H 0.36874 0.31538 0.1451 0.0
H1618 H 0.3945 0.30324 0.19395 0.0
C1619 C 0.37777 0.31857 0.1874 0.0
C1620 C 0.69259 0.39926 0.19638 0.0
C1621 C 0.68602 0.40727 0.20761 0.0
C1622 C 0.67328 0.40146 0.21397 0.0
C1623 C 0.67345 0.3805 0.19735 0.0
C1624 C 0.68619 0.38602 0.19146 0.0
C1625 C 0.6918 0.37641 0.17947 0.0
H1626 H 0.68294 0.31582 0.13671 0.0
C1627 C 0.66939 0.36677 0.18932 0.0
C1628 C 0.68017 0.36435 0.17885 0.0
H1629 H 0.71886 0.34734 0.13664 0.0
H1630 H 0.70751 0.36127 0.15585 0.0
H1631 H 0.68138 0.31348 0.17146 0.0
H1632 H 0.65793 0.33838 0.13846 0.0
H1633 H 0.6449 0.33432 0.15166 0.0
H1634 H 0.65351 0.31949 0.14205 0.0
H1635 H 0.66781 0.30553 0.15898 0.0
H1636 H 0.66289 0.31321 0.1764 0.0
C1637 C 0.70707 0.37052 0.18456 0.0
C1638 C 0.69188 0.38547 0.16506 0.0
C1639 C 0.62245 0.33807 0.20078 0.0
C1640 C 0.61582 0.32545 0.19429 0.0
C1641 C 0.62276 0.3185 0.18261 0.0
C1642 C 0.63601 0.32393 0.1774 0.0
C1643 C 0.6425 0.33653 0.18388 0.0
C1644 C 0.63574 0.34349 0.1953 0.0
C1645 C 0.64424 0.35702 0.20042 0.0
C1646 C 0.65721 0.35686 0.19025 0.0
C1647 C 0.65608 0.34475 0.18069 0.0
C1648 C 0.64918 0.35478 0.21669 0.0
C1649 C 0.63435 0.37056 0.1977 0.0
C1650 C 0.6885 0.32562 0.14092 0.0
C1651 C 0.7019 0.33038 0.13523 0.0
C1652 C 0.7085 0.34345 0.14079 0.0
C1653 C 0.70192 0.35147 0.152 0.0
C1654 C 0.68857 0.34641 0.15768 0.0
C1655 C 0.68212 0.33369 0.15206 0.0
C1656 C 0.66799 0.32984 0.15923 0.0
C1657 C 0.66703 0.34224 0.17028 0.0
C1658 C 0.67905 0.35195 0.16935 0.0
C1659 C 0.66996 0.31469 0.16687 0.0
C1660 C 0.65537 0.3304 0.14731 0.0
H1661 H 0.65715 0.38437 0.21403 0.0
H1662 H 0.70256 0.40324 0.19147 0.0
H1663 H 0.68203 0.39263 0.16412 0.0
H1664 H 0.69132 0.37855 0.15508 0.0
H1665 H 0.7018 0.39268 0.16473 0.0
H1666 H 0.70749 0.36841 0.19661 0.0
H1667 H 0.71595 0.37858 0.18218 0.0
H1668 H 0.70965 0.35985 0.17951 0.0
H1669 H 0.61732 0.34369 0.20974 0.0
H1670 H 0.61803 0.30864 0.1776 0.0
H1671 H 0.64068 0.31802 0.16853 0.0
H1672 H 0.65265 0.34322 0.21865 0.0
H1673 H 0.64007 0.35714 0.22415 0.0
H1674 H 0.65885 0.3616 0.22 0.0
H1675 H 0.62799 0.36947 0.18708 0.0
H1676 H 0.64066 0.38092 0.19677 0.0
H1677 H 0.62633 0.37174 0.20656 0.0
H1678 H 0.668 0.40741 0.22262 0.0
C1679 C 0.66695 0.38814 0.20888 0.0
C1680 C 0.70733 0.32526 0.90162 0.0
C1681 C 0.70287 0.31175 0.90762 0.0
C1682 C 0.69059 0.30436 0.90101 0.0
C1683 C 0.68796 0.32366 0.88257 0.0
C1684 C 0.69989 0.33087 0.88918 0.0
C1685 C 0.7039 0.34477 0.88134 0.0
H1686 H 0.69402 0.39144 0.8244 0.0
C1687 C 0.683 0.3325 0.86961 0.0
C1688 C 0.6924 0.34482 0.8689 0.0
H1689 H 0.72669 0.39333 0.86007 0.0
H1690 H 0.71619 0.37179 0.87087 0.0
H1691 H 0.66691 0.38351 0.8448 0.0
H1692 H 0.69483 0.35573 0.81968 0.0
H1693 H 0.67642 0.35001 0.81656 0.0
H1694 H 0.68193 0.3683 0.81136 0.0
H1695 H 0.66473 0.38192 0.82519 0.0
H1696 H 0.6558 0.36926 0.8374 0.0
C1697 C 0.70197 0.35784 0.89206 0.0
C1698 C 0.71971 0.34304 0.87566 0.0
C1699 C 0.63913 0.3159 0.83707 0.0
C1700 C 0.63214 0.32186 0.82437 0.0
C1701 C 0.63752 0.33527 0.81879 0.0
C1702 C 0.64971 0.34248 0.82555 0.0
C1703 C 0.65665 0.33628 0.83809 0.0
C1704 C 0.65127 0.32326 0.84373 0.0
C1705 C 0.65998 0.31836 0.85723 0.0
C1706 C 0.67142 0.33061 0.85881 0.0
C1707 C 0.66947 0.34104 0.84748 0.0
C1708 C 0.64958 0.31799 0.87033 0.0
C1709 C 0.66706 0.30338 0.85383 0.0
C1710 C 0.69891 0.38714 0.8345 0.0
C1711 C 0.71121 0.39416 0.8414 0.0
C1712 C 0.71711 0.38831 0.85464 0.0
C1713 C 0.71105 0.37568 0.86085 0.0
C1714 C 0.69892 0.36867 0.8538 0.0
C1715 C 0.69291 0.37447 0.84094 0.0
C1716 C 0.67979 0.3656 0.83528 0.0
C1717 C 0.6792 0.35337 0.84669 0.0
C1718 C 0.69049 0.35525 0.85742 0.0
C1719 C 0.66605 0.37552 0.83553 0.0
C1720 C 0.68327 0.35961 0.81987 0.0
H1721 H 0.67394 0.30405 0.88397 0.0
H1722 H 0.71648 0.33148 0.9065 0.0
H1723 H 0.72194 0.33138 0.87281 0.0
H1724 H 0.72153 0.34914 0.86538 0.0
H1725 H 0.72812 0.34654 0.88412 0.0
H1726 H 0.69274 0.35571 0.89953 0.0
H1727 H 0.71208 0.35973 0.89903 0.0
H1728 H 0.699 0.36817 0.88636 0.0
H1729 H 0.63519 0.30574 0.84182 0.0
H1730 H 0.63251 0.34006 0.80897 0.0
H1731 H 0.65333 0.35256 0.82066 0.0
H1732 H 0.64216 0.32765 0.87 0.0
H1733 H 0.64259 0.3079 0.87003 0.0
H1734 H 0.65552 0.31864 0.88109 0.0
H1735 H 0.67084 0.3031 0.84233 0.0
H1736 H 0.67698 0.30121 0.86077 0.0
H1737 H 0.65905 0.2942 0.85512 0.0
H1738 H 0.68691 0.29389 0.90528 0.0
C1739 C 0.68312 0.31024 0.88855 0.0
C1740 C 0.65171 0.6819 0.82546 0.0
C1741 C 0.64564 0.69394 0.83282 0.0
C1742 C 0.65283 0.69931 0.84573 0.0
C1743 C 0.67173 0.68091 0.84382 0.0
C1744 C 0.66472 0.67554 0.83119 0.0
C1745 C 0.67268 0.66257 0.825 0.0
H1746 H 0.73103 0.61652 0.82866 0.0
C1747 C 0.68507 0.67213 0.84679 0.0
C1748 C 0.68576 0.66134 0.83583 0.0
H1749 H 0.69398 0.6157 0.79759 0.0
H1750 H 0.68352 0.63658 0.80968 0.0
H1751 H 0.73535 0.65221 0.82946 0.0
H1752 H 0.71145 0.62301 0.85782 0.0
H1753 H 0.72226 0.63544 0.86855 0.0
H1754 H 0.73114 0.62263 0.85677 0.0
H1755 H 0.74462 0.63971 0.84183 0.0
H1756 H 0.73871 0.65753 0.84788 0.0
C1757 C 0.67755 0.66666 0.80938 0.0
C1758 C 0.66234 0.64893 0.82556 0.0
C1759 C 0.7175 0.68482 0.89136 0.0
C1760 C 0.73095 0.67955 0.89707 0.0
C1761 C 0.73816 0.6684 0.88939 0.0
C1762 C 0.73171 0.66229 0.87641 0.0
C1763 C 0.71802 0.66753 0.871 0.0
C1764 C 0.71134 0.6788 0.87841 0.0
C1765 C 0.69727 0.68363 0.87095 0.0
C1766 C 0.69627 0.67319 0.85798 0.0
C1767 C 0.70834 0.66365 0.85803 0.0
C1768 C 0.69929 0.69988 0.86606 0.0
C1769 C 0.68461 0.68097 0.88169 0.0
C1770 C 0.72071 0.62091 0.82441 0.0
C1771 C 0.71334 0.61443 0.8121 0.0
C1772 C 0.69981 0.62035 0.8071 0.0
C1773 C 0.69379 0.63255 0.8141 0.0
C1774 C 0.70129 0.63891 0.82633 0.0
C1775 C 0.71448 0.63302 0.83138 0.0
C1776 C 0.72069 0.64101 0.84477 0.0
C1777 C 0.70906 0.65263 0.84694 0.0
C1778 C 0.69777 0.65141 0.836 0.0
C1779 C 0.73569 0.64794 0.84092 0.0
C1780 C 0.72155 0.63 0.85772 0.0
H1781 H 0.67063 0.69758 0.86109 0.0
H1782 H 0.64639 0.67743 0.81559 0.0
H1783 H 0.65492 0.64961 0.83501 0.0
H1784 H 0.66838 0.63856 0.82733 0.0
H1785 H 0.65531 0.64797 0.81538 0.0
H1786 H 0.6819 0.67814 0.80917 0.0
H1787 H 0.66815 0.6659 0.80129 0.0
H1788 H 0.68656 0.65977 0.80554 0.0
H1789 H 0.71187 0.69361 0.89683 0.0
H1790 H 0.74861 0.66426 0.89357 0.0
H1791 H 0.73758 0.65371 0.87111 0.0
H1792 H 0.71101 0.70247 0.8639 0.0
H1793 H 0.69572 0.70763 0.87465 0.0
H1794 H 0.69336 0.70237 0.85556 0.0
H1795 H 0.68647 0.67075 0.88819 0.0
H1796 H 0.6738 0.67925 0.87603 0.0
H1797 H 0.68382 0.69022 0.88959 0.0
H1798 H 0.64857 0.7087 0.85149 0.0
C1799 C 0.66577 0.69289 0.85124 0.0
C1800 C 0.33585 0.64222 0.83012 0.0
C1801 C 0.33942 0.63504 0.81703 0.0
C1802 C 0.35241 0.63912 0.80999 0.0
C1803 C 0.35761 0.65784 0.82839 0.0
C1804 C 0.34505 0.65364 0.83553 0.0
C1805 C 0.34259 0.66306 0.84884 0.0
H1806 H 0.36424 0.72034 0.8925 0.0
C1807 C 0.36438 0.67049 0.83636 0.0
C1808 C 0.35565 0.67365 0.84836 0.0
H1809 H 0.32631 0.69166 0.89664 0.0
H1810 H 0.33317 0.6781 0.8753 0.0
H1811 H 0.36024 0.72432 0.85769 0.0
H1812 H 0.38733 0.69485 0.88362 0.0
H1813 H 0.39799 0.70219 0.86953 0.0
H1814 H 0.39064 0.71434 0.88304 0.0
H1815 H 0.37664 0.73051 0.86743 0.0
H1816 H 0.37717 0.723 0.84909 0.0
C1817 C 0.32774 0.67107 0.84645 0.0
C1818 C 0.34344 0.65305 0.8626 0.0
C1819 C 0.41036 0.6947 0.8167 0.0
C1820 C 0.41861 0.70724 0.82097 0.0
C1821 C 0.41461 0.71508 0.83359 0.0
C1822 C 0.40253 0.71059 0.84175 0.0
C1823 C 0.39424 0.69817 0.83721 0.0
C1824 C 0.39822 0.69046 0.82487 0.0
C1825 C 0.38784 0.67789 0.82133 0.0
C1826 C 0.37702 0.67925 0.8336 0.0
C1827 C 0.38083 0.6911 0.84292 0.0
C1828 C 0.38046 0.68078 0.80598 0.0
C1829 C 0.39666 0.66342 0.82248 0.0
C1830 C 0.35735 0.71121 0.88877 0.0
C1831 C 0.34475 0.70706 0.89645 0.0
C1832 C 0.33623 0.69497 0.89121 0.0
C1833 C 0.34017 0.68714 0.87869 0.0
C1834 C 0.35274 0.69142 0.87117 0.0
C1835 C 0.3611 0.70328 0.87622 0.0
C1836 C 0.37399 0.70635 0.86666 0.0
C1837 C 0.37205 0.69429 0.85516 0.0
C1838 C 0.35956 0.68559 0.85786 0.0
C1839 C 0.37207 0.72187 0.85989 0.0
C1840 C 0.38831 0.70445 0.87613 0.0
H1841 H 0.37116 0.65303 0.80962 0.0
H1842 H 0.32589 0.63935 0.83572 0.0
H1843 H 0.35197 0.64448 0.86144 0.0
H1844 H 0.34674 0.65906 0.87274 0.0
H1845 H 0.33277 0.64733 0.86424 0.0
H1846 H 0.32584 0.674 0.83467 0.0
H1847 H 0.31838 0.66399 0.84975 0.0
H1848 H 0.32733 0.68164 0.85239 0.0
H1849 H 0.41302 0.68857 0.80695 0.0
H1850 H 0.42087 0.7247 0.83718 0.0
H1851 H 0.40006 0.71703 0.85121 0.0
H1852 H 0.37934 0.69277 0.80385 0.0
H1853 H 0.38704 0.67611 0.79707 0.0
H1854 H 0.36909 0.67641 0.80494 0.0
H1855 H 0.405 0.664 0.8317 0.0
H1856 H 0.38973 0.65375 0.82495 0.0
H1857 H 0.40259 0.6613 0.81223 0.0
H1858 H 0.3555 0.63359 0.80002 0.0
C1859 C 0.36152 0.65041 0.8156 0.0
C1860 C 0.33487 0.33487 0.8875 0.0
C1861 C 0.32248 0.34247 0.89227 0.0
C1862 C 0.31802 0.35526 0.88465 0.0
C1863 C 0.338 0.35259 0.86785 0.0
C1864 C 0.34243 0.34011 0.87536 0.0
C1865 C 0.35586 0.33339 0.86899 0.0
H1866 H 0.40803 0.33409 0.81757 0.0
C1867 C 0.34821 0.35503 0.85571 0.0
C1868 C 0.35872 0.34383 0.85635 0.0
H1869 H 0.40236 0.30306 0.85302 0.0
H1870 H 0.38145 0.31647 0.86106 0.0
H1871 H 0.40144 0.36332 0.83669 0.0
H1872 H 0.37326 0.33636 0.80841 0.0
H1873 H 0.36928 0.35491 0.80477 0.0
H1874 H 0.3874 0.34808 0.80138 0.0
H1875 H 0.40297 0.36315 0.81706 0.0
H1876 H 0.39018 0.375 0.82592 0.0
C1877 C 0.36846 0.33391 0.88089 0.0
C1878 C 0.35165 0.31772 0.86347 0.0
C1879 C 0.34015 0.39817 0.82097 0.0
C1880 C 0.34755 0.40334 0.80862 0.0
C1881 C 0.3601 0.39572 0.80415 0.0
C1882 C 0.36511 0.38319 0.81177 0.0
C1883 C 0.35752 0.37815 0.82403 0.0
C1884 C 0.34527 0.38566 0.82844 0.0
C1885 C 0.33858 0.37882 0.84172 0.0
C1886 C 0.34876 0.36593 0.84455 0.0
C1887 C 0.35986 0.36555 0.83416 0.0
C1888 C 0.33954 0.39019 0.85443 0.0
C1889 C 0.32272 0.37368 0.83733 0.0
C1890 C 0.40222 0.33013 0.82701 0.0
C1891 C 0.40697 0.31747 0.83468 0.0
C1892 C 0.39916 0.31287 0.84703 0.0
C1893 C 0.3869 0.32063 0.85163 0.0
C1894 C 0.38227 0.33319 0.84385 0.0
C1895 C 0.38991 0.33779 0.83178 0.0
C1896 C 0.38337 0.35144 0.82492 0.0
C1897 C 0.37054 0.3542 0.83483 0.0
C1898 C 0.36996 0.34344 0.84588 0.0
C1899 C 0.39505 0.36393 0.82606 0.0
C1900 C 0.3781 0.34765 0.80899 0.0
H1901 H 0.32168 0.3701 0.86716 0.0
H1902 H 0.33874 0.32513 0.89322 0.0
H1903 H 0.34019 0.31741 0.85877 0.0
H1904 H 0.35851 0.31392 0.85447 0.0
H1905 H 0.35229 0.30962 0.8726 0.0
H1906 H 0.36773 0.34394 0.88783 0.0
H1907 H 0.36797 0.32422 0.88828 0.0
H1908 H 0.37949 0.33461 0.8762 0.0
H1909 H 0.33062 0.40384 0.82489 0.0
H1910 H 0.36596 0.39932 0.79461 0.0
H1911 H 0.37467 0.37788 0.80777 0.0
H1912 H 0.34975 0.39699 0.8539 0.0
H1913 H 0.33003 0.39777 0.85388 0.0
H1914 H 0.34019 0.38502 0.86541 0.0
H1915 H 0.32217 0.36937 0.82587 0.0
H1916 H 0.31878 0.36449 0.84413 0.0
H1917 H 0.31486 0.3829 0.83791 0.0
H1918 H 0.30845 0.36126 0.88797 0.0
C1919 C 0.32568 0.36034 0.87249 0.0
Cu1920 Cu 0.26877 0.27434 0.01196 0.0
N1921 N 0.26732 0.29133 1.00045 0.0
N1922 N 0.27174 0.30653 0.98173 0.0
C1923 C 0.27306 0.29273 0.98707 0.0
C1924 C 0.26479 0.31408 0.99221 0.0
C1925 C 0.26211 0.30467 1.00375 0.0
O1926 O 0.26797 0.25773 0.9983 0.0
C1927 C 0.29475 0.28668 0.02581 0.0
O1928 O 0.29455 0.29585 0.01467 0.0
H1929 H 0.27877 0.28392 0.98175 0.0
H1930 H 0.25722 0.30752 0.01403 0.0
N1931 N 0.25294 0.27204 0.0243 0.0
N1932 N 0.23983 0.26223 0.04223 0.0
C1933 C 0.25215 0.26133 0.03444 0.0
C1934 C 0.24067 0.28001 0.02562 0.0
C1935 C 0.23256 0.27399 0.03674 0.0
C1936 C 0.25558 0.25649 0.99137 0.0
O1937 O 0.24526 0.266 0.99418 0.0
H1938 H 0.26065 0.25324 0.03626 0.0
H1939 H 0.23778 0.28947 0.01899 0.0
O1940 O 0.28589 0.27572 0.02555 0.0
H1941 H 0.26208 0.32563 0.99175 0.0
H1942 H 0.22208 0.2779 0.04039 0.0
Cu1943 Cu 0.76942 0.25912 0.0222 0.0
N1944 N 0.75255 0.26163 0.03457 0.0
N1945 N 0.73851 0.27048 0.05206 0.0
C1946 C 0.75054 0.27274 0.04402 0.0
C1947 C 0.73274 0.25749 0.04735 0.0
C1948 C 0.74145 0.25204 0.03652 0.0
O1949 O 0.78093 0.25024 0.03964 0.0
C1950 C 0.76126 0.27852 0.99744 0.0
O1951 O 0.77333 0.2857 1.00154 0.0
H1952 H 0.7581 0.28194 0.04542 0.0
H1953 H 0.74005 0.24167 0.03079 0.0
N1954 N 0.78654 0.25688 0.01002 0.0
N1955 N 0.80086 0.25098 0.99153 0.0
C1956 C 0.78732 0.24969 0.99714 0.0
C1957 C 0.79991 0.26293 0.01268 0.0
C1958 C 0.80879 0.25928 1.00131 0.0
C1959 C 0.78732 0.25802 0.04964 0.0
O1960 O 0.7869 0.27243 0.04864 0.0
H1961 H 0.77816 0.24371 0.99202 0.0
H1962 H 0.8029 0.26972 0.0221 0.0
O1963 O 0.75743 0.26718 1.00463 0.0
H1964 H 0.72303 0.25219 0.05154 0.0
H1965 H 0.8201 0.26282 1.00017 0.0
Cu1966 Cu 0.75848 0.77275 0.99578 0.0
N1967 N 0.758 0.78757 0.98146 0.0
N1968 N 0.76472 0.80185 0.96277 0.0
C1969 C 0.76773 0.78966 0.97078 0.0
C1970 C 0.75258 0.80756 0.96861 0.0
C1971 C 0.74846 0.79875 0.9801 0.0
O1972 O 0.76183 0.7541 0.98573 0.0
C1973 C 0.77182 0.79081 0.01651 0.0
O1974 O 0.76114 0.79915 0.01134 0.0
H1975 H 0.77708 0.78262 0.96921 0.0
H1976 H 0.73935 0.80058 0.98718 0.0
N1977 N 0.74049 0.7713 0.00524 0.0
N1978 N 0.72434 0.76543 0.02233 0.0
C1979 C 0.73868 0.7663 0.01902 0.0
C1980 C 0.72681 0.77383 0.99975 0.0
C1981 C 0.71682 0.77013 0.01023 0.0
C1982 C 0.75164 0.75027 0.97651 0.0
O1983 O 0.74031 0.75892 0.9744 0.0
H1984 H 0.74768 0.76285 0.02627 0.0
H1985 H 0.72421 0.77776 0.98877 0.0
O1986 O 0.77327 0.77803 0.01101 0.0
H1987 H 0.74707 0.81744 0.96489 0.0
H1988 H 0.70496 0.77072 0.00902 0.0
Cu1989 Cu 0.27382 0.7679 0.01064 0.0
N1990 N 0.27228 0.78357 0.02381 0.0
N1991 N 0.26346 0.79646 0.0425 0.0
C1992 C 0.26364 0.78333 0.03554 0.0
C1993 C 0.27243 0.80529 0.0348 0.0
C1994 C 0.2778 0.79734 0.02327 0.0
O1995 O 0.27386 0.75003 0.02259 0.0
C1996 C 0.25964 0.78072 0.98728 0.0
O1997 O 0.27104 0.78947 0.98978 0.0
H1998 H 0.25712 0.77383 0.03851 0.0
H1999 H 0.28484 0.80148 0.01485 0.0
N2000 N 0.29125 0.76815 1.00013 0.0
N2001 N 0.30708 0.76129 0.98319 0.0
C2002 C 0.294 0.75859 0.98929 0.0
C2003 C 0.30306 0.77722 1.00101 0.0
C2004 C 0.31282 0.77305 0.9905 0.0
C2005 C 0.28607 0.74767 0.02946 0.0
O2006 O 0.29706 0.75694 0.0278 0.0
H2007 H 0.28636 0.74997 0.98578 0.0
H2008 H 0.30455 0.78617 0.00875 0.0
O2009 O 0.2579 0.76972 0.99579 0.0
H2010 H 0.27481 0.81675 0.03717 0.0
H2011 H 0.32338 0.77814 0.98854 0.0
Cu2012 Cu 0.01557 0.26347 0.26461 0.0
N2013 N 0.02401 0.2623 0.2463 0.0
N2014 N 0.03968 0.2546 0.22958 0.0
C2015 C 0.03677 0.25547 0.244 0.0
C2016 C 0.02827 0.26132 0.22254 0.0
C2017 C 0.0186 0.26606 0.2329 0.0
O2018 O 0.03205 0.26395 0.2788 0.0
C2019 C 1.00228 0.23529 0.25916 0.0
O2020 O 0.01445 0.232 0.25257 0.0
H2021 H 0.04331 0.25047 0.25276 0.0
H2022 H 0.00816 0.27139 0.23081 0.0
N2023 N 1.00438 0.28038 0.26638 0.0
N2024 N 0.98647 0.29471 0.27427 0.0
C2025 C 0.99299 0.28149 0.27535 0.0
C2026 C 1.00512 0.29331 0.25926 0.0
C2027 C 0.99402 0.3022 0.2641 0.0
C2028 C 0.03257 0.27162 0.29051 0.0
O2029 O 0.02054 0.27783 0.295 0.0
H2030 H 0.98942 0.27263 0.28237 0.0
H2031 H 0.01308 0.29603 0.25109 0.0
O2032 O 1.00162 0.24729 0.26631 0.0
H2033 H 0.02683 0.26251 0.21075 0.0
H2034 H 0.99175 0.31331 0.26049 0.0
Cu2035 Cu 0.75644 0.0054 0.26276 0.0
N2036 N 0.77344 0.01703 0.26195 0.0
N2037 N 0.78859 0.03488 0.25453 0.0
C2038 C 0.77479 0.02921 0.25368 0.0
C2039 C 0.79619 0.02587 0.26375 0.0
C2040 C 0.78683 0.01487 0.26828 0.0
O2041 O 0.73974 0.01882 0.26225 0.0
C2042 C 0.76687 0.98096 0.24949 0.0
O2043 O 0.77524 0.98196 0.2615 0.0
H2044 H 0.7659 0.03352 0.24682 0.0
H2045 H 0.78967 0.00579 0.27546 0.0
N2046 N 0.75564 0.99469 0.28034 0.0
N2047 N 0.74904 0.97688 0.29584 0.0
C2048 C 0.74705 0.98274 0.28229 0.0
C2049 C 0.76335 0.99652 0.29311 0.0
C2050 C 0.75927 0.98558 0.30271 0.0
C2051 C 0.73929 0.02683 0.27374 0.0
O2052 O 0.74969 0.02542 0.28399 0.0
H2053 H 0.73949 0.97848 0.27385 0.0
H2054 H 0.77141 0.00514 0.29529 0.0
O2055 O 0.75717 0.99078 0.24699 0.0
H2056 H 0.8077 0.02709 0.26697 0.0
H2057 H 0.76375 0.984 0.31376 0.0
Cu2058 Cu 0.0084 0.76166 0.25564 0.0
N2059 N 0.99758 0.77913 0.25406 0.0
N2060 N 0.97981 0.79419 0.24589 0.0
C2061 C 0.98643 0.78111 0.24417 0.0
C2062 C 0.98713 0.80074 0.25731 0.0
C2063 C 0.99814 0.79145 0.2623 0.0
O2064 O 0.99357 0.74611 0.25773 0.0
C2065 C 0.02804 0.77264 0.23661 0.0
O2066 O 0.0266 0.78348 0.24598 0.0
H2067 H 0.98295 0.77287 0.23616 0.0
H2068 H 0.0059 0.79353 0.27133 0.0
N2069 N 0.02133 0.76103 0.27209 0.0
N2070 N 0.0404 0.75367 0.2864 0.0
C2071 C 0.03354 0.75277 0.27301 0.0
C2072 C 0.02038 0.76742 0.28537 0.0
C2073 C 0.03213 0.76293 0.29419 0.0
C2074 C 0.98477 0.74891 0.26798 0.0
O2075 O 0.98715 0.76074 0.27603 0.0
H2076 H 0.03702 0.74587 0.2641 0.0
H2077 H 0.01162 0.77457 0.28856 0.0
O2078 O 0.02069 0.7608 0.23845 0.0
H2079 H 0.98473 0.81148 0.26171 0.0
H2080 H 0.03432 0.76622 0.30549 0.0
Cu2081 Cu 0.24246 0.01162 0.27134 0.0
N2082 N 0.24368 0.02233 0.28898 0.0
N2083 N 0.25032 0.04061 0.30437 0.0
C2084 C 0.25156 0.03484 0.29079 0.0
C2085 C 0.24133 0.03127 0.31142 0.0
C2086 C 0.23719 0.02003 0.30187 0.0
O2087 O 0.2404 0.0264 0.25578 0.0
C2088 C 0.26169 0.99121 0.28222 0.0
O2089 O 0.25223 0.99223 0.29275 0.0
H2090 H 0.25814 0.03955 0.28226 0.0
H2091 H 0.22996 0.01087 0.30418 0.0
N2092 N 0.22604 0.99906 0.27033 0.0
N2093 N 0.21176 0.97994 0.26336 0.0
C2094 C 0.225 0.98667 0.26224 0.0
C2095 C 0.21304 1.00026 0.27683 0.0
C2096 C 0.2042 0.98849 0.27255 0.0
C2097 C 0.22995 0.03534 0.25789 0.0
O2098 O 0.22154 0.03305 0.26914 0.0
H2099 H 0.23372 0.98286 0.25544 0.0
H2100 H 0.21013 0.0091 0.2841 0.0
O2101 O 0.25979 0.9991 0.27075 0.0
H2102 H 0.23778 0.03258 0.32258 0.0
H2103 H 0.19312 0.98636 0.27603 0.0
Cu2104 Cu 0.01497 0.77108 0.74774 0.0
N2105 N 0.02767 0.77286 0.73222 0.0
N2106 N 0.04664 0.76718 0.71836 0.0
C2107 C 0.04027 0.76532 0.73141 0.0
C2108 C 0.03765 0.77632 0.71064 0.0
C2109 C 0.02592 0.77979 0.71924 0.0
O2110 O 0.02785 0.76676 0.76466 0.0
C2111 C 0.99164 0.74966 0.75018 0.0
O2112 O 0.99224 0.75226 0.76439 0.0
H2113 H 0.04423 0.75799 0.73999 0.0
H2114 H 0.01655 0.78644 0.71606 0.0
N2115 N 1.00453 0.78838 0.75068 0.0
N2116 N 0.98711 0.80328 0.75866 0.0
C2117 C 0.99238 0.78949 0.75865 0.0
C2118 C 0.00701 0.80197 0.74538 0.0
C2119 C 0.99621 0.8112 0.75024 0.0
C2120 C 0.02741 0.77301 0.77716 0.0
O2121 O 0.01586 0.78077 0.78037 0.0
H2122 H 0.98743 0.78033 0.76428 0.0
H2123 H 0.01603 0.80496 0.7385 0.0
O2124 O 1.00091 0.75583 0.74199 0.0
H2125 H 0.03925 0.78001 0.6995 0.0
H2126 H 0.99525 0.82284 0.74796 0.0
Cu2127 Cu 0.26261 0.00839 0.76247 0.0
N2128 N 0.26071 0.02224 0.74746 0.0
N2129 N 0.26698 0.04174 0.73396 0.0
C2130 C 0.26976 0.03397 0.74636 0.0
C2131 C 0.25566 0.03456 0.72699 0.0
C2132 C 0.25181 0.02252 0.73537 0.0
O2133 O 0.26843 0.02023 0.77956 0.0
C2134 C 0.28313 0.98443 0.76373 0.0
O2135 O 0.2811 0.98402 0.77795 0.0
H2136 H 0.27862 0.03638 0.75426 0.0
H2137 H 0.24337 0.01439 0.73268 0.0
N2138 N 0.24498 0.9982 0.76572 0.0
N2139 N 0.22998 0.98059 0.77412 0.0
C2140 C 0.24396 0.98442 0.77107 0.0
C2141 C 0.23114 1.00327 0.76515 0.0
C2142 C 0.22186 0.99244 0.77029 0.0
C2143 C 0.26158 0.02031 0.79154 0.0
O2144 O 0.25245 0.00947 0.79434 0.0
H2145 H 0.2534 0.97751 0.77303 0.0
H2146 H 0.22811 0.01428 0.76184 0.0
O2147 O 0.27698 0.99439 0.75598 0.0
H2148 H 0.2506 0.03769 0.71653 0.0
H2149 H 0.21015 0.99352 0.7717 0.0
Cu2150 Cu 0.03055 0.25491 0.76337 0.0
N2151 N 0.0196 0.25786 0.74581 0.0
N2152 N 1.00209 0.26689 0.73047 0.0
C2153 C 0.00644 0.26455 0.74463 0.0
C2154 C 0.01294 0.26125 0.72245 0.0
C2155 C 0.02372 0.25575 0.73192 0.0
O2156 O 0.0168 0.25078 0.77874 0.0
C2157 C 0.04293 0.28376 0.76012 0.0
O2158 O 0.03054 0.2871 0.75313 0.0
H2159 H 1.00059 0.26837 0.754 0.0
H2160 H 0.03408 0.25108 0.7289 0.0
N2161 N 0.04297 0.23871 0.76248 0.0
N2162 N 0.06185 0.22422 0.76901 0.0
C2163 C 0.05405 0.23626 0.77234 0.0
C2164 C 0.0437 0.22783 0.75251 0.0
C2165 C 0.05539 0.21888 0.75649 0.0
C2166 C 0.00808 0.25989 0.78437 0.0
O2167 O 0.00924 0.27392 0.78111 0.0
H2168 H 0.05653 0.24345 0.7816 0.0
H2169 H 0.03635 0.22653 0.74299 0.0
O2170 O 0.044 0.27144 0.76669 0.0
H2171 H 0.01329 0.26132 0.71058 0.0
H2172 H 0.05879 0.20918 0.75067 0.0
Cu2173 Cu 0.76213 0.02984 0.74849 0.0
N2174 N 0.76345 0.04337 0.76391 0.0
N2175 N 0.77285 0.06157 0.77793 0.0
C2176 C 0.7745 0.0532 0.76587 0.0
C2177 C 0.76021 0.0568 0.7838 0.0
C2178 C 0.75438 0.0456 0.77506 0.0
O2179 O 0.76592 0.04152 0.73115 0.0
C2180 C 0.77475 0.00826 0.76532 0.0
O2181 O 0.76443 0.01301 0.77386 0.0
H2182 H 0.78371 0.05399 0.75867 0.0
H2183 H 0.74432 0.03947 0.77674 0.0
N2184 N 0.7434 0.0213 0.74664 0.0
N2185 N 0.72615 1.00444 0.74074 0.0
C2186 C 0.74055 0.00696 0.74398 0.0
C2187 C 0.73035 0.02809 0.74516 0.0
C2188 C 0.71967 0.0177 0.74145 0.0
C2189 C 0.75846 0.04059 0.71909 0.0
O2190 O 0.74986 0.02909 0.71667 0.0
H2191 H 0.749 0.9987 0.74347 0.0
H2192 H 0.72886 0.03984 0.74595 0.0
O2193 O 0.77612 0.01427 0.75279 0.0
H2194 H 0.75543 0.06119 0.79359 0.0
H2195 H 0.70815 0.01978 0.73902 0.0
Cu2196 Cu 0.2766 0.76493 0.50194 0.0
N2197 N 0.29194 0.76731 0.51613 0.0
N2198 N 0.30426 0.77619 0.53603 0.0
C2199 C 0.29134 0.77586 0.52822 0.0
C2200 C 0.31331 0.76744 0.52854 0.0
C2201 C 0.30571 0.762 0.51631 0.0
O2202 O 0.25885 0.76162 0.51285 0.0
C2203 C 0.28827 0.78623 0.48432 0.0
O2204 O 0.30014 0.77907 0.48853 0.0
H2205 H 0.28171 0.78207 0.53093 0.0
H2206 H 0.31011 0.75507 0.50791 0.0
N2207 N 0.27893 0.74877 0.48939 0.0
N2208 N 0.27363 0.73314 0.47086 0.0
C2209 C 0.27051 0.74616 0.47717 0.0
C2210 C 0.28773 0.73702 0.49087 0.0
C2211 C 0.2845 0.72738 0.47947 0.0
C2212 C 0.25804 0.74906 0.51898 0.0
O2213 O 0.2687 0.73966 0.51717 0.0
H2214 H 0.26185 0.75343 0.47336 0.0
H2215 H 0.29552 0.73523 0.4999 0.0
O2216 O 0.27594 0.78219 0.48928 0.0
H2217 H 0.32466 0.76517 0.53159 0.0
H2218 H 0.28963 0.71685 0.47781 0.0
Cu2219 Cu 0.76935 0.76509 0.50984 0.0
N2220 N 0.78631 0.76369 0.4988 0.0
N2221 N 0.80052 0.75618 0.48069 0.0
C2222 C 0.78722 0.75513 0.4868 0.0
C2223 C 0.80836 0.76571 0.48933 0.0
C2224 C 0.79955 0.77034 0.50049 0.0
O2225 O 0.75272 0.76251 0.4958 0.0
C2226 C 0.78105 0.75504 0.53584 0.0
O2227 O 0.78838 0.76735 0.5338 0.0
H2228 H 0.77825 0.74819 0.48271 0.0
H2229 H 0.80258 0.77805 0.50916 0.0
N2230 N 0.76716 0.78362 0.51841 0.0
N2231 N 0.75904 0.80036 0.53412 0.0
C2232 C 0.75777 0.7864 0.52916 0.0
C2233 C 0.7746 0.79629 0.51636 0.0
C2234 C 0.76964 0.80664 0.5261 0.0
C2235 C 0.75338 0.77147 0.48504 0.0
O2236 O 0.76425 0.78109 0.48495 0.0
H2237 H 0.75054 0.77813 0.53363 0.0
H2238 H 0.78315 0.79784 0.50852 0.0
O2239 O 0.77139 0.75103 0.52609 0.0
H2240 H 0.81956 0.76928 0.4876 0.0
H2241 H 0.77357 0.81788 0.52723 0.0
Cu2242 Cu 0.76495 0.25621 0.50076 0.0
N2243 N 0.76404 0.23856 0.49006 0.0
N2244 N 0.75708 0.22289 0.47211 0.0
C2245 C 0.7558 0.23659 0.47764 0.0
C2246 C 0.76652 0.21596 0.4815 0.0
C2247 C 0.77081 0.22566 0.49254 0.0
O2248 O 0.76794 0.27172 0.48624 0.0
C2249 C 0.74485 0.24564 0.51973 0.0
O2250 O 0.7541 0.23471 0.51898 0.0
H2251 H 0.74884 0.24505 0.4729 0.0
H2252 H 0.7782 0.22339 0.50179 0.0
N2253 N 0.78072 0.25705 0.51443 0.0
N2254 N 0.79394 0.26463 0.53421 0.0
C2255 C 0.78127 0.26601 0.52622 0.0
C2256 C 0.79353 0.24976 0.5149 0.0
C2257 C 0.80169 0.25436 0.52716 0.0
C2258 C 0.77884 0.26925 0.47814 0.0
O2259 O 0.7868 0.25752 0.48085 0.0
H2260 H 0.77244 0.27334 0.5289 0.0
H2261 H 0.79684 0.24185 0.50682 0.0
O2262 O 0.74715 0.25722 0.5122 0.0
H2263 H 0.77018 0.20474 0.48044 0.0
H2264 H 0.8126 0.25069 0.53044 0.0
Cu2265 Cu 0.26815 0.28283 0.52736 0.0
N2266 N 0.26665 0.29987 0.53886 0.0
N2267 N 0.25869 0.31424 0.55685 0.0
C2268 C 0.25795 0.30082 0.5505 0.0
C2269 C 0.26829 0.32204 0.54885 0.0
C2270 C 0.27322 0.31313 0.53778 0.0
O2271 O 0.27313 0.26731 0.54138 0.0
C2272 C 0.2447 0.29207 0.51005 0.0
O2273 O 0.25104 0.30467 0.51356 0.0
H2274 H 0.25101 0.29185 0.55405 0.0
H2275 H 0.28091 0.31616 0.52947 0.0
N2276 N 0.28292 0.28351 0.51356 0.0
N2277 N 0.29502 0.27615 0.49387 0.0
C2278 C 0.2827 0.27474 0.50164 0.0
C2279 C 0.29586 0.29083 0.51339 0.0
C2280 C 0.30337 0.28628 0.50124 0.0
C2281 C 0.28456 0.27067 0.54923 0.0
O2282 O 0.29158 0.28298 0.54636 0.0
H2283 H 0.27385 0.267 0.49908 0.0
H2284 H 0.29977 0.29859 0.52168 0.0
O2285 O 0.24993 0.28027 0.5156 0.0
H2286 H 0.27162 0.33334 0.55089 0.0
H2287 H 0.31418 0.29003 0.49819 0.0
Cu2288 Cu 0.77964 0.50327 0.76533 0.0
N2289 N 0.79597 0.51581 0.76388 0.0
N2290 N 0.80873 0.5347 0.7549 0.0
C2291 C 0.79662 0.5261 0.75333 0.0
C2292 C 0.81607 0.52957 0.76695 0.0
C2293 C 0.80819 0.51783 0.77246 0.0
O2294 O 0.76295 0.51675 0.76459 0.0
C2295 C 0.79388 0.48191 0.7511 0.0
O2296 O 0.80294 0.48557 0.76208 0.0
H2297 H 0.78799 0.52762 0.745 0.0
H2298 H 0.81107 0.51143 0.78211 0.0
N2299 N 0.77877 0.4929 0.783 0.0
N2300 N 0.77015 0.47631 0.79876 0.0
C2301 C 0.7697 0.48131 0.7848 0.0
C2302 C 0.78525 0.49539 0.7963 0.0
C2303 C 0.77995 0.48516 0.80606 0.0
C2304 C 0.76438 0.52657 0.77461 0.0
O2305 O 0.77562 0.5258 0.78402 0.0
H2306 H 0.7625 0.47701 0.77607 0.0
H2307 H 0.79292 0.50425 0.79886 0.0
O2308 O 0.78154 0.48846 0.74987 0.0
H2309 H 0.82633 0.53402 0.77151 0.0
H2310 H 0.78299 0.48441 0.81763 0.0
Cu2311 Cu 0.27916 0.52583 0.75243 0.0
N2312 N 0.29521 0.5131 0.75184 0.0
N2313 N 0.30959 0.49393 0.75756 0.0
C2314 C 0.29653 0.50051 0.75956 0.0
C2315 C 0.31673 0.50278 0.74818 0.0
C2316 C 0.30784 0.51457 0.74468 0.0
O2317 O 0.26174 0.51365 0.75518 0.0
C2318 C 0.29314 0.54988 0.76399 0.0
O2319 O 0.29968 0.54805 0.75147 0.0
H2320 H 0.2882 0.49651 0.76682 0.0
H2321 H 0.31053 0.52367 0.73758 0.0
N2322 N 0.27599 0.53625 0.73481 0.0
N2323 N 0.26653 0.55299 0.71923 0.0
C2324 C 0.26673 0.54763 0.73308 0.0
C2325 C 0.28192 0.5343 0.7216 0.0
C2326 C 0.27609 0.54459 0.71197 0.0
C2327 C 0.2582 0.50591 0.74391 0.0
O2328 O 0.26641 0.50675 0.73233 0.0
H2329 H 0.26012 0.55175 0.74183 0.0
H2330 H 0.28981 0.52593 0.71911 0.0
O2331 O 0.28328 0.54061 0.76757 0.0
H2332 H 0.32759 0.50089 0.7441 0.0
H2333 H 0.27882 0.54586 0.70056 0.0
Cu2334 Cu 0.26623 0.5067 0.26814 0.0
N2335 N 0.26664 0.49433 0.28473 0.0
N2336 N 0.26001 0.47585 0.29952 0.0
C2337 C 0.25828 0.48208 0.28608 0.0
C2338 C 0.26993 0.48452 0.30685 0.0
C2339 C 0.27397 0.49588 0.29775 0.0
O2340 O 0.26904 0.49374 0.25129 0.0
C2341 C 0.24585 0.52437 0.28039 0.0
O2342 O 0.25522 0.52213 0.29142 0.0
H2343 H 0.25068 0.47815 0.27751 0.0
H2344 H 0.2813 0.50489 0.3007 0.0
N2345 N 0.28124 0.52111 0.26817 0.0
N2346 N 0.29344 0.54114 0.26066 0.0
C2347 C 0.28137 0.53247 0.25867 0.0
C2348 C 0.29372 0.5226 0.27647 0.0
C2349 C 0.30122 0.53498 0.2719 0.0
C2350 C 0.28208 0.48876 0.25078 0.0
O2351 O 0.29183 0.49292 0.26096 0.0
H2352 H 0.27272 0.53432 0.25044 0.0
H2353 H 0.29741 0.51504 0.28492 0.0
O2354 O 0.24803 0.51802 0.26814 0.0
H2355 H 0.27391 0.48291 0.31807 0.0
H2356 H 0.31179 0.53887 0.27623 0.0
Cu2357 Cu 0.76181 0.51891 0.24734 0.0
N2358 N 0.77882 0.50809 0.25111 0.0
N2359 N 0.79355 0.49162 0.26213 0.0
C2360 C 0.77965 0.49653 0.26031 0.0
C2361 C 0.80178 0.50047 0.25369 0.0
C2362 C 0.79266 0.51065 0.24693 0.0
O2363 O 0.74531 0.50499 0.24681 0.0
C2364 C 0.77098 0.54479 0.2598 0.0
O2365 O 0.77952 0.54372 0.24851 0.0
H2366 H 0.77028 0.49223 0.26602 0.0
H2367 H 0.79598 0.51953 0.23984 0.0
N2368 N 0.76171 0.52818 0.22896 0.0
N2369 N 0.755 0.54424 0.21149 0.0
C2370 C 0.75215 0.53871 0.22486 0.0
C2371 C 0.7709 0.52687 0.21775 0.0
C2372 C 0.76682 0.53683 0.20696 0.0
C2373 C 0.74583 0.49608 0.23601 0.0
O2374 O 0.75702 0.49706 0.22728 0.0
H2375 H 0.7436 0.54261 0.23184 0.0
H2376 H 0.78001 0.51934 0.21748 0.0
O2377 O 0.76162 0.53456 0.26208 0.0
H2378 H 0.81356 0.49978 0.25257 0.0
H2379 H 0.77213 0.53851 0.19662 0.0
Cu2380 Cu 0.52173 0.25028 0.77155 0.0
N2381 N 0.51038 0.25006 0.78832 0.0
N2382 N 0.49229 0.25742 0.80263 0.0
C2383 C 0.49872 0.2589 0.78956 0.0
C2384 C 0.50032 0.24718 0.80997 0.0
C2385 C 0.51146 0.24261 0.80108 0.0
O2386 O 0.50719 0.24889 0.75516 0.0
C2387 C 0.5443 0.26539 0.78422 0.0
O2388 O 0.54266 0.25372 0.79253 0.0
H2389 H 0.49528 0.26657 0.78106 0.0
H2390 H 0.51983 0.23462 0.80382 0.0
N2391 N 0.53459 0.23447 0.76938 0.0
N2392 N 0.55359 0.22269 0.75989 0.0
C2393 C 0.54529 0.2349 0.75953 0.0
C2394 C 0.53608 0.22147 0.77631 0.0
C2395 C 0.54778 0.21413 0.77041 0.0
C2396 C 0.5007 0.23634 0.75501 0.0
O2397 O 0.50465 0.22667 0.76506 0.0
H2398 H 0.54684 0.24408 0.75216 0.0
H2399 H 0.52923 0.21761 0.78502 0.0
O2400 O 0.53512 0.26731 0.77345 0.0
H2401 H 0.49828 0.24322 0.82094 0.0
H2402 H 0.55183 0.20346 0.77377 0.0
Cu2403 Cu 0.52968 0.76597 0.76617 0.0
N2404 N 0.54248 0.76396 0.7825 0.0
N2405 N 0.56062 0.75446 0.79659 0.0
C2406 C 0.55365 0.75437 0.78325 0.0
C2407 C 0.55352 0.76457 0.80453 0.0
C2408 C 0.54234 0.77041 0.79581 0.0
O2409 O 0.54173 0.76763 0.74889 0.0
C2410 C 0.5073 0.75057 0.77765 0.0
O2411 O 0.51011 0.76086 0.78751 0.0
H2412 H 0.55627 0.74713 0.77429 0.0
H2413 H 0.53446 0.7785 0.79907 0.0
N2414 N 0.51814 0.78286 0.76663 0.0
N2415 N 0.49915 0.79721 0.7603 0.0
C2416 C 0.50573 0.78418 0.75832 0.0
C2417 C 0.51956 0.79555 0.77421 0.0
C2418 C 0.50785 0.80447 0.77027 0.0
C2419 C 0.54925 0.77954 0.74883 0.0
O2420 O 0.54838 0.78861 0.76 0.0
H2421 H 0.50178 0.77572 0.75075 0.0
H2422 H 0.52851 0.79821 0.78192 0.0
O2423 O 0.51533 0.74988 0.76645 0.0
H2424 H 0.55616 0.76749 0.81585 0.0
H2425 H 0.50587 0.81537 0.7745 0.0
Cu2426 Cu 0.50523 0.75795 0.26111 0.0
N2427 N 0.49182 0.75655 0.27618 0.0
N2428 N 0.47242 0.76294 0.28915 0.0
C2429 C 0.4803 0.76562 0.27713 0.0
C2430 C 0.47928 0.75167 0.29607 0.0
C2431 C 0.49123 0.74769 0.288 0.0
O2432 O 0.49244 0.76103 0.24376 0.0
C2433 C 0.52568 0.77176 0.27892 0.0
O2434 O 0.5221 0.76015 0.28665 0.0
H2435 H 0.47801 0.77432 0.26929 0.0
H2436 H 0.49905 0.73916 0.29073 0.0
N2437 N 0.51641 0.74101 0.25882 0.0
N2438 N 0.5348 0.72718 0.25108 0.0
C2439 C 0.52898 0.74075 0.25144 0.0
C2440 C 0.51418 0.72712 0.2634 0.0
C2441 C 0.52559 0.71855 0.25869 0.0
C2442 C 0.49189 0.75248 0.23264 0.0
O2443 O 0.50286 0.74355 0.2305 0.0
H2444 H 0.53371 0.75037 0.24633 0.0
H2445 H 0.50484 0.72342 0.26949 0.0
O2446 O 0.51929 0.77364 0.26637 0.0
H2447 H 0.47592 0.74665 0.30622 0.0
H2448 H 0.52679 0.70683 0.26036 0.0
Cu2449 Cu 0.50308 0.25334 0.25841 0.0
N2450 N 0.49042 0.237 0.25856 0.0
N2451 N 0.47267 0.22264 0.26735 0.0
C2452 C 0.4814 0.23453 0.26971 0.0
C2453 C 0.47634 0.21736 0.25411 0.0
C2454 C 0.48738 0.22623 0.24872 0.0
O2455 O 0.49022 0.27017 0.26089 0.0
C2456 C 0.52484 0.23752 0.27154 0.0
O2457 O 0.52033 0.22917 0.26046 0.0
H2458 H 0.48096 0.24169 0.27919 0.0
H2459 H 0.49268 0.22493 0.23836 0.0
N2460 N 0.51286 0.25626 0.24095 0.0
N2461 N 0.52941 0.26653 0.22639 0.0
C2462 C 0.52466 0.26522 0.24021 0.0
C2463 C 0.50994 0.25167 0.22709 0.0
C2464 C 0.52016 0.25798 0.21807 0.0
C2465 C 0.48007 0.27056 0.25087 0.0
O2466 O 0.47983 0.26052 0.24049 0.0
H2467 H 0.5293 0.27108 0.24966 0.0
H2468 H 0.50083 0.24459 0.22368 0.0
O2469 O 0.51852 0.24981 0.27341 0.0
H2470 H 0.47143 0.2078 0.24872 0.0
H2471 H 0.52065 0.25646 0.2063 0.0
H2472 H 0.20728 0.22847 0.12331 0.0
H2473 H 0.24671 0.23347 0.0462 0.0
H2474 H 0.22214 0.19018 0.10025 0.0
H2475 H 0.22346 0.26936 0.06554 0.0
H2476 H 0.24002 0.2178 0.06684 0.0
H2477 H 0.21559 0.24395 0.10333 0.0
C2478 C 0.21229 0.2233 0.11402 0.0
C2479 C 0.2138 0.20795 0.11337 0.0
C2480 C 0.23638 0.2291 0.06656 0.0
C2481 C 0.22351 0.22572 0.09043 0.0
C2482 C 0.24025 0.23808 0.05481 0.0
C2483 C 0.23565 0.25277 0.05414 0.0
C2484 C 0.22794 0.23489 0.07779 0.0
C2485 C 0.22712 0.25808 0.06552 0.0
C2486 C 0.21706 0.23217 0.10262 0.0
C2487 C 0.22076 0.20195 0.10123 0.0
N2488 N 0.22359 0.24917 0.07688 0.0
N2489 N 0.22529 0.21084 0.09019 0.0
H2490 H 0.82305 0.19527 0.11288 0.0
H2491 H 0.80147 0.27125 0.07334 0.0
H2492 H 0.83319 0.23801 0.13152 0.0
H2493 H 0.79031 0.22852 0.05525 0.0
H2494 H 0.81343 0.25928 0.09455 0.0
H2495 H 0.81112 0.20723 0.09167 0.0
C2496 C 0.8227 0.20717 0.11259 0.0
C2497 C 0.82916 0.21562 0.12407 0.0
C2498 C 0.80837 0.25251 0.08594 0.0
C2499 C 0.81562 0.22943 0.09963 0.0
C2500 C 0.80155 0.25935 0.0738 0.0
C2501 C 0.79486 0.2509 0.06246 0.0
C2502 C 0.80854 0.23708 0.0868 0.0
C2503 C 0.79531 0.2355 0.06371 0.0
C2504 C 0.81595 0.214 0.1004 0.0
C2505 C 0.82855 0.23102 0.12288 0.0
N2506 N 0.80202 0.22911 0.07564 0.0
N2507 N 0.82191 0.2374 0.11091 0.0
H2508 H 0.80694 0.84761 0.08478 0.0
H2509 H 0.78812 0.77503 0.03723 0.0
H2510 H 0.81452 0.80392 0.10165 0.0
H2511 H 0.77647 0.81921 0.02452 0.0
H2512 H 0.80078 0.78502 0.05951 0.0
H2513 H 0.79865 0.83704 0.06132 0.0
C2514 C 0.80683 0.83576 0.08355 0.0
C2515 C 0.81122 0.82665 0.0953 0.0
C2516 C 0.79556 0.79249 0.05174 0.0
C2517 C 0.80177 0.81436 0.06827 0.0
C2518 C 0.78842 0.78681 0.039 0.0
C2519 C 0.78114 0.7963 0.02906 0.0
C2520 C 0.79549 0.80775 0.05442 0.0
C2521 C 0.78179 0.81146 0.03194 0.0
C2522 C 0.80215 0.8297 0.0701 0.0
C2523 C 0.81122 0.81136 0.0929 0.0
N2524 N 0.78875 0.81667 0.04432 0.0
N2525 N 0.80643 0.80567 0.07969 0.0
H2526 H 0.21474 0.84374 0.1067 0.0
H2527 H 0.25231 0.77818 0.06318 0.0
H2528 H 0.21104 0.79819 0.11946 0.0
H2529 H 0.2545 0.8238 0.05025 0.0
H2530 H 0.23708 0.78507 0.08366 0.0
H2531 H 0.22914 0.83643 0.08583 0.0
C2532 C 0.21699 0.83218 0.10514 0.0
C2533 C 0.21177 0.82158 0.11496 0.0
C2534 C 0.2409 0.79356 0.07633 0.0
C2535 C 0.22824 0.81308 0.09091 0.0
C2536 C 0.24957 0.78963 0.06457 0.0
C2537 C 0.25475 0.8004 0.05489 0.0
C2538 C 0.23735 0.80839 0.07848 0.0
C2539 C 0.25097 0.81511 0.05747 0.0
C2540 C 0.22518 0.828 0.09316 0.0
C2541 C 0.21478 0.80673 0.11215 0.0
N2542 N 0.24252 0.81864 0.06897 0.0
N2543 N 0.22288 0.80293 0.10044 0.0
H2544 H 0.22613 0.81298 0.90394 0.0
H2545 H 0.23101 0.77097 0.98137 0.0
H2546 H 0.18727 0.79829 0.92593 0.0
H2547 H 0.26592 0.79737 0.96365 0.0
H2548 H 0.21511 0.77773 0.95995 0.0
H2549 H 0.24122 0.80424 0.92465 0.0
C2550 C 0.22071 0.80803 0.91317 0.0
C2551 C 0.20533 0.80658 0.91319 0.0
C2552 C 0.22627 0.78197 0.96081 0.0
C2553 C 0.22271 0.79619 0.93698 0.0
C2554 C 0.23535 0.77807 0.97297 0.0
C2555 C 0.24977 0.78369 0.97435 0.0
C2556 C 0.23181 0.79134 0.94994 0.0
C2557 C 0.25484 0.79288 0.96316 0.0
C2558 C 0.22938 0.80293 0.92498 0.0
C2559 C 0.19907 0.7996 0.92535 0.0
N2560 N 0.24591 0.79637 0.95148 0.0
N2561 N 0.20778 0.79469 0.93677 0.0
H2562 H 0.21 0.20395 0.92526 0.0
H2563 H 0.27511 0.23989 0.9757 0.0
H2564 H 0.25585 0.19906 0.91565 0.0
H2565 H 0.22879 0.24733 0.98093 0.0
H2566 H 0.26881 0.22299 0.95518 0.0
H2567 H 0.21717 0.21816 0.94706 0.0
C2568 C 0.2216 0.20593 0.92768 0.0
C2569 C 0.23231 0.2004 0.91847 0.0
C2570 C 0.26006 0.22828 0.96091 0.0
C2571 C 0.24069 0.21664 0.9437 0.0
C2572 C 0.26365 0.23785 0.97266 0.0
C2573 C 0.25247 0.24511 0.97997 0.0
C2574 C 0.2452 0.22593 0.95659 0.0
C2575 C 0.2378 0.24212 0.97553 0.0
C2576 C 0.22571 0.21399 0.94023 0.0
C2577 C 0.2472 0.20304 0.92245 0.0
N2578 N 0.23463 0.23284 0.96417 0.0
N2579 N 0.25096 0.21103 0.93472 0.0
H2580 H 0.8536 0.21917 0.92145 0.0
H2581 H 0.78417 0.24383 0.96712 0.0
H2582 H 0.80876 0.21688 0.90437 0.0
H2583 H 0.82893 0.24476 0.98452 0.0
H2584 H 0.79293 0.23424 0.94395 0.0
H2585 H 0.84479 0.22928 0.94439 0.0
C2586 C 0.84191 0.22091 0.92248 0.0
C2587 C 0.8319 0.21714 0.91097 0.0
C2588 C 0.80083 0.23654 0.95285 0.0
C2589 C 0.82171 0.22855 0.9373 0.0
C2590 C 0.79582 0.24194 0.96613 0.0
C2591 C 0.80581 0.24513 0.97783 0.0
C2592 C 0.81596 0.23429 0.95123 0.0
C2593 C 0.82083 0.24266 0.97577 0.0
C2594 C 0.83687 0.22658 0.93562 0.0
C2595 C 0.81685 0.21943 0.91302 0.0
N2596 N 0.82543 0.2374 0.96275 0.0
N2597 N 0.81222 0.22497 0.92592 0.0
H2598 H 0.81342 0.81523 0.88353 0.0
H2599 H 0.76727 0.83056 0.95522 0.0
H2600 H 0.80519 0.85849 0.90081 0.0
H2601 H 0.78118 0.7871 0.94321 0.0
H2602 H 0.78076 0.84073 0.93483 0.0
H2603 H 0.80175 0.80444 0.90499 0.0
C2604 C 0.80929 0.82247 0.89186 0.0
C2605 C 0.81015 0.83782 0.89022 0.0
C2606 C 0.78092 0.82896 0.93664 0.0
C2607 C 0.79663 0.82553 0.91471 0.0
C2608 C 0.77311 0.82313 0.94825 0.0
C2609 C 0.773 0.80793 0.9509 0.0
C2610 C 0.78865 0.81955 0.92746 0.0
C2611 C 0.78104 0.79888 0.94162 0.0
C2612 C 0.80256 0.81629 0.90408 0.0
C2613 C 0.80449 0.84661 0.90137 0.0
N2614 N 0.78846 0.80482 0.93025 0.0
N2615 N 0.79793 0.84036 0.91304 0.0
H2616 H 0.09721 0.20874 0.17182 0.0
H2617 H 0.06602 0.24785 0.24283 0.0
H2618 H 0.11852 0.20672 0.21485 0.0
H2619 H 0.04107 0.24347 0.20181 0.0
H2620 H 0.08565 0.23351 0.23251 0.0
H2621 H 0.07674 0.22187 0.18239 0.0
C2622 C 0.09753 0.211 0.18352 0.0
C2623 C 0.10962 0.20669 0.19246 0.0
C2624 C 0.07587 0.23565 0.22577 0.0
C2625 C 0.08626 0.22181 0.20463 0.0
C2626 C 0.06459 0.24384 0.23167 0.0
C2627 C 0.05173 0.24684 0.22324 0.0
C2628 C 0.0744 0.23047 0.21126 0.0
C2629 C 0.05077 0.24158 0.20871 0.0
C2630 C 0.08584 0.21848 0.18955 0.0
C2631 C 0.10938 0.20975 0.20757 0.0
N2632 N 0.06194 0.23365 0.2032 0.0
N2633 N 0.09795 0.21723 0.21316 0.0
H2634 H 0.79784 0.11733 0.20821 0.0
H2635 H 0.81686 0.04049 0.24721 0.0
H2636 H 0.84142 0.09897 0.21124 0.0
H2637 H 0.77301 0.05819 0.24387 0.0
H2638 H 0.82594 0.0618 0.23387 0.0
H2639 H 0.78833 0.09551 0.22062 0.0
C2640 C 0.80539 0.10866 0.21136 0.0
C2641 C 0.82048 0.11005 0.20873 0.0
C2642 C 0.81432 0.06103 0.23604 0.0
C2643 C 0.80969 0.08511 0.22312 0.0
C2644 C 0.80913 0.04888 0.24377 0.0
C2645 C 0.79412 0.0475 0.24673 0.0
C2646 C 0.80447 0.07195 0.23122 0.0
C2647 C 0.78463 0.05867 0.24172 0.0
C2648 C 0.79997 0.09625 0.21854 0.0
C2649 C 0.82976 0.09852 0.21324 0.0
N2650 N 0.78996 0.07042 0.23425 0.0
N2651 N 0.82423 0.08659 0.22023 0.0
H2652 H 0.89484 0.82846 0.21955 0.0
H2653 H 0.97272 0.789 0.21717 0.0
H2654 H 0.91587 0.81802 0.17902 0.0
H2655 H 0.95814 0.81174 0.25555 0.0
H2656 H 0.95093 0.79765 0.20336 0.0
H2657 H 0.91698 0.82074 0.23325 0.0
C2658 C 0.9041 0.82467 0.21348 0.0
C2659 C 0.90337 0.82395 0.19802 0.0
C2660 C 0.95251 0.8008 0.21479 0.0
C2661 C 0.92874 0.81475 0.21378 0.0
C2662 C 0.96491 0.79579 0.2227 0.0
C2663 C 0.96724 0.79964 0.23754 0.0
C2664 C 0.94223 0.80957 0.22181 0.0
C2665 C 0.95684 0.80863 0.2441 0.0
C2666 C 0.91674 0.82018 0.22135 0.0
C2667 C 0.91572 0.81857 0.1909 0.0
N2668 N 0.94474 0.8132 0.23623 0.0
N2669 N 0.92783 0.81414 0.19882 0.0
H2670 H 0.20661 0.89635 0.21815 0.0
H2671 H 0.18348 0.97156 0.25672 0.0
H2672 H 0.16168 0.91073 0.22075 0.0
H2673 H 0.22848 0.95772 0.25316 0.0
H2674 H 0.17526 0.94911 0.24404 0.0
H2675 H 0.21482 0.91866 0.23112 0.0
C2676 C 0.19846 0.90423 0.22137 0.0
C2677 C 0.18341 0.90162 0.21832 0.0
C2678 C 0.18694 0.95098 0.24604 0.0
C2679 C 0.19276 0.92718 0.23337 0.0
C2680 C 0.19165 0.96379 0.25337 0.0
C2681 C 0.20672 0.96661 0.25603 0.0
C2682 C 0.19736 0.94086 0.24133 0.0
C2683 C 0.21678 0.95616 0.2512 0.0
C2684 C 0.20316 0.91694 0.22887 0.0
C2685 C 0.17337 0.91214 0.22301 0.0
N2686 N 0.21192 0.94377 0.2441 0.0
N2687 N 0.17822 0.92444 0.23028 0.0
H2688 H 0.11562 0.80066 0.79485 0.0
H2689 H 0.03105 0.78476 0.80487 0.0
H2690 H 0.09598 0.80475 0.83711 0.0
H2691 H 0.05535 0.76557 0.76982 0.0
H2692 H 0.05438 0.79197 0.81723 0.0
H2693 H 0.09336 0.788 0.78543 0.0
C2694 C 0.10661 0.79882 0.80215 0.0
C2695 C 0.10757 0.80382 0.81673 0.0
C2696 C 0.05458 0.78595 0.80696 0.0
C2697 C 0.08203 0.78944 0.80604 0.0
C2698 C 0.04127 0.78181 0.79991 0.0
C2699 C 0.0412 0.77467 0.78621 0.0
C2700 C 0.0679 0.78317 0.80013 0.0
C2701 C 0.05481 0.77111 0.78033 0.0
C2702 C 0.09396 0.79152 0.79681 0.0
C2703 C 0.09566 0.80103 0.82579 0.0
N2704 N 0.06758 0.77562 0.78719 0.0
N2705 N 0.08328 0.79421 0.82024 0.0
H2706 H 0.23902 0.10966 0.80337 0.0
H2707 H 0.24923 0.02488 0.81827 0.0
H2708 H 0.23282 0.09113 0.84633 0.0
H2709 H 0.27128 0.04771 0.78359 0.0
H2710 H 0.24321 0.04867 0.82909 0.0
H2711 H 0.25057 0.08678 0.79583 0.0
C2712 C 0.24018 0.10077 0.81123 0.0
C2713 C 0.23491 0.10222 0.82545 0.0
C2714 C 0.2496 0.04844 0.81927 0.0
C2715 C 0.24798 0.07597 0.8169 0.0
C2716 C 0.25307 0.03486 0.81309 0.0
C2717 C 0.26067 0.03426 0.79992 0.0
C2718 C 0.25352 0.06149 0.81207 0.0
C2719 C 0.26537 0.04759 0.79372 0.0
C2720 C 0.24684 0.08776 0.80696 0.0
C2721 C 0.23677 0.09043 0.83527 0.0
N2722 N 0.26149 0.06064 0.79969 0.0
N2723 N 0.24297 0.0777 0.83075 0.0
H2724 H 0.93946 0.20336 0.81745 0.0
H2725 H 0.98539 0.27552 0.79579 0.0
H2726 H 0.92458 0.24758 0.82482 0.0
H2727 H 1.00148 0.2313 0.79127 0.0
H2728 H 0.96321 0.26557 0.80681 0.0
H2729 H 0.96217 0.21341 0.8076 0.0
C2730 C 0.94091 0.21518 0.81691 0.0
C2731 C 0.93009 0.22462 0.82202 0.0
C2732 C 0.97164 0.25805 0.80349 0.0
C2733 C 0.95617 0.23624 0.81089 0.0
C2734 C 0.98435 0.26374 0.79725 0.0
C2735 C 0.99534 0.25425 0.79255 0.0
C2736 C 0.96985 0.24275 0.805 0.0
C2737 C 0.99332 0.23906 0.79469 0.0
C2738 C 0.95394 0.22092 0.81139 0.0
C2739 C 0.93269 0.23987 0.82121 0.0
N2740 N 0.98081 0.2338 0.80067 0.0
N2741 N 0.94543 0.24519 0.81575 0.0
H2742 H 0.82478 0.92759 0.77161 0.0
H2743 H 0.77795 0.99772 0.79312 0.0
H2744 H 0.81579 0.94006 0.81619 0.0
H2745 H 0.79251 0.99046 0.74907 0.0
H2746 H 0.79175 0.97639 0.80146 0.0
H2747 H 0.81313 0.95026 0.76286 0.0
C2748 C 0.82046 0.93512 0.77958 0.0
C2749 C 0.82121 0.93183 0.79469 0.0
C2750 C 0.79203 0.97946 0.78998 0.0
C2751 C 0.80772 0.95772 0.7847 0.0
C2752 C 0.78412 0.99165 0.78518 0.0
C2753 C 0.78402 0.99585 0.77034 0.0
C2754 C 0.79987 0.97122 0.77987 0.0
C2755 C 0.79231 0.98761 0.76061 0.0
C2756 C 0.81377 0.94804 0.77456 0.0
C2757 C 0.81524 0.94195 0.80445 0.0
N2758 N 0.79983 0.97558 0.76552 0.0
N2759 N 0.80872 0.95436 0.79928 0.0
H2760 H 0.20092 0.12114 0.23188 0.0
H2761 H 0.23762 0.04132 0.22914 0.0
H2762 H 0.21047 0.10035 0.19071 0.0
H2763 H 0.21706 0.06029 0.26667 0.0
H2764 H 0.23171 0.06386 0.21502 0.0
H2765 H 0.21117 0.10013 0.24499 0.0
C2766 C 0.2052 0.11212 0.22558 0.0
C2767 C 0.20457 0.11239 0.21017 0.0
C2768 C 0.2286 0.06303 0.22638 0.0
C2769 C 0.21642 0.0881 0.22519 0.0
C2770 C 0.232 0.05023 0.23443 0.0
C2771 C 0.22768 0.04886 0.24905 0.0
C2772 C 0.22109 0.07454 0.23315 0.0
C2773 C 0.22043 0.06072 0.25538 0.0
C2774 C 0.2111 0.1001 0.23308 0.0
C2775 C 0.21068 0.10054 0.20261 0.0
N2776 N 0.21739 0.07297 0.24743 0.0
N2777 N 0.21623 0.08876 0.2102 0.0
H2778 H 0.17824 0.9104 0.81184 0.0
H2779 H 0.24665 0.96103 0.79002 0.0
H2780 H 0.2236 0.89981 0.82215 0.0
H2781 H 0.20201 0.96935 0.77476 0.0
H2782 H 0.23819 0.93888 0.80215 0.0
H2783 H 0.1865 0.9322 0.79857 0.0
C2784 C 0.18993 0.91257 0.81126 0.0
C2785 C 0.20021 0.90319 0.81821 0.0
C2786 C 0.23023 0.94551 0.79611 0.0
C2787 C 0.20975 0.92833 0.80313 0.0
C2788 C 0.23508 0.95821 0.78905 0.0
C2789 C 0.22508 0.96721 0.7812 0.0
C2790 C 0.21523 0.94169 0.79547 0.0
C2791 C 0.21015 0.96293 0.78074 0.0
C2792 C 0.19464 0.92509 0.80373 0.0
C2793 C 0.21522 0.90679 0.81722 0.0
N2794 N 0.20569 0.95051 0.78778 0.0
N2795 N 0.21951 0.91904 0.80987 0.0
H2796 H 0.1264 0.20259 0.83702 0.0
H2797 H 0.08453 0.20857 0.75828 0.0
H2798 H 0.14617 0.19003 0.79646 0.0
H2799 H 0.06834 0.22704 0.79823 0.0
H2800 H 0.10636 0.19995 0.77216 0.0
H2801 H 0.10439 0.21009 0.82305 0.0
C2802 C 0.12619 0.20148 0.82517 0.0
C2803 C 0.1383 0.19574 0.81795 0.0
C2804 C 0.09801 0.20588 0.77787 0.0
C2805 C 0.11284 0.20413 0.80182 0.0
C2806 C 0.0855 0.21073 0.76997 0.0
C2807 C 0.07458 0.21862 0.77706 0.0
C2808 C 0.09958 0.20883 0.79302 0.0
C2809 C 0.07654 0.22121 0.79223 0.0
C2810 C 0.11353 0.2057 0.81719 0.0
C2811 C 0.13711 0.19425 0.80256 0.0
N2812 N 0.08875 0.21633 0.79968 0.0
N2813 N 0.12464 0.19843 0.79502 0.0
H2814 H 0.83354 0.13522 0.78645 0.0
H2815 H 0.77741 0.07032 0.80628 0.0
H2816 H 0.82601 0.12066 0.83075 0.0
H2817 H 0.79084 0.07905 0.76209 0.0
H2818 H 0.79438 0.08957 0.81532 0.0
H2819 H 0.81764 0.11514 0.77713 0.0
C2820 C 0.82869 0.12774 0.79422 0.0
C2821 C 0.83104 0.12976 0.80943 0.0
C2822 C 0.79364 0.08726 0.80364 0.0
C2823 C 0.81261 0.1069 0.79883 0.0
C2824 C 0.78386 0.07633 0.79847 0.0
C2825 C 0.78269 0.07304 0.7834 0.0
C2826 C 0.80225 0.09507 0.79368 0.0
C2827 C 0.7915 0.08108 0.7738 0.0
C2828 C 0.81952 0.11633 0.78889 0.0
C2829 C 0.82429 0.11977 0.81895 0.0
N2830 N 0.80086 0.09175 0.77909 0.0
N2831 N 0.81534 0.10887 0.81351 0.0
H2832 H 0.90333 0.83957 0.77924 0.0
H2833 H 0.97743 0.79374 0.78485 0.0
H2834 H 0.92103 0.82289 0.82055 0.0
H2835 H 0.96784 0.82427 0.74968 0.0
H2836 H 0.95539 0.80187 0.79718 0.0
H2837 H 0.92548 0.83162 0.76731 0.0
C2838 C 0.91188 0.83434 0.78587 0.0
C2839 C 0.91028 0.83209 0.80103 0.0
C2840 C 0.95814 0.80681 0.78679 0.0
C2841 C 0.93562 0.82259 0.78723 0.0
C2842 C 0.97065 0.80213 0.77971 0.0
C2843 C 0.97443 0.80833 0.76621 0.0
C2844 C 0.9492 0.81762 0.7802 0.0
C2845 C 0.96537 0.8193 0.76012 0.0
C2846 C 0.92452 0.82974 0.77899 0.0
C2847 C 0.92163 0.82478 0.80885 0.0
N2848 N 0.9531 0.82352 0.7671 0.0
N2849 N 0.9338 0.82028 0.80185 0.0
H2850 H 0.79796 0.92371 0.18126 0.0
H2851 H 0.77047 0.95306 0.25843 0.0
H2852 H 0.80096 0.89993 0.22222 0.0
H2853 H 0.76786 0.97947 0.21915 0.0
H2854 H 0.77819 0.93222 0.24396 0.0
H2855 H 0.78401 0.943 0.19351 0.0
C2856 C 0.79553 0.92247 0.19276 0.0
C2857 C 0.80081 0.91031 0.2008 0.0
C2858 C 0.7758 0.94247 0.23837 0.0
C2859 C 0.78489 0.93222 0.21482 0.0
C2860 C 0.77132 0.95437 0.24665 0.0
C2861 C 0.76861 0.96799 0.23997 0.0
C2862 C 0.7779 0.94419 0.22324 0.0
C2863 C 0.7698 0.9691 0.22467 0.0
C2864 C 0.78762 0.93349 0.19975 0.0
C2865 C 0.79737 0.90925 0.21567 0.0
N2866 N 0.77461 0.95738 0.21681 0.0
N2867 N 0.78973 0.92006 0.22217 0.0
H2868 H 0.08983 0.81858 0.1853 0.0
H2869 H 0.0478 0.75295 0.2255 0.0
H2870 H 0.10885 0.77568 0.19116 0.0
H2871 H 0.03222 0.79737 0.22103 0.0
H2872 H 0.06825 0.7592 0.20937 0.0
H2873 H 0.06678 0.80924 0.19468 0.0
C2874 C 0.08908 0.80713 0.18849 0.0
C2875 C 0.1013 0.79794 0.18765 0.0
C2876 C 0.06018 0.76747 0.21171 0.0
C2877 C 0.07489 0.7871 0.19862 0.0
C2878 C 0.04846 0.76387 0.22079 0.0
C2879 C 0.0384 0.77471 0.22462 0.0
C2880 C 0.06166 0.78195 0.20643 0.0
C2881 C 0.03982 0.78873 0.21843 0.0
C2882 C 0.0759 0.80176 0.19384 0.0
C2883 C 0.09966 0.78312 0.1917 0.0
N2884 N 0.05125 0.79196 0.20977 0.0
N2885 N 0.08675 0.77818 0.19723 0.0
H2886 H 0.93621 0.17553 0.22109 0.0
H2887 H 0.97395 0.24356 0.26391 0.0
H2888 H 0.9154 0.21764 0.22542 0.0
H2889 H 0.99913 0.20855 0.24532 0.0
H2890 H 0.95141 0.232 0.25387 0.0
H2891 H 0.9585 0.18562 0.23341 0.0
C2892 C 0.93635 0.1869 0.22466 0.0
C2893 C 0.92398 0.19579 0.22221 0.0
C2894 C 0.96186 0.22679 0.2521 0.0
C2895 C 0.94932 0.20732 0.23645 0.0
C2896 C 0.97475 0.2333 0.25795 0.0
C2897 C 0.9885 0.22706 0.25539 0.0
C2898 C 0.96268 0.21385 0.24378 0.0
C2899 C 0.98879 0.21378 0.24751 0.0
C2900 C 0.94906 0.19264 0.23166 0.0
C2901 C 0.92475 0.21046 0.22698 0.0
N2902 N 0.97607 0.20764 0.24194 0.0
N2903 N 0.93718 0.21575 0.23395 0.0
H2904 H 0.20744 0.69986 0.58009 0.0
H2905 H 0.2407 0.76743 0.53498 0.0
H2906 H 0.20484 0.74496 0.59452 0.0
H2907 H 0.24876 0.72167 0.52602 0.0
H2908 H 0.22394 0.75992 0.55435 0.0
H2909 H 0.21918 0.7082 0.55786 0.0
C2910 C 0.20936 0.71153 0.57858 0.0
C2911 C 0.20535 0.7217 0.58929 0.0
C2912 C 0.22926 0.75155 0.548 0.0
C2913 C 0.21872 0.73138 0.56373 0.0
C2914 C 0.23873 0.75583 0.5369 0.0
C2915 C 0.24621 0.74514 0.52902 0.0
C2916 C 0.22724 0.73651 0.55106 0.0
C2917 C 0.24335 0.73027 0.53197 0.0
C2918 C 0.21599 0.7163 0.56584 0.0
C2919 C 0.20775 0.73673 0.58655 0.0
N2920 N 0.23418 0.72641 0.54279 0.0
N2921 N 0.2144 0.74112 0.57409 0.0
H2922 H 0.81837 0.73394 0.62079 0.0
H2923 H 0.77939 0.72492 0.54072 0.0
H2924 H 0.81347 0.69174 0.5994 0.0
H2925 H 0.79043 0.76616 0.56201 0.0
H2926 H 0.78847 0.71189 0.56301 0.0
H2927 H 0.80486 0.74524 0.60031 0.0
C2928 C 0.81446 0.72703 0.61174 0.0
C2929 C 0.81729 0.71191 0.61172 0.0
C2930 C 0.78873 0.72379 0.5628 0.0
C2931 C 0.80164 0.72483 0.58805 0.0
C2932 C 0.78347 0.73121 0.55014 0.0
C2933 C 0.78429 0.74662 0.54949 0.0
C2934 C 0.79466 0.73192 0.57483 0.0
C2935 C 0.78975 0.75426 0.56195 0.0
C2936 C 0.80667 0.73349 0.60003 0.0
C2937 C 0.81157 0.70346 0.59984 0.0
N2938 N 0.79475 0.74686 0.574 0.0
N2939 N 0.80414 0.71006 0.58839 0.0
H2940 H 0.82875 0.2898 0.61994 0.0
H2941 H 0.786 0.29226 0.54175 0.0
H2942 H 0.81233 0.32996 0.60046 0.0
H2943 H 0.81184 0.25535 0.55674 0.0
H2944 H 0.79338 0.3056 0.56421 0.0
H2945 H 0.82051 0.27643 0.59788 0.0
C2946 C 0.82347 0.29585 0.61101 0.0
C2947 C 0.82139 0.31111 0.61206 0.0
C2948 C 0.79744 0.29459 0.56258 0.0
C2949 C 0.81167 0.29571 0.58678 0.0
C2950 C 0.79316 0.28692 0.5498 0.0
C2951 C 0.7983 0.27264 0.54736 0.0
C2952 C 0.80683 0.28788 0.57309 0.0
C2953 C 0.80774 0.26637 0.5581 0.0
C2954 C 0.8187 0.28816 0.59843 0.0
C2955 C 0.81408 0.31821 0.60024 0.0
N2956 N 0.81165 0.27401 0.57051 0.0
N2957 N 0.80951 0.31046 0.58809 0.0
H2958 H 0.21354 0.32013 0.63899 0.0
H2959 H 0.25105 0.34224 0.56346 0.0
H2960 H 0.21437 0.36415 0.62134 0.0
H2961 H 0.24795 0.29752 0.57896 0.0
H2962 H 0.23748 0.35032 0.58465 0.0
H2963 H 0.22544 0.31134 0.61688 0.0
C2964 C 0.21607 0.32792 0.63042 0.0
C2965 C 0.21308 0.34293 0.63213 0.0
C2966 C 0.23972 0.33872 0.58342 0.0
C2967 C 0.22688 0.333 0.60688 0.0
C2968 C 0.24759 0.33412 0.57134 0.0
C2969 C 0.25069 0.31917 0.56938 0.0
C2970 C 0.23496 0.32834 0.59372 0.0
C2971 C 0.24568 0.30913 0.5799 0.0
C2972 C 0.22296 0.32291 0.61784 0.0
C2973 C 0.21672 0.35253 0.62067 0.0
N2974 N 0.23812 0.31389 0.59162 0.0
N2975 N 0.22348 0.34742 0.60863 0.0
H2976 H 0.2026 0.28252 0.42358 0.0
H2977 H 0.22534 0.31358 0.50353 0.0
H2978 H 0.20085 0.32807 0.43659 0.0
H2979 H 0.23901 0.27093 0.48877 0.0
H2980 H 0.21125 0.31676 0.48055 0.0
H2981 H 0.21172 0.27623 0.44854 0.0
C2982 C 0.20406 0.29117 0.43171 0.0
C2983 C 0.20111 0.30587 0.428 0.0
C2984 C 0.21715 0.3066 0.48236 0.0
C2985 C 0.21129 0.29874 0.45647 0.0
C2986 C 0.22511 0.30473 0.49554 0.0
C2987 C 0.23343 0.29203 0.49799 0.0
C2988 C 0.21759 0.29575 0.47143 0.0
C2989 C 0.23268 0.28087 0.48731 0.0
C2990 C 0.20927 0.28757 0.4459 0.0
C2991 C 0.20321 0.31665 0.43891 0.0
N2992 N 0.22507 0.28308 0.47433 0.0
N2993 N 0.20815 0.31286 0.45261 0.0
H2994 H 0.22401 0.71679 0.38958 0.0
H2995 H 0.27103 0.70394 0.46452 0.0
H2996 H 0.23286 0.67392 0.40801 0.0
H2997 H 0.25908 0.74688 0.44822 0.0
H2998 H 0.25801 0.6928 0.44334 0.0
H2999 H 0.23736 0.72803 0.41055 0.0
C3000 C 0.22867 0.70972 0.39806 0.0
C3001 C 0.22725 0.69434 0.39696 0.0
C3002 C 0.25824 0.70467 0.44438 0.0
C3003 C 0.24279 0.7072 0.42099 0.0
C3004 C 0.26578 0.71106 0.45645 0.0
C3005 C 0.26619 0.72641 0.45822 0.0
C3006 C 0.25106 0.71366 0.4339 0.0
C3007 C 0.25893 0.73501 0.44745 0.0
C3008 C 0.23639 0.71616 0.41001 0.0
C3009 C 0.23381 0.68579 0.40821 0.0
N3010 N 0.2517 0.72853 0.43577 0.0
N3011 N 0.24127 0.69232 0.41972 0.0
H3012 H 0.8016 0.70755 0.39946 0.0
H3013 H 0.82846 0.7494 0.47334 0.0
H3014 H 0.84729 0.71176 0.41341 0.0
H3015 H 0.78313 0.74594 0.45797 0.0
H3016 H 0.83579 0.73609 0.45139 0.0
H3017 H 0.7948 0.72174 0.42089 0.0
C3018 C 0.81022 0.71138 0.40708 0.0
C3019 C 0.82505 0.70835 0.40464 0.0
C3020 C 0.82424 0.73826 0.45284 0.0
C3021 C 0.81732 0.72483 0.42924 0.0
C3022 C 0.82005 0.74593 0.46534 0.0
C3023 C 0.80513 0.74872 0.46762 0.0
C3024 C 0.81343 0.73336 0.4425 0.0
C3025 C 0.79472 0.74382 0.45689 0.0
C3026 C 0.80633 0.71958 0.41929 0.0
C3027 C 0.83573 0.71391 0.41477 0.0
N3028 N 0.79907 0.73638 0.44486 0.0
N3029 N 0.83166 0.72183 0.42664 0.0
H3030 H 0.80225 0.34113 0.41997 0.0
H3031 H 0.79402 0.26112 0.45448 0.0
H3032 H 0.81297 0.30096 0.39758 0.0
H3033 H 0.7721 0.2985 0.47266 0.0
H3034 H 0.80164 0.27618 0.43406 0.0
H3035 H 0.79158 0.32646 0.43965 0.0
C3036 C 0.80227 0.32926 0.41909 0.0
C3037 C 0.8087 0.3223 0.40709 0.0
C3038 C 0.7951 0.28115 0.44243 0.0
C3039 C 0.79665 0.30549 0.42971 0.0
C3040 C 0.79077 0.27255 0.45417 0.0
C3041 C 0.78247 0.27857 0.46538 0.0
C3042 C 0.79132 0.29606 0.44184 0.0
C3043 C 0.77848 0.29342 0.46425 0.0
C3044 C 0.79621 0.3209 0.43037 0.0
C3045 C 0.8085 0.30686 0.40671 0.0
N3046 N 0.78308 0.30173 0.45274 0.0
N3047 N 0.80269 0.29903 0.41785 0.0
H3048 H 0.1275 0.71837 0.71376 0.0
H3049 H 0.0534 0.76066 0.69019 0.0
H3050 H 0.11053 0.72172 0.66902 0.0
H3051 H 0.06937 0.7565 0.73518 0.0
H3052 H 0.07461 0.74687 0.68224 0.0
H3053 H 0.10629 0.7322 0.72194 0.0
C3054 C 0.11927 0.7219 0.70567 0.0
C3055 C 0.12087 0.71894 0.69067 0.0
C3056 C 0.07349 0.74899 0.69386 0.0
C3057 C 0.09665 0.73495 0.69993 0.0
C3058 C 0.06141 0.75698 0.6984 0.0
C3059 C 0.05952 0.75973 0.7134 0.0
C3060 C 0.08382 0.74371 0.70438 0.0
C3061 C 0.07023 0.75447 0.72353 0.0
C3062 C 0.10721 0.7299 0.71034 0.0
C3063 C 0.10991 0.72395 0.68067 0.0
N3064 N 0.08189 0.74671 0.71885 0.0
N3065 N 0.09832 0.73171 0.68547 0.0
H3066 H 0.81809 0.59735 0.68422 0.0
H3067 H 0.82342 0.5595 0.76366 0.0
H3068 H 0.83059 0.62054 0.72421 0.0
H3069 H 0.80189 0.53879 0.72596 0.0
H3070 H 0.8279 0.58137 0.74876 0.0
H3071 H 0.81304 0.57534 0.69885 0.0
C3072 C 0.81964 0.59787 0.69606 0.0
C3073 C 0.82493 0.61078 0.70296 0.0
C3074 C 0.8222 0.57203 0.74374 0.0
C3075 C 0.81943 0.5856 0.71972 0.0
C3076 C 0.81976 0.5595 0.75222 0.0
C3077 C 0.81223 0.54732 0.74606 0.0
C3078 C 0.81719 0.57236 0.72895 0.0
C3079 C 0.80757 0.54801 0.7312 0.0
C3080 C 0.81685 0.58528 0.7044 0.0
C3081 C 0.82685 0.61075 0.71836 0.0
N3082 N 0.81013 0.5603 0.72314 0.0
N3083 N 0.8242 0.59836 0.72618 0.0
H3084 H 0.91823 0.31144 0.72218 0.0
H3085 H 0.99756 0.27979 0.70365 0.0
H3086 H 0.93626 0.31198 0.67895 0.0
H3087 H 0.97709 0.27262 0.74523 0.0
H3088 H 0.97605 0.2935 0.69517 0.0
H3089 H 0.94081 0.29967 0.73173 0.0
C3090 C 0.92702 0.30928 0.71475 0.0
C3091 C 0.92532 0.31258 0.69973 0.0
C3092 C 0.97627 0.28893 0.70616 0.0
C3093 C 0.95108 0.29902 0.71051 0.0
C3094 C 0.98856 0.28097 0.71101 0.0
C3095 C 0.98926 0.2749 0.72521 0.0
C3096 C 0.9645 0.29095 0.71556 0.0
C3097 C 0.97722 0.27717 0.73426 0.0
C3098 C 0.93984 0.30245 0.72017 0.0
C3099 C 0.93702 0.30943 0.69057 0.0
N3100 N 0.96537 0.28498 0.72928 0.0
N3101 N 0.94934 0.3028 0.69608 0.0
H3102 H 0.19712 0.44333 0.70754 0.0
H3103 H 0.24684 0.489 0.76612 0.0
H3104 H 0.20585 0.42802 0.75178 0.0
H3105 H 0.24078 0.49968 0.72017 0.0
H3106 H 0.2283 0.46915 0.76292 0.0
H3107 H 0.20933 0.46656 0.71383 0.0
C3108 C 0.20155 0.44494 0.71864 0.0
C3109 C 0.2007 0.4337 0.7291 0.0
C3110 C 0.23088 0.47603 0.75363 0.0
C3111 C 0.21489 0.46026 0.7364 0.0
C3112 C 0.24136 0.48738 0.75548 0.0
C3113 C 0.2454 0.49583 0.74334 0.0
C3114 C 0.2244 0.47333 0.7396 0.0
C3115 C 0.2381 0.49327 0.72976 0.0
C3116 C 0.20851 0.45822 0.72225 0.0
C3117 C 0.20637 0.43644 0.7434 0.0
N3118 N 0.22806 0.48223 0.72825 0.0
N3119 N 0.21344 0.44939 0.7466 0.0
H3120 H 0.10336 0.31 0.34481 0.0
H3121 H 0.05991 0.26769 0.27941 0.0
H3122 H 0.12034 0.30561 0.30135 0.0
H3123 H 0.03827 0.28571 0.3168 0.0
H3124 H 0.08329 0.2779 0.28903 0.0
H3125 H 0.08047 0.2979 0.3362 0.0
C3126 C 0.10226 0.30645 0.33345 0.0
C3127 C 0.11375 0.30882 0.32376 0.0
C3128 C 0.07343 0.27953 0.29517 0.0
C3129 C 0.08764 0.29487 0.31388 0.0
C3130 C 0.06009 0.27359 0.28976 0.0
C3131 C 0.04706 0.27589 0.29729 0.0
C3132 C 0.07383 0.28767 0.30829 0.0
C3133 C 0.04801 0.28371 0.3106 0.0
C3134 C 0.08919 0.2996 0.32855 0.0
C3135 C 0.1117 0.30411 0.30914 0.0
N3136 N 0.06115 0.28934 0.31567 0.0
N3137 N 0.09893 0.29728 0.30466 0.0
H3138 H 0.20026 0.59147 0.32476 0.0
H3139 H 0.23362 0.54379 0.26011 0.0
H3140 H 0.19842 0.60578 0.27957 0.0
H3141 H 0.23208 0.53036 0.30547 0.0
H3142 H 0.21839 0.56519 0.26586 0.0
H3143 H 0.20984 0.56792 0.31697 0.0
C3144 C 0.20187 0.58962 0.31316 0.0
C3145 C 0.19871 0.60068 0.30283 0.0
C3146 C 0.22118 0.5574 0.27447 0.0
C3147 C 0.20977 0.57358 0.29372 0.0
C3148 C 0.22976 0.54513 0.27116 0.0
C3149 C 0.23418 0.53536 0.28237 0.0
C3150 C 0.21705 0.5598 0.28906 0.0
C3151 C 0.22904 0.53769 0.29653 0.0
C3152 C 0.20729 0.57612 0.30868 0.0
C3153 C 0.20074 0.59755 0.2879 0.0
N3154 N 0.2209 0.54969 0.29947 0.0
N3155 N 0.20632 0.58435 0.28379 0.0
H3156 H 0.92171 0.68493 0.29979 0.0
H3157 H 0.95804 0.76008 0.27204 0.0
H3158 H 0.90372 0.72821 0.30524 0.0
H3159 H 0.98055 0.71872 0.26962 0.0
H3160 H 0.93629 0.74731 0.28044 0.0
H3161 H 0.9417 0.69583 0.28559 0.0
C3162 C 0.9219 0.69668 0.29788 0.0
C3163 C 0.91117 0.70572 0.30387 0.0
C3164 C 0.94588 0.7409 0.27797 0.0
C3165 C 0.93383 0.71819 0.28764 0.0
C3166 C 0.95829 0.74821 0.2731 0.0
C3167 C 0.9711 0.74044 0.27024 0.0
C3168 C 0.94625 0.72565 0.28029 0.0
C3169 C 0.97083 0.72508 0.27169 0.0
C3170 C 0.9333 0.70289 0.28982 0.0
C3171 C 0.9119 0.72086 0.30108 0.0
N3172 N 0.95863 0.71815 0.27685 0.0
N3173 N 0.92302 0.72658 0.29324 0.0
H3174 H 0.84626 0.43434 0.31705 0.0
H3175 H 0.77773 0.46814 0.27163 0.0
H3176 H 0.80365 0.41307 0.31352 0.0
H3177 H 0.82082 0.48847 0.27484 0.0
H3178 H 0.78639 0.44871 0.28821 0.0
H3179 H 0.83644 0.45519 0.30317 0.0
C3180 C 0.83478 0.43412 0.31343 0.0
C3181 C 0.82579 0.42189 0.3163 0.0
C3182 C 0.79393 0.45745 0.28532 0.0
C3183 C 0.81445 0.44574 0.30032 0.0
C3184 C 0.78899 0.46858 0.27587 0.0
C3185 C 0.79856 0.47998 0.27177 0.0
C3186 C 0.80858 0.45768 0.29074 0.0
C3187 C 0.8131 0.47983 0.27749 0.0
C3188 C 0.82918 0.44604 0.3055 0.0
C3189 C 0.81095 0.4223 0.31157 0.0
N3190 N 0.81764 0.46887 0.28666 0.0
N3191 N 0.80577 0.43398 0.30368 0.0
H3192 H 0.22087 0.61381 0.66174 0.0
H3193 H 0.25536 0.57597 0.73437 0.0
H3194 H 0.2188 0.6332 0.70491 0.0
H3195 H 0.25787 0.55773 0.69074 0.0
H3196 H 0.24094 0.59635 0.72419 0.0
H3197 H 0.23331 0.5926 0.67255 0.0
C3198 C 0.22304 0.61361 0.67352 0.0
C3199 C 0.21892 0.62542 0.6824 0.0
C3200 C 0.24462 0.58787 0.71686 0.0
C3201 C 0.23317 0.60099 0.69492 0.0
C3202 C 0.25281 0.57616 0.72267 0.0
C3203 C 0.25791 0.56507 0.71341 0.0
C3204 C 0.24145 0.58851 0.70165 0.0
C3205 C 0.2544 0.56609 0.6983 0.0
C3206 C 0.23011 0.60144 0.6797 0.0
C3207 C 0.22173 0.62435 0.69764 0.0
N3208 N 0.24642 0.57757 0.69292 0.0
N3209 N 0.22877 0.61241 0.70341 0.0
H3210 H 0.21383 0.39264 0.31032 0.0
H3211 H 0.2547 0.46957 0.32808 0.0
H3212 H 0.22024 0.41093 0.35387 0.0
H3213 H 0.24751 0.45301 0.28393 0.0
H3214 H 0.2419 0.44809 0.33748 0.0
H3215 H 0.22549 0.41471 0.30018 0.0
C3216 C 0.21757 0.40132 0.31775 0.0
C3217 C 0.21616 0.39982 0.33301 0.0
C3218 C 0.24309 0.44912 0.32572 0.0
C3219 C 0.22963 0.42506 0.32147 0.0
C3220 C 0.25053 0.46139 0.32033 0.0
C3221 C 0.25231 0.46315 0.30516 0.0
C3222 C 0.23736 0.43839 0.31592 0.0
C3223 C 0.24632 0.45222 0.29569 0.0
C3224 C 0.22431 0.41388 0.31195 0.0
C3225 C 0.22134 0.41141 0.34208 0.0
N3226 N 0.23917 0.44031 0.30122 0.0
N3227 N 0.22785 0.42346 0.33619 0.0
H3228 H 0.12194 0.70513 0.29242 0.0
H3229 H 0.04894 0.74739 0.31467 0.0
H3230 H 0.10998 0.71327 0.33717 0.0
H3231 H 0.0618 0.74197 0.26977 0.0
H3232 H 0.07088 0.73422 0.32296 0.0
H3233 H 0.09943 0.71747 0.28376 0.0
C3234 C 0.11454 0.7094 0.30043 0.0
C3235 C 0.11794 0.70823 0.31555 0.0
C3236 C 0.06891 0.7359 0.31129 0.0
C3237 C 0.0922 0.72249 0.30572 0.0
C3238 C 0.05638 0.74353 0.30653 0.0
C3239 C 0.05343 0.74589 0.29146 0.0
C3240 C 0.07866 0.73051 0.30094 0.0
C3241 C 0.06346 0.74032 0.28147 0.0
C3242 C 0.10174 0.71654 0.29547 0.0
C3243 C 0.10798 0.71412 0.32541 0.0
N3244 N 0.07561 0.73292 0.28638 0.0
N3245 N 0.09561 0.72099 0.32033 0.0
H3246 H 0.80729 0.60375 0.32624 0.0
H3247 H 0.77218 0.57276 0.25048 0.0
H3248 H 0.80814 0.62603 0.28445 0.0
H3249 H 0.7744 0.54668 0.28998 0.0
H3250 H 0.78094 0.59411 0.26448 0.0
H3251 H 0.7916 0.58438 0.3148 0.0
C3252 C 0.80404 0.60464 0.31471 0.0
C3253 C 0.8092 0.61638 0.30621 0.0
C3254 C 0.77933 0.58382 0.27023 0.0
C3255 C 0.79126 0.59442 0.29313 0.0
C3256 C 0.77422 0.57166 0.26223 0.0
C3257 C 0.77259 0.558 0.26911 0.0
C3258 C 0.7832 0.5823 0.28522 0.0
C3259 C 0.77542 0.5571 0.28433 0.0
C3260 C 0.79513 0.59358 0.3082 0.0
C3261 C 0.80467 0.61702 0.29134 0.0
N3262 N 0.78085 0.56906 0.29188 0.0
N3263 N 0.79605 0.60619 0.2853 0.0
H3264 H 0.92233 0.31089 0.3403 0.0
H3265 H 0.96542 0.31388 0.26505 0.0
H3266 H 0.90394 0.32878 0.29983 0.0
H3267 H 0.97887 0.28651 0.30168 0.0
H3268 H 0.94381 0.32124 0.27848 0.0
H3269 H 0.94389 0.30304 0.327 0.0
C3270 C 0.92274 0.31308 0.32862 0.0
C3271 C 0.91131 0.32064 0.32124 0.0
C3272 C 0.95148 0.31361 0.28358 0.0
C3273 C 0.93609 0.31192 0.30602 0.0
C3274 C 0.96388 0.3095 0.27595 0.0
C3275 C 0.97393 0.29953 0.28222 0.0
C3276 C 0.9492 0.30783 0.29766 0.0
C3277 C 0.97129 0.29407 0.29635 0.0
C3278 C 0.9351 0.30867 0.32105 0.0
C3279 C 0.91259 0.3233 0.3061 0.0
N3280 N 0.95922 0.29832 0.3036 0.0
N3281 N 0.92476 0.31903 0.29904 0.0
H3282 H 0.80598 0.39879 0.70596 0.0
H3283 H 0.82145 0.47793 0.74216 0.0
H3284 H 0.84881 0.41929 0.71163 0.0
H3285 H 0.77759 0.45982 0.73687 0.0
H3286 H 0.83094 0.45721 0.7287 0.0
H3287 H 0.79478 0.42133 0.71523 0.0
C3288 C 0.81303 0.40804 0.70905 0.0
C3289 C 0.82841 0.40704 0.70817 0.0
C3290 C 0.81921 0.45773 0.7303 0.0
C3291 C 0.81565 0.43284 0.71877 0.0
C3292 C 0.81377 0.46962 0.73797 0.0
C3293 C 0.79872 0.47056 0.74069 0.0
C3294 C 0.80961 0.44642 0.72542 0.0
C3295 C 0.78927 0.45952 0.73493 0.0
C3296 C 0.80662 0.42088 0.71437 0.0
C3297 C 0.83696 0.41937 0.7124 0.0
N3298 N 0.7949 0.44776 0.72772 0.0
N3299 N 0.83049 0.43166 0.71752 0.0
H3300 H 0.10637 0.34612 0.72626 0.0
H3301 H 0.0716 0.27563 0.76513 0.0
H3302 H 0.12764 0.30397 0.72839 0.0
H3303 H 0.04517 0.31135 0.74813 0.0
H3304 H 0.09357 0.28803 0.75629 0.0
H3305 H 0.0851 0.33538 0.73837 0.0
C3306 C 0.10658 0.33462 0.72936 0.0
C3307 C 0.11875 0.3259 0.72628 0.0
C3308 C 0.08298 0.29322 0.75463 0.0
C3309 C 0.09455 0.31361 0.74024 0.0
C3310 C 0.07042 0.28622 0.7598 0.0
C3311 C 0.05646 0.29241 0.75729 0.0
C3312 C 0.08163 0.3066 0.74706 0.0
C3313 C 0.05568 0.30614 0.75024 0.0
C3314 C 0.09444 0.32851 0.73622 0.0
C3315 C 0.11842 0.31104 0.73043 0.0
N3316 N 0.06808 0.31274 0.74532 0.0
N3317 N 0.10654 0.30538 0.73725 0.0
H3318 H 0.92642 0.71407 0.68767 0.0
H3319 H 0.96817 0.73677 0.76362 0.0
H3320 H 0.90961 0.70478 0.7305 0.0
H3321 H 0.98632 0.74387 0.72093 0.0
H3322 H 0.94653 0.72514 0.75165 0.0
H3323 H 0.9481 0.72584 0.69958 0.0
C3324 C 0.92722 0.71463 0.69956 0.0
C3325 C 0.91625 0.70833 0.7081 0.0
C3326 C 0.95529 0.72919 0.74491 0.0
C3327 C 0.94106 0.72161 0.72181 0.0
C3328 C 0.96768 0.73577 0.75175 0.0
C3329 C 0.9791 0.74132 0.74329 0.0
C3330 C 0.95426 0.72818 0.72948 0.0
C3331 C 0.9778 0.73976 0.72792 0.0
C3332 C 0.93965 0.72124 0.70637 0.0
C3333 C 0.91792 0.70928 0.72348 0.0
N3334 N 0.9656 0.7334 0.72152 0.0
N3335 N 0.93008 0.71574 0.72983 0.0
H3336 H 0.70448 0.23721 0.60304 0.0
H3337 H 0.72464 0.22384 0.51937 0.0
H3338 H 0.69638 0.19708 0.57874 0.0
H3339 H 0.73798 0.26291 0.54327 0.0
H3340 H 0.70902 0.21674 0.53949 0.0
H3341 H 0.712 0.24926 0.58019 0.0
C3342 C 0.70399 0.23105 0.59283 0.0
C3343 C 0.69997 0.2161 0.59275 0.0
C3344 C 0.71509 0.22703 0.5403 0.0
C3345 C 0.70852 0.22971 0.5667 0.0
C3346 C 0.72389 0.23115 0.52872 0.0
C3347 C 0.73248 0.244 0.52967 0.0
C3348 C 0.71516 0.23563 0.55314 0.0
C3349 C 0.73133 0.253 0.54209 0.0
C3350 C 0.70834 0.23789 0.57983 0.0
C3351 C 0.69958 0.20857 0.57929 0.0
N3352 N 0.72304 0.24851 0.55352 0.0
N3353 N 0.70391 0.21541 0.56688 0.0
H3354 H 0.31487 0.20216 0.60942 0.0
H3355 H 0.30132 0.28038 0.57234 0.0
H3356 H 0.32706 0.24374 0.62952 0.0
H3357 H 0.27948 0.2412 0.55547 0.0
H3358 H 0.31114 0.26645 0.593 0.0
H3359 H 0.302 0.21547 0.58943 0.0
C3360 C 0.31476 0.21406 0.6097 0.0
C3361 C 0.32224 0.22184 0.6211 0.0
C3362 C 0.30416 0.26082 0.58488 0.0
C3363 C 0.30766 0.23707 0.59824 0.0
C3364 C 0.29857 0.26878 0.57298 0.0
C3365 C 0.28965 0.26191 0.56207 0.0
C3366 C 0.30101 0.24574 0.58593 0.0
C3367 C 0.28633 0.24689 0.56365 0.0
C3368 C 0.30744 0.22163 0.59827 0.0
C3369 C 0.32179 0.23725 0.62082 0.0
N3370 N 0.29215 0.23922 0.57532 0.0
N3371 N 0.31472 0.24432 0.60957 0.0
H3372 H 0.30214 0.8238 0.6186 0.0
H3373 H 0.33136 0.78567 0.54575 0.0
H3374 H 0.34764 0.82375 0.60654 0.0
H3375 H 0.28548 0.78624 0.55644 0.0
H3376 H 0.33731 0.79977 0.56797 0.0
H3377 H 0.29556 0.81062 0.59575 0.0
C3378 C 0.31074 0.82114 0.61111 0.0
C3379 C 0.3255 0.82483 0.6146 0.0
C3380 C 0.32592 0.79684 0.56548 0.0
C3381 C 0.31805 0.80958 0.58847 0.0
C3382 C 0.32252 0.78867 0.55279 0.0
C3383 C 0.30788 0.78465 0.54917 0.0
C3384 C 0.31465 0.80107 0.57474 0.0
C3385 C 0.2969 0.78916 0.55868 0.0
C3386 C 0.30698 0.81352 0.59811 0.0
C3387 C 0.33616 0.82092 0.60451 0.0
N3388 N 0.30051 0.79708 0.57102 0.0
N3389 N 0.33223 0.81351 0.59198 0.0
H3390 H 0.73732 0.84444 0.6142 0.0
H3391 H 0.73144 0.79363 0.54254 0.0
H3392 H 0.6964 0.825 0.59789 0.0
H3393 H 0.76889 0.82163 0.55311 0.0
H3394 H 0.71885 0.80374 0.56357 0.0
H3395 H 0.74946 0.835 0.59271 0.0
C3396 C 0.73082 0.83829 0.60607 0.0
C3397 C 0.71573 0.83563 0.6079 0.0
C3398 C 0.7298 0.80772 0.56126 0.0
C3399 C 0.72974 0.82449 0.58329 0.0
C3400 C 0.73702 0.8019 0.5493 0.0
C3401 C 0.75126 0.80676 0.54607 0.0
C3402 C 0.73691 0.81839 0.5702 0.0
C3403 C 0.75788 0.81766 0.5551 0.0
C3404 C 0.73781 0.83284 0.59381 0.0
C3405 C 0.70806 0.82722 0.5971 0.0
N3406 N 0.75069 0.82303 0.5668 0.0
N3407 N 0.71515 0.82194 0.58529 0.0
H3408 H 0.67925 0.79039 0.42603 0.0
H3409 H 0.76065 0.77277 0.45672 0.0
H3410 H 0.71865 0.79443 0.40121 0.0
H3411 H 0.72296 0.76967 0.48404 0.0
H3412 H 0.74441 0.77702 0.4354 0.0
H3413 H 0.69394 0.77962 0.44648 0.0
C3414 C 0.69094 0.78884 0.42482 0.0
C3415 C 0.69778 0.7935 0.41197 0.0
C3416 C 0.73957 0.77525 0.44597 0.0
C3417 C 0.71459 0.78121 0.43523 0.0
C3418 C 0.74887 0.77275 0.45815 0.0
C3419 C 0.74312 0.77093 0.47213 0.0
C3420 C 0.72432 0.77624 0.44774 0.0
C3421 C 0.72778 0.77096 0.47339 0.0
C3422 C 0.69931 0.78275 0.43649 0.0
C3423 C 0.71296 0.79127 0.411 0.0
N3424 N 0.71888 0.77383 0.46136 0.0
N3425 N 0.72081 0.78539 0.42245 0.0
H3426 H 0.71035 0.21226 0.38848 0.0
H3427 H 0.75113 0.19413 0.46575 0.0
H3428 H 0.71661 0.16823 0.40506 0.0
H3429 H 0.74623 0.23805 0.44843 0.0
H3430 H 0.73845 0.18444 0.44366 0.0
H3431 H 0.72306 0.22195 0.41059 0.0
C3432 C 0.71432 0.20463 0.3968 0.0
C3433 C 0.71241 0.1894 0.39487 0.0
C3434 C 0.74015 0.1962 0.4447 0.0
C3435 C 0.72712 0.20042 0.42019 0.0
C3436 C 0.74748 0.20175 0.4573 0.0
C3437 C 0.74976 0.21696 0.45903 0.0
C3438 C 0.73504 0.20592 0.43371 0.0
C3439 C 0.74456 0.22628 0.44773 0.0
C3440 C 0.72166 0.21017 0.40939 0.0
C3441 C 0.71799 0.18004 0.40596 0.0
N3442 N 0.73746 0.22062 0.43558 0.0
N3443 N 0.72507 0.1857 0.41813 0.0
H3444 H 0.33934 0.22408 0.42955 0.0
H3445 H 0.27606 0.26391 0.47357 0.0
H3446 H 0.29298 0.22006 0.41826 0.0
H3447 H 0.32231 0.26904 0.48477 0.0
H3448 H 0.28222 0.24831 0.45291 0.0
H3449 H 0.33353 0.24104 0.44937 0.0
C3450 C 0.32794 0.22681 0.43116 0.0
C3451 C 0.31663 0.22055 0.4222 0.0
C3452 C 0.29105 0.25287 0.45984 0.0
C3453 C 0.30989 0.23992 0.44501 0.0
C3454 C 0.28752 0.26174 0.47171 0.0
C3455 C 0.29867 0.26773 0.48104 0.0
C3456 C 0.30585 0.24985 0.45722 0.0
C3457 C 0.31336 0.26475 0.47785 0.0
C3458 C 0.32463 0.23646 0.44254 0.0
C3459 C 0.30206 0.22439 0.425 0.0
N3460 N 0.31652 0.25596 0.46627 0.0
N3461 N 0.29913 0.23379 0.43613 0.0
H3462 H 0.32772 0.8358 0.41653 0.0
H3463 H 0.26695 0.79606 0.46444 0.0
H3464 H 0.28214 0.83267 0.40212 0.0
H3465 H 0.31259 0.802 0.47782 0.0
H3466 H 0.27108 0.81182 0.44294 0.0
H3467 H 0.32134 0.82575 0.44029 0.0
C3468 C 0.31632 0.83303 0.41843 0.0
C3469 C 0.30547 0.83488 0.40732 0.0
C3470 C 0.28011 0.80983 0.45072 0.0
C3471 C 0.298 0.82322 0.43455 0.0
C3472 C 0.27773 0.80092 0.46302 0.0
C3473 C 0.2895 0.7976 0.47281 0.0
C3474 C 0.29431 0.81543 0.44832 0.0
C3475 C 0.30326 0.8041 0.47044 0.0
C3476 C 0.31265 0.82732 0.43203 0.0
C3477 C 0.29082 0.83135 0.41043 0.0
N3478 N 0.3053 0.81256 0.45841 0.0
N3479 N 0.28752 0.82549 0.42372 0.0
H3480 H 0.61885 0.18182 0.70666 0.0
H3481 H 0.5717 0.24264 0.74731 0.0
H3482 H 0.62606 0.22858 0.70228 0.0
H3483 H 0.56405 0.19598 0.75185 0.0
H3484 H 0.59184 0.23759 0.73113 0.0
H3485 H 0.5991 0.18668 0.72351 0.0
C3486 C 0.61635 0.19312 0.70929 0.0
C3487 C 0.62421 0.20481 0.70302 0.0
C3488 C 0.58578 0.22843 0.73565 0.0
C3489 C 0.60142 0.21045 0.72227 0.0
C3490 C 0.57419 0.23131 0.74485 0.0
C3491 C 0.56601 0.21972 0.75087 0.0
C3492 C 0.58933 0.21383 0.73236 0.0
C3493 C 0.57006 0.20526 0.74754 0.0
C3494 C 0.605 0.19588 0.71888 0.0
C3495 C 0.62024 0.21922 0.70668 0.0
N3496 N 0.58138 0.20273 0.73846 0.0
N3497 N 0.60916 0.22161 0.71605 0.0
H3498 H 0.3101 0.10661 0.68091 0.0
H3499 H 0.28236 0.06182 0.7507 0.0
H3500 H 0.31921 0.12062 0.72563 0.0
H3501 H 0.27042 0.05068 0.70573 0.0
H3502 H 0.29693 0.0826 0.74196 0.0
H3503 H 0.29688 0.08521 0.69001 0.0
C3504 C 0.30933 0.10518 0.69268 0.0
C3505 C 0.31564 0.11557 0.70251 0.0
C3506 C 0.29112 0.07561 0.734 0.0
C3507 C 0.30049 0.0909 0.71307 0.0
C3508 C 0.28283 0.06369 0.73898 0.0
C3509 C 0.27514 0.05441 0.72895 0.0
C3510 C 0.29183 0.07829 0.71885 0.0
C3511 C 0.276 0.05758 0.7139 0.0
C3512 C 0.30179 0.09291 0.69787 0.0
C3513 C 0.31457 0.1129 0.71765 0.0
N3514 N 0.28421 0.0692 0.70932 0.0
N3515 N 0.30704 0.10088 0.72246 0.0
H3516 H 0.41789 0.80094 0.70904 0.0
H3517 H 0.49094 0.82545 0.75486 0.0
H3518 H 0.42991 0.84627 0.71756 0.0
H3519 H 0.47675 0.78034 0.74888 0.0
H3520 H 0.46878 0.83343 0.74121 0.0
H3521 H 0.43984 0.79326 0.72309 0.0
C3522 C 0.42521 0.80928 0.71377 0.0
C3523 C 0.42204 0.82427 0.71211 0.0
C3524 C 0.47052 0.82178 0.7429 0.0
C3525 C 0.44715 0.81555 0.72839 0.0
C3526 C 0.48314 0.81723 0.75078 0.0
C3527 C 0.48582 0.80219 0.75293 0.0
C3528 C 0.4605 0.81122 0.73714 0.0
C3529 C 0.47535 0.79203 0.74725 0.0
C3530 C 0.43769 0.80489 0.7219 0.0
C3531 C 0.43182 0.83459 0.71869 0.0
N3532 N 0.4632 0.79672 0.7396 0.0
N3533 N 0.44393 0.83004 0.72653 0.0
H3534 H 0.69858 0.91372 0.72949 0.0
H3535 H 0.70508 1.0006 0.71927 0.0
H3536 H 0.68952 0.93486 0.68781 0.0
H3537 H 0.73252 0.97711 0.75064 0.0
H3538 H 0.69524 0.97702 0.70988 0.0
H3539 H 0.70726 0.93741 0.73968 0.0
C3540 C 0.69835 0.92338 0.72253 0.0
C3541 C 0.69338 0.92237 0.70779 0.0
C3542 C 0.70337 0.97706 0.71886 0.0
C3543 C 0.70308 0.94943 0.71938 0.0
C3544 C 0.70888 0.99047 0.72429 0.0
C3545 C 0.71961 0.99076 0.73573 0.0
C3546 C 0.70842 0.96385 0.72512 0.0
C3547 C 0.72433 0.97732 0.74174 0.0
C3548 C 0.70335 0.93684 0.72831 0.0
C3549 C 0.69338 0.93518 0.6992 0.0
N3550 N 0.71865 0.9644 0.73642 0.0
N3551 N 0.69806 0.94821 0.70514 0.0
H3552 H 0.60798 0.81989 0.29176 0.0
H3553 H 0.5337 0.77586 0.30752 0.0
H3554 H 0.59301 0.80962 0.33513 0.0
H3555 H 0.5448 0.78976 0.26393 0.0
H3556 H 0.55502 0.78922 0.3176 0.0
H3557 H 0.58485 0.80987 0.28118 0.0
C3558 C 0.59981 0.81564 0.29909 0.0
C3559 C 0.60254 0.81554 0.3144 0.0
C3560 C 0.5528 0.78951 0.30584 0.0
C3561 C 0.57606 0.80394 0.30229 0.0
C3562 C 0.54059 0.78186 0.30006 0.0
C3563 C 0.53751 0.78162 0.28485 0.0
C3564 C 0.56223 0.79689 0.29636 0.0
C3565 C 0.54677 0.7897 0.27573 0.0
C3566 C 0.58661 0.80988 0.29301 0.0
C3567 C 0.59158 0.8097 0.32327 0.0
N3568 N 0.55884 0.79689 0.28162 0.0
N3569 N 0.5789 0.80412 0.3171 0.0
H3570 H 0.68845 0.10703 0.27223 0.0
H3571 H 0.72698 0.03283 0.29949 0.0
H3572 H 0.69025 0.09141 0.31699 0.0
H3573 H 0.7253 0.04551 0.25384 0.0
H3574 H 0.71086 0.05305 0.30513 0.0
H3575 H 0.69941 0.08378 0.26434 0.0
C3576 C 0.69097 0.09865 0.28036 0.0
C3577 C 0.68864 0.10125 0.29533 0.0
C3578 C 0.71382 0.05142 0.29382 0.0
C3579 C 0.70113 0.07472 0.28642 0.0
C3580 C 0.72302 0.03982 0.29059 0.0
C3581 C 0.72752 0.03755 0.2762 0.0
C3582 C 0.70923 0.06113 0.28262 0.0
C3583 C 0.722 0.04688 0.26508 0.0
C3584 C 0.69726 0.08542 0.27586 0.0
C3585 C 0.69213 0.09003 0.30538 0.0
N3586 N 0.7133 0.05845 0.26856 0.0
N3587 N 0.69825 0.07737 0.30077 0.0
H3588 H 0.3903 0.19346 0.30211 0.0
H3589 H 0.47248 0.22481 0.29702 0.0
H3590 H 0.41742 0.20645 0.33986 0.0
H3591 H 0.44706 0.20856 0.25944 0.0
H3592 H 0.45251 0.21774 0.31286 0.0
H3593 H 0.41097 0.19846 0.28633 0.0
C3594 C 0.40063 0.19726 0.30712 0.0
C3595 C 0.40208 0.19954 0.32238 0.0
C3596 C 0.45129 0.21565 0.30117 0.0
C3597 C 0.42578 0.20548 0.30429 0.0
C3598 C 0.46268 0.21975 0.2921 0.0
C3599 C 0.46139 0.2174 0.27685 0.0
C3600 C 0.43841 0.2092 0.29498 0.0
C3601 C 0.44855 0.21051 0.27113 0.0
C3602 C 0.41241 0.20018 0.29807 0.0
C3603 C 0.41568 0.20473 0.32816 0.0
N3604 N 0.4375 0.20675 0.28019 0.0
N3605 N 0.42697 0.20754 0.31912 0.0
H3606 H 0.31809 0.92869 0.32466 0.0
H3607 H 0.27468 0.97378 0.26145 0.0
H3608 H 0.31234 0.91219 0.28038 0.0
H3609 H 0.27615 0.98453 0.30763 0.0
H3610 H 0.29203 0.95355 0.26661 0.0
H3611 H 0.3065 0.95158 0.31704 0.0
C3612 C 0.31442 0.92994 0.31328 0.0
C3613 C 0.31596 0.91844 0.3032 0.0
C3614 C 0.28869 0.96051 0.27554 0.0
C3615 C 0.30251 0.94471 0.29432 0.0
C3616 C 0.27891 0.97209 0.27258 0.0
C3617 C 0.27394 0.98074 0.28416 0.0
C3618 C 0.29357 0.95778 0.29013 0.0
C3619 C 0.2796 0.97803 0.2984 0.0
C3620 C 0.30782 0.94304 0.3089 0.0
C3621 C 0.3113 0.92079 0.28851 0.0
N3622 N 0.28901 0.9668 0.30098 0.0
N3623 N 0.30459 0.93361 0.28453 0.0
H3624 H 0.7184 0.10735 0.66336 0.0
H3625 H 0.76977 0.0682 0.72448 0.0
H3626 H 0.73268 0.12746 0.70439 0.0
H3627 H 0.74204 0.04385 0.69338 0.0
H3628 H 0.76176 0.09105 0.71285 0.0
H3629 H 0.73216 0.08511 0.67033 0.0
C3630 C 0.72463 0.10714 0.67372 0.0
C3631 C 0.72433 0.11915 0.6834 0.0
C3632 C 0.75761 0.08069 0.70844 0.0
C3633 C 0.74012 0.09397 0.69133 0.0
C3634 C 0.76225 0.0676 0.715 0.0
C3635 C 0.75639 0.05404 0.71006 0.0
C3636 C 0.74713 0.08027 0.69676 0.0
C3637 C 0.74672 0.05404 0.69767 0.0
C3638 C 0.7324 0.09448 0.6777 0.0
C3639 C 0.73251 0.11835 0.69671 0.0
N3640 N 0.74226 0.06697 0.69154 0.0
N3641 N 0.74004 0.10597 0.7003 0.0
H3642 H 0.71414 0.90966 0.35233 0.0
H3643 H 0.73675 0.95399 0.28033 0.0
H3644 H 0.70405 0.89463 0.30809 0.0
H3645 H 0.74516 0.96991 0.32455 0.0
H3646 H 0.72476 0.93222 0.29027 0.0
H3647 H 0.72571 0.93169 0.34236 0.0
C3648 C 0.7144 0.91095 0.34051 0.0
C3649 C 0.70814 0.90022 0.33105 0.0
C3650 C 0.72921 0.94049 0.2978 0.0
C3651 C 0.7213 0.92555 0.31953 0.0
C3652 C 0.736 0.953 0.29212 0.0
C3653 C 0.74197 0.9639 0.30159 0.0
C3654 C 0.72836 0.93878 0.31309 0.0
C3655 C 0.74088 0.96177 0.31682 0.0
C3656 C 0.72095 0.92359 0.33482 0.0
C3657 C 0.7086 0.90265 0.31582 0.0
N3658 N 0.73422 0.94949 0.32208 0.0
N3659 N 0.71509 0.91503 0.31055 0.0
H3660 H 0.61115 0.22859 0.31416 0.0
H3661 H 0.53245 0.20937 0.2769 0.0
H3662 H 0.59419 0.18455 0.3071 0.0
H3663 H 0.54601 0.25391 0.28709 0.0
H3664 H 0.55474 0.2004 0.28913 0.0
H3665 H 0.58743 0.23836 0.30532 0.0
C3666 C 0.60244 0.22096 0.31084 0.0
C3667 C 0.60476 0.20568 0.31129 0.0
C3668 C 0.55288 0.21214 0.28885 0.0
C3669 C 0.57759 0.21684 0.30108 0.0
C3670 C 0.5401 0.21728 0.28187 0.0
C3671 C 0.5374 0.23242 0.28091 0.0
C3672 C 0.56327 0.22218 0.29484 0.0
C3673 C 0.54765 0.24215 0.28764 0.0
C3674 C 0.58891 0.22656 0.30576 0.0
C3675 C 0.59308 0.19638 0.30669 0.0
N3676 N 0.56026 0.23687 0.29419 0.0
N3677 N 0.58008 0.2021 0.30177 0.0
H3678 H 0.29449 0.10763 0.35795 0.0
H3679 H 0.25852 0.06442 0.28858 0.0
H3680 H 0.29744 0.12176 0.31289 0.0
H3681 H 0.25755 0.04759 0.33286 0.0
H3682 H 0.27112 0.08645 0.29783 0.0
H3683 H 0.2791 0.08667 0.34958 0.0
C3684 C 0.29177 0.10641 0.34633 0.0
C3685 C 0.29738 0.11636 0.33609 0.0
C3686 C 0.26815 0.07798 0.30557 0.0
C3687 C 0.2799 0.09245 0.32644 0.0
C3688 C 0.26101 0.06531 0.30026 0.0
C3689 C 0.25712 0.05401 0.30992 0.0
C3690 C 0.27149 0.07943 0.32069 0.0
C3691 C 0.26031 0.05602 0.32502 0.0
C3692 C 0.28307 0.09441 0.34155 0.0
C3693 C 0.29359 0.11421 0.32115 0.0
N3694 N 0.26739 0.06845 0.32993 0.0
N3695 N 0.28515 0.1025 0.3168 0.0
H3696 H 0.40885 0.80807 0.34025 0.0
H3697 H 0.45233 0.77732 0.27182 0.0
H3698 H 0.39335 0.81335 0.29522 0.0
H3699 H 0.46357 0.76707 0.31707 0.0
H3700 H 0.43155 0.79174 0.27996 0.0
H3701 H 0.42987 0.79446 0.33174 0.0
C3702 C 0.40984 0.80634 0.32854 0.0
C3703 C 0.39916 0.81172 0.31845 0.0
C3704 C 0.43855 0.78633 0.28811 0.0
C3705 C 0.42344 0.79619 0.30859 0.0
C3706 C 0.45047 0.77813 0.28348 0.0
C3707 C 0.45977 0.77099 0.29379 0.0
C3708 C 0.43593 0.78749 0.30318 0.0
C3709 C 0.45664 0.77225 0.30873 0.0
C3710 C 0.4219 0.79858 0.32369 0.0
C3711 C 0.4013 0.80945 0.3034 0.0
N3712 N 0.44505 0.78038 0.31297 0.0
N3713 N 0.41316 0.8018 0.29893 0.0
H3714 H 0.32392 0.90172 0.74281 0.0
H3715 H 0.28861 0.98171 0.73442 0.0
H3716 H 0.31779 0.92372 0.7011 0.0
H3717 H 0.2948 0.95933 0.77596 0.0
H3718 H 0.29925 0.96072 0.72202 0.0
H3719 H 0.3128 0.92255 0.75499 0.0
C3720 C 0.32019 0.91095 0.7362 0.0
C3721 C 0.32192 0.91103 0.72091 0.0
C3722 C 0.29833 0.96041 0.73385 0.0
C3723 C 0.30913 0.93501 0.73484 0.0
C3724 C 0.2923 0.97243 0.74097 0.0
C3725 C 0.29079 0.97231 0.7563 0.0
C3726 C 0.30289 0.94812 0.74207 0.0
C3727 C 0.29577 0.95995 0.76416 0.0
C3728 C 0.31382 0.92284 0.74317 0.0
C3729 C 0.31662 0.92316 0.71289 0.0
N3730 N 0.30155 0.94835 0.75695 0.0
N3731 N 0.31056 0.93471 0.71996 0.0
H3732 H 0.62483 0.78916 0.69436 0.0
H3733 H 0.55229 0.80673 0.73769 0.0
H3734 H 0.60463 0.83179 0.69646 0.0
H3735 H 0.56776 0.76243 0.7326 0.0
H3736 H 0.57043 0.81534 0.7206 0.0
H3737 H 0.60342 0.7784 0.7064 0.0
C3738 C 0.61584 0.79622 0.6972 0.0
C3739 C 0.61664 0.81144 0.69463 0.0
C3740 C 0.56984 0.80369 0.72301 0.0
C3741 C 0.5922 0.79925 0.70838 0.0
C3742 C 0.55944 0.79877 0.73277 0.0
C3743 C 0.55859 0.78387 0.73658 0.0
C3744 C 0.57978 0.79371 0.71716 0.0
C3745 C 0.56806 0.77401 0.72985 0.0
C3746 C 0.60365 0.79008 0.70409 0.0
C3747 C 0.60468 0.82007 0.69854 0.0
N3748 N 0.57846 0.77915 0.72061 0.0
N3749 N 0.59306 0.81388 0.70528 0.0
H3750 H 0.43204 0.18256 0.71623 0.0
H3751 H 0.47869 0.25383 0.7427 0.0
H3752 H 0.41476 0.22647 0.71275 0.0
H3753 H 0.49439 0.20927 0.74437 0.0
H3754 H 0.45601 0.24488 0.72976 0.0
H3755 H 0.45553 0.19281 0.72517 0.0
C3756 C 0.43315 0.19437 0.71743 0.0
C3757 C 0.42131 0.20362 0.71384 0.0
C3758 C 0.46454 0.23713 0.73279 0.0
C3759 C 0.44843 0.21558 0.724 0.0
C3760 C 0.47753 0.24226 0.74003 0.0
C3761 C 0.48839 0.23227 0.74465 0.0
C3762 C 0.46253 0.22194 0.73018 0.0
C3763 C 0.48625 0.21735 0.74111 0.0
C3764 C 0.44664 0.20026 0.72243 0.0
C3765 C 0.42359 0.21891 0.71532 0.0
N3766 N 0.47359 0.21267 0.73422 0.0
N3767 N 0.43683 0.2244 0.72037 0.0
H3768 H 0.68177 0.71011 0.08482 0.0
H3769 H 0.73488 0.76937 0.05028 0.0
H3770 H 0.69834 0.74694 0.11044 0.0
H3771 H 0.70003 0.74828 0.02453 0.0
H3772 H 0.72446 0.75903 0.0727 0.0
H3773 H 0.69113 0.72171 0.06259 0.0
C3774 C 0.68735 0.72067 0.08571 0.0
C3775 C 0.68926 0.72765 0.09939 0.0
C3776 C 0.71909 0.75675 0.06213 0.0
C3777 C 0.70023 0.74079 0.07419 0.0
C3778 C 0.72506 0.76255 0.04938 0.0
C3779 C 0.71826 0.75968 0.03559 0.0
C3780 C 0.70647 0.74772 0.06101 0.0
C3781 C 0.7055 0.75085 0.03497 0.0
C3782 C 0.69265 0.72729 0.07307 0.0
C3783 C 0.69658 0.74131 0.10003 0.0
N3784 N 0.7001 0.74505 0.04749 0.0
N3785 N 0.70197 0.74739 0.08761 0.0
H3786 H 0.29313 0.7036 0.11293 0.0
H3787 H 0.30942 0.72976 0.03126 0.0
H3788 H 0.33437 0.69861 0.09155 0.0
H3789 H 0.26832 0.73841 0.05167 0.0
H3790 H 0.31648 0.71378 0.0517 0.0
H3791 H 0.28189 0.71221 0.0895 0.0
C3792 C 0.29972 0.70407 0.10324 0.0
C3793 C 0.31474 0.70059 0.10418 0.0
C3794 C 0.30579 0.71893 0.05169 0.0
C3795 C 0.30204 0.71037 0.07748 0.0
C3796 C 0.30173 0.72798 0.03995 0.0
C3797 C 0.2883 0.73538 0.03982 0.0
C3798 C 0.29652 0.71751 0.06366 0.0
C3799 C 0.27874 0.73277 0.05135 0.0
C3800 C 0.29333 0.70902 0.08991 0.0
C3801 C 0.32282 0.70141 0.09136 0.0
N3802 N 0.28315 0.72424 0.06299 0.0
N3803 N 0.31641 0.7063 0.07862 0.0
H3804 H 0.32194 0.29828 0.11794 0.0
H3805 H 0.3115 0.31139 0.03116 0.0
H3806 H 0.32418 0.34083 0.09719 0.0
H3807 H 0.2956 0.27219 0.05247 0.0
H3808 H 0.32071 0.3206 0.05494 0.0
H3809 H 0.31632 0.28709 0.09376 0.0
C3810 C 0.32134 0.30525 0.10829 0.0
C3811 C 0.32342 0.32053 0.10959 0.0
C3812 C 0.31533 0.30992 0.05441 0.0
C3813 C 0.31715 0.3078 0.08194 0.0
C3814 C 0.31014 0.30458 0.04079 0.0
C3815 C 0.30263 0.29101 0.03977 0.0
C3816 C 0.31312 0.30164 0.06717 0.0
C3817 C 0.30127 0.28273 0.05271 0.0
C3818 C 0.31809 0.29886 0.09452 0.0
C3819 C 0.32246 0.32904 0.09673 0.0
N3820 N 0.30637 0.28821 0.06589 0.0
N3821 N 0.31943 0.32257 0.08348 0.0
H3822 H 0.70396 0.30047 0.13345 0.0
H3823 H 0.74226 0.29999 0.05554 0.0
H3824 H 0.7155 0.34021 0.11043 0.0
H3825 H 0.72378 0.26151 0.07594 0.0
H3826 H 0.73444 0.31487 0.07626 0.0
H3827 H 0.71325 0.286 0.11329 0.0
C3828 C 0.70844 0.30617 0.12413 0.0
C3829 C 0.70877 0.3216 0.12356 0.0
C3830 C 0.73209 0.30318 0.07618 0.0
C3831 C 0.71959 0.30503 0.10041 0.0
C3832 C 0.7366 0.29466 0.06439 0.0
C3833 C 0.73364 0.27947 0.06398 0.0
C3834 C 0.72467 0.29643 0.08771 0.0
C3835 C 0.72611 0.27319 0.07567 0.0
C3836 C 0.71379 0.29789 0.11263 0.0
C3837 C 0.71507 0.32835 0.11136 0.0
N3838 N 0.72194 0.28168 0.08705 0.0
N3839 N 0.72016 0.32002 0.10022 0.0
H3840 H 0.69224 0.29638 0.93132 0.0
H3841 H 0.76926 0.29812 0.97629 0.0
H3842 H 0.73267 0.31286 0.91361 0.0
H3843 H 0.73344 0.26956 0.98833 0.0
H3844 H 0.75503 0.30543 0.9543 0.0
H3845 H 0.70627 0.28773 0.95308 0.0
C3846 C 0.70404 0.29809 0.9319 0.0
C3847 C 0.7112 0.30555 0.9206 0.0
C3848 C 0.75028 0.29755 0.96173 0.0
C3849 C 0.72728 0.29591 0.94564 0.0
C3850 C 0.75838 0.29342 0.97435 0.0
C3851 C 0.75255 0.28321 0.9842 0.0
C3852 C 0.73613 0.29158 0.95897 0.0
C3853 C 0.73838 0.27744 0.98102 0.0
C3854 C 0.71203 0.29321 0.94438 0.0
C3855 C 0.72655 0.30754 0.92214 0.0
N3856 N 0.73063 0.28175 0.96873 0.0
N3857 N 0.73401 0.30287 0.93442 0.0
H3858 H 0.75831 0.69201 0.90284 0.0
H3859 H 0.72993 0.72999 0.97529 0.0
H3860 H 0.71719 0.68186 0.92295 0.0
H3861 H 0.77293 0.73915 0.95887 0.0
H3862 H 0.7271 0.7095 0.95816 0.0
H3863 H 0.76589 0.70649 0.92477 0.0
C3864 C 0.75105 0.69255 0.91202 0.0
C3865 C 0.73705 0.68589 0.91106 0.0
C3866 C 0.7373 0.71577 0.95838 0.0
C3867 C 0.74551 0.70245 0.936 0.0
C3868 C 0.73892 0.72743 0.96824 0.0
C3869 C 0.75168 0.73618 0.96849 0.0
C3870 C 0.74836 0.71303 0.94833 0.0
C3871 C 0.76299 0.73252 0.95907 0.0
C3872 C 0.75533 0.70086 0.92448 0.0
C3873 C 0.728 0.68699 0.92318 0.0
N3874 N 0.76096 0.72135 0.94914 0.0
N3875 N 0.73232 0.69521 0.93503 0.0
H3876 H 0.34658 0.7369 0.9018 0.0
H3877 H 0.30329 0.73239 0.97668 0.0
H3878 H 0.33284 0.69608 0.92161 0.0
H3879 H 0.32526 0.77188 0.96247 0.0
H3880 H 0.31323 0.71916 0.95593 0.0
H3881 H 0.33839 0.75013 0.92341 0.0
C3882 C 0.34198 0.73067 0.91072 0.0
C3883 C 0.34035 0.7153 0.90977 0.0
C3884 C 0.31594 0.73071 0.95736 0.0
C3885 C 0.3307 0.73048 0.93448 0.0
C3886 C 0.31018 0.73829 0.96916 0.0
C3887 C 0.31338 0.75329 0.97128 0.0
C3888 C 0.32488 0.73818 0.94746 0.0
C3889 C 0.3226 0.76031 0.96131 0.0
C3890 C 0.33723 0.73827 0.92303 0.0
C3891 C 0.33407 0.70793 0.92164 0.0
N3892 N 0.32794 0.75273 0.94977 0.0
N3893 N 0.32943 0.71558 0.93343 0.0
H3894 H 0.31503 0.31405 0.89916 0.0
H3895 H 0.27871 0.33501 0.97525 0.0
H3896 H 0.31117 0.35866 0.91468 0.0
H3897 H 0.27876 0.291 0.9574 0.0
H3898 H 0.29027 0.34395 0.9531 0.0
H3899 H 0.30187 0.30542 0.92054 0.0
C3900 C 0.31146 0.32203 0.9071 0.0
C3901 C 0.31426 0.33711 0.90512 0.0
C3902 C 0.28771 0.33234 0.95402 0.0
C3903 C 0.29905 0.3273 0.92963 0.0
C3904 C 0.281 0.32722 0.96666 0.0
C3905 C 0.2778 0.31217 0.96834 0.0
C3906 C 0.2913 0.32237 0.94293 0.0
C3907 C 0.28124 0.30263 0.9568 0.0
C3908 C 0.30386 0.3171 0.91926 0.0
C3909 C 0.30915 0.34695 0.91566 0.0
N3910 N 0.28784 0.30788 0.94465 0.0
N3911 N 0.30185 0.34188 0.92748 0.0
H3912 H 0.60038 0.71296 0.18642 0.0
H3913 H 0.55433 0.70611 0.25924 0.0
H3914 H 0.61825 0.69396 0.22662 0.0
H3915 H 0.54477 0.73834 0.22563 0.0
H3916 H 0.57647 0.69918 0.24626 0.0
H3917 H 0.57875 0.7205 0.19961 0.0
C3918 C 0.59989 0.71047 0.19802 0.0
C3919 C 0.61126 0.70272 0.20534 0.0
C3920 C 0.56954 0.70779 0.24176 0.0
C3921 C 0.58622 0.71103 0.22042 0.0
C3922 C 0.55687 0.71167 0.2491 0.0
C3923 C 0.54776 0.72285 0.24353 0.0
C3924 C 0.57296 0.71497 0.22861 0.0
C3925 C 0.5516 0.72979 0.2304 0.0
C3926 C 0.58745 0.71471 0.20552 0.0
C3927 C 0.60971 0.6996 0.22037 0.0
N3928 N 0.56386 0.72569 0.22335 0.0
N3929 N 0.59741 0.70367 0.22736 0.0
H3930 H 0.32458 0.62635 0.232 0.0
H3931 H 0.28608 0.54677 0.23204 0.0
H3932 H 0.30991 0.60344 0.19248 0.0
H3933 H 0.30992 0.56476 0.26981 0.0
H3934 H 0.29293 0.56843 0.21784 0.0
H3935 H 0.31783 0.60477 0.24641 0.0
C3936 C 0.32003 0.61679 0.2263 0.0
C3937 C 0.31783 0.61682 0.21092 0.0
C3938 C 0.29668 0.56765 0.22924 0.0
C3939 C 0.30981 0.59209 0.22749 0.0
C3940 C 0.29268 0.55532 0.23739 0.0
C3941 C 0.2974 0.55393 0.25218 0.0
C3942 C 0.30538 0.57882 0.23591 0.0
C3943 C 0.30615 0.5653 0.25843 0.0
C3944 C 0.3161 0.60449 0.23458 0.0
C3945 C 0.3116 0.60413 0.20429 0.0
N3946 N 0.3098 0.57728 0.25029 0.0
N3947 N 0.30779 0.59234 0.21259 0.0
H3948 H 0.41874 0.33607 0.21987 0.0
H3949 H 0.45217 0.26302 0.25632 0.0
H3950 H 0.39664 0.29392 0.22075 0.0
H3951 H 0.47928 0.3001 0.24486 0.0
H3952 H 0.43023 0.27702 0.24934 0.0
H3953 H 0.43954 0.32553 0.2342 0.0
C3954 C 0.4182 0.32466 0.22325 0.0
C3955 C 0.40605 0.31579 0.219 0.0
C3956 C 0.44093 0.28227 0.24866 0.0
C3957 C 0.42961 0.30376 0.23545 0.0
C3958 C 0.45343 0.27435 0.25283 0.0
C3959 C 0.46747 0.28053 0.25133 0.0
C3960 C 0.44248 0.29642 0.2427 0.0
C3961 C 0.46859 0.29509 0.2464 0.0
C3962 C 0.43006 0.31866 0.23137 0.0
C3963 C 0.40589 0.30108 0.22362 0.0
N3964 N 0.45623 0.30252 0.24205 0.0
N3965 N 0.41749 0.29554 0.23154 0.0
H3966 H 0.69568 0.42925 0.18995 0.0
H3967 H 0.7275 0.48142 0.255 0.0
H3968 H 0.69062 0.41845 0.23567 0.0
H3969 H 0.73816 0.48505 0.2093 0.0
H3970 H 0.71074 0.46067 0.24855 0.0
H3971 H 0.70794 0.45213 0.19726 0.0
C3972 C 0.69718 0.4317 0.20157 0.0
C3973 C 0.69235 0.42178 0.21221 0.0
C3974 C 0.71667 0.46614 0.23997 0.0
C3975 C 0.70641 0.44816 0.22074 0.0
C3976 C 0.72614 0.478 0.24363 0.0
C3977 C 0.7343 0.48485 0.23268 0.0
C3978 C 0.71528 0.46134 0.22526 0.0
C3979 C 0.73222 0.47998 0.21813 0.0
C3980 C 0.70414 0.44482 0.20575 0.0
C3981 C 0.69422 0.42577 0.22711 0.0
N3982 N 0.72299 0.46856 0.21488 0.0
N3983 N 0.70125 0.4386 0.23096 0.0
H3984 H 0.629 0.29228 0.81953 0.0
H3985 H 0.54816 0.29565 0.78105 0.0
H3986 H 0.60665 0.33331 0.81168 0.0
H3987 H 0.57079 0.25604 0.794 0.0
H3988 H 0.57009 0.31011 0.78943 0.0
H3989 H 0.6083 0.27923 0.80776 0.0
C3990 C 0.61969 0.29857 0.81541 0.0
C3991 C 0.61956 0.31393 0.8168 0.0
C3992 C 0.57024 0.29824 0.79028 0.0
C3993 C 0.59565 0.29896 0.80302 0.0
C3994 C 0.55779 0.29001 0.78541 0.0
C3995 C 0.55762 0.27466 0.78697 0.0
C3996 C 0.58254 0.29096 0.79657 0.0
C3997 C 0.57034 0.26788 0.79277 0.0
C3998 C 0.60786 0.2911 0.80857 0.0
C3999 C 0.60727 0.32146 0.81084 0.0
N4000 N 0.58217 0.27603 0.79738 0.0
N4001 N 0.59577 0.31391 0.80429 0.0
H4002 H 0.69943 0.58922 0.80173 0.0
H4003 H 0.77427 0.55444 0.77425 0.0
H4004 H 0.742 0.6106 0.80477 0.0
H4005 H 0.73429 0.52894 0.77712 0.0
H4006 H 0.76107 0.57639 0.78129 0.0
H4007 H 0.71061 0.56826 0.78942 0.0
C4008 C 0.7111 0.58956 0.79972 0.0
C4009 C 0.71982 0.60167 0.8044 0.0
C4010 C 0.75505 0.56609 0.7802 0.0
C4011 C 0.73263 0.57775 0.79026 0.0
C4012 C 0.76256 0.55357 0.77603 0.0
C4013 C 0.75532 0.53991 0.77505 0.0
C4014 C 0.74015 0.56497 0.78366 0.0
C4015 C 0.7402 0.53933 0.7776 0.0
C4016 C 0.71747 0.57757 0.79273 0.0
C4017 C 0.73489 0.60144 0.80159 0.0
N4018 N 0.73311 0.55168 0.78199 0.0
N4019 N 0.74078 0.58971 0.79473 0.0
H4020 H 0.44098 0.69103 0.80967 0.0
H4021 H 0.48027 0.76207 0.77606 0.0
H4022 H 0.42445 0.73523 0.81189 0.0
H4023 H 0.50284 0.72107 0.78259 0.0
H4024 H 0.45759 0.75054 0.7842 0.0
H4025 H 0.46179 0.70022 0.79561 0.0
C4026 C 0.44168 0.70264 0.8071 0.0
C4027 C 0.43107 0.71242 0.81209 0.0
C4028 C 0.4674 0.74393 0.78363 0.0
C4029 C 0.45468 0.72294 0.79593 0.0
C4030 C 0.48029 0.75047 0.77883 0.0
C4031 C 0.49332 0.74243 0.77857 0.0
C4032 C 0.46758 0.72926 0.78844 0.0
C4033 C 0.49291 0.72753 0.78247 0.0
C4034 C 0.45355 0.70787 0.79912 0.0
C4035 C 0.43251 0.72734 0.8085 0.0
N4036 N 0.48024 0.72143 0.78744 0.0
N4037 N 0.44408 0.73213 0.80067 0.0
H4038 H 0.36383 0.42575 0.79663 0.0
H4039 H 0.29333 0.47139 0.76848 0.0
H4040 H 0.31898 0.41123 0.80201 0.0
H4041 H 0.3381 0.48578 0.76243 0.0
H4042 H 0.30256 0.44923 0.7806 0.0
H4043 H 0.35469 0.44755 0.78368 0.0
C4044 C 0.35206 0.42707 0.79501 0.0
C4045 C 0.34218 0.41659 0.80048 0.0
C4046 C 0.31038 0.45722 0.7766 0.0
C4047 C 0.33161 0.4417 0.78576 0.0
C4048 C 0.3051 0.46995 0.76973 0.0
C4049 C 0.31492 0.48057 0.76443 0.0
C4050 C 0.32562 0.45502 0.77825 0.0
C4051 C 0.33008 0.47789 0.76618 0.0
C4052 C 0.34684 0.43959 0.78768 0.0
C4053 C 0.32704 0.41908 0.79821 0.0
N4054 N 0.33495 0.46543 0.77296 0.0
N4055 N 0.32224 0.43134 0.79105 0.0
H4056 H 0.69039 0.6074 0.18225 0.0
H4057 H 0.76643 0.56437 0.19288 0.0
H4058 H 0.73229 0.62539 0.16971 0.0
H4059 H 0.72627 0.55135 0.21342 0.0
H4060 H 0.75357 0.58533 0.18171 0.0
H4061 H 0.70292 0.58547 0.19142 0.0
C4062 C 0.70223 0.60679 0.18146 0.0
C4063 C 0.71028 0.61836 0.17526 0.0
C4064 C 0.74757 0.57786 0.18863 0.0
C4065 C 0.72468 0.59309 0.18556 0.0
C4066 C 0.75488 0.56584 0.19492 0.0
C4067 C 0.74743 0.55614 0.20416 0.0
C4068 C 0.73267 0.58012 0.1915 0.0
C4069 C 0.73249 0.55867 0.20655 0.0
C4070 C 0.70937 0.59421 0.18663 0.0
C4071 C 0.72557 0.61672 0.17424 0.0
N4072 N 0.72561 0.5704 0.20027 0.0
N4073 N 0.73227 0.60435 0.17936 0.0
H4074 H 0.72138 0.41911 0.8554 0.0
H4075 H 0.75793 0.453 0.78393 0.0
H4076 H 0.71739 0.39905 0.81244 0.0
H4077 H 0.76202 0.4727 0.82707 0.0
H4078 H 0.74237 0.43366 0.79391 0.0
H4079 H 0.73536 0.43939 0.84494 0.0
C4080 C 0.72341 0.419 0.84374 0.0
C4081 C 0.71831 0.40728 0.83481 0.0
C4082 C 0.74665 0.44222 0.80119 0.0
C4083 C 0.73434 0.43054 0.82272 0.0
C4084 C 0.75551 0.45332 0.79549 0.0
C4085 C 0.76131 0.46456 0.80465 0.0
C4086 C 0.74352 0.44231 0.8162 0.0
C4087 C 0.75797 0.4642 0.81961 0.0
C4088 C 0.73138 0.4306 0.83776 0.0
C4089 C 0.72104 0.40787 0.81972 0.0
N4090 N 0.7493 0.45328 0.82489 0.0
N4091 N 0.72896 0.41925 0.81417 0.0
H4092 H 0.62241 0.70344 0.84851 0.0
H4093 H 0.58113 0.74177 0.77973 0.0
H4094 H 0.63788 0.70115 0.80427 0.0
H4095 H 0.56759 0.74581 0.82454 0.0
H4096 H 0.60112 0.72575 0.78813 0.0
H4097 H 0.60136 0.71765 0.83954 0.0
C4098 C 0.62136 0.70591 0.83688 0.0
C4099 C 0.63203 0.70123 0.82715 0.0
C4100 C 0.59376 0.73013 0.79612 0.0
C4101 C 0.60784 0.71751 0.81676 0.0
C4102 C 0.5823 0.73925 0.79132 0.0
C4103 C 0.57263 0.74519 0.80144 0.0
C4104 C 0.59559 0.72688 0.81115 0.0
C4105 C 0.57485 0.74167 0.81636 0.0
C4106 C 0.60931 0.71401 0.83176 0.0
C4107 C 0.62991 0.70449 0.81215 0.0
N4108 N 0.58607 0.73276 0.82075 0.0
N4109 N 0.61811 0.71252 0.80742 0.0
H4110 H 0.32967 0.6337 0.78857 0.0
H4111 H 0.29132 0.55417 0.79404 0.0
H4112 H 0.32661 0.6108 0.82985 0.0
H4113 H 0.30353 0.57571 0.75396 0.0
H4114 H 0.30019 0.57602 0.80801 0.0
H4115 H 0.31574 0.61393 0.77642 0.0
C4116 C 0.32601 0.62447 0.79508 0.0
C4117 C 0.32952 0.62373 0.81016 0.0
C4118 C 0.30077 0.57593 0.79615 0.0
C4119 C 0.31356 0.60089 0.7963 0.0
C4120 C 0.29568 0.56353 0.7882 0.0
C4121 C 0.29688 0.56309 0.77286 0.0
C4122 C 0.30684 0.58794 0.7886 0.0
C4123 C 0.30261 0.57547 0.76579 0.0
C4124 C 0.31802 0.61317 0.78815 0.0
C4125 C 0.32418 0.6117 0.81816 0.0
N4126 N 0.30738 0.58731 0.7737 0.0
N4127 N 0.3166 0.60061 0.81109 0.0
H4128 H 0.41457 0.31087 0.80645 0.0
H4129 H 0.48524 0.26346 0.83088 0.0
H4130 H 0.4287 0.30438 0.85173 0.0
H4131 H 0.47063 0.27002 0.78577 0.0
H4132 H 0.46452 0.27812 0.83884 0.0
H4133 H 0.43526 0.29613 0.79873 0.0
C4134 C 0.42208 0.30645 0.81478 0.0
C4135 C 0.41983 0.30889 0.82978 0.0
C4136 C 0.46586 0.27634 0.8272 0.0
C4137 C 0.44352 0.29175 0.821 0.0
C4138 C 0.47765 0.26788 0.82265 0.0
C4139 C 0.4798 0.26554 0.80761 0.0
C4140 C 0.45608 0.2825 0.81665 0.0
C4141 C 0.46963 0.27171 0.79746 0.0
C4142 C 0.43385 0.29793 0.81036 0.0
C4143 C 0.42984 0.30264 0.84005 0.0
N4144 N 0.45827 0.27989 0.80215 0.0
N4145 N 0.44122 0.29438 0.83548 0.0
H4146 H 0.29373 0.40705 0.2031 0.0
H4147 H 0.30905 0.48611 0.23968 0.0
H4148 H 0.33655 0.42702 0.21058 0.0
H4149 H 0.26568 0.46645 0.23717 0.0
H4150 H 0.31826 0.46593 0.22523 0.0
H4151 H 0.28238 0.42971 0.21208 0.0
C4152 C 0.30072 0.41626 0.20645 0.0
C4153 C 0.31612 0.4151 0.20628 0.0
C4154 C 0.30669 0.466 0.22766 0.0
C4155 C 0.30327 0.44096 0.21648 0.0
C4156 C 0.3014 0.47759 0.23589 0.0
C4157 C 0.2866 0.4779 0.23972 0.0
C4158 C 0.29719 0.45439 0.22334 0.0
C4159 C 0.27717 0.46663 0.23441 0.0
C4160 C 0.29425 0.42914 0.21162 0.0
C4161 C 0.32466 0.42732 0.21078 0.0
N4162 N 0.28267 0.45517 0.22665 0.0
N4163 N 0.31814 0.43965 0.21572 0.0
H4164 H 0.6083 0.32007 0.22275 0.0
H4165 H 0.5335 0.27753 0.19897 0.0
H4166 H 0.59178 0.31614 0.17791 0.0
H4167 H 0.55284 0.27673 0.24296 0.0
H4168 H 0.55369 0.29341 0.19141 0.0
H4169 H 0.58655 0.30655 0.23088 0.0
C4170 C 0.59998 0.31656 0.21466 0.0
C4171 C 0.60189 0.3191 0.19964 0.0
C4172 C 0.55349 0.28978 0.20273 0.0
C4173 C 0.57713 0.3035 0.20878 0.0
C4174 C 0.54199 0.28061 0.20704 0.0
C4175 C 0.5414 0.27573 0.22164 0.0
C4176 C 0.56449 0.29416 0.21309 0.0
C4177 C 0.55266 0.28033 0.23164 0.0
C4178 C 0.58764 0.30874 0.21927 0.0
C4179 C 0.59083 0.31422 0.18958 0.0
N4180 N 0.56373 0.28926 0.22717 0.0
N4181 N 0.57899 0.30659 0.19432 0.0
H4182 H 0.42159 0.71214 0.17919 0.0
H4183 H 0.46435 0.76018 0.24116 0.0
H4184 H 0.40462 0.72041 0.22206 0.0
H4185 H 0.48664 0.73751 0.2068 0.0
H4186 H 0.44084 0.75067 0.2311 0.0
H4187 H 0.44403 0.726 0.18636 0.0
C4188 C 0.42254 0.71699 0.19006 0.0
C4189 C 0.41129 0.71504 0.20009 0.0
C4190 C 0.45087 0.74796 0.22565 0.0
C4191 C 0.4368 0.73101 0.20829 0.0
C4192 C 0.4643 0.75351 0.23129 0.0
C4193 C 0.47754 0.74956 0.22486 0.0
C4194 C 0.45062 0.73855 0.2134 0.0
C4195 C 0.47673 0.74076 0.21215 0.0
C4196 C 0.43535 0.72484 0.19415 0.0
C4197 C 0.41311 0.7215 0.21407 0.0
N4198 N 0.46351 0.73548 0.20689 0.0
N4199 N 0.42561 0.7292 0.21774 0.0
loop_
_geom_bond_atom_site_label_1
_geom_bond_atom_site_label_2
_geom_bond_distance
_geom_bond_site_symmetry_2
_ccdc_geom_bond_type
C0 C1 1.391 . S
C0 C4 1.391 . S
C0 H42 0.948 . S
C1 C0 1.391 . S
C1 C2 1.391 . S
C2 C1 1.391 . S
C2 H58 0.947 . S
C2 C59 1.392 . S
C3 C4 1.391 . S
C3 C7 1.397 . S
C3 C59 1.419 . S
C4 C0 1.391 . S
C4 C3 1.391 . S
C4 C5 1.399 . S
C5 C4 1.399 . S
C5 C8 1.396 . S
C5 C17 1.453 . S
C5 C18 1.684 . S
H6 C30 0.948 . S
C7 C3 1.397 . S
C7 C8 1.394 . S
C7 C26 1.723 . S
C8 C5 1.396 . S
C8 C7 1.394 . S
C8 C38 1.723 . S
H9 C32 0.947 . S
H10 C33 0.948 . S
H11 C39 0.982 . S
H12 C40 0.979 . S
H13 C40 0.980 . S
H14 C40 0.983 . S
H15 C39 0.979 . S
H16 C39 0.977 . S
C17 C5 1.453 . S
C17 H46 0.982 . S
C17 H47 0.979 . S
C17 H48 0.977 . S
C18 C5 1.684 . S
C18 H43 0.979 . S
C18 H44 0.980 . S
C18 H45 0.983 . S
C19 C20 1.391 . S
C19 C24 1.391 . S
C19 H49 0.948 . S
C20 C19 1.391 . S
C20 C21 1.391 . S
C21 C20 1.391 . S
C21 C22 1.392 . S
C21 H50 0.947 . S
C22 C21 1.392 . S
C22 C23 1.419 . S
C22 H51 0.948 . S
C23 C22 1.419 . S
C23 C24 1.391 . S
C23 C27 1.397 . S
C24 C19 1.391 . S
C24 C23 1.391 . S
C24 C25 1.399 . S
C25 C24 1.399 . S
C25 C26 1.396 . S
C25 C28 1.453 . S
C25 C29 1.684 . S
C26 C7 1.723 . S
C26 C25 1.396 . S
C26 C27 1.394 . S
C27 C23 1.397 . S
C27 C26 1.394 . S
C27 C37 1.723 . S
C28 C25 1.453 . S
C28 H52 0.982 . S
C28 H53 0.979 . S
C28 H54 0.977 . S
C29 C25 1.684 . S
C29 H55 0.979 . S
C29 H56 0.980 . S
C29 H57 0.983 . S
C30 H6 0.948 . S
C30 C31 1.391 . S
C30 C35 1.391 . S
C31 C30 1.391 . S
C31 C32 1.391 . S
C32 H9 0.947 . S
C32 C31 1.391 . S
C32 C33 1.392 . S
C33 H10 0.948 . S
C33 C32 1.392 . S
C33 C34 1.419 . S
C34 C33 1.419 . S
C34 C35 1.391 . S
C34 C38 1.397 . S
C35 C30 1.391 . S
C35 C34 1.391 . S
C35 C36 1.399 . S
C36 C35 1.399 . S
C36 C37 1.396 . S
C36 C39 1.453 . S
C36 C40 1.684 . S
C37 C27 1.723 . S
C37 C36 1.396 . S
C37 C38 1.394 . S
C38 C8 1.723 . S
C38 C34 1.397 . S
C38 C37 1.394 . S
C39 H11 0.982 . S
C39 H15 0.979 . S
C39 H16 0.977 . S
C39 C36 1.453 . S
C40 H12 0.979 . S
C40 H13 0.980 . S
C40 H14 0.983 . S
C40 C36 1.684 . S
H41 C59 0.948 . S
H42 C0 0.948 . S
H43 C18 0.979 . S
H44 C18 0.980 . S
H45 C18 0.983 . S
H46 C17 0.982 . S
H47 C17 0.979 . S
H48 C17 0.977 . S
H49 C19 0.948 . S
H50 C21 0.947 . S
H51 C22 0.948 . S
H52 C28 0.982 . S
H53 C28 0.979 . S
H54 C28 0.977 . S
H55 C29 0.979 . S
H56 C29 0.980 . S
H57 C29 0.983 . S
H58 C2 0.947 . S
C59 C2 1.392 . S
C59 C3 1.419 . S
C59 H41 0.948 . S
C60 C61 1.391 . S
C60 C64 1.391 . S
C60 H102 0.948 . S
C61 C60 1.391 . S
C61 C62 1.391 . S
C62 C61 1.391 . S
C62 H118 0.947 . S
C62 C119 1.392 . S
C63 C64 1.391 . S
C63 C67 1.397 . S
C63 C119 1.419 . S
C64 C60 1.391 . S
C64 C63 1.391 . S
C64 C65 1.399 . S
C65 C64 1.399 . S
C65 C68 1.396 . S
C65 C77 1.453 . S
C65 C78 1.684 . S
H66 C90 0.948 . S
C67 C63 1.397 . S
C67 C68 1.394 . S
C67 C86 1.723 . S
C68 C65 1.396 . S
C68 C67 1.394 . S
C68 C98 1.723 . S
H69 C92 0.947 . S
H70 C93 0.948 . S
H71 C99 0.982 . S
H72 C100 0.979 . S
H73 C100 0.980 . S
H74 C100 0.983 . S
H75 C99 0.979 . S
H76 C99 0.977 . S
C77 C65 1.453 . S
C77 H106 0.982 . S
C77 H107 0.979 . S
C77 H108 0.977 . S
C78 C65 1.684 . S
C78 H103 0.979 . S
C78 H104 0.980 . S
C78 H105 0.983 . S
C79 C80 1.391 . S
C79 C84 1.391 . S
C79 H109 0.948 . S
C80 C79 1.391 . S
C80 C81 1.391 . S
C81 C80 1.391 . S
C81 C82 1.392 . S
C81 H110 0.947 . S
C82 C81 1.392 . S
C82 C83 1.419 . S
C82 H111 0.948 . S
C83 C82 1.419 . S
C83 C84 1.391 . S
C83 C87 1.397 . S
C84 C79 1.391 . S
C84 C83 1.391 . S
C84 C85 1.399 . S
C85 C84 1.399 . S
C85 C86 1.396 . S
C85 C88 1.453 . S
C85 C89 1.684 . S
C86 C67 1.723 . S
C86 C85 1.396 . S
C86 C87 1.394 . S
C87 C83 1.397 . S
C87 C86 1.394 . S
C87 C97 1.723 . S
C88 C85 1.453 . S
C88 H112 0.982 . S
C88 H113 0.979 . S
C88 H114 0.977 . S
C89 C85 1.684 . S
C89 H115 0.979 . S
C89 H116 0.980 . S
C89 H117 0.983 . S
C90 H66 0.948 . S
C90 C91 1.391 . S
C90 C95 1.391 . S
C91 C90 1.391 . S
C91 C92 1.391 . S
C92 H69 0.947 . S
C92 C91 1.391 . S
C92 C93 1.392 . S
C93 H70 0.948 . S
C93 C92 1.392 . S
C93 C94 1.419 . S
C94 C93 1.419 . S
C94 C95 1.391 . S
C94 C98 1.397 . S
C95 C90 1.391 . S
C95 C94 1.391 . S
C95 C96 1.399 . S
C96 C95 1.399 . S
C96 C97 1.396 . S
C96 C99 1.453 . S
C96 C100 1.684 . S
C97 C87 1.723 . S
C97 C96 1.396 . S
C97 C98 1.394 . S
C98 C68 1.723 . S
C98 C94 1.397 . S
C98 C97 1.394 . S
C99 H71 0.982 . S
C99 H75 0.979 . S
C99 H76 0.977 . S
C99 C96 1.453 . S
C100 H72 0.979 . S
C100 H73 0.980 . S
C100 H74 0.983 . S
C100 C96 1.684 . S
H101 C119 0.948 . S
H102 C60 0.948 . S
H103 C78 0.979 . S
H104 C78 0.980 . S
H105 C78 0.983 . S
H106 C77 0.982 . S
H107 C77 0.979 . S
H108 C77 0.977 . S
H109 C79 0.948 . S
H110 C81 0.947 . S
H111 C82 0.948 . S
H112 C88 0.982 . S
H113 C88 0.979 . S
H114 C88 0.977 . S
H115 C89 0.979 . S
H116 C89 0.980 . S
H117 C89 0.983 . S
H118 C62 0.947 . S
C119 C62 1.392 . S
C119 C63 1.419 . S
C119 H101 0.948 . S
C120 C121 1.391 . S
C120 C124 1.391 . S
C120 H162 0.948 . S
C121 C120 1.391 . S
C121 C122 1.391 . S
C122 C121 1.391 . S
C122 H178 0.947 . S
C122 C179 1.392 . S
C123 C124 1.391 . S
C123 C127 1.397 . S
C123 C179 1.419 . S
C124 C120 1.391 . S
C124 C123 1.391 . S
C124 C125 1.399 . S
C125 C124 1.399 . S
C125 C128 1.396 . S
C125 C137 1.453 . S
C125 C138 1.684 . S
H126 C150 0.948 . S
C127 C123 1.397 . S
C127 C128 1.394 . S
C127 C146 1.723 . S
C128 C125 1.396 . S
C128 C127 1.394 . S
C128 C158 1.723 . S
H129 C152 0.947 . S
H130 C153 0.948 . S
H131 C159 0.982 . S
H132 C160 0.979 . S
H133 C160 0.980 . S
H134 C160 0.983 . S
H135 C159 0.979 . S
H136 C159 0.977 . S
C137 C125 1.453 . S
C137 H166 0.982 . S
C137 H167 0.979 . S
C137 H168 0.977 . S
C138 C125 1.684 . S
C138 H163 0.979 . S
C138 H164 0.980 . S
C138 H165 0.983 . S
C139 C140 1.391 . S
C139 C144 1.391 . S
C139 H169 0.948 . S
C140 C139 1.391 . S
C140 C141 1.391 . S
C141 C140 1.391 . S
C141 C142 1.392 . S
C141 H170 0.947 . S
C142 C141 1.392 . S
C142 C143 1.419 . S
C142 H171 0.948 . S
C143 C142 1.419 . S
C143 C144 1.391 . S
C143 C147 1.397 . S
C144 C139 1.391 . S
C144 C143 1.391 . S
C144 C145 1.399 . S
C145 C144 1.399 . S
C145 C146 1.396 . S
C145 C148 1.453 . S
C145 C149 1.684 . S
C146 C127 1.723 . S
C146 C145 1.396 . S
C146 C147 1.394 . S
C147 C143 1.397 . S
C147 C146 1.394 . S
C147 C157 1.723 . S
C148 C145 1.453 . S
C148 H172 0.982 . S
C148 H173 0.979 . S
C148 H174 0.977 . S
C149 C145 1.684 . S
C149 H175 0.979 . S
C149 H176 0.980 . S
C149 H177 0.983 . S
C150 H126 0.948 . S
C150 C151 1.391 . S
C150 C155 1.391 . S
C151 C150 1.391 . S
C151 C152 1.391 . S
C152 H129 0.947 . S
C152 C151 1.391 . S
C152 C153 1.392 . S
C153 H130 0.948 . S
C153 C152 1.392 . S
C153 C154 1.419 . S
C154 C153 1.419 . S
C154 C155 1.391 . S
C154 C158 1.397 . S
C155 C150 1.391 . S
C155 C154 1.391 . S
C155 C156 1.399 . S
C156 C155 1.399 . S
C156 C157 1.396 . S
C156 C159 1.453 . S
C156 C160 1.684 . S
C157 C147 1.723 . S
C157 C156 1.396 . S
C157 C158 1.394 . S
C158 C128 1.723 . S
C158 C154 1.397 . S
C158 C157 1.394 . S
C159 H131 0.982 . S
C159 H135 0.979 . S
C159 H136 0.977 . S
C159 C156 1.453 . S
C160 H132 0.979 . S
C160 H133 0.980 . S
C160 H134 0.983 . S
C160 C156 1.684 . S
H161 C179 0.948 . S
H162 C120 0.948 . S
H163 C138 0.979 . S
H164 C138 0.980 . S
H165 C138 0.983 . S
H166 C137 0.982 . S
H167 C137 0.979 . S
H168 C137 0.977 . S
H169 C139 0.948 . S
H170 C141 0.947 . S
H171 C142 0.948 . S
H172 C148 0.982 . S
H173 C148 0.979 . S
H174 C148 0.977 . S
H175 C149 0.979 . S
H176 C149 0.980 . S
H177 C149 0.983 . S
H178 C122 0.947 . S
C179 C122 1.392 . S
C179 C123 1.419 . S
C179 H161 0.948 . S
C180 C181 1.391 . S
C180 C184 1.391 . S
C180 H222 0.948 . S
C181 C180 1.391 . S
C181 C182 1.391 . S
C182 C181 1.391 . S
C182 H238 0.947 . S
C182 C239 1.392 . S
C183 C184 1.391 . S
C183 C187 1.397 . S
C183 C239 1.419 . S
C184 C180 1.391 . S
C184 C183 1.391 . S
C184 C185 1.399 . S
C185 C184 1.399 . S
C185 C188 1.396 . S
C185 C197 1.453 . S
C185 C198 1.684 . S
H186 C210 0.948 . S
C187 C183 1.397 . S
C187 C188 1.394 . S
C187 C206 1.723 . S
C188 C185 1.396 . S
C188 C187 1.394 . S
C188 C218 1.723 . S
H189 C212 0.947 . S
H190 C213 0.948 . S
H191 C219 0.982 . S
H192 C220 0.979 . S
H193 C220 0.980 . S
H194 C220 0.983 . S
H195 C219 0.979 . S
H196 C219 0.977 . S
C197 C185 1.453 . S
C197 H226 0.982 . S
C197 H227 0.979 . S
C197 H228 0.977 . S
C198 C185 1.684 . S
C198 H223 0.979 . S
C198 H224 0.980 . S
C198 H225 0.983 . S
C199 C200 1.391 . S
C199 C204 1.391 . S
C199 H229 0.948 . S
C200 C199 1.391 . S
C200 C201 1.391 . S
C201 C200 1.391 . S
C201 C202 1.392 . S
C201 H230 0.947 . S
C202 C201 1.392 . S
C202 C203 1.419 . S
C202 H231 0.948 . S
C203 C202 1.419 . S
C203 C204 1.391 . S
C203 C207 1.397 . S
C204 C199 1.391 . S
C204 C203 1.391 . S
C204 C205 1.399 . S
C205 C204 1.399 . S
C205 C206 1.396 . S
C205 C208 1.453 . S
C205 C209 1.684 . S
C206 C187 1.723 . S
C206 C205 1.396 . S
C206 C207 1.394 . S
C207 C203 1.397 . S
C207 C206 1.394 . S
C207 C217 1.723 . S
C208 C205 1.453 . S
C208 H232 0.982 . S
C208 H233 0.979 . S
C208 H234 0.977 . S
C209 C205 1.684 . S
C209 H235 0.979 . S
C209 H236 0.980 . S
C209 H237 0.983 . S
C210 H186 0.948 . S
C210 C211 1.391 . S
C210 C215 1.391 . S
C211 C210 1.391 . S
C211 C212 1.391 . S
C212 H189 0.947 . S
C212 C211 1.391 . S
C212 C213 1.392 . S
C213 H190 0.948 . S
C213 C212 1.392 . S
C213 C214 1.419 . S
C214 C213 1.419 . S
C214 C215 1.391 . S
C214 C218 1.397 . S
C215 C210 1.391 . S
C215 C214 1.391 . S
C215 C216 1.399 . S
C216 C215 1.399 . S
C216 C217 1.396 . S
C216 C219 1.453 . S
C216 C220 1.684 . S
C217 C207 1.723 . S
C217 C216 1.396 . S
C217 C218 1.394 . S
C218 C188 1.723 . S
C218 C214 1.397 . S
C218 C217 1.394 . S
C219 H191 0.982 . S
C219 H195 0.979 . S
C219 H196 0.977 . S
C219 C216 1.453 . S
C220 H192 0.979 . S
C220 H193 0.980 . S
C220 H194 0.983 . S
C220 C216 1.684 . S
H221 C239 0.948 . S
H222 C180 0.948 . S
H223 C198 0.979 . S
H224 C198 0.980 . S
H225 C198 0.983 . S
H226 C197 0.982 . S
H227 C197 0.979 . S
H228 C197 0.977 . S
H229 C199 0.948 . S
H230 C201 0.947 . S
H231 C202 0.948 . S
H232 C208 0.982 . S
H233 C208 0.979 . S
H234 C208 0.977 . S
H235 C209 0.979 . S
H236 C209 0.980 . S
H237 C209 0.983 . S
H238 C182 0.947 . S
C239 C182 1.392 . S
C239 C183 1.419 . S
C239 H221 0.948 . S
C240 C241 1.391 . S
C240 C244 1.391 . S
C240 H282 0.948 . S
C241 C240 1.391 . S
C241 C242 1.391 . S
C242 C241 1.391 . S
C242 H298 0.947 . S
C242 C299 1.392 . S
C243 C244 1.391 . S
C243 C247 1.397 . S
C243 C299 1.419 . S
C244 C240 1.391 . S
C244 C243 1.391 . S
C244 C245 1.399 . S
C245 C244 1.399 . S
C245 C248 1.396 . S
C245 C257 1.453 . S
C245 C258 1.684 . S
H246 C270 0.948 . S
C247 C243 1.397 . S
C247 C248 1.394 . S
C247 C266 1.723 . S
C248 C245 1.396 . S
C248 C247 1.394 . S
C248 C278 1.723 . S
H249 C272 0.947 . S
H250 C273 0.948 . S
H251 C279 0.982 . S
H252 C280 0.979 . S
H253 C280 0.980 . S
H254 C280 0.983 . S
H255 C279 0.979 . S
H256 C279 0.977 . S
C257 C245 1.453 . S
C257 H286 0.982 . S
C257 H287 0.979 . S
C257 H288 0.977 . S
C258 C245 1.684 . S
C258 H283 0.979 . S
C258 H284 0.980 . S
C258 H285 0.983 . S
C259 C260 1.391 . S
C259 C264 1.391 . S
C259 H289 0.948 . S
C260 C259 1.391 . S
C260 C261 1.391 . S
C261 C260 1.391 . S
C261 C262 1.392 . S
C261 H290 0.947 . S
C262 C261 1.392 . S
C262 C263 1.419 . S
C262 H291 0.948 . S
C263 C262 1.419 . S
C263 C264 1.391 . S
C263 C267 1.397 . S
C264 C259 1.391 . S
C264 C263 1.391 . S
C264 C265 1.399 . S
C265 C264 1.399 . S
C265 C266 1.396 . S
C265 C268 1.453 . S
C265 C269 1.684 . S
C266 C247 1.723 . S
C266 C265 1.396 . S
C266 C267 1.394 . S
C267 C263 1.397 . S
C267 C266 1.394 . S
C267 C277 1.723 . S
C268 C265 1.453 . S
C268 H292 0.982 . S
C268 H293 0.979 . S
C268 H294 0.977 . S
C269 C265 1.684 . S
C269 H295 0.979 . S
C269 H296 0.980 . S
C269 H297 0.983 . S
C270 H246 0.948 . S
C270 C271 1.391 . S
C270 C275 1.391 . S
C271 C270 1.391 . S
C271 C272 1.391 . S
C272 H249 0.947 . S
C272 C271 1.391 . S
C272 C273 1.392 . S
C273 H250 0.948 . S
C273 C272 1.392 . S
C273 C274 1.419 . S
C274 C273 1.419 . S
C274 C275 1.391 . S
C274 C278 1.397 . S
C275 C270 1.391 . S
C275 C274 1.391 . S
C275 C276 1.399 . S
C276 C275 1.399 . S
C276 C277 1.396 . S
C276 C279 1.453 . S
C276 C280 1.684 . S
C277 C267 1.723 . S
C277 C276 1.396 . S
C277 C278 1.394 . S
C278 C248 1.723 . S
C278 C274 1.397 . S
C278 C277 1.394 . S
C279 H251 0.982 . S
C279 H255 0.979 . S
C279 H256 0.977 . S
C279 C276 1.453 . S
C280 H252 0.979 . S
C280 H253 0.980 . S
C280 H254 0.983 . S
C280 C276 1.684 . S
H281 C299 0.948 . S
H282 C240 0.948 . S
H283 C258 0.979 . S
H284 C258 0.980 . S
H285 C258 0.983 . S
H286 C257 0.982 . S
H287 C257 0.979 . S
H288 C257 0.977 . S
H289 C259 0.948 . S
H290 C261 0.947 . S
H291 C262 0.948 . S
H292 C268 0.982 . S
H293 C268 0.979 . S
H294 C268 0.977 . S
H295 C269 0.979 . S
H296 C269 0.980 . S
H297 C269 0.983 . S
H298 C242 0.947 . S
C299 C242 1.392 . S
C299 C243 1.419 . S
C299 H281 0.948 . S
C300 C301 1.391 . S
C300 C304 1.391 . S
C300 H342 0.948 . S
C301 C300 1.391 . S
C301 C302 1.391 . S
C302 C301 1.391 . S
C302 H358 0.947 . S
C302 C359 1.392 . S
C303 C304 1.391 . S
C303 C307 1.397 . S
C303 C359 1.419 . S
C304 C300 1.391 . S
C304 C303 1.391 . S
C304 C305 1.399 . S
C305 C304 1.399 . S
C305 C308 1.396 . S
C305 C317 1.453 . S
C305 C318 1.684 . S
H306 C330 0.948 . S
C307 C303 1.397 . S
C307 C308 1.394 . S
C307 C326 1.723 . S
C308 C305 1.396 . S
C308 C307 1.394 . S
C308 C338 1.723 . S
H309 C332 0.947 . S
H310 C333 0.948 . S
H311 C339 0.982 . S
H312 C340 0.979 . S
H313 C340 0.980 . S
H314 C340 0.983 . S
H315 C339 0.979 . S
H316 C339 0.977 . S
C317 C305 1.453 . S
C317 H346 0.982 . S
C317 H347 0.979 . S
C317 H348 0.977 . S
C318 C305 1.684 . S
C318 H343 0.979 . S
C318 H344 0.980 . S
C318 H345 0.983 . S
C319 C320 1.391 . S
C319 C324 1.391 . S
C319 H349 0.948 . S
C320 C319 1.391 . S
C320 C321 1.391 . S
C321 C320 1.391 . S
C321 C322 1.392 . S
C321 H350 0.947 . S
C322 C321 1.392 . S
C322 C323 1.419 . S
C322 H351 0.948 . S
C323 C322 1.419 . S
C323 C324 1.391 . S
C323 C327 1.397 . S
C324 C319 1.391 . S
C324 C323 1.391 . S
C324 C325 1.399 . S
C325 C324 1.399 . S
C325 C326 1.396 . S
C325 C328 1.453 . S
C325 C329 1.684 . S
C326 C307 1.723 . S
C326 C325 1.396 . S
C326 C327 1.394 . S
C327 C323 1.397 . S
C327 C326 1.394 . S
C327 C337 1.723 . S
C328 C325 1.453 . S
C328 H352 0.982 . S
C328 H353 0.979 . S
C328 H354 0.977 . S
C329 C325 1.684 . S
C329 H355 0.979 . S
C329 H356 0.980 . S
C329 H357 0.983 . S
C330 H306 0.948 . S
C330 C331 1.391 . S
C330 C335 1.391 . S
C331 C330 1.391 . S
C331 C332 1.391 . S
C332 H309 0.947 . S
C332 C331 1.391 . S
C332 C333 1.392 . S
C333 H310 0.948 . S
C333 C332 1.392 . S
C333 C334 1.419 . S
C334 C333 1.419 . S
C334 C335 1.391 . S
C334 C338 1.397 . S
C335 C330 1.391 . S
C335 C334 1.391 . S
C335 C336 1.399 . S
C336 C335 1.399 . S
C336 C337 1.396 . S
C336 C339 1.453 . S
C336 C340 1.684 . S
C337 C327 1.723 . S
C337 C336 1.396 . S
C337 C338 1.394 . S
C338 C308 1.723 . S
C338 C334 1.397 . S
C338 C337 1.394 . S
C339 H311 0.982 . S
C339 H315 0.979 . S
C339 H316 0.977 . S
C339 C336 1.453 . S
C340 H312 0.979 . S
C340 H313 0.980 . S
C340 H314 0.983 . S
C340 C336 1.684 . S
H341 C359 0.948 . S
H342 C300 0.948 . S
H343 C318 0.979 . S
H344 C318 0.980 . S
H345 C318 0.983 . S
H346 C317 0.982 . S
H347 C317 0.979 . S
H348 C317 0.977 . S
H349 C319 0.948 . S
H350 C321 0.947 . S
H351 C322 0.948 . S
H352 C328 0.982 . S
H353 C328 0.979 . S
H354 C328 0.977 . S
H355 C329 0.979 . S
H356 C329 0.980 . S
H357 C329 0.983 . S
H358 C302 0.947 . S
C359 C302 1.392 . S
C359 C303 1.419 . S
C359 H341 0.948 . S
C360 C361 1.391 . S
C360 C364 1.391 . S
C360 H402 0.948 . S
C361 C360 1.391 . S
C361 C362 1.391 . S
C362 C361 1.391 . S
C362 H418 0.947 . S
C362 C419 1.392 . S
C363 C364 1.391 . S
C363 C367 1.397 . S
C363 C419 1.419 . S
C364 C360 1.391 . S
C364 C363 1.391 . S
C364 C365 1.399 . S
C365 C364 1.399 . S
C365 C368 1.396 . S
C365 C377 1.453 . S
C365 C378 1.684 . S
H366 C390 0.948 . S
C367 C363 1.397 . S
C367 C368 1.394 . S
C367 C386 1.723 . S
C368 C365 1.396 . S
C368 C367 1.394 . S
C368 C398 1.723 . S
H369 C392 0.947 . S
H370 C393 0.948 . S
H371 C399 0.982 . S
H372 C400 0.979 . S
H373 C400 0.980 . S
H374 C400 0.983 . S
H375 C399 0.979 . S
H376 C399 0.977 . S
C377 C365 1.453 . S
C377 H406 0.982 . S
C377 H407 0.979 . S
C377 H408 0.977 . S
C378 C365 1.684 . S
C378 H403 0.979 . S
C378 H404 0.980 . S
C378 H405 0.983 . S
C379 C380 1.391 . S
C379 C384 1.391 . S
C379 H409 0.948 . S
C380 C379 1.391 . S
C380 C381 1.391 . S
C381 C380 1.391 . S
C381 C382 1.392 . S
C381 H410 0.947 . S
C382 C381 1.392 . S
C382 C383 1.419 . S
C382 H411 0.948 . S
C383 C382 1.419 . S
C383 C384 1.391 . S
C383 C387 1.397 . S
C384 C379 1.391 . S
C384 C383 1.391 . S
C384 C385 1.399 . S
C385 C384 1.399 . S
C385 C386 1.396 . S
C385 C388 1.453 . S
C385 C389 1.684 . S
C386 C367 1.723 . S
C386 C385 1.396 . S
C386 C387 1.394 . S
C387 C383 1.397 . S
C387 C386 1.394 . S
C387 C397 1.723 . S
C388 C385 1.453 . S
C388 H412 0.982 . S
C388 H413 0.979 . S
C388 H414 0.977 . S
C389 C385 1.684 . S
C389 H415 0.979 . S
C389 H416 0.980 . S
C389 H417 0.983 . S
C390 H366 0.948 . S
C390 C391 1.391 . S
C390 C395 1.391 . S
C391 C390 1.391 . S
C391 C392 1.391 . S
C392 H369 0.947 . S
C392 C391 1.391 . S
C392 C393 1.392 . S
C393 H370 0.948 . S
C393 C392 1.392 . S
C393 C394 1.419 . S
C394 C393 1.419 . S
C394 C395 1.391 . S
C394 C398 1.397 . S
C395 C390 1.391 . S
C395 C394 1.391 . S
C395 C396 1.399 . S
C396 C395 1.399 . S
C396 C397 1.396 . S
C396 C399 1.453 . S
C396 C400 1.684 . S
C397 C387 1.723 . S
C397 C396 1.396 . S
C397 C398 1.394 . S
C398 C368 1.723 . S
C398 C394 1.397 . S
C398 C397 1.394 . S
C399 H371 0.982 . S
C399 H375 0.979 . S
C399 H376 0.977 . S
C399 C396 1.453 . S
C400 H372 0.979 . S
C400 H373 0.980 . S
C400 H374 0.983 . S
C400 C396 1.684 . S
H401 C419 0.948 . S
H402 C360 0.948 . S
H403 C378 0.979 . S
H404 C378 0.980 . S
H405 C378 0.983 . S
H406 C377 0.982 . S
H407 C377 0.979 . S
H408 C377 0.977 . S
H409 C379 0.948 . S
H410 C381 0.947 . S
H411 C382 0.948 . S
H412 C388 0.982 . S
H413 C388 0.979 . S
H414 C388 0.977 . S
H415 C389 0.979 . S
H416 C389 0.980 . S
H417 C389 0.983 . S
H418 C362 0.947 . S
C419 C362 1.392 . S
C419 C363 1.419 . S
C419 H401 0.948 . S
C420 C421 1.391 . S
C420 C424 1.391 . S
C420 H462 0.948 . S
C421 C420 1.391 . S
C421 C422 1.391 . S
C422 C421 1.391 . S
C422 H478 0.947 . S
C422 C479 1.392 . S
C423 C424 1.391 . S
C423 C427 1.397 . S
C423 C479 1.419 . S
C424 C420 1.391 . S
C424 C423 1.391 . S
C424 C425 1.399 . S
C425 C424 1.399 . S
C425 C428 1.396 . S
C425 C437 1.453 . S
C425 C438 1.684 . S
H426 C450 0.948 . S
C427 C423 1.397 . S
C427 C428 1.394 . S
C427 C446 1.723 . S
C428 C425 1.396 . S
C428 C427 1.394 . S
C428 C458 1.723 . S
H429 C452 0.947 . S
H430 C453 0.948 . S
H431 C459 0.982 . S
H432 C460 0.979 . S
H433 C460 0.980 . S
H434 C460 0.983 . S
H435 C459 0.979 . S
H436 C459 0.977 . S
C437 C425 1.453 . S
C437 H466 0.982 . S
C437 H467 0.979 . S
C437 H468 0.977 . S
C438 C425 1.684 . S
C438 H463 0.979 . S
C438 H464 0.980 . S
C438 H465 0.983 . S
C439 C440 1.391 . S
C439 C444 1.391 . S
C439 H469 0.948 . S
C440 C439 1.391 . S
C440 C441 1.391 . S
C441 C440 1.391 . S
C441 C442 1.392 . S
C441 H470 0.947 . S
C442 C441 1.392 . S
C442 C443 1.419 . S
C442 H471 0.948 . S
C443 C442 1.419 . S
C443 C444 1.391 . S
C443 C447 1.397 . S
C444 C439 1.391 . S
C444 C443 1.391 . S
C444 C445 1.399 . S
C445 C444 1.399 . S
C445 C446 1.396 . S
C445 C448 1.453 . S
C445 C449 1.684 . S
C446 C427 1.723 . S
C446 C445 1.396 . S
C446 C447 1.394 . S
C447 C443 1.397 . S
C447 C446 1.394 . S
C447 C457 1.723 . S
C448 C445 1.453 . S
C448 H472 0.982 . S
C448 H473 0.979 . S
C448 H474 0.977 . S
C449 C445 1.684 . S
C449 H475 0.979 . S
C449 H476 0.980 . S
C449 H477 0.983 . S
C450 H426 0.948 . S
C450 C451 1.391 . S
C450 C455 1.391 . S
C451 C450 1.391 . S
C451 C452 1.391 . S
C452 H429 0.947 . S
C452 C451 1.391 . S
C452 C453 1.392 . S
C453 H430 0.948 . S
C453 C452 1.392 . S
C453 C454 1.419 . S
C454 C453 1.419 . S
C454 C455 1.391 . S
C454 C458 1.397 . S
C455 C450 1.391 . S
C455 C454 1.391 . S
C455 C456 1.399 . S
C456 C455 1.399 . S
C456 C457 1.396 . S
C456 C459 1.453 . S
C456 C460 1.684 . S
C457 C447 1.723 . S
C457 C456 1.396 . S
C457 C458 1.394 . S
C458 C428 1.723 . S
C458 C454 1.397 . S
C458 C457 1.394 . S
C459 H431 0.982 . S
C459 H435 0.979 . S
C459 H436 0.977 . S
C459 C456 1.453 . S
C460 H432 0.979 . S
C460 H433 0.980 . S
C460 H434 0.983 . S
C460 C456 1.684 . S
H461 C479 0.948 . S
H462 C420 0.948 . S
H463 C438 0.979 . S
H464 C438 0.980 . S
H465 C438 0.983 . S
H466 C437 0.982 . S
H467 C437 0.979 . S
H468 C437 0.977 . S
H469 C439 0.948 . S
H470 C441 0.947 . S
H471 C442 0.948 . S
H472 C448 0.982 . S
H473 C448 0.979 . S
H474 C448 0.977 . S
H475 C449 0.979 . S
H476 C449 0.980 . S
H477 C449 0.983 . S
H478 C422 0.947 . S
C479 C422 1.392 . S
C479 C423 1.419 . S
C479 H461 0.948 . S
C480 C481 1.391 . S
C480 C484 1.391 . S
C480 H522 0.948 . S
C481 C480 1.391 . S
C481 C482 1.391 . S
C482 C481 1.391 . S
C482 H538 0.947 . S
C482 C539 1.392 . S
C483 C484 1.391 . S
C483 C487 1.397 . S
C483 C539 1.419 . S
C484 C480 1.391 . S
C484 C483 1.391 . S
C484 C485 1.399 . S
C485 C484 1.399 . S
C485 C488 1.396 . S
C485 C497 1.453 . S
C485 C498 1.684 . S
H486 C510 0.948 . S
C487 C483 1.397 . S
C487 C488 1.394 . S
C487 C506 1.723 . S
C488 C485 1.396 . S
C488 C487 1.394 . S
C488 C518 1.723 . S
H489 C512 0.947 . S
H490 C513 0.948 . S
H491 C519 0.982 . S
H492 C520 0.979 . S
H493 C520 0.980 . S
H494 C520 0.983 . S
H495 C519 0.979 . S
H496 C519 0.977 . S
C497 C485 1.453 . S
C497 H526 0.982 . S
C497 H527 0.979 . S
C497 H528 0.977 . S
C498 C485 1.684 . S
C498 H523 0.979 . S
C498 H524 0.980 . S
C498 H525 0.983 . S
C499 C500 1.391 . S
C499 C504 1.391 . S
C499 H529 0.948 . S
C500 C499 1.391 . S
C500 C501 1.391 . S
C501 C500 1.391 . S
C501 C502 1.392 . S
C501 H530 0.947 . S
C502 C501 1.392 . S
C502 C503 1.419 . S
C502 H531 0.948 . S
C503 C502 1.419 . S
C503 C504 1.391 . S
C503 C507 1.397 . S
C504 C499 1.391 . S
C504 C503 1.391 . S
C504 C505 1.399 . S
C505 C504 1.399 . S
C505 C506 1.396 . S
C505 C508 1.453 . S
C505 C509 1.684 . S
C506 C487 1.723 . S
C506 C505 1.396 . S
C506 C507 1.394 . S
C507 C503 1.397 . S
C507 C506 1.394 . S
C507 C517 1.723 . S
C508 C505 1.453 . S
C508 H532 0.982 . S
C508 H533 0.979 . S
C508 H534 0.977 . S
C509 C505 1.684 . S
C509 H535 0.979 . S
C509 H536 0.980 . S
C509 H537 0.983 . S
C510 H486 0.948 . S
C510 C511 1.391 . S
C510 C515 1.391 . S
C511 C510 1.391 . S
C511 C512 1.391 . S
C512 H489 0.947 . S
C512 C511 1.391 . S
C512 C513 1.392 . S
C513 H490 0.948 . S
C513 C512 1.392 . S
C513 C514 1.419 . S
C514 C513 1.419 . S
C514 C515 1.391 . S
C514 C518 1.397 . S
C515 C510 1.391 . S
C515 C514 1.391 . S
C515 C516 1.399 . S
C516 C515 1.399 . S
C516 C517 1.396 . S
C516 C519 1.453 . S
C516 C520 1.684 . S
C517 C507 1.723 . S
C517 C516 1.396 . S
C517 C518 1.394 . S
C518 C488 1.723 . S
C518 C514 1.397 . S
C518 C517 1.394 . S
C519 H491 0.982 . S
C519 H495 0.979 . S
C519 H496 0.977 . S
C519 C516 1.453 . S
C520 H492 0.979 . S
C520 H493 0.980 . S
C520 H494 0.983 . S
C520 C516 1.684 . S
H521 C539 0.948 . S
H522 C480 0.948 . S
H523 C498 0.979 . S
H524 C498 0.980 . S
H525 C498 0.983 . S
H526 C497 0.982 . S
H527 C497 0.979 . S
H528 C497 0.977 . S
H529 C499 0.948 . S
H530 C501 0.947 . S
H531 C502 0.948 . S
H532 C508 0.982 . S
H533 C508 0.979 . S
H534 C508 0.977 . S
H535 C509 0.979 . S
H536 C509 0.980 . S
H537 C509 0.983 . S
H538 C482 0.947 . S
C539 C482 1.392 . S
C539 C483 1.419 . S
C539 H521 0.948 . S
C540 C541 1.391 . S
C540 C544 1.391 . S
C540 H582 0.948 . S
C541 C540 1.391 . S
C541 C542 1.391 . S
C542 C541 1.391 . S
C542 H598 0.947 . S
C542 C599 1.392 . S
C543 C544 1.391 . S
C543 C547 1.397 . S
C543 C599 1.419 . S
C544 C540 1.391 . S
C544 C543 1.391 . S
C544 C545 1.399 . S
C545 C544 1.399 . S
C545 C548 1.396 . S
C545 C557 1.453 . S
C545 C558 1.684 . S
H546 C570 0.948 . S
C547 C543 1.397 . S
C547 C548 1.394 . S
C547 C566 1.723 . S
C548 C545 1.396 . S
C548 C547 1.394 . S
C548 C578 1.723 . S
H549 C572 0.947 . S
H550 C573 0.948 . S
H551 C579 0.982 . S
H552 C580 0.979 . S
H553 C580 0.980 . S
H554 C580 0.983 . S
H555 C579 0.979 . S
H556 C579 0.977 . S
C557 C545 1.453 . S
C557 H586 0.982 . S
C557 H587 0.979 . S
C557 H588 0.977 . S
C558 C545 1.684 . S
C558 H583 0.979 . S
C558 H584 0.980 . S
C558 H585 0.983 . S
C559 C560 1.391 . S
C559 C564 1.391 . S
C559 H589 0.948 . S
C560 C559 1.391 . S
C560 C561 1.391 . S
C561 C560 1.391 . S
C561 C562 1.392 . S
C561 H590 0.947 . S
C562 C561 1.392 . S
C562 C563 1.419 . S
C562 H591 0.948 . S
C563 C562 1.419 . S
C563 C564 1.391 . S
C563 C567 1.397 . S
C564 C559 1.391 . S
C564 C563 1.391 . S
C564 C565 1.399 . S
C565 C564 1.399 . S
C565 C566 1.396 . S
C565 C568 1.453 . S
C565 C569 1.684 . S
C566 C547 1.723 . S
C566 C565 1.396 . S
C566 C567 1.394 . S
C567 C563 1.397 . S
C567 C566 1.394 . S
C567 C577 1.723 . S
C568 C565 1.453 . S
C568 H592 0.982 . S
C568 H593 0.979 . S
C568 H594 0.977 . S
C569 C565 1.684 . S
C569 H595 0.979 . S
C569 H596 0.980 . S
C569 H597 0.983 . S
C570 H546 0.948 . S
C570 C571 1.391 . S
C570 C575 1.391 . S
C571 C570 1.391 . S
C571 C572 1.391 . S
C572 H549 0.947 . S
C572 C571 1.391 . S
C572 C573 1.392 . S
C573 H550 0.948 . S
C573 C572 1.392 . S
C573 C574 1.419 . S
C574 C573 1.419 . S
C574 C575 1.391 . S
C574 C578 1.397 . S
C575 C570 1.391 . S
C575 C574 1.391 . S
C575 C576 1.399 . S
C576 C575 1.399 . S
C576 C577 1.396 . S
C576 C579 1.453 . S
C576 C580 1.684 . S
C577 C567 1.723 . S
C577 C576 1.396 . S
C577 C578 1.394 . S
C578 C548 1.723 . S
C578 C574 1.397 . S
C578 C577 1.394 . S
C579 H551 0.982 . S
C579 H555 0.979 . S
C579 H556 0.977 . S
C579 C576 1.453 . S
C580 H552 0.979 . S
C580 H553 0.980 . S
C580 H554 0.983 . S
C580 C576 1.684 . S
H581 C599 0.948 . S
H582 C540 0.948 . S
H583 C558 0.979 . S
H584 C558 0.980 . S
H585 C558 0.983 . S
H586 C557 0.982 . S
H587 C557 0.979 . S
H588 C557 0.977 . S
H589 C559 0.948 . S
H590 C561 0.947 . S
H591 C562 0.948 . S
H592 C568 0.982 . S
H593 C568 0.979 . S
H594 C568 0.977 . S
H595 C569 0.979 . S
H596 C569 0.980 . S
H597 C569 0.983 . S
H598 C542 0.947 . S
C599 C542 1.392 . S
C599 C543 1.419 . S
C599 H581 0.948 . S
C600 C601 1.391 . S
C600 C604 1.391 . S
C600 H642 0.948 . S
C601 C600 1.391 . S
C601 C602 1.391 . S
C602 C601 1.391 . S
C602 H658 0.947 . S
C602 C659 1.392 . S
C603 C604 1.391 . S
C603 C607 1.397 . S
C603 C659 1.419 . S
C604 C600 1.391 . S
C604 C603 1.391 . S
C604 C605 1.399 . S
C605 C604 1.399 . S
C605 C608 1.396 . S
C605 C617 1.453 . S
C605 C618 1.684 . S
H606 C630 0.948 . S
C607 C603 1.397 . S
C607 C608 1.394 . S
C607 C626 1.723 . S
C608 C605 1.396 . S
C608 C607 1.394 . S
C608 C638 1.723 . S
H609 C632 0.947 . S
H610 C633 0.948 . S
H611 C639 0.982 . S
H612 C640 0.979 . S
H613 C640 0.980 . S
H614 C640 0.983 . S
H615 C639 0.979 . S
H616 C639 0.977 . S
C617 C605 1.453 . S
C617 H646 0.982 . S
C617 H647 0.979 . S
C617 H648 0.977 . S
C618 C605 1.684 . S
C618 H643 0.979 . S
C618 H644 0.980 . S
C618 H645 0.983 . S
C619 C620 1.391 . S
C619 C624 1.391 . S
C619 H649 0.948 . S
C620 C619 1.391 . S
C620 C621 1.391 . S
C621 C620 1.391 . S
C621 C622 1.392 . S
C621 H650 0.947 . S
C622 C621 1.392 . S
C622 C623 1.419 . S
C622 H651 0.948 . S
C623 C622 1.419 . S
C623 C624 1.391 . S
C623 C627 1.397 . S
C624 C619 1.391 . S
C624 C623 1.391 . S
C624 C625 1.399 . S
C625 C624 1.399 . S
C625 C626 1.396 . S
C625 C628 1.453 . S
C625 C629 1.684 . S
C626 C607 1.723 . S
C626 C625 1.396 . S
C626 C627 1.394 . S
C627 C623 1.397 . S
C627 C626 1.394 . S
C627 C637 1.723 . S
C628 C625 1.453 . S
C628 H652 0.982 . S
C628 H653 0.979 . S
C628 H654 0.977 . S
C629 C625 1.684 . S
C629 H655 0.979 . S
C629 H656 0.980 . S
C629 H657 0.983 . S
C630 H606 0.948 . S
C630 C631 1.391 . S
C630 C635 1.391 . S
C631 C630 1.391 . S
C631 C632 1.391 . S
C632 H609 0.947 . S
C632 C631 1.391 . S
C632 C633 1.392 . S
C633 H610 0.948 . S
C633 C632 1.392 . S
C633 C634 1.419 . S
C634 C633 1.419 . S
C634 C635 1.391 . S
C634 C638 1.397 . S
C635 C630 1.391 . S
C635 C634 1.391 . S
C635 C636 1.399 . S
C636 C635 1.399 . S
C636 C637 1.396 . S
C636 C639 1.453 . S
C636 C640 1.684 . S
C637 C627 1.723 . S
C637 C636 1.396 . S
C637 C638 1.394 . S
C638 C608 1.723 . S
C638 C634 1.397 . S
C638 C637 1.394 . S
C639 H611 0.982 . S
C639 H615 0.979 . S
C639 H616 0.977 . S
C639 C636 1.453 . S
C640 H612 0.979 . S
C640 H613 0.980 . S
C640 H614 0.983 . S
C640 C636 1.684 . S
H641 C659 0.948 . S
H642 C600 0.948 . S
H643 C618 0.979 . S
H644 C618 0.980 . S
H645 C618 0.983 . S
H646 C617 0.982 . S
H647 C617 0.979 . S
H648 C617 0.977 . S
H649 C619 0.948 . S
H650 C621 0.947 . S
H651 C622 0.948 . S
H652 C628 0.982 . S
H653 C628 0.979 . S
H654 C628 0.977 . S
H655 C629 0.979 . S
H656 C629 0.980 . S
H657 C629 0.983 . S
H658 C602 0.947 . S
C659 C602 1.392 . S
C659 C603 1.419 . S
C659 H641 0.948 . S
C660 C661 1.391 . S
C660 C664 1.391 . S
C660 H702 0.948 . S
C661 C660 1.391 . S
C661 C662 1.391 . S
C662 C661 1.391 . S
C662 H718 0.947 . S
C662 C719 1.392 . S
C663 C664 1.391 . S
C663 C667 1.397 . S
C663 C719 1.419 . S
C664 C660 1.391 . S
C664 C663 1.391 . S
C664 C665 1.399 . S
C665 C664 1.399 . S
C665 C668 1.396 . S
C665 C677 1.453 . S
C665 C678 1.684 . S
H666 C690 0.948 . S
C667 C663 1.397 . S
C667 C668 1.394 . S
C667 C686 1.723 . S
C668 C665 1.396 . S
C668 C667 1.394 . S
C668 C698 1.723 . S
H669 C692 0.947 . S
H670 C693 0.948 . S
H671 C699 0.982 . S
H672 C700 0.979 . S
H673 C700 0.980 . S
H674 C700 0.983 . S
H675 C699 0.979 . S
H676 C699 0.977 . S
C677 C665 1.453 . S
C677 H706 0.982 . S
C677 H707 0.979 . S
C677 H708 0.977 . S
C678 C665 1.684 . S
C678 H703 0.979 . S
C678 H704 0.980 . S
C678 H705 0.983 . S
C679 C680 1.391 . S
C679 C684 1.391 . S
C679 H709 0.948 . S
C680 C679 1.391 . S
C680 C681 1.391 . S
C681 C680 1.391 . S
C681 C682 1.392 . S
C681 H710 0.947 . S
C682 C681 1.392 . S
C682 C683 1.419 . S
C682 H711 0.948 . S
C683 C682 1.419 . S
C683 C684 1.391 . S
C683 C687 1.397 . S
C684 C679 1.391 . S
C684 C683 1.391 . S
C684 C685 1.399 . S
C685 C684 1.399 . S
C685 C686 1.396 . S
C685 C688 1.453 . S
C685 C689 1.684 . S
C686 C667 1.723 . S
C686 C685 1.396 . S
C686 C687 1.394 . S
C687 C683 1.397 . S
C687 C686 1.394 . S
C687 C697 1.723 . S
C688 C685 1.453 . S
C688 H712 0.982 . S
C688 H713 0.979 . S
C688 H714 0.977 . S
C689 C685 1.684 . S
C689 H715 0.979 . S
C689 H716 0.980 . S
C689 H717 0.983 . S
C690 H666 0.948 . S
C690 C691 1.391 . S
C690 C695 1.391 . S
C691 C690 1.391 . S
C691 C692 1.391 . S
C692 H669 0.947 . S
C692 C691 1.391 . S
C692 C693 1.392 . S
C693 H670 0.948 . S
C693 C692 1.392 . S
C693 C694 1.419 . S
C694 C693 1.419 . S
C694 C695 1.391 . S
C694 C698 1.397 . S
C695 C690 1.391 . S
C695 C694 1.391 . S
C695 C696 1.399 . S
C696 C695 1.399 . S
C696 C697 1.396 . S
C696 C699 1.453 . S
C696 C700 1.684 . S
C697 C687 1.723 . S
C697 C696 1.396 . S
C697 C698 1.394 . S
C698 C668 1.723 . S
C698 C694 1.397 . S
C698 C697 1.394 . S
C699 H671 0.982 . S
C699 H675 0.979 . S
C699 H676 0.977 . S
C699 C696 1.453 . S
C700 H672 0.979 . S
C700 H673 0.980 . S
C700 H674 0.983 . S
C700 C696 1.684 . S
H701 C719 0.948 . S
H702 C660 0.948 . S
H703 C678 0.979 . S
H704 C678 0.980 . S
H705 C678 0.983 . S
H706 C677 0.982 . S
H707 C677 0.979 . S
H708 C677 0.977 . S
H709 C679 0.948 . S
H710 C681 0.947 . S
H711 C682 0.948 . S
H712 C688 0.982 . S
H713 C688 0.979 . S
H714 C688 0.977 . S
H715 C689 0.979 . S
H716 C689 0.980 . S
H717 C689 0.983 . S
H718 C662 0.947 . S
C719 C662 1.392 . S
C719 C663 1.419 . S
C719 H701 0.948 . S
C720 C721 1.391 . S
C720 C724 1.391 . S
C720 H762 0.948 . S
C721 C720 1.391 . S
C721 C722 1.391 . S
C722 C721 1.391 . S
C722 H778 0.947 . S
C722 C779 1.392 . S
C723 C724 1.391 . S
C723 C727 1.397 . S
C723 C779 1.419 . S
C724 C720 1.391 . S
C724 C723 1.391 . S
C724 C725 1.399 . S
C725 C724 1.399 . S
C725 C728 1.396 . S
C725 C737 1.453 . S
C725 C738 1.684 . S
H726 C750 0.948 . S
C727 C723 1.397 . S
C727 C728 1.394 . S
C727 C746 1.723 . S
C728 C725 1.396 . S
C728 C727 1.394 . S
C728 C758 1.723 . S
H729 C752 0.947 . S
H730 C753 0.948 . S
H731 C759 0.982 . S
H732 C760 0.979 . S
H733 C760 0.980 . S
H734 C760 0.983 . S
H735 C759 0.979 . S
H736 C759 0.977 . S
C737 C725 1.453 . S
C737 H766 0.982 . S
C737 H767 0.979 . S
C737 H768 0.977 . S
C738 C725 1.684 . S
C738 H763 0.979 . S
C738 H764 0.980 . S
C738 H765 0.983 . S
C739 C740 1.391 . S
C739 C744 1.391 . S
C739 H769 0.948 . S
C740 C739 1.391 . S
C740 C741 1.391 . S
C741 C740 1.391 . S
C741 C742 1.392 . S
C741 H770 0.947 . S
C742 C741 1.392 . S
C742 C743 1.419 . S
C742 H771 0.948 . S
C743 C742 1.419 . S
C743 C744 1.391 . S
C743 C747 1.397 . S
C744 C739 1.391 . S
C744 C743 1.391 . S
C744 C745 1.399 . S
C745 C744 1.399 . S
C745 C746 1.396 . S
C745 C748 1.453 . S
C745 C749 1.684 . S
C746 C727 1.723 . S
C746 C745 1.396 . S
C746 C747 1.394 . S
C747 C743 1.397 . S
C747 C746 1.394 . S
C747 C757 1.723 . S
C748 C745 1.453 . S
C748 H772 0.982 . S
C748 H773 0.979 . S
C748 H774 0.977 . S
C749 C745 1.684 . S
C749 H775 0.979 . S
C749 H776 0.980 . S
C749 H777 0.983 . S
C750 H726 0.948 . S
C750 C751 1.391 . S
C750 C755 1.391 . S
C751 C750 1.391 . S
C751 C752 1.391 . S
C752 H729 0.947 . S
C752 C751 1.391 . S
C752 C753 1.392 . S
C753 H730 0.948 . S
C753 C752 1.392 . S
C753 C754 1.419 . S
C754 C753 1.419 . S
C754 C755 1.391 . S
C754 C758 1.397 . S
C755 C750 1.391 . S
C755 C754 1.391 . S
C755 C756 1.399 . S
C756 C755 1.399 . S
C756 C757 1.396 . S
C756 C759 1.453 . S
C756 C760 1.684 . S
C757 C747 1.723 . S
C757 C756 1.396 . S
C757 C758 1.394 . S
C758 C728 1.723 . S
C758 C754 1.397 . S
C758 C757 1.394 . S
C759 H731 0.982 . S
C759 H735 0.979 . S
C759 H736 0.977 . S
C759 C756 1.453 . S
C760 H732 0.979 . S
C760 H733 0.980 . S
C760 H734 0.983 . S
C760 C756 1.684 . S
H761 C779 0.948 . S
H762 C720 0.948 . S
H763 C738 0.979 . S
H764 C738 0.980 . S
H765 C738 0.983 . S
H766 C737 0.982 . S
H767 C737 0.979 . S
H768 C737 0.977 . S
H769 C739 0.948 . S
H770 C741 0.947 . S
H771 C742 0.948 . S
H772 C748 0.982 . S
H773 C748 0.979 . S
H774 C748 0.977 . S
H775 C749 0.979 . S
H776 C749 0.980 . S
H777 C749 0.983 . S
H778 C722 0.947 . S
C779 C722 1.392 . S
C779 C723 1.419 . S
C779 H761 0.948 . S
C780 C781 1.391 . S
C780 C784 1.391 . S
C780 H822 0.948 . S
C781 C780 1.391 . S
C781 C782 1.391 . S
C782 C781 1.391 . S
C782 H838 0.947 . S
C782 C839 1.392 . S
C783 C784 1.391 . S
C783 C787 1.397 . S
C783 C839 1.419 . S
C784 C780 1.391 . S
C784 C783 1.391 . S
C784 C785 1.399 . S
C785 C784 1.399 . S
C785 C788 1.396 . S
C785 C797 1.453 . S
C785 C798 1.684 . S
H786 C810 0.948 . S
C787 C783 1.397 . S
C787 C788 1.394 . S
C787 C806 1.723 . S
C788 C785 1.396 . S
C788 C787 1.394 . S
C788 C818 1.723 . S
H789 C812 0.947 . S
H790 C813 0.948 . S
H791 C819 0.982 . S
H792 C820 0.979 . S
H793 C820 0.980 . S
H794 C820 0.983 . S
H795 C819 0.979 . S
H796 C819 0.977 . S
C797 C785 1.453 . S
C797 H826 0.982 . S
C797 H827 0.979 . S
C797 H828 0.977 . S
C798 C785 1.684 . S
C798 H823 0.979 . S
C798 H824 0.980 . S
C798 H825 0.983 . S
C799 C800 1.391 . S
C799 C804 1.391 . S
C799 H829 0.948 . S
C800 C799 1.391 . S
C800 C801 1.391 . S
C801 C800 1.391 . S
C801 C802 1.392 . S
C801 H830 0.947 . S
C802 C801 1.392 . S
C802 C803 1.419 . S
C802 H831 0.948 . S
C803 C802 1.419 . S
C803 C804 1.391 . S
C803 C807 1.397 . S
C804 C799 1.391 . S
C804 C803 1.391 . S
C804 C805 1.399 . S
C805 C804 1.399 . S
C805 C806 1.396 . S
C805 C808 1.453 . S
C805 C809 1.684 . S
C806 C787 1.723 . S
C806 C805 1.396 . S
C806 C807 1.394 . S
C807 C803 1.397 . S
C807 C806 1.394 . S
C807 C817 1.723 . S
C808 C805 1.453 . S
C808 H832 0.982 . S
C808 H833 0.979 . S
C808 H834 0.977 . S
C809 C805 1.684 . S
C809 H835 0.979 . S
C809 H836 0.980 . S
C809 H837 0.983 . S
C810 H786 0.948 . S
C810 C811 1.391 . S
C810 C815 1.391 . S
C811 C810 1.391 . S
C811 C812 1.391 . S
C812 H789 0.947 . S
C812 C811 1.391 . S
C812 C813 1.392 . S
C813 H790 0.948 . S
C813 C812 1.392 . S
C813 C814 1.419 . S
C814 C813 1.419 . S
C814 C815 1.391 . S
C814 C818 1.397 . S
C815 C810 1.391 . S
C815 C814 1.391 . S
C815 C816 1.399 . S
C816 C815 1.399 . S
C816 C817 1.396 . S
C816 C819 1.453 . S
C816 C820 1.684 . S
C817 C807 1.723 . S
C817 C816 1.396 . S
C817 C818 1.394 . S
C818 C788 1.723 . S
C818 C814 1.397 . S
C818 C817 1.394 . S
C819 H791 0.982 . S
C819 H795 0.979 . S
C819 H796 0.977 . S
C819 C816 1.453 . S
C820 H792 0.979 . S
C820 H793 0.980 . S
C820 H794 0.983 . S
C820 C816 1.684 . S
H821 C839 0.948 . S
H822 C780 0.948 . S
H823 C798 0.979 . S
H824 C798 0.980 . S
H825 C798 0.983 . S
H826 C797 0.982 . S
H827 C797 0.979 . S
H828 C797 0.977 . S
H829 C799 0.948 . S
H830 C801 0.947 . S
H831 C802 0.948 . S
H832 C808 0.982 . S
H833 C808 0.979 . S
H834 C808 0.977 . S
H835 C809 0.979 . S
H836 C809 0.980 . S
H837 C809 0.983 . S
H838 C782 0.947 . S
C839 C782 1.392 . S
C839 C783 1.419 . S
C839 H821 0.948 . S
C840 C841 1.391 . S
C840 C844 1.391 . S
C840 H882 0.948 . S
C841 C840 1.391 . S
C841 C842 1.391 . S
C842 C841 1.391 . S
C842 H898 0.947 . S
C842 C899 1.392 . S
C843 C844 1.391 . S
C843 C847 1.397 . S
C843 C899 1.419 . S
C844 C840 1.391 . S
C844 C843 1.391 . S
C844 C845 1.399 . S
C845 C844 1.399 . S
C845 C848 1.396 . S
C845 C857 1.453 . S
C845 C858 1.684 . S
H846 C870 0.948 . S
C847 C843 1.397 . S
C847 C848 1.394 . S
C847 C866 1.723 . S
C848 C845 1.396 . S
C848 C847 1.394 . S
C848 C878 1.723 . S
H849 C872 0.947 . S
H850 C873 0.948 . S
H851 C879 0.982 . S
H852 C880 0.979 . S
H853 C880 0.980 . S
H854 C880 0.983 . S
H855 C879 0.979 . S
H856 C879 0.977 . S
C857 C845 1.453 . S
C857 H886 0.982 . S
C857 H887 0.979 . S
C857 H888 0.977 . S
C858 C845 1.684 . S
C858 H883 0.979 . S
C858 H884 0.980 . S
C858 H885 0.983 . S
C859 C860 1.391 . S
C859 C864 1.391 . S
C859 H889 0.948 . S
C860 C859 1.391 . S
C860 C861 1.391 . S
C861 C860 1.391 . S
C861 C862 1.392 . S
C861 H890 0.947 . S
C862 C861 1.392 . S
C862 C863 1.419 . S
C862 H891 0.948 . S
C863 C862 1.419 . S
C863 C864 1.391 . S
C863 C867 1.397 . S
C864 C859 1.391 . S
C864 C863 1.391 . S
C864 C865 1.399 . S
C865 C864 1.399 . S
C865 C866 1.396 . S
C865 C868 1.453 . S
C865 C869 1.684 . S
C866 C847 1.723 . S
C866 C865 1.396 . S
C866 C867 1.394 . S
C867 C863 1.397 . S
C867 C866 1.394 . S
C867 C877 1.723 . S
C868 C865 1.453 . S
C868 H892 0.982 . S
C868 H893 0.979 . S
C868 H894 0.977 . S
C869 C865 1.684 . S
C869 H895 0.979 . S
C869 H896 0.980 . S
C869 H897 0.983 . S
C870 H846 0.948 . S
C870 C871 1.391 . S
C870 C875 1.391 . S
C871 C870 1.391 . S
C871 C872 1.391 . S
C872 H849 0.947 . S
C872 C871 1.391 . S
C872 C873 1.392 . S
C873 H850 0.948 . S
C873 C872 1.392 . S
C873 C874 1.419 . S
C874 C873 1.419 . S
C874 C875 1.391 . S
C874 C878 1.397 . S
C875 C870 1.391 . S
C875 C874 1.391 . S
C875 C876 1.399 . S
C876 C875 1.399 . S
C876 C877 1.396 . S
C876 C879 1.453 . S
C876 C880 1.684 . S
C877 C867 1.723 . S
C877 C876 1.396 . S
C877 C878 1.394 . S
C878 C848 1.723 . S
C878 C874 1.397 . S
C878 C877 1.394 . S
C879 H851 0.982 . S
C879 H855 0.979 . S
C879 H856 0.977 . S
C879 C876 1.453 . S
C880 H852 0.979 . S
C880 H853 0.980 . S
C880 H854 0.983 . S
C880 C876 1.684 . S
H881 C899 0.948 . S
H882 C840 0.948 . S
H883 C858 0.979 . S
H884 C858 0.980 . S
H885 C858 0.983 . S
H886 C857 0.982 . S
H887 C857 0.979 . S
H888 C857 0.977 . S
H889 C859 0.948 . S
H890 C861 0.947 . S
H891 C862 0.948 . S
H892 C868 0.982 . S
H893 C868 0.979 . S
H894 C868 0.977 . S
H895 C869 0.979 . S
H896 C869 0.980 . S
H897 C869 0.983 . S
H898 C842 0.947 . S
C899 C842 1.392 . S
C899 C843 1.419 . S
C899 H881 0.948 . S
C900 C901 1.391 . S
C900 C904 1.391 . S
C900 H942 0.948 . S
C901 C900 1.391 . S
C901 C902 1.391 . S
C902 C901 1.391 . S
C902 H958 0.947 . S
C902 C959 1.392 . S
C903 C904 1.391 . S
C903 C907 1.397 . S
C903 C959 1.419 . S
C904 C900 1.391 . S
C904 C903 1.391 . S
C904 C905 1.399 . S
C905 C904 1.399 . S
C905 C908 1.396 . S
C905 C917 1.453 . S
C905 C918 1.684 . S
H906 C930 0.948 . S
C907 C903 1.397 . S
C907 C908 1.394 . S
C907 C926 1.723 . S
C908 C905 1.396 . S
C908 C907 1.394 . S
C908 C938 1.723 . S
H909 C932 0.947 . S
H910 C933 0.948 . S
H911 C939 0.982 . S
H912 C940 0.979 . S
H913 C940 0.980 . S
H914 C940 0.983 . S
H915 C939 0.979 . S
H916 C939 0.977 . S
C917 C905 1.453 . S
C917 H946 0.982 . S
C917 H947 0.979 . S
C917 H948 0.977 . S
C918 C905 1.684 . S
C918 H943 0.979 . S
C918 H944 0.980 . S
C918 H945 0.983 . S
C919 C920 1.391 . S
C919 C924 1.391 . S
C919 H949 0.948 . S
C920 C919 1.391 . S
C920 C921 1.391 . S
C921 C920 1.391 . S
C921 C922 1.392 . S
C921 H950 0.947 . S
C922 C921 1.392 . S
C922 C923 1.419 . S
C922 H951 0.948 . S
C923 C922 1.419 . S
C923 C924 1.391 . S
C923 C927 1.397 . S
C924 C919 1.391 . S
C924 C923 1.391 . S
C924 C925 1.399 . S
C925 C924 1.399 . S
C925 C926 1.396 . S
C925 C928 1.453 . S
C925 C929 1.684 . S
C926 C907 1.723 . S
C926 C925 1.396 . S
C926 C927 1.394 . S
C927 C923 1.397 . S
C927 C926 1.394 . S
C927 C937 1.723 . S
C928 C925 1.453 . S
C928 H952 0.982 . S
C928 H953 0.979 . S
C928 H954 0.977 . S
C929 C925 1.684 . S
C929 H955 0.979 . S
C929 H956 0.980 . S
C929 H957 0.983 . S
C930 H906 0.948 . S
C930 C931 1.391 . S
C930 C935 1.391 . S
C931 C930 1.391 . S
C931 C932 1.391 . S
C932 H909 0.947 . S
C932 C931 1.391 . S
C932 C933 1.392 . S
C933 H910 0.948 . S
C933 C932 1.392 . S
C933 C934 1.419 . S
C934 C933 1.419 . S
C934 C935 1.391 . S
C934 C938 1.397 . S
C935 C930 1.391 . S
C935 C934 1.391 . S
C935 C936 1.399 . S
C936 C935 1.399 . S
C936 C937 1.396 . S
C936 C939 1.453 . S
C936 C940 1.684 . S
C937 C927 1.723 . S
C937 C936 1.396 . S
C937 C938 1.394 . S
C938 C908 1.723 . S
C938 C934 1.397 . S
C938 C937 1.394 . S
C939 H911 0.982 . S
C939 H915 0.979 . S
C939 H916 0.977 . S
C939 C936 1.453 . S
C940 H912 0.979 . S
C940 H913 0.980 . S
C940 H914 0.983 . S
C940 C936 1.684 . S
H941 C959 0.948 . S
H942 C900 0.948 . S
H943 C918 0.979 . S
H944 C918 0.980 . S
H945 C918 0.983 . S
H946 C917 0.982 . S
H947 C917 0.979 . S
H948 C917 0.977 . S
H949 C919 0.948 . S
H950 C921 0.947 . S
H951 C922 0.948 . S
H952 C928 0.982 . S
H953 C928 0.979 . S
H954 C928 0.977 . S
H955 C929 0.979 . S
H956 C929 0.980 . S
H957 C929 0.983 . S
H958 C902 0.947 . S
C959 C902 1.392 . S
C959 C903 1.419 . S
C959 H941 0.948 . S
C960 C961 1.391 . S
C960 C964 1.391 . S
C960 H1002 0.948 . S
C961 C960 1.391 . S
C961 C962 1.391 . S
C962 C961 1.391 . S
C962 H1018 0.947 . S
C962 C1019 1.392 . S
C963 C964 1.391 . S
C963 C967 1.397 . S
C963 C1019 1.419 . S
C964 C960 1.391 . S
C964 C963 1.391 . S
C964 C965 1.399 . S
C965 C964 1.399 . S
C965 C968 1.396 . S
C965 C977 1.453 . S
C965 C978 1.684 . S
H966 C990 0.948 . S
C967 C963 1.397 . S
C967 C968 1.394 . S
C967 C986 1.723 . S
C968 C965 1.396 . S
C968 C967 1.394 . S
C968 C998 1.723 . S
H969 C992 0.947 . S
H970 C993 0.948 . S
H971 C999 0.982 . S
H972 C1000 0.979 . S
H973 C1000 0.980 . S
H974 C1000 0.983 . S
H975 C999 0.979 . S
H976 C999 0.977 . S
C977 C965 1.453 . S
C977 H1006 0.982 . S
C977 H1007 0.979 . S
C977 H1008 0.977 . S
C978 C965 1.684 . S
C978 H1003 0.979 . S
C978 H1004 0.980 . S
C978 H1005 0.983 . S
C979 C980 1.391 . S
C979 C984 1.391 . S
C979 H1009 0.948 . S
C980 C979 1.391 . S
C980 C981 1.391 . S
C981 C980 1.391 . S
C981 C982 1.392 . S
C981 H1010 0.947 . S
C982 C981 1.392 . S
C982 C983 1.419 . S
C982 H1011 0.948 . S
C983 C982 1.419 . S
C983 C984 1.391 . S
C983 C987 1.397 . S
C984 C979 1.391 . S
C984 C983 1.391 . S
C984 C985 1.399 . S
C985 C984 1.399 . S
C985 C986 1.396 . S
C985 C988 1.453 . S
C985 C989 1.684 . S
C986 C967 1.723 . S
C986 C985 1.396 . S
C986 C987 1.394 . S
C987 C983 1.397 . S
C987 C986 1.394 . S
C987 C997 1.723 . S
C988 C985 1.453 . S
C988 H1012 0.982 . S
C988 H1013 0.979 . S
C988 H1014 0.977 . S
C989 C985 1.684 . S
C989 H1015 0.979 . S
C989 H1016 0.980 . S
C989 H1017 0.983 . S
C990 H966 0.948 . S
C990 C991 1.391 . S
C990 C995 1.391 . S
C991 C990 1.391 . S
C991 C992 1.391 . S
C992 H969 0.947 . S
C992 C991 1.391 . S
C992 C993 1.392 . S
C993 H970 0.948 . S
C993 C992 1.392 . S
C993 C994 1.419 . S
C994 C993 1.419 . S
C994 C995 1.391 . S
C994 C998 1.397 . S
C995 C990 1.391 . S
C995 C994 1.391 . S
C995 C996 1.399 . S
C996 C995 1.399 . S
C996 C997 1.396 . S
C996 C999 1.453 . S
C996 C1000 1.684 . S
C997 C987 1.723 . S
C997 C996 1.396 . S
C997 C998 1.394 . S
C998 C968 1.723 . S
C998 C994 1.397 . S
C998 C997 1.394 . S
C999 H971 0.982 . S
C999 H975 0.979 . S
C999 H976 0.977 . S
C999 C996 1.453 . S
C1000 H972 0.979 . S
C1000 H973 0.980 . S
C1000 H974 0.983 . S
C1000 C996 1.684 . S
H1001 C1019 0.948 . S
H1002 C960 0.948 . S
H1003 C978 0.979 . S
H1004 C978 0.980 . S
H1005 C978 0.983 . S
H1006 C977 0.982 . S
H1007 C977 0.979 . S
H1008 C977 0.977 . S
H1009 C979 0.948 . S
H1010 C981 0.947 . S
H1011 C982 0.948 . S
H1012 C988 0.982 . S
H1013 C988 0.979 . S
H1014 C988 0.977 . S
H1015 C989 0.979 . S
H1016 C989 0.980 . S
H1017 C989 0.983 . S
H1018 C962 0.947 . S
C1019 C962 1.392 . S
C1019 C963 1.419 . S
C1019 H1001 0.948 . S
C1020 C1021 1.391 . S
C1020 C1024 1.391 . S
C1020 H1062 0.948 . S
C1021 C1020 1.391 . S
C1021 C1022 1.391 . S
C1022 C1021 1.391 . S
C1022 H1078 0.947 . S
C1022 C1079 1.392 . S
C1023 C1024 1.391 . S
C1023 C1027 1.397 . S
C1023 C1079 1.419 . S
C1024 C1020 1.391 . S
C1024 C1023 1.391 . S
C1024 C1025 1.399 . S
C1025 C1024 1.399 . S
C1025 C1028 1.396 . S
C1025 C1037 1.453 . S
C1025 C1038 1.684 . S
H1026 C1050 0.948 . S
C1027 C1023 1.397 . S
C1027 C1028 1.394 . S
C1027 C1046 1.723 . S
C1028 C1025 1.396 . S
C1028 C1027 1.394 . S
C1028 C1058 1.723 . S
H1029 C1052 0.947 . S
H1030 C1053 0.948 . S
H1031 C1059 0.982 . S
H1032 C1060 0.979 . S
H1033 C1060 0.980 . S
H1034 C1060 0.983 . S
H1035 C1059 0.979 . S
H1036 C1059 0.977 . S
C1037 C1025 1.453 . S
C1037 H1066 0.982 . S
C1037 H1067 0.979 . S
C1037 H1068 0.977 . S
C1038 C1025 1.684 . S
C1038 H1063 0.979 . S
C1038 H1064 0.980 . S
C1038 H1065 0.983 . S
C1039 C1040 1.391 . S
C1039 C1044 1.391 . S
C1039 H1069 0.948 . S
C1040 C1039 1.391 . S
C1040 C1041 1.391 . S
C1041 C1040 1.391 . S
C1041 C1042 1.392 . S
C1041 H1070 0.947 . S
C1042 C1041 1.392 . S
C1042 C1043 1.419 . S
C1042 H1071 0.948 . S
C1043 C1042 1.419 . S
C1043 C1044 1.391 . S
C1043 C1047 1.397 . S
C1044 C1039 1.391 . S
C1044 C1043 1.391 . S
C1044 C1045 1.399 . S
C1045 C1044 1.399 . S
C1045 C1046 1.396 . S
C1045 C1048 1.453 . S
C1045 C1049 1.684 . S
C1046 C1027 1.723 . S
C1046 C1045 1.396 . S
C1046 C1047 1.394 . S
C1047 C1043 1.397 . S
C1047 C1046 1.394 . S
C1047 C1057 1.723 . S
C1048 C1045 1.453 . S
C1048 H1072 0.982 . S
C1048 H1073 0.979 . S
C1048 H1074 0.977 . S
C1049 C1045 1.684 . S
C1049 H1075 0.979 . S
C1049 H1076 0.980 . S
C1049 H1077 0.983 . S
C1050 H1026 0.948 . S
C1050 C1051 1.391 . S
C1050 C1055 1.391 . S
C1051 C1050 1.391 . S
C1051 C1052 1.391 . S
C1052 H1029 0.947 . S
C1052 C1051 1.391 . S
C1052 C1053 1.392 . S
C1053 H1030 0.948 . S
C1053 C1052 1.392 . S
C1053 C1054 1.419 . S
C1054 C1053 1.419 . S
C1054 C1055 1.391 . S
C1054 C1058 1.397 . S
C1055 C1050 1.391 . S
C1055 C1054 1.391 . S
C1055 C1056 1.399 . S
C1056 C1055 1.399 . S
C1056 C1057 1.396 . S
C1056 C1059 1.453 . S
C1056 C1060 1.684 . S
C1057 C1047 1.723 . S
C1057 C1056 1.396 . S
C1057 C1058 1.394 . S
C1058 C1028 1.723 . S
C1058 C1054 1.397 . S
C1058 C1057 1.394 . S
C1059 H1031 0.982 . S
C1059 H1035 0.979 . S
C1059 H1036 0.977 . S
C1059 C1056 1.453 . S
C1060 H1032 0.979 . S
C1060 H1033 0.980 . S
C1060 H1034 0.983 . S
C1060 C1056 1.684 . S
H1061 C1079 0.948 . S
H1062 C1020 0.948 . S
H1063 C1038 0.979 . S
H1064 C1038 0.980 . S
H1065 C1038 0.983 . S
H1066 C1037 0.982 . S
H1067 C1037 0.979 . S
H1068 C1037 0.977 . S
H1069 C1039 0.948 . S
H1070 C1041 0.947 . S
H1071 C1042 0.948 . S
H1072 C1048 0.982 . S
H1073 C1048 0.979 . S
H1074 C1048 0.977 . S
H1075 C1049 0.979 . S
H1076 C1049 0.980 . S
H1077 C1049 0.983 . S
H1078 C1022 0.947 . S
C1079 C1022 1.392 . S
C1079 C1023 1.419 . S
C1079 H1061 0.948 . S
C1080 C1081 1.391 . S
C1080 C1084 1.391 . S
C1080 H1122 0.948 . S
C1081 C1080 1.391 . S
C1081 C1082 1.391 . S
C1082 C1081 1.391 . S
C1082 H1138 0.947 . S
C1082 C1139 1.392 . S
C1083 C1084 1.391 . S
C1083 C1087 1.397 . S
C1083 C1139 1.419 . S
C1084 C1080 1.391 . S
C1084 C1083 1.391 . S
C1084 C1085 1.399 . S
C1085 C1084 1.399 . S
C1085 C1088 1.396 . S
C1085 C1097 1.453 . S
C1085 C1098 1.684 . S
H1086 C1110 0.948 . S
C1087 C1083 1.397 . S
C1087 C1088 1.394 . S
C1087 C1106 1.723 . S
C1088 C1085 1.396 . S
C1088 C1087 1.394 . S
C1088 C1118 1.723 . S
H1089 C1112 0.947 . S
H1090 C1113 0.948 . S
H1091 C1119 0.982 . S
H1092 C1120 0.979 . S
H1093 C1120 0.980 . S
H1094 C1120 0.983 . S
H1095 C1119 0.979 . S
H1096 C1119 0.977 . S
C1097 C1085 1.453 . S
C1097 H1126 0.982 . S
C1097 H1127 0.979 . S
C1097 H1128 0.977 . S
C1098 C1085 1.684 . S
C1098 H1123 0.979 . S
C1098 H1124 0.980 . S
C1098 H1125 0.983 . S
C1099 C1100 1.391 . S
C1099 C1104 1.391 . S
C1099 H1129 0.948 . S
C1100 C1099 1.391 . S
C1100 C1101 1.391 . S
C1101 C1100 1.391 . S
C1101 C1102 1.392 . S
C1101 H1130 0.947 . S
C1102 C1101 1.392 . S
C1102 C1103 1.419 . S
C1102 H1131 0.948 . S
C1103 C1102 1.419 . S
C1103 C1104 1.391 . S
C1103 C1107 1.397 . S
C1104 C1099 1.391 . S
C1104 C1103 1.391 . S
C1104 C1105 1.399 . S
C1105 C1104 1.399 . S
C1105 C1106 1.396 . S
C1105 C1108 1.453 . S
C1105 C1109 1.684 . S
C1106 C1087 1.723 . S
C1106 C1105 1.396 . S
C1106 C1107 1.394 . S
C1107 C1103 1.397 . S
C1107 C1106 1.394 . S
C1107 C1117 1.723 . S
C1108 C1105 1.453 . S
C1108 H1132 0.982 . S
C1108 H1133 0.979 . S
C1108 H1134 0.977 . S
C1109 C1105 1.684 . S
C1109 H1135 0.979 . S
C1109 H1136 0.980 . S
C1109 H1137 0.983 . S
C1110 H1086 0.948 . S
C1110 C1111 1.391 . S
C1110 C1115 1.391 . S
C1111 C1110 1.391 . S
C1111 C1112 1.391 . S
C1112 H1089 0.947 . S
C1112 C1111 1.391 . S
C1112 C1113 1.392 . S
C1113 H1090 0.948 . S
C1113 C1112 1.392 . S
C1113 C1114 1.419 . S
C1114 C1113 1.419 . S
C1114 C1115 1.391 . S
C1114 C1118 1.397 . S
C1115 C1110 1.391 . S
C1115 C1114 1.391 . S
C1115 C1116 1.399 . S
C1116 C1115 1.399 . S
C1116 C1117 1.396 . S
C1116 C1119 1.453 . S
C1116 C1120 1.684 . S
C1117 C1107 1.723 . S
C1117 C1116 1.396 . S
C1117 C1118 1.394 . S
C1118 C1088 1.723 . S
C1118 C1114 1.397 . S
C1118 C1117 1.394 . S
C1119 H1091 0.982 . S
C1119 H1095 0.979 . S
C1119 H1096 0.977 . S
C1119 C1116 1.453 . S
C1120 H1092 0.979 . S
C1120 H1093 0.980 . S
C1120 H1094 0.983 . S
C1120 C1116 1.684 . S
H1121 C1139 0.948 . S
H1122 C1080 0.948 . S
H1123 C1098 0.979 . S
H1124 C1098 0.980 . S
H1125 C1098 0.983 . S
H1126 C1097 0.982 . S
H1127 C1097 0.979 . S
H1128 C1097 0.977 . S
H1129 C1099 0.948 . S
H1130 C1101 0.947 . S
H1131 C1102 0.948 . S
H1132 C1108 0.982 . S
H1133 C1108 0.979 . S
H1134 C1108 0.977 . S
H1135 C1109 0.979 . S
H1136 C1109 0.980 . S
H1137 C1109 0.983 . S
H1138 C1082 0.947 . S
C1139 C1082 1.392 . S
C1139 C1083 1.419 . S
C1139 H1121 0.948 . S
C1140 C1141 1.391 . S
C1140 C1144 1.391 . S
C1140 H1182 0.948 . S
C1141 C1140 1.391 . S
C1141 C1142 1.391 . S
C1142 C1141 1.391 . S
C1142 H1198 0.947 . S
C1142 C1199 1.392 . S
C1143 C1144 1.391 . S
C1143 C1147 1.397 . S
C1143 C1199 1.419 . S
C1144 C1140 1.391 . S
C1144 C1143 1.391 . S
C1144 C1145 1.399 . S
C1145 C1144 1.399 . S
C1145 C1148 1.396 . S
C1145 C1157 1.453 . S
C1145 C1158 1.684 . S
H1146 C1170 0.948 . S
C1147 C1143 1.397 . S
C1147 C1148 1.394 . S
C1147 C1166 1.723 . S
C1148 C1145 1.396 . S
C1148 C1147 1.394 . S
C1148 C1178 1.723 . S
H1149 C1172 0.947 . S
H1150 C1173 0.948 . S
H1151 C1179 0.982 . S
H1152 C1180 0.979 . S
H1153 C1180 0.980 . S
H1154 C1180 0.983 . S
H1155 C1179 0.979 . S
H1156 C1179 0.977 . S
C1157 C1145 1.453 . S
C1157 H1186 0.982 . S
C1157 H1187 0.979 . S
C1157 H1188 0.977 . S
C1158 C1145 1.684 . S
C1158 H1183 0.979 . S
C1158 H1184 0.980 . S
C1158 H1185 0.983 . S
C1159 C1160 1.391 . S
C1159 C1164 1.391 . S
C1159 H1189 0.948 . S
C1160 C1159 1.391 . S
C1160 C1161 1.391 . S
C1161 C1160 1.391 . S
C1161 C1162 1.392 . S
C1161 H1190 0.947 . S
C1162 C1161 1.392 . S
C1162 C1163 1.419 . S
C1162 H1191 0.948 . S
C1163 C1162 1.419 . S
C1163 C1164 1.391 . S
C1163 C1167 1.397 . S
C1164 C1159 1.391 . S
C1164 C1163 1.391 . S
C1164 C1165 1.399 . S
C1165 C1164 1.399 . S
C1165 C1166 1.396 . S
C1165 C1168 1.453 . S
C1165 C1169 1.684 . S
C1166 C1147 1.723 . S
C1166 C1165 1.396 . S
C1166 C1167 1.394 . S
C1167 C1163 1.397 . S
C1167 C1166 1.394 . S
C1167 C1177 1.723 . S
C1168 C1165 1.453 . S
C1168 H1192 0.982 . S
C1168 H1193 0.979 . S
C1168 H1194 0.977 . S
C1169 C1165 1.684 . S
C1169 H1195 0.979 . S
C1169 H1196 0.980 . S
C1169 H1197 0.983 . S
C1170 H1146 0.948 . S
C1170 C1171 1.391 . S
C1170 C1175 1.391 . S
C1171 C1170 1.391 . S
C1171 C1172 1.391 . S
C1172 H1149 0.947 . S
C1172 C1171 1.391 . S
C1172 C1173 1.392 . S
C1173 H1150 0.948 . S
C1173 C1172 1.392 . S
C1173 C1174 1.419 . S
C1174 C1173 1.419 . S
C1174 C1175 1.391 . S
C1174 C1178 1.397 . S
C1175 C1170 1.391 . S
C1175 C1174 1.391 . S
C1175 C1176 1.399 . S
C1176 C1175 1.399 . S
C1176 C1177 1.396 . S
C1176 C1179 1.453 . S
C1176 C1180 1.684 . S
C1177 C1167 1.723 . S
C1177 C1176 1.396 . S
C1177 C1178 1.394 . S
C1178 C1148 1.723 . S
C1178 C1174 1.397 . S
C1178 C1177 1.394 . S
C1179 H1151 0.982 . S
C1179 H1155 0.979 . S
C1179 H1156 0.977 . S
C1179 C1176 1.453 . S
C1180 H1152 0.979 . S
C1180 H1153 0.980 . S
C1180 H1154 0.983 . S
C1180 C1176 1.684 . S
H1181 C1199 0.948 . S
H1182 C1140 0.948 . S
H1183 C1158 0.979 . S
H1184 C1158 0.980 . S
H1185 C1158 0.983 . S
H1186 C1157 0.982 . S
H1187 C1157 0.979 . S
H1188 C1157 0.977 . S
H1189 C1159 0.948 . S
H1190 C1161 0.947 . S
H1191 C1162 0.948 . S
H1192 C1168 0.982 . S
H1193 C1168 0.979 . S
H1194 C1168 0.977 . S
H1195 C1169 0.979 . S
H1196 C1169 0.980 . S
H1197 C1169 0.983 . S
H1198 C1142 0.947 . S
C1199 C1142 1.392 . S
C1199 C1143 1.419 . S
C1199 H1181 0.948 . S
C1200 C1201 1.391 . S
C1200 C1204 1.391 . S
C1200 H1242 0.948 . S
C1201 C1200 1.391 . S
C1201 C1202 1.391 . S
C1202 C1201 1.391 . S
C1202 H1258 0.947 . S
C1202 C1259 1.392 . S
C1203 C1204 1.391 . S
C1203 C1207 1.397 . S
C1203 C1259 1.419 . S
C1204 C1200 1.391 . S
C1204 C1203 1.391 . S
C1204 C1205 1.399 . S
C1205 C1204 1.399 . S
C1205 C1208 1.396 . S
C1205 C1217 1.453 . S
C1205 C1218 1.684 . S
H1206 C1230 0.948 . S
C1207 C1203 1.397 . S
C1207 C1208 1.394 . S
C1207 C1226 1.723 . S
C1208 C1205 1.396 . S
C1208 C1207 1.394 . S
C1208 C1238 1.723 . S
H1209 C1232 0.947 . S
H1210 C1233 0.948 . S
H1211 C1239 0.982 . S
H1212 C1240 0.979 . S
H1213 C1240 0.980 . S
H1214 C1240 0.983 . S
H1215 C1239 0.979 . S
H1216 C1239 0.977 . S
C1217 C1205 1.453 . S
C1217 H1246 0.982 . S
C1217 H1247 0.979 . S
C1217 H1248 0.977 . S
C1218 C1205 1.684 . S
C1218 H1243 0.979 . S
C1218 H1244 0.980 . S
C1218 H1245 0.983 . S
C1219 C1220 1.391 . S
C1219 C1224 1.391 . S
C1219 H1249 0.948 . S
C1220 C1219 1.391 . S
C1220 C1221 1.391 . S
C1221 C1220 1.391 . S
C1221 C1222 1.392 . S
C1221 H1250 0.947 . S
C1222 C1221 1.392 . S
C1222 C1223 1.419 . S
C1222 H1251 0.948 . S
C1223 C1222 1.419 . S
C1223 C1224 1.391 . S
C1223 C1227 1.397 . S
C1224 C1219 1.391 . S
C1224 C1223 1.391 . S
C1224 C1225 1.399 . S
C1225 C1224 1.399 . S
C1225 C1226 1.396 . S
C1225 C1228 1.453 . S
C1225 C1229 1.684 . S
C1226 C1207 1.723 . S
C1226 C1225 1.396 . S
C1226 C1227 1.394 . S
C1227 C1223 1.397 . S
C1227 C1226 1.394 . S
C1227 C1237 1.723 . S
C1228 C1225 1.453 . S
C1228 H1252 0.982 . S
C1228 H1253 0.979 . S
C1228 H1254 0.977 . S
C1229 C1225 1.684 . S
C1229 H1255 0.979 . S
C1229 H1256 0.980 . S
C1229 H1257 0.983 . S
C1230 H1206 0.948 . S
C1230 C1231 1.391 . S
C1230 C1235 1.391 . S
C1231 C1230 1.391 . S
C1231 C1232 1.391 . S
C1232 H1209 0.947 . S
C1232 C1231 1.391 . S
C1232 C1233 1.392 . S
C1233 H1210 0.948 . S
C1233 C1232 1.392 . S
C1233 C1234 1.419 . S
C1234 C1233 1.419 . S
C1234 C1235 1.391 . S
C1234 C1238 1.397 . S
C1235 C1230 1.391 . S
C1235 C1234 1.391 . S
C1235 C1236 1.399 . S
C1236 C1235 1.399 . S
C1236 C1237 1.396 . S
C1236 C1239 1.453 . S
C1236 C1240 1.684 . S
C1237 C1227 1.723 . S
C1237 C1236 1.396 . S
C1237 C1238 1.394 . S
C1238 C1208 1.723 . S
C1238 C1234 1.397 . S
C1238 C1237 1.394 . S
C1239 H1211 0.982 . S
C1239 H1215 0.979 . S
C1239 H1216 0.977 . S
C1239 C1236 1.453 . S
C1240 H1212 0.979 . S
C1240 H1213 0.980 . S
C1240 H1214 0.983 . S
C1240 C1236 1.684 . S
H1241 C1259 0.948 . S
H1242 C1200 0.948 . S
H1243 C1218 0.979 . S
H1244 C1218 0.980 . S
H1245 C1218 0.983 . S
H1246 C1217 0.982 . S
H1247 C1217 0.979 . S
H1248 C1217 0.977 . S
H1249 C1219 0.948 . S
H1250 C1221 0.947 . S
H1251 C1222 0.948 . S
H1252 C1228 0.982 . S
H1253 C1228 0.979 . S
H1254 C1228 0.977 . S
H1255 C1229 0.979 . S
H1256 C1229 0.980 . S
H1257 C1229 0.983 . S
H1258 C1202 0.947 . S
C1259 C1202 1.392 . S
C1259 C1203 1.419 . S
C1259 H1241 0.948 . S
C1260 C1261 1.391 . S
C1260 C1264 1.391 . S
C1260 H1302 0.948 . S
C1261 C1260 1.391 . S
C1261 C1262 1.391 . S
C1262 C1261 1.391 . S
C1262 H1318 0.947 . S
C1262 C1319 1.392 . S
C1263 C1264 1.391 . S
C1263 C1267 1.397 . S
C1263 C1319 1.419 . S
C1264 C1260 1.391 . S
C1264 C1263 1.391 . S
C1264 C1265 1.399 . S
C1265 C1264 1.399 . S
C1265 C1268 1.396 . S
C1265 C1277 1.453 . S
C1265 C1278 1.684 . S
H1266 C1290 0.948 . S
C1267 C1263 1.397 . S
C1267 C1268 1.394 . S
C1267 C1286 1.723 . S
C1268 C1265 1.396 . S
C1268 C1267 1.394 . S
C1268 C1298 1.723 . S
H1269 C1292 0.947 . S
H1270 C1293 0.948 . S
H1271 C1299 0.982 . S
H1272 C1300 0.979 . S
H1273 C1300 0.980 . S
H1274 C1300 0.983 . S
H1275 C1299 0.979 . S
H1276 C1299 0.977 . S
C1277 C1265 1.453 . S
C1277 H1306 0.982 . S
C1277 H1307 0.979 . S
C1277 H1308 0.977 . S
C1278 C1265 1.684 . S
C1278 H1303 0.979 . S
C1278 H1304 0.980 . S
C1278 H1305 0.983 . S
C1279 C1280 1.391 . S
C1279 C1284 1.391 . S
C1279 H1309 0.948 . S
C1280 C1279 1.391 . S
C1280 C1281 1.391 . S
C1281 C1280 1.391 . S
C1281 C1282 1.392 . S
C1281 H1310 0.947 . S
C1282 C1281 1.392 . S
C1282 C1283 1.419 . S
C1282 H1311 0.948 . S
C1283 C1282 1.419 . S
C1283 C1284 1.391 . S
C1283 C1287 1.397 . S
C1284 C1279 1.391 . S
C1284 C1283 1.391 . S
C1284 C1285 1.399 . S
C1285 C1284 1.399 . S
C1285 C1286 1.396 . S
C1285 C1288 1.453 . S
C1285 C1289 1.684 . S
C1286 C1267 1.723 . S
C1286 C1285 1.396 . S
C1286 C1287 1.394 . S
C1287 C1283 1.397 . S
C1287 C1286 1.394 . S
C1287 C1297 1.723 . S
C1288 C1285 1.453 . S
C1288 H1312 0.982 . S
C1288 H1313 0.979 . S
C1288 H1314 0.977 . S
C1289 C1285 1.684 . S
C1289 H1315 0.979 . S
C1289 H1316 0.980 . S
C1289 H1317 0.983 . S
C1290 H1266 0.948 . S
C1290 C1291 1.391 . S
C1290 C1295 1.391 . S
C1291 C1290 1.391 . S
C1291 C1292 1.391 . S
C1292 H1269 0.947 . S
C1292 C1291 1.391 . S
C1292 C1293 1.392 . S
C1293 H1270 0.948 . S
C1293 C1292 1.392 . S
C1293 C1294 1.419 . S
C1294 C1293 1.419 . S
C1294 C1295 1.391 . S
C1294 C1298 1.397 . S
C1295 C1290 1.391 . S
C1295 C1294 1.391 . S
C1295 C1296 1.399 . S
C1296 C1295 1.399 . S
C1296 C1297 1.396 . S
C1296 C1299 1.453 . S
C1296 C1300 1.684 . S
C1297 C1287 1.723 . S
C1297 C1296 1.396 . S
C1297 C1298 1.394 . S
C1298 C1268 1.723 . S
C1298 C1294 1.397 . S
C1298 C1297 1.394 . S
C1299 H1271 0.982 . S
C1299 H1275 0.979 . S
C1299 H1276 0.977 . S
C1299 C1296 1.453 . S
C1300 H1272 0.979 . S
C1300 H1273 0.980 . S
C1300 H1274 0.983 . S
C1300 C1296 1.684 . S
H1301 C1319 0.948 . S
H1302 C1260 0.948 . S
H1303 C1278 0.979 . S
H1304 C1278 0.980 . S
H1305 C1278 0.983 . S
H1306 C1277 0.982 . S
H1307 C1277 0.979 . S
H1308 C1277 0.977 . S
H1309 C1279 0.948 . S
H1310 C1281 0.947 . S
H1311 C1282 0.948 . S
H1312 C1288 0.982 . S
H1313 C1288 0.979 . S
H1314 C1288 0.977 . S
H1315 C1289 0.979 . S
H1316 C1289 0.980 . S
H1317 C1289 0.983 . S
H1318 C1262 0.947 . S
C1319 C1262 1.392 . S
C1319 C1263 1.419 . S
C1319 H1301 0.948 . S
C1320 C1321 1.391 . S
C1320 C1324 1.391 . S
C1320 H1362 0.948 . S
C1321 C1320 1.391 . S
C1321 C1322 1.391 . S
C1322 C1321 1.391 . S
C1322 H1378 0.947 . S
C1322 C1379 1.392 . S
C1323 C1324 1.391 . S
C1323 C1327 1.397 . S
C1323 C1379 1.419 . S
C1324 C1320 1.391 . S
C1324 C1323 1.391 . S
C1324 C1325 1.399 . S
C1325 C1324 1.399 . S
C1325 C1328 1.396 . S
C1325 C1337 1.453 . S
C1325 C1338 1.684 . S
H1326 C1350 0.948 . S
C1327 C1323 1.397 . S
C1327 C1328 1.394 . S
C1327 C1346 1.723 . S
C1328 C1325 1.396 . S
C1328 C1327 1.394 . S
C1328 C1358 1.723 . S
H1329 C1352 0.947 . S
H1330 C1353 0.948 . S
H1331 C1359 0.982 . S
H1332 C1360 0.979 . S
H1333 C1360 0.980 . S
H1334 C1360 0.983 . S
H1335 C1359 0.979 . S
H1336 C1359 0.977 . S
C1337 C1325 1.453 . S
C1337 H1366 0.982 . S
C1337 H1367 0.979 . S
C1337 H1368 0.977 . S
C1338 C1325 1.684 . S
C1338 H1363 0.979 . S
C1338 H1364 0.980 . S
C1338 H1365 0.983 . S
C1339 C1340 1.391 . S
C1339 C1344 1.391 . S
C1339 H1369 0.948 . S
C1340 C1339 1.391 . S
C1340 C1341 1.391 . S
C1341 C1340 1.391 . S
C1341 C1342 1.392 . S
C1341 H1370 0.947 . S
C1342 C1341 1.392 . S
C1342 C1343 1.419 . S
C1342 H1371 0.948 . S
C1343 C1342 1.419 . S
C1343 C1344 1.391 . S
C1343 C1347 1.397 . S
C1344 C1339 1.391 . S
C1344 C1343 1.391 . S
C1344 C1345 1.399 . S
C1345 C1344 1.399 . S
C1345 C1346 1.396 . S
C1345 C1348 1.453 . S
C1345 C1349 1.684 . S
C1346 C1327 1.723 . S
C1346 C1345 1.396 . S
C1346 C1347 1.394 . S
C1347 C1343 1.397 . S
C1347 C1346 1.394 . S
C1347 C1357 1.723 . S
C1348 C1345 1.453 . S
C1348 H1372 0.982 . S
C1348 H1373 0.979 . S
C1348 H1374 0.977 . S
C1349 C1345 1.684 . S
C1349 H1375 0.979 . S
C1349 H1376 0.980 . S
C1349 H1377 0.983 . S
C1350 H1326 0.948 . S
C1350 C1351 1.391 . S
C1350 C1355 1.391 . S
C1351 C1350 1.391 . S
C1351 C1352 1.391 . S
C1352 H1329 0.947 . S
C1352 C1351 1.391 . S
C1352 C1353 1.392 . S
C1353 H1330 0.948 . S
C1353 C1352 1.392 . S
C1353 C1354 1.419 . S
C1354 C1353 1.419 . S
C1354 C1355 1.391 . S
C1354 C1358 1.397 . S
C1355 C1350 1.391 . S
C1355 C1354 1.391 . S
C1355 C1356 1.399 . S
C1356 C1355 1.399 . S
C1356 C1357 1.396 . S
C1356 C1359 1.453 . S
C1356 C1360 1.684 . S
C1357 C1347 1.723 . S
C1357 C1356 1.396 . S
C1357 C1358 1.394 . S
C1358 C1328 1.723 . S
C1358 C1354 1.397 . S
C1358 C1357 1.394 . S
C1359 H1331 0.982 . S
C1359 H1335 0.979 . S
C1359 H1336 0.977 . S
C1359 C1356 1.453 . S
C1360 H1332 0.979 . S
C1360 H1333 0.980 . S
C1360 H1334 0.983 . S
C1360 C1356 1.684 . S
H1361 C1379 0.948 . S
H1362 C1320 0.948 . S
H1363 C1338 0.979 . S
H1364 C1338 0.980 . S
H1365 C1338 0.983 . S
H1366 C1337 0.982 . S
H1367 C1337 0.979 . S
H1368 C1337 0.977 . S
H1369 C1339 0.948 . S
H1370 C1341 0.947 . S
H1371 C1342 0.948 . S
H1372 C1348 0.982 . S
H1373 C1348 0.979 . S
H1374 C1348 0.977 . S
H1375 C1349 0.979 . S
H1376 C1349 0.980 . S
H1377 C1349 0.983 . S
H1378 C1322 0.947 . S
C1379 C1322 1.392 . S
C1379 C1323 1.419 . S
C1379 H1361 0.948 . S
C1380 C1381 1.391 . S
C1380 C1384 1.391 . S
C1380 H1422 0.948 . S
C1381 C1380 1.391 . S
C1381 C1382 1.391 . S
C1382 C1381 1.391 . S
C1382 H1438 0.947 . S
C1382 C1439 1.392 . S
C1383 C1384 1.391 . S
C1383 C1387 1.397 . S
C1383 C1439 1.419 . S
C1384 C1380 1.391 . S
C1384 C1383 1.391 . S
C1384 C1385 1.399 . S
C1385 C1384 1.399 . S
C1385 C1388 1.396 . S
C1385 C1397 1.453 . S
C1385 C1398 1.684 . S
H1386 C1410 0.948 . S
C1387 C1383 1.397 . S
C1387 C1388 1.394 . S
C1387 C1406 1.723 . S
C1388 C1385 1.396 . S
C1388 C1387 1.394 . S
C1388 C1418 1.723 . S
H1389 C1412 0.947 . S
H1390 C1413 0.948 . S
H1391 C1419 0.982 . S
H1392 C1420 0.979 . S
H1393 C1420 0.980 . S
H1394 C1420 0.983 . S
H1395 C1419 0.979 . S
H1396 C1419 0.977 . S
C1397 C1385 1.453 . S
C1397 H1426 0.982 . S
C1397 H1427 0.979 . S
C1397 H1428 0.977 . S
C1398 C1385 1.684 . S
C1398 H1423 0.979 . S
C1398 H1424 0.980 . S
C1398 H1425 0.983 . S
C1399 C1400 1.391 . S
C1399 C1404 1.391 . S
C1399 H1429 0.948 . S
C1400 C1399 1.391 . S
C1400 C1401 1.391 . S
C1401 C1400 1.391 . S
C1401 C1402 1.392 . S
C1401 H1430 0.947 . S
C1402 C1401 1.392 . S
C1402 C1403 1.419 . S
C1402 H1431 0.948 . S
C1403 C1402 1.419 . S
C1403 C1404 1.391 . S
C1403 C1407 1.397 . S
C1404 C1399 1.391 . S
C1404 C1403 1.391 . S
C1404 C1405 1.399 . S
C1405 C1404 1.399 . S
C1405 C1406 1.396 . S
C1405 C1408 1.453 . S
C1405 C1409 1.684 . S
C1406 C1387 1.723 . S
C1406 C1405 1.396 . S
C1406 C1407 1.394 . S
C1407 C1403 1.397 . S
C1407 C1406 1.394 . S
C1407 C1417 1.723 . S
C1408 C1405 1.453 . S
C1408 H1432 0.982 . S
C1408 H1433 0.979 . S
C1408 H1434 0.977 . S
C1409 C1405 1.684 . S
C1409 H1435 0.979 . S
C1409 H1436 0.980 . S
C1409 H1437 0.983 . S
C1410 H1386 0.948 . S
C1410 C1411 1.391 . S
C1410 C1415 1.391 . S
C1411 C1410 1.391 . S
C1411 C1412 1.391 . S
C1412 H1389 0.947 . S
C1412 C1411 1.391 . S
C1412 C1413 1.392 . S
C1413 H1390 0.948 . S
C1413 C1412 1.392 . S
C1413 C1414 1.419 . S
C1414 C1413 1.419 . S
C1414 C1415 1.391 . S
C1414 C1418 1.397 . S
C1415 C1410 1.391 . S
C1415 C1414 1.391 . S
C1415 C1416 1.399 . S
C1416 C1415 1.399 . S
C1416 C1417 1.396 . S
C1416 C1419 1.453 . S
C1416 C1420 1.684 . S
C1417 C1407 1.723 . S
C1417 C1416 1.396 . S
C1417 C1418 1.394 . S
C1418 C1388 1.723 . S
C1418 C1414 1.397 . S
C1418 C1417 1.394 . S
C1419 H1391 0.982 . S
C1419 H1395 0.979 . S
C1419 H1396 0.977 . S
C1419 C1416 1.453 . S
C1420 H1392 0.979 . S
C1420 H1393 0.980 . S
C1420 H1394 0.983 . S
C1420 C1416 1.684 . S
H1421 C1439 0.948 . S
H1422 C1380 0.948 . S
H1423 C1398 0.979 . S
H1424 C1398 0.980 . S
H1425 C1398 0.983 . S
H1426 C1397 0.982 . S
H1427 C1397 0.979 . S
H1428 C1397 0.977 . S
H1429 C1399 0.948 . S
H1430 C1401 0.947 . S
H1431 C1402 0.948 . S
H1432 C1408 0.982 . S
H1433 C1408 0.979 . S
H1434 C1408 0.977 . S
H1435 C1409 0.979 . S
H1436 C1409 0.980 . S
H1437 C1409 0.983 . S
H1438 C1382 0.947 . S
C1439 C1382 1.392 . S
C1439 C1383 1.419 . S
C1439 H1421 0.948 . S
C1440 C1441 1.391 . S
C1440 C1444 1.391 . S
C1440 H1482 0.948 . S
C1441 C1440 1.391 . S
C1441 C1442 1.391 . S
C1442 C1441 1.391 . S
C1442 H1498 0.947 . S
C1442 C1499 1.392 . S
C1443 C1444 1.391 . S
C1443 C1447 1.397 . S
C1443 C1499 1.419 . S
C1444 C1440 1.391 . S
C1444 C1443 1.391 . S
C1444 C1445 1.399 . S
C1445 C1444 1.399 . S
C1445 C1448 1.396 . S
C1445 C1457 1.453 . S
C1445 C1458 1.684 . S
H1446 C1470 0.948 . S
C1447 C1443 1.397 . S
C1447 C1448 1.394 . S
C1447 C1466 1.723 . S
C1448 C1445 1.396 . S
C1448 C1447 1.394 . S
C1448 C1478 1.723 . S
H1449 C1472 0.947 . S
H1450 C1473 0.948 . S
H1451 C1479 0.982 . S
H1452 C1480 0.979 . S
H1453 C1480 0.980 . S
H1454 C1480 0.983 . S
H1455 C1479 0.979 . S
H1456 C1479 0.977 . S
C1457 C1445 1.453 . S
C1457 H1486 0.982 . S
C1457 H1487 0.979 . S
C1457 H1488 0.977 . S
C1458 C1445 1.684 . S
C1458 H1483 0.979 . S
C1458 H1484 0.980 . S
C1458 H1485 0.983 . S
C1459 C1460 1.391 . S
C1459 C1464 1.391 . S
C1459 H1489 0.948 . S
C1460 C1459 1.391 . S
C1460 C1461 1.391 . S
C1461 C1460 1.391 . S
C1461 C1462 1.392 . S
C1461 H1490 0.947 . S
C1462 C1461 1.392 . S
C1462 C1463 1.419 . S
C1462 H1491 0.948 . S
C1463 C1462 1.419 . S
C1463 C1464 1.391 . S
C1463 C1467 1.397 . S
C1464 C1459 1.391 . S
C1464 C1463 1.391 . S
C1464 C1465 1.399 . S
C1465 C1464 1.399 . S
C1465 C1466 1.396 . S
C1465 C1468 1.453 . S
C1465 C1469 1.684 . S
C1466 C1447 1.723 . S
C1466 C1465 1.396 . S
C1466 C1467 1.394 . S
C1467 C1463 1.397 . S
C1467 C1466 1.394 . S
C1467 C1477 1.723 . S
C1468 C1465 1.453 . S
C1468 H1492 0.982 . S
C1468 H1493 0.979 . S
C1468 H1494 0.977 . S
C1469 C1465 1.684 . S
C1469 H1495 0.979 . S
C1469 H1496 0.980 . S
C1469 H1497 0.983 . S
C1470 H1446 0.948 . S
C1470 C1471 1.391 . S
C1470 C1475 1.391 . S
C1471 C1470 1.391 . S
C1471 C1472 1.391 . S
C1472 H1449 0.947 . S
C1472 C1471 1.391 . S
C1472 C1473 1.392 . S
C1473 H1450 0.948 . S
C1473 C1472 1.392 . S
C1473 C1474 1.419 . S
C1474 C1473 1.419 . S
C1474 C1475 1.391 . S
C1474 C1478 1.397 . S
C1475 C1470 1.391 . S
C1475 C1474 1.391 . S
C1475 C1476 1.399 . S
C1476 C1475 1.399 . S
C1476 C1477 1.396 . S
C1476 C1479 1.453 . S
C1476 C1480 1.684 . S
C1477 C1467 1.723 . S
C1477 C1476 1.396 . S
C1477 C1478 1.394 . S
C1478 C1448 1.723 . S
C1478 C1474 1.397 . S
C1478 C1477 1.394 . S
C1479 H1451 0.982 . S
C1479 H1455 0.979 . S
C1479 H1456 0.977 . S
C1479 C1476 1.453 . S
C1480 H1452 0.979 . S
C1480 H1453 0.980 . S
C1480 H1454 0.983 . S
C1480 C1476 1.684 . S
H1481 C1499 0.948 . S
H1482 C1440 0.948 . S
H1483 C1458 0.979 . S
H1484 C1458 0.980 . S
H1485 C1458 0.983 . S
H1486 C1457 0.982 . S
H1487 C1457 0.979 . S
H1488 C1457 0.977 . S
H1489 C1459 0.948 . S
H1490 C1461 0.947 . S
H1491 C1462 0.948 . S
H1492 C1468 0.982 . S
H1493 C1468 0.979 . S
H1494 C1468 0.977 . S
H1495 C1469 0.979 . S
H1496 C1469 0.980 . S
H1497 C1469 0.983 . S
H1498 C1442 0.947 . S
C1499 C1442 1.392 . S
C1499 C1443 1.419 . S
C1499 H1481 0.948 . S
C1500 C1501 1.391 . S
C1500 C1504 1.391 . S
C1500 H1542 0.948 . S
C1501 C1500 1.391 . S
C1501 C1502 1.391 . S
C1502 C1501 1.391 . S
C1502 H1558 0.947 . S
C1502 C1559 1.392 . S
C1503 C1504 1.391 . S
C1503 C1507 1.397 . S
C1503 C1559 1.419 . S
C1504 C1500 1.391 . S
C1504 C1503 1.391 . S
C1504 C1505 1.399 . S
C1505 C1504 1.399 . S
C1505 C1508 1.396 . S
C1505 C1517 1.453 . S
C1505 C1518 1.684 . S
H1506 C1530 0.948 . S
C1507 C1503 1.397 . S
C1507 C1508 1.394 . S
C1507 C1526 1.723 . S
C1508 C1505 1.396 . S
C1508 C1507 1.394 . S
C1508 C1538 1.723 . S
H1509 C1532 0.947 . S
H1510 C1533 0.948 . S
H1511 C1539 0.982 . S
H1512 C1540 0.979 . S
H1513 C1540 0.980 . S
H1514 C1540 0.983 . S
H1515 C1539 0.979 . S
H1516 C1539 0.977 . S
C1517 C1505 1.453 . S
C1517 H1546 0.982 . S
C1517 H1547 0.979 . S
C1517 H1548 0.977 . S
C1518 C1505 1.684 . S
C1518 H1543 0.979 . S
C1518 H1544 0.980 . S
C1518 H1545 0.983 . S
C1519 C1520 1.391 . S
C1519 C1524 1.391 . S
C1519 H1549 0.948 . S
C1520 C1519 1.391 . S
C1520 C1521 1.391 . S
C1521 C1520 1.391 . S
C1521 C1522 1.392 . S
C1521 H1550 0.947 . S
C1522 C1521 1.392 . S
C1522 C1523 1.419 . S
C1522 H1551 0.948 . S
C1523 C1522 1.419 . S
C1523 C1524 1.391 . S
C1523 C1527 1.397 . S
C1524 C1519 1.391 . S
C1524 C1523 1.391 . S
C1524 C1525 1.399 . S
C1525 C1524 1.399 . S
C1525 C1526 1.396 . S
C1525 C1528 1.453 . S
C1525 C1529 1.684 . S
C1526 C1507 1.723 . S
C1526 C1525 1.396 . S
C1526 C1527 1.394 . S
C1527 C1523 1.397 . S
C1527 C1526 1.394 . S
C1527 C1537 1.723 . S
C1528 C1525 1.453 . S
C1528 H1552 0.982 . S
C1528 H1553 0.979 . S
C1528 H1554 0.977 . S
C1529 C1525 1.684 . S
C1529 H1555 0.979 . S
C1529 H1556 0.980 . S
C1529 H1557 0.983 . S
C1530 H1506 0.948 . S
C1530 C1531 1.391 . S
C1530 C1535 1.391 . S
C1531 C1530 1.391 . S
C1531 C1532 1.391 . S
C1532 H1509 0.947 . S
C1532 C1531 1.391 . S
C1532 C1533 1.392 . S
C1533 H1510 0.948 . S
C1533 C1532 1.392 . S
C1533 C1534 1.419 . S
C1534 C1533 1.419 . S
C1534 C1535 1.391 . S
C1534 C1538 1.397 . S
C1535 C1530 1.391 . S
C1535 C1534 1.391 . S
C1535 C1536 1.399 . S
C1536 C1535 1.399 . S
C1536 C1537 1.396 . S
C1536 C1539 1.453 . S
C1536 C1540 1.684 . S
C1537 C1527 1.723 . S
C1537 C1536 1.396 . S
C1537 C1538 1.394 . S
C1538 C1508 1.723 . S
C1538 C1534 1.397 . S
C1538 C1537 1.394 . S
C1539 H1511 0.982 . S
C1539 H1515 0.979 . S
C1539 H1516 0.977 . S
C1539 C1536 1.453 . S
C1540 H1512 0.979 . S
C1540 H1513 0.980 . S
C1540 H1514 0.983 . S
C1540 C1536 1.684 . S
H1541 C1559 0.948 . S
H1542 C1500 0.948 . S
H1543 C1518 0.979 . S
H1544 C1518 0.980 . S
H1545 C1518 0.983 . S
H1546 C1517 0.982 . S
H1547 C1517 0.979 . S
H1548 C1517 0.977 . S
H1549 C1519 0.948 . S
H1550 C1521 0.947 . S
H1551 C1522 0.948 . S
H1552 C1528 0.982 . S
H1553 C1528 0.979 . S
H1554 C1528 0.977 . S
H1555 C1529 0.979 . S
H1556 C1529 0.980 . S
H1557 C1529 0.983 . S
H1558 C1502 0.947 . S
C1559 C1502 1.392 . S
C1559 C1503 1.419 . S
C1559 H1541 0.948 . S
C1560 C1561 1.391 . S
C1560 C1564 1.391 . S
C1560 H1602 0.948 . S
C1561 C1560 1.391 . S
C1561 C1562 1.391 . S
C1562 C1561 1.391 . S
C1562 H1618 0.947 . S
C1562 C1619 1.392 . S
C1563 C1564 1.391 . S
C1563 C1567 1.397 . S
C1563 C1619 1.419 . S
C1564 C1560 1.391 . S
C1564 C1563 1.391 . S
C1564 C1565 1.399 . S
C1565 C1564 1.399 . S
C1565 C1568 1.396 . S
C1565 C1577 1.453 . S
C1565 C1578 1.684 . S
H1566 C1590 0.948 . S
C1567 C1563 1.397 . S
C1567 C1568 1.394 . S
C1567 C1586 1.723 . S
C1568 C1565 1.396 . S
C1568 C1567 1.394 . S
C1568 C1598 1.723 . S
H1569 C1592 0.947 . S
H1570 C1593 0.948 . S
H1571 C1599 0.982 . S
H1572 C1600 0.979 . S
H1573 C1600 0.980 . S
H1574 C1600 0.983 . S
H1575 C1599 0.979 . S
H1576 C1599 0.977 . S
C1577 C1565 1.453 . S
C1577 H1606 0.982 . S
C1577 H1607 0.979 . S
C1577 H1608 0.977 . S
C1578 C1565 1.684 . S
C1578 H1603 0.979 . S
C1578 H1604 0.980 . S
C1578 H1605 0.983 . S
C1579 C1580 1.391 . S
C1579 C1584 1.391 . S
C1579 H1609 0.948 . S
C1580 C1579 1.391 . S
C1580 C1581 1.391 . S
C1581 C1580 1.391 . S
C1581 C1582 1.392 . S
C1581 H1610 0.947 . S
C1582 C1581 1.392 . S
C1582 C1583 1.419 . S
C1582 H1611 0.948 . S
C1583 C1582 1.419 . S
C1583 C1584 1.391 . S
C1583 C1587 1.397 . S
C1584 C1579 1.391 . S
C1584 C1583 1.391 . S
C1584 C1585 1.399 . S
C1585 C1584 1.399 . S
C1585 C1586 1.396 . S
C1585 C1588 1.453 . S
C1585 C1589 1.684 . S
C1586 C1567 1.723 . S
C1586 C1585 1.396 . S
C1586 C1587 1.394 . S
C1587 C1583 1.397 . S
C1587 C1586 1.394 . S
C1587 C1597 1.723 . S
C1588 C1585 1.453 . S
C1588 H1612 0.982 . S
C1588 H1613 0.979 . S
C1588 H1614 0.977 . S
C1589 C1585 1.684 . S
C1589 H1615 0.979 . S
C1589 H1616 0.980 . S
C1589 H1617 0.983 . S
C1590 H1566 0.948 . S
C1590 C1591 1.391 . S
C1590 C1595 1.391 . S
C1591 C1590 1.391 . S
C1591 C1592 1.391 . S
C1592 H1569 0.947 . S
C1592 C1591 1.391 . S
C1592 C1593 1.392 . S
C1593 H1570 0.948 . S
C1593 C1592 1.392 . S
C1593 C1594 1.419 . S
C1594 C1593 1.419 . S
C1594 C1595 1.391 . S
C1594 C1598 1.397 . S
C1595 C1590 1.391 . S
C1595 C1594 1.391 . S
C1595 C1596 1.399 . S
C1596 C1595 1.399 . S
C1596 C1597 1.396 . S
C1596 C1599 1.453 . S
C1596 C1600 1.684 . S
C1597 C1587 1.723 . S
C1597 C1596 1.396 . S
C1597 C1598 1.394 . S
C1598 C1568 1.723 . S
C1598 C1594 1.397 . S
C1598 C1597 1.394 . S
C1599 H1571 0.982 . S
C1599 H1575 0.979 . S
C1599 H1576 0.977 . S
C1599 C1596 1.453 . S
C1600 H1572 0.979 . S
C1600 H1573 0.980 . S
C1600 H1574 0.983 . S
C1600 C1596 1.684 . S
H1601 C1619 0.948 . S
H1602 C1560 0.948 . S
H1603 C1578 0.979 . S
H1604 C1578 0.980 . S
H1605 C1578 0.983 . S
H1606 C1577 0.982 . S
H1607 C1577 0.979 . S
H1608 C1577 0.977 . S
H1609 C1579 0.948 . S
H1610 C1581 0.947 . S
H1611 C1582 0.948 . S
H1612 C1588 0.982 . S
H1613 C1588 0.979 . S
H1614 C1588 0.977 . S
H1615 C1589 0.979 . S
H1616 C1589 0.980 . S
H1617 C1589 0.983 . S
H1618 C1562 0.947 . S
C1619 C1562 1.392 . S
C1619 C1563 1.419 . S
C1619 H1601 0.948 . S
C1620 C1621 1.391 . S
C1620 C1624 1.391 . S
C1620 H1662 0.948 . S
C1621 C1620 1.391 . S
C1621 C1622 1.391 . S
C1622 C1621 1.391 . S
C1622 H1678 0.947 . S
C1622 C1679 1.392 . S
C1623 C1624 1.391 . S
C1623 C1627 1.397 . S
C1623 C1679 1.419 . S
C1624 C1620 1.391 . S
C1624 C1623 1.391 . S
C1624 C1625 1.399 . S
C1625 C1624 1.399 . S
C1625 C1628 1.396 . S
C1625 C1637 1.453 . S
C1625 C1638 1.684 . S
H1626 C1650 0.948 . S
C1627 C1623 1.397 . S
C1627 C1628 1.394 . S
C1627 C1646 1.723 . S
C1628 C1625 1.396 . S
C1628 C1627 1.394 . S
C1628 C1658 1.723 . S
H1629 C1652 0.947 . S
H1630 C1653 0.948 . S
H1631 C1659 0.982 . S
H1632 C1660 0.979 . S
H1633 C1660 0.980 . S
H1634 C1660 0.983 . S
H1635 C1659 0.979 . S
H1636 C1659 0.977 . S
C1637 C1625 1.453 . S
C1637 H1666 0.982 . S
C1637 H1667 0.979 . S
C1637 H1668 0.977 . S
C1638 C1625 1.684 . S
C1638 H1663 0.979 . S
C1638 H1664 0.980 . S
C1638 H1665 0.983 . S
C1639 C1640 1.391 . S
C1639 C1644 1.391 . S
C1639 H1669 0.948 . S
C1640 C1639 1.391 . S
C1640 C1641 1.391 . S
C1641 C1640 1.391 . S
C1641 C1642 1.392 . S
C1641 H1670 0.947 . S
C1642 C1641 1.392 . S
C1642 C1643 1.419 . S
C1642 H1671 0.948 . S
C1643 C1642 1.419 . S
C1643 C1644 1.391 . S
C1643 C1647 1.397 . S
C1644 C1639 1.391 . S
C1644 C1643 1.391 . S
C1644 C1645 1.399 . S
C1645 C1644 1.399 . S
C1645 C1646 1.396 . S
C1645 C1648 1.453 . S
C1645 C1649 1.684 . S
C1646 C1627 1.723 . S
C1646 C1645 1.396 . S
C1646 C1647 1.394 . S
C1647 C1643 1.397 . S
C1647 C1646 1.394 . S
C1647 C1657 1.723 . S
C1648 C1645 1.453 . S
C1648 H1672 0.982 . S
C1648 H1673 0.979 . S
C1648 H1674 0.977 . S
C1649 C1645 1.684 . S
C1649 H1675 0.979 . S
C1649 H1676 0.980 . S
C1649 H1677 0.983 . S
C1650 H1626 0.948 . S
C1650 C1651 1.391 . S
C1650 C1655 1.391 . S
C1651 C1650 1.391 . S
C1651 C1652 1.391 . S
C1652 H1629 0.947 . S
C1652 C1651 1.391 . S
C1652 C1653 1.392 . S
C1653 H1630 0.948 . S
C1653 C1652 1.392 . S
C1653 C1654 1.419 . S
C1654 C1653 1.419 . S
C1654 C1655 1.391 . S
C1654 C1658 1.397 . S
C1655 C1650 1.391 . S
C1655 C1654 1.391 . S
C1655 C1656 1.399 . S
C1656 C1655 1.399 . S
C1656 C1657 1.396 . S
C1656 C1659 1.453 . S
C1656 C1660 1.684 . S
C1657 C1647 1.723 . S
C1657 C1656 1.396 . S
C1657 C1658 1.394 . S
C1658 C1628 1.723 . S
C1658 C1654 1.397 . S
C1658 C1657 1.394 . S
C1659 H1631 0.982 . S
C1659 H1635 0.979 . S
C1659 H1636 0.977 . S
C1659 C1656 1.453 . S
C1660 H1632 0.979 . S
C1660 H1633 0.980 . S
C1660 H1634 0.983 . S
C1660 C1656 1.684 . S
H1661 C1679 0.948 . S
H1662 C1620 0.948 . S
H1663 C1638 0.979 . S
H1664 C1638 0.980 . S
H1665 C1638 0.983 . S
H1666 C1637 0.982 . S
H1667 C1637 0.979 . S
H1668 C1637 0.977 . S
H1669 C1639 0.948 . S
H1670 C1641 0.947 . S
H1671 C1642 0.948 . S
H1672 C1648 0.982 . S
H1673 C1648 0.979 . S
H1674 C1648 0.977 . S
H1675 C1649 0.979 . S
H1676 C1649 0.980 . S
H1677 C1649 0.983 . S
H1678 C1622 0.947 . S
C1679 C1622 1.392 . S
C1679 C1623 1.419 . S
C1679 H1661 0.948 . S
C1680 C1681 1.391 . S
C1680 C1684 1.391 . S
C1680 H1722 0.948 . S
C1681 C1680 1.391 . S
C1681 C1682 1.391 . S
C1682 C1681 1.391 . S
C1682 H1738 0.947 . S
C1682 C1739 1.392 . S
C1683 C1684 1.391 . S
C1683 C1687 1.397 . S
C1683 C1739 1.419 . S
C1684 C1680 1.391 . S
C1684 C1683 1.391 . S
C1684 C1685 1.399 . S
C1685 C1684 1.399 . S
C1685 C1688 1.396 . S
C1685 C1697 1.453 . S
C1685 C1698 1.684 . S
H1686 C1710 0.948 . S
C1687 C1683 1.397 . S
C1687 C1688 1.394 . S
C1687 C1706 1.723 . S
C1688 C1685 1.396 . S
C1688 C1687 1.394 . S
C1688 C1718 1.723 . S
H1689 C1712 0.947 . S
H1690 C1713 0.948 . S
H1691 C1719 0.982 . S
H1692 C1720 0.979 . S
H1693 C1720 0.980 . S
H1694 C1720 0.983 . S
H1695 C1719 0.979 . S
H1696 C1719 0.977 . S
C1697 C1685 1.453 . S
C1697 H1726 0.982 . S
C1697 H1727 0.979 . S
C1697 H1728 0.977 . S
C1698 C1685 1.684 . S
C1698 H1723 0.979 . S
C1698 H1724 0.980 . S
C1698 H1725 0.983 . S
C1699 C1700 1.391 . S
C1699 C1704 1.391 . S
C1699 H1729 0.948 . S
C1700 C1699 1.391 . S
C1700 C1701 1.391 . S
C1701 C1700 1.391 . S
C1701 C1702 1.392 . S
C1701 H1730 0.947 . S
C1702 C1701 1.392 . S
C1702 C1703 1.419 . S
C1702 H1731 0.948 . S
C1703 C1702 1.419 . S
C1703 C1704 1.391 . S
C1703 C1707 1.397 . S
C1704 C1699 1.391 . S
C1704 C1703 1.391 . S
C1704 C1705 1.399 . S
C1705 C1704 1.399 . S
C1705 C1706 1.396 . S
C1705 C1708 1.453 . S
C1705 C1709 1.684 . S
C1706 C1687 1.723 . S
C1706 C1705 1.396 . S
C1706 C1707 1.394 . S
C1707 C1703 1.397 . S
C1707 C1706 1.394 . S
C1707 C1717 1.723 . S
C1708 C1705 1.453 . S
C1708 H1732 0.982 . S
C1708 H1733 0.979 . S
C1708 H1734 0.977 . S
C1709 C1705 1.684 . S
C1709 H1735 0.979 . S
C1709 H1736 0.980 . S
C1709 H1737 0.983 . S
C1710 H1686 0.948 . S
C1710 C1711 1.391 . S
C1710 C1715 1.391 . S
C1711 C1710 1.391 . S
C1711 C1712 1.391 . S
C1712 H1689 0.947 . S
C1712 C1711 1.391 . S
C1712 C1713 1.392 . S
C1713 H1690 0.948 . S
C1713 C1712 1.392 . S
C1713 C1714 1.419 . S
C1714 C1713 1.419 . S
C1714 C1715 1.391 . S
C1714 C1718 1.397 . S
C1715 C1710 1.391 . S
C1715 C1714 1.391 . S
C1715 C1716 1.399 . S
C1716 C1715 1.399 . S
C1716 C1717 1.396 . S
C1716 C1719 1.453 . S
C1716 C1720 1.684 . S
C1717 C1707 1.723 . S
C1717 C1716 1.396 . S
C1717 C1718 1.394 . S
C1718 C1688 1.723 . S
C1718 C1714 1.397 . S
C1718 C1717 1.394 . S
C1719 H1691 0.982 . S
C1719 H1695 0.979 . S
C1719 H1696 0.977 . S
C1719 C1716 1.453 . S
C1720 H1692 0.979 . S
C1720 H1693 0.980 . S
C1720 H1694 0.983 . S
C1720 C1716 1.684 . S
H1721 C1739 0.948 . S
H1722 C1680 0.948 . S
H1723 C1698 0.979 . S
H1724 C1698 0.980 . S
H1725 C1698 0.983 . S
H1726 C1697 0.982 . S
H1727 C1697 0.979 . S
H1728 C1697 0.977 . S
H1729 C1699 0.948 . S
H1730 C1701 0.947 . S
H1731 C1702 0.948 . S
H1732 C1708 0.982 . S
H1733 C1708 0.979 . S
H1734 C1708 0.977 . S
H1735 C1709 0.979 . S
H1736 C1709 0.980 . S
H1737 C1709 0.983 . S
H1738 C1682 0.947 . S
C1739 C1682 1.392 . S
C1739 C1683 1.419 . S
C1739 H1721 0.948 . S
C1740 C1741 1.391 . S
C1740 C1744 1.391 . S
C1740 H1782 0.948 . S
C1741 C1740 1.391 . S
C1741 C1742 1.391 . S
C1742 C1741 1.391 . S
C1742 H1798 0.947 . S
C1742 C1799 1.392 . S
C1743 C1744 1.391 . S
C1743 C1747 1.397 . S
C1743 C1799 1.419 . S
C1744 C1740 1.391 . S
C1744 C1743 1.391 . S
C1744 C1745 1.399 . S
C1745 C1744 1.399 . S
C1745 C1748 1.396 . S
C1745 C1757 1.453 . S
C1745 C1758 1.684 . S
H1746 C1770 0.948 . S
C1747 C1743 1.397 . S
C1747 C1748 1.394 . S
C1747 C1766 1.723 . S
C1748 C1745 1.396 . S
C1748 C1747 1.394 . S
C1748 C1778 1.723 . S
H1749 C1772 0.947 . S
H1750 C1773 0.948 . S
H1751 C1779 0.982 . S
H1752 C1780 0.979 . S
H1753 C1780 0.980 . S
H1754 C1780 0.983 . S
H1755 C1779 0.979 . S
H1756 C1779 0.977 . S
C1757 C1745 1.453 . S
C1757 H1786 0.982 . S
C1757 H1787 0.979 . S
C1757 H1788 0.977 . S
C1758 C1745 1.684 . S
C1758 H1783 0.979 . S
C1758 H1784 0.980 . S
C1758 H1785 0.983 . S
C1759 C1760 1.391 . S
C1759 C1764 1.391 . S
C1759 H1789 0.948 . S
C1760 C1759 1.391 . S
C1760 C1761 1.391 . S
C1761 C1760 1.391 . S
C1761 C1762 1.392 . S
C1761 H1790 0.947 . S
C1762 C1761 1.392 . S
C1762 C1763 1.419 . S
C1762 H1791 0.948 . S
C1763 C1762 1.419 . S
C1763 C1764 1.391 . S
C1763 C1767 1.397 . S
C1764 C1759 1.391 . S
C1764 C1763 1.391 . S
C1764 C1765 1.399 . S
C1765 C1764 1.399 . S
C1765 C1766 1.396 . S
C1765 C1768 1.453 . S
C1765 C1769 1.684 . S
C1766 C1747 1.723 . S
C1766 C1765 1.396 . S
C1766 C1767 1.394 . S
C1767 C1763 1.397 . S
C1767 C1766 1.394 . S
C1767 C1777 1.723 . S
C1768 C1765 1.453 . S
C1768 H1792 0.982 . S
C1768 H1793 0.979 . S
C1768 H1794 0.977 . S
C1769 C1765 1.684 . S
C1769 H1795 0.979 . S
C1769 H1796 0.980 . S
C1769 H1797 0.983 . S
C1770 H1746 0.948 . S
C1770 C1771 1.391 . S
C1770 C1775 1.391 . S
C1771 C1770 1.391 . S
C1771 C1772 1.391 . S
C1772 H1749 0.947 . S
C1772 C1771 1.391 . S
C1772 C1773 1.392 . S
C1773 H1750 0.948 . S
C1773 C1772 1.392 . S
C1773 C1774 1.419 . S
C1774 C1773 1.419 . S
C1774 C1775 1.391 . S
C1774 C1778 1.397 . S
C1775 C1770 1.391 . S
C1775 C1774 1.391 . S
C1775 C1776 1.399 . S
C1776 C1775 1.399 . S
C1776 C1777 1.396 . S
C1776 C1779 1.453 . S
C1776 C1780 1.684 . S
C1777 C1767 1.723 . S
C1777 C1776 1.396 . S
C1777 C1778 1.394 . S
C1778 C1748 1.723 . S
C1778 C1774 1.397 . S
C1778 C1777 1.394 . S
C1779 H1751 0.982 . S
C1779 H1755 0.979 . S
C1779 H1756 0.977 . S
C1779 C1776 1.453 . S
C1780 H1752 0.979 . S
C1780 H1753 0.980 . S
C1780 H1754 0.983 . S
C1780 C1776 1.684 . S
H1781 C1799 0.948 . S
H1782 C1740 0.948 . S
H1783 C1758 0.979 . S
H1784 C1758 0.980 . S
H1785 C1758 0.983 . S
H1786 C1757 0.982 . S
H1787 C1757 0.979 . S
H1788 C1757 0.977 . S
H1789 C1759 0.948 . S
H1790 C1761 0.947 . S
H1791 C1762 0.948 . S
H1792 C1768 0.982 . S
H1793 C1768 0.979 . S
H1794 C1768 0.977 . S
H1795 C1769 0.979 . S
H1796 C1769 0.980 . S
H1797 C1769 0.983 . S
H1798 C1742 0.947 . S
C1799 C1742 1.392 . S
C1799 C1743 1.419 . S
C1799 H1781 0.948 . S
C1800 C1801 1.391 . S
C1800 C1804 1.391 . S
C1800 H1842 0.948 . S
C1801 C1800 1.391 . S
C1801 C1802 1.391 . S
C1802 C1801 1.391 . S
C1802 H1858 0.947 . S
C1802 C1859 1.392 . S
C1803 C1804 1.391 . S
C1803 C1807 1.397 . S
C1803 C1859 1.419 . S
C1804 C1800 1.391 . S
C1804 C1803 1.391 . S
C1804 C1805 1.399 . S
C1805 C1804 1.399 . S
C1805 C1808 1.396 . S
C1805 C1817 1.453 . S
C1805 C1818 1.684 . S
H1806 C1830 0.948 . S
C1807 C1803 1.397 . S
C1807 C1808 1.394 . S
C1807 C1826 1.723 . S
C1808 C1805 1.396 . S
C1808 C1807 1.394 . S
C1808 C1838 1.723 . S
H1809 C1832 0.947 . S
H1810 C1833 0.948 . S
H1811 C1839 0.982 . S
H1812 C1840 0.979 . S
H1813 C1840 0.980 . S
H1814 C1840 0.983 . S
H1815 C1839 0.979 . S
H1816 C1839 0.977 . S
C1817 C1805 1.453 . S
C1817 H1846 0.982 . S
C1817 H1847 0.979 . S
C1817 H1848 0.977 . S
C1818 C1805 1.684 . S
C1818 H1843 0.979 . S
C1818 H1844 0.980 . S
C1818 H1845 0.983 . S
C1819 C1820 1.391 . S
C1819 C1824 1.391 . S
C1819 H1849 0.948 . S
C1820 C1819 1.391 . S
C1820 C1821 1.391 . S
C1821 C1820 1.391 . S
C1821 C1822 1.392 . S
C1821 H1850 0.947 . S
C1822 C1821 1.392 . S
C1822 C1823 1.419 . S
C1822 H1851 0.948 . S
C1823 C1822 1.419 . S
C1823 C1824 1.391 . S
C1823 C1827 1.397 . S
C1824 C1819 1.391 . S
C1824 C1823 1.391 . S
C1824 C1825 1.399 . S
C1825 C1824 1.399 . S
C1825 C1826 1.396 . S
C1825 C1828 1.453 . S
C1825 C1829 1.684 . S
C1826 C1807 1.723 . S
C1826 C1825 1.396 . S
C1826 C1827 1.394 . S
C1827 C1823 1.397 . S
C1827 C1826 1.394 . S
C1827 C1837 1.723 . S
C1828 C1825 1.453 . S
C1828 H1852 0.982 . S
C1828 H1853 0.979 . S
C1828 H1854 0.977 . S
C1829 C1825 1.684 . S
C1829 H1855 0.979 . S
C1829 H1856 0.980 . S
C1829 H1857 0.983 . S
C1830 H1806 0.948 . S
C1830 C1831 1.391 . S
C1830 C1835 1.391 . S
C1831 C1830 1.391 . S
C1831 C1832 1.391 . S
C1832 H1809 0.947 . S
C1832 C1831 1.391 . S
C1832 C1833 1.392 . S
C1833 H1810 0.948 . S
C1833 C1832 1.392 . S
C1833 C1834 1.419 . S
C1834 C1833 1.419 . S
C1834 C1835 1.391 . S
C1834 C1838 1.397 . S
C1835 C1830 1.391 . S
C1835 C1834 1.391 . S
C1835 C1836 1.399 . S
C1836 C1835 1.399 . S
C1836 C1837 1.396 . S
C1836 C1839 1.453 . S
C1836 C1840 1.684 . S
C1837 C1827 1.723 . S
C1837 C1836 1.396 . S
C1837 C1838 1.394 . S
C1838 C1808 1.723 . S
C1838 C1834 1.397 . S
C1838 C1837 1.394 . S
C1839 H1811 0.982 . S
C1839 H1815 0.979 . S
C1839 H1816 0.977 . S
C1839 C1836 1.453 . S
C1840 H1812 0.979 . S
C1840 H1813 0.980 . S
C1840 H1814 0.983 . S
C1840 C1836 1.684 . S
H1841 C1859 0.948 . S
H1842 C1800 0.948 . S
H1843 C1818 0.979 . S
H1844 C1818 0.980 . S
H1845 C1818 0.983 . S
H1846 C1817 0.982 . S
H1847 C1817 0.979 . S
H1848 C1817 0.977 . S
H1849 C1819 0.948 . S
H1850 C1821 0.947 . S
H1851 C1822 0.948 . S
H1852 C1828 0.982 . S
H1853 C1828 0.979 . S
H1854 C1828 0.977 . S
H1855 C1829 0.979 . S
H1856 C1829 0.980 . S
H1857 C1829 0.983 . S
H1858 C1802 0.947 . S
C1859 C1802 1.392 . S
C1859 C1803 1.419 . S
C1859 H1841 0.948 . S
C1860 C1861 1.391 . S
C1860 C1864 1.391 . S
C1860 H1902 0.948 . S
C1861 C1860 1.391 . S
C1861 C1862 1.391 . S
C1862 C1861 1.391 . S
C1862 H1918 0.947 . S
C1862 C1919 1.392 . S
C1863 C1864 1.391 . S
C1863 C1867 1.397 . S
C1863 C1919 1.419 . S
C1864 C1860 1.391 . S
C1864 C1863 1.391 . S
C1864 C1865 1.399 . S
C1865 C1864 1.399 . S
C1865 C1868 1.396 . S
C1865 C1877 1.453 . S
C1865 C1878 1.684 . S
H1866 C1890 0.948 . S
C1867 C1863 1.397 . S
C1867 C1868 1.394 . S
C1867 C1886 1.723 . S
C1868 C1865 1.396 . S
C1868 C1867 1.394 . S
C1868 C1898 1.723 . S
H1869 C1892 0.947 . S
H1870 C1893 0.948 . S
H1871 C1899 0.982 . S
H1872 C1900 0.979 . S
H1873 C1900 0.980 . S
H1874 C1900 0.983 . S
H1875 C1899 0.979 . S
H1876 C1899 0.977 . S
C1877 C1865 1.453 . S
C1877 H1906 0.982 . S
C1877 H1907 0.979 . S
C1877 H1908 0.977 . S
C1878 C1865 1.684 . S
C1878 H1903 0.979 . S
C1878 H1904 0.980 . S
C1878 H1905 0.983 . S
C1879 C1880 1.391 . S
C1879 C1884 1.391 . S
C1879 H1909 0.948 . S
C1880 C1879 1.391 . S
C1880 C1881 1.391 . S
C1881 C1880 1.391 . S
C1881 C1882 1.392 . S
C1881 H1910 0.947 . S
C1882 C1881 1.392 . S
C1882 C1883 1.419 . S
C1882 H1911 0.948 . S
C1883 C1882 1.419 . S
C1883 C1884 1.391 . S
C1883 C1887 1.397 . S
C1884 C1879 1.391 . S
C1884 C1883 1.391 . S
C1884 C1885 1.399 . S
C1885 C1884 1.399 . S
C1885 C1886 1.396 . S
C1885 C1888 1.453 . S
C1885 C1889 1.684 . S
C1886 C1867 1.723 . S
C1886 C1885 1.396 . S
C1886 C1887 1.394 . S
C1887 C1883 1.397 . S
C1887 C1886 1.394 . S
C1887 C1897 1.723 . S
C1888 C1885 1.453 . S
C1888 H1912 0.982 . S
C1888 H1913 0.979 . S
C1888 H1914 0.977 . S
C1889 C1885 1.684 . S
C1889 H1915 0.979 . S
C1889 H1916 0.980 . S
C1889 H1917 0.983 . S
C1890 H1866 0.948 . S
C1890 C1891 1.391 . S
C1890 C1895 1.391 . S
C1891 C1890 1.391 . S
C1891 C1892 1.391 . S
C1892 H1869 0.947 . S
C1892 C1891 1.391 . S
C1892 C1893 1.392 . S
C1893 H1870 0.948 . S
C1893 C1892 1.392 . S
C1893 C1894 1.419 . S
C1894 C1893 1.419 . S
C1894 C1895 1.391 . S
C1894 C1898 1.397 . S
C1895 C1890 1.391 . S
C1895 C1894 1.391 . S
C1895 C1896 1.399 . S
C1896 C1895 1.399 . S
C1896 C1897 1.396 . S
C1896 C1899 1.453 . S
C1896 C1900 1.684 . S
C1897 C1887 1.723 . S
C1897 C1896 1.396 . S
C1897 C1898 1.394 . S
C1898 C1868 1.723 . S
C1898 C1894 1.397 . S
C1898 C1897 1.394 . S
C1899 H1871 0.982 . S
C1899 H1875 0.979 . S
C1899 H1876 0.977 . S
C1899 C1896 1.453 . S
C1900 H1872 0.979 . S
C1900 H1873 0.980 . S
C1900 H1874 0.983 . S
C1900 C1896 1.684 . S
H1901 C1919 0.948 . S
H1902 C1860 0.948 . S
H1903 C1878 0.979 . S
H1904 C1878 0.980 . S
H1905 C1878 0.983 . S
H1906 C1877 0.982 . S
H1907 C1877 0.979 . S
H1908 C1877 0.977 . S
H1909 C1879 0.948 . S
H1910 C1881 0.947 . S
H1911 C1882 0.948 . S
H1912 C1888 0.982 . S
H1913 C1888 0.979 . S
H1914 C1888 0.977 . S
H1915 C1889 0.979 . S
H1916 C1889 0.980 . S
H1917 C1889 0.983 . S
H1918 C1862 0.947 . S
C1919 C1862 1.392 . S
C1919 C1863 1.419 . S
C1919 H1901 0.948 . S
Cu1920 N1921 1.999 . S
Cu1920 O1926 1.974 1_554 S
Cu1920 N1931 1.985 . S
Cu1920 O1940 1.959 . S
N1921 Cu1920 1.999 . S
N1921 C1923 1.263 1_554 S
N1921 C1925 1.389 . S
N1922 C1923 1.358 . S
N1922 C1924 1.400 . S
C1923 N1921 1.263 1_556 S
C1923 N1922 1.358 . S
C1923 H1929 0.930 . S
C1924 N1922 1.400 . S
C1924 C1925 1.351 1_556 S
C1924 H1941 0.930 . S
C1925 N1921 1.389 . S
C1925 C1924 1.351 1_554 S
C1925 H1930 0.930 . S
O1926 Cu1920 1.974 1_556 S
O1926 C1936 1.282 . S
C1927 O1928 1.261 . S
C1927 O1940 1.251 . S
O1928 C1927 1.261 . S
H1929 C1923 0.930 . S
H1930 C1925 0.930 . S
N1931 Cu1920 1.985 . S
N1931 C1933 1.335 . S
N1931 C1934 1.390 . S
N1932 C1933 1.345 . S
N1932 C1935 1.336 . S
C1933 N1931 1.335 . S
C1933 N1932 1.345 . S
C1933 H1938 0.930 . S
C1934 N1931 1.390 . S
C1934 C1935 1.346 . S
C1934 H1939 0.930 . S
C1935 N1932 1.336 . S
C1935 C1934 1.346 . S
C1935 H1942 0.929 . S
C1936 O1926 1.282 . S
C1936 O1937 1.216 . S
O1937 C1936 1.216 . S
H1938 C1933 0.930 . S
H1939 C1934 0.930 . S
O1940 Cu1920 1.959 . S
O1940 C1927 1.251 . S
H1941 C1924 0.930 . S
H1942 C1935 0.929 . S
Cu1943 N1944 1.999 . S
Cu1943 O1949 1.974 . S
Cu1943 N1954 1.985 1_554 S
Cu1943 O1963 1.959 1_554 S
N1944 Cu1943 1.999 . S
N1944 C1946 1.263 . S
N1944 C1948 1.389 . S
N1945 C1946 1.358 . S
N1945 C1947 1.400 . S
C1946 N1944 1.263 . S
C1946 N1945 1.358 . S
C1946 H1952 0.930 . S
C1947 N1945 1.400 . S
C1947 C1948 1.351 . S
C1947 H1964 0.930 . S
C1948 N1944 1.389 . S
C1948 C1947 1.351 . S
C1948 H1953 0.930 . S
O1949 Cu1943 1.974 . S
O1949 C1959 1.282 . S
C1950 O1951 1.261 . S
C1950 O1963 1.251 . S
O1951 C1950 1.261 . S
H1952 C1946 0.930 . S
H1953 C1948 0.930 . S
N1954 Cu1943 1.985 1_556 S
N1954 C1956 1.335 . S
N1954 C1957 1.390 . S
N1955 C1956 1.345 . S
N1955 C1958 1.336 . S
C1956 N1954 1.335 . S
C1956 N1955 1.345 . S
C1956 H1961 0.930 . S
C1957 N1954 1.390 . S
C1957 C1958 1.346 . S
C1957 H1962 0.930 1_556 S
C1958 N1955 1.336 . S
C1958 C1957 1.346 . S
C1958 H1965 0.929 . S
C1959 O1949 1.282 . S
C1959 O1960 1.216 . S
O1960 C1959 1.216 . S
H1961 C1956 0.930 . S
H1962 C1957 0.930 1_554 S
O1963 Cu1943 1.959 1_556 S
O1963 C1950 1.251 . S
H1964 C1947 0.930 . S
H1965 C1958 0.929 . S
Cu1966 N1967 1.960 1_554 S
Cu1966 O1972 1.926 1_554 S
Cu1966 N1977 2.023 . S
Cu1966 O1986 2.007 . S
N1967 Cu1966 1.960 1_556 S
N1967 C1969 1.263 . S
N1967 C1971 1.389 . S
N1968 C1969 1.358 . S
N1968 C1970 1.400 . S
C1969 N1967 1.263 . S
C1969 N1968 1.358 . S
C1969 H1975 0.930 . S
C1970 N1968 1.400 . S
C1970 C1971 1.351 . S
C1970 H1987 0.930 . S
C1971 N1967 1.389 . S
C1971 C1970 1.351 . S
C1971 H1976 0.930 . S
O1972 Cu1966 1.926 1_556 S
O1972 C1982 1.282 . S
C1973 O1974 1.261 . S
C1973 O1986 1.251 . S
O1974 C1973 1.261 . S
H1975 C1969 0.930 . S
H1976 C1971 0.930 . S
N1977 Cu1966 2.023 . S
N1977 C1979 1.335 . S
N1977 C1980 1.390 . S
N1978 C1979 1.345 . S
N1978 C1981 1.336 . S
C1979 N1977 1.335 . S
C1979 N1978 1.345 . S
C1979 H1984 0.930 . S
C1980 N1977 1.390 . S
C1980 C1981 1.346 . S
C1980 H1985 0.971 . S
C1981 N1978 1.336 . S
C1981 C1980 1.346 . S
C1981 H1988 0.929 . S
C1982 O1972 1.282 . S
C1982 O1983 1.216 . S
O1983 C1982 1.216 . S
H1984 C1979 0.930 . S
H1985 C1980 0.971 . S
O1986 Cu1966 2.007 . S
O1986 C1973 1.251 . S
H1987 C1970 0.930 . S
H1988 C1981 0.929 . S
Cu1989 N1990 2.040 . S
Cu1989 O1995 2.022 . S
Cu1989 N2000 1.947 1_554 S
Cu1989 O2009 1.912 1_554 S
N1990 Cu1989 2.040 . S
N1990 C1992 1.263 . S
N1990 C1994 1.389 . S
N1991 C1992 1.358 . S
N1991 C1993 1.400 . S
C1992 N1990 1.263 . S
C1992 N1991 1.358 . S
C1992 H1998 0.930 . S
C1993 N1991 1.400 . S
C1993 C1994 1.351 . S
C1993 H2010 0.930 . S
C1994 N1990 1.389 . S
C1994 C1993 1.351 . S
C1994 H1999 0.930 . S
O1995 Cu1989 2.022 . S
O1995 C2005 1.282 . S
C1996 O1997 1.261 . S
C1996 O2009 1.251 . S
O1997 C1996 1.261 . S
H1998 C1992 0.930 . S
H1999 C1994 0.930 . S
N2000 Cu1989 1.947 1_556 S
N2000 C2002 1.335 . S
N2000 C2003 1.390 . S
N2001 C2002 1.345 . S
N2001 C2004 1.336 . S
C2002 N2000 1.335 . S
C2002 N2001 1.345 . S
C2002 H2007 0.930 . S
C2003 N2000 1.390 . S
C2003 C2004 1.346 . S
C2003 H2008 0.871 1_556 S
C2004 N2001 1.336 . S
C2004 C2003 1.346 . S
C2004 H2011 0.929 . S
C2005 O1995 1.282 . S
C2005 O2006 1.216 . S
O2006 C2005 1.216 . S
H2007 C2002 0.930 . S
H2008 C2003 0.871 1_554 S
O2009 Cu1989 1.912 1_556 S
O2009 C1996 1.251 . S
H2010 C1993 0.930 . S
H2011 C2004 0.929 . S
Cu2012 N2013 1.999 . S
Cu2012 O2018 1.974 . S
Cu2012 N2023 1.985 1_455 S
Cu2012 O2032 1.959 1_455 S
N2013 Cu2012 1.999 . S
N2013 C2015 1.263 . S
N2013 C2017 1.389 . S
N2014 C2015 1.358 . S
N2014 C2016 1.400 . S
C2015 N2013 1.263 . S
C2015 N2014 1.358 . S
C2015 H2021 0.930 . S
C2016 N2014 1.400 . S
C2016 C2017 1.351 . S
C2016 H2033 0.930 . S
C2017 N2013 1.389 . S
C2017 C2016 1.351 . S
C2017 H2022 0.930 . S
O2018 Cu2012 1.974 . S
O2018 C2028 1.282 . S
C2019 O2020 1.261 . S
C2019 O2032 1.251 . S
O2020 C2019 1.261 . S
H2021 C2015 0.930 . S
H2022 C2017 0.930 . S
N2023 Cu2012 1.985 1_655 S
N2023 C2025 1.335 . S
N2023 C2026 1.390 1_655 S
N2024 C2025 1.345 . S
N2024 C2027 1.336 . S
C2025 N2023 1.335 . S
C2025 N2024 1.345 . S
C2025 H2030 0.930 . S
C2026 N2023 1.390 1_455 S
C2026 C2027 1.345 1_455 S
C2026 H2031 0.931 . S
C2027 N2024 1.336 . S
C2027 C2026 1.345 1_655 S
C2027 H2034 0.929 . S
C2028 O2018 1.282 . S
C2028 O2029 1.216 . S
O2029 C2028 1.216 . S
H2030 C2025 0.930 . S
H2031 C2026 0.931 . S
O2032 Cu2012 1.959 1_655 S
O2032 C2019 1.251 . S
H2033 C2016 0.930 . S
H2034 C2027 0.929 . S
Cu2035 N2036 1.999 . S
Cu2035 O2041 1.974 . S
Cu2035 N2046 1.985 1_545 S
Cu2035 O2055 1.959 1_545 S
N2036 Cu2035 1.999 . S
N2036 C2038 1.263 . S
N2036 C2040 1.389 . S
N2037 C2038 1.358 . S
N2037 C2039 1.400 . S
C2038 N2036 1.263 . S
C2038 N2037 1.358 . S
C2038 H2044 0.930 . S
C2039 N2037 1.400 . S
C2039 C2040 1.351 . S
C2039 H2056 0.930 . S
C2040 N2036 1.389 . S
C2040 C2039 1.351 . S
C2040 H2045 0.930 . S
O2041 Cu2035 1.974 . S
O2041 C2051 1.282 . S
C2042 O2043 1.261 . S
C2042 O2055 1.251 . S
O2043 C2042 1.261 . S
H2044 C2038 0.930 . S
H2045 C2040 0.930 . S
N2046 Cu2035 1.985 1_565 S
N2046 C2048 1.335 . S
N2046 C2049 1.390 . S
N2047 C2048 1.345 . S
N2047 C2050 1.336 . S
C2048 N2046 1.335 . S
C2048 N2047 1.345 . S
C2048 H2053 0.930 . S
C2049 N2046 1.390 . S
C2049 C2050 1.346 . S
C2049 H2054 0.930 1_565 S
C2050 N2047 1.336 . S
C2050 C2049 1.346 . S
C2050 H2057 0.929 . S
C2051 O2041 1.282 . S
C2051 O2052 1.216 . S
O2052 C2051 1.216 . S
H2053 C2048 0.930 . S
H2054 C2049 0.930 1_545 S
O2055 Cu2035 1.959 1_565 S
O2055 C2042 1.251 . S
H2056 C2039 0.930 . S
H2057 C2050 0.929 . S
Cu2058 N2059 2.002 1_455 S
Cu2058 O2064 1.977 1_455 S
Cu2058 N2069 1.982 . S
Cu2058 O2078 1.956 . S
N2059 Cu2058 2.002 1_655 S
N2059 C2061 1.263 . S
N2059 C2063 1.389 . S
N2060 C2061 1.358 . S
N2060 C2062 1.400 . S
C2061 N2059 1.263 . S
C2061 N2060 1.358 . S
C2061 H2067 0.930 . S
C2062 N2060 1.400 . S
C2062 C2063 1.351 . S
C2062 H2079 0.930 . S
C2063 N2059 1.389 . S
C2063 C2062 1.351 . S
C2063 H2068 0.930 . S
O2064 Cu2058 1.977 1_655 S
O2064 C2074 1.282 . S
C2065 O2066 1.261 . S
C2065 O2078 1.251 . S
O2066 C2065 1.261 . S
H2067 C2061 0.930 . S
H2068 C2063 0.930 . S
N2069 Cu2058 1.982 . S
N2069 C2071 1.335 . S
N2069 C2072 1.390 . S
N2070 C2071 1.345 . S
N2070 C2073 1.336 . S
C2071 N2069 1.335 . S
C2071 N2070 1.345 . S
C2071 H2076 0.930 . S
C2072 N2069 1.390 . S
C2072 C2073 1.346 . S
C2072 H2077 0.930 . S
C2073 N2070 1.336 . S
C2073 C2072 1.346 . S
C2073 H2080 0.929 . S
C2074 O2064 1.282 . S
C2074 O2075 1.216 . S
O2075 C2074 1.216 . S
H2076 C2071 0.930 . S
H2077 C2072 0.930 . S
O2078 Cu2058 1.956 . S
O2078 C2065 1.251 . S
H2079 C2062 0.930 . S
H2080 C2073 0.929 . S
Cu2081 N2082 1.987 1_565 S
Cu2081 O2087 1.958 1_565 S
Cu2081 N2092 1.997 . S
Cu2081 O2101 1.975 . S
N2082 Cu2081 1.987 1_545 S
N2082 C2084 1.263 . S
N2082 C2086 1.389 . S
N2083 C2084 1.358 . S
N2083 C2085 1.400 . S
C2084 N2082 1.263 . S
C2084 N2083 1.358 . S
C2084 H2090 0.930 . S
C2085 N2083 1.400 . S
C2085 C2086 1.351 . S
C2085 H2102 0.930 . S
C2086 N2082 1.389 . S
C2086 C2085 1.351 . S
C2086 H2091 0.930 . S
O2087 Cu2081 1.958 1_545 S
O2087 C2097 1.282 . S
C2088 O2089 1.261 . S
C2088 O2101 1.251 . S
O2089 C2088 1.261 . S
H2090 C2084 0.930 . S
H2091 C2086 0.930 . S
N2092 Cu2081 1.997 . S
N2092 C2094 1.335 . S
N2092 C2095 1.390 . S
N2093 C2094 1.345 . S
N2093 C2096 1.336 . S
C2094 N2092 1.335 . S
C2094 N2093 1.345 . S
C2094 H2099 0.930 . S
C2095 N2092 1.390 . S
C2095 C2096 1.346 . S
C2095 H2100 0.930 . S
C2096 N2093 1.336 . S
C2096 C2095 1.346 . S
C2096 H2103 0.929 . S
C2097 O2087 1.282 . S
C2097 O2098 1.216 . S
O2098 C2097 1.216 . S
H2099 C2094 0.930 . S
H2100 C2095 0.930 . S
O2101 Cu2081 1.975 . S
O2101 C2088 1.251 . S
H2102 C2085 0.930 . S
H2103 C2096 0.929 . S
Cu2104 N2105 1.999 . S
Cu2104 O2110 1.974 . S
Cu2104 N2115 1.985 1_455 S
Cu2104 O2124 1.959 1_455 S
N2105 Cu2104 1.999 . S
N2105 C2107 1.263 . S
N2105 C2109 1.389 . S
N2106 C2107 1.358 . S
N2106 C2108 1.400 . S
C2107 N2105 1.263 . S
C2107 N2106 1.358 . S
C2107 H2113 0.930 . S
C2108 N2106 1.400 . S
C2108 C2109 1.351 . S
C2108 H2125 0.930 . S
C2109 N2105 1.389 . S
C2109 C2108 1.351 . S
C2109 H2114 0.930 . S
O2110 Cu2104 1.974 . S
O2110 C2120 1.282 . S
C2111 O2112 1.261 . S
C2111 O2124 1.251 . S
O2112 C2111 1.261 . S
H2113 C2107 0.930 . S
H2114 C2109 0.930 . S
N2115 Cu2104 1.985 1_655 S
N2115 C2117 1.335 . S
N2115 C2118 1.398 . S
N2116 C2117 1.345 . S
N2116 C2119 1.336 . S
C2117 N2115 1.335 . S
C2117 N2116 1.345 . S
C2117 H2122 0.930 . S
C2118 N2115 1.398 . S
C2118 C2119 1.381 . S
C2118 H2123 0.895 1_655 S
C2119 N2116 1.336 . S
C2119 C2118 1.381 . S
C2119 H2126 0.929 . S
C2120 O2110 1.282 . S
C2120 O2121 1.216 . S
O2121 C2120 1.216 . S
H2122 C2117 0.930 . S
H2123 C2118 0.895 1_455 S
O2124 Cu2104 1.959 1_655 S
O2124 C2111 1.251 . S
H2125 C2108 0.930 . S
H2126 C2119 0.929 . S
Cu2127 N2128 1.999 . S
Cu2127 O2133 1.974 . S
Cu2127 N2138 1.985 1_545 S
Cu2127 O2147 1.959 1_545 S
N2128 Cu2127 1.999 . S
N2128 C2130 1.263 . S
N2128 C2132 1.389 . S
N2129 C2130 1.358 . S
N2129 C2131 1.400 . S
C2130 N2128 1.263 . S
C2130 N2129 1.358 . S
C2130 H2136 0.930 . S
C2131 N2129 1.400 . S
C2131 C2132 1.351 . S
C2131 H2148 0.930 . S
C2132 N2128 1.389 . S
C2132 C2131 1.351 . S
C2132 H2137 0.930 . S
O2133 Cu2127 1.974 . S
O2133 C2143 1.282 . S
C2134 O2135 1.261 . S
C2134 O2147 1.251 . S
O2135 C2134 1.261 . S
H2136 C2130 0.930 . S
H2137 C2132 0.930 . S
N2138 Cu2127 1.985 1_565 S
N2138 C2140 1.335 . S
N2138 C2141 1.378 1_565 S
N2139 C2140 1.345 . S
N2139 C2142 1.336 . S
C2140 N2138 1.335 . S
C2140 N2139 1.345 . S
C2140 H2145 0.930 . S
C2141 N2138 1.378 1_545 S
C2141 C2142 1.279 1_545 S
C2141 H2146 1.001 . S
C2142 N2139 1.336 . S
C2142 C2141 1.279 1_565 S
C2142 H2149 0.929 . S
C2143 O2133 1.282 . S
C2143 O2144 1.216 . S
O2144 C2143 1.216 . S
H2145 C2140 0.930 . S
H2146 C2141 1.001 . S
O2147 Cu2127 1.959 1_565 S
O2147 C2134 1.251 . S
H2148 C2131 0.930 . S
H2149 C2142 0.929 . S
Cu2150 N2151 1.999 . S
Cu2150 O2156 1.974 . S
Cu2150 N2161 1.985 . S
Cu2150 O2170 1.959 . S
N2151 Cu2150 1.999 . S
N2151 C2153 1.263 1_455 S
N2151 C2155 1.389 . S
N2152 C2153 1.358 . S
N2152 C2154 1.400 . S
C2153 N2151 1.263 1_655 S
C2153 N2152 1.358 . S
C2153 H2159 0.930 . S
C2154 N2152 1.400 . S
C2154 C2155 1.351 1_655 S
C2154 H2171 0.930 . S
C2155 N2151 1.389 . S
C2155 C2154 1.351 1_455 S
C2155 H2160 0.930 . S
O2156 Cu2150 1.974 . S
O2156 C2166 1.282 1_455 S
C2157 O2158 1.261 . S
C2157 O2170 1.251 . S
O2158 C2157 1.261 . S
H2159 C2153 0.930 . S
H2160 C2155 0.930 . S
N2161 Cu2150 1.985 . S
N2161 C2163 1.335 . S
N2161 C2164 1.390 . S
N2162 C2163 1.345 . S
N2162 C2165 1.336 . S
C2163 N2161 1.335 . S
C2163 N2162 1.345 . S
C2163 H2168 0.930 . S
C2164 N2161 1.390 . S
C2164 C2165 1.346 . S
C2164 H2169 0.930 . S
C2165 N2162 1.336 . S
C2165 C2164 1.346 . S
C2165 H2172 0.929 . S
C2166 O2156 1.282 1_655 S
C2166 O2167 1.216 1_655 S
O2167 C2166 1.216 1_455 S
H2168 C2163 0.930 . S
H2169 C2164 0.930 . S
O2170 Cu2150 1.959 . S
O2170 C2157 1.251 . S
H2171 C2154 0.930 . S
H2172 C2165 0.929 . S
Cu2173 N2174 1.999 . S
Cu2173 O2179 1.974 . S
Cu2173 N2184 2.028 . S
Cu2173 O2193 1.959 1_545 S
N2174 Cu2173 1.999 . S
N2174 C2176 1.263 . S
N2174 C2178 1.389 . S
N2175 C2176 1.358 . S
N2175 C2177 1.400 . S
C2176 N2174 1.263 . S
C2176 N2175 1.358 . S
C2176 H2182 0.930 . S
C2177 N2175 1.400 . S
C2177 C2178 1.351 . S
C2177 H2194 0.930 . S
C2178 N2174 1.389 . S
C2178 C2177 1.351 . S
C2178 H2183 0.930 . S
O2179 Cu2173 1.974 . S
O2179 C2189 1.282 . S
C2180 O2181 1.254 1_565 S
C2180 O2193 1.251 . S
O2181 C2180 1.254 1_545 S
H2182 C2176 0.930 . S
H2183 C2178 0.930 . S
N2184 Cu2173 2.028 . S
N2184 C2186 1.268 1_545 S
N2184 C2187 1.407 . S
N2185 C2186 1.345 . S
N2185 C2188 1.336 . S
C2186 N2184 1.268 1_565 S
C2186 N2185 1.345 . S
C2186 H2191 0.930 . S
C2187 N2184 1.407 . S
C2187 C2188 1.346 1_545 S
C2187 H2192 0.930 . S
C2188 N2185 1.336 . S
C2188 C2187 1.346 1_565 S
C2188 H2195 0.929 . S
C2189 O2179 1.282 . S
C2189 O2190 1.216 . S
O2190 C2189 1.216 . S
H2191 C2186 0.930 . S
H2192 C2187 0.930 . S
O2193 Cu2173 1.959 1_565 S
O2193 C2180 1.251 . S
H2194 C2177 0.930 . S
H2195 C2188 0.929 . S
Cu2196 N2197 1.999 . S
Cu2196 O2202 1.974 . S
Cu2196 N2207 1.985 . S
Cu2196 O2216 1.959 . S
N2197 Cu2196 1.999 . S
N2197 C2199 1.263 . S
N2197 C2201 1.389 . S
N2198 C2199 1.358 . S
N2198 C2200 1.400 . S
C2199 N2197 1.263 . S
C2199 N2198 1.358 . S
C2199 H2205 0.930 . S
C2200 N2198 1.400 . S
C2200 C2201 1.351 . S
C2200 H2217 0.930 . S
C2201 N2197 1.389 . S
C2201 C2200 1.351 . S
C2201 H2206 0.930 . S
O2202 Cu2196 1.974 . S
O2202 C2212 1.282 . S
C2203 O2204 1.261 . S
C2203 O2216 1.251 . S
O2204 C2203 1.261 . S
H2205 C2199 0.930 . S
H2206 C2201 0.930 . S
N2207 Cu2196 1.985 . S
N2207 C2209 1.335 . S
N2207 C2210 1.390 . S
N2208 C2209 1.345 . S
N2208 C2211 1.336 . S
C2209 N2207 1.335 . S
C2209 N2208 1.345 . S
C2209 H2214 0.930 . S
C2210 N2207 1.390 . S
C2210 C2211 1.346 . S
C2210 H2215 0.930 . S
C2211 N2208 1.336 . S
C2211 C2210 1.346 . S
C2211 H2218 0.929 . S
C2212 O2202 1.282 . S
C2212 O2213 1.216 . S
O2213 C2212 1.216 . S
H2214 C2209 0.930 . S
H2215 C2210 0.930 . S
O2216 Cu2196 1.959 . S
O2216 C2203 1.251 . S
H2217 C2200 0.930 . S
H2218 C2211 0.929 . S
Cu2219 N2220 1.999 . S
Cu2219 O2225 1.974 . S
Cu2219 N2230 1.985 . S
Cu2219 O2239 1.959 . S
N2220 Cu2219 1.999 . S
N2220 C2222 1.263 . S
N2220 C2224 1.389 . S
N2221 C2222 1.358 . S
N2221 C2223 1.400 . S
C2222 N2220 1.263 . S
C2222 N2221 1.358 . S
C2222 H2228 0.930 . S
C2223 N2221 1.400 . S
C2223 C2224 1.351 . S
C2223 H2240 0.930 . S
C2224 N2220 1.389 . S
C2224 C2223 1.351 . S
C2224 H2229 0.930 . S
O2225 Cu2219 1.974 . S
O2225 C2235 1.282 . S
C2226 O2227 1.261 . S
C2226 O2239 1.251 . S
O2227 C2226 1.261 . S
H2228 C2222 0.930 . S
H2229 C2224 0.930 . S
N2230 Cu2219 1.985 . S
N2230 C2232 1.335 . S
N2230 C2233 1.390 . S
N2231 C2232 1.345 . S
N2231 C2234 1.336 . S
C2232 N2230 1.335 . S
C2232 N2231 1.345 . S
C2232 H2237 0.930 . S
C2233 N2230 1.390 . S
C2233 C2234 1.346 . S
C2233 H2238 0.930 . S
C2234 N2231 1.336 . S
C2234 C2233 1.346 . S
C2234 H2241 0.929 . S
C2235 O2225 1.282 . S
C2235 O2236 1.216 . S
O2236 C2235 1.216 . S
H2237 C2232 0.930 . S
H2238 C2233 0.930 . S
O2239 Cu2219 1.959 . S
O2239 C2226 1.251 . S
H2240 C2223 0.930 . S
H2241 C2234 0.929 . S
Cu2242 N2243 1.999 . S
Cu2242 O2248 1.974 . S
Cu2242 N2253 1.985 . S
Cu2242 O2262 1.959 . S
N2243 Cu2242 1.999 . S
N2243 C2245 1.263 . S
N2243 C2247 1.389 . S
N2244 C2245 1.358 . S
N2244 C2246 1.400 . S
C2245 N2243 1.263 . S
C2245 N2244 1.358 . S
C2245 H2251 0.930 . S
C2246 N2244 1.400 . S
C2246 C2247 1.351 . S
C2246 H2263 0.930 . S
C2247 N2243 1.389 . S
C2247 C2246 1.351 . S
C2247 H2252 0.930 . S
O2248 Cu2242 1.974 . S
O2248 C2258 1.282 . S
C2249 O2250 1.261 . S
C2249 O2262 1.251 . S
O2250 C2249 1.261 . S
H2251 C2245 0.930 . S
H2252 C2247 0.930 . S
N2253 Cu2242 1.985 . S
N2253 C2255 1.335 . S
N2253 C2256 1.390 . S
N2254 C2255 1.345 . S
N2254 C2257 1.336 . S
C2255 N2253 1.335 . S
C2255 N2254 1.345 . S
C2255 H2260 0.930 . S
C2256 N2253 1.390 . S
C2256 C2257 1.346 . S
C2256 H2261 0.930 . S
C2257 N2254 1.336 . S
C2257 C2256 1.346 . S
C2257 H2264 0.929 . S
C2258 O2248 1.282 . S
C2258 O2259 1.216 . S
O2259 C2258 1.216 . S
H2260 C2255 0.930 . S
H2261 C2256 0.930 . S
O2262 Cu2242 1.959 . S
O2262 C2249 1.251 . S
H2263 C2246 0.930 . S
H2264 C2257 0.929 . S
Cu2265 N2266 1.999 . S
Cu2265 O2271 1.974 . S
Cu2265 N2276 1.985 . S
Cu2265 O2285 1.959 . S
N2266 Cu2265 1.999 . S
N2266 C2268 1.263 . S
N2266 C2270 1.389 . S
N2267 C2268 1.358 . S
N2267 C2269 1.400 . S
C2268 N2266 1.263 . S
C2268 N2267 1.358 . S
C2268 H2274 0.930 . S
C2269 N2267 1.400 . S
C2269 C2270 1.351 . S
C2269 H2286 0.930 . S
C2270 N2266 1.389 . S
C2270 C2269 1.351 . S
C2270 H2275 0.930 . S
O2271 Cu2265 1.974 . S
O2271 C2281 1.282 . S
C2272 O2273 1.261 . S
C2272 O2285 1.251 . S
O2273 C2272 1.261 . S
H2274 C2268 0.930 . S
H2275 C2270 0.930 . S
N2276 Cu2265 1.985 . S
N2276 C2278 1.335 . S
N2276 C2279 1.390 . S
N2277 C2278 1.345 . S
N2277 C2280 1.336 . S
C2278 N2276 1.335 . S
C2278 N2277 1.345 . S
C2278 H2283 0.930 . S
C2279 N2276 1.390 . S
C2279 C2280 1.346 . S
C2279 H2284 0.930 . S
C2280 N2277 1.336 . S
C2280 C2279 1.346 . S
C2280 H2287 0.929 . S
C2281 O2271 1.282 . S
C2281 O2282 1.216 . S
O2282 C2281 1.216 . S
H2283 C2278 0.930 . S
H2284 C2279 0.930 . S
O2285 Cu2265 1.959 . S
O2285 C2272 1.251 . S
H2286 C2269 0.930 . S
H2287 C2280 0.929 . S
Cu2288 N2289 1.999 . S
Cu2288 O2294 1.974 . S
Cu2288 N2299 1.985 . S
Cu2288 O2308 1.959 . S
N2289 Cu2288 1.999 . S
N2289 C2291 1.263 . S
N2289 C2293 1.389 . S
N2290 C2291 1.358 . S
N2290 C2292 1.400 . S
C2291 N2289 1.263 . S
C2291 N2290 1.358 . S
C2291 H2297 0.930 . S
C2292 N2290 1.400 . S
C2292 C2293 1.351 . S
C2292 H2309 0.930 . S
C2293 N2289 1.389 . S
C2293 C2292 1.351 . S
C2293 H2298 0.930 . S
O2294 Cu2288 1.974 . S
O2294 C2304 1.282 . S
C2295 O2296 1.261 . S
C2295 O2308 1.251 . S
O2296 C2295 1.261 . S
H2297 C2291 0.930 . S
H2298 C2293 0.930 . S
N2299 Cu2288 1.985 . S
N2299 C2301 1.335 . S
N2299 C2302 1.390 . S
N2300 C2301 1.345 . S
N2300 C2303 1.336 . S
C2301 N2299 1.335 . S
C2301 N2300 1.345 . S
C2301 H2306 0.930 . S
C2302 N2299 1.390 . S
C2302 C2303 1.346 . S
C2302 H2307 0.930 . S
C2303 N2300 1.336 . S
C2303 C2302 1.346 . S
C2303 H2310 0.929 . S
C2304 O2294 1.282 . S
C2304 O2305 1.216 . S
O2305 C2304 1.216 . S
H2306 C2301 0.930 . S
H2307 C2302 0.930 . S
O2308 Cu2288 1.959 . S
O2308 C2295 1.251 . S
H2309 C2292 0.930 . S
H2310 C2303 0.929 . S
Cu2311 N2312 1.999 . S
Cu2311 O2317 1.974 . S
Cu2311 N2322 1.985 . S
Cu2311 O2331 1.959 . S
N2312 Cu2311 1.999 . S
N2312 C2314 1.263 . S
N2312 C2316 1.389 . S
N2313 C2314 1.358 . S
N2313 C2315 1.400 . S
C2314 N2312 1.263 . S
C2314 N2313 1.358 . S
C2314 H2320 0.930 . S
C2315 N2313 1.400 . S
C2315 C2316 1.351 . S
C2315 H2332 0.930 . S
C2316 N2312 1.389 . S
C2316 C2315 1.351 . S
C2316 H2321 0.930 . S
O2317 Cu2311 1.974 . S
O2317 C2327 1.282 . S
C2318 O2319 1.261 . S
C2318 O2331 1.251 . S
O2319 C2318 1.261 . S
H2320 C2314 0.930 . S
H2321 C2316 0.930 . S
N2322 Cu2311 1.985 . S
N2322 C2324 1.335 . S
N2322 C2325 1.390 . S
N2323 C2324 1.345 . S
N2323 C2326 1.336 . S
C2324 N2322 1.335 . S
C2324 N2323 1.345 . S
C2324 H2329 0.930 . S
C2325 N2322 1.390 . S
C2325 C2326 1.346 . S
C2325 H2330 0.930 . S
C2326 N2323 1.336 . S
C2326 C2325 1.346 . S
C2326 H2333 0.929 . S
C2327 O2317 1.282 . S
C2327 O2328 1.216 . S
O2328 C2327 1.216 . S
H2329 C2324 0.930 . S
H2330 C2325 0.930 . S
O2331 Cu2311 1.959 . S
O2331 C2318 1.251 . S
H2332 C2315 0.930 . S
H2333 C2326 0.929 . S
Cu2334 N2335 1.999 . S
Cu2334 O2340 1.974 . S
Cu2334 N2345 1.985 . S
Cu2334 O2354 1.959 . S
N2335 Cu2334 1.999 . S
N2335 C2337 1.263 . S
N2335 C2339 1.389 . S
N2336 C2337 1.358 . S
N2336 C2338 1.400 . S
C2337 N2335 1.263 . S
C2337 N2336 1.358 . S
C2337 H2343 0.930 . S
C2338 N2336 1.400 . S
C2338 C2339 1.351 . S
C2338 H2355 0.930 . S
C2339 N2335 1.389 . S
C2339 C2338 1.351 . S
C2339 H2344 0.930 . S
O2340 Cu2334 1.974 . S
O2340 C2350 1.282 . S
C2341 O2342 1.261 . S
C2341 O2354 1.251 . S
O2342 C2341 1.261 . S
H2343 C2337 0.930 . S
H2344 C2339 0.930 . S
N2345 Cu2334 1.985 . S
N2345 C2347 1.335 . S
N2345 C2348 1.390 . S
N2346 C2347 1.345 . S
N2346 C2349 1.336 . S
C2347 N2345 1.335 . S
C2347 N2346 1.345 . S
C2347 H2352 0.930 . S
C2348 N2345 1.390 . S
C2348 C2349 1.346 . S
C2348 H2353 0.930 . S
C2349 N2346 1.336 . S
C2349 C2348 1.346 . S
C2349 H2356 0.929 . S
C2350 O2340 1.282 . S
C2350 O2351 1.216 . S
O2351 C2350 1.216 . S
H2352 C2347 0.930 . S
H2353 C2348 0.930 . S
O2354 Cu2334 1.959 . S
O2354 C2341 1.251 . S
H2355 C2338 0.930 . S
H2356 C2349 0.929 . S
Cu2357 N2358 1.999 . S
Cu2357 O2363 1.974 . S
Cu2357 N2368 1.985 . S
Cu2357 O2377 1.959 . S
N2358 Cu2357 1.999 . S
N2358 C2360 1.263 . S
N2358 C2362 1.389 . S
N2359 C2360 1.358 . S
N2359 C2361 1.400 . S
C2360 N2358 1.263 . S
C2360 N2359 1.358 . S
C2360 H2366 0.930 . S
C2361 N2359 1.400 . S
C2361 C2362 1.351 . S
C2361 H2378 0.930 . S
C2362 N2358 1.389 . S
C2362 C2361 1.351 . S
C2362 H2367 0.930 . S
O2363 Cu2357 1.974 . S
O2363 C2373 1.282 . S
C2364 O2365 1.261 . S
C2364 O2377 1.251 . S
O2365 C2364 1.261 . S
H2366 C2360 0.930 . S
H2367 C2362 0.930 . S
N2368 Cu2357 1.985 . S
N2368 C2370 1.335 . S
N2368 C2371 1.390 . S
N2369 C2370 1.345 . S
N2369 C2372 1.336 . S
C2370 N2368 1.335 . S
C2370 N2369 1.345 . S
C2370 H2375 0.930 . S
C2371 N2368 1.390 . S
C2371 C2372 1.346 . S
C2371 H2376 0.930 . S
C2372 N2369 1.336 . S
C2372 C2371 1.346 . S
C2372 H2379 0.929 . S
C2373 O2363 1.282 . S
C2373 O2374 1.216 . S
O2374 C2373 1.216 . S
H2375 C2370 0.930 . S
H2376 C2371 0.930 . S
O2377 Cu2357 1.959 . S
O2377 C2364 1.251 . S
H2378 C2361 0.930 . S
H2379 C2372 0.929 . S
Cu2380 N2381 1.999 . S
Cu2380 O2386 1.974 . S
Cu2380 N2391 1.985 . S
Cu2380 O2400 1.959 . S
N2381 Cu2380 1.999 . S
N2381 C2383 1.263 . S
N2381 C2385 1.389 . S
N2382 C2383 1.358 . S
N2382 C2384 1.400 . S
C2383 N2381 1.263 . S
C2383 N2382 1.358 . S
C2383 H2389 0.930 . S
C2384 N2382 1.400 . S
C2384 C2385 1.351 . S
C2384 H2401 0.930 . S
C2385 N2381 1.389 . S
C2385 C2384 1.351 . S
C2385 H2390 0.930 . S
O2386 Cu2380 1.974 . S
O2386 C2396 1.282 . S
C2387 O2388 1.261 . S
C2387 O2400 1.251 . S
O2388 C2387 1.261 . S
H2389 C2383 0.930 . S
H2390 C2385 0.930 . S
N2391 Cu2380 1.985 . S
N2391 C2393 1.335 . S
N2391 C2394 1.390 . S
N2392 C2393 1.345 . S
N2392 C2395 1.336 . S
C2393 N2391 1.335 . S
C2393 N2392 1.345 . S
C2393 H2398 0.930 . S
C2394 N2391 1.390 . S
C2394 C2395 1.346 . S
C2394 H2399 0.930 . S
C2395 N2392 1.336 . S
C2395 C2394 1.346 . S
C2395 H2402 0.929 . S
C2396 O2386 1.282 . S
C2396 O2397 1.216 . S
O2397 C2396 1.216 . S
H2398 C2393 0.930 . S
H2399 C2394 0.930 . S
O2400 Cu2380 1.959 . S
O2400 C2387 1.251 . S
H2401 C2384 0.930 . S
H2402 C2395 0.929 . S
Cu2403 N2404 1.999 . S
Cu2403 O2409 1.974 . S
Cu2403 N2414 1.985 . S
Cu2403 O2423 1.959 . S
N2404 Cu2403 1.999 . S
N2404 C2406 1.263 . S
N2404 C2408 1.389 . S
N2405 C2406 1.358 . S
N2405 C2407 1.400 . S
C2406 N2404 1.263 . S
C2406 N2405 1.358 . S
C2406 H2412 0.930 . S
C2407 N2405 1.400 . S
C2407 C2408 1.351 . S
C2407 H2424 0.930 . S
C2408 N2404 1.389 . S
C2408 C2407 1.351 . S
C2408 H2413 0.930 . S
O2409 Cu2403 1.974 . S
O2409 C2419 1.282 . S
C2410 O2411 1.261 . S
C2410 O2423 1.251 . S
O2411 C2410 1.261 . S
H2412 C2406 0.930 . S
H2413 C2408 0.930 . S
N2414 Cu2403 1.985 . S
N2414 C2416 1.335 . S
N2414 C2417 1.390 . S
N2415 C2416 1.345 . S
N2415 C2418 1.336 . S
C2416 N2414 1.335 . S
C2416 N2415 1.345 . S
C2416 H2421 0.930 . S
C2417 N2414 1.390 . S
C2417 C2418 1.346 . S
C2417 H2422 0.930 . S
C2418 N2415 1.336 . S
C2418 C2417 1.346 . S
C2418 H2425 0.929 . S
C2419 O2409 1.282 . S
C2419 O2420 1.216 . S
O2420 C2419 1.216 . S
H2421 C2416 0.930 . S
H2422 C2417 0.930 . S
O2423 Cu2403 1.959 . S
O2423 C2410 1.251 . S
H2424 C2407 0.930 . S
H2425 C2418 0.929 . S
Cu2426 N2427 1.999 . S
Cu2426 O2432 1.974 . S
Cu2426 N2437 1.985 . S
Cu2426 O2446 1.959 . S
N2427 Cu2426 1.999 . S
N2427 C2429 1.263 . S
N2427 C2431 1.389 . S
N2428 C2429 1.358 . S
N2428 C2430 1.400 . S
C2429 N2427 1.263 . S
C2429 N2428 1.358 . S
C2429 H2435 0.930 . S
C2430 N2428 1.400 . S
C2430 C2431 1.351 . S
C2430 H2447 0.930 . S
C2431 N2427 1.389 . S
C2431 C2430 1.351 . S
C2431 H2436 0.930 . S
O2432 Cu2426 1.974 . S
O2432 C2442 1.282 . S
C2433 O2434 1.261 . S
C2433 O2446 1.251 . S
O2434 C2433 1.261 . S
H2435 C2429 0.930 . S
H2436 C2431 0.930 . S
N2437 Cu2426 1.985 . S
N2437 C2439 1.335 . S
N2437 C2440 1.390 . S
N2438 C2439 1.345 . S
N2438 C2441 1.336 . S
C2439 N2437 1.335 . S
C2439 N2438 1.345 . S
C2439 H2444 0.930 . S
C2440 N2437 1.390 . S
C2440 C2441 1.346 . S
C2440 H2445 0.930 . S
C2441 N2438 1.336 . S
C2441 C2440 1.346 . S
C2441 H2448 0.929 . S
C2442 O2432 1.282 . S
C2442 O2443 1.216 . S
O2443 C2442 1.216 . S
H2444 C2439 0.930 . S
H2445 C2440 0.930 . S
O2446 Cu2426 1.959 . S
O2446 C2433 1.251 . S
H2447 C2430 0.930 . S
H2448 C2441 0.929 . S
Cu2449 N2450 1.999 . S
Cu2449 O2455 1.974 . S
Cu2449 N2460 1.985 . S
Cu2449 O2469 1.959 . S
N2450 Cu2449 1.999 . S
N2450 C2452 1.263 . S
N2450 C2454 1.389 . S
N2451 C2452 1.358 . S
N2451 C2453 1.400 . S
C2452 N2450 1.263 . S
C2452 N2451 1.358 . S
C2452 H2458 0.930 . S
C2453 N2451 1.400 . S
C2453 C2454 1.351 . S
C2453 H2470 0.930 . S
C2454 N2450 1.389 . S
C2454 C2453 1.351 . S
C2454 H2459 0.930 . S
O2455 Cu2449 1.974 . S
O2455 C2465 1.282 . S
C2456 O2457 1.261 . S
C2456 O2469 1.251 . S
O2457 C2456 1.261 . S
H2458 C2452 0.930 . S
H2459 C2454 0.930 . S
N2460 Cu2449 1.985 . S
N2460 C2462 1.335 . S
N2460 C2463 1.390 . S
N2461 C2462 1.345 . S
N2461 C2464 1.336 . S
C2462 N2460 1.335 . S
C2462 N2461 1.345 . S
C2462 H2467 0.930 . S
C2463 N2460 1.390 . S
C2463 C2464 1.346 . S
C2463 H2468 0.930 . S
C2464 N2461 1.336 . S
C2464 C2463 1.346 . S
C2464 H2471 0.929 . S
C2465 O2455 1.282 . S
C2465 O2466 1.216 . S
O2466 C2465 1.216 . S
H2467 C2462 0.930 . S
H2468 C2463 0.930 . S
O2469 Cu2449 1.959 . S
O2469 C2456 1.251 . S
H2470 C2453 0.930 . S
H2471 C2464 0.929 . S
H2472 C2478 0.930 . S
H2473 C2482 0.930 . S
H2474 C2487 0.929 . S
H2475 C2485 0.929 . S
H2476 C2480 0.929 . S
H2477 C2486 0.929 . S
C2478 H2472 0.930 . S
C2478 C2479 1.367 . S
C2478 C2486 1.378 . S
C2479 C2478 1.367 . S
C2479 C2487 1.433 . S
C2480 H2476 0.929 . S
C2480 C2482 1.378 . S
C2480 C2484 1.350 . S
C2481 C2484 1.463 . S
C2481 C2486 1.350 . S
C2481 N2489 1.427 . S
C2482 H2473 0.930 . S
C2482 C2480 1.378 . S
C2482 C2483 1.367 . S
C2483 C2482 1.367 . S
C2483 C2485 1.433 . S
C2484 C2480 1.350 . S
C2484 C2481 1.463 . S
C2484 N2488 1.427 . S
C2485 H2475 0.929 . S
C2485 C2483 1.433 . S
C2485 N2488 1.384 . S
C2486 H2477 0.929 . S
C2486 C2478 1.378 . S
C2486 C2481 1.350 . S
C2487 H2474 0.929 . S
C2487 C2479 1.433 . S
C2487 N2489 1.384 . S
N2488 C2484 1.427 . S
N2488 C2485 1.384 . S
N2489 C2481 1.427 . S
N2489 C2487 1.384 . S
H2490 C2496 0.930 . S
H2491 C2500 0.930 . S
H2492 C2505 0.929 . S
H2493 C2503 0.929 . S
H2494 C2498 0.929 . S
H2495 C2504 0.929 . S
C2496 H2490 0.930 . S
C2496 C2497 1.367 . S
C2496 C2504 1.378 . S
C2497 C2496 1.367 . S
C2497 C2505 1.433 . S
C2498 H2494 0.929 . S
C2498 C2500 1.378 . S
C2498 C2502 1.350 . S
C2499 C2502 1.463 . S
C2499 C2504 1.350 . S
C2499 N2507 1.427 . S
C2500 H2491 0.930 . S
C2500 C2498 1.378 . S
C2500 C2501 1.367 . S
C2501 C2500 1.367 . S
C2501 C2503 1.433 . S
C2502 C2498 1.350 . S
C2502 C2499 1.463 . S
C2502 N2506 1.427 . S
C2503 H2493 0.929 . S
C2503 C2501 1.433 . S
C2503 N2506 1.384 . S
C2504 H2495 0.929 . S
C2504 C2496 1.378 . S
C2504 C2499 1.350 . S
C2505 H2492 0.929 . S
C2505 C2497 1.433 . S
C2505 N2507 1.384 . S
N2506 C2502 1.427 . S
N2506 C2503 1.384 . S
N2507 C2499 1.427 . S
N2507 C2505 1.384 . S
H2508 C2514 0.930 . S
H2509 C2518 0.930 . S
H2510 C2523 0.929 . S
H2511 C2521 0.929 . S
H2512 C2516 0.929 . S
H2513 C2522 0.929 . S
C2514 H2508 0.930 . S
C2514 C2515 1.367 . S
C2514 C2522 1.378 . S
C2515 C2514 1.367 . S
C2515 C2523 1.433 . S
C2516 H2512 0.929 . S
C2516 C2518 1.378 . S
C2516 C2520 1.350 . S
C2517 C2520 1.463 . S
C2517 C2522 1.350 . S
C2517 N2525 1.427 . S
C2518 H2509 0.930 . S
C2518 C2516 1.378 . S
C2518 C2519 1.367 . S
C2519 C2518 1.367 . S
C2519 C2521 1.433 . S
C2520 C2516 1.350 . S
C2520 C2517 1.463 . S
C2520 N2524 1.427 . S
C2521 H2511 0.929 . S
C2521 C2519 1.433 . S
C2521 N2524 1.384 . S
C2522 H2513 0.929 . S
C2522 C2514 1.378 . S
C2522 C2517 1.350 . S
C2523 H2510 0.929 . S
C2523 C2515 1.433 . S
C2523 N2525 1.384 . S
N2524 C2520 1.427 . S
N2524 C2521 1.384 . S
N2525 C2517 1.427 . S
N2525 C2523 1.384 . S
H2526 C2532 0.930 . S
H2527 C2536 0.930 . S
H2528 C2541 0.929 . S
H2529 C2539 0.929 . S
H2530 C2534 0.929 . S
H2531 C2540 0.929 . S
C2532 H2526 0.930 . S
C2532 C2533 1.367 . S
C2532 C2540 1.378 . S
C2533 C2532 1.367 . S
C2533 C2541 1.433 . S
C2534 H2530 0.929 . S
C2534 C2536 1.378 . S
C2534 C2538 1.350 . S
C2535 C2538 1.463 . S
C2535 C2540 1.350 . S
C2535 N2543 1.427 . S
C2536 H2527 0.930 . S
C2536 C2534 1.378 . S
C2536 C2537 1.367 . S
C2537 C2536 1.367 . S
C2537 C2539 1.433 . S
C2538 C2534 1.350 . S
C2538 C2535 1.463 . S
C2538 N2542 1.427 . S
C2539 H2529 0.929 . S
C2539 C2537 1.433 . S
C2539 N2542 1.384 . S
C2540 H2531 0.929 . S
C2540 C2532 1.378 . S
C2540 C2535 1.350 . S
C2541 H2528 0.929 . S
C2541 C2533 1.433 . S
C2541 N2543 1.384 . S
N2542 C2538 1.427 . S
N2542 C2539 1.384 . S
N2543 C2535 1.427 . S
N2543 C2541 1.384 . S
H2544 C2550 0.930 . S
H2545 C2554 0.930 . S
H2546 C2559 0.929 . S
H2547 C2557 0.929 . S
H2548 C2552 0.929 . S
H2549 C2558 0.929 . S
C2550 H2544 0.930 . S
C2550 C2551 1.367 . S
C2550 C2558 1.378 . S
C2551 C2550 1.367 . S
C2551 C2559 1.433 . S
C2552 H2548 0.929 . S
C2552 C2554 1.378 . S
C2552 C2556 1.350 . S
C2553 C2556 1.463 . S
C2553 C2558 1.350 . S
C2553 N2561 1.427 . S
C2554 H2545 0.930 . S
C2554 C2552 1.378 . S
C2554 C2555 1.367 . S
C2555 C2554 1.367 . S
C2555 C2557 1.433 . S
C2556 C2552 1.350 . S
C2556 C2553 1.463 . S
C2556 N2560 1.427 . S
C2557 H2547 0.929 . S
C2557 C2555 1.433 . S
C2557 N2560 1.384 . S
C2558 H2549 0.929 . S
C2558 C2550 1.378 . S
C2558 C2553 1.350 . S
C2559 H2546 0.929 . S
C2559 C2551 1.433 . S
C2559 N2561 1.384 . S
N2560 C2556 1.427 . S
N2560 C2557 1.384 . S
N2561 C2553 1.427 . S
N2561 C2559 1.384 . S
H2562 C2568 0.930 . S
H2563 C2572 0.930 . S
H2564 C2577 0.929 . S
H2565 C2575 0.929 . S
H2566 C2570 0.929 . S
H2567 C2576 0.929 . S
C2568 H2562 0.930 . S
C2568 C2569 1.367 . S
C2568 C2576 1.378 . S
C2569 C2568 1.367 . S
C2569 C2577 1.433 . S
C2570 H2566 0.929 . S
C2570 C2572 1.378 . S
C2570 C2574 1.350 . S
C2571 C2574 1.463 . S
C2571 C2576 1.350 . S
C2571 N2579 1.427 . S
C2572 H2563 0.930 . S
C2572 C2570 1.378 . S
C2572 C2573 1.367 . S
C2573 C2572 1.367 . S
C2573 C2575 1.433 . S
C2574 C2570 1.350 . S
C2574 C2571 1.463 . S
C2574 N2578 1.427 . S
C2575 H2565 0.929 . S
C2575 C2573 1.433 . S
C2575 N2578 1.384 . S
C2576 H2567 0.929 . S
C2576 C2568 1.378 . S
C2576 C2571 1.350 . S
C2577 H2564 0.929 . S
C2577 C2569 1.433 . S
C2577 N2579 1.384 . S
N2578 C2574 1.427 . S
N2578 C2575 1.384 . S
N2579 C2571 1.427 . S
N2579 C2577 1.384 . S
H2580 C2586 0.930 . S
H2581 C2590 0.930 . S
H2582 C2595 0.929 . S
H2583 C2593 0.929 . S
H2584 C2588 0.929 . S
H2585 C2594 0.929 . S
C2586 H2580 0.930 . S
C2586 C2587 1.367 . S
C2586 C2594 1.378 . S
C2587 C2586 1.367 . S
C2587 C2595 1.433 . S
C2588 H2584 0.929 . S
C2588 C2590 1.378 . S
C2588 C2592 1.350 . S
C2589 C2592 1.463 . S
C2589 C2594 1.350 . S
C2589 N2597 1.427 . S
C2590 H2581 0.930 . S
C2590 C2588 1.378 . S
C2590 C2591 1.367 . S
C2591 C2590 1.367 . S
C2591 C2593 1.433 . S
C2592 C2588 1.350 . S
C2592 C2589 1.463 . S
C2592 N2596 1.427 . S
C2593 H2583 0.929 . S
C2593 C2591 1.433 . S
C2593 N2596 1.384 . S
C2594 H2585 0.929 . S
C2594 C2586 1.378 . S
C2594 C2589 1.350 . S
C2595 H2582 0.929 . S
C2595 C2587 1.433 . S
C2595 N2597 1.384 . S
N2596 C2592 1.427 . S
N2596 C2593 1.384 . S
N2597 C2589 1.427 . S
N2597 C2595 1.384 . S
H2598 C2604 0.930 . S
H2599 C2608 0.930 . S
H2600 C2613 0.929 . S
H2601 C2611 0.929 . S
H2602 C2606 0.929 . S
H2603 C2612 0.929 . S
C2604 H2598 0.930 . S
C2604 C2605 1.367 . S
C2604 C2612 1.378 . S
C2605 C2604 1.367 . S
C2605 C2613 1.433 . S
C2606 H2602 0.929 . S
C2606 C2608 1.378 . S
C2606 C2610 1.350 . S
C2607 C2610 1.463 . S
C2607 C2612 1.350 . S
C2607 N2615 1.427 . S
C2608 H2599 0.930 . S
C2608 C2606 1.378 . S
C2608 C2609 1.367 . S
C2609 C2608 1.367 . S
C2609 C2611 1.433 . S
C2610 C2606 1.350 . S
C2610 C2607 1.463 . S
C2610 N2614 1.427 . S
C2611 H2601 0.929 . S
C2611 C2609 1.433 . S
C2611 N2614 1.384 . S
C2612 H2603 0.929 . S
C2612 C2604 1.378 . S
C2612 C2607 1.350 . S
C2613 H2600 0.929 . S
C2613 C2605 1.433 . S
C2613 N2615 1.384 . S
N2614 C2610 1.427 . S
N2614 C2611 1.384 . S
N2615 C2607 1.427 . S
N2615 C2613 1.384 . S
H2616 C2622 0.930 . S
H2617 C2626 0.930 . S
H2618 C2631 0.929 . S
H2619 C2629 0.929 . S
H2620 C2624 0.929 . S
H2621 C2630 0.929 . S
C2622 H2616 0.930 . S
C2622 C2623 1.367 . S
C2622 C2630 1.378 . S
C2623 C2622 1.367 . S
C2623 C2631 1.433 . S
C2624 H2620 0.929 . S
C2624 C2626 1.378 . S
C2624 C2628 1.350 . S
C2625 C2628 1.463 . S
C2625 C2630 1.350 . S
C2625 N2633 1.427 . S
C2626 H2617 0.930 . S
C2626 C2624 1.378 . S
C2626 C2627 1.367 . S
C2627 C2626 1.367 . S
C2627 C2629 1.433 . S
C2628 C2624 1.350 . S
C2628 C2625 1.463 . S
C2628 N2632 1.427 . S
C2629 H2619 0.929 . S
C2629 C2627 1.433 . S
C2629 N2632 1.384 . S
C2630 H2621 0.929 . S
C2630 C2622 1.378 . S
C2630 C2625 1.350 . S
C2631 H2618 0.929 . S
C2631 C2623 1.433 . S
C2631 N2633 1.384 . S
N2632 C2628 1.427 . S
N2632 C2629 1.384 . S
N2633 C2625 1.427 . S
N2633 C2631 1.384 . S
H2634 C2640 0.930 . S
H2635 C2644 0.930 . S
H2636 C2649 0.929 . S
H2637 C2647 0.929 . S
H2638 C2642 0.929 . S
H2639 C2648 0.929 . S
C2640 H2634 0.930 . S
C2640 C2641 1.367 . S
C2640 C2648 1.378 . S
C2641 C2640 1.367 . S
C2641 C2649 1.433 . S
C2642 H2638 0.929 . S
C2642 C2644 1.378 . S
C2642 C2646 1.350 . S
C2643 C2646 1.463 . S
C2643 C2648 1.350 . S
C2643 N2651 1.427 . S
C2644 H2635 0.930 . S
C2644 C2642 1.378 . S
C2644 C2645 1.367 . S
C2645 C2644 1.367 . S
C2645 C2647 1.433 . S
C2646 C2642 1.350 . S
C2646 C2643 1.463 . S
C2646 N2650 1.427 . S
C2647 H2637 0.929 . S
C2647 C2645 1.433 . S
C2647 N2650 1.384 . S
C2648 H2639 0.929 . S
C2648 C2640 1.378 . S
C2648 C2643 1.350 . S
C2649 H2636 0.929 . S
C2649 C2641 1.433 . S
C2649 N2651 1.384 . S
N2650 C2646 1.427 . S
N2650 C2647 1.384 . S
N2651 C2643 1.427 . S
N2651 C2649 1.384 . S
H2652 C2658 0.930 . S
H2653 C2662 0.930 . S
H2654 C2667 0.929 . S
H2655 C2665 0.929 . S
H2656 C2660 0.929 . S
H2657 C2666 0.929 . S
C2658 H2652 0.930 . S
C2658 C2659 1.367 . S
C2658 C2666 1.378 . S
C2659 C2658 1.367 . S
C2659 C2667 1.433 . S
C2660 H2656 0.929 . S
C2660 C2662 1.378 . S
C2660 C2664 1.350 . S
C2661 C2664 1.463 . S
C2661 C2666 1.350 . S
C2661 N2669 1.427 . S
C2662 H2653 0.930 . S
C2662 C2660 1.378 . S
C2662 C2663 1.367 . S
C2663 C2662 1.367 . S
C2663 C2665 1.433 . S
C2664 C2660 1.350 . S
C2664 C2661 1.463 . S
C2664 N2668 1.427 . S
C2665 H2655 0.929 . S
C2665 C2663 1.433 . S
C2665 N2668 1.384 . S
C2666 H2657 0.929 . S
C2666 C2658 1.378 . S
C2666 C2661 1.350 . S
C2667 H2654 0.929 . S
C2667 C2659 1.433 . S
C2667 N2669 1.384 . S
N2668 C2664 1.427 . S
N2668 C2665 1.384 . S
N2669 C2661 1.427 . S
N2669 C2667 1.384 . S
H2670 C2676 0.930 . S
H2671 C2680 0.930 . S
H2672 C2685 0.929 . S
H2673 C2683 0.929 . S
H2674 C2678 0.929 . S
H2675 C2684 0.929 . S
C2676 H2670 0.930 . S
C2676 C2677 1.367 . S
C2676 C2684 1.378 . S
C2677 C2676 1.367 . S
C2677 C2685 1.433 . S
C2678 H2674 0.929 . S
C2678 C2680 1.378 . S
C2678 C2682 1.350 . S
C2679 C2682 1.463 . S
C2679 C2684 1.350 . S
C2679 N2687 1.427 . S
C2680 H2671 0.930 . S
C2680 C2678 1.378 . S
C2680 C2681 1.367 . S
C2681 C2680 1.367 . S
C2681 C2683 1.433 . S
C2682 C2678 1.350 . S
C2682 C2679 1.463 . S
C2682 N2686 1.427 . S
C2683 H2673 0.929 . S
C2683 C2681 1.433 . S
C2683 N2686 1.384 . S
C2684 H2675 0.929 . S
C2684 C2676 1.378 . S
C2684 C2679 1.350 . S
C2685 H2672 0.929 . S
C2685 C2677 1.433 . S
C2685 N2687 1.384 . S
N2686 C2682 1.427 . S
N2686 C2683 1.384 . S
N2687 C2679 1.427 . S
N2687 C2685 1.384 . S
H2688 C2694 0.930 . S
H2689 C2698 0.930 . S
H2690 C2703 0.929 . S
H2691 C2701 0.929 . S
H2692 C2696 0.929 . S
H2693 C2702 0.929 . S
C2694 H2688 0.930 . S
C2694 C2695 1.367 . S
C2694 C2702 1.378 . S
C2695 C2694 1.367 . S
C2695 C2703 1.433 . S
C2696 H2692 0.929 . S
C2696 C2698 1.378 . S
C2696 C2700 1.350 . S
C2697 C2700 1.463 . S
C2697 C2702 1.350 . S
C2697 N2705 1.427 . S
C2698 H2689 0.930 . S
C2698 C2696 1.378 . S
C2698 C2699 1.367 . S
C2699 C2698 1.367 . S
C2699 C2701 1.433 . S
C2700 C2696 1.350 . S
C2700 C2697 1.463 . S
C2700 N2704 1.427 . S
C2701 H2691 0.929 . S
C2701 C2699 1.433 . S
C2701 N2704 1.384 . S
C2702 H2693 0.929 . S
C2702 C2694 1.378 . S
C2702 C2697 1.350 . S
C2703 H2690 0.929 . S
C2703 C2695 1.433 . S
C2703 N2705 1.384 . S
N2704 C2700 1.427 . S
N2704 C2701 1.384 . S
N2705 C2697 1.427 . S
N2705 C2703 1.384 . S
H2706 C2712 0.930 . S
H2707 C2716 0.930 . S
H2708 C2721 0.929 . S
H2709 C2719 0.929 . S
H2710 C2714 0.929 . S
H2711 C2720 0.929 . S
C2712 H2706 0.930 . S
C2712 C2713 1.367 . S
C2712 C2720 1.378 . S
C2713 C2712 1.367 . S
C2713 C2721 1.433 . S
C2714 H2710 0.929 . S
C2714 C2716 1.378 . S
C2714 C2718 1.350 . S
C2715 C2718 1.463 . S
C2715 C2720 1.350 . S
C2715 N2723 1.427 . S
C2716 H2707 0.930 . S
C2716 C2714 1.378 . S
C2716 C2717 1.367 . S
C2717 C2716 1.367 . S
C2717 C2719 1.433 . S
C2718 C2714 1.350 . S
C2718 C2715 1.463 . S
C2718 N2722 1.427 . S
C2719 H2709 0.929 . S
C2719 C2717 1.433 . S
C2719 N2722 1.384 . S
C2720 H2711 0.929 . S
C2720 C2712 1.378 . S
C2720 C2715 1.350 . S
C2721 H2708 0.929 . S
C2721 C2713 1.433 . S
C2721 N2723 1.384 . S
N2722 C2718 1.427 . S
N2722 C2719 1.384 . S
N2723 C2715 1.427 . S
N2723 C2721 1.384 . S
H2724 C2730 0.930 . S
H2725 C2734 0.930 . S
H2726 C2739 0.929 . S
H2727 C2737 0.929 . S
H2728 C2732 0.929 . S
H2729 C2738 0.929 . S
C2730 H2724 0.930 . S
C2730 C2731 1.367 . S
C2730 C2738 1.378 . S
C2731 C2730 1.367 . S
C2731 C2739 1.433 . S
C2732 H2728 0.929 . S
C2732 C2734 1.378 . S
C2732 C2736 1.350 . S
C2733 C2736 1.463 . S
C2733 C2738 1.350 . S
C2733 N2741 1.427 . S
C2734 H2725 0.930 . S
C2734 C2732 1.378 . S
C2734 C2735 1.367 . S
C2735 C2734 1.367 . S
C2735 C2737 1.433 . S
C2736 C2732 1.350 . S
C2736 C2733 1.463 . S
C2736 N2740 1.427 . S
C2737 H2727 0.929 . S
C2737 C2735 1.433 . S
C2737 N2740 1.384 . S
C2738 H2729 0.929 . S
C2738 C2730 1.378 . S
C2738 C2733 1.350 . S
C2739 H2726 0.929 . S
C2739 C2731 1.433 . S
C2739 N2741 1.384 . S
N2740 C2736 1.427 . S
N2740 C2737 1.384 . S
N2741 C2733 1.427 . S
N2741 C2739 1.384 . S
H2742 C2748 0.930 . S
H2743 C2752 0.930 . S
H2744 C2757 0.929 . S
H2745 C2755 0.929 . S
H2746 C2750 0.929 . S
H2747 C2756 0.929 . S
C2748 H2742 0.930 . S
C2748 C2749 1.367 . S
C2748 C2756 1.378 . S
C2749 C2748 1.367 . S
C2749 C2757 1.433 . S
C2750 H2746 0.929 . S
C2750 C2752 1.378 . S
C2750 C2754 1.350 . S
C2751 C2754 1.463 . S
C2751 C2756 1.350 . S
C2751 N2759 1.427 . S
C2752 H2743 0.930 . S
C2752 C2750 1.378 . S
C2752 C2753 1.367 . S
C2753 C2752 1.367 . S
C2753 C2755 1.433 . S
C2754 C2750 1.350 . S
C2754 C2751 1.463 . S
C2754 N2758 1.427 . S
C2755 H2745 0.929 . S
C2755 C2753 1.433 . S
C2755 N2758 1.384 . S
C2756 H2747 0.929 . S
C2756 C2748 1.378 . S
C2756 C2751 1.350 . S
C2757 H2744 0.929 . S
C2757 C2749 1.433 . S
C2757 N2759 1.384 . S
N2758 C2754 1.427 . S
N2758 C2755 1.384 . S
N2759 C2751 1.427 . S
N2759 C2757 1.384 . S
H2760 C2766 0.930 . S
H2761 C2770 0.930 . S
H2762 C2775 0.929 . S
H2763 C2773 0.929 . S
H2764 C2768 0.929 . S
H2765 C2774 0.929 . S
C2766 H2760 0.930 . S
C2766 C2767 1.367 . S
C2766 C2774 1.378 . S
C2767 C2766 1.367 . S
C2767 C2775 1.433 . S
C2768 H2764 0.929 . S
C2768 C2770 1.378 . S
C2768 C2772 1.350 . S
C2769 C2772 1.463 . S
C2769 C2774 1.350 . S
C2769 N2777 1.427 . S
C2770 H2761 0.930 . S
C2770 C2768 1.378 . S
C2770 C2771 1.367 . S
C2771 C2770 1.367 . S
C2771 C2773 1.433 . S
C2772 C2768 1.350 . S
C2772 C2769 1.463 . S
C2772 N2776 1.427 . S
C2773 H2763 0.929 . S
C2773 C2771 1.433 . S
C2773 N2776 1.384 . S
C2774 H2765 0.929 . S
C2774 C2766 1.378 . S
C2774 C2769 1.350 . S
C2775 H2762 0.929 . S
C2775 C2767 1.433 . S
C2775 N2777 1.384 . S
N2776 C2772 1.427 . S
N2776 C2773 1.384 . S
N2777 C2769 1.427 . S
N2777 C2775 1.384 . S
H2778 C2784 0.930 . S
H2779 C2788 0.930 . S
H2780 C2793 0.929 . S
H2781 C2791 0.929 . S
H2782 C2786 0.929 . S
H2783 C2792 0.929 . S
C2784 H2778 0.930 . S
C2784 C2785 1.367 . S
C2784 C2792 1.378 . S
C2785 C2784 1.367 . S
C2785 C2793 1.433 . S
C2786 H2782 0.929 . S
C2786 C2788 1.378 . S
C2786 C2790 1.350 . S
C2787 C2790 1.463 . S
C2787 C2792 1.350 . S
C2787 N2795 1.427 . S
C2788 H2779 0.930 . S
C2788 C2786 1.378 . S
C2788 C2789 1.367 . S
C2789 C2788 1.367 . S
C2789 C2791 1.433 . S
C2790 C2786 1.350 . S
C2790 C2787 1.463 . S
C2790 N2794 1.427 . S
C2791 H2781 0.929 . S
C2791 C2789 1.433 . S
C2791 N2794 1.384 . S
C2792 H2783 0.929 . S
C2792 C2784 1.378 . S
C2792 C2787 1.350 . S
C2793 H2780 0.929 . S
C2793 C2785 1.433 . S
C2793 N2795 1.384 . S
N2794 C2790 1.427 . S
N2794 C2791 1.384 . S
N2795 C2787 1.427 . S
N2795 C2793 1.384 . S
H2796 C2802 0.930 . S
H2797 C2806 0.930 . S
H2798 C2811 0.929 . S
H2799 C2809 0.929 . S
H2800 C2804 0.929 . S
H2801 C2810 0.929 . S
C2802 H2796 0.930 . S
C2802 C2803 1.367 . S
C2802 C2810 1.378 . S
C2803 C2802 1.367 . S
C2803 C2811 1.433 . S
C2804 H2800 0.929 . S
C2804 C2806 1.378 . S
C2804 C2808 1.350 . S
C2805 C2808 1.463 . S
C2805 C2810 1.350 . S
C2805 N2813 1.427 . S
C2806 H2797 0.930 . S
C2806 C2804 1.378 . S
C2806 C2807 1.367 . S
C2807 C2806 1.367 . S
C2807 C2809 1.433 . S
C2808 C2804 1.350 . S
C2808 C2805 1.463 . S
C2808 N2812 1.427 . S
C2809 H2799 0.929 . S
C2809 C2807 1.433 . S
C2809 N2812 1.384 . S
C2810 H2801 0.929 . S
C2810 C2802 1.378 . S
C2810 C2805 1.350 . S
C2811 H2798 0.929 . S
C2811 C2803 1.433 . S
C2811 N2813 1.384 . S
N2812 C2808 1.427 . S
N2812 C2809 1.384 . S
N2813 C2805 1.427 . S
N2813 C2811 1.384 . S
H2814 C2820 0.930 . S
H2815 C2824 0.930 . S
H2816 C2829 0.929 . S
H2817 C2827 0.929 . S
H2818 C2822 0.929 . S
H2819 C2828 0.929 . S
C2820 H2814 0.930 . S
C2820 C2821 1.367 . S
C2820 C2828 1.378 . S
C2821 C2820 1.367 . S
C2821 C2829 1.433 . S
C2822 H2818 0.929 . S
C2822 C2824 1.378 . S
C2822 C2826 1.350 . S
C2823 C2826 1.463 . S
C2823 C2828 1.350 . S
C2823 N2831 1.427 . S
C2824 H2815 0.930 . S
C2824 C2822 1.378 . S
C2824 C2825 1.367 . S
C2825 C2824 1.367 . S
C2825 C2827 1.433 . S
C2826 C2822 1.350 . S
C2826 C2823 1.463 . S
C2826 N2830 1.427 . S
C2827 H2817 0.929 . S
C2827 C2825 1.433 . S
C2827 N2830 1.384 . S
C2828 H2819 0.929 . S
C2828 C2820 1.378 . S
C2828 C2823 1.350 . S
C2829 H2816 0.929 . S
C2829 C2821 1.433 . S
C2829 N2831 1.384 . S
N2830 C2826 1.427 . S
N2830 C2827 1.384 . S
N2831 C2823 1.427 . S
N2831 C2829 1.384 . S
H2832 C2838 0.930 . S
H2833 C2842 0.930 . S
H2834 C2847 0.929 . S
H2835 C2845 0.929 . S
H2836 C2840 0.929 . S
H2837 C2846 0.929 . S
C2838 H2832 0.930 . S
C2838 C2839 1.367 . S
C2838 C2846 1.378 . S
C2839 C2838 1.367 . S
C2839 C2847 1.433 . S
C2840 H2836 0.929 . S
C2840 C2842 1.378 . S
C2840 C2844 1.350 . S
C2841 C2844 1.463 . S
C2841 C2846 1.350 . S
C2841 N2849 1.427 . S
C2842 H2833 0.930 . S
C2842 C2840 1.378 . S
C2842 C2843 1.367 . S
C2843 C2842 1.367 . S
C2843 C2845 1.433 . S
C2844 C2840 1.350 . S
C2844 C2841 1.463 . S
C2844 N2848 1.427 . S
C2845 H2835 0.929 . S
C2845 C2843 1.433 . S
C2845 N2848 1.384 . S
C2846 H2837 0.929 . S
C2846 C2838 1.378 . S
C2846 C2841 1.350 . S
C2847 H2834 0.929 . S
C2847 C2839 1.433 . S
C2847 N2849 1.384 . S
N2848 C2844 1.427 . S
N2848 C2845 1.384 . S
N2849 C2841 1.427 . S
N2849 C2847 1.384 . S
H2850 C2856 0.930 . S
H2851 C2860 0.930 . S
H2852 C2865 0.929 . S
H2853 C2863 0.929 . S
H2854 C2858 0.929 . S
H2855 C2864 0.929 . S
C2856 H2850 0.930 . S
C2856 C2857 1.367 . S
C2856 C2864 1.378 . S
C2857 C2856 1.367 . S
C2857 C2865 1.433 . S
C2858 H2854 0.929 . S
C2858 C2860 1.378 . S
C2858 C2862 1.350 . S
C2859 C2862 1.463 . S
C2859 C2864 1.350 . S
C2859 N2867 1.427 . S
C2860 H2851 0.930 . S
C2860 C2858 1.378 . S
C2860 C2861 1.367 . S
C2861 C2860 1.367 . S
C2861 C2863 1.433 . S
C2862 C2858 1.350 . S
C2862 C2859 1.463 . S
C2862 N2866 1.427 . S
C2863 H2853 0.929 . S
C2863 C2861 1.433 . S
C2863 N2866 1.384 . S
C2864 H2855 0.929 . S
C2864 C2856 1.378 . S
C2864 C2859 1.350 . S
C2865 H2852 0.929 . S
C2865 C2857 1.433 . S
C2865 N2867 1.384 . S
N2866 C2862 1.427 . S
N2866 C2863 1.384 . S
N2867 C2859 1.427 . S
N2867 C2865 1.384 . S
H2868 C2874 0.930 . S
H2869 C2878 0.930 . S
H2870 C2883 0.929 . S
H2871 C2881 0.929 . S
H2872 C2876 0.929 . S
H2873 C2882 0.929 . S
C2874 H2868 0.930 . S
C2874 C2875 1.367 . S
C2874 C2882 1.378 . S
C2875 C2874 1.367 . S
C2875 C2883 1.433 . S
C2876 H2872 0.929 . S
C2876 C2878 1.378 . S
C2876 C2880 1.350 . S
C2877 C2880 1.463 . S
C2877 C2882 1.350 . S
C2877 N2885 1.427 . S
C2878 H2869 0.930 . S
C2878 C2876 1.378 . S
C2878 C2879 1.367 . S
C2879 C2878 1.367 . S
C2879 C2881 1.433 . S
C2880 C2876 1.350 . S
C2880 C2877 1.463 . S
C2880 N2884 1.427 . S
C2881 H2871 0.929 . S
C2881 C2879 1.433 . S
C2881 N2884 1.384 . S
C2882 H2873 0.929 . S
C2882 C2874 1.378 . S
C2882 C2877 1.350 . S
C2883 H2870 0.929 . S
C2883 C2875 1.433 . S
C2883 N2885 1.384 . S
N2884 C2880 1.427 . S
N2884 C2881 1.384 . S
N2885 C2877 1.427 . S
N2885 C2883 1.384 . S
H2886 C2892 0.930 . S
H2887 C2896 0.930 . S
H2888 C2901 0.929 . S
H2889 C2899 0.929 . S
H2890 C2894 0.929 . S
H2891 C2900 0.929 . S
C2892 H2886 0.930 . S
C2892 C2893 1.367 . S
C2892 C2900 1.378 . S
C2893 C2892 1.367 . S
C2893 C2901 1.433 . S
C2894 H2890 0.929 . S
C2894 C2896 1.378 . S
C2894 C2898 1.350 . S
C2895 C2898 1.463 . S
C2895 C2900 1.350 . S
C2895 N2903 1.427 . S
C2896 H2887 0.930 . S
C2896 C2894 1.378 . S
C2896 C2897 1.367 . S
C2897 C2896 1.367 . S
C2897 C2899 1.433 . S
C2898 C2894 1.350 . S
C2898 C2895 1.463 . S
C2898 N2902 1.427 . S
C2899 H2889 0.929 . S
C2899 C2897 1.433 . S
C2899 N2902 1.384 . S
C2900 H2891 0.929 . S
C2900 C2892 1.378 . S
C2900 C2895 1.350 . S
C2901 H2888 0.929 . S
C2901 C2893 1.433 . S
C2901 N2903 1.384 . S
N2902 C2898 1.427 . S
N2902 C2899 1.384 . S
N2903 C2895 1.427 . S
N2903 C2901 1.384 . S
H2904 C2910 0.930 . S
H2905 C2914 0.930 . S
H2906 C2919 0.929 . S
H2907 C2917 0.929 . S
H2908 C2912 0.929 . S
H2909 C2918 0.929 . S
C2910 H2904 0.930 . S
C2910 C2911 1.367 . S
C2910 C2918 1.378 . S
C2911 C2910 1.367 . S
C2911 C2919 1.433 . S
C2912 H2908 0.929 . S
C2912 C2914 1.378 . S
C2912 C2916 1.350 . S
C2913 C2916 1.463 . S
C2913 C2918 1.350 . S
C2913 N2921 1.427 . S
C2914 H2905 0.930 . S
C2914 C2912 1.378 . S
C2914 C2915 1.367 . S
C2915 C2914 1.367 . S
C2915 C2917 1.433 . S
C2916 C2912 1.350 . S
C2916 C2913 1.463 . S
C2916 N2920 1.427 . S
C2917 H2907 0.929 . S
C2917 C2915 1.433 . S
C2917 N2920 1.384 . S
C2918 H2909 0.929 . S
C2918 C2910 1.378 . S
C2918 C2913 1.350 . S
C2919 H2906 0.929 . S
C2919 C2911 1.433 . S
C2919 N2921 1.384 . S
N2920 C2916 1.427 . S
N2920 C2917 1.384 . S
N2921 C2913 1.427 . S
N2921 C2919 1.384 . S
H2922 C2928 0.930 . S
H2923 C2932 0.930 . S
H2924 C2937 0.929 . S
H2925 C2935 0.929 . S
H2926 C2930 0.929 . S
H2927 C2936 0.929 . S
C2928 H2922 0.930 . S
C2928 C2929 1.367 . S
C2928 C2936 1.378 . S
C2929 C2928 1.367 . S
C2929 C2937 1.433 . S
C2930 H2926 0.929 . S
C2930 C2932 1.378 . S
C2930 C2934 1.350 . S
C2931 C2934 1.463 . S
C2931 C2936 1.350 . S
C2931 N2939 1.427 . S
C2932 H2923 0.930 . S
C2932 C2930 1.378 . S
C2932 C2933 1.367 . S
C2933 C2932 1.367 . S
C2933 C2935 1.433 . S
C2934 C2930 1.350 . S
C2934 C2931 1.463 . S
C2934 N2938 1.427 . S
C2935 H2925 0.929 . S
C2935 C2933 1.433 . S
C2935 N2938 1.384 . S
C2936 H2927 0.929 . S
C2936 C2928 1.378 . S
C2936 C2931 1.350 . S
C2937 H2924 0.929 . S
C2937 C2929 1.433 . S
C2937 N2939 1.384 . S
N2938 C2934 1.427 . S
N2938 C2935 1.384 . S
N2939 C2931 1.427 . S
N2939 C2937 1.384 . S
H2940 C2946 0.930 . S
H2941 C2950 0.930 . S
H2942 C2955 0.929 . S
H2943 C2953 0.929 . S
H2944 C2948 0.929 . S
H2945 C2954 0.929 . S
C2946 H2940 0.930 . S
C2946 C2947 1.367 . S
C2946 C2954 1.378 . S
C2947 C2946 1.367 . S
C2947 C2955 1.433 . S
C2948 H2944 0.929 . S
C2948 C2950 1.378 . S
C2948 C2952 1.350 . S
C2949 C2952 1.463 . S
C2949 C2954 1.350 . S
C2949 N2957 1.427 . S
C2950 H2941 0.930 . S
C2950 C2948 1.378 . S
C2950 C2951 1.367 . S
C2951 C2950 1.367 . S
C2951 C2953 1.433 . S
C2952 C2948 1.350 . S
C2952 C2949 1.463 . S
C2952 N2956 1.427 . S
C2953 H2943 0.929 . S
C2953 C2951 1.433 . S
C2953 N2956 1.384 . S
C2954 H2945 0.929 . S
C2954 C2946 1.378 . S
C2954 C2949 1.350 . S
C2955 H2942 0.929 . S
C2955 C2947 1.433 . S
C2955 N2957 1.384 . S
N2956 C2952 1.427 . S
N2956 C2953 1.384 . S
N2957 C2949 1.427 . S
N2957 C2955 1.384 . S
H2958 C2964 0.930 . S
H2959 C2968 0.930 . S
H2960 C2973 0.929 . S
H2961 C2971 0.929 . S
H2962 C2966 0.929 . S
H2963 C2972 0.929 . S
C2964 H2958 0.930 . S
C2964 C2965 1.367 . S
C2964 C2972 1.378 . S
C2965 C2964 1.367 . S
C2965 C2973 1.433 . S
C2966 H2962 0.929 . S
C2966 C2968 1.378 . S
C2966 C2970 1.350 . S
C2967 C2970 1.463 . S
C2967 C2972 1.350 . S
C2967 N2975 1.427 . S
C2968 H2959 0.930 . S
C2968 C2966 1.378 . S
C2968 C2969 1.367 . S
C2969 C2968 1.367 . S
C2969 C2971 1.433 . S
C2970 C2966 1.350 . S
C2970 C2967 1.463 . S
C2970 N2974 1.427 . S
C2971 H2961 0.929 . S
C2971 C2969 1.433 . S
C2971 N2974 1.384 . S
C2972 H2963 0.929 . S
C2972 C2964 1.378 . S
C2972 C2967 1.350 . S
C2973 H2960 0.929 . S
C2973 C2965 1.433 . S
C2973 N2975 1.384 . S
N2974 C2970 1.427 . S
N2974 C2971 1.384 . S
N2975 C2967 1.427 . S
N2975 C2973 1.384 . S
H2976 C2982 0.930 . S
H2977 C2986 0.930 . S
H2978 C2991 0.929 . S
H2979 C2989 0.929 . S
H2980 C2984 0.929 . S
H2981 C2990 0.929 . S
C2982 H2976 0.930 . S
C2982 C2983 1.367 . S
C2982 C2990 1.378 . S
C2983 C2982 1.367 . S
C2983 C2991 1.433 . S
C2984 H2980 0.929 . S
C2984 C2986 1.378 . S
C2984 C2988 1.350 . S
C2985 C2988 1.463 . S
C2985 C2990 1.350 . S
C2985 N2993 1.427 . S
C2986 H2977 0.930 . S
C2986 C2984 1.378 . S
C2986 C2987 1.367 . S
C2987 C2986 1.367 . S
C2987 C2989 1.433 . S
C2988 C2984 1.350 . S
C2988 C2985 1.463 . S
C2988 N2992 1.427 . S
C2989 H2979 0.929 . S
C2989 C2987 1.433 . S
C2989 N2992 1.384 . S
C2990 H2981 0.929 . S
C2990 C2982 1.378 . S
C2990 C2985 1.350 . S
C2991 H2978 0.929 . S
C2991 C2983 1.433 . S
C2991 N2993 1.384 . S
N2992 C2988 1.427 . S
N2992 C2989 1.384 . S
N2993 C2985 1.427 . S
N2993 C2991 1.384 . S
H2994 C3000 0.930 . S
H2995 C3004 0.930 . S
H2996 C3009 0.929 . S
H2997 C3007 0.929 . S
H2998 C3002 0.929 . S
H2999 C3008 0.929 . S
C3000 H2994 0.930 . S
C3000 C3001 1.367 . S
C3000 C3008 1.378 . S
C3001 C3000 1.367 . S
C3001 C3009 1.433 . S
C3002 H2998 0.929 . S
C3002 C3004 1.378 . S
C3002 C3006 1.350 . S
C3003 C3006 1.463 . S
C3003 C3008 1.350 . S
C3003 N3011 1.427 . S
C3004 H2995 0.930 . S
C3004 C3002 1.378 . S
C3004 C3005 1.367 . S
C3005 C3004 1.367 . S
C3005 C3007 1.433 . S
C3006 C3002 1.350 . S
C3006 C3003 1.463 . S
C3006 N3010 1.427 . S
C3007 H2997 0.929 . S
C3007 C3005 1.433 . S
C3007 N3010 1.384 . S
C3008 H2999 0.929 . S
C3008 C3000 1.378 . S
C3008 C3003 1.350 . S
C3009 H2996 0.929 . S
C3009 C3001 1.433 . S
C3009 N3011 1.384 . S
N3010 C3006 1.427 . S
N3010 C3007 1.384 . S
N3011 C3003 1.427 . S
N3011 C3009 1.384 . S
H3012 C3018 0.930 . S
H3013 C3022 0.930 . S
H3014 C3027 0.929 . S
H3015 C3025 0.929 . S
H3016 C3020 0.929 . S
H3017 C3026 0.929 . S
C3018 H3012 0.930 . S
C3018 C3019 1.367 . S
C3018 C3026 1.378 . S
C3019 C3018 1.367 . S
C3019 C3027 1.433 . S
C3020 H3016 0.929 . S
C3020 C3022 1.378 . S
C3020 C3024 1.350 . S
C3021 C3024 1.463 . S
C3021 C3026 1.350 . S
C3021 N3029 1.427 . S
C3022 H3013 0.930 . S
C3022 C3020 1.378 . S
C3022 C3023 1.367 . S
C3023 C3022 1.367 . S
C3023 C3025 1.433 . S
C3024 C3020 1.350 . S
C3024 C3021 1.463 . S
C3024 N3028 1.427 . S
C3025 H3015 0.929 . S
C3025 C3023 1.433 . S
C3025 N3028 1.384 . S
C3026 H3017 0.929 . S
C3026 C3018 1.378 . S
C3026 C3021 1.350 . S
C3027 H3014 0.929 . S
C3027 C3019 1.433 . S
C3027 N3029 1.384 . S
N3028 C3024 1.427 . S
N3028 C3025 1.384 . S
N3029 C3021 1.427 . S
N3029 C3027 1.384 . S
H3030 C3036 0.930 . S
H3031 C3040 0.930 . S
H3032 C3045 0.929 . S
H3033 C3043 0.929 . S
H3034 C3038 0.929 . S
H3035 C3044 0.929 . S
C3036 H3030 0.930 . S
C3036 C3037 1.367 . S
C3036 C3044 1.378 . S
C3037 C3036 1.367 . S
C3037 C3045 1.433 . S
C3038 H3034 0.929 . S
C3038 C3040 1.378 . S
C3038 C3042 1.350 . S
C3039 C3042 1.463 . S
C3039 C3044 1.350 . S
C3039 N3047 1.427 . S
C3040 H3031 0.930 . S
C3040 C3038 1.378 . S
C3040 C3041 1.367 . S
C3041 C3040 1.367 . S
C3041 C3043 1.433 . S
C3042 C3038 1.350 . S
C3042 C3039 1.463 . S
C3042 N3046 1.427 . S
C3043 H3033 0.929 . S
C3043 C3041 1.433 . S
C3043 N3046 1.384 . S
C3044 H3035 0.929 . S
C3044 C3036 1.378 . S
C3044 C3039 1.350 . S
C3045 H3032 0.929 . S
C3045 C3037 1.433 . S
C3045 N3047 1.384 . S
N3046 C3042 1.427 . S
N3046 C3043 1.384 . S
N3047 C3039 1.427 . S
N3047 C3045 1.384 . S
H3048 C3054 0.930 . S
H3049 C3058 0.930 . S
H3050 C3063 0.929 . S
H3051 C3061 0.929 . S
H3052 C3056 0.929 . S
H3053 C3062 0.929 . S
C3054 H3048 0.930 . S
C3054 C3055 1.367 . S
C3054 C3062 1.378 . S
C3055 C3054 1.367 . S
C3055 C3063 1.433 . S
C3056 H3052 0.929 . S
C3056 C3058 1.378 . S
C3056 C3060 1.350 . S
C3057 C3060 1.463 . S
C3057 C3062 1.350 . S
C3057 N3065 1.427 . S
C3058 H3049 0.930 . S
C3058 C3056 1.378 . S
C3058 C3059 1.367 . S
C3059 C3058 1.367 . S
C3059 C3061 1.433 . S
C3060 C3056 1.350 . S
C3060 C3057 1.463 . S
C3060 N3064 1.427 . S
C3061 H3051 0.929 . S
C3061 C3059 1.433 . S
C3061 N3064 1.384 . S
C3062 H3053 0.929 . S
C3062 C3054 1.378 . S
C3062 C3057 1.350 . S
C3063 H3050 0.929 . S
C3063 C3055 1.433 . S
C3063 N3065 1.384 . S
N3064 C3060 1.427 . S
N3064 C3061 1.384 . S
N3065 C3057 1.427 . S
N3065 C3063 1.384 . S
H3066 C3072 0.930 . S
H3067 C3076 0.930 . S
H3068 C3081 0.929 . S
H3069 C3079 0.929 . S
H3070 C3074 0.929 . S
H3071 C3080 0.929 . S
C3072 H3066 0.930 . S
C3072 C3073 1.367 . S
C3072 C3080 1.378 . S
C3073 C3072 1.367 . S
C3073 C3081 1.433 . S
C3074 H3070 0.929 . S
C3074 C3076 1.378 . S
C3074 C3078 1.350 . S
C3075 C3078 1.463 . S
C3075 C3080 1.350 . S
C3075 N3083 1.427 . S
C3076 H3067 0.930 . S
C3076 C3074 1.378 . S
C3076 C3077 1.367 . S
C3077 C3076 1.367 . S
C3077 C3079 1.433 . S
C3078 C3074 1.350 . S
C3078 C3075 1.463 . S
C3078 N3082 1.427 . S
C3079 H3069 0.929 . S
C3079 C3077 1.433 . S
C3079 N3082 1.384 . S
C3080 H3071 0.929 . S
C3080 C3072 1.378 . S
C3080 C3075 1.350 . S
C3081 H3068 0.929 . S
C3081 C3073 1.433 . S
C3081 N3083 1.384 . S
N3082 C3078 1.427 . S
N3082 C3079 1.384 . S
N3083 C3075 1.427 . S
N3083 C3081 1.384 . S
H3084 C3090 0.930 . S
H3085 C3094 0.930 . S
H3086 C3099 0.929 . S
H3087 C3097 0.929 . S
H3088 C3092 0.929 . S
H3089 C3098 0.929 . S
C3090 H3084 0.930 . S
C3090 C3091 1.367 . S
C3090 C3098 1.378 . S
C3091 C3090 1.367 . S
C3091 C3099 1.433 . S
C3092 H3088 0.929 . S
C3092 C3094 1.378 . S
C3092 C3096 1.350 . S
C3093 C3096 1.463 . S
C3093 C3098 1.350 . S
C3093 N3101 1.427 . S
C3094 H3085 0.930 . S
C3094 C3092 1.378 . S
C3094 C3095 1.367 . S
C3095 C3094 1.367 . S
C3095 C3097 1.433 . S
C3096 C3092 1.350 . S
C3096 C3093 1.463 . S
C3096 N3100 1.427 . S
C3097 H3087 0.929 . S
C3097 C3095 1.433 . S
C3097 N3100 1.384 . S
C3098 H3089 0.929 . S
C3098 C3090 1.378 . S
C3098 C3093 1.350 . S
C3099 H3086 0.929 . S
C3099 C3091 1.433 . S
C3099 N3101 1.384 . S
N3100 C3096 1.427 . S
N3100 C3097 1.384 . S
N3101 C3093 1.427 . S
N3101 C3099 1.384 . S
H3102 C3108 0.930 . S
H3103 C3112 0.930 . S
H3104 C3117 0.929 . S
H3105 C3115 0.929 . S
H3106 C3110 0.929 . S
H3107 C3116 0.929 . S
C3108 H3102 0.930 . S
C3108 C3109 1.367 . S
C3108 C3116 1.378 . S
C3109 C3108 1.367 . S
C3109 C3117 1.433 . S
C3110 H3106 0.929 . S
C3110 C3112 1.378 . S
C3110 C3114 1.350 . S
C3111 C3114 1.463 . S
C3111 C3116 1.350 . S
C3111 N3119 1.427 . S
C3112 H3103 0.930 . S
C3112 C3110 1.378 . S
C3112 C3113 1.367 . S
C3113 C3112 1.367 . S
C3113 C3115 1.433 . S
C3114 C3110 1.350 . S
C3114 C3111 1.463 . S
C3114 N3118 1.427 . S
C3115 H3105 0.929 . S
C3115 C3113 1.433 . S
C3115 N3118 1.384 . S
C3116 H3107 0.929 . S
C3116 C3108 1.378 . S
C3116 C3111 1.350 . S
C3117 H3104 0.929 . S
C3117 C3109 1.433 . S
C3117 N3119 1.384 . S
N3118 C3114 1.427 . S
N3118 C3115 1.384 . S
N3119 C3111 1.427 . S
N3119 C3117 1.384 . S
H3120 C3126 0.930 . S
H3121 C3130 0.930 . S
H3122 C3135 0.929 . S
H3123 C3133 0.929 . S
H3124 C3128 0.929 . S
H3125 C3134 0.929 . S
C3126 H3120 0.930 . S
C3126 C3127 1.367 . S
C3126 C3134 1.378 . S
C3127 C3126 1.367 . S
C3127 C3135 1.433 . S
C3128 H3124 0.929 . S
C3128 C3130 1.378 . S
C3128 C3132 1.350 . S
C3129 C3132 1.463 . S
C3129 C3134 1.350 . S
C3129 N3137 1.427 . S
C3130 H3121 0.930 . S
C3130 C3128 1.378 . S
C3130 C3131 1.367 . S
C3131 C3130 1.367 . S
C3131 C3133 1.433 . S
C3132 C3128 1.350 . S
C3132 C3129 1.463 . S
C3132 N3136 1.427 . S
C3133 H3123 0.929 . S
C3133 C3131 1.433 . S
C3133 N3136 1.384 . S
C3134 H3125 0.929 . S
C3134 C3126 1.378 . S
C3134 C3129 1.350 . S
C3135 H3122 0.929 . S
C3135 C3127 1.433 . S
C3135 N3137 1.384 . S
N3136 C3132 1.427 . S
N3136 C3133 1.384 . S
N3137 C3129 1.427 . S
N3137 C3135 1.384 . S
H3138 C3144 0.930 . S
H3139 C3148 0.930 . S
H3140 C3153 0.929 . S
H3141 C3151 0.929 . S
H3142 C3146 0.929 . S
H3143 C3152 0.929 . S
C3144 H3138 0.930 . S
C3144 C3145 1.367 . S
C3144 C3152 1.378 . S
C3145 C3144 1.367 . S
C3145 C3153 1.433 . S
C3146 H3142 0.929 . S
C3146 C3148 1.378 . S
C3146 C3150 1.350 . S
C3147 C3150 1.463 . S
C3147 C3152 1.350 . S
C3147 N3155 1.427 . S
C3148 H3139 0.930 . S
C3148 C3146 1.378 . S
C3148 C3149 1.367 . S
C3149 C3148 1.367 . S
C3149 C3151 1.433 . S
C3150 C3146 1.350 . S
C3150 C3147 1.463 . S
C3150 N3154 1.427 . S
C3151 H3141 0.929 . S
C3151 C3149 1.433 . S
C3151 N3154 1.384 . S
C3152 H3143 0.929 . S
C3152 C3144 1.378 . S
C3152 C3147 1.350 . S
C3153 H3140 0.929 . S
C3153 C3145 1.433 . S
C3153 N3155 1.384 . S
N3154 C3150 1.427 . S
N3154 C3151 1.384 . S
N3155 C3147 1.427 . S
N3155 C3153 1.384 . S
H3156 C3162 0.930 . S
H3157 C3166 0.930 . S
H3158 C3171 0.929 . S
H3159 C3169 0.929 . S
H3160 C3164 0.929 . S
H3161 C3170 0.929 . S
C3162 H3156 0.930 . S
C3162 C3163 1.367 . S
C3162 C3170 1.378 . S
C3163 C3162 1.367 . S
C3163 C3171 1.433 . S
C3164 H3160 0.929 . S
C3164 C3166 1.378 . S
C3164 C3168 1.350 . S
C3165 C3168 1.463 . S
C3165 C3170 1.350 . S
C3165 N3173 1.427 . S
C3166 H3157 0.930 . S
C3166 C3164 1.378 . S
C3166 C3167 1.367 . S
C3167 C3166 1.367 . S
C3167 C3169 1.433 . S
C3168 C3164 1.350 . S
C3168 C3165 1.463 . S
C3168 N3172 1.427 . S
C3169 H3159 0.929 . S
C3169 C3167 1.433 . S
C3169 N3172 1.384 . S
C3170 H3161 0.929 . S
C3170 C3162 1.378 . S
C3170 C3165 1.350 . S
C3171 H3158 0.929 . S
C3171 C3163 1.433 . S
C3171 N3173 1.384 . S
N3172 C3168 1.427 . S
N3172 C3169 1.384 . S
N3173 C3165 1.427 . S
N3173 C3171 1.384 . S
H3174 C3180 0.930 . S
H3175 C3184 0.930 . S
H3176 C3189 0.929 . S
H3177 C3187 0.929 . S
H3178 C3182 0.929 . S
H3179 C3188 0.929 . S
C3180 H3174 0.930 . S
C3180 C3181 1.367 . S
C3180 C3188 1.378 . S
C3181 C3180 1.367 . S
C3181 C3189 1.433 . S
C3182 H3178 0.929 . S
C3182 C3184 1.378 . S
C3182 C3186 1.350 . S
C3183 C3186 1.463 . S
C3183 C3188 1.350 . S
C3183 N3191 1.427 . S
C3184 H3175 0.930 . S
C3184 C3182 1.378 . S
C3184 C3185 1.367 . S
C3185 C3184 1.367 . S
C3185 C3187 1.433 . S
C3186 C3182 1.350 . S
C3186 C3183 1.463 . S
C3186 N3190 1.427 . S
C3187 H3177 0.929 . S
C3187 C3185 1.433 . S
C3187 N3190 1.384 . S
C3188 H3179 0.929 . S
C3188 C3180 1.378 . S
C3188 C3183 1.350 . S
C3189 H3176 0.929 . S
C3189 C3181 1.433 . S
C3189 N3191 1.384 . S
N3190 C3186 1.427 . S
N3190 C3187 1.384 . S
N3191 C3183 1.427 . S
N3191 C3189 1.384 . S
H3192 C3198 0.930 . S
H3193 C3202 0.930 . S
H3194 C3207 0.929 . S
H3195 C3205 0.929 . S
H3196 C3200 0.929 . S
H3197 C3206 0.929 . S
C3198 H3192 0.930 . S
C3198 C3199 1.367 . S
C3198 C3206 1.378 . S
C3199 C3198 1.367 . S
C3199 C3207 1.433 . S
C3200 H3196 0.929 . S
C3200 C3202 1.378 . S
C3200 C3204 1.350 . S
C3201 C3204 1.463 . S
C3201 C3206 1.350 . S
C3201 N3209 1.427 . S
C3202 H3193 0.930 . S
C3202 C3200 1.378 . S
C3202 C3203 1.367 . S
C3203 C3202 1.367 . S
C3203 C3205 1.433 . S
C3204 C3200 1.350 . S
C3204 C3201 1.463 . S
C3204 N3208 1.427 . S
C3205 H3195 0.929 . S
C3205 C3203 1.433 . S
C3205 N3208 1.384 . S
C3206 H3197 0.929 . S
C3206 C3198 1.378 . S
C3206 C3201 1.350 . S
C3207 H3194 0.929 . S
C3207 C3199 1.433 . S
C3207 N3209 1.384 . S
N3208 C3204 1.427 . S
N3208 C3205 1.384 . S
N3209 C3201 1.427 . S
N3209 C3207 1.384 . S
H3210 C3216 0.930 . S
H3211 C3220 0.930 . S
H3212 C3225 0.929 . S
H3213 C3223 0.929 . S
H3214 C3218 0.929 . S
H3215 C3224 0.929 . S
C3216 H3210 0.930 . S
C3216 C3217 1.367 . S
C3216 C3224 1.378 . S
C3217 C3216 1.367 . S
C3217 C3225 1.433 . S
C3218 H3214 0.929 . S
C3218 C3220 1.378 . S
C3218 C3222 1.350 . S
C3219 C3222 1.463 . S
C3219 C3224 1.350 . S
C3219 N3227 1.427 . S
C3220 H3211 0.930 . S
C3220 C3218 1.378 . S
C3220 C3221 1.367 . S
C3221 C3220 1.367 . S
C3221 C3223 1.433 . S
C3222 C3218 1.350 . S
C3222 C3219 1.463 . S
C3222 N3226 1.427 . S
C3223 H3213 0.929 . S
C3223 C3221 1.433 . S
C3223 N3226 1.384 . S
C3224 H3215 0.929 . S
C3224 C3216 1.378 . S
C3224 C3219 1.350 . S
C3225 H3212 0.929 . S
C3225 C3217 1.433 . S
C3225 N3227 1.384 . S
N3226 C3222 1.427 . S
N3226 C3223 1.384 . S
N3227 C3219 1.427 . S
N3227 C3225 1.384 . S
H3228 C3234 0.930 . S
H3229 C3238 0.930 . S
H3230 C3243 0.929 . S
H3231 C3241 0.929 . S
H3232 C3236 0.929 . S
H3233 C3242 0.929 . S
C3234 H3228 0.930 . S
C3234 C3235 1.367 . S
C3234 C3242 1.378 . S
C3235 C3234 1.367 . S
C3235 C3243 1.433 . S
C3236 H3232 0.929 . S
C3236 C3238 1.378 . S
C3236 C3240 1.350 . S
C3237 C3240 1.463 . S
C3237 C3242 1.350 . S
C3237 N3245 1.427 . S
C3238 H3229 0.930 . S
C3238 C3236 1.378 . S
C3238 C3239 1.367 . S
C3239 C3238 1.367 . S
C3239 C3241 1.433 . S
C3240 C3236 1.350 . S
C3240 C3237 1.463 . S
C3240 N3244 1.427 . S
C3241 H3231 0.929 . S
C3241 C3239 1.433 . S
C3241 N3244 1.384 . S
C3242 H3233 0.929 . S
C3242 C3234 1.378 . S
C3242 C3237 1.350 . S
C3243 H3230 0.929 . S
C3243 C3235 1.433 . S
C3243 N3245 1.384 . S
N3244 C3240 1.427 . S
N3244 C3241 1.384 . S
N3245 C3237 1.427 . S
N3245 C3243 1.384 . S
H3246 C3252 0.930 . S
H3247 C3256 0.930 . S
H3248 C3261 0.929 . S
H3249 C3259 0.929 . S
H3250 C3254 0.929 . S
H3251 C3260 0.929 . S
C3252 H3246 0.930 . S
C3252 C3253 1.367 . S
C3252 C3260 1.378 . S
C3253 C3252 1.367 . S
C3253 C3261 1.433 . S
C3254 H3250 0.929 . S
C3254 C3256 1.378 . S
C3254 C3258 1.350 . S
C3255 C3258 1.463 . S
C3255 C3260 1.350 . S
C3255 N3263 1.427 . S
C3256 H3247 0.930 . S
C3256 C3254 1.378 . S
C3256 C3257 1.367 . S
C3257 C3256 1.367 . S
C3257 C3259 1.433 . S
C3258 C3254 1.350 . S
C3258 C3255 1.463 . S
C3258 N3262 1.427 . S
C3259 H3249 0.929 . S
C3259 C3257 1.433 . S
C3259 N3262 1.384 . S
C3260 H3251 0.929 . S
C3260 C3252 1.378 . S
C3260 C3255 1.350 . S
C3261 H3248 0.929 . S
C3261 C3253 1.433 . S
C3261 N3263 1.384 . S
N3262 C3258 1.427 . S
N3262 C3259 1.384 . S
N3263 C3255 1.427 . S
N3263 C3261 1.384 . S
H3264 C3270 0.930 . S
H3265 C3274 0.930 . S
H3266 C3279 0.929 . S
H3267 C3277 0.929 . S
H3268 C3272 0.929 . S
H3269 C3278 0.929 . S
C3270 H3264 0.930 . S
C3270 C3271 1.367 . S
C3270 C3278 1.378 . S
C3271 C3270 1.367 . S
C3271 C3279 1.433 . S
C3272 H3268 0.929 . S
C3272 C3274 1.378 . S
C3272 C3276 1.350 . S
C3273 C3276 1.463 . S
C3273 C3278 1.350 . S
C3273 N3281 1.427 . S
C3274 H3265 0.930 . S
C3274 C3272 1.378 . S
C3274 C3275 1.367 . S
C3275 C3274 1.367 . S
C3275 C3277 1.433 . S
C3276 C3272 1.350 . S
C3276 C3273 1.463 . S
C3276 N3280 1.427 . S
C3277 H3267 0.929 . S
C3277 C3275 1.433 . S
C3277 N3280 1.384 . S
C3278 H3269 0.929 . S
C3278 C3270 1.378 . S
C3278 C3273 1.350 . S
C3279 H3266 0.929 . S
C3279 C3271 1.433 . S
C3279 N3281 1.384 . S
N3280 C3276 1.427 . S
N3280 C3277 1.384 . S
N3281 C3273 1.427 . S
N3281 C3279 1.384 . S
H3282 C3288 0.930 . S
H3283 C3292 0.930 . S
H3284 C3297 0.929 . S
H3285 C3295 0.929 . S
H3286 C3290 0.929 . S
H3287 C3296 0.929 . S
C3288 H3282 0.930 . S
C3288 C3289 1.367 . S
C3288 C3296 1.378 . S
C3289 C3288 1.367 . S
C3289 C3297 1.433 . S
C3290 H3286 0.929 . S
C3290 C3292 1.378 . S
C3290 C3294 1.350 . S
C3291 C3294 1.463 . S
C3291 C3296 1.350 . S
C3291 N3299 1.427 . S
C3292 H3283 0.930 . S
C3292 C3290 1.378 . S
C3292 C3293 1.367 . S
C3293 C3292 1.367 . S
C3293 C3295 1.433 . S
C3294 C3290 1.350 . S
C3294 C3291 1.463 . S
C3294 N3298 1.427 . S
C3295 H3285 0.929 . S
C3295 C3293 1.433 . S
C3295 N3298 1.384 . S
C3296 H3287 0.929 . S
C3296 C3288 1.378 . S
C3296 C3291 1.350 . S
C3297 H3284 0.929 . S
C3297 C3289 1.433 . S
C3297 N3299 1.384 . S
N3298 C3294 1.427 . S
N3298 C3295 1.384 . S
N3299 C3291 1.427 . S
N3299 C3297 1.384 . S
H3300 C3306 0.930 . S
H3301 C3310 0.930 . S
H3302 C3315 0.929 . S
H3303 C3313 0.929 . S
H3304 C3308 0.929 . S
H3305 C3314 0.929 . S
C3306 H3300 0.930 . S
C3306 C3307 1.367 . S
C3306 C3314 1.378 . S
C3307 C3306 1.367 . S
C3307 C3315 1.433 . S
C3308 H3304 0.929 . S
C3308 C3310 1.378 . S
C3308 C3312 1.350 . S
C3309 C3312 1.463 . S
C3309 C3314 1.350 . S
C3309 N3317 1.427 . S
C3310 H3301 0.930 . S
C3310 C3308 1.378 . S
C3310 C3311 1.367 . S
C3311 C3310 1.367 . S
C3311 C3313 1.433 . S
C3312 C3308 1.350 . S
C3312 C3309 1.463 . S
C3312 N3316 1.427 . S
C3313 H3303 0.929 . S
C3313 C3311 1.433 . S
C3313 N3316 1.384 . S
C3314 H3305 0.929 . S
C3314 C3306 1.378 . S
C3314 C3309 1.350 . S
C3315 H3302 0.929 . S
C3315 C3307 1.433 . S
C3315 N3317 1.384 . S
N3316 C3312 1.427 . S
N3316 C3313 1.384 . S
N3317 C3309 1.427 . S
N3317 C3315 1.384 . S
H3318 C3324 0.930 . S
H3319 C3328 0.930 . S
H3320 C3333 0.929 . S
H3321 C3331 0.929 . S
H3322 C3326 0.929 . S
H3323 C3332 0.929 . S
C3324 H3318 0.930 . S
C3324 C3325 1.367 . S
C3324 C3332 1.378 . S
C3325 C3324 1.367 . S
C3325 C3333 1.433 . S
C3326 H3322 0.929 . S
C3326 C3328 1.378 . S
C3326 C3330 1.350 . S
C3327 C3330 1.463 . S
C3327 C3332 1.350 . S
C3327 N3335 1.427 . S
C3328 H3319 0.930 . S
C3328 C3326 1.378 . S
C3328 C3329 1.367 . S
C3329 C3328 1.367 . S
C3329 C3331 1.433 . S
C3330 C3326 1.350 . S
C3330 C3327 1.463 . S
C3330 N3334 1.427 . S
C3331 H3321 0.929 . S
C3331 C3329 1.433 . S
C3331 N3334 1.384 . S
C3332 H3323 0.929 . S
C3332 C3324 1.378 . S
C3332 C3327 1.350 . S
C3333 H3320 0.929 . S
C3333 C3325 1.433 . S
C3333 N3335 1.384 . S
N3334 C3330 1.427 . S
N3334 C3331 1.384 . S
N3335 C3327 1.427 . S
N3335 C3333 1.384 . S
H3336 C3342 0.930 . S
H3337 C3346 0.930 . S
H3338 C3351 0.929 . S
H3339 C3349 0.929 . S
H3340 C3344 0.929 . S
H3341 C3350 0.929 . S
C3342 H3336 0.930 . S
C3342 C3343 1.367 . S
C3342 C3350 1.378 . S
C3343 C3342 1.367 . S
C3343 C3351 1.433 . S
C3344 H3340 0.929 . S
C3344 C3346 1.378 . S
C3344 C3348 1.350 . S
C3345 C3348 1.463 . S
C3345 C3350 1.350 . S
C3345 N3353 1.427 . S
C3346 H3337 0.930 . S
C3346 C3344 1.378 . S
C3346 C3347 1.367 . S
C3347 C3346 1.367 . S
C3347 C3349 1.433 . S
C3348 C3344 1.350 . S
C3348 C3345 1.463 . S
C3348 N3352 1.427 . S
C3349 H3339 0.929 . S
C3349 C3347 1.433 . S
C3349 N3352 1.384 . S
C3350 H3341 0.929 . S
C3350 C3342 1.378 . S
C3350 C3345 1.350 . S
C3351 H3338 0.929 . S
C3351 C3343 1.433 . S
C3351 N3353 1.384 . S
N3352 C3348 1.427 . S
N3352 C3349 1.384 . S
N3353 C3345 1.427 . S
N3353 C3351 1.384 . S
H3354 C3360 0.930 . S
H3355 C3364 0.930 . S
H3356 C3369 0.929 . S
H3357 C3367 0.929 . S
H3358 C3362 0.929 . S
H3359 C3368 0.929 . S
C3360 H3354 0.930 . S
C3360 C3361 1.367 . S
C3360 C3368 1.378 . S
C3361 C3360 1.367 . S
C3361 C3369 1.433 . S
C3362 H3358 0.929 . S
C3362 C3364 1.378 . S
C3362 C3366 1.350 . S
C3363 C3366 1.463 . S
C3363 C3368 1.350 . S
C3363 N3371 1.427 . S
C3364 H3355 0.930 . S
C3364 C3362 1.378 . S
C3364 C3365 1.367 . S
C3365 C3364 1.367 . S
C3365 C3367 1.433 . S
C3366 C3362 1.350 . S
C3366 C3363 1.463 . S
C3366 N3370 1.427 . S
C3367 H3357 0.929 . S
C3367 C3365 1.433 . S
C3367 N3370 1.384 . S
C3368 H3359 0.929 . S
C3368 C3360 1.378 . S
C3368 C3363 1.350 . S
C3369 H3356 0.929 . S
C3369 C3361 1.433 . S
C3369 N3371 1.384 . S
N3370 C3366 1.427 . S
N3370 C3367 1.384 . S
N3371 C3363 1.427 . S
N3371 C3369 1.384 . S
H3372 C3378 0.930 . S
H3373 C3382 0.930 . S
H3374 C3387 0.929 . S
H3375 C3385 0.929 . S
H3376 C3380 0.929 . S
H3377 C3386 0.929 . S
C3378 H3372 0.930 . S
C3378 C3379 1.367 . S
C3378 C3386 1.378 . S
C3379 C3378 1.367 . S
C3379 C3387 1.433 . S
C3380 H3376 0.929 . S
C3380 C3382 1.378 . S
C3380 C3384 1.350 . S
C3381 C3384 1.463 . S
C3381 C3386 1.350 . S
C3381 N3389 1.427 . S
C3382 H3373 0.930 . S
C3382 C3380 1.378 . S
C3382 C3383 1.367 . S
C3383 C3382 1.367 . S
C3383 C3385 1.433 . S
C3384 C3380 1.350 . S
C3384 C3381 1.463 . S
C3384 N3388 1.427 . S
C3385 H3375 0.929 . S
C3385 C3383 1.433 . S
C3385 N3388 1.384 . S
C3386 H3377 0.929 . S
C3386 C3378 1.378 . S
C3386 C3381 1.350 . S
C3387 H3374 0.929 . S
C3387 C3379 1.433 . S
C3387 N3389 1.384 . S
N3388 C3384 1.427 . S
N3388 C3385 1.384 . S
N3389 C3381 1.427 . S
N3389 C3387 1.384 . S
H3390 C3396 0.930 . S
H3391 C3400 0.930 . S
H3392 C3405 0.929 . S
H3393 C3403 0.929 . S
H3394 C3398 0.929 . S
H3395 C3404 0.929 . S
C3396 H3390 0.930 . S
C3396 C3397 1.367 . S
C3396 C3404 1.378 . S
C3397 C3396 1.367 . S
C3397 C3405 1.433 . S
C3398 H3394 0.929 . S
C3398 C3400 1.378 . S
C3398 C3402 1.350 . S
C3399 C3402 1.463 . S
C3399 C3404 1.350 . S
C3399 N3407 1.427 . S
C3400 H3391 0.930 . S
C3400 C3398 1.378 . S
C3400 C3401 1.367 . S
C3401 C3400 1.367 . S
C3401 C3403 1.433 . S
C3402 C3398 1.350 . S
C3402 C3399 1.463 . S
C3402 N3406 1.427 . S
C3403 H3393 0.929 . S
C3403 C3401 1.433 . S
C3403 N3406 1.384 . S
C3404 H3395 0.929 . S
C3404 C3396 1.378 . S
C3404 C3399 1.350 . S
C3405 H3392 0.929 . S
C3405 C3397 1.433 . S
C3405 N3407 1.384 . S
N3406 C3402 1.427 . S
N3406 C3403 1.384 . S
N3407 C3399 1.427 . S
N3407 C3405 1.384 . S
H3408 C3414 0.930 . S
H3409 C3418 0.930 . S
H3410 C3423 0.929 . S
H3411 C3421 0.929 . S
H3412 C3416 0.929 . S
H3413 C3422 0.929 . S
C3414 H3408 0.930 . S
C3414 C3415 1.367 . S
C3414 C3422 1.378 . S
C3415 C3414 1.367 . S
C3415 C3423 1.433 . S
C3416 H3412 0.929 . S
C3416 C3418 1.378 . S
C3416 C3420 1.350 . S
C3417 C3420 1.463 . S
C3417 C3422 1.350 . S
C3417 N3425 1.427 . S
C3418 H3409 0.930 . S
C3418 C3416 1.378 . S
C3418 C3419 1.367 . S
C3419 C3418 1.367 . S
C3419 C3421 1.433 . S
C3420 C3416 1.350 . S
C3420 C3417 1.463 . S
C3420 N3424 1.427 . S
C3421 H3411 0.929 . S
C3421 C3419 1.433 . S
C3421 N3424 1.384 . S
C3422 H3413 0.929 . S
C3422 C3414 1.378 . S
C3422 C3417 1.350 . S
C3423 H3410 0.929 . S
C3423 C3415 1.433 . S
C3423 N3425 1.384 . S
N3424 C3420 1.427 . S
N3424 C3421 1.384 . S
N3425 C3417 1.427 . S
N3425 C3423 1.384 . S
H3426 C3432 0.930 . S
H3427 C3436 0.930 . S
H3428 C3441 0.929 . S
H3429 C3439 0.929 . S
H3430 C3434 0.929 . S
H3431 C3440 0.929 . S
C3432 H3426 0.930 . S
C3432 C3433 1.367 . S
C3432 C3440 1.378 . S
C3433 C3432 1.367 . S
C3433 C3441 1.433 . S
C3434 H3430 0.929 . S
C3434 C3436 1.378 . S
C3434 C3438 1.350 . S
C3435 C3438 1.463 . S
C3435 C3440 1.350 . S
C3435 N3443 1.427 . S
C3436 H3427 0.930 . S
C3436 C3434 1.378 . S
C3436 C3437 1.367 . S
C3437 C3436 1.367 . S
C3437 C3439 1.433 . S
C3438 C3434 1.350 . S
C3438 C3435 1.463 . S
C3438 N3442 1.427 . S
C3439 H3429 0.929 . S
C3439 C3437 1.433 . S
C3439 N3442 1.384 . S
C3440 H3431 0.929 . S
C3440 C3432 1.378 . S
C3440 C3435 1.350 . S
C3441 H3428 0.929 . S
C3441 C3433 1.433 . S
C3441 N3443 1.384 . S
N3442 C3438 1.427 . S
N3442 C3439 1.384 . S
N3443 C3435 1.427 . S
N3443 C3441 1.384 . S
H3444 C3450 0.930 . S
H3445 C3454 0.930 . S
H3446 C3459 0.929 . S
H3447 C3457 0.929 . S
H3448 C3452 0.929 . S
H3449 C3458 0.929 . S
C3450 H3444 0.930 . S
C3450 C3451 1.367 . S
C3450 C3458 1.378 . S
C3451 C3450 1.367 . S
C3451 C3459 1.433 . S
C3452 H3448 0.929 . S
C3452 C3454 1.378 . S
C3452 C3456 1.350 . S
C3453 C3456 1.463 . S
C3453 C3458 1.350 . S
C3453 N3461 1.427 . S
C3454 H3445 0.930 . S
C3454 C3452 1.378 . S
C3454 C3455 1.367 . S
C3455 C3454 1.367 . S
C3455 C3457 1.433 . S
C3456 C3452 1.350 . S
C3456 C3453 1.463 . S
C3456 N3460 1.427 . S
C3457 H3447 0.929 . S
C3457 C3455 1.433 . S
C3457 N3460 1.384 . S
C3458 H3449 0.929 . S
C3458 C3450 1.378 . S
C3458 C3453 1.350 . S
C3459 H3446 0.929 . S
C3459 C3451 1.433 . S
C3459 N3461 1.384 . S
N3460 C3456 1.427 . S
N3460 C3457 1.384 . S
N3461 C3453 1.427 . S
N3461 C3459 1.384 . S
H3462 C3468 0.930 . S
H3463 C3472 0.930 . S
H3464 C3477 0.929 . S
H3465 C3475 0.929 . S
H3466 C3470 0.929 . S
H3467 C3476 0.929 . S
C3468 H3462 0.930 . S
C3468 C3469 1.367 . S
C3468 C3476 1.378 . S
C3469 C3468 1.367 . S
C3469 C3477 1.433 . S
C3470 H3466 0.929 . S
C3470 C3472 1.378 . S
C3470 C3474 1.350 . S
C3471 C3474 1.463 . S
C3471 C3476 1.350 . S
C3471 N3479 1.427 . S
C3472 H3463 0.930 . S
C3472 C3470 1.378 . S
C3472 C3473 1.367 . S
C3473 C3472 1.367 . S
C3473 C3475 1.433 . S
C3474 C3470 1.350 . S
C3474 C3471 1.463 . S
C3474 N3478 1.427 . S
C3475 H3465 0.929 . S
C3475 C3473 1.433 . S
C3475 N3478 1.384 . S
C3476 H3467 0.929 . S
C3476 C3468 1.378 . S
C3476 C3471 1.350 . S
C3477 H3464 0.929 . S
C3477 C3469 1.433 . S
C3477 N3479 1.384 . S
N3478 C3474 1.427 . S
N3478 C3475 1.384 . S
N3479 C3471 1.427 . S
N3479 C3477 1.384 . S
H3480 C3486 0.930 . S
H3481 C3490 0.930 . S
H3482 C3495 0.929 . S
H3483 C3493 0.929 . S
H3484 C3488 0.929 . S
H3485 C3494 0.929 . S
C3486 H3480 0.930 . S
C3486 C3487 1.367 . S
C3486 C3494 1.378 . S
C3487 C3486 1.367 . S
C3487 C3495 1.433 . S
C3488 H3484 0.929 . S
C3488 C3490 1.378 . S
C3488 C3492 1.350 . S
C3489 C3492 1.463 . S
C3489 C3494 1.350 . S
C3489 N3497 1.427 . S
C3490 H3481 0.930 . S
C3490 C3488 1.378 . S
C3490 C3491 1.367 . S
C3491 C3490 1.367 . S
C3491 C3493 1.433 . S
C3492 C3488 1.350 . S
C3492 C3489 1.463 . S
C3492 N3496 1.427 . S
C3493 H3483 0.929 . S
C3493 C3491 1.433 . S
C3493 N3496 1.384 . S
C3494 H3485 0.929 . S
C3494 C3486 1.378 . S
C3494 C3489 1.350 . S
C3495 H3482 0.929 . S
C3495 C3487 1.433 . S
C3495 N3497 1.384 . S
N3496 C3492 1.427 . S
N3496 C3493 1.384 . S
N3497 C3489 1.427 . S
N3497 C3495 1.384 . S
H3498 C3504 0.930 . S
H3499 C3508 0.930 . S
H3500 C3513 0.929 . S
H3501 C3511 0.929 . S
H3502 C3506 0.929 . S
H3503 C3512 0.929 . S
C3504 H3498 0.930 . S
C3504 C3505 1.367 . S
C3504 C3512 1.378 . S
C3505 C3504 1.367 . S
C3505 C3513 1.433 . S
C3506 H3502 0.929 . S
C3506 C3508 1.378 . S
C3506 C3510 1.350 . S
C3507 C3510 1.463 . S
C3507 C3512 1.350 . S
C3507 N3515 1.427 . S
C3508 H3499 0.930 . S
C3508 C3506 1.378 . S
C3508 C3509 1.367 . S
C3509 C3508 1.367 . S
C3509 C3511 1.433 . S
C3510 C3506 1.350 . S
C3510 C3507 1.463 . S
C3510 N3514 1.427 . S
C3511 H3501 0.929 . S
C3511 C3509 1.433 . S
C3511 N3514 1.384 . S
C3512 H3503 0.929 . S
C3512 C3504 1.378 . S
C3512 C3507 1.350 . S
C3513 H3500 0.929 . S
C3513 C3505 1.433 . S
C3513 N3515 1.384 . S
N3514 C3510 1.427 . S
N3514 C3511 1.384 . S
N3515 C3507 1.427 . S
N3515 C3513 1.384 . S
H3516 C3522 0.930 . S
H3517 C3526 0.930 . S
H3518 C3531 0.929 . S
H3519 C3529 0.929 . S
H3520 C3524 0.929 . S
H3521 C3530 0.929 . S
C3522 H3516 0.930 . S
C3522 C3523 1.367 . S
C3522 C3530 1.378 . S
C3523 C3522 1.367 . S
C3523 C3531 1.433 . S
C3524 H3520 0.929 . S
C3524 C3526 1.378 . S
C3524 C3528 1.350 . S
C3525 C3528 1.463 . S
C3525 C3530 1.350 . S
C3525 N3533 1.427 . S
C3526 H3517 0.930 . S
C3526 C3524 1.378 . S
C3526 C3527 1.367 . S
C3527 C3526 1.367 . S
C3527 C3529 1.433 . S
C3528 C3524 1.350 . S
C3528 C3525 1.463 . S
C3528 N3532 1.427 . S
C3529 H3519 0.929 . S
C3529 C3527 1.433 . S
C3529 N3532 1.384 . S
C3530 H3521 0.929 . S
C3530 C3522 1.378 . S
C3530 C3525 1.350 . S
C3531 H3518 0.929 . S
C3531 C3523 1.433 . S
C3531 N3533 1.384 . S
N3532 C3528 1.427 . S
N3532 C3529 1.384 . S
N3533 C3525 1.427 . S
N3533 C3531 1.384 . S
H3534 C3540 0.930 . S
H3535 C3544 0.930 . S
H3536 C3549 0.929 . S
H3537 C3547 0.929 . S
H3538 C3542 0.929 . S
H3539 C3548 0.929 . S
C3540 H3534 0.930 . S
C3540 C3541 1.367 . S
C3540 C3548 1.378 . S
C3541 C3540 1.367 . S
C3541 C3549 1.433 . S
C3542 H3538 0.929 . S
C3542 C3544 1.378 . S
C3542 C3546 1.350 . S
C3543 C3546 1.463 . S
C3543 C3548 1.350 . S
C3543 N3551 1.427 . S
C3544 H3535 0.930 . S
C3544 C3542 1.378 . S
C3544 C3545 1.367 . S
C3545 C3544 1.367 . S
C3545 C3547 1.433 . S
C3546 C3542 1.350 . S
C3546 C3543 1.463 . S
C3546 N3550 1.427 . S
C3547 H3537 0.929 . S
C3547 C3545 1.433 . S
C3547 N3550 1.384 . S
C3548 H3539 0.929 . S
C3548 C3540 1.378 . S
C3548 C3543 1.350 . S
C3549 H3536 0.929 . S
C3549 C3541 1.433 . S
C3549 N3551 1.384 . S
N3550 C3546 1.427 . S
N3550 C3547 1.384 . S
N3551 C3543 1.427 . S
N3551 C3549 1.384 . S
H3552 C3558 0.930 . S
H3553 C3562 0.930 . S
H3554 C3567 0.929 . S
H3555 C3565 0.929 . S
H3556 C3560 0.929 . S
H3557 C3566 0.929 . S
C3558 H3552 0.930 . S
C3558 C3559 1.367 . S
C3558 C3566 1.378 . S
C3559 C3558 1.367 . S
C3559 C3567 1.433 . S
C3560 H3556 0.929 . S
C3560 C3562 1.378 . S
C3560 C3564 1.350 . S
C3561 C3564 1.463 . S
C3561 C3566 1.350 . S
C3561 N3569 1.427 . S
C3562 H3553 0.930 . S
C3562 C3560 1.378 . S
C3562 C3563 1.367 . S
C3563 C3562 1.367 . S
C3563 C3565 1.433 . S
C3564 C3560 1.350 . S
C3564 C3561 1.463 . S
C3564 N3568 1.427 . S
C3565 H3555 0.929 . S
C3565 C3563 1.433 . S
C3565 N3568 1.384 . S
C3566 H3557 0.929 . S
C3566 C3558 1.378 . S
C3566 C3561 1.350 . S
C3567 H3554 0.929 . S
C3567 C3559 1.433 . S
C3567 N3569 1.384 . S
N3568 C3564 1.427 . S
N3568 C3565 1.384 . S
N3569 C3561 1.427 . S
N3569 C3567 1.384 . S
H3570 C3576 0.930 . S
H3571 C3580 0.930 . S
H3572 C3585 0.929 . S
H3573 C3583 0.929 . S
H3574 C3578 0.929 . S
H3575 C3584 0.929 . S
C3576 H3570 0.930 . S
C3576 C3577 1.367 . S
C3576 C3584 1.378 . S
C3577 C3576 1.367 . S
C3577 C3585 1.433 . S
C3578 H3574 0.929 . S
C3578 C3580 1.378 . S
C3578 C3582 1.350 . S
C3579 C3582 1.463 . S
C3579 C3584 1.350 . S
C3579 N3587 1.427 . S
C3580 H3571 0.930 . S
C3580 C3578 1.378 . S
C3580 C3581 1.367 . S
C3581 C3580 1.367 . S
C3581 C3583 1.433 . S
C3582 C3578 1.350 . S
C3582 C3579 1.463 . S
C3582 N3586 1.427 . S
C3583 H3573 0.929 . S
C3583 C3581 1.433 . S
C3583 N3586 1.384 . S
C3584 H3575 0.929 . S
C3584 C3576 1.378 . S
C3584 C3579 1.350 . S
C3585 H3572 0.929 . S
C3585 C3577 1.433 . S
C3585 N3587 1.384 . S
N3586 C3582 1.427 . S
N3586 C3583 1.384 . S
N3587 C3579 1.427 . S
N3587 C3585 1.384 . S
H3588 C3594 0.930 . S
H3589 C3598 0.930 . S
H3590 C3603 0.929 . S
H3591 C3601 0.929 . S
H3592 C3596 0.929 . S
H3593 C3602 0.929 . S
C3594 H3588 0.930 . S
C3594 C3595 1.367 . S
C3594 C3602 1.378 . S
C3595 C3594 1.367 . S
C3595 C3603 1.433 . S
C3596 H3592 0.929 . S
C3596 C3598 1.378 . S
C3596 C3600 1.350 . S
C3597 C3600 1.463 . S
C3597 C3602 1.350 . S
C3597 N3605 1.427 . S
C3598 H3589 0.930 . S
C3598 C3596 1.378 . S
C3598 C3599 1.367 . S
C3599 C3598 1.367 . S
C3599 C3601 1.433 . S
C3600 C3596 1.350 . S
C3600 C3597 1.463 . S
C3600 N3604 1.427 . S
C3601 H3591 0.929 . S
C3601 C3599 1.433 . S
C3601 N3604 1.384 . S
C3602 H3593 0.929 . S
C3602 C3594 1.378 . S
C3602 C3597 1.350 . S
C3603 H3590 0.929 . S
C3603 C3595 1.433 . S
C3603 N3605 1.384 . S
N3604 C3600 1.427 . S
N3604 C3601 1.384 . S
N3605 C3597 1.427 . S
N3605 C3603 1.384 . S
H3606 C3612 0.930 . S
H3607 C3616 0.930 . S
H3608 C3621 0.929 . S
H3609 C3619 0.929 . S
H3610 C3614 0.929 . S
H3611 C3620 0.929 . S
C3612 H3606 0.930 . S
C3612 C3613 1.367 . S
C3612 C3620 1.378 . S
C3613 C3612 1.367 . S
C3613 C3621 1.433 . S
C3614 H3610 0.929 . S
C3614 C3616 1.378 . S
C3614 C3618 1.350 . S
C3615 C3618 1.463 . S
C3615 C3620 1.350 . S
C3615 N3623 1.427 . S
C3616 H3607 0.930 . S
C3616 C3614 1.378 . S
C3616 C3617 1.367 . S
C3617 C3616 1.367 . S
C3617 C3619 1.433 . S
C3618 C3614 1.350 . S
C3618 C3615 1.463 . S
C3618 N3622 1.427 . S
C3619 H3609 0.929 . S
C3619 C3617 1.433 . S
C3619 N3622 1.384 . S
C3620 H3611 0.929 . S
C3620 C3612 1.378 . S
C3620 C3615 1.350 . S
C3621 H3608 0.929 . S
C3621 C3613 1.433 . S
C3621 N3623 1.384 . S
N3622 C3618 1.427 . S
N3622 C3619 1.384 . S
N3623 C3615 1.427 . S
N3623 C3621 1.384 . S
H3624 C3630 0.930 . S
H3625 C3634 0.930 . S
H3626 C3639 0.929 . S
H3627 C3637 0.929 . S
H3628 C3632 0.929 . S
H3629 C3638 0.929 . S
C3630 H3624 0.930 . S
C3630 C3631 1.367 . S
C3630 C3638 1.378 . S
C3631 C3630 1.367 . S
C3631 C3639 1.433 . S
C3632 H3628 0.929 . S
C3632 C3634 1.378 . S
C3632 C3636 1.350 . S
C3633 C3636 1.463 . S
C3633 C3638 1.350 . S
C3633 N3641 1.427 . S
C3634 H3625 0.930 . S
C3634 C3632 1.378 . S
C3634 C3635 1.367 . S
C3635 C3634 1.367 . S
C3635 C3637 1.433 . S
C3636 C3632 1.350 . S
C3636 C3633 1.463 . S
C3636 N3640 1.427 . S
C3637 H3627 0.929 . S
C3637 C3635 1.433 . S
C3637 N3640 1.384 . S
C3638 H3629 0.929 . S
C3638 C3630 1.378 . S
C3638 C3633 1.350 . S
C3639 H3626 0.929 . S
C3639 C3631 1.433 . S
C3639 N3641 1.384 . S
N3640 C3636 1.427 . S
N3640 C3637 1.384 . S
N3641 C3633 1.427 . S
N3641 C3639 1.384 . S
H3642 C3648 0.930 . S
H3643 C3652 0.930 . S
H3644 C3657 0.929 . S
H3645 C3655 0.929 . S
H3646 C3650 0.929 . S
H3647 C3656 0.929 . S
C3648 H3642 0.930 . S
C3648 C3649 1.367 . S
C3648 C3656 1.378 . S
C3649 C3648 1.367 . S
C3649 C3657 1.433 . S
C3650 H3646 0.929 . S
C3650 C3652 1.378 . S
C3650 C3654 1.350 . S
C3651 C3654 1.463 . S
C3651 C3656 1.350 . S
C3651 N3659 1.427 . S
C3652 H3643 0.930 . S
C3652 C3650 1.378 . S
C3652 C3653 1.367 . S
C3653 C3652 1.367 . S
C3653 C3655 1.433 . S
C3654 C3650 1.350 . S
C3654 C3651 1.463 . S
C3654 N3658 1.427 . S
C3655 H3645 0.929 . S
C3655 C3653 1.433 . S
C3655 N3658 1.384 . S
C3656 H3647 0.929 . S
C3656 C3648 1.378 . S
C3656 C3651 1.350 . S
C3657 H3644 0.929 . S
C3657 C3649 1.433 . S
C3657 N3659 1.384 . S
N3658 C3654 1.427 . S
N3658 C3655 1.384 . S
N3659 C3651 1.427 . S
N3659 C3657 1.384 . S
H3660 C3666 0.930 . S
H3661 C3670 0.930 . S
H3662 C3675 0.929 . S
H3663 C3673 0.929 . S
H3664 C3668 0.929 . S
H3665 C3674 0.929 . S
C3666 H3660 0.930 . S
C3666 C3667 1.367 . S
C3666 C3674 1.378 . S
C3667 C3666 1.367 . S
C3667 C3675 1.433 . S
C3668 H3664 0.929 . S
C3668 C3670 1.378 . S
C3668 C3672 1.350 . S
C3669 C3672 1.463 . S
C3669 C3674 1.350 . S
C3669 N3677 1.427 . S
C3670 H3661 0.930 . S
C3670 C3668 1.378 . S
C3670 C3671 1.367 . S
C3671 C3670 1.367 . S
C3671 C3673 1.433 . S
C3672 C3668 1.350 . S
C3672 C3669 1.463 . S
C3672 N3676 1.427 . S
C3673 H3663 0.929 . S
C3673 C3671 1.433 . S
C3673 N3676 1.384 . S
C3674 H3665 0.929 . S
C3674 C3666 1.378 . S
C3674 C3669 1.350 . S
C3675 H3662 0.929 . S
C3675 C3667 1.433 . S
C3675 N3677 1.384 . S
N3676 C3672 1.427 . S
N3676 C3673 1.384 . S
N3677 C3669 1.427 . S
N3677 C3675 1.384 . S
H3678 C3684 0.930 . S
H3679 C3688 0.930 . S
H3680 C3693 0.929 . S
H3681 C3691 0.929 . S
H3682 C3686 0.929 . S
H3683 C3692 0.929 . S
C3684 H3678 0.930 . S
C3684 C3685 1.367 . S
C3684 C3692 1.378 . S
C3685 C3684 1.367 . S
C3685 C3693 1.433 . S
C3686 H3682 0.929 . S
C3686 C3688 1.378 . S
C3686 C3690 1.350 . S
C3687 C3690 1.463 . S
C3687 C3692 1.350 . S
C3687 N3695 1.427 . S
C3688 H3679 0.930 . S
C3688 C3686 1.378 . S
C3688 C3689 1.367 . S
C3689 C3688 1.367 . S
C3689 C3691 1.433 . S
C3690 C3686 1.350 . S
C3690 C3687 1.463 . S
C3690 N3694 1.427 . S
C3691 H3681 0.929 . S
C3691 C3689 1.433 . S
C3691 N3694 1.384 . S
C3692 H3683 0.929 . S
C3692 C3684 1.378 . S
C3692 C3687 1.350 . S
C3693 H3680 0.929 . S
C3693 C3685 1.433 . S
C3693 N3695 1.384 . S
N3694 C3690 1.427 . S
N3694 C3691 1.384 . S
N3695 C3687 1.427 . S
N3695 C3693 1.384 . S
H3696 C3702 0.930 . S
H3697 C3706 0.930 . S
H3698 C3711 0.929 . S
H3699 C3709 0.929 . S
H3700 C3704 0.929 . S
H3701 C3710 0.929 . S
C3702 H3696 0.930 . S
C3702 C3703 1.367 . S
C3702 C3710 1.378 . S
C3703 C3702 1.367 . S
C3703 C3711 1.433 . S
C3704 H3700 0.929 . S
C3704 C3706 1.378 . S
C3704 C3708 1.350 . S
C3705 C3708 1.463 . S
C3705 C3710 1.350 . S
C3705 N3713 1.427 . S
C3706 H3697 0.930 . S
C3706 C3704 1.378 . S
C3706 C3707 1.367 . S
C3707 C3706 1.367 . S
C3707 C3709 1.433 . S
C3708 C3704 1.350 . S
C3708 C3705 1.463 . S
C3708 N3712 1.427 . S
C3709 H3699 0.929 . S
C3709 C3707 1.433 . S
C3709 N3712 1.384 . S
C3710 H3701 0.929 . S
C3710 C3702 1.378 . S
C3710 C3705 1.350 . S
C3711 H3698 0.929 . S
C3711 C3703 1.433 . S
C3711 N3713 1.384 . S
N3712 C3708 1.427 . S
N3712 C3709 1.384 . S
N3713 C3705 1.427 . S
N3713 C3711 1.384 . S
H3714 C3720 0.930 . S
H3715 C3724 0.930 . S
H3716 C3729 0.929 . S
H3717 C3727 0.929 . S
H3718 C3722 0.929 . S
H3719 C3728 0.929 . S
C3720 H3714 0.930 . S
C3720 C3721 1.367 . S
C3720 C3728 1.378 . S
C3721 C3720 1.367 . S
C3721 C3729 1.433 . S
C3722 H3718 0.929 . S
C3722 C3724 1.378 . S
C3722 C3726 1.350 . S
C3723 C3726 1.463 . S
C3723 C3728 1.350 . S
C3723 N3731 1.427 . S
C3724 H3715 0.930 . S
C3724 C3722 1.378 . S
C3724 C3725 1.367 . S
C3725 C3724 1.367 . S
C3725 C3727 1.433 . S
C3726 C3722 1.350 . S
C3726 C3723 1.463 . S
C3726 N3730 1.427 . S
C3727 H3717 0.929 . S
C3727 C3725 1.433 . S
C3727 N3730 1.384 . S
C3728 H3719 0.929 . S
C3728 C3720 1.378 . S
C3728 C3723 1.350 . S
C3729 H3716 0.929 . S
C3729 C3721 1.433 . S
C3729 N3731 1.384 . S
N3730 C3726 1.427 . S
N3730 C3727 1.384 . S
N3731 C3723 1.427 . S
N3731 C3729 1.384 . S
H3732 C3738 0.930 . S
H3733 C3742 0.930 . S
H3734 C3747 0.929 . S
H3735 C3745 0.929 . S
H3736 C3740 0.929 . S
H3737 C3746 0.929 . S
C3738 H3732 0.930 . S
C3738 C3739 1.367 . S
C3738 C3746 1.378 . S
C3739 C3738 1.367 . S
C3739 C3747 1.433 . S
C3740 H3736 0.929 . S
C3740 C3742 1.378 . S
C3740 C3744 1.350 . S
C3741 C3744 1.463 . S
C3741 C3746 1.350 . S
C3741 N3749 1.427 . S
C3742 H3733 0.930 . S
C3742 C3740 1.378 . S
C3742 C3743 1.367 . S
C3743 C3742 1.367 . S
C3743 C3745 1.433 . S
C3744 C3740 1.350 . S
C3744 C3741 1.463 . S
C3744 N3748 1.427 . S
C3745 H3735 0.929 . S
C3745 C3743 1.433 . S
C3745 N3748 1.384 . S
C3746 H3737 0.929 . S
C3746 C3738 1.378 . S
C3746 C3741 1.350 . S
C3747 H3734 0.929 . S
C3747 C3739 1.433 . S
C3747 N3749 1.384 . S
N3748 C3744 1.427 . S
N3748 C3745 1.384 . S
N3749 C3741 1.427 . S
N3749 C3747 1.384 . S
H3750 C3756 0.930 . S
H3751 C3760 0.930 . S
H3752 C3765 0.929 . S
H3753 C3763 0.929 . S
H3754 C3758 0.929 . S
H3755 C3764 0.929 . S
C3756 H3750 0.930 . S
C3756 C3757 1.367 . S
C3756 C3764 1.378 . S
C3757 C3756 1.367 . S
C3757 C3765 1.433 . S
C3758 H3754 0.929 . S
C3758 C3760 1.378 . S
C3758 C3762 1.350 . S
C3759 C3762 1.463 . S
C3759 C3764 1.350 . S
C3759 N3767 1.427 . S
C3760 H3751 0.930 . S
C3760 C3758 1.378 . S
C3760 C3761 1.367 . S
C3761 C3760 1.367 . S
C3761 C3763 1.433 . S
C3762 C3758 1.350 . S
C3762 C3759 1.463 . S
C3762 N3766 1.427 . S
C3763 H3753 0.929 . S
C3763 C3761 1.433 . S
C3763 N3766 1.384 . S
C3764 H3755 0.929 . S
C3764 C3756 1.378 . S
C3764 C3759 1.350 . S
C3765 H3752 0.929 . S
C3765 C3757 1.433 . S
C3765 N3767 1.384 . S
N3766 C3762 1.427 . S
N3766 C3763 1.384 . S
N3767 C3759 1.427 . S
N3767 C3765 1.384 . S
H3768 C3774 0.930 . S
H3769 C3778 0.930 . S
H3770 C3783 0.929 . S
H3771 C3781 0.929 . S
H3772 C3776 0.929 . S
H3773 C3782 0.929 . S
C3774 H3768 0.930 . S
C3774 C3775 1.367 . S
C3774 C3782 1.378 . S
C3775 C3774 1.367 . S
C3775 C3783 1.433 . S
C3776 H3772 0.929 . S
C3776 C3778 1.378 . S
C3776 C3780 1.350 . S
C3777 C3780 1.463 . S
C3777 C3782 1.350 . S
C3777 N3785 1.427 . S
C3778 H3769 0.930 . S
C3778 C3776 1.378 . S
C3778 C3779 1.367 . S
C3779 C3778 1.367 . S
C3779 C3781 1.433 . S
C3780 C3776 1.350 . S
C3780 C3777 1.463 . S
C3780 N3784 1.427 . S
C3781 H3771 0.929 . S
C3781 C3779 1.433 . S
C3781 N3784 1.384 . S
C3782 H3773 0.929 . S
C3782 C3774 1.378 . S
C3782 C3777 1.350 . S
C3783 H3770 0.929 . S
C3783 C3775 1.433 . S
C3783 N3785 1.384 . S
N3784 C3780 1.427 . S
N3784 C3781 1.384 . S
N3785 C3777 1.427 . S
N3785 C3783 1.384 . S
H3786 C3792 0.930 . S
H3787 C3796 0.930 . S
H3788 C3801 0.929 . S
H3789 C3799 0.929 . S
H3790 C3794 0.929 . S
H3791 C3800 0.929 . S
C3792 H3786 0.930 . S
C3792 C3793 1.367 . S
C3792 C3800 1.378 . S
C3793 C3792 1.367 . S
C3793 C3801 1.433 . S
C3794 H3790 0.929 . S
C3794 C3796 1.378 . S
C3794 C3798 1.350 . S
C3795 C3798 1.463 . S
C3795 C3800 1.350 . S
C3795 N3803 1.427 . S
C3796 H3787 0.930 . S
C3796 C3794 1.378 . S
C3796 C3797 1.367 . S
C3797 C3796 1.367 . S
C3797 C3799 1.433 . S
C3798 C3794 1.350 . S
C3798 C3795 1.463 . S
C3798 N3802 1.427 . S
C3799 H3789 0.929 . S
C3799 C3797 1.433 . S
C3799 N3802 1.384 . S
C3800 H3791 0.929 . S
C3800 C3792 1.378 . S
C3800 C3795 1.350 . S
C3801 H3788 0.929 . S
C3801 C3793 1.433 . S
C3801 N3803 1.384 . S
N3802 C3798 1.427 . S
N3802 C3799 1.384 . S
N3803 C3795 1.427 . S
N3803 C3801 1.384 . S
H3804 C3810 0.930 . S
H3805 C3814 0.930 . S
H3806 C3819 0.929 . S
H3807 C3817 0.929 . S
H3808 C3812 0.929 . S
H3809 C3818 0.929 . S
C3810 H3804 0.930 . S
C3810 C3811 1.367 . S
C3810 C3818 1.378 . S
C3811 C3810 1.367 . S
C3811 C3819 1.433 . S
C3812 H3808 0.929 . S
C3812 C3814 1.378 . S
C3812 C3816 1.350 . S
C3813 C3816 1.463 . S
C3813 C3818 1.350 . S
C3813 N3821 1.427 . S
C3814 H3805 0.930 . S
C3814 C3812 1.378 . S
C3814 C3815 1.367 . S
C3815 C3814 1.367 . S
C3815 C3817 1.433 . S
C3816 C3812 1.350 . S
C3816 C3813 1.463 . S
C3816 N3820 1.427 . S
C3817 H3807 0.929 . S
C3817 C3815 1.433 . S
C3817 N3820 1.384 . S
C3818 H3809 0.929 . S
C3818 C3810 1.378 . S
C3818 C3813 1.350 . S
C3819 H3806 0.929 . S
C3819 C3811 1.433 . S
C3819 N3821 1.384 . S
N3820 C3816 1.427 . S
N3820 C3817 1.384 . S
N3821 C3813 1.427 . S
N3821 C3819 1.384 . S
H3822 C3828 0.930 . S
H3823 C3832 0.930 . S
H3824 C3837 0.929 . S
H3825 C3835 0.929 . S
H3826 C3830 0.929 . S
H3827 C3836 0.929 . S
C3828 H3822 0.930 . S
C3828 C3829 1.367 . S
C3828 C3836 1.378 . S
C3829 C3828 1.367 . S
C3829 C3837 1.433 . S
C3830 H3826 0.929 . S
C3830 C3832 1.378 . S
C3830 C3834 1.350 . S
C3831 C3834 1.463 . S
C3831 C3836 1.350 . S
C3831 N3839 1.427 . S
C3832 H3823 0.930 . S
C3832 C3830 1.378 . S
C3832 C3833 1.367 . S
C3833 C3832 1.367 . S
C3833 C3835 1.433 . S
C3834 C3830 1.350 . S
C3834 C3831 1.463 . S
C3834 N3838 1.427 . S
C3835 H3825 0.929 . S
C3835 C3833 1.433 . S
C3835 N3838 1.384 . S
C3836 H3827 0.929 . S
C3836 C3828 1.378 . S
C3836 C3831 1.350 . S
C3837 H3824 0.929 . S
C3837 C3829 1.433 . S
C3837 N3839 1.384 . S
N3838 C3834 1.427 . S
N3838 C3835 1.384 . S
N3839 C3831 1.427 . S
N3839 C3837 1.384 . S
H3840 C3846 0.930 . S
H3841 C3850 0.930 . S
H3842 C3855 0.929 . S
H3843 C3853 0.929 . S
H3844 C3848 0.929 . S
H3845 C3854 0.929 . S
C3846 H3840 0.930 . S
C3846 C3847 1.367 . S
C3846 C3854 1.378 . S
C3847 C3846 1.367 . S
C3847 C3855 1.433 . S
C3848 H3844 0.929 . S
C3848 C3850 1.378 . S
C3848 C3852 1.350 . S
C3849 C3852 1.463 . S
C3849 C3854 1.350 . S
C3849 N3857 1.427 . S
C3850 H3841 0.930 . S
C3850 C3848 1.378 . S
C3850 C3851 1.367 . S
C3851 C3850 1.367 . S
C3851 C3853 1.433 . S
C3852 C3848 1.350 . S
C3852 C3849 1.463 . S
C3852 N3856 1.427 . S
C3853 H3843 0.929 . S
C3853 C3851 1.433 . S
C3853 N3856 1.384 . S
C3854 H3845 0.929 . S
C3854 C3846 1.378 . S
C3854 C3849 1.350 . S
C3855 H3842 0.929 . S
C3855 C3847 1.433 . S
C3855 N3857 1.384 . S
N3856 C3852 1.427 . S
N3856 C3853 1.384 . S
N3857 C3849 1.427 . S
N3857 C3855 1.384 . S
H3858 C3864 0.930 . S
H3859 C3868 0.930 . S
H3860 C3873 0.929 . S
H3861 C3871 0.929 . S
H3862 C3866 0.929 . S
H3863 C3872 0.929 . S
C3864 H3858 0.930 . S
C3864 C3865 1.367 . S
C3864 C3872 1.378 . S
C3865 C3864 1.367 . S
C3865 C3873 1.433 . S
C3866 H3862 0.929 . S
C3866 C3868 1.378 . S
C3866 C3870 1.350 . S
C3867 C3870 1.463 . S
C3867 C3872 1.350 . S
C3867 N3875 1.427 . S
C3868 H3859 0.930 . S
C3868 C3866 1.378 . S
C3868 C3869 1.367 . S
C3869 C3868 1.367 . S
C3869 C3871 1.433 . S
C3870 C3866 1.350 . S
C3870 C3867 1.463 . S
C3870 N3874 1.427 . S
C3871 H3861 0.929 . S
C3871 C3869 1.433 . S
C3871 N3874 1.384 . S
C3872 H3863 0.929 . S
C3872 C3864 1.378 . S
C3872 C3867 1.350 . S
C3873 H3860 0.929 . S
C3873 C3865 1.433 . S
C3873 N3875 1.384 . S
N3874 C3870 1.427 . S
N3874 C3871 1.384 . S
N3875 C3867 1.427 . S
N3875 C3873 1.384 . S
H3876 C3882 0.930 . S
H3877 C3886 0.930 . S
H3878 C3891 0.929 . S
H3879 C3889 0.929 . S
H3880 C3884 0.929 . S
H3881 C3890 0.929 . S
C3882 H3876 0.930 . S
C3882 C3883 1.367 . S
C3882 C3890 1.378 . S
C3883 C3882 1.367 . S
C3883 C3891 1.433 . S
C3884 H3880 0.929 . S
C3884 C3886 1.378 . S
C3884 C3888 1.350 . S
C3885 C3888 1.463 . S
C3885 C3890 1.350 . S
C3885 N3893 1.427 . S
C3886 H3877 0.930 . S
C3886 C3884 1.378 . S
C3886 C3887 1.367 . S
C3887 C3886 1.367 . S
C3887 C3889 1.433 . S
C3888 C3884 1.350 . S
C3888 C3885 1.463 . S
C3888 N3892 1.427 . S
C3889 H3879 0.929 . S
C3889 C3887 1.433 . S
C3889 N3892 1.384 . S
C3890 H3881 0.929 . S
C3890 C3882 1.378 . S
C3890 C3885 1.350 . S
C3891 H3878 0.929 . S
C3891 C3883 1.433 . S
C3891 N3893 1.384 . S
N3892 C3888 1.427 . S
N3892 C3889 1.384 . S
N3893 C3885 1.427 . S
N3893 C3891 1.384 . S
H3894 C3900 0.930 . S
H3895 C3904 0.930 . S
H3896 C3909 0.929 . S
H3897 C3907 0.929 . S
H3898 C3902 0.929 . S
H3899 C3908 0.929 . S
C3900 H3894 0.930 . S
C3900 C3901 1.367 . S
C3900 C3908 1.378 . S
C3901 C3900 1.367 . S
C3901 C3909 1.433 . S
C3902 H3898 0.929 . S
C3902 C3904 1.378 . S
C3902 C3906 1.350 . S
C3903 C3906 1.463 . S
C3903 C3908 1.350 . S
C3903 N3911 1.427 . S
C3904 H3895 0.930 . S
C3904 C3902 1.378 . S
C3904 C3905 1.367 . S
C3905 C3904 1.367 . S
C3905 C3907 1.433 . S
C3906 C3902 1.350 . S
C3906 C3903 1.463 . S
C3906 N3910 1.427 . S
C3907 H3897 0.929 . S
C3907 C3905 1.433 . S
C3907 N3910 1.384 . S
C3908 H3899 0.929 . S
C3908 C3900 1.378 . S
C3908 C3903 1.350 . S
C3909 H3896 0.929 . S
C3909 C3901 1.433 . S
C3909 N3911 1.384 . S
N3910 C3906 1.427 . S
N3910 C3907 1.384 . S
N3911 C3903 1.427 . S
N3911 C3909 1.384 . S
H3912 C3918 0.930 . S
H3913 C3922 0.930 . S
H3914 C3927 0.929 . S
H3915 C3925 0.929 . S
H3916 C3920 0.929 . S
H3917 C3926 0.929 . S
C3918 H3912 0.930 . S
C3918 C3919 1.367 . S
C3918 C3926 1.378 . S
C3919 C3918 1.367 . S
C3919 C3927 1.433 . S
C3920 H3916 0.929 . S
C3920 C3922 1.378 . S
C3920 C3924 1.350 . S
C3921 C3924 1.463 . S
C3921 C3926 1.350 . S
C3921 N3929 1.427 . S
C3922 H3913 0.930 . S
C3922 C3920 1.378 . S
C3922 C3923 1.367 . S
C3923 C3922 1.367 . S
C3923 C3925 1.433 . S
C3924 C3920 1.350 . S
C3924 C3921 1.463 . S
C3924 N3928 1.427 . S
C3925 H3915 0.929 . S
C3925 C3923 1.433 . S
C3925 N3928 1.384 . S
C3926 H3917 0.929 . S
C3926 C3918 1.378 . S
C3926 C3921 1.350 . S
C3927 H3914 0.929 . S
C3927 C3919 1.433 . S
C3927 N3929 1.384 . S
N3928 C3924 1.427 . S
N3928 C3925 1.384 . S
N3929 C3921 1.427 . S
N3929 C3927 1.384 . S
H3930 C3936 0.930 . S
H3931 C3940 0.930 . S
H3932 C3945 0.929 . S
H3933 C3943 0.929 . S
H3934 C3938 0.929 . S
H3935 C3944 0.929 . S
C3936 H3930 0.930 . S
C3936 C3937 1.367 . S
C3936 C3944 1.378 . S
C3937 C3936 1.367 . S
C3937 C3945 1.433 . S
C3938 H3934 0.929 . S
C3938 C3940 1.378 . S
C3938 C3942 1.350 . S
C3939 C3942 1.463 . S
C3939 C3944 1.350 . S
C3939 N3947 1.427 . S
C3940 H3931 0.930 . S
C3940 C3938 1.378 . S
C3940 C3941 1.367 . S
C3941 C3940 1.367 . S
C3941 C3943 1.433 . S
C3942 C3938 1.350 . S
C3942 C3939 1.463 . S
C3942 N3946 1.427 . S
C3943 H3933 0.929 . S
C3943 C3941 1.433 . S
C3943 N3946 1.384 . S
C3944 H3935 0.929 . S
C3944 C3936 1.378 . S
C3944 C3939 1.350 . S
C3945 H3932 0.929 . S
C3945 C3937 1.433 . S
C3945 N3947 1.384 . S
N3946 C3942 1.427 . S
N3946 C3943 1.384 . S
N3947 C3939 1.427 . S
N3947 C3945 1.384 . S
H3948 C3954 0.930 . S
H3949 C3958 0.930 . S
H3950 C3963 0.929 . S
H3951 C3961 0.929 . S
H3952 C3956 0.929 . S
H3953 C3962 0.929 . S
C3954 H3948 0.930 . S
C3954 C3955 1.367 . S
C3954 C3962 1.378 . S
C3955 C3954 1.367 . S
C3955 C3963 1.433 . S
C3956 H3952 0.929 . S
C3956 C3958 1.378 . S
C3956 C3960 1.350 . S
C3957 C3960 1.463 . S
C3957 C3962 1.350 . S
C3957 N3965 1.427 . S
C3958 H3949 0.930 . S
C3958 C3956 1.378 . S
C3958 C3959 1.367 . S
C3959 C3958 1.367 . S
C3959 C3961 1.433 . S
C3960 C3956 1.350 . S
C3960 C3957 1.463 . S
C3960 N3964 1.427 . S
C3961 H3951 0.929 . S
C3961 C3959 1.433 . S
C3961 N3964 1.384 . S
C3962 H3953 0.929 . S
C3962 C3954 1.378 . S
C3962 C3957 1.350 . S
C3963 H3950 0.929 . S
C3963 C3955 1.433 . S
C3963 N3965 1.384 . S
N3964 C3960 1.427 . S
N3964 C3961 1.384 . S
N3965 C3957 1.427 . S
N3965 C3963 1.384 . S
H3966 C3972 0.930 . S
H3967 C3976 0.930 . S
H3968 C3981 0.929 . S
H3969 C3979 0.929 . S
H3970 C3974 0.929 . S
H3971 C3980 0.929 . S
C3972 H3966 0.930 . S
C3972 C3973 1.367 . S
C3972 C3980 1.378 . S
C3973 C3972 1.367 . S
C3973 C3981 1.433 . S
C3974 H3970 0.929 . S
C3974 C3976 1.378 . S
C3974 C3978 1.350 . S
C3975 C3978 1.463 . S
C3975 C3980 1.350 . S
C3975 N3983 1.427 . S
C3976 H3967 0.930 . S
C3976 C3974 1.378 . S
C3976 C3977 1.367 . S
C3977 C3976 1.367 . S
C3977 C3979 1.433 . S
C3978 C3974 1.350 . S
C3978 C3975 1.463 . S
C3978 N3982 1.427 . S
C3979 H3969 0.929 . S
C3979 C3977 1.433 . S
C3979 N3982 1.384 . S
C3980 H3971 0.929 . S
C3980 C3972 1.378 . S
C3980 C3975 1.350 . S
C3981 H3968 0.929 . S
C3981 C3973 1.433 . S
C3981 N3983 1.384 . S
N3982 C3978 1.427 . S
N3982 C3979 1.384 . S
N3983 C3975 1.427 . S
N3983 C3981 1.384 . S
H3984 C3990 0.930 . S
H3985 C3994 0.930 . S
H3986 C3999 0.929 . S
H3987 C3997 0.929 . S
H3988 C3992 0.929 . S
H3989 C3998 0.929 . S
C3990 H3984 0.930 . S
C3990 C3991 1.367 . S
C3990 C3998 1.378 . S
C3991 C3990 1.367 . S
C3991 C3999 1.433 . S
C3992 H3988 0.929 . S
C3992 C3994 1.378 . S
C3992 C3996 1.350 . S
C3993 C3996 1.463 . S
C3993 C3998 1.350 . S
C3993 N4001 1.427 . S
C3994 H3985 0.930 . S
C3994 C3992 1.378 . S
C3994 C3995 1.367 . S
C3995 C3994 1.367 . S
C3995 C3997 1.433 . S
C3996 C3992 1.350 . S
C3996 C3993 1.463 . S
C3996 N4000 1.427 . S
C3997 H3987 0.929 . S
C3997 C3995 1.433 . S
C3997 N4000 1.384 . S
C3998 H3989 0.929 . S
C3998 C3990 1.378 . S
C3998 C3993 1.350 . S
C3999 H3986 0.929 . S
C3999 C3991 1.433 . S
C3999 N4001 1.384 . S
N4000 C3996 1.427 . S
N4000 C3997 1.384 . S
N4001 C3993 1.427 . S
N4001 C3999 1.384 . S
H4002 C4008 0.930 . S
H4003 C4012 0.930 . S
H4004 C4017 0.929 . S
H4005 C4015 0.929 . S
H4006 C4010 0.929 . S
H4007 C4016 0.929 . S
C4008 H4002 0.930 . S
C4008 C4009 1.367 . S
C4008 C4016 1.378 . S
C4009 C4008 1.367 . S
C4009 C4017 1.433 . S
C4010 H4006 0.929 . S
C4010 C4012 1.378 . S
C4010 C4014 1.350 . S
C4011 C4014 1.463 . S
C4011 C4016 1.350 . S
C4011 N4019 1.427 . S
C4012 H4003 0.930 . S
C4012 C4010 1.378 . S
C4012 C4013 1.367 . S
C4013 C4012 1.367 . S
C4013 C4015 1.433 . S
C4014 C4010 1.350 . S
C4014 C4011 1.463 . S
C4014 N4018 1.427 . S
C4015 H4005 0.929 . S
C4015 C4013 1.433 . S
C4015 N4018 1.384 . S
C4016 H4007 0.929 . S
C4016 C4008 1.378 . S
C4016 C4011 1.350 . S
C4017 H4004 0.929 . S
C4017 C4009 1.433 . S
C4017 N4019 1.384 . S
N4018 C4014 1.427 . S
N4018 C4015 1.384 . S
N4019 C4011 1.427 . S
N4019 C4017 1.384 . S
H4020 C4026 0.930 . S
H4021 C4030 0.930 . S
H4022 C4035 0.929 . S
H4023 C4033 0.929 . S
H4024 C4028 0.929 . S
H4025 C4034 0.929 . S
C4026 H4020 0.930 . S
C4026 C4027 1.367 . S
C4026 C4034 1.378 . S
C4027 C4026 1.367 . S
C4027 C4035 1.433 . S
C4028 H4024 0.929 . S
C4028 C4030 1.378 . S
C4028 C4032 1.350 . S
C4029 C4032 1.463 . S
C4029 C4034 1.350 . S
C4029 N4037 1.427 . S
C4030 H4021 0.930 . S
C4030 C4028 1.378 . S
C4030 C4031 1.367 . S
C4031 C4030 1.367 . S
C4031 C4033 1.433 . S
C4032 C4028 1.350 . S
C4032 C4029 1.463 . S
C4032 N4036 1.427 . S
C4033 H4023 0.929 . S
C4033 C4031 1.433 . S
C4033 N4036 1.384 . S
C4034 H4025 0.929 . S
C4034 C4026 1.378 . S
C4034 C4029 1.350 . S
C4035 H4022 0.929 . S
C4035 C4027 1.433 . S
C4035 N4037 1.384 . S
N4036 C4032 1.427 . S
N4036 C4033 1.384 . S
N4037 C4029 1.427 . S
N4037 C4035 1.384 . S
H4038 C4044 0.930 . S
H4039 C4048 0.930 . S
H4040 C4053 0.929 . S
H4041 C4051 0.929 . S
H4042 C4046 0.929 . S
H4043 C4052 0.929 . S
C4044 H4038 0.930 . S
C4044 C4045 1.367 . S
C4044 C4052 1.378 . S
C4045 C4044 1.367 . S
C4045 C4053 1.433 . S
C4046 H4042 0.929 . S
C4046 C4048 1.378 . S
C4046 C4050 1.350 . S
C4047 C4050 1.463 . S
C4047 C4052 1.350 . S
C4047 N4055 1.427 . S
C4048 H4039 0.930 . S
C4048 C4046 1.378 . S
C4048 C4049 1.367 . S
C4049 C4048 1.367 . S
C4049 C4051 1.433 . S
C4050 C4046 1.350 . S
C4050 C4047 1.463 . S
C4050 N4054 1.427 . S
C4051 H4041 0.929 . S
C4051 C4049 1.433 . S
C4051 N4054 1.384 . S
C4052 H4043 0.929 . S
C4052 C4044 1.378 . S
C4052 C4047 1.350 . S
C4053 H4040 0.929 . S
C4053 C4045 1.433 . S
C4053 N4055 1.384 . S
N4054 C4050 1.427 . S
N4054 C4051 1.384 . S
N4055 C4047 1.427 . S
N4055 C4053 1.384 . S
H4056 C4062 0.930 . S
H4057 C4066 0.930 . S
H4058 C4071 0.929 . S
H4059 C4069 0.929 . S
H4060 C4064 0.929 . S
H4061 C4070 0.929 . S
C4062 H4056 0.930 . S
C4062 C4063 1.367 . S
C4062 C4070 1.378 . S
C4063 C4062 1.367 . S
C4063 C4071 1.433 . S
C4064 H4060 0.929 . S
C4064 C4066 1.378 . S
C4064 C4068 1.350 . S
C4065 C4068 1.463 . S
C4065 C4070 1.350 . S
C4065 N4073 1.427 . S
C4066 H4057 0.930 . S
C4066 C4064 1.378 . S
C4066 C4067 1.367 . S
C4067 C4066 1.367 . S
C4067 C4069 1.433 . S
C4068 C4064 1.350 . S
C4068 C4065 1.463 . S
C4068 N4072 1.427 . S
C4069 H4059 0.929 . S
C4069 C4067 1.433 . S
C4069 N4072 1.384 . S
C4070 H4061 0.929 . S
C4070 C4062 1.378 . S
C4070 C4065 1.350 . S
C4071 H4058 0.929 . S
C4071 C4063 1.433 . S
C4071 N4073 1.384 . S
N4072 C4068 1.427 . S
N4072 C4069 1.384 . S
N4073 C4065 1.427 . S
N4073 C4071 1.384 . S
H4074 C4080 0.930 . S
H4075 C4084 0.930 . S
H4076 C4089 0.929 . S
H4077 C4087 0.929 . S
H4078 C4082 0.929 . S
H4079 C4088 0.929 . S
C4080 H4074 0.930 . S
C4080 C4081 1.367 . S
C4080 C4088 1.378 . S
C4081 C4080 1.367 . S
C4081 C4089 1.433 . S
C4082 H4078 0.929 . S
C4082 C4084 1.378 . S
C4082 C4086 1.350 . S
C4083 C4086 1.463 . S
C4083 C4088 1.350 . S
C4083 N4091 1.427 . S
C4084 H4075 0.930 . S
C4084 C4082 1.378 . S
C4084 C4085 1.367 . S
C4085 C4084 1.367 . S
C4085 C4087 1.433 . S
C4086 C4082 1.350 . S
C4086 C4083 1.463 . S
C4086 N4090 1.427 . S
C4087 H4077 0.929 . S
C4087 C4085 1.433 . S
C4087 N4090 1.384 . S
C4088 H4079 0.929 . S
C4088 C4080 1.378 . S
C4088 C4083 1.350 . S
C4089 H4076 0.929 . S
C4089 C4081 1.433 . S
C4089 N4091 1.384 . S
N4090 C4086 1.427 . S
N4090 C4087 1.384 . S
N4091 C4083 1.427 . S
N4091 C4089 1.384 . S
H4092 C4098 0.930 . S
H4093 C4102 0.930 . S
H4094 C4107 0.929 . S
H4095 C4105 0.929 . S
H4096 C4100 0.929 . S
H4097 C4106 0.929 . S
C4098 H4092 0.930 . S
C4098 C4099 1.367 . S
C4098 C4106 1.378 . S
C4099 C4098 1.367 . S
C4099 C4107 1.433 . S
C4100 H4096 0.929 . S
C4100 C4102 1.378 . S
C4100 C4104 1.350 . S
C4101 C4104 1.463 . S
C4101 C4106 1.350 . S
C4101 N4109 1.427 . S
C4102 H4093 0.930 . S
C4102 C4100 1.378 . S
C4102 C4103 1.367 . S
C4103 C4102 1.367 . S
C4103 C4105 1.433 . S
C4104 C4100 1.350 . S
C4104 C4101 1.463 . S
C4104 N4108 1.427 . S
C4105 H4095 0.929 . S
C4105 C4103 1.433 . S
C4105 N4108 1.384 . S
C4106 H4097 0.929 . S
C4106 C4098 1.378 . S
C4106 C4101 1.350 . S
C4107 H4094 0.929 . S
C4107 C4099 1.433 . S
C4107 N4109 1.384 . S
N4108 C4104 1.427 . S
N4108 C4105 1.384 . S
N4109 C4101 1.427 . S
N4109 C4107 1.384 . S
H4110 C4116 0.930 . S
H4111 C4120 0.930 . S
H4112 C4125 0.929 . S
H4113 C4123 0.929 . S
H4114 C4118 0.929 . S
H4115 C4124 0.929 . S
C4116 H4110 0.930 . S
C4116 C4117 1.367 . S
C4116 C4124 1.378 . S
C4117 C4116 1.367 . S
C4117 C4125 1.433 . S
C4118 H4114 0.929 . S
C4118 C4120 1.378 . S
C4118 C4122 1.350 . S
C4119 C4122 1.463 . S
C4119 C4124 1.350 . S
C4119 N4127 1.427 . S
C4120 H4111 0.930 . S
C4120 C4118 1.378 . S
C4120 C4121 1.367 . S
C4121 C4120 1.367 . S
C4121 C4123 1.433 . S
C4122 C4118 1.350 . S
C4122 C4119 1.463 . S
C4122 N4126 1.427 . S
C4123 H4113 0.929 . S
C4123 C4121 1.433 . S
C4123 N4126 1.384 . S
C4124 H4115 0.929 . S
C4124 C4116 1.378 . S
C4124 C4119 1.350 . S
C4125 H4112 0.929 . S
C4125 C4117 1.433 . S
C4125 N4127 1.384 . S
N4126 C4122 1.427 . S
N4126 C4123 1.384 . S
N4127 C4119 1.427 . S
N4127 C4125 1.384 . S
H4128 C4134 0.930 . S
H4129 C4138 0.930 . S
H4130 C4143 0.929 . S
H4131 C4141 0.929 . S
H4132 C4136 0.929 . S
H4133 C4142 0.929 . S
C4134 H4128 0.930 . S
C4134 C4135 1.367 . S
C4134 C4142 1.378 . S
C4135 C4134 1.367 . S
C4135 C4143 1.433 . S
C4136 H4132 0.929 . S
C4136 C4138 1.378 . S
C4136 C4140 1.350 . S
C4137 C4140 1.463 . S
C4137 C4142 1.350 . S
C4137 N4145 1.427 . S
C4138 H4129 0.930 . S
C4138 C4136 1.378 . S
C4138 C4139 1.367 . S
C4139 C4138 1.367 . S
C4139 C4141 1.433 . S
C4140 C4136 1.350 . S
C4140 C4137 1.463 . S
C4140 N4144 1.427 . S
C4141 H4131 0.929 . S
C4141 C4139 1.433 . S
C4141 N4144 1.384 . S
C4142 H4133 0.929 . S
C4142 C4134 1.378 . S
C4142 C4137 1.350 . S
C4143 H4130 0.929 . S
C4143 C4135 1.433 . S
C4143 N4145 1.384 . S
N4144 C4140 1.427 . S
N4144 C4141 1.384 . S
N4145 C4137 1.427 . S
N4145 C4143 1.384 . S
H4146 C4152 0.930 . S
H4147 C4156 0.930 . S
H4148 C4161 0.929 . S
H4149 C4159 0.929 . S
H4150 C4154 0.929 . S
H4151 C4160 0.929 . S
C4152 H4146 0.930 . S
C4152 C4153 1.367 . S
C4152 C4160 1.378 . S
C4153 C4152 1.367 . S
C4153 C4161 1.433 . S
C4154 H4150 0.929 . S
C4154 C4156 1.378 . S
C4154 C4158 1.350 . S
C4155 C4158 1.463 . S
C4155 C4160 1.350 . S
C4155 N4163 1.427 . S
C4156 H4147 0.930 . S
C4156 C4154 1.378 . S
C4156 C4157 1.367 . S
C4157 C4156 1.367 . S
C4157 C4159 1.433 . S
C4158 C4154 1.350 . S
C4158 C4155 1.463 . S
C4158 N4162 1.427 . S
C4159 H4149 0.929 . S
C4159 C4157 1.433 . S
C4159 N4162 1.384 . S
C4160 H4151 0.929 . S
C4160 C4152 1.378 . S
C4160 C4155 1.350 . S
C4161 H4148 0.929 . S
C4161 C4153 1.433 . S
C4161 N4163 1.384 . S
N4162 C4158 1.427 . S
N4162 C4159 1.384 . S
N4163 C4155 1.427 . S
N4163 C4161 1.384 . S
H4164 C4170 0.930 . S
H4165 C4174 0.930 . S
H4166 C4179 0.929 . S
H4167 C4177 0.929 . S
H4168 C4172 0.929 . S
H4169 C4178 0.929 . S
C4170 H4164 0.930 . S
C4170 C4171 1.367 . S
C4170 C4178 1.378 . S
C4171 C4170 1.367 . S
C4171 C4179 1.433 . S
C4172 H4168 0.929 . S
C4172 C4174 1.378 . S
C4172 C4176 1.350 . S
C4173 C4176 1.463 . S
C4173 C4178 1.350 . S
C4173 N4181 1.427 . S
C4174 H4165 0.930 . S
C4174 C4172 1.378 . S
C4174 C4175 1.367 . S
C4175 C4174 1.367 . S
C4175 C4177 1.433 . S
C4176 C4172 1.350 . S
C4176 C4173 1.463 . S
C4176 N4180 1.427 . S
C4177 H4167 0.929 . S
C4177 C4175 1.433 . S
C4177 N4180 1.384 . S
C4178 H4169 0.929 . S
C4178 C4170 1.378 . S
C4178 C4173 1.350 . S
C4179 H4166 0.929 . S
C4179 C4171 1.433 . S
C4179 N4181 1.384 . S
N4180 C4176 1.427 . S
N4180 C4177 1.384 . S
N4181 C4173 1.427 . S
N4181 C4179 1.384 . S
H4182 C4188 0.930 . S
H4183 C4192 0.930 . S
H4184 C4197 0.929 . S
H4185 C4195 0.929 . S
H4186 C4190 0.929 . S
H4187 C4196 0.929 . S
C4188 H4182 0.930 . S
C4188 C4189 1.367 . S
C4188 C4196 1.378 . S
C4189 C4188 1.367 . S
C4189 C4197 1.433 . S
C4190 H4186 0.929 . S
C4190 C4192 1.378 . S
C4190 C4194 1.350 . S
C4191 C4194 1.463 . S
C4191 C4196 1.350 . S
C4191 N4199 1.427 . S
C4192 H4183 0.930 . S
C4192 C4190 1.378 . S
C4192 C4193 1.367 . S
C4193 C4192 1.367 . S
C4193 C4195 1.433 . S
C4194 C4190 1.350 . S
C4194 C4191 1.463 . S
C4194 N4198 1.427 . S
C4195 H4185 0.929 . S
C4195 C4193 1.433 . S
C4195 N4198 1.384 . S
C4196 H4187 0.929 . S
C4196 C4188 1.378 . S
C4196 C4191 1.350 . S
C4197 H4184 0.929 . S
C4197 C4189 1.433 . S
C4197 N4199 1.384 . S
N4198 C4194 1.427 . S
N4198 C4195 1.384 . S
N4199 C4191 1.427 . S
N4199 C4197 1.384 . S
C2483 N1932 1.449 . S
C2479 C1 1.461 . S
C2501 C1959 1.590 . S
C2497 C80 1.577 . S
C2515 C140 1.491 . S
C2519 C1973 1.501 . S
C2537 N1991 1.455 . S
C2533 C211 1.472 . S
C2551 C241 1.559 . S
C2555 C1996 1.577 . S
C2569 C320 1.493 . S
C2573 C1936 1.499 . S
C2587 C391 1.407 . S
C2591 N1955 1.401 . S
C2609 N1968 1.445 . S
C2605 C421 1.466 . S
C2627 N2014 1.410 . S
C2623 C31 1.413 . S
C2641 C61 1.514 . S
C2645 N2037 1.501 . S
C2659 C121 1.529 . S
C2663 N2060 1.535 . S
C2681 N2093 1.416 . S
C2677 C181 1.461 . S
C2695 C260 1.512 . S
C2699 C2120 1.535 . S
C2717 C2143 1.557 . S
C2713 C331 1.545 . S
C2731 C380 1.473 . S
C2735 C2166 1.499 . S
C2753 C2180 1.434 . S
C2749 C440 1.401 . S
C2767 C20 1.392 . S
C2771 C2097 1.428 . S
C2785 C271 1.477 . S
C2789 N2139 1.457 . S
C2807 N2162 1.440 . S
C2803 C301 1.452 . S
C2821 C361 1.456 . S
C2825 N2175 1.442 . S
C2843 N2116 1.406 . S
C2839 C451 1.432 . S
C2861 C2042 1.662 . S
C2857 C151 1.639 . S
C2875 C200 1.509 . S
C2879 C2065 1.511 . S
C2897 C2019 1.595 . S
C2893 C91 1.561 . S
C2915 C2212 1.450 . S
C2911 C500 1.433 . S
C2929 C560 1.588 . S
C2933 C2226 1.608 . S
C2947 C620 1.492 . S
C2951 N2254 1.457 . S
C2969 N2267 1.432 . S
C2965 C691 1.454 . S
C2983 C721 1.566 . S
C2987 C2272 1.589 . S
C3001 C811 1.476 . S
C3005 N2208 1.439 . S
C3019 C871 1.485 . S
C3023 N2221 1.490 . S
C3037 C901 1.420 . S
C3041 C2258 1.437 . S
C3059 N2106 1.401 . S
C3055 C511 1.411 . S
C3073 C541 1.498 . S
C3077 N2290 1.484 . S
C3095 N2152 1.440 . S
C3091 C601 1.453 . S
C3109 C661 1.507 . S
C3113 C2327 1.515 . S
C3127 C740 1.557 . S
C3131 C2028 1.579 . S
C3149 C2341 1.589 . S
C3145 C781 1.571 . S
C3163 C860 1.532 . S
C3167 C2074 1.541 . S
C3185 N2359 1.401 . S
C3181 C920 1.411 . S
C3199 C481 1.441 . S
C3203 N2323 1.430 . S
C3221 N2336 1.491 . S
C3217 C751 1.507 . S
C3235 C800 1.444 . S
C3239 N2070 1.422 . S
C3257 C2364 1.442 . S
C3253 C841 1.426 . S
C3271 C931 1.407 . S
C3275 N2024 1.397 . S
C3289 C631 1.544 . S
C3293 C2295 1.563 . S
C3307 C680 1.545 . S
C3311 C2157 1.558 . S
C3325 C571 1.572 . S
C3329 C2111 1.600 . S
C3343 C961 1.482 . S
C3347 C2249 1.514 . S
C3365 C2281 1.542 . S
C3361 C1040 1.533 . S
C3379 C1100 1.457 . S
C3383 N2198 1.436 . S
C3397 C1171 1.435 . S
C3401 N2231 1.418 . S
C3415 C1201 1.570 . S
C3419 C2235 1.585 . S
C3433 C1291 1.531 . S
C3437 N2244 1.516 . S
C3455 N2277 1.378 . S
C3451 C1351 1.393 . S
C3469 C1381 1.473 . S
C3473 C2203 1.494 . S
C3491 N2392 1.435 . S
C3487 C991 1.441 . S
C3505 C1021 1.446 . S
C3509 N2129 1.447 . S
C3527 N2415 1.373 . S
C3523 C1081 1.394 . S
C3541 C1141 1.481 . S
C3545 N2185 1.441 . S
C3559 C1220 1.521 . S
C3563 C2433 1.555 . S
C3577 C1261 1.626 . S
C3581 C2051 1.647 . S
C3599 N2451 1.384 . S
C3595 C1340 1.416 . S
C3613 C1400 1.461 . S
C3617 C2088 1.486 . S
C3635 C2189 1.482 . S
C3631 C980 1.455 . S
C3653 N2047 1.501 . S
C3649 C1231 1.521 . S
C3667 C1280 1.534 . S
C3671 C2456 1.570 . S
C3685 C1321 1.391 . S
C3689 N2083 1.354 . S
C3707 N2428 1.469 . S
C3703 C1411 1.481 . S
C3725 C2134 1.560 . S
C3721 C1111 1.530 . S
C3743 C2419 1.554 . S
C3739 C1160 1.543 . S
C3761 C2396 1.564 . S
C3757 C1051 1.527 . S
C3775 C1460 1.390 . S
C3779 N1978 1.366 . S
C3793 C1520 1.550 . S
C3797 C2005 1.558 . S
C3815 C1927 1.539 . S
C3811 C1580 1.524 . S
C3833 N1945 1.391 . S
C3829 C1651 1.413 . S
C3851 C1950 1.591 . S
C3847 C1681 1.574 . S
C3869 C1982 1.501 . S
C3865 C1760 1.507 . S
C3887 N2001 1.487 . S
C3883 C1831 1.502 . S
C3901 C1861 1.481 . S
C3905 N1922 1.472 . S
C3919 C1471 1.361 . S
C3923 N2438 1.343 . S
C3941 N2346 1.462 . S
C3937 C1501 1.481 . S
C3959 C2465 1.581 . S
C3955 C1561 1.547 . S
C3977 C2373 1.390 . S
C3973 C1621 1.387 . S
C3991 C1700 1.556 . S
C3995 C2387 1.579 . S
C4013 C2304 1.575 . S
C4009 C1771 1.561 . S
C4031 C2410 1.638 . S
C4027 C1820 1.616 . S
C4045 C1880 1.454 . S
C4049 N2313 1.445 . S
C4067 N2369 1.350 . S
C4063 C1441 1.370 . S
C4085 N2300 1.467 . S
C4081 C1711 1.473 . S
C4103 N2405 1.403 . S
C4099 C1741 1.408 . S
C4117 C1801 1.494 . S
C4121 C2318 1.508 . S
C4135 C1891 1.414 . S
C4139 N2382 1.403 . S
C4153 C1591 1.640 . S
C4157 C2350 1.653 . S
C4171 C1640 1.427 . S
C4175 N2461 1.399 . S
C4193 C2442 1.539 . S
C4189 C1531 1.521 . S
