# Generated by pormake.
# Topology nom, (4,4)-cn, num edge types: 1
# Building blocks:
#     Node 0, Type 0, BuildingBlock: KUFVIS_clean_linker_0, # of connection points: 4
#     Node 1, Type 0, BuildingBlock: KUFVIS_clean_linker_0, # of connection points: 4
#     Node 2, Type 0, BuildingBlock: KUFVIS_clean_linker_0, # of connection points: 4
#     Node 3, Type 0, BuildingBlock: KUFVIS_clean_linker_0, # of connection points: 4
#     Node 4, Type 0, BuildingBlock: KUFVIS_clean_linker_0, # of connection points: 4
#     Node 5, Type 0, BuildingBlock: KUFVIS_clean_linker_0, # of connection points: 4
#     Node 6, Type 1, BuildingBlock: CEKHIL_clean_sbu_0, # of connection points: 4
#     Node 7, Type 1, BuildingBlock: CEKHIL_clean_sbu_0, # of connection points: 4
#     Node 8, Type 1, BuildingBlock: CEKHIL_clean_sbu_0, # of connection points: 4
#     Node 9, Type 1, BuildingBlock: CEKHIL_clean_sbu_0, # of connection points: 4
#     Node 10, Type 1, BuildingBlock: CEKHIL_clean_sbu_0, # of connection points: 4
#     Node 11, Type 1, BuildingBlock: CEKHIL_clean_sbu_0, # of connection points: 4
#     Edge 12, Type (0, 1), BuildingBlock: KIFKEQ_clean_linker_1, # of connection points: 2
#     Edge 13, Type (0, 1), BuildingBlock: KIFKEQ_clean_linker_1, # of connection points: 2
#     Edge 14, Type (0, 1), BuildingBlock: KIFKEQ_clean_linker_1, # of connection points: 2
#     Edge 15, Type (0, 1), BuildingBlock: KIFKEQ_clean_linker_1, # of connection points: 2
#     Edge 16, Type (0, 1), BuildingBlock: KIFKEQ_clean_linker_1, # of connection points: 2
#     Edge 17, Type (0, 1), BuildingBlock: KIFKEQ_clean_linker_1, # of connection points: 2
#     Edge 18, Type (0, 1), BuildingBlock: KIFKEQ_clean_linker_1, # of connection points: 2
#     Edge 19, Type (0, 1), BuildingBlock: KIFKEQ_clean_linker_1, # of connection points: 2
#     Edge 20, Type (0, 1), BuildingBlock: KIFKEQ_clean_linker_1, # of connection points: 2
#     Edge 21, Type (0, 1), BuildingBlock: KIFKEQ_clean_linker_1, # of connection points: 2
#     Edge 22, Type (0, 1), BuildingBlock: KIFKEQ_clean_linker_1, # of connection points: 2
#     Edge 23, Type (0, 1), BuildingBlock: KIFKEQ_clean_linker_1, # of connection points: 2
#     Edge 24, Type (0, 1), BuildingBlock: KIFKEQ_clean_linker_1, # of connection points: 2
#     Edge 25, Type (0, 1), BuildingBlock: KIFKEQ_clean_linker_1, # of connection points: 2
#     Edge 26, Type (0, 1), BuildingBlock: KIFKEQ_clean_linker_1, # of connection points: 2
#     Edge 27, Type (0, 1), BuildingBlock: KIFKEQ_clean_linker_1, # of connection points: 2
#     Edge 28, Type (0, 1), BuildingBlock: KIFKEQ_clean_linker_1, # of connection points: 2
#     Edge 29, Type (0, 1), BuildingBlock: KIFKEQ_clean_linker_1, # of connection points: 2
#     Edge 30, Type (0, 1), BuildingBlock: KIFKEQ_clean_linker_1, # of connection points: 2
#     Edge 31, Type (0, 1), BuildingBlock: KIFKEQ_clean_linker_1, # of connection points: 2
#     Edge 32, Type (0, 1), BuildingBlock: KIFKEQ_clean_linker_1, # of connection points: 2
#     Edge 33, Type (0, 1), BuildingBlock: KIFKEQ_clean_linker_1, # of connection points: 2
#     Edge 34, Type (0, 1), BuildingBlock: KIFKEQ_clean_linker_1, # of connection points: 2
#     Edge 35, Type (0, 1), BuildingBlock: KIFKEQ_clean_linker_1, # of connection points: 2
# Relax obj value: 0.004
# Max RMSD: 0.050
# Mean RMSD: 0.042
data_MOF--net-nom--node1-CEKHIL_clean_sbu_0--node2-KUFVIS_clean_linker_0--edge1-KIFKEQ_clean_linker_1
_symmetry_space_group_name_H-M    P1
_symmetry_Int_Tables_number       1
_symmetry_cell_setting            triclinic
loop_
_symmetry_equiv_pos_as_xyz
'x, y, z'
_cell_length_a     46.471574
_cell_length_b     45.948288
_cell_length_c     47.1241
_cell_angle_alpha  89.993264
_cell_angle_beta   90.044174
_cell_angle_gamma 121.16172
loop_
_atom_site_label
_atom_site_type_symbol
_atom_site_fract_x
_atom_site_fract_y
_atom_site_fract_z
_atom_type_partial_charge
H0 H 0.14292 0.59662 0.35615 0.0
H1 H 0.07453 0.58853 0.29166 0.0
H2 H 0.03986 0.55514 0.37796 0.0
H3 H 0.9953 0.55526 0.36642 0.0
H4 H 0.9231 0.52458 0.29989 0.0
H5 H 1.02347 0.55186 0.27902 0.0
C6 C 0.1174 0.58837 0.34961 0.0
C7 C 0.09201 0.57604 0.36991 0.0
C8 C 0.11106 0.59252 0.32145 0.0
C9 C 0.07832 0.58359 0.31333 0.0
C10 C 0.05122 0.56874 0.33312 0.0
C11 C 0.05899 0.56568 0.36173 0.0
C12 C 1.0154 0.55674 0.324 0.0
C13 C 0.98996 0.55087 0.34402 0.0
C14 C 0.95678 0.53914 0.33518 0.0
C15 C 0.94894 0.53437 0.3064 0.0
C16 C 0.97299 0.53945 0.28613 0.0
C17 C 1.00586 0.54984 0.29499 0.0
H18 H 0.53768 0.13202 0.51546 0.0
H19 H 0.50342 0.05832 0.44885 0.0
H20 H 0.5081 0.02972 0.53588 0.0
H21 H 0.46711 0.97917 0.52373 0.0
H22 H 0.45425 0.90714 0.46038 0.0
H23 H 0.50333 1.01233 0.43776 0.0
C24 C 0.52719 0.10581 0.50877 0.0
C25 C 0.52187 0.08123 0.52882 0.0
C26 C 0.52167 0.09777 0.48001 0.0
C27 C 0.50849 0.06392 0.47119 0.0
C28 C 0.5021 0.03804 0.49118 0.0
C29 C 0.51022 0.04774 0.52003 0.0
C30 C 0.48808 1.00148 0.48224 0.0
C31 C 0.47158 0.97449 0.50217 0.0
C32 C 0.46053 0.9408 0.49439 0.0
C33 C 0.46416 0.93346 0.46644 0.0
C34 C 0.47872 0.95897 0.44592 0.0
C35 C 0.49106 0.99296 0.45384 0.0
H36 H 0.5518 0.42818 0.62054 0.0
H37 H 0.49656 0.44109 0.68708 0.0
H38 H 0.50567 0.48625 0.60405 0.0
H39 H 0.45719 0.48152 0.61559 0.0
H40 H 0.42258 0.51689 0.68389 0.0
H41 H 0.4939 0.48675 0.70134 0.0
C42 C 0.53733 0.43905 0.62818 0.0
C43 C 0.52975 0.45763 0.6095 0.0
C44 C 0.52542 0.43287 0.65604 0.0
C45 C 0.50638 0.44682 0.66568 0.0
C46 C 0.49878 0.46653 0.64724 0.0
C47 C 0.51077 0.47154 0.61893 0.0
C48 C 0.47776 0.48093 0.65721 0.0
C49 C 0.45786 0.48707 0.63797 0.0
C50 C 0.43813 0.50017 0.64763 0.0
C51 C 0.43742 0.50631 0.67652 0.0
C52 C 0.45724 0.50131 0.69581 0.0
C53 C 0.47777 0.48921 0.68618 0.0
H54 H 0.1443 0.51882 0.80013 0.0
H55 H 0.07236 0.48835 0.86727 0.0
H56 H 0.04452 0.49413 0.78032 0.0
H57 H 0.99416 0.45327 0.79255 0.0
H58 H 0.92414 0.44524 0.85505 0.0
H59 H 0.02784 0.49107 0.87814 0.0
C60 C 0.11867 0.50952 0.807 0.0
C61 C 0.09469 0.50545 0.78709 0.0
C62 C 0.11099 0.50452 0.83585 0.0
C63 C 0.07788 0.49303 0.84488 0.0
C64 C 0.05252 0.48762 0.82496 0.0
C65 C 0.06205 0.49536 0.79607 0.0
C66 C 1.01663 0.47494 0.83386 0.0
C67 C 0.98983 0.45866 0.81393 0.0
C68 C 0.95685 0.44912 0.82143 0.0
C69 C 0.94996 0.45399 0.84917 0.0
C70 C 0.9752 0.46824 0.86976 0.0
C71 C 1.00855 0.47905 0.86208 0.0
H72 H 0.5277 0.91192 0.01533 0.0
H73 H 0.56069 0.98475 0.94865 0.0
H74 H 0.55996 1.01491 0.03607 0.0
H75 H 0.59621 0.06607 0.02309 0.0
H76 H 0.60841 0.13575 0.95757 0.0
H77 H 0.56402 0.03093 0.93658 0.0
C78 C 0.53845 0.93821 0.00878 0.0
C79 C 0.54514 0.9631 0.02902 0.0
C80 C 0.54314 0.94595 0.98 0.0
C81 C 0.55635 0.97971 0.97108 0.0
C82 C 0.56354 1.00596 0.991 0.0
C83 C 0.55679 0.99664 0.02009 0.0
C84 C 0.5768 0.04238 0.9816 0.0
C85 C 0.59197 0.06993 0.00124 0.0
C86 C 0.60223 0.10329 0.99273 0.0
C87 C 0.59908 0.10978 0.96438 0.0
C88 C 0.58644 0.08389 0.94426 0.0
C89 C 0.57472 0.0503 0.95278 0.0
H90 H 0.51553 0.61709 0.12422 0.0
H91 H 0.5748 0.60606 0.18798 0.0
H92 H 0.55926 0.55698 0.10591 0.0
H93 H 0.60942 0.5629 0.11548 0.0
H94 H 0.6464 0.52836 0.18276 0.0
H95 H 0.57625 0.55943 0.20217 0.0
C96 C 0.53024 0.60615 0.13107 0.0
C97 C 0.53586 0.58626 0.11214 0.0
C98 C 0.54412 0.6134 0.15824 0.0
C99 C 0.56357 0.59961 0.16706 0.0
C100 C 0.56957 0.57893 0.14841 0.0
C101 C 0.55553 0.5727 0.12075 0.0
C102 C 0.59071 0.5644 0.15767 0.0
C103 C 0.6097 0.55775 0.13785 0.0
C104 C 0.62969 0.54467 0.14698 0.0
C105 C 0.6314 0.53895 0.17582 0.0
C106 C 0.6124 0.54438 0.19565 0.0
C107 C 0.59172 0.55655 0.1866 0.0
Co108 Co 0.66028 0.39361 0.40121 0.0
O109 O 0.6965 0.39694 0.37834 0.0
O110 O 0.70275 0.43367 0.41157 0.0
C111 C 0.63629 0.33735 0.4114 0.0
O112 O 0.63057 0.399 0.43015 0.0
Co113 Co 0.58461 0.34626 0.38595 0.0
O114 O 0.57564 0.36211 0.42201 0.0
C115 C 0.62466 0.41329 0.35767 0.0
C116 C 0.71663 0.42424 0.39266 0.0
C117 C 0.59926 0.38605 0.43634 0.0
O118 O 0.65107 0.42052 0.37225 0.0
O119 O 0.5969 0.38476 0.35919 0.0
O120 O 0.66216 0.36009 0.4257 0.0
O121 O 0.62727 0.34893 0.39045 0.0
Co122 Co 0.29195 0.64644 0.57706 0.0
O123 O 0.32483 0.64336 0.60004 0.0
O124 O 0.29257 0.60562 0.56774 0.0
C125 C 0.32599 0.70216 0.56558 0.0
O126 O 0.25642 0.64075 0.54824 0.0
Co127 Co 0.26622 0.6953 0.59125 0.0
O128 O 0.24095 0.67919 0.55523 0.0
C129 C 0.23737 0.62915 0.62108 0.0
C130 C 0.31638 0.61543 0.58648 0.0
C131 C 0.23909 0.65438 0.54154 0.0
O132 O 0.25574 0.62101 0.60663 0.0
O133 O 0.23922 0.65784 0.6189 0.0
O134 O 0.32781 0.67867 0.55176 0.0
O135 O 0.30556 0.69161 0.58682 0.0
Co136 Co 0.66641 0.28453 0.73547 0.0
O137 O 0.66344 0.31678 0.71107 0.0
O138 O 0.62668 0.28639 0.7445 0.0
C139 C 0.72171 0.31869 0.74653 0.0
O140 O 0.66052 0.24965 0.7654 0.0
Co141 Co 0.71355 0.25674 0.72262 0.0
O142 O 0.69713 0.23209 0.75898 0.0
C143 C 0.64805 0.22751 0.69292 0.0
C144 C 0.63613 0.30924 0.7247 0.0
C145 C 0.67316 0.23151 0.77257 0.0
O146 O 0.64049 0.24675 0.70693 0.0
O147 O 0.67626 0.22907 0.6952 0.0
O148 O 0.69884 0.32161 0.75985 0.0
O149 O 0.71086 0.29723 0.72581 0.0
Co150 Co 0.40776 0.64991 0.9013 0.0
O151 O 0.37182 0.64648 0.87788 0.0
O152 O 0.36538 0.60946 0.91091 0.0
C153 C 0.43087 0.70596 0.91185 0.0
O154 O 0.43684 0.64424 0.93071 0.0
Co155 Co 0.48384 0.69795 0.8888 0.0
O156 O 0.49136 0.68462 0.92676 0.0
C157 C 0.44526 0.63168 0.85876 0.0
C158 C 0.35163 0.61894 0.8919 0.0
C159 C 0.46753 0.6589 0.93933 0.0
O160 O 0.41815 0.62389 0.87244 0.0
O161 O 0.47289 0.66018 0.86147 0.0
O162 O 0.40489 0.68285 0.92577 0.0
O163 O 0.44079 0.69483 0.89122 0.0
Co164 Co 0.77521 0.39787 0.07643 0.0
O165 O 0.74211 0.40068 0.09928 0.0
O166 O 0.77549 0.43939 0.06811 0.0
C167 C 0.74058 0.34264 0.06359 0.0
O168 O 0.81126 0.40421 0.04806 0.0
Co169 Co 0.79952 0.34754 0.08878 0.0
O170 O 0.82314 0.36281 0.05187 0.0
C171 C 0.82591 0.4107 0.12286 0.0
C172 C 0.7512 0.42915 0.08639 0.0
C173 C 0.82685 0.38932 0.03974 0.0
O174 O 0.8108 0.42146 0.10683 0.0
O175 O 0.82213 0.38116 0.12031 0.0
O176 O 0.73962 0.36686 0.05018 0.0
O177 O 0.76075 0.35226 0.08498 0.0
Co178 Co 0.40202 0.76067 0.23567 0.0
O179 O 0.40532 0.72847 0.2114 0.0
O180 O 0.44257 0.76016 0.24413 0.0
C181 C 0.34708 0.72557 0.24754 0.0
O182 O 0.40806 0.79577 0.26528 0.0
Co183 Co 0.35327 0.78678 0.22455 0.0
O184 O 0.36852 0.80976 0.26186 0.0
C185 C 0.4162 0.81428 0.19108 0.0
C186 C 0.43311 0.73692 0.22468 0.0
C187 C 0.39413 0.81212 0.27402 0.0
O188 O 0.42629 0.79811 0.2066 0.0
O189 O 0.38708 0.81067 0.19358 0.0
O190 O 0.37061 0.72355 0.26065 0.0
O191 O 0.35714 0.74693 0.2268 0.0
H192 H 0.14964 0.56687 0.30589 0.0
H193 H 0.13935 0.65417 0.29491 0.0
H194 H 0.20578 0.59806 0.28505 0.0
H195 H 0.19599 0.68597 0.27452 0.0
H196 H 0.31843 0.67762 0.28946 0.0
H197 H 0.25913 0.64377 0.30241 0.0
H198 H 0.23478 0.69306 0.23663 0.0
H199 H 0.29421 0.72732 0.22402 0.0
C200 C 0.15913 0.59249 0.29821 0.0
C201 C 0.14014 0.60806 0.30177 0.0
C202 C 0.19148 0.61057 0.28669 0.0
C203 C 0.20578 0.64481 0.27866 0.0
C204 C 0.18579 0.65963 0.28039 0.0
C205 C 0.15325 0.6414 0.29188 0.0
C206 C 0.30043 0.68125 0.27778 0.0
C207 C 0.31109 0.70519 0.25575 0.0
C208 C 0.26634 0.66161 0.28501 0.0
C209 C 0.242 0.66542 0.2704 0.0
C210 C 0.25276 0.68956 0.24845 0.0
C211 C 0.28686 0.70914 0.24118 0.0
H212 H 0.49071 0.13234 0.46591 0.0
H213 H 0.58101 0.12975 0.4522 0.0
H214 H 0.5181 0.18982 0.44587 0.0
H215 H 0.60872 0.18739 0.4325 0.0
H216 H 0.57556 0.28723 0.39099 0.0
H217 H 0.54594 0.22642 0.40184 0.0
H218 H 0.62668 0.24337 0.45792 0.0
H219 H 0.65618 0.30425 0.44731 0.0
C220 C 0.51594 0.14359 0.45745 0.0
C221 C 0.53356 0.12647 0.45995 0.0
C222 C 0.53174 0.17656 0.44623 0.0
C223 C 0.5657 0.19326 0.43794 0.0
C224 C 0.58265 0.17529 0.43898 0.0
C225 C 0.56667 0.14215 0.44979 0.0
C226 C 0.58699 0.27799 0.40566 0.0
C227 C 0.61819 0.30058 0.41838 0.0
C228 C 0.56999 0.24317 0.41185 0.0
C229 C 0.58408 0.23007 0.43054 0.0
C230 C 0.6154 0.25264 0.4431 0.0
C231 C 0.63216 0.28754 0.43724 0.0
H232 H 0.46525 0.5569 0.61506 0.0
H233 H 0.37057 0.46946 0.63967 0.0
H234 H 0.43564 0.58403 0.59618 0.0
H235 H 0.34076 0.49623 0.62055 0.0
H236 H 0.37489 0.63711 0.61547 0.0
H237 H 0.40439 0.60674 0.62355 0.0
H238 H 0.32745 0.52052 0.57698 0.0
H239 H 0.29793 0.55116 0.56858 0.0
C240 C 0.438 0.5429 0.61525 0.0
C241 C 0.42011 0.51088 0.62832 0.0
C242 C 0.42107 0.55859 0.60487 0.0
C243 C 0.38586 0.54243 0.60715 0.0
C244 C 0.36783 0.50926 0.61829 0.0
C245 C 0.38483 0.4938 0.62905 0.0
C246 C 0.36424 0.61171 0.60688 0.0
C247 C 0.33396 0.59653 0.59147 0.0
C248 C 0.38135 0.59442 0.61127 0.0
C249 C 0.36842 0.56129 0.60071 0.0
C250 C 0.33805 0.546 0.58538 0.0
C251 C 0.32117 0.56355 0.58058 0.0
H252 H 0.92063 0.47583 0.8022 0.0
H253 H 0.92736 0.38588 0.79755 0.0
H254 H 0.86479 0.44498 0.7807 0.0
H255 H 0.87101 0.35447 0.77638 0.0
H256 H 0.77342 0.31397 0.72399 0.0
H257 H 0.83305 0.34722 0.73661 0.0
H258 H 0.81097 0.40087 0.79994 0.0
H259 H 0.7516 0.36797 0.78713 0.0
C260 C 0.91046 0.44967 0.7957 0.0
C261 C 0.92829 0.43325 0.80127 0.0
C262 C 0.8783 0.43183 0.7838 0.0
C263 C 0.8631 0.39704 0.77737 0.0
C264 C 0.882 0.38125 0.78102 0.0
C265 C 0.91433 0.39922 0.79294 0.0
C266 C 0.78134 0.3329 0.7406 0.0
C267 C 0.75777 0.33836 0.75456 0.0
C268 C 0.8155 0.35188 0.74786 0.0
C269 C 0.8269 0.37694 0.7691 0.0
C270 C 0.80321 0.38225 0.78309 0.0
C271 C 0.76909 0.36318 0.77593 0.0
H272 H 0.4823 0.91215 0.95452 0.0
H273 H 0.57482 0.91276 0.96393 0.0
H274 H 0.45493 0.85441 0.93506 0.0
H275 H 0.54775 0.85513 0.94428 0.0
H276 H 0.4104 0.73809 0.94838 0.0
H277 H 0.4389 0.79891 0.95905 0.0
H278 H 0.51918 0.81777 0.90173 0.0
H279 H 0.49068 0.75705 0.89096 0.0
C280 C 0.49711 0.9004 0.95123 0.0
C281 C 0.53081 0.91705 0.96007 0.0
C282 C 0.48135 0.86718 0.94059 0.0
C283 C 0.49907 0.85005 0.93845 0.0
C284 C 0.53347 0.86769 0.94548 0.0
C285 C 0.5491 0.90077 0.95647 0.0
C286 C 0.43412 0.75521 0.93807 0.0
C287 C 0.4483 0.74271 0.91891 0.0
C288 C 0.4503 0.79009 0.94396 0.0
C289 C 0.48122 0.81321 0.93107 0.0
C290 C 0.49547 0.80063 0.91205 0.0
C291 C 0.47909 0.76583 0.90589 0.0
H292 H 0.60188 0.48688 0.11566 0.0
H293 H 0.69688 0.57597 0.13705 0.0
H294 H 0.63135 0.45959 0.09692 0.0
H295 H 0.72655 0.549 0.11819 0.0
H296 H 0.69301 0.40775 0.11579 0.0
H297 H 0.66335 0.43799 0.12357 0.0
H298 H 0.73955 0.52363 0.07603 0.0
H299 H 0.76928 0.49317 0.06805 0.0
C300 C 0.62912 0.50118 0.11514 0.0
C301 C 0.64716 0.53375 0.12727 0.0
C302 C 0.64601 0.48539 0.10487 0.0
C303 C 0.68131 0.50195 0.10639 0.0
C304 C 0.6994 0.5356 0.11652 0.0
C305 C 0.68247 0.5512 0.12711 0.0
C306 C 0.70348 0.43301 0.10694 0.0
C307 C 0.73363 0.44807 0.0914 0.0
C308 C 0.68626 0.45023 0.11116 0.0
C309 C 0.6989 0.48315 0.10021 0.0
C310 C 0.72915 0.49832 0.08475 0.0
C311 C 0.74618 0.48087 0.0802 0.0
H312 H 0.48543 0.90271 0.51329 0.0
H313 H 0.39811 0.91234 0.51805 0.0
H314 H 0.45338 0.84576 0.53375 0.0
H315 H 0.36556 0.85495 0.53822 0.0
H316 H 0.32295 0.75489 0.58911 0.0
H317 H 0.35725 0.81535 0.5775 0.0
H318 H 0.40864 0.79236 0.5131 0.0
H319 H 0.37461 0.73206 0.52486 0.0
C320 C 0.45961 0.89296 0.51967 0.0
C321 C 0.44425 0.9119 0.51442 0.0
C322 C 0.4411 0.86018 0.53095 0.0
C323 C 0.40672 0.84552 0.53706 0.0
C324 C 0.39201 0.86552 0.53381 0.0
C325 C 0.41064 0.89845 0.52248 0.0
C326 C 0.34157 0.76277 0.57245 0.0
C327 C 0.34609 0.73867 0.55789 0.0
C328 C 0.36116 0.79741 0.56579 0.0
C329 C 0.38592 0.80877 0.54458 0.0
C330 C 0.39025 0.78458 0.52994 0.0
C331 C 0.37054 0.74995 0.53648 0.0
H332 H 0.55945 0.44705 0.70682 0.0
H333 H 0.50907 0.36865 0.64356 0.0
H334 H 0.58399 0.41531 0.72743 0.0
H335 H 0.53405 0.33771 0.66357 0.0
H336 H 0.63942 0.34359 0.67652 0.0
H337 H 0.60771 0.37107 0.665 0.0
H338 H 0.55869 0.34189 0.74648 0.0
H339 H 0.58983 0.31339 0.75792 0.0
C340 C 0.55267 0.42253 0.69801 0.0
C341 C 0.53244 0.41032 0.67358 0.0
C342 C 0.56685 0.40454 0.70963 0.0
C343 C 0.5611 0.37432 0.69681 0.0
C344 C 0.53896 0.36101 0.67372 0.0
C345 C 0.52458 0.37864 0.66239 0.0
C346 C 0.62192 0.34299 0.69202 0.0
C347 C 0.61701 0.32615 0.71806 0.0
C348 C 0.60381 0.35872 0.68542 0.0
C349 C 0.5809 0.35861 0.70491 0.0
C350 C 0.57634 0.3424 0.73119 0.0
C351 C 0.594 0.32598 0.7376 0.0
H352 H 0.14512 0.47227 0.84649 0.0
H353 H 0.14328 0.56281 0.86632 0.0
H354 H 0.20288 0.49919 0.86423 0.0
H355 H 0.20119 0.59006 0.88385 0.0
H356 H 0.30434 0.55614 0.91231 0.0
H357 H 0.24325 0.52604 0.9057 0.0
H358 H 0.2542 0.60968 0.85537 0.0
H359 H 0.31508 0.63958 0.86176 0.0
C360 C 0.1566 0.49735 0.85593 0.0
C361 C 0.13958 0.51524 0.85559 0.0
C362 C 0.18977 0.51293 0.86583 0.0
C363 C 0.2068 0.54695 0.87507 0.0
C364 C 0.18889 0.56396 0.87657 0.0
C365 C 0.15556 0.54819 0.86702 0.0
C366 C 0.29369 0.56808 0.89982 0.0
C367 C 0.31462 0.60021 0.88744 0.0
C368 C 0.2587 0.55083 0.89607 0.0
C369 C 0.24381 0.56559 0.88026 0.0
C370 C 0.26478 0.59783 0.86808 0.0
C371 C 0.29974 0.61483 0.87148 0.0
H372 H 0.57904 0.14444 0.00737 0.0
H373 H 0.66285 0.13016 0.0195 0.0
H374 H 0.61176 0.20164 0.02726 0.0
H375 H 0.69616 0.18779 0.03896 0.0
H376 H 0.74017 0.28855 0.08801 0.0
H377 H 0.70458 0.22839 0.07617 0.0
H378 H 0.65846 0.25426 0.00895 0.0
H379 H 0.69369 0.31438 0.02114 0.0
C380 C 0.6042 0.15329 0.01515 0.0
C381 C 0.61838 0.13289 0.01217 0.0
C382 C 0.62315 0.18622 0.0261 0.0
C383 C 0.65686 0.19965 0.03414 0.0
C384 C 0.67026 0.17827 0.03305 0.0
C385 C 0.65116 0.14517 0.02213 0.0
C386 C 0.72244 0.2814 0.07067 0.0
C387 C 0.71974 0.30627 0.0555 0.0
C388 C 0.70209 0.24688 0.06385 0.0
C389 C 0.67843 0.23635 0.04177 0.0
C390 C 0.67594 0.26134 0.02647 0.0
C391 C 0.69636 0.29587 0.03325 0.0
H392 H 0.56246 0.6783 0.14634 0.0
H393 H 0.50967 0.59928 0.20859 0.0
H394 H 0.53753 0.70959 0.1658 0.0
H395 H 0.48517 0.63128 0.22861 0.0
H396 H 0.48098 0.73536 0.25766 0.0
H397 H 0.51267 0.70729 0.24698 0.0
H398 H 0.4615 0.67369 0.1666 0.0
H399 H 0.42921 0.70079 0.17739 0.0
C400 C 0.54661 0.66835 0.16496 0.0
C401 C 0.53808 0.63643 0.17604 0.0
C402 C 0.53219 0.68613 0.17593 0.0
C403 C 0.50934 0.67267 0.1985 0.0
C404 C 0.5029 0.64218 0.21125 0.0
C405 C 0.51711 0.62407 0.2 0.0
C406 C 0.47646 0.72192 0.23774 0.0
C407 C 0.45265 0.72038 0.2183 0.0
C408 C 0.49446 0.70576 0.23177 0.0
C409 C 0.48941 0.68839 0.20603 0.0
C410 C 0.46575 0.68694 0.18661 0.0
C411 C 0.44733 0.70246 0.19279 0.0
H412 H 0.92263 0.57112 0.34683 0.0
H413 H 0.92478 0.48041 0.36513 0.0
H414 H 0.86514 0.54403 0.36517 0.0
H415 H 0.86715 0.453 0.38329 0.0
H416 H 0.75299 0.40367 0.36227 0.0
H417 H 0.81379 0.43354 0.3556 0.0
H418 H 0.82525 0.51683 0.40675 0.0
H419 H 0.76419 0.48674 0.41363 0.0
C420 C 0.91129 0.54595 0.35604 0.0
C421 C 0.92831 0.52808 0.35511 0.0
C422 C 0.87827 0.53028 0.36631 0.0
C423 C 0.86139 0.49618 0.37532 0.0
C424 C 0.87933 0.47916 0.3762 0.0
C425 C 0.9125 0.49501 0.36628 0.0
C426 C 0.76842 0.42832 0.37215 0.0
C427 C 0.75367 0.44285 0.38839 0.0
C428 C 0.80334 0.4453 0.36857 0.0
C429 C 0.82444 0.47747 0.38086 0.0
C430 C 0.8097 0.49211 0.39702 0.0
C431 C 0.77473 0.47486 0.40094 0.0
H432 H 0.11407 0.5387 0.39672 0.0
H433 H 0.09591 0.62072 0.40909 0.0
H434 H 0.14598 0.55361 0.44103 0.0
H435 H 0.12935 0.63729 0.45229 0.0
H436 H 0.24004 0.61895 0.49505 0.0
H437 H 0.19898 0.59512 0.45666 0.0
H438 H 0.13914 0.62959 0.49866 0.0
H439 H 0.18121 0.65508 0.53584 0.0
C440 C 0.11615 0.55932 0.40949 0.0
C441 C 0.10214 0.57824 0.39991 0.0
C442 C 0.13502 0.5684 0.43456 0.0
C443 C 0.141 0.59716 0.45019 0.0
C444 C 0.12514 0.61475 0.44126 0.0
C445 C 0.10576 0.60523 0.4165 0.0
C446 C 0.21813 0.62147 0.49594 0.0
C447 C 0.21415 0.63933 0.51823 0.0
C448 C 0.19428 0.60745 0.47408 0.0
C449 C 0.16546 0.6103 0.47434 0.0
C450 C 0.16121 0.62743 0.49719 0.0
C451 C 0.18538 0.64204 0.51864 0.0
H452 H 0.57245 0.0822 0.55829 0.0
H453 H 0.49558 0.10772 0.56471 0.0
H454 H 0.59871 0.11424 0.6014 0.0
H455 H 0.52054 0.13842 0.60887 0.0
H456 H 0.60315 0.23169 0.65797 0.0
H457 H 0.56736 0.19052 0.62193 0.0
H458 H 0.59962 0.12216 0.64991 0.0
H459 H 0.63668 0.16419 0.68448 0.0
C460 C 0.56044 0.09354 0.5697 0.0
C461 C 0.53202 0.09244 0.55841 0.0
C462 C 0.57544 0.11201 0.59446 0.0
C463 C 0.56204 0.12941 0.60865 0.0
C464 C 0.53209 0.12612 0.59825 0.0
C465 C 0.51745 0.10812 0.57323 0.0
C466 C 0.60222 0.20769 0.65647 0.0
C467 C 0.62303 0.20132 0.6736 0.0
C468 C 0.58154 0.1839 0.63596 0.0
C469 C 0.58078 0.15296 0.63264 0.0
C470 C 0.60018 0.14597 0.65115 0.0
C471 C 0.62132 0.17 0.67112 0.0
H472 H 0.50919 0.55442 0.72307 0.0
H473 H 0.40597 0.4742 0.73383 0.0
H474 H 0.50563 0.58219 0.76579 0.0
H475 H 0.40247 0.50076 0.77756 0.0
H476 H 0.39416 0.58417 0.82517 0.0
H477 H 0.39793 0.54768 0.78951 0.0
H478 H 0.50087 0.58501 0.81453 0.0
H479 H 0.49746 0.62259 0.84877 0.0
C480 C 0.4862 0.54201 0.7354 0.0
C481 C 0.45797 0.51214 0.72543 0.0
C482 C 0.48399 0.55791 0.75991 0.0
C483 C 0.45355 0.54402 0.77514 0.0
C484 C 0.42606 0.51269 0.76612 0.0
C485 C 0.42817 0.49711 0.74137 0.0
C486 C 0.41742 0.58426 0.8231 0.0
C487 C 0.44564 0.60659 0.83936 0.0
C488 C 0.41961 0.56318 0.80281 0.0
C489 C 0.4499 0.56353 0.79879 0.0
C490 C 0.47745 0.58461 0.81633 0.0
C491 C 0.47544 0.60609 0.83611 0.0
H492 H 0.98686 0.44123 0.91688 0.0
H493 H 0.93814 0.49452 0.88891 0.0
H494 H 0.95502 0.42642 0.96124 0.0
H495 H 0.90526 0.47862 0.93229 0.0
H496 H 0.85527 0.45371 0.01789 0.0
H497 H 0.89858 0.48006 0.98152 0.0
H498 H 0.89811 0.38621 0.97229 0.0
H499 H 0.85585 0.3604 0.00934 0.0
C500 C 0.97017 0.45071 0.92065 0.0
C501 C 0.96478 0.4688 0.89942 0.0
C502 C 0.95139 0.44169 0.9458 0.0
C503 C 0.9268 0.45049 0.95012 0.0
C504 C 0.92386 0.47135 0.92992 0.0
C505 C 0.94274 0.4805 0.90495 0.0
C506 C 0.86436 0.43867 0.00804 0.0
C507 C 0.85188 0.40483 0.01647 0.0
C508 C 0.88929 0.45383 0.98717 0.0
C509 C 0.90216 0.43544 0.97396 0.0
C510 C 0.88953 0.40155 0.98239 0.0
C511 C 0.86489 0.38652 0.00344 0.0
H512 H 0.50676 0.97546 0.06537 0.0
H513 H 0.56282 0.9246 0.05977 0.0
H514 H 0.48014 0.94426 0.10895 0.0
H515 H 0.53522 0.89226 0.10237 0.0
H516 H 0.48468 0.84244 0.18563 0.0
H517 H 0.52225 0.88619 0.15186 0.0
H518 H 0.43713 0.88623 0.11489 0.0
H519 H 0.40015 0.84369 0.14871 0.0
C520 C 0.51412 0.95837 0.07392 0.0
C521 C 0.53646 0.95208 0.059 0.0
C522 C 0.49851 0.94005 0.09863 0.0
C523 C 0.5048 0.91498 0.10876 0.0
C524 C 0.52965 0.91123 0.09528 0.0
C525 C 0.54538 0.92968 0.07075 0.0
C526 C 0.47406 0.85183 0.17024 0.0
C527 C 0.43935 0.83947 0.16992 0.0
C528 C 0.49561 0.87698 0.15095 0.0
C529 C 0.48285 0.89016 0.13085 0.0
C530 C 0.44811 0.87753 0.13053 0.0
C531 C 0.42672 0.85268 0.14979 0.0
H532 H 0.56062 0.49306 0.22456 0.0
H533 H 0.6654 0.57049 0.23202 0.0
H534 H 0.56476 0.46557 0.26722 0.0
H535 H 0.66958 0.54426 0.27571 0.0
H536 H 0.6757 0.45935 0.3233 0.0
H537 H 0.67242 0.49643 0.28789 0.0
H538 H 0.57139 0.46365 0.31572 0.0
H539 H 0.57423 0.42541 0.34964 0.0
C540 C 0.58417 0.50496 0.23615 0.0
C541 C 0.6126 0.53391 0.22525 0.0
C542 C 0.5867 0.48923 0.26063 0.0
C543 C 0.6177 0.50238 0.27493 0.0
C544 C 0.64553 0.53288 0.26499 0.0
C545 C 0.64306 0.54828 0.24026 0.0
C546 C 0.65302 0.46046 0.32192 0.0
C547 C 0.62506 0.43917 0.33881 0.0
C548 C 0.6511 0.48186 0.30176 0.0
C549 C 0.62139 0.48286 0.29856 0.0
C550 C 0.59429 0.46295 0.31686 0.0
C551 C 0.59598 0.44114 0.33646 0.0
H552 H 0.45245 0.97293 0.39969 0.0
H553 H 0.50152 0.91922 0.42557 0.0
H554 H 0.43595 0.9413 0.35496 0.0
H555 H 0.48397 0.88659 0.38183 0.0
H556 H 0.45751 0.83824 0.29558 0.0
H557 H 0.48499 0.88107 0.33247 0.0
H558 H 0.39435 0.88438 0.34318 0.0
H559 H 0.36738 0.84257 0.30549 0.0
C560 C 0.46062 0.95515 0.39538 0.0
C561 C 0.47805 0.94834 0.4161 0.0
C562 C 0.45064 0.93652 0.37002 0.0
C563 C 0.45783 0.91068 0.365 0.0
C564 C 0.47795 0.90622 0.38475 0.0
C565 C 0.48805 0.92493 0.40991 0.0
C566 C 0.44338 0.84802 0.30587 0.0
C567 C 0.4101 0.83673 0.29769 0.0
C568 C 0.4592 0.87268 0.32704 0.0
C569 C 0.44204 0.88644 0.34084 0.0
C570 C 0.40871 0.87505 0.33264 0.0
C571 C 0.39302 0.85067 0.31125 0.0
H572 H 0.48904 0.4183 0.56738 0.0
H573 H 0.59168 0.49536 0.58554 0.0
H574 H 0.50662 0.40415 0.52361 0.0
H575 H 0.60964 0.48301 0.54069 0.0
H576 H 0.63506 0.41762 0.48452 0.0
H577 H 0.61844 0.44102 0.52326 0.0
H578 H 0.52689 0.41444 0.47812 0.0
H579 H 0.54264 0.38921 0.44058 0.0
C580 C 0.51521 0.4334 0.56113 0.0
C581 C 0.53895 0.45821 0.57947 0.0
C582 C 0.52548 0.42525 0.53603 0.0
C583 C 0.55978 0.44204 0.52854 0.0
C584 C 0.58316 0.46886 0.54598 0.0
C585 C 0.57288 0.47654 0.57137 0.0
C586 C 0.61136 0.41675 0.48303 0.0
C587 C 0.58991 0.40104 0.45978 0.0
C588 C 0.60192 0.43055 0.50509 0.0
C589 C 0.57113 0.42969 0.50408 0.0
C590 C 0.55033 0.41494 0.48019 0.0
C591 C 0.55941 0.40047 0.45855 0.0
H592 H 0.12032 0.47796 0.75153 0.0
H593 H 0.09592 0.55639 0.75701 0.0
H594 H 0.15016 0.50212 0.70701 0.0
H595 H 0.12706 0.58185 0.71349 0.0
H596 H 0.17495 0.6179 0.62969 0.0
H597 H 0.13387 0.58132 0.66488 0.0
H598 H 0.20168 0.54909 0.69319 0.0
H599 H 0.2419 0.58438 0.65654 0.0
C600 C 0.12082 0.50002 0.74275 0.0
C601 C 0.10572 0.51526 0.75743 0.0
C602 C 0.1383 0.51419 0.71751 0.0
C603 C 0.1416 0.54432 0.7067 0.0
C604 C 0.12479 0.5584 0.72076 0.0
C605 C 0.10686 0.54387 0.74575 0.0
C606 C 0.18083 0.60262 0.64325 0.0
C607 C 0.21173 0.60422 0.6407 0.0
C608 C 0.15735 0.58178 0.66357 0.0
C609 C 0.1645 0.56257 0.68237 0.0
C610 C 0.19498 0.56315 0.67896 0.0
C611 C 0.21822 0.58352 0.6581 0.0
H612 H 0.63096 0.0857 0.90662 0.0
H613 H 0.55207 0.10794 0.91569 0.0
H614 H 0.64991 0.11941 0.86342 0.0
H615 H 0.56938 0.14011 0.87134 0.0
H616 H 0.63824 0.23442 0.81826 0.0
H617 H 0.61245 0.19317 0.85658 0.0
H618 H 0.64458 0.12989 0.81662 0.0
H619 H 0.67198 0.17213 0.77951 0.0
C620 C 0.61667 0.09649 0.89846 0.0
C621 C 0.58988 0.09398 0.91415 0.0
C622 C 0.62757 0.11602 0.8737 0.0
C623 C 0.61158 0.13314 0.86389 0.0
C624 C 0.58296 0.12819 0.87855 0.0
C625 C 0.57251 0.10917 0.90362 0.0
C626 C 0.63988 0.21175 0.81783 0.0
C627 C 0.65757 0.2068 0.79611 0.0
C628 C 0.62472 0.18778 0.83963 0.0
C629 C 0.62623 0.15789 0.83987 0.0
C630 C 0.64338 0.15277 0.81767 0.0
C631 C 0.65911 0.17705 0.79628 0.0
H632 H 0.57173 0.60477 0.06287 0.0
H633 H 0.47142 0.56293 0.09591 0.0
H634 H 0.55398 0.6174 0.01796 0.0
H635 H 0.45382 0.5765 0.05176 0.0
H636 H 0.42748 0.59685 0.96468 0.0
H637 H 0.44275 0.5708 0.00224 0.0
H638 H 0.54208 0.66075 0.0061 0.0
H639 H 0.52719 0.68629 0.96809 0.0
C640 C 0.5456 0.59714 0.06011 0.0
C641 C 0.52298 0.58305 0.08283 0.0
C642 C 0.53552 0.60494 0.03462 0.0
C643 C 0.50267 0.59884 0.03146 0.0
C644 C 0.47927 0.58161 0.05328 0.0
C645 C 0.48932 0.57374 0.07864 0.0
C646 C 0.45256 0.61112 0.9736 0.0
C647 C 0.47604 0.64378 0.9634 0.0
C648 C 0.46135 0.59611 0.99511 0.0
C649 C 0.49378 0.61347 0.0071 0.0
C650 C 0.51715 0.6462 0.99695 0.0
C651 C 0.50845 0.66108 0.97534 0.0
H652 H 0.93601 0.55843 0.25494 0.0
H653 H 0.98329 0.49877 0.25037 0.0
H654 H 0.90369 0.53067 0.21238 0.0
H655 H 0.95213 0.472 0.20686 0.0
H656 H 0.85237 0.3931 0.16644 0.0
H657 H 0.89417 0.42977 0.20081 0.0
H658 H 0.89804 0.51732 0.16277 0.0
H659 H 0.8551 0.48011 0.12839 0.0
C660 C 0.94027 0.54012 0.24423 0.0
C661 C 0.9617 0.5303 0.25624 0.0
C662 C 0.92185 0.5243 0.21972 0.0
C663 C 0.92465 0.49846 0.20654 0.0
C664 C 0.94869 0.49116 0.21695 0.0
C665 C 0.96698 0.50686 0.24163 0.0
C666 C 0.86204 0.42016 0.16526 0.0
C667 C 0.85024 0.4336 0.14461 0.0
C668 C 0.88645 0.44133 0.18485 0.0
C669 C 0.90002 0.47665 0.18434 0.0
C670 C 0.8881 0.49021 0.16382 0.0
C671 C 0.86341 0.46889 0.14418 0.0
loop_
_geom_bond_atom_site_label_1
_geom_bond_atom_site_label_2
_geom_bond_distance
_geom_bond_site_symmetry_2
_ccdc_geom_bond_type
H0 C6 0.930 . S
H1 C9 0.931 . S
H2 C11 0.931 . S
H3 C13 0.930 . S
H4 C15 0.930 . S
H5 C17 0.931 1_455 S
C6 H0 0.930 . S
C6 C7 1.380 . S
C6 C8 1.394 . S
C7 C6 1.380 . S
C7 C11 1.382 . S
C8 C6 1.394 . S
C8 C9 1.400 . S
C9 H1 0.931 . S
C9 C8 1.400 . S
C9 C10 1.375 . S
C10 C9 1.375 . S
C10 C11 1.415 . S
C10 C12 1.501 1_455 S
C11 H2 0.931 . S
C11 C7 1.382 . S
C11 C10 1.415 . S
C12 C10 1.501 1_655 S
C12 C13 1.384 . S
C12 C17 1.408 . S
C13 H3 0.930 . S
C13 C12 1.384 . S
C13 C14 1.389 . S
C14 C13 1.389 . S
C14 C15 1.405 . S
C15 H4 0.930 . S
C15 C14 1.405 . S
C15 C16 1.364 . S
C16 C15 1.364 . S
C16 C17 1.400 . S
C17 H5 0.931 1_655 S
C17 C12 1.408 . S
C17 C16 1.400 . S
H18 C24 0.930 . S
H19 C27 0.931 . S
H20 C29 0.931 . S
H21 C31 0.930 . S
H22 C33 0.930 . S
H23 C35 0.924 1_545 S
C24 H18 0.930 . S
C24 C25 1.380 . S
C24 C26 1.394 . S
C25 C24 1.380 . S
C25 C29 1.382 . S
C26 C24 1.394 . S
C26 C27 1.400 . S
C27 H19 0.931 . S
C27 C26 1.400 . S
C27 C28 1.375 . S
C28 C27 1.375 . S
C28 C29 1.415 . S
C28 C30 1.501 1_545 S
C29 H20 0.931 . S
C29 C25 1.382 . S
C29 C28 1.415 . S
C30 C28 1.501 1_565 S
C30 C31 1.384 . S
C30 C35 1.408 . S
C31 H21 0.930 . S
C31 C30 1.384 . S
C31 C32 1.389 . S
C32 C31 1.389 . S
C32 C33 1.405 . S
C33 H22 0.930 . S
C33 C32 1.405 . S
C33 C34 1.364 . S
C34 C33 1.364 . S
C34 C35 1.400 . S
C35 H23 0.924 1_565 S
C35 C30 1.408 . S
C35 C34 1.400 . S
H36 C42 0.930 . S
H37 C45 0.931 . S
H38 C47 0.931 . S
H39 C49 0.930 . S
H40 C51 0.930 . S
H41 C53 0.931 . S
C42 H36 0.930 . S
C42 C43 1.380 . S
C42 C44 1.394 . S
C43 C42 1.380 . S
C43 C47 1.382 . S
C44 C42 1.394 . S
C44 C45 1.400 . S
C45 H37 0.931 . S
C45 C44 1.400 . S
C45 C46 1.375 . S
C46 C45 1.375 . S
C46 C47 1.415 . S
C46 C48 1.501 . S
C47 H38 0.931 . S
C47 C43 1.382 . S
C47 C46 1.415 . S
C48 C46 1.501 . S
C48 C49 1.384 . S
C48 C53 1.408 . S
C49 H39 0.930 . S
C49 C48 1.384 . S
C49 C50 1.389 . S
C50 C49 1.389 . S
C50 C51 1.405 . S
C51 H40 0.930 . S
C51 C50 1.405 . S
C51 C52 1.364 . S
C52 C51 1.364 . S
C52 C53 1.400 . S
C53 H41 0.931 . S
C53 C48 1.408 . S
C53 C52 1.400 . S
H54 C60 0.930 . S
H55 C63 0.931 . S
H56 C65 0.931 . S
H57 C67 0.930 . S
H58 C69 0.930 . S
H59 C71 0.934 . S
C60 H54 0.930 . S
C60 C61 1.380 . S
C60 C62 1.394 . S
C61 C60 1.380 . S
C61 C65 1.382 . S
C62 C60 1.394 . S
C62 C63 1.400 . S
C63 H55 0.931 . S
C63 C62 1.400 . S
C63 C64 1.375 . S
C64 C63 1.375 . S
C64 C65 1.415 . S
C64 C66 1.501 1_455 S
C65 H56 0.931 . S
C65 C61 1.382 . S
C65 C64 1.415 . S
C66 C64 1.501 1_655 S
C66 C67 1.384 . S
C66 C71 1.408 . S
C67 H57 0.930 . S
C67 C66 1.384 . S
C67 C68 1.389 . S
C68 C67 1.389 . S
C68 C69 1.405 . S
C69 H58 0.930 . S
C69 C68 1.405 . S
C69 C70 1.364 . S
C70 C69 1.364 . S
C70 C71 1.400 . S
C71 H59 0.934 . S
C71 C66 1.408 . S
C71 C70 1.400 . S
H72 C78 0.930 . S
H73 C81 0.931 . S
H74 C83 0.931 . S
H75 C85 0.930 . S
H76 C87 0.930 . S
H77 C89 0.931 . S
C78 H72 0.930 . S
C78 C79 1.380 . S
C78 C80 1.394 1_554 S
C79 C78 1.380 . S
C79 C83 1.382 . S
C80 C78 1.394 1_556 S
C80 C81 1.400 . S
C81 H73 0.931 . S
C81 C80 1.400 . S
C81 C82 1.375 . S
C82 C81 1.375 . S
C82 C83 1.415 1_556 S
C82 C84 1.501 1_565 S
C83 H74 0.931 . S
C83 C79 1.382 . S
C83 C82 1.415 1_554 S
C84 C82 1.501 1_545 S
C84 C85 1.384 1_556 S
C84 C89 1.408 . S
C85 H75 0.930 . S
C85 C84 1.384 1_554 S
C85 C86 1.389 1_554 S
C86 C85 1.389 1_556 S
C86 C87 1.405 . S
C87 H76 0.930 . S
C87 C86 1.405 . S
C87 C88 1.364 . S
C88 C87 1.364 . S
C88 C89 1.400 . S
C89 H77 0.931 . S
C89 C84 1.408 . S
C89 C88 1.400 . S
H90 C96 0.930 . S
H91 C99 0.931 . S
H92 C101 0.931 . S
H93 C103 0.930 . S
H94 C105 0.930 . S
H95 C107 0.931 . S
C96 H90 0.930 . S
C96 C97 1.380 . S
C96 C98 1.394 . S
C97 C96 1.380 . S
C97 C101 1.382 . S
C98 C96 1.394 . S
C98 C99 1.400 . S
C99 H91 0.931 . S
C99 C98 1.400 . S
C99 C100 1.375 . S
C100 C99 1.375 . S
C100 C101 1.415 . S
C100 C102 1.501 . S
C101 H92 0.931 . S
C101 C97 1.382 . S
C101 C100 1.415 . S
C102 C100 1.501 . S
C102 C103 1.384 . S
C102 C107 1.408 . S
C103 H93 0.930 . S
C103 C102 1.384 . S
C103 C104 1.389 . S
C104 C103 1.389 . S
C104 C105 1.405 . S
C105 H94 0.930 . S
C105 C104 1.405 . S
C105 C106 1.364 . S
C106 C105 1.364 . S
C106 C107 1.400 . S
C107 H95 0.931 . S
C107 C102 1.408 . S
C107 C106 1.400 . S
Co108 O109 2.216 . S
Co108 O110 2.091 . S
Co108 O112 2.004 . S
Co108 O118 2.021 . S
Co108 O120 2.137 . S
Co108 O121 2.244 . S
O109 Co108 2.216 . S
O109 C116 1.247 . S
O110 Co108 2.091 . S
O110 C116 1.261 . S
C111 O120 1.247 . S
C111 O121 1.272 . S
O112 Co108 2.004 . S
O112 C117 1.259 . S
Co113 O114 2.061 . S
Co113 O119 2.052 . S
Co113 O121 2.135 . S
O114 Co113 2.061 . S
O114 C117 1.235 . S
C115 O118 1.238 . S
C115 O119 1.241 . S
C116 O109 1.247 . S
C116 O110 1.261 . S
C117 O112 1.259 . S
C117 O114 1.235 . S
O118 Co108 2.021 . S
O118 C115 1.238 . S
O119 Co113 2.052 . S
O119 C115 1.241 . S
O120 Co108 2.137 . S
O120 C111 1.247 . S
O121 Co108 2.244 . S
O121 C111 1.272 . S
O121 Co113 2.135 . S
Co122 O123 2.216 . S
Co122 O124 2.091 . S
Co122 O126 2.004 . S
Co122 O132 2.021 . S
Co122 O134 2.137 . S
Co122 O135 2.244 . S
O123 Co122 2.216 . S
O123 C130 1.247 . S
O124 Co122 2.091 . S
O124 C130 1.261 . S
C125 O134 1.247 . S
C125 O135 1.272 . S
O126 Co122 2.004 . S
O126 C131 1.259 . S
Co127 O128 2.061 . S
Co127 O133 2.052 . S
Co127 O135 2.135 . S
O128 Co127 2.061 . S
O128 C131 1.235 . S
C129 O132 1.238 . S
C129 O133 1.241 . S
C130 O123 1.247 . S
C130 O124 1.261 . S
C131 O126 1.259 . S
C131 O128 1.235 . S
O132 Co122 2.021 . S
O132 C129 1.238 . S
O133 Co127 2.052 . S
O133 C129 1.241 . S
O134 Co122 2.137 . S
O134 C125 1.247 . S
O135 Co122 2.244 . S
O135 C125 1.272 . S
O135 Co127 2.135 . S
Co136 O137 2.216 . S
Co136 O138 2.091 . S
Co136 O140 2.004 . S
Co136 O146 2.021 . S
Co136 O148 2.137 . S
Co136 O149 2.244 . S
O137 Co136 2.216 . S
O137 C144 1.247 . S
O138 Co136 2.091 . S
O138 C144 1.261 . S
C139 O148 1.247 . S
C139 O149 1.272 . S
O140 Co136 2.004 . S
O140 C145 1.259 . S
Co141 O142 2.061 . S
Co141 O147 2.052 . S
Co141 O149 2.135 . S
O142 Co141 2.061 . S
O142 C145 1.235 . S
C143 O146 1.238 . S
C143 O147 1.241 . S
C144 O137 1.247 . S
C144 O138 1.261 . S
C145 O140 1.259 . S
C145 O142 1.235 . S
O146 Co136 2.021 . S
O146 C143 1.238 . S
O147 Co141 2.052 . S
O147 C143 1.241 . S
O148 Co136 2.137 . S
O148 C139 1.247 . S
O149 Co136 2.244 . S
O149 C139 1.272 . S
O149 Co141 2.135 . S
Co150 O151 2.216 . S
Co150 O152 2.091 . S
Co150 O154 2.004 . S
Co150 O160 2.021 . S
Co150 O162 2.137 . S
Co150 O163 2.244 . S
O151 Co150 2.216 . S
O151 C158 1.247 . S
O152 Co150 2.091 . S
O152 C158 1.261 . S
C153 O162 1.247 . S
C153 O163 1.272 . S
O154 Co150 2.004 . S
O154 C159 1.259 . S
Co155 O156 2.061 . S
Co155 O161 2.052 . S
Co155 O163 2.135 . S
O156 Co155 2.061 . S
O156 C159 1.235 . S
C157 O160 1.238 . S
C157 O161 1.241 . S
C158 O151 1.247 . S
C158 O152 1.261 . S
C159 O154 1.259 . S
C159 O156 1.235 . S
O160 Co150 2.021 . S
O160 C157 1.238 . S
O161 Co155 2.052 . S
O161 C157 1.241 . S
O162 Co150 2.137 . S
O162 C153 1.247 . S
O163 Co150 2.244 . S
O163 C153 1.272 . S
O163 Co155 2.135 . S
Co164 O165 2.216 . S
Co164 O166 2.091 . S
Co164 O168 2.004 . S
Co164 O174 2.021 . S
Co164 O176 2.137 . S
Co164 O177 2.244 . S
O165 Co164 2.216 . S
O165 C172 1.247 . S
O166 Co164 2.091 . S
O166 C172 1.261 . S
C167 O176 1.247 . S
C167 O177 1.272 . S
O168 Co164 2.004 . S
O168 C173 1.259 . S
Co169 O170 2.061 . S
Co169 O175 2.052 . S
Co169 O177 2.135 . S
O170 Co169 2.061 . S
O170 C173 1.235 . S
C171 O174 1.238 . S
C171 O175 1.241 . S
C172 O165 1.247 . S
C172 O166 1.261 . S
C173 O168 1.259 . S
C173 O170 1.235 . S
O174 Co164 2.021 . S
O174 C171 1.238 . S
O175 Co169 2.052 . S
O175 C171 1.241 . S
O176 Co164 2.137 . S
O176 C167 1.247 . S
O177 Co164 2.244 . S
O177 C167 1.272 . S
O177 Co169 2.135 . S
Co178 O179 2.216 . S
Co178 O180 2.091 . S
Co178 O182 2.004 . S
Co178 O188 2.021 . S
Co178 O190 2.137 . S
Co178 O191 2.244 . S
O179 Co178 2.216 . S
O179 C186 1.247 . S
O180 Co178 2.091 . S
O180 C186 1.261 . S
C181 O190 1.247 . S
C181 O191 1.272 . S
O182 Co178 2.004 . S
O182 C187 1.259 . S
Co183 O184 2.061 . S
Co183 O189 2.052 . S
Co183 O191 2.135 . S
O184 Co183 2.061 . S
O184 C187 1.235 . S
C185 O188 1.238 . S
C185 O189 1.241 . S
C186 O179 1.247 . S
C186 O180 1.261 . S
C187 O182 1.259 . S
C187 O184 1.235 . S
O188 Co178 2.021 . S
O188 C185 1.238 . S
O189 Co183 2.052 . S
O189 C185 1.241 . S
O190 Co178 2.137 . S
O190 C181 1.247 . S
O191 Co178 2.244 . S
O191 C181 1.272 . S
O191 Co183 2.135 . S
H192 C200 0.950 . S
H193 C205 0.950 . S
H194 C202 0.950 . S
H195 C204 0.950 . S
H196 C206 0.950 . S
H197 C208 0.950 . S
H198 C210 0.950 . S
H199 C211 0.950 . S
C200 H192 0.950 . S
C200 C201 1.386 . S
C200 C202 1.391 . S
C201 C200 1.386 . S
C201 C205 1.393 . S
C202 H194 0.950 . S
C202 C200 1.391 . S
C202 C203 1.400 . S
C203 C202 1.400 . S
C203 C204 1.398 . S
C203 C209 1.491 . S
C204 H195 0.950 . S
C204 C203 1.398 . S
C204 C205 1.391 . S
C205 H193 0.950 . S
C205 C201 1.393 . S
C205 C204 1.391 . S
C206 H196 0.950 . S
C206 C207 1.386 . S
C206 C208 1.391 . S
C207 C206 1.386 . S
C207 C211 1.393 . S
C208 H197 0.950 . S
C208 C206 1.391 . S
C208 C209 1.400 . S
C209 C203 1.491 . S
C209 C208 1.400 . S
C209 C210 1.398 . S
C210 H198 0.950 . S
C210 C209 1.398 . S
C210 C211 1.391 . S
C211 H199 0.950 . S
C211 C207 1.393 . S
C211 C210 1.391 . S
H212 C220 0.950 . S
H213 C225 0.950 . S
H214 C222 0.950 . S
H215 C224 0.950 . S
H216 C226 0.950 . S
H217 C228 0.950 . S
H218 C230 0.950 . S
H219 C231 0.950 . S
C220 H212 0.950 . S
C220 C221 1.386 . S
C220 C222 1.391 . S
C221 C220 1.386 . S
C221 C225 1.393 . S
C222 H214 0.950 . S
C222 C220 1.391 . S
C222 C223 1.400 . S
C223 C222 1.400 . S
C223 C224 1.398 . S
C223 C229 1.491 . S
C224 H215 0.950 . S
C224 C223 1.398 . S
C224 C225 1.391 . S
C225 H213 0.950 . S
C225 C221 1.393 . S
C225 C224 1.391 . S
C226 H216 0.950 . S
C226 C227 1.386 . S
C226 C228 1.391 . S
C227 C226 1.386 . S
C227 C231 1.393 . S
C228 H217 0.950 . S
C228 C226 1.391 . S
C228 C229 1.400 . S
C229 C223 1.491 . S
C229 C228 1.400 . S
C229 C230 1.398 . S
C230 H218 0.950 . S
C230 C229 1.398 . S
C230 C231 1.391 . S
C231 H219 0.950 . S
C231 C227 1.393 . S
C231 C230 1.391 . S
H232 C240 0.950 . S
H233 C245 0.950 . S
H234 C242 0.950 . S
H235 C244 0.950 . S
H236 C246 0.950 . S
H237 C248 0.950 . S
H238 C250 0.950 . S
H239 C251 0.950 . S
C240 H232 0.950 . S
C240 C241 1.386 . S
C240 C242 1.391 . S
C241 C240 1.386 . S
C241 C245 1.393 . S
C242 H234 0.950 . S
C242 C240 1.391 . S
C242 C243 1.400 . S
C243 C242 1.400 . S
C243 C244 1.398 . S
C243 C249 1.491 . S
C244 H235 0.950 . S
C244 C243 1.398 . S
C244 C245 1.391 . S
C245 H233 0.950 . S
C245 C241 1.393 . S
C245 C244 1.391 . S
C246 H236 0.950 . S
C246 C247 1.386 . S
C246 C248 1.391 . S
C247 C246 1.386 . S
C247 C251 1.393 . S
C248 H237 0.950 . S
C248 C246 1.391 . S
C248 C249 1.400 . S
C249 C243 1.491 . S
C249 C248 1.400 . S
C249 C250 1.398 . S
C250 H238 0.950 . S
C250 C249 1.398 . S
C250 C251 1.391 . S
C251 H239 0.950 . S
C251 C247 1.393 . S
C251 C250 1.391 . S
H252 C260 0.950 . S
H253 C265 0.950 . S
H254 C262 0.950 . S
H255 C264 0.950 . S
H256 C266 0.950 . S
H257 C268 0.950 . S
H258 C270 0.950 . S
H259 C271 0.950 . S
C260 H252 0.950 . S
C260 C261 1.386 . S
C260 C262 1.391 . S
C261 C260 1.386 . S
C261 C265 1.393 . S
C262 H254 0.950 . S
C262 C260 1.391 . S
C262 C263 1.400 . S
C263 C262 1.400 . S
C263 C264 1.398 . S
C263 C269 1.491 . S
C264 H255 0.950 . S
C264 C263 1.398 . S
C264 C265 1.391 . S
C265 H253 0.950 . S
C265 C261 1.393 . S
C265 C264 1.391 . S
C266 H256 0.950 . S
C266 C267 1.386 . S
C266 C268 1.391 . S
C267 C266 1.386 . S
C267 C271 1.393 . S
C268 H257 0.950 . S
C268 C266 1.391 . S
C268 C269 1.400 . S
C269 C263 1.491 . S
C269 C268 1.400 . S
C269 C270 1.398 . S
C270 H258 0.950 . S
C270 C269 1.398 . S
C270 C271 1.391 . S
C271 H259 0.950 . S
C271 C267 1.393 . S
C271 C270 1.391 . S
H272 C280 0.950 . S
H273 C285 0.950 1_554 S
H274 C282 0.950 . S
H275 C284 0.950 . S
H276 C286 0.950 . S
H277 C288 0.950 . S
H278 C290 0.950 . S
H279 C291 0.950 . S
C280 H272 0.950 . S
C280 C281 1.386 . S
C280 C282 1.391 . S
C281 C280 1.386 . S
C281 C285 1.393 . S
C282 H274 0.950 . S
C282 C280 1.391 . S
C282 C283 1.400 . S
C283 C282 1.400 . S
C283 C284 1.398 . S
C283 C289 1.491 . S
C284 H275 0.950 . S
C284 C283 1.398 . S
C284 C285 1.391 . S
C285 H273 0.950 1_556 S
C285 C281 1.393 . S
C285 C284 1.391 . S
C286 H276 0.950 . S
C286 C287 1.386 . S
C286 C288 1.391 . S
C287 C286 1.386 . S
C287 C291 1.393 . S
C288 H277 0.950 . S
C288 C286 1.391 . S
C288 C289 1.400 . S
C289 C283 1.491 . S
C289 C288 1.400 . S
C289 C290 1.398 . S
C290 H278 0.950 . S
C290 C289 1.398 . S
C290 C291 1.391 . S
C291 H279 0.950 . S
C291 C287 1.393 . S
C291 C290 1.391 . S
H292 C300 0.950 . S
H293 C305 0.950 . S
H294 C302 0.950 . S
H295 C304 0.950 . S
H296 C306 0.950 . S
H297 C308 0.950 . S
H298 C310 0.950 . S
H299 C311 0.950 . S
C300 H292 0.950 . S
C300 C301 1.386 . S
C300 C302 1.391 . S
C301 C300 1.386 . S
C301 C305 1.393 . S
C302 H294 0.950 . S
C302 C300 1.391 . S
C302 C303 1.400 . S
C303 C302 1.400 . S
C303 C304 1.398 . S
C303 C309 1.491 . S
C304 H295 0.950 . S
C304 C303 1.398 . S
C304 C305 1.391 . S
C305 H293 0.950 . S
C305 C301 1.393 . S
C305 C304 1.391 . S
C306 H296 0.950 . S
C306 C307 1.386 . S
C306 C308 1.391 . S
C307 C306 1.386 . S
C307 C311 1.393 . S
C308 H297 0.950 . S
C308 C306 1.391 . S
C308 C309 1.400 . S
C309 C303 1.491 . S
C309 C308 1.400 . S
C309 C310 1.398 . S
C310 H298 0.950 . S
C310 C309 1.398 . S
C310 C311 1.391 . S
C311 H299 0.950 . S
C311 C307 1.393 . S
C311 C310 1.391 . S
H312 C320 0.950 . S
H313 C325 0.950 . S
H314 C322 0.950 . S
H315 C324 0.950 . S
H316 C326 0.950 . S
H317 C328 0.950 . S
H318 C330 0.950 . S
H319 C331 0.950 . S
C320 H312 0.950 . S
C320 C321 1.386 . S
C320 C322 1.391 . S
C321 C320 1.386 . S
C321 C325 1.393 . S
C322 H314 0.950 . S
C322 C320 1.391 . S
C322 C323 1.400 . S
C323 C322 1.400 . S
C323 C324 1.398 . S
C323 C329 1.491 . S
C324 H315 0.950 . S
C324 C323 1.398 . S
C324 C325 1.391 . S
C325 H313 0.950 . S
C325 C321 1.393 . S
C325 C324 1.391 . S
C326 H316 0.950 . S
C326 C327 1.386 . S
C326 C328 1.391 . S
C327 C326 1.386 . S
C327 C331 1.393 . S
C328 H317 0.950 . S
C328 C326 1.391 . S
C328 C329 1.400 . S
C329 C323 1.491 . S
C329 C328 1.400 . S
C329 C330 1.398 . S
C330 H318 0.950 . S
C330 C329 1.398 . S
C330 C331 1.391 . S
C331 H319 0.950 . S
C331 C327 1.393 . S
C331 C330 1.391 . S
H332 C340 0.950 . S
H333 C345 0.950 . S
H334 C342 0.950 . S
H335 C344 0.950 . S
H336 C346 0.950 . S
H337 C348 0.950 . S
H338 C350 0.950 . S
H339 C351 0.950 . S
C340 H332 0.950 . S
C340 C341 1.386 . S
C340 C342 1.391 . S
C341 C340 1.386 . S
C341 C345 1.393 . S
C342 H334 0.950 . S
C342 C340 1.391 . S
C342 C343 1.400 . S
C343 C342 1.400 . S
C343 C344 1.398 . S
C343 C349 1.491 . S
C344 H335 0.950 . S
C344 C343 1.398 . S
C344 C345 1.391 . S
C345 H333 0.950 . S
C345 C341 1.393 . S
C345 C344 1.391 . S
C346 H336 0.950 . S
C346 C347 1.386 . S
C346 C348 1.391 . S
C347 C346 1.386 . S
C347 C351 1.393 . S
C348 H337 0.950 . S
C348 C346 1.391 . S
C348 C349 1.400 . S
C349 C343 1.491 . S
C349 C348 1.400 . S
C349 C350 1.398 . S
C350 H338 0.950 . S
C350 C349 1.398 . S
C350 C351 1.391 . S
C351 H339 0.950 . S
C351 C347 1.393 . S
C351 C350 1.391 . S
H352 C360 0.950 . S
H353 C365 0.950 . S
H354 C362 0.950 . S
H355 C364 0.950 . S
H356 C366 0.950 . S
H357 C368 0.950 . S
H358 C370 0.950 . S
H359 C371 0.950 . S
C360 H352 0.950 . S
C360 C361 1.386 . S
C360 C362 1.391 . S
C361 C360 1.386 . S
C361 C365 1.393 . S
C362 H354 0.950 . S
C362 C360 1.391 . S
C362 C363 1.400 . S
C363 C362 1.400 . S
C363 C364 1.398 . S
C363 C369 1.491 . S
C364 H355 0.950 . S
C364 C363 1.398 . S
C364 C365 1.391 . S
C365 H353 0.950 . S
C365 C361 1.393 . S
C365 C364 1.391 . S
C366 H356 0.950 . S
C366 C367 1.386 . S
C366 C368 1.391 . S
C367 C366 1.386 . S
C367 C371 1.393 . S
C368 H357 0.950 . S
C368 C366 1.391 . S
C368 C369 1.400 . S
C369 C363 1.491 . S
C369 C368 1.400 . S
C369 C370 1.398 . S
C370 H358 0.950 . S
C370 C369 1.398 . S
C370 C371 1.391 . S
C371 H359 0.950 . S
C371 C367 1.393 . S
C371 C370 1.391 . S
H372 C380 0.950 . S
H373 C385 0.950 . S
H374 C382 0.950 . S
H375 C384 0.950 . S
H376 C386 0.950 . S
H377 C388 0.950 . S
H378 C390 0.950 . S
H379 C391 0.950 . S
C380 H372 0.950 . S
C380 C381 1.386 . S
C380 C382 1.391 . S
C381 C380 1.386 . S
C381 C385 1.393 . S
C382 H374 0.950 . S
C382 C380 1.391 . S
C382 C383 1.400 . S
C383 C382 1.400 . S
C383 C384 1.398 . S
C383 C389 1.491 . S
C384 H375 0.950 . S
C384 C383 1.398 . S
C384 C385 1.391 . S
C385 H373 0.950 . S
C385 C381 1.393 . S
C385 C384 1.391 . S
C386 H376 0.950 . S
C386 C387 1.386 . S
C386 C388 1.391 . S
C387 C386 1.386 . S
C387 C391 1.393 . S
C388 H377 0.950 . S
C388 C386 1.391 . S
C388 C389 1.400 . S
C389 C383 1.491 . S
C389 C388 1.400 . S
C389 C390 1.398 . S
C390 H378 0.950 . S
C390 C389 1.398 . S
C390 C391 1.391 . S
C391 H379 0.950 . S
C391 C387 1.393 . S
C391 C390 1.391 . S
H392 C400 0.950 . S
H393 C405 0.950 . S
H394 C402 0.950 . S
H395 C404 0.950 . S
H396 C406 0.950 . S
H397 C408 0.950 . S
H398 C410 0.950 . S
H399 C411 0.950 . S
C400 H392 0.950 . S
C400 C401 1.386 . S
C400 C402 1.391 . S
C401 C400 1.386 . S
C401 C405 1.393 . S
C402 H394 0.950 . S
C402 C400 1.391 . S
C402 C403 1.400 . S
C403 C402 1.400 . S
C403 C404 1.398 . S
C403 C409 1.491 . S
C404 H395 0.950 . S
C404 C403 1.398 . S
C404 C405 1.391 . S
C405 H393 0.950 . S
C405 C401 1.393 . S
C405 C404 1.391 . S
C406 H396 0.950 . S
C406 C407 1.386 . S
C406 C408 1.391 . S
C407 C406 1.386 . S
C407 C411 1.393 . S
C408 H397 0.950 . S
C408 C406 1.391 . S
C408 C409 1.400 . S
C409 C403 1.491 . S
C409 C408 1.400 . S
C409 C410 1.398 . S
C410 H398 0.950 . S
C410 C409 1.398 . S
C410 C411 1.391 . S
C411 H399 0.950 . S
C411 C407 1.393 . S
C411 C410 1.391 . S
H412 C420 0.950 . S
H413 C425 0.950 . S
H414 C422 0.950 . S
H415 C424 0.950 . S
H416 C426 0.950 . S
H417 C428 0.950 . S
H418 C430 0.950 . S
H419 C431 0.950 . S
C420 H412 0.950 . S
C420 C421 1.386 . S
C420 C422 1.391 . S
C421 C420 1.386 . S
C421 C425 1.393 . S
C422 H414 0.950 . S
C422 C420 1.391 . S
C422 C423 1.400 . S
C423 C422 1.400 . S
C423 C424 1.398 . S
C423 C429 1.491 . S
C424 H415 0.950 . S
C424 C423 1.398 . S
C424 C425 1.391 . S
C425 H413 0.950 . S
C425 C421 1.393 . S
C425 C424 1.391 . S
C426 H416 0.950 . S
C426 C427 1.386 . S
C426 C428 1.391 . S
C427 C426 1.386 . S
C427 C431 1.393 . S
C428 H417 0.950 . S
C428 C426 1.391 . S
C428 C429 1.400 . S
C429 C423 1.491 . S
C429 C428 1.400 . S
C429 C430 1.398 . S
C430 H418 0.950 . S
C430 C429 1.398 . S
C430 C431 1.391 . S
C431 H419 0.950 . S
C431 C427 1.393 . S
C431 C430 1.391 . S
H432 C440 0.950 . S
H433 C445 0.950 . S
H434 C442 0.950 . S
H435 C444 0.950 . S
H436 C446 0.950 . S
H437 C448 0.950 . S
H438 C450 0.950 . S
H439 C451 0.950 . S
C440 H432 0.950 . S
C440 C441 1.386 . S
C440 C442 1.391 . S
C441 C440 1.386 . S
C441 C445 1.393 . S
C442 H434 0.950 . S
C442 C440 1.391 . S
C442 C443 1.400 . S
C443 C442 1.400 . S
C443 C444 1.398 . S
C443 C449 1.491 . S
C444 H435 0.950 . S
C444 C443 1.398 . S
C444 C445 1.391 . S
C445 H433 0.950 . S
C445 C441 1.393 . S
C445 C444 1.391 . S
C446 H436 0.950 . S
C446 C447 1.386 . S
C446 C448 1.391 . S
C447 C446 1.386 . S
C447 C451 1.393 . S
C448 H437 0.950 . S
C448 C446 1.391 . S
C448 C449 1.400 . S
C449 C443 1.491 . S
C449 C448 1.400 . S
C449 C450 1.398 . S
C450 H438 0.950 . S
C450 C449 1.398 . S
C450 C451 1.391 . S
C451 H439 0.950 . S
C451 C447 1.393 . S
C451 C450 1.391 . S
H452 C460 0.950 . S
H453 C465 0.950 . S
H454 C462 0.950 . S
H455 C464 0.950 . S
H456 C466 0.950 . S
H457 C468 0.950 . S
H458 C470 0.950 . S
H459 C471 0.950 . S
C460 H452 0.950 . S
C460 C461 1.386 . S
C460 C462 1.391 . S
C461 C460 1.386 . S
C461 C465 1.393 . S
C462 H454 0.950 . S
C462 C460 1.391 . S
C462 C463 1.400 . S
C463 C462 1.400 . S
C463 C464 1.398 . S
C463 C469 1.491 . S
C464 H455 0.950 . S
C464 C463 1.398 . S
C464 C465 1.391 . S
C465 H453 0.950 . S
C465 C461 1.393 . S
C465 C464 1.391 . S
C466 H456 0.950 . S
C466 C467 1.386 . S
C466 C468 1.391 . S
C467 C466 1.386 . S
C467 C471 1.393 . S
C468 H457 0.950 . S
C468 C466 1.391 . S
C468 C469 1.400 . S
C469 C463 1.491 . S
C469 C468 1.400 . S
C469 C470 1.398 . S
C470 H458 0.950 . S
C470 C469 1.398 . S
C470 C471 1.391 . S
C471 H459 0.950 . S
C471 C467 1.393 . S
C471 C470 1.391 . S
H472 C480 0.950 . S
H473 C485 0.950 . S
H474 C482 0.950 . S
H475 C484 0.950 . S
H476 C486 0.950 . S
H477 C488 0.950 . S
H478 C490 0.950 . S
H479 C491 0.950 . S
C480 H472 0.950 . S
C480 C481 1.386 . S
C480 C482 1.391 . S
C481 C480 1.386 . S
C481 C485 1.393 . S
C482 H474 0.950 . S
C482 C480 1.391 . S
C482 C483 1.400 . S
C483 C482 1.400 . S
C483 C484 1.398 . S
C483 C489 1.491 . S
C484 H475 0.950 . S
C484 C483 1.398 . S
C484 C485 1.391 . S
C485 H473 0.950 . S
C485 C481 1.393 . S
C485 C484 1.391 . S
C486 H476 0.950 . S
C486 C487 1.386 . S
C486 C488 1.391 . S
C487 C486 1.386 . S
C487 C491 1.393 . S
C488 H477 0.950 . S
C488 C486 1.391 . S
C488 C489 1.400 . S
C489 C483 1.491 . S
C489 C488 1.400 . S
C489 C490 1.398 . S
C490 H478 0.950 . S
C490 C489 1.398 . S
C490 C491 1.391 . S
C491 H479 0.950 . S
C491 C487 1.393 . S
C491 C490 1.391 . S
H492 C500 0.950 . S
H493 C505 0.950 . S
H494 C502 0.950 . S
H495 C504 0.950 . S
H496 C506 0.950 . S
H497 C508 0.950 . S
H498 C510 0.950 . S
H499 C511 0.950 . S
C500 H492 0.950 . S
C500 C501 1.386 . S
C500 C502 1.391 . S
C501 C500 1.386 . S
C501 C505 1.393 . S
C502 H494 0.950 . S
C502 C500 1.391 . S
C502 C503 1.400 . S
C503 C502 1.400 . S
C503 C504 1.398 . S
C503 C509 1.491 . S
C504 H495 0.950 . S
C504 C503 1.398 . S
C504 C505 1.391 . S
C505 H493 0.950 . S
C505 C501 1.393 . S
C505 C504 1.391 . S
C506 H496 0.950 . S
C506 C507 1.386 . S
C506 C508 1.391 1_554 S
C507 C506 1.386 . S
C507 C511 1.393 1_554 S
C508 H497 0.950 . S
C508 C506 1.391 1_556 S
C508 C509 1.400 . S
C509 C503 1.491 . S
C509 C508 1.400 . S
C509 C510 1.398 . S
C510 H498 0.950 . S
C510 C509 1.398 . S
C510 C511 1.391 . S
C511 H499 0.950 . S
C511 C507 1.393 1_556 S
C511 C510 1.391 . S
H512 C520 0.950 . S
H513 C525 0.950 . S
H514 C522 0.950 . S
H515 C524 0.950 . S
H516 C526 0.950 . S
H517 C528 0.950 . S
H518 C530 0.950 . S
H519 C531 0.950 . S
C520 H512 0.950 . S
C520 C521 1.386 . S
C520 C522 1.391 . S
C521 C520 1.386 . S
C521 C525 1.393 . S
C522 H514 0.950 . S
C522 C520 1.391 . S
C522 C523 1.400 . S
C523 C522 1.400 . S
C523 C524 1.398 . S
C523 C529 1.491 . S
C524 H515 0.950 . S
C524 C523 1.398 . S
C524 C525 1.391 . S
C525 H513 0.950 . S
C525 C521 1.393 . S
C525 C524 1.391 . S
C526 H516 0.950 . S
C526 C527 1.386 . S
C526 C528 1.391 . S
C527 C526 1.386 . S
C527 C531 1.393 . S
C528 H517 0.950 . S
C528 C526 1.391 . S
C528 C529 1.400 . S
C529 C523 1.491 . S
C529 C528 1.400 . S
C529 C530 1.398 . S
C530 H518 0.950 . S
C530 C529 1.398 . S
C530 C531 1.391 . S
C531 H519 0.950 . S
C531 C527 1.393 . S
C531 C530 1.391 . S
H532 C540 0.950 . S
H533 C545 0.950 . S
H534 C542 0.950 . S
H535 C544 0.950 . S
H536 C546 0.950 . S
H537 C548 0.950 . S
H538 C550 0.950 . S
H539 C551 0.950 . S
C540 H532 0.950 . S
C540 C541 1.386 . S
C540 C542 1.391 . S
C541 C540 1.386 . S
C541 C545 1.393 . S
C542 H534 0.950 . S
C542 C540 1.391 . S
C542 C543 1.400 . S
C543 C542 1.400 . S
C543 C544 1.398 . S
C543 C549 1.491 . S
C544 H535 0.950 . S
C544 C543 1.398 . S
C544 C545 1.391 . S
C545 H533 0.950 . S
C545 C541 1.393 . S
C545 C544 1.391 . S
C546 H536 0.950 . S
C546 C547 1.386 . S
C546 C548 1.391 . S
C547 C546 1.386 . S
C547 C551 1.393 . S
C548 H537 0.950 . S
C548 C546 1.391 . S
C548 C549 1.400 . S
C549 C543 1.491 . S
C549 C548 1.400 . S
C549 C550 1.398 . S
C550 H538 0.950 . S
C550 C549 1.398 . S
C550 C551 1.391 . S
C551 H539 0.950 . S
C551 C547 1.393 . S
C551 C550 1.391 . S
H552 C560 0.950 . S
H553 C565 0.950 . S
H554 C562 0.950 . S
H555 C564 0.950 . S
H556 C566 0.950 . S
H557 C568 0.950 . S
H558 C570 0.950 . S
H559 C571 0.950 . S
C560 H552 0.950 . S
C560 C561 1.386 . S
C560 C562 1.391 . S
C561 C560 1.386 . S
C561 C565 1.393 . S
C562 H554 0.950 . S
C562 C560 1.391 . S
C562 C563 1.400 . S
C563 C562 1.400 . S
C563 C564 1.398 . S
C563 C569 1.491 . S
C564 H555 0.950 . S
C564 C563 1.398 . S
C564 C565 1.391 . S
C565 H553 0.950 . S
C565 C561 1.393 . S
C565 C564 1.391 . S
C566 H556 0.950 . S
C566 C567 1.386 . S
C566 C568 1.391 . S
C567 C566 1.386 . S
C567 C571 1.393 . S
C568 H557 0.950 . S
C568 C566 1.391 . S
C568 C569 1.400 . S
C569 C563 1.491 . S
C569 C568 1.400 . S
C569 C570 1.398 . S
C570 H558 0.950 . S
C570 C569 1.398 . S
C570 C571 1.391 . S
C571 H559 0.950 . S
C571 C567 1.393 . S
C571 C570 1.391 . S
H572 C580 0.950 . S
H573 C585 0.950 . S
H574 C582 0.950 . S
H575 C584 0.950 . S
H576 C586 0.950 . S
H577 C588 0.950 . S
H578 C590 0.950 . S
H579 C591 0.950 . S
C580 H572 0.950 . S
C580 C581 1.386 . S
C580 C582 1.391 . S
C581 C580 1.386 . S
C581 C585 1.393 . S
C582 H574 0.950 . S
C582 C580 1.391 . S
C582 C583 1.400 . S
C583 C582 1.400 . S
C583 C584 1.398 . S
C583 C589 1.491 . S
C584 H575 0.950 . S
C584 C583 1.398 . S
C584 C585 1.391 . S
C585 H573 0.950 . S
C585 C581 1.393 . S
C585 C584 1.391 . S
C586 H576 0.950 . S
C586 C587 1.386 . S
C586 C588 1.391 . S
C587 C586 1.386 . S
C587 C591 1.393 . S
C588 H577 0.950 . S
C588 C586 1.391 . S
C588 C589 1.400 . S
C589 C583 1.491 . S
C589 C588 1.400 . S
C589 C590 1.398 . S
C590 H578 0.950 . S
C590 C589 1.398 . S
C590 C591 1.391 . S
C591 H579 0.950 . S
C591 C587 1.393 . S
C591 C590 1.391 . S
H592 C600 0.950 . S
H593 C605 0.950 . S
H594 C602 0.950 . S
H595 C604 0.950 . S
H596 C606 0.950 . S
H597 C608 0.950 . S
H598 C610 0.950 . S
H599 C611 0.950 . S
C600 H592 0.950 . S
C600 C601 1.386 . S
C600 C602 1.391 . S
C601 C600 1.386 . S
C601 C605 1.393 . S
C602 H594 0.950 . S
C602 C600 1.391 . S
C602 C603 1.400 . S
C603 C602 1.400 . S
C603 C604 1.398 . S
C603 C609 1.491 . S
C604 H595 0.950 . S
C604 C603 1.398 . S
C604 C605 1.391 . S
C605 H593 0.950 . S
C605 C601 1.393 . S
C605 C604 1.391 . S
C606 H596 0.950 . S
C606 C607 1.386 . S
C606 C608 1.391 . S
C607 C606 1.386 . S
C607 C611 1.393 . S
C608 H597 0.950 . S
C608 C606 1.391 . S
C608 C609 1.400 . S
C609 C603 1.491 . S
C609 C608 1.400 . S
C609 C610 1.398 . S
C610 H598 0.950 . S
C610 C609 1.398 . S
C610 C611 1.391 . S
C611 H599 0.950 . S
C611 C607 1.393 . S
C611 C610 1.391 . S
H612 C620 0.950 . S
H613 C625 0.950 . S
H614 C622 0.950 . S
H615 C624 0.950 . S
H616 C626 0.950 . S
H617 C628 0.950 . S
H618 C630 0.950 . S
H619 C631 0.950 . S
C620 H612 0.950 . S
C620 C621 1.386 . S
C620 C622 1.391 . S
C621 C620 1.386 . S
C621 C625 1.393 . S
C622 H614 0.950 . S
C622 C620 1.391 . S
C622 C623 1.400 . S
C623 C622 1.400 . S
C623 C624 1.398 . S
C623 C629 1.491 . S
C624 H615 0.950 . S
C624 C623 1.398 . S
C624 C625 1.391 . S
C625 H613 0.950 . S
C625 C621 1.393 . S
C625 C624 1.391 . S
C626 H616 0.950 . S
C626 C627 1.386 . S
C626 C628 1.391 . S
C627 C626 1.386 . S
C627 C631 1.393 . S
C628 H617 0.950 . S
C628 C626 1.391 . S
C628 C629 1.400 . S
C629 C623 1.491 . S
C629 C628 1.400 . S
C629 C630 1.398 . S
C630 H618 0.950 . S
C630 C629 1.398 . S
C630 C631 1.391 . S
C631 H619 0.950 . S
C631 C627 1.393 . S
C631 C630 1.391 . S
H632 C640 0.950 . S
H633 C645 0.950 . S
H634 C642 0.950 . S
H635 C644 0.950 . S
H636 C646 0.950 . S
H637 C648 0.950 . S
H638 C650 0.950 . S
H639 C651 0.950 . S
C640 H632 0.950 . S
C640 C641 1.386 . S
C640 C642 1.391 . S
C641 C640 1.386 . S
C641 C645 1.393 . S
C642 H634 0.950 . S
C642 C640 1.391 . S
C642 C643 1.400 . S
C643 C642 1.400 . S
C643 C644 1.398 . S
C643 C649 1.491 . S
C644 H635 0.950 . S
C644 C643 1.398 . S
C644 C645 1.391 . S
C645 H633 0.950 . S
C645 C641 1.393 . S
C645 C644 1.391 . S
C646 H636 0.950 . S
C646 C647 1.386 . S
C646 C648 1.391 1_556 S
C647 C646 1.386 . S
C647 C651 1.393 . S
C648 H637 0.950 . S
C648 C646 1.391 1_554 S
C648 C649 1.400 . S
C649 C643 1.491 . S
C649 C648 1.400 . S
C649 C650 1.398 . S
C650 H638 0.950 . S
C650 C649 1.398 . S
C650 C651 1.391 1_554 S
C651 H639 0.950 . S
C651 C647 1.393 . S
C651 C650 1.391 1_556 S
H652 C660 0.950 . S
H653 C665 0.950 . S
H654 C662 0.950 . S
H655 C664 0.950 . S
H656 C666 0.950 . S
H657 C668 0.950 . S
H658 C670 0.950 . S
H659 C671 0.950 . S
C660 H652 0.950 . S
C660 C661 1.386 . S
C660 C662 1.391 . S
C661 C660 1.386 . S
C661 C665 1.393 . S
C662 H654 0.950 . S
C662 C660 1.391 . S
C662 C663 1.400 . S
C663 C662 1.400 . S
C663 C664 1.398 . S
C663 C669 1.491 . S
C664 H655 0.950 . S
C664 C663 1.398 . S
C664 C665 1.391 . S
C665 H653 0.950 . S
C665 C661 1.393 . S
C665 C664 1.391 . S
C666 H656 0.950 . S
C666 C667 1.386 . S
C666 C668 1.391 . S
C667 C666 1.386 . S
C667 C671 1.393 . S
C668 H657 0.950 . S
C668 C666 1.391 . S
C668 C669 1.400 . S
C669 C663 1.491 . S
C669 C668 1.400 . S
C669 C670 1.398 . S
C670 H658 0.950 . S
C670 C669 1.398 . S
C670 C671 1.391 . S
C671 H659 0.950 . S
C671 C667 1.393 . S
C671 C670 1.391 . S
C207 C181 1.589 . S
C201 C8 1.538 . S
C221 C26 1.547 . S
C227 C111 1.595 . S
C241 C50 1.558 . S
C247 C130 1.609 . S
C261 C68 1.550 . S
C267 C139 1.593 . S
C287 C153 1.590 . S
C281 C80 1.544 . S
C301 C104 1.544 . S
C307 C172 1.602 . S
C321 C32 1.544 . S
C327 C125 1.585 . S
C341 C44 1.531 . S
C347 C144 1.586 . S
C361 C62 1.536 . S
C367 C158 1.583 . S
C387 C167 1.580 . S
C381 C86 1.541 1_554 S
C407 C186 1.583 . S
C401 C98 1.528 . S
C427 C116 1.587 . S
C421 C14 1.532 . S
C441 C7 1.471 . S
C447 C131 1.503 . S
C461 C25 1.457 . S
C467 C143 1.486 . S
C487 C157 1.482 . S
C481 C52 1.459 . S
C501 C70 1.476 . S
C507 C173 1.514 . S
C527 C185 1.479 . S
C521 C79 1.454 . S
C547 C115 1.481 . S
C541 C106 1.459 . S
C567 C187 1.518 . S
C561 C34 1.481 . S
C581 C43 1.489 . S
C587 C117 1.522 . S
C607 C129 1.494 . S
C601 C61 1.486 . S
C621 C88 1.482 . S
C627 C145 1.509 . S
C641 C97 1.489 . S
C647 C159 1.522 . S
C661 C16 1.491 . S
C667 C171 1.502 . S
