# Generated by pormake.
# Topology sqc, (4,8)-cn, num edge types: 1
# Building blocks:
#     Node 0, Type 0, BuildingBlock: NAHDIM_clean_linker_0, # of connection points: 4
#     Node 1, Type 0, BuildingBlock: NAHDIM_clean_linker_0, # of connection points: 4
#     Node 2, Type 0, BuildingBlock: NAHDIM_clean_linker_0, # of connection points: 4
#     Node 3, Type 0, BuildingBlock: NAHDIM_clean_linker_0, # of connection points: 4
#     Node 4, Type 0, BuildingBlock: NAHDIM_clean_linker_0, # of connection points: 4
#     Node 5, Type 0, BuildingBlock: NAHDIM_clean_linker_0, # of connection points: 4
#     Node 6, Type 0, BuildingBlock: NAHDIM_clean_linker_0, # of connection points: 4
#     Node 7, Type 0, BuildingBlock: NAHDIM_clean_linker_0, # of connection points: 4
#     Node 8, Type 1, BuildingBlock: VETTIZ_charged_sbu_0, # of connection points: 8
#     Node 9, Type 1, BuildingBlock: VETTIZ_charged_sbu_0, # of connection points: 8
#     Node 10, Type 1, BuildingBlock: VETTIZ_charged_sbu_0, # of connection points: 8
#     Node 11, Type 1, BuildingBlock: VETTIZ_charged_sbu_0, # of connection points: 8
#     Edge 12, Type (0, 1), BuildingBlock: XIVTED_clean_linker_0, # of connection points: 2
#     Edge 13, Type (0, 1), BuildingBlock: XIVTED_clean_linker_0, # of connection points: 2
#     Edge 14, Type (0, 1), BuildingBlock: XIVTED_clean_linker_0, # of connection points: 2
#     Edge 15, Type (0, 1), BuildingBlock: XIVTED_clean_linker_0, # of connection points: 2
#     Edge 16, Type (0, 1), BuildingBlock: XIVTED_clean_linker_0, # of connection points: 2
#     Edge 17, Type (0, 1), BuildingBlock: XIVTED_clean_linker_0, # of connection points: 2
#     Edge 18, Type (0, 1), BuildingBlock: XIVTED_clean_linker_0, # of connection points: 2
#     Edge 19, Type (0, 1), BuildingBlock: XIVTED_clean_linker_0, # of connection points: 2
#     Edge 20, Type (0, 1), BuildingBlock: XIVTED_clean_linker_0, # of connection points: 2
#     Edge 21, Type (0, 1), BuildingBlock: XIVTED_clean_linker_0, # of connection points: 2
#     Edge 22, Type (0, 1), BuildingBlock: XIVTED_clean_linker_0, # of connection points: 2
#     Edge 23, Type (0, 1), BuildingBlock: XIVTED_clean_linker_0, # of connection points: 2
#     Edge 24, Type (0, 1), BuildingBlock: XIVTED_clean_linker_0, # of connection points: 2
#     Edge 25, Type (0, 1), BuildingBlock: XIVTED_clean_linker_0, # of connection points: 2
#     Edge 26, Type (0, 1), BuildingBlock: XIVTED_clean_linker_0, # of connection points: 2
#     Edge 27, Type (0, 1), BuildingBlock: XIVTED_clean_linker_0, # of connection points: 2
#     Edge 28, Type (0, 1), BuildingBlock: XIVTED_clean_linker_0, # of connection points: 2
#     Edge 29, Type (0, 1), BuildingBlock: XIVTED_clean_linker_0, # of connection points: 2
#     Edge 30, Type (0, 1), BuildingBlock: XIVTED_clean_linker_0, # of connection points: 2
#     Edge 31, Type (0, 1), BuildingBlock: XIVTED_clean_linker_0, # of connection points: 2
#     Edge 32, Type (0, 1), BuildingBlock: XIVTED_clean_linker_0, # of connection points: 2
#     Edge 33, Type (0, 1), BuildingBlock: XIVTED_clean_linker_0, # of connection points: 2
#     Edge 34, Type (0, 1), BuildingBlock: XIVTED_clean_linker_0, # of connection points: 2
#     Edge 35, Type (0, 1), BuildingBlock: XIVTED_clean_linker_0, # of connection points: 2
#     Edge 36, Type (0, 1), BuildingBlock: XIVTED_clean_linker_0, # of connection points: 2
#     Edge 37, Type (0, 1), BuildingBlock: XIVTED_clean_linker_0, # of connection points: 2
#     Edge 38, Type (0, 1), BuildingBlock: XIVTED_clean_linker_0, # of connection points: 2
#     Edge 39, Type (0, 1), BuildingBlock: XIVTED_clean_linker_0, # of connection points: 2
#     Edge 40, Type (0, 1), BuildingBlock: XIVTED_clean_linker_0, # of connection points: 2
#     Edge 41, Type (0, 1), BuildingBlock: XIVTED_clean_linker_0, # of connection points: 2
#     Edge 42, Type (0, 1), BuildingBlock: XIVTED_clean_linker_0, # of connection points: 2
#     Edge 43, Type (0, 1), BuildingBlock: XIVTED_clean_linker_0, # of connection points: 2
# Relax obj value: 0.111
# Max RMSD: 0.262
# Mean RMSD: 0.120
data_MOF--net-sqc--node1-VETTIZ_charged_sbu_0--node2-NAHDIM_clean_linker_0--edge1-XIVTED_clean_linker_0
_symmetry_space_group_name_H-M    P1
_symmetry_Int_Tables_number       1
_symmetry_cell_setting            triclinic
loop_
_symmetry_equiv_pos_as_xyz
'x, y, z'
_cell_length_a     31.543343
_cell_length_b     31.548301
_cell_length_c     102.53518
_cell_angle_alpha  89.630418
_cell_angle_beta   89.550133
_cell_angle_gamma 90.015994
loop_
_atom_site_label
_atom_site_type_symbol
_atom_site_fract_x
_atom_site_fract_y
_atom_site_fract_z
_atom_type_partial_charge
C0 C 0.88824 0.96867 0.41583 0.0
C1 C 0.86775 0.94217 0.42673 0.0
C2 C 0.89364 0.96364 0.44776 0.0
C3 C 0.90103 0.92537 0.45437 0.0
C4 C 0.93177 0.9228 0.46418 0.0
C5 C 0.95598 0.95918 0.46724 0.0
C6 C 0.94813 0.99796 0.4606 0.0
C7 C 0.91632 0.99982 0.45113 0.0
C8 C 0.93853 0.8812 0.4712 0.0
C9 C 0.9739 0.03729 0.46325 0.0
C10 C 0.27307 0.85468 0.4879 0.0
C11 C 0.2584 0.87369 0.47492 0.0
C12 C 0.18168 0.87538 0.47269 0.0
C13 C 0.17557 0.91749 0.46863 0.0
C14 C 0.13661 0.93795 0.47077 0.0
C15 C 0.1033 0.91579 0.47715 0.0
C16 C 0.10866 0.87256 0.48054 0.0
C17 C 0.14777 0.85276 0.47813 0.0
C18 C 0.13148 0.9836 0.46662 0.0
C19 C 0.07358 0.84777 0.48715 0.0
C20 C 0.17849 0.07474 0.54198 0.0
C21 C 0.16035 0.09515 0.53115 0.0
C22 C 0.11965 0.08426 0.52689 0.0
C23 C 0.09678 0.05171 0.53341 0.0
C24 C 0.11411 0.03234 0.54464 0.0
C25 C 0.15465 0.04445 0.54885 0.0
C26 C 0.10173 0.10664 0.51509 0.0
C27 C 0.09058 0.99766 0.55184 0.0
C28 C 0.76179 0.07484 0.53229 0.0
C29 C 0.78278 0.06822 0.54561 0.0
C30 C 0.85892 0.07832 0.54125 0.0
C31 C 0.88512 0.10796 0.53498 0.0
C32 C 0.92494 0.09632 0.52992 0.0
C33 C 0.93927 0.05411 0.53149 0.0
C34 C 0.91368 0.02442 0.53835 0.0
C35 C 0.87373 0.03678 0.54313 0.0
C36 C 0.95134 0.12885 0.52269 0.0
C37 C 0.92852 0.97949 0.5406 0.0
C38 C 0.99057 0.95663 0.47698 0.0
C39 C 0.02876 0.93744 0.47322 0.0
C40 C 0.06426 0.93854 0.4813 0.0
C41 C 0.06239 0.96107 0.49317 0.0
C42 C 0.09844 0.96598 0.501 0.0
C43 C 0.09682 0.99025 0.51226 0.0
C44 C 0.05865 0.00902 0.51643 0.0
C45 C 0.05711 0.0353 0.52754 0.0
C46 C 0.01792 0.04966 0.53225 0.0
C47 C 0.9803 0.04042 0.52564 0.0
C48 C 0.98208 0.01834 0.51367 0.0
C49 C 0.94575 0.01251 0.506 0.0
C50 C 0.94833 0.99214 0.494 0.0
C51 C 0.9871 0.97588 0.48938 0.0
C52 C 0.02354 0.9794 0.49727 0.0
C53 C 0.02134 0.00199 0.50918 0.0
C54 C 0.26682 0.07523 0.52789 0.0
C55 C 0.25079 0.10327 0.53905 0.0
O56 O 0.8651 0.96611 0.43798 0.0
O57 O 0.8203 0.09137 0.54565 0.0
O58 O 0.21878 0.0827 0.54601 0.0
O59 O 0.21987 0.85585 0.47154 0.0
H60 H 0.88848 0.914 0.42831 0.0
H61 H 0.92087 0.97786 0.41866 0.0
H62 H 0.8697 0.99802 0.41397 0.0
H63 H 0.89025 0.95002 0.40668 0.0
H64 H 0.88265 0.89763 0.45183 0.0
H65 H 0.91007 0.02921 0.44596 0.0
H66 H 0.9692 0.8673 0.46801 0.0
H67 H 0.91293 0.85803 0.46915 0.0
H68 H 0.94013 0.88628 0.48189 0.0
H69 H 0.96878 0.06235 0.45577 0.0
H70 H 0.00824 0.02962 0.46355 0.0
H71 H 0.96472 0.05031 0.4729 0.0
H72 H 0.25517 0.90838 0.4766 0.0
H73 H 0.30473 0.86739 0.49052 0.0
H74 H 0.27478 0.81957 0.48743 0.0
H75 H 0.25023 0.86327 0.49576 0.0
H76 H 0.20129 0.93445 0.46387 0.0
H77 H 0.1526 0.81998 0.48097 0.0
H78 H 0.10159 0.98765 0.46109 0.0
H79 H 0.15844 0.99486 0.46048 0.0
H80 H 0.1293 0.00391 0.4754 0.0
H81 H 0.08241 0.81413 0.48889 0.0
H82 H 0.04463 0.84876 0.48106 0.0
H83 H 0.06558 0.86257 0.49665 0.0
H84 H 0.23856 0.13359 0.53498 0.0
H85 H 0.17778 0.11921 0.52581 0.0
H86 H 0.1686 0.02916 0.55728 0.0
H87 H 0.10325 0.08512 0.50657 0.0
H88 H 0.11962 0.13597 0.5126 0.0
H89 H 0.06794 0.11504 0.51677 0.0
H90 H 0.10825 0.98589 0.56047 0.0
H91 H 0.08488 0.97071 0.54516 0.0
H92 H 0.05917 0.00955 0.55512 0.0
H93 H 0.78877 0.03384 0.54693 0.0
H94 H 0.73553 0.05199 0.53085 0.0
H95 H 0.78528 0.0693 0.52435 0.0
H96 H 0.74961 0.10777 0.53133 0.0
H97 H 0.87375 0.14016 0.53377 0.0
H98 H 0.85476 0.01405 0.54853 0.0
H99 H 0.95983 0.11689 0.51285 0.0
H100 H 0.98134 0.13429 0.52802 0.0
H101 H 0.93458 0.15963 0.52161 0.0
H102 H 0.90714 0.96162 0.54731 0.0
H103 H 0.96099 0.97947 0.54471 0.0
H104 H 0.92991 0.96261 0.53114 0.0
H105 H 0.0311 0.92199 0.46382 0.0
H106 H 0.12865 0.95211 0.49835 0.0
H107 H 0.12581 0.99381 0.51773 0.0
H108 H 0.01675 0.06877 0.541 0.0
H109 H 0.91511 0.02453 0.50904 0.0
H110 H 0.91954 0.98917 0.4884 0.0
H111 H 0.29291 0.09138 0.52247 0.0
H112 H 0.24093 0.06881 0.5209 0.0
H113 H 0.27862 0.04446 0.53175 0.0
C114 C 0.1371 0.88173 0.83256 0.0
C115 C 0.17216 0.90937 0.82653 0.0
C116 C 0.18663 0.87241 0.80608 0.0
C117 C 0.22506 0.85232 0.80914 0.0
C118 C 0.24031 0.8186 0.80157 0.0
C119 C 0.21659 0.80456 0.79077 0.0
C120 C 0.17774 0.8246 0.78771 0.0
C121 C 0.16362 0.85874 0.79531 0.0
C122 C 0.28234 0.79862 0.80492 0.0
C123 C 0.15153 0.81038 0.77629 0.0
C124 C 0.17695 0.46465 0.80007 0.0
C125 C 0.18742 0.4967 0.78991 0.0
C126 C 0.22419 0.56542 0.78969 0.0
C127 C 0.19911 0.58412 0.77996 0.0
C128 C 0.20455 0.62689 0.77646 0.0
C129 C 0.23645 0.6511 0.78258 0.0
C130 C 0.26198 0.63222 0.7923 0.0
C131 C 0.25532 0.58963 0.79576 0.0
C132 C 0.17651 0.64608 0.76613 0.0
C133 C 0.2965 0.65693 0.79895 0.0
C134 C 0.38503 0.62611 0.71172 0.0
C135 C 0.344 0.64075 0.70914 0.0
C136 C 0.32858 0.67767 0.71508 0.0
C137 C 0.35481 0.70011 0.7238 0.0
C138 C 0.39711 0.68674 0.72577 0.0
C139 C 0.41177 0.64987 0.71963 0.0
C140 C 0.28364 0.6916 0.71252 0.0
C141 C 0.42605 0.71016 0.73489 0.0
C142 C 0.30963 0.04346 0.73746 0.0
C143 C 0.33958 0.01693 0.72902 0.0
C144 C 0.32215 0.94113 0.7255 0.0
C145 C 0.28886 0.91486 0.72173 0.0
C146 C 0.29007 0.87108 0.72404 0.0
C147 C 0.32555 0.85321 0.73037 0.0
C148 C 0.36072 0.87904 0.73339 0.0
C149 C 0.3589 0.92281 0.73082 0.0
C150 C 0.25248 0.84426 0.72032 0.0
C151 C 0.39945 0.86062 0.73984 0.0
C152 C 0.23391 0.77085 0.78219 0.0
C153 C 0.22759 0.72846 0.7858 0.0
C154 C 0.24455 0.69548 0.77834 0.0
C155 C 0.26859 0.70485 0.76698 0.0
C156 C 0.28719 0.67254 0.75948 0.0
C157 C 0.30981 0.682 0.74814 0.0
C158 C 0.31462 0.72416 0.74381 0.0
C159 C 0.33643 0.73402 0.73206 0.0
C160 C 0.3402 0.77624 0.72795 0.0
C161 C 0.32311 0.80911 0.73542 0.0
C162 C 0.302 0.79989 0.74733 0.0
C163 C 0.28543 0.83234 0.75522 0.0
C164 C 0.26364 0.82296 0.76671 0.0
C165 C 0.25708 0.78074 0.7707 0.0
C166 C 0.27426 0.7476 0.76305 0.0
C167 C 0.2971 0.75722 0.75141 0.0
C168 C 0.39349 0.53251 0.72262 0.0
C169 C 0.37886 0.55022 0.70946 0.0
O170 O 0.17146 0.9057 0.81306 0.0
O171 O 0.31693 0.98354 0.72376 0.0
O172 O 0.39894 0.58858 0.70696 0.0
O173 O 0.21906 0.52453 0.79368 0.0
H174 H 0.2031 0.89865 0.83044 0.0
H175 H 0.14245 0.84797 0.83002 0.0
H176 H 0.10556 0.8915 0.82882 0.0
H177 H 0.13706 0.8844 0.84336 0.0
H178 H 0.24401 0.86358 0.81714 0.0
H179 H 0.13419 0.87468 0.79296 0.0
H180 H 0.27761 0.76451 0.80722 0.0
H181 H 0.29761 0.814 0.81339 0.0
H182 H 0.30419 0.8007 0.7964 0.0
H183 H 0.12001 0.82607 0.77606 0.0
H184 H 0.14685 0.7755 0.77669 0.0
H185 H 0.16862 0.81791 0.76706 0.0
H186 H 0.19098 0.48491 0.77974 0.0
H187 H 0.11074 0.48149 0.80624 0.0
H188 H 0.20454 0.46378 0.80703 0.0
H189 H 0.18471 0.43299 0.79556 0.0
H190 H 0.17529 0.56556 0.77504 0.0
H191 H 0.27449 0.57493 0.80326 0.0
H192 H 0.16349 0.67686 0.7695 0.0
H193 H 0.14975 0.62488 0.76356 0.0
H194 H 0.19557 0.65236 0.75718 0.0
H195 H 0.3155 0.63682 0.80565 0.0
H196 H 0.2821 0.68309 0.80465 0.0
H197 H 0.31805 0.6714 0.79155 0.0
H198 H 0.34388 0.55478 0.71002 0.0
H199 H 0.32385 0.62284 0.70268 0.0
H200 H 0.44344 0.63829 0.72152 0.0
H201 H 0.26406 0.68622 0.72142 0.0
H202 H 0.26918 0.67398 0.70433 0.0
H203 H 0.28279 0.72606 0.71025 0.0
H204 H 0.45878 0.69715 0.7348 0.0
H205 H 0.4132 0.70809 0.74499 0.0
H206 H 0.42734 0.74424 0.73213 0.0
H207 H 0.36539 0.00585 0.73548 0.0
H208 H 0.32691 0.07062 0.74177 0.0
H209 H 0.29658 0.02364 0.74553 0.0
H210 H 0.28279 0.05578 0.73158 0.0
H211 H 0.26112 0.92909 0.71732 0.0
H212 H 0.38612 0.94206 0.7331 0.0
H213 H 0.2349 0.83455 0.72927 0.0
H214 H 0.26326 0.81496 0.71534 0.0
H215 H 0.23034 0.86159 0.71381 0.0
H216 H 0.42512 0.8844 0.74096 0.0
H217 H 0.41176 0.83367 0.73402 0.0
H218 H 0.39065 0.84808 0.74964 0.0
H219 H 0.20944 0.72106 0.79456 0.0
H220 H 0.28439 0.6395 0.76226 0.0
H221 H 0.32318 0.6557 0.74278 0.0
H222 H 0.35621 0.78354 0.7188 0.0
H223 H 0.28907 0.86546 0.75263 0.0
H224 H 0.25165 0.84932 0.77235 0.0
H225 H 0.37807 0.50147 0.72467 0.0
H226 H 0.38458 0.55471 0.73054 0.0
H227 H 0.42848 0.52832 0.72266 0.0
C228 C 0.66922 0.80979 0.05329 0.0
C229 C 0.69046 0.85118 0.04878 0.0
C230 C 0.62933 0.89922 0.04586 0.0
C231 C 0.61389 0.88054 0.03442 0.0
C232 C 0.57728 0.89618 0.02837 0.0
C233 C 0.55568 0.93128 0.03381 0.0
C234 C 0.5707 0.94975 0.04541 0.0
C235 C 0.60741 0.93347 0.05127 0.0
C236 C 0.56205 0.87562 0.016 0.0
C237 C 0.54846 0.98722 0.05144 0.0
C238 C 0.20923 0.90223 0.02336 0.0
C239 C 0.23967 0.91389 0.03434 0.0
C240 C 0.31665 0.90425 0.03086 0.0
C241 C 0.33086 0.94334 0.03564 0.0
C242 C 0.37258 0.95712 0.03321 0.0
C243 C 0.40064 0.9312 0.02593 0.0
C244 C 0.38688 0.89106 0.0216 0.0
C245 C 0.34512 0.87801 0.02423 0.0
C246 C 0.38659 0.99966 0.03826 0.0
C247 C 0.416 0.8624 0.01394 0.0
C248 C 0.37244 0.05871 0.94911 0.0
C249 C 0.37199 0.08724 0.95947 0.0
C250 C 0.40456 0.08692 0.96874 0.0
C251 C 0.4378 0.05698 0.96759 0.0
C252 C 0.43891 0.0291 0.95682 0.0
C253 C 0.40638 0.03072 0.94759 0.0
C254 C 0.40303 0.11781 0.9799 0.0
C255 C 0.4741 0.99712 0.95517 0.0
C256 C 0.7639 0.13507 0.99466 0.0
C257 C 0.74162 0.12253 0.98204 0.0
C258 C 0.66432 0.12576 0.98097 0.0
C259 C 0.63083 0.14645 0.98723 0.0
C260 C 0.59056 0.12768 0.98816 0.0
C261 C 0.58365 0.08753 0.98248 0.0
C262 C 0.61674 0.06768 0.9754 0.0
C263 C 0.65678 0.08707 0.97469 0.0
C264 C 0.55578 0.15006 0.99559 0.0
C265 C 0.61003 0.02548 0.9689 0.0
C266 C 0.51904 0.94999 0.02681 0.0
C267 C 0.47827 0.93497 0.02974 0.0
C268 C 0.44344 0.94721 0.02222 0.0
C269 C 0.44963 0.97385 0.01121 0.0
C270 C 0.41625 0.98334 0.00266 0.0
C271 C 0.42296 0.00869 0.99168 0.0
C272 C 0.46289 0.02693 0.9891 0.0
C273 C 0.47009 0.05274 0.97796 0.0
C274 C 0.50955 0.0722 0.97607 0.0
C275 C 0.5428 0.06514 0.98476 0.0
C276 C 0.53699 0.03713 0.99546 0.0
C277 C 0.57056 0.02694 0.00388 0.0
C278 C 0.56487 0.9982 0.01409 0.0
C279 C 0.525 0.97979 0.0166 0.0
C280 C 0.49037 0.99094 0.00858 0.0
C281 C 0.49669 0.01857 0.99775 0.0
C282 C 0.31655 0.99011 0.93402 0.0
C283 C 0.30622 0.03173 0.94098 0.0
O284 O 0.66498 0.88551 0.05199 0.0
O285 O 0.70335 0.14396 0.98121 0.0
O286 O 0.34061 0.05908 0.94035 0.0
O287 O 0.27632 0.89006 0.03266 0.0
H288 H 0.69593 0.85045 0.03805 0.0
H289 H 0.63788 0.80592 0.04861 0.0
H290 H 0.66445 0.80975 0.06404 0.0
H291 H 0.68913 0.78213 0.05057 0.0
H292 H 0.63022 0.85395 0.03008 0.0
H293 H 0.61942 0.94766 0.0601 0.0
H294 H 0.52824 0.86635 0.01709 0.0
H295 H 0.58084 0.84706 0.01341 0.0
H296 H 0.56423 0.8987 0.0078 0.0
H297 H 0.56334 0.9972 0.06071 0.0
H298 H 0.51469 0.97923 0.05337 0.0
H299 H 0.54908 0.01436 0.04449 0.0
H300 H 0.24614 0.94841 0.03341 0.0
H301 H 0.18049 0.92253 0.02357 0.0
H302 H 0.19954 0.86844 0.02421 0.0
H303 H 0.22516 0.90708 0.01377 0.0
H304 H 0.30977 0.96302 0.04136 0.0
H305 H 0.33411 0.84751 0.02082 0.0
H306 H 0.3927 0.02145 0.02991 0.0
H307 H 0.41672 0.99624 0.0437 0.0
H308 H 0.36243 0.01431 0.04476 0.0
H309 H 0.40008 0.83263 0.01094 0.0
H310 H 0.444 0.85413 0.01994 0.0
H311 H 0.42775 0.87921 0.00508 0.0
H312 H 0.29842 0.02447 0.95139 0.0
H313 H 0.34587 0.10938 0.96035 0.0
H314 H 0.40714 0.00985 0.93925 0.0
H315 H 0.39706 0.10031 0.98916 0.0
H316 H 0.37773 0.14195 0.97864 0.0
H317 H 0.43404 0.13417 0.9808 0.0
H318 H 0.46945 0.97666 0.94652 0.0
H319 H 0.47609 0.97664 0.96399 0.0
H320 H 0.50487 0.0139 0.95408 0.0
H321 H 0.73656 0.08767 0.98282 0.0
H322 H 0.79532 0.11931 0.9953 0.0
H323 H 0.74441 0.12487 0.00319 0.0
H324 H 0.76831 0.16994 0.9952 0.0
H325 H 0.63677 0.17672 0.99181 0.0
H326 H 0.68211 0.0719 0.96927 0.0
H327 H 0.54615 0.13056 0.00417 0.0
H328 H 0.52751 0.1538 0.9893 0.0
H329 H 0.56577 0.18183 0.99903 0.0
H330 H 0.63812 0.01539 0.9631 0.0
H331 H 0.58215 0.02723 0.96238 0.0
H332 H 0.60321 0.00089 0.97643 0.0
H333 H 0.47374 0.91287 0.03778 0.0
H334 H 0.38473 0.97058 0.0042 0.0
H335 H 0.39624 0.01416 0.98533 0.0
H336 H 0.51465 0.09248 0.96761 0.0
H337 H 0.60187 0.04039 0.00252 0.0
H338 H 0.59206 0.99097 0.02008 0.0
H339 H 0.32795 0.99645 0.92391 0.0
H340 H 0.28802 0.96949 0.93365 0.0
H341 H 0.34135 0.97246 0.93941 0.0
C342 C 0.22789 0.11877 0.16956 0.0
C343 C 0.2259 0.08719 0.18099 0.0
C344 C 0.21176 0.1342 0.19967 0.0
C345 C 0.25208 0.15318 0.19998 0.0
C346 C 0.26063 0.18629 0.20864 0.0
C347 C 0.22843 0.20036 0.21726 0.0
C348 C 0.18821 0.18063 0.21722 0.0
C349 C 0.18043 0.14777 0.2084 0.0
C350 C 0.30391 0.20676 0.20844 0.0
C351 C 0.15339 0.19458 0.22641 0.0
C352 C 0.13084 0.53076 0.20569 0.0
C353 C 0.13657 0.49087 0.21301 0.0
C354 C 0.18686 0.43194 0.21424 0.0
C355 C 0.16612 0.41084 0.22458 0.0
C356 C 0.1815 0.37208 0.22934 0.0
C357 C 0.21888 0.35462 0.22384 0.0
C358 C 0.24028 0.37622 0.21362 0.0
C359 C 0.22377 0.41457 0.20891 0.0
C360 C 0.15755 0.3496 0.24016 0.0
C361 C 0.28046 0.35874 0.20766 0.0
C362 C 0.361 0.41054 0.29542 0.0
C363 C 0.3189 0.39706 0.29682 0.0
C364 C 0.30554 0.35858 0.2914 0.0
C365 C 0.33483 0.33375 0.28421 0.0
C366 C 0.37773 0.34666 0.28323 0.0
C367 C 0.39035 0.38473 0.28904 0.0
C368 C 0.25995 0.34501 0.29308 0.0
C369 C 0.40994 0.32096 0.27573 0.0
C370 C 0.29638 0.00188 0.27742 0.0
C371 C 0.33395 0.01615 0.28566 0.0
C372 C 0.3231 0.09197 0.28958 0.0
C373 C 0.28998 0.1181 0.2937 0.0
C374 C 0.28771 0.16055 0.28963 0.0
C375 C 0.32003 0.17734 0.28147 0.0
C376 C 0.35531 0.15192 0.27806 0.0
C377 C 0.35646 0.10936 0.28213 0.0
C378 C 0.24992 0.18695 0.2936 0.0
C379 C 0.39098 0.16936 0.26974 0.0
C380 C 0.23656 0.23685 0.22593 0.0
C381 C 0.2254 0.27716 0.22143 0.0
C382 C 0.23488 0.31329 0.22865 0.0
C383 C 0.2574 0.30946 0.24044 0.0
C384 C 0.27047 0.34536 0.24739 0.0
C385 C 0.29181 0.34117 0.25914 0.0
C386 C 0.29984 0.30091 0.26459 0.0
C387 C 0.32001 0.29631 0.2768 0.0
C388 C 0.32666 0.25579 0.28204 0.0
C389 C 0.31426 0.21952 0.27526 0.0
C390 C 0.29518 0.2235 0.26288 0.0
C391 C 0.28336 0.18762 0.25565 0.0
C392 C 0.26471 0.19185 0.24347 0.0
C393 C 0.25606 0.2321 0.2382 0.0
C394 C 0.26703 0.26864 0.24541 0.0
C395 C 0.28745 0.26435 0.25763 0.0
C396 C 0.37738 0.50421 0.28505 0.0
C397 C 0.35672 0.4871 0.29762 0.0
O398 O 0.20136 0.10329 0.19109 0.0
O399 O 0.32211 0.05055 0.29322 0.0
O400 O 0.37436 0.44782 0.30042 0.0
O401 O 0.17225 0.46871 0.20905 0.0
H402 H 0.25852 0.08059 0.18452 0.0
H403 H 0.24334 0.14873 0.17254 0.0
H404 H 0.19549 0.12638 0.16606 0.0
H405 H 0.24665 0.10524 0.16137 0.0
H406 H 0.27694 0.14281 0.19342 0.0
H407 H 0.14953 0.13278 0.20817 0.0
H408 H 0.30077 0.24121 0.20637 0.0
H409 H 0.32536 0.19261 0.20101 0.0
H410 H 0.31875 0.20333 0.21818 0.0
H411 H 0.12468 0.17434 0.2257 0.0
H412 H 0.14445 0.22785 0.22415 0.0
H413 H 0.16493 0.19369 0.23661 0.0
H414 H 0.10741 0.47123 0.21423 0.0
H415 H 0.09956 0.52732 0.20051 0.0
H416 H 0.15044 0.52815 0.19645 0.0
H417 H 0.14128 0.58106 0.22063 0.0
H418 H 0.13776 0.42419 0.2289 0.0
H419 H 0.23962 0.43123 0.20098 0.0
H420 H 0.17696 0.34942 0.24914 0.0
H421 H 0.15156 0.31609 0.23746 0.0
H422 H 0.12673 0.36505 0.2424 0.0
H423 H 0.29561 0.38148 0.20074 0.0
H424 H 0.27311 0.32913 0.20233 0.0
H425 H 0.30344 0.35061 0.21543 0.0
H426 H 0.32197 0.48425 0.29606 0.0
H427 H 0.29662 0.4165 0.30221 0.0
H428 H 0.42292 0.39532 0.2882 0.0
H429 H 0.24308 0.34925 0.2837 0.0
H430 H 0.24321 0.36383 0.30065 0.0
H431 H 0.25818 0.3109 0.29578 0.0
H432 H 0.44178 0.33604 0.27559 0.0
H433 H 0.39925 0.31683 0.26552 0.0
H434 H 0.4127 0.28893 0.28019 0.0
H435 H 0.36033 0.02463 0.27889 0.0
H436 H 0.30526 0.97386 0.27148 0.0
H437 H 0.28691 0.02787 0.27068 0.0
H438 H 0.26875 0.99361 0.28372 0.0
H439 H 0.26495 0.1046 0.29972 0.0
H440 H 0.3835 0.09006 0.27951 0.0
H441 H 0.23189 0.19638 0.28478 0.0
H442 H 0.26076 0.21644 0.29839 0.0
H443 H 0.22826 0.16967 0.30037 0.0
H444 H 0.41851 0.14744 0.2693 0.0
H445 H 0.40168 0.20036 0.27359 0.0
H446 H 0.37942 0.17484 0.25967 0.0
H447 H 0.20907 0.28045 0.21221 0.0
H448 H 0.26459 0.37711 0.24376 0.0
H449 H 0.30138 0.36999 0.26397 0.0
H450 H 0.34151 0.25244 0.29149 0.0
H451 H 0.2886 0.15577 0.25927 0.0
H452 H 0.25653 0.16317 0.23832 0.0
H453 H 0.4119 0.50931 0.28648 0.0
H454 H 0.36255 0.5345 0.28195 0.0
H455 H 0.37315 0.48111 0.27703 0.0
C456 C 0.50967 0.42582 0.29626 0.0
C457 C 0.5581 0.42927 0.29644 0.0
C458 C 0.60239 0.39187 0.28091 0.0
C459 C 0.6389 0.38541 0.28837 0.0
C460 C 0.66719 0.35243 0.28543 0.0
C461 C 0.65837 0.32499 0.27491 0.0
C462 C 0.62172 0.33183 0.26728 0.0
C463 C 0.5946 0.3658 0.27024 0.0
C464 C 0.70634 0.34673 0.29362 0.0
C465 C 0.61086 0.3029 0.25613 0.0
C466 C 0.68399 0.99366 0.3133 0.0
C467 C 0.6965 0.02538 0.3033 0.0
C468 C 0.69797 0.10266 0.3005 0.0
C469 C 0.67863 0.10588 0.28823 0.0
C470 C 0.68107 0.14362 0.28092 0.0
C471 C 0.70357 0.17872 0.28592 0.0
C472 C 0.72188 0.17598 0.29844 0.0
C473 C 0.71835 0.13809 0.30563 0.0
C474 C 0.66002 0.14585 0.26776 0.0
C475 C 0.74585 0.2128 0.30413 0.0
C476 C 0.90827 0.11059 0.23354 0.0
C477 C 0.8693 0.11456 0.22713 0.0
C478 C 0.84619 0.1525 0.22771 0.0
C479 C 0.86236 0.18699 0.2349 0.0
C480 C 0.90296 0.18398 0.2406 0.0
C481 C 0.92564 0.14581 0.23972 0.0
C482 C 0.80362 0.15508 0.22114 0.0
C483 C 0.92135 0.22033 0.24819 0.0
C484 C 0.75047 0.47012 0.1959 0.0
C485 C 0.79662 0.47392 0.20028 0.0
C486 C 0.81764 0.40239 0.20574 0.0
C487 C 0.79895 0.36469 0.20167 0.0
C488 C 0.79681 0.32932 0.21002 0.0
C489 C 0.81518 0.33155 0.22257 0.0
C490 C 0.83609 0.36915 0.22644 0.0
C491 C 0.83656 0.40444 0.21802 0.0
C492 C 0.77438 0.28985 0.20551 0.0
C493 C 0.85757 0.37217 0.2395 0.0
C494 C 0.68723 0.28891 0.27205 0.0
C495 C 0.6832 0.25209 0.27966 0.0
C496 C 0.70996 0.21732 0.27772 0.0
C497 C 0.7419 0.21926 0.26798 0.0
C498 C 0.77005 0.18532 0.266 0.0
C499 C 0.8007 0.18698 0.25621 0.0
C500 C 0.80444 0.22264 0.24797 0.0
C501 C 0.83474 0.22399 0.23773 0.0
C502 C 0.83802 0.26007 0.2298 0.0
C503 C 0.81135 0.29499 0.23172 0.0
C504 C 0.78057 0.29403 0.24186 0.0
C505 C 0.75295 0.32833 0.24403 0.0
C506 C 0.7229 0.32707 0.25404 0.0
C507 C 0.71842 0.29098 0.26206 0.0
C508 C 0.7458 0.25599 0.26002 0.0
C509 C 0.77709 0.25764 0.24998 0.0
C510 C 0.92894 0.01035 0.24717 0.0
C511 C 0.9104 0.03359 0.23537 0.0
O512 O 0.57391 0.42255 0.28397 0.0
O513 O 0.8177 0.43637 0.19761 0.0
O514 O 0.92934 0.07311 0.23417 0.0
O515 O 0.69642 0.06673 0.30786 0.0
H516 H 0.56882 0.4036 0.30318 0.0
H517 H 0.50045 0.39301 0.29362 0.0
H518 H 0.49574 0.44786 0.28898 0.0
H519 H 0.49617 0.43288 0.30606 0.0
H520 H 0.64531 0.40627 0.29647 0.0
H521 H 0.56636 0.37126 0.26452 0.0
H522 H 0.7035 0.31696 0.29938 0.0
H523 H 0.71108 0.37344 0.30046 0.0
H524 H 0.73484 0.3439 0.28725 0.0
H525 H 0.5791 0.30989 0.25202 0.0
H526 H 0.61155 0.26931 0.25944 0.0
H527 H 0.63488 0.30653 0.24824 0.0
H528 H 0.68285 0.0205 0.29346 0.0
H529 H 0.65462 0.97784 0.30939 0.0
H530 H 0.66634 0.01143 0.32119 0.0
H531 H 0.74371 0.95728 0.31694 0.0
H532 H 0.66096 0.07945 0.28439 0.0
H533 H 0.73244 0.13559 0.31521 0.0
H534 H 0.68467 0.14749 0.25999 0.0
H535 H 0.64045 0.17502 0.26701 0.0
H536 H 0.63956 0.11788 0.26593 0.0
H537 H 0.75998 0.20492 0.31373 0.0
H538 H 0.72406 0.24011 0.30538 0.0
H539 H 0.77155 0.22288 0.29732 0.0
H540 H 0.87584 0.03679 0.23751 0.0
H541 H 0.8566 0.08785 0.22185 0.0
H542 H 0.95615 0.14262 0.24441 0.0
H543 H 0.77816 0.15522 0.22868 0.0
H544 H 0.79813 0.12794 0.21452 0.0
H545 H 0.80107 0.18506 0.21547 0.0
H546 H 0.95404 0.21361 0.25158 0.0
H547 H 0.90092 0.2269 0.25681 0.0
H548 H 0.9219 0.24942 0.24203 0.0
H549 H 0.79686 0.48015 0.21096 0.0
H550 H 0.7327 0.49964 0.19812 0.0
H551 H 0.73471 0.44349 0.20117 0.0
H552 H 0.74897 0.46401 0.18525 0.0
H553 H 0.78493 0.36349 0.19207 0.0
H554 H 0.8519 0.43358 0.22094 0.0
H555 H 0.75053 0.27958 0.2129 0.0
H556 H 0.79773 0.2638 0.20439 0.0
H557 H 0.7582 0.29471 0.19603 0.0
H558 H 0.87782 0.40088 0.24019 0.0
H559 H 0.87744 0.34368 0.24127 0.0
H560 H 0.8332 0.37345 0.24734 0.0
H561 H 0.6589 0.25048 0.2872 0.0
H562 H 0.7687 0.15695 0.27199 0.0
H563 H 0.82131 0.15977 0.25517 0.0
H564 H 0.8612 0.26074 0.22193 0.0
H565 H 0.7543 0.35668 0.23804 0.0
H566 H 0.70287 0.35461 0.25531 0.0
H567 H 0.91489 0.97816 0.24812 0.0
H568 H 0.9215 0.02824 0.2562 0.0
H569 H 0.96394 0.00748 0.2463 0.0
C570 C 0.51445 0.60576 0.70517 0.0
C571 C 0.56182 0.59549 0.70562 0.0
C572 C 0.60706 0.62306 0.72261 0.0
C573 C 0.64511 0.62768 0.71557 0.0
C574 C 0.67598 0.65689 0.7195 0.0
C575 C 0.66832 0.6823 0.7306 0.0
C576 C 0.63052 0.67652 0.73798 0.0
C577 C 0.60075 0.64624 0.734 0.0
C578 C 0.71622 0.66148 0.71157 0.0
C579 C 0.62067 0.70349 0.74973 0.0
C580 C 0.64767 0.00551 0.69408 0.0
C581 C 0.6505 0.96948 0.70329 0.0
C582 C 0.69032 0.90483 0.70753 0.0
C583 C 0.67111 0.89714 0.71976 0.0
C584 C 0.67984 0.86006 0.72684 0.0
C585 C 0.70896 0.83028 0.72173 0.0
C586 C 0.72899 0.83817 0.70956 0.0
C587 C 0.71934 0.87542 0.70261 0.0
C588 C 0.65774 0.85262 0.73977 0.0
C589 C 0.76043 0.80717 0.70392 0.0
C590 C 0.87887 0.91031 0.78246 0.0
C591 C 0.83856 0.89874 0.78715 0.0
C592 C 0.82196 0.85831 0.78471 0.0
C593 C 0.84633 0.82876 0.77751 0.0
C594 C 0.8881 0.83937 0.77356 0.0
C595 C 0.90399 0.88003 0.77619 0.0
C596 C 0.7777 0.84774 0.78939 0.0
C597 C 0.9151 0.80845 0.76603 0.0
C598 C 0.75599 0.51883 0.80391 0.0
C599 C 0.80335 0.52797 0.80538 0.0
C600 C 0.81021 0.60428 0.80183 0.0
C601 C 0.78625 0.63957 0.80542 0.0
C602 C 0.78549 0.67616 0.79757 0.0
C603 C 0.81052 0.67783 0.78605 0.0
C604 C 0.83668 0.64296 0.78275 0.0
C605 C 0.83601 0.60635 0.79063 0.0
C606 C 0.75743 0.71273 0.80149 0.0
C607 C 0.865 0.64423 0.77082 0.0
C608 C 0.6976 0.71768 0.73371 0.0
C609 C 0.69396 0.75484 0.7263 0.0
C610 C 0.71793 0.79077 0.72914 0.0
C611 C 0.74677 0.7898 0.73961 0.0
C612 C 0.77111 0.82554 0.74277 0.0
C613 C 0.79758 0.82515 0.75354 0.0
C614 C 0.801 0.78888 0.76152 0.0
C615 C 0.82617 0.78904 0.77288 0.0
C616 C 0.82961 0.75219 0.78047 0.0
C617 C 0.80766 0.71519 0.77717 0.0
C618 C 0.7814 0.71489 0.76602 0.0
C619 C 0.75774 0.67878 0.76263 0.0
C620 C 0.73099 0.67927 0.75189 0.0
C621 C 0.72639 0.71603 0.74422 0.0
C622 C 0.75072 0.75243 0.74726 0.0
C623 C 0.77809 0.7519 0.7582 0.0
C624 C 0.88135 0.00411 0.76791 0.0
C625 C 0.87147 0.98725 0.78164 0.0
O626 O 0.57552 0.59738 0.71842 0.0
O627 O 0.8088 0.56931 0.8096 0.0
O628 O 0.89428 0.95027 0.78383 0.0
O629 O 0.68135 0.93983 0.70023 0.0
H630 H 0.5776 0.62051 0.69957 0.0
H631 H 0.50932 0.63905 0.70827 0.0
H632 H 0.49608 0.58466 0.71184 0.0
H633 H 0.50233 0.60239 0.69508 0.0
H634 H 0.65044 0.60876 0.70693 0.0
H635 H 0.57137 0.64204 0.73941 0.0
H636 H 0.71526 0.69175 0.706 0.0
H637 H 0.72043 0.63509 0.70455 0.0
H638 H 0.74417 0.66259 0.71808 0.0
H639 H 0.58815 0.69783 0.7536 0.0
H640 H 0.62392 0.73762 0.74718 0.0
H641 H 0.64362 0.69638 0.75758 0.0
H642 H 0.6194 0.95538 0.70623 0.0
H643 H 0.66798 0.06103 0.70601 0.0
H644 H 0.61492 0.0036 0.68975 0.0
H645 H 0.6645 0.99542 0.68484 0.0
H646 H 0.6491 0.91984 0.72385 0.0
H647 H 0.73422 0.88162 0.69323 0.0
H648 H 0.68149 0.85208 0.74771 0.0
H649 H 0.64161 0.82133 0.73979 0.0
H650 H 0.6339 0.87752 0.74199 0.0
H651 H 0.77481 0.81883 0.69464 0.0
H652 H 0.74436 0.7765 0.70206 0.0
H653 H 0.78608 0.80103 0.71104 0.0
H654 H 0.83675 0.98115 0.78192 0.0
H655 H 0.81987 0.92132 0.79264 0.0
H656 H 0.93547 0.88896 0.77287 0.0
H657 H 0.75642 0.84489 0.78086 0.0
H658 H 0.76462 0.87232 0.796 0.0
H659 H 0.77757 0.81675 0.79458 0.0
H660 H 0.9478 0.82049 0.76433 0.0
H661 H 0.90027 0.80218 0.75644 0.0
H662 H 0.9168 0.7778 0.77138 0.0
H663 H 0.81896 0.52332 0.79573 0.0
H664 H 0.75099 0.48587 0.80048 0.0
H665 H 0.7421 0.54087 0.79661 0.0
H666 H 0.73911 0.52313 0.81336 0.0
H667 H 0.76713 0.63787 0.81423 0.0
H668 H 0.85611 0.57976 0.78815 0.0
H669 H 0.73691 0.7223 0.79323 0.0
H670 H 0.77749 0.74037 0.804 0.0
H671 H 0.73699 0.70487 0.81004 0.0
H672 H 0.88743 0.6171 0.77055 0.0
H673 H 0.8834 0.67426 0.77054 0.0
H674 H 0.84523 0.64331 0.76192 0.0
H675 H 0.67111 0.75627 0.71845 0.0
H676 H 0.76957 0.85444 0.73704 0.0
H677 H 0.8151 0.85384 0.75556 0.0
H678 H 0.84869 0.75263 0.78922 0.0
H679 H 0.7593 0.64979 0.7683 0.0
H680 H 0.71349 0.65064 0.74976 0.0
H681 H 0.91595 0.00897 0.76647 0.0
H682 H 0.8646 0.03461 0.76619 0.0
H683 H 0.87037 0.98093 0.76056 0.0
C684 C 0.70353 0.68156 0.05284 0.0
C685 C 0.70561 0.63578 0.0579 0.0
C686 C 0.6761 0.58936 0.0419 0.0
C687 C 0.66256 0.5494 0.04612 0.0
C688 C 0.62572 0.53102 0.04102 0.0
C689 C 0.60202 0.55343 0.03154 0.0
C690 C 0.61647 0.59342 0.02699 0.0
C691 C 0.6537 0.61076 0.03216 0.0
C692 C 0.61159 0.4881 0.04595 0.0
C693 C 0.59204 0.61822 0.01692 0.0
C694 C 0.33919 0.66285 0.0602 0.0
C695 C 0.31425 0.62749 0.05347 0.0
C696 C 0.37114 0.57586 0.04914 0.0
C697 C 0.39022 0.59847 0.03877 0.0
C698 C 0.42761 0.58387 0.03285 0.0
C699 C 0.44659 0.54596 0.03737 0.0
C700 C 0.4279 0.52333 0.04788 0.0
C701 C 0.39019 0.53846 0.05356 0.0
C702 C 0.44673 0.60891 0.02166 0.0
C703 C 0.44749 0.48294 0.05296 0.0
C704 C 0.35257 0.36291 0.97996 0.0
C705 C 0.35976 0.40367 0.97481 0.0
C706 C 0.39927 0.42358 0.97623 0.0
C707 C 0.43212 0.40223 0.98292 0.0
C708 C 0.42567 0.36018 0.9874 0.0
C709 C 0.38598 0.3409 0.98573 0.0
C710 C 0.40557 0.46788 0.97093 0.0
C711 C 0.46025 0.3362 0.99435 0.0
C712 C 0.69777 0.50829 0.93384 0.0
C713 C 0.70839 0.46779 0.94147 0.0
C714 C 0.64355 0.4412 0.95124 0.0
C715 C 0.61095 0.47114 0.9508 0.0
C716 C 0.57895 0.47141 0.96036 0.0
C717 C 0.57917 0.4403 0.97038 0.0
C718 C 0.61146 0.40918 0.97061 0.0
C719 C 0.64343 0.41006 0.96099 0.0
C720 C 0.54472 0.50478 0.9597 0.0
C721 C 0.61212 0.37516 0.98101 0.0
C722 C 0.56105 0.53598 0.02694 0.0
C723 C 0.52453 0.5452 0.03422 0.0
C724 C 0.48492 0.52948 0.0306 0.0
C725 C 0.48173 0.50213 0.01979 0.0
C726 C 0.44287 0.48352 0.0164 0.0
C727 C 0.43986 0.45724 0.00562 0.0
C728 C 0.47516 0.45004 0.99747 0.0
C729 C 0.47196 0.42484 0.98616 0.0
C730 C 0.50683 0.42097 0.97776 0.0
C731 C 0.54542 0.44074 0.98054 0.0
C732 C 0.55008 0.46347 0.99229 0.0
C733 C 0.58914 0.4815 0.99581 0.0
C734 C 0.59317 0.50424 0.00734 0.0
C735 C 0.55788 0.51135 0.0155 0.0
C736 C 0.51814 0.49384 0.01204 0.0
C737 C 0.51454 0.46885 0.00064 0.0
C738 C 0.25617 0.34805 0.99456 0.0
C739 C 0.27542 0.3641 0.98169 0.0
O740 O 0.70994 0.60786 0.0476 0.0
O741 O 0.67383 0.44063 0.94184 0.0
O742 O 0.31392 0.34402 0.97952 0.0
O743 O 0.33474 0.5889 0.05513 0.0
H744 H 0.67538 0.62912 0.06327 0.0
H745 H 0.67395 0.68664 0.04726 0.0
H746 H 0.73111 0.68878 0.04639 0.0
H747 H 0.7033 0.70413 0.06112 0.0
H748 H 0.68041 0.53311 0.05362 0.0
H749 H 0.66496 0.64139 0.02879 0.0
H750 H 0.58076 0.49125 0.05116 0.0
H751 H 0.63493 0.47358 0.0527 0.0
H752 H 0.60667 0.46643 0.03761 0.0
H753 H 0.60781 0.64862 0.01428 0.0
H754 H 0.55975 0.62517 0.02071 0.0
H755 H 0.58842 0.59904 0.00796 0.0
H756 H 0.31133 0.63483 0.04289 0.0
H757 H 0.32284 0.69379 0.05895 0.0
H758 H 0.37146 0.66589 0.05592 0.0
H759 H 0.3423 0.6559 0.07079 0.0
H760 H 0.37621 0.62747 0.03517 0.0
H761 H 0.37541 0.52118 0.06156 0.0
H762 H 0.47906 0.61958 0.0243 0.0
H763 H 0.42752 0.6372 0.01906 0.0
H764 H 0.44976 0.58848 0.01292 0.0
H765 H 0.43061 0.47046 0.06173 0.0
H766 H 0.48123 0.48855 0.05545 0.0
H767 H 0.44683 0.45844 0.04525 0.0
H768 H 0.27976 0.39885 0.98295 0.0
H769 H 0.33451 0.42002 0.96975 0.0
H770 H 0.38034 0.30909 0.98941 0.0
H771 H 0.40985 0.49019 0.97915 0.0
H772 H 0.37826 0.47875 0.96501 0.0
H773 H 0.43476 0.46923 0.96482 0.0
H774 H 0.45063 0.30328 0.99691 0.0
H775 H 0.46875 0.35307 0.00344 0.0
H776 H 0.48912 0.335 0.9881 0.0
H777 H 0.71724 0.47666 0.95161 0.0
H778 H 0.72662 0.52806 0.93241 0.0
H779 H 0.67447 0.52764 0.93935 0.0
H780 H 0.68446 0.50039 0.92415 0.0
H781 H 0.61024 0.49397 0.94289 0.0
H782 H 0.66844 0.38651 0.96104 0.0
H783 H 0.54288 0.52213 0.96907 0.0
H784 H 0.51356 0.48932 0.95817 0.0
H785 H 0.55033 0.528 0.95168 0.0
H786 H 0.63838 0.35219 0.97951 0.0
H787 H 0.58154 0.35771 0.98109 0.0
H788 H 0.61573 0.38997 0.99073 0.0
H789 H 0.5268 0.56576 0.04263 0.0
H790 H 0.41439 0.48869 0.02213 0.0
H791 H 0.4092 0.44345 0.00361 0.0
H792 H 0.50368 0.40302 0.96882 0.0
H793 H 0.61715 0.47787 0.98975 0.0
H794 H 0.62407 0.51702 0.00963 0.0
H795 H 0.25292 0.313 0.9946 0.0
H796 H 0.22451 0.36258 0.99623 0.0
H797 H 0.27708 0.35701 0.00277 0.0
C798 C 0.80645 0.62746 0.48184 0.0
C799 C 0.82437 0.64135 0.46854 0.0
C800 C 0.88976 0.59862 0.46704 0.0
C801 C 0.90722 0.56222 0.46148 0.0
C802 C 0.94708 0.54713 0.46529 0.0
C803 C 0.97004 0.56932 0.47485 0.0
C804 C 0.95337 0.60714 0.48017 0.0
C805 C 0.91331 0.62143 0.47623 0.0
C806 C 0.96408 0.50679 0.45941 0.0
C807 C 0.97742 0.63181 0.49028 0.0
C808 C 0.30507 0.62857 0.44846 0.0
C809 C 0.27 0.62252 0.4579 0.0
C810 C 0.20507 0.58112 0.46043 0.0
C811 C 0.18726 0.6074 0.47006 0.0
C812 C 0.14798 0.59751 0.4758 0.0
C813 C 0.12626 0.56057 0.47189 0.0
C814 C 0.14362 0.53457 0.46202 0.0
C815 C 0.18289 0.54528 0.4564 0.0
C816 C 0.13008 0.626 0.48625 0.0
C817 C 0.1211 0.495 0.45764 0.0
C818 C 0.21263 0.43498 0.54178 0.0
C819 C 0.18754 0.4704 0.54487 0.0
C820 C 0.14611 0.47415 0.54015 0.0
C821 C 0.12934 0.44186 0.53219 0.0
C822 C 0.15341 0.40492 0.52976 0.0
C823 C 0.19474 0.40185 0.53469 0.0
C824 C 0.12074 0.51344 0.54326 0.0
C825 C 0.13619 0.36971 0.52145 0.0
C826 C 0.80227 0.43053 0.52631 0.0
C827 C 0.8138 0.39817 0.53692 0.0
C828 C 0.88852 0.41716 0.54036 0.0
C829 C 0.91346 0.44717 0.54668 0.0
C830 C 0.95487 0.45611 0.54239 0.0
C831 C 0.97201 0.43341 0.53173 0.0
C832 C 0.94816 0.40053 0.52598 0.0
C833 C 0.90642 0.39312 0.53023 0.0
C834 C 0.97946 0.49117 0.54881 0.0
C835 C 0.96602 0.37453 0.51492 0.0
C836 C 0.00993 0.55138 0.48004 0.0
C837 C 0.04809 0.56204 0.47384 0.0
C838 C 0.08677 0.54768 0.47873 0.0
C839 C 0.08767 0.52232 0.49014 0.0
C840 C 0.12617 0.50852 0.49553 0.0
C841 C 0.12674 0.48462 0.50696 0.0
C842 C 0.0888 0.47291 0.51334 0.0
C843 C 0.0891 0.44956 0.52516 0.0
C844 C 0.05083 0.43657 0.53091 0.0
C845 C 0.01197 0.4479 0.52539 0.0
C846 C 0.01112 0.47351 0.51401 0.0
C847 C 0.97264 0.48785 0.5087 0.0
C848 C 0.97213 0.51317 0.49756 0.0
C849 C 0.01007 0.5251 0.49126 0.0
C850 C 0.04913 0.51081 0.49638 0.0
C851 C 0.04968 0.48548 0.50787 0.0
C852 C 0.3017 0.47754 0.53404 0.0
C853 C 0.2826 0.46406 0.54723 0.0
O854 O 0.85004 0.60991 0.46337 0.0
O855 O 0.84745 0.41292 0.54425 0.0
O856 O 0.25383 0.43133 0.54547 0.0
O857 O 0.24348 0.58907 0.45487 0.0
H858 H 0.84289 0.67111 0.46964 0.0
H859 H 0.83242 0.6224 0.48892 0.0
H860 H 0.78839 0.59737 0.48096 0.0
H861 H 0.78509 0.65232 0.48581 0.0
H862 H 0.88895 0.54505 0.45433 0.0
H863 H 0.90057 0.64998 0.48052 0.0
H864 H 0.99591 0.51267 0.45506 0.0
H865 H 0.94294 0.49399 0.45176 0.0
H866 H 0.96782 0.48243 0.46718 0.0
H867 H 0.96166 0.66224 0.49275 0.0
H868 H 0.01006 0.6386 0.4867 0.0
H869 H 0.98018 0.61247 0.49931 0.0
H870 H 0.27876 0.62406 0.4684 0.0
H871 H 0.2901 0.69087 0.43894 0.0
H872 H 0.30814 0.59835 0.44266 0.0
H873 H 0.3348 0.62284 0.45427 0.0
H874 H 0.20395 0.63543 0.47323 0.0
H875 H 0.19678 0.52536 0.44893 0.0
H876 H 0.1278 0.6082 0.49561 0.0
H877 H 0.09754 0.63613 0.48361 0.0
H878 H 0.14987 0.65467 0.48776 0.0
H879 H 0.13806 0.47898 0.44951 0.0
H880 H 0.08853 0.50304 0.45443 0.0
H881 H 0.11816 0.47247 0.46596 0.0
H882 H 0.26709 0.49262 0.55131 0.0
H883 H 0.19974 0.49534 0.55095 0.0
H884 H 0.21392 0.37419 0.53258 0.0
H885 H 0.11661 0.53259 0.53424 0.0
H886 H 0.13638 0.5335 0.55068 0.0
H887 H 0.08869 0.50453 0.5469 0.0
H888 H 0.15756 0.34173 0.52124 0.0
H889 H 0.13191 0.38149 0.51132 0.0
H890 H 0.10459 0.35966 0.52519 0.0
H891 H 0.82237 0.36762 0.53226 0.0
H892 H 0.77464 0.41919 0.52065 0.0
H893 H 0.82933 0.43495 0.51945 0.0
H894 H 0.79438 0.46167 0.53072 0.0
H895 H 0.89959 0.46504 0.55464 0.0
H896 H 0.88809 0.36884 0.52547 0.0
H897 H 0.98823 0.51572 0.54146 0.0
H898 H 0.0093 0.47822 0.55289 0.0
H899 H 0.96119 0.50647 0.5568 0.0
H900 H 0.94749 0.34506 0.51337 0.0
H901 H 0.99955 0.36591 0.51683 0.0
H902 H 0.96527 0.39356 0.50579 0.0
H903 H 0.04773 0.58215 0.46522 0.0
H904 H 0.15639 0.51643 0.49107 0.0
H905 H 0.15739 0.47531 0.5107 0.0
H906 H 0.05129 0.41824 0.5399 0.0
H907 H 0.94237 0.48006 0.51314 0.0
H908 H 0.94155 0.52328 0.49398 0.0
H909 H 0.31337 0.44969 0.5285 0.0
H910 H 0.32813 0.5003 0.53544 0.0
H911 H 0.27699 0.49337 0.52807 0.0
Fe912 Fe 0.00981 0.77021 0.14837 0.0
O913 O 0.04016 0.73897 0.13433 0.0
Fe914 Fe 0.91357 0.79662 0.13495 0.0
Fe915 Fe 0.10215 0.73689 0.1332 0.0
O916 O 0.97549 0.79423 0.13392 0.0
O917 O 0.97554 0.79428 0.13266 0.0
O918 O 0.03991 0.73859 0.13311 0.0
Fe919 Fe 0.00554 0.76246 0.11845 0.0
C920 C 0.08983 0.82035 0.14796 0.0
O921 O 0.04901 0.74054 0.16202 0.0
O922 O 0.09527 0.70018 0.1498 0.0
O923 O 0.96378 0.71215 0.11981 0.0
O924 O 0.90263 0.74701 0.1226 0.0
O925 O 0.90828 0.75453 0.15057 0.0
O926 O 0.96954 0.71985 0.15044 0.0
O927 O 0.09083 0.69137 0.11929 0.0
O928 O 0.04298 0.72523 0.1057 0.0
C929 C 0.93028 0.72167 0.15312 0.0
O930 O 0.96396 0.79211 0.10517 0.0
O931 O 0.91955 0.83287 0.11814 0.0
O932 O 0.04993 0.8205 0.14663 0.0
O933 O 0.11211 0.78746 0.1457 0.0
C934 C 0.07682 0.71042 0.16069 0.0
C935 C 0.07207 0.69669 0.10812 0.0
C936 C 0.08688 0.80885 0.11338 0.0
O937 O 0.10846 0.77786 0.11774 0.0
O938 O 0.0472 0.8125 0.11562 0.0
C939 C 0.9235 0.71443 0.11911 0.0
O940 O 0.9259 0.84252 0.14873 0.0
O941 O 0.97463 0.80719 0.16141 0.0
C942 C 0.93482 0.82112 0.10688 0.0
C943 C 0.94793 0.83788 0.1593 0.0
Fe944 Fe 0.53358 0.76064 0.39174 0.0
O945 O 0.55624 0.72518 0.3773 0.0
Fe946 Fe 0.50848 0.85589 0.377 0.0
Fe947 Fe 0.55349 0.6631 0.37816 0.0
O948 O 0.50575 0.79388 0.37769 0.0
O949 O 0.50544 0.7937 0.37652 0.0
O950 O 0.55604 0.72506 0.37605 0.0
Fe951 Fe 0.52669 0.75746 0.36188 0.0
C952 C 0.59623 0.69357 0.40262 0.0
O953 O 0.48068 0.72406 0.39325 0.0
O954 O 0.51141 0.66082 0.39387 0.0
O955 O 0.49274 0.7971 0.34912 0.0
O956 O 0.46411 0.84927 0.36237 0.0
O957 O 0.46851 0.85017 0.39295 0.0
O958 O 0.50461 0.80104 0.40536 0.0
O959 O 0.50322 0.65628 0.3659 0.0
O960 O 0.47306 0.71986 0.36326 0.0
C961 C 0.47518 0.82954 0.40375 0.0
O962 O 0.57986 0.79491 0.35921 0.0
O963 O 0.55277 0.85981 0.3623 0.0
O964 O 0.56735 0.72223 0.40482 0.0
O965 O 0.59979 0.67192 0.39192 0.0
C966 C 0.48043 0.68529 0.39642 0.0
C967 C 0.47207 0.67951 0.36264 0.0
C968 C 0.57879 0.68203 0.35008 0.0
O969 O 0.59004 0.66626 0.36132 0.0
O970 O 0.55256 0.71373 0.34854 0.0
C971 C 0.46677 0.82844 0.35146 0.0
O972 O 0.55773 0.86128 0.39038 0.0
O973 O 0.58651 0.79711 0.39051 0.0
C974 C 0.58162 0.83517 0.35805 0.0
C975 C 0.58894 0.83656 0.39253 0.0
Fe976 Fe 0.52607 0.2603 0.64586 0.0
O977 O 0.56396 0.28265 0.63185 0.0
Fe978 Fe 0.43212 0.2396 0.63042 0.0
Fe979 Fe 0.62568 0.27942 0.63303 0.0
O980 O 0.49407 0.234 0.63136 0.0
O981 O 0.49439 0.23372 0.6301 0.0
O982 O 0.56411 0.28269 0.63068 0.0
Fe983 Fe 0.5319 0.25721 0.61594 0.0
C984 C 0.59128 0.32231 0.65744 0.0
O985 O 0.56141 0.2067 0.64756 0.0
O986 O 0.62569 0.23532 0.64827 0.0
O987 O 0.49165 0.22718 0.60245 0.0
O988 O 0.43825 0.19739 0.6152 0.0
O989 O 0.43498 0.19772 0.64575 0.0
O990 O 0.48264 0.23182 0.65899 0.0
O991 O 0.63289 0.2307 0.62006 0.0
O992 O 0.56885 0.20301 0.61611 0.0
C993 C 0.45326 0.2036 0.6569 0.0
O994 O 0.49635 0.31175 0.61438 0.0
O995 O 0.43073 0.28572 0.6163 0.0
O996 O 0.56313 0.29273 0.65946 0.0
O997 O 0.61546 0.32485 0.64713 0.0
C998 C 0.59972 0.20562 0.65116 0.0
C999 C 0.60931 0.20149 0.61558 0.0
C1000 C 0.60712 0.31197 0.60538 0.0
O1001 O 0.62452 0.31851 0.61668 0.0
O1002 O 0.57594 0.28579 0.6032 0.0
C1003 C 0.45918 0.20196 0.60428 0.0
O1004 O 0.42717 0.28668 0.64459 0.0
O1005 O 0.49148 0.31437 0.64441 0.0
C1006 C 0.45655 0.31442 0.61264 0.0
C1007 C 0.45243 0.31705 0.64708 0.0
Fe1008 Fe 0.00734 0.24963 0.89605 0.0
O1009 O 0.97984 0.21861 0.88151 0.0
Fe1010 Fe 0.0411 0.34364 0.88198 0.0
Fe1011 Fe 0.97648 0.1564 0.88137 0.0
O1012 O 0.03731 0.28169 0.88199 0.0
O1013 O 0.03757 0.28166 0.88081 0.0
O1014 O 0.98024 0.21849 0.88028 0.0
Fe1015 Fe 0.01109 0.25006 0.86609 0.0
C1016 C 0.05397 0.16816 0.89849 0.0
O1017 O 0.97103 0.21273 0.90912 0.0
O1018 O 0.93295 0.16722 0.89612 0.0
O1019 O 0.96166 0.29269 0.86483 0.0
O1020 O 0.99572 0.35401 0.86805 0.0
O1021 O 0.99477 0.352 0.89621 0.0
O1022 O 0.9582 0.29183 0.89609 0.0
O1023 O 0.93836 0.16583 0.86522 0.0
O1024 O 0.97931 0.21154 0.85263 0.0
C1025 C 0.96084 0.33117 0.89841 0.0
O1026 O 0.04671 0.28852 0.85321 0.0
O1027 O 0.08275 0.33482 0.86656 0.0
O1028 O 0.05645 0.20766 0.89632 0.0
O1029 O 0.02027 0.14731 0.8962 0.0
C1030 C 0.93961 0.18682 0.90704 0.0
C1031 C 0.94975 0.18284 0.85411 0.0
C1032 C 0.05759 0.16736 0.86497 0.0
O1033 O 0.02433 0.14672 0.86805 0.0
O1034 O 0.06078 0.2074 0.86618 0.0
C1035 C 0.96413 0.33296 0.86392 0.0
O1036 O 0.08171 0.33191 0.89724 0.0
O1037 O 0.04169 0.28526 0.90967 0.0
C1038 C 0.07529 0.31762 0.8553 0.0
C1039 C 0.07337 0.31141 0.908 0.0
H1040 H 0.28966 0.79768 0.46551 0.0
H1041 H 0.42759 0.90058 0.4082 0.0
H1042 H 0.29969 0.9329 0.45971 0.0
H1043 H 0.45505 0.77686 0.42424 0.0
H1044 H 0.37494 0.91124 0.4255 0.0
H1045 H 0.34416 0.78734 0.44864 0.0
C1046 C 0.30348 0.82516 0.46073 0.0
C1047 C 0.29074 0.86628 0.46419 0.0
C1048 C 0.39269 0.88187 0.42527 0.0
C1049 C 0.3523 0.85458 0.44475 0.0
C1050 C 0.42271 0.87573 0.4154 0.0
C1051 C 0.44583 0.83777 0.41478 0.0
C1052 C 0.38511 0.84954 0.43446 0.0
C1053 C 0.43816 0.8067 0.42439 0.0
C1054 C 0.33454 0.81923 0.45113 0.0
C1055 C 0.30896 0.90072 0.45746 0.0
N1056 N 0.40815 0.81309 0.43377 0.0
N1057 N 0.33875 0.8941 0.44805 0.0
H1058 H 0.30421 0.03609 0.70527 0.0
H1059 H 0.48704 0.19533 0.68158 0.0
H1060 H 0.41509 0.06091 0.72837 0.0
H1061 H 0.38553 0.14987 0.65728 0.0
H1062 H 0.46072 0.14956 0.69933 0.0
H1063 H 0.33297 0.08115 0.68802 0.0
C1064 C 0.33491 0.05071 0.70664 0.0
C1065 C 0.35786 0.0439 0.71812 0.0
C1066 C 0.44438 0.14973 0.69009 0.0
C1067 C 0.39064 0.09662 0.6985 0.0
C1068 C 0.45926 0.17593 0.67997 0.0
C1069 C 0.43843 0.17666 0.6679 0.0
C1070 C 0.40833 0.12443 0.68811 0.0
C1071 C 0.40276 0.15056 0.66637 0.0
C1072 C 0.3513 0.07661 0.6968 0.0
C1073 C 0.39689 0.06474 0.71953 0.0
N1074 N 0.38889 0.12572 0.67633 0.0
N1075 N 0.41215 0.0902 0.70981 0.0
H1076 H 0.22219 0.01861 0.94675 0.0
H1077 H 0.13595 0.19507 0.898 0.0
H1078 H 0.30349 0.08933 0.9205 0.0
H1079 H 0.05662 0.09281 0.9121 0.0
H1080 H 0.19704 0.16127 0.90812 0.0
H1081 H 0.16013 0.04993 0.93607 0.0
C1082 C 0.22691 0.04107 0.93883 0.0
C1083 C 0.268 0.05228 0.93474 0.0
C1084 C 0.16632 0.14612 0.90896 0.0
C1085 C 0.19748 0.08774 0.92244 0.0
C1086 C 0.13137 0.16546 0.90324 0.0
C1087 C 0.09109 0.14676 0.90425 0.0
C1088 C 0.16097 0.10809 0.91593 0.0
C1089 C 0.08714 0.10822 0.91106 0.0
C1090 C 0.19159 0.05864 0.9327 0.0
C1091 C 0.27245 0.08064 0.92421 0.0
N1092 N 0.12165 0.09028 0.91676 0.0
N1093 N 0.23763 0.09769 0.91851 0.0
H1094 H 0.26623 0.01324 0.17396 0.0
H1095 H 0.05115 0.89343 0.15579 0.0
H1096 H 0.14168 0.06876 0.17712 0.0
H1097 H 0.17489 0.83639 0.15131 0.0
H1098 H 0.08439 0.95735 0.16393 0.0
H1099 H 0.23404 0.94771 0.16594 0.0
C1100 C 0.23209 0.01142 0.17307 0.0
C1101 C 0.20649 0.04609 0.17645 0.0
C1102 C 0.10438 0.93094 0.16116 0.0
C1103 C 0.16954 0.97172 0.16712 0.0
C1104 C 0.08539 0.89431 0.15648 0.0
C1105 C 0.11026 0.85936 0.15282 0.0
C1106 C 0.14866 0.93293 0.16221 0.0
C1107 C 0.15447 0.86252 0.15402 0.0
C1108 C 0.21376 0.97415 0.16846 0.0
C1109 C 0.16249 0.0425 0.17485 0.0
N1110 N 0.17229 0.89871 0.15861 0.0
N1111 N 0.14545 0.00598 0.17034 0.0
H1112 H 0.28296 0.05613 0.55956 0.0
H1113 H 0.45711 0.22933 0.57886 0.0
H1114 H 0.30309 0.17282 0.53828 0.0
H1115 H 0.41724 0.12652 0.60405 0.0
H1116 H 0.41165 0.20119 0.56165 0.0
H1117 H 0.34173 0.07457 0.57392 0.0
C1118 C 0.2996 0.08578 0.55798 0.0
C1119 C 0.2872 0.11375 0.54802 0.0
C1120 C 0.41345 0.18443 0.57087 0.0
C1121 C 0.35521 0.13452 0.56415 0.0
C1122 C 0.43974 0.2002 0.58064 0.0
C1123 C 0.44063 0.18039 0.59292 0.0
C1124 C 0.38821 0.1485 0.57342 0.0
C1125 C 0.41711 0.14301 0.59476 0.0
C1126 C 0.3333 0.09617 0.56611 0.0
C1127 C 0.3109 0.15099 0.54608 0.0
N1128 N 0.39159 0.12851 0.58517 0.0
N1129 N 0.34353 0.16049 0.55414 0.0
H1130 H 0.12613 0.97287 0.81419 0.0
H1131 H 0.11752 0.11839 0.87634 0.0
H1132 H 0.20161 0.94883 0.84834 0.0
H1133 H 0.06942 0.15803 0.83903 0.0
H1134 H 0.15568 0.06042 0.86569 0.0
H1135 H 0.11039 0.0438 0.82237 0.0
C1136 C 0.14011 0.98284 0.82328 0.0
C1137 C 0.16577 0.9551 0.83052 0.0
C1138 C 0.13788 0.08249 0.85974 0.0
C1139 C 0.14692 0.0359 0.84012 0.0
C1140 C 0.11655 0.11582 0.86581 0.0
C1141 C 0.09113 0.1432 0.85847 0.0
C1142 C 0.13258 0.07592 0.84629 0.0
C1143 C 0.08949 0.13787 0.84494 0.0
C1144 C 0.1311 0.02336 0.82796 0.0
C1145 C 0.18213 0.96942 0.8424 0.0
N1146 N 0.10933 0.10435 0.83929 0.0
N1147 N 0.17211 0.00862 0.84689 0.0
H1148 H 0.26573 0.85902 0.05425 0.0
H1149 H 0.05211 0.86001 0.09424 0.0
H1150 H 0.16757 0.94955 0.04492 0.0
H1151 H 0.17166 0.82148 0.11075 0.0
H1152 H 0.09104 0.89313 0.07594 0.0
H1153 H 0.22939 0.84313 0.07466 0.0
C1154 C 0.23659 0.87573 0.05643 0.0
C1155 C 0.21933 0.90522 0.04762 0.0
C1156 C 0.1086 0.87807 0.08373 0.0
C1157 C 0.17723 0.88662 0.07114 0.0
C1158 C 0.08645 0.85939 0.09419 0.0
C1159 C 0.10862 0.83733 0.10393 0.0
C1160 C 0.15298 0.87412 0.083 0.0
C1161 C 0.15315 0.8374 0.10334 0.0
C1162 C 0.21589 0.86668 0.06818 0.0
C1163 C 0.18158 0.92598 0.05127 0.0
N1164 N 0.17374 0.85476 0.09296 0.0
N1165 N 0.16138 0.9158 0.06265 0.0
H1166 H 0.29638 0.98698 0.30831 0.0
H1167 H 0.48264 0.8239 0.32516 0.0
H1168 H 0.40305 0.96355 0.2828 0.0
H1169 H 0.39159 0.87067 0.35322 0.0
H1170 H 0.44507 0.86245 0.30792 0.0
H1171 H 0.32263 0.93244 0.32325 0.0
C1172 C 0.32531 0.97022 0.30586 0.0
C1173 C 0.34829 0.98055 0.2945 0.0
C1174 C 0.43305 0.86373 0.31784 0.0
C1175 C 0.37821 0.91781 0.31143 0.0
C1176 C 0.45426 0.84151 0.32765 0.0
C1177 C 0.44053 0.84462 0.34066 0.0
C1178 C 0.39774 0.88881 0.32108 0.0
C1179 C 0.40367 0.86798 0.34335 0.0
C1180 C 0.34022 0.93907 0.31436 0.0
C1181 C 0.38497 0.95715 0.29161 0.0
N1182 N 0.38378 0.88945 0.33367 0.0
N1183 N 0.39908 0.92713 0.30009 0.0
H1184 H 0.69502 0.05864 0.54894 0.0
H1185 H 0.69008 0.17293 0.6182 0.0
H1186 H 0.80572 0.10471 0.569 0.0
H1187 H 0.57826 0.15648 0.5948 0.0
H1188 H 0.73112 0.13337 0.60216 0.0
H1189 H 0.65103 0.08172 0.5672 0.0
C1190 C 0.71026 0.07418 0.55701 0.0
C1191 C 0.7543 0.08187 0.55695 0.0
C1192 C 0.69749 0.13783 0.60059 0.0
C1193 C 0.70375 0.10642 0.57828 0.0
C1194 C 0.67394 0.16019 0.6098 0.0
C1195 C 0.63077 0.16848 0.60775 0.0
C1196 C 0.67789 0.1237 0.58918 0.0
C1197 C 0.61147 0.15084 0.59675 0.0
C1198 C 0.68494 0.08695 0.56753 0.0
C1199 C 0.7719 0.09975 0.56821 0.0
N1200 N 0.63534 0.12978 0.58775 0.0
N1201 N 0.7466 0.11172 0.57832 0.0
H1202 H 0.75546 0.04585 0.32661 0.0
H1203 H 0.61933 0.80854 0.33535 0.0
H1204 H 0.71787 0.94363 0.28932 0.0
H1205 H 0.62228 0.90812 0.36395 0.0
H1206 H 0.66789 0.85043 0.32144 0.0
H1207 H 0.71749 0.98324 0.34376 0.0
C1208 C 0.74527 0.01531 0.32305 0.0
C1209 C 0.73486 0.00472 0.30551 0.0
C1210 C 0.65833 0.86267 0.33086 0.0
C1211 C 0.69623 0.93135 0.32644 0.0
C1212 C 0.63106 0.83868 0.33882 0.0
C1213 C 0.61676 0.85515 0.35073 0.0
C1214 C 0.67164 0.90283 0.33501 0.0
C1215 C 0.63239 0.89457 0.35476 0.0
C1216 C 0.71967 0.97761 0.33339 0.0
C1217 C 0.72151 0.95083 0.29955 0.0
N1218 N 0.65891 0.91717 0.34688 0.0
N1219 N 0.6998 0.92119 0.31082 0.0
H1220 H 0.76546 0.8137 0.04164 0.0
H1221 H 0.88805 0.89365 0.10479 0.0
H1222 H 0.71245 0.896 0.071 0.0
H1223 H 0.92657 0.7835 0.08293 0.0
H1224 H 0.83378 0.90819 0.08857 0.0
H1225 H 0.83313 0.81414 0.05333 0.0
C1226 C 0.76834 0.83249 0.0504 0.0
C1227 C 0.73337 0.85524 0.05524 0.0
C1228 C 0.85459 0.88125 0.0872 0.0
C1229 C 0.81045 0.85587 0.06862 0.0
C1230 C 0.88579 0.87305 0.09641 0.0
C1231 C 0.91144 0.83684 0.09536 0.0
C1232 C 0.84881 0.85303 0.07685 0.0
C1233 C 0.90739 0.81166 0.08418 0.0
C1234 C 0.80685 0.83265 0.05705 0.0
C1235 C 0.73855 0.87846 0.06676 0.0
N1236 N 0.87605 0.81979 0.07546 0.0
N1237 N 0.7763 0.87813 0.07304 0.0
H1238 H 0.94911 0.02356 0.78706 0.0
H1239 H 0.87413 0.14122 0.85131 0.0
H1240 H 0.8184 0.02404 0.79974 0.0
H1241 H 0.98747 0.17696 0.8301 0.0
H1242 H 0.8533 0.09663 0.833 0.0
H1243 H 0.96509 0.07701 0.80353 0.0
C1244 C 0.92374 0.03514 0.79326 0.0
C1245 C 0.88225 0.01973 0.79192 0.0
C1246 C 0.8824 0.11475 0.83228 0.0
C1247 C 0.90041 0.08032 0.81092 0.0
C1248 C 0.89425 0.14029 0.84271 0.0
C1249 C 0.93261 0.16285 0.84225 0.0
C1250 C 0.90953 0.11103 0.82142 0.0
C1251 C 0.95749 0.16038 0.83085 0.0
C1252 C 0.93284 0.06568 0.80263 0.0
C1253 C 0.85074 0.03526 0.80038 0.0
N1254 N 0.94585 0.13438 0.82098 0.0
N1255 N 0.8605 0.06453 0.80956 0.0
H1256 H 0.79417 0.98904 0.42405 0.0
H1257 H 0.6586 0.79096 0.39953 0.0
H1258 H 0.84284 0.86205 0.42 0.0
H1259 H 0.61086 0.91927 0.39822 0.0
H1260 H 0.72439 0.81686 0.40854 0.0
H1261 H 0.72508 0.96448 0.41615 0.0
C1262 C 0.79013 0.95595 0.4216 0.0
C1263 C 0.82413 0.92743 0.42275 0.0
C1264 C 0.69967 0.8395 0.40628 0.0
C1265 C 0.74563 0.89927 0.41366 0.0
C1266 C 0.66189 0.82473 0.4011 0.0
C1267 C 0.62899 0.85301 0.39803 0.0
C1268 C 0.70501 0.88301 0.40845 0.0
C1269 C 0.63536 0.89634 0.40041 0.0
C1270 C 0.75085 0.94201 0.41706 0.0
C1271 C 0.81744 0.88501 0.41935 0.0
N1272 N 0.67271 0.91007 0.40548 0.0
N1273 N 0.77904 0.87227 0.41497 0.0
H1274 H 0.98564 0.01076 0.22343 0.0
H1275 H 0.87875 0.88812 0.1642 0.0
H1276 H 0.85015 0.99975 0.21921 0.0
H1277 H 0.00445 0.85983 0.17814 0.0
H1278 H 0.86997 0.93909 0.18197 0.0
H1279 H 0.99531 0.96541 0.20431 0.0
C1280 C 0.95797 0.99886 0.21844 0.0
C1281 C 0.91703 0.00841 0.22301 0.0
C1282 C 0.89945 0.92171 0.1811 0.0
C1283 C 0.92783 0.95724 0.20108 0.0
C1284 C 0.90454 0.89276 0.17095 0.0
C1285 C 0.94224 0.86944 0.16977 0.0
C1286 C 0.93257 0.9279 0.18995 0.0
C1287 C 0.97464 0.87672 0.1788 0.0
C1288 C 0.96349 0.97302 0.20757 0.0
C1289 C 0.88223 0.99279 0.21607 0.0
N1290 N 0.96911 0.9054 0.18849 0.0
N1291 N 0.8884 0.96792 0.20545 0.0
H1292 H 0.77259 0.06766 0.96357 0.0
H1293 H 0.92304 0.2366 0.9283 0.0
H1294 H 0.77196 0.20026 0.97355 0.0
H1295 H 0.88759 0.11816 0.91054 0.0
H1296 H 0.87301 0.22193 0.94615 0.0
H1297 H 0.81946 0.08372 0.94504 0.0
C1298 C 0.78234 0.10015 0.96185 0.0
C1299 C 0.76891 0.13257 0.97021 0.0
C1300 C 0.87616 0.19926 0.93832 0.0
C1301 C 0.82269 0.15115 0.94912 0.0
C1302 C 0.90488 0.20746 0.92817 0.0
C1303 C 0.9096 0.1785 0.91792 0.0
C1304 C 0.85248 0.16155 0.93832 0.0
C1305 C 0.8849 0.14145 0.91821 0.0
C1306 C 0.809 0.10931 0.95127 0.0
C1307 C 0.78214 0.17423 0.96746 0.0
N1308 N 0.85764 0.1339 0.92829 0.0
N1309 N 0.80865 0.18228 0.95722 0.0
H1310 H 0.74333 0.00511 0.70163 0.0
H1311 H 0.54746 0.15319 0.66504 0.0
H1312 H 0.58955 0.02429 0.71808 0.0
H1313 H 0.68013 0.18026 0.65826 0.0
H1314 H 0.56713 0.10024 0.68121 0.0
H1315 H 0.72286 0.06945 0.68233 0.0
C1316 C 0.71345 0.02193 0.70182 0.0
C1317 C 0.66581 0.00235 0.71093 0.0
C1318 C 0.59195 0.11769 0.67617 0.0
C1319 C 0.64671 0.08017 0.6891 0.0
C1320 C 0.58082 0.14779 0.66685 0.0
C1321 C 0.61225 0.17144 0.6603 0.0
C1322 C 0.63478 0.11061 0.67887 0.0
C1323 C 0.65493 0.16294 0.66315 0.0
C1324 C 0.6996 0.05959 0.68954 0.0
C1325 C 0.61651 0.03406 0.7122 0.0
N1326 N 0.66505 0.13298 0.67224 0.0
N1327 N 0.61115 0.06742 0.70017 0.0
H1328 H 0.70859 0.40728 0.92201 0.0
H1329 H 0.95905 0.40727 0.9112 0.0
H1330 H 0.79304 0.48073 0.94585 0.0
H1331 H 0.87872 0.30369 0.89944 0.0
H1332 H 0.89766 0.44068 0.9217 0.0
H1333 H 0.77 0.37467 0.91141 0.0
C1334 C 0.74007 0.41613 0.92514 0.0
C1335 C 0.74579 0.44585 0.93511 0.0
C1336 C 0.89359 0.41064 0.91682 0.0
C1337 C 0.81611 0.40971 0.92269 0.0
C1338 C 0.92851 0.39167 0.91077 0.0
C1339 C 0.92402 0.35258 0.90446 0.0
C1340 C 0.85384 0.3907 0.91637 0.0
C1341 C 0.8837 0.33372 0.90425 0.0
C1342 C 0.77508 0.39764 0.91904 0.0
C1343 C 0.78735 0.45724 0.93842 0.0
N1344 N 0.85014 0.35304 0.91007 0.0
N1345 N 0.82098 0.4392 0.93221 0.0
H1346 H 0.78892 0.55814 0.20585 0.0
H1347 H 0.95822 0.63983 0.15362 0.0
H1348 H 0.85092 0.47419 0.17866 0.0
H1349 H 0.85721 0.71985 0.16786 0.0
H1350 H 0.92591 0.57947 0.165 0.0
H1351 H 0.82034 0.61888 0.19426 0.0
C1352 C 0.80946 0.55253 0.19752 0.0
C1353 C 0.81786 0.51101 0.19338 0.0
C1354 C 0.91079 0.61022 0.1656 0.0
C1355 C 0.85378 0.58017 0.18009 0.0
C1356 C 0.92926 0.64473 0.15916 0.0
C1357 C 0.91037 0.68497 0.15981 0.0
C1358 C 0.87356 0.61607 0.17294 0.0
C1359 C 0.87273 0.68937 0.16707 0.0
C1360 C 0.82712 0.58712 0.19088 0.0
C1361 C 0.84412 0.5055 0.18238 0.0
N1362 N 0.85571 0.65537 0.17345 0.0
N1363 N 0.86144 0.53967 0.17619 0.0
H1364 H 0.78628 0.71741 0.46251 0.0
H1365 H 0.64272 0.62162 0.40632 0.0
H1366 H 0.77937 0.58385 0.45401 0.0
H1367 H 0.62083 0.74595 0.4224 0.0
H1368 H 0.69623 0.60878 0.42292 0.0
H1369 H 0.7284 0.73024 0.44712 0.0
C1370 C 0.77268 0.69089 0.45735 0.0
C1371 C 0.78836 0.64971 0.45924 0.0
C1372 C 0.67955 0.63878 0.42287 0.0
C1373 C 0.72221 0.66396 0.4418 0.0
C1374 C 0.64912 0.6462 0.41337 0.0
C1375 C 0.62728 0.6849 0.41299 0.0
C1376 C 0.68872 0.67049 0.43197 0.0
C1377 C 0.63672 0.71553 0.42241 0.0
C1378 C 0.73961 0.69816 0.44864 0.0
C1379 C 0.76897 0.61624 0.45258 0.0
N1380 N 0.66703 0.70779 0.43147 0.0
N1381 N 0.73722 0.62416 0.44406 0.0
H1382 H 0.6151 0.57612 0.68528 0.0
H1383 H 0.53911 0.33705 0.67859 0.0
H1384 H 0.53041 0.51682 0.71315 0.0
H1385 H 0.64637 0.38954 0.65756 0.0
H1386 H 0.53565 0.40146 0.69166 0.0
H1387 H 0.62715 0.50728 0.67519 0.0
C1388 C 0.59912 0.54852 0.6893 0.0
C1389 C 0.57117 0.55232 0.69992 0.0
C1390 C 0.56035 0.39852 0.68432 0.0
C1391 C 0.58465 0.47329 0.68839 0.0
C1392 C 0.56248 0.36165 0.67686 0.0
C1393 C 0.59296 0.35779 0.66686 0.0
C1394 C 0.58876 0.43186 0.68174 0.0
C1395 C 0.62212 0.39104 0.66507 0.0
C1396 C 0.60607 0.50919 0.68356 0.0
C1397 C 0.55167 0.51539 0.70483 0.0
N1398 N 0.619 0.42675 0.67233 0.0
N1399 N 0.55837 0.47746 0.69892 0.0
H1400 H 0.79169 0.63427 0.05251 0.0
H1401 H 0.84936 0.67775 0.12637 0.0
H1402 H 0.70256 0.62782 0.08456 0.0
H1403 H 0.94183 0.68096 0.09524 0.0
H1404 H 0.79903 0.64396 0.11177 0.0
H1405 H 0.84993 0.63778 0.06821 0.0
C1406 C 0.78451 0.63269 0.06285 0.0
C1407 C 0.74226 0.63086 0.06725 0.0
C1408 C 0.83061 0.65103 0.10816 0.0
C1409 C 0.8085 0.63527 0.08524 0.0
C1410 C 0.85944 0.66996 0.11655 0.0
C1411 C 0.89962 0.68208 0.11197 0.0
C1412 C 0.84167 0.64522 0.09499 0.0
C1413 C 0.91117 0.67171 0.09914 0.0
C1414 C 0.8177 0.63473 0.0718 0.0
C1415 C 0.73463 0.62923 0.08074 0.0
N1416 N 0.88194 0.65472 0.09098 0.0
N1417 N 0.76733 0.63189 0.08923 0.0
H1418 H 0.61263 0.44471 0.31653 0.0
H1419 H 0.53996 0.68061 0.32616 0.0
H1420 H 0.53744 0.51054 0.28788 0.0
H1421 H 0.64187 0.62288 0.34781 0.0
H1422 H 0.54465 0.6232 0.31032 0.0
H1423 H 0.62942 0.51238 0.32659 0.0
C1424 C 0.59989 0.47351 0.3123 0.0
C1425 C 0.57257 0.47181 0.30159 0.0
C1426 C 0.56669 0.62368 0.31836 0.0
C1427 C 0.59136 0.54969 0.31315 0.0
C1428 C 0.56426 0.65669 0.32739 0.0
C1429 C 0.58997 0.65617 0.33852 0.0
C1430 C 0.59478 0.58985 0.32056 0.0
C1431 C 0.62077 0.62418 0.33954 0.0
C1432 C 0.60958 0.51223 0.31802 0.0
C1433 C 0.55764 0.51027 0.29636 0.0
N1434 N 0.6217 0.59191 0.33085 0.0
N1435 N 0.56649 0.5476 0.30235 0.0
H1436 H 0.75444 0.33468 0.5356 0.0
H1437 H 0.65511 0.38412 0.60515 0.0
H1438 H 0.78623 0.44551 0.55791 0.0
H1439 H 0.60636 0.28707 0.57983 0.0
H1440 H 0.69872 0.41092 0.58718 0.0
H1441 H 0.69598 0.31995 0.55081 0.0
C1442 C 0.74904 0.35586 0.54372 0.0
C1443 C 0.77608 0.39044 0.54579 0.0
C1444 C 0.67805 0.38414 0.58548 0.0
C1445 C 0.70913 0.37419 0.56313 0.0
C1446 C 0.65315 0.36879 0.59575 0.0
C1447 C 0.62751 0.33292 0.59404 0.0
C1448 C 0.67786 0.36311 0.57345 0.0
C1449 C 0.62581 0.31469 0.5816 0.0
C1450 C 0.71558 0.34762 0.55235 0.0
C1451 C 0.76694 0.41773 0.55621 0.0
N1452 N 0.65125 0.32955 0.57184 0.0
N1453 N 0.73463 0.40865 0.5646 0.0
H1454 H 0.81269 0.53605 0.83214 0.0
H1455 H 0.91839 0.30772 0.84269 0.0
H1456 H 0.83516 0.44859 0.80067 0.0
H1457 H 0.93648 0.41289 0.86874 0.0
H1458 H 0.8736 0.35312 0.82892 0.0
H1459 H 0.84479 0.4854 0.84729 0.0
C1460 C 0.82466 0.50631 0.8284 0.0
C1461 C 0.82266 0.4971 0.81503 0.0
C1462 C 0.88698 0.36598 0.83775 0.0
C1463 C 0.85806 0.43844 0.8324 0.0
C1464 C 0.91215 0.34004 0.84565 0.0
C1465 C 0.9313 0.35677 0.85679 0.0
C1466 C 0.88054 0.4086 0.84117 0.0
C1467 C 0.92259 0.39895 0.86015 0.0
C1468 C 0.84273 0.47733 0.83706 0.0
C1469 C 0.83717 0.45733 0.81084 0.0
N1470 N 0.89798 0.42345 0.85235 0.0
N1471 N 0.85447 0.42951 0.81948 0.0
H1472 H 0.2844 0.58103 0.07469 0.0
H1473 H 0.079 0.72228 0.08259 0.0
H1474 H 0.24419 0.67191 0.04572 0.0
H1475 H 0.11203 0.62007 0.10875 0.0
H1476 H 0.13114 0.69578 0.06685 0.0
H1477 H 0.21534 0.58705 0.08541 0.0
C1478 C 0.26066 0.60152 0.07041 0.0
C1479 C 0.26987 0.62563 0.05919 0.0
C1480 C 0.12624 0.67851 0.0759 0.0
C1481 C 0.19101 0.63376 0.07166 0.0
C1482 C 0.09609 0.69339 0.08484 0.0
C1483 C 0.09173 0.67378 0.09709 0.0
C1484 C 0.15221 0.64399 0.07932 0.0
C1485 C 0.11496 0.63662 0.0995 0.0
C1486 C 0.22119 0.60507 0.07656 0.0
C1487 C 0.23816 0.65244 0.05427 0.0
N1488 N 0.14477 0.62343 0.09082 0.0
N1489 N 0.20036 0.65617 0.06061 0.0
H1490 H 0.16847 0.5517 0.81431 0.0
H1491 H 0.05588 0.31006 0.82923 0.0
H1492 H 0.10953 0.45477 0.77835 0.0
H1493 H 0.14183 0.37326 0.85535 0.0
H1494 H 0.07846 0.35855 0.81174 0.0
H1495 H 0.15567 0.48026 0.83163 0.0
C1496 C 0.15314 0.52295 0.81111 0.0
C1497 C 0.14667 0.50899 0.79364 0.0
C1498 C 0.09294 0.36104 0.82124 0.0
C1499 C 0.12878 0.4291 0.81486 0.0
C1500 C 0.08024 0.33326 0.83123 0.0
C1501 C 0.09626 0.33808 0.8439 0.0
C1502 C 0.12138 0.39386 0.82404 0.0
C1503 C 0.12784 0.36881 0.84585 0.0
C1504 C 0.14784 0.47788 0.82142 0.0
C1505 C 0.11566 0.46193 0.78846 0.0
N1506 N 0.13865 0.3961 0.83611 0.0
N1507 N 0.11356 0.42519 0.79968 0.0
H1508 H 0.35623 0.41596 0.54336 0.0
H1509 H 0.38479 0.35918 0.6172 0.0
H1510 H 0.28226 0.47685 0.57349 0.0
H1511 H 0.48766 0.34574 0.58962 0.0
H1512 H 0.3472 0.40369 0.60148 0.0
H1513 H 0.40479 0.3898 0.55996 0.0
C1514 C 0.3506 0.4247 0.5534 0.0
C1515 C 0.3156 0.4498 0.55698 0.0
C1516 C 0.37839 0.39183 0.59895 0.0
C1517 C 0.37046 0.41849 0.57608 0.0
C1518 C 0.39984 0.36658 0.60792 0.0
C1519 C 0.43924 0.34899 0.60464 0.0
C1520 C 0.39598 0.39845 0.58648 0.0
C1521 C 0.45742 0.35911 0.5925 0.0
C1522 C 0.37843 0.40966 0.56289 0.0
C1523 C 0.30928 0.45841 0.57027 0.0
N1524 N 0.43519 0.38253 0.58371 0.0
N1525 N 0.33621 0.44255 0.57934 0.0
H1526 H 0.33013 0.56999 0.29976 0.0
H1527 H 0.43903 0.60295 0.36889 0.0
H1528 H 0.39748 0.47357 0.3214 0.0
H1529 H 0.4276 0.70527 0.34106 0.0
H1530 H 0.39992 0.55688 0.35423 0.0
H1531 H 0.34551 0.6207 0.31717 0.0
C1532 C 0.34805 0.55942 0.30813 0.0
C1533 C 0.36349 0.51761 0.30885 0.0
C1534 C 0.4051 0.58967 0.35144 0.0
C1535 C 0.37945 0.57494 0.32899 0.0
C1536 C 0.42706 0.61605 0.35984 0.0
C1537 C 0.43698 0.65771 0.35607 0.0
C1538 C 0.39309 0.60497 0.33915 0.0
C1539 C 0.42056 0.67327 0.3443 0.0
C1540 C 0.3565 0.5883 0.31807 0.0
C1541 C 0.38541 0.50542 0.32016 0.0
N1542 N 0.40002 0.64655 0.33608 0.0
N1543 N 0.39277 0.53396 0.32972 0.0
H1544 H 0.24112 0.4222 0.96473 0.0
H1545 H 0.08919 0.25866 0.92879 0.0
H1546 H 0.24369 0.28786 0.97278 0.0
H1547 H 0.12334 0.3805 0.91242 0.0
H1548 H 0.13904 0.27084 0.94663 0.0
H1549 H 0.19177 0.40941 0.94688 0.0
C1550 C 0.2312 0.39002 0.96275 0.0
C1551 C 0.24599 0.35613 0.97037 0.0
C1552 C 0.13554 0.29484 0.93911 0.0
C1553 C 0.18941 0.34126 0.95003 0.0
C1554 C 0.10692 0.28806 0.929 0.0
C1555 C 0.10208 0.31863 0.91911 0.0
C1556 C 0.15894 0.33271 0.93944 0.0
C1557 C 0.12619 0.35597 0.91979 0.0
C1558 C 0.20311 0.38273 0.95256 0.0
C1559 C 0.23248 0.31496 0.96728 0.0
N1560 N 0.15339 0.36204 0.92981 0.0
N1561 N 0.20465 0.3087 0.95742 0.0
H1562 H 0.45542 0.53476 0.6972 0.0
H1563 H 0.37361 0.33273 0.65786 0.0
H1564 H 0.32527 0.49307 0.698 0.0
H1565 H 0.49906 0.38639 0.6537 0.0
H1566 H 0.3542 0.39179 0.67215 0.0
H1567 H 0.47157 0.48056 0.681 0.0
C1568 C 0.43013 0.5146 0.69379 0.0
C1569 C 0.38879 0.51896 0.69874 0.0
C1570 C 0.38585 0.39069 0.66801 0.0
C1571 C 0.40701 0.45623 0.68037 0.0
C1572 C 0.3969 0.35705 0.65983 0.0
C1573 C 0.43807 0.35435 0.65462 0.0
C1574 C 0.41628 0.42165 0.67104 0.0
C1575 C 0.46698 0.38684 0.65753 0.0
C1576 C 0.43931 0.48355 0.68458 0.0
C1577 C 0.35739 0.49118 0.69426 0.0
N1578 N 0.45562 0.41885 0.6656 0.0
N1579 N 0.36714 0.46095 0.68534 0.0
H1580 H 0.30587 0.70583 0.46732 0.0
H1581 H 0.40571 0.64668 0.39077 0.0
H1582 H 0.22412 0.62833 0.43116 0.0
H1583 H 0.47906 0.6971 0.42235 0.0
H1584 H 0.3446 0.63923 0.40569 0.0
H1585 H 0.37672 0.70606 0.44928 0.0
C1586 C 0.30267 0.69487 0.45739 0.0
C1587 C 0.25831 0.66059 0.452 0.0
C1588 C 0.37431 0.65118 0.4094 0.0
C1589 C 0.34115 0.66617 0.43117 0.0
C1590 C 0.40909 0.655 0.40095 0.0
C1591 C 0.44718 0.67183 0.40551 0.0
C1592 C 0.37794 0.66504 0.42233 0.0
C1593 C 0.45012 0.68341 0.41862 0.0
C1594 C 0.34676 0.69218 0.44654 0.0
C1595 C 0.25132 0.64574 0.43462 0.0
N1596 N 0.41572 0.68017 0.42658 0.0
N1597 N 0.29566 0.64692 0.42639 0.0
H1598 H 0.22345 0.53575 0.21607 0.0
H1599 H 0.02828 0.69373 0.1824 0.0
H1600 H 0.06456 0.53113 0.22836 0.0
H1601 H 0.15237 0.67202 0.16567 0.0
H1602 H 0.04789 0.64935 0.20118 0.0
H1603 H 0.20142 0.60602 0.19927 0.0
C1604 C 0.19196 0.54933 0.21615 0.0
C1605 C 0.14464 0.5207 0.22266 0.0
C1606 C 0.07081 0.65475 0.19343 0.0
C1607 C 0.12303 0.60636 0.20415 0.0
C1608 C 0.05975 0.68005 0.18275 0.0
C1609 C 0.08866 0.68613 0.17243 0.0
C1610 C 0.11119 0.63627 0.1938 0.0
C1611 C 0.12896 0.66763 0.17334 0.0
C1612 C 0.17753 0.59106 0.20536 0.0
C1613 C 0.09174 0.5464 0.22386 0.0
N1614 N 0.13905 0.64348 0.18386 0.0
N1615 N 0.08603 0.58488 0.21335 0.0
loop_
_geom_bond_atom_site_label_1
_geom_bond_atom_site_label_2
_geom_bond_distance
_geom_bond_site_symmetry_2
_ccdc_geom_bond_type
C0 C1 1.560 . S
C0 H61 0.959 . S
C0 H62 0.959 . S
C0 H63 0.960 . S
C1 C0 1.560 . S
C1 O56 1.426 . S
C1 H60 0.980 . S
C2 C3 1.407 . S
C2 C7 1.418 . S
C2 O56 1.334 . S
C3 C2 1.407 . S
C3 C4 1.360 . S
C3 H64 0.929 . S
C4 C3 1.360 . S
C4 C5 1.401 . S
C4 C8 1.527 . S
C5 C4 1.401 . S
C5 C6 1.405 . S
C5 C38 1.587 . S
C6 C5 1.405 . S
C6 C7 1.332 . S
C6 C9 1.496 1_565 S
C7 C2 1.418 . S
C7 C6 1.332 . S
C7 H65 0.929 1_565 S
C8 C4 1.527 . S
C8 H66 0.959 . S
C8 H67 0.961 . S
C8 H68 0.961 . S
C9 C6 1.496 1_545 S
C9 H69 0.960 . S
C9 H70 0.960 . S
C9 H71 0.961 . S
C10 C11 1.517 . S
C10 H73 0.961 . S
C10 H74 0.960 . S
C10 H75 0.959 . S
C11 C10 1.517 . S
C11 O59 1.468 . S
C11 H72 0.980 . S
C12 C13 1.349 . S
C12 C17 1.367 . S
C12 O59 1.408 . S
C13 C12 1.349 . S
C13 C14 1.407 . S
C13 H76 0.930 . S
C14 C13 1.407 . S
C14 C15 1.449 . S
C14 C18 1.535 . S
C15 C14 1.449 . S
C15 C16 1.384 . S
C15 C40 1.553 . S
C16 C15 1.384 . S
C16 C17 1.364 . S
C16 C19 1.450 . S
C17 C12 1.367 . S
C17 C16 1.364 . S
C17 H77 0.931 . S
C18 C14 1.535 . S
C18 H78 0.959 . S
C18 H79 0.961 . S
C18 H80 0.959 1_565 S
C19 C16 1.450 . S
C19 H81 0.960 . S
C19 H82 0.960 . S
C19 H83 0.960 . S
C20 C21 1.309 . S
C20 C25 1.304 . S
C20 O58 1.435 . S
C21 C20 1.309 . S
C21 C22 1.476 . S
C21 H85 0.930 . S
C22 C21 1.476 . S
C22 C23 1.400 . S
C22 C26 1.567 . S
C23 C22 1.400 . S
C23 C24 1.373 . S
C23 C45 1.432 . S
C24 C23 1.373 . S
C24 C25 1.339 . S
C24 C27 1.530 1_545 S
C25 C20 1.304 . S
C25 C24 1.339 . S
C25 H86 0.930 . S
C26 C22 1.567 . S
C26 H87 0.961 . S
C26 H88 0.960 . S
C26 H89 0.958 . S
C27 C24 1.530 1_565 S
C27 H90 0.961 . S
C27 H91 0.960 . S
C27 H92 0.960 . S
C28 C29 1.530 . S
C28 H94 0.961 . S
C28 H95 0.961 . S
C28 H96 0.959 . S
C29 C28 1.530 . S
C29 O57 1.412 . S
C29 H93 0.980 . S
C30 C31 1.288 . S
C30 C35 1.377 . S
C30 O57 1.393 . S
C31 C30 1.288 . S
C31 C32 1.369 . S
C31 H97 0.932 . S
C32 C31 1.369 . S
C32 C33 1.398 . S
C32 C36 1.527 . S
C33 C32 1.398 . S
C33 C34 1.380 . S
C33 C47 1.497 . S
C34 C33 1.380 . S
C34 C35 1.383 . S
C34 C37 1.603 . S
C35 C30 1.377 . S
C35 C34 1.383 . S
C35 H98 0.929 . S
C36 C32 1.527 . S
C36 H99 0.961 . S
C36 H100 0.959 . S
C36 H101 0.959 . S
C37 C34 1.603 . S
C37 H102 0.960 . S
C37 H103 0.961 1_545 S
C37 H104 0.961 1_545 S
C38 C5 1.587 . S
C38 C39 1.360 1_655 S
C38 C51 1.412 . S
C39 C38 1.360 1_455 S
C39 C40 1.365 . S
C39 H105 0.929 . S
C40 C15 1.553 . S
C40 C39 1.365 . S
C40 C41 1.404 . S
C41 C40 1.404 . S
C41 C42 1.395 . S
C41 C52 1.451 . S
C42 C41 1.395 . S
C42 C43 1.322 . S
C42 H106 0.930 . S
C43 C42 1.322 . S
C43 C44 1.459 1_565 S
C43 H107 0.929 . S
C44 C43 1.459 1_545 S
C44 C45 1.445 . S
C44 C53 1.395 . S
C45 C23 1.432 . S
C45 C44 1.445 . S
C45 C46 1.370 . S
C46 C45 1.370 . S
C46 C47 1.438 1_455 S
C46 H108 0.930 . S
C47 C33 1.497 . S
C47 C46 1.438 1_655 S
C47 C48 1.360 . S
C48 C47 1.360 . S
C48 C49 1.401 . S
C48 C53 1.446 1_655 S
C49 C48 1.401 . S
C49 C50 1.347 1_545 S
C49 H109 0.929 . S
C50 C49 1.347 1_565 S
C50 C51 1.455 . S
C50 H110 0.930 . S
C51 C38 1.412 . S
C51 C50 1.455 . S
C51 C52 1.331 1_655 S
C52 C41 1.451 . S
C52 C51 1.331 1_455 S
C52 C53 1.497 1_565 S
C53 C44 1.395 . S
C53 C48 1.446 1_455 S
C53 C52 1.497 1_545 S
C54 C55 1.582 . S
C54 H111 0.962 . S
C54 H112 0.959 . S
C54 H113 0.958 . S
C55 C54 1.582 . S
C55 O58 1.458 . S
C55 H84 0.980 . S
O56 C1 1.426 . S
O56 C2 1.334 . S
O57 C29 1.412 . S
O57 C30 1.393 . S
O58 C20 1.435 . S
O58 C55 1.458 . S
O59 C11 1.468 . S
O59 C12 1.408 . S
H60 C1 0.980 . S
H61 C0 0.959 . S
H62 C0 0.959 . S
H63 C0 0.960 . S
H64 C3 0.929 . S
H65 C7 0.929 1_545 S
H66 C8 0.959 . S
H67 C8 0.961 . S
H68 C8 0.961 . S
H69 C9 0.960 . S
H70 C9 0.960 . S
H71 C9 0.961 . S
H72 C11 0.980 . S
H73 C10 0.961 . S
H74 C10 0.960 . S
H75 C10 0.959 . S
H76 C13 0.930 . S
H77 C17 0.931 . S
H78 C18 0.959 . S
H79 C18 0.961 . S
H80 C18 0.959 1_545 S
H81 C19 0.960 . S
H82 C19 0.960 . S
H83 C19 0.960 . S
H84 C55 0.980 . S
H85 C21 0.930 . S
H86 C25 0.930 . S
H87 C26 0.961 . S
H88 C26 0.960 . S
H89 C26 0.958 . S
H90 C27 0.961 . S
H91 C27 0.960 . S
H92 C27 0.960 . S
H93 C29 0.980 . S
H94 C28 0.961 . S
H95 C28 0.961 . S
H96 C28 0.959 . S
H97 C31 0.932 . S
H98 C35 0.929 . S
H99 C36 0.961 . S
H100 C36 0.959 . S
H101 C36 0.959 . S
H102 C37 0.960 . S
H103 C37 0.961 1_565 S
H104 C37 0.961 1_565 S
H105 C39 0.929 . S
H106 C42 0.930 . S
H107 C43 0.929 . S
H108 C46 0.930 . S
H109 C49 0.929 . S
H110 C50 0.930 . S
H111 C54 0.962 . S
H112 C54 0.959 . S
H113 C54 0.958 . S
C114 C115 1.560 . S
C114 H175 0.959 . S
C114 H176 0.959 . S
C114 H177 0.960 . S
C115 C114 1.560 . S
C115 O170 1.426 . S
C115 H174 0.980 . S
C116 C117 1.407 . S
C116 C121 1.418 . S
C116 O170 1.334 . S
C117 C116 1.407 . S
C117 C118 1.360 . S
C117 H178 0.929 . S
C118 C117 1.360 . S
C118 C119 1.401 . S
C118 C122 1.527 . S
C119 C118 1.401 . S
C119 C120 1.405 . S
C119 C152 1.587 . S
C120 C119 1.405 . S
C120 C121 1.332 . S
C120 C123 1.496 . S
C121 C116 1.418 . S
C121 C120 1.332 . S
C121 H179 0.929 . S
C122 C118 1.527 . S
C122 H180 0.959 . S
C122 H181 0.961 . S
C122 H182 0.961 . S
C123 C120 1.496 . S
C123 H183 0.960 . S
C123 H184 0.960 . S
C123 H185 0.961 . S
C124 C125 1.517 . S
C124 H187 0.961 . S
C124 H188 0.960 . S
C124 H189 0.959 . S
C125 C124 1.517 . S
C125 O173 1.468 . S
C125 H186 0.980 . S
C126 C127 1.349 . S
C126 C131 1.367 . S
C126 O173 1.408 . S
C127 C126 1.349 . S
C127 C128 1.407 . S
C127 H190 0.930 . S
C128 C127 1.407 . S
C128 C129 1.449 . S
C128 C132 1.535 . S
C129 C128 1.449 . S
C129 C130 1.384 . S
C129 C154 1.553 . S
C130 C129 1.384 . S
C130 C131 1.364 . S
C130 C133 1.450 . S
C131 C126 1.367 . S
C131 C130 1.364 . S
C131 H191 0.931 . S
C132 C128 1.535 . S
C132 H192 0.959 . S
C132 H193 0.961 . S
C132 H194 0.959 . S
C133 C130 1.450 . S
C133 H195 0.960 . S
C133 H196 0.960 . S
C133 H197 0.960 . S
C134 C135 1.309 . S
C134 C139 1.304 . S
C134 O172 1.435 . S
C135 C134 1.309 . S
C135 C136 1.476 . S
C135 H199 0.930 . S
C136 C135 1.476 . S
C136 C137 1.400 . S
C136 C140 1.567 . S
C137 C136 1.400 . S
C137 C138 1.373 . S
C137 C159 1.432 . S
C138 C137 1.373 . S
C138 C139 1.339 . S
C138 C141 1.530 . S
C139 C134 1.304 . S
C139 C138 1.339 . S
C139 H200 0.930 . S
C140 C136 1.567 . S
C140 H201 0.961 . S
C140 H202 0.960 . S
C140 H203 0.958 . S
C141 C138 1.530 . S
C141 H204 0.961 . S
C141 H205 0.960 . S
C141 H206 0.960 . S
C142 C143 1.530 1_545 S
C142 H208 0.961 . S
C142 H209 0.961 . S
C142 H210 0.959 1_545 S
C143 C142 1.530 1_565 S
C143 O171 1.412 . S
C143 H207 0.980 . S
C144 C145 1.288 . S
C144 C149 1.377 . S
C144 O171 1.393 . S
C145 C144 1.288 . S
C145 C146 1.369 . S
C145 H211 0.932 . S
C146 C145 1.369 . S
C146 C147 1.398 . S
C146 C150 1.527 . S
C147 C146 1.398 . S
C147 C148 1.380 . S
C147 C161 1.497 . S
C148 C147 1.380 . S
C148 C149 1.383 . S
C148 C151 1.603 . S
C149 C144 1.377 . S
C149 C148 1.383 . S
C149 H212 0.929 . S
C150 C146 1.527 . S
C150 H213 0.961 . S
C150 H214 0.959 . S
C150 H215 0.959 . S
C151 C148 1.603 . S
C151 H216 0.960 . S
C151 H217 0.962 . S
C151 H218 0.961 . S
C152 C119 1.587 . S
C152 C153 1.360 . S
C152 C165 1.412 . S
C153 C152 1.360 . S
C153 C154 1.365 . S
C153 H219 0.929 . S
C154 C129 1.553 . S
C154 C153 1.365 . S
C154 C155 1.404 . S
C155 C154 1.404 . S
C155 C156 1.395 . S
C155 C166 1.451 . S
C156 C155 1.395 . S
C156 C157 1.322 . S
C156 H220 0.930 . S
C157 C156 1.322 . S
C157 C158 1.459 . S
C157 H221 0.929 . S
C158 C157 1.459 . S
C158 C159 1.445 . S
C158 C167 1.395 . S
C159 C137 1.432 . S
C159 C158 1.445 . S
C159 C160 1.370 . S
C160 C159 1.370 . S
C160 C161 1.438 . S
C160 H222 0.930 . S
C161 C147 1.497 . S
C161 C160 1.438 . S
C161 C162 1.360 . S
C162 C161 1.360 . S
C162 C163 1.401 . S
C162 C167 1.446 . S
C163 C162 1.401 . S
C163 C164 1.347 . S
C163 H223 0.929 . S
C164 C163 1.347 . S
C164 C165 1.455 . S
C164 H224 0.930 . S
C165 C152 1.412 . S
C165 C164 1.455 . S
C165 C166 1.331 . S
C166 C155 1.451 . S
C166 C165 1.331 . S
C166 C167 1.497 . S
C167 C158 1.395 . S
C167 C162 1.446 . S
C167 C166 1.497 . S
C168 C169 1.582 . S
C168 H225 0.962 . S
C168 H226 0.959 . S
C168 H227 0.958 . S
C169 C168 1.582 . S
C169 O172 1.458 . S
C169 H198 0.980 . S
O170 C115 1.426 . S
O170 C116 1.334 . S
O171 C143 1.412 . S
O171 C144 1.393 . S
O172 C134 1.435 . S
O172 C169 1.458 . S
O173 C125 1.468 . S
O173 C126 1.408 . S
H174 C115 0.980 . S
H175 C114 0.959 . S
H176 C114 0.959 . S
H177 C114 0.960 . S
H178 C117 0.929 . S
H179 C121 0.929 . S
H180 C122 0.959 . S
H181 C122 0.961 . S
H182 C122 0.961 . S
H183 C123 0.960 . S
H184 C123 0.960 . S
H185 C123 0.961 . S
H186 C125 0.980 . S
H187 C124 0.961 . S
H188 C124 0.960 . S
H189 C124 0.959 . S
H190 C127 0.930 . S
H191 C131 0.931 . S
H192 C132 0.959 . S
H193 C132 0.961 . S
H194 C132 0.959 . S
H195 C133 0.960 . S
H196 C133 0.960 . S
H197 C133 0.960 . S
H198 C169 0.980 . S
H199 C135 0.930 . S
H200 C139 0.930 . S
H201 C140 0.961 . S
H202 C140 0.960 . S
H203 C140 0.958 . S
H204 C141 0.961 . S
H205 C141 0.960 . S
H206 C141 0.960 . S
H207 C143 0.980 . S
H208 C142 0.961 . S
H209 C142 0.961 . S
H210 C142 0.959 1_565 S
H211 C145 0.932 . S
H212 C149 0.929 . S
H213 C150 0.961 . S
H214 C150 0.959 . S
H215 C150 0.959 . S
H216 C151 0.960 . S
H217 C151 0.962 . S
H218 C151 0.961 . S
H219 C153 0.929 . S
H220 C156 0.930 . S
H221 C157 0.929 . S
H222 C160 0.930 . S
H223 C163 0.929 . S
H224 C164 0.930 . S
H225 C168 0.962 . S
H226 C168 0.959 . S
H227 C168 0.958 . S
C228 C229 1.560 . S
C228 H289 0.959 . S
C228 H290 0.959 . S
C228 H291 0.960 . S
C229 C228 1.560 . S
C229 O284 1.426 . S
C229 H288 0.980 . S
C230 C231 1.407 . S
C230 C235 1.418 . S
C230 O284 1.334 . S
C231 C230 1.407 . S
C231 C232 1.360 . S
C231 H292 0.929 . S
C232 C231 1.360 . S
C232 C233 1.401 . S
C232 C236 1.527 . S
C233 C232 1.401 . S
C233 C234 1.405 . S
C233 C266 1.587 . S
C234 C233 1.405 . S
C234 C235 1.332 . S
C234 C237 1.496 1_565 S
C235 C230 1.418 . S
C235 C234 1.332 . S
C235 H293 0.929 . S
C236 C232 1.527 . S
C236 H294 0.959 . S
C236 H295 0.961 . S
C236 H296 0.961 . S
C237 C234 1.496 1_545 S
C237 H297 0.960 . S
C237 H298 0.960 1_545 S
C237 H299 0.961 . S
C238 C239 1.517 . S
C238 H301 0.961 . S
C238 H302 0.960 . S
C238 H303 0.959 . S
C239 C238 1.517 . S
C239 O287 1.468 . S
C239 H300 0.980 . S
C240 C241 1.349 . S
C240 C245 1.367 . S
C240 O287 1.408 . S
C241 C240 1.349 . S
C241 C242 1.407 . S
C241 H304 0.930 . S
C242 C241 1.407 . S
C242 C243 1.449 . S
C242 C246 1.535 . S
C243 C242 1.449 . S
C243 C244 1.384 . S
C243 C268 1.553 . S
C244 C243 1.384 . S
C244 C245 1.364 . S
C244 C247 1.450 . S
C245 C240 1.367 . S
C245 C244 1.364 . S
C245 H305 0.931 . S
C246 C242 1.535 . S
C246 H306 0.959 . S
C246 H307 0.961 . S
C246 H308 0.959 . S
C247 C244 1.450 . S
C247 H309 0.960 . S
C247 H310 0.960 . S
C247 H311 0.960 . S
C248 C249 1.309 . S
C248 C253 1.304 . S
C248 O286 1.435 . S
C249 C248 1.309 . S
C249 C250 1.476 . S
C249 H313 0.930 . S
C250 C249 1.476 . S
C250 C251 1.400 . S
C250 C254 1.567 . S
C251 C250 1.400 . S
C251 C252 1.373 . S
C251 C273 1.432 . S
C252 C251 1.373 . S
C252 C253 1.339 . S
C252 C255 1.530 1_545 S
C253 C248 1.304 . S
C253 C252 1.339 . S
C253 H314 0.930 1_545 S
C254 C250 1.567 . S
C254 H315 0.961 . S
C254 H316 0.960 . S
C254 H317 0.958 . S
C255 C252 1.530 1_565 S
C255 H318 0.961 . S
C255 H319 0.960 . S
C255 H320 0.960 . S
C256 C257 1.530 . S
C256 H322 0.961 . S
C256 H323 0.961 . S
C256 H324 0.959 . S
C257 C256 1.530 . S
C257 O285 1.412 . S
C257 H321 0.980 . S
C258 C259 1.288 . S
C258 C263 1.377 . S
C258 O285 1.393 . S
C259 C258 1.288 . S
C259 C260 1.369 . S
C259 H325 0.932 . S
C260 C259 1.369 . S
C260 C261 1.398 . S
C260 C264 1.527 . S
C261 C260 1.398 . S
C261 C262 1.380 . S
C261 C275 1.497 . S
C262 C261 1.380 . S
C262 C263 1.383 . S
C262 C265 1.603 1_545 S
C263 C258 1.377 . S
C263 C262 1.383 . S
C263 H326 0.929 . S
C264 C260 1.527 . S
C264 H327 0.961 . S
C264 H328 0.959 . S
C264 H329 0.959 . S
C265 C262 1.603 1_565 S
C265 H330 0.960 . S
C265 H331 0.962 . S
C265 H332 0.961 . S
C266 C233 1.587 . S
C266 C267 1.360 . S
C266 C279 1.412 . S
C267 C266 1.360 . S
C267 C268 1.365 . S
C267 H333 0.929 . S
C268 C243 1.553 . S
C268 C267 1.365 . S
C268 C269 1.404 . S
C269 C268 1.404 . S
C269 C270 1.395 . S
C269 C280 1.451 . S
C270 C269 1.395 . S
C270 C271 1.322 1_554 S
C270 H334 0.930 . S
C271 C270 1.322 1_556 S
C271 C272 1.459 . S
C271 H335 0.929 . S
C272 C271 1.459 . S
C272 C273 1.445 1_565 S
C272 C281 1.395 . S
C273 C251 1.432 . S
C273 C272 1.445 1_545 S
C273 C274 1.370 . S
C274 C273 1.370 . S
C274 C275 1.438 . S
C274 H336 0.930 . S
C275 C261 1.497 . S
C275 C274 1.438 . S
C275 C276 1.360 . S
C276 C275 1.360 . S
C276 C277 1.422 . S
C276 C281 1.446 1_545 S
C277 C276 1.422 . S
C277 C278 1.313 1_546 S
C277 H337 0.944 . S
C278 C277 1.313 1_564 S
C278 C279 1.455 . S
C278 H338 0.930 . S
C279 C266 1.412 . S
C279 C278 1.455 . S
C279 C280 1.331 . S
C280 C269 1.451 . S
C280 C279 1.331 . S
C280 C281 1.497 1_554 S
C281 C272 1.395 . S
C281 C276 1.446 1_565 S
C281 C280 1.497 1_556 S
C282 C283 1.582 . S
C282 H339 0.962 . S
C282 H340 0.959 . S
C282 H341 0.958 . S
C283 C282 1.582 . S
C283 O286 1.458 . S
C283 H312 0.980 . S
O284 C229 1.426 . S
O284 C230 1.334 . S
O285 C257 1.412 . S
O285 C258 1.393 . S
O286 C248 1.435 . S
O286 C283 1.458 . S
O287 C239 1.468 . S
O287 C240 1.408 . S
H288 C229 0.980 . S
H289 C228 0.959 . S
H290 C228 0.959 . S
H291 C228 0.960 . S
H292 C231 0.929 . S
H293 C235 0.929 . S
H294 C236 0.959 . S
H295 C236 0.961 . S
H296 C236 0.961 . S
H297 C237 0.960 . S
H298 C237 0.960 1_565 S
H299 C237 0.961 . S
H300 C239 0.980 . S
H301 C238 0.961 . S
H302 C238 0.960 . S
H303 C238 0.959 . S
H304 C241 0.930 . S
H305 C245 0.931 . S
H306 C246 0.959 . S
H307 C246 0.961 . S
H308 C246 0.959 . S
H309 C247 0.960 . S
H310 C247 0.960 . S
H311 C247 0.960 . S
H312 C283 0.980 . S
H313 C249 0.930 . S
H314 C253 0.930 1_565 S
H315 C254 0.961 . S
H316 C254 0.960 . S
H317 C254 0.958 . S
H318 C255 0.961 . S
H319 C255 0.960 . S
H320 C255 0.960 . S
H321 C257 0.980 . S
H322 C256 0.961 . S
H323 C256 0.961 . S
H324 C256 0.959 . S
H325 C259 0.932 . S
H326 C263 0.929 . S
H327 C264 0.961 . S
H328 C264 0.959 . S
H329 C264 0.959 . S
H330 C265 0.960 . S
H331 C265 0.962 . S
H332 C265 0.961 . S
H333 C267 0.929 . S
H334 C270 0.930 . S
H335 C271 0.929 . S
H336 C274 0.930 . S
H337 C277 0.944 . S
H338 C278 0.930 . S
H339 C282 0.962 . S
H340 C282 0.959 . S
H341 C282 0.958 . S
C342 C343 1.560 . S
C342 H403 0.959 . S
C342 H404 0.959 . S
C342 H405 0.960 . S
C343 C342 1.560 . S
C343 O398 1.426 . S
C343 H402 0.980 . S
C344 C345 1.407 . S
C344 C349 1.418 . S
C344 O398 1.334 . S
C345 C344 1.407 . S
C345 C346 1.360 . S
C345 H406 0.929 . S
C346 C345 1.360 . S
C346 C347 1.401 . S
C346 C350 1.527 . S
C347 C346 1.401 . S
C347 C348 1.405 . S
C347 C380 1.587 . S
C348 C347 1.405 . S
C348 C349 1.332 . S
C348 C351 1.496 . S
C349 C344 1.418 . S
C349 C348 1.332 . S
C349 H407 0.929 . S
C350 C346 1.527 . S
C350 H408 0.959 . S
C350 H409 0.961 . S
C350 H410 0.961 . S
C351 C348 1.496 . S
C351 H411 0.960 . S
C351 H412 0.960 . S
C351 H413 0.961 . S
C352 C353 1.517 . S
C352 H415 0.961 . S
C352 H416 0.960 . S
C352 H417 0.959 . S
C353 C352 1.517 . S
C353 O401 1.468 . S
C353 H414 0.980 . S
C354 C355 1.349 . S
C354 C359 1.367 . S
C354 O401 1.408 . S
C355 C354 1.349 . S
C355 C356 1.407 . S
C355 H418 0.930 . S
C356 C355 1.407 . S
C356 C357 1.449 . S
C356 C360 1.535 . S
C357 C356 1.449 . S
C357 C358 1.384 . S
C357 C382 1.553 . S
C358 C357 1.384 . S
C358 C359 1.364 . S
C358 C361 1.450 . S
C359 C354 1.367 . S
C359 C358 1.364 . S
C359 H419 0.931 . S
C360 C356 1.535 . S
C360 H420 0.959 . S
C360 H421 0.961 . S
C360 H422 0.959 . S
C361 C358 1.450 . S
C361 H423 0.960 . S
C361 H424 0.960 . S
C361 H425 0.960 . S
C362 C363 1.309 . S
C362 C367 1.304 . S
C362 O400 1.435 . S
C363 C362 1.309 . S
C363 C364 1.476 . S
C363 H427 0.930 . S
C364 C363 1.476 . S
C364 C365 1.400 . S
C364 C368 1.567 . S
C365 C364 1.400 . S
C365 C366 1.373 . S
C365 C387 1.432 . S
C366 C365 1.373 . S
C366 C367 1.339 . S
C366 C369 1.530 . S
C367 C362 1.304 . S
C367 C366 1.339 . S
C367 H428 0.930 . S
C368 C364 1.567 . S
C368 H429 0.961 . S
C368 H430 0.960 . S
C368 H431 0.958 . S
C369 C366 1.530 . S
C369 H432 0.961 . S
C369 H433 0.960 . S
C369 H434 0.960 . S
C370 C371 1.530 . S
C370 H436 0.961 1_545 S
C370 H437 0.961 . S
C370 H438 0.959 . S
C371 C370 1.530 . S
C371 O399 1.412 . S
C371 H435 0.980 . S
C372 C373 1.288 . S
C372 C377 1.377 . S
C372 O399 1.393 . S
C373 C372 1.288 . S
C373 C374 1.369 . S
C373 H439 0.932 . S
C374 C373 1.369 . S
C374 C375 1.398 . S
C374 C378 1.527 . S
C375 C374 1.398 . S
C375 C376 1.380 . S
C375 C389 1.497 . S
C376 C375 1.380 . S
C376 C377 1.383 . S
C376 C379 1.603 . S
C377 C372 1.377 . S
C377 C376 1.383 . S
C377 H440 0.929 . S
C378 C374 1.527 . S
C378 H441 0.961 . S
C378 H442 0.959 . S
C378 H443 0.959 . S
C379 C376 1.603 . S
C379 H444 0.960 . S
C379 H445 0.962 . S
C379 H446 0.961 . S
C380 C347 1.587 . S
C380 C381 1.360 . S
C380 C393 1.412 . S
C381 C380 1.360 . S
C381 C382 1.365 . S
C381 H447 0.929 . S
C382 C357 1.553 . S
C382 C381 1.365 . S
C382 C383 1.404 . S
C383 C382 1.404 . S
C383 C384 1.395 . S
C383 C394 1.451 . S
C384 C383 1.395 . S
C384 C385 1.322 . S
C384 H448 0.930 . S
C385 C384 1.322 . S
C385 C386 1.459 . S
C385 H449 0.929 . S
C386 C385 1.459 . S
C386 C387 1.445 . S
C386 C395 1.395 . S
C387 C365 1.432 . S
C387 C386 1.445 . S
C387 C388 1.370 . S
C388 C387 1.370 . S
C388 C389 1.438 . S
C388 H450 0.930 . S
C389 C375 1.497 . S
C389 C388 1.438 . S
C389 C390 1.360 . S
C390 C389 1.360 . S
C390 C391 1.401 . S
C390 C395 1.446 . S
C391 C390 1.401 . S
C391 C392 1.347 . S
C391 H451 0.929 . S
C392 C391 1.347 . S
C392 C393 1.455 . S
C392 H452 0.930 . S
C393 C380 1.412 . S
C393 C392 1.455 . S
C393 C394 1.331 . S
C394 C383 1.451 . S
C394 C393 1.331 . S
C394 C395 1.497 . S
C395 C386 1.395 . S
C395 C390 1.446 . S
C395 C394 1.497 . S
C396 C397 1.582 . S
C396 H453 0.962 . S
C396 H454 0.959 . S
C396 H455 0.958 . S
C397 C396 1.582 . S
C397 O400 1.458 . S
C397 H426 0.980 . S
O398 C343 1.426 . S
O398 C344 1.334 . S
O399 C371 1.412 . S
O399 C372 1.393 . S
O400 C362 1.435 . S
O400 C397 1.458 . S
O401 C353 1.468 . S
O401 C354 1.408 . S
H402 C343 0.980 . S
H403 C342 0.959 . S
H404 C342 0.959 . S
H405 C342 0.960 . S
H406 C345 0.929 . S
H407 C349 0.929 . S
H408 C350 0.959 . S
H409 C350 0.961 . S
H410 C350 0.961 . S
H411 C351 0.960 . S
H412 C351 0.960 . S
H413 C351 0.961 . S
H414 C353 0.980 . S
H415 C352 0.961 . S
H416 C352 0.960 . S
H417 C352 0.959 . S
H418 C355 0.930 . S
H419 C359 0.931 . S
H420 C360 0.959 . S
H421 C360 0.961 . S
H422 C360 0.959 . S
H423 C361 0.960 . S
H424 C361 0.960 . S
H425 C361 0.960 . S
H426 C397 0.980 . S
H427 C363 0.930 . S
H428 C367 0.930 . S
H429 C368 0.961 . S
H430 C368 0.960 . S
H431 C368 0.958 . S
H432 C369 0.961 . S
H433 C369 0.960 . S
H434 C369 0.960 . S
H435 C371 0.980 . S
H436 C370 0.961 1_565 S
H437 C370 0.961 . S
H438 C370 0.959 . S
H439 C373 0.932 . S
H440 C377 0.929 . S
H441 C378 0.961 . S
H442 C378 0.959 . S
H443 C378 0.959 . S
H444 C379 0.960 . S
H445 C379 0.962 . S
H446 C379 0.961 . S
H447 C381 0.929 . S
H448 C384 0.930 . S
H449 C385 0.929 . S
H450 C388 0.930 . S
H451 C391 0.929 . S
H452 C392 0.930 . S
H453 C396 0.962 . S
H454 C396 0.959 . S
H455 C396 0.958 . S
C456 C457 1.560 . S
C456 H517 0.959 . S
C456 H518 0.959 . S
C456 H519 0.960 . S
C457 C456 1.560 . S
C457 O512 1.426 . S
C457 H516 0.980 . S
C458 C459 1.407 . S
C458 C463 1.418 . S
C458 O512 1.334 . S
C459 C458 1.407 . S
C459 C460 1.360 . S
C459 H520 0.929 . S
C460 C459 1.360 . S
C460 C461 1.401 . S
C460 C464 1.527 . S
C461 C460 1.401 . S
C461 C462 1.405 . S
C461 C494 1.587 . S
C462 C461 1.405 . S
C462 C463 1.332 . S
C462 C465 1.496 . S
C463 C458 1.418 . S
C463 C462 1.332 . S
C463 H521 0.929 . S
C464 C460 1.527 . S
C464 H522 0.959 . S
C464 H523 0.961 . S
C464 H524 0.961 . S
C465 C462 1.496 . S
C465 H525 0.960 . S
C465 H526 0.960 . S
C465 H527 0.961 . S
C466 C467 1.517 . S
C466 H529 0.961 1_545 S
C466 H530 0.960 . S
C466 H531 0.959 1_545 S
C467 C466 1.517 . S
C467 O515 1.468 . S
C467 H528 0.980 . S
C468 C469 1.349 . S
C468 C473 1.367 . S
C468 O515 1.408 . S
C469 C468 1.349 . S
C469 C470 1.407 . S
C469 H532 0.930 . S
C470 C469 1.407 . S
C470 C471 1.449 . S
C470 C474 1.535 . S
C471 C470 1.449 . S
C471 C472 1.384 . S
C471 C496 1.553 . S
C472 C471 1.384 . S
C472 C473 1.364 . S
C472 C475 1.450 . S
C473 C468 1.367 . S
C473 C472 1.364 . S
C473 H533 0.931 . S
C474 C470 1.535 . S
C474 H534 0.959 . S
C474 H535 0.961 . S
C474 H536 0.959 . S
C475 C472 1.450 . S
C475 H537 0.960 . S
C475 H538 0.960 . S
C475 H539 0.960 . S
C476 C477 1.309 . S
C476 C481 1.304 . S
C476 O514 1.435 . S
C477 C476 1.309 . S
C477 C478 1.476 . S
C477 H541 0.930 . S
C478 C477 1.476 . S
C478 C479 1.400 . S
C478 C482 1.567 . S
C479 C478 1.400 . S
C479 C480 1.373 . S
C479 C501 1.432 . S
C480 C479 1.373 . S
C480 C481 1.339 . S
C480 C483 1.530 . S
C481 C476 1.304 . S
C481 C480 1.339 . S
C481 H542 0.930 . S
C482 C478 1.567 . S
C482 H543 0.961 . S
C482 H544 0.960 . S
C482 H545 0.958 . S
C483 C480 1.530 . S
C483 H546 0.961 . S
C483 H547 0.960 . S
C483 H548 0.960 . S
C484 C485 1.530 . S
C484 H550 0.961 . S
C484 H551 0.961 . S
C484 H552 0.959 . S
C485 C484 1.530 . S
C485 O513 1.412 . S
C485 H549 0.980 . S
C486 C487 1.288 . S
C486 C491 1.377 . S
C486 O513 1.393 . S
C487 C486 1.288 . S
C487 C488 1.369 . S
C487 H553 0.932 . S
C488 C487 1.369 . S
C488 C489 1.398 . S
C488 C492 1.527 . S
C489 C488 1.398 . S
C489 C490 1.380 . S
C489 C503 1.497 . S
C490 C489 1.380 . S
C490 C491 1.383 . S
C490 C493 1.603 . S
C491 C486 1.377 . S
C491 C490 1.383 . S
C491 H554 0.929 . S
C492 C488 1.527 . S
C492 H555 0.961 . S
C492 H556 0.959 . S
C492 H557 0.959 . S
C493 C490 1.603 . S
C493 H558 0.960 . S
C493 H559 0.962 . S
C493 H560 0.961 . S
C494 C461 1.587 . S
C494 C495 1.360 . S
C494 C507 1.412 . S
C495 C494 1.360 . S
C495 C496 1.365 . S
C495 H561 0.929 . S
C496 C471 1.553 . S
C496 C495 1.365 . S
C496 C497 1.404 . S
C497 C496 1.404 . S
C497 C498 1.395 . S
C497 C508 1.451 . S
C498 C497 1.395 . S
C498 C499 1.322 . S
C498 H562 0.930 . S
C499 C498 1.322 . S
C499 C500 1.459 . S
C499 H563 0.929 . S
C500 C499 1.459 . S
C500 C501 1.445 . S
C500 C509 1.395 . S
C501 C479 1.432 . S
C501 C500 1.445 . S
C501 C502 1.370 . S
C502 C501 1.370 . S
C502 C503 1.438 . S
C502 H564 0.930 . S
C503 C489 1.497 . S
C503 C502 1.438 . S
C503 C504 1.360 . S
C504 C503 1.360 . S
C504 C505 1.401 . S
C504 C509 1.446 . S
C505 C504 1.401 . S
C505 C506 1.347 . S
C505 H565 0.929 . S
C506 C505 1.347 . S
C506 C507 1.455 . S
C506 H566 0.930 . S
C507 C494 1.412 . S
C507 C506 1.455 . S
C507 C508 1.331 . S
C508 C497 1.451 . S
C508 C507 1.331 . S
C508 C509 1.497 . S
C509 C500 1.395 . S
C509 C504 1.446 . S
C509 C508 1.497 . S
C510 C511 1.582 1_565 S
C510 H567 0.962 . S
C510 H568 0.959 . S
C510 H569 0.958 1_565 S
C511 C510 1.582 1_545 S
C511 O514 1.458 . S
C511 H540 0.980 . S
O512 C457 1.426 . S
O512 C458 1.334 . S
O513 C485 1.412 . S
O513 C486 1.393 . S
O514 C476 1.435 . S
O514 C511 1.458 . S
O515 C467 1.468 . S
O515 C468 1.408 . S
H516 C457 0.980 . S
H517 C456 0.959 . S
H518 C456 0.959 . S
H519 C456 0.960 . S
H520 C459 0.929 . S
H521 C463 0.929 . S
H522 C464 0.959 . S
H523 C464 0.961 . S
H524 C464 0.961 . S
H525 C465 0.960 . S
H526 C465 0.960 . S
H527 C465 0.961 . S
H528 C467 0.980 . S
H529 C466 0.961 1_565 S
H530 C466 0.960 . S
H531 C466 0.959 1_565 S
H532 C469 0.930 . S
H533 C473 0.931 . S
H534 C474 0.959 . S
H535 C474 0.961 . S
H536 C474 0.959 . S
H537 C475 0.960 . S
H538 C475 0.960 . S
H539 C475 0.960 . S
H540 C511 0.980 . S
H541 C477 0.930 . S
H542 C481 0.930 . S
H543 C482 0.961 . S
H544 C482 0.960 . S
H545 C482 0.958 . S
H546 C483 0.961 . S
H547 C483 0.960 . S
H548 C483 0.960 . S
H549 C485 0.980 . S
H550 C484 0.961 . S
H551 C484 0.961 . S
H552 C484 0.959 . S
H553 C487 0.932 . S
H554 C491 0.929 . S
H555 C492 0.961 . S
H556 C492 0.959 . S
H557 C492 0.959 . S
H558 C493 0.960 . S
H559 C493 0.962 . S
H560 C493 0.961 . S
H561 C495 0.929 . S
H562 C498 0.930 . S
H563 C499 0.929 . S
H564 C502 0.930 . S
H565 C505 0.929 . S
H566 C506 0.930 . S
H567 C510 0.962 . S
H568 C510 0.959 . S
H569 C510 0.958 1_545 S
C570 C571 1.560 . S
C570 H631 0.959 . S
C570 H632 0.959 . S
C570 H633 0.960 . S
C571 C570 1.560 . S
C571 O626 1.426 . S
C571 H630 0.980 . S
C572 C573 1.407 . S
C572 C577 1.418 . S
C572 O626 1.334 . S
C573 C572 1.407 . S
C573 C574 1.360 . S
C573 H634 0.929 . S
C574 C573 1.360 . S
C574 C575 1.401 . S
C574 C578 1.527 . S
C575 C574 1.401 . S
C575 C576 1.405 . S
C575 C608 1.587 . S
C576 C575 1.405 . S
C576 C577 1.332 . S
C576 C579 1.496 . S
C577 C572 1.418 . S
C577 C576 1.332 . S
C577 H635 0.929 . S
C578 C574 1.527 . S
C578 H636 0.959 . S
C578 H637 0.961 . S
C578 H638 0.961 . S
C579 C576 1.496 . S
C579 H639 0.960 . S
C579 H640 0.960 . S
C579 H641 0.961 . S
C580 C581 1.517 1_545 S
C580 H643 0.961 . S
C580 H644 0.960 . S
C580 H645 0.959 . S
C581 C580 1.517 1_565 S
C581 O629 1.468 . S
C581 H642 0.980 . S
C582 C583 1.349 . S
C582 C587 1.367 . S
C582 O629 1.408 . S
C583 C582 1.349 . S
C583 C584 1.407 . S
C583 H646 0.930 . S
C584 C583 1.407 . S
C584 C585 1.449 . S
C584 C588 1.535 . S
C585 C584 1.449 . S
C585 C586 1.384 . S
C585 C610 1.553 . S
C586 C585 1.384 . S
C586 C587 1.364 . S
C586 C589 1.450 . S
C587 C582 1.367 . S
C587 C586 1.364 . S
C587 H647 0.931 . S
C588 C584 1.535 . S
C588 H648 0.959 . S
C588 H649 0.961 . S
C588 H650 0.959 . S
C589 C586 1.450 . S
C589 H651 0.960 . S
C589 H652 0.960 . S
C589 H653 0.960 . S
C590 C591 1.309 . S
C590 C595 1.304 . S
C590 O628 1.435 . S
C591 C590 1.309 . S
C591 C592 1.476 . S
C591 H655 0.930 . S
C592 C591 1.476 . S
C592 C593 1.400 . S
C592 C596 1.567 . S
C593 C592 1.400 . S
C593 C594 1.373 . S
C593 C615 1.432 . S
C594 C593 1.373 . S
C594 C595 1.339 . S
C594 C597 1.530 . S
C595 C590 1.304 . S
C595 C594 1.339 . S
C595 H656 0.930 . S
C596 C592 1.567 . S
C596 H657 0.961 . S
C596 H658 0.960 . S
C596 H659 0.958 . S
C597 C594 1.530 . S
C597 H660 0.961 . S
C597 H661 0.960 . S
C597 H662 0.960 . S
C598 C599 1.530 . S
C598 H664 0.961 . S
C598 H665 0.961 . S
C598 H666 0.959 . S
C599 C598 1.530 . S
C599 O627 1.412 . S
C599 H663 0.980 . S
C600 C601 1.288 . S
C600 C605 1.377 . S
C600 O627 1.393 . S
C601 C600 1.288 . S
C601 C602 1.369 . S
C601 H667 0.932 . S
C602 C601 1.369 . S
C602 C603 1.398 . S
C602 C606 1.527 . S
C603 C602 1.398 . S
C603 C604 1.380 . S
C603 C617 1.497 . S
C604 C603 1.380 . S
C604 C605 1.383 . S
C604 C607 1.603 . S
C605 C600 1.377 . S
C605 C604 1.383 . S
C605 H668 0.929 . S
C606 C602 1.527 . S
C606 H669 0.961 . S
C606 H670 0.959 . S
C606 H671 0.959 . S
C607 C604 1.603 . S
C607 H672 0.960 . S
C607 H673 0.962 . S
C607 H674 0.961 . S
C608 C575 1.587 . S
C608 C609 1.360 . S
C608 C621 1.412 . S
C609 C608 1.360 . S
C609 C610 1.365 . S
C609 H675 0.929 . S
C610 C585 1.553 . S
C610 C609 1.365 . S
C610 C611 1.404 . S
C611 C610 1.404 . S
C611 C612 1.395 . S
C611 C622 1.451 . S
C612 C611 1.395 . S
C612 C613 1.322 . S
C612 H676 0.930 . S
C613 C612 1.322 . S
C613 C614 1.459 . S
C613 H677 0.929 . S
C614 C613 1.459 . S
C614 C615 1.445 . S
C614 C623 1.395 . S
C615 C593 1.432 . S
C615 C614 1.445 . S
C615 C616 1.370 . S
C616 C615 1.370 . S
C616 C617 1.438 . S
C616 H678 0.930 . S
C617 C603 1.497 . S
C617 C616 1.438 . S
C617 C618 1.360 . S
C618 C617 1.360 . S
C618 C619 1.401 . S
C618 C623 1.446 . S
C619 C618 1.401 . S
C619 C620 1.347 . S
C619 H679 0.929 . S
C620 C619 1.347 . S
C620 C621 1.455 . S
C620 H680 0.930 . S
C621 C608 1.412 . S
C621 C620 1.455 . S
C621 C622 1.331 . S
C622 C611 1.451 . S
C622 C621 1.331 . S
C622 C623 1.497 . S
C623 C614 1.395 . S
C623 C618 1.446 . S
C623 C622 1.497 . S
C624 C625 1.582 1_545 S
C624 H681 0.962 . S
C624 H682 0.959 . S
C624 H683 0.958 . S
C625 C624 1.582 1_565 S
C625 O628 1.458 . S
C625 H654 0.980 . S
O626 C571 1.426 . S
O626 C572 1.334 . S
O627 C599 1.412 . S
O627 C600 1.393 . S
O628 C590 1.435 . S
O628 C625 1.458 . S
O629 C581 1.468 . S
O629 C582 1.408 . S
H630 C571 0.980 . S
H631 C570 0.959 . S
H632 C570 0.959 . S
H633 C570 0.960 . S
H634 C573 0.929 . S
H635 C577 0.929 . S
H636 C578 0.959 . S
H637 C578 0.961 . S
H638 C578 0.961 . S
H639 C579 0.960 . S
H640 C579 0.960 . S
H641 C579 0.961 . S
H642 C581 0.980 . S
H643 C580 0.961 . S
H644 C580 0.960 . S
H645 C580 0.959 . S
H646 C583 0.930 . S
H647 C587 0.931 . S
H648 C588 0.959 . S
H649 C588 0.961 . S
H650 C588 0.959 . S
H651 C589 0.960 . S
H652 C589 0.960 . S
H653 C589 0.960 . S
H654 C625 0.980 . S
H655 C591 0.930 . S
H656 C595 0.930 . S
H657 C596 0.961 . S
H658 C596 0.960 . S
H659 C596 0.958 . S
H660 C597 0.961 . S
H661 C597 0.960 . S
H662 C597 0.960 . S
H663 C599 0.980 . S
H664 C598 0.961 . S
H665 C598 0.961 . S
H666 C598 0.959 . S
H667 C601 0.932 . S
H668 C605 0.929 . S
H669 C606 0.961 . S
H670 C606 0.959 . S
H671 C606 0.959 . S
H672 C607 0.960 . S
H673 C607 0.962 . S
H674 C607 0.961 . S
H675 C609 0.929 . S
H676 C612 0.930 . S
H677 C613 0.929 . S
H678 C616 0.930 . S
H679 C619 0.929 . S
H680 C620 0.930 . S
H681 C624 0.962 . S
H682 C624 0.959 . S
H683 C624 0.958 . S
C684 C685 1.560 . S
C684 H745 0.959 . S
C684 H746 0.959 . S
C684 H747 0.960 . S
C685 C684 1.560 . S
C685 O740 1.426 . S
C685 H744 0.980 . S
C686 C687 1.407 . S
C686 C691 1.418 . S
C686 O740 1.334 . S
C687 C686 1.407 . S
C687 C688 1.360 . S
C687 H748 0.929 . S
C688 C687 1.360 . S
C688 C689 1.401 . S
C688 C692 1.527 . S
C689 C688 1.401 . S
C689 C690 1.405 . S
C689 C722 1.587 . S
C690 C689 1.405 . S
C690 C691 1.332 . S
C690 C693 1.496 . S
C691 C686 1.418 . S
C691 C690 1.332 . S
C691 H749 0.929 . S
C692 C688 1.527 . S
C692 H750 0.959 . S
C692 H751 0.961 . S
C692 H752 0.961 . S
C693 C690 1.496 . S
C693 H753 0.960 . S
C693 H754 0.960 . S
C693 H755 0.961 . S
C694 C695 1.517 . S
C694 H757 0.961 . S
C694 H758 0.960 . S
C694 H759 0.959 . S
C695 C694 1.517 . S
C695 O743 1.468 . S
C695 H756 0.980 . S
C696 C697 1.349 . S
C696 C701 1.367 . S
C696 O743 1.408 . S
C697 C696 1.349 . S
C697 C698 1.407 . S
C697 H760 0.930 . S
C698 C697 1.407 . S
C698 C699 1.449 . S
C698 C702 1.535 . S
C699 C698 1.449 . S
C699 C700 1.384 . S
C699 C724 1.553 . S
C700 C699 1.384 . S
C700 C701 1.364 . S
C700 C703 1.450 . S
C701 C696 1.367 . S
C701 C700 1.364 . S
C701 H761 0.931 . S
C702 C698 1.535 . S
C702 H762 0.959 . S
C702 H763 0.961 . S
C702 H764 0.959 . S
C703 C700 1.450 . S
C703 H765 0.960 . S
C703 H766 0.960 . S
C703 H767 0.960 . S
C704 C705 1.309 . S
C704 C709 1.304 . S
C704 O742 1.435 . S
C705 C704 1.309 . S
C705 C706 1.476 . S
C705 H769 0.930 . S
C706 C705 1.476 . S
C706 C707 1.400 . S
C706 C710 1.567 . S
C707 C706 1.400 . S
C707 C708 1.373 . S
C707 C729 1.432 . S
C708 C707 1.373 . S
C708 C709 1.339 . S
C708 C711 1.530 . S
C709 C704 1.304 . S
C709 C708 1.339 . S
C709 H770 0.930 . S
C710 C706 1.567 . S
C710 H771 0.961 . S
C710 H772 0.960 . S
C710 H773 0.958 . S
C711 C708 1.530 . S
C711 H774 0.961 . S
C711 H775 0.960 1_556 S
C711 H776 0.960 . S
C712 C713 1.530 . S
C712 H778 0.961 . S
C712 H779 0.961 . S
C712 H780 0.959 . S
C713 C712 1.530 . S
C713 O741 1.412 . S
C713 H777 0.980 . S
C714 C715 1.288 . S
C714 C719 1.377 . S
C714 O741 1.393 . S
C715 C714 1.288 . S
C715 C716 1.369 . S
C715 H781 0.932 . S
C716 C715 1.369 . S
C716 C717 1.398 . S
C716 C720 1.527 . S
C717 C716 1.398 . S
C717 C718 1.380 . S
C717 C731 1.497 . S
C718 C717 1.380 . S
C718 C719 1.383 . S
C718 C721 1.603 . S
C719 C714 1.377 . S
C719 C718 1.383 . S
C719 H782 0.929 . S
C720 C716 1.527 . S
C720 H783 0.961 . S
C720 H784 0.959 . S
C720 H785 0.959 . S
C721 C718 1.603 . S
C721 H786 0.960 . S
C721 H787 0.962 . S
C721 H788 0.961 . S
C722 C689 1.587 . S
C722 C723 1.360 . S
C722 C735 1.412 . S
C723 C722 1.360 . S
C723 C724 1.365 . S
C723 H789 0.929 . S
C724 C699 1.553 . S
C724 C723 1.365 . S
C724 C725 1.404 . S
C725 C724 1.404 . S
C725 C726 1.395 . S
C725 C736 1.451 . S
C726 C725 1.395 . S
C726 C727 1.322 . S
C726 H790 0.930 . S
C727 C726 1.322 . S
C727 C728 1.463 1_554 S
C727 H791 0.929 . S
C728 C727 1.463 1_556 S
C728 C729 1.438 . S
C728 C737 1.398 1_556 S
C729 C707 1.432 . S
C729 C728 1.438 . S
C729 C730 1.370 . S
C730 C729 1.370 . S
C730 C731 1.438 . S
C730 H792 0.930 . S
C731 C717 1.497 . S
C731 C730 1.438 . S
C731 C732 1.360 . S
C732 C731 1.360 . S
C732 C733 1.401 1_556 S
C732 C737 1.446 1_556 S
C733 C732 1.401 1_554 S
C733 C734 1.347 . S
C733 H793 0.929 1_554 S
C734 C733 1.347 . S
C734 C735 1.455 . S
C734 H794 0.930 . S
C735 C722 1.412 . S
C735 C734 1.455 . S
C735 C736 1.331 . S
C736 C725 1.451 . S
C736 C735 1.331 . S
C736 C737 1.497 . S
C737 C728 1.398 1_554 S
C737 C732 1.446 1_554 S
C737 C736 1.497 . S
C738 C739 1.582 . S
C738 H795 0.962 . S
C738 H796 0.959 . S
C738 H797 0.958 . S
C739 C738 1.582 . S
C739 O742 1.458 . S
C739 H768 0.980 . S
O740 C685 1.426 . S
O740 C686 1.334 . S
O741 C713 1.412 . S
O741 C714 1.393 . S
O742 C704 1.435 . S
O742 C739 1.458 . S
O743 C695 1.468 . S
O743 C696 1.408 . S
H744 C685 0.980 . S
H745 C684 0.959 . S
H746 C684 0.959 . S
H747 C684 0.960 . S
H748 C687 0.929 . S
H749 C691 0.929 . S
H750 C692 0.959 . S
H751 C692 0.961 . S
H752 C692 0.961 . S
H753 C693 0.960 . S
H754 C693 0.960 . S
H755 C693 0.961 . S
H756 C695 0.980 . S
H757 C694 0.961 . S
H758 C694 0.960 . S
H759 C694 0.959 . S
H760 C697 0.930 . S
H761 C701 0.931 . S
H762 C702 0.959 . S
H763 C702 0.961 . S
H764 C702 0.959 . S
H765 C703 0.960 . S
H766 C703 0.960 . S
H767 C703 0.960 . S
H768 C739 0.980 . S
H769 C705 0.930 . S
H770 C709 0.930 . S
H771 C710 0.961 . S
H772 C710 0.960 . S
H773 C710 0.958 . S
H774 C711 0.961 . S
H775 C711 0.960 1_554 S
H776 C711 0.960 . S
H777 C713 0.980 . S
H778 C712 0.961 . S
H779 C712 0.961 . S
H780 C712 0.959 . S
H781 C715 0.932 . S
H782 C719 0.929 . S
H783 C720 0.961 . S
H784 C720 0.959 . S
H785 C720 0.959 . S
H786 C721 0.960 . S
H787 C721 0.962 . S
H788 C721 0.961 . S
H789 C723 0.929 . S
H790 C726 0.930 . S
H791 C727 0.929 . S
H792 C730 0.930 . S
H793 C733 0.929 1_556 S
H794 C734 0.930 . S
H795 C738 0.962 . S
H796 C738 0.959 . S
H797 C738 0.958 . S
C798 C799 1.560 . S
C798 H859 0.959 . S
C798 H860 0.959 . S
C798 H861 0.960 . S
C799 C798 1.560 . S
C799 O854 1.426 . S
C799 H858 0.980 . S
C800 C801 1.407 . S
C800 C805 1.418 . S
C800 O854 1.334 . S
C801 C800 1.407 . S
C801 C802 1.360 . S
C801 H862 0.929 . S
C802 C801 1.360 . S
C802 C803 1.401 . S
C802 C806 1.527 . S
C803 C802 1.401 . S
C803 C804 1.405 . S
C803 C836 1.587 . S
C804 C803 1.405 . S
C804 C805 1.332 . S
C804 C807 1.496 . S
C805 C800 1.418 . S
C805 C804 1.332 . S
C805 H863 0.929 . S
C806 C802 1.527 . S
C806 H864 0.959 . S
C806 H865 0.961 . S
C806 H866 0.961 . S
C807 C804 1.496 . S
C807 H867 0.960 . S
C807 H868 0.960 . S
C807 H869 0.961 . S
C808 C809 1.517 . S
C808 H871 0.961 . S
C808 H872 0.960 . S
C808 H873 0.959 . S
C809 C808 1.517 . S
C809 O857 1.468 . S
C809 H870 0.980 . S
C810 C811 1.349 . S
C810 C815 1.367 . S
C810 O857 1.408 . S
C811 C810 1.349 . S
C811 C812 1.407 . S
C811 H874 0.930 . S
C812 C811 1.407 . S
C812 C813 1.449 . S
C812 C816 1.535 . S
C813 C812 1.449 . S
C813 C814 1.384 . S
C813 C838 1.553 . S
C814 C813 1.384 . S
C814 C815 1.364 . S
C814 C817 1.450 . S
C815 C810 1.367 . S
C815 C814 1.364 . S
C815 H875 0.931 . S
C816 C812 1.535 . S
C816 H876 0.959 . S
C816 H877 0.961 . S
C816 H878 0.959 . S
C817 C814 1.450 . S
C817 H879 0.960 . S
C817 H880 0.960 . S
C817 H881 0.960 . S
C818 C819 1.309 . S
C818 C823 1.304 . S
C818 O856 1.435 . S
C819 C818 1.309 . S
C819 C820 1.476 . S
C819 H883 0.930 . S
C820 C819 1.476 . S
C820 C821 1.400 . S
C820 C824 1.567 . S
C821 C820 1.400 . S
C821 C822 1.373 . S
C821 C843 1.432 . S
C822 C821 1.373 . S
C822 C823 1.339 . S
C822 C825 1.530 . S
C823 C818 1.304 . S
C823 C822 1.339 . S
C823 H884 0.930 . S
C824 C820 1.567 . S
C824 H885 0.961 . S
C824 H886 0.960 . S
C824 H887 0.958 . S
C825 C822 1.530 . S
C825 H888 0.961 . S
C825 H889 0.960 . S
C825 H890 0.960 . S
C826 C827 1.530 . S
C826 H892 0.961 . S
C826 H893 0.961 . S
C826 H894 0.959 . S
C827 C826 1.530 . S
C827 O855 1.412 . S
C827 H891 0.980 . S
C828 C829 1.288 . S
C828 C833 1.377 . S
C828 O855 1.393 . S
C829 C828 1.288 . S
C829 C830 1.369 . S
C829 H895 0.932 . S
C830 C829 1.369 . S
C830 C831 1.398 . S
C830 C834 1.527 . S
C831 C830 1.398 . S
C831 C832 1.380 . S
C831 C845 1.497 . S
C832 C831 1.380 . S
C832 C833 1.383 . S
C832 C835 1.603 . S
C833 C828 1.377 . S
C833 C832 1.383 . S
C833 H896 0.929 . S
C834 C830 1.527 . S
C834 H897 0.961 . S
C834 H898 0.959 . S
C834 H899 0.959 . S
C835 C832 1.603 . S
C835 H900 0.960 . S
C835 H901 0.962 . S
C835 H902 0.961 . S
C836 C803 1.587 . S
C836 C837 1.360 1_655 S
C836 C849 1.412 . S
C837 C836 1.360 1_455 S
C837 C838 1.365 . S
C837 H903 0.929 . S
C838 C813 1.553 . S
C838 C837 1.365 . S
C838 C839 1.404 . S
C839 C838 1.404 . S
C839 C840 1.395 . S
C839 C850 1.451 . S
C840 C839 1.395 . S
C840 C841 1.322 . S
C840 H904 0.930 . S
C841 C840 1.322 . S
C841 C842 1.459 . S
C841 H905 0.929 . S
C842 C841 1.459 . S
C842 C843 1.445 . S
C842 C851 1.395 . S
C843 C821 1.432 . S
C843 C842 1.445 . S
C843 C844 1.370 . S
C844 C843 1.370 . S
C844 C845 1.438 1_455 S
C844 H906 0.930 . S
C845 C831 1.497 . S
C845 C844 1.438 1_655 S
C845 C846 1.360 . S
C846 C845 1.360 . S
C846 C847 1.401 . S
C846 C851 1.446 1_655 S
C847 C846 1.401 . S
C847 C848 1.347 . S
C847 H907 0.929 . S
C848 C847 1.347 . S
C848 C849 1.455 . S
C848 H908 0.930 . S
C849 C836 1.412 . S
C849 C848 1.455 . S
C849 C850 1.331 1_655 S
C850 C839 1.451 . S
C850 C849 1.331 1_455 S
C850 C851 1.497 . S
C851 C842 1.395 . S
C851 C846 1.446 1_455 S
C851 C850 1.497 . S
C852 C853 1.582 . S
C852 H909 0.962 . S
C852 H910 0.959 . S
C852 H911 0.958 . S
C853 C852 1.582 . S
C853 O856 1.458 . S
C853 H882 0.980 . S
O854 C799 1.426 . S
O854 C800 1.334 . S
O855 C827 1.412 . S
O855 C828 1.393 . S
O856 C818 1.435 . S
O856 C853 1.458 . S
O857 C809 1.468 . S
O857 C810 1.408 . S
H858 C799 0.980 . S
H859 C798 0.959 . S
H860 C798 0.959 . S
H861 C798 0.960 . S
H862 C801 0.929 . S
H863 C805 0.929 . S
H864 C806 0.959 . S
H865 C806 0.961 . S
H866 C806 0.961 . S
H867 C807 0.960 . S
H868 C807 0.960 . S
H869 C807 0.961 . S
H870 C809 0.980 . S
H871 C808 0.961 . S
H872 C808 0.960 . S
H873 C808 0.959 . S
H874 C811 0.930 . S
H875 C815 0.931 . S
H876 C816 0.959 . S
H877 C816 0.961 . S
H878 C816 0.959 . S
H879 C817 0.960 . S
H880 C817 0.960 . S
H881 C817 0.960 . S
H882 C853 0.980 . S
H883 C819 0.930 . S
H884 C823 0.930 . S
H885 C824 0.961 . S
H886 C824 0.960 . S
H887 C824 0.958 . S
H888 C825 0.961 . S
H889 C825 0.960 . S
H890 C825 0.960 . S
H891 C827 0.980 . S
H892 C826 0.961 . S
H893 C826 0.961 . S
H894 C826 0.959 . S
H895 C829 0.932 . S
H896 C833 0.929 . S
H897 C834 0.961 . S
H898 C834 0.959 . S
H899 C834 0.959 . S
H900 C835 0.960 . S
H901 C835 0.962 . S
H902 C835 0.961 . S
H903 C837 0.929 . S
H904 C840 0.930 . S
H905 C841 0.929 . S
H906 C844 0.930 . S
H907 C847 0.929 . S
H908 C848 0.930 . S
H909 C852 0.962 . S
H910 C852 0.959 . S
H911 C852 0.958 . S
Fe912 O913 1.886 . S
Fe912 O916 1.715 1_455 S
Fe912 O921 2.077 . S
Fe912 O926 1.935 1_455 S
Fe912 O932 2.077 . S
Fe912 O941 1.935 1_455 S
O913 Fe912 1.886 . S
O913 Fe915 1.715 . S
Fe914 O916 1.886 . S
Fe914 O917 1.715 . S
Fe914 O924 1.935 . S
Fe914 O925 2.077 . S
Fe914 O931 1.935 . S
Fe914 O940 2.077 . S
Fe915 O913 1.715 . S
Fe915 O918 1.886 . S
Fe915 O922 1.935 . S
Fe915 O927 2.077 . S
Fe915 O933 1.935 . S
Fe915 O937 2.077 . S
O916 Fe912 1.715 1_655 S
O916 Fe914 1.886 . S
O917 Fe914 1.715 . S
O917 Fe919 1.886 1_655 S
O918 Fe915 1.886 . S
O918 Fe919 1.715 . S
Fe919 O917 1.886 1_455 S
Fe919 O918 1.715 . S
Fe919 O923 2.077 1_455 S
Fe919 O928 1.935 . S
Fe919 O930 2.077 1_455 S
Fe919 O938 1.935 . S
C920 O932 1.381 . S
C920 O933 1.421 . S
O921 Fe912 2.077 . S
O921 C934 1.381 . S
O922 Fe915 1.935 . S
O922 C934 1.421 . S
O923 Fe919 2.077 1_655 S
O923 C939 1.381 . S
O924 Fe914 1.935 . S
O924 C939 1.421 . S
O925 Fe914 2.077 . S
O925 C929 1.381 . S
O926 Fe912 1.935 1_655 S
O926 C929 1.421 . S
O927 Fe915 2.077 . S
O927 C935 1.381 . S
O928 Fe919 1.935 . S
O928 C935 1.421 . S
C929 O925 1.381 . S
C929 O926 1.421 . S
O930 Fe919 2.077 1_655 S
O930 C942 1.381 . S
O931 Fe914 1.935 . S
O931 C942 1.421 . S
O932 Fe912 2.077 . S
O932 C920 1.381 . S
O933 Fe915 1.935 . S
O933 C920 1.421 . S
C934 O921 1.381 . S
C934 O922 1.421 . S
C935 O927 1.381 . S
C935 O928 1.421 . S
C936 O937 1.381 . S
C936 O938 1.421 . S
O937 Fe915 2.077 . S
O937 C936 1.381 . S
O938 Fe919 1.935 . S
O938 C936 1.421 . S
C939 O923 1.381 . S
C939 O924 1.421 . S
O940 Fe914 2.077 . S
O940 C943 1.381 . S
O941 Fe912 1.935 1_655 S
O941 C943 1.421 . S
C942 O930 1.381 . S
C942 O931 1.421 . S
C943 O940 1.381 . S
C943 O941 1.421 . S
Fe944 O945 1.886 . S
Fe944 O948 1.715 . S
Fe944 O953 2.077 . S
Fe944 O958 1.935 . S
Fe944 O964 2.077 . S
Fe944 O973 1.935 . S
O945 Fe944 1.886 . S
O945 Fe947 1.715 . S
Fe946 O948 1.886 . S
Fe946 O949 1.715 . S
Fe946 O956 1.935 . S
Fe946 O957 2.077 . S
Fe946 O963 1.935 . S
Fe946 O972 2.077 . S
Fe947 O945 1.715 . S
Fe947 O950 1.886 . S
Fe947 O954 1.935 . S
Fe947 O959 2.077 . S
Fe947 O965 1.935 . S
Fe947 O969 2.077 . S
O948 Fe944 1.715 . S
O948 Fe946 1.886 . S
O949 Fe946 1.715 . S
O949 Fe951 1.886 . S
O950 Fe947 1.886 . S
O950 Fe951 1.715 . S
Fe951 O949 1.886 . S
Fe951 O950 1.715 . S
Fe951 O955 2.077 . S
Fe951 O960 1.935 . S
Fe951 O962 2.077 . S
Fe951 O970 1.935 . S
C952 O964 1.381 . S
C952 O965 1.421 . S
O953 Fe944 2.077 . S
O953 C966 1.381 . S
O954 Fe947 1.935 . S
O954 C966 1.421 . S
O955 Fe951 2.077 . S
O955 C971 1.381 . S
O956 Fe946 1.935 . S
O956 C971 1.421 . S
O957 Fe946 2.077 . S
O957 C961 1.381 . S
O958 Fe944 1.935 . S
O958 C961 1.421 . S
O959 Fe947 2.077 . S
O959 C967 1.381 . S
O960 Fe951 1.935 . S
O960 C967 1.421 . S
C961 O957 1.381 . S
C961 O958 1.421 . S
O962 Fe951 2.077 . S
O962 C974 1.381 . S
O963 Fe946 1.935 . S
O963 C974 1.421 . S
O964 Fe944 2.077 . S
O964 C952 1.381 . S
O965 Fe947 1.935 . S
O965 C952 1.421 . S
C966 O953 1.381 . S
C966 O954 1.421 . S
C967 O959 1.381 . S
C967 O960 1.421 . S
C968 O969 1.381 . S
C968 O970 1.421 . S
O969 Fe947 2.077 . S
O969 C968 1.381 . S
O970 Fe951 1.935 . S
O970 C968 1.421 . S
C971 O955 1.381 . S
C971 O956 1.421 . S
O972 Fe946 2.077 . S
O972 C975 1.381 . S
O973 Fe944 1.935 . S
O973 C975 1.421 . S
C974 O962 1.381 . S
C974 O963 1.421 . S
C975 O972 1.381 . S
C975 O973 1.421 . S
Fe976 O977 1.886 . S
Fe976 O980 1.715 . S
Fe976 O985 2.077 . S
Fe976 O990 1.935 . S
Fe976 O996 2.077 . S
Fe976 O1005 1.935 . S
O977 Fe976 1.886 . S
O977 Fe979 1.715 . S
Fe978 O980 1.886 . S
Fe978 O981 1.715 . S
Fe978 O988 1.935 . S
Fe978 O989 2.077 . S
Fe978 O995 1.935 . S
Fe978 O1004 2.077 . S
Fe979 O977 1.715 . S
Fe979 O982 1.886 . S
Fe979 O986 1.935 . S
Fe979 O991 2.077 . S
Fe979 O997 1.935 . S
Fe979 O1001 2.077 . S
O980 Fe976 1.715 . S
O980 Fe978 1.886 . S
O981 Fe978 1.715 . S
O981 Fe983 1.886 . S
O982 Fe979 1.886 . S
O982 Fe983 1.715 . S
Fe983 O981 1.886 . S
Fe983 O982 1.715 . S
Fe983 O987 2.077 . S
Fe983 O992 1.935 . S
Fe983 O994 2.077 . S
Fe983 O1002 1.935 . S
C984 O996 1.381 . S
C984 O997 1.421 . S
O985 Fe976 2.077 . S
O985 C998 1.381 . S
O986 Fe979 1.935 . S
O986 C998 1.421 . S
O987 Fe983 2.077 . S
O987 C1003 1.381 . S
O988 Fe978 1.935 . S
O988 C1003 1.421 . S
O989 Fe978 2.077 . S
O989 C993 1.381 . S
O990 Fe976 1.935 . S
O990 C993 1.421 . S
O991 Fe979 2.077 . S
O991 C999 1.381 . S
O992 Fe983 1.935 . S
O992 C999 1.421 . S
C993 O989 1.381 . S
C993 O990 1.421 . S
O994 Fe983 2.077 . S
O994 C1006 1.381 . S
O995 Fe978 1.935 . S
O995 C1006 1.421 . S
O996 Fe976 2.077 . S
O996 C984 1.381 . S
O997 Fe979 1.935 . S
O997 C984 1.421 . S
C998 O985 1.381 . S
C998 O986 1.421 . S
C999 O991 1.381 . S
C999 O992 1.421 . S
C1000 O1001 1.381 . S
C1000 O1002 1.421 . S
O1001 Fe979 2.077 . S
O1001 C1000 1.381 . S
O1002 Fe983 1.935 . S
O1002 C1000 1.421 . S
C1003 O987 1.381 . S
C1003 O988 1.421 . S
O1004 Fe978 2.077 . S
O1004 C1007 1.381 . S
O1005 Fe976 1.935 . S
O1005 C1007 1.421 . S
C1006 O994 1.381 . S
C1006 O995 1.421 . S
C1007 O1004 1.381 . S
C1007 O1005 1.421 . S
Fe1008 O1009 1.886 . S
Fe1008 O1012 1.715 . S
Fe1008 O1017 2.077 1_455 S
Fe1008 O1022 1.935 1_455 S
Fe1008 O1028 2.077 . S
Fe1008 O1037 1.935 . S
O1009 Fe1008 1.886 . S
O1009 Fe1011 1.715 . S
Fe1010 O1012 1.886 . S
Fe1010 O1013 1.715 . S
Fe1010 O1020 1.935 1_455 S
Fe1010 O1021 2.077 1_455 S
Fe1010 O1027 1.935 . S
Fe1010 O1036 2.077 . S
Fe1011 O1009 1.715 . S
Fe1011 O1014 1.886 . S
Fe1011 O1018 1.935 1_455 S
Fe1011 O1023 2.077 1_455 S
Fe1011 O1029 1.935 . S
Fe1011 O1033 2.077 . S
O1012 Fe1008 1.715 . S
O1012 Fe1010 1.886 . S
O1013 Fe1010 1.715 . S
O1013 Fe1015 1.886 . S
O1014 Fe1011 1.886 . S
O1014 Fe1015 1.715 . S
Fe1015 O1013 1.886 . S
Fe1015 O1014 1.715 . S
Fe1015 O1019 2.077 1_455 S
Fe1015 O1024 1.935 1_455 S
Fe1015 O1026 2.077 . S
Fe1015 O1034 1.935 . S
C1016 O1028 1.381 . S
C1016 O1029 1.421 . S
O1017 Fe1008 2.077 1_655 S
O1017 C1030 1.381 . S
O1018 Fe1011 1.935 1_655 S
O1018 C1030 1.421 . S
O1019 Fe1015 2.077 1_655 S
O1019 C1035 1.381 . S
O1020 Fe1010 1.935 1_655 S
O1020 C1035 1.421 . S
O1021 Fe1010 2.077 1_655 S
O1021 C1025 1.381 . S
O1022 Fe1008 1.935 1_655 S
O1022 C1025 1.421 . S
O1023 Fe1011 2.077 1_655 S
O1023 C1031 1.381 . S
O1024 Fe1015 1.935 1_655 S
O1024 C1031 1.421 . S
C1025 O1021 1.381 . S
C1025 O1022 1.421 . S
O1026 Fe1015 2.077 . S
O1026 C1038 1.381 . S
O1027 Fe1010 1.935 . S
O1027 C1038 1.421 . S
O1028 Fe1008 2.077 . S
O1028 C1016 1.381 . S
O1029 Fe1011 1.935 . S
O1029 C1016 1.421 . S
C1030 O1017 1.381 . S
C1030 O1018 1.421 . S
C1031 O1023 1.381 . S
C1031 O1024 1.421 . S
C1032 O1033 1.381 . S
C1032 O1034 1.421 . S
O1033 Fe1011 2.077 . S
O1033 C1032 1.381 . S
O1034 Fe1015 1.935 . S
O1034 C1032 1.421 . S
C1035 O1019 1.381 . S
C1035 O1020 1.421 . S
O1036 Fe1010 2.077 . S
O1036 C1039 1.381 . S
O1037 Fe1008 1.935 . S
O1037 C1039 1.421 . S
C1038 O1026 1.381 . S
C1038 O1027 1.421 . S
C1039 O1036 1.381 . S
C1039 O1037 1.421 . S
H1040 C1046 0.930 . S
H1041 C1050 0.930 . S
H1042 C1055 0.929 . S
H1043 C1053 0.929 . S
H1044 C1048 0.929 . S
H1045 C1054 0.929 . S
C1046 H1040 0.930 . S
C1046 C1047 1.367 . S
C1046 C1054 1.378 . S
C1047 C1046 1.367 . S
C1047 C1055 1.433 . S
C1048 H1044 0.929 . S
C1048 C1050 1.378 . S
C1048 C1052 1.350 . S
C1049 C1052 1.463 . S
C1049 C1054 1.350 . S
C1049 N1057 1.427 . S
C1050 H1041 0.930 . S
C1050 C1048 1.378 . S
C1050 C1051 1.367 . S
C1051 C1050 1.367 . S
C1051 C1053 1.433 . S
C1052 C1048 1.350 . S
C1052 C1049 1.463 . S
C1052 N1056 1.427 . S
C1053 H1043 0.929 . S
C1053 C1051 1.433 . S
C1053 N1056 1.384 . S
C1054 H1045 0.929 . S
C1054 C1046 1.378 . S
C1054 C1049 1.350 . S
C1055 H1042 0.929 . S
C1055 C1047 1.433 . S
C1055 N1057 1.384 . S
N1056 C1052 1.427 . S
N1056 C1053 1.384 . S
N1057 C1049 1.427 . S
N1057 C1055 1.384 . S
H1058 C1064 0.930 . S
H1059 C1068 0.930 . S
H1060 C1073 0.929 . S
H1061 C1071 0.929 . S
H1062 C1066 0.929 . S
H1063 C1072 0.929 . S
C1064 H1058 0.930 . S
C1064 C1065 1.367 . S
C1064 C1072 1.378 1_565 S
C1065 C1064 1.367 . S
C1065 C1073 1.433 1_565 S
C1066 H1062 0.929 . S
C1066 C1068 1.378 . S
C1066 C1070 1.350 . S
C1067 C1070 1.463 . S
C1067 C1072 1.350 . S
C1067 N1075 1.427 . S
C1068 H1059 0.930 . S
C1068 C1066 1.378 . S
C1068 C1069 1.367 . S
C1069 C1068 1.367 . S
C1069 C1071 1.433 . S
C1070 C1066 1.350 . S
C1070 C1067 1.463 . S
C1070 N1074 1.427 . S
C1071 H1061 0.929 . S
C1071 C1069 1.433 . S
C1071 N1074 1.384 . S
C1072 H1063 0.929 . S
C1072 C1064 1.378 1_545 S
C1072 C1067 1.350 . S
C1073 H1060 0.929 . S
C1073 C1065 1.433 1_545 S
C1073 N1075 1.384 . S
N1074 C1070 1.427 . S
N1074 C1071 1.384 . S
N1075 C1067 1.427 . S
N1075 C1073 1.384 . S
H1076 C1082 0.930 . S
H1077 C1086 0.930 . S
H1078 C1091 0.929 . S
H1079 C1089 0.929 . S
H1080 C1084 0.929 . S
H1081 C1090 0.929 . S
C1082 H1076 0.930 . S
C1082 C1083 1.367 . S
C1082 C1090 1.378 . S
C1083 C1082 1.367 . S
C1083 C1091 1.433 . S
C1084 H1080 0.929 . S
C1084 C1086 1.378 . S
C1084 C1088 1.350 . S
C1085 C1088 1.463 . S
C1085 C1090 1.350 . S
C1085 N1093 1.427 . S
C1086 H1077 0.930 . S
C1086 C1084 1.378 . S
C1086 C1087 1.367 . S
C1087 C1086 1.367 . S
C1087 C1089 1.433 . S
C1088 C1084 1.350 . S
C1088 C1085 1.463 . S
C1088 N1092 1.427 . S
C1089 H1079 0.929 . S
C1089 C1087 1.433 . S
C1089 N1092 1.384 . S
C1090 H1081 0.929 . S
C1090 C1082 1.378 . S
C1090 C1085 1.350 . S
C1091 H1078 0.929 . S
C1091 C1083 1.433 . S
C1091 N1093 1.384 . S
N1092 C1088 1.427 . S
N1092 C1089 1.384 . S
N1093 C1085 1.427 . S
N1093 C1091 1.384 . S
H1094 C1100 0.930 . S
H1095 C1104 0.930 . S
H1096 C1109 0.929 . S
H1097 C1107 0.929 . S
H1098 C1102 0.929 . S
H1099 C1108 0.929 . S
C1100 H1094 0.930 . S
C1100 C1101 1.367 . S
C1100 C1108 1.378 1_545 S
C1101 C1100 1.367 . S
C1101 C1109 1.433 1_545 S
C1102 H1098 0.929 . S
C1102 C1104 1.378 . S
C1102 C1106 1.350 . S
C1103 C1106 1.463 . S
C1103 C1108 1.350 . S
C1103 N1111 1.427 . S
C1104 H1095 0.930 . S
C1104 C1102 1.378 . S
C1104 C1105 1.367 . S
C1105 C1104 1.367 . S
C1105 C1107 1.433 . S
C1106 C1102 1.350 . S
C1106 C1103 1.463 . S
C1106 N1110 1.427 . S
C1107 H1097 0.929 . S
C1107 C1105 1.433 . S
C1107 N1110 1.384 . S
C1108 H1099 0.929 . S
C1108 C1100 1.378 1_565 S
C1108 C1103 1.350 . S
C1109 H1096 0.929 . S
C1109 C1101 1.433 1_565 S
C1109 N1111 1.384 . S
N1110 C1106 1.427 . S
N1110 C1107 1.384 . S
N1111 C1103 1.427 . S
N1111 C1109 1.384 . S
H1112 C1118 0.930 . S
H1113 C1122 0.930 . S
H1114 C1127 0.929 . S
H1115 C1125 0.929 . S
H1116 C1120 0.929 . S
H1117 C1126 0.929 . S
C1118 H1112 0.930 . S
C1118 C1119 1.367 . S
C1118 C1126 1.378 . S
C1119 C1118 1.367 . S
C1119 C1127 1.433 . S
C1120 H1116 0.929 . S
C1120 C1122 1.378 . S
C1120 C1124 1.350 . S
C1121 C1124 1.463 . S
C1121 C1126 1.350 . S
C1121 N1129 1.427 . S
C1122 H1113 0.930 . S
C1122 C1120 1.378 . S
C1122 C1123 1.367 . S
C1123 C1122 1.367 . S
C1123 C1125 1.433 . S
C1124 C1120 1.350 . S
C1124 C1121 1.463 . S
C1124 N1128 1.427 . S
C1125 H1115 0.929 . S
C1125 C1123 1.433 . S
C1125 N1128 1.384 . S
C1126 H1117 0.929 . S
C1126 C1118 1.378 . S
C1126 C1121 1.350 . S
C1127 H1114 0.929 . S
C1127 C1119 1.433 . S
C1127 N1129 1.384 . S
N1128 C1124 1.427 . S
N1128 C1125 1.384 . S
N1129 C1121 1.427 . S
N1129 C1127 1.384 . S
H1130 C1136 0.930 . S
H1131 C1140 0.930 . S
H1132 C1145 0.929 . S
H1133 C1143 0.929 . S
H1134 C1138 0.929 . S
H1135 C1144 0.929 . S
C1136 H1130 0.930 . S
C1136 C1137 1.367 1_545 S
C1136 C1144 1.378 . S
C1137 C1136 1.367 1_565 S
C1137 C1145 1.433 . S
C1138 H1134 0.929 . S
C1138 C1140 1.378 . S
C1138 C1142 1.350 . S
C1139 C1142 1.463 . S
C1139 C1144 1.350 . S
C1139 N1147 1.427 . S
C1140 H1131 0.930 . S
C1140 C1138 1.378 . S
C1140 C1141 1.367 . S
C1141 C1140 1.367 . S
C1141 C1143 1.433 . S
C1142 C1138 1.350 . S
C1142 C1139 1.463 . S
C1142 N1146 1.427 . S
C1143 H1133 0.929 . S
C1143 C1141 1.433 . S
C1143 N1146 1.384 . S
C1144 H1135 0.929 . S
C1144 C1136 1.378 . S
C1144 C1139 1.350 . S
C1145 H1132 0.929 . S
C1145 C1137 1.433 . S
C1145 N1147 1.384 1_565 S
N1146 C1142 1.427 . S
N1146 C1143 1.384 . S
N1147 C1139 1.427 . S
N1147 C1145 1.384 1_545 S
H1148 C1154 0.930 . S
H1149 C1158 0.930 . S
H1150 C1163 0.929 . S
H1151 C1161 0.929 . S
H1152 C1156 0.929 . S
H1153 C1162 0.929 . S
C1154 H1148 0.930 . S
C1154 C1155 1.367 . S
C1154 C1162 1.378 . S
C1155 C1154 1.367 . S
C1155 C1163 1.433 . S
C1156 H1152 0.929 . S
C1156 C1158 1.378 . S
C1156 C1160 1.350 . S
C1157 C1160 1.463 . S
C1157 C1162 1.350 . S
C1157 N1165 1.427 . S
C1158 H1149 0.930 . S
C1158 C1156 1.378 . S
C1158 C1159 1.367 . S
C1159 C1158 1.367 . S
C1159 C1161 1.433 . S
C1160 C1156 1.350 . S
C1160 C1157 1.463 . S
C1160 N1164 1.427 . S
C1161 H1151 0.929 . S
C1161 C1159 1.433 . S
C1161 N1164 1.384 . S
C1162 H1153 0.929 . S
C1162 C1154 1.378 . S
C1162 C1157 1.350 . S
C1163 H1150 0.929 . S
C1163 C1155 1.433 . S
C1163 N1165 1.384 . S
N1164 C1160 1.427 . S
N1164 C1161 1.384 . S
N1165 C1157 1.427 . S
N1165 C1163 1.384 . S
H1166 C1172 0.930 . S
H1167 C1176 0.930 . S
H1168 C1181 0.929 . S
H1169 C1179 0.929 . S
H1170 C1174 0.929 . S
H1171 C1180 0.929 . S
C1172 H1166 0.930 . S
C1172 C1173 1.367 . S
C1172 C1180 1.378 . S
C1173 C1172 1.367 . S
C1173 C1181 1.433 1_545 S
C1174 H1170 0.929 . S
C1174 C1176 1.378 . S
C1174 C1178 1.350 . S
C1175 C1178 1.463 . S
C1175 C1180 1.350 1_565 S
C1175 N1183 1.427 . S
C1176 H1167 0.930 . S
C1176 C1174 1.378 . S
C1176 C1177 1.367 . S
C1177 C1176 1.367 . S
C1177 C1179 1.433 . S
C1178 C1174 1.350 . S
C1178 C1175 1.463 . S
C1178 N1182 1.427 . S
C1179 H1169 0.929 . S
C1179 C1177 1.433 . S
C1179 N1182 1.384 . S
C1180 H1171 0.929 . S
C1180 C1172 1.378 . S
C1180 C1175 1.350 1_545 S
C1181 H1168 0.929 . S
C1181 C1173 1.433 1_565 S
C1181 N1183 1.384 . S
N1182 C1178 1.427 . S
N1182 C1179 1.384 . S
N1183 C1175 1.427 . S
N1183 C1181 1.384 . S
H1184 C1190 0.930 . S
H1185 C1194 0.930 . S
H1186 C1199 0.929 . S
H1187 C1197 0.929 . S
H1188 C1192 0.929 . S
H1189 C1198 0.929 . S
C1190 H1184 0.930 . S
C1190 C1191 1.367 . S
C1190 C1198 1.378 . S
C1191 C1190 1.367 . S
C1191 C1199 1.433 . S
C1192 H1188 0.929 . S
C1192 C1194 1.378 . S
C1192 C1196 1.350 . S
C1193 C1196 1.463 . S
C1193 C1198 1.350 . S
C1193 N1201 1.427 . S
C1194 H1185 0.930 . S
C1194 C1192 1.378 . S
C1194 C1195 1.367 . S
C1195 C1194 1.367 . S
C1195 C1197 1.433 . S
C1196 C1192 1.350 . S
C1196 C1193 1.463 . S
C1196 N1200 1.427 . S
C1197 H1187 0.929 . S
C1197 C1195 1.433 . S
C1197 N1200 1.384 . S
C1198 H1189 0.929 . S
C1198 C1190 1.378 . S
C1198 C1193 1.350 . S
C1199 H1186 0.929 . S
C1199 C1191 1.433 . S
C1199 N1201 1.384 . S
N1200 C1196 1.427 . S
N1200 C1197 1.384 . S
N1201 C1193 1.427 . S
N1201 C1199 1.384 . S
H1202 C1208 0.930 . S
H1203 C1212 0.930 . S
H1204 C1217 0.929 . S
H1205 C1215 0.929 . S
H1206 C1210 0.929 . S
H1207 C1216 0.929 . S
C1208 H1202 0.930 . S
C1208 C1209 1.367 1_565 S
C1208 C1216 1.378 . S
C1209 C1208 1.367 1_545 S
C1209 C1217 1.433 . S
C1210 H1206 0.929 . S
C1210 C1212 1.378 . S
C1210 C1214 1.350 . S
C1211 C1214 1.463 . S
C1211 C1216 1.350 . S
C1211 N1219 1.427 . S
C1212 H1203 0.930 . S
C1212 C1210 1.378 . S
C1212 C1213 1.367 . S
C1213 C1212 1.367 . S
C1213 C1215 1.433 . S
C1214 C1210 1.350 . S
C1214 C1211 1.463 . S
C1214 N1218 1.427 . S
C1215 H1205 0.929 . S
C1215 C1213 1.433 . S
C1215 N1218 1.384 . S
C1216 H1207 0.929 . S
C1216 C1208 1.378 . S
C1216 C1211 1.350 . S
C1217 H1204 0.929 . S
C1217 C1209 1.433 . S
C1217 N1219 1.384 1_545 S
N1218 C1214 1.427 . S
N1218 C1215 1.384 . S
N1219 C1211 1.427 . S
N1219 C1217 1.384 1_565 S
H1220 C1226 0.930 . S
H1221 C1230 0.930 . S
H1222 C1235 0.929 . S
H1223 C1233 0.929 . S
H1224 C1228 0.929 . S
H1225 C1234 0.929 . S
C1226 H1220 0.930 . S
C1226 C1227 1.367 . S
C1226 C1234 1.378 . S
C1227 C1226 1.367 . S
C1227 C1235 1.433 . S
C1228 H1224 0.929 . S
C1228 C1230 1.378 . S
C1228 C1232 1.350 . S
C1229 C1232 1.463 . S
C1229 C1234 1.350 . S
C1229 N1237 1.427 . S
C1230 H1221 0.930 . S
C1230 C1228 1.378 . S
C1230 C1231 1.367 . S
C1231 C1230 1.367 . S
C1231 C1233 1.433 . S
C1232 C1228 1.350 . S
C1232 C1229 1.463 . S
C1232 N1236 1.427 . S
C1233 H1223 0.929 . S
C1233 C1231 1.433 . S
C1233 N1236 1.384 . S
C1234 H1225 0.929 . S
C1234 C1226 1.378 . S
C1234 C1229 1.350 . S
C1235 H1222 0.929 . S
C1235 C1227 1.433 . S
C1235 N1237 1.384 . S
N1236 C1232 1.427 . S
N1236 C1233 1.384 . S
N1237 C1229 1.427 . S
N1237 C1235 1.384 . S
H1238 C1244 0.930 . S
H1239 C1248 0.930 . S
H1240 C1253 0.929 . S
H1241 C1251 0.929 . S
H1242 C1246 0.929 . S
H1243 C1252 0.929 . S
C1244 H1238 0.930 . S
C1244 C1245 1.367 1_545 S
C1244 C1252 1.378 . S
C1245 C1244 1.367 1_565 S
C1245 C1253 1.433 . S
C1246 H1242 0.929 . S
C1246 C1248 1.378 . S
C1246 C1250 1.350 . S
C1247 C1250 1.463 . S
C1247 C1252 1.350 . S
C1247 N1255 1.427 . S
C1248 H1239 0.930 . S
C1248 C1246 1.378 . S
C1248 C1249 1.367 . S
C1249 C1248 1.367 . S
C1249 C1251 1.433 . S
C1250 C1246 1.350 . S
C1250 C1247 1.463 . S
C1250 N1254 1.427 . S
C1251 H1241 0.929 . S
C1251 C1249 1.433 . S
C1251 N1254 1.384 . S
C1252 H1243 0.929 . S
C1252 C1244 1.378 . S
C1252 C1247 1.350 . S
C1253 H1240 0.929 . S
C1253 C1245 1.433 . S
C1253 N1255 1.384 1_565 S
N1254 C1250 1.427 . S
N1254 C1251 1.384 . S
N1255 C1247 1.427 . S
N1255 C1253 1.384 1_545 S
H1256 C1262 0.930 . S
H1257 C1266 0.930 . S
H1258 C1271 0.929 . S
H1259 C1269 0.929 . S
H1260 C1264 0.929 . S
H1261 C1270 0.929 . S
C1262 H1256 0.930 . S
C1262 C1263 1.367 . S
C1262 C1270 1.378 . S
C1263 C1262 1.367 . S
C1263 C1271 1.433 . S
C1264 H1260 0.929 . S
C1264 C1266 1.378 . S
C1264 C1268 1.350 . S
C1265 C1268 1.463 . S
C1265 C1270 1.350 . S
C1265 N1273 1.427 . S
C1266 H1257 0.930 . S
C1266 C1264 1.378 . S
C1266 C1267 1.367 . S
C1267 C1266 1.367 . S
C1267 C1269 1.433 . S
C1268 C1264 1.350 . S
C1268 C1265 1.463 . S
C1268 N1272 1.427 . S
C1269 H1259 0.929 . S
C1269 C1267 1.433 . S
C1269 N1272 1.384 . S
C1270 H1261 0.929 . S
C1270 C1262 1.378 . S
C1270 C1265 1.350 . S
C1271 H1258 0.929 . S
C1271 C1263 1.433 . S
C1271 N1273 1.384 . S
N1272 C1268 1.427 . S
N1272 C1269 1.384 . S
N1273 C1265 1.427 . S
N1273 C1271 1.384 . S
H1274 C1280 0.930 . S
H1275 C1284 0.930 . S
H1276 C1289 0.929 1_545 S
H1277 C1287 0.929 . S
H1278 C1282 0.929 . S
H1279 C1288 0.929 . S
C1280 H1274 0.930 . S
C1280 C1281 1.367 . S
C1280 C1288 1.378 1_545 S
C1281 C1280 1.367 . S
C1281 C1289 1.433 1_545 S
C1282 H1278 0.929 . S
C1282 C1284 1.378 . S
C1282 C1286 1.350 . S
C1283 C1286 1.463 . S
C1283 C1288 1.350 . S
C1283 N1291 1.427 . S
C1284 H1275 0.930 . S
C1284 C1282 1.378 . S
C1284 C1285 1.367 . S
C1285 C1284 1.367 . S
C1285 C1287 1.433 . S
C1286 C1282 1.350 . S
C1286 C1283 1.463 . S
C1286 N1290 1.427 . S
C1287 H1277 0.929 . S
C1287 C1285 1.433 . S
C1287 N1290 1.384 . S
C1288 H1279 0.929 . S
C1288 C1280 1.378 1_565 S
C1288 C1283 1.350 . S
C1289 H1276 0.929 1_565 S
C1289 C1281 1.433 1_565 S
C1289 N1291 1.384 . S
N1290 C1286 1.427 . S
N1290 C1287 1.384 . S
N1291 C1283 1.427 . S
N1291 C1289 1.384 . S
H1292 C1298 0.930 . S
H1293 C1302 0.930 . S
H1294 C1307 0.929 . S
H1295 C1305 0.929 . S
H1296 C1300 0.929 . S
H1297 C1306 0.929 . S
C1298 H1292 0.930 . S
C1298 C1299 1.367 . S
C1298 C1306 1.378 . S
C1299 C1298 1.367 . S
C1299 C1307 1.433 . S
C1300 H1296 0.929 . S
C1300 C1302 1.378 . S
C1300 C1304 1.350 . S
C1301 C1304 1.463 . S
C1301 C1306 1.350 . S
C1301 N1309 1.427 . S
C1302 H1293 0.930 . S
C1302 C1300 1.378 . S
C1302 C1303 1.367 . S
C1303 C1302 1.367 . S
C1303 C1305 1.433 . S
C1304 C1300 1.350 . S
C1304 C1301 1.463 . S
C1304 N1308 1.427 . S
C1305 H1295 0.929 . S
C1305 C1303 1.433 . S
C1305 N1308 1.384 . S
C1306 H1297 0.929 . S
C1306 C1298 1.378 . S
C1306 C1301 1.350 . S
C1307 H1294 0.929 . S
C1307 C1299 1.433 . S
C1307 N1309 1.384 . S
N1308 C1304 1.427 . S
N1308 C1305 1.384 . S
N1309 C1301 1.427 . S
N1309 C1307 1.384 . S
H1310 C1316 0.930 . S
H1311 C1320 0.930 . S
H1312 C1325 0.929 . S
H1313 C1323 0.929 . S
H1314 C1318 0.929 . S
H1315 C1324 0.929 . S
C1316 H1310 0.930 . S
C1316 C1317 1.367 1_545 S
C1316 C1324 1.378 . S
C1317 C1316 1.367 1_565 S
C1317 C1325 1.433 . S
C1318 H1314 0.929 . S
C1318 C1320 1.378 . S
C1318 C1322 1.350 . S
C1319 C1322 1.463 . S
C1319 C1324 1.350 . S
C1319 N1327 1.427 . S
C1320 H1311 0.930 . S
C1320 C1318 1.378 . S
C1320 C1321 1.367 . S
C1321 C1320 1.367 . S
C1321 C1323 1.433 . S
C1322 C1318 1.350 . S
C1322 C1319 1.463 . S
C1322 N1326 1.427 . S
C1323 H1313 0.929 . S
C1323 C1321 1.433 . S
C1323 N1326 1.384 . S
C1324 H1315 0.929 . S
C1324 C1316 1.378 . S
C1324 C1319 1.350 . S
C1325 H1312 0.929 . S
C1325 C1317 1.433 . S
C1325 N1327 1.384 1_565 S
N1326 C1322 1.427 . S
N1326 C1323 1.384 . S
N1327 C1319 1.427 . S
N1327 C1325 1.384 1_545 S
H1328 C1334 0.930 . S
H1329 C1338 0.930 . S
H1330 C1343 0.929 . S
H1331 C1341 0.929 . S
H1332 C1336 0.929 . S
H1333 C1342 0.929 . S
C1334 H1328 0.930 . S
C1334 C1335 1.367 . S
C1334 C1342 1.378 . S
C1335 C1334 1.367 . S
C1335 C1343 1.433 . S
C1336 H1332 0.929 . S
C1336 C1338 1.378 . S
C1336 C1340 1.350 . S
C1337 C1340 1.463 . S
C1337 C1342 1.350 . S
C1337 N1345 1.427 . S
C1338 H1329 0.930 . S
C1338 C1336 1.378 . S
C1338 C1339 1.367 . S
C1339 C1338 1.367 . S
C1339 C1341 1.433 . S
C1340 C1336 1.350 . S
C1340 C1337 1.463 . S
C1340 N1344 1.427 . S
C1341 H1331 0.929 . S
C1341 C1339 1.433 . S
C1341 N1344 1.384 . S
C1342 H1333 0.929 . S
C1342 C1334 1.378 . S
C1342 C1337 1.350 . S
C1343 H1330 0.929 . S
C1343 C1335 1.433 . S
C1343 N1345 1.384 . S
N1344 C1340 1.427 . S
N1344 C1341 1.384 . S
N1345 C1337 1.427 . S
N1345 C1343 1.384 . S
H1346 C1352 0.930 . S
H1347 C1356 0.930 . S
H1348 C1361 0.929 . S
H1349 C1359 0.929 . S
H1350 C1354 0.929 . S
H1351 C1360 0.929 . S
C1352 H1346 0.930 . S
C1352 C1353 1.367 . S
C1352 C1360 1.378 . S
C1353 C1352 1.367 . S
C1353 C1361 1.433 . S
C1354 H1350 0.929 . S
C1354 C1356 1.378 . S
C1354 C1358 1.350 . S
C1355 C1358 1.463 . S
C1355 C1360 1.350 . S
C1355 N1363 1.427 . S
C1356 H1347 0.930 . S
C1356 C1354 1.378 . S
C1356 C1357 1.367 . S
C1357 C1356 1.367 . S
C1357 C1359 1.433 . S
C1358 C1354 1.350 . S
C1358 C1355 1.463 . S
C1358 N1362 1.427 . S
C1359 H1349 0.929 . S
C1359 C1357 1.433 . S
C1359 N1362 1.384 . S
C1360 H1351 0.929 . S
C1360 C1352 1.378 . S
C1360 C1355 1.350 . S
C1361 H1348 0.929 . S
C1361 C1353 1.433 . S
C1361 N1363 1.384 . S
N1362 C1358 1.427 . S
N1362 C1359 1.384 . S
N1363 C1355 1.427 . S
N1363 C1361 1.384 . S
H1364 C1370 0.930 . S
H1365 C1374 0.930 . S
H1366 C1379 0.929 . S
H1367 C1377 0.929 . S
H1368 C1372 0.929 . S
H1369 C1378 0.929 . S
C1370 H1364 0.930 . S
C1370 C1371 1.367 . S
C1370 C1378 1.378 . S
C1371 C1370 1.367 . S
C1371 C1379 1.433 . S
C1372 H1368 0.929 . S
C1372 C1374 1.378 . S
C1372 C1376 1.350 . S
C1373 C1376 1.463 . S
C1373 C1378 1.350 . S
C1373 N1381 1.427 . S
C1374 H1365 0.930 . S
C1374 C1372 1.378 . S
C1374 C1375 1.367 . S
C1375 C1374 1.367 . S
C1375 C1377 1.433 . S
C1376 C1372 1.350 . S
C1376 C1373 1.463 . S
C1376 N1380 1.427 . S
C1377 H1367 0.929 . S
C1377 C1375 1.433 . S
C1377 N1380 1.384 . S
C1378 H1369 0.929 . S
C1378 C1370 1.378 . S
C1378 C1373 1.350 . S
C1379 H1366 0.929 . S
C1379 C1371 1.433 . S
C1379 N1381 1.384 . S
N1380 C1376 1.427 . S
N1380 C1377 1.384 . S
N1381 C1373 1.427 . S
N1381 C1379 1.384 . S
H1382 C1388 0.930 . S
H1383 C1392 0.930 . S
H1384 C1397 0.929 . S
H1385 C1395 0.929 . S
H1386 C1390 0.929 . S
H1387 C1396 0.929 . S
C1388 H1382 0.930 . S
C1388 C1389 1.367 . S
C1388 C1396 1.378 . S
C1389 C1388 1.367 . S
C1389 C1397 1.433 . S
C1390 H1386 0.929 . S
C1390 C1392 1.378 . S
C1390 C1394 1.350 . S
C1391 C1394 1.463 . S
C1391 C1396 1.350 . S
C1391 N1399 1.427 . S
C1392 H1383 0.930 . S
C1392 C1390 1.378 . S
C1392 C1393 1.367 . S
C1393 C1392 1.367 . S
C1393 C1395 1.433 . S
C1394 C1390 1.350 . S
C1394 C1391 1.463 . S
C1394 N1398 1.427 . S
C1395 H1385 0.929 . S
C1395 C1393 1.433 . S
C1395 N1398 1.384 . S
C1396 H1387 0.929 . S
C1396 C1388 1.378 . S
C1396 C1391 1.350 . S
C1397 H1384 0.929 . S
C1397 C1389 1.433 . S
C1397 N1399 1.384 . S
N1398 C1394 1.427 . S
N1398 C1395 1.384 . S
N1399 C1391 1.427 . S
N1399 C1397 1.384 . S
H1400 C1406 0.930 . S
H1401 C1410 0.930 . S
H1402 C1415 0.929 . S
H1403 C1413 0.929 . S
H1404 C1408 0.929 . S
H1405 C1414 0.929 . S
C1406 H1400 0.930 . S
C1406 C1407 1.367 . S
C1406 C1414 1.378 . S
C1407 C1406 1.367 . S
C1407 C1415 1.433 . S
C1408 H1404 0.929 . S
C1408 C1410 1.378 . S
C1408 C1412 1.350 . S
C1409 C1412 1.463 . S
C1409 C1414 1.350 . S
C1409 N1417 1.427 . S
C1410 H1401 0.930 . S
C1410 C1408 1.378 . S
C1410 C1411 1.367 . S
C1411 C1410 1.367 . S
C1411 C1413 1.433 . S
C1412 C1408 1.350 . S
C1412 C1409 1.463 . S
C1412 N1416 1.427 . S
C1413 H1403 0.929 . S
C1413 C1411 1.433 . S
C1413 N1416 1.384 . S
C1414 H1405 0.929 . S
C1414 C1406 1.378 . S
C1414 C1409 1.350 . S
C1415 H1402 0.929 . S
C1415 C1407 1.433 . S
C1415 N1417 1.384 . S
N1416 C1412 1.427 . S
N1416 C1413 1.384 . S
N1417 C1409 1.427 . S
N1417 C1415 1.384 . S
H1418 C1424 0.930 . S
H1419 C1428 0.930 . S
H1420 C1433 0.929 . S
H1421 C1431 0.929 . S
H1422 C1426 0.929 . S
H1423 C1432 0.929 . S
C1424 H1418 0.930 . S
C1424 C1425 1.367 . S
C1424 C1432 1.378 . S
C1425 C1424 1.367 . S
C1425 C1433 1.433 . S
C1426 H1422 0.929 . S
C1426 C1428 1.378 . S
C1426 C1430 1.350 . S
C1427 C1430 1.463 . S
C1427 C1432 1.350 . S
C1427 N1435 1.427 . S
C1428 H1419 0.930 . S
C1428 C1426 1.378 . S
C1428 C1429 1.367 . S
C1429 C1428 1.367 . S
C1429 C1431 1.433 . S
C1430 C1426 1.350 . S
C1430 C1427 1.463 . S
C1430 N1434 1.427 . S
C1431 H1421 0.929 . S
C1431 C1429 1.433 . S
C1431 N1434 1.384 . S
C1432 H1423 0.929 . S
C1432 C1424 1.378 . S
C1432 C1427 1.350 . S
C1433 H1420 0.929 . S
C1433 C1425 1.433 . S
C1433 N1435 1.384 . S
N1434 C1430 1.427 . S
N1434 C1431 1.384 . S
N1435 C1427 1.427 . S
N1435 C1433 1.384 . S
H1436 C1442 0.930 . S
H1437 C1446 0.930 . S
H1438 C1451 0.929 . S
H1439 C1449 0.929 . S
H1440 C1444 0.929 . S
H1441 C1450 0.929 . S
C1442 H1436 0.930 . S
C1442 C1443 1.367 . S
C1442 C1450 1.378 . S
C1443 C1442 1.367 . S
C1443 C1451 1.433 . S
C1444 H1440 0.929 . S
C1444 C1446 1.378 . S
C1444 C1448 1.350 . S
C1445 C1448 1.463 . S
C1445 C1450 1.350 . S
C1445 N1453 1.427 . S
C1446 H1437 0.930 . S
C1446 C1444 1.378 . S
C1446 C1447 1.367 . S
C1447 C1446 1.367 . S
C1447 C1449 1.433 . S
C1448 C1444 1.350 . S
C1448 C1445 1.463 . S
C1448 N1452 1.427 . S
C1449 H1439 0.929 . S
C1449 C1447 1.433 . S
C1449 N1452 1.384 . S
C1450 H1441 0.929 . S
C1450 C1442 1.378 . S
C1450 C1445 1.350 . S
C1451 H1438 0.929 . S
C1451 C1443 1.433 . S
C1451 N1453 1.384 . S
N1452 C1448 1.427 . S
N1452 C1449 1.384 . S
N1453 C1445 1.427 . S
N1453 C1451 1.384 . S
H1454 C1460 0.930 . S
H1455 C1464 0.930 . S
H1456 C1469 0.929 . S
H1457 C1467 0.929 . S
H1458 C1462 0.929 . S
H1459 C1468 0.929 . S
C1460 H1454 0.930 . S
C1460 C1461 1.367 . S
C1460 C1468 1.378 . S
C1461 C1460 1.367 . S
C1461 C1469 1.433 . S
C1462 H1458 0.929 . S
C1462 C1464 1.378 . S
C1462 C1466 1.350 . S
C1463 C1466 1.463 . S
C1463 C1468 1.350 . S
C1463 N1471 1.427 . S
C1464 H1455 0.930 . S
C1464 C1462 1.378 . S
C1464 C1465 1.367 . S
C1465 C1464 1.367 . S
C1465 C1467 1.433 . S
C1466 C1462 1.350 . S
C1466 C1463 1.463 . S
C1466 N1470 1.427 . S
C1467 H1457 0.929 . S
C1467 C1465 1.433 . S
C1467 N1470 1.384 . S
C1468 H1459 0.929 . S
C1468 C1460 1.378 . S
C1468 C1463 1.350 . S
C1469 H1456 0.929 . S
C1469 C1461 1.433 . S
C1469 N1471 1.384 . S
N1470 C1466 1.427 . S
N1470 C1467 1.384 . S
N1471 C1463 1.427 . S
N1471 C1469 1.384 . S
H1472 C1478 0.930 . S
H1473 C1482 0.930 . S
H1474 C1487 0.929 . S
H1475 C1485 0.929 . S
H1476 C1480 0.929 . S
H1477 C1486 0.929 . S
C1478 H1472 0.930 . S
C1478 C1479 1.367 . S
C1478 C1486 1.378 . S
C1479 C1478 1.367 . S
C1479 C1487 1.433 . S
C1480 H1476 0.929 . S
C1480 C1482 1.378 . S
C1480 C1484 1.350 . S
C1481 C1484 1.463 . S
C1481 C1486 1.350 . S
C1481 N1489 1.427 . S
C1482 H1473 0.930 . S
C1482 C1480 1.378 . S
C1482 C1483 1.367 . S
C1483 C1482 1.367 . S
C1483 C1485 1.433 . S
C1484 C1480 1.350 . S
C1484 C1481 1.463 . S
C1484 N1488 1.427 . S
C1485 H1475 0.929 . S
C1485 C1483 1.433 . S
C1485 N1488 1.384 . S
C1486 H1477 0.929 . S
C1486 C1478 1.378 . S
C1486 C1481 1.350 . S
C1487 H1474 0.929 . S
C1487 C1479 1.433 . S
C1487 N1489 1.384 . S
N1488 C1484 1.427 . S
N1488 C1485 1.384 . S
N1489 C1481 1.427 . S
N1489 C1487 1.384 . S
H1490 C1496 0.930 . S
H1491 C1500 0.930 . S
H1492 C1505 0.929 . S
H1493 C1503 0.929 . S
H1494 C1498 0.929 . S
H1495 C1504 0.929 . S
C1496 H1490 0.930 . S
C1496 C1497 1.367 . S
C1496 C1504 1.378 . S
C1497 C1496 1.367 . S
C1497 C1505 1.433 . S
C1498 H1494 0.929 . S
C1498 C1500 1.378 . S
C1498 C1502 1.350 . S
C1499 C1502 1.463 . S
C1499 C1504 1.350 . S
C1499 N1507 1.427 . S
C1500 H1491 0.930 . S
C1500 C1498 1.378 . S
C1500 C1501 1.367 . S
C1501 C1500 1.367 . S
C1501 C1503 1.433 . S
C1502 C1498 1.350 . S
C1502 C1499 1.463 . S
C1502 N1506 1.427 . S
C1503 H1493 0.929 . S
C1503 C1501 1.433 . S
C1503 N1506 1.384 . S
C1504 H1495 0.929 . S
C1504 C1496 1.378 . S
C1504 C1499 1.350 . S
C1505 H1492 0.929 . S
C1505 C1497 1.433 . S
C1505 N1507 1.384 . S
N1506 C1502 1.427 . S
N1506 C1503 1.384 . S
N1507 C1499 1.427 . S
N1507 C1505 1.384 . S
H1508 C1514 0.930 . S
H1509 C1518 0.930 . S
H1510 C1523 0.929 . S
H1511 C1521 0.929 . S
H1512 C1516 0.929 . S
H1513 C1522 0.929 . S
C1514 H1508 0.930 . S
C1514 C1515 1.367 . S
C1514 C1522 1.378 . S
C1515 C1514 1.367 . S
C1515 C1523 1.433 . S
C1516 H1512 0.929 . S
C1516 C1518 1.378 . S
C1516 C1520 1.350 . S
C1517 C1520 1.463 . S
C1517 C1522 1.350 . S
C1517 N1525 1.427 . S
C1518 H1509 0.930 . S
C1518 C1516 1.378 . S
C1518 C1519 1.367 . S
C1519 C1518 1.367 . S
C1519 C1521 1.433 . S
C1520 C1516 1.350 . S
C1520 C1517 1.463 . S
C1520 N1524 1.427 . S
C1521 H1511 0.929 . S
C1521 C1519 1.433 . S
C1521 N1524 1.384 . S
C1522 H1513 0.929 . S
C1522 C1514 1.378 . S
C1522 C1517 1.350 . S
C1523 H1510 0.929 . S
C1523 C1515 1.433 . S
C1523 N1525 1.384 . S
N1524 C1520 1.427 . S
N1524 C1521 1.384 . S
N1525 C1517 1.427 . S
N1525 C1523 1.384 . S
H1526 C1532 0.930 . S
H1527 C1536 0.930 . S
H1528 C1541 0.929 . S
H1529 C1539 0.929 . S
H1530 C1534 0.929 . S
H1531 C1540 0.929 . S
C1532 H1526 0.930 . S
C1532 C1533 1.367 . S
C1532 C1540 1.378 . S
C1533 C1532 1.367 . S
C1533 C1541 1.433 . S
C1534 H1530 0.929 . S
C1534 C1536 1.378 . S
C1534 C1538 1.350 . S
C1535 C1538 1.463 . S
C1535 C1540 1.350 . S
C1535 N1543 1.427 . S
C1536 H1527 0.930 . S
C1536 C1534 1.378 . S
C1536 C1537 1.367 . S
C1537 C1536 1.367 . S
C1537 C1539 1.433 . S
C1538 C1534 1.350 . S
C1538 C1535 1.463 . S
C1538 N1542 1.427 . S
C1539 H1529 0.929 . S
C1539 C1537 1.433 . S
C1539 N1542 1.384 . S
C1540 H1531 0.929 . S
C1540 C1532 1.378 . S
C1540 C1535 1.350 . S
C1541 H1528 0.929 . S
C1541 C1533 1.433 . S
C1541 N1543 1.384 . S
N1542 C1538 1.427 . S
N1542 C1539 1.384 . S
N1543 C1535 1.427 . S
N1543 C1541 1.384 . S
H1544 C1550 0.930 . S
H1545 C1554 0.930 . S
H1546 C1559 0.929 . S
H1547 C1557 0.929 . S
H1548 C1552 0.929 . S
H1549 C1558 0.929 . S
C1550 H1544 0.930 . S
C1550 C1551 1.367 . S
C1550 C1558 1.378 . S
C1551 C1550 1.367 . S
C1551 C1559 1.433 . S
C1552 H1548 0.929 . S
C1552 C1554 1.378 . S
C1552 C1556 1.350 . S
C1553 C1556 1.463 . S
C1553 C1558 1.350 . S
C1553 N1561 1.427 . S
C1554 H1545 0.930 . S
C1554 C1552 1.378 . S
C1554 C1555 1.367 . S
C1555 C1554 1.367 . S
C1555 C1557 1.433 . S
C1556 C1552 1.350 . S
C1556 C1553 1.463 . S
C1556 N1560 1.427 . S
C1557 H1547 0.929 . S
C1557 C1555 1.433 . S
C1557 N1560 1.384 . S
C1558 H1549 0.929 . S
C1558 C1550 1.378 . S
C1558 C1553 1.350 . S
C1559 H1546 0.929 . S
C1559 C1551 1.433 . S
C1559 N1561 1.384 . S
N1560 C1556 1.427 . S
N1560 C1557 1.384 . S
N1561 C1553 1.427 . S
N1561 C1559 1.384 . S
H1562 C1568 0.930 . S
H1563 C1572 0.930 . S
H1564 C1577 0.929 . S
H1565 C1575 0.929 . S
H1566 C1570 0.929 . S
H1567 C1576 0.929 . S
C1568 H1562 0.930 . S
C1568 C1569 1.367 . S
C1568 C1576 1.378 . S
C1569 C1568 1.367 . S
C1569 C1577 1.433 . S
C1570 H1566 0.929 . S
C1570 C1572 1.378 . S
C1570 C1574 1.350 . S
C1571 C1574 1.463 . S
C1571 C1576 1.350 . S
C1571 N1579 1.427 . S
C1572 H1563 0.930 . S
C1572 C1570 1.378 . S
C1572 C1573 1.367 . S
C1573 C1572 1.367 . S
C1573 C1575 1.433 . S
C1574 C1570 1.350 . S
C1574 C1571 1.463 . S
C1574 N1578 1.427 . S
C1575 H1565 0.929 . S
C1575 C1573 1.433 . S
C1575 N1578 1.384 . S
C1576 H1567 0.929 . S
C1576 C1568 1.378 . S
C1576 C1571 1.350 . S
C1577 H1564 0.929 . S
C1577 C1569 1.433 . S
C1577 N1579 1.384 . S
N1578 C1574 1.427 . S
N1578 C1575 1.384 . S
N1579 C1571 1.427 . S
N1579 C1577 1.384 . S
H1580 C1586 0.930 . S
H1581 C1590 0.930 . S
H1582 C1595 0.929 . S
H1583 C1593 0.929 . S
H1584 C1588 0.929 . S
H1585 C1594 0.929 . S
C1586 H1580 0.930 . S
C1586 C1587 1.367 . S
C1586 C1594 1.378 . S
C1587 C1586 1.367 . S
C1587 C1595 1.433 . S
C1588 H1584 0.929 . S
C1588 C1590 1.378 . S
C1588 C1592 1.350 . S
C1589 C1592 1.463 . S
C1589 C1594 1.350 . S
C1589 N1597 1.427 . S
C1590 H1581 0.930 . S
C1590 C1588 1.378 . S
C1590 C1591 1.367 . S
C1591 C1590 1.367 . S
C1591 C1593 1.433 . S
C1592 C1588 1.350 . S
C1592 C1589 1.463 . S
C1592 N1596 1.427 . S
C1593 H1583 0.929 . S
C1593 C1591 1.433 . S
C1593 N1596 1.384 . S
C1594 H1585 0.929 . S
C1594 C1586 1.378 . S
C1594 C1589 1.350 . S
C1595 H1582 0.929 . S
C1595 C1587 1.433 . S
C1595 N1597 1.384 . S
N1596 C1592 1.427 . S
N1596 C1593 1.384 . S
N1597 C1589 1.427 . S
N1597 C1595 1.384 . S
H1598 C1604 0.930 . S
H1599 C1608 0.930 . S
H1600 C1613 0.929 . S
H1601 C1611 0.929 . S
H1602 C1606 0.929 . S
H1603 C1612 0.929 . S
C1604 H1598 0.930 . S
C1604 C1605 1.367 . S
C1604 C1612 1.378 . S
C1605 C1604 1.367 . S
C1605 C1613 1.433 . S
C1606 H1602 0.929 . S
C1606 C1608 1.378 . S
C1606 C1610 1.350 . S
C1607 C1610 1.463 . S
C1607 C1612 1.350 . S
C1607 N1615 1.427 . S
C1608 H1599 0.930 . S
C1608 C1606 1.378 . S
C1608 C1609 1.367 . S
C1609 C1608 1.367 . S
C1609 C1611 1.433 . S
C1610 C1606 1.350 . S
C1610 C1607 1.463 . S
C1610 N1614 1.427 . S
C1611 H1601 0.929 . S
C1611 C1609 1.433 . S
C1611 N1614 1.384 . S
C1612 H1603 0.929 . S
C1612 C1604 1.378 . S
C1612 C1607 1.350 . S
C1613 H1600 0.929 . S
C1613 C1605 1.433 . S
C1613 N1615 1.384 . S
N1614 C1610 1.427 . S
N1614 C1611 1.384 . S
N1615 C1607 1.427 . S
N1615 C1613 1.384 . S
C1051 C961 1.518 . S
C1047 C11 0.954 . S
C1065 C143 1.152 . S
C1069 C993 1.452 . S
C1083 C283 1.116 . S
C1087 C1016 1.586 . S
C1105 C920 1.394 . S
C1101 C343 1.132 . S
C1123 C1003 1.410 . S
C1119 C55 1.085 . S
C1141 C1032 1.239 . S
C1137 C115 1.118 . S
C1159 C936 1.376 . S
C1155 C239 0.949 . S
C1177 C971 1.313 . S
C1173 C371 1.137 . S
C1191 C29 1.150 . S
C1195 C999 1.291 . S
C1209 C467 0.852 . S
C1213 C974 1.326 . S
C1227 C229 1.040 . S
C1231 C942 1.201 . S
C1249 C1031 1.402 . S
C1245 C625 1.151 . S
C1267 C975 1.351 . S
C1263 C1 1.089 . S
C1281 C511 1.159 . S
C1285 C943 1.536 . S
C1299 C257 1.179 . S
C1303 C1030 1.441 . S
C1321 C998 1.505 . S
C1317 C581 0.921 . S
C1335 C713 1.170 . S
C1339 C1025 1.461 . S
C1353 C485 1.119 . S
C1357 C929 1.442 . S
C1371 C799 1.098 . S
C1375 C952 1.371 . S
C1389 C571 1.129 . S
C1393 C984 1.376 . S
C1411 C939 1.218 . S
C1407 C685 1.135 . S
C1425 C457 1.113 . S
C1429 C968 1.206 . S
C1443 C827 1.110 . S
C1447 C1000 1.306 . S
C1465 C1035 1.284 . S
C1461 C599 1.106 . S
C1479 C695 0.867 . S
C1483 C935 1.352 . S
C1497 C125 0.838 . S
C1501 C1038 1.352 . S
C1515 C853 1.153 . S
C1519 C1006 1.388 . S
C1537 C967 1.422 . S
C1533 C397 1.170 . S
C1555 C1039 1.559 . S
C1551 C739 1.182 . S
C1573 C1007 1.549 . S
C1569 C169 1.180 . S
C1591 C966 1.503 . S
C1587 C809 0.922 . S
C1609 C934 1.522 . S
C1605 C353 0.893 . S
