# Generated by pormake.
# Topology pts, (4,4)-cn, num edge types: 1
# Building blocks:
#     Node 0, Type 0, BuildingBlock: NAWXER_clean_linker_0, # of connection points: 4
#     Node 1, Type 0, BuildingBlock: NAWXER_clean_linker_0, # of connection points: 4
#     Node 2, Type 1, BuildingBlock: QUQFOY_clean_sbu_1, # of connection points: 4
#     Node 3, Type 1, BuildingBlock: QUQFOY_clean_sbu_1, # of connection points: 4
#     Edge 4, Type (0, 1), BuildingBlock: FUNLAD_clean_linker_0, # of connection points: 2
#     Edge 5, Type (0, 1), BuildingBlock: FUNLAD_clean_linker_0, # of connection points: 2
#     Edge 6, Type (0, 1), BuildingBlock: FUNLAD_clean_linker_0, # of connection points: 2
#     Edge 7, Type (0, 1), BuildingBlock: FUNLAD_clean_linker_0, # of connection points: 2
#     Edge 8, Type (0, 1), BuildingBlock: FUNLAD_clean_linker_0, # of connection points: 2
#     Edge 9, Type (0, 1), BuildingBlock: FUNLAD_clean_linker_0, # of connection points: 2
#     Edge 10, Type (0, 1), BuildingBlock: FUNLAD_clean_linker_0, # of connection points: 2
#     Edge 11, Type (0, 1), BuildingBlock: FUNLAD_clean_linker_0, # of connection points: 2
# Relax obj value: 0.095
# Max RMSD: 0.253
# Mean RMSD: 0.145
data_MOF--net-pts--node1-QUQFOY_clean_sbu_1--node2-NAWXER_clean_linker_0--edge1-FUNLAD_clean_linker_0
_symmetry_space_group_name_H-M    P1
_symmetry_Int_Tables_number       1
_symmetry_cell_setting            triclinic
loop_
_symmetry_equiv_pos_as_xyz
'x, y, z'
_cell_length_a     31.674866
_cell_length_b     34.732982
_cell_length_c     51.526142
_cell_angle_alpha  90.022365
_cell_angle_beta   89.860726
_cell_angle_gamma 90.018376
loop_
_atom_site_label
_atom_site_type_symbol
_atom_site_fract_x
_atom_site_fract_y
_atom_site_fract_z
_atom_type_partial_charge
C0 C 0.63516 0.01446 0.9505 0.0
C1 C 0.63772 0.98433 0.93232 0.0
C2 C 0.6013 0.01648 0.9679 0.0
C3 C 0.56955 0.98825 0.96752 0.0
C4 C 0.60623 0.95581 0.9323 0.0
C5 C 0.57238 0.9579 0.94963 0.0
C6 C 0.53123 0.99207 0.98374 0.0
C7 C 0.6356 0.97227 0.04147 0.0
C8 C 0.64025 0.00101 0.0605 0.0
C9 C 0.60106 0.97265 0.02466 0.0
C10 C 0.57081 0.00214 0.02627 0.0
C11 C 0.61014 0.03068 0.06187 0.0
C12 C 0.57573 0.03113 0.04499 0.0
C13 C 0.53187 0.00094 0.01048 0.0
C14 C 0.35174 0.98221 0.04361 0.0
C15 C 0.34919 0.01255 0.06164 0.0
C16 C 0.38597 0.97961 0.02652 0.0
C17 C 0.41806 0.00751 0.02698 0.0
C18 C 0.38116 0.04063 0.06183 0.0
C19 C 0.41532 0.038 0.04477 0.0
C20 C 0.45649 0.0033 0.01088 0.0
C21 C 0.35237 0.02045 0.95208 0.0
C22 C 0.34756 0.98994 0.93437 0.0
C23 C 0.38686 0.02143 0.96895 0.0
C24 C 0.41697 0.99176 0.96851 0.0
C25 C 0.37748 0.96007 0.93426 0.0
C26 C 0.41193 0.9611 0.95106 0.0
C27 C 0.45589 0.99412 0.98419 0.0
H28 H 0.65907 0.03675 0.95106 0.0
H29 H 0.5993 0.04071 0.98108 0.0
H30 H 0.60695 0.93256 0.9183 0.0
H31 H 0.54797 0.93608 0.94878 0.0
H32 H 0.65839 0.94916 0.03976 0.0
H33 H 0.59741 0.94924 0.01097 0.0
H34 H 0.61235 0.05291 0.07654 0.0
H35 H 0.55251 0.05387 0.04684 0.0
H36 H 0.32749 0.96026 0.04287 0.0
H37 H 0.38788 0.95519 0.0135 0.0
H38 H 0.38048 0.06402 0.07573 0.0
H39 H 0.44 0.05957 0.0457 0.0
H40 H 0.3297 0.04378 0.95271 0.0
H41 H 0.39061 0.04591 0.98176 0.0
H42 H 0.37504 0.93647 0.9206 0.0
H43 H 0.43506 0.93816 0.95017 0.0
N44 N 0.49327 0.98881 0.97175 0.0
N45 N 0.49446 0.00641 0.02291 0.0
C46 C 0.01629 0.63665 0.53778 0.0
C47 C 0.98364 0.64398 0.55564 0.0
C48 C 0.01683 0.6025 0.52348 0.0
C49 C 0.98464 0.57508 0.52665 0.0
C50 C 0.95171 0.61624 0.55901 0.0
C51 C 0.95243 0.58193 0.54479 0.0
C52 C 0.98487 0.53913 0.51126 0.0
C53 C 0.95655 0.63664 0.45731 0.0
C54 C 0.98782 0.6428 0.43835 0.0
C55 C 0.95619 0.60275 0.47192 0.0
C56 C 0.98748 0.57461 0.46814 0.0
C57 C 0.01856 0.61419 0.43424 0.0
C58 C 0.01825 0.58038 0.44892 0.0
C59 C 0.98813 0.53896 0.48391 0.0
C60 C 0.97256 0.36914 0.45879 0.0
C61 C 0.00267 0.36658 0.43873 0.0
C62 C 0.96851 0.40287 0.47339 0.0
C63 C -0.00485 0.4345 0.46869 0.0
C64 C 0.0284 0.39877 0.4336 0.0
C65 C 0.02464 0.4323 0.4484 0.0
C66 C 0.99185 0.47035 0.48424 0.0
C67 C 0.03061 0.37765 0.53996 0.0
C68 C -0.00125 0.36807 0.55787 0.0
C69 C 0.02736 0.41096 0.52491 0.0
C70 C 0.99218 0.43528 0.52747 0.0
C71 C 0.96372 0.39264 0.56053 0.0
C72 C 0.96068 0.42615 0.54562 0.0
C73 C 0.9886 0.47058 0.51162 0.0
H74 H 0.04122 0.65751 0.53468 0.0
H75 H 0.04244 0.59749 0.50992 0.0
H76 H 0.9265 0.62086 0.5729 0.0
H77 H 0.92753 0.56096 0.54768 0.0
H78 H 0.93194 0.65775 0.46057 0.0
H79 H 0.93134 0.59849 0.4861 0.0
H80 H 0.04327 0.61818 0.41993 0.0
H81 H 0.04256 0.55899 0.44557 0.0
H82 H 0.95227 0.34498 0.46338 0.0
H83 H 0.94443 0.40418 0.48831 0.0
H84 H 0.05119 0.39831 0.4179 0.0
H85 H 0.0451 0.45649 0.4441 0.0
H86 H 0.05791 0.35923 0.53747 0.0
H87 H 0.0524 0.41782 0.51132 0.0
H88 H 0.93902 0.38628 0.57446 0.0
H89 H 0.9335 0.44475 0.54805 0.0
N90 N 0.98494 0.50493 0.52409 0.0
N91 N 0.99176 0.5046 0.47147 0.0
O92 O 0.93683 0.97891 0.23252 0.0
Cd93 Cd 0.99107 0.96609 0.25283 0.0
Cd94 Cd -0.00338 0.04553 0.25408 0.0
O95 O 0.94191 0.04224 0.23266 0.0
O96 O 0.98644 0.90956 0.25817 0.0
O97 O 0.98906 0.9509 0.2907 0.0
C98 C 0.98645 0.91567 0.28281 0.0
C99 C -0.00226 0.089 0.28861 0.0
C100 C 0.92268 0.01172 0.22597 0.0
C101 C 0.06745 0.00269 0.22805 0.0
O102 O 0.05255 0.03513 0.23484 0.0
O103 O 0.0479 0.97181 0.23358 0.0
O104 O 0.00094 0.10031 0.26487 0.0
O105 O -0.0061 0.05251 0.2929 0.0
O106 O 0.94234 0.036 0.76156 0.0
Cd107 Cd -0.00329 0.04356 0.74004 0.0
Cd108 Cd -0.00228 0.96409 0.74192 0.0
O109 O 0.9431 0.97251 0.76295 0.0
O110 O -0.00394 0.09888 0.73022 0.0
O111 O -0.00578 0.05189 0.7013 0.0
C112 C -0.00532 0.08836 0.70626 0.0
C113 C -0.00193 0.91484 0.71101 0.0
C114 C 0.92613 0.00442 0.76906 0.0
C115 C 0.07085 0.00622 0.76616 0.0
O116 O 0.05386 0.97405 0.76085 0.0
O117 O 0.05337 0.03746 0.75921 0.0
O118 O -0.00055 0.90766 0.7355 0.0
O119 O -0.00402 0.95042 0.70383 0.0
C120 C 0.30079 0.98048 0.09363 0.0
C121 C 0.31437 0.01412 0.08095 0.0
C122 C 0.26923 0.98208 0.11258 0.0
C123 C 0.25068 0.01752 0.11942 0.0
C124 C 0.26364 0.05096 0.10633 0.0
C125 C 0.29523 0.04935 0.0874 0.0
C126 C 0.21697 0.02077 0.13943 0.0
C127 C 0.21043 0.99451 0.15829 0.0
C128 C 0.17552 0.99761 0.17745 0.0
C129 C 0.1582 0.96375 0.18783 0.0
C130 C 0.12378 0.96537 0.2048 0.0
C131 C 0.10629 0.00101 0.21203 0.0
H132 H 0.17272 0.06013 0.17871 0.0
C133 C 0.12492 0.035 0.20259 0.0
C134 C 0.15919 0.03335 0.18551 0.0
H135 H 0.11253 0.06296 0.20797 0.0
H136 H 0.31505 0.9529 0.08921 0.0
H137 H 0.25932 0.95539 0.12148 0.0
H138 H 0.24952 0.07856 0.11092 0.0
H139 H 0.30454 0.0757 0.07771 0.0
H140 H 0.19687 0.04605 0.13847 0.0
H141 H 0.23009 0.969 0.15935 0.0
H142 H 0.17057 0.93587 0.18222 0.0
H143 H 0.11042 0.93863 0.21186 0.0
C144 C 0.9679 0.30845 0.57792 0.0
C145 C 0.00259 0.33311 0.57422 0.0
C146 C 0.9712 0.27628 0.59411 0.0
C147 C 0.00929 0.26828 0.60705 0.0
C148 C 0.04393 0.29287 0.60323 0.0
C149 C 0.04076 0.32475 0.58684 0.0
C150 C 0.01305 0.23654 0.62619 0.0
C151 C 0.98953 0.20421 0.62556 0.0
C152 C 0.99196 0.17446 0.64621 0.0
C153 C 0.9842 0.13567 0.64014 0.0
C154 C 0.98555 0.10739 0.65951 0.0
C155 C -0.00612 0.1176 0.68539 0.0
H156 H 0.00489 0.21432 0.67771 0.0
C157 C 0.00103 0.1565 0.69147 0.0
C158 C 0.00011 0.18458 0.67214 0.0
H159 H 0.0073 0.1654 0.71124 0.0
H160 H 0.93813 0.31415 0.56835 0.0
H161 H 0.94351 0.25855 0.59707 0.0
H162 H 0.07347 0.28761 0.61318 0.0
H163 H 0.06787 0.34349 0.5846 0.0
H164 H 0.03685 0.23978 0.6412 0.0
H165 H 0.96872 0.19881 0.60923 0.0
H166 H 0.97735 0.12721 0.62035 0.0
H167 H 0.97965 0.07768 0.65426 0.0
C168 C 0.69595 0.03287 0.08776 0.0
C169 C 0.67522 0.99917 0.07963 0.0
C170 C 0.72764 0.03124 0.10655 0.0
C171 C 0.7392 0.99579 0.11769 0.0
C172 C 0.71918 0.96208 0.10914 0.0
C173 C 0.68738 0.96372 0.09045 0.0
C174 C 0.77274 0.99257 0.13765 0.0
C175 C 0.78316 0.02138 0.15397 0.0
C176 C 0.81731 0.01815 0.17358 0.0
C177 C 0.83732 0.05185 0.18221 0.0
C178 C 0.87088 0.04993 0.19973 0.0
C179 C 0.88494 0.01419 0.20914 0.0
H180 H 0.81455 0.95597 0.17857 0.0
C181 C 0.86376 0.98058 0.20133 0.0
C182 C 0.83022 0.9825 0.18384 0.0
H183 H 0.87338 0.9526 0.20848 0.0
H184 H 0.68795 0.06053 0.07942 0.0
H185 H 0.74339 0.05771 0.11189 0.0
H186 H 0.72769 0.93437 0.11725 0.0
H187 H 0.67174 0.93725 0.0849 0.0
H188 H 0.78889 0.96509 0.13897 0.0
H189 H 0.76702 0.04886 0.15259 0.0
H190 H 0.82764 0.07972 0.17491 0.0
H191 H 0.88631 0.07643 0.20545 0.0
C192 C 0.0206 0.69382 0.58248 0.0
C193 C 0.98331 0.68017 0.57097 0.0
C194 C 0.02027 0.72743 0.59738 0.0
C195 C 0.98256 0.74815 0.60111 0.0
C196 C 0.94557 0.73512 0.589 0.0
C197 C 0.94582 0.70128 0.57426 0.0
C198 C 0.98096 0.78329 0.61754 0.0
C199 C 0.00559 0.78764 0.63859 0.0
C200 C 0.00268 0.82099 0.65652 0.0
C201 C 0.0133 0.81543 0.68264 0.0
C202 C 0.01137 0.84589 0.70024 0.0
C203 C -0.00044 0.88291 0.69202 0.0
H204 H 0.98349 0.86352 0.62799 0.0
C205 C 0.98956 0.88879 0.66576 0.0
C206 C 0.99091 0.85804 0.64814 0.0
H207 H 0.98055 0.91706 0.65884 0.0
H208 H 0.04997 0.67817 0.58031 0.0
H209 H 0.04966 0.7372 0.6058 0.0
H210 H 0.91621 0.75076 0.59135 0.0
H211 H 0.91673 0.69177 0.56529 0.0
H212 H 0.95672 0.80451 0.61336 0.0
H213 H 0.02672 0.76443 0.64415 0.0
H214 H 0.02277 0.78726 0.68955 0.0
H215 H 0.01958 0.84042 0.7203 0.0
C216 C 0.30169 0.0238 0.90198 0.0
C217 C 0.31261 0.9899 0.91524 0.0
C218 C 0.27035 0.02334 0.88293 0.0
C219 C 0.24938 0.98883 0.87666 0.0
C220 C 0.25958 0.95524 0.89043 0.0
C221 C 0.29094 0.95569 0.90942 0.0
C222 C 0.21607 0.98666 0.85644 0.0
C223 C 0.2119 0.0123 0.83698 0.0
C224 C 0.17768 0.00976 0.81742 0.0
C225 C 0.16222 0.04375 0.80623 0.0
C226 C 0.12829 0.04262 0.78895 0.0
C227 C 0.10948 0.00731 0.78226 0.0
H228 H 0.17238 0.94735 0.81719 0.0
C229 C 0.12642 0.97311 0.79245 0.0
C230 C 0.16019 0.97429 0.8098 0.0
H231 H 0.11305 0.94537 0.78747 0.0
H232 H 0.31793 0.0506 0.90595 0.0
H233 H 0.2626 0.05018 0.87346 0.0
H234 H 0.24356 0.92837 0.88627 0.0
H235 H 0.2982 0.92921 0.91957 0.0
H236 H 0.19434 0.96254 0.85768 0.0
H237 H 0.23306 0.03677 0.83563 0.0
H238 H 0.17557 0.0714 0.81148 0.0
H239 H 0.11624 0.06949 0.78131 0.0
C240 C 0.97103 0.30928 0.4159 0.0
C241 C 0.00687 0.33085 0.42291 0.0
C242 C 0.97488 0.27671 0.4001 0.0
C243 C 0.0147 0.26505 0.39086 0.0
C244 C 0.05048 0.28629 0.39805 0.0
C245 C 0.04671 0.31856 0.41407 0.0
C246 C 0.01959 0.23305 0.37199 0.0
C247 C 0.993 0.20285 0.37057 0.0
C248 C -0.00366 0.17329 0.34983 0.0
C249 C 0.98343 0.1353 0.3548 0.0
C250 C 0.98475 0.10747 0.33512 0.0
C251 C -0.00189 0.11743 0.30998 0.0
H252 H 0.01902 0.21232 0.31995 0.0
C253 C 0.01081 0.1555 0.30503 0.0
C254 C 0.01002 0.18308 0.32471 0.0
H255 H 0.02113 0.16415 0.28584 0.0
H256 H 0.93975 0.31822 0.4219 0.0
H257 H 0.94645 0.2617 0.39435 0.0
H258 H 0.0815 0.27801 0.3911 0.0
H259 H 0.07512 0.33396 0.41943 0.0
H260 H 0.04657 0.23433 0.35895 0.0
H261 H 0.96849 0.19924 0.38515 0.0
H262 H 0.97233 0.12716 0.37393 0.0
H263 H 0.97451 0.07841 0.33946 0.0
C264 C 0.6836 0.01738 0.89947 0.0
C265 C 0.67187 0.98353 0.91256 0.0
C266 C 0.71417 0.01642 0.87989 0.0
C267 C 0.73403 0.98154 0.87313 0.0
C268 C 0.72224 0.94777 0.88626 0.0
C269 C 0.69161 0.94873 0.9058 0.0
C270 C 0.7661 0.97881 0.85208 0.0
C271 C 0.78932 0.00894 0.84375 0.0
C272 C 0.82245 0.00629 0.82328 0.0
C273 C 0.83709 0.0405 0.81185 0.0
C274 C 0.86986 0.03985 0.79366 0.0
C275 C 0.88892 0.00487 0.78652 0.0
H276 H 0.83187 0.94414 0.82448 0.0
C277 C 0.8738 0.97051 0.79756 0.0
C278 C 0.84113 0.97117 0.81581 0.0
H279 H 0.888 0.94308 0.79267 0.0
H280 H 0.66824 0.04449 0.90383 0.0
H281 H 0.7211 0.04293 0.86975 0.0
H282 H 0.73685 0.92048 0.88141 0.0
H283 H 0.68342 0.92219 0.91563 0.0
H284 H 0.77094 0.95055 0.84366 0.0
H285 H 0.78445 0.03709 0.85237 0.0
H286 H 0.82347 0.06799 0.81724 0.0
H287 H 0.88074 0.06688 0.78558 0.0
C288 C -0.00352 0.67732 0.39591 0.0
C289 C 0.98811 0.67872 0.42268 0.0
C290 C -0.00335 0.71095 0.38108 0.0
C291 C 0.98813 0.74687 0.39265 0.0
C292 C 0.98052 0.74836 0.41948 0.0
C293 C 0.98023 0.71464 0.43433 0.0
C294 C 0.98831 0.78323 0.37739 0.0
C295 C 0.97825 0.78426 0.35199 0.0
C296 C 0.97996 0.81922 0.33527 0.0
C297 C 0.97739 0.81398 0.30832 0.0
C298 C 0.97939 0.84531 0.29146 0.0
C299 C 0.98377 0.88292 0.30111 0.0
H300 H 0.98511 0.86264 0.36566 0.0
C301 C 0.98576 0.88851 0.3281 0.0
C302 C 0.98386 0.85699 0.34506 0.0
H303 H 0.9889 0.91719 0.33612 0.0
H304 H 0.00257 0.65011 0.38632 0.0
H305 H 0.00416 0.70864 0.36064 0.0
H306 H 0.97446 0.77567 0.42896 0.0
H307 H 0.97435 0.71675 0.455 0.0
H308 H -0.00348 0.80944 0.38762 0.0
H309 H 0.96877 0.7577 0.34251 0.0
H310 H 0.9742 0.78537 0.30015 0.0
H311 H 0.97758 0.83991 0.27079 0.0
loop_
_geom_bond_atom_site_label_1
_geom_bond_atom_site_label_2
_geom_bond_distance
_geom_bond_site_symmetry_2
_ccdc_geom_bond_type
C0 C1 1.375 1_545 S
C0 C2 1.384 . S
C0 H28 0.931 . S
C1 C0 1.375 1_565 S
C1 C4 1.391 . S
C2 C0 1.384 . S
C2 C3 1.381 1_545 S
C2 H29 0.930 . S
C3 C2 1.381 1_565 S
C3 C5 1.381 . S
C3 C6 1.487 . S
C4 C1 1.391 . S
C4 C5 1.387 . S
C4 H30 0.930 . S
C5 C3 1.381 . S
C5 C4 1.387 . S
C5 H31 0.931 . S
C6 C3 1.487 . S
C6 C13 1.399 1_566 S
C6 N44 1.343 . S
C7 C8 1.384 1_565 S
C7 C9 1.384 . S
C7 H32 0.931 . S
C8 C7 1.384 1_545 S
C8 C11 1.382 . S
C9 C7 1.384 . S
C9 C10 1.381 1_565 S
C9 H33 0.930 . S
C10 C9 1.381 1_545 S
C10 C12 1.381 . S
C10 C13 1.487 . S
C11 C8 1.382 . S
C11 C12 1.387 . S
C11 H34 0.930 . S
C12 C10 1.381 . S
C12 C11 1.387 . S
C12 H35 0.931 . S
C13 C6 1.399 1_544 S
C13 C10 1.487 . S
C13 N45 1.343 . S
C14 C15 1.384 1_565 S
C14 C16 1.384 . S
C14 H36 0.931 . S
C15 C14 1.384 1_545 S
C15 C18 1.382 . S
C16 C14 1.384 . S
C16 C17 1.381 1_565 S
C16 H37 0.930 . S
C17 C16 1.381 1_545 S
C17 C19 1.381 . S
C17 C20 1.487 . S
C18 C15 1.382 . S
C18 C19 1.387 . S
C18 H38 0.930 . S
C19 C17 1.381 . S
C19 C18 1.387 . S
C19 H39 0.931 . S
C20 C17 1.487 . S
C20 C27 1.399 1_544 S
C20 N45 1.343 . S
C21 C22 1.375 1_545 S
C21 C23 1.384 . S
C21 H40 0.931 . S
C22 C21 1.375 1_565 S
C22 C25 1.391 . S
C23 C21 1.384 . S
C23 C24 1.381 1_545 S
C23 H41 0.930 . S
C24 C23 1.381 1_565 S
C24 C26 1.381 . S
C24 C27 1.487 . S
C25 C22 1.391 . S
C25 C26 1.387 . S
C25 H42 0.930 . S
C26 C24 1.381 . S
C26 C25 1.387 . S
C26 H43 0.931 . S
C27 C20 1.399 1_566 S
C27 C24 1.487 . S
C27 N44 1.343 . S
H28 C0 0.931 . S
H29 C2 0.930 . S
H30 C4 0.930 . S
H31 C5 0.931 . S
H32 C7 0.931 . S
H33 C9 0.930 . S
H34 C11 0.930 . S
H35 C12 0.931 . S
H36 C14 0.931 . S
H37 C16 0.930 . S
H38 C18 0.930 . S
H39 C19 0.931 . S
H40 C21 0.931 . S
H41 C23 0.930 . S
H42 C25 0.930 . S
H43 C26 0.931 . S
N44 C6 1.343 . S
N44 C27 1.343 . S
N45 C13 1.343 . S
N45 C20 1.343 . S
C46 C47 1.384 1_455 S
C46 C48 1.384 . S
C46 H74 0.931 . S
C47 C46 1.384 1_655 S
C47 C50 1.382 . S
C48 C46 1.384 . S
C48 C49 1.381 1_455 S
C48 H75 0.930 . S
C49 C48 1.381 1_655 S
C49 C51 1.381 . S
C49 C52 1.487 . S
C50 C47 1.382 . S
C50 C51 1.387 . S
C50 H76 0.930 . S
C51 C49 1.381 . S
C51 C50 1.387 . S
C51 H77 0.931 . S
C52 C49 1.487 . S
C52 C59 1.399 1_655 S
C52 N90 1.343 . S
C53 C54 1.384 1_655 S
C53 C55 1.384 . S
C53 H78 0.931 . S
C54 C53 1.384 1_455 S
C54 C57 1.382 . S
C55 C53 1.384 . S
C55 C56 1.381 1_655 S
C55 H79 0.930 . S
C56 C55 1.381 1_455 S
C56 C58 1.381 . S
C56 C59 1.487 . S
C57 C54 1.382 . S
C57 C58 1.387 . S
C57 H80 0.930 . S
C58 C56 1.381 . S
C58 C57 1.387 . S
C58 H81 0.931 . S
C59 C52 1.399 1_455 S
C59 C56 1.487 . S
C59 N91 1.343 . S
C60 C61 1.384 1_655 S
C60 C62 1.384 . S
C60 H82 0.931 . S
C61 C60 1.384 1_455 S
C61 C64 1.382 . S
C62 C60 1.384 . S
C62 C63 1.381 1_655 S
C62 H83 0.930 . S
C63 C62 1.381 1_455 S
C63 C65 1.381 . S
C63 C66 1.487 . S
C64 C61 1.382 . S
C64 C65 1.387 . S
C64 H84 0.930 . S
C65 C63 1.381 . S
C65 C64 1.387 . S
C65 H85 0.931 . S
C66 C63 1.487 . S
C66 C73 1.399 1_455 S
C66 N91 1.343 . S
C67 C68 1.384 1_455 S
C67 C69 1.384 . S
C67 H86 0.931 . S
C68 C67 1.384 1_655 S
C68 C71 1.382 . S
C69 C67 1.384 . S
C69 C70 1.381 1_455 S
C69 H87 0.930 . S
C70 C69 1.381 1_655 S
C70 C72 1.381 . S
C70 C73 1.487 . S
C71 C68 1.382 . S
C71 C72 1.387 . S
C71 H88 0.930 . S
C72 C70 1.381 . S
C72 C71 1.387 . S
C72 H89 0.931 . S
C73 C66 1.399 1_655 S
C73 C70 1.487 . S
C73 N90 1.343 . S
H74 C46 0.931 . S
H75 C48 0.930 . S
H76 C50 0.930 . S
H77 C51 0.931 . S
H78 C53 0.931 . S
H79 C55 0.930 . S
H80 C57 0.930 . S
H81 C58 0.931 . S
H82 C60 0.931 . S
H83 C62 0.930 . S
H84 C64 0.930 . S
H85 C65 0.931 . S
H86 C67 0.931 . S
H87 C69 0.930 . S
H88 C71 0.930 . S
H89 C72 0.931 . S
N90 C52 1.343 . S
N90 C73 1.343 . S
N91 C59 1.343 . S
N91 C66 1.343 . S
O92 Cd93 2.223 1_655 S
O92 C100 1.315 . S
Cd93 O92 2.223 1_455 S
Cd93 O96 2.297 1_455 S
Cd93 O97 2.439 1_455 S
Cd93 O103 2.240 1_565 S
Cd94 O95 2.240 1_545 S
Cd94 O102 2.223 1_655 S
Cd94 O104 2.297 1_655 S
Cd94 O105 2.439 1_655 S
O95 Cd94 2.240 1_565 S
O95 C100 1.279 . S
O96 Cd93 2.297 1_655 S
O96 C98 1.247 . S
O97 Cd93 2.439 1_655 S
O97 C98 1.208 . S
C98 O96 1.247 . S
C98 O97 1.208 . S
C99 O104 1.247 . S
C99 O105 1.208 . S
C100 O92 1.315 . S
C100 O95 1.279 . S
C101 O102 1.315 . S
C101 O103 1.279 . S
O102 Cd94 2.223 1_455 S
O102 C101 1.315 . S
O103 Cd93 2.240 1_545 S
O103 C101 1.279 . S
O104 Cd94 2.297 1_455 S
O104 C99 1.247 . S
O105 Cd94 2.439 1_455 S
O105 C99 1.208 . S
O106 Cd107 2.223 1_655 S
O106 C114 1.315 . S
Cd107 O106 2.223 1_455 S
Cd107 O110 2.297 1_455 S
Cd107 O111 2.439 1_455 S
Cd107 O117 2.240 1_545 S
Cd108 O109 2.240 1_565 S
Cd108 O116 2.223 1_655 S
Cd108 O118 2.297 1_655 S
Cd108 O119 2.439 1_655 S
O109 Cd108 2.240 1_545 S
O109 C114 1.279 . S
O110 Cd107 2.297 1_655 S
O110 C112 1.247 . S
O111 Cd107 2.439 1_655 S
O111 C112 1.208 . S
C112 O110 1.247 . S
C112 O111 1.208 . S
C113 O118 1.247 . S
C113 O119 1.208 . S
C114 O106 1.315 . S
C114 O109 1.279 . S
C115 O116 1.315 . S
C115 O117 1.279 . S
O116 Cd108 2.223 1_455 S
O116 C115 1.315 . S
O117 Cd107 2.240 1_565 S
O117 C115 1.279 . S
O118 Cd108 2.297 1_455 S
O118 C113 1.247 . S
O119 Cd108 2.439 1_455 S
O119 C113 1.208 . S
C120 C121 1.386 1_565 S
C120 C122 1.383 . S
C120 H136 0.951 . S
C121 C120 1.386 1_545 S
C121 C125 1.383 . S
C122 C120 1.383 . S
C122 C123 1.402 1_565 S
C122 H137 0.951 . S
C123 C122 1.402 1_545 S
C123 C124 1.375 . S
C123 C126 1.481 . S
C124 C123 1.375 . S
C124 C125 1.367 . S
C124 H138 0.951 . S
C125 C121 1.383 . S
C125 C124 1.367 . S
C125 H139 0.950 . S
C126 C123 1.481 . S
C126 C127 1.297 . S
C126 H140 0.950 . S
C127 C126 1.297 . S
C127 C128 1.479 . S
C127 H141 0.950 . S
C128 C127 1.479 . S
C128 C129 1.375 . S
C128 C134 1.404 . S
C129 C128 1.375 . S
C129 C130 1.369 . S
C129 H142 0.950 1_545 S
C130 C129 1.369 . S
C130 C131 1.392 . S
C130 H143 0.951 1_545 S
C131 C130 1.392 . S
C131 C133 1.384 . S
H132 C134 0.949 . S
C133 C131 1.384 . S
C133 C134 1.385 . S
C133 H135 0.950 . S
C134 C128 1.404 . S
C134 H132 0.949 . S
C134 C133 1.385 . S
H135 C133 0.950 . S
H136 C120 0.951 . S
H137 C122 0.951 . S
H138 C124 0.951 . S
H139 C125 0.950 . S
H140 C126 0.950 . S
H141 C127 0.950 . S
H142 C129 0.950 1_565 S
H143 C130 0.951 1_565 S
C144 C145 1.386 1_655 S
C144 C146 1.383 . S
C144 H160 0.951 . S
C145 C144 1.386 1_455 S
C145 C149 1.383 . S
C146 C144 1.383 . S
C146 C147 1.402 1_655 S
C146 H161 0.951 . S
C147 C146 1.402 1_455 S
C147 C148 1.375 . S
C147 C150 1.481 . S
C148 C147 1.375 . S
C148 C149 1.367 . S
C148 H162 0.951 . S
C149 C145 1.383 . S
C149 C148 1.367 . S
C149 H163 0.950 . S
C150 C147 1.481 . S
C150 C151 1.297 1_455 S
C150 H164 0.950 . S
C151 C150 1.297 1_655 S
C151 C152 1.479 . S
C151 H165 0.950 . S
C152 C151 1.479 . S
C152 C153 1.375 . S
C152 C158 1.404 1_655 S
C153 C152 1.375 . S
C153 C154 1.369 . S
C153 H166 0.950 . S
C154 C153 1.369 . S
C154 C155 1.392 . S
C154 H167 0.951 . S
C155 C154 1.392 . S
C155 C157 1.384 1_655 S
H156 C158 0.949 . S
C157 C155 1.384 1_455 S
C157 C158 1.385 . S
C157 H159 0.950 . S
C158 C152 1.404 1_455 S
C158 H156 0.949 . S
C158 C157 1.385 . S
H159 C157 0.950 . S
H160 C144 0.951 . S
H161 C146 0.951 . S
H162 C148 0.951 . S
H163 C149 0.950 . S
H164 C150 0.950 . S
H165 C151 0.950 . S
H166 C153 0.950 . S
H167 C154 0.951 . S
C168 C169 1.386 1_545 S
C168 C170 1.383 . S
C168 H184 0.951 . S
C169 C168 1.386 1_565 S
C169 C173 1.383 . S
C170 C168 1.383 . S
C170 C171 1.402 1_545 S
C170 H185 0.951 . S
C171 C170 1.402 1_565 S
C171 C172 1.375 . S
C171 C174 1.481 . S
C172 C171 1.375 . S
C172 C173 1.367 . S
C172 H186 0.951 . S
C173 C169 1.383 . S
C173 C172 1.367 . S
C173 H187 0.950 . S
C174 C171 1.481 . S
C174 C175 1.297 . S
C174 H188 0.950 . S
C175 C174 1.297 . S
C175 C176 1.479 . S
C175 H189 0.950 1_565 S
C176 C175 1.479 . S
C176 C177 1.375 1_565 S
C176 C182 1.404 . S
C177 C176 1.375 1_545 S
C177 C178 1.369 . S
C177 H190 0.950 . S
C178 C177 1.369 . S
C178 C179 1.392 1_545 S
C178 H191 0.951 . S
C179 C178 1.392 1_565 S
C179 C181 1.384 . S
H180 C182 0.949 . S
C181 C179 1.384 . S
C181 C182 1.385 . S
C181 H183 0.950 . S
C182 C176 1.404 . S
C182 H180 0.949 . S
C182 C181 1.385 . S
H183 C181 0.950 . S
H184 C168 0.951 . S
H185 C170 0.951 . S
H186 C172 0.951 . S
H187 C173 0.950 . S
H188 C174 0.950 . S
H189 C175 0.950 1_545 S
H190 C177 0.950 . S
H191 C178 0.951 . S
C192 C193 1.386 . S
C192 C194 1.383 . S
C192 H208 0.951 . S
C193 C192 1.386 . S
C193 C197 1.383 1_455 S
C194 C192 1.383 . S
C194 C195 1.402 . S
C194 H209 0.951 . S
C195 C194 1.402 . S
C195 C196 1.375 1_455 S
C195 C198 1.481 . S
C196 C195 1.375 1_655 S
C196 C197 1.367 . S
C196 H210 0.951 . S
C197 C193 1.383 1_655 S
C197 C196 1.367 . S
C197 H211 0.950 . S
C198 C195 1.481 . S
C198 C199 1.297 . S
C198 H212 0.950 1_455 S
C199 C198 1.297 . S
C199 C200 1.479 . S
C199 H213 0.950 . S
C200 C199 1.479 . S
C200 C201 1.375 . S
C200 C206 1.404 . S
C201 C200 1.375 . S
C201 C202 1.369 . S
C201 H214 0.950 . S
C202 C201 1.369 . S
C202 C203 1.392 . S
C202 H215 0.951 . S
C203 C202 1.392 . S
C203 C205 1.384 . S
H204 C206 0.949 1_655 S
C205 C203 1.384 . S
C205 C206 1.385 . S
C205 H207 0.950 1_455 S
C206 C200 1.404 . S
C206 H204 0.949 1_455 S
C206 C205 1.385 . S
H207 C205 0.950 1_655 S
H208 C192 0.951 . S
H209 C194 0.951 . S
H210 C196 0.951 . S
H211 C197 0.950 . S
H212 C198 0.950 1_655 S
H213 C199 0.950 . S
H214 C201 0.950 . S
H215 C202 0.951 . S
C216 C217 1.386 1_545 S
C216 C218 1.383 . S
C216 H232 0.951 . S
C217 C216 1.386 1_565 S
C217 C221 1.383 . S
C218 C216 1.383 . S
C218 C219 1.402 1_545 S
C218 H233 0.951 . S
C219 C218 1.402 1_565 S
C219 C220 1.375 . S
C219 C222 1.481 . S
C220 C219 1.375 . S
C220 C221 1.367 . S
C220 H234 0.951 . S
C221 C217 1.383 . S
C221 C220 1.367 . S
C221 H235 0.950 . S
C222 C219 1.481 . S
C222 C223 1.297 . S
C222 H236 0.950 . S
C223 C222 1.297 . S
C223 C224 1.479 . S
C223 H237 0.950 1_565 S
C224 C223 1.479 . S
C224 C225 1.375 1_565 S
C224 C230 1.404 . S
C225 C224 1.375 1_545 S
C225 C226 1.369 . S
C225 H238 0.950 . S
C226 C225 1.369 . S
C226 C227 1.392 1_545 S
C226 H239 0.951 . S
C227 C226 1.392 1_565 S
C227 C229 1.384 . S
H228 C230 0.949 . S
C229 C227 1.384 . S
C229 C230 1.385 . S
C229 H231 0.950 . S
C230 C224 1.404 . S
C230 H228 0.949 . S
C230 C229 1.385 . S
H231 C229 0.950 . S
H232 C216 0.951 . S
H233 C218 0.951 . S
H234 C220 0.951 . S
H235 C221 0.950 . S
H236 C222 0.950 . S
H237 C223 0.950 1_545 S
H238 C225 0.950 . S
H239 C226 0.951 . S
C240 C241 1.386 1_655 S
C240 C242 1.383 . S
C240 H256 0.951 . S
C241 C240 1.386 1_455 S
C241 C245 1.383 . S
C242 C240 1.383 . S
C242 C243 1.402 1_655 S
C242 H257 0.951 . S
C243 C242 1.402 1_455 S
C243 C244 1.375 . S
C243 C246 1.481 . S
C244 C243 1.375 . S
C244 C245 1.367 . S
C244 H258 0.951 . S
C245 C241 1.383 . S
C245 C244 1.367 . S
C245 H259 0.950 . S
C246 C243 1.481 . S
C246 C247 1.298 . S
C246 H260 0.950 . S
C247 C246 1.298 . S
C247 C248 1.480 . S
C247 H261 0.949 1_455 S
C248 C247 1.480 . S
C248 C249 1.375 1_455 S
C248 C254 1.404 . S
C249 C248 1.375 1_655 S
C249 C250 1.369 . S
C249 H262 0.950 . S
C250 C249 1.369 . S
C250 C251 1.392 1_655 S
C250 H263 0.951 . S
C251 C250 1.392 1_455 S
C251 C253 1.384 . S
H252 C254 0.949 . S
C253 C251 1.384 . S
C253 C254 1.385 . S
C253 H255 0.950 . S
C254 C248 1.404 . S
C254 H252 0.949 . S
C254 C253 1.385 . S
H255 C253 0.950 . S
H256 C240 0.951 . S
H257 C242 0.951 . S
H258 C244 0.951 . S
H259 C245 0.950 . S
H260 C246 0.950 . S
H261 C247 0.949 1_655 S
H262 C249 0.950 . S
H263 C250 0.951 . S
C264 C265 1.386 . S
C264 C266 1.383 . S
C264 H280 0.951 . S
C265 C264 1.386 . S
C265 C269 1.383 1_545 S
C266 C264 1.383 . S
C266 C267 1.402 . S
C266 H281 0.951 . S
C267 C266 1.402 . S
C267 C268 1.375 1_545 S
C267 C270 1.481 . S
C268 C267 1.375 1_565 S
C268 C269 1.367 . S
C268 H282 0.951 . S
C269 C265 1.383 1_565 S
C269 C268 1.367 . S
C269 H283 0.950 . S
C270 C267 1.481 . S
C270 C271 1.297 . S
C270 H284 0.950 1_545 S
C271 C270 1.297 . S
C271 C272 1.479 . S
C271 H285 0.950 . S
C272 C271 1.479 . S
C272 C273 1.375 . S
C272 C278 1.405 . S
C273 C272 1.375 . S
C273 C274 1.369 . S
C273 H286 0.950 . S
C274 C273 1.369 . S
C274 C275 1.392 . S
C274 H287 0.951 . S
C275 C274 1.392 . S
C275 C277 1.384 1_545 S
H276 C278 0.948 1_565 S
C277 C275 1.384 1_565 S
C277 C278 1.385 1_565 S
C277 H279 0.950 . S
C278 C272 1.405 . S
C278 H276 0.948 1_545 S
C278 C277 1.385 1_545 S
H279 C277 0.950 . S
H280 C264 0.951 . S
H281 C266 0.951 . S
H282 C268 0.951 . S
H283 C269 0.950 . S
H284 C270 0.950 1_565 S
H285 C271 0.950 . S
H286 C273 0.950 . S
H287 C274 0.951 . S
C288 C289 1.386 . S
C288 C290 1.383 . S
C288 H304 0.951 . S
C289 C288 1.386 . S
C289 C293 1.383 1_655 S
C290 C288 1.383 . S
C290 C291 1.402 . S
C290 H305 0.951 . S
C291 C290 1.402 . S
C291 C292 1.375 1_655 S
C291 C294 1.481 . S
C292 C291 1.375 1_455 S
C292 C293 1.367 . S
C292 H306 0.951 . S
C293 C289 1.383 1_455 S
C293 C292 1.367 . S
C293 H307 0.950 . S
C294 C291 1.481 . S
C294 C295 1.297 . S
C294 H308 0.950 1_655 S
C295 C294 1.297 . S
C295 C296 1.479 . S
C295 H309 0.950 . S
C296 C295 1.479 . S
C296 C297 1.375 . S
C296 C302 1.404 . S
C297 C296 1.375 . S
C297 C298 1.369 . S
C297 H310 0.950 . S
C298 C297 1.369 . S
C298 C299 1.392 . S
C298 H311 0.951 . S
C299 C298 1.392 . S
C299 C301 1.384 . S
H300 C302 0.949 . S
C301 C299 1.384 . S
C301 C302 1.385 . S
C301 H303 0.950 . S
C302 C296 1.404 . S
C302 H300 0.949 . S
C302 C301 1.385 . S
H303 C301 0.950 . S
H304 C288 0.951 . S
H305 C290 0.951 . S
H306 C292 0.951 . S
H307 C293 0.950 . S
H308 C294 0.950 1_455 S
H309 C295 0.950 . S
H310 C297 0.950 . S
H311 C298 0.951 . S
C131 C101 1.584 . S
C121 C15 1.589 . S
C155 C112 1.539 . S
C145 C68 1.597 1_455 S
C179 C100 1.585 . S
C169 C8 1.599 1_565 S
C203 C113 1.572 . S
C193 C47 1.591 1_455 S
C227 C115 1.586 . S
C217 C22 1.597 . S
C251 C99 1.478 . S
C241 C61 1.591 . S
C275 C114 1.593 . S
C265 C1 1.606 1_545 S
C289 C54 1.591 1_655 S
C299 C98 1.572 . S
