# Generated by pormake.
# Topology pto, (3,4)-cn, num edge types: 1
# Building blocks:
#     Node 0, Type 0, BuildingBlock: PAMTOO_clean_linker_0, # of connection points: 3
#     Node 1, Type 0, BuildingBlock: PAMTOO_clean_linker_0, # of connection points: 3
#     Node 2, Type 0, BuildingBlock: PAMTOO_clean_linker_0, # of connection points: 3
#     Node 3, Type 0, BuildingBlock: PAMTOO_clean_linker_0, # of connection points: 3
#     Node 4, Type 0, BuildingBlock: PAMTOO_clean_linker_0, # of connection points: 3
#     Node 5, Type 0, BuildingBlock: PAMTOO_clean_linker_0, # of connection points: 3
#     Node 6, Type 0, BuildingBlock: PAMTOO_clean_linker_0, # of connection points: 3
#     Node 7, Type 0, BuildingBlock: PAMTOO_clean_linker_0, # of connection points: 3
#     Node 8, Type 1, BuildingBlock: NAWXER_clean_sbu_0, # of connection points: 4
#     Node 9, Type 1, BuildingBlock: NAWXER_clean_sbu_0, # of connection points: 4
#     Node 10, Type 1, BuildingBlock: NAWXER_clean_sbu_0, # of connection points: 4
#     Node 11, Type 1, BuildingBlock: NAWXER_clean_sbu_0, # of connection points: 4
#     Node 12, Type 1, BuildingBlock: NAWXER_clean_sbu_0, # of connection points: 4
#     Node 13, Type 1, BuildingBlock: NAWXER_clean_sbu_0, # of connection points: 4
#     Edge 14, Type (0, 1), BuildingBlock: OJICUG_clean_linker_0, # of connection points: 2
#     Edge 15, Type (0, 1), BuildingBlock: OJICUG_clean_linker_0, # of connection points: 2
#     Edge 16, Type (0, 1), BuildingBlock: OJICUG_clean_linker_0, # of connection points: 2
#     Edge 17, Type (0, 1), BuildingBlock: OJICUG_clean_linker_0, # of connection points: 2
#     Edge 18, Type (0, 1), BuildingBlock: OJICUG_clean_linker_0, # of connection points: 2
#     Edge 19, Type (0, 1), BuildingBlock: OJICUG_clean_linker_0, # of connection points: 2
#     Edge 20, Type (0, 1), BuildingBlock: OJICUG_clean_linker_0, # of connection points: 2
#     Edge 21, Type (0, 1), BuildingBlock: OJICUG_clean_linker_0, # of connection points: 2
#     Edge 22, Type (0, 1), BuildingBlock: OJICUG_clean_linker_0, # of connection points: 2
#     Edge 23, Type (0, 1), BuildingBlock: OJICUG_clean_linker_0, # of connection points: 2
#     Edge 24, Type (0, 1), BuildingBlock: OJICUG_clean_linker_0, # of connection points: 2
#     Edge 25, Type (0, 1), BuildingBlock: OJICUG_clean_linker_0, # of connection points: 2
#     Edge 26, Type (0, 1), BuildingBlock: OJICUG_clean_linker_0, # of connection points: 2
#     Edge 27, Type (0, 1), BuildingBlock: OJICUG_clean_linker_0, # of connection points: 2
#     Edge 28, Type (0, 1), BuildingBlock: OJICUG_clean_linker_0, # of connection points: 2
#     Edge 29, Type (0, 1), BuildingBlock: OJICUG_clean_linker_0, # of connection points: 2
#     Edge 30, Type (0, 1), BuildingBlock: OJICUG_clean_linker_0, # of connection points: 2
#     Edge 31, Type (0, 1), BuildingBlock: OJICUG_clean_linker_0, # of connection points: 2
#     Edge 32, Type (0, 1), BuildingBlock: OJICUG_clean_linker_0, # of connection points: 2
#     Edge 33, Type (0, 1), BuildingBlock: OJICUG_clean_linker_0, # of connection points: 2
#     Edge 34, Type (0, 1), BuildingBlock: OJICUG_clean_linker_0, # of connection points: 2
#     Edge 35, Type (0, 1), BuildingBlock: OJICUG_clean_linker_0, # of connection points: 2
#     Edge 36, Type (0, 1), BuildingBlock: OJICUG_clean_linker_0, # of connection points: 2
#     Edge 37, Type (0, 1), BuildingBlock: OJICUG_clean_linker_0, # of connection points: 2
# Relax obj value: 0.018
# Max RMSD: 0.149
# Mean RMSD: 0.063
data_MOF--net-pto--node1-NAWXER_clean_sbu_0--node2-PAMTOO_clean_linker_0--edge1-OJICUG_clean_linker_0
_symmetry_space_group_name_H-M    P1
_symmetry_Int_Tables_number       1
_symmetry_cell_setting            triclinic
loop_
_symmetry_equiv_pos_as_xyz
'x, y, z'
_cell_length_a     30.880452
_cell_length_b     27.843083
_cell_length_c     27.263303
_cell_angle_alpha  81.588156
_cell_angle_beta   84.128999
_cell_angle_gamma 99.875112
loop_
_atom_site_label
_atom_site_type_symbol
_atom_site_fract_x
_atom_site_fract_y
_atom_site_fract_z
_atom_type_partial_charge
H0 H 0.2164 0.32492 0.42756 0.0
H1 H 0.35012 0.33854 0.35412 0.0
H2 H 0.27995 0.45734 0.32645 0.0
H3 H 0.34942 0.47951 0.24498 0.0
C4 C 0.34902 0.43914 0.25331 0.0
O5 O 0.35312 0.42696 0.30353 0.0
H6 H 0.3167 0.42017 0.24428 0.0
C7 C 0.24527 0.34599 0.40293 0.0
C8 C 0.24304 0.3929 0.37678 0.0
C9 C 0.28436 0.32601 0.39613 0.0
C10 C 0.32055 0.35362 0.36192 0.0
C11 C 0.31885 0.4009 0.33729 0.0
C12 C 0.28086 0.42085 0.3462 0.0
H13 H 0.23948 0.78194 0.77491 0.0
H14 H 0.29714 0.70462 0.89218 0.0
H15 H 0.36754 0.84485 0.81089 0.0
H16 H 0.42181 0.76293 0.83314 0.0
C17 C 0.40308 0.74549 0.87034 0.0
O18 O 0.36978 0.77092 0.88212 0.0
H19 H 0.38837 0.7066 0.86807 0.0
C20 C 0.26637 0.78023 0.79732 0.0
C21 C 0.3034 0.81934 0.78832 0.0
C22 C 0.26356 0.73862 0.83459 0.0
C23 C 0.29843 0.73641 0.86354 0.0
C24 C 0.33617 0.77416 0.85426 0.0
C25 C 0.33864 0.81548 0.81681 0.0
H26 H 0.68003 0.80473 0.36407 0.0
H27 H 0.74003 0.68679 0.31815 0.0
H28 H 0.77921 0.74992 0.44461 0.0
H29 H 0.85083 0.73807 0.38929 0.0
C30 C 0.83836 0.70976 0.36662 0.0
O31 O 0.79507 0.68787 0.38563 0.0
H32 H 0.83959 0.72939 0.32768 0.0
C33 C 0.70206 0.77866 0.37005 0.0
C34 C 0.72918 0.78193 0.4083 0.0
C35 C 0.70511 0.74403 0.33748 0.0
C36 C 0.73553 0.71201 0.34414 0.0
C37 C 0.76222 0.71443 0.38271 0.0
C38 C 0.7579 0.74814 0.41546 0.0
H39 H 0.76971 0.36475 0.88674 0.0
H40 H 0.69161 0.2638 0.80975 0.0
H41 H 0.83296 0.28798 0.78168 0.0
H42 H 0.77969 0.28993 0.6917 0.0
C43 C 0.75284 0.25811 0.70894 0.0
O44 O 0.75895 0.24213 0.75774 0.0
H45 H 0.72075 0.27116 0.70844 0.0
C46 C 0.76781 0.33887 0.86065 0.0
C47 C 0.80708 0.32979 0.83562 0.0
C48 C 0.72593 0.31501 0.85196 0.0
C49 C 0.7235 0.28201 0.81752 0.0
C50 C 0.76202 0.27307 0.79179 0.0
C51 C 0.80357 0.29629 0.80129 0.0
H52 H 0.78607 0.8841 0.83474 0.0
H53 H 0.82348 0.74845 0.89792 0.0
H54 H 0.88364 0.82379 0.75186 0.0
H55 H 0.86407 0.72694 0.75462 0.0
C56 C 0.87114 0.71078 0.79211 0.0
O57 O 0.88173 0.74789 0.81994 0.0
H58 H 0.84111 0.68426 0.81154 0.0
C59 C 0.80642 0.8562 0.83259 0.0
C60 C 0.83511 0.85863 0.78858 0.0
C61 C 0.80167 0.81685 0.87252 0.0
C62 C 0.82683 0.77958 0.86799 0.0
C63 C 0.85695 0.78291 0.82466 0.0
C64 C 0.86145 0.82273 0.78564 0.0
H65 H 0.89018 0.2742 0.29449 0.0
H66 H 0.76817 0.21143 0.24525 0.0
H67 H 0.82461 0.365 0.19687 0.0
H68 H 0.72726 0.33901 0.23845 0.0
C69 C 0.71945 0.30221 0.22664 0.0
O70 O 0.75587 0.29432 0.19716 0.0
H71 H 0.71124 0.27384 0.26122 0.0
C72 C 0.86405 0.27739 0.27121 0.0
C73 C 0.86283 0.32375 0.24365 0.0
C74 C 0.82972 0.23676 0.27315 0.0
C75 C 0.79538 0.24206 0.24398 0.0
C76 C 0.79329 0.28822 0.21703 0.0
C77 C 0.82735 0.32896 0.21615 0.0
H78 H 0.17574 0.267 0.74587 0.0
H79 H 0.23759 0.33579 0.85958 0.0
H80 H 0.27205 0.20191 0.82366 0.0
H81 H 0.26742 0.20768 0.92789 0.0
C82 C 0.28035 0.24783 0.92619 0.0
O83 O 0.28862 0.27108 0.87694 0.0
H84 H 0.25498 0.26381 0.94701 0.0
C85 C 0.19824 0.26719 0.77387 0.0
C86 C 0.22337 0.22962 0.7808 0.0
C87 C 0.20253 0.30545 0.80258 0.0
C88 C 0.23272 0.30597 0.83806 0.0
C89 C 0.25759 0.26866 0.84534 0.0
C90 C 0.25249 0.23048 0.81731 0.0
H91 H 0.18611 0.83425 0.3603 0.0
H92 H 0.28003 0.78903 0.25698 0.0
H93 H 0.32242 0.91065 0.3308 0.0
H94 H 0.36691 0.92698 0.22706 0.0
C95 C 0.36173 0.88786 0.22103 0.0
O96 O 0.34669 0.85728 0.26637 0.0
H97 H 0.33677 0.88268 0.19462 0.0
C98 C 0.21948 0.83897 0.34126 0.0
C99 C 0.25268 0.87698 0.35008 0.0
C100 C 0.22892 0.80652 0.30827 0.0
C101 C 0.27175 0.81394 0.28196 0.0
C102 C 0.30492 0.85212 0.28963 0.0
C103 C 0.29557 0.88297 0.32388 0.0
C104 C 0.99289 0.48687 0.2783 0.0
C105 C 0.09957 0.63166 0.29898 0.0
O106 O 0.99628 0.49115 0.32404 0.0
Zn107 Zn 0.03233 0.53915 0.3666 0.0
O108 O 0.01738 0.51811 0.24337 0.0
Zn109 Zn 0.04745 0.55861 0.28662 0.0
O110 O 0.08719 0.5111 0.32153 0.0
O111 O 0.06675 0.49605 0.40299 0.0
O112 O 0.09067 0.61808 0.258 0.0
O113 O 0.0801 0.60541 0.34046 0.0
O114 O 0.98422 0.564 0.40121 0.0
O115 O 0.99343 0.58745 0.31935 0.0
C116 C 0.09178 0.48991 0.36524 0.0
C117 C 0.9723 0.58697 0.36246 0.0
C118 C 0.97546 0.45243 0.85303 0.0
C119 C 0.11082 0.57983 0.85038 0.0
O120 O 0.98906 0.46496 0.89291 0.0
Zn121 Zn 0.04251 0.51451 0.85971 0.0
O122 O 0.99727 0.47295 0.81068 0.0
Zn123 Zn 0.05264 0.52555 0.77607 0.0
O124 O 0.08908 0.48296 0.74554 0.0
O125 O 0.08117 0.46913 0.82807 0.0
O126 O 0.09982 0.57003 0.80848 0.0
O127 O 0.08719 0.55661 0.89086 0.0
O128 O 1.01148 0.56802 0.82361 0.0
O129 O 0.02246 0.57546 0.74136 0.0
C130 C 0.09697 0.45917 0.78635 0.0
C131 C 1.00502 0.58852 0.78064 0.0
C132 C 0.29755 0.98508 0.63249 0.0
C133 C 0.29157 0.1336 0.50918 0.0
O134 O 0.25874 0.99129 0.62382 0.0
Zn135 Zn 0.22685 0.03889 0.57772 0.0
O136 O 0.33124 0.01448 0.60713 0.0
Zn137 Zn 0.29902 0.05852 0.56687 0.0
O138 O 0.26572 0.08869 0.62306 0.0
O139 O 0.19301 0.0661 0.62848 0.0
O140 O 0.32705 0.1207 0.52209 0.0
O141 O 0.25409 0.10575 0.52682 0.0
O142 O 0.19908 0.99557 0.53479 0.0
O143 O 0.27194 0.01507 0.51587 0.0
C144 C 0.22683 0.09018 0.64326 0.0
C145 C 0.23422 0.99328 0.50716 0.0
C146 C 0.60889 0.75294 0.16488 0.0
C147 C 0.5238 0.75358 0.02119 0.0
O148 O 0.58632 0.71525 0.15189 0.0
Zn149 Zn 0.56696 0.75023 0.09252 0.0
O150 O 0.61137 0.79563 0.13863 0.0
Zn151 Zn 0.58822 0.8286 0.07339 0.0
O152 O 0.55317 0.87274 0.10005 0.0
O153 O 0.52376 0.79373 0.12452 0.0
O154 O 0.54513 0.79618 0.02546 0.0
O155 O 0.52729 0.71576 0.05198 0.0
O156 O 0.62776 0.77356 0.04209 0.0
O157 O 0.64286 0.85506 0.02925 0.0
C158 C 0.52183 0.8394 0.12445 0.0
C159 C 0.65326 0.81436 0.02128 0.0
C160 C 0.821 0.99016 0.60941 0.0
C161 C 0.81557 0.09237 0.45061 0.0
O162 O 0.7817 0.99416 0.60058 0.0
Zn163 Zn 0.74888 0.02953 0.54481 0.0
O164 O 0.85422 0.01249 0.57795 0.0
Zn165 Zn 0.82005 0.04238 0.5306 0.0
O166 O 0.79389 0.09334 0.57163 0.0
O167 O 0.72091 0.07361 0.58172 0.0
O168 O 0.84996 0.08276 0.46893 0.0
O169 O 0.77717 0.07521 0.47553 0.0
O170 O 0.71402 0.97253 0.52325 0.0
O171 O 0.78627 0.97875 0.50543 0.0
C172 C 0.75612 0.10124 0.58927 0.0
C173 C 0.74673 0.95577 0.50462 0.0
C174 C 0.56686 0.29643 0.11812 0.0
C175 C 0.44095 0.2807 0.02127 0.0
O176 O 0.53888 0.257 0.11836 0.0
Zn177 Zn 0.50351 0.28611 0.07094 0.0
O178 O 0.56268 0.33682 0.09144 0.0
Zn179 Zn 0.52087 0.36335 0.04036 0.0
O180 O 0.49655 0.41068 0.07488 0.0
O181 O 0.47347 0.33359 0.11313 0.0
O182 O 0.46375 0.32469 0.01496 0.0
O183 O 0.4527 0.2463 0.04995 0.0
O184 O 0.55087 0.30472 0.00513 0.0
O185 O 0.56343 0.38552 0.98035 0.0
C186 C 0.47339 0.37986 0.11109 0.0
C187 C 0.57157 0.34324 0.97473 0.0
C188 C 0.1874 0.42769 0.32981 0.0
C189 C 0.20082 0.41186 0.37618 0.0
H190 H 0.14286 0.46392 0.2902 0.0
C191 C 0.17574 0.4181 0.42007 0.0
H192 H 0.20568 0.42275 0.29537 0.0
C193 C 0.13927 0.4422 0.41718 0.0
C194 C 0.1273 0.46012 0.37035 0.0
H195 H 0.18541 0.40623 0.4563 0.0
H196 H 0.12138 0.4481 0.45139 0.0
C197 C 0.15128 0.45139 0.32691 0.0
C198 C 0.20256 0.67326 0.88801 0.0
C199 C 0.22526 0.69657 0.84068 0.0
H200 H 0.14808 0.61811 0.9288 0.0
C201 C 0.21094 0.67977 0.79799 0.0
H202 H 0.21291 0.68543 0.92166 0.0
C203 C 0.17444 0.64172 0.80202 0.0
C204 C 0.15073 0.61894 0.84895 0.0
H205 H 0.22814 0.69605 0.76109 0.0
H206 H 0.16473 0.63048 0.76772 0.0
C207 C 0.16542 0.63486 0.89212 0.0
C208 C 0.8844 0.65482 0.4119 0.0
C209 C 0.86843 0.67234 0.36749 0.0
H210 H 0.92996 0.61388 0.44547 0.0
C211 C 0.88401 0.65798 0.32278 0.0
H212 H 0.8727 0.66536 0.44688 0.0
C213 C 0.91681 0.62919 0.32181 0.0
C214 C 0.9346 0.61359 0.36565 0.0
H215 H 0.87202 0.67064 0.28811 0.0
H216 H 0.9289 0.62004 0.28628 0.0
C217 C 0.91718 0.62556 0.41104 0.0
C218 C 0.8604 0.37084 0.88939 0.0
C219 C 0.85142 0.35744 0.84285 0.0
H220 H 0.90674 0.41113 0.92982 0.0
C221 C 0.88484 0.37272 0.8019 0.0
H222 H 0.83574 0.35913 0.92209 0.0
C223 C 0.92532 0.40131 0.80667 0.0
C224 C 0.9339 0.4165 0.85239 0.0
H225 H 0.87936 0.36425 0.76526 0.0
H226 H 0.94956 0.41278 0.77353 0.0
C227 C 0.90126 0.40018 0.89411 0.0
C228 C 0.32688 0.26661 0.44091 0.0
C229 C 0.2872 0.27605 0.42332 0.0
H230 H 0.35979 0.2144 0.48131 0.0
C231 C 0.25026 0.2372 0.43188 0.0
H232 H 0.35599 0.29566 0.43545 0.0
C233 C 0.25248 0.19086 0.45829 0.0
C234 C 0.29174 0.1817 0.47686 0.0
H235 H 0.21948 0.24243 0.41802 0.0
H236 H 0.22299 0.16222 0.46459 0.0
C237 C 0.32916 0.21998 0.46725 0.0
C238 C 0.46364 0.79069 0.91115 0.0
C239 C 0.43454 0.74665 0.90926 0.0
H240 H 0.51478 0.82722 0.9473 0.0
C241 C 0.43526 0.70422 0.94403 0.0
H242 H 0.46359 0.82387 0.88486 0.0
C243 C 0.46479 0.70585 0.97989 0.0
C244 C 0.49392 0.75008 0.98187 0.0
H245 H 0.41296 0.66979 0.94349 0.0
H246 H 0.46439 0.6727 0.00639 0.0
C247 C 0.49297 0.79242 0.94693 0.0
C248 C 0.77402 0.84948 0.44306 0.0
C249 C 0.73216 0.82454 0.43597 0.0
H250 H 0.81121 0.90961 0.46991 0.0
C251 C 0.69434 0.84268 0.45265 0.0
H252 H 0.80398 0.83746 0.42972 0.0
C253 C 0.69852 0.88496 0.47566 0.0
C254 C 0.74063 0.91004 0.48202 0.0
H255 H 0.66158 0.82427 0.44781 0.0
H256 H 0.66894 0.89827 0.48785 0.0
C257 C 0.77818 0.89143 0.46574 0.0
C258 C 0.67947 0.37134 0.88692 0.0
C259 C 0.68466 0.32355 0.87957 0.0
H260 H 0.63902 0.41543 0.92198 0.0
C261 C 0.65044 0.28333 0.89997 0.0
H262 H 0.70502 0.40315 0.87102 0.0
C263 C 0.61272 0.29037 0.92866 0.0
C264 C 0.60816 0.33782 0.93765 0.0
H265 H 0.65351 0.24603 0.89531 0.0
H266 H 0.58771 0.25822 0.94514 0.0
C267 C 0.64146 0.37845 0.91555 0.0
C268 C 0.26468 0.88219 0.7446 0.0
C269 C 0.30398 0.86396 0.74981 0.0
H270 H 0.23206 0.93369 0.70431 0.0
C271 C 0.34257 0.8878 0.71713 0.0
H272 H 0.23457 0.866 0.76974 0.0
C273 C 0.34129 0.92775 0.67929 0.0
C274 C 0.30133 0.9445 0.67327 0.0
H275 H 0.37346 0.87478 0.71991 0.0
H276 H 0.37122 0.94475 0.65419 0.0
C277 C 0.26333 0.92144 0.70693 0.0
C278 C 0.65874 0.70132 0.27924 0.0
C279 C 0.67983 0.74508 0.29369 0.0
H280 H 0.61923 0.66911 0.22749 0.0
C281 C 0.67726 0.79066 0.26543 0.0
H282 H 0.66008 0.6656 0.30034 0.0
C283 C 0.65409 0.79266 0.22413 0.0
C284 C 0.6327 0.74914 0.20962 0.0
H285 H 0.69383 0.82507 0.27472 0.0
H286 H 0.65316 0.8287 0.20343 0.0
C287 C 0.6352 0.70332 0.23771 0.0
C288 C 0.79357 0.20759 0.65738 0.0
C289 C 0.75319 0.21681 0.67875 0.0
H290 H 0.82611 0.16459 0.61203 0.0
C291 C 0.71343 0.18729 0.67129 0.0
H292 H 0.82464 0.22954 0.663 0.0
C293 C 0.71407 0.14997 0.64191 0.0
C294 C 0.75454 0.14124 0.61973 0.0
H295 H 0.68185 0.19342 0.68784 0.0
H296 H 0.68291 0.12795 0.63668 0.0
C297 C 0.79426 0.17042 0.62809 0.0
C298 C 0.4119 0.46051 0.18217 0.0
C299 C 0.38543 0.42521 0.22052 0.0
H300 H 0.46073 0.47404 0.11749 0.0
C301 C 0.38987 0.37561 0.22425 0.0
H302 H 0.4087 0.49898 0.17824 0.0
C303 C 0.41945 0.36127 0.18951 0.0
C304 C 0.445 0.39625 0.15006 0.0
H305 H 0.36937 0.34771 0.25312 0.0
H306 H 0.42136 0.32247 0.19288 0.0
C307 C 0.44152 0.4462 0.14732 0.0
C308 C 0.92133 0.66746 0.74105 0.0
C309 C 0.90899 0.68338 0.78634 0.0
H310 H 0.96219 0.62536 0.70294 0.0
C311 C 0.9304 0.67041 0.82776 0.0
H312 H 0.90483 0.67653 0.70868 0.0
C313 C 0.96319 0.64205 0.82432 0.0
C314 C 0.97492 0.62473 0.77966 0.0
H315 H 0.92121 0.6815 0.86326 0.0
H316 H 0.97843 0.63243 0.85756 0.0
C317 C 0.95422 0.63846 0.73764 0.0
C318 C 0.91976 0.40129 0.21019 0.0
C319 C 0.89502 0.36734 0.25078 0.0
H320 H 0.97101 0.46587 0.1868 0.0
C321 C 0.90196 0.37393 0.2996 0.0
H322 H 0.91487 0.39695 0.17219 0.0
C323 C 0.93373 0.41262 0.30794 0.0
C324 C 0.95946 0.44611 0.26767 0.0
H325 H 0.88276 0.34888 0.33163 0.0
H326 H 0.9381 0.41602 0.34628 0.0
C327 C 0.95197 0.44038 0.21858 0.0
C328 C 0.16816 0.36748 0.74929 0.0
C329 C 0.17511 0.34441 0.7967 0.0
H330 H 0.13821 0.42244 0.70828 0.0
C331 C 0.15572 0.35894 0.83948 0.0
H332 H 0.18291 0.35715 0.71556 0.0
C333 C 0.1306 0.3959 0.83534 0.0
C334 C 0.12388 0.41969 0.78821 0.0
H335 H 0.15965 0.34137 0.87651 0.0
H336 H 0.11644 0.40574 0.86964 0.0
C337 C 0.1428 0.40498 0.74506 0.0
C338 C 0.16928 0.73492 0.34825 0.0
C339 C 0.19499 0.76275 0.30461 0.0
H340 H 0.11942 0.67228 0.38061 0.0
C341 C 0.18886 0.7474 0.25843 0.0
H342 H 0.1737 0.74511 0.38453 0.0
C343 C 0.15756 0.7051 0.25612 0.0
C344 C 0.13212 0.67721 0.3 0.0
H345 H 0.20808 0.76821 0.22412 0.0
H346 H 0.15358 0.69408 0.22011 0.0
C347 C 0.13833 0.69281 0.34599 0.0
C348 C 0.7915 0.9029 0.73188 0.0
C349 C 0.83306 0.89485 0.74383 0.0
H350 H 0.75532 0.93919 0.68078 0.0
C351 C 0.87145 0.9193 0.7115 0.0
H352 H 0.76119 0.8837 0.75524 0.0
C353 C 0.86807 0.95108 0.6678 0.0
C354 C 0.82625 0.95861 0.65593 0.0
H355 H 0.90393 0.91373 0.71993 0.0
H356 H 0.89799 0.96925 0.64321 0.0
C357 C 0.78815 0.93447 0.68872 0.0
C358 C 0.65028 0.25506 0.20061 0.0
C359 C 0.68011 0.29984 0.19829 0.0
H360 H 0.59048 0.21867 0.17755 0.0
C361 C 0.67288 0.34272 0.16909 0.0
H362 H 0.65561 0.22139 0.22258 0.0
C363 C 0.63588 0.34131 0.14365 0.0
C364 C 0.60537 0.29681 0.14643 0.0
H365 H 0.69572 0.37748 0.16634 0.0
H366 H 0.63132 0.37533 0.12167 0.0
C367 C 0.61306 0.25356 0.17502 0.0
C368 C 0.18261 0.16951 0.73196 0.0
C369 C 0.22227 0.19164 0.74765 0.0
H370 H 0.15245 0.11922 0.68676 0.0
C371 C 0.26211 0.17819 0.7304 0.0
H372 H 0.15128 0.17888 0.74492 0.0
C373 C 0.26262 0.14394 0.69828 0.0
C374 C 0.2234 0.12242 0.68155 0.0
H375 H 0.29344 0.19512 0.74063 0.0
H376 H 0.29436 0.13528 0.68567 0.0
C377 C 0.18316 0.13505 0.69912 0.0
C378 C 0.44072 0.91321 0.17737 0.0
C379 C 0.40426 0.87561 0.19823 0.0
H380 H 0.50673 0.93144 0.13794 0.0
C381 C 0.40694 0.82638 0.19495 0.0
H382 H 0.43923 0.95158 0.17877 0.0
C383 C 0.44547 0.8148 0.17194 0.0
C384 C 0.48205 0.85229 0.1509 0.0
H385 H 0.37902 0.79682 0.20994 0.0
H386 H 0.44619 0.77637 0.16995 0.0
C387 C 0.47929 0.90168 0.15397 0.0
C388 C 0.86325 0.17552 0.32739 0.0
C389 C 0.82553 0.19308 0.31298 0.0
H390 H 0.88991 0.13008 0.38257 0.0
C391 C 0.78422 0.17357 0.34188 0.0
H392 H 0.89548 0.18936 0.30558 0.0
C393 C 0.78103 0.1395 0.38548 0.0
C394 C 0.81909 0.1244 0.40162 0.0
H395 H 0.75456 0.18675 0.33267 0.0
H396 H 0.74883 0.12669 0.40764 0.0
C397 C 0.86009 0.14165 0.37148 0.0
C398 C 0.33752 0.21543 0.97605 0.0
C399 C 0.32245 0.25553 0.95008 0.0
H400 H 0.3869 0.19171 0.01889 0.0
C401 C 0.3465 0.30352 0.94778 0.0
H402 H 0.31932 0.17805 0.97876 0.0
C403 C 0.38517 0.31134 0.97033 0.0
C404 C 0.40047 0.27137 0.99635 0.0
H405 H 0.33528 0.33505 0.9285 0.0
H406 H 0.40279 0.34896 0.96778 0.0
C407 C 0.37616 0.22326 0.99902 0.0
C408 C 0.26622 0.95787 0.38227 0.0
C409 C 0.24341 0.90866 0.38826 0.0
H410 H 0.28108 0.02287 0.41543 0.0
C411 C 0.21353 0.88942 0.43231 0.0
H412 H 0.28843 0.97471 0.34851 0.0
C413 C 0.2081 0.918 0.46999 0.0
C414 C 0.23315 0.96586 0.46484 0.0
H415 H 0.19573 0.85157 0.43889 0.0
H416 H 0.18632 0.90169 0.50425 0.0
C417 C 0.26163 0.98578 0.42037 0.0
C418 C 0.76177 0.85745 0.93503 0.0
C419 C 0.76774 0.81412 0.91638 0.0
H420 H 0.72102 0.89167 0.98218 0.0
C421 C 0.7377 0.76991 0.93584 0.0
H422 H 0.78475 0.892 0.92149 0.0
C423 C 0.70122 0.76968 0.97105 0.0
C424 C 0.69389 0.8137 0.98736 0.0
H425 H 0.74108 0.73601 0.92204 0.0
H426 H 0.67788 0.73531 0.98407 0.0
C427 C 0.72519 0.85731 0.96981 0.0
loop_
_geom_bond_atom_site_label_1
_geom_bond_atom_site_label_2
_geom_bond_distance
_geom_bond_site_symmetry_2
_ccdc_geom_bond_type
H0 C7 0.929 . S
H1 C10 0.930 . S
H2 C12 0.929 . S
H3 C4 0.969 . S
C4 H3 0.969 . S
C4 O5 1.550 . S
C4 H6 0.973 . S
O5 C4 1.550 . S
O5 C11 1.412 . S
H6 C4 0.973 . S
C7 H0 0.929 . S
C7 C8 1.400 . S
C7 C9 1.364 . S
C8 C7 1.400 . S
C8 C12 1.377 . S
C9 C7 1.364 . S
C9 C10 1.374 . S
C10 H1 0.930 . S
C10 C9 1.374 . S
C10 C11 1.383 . S
C11 O5 1.412 . S
C11 C10 1.383 . S
C11 C12 1.394 . S
C12 H2 0.929 . S
C12 C8 1.377 . S
C12 C11 1.394 . S
H13 C20 0.929 . S
H14 C23 0.930 . S
H15 C25 0.929 . S
H16 C17 0.969 . S
C17 H16 0.969 . S
C17 O18 1.550 . S
C17 H19 0.973 . S
O18 C17 1.550 . S
O18 C24 1.412 . S
H19 C17 0.973 . S
C20 H13 0.929 . S
C20 C21 1.400 . S
C20 C22 1.364 . S
C21 C20 1.400 . S
C21 C25 1.377 . S
C22 C20 1.364 . S
C22 C23 1.374 . S
C23 H14 0.930 . S
C23 C22 1.374 . S
C23 C24 1.383 . S
C24 O18 1.412 . S
C24 C23 1.383 . S
C24 C25 1.394 . S
C25 H15 0.929 . S
C25 C21 1.377 . S
C25 C24 1.394 . S
H26 C33 0.929 . S
H27 C36 0.930 . S
H28 C38 0.929 . S
H29 C30 0.969 . S
C30 H29 0.969 . S
C30 O31 1.550 . S
C30 H32 0.973 . S
O31 C30 1.550 . S
O31 C37 1.412 . S
H32 C30 0.973 . S
C33 H26 0.929 . S
C33 C34 1.400 . S
C33 C35 1.364 . S
C34 C33 1.400 . S
C34 C38 1.377 . S
C35 C33 1.364 . S
C35 C36 1.374 . S
C36 H27 0.930 . S
C36 C35 1.374 . S
C36 C37 1.383 . S
C37 O31 1.412 . S
C37 C36 1.383 . S
C37 C38 1.394 . S
C38 H28 0.929 . S
C38 C34 1.377 . S
C38 C37 1.394 . S
H39 C46 0.929 . S
H40 C49 0.930 . S
H41 C51 0.929 . S
H42 C43 0.969 . S
C43 H42 0.969 . S
C43 O44 1.550 . S
C43 H45 0.973 . S
O44 C43 1.550 . S
O44 C50 1.412 . S
H45 C43 0.973 . S
C46 H39 0.929 . S
C46 C47 1.400 . S
C46 C48 1.364 . S
C47 C46 1.400 . S
C47 C51 1.377 . S
C48 C46 1.364 . S
C48 C49 1.374 . S
C49 H40 0.930 . S
C49 C48 1.374 . S
C49 C50 1.383 . S
C50 O44 1.412 . S
C50 C49 1.383 . S
C50 C51 1.394 . S
C51 H41 0.929 . S
C51 C47 1.377 . S
C51 C50 1.394 . S
H52 C59 0.929 . S
H53 C62 0.930 . S
H54 C64 0.929 . S
H55 C56 0.969 . S
C56 H55 0.969 . S
C56 O57 1.550 . S
C56 H58 0.973 . S
O57 C56 1.550 . S
O57 C63 1.412 . S
H58 C56 0.973 . S
C59 H52 0.929 . S
C59 C60 1.400 . S
C59 C61 1.364 . S
C60 C59 1.400 . S
C60 C64 1.377 . S
C61 C59 1.364 . S
C61 C62 1.374 . S
C62 H53 0.930 . S
C62 C61 1.374 . S
C62 C63 1.383 . S
C63 O57 1.412 . S
C63 C62 1.383 . S
C63 C64 1.394 . S
C64 H54 0.929 . S
C64 C60 1.377 . S
C64 C63 1.394 . S
H65 C72 0.929 . S
H66 C75 0.930 . S
H67 C77 0.929 . S
H68 C69 0.969 . S
C69 H68 0.969 . S
C69 O70 1.550 . S
C69 H71 0.973 . S
O70 C69 1.550 . S
O70 C76 1.412 . S
H71 C69 0.973 . S
C72 H65 0.929 . S
C72 C73 1.400 . S
C72 C74 1.364 . S
C73 C72 1.400 . S
C73 C77 1.377 . S
C74 C72 1.364 . S
C74 C75 1.374 . S
C75 H66 0.930 . S
C75 C74 1.374 . S
C75 C76 1.383 . S
C76 O70 1.412 . S
C76 C75 1.383 . S
C76 C77 1.394 . S
C77 H67 0.929 . S
C77 C73 1.377 . S
C77 C76 1.394 . S
H78 C85 0.929 . S
H79 C88 0.930 . S
H80 C90 0.929 . S
H81 C82 0.969 . S
C82 H81 0.969 . S
C82 O83 1.550 . S
C82 H84 0.973 . S
O83 C82 1.550 . S
O83 C89 1.412 . S
H84 C82 0.973 . S
C85 H78 0.929 . S
C85 C86 1.400 . S
C85 C87 1.364 . S
C86 C85 1.400 . S
C86 C90 1.377 . S
C87 C85 1.364 . S
C87 C88 1.374 . S
C88 H79 0.930 . S
C88 C87 1.374 . S
C88 C89 1.383 . S
C89 O83 1.412 . S
C89 C88 1.383 . S
C89 C90 1.394 . S
C90 H80 0.929 . S
C90 C86 1.377 . S
C90 C89 1.394 . S
H91 C98 0.929 . S
H92 C101 0.930 . S
H93 C103 0.929 . S
H94 C95 0.969 . S
C95 H94 0.969 . S
C95 O96 1.550 . S
C95 H97 0.973 . S
O96 C95 1.550 . S
O96 C102 1.412 . S
H97 C95 0.973 . S
C98 H91 0.929 . S
C98 C99 1.400 . S
C98 C100 1.364 . S
C99 C98 1.400 . S
C99 C103 1.377 . S
C100 C98 1.364 . S
C100 C101 1.374 . S
C101 H92 0.930 . S
C101 C100 1.374 . S
C101 C102 1.383 . S
C102 O96 1.412 . S
C102 C101 1.383 . S
C102 C103 1.394 . S
C103 H93 0.929 . S
C103 C99 1.377 . S
C103 C102 1.394 . S
C104 O106 1.247 . S
C104 O108 1.258 . S
C105 O112 1.247 . S
C105 O113 1.258 . S
O106 C104 1.247 . S
O106 Zn107 2.028 1_655 S
Zn107 O106 2.028 1_455 S
Zn107 O111 2.035 . S
Zn107 O113 2.035 . S
Zn107 O114 2.028 1_455 S
O108 C104 1.258 . S
O108 Zn109 2.035 1_655 S
Zn109 O108 2.035 1_455 S
Zn109 O110 2.028 . S
Zn109 O112 2.028 . S
Zn109 O115 2.035 1_455 S
O110 Zn109 2.028 . S
O110 C116 1.247 . S
O111 Zn107 2.035 . S
O111 C116 1.258 . S
O112 C105 1.247 . S
O112 Zn109 2.028 . S
O113 C105 1.258 . S
O113 Zn107 2.035 . S
O114 Zn107 2.028 1_655 S
O114 C117 1.247 . S
O115 Zn109 2.035 1_655 S
O115 C117 1.258 . S
C116 O110 1.247 . S
C116 O111 1.258 . S
C117 O114 1.247 . S
C117 O115 1.258 . S
C118 O120 1.247 . S
C118 O122 1.251 1_655 S
C119 O126 1.247 . S
C119 O127 1.258 . S
O120 C118 1.247 . S
O120 Zn121 2.028 1_655 S
Zn121 O120 2.028 1_455 S
Zn121 O125 2.035 . S
Zn121 O127 2.035 . S
Zn121 O128 2.028 1_455 S
O122 C118 1.251 1_455 S
O122 Zn123 2.048 . S
Zn123 O122 2.048 . S
Zn123 O124 2.028 . S
Zn123 O126 2.028 . S
Zn123 O129 2.035 . S
O124 Zn123 2.028 . S
O124 C130 1.247 . S
O125 Zn121 2.035 . S
O125 C130 1.258 . S
O126 C119 1.247 . S
O126 Zn123 2.028 . S
O127 C119 1.258 . S
O127 Zn121 2.035 . S
O128 Zn121 2.028 1_655 S
O128 C131 1.247 . S
O129 Zn123 2.035 . S
O129 C131 1.258 1_455 S
C130 O124 1.247 . S
C130 O125 1.258 . S
C131 O128 1.247 . S
C131 O129 1.258 1_655 S
C132 O134 1.247 . S
C132 O136 1.258 . S
C133 O140 1.247 . S
C133 O141 1.258 . S
O134 C132 1.247 . S
O134 Zn135 2.028 1_565 S
Zn135 O134 2.028 1_545 S
Zn135 O139 2.035 . S
Zn135 O141 2.035 . S
Zn135 O142 2.028 1_545 S
O136 C132 1.258 . S
O136 Zn137 2.035 1_565 S
Zn137 O136 2.035 1_545 S
Zn137 O138 2.028 . S
Zn137 O140 2.028 . S
Zn137 O143 2.035 1_545 S
O138 Zn137 2.028 . S
O138 C144 1.247 . S
O139 Zn135 2.035 . S
O139 C144 1.258 . S
O140 C133 1.247 . S
O140 Zn137 2.028 . S
O141 C133 1.258 . S
O141 Zn135 2.035 . S
O142 Zn135 2.028 1_565 S
O142 C145 1.247 . S
O143 Zn137 2.035 1_565 S
O143 C145 1.258 . S
C144 O138 1.247 . S
C144 O139 1.258 . S
C145 O142 1.247 . S
C145 O143 1.258 . S
C146 O148 1.247 . S
C146 O150 1.258 . S
C147 O154 1.247 . S
C147 O155 1.258 . S
O148 C146 1.247 . S
O148 Zn149 2.028 . S
Zn149 O148 2.028 . S
Zn149 O153 2.035 . S
Zn149 O155 2.035 . S
Zn149 O156 2.028 . S
O150 C146 1.258 . S
O150 Zn151 2.035 . S
Zn151 O150 2.035 . S
Zn151 O152 2.028 . S
Zn151 O154 2.028 . S
Zn151 O157 2.035 . S
O152 Zn151 2.028 . S
O152 C158 1.247 . S
O153 Zn149 2.035 . S
O153 C158 1.258 . S
O154 C147 1.247 . S
O154 Zn151 2.028 . S
O155 C147 1.258 . S
O155 Zn149 2.035 . S
O156 Zn149 2.028 . S
O156 C159 1.247 . S
O157 Zn151 2.035 . S
O157 C159 1.258 . S
C158 O152 1.247 . S
C158 O153 1.258 . S
C159 O156 1.247 . S
C159 O157 1.258 . S
C160 O162 1.247 . S
C160 O164 1.258 . S
C161 O168 1.247 . S
C161 O169 1.258 . S
O162 C160 1.247 . S
O162 Zn163 2.028 . S
Zn163 O162 2.028 . S
Zn163 O167 2.035 1_565 S
Zn163 O169 2.035 1_565 S
Zn163 O170 2.028 . S
O164 C160 1.258 . S
O164 Zn165 2.035 1_565 S
Zn165 O164 2.035 1_545 S
Zn165 O166 2.028 . S
Zn165 O168 2.028 . S
Zn165 O171 2.035 1_545 S
O166 Zn165 2.028 . S
O166 C172 1.247 . S
O167 Zn163 2.035 1_545 S
O167 C172 1.258 . S
O168 C161 1.247 . S
O168 Zn165 2.028 . S
O169 C161 1.258 . S
O169 Zn163 2.035 1_545 S
O170 Zn163 2.028 . S
O170 C173 1.247 . S
O171 Zn165 2.035 1_565 S
O171 C173 1.258 . S
C172 O166 1.247 . S
C172 O167 1.258 . S
C173 O170 1.247 . S
C173 O171 1.258 . S
C174 O176 1.247 . S
C174 O178 1.258 . S
C175 O182 1.247 . S
C175 O183 1.258 . S
O176 C174 1.247 . S
O176 Zn177 2.028 . S
Zn177 O176 2.028 . S
Zn177 O181 2.035 . S
Zn177 O183 2.035 1_554 S
Zn177 O184 2.028 1_554 S
O178 C174 1.258 . S
O178 Zn179 2.035 1_554 S
Zn179 O178 2.035 1_556 S
Zn179 O180 2.028 1_556 S
Zn179 O182 2.028 . S
Zn179 O185 2.035 . S
O180 Zn179 2.028 1_554 S
O180 C186 1.247 . S
O181 Zn177 2.035 . S
O181 C186 1.258 . S
O182 C175 1.247 . S
O182 Zn179 2.028 . S
O183 C175 1.258 . S
O183 Zn177 2.035 1_556 S
O184 Zn177 2.028 1_556 S
O184 C187 1.247 . S
O185 Zn179 2.035 . S
O185 C187 1.258 . S
C186 O180 1.247 . S
C186 O181 1.258 . S
C187 O184 1.247 . S
C187 O185 1.258 . S
C188 C189 1.387 . S
C188 H192 0.950 . S
C188 C197 1.390 . S
C189 C188 1.387 . S
C189 C191 1.387 . S
H190 C197 0.950 . S
C191 C189 1.387 . S
C191 C193 1.390 . S
C191 H195 0.950 . S
H192 C188 0.950 . S
C193 C191 1.390 . S
C193 C194 1.387 . S
C193 H196 0.950 . S
C194 C193 1.387 . S
C194 C197 1.387 . S
H195 C191 0.950 . S
H196 C193 0.950 . S
C197 C188 1.390 . S
C197 H190 0.950 . S
C197 C194 1.387 . S
C198 C199 1.387 . S
C198 H202 0.950 . S
C198 C207 1.390 . S
C199 C198 1.387 . S
C199 C201 1.387 . S
H200 C207 0.950 . S
C201 C199 1.387 . S
C201 C203 1.390 . S
C201 H205 0.950 . S
H202 C198 0.950 . S
C203 C201 1.390 . S
C203 C204 1.387 . S
C203 H206 0.950 . S
C204 C203 1.387 . S
C204 C207 1.387 . S
H205 C201 0.950 . S
H206 C203 0.950 . S
C207 C198 1.390 . S
C207 H200 0.950 . S
C207 C204 1.387 . S
C208 C209 1.387 . S
C208 H212 0.950 . S
C208 C217 1.390 . S
C209 C208 1.387 . S
C209 C211 1.387 . S
H210 C217 0.950 . S
C211 C209 1.387 . S
C211 C213 1.390 . S
C211 H215 0.950 . S
H212 C208 0.950 . S
C213 C211 1.390 . S
C213 C214 1.387 . S
C213 H216 0.950 . S
C214 C213 1.387 . S
C214 C217 1.387 . S
H215 C211 0.950 . S
H216 C213 0.950 . S
C217 C208 1.390 . S
C217 H210 0.950 . S
C217 C214 1.387 . S
C218 C219 1.387 . S
C218 H222 0.950 . S
C218 C227 1.390 . S
C219 C218 1.387 . S
C219 C221 1.387 . S
H220 C227 0.950 . S
C221 C219 1.387 . S
C221 C223 1.390 . S
C221 H225 0.950 . S
H222 C218 0.950 . S
C223 C221 1.390 . S
C223 C224 1.387 . S
C223 H226 0.950 . S
C224 C223 1.387 . S
C224 C227 1.387 . S
H225 C221 0.950 . S
H226 C223 0.950 . S
C227 C218 1.390 . S
C227 H220 0.950 . S
C227 C224 1.387 . S
C228 C229 1.387 . S
C228 H232 0.950 . S
C228 C237 1.390 . S
C229 C228 1.387 . S
C229 C231 1.387 . S
H230 C237 0.950 . S
C231 C229 1.387 . S
C231 C233 1.390 . S
C231 H235 0.950 . S
H232 C228 0.950 . S
C233 C231 1.390 . S
C233 C234 1.387 . S
C233 H236 0.950 . S
C234 C233 1.387 . S
C234 C237 1.387 . S
H235 C231 0.950 . S
H236 C233 0.950 . S
C237 C228 1.390 . S
C237 H230 0.950 . S
C237 C234 1.387 . S
C238 C239 1.387 . S
C238 H242 0.950 . S
C238 C247 1.390 . S
C239 C238 1.387 . S
C239 C241 1.387 . S
H240 C247 0.950 . S
C241 C239 1.387 . S
C241 C243 1.390 . S
C241 H245 0.950 . S
H242 C238 0.950 . S
C243 C241 1.390 . S
C243 C244 1.387 . S
C243 H246 0.950 1_556 S
C244 C243 1.387 . S
C244 C247 1.387 . S
H245 C241 0.950 . S
H246 C243 0.950 1_554 S
C247 C238 1.390 . S
C247 H240 0.950 . S
C247 C244 1.387 . S
C248 C249 1.387 . S
C248 H252 0.950 . S
C248 C257 1.390 . S
C249 C248 1.387 . S
C249 C251 1.387 . S
H250 C257 0.950 . S
C251 C249 1.387 . S
C251 C253 1.390 . S
C251 H255 0.950 . S
H252 C248 0.950 . S
C253 C251 1.390 . S
C253 C254 1.387 . S
C253 H256 0.950 . S
C254 C253 1.387 . S
C254 C257 1.387 . S
H255 C251 0.950 . S
H256 C253 0.950 . S
C257 C248 1.390 . S
C257 H250 0.950 . S
C257 C254 1.387 . S
C258 C259 1.387 . S
C258 H262 0.950 . S
C258 C267 1.390 . S
C259 C258 1.387 . S
C259 C261 1.387 . S
H260 C267 0.950 . S
C261 C259 1.387 . S
C261 C263 1.390 . S
C261 H265 0.950 . S
H262 C258 0.950 . S
C263 C261 1.390 . S
C263 C264 1.387 . S
C263 H266 0.950 . S
C264 C263 1.387 . S
C264 C267 1.387 . S
H265 C261 0.950 . S
H266 C263 0.950 . S
C267 C258 1.390 . S
C267 H260 0.950 . S
C267 C264 1.387 . S
C268 C269 1.387 . S
C268 H272 0.950 . S
C268 C277 1.390 . S
C269 C268 1.387 . S
C269 C271 1.387 . S
H270 C277 0.950 . S
C271 C269 1.387 . S
C271 C273 1.390 . S
C271 H275 0.950 . S
H272 C268 0.950 . S
C273 C271 1.390 . S
C273 C274 1.387 . S
C273 H276 0.950 . S
C274 C273 1.387 . S
C274 C277 1.387 . S
H275 C271 0.950 . S
H276 C273 0.950 . S
C277 C268 1.390 . S
C277 H270 0.950 . S
C277 C274 1.387 . S
C278 C279 1.387 . S
C278 H282 0.950 . S
C278 C287 1.390 . S
C279 C278 1.387 . S
C279 C281 1.387 . S
H280 C287 0.950 . S
C281 C279 1.387 . S
C281 C283 1.390 . S
C281 H285 0.950 . S
H282 C278 0.950 . S
C283 C281 1.390 . S
C283 C284 1.387 . S
C283 H286 0.950 . S
C284 C283 1.387 . S
C284 C287 1.387 . S
H285 C281 0.950 . S
H286 C283 0.950 . S
C287 C278 1.390 . S
C287 H280 0.950 . S
C287 C284 1.387 . S
C288 C289 1.387 . S
C288 H292 0.950 . S
C288 C297 1.390 . S
C289 C288 1.387 . S
C289 C291 1.387 . S
H290 C297 0.950 . S
C291 C289 1.387 . S
C291 C293 1.390 . S
C291 H295 0.950 . S
H292 C288 0.950 . S
C293 C291 1.390 . S
C293 C294 1.387 . S
C293 H296 0.950 . S
C294 C293 1.387 . S
C294 C297 1.387 . S
H295 C291 0.950 . S
H296 C293 0.950 . S
C297 C288 1.390 . S
C297 H290 0.950 . S
C297 C294 1.387 . S
C298 C299 1.387 . S
C298 H302 0.950 . S
C298 C307 1.390 . S
C299 C298 1.387 . S
C299 C301 1.387 . S
H300 C307 0.950 . S
C301 C299 1.387 . S
C301 C303 1.390 . S
C301 H305 0.950 . S
H302 C298 0.950 . S
C303 C301 1.390 . S
C303 C304 1.387 . S
C303 H306 0.950 . S
C304 C303 1.387 . S
C304 C307 1.387 . S
H305 C301 0.950 . S
H306 C303 0.950 . S
C307 C298 1.390 . S
C307 H300 0.950 . S
C307 C304 1.387 . S
C308 C309 1.387 . S
C308 H312 0.950 . S
C308 C317 1.390 . S
C309 C308 1.387 . S
C309 C311 1.387 . S
H310 C317 0.950 . S
C311 C309 1.387 . S
C311 C313 1.390 . S
C311 H315 0.950 . S
H312 C308 0.950 . S
C313 C311 1.390 . S
C313 C314 1.387 . S
C313 H316 0.950 . S
C314 C313 1.387 . S
C314 C317 1.387 . S
H315 C311 0.950 . S
H316 C313 0.950 . S
C317 C308 1.390 . S
C317 H310 0.950 . S
C317 C314 1.387 . S
C318 C319 1.387 . S
C318 H322 0.950 . S
C318 C327 1.390 . S
C319 C318 1.387 . S
C319 C321 1.387 . S
H320 C327 0.950 . S
C321 C319 1.387 . S
C321 C323 1.390 . S
C321 H325 0.950 . S
H322 C318 0.950 . S
C323 C321 1.390 . S
C323 C324 1.387 . S
C323 H326 0.950 . S
C324 C323 1.387 . S
C324 C327 1.387 . S
H325 C321 0.950 . S
H326 C323 0.950 . S
C327 C318 1.390 . S
C327 H320 0.950 . S
C327 C324 1.387 . S
C328 C329 1.387 . S
C328 H332 0.950 . S
C328 C337 1.390 . S
C329 C328 1.387 . S
C329 C331 1.387 . S
H330 C337 0.950 . S
C331 C329 1.387 . S
C331 C333 1.390 . S
C331 H335 0.950 . S
H332 C328 0.950 . S
C333 C331 1.390 . S
C333 C334 1.387 . S
C333 H336 0.950 . S
C334 C333 1.387 . S
C334 C337 1.387 . S
H335 C331 0.950 . S
H336 C333 0.950 . S
C337 C328 1.390 . S
C337 H330 0.950 . S
C337 C334 1.387 . S
C338 C339 1.387 . S
C338 H342 0.950 . S
C338 C347 1.390 . S
C339 C338 1.387 . S
C339 C341 1.387 . S
H340 C347 0.950 . S
C341 C339 1.387 . S
C341 C343 1.390 . S
C341 H345 0.950 . S
H342 C338 0.950 . S
C343 C341 1.390 . S
C343 C344 1.387 . S
C343 H346 0.950 . S
C344 C343 1.387 . S
C344 C347 1.387 . S
H345 C341 0.950 . S
H346 C343 0.950 . S
C347 C338 1.390 . S
C347 H340 0.950 . S
C347 C344 1.387 . S
C348 C349 1.387 . S
C348 H352 0.950 . S
C348 C357 1.390 . S
C349 C348 1.387 . S
C349 C351 1.387 . S
H350 C357 0.950 . S
C351 C349 1.387 . S
C351 C353 1.390 . S
C351 H355 0.950 . S
H352 C348 0.950 . S
C353 C351 1.390 . S
C353 C354 1.387 . S
C353 H356 0.950 . S
C354 C353 1.387 . S
C354 C357 1.387 . S
H355 C351 0.950 . S
H356 C353 0.950 . S
C357 C348 1.390 . S
C357 H350 0.950 . S
C357 C354 1.387 . S
C358 C359 1.387 . S
C358 H362 0.950 . S
C358 C367 1.390 . S
C359 C358 1.387 . S
C359 C361 1.387 . S
H360 C367 0.950 . S
C361 C359 1.387 . S
C361 C363 1.390 . S
C361 H365 0.950 . S
H362 C358 0.950 . S
C363 C361 1.390 . S
C363 C364 1.387 . S
C363 H366 0.950 . S
C364 C363 1.387 . S
C364 C367 1.387 . S
H365 C361 0.950 . S
H366 C363 0.950 . S
C367 C358 1.390 . S
C367 H360 0.950 . S
C367 C364 1.387 . S
C368 C369 1.387 . S
C368 H372 0.950 . S
C368 C377 1.390 . S
C369 C368 1.387 . S
C369 C371 1.387 . S
H370 C377 0.950 . S
C371 C369 1.387 . S
C371 C373 1.390 . S
C371 H375 0.950 . S
H372 C368 0.950 . S
C373 C371 1.390 . S
C373 C374 1.387 . S
C373 H376 0.950 . S
C374 C373 1.387 . S
C374 C377 1.387 . S
H375 C371 0.950 . S
H376 C373 0.950 . S
C377 C368 1.390 . S
C377 H370 0.950 . S
C377 C374 1.387 . S
C378 C379 1.387 . S
C378 H382 0.950 . S
C378 C387 1.390 . S
C379 C378 1.387 . S
C379 C381 1.387 . S
H380 C387 0.950 . S
C381 C379 1.387 . S
C381 C383 1.390 . S
C381 H385 0.950 . S
H382 C378 0.950 . S
C383 C381 1.390 . S
C383 C384 1.387 . S
C383 H386 0.950 . S
C384 C383 1.387 . S
C384 C387 1.387 . S
H385 C381 0.950 . S
H386 C383 0.950 . S
C387 C378 1.390 . S
C387 H380 0.950 . S
C387 C384 1.387 . S
C388 C389 1.387 . S
C388 H392 0.950 . S
C388 C397 1.390 . S
C389 C388 1.387 . S
C389 C391 1.387 . S
H390 C397 0.950 . S
C391 C389 1.387 . S
C391 C393 1.390 . S
C391 H395 0.950 . S
H392 C388 0.950 . S
C393 C391 1.390 . S
C393 C394 1.387 . S
C393 H396 0.950 . S
C394 C393 1.387 . S
C394 C397 1.387 . S
H395 C391 0.950 . S
H396 C393 0.950 . S
C397 C388 1.390 . S
C397 H390 0.950 . S
C397 C394 1.387 . S
C398 C399 1.387 . S
C398 H402 0.950 . S
C398 C407 1.390 . S
C399 C398 1.387 . S
C399 C401 1.387 . S
H400 C407 0.950 . S
C401 C399 1.387 . S
C401 C403 1.390 . S
C401 H405 0.950 . S
H402 C398 0.950 . S
C403 C401 1.390 . S
C403 C404 1.387 . S
C403 H406 0.950 . S
C404 C403 1.387 . S
C404 C407 1.387 . S
H405 C401 0.950 . S
H406 C403 0.950 . S
C407 C398 1.390 . S
C407 H400 0.950 . S
C407 C404 1.387 . S
C408 C409 1.387 . S
C408 H412 0.950 . S
C408 C417 1.390 . S
C409 C408 1.387 . S
C409 C411 1.387 . S
H410 C417 0.950 . S
C411 C409 1.387 . S
C411 C413 1.390 . S
C411 H415 0.950 . S
H412 C408 0.950 . S
C413 C411 1.390 . S
C413 C414 1.387 . S
C413 H416 0.950 . S
C414 C413 1.387 . S
C414 C417 1.387 . S
H415 C411 0.950 . S
H416 C413 0.950 . S
C417 C408 1.390 . S
C417 H410 0.950 . S
C417 C414 1.387 . S
C418 C419 1.387 . S
C418 H422 0.950 . S
C418 C427 1.390 . S
C419 C418 1.387 . S
C419 C421 1.387 . S
H420 C427 0.950 . S
C421 C419 1.387 . S
C421 C423 1.390 . S
C421 H425 0.950 . S
H422 C418 0.950 . S
C423 C421 1.390 . S
C423 C424 1.387 . S
C423 H426 0.950 . S
C424 C423 1.387 . S
C424 C427 1.387 . S
H425 C421 0.950 . S
H426 C423 0.950 . S
C427 C418 1.390 . S
C427 H420 0.950 . S
C427 C424 1.387 . S
C194 C116 1.612 . S
C189 C8 1.630 . S
C204 C119 1.563 . S
C199 C22 1.554 . S
C214 C117 1.585 . S
C209 C30 1.617 . S
C224 C118 1.431 . S
C219 C47 1.431 . S
C234 C133 1.670 . S
C229 C9 1.685 . S
C244 C147 1.606 1_556 S
C239 C17 1.569 . S
C249 C34 1.542 . S
C254 C173 1.525 . S
C264 C187 1.591 . S
C259 C48 1.590 . S
C274 C132 1.678 . S
C269 C21 1.703 . S
C279 C35 1.624 . S
C284 C146 1.642 . S
C294 C172 1.406 . S
C289 C43 1.351 . S
C304 C186 1.570 . S
C299 C4 1.554 . S
C309 C56 1.409 . S
C314 C131 1.463 . S
C324 C104 1.590 . S
C319 C73 1.596 . S
C329 C87 1.607 . S
C334 C130 1.605 . S
C339 C100 1.707 . S
C344 C105 1.686 . S
C354 C160 1.612 . S
C349 C60 1.630 . S
C364 C174 1.517 . S
C359 C69 1.466 . S
C374 C144 1.739 . S
C369 C86 1.765 . S
C379 C95 1.418 . S
C384 C158 1.489 . S
C394 C161 1.625 . S
C389 C74 1.652 . S
C404 C175 1.500 . S
C399 C82 1.439 . S
C414 C145 1.774 . S
C409 C99 1.796 . S
C419 C61 1.539 . S
C424 C159 1.549 1_556 S
