# Generated by pormake.
# Topology pto, (3,4)-cn, num edge types: 1
# Building blocks:
#     Node 0, Type 0, BuildingBlock: BETDIP_clean_linker_0, # of connection points: 3
#     Node 1, Type 0, BuildingBlock: BETDIP_clean_linker_0, # of connection points: 3
#     Node 2, Type 0, BuildingBlock: BETDIP_clean_linker_0, # of connection points: 3
#     Node 3, Type 0, BuildingBlock: BETDIP_clean_linker_0, # of connection points: 3
#     Node 4, Type 0, BuildingBlock: BETDIP_clean_linker_0, # of connection points: 3
#     Node 5, Type 0, BuildingBlock: BETDIP_clean_linker_0, # of connection points: 3
#     Node 6, Type 0, BuildingBlock: BETDIP_clean_linker_0, # of connection points: 3
#     Node 7, Type 0, BuildingBlock: BETDIP_clean_linker_0, # of connection points: 3
#     Node 8, Type 1, BuildingBlock: KOZSID_clean_sbu_0, # of connection points: 4
#     Node 9, Type 1, BuildingBlock: KOZSID_clean_sbu_0, # of connection points: 4
#     Node 10, Type 1, BuildingBlock: KOZSID_clean_sbu_0, # of connection points: 4
#     Node 11, Type 1, BuildingBlock: KOZSID_clean_sbu_0, # of connection points: 4
#     Node 12, Type 1, BuildingBlock: KOZSID_clean_sbu_0, # of connection points: 4
#     Node 13, Type 1, BuildingBlock: KOZSID_clean_sbu_0, # of connection points: 4
#     Edge 14, Type (0, 1), BuildingBlock: AJUNOK_clean_linker_0, # of connection points: 2
#     Edge 15, Type (0, 1), BuildingBlock: AJUNOK_clean_linker_0, # of connection points: 2
#     Edge 16, Type (0, 1), BuildingBlock: AJUNOK_clean_linker_0, # of connection points: 2
#     Edge 17, Type (0, 1), BuildingBlock: AJUNOK_clean_linker_0, # of connection points: 2
#     Edge 18, Type (0, 1), BuildingBlock: AJUNOK_clean_linker_0, # of connection points: 2
#     Edge 19, Type (0, 1), BuildingBlock: AJUNOK_clean_linker_0, # of connection points: 2
#     Edge 20, Type (0, 1), BuildingBlock: AJUNOK_clean_linker_0, # of connection points: 2
#     Edge 21, Type (0, 1), BuildingBlock: AJUNOK_clean_linker_0, # of connection points: 2
#     Edge 22, Type (0, 1), BuildingBlock: AJUNOK_clean_linker_0, # of connection points: 2
#     Edge 23, Type (0, 1), BuildingBlock: AJUNOK_clean_linker_0, # of connection points: 2
#     Edge 24, Type (0, 1), BuildingBlock: AJUNOK_clean_linker_0, # of connection points: 2
#     Edge 25, Type (0, 1), BuildingBlock: AJUNOK_clean_linker_0, # of connection points: 2
#     Edge 26, Type (0, 1), BuildingBlock: AJUNOK_clean_linker_0, # of connection points: 2
#     Edge 27, Type (0, 1), BuildingBlock: AJUNOK_clean_linker_0, # of connection points: 2
#     Edge 28, Type (0, 1), BuildingBlock: AJUNOK_clean_linker_0, # of connection points: 2
#     Edge 29, Type (0, 1), BuildingBlock: AJUNOK_clean_linker_0, # of connection points: 2
#     Edge 30, Type (0, 1), BuildingBlock: AJUNOK_clean_linker_0, # of connection points: 2
#     Edge 31, Type (0, 1), BuildingBlock: AJUNOK_clean_linker_0, # of connection points: 2
#     Edge 32, Type (0, 1), BuildingBlock: AJUNOK_clean_linker_0, # of connection points: 2
#     Edge 33, Type (0, 1), BuildingBlock: AJUNOK_clean_linker_0, # of connection points: 2
#     Edge 34, Type (0, 1), BuildingBlock: AJUNOK_clean_linker_0, # of connection points: 2
#     Edge 35, Type (0, 1), BuildingBlock: AJUNOK_clean_linker_0, # of connection points: 2
#     Edge 36, Type (0, 1), BuildingBlock: AJUNOK_clean_linker_0, # of connection points: 2
#     Edge 37, Type (0, 1), BuildingBlock: AJUNOK_clean_linker_0, # of connection points: 2
# Relax obj value: 0.011
# Max RMSD: 0.133
# Mean RMSD: 0.060
data_MOF--net-pto--node1-KOZSID_clean_sbu_0--node2-BETDIP_clean_linker_0--edge1-AJUNOK_clean_linker_0
_symmetry_space_group_name_H-M    P1
_symmetry_Int_Tables_number       1
_symmetry_cell_setting            triclinic
loop_
_symmetry_equiv_pos_as_xyz
'x, y, z'
_cell_length_a     27.658679
_cell_length_b     38.681528
_cell_length_c     33.897406
_cell_angle_alpha  94.99556
_cell_angle_beta   102.38709
_cell_angle_gamma 109.37104
loop_
_atom_site_label
_atom_site_type_symbol
_atom_site_fract_x
_atom_site_fract_y
_atom_site_fract_z
_atom_type_partial_charge
H0 H 0.18465 0.32908 0.35085 0.0
H1 H 0.26407 0.2773 0.28296 0.0
H2 H 0.27006 0.38793 0.26988 0.0
H3 H 0.20211 0.22483 0.29177 0.0
C4 C 0.20248 0.23196 0.32356 0.0
C5 C 0.20918 0.33056 0.32959 0.0
C6 C 0.22629 0.36275 0.31216 0.0
C7 C 0.22218 0.29959 0.31912 0.0
C8 C 0.25309 0.30083 0.29098 0.0
C9 C 0.27026 0.33254 0.273 0.0
C10 C 0.25644 0.36331 0.28348 0.0
N11 N 0.20548 0.26826 0.33867 0.0
H12 H 0.1678 0.79129 0.66755 0.0
H13 H 0.31344 0.87633 0.7396 0.0
H14 H 0.26433 0.76695 0.77068 0.0
H15 H 0.26331 0.91298 0.71712 0.0
C16 C 0.24794 0.90052 0.68487 0.0
C17 C 0.20321 0.8 0.69277 0.0
C18 C 0.21204 0.77479 0.71817 0.0
C19 C 0.23927 0.83675 0.70032 0.0
C20 C 0.28487 0.8482 0.73357 0.0
C21 C 0.29429 0.82284 0.75866 0.0
C22 C 0.25797 0.78623 0.75054 0.0
N23 N 0.22905 0.86122 0.67351 0.0
H24 H 0.82121 0.79355 0.30907 0.0
H25 H 0.87651 0.83892 0.43749 0.0
H26 H 0.81085 0.89787 0.35154 0.0
H27 H 0.94128 0.80998 0.43011 0.0
C28 C 0.91536 0.78407 0.40991 0.0
C29 C 0.82862 0.81593 0.33378 0.0
C30 C 0.81134 0.84541 0.32583 0.0
C31 C 0.85481 0.81459 0.37352 0.0
C32 C 0.86089 0.84204 0.40646 0.0
C33 C 0.84336 0.87189 0.39905 0.0
C34 C 0.8217 0.87412 0.3582 0.0
N35 N 0.8712 0.78379 0.37919 0.0
H36 H 0.71327 0.24829 0.847 0.0
H37 H 0.75079 0.36593 0.87917 0.0
H38 H 0.80429 0.32424 0.78152 0.0
H39 H 0.75447 0.34362 0.94604 0.0
C40 C 0.71432 0.32335 0.93492 0.0
C41 C 0.73243 0.27643 0.84232 0.0
C42 C 0.7603 0.28278 0.81189 0.0
C43 C 0.72937 0.3063 0.86696 0.0
C44 C 0.75338 0.34279 0.86042 0.0
C45 C 0.77992 0.34947 0.82925 0.0
C46 C 0.7835 0.3193 0.8054 0.0
N47 N 0.7001 0.29903 0.89698 0.0
H48 H 0.77576 0.81583 0.8497 0.0
H49 H 0.82764 0.86288 0.74901 0.0
H50 H 0.74785 0.91394 0.81804 0.0
H51 H 0.84389 0.81111 0.73517 0.0
C52 C 0.84185 0.79557 0.76026 0.0
C53 C 0.77913 0.83701 0.83041 0.0
C54 C 0.75911 0.86513 0.8378 0.0
C55 C 0.80285 0.83531 0.79815 0.0
C56 C 0.80752 0.86286 0.77303 0.0
C57 C 0.78748 0.89141 0.77986 0.0
C58 C 0.76321 0.89212 0.81232 0.0
N59 N 0.82174 0.80558 0.79298 0.0
H60 H 0.69672 0.27275 0.38408 0.0
H61 H 0.84949 0.34397 0.46168 0.0
H62 H 0.76781 0.38459 0.36449 0.0
H63 H 0.85531 0.27975 0.45299 0.0
C64 C 0.8197 0.26663 0.46293 0.0
C65 C 0.72898 0.29948 0.39273 0.0
C66 C 0.72677 0.32834 0.37079 0.0
C67 C 0.77323 0.3047 0.42534 0.0
C68 C 0.81541 0.33952 0.43637 0.0
C69 C 0.81264 0.36894 0.41531 0.0
C70 C 0.76864 0.36273 0.38234 0.0
N71 N 0.77352 0.27482 0.44708 0.0
H72 H 0.08901 0.31725 0.71576 0.0
H73 H 0.19296 0.27355 0.79093 0.0
H74 H 0.18289 0.37753 0.83593 0.0
H75 H 0.13002 0.21858 0.75378 0.0
C76 C 0.12753 0.22609 0.72347 0.0
C77 C 0.11702 0.31947 0.7445 0.0
C78 C 0.13215 0.35038 0.77573 0.0
C79 C 0.13809 0.29137 0.74994 0.0
C80 C 0.17567 0.29472 0.78672 0.0
C81 C 0.19203 0.3256 0.81804 0.0
C82 C 0.17015 0.35338 0.81218 0.0
N83 N 0.12307 0.26095 0.71736 0.0
H84 H 0.3294 0.88902 0.27907 0.0
H85 H 0.28911 0.77035 0.25724 0.0
H86 H 0.23836 0.82123 0.35069 0.0
H87 H 0.37962 0.79435 0.24795 0.0
C88 C 0.37276 0.81299 0.22704 0.0
C89 C 0.3101 0.86188 0.28626 0.0
C90 C 0.28391 0.85879 0.31766 0.0
C91 C 0.31369 0.83032 0.26532 0.0
C92 C 0.28811 0.79498 0.27437 0.0
C93 C 0.2594 0.79135 0.30441 0.0
C94 C 0.25876 0.82354 0.32651 0.0
N95 N 0.34241 0.8349 0.23483 0.0
C96 C 0.16861 0.63944 0.38724 0.0
C97 C 0.21611 0.6603 0.4157 0.0
C98 C 0.21873 0.64211 0.44861 0.0
C99 C 0.17274 0.61141 0.43852 0.0
N100 N 0.14138 0.60918 0.40136 0.0
Co101 Co 0.07064 0.57027 0.37528 0.0
N102 N 0.06327 0.55413 0.42863 0.0
C103 C 0.10283 0.5628 0.46314 0.0
C104 C 0.08672 0.54673 0.4949 0.0
C105 C 0.0339 0.52603 0.47927 0.0
C106 C 0.02078 0.5306 0.43867 0.0
N107 N 1.00005 0.53124 0.34877 0.0
C108 C 0.96272 0.51004 0.36564 0.0
C109 C 0.91969 0.48524 0.33542 0.0
C110 C 0.93115 0.4905 0.2986 0.0
C111 C 0.98019 0.51817 0.3082 0.0
N112 N 0.07838 0.58631 0.32216 0.0
C113 C 0.05112 0.56669 0.28456 0.0
C114 C 0.06528 0.58528 0.25367 0.0
C115 C 0.10395 0.61869 0.27314 0.0
C116 C 0.11099 0.6185 0.31488 0.0
N117 N 0.10469 0.53435 0.36566 0.0
C118 C 0.15153 0.48236 0.35037 0.0
C119 C 0.17148 0.51817 0.34136 0.0
C120 C 0.14787 0.54391 0.34969 0.0
C121 C 0.10792 0.47304 0.36716 0.0
C122 C 0.08491 0.49925 0.37425 0.0
N123 N 0.03677 0.60635 0.38465 0.0
C124 C 0.97793 0.63775 0.35812 0.0
C125 C 0.9934 0.66157 0.39585 0.0
C126 C 0.03089 0.65689 0.42794 0.0
C127 C 0.052 0.62919 0.42174 0.0
C128 C 0.9996 0.61023 0.35331 0.0
H129 H 0.08126 0.62665 0.44683 0.0
H130 H 0.98704 0.5926 0.32383 0.0
H131 H 0.16441 0.57148 0.34295 0.0
H132 H 0.05082 0.49081 0.38642 0.0
C133 C 0.1532 0.58861 0.46562 0.0
C134 C 0.15088 0.64823 0.34672 0.0
C135 C 0.9698 0.50842 0.40959 0.0
C136 C 0.00642 0.53473 0.27986 0.0
H137 H 0.24552 0.6861 0.41325 0.0
H138 H 0.2492 0.65127 0.47729 0.0
H139 H 0.11042 0.54981 0.52577 0.0
H140 H 0.00831 0.5086 0.49547 0.0
H141 H 0.88452 0.46448 0.33958 0.0
H142 H 0.90653 0.47596 0.26845 0.0
H143 H 0.04793 0.5764 0.221 0.0
H144 H 0.12456 0.64066 0.25839 0.0
H145 H 0.20529 0.52627 0.32836 0.0
H146 H 0.09113 0.44542 0.3741 0.0
H147 H 0.95015 0.64082 0.33207 0.0
H148 H 0.04395 0.67455 0.45767 0.0
C149 C 0.07922 0.62747 0.77505 0.0
C150 C 0.12277 0.65094 0.80569 0.0
C151 C 0.11329 0.64205 0.84208 0.0
C152 C 0.06473 0.61381 0.83161 0.0
N153 N 0.0431 0.60357 0.79065 0.0
Co154 Co 0.9719 0.56523 0.76181 0.0
N155 N 0.95585 0.5543 0.81532 0.0
C156 C 0.98641 0.5711 0.85348 0.0
C157 C 0.96609 0.55571 0.88408 0.0
C158 C 0.92054 0.52673 0.86427 0.0
C159 C 0.91587 0.52621 0.82266 0.0
N160 N 0.90056 0.52688 0.73311 0.0
C161 C 0.86599 0.50155 0.74863 0.0
C162 C 0.82248 0.47796 0.71811 0.0
C163 C 0.8304 0.48829 0.68182 0.0
C164 C 0.87814 0.5174 0.69224 0.0
N165 N 0.98805 0.57593 0.70825 0.0
C166 C 0.95697 0.55938 0.67017 0.0
C167 C 0.97786 0.57397 0.63944 0.0
C168 C 0.0246 0.60198 0.65908 0.0
C169 C 0.02941 0.60277 0.70074 0.0
N170 N 0.00346 0.5259 0.76163 0.0
C171 C 0.04463 0.46822 0.76298 0.0
C172 C 0.00919 0.47012 0.72781 0.0
C173 C 0.98946 0.49909 0.72772 0.0
C174 C 0.05976 0.49592 0.79719 0.0
C175 C 0.03868 0.52412 0.79596 0.0
N176 N 0.94059 0.60486 0.76194 0.0
C177 C 0.89038 0.63833 0.72531 0.0
C178 C 0.90576 0.66582 0.75985 0.0
C179 C 0.93717 0.66147 0.79585 0.0
C180 C 0.95377 0.63105 0.79627 0.0
C181 C 0.90804 0.60837 0.72702 0.0
H182 H 0.97803 0.62975 0.82459 0.0
H183 H 0.89532 0.58868 0.69951 0.0
H184 H 0.96266 0.49907 0.69997 0.0
H185 H 0.05103 0.54393 0.82334 0.0
C186 C 0.03676 0.59822 0.85945 0.0
C187 C 0.07193 0.63105 0.73197 0.0
C188 C 0.87547 0.49669 0.79135 0.0
C189 C 0.9062 0.53283 0.66438 0.0
H190 H 0.15697 0.67306 0.80211 0.0
H191 H 0.13791 0.65554 0.87255 0.0
H192 H 0.98374 0.56338 0.91681 0.0
H193 H 0.8948 0.50719 0.87865 0.0
H194 H 0.78967 0.45466 0.72155 0.0
H195 H 0.80587 0.47474 0.65134 0.0
H196 H 0.96014 0.56623 0.60672 0.0
H197 H 0.05133 0.62054 0.64451 0.0
H198 H 0.99702 0.4495 0.70036 0.0
H199 H 0.08705 0.49544 0.82516 0.0
H200 H 0.86466 0.6398 0.69701 0.0
H201 H 0.94991 0.68191 0.82353 0.0
C202 C 0.26927 0.03271 0.57129 0.0
C203 C 0.31833 0.04039 0.59856 0.0
C204 C 0.35216 0.07223 0.59088 0.0
C205 C 0.32211 0.0821 0.55943 0.0
N206 N 0.271 0.05848 0.54641 0.0
Co207 Co 0.21391 0.06217 0.50085 0.0
N208 N 0.26445 0.10831 0.48876 0.0
C209 C 0.3169 0.12501 0.50712 0.0
C210 C 0.34154 0.15578 0.49174 0.0
C211 C 0.30253 0.15906 0.46172 0.0
C212 C 0.25609 0.13004 0.4607 0.0
N213 N 0.15653 0.06642 0.45601 0.0
C214 C 0.1581 0.09266 0.43178 0.0
C215 C 0.10869 0.0859 0.40555 0.0
C216 C 0.07465 0.05417 0.41334 0.0
C217 C 0.105 0.04354 0.44388 0.0
N218 N 0.16379 0.01549 0.51231 0.0
C219 C 0.11227 0.99736 0.49195 0.0
C220 C 0.08881 0.9649 0.50499 0.0
C221 C 0.12732 0.96221 0.53591 0.0
C222 C 0.1726 0.99313 0.53954 0.0
N223 N 0.19508 0.09284 0.54084 0.0
C224 C 0.16871 0.13586 0.59802 0.0
C225 C 0.12936 0.10608 0.57025 0.0
C226 C 0.14336 0.0849 0.54223 0.0
C227 C 0.2213 0.14407 0.5968 0.0
C228 C 0.23352 0.12252 0.56796 0.0
N229 N 0.23256 0.03123 0.4609 0.0
C230 C 0.20525 0.97988 0.40487 0.0
C231 C 0.25736 0.98149 0.41028 0.0
C232 C 0.29732 0.0096 0.43981 0.0
C233 C 0.28419 0.03428 0.46431 0.0
C234 C 0.19379 0.00477 0.43035 0.0
H235 H 0.31642 0.0551 0.48626 0.0
H236 H 0.15309 1.00136 0.42525 0.0
H237 H 0.11171 0.06209 0.52223 0.0
H238 H 0.27433 0.13026 0.56834 0.0
C239 C 0.34148 0.11208 0.53989 0.0
C240 C 0.22286 0.99996 0.56937 0.0
C241 C 0.20516 0.12444 0.4326 0.0
C242 C 0.08675 0.01168 0.46101 0.0
H243 H 0.32894 0.02433 0.62123 0.0
H244 H 0.39397 0.08611 0.60585 0.0
H245 H 0.38284 0.1739 0.50147 0.0
H246 H 0.30767 0.1805 0.44284 0.0
H247 H 0.09832 0.10224 0.38308 0.0
H248 H 0.03279 0.04044 0.39845 0.0
H249 H 0.04867 0.94531 0.49303 0.0
H250 H 0.12267 0.93985 0.55354 0.0
H251 H 0.08812 0.09878 0.57064 0.0
H252 H 0.25286 0.16699 0.6181 0.0
H253 H 0.17311 0.95855 0.3821 0.0
H254 H 0.33845 0.01221 0.44436 0.0
C255 C 0.51278 0.87376 0.09106 0.0
C256 C 0.50864 0.90588 0.10926 0.0
C257 C 0.54293 0.93503 0.09751 0.0
C258 C 0.5662 0.91925 0.07304 0.0
N259 N 0.54839 0.88166 0.06803 0.0
Co260 Co 0.57366 0.84771 0.03654 0.0
N261 N 0.62899 0.89091 0.02391 0.0
C262 C 0.6406 0.92744 0.03718 0.0
C263 C 0.6795 0.9506 0.0224 0.0
C264 C 0.69304 0.92748 0.99776 0.0
C265 C 0.66135 0.89148 0.99889 0.0
N266 N 0.59773 0.81369 0.00405 0.0
C267 C 0.63247 0.8217 0.98041 0.0
C268 C 0.63539 0.78972 0.96076 0.0
C269 C 0.6006 0.76038 0.97183 0.0
C270 C 0.57844 0.77606 0.9974 0.0
N271 N 0.51932 0.8045 0.05012 0.0
C272 C 0.50963 0.76794 0.03864 0.0
C273 C 0.47106 0.74475 0.0536 0.0
C274 C 0.45595 0.76785 0.07682 0.0
C275 C 0.48657 0.80396 0.07484 0.0
N276 N 0.52187 0.84711 0.98554 0.0
C277 C 0.4535 0.84593 0.9102 0.0
C278 C 0.4539 0.81295 0.92383 0.0
C279 C 0.48804 0.81416 0.96118 0.0
C280 C 0.48741 0.87957 0.9352 0.0
C281 C 0.52068 0.87952 0.9726 0.0
N282 N 0.62558 0.84834 0.0875 0.0
C283 C 0.66742 0.81585 0.13331 0.0
C284 C 0.69121 0.84778 0.16316 0.0
C285 C 0.68365 0.88036 0.15409 0.0
C286 C 0.65141 0.88014 0.1162 0.0
C287 C 0.63474 0.81668 0.09598 0.0
H288 H 0.6472 0.90587 0.11122 0.0
H289 H 0.61646 0.79115 0.07491 0.0
H290 H 0.48663 0.78802 0.96947 0.0
H291 H 0.54555 0.90607 0.99023 0.0
C292 C 0.60959 0.93905 0.05896 0.0
C293 C 0.48492 0.83667 0.09869 0.0
C294 C 0.66111 0.85887 0.97381 0.0
C295 C 0.53794 0.75625 0.01423 0.0
H296 H 0.48483 0.90825 0.13009 0.0
H297 H 0.5518 0.96435 0.10733 0.0
H298 H 0.69443 0.9807 0.02739 0.0
H299 H 0.72167 0.9361 0.97987 0.0
H300 H 0.65921 0.78778 0.93975 0.0
H301 H 0.59143 0.73109 0.96154 0.0
H302 H 0.45638 0.71465 0.04882 0.0
H303 H 0.42657 0.75913 0.09406 0.0
H304 H 0.42775 0.78616 0.90577 0.0
H305 H 0.48899 0.90586 0.92573 0.0
H306 H 0.67247 0.79003 0.1393 0.0
H307 H 0.70207 0.90584 0.17641 0.0
C308 C 0.854 0.03787 0.68299 0.0
C309 C 0.90176 0.03854 0.70726 0.0
C310 C 0.94091 0.067 0.69892 0.0
C311 C 0.91506 0.08183 0.66991 0.0
N312 N 0.86167 0.06503 0.65962 0.0
Co313 Co 0.80989 0.07519 0.61514 0.0
N314 N 0.86764 0.11707 0.60275 0.0
C315 C 0.91984 0.12977 0.62239 0.0
C316 C 0.94939 0.16135 0.6108 0.0
C317 C 0.91385 0.16985 0.58251 0.0
C318 C 0.86445 0.1425 0.57798 0.0
N319 N 0.75854 0.08399 0.56921 0.0
C320 C 0.76613 0.11069 0.54527 0.0
C321 C 0.71979 0.10564 0.51584 0.0
C322 C 0.68127 0.07548 0.52229 0.0
C323 C 0.70623 0.06354 0.55482 0.0
N324 N 0.75166 0.035 0.62911 0.0
C325 C 0.69901 0.0244 0.61174 0.0
C326 C 0.66841 0.99674 0.6282 0.0
C327 C 0.70363 0.98901 0.65766 0.0
C328 C 0.75395 0.01221 0.65714 0.0
N329 N 0.80038 0.11197 0.65451 0.0
C330 C 0.78669 0.16543 0.70862 0.0
C331 C 0.74463 0.14242 0.67627 0.0
C332 C 0.75214 0.11596 0.64999 0.0
C333 C 0.83576 0.16115 0.7137 0.0
C334 C 0.84176 0.13448 0.68641 0.0
N335 N 0.81914 0.03799 0.57573 0.0
C336 C 0.78257 0.97849 0.53037 0.0
C337 C 0.83168 0.98268 0.52277 0.0
C338 C 0.87457 0.01531 0.54208 0.0
C339 C 0.86759 0.04226 0.56848 0.0
C340 C 0.77708 0.00628 0.55611 0.0
H341 H 0.90195 0.06632 0.5825 0.0
H342 H 0.73815 1.00118 0.55956 0.0
H343 H 0.71831 0.0992 0.62605 0.0
H344 H 0.88031 0.13281 0.69139 0.0
C345 C 0.93963 0.11189 0.65231 0.0
C346 C 0.80265 0.01016 0.68222 0.0
C347 C 0.81545 0.14241 0.55073 0.0
C348 C 0.68038 0.03729 0.57646 0.0
H349 H 0.90787 0.02004 0.72838 0.0
H350 H 0.98323 0.07559 0.71208 0.0
H351 H 0.99154 0.17692 0.62236 0.0
H352 H 0.92339 0.19399 0.5677 0.0
H353 H 0.71399 0.12278 0.493 0.0
H354 H 0.6395 0.0647 0.50647 0.0
H355 H 0.62575 0.98276 0.61875 0.0
H356 H 0.69351 0.96784 0.67649 0.0
H357 H 0.70588 0.14475 0.67133 0.0
H358 H 0.86968 0.17884 0.73806 0.0
H359 H 0.74804 0.95374 0.51638 0.0
H360 H 0.9132 0.02049 0.53638 0.0
C361 C 0.42393 0.36403 0.14336 0.0
C362 C 0.42968 0.39897 0.16234 0.0
C363 C 0.46895 0.42413 0.15013 0.0
C364 C 0.48503 0.40317 0.12477 0.0
N365 N 0.4579 0.36616 0.11943 0.0
Co366 Co 0.47161 0.32552 0.08787 0.0
N367 N 0.53168 0.36241 0.07212 0.0
C368 C 0.54655 0.39988 0.0796 0.0
C369 C 0.58608 0.41805 0.06224 0.0
C370 C 0.59705 0.39059 0.04225 0.0
C371 C 0.56389 0.35704 0.04905 0.0
N372 N 0.48735 0.28485 0.05832 0.0
C373 C 0.52623 0.28669 0.03912 0.0
C374 C 0.5247 0.25148 0.02482 0.0
C375 C 0.48285 0.22655 0.03462 0.0
C376 C 0.46164 0.2478 0.0547 0.0
N377 N 0.41001 0.28876 0.10196 0.0
C378 C 0.38948 0.25157 0.08894 0.0
C379 C 0.34682 0.23361 0.10342 0.0
C380 C 0.33988 0.26095 0.12731 0.0
C381 C 0.37904 0.2941 0.12612 0.0
N382 N 0.42216 0.32775 0.0366 0.0
C383 C 0.34901 0.33004 0.96564 0.0
C384 C 0.35791 0.29726 0.97168 0.0
C385 C 0.39398 0.29663 0.00721 0.0
C386 C 0.37774 0.36183 0.99513 0.0
C387 C 0.41425 0.36021 0.02988 0.0
N388 N 0.52014 0.3232 0.1391 0.0
C389 C 0.54297 0.2889 0.19202 0.0
C390 C 0.58212 0.32128 0.216 0.0
C391 C 0.59125 0.35433 0.20005 0.0
C392 C 0.56014 0.35467 0.16181 0.0
C393 C 0.51268 0.29045 0.15394 0.0
H394 H 0.5686 0.38077 0.15137 0.0
H395 H 0.48283 0.26492 0.13732 0.0
H396 H 0.39789 0.27047 0.01013 0.0
H397 H 0.43533 0.38565 0.05077 0.0
C398 C 0.5246 0.41729 0.10476 0.0
C399 C 0.38658 0.32965 0.14975 0.0
C400 C 0.5646 0.32092 0.03294 0.0
C401 C 0.41558 0.23395 0.06806 0.0
H402 H 0.40805 0.40559 0.18313 0.0
H403 H 0.48423 0.45409 0.15895 0.0
H404 H 0.60485 0.44775 0.06405 0.0
H405 H 0.62626 0.3949 0.02465 0.0
H406 H 0.55077 0.24448 0.00857 0.0
H407 H 0.46906 0.19651 0.02745 0.0
H408 H 0.32482 0.20399 0.09863 0.0
H409 H 0.31028 0.25691 0.14453 0.0
H410 H 0.3363 0.27197 0.94941 0.0
H411 H 0.37241 0.38796 0.99122 0.0
H412 H 0.53492 0.2626 0.20298 0.0
H413 H 0.62237 0.37991 0.21701 0.0
C414 C 0.19181 0.41289 0.29202 0.0
C415 C 0.21132 0.39526 0.32304 0.0
C416 C 0.1742 0.442 0.30123 0.0
C417 C 0.17505 0.45426 0.3417 0.0
H418 H 0.18861 0.4034 0.26022 0.0
H419 H 0.15816 0.45416 0.27639 0.0
S420 S 0.22773 0.42072 0.43459 0.0
N421 N 0.23506 0.39498 0.39643 0.0
N422 N 0.2002 0.44878 0.41331 0.0
C423 C 0.19591 0.43783 0.37311 0.0
C424 C 0.21446 0.40856 0.36389 0.0
C425 C 0.18636 0.70578 0.70954 0.0
C426 C 0.17192 0.73727 0.71378 0.0
C427 C 0.15234 0.67073 0.71301 0.0
C428 C 0.10319 0.66635 0.72112 0.0
H429 H 0.22508 0.7086 0.70516 0.0
H430 H 0.16547 0.64732 0.71125 0.0
S431 S 0.0467 0.73958 0.73447 0.0
N432 N 0.10471 0.7615 0.72564 0.0
N433 N 0.04095 0.69552 0.7324 0.0
C434 C 0.08746 0.69718 0.72397 0.0
C435 C 0.12182 0.73275 0.72018 0.0
C436 C 0.98714 0.75744 0.42419 0.0
C437 C 0.93328 0.75181 0.40823 0.0
C438 C 0.00611 0.7281 0.42058 0.0
C439 C 0.97183 0.69185 0.40123 0.0
H440 H 0.01516 0.785 0.43859 0.0
H441 H 0.04823 0.73411 0.43216 0.0
S442 S 0.82597 0.66149 0.35904 0.0
N443 N 0.84515 0.70665 0.37516 0.0
N444 N 0.88042 0.65147 0.36931 0.0
C445 C 0.91746 0.68561 0.3866 0.0
C446 C 0.89827 0.71555 0.38992 0.0
C447 C 0.85621 0.40039 0.8168 0.0
C448 C 0.80395 0.38779 0.82117 0.0
C449 C 0.87913 0.43583 0.80751 0.0
C450 C 0.85052 0.45975 0.80211 0.0
H451 H 0.87957 0.38273 0.82061 0.0
H452 H 0.91932 0.4445 0.80414 0.0
S453 S 0.71287 0.44049 0.80967 0.0
N454 N 0.72427 0.40225 0.81881 0.0
N455 N 0.76811 0.46915 0.80197 0.0
C456 C 0.79869 0.44788 0.80671 0.0
C457 C 0.77522 0.4118 0.81613 0.0
C458 C 0.20202 0.21234 0.39228 0.0
C459 C 0.20044 0.20374 0.35066 0.0
C460 C 0.20268 0.1863 0.41851 0.0
C461 C 0.20174 0.15092 0.40396 0.0
H462 H 0.20341 0.23944 0.40493 0.0
H463 H 0.20457 0.19395 0.45048 0.0
S464 S 0.19674 0.11437 0.29801 0.0
N465 N 0.19715 0.15702 0.29625 0.0
N466 N 0.19861 0.10825 0.34586 0.0
C467 C 0.19949 0.14176 0.36254 0.0
C468 C 0.19877 0.16817 0.3358 0.0
C469 C 0.37491 0.8142 0.7988 0.0
C470 C 0.3404 0.83412 0.79485 0.0
C471 C 0.41297 0.8195 0.83567 0.0
C472 C 0.41754 0.84461 0.87014 0.0
H473 H 0.3712 0.79345 0.77358 0.0
H474 H 0.43808 0.80302 0.83754 0.0
S475 S 0.33698 0.90409 0.87502 0.0
N476 N 0.31408 0.88077 0.82762 0.0
N477 N 0.38499 0.89034 0.89741 0.0
C478 C 0.38456 0.86578 0.86603 0.0
C479 C 0.34608 0.86058 0.82826 0.0
C480 C 0.79836 0.91106 0.42751 0.0
C481 C 0.84205 0.89918 0.43278 0.0
C482 C 0.796 0.93808 0.45639 0.0
C483 C 0.83637 0.95397 0.49287 0.0
H484 H 0.76517 0.89942 0.40061 0.0
H485 H 0.76213 0.94678 0.44971 0.0
S486 S 0.95638 0.92982 0.52501 0.0
N487 N 0.92584 0.9045 0.47895 0.0
N488 N 0.91928 0.95357 0.53471 0.0
C489 C 0.87935 0.94145 0.49972 0.0
C490 C 0.88247 0.91432 0.46961 0.0
C491 C 0.62131 0.30478 0.94299 0.0
C492 C 0.67644 0.32042 0.9606 0.0
C493 C 0.5853 0.30451 0.96667 0.0
C494 C 0.60322 0.31922 0.00883 0.0
H495 H 0.60585 0.29372 0.91051 0.0
H496 H 0.54318 0.29329 0.95184 0.0
S497 S 0.74316 0.36088 0.07002 0.0
N498 N 0.74701 0.34987 0.02288 0.0
N499 N 0.67921 0.3479 0.06757 0.0
C500 C 0.65806 0.33372 0.02698 0.0
C501 C 0.69468 0.33472 0.0028 0.0
C502 C 0.24023 0.96007 0.66769 0.0
C503 C 0.23998 0.92455 0.65424 0.0
C504 C 0.23351 0.98399 0.63995 0.0
C505 C 0.2272 0.97341 0.59792 0.0
H506 H 0.24548 0.9694 0.69992 0.0
H507 H 0.2339 0.01114 0.65143 0.0
S508 S 0.22613 0.88441 0.54703 0.0
N509 N 0.23372 0.88033 0.59589 0.0
N510 N 0.22247 0.9259 0.54407 0.0
C511 C 0.22725 0.93821 0.58401 0.0
C512 C 0.23334 0.91359 0.61211 0.0
C513 C 0.79623 0.83727 0.24908 0.0
C514 C 0.77992 0.84546 0.28426 0.0
C515 C 0.76717 0.83773 0.20979 0.0
C516 C 0.72121 0.84672 0.20447 0.0
H517 H 0.83204 0.83096 0.25199 0.0
H518 H 0.78113 0.83158 0.18346 0.0
S519 S 0.65846 0.86639 0.28561 0.0
N520 N 0.71195 0.85963 0.31042 0.0
N521 N 0.65874 0.86164 0.2368 0.0
C522 C 0.7039 0.85422 0.23911 0.0
C523 C 0.73291 0.85331 0.27894 0.0
C524 C 0.75111 0.24776 0.74339 0.0
C525 C 0.76526 0.25155 0.78639 0.0
C526 C 0.75774 0.21963 0.71856 0.0
C527 C 0.77946 0.19454 0.73581 0.0
H528 H 0.73479 0.26674 0.72882 0.0
H529 H 0.74658 0.21787 0.68558 0.0
S530 S 0.82257 0.19242 0.84669 0.0
N531 N 0.80165 0.22775 0.84518 0.0
N532 N 0.8142 0.17483 0.79845 0.0
C533 C 0.79358 0.1979 0.77874 0.0
C534 C 0.78632 0.22634 0.80403 0.0
C535 C 0.28494 0.34179 0.20372 0.0
C536 C 0.30169 0.33302 0.24254 0.0
C537 C 0.31247 0.34055 0.17367 0.0
C538 C 0.35769 0.33072 0.18166 0.0
H539 H 0.24975 0.34896 0.19628 0.0
H540 H 0.29831 0.34716 0.14399 0.0
S541 S 0.41998 0.30775 0.27877 0.0
N542 N 0.36794 0.31584 0.28772 0.0
N543 N 0.4194 0.31351 0.23098 0.0
C544 C 0.3754 0.3225 0.22034 0.0
C545 C 0.34745 0.32366 0.25089 0.0
C546 C 0.85413 0.74113 0.79102 0.0
C547 C 0.85817 0.76254 0.75948 0.0
C548 C 0.8693 0.70993 0.79071 0.0
C549 C 0.88895 0.69868 0.7588 0.0
H550 H 0.83911 0.74837 0.81628 0.0
H551 H 0.86517 0.69428 0.81556 0.0
S552 S 0.90887 0.74586 0.66961 0.0
N553 N 0.88414 0.77066 0.69586 0.0
N554 N 0.91272 0.71206 0.69525 0.0
C555 C 0.89321 0.71984 0.72707 0.0
C556 C 0.87791 0.75174 0.72748 0.0
C557 C 0.90763 0.40826 0.42272 0.0
C558 C 0.85639 0.40584 0.42478 0.0
C559 C 0.94572 0.44235 0.42083 0.0
C560 C 0.93381 0.47503 0.42116 0.0
H561 H 0.91707 0.3833 0.41953 0.0
H562 H 0.9836 0.44275 0.41656 0.0
S563 S 0.80837 0.48453 0.43191 0.0
N564 N 0.79801 0.43991 0.43174 0.0
N565 N 0.8696 0.5037 0.42763 0.0
C566 C 0.88432 0.47352 0.42624 0.0
C567 C 0.84562 0.43897 0.42827 0.0
C568 C 0.142 0.41761 0.78035 0.0
C569 C 0.10881 0.37983 0.77049 0.0
C570 C 0.12096 0.44595 0.77741 0.0
C571 C 0.06593 0.43765 0.76429 0.0
H572 H 0.18467 0.42536 0.79043 0.0
H573 H 0.14801 0.47463 0.78541 0.0
S574 S 0.96162 0.34344 0.73705 0.0
N575 N 0.01788 0.33576 0.74854 0.0
N576 N 0.97849 0.38908 0.74263 0.0
C577 C 0.03225 0.40007 0.7542 0.0
C578 C 0.05364 0.37117 0.75737 0.0
C579 C 0.25569 0.7283 0.31997 0.0
C580 C 0.23034 0.7542 0.31335 0.0
C581 C 0.22996 0.69405 0.33091 0.0
C582 C 0.17821 0.6847 0.3358 0.0
H583 H 0.29603 0.73484 0.31745 0.0
H584 H 0.25067 0.6748 0.33575 0.0
S585 S 0.09265 0.74081 0.31875 0.0
N586 N 0.14883 0.76661 0.30976 0.0
N587 N 0.10137 0.70254 0.33115 0.0
C588 C 0.15191 0.70969 0.32826 0.0
C589 C 0.17781 0.74442 0.31695 0.0
C590 C 0.80917 0.95871 0.77284 0.0
C591 C 0.79266 0.92122 0.75408 0.0
C592 C 0.81249 0.98726 0.74951 0.0
C593 C 0.79985 0.9795 0.70652 0.0
H594 H 0.81973 0.96611 0.80593 0.0
H595 H 0.82491 0.01562 0.76515 0.0
S596 S 0.75399 0.88664 0.64199 0.0
N597 N 0.76245 0.87818 0.68944 0.0
N598 N 0.7704 0.93217 0.64587 0.0
C599 C 0.78372 0.94242 0.68726 0.0
C600 C 0.77989 0.91324 0.71094 0.0
C601 C 0.6724 0.2952 0.30015 0.0
C602 C 0.68298 0.32283 0.33398 0.0
C603 C 0.63834 0.29408 0.26237 0.0
C604 C 0.61382 0.3206 0.25715 0.0
H605 H 0.69267 0.27553 0.3023 0.0
H606 H 0.63298 0.2733 0.23661 0.0
S607 S 0.62243 0.39499 0.33812 0.0
N608 N 0.66202 0.37478 0.36114 0.0
N609 N 0.59777 0.37251 0.29039 0.0
C610 C 0.62171 0.34695 0.29147 0.0
C611 C 0.65629 0.34808 0.3298 0.0
C612 C 0.12554 0.20735 0.64987 0.0
C613 C 0.13502 0.2017 0.69089 0.0
C614 C 0.13536 0.18534 0.61955 0.0
C615 C 0.15549 0.15738 0.62947 0.0
H616 H 0.11079 0.22899 0.64114 0.0
H617 H 0.12815 0.19063 0.58836 0.0
S618 S 0.18563 0.1308 0.73163 0.0
N619 N 0.16413 0.16526 0.73927 0.0
N620 N 0.18339 0.12455 0.68235 0.0
C621 C 0.16437 0.15112 0.67002 0.0
C622 C 0.15384 0.17311 0.70073 0.0
C623 C 0.38422 0.83444 0.16057 0.0
C624 C 0.40209 0.81962 0.19489 0.0
C625 C 0.4112 0.84007 0.12959 0.0
C626 C 0.4576 0.83192 0.13239 0.0
H627 H 0.34861 0.84106 0.1572 0.0
H628 H 0.39557 0.85068 0.10316 0.0
S629 S 0.52181 0.79394 0.21648 0.0
N630 N 0.46918 0.79716 0.22981 0.0
N631 N 0.52091 0.80919 0.1724 0.0
C632 C 0.47624 0.81764 0.16675 0.0
C633 C 0.44824 0.81116 0.1978 0.0
C634 C 0.84685 0.21276 0.47874 0.0
C635 C 0.81693 0.23487 0.48524 0.0
C636 C 0.84545 0.18257 0.49934 0.0
C637 C 0.81558 0.17419 0.52834 0.0
H638 H 0.87098 0.21854 0.45709 0.0
H639 H 0.86827 0.16582 0.49281 0.0
S640 S 0.73213 0.22447 0.55791 0.0
N641 N 0.75662 0.24635 0.5228 0.0
N642 N 0.75623 0.19086 0.56306 0.0
C643 C 0.78588 0.19629 0.5354 0.0
C644 C 0.78611 0.22638 0.51357 0.0
C645 C 0.2779 0.32022 0.85407 0.0
C646 C 0.23267 0.3287 0.85638 0.0
C647 C 0.31551 0.32099 0.88954 0.0
C648 C 0.30981 0.33082 0.92868 0.0
H649 H 0.2843 0.31283 0.82456 0.0
H650 H 0.34941 0.31392 0.88635 0.0
S651 S 0.19846 0.35433 0.95212 0.0
N652 N 0.18386 0.34609 0.90152 0.0
N653 N 0.25572 0.34874 0.96809 0.0
C654 C 0.26541 0.33985 0.93164 0.0
C655 C 0.22662 0.33856 0.89553 0.0
C656 C 0.2592 0.91543 0.32134 0.0
C657 C 0.2822 0.89217 0.34139 0.0
C658 C 0.25229 0.94492 0.34376 0.0
C659 C 0.26908 0.95246 0.38686 0.0
H660 H 0.24479 0.90998 0.28824 0.0
H661 H 0.23306 0.96163 0.32736 0.0
S662 S 0.33344 0.90059 0.45359 0.0
N663 N 0.32319 0.87926 0.40652 0.0
N664 N 0.31057 0.9348 0.44861 0.0
C665 C 0.29357 0.93008 0.40712 0.0
C666 C 0.30001 0.89987 0.38438 0.0
C667 C 0.76149 0.86345 0.91188 0.0
C668 C 0.73456 0.86613 0.87262 0.0
C669 C 0.73809 0.86208 0.94483 0.0
C670 C 0.68698 0.86324 0.93955 0.0
H671 H 0.80082 0.86212 0.91707 0.0
H672 H 0.75963 0.85946 0.97443 0.0
S673 S 0.59934 0.86977 0.84356 0.0
N674 N 0.65368 0.86974 0.83068 0.0
N675 N 0.61001 0.86727 0.8929 0.0
C676 C 0.65985 0.86642 0.90088 0.0
C677 C 0.68361 0.8679 0.86731 0.0
loop_
_geom_bond_atom_site_label_1
_geom_bond_atom_site_label_2
_geom_bond_distance
_geom_bond_site_symmetry_2
_ccdc_geom_bond_type
H0 C5 0.930 . S
H1 C8 0.930 . S
H2 C10 0.930 . S
H3 C4 1.016 . S
C4 H3 1.016 . S
C4 N11 1.286 . S
C5 H0 0.930 . S
C5 C6 1.397 . S
C5 C7 1.361 . S
C6 C5 1.397 . S
C6 C10 1.390 . S
C7 C5 1.361 . S
C7 C8 1.393 . S
C7 N11 1.413 . S
C8 H1 0.930 . S
C8 C7 1.393 . S
C8 C9 1.399 . S
C9 C8 1.399 . S
C9 C10 1.381 . S
C10 H2 0.930 . S
C10 C6 1.390 . S
C10 C9 1.381 . S
N11 C4 1.286 . S
N11 C7 1.413 . S
H12 C17 0.930 . S
H13 C20 0.930 . S
H14 C22 0.930 . S
H15 C16 1.016 . S
C16 H15 1.016 . S
C16 N23 1.286 . S
C17 H12 0.930 . S
C17 C18 1.397 . S
C17 C19 1.361 . S
C18 C17 1.397 . S
C18 C22 1.390 . S
C19 C17 1.361 . S
C19 C20 1.393 . S
C19 N23 1.413 . S
C20 H13 0.930 . S
C20 C19 1.393 . S
C20 C21 1.399 . S
C21 C20 1.399 . S
C21 C22 1.381 . S
C22 H14 0.930 . S
C22 C18 1.390 . S
C22 C21 1.381 . S
N23 C16 1.286 . S
N23 C19 1.413 . S
H24 C29 0.930 . S
H25 C32 0.930 . S
H26 C34 0.930 . S
H27 C28 1.016 . S
C28 H27 1.016 . S
C28 N35 1.286 . S
C29 H24 0.930 . S
C29 C30 1.397 . S
C29 C31 1.361 . S
C30 C29 1.397 . S
C30 C34 1.390 . S
C31 C29 1.361 . S
C31 C32 1.393 . S
C31 N35 1.413 . S
C32 H25 0.930 . S
C32 C31 1.393 . S
C32 C33 1.399 . S
C33 C32 1.399 . S
C33 C34 1.381 . S
C34 H26 0.930 . S
C34 C30 1.390 . S
C34 C33 1.381 . S
N35 C28 1.286 . S
N35 C31 1.413 . S
H36 C41 0.930 . S
H37 C44 0.930 . S
H38 C46 0.930 . S
H39 C40 1.016 . S
C40 H39 1.016 . S
C40 N47 1.286 . S
C41 H36 0.930 . S
C41 C42 1.397 . S
C41 C43 1.361 . S
C42 C41 1.397 . S
C42 C46 1.390 . S
C43 C41 1.361 . S
C43 C44 1.393 . S
C43 N47 1.413 . S
C44 H37 0.930 . S
C44 C43 1.393 . S
C44 C45 1.399 . S
C45 C44 1.399 . S
C45 C46 1.381 . S
C46 H38 0.930 . S
C46 C42 1.390 . S
C46 C45 1.381 . S
N47 C40 1.286 . S
N47 C43 1.413 . S
H48 C53 0.930 . S
H49 C56 0.930 . S
H50 C58 0.930 . S
H51 C52 1.016 . S
C52 H51 1.016 . S
C52 N59 1.286 . S
C53 H48 0.930 . S
C53 C54 1.397 . S
C53 C55 1.361 . S
C54 C53 1.397 . S
C54 C58 1.390 . S
C55 C53 1.361 . S
C55 C56 1.393 . S
C55 N59 1.413 . S
C56 H49 0.930 . S
C56 C55 1.393 . S
C56 C57 1.399 . S
C57 C56 1.399 . S
C57 C58 1.381 . S
C58 H50 0.930 . S
C58 C54 1.390 . S
C58 C57 1.381 . S
N59 C52 1.286 . S
N59 C55 1.413 . S
H60 C65 0.930 . S
H61 C68 0.930 . S
H62 C70 0.930 . S
H63 C64 1.016 . S
C64 H63 1.016 . S
C64 N71 1.286 . S
C65 H60 0.930 . S
C65 C66 1.397 . S
C65 C67 1.361 . S
C66 C65 1.397 . S
C66 C70 1.390 . S
C67 C65 1.361 . S
C67 C68 1.393 . S
C67 N71 1.413 . S
C68 H61 0.930 . S
C68 C67 1.393 . S
C68 C69 1.399 . S
C69 C68 1.399 . S
C69 C70 1.381 . S
C70 H62 0.930 . S
C70 C66 1.390 . S
C70 C69 1.381 . S
N71 C64 1.286 . S
N71 C67 1.413 . S
H72 C77 0.930 . S
H73 C80 0.930 . S
H74 C82 0.930 . S
H75 C76 1.016 . S
C76 H75 1.016 . S
C76 N83 1.286 . S
C77 H72 0.930 . S
C77 C78 1.397 . S
C77 C79 1.361 . S
C78 C77 1.397 . S
C78 C82 1.390 . S
C79 C77 1.361 . S
C79 C80 1.393 . S
C79 N83 1.413 . S
C80 H73 0.930 . S
C80 C79 1.393 . S
C80 C81 1.399 . S
C81 C80 1.399 . S
C81 C82 1.381 . S
C82 H74 0.930 . S
C82 C78 1.390 . S
C82 C81 1.381 . S
N83 C76 1.286 . S
N83 C79 1.413 . S
H84 C89 0.930 . S
H85 C92 0.930 . S
H86 C94 0.930 . S
H87 C88 1.016 . S
C88 H87 1.016 . S
C88 N95 1.286 . S
C89 H84 0.930 . S
C89 C90 1.397 . S
C89 C91 1.361 . S
C90 C89 1.397 . S
C90 C94 1.390 . S
C91 C89 1.361 . S
C91 C92 1.393 . S
C91 N95 1.413 . S
C92 H85 0.930 . S
C92 C91 1.393 . S
C92 C93 1.399 . S
C93 C92 1.399 . S
C93 C94 1.381 . S
C94 H86 0.930 . S
C94 C90 1.390 . S
C94 C93 1.381 . S
N95 C88 1.286 . S
N95 C91 1.413 . S
C96 C97 1.443 . S
C96 N100 1.376 . S
C96 C134 1.389 . S
C97 C96 1.443 . S
C97 C98 1.340 . S
C97 H137 0.951 . S
C98 C97 1.340 . S
C98 C99 1.439 . S
C98 H138 0.950 . S
C99 C98 1.439 . S
C99 N100 1.374 . S
C99 C133 1.395 . S
N100 C96 1.376 . S
N100 C99 1.374 . S
N100 Co101 2.008 . S
Co101 N100 2.008 . S
Co101 N102 1.995 . S
Co101 N107 2.008 . S
Co101 N112 1.995 . S
Co101 N117 2.282 . S
Co101 N123 2.282 . S
N102 Co101 1.995 . S
N102 C103 1.376 . S
N102 C106 1.383 . S
C103 N102 1.376 . S
C103 C104 1.446 . S
C103 C133 1.391 . S
C104 C103 1.446 . S
C104 C105 1.339 . S
C104 H139 0.949 . S
C105 C104 1.339 . S
C105 C106 1.439 . S
C105 H140 0.950 . S
C106 N102 1.383 . S
C106 C105 1.439 . S
C106 C135 1.392 . S
N107 Co101 2.008 . S
N107 C108 1.376 . S
N107 C111 1.374 . S
C108 N107 1.376 . S
C108 C109 1.443 1_455 S
C108 C135 1.389 . S
C109 C108 1.443 1_655 S
C109 C110 1.340 . S
C109 H141 0.951 . S
C110 C109 1.340 . S
C110 C111 1.439 1_655 S
C110 H142 0.950 . S
C111 N107 1.374 . S
C111 C110 1.439 1_455 S
C111 C136 1.395 . S
N112 Co101 1.995 . S
N112 C113 1.376 . S
N112 C116 1.383 . S
C113 N112 1.376 . S
C113 C114 1.446 . S
C113 C136 1.391 . S
C114 C113 1.446 . S
C114 C115 1.339 . S
C114 H143 0.949 . S
C115 C114 1.339 . S
C115 C116 1.439 . S
C115 H144 0.950 . S
C116 N112 1.383 . S
C116 C115 1.439 . S
C116 C134 1.392 . S
N117 Co101 2.282 . S
N117 C120 1.332 . S
N117 C122 1.332 . S
C118 C119 1.386 . S
C118 C121 1.388 . S
C119 C118 1.386 . S
C119 C120 1.382 . S
C119 H145 0.950 . S
C120 N117 1.332 . S
C120 C119 1.382 . S
C120 H131 0.952 . S
C121 C118 1.388 . S
C121 C122 1.382 . S
C121 H146 0.950 . S
C122 N117 1.332 . S
C122 C121 1.382 . S
C122 H132 0.948 . S
N123 Co101 2.282 . S
N123 C127 1.332 . S
N123 C128 1.332 . S
C124 C125 1.388 . S
C124 C128 1.382 . S
C124 H147 0.950 . S
C125 C124 1.388 . S
C125 C126 1.386 . S
C126 C125 1.386 . S
C126 C127 1.382 . S
C126 H148 0.950 . S
C127 N123 1.332 . S
C127 C126 1.382 . S
C127 H129 0.952 . S
C128 N123 1.332 . S
C128 C124 1.382 . S
C128 H130 0.948 . S
H129 C127 0.952 . S
H130 C128 0.948 . S
H131 C120 0.952 . S
H132 C122 0.948 . S
C133 C99 1.395 . S
C133 C103 1.391 . S
C134 C96 1.389 . S
C134 C116 1.392 . S
C135 C106 1.392 . S
C135 C108 1.389 . S
C136 C111 1.395 . S
C136 C113 1.391 . S
H137 C97 0.951 . S
H138 C98 0.950 . S
H139 C104 0.949 . S
H140 C105 0.950 . S
H141 C109 0.951 . S
H142 C110 0.950 . S
H143 C114 0.949 . S
H144 C115 0.950 . S
H145 C119 0.950 . S
H146 C121 0.950 . S
H147 C124 0.950 . S
H148 C126 0.950 . S
C149 C150 1.443 . S
C149 N153 1.376 . S
C149 C187 1.389 . S
C150 C149 1.443 . S
C150 C151 1.340 . S
C150 H190 0.951 . S
C151 C150 1.340 . S
C151 C152 1.439 . S
C151 H191 0.950 . S
C152 C151 1.439 . S
C152 N153 1.374 . S
C152 C186 1.395 . S
N153 C149 1.376 . S
N153 C152 1.374 . S
N153 Co154 2.008 . S
Co154 N153 2.008 . S
Co154 N155 1.995 1_455 S
Co154 N160 2.008 1_455 S
Co154 N165 1.995 . S
Co154 N170 2.282 . S
Co154 N176 2.282 1_455 S
N155 Co154 1.995 1_655 S
N155 C156 1.376 1_655 S
N155 C159 1.383 . S
C156 N155 1.376 1_455 S
C156 C157 1.446 . S
C156 C186 1.391 . S
C157 C156 1.446 . S
C157 C158 1.339 1_455 S
C157 H192 0.949 . S
C158 C157 1.339 1_655 S
C158 C159 1.439 . S
C158 H193 0.950 . S
C159 N155 1.383 . S
C159 C158 1.439 . S
C159 C188 1.392 . S
N160 Co154 2.008 1_655 S
N160 C161 1.376 . S
N160 C164 1.374 . S
C161 N160 1.376 . S
C161 C162 1.443 . S
C161 C188 1.389 . S
C162 C161 1.443 . S
C162 C163 1.340 . S
C162 H194 0.951 . S
C163 C162 1.340 . S
C163 C164 1.439 . S
C163 H195 0.950 . S
C164 N160 1.374 . S
C164 C163 1.439 . S
C164 C189 1.395 . S
N165 Co154 1.995 . S
N165 C166 1.376 1_455 S
N165 C169 1.383 . S
C166 N165 1.376 1_655 S
C166 C167 1.446 . S
C166 C189 1.391 . S
C167 C166 1.446 . S
C167 C168 1.339 1_655 S
C167 H196 0.949 . S
C168 C167 1.339 1_455 S
C168 C169 1.439 . S
C168 H197 0.950 . S
C169 N165 1.383 . S
C169 C168 1.439 . S
C169 C187 1.392 . S
N170 Co154 2.282 . S
N170 C173 1.332 . S
N170 C175 1.332 . S
C171 C172 1.386 . S
C171 C174 1.388 . S
C172 C171 1.386 . S
C172 C173 1.382 . S
C172 H198 0.950 . S
C173 N170 1.332 . S
C173 C172 1.382 . S
C173 H184 0.952 . S
C174 C171 1.388 . S
C174 C175 1.382 . S
C174 H199 0.950 . S
C175 N170 1.332 . S
C175 C174 1.382 . S
C175 H185 0.948 . S
N176 Co154 2.282 1_655 S
N176 C180 1.332 . S
N176 C181 1.332 . S
C177 C178 1.388 . S
C177 C181 1.382 . S
C177 H200 0.950 . S
C178 C177 1.388 . S
C178 C179 1.386 . S
C179 C178 1.386 . S
C179 C180 1.382 . S
C179 H201 0.950 . S
C180 N176 1.332 . S
C180 C179 1.382 . S
C180 H182 0.952 . S
C181 N176 1.332 . S
C181 C177 1.382 . S
C181 H183 0.948 . S
H182 C180 0.952 . S
H183 C181 0.948 . S
H184 C173 0.952 . S
H185 C175 0.948 . S
C186 C152 1.395 . S
C186 C156 1.391 . S
C187 C149 1.389 . S
C187 C169 1.392 . S
C188 C159 1.392 . S
C188 C161 1.389 . S
C189 C164 1.395 . S
C189 C166 1.391 . S
H190 C150 0.951 . S
H191 C151 0.950 . S
H192 C157 0.949 . S
H193 C158 0.950 . S
H194 C162 0.951 . S
H195 C163 0.950 . S
H196 C167 0.949 . S
H197 C168 0.950 . S
H198 C172 0.950 . S
H199 C174 0.950 . S
H200 C177 0.950 . S
H201 C179 0.950 . S
C202 C203 1.443 . S
C202 N206 1.376 . S
C202 C240 1.389 . S
C203 C202 1.443 . S
C203 C204 1.340 . S
C203 H243 0.951 . S
C204 C203 1.340 . S
C204 C205 1.439 1_565 S
C204 H244 0.950 . S
C205 C204 1.439 1_545 S
C205 N206 1.374 1_545 S
C205 C239 1.395 . S
N206 C202 1.376 . S
N206 C205 1.374 1_565 S
N206 Co207 2.008 1_565 S
Co207 N206 2.008 1_545 S
Co207 N208 1.995 . S
Co207 N213 2.008 . S
Co207 N218 1.995 1_545 S
Co207 N223 2.282 . S
Co207 N229 2.282 1_545 S
N208 Co207 1.995 . S
N208 C209 1.376 . S
N208 C212 1.383 . S
C209 N208 1.376 . S
C209 C210 1.446 . S
C209 C239 1.391 . S
C210 C209 1.446 . S
C210 C211 1.339 . S
C210 H245 0.949 . S
C211 C210 1.339 . S
C211 C212 1.439 . S
C211 H246 0.950 . S
C212 N208 1.383 . S
C212 C211 1.439 . S
C212 C241 1.392 . S
N213 Co207 2.008 . S
N213 C214 1.376 . S
N213 C217 1.374 1_545 S
C214 N213 1.376 . S
C214 C215 1.443 . S
C214 C241 1.389 . S
C215 C214 1.443 . S
C215 C216 1.340 1_455 S
C215 H247 0.951 . S
C216 C215 1.340 1_655 S
C216 C217 1.439 1_645 S
C216 H248 0.950 . S
C217 N213 1.374 1_565 S
C217 C216 1.439 1_465 S
C217 C242 1.395 . S
N218 Co207 1.995 1_565 S
N218 C219 1.376 . S
N218 C222 1.383 . S
C219 N218 1.376 . S
C219 C220 1.446 . S
C219 C242 1.391 . S
C220 C219 1.446 . S
C220 C221 1.339 . S
C220 H249 0.949 1_455 S
C221 C220 1.339 . S
C221 C222 1.439 . S
C221 H250 0.950 . S
C222 N218 1.383 . S
C222 C221 1.439 . S
C222 C240 1.392 . S
N223 Co207 2.282 . S
N223 C226 1.332 . S
N223 C228 1.332 . S
C224 C225 1.386 . S
C224 C227 1.388 . S
C225 C224 1.386 . S
C225 C226 1.382 . S
C225 H251 0.950 . S
C226 N223 1.332 . S
C226 C225 1.382 . S
C226 H237 0.952 . S
C227 C224 1.388 . S
C227 C228 1.382 . S
C227 H252 0.950 . S
C228 N223 1.332 . S
C228 C227 1.382 . S
C228 H238 0.948 . S
N229 Co207 2.282 1_565 S
N229 C233 1.332 . S
N229 C234 1.332 . S
C230 C231 1.388 . S
C230 C234 1.382 . S
C230 H253 0.950 . S
C231 C230 1.388 . S
C231 C232 1.386 . S
C232 C231 1.386 . S
C232 C233 1.382 . S
C232 H254 0.950 . S
C233 N229 1.332 . S
C233 C232 1.382 . S
C233 H235 0.952 . S
C234 N229 1.332 . S
C234 C230 1.382 . S
C234 H236 0.948 . S
H235 C233 0.952 . S
H236 C234 0.948 . S
H237 C226 0.952 . S
H238 C228 0.948 . S
C239 C205 1.395 . S
C239 C209 1.391 . S
C240 C202 1.389 . S
C240 C222 1.392 . S
C241 C212 1.392 . S
C241 C214 1.389 . S
C242 C217 1.395 . S
C242 C219 1.391 . S
H243 C203 0.951 . S
H244 C204 0.950 . S
H245 C210 0.949 . S
H246 C211 0.950 . S
H247 C215 0.951 . S
H248 C216 0.950 . S
H249 C220 0.949 1_655 S
H250 C221 0.950 . S
H251 C225 0.950 . S
H252 C227 0.950 . S
H253 C230 0.950 . S
H254 C232 0.950 . S
C255 C256 1.443 . S
C255 N259 1.376 . S
C255 C293 1.389 . S
C256 C255 1.443 . S
C256 C257 1.340 . S
C256 H296 0.951 . S
C257 C256 1.340 . S
C257 C258 1.439 . S
C257 H297 0.950 1_565 S
C258 C257 1.439 . S
C258 N259 1.374 . S
C258 C292 1.395 . S
N259 C255 1.376 . S
N259 C258 1.374 . S
N259 Co260 2.008 . S
Co260 N259 2.008 . S
Co260 N261 1.995 . S
Co260 N266 2.008 1_554 S
Co260 N271 1.995 . S
Co260 N276 2.282 1_554 S
Co260 N282 2.282 . S
N261 Co260 1.995 . S
N261 C262 1.376 . S
N261 C265 1.383 1_554 S
C262 N261 1.376 . S
C262 C263 1.444 . S
C262 C292 1.391 . S
C263 C262 1.444 . S
C263 C264 1.340 1_554 S
C263 H298 0.950 1_565 S
C264 C263 1.340 1_556 S
C264 C265 1.439 . S
C264 H299 0.950 . S
C265 N261 1.383 1_556 S
C265 C264 1.439 . S
C265 C294 1.392 . S
N266 Co260 2.008 1_556 S
N266 C267 1.376 . S
N266 C270 1.374 . S
C267 N266 1.376 . S
C267 C268 1.443 . S
C267 C294 1.389 . S
C268 C267 1.443 . S
C268 C269 1.340 . S
C268 H300 0.951 . S
C269 C268 1.340 . S
C269 C270 1.439 . S
C269 H301 0.950 . S
C270 N266 1.374 . S
C270 C269 1.439 . S
C270 C295 1.395 1_556 S
N271 Co260 1.995 . S
N271 C272 1.376 . S
N271 C275 1.383 . S
C272 N271 1.376 . S
C272 C273 1.446 . S
C272 C295 1.391 . S
C273 C272 1.446 . S
C273 C274 1.339 . S
C273 H302 0.949 . S
C274 C273 1.339 . S
C274 C275 1.439 . S
C274 H303 0.950 . S
C275 N271 1.383 . S
C275 C274 1.439 . S
C275 C293 1.392 . S
N276 Co260 2.282 1_556 S
N276 C279 1.332 . S
N276 C281 1.332 . S
C277 C278 1.386 . S
C277 C280 1.388 . S
C278 C277 1.386 . S
C278 C279 1.382 . S
C278 H304 0.950 . S
C279 N276 1.332 . S
C279 C278 1.382 . S
C279 H290 0.952 . S
C280 C277 1.388 . S
C280 C281 1.382 . S
C280 H305 0.950 . S
C281 N276 1.332 . S
C281 C280 1.382 . S
C281 H291 0.948 . S
N282 Co260 2.282 . S
N282 C286 1.332 . S
N282 C287 1.332 . S
C283 C284 1.388 . S
C283 C287 1.382 . S
C283 H306 0.950 . S
C284 C283 1.388 . S
C284 C285 1.386 . S
C285 C284 1.386 . S
C285 C286 1.382 . S
C285 H307 0.950 . S
C286 N282 1.332 . S
C286 C285 1.382 . S
C286 H288 0.952 . S
C287 N282 1.332 . S
C287 C283 1.382 . S
C287 H289 0.948 . S
H288 C286 0.952 . S
H289 C287 0.948 . S
H290 C279 0.952 . S
H291 C281 0.948 . S
C292 C258 1.395 . S
C292 C262 1.391 . S
C293 C255 1.389 . S
C293 C275 1.392 . S
C294 C265 1.392 . S
C294 C267 1.389 . S
C295 C270 1.395 1_554 S
C295 C272 1.391 . S
H296 C256 0.951 . S
H297 C257 0.950 1_545 S
H298 C263 0.950 1_545 S
H299 C264 0.950 . S
H300 C268 0.951 . S
H301 C269 0.950 . S
H302 C273 0.949 . S
H303 C274 0.950 . S
H304 C278 0.950 . S
H305 C280 0.950 . S
H306 C283 0.950 . S
H307 C285 0.950 . S
C308 C309 1.443 . S
C308 N312 1.376 . S
C308 C346 1.389 1_545 S
C309 C308 1.443 . S
C309 C310 1.340 . S
C309 H349 0.951 . S
C310 C309 1.340 . S
C310 C311 1.439 . S
C310 H350 0.950 . S
C311 C310 1.439 . S
C311 N312 1.374 . S
C311 C345 1.395 . S
N312 C308 1.376 . S
N312 C311 1.374 . S
N312 Co313 2.008 . S
Co313 N312 2.008 . S
Co313 N314 1.995 . S
Co313 N319 2.008 . S
Co313 N324 1.995 . S
Co313 N329 2.282 . S
Co313 N335 2.282 . S
N314 Co313 1.995 . S
N314 C315 1.376 . S
N314 C318 1.383 . S
C315 N314 1.376 . S
C315 C316 1.446 . S
C315 C345 1.391 . S
C316 C315 1.446 . S
C316 C317 1.339 . S
C316 H351 0.949 . S
C317 C316 1.339 . S
C317 C318 1.439 . S
C317 H352 0.950 . S
C318 N314 1.383 . S
C318 C317 1.439 . S
C318 C347 1.392 . S
N319 Co313 2.008 . S
N319 C320 1.376 . S
N319 C323 1.374 . S
C320 N319 1.376 . S
C320 C321 1.443 . S
C320 C347 1.389 . S
C321 C320 1.443 . S
C321 C322 1.340 . S
C321 H353 0.951 . S
C322 C321 1.340 . S
C322 C323 1.439 . S
C322 H354 0.950 . S
C323 N319 1.374 . S
C323 C322 1.439 . S
C323 C348 1.395 . S
N324 Co313 1.995 . S
N324 C325 1.376 . S
N324 C328 1.383 1_545 S
C325 N324 1.376 . S
C325 C326 1.446 1_545 S
C325 C348 1.391 . S
C326 C325 1.446 1_565 S
C326 C327 1.339 . S
C326 H355 0.949 . S
C327 C326 1.339 . S
C327 C328 1.439 . S
C327 H356 0.950 . S
C328 N324 1.383 1_565 S
C328 C327 1.439 . S
C328 C346 1.392 . S
N329 Co313 2.282 . S
N329 C332 1.332 . S
N329 C334 1.332 . S
C330 C331 1.386 . S
C330 C333 1.388 . S
C331 C330 1.386 . S
C331 C332 1.382 . S
C331 H357 0.950 . S
C332 N329 1.332 . S
C332 C331 1.382 . S
C332 H343 0.952 . S
C333 C330 1.388 . S
C333 C334 1.382 . S
C333 H358 0.950 . S
C334 N329 1.332 . S
C334 C333 1.382 . S
C334 H344 0.948 . S
N335 Co313 2.282 . S
N335 C339 1.332 . S
N335 C340 1.332 1_545 S
C336 C337 1.388 . S
C336 C340 1.382 . S
C336 H359 0.950 . S
C337 C336 1.388 . S
C337 C338 1.386 1_565 S
C338 C337 1.386 1_545 S
C338 C339 1.382 . S
C338 H360 0.950 . S
C339 N335 1.332 . S
C339 C338 1.382 . S
C339 H341 0.952 . S
C340 N335 1.332 1_565 S
C340 C336 1.382 . S
C340 H342 0.948 . S
H341 C339 0.952 . S
H342 C340 0.948 . S
H343 C332 0.952 . S
H344 C334 0.948 . S
C345 C311 1.395 . S
C345 C315 1.391 . S
C346 C308 1.389 1_565 S
C346 C328 1.392 . S
C347 C318 1.392 . S
C347 C320 1.389 . S
C348 C323 1.395 . S
C348 C325 1.391 . S
H349 C309 0.951 . S
H350 C310 0.950 . S
H351 C316 0.949 . S
H352 C317 0.950 . S
H353 C321 0.951 . S
H354 C322 0.950 . S
H355 C326 0.949 . S
H356 C327 0.950 . S
H357 C331 0.950 . S
H358 C333 0.950 . S
H359 C336 0.950 . S
H360 C338 0.950 . S
C361 C362 1.443 . S
C361 N365 1.376 . S
C361 C399 1.389 . S
C362 C361 1.443 . S
C362 C363 1.340 . S
C362 H402 0.951 . S
C363 C362 1.340 . S
C363 C364 1.439 . S
C363 H403 0.950 . S
C364 C363 1.439 . S
C364 N365 1.374 . S
C364 C398 1.395 . S
N365 C361 1.376 . S
N365 C364 1.374 . S
N365 Co366 2.008 . S
Co366 N365 2.008 . S
Co366 N367 1.995 . S
Co366 N372 2.008 . S
Co366 N377 1.995 . S
Co366 N382 2.282 . S
Co366 N388 2.282 . S
N367 Co366 1.995 . S
N367 C368 1.376 . S
N367 C371 1.383 . S
C368 N367 1.376 . S
C368 C369 1.446 . S
C368 C398 1.391 . S
C369 C368 1.446 . S
C369 C370 1.339 . S
C369 H404 0.949 . S
C370 C369 1.339 . S
C370 C371 1.439 . S
C370 H405 0.950 . S
C371 N367 1.383 . S
C371 C370 1.439 . S
C371 C400 1.392 . S
N372 Co366 2.008 . S
N372 C373 1.376 . S
N372 C376 1.374 . S
C373 N372 1.376 . S
C373 C374 1.443 . S
C373 C400 1.389 . S
C374 C373 1.443 . S
C374 C375 1.340 . S
C374 H406 0.951 . S
C375 C374 1.340 . S
C375 C376 1.439 . S
C375 H407 0.950 . S
C376 N372 1.374 . S
C376 C375 1.439 . S
C376 C401 1.395 . S
N377 Co366 1.995 . S
N377 C378 1.376 . S
N377 C381 1.383 . S
C378 N377 1.376 . S
C378 C379 1.446 . S
C378 C401 1.391 . S
C379 C378 1.446 . S
C379 C380 1.339 . S
C379 H408 0.949 . S
C380 C379 1.339 . S
C380 C381 1.439 . S
C380 H409 0.950 . S
C381 N377 1.383 . S
C381 C380 1.439 . S
C381 C399 1.392 . S
N382 Co366 2.282 . S
N382 C385 1.332 . S
N382 C387 1.332 . S
C383 C384 1.386 . S
C383 C386 1.388 . S
C384 C383 1.386 . S
C384 C385 1.382 1_556 S
C384 H410 0.950 . S
C385 N382 1.332 . S
C385 C384 1.382 1_554 S
C385 H396 0.952 . S
C386 C383 1.388 . S
C386 C387 1.382 1_556 S
C386 H411 0.950 . S
C387 N382 1.332 . S
C387 C386 1.382 1_554 S
C387 H397 0.948 . S
N388 Co366 2.282 . S
N388 C392 1.332 . S
N388 C393 1.332 . S
C389 C390 1.388 . S
C389 C393 1.382 . S
C389 H412 0.950 . S
C390 C389 1.388 . S
C390 C391 1.386 . S
C391 C390 1.386 . S
C391 C392 1.382 . S
C391 H413 0.950 . S
C392 N388 1.332 . S
C392 C391 1.382 . S
C392 H394 0.952 . S
C393 N388 1.332 . S
C393 C389 1.382 . S
C393 H395 0.948 . S
H394 C392 0.952 . S
H395 C393 0.948 . S
H396 C385 0.952 . S
H397 C387 0.948 . S
C398 C364 1.395 . S
C398 C368 1.391 . S
C399 C361 1.389 . S
C399 C381 1.392 . S
C400 C371 1.392 . S
C400 C373 1.389 . S
C401 C376 1.395 . S
C401 C378 1.391 . S
H402 C362 0.951 . S
H403 C363 0.950 . S
H404 C369 0.949 . S
H405 C370 0.950 . S
H406 C374 0.951 . S
H407 C375 0.950 . S
H408 C379 0.949 . S
H409 C380 0.950 . S
H410 C384 0.950 . S
H411 C386 0.950 . S
H412 C389 0.950 . S
H413 C391 0.950 . S
C414 C415 1.369 . S
C414 C416 1.419 . S
C414 H418 0.930 . S
C415 C414 1.369 . S
C415 C424 1.429 . S
C416 C414 1.419 . S
C416 C417 1.363 . S
C416 H419 0.929 . S
C417 C416 1.363 . S
C417 C423 1.428 . S
H418 C414 0.930 . S
H419 C416 0.929 . S
S420 N421 1.613 . S
S420 N422 1.610 . S
N421 S420 1.613 . S
N421 C424 1.350 . S
N422 S420 1.610 . S
N422 C423 1.351 . S
C423 C417 1.428 . S
C423 N422 1.351 . S
C423 C424 1.434 . S
C424 C415 1.429 . S
C424 N421 1.350 . S
C424 C423 1.434 . S
C425 C426 1.369 . S
C425 C427 1.419 . S
C425 H429 0.930 . S
C426 C425 1.369 . S
C426 C435 1.429 . S
C427 C425 1.419 . S
C427 C428 1.363 . S
C427 H430 0.929 . S
C428 C427 1.363 . S
C428 C434 1.428 . S
H429 C425 0.930 . S
H430 C427 0.929 . S
S431 N432 1.613 . S
S431 N433 1.610 . S
N432 S431 1.613 . S
N432 C435 1.350 . S
N433 S431 1.610 . S
N433 C434 1.351 . S
C434 C428 1.428 . S
C434 N433 1.351 . S
C434 C435 1.434 . S
C435 C426 1.429 . S
C435 N432 1.350 . S
C435 C434 1.434 . S
C436 C437 1.383 . S
C436 C438 1.405 1_655 S
C436 H440 0.930 1_655 S
C437 C436 1.383 . S
C437 C446 1.429 . S
C438 C436 1.405 1_455 S
C438 C439 1.363 . S
C438 H441 0.929 . S
C439 C438 1.363 . S
C439 C445 1.428 1_455 S
H440 C436 0.930 1_455 S
H441 C438 0.929 . S
S442 N443 1.613 . S
S442 N444 1.610 . S
N443 S442 1.613 . S
N443 C446 1.350 . S
N444 S442 1.610 . S
N444 C445 1.351 . S
C445 C439 1.428 1_655 S
C445 N444 1.351 . S
C445 C446 1.434 . S
C446 C437 1.429 . S
C446 N443 1.350 . S
C446 C445 1.434 . S
C447 C448 1.369 . S
C447 C449 1.419 . S
C447 H451 0.930 . S
C448 C447 1.369 . S
C448 C457 1.429 . S
C449 C447 1.419 . S
C449 C450 1.363 . S
C449 H452 0.929 . S
C450 C449 1.363 . S
C450 C456 1.428 . S
H451 C447 0.930 . S
H452 C449 0.929 . S
S453 N454 1.613 . S
S453 N455 1.610 . S
N454 S453 1.613 . S
N454 C457 1.350 . S
N455 S453 1.610 . S
N455 C456 1.351 . S
C456 C450 1.428 . S
C456 N455 1.351 . S
C456 C457 1.434 . S
C457 C448 1.429 . S
C457 N454 1.350 . S
C457 C456 1.434 . S
C458 C459 1.369 . S
C458 C460 1.419 . S
C458 H462 0.930 . S
C459 C458 1.369 . S
C459 C468 1.429 . S
C460 C458 1.419 . S
C460 C461 1.363 . S
C460 H463 0.929 . S
C461 C460 1.363 . S
C461 C467 1.428 . S
H462 C458 0.930 . S
H463 C460 0.929 . S
S464 N465 1.613 . S
S464 N466 1.610 . S
N465 S464 1.613 . S
N465 C468 1.350 . S
N466 S464 1.610 . S
N466 C467 1.351 . S
C467 C461 1.428 . S
C467 N466 1.351 . S
C467 C468 1.434 . S
C468 C459 1.429 . S
C468 N465 1.350 . S
C468 C467 1.434 . S
C469 C470 1.369 . S
C469 C471 1.419 . S
C469 H473 0.930 . S
C470 C469 1.369 . S
C470 C479 1.429 . S
C471 C469 1.419 . S
C471 C472 1.363 . S
C471 H474 0.929 . S
C472 C471 1.363 . S
C472 C478 1.428 . S
H473 C469 0.930 . S
H474 C471 0.929 . S
S475 N476 1.613 . S
S475 N477 1.610 . S
N476 S475 1.613 . S
N476 C479 1.350 . S
N477 S475 1.610 . S
N477 C478 1.351 . S
C478 C472 1.428 . S
C478 N477 1.351 . S
C478 C479 1.434 . S
C479 C470 1.429 . S
C479 N476 1.350 . S
C479 C478 1.434 . S
C480 C481 1.369 . S
C480 C482 1.419 . S
C480 H484 0.930 . S
C481 C480 1.369 . S
C481 C490 1.429 . S
C482 C480 1.419 . S
C482 C483 1.363 . S
C482 H485 0.929 . S
C483 C482 1.363 . S
C483 C489 1.428 . S
H484 C480 0.930 . S
H485 C482 0.929 . S
S486 N487 1.613 . S
S486 N488 1.610 . S
N487 S486 1.613 . S
N487 C490 1.350 . S
N488 S486 1.610 . S
N488 C489 1.351 . S
C489 C483 1.428 . S
C489 N488 1.351 . S
C489 C490 1.434 . S
C490 C481 1.429 . S
C490 N487 1.350 . S
C490 C489 1.434 . S
C491 C492 1.369 . S
C491 C493 1.419 . S
C491 H495 0.930 . S
C492 C491 1.369 . S
C492 C501 1.429 . S
C493 C491 1.419 . S
C493 C494 1.363 1_556 S
C493 H496 0.929 . S
C494 C493 1.363 1_554 S
C494 C500 1.428 . S
H495 C491 0.930 . S
H496 C493 0.929 . S
S497 N498 1.613 . S
S497 N499 1.610 . S
N498 S497 1.613 . S
N498 C501 1.350 1_554 S
N499 S497 1.610 . S
N499 C500 1.351 . S
C500 C494 1.428 . S
C500 N499 1.351 . S
C500 C501 1.434 1_554 S
C501 C492 1.429 . S
C501 N498 1.350 1_556 S
C501 C500 1.434 1_556 S
C502 C503 1.369 . S
C502 C504 1.419 . S
C502 H506 0.930 . S
C503 C502 1.369 . S
C503 C512 1.429 . S
C504 C502 1.419 . S
C504 C505 1.363 . S
C504 H507 0.929 . S
C505 C504 1.363 . S
C505 C511 1.428 . S
H506 C502 0.930 . S
H507 C504 0.929 . S
S508 N509 1.613 . S
S508 N510 1.610 . S
N509 S508 1.613 . S
N509 C512 1.350 . S
N510 S508 1.610 . S
N510 C511 1.351 . S
C511 C505 1.428 . S
C511 N510 1.351 . S
C511 C512 1.434 . S
C512 C503 1.429 . S
C512 N509 1.350 . S
C512 C511 1.434 . S
C513 C514 1.369 . S
C513 C515 1.419 . S
C513 H517 0.930 . S
C514 C513 1.369 . S
C514 C523 1.429 . S
C515 C513 1.419 . S
C515 C516 1.363 . S
C515 H518 0.929 . S
C516 C515 1.363 . S
C516 C522 1.428 . S
H517 C513 0.930 . S
H518 C515 0.929 . S
S519 N520 1.613 . S
S519 N521 1.610 . S
N520 S519 1.613 . S
N520 C523 1.350 . S
N521 S519 1.610 . S
N521 C522 1.351 . S
C522 C516 1.428 . S
C522 N521 1.351 . S
C522 C523 1.434 . S
C523 C514 1.429 . S
C523 N520 1.350 . S
C523 C522 1.434 . S
C524 C525 1.369 . S
C524 C526 1.419 . S
C524 H528 0.930 . S
C525 C524 1.369 . S
C525 C534 1.429 . S
C526 C524 1.419 . S
C526 C527 1.363 . S
C526 H529 0.929 . S
C527 C526 1.363 . S
C527 C533 1.428 . S
H528 C524 0.930 . S
H529 C526 0.929 . S
S530 N531 1.613 . S
S530 N532 1.610 . S
N531 S530 1.613 . S
N531 C534 1.350 . S
N532 S530 1.610 . S
N532 C533 1.351 . S
C533 C527 1.428 . S
C533 N532 1.351 . S
C533 C534 1.434 . S
C534 C525 1.429 . S
C534 N531 1.350 . S
C534 C533 1.434 . S
C535 C536 1.369 . S
C535 C537 1.419 . S
C535 H539 0.930 . S
C536 C535 1.369 . S
C536 C545 1.429 . S
C537 C535 1.419 . S
C537 C538 1.363 . S
C537 H540 0.929 . S
C538 C537 1.363 . S
C538 C544 1.428 . S
H539 C535 0.930 . S
H540 C537 0.929 . S
S541 N542 1.613 . S
S541 N543 1.610 . S
N542 S541 1.613 . S
N542 C545 1.350 . S
N543 S541 1.610 . S
N543 C544 1.351 . S
C544 C538 1.428 . S
C544 N543 1.351 . S
C544 C545 1.434 . S
C545 C536 1.429 . S
C545 N542 1.350 . S
C545 C544 1.434 . S
C546 C547 1.369 . S
C546 C548 1.419 . S
C546 H550 0.930 . S
C547 C546 1.369 . S
C547 C556 1.429 . S
C548 C546 1.419 . S
C548 C549 1.363 . S
C548 H551 0.929 . S
C549 C548 1.363 . S
C549 C555 1.428 . S
H550 C546 0.930 . S
H551 C548 0.929 . S
S552 N553 1.613 1_455 S
S552 N554 1.610 . S
N553 S552 1.613 1_655 S
N553 C556 1.350 . S
N554 S552 1.610 . S
N554 C555 1.351 1_455 S
C555 C549 1.428 . S
C555 N554 1.351 1_655 S
C555 C556 1.434 . S
C556 C547 1.429 . S
C556 N553 1.350 . S
C556 C555 1.434 . S
C557 C558 1.369 . S
C557 C559 1.419 . S
C557 H561 0.930 . S
C558 C557 1.369 . S
C558 C567 1.429 . S
C559 C557 1.419 . S
C559 C560 1.363 . S
C559 H562 0.929 . S
C560 C559 1.363 . S
C560 C566 1.428 . S
H561 C557 0.930 . S
H562 C559 0.929 . S
S563 N564 1.613 . S
S563 N565 1.610 . S
N564 S563 1.613 . S
N564 C567 1.350 . S
N565 S563 1.610 . S
N565 C566 1.351 . S
C566 C560 1.428 . S
C566 N565 1.351 . S
C566 C567 1.434 . S
C567 C558 1.429 . S
C567 N564 1.350 . S
C567 C566 1.434 . S
C568 C569 1.369 . S
C568 C570 1.419 . S
C568 H572 0.930 . S
C569 C568 1.369 . S
C569 C578 1.429 . S
C570 C568 1.419 . S
C570 C571 1.363 . S
C570 H573 0.929 . S
C571 C570 1.363 . S
C571 C577 1.428 . S
H572 C568 0.930 . S
H573 C570 0.929 . S
S574 N575 1.613 1_655 S
S574 N576 1.610 . S
N575 S574 1.613 1_455 S
N575 C578 1.350 . S
N576 S574 1.610 . S
N576 C577 1.351 1_655 S
C577 C571 1.428 . S
C577 N576 1.351 1_455 S
C577 C578 1.434 . S
C578 C569 1.429 . S
C578 N575 1.350 . S
C578 C577 1.434 . S
C579 C580 1.369 . S
C579 C581 1.419 . S
C579 H583 0.930 . S
C580 C579 1.369 . S
C580 C589 1.429 . S
C581 C579 1.419 . S
C581 C582 1.363 . S
C581 H584 0.929 . S
C582 C581 1.363 . S
C582 C588 1.428 . S
H583 C579 0.930 . S
H584 C581 0.929 . S
S585 N586 1.613 . S
S585 N587 1.610 . S
N586 S585 1.613 . S
N586 C589 1.350 . S
N587 S585 1.610 . S
N587 C588 1.351 . S
C588 C582 1.428 . S
C588 N587 1.351 . S
C588 C589 1.434 . S
C589 C580 1.429 . S
C589 N586 1.350 . S
C589 C588 1.434 . S
C590 C591 1.369 . S
C590 C592 1.419 . S
C590 H594 0.930 . S
C591 C590 1.369 . S
C591 C600 1.429 . S
C592 C590 1.419 . S
C592 C593 1.363 . S
C592 H595 0.929 . S
C593 C592 1.363 . S
C593 C599 1.428 . S
H594 C590 0.930 . S
H595 C592 0.929 . S
S596 N597 1.613 . S
S596 N598 1.610 . S
N597 S596 1.613 . S
N597 C600 1.350 . S
N598 S596 1.610 . S
N598 C599 1.351 . S
C599 C593 1.428 . S
C599 N598 1.351 . S
C599 C600 1.434 . S
C600 C591 1.429 . S
C600 N597 1.350 . S
C600 C599 1.434 . S
C601 C602 1.369 . S
C601 C603 1.419 . S
C601 H605 0.930 . S
C602 C601 1.369 . S
C602 C611 1.429 . S
C603 C601 1.419 . S
C603 C604 1.363 . S
C603 H606 0.929 . S
C604 C603 1.363 . S
C604 C610 1.428 . S
H605 C601 0.930 . S
H606 C603 0.929 . S
S607 N608 1.613 . S
S607 N609 1.610 . S
N608 S607 1.613 . S
N608 C611 1.350 . S
N609 S607 1.610 . S
N609 C610 1.351 . S
C610 C604 1.428 . S
C610 N609 1.351 . S
C610 C611 1.434 . S
C611 C602 1.429 . S
C611 N608 1.350 . S
C611 C610 1.434 . S
C612 C613 1.369 . S
C612 C614 1.419 . S
C612 H616 0.930 . S
C613 C612 1.369 . S
C613 C622 1.429 . S
C614 C612 1.419 . S
C614 C615 1.363 . S
C614 H617 0.929 . S
C615 C614 1.363 . S
C615 C621 1.428 . S
H616 C612 0.930 . S
H617 C614 0.929 . S
S618 N619 1.613 . S
S618 N620 1.610 . S
N619 S618 1.613 . S
N619 C622 1.350 . S
N620 S618 1.610 . S
N620 C621 1.351 . S
C621 C615 1.428 . S
C621 N620 1.351 . S
C621 C622 1.434 . S
C622 C613 1.429 . S
C622 N619 1.350 . S
C622 C621 1.434 . S
C623 C624 1.369 . S
C623 C625 1.419 . S
C623 H627 0.930 . S
C624 C623 1.369 . S
C624 C633 1.429 . S
C625 C623 1.419 . S
C625 C626 1.363 . S
C625 H628 0.929 . S
C626 C625 1.363 . S
C626 C632 1.428 . S
H627 C623 0.930 . S
H628 C625 0.929 . S
S629 N630 1.613 . S
S629 N631 1.610 . S
N630 S629 1.613 . S
N630 C633 1.350 . S
N631 S629 1.610 . S
N631 C632 1.351 . S
C632 C626 1.428 . S
C632 N631 1.351 . S
C632 C633 1.434 . S
C633 C624 1.429 . S
C633 N630 1.350 . S
C633 C632 1.434 . S
C634 C635 1.369 . S
C634 C636 1.419 . S
C634 H638 0.930 . S
C635 C634 1.369 . S
C635 C644 1.429 . S
C636 C634 1.419 . S
C636 C637 1.363 . S
C636 H639 0.929 . S
C637 C636 1.363 . S
C637 C643 1.428 . S
H638 C634 0.930 . S
H639 C636 0.929 . S
S640 N641 1.613 . S
S640 N642 1.610 . S
N641 S640 1.613 . S
N641 C644 1.350 . S
N642 S640 1.610 . S
N642 C643 1.351 . S
C643 C637 1.428 . S
C643 N642 1.351 . S
C643 C644 1.434 . S
C644 C635 1.429 . S
C644 N641 1.350 . S
C644 C643 1.434 . S
C645 C646 1.369 . S
C645 C647 1.419 . S
C645 H649 0.930 . S
C646 C645 1.369 . S
C646 C655 1.429 . S
C647 C645 1.419 . S
C647 C648 1.363 . S
C647 H650 0.929 . S
C648 C647 1.363 . S
C648 C654 1.428 . S
H649 C645 0.930 . S
H650 C647 0.929 . S
S651 N652 1.613 . S
S651 N653 1.610 . S
N652 S651 1.613 . S
N652 C655 1.350 . S
N653 S651 1.610 . S
N653 C654 1.351 . S
C654 C648 1.428 . S
C654 N653 1.351 . S
C654 C655 1.434 . S
C655 C646 1.429 . S
C655 N652 1.350 . S
C655 C654 1.434 . S
C656 C657 1.369 . S
C656 C658 1.419 . S
C656 H660 0.930 . S
C657 C656 1.369 . S
C657 C666 1.429 . S
C658 C656 1.419 . S
C658 C659 1.363 . S
C658 H661 0.929 . S
C659 C658 1.363 . S
C659 C665 1.428 . S
H660 C656 0.930 . S
H661 C658 0.929 . S
S662 N663 1.613 . S
S662 N664 1.610 . S
N663 S662 1.613 . S
N663 C666 1.350 . S
N664 S662 1.610 . S
N664 C665 1.351 . S
C665 C659 1.428 . S
C665 N664 1.351 . S
C665 C666 1.434 . S
C666 C657 1.429 . S
C666 N663 1.350 . S
C666 C665 1.434 . S
C667 C668 1.369 . S
C667 C669 1.419 . S
C667 H671 0.930 . S
C668 C667 1.369 . S
C668 C677 1.429 . S
C669 C667 1.419 . S
C669 C670 1.363 . S
C669 H672 0.929 . S
C670 C669 1.363 . S
C670 C676 1.428 . S
H671 C667 0.930 . S
H672 C669 0.929 . S
S673 N674 1.613 . S
S673 N675 1.610 . S
N674 S673 1.613 . S
N674 C677 1.350 . S
N675 S673 1.610 . S
N675 C676 1.351 . S
C676 C670 1.428 . S
C676 N675 1.351 . S
C676 C677 1.434 . S
C677 C668 1.429 . S
C677 N674 1.350 . S
C677 C676 1.434 . S
C417 C118 1.635 . S
C415 C6 1.638 . S
C428 C187 1.467 . S
C426 C18 1.443 . S
C439 C125 1.584 . S
C437 C28 1.593 . S
C450 C188 1.530 . S
C448 C45 1.523 . S
C461 C241 1.522 . S
C459 C4 1.538 . S
C472 C277 1.740 . S
C470 C21 1.757 . S
C481 C33 1.631 . S
C483 C337 1.643 . S
C494 C400 1.679 . S
C492 C40 1.670 . S
C505 C240 1.651 . S
C503 C16 1.651 . S
C514 C30 1.715 . S
C516 C284 1.688 . S
C527 C330 1.600 . S
C525 C42 1.597 . S
C538 C399 1.657 . S
C536 C9 1.656 . S
C547 C52 1.557 . S
C549 C178 1.559 . S
C560 C135 1.679 1_655 S
C558 C69 1.691 . S
C569 C78 1.452 . S
C571 C171 1.451 . S
C580 C93 1.491 . S
C582 C134 1.530 . S
C593 C346 1.662 . S
C591 C57 1.647 . S
C604 C390 1.664 . S
C602 C66 1.677 . S
C615 C224 1.497 . S
C613 C76 1.525 . S
C624 C88 1.608 . S
C626 C293 1.575 . S
C637 C347 1.609 . S
C635 C64 1.592 . S
C648 C383 1.639 . S
C646 C81 1.627 . S
C659 C231 1.498 . S
C657 C90 1.503 . S
C668 C54 1.674 . S
C670 C294 1.656 . S
