# Generated by pormake.
# Topology rtl, (3,6)-cn, num edge types: 1
# Building blocks:
#     Node 0, Type 0, BuildingBlock: KAKCAD_clean_linker_0, # of connection points: 3
#     Node 1, Type 0, BuildingBlock: KAKCAD_clean_linker_0, # of connection points: 3
#     Node 2, Type 0, BuildingBlock: KAKCAD_clean_linker_0, # of connection points: 3
#     Node 3, Type 0, BuildingBlock: KAKCAD_clean_linker_0, # of connection points: 3
#     Node 4, Type 1, BuildingBlock: KUMJIN_clean_sbu_1, # of connection points: 6
#     Node 5, Type 1, BuildingBlock: KUMJIN_clean_sbu_1, # of connection points: 6
#     Edge 6, Type (0, 1), BuildingBlock: XUDNAN_clean_linker_2, # of connection points: 2
#     Edge 7, Type (0, 1), BuildingBlock: XUDNAN_clean_linker_2, # of connection points: 2
#     Edge 8, Type (0, 1), BuildingBlock: XUDNAN_clean_linker_2, # of connection points: 2
#     Edge 9, Type (0, 1), BuildingBlock: XUDNAN_clean_linker_2, # of connection points: 2
#     Edge 10, Type (0, 1), BuildingBlock: XUDNAN_clean_linker_2, # of connection points: 2
#     Edge 11, Type (0, 1), BuildingBlock: XUDNAN_clean_linker_2, # of connection points: 2
#     Edge 12, Type (0, 1), BuildingBlock: XUDNAN_clean_linker_2, # of connection points: 2
#     Edge 13, Type (0, 1), BuildingBlock: XUDNAN_clean_linker_2, # of connection points: 2
#     Edge 14, Type (0, 1), BuildingBlock: XUDNAN_clean_linker_2, # of connection points: 2
#     Edge 15, Type (0, 1), BuildingBlock: XUDNAN_clean_linker_2, # of connection points: 2
#     Edge 16, Type (0, 1), BuildingBlock: XUDNAN_clean_linker_2, # of connection points: 2
#     Edge 17, Type (0, 1), BuildingBlock: XUDNAN_clean_linker_2, # of connection points: 2
# Relax obj value: 0.018
# Max RMSD: 0.097
# Mean RMSD: 0.059
data_MOF--net-rtl--node1-KUMJIN_clean_sbu_1--node2-KAKCAD_clean_linker_0--edge1-XUDNAN_clean_linker_2
_symmetry_space_group_name_H-M    P1
_symmetry_Int_Tables_number       1
_symmetry_cell_setting            triclinic
loop_
_symmetry_equiv_pos_as_xyz
'x, y, z'
_cell_length_a     39.91338
_cell_length_b     40.524214
_cell_length_c     35.215644
_cell_angle_alpha  79.820955
_cell_angle_beta   99.717087
_cell_angle_gamma 90.841148
loop_
_atom_site_label
_atom_site_type_symbol
_atom_site_fract_x
_atom_site_fract_y
_atom_site_fract_z
_atom_type_partial_charge
C0 C 0.13352 0.88765 0.88999 0.0
C1 C 0.15616 0.9038 0.86645 0.0
C2 C 0.14568 0.8701 0.92758 0.0
C3 C 0.18074 0.86802 0.94219 0.0
C4 C 0.20339 0.88381 0.91846 0.0
C5 C 0.19121 0.90167 0.88105 0.0
C6 C 0.19367 0.84991 0.98232 0.0
C7 C 0.22108 0.82714 0.98903 0.0
C8 C 0.23382 0.81033 0.02702 0.0
C9 C 0.21928 0.81701 0.05857 0.0
C10 C 0.19146 0.83938 0.05244 0.0
C11 C 0.17872 0.85552 0.01402 0.0
C12 C 0.17557 0.84566 0.08601 0.0
C13 C 0.17329 0.81977 0.11783 0.0
C14 C 0.16236 0.87755 0.08647 0.0
C15 C 0.14694 0.88328 0.11755 0.0
C16 C 0.14488 0.85746 0.14953 0.0
C17 C 0.26152 0.78488 0.03367 0.0
C18 C 0.26004 0.76034 0.00985 0.0
C19 C 0.28896 0.78419 0.0646 0.0
C20 C 0.31423 0.75927 0.07178 0.0
C21 C 0.31249 0.73433 0.04836 0.0
C22 C 0.28515 0.73529 0.01718 0.0
C23 C 0.15848 0.82567 0.1493 0.0
H24 H 0.10636 0.88906 0.87958 0.0
H25 H 0.12767 0.85796 0.94515 0.0
H26 H 0.23052 0.8828 0.92911 0.0
H27 H 0.20925 0.91364 0.86341 0.0
H28 H 0.2324 0.82235 0.96459 0.0
H29 H 0.15712 0.87259 0.00859 0.0
H30 H 0.22952 0.80439 0.08791 0.0
H31 H 0.18261 0.79471 0.1184 0.0
H32 H 0.16407 0.89833 0.06292 0.0
H33 H 0.13632 0.90797 0.11615 0.0
H34 H 0.23893 0.75997 0.98614 0.0
H35 H 0.29095 0.80304 0.08316 0.0
H36 H 0.15796 0.80524 0.17355 0.0
H37 H 0.28263 0.71621 0.99894 0.0
H38 H 0.33522 0.75967 0.09559 0.0
C39 C 0.63699 0.674 0.74087 0.0
C40 C 0.62356 0.64162 0.74301 0.0
C41 C 0.65305 0.68796 0.70937 0.0
C42 C 0.65638 0.66956 0.67974 0.0
C43 C 0.64431 0.63649 0.68331 0.0
C44 C 0.62777 0.62288 0.71425 0.0
C45 C 0.67116 0.68472 0.64446 0.0
C46 C 0.69857 0.70697 0.6469 0.0
C47 C 0.71298 0.71993 0.61357 0.0
C48 C 0.70008 0.70988 0.57772 0.0
C49 C 0.67243 0.68807 0.57444 0.0
C50 C 0.65777 0.67641 0.60781 0.0
C51 C 0.65913 0.6768 0.53658 0.0
C52 C 0.65923 0.69816 0.50036 0.0
C53 C 0.64643 0.64417 0.53642 0.0
C54 C 0.63389 0.63339 0.50127 0.0
C55 C 0.63444 0.65461 0.46536 0.0
C56 C 0.74128 0.74427 0.61578 0.0
C57 C 0.7399 0.77142 0.63542 0.0
C58 C 0.76913 0.74143 0.59677 0.0
C59 C 0.79464 0.76548 0.59679 0.0
C60 C 0.79294 0.79307 0.61571 0.0
C61 C 0.76535 0.79556 0.6353 0.0
C62 C 0.64737 0.68702 0.46512 0.0
H63 H 0.63391 0.68893 0.76274 0.0
H64 H 0.66181 0.71351 0.70761 0.0
H65 H 0.64731 0.62105 0.66192 0.0
H66 H 0.61801 0.59768 0.71559 0.0
H67 H 0.70931 0.7136 0.67487 0.0
H68 H 0.63541 0.66099 0.60518 0.0
H69 H 0.71165 0.71922 0.5523 0.0
H70 H 0.6682 0.7236 0.4991 0.0
H71 H 0.64669 0.62657 0.56345 0.0
H72 H 0.62456 0.60807 0.50213 0.0
H73 H 0.71859 0.77456 0.64991 0.0
H74 H 0.77122 0.72054 0.58188 0.0
H75 H 0.64798 0.70381 0.43766 0.0
H76 H 0.76288 0.81667 0.64971 0.0
H77 H 0.81581 0.76233 0.58207 0.0
C78 C 0.81746 0.10838 0.18511 0.0
C79 C 0.85258 0.10258 0.19697 0.0
C80 C 0.80459 0.12495 0.14729 0.0
C81 C 0.82656 0.13553 0.12044 0.0
C82 C 0.8617 0.12969 0.13225 0.0
C83 C 0.87463 0.11362 0.17032 0.0
C84 C 0.81263 0.1522 0.08004 0.0
C85 C 0.78977 0.17939 0.07367 0.0
C86 C 0.77509 0.19471 0.03548 0.0
C87 C 0.78399 0.182 1.00367 0.0
C88 C 0.8079 0.15565 0.00953 0.0
C89 C 0.82195 0.14078 0.0479 0.0
C90 C 0.81921 0.14476 0.97545 0.0
C91 C 0.79584 0.14236 0.94141 0.0
C92 C 0.85386 0.13845 0.97598 0.0
C93 C 0.865 0.13101 0.94286 0.0
C94 C 0.84177 0.12982 0.90839 0.0
C95 C 0.75137 0.22436 0.02883 0.0
C96 C 0.73178 0.22928 0.05715 0.0
C97 C 0.74846 0.2485 0.99429 0.0
C98 C 0.72652 0.27617 0.9881 0.0
C99 C 0.7078 0.28172 0.01697 0.0
C100 C 0.71097 0.25776 0.05171 0.0
C101 C 0.807 0.13505 0.90822 0.0
H102 H 0.79997 0.10028 0.2052 0.0
H103 H 0.77738 0.129 0.13879 0.0
H104 H 0.87915 0.13777 0.1121 0.0
H105 H 0.9018 0.10927 0.17875 0.0
H106 H 0.78435 0.18897 0.09882 0.0
H107 H 0.83965 0.11982 0.05283 0.0
H108 H 0.77281 0.19288 0.97404 0.0
H109 H 0.7689 0.14643 0.94026 0.0
H110 H 0.87259 0.14051 1.00153 0.0
H111 H 0.89199 0.1275 0.94377 0.0
H112 H 0.7323 0.2112 0.08382 0.0
H113 H 0.76341 0.24658 0.97185 0.0
H114 H 0.78844 0.13376 0.88229 0.0
H115 H 0.69781 0.2609 0.0753 0.0
H116 H 0.72445 0.29308 0.96037 0.0
C117 C 0.35787 0.35764 0.31605 0.0
C118 C 0.39316 0.36291 0.32208 0.0
C119 C 0.34094 0.34748 0.34791 0.0
C120 C 0.35887 0.34264 0.38654 0.0
C121 C 0.39408 0.34822 0.39246 0.0
C122 C 0.41095 0.35823 0.36072 0.0
C123 C 0.34129 0.33157 0.42075 0.0
C124 C 0.31683 0.30617 0.42006 0.0
C125 C 0.30165 0.2944 0.45313 0.0
C126 C 0.31114 0.30857 0.487 0.0
C127 C 0.3353 0.33414 0.48834 0.0
C128 C 0.34998 0.3456 0.45488 0.0
C129 C 0.34578 0.34805 0.5251 0.0
C130 C 0.32212 0.35177 0.54957 0.0
C131 C 0.37978 0.35663 0.5368 0.0
C132 C 0.38991 0.36809 0.57216 0.0
C133 C 0.36644 0.37087 0.59717 0.0
C134 C 0.27623 0.26698 0.45288 0.0
C135 C 0.25118 0.26597 0.41983 0.0
C136 C 0.27633 0.24199 0.48623 0.0
C137 C 0.25167 0.21713 0.48683 0.0
C138 C 0.22642 0.21635 0.45399 0.0
C139 C 0.22661 0.24091 0.42035 0.0
C140 C 0.33234 0.36274 0.58518 0.0
H141 H 0.34343 0.36083 0.28667 0.0
H142 H 0.31377 0.34366 0.34231 0.0
H143 H 0.4088 0.34439 0.42172 0.0
H144 H 0.43804 0.36247 0.36655 0.0
H145 H 0.31055 0.29468 0.39426 0.0
H146 H 0.36803 0.36581 0.45518 0.0
H147 H 0.2998 0.2994 0.51262 0.0
H148 H 0.29559 0.34606 0.54137 0.0
H149 H 0.39889 0.35382 0.51908 0.0
H150 H 0.41626 0.37467 0.57987 0.0
H151 H 0.25006 0.28499 0.39381 0.0
H152 H 0.29565 0.24146 0.51194 0.0
H153 H 0.31348 0.36408 0.60366 0.0
H154 H 0.20732 0.24118 0.39466 0.0
H155 H 0.25265 0.19821 0.51293 0.0
Eu156 Eu 0.02849 0.96737 0.51563 0.0
C157 C 0.94868 0.10428 0.48005 0.0
N158 N 0.97954 0.09736 0.50317 0.0
C159 C 1.00031 0.15051 0.4758 0.0
C160 C 0.9426 0.13481 0.45347 0.0
C161 C 0.00514 0.11997 0.5018 0.0
C162 C 0.96893 0.15795 0.45148 0.0
C163 C 0.89128 0.08671 0.4581 0.0
C164 C 0.92328 0.0804 0.48236 0.0
C165 C 0.88512 0.1172 0.43183 0.0
C166 C 0.91064 0.14122 0.42964 0.0
Eu167 Eu 0.98522 0.04536 0.546 0.0
N168 N 0.93007 0.0508 0.50773 0.0
C169 C 0.86632 0.06224 0.46108 0.0
C170 C 0.90521 0.02768 0.51213 0.0
C171 C 0.87322 0.03275 0.48847 0.0
H172 H 0.0291 0.11473 0.52128 0.0
H173 H 0.85376 0.01408 0.49173 0.0
H174 H 0.98061 0.89865 0.52137 0.0
H175 H 0.15684 0.98675 0.59048 0.0
H176 H 0.90943 0.0056 0.53428 0.0
H177 H 0.84146 0.06612 0.44288 0.0
H178 H 0.10362 0.00222 0.54403 0.0
H179 H 0.02072 0.16836 0.47473 0.0
H180 H 0.86069 0.12245 0.41299 0.0
H181 H 0.9055 0.16456 0.40909 0.0
H182 H 0.98347 0.84088 0.55905 0.0
H183 H 0.96526 0.18165 0.43136 0.0
H184 H 0.16427 0.92984 0.6305 0.0
N185 N 0.02928 0.91156 0.54896 0.0
C186 C 0.05808 0.90106 0.57463 0.0
C187 C 0.00456 0.85759 0.56384 0.0
C188 C 0.06109 0.86816 0.59628 0.0
C189 C 1.00284 0.89039 0.54287 0.0
C190 C 0.03377 0.84644 0.59075 0.0
N191 N 0.08062 0.95518 0.55881 0.0
C192 C 0.10638 0.97755 0.56166 0.0
C193 C 0.11474 0.9133 0.60602 0.0
C194 C 0.08462 0.92337 0.57945 0.0
C195 C 0.14079 0.93656 0.61025 0.0
C196 C 0.13666 0.96875 0.58779 0.0
H197 H 0.03507 0.82098 0.60688 0.0
H198 H 0.09391 0.83281 0.63953 0.0
H199 H 0.14087 0.87228 0.64797 0.0
O200 O 0.06333 0.97046 0.47395 0.0
O201 O 0.03443 0.96924 0.58073 0.0
O202 O 0.03507 0.02556 0.58307 0.0
O203 O 0.02569 0.93161 0.47519 0.0
O204 O 0.04562 0.02028 0.4938 0.0
O205 O 0.04075 0.05229 0.54078 0.0
O206 O 0.9555 0.0459 0.59261 0.0
O207 O 0.98175 0.0431 0.48125 0.0
O208 O 0.97789 0.98688 0.48025 0.0
O209 O 0.98727 0.08792 0.57662 0.0
O210 O 0.9692 0.99245 0.57024 0.0
O211 O 0.97344 0.96086 0.52274 0.0
C212 C 0.04208 0.99429 0.59957 0.0
C213 C 0.03997 0.95555 0.41397 0.0
C214 C 0.04511 0.94529 0.34909 0.0
C215 C 0.02695 0.97526 0.33239 0.0
C216 C 0.02205 0.98549 0.39679 0.0
C217 C 0.01528 0.99508 0.3562 0.0
C218 C 0.05118 0.93529 0.39002 0.0
C219 C 0.05438 0.04611 0.51117 0.0
C220 C 0.04886 0.94671 0.45676 0.0
C221 C 0.09114 0.85799 0.62263 0.0
C222 C 0.11789 0.88048 0.62744 0.0
C223 C 0.97117 0.01811 0.46351 0.0
C224 C 0.97979 0.07474 0.64262 0.0
C225 C 0.96759 0.08372 0.70575 0.0
C226 C 1.00176 0.07566 0.72234 0.0
C227 C 0.01369 0.06681 0.65967 0.0
C228 C 0.95683 0.08288 0.66572 0.0
C229 C 0.02454 0.06716 0.6994 0.0
C230 C 0.96162 0.96574 0.55402 0.0
C231 C 0.96777 0.07421 0.60095 0.0
H232 H 0.02186 0.98331 0.30092 0.0
H233 H 0.014 1.0018 0.41481 0.0
H234 H 1.00144 0.01818 0.34324 0.0
H235 H 0.0656 0.91246 0.40322 0.0
H236 H 0.0111 0.07651 0.75285 0.0
H237 H 0.0317 0.06054 0.64222 0.0
H238 H 0.93052 0.08831 0.65241 0.0
H239 H 0.05077 0.06109 0.7124 0.0
Eu240 Eu 0.46938 0.49453 0.99835 0.0
C241 C 0.61486 0.55647 0.03941 0.0
N242 N 0.60424 0.52468 0.05017 0.0
C243 C 0.65556 0.50222 0.03741 0.0
C244 C 0.64645 0.56227 0.02669 0.0
C245 C 0.6242 0.49768 0.05009 0.0
C246 C 0.66672 0.53465 0.02558 0.0
C247 C 0.60389 0.61649 0.02832 0.0
C248 C 0.5935 0.58331 0.0398 0.0
C249 C 0.63558 0.6223 0.01628 0.0
C250 C 0.65669 0.59529 0.01525 0.0
Eu251 Eu 0.55172 0.51965 0.0724 0.0
N252 N 0.56267 0.57701 0.05123 0.0
C253 C 0.58226 0.64297 0.0296 0.0
C254 C 0.5425 0.60286 0.05468 0.0
C255 C 0.55161 0.6361 0.0432 0.0
H256 H 0.6162 0.47265 0.06055 0.0
H257 H 0.53526 0.65645 0.0456 0.0
H258 H 0.4035 0.54196 0.00447 0.0
H259 H 0.48784 0.35798 0.03474 0.0
H260 H 0.51998 0.59835 0.06754 0.0
H261 H 0.58934 0.66879 0.021 0.0
H262 H 0.50166 0.41553 0.00767 0.0
H263 H 0.67124 0.48073 0.03712 0.0
H264 H 0.6439 0.64763 0.00738 0.0
H265 H 0.68088 0.60023 0.00541 0.0
H266 H 0.34806 0.5349 0.0272 0.0
H267 H 0.69107 0.5381 0.01582 0.0
H268 H 0.43437 0.34661 0.06105 0.0
N269 N 0.41614 0.4901 0.01884 0.0
C270 C 0.40621 0.45863 0.03255 0.0
C271 C 0.36422 0.51327 0.02901 0.0
C272 C 0.37469 0.45336 0.04546 0.0
C273 C 0.3957 0.51727 0.01652 0.0
C274 C 0.35368 0.48119 0.04361 0.0
N275 N 0.45866 0.4376 0.02237 0.0
C276 C 0.47931 0.41148 0.02096 0.0
C277 C 0.41857 0.39883 0.04913 0.0
C278 C 0.42809 0.43168 0.03451 0.0
C279 C 0.44076 0.3722 0.05003 0.0
C280 C 0.47106 0.37853 0.03544 0.0
H281 H 0.32929 0.47817 0.05333 0.0
H282 H 0.34111 0.41614 0.07009 0.0
H283 H 0.37949 0.36846 0.07338 0.0
O284 O 0.46657 0.47641 0.94288 0.0
O285 O 0.46779 0.48273 0.06382 0.0
O286 O 0.52387 0.47167 0.09033 0.0
O287 O 0.42882 0.51176 0.94919 0.0
O288 O 0.52117 0.47355 0.99463 0.0
O289 O 0.55017 0.46739 0.05804 0.0
O290 O 0.55812 0.53738 0.12908 0.0
O291 O 0.55357 0.53265 0.00691 0.0
O292 O 0.49725 0.54261 0.98286 0.0
O293 O 0.59415 0.50138 0.11835 0.0
O294 O 0.49993 0.54098 0.07602 0.0
O295 O 0.46973 0.54674 0.01293 0.0
C296 C 0.49143 0.46907 0.09269 0.0
C297 C 0.41119 0.47245 0.90749 0.0
C298 C 0.38987 0.44406 0.85261 0.0
C299 C 0.36001 0.43637 0.86837 0.0
C300 C 0.38122 0.46429 0.9228 0.0
C301 C 0.35585 0.44633 0.9033 0.0
C302 C 0.41547 0.46207 0.87252 0.0
C303 C 0.54644 0.46107 0.02229 0.0
C304 C 0.43799 0.4921 0.92715 0.0
C305 C 0.36524 0.42067 0.06002 0.0
C306 C 0.38715 0.39352 0.06199 0.0
C307 C 0.52903 0.54395 0.97789 0.0
C308 C 0.60628 0.51839 0.18175 0.0
C309 C 0.61948 0.53948 0.24335 0.0
C310 C 0.64855 0.51857 0.25403 0.0
C311 C 0.63541 0.49756 0.19327 0.0
C312 C 0.59815 0.53909 0.20722 0.0
C313 C 0.65629 0.49763 0.22921 0.0
C314 C 0.47457 0.55395 0.0485 0.0
C315 C 0.58589 0.51949 0.14239 0.0
H316 H 0.34005 0.42223 0.85395 0.0
H317 H 0.37725 0.47193 0.94965 0.0
H318 H 0.33283 0.44013 0.91528 0.0
H319 H 0.43849 0.46849 0.86052 0.0
H320 H 0.66512 0.51817 0.28186 0.0
H321 H 0.64235 0.4814 0.17431 0.0
H322 H 0.57591 0.55545 0.19862 0.0
H323 H 0.67869 0.48155 0.23775 0.0
H324 H 0.19066 0.19292 0.51334 0.0
H325 H 0.20281 0.17984 0.39671 0.0
H326 H 0.15999 0.13516 0.39855 0.0
H327 H 0.18111 0.10608 0.55243 0.0
H328 H 0.14955 0.11371 0.58106 0.0
H329 H 0.18068 0.14507 0.57034 0.0
H330 H 0.13242 0.18875 0.53975 0.0
H331 H 0.10119 0.15748 0.55047 0.0
H332 H 0.09987 0.17951 0.50108 0.0
H333 H 0.11694 0.09087 0.4138 0.0
H334 H 0.07531 0.05158 0.44029 0.0
H335 H 0.09112 0.09347 0.54713 0.0
C336 C 0.18443 0.18055 0.48824 0.0
C337 C 0.20015 0.18987 0.45486 0.0
C338 C 0.19088 0.17338 0.42242 0.0
C339 C 0.16672 0.14786 0.42328 0.0
C340 C 0.15186 0.1392 0.4567 0.0
C341 C 0.16021 0.15517 0.48852 0.0
C342 C 0.14035 0.14122 0.52076 0.0
C343 C 0.16436 0.12559 0.55837 0.0
C344 C 0.11709 0.16836 0.52845 0.0
C345 C 0.11982 0.11466 0.50229 0.0
C346 C 0.12683 0.11392 0.46534 0.0
C347 C 0.11119 0.09131 0.44266 0.0
C348 C 0.08765 0.069 0.45806 0.0
C349 C 0.07981 0.0695 0.49576 0.0
C350 C 0.09631 0.09263 0.5181 0.0
H351 H 0.34043 0.7056 0.99549 0.0
H352 H 0.34365 0.70097 0.12022 0.0
H353 H 0.38641 0.65515 0.13402 0.0
H354 H 0.34624 0.6166 0.99958 0.0
H355 H 0.37206 0.62013 0.96177 0.0
H356 H 0.34261 0.65337 0.9618 0.0
H357 H 0.39178 0.69599 0.96151 0.0
H358 H 0.42133 0.66282 0.9615 0.0
H359 H 0.42891 0.68829 0.9991 0.0
H360 H 0.42828 0.60898 0.13413 0.0
H361 H 0.46563 0.56597 0.12032 0.0
H362 H 0.43358 0.60031 0.99564 0.0
C363 C 0.3499 0.69487 0.02574 0.0
C364 C 0.33869 0.70707 0.05675 0.0
C365 C 0.35221 0.69252 0.09592 0.0
C366 C 0.37635 0.6663 0.10408 0.0
C367 C 0.38665 0.65481 0.07278 0.0
C368 C 0.37381 0.6686 0.03441 0.0
C369 C 0.38864 0.65138 0.00607 0.0
C370 C 0.36072 0.63437 0.98083 0.0
C371 C 0.40887 0.6761 0.98055 0.0
C372 C 0.41183 0.62575 0.0345 0.0
C373 C 0.4104 0.62811 0.07285 0.0
C374 C 0.42961 0.60692 0.1042 0.0
C375 C 0.45077 0.58263 0.09607 0.0
C376 C 0.4524 0.57971 0.05693 0.0
C377 C 0.43271 0.60171 0.02589 0.0
H378 H 0.82519 0.81939 0.55395 0.0
H379 H 0.82092 0.82656 0.67465 0.0
H380 H 0.86351 0.87132 0.672 0.0
H381 H 0.91614 0.83204 0.56073 0.0
H382 H 0.91252 0.85611 0.51199 0.0
H383 H 0.88171 0.82449 0.52315 0.0
H384 H 0.83298 0.86858 0.49844 0.0
H385 H 0.86354 0.90035 0.48701 0.0
H386 H 0.83421 0.9064 0.51898 0.0
H387 H 0.90595 0.91614 0.65584 0.0
H388 H 0.94578 0.9568 0.62767 0.0
H389 H 0.92286 0.91979 0.51793 0.0
C390 C 0.83348 0.82999 0.58006 0.0
C391 C 0.8195 0.81938 0.61451 0.0
C392 C 0.83077 0.8345 0.64771 0.0
C393 C 0.85515 0.85983 0.64659 0.0
C394 C 0.86821 0.86974 0.61212 0.0
C395 C 0.85789 0.8552 0.5795 0.0
C396 C 0.87575 0.87058 0.546 0.0
C397 C 0.89784 0.84423 0.53482 0.0
C398 C 0.85008 0.88748 0.51052 0.0
C399 C 0.8975 0.89623 0.56477 0.0
C400 C 0.89284 0.89531 0.60293 0.0
C401 C 0.90988 0.91697 0.62602 0.0
C402 C 0.93236 0.94007 0.60971 0.0
C403 C 0.93769 0.94129 0.57072 0.0
C404 C 0.91984 0.9191 0.54804 0.0
H405 H 0.65101 0.29077 0.0507 0.0
H406 H 0.71396 0.34373 0.97054 0.0
H407 H 0.67667 0.39312 0.95943 0.0
H408 H 0.57036 0.3276 0.005 0.0
H409 H 0.55698 0.33157 0.05039 0.0
H410 H 0.58627 0.29852 0.04917 0.0
H411 H 0.6295 0.31881 0.10358 0.0
H412 H 0.60019 0.35168 0.10523 0.0
H413 H 0.64273 0.36188 0.0968 0.0
H414 H 0.63134 0.4369 0.9554 0.0
H415 H 0.58676 0.4742 0.96696 0.0
H416 H 0.5604 0.39635 0.05782 0.0
C417 C 0.6576 0.31262 0.03111 0.0
C418 C 0.6855 0.31236 0.01096 0.0
C419 C 0.6922 0.34208 0.98532 0.0
C420 C 0.67128 0.37068 0.979 0.0
C421 C 0.64418 0.36979 0.9993 0.0
C422 C 0.63779 0.34181 0.02552 0.0
C423 C 0.60885 0.34834 0.04621 0.0
C424 C 0.57885 0.32512 0.03714 0.0
C425 C 0.62106 0.34499 0.09058 0.0
C426 C 0.59998 0.38436 0.02741 0.0
C427 C 0.6201 0.39603 0.99971 0.0
C428 C 0.61566 0.42815 0.97728 0.0
C429 C 0.59028 0.44903 0.98382 0.0
C430 C 0.57062 0.43793 0.0133 0.0
C431 C 0.57547 0.40528 0.03531 0.0
H432 H 0.14483 0.91555 0.18033 0.0
H433 H 0.10717 0.81366 0.19409 0.0
H434 H 0.08022 0.82404 0.24893 0.0
H435 H 0.16027 0.9234 0.28172 0.0
H436 H 0.14532 0.96631 0.27228 0.0
H437 H 0.16381 0.95014 0.23591 0.0
H438 H 0.10944 0.96753 0.18484 0.0
H439 H 0.09083 0.98384 0.221 0.0
H440 H 0.06872 0.95276 0.19581 0.0
H441 H 0.05694 0.84576 0.30248 0.0
H442 H 0.03596 0.87858 0.34709 0.0
H443 H 0.08482 0.96704 0.29417 0.0
C444 C 0.13071 0.89538 0.19447 0.0
C445 C 0.12851 0.86364 0.18278 0.0
C446 C 0.11008 0.83797 0.20286 0.0
C447 C 0.09442 0.84367 0.23396 0.0
C448 C 0.09703 0.87528 0.24446 0.0
C449 C 0.11445 0.90078 0.22506 0.0
C450 C 0.11213 0.93297 0.24074 0.0
C451 C 0.14749 0.94383 0.25873 0.0
C452 C 0.0942 0.96091 0.20869 0.0
C453 C 0.09049 0.92164 0.27185 0.0
C454 C 0.0824 0.88816 0.27397 0.0
C455 C 0.063 0.87202 0.30098 0.0
C456 C 0.05129 0.89074 0.3262 0.0
C457 C 0.05863 0.92524 0.3237 0.0
C458 C 0.07859 0.94074 0.2963 0.0
H459 H 0.6437 0.6311 0.8229 0.0
H460 H 0.55843 0.62048 0.73197 0.0
H461 H 0.52448 0.59584 0.78228 0.0
H462 H 0.63256 0.55304 0.88571 0.0
H463 H 0.64446 0.56925 0.93051 0.0
H464 H 0.66152 0.58753 0.88749 0.0
H465 H 0.63887 0.64587 0.89243 0.0
H466 H 0.6213 0.62782 0.9351 0.0
H467 H 0.59431 0.65152 0.89344 0.0
H468 H 0.49972 0.57293 0.84218 0.0
H469 H 0.48678 0.54981 0.90765 0.0
H470 H 0.58924 0.57165 0.95983 0.0
C471 C 0.6178 0.62378 0.81379 0.0
C472 C 0.60347 0.62779 0.77371 0.0
C473 C 0.56971 0.61756 0.76261 0.0
C474 C 0.55028 0.60364 0.79093 0.0
C475 C 0.56514 0.59975 0.83023 0.0
C476 C 0.5982 0.60921 0.84173 0.0
C477 C 0.60832 0.60123 0.88589 0.0
C478 C 0.6385 0.57627 0.8981 0.0
C479 C 0.61616 0.63355 0.90269 0.0
C480 C 0.57597 0.5854 0.8973 0.0
C481 C 0.55122 0.58532 0.86477 0.0
C482 C 0.51895 0.57274 0.86787 0.0
C483 C 0.51182 0.55971 0.90522 0.0
C484 C 0.53701 0.55882 0.93897 0.0
C485 C 0.5695 0.57181 0.93476 0.0
H486 H 0.90441 0.12165 0.24982 0.0
H487 H 0.83097 0.04322 0.234 0.0
H488 H 0.85343 0.01293 0.30065 0.0
H489 H 0.97318 0.06881 0.30422 0.0
H490 H 0.98846 0.09681 0.33763 0.0
H491 H 0.96714 0.11339 0.28881 0.0
H492 H 0.92308 0.14456 0.31512 0.0
H493 H 0.94407 0.12946 0.36443 0.0
H494 H 0.89935 0.12197 0.35033 0.0
H495 H 0.88512 0.99039 0.36786 0.0
H496 H 0.92156 0.97872 0.433 0.0
H497 H 0.97207 0.07349 0.40665 0.0
C498 C 0.89324 0.09801 0.2604 0.0
C499 C 0.86608 0.08462 0.23689 0.0
C500 C 0.8517 0.05389 0.25176 0.0
C501 C 0.86436 0.0365 0.28944 0.0
C502 C 0.89113 0.0504 0.31194 0.0
C503 C 0.90523 0.08057 0.29814 0.0
C504 C 0.93326 0.0904 0.32861 0.0
C505 C 0.96755 0.09245 0.31397 0.0
C506 C 0.9244 0.12356 0.34035 0.0
C507 C 0.93269 0.06104 0.36173 0.0
C508 C 0.90847 0.03806 0.35131 0.0
C509 C 0.904 0.00829 0.37647 0.0
C510 C 0.92485 0.00183 0.41329 0.0
C511 C 0.9494 0.02529 0.42474 0.0
C512 C 0.95319 0.05533 0.39869 0.0
H513 H 0.33057 0.40831 0.63579 0.0
H514 H 0.42736 0.35659 0.64738 0.0
H515 H 0.44516 0.3726 0.71199 0.0
H516 H 0.36127 0.47629 0.68566 0.0
H517 H 0.32475 0.47646 0.70954 0.0
H518 H 0.32059 0.4632 0.66278 0.0
H519 H 0.29597 0.40665 0.69198 0.0
H520 H 0.30001 0.41973 0.73879 0.0
H521 H 0.31983 0.38108 0.73485 0.0
H522 H 0.45193 0.39297 0.77667 0.0
H523 H 0.4458 0.41379 0.83716 0.0
H524 H 0.34357 0.44924 0.78467 0.0
C525 C 0.35548 0.40014 0.65181 0.0
C526 C 0.37757 0.38133 0.63596 0.0
C527 C 0.41013 0.37166 0.65814 0.0
C528 C 0.42045 0.38044 0.69513 0.0
C529 C 0.3979 0.39871 0.70985 0.0
C530 C 0.36603 0.4083 0.68896 0.0
C531 C 0.34598 0.42644 0.71212 0.0
C532 C 0.33767 0.46275 0.69128 0.0
C533 C 0.31353 0.40733 0.71989 0.0
C534 C 0.37143 0.42528 0.74947 0.0
C535 C 0.40139 0.40952 0.74745 0.0
C536 C 0.4286 0.4054 0.77853 0.0
C537 C 0.42496 0.41742 0.81268 0.0
C538 C 0.39421 0.43305 0.81563 0.0
C539 C 0.36727 0.43713 0.7834 0.0
H540 H 0.6708 0.65107 0.40729 0.0
H541 H 0.57258 0.62856 0.44157 0.0
H542 H 0.55507 0.60262 0.38277 0.0
H543 H 0.64206 0.66637 0.29939 0.0
H544 H 0.67926 0.64587 0.29107 0.0
H545 H 0.68185 0.66732 0.33215 0.0
H546 H 0.70539 0.61297 0.37915 0.0
H547 H 0.7028 0.5914 0.33833 0.0
H548 H 0.68148 0.5749 0.37871 0.0
H549 H 0.55016 0.57513 0.32311 0.0
H550 H 0.55993 0.54454 0.2708 0.0
H551 H 0.66237 0.58273 0.27781 0.0
C552 C 0.64528 0.64151 0.40169 0.0
C553 C 0.62276 0.64219 0.42838 0.0
C554 C 0.58999 0.62846 0.42108 0.0
C555 C 0.57983 0.61385 0.38775 0.0
C556 C 0.60286 0.61301 0.36223 0.0
C557 C 0.63499 0.62637 0.36893 0.0
C558 C 0.65627 0.619 0.3396 0.0
C559 C 0.66539 0.65158 0.31403 0.0
C560 C 0.68836 0.59834 0.36019 0.0
C561 C 0.6315 0.5986 0.31605 0.0
C562 C 0.60056 0.59604 0.32892 0.0
C563 C 0.57417 0.57725 0.31254 0.0
C564 C 0.57986 0.56006 0.28282 0.0
C565 C 0.61185 0.56136 0.27043 0.0
C566 C 0.63766 0.58139 0.2868 0.0
H567 H 0.89046 0.08514 0.90088 0.0
H568 H 0.82135 0.16436 0.83419 0.0
H569 H 0.84421 0.15939 0.77451 0.0
H570 H 0.96117 0.10987 0.85484 0.0
H571 H 0.9755 0.06785 0.85508 0.0
H572 H 0.95214 0.07589 0.89207 0.0
H573 H 0.90781 0.03162 0.87332 0.0
H574 H 0.93115 0.02329 0.8364 0.0
H575 H 0.88679 0.03512 0.82324 0.0
H576 H 0.87744 0.1489 0.72341 0.0
H577 H 0.91713 0.13204 0.68357 0.0
H578 H 0.96353 0.05825 0.78287 0.0
C579 C 0.88002 0.1013 0.87366 0.0
C580 C 0.85403 0.12506 0.87215 0.0
C581 C 0.84089 0.14563 0.83593 0.0
C582 C 0.85384 0.14313 0.80192 0.0
C583 C 0.87974 0.11976 0.80455 0.0
C584 C 0.89251 0.099 0.83938 0.0
C585 C 0.9209 0.07655 0.8344 0.0
C586 C 0.9544 0.08294 0.86065 0.0
C587 C 0.91106 0.03945 0.8423 0.0
C588 C 0.92258 0.08848 0.79152 0.0
C589 C 0.89856 0.11333 0.77484 0.0
C590 C 0.89602 0.12909 0.73597 0.0
C591 C 0.9186 0.11917 0.7135 0.0
C592 C 0.94338 0.09357 0.72984 0.0
C593 C 0.94513 0.07803 0.76943 0.0
H594 H 0.37362 0.40909 0.25422 0.0
H595 H 0.4549 0.33911 0.31396 0.0
H596 H 0.48761 0.35727 0.26071 0.0
H597 H 0.38091 0.39918 0.15365 0.0
H598 H 0.37161 0.44305 0.13493 0.0
H599 H 0.35438 0.42231 0.17677 0.0
H600 H 0.38155 0.46828 0.21487 0.0
H601 H 0.39966 0.48772 0.17307 0.0
H602 H 0.42675 0.47471 0.21963 0.0
H603 H 0.51313 0.38509 0.2034 0.0
H604 H 0.52908 0.4197 0.14436 0.0
H605 H 0.43074 0.47046 0.11974 0.0
C606 C 0.39804 0.39719 0.25578 0.0
C607 C 0.41173 0.37275 0.28851 0.0
C608 C 0.44406 0.35823 0.2896 0.0
C609 C 0.46276 0.36821 0.25933 0.0
C610 C 0.4488 0.39265 0.22787 0.0
C611 C 0.41712 0.40685 0.22568 0.0
C612 C 0.40858 0.43344 0.18913 0.0
C613 C 0.377 0.42388 0.16201 0.0
C614 C 0.40387 0.46808 0.19983 0.0
C615 C 0.44046 0.43198 0.17127 0.0
C616 C 0.46335 0.40833 0.19423 0.0
C617 C 0.49529 0.40346 0.18497 0.0
C618 C 0.50418 0.42335 0.15145 0.0
C619 C 0.48115 0.44769 0.12736 0.0
C620 C 0.44874 0.45177 0.13732 0.0
H621 H 0.10832 0.88448 0.80938 0.0
H622 H 0.17481 0.96641 0.83432 0.0
H623 H 0.15296 0.99867 0.76853 0.0
H624 H 0.11728 0.89128 0.70875 0.0
H625 H 0.07356 0.88133 0.69258 0.0
H626 H 0.09405 0.86489 0.74174 0.0
H627 H 0.04644 0.89109 0.76918 0.0
H628 H 0.02576 0.90746 0.72004 0.0
H629 H 0.03693 0.93533 0.75465 0.0
H630 H 0.12263 0.02252 0.70069 0.0
H631 H 0.08803 0.03507 0.63448 0.0
H632 H 0.04279 0.9368 0.65336 0.0
C633 C 0.11812 0.90929 0.80105 0.0
C634 C 0.1432 0.92302 0.8269 0.0
C635 C 0.15578 0.95536 0.81479 0.0
C636 C 0.14342 0.9739 0.7776 0.0
C637 C 0.11867 0.95963 0.75284 0.0
C638 C 0.10628 0.928 0.76397 0.0
C639 C 0.08011 0.9182 0.73164 0.0
C640 C 0.09198 0.88708 0.71785 0.0
C641 C 0.04525 0.91271 0.74467 0.0
C642 C 0.07972 0.94924 0.70056 0.0
C643 C 0.1019 0.97299 0.71346 0.0
C644 C 0.10526 0.00408 0.69023 0.0
C645 C 0.0854 0.01105 0.65281 0.0
C646 C 0.06268 0.98697 0.63904 0.0
C647 C 0.06006 0.95562 0.66317 0.0
loop_
_geom_bond_atom_site_label_1
_geom_bond_atom_site_label_2
_geom_bond_distance
_geom_bond_site_symmetry_2
_ccdc_geom_bond_type
C0 C1 1.386 . S
C0 C2 1.397 . S
C0 H24 0.931 . S
C1 C0 1.386 . S
C1 C5 1.397 . S
C2 C0 1.397 . S
C2 C3 1.384 . S
C2 H25 0.930 . S
C3 C2 1.384 . S
C3 C4 1.377 . S
C3 C6 1.481 . S
C4 C3 1.377 . S
C4 C5 1.389 . S
C4 H26 0.929 . S
C5 C1 1.397 . S
C5 C4 1.389 . S
C5 H27 0.931 . S
C6 C3 1.481 . S
C6 C7 1.387 . S
C6 C11 1.390 1_556 S
C7 C6 1.387 . S
C7 C8 1.401 1_556 S
C7 H28 0.930 . S
C8 C7 1.401 1_554 S
C8 C9 1.376 . S
C8 C17 1.511 . S
C9 C8 1.376 . S
C9 C10 1.392 . S
C9 H30 0.931 . S
C10 C9 1.392 . S
C10 C11 1.361 . S
C10 C12 1.500 . S
C11 C6 1.390 1_554 S
C11 C10 1.361 . S
C11 H29 0.931 . S
C12 C10 1.500 . S
C12 C13 1.371 . S
C12 C14 1.365 . S
C13 C12 1.371 . S
C13 C23 1.386 . S
C13 H31 0.931 . S
C14 C12 1.365 . S
C14 C15 1.409 . S
C14 H32 0.929 . S
C15 C14 1.409 . S
C15 C16 1.380 . S
C15 H33 0.930 . S
C16 C15 1.380 . S
C16 C23 1.357 . S
C17 C8 1.511 . S
C17 C18 1.340 . S
C17 C19 1.371 . S
C18 C17 1.340 . S
C18 C22 1.394 . S
C18 H34 0.931 1_554 S
C19 C17 1.371 . S
C19 C20 1.392 . S
C19 H35 0.931 . S
C20 C19 1.392 . S
C20 C21 1.331 . S
C20 H38 0.932 . S
C21 C20 1.331 . S
C21 C22 1.336 . S
C22 C18 1.394 . S
C22 C21 1.336 . S
C22 H37 0.929 1_554 S
C23 C13 1.386 . S
C23 C16 1.357 . S
C23 H36 0.928 . S
H24 C0 0.931 . S
H25 C2 0.930 . S
H26 C4 0.929 . S
H27 C5 0.931 . S
H28 C7 0.930 . S
H29 C11 0.931 . S
H30 C9 0.931 . S
H31 C13 0.931 . S
H32 C14 0.929 . S
H33 C15 0.930 . S
H34 C18 0.931 1_556 S
H35 C19 0.931 . S
H36 C23 0.928 . S
H37 C22 0.929 1_556 S
H38 C20 0.932 . S
C39 C40 1.386 . S
C39 C41 1.397 . S
C39 H63 0.931 . S
C40 C39 1.386 . S
C40 C44 1.397 . S
C41 C39 1.397 . S
C41 C42 1.384 . S
C41 H64 0.930 . S
C42 C41 1.384 . S
C42 C43 1.377 . S
C42 C45 1.481 . S
C43 C42 1.377 . S
C43 C44 1.389 . S
C43 H65 0.929 . S
C44 C40 1.397 . S
C44 C43 1.389 . S
C44 H66 0.931 . S
C45 C42 1.481 . S
C45 C46 1.387 . S
C45 C50 1.390 . S
C46 C45 1.387 . S
C46 C47 1.401 . S
C46 H67 0.930 . S
C47 C46 1.401 . S
C47 C48 1.376 . S
C47 C56 1.511 . S
C48 C47 1.376 . S
C48 C49 1.392 . S
C48 H69 0.931 . S
C49 C48 1.392 . S
C49 C50 1.361 . S
C49 C51 1.500 . S
C50 C45 1.390 . S
C50 C49 1.361 . S
C50 H68 0.931 . S
C51 C49 1.500 . S
C51 C52 1.371 . S
C51 C53 1.365 . S
C52 C51 1.371 . S
C52 C62 1.386 . S
C52 H70 0.931 . S
C53 C51 1.365 . S
C53 C54 1.409 . S
C53 H71 0.929 . S
C54 C53 1.409 . S
C54 C55 1.380 . S
C54 H72 0.930 . S
C55 C54 1.380 . S
C55 C62 1.357 . S
C56 C47 1.511 . S
C56 C57 1.341 . S
C56 C58 1.371 . S
C57 C56 1.341 . S
C57 C61 1.394 . S
C57 H73 0.930 . S
C58 C56 1.371 . S
C58 C59 1.392 . S
C58 H74 0.931 . S
C59 C58 1.392 . S
C59 C60 1.331 . S
C59 H77 0.932 . S
C60 C59 1.331 . S
C60 C61 1.336 . S
C61 C57 1.394 . S
C61 C60 1.336 . S
C61 H76 0.929 . S
C62 C52 1.386 . S
C62 C55 1.357 . S
C62 H75 0.928 . S
H63 C39 0.931 . S
H64 C41 0.930 . S
H65 C43 0.929 . S
H66 C44 0.931 . S
H67 C46 0.930 . S
H68 C50 0.931 . S
H69 C48 0.931 . S
H70 C52 0.931 . S
H71 C53 0.929 . S
H72 C54 0.930 . S
H73 C57 0.930 . S
H74 C58 0.931 . S
H75 C62 0.928 . S
H76 C61 0.929 . S
H77 C59 0.932 . S
C78 C79 1.386 . S
C78 C80 1.397 . S
C78 H102 0.931 . S
C79 C78 1.386 . S
C79 C83 1.397 . S
C80 C78 1.397 . S
C80 C81 1.384 . S
C80 H103 0.930 . S
C81 C80 1.384 . S
C81 C82 1.377 . S
C81 C84 1.481 . S
C82 C81 1.377 . S
C82 C83 1.389 . S
C82 H104 0.929 . S
C83 C79 1.397 . S
C83 C82 1.389 . S
C83 H105 0.931 . S
C84 C81 1.481 . S
C84 C85 1.387 . S
C84 C89 1.390 . S
C85 C84 1.387 . S
C85 C86 1.401 . S
C85 H106 0.930 . S
C86 C85 1.401 . S
C86 C87 1.376 . S
C86 C95 1.511 . S
C87 C86 1.376 . S
C87 C88 1.392 . S
C87 H108 0.931 1_554 S
C88 C87 1.392 . S
C88 C89 1.361 . S
C88 C90 1.500 1_554 S
C89 C84 1.390 . S
C89 C88 1.361 . S
C89 H107 0.931 . S
C90 C88 1.500 1_556 S
C90 C91 1.371 . S
C90 C92 1.365 . S
C91 C90 1.371 . S
C91 C101 1.386 . S
C91 H109 0.931 . S
C92 C90 1.365 . S
C92 C93 1.409 . S
C92 H110 0.929 . S
C93 C92 1.409 . S
C93 C94 1.380 . S
C93 H111 0.930 . S
C94 C93 1.380 . S
C94 C101 1.357 . S
C95 C86 1.511 . S
C95 C96 1.341 . S
C95 C97 1.371 1_554 S
C96 C95 1.341 . S
C96 C100 1.394 . S
C96 H112 0.930 . S
C97 C95 1.371 1_556 S
C97 C98 1.392 . S
C97 H113 0.931 . S
C98 C97 1.392 . S
C98 C99 1.331 1_556 S
C98 H116 0.932 . S
C99 C98 1.331 1_554 S
C99 C100 1.336 . S
C100 C96 1.394 . S
C100 C99 1.336 . S
C100 H115 0.929 . S
C101 C91 1.386 . S
C101 C94 1.357 . S
C101 H114 0.928 . S
H102 C78 0.931 . S
H103 C80 0.930 . S
H104 C82 0.929 . S
H105 C83 0.931 . S
H106 C85 0.930 . S
H107 C89 0.931 . S
H108 C87 0.931 1_556 S
H109 C91 0.931 . S
H110 C92 0.929 . S
H111 C93 0.930 . S
H112 C96 0.930 . S
H113 C97 0.931 . S
H114 C101 0.928 . S
H115 C100 0.929 . S
H116 C98 0.932 . S
C117 C118 1.386 . S
C117 C119 1.397 . S
C117 H141 0.931 . S
C118 C117 1.386 . S
C118 C122 1.397 . S
C119 C117 1.397 . S
C119 C120 1.384 . S
C119 H142 0.930 . S
C120 C119 1.384 . S
C120 C121 1.377 . S
C120 C123 1.481 . S
C121 C120 1.377 . S
C121 C122 1.389 . S
C121 H143 0.929 . S
C122 C118 1.397 . S
C122 C121 1.389 . S
C122 H144 0.931 . S
C123 C120 1.481 . S
C123 C124 1.387 . S
C123 C128 1.390 . S
C124 C123 1.387 . S
C124 C125 1.401 . S
C124 H145 0.930 . S
C125 C124 1.401 . S
C125 C126 1.376 . S
C125 C134 1.511 . S
C126 C125 1.376 . S
C126 C127 1.392 . S
C126 H147 0.931 . S
C127 C126 1.392 . S
C127 C128 1.361 . S
C127 C129 1.500 . S
C128 C123 1.390 . S
C128 C127 1.361 . S
C128 H146 0.931 . S
C129 C127 1.500 . S
C129 C130 1.371 . S
C129 C131 1.365 . S
C130 C129 1.371 . S
C130 C140 1.386 . S
C130 H148 0.931 . S
C131 C129 1.365 . S
C131 C132 1.409 . S
C131 H149 0.929 . S
C132 C131 1.409 . S
C132 C133 1.380 . S
C132 H150 0.930 . S
C133 C132 1.380 . S
C133 C140 1.357 . S
C134 C125 1.511 . S
C134 C135 1.341 . S
C134 C136 1.371 . S
C135 C134 1.341 . S
C135 C139 1.394 . S
C135 H151 0.930 . S
C136 C134 1.371 . S
C136 C137 1.392 . S
C136 H152 0.931 . S
C137 C136 1.392 . S
C137 C138 1.331 . S
C137 H155 0.932 . S
C138 C137 1.331 . S
C138 C139 1.336 . S
C139 C135 1.394 . S
C139 C138 1.336 . S
C139 H154 0.929 . S
C140 C130 1.386 . S
C140 C133 1.357 . S
C140 H153 0.928 . S
H141 C117 0.931 . S
H142 C119 0.930 . S
H143 C121 0.929 . S
H144 C122 0.931 . S
H145 C124 0.930 . S
H146 C128 0.931 . S
H147 C126 0.931 . S
H148 C130 0.931 . S
H149 C131 0.929 . S
H150 C132 0.930 . S
H151 C135 0.930 . S
H152 C136 0.931 . S
H153 C140 0.928 . S
H154 C139 0.929 . S
H155 C137 0.932 . S
Eu156 N185 2.600 . S
Eu156 N191 2.562 . S
Eu156 O200 2.462 . S
Eu156 O201 2.373 . S
Eu156 O203 2.432 . S
Eu156 O204 2.291 1_565 S
Eu156 O208 2.335 1_455 S
Eu156 O211 2.372 1_455 S
Eu156 C220 2.787 . S
C157 N158 1.365 . S
C157 C160 1.405 . S
C157 C164 1.448 . S
N158 C157 1.365 . S
N158 C161 1.301 1_655 S
N158 Eu167 2.600 . S
C159 C161 1.398 1_655 S
C159 C162 1.367 . S
C159 H179 0.931 1_655 S
C160 C157 1.405 . S
C160 C162 1.403 . S
C160 C166 1.439 . S
C161 N158 1.301 1_455 S
C161 C159 1.398 1_455 S
C161 H172 0.948 . S
C162 C159 1.367 . S
C162 C160 1.403 . S
C162 H183 0.929 . S
C163 C164 1.430 . S
C163 C165 1.387 . S
C163 C169 1.404 . S
C164 C157 1.448 . S
C164 C163 1.430 . S
C164 N168 1.351 . S
C165 C163 1.387 . S
C165 C166 1.374 . S
C165 H180 0.931 . S
C166 C160 1.439 . S
C166 C165 1.374 . S
C166 H181 0.931 . S
Eu167 N158 2.600 . S
Eu167 N168 2.562 . S
Eu167 O202 2.335 1_655 S
Eu167 O205 2.372 1_655 S
Eu167 O206 2.462 . S
Eu167 O207 2.373 . S
Eu167 O209 2.432 . S
Eu167 O210 2.291 1_545 S
Eu167 C231 2.787 . S
N168 C164 1.351 . S
N168 Eu167 2.562 . S
N168 C170 1.325 . S
C169 C163 1.404 . S
C169 C171 1.366 . S
C169 H177 0.930 . S
C170 N168 1.325 . S
C170 C171 1.416 . S
C170 H176 0.929 . S
C171 C169 1.366 . S
C171 C170 1.416 . S
C171 H173 0.930 . S
H172 C161 0.948 . S
H173 C171 0.930 . S
H174 C189 0.930 1_655 S
H175 C196 0.930 . S
H176 C170 0.929 . S
H177 C169 0.930 . S
H178 C192 0.929 . S
H179 C159 0.931 1_455 S
H180 C165 0.931 . S
H181 C166 0.931 . S
H182 C187 0.931 1_655 S
H183 C162 0.929 . S
H184 C195 0.930 . S
N185 Eu156 2.600 . S
N185 C186 1.365 . S
N185 C189 1.319 . S
C186 N185 1.365 . S
C186 C188 1.405 . S
C186 C194 1.448 . S
C187 H182 0.931 1_455 S
C187 C189 1.397 . S
C187 C190 1.367 . S
C188 C186 1.405 . S
C188 C190 1.403 . S
C188 C221 1.439 . S
C189 H174 0.930 1_455 S
C189 N185 1.319 . S
C189 C187 1.397 . S
C190 C187 1.367 . S
C190 C188 1.403 . S
C190 H197 0.929 . S
N191 Eu156 2.562 . S
N191 C192 1.325 . S
N191 C194 1.351 . S
C192 H178 0.929 . S
C192 N191 1.325 . S
C192 C196 1.416 . S
C193 C194 1.430 . S
C193 C195 1.404 . S
C193 C222 1.387 . S
C194 C186 1.448 . S
C194 N191 1.351 . S
C194 C193 1.430 . S
C195 H184 0.930 . S
C195 C193 1.404 . S
C195 C196 1.366 . S
C196 H175 0.930 . S
C196 C192 1.416 . S
C196 C195 1.366 . S
H197 C190 0.929 . S
H198 C221 0.931 . S
H199 C222 0.931 . S
O200 Eu156 2.462 . S
O200 C220 1.252 . S
O201 Eu156 2.373 . S
O201 C212 1.249 . S
O202 Eu167 2.335 1_455 S
O202 C212 1.264 1_545 S
O203 Eu156 2.432 . S
O203 C220 1.268 . S
O204 Eu156 2.291 1_545 S
O204 C219 1.255 . S
O205 Eu167 2.372 1_455 S
O205 C219 1.257 . S
O206 Eu167 2.462 . S
O206 C231 1.252 . S
O207 Eu167 2.373 . S
O207 C223 1.249 . S
O208 Eu156 2.335 1_655 S
O208 C223 1.264 1_565 S
O209 Eu167 2.432 . S
O209 C231 1.268 . S
O210 Eu167 2.291 1_565 S
O210 C230 1.255 . S
O211 Eu156 2.372 1_655 S
O211 C230 1.257 . S
C212 O201 1.249 . S
C212 O202 1.264 1_565 S
C213 C216 1.382 . S
C213 C218 1.390 . S
C213 C220 1.506 . S
C214 C215 1.398 . S
C214 C218 1.392 . S
C215 C214 1.398 . S
C215 C217 1.372 . S
C215 H232 0.931 . S
C216 C213 1.382 . S
C216 C217 1.390 . S
C216 H233 0.931 . S
C217 C215 1.372 . S
C217 C216 1.390 . S
C217 H234 0.929 . S
C218 C213 1.390 . S
C218 C214 1.392 . S
C218 H235 0.930 . S
C219 O204 1.255 . S
C219 O205 1.257 . S
C220 Eu156 2.787 . S
C220 O200 1.252 . S
C220 O203 1.268 . S
C220 C213 1.506 . S
C221 C188 1.439 . S
C221 H198 0.931 . S
C221 C222 1.374 . S
C222 C193 1.387 . S
C222 H199 0.931 . S
C222 C221 1.374 . S
C223 O207 1.249 . S
C223 O208 1.264 1_545 S
C224 C227 1.382 . S
C224 C228 1.390 . S
C224 C231 1.506 . S
C225 C226 1.398 . S
C225 C228 1.392 . S
C226 C225 1.398 . S
C226 C229 1.372 . S
C226 H236 0.931 . S
C227 C224 1.382 . S
C227 C229 1.390 . S
C227 H237 0.931 . S
C228 C224 1.390 . S
C228 C225 1.392 . S
C228 H238 0.930 . S
C229 C226 1.372 . S
C229 C227 1.390 . S
C229 H239 0.929 . S
C230 O210 1.255 . S
C230 O211 1.257 . S
C231 Eu167 2.787 . S
C231 O206 1.252 . S
C231 O209 1.268 . S
C231 C224 1.506 . S
H232 C215 0.931 . S
H233 C216 0.931 . S
H234 C217 0.929 . S
H235 C218 0.930 . S
H236 C226 0.931 . S
H237 C227 0.931 . S
H238 C228 0.930 . S
H239 C229 0.929 . S
Eu240 N269 2.600 . S
Eu240 N275 2.562 1_556 S
Eu240 O284 2.462 . S
Eu240 O285 2.373 1_556 S
Eu240 O287 2.432 . S
Eu240 O288 2.291 1_556 S
Eu240 O292 2.335 . S
Eu240 O295 2.380 . S
Eu240 C304 2.787 . S
C241 N242 1.365 . S
C241 C244 1.405 . S
C241 C248 1.448 . S
N242 C241 1.365 . S
N242 C245 1.319 . S
N242 Eu251 2.600 . S
C243 C245 1.397 . S
C243 C246 1.367 . S
C243 H263 0.931 . S
C244 C241 1.405 . S
C244 C246 1.403 . S
C244 C250 1.439 . S
C245 N242 1.319 . S
C245 C243 1.397 . S
C245 H256 0.930 . S
C246 C243 1.367 . S
C246 C244 1.403 . S
C246 H267 0.929 . S
C247 C248 1.430 . S
C247 C249 1.387 . S
C247 C253 1.404 . S
C248 C241 1.448 . S
C248 C247 1.430 . S
C248 N252 1.351 . S
C249 C247 1.387 . S
C249 C250 1.374 . S
C249 H264 0.931 . S
C250 C244 1.439 . S
C250 C249 1.374 . S
C250 H265 0.931 . S
Eu251 N242 2.600 . S
Eu251 N252 2.562 . S
Eu251 O286 2.335 . S
Eu251 O289 2.372 . S
Eu251 O290 2.462 . S
Eu251 O291 2.373 1_554 S
Eu251 O293 2.432 . S
Eu251 O294 2.291 . S
Eu251 C315 2.787 . S
N252 C248 1.351 . S
N252 Eu251 2.562 . S
N252 C254 1.325 . S
C253 C247 1.404 . S
C253 C255 1.366 . S
C253 H261 0.930 . S
C254 N252 1.325 . S
C254 C255 1.416 . S
C254 H260 0.929 . S
C255 C253 1.366 . S
C255 C254 1.416 . S
C255 H257 0.930 . S
H256 C245 0.930 . S
H257 C255 0.930 . S
H258 C273 0.930 . S
H259 C280 0.930 . S
H260 C254 0.929 . S
H261 C253 0.930 . S
H262 C276 0.929 . S
H263 C243 0.931 . S
H264 C249 0.931 . S
H265 C250 0.931 . S
H266 C271 0.931 . S
H267 C246 0.929 . S
H268 C279 0.930 . S
N269 Eu240 2.600 . S
N269 C270 1.365 1_556 S
N269 C273 1.319 . S
C270 N269 1.365 1_554 S
C270 C272 1.405 . S
C270 C278 1.448 . S
C271 H266 0.931 . S
C271 C273 1.397 . S
C271 C274 1.367 1_556 S
C272 C270 1.405 . S
C272 C274 1.403 . S
C272 C305 1.439 . S
C273 H258 0.930 . S
C273 N269 1.319 . S
C273 C271 1.397 . S
C274 C271 1.367 1_554 S
C274 C272 1.403 . S
C274 H281 0.929 . S
N275 Eu240 2.562 1_554 S
N275 C276 1.325 . S
N275 C278 1.351 . S
C276 H262 0.929 . S
C276 N275 1.325 . S
C276 C280 1.416 . S
C277 C278 1.430 . S
C277 C279 1.404 . S
C277 C306 1.387 . S
C278 C270 1.448 . S
C278 N275 1.351 . S
C278 C277 1.430 . S
C279 H268 0.930 . S
C279 C277 1.404 . S
C279 C280 1.366 . S
C280 H259 0.930 . S
C280 C276 1.416 . S
C280 C279 1.366 . S
H281 C274 0.929 . S
H282 C305 0.931 . S
H283 C306 0.931 . S
O284 Eu240 2.462 . S
O284 C304 1.252 . S
O285 Eu240 2.373 1_554 S
O285 C296 1.249 . S
O286 Eu251 2.335 . S
O286 C296 1.264 . S
O287 Eu240 2.432 . S
O287 C304 1.268 . S
O288 Eu240 2.291 1_554 S
O288 C303 1.255 . S
O289 Eu251 2.372 . S
O289 C303 1.257 . S
O290 Eu251 2.462 . S
O290 C315 1.252 . S
O291 Eu251 2.373 1_556 S
O291 C307 1.249 . S
O292 Eu240 2.335 . S
O292 C307 1.264 . S
O293 Eu251 2.432 . S
O293 C315 1.268 . S
O294 Eu251 2.291 . S
O294 C314 1.255 . S
O295 Eu240 2.380 . S
O295 C314 1.239 1_556 S
C296 O285 1.249 . S
C296 O286 1.264 . S
C297 C300 1.382 . S
C297 C302 1.390 . S
C297 C304 1.506 . S
C298 C299 1.398 . S
C298 C302 1.392 . S
C299 C298 1.398 . S
C299 C301 1.372 . S
C299 H316 0.931 . S
C300 C297 1.382 . S
C300 C301 1.390 . S
C300 H317 0.931 . S
C301 C299 1.372 . S
C301 C300 1.390 . S
C301 H318 0.929 . S
C302 C297 1.390 . S
C302 C298 1.392 . S
C302 H319 0.930 . S
C303 O288 1.255 . S
C303 O289 1.257 . S
C304 Eu240 2.787 . S
C304 O284 1.252 . S
C304 O287 1.268 . S
C304 C297 1.506 . S
C305 C272 1.439 . S
C305 H282 0.931 . S
C305 C306 1.374 . S
C306 C277 1.387 . S
C306 H283 0.931 . S
C306 C305 1.374 . S
C307 O291 1.249 . S
C307 O292 1.264 . S
C308 C311 1.382 . S
C308 C312 1.390 . S
C308 C315 1.506 . S
C309 C310 1.398 . S
C309 C312 1.392 . S
C310 C309 1.398 . S
C310 C313 1.372 . S
C310 H320 0.931 . S
C311 C308 1.382 . S
C311 C313 1.390 . S
C311 H321 0.931 . S
C312 C308 1.390 . S
C312 C309 1.392 . S
C312 H322 0.930 . S
C313 C310 1.372 . S
C313 C311 1.390 . S
C313 H323 0.929 . S
C314 O294 1.255 . S
C314 O295 1.239 1_554 S
C315 Eu251 2.787 . S
C315 O290 1.252 . S
C315 O293 1.268 . S
C315 C308 1.506 . S
H316 C299 0.931 . S
H317 C300 0.931 . S
H318 C301 0.929 . S
H319 C302 0.930 . S
H320 C310 0.931 . S
H321 C311 0.931 . S
H322 C312 0.930 . S
H323 C313 0.929 . S
H324 C336 0.930 . S
H325 C338 0.930 . S
H326 C339 0.930 . S
H327 C343 0.959 . S
H328 C343 0.959 . S
H329 C343 0.961 . S
H330 C344 0.960 . S
H331 C344 0.961 . S
H332 C344 0.959 . S
H333 C347 0.929 . S
H334 C348 0.931 . S
H335 C350 0.930 . S
C336 H324 0.930 . S
C336 C337 1.399 . S
C336 C341 1.399 . S
C337 C336 1.399 . S
C337 C338 1.376 . S
C338 H325 0.930 . S
C338 C337 1.376 . S
C338 C339 1.388 . S
C339 H326 0.930 . S
C339 C338 1.388 . S
C339 C340 1.390 . S
C340 C339 1.390 . S
C340 C341 1.394 . S
C340 C346 1.465 . S
C341 C336 1.399 . S
C341 C340 1.394 . S
C341 C342 1.516 . S
C342 C341 1.516 . S
C342 C343 1.502 . S
C342 C344 1.561 . S
C342 C345 1.526 . S
C343 H327 0.959 . S
C343 H328 0.959 . S
C343 H329 0.961 . S
C343 C342 1.502 . S
C344 H330 0.960 . S
C344 H331 0.961 . S
C344 H332 0.959 . S
C344 C342 1.561 . S
C345 C342 1.526 . S
C345 C346 1.396 . S
C345 C350 1.390 . S
C346 C340 1.465 . S
C346 C345 1.396 . S
C346 C347 1.399 . S
C347 H333 0.929 . S
C347 C346 1.399 . S
C347 C348 1.385 . S
C348 H334 0.931 . S
C348 C347 1.385 . S
C348 C349 1.389 . S
C349 C348 1.389 . S
C349 C350 1.387 . S
C350 H335 0.930 . S
C350 C345 1.390 . S
C350 C349 1.387 . S
H351 C363 0.930 1_556 S
H352 C365 0.930 . S
H353 C366 0.930 . S
H354 C370 0.959 . S
H355 C370 0.959 . S
H356 C370 0.961 . S
H357 C371 0.960 . S
H358 C371 0.961 . S
H359 C371 0.959 . S
H360 C374 0.929 . S
H361 C375 0.931 . S
H362 C377 0.930 1_556 S
C363 H351 0.930 1_554 S
C363 C364 1.399 . S
C363 C368 1.399 . S
C364 C363 1.399 . S
C364 C365 1.376 . S
C365 H352 0.930 . S
C365 C364 1.376 . S
C365 C366 1.388 . S
C366 H353 0.930 . S
C366 C365 1.388 . S
C366 C367 1.390 . S
C367 C366 1.390 . S
C367 C368 1.394 . S
C367 C373 1.465 . S
C368 C363 1.399 . S
C368 C367 1.394 . S
C368 C369 1.516 1_554 S
C369 C368 1.516 1_556 S
C369 C370 1.502 . S
C369 C371 1.561 . S
C369 C372 1.526 1_556 S
C370 H354 0.959 . S
C370 H355 0.959 . S
C370 H356 0.961 . S
C370 C369 1.502 . S
C371 H357 0.960 . S
C371 H358 0.961 . S
C371 H359 0.959 . S
C371 C369 1.561 . S
C372 C369 1.526 1_554 S
C372 C373 1.396 . S
C372 C377 1.390 . S
C373 C367 1.465 . S
C373 C372 1.396 . S
C373 C374 1.399 . S
C374 H360 0.929 . S
C374 C373 1.399 . S
C374 C375 1.385 . S
C375 H361 0.931 . S
C375 C374 1.385 . S
C375 C376 1.389 . S
C376 C375 1.389 . S
C376 C377 1.387 . S
C377 H362 0.930 1_554 S
C377 C372 1.390 . S
C377 C376 1.387 . S
H378 C390 0.930 . S
H379 C392 0.930 . S
H380 C393 0.930 . S
H381 C397 0.959 . S
H382 C397 0.959 . S
H383 C397 0.961 . S
H384 C398 0.960 . S
H385 C398 0.961 . S
H386 C398 0.959 . S
H387 C401 0.929 . S
H388 C402 0.931 . S
H389 C404 0.930 . S
C390 H378 0.930 . S
C390 C391 1.399 . S
C390 C395 1.399 . S
C391 C390 1.399 . S
C391 C392 1.376 . S
C392 H379 0.930 . S
C392 C391 1.376 . S
C392 C393 1.388 . S
C393 H380 0.930 . S
C393 C392 1.388 . S
C393 C394 1.390 . S
C394 C393 1.390 . S
C394 C395 1.394 . S
C394 C400 1.465 . S
C395 C390 1.399 . S
C395 C394 1.394 . S
C395 C396 1.516 . S
C396 C395 1.516 . S
C396 C397 1.502 . S
C396 C398 1.561 . S
C396 C399 1.526 . S
C397 H381 0.959 . S
C397 H382 0.959 . S
C397 H383 0.961 . S
C397 C396 1.502 . S
C398 H384 0.960 . S
C398 H385 0.961 . S
C398 H386 0.959 . S
C398 C396 1.561 . S
C399 C396 1.526 . S
C399 C400 1.396 . S
C399 C404 1.390 . S
C400 C394 1.465 . S
C400 C399 1.396 . S
C400 C401 1.399 . S
C401 H387 0.929 . S
C401 C400 1.399 . S
C401 C402 1.385 . S
C402 H388 0.931 . S
C402 C401 1.385 . S
C402 C403 1.389 . S
C403 C402 1.389 . S
C403 C404 1.387 . S
C404 H389 0.930 . S
C404 C399 1.390 . S
C404 C403 1.387 . S
H405 C417 0.930 . S
H406 C419 0.930 . S
H407 C420 0.930 . S
H408 C424 0.959 . S
H409 C424 0.959 . S
H410 C424 0.961 . S
H411 C425 0.960 . S
H412 C425 0.961 . S
H413 C425 0.959 . S
H414 C428 0.929 . S
H415 C429 0.931 . S
H416 C431 0.930 . S
C417 H405 0.930 . S
C417 C418 1.399 . S
C417 C422 1.399 . S
C418 C417 1.399 . S
C418 C419 1.376 1_554 S
C419 H406 0.930 . S
C419 C418 1.376 1_556 S
C419 C420 1.388 . S
C420 H407 0.930 . S
C420 C419 1.388 . S
C420 C421 1.390 1_556 S
C421 C420 1.390 1_554 S
C421 C422 1.394 . S
C421 C427 1.465 . S
C422 C417 1.399 . S
C422 C421 1.394 . S
C422 C423 1.516 . S
C423 C422 1.516 . S
C423 C424 1.502 . S
C423 C425 1.561 . S
C423 C426 1.526 . S
C424 H408 0.959 . S
C424 H409 0.959 . S
C424 H410 0.961 . S
C424 C423 1.502 . S
C425 H411 0.960 . S
C425 H412 0.961 . S
C425 H413 0.959 . S
C425 C423 1.561 . S
C426 C423 1.526 . S
C426 C427 1.396 . S
C426 C431 1.390 . S
C427 C421 1.465 . S
C427 C426 1.396 . S
C427 C428 1.399 1_554 S
C428 H414 0.929 . S
C428 C427 1.399 1_556 S
C428 C429 1.385 . S
C429 H415 0.931 . S
C429 C428 1.385 . S
C429 C430 1.389 1_556 S
C430 C429 1.389 1_554 S
C430 C431 1.387 . S
C431 H416 0.930 . S
C431 C426 1.390 . S
C431 C430 1.387 . S
H432 C444 0.930 . S
H433 C446 0.930 . S
H434 C447 0.930 . S
H435 C451 0.959 1_565 S
H436 C451 0.959 . S
H437 C451 0.961 . S
H438 C452 0.960 1_545 S
H439 C452 0.961 1_545 S
H440 C452 0.959 . S
H441 C455 0.929 . S
H442 C456 0.931 . S
H443 C458 0.930 . S
C444 H432 0.930 . S
C444 C445 1.399 . S
C444 C449 1.399 . S
C445 C444 1.399 . S
C445 C446 1.376 . S
C446 H433 0.930 . S
C446 C445 1.376 . S
C446 C447 1.388 . S
C447 H434 0.930 . S
C447 C446 1.388 . S
C447 C448 1.390 . S
C448 C447 1.390 . S
C448 C449 1.394 . S
C448 C454 1.465 . S
C449 C444 1.399 . S
C449 C448 1.394 . S
C449 C450 1.516 . S
C450 C449 1.516 . S
C450 C451 1.502 1_565 S
C450 C452 1.561 . S
C450 C453 1.526 . S
C451 H435 0.959 1_545 S
C451 H436 0.959 . S
C451 H437 0.961 . S
C451 C450 1.502 1_545 S
C452 H438 0.960 1_565 S
C452 H439 0.961 1_565 S
C452 H440 0.959 . S
C452 C450 1.561 . S
C453 C450 1.526 . S
C453 C454 1.396 . S
C453 C458 1.390 . S
C454 C448 1.465 . S
C454 C453 1.396 . S
C454 C455 1.399 . S
C455 H441 0.929 . S
C455 C454 1.399 . S
C455 C456 1.385 . S
C456 H442 0.931 . S
C456 C455 1.385 . S
C456 C457 1.389 . S
C457 C456 1.389 . S
C457 C458 1.387 . S
C458 H443 0.930 . S
C458 C453 1.390 . S
C458 C457 1.387 . S
H459 C471 0.930 . S
H460 C473 0.930 . S
H461 C474 0.930 . S
H462 C478 0.959 . S
H463 C478 0.959 . S
H464 C478 0.961 . S
H465 C479 0.960 . S
H466 C479 0.961 . S
H467 C479 0.959 . S
H468 C482 0.929 . S
H469 C483 0.931 . S
H470 C485 0.930 . S
C471 H459 0.930 . S
C471 C472 1.399 . S
C471 C476 1.399 . S
C472 C471 1.399 . S
C472 C473 1.376 . S
C473 H460 0.930 . S
C473 C472 1.376 . S
C473 C474 1.388 . S
C474 H461 0.930 . S
C474 C473 1.388 . S
C474 C475 1.390 . S
C475 C474 1.390 . S
C475 C476 1.394 . S
C475 C481 1.465 . S
C476 C471 1.399 . S
C476 C475 1.394 . S
C476 C477 1.516 . S
C477 C476 1.516 . S
C477 C478 1.502 . S
C477 C479 1.561 . S
C477 C480 1.526 . S
C478 H462 0.959 . S
C478 H463 0.959 . S
C478 H464 0.961 . S
C478 C477 1.502 . S
C479 H465 0.960 . S
C479 H466 0.961 . S
C479 H467 0.959 . S
C479 C477 1.561 . S
C480 C477 1.526 . S
C480 C481 1.396 . S
C480 C485 1.390 . S
C481 C475 1.465 . S
C481 C480 1.396 . S
C481 C482 1.399 . S
C482 H468 0.929 . S
C482 C481 1.399 . S
C482 C483 1.385 . S
C483 H469 0.931 . S
C483 C482 1.385 . S
C483 C484 1.389 . S
C484 C483 1.389 . S
C484 C485 1.387 . S
C485 H470 0.930 . S
C485 C480 1.390 . S
C485 C484 1.387 . S
H486 C498 0.930 . S
H487 C500 0.930 . S
H488 C501 0.930 1_565 S
H489 C505 0.959 . S
H490 C505 0.959 . S
H491 C505 0.961 . S
H492 C506 0.960 . S
H493 C506 0.961 . S
H494 C506 0.959 . S
H495 C509 0.929 . S
H496 C510 0.929 . S
H497 C512 0.930 . S
C498 H486 0.930 . S
C498 C499 1.399 . S
C498 C503 1.399 . S
C499 C498 1.399 . S
C499 C500 1.376 . S
C500 H487 0.930 . S
C500 C499 1.376 . S
C500 C501 1.388 . S
C501 H488 0.930 1_545 S
C501 C500 1.388 . S
C501 C502 1.390 . S
C502 C501 1.390 . S
C502 C503 1.394 . S
C502 C508 1.465 . S
C503 C498 1.399 . S
C503 C502 1.394 . S
C503 C504 1.516 . S
C504 C503 1.516 . S
C504 C505 1.502 . S
C504 C506 1.561 . S
C504 C507 1.526 . S
C505 H489 0.959 . S
C505 H490 0.959 . S
C505 H491 0.961 . S
C505 C504 1.502 . S
C506 H492 0.960 . S
C506 H493 0.961 . S
C506 H494 0.959 . S
C506 C504 1.561 . S
C507 C504 1.526 . S
C507 C508 1.396 . S
C507 C512 1.390 . S
C508 C502 1.465 . S
C508 C507 1.396 . S
C508 C509 1.399 1_545 S
C509 H495 0.929 . S
C509 C508 1.399 1_565 S
C509 C510 1.385 . S
C510 H496 0.929 . S
C510 C509 1.385 . S
C510 C511 1.391 1_565 S
C511 C510 1.391 1_545 S
C511 C512 1.387 . S
C512 H497 0.930 . S
C512 C507 1.390 . S
C512 C511 1.387 . S
H513 C525 0.930 . S
H514 C527 0.930 . S
H515 C528 0.930 . S
H516 C532 0.959 . S
H517 C532 0.959 . S
H518 C532 0.961 . S
H519 C533 0.960 . S
H520 C533 0.961 . S
H521 C533 0.959 . S
H522 C536 0.929 . S
H523 C537 0.931 . S
H524 C539 0.930 . S
C525 H513 0.930 . S
C525 C526 1.399 . S
C525 C530 1.399 . S
C526 C525 1.399 . S
C526 C527 1.376 . S
C527 H514 0.930 . S
C527 C526 1.376 . S
C527 C528 1.388 . S
C528 H515 0.930 . S
C528 C527 1.388 . S
C528 C529 1.390 . S
C529 C528 1.390 . S
C529 C530 1.394 . S
C529 C535 1.465 . S
C530 C525 1.399 . S
C530 C529 1.394 . S
C530 C531 1.516 . S
C531 C530 1.516 . S
C531 C532 1.502 . S
C531 C533 1.561 . S
C531 C534 1.526 . S
C532 H516 0.959 . S
C532 H517 0.959 . S
C532 H518 0.961 . S
C532 C531 1.502 . S
C533 H519 0.960 . S
C533 H520 0.961 . S
C533 H521 0.959 . S
C533 C531 1.561 . S
C534 C531 1.526 . S
C534 C535 1.396 . S
C534 C539 1.390 . S
C535 C529 1.465 . S
C535 C534 1.396 . S
C535 C536 1.399 . S
C536 H522 0.929 . S
C536 C535 1.399 . S
C536 C537 1.385 . S
C537 H523 0.931 . S
C537 C536 1.385 . S
C537 C538 1.389 . S
C538 C537 1.389 . S
C538 C539 1.387 . S
C539 H524 0.930 . S
C539 C534 1.390 . S
C539 C538 1.387 . S
H540 C552 0.930 . S
H541 C554 0.930 . S
H542 C555 0.930 . S
H543 C559 0.959 . S
H544 C559 0.959 . S
H545 C559 0.961 . S
H546 C560 0.960 . S
H547 C560 0.961 . S
H548 C560 0.959 . S
H549 C563 0.929 . S
H550 C564 0.931 . S
H551 C566 0.930 . S
C552 H540 0.930 . S
C552 C553 1.399 . S
C552 C557 1.399 . S
C553 C552 1.399 . S
C553 C554 1.376 . S
C554 H541 0.930 . S
C554 C553 1.376 . S
C554 C555 1.388 . S
C555 H542 0.930 . S
C555 C554 1.388 . S
C555 C556 1.390 . S
C556 C555 1.390 . S
C556 C557 1.394 . S
C556 C562 1.465 . S
C557 C552 1.399 . S
C557 C556 1.394 . S
C557 C558 1.516 . S
C558 C557 1.516 . S
C558 C559 1.502 . S
C558 C560 1.561 . S
C558 C561 1.526 . S
C559 H543 0.959 . S
C559 H544 0.959 . S
C559 H545 0.961 . S
C559 C558 1.502 . S
C560 H546 0.960 . S
C560 H547 0.961 . S
C560 H548 0.959 . S
C560 C558 1.561 . S
C561 C558 1.526 . S
C561 C562 1.396 . S
C561 C566 1.390 . S
C562 C556 1.465 . S
C562 C561 1.396 . S
C562 C563 1.399 . S
C563 H549 0.929 . S
C563 C562 1.399 . S
C563 C564 1.385 . S
C564 H550 0.931 . S
C564 C563 1.385 . S
C564 C565 1.389 . S
C565 C564 1.389 . S
C565 C566 1.387 . S
C566 H551 0.930 . S
C566 C561 1.390 . S
C566 C565 1.387 . S
H567 C579 0.930 . S
H568 C581 0.930 . S
H569 C582 0.930 . S
H570 C586 0.959 . S
H571 C586 0.959 1_565 S
H572 C586 0.964 . S
H573 C587 0.963 . S
H574 C587 0.972 . S
H575 C587 0.955 1_545 S
H576 C590 0.929 . S
H577 C591 0.931 . S
H578 C593 0.930 . S
C579 H567 0.930 . S
C579 C580 1.399 . S
C579 C584 1.399 . S
C580 C579 1.399 . S
C580 C581 1.376 . S
C581 H568 0.930 . S
C581 C580 1.376 . S
C581 C582 1.388 . S
C582 H569 0.930 . S
C582 C581 1.388 . S
C582 C583 1.390 . S
C583 C582 1.390 . S
C583 C584 1.394 . S
C583 C589 1.465 . S
C584 C579 1.399 . S
C584 C583 1.394 . S
C584 C585 1.516 . S
C585 C584 1.516 . S
C585 C586 1.502 . S
C585 C587 1.551 1_545 S
C585 C588 1.526 . S
C586 H570 0.959 . S
C586 H571 0.959 1_545 S
C586 H572 0.964 . S
C586 C585 1.502 . S
C587 H573 0.963 . S
C587 H574 0.972 . S
C587 H575 0.955 1_565 S
C587 C585 1.551 1_565 S
C588 C585 1.526 . S
C588 C589 1.396 . S
C588 C593 1.390 . S
C589 C583 1.465 . S
C589 C588 1.396 . S
C589 C590 1.399 . S
C590 H576 0.929 . S
C590 C589 1.399 . S
C590 C591 1.385 . S
C591 H577 0.931 . S
C591 C590 1.385 . S
C591 C592 1.389 . S
C592 C591 1.389 . S
C592 C593 1.387 . S
C593 H578 0.930 . S
C593 C588 1.390 . S
C593 C592 1.387 . S
H594 C606 0.930 . S
H595 C608 0.930 . S
H596 C609 0.930 . S
H597 C613 0.959 . S
H598 C613 0.959 . S
H599 C613 0.961 . S
H600 C614 0.960 . S
H601 C614 0.961 . S
H602 C614 0.959 . S
H603 C617 0.929 . S
H604 C618 0.931 . S
H605 C620 0.930 . S
C606 H594 0.930 . S
C606 C607 1.399 . S
C606 C611 1.399 . S
C607 C606 1.399 . S
C607 C608 1.376 . S
C608 H595 0.930 . S
C608 C607 1.376 . S
C608 C609 1.388 . S
C609 H596 0.930 . S
C609 C608 1.388 . S
C609 C610 1.390 . S
C610 C609 1.390 . S
C610 C611 1.394 . S
C610 C616 1.465 . S
C611 C606 1.399 . S
C611 C610 1.394 . S
C611 C612 1.516 . S
C612 C611 1.516 . S
C612 C613 1.502 . S
C612 C614 1.561 . S
C612 C615 1.526 . S
C613 H597 0.959 . S
C613 H598 0.959 . S
C613 H599 0.961 . S
C613 C612 1.502 . S
C614 H600 0.960 . S
C614 H601 0.961 . S
C614 H602 0.959 . S
C614 C612 1.561 . S
C615 C612 1.526 . S
C615 C616 1.396 . S
C615 C620 1.390 . S
C616 C610 1.465 . S
C616 C615 1.396 . S
C616 C617 1.399 . S
C617 H603 0.929 . S
C617 C616 1.399 . S
C617 C618 1.385 . S
C618 H604 0.931 . S
C618 C617 1.385 . S
C618 C619 1.389 . S
C619 C618 1.389 . S
C619 C620 1.387 . S
C620 H605 0.930 . S
C620 C615 1.390 . S
C620 C619 1.387 . S
H621 C633 0.930 . S
H622 C635 0.930 . S
H623 C636 0.930 1_545 S
H624 C640 0.959 . S
H625 C640 0.959 . S
H626 C640 0.961 . S
H627 C641 0.960 . S
H628 C641 0.961 . S
H629 C641 0.959 . S
H630 C644 0.929 . S
H631 C645 0.931 . S
H632 C647 0.930 . S
C633 H621 0.930 . S
C633 C634 1.399 . S
C633 C638 1.399 . S
C634 C633 1.399 . S
C634 C635 1.376 . S
C635 H622 0.930 . S
C635 C634 1.376 . S
C635 C636 1.388 . S
C636 H623 0.930 1_565 S
C636 C635 1.388 . S
C636 C637 1.390 . S
C637 C636 1.390 . S
C637 C638 1.394 . S
C637 C643 1.465 . S
C638 C633 1.399 . S
C638 C637 1.394 . S
C638 C639 1.516 . S
C639 C638 1.516 . S
C639 C640 1.502 . S
C639 C641 1.561 . S
C639 C642 1.526 . S
C640 H624 0.959 . S
C640 H625 0.959 . S
C640 H626 0.961 . S
C640 C639 1.502 . S
C641 H627 0.960 . S
C641 H628 0.961 . S
C641 H629 0.959 . S
C641 C639 1.561 . S
C642 C639 1.526 . S
C642 C643 1.396 . S
C642 C647 1.390 . S
C643 C637 1.465 . S
C643 C642 1.396 . S
C643 C644 1.399 1_565 S
C644 H630 0.929 . S
C644 C643 1.399 1_545 S
C644 C645 1.385 . S
C645 H631 0.931 . S
C645 C644 1.385 . S
C645 C646 1.389 1_545 S
C646 C645 1.389 1_565 S
C646 C647 1.387 . S
C647 H632 0.930 . S
C647 C642 1.390 . S
C647 C646 1.387 . S
C349 C219 1.651 . S
C337 C138 1.625 . S
C364 C21 1.635 . S
C376 C314 1.634 . S
C391 C60 1.650 . S
C403 C230 1.652 . S
C418 C99 1.611 . S
C430 C303 1.639 . S
C457 C214 1.359 . S
C445 C16 1.538 . S
C484 C307 1.612 . S
C472 C40 1.596 . S
C499 C79 1.618 . S
C511 C223 1.614 . S
C526 C133 1.536 . S
C538 C298 1.456 . S
C565 C309 1.396 . S
C553 C55 1.536 . S
C592 C225 1.378 . S
C580 C94 1.549 . S
C619 C296 1.613 . S
C607 C118 1.608 . S
C634 C1 1.601 . S
C646 C212 1.612 . S
