# Generated by pormake.
# Topology ftw, (4,12)-cn, num edge types: 1
# Building blocks:
#     Node 0, Type 0, BuildingBlock: MUDLON_clean_linker_0, # of connection points: 4
#     Node 1, Type 0, BuildingBlock: MUDLON_clean_linker_0, # of connection points: 4
#     Node 2, Type 0, BuildingBlock: MUDLON_clean_linker_0, # of connection points: 4
#     Node 3, Type 1, BuildingBlock: EZIPEK_clean_sbu_0, # of connection points: 12
#     Edge 4, Type (0, 1), BuildingBlock: UVAHIK_clean_linker_0, # of connection points: 2
#     Edge 5, Type (0, 1), BuildingBlock: UVAHIK_clean_linker_0, # of connection points: 2
#     Edge 6, Type (0, 1), BuildingBlock: UVAHIK_clean_linker_0, # of connection points: 2
#     Edge 7, Type (0, 1), BuildingBlock: UVAHIK_clean_linker_0, # of connection points: 2
#     Edge 8, Type (0, 1), BuildingBlock: UVAHIK_clean_linker_0, # of connection points: 2
#     Edge 9, Type (0, 1), BuildingBlock: UVAHIK_clean_linker_0, # of connection points: 2
#     Edge 10, Type (0, 1), BuildingBlock: UVAHIK_clean_linker_0, # of connection points: 2
#     Edge 11, Type (0, 1), BuildingBlock: UVAHIK_clean_linker_0, # of connection points: 2
#     Edge 12, Type (0, 1), BuildingBlock: UVAHIK_clean_linker_0, # of connection points: 2
#     Edge 13, Type (0, 1), BuildingBlock: UVAHIK_clean_linker_0, # of connection points: 2
#     Edge 14, Type (0, 1), BuildingBlock: UVAHIK_clean_linker_0, # of connection points: 2
#     Edge 15, Type (0, 1), BuildingBlock: UVAHIK_clean_linker_0, # of connection points: 2
# Relax obj value: 0.079
# Max RMSD: 0.225
# Mean RMSD: 0.171
data_MOF--net-ftw--node1-EZIPEK_clean_sbu_0--node2-MUDLON_clean_linker_0--edge1-UVAHIK_clean_linker_0
_symmetry_space_group_name_H-M    P1
_symmetry_Int_Tables_number       1
_symmetry_cell_setting            triclinic
loop_
_symmetry_equiv_pos_as_xyz
'x, y, z'
_cell_length_a     35.977909
_cell_length_b     38.74142
_cell_length_c     36.352294
_cell_angle_alpha  90.065259
_cell_angle_beta   89.995762
_cell_angle_gamma 89.984475
loop_
_atom_site_label
_atom_site_type_symbol
_atom_site_fract_x
_atom_site_fract_y
_atom_site_fract_z
_atom_type_partial_charge
H0 H 0.98088 0.70449 0.54773 0.0
N1 N 0.04326 0.66859 0.52751 0.0
H2 H 0.97207 0.73735 0.60461 0.0
H3 H 0.09008 0.674 0.58387 0.0
H4 H 0.08161 0.7069 0.6409 0.0
H5 H 0.09159 0.71105 0.49605 0.0
H6 H 0.08289 0.74605 0.44064 0.0
H7 H 0.98068 0.67061 0.48455 0.0
H8 H 0.97174 0.70544 0.42879 0.0
H9 H 0.98234 0.6368 0.55843 0.0
H10 H 0.08059 0.61876 0.49338 0.0
H11 H 0.96929 0.57534 0.55895 0.0
H12 H 0.06618 0.55729 0.49099 0.0
H13 H 0.93182 0.38126 0.56302 0.0
H14 H 0.9376 0.34715 0.61934 0.0
H15 H 0.05462 0.3721 0.62415 0.0
H16 H 0.04874 0.40483 0.56736 0.0
H17 H 0.04879 0.38258 0.50412 0.0
H18 H 0.05691 0.34924 0.44737 0.0
H19 H 0.9433 0.37143 0.417 0.0
H20 H 0.93552 0.40466 0.47387 0.0
H21 H 0.93628 0.466 0.52989 0.0
H22 H 0.94867 0.5279 0.52769 0.0
H23 H 0.06671 0.50656 0.52293 0.0
N24 N -0.01505 0.41461 0.52698 0.0
H25 H 0.05347 0.44501 0.52174 0.0
C26 C 0.03641 0.68701 0.56144 0.0
C27 C 0.00299 0.70489 0.5679 0.0
C28 C -0.00197 0.72375 0.60043 0.0
C29 C 0.0262 0.7249 0.62729 0.0
C30 C 0.05921 0.70631 0.62102 0.0
C31 C 0.0642 0.68765 0.58841 0.0
C32 C 0.03702 0.68814 0.49428 0.0
C33 C 0.06541 0.7097 0.48141 0.0
C34 C 0.0603 0.72975 0.4499 0.0
C35 C 0.0266 0.72854 0.43035 0.0
C36 C -0.00187 0.70666 0.44306 0.0
C37 C 0.00316 0.68683 0.47494 0.0
C38 C 0.03305 0.63248 0.52642 0.0
C39 C 0.00105 0.61968 0.54395 0.0
C40 C -0.00668 0.58425 0.5438 0.0
C41 C 0.01673 0.56078 0.52522 0.0
C42 C 0.04795 0.57405 0.50656 0.0
C43 C 0.0561 0.60934 0.50749 0.0
C44 C -0.01041 0.39585 0.56097 0.0
C45 C 0.95864 0.37939 0.5764 0.0
C46 C 0.96202 0.3601 0.60874 0.0
C47 C -0.00341 0.35688 0.62657 0.0
C48 C 0.02763 0.37359 0.61106 0.0
C49 C 0.02423 0.39272 0.57856 0.0
C50 C -0.00867 0.39587 0.49331 0.0
C51 C 0.02569 0.38033 0.48526 0.0
C52 C 0.03025 0.3612 0.45282 0.0
C53 C 0.00073 0.35764 0.42766 0.0
C54 C 0.96672 0.37395 0.43554 0.0
C55 C 0.96212 0.39277 0.46805 0.0
C56 C -0.00617 0.45089 0.52678 0.0
C57 C 0.96478 0.47488 0.52835 0.0
C58 C 0.97206 0.51034 0.52741 0.0
C59 C 0.00884 0.52276 0.5255 0.0
C60 C 0.03798 0.49839 0.5239 0.0
C61 C 0.03053 0.46291 0.52397 0.0
H62 H 0.45665 0.89103 0.33408 0.0
N63 N 0.50147 0.91542 0.38581 0.0
H64 H 0.39878 0.91645 0.31149 0.0
H65 H 0.46994 0.97585 0.40977 0.0
H66 H 0.41164 1.00114 0.38799 0.0
H67 H 0.5255 0.98097 0.36964 0.0
H68 H 0.58283 0.99636 0.33787 0.0
H69 H 0.55095 0.87291 0.35596 0.0
H70 H 0.60868 0.88827 0.32394 0.0
H71 H 0.46139 0.87704 0.43158 0.0
H72 H 0.55094 0.95134 0.43038 0.0
H73 H 0.46366 0.87609 0.49864 0.0
H74 H 0.55525 0.94838 0.49627 0.0
H75 H 0.47297 0.8836 0.71533 0.0
H76 H 0.41644 0.90387 0.74605 0.0
H77 H 0.41399 0.99267 0.6742 0.0
H78 H 0.47067 0.97321 0.64499 0.0
H79 H 0.53005 0.9799 0.68129 0.0
H80 H 0.58788 0.99717 0.71081 0.0
H81 H 0.62537 0.89117 0.70899 0.0
H82 H 0.56675 0.87394 0.68007 0.0
H83 H 0.49527 0.86044 0.61809 0.0
H84 H 0.49584 0.85856 0.55084 0.0
H85 H 0.52571 0.96679 0.54862 0.0
N86 N 0.51013 0.91398 0.66129 0.0
H87 H 0.52795 0.96743 0.61512 0.0
C88 C 0.46745 0.93137 0.37352 0.0
C89 C 0.44687 0.91505 0.3459 0.0
C90 C 0.41373 0.9295 0.3333 0.0
C91 C 0.40045 0.96068 0.34819 0.0
C92 C 0.42125 0.97722 0.37581 0.0
C93 C 0.45448 0.96272 0.38839 0.0
C94 C 0.53387 0.92558 0.36507 0.0
C95 C 0.54311 0.96051 0.35937 0.0
C96 C 0.57611 0.96933 0.34156 0.0
C97 C 0.60019 0.9435 0.32866 0.0
C98 C 0.59046 0.90867 0.33348 0.0
C99 C 0.55765 0.89986 0.35171 0.0
C100 C 0.50569 0.91414 0.42541 0.0
C101 C 0.4819 0.89268 0.44565 0.0
C102 C 0.48349 0.89197 0.48403 0.0
C103 C 0.50959 0.91226 0.50312 0.0
C104 C 0.53413 0.93304 0.48275 0.0
C105 C 0.5319 0.93441 0.44451 0.0
C106 C 0.47613 0.92647 0.67769 0.0
C107 C 0.46008 0.90738 0.70625 0.0
C108 C 0.42769 0.91891 0.72356 0.0
C109 C 0.41062 0.94988 0.7125 0.0
C110 C 0.42664 0.96893 0.68371 0.0
C111 C 0.4591 0.95751 0.66662 0.0
C112 C 0.5439 0.92537 0.67882 0.0
C113 C 0.55054 0.96029 0.68728 0.0
C114 C 0.58386 0.97023 0.70389 0.0
C115 C 0.61123 0.94554 0.71226 0.0
C116 C 0.60465 0.91075 0.70335 0.0
C117 C 0.57131 0.90085 0.68678 0.0
C118 C 0.51116 0.91398 0.62167 0.0
C119 C 0.50221 0.88357 0.60286 0.0
C120 C 0.50223 0.88271 0.56444 0.0
C121 C 0.51065 0.91258 0.54404 0.0
C122 C 0.51976 0.94305 0.56314 0.0
C123 C 0.52057 0.94362 0.60146 0.0
H124 H 0.45459 0.40706 0.11472 0.0
N125 N 0.50946 0.41742 0.06726 0.0
H126 H 0.39846 0.37255 0.10594 0.0
H127 H 0.48926 0.38359 1.00407 0.0
H128 H 0.43225 0.35123 0.99392 0.0
H129 H 0.55304 0.41112 1.00551 0.0
H130 H 0.60914 0.37586 0.9995 0.0
H131 H 0.54199 0.37957 0.11866 0.0
H132 H 0.59807 0.34409 0.11283 0.0
H133 H 0.52807 0.47154 0.10808 0.0
H134 H 0.49265 0.44343 0.99879 0.0
H135 H 0.5299 0.53233 0.08975 0.0
H136 H 0.49292 0.5037 0.98076 0.0
H137 H 0.49038 0.70399 0.04741 0.0
H138 H 0.43347 0.7378 0.05394 0.0
H139 H 0.39663 0.70185 0.9474 0.0
H140 H 0.45425 0.66876 0.94079 0.0
H141 H 0.54516 0.70166 0.93648 0.0
H142 H 0.60221 0.73538 0.94283 0.0
H143 H 0.60996 0.70459 0.05688 0.0
H144 H 0.5522 0.67206 0.05048 0.0
H145 H 0.49007 0.6399 0.05522 0.0
H146 H 0.48997 0.57954 0.07416 0.0
H147 H 0.53397 0.55028 0.9679 0.0
N148 N 0.51062 0.66502 0.98763 0.0
H149 H 0.53251 0.61078 0.94877 0.0
C150 C 0.47589 0.39823 0.06012 0.0
C151 C 0.44967 0.39493 0.08831 0.0
C152 C 0.41744 0.37542 0.08304 0.0
C153 C 0.41049 0.35907 0.04909 0.0
C154 C 0.43674 0.36289 0.02063 0.0
C155 C 0.46927 0.38189 0.0262 0.0
C156 C 0.54345 0.39815 0.0628 0.0
C157 C 0.56281 0.39689 0.02918 0.0
C158 C 0.59494 0.37676 0.02576 0.0
C159 C 0.60793 0.35719 0.05567 0.0
C160 C 0.58853 0.35863 0.0892 0.0
C161 C 0.55669 0.37897 0.09267 0.0
C162 C 0.50998 0.45286 0.05514 0.0
C163 C 0.52045 0.47853 0.08024 0.0
C164 C 0.52123 0.51323 0.06975 0.0
C165 C 0.51143 0.52299 0.03377 0.0
C166 C 0.50111 0.49714 1.00855 0.0
C167 C 0.50057 0.46247 1.01901 0.0
C168 C 0.47667 0.68407 0.99331 0.0
C169 C 0.47008 0.70333 0.02549 0.0
C170 C 0.43733 0.72247 0.0293 0.0
C171 C 0.41052 0.72269 1.00111 0.0
C172 C 0.41693 0.70274 0.96937 0.0
C173 C 0.44967 0.68368 0.9656 0.0
C174 C 0.54457 0.68418 0.99274 0.0
C175 C 0.55928 0.70225 0.96278 0.0
C176 C 0.59203 0.72126 0.96646 0.0
C177 C 0.61095 0.72251 1.00032 0.0
C178 C 0.596 0.70447 0.03049 0.0
C179 C 0.56306 0.68559 0.0268 0.0
C180 C 0.51087 0.62977 1.00025 0.0
C181 C 0.49946 0.62054 0.03591 0.0
C182 C 0.49977 0.58594 0.04685 0.0
C183 C 0.5118 0.55993 0.02252 0.0
C184 C 0.52382 0.56947 0.98713 0.0
C185 C 0.52326 0.604 0.97618 0.0
C186 C 0.00989 0.12413 0.93726 0.0
C187 C 0.0082 0.12488 0.11701 0.0
C188 C 0.01105 0.95668 0.93815 0.0
C189 C 0.00992 0.95753 0.11782 0.0
C190 C 0.1011 0.95812 0.02925 0.0
C191 C 0.09905 0.12504 0.03018 0.0
C192 C 0.92022 0.95675 0.02376 0.0
C193 C 0.9184 0.12364 0.02849 0.0
C194 C 0.91777 0.03451 0.1139 0.0
C195 C 0.09733 0.04256 0.11868 0.0
C196 C 0.9217 0.03985 0.93682 0.0
C197 C 0.10176 0.03969 0.94097 0.0
Eu198 Eu 0.00892 0.10703 0.02719 0.0
O199 O 0.04098 0.07212 0.06066 0.0
O200 O 0.97728 0.0716 0.99378 0.0
Eu201 Eu 0.07917 0.04142 0.0293 0.0
Eu202 Eu 0.94022 0.0404 0.02594 0.0
O203 O 0.04293 0.07204 0.99542 0.0
O204 O 0.97567 0.07196 0.0596 0.0
Eu205 Eu 0.01125 0.04053 0.958 0.0
Eu206 Eu 0.00793 0.04114 0.0971 0.0
O207 O 0.04337 1.00997 0.99587 0.0
O208 O 0.04199 1.01011 0.0613 0.0
O209 O 0.9767 1.00978 0.05939 0.0
O210 O 0.97831 1.00953 0.99454 0.0
Eu211 Eu 0.01045 0.97459 0.02792 0.0
O212 O 0.00931 0.13538 0.97212 0.0
O213 O 0.00859 0.13588 0.08208 0.0
O214 O 0.01132 0.9458 0.9731 0.0
O215 O 0.00963 0.94621 0.08299 0.0
O216 O 0.11128 0.99124 0.03007 0.0
O217 O 0.11003 0.09217 0.03129 0.0
O218 O 0.90935 0.98967 0.02229 0.0
O219 O 0.90812 0.09054 0.02871 0.0
O220 O 0.95241 0.03768 0.12666 0.0
O221 O 0.06183 0.04255 0.12928 0.0
O222 O 0.95712 0.03868 0.92593 0.0
O223 O 0.06683 0.03951 0.92857 0.0
O224 O 0.95535 0.94586 0.02674 0.0
O225 O 0.06606 0.94666 0.0283 0.0
O226 O 0.95342 0.13509 0.02714 0.0
O227 O 0.0639 0.136 0.02782 0.0
O228 O 0.00732 0.09194 0.1277 0.0
O229 O 0.00974 0.99061 0.12817 0.0
O230 O 0.01075 0.09107 0.92687 0.0
O231 O 0.01104 0.98962 0.92737 0.0
O232 O 0.11178 0.04088 0.97627 0.0
O233 O 0.10916 0.0419 0.08391 0.0
O234 O 0.9101 0.04156 0.97159 0.0
O235 O 0.90784 0.03517 0.07861 0.0
C236 C -0.00976 0.34717 0.36005 0.0
C237 C 0.00474 0.33603 0.39397 0.0
C238 C -0.00791 0.32592 0.3289 0.0
C239 C -0.0018 0.23447 0.30295 0.0
H240 H 0.026 0.26864 0.20657 0.0
C241 C 0.02115 0.14125 0.18232 0.0
C242 C 0.00931 0.151 0.14695 0.0
C243 C 0.02138 0.16497 0.21123 0.0
C244 C 0.01768 0.25875 0.23317 0.0
H245 H 0.03292 0.29392 0.42158 0.0
H246 H 0.03618 0.25689 0.36728 0.0
H247 H 0.02537 0.30799 0.25922 0.0
H248 H -0.01104 0.19373 0.11421 0.0
H249 H -0.01152 0.23517 0.1651 0.0
H250 H -0.01026 0.18554 0.27722 0.0
C251 C 0.02327 0.28204 0.36481 0.0
C252 C 0.01745 0.28131 0.26337 0.0
C253 C 0.02173 0.3034 0.39584 0.0
C254 C -0.00171 0.18538 0.14109 0.0
C255 C -0.00183 0.20916 0.17027 0.0
C256 C -0.00189 0.21206 0.27282 0.0
C257 C 0.00814 0.2929 0.33106 0.0
C258 C 0.00804 0.26932 0.29867 0.0
C259 C 0.00937 0.19914 0.20585 0.0
C260 C 0.00823 0.22373 0.23754 0.0
H261 H 0.97727 0.37229 0.35762 0.0
H262 H 0.98004 0.33497 0.30337 0.0
H263 H -0.00994 0.22457 0.32962 0.0
H264 H 0.03052 0.11517 0.18778 0.0
H265 H 0.0312 0.15643 0.23787 0.0
C266 C 0.65926 0.97758 0.3265 0.0
C267 C 0.6356 0.95287 0.31062 0.0
C268 C 0.69283 0.98624 0.30955 0.0
C269 C 0.75919 0.95504 0.23847 0.0
H270 H 0.79052 0.05084 0.23555 0.0
C271 C 0.85623 1.00891 0.12863 0.0
C272 C 0.88784 0.0271 0.1405 0.0
C273 C 0.82847 0.99987 0.15344 0.0
C274 C 0.78232 0.02395 0.23668 0.0
H275 H 0.62798 0.91829 0.2644 0.0
H276 H 0.68593 0.93401 0.23417 0.0
H277 H 0.73543 0.03474 0.271 0.0
H278 H 0.91489 0.05057 0.18761 0.0
H279 H 0.86517 0.03544 0.23118 0.0
H280 H 0.80501 0.94471 0.20253 0.0
C281 C 0.6793 0.94601 0.26027 0.0
C282 C 0.75086 1.01466 0.25698 0.0
C283 C 0.64598 0.93709 0.27743 0.0
C284 C 0.89082 0.03655 0.17774 0.0
C285 C 0.86249 0.028 0.20257 0.0
C286 C 0.79023 0.96442 0.21784 0.0
C287 C 0.70324 0.97058 0.27618 0.0
C288 C 0.73848 0.98017 0.25747 0.0
C289 C 0.83139 1.0092 0.19057 0.0
C290 C 0.80161 0.99901 0.21623 0.0
H291 H 0.65203 0.98982 0.35233 0.0
H292 H 0.71078 1.00491 0.32281 0.0
H293 H 0.75109 0.92813 0.23902 0.0
H294 H 0.85322 1.00089 0.10022 0.0
H295 H 0.80454 0.98563 0.14354 0.0
C296 C 0.03241 0.78533 0.39775 0.0
C297 C 0.02126 0.75057 0.39722 0.0
C298 C 0.02834 0.80606 0.36657 0.0
C299 C 0.02089 0.80293 0.26584 0.0
H300 H -0.01528 0.89659 0.27726 0.0
C301 C 0.00103 0.89686 0.14185 0.0
C302 C 0.01046 0.93164 0.14801 0.0
C303 C 0.00029 0.87324 0.17112 0.0
C304 C -0.00471 0.87064 0.27355 0.0
H305 H -0.00289 0.71029 0.36342 0.0
H306 H -0.00985 0.74662 0.30863 0.0
H307 H -0.01308 0.85848 0.33037 0.0
H308 H 0.02789 0.96836 0.18979 0.0
H309 H 0.02735 0.92745 0.24006 0.0
H310 H 0.03012 0.81541 0.20911 0.0
C311 C 0.00206 0.75774 0.33331 0.0
C312 C -0.00359 0.84875 0.30405 0.0
C313 C 0.00575 0.73704 0.36474 0.0
C314 C 0.0199 0.94197 0.18393 0.0
C315 C 0.01939 0.91844 0.21297 0.0
C316 C 0.02003 0.82498 0.23527 0.0
C317 C 0.01327 0.79252 0.33391 0.0
C318 C 0.00972 0.8148 0.30072 0.0
C319 C 0.00913 0.88385 0.20717 0.0
C320 C 0.00777 0.85934 0.23886 0.0
H321 H 0.04416 0.79661 0.42242 0.0
H322 H 0.03758 0.83264 0.36786 0.0
H323 H 0.03151 0.77696 0.26243 0.0
H324 H -0.00649 0.888 0.11457 0.0
H325 H -0.00794 0.84685 0.16562 0.0
C326 C 0.36265 1.0116 0.32741 0.0
C327 C 0.36535 0.97599 0.33429 0.0
C328 C 0.33068 0.02538 0.3112 0.0
C329 C 0.23272 1.00457 0.28595 0.0
H330 H 0.25172 0.06637 0.20429 0.0
C331 C 0.1164 0.04473 0.1852 0.0
C332 C 0.12617 0.04263 0.14778 0.0
C333 C 0.14375 0.04314 0.21249 0.0
C334 C 0.24592 0.04916 0.22703 0.0
H335 H 0.33577 0.92728 0.33167 0.0
H336 H 0.2807 0.95098 0.30244 0.0
H337 H 0.30231 0.05063 0.24532 0.0
H338 H 0.17262 0.03802 0.10985 0.0
H339 H 0.21981 0.0346 0.15718 0.0
H340 H 0.17685 1.00139 0.2662 0.0
C341 C 0.30297 0.96844 0.30986 0.0
C342 C 0.27484 0.04049 0.25089 0.0
C343 C 0.33481 0.95473 0.32612 0.0
C344 C 0.16394 0.03975 0.13832 0.0
C345 C 0.19116 0.03809 0.16554 0.0
C346 C 0.20384 1.01311 0.26195 0.0
C347 C 0.30079 1.00381 0.30153 0.0
C348 C 0.26884 1.01727 0.27998 0.0
C349 C 0.1814 0.03942 0.20295 0.0
C350 C 0.21041 0.03466 0.23156 0.0
H351 H 0.38574 0.02867 0.33328 0.0
H352 H 0.3297 0.0528 0.30556 0.0
H353 H 0.22703 0.98711 0.30849 0.0
H354 H 0.08762 0.04723 0.19352 0.0
H355 H 0.13537 0.0446 0.24107 0.0
C356 C 0.03358 0.73375 0.69561 0.0
C357 C 0.02169 0.74615 0.66121 0.0
C358 C 0.03041 0.75425 0.72723 0.0
C359 C 0.98265 0.83254 0.76381 0.0
H360 H 0.06305 0.83243 0.83486 0.0
C361 C 0.00019 0.9397 0.87244 0.0
C362 C 0.01038 0.93026 0.90843 0.0
C363 C -0.00017 0.91535 0.84408 0.0
C364 C 0.04014 0.83243 0.81553 0.0
H365 H -0.00258 0.79005 0.63315 0.0
H366 H -0.00772 0.82588 0.68797 0.0
H367 H 0.06568 0.79368 0.78194 0.0
H368 H 0.02812 0.88749 0.94266 0.0
H369 H 0.02772 0.84488 0.89284 0.0
H370 H 0.95758 0.87189 0.797 0.0
C371 C 0.00331 0.80002 0.69081 0.0
C372 C 0.04159 0.81017 0.78516 0.0
C373 C 0.00631 0.77946 0.65927 0.0
C374 C 0.02007 0.89567 0.91532 0.0
C375 C 0.02006 0.8713 0.88674 0.0
C376 C 0.98133 0.85491 0.79402 0.0
C377 C 0.01542 0.78777 0.72524 0.0
C378 C 0.01304 0.81018 0.75864 0.0
C379 C 0.00988 0.88088 0.85079 0.0
C380 C 0.01024 0.85542 0.82003 0.0
H381 H 0.04511 0.70804 0.69817 0.0
H382 H 0.03947 0.74368 0.75329 0.0
H383 H 0.95975 0.8328 0.74448 0.0
H384 H -0.00766 0.96601 0.86603 0.0
H385 H -0.00773 0.92371 0.81666 0.0
C386 C 0.3486 0.9396 0.74227 0.0
C387 C 0.37665 0.96265 0.73134 0.0
C388 C 0.31719 0.95156 0.76092 0.0
C389 C 0.24514 0.98507 0.78522 0.0
H390 H 0.26063 0.05331 0.8618 0.0
C391 C 0.12446 0.0351 0.8757 0.0
C392 C 0.13214 0.03693 0.9136 0.0
C393 C 0.1532 0.03009 0.85034 0.0
C394 C 0.25584 0.03421 0.84055 0.0
H395 H 0.39348 1.01646 0.73126 0.0
H396 H 0.33823 0.03739 0.76277 0.0
H397 H 0.31259 0.03558 0.82341 0.0
H398 H 0.17639 0.03563 0.95433 0.0
H399 H 0.22595 0.02643 0.91039 0.0
H400 H 0.18874 0.98251 0.80365 0.0
C401 C 0.34076 1.00999 0.7574 0.0
C402 C 0.28554 0.02433 0.81822 0.0
C403 C 0.37224 0.99802 0.73893 0.0
C404 C 0.16928 0.03447 0.9254 0.0
C405 C 0.19788 0.02941 0.90012 0.0
C406 C 0.21544 0.99485 0.80769 0.0
C407 C 0.31302 0.98687 0.76894 0.0
C408 C 0.2807 0.99924 0.79067 0.0
C409 C 0.19019 0.02682 0.86234 0.0
C410 C 0.22063 1.01908 0.83603 0.0
H411 H 0.35088 0.91227 0.73642 0.0
H412 H 0.29659 0.93297 0.7698 0.0
H413 H 0.24035 0.96607 0.76387 0.0
H414 H 0.09623 0.03702 0.86558 0.0
H415 H 0.14644 0.0286 0.82135 0.0
C416 C 0.03208 0.31528 0.66677 0.0
C417 C 0.00031 0.33569 0.66072 0.0
C418 C 0.03505 0.29456 0.69815 0.0
C419 C -0.00576 0.27983 0.79132 0.0
H420 H 0.03788 0.18905 0.77933 0.0
C421 C 0.01592 0.18539 0.91413 0.0
C422 C 0.00942 0.15017 0.90717 0.0
C423 C 0.01616 0.20937 0.8852 0.0
C424 C 0.02534 0.21421 0.7832 0.0
H425 H 0.94715 0.35083 0.68389 0.0
H426 H 0.95173 0.31389 0.7378 0.0
H427 H 0.03522 0.22804 0.72717 0.0
H428 H -0.00295 0.1129 0.86416 0.0
H429 H -0.00322 0.15441 0.81443 0.0
H430 H 0.9831 0.26531 0.84712 0.0
C431 C 0.97469 0.31425 0.71855 0.0
C432 C 0.02431 0.23685 0.7533 0.0
C433 C 0.97181 0.33512 0.68725 0.0
C434 C 0.00266 0.13968 0.8707 0.0
C435 C 0.0027 0.16356 0.84197 0.0
C436 C -0.00488 0.25706 0.82125 0.0
C437 C 0.00623 0.29346 0.72432 0.0
C438 C 0.00852 0.26992 0.75681 0.0
C439 C 0.00977 0.1987 0.84868 0.0
C440 C 0.01035 0.22379 0.81749 0.0
H441 H 0.05447 0.3147 0.64687 0.0
H442 H 0.06001 0.27934 0.70183 0.0
H443 H 0.98232 0.30523 0.79527 0.0
H444 H 0.02135 0.19442 0.94181 0.0
H445 H 0.02201 0.23617 0.89141 0.0
C446 C 0.66455 0.98653 0.72169 0.0
C447 C 0.64597 0.9559 0.7313 0.0
C448 C 0.69623 0.997 0.74097 0.0
C449 C 0.77344 1.00372 0.77592 0.0
H450 H 0.76876 0.99468 0.88204 0.0
C451 C 0.89966 1.0219 0.87415 0.0
C452 C 0.89239 0.03719 0.9085 0.0
C453 C 0.87053 1.01499 0.84971 0.0
C454 C 0.77041 0.99771 0.85247 0.0
H455 H 0.64639 0.91205 0.76835 0.0
H456 H 0.70192 0.92995 0.80146 0.0
H457 H 0.7165 0.97586 0.84483 0.0
H458 H 0.8494 0.05967 0.94293 0.0
H459 H 0.79897 0.04813 0.90022 0.0
H460 H 0.82742 0.02605 0.78389 0.0
C461 C 0.69179 0.94608 0.77929 0.0
C462 C 0.74064 0.98647 0.8311 0.0
C463 C 0.66021 0.93562 0.76004 0.0
C464 C 0.85587 0.0473 0.91696 0.0
C465 C 0.82692 0.04059 0.89254 0.0
C466 C 0.80341 1.01494 0.79739 0.0
C467 C 0.70987 0.9771 0.77031 0.0
C468 C 0.74182 0.98923 0.79261 0.0
C469 C 0.83372 0.02339 0.85919 0.0
C470 C 0.80211 1.01212 0.83591 0.0
H471 H 0.65451 1.0025 0.69937 0.0
H472 H 0.70945 1.02113 0.73355 0.0
H473 H 0.7752 1.00598 0.74628 0.0
H474 H 0.92751 1.01372 0.86688 0.0
H475 H 0.8766 1.0016 0.82424 0.0
C476 C 0.34296 0.34571 0.06139 0.0
C477 C 0.37666 0.3373 0.04385 0.0
C478 C 0.3119 0.32423 0.05805 0.0
C479 C 0.28661 0.23419 0.03272 0.0
H480 H 0.18629 0.27055 0.03603 0.0
C481 C 0.16207 0.14364 0.05054 0.0
C482 C 0.1288 0.15127 0.03208 0.0
C483 C 0.19104 0.16752 0.05149 0.0
C484 C 0.21408 0.25992 0.03459 0.0
H485 H 0.40346 0.29963 1.00835 0.0
H486 H 0.34901 0.26361 1.00073 0.0
H487 H 0.2388 0.31012 0.03596 0.0
H488 H 0.09955 0.19003 1.0004 0.0
H489 H 0.15079 0.23146 1.00079 0.0
H490 H 0.26212 0.18416 0.02962 0.0
C491 C 0.34681 0.28622 1.01812 0.0
C492 C 0.24431 0.28266 0.03513 0.0
C493 C 0.37802 0.30735 0.02197 0.0
C494 C 0.12486 0.18355 1.01498 0.0
C495 C 0.15421 0.20731 1.01537 0.0
C496 C 0.25648 0.21155 0.03162 0.0
C497 C 0.31347 0.29401 0.0366 0.0
C498 C 0.28103 0.27008 0.03453 0.0
C499 C 0.18784 0.19946 0.03338 0.0
C500 C 0.21977 0.22402 0.03304 0.0
H501 H 0.34049 0.36885 0.07793 0.0
H502 H 0.28694 0.33102 0.07304 0.0
H503 H 0.31434 0.22332 0.03279 0.0
H504 H 0.16569 0.11918 0.06454 0.0
H505 H 0.21595 0.16085 0.06661 0.0
C506 C 0.36361 0.76309 0.97357 0.0
C507 C 0.37661 0.74452 1.00418 0.0
C508 C 0.33254 0.78453 0.97653 0.0
C509 C 0.28291 0.84469 0.9966 0.0
H510 H 0.19613 0.81857 0.0534 0.0
C511 C 0.16876 0.94283 0.03207 0.0
C512 C 0.13152 0.93219 0.02865 0.0
C513 C 0.19771 0.91894 0.02994 0.0
C514 C 0.22005 0.82612 0.03723 0.0
H515 H 0.36648 0.73336 0.06177 0.0
H516 H 0.31257 0.77136 0.06712 0.0
H517 H 0.24792 0.7781 0.04711 0.0
H518 H 0.09573 0.88765 0.02095 0.0
H519 H 0.14647 0.84594 1.01698 0.0
H520 H 0.25503 0.89242 0.98621 0.0
C521 C 0.32628 0.76905 0.04071 0.0
C522 C 0.24988 0.8031 0.03395 0.0
C523 C 0.35744 0.74758 0.03775 0.0
C524 C 0.12401 0.89683 0.02375 0.0
C525 C 0.1531 0.87286 0.02162 0.0
C526 C 0.2532 0.86767 0.99992 0.0
C527 C 0.31368 0.78802 1.0102 0.0
C528 C 0.28167 0.81214 1.0136 0.0
C529 C 0.1903 0.88373 0.02428 0.0
C530 C 0.22148 0.85876 0.0204 0.0
H531 H 0.37791 0.76165 0.9474 0.0
H532 H 0.32331 0.79843 0.95237 0.0
H533 H 0.30711 0.85268 0.98108 0.0
H534 H 0.17577 0.96974 0.0362 0.0
H535 H 0.226 0.92811 0.03281 0.0
C536 C 0.64049 0.30087 0.06568 0.0
C537 C 0.64113 0.33471 0.05191 0.0
C538 C 0.67178 0.27972 0.06286 0.0
C539 C 0.76126 0.26958 1.01311 0.0
H540 H 0.78274 0.20714 0.09367 0.0
C541 C 0.89453 0.1844 0.02162 0.0
C542 C 0.88819 0.14959 0.03068 0.0
C543 C 0.86571 0.20862 0.02402 0.0
C544 C 0.777 0.22434 0.0709 0.0
H545 H 0.67504 0.37297 0.02434 0.0
H546 H 0.73011 0.33622 0.01998 0.0
H547 H 0.73026 0.24657 0.09833 0.0
H548 H 0.84653 0.11311 0.04961 0.0
H549 H 0.7967 0.15529 0.05402 0.0
H550 H 0.80852 0.24731 0.98597 0.0
C551 C 0.70518 0.32578 0.03239 0.0
C552 C 0.74682 0.24686 0.07346 0.0
C553 C 0.67368 0.34688 0.03494 0.0
C554 C 0.85247 0.13963 0.04227 0.0
C555 C 0.82391 0.16385 0.04507 0.0
C556 C 0.79175 0.24721 1.01072 0.0
C557 C 0.70467 0.29196 0.0465 0.0
C558 C 0.73815 0.2694 0.04437 0.0
C559 C 0.83019 0.19858 0.03605 0.0
C560 C 0.79954 0.22402 0.03937 0.0
H561 H 0.61558 0.29058 0.07831 0.0
H562 H 0.66999 0.25358 0.07323 0.0
H563 H 0.75525 0.28631 0.99002 0.0
H564 H 0.92167 0.19293 1.01249 0.0
H565 H 0.87133 0.23529 1.01704 0.0
C566 C 0.65307 0.76222 0.03605 0.0
C567 C 0.64584 0.74291 1.00404 0.0
C568 C 0.68504 0.78261 0.03872 0.0
C569 C 0.75154 0.8291 0.98097 0.0
H570 H 0.81116 0.83426 0.06972 0.0
C571 C 0.85518 0.93925 1.00807 0.0
C572 C 0.89054 0.93031 0.02153 0.0
C573 C 0.82698 0.91462 1.00581 0.0
C574 C 0.79491 0.83287 0.04468 0.0
H575 H 0.66761 0.72883 0.95038 0.0
H576 H 0.72291 0.76491 0.95482 0.0
H577 H 0.75915 0.79357 0.06642 0.0
H578 H 0.92382 0.8884 0.0435 0.0
H579 H 0.87417 0.84534 0.03981 0.0
H580 H 0.78691 0.8686 0.95934 0.0
C581 C 0.70359 0.76451 0.97768 0.0
C582 C 0.765 0.80983 0.0429 0.0
C583 C 0.67181 0.74394 0.97511 0.0
C584 C 0.89696 0.89612 0.03286 0.0
C585 C 0.86851 0.87151 0.03097 0.0
C586 C 0.78114 0.85234 0.98288 0.0
C587 C 0.71037 0.78433 1.00934 0.0
C588 C 0.74292 0.80782 1.01106 0.0
C589 C 0.83329 0.88052 1.01725 0.0
C590 C 0.80299 0.85464 1.01482 0.0
H591 H 0.6335 0.76241 0.05869 0.0
H592 H 0.68933 0.79791 0.06331 0.0
H593 H 0.73484 0.82836 0.95618 0.0
H594 H 0.84923 0.96528 0.99896 0.0
H595 H 0.8 0.9224 0.99548 0.0
loop_
_geom_bond_atom_site_label_1
_geom_bond_atom_site_label_2
_geom_bond_distance
_geom_bond_site_symmetry_2
_ccdc_geom_bond_type
H0 C27 0.925 1_655 S
N1 C26 1.433 . S
N1 C32 1.435 . S
N1 C38 1.423 . S
H2 C28 0.930 1_655 S
H3 C31 0.931 . S
H4 C30 0.929 . S
H5 C33 0.930 . S
H6 C34 0.932 . S
H7 C37 0.929 . S
H8 C36 0.931 1_655 S
H9 C39 0.929 . S
H10 C43 0.932 . S
H11 C40 0.931 . S
H12 C42 0.929 . S
H13 C45 0.925 1_655 S
H14 C46 0.930 1_655 S
H15 C48 0.929 . S
H16 C49 0.931 . S
H17 C51 0.930 . S
H18 C52 0.932 . S
H19 C54 0.931 1_655 S
H20 C55 0.929 . S
H21 C57 0.929 . S
H22 C58 0.931 . S
H23 C60 0.929 . S
N24 C44 1.433 . S
N24 C50 1.435 . S
N24 C56 1.423 . S
H25 C61 0.932 . S
C26 N1 1.433 . S
C26 C27 1.366 . S
C26 C31 1.370 . S
C27 H0 0.925 1_455 S
C27 C26 1.366 . S
C27 C28 1.386 . S
C28 H2 0.930 1_455 S
C28 C27 1.386 . S
C28 C29 1.357 . S
C29 C28 1.357 . S
C29 C30 1.406 . S
C30 H4 0.929 . S
C30 C29 1.406 . S
C30 C31 1.391 . S
C31 H3 0.931 . S
C31 C26 1.370 . S
C31 C30 1.391 . S
C32 N1 1.435 . S
C32 C33 1.358 . S
C32 C37 1.371 1_455 S
C33 H5 0.930 . S
C33 C32 1.358 . S
C33 C34 1.405 . S
C34 H6 0.932 . S
C34 C33 1.405 . S
C34 C35 1.383 . S
C35 C34 1.383 . S
C35 C36 1.393 . S
C36 H8 0.931 1_455 S
C36 C35 1.393 . S
C36 C37 1.382 1_455 S
C37 H7 0.929 . S
C37 C32 1.371 1_655 S
C37 C36 1.382 1_655 S
C38 N1 1.423 . S
C38 C39 1.362 1_455 S
C38 C43 1.388 . S
C39 H9 0.929 . S
C39 C38 1.362 1_655 S
C39 C40 1.376 . S
C40 H11 0.931 . S
C40 C39 1.376 . S
C40 C41 1.381 1_655 S
C41 C40 1.381 1_455 S
C41 C42 1.363 . S
C41 C59 1.472 . S
C42 H12 0.929 . S
C42 C41 1.363 . S
C42 C43 1.443 . S
C43 H10 0.932 . S
C43 C38 1.388 . S
C43 C42 1.443 . S
C44 N24 1.433 . S
C44 C45 1.366 . S
C44 C49 1.370 . S
C45 H13 0.925 1_455 S
C45 C44 1.366 . S
C45 C46 1.386 . S
C46 H14 0.930 1_455 S
C46 C45 1.386 . S
C46 C47 1.357 . S
C47 C46 1.357 . S
C47 C48 1.406 . S
C48 H15 0.929 . S
C48 C47 1.406 . S
C48 C49 1.391 . S
C49 H16 0.931 . S
C49 C44 1.370 . S
C49 C48 1.391 . S
C50 N24 1.435 . S
C50 C51 1.358 . S
C50 C55 1.371 1_455 S
C51 H17 0.930 . S
C51 C50 1.358 . S
C51 C52 1.405 . S
C52 H18 0.932 . S
C52 C51 1.405 . S
C52 C53 1.383 . S
C53 C52 1.383 . S
C53 C54 1.393 . S
C54 H19 0.931 1_455 S
C54 C53 1.393 . S
C54 C55 1.382 1_455 S
C55 H20 0.929 . S
C55 C50 1.371 1_655 S
C55 C54 1.382 1_655 S
C56 N24 1.423 . S
C56 C57 1.362 1_455 S
C56 C61 1.388 . S
C57 H21 0.929 . S
C57 C56 1.362 1_655 S
C57 C58 1.376 . S
C58 H22 0.931 . S
C58 C57 1.376 . S
C58 C59 1.381 1_655 S
C59 C41 1.472 . S
C59 C58 1.381 1_455 S
C59 C60 1.363 . S
C60 H23 0.929 . S
C60 C59 1.363 . S
C60 C61 1.443 . S
C61 H25 0.932 . S
C61 C56 1.388 . S
C61 C60 1.443 . S
H62 C89 0.929 . S
N63 C88 1.433 . S
N63 C94 1.435 . S
N63 C100 1.423 . S
H64 C90 0.930 . S
H65 C93 0.931 . S
H66 C92 0.929 . S
H67 C95 0.930 . S
H68 C96 0.932 . S
H69 C99 0.929 . S
H70 C98 0.931 . S
H71 C101 0.929 . S
H72 C105 0.932 1_545 S
H73 C102 0.931 . S
H74 C104 0.929 1_545 S
H75 C107 0.929 . S
H76 C108 0.930 . S
H77 C110 0.929 . S
H78 C111 0.931 . S
H79 C113 0.930 . S
H80 C114 0.932 . S
H81 C116 0.931 . S
H82 C117 0.929 . S
H83 C119 0.929 . S
H84 C120 0.931 . S
H85 C122 0.929 1_545 S
N86 C106 1.433 . S
N86 C112 1.435 . S
N86 C118 1.423 . S
H87 C123 0.932 1_545 S
C88 N63 1.433 . S
C88 C89 1.363 . S
C88 C93 1.370 1_565 S
C89 H62 0.929 . S
C89 C88 1.363 . S
C89 C90 1.385 . S
C90 H64 0.930 . S
C90 C89 1.385 . S
C90 C91 1.357 . S
C91 C90 1.357 . S
C91 C92 1.406 1_565 S
C92 H66 0.929 . S
C92 C91 1.406 1_545 S
C92 C93 1.391 . S
C93 H65 0.931 . S
C93 C88 1.370 1_545 S
C93 C92 1.391 . S
C94 N63 1.435 . S
C94 C95 1.358 1_565 S
C94 C99 1.371 . S
C95 H67 0.930 . S
C95 C94 1.358 1_545 S
C95 C96 1.405 . S
C96 H68 0.932 . S
C96 C95 1.405 . S
C96 C97 1.383 1_545 S
C97 C96 1.383 1_565 S
C97 C98 1.393 . S
C98 H70 0.931 . S
C98 C97 1.393 . S
C98 C99 1.382 . S
C99 H69 0.929 . S
C99 C94 1.371 . S
C99 C98 1.382 . S
C100 N63 1.423 . S
C100 C101 1.362 . S
C100 C105 1.388 . S
C101 H71 0.929 . S
C101 C100 1.362 . S
C101 C102 1.376 . S
C102 H73 0.931 . S
C102 C101 1.376 . S
C102 C103 1.396 . S
C103 C102 1.396 . S
C103 C104 1.348 . S
C103 C121 1.472 . S
C104 H74 0.929 1_565 S
C104 C103 1.348 . S
C104 C105 1.443 . S
C105 H72 0.932 1_565 S
C105 C100 1.388 . S
C105 C104 1.443 . S
C106 N86 1.433 . S
C106 C107 1.363 . S
C106 C111 1.370 1_565 S
C107 H75 0.929 . S
C107 C106 1.363 . S
C107 C108 1.385 . S
C108 H76 0.930 . S
C108 C107 1.385 . S
C108 C109 1.357 . S
C109 C108 1.357 . S
C109 C110 1.406 1_565 S
C110 H77 0.929 . S
C110 C109 1.406 1_545 S
C110 C111 1.391 . S
C111 H78 0.931 . S
C111 C106 1.370 1_545 S
C111 C110 1.391 . S
C112 N86 1.435 . S
C112 C113 1.358 1_565 S
C112 C117 1.371 . S
C113 H79 0.930 . S
C113 C112 1.358 1_545 S
C113 C114 1.405 . S
C114 H80 0.932 . S
C114 C113 1.405 . S
C114 C115 1.383 1_545 S
C115 C114 1.383 1_565 S
C115 C116 1.393 . S
C116 H81 0.931 . S
C116 C115 1.393 . S
C116 C117 1.382 . S
C117 H82 0.929 . S
C117 C112 1.371 . S
C117 C116 1.382 . S
C118 N86 1.423 . S
C118 C119 1.362 . S
C118 C123 1.388 . S
C119 H83 0.929 . S
C119 C118 1.362 . S
C119 C120 1.376 . S
C120 H84 0.931 . S
C120 C119 1.376 . S
C120 C121 1.396 . S
C121 C103 1.472 . S
C121 C120 1.396 . S
C121 C122 1.348 . S
C122 H85 0.929 1_565 S
C122 C121 1.348 . S
C122 C123 1.443 . S
C123 H87 0.932 1_565 S
C123 C118 1.388 . S
C123 C122 1.443 . S
H124 C151 0.929 . S
N125 C150 1.433 . S
N125 C156 1.435 . S
N125 C162 1.423 . S
H126 C152 0.930 . S
H127 C155 0.931 . S
H128 C154 0.929 . S
H129 C157 0.930 . S
H130 C158 0.932 . S
H131 C161 0.929 . S
H132 C160 0.931 . S
H133 C163 0.929 . S
H134 C167 0.932 1_556 S
H135 C164 0.931 . S
H136 C166 0.929 . S
H137 C169 0.929 . S
H138 C170 0.930 . S
H139 C172 0.929 . S
H140 C173 0.931 . S
H141 C175 0.930 . S
H142 C176 0.932 . S
H143 C178 0.931 . S
H144 C179 0.929 . S
H145 C181 0.929 . S
H146 C182 0.931 . S
H147 C184 0.929 . S
N148 C168 1.433 . S
N148 C174 1.435 . S
N148 C180 1.423 . S
H149 C185 0.932 1_556 S
C150 N125 1.433 . S
C150 C151 1.363 . S
C150 C155 1.370 1_554 S
C151 H124 0.929 . S
C151 C150 1.363 . S
C151 C152 1.385 . S
C152 H126 0.930 . S
C152 C151 1.385 . S
C152 C153 1.357 . S
C153 C152 1.357 . S
C153 C154 1.406 1_554 S
C154 H128 0.929 . S
C154 C153 1.406 1_556 S
C154 C155 1.391 . S
C155 H127 0.931 . S
C155 C150 1.370 1_556 S
C155 C154 1.391 . S
C156 N125 1.435 . S
C156 C157 1.358 1_554 S
C156 C161 1.371 . S
C157 H129 0.930 . S
C157 C156 1.358 1_556 S
C157 C158 1.405 . S
C158 H130 0.932 . S
C158 C157 1.405 . S
C158 C159 1.383 1_556 S
C159 C158 1.383 1_554 S
C159 C160 1.393 . S
C160 H132 0.931 . S
C160 C159 1.393 . S
C160 C161 1.382 . S
C161 H131 0.929 . S
C161 C156 1.371 . S
C161 C160 1.382 . S
C162 N125 1.423 . S
C162 C163 1.362 . S
C162 C167 1.388 . S
C163 H133 0.929 . S
C163 C162 1.362 . S
C163 C164 1.376 . S
C164 H135 0.931 . S
C164 C163 1.376 . S
C164 C165 1.396 . S
C165 C164 1.396 . S
C165 C166 1.348 . S
C165 C183 1.472 . S
C166 H136 0.929 . S
C166 C165 1.348 . S
C166 C167 1.443 . S
C167 H134 0.932 1_554 S
C167 C162 1.388 . S
C167 C166 1.443 . S
C168 N148 1.433 . S
C168 C169 1.363 . S
C168 C173 1.370 1_554 S
C169 H137 0.929 . S
C169 C168 1.363 . S
C169 C170 1.385 . S
C170 H138 0.930 . S
C170 C169 1.385 . S
C170 C171 1.357 . S
C171 C170 1.357 . S
C171 C172 1.406 1_554 S
C172 H139 0.929 . S
C172 C171 1.406 1_556 S
C172 C173 1.391 . S
C173 H140 0.931 . S
C173 C168 1.370 1_556 S
C173 C172 1.391 . S
C174 N148 1.435 . S
C174 C175 1.358 1_554 S
C174 C179 1.371 . S
C175 H141 0.930 . S
C175 C174 1.358 1_556 S
C175 C176 1.405 . S
C176 H142 0.932 . S
C176 C175 1.405 . S
C176 C177 1.383 1_556 S
C177 C176 1.383 1_554 S
C177 C178 1.393 . S
C178 H143 0.931 . S
C178 C177 1.393 . S
C178 C179 1.382 . S
C179 H144 0.929 . S
C179 C174 1.371 . S
C179 C178 1.382 . S
C180 N148 1.423 . S
C180 C181 1.362 . S
C180 C185 1.388 . S
C181 H145 0.929 . S
C181 C180 1.362 . S
C181 C182 1.376 . S
C182 H146 0.931 . S
C182 C181 1.376 . S
C182 C183 1.396 . S
C183 C165 1.472 . S
C183 C182 1.396 . S
C183 C184 1.348 . S
C184 H147 0.929 . S
C184 C183 1.348 . S
C184 C185 1.443 . S
C185 H149 0.932 1_554 S
C185 C180 1.388 . S
C185 C184 1.443 . S
C186 O212 1.283 . S
C186 O230 1.283 . S
C187 O213 1.283 . S
C187 O228 1.283 . S
C188 O214 1.283 . S
C188 O231 1.283 . S
C189 O215 1.283 . S
C189 O229 1.283 . S
C190 O216 1.283 . S
C190 O225 1.283 . S
C191 O217 1.283 . S
C191 O227 1.283 . S
C192 O218 1.283 . S
C192 O224 1.283 . S
C193 O219 1.283 . S
C193 O226 1.283 . S
C194 O220 1.283 . S
C194 O235 1.283 . S
C195 O221 1.283 . S
C195 O233 1.283 . S
C196 O222 1.283 . S
C196 O234 1.283 . S
C197 O223 1.283 . S
C197 O232 1.283 . S
Eu198 O199 2.370 . S
Eu198 O200 2.370 1_454 S
Eu198 O203 2.370 1_554 S
Eu198 O204 2.370 1_455 S
Eu198 O212 2.363 1_554 S
Eu198 O213 2.363 . S
Eu198 O226 2.363 1_455 S
Eu198 O227 2.363 . S
O199 Eu198 2.370 . S
O199 Eu201 2.370 . S
O199 Eu206 2.370 . S
O200 Eu198 2.370 1_656 S
O200 Eu202 2.370 1_556 S
O200 Eu205 2.370 1_655 S
Eu201 O199 2.370 . S
Eu201 O203 2.370 1_554 S
Eu201 O207 2.370 1_544 S
Eu201 O208 2.370 1_545 S
Eu201 O216 2.363 1_545 S
Eu201 O217 2.363 . S
Eu201 O232 2.363 1_554 S
Eu201 O233 2.363 . S
Eu202 O200 2.370 1_554 S
Eu202 O204 2.370 . S
Eu202 O209 2.370 1_545 S
Eu202 O210 2.370 1_544 S
Eu202 O218 2.363 1_545 S
Eu202 O219 2.363 . S
Eu202 O234 2.363 1_554 S
Eu202 O235 2.363 . S
O203 Eu198 2.370 1_556 S
O203 Eu201 2.370 1_556 S
O203 Eu205 2.370 . S
O204 Eu198 2.370 1_655 S
O204 Eu202 2.370 . S
O204 Eu206 2.370 1_655 S
Eu205 O200 2.370 1_455 S
Eu205 O203 2.370 . S
Eu205 O207 2.370 1_545 S
Eu205 O210 2.370 1_445 S
Eu205 O222 2.363 1_455 S
Eu205 O223 2.363 . S
Eu205 O230 2.363 . S
Eu205 O231 2.363 1_545 S
Eu206 O199 2.370 . S
Eu206 O204 2.370 1_455 S
Eu206 O208 2.370 1_545 S
Eu206 O209 2.370 1_445 S
Eu206 O220 2.363 1_455 S
Eu206 O221 2.363 . S
Eu206 O228 2.363 . S
Eu206 O229 2.363 1_545 S
O207 Eu201 2.370 1_566 S
O207 Eu205 2.370 1_565 S
O207 Eu211 2.370 1_556 S
O208 Eu201 2.370 1_565 S
O208 Eu206 2.370 1_565 S
O208 Eu211 2.370 . S
O209 Eu202 2.370 1_565 S
O209 Eu206 2.370 1_665 S
O209 Eu211 2.370 1_655 S
O210 Eu202 2.370 1_566 S
O210 Eu205 2.370 1_665 S
O210 Eu211 2.370 1_656 S
Eu211 O207 2.370 1_554 S
Eu211 O208 2.370 . S
Eu211 O209 2.370 1_455 S
Eu211 O210 2.370 1_454 S
Eu211 O214 2.363 1_554 S
Eu211 O215 2.363 . S
Eu211 O224 2.363 1_455 S
Eu211 O225 2.363 . S
O212 C186 1.283 . S
O212 Eu198 2.363 1_556 S
O213 C187 1.283 . S
O213 Eu198 2.363 . S
O214 C188 1.283 . S
O214 Eu211 2.363 1_556 S
O215 C189 1.283 . S
O215 Eu211 2.363 . S
O216 C190 1.283 . S
O216 Eu201 2.363 1_565 S
O217 C191 1.283 . S
O217 Eu201 2.363 . S
O218 C192 1.283 . S
O218 Eu202 2.363 1_565 S
O219 C193 1.283 . S
O219 Eu202 2.363 . S
O220 C194 1.283 . S
O220 Eu206 2.363 1_655 S
O221 C195 1.283 . S
O221 Eu206 2.363 . S
O222 C196 1.283 . S
O222 Eu205 2.363 1_655 S
O223 C197 1.283 . S
O223 Eu205 2.363 . S
O224 C192 1.283 . S
O224 Eu211 2.363 1_655 S
O225 C190 1.283 . S
O225 Eu211 2.363 . S
O226 C193 1.283 . S
O226 Eu198 2.363 1_655 S
O227 C191 1.283 . S
O227 Eu198 2.363 . S
O228 C187 1.283 . S
O228 Eu206 2.363 . S
O229 C189 1.283 . S
O229 Eu206 2.363 1_565 S
O230 C186 1.283 . S
O230 Eu205 2.363 . S
O231 C188 1.283 . S
O231 Eu205 2.363 1_565 S
O232 C197 1.283 . S
O232 Eu201 2.363 1_556 S
O233 C195 1.283 . S
O233 Eu201 2.363 . S
O234 C196 1.283 . S
O234 Eu202 2.363 1_556 S
O235 C194 1.283 . S
O235 Eu202 2.363 . S
C236 C237 1.349 . S
C236 C238 1.327 . S
C236 H261 0.950 . S
C237 C236 1.349 . S
C237 C253 1.349 . S
C238 C236 1.327 . S
C238 C257 1.429 . S
C238 H262 0.950 . S
C239 C256 1.574 . S
C239 C258 1.368 . S
C239 H263 0.949 1_455 S
H240 C244 0.949 . S
C241 C242 1.349 . S
C241 C243 1.327 . S
C241 H264 0.950 1_455 S
C242 C241 1.349 . S
C242 C254 1.349 . S
C243 C241 1.327 . S
C243 C259 1.429 . S
C243 H265 0.950 1_455 S
C244 H240 0.949 . S
C244 C252 1.574 . S
C244 C260 1.368 . S
H245 C253 0.950 1_655 S
H246 C251 0.950 1_655 S
H247 C252 0.949 . S
H248 C254 0.950 . S
H249 C255 0.950 . S
H250 C256 0.949 1_655 S
C251 H246 0.950 1_455 S
C251 C253 1.327 . S
C251 C257 1.429 . S
C252 C244 1.574 . S
C252 H247 0.949 . S
C252 C258 1.368 . S
C253 C237 1.349 . S
C253 H245 0.950 1_455 S
C253 C251 1.327 . S
C254 C242 1.349 . S
C254 H248 0.950 . S
C254 C255 1.327 . S
C255 H249 0.950 . S
C255 C254 1.327 . S
C255 C259 1.429 . S
C256 C239 1.574 . S
C256 H250 0.949 1_455 S
C256 C260 1.368 . S
C257 C238 1.429 . S
C257 C251 1.429 . S
C257 C258 1.523 . S
C258 C239 1.368 . S
C258 C252 1.368 . S
C258 C257 1.523 . S
C259 C243 1.429 . S
C259 C255 1.429 . S
C259 C260 1.523 . S
C260 C244 1.368 . S
C260 C256 1.368 . S
C260 C259 1.523 . S
H261 C236 0.950 . S
H262 C238 0.950 . S
H263 C239 0.949 1_655 S
H264 C241 0.950 1_655 S
H265 C243 0.950 1_655 S
C266 C267 1.349 . S
C266 C268 1.327 . S
C266 H291 0.950 . S
C267 C266 1.349 . S
C267 C283 1.349 1_545 S
C268 C266 1.327 . S
C268 C287 1.428 . S
C268 H292 0.950 . S
C269 C286 1.574 . S
C269 C288 1.368 1_565 S
C269 H293 0.949 . S
H270 C274 0.949 . S
C271 C272 1.349 1_565 S
C271 C273 1.327 . S
C271 H294 0.950 . S
C272 C271 1.349 1_545 S
C272 C284 1.349 . S
C273 C271 1.327 . S
C273 C289 1.429 1_565 S
C273 H295 0.950 . S
C274 H270 0.949 . S
C274 C282 1.574 . S
C274 C290 1.368 . S
H275 C283 0.950 . S
H276 C281 0.950 . S
H277 C282 0.949 . S
H278 C284 0.950 . S
H279 C285 0.950 . S
H280 C286 0.949 . S
C281 H276 0.950 . S
C281 C283 1.327 . S
C281 C287 1.429 1_565 S
C282 C274 1.574 . S
C282 H277 0.949 . S
C282 C288 1.368 . S
C283 C267 1.349 1_565 S
C283 H275 0.950 . S
C283 C281 1.327 . S
C284 C272 1.349 . S
C284 H278 0.950 . S
C284 C285 1.327 . S
C285 H279 0.950 . S
C285 C284 1.327 . S
C285 C289 1.429 . S
C286 C269 1.574 . S
C286 H280 0.949 . S
C286 C290 1.368 1_565 S
C287 C268 1.428 . S
C287 C281 1.429 1_545 S
C287 C288 1.523 . S
C288 C269 1.368 1_545 S
C288 C282 1.368 . S
C288 C287 1.523 . S
C289 C273 1.429 1_545 S
C289 C285 1.429 . S
C289 C290 1.523 . S
C290 C274 1.368 . S
C290 C286 1.368 1_545 S
C290 C289 1.523 . S
H291 C266 0.950 . S
H292 C268 0.950 . S
H293 C269 0.949 . S
H294 C271 0.950 . S
H295 C273 0.950 . S
C296 C297 1.349 . S
C296 C298 1.327 . S
C296 H321 0.950 . S
C297 C296 1.349 . S
C297 C313 1.349 . S
C298 C296 1.327 . S
C298 C317 1.429 . S
C298 H322 0.950 . S
C299 C316 1.574 . S
C299 C318 1.368 . S
C299 H323 0.949 . S
H300 C304 0.949 . S
C301 C302 1.349 . S
C301 C303 1.327 . S
C301 H324 0.950 . S
C302 C301 1.349 . S
C302 C314 1.349 . S
C303 C301 1.327 . S
C303 C319 1.429 . S
C303 H325 0.950 . S
C304 H300 0.949 . S
C304 C312 1.574 . S
C304 C320 1.368 . S
H305 C313 0.950 . S
H306 C311 0.950 . S
H307 C312 0.949 . S
H308 C314 0.950 . S
H309 C315 0.950 . S
H310 C316 0.949 . S
C311 H306 0.950 . S
C311 C313 1.327 . S
C311 C317 1.429 . S
C312 C304 1.574 . S
C312 H307 0.949 . S
C312 C318 1.368 . S
C313 C297 1.349 . S
C313 H305 0.950 . S
C313 C311 1.327 . S
C314 C302 1.349 . S
C314 H308 0.950 . S
C314 C315 1.327 . S
C315 H309 0.950 . S
C315 C314 1.327 . S
C315 C319 1.429 . S
C316 C299 1.574 . S
C316 H310 0.949 . S
C316 C320 1.368 . S
C317 C298 1.429 . S
C317 C311 1.429 . S
C317 C318 1.523 . S
C318 C299 1.368 . S
C318 C312 1.368 . S
C318 C317 1.523 . S
C319 C303 1.429 . S
C319 C315 1.429 . S
C319 C320 1.523 . S
C320 C304 1.368 . S
C320 C316 1.368 . S
C320 C319 1.523 . S
H321 C296 0.950 . S
H322 C298 0.950 . S
H323 C299 0.949 . S
H324 C301 0.950 . S
H325 C303 0.950 . S
C326 C327 1.349 . S
C326 C328 1.327 . S
C326 H351 0.950 . S
C327 C326 1.349 . S
C327 C343 1.349 1_545 S
C328 C326 1.327 . S
C328 C347 1.428 . S
C328 H352 0.950 . S
C329 C346 1.574 . S
C329 C348 1.368 1_565 S
C329 H353 0.949 . S
H330 C334 0.949 . S
C331 C332 1.349 1_565 S
C331 C333 1.327 . S
C331 H354 0.950 . S
C332 C331 1.349 1_545 S
C332 C344 1.349 . S
C333 C331 1.327 . S
C333 C349 1.429 1_565 S
C333 H355 0.950 . S
C334 H330 0.949 . S
C334 C342 1.574 . S
C334 C350 1.368 . S
H335 C343 0.950 . S
H336 C341 0.950 . S
H337 C342 0.949 . S
H338 C344 0.950 . S
H339 C345 0.950 . S
H340 C346 0.949 . S
C341 H336 0.950 . S
C341 C343 1.327 . S
C341 C347 1.429 1_565 S
C342 C334 1.574 . S
C342 H337 0.949 . S
C342 C348 1.368 . S
C343 C327 1.349 1_565 S
C343 H335 0.950 . S
C343 C341 1.327 . S
C344 C332 1.349 . S
C344 H338 0.950 . S
C344 C345 1.327 . S
C345 H339 0.950 . S
C345 C344 1.327 . S
C345 C349 1.429 . S
C346 C329 1.574 . S
C346 H340 0.949 . S
C346 C350 1.368 1_565 S
C347 C328 1.428 . S
C347 C341 1.429 1_545 S
C347 C348 1.523 . S
C348 C329 1.368 1_545 S
C348 C342 1.368 . S
C348 C347 1.523 . S
C349 C333 1.429 1_545 S
C349 C345 1.429 . S
C349 C350 1.523 . S
C350 C334 1.368 . S
C350 C346 1.368 1_545 S
C350 C349 1.523 . S
H351 C326 0.950 . S
H352 C328 0.950 . S
H353 C329 0.949 . S
H354 C331 0.950 . S
H355 C333 0.950 . S
C356 C357 1.349 . S
C356 C358 1.327 . S
C356 H381 0.950 . S
C357 C356 1.349 . S
C357 C373 1.349 . S
C358 C356 1.327 . S
C358 C377 1.429 . S
C358 H382 0.950 . S
C359 C376 1.574 . S
C359 C378 1.368 . S
C359 H383 0.949 . S
H360 C364 0.949 . S
C361 C362 1.349 . S
C361 C363 1.327 . S
C361 H384 0.950 . S
C362 C361 1.349 . S
C362 C374 1.349 . S
C363 C361 1.327 . S
C363 C379 1.429 . S
C363 H385 0.950 . S
C364 H360 0.949 . S
C364 C372 1.574 . S
C364 C380 1.368 . S
H365 C373 0.950 . S
H366 C371 0.950 . S
H367 C372 0.949 . S
H368 C374 0.950 . S
H369 C375 0.950 . S
H370 C376 0.949 . S
C371 H366 0.950 . S
C371 C373 1.327 . S
C371 C377 1.429 . S
C372 C364 1.574 . S
C372 H367 0.949 . S
C372 C378 1.368 . S
C373 C357 1.349 . S
C373 H365 0.950 . S
C373 C371 1.327 . S
C374 C362 1.349 . S
C374 H368 0.950 . S
C374 C375 1.327 . S
C375 H369 0.950 . S
C375 C374 1.327 . S
C375 C379 1.429 . S
C376 C359 1.574 . S
C376 H370 0.949 . S
C376 C380 1.368 . S
C377 C358 1.429 . S
C377 C371 1.429 . S
C377 C378 1.523 . S
C378 C359 1.368 . S
C378 C372 1.368 . S
C378 C377 1.523 . S
C379 C363 1.429 . S
C379 C375 1.429 . S
C379 C380 1.523 . S
C380 C364 1.368 . S
C380 C376 1.368 . S
C380 C379 1.523 . S
H381 C356 0.950 . S
H382 C358 0.950 . S
H383 C359 0.949 . S
H384 C361 0.950 . S
H385 C363 0.950 . S
C386 C387 1.349 1_565 S
C386 C388 1.327 . S
C386 H411 0.950 . S
C387 C386 1.349 1_545 S
C387 C403 1.349 . S
C388 C386 1.327 . S
C388 C407 1.429 1_565 S
C388 H412 0.950 . S
C389 C406 1.574 . S
C389 C408 1.368 . S
C389 H413 0.949 . S
H390 C394 0.949 . S
C391 C392 1.349 . S
C391 C393 1.327 . S
C391 H414 0.950 . S
C392 C391 1.349 . S
C392 C404 1.349 1_545 S
C393 C391 1.327 . S
C393 C409 1.429 . S
C393 H415 0.950 . S
C394 H390 0.949 . S
C394 C402 1.574 . S
C394 C410 1.368 1_565 S
H395 C403 0.950 . S
H396 C401 0.950 . S
H397 C402 0.949 . S
H398 C404 0.950 . S
H399 C405 0.950 . S
H400 C406 0.949 . S
C401 H396 0.950 . S
C401 C403 1.327 . S
C401 C407 1.428 . S
C402 C394 1.574 . S
C402 H397 0.949 . S
C402 C408 1.368 1_565 S
C403 C387 1.349 . S
C403 H395 0.950 . S
C403 C401 1.327 . S
C404 C392 1.349 1_565 S
C404 H398 0.950 . S
C404 C405 1.327 . S
C405 H399 0.950 . S
C405 C404 1.327 . S
C405 C409 1.429 1_565 S
C406 C389 1.574 . S
C406 H400 0.949 . S
C406 C410 1.368 . S
C407 C388 1.429 1_545 S
C407 C401 1.428 . S
C407 C408 1.523 . S
C408 C389 1.368 . S
C408 C402 1.368 1_545 S
C408 C407 1.523 . S
C409 C393 1.429 . S
C409 C405 1.429 1_545 S
C409 C410 1.523 . S
C410 C394 1.368 1_545 S
C410 C406 1.368 . S
C410 C409 1.523 . S
H411 C386 0.950 . S
H412 C388 0.950 . S
H413 C389 0.949 . S
H414 C391 0.950 . S
H415 C393 0.950 . S
C416 C417 1.349 . S
C416 C418 1.327 . S
C416 H441 0.950 . S
C417 C416 1.349 . S
C417 C433 1.370 . S
C418 C416 1.327 . S
C418 C437 1.429 . S
C418 H442 0.950 . S
C419 C436 1.574 . S
C419 C438 1.368 1_655 S
C419 H443 0.949 . S
H420 C424 0.949 . S
C421 C422 1.370 . S
C421 C423 1.327 . S
C421 H444 0.929 1_455 S
C422 C421 1.370 . S
C422 C434 1.349 . S
C423 C421 1.327 . S
C423 C439 1.431 . S
C423 H445 0.947 1_455 S
C424 H420 0.949 . S
C424 C432 1.574 . S
C424 C440 1.368 . S
H425 C433 0.929 1_655 S
H426 C431 0.947 1_655 S
H427 C432 0.949 . S
H428 C434 0.950 . S
H429 C435 0.950 . S
H430 C436 0.949 . S
C431 H426 0.947 1_455 S
C431 C433 1.327 . S
C431 C437 1.431 . S
C432 C424 1.574 . S
C432 H427 0.949 . S
C432 C438 1.368 . S
C433 C417 1.370 . S
C433 H425 0.929 1_455 S
C433 C431 1.327 . S
C434 C422 1.349 . S
C434 H428 0.950 . S
C434 C435 1.327 . S
C435 H429 0.950 . S
C435 C434 1.327 . S
C435 C439 1.429 . S
C436 C419 1.574 . S
C436 H430 0.949 . S
C436 C440 1.368 1_655 S
C437 C418 1.429 . S
C437 C431 1.431 . S
C437 C438 1.523 . S
C438 C419 1.368 1_455 S
C438 C432 1.368 . S
C438 C437 1.523 . S
C439 C423 1.431 . S
C439 C435 1.429 . S
C439 C440 1.523 . S
C440 C424 1.368 . S
C440 C436 1.368 1_455 S
C440 C439 1.523 . S
H441 C416 0.950 . S
H442 C418 0.950 . S
H443 C419 0.949 . S
H444 C421 0.929 1_655 S
H445 C423 0.947 1_655 S
C446 C447 1.349 . S
C446 C448 1.327 . S
C446 H471 0.950 . S
C447 C446 1.349 . S
C447 C463 1.349 1_545 S
C448 C446 1.327 . S
C448 C467 1.429 . S
C448 H472 0.950 . S
C449 C466 1.574 . S
C449 C468 1.368 1_565 S
C449 H473 0.949 . S
H450 C454 0.949 . S
C451 C452 1.349 1_565 S
C451 C453 1.327 . S
C451 H474 0.950 . S
C452 C451 1.349 1_545 S
C452 C464 1.349 . S
C453 C451 1.327 . S
C453 C469 1.428 1_565 S
C453 H475 0.950 . S
C454 H450 0.949 . S
C454 C462 1.574 . S
C454 C470 1.368 . S
H455 C463 0.950 . S
H456 C461 0.950 . S
H457 C462 0.949 . S
H458 C464 0.950 . S
H459 C465 0.950 . S
H460 C466 0.949 . S
C461 H456 0.950 . S
C461 C463 1.327 . S
C461 C467 1.429 1_565 S
C462 C454 1.574 . S
C462 H457 0.949 . S
C462 C468 1.368 . S
C463 C447 1.349 1_565 S
C463 H455 0.950 . S
C463 C461 1.327 . S
C464 C452 1.349 . S
C464 H458 0.950 . S
C464 C465 1.327 . S
C465 H459 0.950 . S
C465 C464 1.327 . S
C465 C469 1.429 . S
C466 C449 1.574 . S
C466 H460 0.949 . S
C466 C470 1.368 1_565 S
C467 C448 1.429 . S
C467 C461 1.429 1_545 S
C467 C468 1.523 . S
C468 C449 1.368 1_545 S
C468 C462 1.368 . S
C468 C467 1.523 . S
C469 C453 1.428 1_545 S
C469 C465 1.429 . S
C469 C470 1.523 . S
C470 C454 1.368 . S
C470 C466 1.368 1_545 S
C470 C469 1.523 . S
H471 C446 0.950 . S
H472 C448 0.950 . S
H473 C449 0.949 . S
H474 C451 0.950 . S
H475 C453 0.950 . S
C476 C477 1.349 . S
C476 C478 1.327 . S
C476 H501 0.950 . S
C477 C476 1.349 . S
C477 C493 1.349 1_554 S
C478 C476 1.327 . S
C478 C497 1.429 . S
C478 H502 0.950 . S
C479 C496 1.574 . S
C479 C498 1.368 1_556 S
C479 H503 0.949 . S
H480 C484 0.949 . S
C481 C482 1.349 1_556 S
C481 C483 1.327 . S
C481 H504 0.950 . S
C482 C481 1.349 1_554 S
C482 C494 1.349 . S
C483 C481 1.327 . S
C483 C499 1.429 1_556 S
C483 H505 0.950 . S
C484 H480 0.949 . S
C484 C492 1.574 . S
C484 C500 1.368 . S
H485 C493 0.950 . S
H486 C491 0.950 . S
H487 C492 0.949 . S
H488 C494 0.950 . S
H489 C495 0.950 . S
H490 C496 0.949 . S
C491 H486 0.950 . S
C491 C493 1.327 . S
C491 C497 1.429 1_556 S
C492 C484 1.574 . S
C492 H487 0.949 . S
C492 C498 1.368 . S
C493 C477 1.349 1_556 S
C493 H485 0.950 . S
C493 C491 1.327 . S
C494 C482 1.349 . S
C494 H488 0.950 . S
C494 C495 1.327 . S
C495 H489 0.950 . S
C495 C494 1.327 . S
C495 C499 1.429 . S
C496 C479 1.574 . S
C496 H490 0.949 . S
C496 C500 1.368 1_556 S
C497 C478 1.429 . S
C497 C491 1.429 1_554 S
C497 C498 1.523 . S
C498 C479 1.368 1_554 S
C498 C492 1.368 . S
C498 C497 1.523 . S
C499 C483 1.429 1_554 S
C499 C495 1.429 . S
C499 C500 1.523 . S
C500 C484 1.368 . S
C500 C496 1.368 1_554 S
C500 C499 1.523 . S
H501 C476 0.950 . S
H502 C478 0.950 . S
H503 C479 0.949 . S
H504 C481 0.950 . S
H505 C483 0.950 . S
C506 C507 1.349 1_556 S
C506 C508 1.327 . S
C506 H531 0.950 . S
C507 C506 1.349 1_554 S
C507 C523 1.349 . S
C508 C506 1.327 . S
C508 C527 1.429 1_556 S
C508 H532 0.950 . S
C509 C526 1.574 . S
C509 C528 1.368 . S
C509 H533 0.949 . S
H510 C514 0.949 . S
C511 C512 1.349 . S
C511 C513 1.327 . S
C511 H534 0.950 . S
C512 C511 1.349 . S
C512 C524 1.349 1_554 S
C513 C511 1.327 . S
C513 C529 1.429 . S
C513 H535 0.950 . S
C514 H510 0.949 . S
C514 C522 1.574 . S
C514 C530 1.368 1_556 S
H515 C523 0.950 . S
H516 C521 0.950 . S
H517 C522 0.949 . S
H518 C524 0.950 . S
H519 C525 0.950 . S
H520 C526 0.949 . S
C521 H516 0.950 . S
C521 C523 1.327 . S
C521 C527 1.429 . S
C522 C514 1.574 . S
C522 H517 0.949 . S
C522 C528 1.368 1_556 S
C523 C507 1.349 . S
C523 H515 0.950 . S
C523 C521 1.327 . S
C524 C512 1.349 1_556 S
C524 H518 0.950 . S
C524 C525 1.327 . S
C525 H519 0.950 . S
C525 C524 1.327 . S
C525 C529 1.429 1_556 S
C526 C509 1.574 . S
C526 H520 0.949 . S
C526 C530 1.368 . S
C527 C508 1.429 1_554 S
C527 C521 1.429 . S
C527 C528 1.523 . S
C528 C509 1.368 . S
C528 C522 1.368 1_554 S
C528 C527 1.523 . S
C529 C513 1.429 . S
C529 C525 1.429 1_554 S
C529 C530 1.523 . S
C530 C514 1.368 1_554 S
C530 C526 1.368 . S
C530 C529 1.523 . S
H531 C506 0.950 . S
H532 C508 0.950 . S
H533 C509 0.949 . S
H534 C511 0.950 . S
H535 C513 0.950 . S
C536 C537 1.349 . S
C536 C538 1.327 . S
C536 H561 0.950 . S
C537 C536 1.349 . S
C537 C553 1.349 1_554 S
C538 C536 1.327 . S
C538 C557 1.429 . S
C538 H562 0.950 . S
C539 C556 1.574 . S
C539 C558 1.368 1_556 S
C539 H563 0.949 . S
H540 C544 0.949 . S
C541 C542 1.349 1_556 S
C541 C543 1.327 . S
C541 H564 0.950 . S
C542 C541 1.349 1_554 S
C542 C554 1.349 . S
C543 C541 1.327 . S
C543 C559 1.429 1_556 S
C543 H565 0.950 . S
C544 H540 0.949 . S
C544 C552 1.574 . S
C544 C560 1.368 . S
H545 C553 0.950 . S
H546 C551 0.950 . S
H547 C552 0.949 . S
H548 C554 0.950 . S
H549 C555 0.950 . S
H550 C556 0.949 . S
C551 H546 0.950 . S
C551 C553 1.327 . S
C551 C557 1.429 1_556 S
C552 C544 1.574 . S
C552 H547 0.949 . S
C552 C558 1.368 . S
C553 C537 1.349 1_556 S
C553 H545 0.950 . S
C553 C551 1.327 . S
C554 C542 1.349 . S
C554 H548 0.950 . S
C554 C555 1.327 . S
C555 H549 0.950 . S
C555 C554 1.327 . S
C555 C559 1.429 . S
C556 C539 1.574 . S
C556 H550 0.949 . S
C556 C560 1.368 1_556 S
C557 C538 1.429 . S
C557 C551 1.429 1_554 S
C557 C558 1.523 . S
C558 C539 1.368 1_554 S
C558 C552 1.368 . S
C558 C557 1.523 . S
C559 C543 1.429 1_554 S
C559 C555 1.429 . S
C559 C560 1.523 . S
C560 C544 1.368 . S
C560 C556 1.368 1_554 S
C560 C559 1.523 . S
H561 C536 0.950 . S
H562 C538 0.950 . S
H563 C539 0.949 . S
H564 C541 0.950 . S
H565 C543 0.950 . S
C566 C567 1.349 . S
C566 C568 1.327 . S
C566 H591 0.950 . S
C567 C566 1.349 . S
C567 C583 1.349 1_554 S
C568 C566 1.327 . S
C568 C587 1.429 . S
C568 H592 0.950 . S
C569 C586 1.574 . S
C569 C588 1.368 1_556 S
C569 H593 0.949 . S
H570 C574 0.949 . S
C571 C572 1.349 1_556 S
C571 C573 1.327 . S
C571 H594 0.950 . S
C572 C571 1.349 1_554 S
C572 C584 1.349 . S
C573 C571 1.327 . S
C573 C589 1.429 1_556 S
C573 H595 0.950 . S
C574 H570 0.949 . S
C574 C582 1.574 . S
C574 C590 1.368 . S
H575 C583 0.950 . S
H576 C581 0.950 . S
H577 C582 0.949 . S
H578 C584 0.950 . S
H579 C585 0.950 . S
H580 C586 0.949 . S
C581 H576 0.950 . S
C581 C583 1.327 . S
C581 C587 1.429 1_556 S
C582 C574 1.574 . S
C582 H577 0.949 . S
C582 C588 1.368 . S
C583 C567 1.349 1_556 S
C583 H575 0.950 . S
C583 C581 1.327 . S
C584 C572 1.349 . S
C584 H578 0.950 . S
C584 C585 1.327 . S
C585 H579 0.950 . S
C585 C584 1.327 . S
C585 C589 1.429 . S
C586 C569 1.574 . S
C586 H580 0.949 . S
C586 C590 1.368 1_556 S
C587 C568 1.429 . S
C587 C581 1.429 1_554 S
C587 C588 1.523 . S
C588 C569 1.368 1_554 S
C588 C582 1.368 . S
C588 C587 1.523 . S
C589 C573 1.429 1_554 S
C589 C585 1.429 . S
C589 C590 1.523 . S
C590 C574 1.368 . S
C590 C586 1.368 1_554 S
C590 C589 1.523 . S
H591 C566 0.950 . S
H592 C568 0.950 . S
H593 C569 0.949 . S
H594 C571 0.950 . S
H595 C573 0.950 . S
C242 C187 2.059 . S
C237 C53 2.060 . S
C272 C194 1.066 . S
C267 C97 1.068 1_545 S
C302 C189 2.059 . S
C297 C35 2.064 . S
C332 C195 1.237 . S
C327 C91 1.204 1_545 S
C357 C29 2.210 . S
C362 C188 2.269 . S
C392 C197 1.237 . S
C387 C109 1.204 1_545 S
C417 C47 2.210 . S
C422 C186 2.264 . S
C447 C115 1.068 1_545 S
C452 C196 1.066 . S
C477 C153 1.666 . S
C482 C191 1.727 . S
C507 C171 1.666 . S
C512 C190 1.732 . S
C542 C193 1.498 . S
C537 C159 1.493 . S
C572 C192 1.498 . S
C567 C177 1.497 . S
