# Generated by pormake.
# Topology apo, (3,6)-cn, num edge types: 1
# Building blocks:
#     Node 0, Type 0, BuildingBlock: CUQRIR_clean_linker_1, # of connection points: 3
#     Node 1, Type 0, BuildingBlock: CUQRIR_clean_linker_1, # of connection points: 3
#     Node 2, Type 0, BuildingBlock: CUQRIR_clean_linker_1, # of connection points: 3
#     Node 3, Type 0, BuildingBlock: CUQRIR_clean_linker_1, # of connection points: 3
#     Node 4, Type 0, BuildingBlock: CUQRIR_clean_linker_1, # of connection points: 3
#     Node 5, Type 0, BuildingBlock: CUQRIR_clean_linker_1, # of connection points: 3
#     Node 6, Type 0, BuildingBlock: CUQRIR_clean_linker_1, # of connection points: 3
#     Node 7, Type 0, BuildingBlock: CUQRIR_clean_linker_1, # of connection points: 3
#     Node 8, Type 1, BuildingBlock: KUMBOL_clean_sbu_1, # of connection points: 6
#     Node 9, Type 1, BuildingBlock: KUMBOL_clean_sbu_1, # of connection points: 6
#     Node 10, Type 1, BuildingBlock: KUMBOL_clean_sbu_1, # of connection points: 6
#     Node 11, Type 1, BuildingBlock: KUMBOL_clean_sbu_1, # of connection points: 6
#     Edge 12, Type (0, 1), BuildingBlock: EZIPEK_clean_linker_0, # of connection points: 2
#     Edge 13, Type (0, 1), BuildingBlock: EZIPEK_clean_linker_0, # of connection points: 2
#     Edge 14, Type (0, 1), BuildingBlock: EZIPEK_clean_linker_0, # of connection points: 2
#     Edge 15, Type (0, 1), BuildingBlock: EZIPEK_clean_linker_0, # of connection points: 2
#     Edge 16, Type (0, 1), BuildingBlock: EZIPEK_clean_linker_0, # of connection points: 2
#     Edge 17, Type (0, 1), BuildingBlock: EZIPEK_clean_linker_0, # of connection points: 2
#     Edge 18, Type (0, 1), BuildingBlock: EZIPEK_clean_linker_0, # of connection points: 2
#     Edge 19, Type (0, 1), BuildingBlock: EZIPEK_clean_linker_0, # of connection points: 2
#     Edge 20, Type (0, 1), BuildingBlock: EZIPEK_clean_linker_0, # of connection points: 2
#     Edge 21, Type (0, 1), BuildingBlock: EZIPEK_clean_linker_0, # of connection points: 2
#     Edge 22, Type (0, 1), BuildingBlock: EZIPEK_clean_linker_0, # of connection points: 2
#     Edge 23, Type (0, 1), BuildingBlock: EZIPEK_clean_linker_0, # of connection points: 2
#     Edge 24, Type (0, 1), BuildingBlock: EZIPEK_clean_linker_0, # of connection points: 2
#     Edge 25, Type (0, 1), BuildingBlock: EZIPEK_clean_linker_0, # of connection points: 2
#     Edge 26, Type (0, 1), BuildingBlock: EZIPEK_clean_linker_0, # of connection points: 2
#     Edge 27, Type (0, 1), BuildingBlock: EZIPEK_clean_linker_0, # of connection points: 2
#     Edge 28, Type (0, 1), BuildingBlock: EZIPEK_clean_linker_0, # of connection points: 2
#     Edge 29, Type (0, 1), BuildingBlock: EZIPEK_clean_linker_0, # of connection points: 2
#     Edge 30, Type (0, 1), BuildingBlock: EZIPEK_clean_linker_0, # of connection points: 2
#     Edge 31, Type (0, 1), BuildingBlock: EZIPEK_clean_linker_0, # of connection points: 2
#     Edge 32, Type (0, 1), BuildingBlock: EZIPEK_clean_linker_0, # of connection points: 2
#     Edge 33, Type (0, 1), BuildingBlock: EZIPEK_clean_linker_0, # of connection points: 2
#     Edge 34, Type (0, 1), BuildingBlock: EZIPEK_clean_linker_0, # of connection points: 2
#     Edge 35, Type (0, 1), BuildingBlock: EZIPEK_clean_linker_0, # of connection points: 2
# Relax obj value: 0.043
# Max RMSD: 0.251
# Mean RMSD: 0.193
data_MOF--net-apo--node1-KUMBOL_clean_sbu_1--node2-CUQRIR_clean_linker_1--edge1-EZIPEK_clean_linker_0
_symmetry_space_group_name_H-M    P1
_symmetry_Int_Tables_number       1
_symmetry_cell_setting            triclinic
loop_
_symmetry_equiv_pos_as_xyz
'x, y, z'
_cell_length_a     18.80057
_cell_length_b     27.636516
_cell_length_c     36.012079
_cell_angle_alpha  90.357176
_cell_angle_beta   90.096824
_cell_angle_gamma 90.322678
loop_
_atom_site_label
_atom_site_type_symbol
_atom_site_fract_x
_atom_site_fract_y
_atom_site_fract_z
_atom_type_partial_charge
C0 C 0.22672 0.33358 0.41466 0.0
N1 N 0.27337 0.37098 0.41898 0.0
N2 N 0.22896 0.31581 0.3797 0.0
C3 C 0.17943 0.31383 0.44461 0.0
C4 C 0.27871 0.34322 0.36284 0.0
N5 N 0.30476 0.37793 0.38619 0.0
C6 C 0.30034 0.33662 0.32293 0.0
H7 H 0.20403 0.2808 0.45622 0.0
H8 H 0.12692 0.30336 0.43284 0.0
H9 H 0.17197 0.34069 0.46728 0.0
H10 H 0.25817 0.35121 0.30463 0.0
H11 H 0.30568 0.29751 0.31644 0.0
H12 H 0.35143 0.35534 0.31704 0.0
C13 C 0.25235 0.1871 0.91728 0.0
N14 N 0.21254 0.14621 0.92051 0.0
N15 N 0.26367 0.19768 0.88112 0.0
C16 C 0.28329 0.21517 0.94957 0.0
C17 C 0.22887 0.16219 0.8623 0.0
N18 N 0.19748 0.13096 0.88604 0.0
C19 C 0.22847 0.15658 0.82058 0.0
H20 H 0.24567 0.2152 0.97329 0.0
H21 H 0.29643 0.25293 0.9421 0.0
H22 H 0.33333 0.19788 0.95871 0.0
H23 H 0.26787 0.12866 0.81256 0.0
H24 H 0.2422 0.19104 0.80663 0.0
H25 H 0.17593 0.14402 0.81032 0.0
C26 C 0.74514 0.17886 0.62691 0.0
N27 N 0.79348 0.14227 0.62553 0.0
N28 N 0.72992 0.19113 0.66236 0.0
C29 C 0.7134 0.20358 0.59371 0.0
C30 C 0.76868 0.1604 0.68292 0.0
N31 N 0.80763 0.13099 0.66091 0.0
C32 C 0.77022 0.16016 0.72488 0.0
H33 H 0.74688 0.23528 0.58634 0.0
H34 H 0.65926 0.21695 0.60022 0.0
H35 H 0.71088 0.17864 0.56947 0.0
H36 H 0.71719 0.16773 0.73674 0.0
H37 H 0.80712 0.18904 0.73462 0.0
H38 H 0.78852 0.12512 0.7361 0.0
C39 C 0.74096 0.31602 0.12927 0.0
N40 N 0.70671 0.35878 0.12526 0.0
N41 N 0.76731 0.31165 0.16395 0.0
C42 C 0.75138 0.27915 0.0989 0.0
C43 C 0.74829 0.35301 0.1812 0.0
N44 N 0.7105 0.38169 0.15805 0.0
C45 C 0.7644 0.36449 0.22118 0.0
H46 H 0.752 0.24207 0.11055 0.0
H47 H 0.80353 0.2858 0.08543 0.0
H48 H 0.70892 0.2817 0.07757 0.0
H49 H 0.81634 0.34892 0.22937 0.0
H50 H 0.7226 0.34803 0.23886 0.0
H51 H 0.76508 0.40418 0.22611 0.0
C52 C 0.76925 0.67265 0.62987 0.0
N53 N 0.72441 0.63475 0.6246 0.0
N54 N 0.79283 0.67415 0.66521 0.0
C55 C 0.789 0.70872 0.60043 0.0
C56 C 0.76093 0.63582 0.68141 0.0
N57 N 0.71875 0.6115 0.65692 0.0
C58 C 0.76745 0.62408 0.7219 0.0
H59 H 0.81247 0.68963 0.57623 0.0
H60 H 0.82754 0.73614 0.61088 0.0
H61 H 0.74023 0.72716 0.59063 0.0
H62 H 0.72848 0.64589 0.73782 0.0
H63 H 0.82146 0.63317 0.73232 0.0
H64 H 0.7564 0.58514 0.72653 0.0
C65 C 0.74175 0.82891 0.12853 0.0
N66 N 0.77953 0.87056 0.12513 0.0
N67 N 0.71755 0.82381 0.16358 0.0
C68 C 0.72712 0.79377 0.09741 0.0
C69 C 0.74176 0.86365 0.18156 0.0
N70 N 0.78065 0.892 0.15848 0.0
C71 C 0.72982 0.87364 0.22217 0.0
H72 H 0.67962 0.80599 0.08183 0.0
H73 H 0.71619 0.75697 0.10821 0.0
H74 H 0.77275 0.79254 0.07793 0.0
H75 H 0.76918 0.85304 0.23865 0.0
H76 H 0.67593 0.86135 0.23053 0.0
H77 H 0.73604 0.91277 0.22865 0.0
C78 C 0.2667 0.82639 0.41371 0.0
N79 N 0.22648 0.86654 0.41792 0.0
N80 N 0.28994 0.82221 0.3784 0.0
C81 C 0.28354 0.79147 0.4444 0.0
C82 C 0.26371 0.86175 0.36129 0.0
N83 N 0.22405 0.88874 0.38509 0.0
C84 C 0.27336 0.87251 0.32057 0.0
H85 H 0.31031 0.81091 0.46759 0.0
H86 H 0.3184 0.76169 0.43485 0.0
H87 H 0.2332 0.77612 0.45541 0.0
H88 H 0.23525 0.85024 0.30417 0.0
H89 H 0.32744 0.86309 0.31103 0.0
H90 H 0.26411 0.91133 0.31466 0.0
C91 C 0.24522 0.68303 0.91234 0.0
N92 N 0.28599 0.6432 0.91667 0.0
N93 N 0.23293 0.69146 0.87609 0.0
C94 C 0.2195 0.71521 0.94341 0.0
C95 C 0.26693 0.65525 0.85818 0.0
N96 N 0.29867 0.62513 0.88278 0.0
C97 C 0.26772 0.64896 0.81671 0.0
H98 H 0.16403 0.72678 0.93815 0.0
H99 H 0.25323 0.74827 0.94448 0.0
H100 H 0.22193 0.6969 0.97068 0.0
H101 H 0.27038 0.68466 0.80288 0.0
H102 H 0.21756 0.63098 0.80782 0.0
H103 H 0.31337 0.6265 0.8077 0.0
C104 C 0.75962 0.08244 0.30263 0.0
C105 C 0.73883 0.99641 0.31105 0.0
C106 C 0.78553 0.0366 0.31028 0.0
C107 C 0.66659 1.00269 0.30259 0.0
C108 C 0.68612 0.08934 0.29694 0.0
C109 C 0.64016 0.0491 0.29587 0.0
N110 N 0.80534 0.1207 0.30335 0.0
C111 C 0.78055 0.16702 0.30168 0.0
C112 C 0.66058 0.13664 0.2939 0.0
C113 C 0.7078 0.17566 0.29712 0.0
Gd114 Gd 0.08572 0.10326 0.23309 0.0
Gd115 Gd 0.92564 0.1022 0.31179 0.0
N116 N 0.85531 0.03185 0.31939 0.0
C117 C 0.76545 0.95145 0.32179 0.0
C118 C 0.87954 0.98902 0.3334 0.0
C119 C 0.83571 0.94803 0.33383 0.0
H120 H 0.93262 0.98562 0.34441 0.0
H121 H 0.85602 0.91393 0.34385 0.0
H122 H 0.08218 0.2215 0.20856 0.0
H123 H 0.81678 0.19739 0.30403 0.0
H124 H 0.15847 0.29383 0.2134 0.0
H125 H 0.73142 0.91968 0.32249 0.0
H126 H 0.63019 0.97214 0.30263 0.0
H127 H 0.19525 0.00886 0.24569 0.0
H128 H 0.60437 0.14344 0.28998 0.0
H129 H 0.68832 0.21237 0.29566 0.0
H130 H 0.37414 0.23502 0.26749 0.0
H131 H 0.58373 0.05363 0.29091 0.0
H132 H 0.39795 0.06368 0.28124 0.0
H133 H 0.31868 0.99436 0.26654 0.0
N134 N 0.20382 0.08546 0.25027 0.0
C135 C 0.24813 0.1239 0.25545 0.0
C136 C 0.2296 0.03931 0.25208 0.0
C137 C 0.34383 0.0702 0.27225 0.0
C138 C 0.29932 0.03099 0.26391 0.0
C139 C 0.31899 0.11737 0.26731 0.0
H140 H 0.41772 0.15359 0.28214 0.0
N141 N 0.15743 0.17413 0.23246 0.0
C142 C 0.22408 0.16963 0.2465 0.0
C143 C 0.24518 0.25544 0.23861 0.0
C144 C 0.26965 0.21022 0.25012 0.0
C145 C 0.13506 0.21783 0.21923 0.0
C146 C 0.17783 0.25912 0.22269 0.0
O147 O 0.89675 0.06729 0.25676 0.0
O148 O 0.00702 0.04092 0.23882 0.0
O149 O 0.10949 0.12059 0.17414 0.0
O150 O 0.10647 0.04627 0.19425 0.0
O151 O 0.00247 0.04021 0.31236 0.0
O152 O 0.1104 0.06275 0.28638 0.0
O153 O 0.06118 0.16877 0.26789 0.0
O154 O 0.0352 0.13359 0.32278 0.0
O155 O 0.92149 0.08425 0.37032 0.0
O156 O 0.90466 0.15832 0.3528 0.0
O157 O 0.98011 0.13505 0.21564 0.0
O158 O 0.92048 0.16272 0.26843 0.0
C159 C 0.93748 0.04199 0.23432 0.0
C160 C 0.07179 0.03754 0.30995 0.0
C161 C 0.13479 0.05407 0.12942 0.0
C162 C 0.15877 0.06026 0.06286 0.0
C163 C 0.16327 0.98221 0.09302 0.0
C164 C 0.14617 1.00384 0.1268 0.0
C165 C 0.1695 0.01015 0.06125 0.0
C166 C 0.1413 0.08252 0.0971 0.0
C167 C 0.11659 0.07482 0.16626 0.0
C168 C 0.33871 0.20422 0.26415 0.0
C169 C 0.36346 0.15787 0.27257 0.0
H170 H 0.27839 0.28747 0.24115 0.0
C171 C 0.06536 0.16837 0.30401 0.0
C172 C 0.93213 0.16254 0.23196 0.0
C173 C 0.84974 0.1329 0.40886 0.0
C174 C 0.81648 0.1364 0.4741 0.0
C175 C 0.72638 0.14492 0.42641 0.0
C176 C 0.77814 0.13927 0.39907 0.0
C177 C 0.74541 0.14382 0.4638 0.0
C178 C 0.8686 0.13071 0.44655 0.0
C179 C 0.90559 0.12813 0.38056 0.0
H180 H 0.17209 0.94359 0.09152 0.0
H181 H 0.14208 0.9809 0.15098 0.0
H182 H 0.18357 0.99272 0.03527 0.0
H183 H 0.13357 0.12132 0.09851 0.0
H184 H 0.67132 0.14993 0.41858 0.0
H185 H 0.76175 0.13983 0.37054 0.0
H186 H 0.70458 0.14784 0.48478 0.0
H187 H 0.9235 0.12466 0.45449 0.0
C188 C 0.74684 0.43079 0.78246 0.0
C189 C 0.76261 0.51754 0.79149 0.0
C190 C 0.71943 0.47575 0.79294 0.0
C191 C 0.83314 0.51386 0.77905 0.0
C192 C 0.81801 0.42704 0.77046 0.0
C193 C 0.8607 0.46882 0.76855 0.0
N194 N 0.70445 0.39076 0.78456 0.0
C195 C 0.73115 0.34582 0.77728 0.0
C196 C 0.84463 0.38127 0.7613 0.0
C197 C 0.80118 0.34047 0.76504 0.0
Gd198 Gd 0.42732 0.40722 0.73062 0.0
Gd199 Gd 0.59031 0.40473 0.80819 0.0
N200 N 0.65041 0.47865 0.80423 0.0
C201 C 0.7337 0.56184 0.8028 0.0
C202 C 0.62227 0.52149 0.81577 0.0
C203 C 0.66328 0.5638 0.81494 0.0
H204 H 0.56827 0.52327 0.82556 0.0
H205 H 0.64062 0.59788 0.8238 0.0
H206 H 0.44931 0.29409 0.70029 0.0
H207 H 0.69906 0.31385 0.78169 0.0
H208 H 0.37809 0.21888 0.6939 0.0
H209 H 0.76535 0.59471 0.80235 0.0
H210 H 0.86696 0.54567 0.7776 0.0
H211 H 0.31156 0.49781 0.74283 0.0
H212 H 0.89905 0.37694 0.75204 0.0
H213 H 0.82184 0.30482 0.75892 0.0
H214 H 0.14151 0.2673 0.72778 0.0
H215 H 0.91543 0.4666 0.75932 0.0
H216 H 0.10224 0.43639 0.75036 0.0
H217 H 0.18182 0.50807 0.75101 0.0
N218 N 0.30498 0.42122 0.73771 0.0
C219 C 0.26187 0.38175 0.73557 0.0
C220 C 0.27707 0.46634 0.7425 0.0
C221 C 0.15897 0.43173 0.74662 0.0
C222 C 0.2037 0.47229 0.74696 0.0
C223 C 0.1878 0.38575 0.74057 0.0
H224 H 0.08795 0.3462 0.74271 0.0
N225 N 0.36269 0.33569 0.72026 0.0
C226 C 0.29167 0.33754 0.72661 0.0
C227 C 0.28072 0.2524 0.71203 0.0
C228 C 0.24874 0.29582 0.7231 0.0
C229 C 0.39335 0.29449 0.70694 0.0
C230 C 0.35314 0.25196 0.70328 0.0
O231 O 0.60409 0.44348 0.75275 0.0
O232 O 0.49245 0.47102 0.74686 0.0
O233 O 0.43533 0.39287 0.67085 0.0
O234 O 0.40561 0.46356 0.69068 0.0
O235 O 0.49572 0.44877 0.82548 0.0
O236 O 0.40232 0.45215 0.7826 0.0
O237 O 0.41095 0.34996 0.77376 0.0
O238 O 0.49362 0.35822 0.82249 0.0
O239 O 0.607 0.42629 0.86599 0.0
O240 O 0.65824 0.3627 0.84395 0.0
O241 O 0.53299 0.36833 0.72011 0.0
O242 O 0.57085 0.33681 0.77565 0.0
C243 C 0.55858 0.47266 0.73695 0.0
C244 C 0.43117 0.46192 0.8156 0.0
C245 C 0.35541 0.43823 0.6333 0.0
C246 C 0.31435 0.42879 0.56907 0.0
C247 C 0.2348 0.46061 0.61612 0.0
C248 C 0.28815 0.45655 0.64271 0.0
C249 C 0.24757 0.44665 0.57962 0.0
C250 C 0.36864 0.42478 0.59606 0.0
C251 C 0.41235 0.43553 0.66178 0.0
C252 C 0.17536 0.29906 0.72993 0.0
C253 C 0.14489 0.34399 0.73847 0.0
H254 H 0.2497 0.21942 0.70923 0.0
C255 C 0.43479 0.34032 0.80726 0.0
C256 C 0.56681 0.33497 0.73937 0.0
C257 C 0.63209 0.36263 0.90799 0.0
C258 C 0.64245 0.35818 0.97543 0.0
C259 C 0.60646 0.28723 0.9397 0.0
C260 C 0.61105 0.31372 0.90698 0.0
C261 C 0.62272 0.30911 0.97366 0.0
C262 C 0.64585 0.38516 0.94246 0.0
C263 C 0.64628 0.38896 0.87331 0.0
H264 H 0.18339 0.47493 0.62382 0.0
H265 H 0.27664 0.46862 0.67047 0.0
H266 H 0.20522 0.45008 0.55936 0.0
H267 H 0.42055 0.4114 0.58809 0.0
H268 H 0.59118 0.24942 0.93868 0.0
H269 H 0.5996 0.29562 0.88086 0.0
H270 H 0.6198 0.28771 0.99873 0.0
H271 H 0.66143 0.42298 0.94358 0.0
C272 C 0.74507 0.89294 0.7848 0.0
C273 C 0.71634 0.80698 0.78695 0.0
C274 C 0.76501 0.84542 0.79236 0.0
C275 C 0.6474 0.81677 0.77412 0.0
C276 C 0.67564 0.90269 0.77199 0.0
C277 C 0.62718 0.86441 0.7666 0.0
N278 N 0.79322 0.92947 0.7899 0.0
C279 C 0.7735 0.97662 0.78513 0.0
C280 C 0.65665 0.95072 0.76515 0.0
C281 C 0.70559 0.98783 0.77206 0.0
Gd282 Gd 0.0694 0.90533 0.7331 0.0
Gd283 Gd 0.9054 0.90499 0.81175 0.0
N284 N 0.83299 0.83656 0.80342 0.0
C285 C 0.73877 0.75966 0.79406 0.0
C286 C 0.85483 0.79068 0.81101 0.0
C287 C 0.80826 0.75152 0.8062 0.0
H288 H 0.90894 0.78427 0.81926 0.0
H289 H 0.82617 0.71505 0.81151 0.0
H290 H 0.0557 0.01823 0.70321 0.0
H291 H 0.80938 0.006 0.79202 0.0
H292 H 0.1257 0.09469 0.70547 0.0
H293 H 0.70304 0.72917 0.79003 0.0
H294 H 0.60941 0.78767 0.76968 0.0
H295 H 0.18502 0.81294 0.73952 0.0
H296 H 0.60392 0.95961 0.7552 0.0
H297 H 0.69075 0.02517 0.76777 0.0
H298 H 0.35575 0.04373 0.74789 0.0
H299 H 0.57375 0.8713 0.75669 0.0
H300 H 0.39323 0.87272 0.75763 0.0
H301 H 0.31406 0.80152 0.74969 0.0
N302 N 0.1914 0.88977 0.74183 0.0
C303 C 0.23466 0.92921 0.7442 0.0
C304 C 0.21926 0.84425 0.74296 0.0
C305 C 0.33681 0.87794 0.75308 0.0
C306 C 0.29229 0.83765 0.74854 0.0
C307 C 0.30829 0.92448 0.7506 0.0
H308 H 0.40779 0.96336 0.75845 0.0
N309 N 0.13617 0.97681 0.72839 0.0
C310 C 0.20592 0.97428 0.73762 0.0
C311 C 0.21898 0.06031 0.7279 0.0
C312 C 0.24925 0.01608 0.73803 0.0
C313 C 0.10859 0.01846 0.71465 0.0
C314 C 0.14869 0.06125 0.71521 0.0
O315 O 0.89314 0.8624 0.7592 0.0
O316 O 0.00345 0.83767 0.74076 0.0
O317 O 0.07339 0.92738 0.67454 0.0
O318 O 0.08544 0.85261 0.68958 0.0
O319 O 0.00278 0.85933 0.8254 0.0
O320 O 0.09071 0.85361 0.77962 0.0
O321 O 0.07838 0.96288 0.77983 0.0
O322 O 0.99475 0.95384 0.82768 0.0
O323 O 0.89699 0.87731 0.86808 0.0
O324 O 0.83987 0.94158 0.85249 0.0
O325 O 0.96046 0.93545 0.72346 0.0
O326 O 0.92136 0.97215 0.77634 0.0
C327 C 0.93389 0.8336 0.73992 0.0
C328 C 0.06428 0.84309 0.81255 0.0
C329 C 0.14422 0.87694 0.63502 0.0
C330 C 0.18304 0.87675 0.57035 0.0
C331 C 0.25536 0.83837 0.61752 0.0
C332 C 0.20597 0.85124 0.64443 0.0
C333 C 0.24362 0.85041 0.58066 0.0
C334 C 0.13362 0.89064 0.59778 0.0
C335 C 0.08727 0.88385 0.66282 0.0
C336 C 0.32168 0.01198 0.74697 0.0
C337 C 0.35128 0.9662 0.75299 0.0
H338 H 0.25026 0.09336 0.72806 0.0
C339 C 0.0511 0.97394 0.81292 0.0
C340 C 0.9337 0.9731 0.74036 0.0
C341 C 0.87749 0.93621 0.91473 0.0
C342 C 0.87021 0.94018 0.9823 0.0
C343 C 0.93332 1.00272 0.94841 0.0
C344 C 0.91755 0.97925 0.91495 0.0
C345 C 0.9095 0.98349 0.98194 0.0
C346 C 0.85445 0.91644 0.94856 0.0
C347 C 0.85719 0.91279 0.87943 0.0
H348 H 0.3022 0.8181 0.62516 0.0
H349 H 0.21517 0.83928 0.6723 0.0
H350 H 0.2822 0.83929 0.56001 0.0
H351 H 0.08637 0.91047 0.58998 0.0
H352 H 0.96377 0.03606 0.94828 0.0
H353 H 0.93588 0.99503 0.88925 0.0
H354 H 0.92186 1.00225 1.00768 0.0
H355 H 0.82363 0.88315 0.94868 0.0
C356 C 0.73893 0.62977 0.29092 0.0
C357 C 0.75392 0.71529 0.30496 0.0
C358 C 0.71087 0.67343 0.30285 0.0
C359 C 0.82515 0.71301 0.29349 0.0
C360 C 0.81141 0.62683 0.2811 0.0
C361 C 0.85393 0.66883 0.28176 0.0
N362 N 0.69628 0.5898 0.29062 0.0
C363 C 0.72443 0.54524 0.28333 0.0
C364 C 0.83934 0.58162 0.27162 0.0
C365 C 0.79584 0.54059 0.27318 0.0
Gd366 Gd 0.42056 0.60477 0.22939 0.0
Gd367 Gd 0.57755 0.60172 0.30963 0.0
N368 N 0.64218 0.67431 0.31429 0.0
C369 C 0.72472 0.75771 0.31982 0.0
C370 C 0.61577 0.71401 0.33216 0.0
C371 C 0.65569 0.7568 0.33414 0.0
H372 H 0.56333 0.71258 0.34428 0.0
H373 H 0.63353 0.7888 0.34705 0.0
H374 H 0.44852 0.49727 0.18678 0.0
H375 H 0.69257 0.51282 0.28611 0.0
H376 H 0.37765 0.42589 0.16858 0.0
H377 H 0.75589 0.79074 0.32171 0.0
H378 H 0.85894 0.74488 0.29457 0.0
H379 H 0.30493 0.68287 0.26804 0.0
H380 H 0.89478 0.57782 0.26403 0.0
H381 H 0.81755 0.50523 0.26709 0.0
H382 H 0.1426 0.46101 0.21221 0.0
H383 H 0.90949 0.66733 0.27391 0.0
H384 H 0.1031 0.61204 0.27428 0.0
H385 H 0.17923 0.68365 0.28654 0.0
N386 N 0.30308 0.60941 0.24999 0.0
C387 C 0.26136 0.57086 0.24064 0.0
C388 C 0.2738 0.65033 0.26467 0.0
C389 C 0.15905 0.61096 0.26714 0.0
C390 C 0.20187 0.65135 0.2743 0.0
C391 C 0.18819 0.57047 0.24938 0.0
H392 H 0.08989 0.52939 0.24608 0.0
N393 N 0.36236 0.53272 0.21372 0.0
C394 C 0.29132 0.53213 0.22128 0.0
C395 C 0.28021 0.45374 0.19148 0.0
C396 C 0.24844 0.49238 0.21042 0.0
C397 C 0.3932 0.49573 0.19436 0.0
C398 C 0.35282 0.45545 0.18344 0.0
O399 O 0.57725 0.6646 0.26921 0.0
O400 O 0.52892 0.63496 0.21465 0.0
O401 O 0.39747 0.59539 0.17046 0.0
O402 O 0.37056 0.66326 0.19895 0.0
O403 O 0.4698 0.63372 0.32229 0.0
O404 O 0.43228 0.66883 0.26783 0.0
O405 O 0.39664 0.56067 0.28232 0.0
O406 O 0.50607 0.536 0.30422 0.0
O407 O 0.56274 0.61721 0.36857 0.0
O408 O 0.63446 0.5608 0.35114 0.0
O409 O 0.51801 0.56324 0.21341 0.0
O410 O 0.5776 0.54016 0.26739 0.0
C411 C 0.56773 0.66659 0.23309 0.0
C412 C 0.4383 0.66872 0.30414 0.0
C413 C 0.33807 0.65652 0.13365 0.0
C414 C 0.31975 0.65068 0.06671 0.0
C415 C 0.25405 0.70955 0.10319 0.0
C416 C 0.28823 0.69409 0.13532 0.0
C417 C 0.26961 0.68802 0.06909 0.0
C418 C 0.35384 0.63469 0.09912 0.0
C419 C 0.36805 0.63771 0.16839 0.0
C420 C 0.17598 0.49159 0.21984 0.0
C421 C 0.14603 0.53041 0.23933 0.0
H422 H 0.24922 0.42233 0.18312 0.0
C423 C 0.43615 0.53427 0.30511 0.0
C424 C 0.5645 0.5369 0.23137 0.0
C425 C 0.66376 0.60315 0.40583 0.0
C426 C 0.70009 0.61536 0.46996 0.0
C427 C 0.7809 0.63577 0.41983 0.0
C428 C 0.73027 0.62041 0.39403 0.0
C429 C 0.7659 0.6335 0.45762 0.0
C430 C 0.64892 0.60021 0.44392 0.0
C431 C 0.6107 0.58625 0.37884 0.0
H432 H 0.21515 0.73821 0.10473 0.0
H433 H 0.27437 0.71075 0.16162 0.0
H434 H 0.24283 0.70074 0.04437 0.0
H435 H 0.3921 0.60557 0.09736 0.0
H436 H 0.83218 0.64887 0.41052 0.0
H437 H 0.74368 0.62127 0.36501 0.0
H438 H 0.80621 0.64499 0.47739 0.0
H439 H 0.59838 0.58568 0.45328 0.0
C440 C 0.18316 0.97498 0.38343 0.0
C441 C 0.17433 0.9256 0.37319 0.0
C442 C 0.10442 0.95075 0.31968 0.0
C443 C 0.10683 0.99935 0.33202 0.0
N444 N 0.13 0.0545 0.3829 0.0
N445 N 0.10597 0.867 0.33808 0.0
C446 C 0.13971 0.01048 0.36645 0.0
C447 C 0.12646 0.91381 0.34403 0.0
N448 N 0.2368 0.98881 0.40652 0.0
N449 N 0.08753 0.93991 0.28378 0.0
H450 H 0.06726 0.85742 0.31855 0.0
H451 H 0.12368 0.83872 0.3547 0.0
H452 H 0.07883 0.9667 0.26407 0.0
H453 H 0.09065 0.90493 0.27289 0.0
H454 H 0.27483 0.96446 0.41521 0.0
H455 H 0.24844 0.02494 0.4126 0.0
H456 H 0.14945 0.06278 0.40933 0.0
H457 H 0.09628 0.08048 0.37178 0.0
C458 C 0.28439 0.542 0.85653 0.0
C459 C 0.32829 0.57814 0.87357 0.0
C460 C 0.42899 0.52351 0.86847 0.0
C461 C 0.39141 0.4945 0.84228 0.0
N462 N 0.27593 0.46263 0.82686 0.0
N463 N 0.44641 0.60497 0.8899 0.0
C464 C 0.3164 0.49985 0.84053 0.0
C465 C 0.40158 0.56919 0.87831 0.0
N466 N 0.2126 0.54908 0.85476 0.0
N467 N 0.48639 0.50592 0.88703 0.0
H468 H 0.42913 0.64023 0.89348 0.0
H469 H 0.50146 0.60056 0.89106 0.0
H470 H 0.49739 0.46907 0.88744 0.0
H471 H 0.51331 0.52583 0.90741 0.0
H472 H 0.17756 0.52765 0.83942 0.0
H473 H 0.18769 0.57771 0.86841 0.0
H474 H 0.22068 0.46169 0.82727 0.0
H475 H 0.29809 0.43015 0.81786 0.0
C476 C 0.61054 0.59384 0.69365 0.0
C477 C 0.66325 0.57776 0.66817 0.0
C478 C 0.6213 0.49494 0.67799 0.0
C479 C 0.58385 0.5098 0.71005 0.0
N480 N 0.54053 0.57562 0.74819 0.0
N481 N 0.72414 0.51019 0.64039 0.0
C482 C 0.57646 0.56 0.71747 0.0
C483 C 0.66928 0.52754 0.66092 0.0
N484 N 0.5948 0.64181 0.69578 0.0
N485 N 0.60945 0.45025 0.66309 0.0
H486 H 0.73369 0.47334 0.63672 0.0
H487 H 0.76454 0.53262 0.63125 0.0
H488 H 0.57082 0.42714 0.67372 0.0
H489 H 0.6314 0.43909 0.6379 0.0
H490 H 0.62057 0.66718 0.67942 0.0
H491 H 0.5524 0.65558 0.71105 0.0
H492 H 0.54198 0.61133 0.75759 0.0
H493 H 0.51295 0.55257 0.76587 0.0
C494 C 0.88231 0.91789 0.19715 0.0
C495 C 0.82874 0.92992 0.17112 0.0
C496 C 0.8568 0.01593 0.18129 0.0
C497 C 0.90218 1.00358 0.21137 0.0
N498 N 0.94031 0.9419 0.25383 0.0
N499 N 0.7561 0.99126 0.14349 0.0
C500 C 0.9109 0.95427 0.22066 0.0
C501 C 0.81393 0.97928 0.16423 0.0
N502 N 0.90375 0.8711 0.20064 0.0
N503 N 0.85492 0.06238 0.16879 0.0
H504 H 0.72204 0.96514 0.13247 0.0
H505 H 0.73829 0.02664 0.14043 0.0
H506 H 0.88648 0.08969 0.18018 0.0
H507 H 0.82737 0.07263 0.14501 0.0
H508 H 0.94762 0.86115 0.21655 0.0
H509 H 0.88114 0.84293 0.18536 0.0
H510 H 0.9405 0.90661 0.2639 0.0
H511 H 0.95686 0.96765 0.27314 0.0
C512 C 0.9085 0.09722 0.69549 0.0
C513 C 0.84494 0.08974 0.67525 0.0
C514 C 0.84531 0.00499 0.69314 0.0
C515 C 0.9038 0.01337 0.71752 0.0
N516 N 0.98082 0.07225 0.74728 0.0
N517 N 0.74074 0.04014 0.66539 0.0
C518 C 0.93208 0.06108 0.7205 0.0
C519 C 0.80876 0.04498 0.67822 0.0
N520 N 0.94532 0.13944 0.69138 0.0
N521 N 0.82718 0.95947 0.68195 0.0
H522 H 0.71368 0.06837 0.65257 0.0
H523 H 0.71029 0.00907 0.6699 0.0
H524 H 0.86105 0.93056 0.68584 0.0
H525 H 0.78622 0.95228 0.66311 0.0
H526 H 0.99571 0.14533 0.7027 0.0
H527 H 0.92737 0.16692 0.67416 0.0
H528 H 0.99673 0.10758 0.75348 0.0
H529 H 0.00323 0.0461 0.76418 0.0
C530 C 0.61038 0.41056 0.19627 0.0
C531 C 0.66624 0.42107 0.17096 0.0
C532 C 0.64707 0.50784 0.18097 0.0
C533 C 0.59803 0.49712 0.20984 0.0
N534 N 0.5325 0.43813 0.24539 0.0
N535 N 0.74516 0.47923 0.14357 0.0
C536 C 0.57957 0.44839 0.2176 0.0
C537 C 0.68615 0.46964 0.16421 0.0
N538 N 0.5866 0.36398 0.19961 0.0
N539 N 0.65598 0.55436 0.16921 0.0
H540 H 0.77505 0.45191 0.13153 0.0
H541 H 0.76785 0.51353 0.14115 0.0
H542 H 0.6275 0.58323 0.18011 0.0
H543 H 0.68623 0.56376 0.14613 0.0
H544 H 0.54122 0.35403 0.21425 0.0
H545 H 0.6086 0.33541 0.18467 0.0
H546 H 0.52446 0.40367 0.25613 0.0
H547 H 0.50284 0.46451 0.2589 0.0
C548 C 0.29754 0.44741 0.34419 0.0
C549 C 0.33383 0.42345 0.37295 0.0
C550 C 0.42958 0.48274 0.36489 0.0
C551 C 0.40082 0.49685 0.32985 0.0
N552 N 0.32549 0.46502 0.28194 0.0
N553 N 0.44284 0.41577 0.40767 0.0
C554 C 0.33796 0.47321 0.31832 0.0
C555 C 0.40261 0.44034 0.38273 0.0
N556 N 0.22637 0.44144 0.3391 0.0
N557 N 0.47876 0.51096 0.38215 0.0
H558 H 0.42539 0.38352 0.4195 0.0
H559 H 0.49538 0.4254 0.41361 0.0
H560 H 0.48882 0.54543 0.37229 0.0
H561 H 0.49891 0.50344 0.40848 0.0
H562 H 0.19935 0.45862 0.31755 0.0
H563 H 0.19505 0.42365 0.35861 0.0
H564 H 0.2831 0.44332 0.27297 0.0
H565 H 0.36644 0.47029 0.2631 0.0
C566 C 0.18752 0.0434 0.87132 0.0
C567 C 0.15534 0.08949 0.87451 0.0
C568 C 0.04921 0.0579 0.84226 0.0
C569 C 0.08458 0.01322 0.83596 0.0
N570 N 0.16938 0.95775 0.86089 0.0
N571 N 0.06064 0.14304 0.85687 0.0
C572 C 0.14898 1.00429 0.85503 0.0
C573 C 0.0869 0.09712 0.85893 0.0
N574 N 0.25677 0.03779 0.88153 0.0
N575 N 0.97859 0.06251 0.83418 0.0
H576 H 0.0877 0.17319 0.86731 0.0
H577 H 0.0158 0.15205 0.84142 0.0
H578 H 0.94805 0.03488 0.8226 0.0
H579 H 0.9483 0.0921 0.84246 0.0
H580 H 0.2857 0.00648 0.87616 0.0
H581 H 0.28704 0.06631 0.89204 0.0
H582 H 0.21364 0.94823 0.87661 0.0
H583 H 0.135 0.929 0.85505 0.0
C584 C 0.25388 0.10605 0.97786 0.0
C585 C 0.19675 0.12228 0.95535 0.0
C586 C 0.11281 0.10078 1.005 0.0
C587 C 0.17071 0.08811 0.0282 0.0
N588 N 0.29664 0.09029 0.04008 0.0
N589 N 0.07455 0.1469 0.95172 0.0
C590 C 0.24139 0.09429 1.01559 0.0
C591 C 0.12671 0.12269 0.97002 0.0
N592 N 0.32035 0.1016 0.96308 0.0
N593 N 0.04473 0.09149 1.01619 0.0
H594 H 0.08519 0.16682 0.928 0.0
H595 H 0.02354 0.15188 0.96226 0.0
H596 H 0.03268 0.07717 0.04219 0.0
H597 H 0.00072 0.09526 0.99887 0.0
H598 H 0.36213 0.08469 0.9768 0.0
H599 H 0.33266 0.11209 0.93612 0.0
H600 H 0.34891 0.09949 0.0335 0.0
H601 H 0.28903 0.08256 0.06814 0.0
C602 C 0.29033 0.43688 0.46585 0.0
C603 C 0.29942 0.38825 0.4546 0.0
C604 C 0.33206 0.36634 0.51823 0.0
C605 C 0.32476 0.41541 0.52927 0.0
N606 N 0.32205 0.49899 0.51078 0.0
N607 N 0.35324 0.31118 0.46703 0.0
C608 C 0.31294 0.45128 0.50193 0.0
C609 C 0.32879 0.35452 0.47986 0.0
N610 N 0.25533 0.46836 0.44342 0.0
N611 N 0.33722 0.33062 0.54412 0.0
H612 H 0.3541 0.3027 0.43877 0.0
H613 H 0.37967 0.28647 0.48381 0.0
H614 H 0.33882 0.3374 0.57259 0.0
H615 H 0.33418 0.29395 0.53728 0.0
H616 H 0.24223 0.50341 0.45165 0.0
H617 H 0.233 0.45759 0.4182 0.0
H618 H 0.31959 0.52642 0.49108 0.0
H619 H 0.33954 0.51022 0.53701 0.0
C620 C 0.74411 0.3875 0.06348 0.0
C621 C 0.68823 0.37898 0.0894 0.0
C622 C 0.60149 0.38183 0.03849 0.0
C623 C 0.65782 0.37974 1.01265 0.0
N624 N 0.78199 0.39042 0.99876 0.0
N625 N 0.56365 0.36748 0.10146 0.0
C626 C 0.729 0.38688 0.0246 0.0
C627 C 0.61661 0.37763 0.07697 0.0
N628 N 0.81228 0.39189 0.07638 0.0
N629 N 0.53337 0.38646 0.02578 0.0
H630 H 0.57346 0.36354 0.12954 0.0
H631 H 0.51132 0.35993 0.09379 0.0
H632 H 0.52175 0.38946 0.99751 0.0
H633 H 0.48976 0.39207 0.04302 0.0
H634 H 0.8567 0.39838 0.06002 0.0
H635 H 0.8248 0.38958 0.10448 0.0
H636 H 0.83566 0.39478 1.00483 0.0
H637 H 0.77222 0.38978 0.9703 0.0
C638 C 0.81907 0.08763 0.57207 0.0
C639 C 0.83436 0.13053 0.59226 0.0
C640 C 0.8664 0.17071 0.53373 0.0
C641 C 0.83429 0.13163 0.51403 0.0
N642 N 0.78525 0.05081 0.51349 0.0
N643 N 0.89536 0.20657 0.59398 0.0
C644 C 0.81242 0.08936 0.53294 0.0
C645 C 0.86736 0.16955 0.57335 0.0
N646 N 0.82097 0.04435 0.58957 0.0
N647 N 0.89065 0.21014 0.51467 0.0
H648 H 0.89396 0.206 0.62289 0.0
H649 H 0.92225 0.23628 0.58322 0.0
H650 H 0.88982 0.21207 0.48577 0.0
H651 H 0.91066 0.24147 0.527 0.0
H652 H 0.81089 0.01119 0.57669 0.0
H653 H 0.84981 0.04124 0.61388 0.0
H654 H 0.75963 0.02171 0.52607 0.0
H655 H 0.78537 0.04899 0.48453 0.0
C656 C 0.87398 0.88137 0.07792 0.0
C657 C 0.80375 0.89058 0.09026 0.0
C658 C 0.77489 0.92788 0.03025 0.0
C659 C 0.84588 0.92009 1.0184 0.0
N660 N 0.96358 0.88949 0.02956 0.0
N661 N 0.68299 0.91212 0.07585 0.0
C662 C 0.89562 0.89675 0.04191 0.0
C663 C 0.75304 0.91106 0.06573 0.0
N664 N 0.91805 0.85487 0.09992 0.0
N665 N 0.72911 0.95304 1.00809 0.0
H666 H 0.6653 0.90166 0.10203 0.0
H667 H 0.6416 0.92048 0.05783 0.0
H668 H 0.74237 0.9647 0.98149 0.0
H669 H 0.67946 0.96514 1.01669 0.0
H670 H 0.96859 0.84339 0.09243 0.0
H671 H 0.9018 0.84141 0.12542 0.0
H672 H 0.00512 0.87716 0.04599 0.0
H673 H 0.97954 0.89707 1.00247 0.0
C674 C 0.64587 0.64126 0.56994 0.0
C675 C 0.70318 0.61807 0.5882 0.0
C676 C 0.73631 0.57951 0.52972 0.0
C677 C 0.68875 0.60962 0.51042 0.0
N678 N 0.60076 0.67283 0.51172 0.0
N679 N 0.8174 0.57938 0.58104 0.0
C680 C 0.64288 0.64096 0.53038 0.0
C681 C 0.75187 0.59022 0.56711 0.0
N682 N 0.59707 0.66592 0.59045 0.0
N683 N 0.76954 0.54235 0.5118 0.0
H684 H 0.83397 0.5899 0.60755 0.0
H685 H 0.85727 0.56372 0.56492 0.0
H686 H 0.75876 0.53361 0.48409 0.0
H687 H 0.80167 0.51769 0.52573 0.0
H688 H 0.55096 0.68075 0.57934 0.0
H689 H 0.60058 0.66809 0.61922 0.0
H690 H 0.57269 0.70052 0.52471 0.0
H691 H 0.59742 0.67366 0.48284 0.0
C692 C 0.36857 0.66127 0.96821 0.0
C693 C 0.31742 0.62948 0.95176 0.0
C694 C 0.29154 0.59545 1.01327 0.0
C695 C 0.33669 0.63099 0.02929 0.0
N696 N 0.43737 0.68363 0.02284 0.0
N697 N 0.2357 0.563 0.95727 0.0
C698 C 0.38261 0.65844 1.00679 0.0
C699 C 0.28238 0.59428 0.97387 0.0
N700 N 0.39666 0.69836 0.94793 0.0
N701 N 0.25569 0.56459 0.03618 0.0
H702 H 0.22672 0.56331 0.92881 0.0
H703 H 0.20636 0.5367 0.97104 0.0
H704 H 0.26359 0.56502 0.06488 0.0
H705 H 0.22055 0.53776 0.02729 0.0
H706 H 0.42727 0.72619 0.95941 0.0
H707 H 0.3843 0.70383 0.92006 0.0
H708 H 0.4766 0.70141 1.00766 0.0
H709 H 0.44726 0.68234 0.05135 0.0
C710 C 0.25181 0.90697 0.47764 0.0
C711 C 0.20212 0.88423 0.45346 0.0
C712 C 0.12619 0.86561 0.50699 0.0
C713 C 0.1757 0.88993 0.53052 0.0
N714 N 0.27064 0.94813 0.53619 0.0
N715 N 0.08632 0.84953 0.44382 0.0
C716 C 0.23243 0.91641 0.51479 0.0
C717 C 0.13657 0.86701 0.46776 0.0
N718 N 0.32041 0.91436 0.46654 0.0
N719 N 0.07302 0.83817 0.52202 0.0
H720 H 0.09463 0.84893 0.41527 0.0
H721 H 0.03514 0.83965 0.45191 0.0
H722 H 0.06367 0.83646 0.55048 0.0
H723 H 0.04061 0.81501 0.50648 0.0
H724 H 0.36055 0.92565 0.48469 0.0
H725 H 0.33847 0.90526 0.44004 0.0
H726 H 0.31016 0.97052 0.52529 0.0
H727 H 0.25739 0.95522 0.56385 0.0
C728 C 0.12218 0.29059 0.34449 0.0
C729 C 0.18587 0.27816 0.36295 0.0
C730 C 0.17108 0.19352 0.34349 0.0
C731 C 0.10818 0.20629 0.32368 0.0
N732 N 0.02965 0.26821 0.30064 0.0
N733 N 0.27313 0.22 0.38054 0.0
C734 C 0.08561 0.25526 0.32269 0.0
C735 C 0.21069 0.23004 0.36273 0.0
N736 N 0.09519 0.33594 0.34932 0.0
N737 N 0.19402 0.14675 0.34278 0.0
H738 H 0.30185 0.24632 0.39513 0.0
H739 H 0.29787 0.1865 0.38069 0.0
H740 H 0.17033 0.12041 0.32623 0.0
H741 H 0.23625 0.1334 0.35818 0.0
H742 H 0.04574 0.34679 0.33952 0.0
H743 H 0.11953 0.36152 0.36653 0.0
H744 H 0.01677 0.30393 0.29478 0.0
H745 H 0.99831 0.24335 0.28607 0.0
C746 C 0.29474 0.28386 0.87007 0.0
C747 C 0.31007 0.23406 0.86579 0.0
C748 C 0.39967 0.25397 0.81998 0.0
C749 C 0.39352 0.30383 0.82861 0.0
N750 N 0.34264 0.36519 0.86831 0.0
N751 N 0.39152 0.17312 0.84436 0.0
C752 C 0.3435 0.31857 0.85585 0.0
C753 C 0.36769 0.21962 0.84345 0.0
N754 N 0.23257 0.2979 0.88623 0.0
N755 N 0.43113 0.23918 0.78802 0.0
H756 H 0.37043 0.14749 0.86251 0.0
H757 H 0.4366 0.16197 0.82985 0.0
H758 H 0.45035 0.2638 0.76882 0.0
H759 H 0.43019 0.20321 0.77902 0.0
H760 H 0.21593 0.33381 0.88696 0.0
H761 H 0.19508 0.27302 0.89589 0.0
H762 H 0.30999 0.37684 0.88991 0.0
H763 H 0.37976 0.39072 0.85955 0.0
C764 C 0.62434 0.21612 0.69652 0.0
C765 C 0.68506 0.22917 0.67621 0.0
C766 C 0.66814 0.31358 0.69529 0.0
C767 C 0.61187 0.29877 0.71925 0.0
N768 N 0.5711 0.23077 0.7555 0.0
N769 N 0.77421 0.2888 0.66188 0.0
C770 C 0.5985 0.2486 0.72345 0.0
C771 C 0.70945 0.27772 0.67674 0.0
N772 N 0.59507 0.17121 0.69225 0.0
N773 N 0.6854 0.3613 0.69221 0.0
H774 H 0.80567 0.26306 0.64861 0.0
H775 H 0.79909 0.32231 0.66522 0.0
H776 H 0.66368 0.38757 0.70944 0.0
H777 H 0.72047 0.37467 0.67235 0.0
H778 H 0.54807 0.16112 0.70559 0.0
H779 H 0.61466 0.1463 0.67293 0.0
H780 H 0.56508 0.19375 0.76017 0.0
H781 H 0.56607 0.25205 0.77926 0.0
C782 C 0.88123 0.2694 0.17122 0.0
C783 C 0.80778 0.27207 0.17865 0.0
C784 C 0.81294 0.19442 0.21076 0.0
C785 C 0.88813 0.1952 0.2079 0.0
N786 N 0.98172 0.2169 0.16474 0.0
N787 N 0.70171 0.23771 0.2047 0.0
C788 C 0.91964 0.22791 0.18226 0.0
C789 C 0.77292 0.2345 0.19798 0.0
N790 N 0.9147 0.30712 0.15417 0.0
N791 N 0.77958 0.1527 0.22093 0.0
H792 H 0.67085 0.26563 0.19415 0.0
H793 H 0.6743 0.21432 0.22222 0.0
H794 H 0.80773 0.12175 0.22786 0.0
H795 H 0.72492 0.14717 0.2186 0.0
H796 H 0.96983 0.30958 0.15167 0.0
H797 H 0.88763 0.3379 0.14554 0.0
H798 H 0.003 0.23773 0.14341 0.0
H799 H 0.00673 0.18374 0.16721 0.0
C800 C 0.79057 0.7562 0.69153 0.0
C801 C 0.82859 0.71377 0.68349 0.0
C802 C 0.93205 0.7461 0.71666 0.0
C803 C 0.89783 0.79196 0.72025 0.0
N804 N 0.79438 0.84103 0.70364 0.0
N805 N 0.93848 0.67051 0.68208 0.0
C806 C 0.82701 0.79711 0.70575 0.0
C807 C 0.90053 0.70961 0.69387 0.0
N808 N 0.71878 0.75741 0.68588 0.0
N809 N 0.99088 0.73542 0.73731 0.0
H810 H 0.91566 0.64297 0.66595 0.0
H811 H 0.99334 0.66776 0.68558 0.0
H812 H 0.01034 0.75775 0.7584 0.0
H813 H 0.01423 0.70132 0.73728 0.0
H814 H 0.68623 0.7846 0.69646 0.0
H815 H 0.69095 0.72951 0.6729 0.0
H816 H 0.74792 0.84678 0.68851 0.0
H817 H 0.81452 0.87289 0.71434 0.0
C818 C 0.7172 0.74284 0.19196 0.0
C819 C 0.67932 0.78346 0.17915 0.0
C820 C 0.56723 0.74728 0.20008 0.0
C821 C 0.60501 0.70573 0.21225 0.0
N822 N 0.71299 0.65933 0.21126 0.0
N823 N 0.56929 0.82268 0.16545 0.0
C824 C 0.67929 0.70228 0.20587 0.0
C825 C 0.60446 0.7851 0.18157 0.0
N826 N 0.78979 0.74355 0.19131 0.0
N827 N 0.49617 0.75114 0.20697 0.0
H828 H 0.59594 0.85117 0.1525 0.0
H829 H 0.51428 0.82427 0.16261 0.0
H830 H 0.46666 0.72328 0.21854 0.0
H831 H 0.46702 0.7826 0.20307 0.0
H832 H 0.8212 0.71788 0.20447 0.0
H833 H 0.81868 0.77169 0.17939 0.0
H834 H 0.76515 0.6527 0.20309 0.0
H835 H 0.68674 0.6289 0.22133 0.0
C836 C 0.3968 0.7914 0.34692 0.0
C837 C 0.32858 0.7828 0.36174 0.0
C838 C 0.33814 0.69716 0.34486 0.0
C839 C 0.40187 0.70754 0.3252 0.0
N840 N 0.48208 0.76813 0.30045 0.0
N841 N 0.22749 0.72976 0.36839 0.0
C842 C 0.42833 0.75576 0.32403 0.0
C843 C 0.29727 0.73618 0.35908 0.0
N844 N 0.43194 0.83342 0.35531 0.0
N845 N 0.31573 0.65044 0.34929 0.0
H846 H 0.19551 0.7581 0.3776 0.0
H847 H 0.19972 0.6976 0.36359 0.0
H848 H 0.34207 0.6209 0.33774 0.0
H849 H 0.27338 0.64086 0.36641 0.0
H850 H 0.48473 0.83974 0.34786 0.0
H851 H 0.41011 0.85985 0.37264 0.0
H852 H 0.49778 0.80387 0.296 0.0
H853 H 0.50741 0.74317 0.28337 0.0
C854 C 0.22547 0.77188 0.84723 0.0
C855 C 0.19126 0.73012 0.86087 0.0
C856 C 0.0754 0.76891 0.85459 0.0
C857 C 0.10771 0.80833 0.83544 0.0
N858 N 0.21597 0.85411 0.8255 0.0
N859 N 0.08478 0.68502 0.873 0.0
C860 C 0.18374 0.81156 0.83489 0.0
C861 C 0.11654 0.72753 0.863 0.0
N862 N 0.29806 0.77263 0.84503 0.0
N863 N 0.00811 0.77235 0.86838 0.0
H864 H 0.11387 0.65434 0.87999 0.0
H865 H 0.03015 0.67897 0.87099 0.0
H866 H 0.98046 0.80459 0.86977 0.0
H867 H 0.9844 0.74561 0.88451 0.0
H868 H 0.32723 0.79886 0.83102 0.0
H869 H 0.32954 0.74495 0.8556 0.0
H870 H 0.26969 0.86163 0.82957 0.0
H871 H 0.18824 0.88366 0.81552 0.0
loop_
_geom_bond_atom_site_label_1
_geom_bond_atom_site_label_2
_geom_bond_distance
_geom_bond_site_symmetry_2
_ccdc_geom_bond_type
C0 N1 1.317 . S
C0 N2 1.348 . S
C0 C3 1.485 . S
N1 C0 1.317 . S
N1 N5 1.370 . S
N2 C0 1.348 . S
N2 C4 1.346 . S
C3 C0 1.485 . S
C3 H7 0.960 . S
C3 H8 0.961 . S
C3 H9 0.960 . S
C4 N2 1.346 . S
C4 N5 1.307 . S
C4 C6 1.486 . S
N5 N1 1.370 . S
N5 C4 1.307 . S
C6 C4 1.486 . S
C6 H10 0.960 . S
C6 H11 0.960 . S
C6 H12 0.959 . S
H7 C3 0.960 . S
H8 C3 0.961 . S
H9 C3 0.960 . S
H10 C6 0.960 . S
H11 C6 0.960 . S
H12 C6 0.959 . S
C13 N14 1.317 . S
C13 N15 1.348 . S
C13 C16 1.485 . S
N14 C13 1.317 . S
N14 N18 1.370 . S
N15 C13 1.348 . S
N15 C17 1.346 . S
C16 C13 1.485 . S
C16 H20 0.960 . S
C16 H21 0.961 . S
C16 H22 0.960 . S
C17 N15 1.346 . S
C17 N18 1.307 . S
C17 C19 1.486 . S
N18 N14 1.370 . S
N18 C17 1.307 . S
C19 C17 1.486 . S
C19 H23 0.960 . S
C19 H24 0.960 . S
C19 H25 0.959 . S
H20 C16 0.960 . S
H21 C16 0.961 . S
H22 C16 0.960 . S
H23 C19 0.960 . S
H24 C19 0.960 . S
H25 C19 0.959 . S
C26 N27 1.317 . S
C26 N28 1.348 . S
C26 C29 1.485 . S
N27 C26 1.317 . S
N27 N31 1.370 . S
N28 C26 1.348 . S
N28 C30 1.346 . S
C29 C26 1.485 . S
C29 H33 0.960 . S
C29 H34 0.961 . S
C29 H35 0.960 . S
C30 N28 1.346 . S
C30 N31 1.307 . S
C30 C32 1.486 . S
N31 N27 1.370 . S
N31 C30 1.307 . S
C32 C30 1.486 . S
C32 H36 0.960 . S
C32 H37 0.960 . S
C32 H38 0.959 . S
H33 C29 0.960 . S
H34 C29 0.961 . S
H35 C29 0.960 . S
H36 C32 0.960 . S
H37 C32 0.960 . S
H38 C32 0.959 . S
C39 N40 1.317 . S
C39 N41 1.348 . S
C39 C42 1.485 . S
N40 C39 1.317 . S
N40 N44 1.370 . S
N41 C39 1.348 . S
N41 C43 1.346 . S
C42 C39 1.485 . S
C42 H46 0.960 . S
C42 H47 0.961 . S
C42 H48 0.960 . S
C43 N41 1.346 . S
C43 N44 1.307 . S
C43 C45 1.486 . S
N44 N40 1.370 . S
N44 C43 1.307 . S
C45 C43 1.486 . S
C45 H49 0.960 . S
C45 H50 0.960 . S
C45 H51 0.959 . S
H46 C42 0.960 . S
H47 C42 0.961 . S
H48 C42 0.960 . S
H49 C45 0.960 . S
H50 C45 0.960 . S
H51 C45 0.959 . S
C52 N53 1.317 . S
C52 N54 1.348 . S
C52 C55 1.485 . S
N53 C52 1.317 . S
N53 N57 1.370 . S
N54 C52 1.348 . S
N54 C56 1.346 . S
C55 C52 1.485 . S
C55 H59 0.960 . S
C55 H60 0.961 . S
C55 H61 0.960 . S
C56 N54 1.346 . S
C56 N57 1.307 . S
C56 C58 1.486 . S
N57 N53 1.370 . S
N57 C56 1.307 . S
C58 C56 1.486 . S
C58 H62 0.960 . S
C58 H63 0.960 . S
C58 H64 0.959 . S
H59 C55 0.960 . S
H60 C55 0.961 . S
H61 C55 0.960 . S
H62 C58 0.960 . S
H63 C58 0.960 . S
H64 C58 0.959 . S
C65 N66 1.317 . S
C65 N67 1.348 . S
C65 C68 1.485 . S
N66 C65 1.317 . S
N66 N70 1.370 . S
N67 C65 1.348 . S
N67 C69 1.346 . S
C68 C65 1.485 . S
C68 H72 0.960 . S
C68 H73 0.961 . S
C68 H74 0.960 . S
C69 N67 1.346 . S
C69 N70 1.307 . S
C69 C71 1.486 . S
N70 N66 1.370 . S
N70 C69 1.307 . S
C71 C69 1.486 . S
C71 H75 0.960 . S
C71 H76 0.960 . S
C71 H77 0.959 . S
H72 C68 0.960 . S
H73 C68 0.961 . S
H74 C68 0.960 . S
H75 C71 0.960 . S
H76 C71 0.960 . S
H77 C71 0.959 . S
C78 N79 1.317 . S
C78 N80 1.348 . S
C78 C81 1.485 . S
N79 C78 1.317 . S
N79 N83 1.370 . S
N80 C78 1.348 . S
N80 C82 1.346 . S
C81 C78 1.485 . S
C81 H85 0.960 . S
C81 H86 0.961 . S
C81 H87 0.960 . S
C82 N80 1.346 . S
C82 N83 1.307 . S
C82 C84 1.486 . S
N83 N79 1.370 . S
N83 C82 1.307 . S
C84 C82 1.486 . S
C84 H88 0.960 . S
C84 H89 0.960 . S
C84 H90 0.959 . S
H85 C81 0.960 . S
H86 C81 0.961 . S
H87 C81 0.960 . S
H88 C84 0.960 . S
H89 C84 0.960 . S
H90 C84 0.959 . S
C91 N92 1.317 . S
C91 N93 1.348 . S
C91 C94 1.485 . S
N92 C91 1.317 . S
N92 N96 1.370 . S
N93 C91 1.348 . S
N93 C95 1.346 . S
C94 C91 1.485 . S
C94 H98 0.960 . S
C94 H99 0.961 . S
C94 H100 0.960 . S
C95 N93 1.346 . S
C95 N96 1.307 . S
C95 C97 1.486 . S
N96 N92 1.370 . S
N96 C95 1.307 . S
C97 C95 1.486 . S
C97 H101 0.960 . S
C97 H102 0.960 . S
C97 H103 0.959 . S
H98 C94 0.960 . S
H99 C94 0.961 . S
H100 C94 0.960 . S
H101 C97 0.960 . S
H102 C97 0.960 . S
H103 C97 0.959 . S
C104 C106 1.422 . S
C104 C108 1.415 . S
C104 N110 1.369 . S
C105 C106 1.421 1_565 S
C105 C107 1.417 . S
C105 C117 1.422 . S
C106 C104 1.422 . S
C106 C105 1.421 1_545 S
C106 N116 1.359 . S
C107 C105 1.417 . S
C107 C109 1.329 1_565 S
C107 H126 0.930 . S
C108 C104 1.415 . S
C108 C109 1.437 . S
C108 C112 1.413 . S
C109 C107 1.329 1_545 S
C109 C108 1.437 . S
C109 H131 0.929 . S
N110 C104 1.369 . S
N110 C111 1.338 . S
N110 Gd115 2.622 . S
C111 N110 1.338 . S
C111 C113 1.378 . S
C111 H123 0.929 . S
C112 C108 1.413 . S
C112 C113 1.348 . S
C112 H128 0.931 . S
C113 C111 1.378 . S
C113 C112 1.348 . S
C113 H129 0.930 . S
Gd114 N134 2.622 . S
Gd114 N141 2.570 . S
Gd114 O148 2.353 1_455 S
Gd114 O149 2.468 . S
Gd114 O150 2.427 . S
Gd114 O152 2.388 . S
Gd114 O153 2.386 . S
Gd114 O157 2.307 1_455 S
Gd114 C167 2.805 . S
Gd115 N110 2.622 . S
Gd115 N116 2.570 . S
Gd115 O147 2.386 . S
Gd115 O151 2.307 1_655 S
Gd115 O154 2.353 1_655 S
Gd115 O155 2.468 . S
Gd115 O156 2.427 . S
Gd115 O158 2.388 . S
Gd115 C179 2.805 . S
N116 C106 1.359 . S
N116 Gd115 2.570 . S
N116 C118 1.343 1_545 S
C117 C105 1.422 . S
C117 C119 1.321 . S
C117 H125 0.931 . S
C118 N116 1.343 1_565 S
C118 C119 1.390 . S
C118 H120 0.931 . S
C119 C117 1.321 . S
C119 C118 1.390 . S
C119 H121 0.930 . S
H120 C118 0.931 . S
H121 C119 0.930 . S
H122 C145 0.931 . S
H123 C111 0.929 . S
H124 C146 0.930 . S
H125 C117 0.931 . S
H126 C107 0.930 . S
H127 C136 0.929 . S
H128 C112 0.931 . S
H129 C113 0.930 . S
H130 C168 0.930 . S
H131 C109 0.929 . S
H132 C137 0.931 . S
H133 C138 0.930 . S
N134 Gd114 2.622 . S
N134 C135 1.369 . S
N134 C136 1.338 . S
C135 N134 1.369 . S
C135 C139 1.415 . S
C135 C142 1.422 . S
C136 H127 0.929 . S
C136 N134 1.338 . S
C136 C138 1.378 . S
C137 H132 0.931 . S
C137 C138 1.348 . S
C137 C139 1.413 . S
C138 H133 0.930 . S
C138 C136 1.378 . S
C138 C137 1.348 . S
C139 C135 1.415 . S
C139 C137 1.413 . S
C139 C169 1.437 . S
H140 C169 0.929 . S
N141 Gd114 2.570 . S
N141 C142 1.359 . S
N141 C145 1.343 . S
C142 C135 1.422 . S
C142 N141 1.359 . S
C142 C144 1.421 . S
C143 C144 1.422 . S
C143 C146 1.321 . S
C143 H170 0.931 . S
C144 C142 1.421 . S
C144 C143 1.422 . S
C144 C168 1.417 . S
C145 H122 0.931 . S
C145 N141 1.343 . S
C145 C146 1.390 . S
C146 H124 0.930 . S
C146 C143 1.321 . S
C146 C145 1.390 . S
O147 Gd115 2.386 . S
O147 C159 1.265 . S
O148 Gd114 2.353 1_655 S
O148 C159 1.242 . S
O149 Gd114 2.468 . S
O149 C167 1.263 . S
O150 Gd114 2.427 . S
O150 C167 1.252 . S
O151 Gd115 2.307 1_455 S
O151 C160 1.261 . S
O152 Gd114 2.388 . S
O152 C160 1.252 . S
O153 Gd114 2.386 . S
O153 C171 1.265 . S
O154 Gd115 2.353 1_455 S
O154 C171 1.242 . S
O155 Gd115 2.468 . S
O155 C179 1.263 . S
O156 Gd115 2.427 . S
O156 C179 1.252 . S
O157 Gd114 2.307 1_655 S
O157 C172 1.261 . S
O158 Gd115 2.388 . S
O158 C172 1.252 . S
C159 O147 1.265 . S
C159 O148 1.242 . S
C160 O151 1.261 . S
C160 O152 1.252 . S
C161 C164 1.394 . S
C161 C166 1.370 . S
C161 C167 1.500 . S
C162 C165 1.383 . S
C162 C166 1.395 . S
C163 C164 1.396 . S
C163 C165 1.365 . S
C163 H180 0.929 1_545 S
C164 C161 1.394 . S
C164 C163 1.396 . S
C164 H181 0.930 . S
C165 C162 1.383 . S
C165 C163 1.365 . S
C165 H182 0.931 . S
C166 C161 1.370 . S
C166 C162 1.395 . S
C166 H183 0.930 . S
C167 Gd114 2.805 . S
C167 O149 1.263 . S
C167 O150 1.252 . S
C167 C161 1.500 . S
C168 H130 0.930 . S
C168 C144 1.417 . S
C168 C169 1.329 . S
C169 C139 1.437 . S
C169 H140 0.929 . S
C169 C168 1.329 . S
H170 C143 0.931 . S
C171 O153 1.265 . S
C171 O154 1.242 . S
C172 O157 1.261 . S
C172 O158 1.252 . S
C173 C176 1.394 . S
C173 C178 1.370 . S
C173 C179 1.500 . S
C174 C177 1.383 . S
C174 C178 1.395 . S
C175 C176 1.396 . S
C175 C177 1.365 . S
C175 H184 0.929 . S
C176 C173 1.394 . S
C176 C175 1.396 . S
C176 H185 0.930 . S
C177 C174 1.383 . S
C177 C175 1.365 . S
C177 H186 0.931 . S
C178 C173 1.370 . S
C178 C174 1.395 . S
C178 H187 0.930 . S
C179 Gd115 2.805 . S
C179 O155 1.263 . S
C179 O156 1.252 . S
C179 C173 1.500 . S
H180 C163 0.929 1_565 S
H181 C164 0.930 . S
H182 C165 0.931 . S
H183 C166 0.930 . S
H184 C175 0.929 . S
H185 C176 0.930 . S
H186 C177 0.931 . S
H187 C178 0.930 . S
C188 C190 1.422 . S
C188 C192 1.415 . S
C188 N194 1.369 . S
C189 C190 1.421 . S
C189 C191 1.417 . S
C189 C201 1.422 . S
C190 C188 1.422 . S
C190 C189 1.421 . S
C190 N200 1.359 . S
C191 C189 1.417 . S
C191 C193 1.329 . S
C191 H210 0.930 . S
C192 C188 1.415 . S
C192 C193 1.437 . S
C192 C196 1.413 . S
C193 C191 1.329 . S
C193 C192 1.437 . S
C193 H215 0.929 . S
N194 C188 1.369 . S
N194 C195 1.338 . S
N194 Gd199 2.622 . S
C195 N194 1.338 . S
C195 C197 1.378 . S
C195 H207 0.929 . S
C196 C192 1.413 . S
C196 C197 1.348 . S
C196 H212 0.931 . S
C197 C195 1.378 . S
C197 C196 1.348 . S
C197 H213 0.930 . S
Gd198 N218 2.622 . S
Gd198 N225 2.570 . S
Gd198 O232 2.353 . S
Gd198 O233 2.468 . S
Gd198 O234 2.427 . S
Gd198 O236 2.388 . S
Gd198 O237 2.386 . S
Gd198 O241 2.307 . S
Gd198 C251 2.805 . S
Gd199 N194 2.622 . S
Gd199 N200 2.570 . S
Gd199 O231 2.386 . S
Gd199 O235 2.307 . S
Gd199 O238 2.353 . S
Gd199 O239 2.468 . S
Gd199 O240 2.427 . S
Gd199 O242 2.388 . S
Gd199 C263 2.805 . S
N200 C190 1.359 . S
N200 Gd199 2.570 . S
N200 C202 1.343 . S
C201 C189 1.422 . S
C201 C203 1.321 . S
C201 H209 0.931 . S
C202 N200 1.343 . S
C202 C203 1.390 . S
C202 H204 0.931 . S
C203 C201 1.321 . S
C203 C202 1.390 . S
C203 H205 0.930 . S
H204 C202 0.931 . S
H205 C203 0.930 . S
H206 C229 0.931 . S
H207 C195 0.929 . S
H208 C230 0.930 . S
H209 C201 0.931 . S
H210 C191 0.930 . S
H211 C220 0.929 . S
H212 C196 0.931 . S
H213 C197 0.930 . S
H214 C252 0.930 . S
H215 C193 0.929 . S
H216 C221 0.931 . S
H217 C222 0.930 . S
N218 Gd198 2.622 . S
N218 C219 1.369 . S
N218 C220 1.338 . S
C219 N218 1.369 . S
C219 C223 1.415 . S
C219 C226 1.422 . S
C220 H211 0.929 . S
C220 N218 1.338 . S
C220 C222 1.378 . S
C221 H216 0.931 . S
C221 C222 1.348 . S
C221 C223 1.413 . S
C222 H217 0.930 . S
C222 C220 1.378 . S
C222 C221 1.348 . S
C223 C219 1.415 . S
C223 C221 1.413 . S
C223 C253 1.437 . S
H224 C253 0.929 . S
N225 Gd198 2.570 . S
N225 C226 1.359 . S
N225 C229 1.343 . S
C226 C219 1.422 . S
C226 N225 1.359 . S
C226 C228 1.421 . S
C227 C228 1.422 . S
C227 C230 1.321 . S
C227 H254 0.931 . S
C228 C226 1.421 . S
C228 C227 1.422 . S
C228 C252 1.417 . S
C229 H206 0.931 . S
C229 N225 1.343 . S
C229 C230 1.390 . S
C230 H208 0.930 . S
C230 C227 1.321 . S
C230 C229 1.390 . S
O231 Gd199 2.386 . S
O231 C243 1.265 . S
O232 Gd198 2.353 . S
O232 C243 1.242 . S
O233 Gd198 2.468 . S
O233 C251 1.263 . S
O234 Gd198 2.427 . S
O234 C251 1.252 . S
O235 Gd199 2.307 . S
O235 C244 1.261 . S
O236 Gd198 2.388 . S
O236 C244 1.252 . S
O237 Gd198 2.386 . S
O237 C255 1.265 . S
O238 Gd199 2.353 . S
O238 C255 1.242 . S
O239 Gd199 2.468 . S
O239 C263 1.263 . S
O240 Gd199 2.427 . S
O240 C263 1.252 . S
O241 Gd198 2.307 . S
O241 C256 1.261 . S
O242 Gd199 2.388 . S
O242 C256 1.252 . S
C243 O231 1.265 . S
C243 O232 1.242 . S
C244 O235 1.261 . S
C244 O236 1.252 . S
C245 C248 1.394 . S
C245 C250 1.370 . S
C245 C251 1.500 . S
C246 C249 1.383 . S
C246 C250 1.395 . S
C247 C248 1.396 . S
C247 C249 1.365 . S
C247 H264 0.929 . S
C248 C245 1.394 . S
C248 C247 1.396 . S
C248 H265 0.930 . S
C249 C246 1.383 . S
C249 C247 1.365 . S
C249 H266 0.931 . S
C250 C245 1.370 . S
C250 C246 1.395 . S
C250 H267 0.930 . S
C251 Gd198 2.805 . S
C251 O233 1.263 . S
C251 O234 1.252 . S
C251 C245 1.500 . S
C252 H214 0.930 . S
C252 C228 1.417 . S
C252 C253 1.329 . S
C253 C223 1.437 . S
C253 H224 0.929 . S
C253 C252 1.329 . S
H254 C227 0.931 . S
C255 O237 1.265 . S
C255 O238 1.242 . S
C256 O241 1.261 . S
C256 O242 1.252 . S
C257 C260 1.394 . S
C257 C262 1.370 . S
C257 C263 1.500 . S
C258 C261 1.383 . S
C258 C262 1.395 . S
C259 C260 1.396 . S
C259 C261 1.365 . S
C259 H268 0.929 . S
C260 C257 1.394 . S
C260 C259 1.396 . S
C260 H269 0.930 . S
C261 C258 1.383 . S
C261 C259 1.365 . S
C261 H270 0.931 . S
C262 C257 1.370 . S
C262 C258 1.395 . S
C262 H271 0.930 . S
C263 Gd199 2.805 . S
C263 O239 1.263 . S
C263 O240 1.252 . S
C263 C257 1.500 . S
H264 C247 0.929 . S
H265 C248 0.930 . S
H266 C249 0.931 . S
H267 C250 0.930 . S
H268 C259 0.929 . S
H269 C260 0.930 . S
H270 C261 0.931 . S
H271 C262 0.930 . S
C272 C274 1.422 . S
C272 C276 1.415 . S
C272 N278 1.369 . S
C273 C274 1.421 . S
C273 C275 1.417 . S
C273 C285 1.422 . S
C274 C272 1.422 . S
C274 C273 1.421 . S
C274 N284 1.359 . S
C275 C273 1.417 . S
C275 C277 1.329 . S
C275 H294 0.930 . S
C276 C272 1.415 . S
C276 C277 1.437 . S
C276 C280 1.413 . S
C277 C275 1.329 . S
C277 C276 1.437 . S
C277 H299 0.929 . S
N278 C272 1.369 . S
N278 C279 1.338 . S
N278 Gd283 2.622 . S
C279 N278 1.338 . S
C279 C281 1.378 . S
C279 H291 0.929 . S
C280 C276 1.413 . S
C280 C281 1.348 . S
C280 H296 0.931 . S
C281 C279 1.378 . S
C281 C280 1.348 . S
C281 H297 0.930 . S
Gd282 N302 2.622 . S
Gd282 N309 2.570 . S
Gd282 O316 2.350 1_455 S
Gd282 O317 2.468 . S
Gd282 O318 2.427 . S
Gd282 O320 2.388 . S
Gd282 O321 2.386 . S
Gd282 O325 2.295 1_455 S
Gd282 C335 2.805 . S
Gd283 N278 2.622 . S
Gd283 N284 2.570 . S
Gd283 O315 2.386 . S
Gd283 O319 2.307 1_655 S
Gd283 O322 2.353 1_655 S
Gd283 O323 2.468 . S
Gd283 O324 2.427 . S
Gd283 O326 2.388 . S
Gd283 C347 2.805 . S
N284 C274 1.359 . S
N284 Gd283 2.570 . S
N284 C286 1.343 . S
C285 C273 1.422 . S
C285 C287 1.321 . S
C285 H293 0.931 . S
C286 N284 1.343 . S
C286 C287 1.390 . S
C286 H288 0.931 . S
C287 C285 1.321 . S
C287 C286 1.390 . S
C287 H289 0.930 . S
H288 C286 0.931 . S
H289 C287 0.930 . S
H290 C313 0.931 . S
H291 C279 0.929 . S
H292 C314 0.930 . S
H293 C285 0.931 . S
H294 C275 0.930 . S
H295 C304 0.929 . S
H296 C280 0.931 . S
H297 C281 0.930 . S
H298 C336 0.930 . S
H299 C277 0.929 . S
H300 C305 0.931 . S
H301 C306 0.930 . S
N302 Gd282 2.622 . S
N302 C303 1.369 . S
N302 C304 1.338 . S
C303 N302 1.369 . S
C303 C307 1.415 . S
C303 C310 1.422 . S
C304 H295 0.929 . S
C304 N302 1.338 . S
C304 C306 1.378 . S
C305 H300 0.931 . S
C305 C306 1.348 . S
C305 C307 1.413 . S
C306 H301 0.930 . S
C306 C304 1.378 . S
C306 C305 1.348 . S
C307 C303 1.415 . S
C307 C305 1.413 . S
C307 C337 1.437 . S
H308 C337 0.929 . S
N309 Gd282 2.570 . S
N309 C310 1.359 . S
N309 C313 1.343 1_565 S
C310 C303 1.422 . S
C310 N309 1.359 . S
C310 C312 1.421 1_565 S
C311 C312 1.422 . S
C311 C314 1.321 . S
C311 H338 0.931 . S
C312 C310 1.421 1_545 S
C312 C311 1.422 . S
C312 C336 1.417 . S
C313 H290 0.931 . S
C313 N309 1.343 1_545 S
C313 C314 1.390 . S
C314 H292 0.930 . S
C314 C311 1.321 . S
C314 C313 1.390 . S
O315 Gd283 2.386 . S
O315 C327 1.265 . S
O316 Gd282 2.350 1_655 S
O316 C327 1.245 . S
O317 Gd282 2.468 . S
O317 C335 1.263 . S
O318 Gd282 2.427 . S
O318 C335 1.252 . S
O319 Gd283 2.307 1_455 S
O319 C328 1.261 . S
O320 Gd282 2.388 . S
O320 C328 1.252 . S
O321 Gd282 2.386 . S
O321 C339 1.265 . S
O322 Gd283 2.353 1_455 S
O322 C339 1.242 . S
O323 Gd283 2.468 . S
O323 C347 1.263 . S
O324 Gd283 2.427 . S
O324 C347 1.252 . S
O325 Gd282 2.295 1_655 S
O325 C340 1.275 . S
O326 Gd283 2.388 . S
O326 C340 1.252 . S
C327 O315 1.265 . S
C327 O316 1.245 . S
C328 O319 1.261 . S
C328 O320 1.252 . S
C329 C332 1.394 . S
C329 C334 1.370 . S
C329 C335 1.500 . S
C330 C333 1.383 . S
C330 C334 1.395 . S
C331 C332 1.396 . S
C331 C333 1.365 . S
C331 H348 0.929 . S
C332 C329 1.394 . S
C332 C331 1.396 . S
C332 H349 0.930 . S
C333 C330 1.383 . S
C333 C331 1.365 . S
C333 H350 0.931 . S
C334 C329 1.370 . S
C334 C330 1.395 . S
C334 H351 0.930 . S
C335 Gd282 2.805 . S
C335 O317 1.263 . S
C335 O318 1.252 . S
C335 C329 1.500 . S
C336 H298 0.930 . S
C336 C312 1.417 . S
C336 C337 1.329 1_545 S
C337 C307 1.437 . S
C337 H308 0.929 . S
C337 C336 1.329 1_565 S
H338 C311 0.931 . S
C339 O321 1.265 . S
C339 O322 1.242 . S
C340 O325 1.275 . S
C340 O326 1.252 . S
C341 C344 1.394 . S
C341 C346 1.370 . S
C341 C347 1.500 . S
C342 C345 1.383 . S
C342 C346 1.395 . S
C343 C344 1.396 . S
C343 C345 1.365 . S
C343 H352 0.929 1_565 S
C344 C341 1.394 . S
C344 C343 1.396 . S
C344 H353 0.930 . S
C345 C342 1.383 . S
C345 C343 1.365 . S
C345 H354 0.931 . S
C346 C341 1.370 . S
C346 C342 1.395 . S
C346 H355 0.930 . S
C347 Gd283 2.805 . S
C347 O323 1.263 . S
C347 O324 1.252 . S
C347 C341 1.500 . S
H348 C331 0.929 . S
H349 C332 0.930 . S
H350 C333 0.931 . S
H351 C334 0.930 . S
H352 C343 0.929 1_545 S
H353 C344 0.930 . S
H354 C345 0.931 . S
H355 C346 0.930 . S
C356 C358 1.422 . S
C356 C360 1.415 . S
C356 N362 1.369 . S
C357 C358 1.421 . S
C357 C359 1.417 . S
C357 C369 1.422 . S
C358 C356 1.422 . S
C358 C357 1.421 . S
C358 N368 1.359 . S
C359 C357 1.417 . S
C359 C361 1.329 . S
C359 H378 0.930 . S
C360 C356 1.415 . S
C360 C361 1.437 . S
C360 C364 1.413 . S
C361 C359 1.329 . S
C361 C360 1.437 . S
C361 H383 0.929 . S
N362 C356 1.369 . S
N362 C363 1.338 . S
N362 Gd367 2.622 . S
C363 N362 1.338 . S
C363 C365 1.378 . S
C363 H375 0.929 . S
C364 C360 1.413 . S
C364 C365 1.348 . S
C364 H380 0.931 . S
C365 C363 1.378 . S
C365 C364 1.348 . S
C365 H381 0.930 . S
Gd366 N386 2.622 . S
Gd366 N393 2.570 . S
Gd366 O400 2.353 . S
Gd366 O401 2.468 . S
Gd366 O402 2.427 . S
Gd366 O404 2.388 . S
Gd366 O405 2.386 . S
Gd366 O409 2.307 . S
Gd366 C419 2.805 . S
Gd367 N362 2.622 . S
Gd367 N368 2.570 . S
Gd367 O399 2.386 . S
Gd367 O403 2.307 . S
Gd367 O406 2.353 . S
Gd367 O407 2.468 . S
Gd367 O408 2.427 . S
Gd367 O410 2.388 . S
Gd367 C431 2.805 . S
N368 C358 1.359 . S
N368 Gd367 2.570 . S
N368 C370 1.343 . S
C369 C357 1.422 . S
C369 C371 1.321 . S
C369 H377 0.931 . S
C370 N368 1.343 . S
C370 C371 1.390 . S
C370 H372 0.931 . S
C371 C369 1.321 . S
C371 C370 1.390 . S
C371 H373 0.930 . S
H372 C370 0.931 . S
H373 C371 0.930 . S
H374 C397 0.931 . S
H375 C363 0.929 . S
H376 C398 0.930 . S
H377 C369 0.931 . S
H378 C359 0.930 . S
H379 C388 0.929 . S
H380 C364 0.931 . S
H381 C365 0.930 . S
H382 C420 0.930 . S
H383 C361 0.929 . S
H384 C389 0.931 . S
H385 C390 0.930 . S
N386 Gd366 2.622 . S
N386 C387 1.369 . S
N386 C388 1.338 . S
C387 N386 1.369 . S
C387 C391 1.415 . S
C387 C394 1.422 . S
C388 H379 0.929 . S
C388 N386 1.338 . S
C388 C390 1.378 . S
C389 H384 0.931 . S
C389 C390 1.348 . S
C389 C391 1.413 . S
C390 H385 0.930 . S
C390 C388 1.378 . S
C390 C389 1.348 . S
C391 C387 1.415 . S
C391 C389 1.413 . S
C391 C421 1.437 . S
H392 C421 0.929 . S
N393 Gd366 2.570 . S
N393 C394 1.359 . S
N393 C397 1.343 . S
C394 C387 1.422 . S
C394 N393 1.359 . S
C394 C396 1.421 . S
C395 C396 1.422 . S
C395 C398 1.321 . S
C395 H422 0.931 . S
C396 C394 1.421 . S
C396 C395 1.422 . S
C396 C420 1.417 . S
C397 H374 0.931 . S
C397 N393 1.343 . S
C397 C398 1.390 . S
C398 H376 0.930 . S
C398 C395 1.321 . S
C398 C397 1.390 . S
O399 Gd367 2.386 . S
O399 C411 1.265 . S
O400 Gd366 2.353 . S
O400 C411 1.242 . S
O401 Gd366 2.468 . S
O401 C419 1.263 . S
O402 Gd366 2.427 . S
O402 C419 1.252 . S
O403 Gd367 2.307 . S
O403 C412 1.261 . S
O404 Gd366 2.388 . S
O404 C412 1.252 . S
O405 Gd366 2.386 . S
O405 C423 1.265 . S
O406 Gd367 2.353 . S
O406 C423 1.242 . S
O407 Gd367 2.468 . S
O407 C431 1.263 . S
O408 Gd367 2.427 . S
O408 C431 1.252 . S
O409 Gd366 2.307 . S
O409 C424 1.261 . S
O410 Gd367 2.388 . S
O410 C424 1.252 . S
C411 O399 1.265 . S
C411 O400 1.242 . S
C412 O403 1.261 . S
C412 O404 1.252 . S
C413 C416 1.394 . S
C413 C418 1.370 . S
C413 C419 1.500 . S
C414 C417 1.383 . S
C414 C418 1.395 . S
C415 C416 1.396 . S
C415 C417 1.365 . S
C415 H432 0.929 . S
C416 C413 1.394 . S
C416 C415 1.396 . S
C416 H433 0.930 . S
C417 C414 1.383 . S
C417 C415 1.365 . S
C417 H434 0.931 . S
C418 C413 1.370 . S
C418 C414 1.395 . S
C418 H435 0.930 . S
C419 Gd366 2.805 . S
C419 O401 1.263 . S
C419 O402 1.252 . S
C419 C413 1.500 . S
C420 H382 0.930 . S
C420 C396 1.417 . S
C420 C421 1.329 . S
C421 C391 1.437 . S
C421 H392 0.929 . S
C421 C420 1.329 . S
H422 C395 0.931 . S
C423 O405 1.265 . S
C423 O406 1.242 . S
C424 O409 1.261 . S
C424 O410 1.252 . S
C425 C428 1.394 . S
C425 C430 1.370 . S
C425 C431 1.500 . S
C426 C429 1.383 . S
C426 C430 1.395 . S
C427 C428 1.396 . S
C427 C429 1.365 . S
C427 H436 0.929 . S
C428 C425 1.394 . S
C428 C427 1.396 . S
C428 H437 0.930 . S
C429 C426 1.383 . S
C429 C427 1.365 . S
C429 H438 0.931 . S
C430 C425 1.370 . S
C430 C426 1.395 . S
C430 H439 0.930 . S
C431 Gd367 2.805 . S
C431 O407 1.263 . S
C431 O408 1.252 . S
C431 C425 1.500 . S
H432 C415 0.929 . S
H433 C416 0.930 . S
H434 C417 0.931 . S
H435 C418 0.930 . S
H436 C427 0.929 . S
H437 C428 0.930 . S
H438 C429 0.931 . S
H439 C430 0.930 . S
C440 C441 1.363 . S
C440 C446 1.379 . S
C440 N448 1.356 . S
C441 C440 1.363 . S
C441 C447 1.363 . S
C442 C443 1.363 . S
C442 C447 1.379 . S
C442 N449 1.356 . S
C443 C442 1.363 . S
C443 C446 1.363 . S
N444 C446 1.356 1_545 S
N444 H456 0.984 . S
N444 H457 0.985 . S
N445 C447 1.356 . S
N445 H450 0.984 . S
N445 H451 0.985 . S
C446 C440 1.379 . S
C446 C443 1.363 . S
C446 N444 1.356 1_565 S
C447 C441 1.363 . S
C447 C442 1.379 . S
C447 N445 1.356 . S
N448 C440 1.356 . S
N448 H454 0.984 . S
N448 H455 0.984 . S
N449 C442 1.356 . S
N449 H452 0.984 . S
N449 H453 0.985 . S
H450 N445 0.984 . S
H451 N445 0.985 . S
H452 N449 0.984 . S
H453 N449 0.985 . S
H454 N448 0.984 . S
H455 N448 0.984 . S
H456 N444 0.984 . S
H457 N444 0.985 . S
C458 C459 1.363 . S
C458 C464 1.379 . S
C458 N466 1.356 . S
C459 C458 1.363 . S
C459 C465 1.363 . S
C460 C461 1.363 . S
C460 C465 1.379 . S
C460 N467 1.356 . S
C461 C460 1.363 . S
C461 C464 1.363 . S
N462 C464 1.356 . S
N462 H474 0.984 . S
N462 H475 0.985 . S
N463 C465 1.356 . S
N463 H468 0.984 . S
N463 H469 0.985 . S
C464 C458 1.379 . S
C464 C461 1.363 . S
C464 N462 1.356 . S
C465 C459 1.363 . S
C465 C460 1.379 . S
C465 N463 1.356 . S
N466 C458 1.356 . S
N466 H472 0.984 . S
N466 H473 0.984 . S
N467 C460 1.356 . S
N467 H470 0.984 . S
N467 H471 0.985 . S
H468 N463 0.984 . S
H469 N463 0.985 . S
H470 N467 0.984 . S
H471 N467 0.985 . S
H472 N466 0.984 . S
H473 N466 0.984 . S
H474 N462 0.984 . S
H475 N462 0.985 . S
C476 C477 1.363 . S
C476 C482 1.379 . S
C476 N484 1.356 . S
C477 C476 1.363 . S
C477 C483 1.363 . S
C478 C479 1.363 . S
C478 C483 1.379 . S
C478 N485 1.356 . S
C479 C478 1.363 . S
C479 C482 1.363 . S
N480 C482 1.356 . S
N480 H492 0.984 . S
N480 H493 0.985 . S
N481 C483 1.356 . S
N481 H486 0.984 . S
N481 H487 0.985 . S
C482 C476 1.379 . S
C482 C479 1.363 . S
C482 N480 1.356 . S
C483 C477 1.363 . S
C483 C478 1.379 . S
C483 N481 1.356 . S
N484 C476 1.356 . S
N484 H490 0.984 . S
N484 H491 0.984 . S
N485 C478 1.356 . S
N485 H488 0.984 . S
N485 H489 0.985 . S
H486 N481 0.984 . S
H487 N481 0.985 . S
H488 N485 0.984 . S
H489 N485 0.985 . S
H490 N484 0.984 . S
H491 N484 0.984 . S
H492 N480 0.984 . S
H493 N480 0.985 . S
C494 C495 1.363 . S
C494 C500 1.379 . S
C494 N502 1.356 . S
C495 C494 1.363 . S
C495 C501 1.363 . S
C496 C497 1.363 . S
C496 C501 1.379 . S
C496 N503 1.356 1_565 S
C497 C496 1.363 . S
C497 C500 1.363 . S
N498 C500 1.356 . S
N498 H510 0.984 . S
N498 H511 0.985 . S
N499 C501 1.356 . S
N499 H504 0.984 . S
N499 H505 0.985 . S
C500 C494 1.379 . S
C500 C497 1.363 . S
C500 N498 1.356 . S
C501 C495 1.363 . S
C501 C496 1.379 . S
C501 N499 1.356 . S
N502 C494 1.356 . S
N502 H508 0.984 . S
N502 H509 0.984 . S
N503 C496 1.356 1_545 S
N503 H506 0.984 . S
N503 H507 0.985 . S
H504 N499 0.984 . S
H505 N499 0.985 . S
H506 N503 0.984 . S
H507 N503 0.985 . S
H508 N502 0.984 . S
H509 N502 0.984 . S
H510 N498 0.984 . S
H511 N498 0.985 . S
C512 C513 1.363 . S
C512 C518 1.379 . S
C512 N520 1.356 . S
C513 C512 1.363 . S
C513 C519 1.363 . S
C514 C515 1.363 1_565 S
C514 C519 1.379 1_565 S
C514 N521 1.356 . S
C515 C514 1.363 1_545 S
C515 C518 1.363 . S
N516 C518 1.356 . S
N516 H528 0.984 . S
N516 H529 0.985 . S
N517 C519 1.356 . S
N517 H522 0.984 . S
N517 H523 1.000 . S
C518 C512 1.379 . S
C518 C515 1.363 . S
C518 N516 1.356 . S
C519 C513 1.363 . S
C519 C514 1.379 1_545 S
C519 N517 1.356 . S
N520 C512 1.356 . S
N520 H526 0.984 . S
N520 H527 0.984 . S
N521 C514 1.356 . S
N521 H524 0.984 . S
N521 H525 0.985 . S
H522 N517 0.984 . S
H523 N517 1.000 . S
H524 N521 0.984 . S
H525 N521 0.985 . S
H526 N520 0.984 . S
H527 N520 0.984 . S
H528 N516 0.984 . S
H529 N516 0.985 . S
C530 C531 1.363 . S
C530 C536 1.379 . S
C530 N538 1.356 . S
C531 C530 1.363 . S
C531 C537 1.363 . S
C532 C533 1.363 . S
C532 C537 1.379 . S
C532 N539 1.356 . S
C533 C532 1.363 . S
C533 C536 1.363 . S
N534 C536 1.356 . S
N534 H546 0.984 . S
N534 H547 0.985 . S
N535 C537 1.356 . S
N535 H540 0.984 . S
N535 H541 0.985 . S
C536 C530 1.379 . S
C536 C533 1.363 . S
C536 N534 1.356 . S
C537 C531 1.363 . S
C537 C532 1.379 . S
C537 N535 1.356 . S
N538 C530 1.356 . S
N538 H544 0.984 . S
N538 H545 0.984 . S
N539 C532 1.356 . S
N539 H542 0.984 . S
N539 H543 0.985 . S
H540 N535 0.984 . S
H541 N535 0.985 . S
H542 N539 0.984 . S
H543 N539 0.985 . S
H544 N538 0.984 . S
H545 N538 0.984 . S
H546 N534 0.984 . S
H547 N534 0.985 . S
C548 C549 1.363 . S
C548 C554 1.379 . S
C548 N556 1.356 . S
C549 C548 1.363 . S
C549 C555 1.363 . S
C550 C551 1.363 . S
C550 C555 1.379 . S
C550 N557 1.356 . S
C551 C550 1.363 . S
C551 C554 1.363 . S
N552 C554 1.356 . S
N552 H564 0.984 . S
N552 H565 0.985 . S
N553 C555 1.356 . S
N553 H558 0.984 . S
N553 H559 0.985 . S
C554 C548 1.379 . S
C554 C551 1.363 . S
C554 N552 1.356 . S
C555 C549 1.363 . S
C555 C550 1.379 . S
C555 N553 1.356 . S
N556 C548 1.356 . S
N556 H562 0.984 . S
N556 H563 0.984 . S
N557 C550 1.356 . S
N557 H560 0.984 . S
N557 H561 0.985 . S
H558 N553 0.984 . S
H559 N553 0.985 . S
H560 N557 0.984 . S
H561 N557 0.985 . S
H562 N556 0.984 . S
H563 N556 0.984 . S
H564 N552 0.984 . S
H565 N552 0.985 . S
C566 C567 1.363 . S
C566 C572 1.379 1_545 S
C566 N574 1.356 . S
C567 C566 1.363 . S
C567 C573 1.363 . S
C568 C569 1.363 . S
C568 C573 1.379 . S
C568 N575 1.356 . S
C569 C568 1.363 . S
C569 C572 1.363 1_545 S
N570 C572 1.356 . S
N570 H582 0.984 . S
N570 H583 0.985 . S
N571 C573 1.356 . S
N571 H576 0.984 . S
N571 H577 0.985 . S
C572 C566 1.379 1_565 S
C572 C569 1.363 1_565 S
C572 N570 1.356 . S
C573 C567 1.363 . S
C573 C568 1.379 . S
C573 N571 1.356 . S
N574 C566 1.356 . S
N574 H580 0.984 1_545 S
N574 H581 0.984 . S
N575 C568 1.356 . S
N575 H578 0.984 . S
N575 H579 0.985 . S
H576 N571 0.984 . S
H577 N571 0.985 . S
H578 N575 0.984 . S
H579 N575 0.985 . S
H580 N574 0.984 1_565 S
H581 N574 0.984 . S
H582 N570 0.984 . S
H583 N570 0.985 . S
C584 C585 1.363 . S
C584 C590 1.379 1_556 S
C584 N592 1.356 . S
C585 C584 1.363 . S
C585 C591 1.363 . S
C586 C587 1.363 1_556 S
C586 C591 1.379 . S
C586 N593 1.356 . S
C587 C586 1.363 1_554 S
C587 C590 1.363 . S
N588 C590 1.356 . S
N588 H600 0.984 . S
N588 H601 0.985 . S
N589 C591 1.356 . S
N589 H594 0.984 . S
N589 H595 0.985 . S
C590 C584 1.379 1_554 S
C590 C587 1.363 . S
C590 N588 1.356 . S
C591 C585 1.363 . S
C591 C586 1.379 . S
C591 N589 1.356 . S
N592 C584 1.356 . S
N592 H598 0.984 . S
N592 H599 0.984 . S
N593 C586 1.356 . S
N593 H596 0.984 1_556 S
N593 H597 0.985 . S
H594 N589 0.984 . S
H595 N589 0.985 . S
H596 N593 0.984 1_554 S
H597 N593 0.985 . S
H598 N592 0.984 . S
H599 N592 0.984 . S
H600 N588 0.984 . S
H601 N588 0.985 . S
C602 C603 1.363 . S
C602 C608 1.379 . S
C602 N610 1.356 . S
C603 C602 1.363 . S
C603 C609 1.363 . S
C604 C605 1.363 . S
C604 C609 1.379 . S
C604 N611 1.356 . S
C605 C604 1.363 . S
C605 C608 1.363 . S
N606 C608 1.356 . S
N606 H618 0.984 . S
N606 H619 0.985 . S
N607 C609 1.356 . S
N607 H612 0.984 . S
N607 H613 0.985 . S
C608 C602 1.379 . S
C608 C605 1.363 . S
C608 N606 1.356 . S
C609 C603 1.363 . S
C609 C604 1.379 . S
C609 N607 1.356 . S
N610 C602 1.356 . S
N610 H616 0.984 . S
N610 H617 0.984 . S
N611 C604 1.356 . S
N611 H614 0.984 . S
N611 H615 0.985 . S
H612 N607 0.984 . S
H613 N607 0.985 . S
H614 N611 0.984 . S
H615 N611 0.985 . S
H616 N610 0.984 . S
H617 N610 0.984 . S
H618 N606 0.984 . S
H619 N606 0.985 . S
C620 C621 1.363 . S
C620 C626 1.379 1_554 S
C620 N628 1.356 . S
C621 C620 1.363 . S
C621 C627 1.363 . S
C622 C623 1.363 1_554 S
C622 C627 1.379 . S
C622 N629 1.356 . S
C623 C622 1.363 1_556 S
C623 C626 1.363 . S
N624 C626 1.356 . S
N624 H636 0.984 . S
N624 H637 0.985 . S
N625 C627 1.356 . S
N625 H630 0.984 . S
N625 H631 0.985 . S
C626 C620 1.379 1_556 S
C626 C623 1.363 . S
C626 N624 1.356 . S
C627 C621 1.363 . S
C627 C622 1.379 . S
C627 N625 1.356 . S
N628 C620 1.356 . S
N628 H634 0.984 . S
N628 H635 0.984 . S
N629 C622 1.356 . S
N629 H632 0.984 1_554 S
N629 H633 0.985 . S
H630 N625 0.984 . S
H631 N625 0.985 . S
H632 N629 0.984 1_556 S
H633 N629 0.985 . S
H634 N628 0.984 . S
H635 N628 0.984 . S
H636 N624 0.984 . S
H637 N624 0.985 . S
C638 C639 1.363 . S
C638 C644 1.379 . S
C638 N646 1.356 . S
C639 C638 1.363 . S
C639 C645 1.363 . S
C640 C641 1.363 . S
C640 C645 1.379 . S
C640 N647 1.356 . S
C641 C640 1.363 . S
C641 C644 1.363 . S
N642 C644 1.356 . S
N642 H654 0.996 . S
N642 H655 0.985 . S
N643 C645 1.356 . S
N643 H648 0.984 . S
N643 H649 0.985 . S
C644 C638 1.379 . S
C644 C641 1.363 . S
C644 N642 1.356 . S
C645 C639 1.363 . S
C645 C640 1.379 . S
C645 N643 1.356 . S
N646 C638 1.356 . S
N646 H652 0.984 . S
N646 H653 0.984 . S
N647 C640 1.356 . S
N647 H650 0.984 . S
N647 H651 0.985 . S
H648 N643 0.984 . S
H649 N643 0.985 . S
H650 N647 0.984 . S
H651 N647 0.985 . S
H652 N646 0.984 . S
H653 N646 0.984 . S
H654 N642 0.996 . S
H655 N642 0.985 . S
C656 C657 1.363 . S
C656 C662 1.379 . S
C656 N664 1.356 . S
C657 C656 1.363 . S
C657 C663 1.363 . S
C658 C659 1.363 1_554 S
C658 C663 1.379 . S
C658 N665 1.356 1_554 S
C659 C658 1.363 1_556 S
C659 C662 1.363 1_556 S
N660 C662 1.356 1_556 S
N660 H672 0.984 1_556 S
N660 H673 0.985 . S
N661 C663 1.356 . S
N661 H666 0.984 . S
N661 H667 0.985 . S
C662 C656 1.379 . S
C662 C659 1.363 1_554 S
C662 N660 1.356 1_554 S
C663 C657 1.363 . S
C663 C658 1.379 . S
C663 N661 1.356 . S
N664 C656 1.356 . S
N664 H670 0.984 . S
N664 H671 0.984 . S
N665 C658 1.356 1_556 S
N665 H668 0.984 . S
N665 H669 0.985 . S
H666 N661 0.984 . S
H667 N661 0.985 . S
H668 N665 0.984 . S
H669 N665 0.985 . S
H670 N664 0.984 . S
H671 N664 0.984 . S
H672 N660 0.984 1_554 S
H673 N660 0.985 . S
C674 C675 1.363 . S
C674 C680 1.379 . S
C674 N682 1.356 . S
C675 C674 1.363 . S
C675 C681 1.363 . S
C676 C677 1.363 . S
C676 C681 1.379 . S
C676 N683 1.356 . S
C677 C676 1.363 . S
C677 C680 1.363 . S
N678 C680 1.356 . S
N678 H690 0.984 . S
N678 H691 0.985 . S
N679 C681 1.356 . S
N679 H684 0.984 . S
N679 H685 0.985 . S
C680 C674 1.379 . S
C680 C677 1.363 . S
C680 N678 1.356 . S
C681 C675 1.363 . S
C681 C676 1.379 . S
C681 N679 1.356 . S
N682 C674 1.356 . S
N682 H688 0.984 . S
N682 H689 0.984 . S
N683 C676 1.356 . S
N683 H686 0.984 . S
N683 H687 0.985 . S
H684 N679 0.984 . S
H685 N679 0.985 . S
H686 N683 0.984 . S
H687 N683 0.985 . S
H688 N682 0.984 . S
H689 N682 0.984 . S
H690 N678 0.984 . S
H691 N678 0.985 . S
C692 C693 1.363 . S
C692 C698 1.379 . S
C692 N700 1.356 . S
C693 C692 1.363 . S
C693 C699 1.363 . S
C694 C695 1.363 1_556 S
C694 C699 1.379 . S
C694 N701 1.356 1_556 S
C695 C694 1.363 1_554 S
C695 C698 1.363 1_554 S
N696 C698 1.356 1_554 S
N696 H708 0.984 . S
N696 H709 0.985 . S
N697 C699 1.356 . S
N697 H702 0.984 . S
N697 H703 0.985 . S
C698 C692 1.379 . S
C698 C695 1.363 1_556 S
C698 N696 1.356 1_556 S
C699 C693 1.363 . S
C699 C694 1.379 . S
C699 N697 1.356 . S
N700 C692 1.356 . S
N700 H706 0.984 . S
N700 H707 0.984 . S
N701 C694 1.356 1_554 S
N701 H704 0.984 . S
N701 H705 0.985 . S
H702 N697 0.984 . S
H703 N697 0.985 . S
H704 N701 0.984 . S
H705 N701 0.985 . S
H706 N700 0.984 . S
H707 N700 0.984 . S
H708 N696 0.984 . S
H709 N696 0.985 . S
C710 C711 1.363 . S
C710 C716 1.379 . S
C710 N718 1.356 . S
C711 C710 1.363 . S
C711 C717 1.363 . S
C712 C713 1.363 . S
C712 C717 1.379 . S
C712 N719 1.356 . S
C713 C712 1.363 . S
C713 C716 1.363 . S
N714 C716 1.356 . S
N714 H726 0.984 . S
N714 H727 0.985 . S
N715 C717 1.356 . S
N715 H720 0.984 . S
N715 H721 0.985 . S
C716 C710 1.379 . S
C716 C713 1.363 . S
C716 N714 1.356 . S
C717 C711 1.363 . S
C717 C712 1.379 . S
C717 N715 1.356 . S
N718 C710 1.356 . S
N718 H724 0.984 . S
N718 H725 0.984 . S
N719 C712 1.356 . S
N719 H722 0.984 . S
N719 H723 0.985 . S
H720 N715 0.984 . S
H721 N715 0.985 . S
H722 N719 0.984 . S
H723 N719 0.985 . S
H724 N718 0.984 . S
H725 N718 0.984 . S
H726 N714 0.984 . S
H727 N714 0.985 . S
C728 C729 1.363 . S
C728 C734 1.379 . S
C728 N736 1.356 . S
C729 C728 1.363 . S
C729 C735 1.363 . S
C730 C731 1.363 . S
C730 C735 1.379 . S
C730 N737 1.356 . S
C731 C730 1.363 . S
C731 C734 1.363 . S
N732 C734 1.356 . S
N732 H744 0.984 . S
N732 H745 0.985 . S
N733 C735 1.356 . S
N733 H738 0.984 . S
N733 H739 0.985 . S
C734 C728 1.379 . S
C734 C731 1.363 . S
C734 N732 1.356 . S
C735 C729 1.363 . S
C735 C730 1.379 . S
C735 N733 1.356 . S
N736 C728 1.356 . S
N736 H742 0.984 . S
N736 H743 0.984 . S
N737 C730 1.356 . S
N737 H740 0.984 . S
N737 H741 0.985 . S
H738 N733 0.984 . S
H739 N733 0.985 . S
H740 N737 0.984 . S
H741 N737 0.985 . S
H742 N736 0.984 . S
H743 N736 0.984 . S
H744 N732 0.984 . S
H745 N732 0.985 . S
C746 C747 1.363 . S
C746 C752 1.379 . S
C746 N754 1.356 . S
C747 C746 1.363 . S
C747 C753 1.363 . S
C748 C749 1.363 . S
C748 C753 1.379 . S
C748 N755 1.356 . S
C749 C748 1.363 . S
C749 C752 1.363 . S
N750 C752 1.356 . S
N750 H762 0.984 . S
N750 H763 0.985 . S
N751 C753 1.356 . S
N751 H756 0.984 . S
N751 H757 0.985 . S
C752 C746 1.379 . S
C752 C749 1.363 . S
C752 N750 1.356 . S
C753 C747 1.363 . S
C753 C748 1.379 . S
C753 N751 1.356 . S
N754 C746 1.356 . S
N754 H760 0.984 . S
N754 H761 0.984 . S
N755 C748 1.356 . S
N755 H758 0.984 . S
N755 H759 0.985 . S
H756 N751 0.984 . S
H757 N751 0.985 . S
H758 N755 0.984 . S
H759 N755 0.985 . S
H760 N754 0.984 . S
H761 N754 0.984 . S
H762 N750 0.984 . S
H763 N750 0.985 . S
C764 C765 1.363 . S
C764 C770 1.379 . S
C764 N772 1.356 . S
C765 C764 1.363 . S
C765 C771 1.363 . S
C766 C767 1.363 . S
C766 C771 1.379 . S
C766 N773 1.356 . S
C767 C766 1.363 . S
C767 C770 1.363 . S
N768 C770 1.356 . S
N768 H780 0.984 . S
N768 H781 0.985 . S
N769 C771 1.356 . S
N769 H774 0.984 . S
N769 H775 0.985 . S
C770 C764 1.379 . S
C770 C767 1.363 . S
C770 N768 1.356 . S
C771 C765 1.363 . S
C771 C766 1.379 . S
C771 N769 1.356 . S
N772 C764 1.356 . S
N772 H778 0.984 . S
N772 H779 0.984 . S
N773 C766 1.356 . S
N773 H776 0.984 . S
N773 H777 0.985 . S
H774 N769 0.984 . S
H775 N769 0.985 . S
H776 N773 0.984 . S
H777 N773 0.985 . S
H778 N772 0.984 . S
H779 N772 0.984 . S
H780 N768 0.984 . S
H781 N768 0.985 . S
C782 C783 1.363 . S
C782 C788 1.379 . S
C782 N790 1.356 . S
C783 C782 1.363 . S
C783 C789 1.363 . S
C784 C785 1.363 . S
C784 C789 1.379 . S
C784 N791 1.356 . S
C785 C784 1.363 . S
C785 C788 1.363 . S
N786 C788 1.356 . S
N786 H798 0.984 1_655 S
N786 H799 0.985 1_655 S
N787 C789 1.356 . S
N787 H792 0.984 . S
N787 H793 0.985 . S
C788 C782 1.379 . S
C788 C785 1.363 . S
C788 N786 1.356 . S
C789 C783 1.363 . S
C789 C784 1.379 . S
C789 N787 1.356 . S
N790 C782 1.356 . S
N790 H796 0.984 . S
N790 H797 0.984 . S
N791 C784 1.356 . S
N791 H794 0.984 . S
N791 H795 0.985 . S
H792 N787 0.984 . S
H793 N787 0.985 . S
H794 N791 0.984 . S
H795 N791 0.985 . S
H796 N790 0.984 . S
H797 N790 0.984 . S
H798 N786 0.984 1_455 S
H799 N786 0.985 1_455 S
C800 C801 1.363 . S
C800 C806 1.379 . S
C800 N808 1.356 . S
C801 C800 1.363 . S
C801 C807 1.363 . S
C802 C803 1.363 . S
C802 C807 1.379 . S
C802 N809 1.356 . S
C803 C802 1.363 . S
C803 C806 1.363 . S
N804 C806 1.356 . S
N804 H816 0.984 . S
N804 H817 0.985 . S
N805 C807 1.356 . S
N805 H810 0.984 . S
N805 H811 0.985 . S
C806 C800 1.379 . S
C806 C803 1.363 . S
C806 N804 1.356 . S
C807 C801 1.363 . S
C807 C802 1.379 . S
C807 N805 1.356 . S
N808 C800 1.356 . S
N808 H814 0.984 . S
N808 H815 0.984 . S
N809 C802 1.356 . S
N809 H812 0.984 1_655 S
N809 H813 0.985 1_655 S
H810 N805 0.984 . S
H811 N805 0.985 . S
H812 N809 0.984 1_455 S
H813 N809 0.985 1_455 S
H814 N808 0.984 . S
H815 N808 0.984 . S
H816 N804 0.984 . S
H817 N804 0.985 . S
C818 C819 1.363 . S
C818 C824 1.379 . S
C818 N826 1.356 . S
C819 C818 1.363 . S
C819 C825 1.363 . S
C820 C821 1.363 . S
C820 C825 1.379 . S
C820 N827 1.356 . S
C821 C820 1.363 . S
C821 C824 1.363 . S
N822 C824 1.356 . S
N822 H834 0.984 . S
N822 H835 0.985 . S
N823 C825 1.356 . S
N823 H828 0.984 . S
N823 H829 0.985 . S
C824 C818 1.379 . S
C824 C821 1.363 . S
C824 N822 1.356 . S
C825 C819 1.363 . S
C825 C820 1.379 . S
C825 N823 1.356 . S
N826 C818 1.356 . S
N826 H832 0.984 . S
N826 H833 0.984 . S
N827 C820 1.356 . S
N827 H830 0.984 . S
N827 H831 0.985 . S
H828 N823 0.984 . S
H829 N823 0.985 . S
H830 N827 0.984 . S
H831 N827 0.985 . S
H832 N826 0.984 . S
H833 N826 0.984 . S
H834 N822 0.984 . S
H835 N822 0.985 . S
C836 C837 1.363 . S
C836 C842 1.379 . S
C836 N844 1.356 . S
C837 C836 1.363 . S
C837 C843 1.363 . S
C838 C839 1.363 . S
C838 C843 1.379 . S
C838 N845 1.356 . S
C839 C838 1.363 . S
C839 C842 1.363 . S
N840 C842 1.356 . S
N840 H852 0.984 . S
N840 H853 0.985 . S
N841 C843 1.356 . S
N841 H846 0.984 . S
N841 H847 0.985 . S
C842 C836 1.379 . S
C842 C839 1.363 . S
C842 N840 1.356 . S
C843 C837 1.363 . S
C843 C838 1.379 . S
C843 N841 1.356 . S
N844 C836 1.356 . S
N844 H850 0.984 . S
N844 H851 0.984 . S
N845 C838 1.356 . S
N845 H848 0.984 . S
N845 H849 0.985 . S
H846 N841 0.984 . S
H847 N841 0.985 . S
H848 N845 0.984 . S
H849 N845 0.985 . S
H850 N844 0.984 . S
H851 N844 0.984 . S
H852 N840 0.984 . S
H853 N840 0.985 . S
C854 C855 1.363 . S
C854 C860 1.379 . S
C854 N862 1.356 . S
C855 C854 1.363 . S
C855 C861 1.363 . S
C856 C857 1.363 . S
C856 C861 1.379 . S
C856 N863 1.356 1_455 S
C857 C856 1.363 . S
C857 C860 1.363 . S
N858 C860 1.356 . S
N858 H870 0.984 . S
N858 H871 0.985 . S
N859 C861 1.356 . S
N859 H864 0.984 . S
N859 H865 0.985 . S
C860 C854 1.379 . S
C860 C857 1.363 . S
C860 N858 1.356 . S
C861 C855 1.363 . S
C861 C856 1.379 . S
C861 N859 1.356 . S
N862 C854 1.356 . S
N862 H868 0.984 . S
N862 H869 0.984 . S
N863 C856 1.356 1_655 S
N863 H866 0.984 . S
N863 H867 0.985 . S
H864 N859 0.984 . S
H865 N859 0.985 . S
H866 N863 0.984 . S
H867 N863 0.985 . S
H868 N862 0.984 . S
H869 N862 0.984 . S
H870 N858 0.984 . S
H871 N858 0.985 . S
C441 N83 1.626 . S
C443 C160 1.629 1_565 S
C461 C244 1.629 . S
C459 N96 1.626 . S
C479 C243 1.639 . S
C477 N57 1.619 . S
C495 N70 1.619 . S
C497 C159 1.639 1_565 S
C515 C340 1.629 1_545 S
C513 N31 1.628 . S
C533 C424 1.629 . S
C531 N44 1.628 . S
C549 N5 1.621 . S
C551 C423 1.639 . S
C567 N18 1.621 . S
C569 C339 1.639 1_545 S
C587 C162 1.446 . S
C585 N14 1.626 . S
C605 C246 1.446 . S
C603 N1 1.626 . S
C623 C258 1.347 . S
C621 N40 1.614 . S
C641 C174 1.347 . S
C639 N27 1.614 . S
C659 C342 1.446 . S
C657 N66 1.617 . S
C675 N53 1.617 . S
C677 C426 1.446 . S
C695 C414 1.347 . S
C693 N92 1.607 . S
C711 N79 1.607 . S
C713 C330 1.347 . S
C731 C171 1.525 . S
C729 N2 1.523 . S
C749 C255 1.525 . S
C747 N15 1.523 . S
C765 N28 1.520 . S
C767 C256 1.495 . S
C785 C172 1.495 . S
C783 N41 1.520 . S
C803 C327 1.525 . S
C801 N54 1.518 . S
C819 N67 1.517 . S
C821 C411 1.525 . S
C837 N80 1.515 . S
C839 C412 1.495 . S
C855 N93 1.515 . S
C857 C328 1.495 . S
