# Generated by pormake.
# Topology ant, (3,6)-cn, num edge types: 1
# Building blocks:
#     Node 0, Type 0, BuildingBlock: QEWDON_clean_linker_0, # of connection points: 3
#     Node 1, Type 0, BuildingBlock: QEWDON_clean_linker_0, # of connection points: 3
#     Node 2, Type 0, BuildingBlock: QEWDON_clean_linker_0, # of connection points: 3
#     Node 3, Type 0, BuildingBlock: QEWDON_clean_linker_0, # of connection points: 3
#     Node 4, Type 0, BuildingBlock: QEWDON_clean_linker_0, # of connection points: 3
#     Node 5, Type 0, BuildingBlock: QEWDON_clean_linker_0, # of connection points: 3
#     Node 6, Type 0, BuildingBlock: QEWDON_clean_linker_0, # of connection points: 3
#     Node 7, Type 0, BuildingBlock: QEWDON_clean_linker_0, # of connection points: 3
#     Node 8, Type 1, BuildingBlock: MIDCAF_clean_sbu_0, # of connection points: 6
#     Node 9, Type 1, BuildingBlock: MIDCAF_clean_sbu_0, # of connection points: 6
#     Node 10, Type 1, BuildingBlock: MIDCAF_clean_sbu_0, # of connection points: 6
#     Node 11, Type 1, BuildingBlock: MIDCAF_clean_sbu_0, # of connection points: 6
#     Edge 12, Type (0, 1), BuildingBlock: OJICUG_clean_linker_0, # of connection points: 2
#     Edge 13, Type (0, 1), BuildingBlock: OJICUG_clean_linker_0, # of connection points: 2
#     Edge 14, Type (0, 1), BuildingBlock: OJICUG_clean_linker_0, # of connection points: 2
#     Edge 15, Type (0, 1), BuildingBlock: OJICUG_clean_linker_0, # of connection points: 2
#     Edge 16, Type (0, 1), BuildingBlock: OJICUG_clean_linker_0, # of connection points: 2
#     Edge 17, Type (0, 1), BuildingBlock: OJICUG_clean_linker_0, # of connection points: 2
#     Edge 18, Type (0, 1), BuildingBlock: OJICUG_clean_linker_0, # of connection points: 2
#     Edge 19, Type (0, 1), BuildingBlock: OJICUG_clean_linker_0, # of connection points: 2
#     Edge 20, Type (0, 1), BuildingBlock: OJICUG_clean_linker_0, # of connection points: 2
#     Edge 21, Type (0, 1), BuildingBlock: OJICUG_clean_linker_0, # of connection points: 2
#     Edge 22, Type (0, 1), BuildingBlock: OJICUG_clean_linker_0, # of connection points: 2
#     Edge 23, Type (0, 1), BuildingBlock: OJICUG_clean_linker_0, # of connection points: 2
#     Edge 24, Type (0, 1), BuildingBlock: OJICUG_clean_linker_0, # of connection points: 2
#     Edge 25, Type (0, 1), BuildingBlock: OJICUG_clean_linker_0, # of connection points: 2
#     Edge 26, Type (0, 1), BuildingBlock: OJICUG_clean_linker_0, # of connection points: 2
#     Edge 27, Type (0, 1), BuildingBlock: OJICUG_clean_linker_0, # of connection points: 2
#     Edge 28, Type (0, 1), BuildingBlock: OJICUG_clean_linker_0, # of connection points: 2
#     Edge 29, Type (0, 1), BuildingBlock: OJICUG_clean_linker_0, # of connection points: 2
#     Edge 30, Type (0, 1), BuildingBlock: OJICUG_clean_linker_0, # of connection points: 2
#     Edge 31, Type (0, 1), BuildingBlock: OJICUG_clean_linker_0, # of connection points: 2
#     Edge 32, Type (0, 1), BuildingBlock: OJICUG_clean_linker_0, # of connection points: 2
#     Edge 33, Type (0, 1), BuildingBlock: OJICUG_clean_linker_0, # of connection points: 2
#     Edge 34, Type (0, 1), BuildingBlock: OJICUG_clean_linker_0, # of connection points: 2
#     Edge 35, Type (0, 1), BuildingBlock: OJICUG_clean_linker_0, # of connection points: 2
# Relax obj value: 0.062
# Max RMSD: 0.160
# Mean RMSD: 0.122
data_MOF--net-ant--node1-MIDCAF_clean_sbu_0--node2-QEWDON_clean_linker_0--edge1-OJICUG_clean_linker_0
_symmetry_space_group_name_H-M    P1
_symmetry_Int_Tables_number       1
_symmetry_cell_setting            triclinic
loop_
_symmetry_equiv_pos_as_xyz
'x, y, z'
_cell_length_a     22.503218
_cell_length_b     22.413285
_cell_length_c     50.932601
_cell_angle_alpha  96.055009
_cell_angle_beta   101.73502
_cell_angle_gamma 89.651007
loop_
_atom_site_label
_atom_site_type_symbol
_atom_site_fract_x
_atom_site_fract_y
_atom_site_fract_z
_atom_type_partial_charge
H0 H 0.1322 0.157 0.04786 0.0
C1 C 0.13659 0.2047 0.05418 0.0
C2 C 0.11868 0.24485 0.03475 0.0
C3 C 0.15747 0.22607 0.08156 0.0
H4 H 0.10601 0.33789 0.02776 0.0
C5 C 0.12083 0.30698 0.0427 0.0
C6 C 0.14159 0.32947 0.0697 0.0
C7 C 0.16143 0.28874 0.08877 0.0
C8 C 0.17181 0.18374 0.1029 0.0
H9 H 0.18013 0.30635 0.10939 0.0
C10 C 0.1926 0.12499 0.09725 0.0
C11 C 0.20157 0.08418 0.11702 0.0
C12 C 0.16187 0.20118 0.12906 0.0
H13 H 0.14381 0.24468 0.13425 0.0
C14 C 0.17302 0.16199 0.14892 0.0
H15 H 0.20153 0.11064 0.07748 0.0
C16 C 0.19229 0.10393 0.14299 0.0
H17 H 0.19735 0.0738 0.15854 0.0
H18 H 0.1648 0.17612 0.16884 0.0
H19 H 0.02359 0.82165 0.28858 0.0
C20 C 0.07209 0.81563 0.29461 0.0
C21 C 0.10778 0.81004 0.27492 0.0
C22 C 0.09936 0.81425 0.32204 0.0
H23 H 0.19737 0.79564 0.26706 0.0
C24 C 0.17042 0.80162 0.28253 0.0
C25 C 0.19821 0.79697 0.30943 0.0
C26 C 0.16262 0.8045 0.32921 0.0
C27 C 0.06256 0.82355 0.34337 0.0
H28 H 0.18372 0.8003 0.35003 0.0
C29 C 0.00405 0.79721 0.34012 0.0
C30 C 0.97148 0.80538 0.36116 0.0
C31 C 0.08674 0.85939 0.36751 0.0
H32 H 0.13072 0.88128 0.37043 0.0
C33 C 0.05429 0.86822 0.38809 0.0
H34 H 0.98477 0.76907 0.32177 0.0
C35 C 0.99734 0.84137 0.38504 0.0
H36 H 0.97306 0.84934 0.40136 0.0
H37 H 0.07338 0.89609 0.40653 0.0
H38 H 0.67257 0.68732 0.54655 0.0
C39 C 0.67462 0.73546 0.55154 0.0
C40 C 0.64769 0.77127 0.53144 0.0
C41 C 0.70135 0.76131 0.57779 0.0
H42 H 0.62265 0.86169 0.52281 0.0
C43 C 0.64479 0.83375 0.53792 0.0
C44 C 0.66985 0.86032 0.56392 0.0
C45 C 0.70046 0.82422 0.58315 0.0
C46 C 0.72556 0.72293 0.60003 0.0
H47 H 0.72288 0.84602 0.60256 0.0
C48 C 0.74187 0.66281 0.59419 0.0
C49 C 0.75158 0.62284 0.61422 0.0
C50 C 0.72721 0.74415 0.6273 0.0
H51 H 0.71376 0.78906 0.63326 0.0
C52 C 0.74346 0.70654 0.64763 0.0
H53 H 0.74419 0.64584 0.57377 0.0
C54 C 0.7543 0.64609 0.64119 0.0
H55 H 0.76098 0.61723 0.65725 0.0
H56 H 0.74398 0.72354 0.66838 0.0
H57 H 0.51163 0.33516 0.78399 0.0
C58 C 0.55909 0.33435 0.7938 0.0
C59 C 0.60332 0.32382 0.77813 0.0
C60 C 0.57641 0.3442 0.82209 0.0
H61 H 0.69858 0.31273 0.77844 0.0
C62 C 0.66476 0.32297 0.79064 0.0
C63 C 0.68258 0.33041 0.81875 0.0
C64 C 0.63833 0.34103 0.83444 0.0
C65 C 0.53046 0.35845 0.83891 0.0
H66 H 0.65204 0.3458 0.85624 0.0
C67 C 0.47557 0.32519 0.83457 0.0
C68 C 0.43381 0.3387 0.85139 0.0
C69 C 0.54205 0.40577 0.85981 0.0
H70 H 0.58341 0.4325 0.86335 0.0
C71 C 0.5002 0.41952 0.87621 0.0
H72 H 0.46614 0.28813 0.81876 0.0
C73 C 0.44652 0.38607 0.87214 0.0
H74 H 0.4148 0.397 0.88527 0.0
H75 H 0.50955 0.45605 0.89223 0.0
H76 H 0.99708 0.76407 0.95006 0.0
C77 C 0.99228 0.72082 0.93806 0.0
C78 C 0.0057 0.66798 0.95066 0.0
C79 C 0.97125 0.7185 0.91008 0.0
H80 H 0.0097 0.57152 0.9441 0.0
C81 C 0.99908 0.6125 0.93468 0.0
C82 C 0.98008 0.6093 0.90653 0.0
C83 C 0.9659 0.66246 0.89431 0.0
C84 C 0.94951 0.77418 0.898 0.0
H85 H 0.9506 0.6602 0.87262 0.0
C86 C 0.98569 0.82718 0.90285 0.0
C87 C 0.96158 0.88094 0.89328 0.0
C88 C 0.88978 0.77549 0.88312 0.0
H89 H 0.86098 0.73566 0.87936 0.0
C90 C 0.86584 0.82865 0.87379 0.0
H91 H 0.03211 0.82662 0.91402 0.0
C92 C 0.90123 0.88106 0.87894 0.0
H93 H 0.88189 0.92154 0.87107 0.0
H94 H 0.81957 0.82926 0.86253 0.0
H95 H 0.73592 0.80566 0.20366 0.0
C96 C 0.68924 0.79674 0.19337 0.0
C97 C 0.65079 0.76594 0.20586 0.0
C98 C 0.6671 0.81705 0.16797 0.0
H99 H 0.5604 0.73278 0.20345 0.0
C100 C 0.58998 0.75571 0.19324 0.0
C101 C 0.56623 0.77581 0.16817 0.0
C102 C 0.60494 0.80688 0.15558 0.0
C103 C 0.70836 0.85102 0.15513 0.0
H104 H 0.58701 0.82183 0.13601 0.0
C105 C 0.76987 0.83483 0.15644 0.0
C106 C 0.80899 0.86914 0.14522 0.0
C107 C 0.68667 0.90159 0.14223 0.0
H108 H 0.64033 0.91598 0.1413 0.0
C109 C 0.72482 0.93518 0.13089 0.0
H110 H 0.7873 0.79584 0.16621 0.0
C111 C 0.78525 0.91923 0.13231 0.0
H112 H 0.81318 0.9458 0.12281 0.0
H113 H 0.70746 0.97394 0.12095 0.0
H114 H 0.54476 0.23556 0.44414 0.0
C115 C 0.53583 0.19408 0.43086 0.0
C116 C 0.55132 0.1392 0.44129 0.0
C117 C 0.50463 0.19556 0.4041 0.0
H118 H 0.54923 0.04333 0.43286 0.0
C119 C 0.53658 0.08547 0.42471 0.0
C120 C 0.50747 0.08567 0.39758 0.0
C121 C 0.4916 0.14087 0.38731 0.0
C122 C 0.47938 0.25338 0.39505 0.0
H123 H 0.46829 0.14116 0.36649 0.0
C124 C 0.51459 0.30718 0.40018 0.0
C125 C 0.48771 0.36241 0.39366 0.0
C126 C 0.41753 0.25562 0.38306 0.0
H127 H 0.38922 0.21545 0.37926 0.0
C128 C 0.39087 0.30994 0.37674 0.0
H129 H 0.56248 0.30609 0.40921 0.0
C130 C 0.42542 0.36287 0.38206 0.0
H131 H 0.4036 0.40412 0.37635 0.0
H132 H 0.34306 0.31105 0.36765 0.0
H133 H 0.20633 0.32416 0.70775 0.0
C134 C 0.16038 0.32586 0.69614 0.0
C135 C 0.11254 0.30175 0.70562 0.0
C136 C 0.14876 0.35377 0.67216 0.0
H137 H 0.016 0.28728 0.6988 0.0
C138 C 0.05294 0.30566 0.69122 0.0
C139 C 0.04014 0.33369 0.66743 0.0
C140 C 0.08828 0.35741 0.65775 0.0
C141 C 0.19958 0.38314 0.66363 0.0
H142 H 0.0787 0.37927 0.63939 0.0
C143 C 0.25337 0.352 0.66141 0.0
C144 C 0.30306 0.38179 0.65527 0.0
C145 C 0.19578 0.44401 0.65934 0.0
H146 H 0.15519 0.46899 0.66117 0.0
C147 C 0.24502 0.47372 0.65348 0.0
H148 H 0.25653 0.30484 0.66443 0.0
C149 C 0.29838 0.44304 0.65158 0.0
H150 H 0.33552 0.46687 0.64649 0.0
H151 H 0.24182 0.52077 0.65038 0.0
Zn152 Zn 0.20846 0.6639 0.15462 0.0
Zn153 Zn 0.07733 0.84122 0.06693 0.0
Zn154 Zn 0.16644 0.72391 0.11797 0.0
C155 C 0.1064 0.703 0.06446 0.0
C156 C 0.2048 0.82721 0.09826 0.0
O157 O 0.1126 0.74892 0.14836 0.0
O158 O 0.16384 0.70181 0.18153 0.0
C159 C 0.16068 0.57953 0.11212 0.0
O160 O 0.13449 0.66647 0.07996 0.0
O161 O 0.10969 0.75749 0.07427 0.0
O162 O 0.15626 0.80494 0.0837 0.0
O163 O 0.23327 0.79298 0.11487 0.0
O164 O 0.17867 0.58413 0.13738 0.0
O165 O 0.15616 0.62713 0.09964 0.0
O166 O 0.26568 0.75112 0.12948 0.0
O167 O 0.29626 0.68223 0.15689 0.0
C168 C 0.30906 0.72404 0.14406 0.0
O169 O 0.08091 0.77842 0.12454 0.0
O170 O 0.03185 0.84642 0.09759 0.0
C171 C 0.12121 0.73594 0.17277 0.0
C172 C 0.03806 0.81739 0.11836 0.0
Zn173 Zn 0.5438 0.63762 0.32481 0.0
Zn174 Zn 0.63686 0.79356 0.38616 0.0
Zn175 Zn 0.58659 0.7185 0.3595 0.0
C176 C 0.55403 0.85367 0.35814 0.0
C177 C 0.7283 0.74921 0.3683 0.0
O178 O 0.58025 0.63598 0.38087 0.0
O179 O 0.56729 0.56836 0.34538 0.0
C180 C 0.44881 0.71915 0.3309 0.0
O181 O 0.53052 0.80169 0.35907 0.0
O182 O 0.61107 0.85902 0.36277 0.0
O183 O 0.72281 0.76825 0.39185 0.0
O184 O 0.67971 0.73555 0.35025 0.0
O185 O 0.45816 0.66668 0.32091 0.0
O186 O 0.49373 0.75081 0.34521 0.0
O187 O 0.64013 0.71366 0.32698 0.0
O188 O 0.58611 0.64913 0.29551 0.0
C189 C 0.62944 0.68655 0.30279 0.0
O190 O 0.60022 0.68944 0.40036 0.0
O191 O 0.59244 0.78406 0.41541 0.0
C192 C 0.57613 0.58058 0.37063 0.0
C193 C 0.59196 0.72944 0.41931 0.0
Zn194 Zn 0.57542 0.29973 0.5803 0.0
Zn195 Zn 0.71627 0.19372 0.64832 0.0
Zn196 Zn 0.64989 0.25158 0.61328 0.0
C197 C 0.7929 0.27729 0.63439 0.0
C198 C 0.67009 0.10785 0.60669 0.0
O199 O 0.5656 0.27902 0.62945 0.0
O200 O 0.49851 0.29397 0.59269 0.0
C201 C 0.67449 0.37861 0.59672 0.0
O202 O 0.74145 0.29649 0.62231 0.0
O203 O 0.79509 0.23023 0.64612 0.0
O204 O 0.69619 0.11203 0.63118 0.0
O205 O 0.65327 0.15569 0.59527 0.0
O206 O 0.61879 0.37748 0.58582 0.0
O207 O 0.69872 0.33245 0.60746 0.0
O208 O 0.63095 0.19045 0.57468 0.0
O209 O 0.58171 0.25235 0.54709 0.0
C210 C 0.60727 0.203 0.55067 0.0
O211 O 0.61002 0.26008 0.64986 0.0
O212 O 0.67935 0.2188 0.67957 0.0
C213 C 0.51057 0.28951 0.61765 0.0
C214 C 0.63015 0.24638 0.67399 0.0
Zn215 Zn 0.00829 0.16326 0.82967 0.0
Zn216 Zn 0.12753 0.30457 0.89193 0.0
Zn217 Zn 0.06539 0.23861 0.86268 0.0
C218 C 0.08419 0.23451 0.92361 0.0
C219 C 0.04406 0.3769 0.86953 0.0
O220 O 0.10804 0.23335 0.82698 0.0
O221 O 0.03618 0.18258 0.79716 0.0
C222 C 0.05116 0.09774 0.87012 0.0
O223 O 0.08078 0.19967 0.90157 0.0
O224 O 0.09471 0.28975 0.92386 0.0
O225 O 0.10132 0.37929 0.87493 0.0
O226 O 0.01715 0.3254 0.86727 0.0
O227 O 0.038 0.08837 0.84476 0.0
O228 O 0.05786 0.15229 0.88149 0.0
O229 O 0.97601 0.27953 0.85303 0.0
O230 O 0.9275 0.19461 0.83591 0.0
C231 C 0.9261 0.24957 0.84445 0.0
O232 O 0.15355 0.25248 0.84903 0.0
O233 O 0.2089 0.27254 0.8898 0.0
C234 C 0.08483 0.21315 0.80239 0.0
C235 C 0.20621 0.25957 0.8649 0.0
C236 C 0.15844 0.43865 0.06334 0.0
C237 C 0.14051 0.39514 0.07844 0.0
H238 H 0.1782 0.53216 0.06193 0.0
C239 C 0.1221 0.41463 0.10261 0.0
H240 H 0.17272 0.42517 0.04456 0.0
C241 C 0.12527 0.47519 0.11238 0.0
C242 C 0.14646 0.51834 0.09821 0.0
H243 H 0.10616 0.38283 0.11434 0.0
H244 H 0.11282 0.4881 0.13163 0.0
C245 C 0.16127 0.4999 0.07314 0.0
C246 C 0.86197 0.78616 0.33764 0.0
C247 C 0.91053 0.77745 0.35908 0.0
H248 H 0.76515 0.78364 0.32363 0.0
C249 C 0.89865 0.74918 0.38086 0.0
H250 H 0.86974 0.80812 0.32065 0.0
C251 C 0.83924 0.73527 0.38249 0.0
C252 C 0.79007 0.7487 0.36228 0.0
H253 H 0.93517 0.74106 0.3975 0.0
H254 H 0.83148 0.71715 0.40043 0.0
C255 C 0.80207 0.77187 0.33925 0.0
C256 C 0.70594 0.53423 0.58273 0.0
C257 C 0.74656 0.55661 0.6065 0.0
H258 H 0.65306 0.45984 0.56083 0.0
C259 C 0.7731 0.51551 0.62451 0.0
H260 H 0.68372 0.5636 0.56832 0.0
C261 C 0.75385 0.45522 0.62035 0.0
C262 C 0.70845 0.43521 0.59799 0.0
H263 H 0.80579 0.53056 0.64268 0.0
H264 H 0.77074 0.42585 0.63565 0.0
C265 C 0.68751 0.47436 0.5785 0.0
C266 C 0.75934 0.26604 0.84383 0.0
C267 C 0.74628 0.3184 0.83108 0.0
H268 H 0.82726 0.20304 0.8579 0.0
C269 C 0.79427 0.35263 0.82616 0.0
H270 H 0.723 0.2386 0.8475 0.0
C271 C 0.85427 0.33302 0.83271 0.0
C272 C 0.86649 0.27795 0.84338 0.0
H273 H 0.78497 0.3929 0.81609 0.0
H274 H 0.89029 0.35851 0.8276 0.0
C275 C 0.81883 0.24561 0.84962 0.0
C276 C 0.01969 0.54262 0.87188 0.0
C277 C 0.98095 0.55042 0.8903 0.0
H278 H 0.06974 0.48009 0.85042 0.0
C279 C 0.95252 0.49965 0.89671 0.0
H280 H 0.0424 0.58091 0.86674 0.0
C281 C 0.96713 0.44181 0.88686 0.0
C282 C 0.01148 0.43411 0.87105 0.0
H283 H 0.92234 0.50464 0.91085 0.0
H284 H 0.94852 0.40342 0.89389 0.0
C285 C 0.03528 0.48492 0.86255 0.0
C286 C 0.89028 0.79288 0.13944 0.0
C287 C 0.87377 0.85268 0.14563 0.0
H288 H 0.95749 0.73429 0.12664 0.0
C289 C 0.91843 0.8981 0.14883 0.0
H290 H 0.85722 0.75672 0.13683 0.0
C291 C 0.97532 0.88524 0.14279 0.0
C292 C 0.9896 0.82648 0.13404 0.0
H293 H 0.90807 0.94443 0.15433 0.0
H294 H 0.00661 0.92198 0.14306 0.0
C295 C 0.94788 0.77989 0.13375 0.0
C296 C 0.50148 0.47422 0.40608 0.0
C297 C 0.52398 0.41915 0.39634 0.0
H298 H 0.50286 0.57026 0.4066 0.0
C299 C 0.575 0.42026 0.38447 0.0
H300 H 0.46246 0.47481 0.41553 0.0
C301 C 0.59793 0.4749 0.37935 0.0
C302 C 0.57102 0.52959 0.38637 0.0
H303 H 0.59329 0.37884 0.37666 0.0
H304 H 0.63299 0.47398 0.36755 0.0
C305 C 0.5251 0.52903 0.4013 0.0
C306 C 0.93345 0.36456 0.66728 0.0
C307 C 0.97577 0.3364 0.65339 0.0
H308 H 0.84046 0.36885 0.67135 0.0
C309 C 0.95447 0.29932 0.62936 0.0
H310 H 0.9489 0.39269 0.68606 0.0
C311 C 0.89229 0.28567 0.62097 0.0
C312 C 0.85064 0.30961 0.63627 0.0
H313 H 0.98624 0.27627 0.6186 0.0
H314 H 0.87749 0.25214 0.60397 0.0
C315 C 0.87139 0.35124 0.65878 0.0
C316 C 0.41656 0.37292 0.66222 0.0
C317 C 0.35827 0.34903 0.65061 0.0
H318 H 0.51147 0.37141 0.66116 0.0
C319 C 0.3528 0.29841 0.63149 0.0
H320 H 0.42202 0.41197 0.67702 0.0
C321 C 0.40388 0.27559 0.62238 0.0
C322 C 0.46153 0.30197 0.63269 0.0
H323 H 0.30849 0.2794 0.62205 0.0
H324 H 0.39781 0.23952 0.60609 0.0
C325 C 0.46786 0.34929 0.65344 0.0
C326 C 0.45912 0.80828 0.14928 0.0
C327 C 0.50093 0.76253 0.15607 0.0
H328 H 0.3647 0.83232 0.13991 0.0
C329 C 0.47868 0.70392 0.15544 0.0
H330 H 0.475 0.85397 0.14976 0.0
C331 C 0.41648 0.69195 0.15042 0.0
C332 C 0.3743 0.73802 0.1455 0.0
H333 H 0.50965 0.6676 0.16026 0.0
H334 H 0.4014 0.64649 0.15123 0.0
C335 C 0.39608 0.79601 0.14386 0.0
C336 C 0.32426 0.31826 0.83107 0.0
C337 C 0.37744 0.30318 0.84863 0.0
H338 H 0.22714 0.31534 0.82238 0.0
C339 C 0.37368 0.26356 0.86778 0.0
H340 H 0.32619 0.34977 0.81652 0.0
C341 C 0.31716 0.24351 0.87094 0.0
C342 C 0.26339 0.26285 0.85505 0.0
H343 H 0.41415 0.25201 0.88173 0.0
H344 H 0.3153 0.21683 0.88731 0.0
C345 C 0.26752 0.29807 0.83424 0.0
C346 C 0.28208 0.73029 0.29969 0.0
C347 C 0.26285 0.77833 0.31581 0.0
H348 H 0.35495 0.67495 0.29161 0.0
C349 C 0.30574 0.80794 0.33715 0.0
H350 H 0.25015 0.70593 0.28333 0.0
C351 C 0.3668 0.7901 0.34192 0.0
C352 C 0.38569 0.74192 0.32565 0.0
H353 H 0.29224 0.84517 0.3499 0.0
H354 H 0.39879 0.81314 0.35857 0.0
C355 C 0.34237 0.71237 0.30453 0.0
C356 C 0.67257 0.97048 0.55655 0.0
C357 C 0.66134 0.92498 0.57213 0.0
H358 H 0.68369 0.06557 0.55524 0.0
C359 C 0.64429 0.94143 0.59687 0.0
H360 H 0.68539 0.95904 0.53729 0.0
C361 C 0.64332 1.00144 0.60694 0.0
C362 C 0.65875 0.04688 0.59245 0.0
H363 H 0.63356 0.90759 0.60897 0.0
H364 H 0.63276 0.01228 0.62671 0.0
C365 C 0.67126 0.03129 0.56669 0.0
C366 C 0.18451 0.98928 0.08534 0.0
C367 C 0.21393 0.01947 0.11013 0.0
H368 H 0.16046 0.90493 0.06193 0.0
C369 C 0.24884 0.98565 0.1294 0.0
H370 H 0.15701 0.01338 0.07001 0.0
C371 C 0.24969 0.92289 0.12493 0.0
C372 C 0.21603 0.89281 0.10102 0.0
H373 H 0.27331 0.00744 0.14849 0.0
H374 H 0.2736 0.89798 0.14085 0.0
C375 C 0.18585 0.9268 0.08082 0.0
C376 C 0.47306 0.9781 0.38929 0.0
C377 C 0.49829 0.02754 0.38029 0.0
H378 H 0.46981 0.88247 0.38845 0.0
C379 C 0.52714 0.01777 0.35829 0.0
H380 H 0.45051 0.98456 0.40623 0.0
C381 C 0.53797 0.95919 0.34802 0.0
C382 C 0.51943 0.90967 0.35938 0.0
H383 H 0.54724 0.055 0.35105 0.0
H384 H 0.56643 0.95273 0.33318 0.0
C385 C 0.48335 0.91954 0.37883 0.0
C386 C 0.04769 0.93635 0.88229 0.0
C387 C 0.99923 0.9363 0.89579 0.0
H388 H 0.10342 0.98923 0.86382 0.0
C389 C 0.97926 0.9915 0.90655 0.0
H390 H 0.06354 0.89454 0.8736 0.0
C391 C 0.00328 0.04586 0.90158 0.0
C392 C 0.04647 0.04569 0.88519 0.0
H393 H 0.94173 0.99259 0.91695 0.0
H394 H 0.98314 0.08757 0.90793 0.0
C395 C 0.07064 0.99059 0.87678 0.0
C396 C 0.13792 0.18872 0.99215 0.0
C397 C 0.0989 0.22319 0.0058 0.0
H398 H 0.16232 0.16332 0.9539 0.0
C399 C 0.04582 0.24583 0.99084 0.0
H400 H 0.17918 0.17086 0.0033 0.0
C401 C 0.03597 0.24089 0.96278 0.0
C402 C 0.07893 0.21318 0.94927 0.0
H403 H 0.01471 0.27193 0.00093 0.0
H404 H 0.99821 0.26446 0.95184 0.0
C405 C 0.12801 0.18385 0.96391 0.0
C406 C 0.05638 0.74786 0.23387 0.0
C407 C 0.08117 0.80389 0.24578 0.0
H408 H 0.04895 0.6818 0.19975 0.0
C409 C 0.09985 0.84394 0.22947 0.0
H410 H 0.04237 0.71608 0.24615 0.0
C411 C 0.10253 0.82465 0.20269 0.0
C412 C 0.08765 0.76494 0.19236 0.0
H413 H 0.1197 0.88717 0.23836 0.0
H414 H 0.12444 0.85345 0.19158 0.0
C415 C 0.06018 0.72823 0.20732 0.0
C416 C 0.65943 0.70468 0.48993 0.0
C417 C 0.62368 0.74403 0.50341 0.0
H418 H 0.67554 0.66659 0.45155 0.0
C419 C 0.56827 0.76309 0.48888 0.0
H420 H 0.70227 0.68904 0.50067 0.0
C421 C 0.55276 0.74953 0.46096 0.0
C422 C 0.59235 0.71677 0.44706 0.0
H423 H 0.53909 0.79219 0.49883 0.0
H424 H 0.51298 0.77011 0.44993 0.0
C425 C 0.64379 0.69108 0.46185 0.0
C426 C 0.58002 0.24604 0.7393 0.0
C427 C 0.58713 0.30709 0.74884 0.0
H428 H 0.58761 0.17856 0.70712 0.0
C429 C 0.59511 0.34892 0.73115 0.0
H430 H 0.57507 0.2131 0.75286 0.0
C431 C 0.6014 0.32924 0.70487 0.0
C432 C 0.60065 0.26762 0.69631 0.0
H433 H 0.602 0.39607 0.7384 0.0
H434 H 0.61331 0.3616 0.69235 0.0
C435 C 0.58725 0.22634 0.71323 0.0
C436 C 0.07308 0.63341 0.99212 0.0
C437 C 0.02695 0.67113 0.98044 0.0
H438 H 0.13392 0.61308 0.02831 0.0
C439 C 1.00272 0.71386 -0.00257 0.0
H440 H 0.09306 0.60019 0.97965 0.0
C441 C 0.02675 0.72164 0.02503 0.0
C442 C 0.07478 0.68616 0.03643 0.0
H443 H 0.96594 0.74235 0.98934 0.0
H444 H 0.00871 0.75665 0.03741 0.0
C445 C 0.09651 0.64061 0.01997 0.0
C446 C 0.67034 0.68424 0.23539 0.0
C447 C 0.67107 0.74588 0.23281 0.0
H448 H 0.65828 0.6166 0.26057 0.0
C449 C 0.67347 0.78715 0.25572 0.0
H450 H 0.66775 0.6518 0.21782 0.0
C451 C 0.66763 0.76709 0.28019 0.0
C452 C 0.65953 0.70561 0.28188 0.0
H453 H 0.67294 0.83492 0.25396 0.0
H454 H 0.66255 0.79996 0.29675 0.0
C455 C 0.6647 0.66421 0.25979 0.0
C456 C 0.5479 0.11009 0.48699 0.0
C457 C 0.57865 0.13849 0.47019 0.0
H458 H 0.53527 0.10714 0.52748 0.0
C459 C 0.63066 0.17342 0.48172 0.0
H460 H 0.50765 0.08283 0.47843 0.0
C461 C 0.64747 0.18556 0.50967 0.0
C462 C 0.61176 0.16396 0.52634 0.0
H463 H 0.65533 0.1952 0.4691 0.0
H464 H 0.68367 0.21804 0.51801 0.0
C465 C 0.56419 0.12315 0.51502 0.0
C466 C 0.13475 0.31298 0.75579 0.0
C467 C 0.12264 0.27539 0.73143 0.0
H468 H 0.13045 0.3226 0.79765 0.0
C469 C 0.10799 0.21476 0.7316 0.0
H470 H 0.14466 0.36027 0.75589 0.0
C471 C 0.10146 0.1929 0.75553 0.0
C472 C 0.10896 0.23149 0.77961 0.0
H473 H 0.09769 0.18535 0.71291 0.0
H474 H 0.08645 0.14681 0.75486 0.0
C475 C 0.12737 0.29127 0.77971 0.0
loop_
_geom_bond_atom_site_label_1
_geom_bond_atom_site_label_2
_geom_bond_distance
_geom_bond_site_symmetry_2
_ccdc_geom_bond_type
H0 C1 0.949 . S
C1 H0 0.949 . S
C1 C2 1.395 . S
C1 C3 1.391 . S
C2 C1 1.395 . S
C2 C5 1.390 . S
C3 C1 1.391 . S
C3 C7 1.387 . S
C3 C8 1.491 . S
H4 C5 0.950 . S
C5 C2 1.390 . S
C5 H4 0.950 . S
C5 C6 1.378 . S
C6 C5 1.378 . S
C6 C7 1.409 . S
C7 C3 1.387 . S
C7 C6 1.409 . S
C7 H9 0.951 . S
C8 C3 1.491 . S
C8 C10 1.382 . S
C8 C12 1.404 . S
H9 C7 0.951 . S
C10 C8 1.382 . S
C10 C11 1.390 . S
C10 H15 0.949 . S
C11 C10 1.390 . S
C11 C16 1.399 . S
C12 C8 1.404 . S
C12 H13 0.950 . S
C12 C14 1.375 . S
H13 C12 0.950 . S
C14 C12 1.375 . S
C14 C16 1.382 . S
C14 H18 0.950 . S
H15 C10 0.949 . S
C16 C11 1.399 . S
C16 C14 1.382 . S
C16 H17 0.952 . S
H17 C16 0.952 . S
H18 C14 0.950 . S
H19 C20 0.949 . S
C20 H19 0.949 . S
C20 C21 1.395 . S
C20 C22 1.391 . S
C21 C20 1.395 . S
C21 C24 1.390 . S
C22 C20 1.391 . S
C22 C26 1.387 . S
C22 C27 1.491 . S
H23 C24 0.950 . S
C24 C21 1.390 . S
C24 H23 0.950 . S
C24 C25 1.378 . S
C25 C24 1.378 . S
C25 C26 1.409 . S
C26 C22 1.387 . S
C26 C25 1.409 . S
C26 H28 0.951 . S
C27 C22 1.491 . S
C27 C29 1.382 1_455 S
C27 C31 1.404 . S
H28 C26 0.951 . S
C29 C27 1.382 1_655 S
C29 C30 1.390 . S
C29 H34 0.949 . S
C30 C29 1.390 . S
C30 C35 1.399 . S
C31 C27 1.404 . S
C31 H32 0.950 . S
C31 C33 1.375 . S
H32 C31 0.950 . S
C33 C31 1.375 . S
C33 C35 1.382 1_455 S
C33 H37 0.950 . S
H34 C29 0.949 . S
C35 C30 1.399 . S
C35 C33 1.382 1_655 S
C35 H36 0.952 . S
H36 C35 0.952 . S
H37 C33 0.950 . S
H38 C39 0.949 . S
C39 H38 0.949 . S
C39 C40 1.395 . S
C39 C41 1.391 . S
C40 C39 1.395 . S
C40 C43 1.390 . S
C41 C39 1.391 . S
C41 C45 1.387 . S
C41 C46 1.491 . S
H42 C43 0.950 . S
C43 C40 1.390 . S
C43 H42 0.950 . S
C43 C44 1.378 . S
C44 C43 1.378 . S
C44 C45 1.409 . S
C45 C41 1.387 . S
C45 C44 1.409 . S
C45 H47 0.951 . S
C46 C41 1.491 . S
C46 C48 1.382 . S
C46 C50 1.404 . S
H47 C45 0.951 . S
C48 C46 1.382 . S
C48 C49 1.390 . S
C48 H53 0.949 . S
C49 C48 1.390 . S
C49 C54 1.399 . S
C50 C46 1.404 . S
C50 H51 0.950 . S
C50 C52 1.375 . S
H51 C50 0.950 . S
C52 C50 1.375 . S
C52 C54 1.382 . S
C52 H56 0.950 . S
H53 C48 0.949 . S
C54 C49 1.399 . S
C54 C52 1.382 . S
C54 H55 0.952 . S
H55 C54 0.952 . S
H56 C52 0.950 . S
H57 C58 0.949 . S
C58 H57 0.949 . S
C58 C59 1.395 . S
C58 C60 1.391 . S
C59 C58 1.395 . S
C59 C62 1.390 . S
C60 C58 1.391 . S
C60 C64 1.387 . S
C60 C65 1.491 . S
H61 C62 0.950 . S
C62 C59 1.390 . S
C62 H61 0.950 . S
C62 C63 1.378 . S
C63 C62 1.378 . S
C63 C64 1.409 . S
C64 C60 1.387 . S
C64 C63 1.409 . S
C64 H66 0.951 . S
C65 C60 1.491 . S
C65 C67 1.382 . S
C65 C69 1.404 . S
H66 C64 0.951 . S
C67 C65 1.382 . S
C67 C68 1.390 . S
C67 H72 0.949 . S
C68 C67 1.390 . S
C68 C73 1.399 . S
C69 C65 1.404 . S
C69 H70 0.950 . S
C69 C71 1.375 . S
H70 C69 0.950 . S
C71 C69 1.375 . S
C71 C73 1.382 . S
C71 H75 0.950 . S
H72 C67 0.949 . S
C73 C68 1.399 . S
C73 C71 1.382 . S
C73 H74 0.952 . S
H74 C73 0.952 . S
H75 C71 0.950 . S
H76 C77 0.949 . S
C77 H76 0.949 . S
C77 C78 1.395 . S
C77 C79 1.391 1_455 S
C78 C77 1.395 . S
C78 C81 1.390 . S
C79 C77 1.391 1_655 S
C79 C83 1.387 . S
C79 C84 1.491 . S
H80 C81 0.950 . S
C81 C78 1.390 . S
C81 H80 0.950 . S
C81 C82 1.378 . S
C82 C81 1.378 . S
C82 C83 1.409 1_455 S
C83 C79 1.387 . S
C83 C82 1.409 1_655 S
C83 H85 0.951 . S
C84 C79 1.491 . S
C84 C86 1.382 1_655 S
C84 C88 1.404 . S
H85 C83 0.951 . S
C86 C84 1.382 1_455 S
C86 C87 1.390 1_455 S
C86 H91 0.949 . S
C87 C86 1.390 1_655 S
C87 C92 1.399 . S
C88 C84 1.404 . S
C88 H89 0.950 . S
C88 C90 1.375 . S
H89 C88 0.950 . S
C90 C88 1.375 . S
C90 C92 1.382 . S
C90 H94 0.950 . S
H91 C86 0.949 . S
C92 C87 1.399 . S
C92 C90 1.382 . S
C92 H93 0.952 . S
H93 C92 0.952 . S
H94 C90 0.950 . S
H95 C96 0.949 . S
C96 H95 0.949 . S
C96 C97 1.395 . S
C96 C98 1.391 . S
C97 C96 1.395 . S
C97 C100 1.390 . S
C98 C96 1.391 . S
C98 C102 1.387 . S
C98 C103 1.491 . S
H99 C100 0.950 . S
C100 C97 1.390 . S
C100 H99 0.950 . S
C100 C101 1.378 . S
C101 C100 1.378 . S
C101 C102 1.409 . S
C102 C98 1.387 . S
C102 C101 1.409 . S
C102 H104 0.951 . S
C103 C98 1.491 . S
C103 C105 1.382 . S
C103 C107 1.404 . S
H104 C102 0.951 . S
C105 C103 1.382 . S
C105 C106 1.390 . S
C105 H110 0.949 . S
C106 C105 1.390 . S
C106 C111 1.399 . S
C107 C103 1.404 . S
C107 H108 0.950 . S
C107 C109 1.375 . S
H108 C107 0.950 . S
C109 C107 1.375 . S
C109 C111 1.382 . S
C109 H113 0.950 . S
H110 C105 0.949 . S
C111 C106 1.399 . S
C111 C109 1.382 . S
C111 H112 0.952 . S
H112 C111 0.952 . S
H113 C109 0.950 . S
H114 C115 0.949 . S
C115 H114 0.949 . S
C115 C116 1.395 . S
C115 C117 1.391 . S
C116 C115 1.395 . S
C116 C119 1.390 . S
C117 C115 1.391 . S
C117 C121 1.387 . S
C117 C122 1.491 . S
H118 C119 0.950 . S
C119 C116 1.390 . S
C119 H118 0.950 . S
C119 C120 1.378 . S
C120 C119 1.378 . S
C120 C121 1.409 . S
C121 C117 1.387 . S
C121 C120 1.409 . S
C121 H123 0.951 . S
C122 C117 1.491 . S
C122 C124 1.382 . S
C122 C126 1.404 . S
H123 C121 0.951 . S
C124 C122 1.382 . S
C124 C125 1.390 . S
C124 H129 0.949 . S
C125 C124 1.390 . S
C125 C130 1.399 . S
C126 C122 1.404 . S
C126 H127 0.950 . S
C126 C128 1.375 . S
H127 C126 0.950 . S
C128 C126 1.375 . S
C128 C130 1.382 . S
C128 H132 0.950 . S
H129 C124 0.949 . S
C130 C125 1.399 . S
C130 C128 1.382 . S
C130 H131 0.952 . S
H131 C130 0.952 . S
H132 C128 0.950 . S
H133 C134 0.949 . S
C134 H133 0.949 . S
C134 C135 1.395 . S
C134 C136 1.391 . S
C135 C134 1.395 . S
C135 C138 1.390 . S
C136 C134 1.391 . S
C136 C140 1.387 . S
C136 C141 1.491 . S
H137 C138 0.950 . S
C138 C135 1.390 . S
C138 H137 0.950 . S
C138 C139 1.378 . S
C139 C138 1.378 . S
C139 C140 1.409 . S
C140 C136 1.387 . S
C140 C139 1.409 . S
C140 H142 0.951 . S
C141 C136 1.491 . S
C141 C143 1.382 . S
C141 C145 1.404 . S
H142 C140 0.951 . S
C143 C141 1.382 . S
C143 C144 1.390 . S
C143 H148 0.949 . S
C144 C143 1.390 . S
C144 C149 1.399 . S
C145 C141 1.404 . S
C145 H146 0.950 . S
C145 C147 1.375 . S
H146 C145 0.950 . S
C147 C145 1.375 . S
C147 C149 1.382 . S
C147 H151 0.950 . S
H148 C143 0.949 . S
C149 C144 1.399 . S
C149 C147 1.382 . S
C149 H150 0.952 . S
H150 C149 0.952 . S
H151 C147 0.950 . S
Zn152 O158 1.920 . S
Zn152 O164 1.898 . S
Zn152 O167 1.905 . S
Zn153 O161 1.905 . S
Zn153 O162 1.898 . S
Zn153 O170 1.920 1_455 S
Zn154 O157 2.080 . S
Zn154 O160 2.114 . S
Zn154 O163 2.120 . S
Zn154 O165 2.120 . S
Zn154 O166 2.114 . S
Zn154 O169 2.080 . S
C155 O160 1.166 . S
C155 O161 1.182 . S
C156 O162 1.167 . S
C156 O163 1.299 . S
O157 Zn154 2.080 . S
O157 C171 1.305 . S
O158 Zn152 1.920 . S
O158 C171 1.234 . S
C159 O164 1.167 . S
C159 O165 1.299 . S
O160 Zn154 2.114 . S
O160 C155 1.166 . S
O161 Zn153 1.905 . S
O161 C155 1.182 . S
O162 Zn153 1.898 . S
O162 C156 1.167 . S
O163 Zn154 2.120 . S
O163 C156 1.299 . S
O164 Zn152 1.898 . S
O164 C159 1.167 . S
O165 Zn154 2.120 . S
O165 C159 1.299 . S
O166 Zn154 2.114 . S
O166 C168 1.166 . S
O167 Zn152 1.905 . S
O167 C168 1.182 . S
C168 O166 1.166 . S
C168 O167 1.182 . S
O169 Zn154 2.080 . S
O169 C172 1.305 . S
O170 Zn153 1.920 1_655 S
O170 C172 1.234 1_655 S
C171 O157 1.305 . S
C171 O158 1.234 . S
C172 O169 1.305 . S
C172 O170 1.234 1_455 S
Zn173 O179 1.920 . S
Zn173 O185 1.898 . S
Zn173 O188 1.905 . S
Zn174 O182 1.905 . S
Zn174 O183 1.898 . S
Zn174 O191 1.920 . S
Zn175 O178 2.080 . S
Zn175 O181 2.114 . S
Zn175 O184 2.120 . S
Zn175 O186 2.120 . S
Zn175 O187 2.114 . S
Zn175 O190 2.080 . S
C176 O181 1.166 . S
C176 O182 1.182 . S
C177 O183 1.167 . S
C177 O184 1.299 . S
O178 Zn175 2.080 . S
O178 C192 1.305 . S
O179 Zn173 1.920 . S
O179 C192 1.234 . S
C180 O185 1.167 . S
C180 O186 1.299 . S
O181 Zn175 2.114 . S
O181 C176 1.166 . S
O182 Zn174 1.905 . S
O182 C176 1.182 . S
O183 Zn174 1.898 . S
O183 C177 1.167 . S
O184 Zn175 2.120 . S
O184 C177 1.299 . S
O185 Zn173 1.898 . S
O185 C180 1.167 . S
O186 Zn175 2.120 . S
O186 C180 1.299 . S
O187 Zn175 2.114 . S
O187 C189 1.166 . S
O188 Zn173 1.905 . S
O188 C189 1.182 . S
C189 O187 1.166 . S
C189 O188 1.182 . S
O190 Zn175 2.080 . S
O190 C193 1.305 . S
O191 Zn174 1.920 . S
O191 C193 1.234 . S
C192 O178 1.305 . S
C192 O179 1.234 . S
C193 O190 1.305 . S
C193 O191 1.234 . S
Zn194 O200 1.920 . S
Zn194 O206 1.898 . S
Zn194 O209 1.905 . S
Zn195 O203 1.905 . S
Zn195 O204 1.898 . S
Zn195 O212 1.920 . S
Zn196 O199 2.080 . S
Zn196 O202 2.114 . S
Zn196 O205 2.120 . S
Zn196 O207 2.120 . S
Zn196 O208 2.114 . S
Zn196 O211 2.080 . S
C197 O202 1.166 . S
C197 O203 1.182 . S
C198 O204 1.167 . S
C198 O205 1.299 . S
O199 Zn196 2.080 . S
O199 C213 1.305 . S
O200 Zn194 1.920 . S
O200 C213 1.234 . S
C201 O206 1.167 . S
C201 O207 1.299 . S
O202 Zn196 2.114 . S
O202 C197 1.166 . S
O203 Zn195 1.905 . S
O203 C197 1.182 . S
O204 Zn195 1.898 . S
O204 C198 1.167 . S
O205 Zn196 2.120 . S
O205 C198 1.299 . S
O206 Zn194 1.898 . S
O206 C201 1.167 . S
O207 Zn196 2.120 . S
O207 C201 1.299 . S
O208 Zn196 2.114 . S
O208 C210 1.166 . S
O209 Zn194 1.905 . S
O209 C210 1.182 . S
C210 O208 1.166 . S
C210 O209 1.182 . S
O211 Zn196 2.080 . S
O211 C214 1.305 . S
O212 Zn195 1.920 . S
O212 C214 1.234 . S
C213 O199 1.305 . S
C213 O200 1.234 . S
C214 O211 1.305 . S
C214 O212 1.234 . S
Zn215 O221 1.920 1_655 S
Zn215 O227 1.898 . S
Zn215 O230 1.905 . S
Zn216 O224 1.905 . S
Zn216 O225 1.898 . S
Zn216 O233 1.920 . S
Zn217 O220 2.080 . S
Zn217 O223 2.114 . S
Zn217 O226 2.120 . S
Zn217 O228 2.120 . S
Zn217 O229 2.114 1_455 S
Zn217 O232 2.080 . S
C218 O223 1.166 . S
C218 O224 1.182 . S
C219 O225 1.167 . S
C219 O226 1.299 . S
O220 Zn217 2.080 . S
O220 C234 1.305 . S
O221 Zn215 1.920 1_455 S
O221 C234 1.234 . S
C222 O227 1.167 1_455 S
C222 O228 1.299 . S
O223 Zn217 2.114 . S
O223 C218 1.166 . S
O224 Zn216 1.905 . S
O224 C218 1.182 . S
O225 Zn216 1.898 . S
O225 C219 1.167 . S
O226 Zn217 2.120 . S
O226 C219 1.299 . S
O227 Zn215 1.898 . S
O227 C222 1.167 1_655 S
O228 Zn217 2.120 . S
O228 C222 1.299 . S
O229 Zn217 2.114 1_655 S
O229 C231 1.166 . S
O230 Zn215 1.905 . S
O230 C231 1.182 . S
C231 O229 1.166 . S
C231 O230 1.182 . S
O232 Zn217 2.080 . S
O232 C235 1.305 . S
O233 Zn216 1.920 . S
O233 C235 1.234 . S
C234 O220 1.305 . S
C234 O221 1.234 . S
C235 O232 1.305 . S
C235 O233 1.234 . S
C236 C237 1.387 . S
C236 H240 0.950 . S
C236 C245 1.390 . S
C237 C236 1.387 . S
C237 C239 1.387 . S
H238 C245 0.950 . S
C239 C237 1.387 . S
C239 C241 1.390 . S
C239 H243 0.950 . S
H240 C236 0.950 . S
C241 C239 1.390 . S
C241 C242 1.387 . S
C241 H244 0.950 . S
C242 C241 1.387 . S
C242 C245 1.387 . S
H243 C239 0.950 . S
H244 C241 0.950 . S
C245 C236 1.390 . S
C245 H238 0.950 . S
C245 C242 1.387 . S
C246 C247 1.387 . S
C246 H250 0.950 . S
C246 C255 1.390 . S
C247 C246 1.387 . S
C247 C249 1.387 . S
H248 C255 0.950 . S
C249 C247 1.387 . S
C249 C251 1.390 . S
C249 H253 0.950 . S
H250 C246 0.950 . S
C251 C249 1.390 . S
C251 C252 1.387 . S
C251 H254 0.950 . S
C252 C251 1.387 . S
C252 C255 1.387 . S
H253 C249 0.950 . S
H254 C251 0.950 . S
C255 C246 1.390 . S
C255 H248 0.950 . S
C255 C252 1.387 . S
C256 C257 1.387 . S
C256 H260 0.950 . S
C256 C265 1.390 . S
C257 C256 1.387 . S
C257 C259 1.387 . S
H258 C265 0.950 . S
C259 C257 1.387 . S
C259 C261 1.390 . S
C259 H263 0.950 . S
H260 C256 0.950 . S
C261 C259 1.390 . S
C261 C262 1.387 . S
C261 H264 0.950 . S
C262 C261 1.387 . S
C262 C265 1.387 . S
H263 C259 0.950 . S
H264 C261 0.950 . S
C265 C256 1.390 . S
C265 H258 0.950 . S
C265 C262 1.387 . S
C266 C267 1.387 . S
C266 H270 0.950 . S
C266 C275 1.390 . S
C267 C266 1.387 . S
C267 C269 1.387 . S
H268 C275 0.950 . S
C269 C267 1.387 . S
C269 C271 1.390 . S
C269 H273 0.950 . S
H270 C266 0.950 . S
C271 C269 1.390 . S
C271 C272 1.387 . S
C271 H274 0.950 . S
C272 C271 1.387 . S
C272 C275 1.387 . S
H273 C269 0.950 . S
H274 C271 0.950 . S
C275 C266 1.390 . S
C275 H268 0.950 . S
C275 C272 1.387 . S
C276 C277 1.387 . S
C276 H280 0.950 . S
C276 C285 1.390 . S
C277 C276 1.387 . S
C277 C279 1.387 . S
H278 C285 0.950 . S
C279 C277 1.387 . S
C279 C281 1.390 . S
C279 H283 0.950 . S
H280 C276 0.950 . S
C281 C279 1.390 . S
C281 C282 1.387 . S
C281 H284 0.950 . S
C282 C281 1.387 . S
C282 C285 1.387 . S
H283 C279 0.950 . S
H284 C281 0.950 . S
C285 C276 1.390 . S
C285 H278 0.950 . S
C285 C282 1.387 . S
C286 C287 1.387 . S
C286 H290 0.950 . S
C286 C295 1.390 . S
C287 C286 1.387 . S
C287 C289 1.387 . S
H288 C295 0.950 . S
C289 C287 1.387 . S
C289 C291 1.390 . S
C289 H293 0.950 . S
H290 C286 0.950 . S
C291 C289 1.390 . S
C291 C292 1.387 . S
C291 H294 0.950 . S
C292 C291 1.387 . S
C292 C295 1.387 . S
H293 C289 0.950 . S
H294 C291 0.950 . S
C295 C286 1.390 . S
C295 H288 0.950 . S
C295 C292 1.387 . S
C296 C297 1.387 . S
C296 H300 0.950 . S
C296 C305 1.390 . S
C297 C296 1.387 . S
C297 C299 1.387 . S
H298 C305 0.950 . S
C299 C297 1.387 . S
C299 C301 1.390 . S
C299 H303 0.950 . S
H300 C296 0.950 . S
C301 C299 1.390 . S
C301 C302 1.387 . S
C301 H304 0.950 . S
C302 C301 1.387 . S
C302 C305 1.387 . S
H303 C299 0.950 . S
H304 C301 0.950 . S
C305 C296 1.390 . S
C305 H298 0.950 . S
C305 C302 1.387 . S
C306 C307 1.387 . S
C306 H310 0.950 . S
C306 C315 1.390 . S
C307 C306 1.387 . S
C307 C309 1.387 . S
H308 C315 0.950 . S
C309 C307 1.387 . S
C309 C311 1.390 . S
C309 H313 0.950 . S
H310 C306 0.950 . S
C311 C309 1.390 . S
C311 C312 1.387 . S
C311 H314 0.950 . S
C312 C311 1.387 . S
C312 C315 1.387 . S
H313 C309 0.950 . S
H314 C311 0.950 . S
C315 C306 1.390 . S
C315 H308 0.950 . S
C315 C312 1.387 . S
C316 C317 1.387 . S
C316 H320 0.950 . S
C316 C325 1.390 . S
C317 C316 1.387 . S
C317 C319 1.387 . S
H318 C325 0.950 . S
C319 C317 1.387 . S
C319 C321 1.390 . S
C319 H323 0.950 . S
H320 C316 0.950 . S
C321 C319 1.390 . S
C321 C322 1.387 . S
C321 H324 0.950 . S
C322 C321 1.387 . S
C322 C325 1.387 . S
H323 C319 0.950 . S
H324 C321 0.950 . S
C325 C316 1.390 . S
C325 H318 0.950 . S
C325 C322 1.387 . S
C326 C327 1.387 . S
C326 H330 0.950 . S
C326 C335 1.390 . S
C327 C326 1.387 . S
C327 C329 1.387 . S
H328 C335 0.950 . S
C329 C327 1.387 . S
C329 C331 1.390 . S
C329 H333 0.950 . S
H330 C326 0.950 . S
C331 C329 1.390 . S
C331 C332 1.387 . S
C331 H334 0.950 . S
C332 C331 1.387 . S
C332 C335 1.387 . S
H333 C329 0.950 . S
H334 C331 0.950 . S
C335 C326 1.390 . S
C335 H328 0.950 . S
C335 C332 1.387 . S
C336 C337 1.387 . S
C336 H340 0.950 . S
C336 C345 1.390 . S
C337 C336 1.387 . S
C337 C339 1.387 . S
H338 C345 0.950 . S
C339 C337 1.387 . S
C339 C341 1.390 . S
C339 H343 0.950 . S
H340 C336 0.950 . S
C341 C339 1.390 . S
C341 C342 1.387 . S
C341 H344 0.950 . S
C342 C341 1.387 . S
C342 C345 1.387 . S
H343 C339 0.950 . S
H344 C341 0.950 . S
C345 C336 1.390 . S
C345 H338 0.950 . S
C345 C342 1.387 . S
C346 C347 1.387 . S
C346 H350 0.950 . S
C346 C355 1.390 . S
C347 C346 1.387 . S
C347 C349 1.387 . S
H348 C355 0.950 . S
C349 C347 1.387 . S
C349 C351 1.390 . S
C349 H353 0.950 . S
H350 C346 0.950 . S
C351 C349 1.390 . S
C351 C352 1.387 . S
C351 H354 0.950 . S
C352 C351 1.387 . S
C352 C355 1.387 . S
H353 C349 0.950 . S
H354 C351 0.950 . S
C355 C346 1.390 . S
C355 H348 0.950 . S
C355 C352 1.387 . S
C356 C357 1.387 . S
C356 H360 0.950 . S
C356 C365 1.390 . S
C357 C356 1.387 . S
C357 C359 1.387 . S
H358 C365 0.950 1_545 S
C359 C357 1.387 . S
C359 C361 1.390 . S
C359 H363 0.950 . S
H360 C356 0.950 . S
C361 C359 1.390 . S
C361 C362 1.387 1_565 S
C361 H364 0.950 . S
C362 C361 1.387 1_545 S
C362 C365 1.387 1_545 S
H363 C359 0.950 . S
H364 C361 0.950 . S
C365 C356 1.390 . S
C365 H358 0.950 1_565 S
C365 C362 1.387 1_565 S
C366 C367 1.387 1_565 S
C366 H370 0.950 1_565 S
C366 C375 1.390 . S
C367 C366 1.387 1_545 S
C367 C369 1.387 1_545 S
H368 C375 0.950 . S
C369 C367 1.387 1_565 S
C369 C371 1.390 . S
C369 H373 0.950 . S
H370 C366 0.950 1_545 S
C371 C369 1.390 . S
C371 C372 1.387 . S
C371 H374 0.950 . S
C372 C371 1.387 . S
C372 C375 1.387 . S
H373 C369 0.950 . S
H374 C371 0.950 . S
C375 C366 1.390 . S
C375 H368 0.950 . S
C375 C372 1.387 . S
C376 C377 1.387 . S
C376 H380 0.950 . S
C376 C385 1.390 1_545 S
C377 C376 1.387 . S
C377 C379 1.387 . S
H378 C385 0.950 . S
C379 C377 1.387 . S
C379 C381 1.390 1_545 S
C379 H383 0.950 . S
H380 C376 0.950 . S
C381 C379 1.390 1_565 S
C381 C382 1.387 . S
C381 H384 0.950 . S
C382 C381 1.387 . S
C382 C385 1.387 . S
H383 C379 0.950 . S
H384 C381 0.950 . S
C385 C376 1.390 1_565 S
C385 H378 0.950 . S
C385 C382 1.387 . S
C386 C387 1.387 . S
C386 H390 0.950 . S
C386 C395 1.390 1_565 S
C387 C386 1.387 . S
C387 C389 1.387 1_565 S
H388 C395 0.950 . S
C389 C387 1.387 1_545 S
C389 C391 1.390 . S
C389 H393 0.950 . S
H390 C386 0.950 . S
C391 C389 1.390 . S
C391 C392 1.387 . S
C391 H394 0.950 . S
C392 C391 1.387 . S
C392 C395 1.387 . S
H393 C389 0.950 . S
H394 C391 0.950 . S
C395 C386 1.390 1_545 S
C395 H388 0.950 . S
C395 C392 1.387 . S
C396 C397 1.387 1_556 S
C396 H400 0.950 1_556 S
C396 C405 1.390 . S
C397 C396 1.387 1_554 S
C397 C399 1.387 . S
H398 C405 0.950 . S
C399 C397 1.387 . S
C399 C401 1.390 1_554 S
C399 H403 0.950 . S
H400 C396 0.950 1_554 S
C401 C399 1.390 1_556 S
C401 C402 1.387 . S
C401 H404 0.950 . S
C402 C401 1.387 . S
C402 C405 1.387 . S
H403 C399 0.950 . S
H404 C401 0.950 . S
C405 C396 1.390 . S
C405 H398 0.950 . S
C405 C402 1.387 . S
C406 C407 1.387 . S
C406 H410 0.950 . S
C406 C415 1.390 . S
C407 C406 1.387 . S
C407 C409 1.387 . S
H408 C415 0.950 . S
C409 C407 1.387 . S
C409 C411 1.390 . S
C409 H413 0.950 . S
H410 C406 0.950 . S
C411 C409 1.390 . S
C411 C412 1.387 . S
C411 H414 0.950 . S
C412 C411 1.387 . S
C412 C415 1.387 . S
H413 C409 0.950 . S
H414 C411 0.950 . S
C415 C406 1.390 . S
C415 H408 0.950 . S
C415 C412 1.387 . S
C416 C417 1.387 . S
C416 H420 0.950 . S
C416 C425 1.390 . S
C417 C416 1.387 . S
C417 C419 1.387 . S
H418 C425 0.950 . S
C419 C417 1.387 . S
C419 C421 1.390 . S
C419 H423 0.950 . S
H420 C416 0.950 . S
C421 C419 1.390 . S
C421 C422 1.387 . S
C421 H424 0.950 . S
C422 C421 1.387 . S
C422 C425 1.387 . S
H423 C419 0.950 . S
H424 C421 0.950 . S
C425 C416 1.390 . S
C425 H418 0.950 . S
C425 C422 1.387 . S
C426 C427 1.387 . S
C426 H430 0.950 . S
C426 C435 1.390 . S
C427 C426 1.387 . S
C427 C429 1.387 . S
H428 C435 0.950 . S
C429 C427 1.387 . S
C429 C431 1.390 . S
C429 H433 0.950 . S
H430 C426 0.950 . S
C431 C429 1.390 . S
C431 C432 1.387 . S
C431 H434 0.950 . S
C432 C431 1.387 . S
C432 C435 1.387 . S
H433 C429 0.950 . S
H434 C431 0.950 . S
C435 C426 1.390 . S
C435 H428 0.950 . S
C435 C432 1.387 . S
C436 C437 1.387 . S
C436 H440 0.950 . S
C436 C445 1.390 1_556 S
C437 C436 1.387 . S
C437 C439 1.359 1_556 S
H438 C445 0.950 . S
C439 C437 1.359 1_554 S
C439 C441 1.424 . S
C439 H443 0.945 1_454 S
H440 C436 0.950 . S
C441 C439 1.424 . S
C441 C442 1.387 . S
C441 H444 0.948 1_455 S
C442 C441 1.387 . S
C442 C445 1.387 . S
H443 C439 0.945 1_656 S
H444 C441 0.948 1_655 S
C445 C436 1.390 1_554 S
C445 H438 0.950 . S
C445 C442 1.387 . S
C446 C447 1.387 . S
C446 H450 0.950 . S
C446 C455 1.390 . S
C447 C446 1.387 . S
C447 C449 1.387 . S
H448 C455 0.950 . S
C449 C447 1.387 . S
C449 C451 1.390 . S
C449 H453 0.950 . S
H450 C446 0.950 . S
C451 C449 1.390 . S
C451 C452 1.387 . S
C451 H454 0.950 . S
C452 C451 1.387 . S
C452 C455 1.387 . S
H453 C449 0.950 . S
H454 C451 0.950 . S
C455 C446 1.390 . S
C455 H448 0.950 . S
C455 C452 1.387 . S
C456 C457 1.387 . S
C456 H460 0.950 . S
C456 C465 1.390 . S
C457 C456 1.387 . S
C457 C459 1.387 . S
H458 C465 0.950 . S
C459 C457 1.387 . S
C459 C461 1.390 . S
C459 H463 0.950 . S
H460 C456 0.950 . S
C461 C459 1.390 . S
C461 C462 1.387 . S
C461 H464 0.950 . S
C462 C461 1.387 . S
C462 C465 1.387 . S
H463 C459 0.950 . S
H464 C461 0.950 . S
C465 C456 1.390 . S
C465 H458 0.950 . S
C465 C462 1.387 . S
C466 C467 1.387 . S
C466 H470 0.950 . S
C466 C475 1.390 . S
C467 C466 1.387 . S
C467 C469 1.387 . S
H468 C475 0.950 . S
C469 C467 1.387 . S
C469 C471 1.390 . S
C469 H473 0.950 . S
H470 C466 0.950 . S
C471 C469 1.390 . S
C471 C472 1.387 . S
C471 H474 0.950 . S
C472 C471 1.387 . S
C472 C475 1.387 . S
H473 C469 0.950 . S
H474 C471 0.950 . S
C475 C466 1.390 . S
C475 H468 0.950 . S
C475 C472 1.387 . S
C242 C159 1.408 . S
C237 C6 1.555 . S
C252 C177 1.394 . S
C247 C30 1.441 . S
C257 C49 1.375 . S
C262 C201 1.368 . S
C272 C231 1.302 . S
C267 C63 1.446 . S
C282 C219 1.309 . S
C277 C82 1.394 . S
C287 C106 1.456 . S
C292 C172 1.411 1_655 S
C297 C125 1.619 . S
C302 C192 1.493 . S
C307 C139 1.449 1_655 S
C312 C197 1.331 . S
C317 C144 1.450 . S
C322 C213 1.407 . S
C327 C101 1.451 . S
C332 C168 1.329 . S
C342 C235 1.414 . S
C337 C68 1.448 . S
C352 C180 1.297 . S
C347 C25 1.441 . S
C357 C44 1.551 . S
C362 C198 1.403 . S
C367 C11 1.381 . S
C372 C156 1.370 . S
C382 C176 1.313 . S
C377 C120 1.390 . S
C392 C222 1.479 . S
C387 C87 1.621 1_455 S
C402 C218 1.420 . S
C397 C2 1.558 . S
C412 C171 1.574 . S
C407 C21 1.586 . S
C417 C40 1.542 . S
C422 C193 1.397 . S
C427 C59 1.597 . S
C432 C214 1.581 . S
C442 C155 1.358 . S
C437 C78 1.637 . S
C447 C97 1.541 . S
C452 C189 1.510 . S
C462 C210 1.374 . S
C457 C116 1.651 . S
C472 C234 1.485 . S
C467 C135 1.522 . S
