# Generated by pormake.
# Topology ptr, (4,4)-cn, num edge types: 1
# Building blocks:
#     Node 0, Type 0, BuildingBlock: GALJAG_clean_sbu_0, # of connection points: 4
#     Node 1, Type 0, BuildingBlock: GALJAG_clean_sbu_0, # of connection points: 4
#     Node 2, Type 0, BuildingBlock: GALJAG_clean_sbu_0, # of connection points: 4
#     Node 3, Type 0, BuildingBlock: GALJAG_clean_sbu_0, # of connection points: 4
#     Node 4, Type 0, BuildingBlock: GALJAG_clean_sbu_0, # of connection points: 4
#     Node 5, Type 0, BuildingBlock: GALJAG_clean_sbu_0, # of connection points: 4
#     Node 6, Type 0, BuildingBlock: GALJAG_clean_sbu_0, # of connection points: 4
#     Node 7, Type 0, BuildingBlock: GALJAG_clean_sbu_0, # of connection points: 4
#     Node 8, Type 0, BuildingBlock: GALJAG_clean_sbu_0, # of connection points: 4
#     Node 9, Type 0, BuildingBlock: GALJAG_clean_sbu_0, # of connection points: 4
#     Node 10, Type 0, BuildingBlock: GALJAG_clean_sbu_0, # of connection points: 4
#     Node 11, Type 0, BuildingBlock: GALJAG_clean_sbu_0, # of connection points: 4
#     Node 12, Type 0, BuildingBlock: GALJAG_clean_sbu_0, # of connection points: 4
#     Node 13, Type 0, BuildingBlock: GALJAG_clean_sbu_0, # of connection points: 4
#     Node 14, Type 0, BuildingBlock: GALJAG_clean_sbu_0, # of connection points: 4
#     Node 15, Type 0, BuildingBlock: GALJAG_clean_sbu_0, # of connection points: 4
#     Node 16, Type 0, BuildingBlock: GALJAG_clean_sbu_0, # of connection points: 4
#     Node 17, Type 0, BuildingBlock: GALJAG_clean_sbu_0, # of connection points: 4
#     Node 18, Type 1, BuildingBlock: KUFVIS_clean_linker_0, # of connection points: 4
#     Node 19, Type 1, BuildingBlock: KUFVIS_clean_linker_0, # of connection points: 4
#     Node 20, Type 1, BuildingBlock: KUFVIS_clean_linker_0, # of connection points: 4
#     Node 21, Type 1, BuildingBlock: KUFVIS_clean_linker_0, # of connection points: 4
#     Node 22, Type 1, BuildingBlock: KUFVIS_clean_linker_0, # of connection points: 4
#     Node 23, Type 1, BuildingBlock: KUFVIS_clean_linker_0, # of connection points: 4
#     Node 24, Type 1, BuildingBlock: KUFVIS_clean_linker_0, # of connection points: 4
#     Node 25, Type 1, BuildingBlock: KUFVIS_clean_linker_0, # of connection points: 4
#     Node 26, Type 1, BuildingBlock: KUFVIS_clean_linker_0, # of connection points: 4
#     Node 27, Type 1, BuildingBlock: KUFVIS_clean_linker_0, # of connection points: 4
#     Node 28, Type 1, BuildingBlock: KUFVIS_clean_linker_0, # of connection points: 4
#     Node 29, Type 1, BuildingBlock: KUFVIS_clean_linker_0, # of connection points: 4
#     Node 30, Type 1, BuildingBlock: KUFVIS_clean_linker_0, # of connection points: 4
#     Node 31, Type 1, BuildingBlock: KUFVIS_clean_linker_0, # of connection points: 4
#     Node 32, Type 1, BuildingBlock: KUFVIS_clean_linker_0, # of connection points: 4
#     Node 33, Type 1, BuildingBlock: KUFVIS_clean_linker_0, # of connection points: 4
#     Node 34, Type 1, BuildingBlock: KUFVIS_clean_linker_0, # of connection points: 4
#     Node 35, Type 1, BuildingBlock: KUFVIS_clean_linker_0, # of connection points: 4
#     Edge 36, Type (0, 1), BuildingBlock: EZIPEK_clean_linker_0, # of connection points: 2
#     Edge 37, Type (0, 1), BuildingBlock: EZIPEK_clean_linker_0, # of connection points: 2
#     Edge 38, Type (0, 1), BuildingBlock: EZIPEK_clean_linker_0, # of connection points: 2
#     Edge 39, Type (0, 1), BuildingBlock: EZIPEK_clean_linker_0, # of connection points: 2
#     Edge 40, Type (0, 1), BuildingBlock: EZIPEK_clean_linker_0, # of connection points: 2
#     Edge 41, Type (0, 1), BuildingBlock: EZIPEK_clean_linker_0, # of connection points: 2
#     Edge 42, Type (0, 1), BuildingBlock: EZIPEK_clean_linker_0, # of connection points: 2
#     Edge 43, Type (0, 1), BuildingBlock: EZIPEK_clean_linker_0, # of connection points: 2
#     Edge 44, Type (0, 1), BuildingBlock: EZIPEK_clean_linker_0, # of connection points: 2
#     Edge 45, Type (0, 1), BuildingBlock: EZIPEK_clean_linker_0, # of connection points: 2
#     Edge 46, Type (0, 1), BuildingBlock: EZIPEK_clean_linker_0, # of connection points: 2
#     Edge 47, Type (0, 1), BuildingBlock: EZIPEK_clean_linker_0, # of connection points: 2
#     Edge 48, Type (0, 1), BuildingBlock: EZIPEK_clean_linker_0, # of connection points: 2
#     Edge 49, Type (0, 1), BuildingBlock: EZIPEK_clean_linker_0, # of connection points: 2
#     Edge 50, Type (0, 1), BuildingBlock: EZIPEK_clean_linker_0, # of connection points: 2
#     Edge 51, Type (0, 1), BuildingBlock: EZIPEK_clean_linker_0, # of connection points: 2
#     Edge 52, Type (0, 1), BuildingBlock: EZIPEK_clean_linker_0, # of connection points: 2
#     Edge 53, Type (0, 1), BuildingBlock: EZIPEK_clean_linker_0, # of connection points: 2
#     Edge 54, Type (0, 1), BuildingBlock: EZIPEK_clean_linker_0, # of connection points: 2
#     Edge 55, Type (0, 1), BuildingBlock: EZIPEK_clean_linker_0, # of connection points: 2
#     Edge 56, Type (0, 1), BuildingBlock: EZIPEK_clean_linker_0, # of connection points: 2
#     Edge 57, Type (0, 1), BuildingBlock: EZIPEK_clean_linker_0, # of connection points: 2
#     Edge 58, Type (0, 1), BuildingBlock: EZIPEK_clean_linker_0, # of connection points: 2
#     Edge 59, Type (0, 1), BuildingBlock: EZIPEK_clean_linker_0, # of connection points: 2
#     Edge 60, Type (0, 1), BuildingBlock: EZIPEK_clean_linker_0, # of connection points: 2
#     Edge 61, Type (0, 1), BuildingBlock: EZIPEK_clean_linker_0, # of connection points: 2
#     Edge 62, Type (0, 1), BuildingBlock: EZIPEK_clean_linker_0, # of connection points: 2
#     Edge 63, Type (0, 1), BuildingBlock: EZIPEK_clean_linker_0, # of connection points: 2
#     Edge 64, Type (0, 1), BuildingBlock: EZIPEK_clean_linker_0, # of connection points: 2
#     Edge 65, Type (0, 1), BuildingBlock: EZIPEK_clean_linker_0, # of connection points: 2
#     Edge 66, Type (0, 1), BuildingBlock: EZIPEK_clean_linker_0, # of connection points: 2
#     Edge 67, Type (0, 1), BuildingBlock: EZIPEK_clean_linker_0, # of connection points: 2
#     Edge 68, Type (0, 1), BuildingBlock: EZIPEK_clean_linker_0, # of connection points: 2
#     Edge 69, Type (0, 1), BuildingBlock: EZIPEK_clean_linker_0, # of connection points: 2
#     Edge 70, Type (0, 1), BuildingBlock: EZIPEK_clean_linker_0, # of connection points: 2
#     Edge 71, Type (0, 1), BuildingBlock: EZIPEK_clean_linker_0, # of connection points: 2
#     Edge 72, Type (0, 1), BuildingBlock: EZIPEK_clean_linker_0, # of connection points: 2
#     Edge 73, Type (0, 1), BuildingBlock: EZIPEK_clean_linker_0, # of connection points: 2
#     Edge 74, Type (0, 1), BuildingBlock: EZIPEK_clean_linker_0, # of connection points: 2
#     Edge 75, Type (0, 1), BuildingBlock: EZIPEK_clean_linker_0, # of connection points: 2
#     Edge 76, Type (0, 1), BuildingBlock: EZIPEK_clean_linker_0, # of connection points: 2
#     Edge 77, Type (0, 1), BuildingBlock: EZIPEK_clean_linker_0, # of connection points: 2
#     Edge 78, Type (0, 1), BuildingBlock: EZIPEK_clean_linker_0, # of connection points: 2
#     Edge 79, Type (0, 1), BuildingBlock: EZIPEK_clean_linker_0, # of connection points: 2
#     Edge 80, Type (0, 1), BuildingBlock: EZIPEK_clean_linker_0, # of connection points: 2
#     Edge 81, Type (0, 1), BuildingBlock: EZIPEK_clean_linker_0, # of connection points: 2
#     Edge 82, Type (0, 1), BuildingBlock: EZIPEK_clean_linker_0, # of connection points: 2
#     Edge 83, Type (0, 1), BuildingBlock: EZIPEK_clean_linker_0, # of connection points: 2
#     Edge 84, Type (0, 1), BuildingBlock: EZIPEK_clean_linker_0, # of connection points: 2
#     Edge 85, Type (0, 1), BuildingBlock: EZIPEK_clean_linker_0, # of connection points: 2
#     Edge 86, Type (0, 1), BuildingBlock: EZIPEK_clean_linker_0, # of connection points: 2
#     Edge 87, Type (0, 1), BuildingBlock: EZIPEK_clean_linker_0, # of connection points: 2
#     Edge 88, Type (0, 1), BuildingBlock: EZIPEK_clean_linker_0, # of connection points: 2
#     Edge 89, Type (0, 1), BuildingBlock: EZIPEK_clean_linker_0, # of connection points: 2
#     Edge 90, Type (0, 1), BuildingBlock: EZIPEK_clean_linker_0, # of connection points: 2
#     Edge 91, Type (0, 1), BuildingBlock: EZIPEK_clean_linker_0, # of connection points: 2
#     Edge 92, Type (0, 1), BuildingBlock: EZIPEK_clean_linker_0, # of connection points: 2
#     Edge 93, Type (0, 1), BuildingBlock: EZIPEK_clean_linker_0, # of connection points: 2
#     Edge 94, Type (0, 1), BuildingBlock: EZIPEK_clean_linker_0, # of connection points: 2
#     Edge 95, Type (0, 1), BuildingBlock: EZIPEK_clean_linker_0, # of connection points: 2
#     Edge 96, Type (0, 1), BuildingBlock: EZIPEK_clean_linker_0, # of connection points: 2
#     Edge 97, Type (0, 1), BuildingBlock: EZIPEK_clean_linker_0, # of connection points: 2
#     Edge 98, Type (0, 1), BuildingBlock: EZIPEK_clean_linker_0, # of connection points: 2
#     Edge 99, Type (0, 1), BuildingBlock: EZIPEK_clean_linker_0, # of connection points: 2
#     Edge 100, Type (0, 1), BuildingBlock: EZIPEK_clean_linker_0, # of connection points: 2
#     Edge 101, Type (0, 1), BuildingBlock: EZIPEK_clean_linker_0, # of connection points: 2
#     Edge 102, Type (0, 1), BuildingBlock: EZIPEK_clean_linker_0, # of connection points: 2
#     Edge 103, Type (0, 1), BuildingBlock: EZIPEK_clean_linker_0, # of connection points: 2
#     Edge 104, Type (0, 1), BuildingBlock: EZIPEK_clean_linker_0, # of connection points: 2
#     Edge 105, Type (0, 1), BuildingBlock: EZIPEK_clean_linker_0, # of connection points: 2
#     Edge 106, Type (0, 1), BuildingBlock: EZIPEK_clean_linker_0, # of connection points: 2
#     Edge 107, Type (0, 1), BuildingBlock: EZIPEK_clean_linker_0, # of connection points: 2
# Relax obj value: 0.068
# Max RMSD: 0.101
# Mean RMSD: 0.096
data_MOF--net-ptr--node1-GALJAG_clean_sbu_0--node2-KUFVIS_clean_linker_0--edge1-EZIPEK_clean_linker_0
_symmetry_space_group_name_H-M    P1
_symmetry_Int_Tables_number       1
_symmetry_cell_setting            triclinic
loop_
_symmetry_equiv_pos_as_xyz
'x, y, z'
_cell_length_a     57.243208
_cell_length_b     57.308501
_cell_length_c     38.092057
_cell_angle_alpha  89.978381
_cell_angle_beta   90.086071
_cell_angle_gamma 120.16179
loop_
_atom_site_label
_atom_site_type_symbol
_atom_site_fract_x
_atom_site_fract_y
_atom_site_fract_z
_atom_type_partial_charge
In0 In 0.01658 0.37069 0.01347 0.0
O1 O 0.99353 0.38079 0.05362 0.0
O2 O 0.03636 0.4047 0.05381 0.0
C3 C 0.9755 0.3211 0.9965 0.0
C4 C 0.05801 0.36249 0.03032 0.0
C5 C 0.01762 0.40278 0.96065 0.0
O6 O 0.97761 0.33116 0.02655 0.0
O7 O 0.99427 0.3355 0.97554 0.0
O8 O 0.03621 0.3973 0.96498 0.0
O9 O 0.99891 0.3924 0.98292 0.0
C10 C 0.01431 0.40027 0.06709 0.0
O11 O 0.05752 0.37385 0.00215 0.0
O12 O 0.03734 0.35454 0.04936 0.0
In13 In 0.65954 0.65876 0.01109 0.0
O14 O 0.6541 0.63377 0.06071 0.0
O15 O 0.61971 0.63395 0.04 0.0
C16 C 0.70918 0.66669 0.99476 0.0
C17 C 0.66749 0.70817 0.02835 0.0
C18 C 0.62757 0.62882 0.9574 0.0
O19 O 0.69698 0.65508 0.02263 0.0
O20 O 0.69687 0.67515 0.9758 0.0
O21 O 0.62547 0.64759 0.97152 0.0
O22 O 0.64604 0.6254 0.96999 0.0
C23 C 0.62919 0.6256 0.06353 0.0
O24 O 0.66141 0.69893 0.99761 0.0
O25 O 0.67025 0.69308 0.04989 0.0
In26 In 0.3744 0.01271 0.01141 0.0
O27 O 0.38085 0.05514 0.02072 0.0
O28 O 0.35677 0.03286 0.9771 0.0
C29 C 0.40312 0.01007 0.06583 0.0
C30 C 0.40683 0.01581 0.95813 0.0
C31 C 0.32508 0.97066 0.02799 0.0
O32 O 0.39729 0.02853 0.06311 0.0
O33 O 0.39428 0.99288 0.04145 0.0
O34 O 0.3385 0.97 0.00215 0.0
O35 O 0.33599 0.99267 0.04461 0.0
C36 C 0.36742 0.05467 0.99418 0.0
O37 O 0.38235 0.9974 0.9599 0.0
O38 O 0.41483 0.0327 0.98286 0.0
In39 In 0.01803 0.65731 0.01062 0.0
O40 O 0.04307 0.64814 0.97209 0.0
O41 O 1.00038 0.62517 0.96772 0.0
C42 C 0.05683 0.70813 0.02785 0.0
C43 C 0.97423 0.66129 0.99318 0.0
C44 C 0.0181 0.62659 0.06446 0.0
O45 O 0.039 0.69243 0.04915 0.0
O46 O 0.05472 0.69872 0.99735 0.0
O47 O 1.00037 0.63342 0.06151 0.0
O48 O 0.0356 0.63518 0.04052 0.0
C49 C 0.0229 0.62945 0.95648 0.0
O50 O 0.97336 0.64514 0.0164 0.0
O51 O 0.99719 0.67587 0.97954 0.0
In52 In 0.37343 0.36885 0.01345 0.0
O53 O 0.38157 0.39269 0.96251 0.0
O54 O 0.41366 0.3887 0.98439 0.0
C55 C 0.32475 0.36281 0.03071 0.0
C56 C 0.36496 0.31912 0.99663 0.0
C57 C 0.40377 0.4012 0.06639 0.0
O58 O 0.33634 0.35317 0.04884 0.0
O59 O 0.337 0.37455 0.00295 0.0
O60 O 0.39882 0.37719 0.06324 0.0
O61 O 0.39346 0.40883 0.04304 0.0
C62 C 0.40581 0.39815 0.96015 0.0
O63 O 0.35787 0.33224 0.97709 0.0
O64 O 0.37533 0.33045 0.02547 0.0
In65 In 0.66242 0.0157 0.01776 0.0
O66 O 0.65175 0.04163 0.05315 0.0
O67 O 0.63092 0.99932 0.06139 0.0
C68 C 0.71247 0.05588 -0.00018 0.0
C69 C 0.67325 0.97603 0.03395 0.0
C70 C 0.62758 0.00859 0.96512 0.0
O71 O 0.70301 0.05399 0.03031 0.0
O72 O 0.69713 0.03732 0.97904 0.0
O73 O 0.62568 0.9891 0.98282 0.0
O74 O 0.64693 0.03136 0.97387 0.0
C75 C 0.63396 0.02184 0.07034 0.0
O76 O 0.67686 0.99444 0.0552 0.0
O77 O 0.66482 0.97788 0.00402 0.0
In78 In 0.68724 0.70495 0.34412 0.0
O79 O 0.66932 0.71089 0.3949 0.0
O80 O 0.70373 0.74497 0.37319 0.0
C81 C 0.64359 0.6568 0.32695 0.0
C82 C 0.72659 0.69381 0.36131 0.0
C83 C 0.69193 0.73752 0.28991 0.0
O84 O 0.6429 0.67169 0.35086 0.0
O85 O 0.66634 0.66573 0.31249 0.0
O86 O 0.71215 0.73933 0.30571 0.0
O87 O 0.66944 0.719 0.30097 0.0
C88 C 0.68636 0.73577 0.39728 0.0
O89 O 0.72405 0.70061 0.3307 0.0
O90 O 0.70894 0.69177 0.3828 0.0
In91 In 0.32511 0.9899 0.34617 0.0
O92 O 0.31807 0.9636 0.39477 0.0
O93 O 0.28635 0.97024 0.3784 0.0
C94 C 0.37505 0.9988 0.32916 0.0
C95 C 0.32992 0.03797 0.36328 0.0
C96 C 0.29545 0.95901 0.29203 0.0
O97 O 0.3611 1.00436 0.3089 0.0
O98 O 0.36431 0.98948 0.35858 0.0
O99 O 0.30423 0.98408 0.29328 0.0
O100 O 0.30199 0.94957 0.31771 0.0
C101 C 0.29442 0.9592 0.40008 0.0
O102 O 0.31495 0.02355 0.33863 0.0
O103 O 0.34323 0.0288 0.37836 0.0
In104 In 0.04012 0.34743 0.34492 0.0
O105 O 0.04804 0.39039 0.35454 0.0
O106 O 0.02294 0.36848 0.31148 0.0
C107 C 0.06901 0.34427 0.39866 0.0
C108 C 0.07189 0.34988 0.29127 0.0
C109 C 0.99086 0.30521 0.36152 0.0
O110 O 0.06276 0.36246 0.3969 0.0
O111 O 0.06044 0.32755 0.37373 0.0
O112 O 1.00409 0.30487 0.33529 0.0
O113 O 1.00183 0.32707 0.3785 0.0
C114 C 0.0345 0.39036 0.32839 0.0
O115 O 0.04718 0.33211 0.29288 0.0
O116 O 0.08045 0.3665 0.3163 0.0
In117 In 0.67987 0.98727 0.34885 0.0
O118 O 0.70124 0.98418 0.29912 0.0
O119 O 0.66771 0.94853 0.31891 0.0
C120 C 0.7208 0.03817 0.365 0.0
C121 C 0.63692 0.99245 0.33214 0.0
C122 C 0.67251 0.95512 0.40474 0.0
O123 O 0.72093 0.01701 0.37356 0.0
O124 O 0.70046 0.03389 0.34718 0.0
O125 O 0.65295 0.95502 0.38919 0.0
O126 O 0.69547 0.97221 0.39315 0.0
C127 C 0.68554 0.9591 0.29566 0.0
O128 O 0.64305 0.99131 0.3638 0.0
O129 O 0.65239 0.99125 0.30959 0.0
In130 In 0.04274 0.70397 0.34821 0.0
O131 O 0.04826 0.72747 0.29719 0.0
O132 O 0.08245 0.72708 0.31832 0.0
C133 C 0.99496 0.69964 0.36619 0.0
C134 C 0.03086 0.65336 0.33061 0.0
C135 C 0.07539 0.7316 0.40269 0.0
O136 O 1.01024 0.71607 0.34317 0.0
O137 O 1.0033 0.68489 0.37925 0.0
O138 O 0.07719 0.71332 0.38666 0.0
O139 O 0.057 0.73567 0.39156 0.0
C140 C 0.07304 0.73505 0.29426 0.0
O141 O 0.02846 0.66897 0.30952 0.0
O142 O 0.03839 0.66275 0.3611 0.0
In143 In 0.32814 0.34683 0.34505 0.0
O144 O 0.32698 0.30698 0.33221 0.0
O145 O 0.34476 0.32637 0.38054 0.0
C146 C 0.29342 0.34004 0.29212 0.0
C147 C 0.30006 0.35332 0.39777 0.0
C148 C 0.37837 0.38786 0.32963 0.0
O149 O 0.29014 0.32085 0.31163 0.0
O150 O 0.31429 0.36229 0.29881 0.0
O151 O 0.36462 0.36863 0.30874 0.0
O152 O 0.36734 0.38598 0.359 0.0
C153 C 0.3379 0.30631 0.36073 0.0
O154 O 0.31588 0.37254 0.3782 0.0
O155 O 0.2988 0.33119 0.3912 0.0
In156 In 0.35527 0.0377 0.67771 0.0
O157 O 0.39306 0.03478 0.66429 0.0
O158 O 0.3781 0.0258 0.71636 0.0
C159 C 0.35744 0.0699 0.62417 0.0
C160 C 0.35335 0.06847 0.73028 0.0
C161 C 0.31312 0.98816 0.66155 0.0
O162 O 0.37833 0.0717 0.63797 0.0
O163 O 0.33549 0.05158 0.63691 0.0
O164 O 0.33367 1.00056 0.64221 0.0
O165 O 0.31404 1.00031 0.68962 0.0
C166 C 0.39593 0.02828 0.69494 0.0
O167 O 0.33541 0.04402 0.72638 0.0
O168 O 0.37201 0.07727 0.70786 0.0
In169 In 0.9948 0.32326 0.67852 0.0
O170 O 0.98628 0.35818 0.67184 0.0
O171 O 0.01463 0.36217 0.71087 0.0
C172 C 0.96226 0.29313 0.62511 0.0
C173 C 0.9661 0.29115 0.73287 0.0
C174 C 0.0448 0.33269 0.66116 0.0
O175 O 0.97125 0.31821 0.62736 0.0
O176 O 0.96963 0.28343 0.64951 0.0
O177 O 0.0352 0.32554 0.69159 0.0
O178 O 0.02968 0.33577 0.63992 0.0
C179 C 1.00207 0.37237 0.69614 0.0
O180 O 0.98418 0.28876 0.71719 0.0
O181 O 0.96278 0.30997 0.72153 0.0
In182 In 0.70642 0.67823 0.67783 0.0
O183 O 0.70997 0.71953 0.68703 0.0
O184 O 0.68719 0.69658 0.64303 0.0
C185 C 0.73623 0.67719 0.73208 0.0
C186 C 0.73905 0.68221 0.62437 0.0
C187 C 0.65832 0.63484 0.69525 0.0
O188 O 0.72998 0.69532 0.72897 0.0
O189 O 0.72739 0.65964 0.70812 0.0
O190 O 0.67189 0.6347 0.66927 0.0
O191 O 0.6684 0.65697 0.71153 0.0
C192 C 0.69639 0.71824 0.66023 0.0
O193 O 0.7148 0.6633 0.62641 0.0
O194 O 0.74673 0.69924 0.64892 0.0
In195 In 0.34874 0.32228 0.6792 0.0
O196 O 0.36608 0.31439 0.62957 0.0
O197 O 0.32851 0.28276 0.64877 0.0
C198 C 0.38992 0.37197 0.69614 0.0
C199 C 0.30635 0.32845 0.66172 0.0
C200 C 0.35219 0.29342 0.73263 0.0
O201 O 0.36975 0.35867 0.71577 0.0
O202 O 0.38898 0.36076 0.66724 0.0
O203 O 0.33375 0.29938 0.73088 0.0
O204 O 0.36897 0.3022 0.70775 0.0
C205 C 0.34674 0.29053 0.62581 0.0
O206 O 0.30561 0.31437 0.68761 0.0
O207 O 0.3286 0.34019 0.64571 0.0
In208 In 0.70957 0.03582 0.68021 0.0
O209 O 0.71714 0.05838 0.62826 0.0
O210 O 0.74998 0.0565 0.65167 0.0
C211 C 0.66093 0.02949 0.69823 0.0
C212 C 0.70206 0.98668 0.66293 0.0
C213 C 0.73886 0.06767 0.73388 0.0
O214 O 0.67404 0.04328 0.672 0.0
O215 O 0.67162 0.01794 0.71424 0.0
O216 O 0.73331 0.04344 0.73127 0.0
O217 O 0.72965 0.07575 0.70965 0.0
C218 C 0.7417 0.06479 0.62658 0.0
O219 O 0.69234 0.99842 0.64523 0.0
O220 O 0.7147 0.99911 0.69022 0.0
In221 In 0.99334 0.6805 0.68138 0.0
O222 O 0.98958 0.63952 0.66902 0.0
O223 O 1.01071 0.65999 0.71542 0.0
C224 C 0.95919 0.67355 0.62791 0.0
C225 C 0.96594 0.68752 0.73447 0.0
C226 C 0.04349 0.72149 0.66592 0.0
O227 O 0.95442 0.65506 0.64954 0.0
O228 O 0.98114 0.69515 0.63284 0.0
O229 O 0.03123 0.72129 0.69357 0.0
O230 O 0.03106 0.7007 0.647 0.0
C231 C 1.00183 0.63918 0.69644 0.0
O232 O 0.97974 0.70592 0.71274 0.0
O233 O 0.96642 0.66602 0.72996 0.0
H234 H 0.26548 0.34738 0.14502 0.0
H235 H 0.20776 0.35781 0.08597 0.0
H236 H 0.1936 0.33406 0.19588 0.0
H237 H 0.16926 0.35218 0.19763 0.0
H238 H 0.1043 0.35153 0.14245 0.0
H239 H 0.16537 0.34663 0.08361 0.0
C240 C 0.24625 0.34681 0.14379 0.0
C241 C 0.23077 0.34129 0.17408 0.0
C242 C 0.23746 0.35175 0.11197 0.0
C243 C 0.2132 0.35245 0.1106 0.0
C244 C 0.19674 0.34667 0.14094 0.0
C245 C 0.20562 0.33996 0.17227 0.0
C246 C 0.17101 0.34822 0.14064 0.0
C247 C 0.15957 0.3504 0.17266 0.0
C248 C 0.13527 0.35074 0.1732 0.0
C249 C 0.12277 0.35058 0.14184 0.0
C250 C 0.13399 0.34988 0.1097 0.0
C251 C 0.15771 0.34807 0.10892 0.0
H252 H 0.68713 0.93065 0.14502 0.0
H253 H 0.6898 0.86923 0.08437 0.0
H254 H 0.68524 0.86456 0.19844 0.0
H255 H 0.70094 0.83818 0.19512 0.0
H256 H 0.68321 0.76577 0.14187 0.0
H257 H 0.67691 0.82674 0.08519 0.0
C258 C 0.68768 0.912 0.1439 0.0
C259 C 0.68759 0.89921 0.17494 0.0
C260 C 0.68767 0.90076 0.11146 0.0
C261 C 0.6888 0.87678 0.10996 0.0
C262 C 0.68835 0.86298 0.14123 0.0
C263 C 0.68714 0.87455 0.1737 0.0
C264 C 0.68831 0.8365 0.14044 0.0
C265 C 0.69432 0.8265 0.17123 0.0
C266 C 0.69138 0.80068 0.17209 0.0
C267 C 0.68493 0.78551 0.14138 0.0
C268 C 0.68086 0.79545 0.10997 0.0
C269 C 0.68169 0.82043 0.10956 0.0
H270 H 0.26748 0.92639 0.1412 0.0
H271 H 0.20477 0.86123 0.08295 0.0
H272 H 0.19772 0.86828 0.19585 0.0
H273 H 0.16813 0.82776 0.19697 0.0
H274 H 0.10137 0.76496 0.14253 0.0
H275 H 0.16348 0.82947 0.08292 0.0
C276 C 0.24776 0.90821 0.14055 0.0
C277 C 0.23369 0.89786 0.17167 0.0
C278 C 0.23701 0.89531 0.10868 0.0
C279 C 0.21183 0.87113 0.10799 0.0
C280 C 0.19677 0.86008 0.13943 0.0
C281 C 0.20812 0.87458 0.17107 0.0
C282 C 0.16997 0.83359 0.13983 0.0
C283 C 0.15824 0.82026 0.17204 0.0
C284 C 0.13332 0.79616 0.17294 0.0
C285 C 0.12026 0.78406 0.14173 0.0
C286 C 0.13157 0.79575 0.10949 0.0
C287 C 0.1559 0.82074 0.1084 0.0
H288 H 0.35545 0.10011 0.88058 0.0
H289 H 0.35908 0.16505 0.9399 0.0
H290 H 0.3493 0.16141 0.8261 0.0
H291 H 0.35687 0.20055 0.82637 0.0
H292 H 0.35529 0.26362 0.88256 0.0
H293 H 0.35396 0.19924 0.94076 0.0
C294 C 0.35478 0.11871 0.88137 0.0
C295 C 0.35257 0.13005 0.85021 0.0
C296 C 0.35685 0.13125 0.91345 0.0
C297 C 0.35674 0.15578 0.91453 0.0
C298 C 0.35422 0.16794 0.88318 0.0
C299 C 0.35174 0.1541 0.85107 0.0
C300 C 0.35464 0.1948 0.88355 0.0
C301 C 0.3556 0.20819 0.85166 0.0
C302 C 0.35523 0.23246 0.85144 0.0
C303 C 0.35503 0.24454 0.88293 0.0
C304 C 0.35513 0.23279 0.91489 0.0
C305 C 0.35445 0.20782 0.91539 0.0
H306 H 0.7677 0.10045 0.88451 0.0
H307 H 0.83371 0.16241 0.94258 0.0
H308 H 0.83094 0.16595 0.8286 0.0
H309 H 0.87321 0.1922 0.82988 0.0
H310 H 0.93062 0.26448 0.88157 0.0
H311 H 0.86422 0.20442 0.94067 0.0
C312 C 0.7869 0.11924 0.88489 0.0
C313 C 0.79896 0.13166 0.85337 0.0
C314 C 0.79905 0.13079 0.91688 0.0
C315 C 0.82439 0.15473 0.91735 0.0
C316 C 0.83705 0.16815 0.88554 0.0
C317 C 0.82331 0.15634 0.85366 0.0
C318 C 0.8639 0.19438 0.88516 0.0
C319 C 0.87915 0.20402 0.85367 0.0
C320 C 0.9025 0.22962 0.85207 0.0
C321 C 0.91225 0.24493 0.88257 0.0
C322 C 0.89899 0.23525 0.91449 0.0
C323 C 0.87457 0.21048 0.91578 0.0
H324 H 0.76616 0.67664 0.88275 0.0
H325 H 0.8317 0.68076 0.94224 0.0
H326 H 0.83 0.67474 0.82831 0.0
H327 H 0.87269 0.69351 0.83065 0.0
H328 H 0.9303 0.6785 0.88096 0.0
H329 H 0.86239 0.66865 0.94013 0.0
C330 C 0.78546 0.67734 0.88354 0.0
C331 C 0.79771 0.67686 0.85229 0.0
C332 C 0.79728 0.67794 0.91581 0.0
C333 C 0.82264 0.6794 0.91686 0.0
C334 C 0.83572 0.67899 0.88531 0.0
C335 C 0.82216 0.67682 0.85315 0.0
C336 C 0.86287 0.68028 0.88529 0.0
C337 C 0.87857 0.68719 0.85413 0.0
C338 C 0.90216 0.68553 0.85228 0.0
C339 C 0.91181 0.67936 0.88233 0.0
C340 C 0.898 0.6742 0.9141 0.0
C341 C 0.87328 0.67405 0.91558 0.0
H342 H 0.93404 0.68231 0.48009 0.0
H343 H 0.87638 0.69223 0.41996 0.0
H344 H 0.8611 0.66751 0.5294 0.0
H345 H 0.83773 0.68698 0.53096 0.0
H346 H 0.77197 0.68425 0.47506 0.0
H347 H 0.83312 0.67869 0.41729 0.0
C348 C 0.91469 0.68146 0.47843 0.0
C349 C 0.8987 0.67537 0.5083 0.0
C350 C 0.90621 0.6866 0.44647 0.0
C351 C 0.8817 0.68679 0.44463 0.0
C352 C 0.86491 0.68058 0.47469 0.0
C353 C 0.87347 0.67373 0.50606 0.0
C354 C 0.83913 0.68189 0.47418 0.0
C355 C 0.82782 0.68462 0.506 0.0
C356 C 0.8033 0.68455 0.5063 0.0
C357 C 0.79062 0.68364 0.47476 0.0
C358 C 0.80178 0.68234 0.44281 0.0
C359 C 0.82557 0.68076 0.44239 0.0
H360 H 0.34525 0.25927 0.47549 0.0
H361 H 0.35059 0.19839 0.41694 0.0
H362 H 0.34229 0.19316 0.53058 0.0
H363 H 0.36096 0.16885 0.5286 0.0
H364 H 0.344 0.0958 0.47742 0.0
H365 H 0.33616 0.15521 0.41904 0.0
C366 C 0.34577 0.2406 0.47493 0.0
C367 C 0.34489 0.22777 0.50632 0.0
C368 C 0.34698 0.22959 0.44282 0.0
C369 C 0.3485 0.20578 0.44214 0.0
C370 C 0.34717 0.19196 0.4738 0.0
C371 C 0.34466 0.20321 0.50575 0.0
C372 C 0.34775 0.16583 0.47399 0.0
C373 C 0.35428 0.15662 0.50514 0.0
C374 C 0.35196 0.13103 0.50675 0.0
C375 C 0.34526 0.11533 0.47647 0.0
C376 C 0.34072 0.12459 0.4448 0.0
C377 C 0.34121 0.14937 0.4436 0.0
H378 H 0.93303 0.26024 0.4745 0.0
H379 H 0.87248 0.19291 0.41653 0.0
H380 H 0.86473 0.19966 0.52927 0.0
H381 H 0.839 0.15771 0.52992 0.0
H382 H 0.7715 0.09436 0.47719 0.0
H383 H 0.83009 0.16131 0.4168 0.0
C384 C 0.91381 0.24146 0.47392 0.0
C385 C 0.90002 0.23069 0.50514 0.0
C386 C 0.90361 0.22817 0.44208 0.0
C387 C 0.8792 0.20319 0.44144 0.0
C388 C 0.86442 0.19166 0.47287 0.0
C389 C 0.87514 0.20649 0.50454 0.0
C390 C 0.83862 0.16425 0.47325 0.0
C391 C 0.82842 0.15016 0.50538 0.0
C392 C 0.80396 0.12563 0.50675 0.0
C393 C 0.79019 0.11362 0.47591 0.0
C394 C 0.79993 0.12606 0.44351 0.0
C395 C 0.82372 0.15164 0.4421 0.0
H396 H 0.02425 0.43691 0.21553 0.0
H397 H 0.02747 0.50198 0.27426 0.0
H398 H 1.00658 0.49193 0.16326 0.0
H399 H 0.02197 0.53399 0.16108 0.0
H400 H 0.01809 0.59674 0.21549 0.0
H401 H 0.01554 0.53219 0.275 0.0
C402 C 0.02235 0.45483 0.21639 0.0
C403 C 0.01622 0.46394 0.1858 0.0
C404 C 0.02516 0.46782 0.24832 0.0
C405 C 0.02383 0.49172 0.24937 0.0
C406 C 0.0181 0.50191 0.21843 0.0
C407 C 0.01295 0.48659 0.18714 0.0
C408 C 0.01786 0.52828 0.21812 0.0
C409 C 0.01954 0.54158 0.18591 0.0
C410 C 0.01871 0.56562 0.18501 0.0
C411 C 0.01786 0.57769 0.21626 0.0
C412 C 0.01753 0.56601 0.2485 0.0
C413 C 0.01673 0.54104 0.24957 0.0
H414 H 0.43416 0.4337 0.21704 0.0
H415 H 0.49922 0.49681 0.27492 0.0
H416 H 0.49689 0.49899 0.16065 0.0
H417 H 0.53739 0.52865 0.1608 0.0
H418 H 0.59788 0.59783 0.21416 0.0
H419 H 0.53185 0.53757 0.27363 0.0
C420 C 0.45325 0.45263 0.21729 0.0
C421 C 0.46518 0.46493 0.1857 0.0
C422 C 0.46519 0.46451 0.24921 0.0
C423 C 0.49028 0.48879 0.24963 0.0
C424 C 0.50307 0.5021 0.21777 0.0
C425 C 0.48942 0.48977 0.18589 0.0
C426 C 0.53 0.52853 0.21739 0.0
C427 C 0.54433 0.53916 0.18543 0.0
C428 C 0.56829 0.56421 0.1843 0.0
C429 C 0.5793 0.57846 0.2152 0.0
C430 C 0.56637 0.5686 0.24724 0.0
C431 C 0.54167 0.54394 0.24847 0.0
H432 H 0.43215 0.00888 0.21621 0.0
H433 H 0.49787 0.01422 0.27652 0.0
H434 H 0.49656 1.00717 0.16276 0.0
H435 H 0.53966 0.02677 0.16592 0.0
H436 H 0.59611 0.01054 0.21766 0.0
H437 H 0.52726 1.00034 0.27473 0.0
C438 C 0.4515 0.00968 0.21727 0.0
C439 C 0.46391 0.00909 0.18621 0.0
C440 C 0.46331 0.01073 0.2497 0.0
C441 C 0.48876 0.01242 0.25107 0.0
C442 C 0.50189 0.0117 0.21972 0.0
C443 C 0.48847 0.00924 0.18741 0.0
C444 C 0.52896 0.01289 0.22015 0.0
C445 C 0.54518 0.02011 0.18942 0.0
C446 C 0.56873 0.01826 0.18809 0.0
C447 C 0.57769 0.01157 0.21845 0.0
C448 C 0.56329 1.00614 0.24981 0.0
C449 C 0.53867 1.00611 0.25056 0.0
H450 H 0.60277 0.01611 0.81564 0.0
H451 H 0.54461 0.02441 0.75461 0.0
H452 H 0.53017 1.00229 0.86497 0.0
H453 H 0.50567 0.02022 0.86593 0.0
H454 H 0.44122 0.01928 0.80899 0.0
H455 H 0.50259 0.01374 0.75197 0.0
C456 C 0.58346 0.01535 0.81396 0.0
C457 C 0.56767 0.00984 0.84398 0.0
C458 C 0.5746 0.0195 0.78167 0.0
C459 C 0.55013 0.01975 0.77966 0.0
C460 C 0.53365 0.01447 0.80987 0.0
C461 C 0.54241 1.00817 0.84154 0.0
C462 C 0.50795 0.01602 0.80904 0.0
C463 C 0.49624 0.01839 0.84074 0.0
C464 C 0.4719 0.01868 0.84067 0.0
C465 C 0.45977 0.01847 0.80894 0.0
C466 C 0.47127 0.01749 0.77715 0.0
C467 C 0.49489 0.01559 0.77704 0.0
H468 H 0.01492 0.59381 0.80822 0.0
H469 H 1.0099 0.52786 0.74957 0.0
H470 H 0.03087 0.53771 0.86058 0.0
H471 H 0.01541 0.49594 0.86319 0.0
H472 H 0.01569 0.43109 0.80958 0.0
H473 H 0.01852 0.49533 0.74901 0.0
C474 C 0.01638 0.57565 0.80734 0.0
C475 C 0.02217 0.56628 0.83795 0.0
C476 C 0.01313 0.56246 0.77545 0.0
C477 C 0.0138 0.53819 0.77444 0.0
C478 C 0.0191 0.52767 0.80542 0.0
C479 C 0.02475 0.54321 0.83664 0.0
C480 C 0.01828 0.50072 0.80594 0.0
C481 C 0.01695 0.48778 0.83837 0.0
C482 C 0.01694 0.46333 0.8396 0.0
C483 C 0.01654 0.45044 0.80851 0.0
C484 C 0.01626 0.46158 0.77609 0.0
C485 C 0.0179 0.48696 0.77461 0.0
H486 H 0.60134 0.59031 0.80971 0.0
H487 H 0.54077 0.52324 0.75171 0.0
H488 H 0.52876 0.53415 0.86189 0.0
H489 H 0.50357 0.49152 0.86443 0.0
H490 H 0.43667 0.42807 0.81039 0.0
H491 H 0.49816 0.49313 0.7506 0.0
C492 C 0.58173 0.57199 0.80894 0.0
C493 C 0.56635 0.56289 0.83944 0.0
C494 C 0.57197 0.55833 0.77725 0.0
C495 C 0.54704 0.53397 0.77635 0.0
C496 C 0.53097 0.52387 0.80711 0.0
C497 C 0.54067 0.53964 0.83817 0.0
C498 C 0.50465 0.49711 0.80745 0.0
C499 C 0.49337 0.48371 0.83969 0.0
C500 C 0.4686 0.45943 0.8407 0.0
C501 C 0.45546 0.44725 0.80952 0.0
C502 C 0.46654 0.45902 0.77722 0.0
C503 C 0.49067 0.48418 0.77604 0.0
H504 H 0.68517 0.76505 0.54648 0.0
H505 H 0.67818 0.82382 0.60793 0.0
H506 H 0.68451 0.83041 0.49416 0.0
H507 H 0.66436 0.85332 0.49843 0.0
H508 H 0.68162 0.92605 0.5508 0.0
H509 H 0.69207 0.86722 0.60681 0.0
C510 C 0.68373 0.78321 0.54786 0.0
C511 C 0.68371 0.79617 0.51699 0.0
C512 C 0.68248 0.79354 0.58049 0.0
C513 C 0.68006 0.81683 0.58232 0.0
C514 C 0.68034 0.83075 0.55125 0.0
C515 C 0.68281 0.82015 0.51864 0.0
C516 C 0.67889 0.85644 0.55233 0.0
C517 C 0.67127 0.86546 0.52197 0.0
C518 C 0.67334 0.89094 0.52097 0.0
C519 C 0.68038 0.90652 0.55137 0.0
C520 C 0.68599 0.89747 0.58248 0.0
C521 C 0.68603 0.87289 0.58288 0.0
H522 H 0.1019 0.76598 0.55254 0.0
H523 H 0.16275 0.83251 0.61115 0.0
H524 H 0.174 0.82276 0.50031 0.0
H525 H 0.19907 0.86499 0.49761 0.0
H526 H 0.26551 0.92943 0.55076 0.0
H527 H 0.20448 0.8648 0.61159 0.0
C528 C 0.12152 0.78428 0.55345 0.0
C529 C 0.1367 0.79381 0.52286 0.0
C530 C 0.13142 0.79758 0.58535 0.0
C531 C 0.15634 0.82206 0.58634 0.0
C532 C 0.17212 0.83268 0.55537 0.0
C533 C 0.16232 0.81708 0.5242 0.0
C534 C 0.19815 0.85981 0.55474 0.0
C535 C 0.20926 0.87302 0.52228 0.0
C536 C 0.23382 0.89751 0.5209 0.0
C537 C 0.24689 0.91009 0.55191 0.0
C538 C 0.23585 0.89874 0.58438 0.0
C539 C 0.21194 0.87338 0.58599 0.0
H540 H 0.10005 0.34239 0.54765 0.0
H541 H 0.16663 0.34796 0.60591 0.0
H542 H 0.16367 0.34078 0.49206 0.0
H543 H 0.20643 0.35894 0.49375 0.0
H544 H 0.26419 0.34441 0.54488 0.0
H545 H 0.19667 0.33553 0.60375 0.0
C546 C 0.11941 0.34319 0.54809 0.0
C547 C 0.13141 0.34266 0.51663 0.0
C548 C 0.13173 0.34429 0.5801 0.0
C549 C 0.15719 0.34606 0.58069 0.0
C550 C 0.16986 0.34529 0.54895 0.0
C551 C 0.15597 0.34283 0.51703 0.0
C552 C 0.1969 0.34646 0.54866 0.0
C553 C 0.21242 0.35289 0.51737 0.0
C554 C 0.23601 0.35116 0.51569 0.0
C555 C 0.24569 0.34527 0.54599 0.0
C556 C 0.23199 0.34063 0.57778 0.0
C557 C 0.20739 0.34058 0.57908 0.0
C558 C 0.0292 0.44559 0.09433 0.0
C559 C 0.01292 0.41703 0.09585 0.0
C560 C 0.99321 0.42117 0.15086 0.0
C561 C 0.01305 0.44894 0.15257 0.0
N562 N 0.05289 0.48693 0.12775 0.0
N563 N 0.98264 0.37729 0.12947 0.0
C564 C 0.0318 0.46109 0.1247 0.0
C565 C 0.99555 0.40465 0.12501 0.0
N566 N 0.04142 0.45806 0.06363 0.0
N567 N 0.97212 0.4106 0.17396 0.0
H568 H 0.98503 0.36437 0.11256 0.0
H569 H 0.97192 0.36772 0.15214 0.0
H570 H 0.96959 0.42234 0.19285 0.0
H571 H 0.95579 0.391 0.1719 0.0
H572 H 0.05148 0.47895 0.06045 0.0
H573 H 0.03887 0.44759 0.04023 0.0
H574 H 0.06868 0.49555 0.10971 0.0
H575 H 0.05597 0.49897 0.14973 0.0
C576 C 0.59749 0.61746 0.11343 0.0
C577 C 0.61249 0.60872 0.09318 0.0
C578 C 0.5975 0.56945 0.13186 0.0
C579 C 0.58117 0.57735 0.15051 0.0
N580 N 0.56051 0.60501 0.1539 0.0
N581 N 0.62217 0.5735 0.07834 0.0
C582 C 0.5795 0.60011 0.13952 0.0
C583 C 0.6112 0.58385 0.10101 0.0
N584 N 0.60161 0.64297 0.10931 0.0
N585 N 0.60067 0.54884 0.14427 0.0
H586 H 0.63183 0.58315 0.05512 0.0
H587 H 0.6195 0.55421 0.08085 0.0
H588 H 0.59054 0.53754 0.16637 0.0
H589 H 0.61473 0.54419 0.13412 0.0
H590 H 0.59332 0.65131 0.12597 0.0
H591 H 0.61552 0.65694 0.09167 0.0
H592 H 0.55655 0.61974 0.14444 0.0
H593 H 0.54685 0.5926 0.17301 0.0
C594 C 0.44592 0.03141 0.10108 0.0
C595 C 0.41971 0.00904 0.09498 0.0
C596 C 0.42611 0.98452 0.14328 0.0
C597 C 0.45052 1.00823 0.15241 0.0
N598 N 0.4824 0.05543 0.14263 0.0
N599 N 0.38315 0.96549 0.11297 0.0
C600 C 0.46021 0.03199 0.1319 0.0
C601 C 0.40939 0.98576 0.11659 0.0
N602 N 0.45756 0.05168 0.07683 0.0
N603 N 0.41907 0.96078 0.16002 0.0
H604 H 0.36997 0.96593 0.09441 0.0
H605 H 0.37366 0.9494 0.13042 0.0
H606 H 0.43098 0.95925 0.17963 0.0
H607 H 0.40289 0.94225 0.15227 0.0
H608 H 0.47767 0.06707 0.07811 0.0
H609 H 0.44798 0.05174 0.05354 0.0
H610 H 0.48844 0.07408 0.13108 0.0
H611 H 0.4937 0.05668 0.16478 0.0
C612 C 0.42885 0.99487 0.92354 0.0
C613 C 0.42507 0.01719 0.92964 0.0
C614 C 0.45754 0.04252 0.88301 0.0
C615 C 0.45833 0.01896 0.87379 0.0
N616 N 0.44224 0.97153 0.88242 0.0
N617 N 0.43293 0.06109 0.91223 0.0
C618 C 0.44343 0.99482 0.8934 0.0
C619 C 0.43883 0.04084 0.90879 0.0
N620 N 0.41935 0.97415 0.94719 0.0
N621 N 0.47488 0.06653 0.86725 0.0
H622 H 0.41877 0.06033 0.93008 0.0
H623 H 0.44017 0.0775 0.89524 0.0
H624 H 0.48887 0.06838 0.84831 0.0
H625 H 0.47716 0.08495 0.87523 0.0
H626 H 0.42395 0.95874 0.94601 0.0
H627 H 0.40906 0.97368 0.96999 0.0
H628 H 0.42911 0.95268 0.89319 0.0
H629 H 0.4529 0.97065 0.86077 0.0
C630 C 0.03936 0.44558 0.92512 0.0
C631 C 0.01708 0.41929 0.931 0.0
C632 C 0.99262 0.42553 0.8824 0.0
C633 C 0.01625 0.45002 0.87344 0.0
N634 N 0.06337 0.48211 0.88371 0.0
N635 N 0.97412 0.38232 0.91148 0.0
C636 C 0.03997 0.45982 0.89421 0.0
C637 C 0.99401 0.40878 0.90881 0.0
N638 N 0.05946 0.45734 0.94964 0.0
N639 N 0.96877 0.41843 0.8658 0.0
H640 H 0.97478 0.3689 0.92938 0.0
H641 H 0.95828 0.37291 0.89358 0.0
H642 H 0.96705 0.43038 0.84645 0.0
H643 H 0.9503 0.40217 0.87358 0.0
H644 H 0.07476 0.47747 0.94848 0.0
H645 H 0.05946 0.44779 0.97296 0.0
H646 H 0.08201 0.48831 0.89552 0.0
H647 H 0.06459 0.49332 0.86151 0.0
C648 C 0.59786 0.58302 0.93086 0.0
C649 C 0.60923 0.61145 0.929 0.0
C650 C 0.58484 0.60586 0.87386 0.0
C651 C 0.57786 0.57837 0.87254 0.0
N652 N 0.58127 0.54154 0.89807 0.0
N653 N 0.61675 0.65043 0.89524 0.0
C654 C 0.58515 0.56703 0.90068 0.0
C655 C 0.60338 0.62307 0.89974 0.0
N656 N 0.59833 0.57109 0.96173 0.0
N657 N 0.57366 0.61549 0.85036 0.0
H658 H 0.63163 0.6639 0.91237 0.0
H659 H 0.61514 0.65963 0.87249 0.0
H660 H 0.55965 0.60323 0.83142 0.0
H661 H 0.57612 0.63475 0.85208 0.0
H662 H 0.58813 0.55024 0.96523 0.0
H663 H 0.60619 0.58189 0.98496 0.0
H664 H 0.58901 0.53359 0.91626 0.0
H665 H 0.57244 0.52917 0.87628 0.0
C666 C 0.04345 0.62526 0.89982 0.0
C667 C 0.02522 0.61288 0.92819 0.0
C668 C 1.00596 0.56904 0.89864 0.0
C669 C 0.02524 0.58114 0.87132 0.0
N670 N 0.06696 0.61905 0.8511 0.0
N671 N 0.99535 0.57176 0.95938 0.0
C672 C 0.04558 0.60871 0.87374 0.0
C673 C 1.00837 0.58436 0.9291 0.0
N674 N 0.05744 0.65271 0.89634 0.0
N675 N 0.9845 0.54346 0.89492 0.0
H676 H 0.99768 0.5821 0.98284 0.0
H677 H 0.98481 0.55085 0.96225 0.0
H678 H 0.98149 0.53156 0.87282 0.0
H679 H 0.96837 0.53498 0.91246 0.0
H680 H 0.0688 0.66247 0.87415 0.0
H681 H 0.0556 0.66571 0.91373 0.0
H682 H 0.08364 0.63839 0.85365 0.0
H683 H 0.06928 0.60729 0.83203 0.0
C684 C 0.42808 0.44124 0.92567 0.0
C685 C 0.42392 0.41494 0.93146 0.0
C686 C 0.45496 0.42143 0.88326 0.0
C687 C 0.45592 0.44593 0.87439 0.0
N688 N 0.44108 0.47801 0.88461 0.0
N689 N 0.43062 0.37838 0.91309 0.0
C690 C 0.442 0.45566 0.89503 0.0
C691 C 0.43683 0.40465 0.90976 0.0
N692 N 0.41955 0.45282 0.95006 0.0
N693 N 0.47157 0.41436 0.86644 0.0
H694 H 0.41696 0.36516 0.93157 0.0
H695 H 0.43713 0.36894 0.8955 0.0
H696 H 0.48512 0.42629 0.84694 0.0
H697 H 0.47377 0.3981 0.87403 0.0
H698 H 0.42445 0.47295 0.94902 0.0
H699 H 0.40981 0.44316 0.97324 0.0
H700 H 0.42856 0.48412 0.89622 0.0
H701 H 0.45134 0.48942 0.86264 0.0
C702 C 0.60211 0.98678 0.90904 0.0
C703 C 0.60834 1.00557 0.93681 0.0
C704 C 0.58573 0.02595 0.90513 0.0
C705 C 0.57846 1.00645 0.87807 0.0
N706 N 0.5732 0.96395 0.85913 0.0
N707 N 0.59847 0.03696 0.96609 0.0
C708 C 0.58446 0.98536 0.88174 0.0
C709 C 0.59771 0.02324 0.93637 0.0
N710 N 0.61431 0.97155 0.9073 0.0
N711 N 0.58272 0.04794 0.90038 0.0
H712 H 0.60608 0.03463 0.98991 0.0
H713 H 0.58878 0.04819 0.96809 0.0
H714 H 0.57462 0.05122 0.87768 0.0
H715 H 0.59054 0.06418 0.91777 0.0
H716 H 0.6127 0.95979 0.88557 0.0
H717 H 0.62807 0.97247 0.92594 0.0
H718 H 0.57483 0.94678 0.86245 0.0
H719 H 0.55991 0.96221 0.83915 0.0
C720 C 0.62853 0.04253 0.12634 0.0
C721 C 0.61681 0.02421 0.09787 0.0
C722 C 0.57265 1.00334 0.127 0.0
C723 C 0.58407 0.02234 0.15479 0.0
N724 N 0.62098 0.06431 0.17614 0.0
N725 N 0.57636 0.99325 0.06626 0.0
C726 C 0.61143 0.04341 0.15278 0.0
C727 C 0.58842 1.00652 0.09668 0.0
N728 N 0.65598 0.05786 0.1295 0.0
N729 N 0.54733 0.98135 0.1302 0.0
H730 H 0.5871 0.9959 0.04306 0.0
H731 H 0.55547 0.98207 0.06298 0.0
H732 H 0.53511 0.97778 0.1521 0.0
H733 H 0.53938 0.96538 0.11239 0.0
H734 H 0.66555 0.06928 0.15174 0.0
H735 H 0.66936 0.05739 0.1114 0.0
H736 H 0.64 0.08152 0.17404 0.0
H737 H 0.60883 0.06563 0.19552 0.0
C738 C 0.99617 0.58398 0.10016 0.0
C739 C 0.01869 0.61005 0.094 0.0
C740 C 0.0432 0.60353 0.14234 0.0
C741 C 0.01945 0.57916 0.15136 0.0
N742 N 0.97223 0.54732 0.14146 0.0
N743 N 0.06233 0.64647 0.11224 0.0
C744 C 0.99564 0.56958 0.13086 0.0
C745 C 0.04198 0.62028 0.11572 0.0
N746 N 0.97572 0.57256 0.07604 0.0
N747 N 0.06697 0.6105 0.15906 0.0
H748 H 0.06198 0.65971 0.09374 0.0
H749 H 0.0784 0.6559 0.1298 0.0
H750 H 0.06852 0.59861 0.17866 0.0
H751 H 0.08554 0.62662 0.15131 0.0
H752 H 0.96018 0.55253 0.07725 0.0
H753 H 0.97558 0.58229 0.05296 0.0
H754 H 0.95352 0.54128 0.12998 0.0
H755 H 0.97112 0.53591 0.16339 0.0
C756 C 0.44712 0.424 0.1007 0.0
C757 C 0.42047 0.41917 0.09533 0.0
C758 C 0.42645 0.44934 0.14439 0.0
C759 C 0.45143 0.45129 0.15243 0.0
N760 N 0.48451 0.43794 0.14128 0.0
N761 N 0.38308 0.42415 0.11497 0.0
C762 C 0.46162 0.43806 0.13132 0.0
C763 C 0.40969 0.43126 0.11771 0.0
N764 N 0.45894 0.41603 0.07593 0.0
N765 N 0.41955 0.46533 0.16285 0.0
H766 H 0.36995 0.41042 0.09644 0.0
H767 H 0.37322 0.4298 0.13305 0.0
H768 H 0.4026 0.46708 0.15774 0.0
H769 H 0.4026 0.46708 0.15774 0.0
H770 H 0.47923 0.42141 0.07668 0.0
H771 H 0.44922 0.40623 0.05278 0.0
H772 H 0.49118 0.42605 0.1292 0.0
H773 H 0.49577 0.44818 0.16338 0.0
C774 C 0.70953 0.76755 0.44757 0.0
C775 C 0.68619 0.75297 0.42625 0.0
C776 C 0.66153 0.76866 0.46281 0.0
C777 C 0.68526 0.78422 0.48303 0.0
N778 N 0.73326 0.80338 0.49014 0.0
N779 N 0.6422 0.74468 0.40839 0.0
C780 C 0.70975 0.78527 0.47382 0.0
C781 C 0.6628 0.75499 0.43233 0.0
N782 N 0.73089 0.7633 0.44417 0.0
N783 N 0.63753 0.76602 0.47349 0.0
H784 H 0.6426 0.73497 0.38542 0.0
H785 H 0.6259 0.74796 0.40956 0.0
H786 H 0.63585 0.77616 0.4952 0.0
H787 H 0.619 0.75236 0.46229 0.0
H788 H 0.74717 0.77111 0.46152 0.0
H789 H 0.7313 0.7499 0.42601 0.0
H790 H 0.75221 0.80702 0.48224 0.0
H791 H 0.73404 0.81666 0.50946 0.0
C792 C 0.27269 0.91583 0.43439 0.0
C793 C 0.27732 0.94241 0.42958 0.0
C794 C 0.24738 0.93594 0.47914 0.0
C795 C 0.24606 0.91112 0.48704 0.0
N796 N 0.26014 0.87871 0.47475 0.0
N797 N 0.27262 0.97953 0.45104 0.0
C798 C 0.25932 0.90129 0.46526 0.0
C799 C 0.26544 0.95291 0.45276 0.0
N800 N 0.28015 0.90407 0.40892 0.0
N801 N 0.2312 0.94316 0.49676 0.0
H802 H 0.28674 0.99306 0.43322 0.0
H803 H 0.2667 0.98888 0.46959 0.0
H804 H 0.21759 0.93104 0.5161 0.0
H805 H 0.22934 0.95975 0.48984 0.0
H806 H 0.27482 0.88382 0.40942 0.0
H807 H 0.28933 0.91375 0.38551 0.0
H808 H 0.2722 0.87247 0.46212 0.0
H809 H 0.25037 0.8673 0.49692 0.0
C810 C 0.11214 0.36563 0.43318 0.0
C811 C 0.08599 0.34314 0.42719 0.0
C812 C 0.09326 0.31825 0.47418 0.0
C813 C 0.11763 0.342 0.4833 0.0
N814 N 0.14905 0.38941 0.47421 0.0
N815 N 0.04999 0.29913 0.44465 0.0
C816 C 0.12686 0.36599 0.46341 0.0
C817 C 0.07615 0.31959 0.44818 0.0
N818 N 0.1233 0.38624 0.40934 0.0
N819 N 0.08666 0.29439 0.49027 0.0
H820 H 0.03655 0.29963 0.42658 0.0
H821 H 0.04083 0.28276 0.46172 0.0
H822 H 0.09887 0.29281 0.50939 0.0
H823 H 0.07052 0.27585 0.48243 0.0
H824 H 0.14335 0.40178 0.41046 0.0
H825 H 0.11339 0.3865 0.38647 0.0
H826 H 0.15476 0.40817 0.46324 0.0
H827 H 0.1607 0.39049 0.49589 0.0
C828 C 0.10416 0.37439 0.24204 0.0
C829 C 0.08981 0.35072 0.26271 0.0
C830 C 0.10699 0.32742 0.2262 0.0
C831 C 0.12233 0.35147 0.20662 0.0
N832 N 0.14029 0.39931 0.20029 0.0
N833 N 0.08263 0.30706 0.27995 0.0
C834 C 0.12247 0.37547 0.21607 0.0
C835 C 0.0927 0.32789 0.25641 0.0
N836 N 0.09919 0.39523 0.24584 0.0
N837 N 0.10515 0.30386 0.21514 0.0
H838 H 0.07251 0.30688 0.30278 0.0
H839 H 0.08656 0.29121 0.27863 0.0
H840 H 0.1157 0.30272 0.19354 0.0
H841 H 0.09167 0.28509 0.22585 0.0
H842 H 0.10688 0.41177 0.229 0.0
H843 H 0.08536 0.39495 0.26386 0.0
H844 H 0.14325 0.41796 0.2084 0.0
H845 H 0.15397 0.40071 0.18117 0.0
C846 C 0.67739 0.7681 0.26282 0.0
C847 C 0.69418 0.75644 0.2617 0.0
C848 C 0.71454 0.78118 0.20732 0.0
C849 C 0.69436 0.78857 0.2052 0.0
N850 N 0.65371 0.78544 0.22897 0.0
N851 N 0.72631 0.74894 0.22969 0.0
C852 C 0.67508 0.78123 0.23253 0.0
C853 C 0.71237 0.76239 0.23329 0.0
N854 N 0.66433 0.76745 0.29313 0.0
N855 N 0.73583 0.79222 0.18453 0.0
H856 H 0.72447 0.73408 0.24708 0.0
H857 H 0.73763 0.75057 0.20748 0.0
H858 H 0.73815 0.80635 0.16552 0.0
H859 H 0.75244 0.78949 0.18686 0.0
H860 H 0.65385 0.77783 0.29618 0.0
H861 H 0.66653 0.75922 0.31647 0.0
H862 H 0.63756 0.77768 0.24649 0.0
H863 H 0.65079 0.79454 0.20702 0.0
C864 C 0.25445 0.9421 0.25356 0.0
C865 C 0.2784 0.94187 0.26279 0.0
C866 C 0.26876 0.90788 0.2175 0.0
C867 C 0.24709 0.91101 0.20518 0.0
N868 N 0.22084 0.93317 0.20875 0.0
N869 N 0.31073 0.92767 0.25007 0.0
C870 C 0.24025 0.92861 0.22254 0.0
C871 C 0.28612 0.92543 0.24404 0.0
N872 N 0.24469 0.95429 0.27513 0.0
N873 N 0.27256 0.88794 0.20398 0.0
H874 H 0.32454 0.94092 0.26846 0.0
H875 H 0.31861 0.91833 0.23452 0.0
H876 H 0.26018 0.87469 0.18448 0.0
H877 H 0.28629 0.8829 0.21437 0.0
H878 H 0.22594 0.95279 0.27155 0.0
H879 H 0.25405 0.9637 0.29863 0.0
H880 H 0.21721 0.94818 0.2179 0.0
H881 H 0.20963 0.92323 0.18647 0.0
C882 C 0.70996 0.94188 0.25835 0.0
C883 C 0.68634 0.94324 0.26544 0.0
C884 C 0.66224 0.91051 0.2185 0.0
C885 C 0.68667 0.91173 0.20866 0.0
N886 N 0.73465 0.9306 0.21644 0.0
N887 N 0.64133 0.93254 0.24839 0.0
C888 C 0.71079 0.92789 0.22791 0.0
C889 C 0.66274 0.9284 0.24462 0.0
N890 N 0.7312 0.95306 0.28133 0.0
N891 N 0.6385 0.89206 0.20296 0.0
H892 H 0.64119 0.94628 0.26619 0.0
H893 H 0.62478 0.92442 0.23148 0.0
H894 H 0.63747 0.87866 0.18364 0.0
H895 H 0.61963 0.88828 0.2115 0.0
H896 H 0.74778 0.95027 0.27953 0.0
H897 H 0.73123 0.96324 0.30403 0.0
H898 H 0.75338 0.94457 0.22684 0.0
H899 H 0.7359 0.92006 0.19488 0.0
C900 C 0.09265 0.77733 0.25797 0.0
C901 C 0.08982 0.75164 0.26449 0.0
C902 C 0.12071 0.75859 0.21589 0.0
C903 C 0.12069 0.78254 0.20661 0.0
N904 N 0.1044 0.81351 0.21622 0.0
N905 N 0.09791 0.71587 0.24665 0.0
C906 C 0.10615 0.79169 0.22705 0.0
C907 C 0.10315 0.7418 0.24282 0.0
N908 N 0.08331 0.78844 0.28195 0.0
N909 N 0.13778 0.75209 0.19912 0.0
H910 H 0.08464 0.70259 0.26541 0.0
H911 H 0.10473 0.70664 0.22916 0.0
H912 H 0.1509 0.76399 0.17924 0.0
H913 H 0.14076 0.73639 0.20706 0.0
H914 H 0.08727 0.80825 0.28046 0.0
H915 H 0.07369 0.77873 0.30516 0.0
H916 H 0.09149 0.81919 0.22765 0.0
H917 H 0.11446 0.8249 0.19415 0.0
C918 C 0.26425 0.35605 0.26447 0.0
C919 C 0.2737 0.33741 0.26471 0.0
C920 C 0.24723 0.31632 0.21147 0.0
C921 C 0.24209 0.33798 0.20782 0.0
N922 N 0.24869 0.38063 0.22914 0.0
N923 N 0.27625 0.30108 0.23626 0.0
C924 C 0.25115 0.35832 0.23404 0.0
C925 C 0.26546 0.31759 0.23789 0.0
N926 N 0.26715 0.37112 0.2937 0.0
N927 N 0.2346 0.29451 0.18964 0.0
H928 H 0.29012 0.30169 0.25451 0.0
H929 H 0.27326 0.28837 0.21509 0.0
H930 H 0.22097 0.29296 0.17028 0.0
H931 H 0.23554 0.27696 0.193 0.0
H932 H 0.25835 0.38314 0.29613 0.0
H933 H 0.27573 0.36929 0.31697 0.0
H934 H 0.25781 0.39745 0.24554 0.0
H935 H 0.23953 0.38343 0.20716 0.0
C936 C 0.25477 0.3371 0.42517 0.0
C937 C 0.28296 0.35578 0.42515 0.0
C938 C 0.2777 0.37638 0.47876 0.0
C939 C 0.25076 0.35468 0.48209 0.0
N940 N 0.2144 0.3123 0.46016 0.0
N941 N 0.32205 0.39195 0.45392 0.0
C942 C 0.23935 0.33459 0.45558 0.0
C943 C 0.29465 0.37539 0.45222 0.0
N944 N 0.24258 0.32222 0.39577 0.0
N945 N 0.28699 0.39797 0.50098 0.0
H946 H 0.3353 0.39159 0.4355 0.0
H947 H 0.33185 0.40449 0.47525 0.0
H948 H 0.27492 0.39931 0.52046 0.0
H949 H 0.30558 0.41555 0.49788 0.0
H950 H 0.2217 0.31019 0.39317 0.0
H951 H 0.25308 0.3242 0.37254 0.0
H952 H 0.20657 0.29561 0.44352 0.0
H953 H 0.20238 0.30936 0.4821 0.0
C954 C 0.65166 0.92951 0.46115 0.0
C955 C 0.66922 0.93514 0.43209 0.0
C956 C 0.68791 0.90938 0.45966 0.0
C957 C 0.66948 0.90263 0.48794 0.0
N958 N 0.6289 0.89996 0.51048 0.0
N959 N 0.69673 0.92217 0.39858 0.0
C960 C 0.64965 0.91057 0.48687 0.0
C961 C 0.68504 0.92245 0.42972 0.0
N962 N 0.63818 0.94335 0.46554 0.0
N963 N 0.70916 0.90489 0.46197 0.0
H964 H 0.69387 0.93016 0.37544 0.0
H965 H 0.70648 0.91114 0.39481 0.0
H966 H 0.71276 0.89613 0.48372 0.0
H967 H 0.7247 0.91225 0.44355 0.0
H968 H 0.62742 0.942 0.48822 0.0
H969 H 0.63975 0.95809 0.44813 0.0
H970 H 0.61253 0.90314 0.50906 0.0
H971 H 0.62673 0.88573 0.52925 0.0
C972 C 0.10546 0.77638 0.43118 0.0
C973 C 0.09401 0.74792 0.43146 0.0
C974 C 0.11788 0.75165 0.48649 0.0
C975 C 0.12493 0.77911 0.48935 0.0
N976 N 0.12167 0.81671 0.46627 0.0
N977 N 0.08628 0.70783 0.46259 0.0
C978 C 0.11789 0.79136 0.46209 0.0
C979 C 0.09961 0.73532 0.45978 0.0
N980 N 0.10525 0.78929 0.40109 0.0
N981 N 0.12877 0.74123 0.50923 0.0
H982 H 0.07176 0.69495 0.44465 0.0
H983 H 0.08763 0.69784 0.48468 0.0
H984 H 0.14257 0.75283 0.52875 0.0
H985 H 0.12628 0.72203 0.50639 0.0
H986 H 0.11553 0.81024 0.39871 0.0
H987 H 0.09756 0.77922 0.37735 0.0
H988 H 0.1141 0.82524 0.4487 0.0
H989 H 0.13012 0.82832 0.48875 0.0
C990 C 0.33013 0.08791 0.76606 0.0
C991 C 0.35325 0.08544 0.75968 0.0
C992 C 0.3774 0.11774 0.80696 0.0
C993 C 0.35317 0.11713 0.81657 0.0
N994 N 0.30544 0.09928 0.80783 0.0
N995 N 0.39734 0.09427 0.77845 0.0
C996 C 0.32923 0.10166 0.79673 0.0
C997 C 0.37658 0.0995 0.78114 0.0
N998 N 0.30947 0.07805 0.7422 0.0
N999 N 0.40129 0.13597 0.82239 0.0
H1000 H 0.39715 0.08011 0.76111 0.0
H1001 H 0.4135 0.10186 0.79598 0.0
H1002 H 0.40266 0.14981 0.84125 0.0
H1003 H 0.41998 0.13918 0.81398 0.0
H1004 H 0.29339 0.08165 0.74372 0.0
H1005 H 0.30968 0.06848 0.71902 0.0
H1006 H 0.28678 0.08581 0.79676 0.0
H1007 H 0.30409 0.10938 0.82982 0.0
C1008 C 0.92082 0.26167 0.76088 0.0
C1009 C 0.94928 0.2727 0.76149 0.0
C1010 C 0.94471 0.24793 0.81595 0.0
C1011 C 0.91731 0.24121 0.81857 0.0
N1012 N 0.88013 0.24521 0.79537 0.0
N1013 N 0.98893 0.27941 0.79304 0.0
C1014 C 0.90547 0.24885 0.79142 0.0
C1015 C 0.96144 0.26645 0.78976 0.0
N1016 N 0.90826 0.26257 0.73079 0.0
N1017 N 0.9547 0.23651 0.83849 0.0
H1018 H 1.00209 0.29416 0.7756 0.0
H1019 H 0.99864 0.27756 0.81513 0.0
H1020 H 0.9428 0.22255 0.85764 0.0
H1021 H 0.97383 0.23874 0.83579 0.0
H1022 H 0.88731 0.25261 0.72808 0.0
H1023 H 0.91855 0.27055 0.7073 0.0
H1024 H 0.87189 0.25323 0.77803 0.0
H1025 H 0.8682 0.23629 0.81745 0.0
C1026 C 0.77899 0.69916 0.76761 0.0
C1027 C 0.75292 0.67657 0.76145 0.0
C1028 C 0.75978 0.65218 0.80954 0.0
C1029 C 0.78408 0.676 0.81867 0.0
N1030 N 0.81556 0.72331 0.80906 0.0
N1031 N 0.71667 0.63289 0.77961 0.0
C1032 C 0.79346 0.6998 0.79832 0.0
C1033 C 0.74287 0.65329 0.78304 0.0
N1034 N 0.79037 0.71955 0.7435 0.0
N1035 N 0.75303 0.62845 0.82609 0.0
H1036 H 0.70329 0.63328 0.76135 0.0
H1037 H 0.70739 0.61674 0.79701 0.0
H1038 H 0.76507 0.62699 0.84559 0.0
H1039 H 0.73697 0.60985 0.81826 0.0
H1040 H 0.81039 0.73513 0.74478 0.0
H1041 H 0.78066 0.71958 0.72031 0.0
H1042 H 0.82138 0.74197 0.79768 0.0
H1043 H 0.827 0.72457 0.83106 0.0
C1044 C 0.76159 0.6616 0.59028 0.0
C1045 C 0.75743 0.68373 0.59598 0.0
C1046 C 0.78913 0.70867 0.54846 0.0
C1047 C 0.79013 0.68516 0.53962 0.0
N1048 N 0.77486 0.63802 0.54942 0.0
N1049 N 0.76458 0.72724 0.5779 0.0
C1050 C 0.77583 0.66131 0.55993 0.0
C1051 C 0.77069 0.70713 0.5746 0.0
N1052 N 0.75276 0.6413 0.6145 0.0
N1053 N 0.806 0.73252 0.532 0.0
H1054 H 0.75072 0.72665 0.59613 0.0
H1055 H 0.77139 0.74339 0.56053 0.0
H1056 H 0.81977 0.73425 0.51279 0.0
H1057 H 0.80816 0.75095 0.53961 0.0
H1058 H 0.75766 0.6261 0.61356 0.0
H1059 H 0.74279 0.64108 0.63752 0.0
H1060 H 0.76209 0.61929 0.56076 0.0
H1061 H 0.78528 0.63696 0.52762 0.0
C1062 C 0.37566 0.09427 0.5665 0.0
C1063 C 0.35842 0.08842 0.59601 0.0
C1064 C 0.33801 0.11263 0.56832 0.0
C1065 C 0.35638 0.11985 0.53989 0.0
N1066 N 0.3975 0.12393 0.51703 0.0
N1067 N 0.32939 0.09946 0.62939 0.0
C1068 C 0.37687 0.11282 0.5408 0.0
C1069 C 0.34148 0.09989 0.5983 0.0
N1070 N 0.38954 0.08087 0.56159 0.0
N1071 N 0.31641 0.11658 0.56617 0.0
H1072 H 0.33251 0.0916 0.65247 0.0
H1073 H 0.31884 0.10969 0.63321 0.0
H1074 H 0.31273 0.12545 0.54459 0.0
H1075 H 0.30084 0.10886 0.58456 0.0
H1076 H 0.40014 0.08246 0.53866 0.0
H1077 H 0.38822 0.06601 0.57858 0.0
H1078 H 0.4143 0.12143 0.5184 0.0
H1079 H 0.39914 0.13792 0.49821 0.0
C1080 C 0.95369 0.2607 0.57589 0.0
C1081 C 0.94534 0.27635 0.59538 0.0
C1082 C 0.906 0.26115 0.55649 0.0
C1083 C 0.91348 0.24417 0.53864 0.0
N1084 N 0.94082 0.22312 0.53624 0.0
N1085 N 0.91071 0.28721 0.60891 0.0
C1086 C 0.93617 0.24244 0.55002 0.0
C1087 C 0.92066 0.2754 0.58701 0.0
N1088 N 0.97903 0.26439 0.58058 0.0
N1089 N 0.88548 0.26433 0.54364 0.0
H1090 H 0.92059 0.29738 0.63181 0.0
H1091 H 0.89154 0.28485 0.60614 0.0
H1092 H 0.87393 0.25373 0.52188 0.0
H1093 H 0.88112 0.27879 0.55304 0.0
H1094 H 0.98722 0.25565 0.56446 0.0
H1095 H 0.99303 0.27834 0.59821 0.0
H1096 H 0.95542 0.21908 0.54603 0.0
H1097 H 0.92834 0.20933 0.51727 0.0
C1098 C 0.36734 0.26804 0.59153 0.0
C1099 C 0.34554 0.27279 0.59677 0.0
C1100 C 0.32089 0.24219 0.54816 0.0
C1101 C 0.3442 0.24067 0.5398 0.0
N1102 N 0.39103 0.25482 0.55078 0.0
N1103 N 0.3031 0.26765 0.57684 0.0
C1104 C 0.36781 0.25419 0.56085 0.0
C1105 C 0.32256 0.26056 0.57442 0.0
N1106 N 0.38712 0.27589 0.61642 0.0
N1107 N 0.2971 0.2259 0.53111 0.0
H1108 H 0.30404 0.28185 0.59475 0.0
H1109 H 0.28736 0.26148 0.55885 0.0
H1110 H 0.29522 0.21212 0.51183 0.0
H1111 H 0.27876 0.22418 0.5384 0.0
H1112 H 0.40199 0.2705 0.61567 0.0
H1113 H 0.38718 0.28551 0.63969 0.0
H1114 H 0.40964 0.26702 0.56283 0.0
H1115 H 0.39223 0.24475 0.52867 0.0
C1116 C 0.77331 0.07158 0.57686 0.0
C1117 C 0.75972 0.08153 0.59783 0.0
C1118 C 0.77706 0.12177 0.56069 0.0
C1119 C 0.79157 0.11238 0.54064 0.0
N1120 N 0.80831 0.08162 0.53374 0.0
N1121 N 0.75398 0.11883 0.61517 0.0
C1122 C 0.79127 0.08831 0.55016 0.0
C1123 C 0.76317 0.10746 0.59137 0.0
N1124 N 0.76794 0.04564 0.58109 0.0
N1125 N 0.77555 0.14367 0.54961 0.0
H1126 H 0.74417 0.10922 0.63835 0.0
H1127 H 0.75837 0.13879 0.6137 0.0
H1128 H 0.7858 0.15506 0.52763 0.0
H1129 H 0.76258 0.14941 0.56071 0.0
H1130 H 0.77498 0.03632 0.5641 0.0
H1131 H 0.75447 0.03249 0.59979 0.0
H1132 H 0.81101 0.06575 0.54175 0.0
H1133 H 0.82166 0.09353 0.51405 0.0
C1134 C 0.93149 0.69053 0.59884 0.0
C1135 C 0.93988 0.67109 0.6002 0.0
C1136 C 0.91384 0.64992 0.54678 0.0
C1137 C 0.90958 0.67208 0.54226 0.0
N1138 N 0.91701 0.71535 0.56217 0.0
N1139 N 0.94092 0.63326 0.57402 0.0
C1140 C 0.91885 0.69278 0.56798 0.0
C1141 C 0.93126 0.65076 0.57406 0.0
N1142 N 0.93503 0.70641 0.62742 0.0
N1143 N 0.90111 0.62808 0.52502 0.0
H1144 H 0.95393 0.63334 0.59326 0.0
H1145 H 0.93777 0.62004 0.55342 0.0
H1146 H 0.88813 0.62692 0.50494 0.0
H1147 H 0.90135 0.61022 0.52892 0.0
H1148 H 0.92693 0.71909 0.62916 0.0
H1149 H 0.94353 0.70477 0.65089 0.0
H1150 H 0.92636 0.73241 0.57814 0.0
H1151 H 0.90804 0.71805 0.5399 0.0
C1152 C 0.9208 0.67038 0.7625 0.0
C1153 C 0.94874 0.6899 0.76167 0.0
C1154 C 0.94324 0.71113 0.81447 0.0
C1155 C 0.91666 0.68892 0.81857 0.0
N1156 N 0.88087 0.6456 0.79829 0.0
N1157 N 0.98741 0.72797 0.78825 0.0
C1158 C 0.90548 0.66817 0.79288 0.0
C1159 C 0.96018 0.71033 0.78774 0.0
N1160 N 0.90875 0.65438 0.73386 0.0
N1161 N 0.95215 0.73299 0.83613 0.0
H1162 H 1.00056 0.72792 0.76939 0.0
H1163 H 0.9973 0.74129 0.80886 0.0
H1164 H 0.94008 0.73411 0.8558 0.0
H1165 H 0.97038 0.75088 0.83251 0.0
H1166 H 0.88793 0.64164 0.73166 0.0
H1167 H 0.91919 0.65597 0.71073 0.0
H1168 H 0.8733 0.62849 0.78246 0.0
H1169 H 0.86886 0.64297 0.82014 0.0
C1170 C 0.37737 0.28711 0.78231 0.0
C1171 C 0.35369 0.27682 0.76136 0.0
C1172 C 0.3313 0.23638 0.79829 0.0
C1173 C 0.35542 0.24604 0.81812 0.0
N1174 N 0.40305 0.27743 0.82467 0.0
N1175 N 0.31063 0.2391 0.74406 0.0
C1176 C 0.37902 0.27042 0.80864 0.0
C1177 C 0.33136 0.25068 0.76777 0.0
N1178 N 0.39767 0.31328 0.7784 0.0
N1179 N 0.30804 0.21418 0.80939 0.0
H1180 H 0.31019 0.24869 0.72099 0.0
H1181 H 0.29519 0.21904 0.7455 0.0
H1182 H 0.3072 0.20287 0.8313 0.0
H1183 H 0.28916 0.20812 0.79841 0.0
H1184 H 0.41405 0.32276 0.79548 0.0
H1185 H 0.39705 0.32642 0.75997 0.0
H1186 H 0.42149 0.29356 0.81655 0.0
H1187 H 0.40491 0.26558 0.84404 0.0
C1188 C 0.78149 0.08995 0.76948 0.0
C1189 C 0.75512 0.08547 0.76309 0.0
C1190 C 0.76083 0.11671 0.81061 0.0
C1191 C 0.78551 0.11819 0.82002 0.0
N1192 N 0.81799 0.10361 0.8113 0.0
N1193 N 0.71785 0.09127 0.78079 0.0
C1194 C 0.79559 0.10422 0.80014 0.0
C1195 C 0.74432 0.09813 0.78433 0.0
N1196 N 0.79345 0.08142 0.74567 0.0
N1197 N 0.75334 0.13327 0.82666 0.0
H1198 H 0.70475 0.07697 0.76277 0.0
H1199 H 0.70813 0.09776 0.79796 0.0
H1200 H 0.7651 0.14719 0.84597 0.0
H1201 H 0.73691 0.13504 0.81856 0.0
H1202 H 0.81367 0.0866 0.74714 0.0
H1203 H 0.78399 0.07135 0.72253 0.0
H1204 H 0.82435 0.09113 0.80021 0.0
H1205 H 0.82912 0.11402 0.8334 0.0
C1206 C 0.07653 0.3326 0.0479 0.0
C1207 C 0.08113 0.35898 0.04109 0.0
C1208 C 0.12637 0.37875 0.06749 0.0
C1209 C 0.12048 0.35255 0.07771 0.0
N1210 N 0.09391 0.30457 0.07123 0.0
N1211 N 0.11243 0.40693 0.03679 0.0
C1212 C 0.09684 0.32944 0.06539 0.0
C1213 C 0.10689 0.38198 0.04797 0.0
N1214 N 0.05246 0.31072 0.03817 0.0
N1215 N 0.14988 0.4006 0.07883 0.0
H1216 H 0.09831 0.4105 0.02441 0.0
H1217 H 0.13152 0.42407 0.03779 0.0
H1218 H 0.16495 0.39864 0.09161 0.0
H1219 H 0.15434 0.42051 0.07665 0.0
H1220 H 0.04638 0.29089 0.04488 0.0
H1221 H 0.03813 0.31246 0.0232 0.0
H1222 H 0.07788 0.28653 0.06203 0.0
H1223 H 0.10886 0.30223 0.08368 0.0
C1224 C 0.69583 0.75741 0.04245 0.0
C1225 C 0.6699 0.73409 0.03935 0.0
C1226 C 0.64967 0.7563 0.0722 0.0
C1227 C 0.6759 0.77858 0.0781 0.0
N1228 N 0.72273 0.80403 0.06205 0.0
N1229 N 0.62154 0.71332 0.04281 0.0
C1230 C 0.69857 0.7804 0.06055 0.0
C1231 C 0.64655 0.73433 0.05121 0.0
N1232 N 0.71783 0.75698 0.02935 0.0
N1233 N 0.62808 0.75562 0.08848 0.0
H1234 H 0.61881 0.69688 0.02785 0.0
H1235 H 0.60356 0.71295 0.04828 0.0
H1236 H 0.62985 0.77205 0.10259 0.0
H1237 H 0.60874 0.73882 0.08896 0.0
H1238 H 0.73773 0.77198 0.03384 0.0
H1239 H 0.71609 0.74088 0.0145 0.0
H1240 H 0.73988 0.80765 0.04821 0.0
H1241 H 0.72497 0.82099 0.07525 0.0
C1242 C 0.27569 0.94934 0.0412 0.0
C1243 C 0.29921 0.94705 0.03962 0.0
C1244 C 0.2749 0.90311 0.06923 0.0
C1245 C 0.25361 0.9081 0.07683 0.0
N1246 N 0.2322 0.93459 0.06882 0.0
N1247 N 0.32175 0.92189 0.0522 0.0
C1248 C 0.2533 0.93056 0.06174 0.0
C1249 C 0.29878 0.92362 0.05284 0.0
N1250 N 0.27487 0.96945 0.02293 0.0
N1251 N 0.27237 0.87895 0.07865 0.0
H1252 H 0.33966 0.93635 0.04044 0.0
H1253 H 0.32371 0.90702 0.06526 0.0
H1254 H 0.25508 0.86387 0.091 0.0
H1255 H 0.28604 0.87287 0.07142 0.0
H1256 H 0.25765 0.97111 0.02055 0.0
H1257 H 0.29096 0.98329 0.0075 0.0
H1258 H 0.23202 0.95217 0.06251 0.0
H1259 H 0.21502 0.9204 0.08231 0.0
C1260 C 0.33966 0.07599 0.97967 0.0
C1261 C 0.36546 0.07832 0.98234 0.0
C1262 C 0.38599 0.12271 0.95383 0.0
C1263 C 0.35986 0.11781 0.94518 0.0
N1264 N 0.31163 0.09116 0.95108 0.0
N1265 N 0.41358 0.10371 0.97186 0.0
C1266 C 0.33662 0.09508 0.95915 0.0
C1267 C 0.38888 0.10196 0.97021 0.0
N1268 N 0.31819 0.05556 0.99692 0.0
N1269 N 0.40799 0.14701 0.94544 0.0
H1270 H 0.4167 0.08908 0.98365 0.0
H1271 H 0.43081 0.11879 0.95957 0.0
H1272 H 0.40619 0.16229 0.93306 0.0
H1273 H 0.42758 0.15298 0.95354 0.0
H1274 H 0.29924 0.05382 0.9985 0.0
H1275 H 0.32002 0.04148 0.01232 0.0
H1276 H 0.29363 0.07348 0.95653 0.0
H1277 H 0.30904 0.10559 0.93763 0.0
C1278 C 0.92888 0.29686 0.97114 0.0
C1279 C 0.9514 0.29585 0.98495 0.0
C1280 C 0.93343 0.25 0.96235 0.0
C1281 C 0.91209 0.25187 0.94615 0.0
N1282 N 0.88498 0.27289 0.94242 0.0
N1283 N 0.97191 0.26991 0.0022 0.0
C1284 C 0.90822 0.27391 0.95334 0.0
C1285 C 0.9525 0.27175 0.9835 0.0
N1286 N 0.92812 0.32029 0.97334 0.0
N1287 N 0.93621 0.22809 0.95569 0.0
H1288 H 0.986 0.28569 0.01785 0.0
H1289 H 0.9728 0.25229 0.00457 0.0
H1290 H 0.9218 0.21139 0.94161 0.0
H1291 H 0.95298 0.22669 0.963 0.0
H1292 H 0.91404 0.32356 0.96029 0.0
H1293 H 0.94246 0.33715 0.98721 0.0
H1294 H 0.87971 0.28728 0.94889 0.0
H1295 H 0.86976 0.25619 0.92921 0.0
C1296 C 0.73765 0.64642 0.97689 0.0
C1297 C 0.7356 0.6697 0.98409 0.0
C1298 C 0.7812 0.69875 0.96014 0.0
C1299 C 0.78111 0.67544 0.94766 0.0
N1300 N 0.76154 0.62733 0.9463 0.0
N1301 N 0.75651 0.71799 0.98831 0.0
C1302 C 0.76032 0.64934 0.95764 0.0
C1303 C 0.75794 0.69593 0.97779 0.0
N1304 N 0.71761 0.62152 0.9875 0.0
N1305 N 0.80348 0.72346 0.95421 0.0
H1306 H 0.74055 0.71637 0.00337 0.0
H1307 H 0.77085 0.73785 0.9825 0.0
H1308 H 0.82067 0.72553 0.94178 0.0
H1309 H 0.80584 0.74167 0.96304 0.0
H1310 H 0.71895 0.60411 0.98621 0.0
H1311 H 0.69991 0.61819 -0.00041 0.0
H1312 H 0.74581 0.60749 0.94837 0.0
H1313 H 0.77852 0.62907 0.93371 0.0
C1314 C 0.95055 0.68751 0.98334 0.0
C1315 C 0.95009 0.66256 0.98142 0.0
C1316 C 0.90713 0.64287 0.94911 0.0
C1317 C 0.91065 0.66899 0.94504 0.0
N1318 N 0.93462 0.71627 0.95915 0.0
N1319 N 0.92805 0.61611 0.96214 0.0
C1320 C 0.93177 0.69127 0.96308 0.0
C1321 C 0.92803 0.63988 0.96498 0.0
N1322 N 0.96884 0.70745 0.00484 0.0
N1323 N 0.884 0.62109 0.93689 0.0
H1324 H 0.94293 0.61299 0.97315 0.0
H1325 H 0.91429 0.59992 0.94689 0.0
H1326 H 0.86866 0.62307 0.92492 0.0
H1327 H 0.87888 0.60117 0.94151 0.0
H1328 H 0.96892 0.72536 0.00977 0.0
H1329 H 0.98246 0.70497 0.02039 0.0
H1330 H 0.95143 0.73402 0.96772 0.0
H1331 H 0.92037 0.71928 0.94591 0.0
C1332 C 0.38562 0.29116 0.97842 0.0
C1333 C 0.36215 0.29294 0.98535 0.0
C1334 C 0.33369 0.24794 0.95951 0.0
C1335 C 0.35726 0.24851 0.9471 0.0
N1336 N 0.40555 0.26879 0.94621 0.0
N1337 N 0.31371 0.27229 0.98656 0.0
C1338 C 0.3832 0.26924 0.95788 0.0
C1339 C 0.33607 0.27086 0.97752 0.0
N1340 N 0.41025 0.31076 0.99055 0.0
N1341 N 0.30913 0.22552 0.95332 0.0
H1342 H 0.31484 0.28797 0.00177 0.0
H1343 H 0.29414 0.25842 0.97871 0.0
H1344 H 0.30731 0.20863 0.94036 0.0
H1345 H 0.2909 0.22265 0.963 0.0
H1346 H 0.42769 0.30943 0.98945 0.0
H1347 H 0.41317 0.32787 0.00391 0.0
H1348 H 0.42525 0.28475 0.94883 0.0
H1349 H 0.40424 0.25237 0.93261 0.0
C1350 C 0.74364 0.10483 0.98495 0.0
C1351 C 0.7393 0.07823 0.98832 0.0
C1352 C 0.78251 0.09244 0.95872 0.0
C1353 C 0.78385 0.11692 0.94923 0.0
N1354 N 0.76704 0.1477 0.95403 0.0
N1355 N 0.75495 0.04664 0.98004 0.0
C1356 C 0.76519 0.1238 0.96337 0.0
C1357 C 0.75911 0.07215 0.97616 0.0
N1358 N 0.72675 0.1117 0.00143 0.0
N1359 N 0.80353 0.08862 0.95028 0.0
H1360 H 0.7386 0.03167 0.99389 0.0
H1361 H 0.76688 0.03988 0.96831 0.0
H1362 H 0.82076 0.10343 0.93748 0.0
H1363 H 0.8051 0.07215 0.95857 0.0
H1364 H 0.73032 0.13136 0.00281 0.0
H1365 H 0.71009 0.09811 0.01612 0.0
H1366 H 0.75222 0.15264 0.95933 0.0
H1367 H 0.78321 0.16238 0.93952 0.0
C1368 C 0.70452 0.96002 0.05474 0.0
C1369 C 0.67818 0.95382 0.04421 0.0
C1370 C 0.65942 0.90781 0.06723 0.0
C1371 C 0.68544 0.91476 0.07985 0.0
N1372 N 0.73347 0.94355 0.07706 0.0
N1373 N 0.63174 0.92014 0.03234 0.0
C1374 C 0.70828 0.93958 0.07033 0.0
C1375 C 0.65607 0.92701 0.04735 0.0
N1376 N 0.72571 0.98574 0.05111 0.0
N1377 N 0.63767 0.88358 0.07656 0.0
H1378 H 0.62802 0.93387 0.01917 0.0
H1379 H 0.61571 0.90039 0.03067 0.0
H1380 H 0.63968 0.86874 0.08979 0.0
H1381 H 0.61768 0.87849 0.07253 0.0
H1382 H 0.74479 0.99246 0.06177 0.0
H1383 H 0.72383 1.00089 0.03866 0.0
H1384 H 0.75127 0.96033 0.06859 0.0
H1385 H 0.73631 0.9286 0.08851 0.0
C1386 C 0.07316 0.75524 0.04925 0.0
C1387 C 0.07913 0.73502 0.03889 0.0
C1388 C 0.12447 0.76095 0.06456 0.0
C1389 C 0.11762 0.77994 0.07751 0.0
N1390 N 0.08936 0.79969 0.07504 0.0
N1391 N 0.11226 0.72159 0.02828 0.0
C1392 C 0.09323 0.77862 0.06712 0.0
C1393 C 0.10554 0.73905 0.04341 0.0
N1394 N 0.048 0.75153 0.0429 0.0
N1395 N 0.14828 0.76283 0.07469 0.0
H1396 H 0.09863 0.70475 0.01383 0.0
H1397 H 0.13182 0.72478 0.0277 0.0
H1398 H 0.16299 0.7792 0.08891 0.0
H1399 H 0.15315 0.74785 0.07034 0.0
H1400 H 0.04109 0.76385 0.05291 0.0
H1401 H 0.03357 0.73541 0.02804 0.0
H1402 H 0.07287 0.80118 0.06659 0.0
H1403 H 0.10406 0.81693 0.08797 0.0
C1404 C 0.27531 0.33591 0.04479 0.0
C1405 C 0.29935 0.3614 0.04254 0.0
C1406 C 0.2781 0.38238 0.07606 0.0
C1407 C 0.25498 0.35653 0.08081 0.0
N1408 N 0.22827 0.31019 0.06325 0.0
N1409 N 0.32203 0.40982 0.04878 0.0
C1410 C 0.25248 0.3338 0.06269 0.0
C1411 C 0.30007 0.38502 0.05545 0.0
N1412 N 0.27477 0.31369 0.03075 0.0
N1413 N 0.27953 0.40403 0.09318 0.0
H1414 H 0.33895 0.41246 0.03513 0.0
H1415 H 0.32298 0.42799 0.0547 0.0
H1416 H 0.26317 0.40275 0.10695 0.0
H1417 H 0.29686 0.42294 0.09477 0.0
H1418 H 0.25917 0.29398 0.03458 0.0
H1419 H 0.29059 0.31495 0.01572 0.0
H1420 H 0.22412 0.29309 0.04889 0.0
H1421 H 0.2114 0.30841 0.07621 0.0
C1422 C 0.74323 0.66337 0.38279 0.0
C1423 C 0.74904 0.68948 0.37214 0.0
C1424 C 0.79467 0.70935 0.39693 0.0
C1425 C 0.78791 0.68365 0.41046 0.0
N1426 N 0.7597 0.63553 0.40902 0.0
N1427 N 0.78196 0.73607 0.36062 0.0
C1428 C 0.76347 0.66036 0.40058 0.0
C1429 C 0.77548 0.71202 0.37605 0.0
N1430 N 0.71807 0.64173 0.37681 0.0
N1431 N 0.81871 0.73141 0.40629 0.0
H1432 H 0.76814 0.73903 0.3463 0.0
H1433 H 0.80147 0.7526 0.35971 0.0
H1434 H 0.83355 0.72982 0.42023 0.0
H1435 H 0.82369 0.75125 0.40145 0.0
H1436 H 0.71129 0.62253 0.38697 0.0
H1437 H 0.7035 0.6432 0.36204 0.0
H1438 H 0.74314 0.61736 0.40107 0.0
H1439 H 0.77454 0.63324 0.42192 0.0
C1440 C 0.35566 0.08763 0.3746 0.0
C1441 C 0.33076 0.06295 0.37538 0.0
C1442 C 0.31015 0.08485 0.40816 0.0
C1443 C 0.33615 0.10754 0.41332 0.0
N1444 N 0.38369 0.13198 0.40042 0.0
N1445 N 0.28383 0.0375 0.39263 0.0
C1446 C 0.35885 0.1096 0.39554 0.0
C1447 C 0.30763 0.06154 0.3913 0.0
N1448 N 0.37612 0.08994 0.35371 0.0
N1449 N 0.28807 0.08557 0.42024 0.0
H1450 H 0.28099 0.01997 0.3805 0.0
H1451 H 0.26729 0.03438 0.40757 0.0
H1452 H 0.28974 0.10251 0.43287 0.0
H1453 H 0.26824 0.07068 0.41495 0.0
H1454 H 0.39408 0.10799 0.34959 0.0
H1455 H 0.3741 0.07414 0.33792 0.0
H1456 H 0.40169 0.13351 0.39198 0.0
H1457 H 0.38631 0.14885 0.41426 0.0
C1458 C 0.94146 0.28308 0.37535 0.0
C1459 C 0.96526 0.28131 0.37329 0.0
C1460 C 0.9417 0.23704 0.40227 0.0
C1461 C 0.92007 0.24143 0.41027 0.0
N1462 N 0.89778 0.26717 0.40307 0.0
N1463 N 0.98856 0.25674 0.38477 0.0
C1464 C 0.91925 0.26378 0.3957 0.0
C1465 C 0.96534 0.25798 0.38593 0.0
N1466 N 0.94021 0.30319 0.35768 0.0
N1467 N 0.93973 0.21304 0.41125 0.0
H1468 H 1.0063 0.27148 0.37298 0.0
H1469 H 0.99093 0.24196 0.39742 0.0
H1470 H 0.92267 0.19766 0.4236 0.0
H1471 H 0.95365 0.20739 0.40366 0.0
H1472 H 0.92278 0.30452 0.35564 0.0
H1473 H 0.95617 0.31742 0.34243 0.0
H1474 H 0.89716 0.28458 0.39719 0.0
H1475 H 0.88073 0.25256 0.41636 0.0
C1476 C 1.00778 0.41299 0.31513 0.0
C1477 C 0.03323 0.41449 0.31691 0.0
C1478 C 0.05437 0.45875 0.2879 0.0
C1479 C 0.02839 0.45456 0.28007 0.0
N1480 N 0.98018 0.42901 0.28739 0.0
N1481 N 0.08122 0.43874 0.3053 0.0
C1482 C 1.00505 0.43233 0.29477 0.0
C1483 C 0.05683 0.4377 0.3042 0.0
N1484 N 0.98633 0.39311 0.33307 0.0
N1485 N 0.07658 0.48267 0.27884 0.0
H1486 H 0.08399 0.42389 0.31706 0.0
H1487 H 0.09848 0.45348 0.2927 0.0
H1488 H 0.07496 0.49812 0.26665 0.0
H1489 H 0.09621 0.48819 0.28618 0.0
H1490 H 0.96772 0.39206 0.33536 0.0
H1491 H 0.98793 0.37884 0.34834 0.0
H1492 H 0.96205 0.4116 0.29328 0.0
H1493 H 0.97778 0.44357 0.27403 0.0
C1494 C 0.6203 0.60702 0.31533 0.0
C1495 C 0.61941 0.63133 0.31519 0.0
C1496 C 0.57568 0.60797 0.28466 0.0
C1497 C 0.57951 0.58576 0.27863 0.0
N1498 N 0.60433 0.56287 0.28915 0.0
N1499 N 0.59641 0.65546 0.29909 0.0
C1500 C 0.60124 0.58469 0.2949 0.0
C1501 C 0.59679 0.6318 0.30048 0.0
N1502 N 0.63925 0.60533 0.33529 0.0
N1503 N 0.55207 0.60636 0.27427 0.0
H1504 H 0.61146 0.67347 0.30996 0.0
H1505 H 0.58213 0.6578 0.28501 0.0
H1506 H 0.53657 0.58912 0.26229 0.0
H1507 H 0.5468 0.62081 0.28045 0.0
H1508 H 0.63974 0.58758 0.3389 0.0
H1509 H 0.65308 0.62127 0.35097 0.0
H1510 H 0.62147 0.56209 0.29638 0.0
H1511 H 0.5899 0.54575 0.27576 0.0
C1512 C 0.40525 0.98004 0.31373 0.0
C1513 C 0.40183 1.00276 0.31845 0.0
C1514 C 0.44634 0.03211 0.29184 0.0
C1515 C 0.44728 0.00888 0.28144 0.0
N1516 N 0.42943 0.96099 0.28391 0.0
N1517 N 0.41993 0.05081 0.31609 0.0
C1518 C 0.4276 0.98297 0.2937 0.0
C1519 C 0.42286 0.02902 0.30913 0.0
N1520 N 0.3868 0.95558 0.32752 0.0
N1521 N 0.46789 0.05699 0.28448 0.0
H1522 H 0.40388 0.04935 0.33082 0.0
H1523 H 0.43289 0.07022 0.30692 0.0
H1524 H 0.48519 0.05934 0.27204 0.0
H1525 H 0.4697 0.07511 0.29277 0.0
H1526 H 0.38943 0.9389 0.32809 0.0
H1527 H 0.36944 0.95222 0.34066 0.0
H1528 H 0.41422 0.94109 0.28768 0.0
H1529 H 0.4462 0.96274 0.2707 0.0
C1530 C 0.61262 0.01824 0.32334 0.0
C1531 C 0.61261 0.99354 0.32118 0.0
C1532 C 0.57174 0.97424 0.28462 0.0
C1533 C 0.57497 1.00029 0.28125 0.0
N1534 N 0.59664 0.04688 0.29867 0.0
N1535 N 0.59132 0.94709 0.30291 0.0
C1536 C 0.59448 0.02211 0.30173 0.0
C1537 C 0.59157 0.97108 0.30322 0.0
N1538 N 0.63041 0.03808 0.34536 0.0
N1539 N 0.54988 0.95275 0.26943 0.0
H1540 H 0.6046 0.94377 0.31803 0.0
H1541 H 0.57865 0.93077 0.28708 0.0
H1542 H 0.53522 0.95486 0.25575 0.0
H1543 H 0.545 0.93278 0.27262 0.0
H1544 H 0.63025 0.05584 0.35036 0.0
H1545 H 0.6442 0.03587 0.36086 0.0
H1546 H 0.61232 0.06454 0.30935 0.0
H1547 H 0.58289 0.04991 0.28419 0.0
C1548 C 0.04859 0.62263 0.31473 0.0
C1549 C 0.02619 0.62655 0.31939 0.0
C1550 C 0.99645 0.58299 0.29101 0.0
C1551 C 0.01954 0.58179 0.28051 0.0
N1552 N 0.06746 0.59906 0.28319 0.0
N1553 N 0.97841 0.60989 0.31548 0.0
C1554 C 0.04552 0.60082 0.29345 0.0
C1555 C 0.99988 0.60629 0.30901 0.0
N1556 N 0.0729 0.64012 0.32985 0.0
N1557 N 0.9714 0.56188 0.28309 0.0
H1558 H 0.98016 0.62594 0.33046 0.0
H1559 H 0.95909 0.59755 0.30545 0.0
H1560 H 0.96878 0.54469 0.27006 0.0
H1561 H 0.95341 0.56029 0.29163 0.0
H1562 H 0.08931 0.637 0.33033 0.0
H1563 H 0.07621 0.65691 0.34438 0.0
H1564 H 0.08739 0.61408 0.28754 0.0
H1565 H 0.06571 0.58275 0.26887 0.0
C1566 C 0.40739 0.43686 0.31343 0.0
C1567 C 0.40494 0.41123 0.3193 0.0
C1568 C 0.44976 0.4275 0.29324 0.0
C1569 C 0.44966 0.45087 0.28149 0.0
N1570 N 0.43031 0.47959 0.28204 0.0
N1571 N 0.42472 0.38284 0.31946 0.0
C1572 C 0.42939 0.45641 0.29297 0.0
C1573 C 0.42667 0.40693 0.31102 0.0
N1574 N 0.38836 0.44221 0.32659 0.0
N1575 N 0.47188 0.42504 0.28657 0.0
H1576 H 0.40892 0.36837 0.33463 0.0
H1577 H 0.43828 0.3769 0.3113 0.0
H1578 H 0.4889 0.44016 0.27378 0.0
H1579 H 0.47436 0.40932 0.29569 0.0
H1580 H 0.39017 0.4612 0.32611 0.0
H1581 H 0.3714 0.42807 0.34035 0.0
H1582 H 0.41464 0.48362 0.28527 0.0
H1583 H 0.44681 0.49471 0.26847 0.0
C1584 C 0.31725 0.2579 0.38028 0.0
C1585 C 0.34063 0.28293 0.37199 0.0
C1586 C 0.36942 0.26799 0.40032 0.0
C1587 C 0.34596 0.24381 0.41062 0.0
N1588 N 0.29878 0.2121 0.40224 0.0
N1589 N 0.38881 0.30866 0.36469 0.0
C1590 C 0.32029 0.23748 0.39743 0.0
C1591 C 0.36673 0.28689 0.37891 0.0
N1592 N 0.29212 0.25437 0.37422 0.0
N1593 N 0.39406 0.27335 0.41261 0.0
H1594 H 0.38706 0.32225 0.34823 0.0
H1595 H 0.40836 0.31187 0.36638 0.0
H1596 H 0.39658 0.25918 0.42682 0.0
H1597 H 0.41169 0.29193 0.40987 0.0
H1598 H 0.27436 0.23798 0.38356 0.0
H1599 H 0.28893 0.26865 0.36155 0.0
H1600 H 0.27991 0.20526 0.39079 0.0
H1601 H 0.3006 0.19702 0.41511 0.0
C1602 C 0.77004 0.07228 0.37303 0.0
C1603 C 0.74262 0.06554 0.37633 0.0
C1604 C 0.7577 0.10801 0.40833 0.0
C1605 C 0.78371 0.11111 0.41205 0.0
N1606 N 0.81538 0.09673 0.39732 0.0
N1607 N 0.71008 0.07693 0.39917 0.0
C1608 C 0.79028 0.09372 0.39357 0.0
C1609 C 0.73635 0.08373 0.39374 0.0
N1610 N 0.77673 0.05834 0.34994 0.0
N1611 N 0.75338 0.12803 0.42009 0.0
H1612 H 0.69359 0.05908 0.39027 0.0
H1613 H 0.70448 0.08801 0.41519 0.0
H1614 H 0.76887 0.14578 0.43116 0.0
H1615 H 0.73554 0.12825 0.41564 0.0
H1616 H 0.79658 0.06372 0.34415 0.0
H1617 H 0.76245 0.0431 0.33382 0.0
H1618 H 0.8204 0.08266 0.38829 0.0
H1619 H 0.83088 0.11284 0.41102 0.0
C1620 C 0.97062 0.72095 0.39531 0.0
C1621 C 0.96968 0.69832 0.3785 0.0
C1622 C 0.92269 0.66954 0.39744 0.0
C1623 C 0.92416 0.6918 0.41568 0.0
N1624 N 0.94576 0.7397 0.42405 0.0
N1625 N 0.94304 0.65348 0.35496 0.0
C1626 C 0.94687 0.71793 0.41157 0.0
C1627 C 0.94503 0.67336 0.37673 0.0
N1628 N 0.9946 0.74468 0.39816 0.0
N1629 N 0.90046 0.64451 0.40151 0.0
H1630 H 0.95899 0.65601 0.33909 0.0
H1631 H 0.92505 0.63559 0.35015 0.0
H1632 H 0.88331 0.64143 0.4151 0.0
H1633 H 0.89938 0.62679 0.39275 0.0
H1634 H 0.99725 0.76078 0.41368 0.0
H1635 H 1.01254 0.74784 0.38694 0.0
H1636 H 0.96064 0.75961 0.41935 0.0
H1637 H 0.92857 0.73773 0.43632 0.0
C1638 C 0.4133 0.99833 0.71621 0.0
C1639 C 0.41868 0.02437 0.70585 0.0
C1640 C 0.46406 0.04472 0.7316 0.0
C1641 C 0.45768 0.01899 0.74463 0.0
N1642 N 0.43037 0.97082 0.74178 0.0
N1643 N 0.45103 0.07126 0.69537 0.0
C1644 C 0.43366 0.99557 0.73401 0.0
C1645 C 0.44485 0.04718 0.71044 0.0
N1646 N 0.38835 0.97647 0.71009 0.0
N1647 N 0.48775 0.06693 0.7416 0.0
H1648 H 0.43716 0.07394 0.68072 0.0
H1649 H 0.47036 0.08809 0.69508 0.0
H1650 H 0.50258 0.06546 0.75576 0.0
H1651 H 0.49244 0.08671 0.73704 0.0
H1652 H 0.3818 0.9573 0.7202 0.0
H1653 H 0.37371 0.97783 0.69542 0.0
H1654 H 0.41422 0.95264 0.73305 0.0
H1655 H 0.44526 0.96868 0.75478 0.0
C1656 C 0.03118 0.42167 0.70994 0.0
C1657 C 1.00499 0.39849 0.70799 0.0
C1658 C 0.9862 0.42399 0.73618 0.0
C1659 C 1.01271 0.44473 0.74458 0.0
N1660 N 0.06075 0.46443 0.73882 0.0
N1661 N 0.95719 0.37703 0.7206 0.0
C1662 C 0.03532 0.44412 0.73067 0.0
C1663 C 0.98224 0.39966 0.72067 0.0
N1664 N 0.05194 0.42225 0.69156 0.0
N1665 N 0.96484 0.42739 0.7441 0.0
H1666 H 0.95325 0.3586 0.71019 0.0
H1667 H 0.94054 0.37585 0.7333 0.0
H1668 H 0.96738 0.44497 0.75586 0.0
H1669 H 0.94511 0.41416 0.73599 0.0
H1670 H 0.07107 0.43927 0.68957 0.0
H1671 H 0.04916 0.40636 0.67539 0.0
H1672 H 0.07819 0.46372 0.73334 0.0
H1673 H 0.0642 0.48166 0.75249 0.0
C1674 C 0.63391 0.58811 0.72127 0.0
C1675 C 0.63308 0.61068 0.70721 0.0
C1676 C 0.58702 0.59276 0.72947 0.0
C1677 C 0.58858 0.57123 0.74547 0.0
N1678 N 0.60932 0.5439 0.74887 0.0
N1679 N 0.60692 0.63086 0.68927 0.0
C1680 C 0.61062 0.56731 0.73838 0.0
C1681 C 0.60888 0.61173 0.70842 0.0
N1682 N 0.65748 0.58751 0.72057 0.0
N1683 N 0.56526 0.59582 0.73617 0.0
H1684 H 0.62262 0.6448 0.67344 0.0
H1685 H 0.58916 0.63152 0.68659 0.0
H1686 H 0.54842 0.58147 0.75004 0.0
H1687 H 0.56423 0.61284 0.72921 0.0
H1688 H 0.66038 0.57338 0.7341 0.0
H1689 H 0.67492 0.60215 0.7081 0.0
H1690 H 0.62361 0.53853 0.74214 0.0
H1691 H 0.59243 0.52863 0.76169 0.0
C1692 C 0.66607 0.73631 0.64335 0.0
C1693 C 0.69263 0.74088 0.64834 0.0
C1694 C 0.71116 0.78621 0.62308 0.0
C1695 C 0.6849 0.77943 0.61193 0.0
N1696 N 0.63695 0.74896 0.61228 0.0
N1697 N 0.74089 0.76988 0.64162 0.0
C1698 C 0.66215 0.75491 0.62294 0.0
C1699 C 0.71537 0.76602 0.63865 0.0
N1700 N 0.64471 0.71427 0.65841 0.0
N1701 N 0.73215 0.81181 0.61777 0.0
H1702 H 0.74503 0.75562 0.65235 0.0
H1703 H 0.75793 0.78641 0.63105 0.0
H1704 H 0.72948 0.82676 0.60602 0.0
H1705 H 0.75145 0.81891 0.62797 0.0
H1706 H 0.62505 0.71084 0.65829 0.0
H1707 H 0.64712 0.70056 0.67382 0.0
H1708 H 0.61972 0.73013 0.61548 0.0
H1709 H 0.63356 0.76288 0.59887 0.0
C1710 C 0.29361 0.93929 0.64533 0.0
C1711 C 0.28965 0.96155 0.65129 0.0
C1712 C 0.24437 0.93637 0.62502 0.0
C1713 C 0.24961 0.91545 0.61586 0.0
N1714 N 0.27503 0.8931 0.62425 0.0
N1715 N 0.2592 0.97915 0.65451 0.0
C1716 C 0.27287 0.9156 0.6287 0.0
C1717 C 0.26417 0.95923 0.64408 0.0
N1718 N 0.31753 0.94121 0.65491 0.0
N1719 N 0.2212 0.93509 0.61313 0.0
H1720 H 0.27359 0.99691 0.66661 0.0
H1721 H 0.2403 0.97757 0.65321 0.0
H1722 H 0.20589 0.91799 0.60067 0.0
H1723 H 0.2173 0.95093 0.61451 0.0
H1724 H 0.32323 0.92716 0.64843 0.0
H1725 H 0.33214 0.9575 0.66927 0.0
H1726 H 0.29063 0.89078 0.63434 0.0
H1727 H 0.25979 0.87567 0.6123 0.0
C1728 C 0.09246 0.36289 0.6409 0.0
C1729 C 0.0715 0.33669 0.65039 0.0
C1730 C 0.09674 0.31668 0.62485 0.0
C1731 C 0.11629 0.34255 0.61234 0.0
N1732 N 0.13723 0.3907 0.61555 0.0
N1733 N 0.05647 0.28962 0.65984 0.0
C1734 C 0.11568 0.36586 0.62311 0.0
C1735 C 0.07475 0.31392 0.6455 0.0
N1736 N 0.08961 0.38469 0.64806 0.0
N1737 N 0.09832 0.29462 0.61479 0.0
H1738 H 0.03964 0.28668 0.674 0.0
H1739 H 0.05886 0.27278 0.65999 0.0
H1740 H 0.11484 0.29628 0.60104 0.0
H1741 H 0.08313 0.27476 0.61892 0.0
H1742 H 0.10254 0.40411 0.63888 0.0
H1743 H 0.07363 0.38315 0.66299 0.0
H1744 H 0.13921 0.40884 0.62409 0.0
H1745 H 0.15434 0.39296 0.60269 0.0
C1746 C 0.26023 0.30693 0.63397 0.0
C1747 C 0.28262 0.32999 0.64919 0.0
C1748 C 0.26603 0.35898 0.62631 0.0
C1749 C 0.24467 0.33624 0.60926 0.0
N1750 N 0.21684 0.28814 0.6042 0.0
N1751 N 0.30308 0.37613 0.66826 0.0
C1752 C 0.24014 0.31 0.6159 0.0
C1753 C 0.28421 0.35546 0.64817 0.0
N1754 N 0.25917 0.28255 0.63455 0.0
N1755 N 0.26966 0.38407 0.61999 0.0
H1756 H 0.3164 0.37385 0.68471 0.0
H1757 H 0.30407 0.39467 0.67106 0.0
H1758 H 0.25586 0.38702 0.60552 0.0
H1759 H 0.28665 0.40193 0.62787 0.0
H1760 H 0.2453 0.26582 0.62019 0.0
H1761 H 0.2732 0.27931 0.64786 0.0
H1762 H 0.21101 0.26829 0.61059 0.0
H1763 H 0.20208 0.29009 0.59058 0.0
C1764 C 0.72238 0.96025 0.63804 0.0
C1765 C 0.69943 0.96071 0.65139 0.0
C1766 C 0.67015 0.91376 0.63259 0.0
C1767 C 0.69215 0.91513 0.61383 0.0
N1768 N 0.73944 0.93798 0.60009 0.0
N1769 N 0.65187 0.93779 0.66444 0.0
C1770 C 0.71851 0.93766 0.61776 0.0
C1771 C 0.67345 0.93722 0.65003 0.0
N1772 N 0.7477 0.98167 0.64393 0.0
N1773 N 0.64607 0.89001 0.63299 0.0
H1774 H 0.65395 0.95411 0.67911 0.0
H1775 H 0.63187 0.92262 0.66119 0.0
H1776 H 0.64349 0.87271 0.62037 0.0
H1777 H 0.62944 0.88668 0.64785 0.0
H1778 H 0.76542 0.98175 0.63767 0.0
H1779 H 0.75124 0.99903 0.65727 0.0
H1780 H 0.75864 0.95484 0.59787 0.0
H1781 H 0.73722 0.92116 0.58651 0.0
C1782 C 0.07022 0.76904 0.64295 0.0
C1783 C 0.06949 0.7451 0.6546 0.0
C1784 C 0.11491 0.76132 0.63094 0.0
C1785 C 0.1148 0.78427 0.61708 0.0
N1786 N 0.09663 0.81394 0.61764 0.0
N1787 N 0.09317 0.72148 0.66818 0.0
C1788 C 0.09391 0.78953 0.62608 0.0
C1789 C 0.09263 0.74231 0.65145 0.0
N1790 N 0.04764 0.77133 0.6457 0.0
N1791 N 0.13574 0.75712 0.6227 0.0
H1792 H 0.07711 0.70747 0.68351 0.0
H1793 H 0.11011 0.71928 0.66939 0.0
H1794 H 0.1529 0.77145 0.60931 0.0
H1795 H 0.13575 0.73931 0.62799 0.0
H1796 H 0.04569 0.78669 0.63402 0.0
H1797 H 0.03001 0.75696 0.65811 0.0
H1798 H 0.08333 0.82022 0.62586 0.0
H1799 H 0.11373 0.82899 0.60494 0.0
C1800 C 0.9806 0.59149 0.71896 0.0
C1801 C 1.00397 0.61542 0.70735 0.0
C1802 C 0.03298 0.59866 0.72987 0.0
C1803 C 1.0098 0.57576 0.74375 0.0
N1804 N 0.96175 0.54636 0.74357 0.0
N1805 N 0.05127 0.63875 0.6931 0.0
C1806 C 0.98362 0.57076 0.73522 0.0
C1807 C 0.02984 0.61793 0.7099 0.0
N1808 N 0.95578 0.58944 0.71677 0.0
N1809 N 0.05802 0.6026 0.73765 0.0
H1810 H 0.04933 0.65297 0.67817 0.0
H1811 H 0.07033 0.64075 0.69144 0.0
H1812 H 0.06071 0.58808 0.75067 0.0
H1813 H 0.07598 0.62035 0.73234 0.0
H1814 H 0.93843 0.57405 0.72843 0.0
H1815 H 0.95265 0.60402 0.70486 0.0
H1816 H 0.94209 0.54028 0.73573 0.0
H1817 H 0.96374 0.53114 0.75578 0.0
C1818 C 0.43866 0.40054 0.71402 0.0
C1819 C 0.41318 0.39831 0.70728 0.0
C1820 C 0.42933 0.44315 0.73315 0.0
C1821 C 0.45264 0.44303 0.74532 0.0
N1822 N 0.48129 0.42359 0.74583 0.0
N1823 N 0.38485 0.41823 0.70607 0.0
C1824 C 0.45816 0.42264 0.73441 0.0
C1825 C 0.40886 0.42009 0.71514 0.0
N1826 N 0.4439 0.38118 0.70186 0.0
N1827 N 0.42686 0.46528 0.73954 0.0
H1828 H 0.37032 0.40242 0.69088 0.0
H1829 H 0.37895 0.43189 0.71383 0.0
H1830 H 0.44189 0.48228 0.7525 0.0
H1831 H 0.41122 0.46779 0.73011 0.0
H1832 H 0.46284 0.38285 0.70282 0.0
H1833 H 0.42972 0.36392 0.68863 0.0
H1834 H 0.4853 0.40788 0.74311 0.0
H1835 H 0.49643 0.44017 0.75931 0.0
C1836 C 0.61182 1.0026 0.71345 0.0
C1837 C 0.63576 0.02811 0.71107 0.0
C1838 C 0.61344 0.04897 0.74256 0.0
C1839 C 0.59168 0.02293 0.75047 0.0
N1840 N 0.56881 0.97479 0.74265 0.0
N1841 N 0.65989 0.07598 0.72316 0.0
C1842 C 0.59024 0.9997 0.73506 0.0
C1843 C 0.63652 0.05157 0.72481 0.0
N1844 N 0.60979 0.98129 0.69478 0.0
N1845 N 0.6121 0.07113 0.75271 0.0
H1846 H 0.67714 0.07892 0.71013 0.0
H1847 H 0.66286 0.09311 0.73649 0.0
H1848 H 0.59548 0.06957 0.76609 0.0
H1849 H 0.62607 0.09076 0.74522 0.0
H1850 H 0.59215 0.96264 0.69288 0.0
H1851 H 0.62526 0.98303 0.67853 0.0
H1852 H 0.56794 0.95674 0.73613 0.0
H1853 H 0.55209 0.97221 0.75686 0.0
loop_
_geom_bond_atom_site_label_1
_geom_bond_atom_site_label_2
_geom_bond_distance
_geom_bond_site_symmetry_2
_ccdc_geom_bond_type
In0 O1 2.294 1_455 S
In0 O2 2.326 . S
In0 O6 2.266 1_455 S
In0 O7 2.326 1_454 S
In0 O8 2.266 1_554 S
In0 O9 2.326 1_454 S
In0 O11 2.294 . S
In0 O12 2.326 . S
O1 In0 2.294 1_655 S
O1 C10 1.240 1_655 S
O2 In0 2.326 . S
O2 C10 1.252 . S
C3 O6 1.252 1_556 S
C3 O7 1.260 . S
C4 O11 1.240 . S
C4 O12 1.252 . S
C5 O8 1.252 . S
C5 O9 1.260 1_455 S
O6 In0 2.266 1_655 S
O6 C3 1.252 1_554 S
O7 In0 2.326 1_656 S
O7 C3 1.260 . S
O8 In0 2.266 1_556 S
O8 C5 1.252 . S
O9 In0 2.326 1_656 S
O9 C5 1.260 1_655 S
C10 O1 1.240 1_455 S
C10 O2 1.252 . S
O11 In0 2.294 . S
O11 C4 1.240 . S
O12 In0 2.326 . S
O12 C4 1.252 . S
In13 O14 2.294 . S
In13 O15 2.326 . S
In13 O19 2.266 . S
In13 O20 2.326 1_554 S
In13 O21 2.266 1_554 S
In13 O22 2.326 1_554 S
In13 O24 2.294 . S
In13 O25 2.326 . S
O14 In13 2.294 . S
O14 C23 1.240 . S
O15 In13 2.326 . S
O15 C23 1.252 . S
C16 O19 1.252 1_556 S
C16 O20 1.260 . S
C17 O24 1.240 . S
C17 O25 1.252 . S
C18 O21 1.252 . S
C18 O22 1.260 . S
O19 In13 2.266 . S
O19 C16 1.252 1_554 S
O20 In13 2.326 1_556 S
O20 C16 1.260 . S
O21 In13 2.266 1_556 S
O21 C18 1.252 . S
O22 In13 2.326 1_556 S
O22 C18 1.260 . S
C23 O14 1.240 . S
C23 O15 1.252 . S
O24 In13 2.294 . S
O24 C17 1.240 . S
O25 In13 2.326 . S
O25 C17 1.252 . S
In26 O27 2.294 . S
In26 O28 2.326 1_554 S
In26 O32 2.266 . S
In26 O33 2.326 1_545 S
In26 O34 2.266 1_545 S
In26 O35 2.326 1_545 S
In26 O37 2.294 1_544 S
In26 O38 2.326 1_554 S
O27 In26 2.294 . S
O27 C36 1.240 1_554 S
O28 In26 2.326 1_556 S
O28 C36 1.252 . S
C29 O32 1.252 . S
C29 O33 1.260 1_545 S
C30 O37 1.240 1_545 S
C30 O38 1.252 . S
C31 O34 1.252 . S
C31 O35 1.260 . S
O32 In26 2.266 . S
O32 C29 1.252 . S
O33 In26 2.326 1_565 S
O33 C29 1.260 1_565 S
O34 In26 2.266 1_565 S
O34 C31 1.252 . S
O35 In26 2.326 1_565 S
O35 C31 1.260 . S
C36 O27 1.240 1_556 S
C36 O28 1.252 . S
O37 In26 2.294 1_566 S
O37 C30 1.240 1_565 S
O38 In26 2.326 1_556 S
O38 C30 1.252 . S
In39 O40 2.294 1_554 S
In39 O41 2.326 1_454 S
In39 O45 2.266 . S
In39 O46 2.326 . S
In39 O47 2.266 1_455 S
In39 O48 2.326 . S
In39 O50 2.294 1_455 S
In39 O51 2.326 1_454 S
O40 In39 2.294 1_556 S
O40 C49 1.240 . S
O41 In39 2.326 1_656 S
O41 C49 1.252 1_655 S
C42 O45 1.252 . S
C42 O46 1.260 . S
C43 O50 1.240 1_556 S
C43 O51 1.252 . S
C44 O47 1.252 1_455 S
C44 O48 1.260 . S
O45 In39 2.266 . S
O45 C42 1.252 . S
O46 In39 2.326 . S
O46 C42 1.260 . S
O47 In39 2.266 1_655 S
O47 C44 1.252 1_655 S
O48 In39 2.326 . S
O48 C44 1.260 . S
C49 O40 1.240 . S
C49 O41 1.252 1_455 S
O50 In39 2.294 1_655 S
O50 C43 1.240 1_554 S
O51 In39 2.326 1_656 S
O51 C43 1.252 . S
In52 O53 2.294 1_554 S
In52 O54 2.326 1_554 S
In52 O58 2.266 . S
In52 O59 2.326 . S
In52 O60 2.266 . S
In52 O61 2.326 . S
In52 O63 2.294 . S
In52 O64 2.326 1_554 S
O53 In52 2.294 1_556 S
O53 C62 1.240 . S
O54 In52 2.326 1_556 S
O54 C62 1.252 . S
C55 O58 1.252 . S
C55 O59 1.260 . S
C56 O63 1.240 1_556 S
C56 O64 1.252 . S
C57 O60 1.252 . S
C57 O61 1.260 . S
O58 In52 2.266 . S
O58 C55 1.252 . S
O59 In52 2.326 . S
O59 C55 1.260 . S
O60 In52 2.266 . S
O60 C57 1.252 . S
O61 In52 2.326 . S
O61 C57 1.260 . S
C62 O53 1.240 . S
C62 O54 1.252 . S
O63 In52 2.294 . S
O63 C56 1.240 1_554 S
O64 In52 2.326 1_556 S
O64 C56 1.252 . S
In65 O66 2.294 . S
In65 O67 2.326 1_545 S
In65 O71 2.266 . S
In65 O72 2.326 1_554 S
In65 O73 2.266 1_544 S
In65 O74 2.326 1_554 S
In65 O76 2.294 1_545 S
In65 O77 2.326 1_545 S
O66 In65 2.294 . S
O66 C75 1.240 . S
O67 In65 2.326 1_565 S
O67 C75 1.252 1_565 S
C68 O71 1.252 1_556 S
C68 O72 1.260 . S
C69 O76 1.240 . S
C69 O77 1.252 . S
C70 O73 1.252 1_545 S
C70 O74 1.260 . S
O71 In65 2.266 . S
O71 C68 1.252 1_554 S
O72 In65 2.326 1_556 S
O72 C68 1.260 . S
O73 In65 2.266 1_566 S
O73 C70 1.252 1_565 S
O74 In65 2.326 1_556 S
O74 C70 1.260 . S
C75 O66 1.240 . S
C75 O67 1.252 1_545 S
O76 In65 2.294 1_565 S
O76 C69 1.240 . S
O77 In65 2.326 1_565 S
O77 C69 1.252 . S
In78 O79 2.294 . S
In78 O80 2.326 . S
In78 O84 2.266 . S
In78 O85 2.326 . S
In78 O86 2.266 . S
In78 O87 2.326 . S
In78 O89 2.294 . S
In78 O90 2.326 . S
O79 In78 2.294 . S
O79 C88 1.240 . S
O80 In78 2.326 . S
O80 C88 1.252 . S
C81 O84 1.252 . S
C81 O85 1.260 . S
C82 O89 1.240 . S
C82 O90 1.252 . S
C83 O86 1.252 . S
C83 O87 1.260 . S
O84 In78 2.266 . S
O84 C81 1.252 . S
O85 In78 2.326 . S
O85 C81 1.260 . S
O86 In78 2.266 . S
O86 C83 1.252 . S
O87 In78 2.326 . S
O87 C83 1.260 . S
C88 O79 1.240 . S
C88 O80 1.252 . S
O89 In78 2.294 . S
O89 C82 1.240 . S
O90 In78 2.326 . S
O90 C82 1.252 . S
In91 O92 2.294 . S
In91 O93 2.326 . S
In91 O97 2.266 . S
In91 O98 2.326 1_565 S
In91 O99 2.266 . S
In91 O100 2.326 . S
In91 O102 2.294 1_565 S
In91 O103 2.326 1_565 S
O92 In91 2.294 . S
O92 C101 1.240 . S
O93 In91 2.326 . S
O93 C101 1.252 . S
C94 O97 1.252 . S
C94 O98 1.260 1_565 S
C95 O102 1.240 . S
C95 O103 1.252 . S
C96 O99 1.252 . S
C96 O100 1.260 . S
O97 In91 2.266 . S
O97 C94 1.252 . S
O98 In91 2.326 1_545 S
O98 C94 1.260 1_545 S
O99 In91 2.266 . S
O99 C96 1.252 . S
O100 In91 2.326 . S
O100 C96 1.260 . S
C101 O92 1.240 . S
C101 O93 1.252 . S
O102 In91 2.294 1_545 S
O102 C95 1.240 . S
O103 In91 2.326 1_545 S
O103 C95 1.252 . S
In104 O105 2.294 . S
In104 O106 2.326 . S
In104 O110 2.266 . S
In104 O111 2.326 . S
In104 O112 2.266 1_455 S
In104 O113 2.326 1_455 S
In104 O115 2.294 . S
In104 O116 2.326 . S
O105 In104 2.294 . S
O105 C114 1.240 . S
O106 In104 2.326 . S
O106 C114 1.252 . S
C107 O110 1.252 . S
C107 O111 1.260 . S
C108 O115 1.240 . S
C108 O116 1.252 . S
C109 O112 1.252 . S
C109 O113 1.260 . S
O110 In104 2.266 . S
O110 C107 1.252 . S
O111 In104 2.326 . S
O111 C107 1.260 . S
O112 In104 2.266 1_655 S
O112 C109 1.252 . S
O113 In104 2.326 1_655 S
O113 C109 1.260 . S
C114 O105 1.240 . S
C114 O106 1.252 . S
O115 In104 2.294 . S
O115 C108 1.240 . S
O116 In104 2.326 . S
O116 C108 1.252 . S
In117 O118 2.294 . S
In117 O119 2.326 . S
In117 O123 2.266 1_565 S
In117 O124 2.326 1_565 S
In117 O125 2.266 . S
In117 O126 2.326 . S
In117 O128 2.294 . S
In117 O129 2.326 1_565 S
O118 In117 2.294 . S
O118 C127 1.240 . S
O119 In117 2.326 . S
O119 C127 1.252 . S
C120 O123 1.252 . S
C120 O124 1.260 . S
C121 O128 1.240 . S
C121 O129 1.252 1_565 S
C122 O125 1.252 . S
C122 O126 1.260 . S
O123 In117 2.266 1_545 S
O123 C120 1.252 . S
O124 In117 2.326 1_545 S
O124 C120 1.260 . S
O125 In117 2.266 . S
O125 C122 1.252 . S
O126 In117 2.326 . S
O126 C122 1.260 . S
C127 O118 1.240 . S
C127 O119 1.252 . S
O128 In117 2.294 . S
O128 C121 1.240 . S
O129 In117 2.326 1_545 S
O129 C121 1.252 1_545 S
In130 O131 2.294 . S
In130 O132 2.326 . S
In130 O136 2.266 1_455 S
In130 O137 2.326 1_455 S
In130 O138 2.266 . S
In130 O139 2.326 . S
In130 O141 2.294 . S
In130 O142 2.326 . S
O131 In130 2.294 . S
O131 C140 1.240 . S
O132 In130 2.326 . S
O132 C140 1.252 . S
C133 O136 1.252 . S
C133 O137 1.260 . S
C134 O141 1.240 . S
C134 O142 1.252 . S
C135 O138 1.252 . S
C135 O139 1.260 . S
O136 In130 2.266 1_655 S
O136 C133 1.252 . S
O137 In130 2.326 1_655 S
O137 C133 1.260 . S
O138 In130 2.266 . S
O138 C135 1.252 . S
O139 In130 2.326 . S
O139 C135 1.260 . S
C140 O131 1.240 . S
C140 O132 1.252 . S
O141 In130 2.294 . S
O141 C134 1.240 . S
O142 In130 2.326 . S
O142 C134 1.252 . S
In143 O144 2.294 . S
In143 O145 2.326 . S
In143 O149 2.266 . S
In143 O150 2.326 . S
In143 O151 2.266 . S
In143 O152 2.326 . S
In143 O154 2.294 . S
In143 O155 2.326 . S
O144 In143 2.294 . S
O144 C153 1.240 . S
O145 In143 2.326 . S
O145 C153 1.252 . S
C146 O149 1.252 . S
C146 O150 1.260 . S
C147 O154 1.240 . S
C147 O155 1.252 . S
C148 O151 1.252 . S
C148 O152 1.260 . S
O149 In143 2.266 . S
O149 C146 1.252 . S
O150 In143 2.326 . S
O150 C146 1.260 . S
O151 In143 2.266 . S
O151 C148 1.252 . S
O152 In143 2.326 . S
O152 C148 1.260 . S
C153 O144 1.240 . S
C153 O145 1.252 . S
O154 In143 2.294 . S
O154 C147 1.240 . S
O155 In143 2.326 . S
O155 C147 1.252 . S
In156 O157 2.294 . S
In156 O158 2.326 . S
In156 O162 2.266 . S
In156 O163 2.326 . S
In156 O164 2.266 1_545 S
In156 O165 2.326 1_545 S
In156 O167 2.294 . S
In156 O168 2.326 . S
O157 In156 2.294 . S
O157 C166 1.240 . S
O158 In156 2.326 . S
O158 C166 1.252 . S
C159 O162 1.252 . S
C159 O163 1.260 . S
C160 O167 1.240 . S
C160 O168 1.252 . S
C161 O164 1.252 . S
C161 O165 1.260 . S
O162 In156 2.266 . S
O162 C159 1.252 . S
O163 In156 2.326 . S
O163 C159 1.260 . S
O164 In156 2.266 1_565 S
O164 C161 1.252 . S
O165 In156 2.326 1_565 S
O165 C161 1.260 . S
C166 O157 1.240 . S
C166 O158 1.252 . S
O167 In156 2.294 . S
O167 C160 1.240 . S
O168 In156 2.326 . S
O168 C160 1.252 . S
In169 O170 2.294 . S
In169 O171 2.326 1_655 S
In169 O175 2.266 . S
In169 O176 2.326 . S
In169 O177 2.266 1_655 S
In169 O178 2.326 1_655 S
In169 O180 2.294 . S
In169 O181 2.326 . S
O170 In169 2.294 . S
O170 C179 1.240 . S
O171 In169 2.326 1_455 S
O171 C179 1.252 1_455 S
C172 O175 1.252 . S
C172 O176 1.260 . S
C173 O180 1.240 . S
C173 O181 1.252 . S
C174 O177 1.252 . S
C174 O178 1.260 . S
O175 In169 2.266 . S
O175 C172 1.252 . S
O176 In169 2.326 . S
O176 C172 1.260 . S
O177 In169 2.266 1_455 S
O177 C174 1.252 . S
O178 In169 2.326 1_455 S
O178 C174 1.260 . S
C179 O170 1.240 . S
C179 O171 1.252 1_655 S
O180 In169 2.294 . S
O180 C173 1.240 . S
O181 In169 2.326 . S
O181 C173 1.252 . S
In182 O183 2.294 . S
In182 O184 2.326 . S
In182 O188 2.266 . S
In182 O189 2.326 . S
In182 O190 2.266 . S
In182 O191 2.326 . S
In182 O193 2.294 . S
In182 O194 2.326 . S
O183 In182 2.294 . S
O183 C192 1.240 . S
O184 In182 2.326 . S
O184 C192 1.252 . S
C185 O188 1.252 . S
C185 O189 1.260 . S
C186 O193 1.240 . S
C186 O194 1.252 . S
C187 O190 1.252 . S
C187 O191 1.260 . S
O188 In182 2.266 . S
O188 C185 1.252 . S
O189 In182 2.326 . S
O189 C185 1.260 . S
O190 In182 2.266 . S
O190 C187 1.252 . S
O191 In182 2.326 . S
O191 C187 1.260 . S
C192 O183 1.240 . S
C192 O184 1.252 . S
O193 In182 2.294 . S
O193 C186 1.240 . S
O194 In182 2.326 . S
O194 C186 1.252 . S
In195 O196 2.294 . S
In195 O197 2.326 . S
In195 O201 2.266 . S
In195 O202 2.326 . S
In195 O203 2.266 . S
In195 O204 2.326 . S
In195 O206 2.294 . S
In195 O207 2.326 . S
O196 In195 2.294 . S
O196 C205 1.240 . S
O197 In195 2.326 . S
O197 C205 1.252 . S
C198 O201 1.252 . S
C198 O202 1.260 . S
C199 O206 1.240 . S
C199 O207 1.252 . S
C200 O203 1.252 . S
C200 O204 1.260 . S
O201 In195 2.266 . S
O201 C198 1.252 . S
O202 In195 2.326 . S
O202 C198 1.260 . S
O203 In195 2.266 . S
O203 C200 1.252 . S
O204 In195 2.326 . S
O204 C200 1.260 . S
C205 O196 1.240 . S
C205 O197 1.252 . S
O206 In195 2.294 . S
O206 C199 1.240 . S
O207 In195 2.326 . S
O207 C199 1.252 . S
In208 O209 2.294 . S
In208 O210 2.326 . S
In208 O214 2.266 . S
In208 O215 2.326 . S
In208 O216 2.266 . S
In208 O217 2.326 . S
In208 O219 2.294 1_545 S
In208 O220 2.326 1_545 S
O209 In208 2.294 . S
O209 C218 1.240 . S
O210 In208 2.326 . S
O210 C218 1.252 . S
C211 O214 1.252 . S
C211 O215 1.260 . S
C212 O219 1.240 . S
C212 O220 1.252 . S
C213 O216 1.252 . S
C213 O217 1.260 . S
O214 In208 2.266 . S
O214 C211 1.252 . S
O215 In208 2.326 . S
O215 C211 1.260 . S
O216 In208 2.266 . S
O216 C213 1.252 . S
O217 In208 2.326 . S
O217 C213 1.260 . S
C218 O209 1.240 . S
C218 O210 1.252 . S
O219 In208 2.294 1_565 S
O219 C212 1.240 . S
O220 In208 2.326 1_565 S
O220 C212 1.252 . S
In221 O222 2.294 . S
In221 O223 2.326 1_655 S
In221 O227 2.266 . S
In221 O228 2.326 . S
In221 O229 2.266 1_655 S
In221 O230 2.326 1_655 S
In221 O232 2.294 . S
In221 O233 2.326 . S
O222 In221 2.294 . S
O222 C231 1.240 . S
O223 In221 2.326 1_455 S
O223 C231 1.252 1_455 S
C224 O227 1.252 . S
C224 O228 1.260 . S
C225 O232 1.240 . S
C225 O233 1.252 . S
C226 O229 1.252 . S
C226 O230 1.260 . S
O227 In221 2.266 . S
O227 C224 1.252 . S
O228 In221 2.326 . S
O228 C224 1.260 . S
O229 In221 2.266 1_455 S
O229 C226 1.252 . S
O230 In221 2.326 1_455 S
O230 C226 1.260 . S
C231 O222 1.240 . S
C231 O223 1.252 1_655 S
O232 In221 2.294 . S
O232 C225 1.240 . S
O233 In221 2.326 . S
O233 C225 1.252 . S
H234 C240 0.930 . S
H235 C243 0.931 . S
H236 C245 0.931 . S
H237 C247 0.930 . S
H238 C249 0.930 . S
H239 C251 0.931 . S
C240 H234 0.930 . S
C240 C241 1.380 . S
C240 C242 1.394 . S
C241 C240 1.380 . S
C241 C245 1.382 . S
C242 C240 1.394 . S
C242 C243 1.400 . S
C243 H235 0.931 . S
C243 C242 1.400 . S
C243 C244 1.375 . S
C244 C243 1.375 . S
C244 C245 1.415 . S
C244 C246 1.501 . S
C245 H236 0.931 . S
C245 C241 1.382 . S
C245 C244 1.415 . S
C246 C244 1.501 . S
C246 C247 1.384 . S
C246 C251 1.408 . S
C247 H237 0.930 . S
C247 C246 1.384 . S
C247 C248 1.389 . S
C248 C247 1.389 . S
C248 C249 1.405 . S
C249 H238 0.930 . S
C249 C248 1.405 . S
C249 C250 1.364 . S
C250 C249 1.364 . S
C250 C251 1.400 . S
C251 H239 0.931 . S
C251 C246 1.408 . S
C251 C250 1.400 . S
H252 C258 0.930 . S
H253 C261 0.931 . S
H254 C263 0.931 . S
H255 C265 0.930 . S
H256 C267 0.930 . S
H257 C269 0.931 . S
C258 H252 0.930 . S
C258 C259 1.380 . S
C258 C260 1.394 . S
C259 C258 1.380 . S
C259 C263 1.382 . S
C260 C258 1.394 . S
C260 C261 1.400 . S
C261 H253 0.931 . S
C261 C260 1.400 . S
C261 C262 1.375 . S
C262 C261 1.375 . S
C262 C263 1.415 . S
C262 C264 1.501 . S
C263 H254 0.931 . S
C263 C259 1.382 . S
C263 C262 1.415 . S
C264 C262 1.501 . S
C264 C265 1.384 . S
C264 C269 1.408 . S
C265 H255 0.930 . S
C265 C264 1.384 . S
C265 C266 1.389 . S
C266 C265 1.389 . S
C266 C267 1.405 . S
C267 H256 0.930 . S
C267 C266 1.405 . S
C267 C268 1.364 . S
C268 C267 1.364 . S
C268 C269 1.400 . S
C269 H257 0.931 . S
C269 C264 1.408 . S
C269 C268 1.400 . S
H270 C276 0.930 . S
H271 C279 0.931 . S
H272 C281 0.931 . S
H273 C283 0.930 . S
H274 C285 0.930 . S
H275 C287 0.931 . S
C276 H270 0.930 . S
C276 C277 1.380 . S
C276 C278 1.394 . S
C277 C276 1.380 . S
C277 C281 1.382 . S
C278 C276 1.394 . S
C278 C279 1.400 . S
C279 H271 0.931 . S
C279 C278 1.400 . S
C279 C280 1.375 . S
C280 C279 1.375 . S
C280 C281 1.415 . S
C280 C282 1.501 . S
C281 H272 0.931 . S
C281 C277 1.382 . S
C281 C280 1.415 . S
C282 C280 1.501 . S
C282 C283 1.384 . S
C282 C287 1.408 . S
C283 H273 0.930 . S
C283 C282 1.384 . S
C283 C284 1.389 . S
C284 C283 1.389 . S
C284 C285 1.405 . S
C285 H274 0.930 . S
C285 C284 1.405 . S
C285 C286 1.364 . S
C286 C285 1.364 . S
C286 C287 1.400 . S
C287 H275 0.931 . S
C287 C282 1.408 . S
C287 C286 1.400 . S
H288 C294 0.930 . S
H289 C297 0.931 . S
H290 C299 0.931 . S
H291 C301 0.930 . S
H292 C303 0.930 . S
H293 C305 0.931 . S
C294 H288 0.930 . S
C294 C295 1.380 . S
C294 C296 1.394 . S
C295 C294 1.380 . S
C295 C299 1.382 . S
C296 C294 1.394 . S
C296 C297 1.400 . S
C297 H289 0.931 . S
C297 C296 1.400 . S
C297 C298 1.375 . S
C298 C297 1.375 . S
C298 C299 1.415 . S
C298 C300 1.501 . S
C299 H290 0.931 . S
C299 C295 1.382 . S
C299 C298 1.415 . S
C300 C298 1.501 . S
C300 C301 1.384 . S
C300 C305 1.408 . S
C301 H291 0.930 . S
C301 C300 1.384 . S
C301 C302 1.389 . S
C302 C301 1.389 . S
C302 C303 1.405 . S
C303 H292 0.930 . S
C303 C302 1.405 . S
C303 C304 1.364 . S
C304 C303 1.364 . S
C304 C305 1.400 . S
C305 H293 0.931 . S
C305 C300 1.408 . S
C305 C304 1.400 . S
H306 C312 0.930 . S
H307 C315 0.931 . S
H308 C317 0.931 . S
H309 C319 0.930 . S
H310 C321 0.930 . S
H311 C323 0.931 . S
C312 H306 0.930 . S
C312 C313 1.380 . S
C312 C314 1.394 . S
C313 C312 1.380 . S
C313 C317 1.382 . S
C314 C312 1.394 . S
C314 C315 1.400 . S
C315 H307 0.931 . S
C315 C314 1.400 . S
C315 C316 1.375 . S
C316 C315 1.375 . S
C316 C317 1.415 . S
C316 C318 1.501 . S
C317 H308 0.931 . S
C317 C313 1.382 . S
C317 C316 1.415 . S
C318 C316 1.501 . S
C318 C319 1.384 . S
C318 C323 1.408 . S
C319 H309 0.930 . S
C319 C318 1.384 . S
C319 C320 1.389 . S
C320 C319 1.389 . S
C320 C321 1.405 . S
C321 H310 0.930 . S
C321 C320 1.405 . S
C321 C322 1.364 . S
C322 C321 1.364 . S
C322 C323 1.400 . S
C323 H311 0.931 . S
C323 C318 1.408 . S
C323 C322 1.400 . S
H324 C330 0.930 . S
H325 C333 0.931 . S
H326 C335 0.931 . S
H327 C337 0.930 . S
H328 C339 0.930 . S
H329 C341 0.931 . S
C330 H324 0.930 . S
C330 C331 1.380 . S
C330 C332 1.394 . S
C331 C330 1.380 . S
C331 C335 1.382 . S
C332 C330 1.394 . S
C332 C333 1.400 . S
C333 H325 0.931 . S
C333 C332 1.400 . S
C333 C334 1.375 . S
C334 C333 1.375 . S
C334 C335 1.415 . S
C334 C336 1.501 . S
C335 H326 0.931 . S
C335 C331 1.382 . S
C335 C334 1.415 . S
C336 C334 1.501 . S
C336 C337 1.384 . S
C336 C341 1.408 . S
C337 H327 0.930 . S
C337 C336 1.384 . S
C337 C338 1.389 . S
C338 C337 1.389 . S
C338 C339 1.405 . S
C339 H328 0.930 . S
C339 C338 1.405 . S
C339 C340 1.364 . S
C340 C339 1.364 . S
C340 C341 1.400 . S
C341 H329 0.931 . S
C341 C336 1.408 . S
C341 C340 1.400 . S
H342 C348 0.930 . S
H343 C351 0.931 . S
H344 C353 0.931 . S
H345 C355 0.930 . S
H346 C357 0.930 . S
H347 C359 0.931 . S
C348 H342 0.930 . S
C348 C349 1.380 . S
C348 C350 1.394 . S
C349 C348 1.380 . S
C349 C353 1.382 . S
C350 C348 1.394 . S
C350 C351 1.400 . S
C351 H343 0.931 . S
C351 C350 1.400 . S
C351 C352 1.375 . S
C352 C351 1.375 . S
C352 C353 1.415 . S
C352 C354 1.501 . S
C353 H344 0.931 . S
C353 C349 1.382 . S
C353 C352 1.415 . S
C354 C352 1.501 . S
C354 C355 1.384 . S
C354 C359 1.408 . S
C355 H345 0.930 . S
C355 C354 1.384 . S
C355 C356 1.389 . S
C356 C355 1.389 . S
C356 C357 1.405 . S
C357 H346 0.930 . S
C357 C356 1.405 . S
C357 C358 1.364 . S
C358 C357 1.364 . S
C358 C359 1.400 . S
C359 H347 0.931 . S
C359 C354 1.408 . S
C359 C358 1.400 . S
H360 C366 0.930 . S
H361 C369 0.931 . S
H362 C371 0.931 . S
H363 C373 0.930 . S
H364 C375 0.930 . S
H365 C377 0.931 . S
C366 H360 0.930 . S
C366 C367 1.380 . S
C366 C368 1.394 . S
C367 C366 1.380 . S
C367 C371 1.382 . S
C368 C366 1.394 . S
C368 C369 1.400 . S
C369 H361 0.931 . S
C369 C368 1.400 . S
C369 C370 1.375 . S
C370 C369 1.375 . S
C370 C371 1.415 . S
C370 C372 1.501 . S
C371 H362 0.931 . S
C371 C367 1.382 . S
C371 C370 1.415 . S
C372 C370 1.501 . S
C372 C373 1.384 . S
C372 C377 1.408 . S
C373 H363 0.930 . S
C373 C372 1.384 . S
C373 C374 1.389 . S
C374 C373 1.389 . S
C374 C375 1.405 . S
C375 H364 0.930 . S
C375 C374 1.405 . S
C375 C376 1.364 . S
C376 C375 1.364 . S
C376 C377 1.400 . S
C377 H365 0.931 . S
C377 C372 1.408 . S
C377 C376 1.400 . S
H378 C384 0.930 . S
H379 C387 0.931 . S
H380 C389 0.931 . S
H381 C391 0.930 . S
H382 C393 0.930 . S
H383 C395 0.931 . S
C384 H378 0.930 . S
C384 C385 1.380 . S
C384 C386 1.394 . S
C385 C384 1.380 . S
C385 C389 1.382 . S
C386 C384 1.394 . S
C386 C387 1.400 . S
C387 H379 0.931 . S
C387 C386 1.400 . S
C387 C388 1.375 . S
C388 C387 1.375 . S
C388 C389 1.415 . S
C388 C390 1.501 . S
C389 H380 0.931 . S
C389 C385 1.382 . S
C389 C388 1.415 . S
C390 C388 1.501 . S
C390 C391 1.384 . S
C390 C395 1.408 . S
C391 H381 0.930 . S
C391 C390 1.384 . S
C391 C392 1.389 . S
C392 C391 1.389 . S
C392 C393 1.405 . S
C393 H382 0.930 . S
C393 C392 1.405 . S
C393 C394 1.364 . S
C394 C393 1.364 . S
C394 C395 1.400 . S
C395 H383 0.931 . S
C395 C390 1.408 . S
C395 C394 1.400 . S
H396 C402 0.930 . S
H397 C405 0.931 . S
H398 C407 0.931 . S
H399 C409 0.930 . S
H400 C411 0.930 . S
H401 C413 0.931 . S
C402 H396 0.930 . S
C402 C403 1.380 . S
C402 C404 1.394 . S
C403 C402 1.380 . S
C403 C407 1.382 . S
C404 C402 1.394 . S
C404 C405 1.400 . S
C405 H397 0.931 . S
C405 C404 1.400 . S
C405 C406 1.375 . S
C406 C405 1.375 . S
C406 C407 1.415 . S
C406 C408 1.501 . S
C407 H398 0.931 . S
C407 C403 1.382 . S
C407 C406 1.415 . S
C408 C406 1.501 . S
C408 C409 1.384 . S
C408 C413 1.408 . S
C409 H399 0.930 . S
C409 C408 1.384 . S
C409 C410 1.389 . S
C410 C409 1.389 . S
C410 C411 1.405 . S
C411 H400 0.930 . S
C411 C410 1.405 . S
C411 C412 1.364 . S
C412 C411 1.364 . S
C412 C413 1.400 . S
C413 H401 0.931 . S
C413 C408 1.408 . S
C413 C412 1.400 . S
H414 C420 0.930 . S
H415 C423 0.931 . S
H416 C425 0.931 . S
H417 C427 0.930 . S
H418 C429 0.930 . S
H419 C431 0.931 . S
C420 H414 0.930 . S
C420 C421 1.380 . S
C420 C422 1.394 . S
C421 C420 1.380 . S
C421 C425 1.382 . S
C422 C420 1.394 . S
C422 C423 1.400 . S
C423 H415 0.931 . S
C423 C422 1.400 . S
C423 C424 1.375 . S
C424 C423 1.375 . S
C424 C425 1.415 . S
C424 C426 1.501 . S
C425 H416 0.931 . S
C425 C421 1.382 . S
C425 C424 1.415 . S
C426 C424 1.501 . S
C426 C427 1.384 . S
C426 C431 1.408 . S
C427 H417 0.930 . S
C427 C426 1.384 . S
C427 C428 1.389 . S
C428 C427 1.389 . S
C428 C429 1.405 . S
C429 H418 0.930 . S
C429 C428 1.405 . S
C429 C430 1.364 . S
C430 C429 1.364 . S
C430 C431 1.400 . S
C431 H419 0.931 . S
C431 C426 1.408 . S
C431 C430 1.400 . S
H432 C438 0.949 . S
H433 C441 0.931 . S
H434 C443 0.931 . S
H435 C445 0.930 . S
H436 C447 0.930 . S
H437 C449 0.919 1_545 S
C438 H432 0.949 . S
C438 C439 1.376 . S
C438 C440 1.380 1_545 S
C439 C438 1.376 . S
C439 C443 1.382 . S
C440 C438 1.380 1_565 S
C440 C441 1.400 . S
C441 H433 0.931 . S
C441 C440 1.400 . S
C441 C442 1.375 . S
C442 C441 1.375 . S
C442 C443 1.415 1_565 S
C442 C444 1.501 . S
C443 H434 0.931 . S
C443 C439 1.382 . S
C443 C442 1.415 1_545 S
C444 C442 1.501 . S
C444 C445 1.384 . S
C444 C449 1.399 . S
C445 H435 0.930 . S
C445 C444 1.384 . S
C445 C446 1.389 . S
C446 C445 1.389 . S
C446 C447 1.405 . S
C447 H436 0.930 . S
C447 C446 1.405 . S
C447 C448 1.374 . S
C448 C447 1.374 . S
C448 C449 1.406 . S
C449 H437 0.919 1_565 S
C449 C444 1.399 . S
C449 C448 1.406 . S
H450 C456 0.930 . S
H451 C459 0.931 . S
H452 C461 0.931 . S
H453 C463 0.930 . S
H454 C465 0.930 . S
H455 C467 0.931 . S
C456 H450 0.930 . S
C456 C457 1.380 . S
C456 C458 1.394 . S
C457 C456 1.380 . S
C457 C461 1.382 . S
C458 C456 1.394 . S
C458 C459 1.400 . S
C459 H451 0.931 . S
C459 C458 1.400 . S
C459 C460 1.375 . S
C460 C459 1.375 . S
C460 C461 1.415 . S
C460 C462 1.501 . S
C461 H452 0.931 . S
C461 C457 1.382 . S
C461 C460 1.415 . S
C462 C460 1.501 . S
C462 C463 1.384 . S
C462 C467 1.408 . S
C463 H453 0.930 . S
C463 C462 1.384 . S
C463 C464 1.389 . S
C464 C463 1.389 . S
C464 C465 1.405 . S
C465 H454 0.930 . S
C465 C464 1.405 . S
C465 C466 1.364 . S
C466 C465 1.364 . S
C466 C467 1.400 . S
C467 H455 0.931 . S
C467 C462 1.408 . S
C467 C466 1.400 . S
H468 C474 0.955 . S
H469 C477 0.931 . S
H470 C479 0.934 1_655 S
H471 C481 0.930 . S
H472 C483 0.930 . S
H473 C485 0.931 . S
C474 H468 0.955 . S
C474 C475 1.377 . S
C474 C476 1.381 1_655 S
C475 C474 1.377 . S
C475 C479 1.358 1_655 S
C476 C474 1.381 1_455 S
C476 C477 1.400 . S
C477 H469 0.931 . S
C477 C476 1.400 . S
C477 C478 1.375 . S
C478 C477 1.375 . S
C478 C479 1.419 . S
C478 C480 1.501 . S
C479 H470 0.934 1_455 S
C479 C475 1.358 1_455 S
C479 C478 1.419 . S
C480 C478 1.501 . S
C480 C481 1.384 . S
C480 C485 1.408 1_455 S
C481 H471 0.930 . S
C481 C480 1.384 . S
C481 C482 1.389 . S
C482 C481 1.389 . S
C482 C483 1.405 . S
C483 H472 0.930 . S
C483 C482 1.405 . S
C483 C484 1.364 1_455 S
C484 C483 1.364 1_655 S
C484 C485 1.400 . S
C485 H473 0.931 . S
C485 C480 1.408 1_655 S
C485 C484 1.400 . S
H486 C492 0.930 . S
H487 C495 0.931 . S
H488 C497 0.931 . S
H489 C499 0.930 . S
H490 C501 0.930 . S
H491 C503 0.931 . S
C492 H486 0.930 . S
C492 C493 1.380 . S
C492 C494 1.394 . S
C493 C492 1.380 . S
C493 C497 1.382 . S
C494 C492 1.394 . S
C494 C495 1.400 . S
C495 H487 0.931 . S
C495 C494 1.400 . S
C495 C496 1.375 . S
C496 C495 1.375 . S
C496 C497 1.415 . S
C496 C498 1.501 . S
C497 H488 0.931 . S
C497 C493 1.382 . S
C497 C496 1.415 . S
C498 C496 1.501 . S
C498 C499 1.384 . S
C498 C503 1.408 . S
C499 H489 0.930 . S
C499 C498 1.384 . S
C499 C500 1.389 . S
C500 C499 1.389 . S
C500 C501 1.405 . S
C501 H490 0.930 . S
C501 C500 1.405 . S
C501 C502 1.364 . S
C502 C501 1.364 . S
C502 C503 1.400 . S
C503 H491 0.931 . S
C503 C498 1.408 . S
C503 C502 1.400 . S
H504 C510 0.930 . S
H505 C513 0.931 . S
H506 C515 0.931 . S
H507 C517 0.930 . S
H508 C519 0.930 . S
H509 C521 0.931 . S
C510 H504 0.930 . S
C510 C511 1.380 . S
C510 C512 1.394 . S
C511 C510 1.380 . S
C511 C515 1.382 . S
C512 C510 1.394 . S
C512 C513 1.400 . S
C513 H505 0.931 . S
C513 C512 1.400 . S
C513 C514 1.375 . S
C514 C513 1.375 . S
C514 C515 1.415 . S
C514 C516 1.501 . S
C515 H506 0.931 . S
C515 C511 1.382 . S
C515 C514 1.415 . S
C516 C514 1.501 . S
C516 C517 1.384 . S
C516 C521 1.408 . S
C517 H507 0.930 . S
C517 C516 1.384 . S
C517 C518 1.389 . S
C518 C517 1.389 . S
C518 C519 1.405 . S
C519 H508 0.930 . S
C519 C518 1.405 . S
C519 C520 1.364 . S
C520 C519 1.364 . S
C520 C521 1.400 . S
C521 H509 0.931 . S
C521 C516 1.408 . S
C521 C520 1.400 . S
H522 C528 0.930 . S
H523 C531 0.931 . S
H524 C533 0.931 . S
H525 C535 0.930 . S
H526 C537 0.930 . S
H527 C539 0.931 . S
C528 H522 0.930 . S
C528 C529 1.380 . S
C528 C530 1.394 . S
C529 C528 1.380 . S
C529 C533 1.382 . S
C530 C528 1.394 . S
C530 C531 1.400 . S
C531 H523 0.931 . S
C531 C530 1.400 . S
C531 C532 1.375 . S
C532 C531 1.375 . S
C532 C533 1.415 . S
C532 C534 1.501 . S
C533 H524 0.931 . S
C533 C529 1.382 . S
C533 C532 1.415 . S
C534 C532 1.501 . S
C534 C535 1.384 . S
C534 C539 1.408 . S
C535 H525 0.930 . S
C535 C534 1.384 . S
C535 C536 1.389 . S
C536 C535 1.389 . S
C536 C537 1.405 . S
C537 H526 0.930 . S
C537 C536 1.405 . S
C537 C538 1.364 . S
C538 C537 1.364 . S
C538 C539 1.400 . S
C539 H527 0.931 . S
C539 C534 1.408 . S
C539 C538 1.400 . S
H540 C546 0.930 . S
H541 C549 0.931 . S
H542 C551 0.931 . S
H543 C553 0.930 . S
H544 C555 0.930 . S
H545 C557 0.931 . S
C546 H540 0.930 . S
C546 C547 1.380 . S
C546 C548 1.394 . S
C547 C546 1.380 . S
C547 C551 1.382 . S
C548 C546 1.394 . S
C548 C549 1.400 . S
C549 H541 0.931 . S
C549 C548 1.400 . S
C549 C550 1.375 . S
C550 C549 1.375 . S
C550 C551 1.415 . S
C550 C552 1.501 . S
C551 H542 0.931 . S
C551 C547 1.382 . S
C551 C550 1.415 . S
C552 C550 1.501 . S
C552 C553 1.384 . S
C552 C557 1.408 . S
C553 H543 0.930 . S
C553 C552 1.384 . S
C553 C554 1.389 . S
C554 C553 1.389 . S
C554 C555 1.405 . S
C555 H544 0.930 . S
C555 C554 1.405 . S
C555 C556 1.364 . S
C556 C555 1.364 . S
C556 C557 1.400 . S
C557 H545 0.931 . S
C557 C552 1.408 . S
C557 C556 1.400 . S
C558 C559 1.363 . S
C558 C564 1.379 . S
C558 N566 1.356 . S
C559 C558 1.363 . S
C559 C565 1.363 1_455 S
C560 C561 1.363 1_655 S
C560 C565 1.379 . S
C560 N567 1.356 . S
C561 C560 1.363 1_455 S
C561 C564 1.363 . S
N562 C564 1.356 . S
N562 H574 0.984 . S
N562 H575 0.985 . S
N563 C565 1.356 . S
N563 H568 0.984 . S
N563 H569 0.985 . S
C564 C558 1.379 . S
C564 C561 1.363 . S
C564 N562 1.356 . S
C565 C559 1.363 1_655 S
C565 C560 1.379 . S
C565 N563 1.356 . S
N566 C558 1.356 . S
N566 H572 0.984 . S
N566 H573 0.984 . S
N567 C560 1.356 . S
N567 H570 0.984 . S
N567 H571 0.985 . S
H568 N563 0.984 . S
H569 N563 0.985 . S
H570 N567 0.984 . S
H571 N567 0.985 . S
H572 N566 0.984 . S
H573 N566 0.984 . S
H574 N562 0.984 . S
H575 N562 0.985 . S
C576 C577 1.363 . S
C576 C582 1.379 . S
C576 N584 1.356 . S
C577 C576 1.363 . S
C577 C583 1.363 . S
C578 C579 1.363 . S
C578 C583 1.379 . S
C578 N585 1.356 . S
C579 C578 1.363 . S
C579 C582 1.363 . S
N580 C582 1.356 . S
N580 H592 0.984 . S
N580 H593 0.985 . S
N581 C583 1.356 . S
N581 H586 0.984 . S
N581 H587 0.985 . S
C582 C576 1.379 . S
C582 C579 1.363 . S
C582 N580 1.356 . S
C583 C577 1.363 . S
C583 C578 1.379 . S
C583 N581 1.356 . S
N584 C576 1.356 . S
N584 H590 0.984 . S
N584 H591 0.984 . S
N585 C578 1.356 . S
N585 H588 0.984 . S
N585 H589 0.985 . S
H586 N581 0.984 . S
H587 N581 0.985 . S
H588 N585 0.984 . S
H589 N585 0.985 . S
H590 N584 0.984 . S
H591 N584 0.984 . S
H592 N580 0.984 . S
H593 N580 0.985 . S
C594 C595 1.363 . S
C594 C600 1.379 . S
C594 N602 1.356 . S
C595 C594 1.363 . S
C595 C601 1.363 1_545 S
C596 C597 1.363 1_565 S
C596 C601 1.379 . S
C596 N603 1.356 . S
C597 C596 1.363 1_545 S
C597 C600 1.363 . S
N598 C600 1.356 . S
N598 H610 0.984 . S
N598 H611 0.985 . S
N599 C601 1.356 . S
N599 H604 0.984 . S
N599 H605 0.985 . S
C600 C594 1.379 . S
C600 C597 1.363 . S
C600 N598 1.356 . S
C601 C595 1.363 1_565 S
C601 C596 1.379 . S
C601 N599 1.356 . S
N602 C594 1.356 . S
N602 H608 0.984 . S
N602 H609 0.984 . S
N603 C596 1.356 . S
N603 H606 0.984 . S
N603 H607 0.985 . S
H604 N599 0.984 . S
H605 N599 0.985 . S
H606 N603 0.984 . S
H607 N603 0.985 . S
H608 N602 0.984 . S
H609 N602 0.984 . S
H610 N598 0.984 . S
H611 N598 0.985 . S
C612 C613 1.363 1_565 S
C612 C618 1.379 . S
C612 N620 1.356 . S
C613 C612 1.363 1_545 S
C613 C619 1.363 . S
C614 C615 1.363 . S
C614 C619 1.379 . S
C614 N621 1.356 . S
C615 C614 1.363 . S
C615 C618 1.363 1_545 S
N616 C618 1.356 . S
N616 H628 0.984 . S
N616 H629 0.985 . S
N617 C619 1.356 . S
N617 H622 0.984 . S
N617 H623 0.985 . S
C618 C612 1.379 . S
C618 C615 1.363 1_565 S
C618 N616 1.356 . S
C619 C613 1.363 . S
C619 C614 1.379 . S
C619 N617 1.356 . S
N620 C612 1.356 . S
N620 H626 0.984 . S
N620 H627 0.984 . S
N621 C614 1.356 . S
N621 H624 0.984 . S
N621 H625 0.985 . S
H622 N617 0.984 . S
H623 N617 0.985 . S
H624 N621 0.984 . S
H625 N621 0.985 . S
H626 N620 0.984 . S
H627 N620 0.984 . S
H628 N616 0.984 . S
H629 N616 0.985 . S
C630 C631 1.363 . S
C630 C636 1.379 . S
C630 N638 1.356 . S
C631 C630 1.363 . S
C631 C637 1.363 1_455 S
C632 C633 1.363 1_655 S
C632 C637 1.379 . S
C632 N639 1.356 . S
C633 C632 1.363 1_455 S
C633 C636 1.363 . S
N634 C636 1.356 . S
N634 H646 0.984 . S
N634 H647 0.985 . S
N635 C637 1.356 . S
N635 H640 0.984 . S
N635 H641 0.985 . S
C636 C630 1.379 . S
C636 C633 1.363 . S
C636 N634 1.356 . S
C637 C631 1.363 1_655 S
C637 C632 1.379 . S
C637 N635 1.356 . S
N638 C630 1.356 . S
N638 H644 0.984 . S
N638 H645 0.984 . S
N639 C632 1.356 . S
N639 H642 0.984 . S
N639 H643 0.985 . S
H640 N635 0.984 . S
H641 N635 0.985 . S
H642 N639 0.984 . S
H643 N639 0.985 . S
H644 N638 0.984 . S
H645 N638 0.984 . S
H646 N634 0.984 . S
H647 N634 0.985 . S
C648 C649 1.363 . S
C648 C654 1.379 . S
C648 N656 1.356 . S
C649 C648 1.363 . S
C649 C655 1.363 . S
C650 C651 1.363 . S
C650 C655 1.379 . S
C650 N657 1.356 . S
C651 C650 1.363 . S
C651 C654 1.363 . S
N652 C654 1.356 . S
N652 H664 0.984 . S
N652 H665 0.985 . S
N653 C655 1.356 . S
N653 H658 0.984 . S
N653 H659 0.985 . S
C654 C648 1.379 . S
C654 C651 1.363 . S
C654 N652 1.356 . S
C655 C649 1.363 . S
C655 C650 1.379 . S
C655 N653 1.356 . S
N656 C648 1.356 . S
N656 H662 0.984 . S
N656 H663 0.984 . S
N657 C650 1.356 . S
N657 H660 0.984 . S
N657 H661 0.985 . S
H658 N653 0.984 . S
H659 N653 0.985 . S
H660 N657 0.984 . S
H661 N657 0.985 . S
H662 N656 0.984 . S
H663 N656 0.984 . S
H664 N652 0.984 . S
H665 N652 0.985 . S
C666 C667 1.392 . S
C666 C672 1.379 . S
C666 N674 1.356 . S
C667 C666 1.392 . S
C667 C673 1.352 1_455 S
C668 C669 1.377 . S
C668 C673 1.379 . S
C668 N675 1.356 . S
C669 C668 1.377 . S
C669 C672 1.358 1_655 S
N670 C672 1.356 . S
N670 H682 0.984 . S
N670 H683 0.985 . S
N671 C673 1.356 . S
N671 H676 0.984 . S
N671 H677 0.985 . S
C672 C666 1.379 . S
C672 C669 1.358 1_455 S
C672 N670 1.356 . S
C673 C667 1.352 1_655 S
C673 C668 1.379 . S
C673 N671 1.356 . S
N674 C666 1.356 . S
N674 H680 0.984 . S
N674 H681 0.984 . S
N675 C668 1.356 . S
N675 H678 0.984 . S
N675 H679 0.985 . S
H676 N671 0.984 . S
H677 N671 0.985 . S
H678 N675 0.984 . S
H679 N675 0.985 . S
H680 N674 0.984 . S
H681 N674 0.984 . S
H682 N670 0.984 . S
H683 N670 0.985 . S
C684 C685 1.363 . S
C684 C690 1.379 . S
C684 N692 1.356 . S
C685 C684 1.363 . S
C685 C691 1.363 . S
C686 C687 1.363 . S
C686 C691 1.379 . S
C686 N693 1.356 . S
C687 C686 1.363 . S
C687 C690 1.363 . S
N688 C690 1.356 . S
N688 H700 0.984 . S
N688 H701 0.985 . S
N689 C691 1.356 . S
N689 H694 0.984 . S
N689 H695 0.985 . S
C690 C684 1.379 . S
C690 C687 1.363 . S
C690 N688 1.356 . S
C691 C685 1.363 . S
C691 C686 1.379 . S
C691 N689 1.356 . S
N692 C684 1.356 . S
N692 H698 0.984 . S
N692 H699 0.984 . S
N693 C686 1.356 . S
N693 H696 0.984 . S
N693 H697 0.985 . S
H694 N689 0.984 . S
H695 N689 0.985 . S
H696 N693 0.984 . S
H697 N693 0.985 . S
H698 N692 0.984 . S
H699 N692 0.984 . S
H700 N688 0.984 . S
H701 N688 0.985 . S
C702 C703 1.363 1_565 S
C702 C708 1.379 . S
C702 N710 1.356 . S
C703 C702 1.363 1_545 S
C703 C709 1.363 . S
C704 C705 1.363 . S
C704 C709 1.379 . S
C704 N711 1.356 . S
C705 C704 1.363 . S
C705 C708 1.363 1_545 S
N706 C708 1.356 . S
N706 H718 0.984 . S
N706 H719 0.985 . S
N707 C709 1.356 . S
N707 H712 0.984 . S
N707 H713 0.985 . S
C708 C702 1.379 . S
C708 C705 1.363 1_565 S
C708 N706 1.356 . S
C709 C703 1.363 . S
C709 C704 1.379 . S
C709 N707 1.356 . S
N710 C702 1.356 . S
N710 H716 0.984 . S
N710 H717 0.984 . S
N711 C704 1.356 . S
N711 H714 0.984 . S
N711 H715 0.985 . S
H712 N707 0.984 . S
H713 N707 0.985 . S
H714 N711 0.984 . S
H715 N711 0.985 . S
H716 N710 0.984 . S
H717 N710 0.984 . S
H718 N706 0.984 . S
H719 N706 0.985 . S
C720 C721 1.363 . S
C720 C726 1.379 . S
C720 N728 1.356 . S
C721 C720 1.363 . S
C721 C727 1.363 1_545 S
C722 C723 1.376 . S
C722 C727 1.379 . S
C722 N729 1.356 . S
C723 C722 1.376 . S
C723 C726 1.358 1_565 S
N724 C726 1.356 . S
N724 H736 0.984 . S
N724 H737 0.985 . S
N725 C727 1.356 . S
N725 H730 0.984 . S
N725 H731 0.985 . S
C726 C720 1.379 . S
C726 C723 1.358 1_545 S
C726 N724 1.356 . S
C727 C721 1.363 1_565 S
C727 C722 1.379 . S
C727 N725 1.356 . S
N728 C720 1.356 . S
N728 H734 0.984 . S
N728 H735 0.984 . S
N729 C722 1.356 . S
N729 H732 0.984 . S
N729 H733 0.985 . S
H730 N725 0.984 . S
H731 N725 0.985 . S
H732 N729 0.984 . S
H733 N729 0.985 . S
H734 N728 0.984 . S
H735 N728 0.984 . S
H736 N724 0.984 . S
H737 N724 0.985 . S
C738 C739 1.363 1_655 S
C738 C744 1.379 . S
C738 N746 1.356 . S
C739 C738 1.363 1_455 S
C739 C745 1.363 . S
C740 C741 1.363 . S
C740 C745 1.379 . S
C740 N747 1.356 . S
C741 C740 1.363 . S
C741 C744 1.363 1_455 S
N742 C744 1.356 . S
N742 H754 0.984 . S
N742 H755 0.985 . S
N743 C745 1.356 . S
N743 H748 0.984 . S
N743 H749 0.985 . S
C744 C738 1.379 . S
C744 C741 1.363 1_655 S
C744 N742 1.356 . S
C745 C739 1.363 . S
C745 C740 1.379 . S
C745 N743 1.356 . S
N746 C738 1.356 . S
N746 H752 0.984 . S
N746 H753 0.984 . S
N747 C740 1.356 . S
N747 H750 0.984 . S
N747 H751 0.985 . S
H748 N743 0.984 . S
H749 N743 0.985 . S
H750 N747 0.984 . S
H751 N747 0.985 . S
H752 N746 0.984 . S
H753 N746 0.984 . S
H754 N742 0.984 . S
H755 N742 0.985 . S
C756 C757 1.363 . S
C756 C762 1.379 . S
C756 N764 1.356 . S
C757 C756 1.363 . S
C757 C763 1.363 . S
C758 C759 1.363 . S
C758 C763 1.379 . S
C758 N765 1.356 . S
C759 C758 1.363 . S
C759 C762 1.363 . S
N760 C762 1.356 . S
N760 H772 0.984 . S
N760 H773 0.985 . S
N761 C763 1.356 . S
N761 H766 0.984 . S
N761 H767 0.985 . S
C762 C756 1.379 . S
C762 C759 1.363 . S
C762 N760 1.356 . S
C763 C757 1.363 . S
C763 C758 1.379 . S
C763 N761 1.356 . S
N764 C756 1.356 . S
N764 H770 0.984 . S
N764 H771 0.984 . S
N765 C758 1.356 . S
N765 H768 0.984 . S
N765 H769 0.985 . S
H766 N761 0.984 . S
H767 N761 0.985 . S
H768 N765 0.984 . S
H769 N765 0.985 . S
H770 N764 0.984 . S
H771 N764 0.984 . S
H772 N760 0.984 . S
H773 N760 0.985 . S
C774 C775 1.363 . S
C774 C780 1.379 . S
C774 N782 1.356 . S
C775 C774 1.363 . S
C775 C781 1.363 . S
C776 C777 1.363 . S
C776 C781 1.379 . S
C776 N783 1.356 . S
C777 C776 1.363 . S
C777 C780 1.363 . S
N778 C780 1.356 . S
N778 H790 0.984 . S
N778 H791 0.985 . S
N779 C781 1.356 . S
N779 H784 0.984 . S
N779 H785 0.985 . S
C780 C774 1.379 . S
C780 C777 1.363 . S
C780 N778 1.356 . S
C781 C775 1.363 . S
C781 C776 1.379 . S
C781 N779 1.356 . S
N782 C774 1.356 . S
N782 H788 0.984 . S
N782 H789 0.984 . S
N783 C776 1.356 . S
N783 H786 0.984 . S
N783 H787 0.985 . S
H784 N779 0.984 . S
H785 N779 0.985 . S
H786 N783 0.984 . S
H787 N783 0.985 . S
H788 N782 0.984 . S
H789 N782 0.984 . S
H790 N778 0.984 . S
H791 N778 0.985 . S
C792 C793 1.363 . S
C792 C798 1.379 . S
C792 N800 1.356 . S
C793 C792 1.363 . S
C793 C799 1.363 . S
C794 C795 1.363 . S
C794 C799 1.379 . S
C794 N801 1.356 . S
C795 C794 1.363 . S
C795 C798 1.363 . S
N796 C798 1.356 . S
N796 H808 0.984 . S
N796 H809 0.985 . S
N797 C799 1.356 . S
N797 H802 0.984 . S
N797 H803 0.985 . S
C798 C792 1.379 . S
C798 C795 1.363 . S
C798 N796 1.356 . S
C799 C793 1.363 . S
C799 C794 1.379 . S
C799 N797 1.356 . S
N800 C792 1.356 . S
N800 H806 0.984 . S
N800 H807 0.984 . S
N801 C794 1.356 . S
N801 H804 0.984 . S
N801 H805 0.985 . S
H802 N797 0.984 . S
H803 N797 0.985 . S
H804 N801 0.984 . S
H805 N801 0.985 . S
H806 N800 0.984 . S
H807 N800 0.984 . S
H808 N796 0.984 . S
H809 N796 0.985 . S
C810 C811 1.363 . S
C810 C816 1.379 . S
C810 N818 1.356 . S
C811 C810 1.363 . S
C811 C817 1.363 . S
C812 C813 1.363 . S
C812 C817 1.379 . S
C812 N819 1.356 . S
C813 C812 1.363 . S
C813 C816 1.363 . S
N814 C816 1.356 . S
N814 H826 0.984 . S
N814 H827 0.985 . S
N815 C817 1.356 . S
N815 H820 0.984 . S
N815 H821 0.985 . S
C816 C810 1.379 . S
C816 C813 1.363 . S
C816 N814 1.356 . S
C817 C811 1.363 . S
C817 C812 1.379 . S
C817 N815 1.356 . S
N818 C810 1.356 . S
N818 H824 0.984 . S
N818 H825 0.984 . S
N819 C812 1.356 . S
N819 H822 0.984 . S
N819 H823 0.985 . S
H820 N815 0.984 . S
H821 N815 0.985 . S
H822 N819 0.984 . S
H823 N819 0.985 . S
H824 N818 0.984 . S
H825 N818 0.984 . S
H826 N814 0.984 . S
H827 N814 0.985 . S
C828 C829 1.363 . S
C828 C834 1.379 . S
C828 N836 1.356 . S
C829 C828 1.363 . S
C829 C835 1.363 . S
C830 C831 1.363 . S
C830 C835 1.379 . S
C830 N837 1.356 . S
C831 C830 1.363 . S
C831 C834 1.363 . S
N832 C834 1.356 . S
N832 H844 0.984 . S
N832 H845 0.985 . S
N833 C835 1.356 . S
N833 H838 0.984 . S
N833 H839 0.985 . S
C834 C828 1.379 . S
C834 C831 1.363 . S
C834 N832 1.356 . S
C835 C829 1.363 . S
C835 C830 1.379 . S
C835 N833 1.356 . S
N836 C828 1.356 . S
N836 H842 0.984 . S
N836 H843 0.984 . S
N837 C830 1.356 . S
N837 H840 0.984 . S
N837 H841 0.985 . S
H838 N833 0.984 . S
H839 N833 0.985 . S
H840 N837 0.984 . S
H841 N837 0.985 . S
H842 N836 0.984 . S
H843 N836 0.984 . S
H844 N832 0.984 . S
H845 N832 0.985 . S
C846 C847 1.363 . S
C846 C852 1.379 . S
C846 N854 1.356 . S
C847 C846 1.363 . S
C847 C853 1.363 . S
C848 C849 1.363 . S
C848 C853 1.379 . S
C848 N855 1.356 . S
C849 C848 1.363 . S
C849 C852 1.363 . S
N850 C852 1.356 . S
N850 H862 0.984 . S
N850 H863 0.985 . S
N851 C853 1.356 . S
N851 H856 0.984 . S
N851 H857 0.985 . S
C852 C846 1.379 . S
C852 C849 1.363 . S
C852 N850 1.356 . S
C853 C847 1.363 . S
C853 C848 1.379 . S
C853 N851 1.356 . S
N854 C846 1.356 . S
N854 H860 0.984 . S
N854 H861 0.984 . S
N855 C848 1.356 . S
N855 H858 0.984 . S
N855 H859 0.985 . S
H856 N851 0.984 . S
H857 N851 0.985 . S
H858 N855 0.984 . S
H859 N855 0.985 . S
H860 N854 0.984 . S
H861 N854 0.984 . S
H862 N850 0.984 . S
H863 N850 0.985 . S
C864 C865 1.363 . S
C864 C870 1.379 . S
C864 N872 1.356 . S
C865 C864 1.363 . S
C865 C871 1.363 . S
C866 C867 1.363 . S
C866 C871 1.379 . S
C866 N873 1.356 . S
C867 C866 1.363 . S
C867 C870 1.363 . S
N868 C870 1.356 . S
N868 H880 0.984 . S
N868 H881 0.985 . S
N869 C871 1.356 . S
N869 H874 0.984 . S
N869 H875 0.985 . S
C870 C864 1.379 . S
C870 C867 1.363 . S
C870 N868 1.356 . S
C871 C865 1.363 . S
C871 C866 1.379 . S
C871 N869 1.356 . S
N872 C864 1.356 . S
N872 H878 0.984 . S
N872 H879 0.984 . S
N873 C866 1.356 . S
N873 H876 0.984 . S
N873 H877 0.985 . S
H874 N869 0.984 . S
H875 N869 0.985 . S
H876 N873 0.984 . S
H877 N873 0.985 . S
H878 N872 0.984 . S
H879 N872 0.984 . S
H880 N868 0.984 . S
H881 N868 0.985 . S
C882 C883 1.363 . S
C882 C888 1.379 . S
C882 N890 1.356 . S
C883 C882 1.363 . S
C883 C889 1.363 . S
C884 C885 1.363 . S
C884 C889 1.379 . S
C884 N891 1.356 . S
C885 C884 1.363 . S
C885 C888 1.363 . S
N886 C888 1.356 . S
N886 H898 0.984 . S
N886 H899 0.985 . S
N887 C889 1.356 . S
N887 H892 0.984 . S
N887 H893 0.985 . S
C888 C882 1.379 . S
C888 C885 1.363 . S
C888 N886 1.356 . S
C889 C883 1.363 . S
C889 C884 1.379 . S
C889 N887 1.356 . S
N890 C882 1.356 . S
N890 H896 0.984 . S
N890 H897 0.984 . S
N891 C884 1.356 . S
N891 H894 0.984 . S
N891 H895 0.985 . S
H892 N887 0.984 . S
H893 N887 0.985 . S
H894 N891 0.984 . S
H895 N891 0.985 . S
H896 N890 0.984 . S
H897 N890 0.984 . S
H898 N886 0.984 . S
H899 N886 0.985 . S
C900 C901 1.363 . S
C900 C906 1.379 . S
C900 N908 1.356 . S
C901 C900 1.363 . S
C901 C907 1.363 . S
C902 C903 1.363 . S
C902 C907 1.379 . S
C902 N909 1.356 . S
C903 C902 1.363 . S
C903 C906 1.363 . S
N904 C906 1.356 . S
N904 H916 0.984 . S
N904 H917 0.985 . S
N905 C907 1.356 . S
N905 H910 0.984 . S
N905 H911 0.985 . S
C906 C900 1.379 . S
C906 C903 1.363 . S
C906 N904 1.356 . S
C907 C901 1.363 . S
C907 C902 1.379 . S
C907 N905 1.356 . S
N908 C900 1.356 . S
N908 H914 0.984 . S
N908 H915 0.984 . S
N909 C902 1.356 . S
N909 H912 0.984 . S
N909 H913 0.985 . S
H910 N905 0.984 . S
H911 N905 0.985 . S
H912 N909 0.984 . S
H913 N909 0.985 . S
H914 N908 0.984 . S
H915 N908 0.984 . S
H916 N904 0.984 . S
H917 N904 0.985 . S
C918 C919 1.363 . S
C918 C924 1.379 . S
C918 N926 1.356 . S
C919 C918 1.363 . S
C919 C925 1.363 . S
C920 C921 1.363 . S
C920 C925 1.379 . S
C920 N927 1.356 . S
C921 C920 1.363 . S
C921 C924 1.363 . S
N922 C924 1.356 . S
N922 H934 0.984 . S
N922 H935 0.985 . S
N923 C925 1.356 . S
N923 H928 0.984 . S
N923 H929 0.985 . S
C924 C918 1.379 . S
C924 C921 1.363 . S
C924 N922 1.356 . S
C925 C919 1.363 . S
C925 C920 1.379 . S
C925 N923 1.356 . S
N926 C918 1.356 . S
N926 H932 0.984 . S
N926 H933 0.984 . S
N927 C920 1.356 . S
N927 H930 0.984 . S
N927 H931 0.985 . S
H928 N923 0.984 . S
H929 N923 0.985 . S
H930 N927 0.984 . S
H931 N927 0.985 . S
H932 N926 0.984 . S
H933 N926 0.984 . S
H934 N922 0.984 . S
H935 N922 0.985 . S
C936 C937 1.363 . S
C936 C942 1.379 . S
C936 N944 1.356 . S
C937 C936 1.363 . S
C937 C943 1.363 . S
C938 C939 1.363 . S
C938 C943 1.379 . S
C938 N945 1.356 . S
C939 C938 1.363 . S
C939 C942 1.363 . S
N940 C942 1.356 . S
N940 H952 0.984 . S
N940 H953 0.985 . S
N941 C943 1.356 . S
N941 H946 0.984 . S
N941 H947 0.985 . S
C942 C936 1.379 . S
C942 C939 1.363 . S
C942 N940 1.356 . S
C943 C937 1.363 . S
C943 C938 1.379 . S
C943 N941 1.356 . S
N944 C936 1.356 . S
N944 H950 0.984 . S
N944 H951 0.984 . S
N945 C938 1.356 . S
N945 H948 0.984 . S
N945 H949 0.985 . S
H946 N941 0.984 . S
H947 N941 0.985 . S
H948 N945 0.984 . S
H949 N945 0.985 . S
H950 N944 0.984 . S
H951 N944 0.984 . S
H952 N940 0.984 . S
H953 N940 0.985 . S
C954 C955 1.363 . S
C954 C960 1.379 . S
C954 N962 1.356 . S
C955 C954 1.363 . S
C955 C961 1.363 . S
C956 C957 1.363 . S
C956 C961 1.379 . S
C956 N963 1.356 . S
C957 C956 1.363 . S
C957 C960 1.363 . S
N958 C960 1.356 . S
N958 H970 0.984 . S
N958 H971 0.985 . S
N959 C961 1.356 . S
N959 H964 0.984 . S
N959 H965 0.985 . S
C960 C954 1.379 . S
C960 C957 1.363 . S
C960 N958 1.356 . S
C961 C955 1.363 . S
C961 C956 1.379 . S
C961 N959 1.356 . S
N962 C954 1.356 . S
N962 H968 0.984 . S
N962 H969 0.984 . S
N963 C956 1.356 . S
N963 H966 0.984 . S
N963 H967 0.985 . S
H964 N959 0.984 . S
H965 N959 0.985 . S
H966 N963 0.984 . S
H967 N963 0.985 . S
H968 N962 0.984 . S
H969 N962 0.984 . S
H970 N958 0.984 . S
H971 N958 0.985 . S
C972 C973 1.363 . S
C972 C978 1.379 . S
C972 N980 1.356 . S
C973 C972 1.363 . S
C973 C979 1.363 . S
C974 C975 1.363 . S
C974 C979 1.379 . S
C974 N981 1.356 . S
C975 C974 1.363 . S
C975 C978 1.363 . S
N976 C978 1.356 . S
N976 H988 0.984 . S
N976 H989 0.985 . S
N977 C979 1.356 . S
N977 H982 0.984 . S
N977 H983 0.985 . S
C978 C972 1.379 . S
C978 C975 1.363 . S
C978 N976 1.356 . S
C979 C973 1.363 . S
C979 C974 1.379 . S
C979 N977 1.356 . S
N980 C972 1.356 . S
N980 H986 0.984 . S
N980 H987 0.984 . S
N981 C974 1.356 . S
N981 H984 0.984 . S
N981 H985 0.985 . S
H982 N977 0.984 . S
H983 N977 0.985 . S
H984 N981 0.984 . S
H985 N981 0.985 . S
H986 N980 0.984 . S
H987 N980 0.984 . S
H988 N976 0.984 . S
H989 N976 0.985 . S
C990 C991 1.363 . S
C990 C996 1.379 . S
C990 N998 1.356 . S
C991 C990 1.363 . S
C991 C997 1.363 . S
C992 C993 1.363 . S
C992 C997 1.379 . S
C992 N999 1.356 . S
C993 C992 1.363 . S
C993 C996 1.363 . S
N994 C996 1.356 . S
N994 H1006 0.984 . S
N994 H1007 0.985 . S
N995 C997 1.356 . S
N995 H1000 0.984 . S
N995 H1001 0.985 . S
C996 C990 1.379 . S
C996 C993 1.363 . S
C996 N994 1.356 . S
C997 C991 1.363 . S
C997 C992 1.379 . S
C997 N995 1.356 . S
N998 C990 1.356 . S
N998 H1004 0.984 . S
N998 H1005 0.984 . S
N999 C992 1.356 . S
N999 H1002 0.984 . S
N999 H1003 0.985 . S
H1000 N995 0.984 . S
H1001 N995 0.985 . S
H1002 N999 0.984 . S
H1003 N999 0.985 . S
H1004 N998 0.984 . S
H1005 N998 0.984 . S
H1006 N994 0.984 . S
H1007 N994 0.985 . S
C1008 C1009 1.363 . S
C1008 C1014 1.379 . S
C1008 N1016 1.356 . S
C1009 C1008 1.363 . S
C1009 C1015 1.363 . S
C1010 C1011 1.363 . S
C1010 C1015 1.379 . S
C1010 N1017 1.356 . S
C1011 C1010 1.363 . S
C1011 C1014 1.363 . S
N1012 C1014 1.356 . S
N1012 H1024 0.984 . S
N1012 H1025 0.985 . S
N1013 C1015 1.356 . S
N1013 H1018 0.984 . S
N1013 H1019 0.985 . S
C1014 C1008 1.379 . S
C1014 C1011 1.363 . S
C1014 N1012 1.356 . S
C1015 C1009 1.363 . S
C1015 C1010 1.379 . S
C1015 N1013 1.356 . S
N1016 C1008 1.356 . S
N1016 H1022 0.984 . S
N1016 H1023 0.984 . S
N1017 C1010 1.356 . S
N1017 H1020 0.984 . S
N1017 H1021 0.985 . S
H1018 N1013 0.984 . S
H1019 N1013 0.985 . S
H1020 N1017 0.984 . S
H1021 N1017 0.985 . S
H1022 N1016 0.984 . S
H1023 N1016 0.984 . S
H1024 N1012 0.984 . S
H1025 N1012 0.985 . S
C1026 C1027 1.363 . S
C1026 C1032 1.379 . S
C1026 N1034 1.356 . S
C1027 C1026 1.363 . S
C1027 C1033 1.363 . S
C1028 C1029 1.363 . S
C1028 C1033 1.379 . S
C1028 N1035 1.356 . S
C1029 C1028 1.363 . S
C1029 C1032 1.363 . S
N1030 C1032 1.356 . S
N1030 H1042 0.984 . S
N1030 H1043 0.985 . S
N1031 C1033 1.356 . S
N1031 H1036 0.984 . S
N1031 H1037 0.985 . S
C1032 C1026 1.379 . S
C1032 C1029 1.363 . S
C1032 N1030 1.356 . S
C1033 C1027 1.363 . S
C1033 C1028 1.379 . S
C1033 N1031 1.356 . S
N1034 C1026 1.356 . S
N1034 H1040 0.984 . S
N1034 H1041 0.984 . S
N1035 C1028 1.356 . S
N1035 H1038 0.984 . S
N1035 H1039 0.985 . S
H1036 N1031 0.984 . S
H1037 N1031 0.985 . S
H1038 N1035 0.984 . S
H1039 N1035 0.985 . S
H1040 N1034 0.984 . S
H1041 N1034 0.984 . S
H1042 N1030 0.984 . S
H1043 N1030 0.985 . S
C1044 C1045 1.363 . S
C1044 C1050 1.379 . S
C1044 N1052 1.356 . S
C1045 C1044 1.363 . S
C1045 C1051 1.363 . S
C1046 C1047 1.363 . S
C1046 C1051 1.379 . S
C1046 N1053 1.356 . S
C1047 C1046 1.363 . S
C1047 C1050 1.363 . S
N1048 C1050 1.356 . S
N1048 H1060 0.984 . S
N1048 H1061 0.985 . S
N1049 C1051 1.356 . S
N1049 H1054 0.984 . S
N1049 H1055 0.985 . S
C1050 C1044 1.379 . S
C1050 C1047 1.363 . S
C1050 N1048 1.356 . S
C1051 C1045 1.363 . S
C1051 C1046 1.379 . S
C1051 N1049 1.356 . S
N1052 C1044 1.356 . S
N1052 H1058 0.984 . S
N1052 H1059 0.984 . S
N1053 C1046 1.356 . S
N1053 H1056 0.984 . S
N1053 H1057 0.985 . S
H1054 N1049 0.984 . S
H1055 N1049 0.985 . S
H1056 N1053 0.984 . S
H1057 N1053 0.985 . S
H1058 N1052 0.984 . S
H1059 N1052 0.984 . S
H1060 N1048 0.984 . S
H1061 N1048 0.985 . S
C1062 C1063 1.363 . S
C1062 C1068 1.379 . S
C1062 N1070 1.356 . S
C1063 C1062 1.363 . S
C1063 C1069 1.363 . S
C1064 C1065 1.363 . S
C1064 C1069 1.379 . S
C1064 N1071 1.356 . S
C1065 C1064 1.363 . S
C1065 C1068 1.363 . S
N1066 C1068 1.356 . S
N1066 H1078 0.984 . S
N1066 H1079 0.985 . S
N1067 C1069 1.356 . S
N1067 H1072 0.984 . S
N1067 H1073 0.985 . S
C1068 C1062 1.379 . S
C1068 C1065 1.363 . S
C1068 N1066 1.356 . S
C1069 C1063 1.363 . S
C1069 C1064 1.379 . S
C1069 N1067 1.356 . S
N1070 C1062 1.356 . S
N1070 H1076 0.984 . S
N1070 H1077 0.984 . S
N1071 C1064 1.356 . S
N1071 H1074 0.984 . S
N1071 H1075 0.985 . S
H1072 N1067 0.984 . S
H1073 N1067 0.985 . S
H1074 N1071 0.984 . S
H1075 N1071 0.985 . S
H1076 N1070 0.984 . S
H1077 N1070 0.984 . S
H1078 N1066 0.984 . S
H1079 N1066 0.985 . S
C1080 C1081 1.363 . S
C1080 C1086 1.379 . S
C1080 N1088 1.356 . S
C1081 C1080 1.363 . S
C1081 C1087 1.363 . S
C1082 C1083 1.363 . S
C1082 C1087 1.379 . S
C1082 N1089 1.356 . S
C1083 C1082 1.363 . S
C1083 C1086 1.363 . S
N1084 C1086 1.356 . S
N1084 H1096 0.984 . S
N1084 H1097 0.985 . S
N1085 C1087 1.356 . S
N1085 H1090 0.984 . S
N1085 H1091 0.985 . S
C1086 C1080 1.379 . S
C1086 C1083 1.363 . S
C1086 N1084 1.356 . S
C1087 C1081 1.363 . S
C1087 C1082 1.379 . S
C1087 N1085 1.356 . S
N1088 C1080 1.356 . S
N1088 H1094 0.984 . S
N1088 H1095 0.984 . S
N1089 C1082 1.356 . S
N1089 H1092 0.984 . S
N1089 H1093 0.985 . S
H1090 N1085 0.984 . S
H1091 N1085 0.985 . S
H1092 N1089 0.984 . S
H1093 N1089 0.985 . S
H1094 N1088 0.984 . S
H1095 N1088 0.984 . S
H1096 N1084 0.984 . S
H1097 N1084 0.985 . S
C1098 C1099 1.363 . S
C1098 C1104 1.379 . S
C1098 N1106 1.356 . S
C1099 C1098 1.363 . S
C1099 C1105 1.363 . S
C1100 C1101 1.363 . S
C1100 C1105 1.379 . S
C1100 N1107 1.356 . S
C1101 C1100 1.363 . S
C1101 C1104 1.363 . S
N1102 C1104 1.356 . S
N1102 H1114 0.984 . S
N1102 H1115 0.985 . S
N1103 C1105 1.356 . S
N1103 H1108 0.984 . S
N1103 H1109 0.985 . S
C1104 C1098 1.379 . S
C1104 C1101 1.363 . S
C1104 N1102 1.356 . S
C1105 C1099 1.363 . S
C1105 C1100 1.379 . S
C1105 N1103 1.356 . S
N1106 C1098 1.356 . S
N1106 H1112 0.984 . S
N1106 H1113 0.984 . S
N1107 C1100 1.356 . S
N1107 H1110 0.984 . S
N1107 H1111 0.985 . S
H1108 N1103 0.984 . S
H1109 N1103 0.985 . S
H1110 N1107 0.984 . S
H1111 N1107 0.985 . S
H1112 N1106 0.984 . S
H1113 N1106 0.984 . S
H1114 N1102 0.984 . S
H1115 N1102 0.985 . S
C1116 C1117 1.363 . S
C1116 C1122 1.379 . S
C1116 N1124 1.356 . S
C1117 C1116 1.363 . S
C1117 C1123 1.363 . S
C1118 C1119 1.363 . S
C1118 C1123 1.379 . S
C1118 N1125 1.356 . S
C1119 C1118 1.363 . S
C1119 C1122 1.363 . S
N1120 C1122 1.356 . S
N1120 H1132 0.984 . S
N1120 H1133 0.985 . S
N1121 C1123 1.356 . S
N1121 H1126 0.984 . S
N1121 H1127 0.985 . S
C1122 C1116 1.379 . S
C1122 C1119 1.363 . S
C1122 N1120 1.356 . S
C1123 C1117 1.363 . S
C1123 C1118 1.379 . S
C1123 N1121 1.356 . S
N1124 C1116 1.356 . S
N1124 H1130 0.984 . S
N1124 H1131 0.984 . S
N1125 C1118 1.356 . S
N1125 H1128 0.984 . S
N1125 H1129 0.985 . S
H1126 N1121 0.984 . S
H1127 N1121 0.985 . S
H1128 N1125 0.984 . S
H1129 N1125 0.985 . S
H1130 N1124 0.984 . S
H1131 N1124 0.984 . S
H1132 N1120 0.984 . S
H1133 N1120 0.985 . S
C1134 C1135 1.363 . S
C1134 C1140 1.379 . S
C1134 N1142 1.356 . S
C1135 C1134 1.363 . S
C1135 C1141 1.363 . S
C1136 C1137 1.363 . S
C1136 C1141 1.379 . S
C1136 N1143 1.356 . S
C1137 C1136 1.363 . S
C1137 C1140 1.363 . S
N1138 C1140 1.356 . S
N1138 H1150 0.984 . S
N1138 H1151 0.985 . S
N1139 C1141 1.356 . S
N1139 H1144 0.984 . S
N1139 H1145 0.985 . S
C1140 C1134 1.379 . S
C1140 C1137 1.363 . S
C1140 N1138 1.356 . S
C1141 C1135 1.363 . S
C1141 C1136 1.379 . S
C1141 N1139 1.356 . S
N1142 C1134 1.356 . S
N1142 H1148 0.984 . S
N1142 H1149 0.984 . S
N1143 C1136 1.356 . S
N1143 H1146 0.984 . S
N1143 H1147 0.985 . S
H1144 N1139 0.984 . S
H1145 N1139 0.985 . S
H1146 N1143 0.984 . S
H1147 N1143 0.985 . S
H1148 N1142 0.984 . S
H1149 N1142 0.984 . S
H1150 N1138 0.984 . S
H1151 N1138 0.985 . S
C1152 C1153 1.363 . S
C1152 C1158 1.379 . S
C1152 N1160 1.356 . S
C1153 C1152 1.363 . S
C1153 C1159 1.363 . S
C1154 C1155 1.363 . S
C1154 C1159 1.379 . S
C1154 N1161 1.356 . S
C1155 C1154 1.363 . S
C1155 C1158 1.363 . S
N1156 C1158 1.356 . S
N1156 H1168 0.984 . S
N1156 H1169 0.985 . S
N1157 C1159 1.356 . S
N1157 H1162 0.984 . S
N1157 H1163 0.985 . S
C1158 C1152 1.379 . S
C1158 C1155 1.363 . S
C1158 N1156 1.356 . S
C1159 C1153 1.363 . S
C1159 C1154 1.379 . S
C1159 N1157 1.356 . S
N1160 C1152 1.356 . S
N1160 H1166 0.984 . S
N1160 H1167 0.984 . S
N1161 C1154 1.356 . S
N1161 H1164 0.984 . S
N1161 H1165 0.985 . S
H1162 N1157 0.984 . S
H1163 N1157 0.985 . S
H1164 N1161 0.984 . S
H1165 N1161 0.985 . S
H1166 N1160 0.984 . S
H1167 N1160 0.984 . S
H1168 N1156 0.984 . S
H1169 N1156 0.985 . S
C1170 C1171 1.363 . S
C1170 C1176 1.379 . S
C1170 N1178 1.356 . S
C1171 C1170 1.363 . S
C1171 C1177 1.363 . S
C1172 C1173 1.363 . S
C1172 C1177 1.379 . S
C1172 N1179 1.356 . S
C1173 C1172 1.363 . S
C1173 C1176 1.363 . S
N1174 C1176 1.356 . S
N1174 H1186 0.984 . S
N1174 H1187 0.985 . S
N1175 C1177 1.356 . S
N1175 H1180 0.984 . S
N1175 H1181 0.985 . S
C1176 C1170 1.379 . S
C1176 C1173 1.363 . S
C1176 N1174 1.356 . S
C1177 C1171 1.363 . S
C1177 C1172 1.379 . S
C1177 N1175 1.356 . S
N1178 C1170 1.356 . S
N1178 H1184 0.984 . S
N1178 H1185 0.984 . S
N1179 C1172 1.356 . S
N1179 H1182 0.984 . S
N1179 H1183 0.985 . S
H1180 N1175 0.984 . S
H1181 N1175 0.985 . S
H1182 N1179 0.984 . S
H1183 N1179 0.985 . S
H1184 N1178 0.984 . S
H1185 N1178 0.984 . S
H1186 N1174 0.984 . S
H1187 N1174 0.985 . S
C1188 C1189 1.363 . S
C1188 C1194 1.379 . S
C1188 N1196 1.356 . S
C1189 C1188 1.363 . S
C1189 C1195 1.363 . S
C1190 C1191 1.363 . S
C1190 C1195 1.379 . S
C1190 N1197 1.356 . S
C1191 C1190 1.363 . S
C1191 C1194 1.363 . S
N1192 C1194 1.356 . S
N1192 H1204 0.984 . S
N1192 H1205 0.985 . S
N1193 C1195 1.356 . S
N1193 H1198 0.984 . S
N1193 H1199 0.985 . S
C1194 C1188 1.379 . S
C1194 C1191 1.363 . S
C1194 N1192 1.356 . S
C1195 C1189 1.363 . S
C1195 C1190 1.379 . S
C1195 N1193 1.356 . S
N1196 C1188 1.356 . S
N1196 H1202 0.984 . S
N1196 H1203 0.984 . S
N1197 C1190 1.356 . S
N1197 H1200 0.984 . S
N1197 H1201 0.985 . S
H1198 N1193 0.984 . S
H1199 N1193 0.985 . S
H1200 N1197 0.984 . S
H1201 N1197 0.985 . S
H1202 N1196 0.984 . S
H1203 N1196 0.984 . S
H1204 N1192 0.984 . S
H1205 N1192 0.985 . S
C1206 C1207 1.363 . S
C1206 C1212 1.379 . S
C1206 N1214 1.356 . S
C1207 C1206 1.363 . S
C1207 C1213 1.363 . S
C1208 C1209 1.363 . S
C1208 C1213 1.379 . S
C1208 N1215 1.356 . S
C1209 C1208 1.363 . S
C1209 C1212 1.363 . S
N1210 C1212 1.356 . S
N1210 H1222 0.984 . S
N1210 H1223 0.985 . S
N1211 C1213 1.356 . S
N1211 H1216 0.984 . S
N1211 H1217 0.985 . S
C1212 C1206 1.379 . S
C1212 C1209 1.363 . S
C1212 N1210 1.356 . S
C1213 C1207 1.363 . S
C1213 C1208 1.379 . S
C1213 N1211 1.356 . S
N1214 C1206 1.356 . S
N1214 H1220 0.984 . S
N1214 H1221 0.984 . S
N1215 C1208 1.356 . S
N1215 H1218 0.984 . S
N1215 H1219 0.985 . S
H1216 N1211 0.984 . S
H1217 N1211 0.985 . S
H1218 N1215 0.984 . S
H1219 N1215 0.985 . S
H1220 N1214 0.984 . S
H1221 N1214 0.984 . S
H1222 N1210 0.984 . S
H1223 N1210 0.985 . S
C1224 C1225 1.363 . S
C1224 C1230 1.379 . S
C1224 N1232 1.356 . S
C1225 C1224 1.363 . S
C1225 C1231 1.363 . S
C1226 C1227 1.363 . S
C1226 C1231 1.379 . S
C1226 N1233 1.356 . S
C1227 C1226 1.363 . S
C1227 C1230 1.363 . S
N1228 C1230 1.356 . S
N1228 H1240 0.984 . S
N1228 H1241 0.985 . S
N1229 C1231 1.356 . S
N1229 H1234 0.984 . S
N1229 H1235 0.985 . S
C1230 C1224 1.379 . S
C1230 C1227 1.363 . S
C1230 N1228 1.356 . S
C1231 C1225 1.363 . S
C1231 C1226 1.379 . S
C1231 N1229 1.356 . S
N1232 C1224 1.356 . S
N1232 H1238 0.984 . S
N1232 H1239 0.984 . S
N1233 C1226 1.356 . S
N1233 H1236 0.984 . S
N1233 H1237 0.985 . S
H1234 N1229 0.984 . S
H1235 N1229 0.985 . S
H1236 N1233 0.984 . S
H1237 N1233 0.985 . S
H1238 N1232 0.984 . S
H1239 N1232 0.984 . S
H1240 N1228 0.984 . S
H1241 N1228 0.985 . S
C1242 C1243 1.363 . S
C1242 C1248 1.379 . S
C1242 N1250 1.356 . S
C1243 C1242 1.363 . S
C1243 C1249 1.363 . S
C1244 C1245 1.363 . S
C1244 C1249 1.379 . S
C1244 N1251 1.356 . S
C1245 C1244 1.363 . S
C1245 C1248 1.363 . S
N1246 C1248 1.356 . S
N1246 H1258 0.984 . S
N1246 H1259 0.985 . S
N1247 C1249 1.356 . S
N1247 H1252 0.984 . S
N1247 H1253 0.985 . S
C1248 C1242 1.379 . S
C1248 C1245 1.363 . S
C1248 N1246 1.356 . S
C1249 C1243 1.363 . S
C1249 C1244 1.379 . S
C1249 N1247 1.356 . S
N1250 C1242 1.356 . S
N1250 H1256 0.984 . S
N1250 H1257 0.984 . S
N1251 C1244 1.356 . S
N1251 H1254 0.984 . S
N1251 H1255 0.985 . S
H1252 N1247 0.984 . S
H1253 N1247 0.985 . S
H1254 N1251 0.984 . S
H1255 N1251 0.985 . S
H1256 N1250 0.984 . S
H1257 N1250 0.984 . S
H1258 N1246 0.984 . S
H1259 N1246 0.985 . S
C1260 C1261 1.363 . S
C1260 C1266 1.379 . S
C1260 N1268 1.356 1_556 S
C1261 C1260 1.363 . S
C1261 C1267 1.363 . S
C1262 C1263 1.363 . S
C1262 C1267 1.379 . S
C1262 N1269 1.356 . S
C1263 C1262 1.363 . S
C1263 C1266 1.363 . S
N1264 C1266 1.356 . S
N1264 H1276 0.984 . S
N1264 H1277 0.985 . S
N1265 C1267 1.356 . S
N1265 H1270 0.984 . S
N1265 H1271 0.985 . S
C1266 C1260 1.379 . S
C1266 C1263 1.363 . S
C1266 N1264 1.356 . S
C1267 C1261 1.363 . S
C1267 C1262 1.379 . S
C1267 N1265 1.356 . S
N1268 C1260 1.356 1_554 S
N1268 H1274 0.984 . S
N1268 H1275 0.984 . S
N1269 C1262 1.356 . S
N1269 H1272 0.984 . S
N1269 H1273 0.985 . S
H1270 N1265 0.984 . S
H1271 N1265 0.985 . S
H1272 N1269 0.984 . S
H1273 N1269 0.985 . S
H1274 N1268 0.984 . S
H1275 N1268 0.984 . S
H1276 N1264 0.984 . S
H1277 N1264 0.985 . S
C1278 C1279 1.363 . S
C1278 C1284 1.379 . S
C1278 N1286 1.356 . S
C1279 C1278 1.363 . S
C1279 C1285 1.363 . S
C1280 C1281 1.363 . S
C1280 C1285 1.379 . S
C1280 N1287 1.356 . S
C1281 C1280 1.363 . S
C1281 C1284 1.363 . S
N1282 C1284 1.356 . S
N1282 H1294 0.984 . S
N1282 H1295 0.985 . S
N1283 C1285 1.356 . S
N1283 H1288 0.984 1_556 S
N1283 H1289 0.985 1_556 S
C1284 C1278 1.379 . S
C1284 C1281 1.363 . S
C1284 N1282 1.356 . S
C1285 C1279 1.363 . S
C1285 C1280 1.379 . S
C1285 N1283 1.356 . S
N1286 C1278 1.356 . S
N1286 H1292 0.984 . S
N1286 H1293 0.984 . S
N1287 C1280 1.356 . S
N1287 H1290 0.984 . S
N1287 H1291 0.985 . S
H1288 N1283 0.984 1_554 S
H1289 N1283 0.985 1_554 S
H1290 N1287 0.984 . S
H1291 N1287 0.985 . S
H1292 N1286 0.984 . S
H1293 N1286 0.984 . S
H1294 N1282 0.984 . S
H1295 N1282 0.985 . S
C1296 C1297 1.363 . S
C1296 C1302 1.379 . S
C1296 N1304 1.356 1_556 S
C1297 C1296 1.363 . S
C1297 C1303 1.363 . S
C1298 C1299 1.363 . S
C1298 C1303 1.379 . S
C1298 N1305 1.356 . S
C1299 C1298 1.363 . S
C1299 C1302 1.363 . S
N1300 C1302 1.356 . S
N1300 H1312 0.984 . S
N1300 H1313 0.985 . S
N1301 C1303 1.356 . S
N1301 H1306 0.984 . S
N1301 H1307 0.985 . S
C1302 C1296 1.379 . S
C1302 C1299 1.363 . S
C1302 N1300 1.356 . S
C1303 C1297 1.363 . S
C1303 C1298 1.379 . S
C1303 N1301 1.356 . S
N1304 C1296 1.356 1_554 S
N1304 H1310 0.984 . S
N1304 H1311 0.984 . S
N1305 C1298 1.356 . S
N1305 H1308 0.984 . S
N1305 H1309 0.985 . S
H1306 N1301 0.984 . S
H1307 N1301 0.985 . S
H1308 N1305 0.984 . S
H1309 N1305 0.985 . S
H1310 N1304 0.984 . S
H1311 N1304 0.984 . S
H1312 N1300 0.984 . S
H1313 N1300 0.985 . S
C1314 C1315 1.363 . S
C1314 C1320 1.379 . S
C1314 N1322 1.356 1_556 S
C1315 C1314 1.363 . S
C1315 C1321 1.363 . S
C1316 C1317 1.363 . S
C1316 C1321 1.379 . S
C1316 N1323 1.356 . S
C1317 C1316 1.363 . S
C1317 C1320 1.363 . S
N1318 C1320 1.356 . S
N1318 H1330 0.984 . S
N1318 H1331 0.985 . S
N1319 C1321 1.356 . S
N1319 H1324 0.984 . S
N1319 H1325 0.985 . S
C1320 C1314 1.379 . S
C1320 C1317 1.363 . S
C1320 N1318 1.356 . S
C1321 C1315 1.363 . S
C1321 C1316 1.379 . S
C1321 N1319 1.356 . S
N1322 C1314 1.356 1_554 S
N1322 H1328 0.984 . S
N1322 H1329 0.984 . S
N1323 C1316 1.356 . S
N1323 H1326 0.984 . S
N1323 H1327 0.985 . S
H1324 N1319 0.984 . S
H1325 N1319 0.985 . S
H1326 N1323 0.984 . S
H1327 N1323 0.985 . S
H1328 N1322 0.984 . S
H1329 N1322 0.984 . S
H1330 N1318 0.984 . S
H1331 N1318 0.985 . S
C1332 C1333 1.363 . S
C1332 C1338 1.379 . S
C1332 N1340 1.356 1_556 S
C1333 C1332 1.363 . S
C1333 C1339 1.363 . S
C1334 C1335 1.363 . S
C1334 C1339 1.379 . S
C1334 N1341 1.356 . S
C1335 C1334 1.363 . S
C1335 C1338 1.363 . S
N1336 C1338 1.356 . S
N1336 H1348 0.984 1_556 S
N1336 H1349 0.985 . S
N1337 C1339 1.356 . S
N1337 H1342 0.984 . S
N1337 H1343 0.985 . S
C1338 C1332 1.379 . S
C1338 C1335 1.363 . S
C1338 N1336 1.356 . S
C1339 C1333 1.363 . S
C1339 C1334 1.379 . S
C1339 N1337 1.356 . S
N1340 C1332 1.356 1_554 S
N1340 H1346 0.984 . S
N1340 H1347 0.984 . S
N1341 C1334 1.356 . S
N1341 H1344 0.984 . S
N1341 H1345 0.985 . S
H1342 N1337 0.984 . S
H1343 N1337 0.985 . S
H1344 N1341 0.984 . S
H1345 N1341 0.985 . S
H1346 N1340 0.984 . S
H1347 N1340 0.984 . S
H1348 N1336 0.984 1_554 S
H1349 N1336 0.985 . S
C1350 C1351 1.363 . S
C1350 C1356 1.379 . S
C1350 N1358 1.356 1_556 S
C1351 C1350 1.363 . S
C1351 C1357 1.363 . S
C1352 C1353 1.363 . S
C1352 C1357 1.379 . S
C1352 N1359 1.356 . S
C1353 C1352 1.363 . S
C1353 C1356 1.363 . S
N1354 C1356 1.356 . S
N1354 H1366 0.984 . S
N1354 H1367 0.985 . S
N1355 C1357 1.356 . S
N1355 H1360 0.984 . S
N1355 H1361 0.985 . S
C1356 C1350 1.379 . S
C1356 C1353 1.363 . S
C1356 N1354 1.356 . S
C1357 C1351 1.363 . S
C1357 C1352 1.379 . S
C1357 N1355 1.356 . S
N1358 C1350 1.356 1_554 S
N1358 H1364 0.984 . S
N1358 H1365 0.984 . S
N1359 C1352 1.356 . S
N1359 H1362 0.984 . S
N1359 H1363 0.985 . S
H1360 N1355 0.984 . S
H1361 N1355 0.985 . S
H1362 N1359 0.984 . S
H1363 N1359 0.985 . S
H1364 N1358 0.984 . S
H1365 N1358 0.984 . S
H1366 N1354 0.984 . S
H1367 N1354 0.985 . S
C1368 C1369 1.363 . S
C1368 C1374 1.379 . S
C1368 N1376 1.356 . S
C1369 C1368 1.363 . S
C1369 C1375 1.363 . S
C1370 C1371 1.363 . S
C1370 C1375 1.379 . S
C1370 N1377 1.356 . S
C1371 C1370 1.363 . S
C1371 C1374 1.363 . S
N1372 C1374 1.356 . S
N1372 H1384 0.984 . S
N1372 H1385 0.985 . S
N1373 C1375 1.356 . S
N1373 H1378 0.984 . S
N1373 H1379 0.985 1_554 S
C1374 C1368 1.379 . S
C1374 C1371 1.363 . S
C1374 N1372 1.356 . S
C1375 C1369 1.363 . S
C1375 C1370 1.379 . S
C1375 N1373 1.356 . S
N1376 C1368 1.356 . S
N1376 H1382 0.984 . S
N1376 H1383 0.984 . S
N1377 C1370 1.356 . S
N1377 H1380 0.984 . S
N1377 H1381 0.985 . S
H1378 N1373 0.984 . S
H1379 N1373 0.985 1_556 S
H1380 N1377 0.984 . S
H1381 N1377 0.985 . S
H1382 N1376 0.984 . S
H1383 N1376 0.984 . S
H1384 N1372 0.984 . S
H1385 N1372 0.985 . S
C1386 C1387 1.363 . S
C1386 C1392 1.379 . S
C1386 N1394 1.356 . S
C1387 C1386 1.363 . S
C1387 C1393 1.363 . S
C1388 C1389 1.363 . S
C1388 C1393 1.379 . S
C1388 N1395 1.356 . S
C1389 C1388 1.363 . S
C1389 C1392 1.363 . S
N1390 C1392 1.356 . S
N1390 H1402 0.984 . S
N1390 H1403 0.985 . S
N1391 C1393 1.356 . S
N1391 H1396 0.984 . S
N1391 H1397 0.976 1_554 S
C1392 C1386 1.379 . S
C1392 C1389 1.363 . S
C1392 N1390 1.356 . S
C1393 C1387 1.363 . S
C1393 C1388 1.379 . S
C1393 N1391 1.356 . S
N1394 C1386 1.356 . S
N1394 H1400 0.984 . S
N1394 H1401 0.984 . S
N1395 C1388 1.356 . S
N1395 H1398 0.984 . S
N1395 H1399 0.985 . S
H1396 N1391 0.984 . S
H1397 N1391 0.976 1_556 S
H1398 N1395 0.984 . S
H1399 N1395 0.985 . S
H1400 N1394 0.984 . S
H1401 N1394 0.984 . S
H1402 N1390 0.984 . S
H1403 N1390 0.985 . S
C1404 C1405 1.363 . S
C1404 C1410 1.379 . S
C1404 N1412 1.356 . S
C1405 C1404 1.363 . S
C1405 C1411 1.363 . S
C1406 C1407 1.363 . S
C1406 C1411 1.379 . S
C1406 N1413 1.356 . S
C1407 C1406 1.363 . S
C1407 C1410 1.363 . S
N1408 C1410 1.356 . S
N1408 H1420 0.984 . S
N1408 H1421 0.985 . S
N1409 C1411 1.356 . S
N1409 H1414 0.984 . S
N1409 H1415 0.985 1_554 S
C1410 C1404 1.379 . S
C1410 C1407 1.363 . S
C1410 N1408 1.356 . S
C1411 C1405 1.363 . S
C1411 C1406 1.379 . S
C1411 N1409 1.356 . S
N1412 C1404 1.356 . S
N1412 H1418 0.984 . S
N1412 H1419 0.984 . S
N1413 C1406 1.356 . S
N1413 H1416 0.984 . S
N1413 H1417 0.985 . S
H1414 N1409 0.984 . S
H1415 N1409 0.985 1_556 S
H1416 N1413 0.984 . S
H1417 N1413 0.985 . S
H1418 N1412 0.984 . S
H1419 N1412 0.984 . S
H1420 N1408 0.984 . S
H1421 N1408 0.985 . S
C1422 C1423 1.363 . S
C1422 C1428 1.379 . S
C1422 N1430 1.356 . S
C1423 C1422 1.363 . S
C1423 C1429 1.363 . S
C1424 C1425 1.363 . S
C1424 C1429 1.379 . S
C1424 N1431 1.356 . S
C1425 C1424 1.363 . S
C1425 C1428 1.363 . S
N1426 C1428 1.356 . S
N1426 H1438 0.984 . S
N1426 H1439 0.985 . S
N1427 C1429 1.356 . S
N1427 H1432 0.984 . S
N1427 H1433 0.985 . S
C1428 C1422 1.379 . S
C1428 C1425 1.363 . S
C1428 N1426 1.356 . S
C1429 C1423 1.363 . S
C1429 C1424 1.379 . S
C1429 N1427 1.356 . S
N1430 C1422 1.356 . S
N1430 H1436 0.984 . S
N1430 H1437 0.984 . S
N1431 C1424 1.356 . S
N1431 H1434 0.984 . S
N1431 H1435 0.985 . S
H1432 N1427 0.984 . S
H1433 N1427 0.985 . S
H1434 N1431 0.984 . S
H1435 N1431 0.985 . S
H1436 N1430 0.984 . S
H1437 N1430 0.984 . S
H1438 N1426 0.984 . S
H1439 N1426 0.985 . S
C1440 C1441 1.363 . S
C1440 C1446 1.379 . S
C1440 N1448 1.356 . S
C1441 C1440 1.363 . S
C1441 C1447 1.363 . S
C1442 C1443 1.363 . S
C1442 C1447 1.379 . S
C1442 N1449 1.356 . S
C1443 C1442 1.363 . S
C1443 C1446 1.363 . S
N1444 C1446 1.356 . S
N1444 H1456 0.984 . S
N1444 H1457 0.985 . S
N1445 C1447 1.356 . S
N1445 H1450 0.984 . S
N1445 H1451 0.985 . S
C1446 C1440 1.379 . S
C1446 C1443 1.363 . S
C1446 N1444 1.356 . S
C1447 C1441 1.363 . S
C1447 C1442 1.379 . S
C1447 N1445 1.356 . S
N1448 C1440 1.356 . S
N1448 H1454 0.984 . S
N1448 H1455 0.984 . S
N1449 C1442 1.356 . S
N1449 H1452 0.984 . S
N1449 H1453 0.985 . S
H1450 N1445 0.984 . S
H1451 N1445 0.985 . S
H1452 N1449 0.984 . S
H1453 N1449 0.985 . S
H1454 N1448 0.984 . S
H1455 N1448 0.984 . S
H1456 N1444 0.984 . S
H1457 N1444 0.985 . S
C1458 C1459 1.363 . S
C1458 C1464 1.379 . S
C1458 N1466 1.356 . S
C1459 C1458 1.363 . S
C1459 C1465 1.363 . S
C1460 C1461 1.363 . S
C1460 C1465 1.379 . S
C1460 N1467 1.356 . S
C1461 C1460 1.363 . S
C1461 C1464 1.363 . S
N1462 C1464 1.356 . S
N1462 H1474 0.984 . S
N1462 H1475 0.985 . S
N1463 C1465 1.356 . S
N1463 H1468 0.984 . S
N1463 H1469 0.985 . S
C1464 C1458 1.379 . S
C1464 C1461 1.363 . S
C1464 N1462 1.356 . S
C1465 C1459 1.363 . S
C1465 C1460 1.379 . S
C1465 N1463 1.356 . S
N1466 C1458 1.356 . S
N1466 H1472 0.984 . S
N1466 H1473 0.984 . S
N1467 C1460 1.356 . S
N1467 H1470 0.984 . S
N1467 H1471 0.985 . S
H1468 N1463 0.984 . S
H1469 N1463 0.985 . S
H1470 N1467 0.984 . S
H1471 N1467 0.985 . S
H1472 N1466 0.984 . S
H1473 N1466 0.984 . S
H1474 N1462 0.984 . S
H1475 N1462 0.985 . S
C1476 C1477 1.363 . S
C1476 C1482 1.379 . S
C1476 N1484 1.356 . S
C1477 C1476 1.363 . S
C1477 C1483 1.363 . S
C1478 C1479 1.363 . S
C1478 C1483 1.379 . S
C1478 N1485 1.356 . S
C1479 C1478 1.363 . S
C1479 C1482 1.363 . S
N1480 C1482 1.356 . S
N1480 H1492 0.984 1_455 S
N1480 H1493 0.985 . S
N1481 C1483 1.356 . S
N1481 H1486 0.984 . S
N1481 H1487 0.985 . S
C1482 C1476 1.379 . S
C1482 C1479 1.363 . S
C1482 N1480 1.356 . S
C1483 C1477 1.363 . S
C1483 C1478 1.379 . S
C1483 N1481 1.356 . S
N1484 C1476 1.356 . S
N1484 H1490 0.984 1_455 S
N1484 H1491 0.984 . S
N1485 C1478 1.356 . S
N1485 H1488 0.984 . S
N1485 H1489 0.985 . S
H1486 N1481 0.984 . S
H1487 N1481 0.985 . S
H1488 N1485 0.984 . S
H1489 N1485 0.985 . S
H1490 N1484 0.984 1_655 S
H1491 N1484 0.984 . S
H1492 N1480 0.984 1_655 S
H1493 N1480 0.985 . S
C1494 C1495 1.363 . S
C1494 C1500 1.379 . S
C1494 N1502 1.356 . S
C1495 C1494 1.363 . S
C1495 C1501 1.363 . S
C1496 C1497 1.363 . S
C1496 C1501 1.379 . S
C1496 N1503 1.356 . S
C1497 C1496 1.363 . S
C1497 C1500 1.363 . S
N1498 C1500 1.356 . S
N1498 H1510 0.984 . S
N1498 H1511 0.985 . S
N1499 C1501 1.356 . S
N1499 H1504 0.984 . S
N1499 H1505 0.985 . S
C1500 C1494 1.379 . S
C1500 C1497 1.363 . S
C1500 N1498 1.356 . S
C1501 C1495 1.363 . S
C1501 C1496 1.379 . S
C1501 N1499 1.356 . S
N1502 C1494 1.356 . S
N1502 H1508 0.984 . S
N1502 H1509 0.984 . S
N1503 C1496 1.356 . S
N1503 H1506 0.984 . S
N1503 H1507 0.985 . S
H1504 N1499 0.984 . S
H1505 N1499 0.985 . S
H1506 N1503 0.984 . S
H1507 N1503 0.985 . S
H1508 N1502 0.984 . S
H1509 N1502 0.984 . S
H1510 N1498 0.984 . S
H1511 N1498 0.985 . S
C1512 C1513 1.363 . S
C1512 C1518 1.379 . S
C1512 N1520 1.356 . S
C1513 C1512 1.363 . S
C1513 C1519 1.363 1_565 S
C1514 C1515 1.363 1_545 S
C1514 C1519 1.379 . S
C1514 N1521 1.356 . S
C1515 C1514 1.363 1_565 S
C1515 C1518 1.363 . S
N1516 C1518 1.356 . S
N1516 H1528 0.984 . S
N1516 H1529 0.985 . S
N1517 C1519 1.356 . S
N1517 H1522 0.984 . S
N1517 H1523 0.985 . S
C1518 C1512 1.379 . S
C1518 C1515 1.363 . S
C1518 N1516 1.356 . S
C1519 C1513 1.363 1_545 S
C1519 C1514 1.379 . S
C1519 N1517 1.356 . S
N1520 C1512 1.356 . S
N1520 H1526 0.984 . S
N1520 H1527 0.984 . S
N1521 C1514 1.356 . S
N1521 H1524 0.984 . S
N1521 H1525 0.985 . S
H1522 N1517 0.984 . S
H1523 N1517 0.985 . S
H1524 N1521 0.984 . S
H1525 N1521 0.985 . S
H1526 N1520 0.984 . S
H1527 N1520 0.984 . S
H1528 N1516 0.984 . S
H1529 N1516 0.985 . S
C1530 C1531 1.363 1_545 S
C1530 C1536 1.379 . S
C1530 N1538 1.356 . S
C1531 C1530 1.363 1_565 S
C1531 C1537 1.363 . S
C1532 C1533 1.367 . S
C1532 C1537 1.379 . S
C1532 N1539 1.356 . S
C1533 C1532 1.367 . S
C1533 C1536 1.361 1_565 S
N1534 C1536 1.356 . S
N1534 H1546 0.984 . S
N1534 H1547 0.985 . S
N1535 C1537 1.356 . S
N1535 H1540 0.984 . S
N1535 H1541 0.985 . S
C1536 C1530 1.379 . S
C1536 C1533 1.361 1_545 S
C1536 N1534 1.356 . S
C1537 C1531 1.363 . S
C1537 C1532 1.379 . S
C1537 N1535 1.356 . S
N1538 C1530 1.356 . S
N1538 H1544 0.984 . S
N1538 H1545 0.984 . S
N1539 C1532 1.356 . S
N1539 H1542 0.984 . S
N1539 H1543 0.985 . S
H1540 N1535 0.984 . S
H1541 N1535 0.985 . S
H1542 N1539 0.984 . S
H1543 N1539 0.985 . S
H1544 N1538 0.984 . S
H1545 N1538 0.984 . S
H1546 N1534 0.984 . S
H1547 N1534 0.985 . S
C1548 C1549 1.363 . S
C1548 C1554 1.379 . S
C1548 N1556 1.356 . S
C1549 C1548 1.363 . S
C1549 C1555 1.363 . S
C1550 C1551 1.363 . S
C1550 C1555 1.379 . S
C1550 N1557 1.356 . S
C1551 C1550 1.363 . S
C1551 C1554 1.363 . S
N1552 C1554 1.356 . S
N1552 H1564 0.984 . S
N1552 H1565 0.985 . S
N1553 C1555 1.356 . S
N1553 H1558 0.984 . S
N1553 H1559 0.985 . S
C1554 C1548 1.379 . S
C1554 C1551 1.363 . S
C1554 N1552 1.356 . S
C1555 C1549 1.363 . S
C1555 C1550 1.379 . S
C1555 N1553 1.356 . S
N1556 C1548 1.356 . S
N1556 H1562 0.984 . S
N1556 H1563 0.984 . S
N1557 C1550 1.356 . S
N1557 H1560 0.984 . S
N1557 H1561 0.985 . S
H1558 N1553 0.984 . S
H1559 N1553 0.985 . S
H1560 N1557 0.984 . S
H1561 N1557 0.985 . S
H1562 N1556 0.984 . S
H1563 N1556 0.984 . S
H1564 N1552 0.984 . S
H1565 N1552 0.985 . S
C1566 C1567 1.363 . S
C1566 C1572 1.379 . S
C1566 N1574 1.356 . S
C1567 C1566 1.363 . S
C1567 C1573 1.363 . S
C1568 C1569 1.363 . S
C1568 C1573 1.379 . S
C1568 N1575 1.356 . S
C1569 C1568 1.363 . S
C1569 C1572 1.363 . S
N1570 C1572 1.356 . S
N1570 H1582 0.984 . S
N1570 H1583 0.985 . S
N1571 C1573 1.356 . S
N1571 H1576 0.984 . S
N1571 H1577 0.985 . S
C1572 C1566 1.379 . S
C1572 C1569 1.363 . S
C1572 N1570 1.356 . S
C1573 C1567 1.363 . S
C1573 C1568 1.379 . S
C1573 N1571 1.356 . S
N1574 C1566 1.356 . S
N1574 H1580 0.984 . S
N1574 H1581 0.984 . S
N1575 C1568 1.356 . S
N1575 H1578 0.984 . S
N1575 H1579 0.985 . S
H1576 N1571 0.984 . S
H1577 N1571 0.985 . S
H1578 N1575 0.984 . S
H1579 N1575 0.985 . S
H1580 N1574 0.984 . S
H1581 N1574 0.984 . S
H1582 N1570 0.984 . S
H1583 N1570 0.985 . S
C1584 C1585 1.363 . S
C1584 C1590 1.379 . S
C1584 N1592 1.356 . S
C1585 C1584 1.363 . S
C1585 C1591 1.363 . S
C1586 C1587 1.363 . S
C1586 C1591 1.379 . S
C1586 N1593 1.356 . S
C1587 C1586 1.363 . S
C1587 C1590 1.363 . S
N1588 C1590 1.356 . S
N1588 H1600 0.984 . S
N1588 H1601 0.985 . S
N1589 C1591 1.356 . S
N1589 H1594 0.984 . S
N1589 H1595 0.985 . S
C1590 C1584 1.379 . S
C1590 C1587 1.363 . S
C1590 N1588 1.356 . S
C1591 C1585 1.363 . S
C1591 C1586 1.379 . S
C1591 N1589 1.356 . S
N1592 C1584 1.356 . S
N1592 H1598 0.984 . S
N1592 H1599 0.984 . S
N1593 C1586 1.356 . S
N1593 H1596 0.984 . S
N1593 H1597 0.985 . S
H1594 N1589 0.984 . S
H1595 N1589 0.985 . S
H1596 N1593 0.984 . S
H1597 N1593 0.985 . S
H1598 N1592 0.984 . S
H1599 N1592 0.984 . S
H1600 N1588 0.984 . S
H1601 N1588 0.985 . S
C1602 C1603 1.363 . S
C1602 C1608 1.379 . S
C1602 N1610 1.356 . S
C1603 C1602 1.363 . S
C1603 C1609 1.363 . S
C1604 C1605 1.363 . S
C1604 C1609 1.379 . S
C1604 N1611 1.356 . S
C1605 C1604 1.363 . S
C1605 C1608 1.363 . S
N1606 C1608 1.356 . S
N1606 H1618 0.984 . S
N1606 H1619 0.985 . S
N1607 C1609 1.356 . S
N1607 H1612 0.984 . S
N1607 H1613 0.985 . S
C1608 C1602 1.379 . S
C1608 C1605 1.363 . S
C1608 N1606 1.356 . S
C1609 C1603 1.363 . S
C1609 C1604 1.379 . S
C1609 N1607 1.356 . S
N1610 C1602 1.356 . S
N1610 H1616 0.984 . S
N1610 H1617 0.984 . S
N1611 C1604 1.356 . S
N1611 H1614 0.984 . S
N1611 H1615 0.985 . S
H1612 N1607 0.984 . S
H1613 N1607 0.985 . S
H1614 N1611 0.984 . S
H1615 N1611 0.985 . S
H1616 N1610 0.984 . S
H1617 N1610 0.984 . S
H1618 N1606 0.984 . S
H1619 N1606 0.985 . S
C1620 C1621 1.363 . S
C1620 C1626 1.379 . S
C1620 N1628 1.356 . S
C1621 C1620 1.363 . S
C1621 C1627 1.363 . S
C1622 C1623 1.363 . S
C1622 C1627 1.379 . S
C1622 N1629 1.356 . S
C1623 C1622 1.363 . S
C1623 C1626 1.363 . S
N1624 C1626 1.356 . S
N1624 H1636 0.984 . S
N1624 H1637 0.985 . S
N1625 C1627 1.356 . S
N1625 H1630 0.984 . S
N1625 H1631 0.985 . S
C1626 C1620 1.379 . S
C1626 C1623 1.363 . S
C1626 N1624 1.356 . S
C1627 C1621 1.363 . S
C1627 C1622 1.379 . S
C1627 N1625 1.356 . S
N1628 C1620 1.356 . S
N1628 H1634 0.984 . S
N1628 H1635 0.984 . S
N1629 C1622 1.356 . S
N1629 H1632 0.984 . S
N1629 H1633 0.985 . S
H1630 N1625 0.984 . S
H1631 N1625 0.985 . S
H1632 N1629 0.984 . S
H1633 N1629 0.985 . S
H1634 N1628 0.984 . S
H1635 N1628 0.984 . S
H1636 N1624 0.984 . S
H1637 N1624 0.985 . S
C1638 C1639 1.363 1_565 S
C1638 C1644 1.379 . S
C1638 N1646 1.356 . S
C1639 C1638 1.363 1_545 S
C1639 C1645 1.363 . S
C1640 C1641 1.363 . S
C1640 C1645 1.379 . S
C1640 N1647 1.356 . S
C1641 C1640 1.363 . S
C1641 C1644 1.363 1_545 S
N1642 C1644 1.356 . S
N1642 H1654 0.984 . S
N1642 H1655 0.985 . S
N1643 C1645 1.356 . S
N1643 H1648 0.984 . S
N1643 H1649 0.985 . S
C1644 C1638 1.379 . S
C1644 C1641 1.363 1_565 S
C1644 N1642 1.356 . S
C1645 C1639 1.363 . S
C1645 C1640 1.379 . S
C1645 N1643 1.356 . S
N1646 C1638 1.356 . S
N1646 H1652 0.984 . S
N1646 H1653 0.984 . S
N1647 C1640 1.356 . S
N1647 H1650 0.984 . S
N1647 H1651 0.985 . S
H1648 N1643 0.984 . S
H1649 N1643 0.985 . S
H1650 N1647 0.984 . S
H1651 N1647 0.985 . S
H1652 N1646 0.984 . S
H1653 N1646 0.984 . S
H1654 N1642 0.984 . S
H1655 N1642 0.985 . S
C1656 C1657 1.363 1_455 S
C1656 C1662 1.379 . S
C1656 N1664 1.356 . S
C1657 C1656 1.363 1_655 S
C1657 C1663 1.363 . S
C1658 C1659 1.363 . S
C1658 C1663 1.379 . S
C1658 N1665 1.356 . S
C1659 C1658 1.363 . S
C1659 C1662 1.363 1_655 S
N1660 C1662 1.356 . S
N1660 H1672 0.984 . S
N1660 H1673 0.985 . S
N1661 C1663 1.356 . S
N1661 H1666 0.984 . S
N1661 H1667 0.985 . S
C1662 C1656 1.379 . S
C1662 C1659 1.363 1_455 S
C1662 N1660 1.356 . S
C1663 C1657 1.363 . S
C1663 C1658 1.379 . S
C1663 N1661 1.356 . S
N1664 C1656 1.356 . S
N1664 H1670 0.984 . S
N1664 H1671 0.984 . S
N1665 C1658 1.356 . S
N1665 H1668 0.984 . S
N1665 H1669 0.985 . S
H1666 N1661 0.984 . S
H1667 N1661 0.985 . S
H1668 N1665 0.984 . S
H1669 N1665 0.985 . S
H1670 N1664 0.984 . S
H1671 N1664 0.984 . S
H1672 N1660 0.984 . S
H1673 N1660 0.985 . S
C1674 C1675 1.363 . S
C1674 C1680 1.379 . S
C1674 N1682 1.356 . S
C1675 C1674 1.363 . S
C1675 C1681 1.363 . S
C1676 C1677 1.363 . S
C1676 C1681 1.379 . S
C1676 N1683 1.356 . S
C1677 C1676 1.363 . S
C1677 C1680 1.363 . S
N1678 C1680 1.356 . S
N1678 H1690 0.984 . S
N1678 H1691 0.985 . S
N1679 C1681 1.356 . S
N1679 H1684 0.984 . S
N1679 H1685 0.985 . S
C1680 C1674 1.379 . S
C1680 C1677 1.363 . S
C1680 N1678 1.356 . S
C1681 C1675 1.363 . S
C1681 C1676 1.379 . S
C1681 N1679 1.356 . S
N1682 C1674 1.356 . S
N1682 H1688 0.984 . S
N1682 H1689 0.984 . S
N1683 C1676 1.356 . S
N1683 H1686 0.984 . S
N1683 H1687 0.985 . S
H1684 N1679 0.984 . S
H1685 N1679 0.985 . S
H1686 N1683 0.984 . S
H1687 N1683 0.985 . S
H1688 N1682 0.984 . S
H1689 N1682 0.984 . S
H1690 N1678 0.984 . S
H1691 N1678 0.985 . S
C1692 C1693 1.363 . S
C1692 C1698 1.379 . S
C1692 N1700 1.356 . S
C1693 C1692 1.363 . S
C1693 C1699 1.363 . S
C1694 C1695 1.363 . S
C1694 C1699 1.379 . S
C1694 N1701 1.356 . S
C1695 C1694 1.363 . S
C1695 C1698 1.363 . S
N1696 C1698 1.356 . S
N1696 H1708 0.984 . S
N1696 H1709 0.985 . S
N1697 C1699 1.356 . S
N1697 H1702 0.984 . S
N1697 H1703 0.985 . S
C1698 C1692 1.379 . S
C1698 C1695 1.363 . S
C1698 N1696 1.356 . S
C1699 C1693 1.363 . S
C1699 C1694 1.379 . S
C1699 N1697 1.356 . S
N1700 C1692 1.356 . S
N1700 H1706 0.984 . S
N1700 H1707 0.984 . S
N1701 C1694 1.356 . S
N1701 H1704 0.984 . S
N1701 H1705 0.985 . S
H1702 N1697 0.984 . S
H1703 N1697 0.985 . S
H1704 N1701 0.984 . S
H1705 N1701 0.985 . S
H1706 N1700 0.984 . S
H1707 N1700 0.984 . S
H1708 N1696 0.984 . S
H1709 N1696 0.985 . S
C1710 C1711 1.363 . S
C1710 C1716 1.379 . S
C1710 N1718 1.356 . S
C1711 C1710 1.363 . S
C1711 C1717 1.363 . S
C1712 C1713 1.363 . S
C1712 C1717 1.379 . S
C1712 N1719 1.356 . S
C1713 C1712 1.363 . S
C1713 C1716 1.363 . S
N1714 C1716 1.356 . S
N1714 H1726 0.984 . S
N1714 H1727 0.985 . S
N1715 C1717 1.356 . S
N1715 H1720 0.984 . S
N1715 H1721 0.985 . S
C1716 C1710 1.379 . S
C1716 C1713 1.363 . S
C1716 N1714 1.356 . S
C1717 C1711 1.363 . S
C1717 C1712 1.379 . S
C1717 N1715 1.356 . S
N1718 C1710 1.356 . S
N1718 H1724 0.984 . S
N1718 H1725 0.984 . S
N1719 C1712 1.356 . S
N1719 H1722 0.984 . S
N1719 H1723 0.985 . S
H1720 N1715 0.984 . S
H1721 N1715 0.985 . S
H1722 N1719 0.984 . S
H1723 N1719 0.985 . S
H1724 N1718 0.984 . S
H1725 N1718 0.984 . S
H1726 N1714 0.984 . S
H1727 N1714 0.985 . S
C1728 C1729 1.363 . S
C1728 C1734 1.379 . S
C1728 N1736 1.356 . S
C1729 C1728 1.363 . S
C1729 C1735 1.363 . S
C1730 C1731 1.363 . S
C1730 C1735 1.379 . S
C1730 N1737 1.356 . S
C1731 C1730 1.363 . S
C1731 C1734 1.363 . S
N1732 C1734 1.356 . S
N1732 H1744 0.984 . S
N1732 H1745 0.985 . S
N1733 C1735 1.356 . S
N1733 H1738 0.984 . S
N1733 H1739 0.985 . S
C1734 C1728 1.379 . S
C1734 C1731 1.363 . S
C1734 N1732 1.356 . S
C1735 C1729 1.363 . S
C1735 C1730 1.379 . S
C1735 N1733 1.356 . S
N1736 C1728 1.356 . S
N1736 H1742 0.984 . S
N1736 H1743 0.984 . S
N1737 C1730 1.356 . S
N1737 H1740 0.984 . S
N1737 H1741 0.985 . S
H1738 N1733 0.984 . S
H1739 N1733 0.985 . S
H1740 N1737 0.984 . S
H1741 N1737 0.985 . S
H1742 N1736 0.984 . S
H1743 N1736 0.984 . S
H1744 N1732 0.984 . S
H1745 N1732 0.985 . S
C1746 C1747 1.363 . S
C1746 C1752 1.379 . S
C1746 N1754 1.356 . S
C1747 C1746 1.363 . S
C1747 C1753 1.363 . S
C1748 C1749 1.363 . S
C1748 C1753 1.379 . S
C1748 N1755 1.356 . S
C1749 C1748 1.363 . S
C1749 C1752 1.363 . S
N1750 C1752 1.356 . S
N1750 H1762 0.984 . S
N1750 H1763 0.985 . S
N1751 C1753 1.356 . S
N1751 H1756 0.984 . S
N1751 H1757 0.985 . S
C1752 C1746 1.379 . S
C1752 C1749 1.363 . S
C1752 N1750 1.356 . S
C1753 C1747 1.363 . S
C1753 C1748 1.379 . S
C1753 N1751 1.356 . S
N1754 C1746 1.356 . S
N1754 H1760 0.984 . S
N1754 H1761 0.984 . S
N1755 C1748 1.356 . S
N1755 H1758 0.984 . S
N1755 H1759 0.985 . S
H1756 N1751 0.984 . S
H1757 N1751 0.985 . S
H1758 N1755 0.984 . S
H1759 N1755 0.985 . S
H1760 N1754 0.984 . S
H1761 N1754 0.984 . S
H1762 N1750 0.984 . S
H1763 N1750 0.985 . S
C1764 C1765 1.363 . S
C1764 C1770 1.379 . S
C1764 N1772 1.356 . S
C1765 C1764 1.363 . S
C1765 C1771 1.363 . S
C1766 C1767 1.363 . S
C1766 C1771 1.379 . S
C1766 N1773 1.356 . S
C1767 C1766 1.363 . S
C1767 C1770 1.363 . S
N1768 C1770 1.356 . S
N1768 H1780 0.984 . S
N1768 H1781 0.985 . S
N1769 C1771 1.356 . S
N1769 H1774 0.984 . S
N1769 H1775 0.985 . S
C1770 C1764 1.379 . S
C1770 C1767 1.363 . S
C1770 N1768 1.356 . S
C1771 C1765 1.363 . S
C1771 C1766 1.379 . S
C1771 N1769 1.356 . S
N1772 C1764 1.356 . S
N1772 H1778 0.984 . S
N1772 H1779 0.984 . S
N1773 C1766 1.356 . S
N1773 H1776 0.984 . S
N1773 H1777 0.985 . S
H1774 N1769 0.984 . S
H1775 N1769 0.985 . S
H1776 N1773 0.984 . S
H1777 N1773 0.985 . S
H1778 N1772 0.984 . S
H1779 N1772 0.984 . S
H1780 N1768 0.984 . S
H1781 N1768 0.985 . S
C1782 C1783 1.363 . S
C1782 C1788 1.379 . S
C1782 N1790 1.356 . S
C1783 C1782 1.363 . S
C1783 C1789 1.363 . S
C1784 C1785 1.363 . S
C1784 C1789 1.379 . S
C1784 N1791 1.356 . S
C1785 C1784 1.363 . S
C1785 C1788 1.363 . S
N1786 C1788 1.356 . S
N1786 H1798 0.984 . S
N1786 H1799 0.985 . S
N1787 C1789 1.356 . S
N1787 H1792 0.984 . S
N1787 H1793 0.985 . S
C1788 C1782 1.379 . S
C1788 C1785 1.363 . S
C1788 N1786 1.356 . S
C1789 C1783 1.363 . S
C1789 C1784 1.379 . S
C1789 N1787 1.356 . S
N1790 C1782 1.356 . S
N1790 H1796 0.984 . S
N1790 H1797 0.984 . S
N1791 C1784 1.356 . S
N1791 H1794 0.984 . S
N1791 H1795 0.985 . S
H1792 N1787 0.984 . S
H1793 N1787 0.985 . S
H1794 N1791 0.984 . S
H1795 N1791 0.985 . S
H1796 N1790 0.984 . S
H1797 N1790 0.984 . S
H1798 N1786 0.984 . S
H1799 N1786 0.985 . S
C1800 C1801 1.363 . S
C1800 C1806 1.379 . S
C1800 N1808 1.356 . S
C1801 C1800 1.363 . S
C1801 C1807 1.363 1_655 S
C1802 C1803 1.361 1_455 S
C1802 C1807 1.379 . S
C1802 N1809 1.356 . S
C1803 C1802 1.361 1_655 S
C1803 C1806 1.371 . S
N1804 C1806 1.356 . S
N1804 H1816 0.984 . S
N1804 H1817 0.985 . S
N1805 C1807 1.356 . S
N1805 H1810 0.984 . S
N1805 H1811 0.985 . S
C1806 C1800 1.379 . S
C1806 C1803 1.371 . S
C1806 N1804 1.356 . S
C1807 C1801 1.363 1_455 S
C1807 C1802 1.379 . S
C1807 N1805 1.356 . S
N1808 C1800 1.356 . S
N1808 H1814 0.984 . S
N1808 H1815 0.984 . S
N1809 C1802 1.356 . S
N1809 H1812 0.984 . S
N1809 H1813 0.985 . S
H1810 N1805 0.984 . S
H1811 N1805 0.985 . S
H1812 N1809 0.984 . S
H1813 N1809 0.985 . S
H1814 N1808 0.984 . S
H1815 N1808 0.984 . S
H1816 N1804 0.984 . S
H1817 N1804 0.985 . S
C1818 C1819 1.363 . S
C1818 C1824 1.379 . S
C1818 N1826 1.356 . S
C1819 C1818 1.363 . S
C1819 C1825 1.363 . S
C1820 C1821 1.363 . S
C1820 C1825 1.379 . S
C1820 N1827 1.356 . S
C1821 C1820 1.363 . S
C1821 C1824 1.363 . S
N1822 C1824 1.356 . S
N1822 H1834 0.984 . S
N1822 H1835 0.985 . S
N1823 C1825 1.356 . S
N1823 H1828 0.984 . S
N1823 H1829 0.985 . S
C1824 C1818 1.379 . S
C1824 C1821 1.363 . S
C1824 N1822 1.356 . S
C1825 C1819 1.363 . S
C1825 C1820 1.379 . S
C1825 N1823 1.356 . S
N1826 C1818 1.356 . S
N1826 H1832 0.984 . S
N1826 H1833 0.984 . S
N1827 C1820 1.356 . S
N1827 H1830 0.984 . S
N1827 H1831 0.985 . S
H1828 N1823 0.984 . S
H1829 N1823 0.985 . S
H1830 N1827 0.984 . S
H1831 N1827 0.985 . S
H1832 N1826 0.984 . S
H1833 N1826 0.984 . S
H1834 N1822 0.984 . S
H1835 N1822 0.985 . S
C1836 C1837 1.363 1_565 S
C1836 C1842 1.379 . S
C1836 N1844 1.356 . S
C1837 C1836 1.363 1_545 S
C1837 C1843 1.363 . S
C1838 C1839 1.363 . S
C1838 C1843 1.379 . S
C1838 N1845 1.356 . S
C1839 C1838 1.363 . S
C1839 C1842 1.363 1_545 S
N1840 C1842 1.356 . S
N1840 H1852 0.984 . S
N1840 H1853 0.985 . S
N1841 C1843 1.356 . S
N1841 H1846 0.984 . S
N1841 H1847 0.985 . S
C1842 C1836 1.379 . S
C1842 C1839 1.363 1_565 S
C1842 N1840 1.356 . S
C1843 C1837 1.363 . S
C1843 C1838 1.379 . S
C1843 N1841 1.356 . S
N1844 C1836 1.356 . S
N1844 H1850 0.984 . S
N1844 H1851 0.984 . S
N1845 C1838 1.356 . S
N1845 H1848 0.984 . S
N1845 H1849 0.985 . S
H1846 N1841 0.984 . S
H1847 N1841 0.985 . S
H1848 N1845 0.984 . S
H1849 N1845 0.985 . S
H1850 N1844 0.984 . S
H1851 N1844 0.984 . S
H1852 N1840 0.984 . S
H1853 N1840 0.985 . S
C559 C10 1.623 . S
C561 C403 1.599 . S
C577 C23 1.617 . S
C579 C428 1.600 . S
C597 C439 1.599 . S
C595 C29 1.621 . S
C613 C30 1.622 . S
C615 C464 1.605 . S
C631 C5 1.626 . S
C633 C482 1.614 . S
C649 C18 1.618 . S
C651 C493 1.598 . S
C667 C49 1.596 . S
C669 C475 1.594 . S
C687 C500 1.590 . S
C685 C62 1.605 . S
C705 C457 1.593 . S
C703 C70 1.607 . S
C721 C75 1.610 . S
C723 C446 1.588 . S
C741 C410 1.601 . S
C739 C44 1.613 . S
C757 C57 1.606 . S
C759 C421 1.593 . S
C775 C88 1.623 . S
C777 C511 1.599 . S
C793 C101 1.617 . S
C795 C536 1.600 . S
C813 C547 1.598 . S
C811 C107 1.619 . S
C829 C108 1.622 . S
C831 C248 1.605 . S
C847 C83 1.626 . S
C849 C266 1.612 . S
C865 C96 1.618 . S
C867 C277 1.598 . S
C883 C127 1.611 . S
C885 C259 1.594 . S
C901 C140 1.605 . S
C903 C284 1.591 . S
C921 C241 1.593 . S
C919 C146 1.607 . S
C939 C554 1.595 . S
C937 C147 1.610 . S
C957 C518 1.601 . S
C955 C122 1.613 . S
C975 C529 1.593 . S
C973 C135 1.606 . S
C991 C160 1.623 . S
C993 C295 1.599 . S
C1009 C173 1.617 . S
C1011 C320 1.600 . S
C1027 C185 1.619 . S
C1029 C331 1.599 . S
C1045 C186 1.622 . S
C1047 C356 1.606 . S
C1065 C374 1.612 . S
C1063 C159 1.626 . S
C1083 C385 1.598 . S
C1081 C172 1.618 . S
C1101 C367 1.593 . S
C1099 C205 1.611 . S
C1119 C392 1.590 . S
C1117 C218 1.605 . S
C1135 C224 1.607 . S
C1137 C349 1.593 . S
C1155 C338 1.595 . S
C1153 C225 1.610 . S
C1171 C200 1.613 . S
C1173 C302 1.601 . S
C1191 C313 1.593 . S
C1189 C213 1.607 . S
C1209 C250 1.432 . S
C1207 C4 1.511 . S
C1225 C17 1.505 . S
C1227 C268 1.427 . S
C1245 C278 1.440 . S
C1243 C31 1.513 . S
C1263 C296 1.435 . S
C1261 C36 1.506 . S
C1281 C322 1.435 . S
C1279 C3 1.518 . S
C1299 C332 1.439 . S
C1297 C16 1.513 . S
C1315 C43 1.513 . S
C1317 C340 1.431 . S
C1333 C56 1.507 . S
C1335 C304 1.426 . S
C1351 C68 1.514 . S
C1353 C314 1.437 . S
C1369 C69 1.509 . S
C1371 C260 1.434 . S
C1389 C286 1.435 . S
C1387 C42 1.519 . S
C1405 C55 1.514 . S
C1407 C242 1.437 . S
C1425 C358 1.432 . S
C1423 C82 1.511 . S
C1441 C95 1.505 . S
C1443 C376 1.427 . S
C1459 C109 1.513 . S
C1461 C386 1.440 . S
C1479 C404 1.435 . S
C1477 C114 1.506 . S
C1495 C81 1.518 . S
C1497 C430 1.435 . S
C1513 C94 1.513 . S
C1515 C440 1.441 . S
C1531 C121 1.513 . S
C1533 C448 1.440 . S
C1549 C134 1.507 . S
C1551 C412 1.426 . S
C1569 C422 1.437 . S
C1567 C148 1.514 . S
C1585 C153 1.509 . S
C1587 C368 1.433 . S
C1603 C120 1.519 . S
C1605 C394 1.435 . S
C1623 C350 1.437 . S
C1621 C133 1.514 . S
C1641 C466 1.432 . S
C1639 C166 1.511 . S
C1657 C179 1.505 . S
C1659 C484 1.428 . S
C1675 C187 1.513 . S
C1677 C494 1.439 . S
C1695 C512 1.435 . S
C1693 C192 1.506 . S
C1713 C538 1.435 . S
C1711 C161 1.518 . S
C1729 C174 1.513 . S
C1731 C548 1.439 . S
C1747 C199 1.513 . S
C1749 C556 1.432 . S
C1765 C212 1.508 . S
C1767 C520 1.426 . S
C1785 C530 1.437 . S
C1783 C226 1.514 . S
C1803 C476 1.429 1_655 S
C1801 C231 1.506 . S
C1821 C502 1.435 . S
C1819 C198 1.519 . S
C1837 C211 1.514 . S
C1839 C458 1.437 . S
