# Generated by pormake.
# Topology ptr, (4,4)-cn, num edge types: 1
# Building blocks:
#     Node 0, Type 0, BuildingBlock: GALJAG_clean_sbu_0, # of connection points: 4
#     Node 1, Type 0, BuildingBlock: GALJAG_clean_sbu_0, # of connection points: 4
#     Node 2, Type 0, BuildingBlock: GALJAG_clean_sbu_0, # of connection points: 4
#     Node 3, Type 0, BuildingBlock: GALJAG_clean_sbu_0, # of connection points: 4
#     Node 4, Type 0, BuildingBlock: GALJAG_clean_sbu_0, # of connection points: 4
#     Node 5, Type 0, BuildingBlock: GALJAG_clean_sbu_0, # of connection points: 4
#     Node 6, Type 0, BuildingBlock: GALJAG_clean_sbu_0, # of connection points: 4
#     Node 7, Type 0, BuildingBlock: GALJAG_clean_sbu_0, # of connection points: 4
#     Node 8, Type 0, BuildingBlock: GALJAG_clean_sbu_0, # of connection points: 4
#     Node 9, Type 0, BuildingBlock: GALJAG_clean_sbu_0, # of connection points: 4
#     Node 10, Type 0, BuildingBlock: GALJAG_clean_sbu_0, # of connection points: 4
#     Node 11, Type 0, BuildingBlock: GALJAG_clean_sbu_0, # of connection points: 4
#     Node 12, Type 0, BuildingBlock: GALJAG_clean_sbu_0, # of connection points: 4
#     Node 13, Type 0, BuildingBlock: GALJAG_clean_sbu_0, # of connection points: 4
#     Node 14, Type 0, BuildingBlock: GALJAG_clean_sbu_0, # of connection points: 4
#     Node 15, Type 0, BuildingBlock: GALJAG_clean_sbu_0, # of connection points: 4
#     Node 16, Type 0, BuildingBlock: GALJAG_clean_sbu_0, # of connection points: 4
#     Node 17, Type 0, BuildingBlock: GALJAG_clean_sbu_0, # of connection points: 4
#     Node 18, Type 1, BuildingBlock: MIFKUJ_clean_linker_1, # of connection points: 4
#     Node 19, Type 1, BuildingBlock: MIFKUJ_clean_linker_1, # of connection points: 4
#     Node 20, Type 1, BuildingBlock: MIFKUJ_clean_linker_1, # of connection points: 4
#     Node 21, Type 1, BuildingBlock: MIFKUJ_clean_linker_1, # of connection points: 4
#     Node 22, Type 1, BuildingBlock: MIFKUJ_clean_linker_1, # of connection points: 4
#     Node 23, Type 1, BuildingBlock: MIFKUJ_clean_linker_1, # of connection points: 4
#     Node 24, Type 1, BuildingBlock: MIFKUJ_clean_linker_1, # of connection points: 4
#     Node 25, Type 1, BuildingBlock: MIFKUJ_clean_linker_1, # of connection points: 4
#     Node 26, Type 1, BuildingBlock: MIFKUJ_clean_linker_1, # of connection points: 4
#     Node 27, Type 1, BuildingBlock: MIFKUJ_clean_linker_1, # of connection points: 4
#     Node 28, Type 1, BuildingBlock: MIFKUJ_clean_linker_1, # of connection points: 4
#     Node 29, Type 1, BuildingBlock: MIFKUJ_clean_linker_1, # of connection points: 4
#     Node 30, Type 1, BuildingBlock: MIFKUJ_clean_linker_1, # of connection points: 4
#     Node 31, Type 1, BuildingBlock: MIFKUJ_clean_linker_1, # of connection points: 4
#     Node 32, Type 1, BuildingBlock: MIFKUJ_clean_linker_1, # of connection points: 4
#     Node 33, Type 1, BuildingBlock: MIFKUJ_clean_linker_1, # of connection points: 4
#     Node 34, Type 1, BuildingBlock: MIFKUJ_clean_linker_1, # of connection points: 4
#     Node 35, Type 1, BuildingBlock: MIFKUJ_clean_linker_1, # of connection points: 4
#     Edge 36, Type (0, 1), BuildingBlock: OJICUG_clean_linker_0, # of connection points: 2
#     Edge 37, Type (0, 1), BuildingBlock: OJICUG_clean_linker_0, # of connection points: 2
#     Edge 38, Type (0, 1), BuildingBlock: OJICUG_clean_linker_0, # of connection points: 2
#     Edge 39, Type (0, 1), BuildingBlock: OJICUG_clean_linker_0, # of connection points: 2
#     Edge 40, Type (0, 1), BuildingBlock: OJICUG_clean_linker_0, # of connection points: 2
#     Edge 41, Type (0, 1), BuildingBlock: OJICUG_clean_linker_0, # of connection points: 2
#     Edge 42, Type (0, 1), BuildingBlock: OJICUG_clean_linker_0, # of connection points: 2
#     Edge 43, Type (0, 1), BuildingBlock: OJICUG_clean_linker_0, # of connection points: 2
#     Edge 44, Type (0, 1), BuildingBlock: OJICUG_clean_linker_0, # of connection points: 2
#     Edge 45, Type (0, 1), BuildingBlock: OJICUG_clean_linker_0, # of connection points: 2
#     Edge 46, Type (0, 1), BuildingBlock: OJICUG_clean_linker_0, # of connection points: 2
#     Edge 47, Type (0, 1), BuildingBlock: OJICUG_clean_linker_0, # of connection points: 2
#     Edge 48, Type (0, 1), BuildingBlock: OJICUG_clean_linker_0, # of connection points: 2
#     Edge 49, Type (0, 1), BuildingBlock: OJICUG_clean_linker_0, # of connection points: 2
#     Edge 50, Type (0, 1), BuildingBlock: OJICUG_clean_linker_0, # of connection points: 2
#     Edge 51, Type (0, 1), BuildingBlock: OJICUG_clean_linker_0, # of connection points: 2
#     Edge 52, Type (0, 1), BuildingBlock: OJICUG_clean_linker_0, # of connection points: 2
#     Edge 53, Type (0, 1), BuildingBlock: OJICUG_clean_linker_0, # of connection points: 2
#     Edge 54, Type (0, 1), BuildingBlock: OJICUG_clean_linker_0, # of connection points: 2
#     Edge 55, Type (0, 1), BuildingBlock: OJICUG_clean_linker_0, # of connection points: 2
#     Edge 56, Type (0, 1), BuildingBlock: OJICUG_clean_linker_0, # of connection points: 2
#     Edge 57, Type (0, 1), BuildingBlock: OJICUG_clean_linker_0, # of connection points: 2
#     Edge 58, Type (0, 1), BuildingBlock: OJICUG_clean_linker_0, # of connection points: 2
#     Edge 59, Type (0, 1), BuildingBlock: OJICUG_clean_linker_0, # of connection points: 2
#     Edge 60, Type (0, 1), BuildingBlock: OJICUG_clean_linker_0, # of connection points: 2
#     Edge 61, Type (0, 1), BuildingBlock: OJICUG_clean_linker_0, # of connection points: 2
#     Edge 62, Type (0, 1), BuildingBlock: OJICUG_clean_linker_0, # of connection points: 2
#     Edge 63, Type (0, 1), BuildingBlock: OJICUG_clean_linker_0, # of connection points: 2
#     Edge 64, Type (0, 1), BuildingBlock: OJICUG_clean_linker_0, # of connection points: 2
#     Edge 65, Type (0, 1), BuildingBlock: OJICUG_clean_linker_0, # of connection points: 2
#     Edge 66, Type (0, 1), BuildingBlock: OJICUG_clean_linker_0, # of connection points: 2
#     Edge 67, Type (0, 1), BuildingBlock: OJICUG_clean_linker_0, # of connection points: 2
#     Edge 68, Type (0, 1), BuildingBlock: OJICUG_clean_linker_0, # of connection points: 2
#     Edge 69, Type (0, 1), BuildingBlock: OJICUG_clean_linker_0, # of connection points: 2
#     Edge 70, Type (0, 1), BuildingBlock: OJICUG_clean_linker_0, # of connection points: 2
#     Edge 71, Type (0, 1), BuildingBlock: OJICUG_clean_linker_0, # of connection points: 2
#     Edge 72, Type (0, 1), BuildingBlock: OJICUG_clean_linker_0, # of connection points: 2
#     Edge 73, Type (0, 1), BuildingBlock: OJICUG_clean_linker_0, # of connection points: 2
#     Edge 74, Type (0, 1), BuildingBlock: OJICUG_clean_linker_0, # of connection points: 2
#     Edge 75, Type (0, 1), BuildingBlock: OJICUG_clean_linker_0, # of connection points: 2
#     Edge 76, Type (0, 1), BuildingBlock: OJICUG_clean_linker_0, # of connection points: 2
#     Edge 77, Type (0, 1), BuildingBlock: OJICUG_clean_linker_0, # of connection points: 2
#     Edge 78, Type (0, 1), BuildingBlock: OJICUG_clean_linker_0, # of connection points: 2
#     Edge 79, Type (0, 1), BuildingBlock: OJICUG_clean_linker_0, # of connection points: 2
#     Edge 80, Type (0, 1), BuildingBlock: OJICUG_clean_linker_0, # of connection points: 2
#     Edge 81, Type (0, 1), BuildingBlock: OJICUG_clean_linker_0, # of connection points: 2
#     Edge 82, Type (0, 1), BuildingBlock: OJICUG_clean_linker_0, # of connection points: 2
#     Edge 83, Type (0, 1), BuildingBlock: OJICUG_clean_linker_0, # of connection points: 2
#     Edge 84, Type (0, 1), BuildingBlock: OJICUG_clean_linker_0, # of connection points: 2
#     Edge 85, Type (0, 1), BuildingBlock: OJICUG_clean_linker_0, # of connection points: 2
#     Edge 86, Type (0, 1), BuildingBlock: OJICUG_clean_linker_0, # of connection points: 2
#     Edge 87, Type (0, 1), BuildingBlock: OJICUG_clean_linker_0, # of connection points: 2
#     Edge 88, Type (0, 1), BuildingBlock: OJICUG_clean_linker_0, # of connection points: 2
#     Edge 89, Type (0, 1), BuildingBlock: OJICUG_clean_linker_0, # of connection points: 2
#     Edge 90, Type (0, 1), BuildingBlock: OJICUG_clean_linker_0, # of connection points: 2
#     Edge 91, Type (0, 1), BuildingBlock: OJICUG_clean_linker_0, # of connection points: 2
#     Edge 92, Type (0, 1), BuildingBlock: OJICUG_clean_linker_0, # of connection points: 2
#     Edge 93, Type (0, 1), BuildingBlock: OJICUG_clean_linker_0, # of connection points: 2
#     Edge 94, Type (0, 1), BuildingBlock: OJICUG_clean_linker_0, # of connection points: 2
#     Edge 95, Type (0, 1), BuildingBlock: OJICUG_clean_linker_0, # of connection points: 2
#     Edge 96, Type (0, 1), BuildingBlock: OJICUG_clean_linker_0, # of connection points: 2
#     Edge 97, Type (0, 1), BuildingBlock: OJICUG_clean_linker_0, # of connection points: 2
#     Edge 98, Type (0, 1), BuildingBlock: OJICUG_clean_linker_0, # of connection points: 2
#     Edge 99, Type (0, 1), BuildingBlock: OJICUG_clean_linker_0, # of connection points: 2
#     Edge 100, Type (0, 1), BuildingBlock: OJICUG_clean_linker_0, # of connection points: 2
#     Edge 101, Type (0, 1), BuildingBlock: OJICUG_clean_linker_0, # of connection points: 2
#     Edge 102, Type (0, 1), BuildingBlock: OJICUG_clean_linker_0, # of connection points: 2
#     Edge 103, Type (0, 1), BuildingBlock: OJICUG_clean_linker_0, # of connection points: 2
#     Edge 104, Type (0, 1), BuildingBlock: OJICUG_clean_linker_0, # of connection points: 2
#     Edge 105, Type (0, 1), BuildingBlock: OJICUG_clean_linker_0, # of connection points: 2
#     Edge 106, Type (0, 1), BuildingBlock: OJICUG_clean_linker_0, # of connection points: 2
#     Edge 107, Type (0, 1), BuildingBlock: OJICUG_clean_linker_0, # of connection points: 2
# Relax obj value: 0.053
# Max RMSD: 0.081
# Mean RMSD: 0.075
data_MOF--net-ptr--node1-GALJAG_clean_sbu_0--node2-MIFKUJ_clean_linker_1--edge1-OJICUG_clean_linker_0
_symmetry_space_group_name_H-M    P1
_symmetry_Int_Tables_number       1
_symmetry_cell_setting            triclinic
loop_
_symmetry_equiv_pos_as_xyz
'x, y, z'
_cell_length_a     68.888189
_cell_length_b     68.906777
_cell_length_c     50.170095
_cell_angle_alpha  90.047793
_cell_angle_beta   89.988959
_cell_angle_gamma 120.10698
loop_
_atom_site_label
_atom_site_type_symbol
_atom_site_fract_x
_atom_site_fract_y
_atom_site_fract_z
_atom_type_partial_charge
In0 In 0.00112 0.35288 0.0187 0.0
O1 O 0.98088 0.36881 0.03414 0.0
O2 O 0.99626 0.35816 0.06262 0.0
C3 C 0.96988 0.31417 0.99584 0.0
C4 C 0.03343 0.34615 0.03986 0.0
C5 C 0.01568 0.38333 0.9785 0.0
O6 O 0.96482 0.32383 0.01371 0.0
O7 O 0.99048 0.32375 0.99024 0.0
O8 O 0.00419 0.36249 0.97484 0.0
O9 O 0.02061 0.38904 1.00256 0.0
C10 C 0.98497 0.36763 0.05842 0.0
O11 O 0.03794 0.36411 0.02805 0.0
O12 O 0.01287 0.33164 0.04044 0.0
In13 In 0.64865 0.64716 0.01442 0.0
O14 O 0.64581 0.62368 0.04845 0.0
O15 O 0.61815 0.62858 0.04115 0.0
C16 C 0.68824 0.65689 0.99209 0.0
C17 C 0.65804 0.6858 0.03891 0.0
C18 C 0.62074 0.62551 0.97318 0.0
O19 O 0.67777 0.64067 0.00795 0.0
O20 O 0.67896 0.66842 0.98794 0.0
O21 O 0.62412 0.6443 0.98141 0.0
O22 O 0.63138 0.61793 0.98566 0.0
C23 C 0.62627 0.61914 0.0551 0.0
O24 O 0.64603 0.67889 0.01816 0.0
O25 O 0.66557 0.67346 0.04684 0.0
In26 In 0.34998 0.00274 0.01842 0.0
O27 O 0.35298 0.03731 0.0156 0.0
O28 O 0.33152 0.01201 0.98817 0.0
C29 C 0.37843 0.00788 0.05845 0.0
C30 C 0.37242 0.99833 0.97697 0.0
C31 C 0.3103 0.97341 0.04083 0.0
O32 O 0.37485 0.02344 0.05152 0.0
O33 O 0.36783 0.99003 0.04512 0.0
O34 O 0.31759 0.96867 0.02015 0.0
O35 O 0.32288 0.9929 0.04984 0.0
C36 C 0.33984 0.03206 0.99589 0.0
O37 O 0.3552 0.98169 0.98676 0.0
O38 O 0.37826 0.01681 0.98828 0.0
In39 In -0.00016 0.64949 0.01432 0.0
O40 O 0.02093 0.6475 0.97993 0.0
O41 O 0.98845 0.61957 0.98682 0.0
C42 C 0.02941 0.68827 0.03847 0.0
C43 C 0.96992 0.65856 0.99108 0.0
C44 C 0.99354 0.62175 0.05557 0.0
O45 O 0.03537 0.67883 0.02135 0.0
O46 O 0.00857 0.67844 0.04286 0.0
O47 O 0.9787 0.62636 0.04851 0.0
O48 O 0.01124 0.63106 0.04185 0.0
C49 C 0.00611 0.62794 0.97303 0.0
O50 O 0.96424 0.64289 0.00776 0.0
O51 O 0.99073 0.66987 0.98648 0.0
In52 In 0.35246 0.35486 0.01675 0.0
O53 O 0.35036 0.36705 0.97455 0.0
O54 O 0.37979 0.38668 0.99725 0.0
C55 C 0.31341 0.34614 0.03955 0.0
C56 C 0.34764 0.31695 0.9943 0.0
C57 C 0.37922 0.37352 0.05971 0.0
O58 O 0.32327 0.36144 0.02237 0.0
O59 O 0.32302 0.33509 0.04473 0.0
O60 O 0.37699 0.3559 0.0489 0.0
O61 O 0.36795 0.3812 0.04896 0.0
C62 C 0.36962 0.38425 0.97561 0.0
O63 O 0.36659 0.33301 1.00116 0.0
O64 O 0.33137 0.31983 0.9995 0.0
In65 In 0.64904 0.99948 0.01783 0.0
O66 O 0.64533 0.02054 0.05067 0.0
O67 O 0.61835 0.98736 0.04424 0.0
C68 C 0.68892 0.0285 0.99593 0.0
C69 C 0.65833 0.96971 0.04078 0.0
C70 C 0.62282 0.99572 0.97599 0.0
O71 O 0.68096 0.03375 0.01556 0.0
O72 O 0.67704 0.00853 0.98796 0.0
O73 O 0.62298 0.97887 0.98572 0.0
O74 O 0.63554 0.01405 0.98756 0.0
C75 C 0.62597 0.00526 0.05753 0.0
O76 O 0.64629 0.965 0.02012 0.0
O77 O 0.66583 0.9894 0.04941 0.0
In78 In 0.66768 0.68561 0.35188 0.0
O79 O 0.64573 0.68827 0.38467 0.0
O80 O 0.67948 0.71467 0.38087 0.0
C81 C 0.63864 0.6469 0.32727 0.0
C82 C 0.69773 0.6762 0.37419 0.0
C83 C 0.67329 0.7136 0.31123 0.0
O84 O 0.63344 0.6536 0.34812 0.0
O85 O 0.65849 0.65948 0.31933 0.0
O86 O 0.68837 0.70922 0.31793 0.0
O87 O 0.65568 0.70404 0.32514 0.0
C88 C 0.66112 0.70702 0.39313 0.0
O89 O 0.70342 0.69244 0.35839 0.0
O90 O 0.6769 0.66451 0.37832 0.0
In91 In 0.3138 0.982 0.34852 0.0
O92 O 0.31113 0.95879 0.38275 0.0
O93 O 0.28291 0.96252 0.37447 0.0
C94 C 0.35339 0.9913 0.32672 0.0
C95 C 0.32317 0.02033 0.37366 0.0
C96 C 0.28677 0.96175 0.30615 0.0
O97 O 0.34141 0.97373 0.34005 0.0
O98 O 0.34571 0.00445 0.32492 0.0
O99 O 0.28984 0.98019 0.31528 0.0
O100 O 0.29719 0.95381 0.31841 0.0
C101 C 0.2913 0.95358 0.38884 0.0
O102 O 0.3114 0.01381 0.35268 0.0
O103 O 0.33044 0.00773 0.38147 0.0
In104 In 0.01404 0.33323 0.34808 0.0
O105 O 0.0164 0.3675 0.34539 0.0
O106 O 0.99596 0.34228 0.31721 0.0
C107 C 0.04064 0.33644 0.38928 0.0
C108 C 0.03779 0.32976 0.30749 0.0
C109 C 0.97415 0.30459 0.37021 0.0
O110 O 0.03973 0.35327 0.38086 0.0
O111 O 0.02848 0.31846 0.37674 0.0
O112 O 0.98157 0.29929 0.35006 0.0
O113 O 0.98663 0.32433 0.37861 0.0
C114 C 0.00369 0.36219 0.32521 0.0
O115 O 0.01988 0.31298 0.31579 0.0
O116 O 0.04359 0.34779 0.31988 0.0
In117 In 0.66721 0.98155 0.34792 0.0
O118 O 0.6883 0.97979 0.31327 0.0
O119 O 0.65589 0.95181 0.32026 0.0
C120 C 0.69671 0.0202 0.37224 0.0
C121 C 0.63722 0.99058 0.32484 0.0
C122 C 0.66098 0.95416 0.38956 0.0
O123 O 0.70272 0.01095 0.35488 0.0
O124 O 0.67588 0.01022 0.37677 0.0
O125 O 0.64631 0.95907 0.38269 0.0
O126 O 0.67845 0.96295 0.37542 0.0
C127 C 0.67346 0.96025 0.30632 0.0
O128 O 0.63141 0.97358 0.33937 0.0
O129 O 0.65814 0.00325 0.32233 0.0
In130 In 0.01726 0.68414 0.35043 0.0
O131 O 0.02136 0.70895 0.3174 0.0
O132 O 0.04681 0.70033 0.32202 0.0
C133 C 0.97777 0.67474 0.37272 0.0
C134 C 0.00683 0.64515 0.32625 0.0
C135 C 0.04546 0.70587 0.39147 0.0
O136 O 0.98802 0.69056 0.35628 0.0
O137 O 0.98721 0.66346 0.37746 0.0
O138 O 0.04172 0.68689 0.3835 0.0
O139 O 0.0351 0.71363 0.37876 0.0
C140 C 0.03981 0.71138 0.30925 0.0
O141 O 0.01921 0.65207 0.34672 0.0
O142 O 0.9994 0.65762 0.31851 0.0
In143 In 0.31791 0.33304 0.3512 0.0
O144 O 0.31589 0.29894 0.35368 0.0
O145 O 0.33634 0.3242 0.38181 0.0
C146 C 0.29131 0.32972 0.30997 0.0
C147 C 0.29403 0.33602 0.39197 0.0
C148 C 0.35761 0.36212 0.32909 0.0
O149 O 0.29241 0.31296 0.31828 0.0
O150 O 0.30325 0.34767 0.32268 0.0
O151 O 0.34999 0.36729 0.34916 0.0
O152 O 0.34545 0.34229 0.32081 0.0
C153 C 0.32872 0.30432 0.37375 0.0
O154 O 0.3119 0.35292 0.3838 0.0
O155 O 0.28831 0.31811 0.37935 0.0
In156 In 0.33267 0.01786 0.68605 0.0
O157 O 0.36829 0.02439 0.6923 0.0
O158 O 0.34178 0.99681 0.71272 0.0
C159 C 0.33866 0.04605 0.64554 0.0
C160 C 0.32657 0.03958 0.72728 0.0
C161 C 0.30346 0.97926 0.66136 0.0
O162 O 0.35352 0.04133 0.65216 0.0
O163 O 0.32103 0.03667 0.65943 0.0
O164 O 0.29827 0.98603 0.68216 0.0
O165 O 0.32337 0.99172 0.65352 0.0
C166 C 0.36259 0.00832 0.70835 0.0
O167 O 0.31101 0.02085 0.71901 0.0
O168 O 0.34483 0.04704 0.71484 0.0
In169 In 0.98079 0.31439 0.68238 0.0
O170 O 0.97876 0.34641 0.68687 0.0
O171 O 0.99878 0.3407 0.71452 0.0
C172 C 0.95334 0.29365 0.64048 0.0
C173 C 0.95796 0.28645 0.72294 0.0
C174 C 0.01993 0.32304 0.65989 0.0
O175 O 0.95676 0.31235 0.64914 0.0
O176 O 0.96357 0.28564 0.65302 0.0
O177 O 0.0091 0.30681 0.67563 0.0
O178 O 0.0113 0.3352 0.65605 0.0
C179 C 0.99129 0.35322 0.70722 0.0
O180 O 0.97746 0.29079 0.71646 0.0
O181 O 0.95004 0.29597 0.7088 0.0
In182 In 0.68219 0.66679 0.68232 0.0
O183 O 0.68404 0.70084 0.68036 0.0
O184 O 0.66395 0.67596 0.65172 0.0
C185 C 0.70937 0.671 0.72333 0.0
C186 C 0.70533 0.6628 0.64137 0.0
C187 C 0.6427 0.63738 0.70467 0.0
O188 O 0.70825 0.68758 0.71442 0.0
O189 O 0.69718 0.65277 0.71129 0.0
O190 O 0.6503 0.63242 0.68444 0.0
O191 O 0.65473 0.65722 0.71298 0.0
C192 C 0.67142 0.69571 0.66015 0.0
O193 O 0.68753 0.6462 0.65013 0.0
O194 O 0.7114 0.681 0.65348 0.0
In195 In 0.33171 0.31395 0.68024 0.0
O196 O 0.33675 0.30884 0.6363 0.0
O197 O 0.35194 0.29799 0.66473 0.0
C198 C 0.3619 0.35349 0.70226 0.0
C199 C 0.29869 0.31973 0.65949 0.0
C200 C 0.31895 0.28452 0.72141 0.0
O201 O 0.36749 0.34393 0.6848 0.0
O202 O 0.34128 0.34335 0.70787 0.0
O203 O 0.31166 0.27834 0.69802 0.0
O204 O 0.33188 0.30531 0.72395 0.0
C205 C 0.348 0.29932 0.64046 0.0
O206 O 0.29458 0.30193 0.67143 0.0
O207 O 0.31917 0.33448 0.65861 0.0
In208 In 0.68312 0.01821 0.68558 0.0
O209 O 0.68748 0.04289 0.65227 0.0
O210 O 0.71275 0.03405 0.65728 0.0
C211 C 0.64357 0.00888 0.70755 0.0
C212 C 0.67267 0.97909 0.66175 0.0
C213 C 0.71122 0.0402 0.72659 0.0
O214 O 0.65382 0.02459 0.69099 0.0
O215 O 0.65305 0.99768 0.71258 0.0
O216 O 0.70751 0.02118 0.71887 0.0
O217 O 0.70088 0.04787 0.71366 0.0
C218 C 0.7059 0.04511 0.64427 0.0
O219 O 0.68495 0.98606 0.6823 0.0
O220 O 0.66534 0.9916 0.65377 0.0
In221 In 0.98362 0.66444 0.68287 0.0
O222 O 0.98127 0.63015 0.68547 0.0
O223 O 0.00167 0.65528 0.7137 0.0
C224 C 0.95668 0.6605 0.64171 0.0
C225 C 0.9606 0.66891 0.72361 0.0
C226 C 0.02334 0.69348 0.66067 0.0
O227 O 0.95763 0.64382 0.65059 0.0
O228 O 0.96892 0.67868 0.65382 0.0
O229 O 0.01577 0.69857 0.68083 0.0
O230 O 0.01114 0.67368 0.65232 0.0
C231 C 0.99393 0.63539 0.70566 0.0
O232 O 0.97847 0.68537 0.71475 0.0
O233 O 0.95441 0.6506 0.71168 0.0
H234 H 0.15216 0.3563 0.21352 0.0
H235 H 0.12462 0.35678 0.24333 0.0
H236 H 0.07179 0.29886 0.20296 0.0
H237 H 0.09984 0.29791 0.1737 0.0
H238 H 0.16322 0.32573 0.21071 0.0
H239 H 0.13672 0.35969 0.14887 0.0
H240 H 0.11001 0.36459 0.12169 0.0
H241 H 0.09046 0.30186 0.08172 0.0
H242 H 0.11704 0.29691 0.10925 0.0
H243 H 0.18151 0.29477 0.11303 0.0
H244 H 0.21318 0.29931 0.08584 0.0
H245 H 0.25487 0.36539 0.11914 0.0
H246 H 0.22328 0.36067 0.14646 0.0
H247 H 0.16295 0.32443 0.11195 0.0
H248 H 0.19886 0.29779 0.1746 0.0
H249 H 0.22764 0.29885 0.20431 0.0
H250 H 0.23283 0.35709 0.24378 0.0
H251 H 0.20507 0.35651 0.21348 0.0
C252 C 0.12812 0.32709 0.19133 0.0
C253 C 0.13464 0.34374 0.21095 0.0
C254 C 0.11878 0.34411 0.22787 0.0
C255 C 0.09591 0.3279 0.22553 0.0
C256 C 0.08928 0.31147 0.20547 0.0
C257 C 0.10526 0.31106 0.18852 0.0
C258 C 0.14561 0.32583 0.17535 0.0
C259 C 0.16326 0.32566 0.18908 0.0
C260 C 0.14541 0.32526 0.14716 0.0
C261 C 0.12863 0.32777 0.13133 0.0
C262 C 0.12651 0.34687 0.13445 0.0
C263 C 0.11143 0.34979 0.1187 0.0
C264 C 0.09817 0.33363 0.09952 0.0
C265 C 0.10031 0.31449 0.09648 0.0
C266 C 0.11552 0.31167 0.11212 0.0
C267 C 0.20016 0.3273 0.13188 0.0
C268 C 0.19753 0.31015 0.11456 0.0
C269 C 0.21558 0.31274 0.09912 0.0
C270 C 0.2364 0.33273 0.10035 0.0
C271 C 0.23895 0.3499 0.11765 0.0
C272 C 0.221 0.34716 0.13339 0.0
C273 C 0.18086 0.32502 0.14742 0.0
C274 C 0.16277 0.32429 0.13358 0.0
C275 C 0.18112 0.32574 0.17557 0.0
C276 C 0.19986 0.32714 0.19171 0.0
C277 C 0.20659 0.31106 0.18929 0.0
C278 C 0.22285 0.31152 0.20651 0.0
C279 C 0.23259 0.32805 0.22649 0.0
C280 C 0.22605 0.34433 0.22841 0.0
C281 C 0.20997 0.34392 0.2112 0.0
H282 H 0.71817 0.88871 0.2044 0.0
H283 H 0.71625 0.91541 0.23496 0.0
H284 H 0.65081 0.89721 0.2038 0.0
H285 H 0.65248 0.87005 0.17407 0.0
H286 H 0.69103 0.84449 0.20584 0.0
H287 H 0.71047 0.90105 0.138 0.0
H288 H 0.70612 0.9286 0.11196 0.0
H289 H 0.63995 0.87669 0.08758 0.0
H290 H 0.64469 0.84921 0.11315 0.0
H291 H 0.64421 0.79183 0.114 0.0
H292 H 0.63929 0.75953 0.08839 0.0
H293 H 0.70496 0.77309 0.1136 0.0
H294 H 0.70948 0.80508 0.1397 0.0
H295 H 0.67444 0.83526 0.10902 0.0
H296 H 0.6517 0.77987 0.1764 0.0
H297 H 0.64972 0.75185 0.20777 0.0
H298 H 0.71593 0.79938 0.23686 0.0
H299 H 0.71809 0.82715 0.20483 0.0
C300 C 0.68554 0.87744 0.18679 0.0
C301 C 0.70354 0.89069 0.20393 0.0
C302 C 0.70249 0.90606 0.22127 0.0
C303 C 0.68332 0.90835 0.22194 0.0
C304 C 0.6657 0.89567 0.20402 0.0
C305 C 0.66675 0.88031 0.18675 0.0
C306 C 0.68538 0.85911 0.17093 0.0
C307 C 0.68803 0.84279 0.18451 0.0
C308 C 0.68043 0.85634 0.14334 0.0
C309 C 0.67785 0.87312 0.12763 0.0
C310 C 0.69502 0.89566 0.12708 0.0
C311 C 0.69246 0.91138 0.11223 0.0
C312 C 0.67265 0.90489 0.09767 0.0
C313 C 0.65557 0.88224 0.09817 0.0
C314 C 0.65819 0.86651 0.1129 0.0
C315 C 0.67715 0.8008 0.12889 0.0
C316 C 0.65754 0.78782 0.114 0.0
C317 C 0.65482 0.76942 0.09923 0.0
C318 C 0.67176 0.7637 0.0988 0.0
C319 C 0.69142 0.77678 0.11375 0.0
C320 C 0.69407 0.79512 0.12866 0.0
C321 C 0.6801 0.82064 0.14398 0.0
C322 C 0.67795 0.83721 0.13025 0.0
C323 C 0.68512 0.82342 0.17155 0.0
C324 C 0.68512 0.80557 0.18809 0.0
C325 C 0.66604 0.78408 0.18901 0.0
C326 C 0.66482 0.76816 0.20719 0.0
C327 C 0.68259 0.77345 0.22497 0.0
C328 C 0.70204 0.7947 0.2233 0.0
C329 C 0.70325 0.81063 0.20511 0.0
H330 H 0.09368 0.80302 0.17235 0.0
H331 H 0.06784 0.77357 0.20288 0.0
H332 H 0.12446 0.7761 0.24343 0.0
H333 H 0.14986 0.80451 0.2123 0.0
H334 H 0.15682 0.84523 0.20685 0.0
H335 H 0.10656 0.81997 0.11243 0.0
H336 H 0.07955 0.78731 0.08646 0.0
H337 H 0.10839 0.74897 0.11768 0.0
H338 H 0.13518 0.78164 0.1439 0.0
H339 H 0.20114 0.85274 0.10951 0.0
H340 H 0.23317 0.88043 0.08386 0.0
H341 H 0.22086 0.93254 0.11238 0.0
H342 H 0.18912 0.90469 0.13861 0.0
H343 H 0.15678 0.83939 0.10837 0.0
H344 H 0.21862 0.87513 0.17031 0.0
H345 H 0.24773 0.90258 0.19973 0.0
H346 H 0.19905 0.91641 0.23606 0.0
H347 H 0.17021 0.88951 0.2059 0.0
C348 C 0.12372 0.80589 0.18991 0.0
C349 C 0.10044 0.79686 0.18749 0.0
C350 C 0.08571 0.78022 0.20517 0.0
C351 C 0.09403 0.7724 0.22564 0.0
C352 C 0.11735 0.78135 0.22768 0.0
C353 C 0.13197 0.79781 0.21001 0.0
C354 C 0.13985 0.82464 0.17278 0.0
C355 C 0.15667 0.84408 0.18527 0.0
C356 C 0.13964 0.82319 0.14468 0.0
C357 C 0.1227 0.8031 0.13015 0.0
C358 C 0.10692 0.80446 0.1138 0.0
C359 C 0.09151 0.78582 0.09906 0.0
C360 C 0.09195 0.76566 0.10002 0.0
C361 C 0.10781 0.76437 0.11643 0.0
C362 C 0.12298 0.78292 0.13151 0.0
C363 C 0.19282 0.87667 0.12607 0.0
C364 C 0.20525 0.87012 0.11006 0.0
C365 C 0.22352 0.88598 0.09529 0.0
C366 C 0.22965 0.90877 0.096 0.0
C367 C 0.21686 0.91521 0.11168 0.0
C368 C 0.19864 0.89931 0.1266 0.0
C369 C 0.17415 0.85973 0.14255 0.0
C370 C 0.1567 0.84078 0.12991 0.0
C371 C 0.17393 0.86156 0.17063 0.0
C372 C 0.19225 0.88037 0.18574 0.0
C373 C 0.21436 0.88455 0.18405 0.0
C374 C 0.23093 0.90006 0.20113 0.0
C375 C 0.22568 0.91156 0.22044 0.0
C376 C 0.20374 0.90804 0.22128 0.0
C377 C 0.18719 0.89256 0.20416 0.0
H378 H 0.27985 0.1714 0.83031 0.0
H379 H 0.27797 0.19733 0.79858 0.0
H380 H 0.34609 0.24732 0.81868 0.0
H381 H 0.34775 0.22139 0.8505 0.0
H382 H 0.30844 0.15564 0.82636 0.0
H383 H 0.29542 0.20068 0.89003 0.0
H384 H 0.30239 0.23387 0.9152 0.0
H385 H 0.36484 0.24112 0.94409 0.0
H386 H 0.35846 0.20887 0.91748 0.0
H387 H 0.35677 0.15209 0.91864 0.0
H388 H 0.36054 0.12458 0.9454 0.0
H389 H 0.29332 0.07378 0.92291 0.0
H390 H 0.28997 0.1013 0.8956 0.0
H391 H 0.32854 0.1677 0.92215 0.0
H392 H 0.34776 0.13035 0.85889 0.0
H393 H 0.34911 0.10282 0.82961 0.0
H394 H 0.28414 0.08551 0.79761 0.0
H395 H 0.28241 0.11241 0.82794 0.0
C396 C 0.31387 0.1945 0.84296 0.0
C397 C 0.29427 0.18806 0.82811 0.0
C398 C 0.29327 0.20285 0.80986 0.0
C399 C 0.3119 0.22439 0.80599 0.0
C400 C 0.33131 0.231 0.82143 0.0
C401 C 0.3323 0.21618 0.83967 0.0
C402 C 0.31568 0.17779 0.85984 0.0
C403 C 0.31231 0.15802 0.84749 0.0
C404 C 0.32214 0.18164 0.88703 0.0
C405 C 0.3265 0.20232 0.90155 0.0
C406 C 0.31084 0.20968 0.90132 0.0
C407 C 0.31471 0.22852 0.91613 0.0
C408 C 0.33416 0.24021 0.93191 0.0
C409 C 0.34984 0.23282 0.93196 0.0
C410 C 0.34609 0.21418 0.91691 0.0
C411 C 0.32317 0.12871 0.90497 0.0
C412 C 0.34284 0.13502 0.91953 0.0
C413 C 0.34491 0.11928 0.93496 0.0
C414 C 0.32723 0.09692 0.93639 0.0
C415 C 0.30742 0.09073 0.92196 0.0
C416 C 0.30544 0.10646 0.90637 0.0
C417 C 0.32103 0.14551 0.88869 0.0
C418 C 0.32438 0.16523 0.90111 0.0
C419 C 0.31538 0.14206 0.86132 0.0
C420 C 0.31489 0.12338 0.84585 0.0
C421 C 0.33347 0.12017 0.84619 0.0
C422 C 0.33437 0.10462 0.82912 0.0
C423 C 0.31685 0.09211 0.81102 0.0
C424 C 0.29785 0.0947 0.81143 0.0
C425 C 0.29691 0.11021 0.82864 0.0
H426 H 0.82753 0.11263 0.82877 0.0
H427 H 0.79924 0.08608 0.79774 0.0
H428 H 0.75092 0.10233 0.82989 0.0
H429 H 0.77943 0.12939 0.86007 0.0
H430 H 0.84408 0.15635 0.82817 0.0
H431 H 0.80825 0.09968 0.89579 0.0
H432 H 0.7774 0.07147 0.92267 0.0
H433 H 0.76049 0.12139 0.94709 0.0
H434 H 0.79175 0.14957 0.9208 0.0
H435 H 0.84943 0.20988 0.91786 0.0
H436 H 0.87671 0.24218 0.94369 0.0
H437 H 0.92794 0.22579 0.92378 0.0
H438 H 0.90071 0.19416 0.89707 0.0
H439 H 0.83593 0.16509 0.92492 0.0
H440 H 0.86921 0.22088 0.85756 0.0
H441 H 0.89555 0.24883 0.82625 0.0
H442 H 0.91448 0.20132 0.79818 0.0
H443 H 0.88857 0.17365 0.83013 0.0
C444 C 0.80563 0.12295 0.8469 0.0
C445 C 0.81075 0.11025 0.82936 0.0
C446 C 0.79451 0.09496 0.81174 0.0
C447 C 0.77285 0.09219 0.8112 0.0
C448 C 0.76752 0.10428 0.82954 0.0
C449 C 0.78375 0.11956 0.84709 0.0
C450 C 0.82361 0.14137 0.86291 0.0
C451 C 0.8426 0.15794 0.84949 0.0
C452 C 0.82127 0.14395 0.89051 0.0
C453 C 0.80221 0.12668 0.90621 0.0
C454 C 0.79782 0.10448 0.90688 0.0
C455 C 0.78013 0.08837 0.92222 0.0
C456 C 0.76643 0.09413 0.93712 0.0
C457 C 0.77092 0.11642 0.93632 0.0
C458 C 0.7887 0.13254 0.92114 0.0
C459 C 0.87311 0.19977 0.90538 0.0
C460 C 0.86659 0.21336 0.91902 0.0
C461 C 0.8822 0.23173 0.93398 0.0
C462 C 0.90462 0.23669 0.93596 0.0
C463 C 0.91099 0.22283 0.92237 0.0
C464 C 0.89542 0.20465 0.90713 0.0
C465 C 0.85635 0.17999 0.89012 0.0
C466 C 0.83763 0.16323 0.90371 0.0
C467 C 0.85889 0.17732 0.86263 0.0
C468 C 0.87703 0.1952 0.84635 0.0
C469 C 0.87948 0.21668 0.84521 0.0
C470 C 0.89435 0.23255 0.82705 0.0
C471 C 0.90696 0.22723 0.80956 0.0
C472 C 0.90516 0.20603 0.81152 0.0
C473 C 0.89027 0.19015 0.82967 0.0
H474 H 0.79701 0.64685 0.82054 0.0
H475 H 0.76873 0.64539 0.79041 0.0
H476 H 0.77413 0.70438 0.82803 0.0
H477 H 0.80341 0.70631 0.85758 0.0
H478 H 0.83875 0.67783 0.82197 0.0
H479 H 0.77994 0.64395 0.88659 0.0
H480 H 0.74815 0.63897 0.91358 0.0
H481 H 0.78922 0.70517 0.9469 0.0
H482 H 0.82111 0.71002 0.91989 0.0
H483 H 0.88944 0.71048 0.91883 0.0
H484 H 0.91692 0.70602 0.94541 0.0
H485 H 0.89079 0.63922 0.91362 0.0
H486 H 0.86357 0.64383 0.88701 0.0
H487 H 0.84076 0.68148 0.92067 0.0
H488 H 0.90279 0.70587 0.85714 0.0
H489 H 0.92985 0.70339 0.82764 0.0
H490 H 0.87553 0.64456 0.79039 0.0
H491 H 0.84899 0.64654 0.82053 0.0
C492 C 0.80237 0.67669 0.84134 0.0
C493 C 0.79204 0.65942 0.82245 0.0
C494 C 0.77567 0.6585 0.80535 0.0
C495 C 0.76905 0.67474 0.80678 0.0
C496 C 0.77898 0.69174 0.82621 0.0
C497 C 0.79553 0.69271 0.84333 0.0
C498 C 0.82144 0.67863 0.85727 0.0
C499 C 0.83909 0.67845 0.84359 0.0
C500 C 0.82212 0.67992 0.88541 0.0
C501 C 0.80279 0.67742 0.9011 0.0
C502 C 0.78206 0.65744 0.89959 0.0
C503 C 0.76398 0.65455 0.91515 0.0
C504 C 0.76626 0.67167 0.93237 0.0
C505 C 0.78699 0.69177 0.93368 0.0
C506 C 0.80519 0.69453 0.91835 0.0
C507 C 0.87464 0.67755 0.90084 0.0
C508 C 0.88974 0.69494 0.91755 0.0
C509 C 0.90542 0.6924 0.93262 0.0
C510 C 0.90591 0.67225 0.9316 0.0
C511 C 0.89066 0.65484 0.91495 0.0
C512 C 0.87523 0.65751 0.89962 0.0
C513 C 0.85767 0.6799 0.88528 0.0
C514 C 0.84054 0.68115 0.89905 0.0
C515 C 0.85692 0.67853 0.85715 0.0
C516 C 0.87385 0.67635 0.84112 0.0
C517 C 0.89684 0.69219 0.84298 0.0
C518 C 0.91225 0.6909 0.82589 0.0
C519 C 0.90491 0.67379 0.80658 0.0
C520 C 0.88191 0.65775 0.80524 0.0
C521 C 0.86663 0.65898 0.82234 0.0
H522 H 0.81753 0.68627 0.54494 0.0
H523 H 0.79078 0.68794 0.57501 0.0
H524 H 0.73672 0.62947 0.53688 0.0
H525 H 0.76398 0.6273 0.50742 0.0
H526 H 0.82786 0.65508 0.54308 0.0
H527 H 0.80315 0.68946 0.47876 0.0
H528 H 0.7762 0.69444 0.45208 0.0
H529 H 0.75072 0.62826 0.41861 0.0
H530 H 0.77789 0.62342 0.44531 0.0
H531 H 0.84528 0.62273 0.44543 0.0
H532 H 0.87701 0.62726 0.41834 0.0
H533 H 0.91847 0.6936 0.45112 0.0
H534 H 0.88684 0.68891 0.47826 0.0
H535 H 0.82613 0.65187 0.44436 0.0
H536 H 0.86287 0.62631 0.50736 0.0
H537 H 0.89198 0.62786 0.53691 0.0
H538 H 0.89785 0.68694 0.57485 0.0
H539 H 0.86973 0.68585 0.54472 0.0
C540 C 0.79281 0.65667 0.5239 0.0
C541 C 0.7999 0.67385 0.54291 0.0
C542 C 0.7845 0.6749 0.55998 0.0
C543 C 0.76152 0.65886 0.55838 0.0
C544 C 0.75431 0.64195 0.53884 0.0
C545 C 0.76984 0.64084 0.52177 0.0
C546 C 0.80984 0.65464 0.50787 0.0
C547 C 0.82758 0.65456 0.52146 0.0
C548 C 0.80918 0.65344 0.47973 0.0
C549 C 0.79236 0.656 0.46414 0.0
C550 C 0.79168 0.67598 0.46578 0.0
C551 C 0.77642 0.67887 0.4504 0.0
C552 C 0.76143 0.66175 0.43324 0.0
C553 C 0.76201 0.64167 0.43179 0.0
C554 C 0.77752 0.63891 0.44693 0.0
C555 C 0.86382 0.65541 0.46398 0.0
C556 C 0.86126 0.63818 0.44684 0.0
C557 C 0.87936 0.64076 0.43146 0.0
C558 C 0.90014 0.66081 0.4326 0.0
C559 C 0.90259 0.67806 0.4497 0.0
C560 C 0.88461 0.67534 0.46533 0.0
C561 C 0.84457 0.65311 0.47966 0.0
C562 C 0.82627 0.65212 0.46599 0.0
C563 C 0.8452 0.65431 0.5078 0.0
C564 C 0.86416 0.65601 0.52375 0.0
C565 C 0.87082 0.63985 0.52168 0.0
C566 C 0.88726 0.64061 0.5388 0.0
C567 C 0.89728 0.65751 0.55832 0.0
C568 C 0.89084 0.67389 0.55984 0.0
C569 C 0.87457 0.67318 0.54274 0.0
H570 H 0.39034 0.22348 0.53897 0.0
H571 H 0.39183 0.25206 0.56926 0.0
H572 H 0.32601 0.23681 0.54259 0.0
H573 H 0.32465 0.20837 0.51243 0.0
H574 H 0.36113 0.17976 0.5418 0.0
H575 H 0.38067 0.23629 0.47304 0.0
H576 H 0.37683 0.26375 0.4461 0.0
H577 H 0.30927 0.21284 0.42504 0.0
H578 H 0.31346 0.18546 0.45147 0.0
H579 H 0.31177 0.12742 0.45026 0.0
H580 H 0.30597 0.09492 0.42434 0.0
H581 H 0.37128 0.10695 0.44882 0.0
H582 H 0.37669 0.13912 0.47519 0.0
H583 H 0.34235 0.17051 0.44556 0.0
H584 H 0.31919 0.11523 0.51234 0.0
H585 H 0.31636 0.08656 0.54321 0.0
H586 H 0.38324 0.13227 0.57204 0.0
H587 H 0.38625 0.16067 0.54043 0.0
C588 C 0.35748 0.2139 0.52319 0.0
C589 C 0.37636 0.22652 0.5394 0.0
C590 C 0.37715 0.24278 0.5568 0.0
C591 C 0.35903 0.24673 0.55841 0.0
C592 C 0.34043 0.23451 0.54156 0.0
C593 C 0.33963 0.21822 0.52424 0.0
C594 C 0.35552 0.19479 0.50724 0.0
C595 C 0.35761 0.17802 0.52058 0.0
C596 C 0.34975 0.19192 0.47987 0.0
C597 C 0.34731 0.20887 0.46435 0.0
C598 C 0.36501 0.23112 0.46272 0.0
C599 C 0.36276 0.24679 0.44733 0.0
C600 C 0.34275 0.2405 0.43331 0.0
C601 C 0.32505 0.21819 0.43512 0.0
C602 C 0.32736 0.20253 0.45038 0.0
C603 C 0.34459 0.13562 0.46481 0.0
C604 C 0.32483 0.12303 0.45004 0.0
C605 C 0.3216 0.10452 0.43509 0.0
C606 C 0.33818 0.0983 0.43439 0.0
C607 C 0.358 0.11101 0.4492 0.0
C608 C 0.36116 0.12945 0.46427 0.0
C609 C 0.34814 0.1556 0.48011 0.0
C610 C 0.3463 0.17246 0.46667 0.0
C611 C 0.35361 0.1583 0.50755 0.0
C612 C 0.35301 0.14006 0.52389 0.0
C613 C 0.33349 0.11889 0.52477 0.0
C614 C 0.33178 0.1026 0.54269 0.0
C615 C 0.3495 0.10721 0.56025 0.0
C616 C 0.36937 0.12812 0.55863 0.0
C617 C 0.37106 0.14441 0.54069 0.0
H618 H 0.76041 0.13546 0.50637 0.0
H619 H 0.73441 0.10636 0.53714 0.0
H620 H 0.79077 0.10867 0.57808 0.0
H621 H 0.81633 0.13673 0.54673 0.0
H622 H 0.82355 0.17754 0.54087 0.0
H623 H 0.77299 0.15169 0.44687 0.0
H624 H 0.74615 0.119 0.42081 0.0
H625 H 0.77563 0.08111 0.45156 0.0
H626 H 0.80223 0.11381 0.4779 0.0
H627 H 0.86796 0.18482 0.44364 0.0
H628 H 0.8992 0.21235 0.41686 0.0
H629 H 0.88611 0.26417 0.44451 0.0
H630 H 0.85523 0.2365 0.47195 0.0
H631 H 0.82344 0.17122 0.44245 0.0
H632 H 0.88534 0.20719 0.50435 0.0
H633 H 0.91437 0.23444 0.53404 0.0
H634 H 0.86577 0.2486 0.56993 0.0
H635 H 0.837 0.22183 0.53961 0.0
C636 C 0.79033 0.13818 0.52412 0.0
C637 C 0.76708 0.12932 0.52164 0.0
C638 C 0.75226 0.11288 0.53946 0.0
C639 C 0.76046 0.10511 0.56011 0.0
C640 C 0.78376 0.11389 0.5622 0.0
C641 C 0.79846 0.13014 0.54439 0.0
C642 C 0.80655 0.1568 0.5069 0.0
C643 C 0.8234 0.17628 0.5193 0.0
C644 C 0.80634 0.1552 0.47882 0.0
C645 C 0.78942 0.13504 0.46439 0.0
C646 C 0.7735 0.13626 0.44814 0.0
C647 C 0.7582 0.11761 0.43334 0.0
C648 C 0.75888 0.09757 0.43412 0.0
C649 C 0.77486 0.09641 0.45044 0.0
C650 C 0.78993 0.11497 0.4656 0.0
C651 C 0.85936 0.20864 0.45987 0.0
C652 C 0.87177 0.20211 0.44382 0.0
C653 C 0.88956 0.21787 0.42837 0.0
C654 C 0.8952 0.24052 0.4284 0.0
C655 C 0.88248 0.24695 0.44427 0.0
C656 C 0.86477 0.23116 0.45992 0.0
C657 C 0.84083 0.19172 0.47652 0.0
C658 C 0.82339 0.17271 0.46398 0.0
C659 C 0.84066 0.19369 0.50458 0.0
C660 C 0.859 0.21256 0.51961 0.0
C661 C 0.88108 0.21664 0.51805 0.0
C662 C 0.89761 0.23204 0.53528 0.0
C663 C 0.89235 0.24356 0.55455 0.0
C664 C 0.87047 0.2402 0.5552 0.0
C665 C 0.85396 0.2248 0.53796 0.0
H666 H 0.946 0.50588 0.15854 0.0
H667 H 0.94891 0.53462 0.12755 0.0
H668 H 0.01509 0.58068 0.15802 0.0
H669 H 0.01241 0.55169 0.1882 0.0
H670 H 0.97143 0.48724 0.15734 0.0
H671 H 0.95441 0.52632 0.22458 0.0
H672 H 0.95909 0.55807 0.25127 0.0
H673 H 0.02479 0.57124 0.27578 0.0
H674 H 0.0197 0.53913 0.24959 0.0
H675 H 0.01898 0.4813 0.24762 0.0
H676 H 0.02333 0.45393 0.2739 0.0
H677 H 0.95601 0.40277 0.25232 0.0
H678 H 0.95202 0.43021 0.22553 0.0
H679 H 0.98955 0.4957 0.25376 0.0
H680 H 0.00821 0.45883 0.18636 0.0
H681 H 0.00707 0.43055 0.15611 0.0
H682 H 0.94115 0.41494 0.12942 0.0
H683 H 0.94242 0.44338 0.15978 0.0
C684 C 0.97892 0.52663 0.17582 0.0
C685 C 0.96102 0.52227 0.15876 0.0
C686 C 0.96264 0.53877 0.14118 0.0
C687 C 0.98229 0.5599 0.14021 0.0
C688 C -0.00016 0.56449 0.15805 0.0
C689 C 0.99821 0.548 0.17556 0.0
C690 C 0.97844 0.5083 0.1919 0.0
C691 C 0.9748 0.48881 0.17859 0.0
C692 C 0.98368 0.51075 0.2194 0.0
C693 C 0.98675 0.53042 0.23499 0.0
C694 C 0.96986 0.53614 0.23561 0.0
C695 C 0.9726 0.55435 0.25085 0.0
C696 C 0.99233 0.56727 0.26575 0.0
C697 C 0.00922 0.56147 0.26498 0.0
C698 C 0.0064 0.54319 0.24988 0.0
C699 C 0.98524 0.45775 0.23448 0.0
C700 C 0.00517 0.46416 0.24855 0.0
C701 C 0.00757 0.44852 0.26372 0.0
C702 C 0.98998 0.42614 0.26536 0.0
C703 C 0.97 0.41978 0.25123 0.0
C704 C 0.96767 0.43544 0.23592 0.0
C705 C 0.98266 0.47471 0.21915 0.0
C706 C 0.98574 0.49393 0.23261 0.0
C707 C 0.97705 0.47205 0.19173 0.0
C708 C 0.97531 0.45312 0.17558 0.0
C709 C 0.99326 0.44896 0.17451 0.0
C710 C 0.99259 0.43276 0.15713 0.0
C711 C 0.97402 0.42046 0.14027 0.0
C712 C 0.95581 0.42428 0.14188 0.0
C713 C 0.95648 0.44045 0.15932 0.0
H714 H 0.49664 0.44436 0.16029 0.0
H715 H 0.46787 0.41791 0.12973 0.0
H716 H 0.41955 0.4325 0.16561 0.0
H717 H 0.44861 0.45979 0.19489 0.0
H718 H 0.51298 0.48745 0.16053 0.0
H719 H 0.47733 0.43084 0.22918 0.0
H720 H 0.44618 0.40325 0.25628 0.0
H721 H 0.43121 0.45456 0.28066 0.0
H722 H 0.46274 0.48208 0.25416 0.0
H723 H 0.51901 0.53989 0.25234 0.0
H724 H 0.54626 0.57239 0.27785 0.0
H725 H 0.59895 0.55993 0.2521 0.0
H726 H 0.57159 0.52774 0.22608 0.0
H727 H 0.50664 0.49662 0.25757 0.0
H728 H 0.53811 0.55201 0.18974 0.0
H729 H 0.56405 0.58018 0.15834 0.0
H730 H 0.58314 0.53312 0.12905 0.0
H731 H 0.55762 0.50521 0.16109 0.0
C732 C 0.47486 0.45405 0.18009 0.0
C733 C 0.47978 0.44167 0.16176 0.0
C734 C 0.46323 0.42638 0.14442 0.0
C735 C 0.44139 0.42316 0.14501 0.0
C736 C 0.43627 0.4348 0.16426 0.0
C737 C 0.45284 0.45021 0.18138 0.0
C738 C 0.49313 0.47258 0.19575 0.0
C739 C 0.51189 0.48912 0.1819 0.0
C740 C 0.49129 0.47535 0.22344 0.0
C741 C 0.47227 0.45847 0.23956 0.0
C742 C 0.46728 0.43609 0.24035 0.0
C743 C 0.44942 0.42033 0.25581 0.0
C744 C 0.43614 0.42665 0.2707 0.0
C745 C 0.44129 0.44915 0.26988 0.0
C746 C 0.45923 0.4649 0.25459 0.0
C747 C 0.54327 0.53145 0.23718 0.0
C748 C 0.53645 0.54419 0.25218 0.0
C749 C 0.55205 0.5627 0.2669 0.0
C750 C 0.57484 0.56878 0.26718 0.0
C751 C 0.58162 0.55597 0.25207 0.0
C752 C 0.56599 0.53751 0.23721 0.0
C753 C 0.52641 0.51141 0.22229 0.0
C754 C 0.50797 0.49466 0.23629 0.0
C755 C 0.52838 0.50862 0.19467 0.0
C756 C 0.54605 0.52654 0.17794 0.0
C757 C 0.5483 0.54794 0.17705 0.0
C758 C 0.56294 0.56394 0.15886 0.0
C759 C 0.57553 0.55883 0.14105 0.0
C760 C 0.57385 0.53767 0.14264 0.0
C761 C 0.55918 0.52165 0.16084 0.0
H762 H 0.55593 0.0512 0.15978 0.0
H763 H 0.58157 0.04833 0.12847 0.0
H764 H 0.56233 0.98263 0.15957 0.0
H765 H 0.53625 0.98536 0.19033 0.0
H766 H 0.51102 0.02347 0.15924 0.0
H767 H 0.57148 0.04113 0.2201 0.0
H768 H 0.59838 0.03469 0.24416 0.0
H769 H 0.54369 0.97915 0.28574 0.0
H770 H 0.517 0.98417 0.25952 0.0
H771 H 0.46607 0.98407 0.25939 0.0
H772 H 0.43467 0.97919 0.28621 0.0
H773 H 0.43609 0.0354 0.2459 0.0
H774 H 0.46911 0.04162 0.22113 0.0
H775 H 0.50604 0.01296 0.25713 0.0
H776 H 0.44758 0.98602 0.19062 0.0
H777 H 0.41885 0.98387 0.16012 0.0
H778 H 0.46614 0.04947 0.12929 0.0
H779 H 0.49456 0.05175 0.16033 0.0
C780 C 0.54427 0.01856 0.17748 0.0
C781 C 0.55745 0.03629 0.16005 0.0
C782 C 0.5722 0.03468 0.14228 0.0
C783 C 0.57394 0.01521 0.14146 0.0
C784 C 0.56119 0.99774 0.15951 0.0
C785 C 0.54645 0.99937 0.17729 0.0
C786 C 0.52681 0.0193 0.19403 0.0
C787 C 0.51011 0.02154 0.18075 0.0
C788 C 0.5253 0.01595 0.22199 0.0
C789 C 0.54207 0.01289 0.23746 0.0
C790 C 0.56525 0.02723 0.23394 0.0
C791 C 0.58071 0.02376 0.24821 0.0
C792 C 0.5734 0.00628 0.26702 0.0
C793 C 0.55015 0.99241 0.27103 0.0
C794 C 0.53475 0.99551 0.25627 0.0
C795 C 0.46997 0.01309 0.2379 0.0
C796 C 0.45985 0.99557 0.25653 0.0
C797 C 0.44154 0.99257 0.27165 0.0
C798 C 0.43245 0.0067 0.26817 0.0
C799 C 0.44266 0.02429 0.24951 0.0
C800 C 0.46138 0.02764 0.23486 0.0
C801 C 0.48966 0.01609 0.22219 0.0
C802 C 0.50696 0.01491 0.23564 0.0
C803 C 0.49134 0.0195 0.19424 0.0
C804 C 0.47317 0.01912 0.17791 0.0
C805 C 0.4516 0.00014 0.17771 0.0
C806 C 0.43527 0.99884 0.16006 0.0
C807 C 0.44024 0.01645 0.14215 0.0
C808 C 0.46166 0.03572 0.14299 0.0
C809 C 0.47798 0.037 0.16062 0.0
H810 H 0.48357 0.02118 0.87894 0.0
H811 H 0.45703 0.0231 0.90918 0.0
H812 H 0.40288 0.96357 0.87289 0.0
H813 H 0.42993 0.96122 0.84322 0.0
H814 H 0.49423 0.99007 0.87771 0.0
H815 H 0.4684 0.02313 0.81299 0.0
H816 H 0.44118 0.02756 0.78617 0.0
H817 H 0.41575 0.96095 0.75409 0.0
H818 H 0.44319 0.95664 0.78092 0.0
H819 H 0.51103 0.95681 0.78024 0.0
H820 H 0.54272 0.96131 0.75308 0.0
H821 H 0.58398 0.02802 0.78495 0.0
H822 H 0.5524 0.02338 0.81214 0.0
H823 H 0.49139 0.98548 0.77906 0.0
H824 H 0.52867 0.96078 0.84207 0.0
H825 H 0.55799 0.96253 0.87139 0.0
H826 H 0.56469 0.02231 0.90832 0.0
H827 H 0.53629 0.02097 0.87845 0.0
C828 C 0.45878 0.99107 0.85879 0.0
C829 C 0.46596 0.00859 0.87735 0.0
C830 C 0.45068 0.00977 0.89451 0.0
C831 C 0.42775 0.99351 0.89347 0.0
C832 C 0.42044 0.97624 0.87439 0.0
C833 C 0.43584 0.97502 0.85721 0.0
C834 C 0.47572 0.98896 0.84266 0.0
C835 C 0.49369 0.98924 0.8561 0.0
C836 C 0.47474 0.98733 0.81456 0.0
C837 C 0.45764 0.98949 0.79907 0.0
C838 C 0.45687 0.00943 0.8003 0.0
C839 C 0.44146 0.01201 0.78485 0.0
C840 C 0.42643 0.99461 0.76802 0.0
C841 C 0.42707 0.97455 0.76701 0.0
C842 C 0.44273 0.9721 0.78223 0.0
C843 C 0.52947 0.98968 0.79833 0.0
C844 C 0.52695 0.97234 0.78141 0.0
C845 C 0.54503 0.97491 0.766 0.0
C846 C 0.56575 0.99504 0.76688 0.0
C847 C 0.56814 0.01242 0.78372 0.0
C848 C 0.5502 0.00972 0.79939 0.0
C849 C 0.51029 0.98736 0.81417 0.0
C850 C 0.49177 0.986 0.80068 0.0
C851 C 0.51121 0.98891 0.84228 0.0
C852 C 0.53032 0.99078 0.85801 0.0
C853 C 0.53684 0.97451 0.85611 0.0
C854 C 0.55341 0.97539 0.87309 0.0
C855 C 0.5637 0.99254 0.89227 0.0
C856 C 0.55745 0.00907 0.89357 0.0
C857 C 0.54102 0.00821 0.87662 0.0
H858 H 0.05337 0.55744 0.87323 0.0
H859 H 0.05058 0.58393 0.90328 0.0
H860 H 0.98472 0.56371 0.87182 0.0
H861 H 0.98726 0.53675 0.84265 0.0
H862 H 0.02817 0.51358 0.87491 0.0
H863 H 0.04562 0.56814 0.80617 0.0
H864 H 0.04145 0.59522 0.779 0.0
H865 H 0.97504 0.54314 0.75565 0.0
H866 H 0.97965 0.51607 0.7823 0.0
H867 H 0.97904 0.45847 0.7864 0.0
H868 H 0.97357 0.42611 0.76054 0.0
H869 H 0.04055 0.44096 0.78143 0.0
H870 H 0.04568 0.4731 0.80779 0.0
H871 H 0.00911 0.50186 0.77879 0.0
H872 H 0.99082 0.44776 0.84823 0.0
H873 H 0.99221 0.4215 0.87968 0.0
H874 H 0.05866 0.47249 0.90418 0.0
H875 H 0.05717 0.49875 0.87258 0.0
C876 C 0.0206 0.54515 0.85552 0.0
C877 C 0.03845 0.55892 0.87259 0.0
C878 C 0.03689 0.57417 0.88963 0.0
C879 C 0.01737 0.57585 0.89007 0.0
C880 C -0.00012 0.56265 0.87223 0.0
C881 C 0.00143 0.5474 0.85526 0.0
C882 C 0.02097 0.52696 0.83996 0.0
C883 C 0.0246 0.51132 0.85371 0.0
C884 C 0.01559 0.52361 0.81251 0.0
C885 C 0.01289 0.54013 0.79639 0.0
C886 C 0.03014 0.56261 0.79526 0.0
C887 C 0.02769 0.57808 0.77975 0.0
C888 C 0.00788 0.5714 0.76512 0.0
C889 C 0.99067 0.54882 0.76626 0.0
C890 C 0.99321 0.53333 0.78163 0.0
C891 C 0.01272 0.46816 0.79913 0.0
C892 C 0.99253 0.45472 0.78546 0.0
C893 C 0.98949 0.43629 0.77052 0.0
C894 C 0.00667 0.43097 0.7687 0.0
C895 C 0.02685 0.44438 0.78262 0.0
C896 C 0.02984 0.46279 0.79769 0.0
C897 C 0.01606 0.48832 0.81383 0.0
C898 C 0.01313 0.50433 0.79988 0.0
C899 C 0.02208 0.49196 0.84112 0.0
C900 C 0.02399 0.47519 0.8578 0.0
C901 C 0.00593 0.45314 0.85985 0.0
C902 C 0.00674 0.43813 0.87791 0.0
C903 C 0.02555 0.44491 0.8945 0.0
C904 C 0.04384 0.46683 0.89192 0.0
C905 C 0.04305 0.48181 0.87378 0.0
H906 H 0.4434 0.49796 0.86916 0.0
H907 H 0.41539 0.47189 0.90074 0.0
H908 H 0.42566 0.41874 0.8718 0.0
H909 H 0.45433 0.44499 0.84095 0.0
H910 H 0.48558 0.51096 0.87146 0.0
H911 H 0.42973 0.47464 0.79998 0.0
H912 H 0.4028 0.44331 0.77253 0.0
H913 H 0.45315 0.42478 0.75686 0.0
H914 H 0.48011 0.45666 0.78344 0.0
H915 H 0.53873 0.51629 0.77956 0.0
H916 H 0.5704 0.54419 0.75346 0.0
H917 H 0.55476 0.59497 0.77813 0.0
H918 H 0.52353 0.56706 0.80475 0.0
H919 H 0.4949 0.50165 0.77519 0.0
H920 H 0.55075 0.53594 0.84049 0.0
H921 H 0.57961 0.56268 0.87055 0.0
H922 H 0.5324 0.58053 0.90254 0.0
H923 H 0.50381 0.55438 0.87153 0.0
C924 C 0.45098 0.4735 0.85251 0.0
C925 C 0.43942 0.48062 0.8693 0.0
C926 C 0.42341 0.46575 0.88729 0.0
C927 C 0.41841 0.44336 0.88865 0.0
C928 C 0.42902 0.43586 0.87088 0.0
C929 C 0.44535 0.45086 0.85315 0.0
C930 C 0.47053 0.49031 0.83677 0.0
C931 C 0.48732 0.50922 0.85023 0.0
C932 C 0.47356 0.48739 0.80945 0.0
C933 C 0.45685 0.46787 0.79383 0.0
C934 C 0.43487 0.46375 0.79067 0.0
C935 C 0.4195 0.44576 0.77502 0.0
C936 C 0.42575 0.43144 0.76239 0.0
C937 C 0.44781 0.43565 0.76579 0.0
C938 C 0.46322 0.45376 0.78118 0.0
C939 C 0.52891 0.53965 0.79427 0.0
C940 C 0.54218 0.53346 0.77933 0.0
C941 C 0.56018 0.54941 0.76427 0.0
C942 C 0.56514 0.57186 0.76361 0.0
C943 C 0.55168 0.57794 0.7785 0.0
C944 C 0.53378 0.562 0.79371 0.0
C945 C 0.50951 0.52258 0.80974 0.0
C946 C 0.49292 0.50361 0.79631 0.0
C947 C 0.50692 0.52523 0.83724 0.0
C948 C 0.5251 0.54322 0.85353 0.0
C949 C 0.54675 0.54603 0.85343 0.0
C950 C 0.56318 0.56114 0.87092 0.0
C951 C 0.55828 0.57362 0.88917 0.0
C952 C 0.53682 0.57135 0.88862 0.0
C953 C 0.52039 0.55628 0.87102 0.0
H954 H 0.61439 0.83952 0.49415 0.0
H955 H 0.61704 0.86789 0.46271 0.0
H956 H 0.68273 0.91491 0.49366 0.0
H957 H 0.68026 0.88632 0.52444 0.0
H958 H 0.64167 0.82224 0.49336 0.0
H959 H 0.62168 0.86037 0.55989 0.0
H960 H 0.62579 0.892 0.58641 0.0
H961 H 0.69125 0.90546 0.61243 0.0
H962 H 0.68671 0.87349 0.58645 0.0
H963 H 0.6862 0.81606 0.58682 0.0
H964 H 0.69025 0.78837 0.6128 0.0
H965 H 0.62435 0.73686 0.58706 0.0
H966 H 0.62075 0.76463 0.5605 0.0
H967 H 0.65621 0.82986 0.59064 0.0
H968 H 0.67945 0.79589 0.52611 0.0
H969 H 0.68173 0.76915 0.49629 0.0
H970 H 0.61741 0.75214 0.46248 0.0
H971 H 0.6148 0.77831 0.49322 0.0
C972 C 0.64706 0.86081 0.51177 0.0
C973 C 0.62922 0.85606 0.49441 0.0
C974 C 0.6307 0.87233 0.47656 0.0
C975 C 0.65015 0.89361 0.47559 0.0
C976 C 0.66763 0.89859 0.49371 0.0
C977 C 0.66612 0.88233 0.51155 0.0
C978 C 0.64679 0.84269 0.52804 0.0
C979 C 0.64421 0.82358 0.51477 0.0
C980 C 0.65124 0.84502 0.55574 0.0
C981 C 0.65392 0.86462 0.57111 0.0
C982 C 0.63695 0.87023 0.57122 0.0
C983 C 0.63937 0.88836 0.58637 0.0
C984 C 0.65885 0.90131 0.60166 0.0
C985 C 0.67584 0.89565 0.60135 0.0
C986 C 0.67335 0.87745 0.58635 0.0
C987 C 0.65324 0.79237 0.5716 0.0
C988 C 0.67262 0.79879 0.58683 0.0
C989 C 0.67484 0.78295 0.60181 0.0
C990 C 0.6576 0.76035 0.60213 0.0
C991 C 0.6381 0.75402 0.58698 0.0
C992 C 0.63598 0.76988 0.57183 0.0
C993 C 0.65098 0.80936 0.55596 0.0
C994 C 0.65315 0.82825 0.56932 0.0
C995 C 0.64664 0.80705 0.52822 0.0
C996 C 0.64684 0.789 0.51215 0.0
C997 C 0.66553 0.78597 0.51283 0.0
C998 C 0.66695 0.77086 0.49548 0.0
C999 C 0.64984 0.75862 0.4768 0.0
C1000 C 0.63079 0.76111 0.47676 0.0
C1001 C 0.62934 0.77619 0.49421 0.0
H1002 H 0.16211 0.7775 0.49329 0.0
H1003 H 0.13366 0.75117 0.46225 0.0
H1004 H 0.0856 0.76745 0.4952 0.0
H1005 H 0.11428 0.79428 0.52541 0.0
H1006 H 0.1786 0.82138 0.49298 0.0
H1007 H 0.14259 0.76399 0.56026 0.0
H1008 H 0.11154 0.73588 0.58701 0.0
H1009 H 0.09589 0.78643 0.61262 0.0
H1010 H 0.12732 0.81448 0.58642 0.0
H1011 H 0.18387 0.87278 0.58563 0.0
H1012 H 0.21105 0.90505 0.61154 0.0
H1013 H 0.26376 0.89262 0.58579 0.0
H1014 H 0.2365 0.86069 0.55937 0.0
H1015 H 0.17129 0.82933 0.5901 0.0
H1016 H 0.20306 0.88544 0.52304 0.0
H1017 H 0.22894 0.91389 0.49184 0.0
H1018 H 0.24892 0.86753 0.46252 0.0
H1019 H 0.2234 0.8393 0.49428 0.0
C1020 C 0.14035 0.78781 0.51184 0.0
C1021 C 0.14535 0.77516 0.49406 0.0
C1022 C 0.12902 0.76 0.47643 0.0
C1023 C 0.10738 0.7573 0.47611 0.0
C1024 C 0.10218 0.76933 0.49468 0.0
C1025 C 0.11851 0.78449 0.51224 0.0
C1026 C 0.15844 0.80611 0.52786 0.0
C1027 C 0.17731 0.8228 0.51437 0.0
C1028 C 0.15631 0.8085 0.55555 0.0
C1029 C 0.13719 0.79129 0.57126 0.0
C1030 C 0.1324 0.76895 0.57158 0.0
C1031 C 0.1146 0.7529 0.58686 0.0
C1032 C 0.10119 0.75887 0.60204 0.0
C1033 C 0.10609 0.7813 0.6016 0.0
C1034 C 0.12396 0.79734 0.58649 0.0
C1035 C 0.20817 0.86441 0.57043 0.0
C1036 C 0.2013 0.87704 0.58557 0.0
C1037 C 0.21686 0.89541 0.60052 0.0
C1038 C 0.23964 0.90145 0.60088 0.0
C1039 C 0.24645 0.8887 0.58569 0.0
C1040 C 0.23087 0.8704 0.57059 0.0
C1041 C 0.19141 0.84458 0.55517 0.0
C1042 C 0.17283 0.82766 0.56881 0.0
C1043 C 0.19365 0.84214 0.52752 0.0
C1044 C 0.21141 0.86028 0.51115 0.0
C1045 C 0.21344 0.88158 0.5104 0.0
C1046 C 0.22805 0.89775 0.49233 0.0
C1047 C 0.24085 0.8929 0.47456 0.0
C1048 C 0.23944 0.87185 0.47608 0.0
C1049 C 0.22478 0.85567 0.49413 0.0
H1050 H 0.1266 0.30901 0.48568 0.0
H1051 H 0.09898 0.30866 0.45532 0.0
H1052 H 0.10498 0.36742 0.49432 0.0
H1053 H 0.13363 0.36826 0.52407 0.0
H1054 H 0.16857 0.33922 0.48863 0.0
H1055 H 0.10796 0.30606 0.55218 0.0
H1056 H 0.07671 0.30236 0.57933 0.0
H1057 H 0.12006 0.3678 0.61339 0.0
H1058 H 0.15136 0.37136 0.58626 0.0
H1059 H 0.21417 0.36798 0.59053 0.0
H1060 H 0.24065 0.36303 0.61823 0.0
H1061 H 0.22134 0.30036 0.57824 0.0
H1062 H 0.19468 0.30524 0.55092 0.0
H1063 H 0.16861 0.34114 0.58736 0.0
H1064 H 0.23168 0.36689 0.52615 0.0
H1065 H 0.25982 0.36603 0.49699 0.0
H1066 H 0.20714 0.30812 0.45642 0.0
H1067 H 0.17951 0.30851 0.48615 0.0
C1068 C 0.1322 0.33862 0.50722 0.0
C1069 C 0.12192 0.32178 0.48783 0.0
C1070 C 0.10592 0.32149 0.47059 0.0
C1071 C 0.09962 0.33797 0.47238 0.0
C1072 C 0.10958 0.35459 0.49222 0.0
C1073 C 0.12576 0.35494 0.50947 0.0
C1074 C 0.15075 0.33976 0.52356 0.0
C1075 C 0.16846 0.3394 0.51025 0.0
C1076 C 0.15097 0.34069 0.55171 0.0
C1077 C 0.13188 0.33906 0.56709 0.0
C1078 C 0.11067 0.31968 0.56534 0.0
C1079 C 0.09292 0.31751 0.58099 0.0
C1080 C 0.09602 0.33477 0.5985 0.0
C1081 C 0.1172 0.35431 0.59994 0.0
C1082 C 0.13506 0.35634 0.58454 0.0
C1083 C 0.20268 0.33714 0.56842 0.0
C1084 C 0.2157 0.35321 0.58771 0.0
C1085 C 0.23086 0.35039 0.60345 0.0
C1086 C 0.23307 0.33129 0.60042 0.0
C1087 C 0.21986 0.31513 0.58123 0.0
C1088 C 0.20482 0.31804 0.56538 0.0
C1089 C 0.18606 0.33975 0.55237 0.0
C1090 C 0.16884 0.34112 0.56574 0.0
C1091 C 0.18594 0.33906 0.52419 0.0
C1092 C 0.20348 0.33771 0.50841 0.0
C1093 C 0.22632 0.35375 0.51132 0.0
C1094 C 0.24235 0.3534 0.49443 0.0
C1095 C 0.23578 0.33702 0.4743 0.0
C1096 C 0.21293 0.32076 0.47191 0.0
C1097 C 0.19702 0.32107 0.48879 0.0
C1098 C 0.98595 0.37821 0.10634 0.0
C1099 C 0.97938 0.37873 0.07994 0.0
H1100 H 0.98908 0.39067 0.14617 0.0
C1101 C 0.96935 0.39163 0.07401 0.0
H1102 H 0.99366 0.36837 0.11158 0.0
C1103 C 0.96686 0.40454 0.09382 0.0
C1104 C 0.97436 0.40482 0.12 0.0
H1105 H 0.9642 0.39244 0.05384 0.0
H1106 H 0.95997 0.41505 0.0883 0.0
C1107 C 0.98347 0.39111 0.12614 0.0
C1108 C 0.59257 0.60076 0.08456 0.0
C1109 C 0.61374 0.60407 0.07748 0.0
H1110 H 0.56394 0.58388 0.10997 0.0
C1111 C 0.62262 0.59281 0.09188 0.0
H1112 H 0.58526 0.60919 0.07384 0.0
C1113 C 0.61039 0.57831 0.11275 0.0
C1114 C 0.58913 0.57491 0.11972 0.0
H1115 H 0.63894 0.59508 0.08691 0.0
H1116 H 0.61762 0.56982 0.1235 0.0
C1117 C 0.58042 0.58639 0.10543 0.0
C1118 C 0.40606 0.03042 0.09437 0.0
C1119 C 0.3938 0.01014 0.08038 0.0
H1120 H 0.43014 0.04828 0.12513 0.0
C1121 C 0.39643 0.99185 0.08738 0.0
H1122 H 0.40432 0.04478 0.08948 0.0
C1123 C 0.41116 0.99383 0.10771 0.0
C1124 C 0.42367 0.01417 0.12154 0.0
H1125 H 0.38723 0.97598 0.07696 0.0
H1126 H 0.41315 0.97954 0.11212 0.0
C1127 C 0.42089 0.03244 0.11471 0.0
C1128 C 0.40146 0.01621 0.94154 0.0
C1129 C 0.38515 0.99662 0.95426 0.0
H1130 H 0.42703 0.03054 0.91181 0.0
C1131 C 0.38173 0.97576 0.94556 0.0
H1132 H 0.40427 0.03253 0.94756 0.0
C1133 C 0.39506 0.97461 0.92521 0.0
C1134 C 0.41193 0.99432 0.91307 0.0
H1135 H 0.36924 0.96038 0.955 0.0
H1136 H 0.39268 0.95836 0.91971 0.0
C1137 C 0.41457 0.01507 0.9211 0.0
C1138 C 0.03083 0.4226 0.96173 0.0
C1139 C 0.02083 0.39952 0.95655 0.0
H1140 H 0.04002 0.45504 0.94621 0.0
C1141 C 0.01403 0.39173 0.9304 0.0
H1142 H 0.03617 0.42908 0.9817 0.0
C1143 C 0.01629 0.40657 0.91007 0.0
C1144 C 0.02541 0.42954 0.91541 0.0
H1145 H 0.00636 0.37404 0.92575 0.0
H1146 H 0.01053 0.39997 0.89023 0.0
C1147 C 0.0331 0.43747 0.94135 0.0
C1148 C 0.59279 0.62108 0.93797 0.0
C1149 C 0.60528 0.61292 0.95105 0.0
H1150 H 0.5683 0.61523 0.90787 0.0
C1151 C 0.60264 0.59216 0.94315 0.0
H1152 H 0.59451 0.63705 0.9436 0.0
C1153 C 0.58767 0.57969 0.92287 0.0
C1154 C 0.57495 0.58765 0.90989 0.0
H1155 H 0.61197 0.58536 0.95287 0.0
H1156 H 0.58569 0.56351 0.91784 0.0
C1157 C 0.57773 0.60855 0.91761 0.0
C1158 C 0.02955 0.62399 0.93732 0.0
C1159 C 0.00907 0.61535 0.951 0.0
H1160 H 0.04825 0.61838 0.90708 0.0
C1161 C 0.99128 0.59408 0.94394 0.0
H1162 H 0.04355 0.64035 0.94232 0.0
C1163 C 0.99394 0.58156 0.9239 0.0
C1164 C 0.01448 0.58996 0.91038 0.0
H1165 H 0.97529 0.58692 0.95413 0.0
H1166 H 0.98002 0.565 0.91949 0.0
C1167 C 0.03226 0.61137 0.91724 0.0
C1168 C 0.39776 0.42175 0.95806 0.0
C1169 C 0.38024 0.39983 0.9531 0.0
H1170 H 0.42325 0.45273 0.94144 0.0
C1171 C 0.37432 0.39262 0.92661 0.0
H1172 H 0.40266 0.42771 0.9783 0.0
C1173 C 0.38643 0.40685 0.90545 0.0
C1174 C 0.40422 0.42865 0.91051 0.0
H1175 H 0.36096 0.37573 0.92229 0.0
H1176 H 0.3821 0.40078 0.88517 0.0
C1177 C 0.40947 0.43608 0.93699 0.0
C1178 C 0.591 0.97372 0.94424 0.0
C1179 C 0.60872 0.99439 0.95311 0.0
H1180 H 0.56264 0.95689 0.91821 0.0
C1181 C 0.61256 0.01417 0.94045 0.0
H1182 H 0.58769 0.95821 0.95364 0.0
C1183 C 0.59855 0.01342 0.91993 0.0
C1184 C 0.58014 0.99289 0.91179 0.0
H1185 H 0.6263 0.03034 0.9466 0.0
H1186 H 0.60196 0.02903 0.91072 0.0
C1187 C 0.57677 0.97298 0.92382 0.0
C1188 C 0.62164 0.02822 0.09338 0.0
C1189 C 0.6131 0.00787 0.07943 0.0
H1190 H 0.61609 0.04645 0.12423 0.0
C1191 C 0.59198 0.98986 0.0865 0.0
H1192 H 0.63792 0.04237 0.08843 0.0
C1193 C 0.57952 0.99218 0.10691 0.0
C1194 C 0.58787 0.01258 0.12074 0.0
H1195 H 0.58494 0.97396 0.07611 0.0
H1196 H 0.56307 0.97811 0.11143 0.0
C1197 C 0.60911 0.03057 0.11381 0.0
C1198 C 0.00828 0.60295 0.08502 0.0
C1199 C 0.99058 0.60648 0.07785 0.0
H1200 H 0.01946 0.58544 0.11006 0.0
C1201 C 0.9702 0.59507 0.09184 0.0
H1202 H 0.02418 0.61146 0.0746 0.0
C1203 C 0.96751 0.58015 0.11237 0.0
C1204 C 0.9852 0.57648 0.11937 0.0
H1205 H 0.95629 0.5975 0.08677 0.0
H1206 H 0.95162 0.57151 0.12279 0.0
C1207 C 0.00562 0.58815 0.10552 0.0
C1208 C 0.3959 0.40488 0.09251 0.0
C1209 C 0.39436 0.38512 0.08248 0.0
H1210 H 0.41199 0.43239 0.11951 0.0
C1211 C 0.40783 0.37731 0.09382 0.0
H1212 H 0.38584 0.41143 0.08418 0.0
C1213 C 0.42282 0.38933 0.11451 0.0
C1214 C 0.42459 0.40934 0.12424 0.0
H1215 H 0.40697 0.36211 0.08651 0.0
H1216 H 0.43305 0.38297 0.12282 0.0
C1217 C 0.41082 0.41684 0.11302 0.0
C1218 C 0.6372 0.71138 0.42783 0.0
C1219 C 0.65808 0.7195 0.41523 0.0
H1220 H 0.61821 0.71722 0.45745 0.0
C1221 C 0.67623 0.74012 0.42354 0.0
H1222 H 0.62291 0.69552 0.42188 0.0
C1223 C 0.67356 0.75251 0.44374 0.0
C1224 C 0.65266 0.74463 0.45622 0.0
H1225 H 0.69254 0.74688 0.41419 0.0
H1226 H 0.68781 0.76861 0.4491 0.0
C1227 C 0.6345 0.72385 0.44811 0.0
C1228 C 0.28797 0.9275 0.42574 0.0
C1229 C 0.2788 0.93839 0.41113 0.0
H1230 H 0.28324 0.9047 0.45748 0.0
C1231 C 0.25742 0.93464 0.41795 0.0
H1232 H 0.30445 0.93013 0.42096 0.0
C1233 C 0.24535 0.92019 0.43881 0.0
C1234 C 0.25435 0.90909 0.4533 0.0
H1235 H 0.2499 0.94278 0.40707 0.0
H1236 H 0.22872 0.91734 0.44319 0.0
C1237 C 0.27581 0.91292 0.44657 0.0
C1238 C 0.05121 0.31727 0.42356 0.0
C1239 C 0.0548 0.33733 0.41191 0.0
H1240 H 0.06187 0.30178 0.45236 0.0
C1241 C 0.07226 0.35783 0.42159 0.0
H1242 H 0.03767 0.30121 0.4168 0.0
C1243 C 0.08647 0.35816 0.44181 0.0
C1244 C 0.08333 0.338 0.45287 0.0
H1245 H 0.07537 0.37354 0.41298 0.0
H1246 H 0.10038 0.37417 0.44806 0.0
C1247 C 0.06517 0.31761 0.44389 0.0
C1248 C 0.04803 0.30824 0.27547 0.0
C1249 C 0.05124 0.32878 0.28513 0.0
H1250 H 0.05982 0.29178 0.24924 0.0
C1251 C 0.06805 0.34881 0.27371 0.0
H1252 H 0.03516 0.29254 0.28389 0.0
C1253 C 0.08185 0.3484 0.25364 0.0
C1254 C 0.07942 0.32796 0.2447 0.0
H1255 H 0.07072 0.36491 0.28046 0.0
H1256 H 0.09465 0.3642 0.24536 0.0
C1257 C 0.06206 0.30783 0.25549 0.0
C1258 C 0.69595 0.73991 0.27438 0.0
C1259 C 0.67579 0.72859 0.2888 0.0
H1260 H 0.71389 0.76283 0.24265 0.0
C1261 C 0.65783 0.73172 0.28168 0.0
H1262 H 0.71006 0.73777 0.27939 0.0
C1263 C 0.65999 0.74597 0.26072 0.0
C1264 C 0.68019 0.7575 0.24639 0.0
H1265 H 0.64208 0.72324 0.29242 0.0
H1266 H 0.64596 0.74835 0.25615 0.0
C1267 C 0.69816 0.75429 0.25342 0.0
C1268 C 0.27038 0.92993 0.27388 0.0
C1269 C 0.27194 0.94987 0.28329 0.0
H1270 H 0.25458 0.90227 0.24695 0.0
C1271 C 0.25889 0.9578 0.27109 0.0
H1272 H 0.2802 0.92335 0.28285 0.0
C1273 C 0.2442 0.9457 0.25024 0.0
C1274 C 0.24239 0.92552 0.24114 0.0
H1275 H 0.2598 0.97316 0.27789 0.0
H1276 H 0.2342 0.95208 0.24133 0.0
C1277 C 0.25581 0.91792 0.25309 0.0
C1278 C 0.69658 0.95621 0.27019 0.0
C1279 C 0.67616 0.94776 0.28398 0.0
H1280 H 0.71489 0.95046 0.23954 0.0
C1281 C 0.65809 0.92673 0.27666 0.0
H1282 H 0.71079 0.97238 0.2754 0.0
C1283 C 0.6604 0.91426 0.25627 0.0
C1284 C 0.68086 0.92246 0.24264 0.0
H1285 H 0.64213 0.91971 0.2869 0.0
H1286 H 0.64626 0.89788 0.25166 0.0
C1287 C 0.69894 0.94363 0.24977 0.0
C1288 C 0.04719 0.74173 0.27628 0.0
C1289 C 0.05252 0.72605 0.28668 0.0
H1290 H 0.05629 0.76892 0.24906 0.0
C1291 C 0.07058 0.72475 0.27571 0.0
H1292 H 0.03333 0.74307 0.28435 0.0
C1293 C 0.08344 0.7392 0.25525 0.0
C1294 C 0.07878 0.75555 0.24547 0.0
H1295 H 0.0749 0.71262 0.28306 0.0
H1296 H 0.09723 0.73767 0.24728 0.0
C1297 C 0.06026 0.75641 0.25593 0.0
C1298 C 0.28074 0.34886 0.27568 0.0
C1299 C 0.27724 0.32881 0.28724 0.0
H1300 H 0.27007 0.36431 0.24684 0.0
C1301 C 0.25997 0.30829 0.27736 0.0
H1302 H 0.29414 0.36494 0.28259 0.0
C1303 C 0.24583 0.30792 0.25703 0.0
C1304 C 0.24887 0.32807 0.24606 0.0
H1305 H 0.25694 0.29258 0.2859 0.0
H1306 H 0.23204 0.29189 0.25062 0.0
C1307 C 0.26685 0.34849 0.25523 0.0
C1308 C 0.28365 0.35719 0.42432 0.0
C1309 C 0.28054 0.33675 0.41443 0.0
H1310 H 0.27175 0.37337 0.45081 0.0
C1311 C 0.26381 0.31661 0.42571 0.0
H1312 H 0.29646 0.37297 0.416 0.0
C1313 C 0.24999 0.31681 0.44589 0.0
C1314 C 0.25231 0.33716 0.45506 0.0
H1315 H 0.26124 0.30059 0.41878 0.0
H1316 H 0.23725 0.30093 0.45406 0.0
C1317 C 0.26959 0.3574 0.44439 0.0
C1318 C 0.63779 0.92796 0.42626 0.0
C1319 C 0.65813 0.93923 0.41218 0.0
H1320 H 0.61932 0.90477 0.45759 0.0
C1321 C 0.67591 0.93591 0.41964 0.0
H1322 H 0.62382 0.93023 0.42098 0.0
C1323 C 0.67337 0.92146 0.44051 0.0
C1324 C 0.65297 0.9099 0.45443 0.0
H1325 H 0.69179 0.94434 0.40917 0.0
H1326 H 0.68726 0.91891 0.4453 0.0
C1327 C 0.6352 0.91335 0.44714 0.0
C1328 C 0.07337 0.7102 0.4267 0.0
C1329 C 0.06084 0.71837 0.4137 0.0
H1330 H 0.09778 0.71596 0.45688 0.0
C1331 C 0.06331 0.739 0.42184 0.0
H1332 H 0.07179 0.69433 0.42088 0.0
C1333 C 0.0781 0.75133 0.44232 0.0
C1334 C 0.09086 0.74337 0.45523 0.0
H1335 H 0.05393 0.74579 0.4122 0.0
H1336 H 0.07994 0.76741 0.4476 0.0
C1337 C 0.0883 0.72262 0.44723 0.0
C1338 C 0.30321 0.04434 0.76245 0.0
C1339 C 0.32388 0.05228 0.74939 0.0
H1340 H 0.28477 0.05054 0.79246 0.0
C1341 C 0.34221 0.07294 0.75726 0.0
H1342 H 0.2888 0.02845 0.75683 0.0
C1343 C 0.33991 0.08556 0.77747 0.0
C1344 C 0.31923 0.07785 0.79044 0.0
H1345 H 0.35836 0.07957 0.74756 0.0
H1346 H 0.35428 0.10168 0.78245 0.0
C1347 C 0.30089 0.05704 0.78276 0.0
C1348 C 0.92419 0.2685 0.75232 0.0
C1349 C 0.94532 0.27161 0.74543 0.0
H1350 H 0.89555 0.25204 0.77779 0.0
C1351 C 0.95412 0.26046 0.7602 0.0
H1352 H 0.91695 0.27685 0.74132 0.0
C1353 C 0.94186 0.24626 0.78128 0.0
C1354 C 0.92064 0.24306 0.78807 0.0
H1355 H 0.97041 0.2626 0.75539 0.0
H1356 H 0.94902 0.23785 0.79231 0.0
C1357 C 0.91201 0.25442 0.7734 0.0
C1358 C 0.74105 0.69321 0.75523 0.0
C1359 C 0.72371 0.67245 0.74601 0.0
H1360 H 0.76924 0.71027 0.78147 0.0
C1361 C 0.72038 0.65269 0.75823 0.0
H1362 H 0.74396 0.70871 0.74617 0.0
C1363 C 0.73448 0.65356 0.7787 0.0
C1364 C 0.75253 0.67421 0.78722 0.0
H1365 H 0.70692 0.63645 0.75183 0.0
H1366 H 0.7314 0.63796 0.78762 0.0
C1367 C 0.75541 0.69409 0.77558 0.0
C1368 C 0.7351 0.68113 0.60686 0.0
C1369 C 0.71835 0.66137 0.61882 0.0
H1370 H 0.76119 0.6958 0.57779 0.0
C1371 C 0.7147 0.64058 0.60948 0.0
H1372 H 0.73808 0.69739 0.61337 0.0
C1373 C 0.72824 0.63966 0.58925 0.0
C1374 C 0.74554 0.65951 0.57785 0.0
H1375 H 0.70186 0.62509 0.61833 0.0
H1376 H 0.72568 0.62344 0.58326 0.0
C1377 C 0.74841 0.68021 0.58651 0.0
C1378 C 0.32392 0.06512 0.61649 0.0
C1379 C 0.34149 0.0613 0.6233 0.0
H1380 H 0.31274 0.08265 0.59146 0.0
C1381 C 0.36165 0.07226 0.60881 0.0
H1382 H 0.30819 0.05695 0.6273 0.0
C1383 C 0.36423 0.08696 0.58808 0.0
C1384 C 0.34666 0.09089 0.58139 0.0
H1385 H 0.37546 0.06958 0.61358 0.0
H1386 H 0.37994 0.0952 0.57724 0.0
C1387 C 0.32646 0.07972 0.59578 0.0
C1388 C 0.92562 0.28977 0.60523 0.0
C1389 C 0.93844 0.28168 0.61768 0.0
H1390 H 0.90116 0.28423 0.57523 0.0
C1391 C 0.93667 0.2616 0.60847 0.0
H1392 H 0.92669 0.30524 0.61185 0.0
C1393 C 0.92216 0.24964 0.58759 0.0
C1394 C 0.90898 0.25742 0.57538 0.0
H1395 H 0.94631 0.2549 0.61763 0.0
H1396 H 0.92079 0.2339 0.58157 0.0
C1397 C 0.91097 0.27771 0.58433 0.0
C1398 C 0.36362 0.27535 0.62479 0.0
C1399 C 0.35366 0.28832 0.61889 0.0
H1400 H 0.37296 0.25192 0.6104 0.0
C1401 C 0.34724 0.28901 0.59247 0.0
H1402 H 0.36867 0.27442 0.64497 0.0
C1403 C 0.34975 0.27617 0.57262 0.0
C1404 C 0.35876 0.26237 0.57872 0.0
H1405 H 0.33959 0.29892 0.58726 0.0
H1406 H 0.34422 0.27673 0.55257 0.0
C1407 C 0.36615 0.26251 0.60492 0.0
C1408 C 0.71358 0.07527 0.61089 0.0
C1409 C 0.7187 0.05954 0.62159 0.0
H1410 H 0.72292 0.10226 0.58331 0.0
C1411 C 0.73663 0.05792 0.61078 0.0
H1412 H 0.69981 0.07685 0.61884 0.0
C1413 C 0.74958 0.07212 0.59019 0.0
C1414 C 0.74512 0.08853 0.5801 0.0
H1415 H 0.7408 0.04574 0.61836 0.0
H1416 H 0.76326 0.07036 0.58235 0.0
C1417 C 0.72672 0.08971 0.59041 0.0
C1418 C 0.92497 0.63855 0.60972 0.0
C1419 C 0.94242 0.65922 0.61901 0.0
H1420 H 0.89677 0.62175 0.58344 0.0
C1421 C 0.94592 0.67908 0.60687 0.0
H1422 H 0.92193 0.62299 0.61871 0.0
C1423 C 0.93187 0.67839 0.58643 0.0
C1424 C 0.91373 0.65783 0.57785 0.0
H1425 H 0.95946 0.69525 0.61332 0.0
H1426 H 0.93509 0.69406 0.57759 0.0
C1427 C 0.91068 0.63786 0.58939 0.0
C1428 C 0.93095 0.65097 0.75833 0.0
C1429 C 0.94769 0.67059 0.74611 0.0
H1430 H 0.90502 0.63661 0.78761 0.0
C1431 C 0.95144 0.69148 0.75519 0.0
H1432 H 0.9279 0.63462 0.75202 0.0
C1433 C 0.93802 0.69264 0.77541 0.0
C1434 C 0.92075 0.67291 0.78708 0.0
H1435 H 0.96428 0.70688 0.74614 0.0
H1436 H 0.94067 0.70893 0.7812 0.0
C1437 C 0.91777 0.65212 0.77868 0.0
C1438 C 0.30362 0.24554 0.73934 0.0
C1439 C 0.31469 0.2688 0.74365 0.0
H1440 H 0.29428 0.21327 0.75553 0.0
C1441 C 0.32338 0.27719 0.76912 0.0
H1442 H 0.29685 0.2386 0.71989 0.0
C1443 C 0.32183 0.26272 0.78956 0.0
C1444 C 0.31159 0.23952 0.78502 0.0
H1445 H 0.3319 0.29504 0.77312 0.0
H1446 H 0.32895 0.26977 0.80885 0.0
C1447 C 0.3021 0.23104 0.75981 0.0
C1448 C 0.73906 0.04479 0.76205 0.0
C1449 C 0.72655 0.05285 0.74879 0.0
H1450 H 0.76339 0.05077 0.79242 0.0
C1451 C 0.72896 0.07352 0.75667 0.0
H1452 H 0.73752 0.0289 0.75643 0.0
C1453 C 0.74369 0.08598 0.77714 0.0
C1454 C 0.75643 0.07813 0.7903 0.0
H1455 H 0.7196 0.08023 0.74683 0.0
H1456 H 0.74548 0.10209 0.78221 0.0
C1457 C 0.75392 0.05735 0.78257 0.0
C1458 C 0.04451 0.3217 0.06451 0.0
C1459 C 0.0505 0.34272 0.0535 0.0
H1460 H 0.05483 0.30238 0.08771 0.0
C1461 C 0.07253 0.36058 0.0569 0.0
H1462 H 0.02764 0.30761 0.06225 0.0
C1463 C 0.08809 0.35759 0.07162 0.0
C1464 C 0.08198 0.33664 0.08301 0.0
H1465 H 0.07762 0.37697 0.04867 0.0
H1466 H 0.10492 0.37169 0.07411 0.0
C1467 C 0.0601 0.31867 0.07901 0.0
C1468 C 0.67327 0.71134 0.07834 0.0
C1469 C 0.66227 0.70619 0.05357 0.0
H1470 H 0.68448 0.73311 0.11222 0.0
C1471 C 0.6548 0.72031 0.04346 0.0
H1472 H 0.67911 0.7007 0.08674 0.0
C1473 C 0.65811 0.73909 0.05794 0.0
C1474 C 0.66883 0.7441 0.08296 0.0
H1475 H 0.64634 0.71681 0.02437 0.0
H1476 H 0.65235 0.74976 0.04944 0.0
C1477 C 0.67646 0.73001 0.0929 0.0
C1478 C 0.28359 0.96247 0.07905 0.0
C1479 C 0.28914 0.95724 0.05416 0.0
H1480 H 0.26081 0.95124 0.11194 0.0
C1481 C 0.27464 0.93628 0.04261 0.0
H1482 H 0.29449 0.97847 0.08851 0.0
C1483 C 0.2551 0.92074 0.05589 0.0
C1484 C 0.24974 0.92575 0.0811 0.0
H1485 H 0.27844 0.93184 0.02337 0.0
H1486 H 0.24421 0.90478 0.04637 0.0
C1487 C 0.26417 0.94689 0.09241 0.0
C1488 C 0.32365 0.04229 0.95753 0.0
C1489 C 0.33558 0.04835 0.98169 0.0
H1490 H 0.31212 0.05288 0.92407 0.0
C1491 C 0.34417 0.07028 0.99136 0.0
H1492 H 0.31695 0.02554 0.94947 0.0
C1493 C 0.34114 0.08594 0.97693 0.0
C1494 C 0.32961 0.08004 0.95243 0.0
H1495 H 0.35337 0.07539 0.00997 0.0
H1496 H 0.34785 0.10267 0.98502 0.0
C1497 C 0.32078 0.05796 0.94302 0.0
C1498 C 0.93083 0.28152 0.99003 0.0
C1499 C 0.95315 0.294 0.98129 0.0
H1500 H 0.89814 0.25328 0.9831 0.0
C1501 C 0.95944 0.28745 0.95782 0.0
H1502 H 0.92554 0.28616 0.00809 0.0
C1503 C 0.94373 0.26897 0.94318 0.0
C1504 C 0.92134 0.25633 0.95182 0.0
H1505 H 0.97648 0.29687 0.95041 0.0
H1506 H 0.94912 0.2649 0.92479 0.0
C1507 C 0.91512 0.26278 0.97555 0.0
C1508 C 0.71569 0.64511 0.97819 0.0
C1509 C 0.70901 0.66131 0.97825 0.0
H1510 H 0.73902 0.63569 0.96349 0.0
C1511 C 0.72178 0.68132 0.96393 0.0
H1512 H 0.70615 0.62952 0.989 0.0
C1513 C 0.7407 0.68493 0.94953 0.0
C1514 C 0.74699 0.66845 0.94885 0.0
H1515 H 0.71702 0.69411 0.96362 0.0
H1516 H 0.75004 0.70034 0.93832 0.0
C1517 C 0.7344 0.64858 0.96348 0.0
C1518 C 0.9305 0.64654 0.97769 0.0
C1519 C 0.95345 0.66266 0.97705 0.0
H1520 H 0.89748 0.63693 0.96366 0.0
C1521 C 0.96059 0.68231 0.96205 0.0
H1522 H 0.92451 0.63121 0.98904 0.0
C1523 C 0.94509 0.68567 0.94774 0.0
C1524 C 0.92222 0.66928 0.94784 0.0
H1525 H 0.97819 0.69503 0.96121 0.0
H1526 H 0.95106 0.70083 0.93606 0.0
C1527 C 0.91506 0.64974 0.96306 0.0
C1528 C 0.32297 0.27836 0.97628 0.0
C1529 C 0.34459 0.29692 0.97975 0.0
H1530 H 0.30278 0.24582 0.9592 0.0
C1531 C 0.36289 0.2966 0.96791 0.0
H1532 H 0.30853 0.27807 0.98527 0.0
C1533 C 0.35956 0.27827 0.95239 0.0
C1534 C 0.33786 0.25973 0.94861 0.0
H1535 H 0.37973 0.31077 0.97004 0.0
H1536 H 0.37397 0.2789 0.94289 0.0
C1537 C 0.31966 0.25994 0.96106 0.0
C1538 C 0.71546 0.0391 0.95762 0.0
C1539 C 0.70963 0.04483 0.98201 0.0
H1540 H 0.73755 0.05021 0.92408 0.0
C1541 C 0.72308 0.06659 0.99213 0.0
H1542 H 0.70532 0.02248 0.94923 0.0
C1543 C 0.74178 0.08246 0.97787 0.0
C1544 C 0.7473 0.07694 0.95305 0.0
H1545 H 0.71904 0.07145 0.01095 0.0
H1546 H 0.75187 0.09907 0.98627 0.0
C1547 C 0.73402 0.05499 0.94325 0.0
C1548 C 0.67394 0.95892 0.0792 0.0
C1549 C 0.66268 0.95335 0.0546 0.0
H1550 H 0.6855 0.94795 0.11228 0.0
C1551 C 0.65515 0.93192 0.04386 0.0
H1552 H 0.67984 0.97529 0.08806 0.0
C1553 C 0.65865 0.91628 0.05763 0.0
C1554 C 0.66962 0.92172 0.08248 0.0
H1555 H 0.6465 0.92719 0.02488 0.0
H1556 H 0.65281 0.89995 0.04872 0.0
C1557 C 0.67731 0.94328 0.09302 0.0
C1558 C 0.06861 0.71597 0.05274 0.0
C1559 C 0.04555 0.70861 0.05327 0.0
H1560 H 0.10137 0.73973 0.06735 0.0
C1561 C 0.03789 0.72031 0.06898 0.0
H1562 H 0.07498 0.70723 0.04088 0.0
C1563 C 0.05299 0.73898 0.08393 0.0
C1564 C 0.076 0.7461 0.08378 0.0
H1565 H 0.0202 0.71499 0.06982 0.0
H1566 H 0.04662 0.74759 0.09602 0.0
C1567 C 0.08368 0.73445 0.06801 0.0
C1568 C 0.28634 0.35842 0.0535 0.0
C1569 C 0.29291 0.34215 0.05368 0.0
H1570 H 0.26334 0.36824 0.0684 0.0
C1571 C 0.28034 0.32244 0.06859 0.0
H1572 H 0.29576 0.3738 0.04226 0.0
C1573 C 0.26169 0.31917 0.08328 0.0
C1574 C 0.25549 0.33571 0.08371 0.0
H1575 H 0.28503 0.3096 0.06908 0.0
H1576 H 0.25246 0.30395 0.09488 0.0
C1577 C 0.2679 0.35532 0.06857 0.0
C1578 C 0.73709 0.6882 0.38791 0.0
C1579 C 0.71419 0.67191 0.38793 0.0
H1580 H 0.76998 0.69776 0.40235 0.0
C1581 C 0.70702 0.6519 0.4022 0.0
H1582 H 0.74309 0.7038 0.37713 0.0
C1583 C 0.72244 0.64837 0.41644 0.0
C1584 C 0.74525 0.66493 0.417 0.0
H1585 H 0.68946 0.63905 0.40257 0.0
H1586 H 0.71643 0.63295 0.42759 0.0
C1587 C 0.75245 0.68481 0.40245 0.0
C1588 C 0.32038 0.05507 0.37872 0.0
C1589 C 0.32754 0.04064 0.38861 0.0
H1590 H 0.31851 0.08481 0.38507 0.0
C1591 C 0.33849 0.04544 0.41341 0.0
H1592 H 0.31196 0.05183 0.35963 0.0
C1593 C 0.34198 0.06413 0.42816 0.0
C1594 C 0.33474 0.07857 0.41841 0.0
H1595 H 0.34409 0.03456 0.42165 0.0
H1596 H 0.34999 0.06699 0.44747 0.0
C1597 C 0.324 0.07387 0.39341 0.0
C1598 C 0.94791 0.29442 0.40878 0.0
C1599 C 0.95319 0.28865 0.38405 0.0
H1600 H 0.92588 0.28373 0.44236 0.0
C1601 C 0.93878 0.2673 0.37338 0.0
H1602 H 0.95876 0.31073 0.41759 0.0
C1603 C 0.91967 0.25187 0.38743 0.0
C1604 C 0.91468 0.25739 0.41257 0.0
H1605 H 0.94237 0.26243 0.35429 0.0
H1606 H 0.90885 0.23557 0.37861 0.0
C1607 C 0.92895 0.27895 0.42293 0.0
C1608 C 0.98727 0.37199 0.28672 0.0
C1609 C 0.99918 0.37826 0.3109 0.0
H1610 H 0.97543 0.3822 0.25321 0.0
C1611 C 0.00746 0.40016 0.32049 0.0
H1612 H 0.98078 0.35525 0.27873 0.0
C1613 C 0.00417 0.41559 0.30597 0.0
C1614 C 0.99264 0.40948 0.28146 0.0
H1615 H 0.01664 0.40543 0.33911 0.0
H1616 H 0.01065 0.43232 0.31398 0.0
C1617 C 0.9841 0.38743 0.27214 0.0
C1618 C 0.60102 0.61207 0.32269 0.0
C1619 C 0.62257 0.62646 0.31255 0.0
H1620 H 0.56924 0.58235 0.31669 0.0
C1621 C 0.62851 0.62154 0.2877 0.0
H1622 H 0.59599 0.61538 0.34184 0.0
C1623 C 0.61311 0.60282 0.27309 0.0
C1624 C 0.59142 0.58845 0.28305 0.0
H1625 H 0.64497 0.6324 0.27927 0.0
H1626 H 0.61807 0.59989 0.2537 0.0
C1627 C 0.58564 0.59323 0.30816 0.0
C1628 C 0.37707 0.97744 0.30601 0.0
C1629 C 0.37401 0.99545 0.31285 0.0
H1630 H 0.39709 0.9666 0.28558 0.0
C1631 C 0.39029 0.01725 0.30529 0.0
H1632 H 0.36459 0.96041 0.31128 0.0
C1633 C 0.40939 0.02098 0.29121 0.0
C1634 C 0.41237 0.00291 0.2838 0.0
H1635 H 0.38833 0.03145 0.31043 0.0
H1636 H 0.42185 0.03808 0.28634 0.0
C1637 C 0.39585 0.98107 0.29137 0.0
C1638 C 0.62665 0.01651 0.30275 0.0
C1639 C 0.62083 0.99477 0.31084 0.0
H1640 H 0.61613 0.03743 0.28375 0.0
C1641 C 0.59942 0.97688 0.3047 0.0
H1642 H 0.64306 0.03063 0.30738 0.0
C1643 C 0.58422 0.98058 0.29029 0.0
C1644 C 0.58981 0.00239 0.28228 0.0
H1645 H 0.59462 0.95989 0.3104 0.0
H1646 H 0.56822 0.96617 0.28508 0.0
C1647 C 0.61123 0.02033 0.28895 0.0
C1648 C 0.99109 0.61962 0.2869 0.0
C1649 C 0.00227 0.62467 0.31154 0.0
H1650 H 0.97962 0.59797 0.25292 0.0
C1651 C 0.00973 0.61047 0.32138 0.0
H1652 H 0.98526 0.63034 0.27869 0.0
C1653 C 0.00626 0.5917 0.30673 0.0
C1654 C 0.99539 0.58681 0.28181 0.0
H1655 H 0.01834 0.6139 0.34036 0.0
H1656 H 0.01203 0.58097 0.31501 0.0
C1657 C 0.98775 0.60097 0.27217 0.0
C1658 C 0.3923 0.39992 0.32543 0.0
C1659 C 0.37843 0.37828 0.31519 0.0
H1660 H 0.4217 0.43202 0.31978 0.0
C1661 C 0.38408 0.3724 0.29078 0.0
H1662 H 0.3884 0.40489 0.34426 0.0
C1663 C 0.40291 0.38798 0.27655 0.0
C1664 C 0.41667 0.40979 0.28651 0.0
H1665 H 0.37364 0.35587 0.28229 0.0
H1666 H 0.40631 0.38307 0.25739 0.0
C1667 C 0.41127 0.4155 0.31129 0.0
C1668 C 0.34549 0.29466 0.41198 0.0
C1669 C 0.33343 0.28834 0.38791 0.0
H1670 H 0.35752 0.28449 0.44537 0.0
C1671 C 0.32513 0.26644 0.37831 0.0
H1672 H 0.35201 0.31141 0.41996 0.0
C1673 C 0.32851 0.25103 0.39277 0.0
C1674 C 0.34013 0.25717 0.4172 0.0
H1675 H 0.31584 0.26113 0.35977 0.0
H1676 H 0.32197 0.23428 0.38479 0.0
C1677 C 0.34875 0.27924 0.42649 0.0
C1678 C 0.73588 0.04809 0.38651 0.0
C1679 C 0.71278 0.04052 0.38713 0.0
H1680 H 0.76858 0.072 0.40115 0.0
C1681 C 0.70499 0.05202 0.40301 0.0
H1682 H 0.74235 0.03951 0.37452 0.0
C1683 C 0.71999 0.07067 0.41804 0.0
C1684 C 0.74304 0.078 0.41781 0.0
H1685 H 0.68726 0.04655 0.40392 0.0
H1686 H 0.71351 0.07912 0.43025 0.0
C1687 C 0.75086 0.06655 0.40187 0.0
C1688 C 0.9444 0.65072 0.40127 0.0
C1689 C 0.95708 0.67053 0.38657 0.0
H1690 H 0.91629 0.63205 0.42721 0.0
C1691 C 0.95041 0.68674 0.3863 0.0
H1692 H 0.94915 0.63793 0.40183 0.0
C1693 C 0.9318 0.68348 0.40108 0.0
C1694 C 0.9193 0.66381 0.41607 0.0
H1695 H 0.95989 0.70218 0.37519 0.0
H1696 H 0.92719 0.69638 0.40083 0.0
C1697 C 0.92557 0.64731 0.41571 0.0
C1698 C 0.40198 0.02035 0.72183 0.0
C1699 C 0.37906 0.00412 0.72219 0.0
H1700 H 0.43492 0.03006 0.73619 0.0
C1701 C 0.37191 0.98434 0.73693 0.0
H1702 H 0.40796 0.03578 0.71069 0.0
C1703 C 0.38737 0.981 0.75133 0.0
C1704 C 0.4102 0.99752 0.75158 0.0
H1705 H 0.35434 0.97154 0.73756 0.0
H1706 H 0.38139 0.96576 0.76287 0.0
C1707 C 0.41737 0.01715 0.73653 0.0
C1708 C 0.008 0.37891 0.74632 0.0
C1709 C 0.99606 0.37366 0.72218 0.0
H1710 H 0.02035 0.40075 0.78013 0.0
C1711 C 0.98815 0.38768 0.71304 0.0
H1712 H 0.01423 0.36836 0.75396 0.0
C1713 C 0.99185 0.40642 0.72793 0.0
C1714 C 0.00345 0.41149 0.75237 0.0
H1715 H 0.97897 0.38412 0.69446 0.0
H1716 H 0.98567 0.41698 0.7202 0.0
C1717 C 0.01161 0.39756 0.76127 0.0
C1718 C 0.61655 0.6266 0.74337 0.0
C1719 C 0.62213 0.62095 0.71876 0.0
H1720 H 0.59462 0.6155 0.77704 0.0
C1721 C 0.60851 0.59925 0.70854 0.0
H1722 H 0.62683 0.64316 0.75186 0.0
C1723 C 0.58981 0.58341 0.72285 0.0
C1724 C 0.58446 0.58891 0.74779 0.0
H1725 H 0.61238 0.59446 0.68957 0.0
H1726 H 0.57954 0.56687 0.71435 0.0
C1727 C 0.598 0.61075 0.75776 0.0
C1728 C 0.67428 0.73334 0.65683 0.0
C1729 C 0.66677 0.71185 0.64629 0.0
H1730 H 0.67682 0.76534 0.65151 0.0
C1731 C 0.65556 0.70614 0.62166 0.0
H1732 H 0.6829 0.73817 0.67583 0.0
C1733 C 0.65238 0.72177 0.60752 0.0
C1734 C 0.66017 0.74344 0.61778 0.0
H1735 H 0.64968 0.68973 0.61295 0.0
H1736 H 0.64432 0.71702 0.58819 0.0
C1737 C 0.67094 0.74895 0.64277 0.0
C1738 C 0.26576 0.94455 0.65661 0.0
C1739 C 0.28736 0.95891 0.64656 0.0
H1740 H 0.23394 0.91491 0.65043 0.0
C1741 C 0.29333 0.95403 0.6217 0.0
H1742 H 0.26071 0.94784 0.67575 0.0
C1743 C 0.27792 0.93538 0.607 0.0
C1744 C 0.2562 0.92104 0.61687 0.0
H1745 H 0.30982 0.96486 0.61334 0.0
H1746 H 0.28292 0.9325 0.58761 0.0
C1747 C 0.25037 0.92578 0.64198 0.0
C1748 C 0.05347 0.3466 0.63136 0.0
C1749 C 0.04026 0.32668 0.64565 0.0
H1750 H 0.08161 0.36482 0.60532 0.0
C1751 C 0.04597 0.30977 0.64507 0.0
H1752 H 0.04944 0.35991 0.63144 0.0
C1753 C 0.06417 0.31248 0.62988 0.0
C1754 C 0.0772 0.33227 0.61529 0.0
H1755 H 0.03605 0.29422 0.65584 0.0
H1756 H 0.06806 0.29907 0.62951 0.0
C1757 C 0.07188 0.34944 0.61647 0.0
C1758 C 0.28701 0.3438 0.63515 0.0
C1759 C 0.28133 0.32283 0.64606 0.0
H1760 H 0.27628 0.36286 0.61215 0.0
C1761 C 0.2594 0.30478 0.6427 0.0
H1762 H 0.30379 0.35803 0.63737 0.0
C1763 C 0.24362 0.30754 0.62811 0.0
C1764 C 0.24943 0.32845 0.61683 0.0
H1765 H 0.25456 0.28841 0.65086 0.0
H1766 H 0.22688 0.2933 0.62564 0.0
C1767 C 0.27122 0.3466 0.62079 0.0
C1768 C 0.65723 0.95354 0.62238 0.0
C1769 C 0.66816 0.95858 0.64719 0.0
H1770 H 0.64615 0.93193 0.58836 0.0
C1771 C 0.67546 0.94434 0.65734 0.0
H1772 H 0.65152 0.96428 0.61396 0.0
C1773 C 0.67214 0.92558 0.64279 0.0
C1774 C 0.66159 0.92075 0.61767 0.0
H1775 H 0.68386 0.94775 0.67645 0.0
H1776 H 0.67781 0.91485 0.65128 0.0
C1777 C 0.65405 0.9349 0.60776 0.0
C1778 C 0.05785 0.73138 0.6571 0.0
C1779 C 0.04406 0.70978 0.64671 0.0
H1780 H 0.08699 0.76366 0.6515 0.0
C1781 C 0.04962 0.70414 0.62208 0.0
H1782 H 0.05401 0.73616 0.6761 0.0
C1783 C 0.06828 0.71996 0.60778 0.0
C1784 C 0.08192 0.74175 0.61788 0.0
H1785 H 0.03924 0.68765 0.61348 0.0
H1786 H 0.07162 0.71525 0.58845 0.0
C1787 C 0.07663 0.74717 0.64289 0.0
C1788 C 0.00992 0.62536 0.74435 0.0
C1789 C 0.9984 0.61928 0.71993 0.0
H1790 H 0.02148 0.615 0.77797 0.0
C1791 C 0.99047 0.59752 0.71002 0.0
H1792 H 0.0161 0.64197 0.75261 0.0
C1793 C 0.99382 0.58206 0.72445 0.0
C1794 C 0.00501 0.58801 0.74917 0.0
H1795 H 0.98158 0.59239 0.69121 0.0
H1796 H 0.98766 0.56547 0.71618 0.0
C1797 C 0.01311 0.6099 0.75885 0.0
C1798 C 0.40068 0.38642 0.70852 0.0
C1799 C 0.37816 0.37406 0.71655 0.0
H1800 H 0.43325 0.41458 0.71617 0.0
C1801 C 0.37128 0.38099 0.73923 0.0
H1802 H 0.40643 0.3815 0.69106 0.0
C1803 C 0.38665 0.39962 0.75392 0.0
C1804 C 0.40928 0.41198 0.74614 0.0
H1805 H 0.35405 0.3717 0.74605 0.0
H1806 H 0.38083 0.40397 0.77178 0.0
C1807 C 0.41606 0.40526 0.72307 0.0
C1808 C 0.61017 0.98495 0.73609 0.0
C1809 C 0.62281 0.00467 0.72121 0.0
H1810 H 0.58205 0.96639 0.76205 0.0
C1811 C 0.61604 0.02079 0.72061 0.0
H1812 H 0.615 0.97223 0.73691 0.0
C1813 C 0.59737 0.01756 0.73524 0.0
C1814 C 0.58492 0.99799 0.75043 0.0
H1815 H 0.62549 0.03617 0.70936 0.0
H1816 H 0.59268 0.03039 0.73475 0.0
C1817 C 0.59129 0.98156 0.7504 0.0
loop_
_geom_bond_atom_site_label_1
_geom_bond_atom_site_label_2
_geom_bond_distance
_geom_bond_site_symmetry_2
_ccdc_geom_bond_type
In0 O1 2.276 1_455 S
In0 O2 2.328 . S
In0 O6 2.247 1_455 S
In0 O7 2.330 1_454 S
In0 O8 2.272 1_554 S
In0 O9 2.303 1_454 S
In0 O11 2.326 . S
In0 O12 2.344 . S
O1 In0 2.276 1_655 S
O1 C10 1.228 1_655 S
O2 In0 2.328 . S
O2 C10 1.274 . S
C3 O6 1.252 1_556 S
C3 O7 1.260 . S
C4 O11 1.240 . S
C4 O12 1.252 . S
C5 O8 1.258 . S
C5 O9 1.256 1_455 S
O6 In0 2.247 1_655 S
O6 C3 1.252 1_554 S
O7 In0 2.330 1_656 S
O7 C3 1.260 . S
O8 In0 2.272 1_556 S
O8 C5 1.258 . S
O9 In0 2.303 1_656 S
O9 C5 1.256 1_655 S
C10 O1 1.228 1_455 S
C10 O2 1.274 . S
O11 In0 2.326 . S
O11 C4 1.240 . S
O12 In0 2.344 . S
O12 C4 1.252 . S
In13 O14 2.294 . S
In13 O15 2.326 . S
In13 O19 2.266 . S
In13 O20 2.326 1_554 S
In13 O21 2.266 1_554 S
In13 O22 2.326 1_554 S
In13 O24 2.294 . S
In13 O25 2.326 . S
O14 In13 2.294 . S
O14 C23 1.240 . S
O15 In13 2.326 . S
O15 C23 1.252 . S
C16 O19 1.252 1_556 S
C16 O20 1.260 . S
C17 O24 1.240 . S
C17 O25 1.252 . S
C18 O21 1.252 . S
C18 O22 1.260 . S
O19 In13 2.266 . S
O19 C16 1.252 1_554 S
O20 In13 2.326 1_556 S
O20 C16 1.260 . S
O21 In13 2.266 1_556 S
O21 C18 1.252 . S
O22 In13 2.326 1_556 S
O22 C18 1.260 . S
C23 O14 1.240 . S
C23 O15 1.252 . S
O24 In13 2.294 . S
O24 C17 1.240 . S
O25 In13 2.326 . S
O25 C17 1.252 . S
In26 O27 2.340 . S
In26 O28 2.352 1_554 S
In26 O32 2.275 . S
In26 O33 2.292 1_545 S
In26 O34 2.238 1_545 S
In26 O35 2.332 1_545 S
In26 O37 2.268 1_544 S
In26 O38 2.330 1_554 S
O27 In26 2.340 . S
O27 C36 1.240 1_554 S
O28 In26 2.352 1_556 S
O28 C36 1.252 . S
C29 O32 1.274 . S
C29 O33 1.245 1_545 S
C30 O37 1.222 1_545 S
C30 O38 1.286 . S
C31 O34 1.252 . S
C31 O35 1.260 . S
O32 In26 2.275 . S
O32 C29 1.274 . S
O33 In26 2.292 1_565 S
O33 C29 1.245 1_565 S
O34 In26 2.238 1_565 S
O34 C31 1.252 . S
O35 In26 2.332 1_565 S
O35 C31 1.260 . S
C36 O27 1.240 1_556 S
C36 O28 1.252 . S
O37 In26 2.268 1_566 S
O37 C30 1.222 1_565 S
O38 In26 2.330 1_556 S
O38 C30 1.286 . S
In39 O40 2.293 1_554 S
In39 O41 2.326 1_454 S
In39 O45 2.265 . S
In39 O46 2.326 . S
In39 O47 2.267 1_455 S
In39 O48 2.324 . S
In39 O50 2.296 1_455 S
In39 O51 2.328 1_454 S
O40 In39 2.293 1_556 S
O40 C49 1.239 . S
O41 In39 2.326 1_656 S
O41 C49 1.254 1_655 S
C42 O45 1.252 . S
C42 O46 1.260 . S
C43 O50 1.240 1_556 S
C43 O51 1.252 . S
C44 O47 1.231 1_455 S
C44 O48 1.275 . S
O45 In39 2.265 . S
O45 C42 1.252 . S
O46 In39 2.326 . S
O46 C42 1.260 . S
O47 In39 2.267 1_655 S
O47 C44 1.231 1_655 S
O48 In39 2.324 . S
O48 C44 1.275 . S
C49 O40 1.239 . S
C49 O41 1.254 1_455 S
O50 In39 2.296 1_655 S
O50 C43 1.240 1_554 S
O51 In39 2.328 1_656 S
O51 C43 1.252 . S
In52 O53 2.294 1_554 S
In52 O54 2.326 1_554 S
In52 O58 2.266 . S
In52 O59 2.326 . S
In52 O60 2.266 . S
In52 O61 2.326 . S
In52 O63 2.294 . S
In52 O64 2.326 1_554 S
O53 In52 2.294 1_556 S
O53 C62 1.240 . S
O54 In52 2.326 1_556 S
O54 C62 1.252 . S
C55 O58 1.252 . S
C55 O59 1.260 . S
C56 O63 1.240 1_556 S
C56 O64 1.252 . S
C57 O60 1.252 . S
C57 O61 1.260 . S
O58 In52 2.266 . S
O58 C55 1.252 . S
O59 In52 2.326 . S
O59 C55 1.260 . S
O60 In52 2.266 . S
O60 C57 1.252 . S
O61 In52 2.326 . S
O61 C57 1.260 . S
C62 O53 1.240 . S
C62 O54 1.252 . S
O63 In52 2.294 . S
O63 C56 1.240 1_554 S
O64 In52 2.326 1_556 S
O64 C56 1.252 . S
In65 O66 2.293 . S
In65 O67 2.326 1_545 S
In65 O71 2.265 . S
In65 O72 2.326 1_554 S
In65 O73 2.267 1_544 S
In65 O74 2.324 1_554 S
In65 O76 2.296 1_545 S
In65 O77 2.328 1_545 S
O66 In65 2.293 . S
O66 C75 1.239 . S
O67 In65 2.326 1_565 S
O67 C75 1.255 1_565 S
C68 O71 1.252 1_556 S
C68 O72 1.260 . S
C69 O76 1.240 . S
C69 O77 1.252 . S
C70 O73 1.234 1_545 S
C70 O74 1.273 . S
O71 In65 2.265 . S
O71 C68 1.252 1_554 S
O72 In65 2.326 1_556 S
O72 C68 1.260 . S
O73 In65 2.267 1_566 S
O73 C70 1.234 1_565 S
O74 In65 2.324 1_556 S
O74 C70 1.273 . S
C75 O66 1.239 . S
C75 O67 1.255 1_545 S
O76 In65 2.296 1_565 S
O76 C69 1.240 . S
O77 In65 2.328 1_565 S
O77 C69 1.252 . S
In78 O79 2.294 . S
In78 O80 2.326 . S
In78 O84 2.266 . S
In78 O85 2.326 . S
In78 O86 2.266 . S
In78 O87 2.326 . S
In78 O89 2.294 . S
In78 O90 2.326 . S
O79 In78 2.294 . S
O79 C88 1.240 . S
O80 In78 2.326 . S
O80 C88 1.252 . S
C81 O84 1.252 . S
C81 O85 1.260 . S
C82 O89 1.240 . S
C82 O90 1.252 . S
C83 O86 1.252 . S
C83 O87 1.260 . S
O84 In78 2.266 . S
O84 C81 1.252 . S
O85 In78 2.326 . S
O85 C81 1.260 . S
O86 In78 2.266 . S
O86 C83 1.252 . S
O87 In78 2.326 . S
O87 C83 1.260 . S
C88 O79 1.240 . S
C88 O80 1.252 . S
O89 In78 2.294 . S
O89 C82 1.240 . S
O90 In78 2.326 . S
O90 C82 1.252 . S
In91 O92 2.294 . S
In91 O93 2.326 . S
In91 O97 2.266 . S
In91 O98 2.329 . S
In91 O99 2.266 . S
In91 O100 2.326 . S
In91 O102 2.294 1_565 S
In91 O103 2.326 1_565 S
O92 In91 2.294 . S
O92 C101 1.240 . S
O93 In91 2.326 . S
O93 C101 1.252 . S
C94 O97 1.252 . S
C94 O98 1.283 . S
C95 O102 1.240 . S
C95 O103 1.252 . S
C96 O99 1.252 . S
C96 O100 1.260 . S
O97 In91 2.266 . S
O97 C94 1.252 . S
O98 In91 2.329 . S
O98 C94 1.283 . S
O99 In91 2.266 . S
O99 C96 1.252 . S
O100 In91 2.326 . S
O100 C96 1.260 . S
C101 O92 1.240 . S
C101 O93 1.252 . S
O102 In91 2.294 1_545 S
O102 C95 1.240 . S
O103 In91 2.326 1_545 S
O103 C95 1.252 . S
In104 O105 2.294 . S
In104 O106 2.326 . S
In104 O110 2.266 . S
In104 O111 2.326 . S
In104 O112 2.266 1_455 S
In104 O113 2.326 1_455 S
In104 O115 2.294 . S
In104 O116 2.326 . S
O105 In104 2.294 . S
O105 C114 1.240 . S
O106 In104 2.326 . S
O106 C114 1.252 . S
C107 O110 1.252 . S
C107 O111 1.260 . S
C108 O115 1.240 . S
C108 O116 1.252 . S
C109 O112 1.252 . S
C109 O113 1.260 . S
O110 In104 2.266 . S
O110 C107 1.252 . S
O111 In104 2.326 . S
O111 C107 1.260 . S
O112 In104 2.266 1_655 S
O112 C109 1.252 . S
O113 In104 2.326 1_655 S
O113 C109 1.260 . S
C114 O105 1.240 . S
C114 O106 1.252 . S
O115 In104 2.294 . S
O115 C108 1.240 . S
O116 In104 2.326 . S
O116 C108 1.252 . S
In117 O118 2.294 . S
In117 O119 2.326 . S
In117 O123 2.266 1_565 S
In117 O124 2.326 1_565 S
In117 O125 2.266 . S
In117 O126 2.326 . S
In117 O128 2.294 . S
In117 O129 2.326 . S
O118 In117 2.294 . S
O118 C127 1.240 . S
O119 In117 2.326 . S
O119 C127 1.252 . S
C120 O123 1.252 . S
C120 O124 1.260 . S
C121 O128 1.240 . S
C121 O129 1.252 . S
C122 O125 1.252 . S
C122 O126 1.260 . S
O123 In117 2.266 1_545 S
O123 C120 1.252 . S
O124 In117 2.326 1_545 S
O124 C120 1.260 . S
O125 In117 2.266 . S
O125 C122 1.252 . S
O126 In117 2.326 . S
O126 C122 1.260 . S
C127 O118 1.240 . S
C127 O119 1.252 . S
O128 In117 2.294 . S
O128 C121 1.240 . S
O129 In117 2.326 . S
O129 C121 1.252 . S
In130 O131 2.294 . S
In130 O132 2.326 . S
In130 O136 2.266 1_455 S
In130 O137 2.326 1_455 S
In130 O138 2.266 . S
In130 O139 2.326 . S
In130 O141 2.294 . S
In130 O142 2.326 . S
O131 In130 2.294 . S
O131 C140 1.240 . S
O132 In130 2.326 . S
O132 C140 1.252 . S
C133 O136 1.252 . S
C133 O137 1.260 . S
C134 O141 1.240 . S
C134 O142 1.252 . S
C135 O138 1.252 . S
C135 O139 1.260 . S
O136 In130 2.266 1_655 S
O136 C133 1.252 . S
O137 In130 2.326 1_655 S
O137 C133 1.260 . S
O138 In130 2.266 . S
O138 C135 1.252 . S
O139 In130 2.326 . S
O139 C135 1.260 . S
C140 O131 1.240 . S
C140 O132 1.252 . S
O141 In130 2.294 . S
O141 C134 1.240 . S
O142 In130 2.326 . S
O142 C134 1.252 . S
In143 O144 2.294 . S
In143 O145 2.326 . S
In143 O149 2.266 . S
In143 O150 2.326 . S
In143 O151 2.266 . S
In143 O152 2.326 . S
In143 O154 2.294 . S
In143 O155 2.326 . S
O144 In143 2.294 . S
O144 C153 1.240 . S
O145 In143 2.326 . S
O145 C153 1.252 . S
C146 O149 1.252 . S
C146 O150 1.260 . S
C147 O154 1.240 . S
C147 O155 1.252 . S
C148 O151 1.252 . S
C148 O152 1.260 . S
O149 In143 2.266 . S
O149 C146 1.252 . S
O150 In143 2.326 . S
O150 C146 1.260 . S
O151 In143 2.266 . S
O151 C148 1.252 . S
O152 In143 2.326 . S
O152 C148 1.260 . S
C153 O144 1.240 . S
C153 O145 1.252 . S
O154 In143 2.294 . S
O154 C147 1.240 . S
O155 In143 2.326 . S
O155 C147 1.252 . S
In156 O157 2.294 . S
In156 O158 2.326 . S
In156 O162 2.266 . S
In156 O163 2.326 . S
In156 O164 2.266 1_545 S
In156 O165 2.326 1_545 S
In156 O167 2.294 . S
In156 O168 2.326 . S
O157 In156 2.294 . S
O157 C166 1.240 . S
O158 In156 2.326 . S
O158 C166 1.252 . S
C159 O162 1.252 . S
C159 O163 1.260 . S
C160 O167 1.240 . S
C160 O168 1.252 . S
C161 O164 1.252 . S
C161 O165 1.260 . S
O162 In156 2.266 . S
O162 C159 1.252 . S
O163 In156 2.326 . S
O163 C159 1.260 . S
O164 In156 2.266 1_565 S
O164 C161 1.252 . S
O165 In156 2.326 1_565 S
O165 C161 1.260 . S
C166 O157 1.240 . S
C166 O158 1.252 . S
O167 In156 2.294 . S
O167 C160 1.240 . S
O168 In156 2.326 . S
O168 C160 1.252 . S
In169 O170 2.294 . S
In169 O171 2.326 . S
In169 O175 2.266 . S
In169 O176 2.326 . S
In169 O177 2.266 1_655 S
In169 O178 2.326 1_655 S
In169 O180 2.294 . S
In169 O181 2.326 . S
O170 In169 2.294 . S
O170 C179 1.240 . S
O171 In169 2.326 . S
O171 C179 1.252 . S
C172 O175 1.252 . S
C172 O176 1.260 . S
C173 O180 1.240 . S
C173 O181 1.252 . S
C174 O177 1.252 . S
C174 O178 1.260 . S
O175 In169 2.266 . S
O175 C172 1.252 . S
O176 In169 2.326 . S
O176 C172 1.260 . S
O177 In169 2.266 1_455 S
O177 C174 1.252 . S
O178 In169 2.326 1_455 S
O178 C174 1.260 . S
C179 O170 1.240 . S
C179 O171 1.252 . S
O180 In169 2.294 . S
O180 C173 1.240 . S
O181 In169 2.326 . S
O181 C173 1.252 . S
In182 O183 2.294 . S
In182 O184 2.326 . S
In182 O188 2.266 . S
In182 O189 2.326 . S
In182 O190 2.266 . S
In182 O191 2.326 . S
In182 O193 2.294 . S
In182 O194 2.326 . S
O183 In182 2.294 . S
O183 C192 1.240 . S
O184 In182 2.326 . S
O184 C192 1.252 . S
C185 O188 1.252 . S
C185 O189 1.260 . S
C186 O193 1.240 . S
C186 O194 1.252 . S
C187 O190 1.252 . S
C187 O191 1.260 . S
O188 In182 2.266 . S
O188 C185 1.252 . S
O189 In182 2.326 . S
O189 C185 1.260 . S
O190 In182 2.266 . S
O190 C187 1.252 . S
O191 In182 2.326 . S
O191 C187 1.260 . S
C192 O183 1.240 . S
C192 O184 1.252 . S
O193 In182 2.294 . S
O193 C186 1.240 . S
O194 In182 2.326 . S
O194 C186 1.252 . S
In195 O196 2.294 . S
In195 O197 2.326 . S
In195 O201 2.266 . S
In195 O202 2.326 . S
In195 O203 2.266 . S
In195 O204 2.326 . S
In195 O206 2.294 . S
In195 O207 2.326 . S
O196 In195 2.294 . S
O196 C205 1.240 . S
O197 In195 2.326 . S
O197 C205 1.252 . S
C198 O201 1.252 . S
C198 O202 1.260 . S
C199 O206 1.240 . S
C199 O207 1.252 . S
C200 O203 1.252 . S
C200 O204 1.260 . S
O201 In195 2.266 . S
O201 C198 1.252 . S
O202 In195 2.326 . S
O202 C198 1.260 . S
O203 In195 2.266 . S
O203 C200 1.252 . S
O204 In195 2.326 . S
O204 C200 1.260 . S
C205 O196 1.240 . S
C205 O197 1.252 . S
O206 In195 2.294 . S
O206 C199 1.240 . S
O207 In195 2.326 . S
O207 C199 1.252 . S
In208 O209 2.294 . S
In208 O210 2.326 . S
In208 O214 2.266 . S
In208 O215 2.326 . S
In208 O216 2.266 . S
In208 O217 2.326 . S
In208 O219 2.294 1_545 S
In208 O220 2.326 1_545 S
O209 In208 2.294 . S
O209 C218 1.240 . S
O210 In208 2.326 . S
O210 C218 1.252 . S
C211 O214 1.252 . S
C211 O215 1.260 . S
C212 O219 1.240 . S
C212 O220 1.252 . S
C213 O216 1.252 . S
C213 O217 1.260 . S
O214 In208 2.266 . S
O214 C211 1.252 . S
O215 In208 2.326 . S
O215 C211 1.260 . S
O216 In208 2.266 . S
O216 C213 1.252 . S
O217 In208 2.326 . S
O217 C213 1.260 . S
C218 O209 1.240 . S
C218 O210 1.252 . S
O219 In208 2.294 1_565 S
O219 C212 1.240 . S
O220 In208 2.326 1_565 S
O220 C212 1.252 . S
In221 O222 2.294 . S
In221 O223 2.326 . S
In221 O227 2.266 . S
In221 O228 2.326 . S
In221 O229 2.266 1_655 S
In221 O230 2.326 1_655 S
In221 O232 2.294 . S
In221 O233 2.326 . S
O222 In221 2.294 . S
O222 C231 1.240 . S
O223 In221 2.326 . S
O223 C231 1.252 . S
C224 O227 1.252 . S
C224 O228 1.260 . S
C225 O232 1.240 . S
C225 O233 1.252 . S
C226 O229 1.252 . S
C226 O230 1.260 . S
O227 In221 2.266 . S
O227 C224 1.252 . S
O228 In221 2.326 . S
O228 C224 1.260 . S
O229 In221 2.266 1_455 S
O229 C226 1.252 . S
O230 In221 2.326 1_455 S
O230 C226 1.260 . S
C231 O222 1.240 . S
C231 O223 1.252 . S
O232 In221 2.294 . S
O232 C225 1.240 . S
O233 In221 2.326 . S
O233 C225 1.252 . S
H234 C253 0.949 . S
H235 C254 0.950 . S
H236 C256 0.950 . S
H237 C257 0.950 . S
H238 C259 0.950 . S
H239 C262 0.950 . S
H240 C263 0.950 . S
H241 C265 0.951 . S
H242 C266 0.949 . S
H243 C268 0.949 . S
H244 C269 0.950 . S
H245 C271 0.950 . S
H246 C272 0.950 . S
H247 C274 0.950 . S
H248 C277 0.950 . S
H249 C278 0.950 . S
H250 C280 0.951 . S
H251 C281 0.949 . S
C252 C253 1.376 . S
C252 C257 1.386 . S
C252 C258 1.483 . S
C253 H234 0.949 . S
C253 C252 1.376 . S
C253 C254 1.397 . S
C254 H235 0.950 . S
C254 C253 1.397 . S
C254 C255 1.391 . S
C255 C254 1.391 . S
C255 C256 1.405 . S
C256 H236 0.950 . S
C256 C255 1.405 . S
C256 C257 1.367 . S
C257 H237 0.950 . S
C257 C252 1.386 . S
C257 C256 1.367 . S
C258 C252 1.483 . S
C258 C259 1.382 . S
C258 C260 1.403 . S
C259 H238 0.950 . S
C259 C258 1.382 . S
C259 C275 1.411 . S
C260 C258 1.403 . S
C260 C261 1.489 . S
C260 C274 1.411 . S
C261 C260 1.489 . S
C261 C262 1.383 . S
C261 C266 1.382 . S
C262 H239 0.950 . S
C262 C261 1.383 . S
C262 C263 1.395 . S
C263 H240 0.950 . S
C263 C262 1.395 . S
C263 C264 1.288 . S
C264 C263 1.288 . S
C264 C265 1.392 . S
C265 H241 0.951 . S
C265 C264 1.392 . S
C265 C266 1.392 . S
C266 H242 0.949 . S
C266 C261 1.382 . S
C266 C265 1.392 . S
C267 C268 1.376 . S
C267 C272 1.386 . S
C267 C273 1.483 . S
C268 H243 0.949 . S
C268 C267 1.376 . S
C268 C269 1.397 . S
C269 H244 0.950 . S
C269 C268 1.397 . S
C269 C270 1.391 . S
C270 C269 1.391 . S
C270 C271 1.405 . S
C271 H245 0.950 . S
C271 C270 1.405 . S
C271 C272 1.367 . S
C272 H246 0.950 . S
C272 C267 1.386 . S
C272 C271 1.367 . S
C273 C267 1.483 . S
C273 C274 1.382 . S
C273 C275 1.403 . S
C274 H247 0.950 . S
C274 C260 1.411 . S
C274 C273 1.382 . S
C275 C259 1.411 . S
C275 C273 1.403 . S
C275 C276 1.489 . S
C276 C275 1.489 . S
C276 C277 1.383 . S
C276 C281 1.382 . S
C277 H248 0.950 . S
C277 C276 1.383 . S
C277 C278 1.395 . S
C278 H249 0.950 . S
C278 C277 1.395 . S
C278 C279 1.288 . S
C279 C278 1.288 . S
C279 C280 1.392 . S
C280 H250 0.951 . S
C280 C279 1.392 . S
C280 C281 1.392 . S
C281 H251 0.949 . S
C281 C276 1.382 . S
C281 C280 1.392 . S
H282 C301 0.949 . S
H283 C302 0.950 . S
H284 C304 0.950 . S
H285 C305 0.950 . S
H286 C307 0.950 . S
H287 C310 0.950 . S
H288 C311 0.950 . S
H289 C313 0.951 . S
H290 C314 0.949 . S
H291 C316 0.949 . S
H292 C317 0.950 . S
H293 C319 0.950 . S
H294 C320 0.950 . S
H295 C322 0.950 . S
H296 C325 0.950 . S
H297 C326 0.950 . S
H298 C328 0.951 . S
H299 C329 0.949 . S
C300 C301 1.376 . S
C300 C305 1.386 . S
C300 C306 1.483 . S
C301 H282 0.949 . S
C301 C300 1.376 . S
C301 C302 1.397 . S
C302 H283 0.950 . S
C302 C301 1.397 . S
C302 C303 1.391 . S
C303 C302 1.391 . S
C303 C304 1.405 . S
C304 H284 0.950 . S
C304 C303 1.405 . S
C304 C305 1.367 . S
C305 H285 0.950 . S
C305 C300 1.386 . S
C305 C304 1.367 . S
C306 C300 1.483 . S
C306 C307 1.382 . S
C306 C308 1.403 . S
C307 H286 0.950 . S
C307 C306 1.382 . S
C307 C323 1.411 . S
C308 C306 1.403 . S
C308 C309 1.489 . S
C308 C322 1.411 . S
C309 C308 1.489 . S
C309 C310 1.383 . S
C309 C314 1.382 . S
C310 H287 0.950 . S
C310 C309 1.383 . S
C310 C311 1.395 . S
C311 H288 0.950 . S
C311 C310 1.395 . S
C311 C312 1.288 . S
C312 C311 1.288 . S
C312 C313 1.392 . S
C313 H289 0.951 . S
C313 C312 1.392 . S
C313 C314 1.392 . S
C314 H290 0.949 . S
C314 C309 1.382 . S
C314 C313 1.392 . S
C315 C316 1.376 . S
C315 C320 1.386 . S
C315 C321 1.483 . S
C316 H291 0.949 . S
C316 C315 1.376 . S
C316 C317 1.397 . S
C317 H292 0.950 . S
C317 C316 1.397 . S
C317 C318 1.391 . S
C318 C317 1.391 . S
C318 C319 1.405 . S
C319 H293 0.950 . S
C319 C318 1.405 . S
C319 C320 1.367 . S
C320 H294 0.950 . S
C320 C315 1.386 . S
C320 C319 1.367 . S
C321 C315 1.483 . S
C321 C322 1.382 . S
C321 C323 1.403 . S
C322 H295 0.950 . S
C322 C308 1.411 . S
C322 C321 1.382 . S
C323 C307 1.411 . S
C323 C321 1.403 . S
C323 C324 1.489 . S
C324 C323 1.489 . S
C324 C325 1.383 . S
C324 C329 1.382 . S
C325 H296 0.950 . S
C325 C324 1.383 . S
C325 C326 1.395 . S
C326 H297 0.950 . S
C326 C325 1.395 . S
C326 C327 1.288 . S
C327 C326 1.288 . S
C327 C328 1.392 . S
C328 H298 0.951 . S
C328 C327 1.392 . S
C328 C329 1.392 . S
C329 H299 0.949 . S
C329 C324 1.382 . S
C329 C328 1.392 . S
H330 C349 0.949 . S
H331 C350 0.950 . S
H332 C352 0.950 . S
H333 C353 0.950 . S
H334 C355 0.950 . S
H335 C358 0.950 . S
H336 C359 0.950 . S
H337 C361 0.951 . S
H338 C362 0.949 . S
H339 C364 0.949 . S
H340 C365 0.950 . S
H341 C367 0.950 . S
H342 C368 0.950 . S
H343 C370 0.950 . S
H344 C373 0.950 . S
H345 C374 0.950 . S
H346 C376 0.951 . S
H347 C377 0.949 . S
C348 C349 1.376 . S
C348 C353 1.386 . S
C348 C354 1.483 . S
C349 H330 0.949 . S
C349 C348 1.376 . S
C349 C350 1.397 . S
C350 H331 0.950 . S
C350 C349 1.397 . S
C350 C351 1.391 . S
C351 C350 1.391 . S
C351 C352 1.405 . S
C352 H332 0.950 . S
C352 C351 1.405 . S
C352 C353 1.367 . S
C353 H333 0.950 . S
C353 C348 1.386 . S
C353 C352 1.367 . S
C354 C348 1.483 . S
C354 C355 1.382 . S
C354 C356 1.403 . S
C355 H334 0.950 . S
C355 C354 1.382 . S
C355 C371 1.411 . S
C356 C354 1.403 . S
C356 C357 1.489 . S
C356 C370 1.411 . S
C357 C356 1.489 . S
C357 C358 1.383 . S
C357 C362 1.382 . S
C358 H335 0.950 . S
C358 C357 1.383 . S
C358 C359 1.395 . S
C359 H336 0.950 . S
C359 C358 1.395 . S
C359 C360 1.288 . S
C360 C359 1.288 . S
C360 C361 1.392 . S
C361 H337 0.951 . S
C361 C360 1.392 . S
C361 C362 1.392 . S
C362 H338 0.949 . S
C362 C357 1.382 . S
C362 C361 1.392 . S
C363 C364 1.376 . S
C363 C368 1.386 . S
C363 C369 1.483 . S
C364 H339 0.949 . S
C364 C363 1.376 . S
C364 C365 1.397 . S
C365 H340 0.950 . S
C365 C364 1.397 . S
C365 C366 1.391 . S
C366 C365 1.391 . S
C366 C367 1.405 . S
C367 H341 0.950 . S
C367 C366 1.405 . S
C367 C368 1.367 . S
C368 H342 0.950 . S
C368 C363 1.386 . S
C368 C367 1.367 . S
C369 C363 1.483 . S
C369 C370 1.382 . S
C369 C371 1.403 . S
C370 H343 0.950 . S
C370 C356 1.411 . S
C370 C369 1.382 . S
C371 C355 1.411 . S
C371 C369 1.403 . S
C371 C372 1.489 . S
C372 C371 1.489 . S
C372 C373 1.383 . S
C372 C377 1.382 . S
C373 H344 0.950 . S
C373 C372 1.383 . S
C373 C374 1.395 . S
C374 H345 0.950 . S
C374 C373 1.395 . S
C374 C375 1.288 . S
C375 C374 1.288 . S
C375 C376 1.392 . S
C376 H346 0.951 . S
C376 C375 1.392 . S
C376 C377 1.392 . S
C377 H347 0.949 . S
C377 C372 1.382 . S
C377 C376 1.392 . S
H378 C397 0.949 . S
H379 C398 0.950 . S
H380 C400 0.950 . S
H381 C401 0.950 . S
H382 C403 0.950 . S
H383 C406 0.950 . S
H384 C407 0.950 . S
H385 C409 0.951 . S
H386 C410 0.949 . S
H387 C412 0.949 . S
H388 C413 0.950 . S
H389 C415 0.950 . S
H390 C416 0.950 . S
H391 C418 0.950 . S
H392 C421 0.950 . S
H393 C422 0.950 . S
H394 C424 0.951 . S
H395 C425 0.949 . S
C396 C397 1.376 . S
C396 C401 1.386 . S
C396 C402 1.483 . S
C397 H378 0.949 . S
C397 C396 1.376 . S
C397 C398 1.397 . S
C398 H379 0.950 . S
C398 C397 1.397 . S
C398 C399 1.391 . S
C399 C398 1.391 . S
C399 C400 1.405 . S
C400 H380 0.950 . S
C400 C399 1.405 . S
C400 C401 1.367 . S
C401 H381 0.950 . S
C401 C396 1.386 . S
C401 C400 1.367 . S
C402 C396 1.483 . S
C402 C403 1.382 . S
C402 C404 1.403 . S
C403 H382 0.950 . S
C403 C402 1.382 . S
C403 C419 1.411 . S
C404 C402 1.403 . S
C404 C405 1.489 . S
C404 C418 1.411 . S
C405 C404 1.489 . S
C405 C406 1.383 . S
C405 C410 1.382 . S
C406 H383 0.950 . S
C406 C405 1.383 . S
C406 C407 1.395 . S
C407 H384 0.950 . S
C407 C406 1.395 . S
C407 C408 1.288 . S
C408 C407 1.288 . S
C408 C409 1.392 . S
C409 H385 0.951 . S
C409 C408 1.392 . S
C409 C410 1.392 . S
C410 H386 0.949 . S
C410 C405 1.382 . S
C410 C409 1.392 . S
C411 C412 1.376 . S
C411 C416 1.386 . S
C411 C417 1.483 . S
C412 H387 0.949 . S
C412 C411 1.376 . S
C412 C413 1.397 . S
C413 H388 0.950 . S
C413 C412 1.397 . S
C413 C414 1.391 . S
C414 C413 1.391 . S
C414 C415 1.405 . S
C415 H389 0.950 . S
C415 C414 1.405 . S
C415 C416 1.367 . S
C416 H390 0.950 . S
C416 C411 1.386 . S
C416 C415 1.367 . S
C417 C411 1.483 . S
C417 C418 1.382 . S
C417 C419 1.403 . S
C418 H391 0.950 . S
C418 C404 1.411 . S
C418 C417 1.382 . S
C419 C403 1.411 . S
C419 C417 1.403 . S
C419 C420 1.489 . S
C420 C419 1.489 . S
C420 C421 1.383 . S
C420 C425 1.382 . S
C421 H392 0.950 . S
C421 C420 1.383 . S
C421 C422 1.395 . S
C422 H393 0.950 . S
C422 C421 1.395 . S
C422 C423 1.288 . S
C423 C422 1.288 . S
C423 C424 1.392 . S
C424 H394 0.951 . S
C424 C423 1.392 . S
C424 C425 1.392 . S
C425 H395 0.949 . S
C425 C420 1.382 . S
C425 C424 1.392 . S
H426 C445 0.949 . S
H427 C446 0.950 . S
H428 C448 0.950 . S
H429 C449 0.950 . S
H430 C451 0.950 . S
H431 C454 0.950 . S
H432 C455 0.950 . S
H433 C457 0.951 . S
H434 C458 0.949 . S
H435 C460 0.949 . S
H436 C461 0.950 . S
H437 C463 0.950 . S
H438 C464 0.950 . S
H439 C466 0.950 . S
H440 C469 0.950 . S
H441 C470 0.950 . S
H442 C472 0.951 . S
H443 C473 0.949 . S
C444 C445 1.376 . S
C444 C449 1.386 . S
C444 C450 1.483 . S
C445 H426 0.949 . S
C445 C444 1.376 . S
C445 C446 1.397 . S
C446 H427 0.950 . S
C446 C445 1.397 . S
C446 C447 1.391 . S
C447 C446 1.391 . S
C447 C448 1.405 . S
C448 H428 0.950 . S
C448 C447 1.405 . S
C448 C449 1.367 . S
C449 H429 0.950 . S
C449 C444 1.386 . S
C449 C448 1.367 . S
C450 C444 1.483 . S
C450 C451 1.382 . S
C450 C452 1.403 . S
C451 H430 0.950 . S
C451 C450 1.382 . S
C451 C467 1.411 . S
C452 C450 1.403 . S
C452 C453 1.489 . S
C452 C466 1.411 . S
C453 C452 1.489 . S
C453 C454 1.383 . S
C453 C458 1.382 . S
C454 H431 0.950 . S
C454 C453 1.383 . S
C454 C455 1.395 . S
C455 H432 0.950 . S
C455 C454 1.395 . S
C455 C456 1.288 . S
C456 C455 1.288 . S
C456 C457 1.392 . S
C457 H433 0.951 . S
C457 C456 1.392 . S
C457 C458 1.392 . S
C458 H434 0.949 . S
C458 C453 1.382 . S
C458 C457 1.392 . S
C459 C460 1.376 . S
C459 C464 1.386 . S
C459 C465 1.483 . S
C460 H435 0.949 . S
C460 C459 1.376 . S
C460 C461 1.397 . S
C461 H436 0.950 . S
C461 C460 1.397 . S
C461 C462 1.391 . S
C462 C461 1.391 . S
C462 C463 1.405 . S
C463 H437 0.950 . S
C463 C462 1.405 . S
C463 C464 1.367 . S
C464 H438 0.950 . S
C464 C459 1.386 . S
C464 C463 1.367 . S
C465 C459 1.483 . S
C465 C466 1.382 . S
C465 C467 1.403 . S
C466 H439 0.950 . S
C466 C452 1.411 . S
C466 C465 1.382 . S
C467 C451 1.411 . S
C467 C465 1.403 . S
C467 C468 1.489 . S
C468 C467 1.489 . S
C468 C469 1.383 . S
C468 C473 1.382 . S
C469 H440 0.950 . S
C469 C468 1.383 . S
C469 C470 1.395 . S
C470 H441 0.950 . S
C470 C469 1.395 . S
C470 C471 1.288 . S
C471 C470 1.288 . S
C471 C472 1.392 . S
C472 H442 0.951 . S
C472 C471 1.392 . S
C472 C473 1.392 . S
C473 H443 0.949 . S
C473 C468 1.382 . S
C473 C472 1.392 . S
H474 C493 0.949 . S
H475 C494 0.950 . S
H476 C496 0.950 . S
H477 C497 0.950 . S
H478 C499 0.950 . S
H479 C502 0.950 . S
H480 C503 0.950 . S
H481 C505 0.951 . S
H482 C506 0.949 . S
H483 C508 0.949 . S
H484 C509 0.950 . S
H485 C511 0.950 . S
H486 C512 0.950 . S
H487 C514 0.950 . S
H488 C517 0.950 . S
H489 C518 0.950 . S
H490 C520 0.951 . S
H491 C521 0.949 . S
C492 C493 1.376 . S
C492 C497 1.386 . S
C492 C498 1.483 . S
C493 H474 0.949 . S
C493 C492 1.376 . S
C493 C494 1.397 . S
C494 H475 0.950 . S
C494 C493 1.397 . S
C494 C495 1.391 . S
C495 C494 1.391 . S
C495 C496 1.405 . S
C496 H476 0.950 . S
C496 C495 1.405 . S
C496 C497 1.367 . S
C497 H477 0.950 . S
C497 C492 1.386 . S
C497 C496 1.367 . S
C498 C492 1.483 . S
C498 C499 1.382 . S
C498 C500 1.403 . S
C499 H478 0.950 . S
C499 C498 1.382 . S
C499 C515 1.411 . S
C500 C498 1.403 . S
C500 C501 1.489 . S
C500 C514 1.411 . S
C501 C500 1.489 . S
C501 C502 1.383 . S
C501 C506 1.382 . S
C502 H479 0.950 . S
C502 C501 1.383 . S
C502 C503 1.395 . S
C503 H480 0.950 . S
C503 C502 1.395 . S
C503 C504 1.288 . S
C504 C503 1.288 . S
C504 C505 1.392 . S
C505 H481 0.951 . S
C505 C504 1.392 . S
C505 C506 1.392 . S
C506 H482 0.949 . S
C506 C501 1.382 . S
C506 C505 1.392 . S
C507 C508 1.376 . S
C507 C512 1.386 . S
C507 C513 1.483 . S
C508 H483 0.949 . S
C508 C507 1.376 . S
C508 C509 1.397 . S
C509 H484 0.950 . S
C509 C508 1.397 . S
C509 C510 1.391 . S
C510 C509 1.391 . S
C510 C511 1.405 . S
C511 H485 0.950 . S
C511 C510 1.405 . S
C511 C512 1.367 . S
C512 H486 0.950 . S
C512 C507 1.386 . S
C512 C511 1.367 . S
C513 C507 1.483 . S
C513 C514 1.382 . S
C513 C515 1.403 . S
C514 H487 0.950 . S
C514 C500 1.411 . S
C514 C513 1.382 . S
C515 C499 1.411 . S
C515 C513 1.403 . S
C515 C516 1.489 . S
C516 C515 1.489 . S
C516 C517 1.383 . S
C516 C521 1.382 . S
C517 H488 0.950 . S
C517 C516 1.383 . S
C517 C518 1.395 . S
C518 H489 0.950 . S
C518 C517 1.395 . S
C518 C519 1.288 . S
C519 C518 1.288 . S
C519 C520 1.392 . S
C520 H490 0.951 . S
C520 C519 1.392 . S
C520 C521 1.392 . S
C521 H491 0.949 . S
C521 C516 1.382 . S
C521 C520 1.392 . S
H522 C541 0.949 . S
H523 C542 0.950 . S
H524 C544 0.950 . S
H525 C545 0.950 . S
H526 C547 0.950 . S
H527 C550 0.950 . S
H528 C551 0.950 . S
H529 C553 0.951 . S
H530 C554 0.949 . S
H531 C556 0.949 . S
H532 C557 0.950 . S
H533 C559 0.950 . S
H534 C560 0.950 . S
H535 C562 0.950 . S
H536 C565 0.950 . S
H537 C566 0.950 . S
H538 C568 0.951 . S
H539 C569 0.949 . S
C540 C541 1.376 . S
C540 C545 1.386 . S
C540 C546 1.483 . S
C541 H522 0.949 . S
C541 C540 1.376 . S
C541 C542 1.397 . S
C542 H523 0.950 . S
C542 C541 1.397 . S
C542 C543 1.391 . S
C543 C542 1.391 . S
C543 C544 1.405 . S
C544 H524 0.950 . S
C544 C543 1.405 . S
C544 C545 1.367 . S
C545 H525 0.950 . S
C545 C540 1.386 . S
C545 C544 1.367 . S
C546 C540 1.483 . S
C546 C547 1.382 . S
C546 C548 1.403 . S
C547 H526 0.950 . S
C547 C546 1.382 . S
C547 C563 1.411 . S
C548 C546 1.403 . S
C548 C549 1.489 . S
C548 C562 1.411 . S
C549 C548 1.489 . S
C549 C550 1.383 . S
C549 C554 1.382 . S
C550 H527 0.950 . S
C550 C549 1.383 . S
C550 C551 1.395 . S
C551 H528 0.950 . S
C551 C550 1.395 . S
C551 C552 1.288 . S
C552 C551 1.288 . S
C552 C553 1.392 . S
C553 H529 0.951 . S
C553 C552 1.392 . S
C553 C554 1.392 . S
C554 H530 0.949 . S
C554 C549 1.382 . S
C554 C553 1.392 . S
C555 C556 1.376 . S
C555 C560 1.386 . S
C555 C561 1.483 . S
C556 H531 0.949 . S
C556 C555 1.376 . S
C556 C557 1.397 . S
C557 H532 0.950 . S
C557 C556 1.397 . S
C557 C558 1.391 . S
C558 C557 1.391 . S
C558 C559 1.405 . S
C559 H533 0.950 . S
C559 C558 1.405 . S
C559 C560 1.367 . S
C560 H534 0.950 . S
C560 C555 1.386 . S
C560 C559 1.367 . S
C561 C555 1.483 . S
C561 C562 1.382 . S
C561 C563 1.403 . S
C562 H535 0.950 . S
C562 C548 1.411 . S
C562 C561 1.382 . S
C563 C547 1.411 . S
C563 C561 1.403 . S
C563 C564 1.489 . S
C564 C563 1.489 . S
C564 C565 1.383 . S
C564 C569 1.382 . S
C565 H536 0.950 . S
C565 C564 1.383 . S
C565 C566 1.395 . S
C566 H537 0.950 . S
C566 C565 1.395 . S
C566 C567 1.288 . S
C567 C566 1.288 . S
C567 C568 1.392 . S
C568 H538 0.951 . S
C568 C567 1.392 . S
C568 C569 1.392 . S
C569 H539 0.949 . S
C569 C564 1.382 . S
C569 C568 1.392 . S
H570 C589 0.949 . S
H571 C590 0.950 . S
H572 C592 0.950 . S
H573 C593 0.950 . S
H574 C595 0.950 . S
H575 C598 0.950 . S
H576 C599 0.950 . S
H577 C601 0.951 . S
H578 C602 0.949 . S
H579 C604 0.949 . S
H580 C605 0.950 . S
H581 C607 0.950 . S
H582 C608 0.950 . S
H583 C610 0.950 . S
H584 C613 0.950 . S
H585 C614 0.950 . S
H586 C616 0.951 . S
H587 C617 0.949 . S
C588 C589 1.376 . S
C588 C593 1.386 . S
C588 C594 1.483 . S
C589 H570 0.949 . S
C589 C588 1.376 . S
C589 C590 1.397 . S
C590 H571 0.950 . S
C590 C589 1.397 . S
C590 C591 1.391 . S
C591 C590 1.391 . S
C591 C592 1.405 . S
C592 H572 0.950 . S
C592 C591 1.405 . S
C592 C593 1.367 . S
C593 H573 0.950 . S
C593 C588 1.386 . S
C593 C592 1.367 . S
C594 C588 1.483 . S
C594 C595 1.382 . S
C594 C596 1.403 . S
C595 H574 0.950 . S
C595 C594 1.382 . S
C595 C611 1.411 . S
C596 C594 1.403 . S
C596 C597 1.489 . S
C596 C610 1.411 . S
C597 C596 1.489 . S
C597 C598 1.383 . S
C597 C602 1.382 . S
C598 H575 0.950 . S
C598 C597 1.383 . S
C598 C599 1.395 . S
C599 H576 0.950 . S
C599 C598 1.395 . S
C599 C600 1.288 . S
C600 C599 1.288 . S
C600 C601 1.392 . S
C601 H577 0.951 . S
C601 C600 1.392 . S
C601 C602 1.392 . S
C602 H578 0.949 . S
C602 C597 1.382 . S
C602 C601 1.392 . S
C603 C604 1.376 . S
C603 C608 1.386 . S
C603 C609 1.483 . S
C604 H579 0.949 . S
C604 C603 1.376 . S
C604 C605 1.397 . S
C605 H580 0.950 . S
C605 C604 1.397 . S
C605 C606 1.391 . S
C606 C605 1.391 . S
C606 C607 1.405 . S
C607 H581 0.950 . S
C607 C606 1.405 . S
C607 C608 1.367 . S
C608 H582 0.950 . S
C608 C603 1.386 . S
C608 C607 1.367 . S
C609 C603 1.483 . S
C609 C610 1.382 . S
C609 C611 1.403 . S
C610 H583 0.950 . S
C610 C596 1.411 . S
C610 C609 1.382 . S
C611 C595 1.411 . S
C611 C609 1.403 . S
C611 C612 1.489 . S
C612 C611 1.489 . S
C612 C613 1.383 . S
C612 C617 1.382 . S
C613 H584 0.950 . S
C613 C612 1.383 . S
C613 C614 1.395 . S
C614 H585 0.950 . S
C614 C613 1.395 . S
C614 C615 1.288 . S
C615 C614 1.288 . S
C615 C616 1.392 . S
C616 H586 0.951 . S
C616 C615 1.392 . S
C616 C617 1.392 . S
C617 H587 0.949 . S
C617 C612 1.382 . S
C617 C616 1.392 . S
H618 C637 0.949 . S
H619 C638 0.950 . S
H620 C640 0.950 . S
H621 C641 0.950 . S
H622 C643 0.950 . S
H623 C646 0.950 . S
H624 C647 0.950 . S
H625 C649 0.951 . S
H626 C650 0.949 . S
H627 C652 0.949 . S
H628 C653 0.950 . S
H629 C655 0.950 . S
H630 C656 0.950 . S
H631 C658 0.950 . S
H632 C661 0.950 . S
H633 C662 0.950 . S
H634 C664 0.951 . S
H635 C665 0.949 . S
C636 C637 1.376 . S
C636 C641 1.386 . S
C636 C642 1.483 . S
C637 H618 0.949 . S
C637 C636 1.376 . S
C637 C638 1.397 . S
C638 H619 0.950 . S
C638 C637 1.397 . S
C638 C639 1.391 . S
C639 C638 1.391 . S
C639 C640 1.405 . S
C640 H620 0.950 . S
C640 C639 1.405 . S
C640 C641 1.367 . S
C641 H621 0.950 . S
C641 C636 1.386 . S
C641 C640 1.367 . S
C642 C636 1.483 . S
C642 C643 1.382 . S
C642 C644 1.403 . S
C643 H622 0.950 . S
C643 C642 1.382 . S
C643 C659 1.411 . S
C644 C642 1.403 . S
C644 C645 1.489 . S
C644 C658 1.411 . S
C645 C644 1.489 . S
C645 C646 1.383 . S
C645 C650 1.382 . S
C646 H623 0.950 . S
C646 C645 1.383 . S
C646 C647 1.395 . S
C647 H624 0.950 . S
C647 C646 1.395 . S
C647 C648 1.288 . S
C648 C647 1.288 . S
C648 C649 1.392 . S
C649 H625 0.951 . S
C649 C648 1.392 . S
C649 C650 1.392 . S
C650 H626 0.949 . S
C650 C645 1.382 . S
C650 C649 1.392 . S
C651 C652 1.376 . S
C651 C656 1.386 . S
C651 C657 1.483 . S
C652 H627 0.949 . S
C652 C651 1.376 . S
C652 C653 1.397 . S
C653 H628 0.950 . S
C653 C652 1.397 . S
C653 C654 1.391 . S
C654 C653 1.391 . S
C654 C655 1.405 . S
C655 H629 0.950 . S
C655 C654 1.405 . S
C655 C656 1.367 . S
C656 H630 0.950 . S
C656 C651 1.386 . S
C656 C655 1.367 . S
C657 C651 1.483 . S
C657 C658 1.382 . S
C657 C659 1.403 . S
C658 H631 0.950 . S
C658 C644 1.411 . S
C658 C657 1.382 . S
C659 C643 1.411 . S
C659 C657 1.403 . S
C659 C660 1.489 . S
C660 C659 1.489 . S
C660 C661 1.383 . S
C660 C665 1.382 . S
C661 H632 0.950 . S
C661 C660 1.383 . S
C661 C662 1.395 . S
C662 H633 0.950 . S
C662 C661 1.395 . S
C662 C663 1.288 . S
C663 C662 1.288 . S
C663 C664 1.392 . S
C664 H634 0.951 . S
C664 C663 1.392 . S
C664 C665 1.392 . S
C665 H635 0.949 . S
C665 C660 1.382 . S
C665 C664 1.392 . S
H666 C685 0.949 . S
H667 C686 0.950 . S
H668 C688 0.950 . S
H669 C689 0.950 . S
H670 C691 0.950 . S
H671 C694 0.950 . S
H672 C695 0.950 . S
H673 C697 0.951 . S
H674 C698 0.949 . S
H675 C700 0.949 . S
H676 C701 0.950 . S
H677 C703 0.950 . S
H678 C704 0.950 . S
H679 C706 0.950 . S
H680 C709 0.950 . S
H681 C710 0.950 . S
H682 C712 0.951 . S
H683 C713 0.949 . S
C684 C685 1.376 . S
C684 C689 1.386 1_655 S
C684 C690 1.483 . S
C685 H666 0.949 . S
C685 C684 1.376 . S
C685 C686 1.397 . S
C686 H667 0.950 . S
C686 C685 1.397 . S
C686 C687 1.391 . S
C687 C686 1.391 . S
C687 C688 1.405 1_655 S
C688 H668 0.950 . S
C688 C687 1.405 1_455 S
C688 C689 1.367 . S
C689 H669 0.950 . S
C689 C684 1.386 1_455 S
C689 C688 1.367 . S
C690 C684 1.483 . S
C690 C691 1.382 . S
C690 C692 1.403 1_655 S
C691 H670 0.950 . S
C691 C690 1.382 . S
C691 C707 1.411 . S
C692 C690 1.403 1_455 S
C692 C693 1.489 . S
C692 C706 1.411 . S
C693 C692 1.489 . S
C693 C694 1.383 1_455 S
C693 C698 1.382 . S
C694 H671 0.950 . S
C694 C693 1.383 1_655 S
C694 C695 1.395 . S
C695 H672 0.950 . S
C695 C694 1.395 . S
C695 C696 1.288 1_655 S
C696 C695 1.288 1_455 S
C696 C697 1.392 . S
C697 H673 0.951 . S
C697 C696 1.392 . S
C697 C698 1.392 . S
C698 H674 0.949 . S
C698 C693 1.382 . S
C698 C697 1.392 . S
C699 C700 1.376 . S
C699 C704 1.386 1_455 S
C699 C705 1.483 . S
C700 H675 0.949 . S
C700 C699 1.376 . S
C700 C701 1.397 . S
C701 H676 0.950 . S
C701 C700 1.397 . S
C701 C702 1.391 . S
C702 C701 1.391 . S
C702 C703 1.405 1_455 S
C703 H677 0.950 . S
C703 C702 1.405 1_655 S
C703 C704 1.367 . S
C704 H678 0.950 . S
C704 C699 1.386 1_655 S
C704 C703 1.367 . S
C705 C699 1.483 . S
C705 C706 1.382 . S
C705 C707 1.403 1_455 S
C706 H679 0.950 . S
C706 C692 1.411 . S
C706 C705 1.382 . S
C707 C691 1.411 . S
C707 C705 1.403 1_655 S
C707 C708 1.489 . S
C708 C707 1.489 . S
C708 C709 1.383 1_655 S
C708 C713 1.382 . S
C709 H680 0.950 . S
C709 C708 1.383 1_455 S
C709 C710 1.395 . S
C710 H681 0.950 . S
C710 C709 1.395 . S
C710 C711 1.288 1_455 S
C711 C710 1.288 1_655 S
C711 C712 1.392 . S
C712 H682 0.951 . S
C712 C711 1.392 . S
C712 C713 1.392 . S
C713 H683 0.949 . S
C713 C708 1.382 . S
C713 C712 1.392 . S
H714 C733 0.949 . S
H715 C734 0.950 . S
H716 C736 0.950 . S
H717 C737 0.950 . S
H718 C739 0.950 . S
H719 C742 0.950 . S
H720 C743 0.950 . S
H721 C745 0.951 . S
H722 C746 0.949 . S
H723 C748 0.949 . S
H724 C749 0.950 . S
H725 C751 0.950 . S
H726 C752 0.950 . S
H727 C754 0.950 . S
H728 C757 0.950 . S
H729 C758 0.950 . S
H730 C760 0.951 . S
H731 C761 0.949 . S
C732 C733 1.376 . S
C732 C737 1.386 . S
C732 C738 1.483 . S
C733 H714 0.949 . S
C733 C732 1.376 . S
C733 C734 1.397 . S
C734 H715 0.950 . S
C734 C733 1.397 . S
C734 C735 1.391 . S
C735 C734 1.391 . S
C735 C736 1.405 . S
C736 H716 0.950 . S
C736 C735 1.405 . S
C736 C737 1.367 . S
C737 H717 0.950 . S
C737 C732 1.386 . S
C737 C736 1.367 . S
C738 C732 1.483 . S
C738 C739 1.382 . S
C738 C740 1.403 . S
C739 H718 0.950 . S
C739 C738 1.382 . S
C739 C755 1.411 . S
C740 C738 1.403 . S
C740 C741 1.489 . S
C740 C754 1.411 . S
C741 C740 1.489 . S
C741 C742 1.383 . S
C741 C746 1.382 . S
C742 H719 0.950 . S
C742 C741 1.383 . S
C742 C743 1.395 . S
C743 H720 0.950 . S
C743 C742 1.395 . S
C743 C744 1.288 . S
C744 C743 1.288 . S
C744 C745 1.392 . S
C745 H721 0.951 . S
C745 C744 1.392 . S
C745 C746 1.392 . S
C746 H722 0.949 . S
C746 C741 1.382 . S
C746 C745 1.392 . S
C747 C748 1.376 . S
C747 C752 1.386 . S
C747 C753 1.483 . S
C748 H723 0.949 . S
C748 C747 1.376 . S
C748 C749 1.397 . S
C749 H724 0.950 . S
C749 C748 1.397 . S
C749 C750 1.391 . S
C750 C749 1.391 . S
C750 C751 1.405 . S
C751 H725 0.950 . S
C751 C750 1.405 . S
C751 C752 1.367 . S
C752 H726 0.950 . S
C752 C747 1.386 . S
C752 C751 1.367 . S
C753 C747 1.483 . S
C753 C754 1.382 . S
C753 C755 1.403 . S
C754 H727 0.950 . S
C754 C740 1.411 . S
C754 C753 1.382 . S
C755 C739 1.411 . S
C755 C753 1.403 . S
C755 C756 1.489 . S
C756 C755 1.489 . S
C756 C757 1.383 . S
C756 C761 1.382 . S
C757 H728 0.950 . S
C757 C756 1.383 . S
C757 C758 1.395 . S
C758 H729 0.950 . S
C758 C757 1.395 . S
C758 C759 1.288 . S
C759 C758 1.288 . S
C759 C760 1.392 . S
C760 H730 0.951 . S
C760 C759 1.392 . S
C760 C761 1.392 . S
C761 H731 0.949 . S
C761 C756 1.382 . S
C761 C760 1.392 . S
H762 C781 0.949 . S
H763 C782 0.950 . S
H764 C784 0.950 . S
H765 C785 0.950 . S
H766 C787 0.950 . S
H767 C790 0.950 . S
H768 C791 0.950 . S
H769 C793 0.951 . S
H770 C794 0.949 . S
H771 C796 0.949 . S
H772 C797 0.950 . S
H773 C799 0.950 . S
H774 C800 0.950 . S
H775 C802 0.950 . S
H776 C805 0.950 . S
H777 C806 0.950 . S
H778 C808 0.951 . S
H779 C809 0.949 . S
C780 C781 1.376 . S
C780 C785 1.386 1_545 S
C780 C786 1.483 . S
C781 H762 0.949 . S
C781 C780 1.376 . S
C781 C782 1.397 . S
C782 H763 0.950 . S
C782 C781 1.397 . S
C782 C783 1.391 . S
C783 C782 1.391 . S
C783 C784 1.405 1_545 S
C784 H764 0.950 . S
C784 C783 1.405 1_565 S
C784 C785 1.367 . S
C785 H765 0.950 . S
C785 C780 1.386 1_565 S
C785 C784 1.367 . S
C786 C780 1.483 . S
C786 C787 1.382 . S
C786 C788 1.403 1_545 S
C787 H766 0.950 . S
C787 C786 1.382 . S
C787 C803 1.411 . S
C788 C786 1.403 1_565 S
C788 C789 1.489 . S
C788 C802 1.411 . S
C789 C788 1.489 . S
C789 C790 1.383 1_565 S
C789 C794 1.382 . S
C790 H767 0.950 . S
C790 C789 1.383 1_545 S
C790 C791 1.395 . S
C791 H768 0.950 . S
C791 C790 1.395 . S
C791 C792 1.288 1_545 S
C792 C791 1.288 1_565 S
C792 C793 1.392 . S
C793 H769 0.951 . S
C793 C792 1.392 . S
C793 C794 1.392 . S
C794 H770 0.949 . S
C794 C789 1.382 . S
C794 C793 1.392 . S
C795 C796 1.376 . S
C795 C800 1.386 1_565 S
C795 C801 1.483 . S
C796 H771 0.949 . S
C796 C795 1.376 . S
C796 C797 1.397 . S
C797 H772 0.950 . S
C797 C796 1.397 . S
C797 C798 1.391 . S
C798 C797 1.391 . S
C798 C799 1.405 1_565 S
C799 H773 0.950 . S
C799 C798 1.405 1_545 S
C799 C800 1.367 . S
C800 H774 0.950 . S
C800 C795 1.386 1_545 S
C800 C799 1.367 . S
C801 C795 1.483 . S
C801 C802 1.382 . S
C801 C803 1.403 1_565 S
C802 H775 0.950 . S
C802 C788 1.411 . S
C802 C801 1.382 . S
C803 C787 1.411 . S
C803 C801 1.403 1_545 S
C803 C804 1.489 . S
C804 C803 1.489 . S
C804 C805 1.383 1_545 S
C804 C809 1.382 . S
C805 H776 0.950 . S
C805 C804 1.383 1_565 S
C805 C806 1.395 . S
C806 H777 0.950 . S
C806 C805 1.395 . S
C806 C807 1.288 1_565 S
C807 C806 1.288 1_545 S
C807 C808 1.392 . S
C808 H778 0.951 . S
C808 C807 1.392 . S
C808 C809 1.392 . S
C809 H779 0.949 . S
C809 C804 1.382 . S
C809 C808 1.392 . S
H810 C829 0.949 . S
H811 C830 0.950 . S
H812 C832 0.950 . S
H813 C833 0.950 . S
H814 C835 0.950 . S
H815 C838 0.950 . S
H816 C839 0.950 . S
H817 C841 0.951 . S
H818 C842 0.949 . S
H819 C844 0.949 . S
H820 C845 0.950 . S
H821 C847 0.950 . S
H822 C848 0.950 . S
H823 C850 0.950 . S
H824 C853 0.950 . S
H825 C854 0.950 . S
H826 C856 0.951 . S
H827 C857 0.949 . S
C828 C829 1.382 . S
C828 C833 1.383 1_545 S
C828 C834 1.505 . S
C829 H810 0.949 . S
C829 C828 1.382 . S
C829 C830 1.397 . S
C830 H811 0.950 . S
C830 C829 1.397 . S
C830 C831 1.391 1_545 S
C831 C830 1.391 1_565 S
C831 C832 1.405 . S
C832 H812 0.950 . S
C832 C831 1.405 . S
C832 C833 1.367 . S
C833 H813 0.950 . S
C833 C828 1.383 1_565 S
C833 C832 1.367 . S
C834 C828 1.505 . S
C834 C835 1.359 . S
C834 C836 1.398 1_545 S
C835 H814 0.950 . S
C835 C834 1.359 . S
C835 C851 1.411 . S
C836 C834 1.398 1_565 S
C836 C837 1.484 . S
C836 C850 1.437 . S
C837 C836 1.484 . S
C837 C838 1.344 1_565 S
C837 C842 1.403 . S
C838 H815 0.950 . S
C838 C837 1.344 1_545 S
C838 C839 1.395 . S
C839 H816 0.950 . S
C839 C838 1.395 . S
C839 C840 1.288 . S
C840 C839 1.288 . S
C840 C841 1.392 1_545 S
C841 H817 0.951 . S
C841 C840 1.392 1_565 S
C841 C842 1.392 . S
C842 H818 0.949 . S
C842 C837 1.403 . S
C842 C841 1.392 . S
C843 C844 1.372 . S
C843 C848 1.388 1_565 S
C843 C849 1.505 . S
C844 H819 0.949 . S
C844 C843 1.372 . S
C844 C845 1.397 . S
C845 H820 0.950 . S
C845 C844 1.397 . S
C845 C846 1.391 1_565 S
C846 C845 1.391 1_545 S
C846 C847 1.405 . S
C847 H821 0.950 . S
C847 C846 1.405 . S
C847 C848 1.367 . S
C848 H822 0.950 . S
C848 C843 1.388 1_545 S
C848 C847 1.367 . S
C849 C843 1.505 . S
C849 C850 1.364 . S
C849 C851 1.400 1_565 S
C850 H823 0.950 . S
C850 C836 1.437 . S
C850 C849 1.364 . S
C851 C835 1.411 . S
C851 C849 1.400 1_545 S
C851 C852 1.512 . S
C852 C851 1.512 . S
C852 C853 1.331 1_545 S
C852 C857 1.410 . S
C853 H824 0.950 . S
C853 C852 1.331 1_565 S
C853 C854 1.395 . S
C854 H825 0.950 . S
C854 C853 1.395 . S
C854 C855 1.288 . S
C855 C854 1.288 . S
C855 C856 1.392 1_565 S
C856 H826 0.951 . S
C856 C855 1.392 1_545 S
C856 C857 1.392 . S
C857 H827 0.949 . S
C857 C852 1.410 . S
C857 C856 1.392 . S
H858 C877 0.949 . S
H859 C878 0.950 . S
H860 C880 0.950 . S
H861 C881 0.950 . S
H862 C883 0.950 . S
H863 C886 0.950 . S
H864 C887 0.950 . S
H865 C889 0.951 . S
H866 C890 0.949 . S
H867 C892 0.949 . S
H868 C893 0.950 . S
H869 C895 0.950 . S
H870 C896 0.950 . S
H871 C898 0.950 . S
H872 C901 0.950 . S
H873 C902 0.950 . S
H874 C904 0.951 . S
H875 C905 0.949 . S
C876 C877 1.376 . S
C876 C881 1.386 1_455 S
C876 C882 1.483 . S
C877 H858 0.949 . S
C877 C876 1.376 . S
C877 C878 1.397 . S
C878 H859 0.950 . S
C878 C877 1.397 . S
C878 C879 1.391 . S
C879 C878 1.391 . S
C879 C880 1.405 1_455 S
C880 H860 0.950 . S
C880 C879 1.405 1_655 S
C880 C881 1.367 . S
C881 H861 0.950 . S
C881 C876 1.386 1_655 S
C881 C880 1.367 . S
C882 C876 1.483 . S
C882 C883 1.382 . S
C882 C884 1.403 1_455 S
C883 H862 0.950 . S
C883 C882 1.382 . S
C883 C899 1.411 . S
C884 C882 1.403 1_655 S
C884 C885 1.489 . S
C884 C898 1.411 . S
C885 C884 1.489 . S
C885 C886 1.383 1_655 S
C885 C890 1.382 . S
C886 H863 0.950 . S
C886 C885 1.383 1_455 S
C886 C887 1.395 . S
C887 H864 0.950 . S
C887 C886 1.395 . S
C887 C888 1.288 1_455 S
C888 C887 1.288 1_655 S
C888 C889 1.392 . S
C889 H865 0.951 . S
C889 C888 1.392 . S
C889 C890 1.392 . S
C890 H866 0.949 . S
C890 C885 1.382 . S
C890 C889 1.392 . S
C891 C892 1.376 . S
C891 C896 1.386 1_655 S
C891 C897 1.483 . S
C892 H867 0.949 . S
C892 C891 1.376 . S
C892 C893 1.397 . S
C893 H868 0.950 . S
C893 C892 1.397 . S
C893 C894 1.391 . S
C894 C893 1.391 . S
C894 C895 1.405 1_655 S
C895 H869 0.950 . S
C895 C894 1.405 1_455 S
C895 C896 1.367 . S
C896 H870 0.950 . S
C896 C891 1.386 1_455 S
C896 C895 1.367 . S
C897 C891 1.483 . S
C897 C898 1.382 . S
C897 C899 1.403 1_655 S
C898 H871 0.950 . S
C898 C884 1.411 . S
C898 C897 1.382 . S
C899 C883 1.411 . S
C899 C897 1.403 1_455 S
C899 C900 1.489 . S
C900 C899 1.489 . S
C900 C901 1.383 1_455 S
C900 C905 1.382 . S
C901 H872 0.950 . S
C901 C900 1.383 1_655 S
C901 C902 1.395 . S
C902 H873 0.950 . S
C902 C901 1.395 . S
C902 C903 1.288 1_655 S
C903 C902 1.288 1_455 S
C903 C904 1.392 . S
C904 H874 0.951 . S
C904 C903 1.392 . S
C904 C905 1.392 . S
C905 H875 0.949 . S
C905 C900 1.382 . S
C905 C904 1.392 . S
H906 C925 0.949 . S
H907 C926 0.950 . S
H908 C928 0.950 . S
H909 C929 0.950 . S
H910 C931 0.950 . S
H911 C934 0.950 . S
H912 C935 0.950 . S
H913 C937 0.951 . S
H914 C938 0.949 . S
H915 C940 0.949 . S
H916 C941 0.950 . S
H917 C943 0.950 . S
H918 C944 0.950 . S
H919 C946 0.950 . S
H920 C949 0.950 . S
H921 C950 0.950 . S
H922 C952 0.951 . S
H923 C953 0.949 . S
C924 C925 1.376 . S
C924 C929 1.386 . S
C924 C930 1.483 . S
C925 H906 0.949 . S
C925 C924 1.376 . S
C925 C926 1.397 . S
C926 H907 0.950 . S
C926 C925 1.397 . S
C926 C927 1.391 . S
C927 C926 1.391 . S
C927 C928 1.405 . S
C928 H908 0.950 . S
C928 C927 1.405 . S
C928 C929 1.367 . S
C929 H909 0.950 . S
C929 C924 1.386 . S
C929 C928 1.367 . S
C930 C924 1.483 . S
C930 C931 1.382 . S
C930 C932 1.403 . S
C931 H910 0.950 . S
C931 C930 1.382 . S
C931 C947 1.411 . S
C932 C930 1.403 . S
C932 C933 1.489 . S
C932 C946 1.411 . S
C933 C932 1.489 . S
C933 C934 1.383 . S
C933 C938 1.382 . S
C934 H911 0.950 . S
C934 C933 1.383 . S
C934 C935 1.395 . S
C935 H912 0.950 . S
C935 C934 1.395 . S
C935 C936 1.288 . S
C936 C935 1.288 . S
C936 C937 1.392 . S
C937 H913 0.951 . S
C937 C936 1.392 . S
C937 C938 1.392 . S
C938 H914 0.949 . S
C938 C933 1.382 . S
C938 C937 1.392 . S
C939 C940 1.376 . S
C939 C944 1.386 . S
C939 C945 1.483 . S
C940 H915 0.949 . S
C940 C939 1.376 . S
C940 C941 1.397 . S
C941 H916 0.950 . S
C941 C940 1.397 . S
C941 C942 1.391 . S
C942 C941 1.391 . S
C942 C943 1.405 . S
C943 H917 0.950 . S
C943 C942 1.405 . S
C943 C944 1.367 . S
C944 H918 0.950 . S
C944 C939 1.386 . S
C944 C943 1.367 . S
C945 C939 1.483 . S
C945 C946 1.382 . S
C945 C947 1.403 . S
C946 H919 0.950 . S
C946 C932 1.411 . S
C946 C945 1.382 . S
C947 C931 1.411 . S
C947 C945 1.403 . S
C947 C948 1.489 . S
C948 C947 1.489 . S
C948 C949 1.383 . S
C948 C953 1.382 . S
C949 H920 0.950 . S
C949 C948 1.383 . S
C949 C950 1.395 . S
C950 H921 0.950 . S
C950 C949 1.395 . S
C950 C951 1.288 . S
C951 C950 1.288 . S
C951 C952 1.392 . S
C952 H922 0.951 . S
C952 C951 1.392 . S
C952 C953 1.392 . S
C953 H923 0.949 . S
C953 C948 1.382 . S
C953 C952 1.392 . S
H954 C973 0.949 . S
H955 C974 0.950 . S
H956 C976 0.950 . S
H957 C977 0.950 . S
H958 C979 0.950 . S
H959 C982 0.950 . S
H960 C983 0.950 . S
H961 C985 0.951 . S
H962 C986 0.949 . S
H963 C988 0.949 . S
H964 C989 0.950 . S
H965 C991 0.950 . S
H966 C992 0.950 . S
H967 C994 0.950 . S
H968 C997 0.950 . S
H969 C998 0.950 . S
H970 C1000 0.951 . S
H971 C1001 0.949 . S
C972 C973 1.376 . S
C972 C977 1.386 . S
C972 C978 1.483 . S
C973 H954 0.949 . S
C973 C972 1.376 . S
C973 C974 1.397 . S
C974 H955 0.950 . S
C974 C973 1.397 . S
C974 C975 1.391 . S
C975 C974 1.391 . S
C975 C976 1.405 . S
C976 H956 0.950 . S
C976 C975 1.405 . S
C976 C977 1.367 . S
C977 H957 0.950 . S
C977 C972 1.386 . S
C977 C976 1.367 . S
C978 C972 1.483 . S
C978 C979 1.382 . S
C978 C980 1.403 . S
C979 H958 0.950 . S
C979 C978 1.382 . S
C979 C995 1.411 . S
C980 C978 1.403 . S
C980 C981 1.489 . S
C980 C994 1.411 . S
C981 C980 1.489 . S
C981 C982 1.383 . S
C981 C986 1.382 . S
C982 H959 0.950 . S
C982 C981 1.383 . S
C982 C983 1.395 . S
C983 H960 0.950 . S
C983 C982 1.395 . S
C983 C984 1.288 . S
C984 C983 1.288 . S
C984 C985 1.392 . S
C985 H961 0.951 . S
C985 C984 1.392 . S
C985 C986 1.392 . S
C986 H962 0.949 . S
C986 C981 1.382 . S
C986 C985 1.392 . S
C987 C988 1.376 . S
C987 C992 1.386 . S
C987 C993 1.483 . S
C988 H963 0.949 . S
C988 C987 1.376 . S
C988 C989 1.397 . S
C989 H964 0.950 . S
C989 C988 1.397 . S
C989 C990 1.391 . S
C990 C989 1.391 . S
C990 C991 1.405 . S
C991 H965 0.950 . S
C991 C990 1.405 . S
C991 C992 1.367 . S
C992 H966 0.950 . S
C992 C987 1.386 . S
C992 C991 1.367 . S
C993 C987 1.483 . S
C993 C994 1.382 . S
C993 C995 1.403 . S
C994 H967 0.950 . S
C994 C980 1.411 . S
C994 C993 1.382 . S
C995 C979 1.411 . S
C995 C993 1.403 . S
C995 C996 1.489 . S
C996 C995 1.489 . S
C996 C997 1.383 . S
C996 C1001 1.382 . S
C997 H968 0.950 . S
C997 C996 1.383 . S
C997 C998 1.395 . S
C998 H969 0.950 . S
C998 C997 1.395 . S
C998 C999 1.288 . S
C999 C998 1.288 . S
C999 C1000 1.392 . S
C1000 H970 0.951 . S
C1000 C999 1.392 . S
C1000 C1001 1.392 . S
C1001 H971 0.949 . S
C1001 C996 1.382 . S
C1001 C1000 1.392 . S
H1002 C1021 0.949 . S
H1003 C1022 0.950 . S
H1004 C1024 0.950 . S
H1005 C1025 0.950 . S
H1006 C1027 0.950 . S
H1007 C1030 0.950 . S
H1008 C1031 0.950 . S
H1009 C1033 0.951 . S
H1010 C1034 0.949 . S
H1011 C1036 0.949 . S
H1012 C1037 0.950 . S
H1013 C1039 0.950 . S
H1014 C1040 0.950 . S
H1015 C1042 0.950 . S
H1016 C1045 0.950 . S
H1017 C1046 0.950 . S
H1018 C1048 0.951 . S
H1019 C1049 0.949 . S
C1020 C1021 1.376 . S
C1020 C1025 1.386 . S
C1020 C1026 1.483 . S
C1021 H1002 0.949 . S
C1021 C1020 1.376 . S
C1021 C1022 1.397 . S
C1022 H1003 0.950 . S
C1022 C1021 1.397 . S
C1022 C1023 1.391 . S
C1023 C1022 1.391 . S
C1023 C1024 1.405 . S
C1024 H1004 0.950 . S
C1024 C1023 1.405 . S
C1024 C1025 1.367 . S
C1025 H1005 0.950 . S
C1025 C1020 1.386 . S
C1025 C1024 1.367 . S
C1026 C1020 1.483 . S
C1026 C1027 1.382 . S
C1026 C1028 1.403 . S
C1027 H1006 0.950 . S
C1027 C1026 1.382 . S
C1027 C1043 1.411 . S
C1028 C1026 1.403 . S
C1028 C1029 1.489 . S
C1028 C1042 1.411 . S
C1029 C1028 1.489 . S
C1029 C1030 1.383 . S
C1029 C1034 1.382 . S
C1030 H1007 0.950 . S
C1030 C1029 1.383 . S
C1030 C1031 1.395 . S
C1031 H1008 0.950 . S
C1031 C1030 1.395 . S
C1031 C1032 1.288 . S
C1032 C1031 1.288 . S
C1032 C1033 1.392 . S
C1033 H1009 0.951 . S
C1033 C1032 1.392 . S
C1033 C1034 1.392 . S
C1034 H1010 0.949 . S
C1034 C1029 1.382 . S
C1034 C1033 1.392 . S
C1035 C1036 1.376 . S
C1035 C1040 1.386 . S
C1035 C1041 1.483 . S
C1036 H1011 0.949 . S
C1036 C1035 1.376 . S
C1036 C1037 1.397 . S
C1037 H1012 0.950 . S
C1037 C1036 1.397 . S
C1037 C1038 1.391 . S
C1038 C1037 1.391 . S
C1038 C1039 1.405 . S
C1039 H1013 0.950 . S
C1039 C1038 1.405 . S
C1039 C1040 1.367 . S
C1040 H1014 0.950 . S
C1040 C1035 1.386 . S
C1040 C1039 1.367 . S
C1041 C1035 1.483 . S
C1041 C1042 1.382 . S
C1041 C1043 1.403 . S
C1042 H1015 0.950 . S
C1042 C1028 1.411 . S
C1042 C1041 1.382 . S
C1043 C1027 1.411 . S
C1043 C1041 1.403 . S
C1043 C1044 1.489 . S
C1044 C1043 1.489 . S
C1044 C1045 1.383 . S
C1044 C1049 1.382 . S
C1045 H1016 0.950 . S
C1045 C1044 1.383 . S
C1045 C1046 1.395 . S
C1046 H1017 0.950 . S
C1046 C1045 1.395 . S
C1046 C1047 1.288 . S
C1047 C1046 1.288 . S
C1047 C1048 1.392 . S
C1048 H1018 0.951 . S
C1048 C1047 1.392 . S
C1048 C1049 1.392 . S
C1049 H1019 0.949 . S
C1049 C1044 1.382 . S
C1049 C1048 1.392 . S
H1050 C1069 0.949 . S
H1051 C1070 0.950 . S
H1052 C1072 0.950 . S
H1053 C1073 0.950 . S
H1054 C1075 0.950 . S
H1055 C1078 0.950 . S
H1056 C1079 0.950 . S
H1057 C1081 0.951 . S
H1058 C1082 0.949 . S
H1059 C1084 0.949 . S
H1060 C1085 0.950 . S
H1061 C1087 0.950 . S
H1062 C1088 0.950 . S
H1063 C1090 0.950 . S
H1064 C1093 0.950 . S
H1065 C1094 0.950 . S
H1066 C1096 0.951 . S
H1067 C1097 0.949 . S
C1068 C1069 1.376 . S
C1068 C1073 1.386 . S
C1068 C1074 1.483 . S
C1069 H1050 0.949 . S
C1069 C1068 1.376 . S
C1069 C1070 1.397 . S
C1070 H1051 0.950 . S
C1070 C1069 1.397 . S
C1070 C1071 1.391 . S
C1071 C1070 1.391 . S
C1071 C1072 1.405 . S
C1072 H1052 0.950 . S
C1072 C1071 1.405 . S
C1072 C1073 1.367 . S
C1073 H1053 0.950 . S
C1073 C1068 1.386 . S
C1073 C1072 1.367 . S
C1074 C1068 1.483 . S
C1074 C1075 1.382 . S
C1074 C1076 1.403 . S
C1075 H1054 0.950 . S
C1075 C1074 1.382 . S
C1075 C1091 1.411 . S
C1076 C1074 1.403 . S
C1076 C1077 1.489 . S
C1076 C1090 1.411 . S
C1077 C1076 1.489 . S
C1077 C1078 1.383 . S
C1077 C1082 1.382 . S
C1078 H1055 0.950 . S
C1078 C1077 1.383 . S
C1078 C1079 1.395 . S
C1079 H1056 0.950 . S
C1079 C1078 1.395 . S
C1079 C1080 1.288 . S
C1080 C1079 1.288 . S
C1080 C1081 1.392 . S
C1081 H1057 0.951 . S
C1081 C1080 1.392 . S
C1081 C1082 1.392 . S
C1082 H1058 0.949 . S
C1082 C1077 1.382 . S
C1082 C1081 1.392 . S
C1083 C1084 1.376 . S
C1083 C1088 1.386 . S
C1083 C1089 1.483 . S
C1084 H1059 0.949 . S
C1084 C1083 1.376 . S
C1084 C1085 1.397 . S
C1085 H1060 0.950 . S
C1085 C1084 1.397 . S
C1085 C1086 1.391 . S
C1086 C1085 1.391 . S
C1086 C1087 1.405 . S
C1087 H1061 0.950 . S
C1087 C1086 1.405 . S
C1087 C1088 1.367 . S
C1088 H1062 0.950 . S
C1088 C1083 1.386 . S
C1088 C1087 1.367 . S
C1089 C1083 1.483 . S
C1089 C1090 1.382 . S
C1089 C1091 1.403 . S
C1090 H1063 0.950 . S
C1090 C1076 1.411 . S
C1090 C1089 1.382 . S
C1091 C1075 1.411 . S
C1091 C1089 1.403 . S
C1091 C1092 1.489 . S
C1092 C1091 1.489 . S
C1092 C1093 1.383 . S
C1092 C1097 1.382 . S
C1093 H1064 0.950 . S
C1093 C1092 1.383 . S
C1093 C1094 1.395 . S
C1094 H1065 0.950 . S
C1094 C1093 1.395 . S
C1094 C1095 1.288 . S
C1095 C1094 1.288 . S
C1095 C1096 1.392 . S
C1096 H1066 0.951 . S
C1096 C1095 1.392 . S
C1096 C1097 1.392 . S
C1097 H1067 0.949 . S
C1097 C1092 1.382 . S
C1097 C1096 1.392 . S
C1098 C1099 1.358 1_455 S
C1098 H1102 0.950 . S
C1098 C1107 1.390 . S
C1099 C1098 1.358 1_655 S
C1099 C1101 1.437 . S
H1100 C1107 0.950 . S
C1101 C1099 1.437 . S
C1101 C1103 1.390 . S
C1101 H1105 0.950 . S
H1102 C1098 0.950 . S
C1103 C1101 1.390 . S
C1103 C1104 1.387 . S
C1103 H1106 0.950 . S
C1104 C1103 1.387 . S
C1104 C1107 1.387 1_655 S
H1105 C1101 0.950 . S
H1106 C1103 0.950 . S
C1107 C1098 1.390 . S
C1107 H1100 0.950 . S
C1107 C1104 1.387 1_455 S
C1108 C1109 1.387 . S
C1108 H1112 0.950 . S
C1108 C1117 1.390 . S
C1109 C1108 1.387 . S
C1109 C1111 1.387 . S
H1110 C1117 0.950 . S
C1111 C1109 1.387 . S
C1111 C1113 1.390 . S
C1111 H1115 0.950 . S
H1112 C1108 0.950 . S
C1113 C1111 1.390 . S
C1113 C1114 1.387 . S
C1113 H1116 0.950 . S
C1114 C1113 1.387 . S
C1114 C1117 1.387 . S
H1115 C1111 0.950 . S
H1116 C1113 0.950 . S
C1117 C1108 1.390 . S
C1117 H1110 0.950 . S
C1117 C1114 1.387 . S
C1118 C1119 1.387 . S
C1118 H1122 0.950 . S
C1118 C1127 1.390 . S
C1119 C1118 1.387 . S
C1119 C1121 1.387 1_545 S
H1120 C1127 0.950 . S
C1121 C1119 1.387 1_565 S
C1121 C1123 1.390 . S
C1121 H1125 0.950 . S
H1122 C1118 0.950 . S
C1123 C1121 1.390 . S
C1123 C1124 1.387 1_565 S
C1123 H1126 0.950 . S
C1124 C1123 1.387 1_545 S
C1124 C1127 1.387 . S
H1125 C1121 0.950 . S
H1126 C1123 0.950 . S
C1127 C1118 1.390 . S
C1127 H1120 0.950 . S
C1127 C1124 1.387 . S
C1128 C1129 1.369 1_545 S
C1128 H1132 0.950 . S
C1128 C1137 1.390 . S
C1129 C1128 1.369 1_565 S
C1129 C1131 1.419 . S
H1130 C1137 0.950 . S
C1131 C1129 1.419 . S
C1131 C1133 1.390 . S
C1131 H1135 0.950 . S
H1132 C1128 0.950 . S
C1133 C1131 1.390 . S
C1133 C1134 1.387 . S
C1133 H1136 0.950 . S
C1134 C1133 1.387 . S
C1134 C1137 1.387 1_565 S
H1135 C1131 0.950 . S
H1136 C1133 0.950 . S
C1137 C1128 1.390 . S
C1137 H1130 0.950 . S
C1137 C1134 1.387 1_545 S
C1138 C1139 1.387 . S
C1138 H1142 0.950 . S
C1138 C1147 1.390 . S
C1139 C1138 1.387 . S
C1139 C1141 1.392 1_455 S
H1140 C1147 0.950 . S
C1141 C1139 1.392 1_655 S
C1141 C1143 1.410 1_655 S
C1141 H1145 0.933 . S
H1142 C1138 0.950 . S
C1143 C1141 1.410 1_455 S
C1143 C1144 1.381 . S
C1143 H1146 0.960 1_455 S
C1144 C1143 1.381 . S
C1144 C1147 1.387 . S
H1145 C1141 0.933 . S
H1146 C1143 0.960 1_655 S
C1147 C1138 1.390 . S
C1147 H1140 0.950 . S
C1147 C1144 1.387 . S
C1148 C1149 1.387 . S
C1148 H1152 0.950 . S
C1148 C1157 1.390 . S
C1149 C1148 1.387 . S
C1149 C1151 1.387 . S
H1150 C1157 0.950 . S
C1151 C1149 1.387 . S
C1151 C1153 1.390 . S
C1151 H1155 0.950 . S
H1152 C1148 0.950 . S
C1153 C1151 1.390 . S
C1153 C1154 1.387 . S
C1153 H1156 0.950 . S
C1154 C1153 1.387 . S
C1154 C1157 1.387 . S
H1155 C1151 0.950 . S
H1156 C1153 0.950 . S
C1157 C1148 1.390 . S
C1157 H1150 0.950 . S
C1157 C1154 1.387 . S
C1158 C1159 1.387 . S
C1158 H1162 0.950 . S
C1158 C1167 1.390 . S
C1159 C1158 1.387 . S
C1159 C1161 1.387 1_455 S
H1160 C1167 0.950 . S
C1161 C1159 1.387 1_655 S
C1161 C1163 1.390 . S
C1161 H1165 0.950 . S
H1162 C1158 0.950 . S
C1163 C1161 1.390 . S
C1163 C1164 1.387 1_655 S
C1163 H1166 0.950 . S
C1164 C1163 1.387 1_455 S
C1164 C1167 1.387 . S
H1165 C1161 0.950 . S
H1166 C1163 0.950 . S
C1167 C1158 1.390 . S
C1167 H1160 0.950 . S
C1167 C1164 1.387 . S
C1168 C1169 1.387 . S
C1168 H1172 0.950 . S
C1168 C1177 1.390 . S
C1169 C1168 1.387 . S
C1169 C1171 1.387 . S
H1170 C1177 0.950 . S
C1171 C1169 1.387 . S
C1171 C1173 1.390 . S
C1171 H1175 0.950 . S
H1172 C1168 0.950 . S
C1173 C1171 1.390 . S
C1173 C1174 1.387 . S
C1173 H1176 0.950 . S
C1174 C1173 1.387 . S
C1174 C1177 1.387 . S
H1175 C1171 0.950 . S
H1176 C1173 0.950 . S
C1177 C1168 1.390 . S
C1177 H1170 0.950 . S
C1177 C1174 1.387 . S
C1178 C1179 1.419 . S
C1178 H1182 0.950 . S
C1178 C1187 1.390 . S
C1179 C1178 1.419 . S
C1179 C1181 1.341 1_565 S
H1180 C1187 0.950 . S
C1181 C1179 1.341 1_545 S
C1181 C1183 1.390 . S
C1181 H1185 0.950 . S
H1182 C1178 0.950 . S
C1183 C1181 1.390 . S
C1183 C1184 1.387 1_545 S
C1183 H1186 0.950 . S
C1184 C1183 1.387 1_565 S
C1184 C1187 1.387 . S
H1185 C1181 0.950 . S
H1186 C1183 0.950 . S
C1187 C1178 1.390 . S
C1187 H1180 0.950 . S
C1187 C1184 1.387 . S
C1188 C1189 1.387 . S
C1188 H1192 0.950 . S
C1188 C1197 1.390 . S
C1189 C1188 1.387 . S
C1189 C1191 1.387 1_545 S
H1190 C1197 0.950 . S
C1191 C1189 1.387 1_565 S
C1191 C1193 1.390 . S
C1191 H1195 0.950 . S
H1192 C1188 0.950 . S
C1193 C1191 1.390 . S
C1193 C1194 1.387 1_565 S
C1193 H1196 0.950 . S
C1194 C1193 1.387 1_545 S
C1194 C1197 1.387 . S
H1195 C1191 0.950 . S
H1196 C1193 0.950 . S
C1197 C1188 1.390 . S
C1197 H1190 0.950 . S
C1197 C1194 1.387 . S
C1198 C1199 1.345 1_455 S
C1198 H1202 0.950 . S
C1198 C1207 1.390 . S
C1199 C1198 1.345 1_655 S
C1199 C1201 1.416 . S
H1200 C1207 0.950 . S
C1201 C1199 1.416 . S
C1201 C1203 1.390 . S
C1201 H1205 0.950 . S
H1202 C1198 0.950 . S
C1203 C1201 1.390 . S
C1203 C1204 1.387 . S
C1203 H1206 0.950 . S
C1204 C1203 1.387 . S
C1204 C1207 1.387 1_655 S
H1205 C1201 0.950 . S
H1206 C1203 0.950 . S
C1207 C1198 1.390 . S
C1207 H1200 0.950 . S
C1207 C1204 1.387 1_455 S
C1208 C1209 1.387 . S
C1208 H1212 0.950 . S
C1208 C1217 1.390 . S
C1209 C1208 1.387 . S
C1209 C1211 1.387 . S
H1210 C1217 0.950 . S
C1211 C1209 1.387 . S
C1211 C1213 1.390 . S
C1211 H1215 0.950 . S
H1212 C1208 0.950 . S
C1213 C1211 1.390 . S
C1213 C1214 1.387 . S
C1213 H1216 0.950 . S
C1214 C1213 1.387 . S
C1214 C1217 1.387 . S
H1215 C1211 0.950 . S
H1216 C1213 0.950 . S
C1217 C1208 1.390 . S
C1217 H1210 0.950 . S
C1217 C1214 1.387 . S
C1218 C1219 1.387 . S
C1218 H1222 0.950 . S
C1218 C1227 1.390 . S
C1219 C1218 1.387 . S
C1219 C1221 1.387 . S
H1220 C1227 0.950 . S
C1221 C1219 1.387 . S
C1221 C1223 1.390 . S
C1221 H1225 0.950 . S
H1222 C1218 0.950 . S
C1223 C1221 1.390 . S
C1223 C1224 1.387 . S
C1223 H1226 0.950 . S
C1224 C1223 1.387 . S
C1224 C1227 1.387 . S
H1225 C1221 0.950 . S
H1226 C1223 0.950 . S
C1227 C1218 1.390 . S
C1227 H1220 0.950 . S
C1227 C1224 1.387 . S
C1228 C1229 1.387 . S
C1228 H1232 0.950 . S
C1228 C1237 1.390 . S
C1229 C1228 1.387 . S
C1229 C1231 1.387 . S
H1230 C1237 0.950 . S
C1231 C1229 1.387 . S
C1231 C1233 1.390 . S
C1231 H1235 0.950 . S
H1232 C1228 0.950 . S
C1233 C1231 1.390 . S
C1233 C1234 1.387 . S
C1233 H1236 0.950 . S
C1234 C1233 1.387 . S
C1234 C1237 1.387 . S
H1235 C1231 0.950 . S
H1236 C1233 0.950 . S
C1237 C1228 1.390 . S
C1237 H1230 0.950 . S
C1237 C1234 1.387 . S
C1238 C1239 1.387 . S
C1238 H1242 0.950 . S
C1238 C1247 1.390 . S
C1239 C1238 1.387 . S
C1239 C1241 1.387 . S
H1240 C1247 0.950 . S
C1241 C1239 1.387 . S
C1241 C1243 1.390 . S
C1241 H1245 0.950 . S
H1242 C1238 0.950 . S
C1243 C1241 1.390 . S
C1243 C1244 1.387 . S
C1243 H1246 0.950 . S
C1244 C1243 1.387 . S
C1244 C1247 1.387 . S
H1245 C1241 0.950 . S
H1246 C1243 0.950 . S
C1247 C1238 1.390 . S
C1247 H1240 0.950 . S
C1247 C1244 1.387 . S
C1248 C1249 1.387 . S
C1248 H1252 0.950 . S
C1248 C1257 1.390 . S
C1249 C1248 1.387 . S
C1249 C1251 1.387 . S
H1250 C1257 0.950 . S
C1251 C1249 1.387 . S
C1251 C1253 1.390 . S
C1251 H1255 0.950 . S
H1252 C1248 0.950 . S
C1253 C1251 1.390 . S
C1253 C1254 1.387 . S
C1253 H1256 0.950 . S
C1254 C1253 1.387 . S
C1254 C1257 1.387 . S
H1255 C1251 0.950 . S
H1256 C1253 0.950 . S
C1257 C1248 1.390 . S
C1257 H1250 0.950 . S
C1257 C1254 1.387 . S
C1258 C1259 1.387 . S
C1258 H1262 0.950 . S
C1258 C1267 1.390 . S
C1259 C1258 1.387 . S
C1259 C1261 1.387 . S
H1260 C1267 0.950 . S
C1261 C1259 1.387 . S
C1261 C1263 1.390 . S
C1261 H1265 0.950 . S
H1262 C1258 0.950 . S
C1263 C1261 1.390 . S
C1263 C1264 1.387 . S
C1263 H1266 0.950 . S
C1264 C1263 1.387 . S
C1264 C1267 1.387 . S
H1265 C1261 0.950 . S
H1266 C1263 0.950 . S
C1267 C1258 1.390 . S
C1267 H1260 0.950 . S
C1267 C1264 1.387 . S
C1268 C1269 1.387 . S
C1268 H1272 0.950 . S
C1268 C1277 1.390 . S
C1269 C1268 1.387 . S
C1269 C1271 1.387 . S
H1270 C1277 0.950 . S
C1271 C1269 1.387 . S
C1271 C1273 1.390 . S
C1271 H1275 0.950 . S
H1272 C1268 0.950 . S
C1273 C1271 1.390 . S
C1273 C1274 1.387 . S
C1273 H1276 0.950 . S
C1274 C1273 1.387 . S
C1274 C1277 1.387 . S
H1275 C1271 0.950 . S
H1276 C1273 0.950 . S
C1277 C1268 1.390 . S
C1277 H1270 0.950 . S
C1277 C1274 1.387 . S
C1278 C1279 1.387 . S
C1278 H1282 0.950 . S
C1278 C1287 1.390 . S
C1279 C1278 1.387 . S
C1279 C1281 1.387 . S
H1280 C1287 0.950 . S
C1281 C1279 1.387 . S
C1281 C1283 1.390 . S
C1281 H1285 0.950 . S
H1282 C1278 0.950 . S
C1283 C1281 1.390 . S
C1283 C1284 1.387 . S
C1283 H1286 0.950 . S
C1284 C1283 1.387 . S
C1284 C1287 1.387 . S
H1285 C1281 0.950 . S
H1286 C1283 0.950 . S
C1287 C1278 1.390 . S
C1287 H1280 0.950 . S
C1287 C1284 1.387 . S
C1288 C1289 1.387 . S
C1288 H1292 0.950 . S
C1288 C1297 1.390 . S
C1289 C1288 1.387 . S
C1289 C1291 1.387 . S
H1290 C1297 0.950 . S
C1291 C1289 1.387 . S
C1291 C1293 1.390 . S
C1291 H1295 0.950 . S
H1292 C1288 0.950 . S
C1293 C1291 1.390 . S
C1293 C1294 1.387 . S
C1293 H1296 0.950 . S
C1294 C1293 1.387 . S
C1294 C1297 1.387 . S
H1295 C1291 0.950 . S
H1296 C1293 0.950 . S
C1297 C1288 1.390 . S
C1297 H1290 0.950 . S
C1297 C1294 1.387 . S
C1298 C1299 1.387 . S
C1298 H1302 0.950 . S
C1298 C1307 1.390 . S
C1299 C1298 1.387 . S
C1299 C1301 1.387 . S
H1300 C1307 0.950 . S
C1301 C1299 1.387 . S
C1301 C1303 1.390 . S
C1301 H1305 0.950 . S
H1302 C1298 0.950 . S
C1303 C1301 1.390 . S
C1303 C1304 1.387 . S
C1303 H1306 0.950 . S
C1304 C1303 1.387 . S
C1304 C1307 1.387 . S
H1305 C1301 0.950 . S
H1306 C1303 0.950 . S
C1307 C1298 1.390 . S
C1307 H1300 0.950 . S
C1307 C1304 1.387 . S
C1308 C1309 1.387 . S
C1308 H1312 0.950 . S
C1308 C1317 1.390 . S
C1309 C1308 1.387 . S
C1309 C1311 1.387 . S
H1310 C1317 0.950 . S
C1311 C1309 1.387 . S
C1311 C1313 1.390 . S
C1311 H1315 0.950 . S
H1312 C1308 0.950 . S
C1313 C1311 1.390 . S
C1313 C1314 1.387 . S
C1313 H1316 0.950 . S
C1314 C1313 1.387 . S
C1314 C1317 1.387 . S
H1315 C1311 0.950 . S
H1316 C1313 0.950 . S
C1317 C1308 1.390 . S
C1317 H1310 0.950 . S
C1317 C1314 1.387 . S
C1318 C1319 1.387 . S
C1318 H1322 0.950 . S
C1318 C1327 1.390 . S
C1319 C1318 1.387 . S
C1319 C1321 1.387 . S
H1320 C1327 0.950 . S
C1321 C1319 1.387 . S
C1321 C1323 1.390 . S
C1321 H1325 0.950 . S
H1322 C1318 0.950 . S
C1323 C1321 1.390 . S
C1323 C1324 1.387 . S
C1323 H1326 0.950 . S
C1324 C1323 1.387 . S
C1324 C1327 1.387 . S
H1325 C1321 0.950 . S
H1326 C1323 0.950 . S
C1327 C1318 1.390 . S
C1327 H1320 0.950 . S
C1327 C1324 1.387 . S
C1328 C1329 1.387 . S
C1328 H1332 0.950 . S
C1328 C1337 1.390 . S
C1329 C1328 1.387 . S
C1329 C1331 1.387 . S
H1330 C1337 0.950 . S
C1331 C1329 1.387 . S
C1331 C1333 1.390 . S
C1331 H1335 0.950 . S
H1332 C1328 0.950 . S
C1333 C1331 1.390 . S
C1333 C1334 1.387 . S
C1333 H1336 0.950 . S
C1334 C1333 1.387 . S
C1334 C1337 1.387 . S
H1335 C1331 0.950 . S
H1336 C1333 0.950 . S
C1337 C1328 1.390 . S
C1337 H1330 0.950 . S
C1337 C1334 1.387 . S
C1338 C1339 1.387 . S
C1338 H1342 0.950 . S
C1338 C1347 1.390 . S
C1339 C1338 1.387 . S
C1339 C1341 1.387 . S
H1340 C1347 0.950 . S
C1341 C1339 1.387 . S
C1341 C1343 1.390 . S
C1341 H1345 0.950 . S
H1342 C1338 0.950 . S
C1343 C1341 1.390 . S
C1343 C1344 1.387 . S
C1343 H1346 0.950 . S
C1344 C1343 1.387 . S
C1344 C1347 1.387 . S
H1345 C1341 0.950 . S
H1346 C1343 0.950 . S
C1347 C1338 1.390 . S
C1347 H1340 0.950 . S
C1347 C1344 1.387 . S
C1348 C1349 1.387 . S
C1348 H1352 0.950 . S
C1348 C1357 1.390 . S
C1349 C1348 1.387 . S
C1349 C1351 1.387 . S
H1350 C1357 0.950 . S
C1351 C1349 1.387 . S
C1351 C1353 1.390 . S
C1351 H1355 0.950 . S
H1352 C1348 0.950 . S
C1353 C1351 1.390 . S
C1353 C1354 1.387 . S
C1353 H1356 0.950 . S
C1354 C1353 1.387 . S
C1354 C1357 1.387 . S
H1355 C1351 0.950 . S
H1356 C1353 0.950 . S
C1357 C1348 1.390 . S
C1357 H1350 0.950 . S
C1357 C1354 1.387 . S
C1358 C1359 1.387 . S
C1358 H1362 0.950 . S
C1358 C1367 1.390 . S
C1359 C1358 1.387 . S
C1359 C1361 1.387 . S
H1360 C1367 0.950 . S
C1361 C1359 1.387 . S
C1361 C1363 1.390 . S
C1361 H1365 0.950 . S
H1362 C1358 0.950 . S
C1363 C1361 1.390 . S
C1363 C1364 1.387 . S
C1363 H1366 0.950 . S
C1364 C1363 1.387 . S
C1364 C1367 1.387 . S
H1365 C1361 0.950 . S
H1366 C1363 0.950 . S
C1367 C1358 1.390 . S
C1367 H1360 0.950 . S
C1367 C1364 1.387 . S
C1368 C1369 1.387 . S
C1368 H1372 0.950 . S
C1368 C1377 1.390 . S
C1369 C1368 1.387 . S
C1369 C1371 1.387 . S
H1370 C1377 0.950 . S
C1371 C1369 1.387 . S
C1371 C1373 1.390 . S
C1371 H1375 0.950 . S
H1372 C1368 0.950 . S
C1373 C1371 1.390 . S
C1373 C1374 1.387 . S
C1373 H1376 0.950 . S
C1374 C1373 1.387 . S
C1374 C1377 1.387 . S
H1375 C1371 0.950 . S
H1376 C1373 0.950 . S
C1377 C1368 1.390 . S
C1377 H1370 0.950 . S
C1377 C1374 1.387 . S
C1378 C1379 1.387 . S
C1378 H1382 0.950 . S
C1378 C1387 1.390 . S
C1379 C1378 1.387 . S
C1379 C1381 1.387 . S
H1380 C1387 0.950 . S
C1381 C1379 1.387 . S
C1381 C1383 1.390 . S
C1381 H1385 0.950 . S
H1382 C1378 0.950 . S
C1383 C1381 1.390 . S
C1383 C1384 1.387 . S
C1383 H1386 0.950 . S
C1384 C1383 1.387 . S
C1384 C1387 1.387 . S
H1385 C1381 0.950 . S
H1386 C1383 0.950 . S
C1387 C1378 1.390 . S
C1387 H1380 0.950 . S
C1387 C1384 1.387 . S
C1388 C1389 1.387 . S
C1388 H1392 0.950 . S
C1388 C1397 1.390 . S
C1389 C1388 1.387 . S
C1389 C1391 1.387 . S
H1390 C1397 0.950 . S
C1391 C1389 1.387 . S
C1391 C1393 1.390 . S
C1391 H1395 0.950 . S
H1392 C1388 0.950 . S
C1393 C1391 1.390 . S
C1393 C1394 1.387 . S
C1393 H1396 0.950 . S
C1394 C1393 1.387 . S
C1394 C1397 1.387 . S
H1395 C1391 0.950 . S
H1396 C1393 0.950 . S
C1397 C1388 1.390 . S
C1397 H1390 0.950 . S
C1397 C1394 1.387 . S
C1398 C1399 1.387 . S
C1398 H1402 0.950 . S
C1398 C1407 1.390 . S
C1399 C1398 1.387 . S
C1399 C1401 1.387 . S
H1400 C1407 0.950 . S
C1401 C1399 1.387 . S
C1401 C1403 1.390 . S
C1401 H1405 0.950 . S
H1402 C1398 0.950 . S
C1403 C1401 1.390 . S
C1403 C1404 1.387 . S
C1403 H1406 0.950 . S
C1404 C1403 1.387 . S
C1404 C1407 1.387 . S
H1405 C1401 0.950 . S
H1406 C1403 0.950 . S
C1407 C1398 1.390 . S
C1407 H1400 0.950 . S
C1407 C1404 1.387 . S
C1408 C1409 1.387 . S
C1408 H1412 0.950 . S
C1408 C1417 1.390 . S
C1409 C1408 1.387 . S
C1409 C1411 1.387 . S
H1410 C1417 0.950 . S
C1411 C1409 1.387 . S
C1411 C1413 1.390 . S
C1411 H1415 0.950 . S
H1412 C1408 0.950 . S
C1413 C1411 1.390 . S
C1413 C1414 1.387 . S
C1413 H1416 0.950 . S
C1414 C1413 1.387 . S
C1414 C1417 1.387 . S
H1415 C1411 0.950 . S
H1416 C1413 0.950 . S
C1417 C1408 1.390 . S
C1417 H1410 0.950 . S
C1417 C1414 1.387 . S
C1418 C1419 1.387 . S
C1418 H1422 0.950 . S
C1418 C1427 1.390 . S
C1419 C1418 1.387 . S
C1419 C1421 1.387 . S
H1420 C1427 0.950 . S
C1421 C1419 1.387 . S
C1421 C1423 1.390 . S
C1421 H1425 0.950 . S
H1422 C1418 0.950 . S
C1423 C1421 1.390 . S
C1423 C1424 1.387 . S
C1423 H1426 0.950 . S
C1424 C1423 1.387 . S
C1424 C1427 1.387 . S
H1425 C1421 0.950 . S
H1426 C1423 0.950 . S
C1427 C1418 1.390 . S
C1427 H1420 0.950 . S
C1427 C1424 1.387 . S
C1428 C1429 1.387 . S
C1428 H1432 0.950 . S
C1428 C1437 1.390 . S
C1429 C1428 1.387 . S
C1429 C1431 1.387 . S
H1430 C1437 0.950 . S
C1431 C1429 1.387 . S
C1431 C1433 1.390 . S
C1431 H1435 0.950 . S
H1432 C1428 0.950 . S
C1433 C1431 1.390 . S
C1433 C1434 1.387 . S
C1433 H1436 0.950 . S
C1434 C1433 1.387 . S
C1434 C1437 1.387 . S
H1435 C1431 0.950 . S
H1436 C1433 0.950 . S
C1437 C1428 1.390 . S
C1437 H1430 0.950 . S
C1437 C1434 1.387 . S
C1438 C1439 1.387 . S
C1438 H1442 0.950 . S
C1438 C1447 1.390 . S
C1439 C1438 1.387 . S
C1439 C1441 1.387 . S
H1440 C1447 0.950 . S
C1441 C1439 1.387 . S
C1441 C1443 1.390 . S
C1441 H1445 0.950 . S
H1442 C1438 0.950 . S
C1443 C1441 1.390 . S
C1443 C1444 1.387 . S
C1443 H1446 0.950 . S
C1444 C1443 1.387 . S
C1444 C1447 1.387 . S
H1445 C1441 0.950 . S
H1446 C1443 0.950 . S
C1447 C1438 1.390 . S
C1447 H1440 0.950 . S
C1447 C1444 1.387 . S
C1448 C1449 1.387 . S
C1448 H1452 0.950 . S
C1448 C1457 1.390 . S
C1449 C1448 1.387 . S
C1449 C1451 1.387 . S
H1450 C1457 0.950 . S
C1451 C1449 1.387 . S
C1451 C1453 1.390 . S
C1451 H1455 0.950 . S
H1452 C1448 0.950 . S
C1453 C1451 1.390 . S
C1453 C1454 1.387 . S
C1453 H1456 0.950 . S
C1454 C1453 1.387 . S
C1454 C1457 1.387 . S
H1455 C1451 0.950 . S
H1456 C1453 0.950 . S
C1457 C1448 1.390 . S
C1457 H1450 0.950 . S
C1457 C1454 1.387 . S
C1458 C1459 1.387 . S
C1458 H1462 0.950 . S
C1458 C1467 1.390 . S
C1459 C1458 1.387 . S
C1459 C1461 1.387 . S
H1460 C1467 0.950 . S
C1461 C1459 1.387 . S
C1461 C1463 1.390 . S
C1461 H1465 0.950 . S
H1462 C1458 0.950 . S
C1463 C1461 1.390 . S
C1463 C1464 1.387 . S
C1463 H1466 0.950 . S
C1464 C1463 1.387 . S
C1464 C1467 1.387 . S
H1465 C1461 0.950 . S
H1466 C1463 0.950 . S
C1467 C1458 1.390 . S
C1467 H1460 0.950 . S
C1467 C1464 1.387 . S
C1468 C1469 1.387 . S
C1468 H1472 0.950 . S
C1468 C1477 1.390 . S
C1469 C1468 1.387 . S
C1469 C1471 1.387 . S
H1470 C1477 0.950 . S
C1471 C1469 1.387 . S
C1471 C1473 1.390 . S
C1471 H1475 0.950 . S
H1472 C1468 0.950 . S
C1473 C1471 1.390 . S
C1473 C1474 1.387 . S
C1473 H1476 0.950 . S
C1474 C1473 1.387 . S
C1474 C1477 1.387 . S
H1475 C1471 0.950 . S
H1476 C1473 0.950 . S
C1477 C1468 1.390 . S
C1477 H1470 0.950 . S
C1477 C1474 1.387 . S
C1478 C1479 1.387 . S
C1478 H1482 0.950 . S
C1478 C1487 1.390 . S
C1479 C1478 1.387 . S
C1479 C1481 1.387 . S
H1480 C1487 0.950 . S
C1481 C1479 1.387 . S
C1481 C1483 1.390 . S
C1481 H1485 0.950 . S
H1482 C1478 0.950 . S
C1483 C1481 1.390 . S
C1483 C1484 1.387 . S
C1483 H1486 0.950 . S
C1484 C1483 1.387 . S
C1484 C1487 1.387 . S
H1485 C1481 0.950 . S
H1486 C1483 0.950 . S
C1487 C1478 1.390 . S
C1487 H1480 0.950 . S
C1487 C1484 1.387 . S
C1488 C1489 1.387 . S
C1488 H1492 0.950 . S
C1488 C1497 1.390 . S
C1489 C1488 1.387 . S
C1489 C1491 1.387 . S
H1490 C1497 0.950 . S
C1491 C1489 1.387 . S
C1491 C1493 1.390 . S
C1491 H1495 0.950 1_556 S
H1492 C1488 0.950 . S
C1493 C1491 1.390 . S
C1493 C1494 1.387 . S
C1493 H1496 0.950 . S
C1494 C1493 1.387 . S
C1494 C1497 1.387 . S
H1495 C1491 0.950 1_554 S
H1496 C1493 0.950 . S
C1497 C1488 1.390 . S
C1497 H1490 0.950 . S
C1497 C1494 1.387 . S
C1498 C1499 1.387 . S
C1498 H1502 0.950 1_556 S
C1498 C1507 1.390 . S
C1499 C1498 1.387 . S
C1499 C1501 1.387 . S
H1500 C1507 0.950 . S
C1501 C1499 1.387 . S
C1501 C1503 1.390 . S
C1501 H1505 0.950 . S
H1502 C1498 0.950 1_554 S
C1503 C1501 1.390 . S
C1503 C1504 1.387 . S
C1503 H1506 0.950 . S
C1504 C1503 1.387 . S
C1504 C1507 1.387 . S
H1505 C1501 0.950 . S
H1506 C1503 0.950 . S
C1507 C1498 1.390 . S
C1507 H1500 0.950 . S
C1507 C1504 1.387 . S
C1508 C1509 1.387 . S
C1508 H1512 0.950 . S
C1508 C1517 1.390 . S
C1509 C1508 1.387 . S
C1509 C1511 1.387 . S
H1510 C1517 0.950 . S
C1511 C1509 1.387 . S
C1511 C1513 1.390 . S
C1511 H1515 0.950 . S
H1512 C1508 0.950 . S
C1513 C1511 1.390 . S
C1513 C1514 1.387 . S
C1513 H1516 0.950 . S
C1514 C1513 1.387 . S
C1514 C1517 1.387 . S
H1515 C1511 0.950 . S
H1516 C1513 0.950 . S
C1517 C1508 1.390 . S
C1517 H1510 0.950 . S
C1517 C1514 1.387 . S
C1518 C1519 1.387 . S
C1518 H1522 0.950 . S
C1518 C1527 1.390 . S
C1519 C1518 1.387 . S
C1519 C1521 1.387 . S
H1520 C1527 0.950 . S
C1521 C1519 1.387 . S
C1521 C1523 1.390 . S
C1521 H1525 0.950 . S
H1522 C1518 0.950 . S
C1523 C1521 1.390 . S
C1523 C1524 1.387 . S
C1523 H1526 0.950 . S
C1524 C1523 1.387 . S
C1524 C1527 1.387 . S
H1525 C1521 0.950 . S
H1526 C1523 0.950 . S
C1527 C1518 1.390 . S
C1527 H1520 0.950 . S
C1527 C1524 1.387 . S
C1528 C1529 1.387 . S
C1528 H1532 0.950 . S
C1528 C1537 1.390 . S
C1529 C1528 1.387 . S
C1529 C1531 1.387 . S
H1530 C1537 0.950 . S
C1531 C1529 1.387 . S
C1531 C1533 1.390 . S
C1531 H1535 0.950 . S
H1532 C1528 0.950 . S
C1533 C1531 1.390 . S
C1533 C1534 1.387 . S
C1533 H1536 0.950 . S
C1534 C1533 1.387 . S
C1534 C1537 1.387 . S
H1535 C1531 0.950 . S
H1536 C1533 0.950 . S
C1537 C1528 1.390 . S
C1537 H1530 0.950 . S
C1537 C1534 1.387 . S
C1538 C1539 1.387 . S
C1538 H1542 0.950 . S
C1538 C1547 1.390 . S
C1539 C1538 1.387 . S
C1539 C1541 1.387 . S
H1540 C1547 0.950 . S
C1541 C1539 1.387 . S
C1541 C1543 1.390 . S
C1541 H1545 0.950 1_556 S
H1542 C1538 0.950 . S
C1543 C1541 1.390 . S
C1543 C1544 1.387 . S
C1543 H1546 0.950 . S
C1544 C1543 1.387 . S
C1544 C1547 1.387 . S
H1545 C1541 0.950 1_554 S
H1546 C1543 0.950 . S
C1547 C1538 1.390 . S
C1547 H1540 0.950 . S
C1547 C1544 1.387 . S
C1548 C1549 1.387 . S
C1548 H1552 0.950 . S
C1548 C1557 1.390 . S
C1549 C1548 1.387 . S
C1549 C1551 1.387 . S
H1550 C1557 0.950 . S
C1551 C1549 1.387 . S
C1551 C1553 1.390 . S
C1551 H1555 0.950 . S
H1552 C1548 0.950 . S
C1553 C1551 1.390 . S
C1553 C1554 1.387 . S
C1553 H1556 0.950 . S
C1554 C1553 1.387 . S
C1554 C1557 1.387 . S
H1555 C1551 0.950 . S
H1556 C1553 0.950 . S
C1557 C1548 1.390 . S
C1557 H1550 0.950 . S
C1557 C1554 1.387 . S
C1558 C1559 1.387 . S
C1558 H1562 0.950 . S
C1558 C1567 1.390 . S
C1559 C1558 1.387 . S
C1559 C1561 1.387 . S
H1560 C1567 0.950 . S
C1561 C1559 1.387 . S
C1561 C1563 1.390 . S
C1561 H1565 0.950 . S
H1562 C1558 0.950 . S
C1563 C1561 1.390 . S
C1563 C1564 1.387 . S
C1563 H1566 0.950 . S
C1564 C1563 1.387 . S
C1564 C1567 1.387 . S
H1565 C1561 0.950 . S
H1566 C1563 0.950 . S
C1567 C1558 1.390 . S
C1567 H1560 0.950 . S
C1567 C1564 1.387 . S
C1568 C1569 1.387 . S
C1568 H1572 0.950 . S
C1568 C1577 1.390 . S
C1569 C1568 1.387 . S
C1569 C1571 1.387 . S
H1570 C1577 0.950 . S
C1571 C1569 1.387 . S
C1571 C1573 1.390 . S
C1571 H1575 0.950 . S
H1572 C1568 0.950 . S
C1573 C1571 1.390 . S
C1573 C1574 1.387 . S
C1573 H1576 0.950 . S
C1574 C1573 1.387 . S
C1574 C1577 1.387 . S
H1575 C1571 0.950 . S
H1576 C1573 0.950 . S
C1577 C1568 1.390 . S
C1577 H1570 0.950 . S
C1577 C1574 1.387 . S
C1578 C1579 1.387 . S
C1578 H1582 0.950 . S
C1578 C1587 1.390 . S
C1579 C1578 1.387 . S
C1579 C1581 1.387 . S
H1580 C1587 0.950 . S
C1581 C1579 1.387 . S
C1581 C1583 1.390 . S
C1581 H1585 0.950 . S
H1582 C1578 0.950 . S
C1583 C1581 1.390 . S
C1583 C1584 1.387 . S
C1583 H1586 0.950 . S
C1584 C1583 1.387 . S
C1584 C1587 1.387 . S
H1585 C1581 0.950 . S
H1586 C1583 0.950 . S
C1587 C1578 1.390 . S
C1587 H1580 0.950 . S
C1587 C1584 1.387 . S
C1588 C1589 1.387 . S
C1588 H1592 0.950 . S
C1588 C1597 1.390 . S
C1589 C1588 1.387 . S
C1589 C1591 1.387 . S
H1590 C1597 0.950 . S
C1591 C1589 1.387 . S
C1591 C1593 1.390 . S
C1591 H1595 0.950 . S
H1592 C1588 0.950 . S
C1593 C1591 1.390 . S
C1593 C1594 1.387 . S
C1593 H1596 0.950 . S
C1594 C1593 1.387 . S
C1594 C1597 1.387 . S
H1595 C1591 0.950 . S
H1596 C1593 0.950 . S
C1597 C1588 1.390 . S
C1597 H1590 0.950 . S
C1597 C1594 1.387 . S
C1598 C1599 1.387 . S
C1598 H1602 0.950 . S
C1598 C1607 1.390 . S
C1599 C1598 1.387 . S
C1599 C1601 1.387 . S
H1600 C1607 0.950 . S
C1601 C1599 1.387 . S
C1601 C1603 1.390 . S
C1601 H1605 0.950 . S
H1602 C1598 0.950 . S
C1603 C1601 1.390 . S
C1603 C1604 1.387 . S
C1603 H1606 0.950 . S
C1604 C1603 1.387 . S
C1604 C1607 1.387 . S
H1605 C1601 0.950 . S
H1606 C1603 0.950 . S
C1607 C1598 1.390 . S
C1607 H1600 0.950 . S
C1607 C1604 1.387 . S
C1608 C1609 1.387 . S
C1608 H1612 0.950 . S
C1608 C1617 1.390 . S
C1609 C1608 1.387 . S
C1609 C1611 1.387 . S
H1610 C1617 0.950 . S
C1611 C1609 1.387 . S
C1611 C1613 1.390 . S
C1611 H1615 0.950 . S
H1612 C1608 0.950 . S
C1613 C1611 1.390 . S
C1613 C1614 1.387 . S
C1613 H1616 0.950 . S
C1614 C1613 1.387 . S
C1614 C1617 1.387 . S
H1615 C1611 0.950 . S
H1616 C1613 0.950 . S
C1617 C1608 1.390 . S
C1617 H1610 0.950 . S
C1617 C1614 1.387 . S
C1618 C1619 1.387 . S
C1618 H1622 0.950 . S
C1618 C1627 1.390 . S
C1619 C1618 1.387 . S
C1619 C1621 1.387 . S
H1620 C1627 0.950 . S
C1621 C1619 1.387 . S
C1621 C1623 1.390 . S
C1621 H1625 0.950 . S
H1622 C1618 0.950 . S
C1623 C1621 1.390 . S
C1623 C1624 1.387 . S
C1623 H1626 0.950 . S
C1624 C1623 1.387 . S
C1624 C1627 1.387 . S
H1625 C1621 0.950 . S
H1626 C1623 0.950 . S
C1627 C1618 1.390 . S
C1627 H1620 0.950 . S
C1627 C1624 1.387 . S
C1628 C1629 1.387 . S
C1628 H1632 0.950 . S
C1628 C1637 1.390 . S
C1629 C1628 1.387 . S
C1629 C1631 1.387 1_565 S
H1630 C1637 0.950 . S
C1631 C1629 1.387 1_545 S
C1631 C1633 1.390 . S
C1631 H1635 0.950 . S
H1632 C1628 0.950 . S
C1633 C1631 1.390 . S
C1633 C1634 1.387 1_545 S
C1633 H1636 0.950 . S
C1634 C1633 1.387 1_565 S
C1634 C1637 1.387 . S
H1635 C1631 0.950 . S
H1636 C1633 0.950 . S
C1637 C1628 1.390 . S
C1637 H1630 0.950 . S
C1637 C1634 1.387 . S
C1638 C1639 1.387 1_545 S
C1638 H1642 0.950 . S
C1638 C1647 1.390 . S
C1639 C1638 1.387 1_565 S
C1639 C1641 1.387 . S
H1640 C1647 0.950 . S
C1641 C1639 1.387 . S
C1641 C1643 1.390 . S
C1641 H1645 0.950 . S
H1642 C1638 0.950 . S
C1643 C1641 1.390 . S
C1643 C1644 1.387 . S
C1643 H1646 0.950 . S
C1644 C1643 1.387 . S
C1644 C1647 1.387 1_565 S
H1645 C1641 0.950 . S
H1646 C1643 0.950 . S
C1647 C1638 1.390 . S
C1647 H1640 0.950 . S
C1647 C1644 1.387 1_545 S
C1648 C1649 1.387 . S
C1648 H1652 0.950 . S
C1648 C1657 1.390 . S
C1649 C1648 1.387 . S
C1649 C1651 1.387 . S
H1650 C1657 0.950 . S
C1651 C1649 1.387 . S
C1651 C1653 1.377 . S
C1651 H1655 0.939 1_455 S
H1652 C1648 0.950 . S
C1653 C1651 1.377 . S
C1653 C1654 1.395 . S
C1653 H1656 0.957 1_455 S
C1654 C1653 1.395 . S
C1654 C1657 1.387 . S
H1655 C1651 0.939 1_655 S
H1656 C1653 0.957 1_655 S
C1657 C1648 1.390 . S
C1657 H1650 0.950 . S
C1657 C1654 1.387 . S
C1658 C1659 1.387 . S
C1658 H1662 0.950 . S
C1658 C1667 1.390 . S
C1659 C1658 1.387 . S
C1659 C1661 1.387 . S
H1660 C1667 0.950 . S
C1661 C1659 1.387 . S
C1661 C1663 1.390 . S
C1661 H1665 0.950 . S
H1662 C1658 0.950 . S
C1663 C1661 1.390 . S
C1663 C1664 1.387 . S
C1663 H1666 0.950 . S
C1664 C1663 1.387 . S
C1664 C1667 1.387 . S
H1665 C1661 0.950 . S
H1666 C1663 0.950 . S
C1667 C1658 1.390 . S
C1667 H1660 0.950 . S
C1667 C1664 1.387 . S
C1668 C1669 1.387 . S
C1668 H1672 0.950 . S
C1668 C1677 1.390 . S
C1669 C1668 1.387 . S
C1669 C1671 1.387 . S
H1670 C1677 0.950 . S
C1671 C1669 1.387 . S
C1671 C1673 1.390 . S
C1671 H1675 0.950 . S
H1672 C1668 0.950 . S
C1673 C1671 1.390 . S
C1673 C1674 1.387 . S
C1673 H1676 0.950 . S
C1674 C1673 1.387 . S
C1674 C1677 1.387 . S
H1675 C1671 0.950 . S
H1676 C1673 0.950 . S
C1677 C1668 1.390 . S
C1677 H1670 0.950 . S
C1677 C1674 1.387 . S
C1678 C1679 1.387 . S
C1678 H1682 0.950 . S
C1678 C1687 1.390 . S
C1679 C1678 1.387 . S
C1679 C1681 1.387 . S
H1680 C1687 0.950 . S
C1681 C1679 1.387 . S
C1681 C1683 1.390 . S
C1681 H1685 0.950 . S
H1682 C1678 0.950 . S
C1683 C1681 1.390 . S
C1683 C1684 1.387 . S
C1683 H1686 0.950 . S
C1684 C1683 1.387 . S
C1684 C1687 1.387 . S
H1685 C1681 0.950 . S
H1686 C1683 0.950 . S
C1687 C1678 1.390 . S
C1687 H1680 0.950 . S
C1687 C1684 1.387 . S
C1688 C1689 1.387 . S
C1688 H1692 0.950 . S
C1688 C1697 1.390 . S
C1689 C1688 1.387 . S
C1689 C1691 1.387 . S
H1690 C1697 0.950 . S
C1691 C1689 1.387 . S
C1691 C1693 1.390 . S
C1691 H1695 0.950 . S
H1692 C1688 0.950 . S
C1693 C1691 1.390 . S
C1693 C1694 1.387 . S
C1693 H1696 0.950 . S
C1694 C1693 1.387 . S
C1694 C1697 1.387 . S
H1695 C1691 0.950 . S
H1696 C1693 0.950 . S
C1697 C1688 1.390 . S
C1697 H1690 0.950 . S
C1697 C1694 1.387 . S
C1698 C1699 1.387 . S
C1698 H1702 0.950 . S
C1698 C1707 1.390 . S
C1699 C1698 1.387 . S
C1699 C1701 1.387 1_545 S
H1700 C1707 0.950 . S
C1701 C1699 1.387 1_565 S
C1701 C1703 1.390 . S
C1701 H1705 0.950 . S
H1702 C1698 0.950 . S
C1703 C1701 1.390 . S
C1703 C1704 1.387 1_565 S
C1703 H1706 0.950 . S
C1704 C1703 1.387 1_545 S
C1704 C1707 1.387 . S
H1705 C1701 0.950 . S
H1706 C1703 0.950 . S
C1707 C1698 1.390 . S
C1707 H1700 0.950 . S
C1707 C1704 1.387 . S
C1708 C1709 1.387 . S
C1708 H1712 0.950 . S
C1708 C1717 1.390 . S
C1709 C1708 1.387 . S
C1709 C1711 1.387 . S
H1710 C1717 0.952 . S
C1711 C1709 1.387 . S
C1711 C1713 1.390 . S
C1711 H1715 0.950 . S
H1712 C1708 0.950 . S
C1713 C1711 1.390 . S
C1713 C1714 1.387 . S
C1713 H1716 0.950 . S
C1714 C1713 1.387 . S
C1714 C1717 1.387 . S
H1715 C1711 0.950 . S
H1716 C1713 0.950 . S
C1717 C1708 1.390 . S
C1717 H1710 0.952 . S
C1717 C1714 1.387 . S
C1718 C1719 1.387 . S
C1718 H1722 0.950 . S
C1718 C1727 1.390 . S
C1719 C1718 1.387 . S
C1719 C1721 1.387 . S
H1720 C1727 0.950 . S
C1721 C1719 1.387 . S
C1721 C1723 1.390 . S
C1721 H1725 0.950 . S
H1722 C1718 0.950 . S
C1723 C1721 1.390 . S
C1723 C1724 1.387 . S
C1723 H1726 0.950 . S
C1724 C1723 1.387 . S
C1724 C1727 1.387 . S
H1725 C1721 0.950 . S
H1726 C1723 0.950 . S
C1727 C1718 1.390 . S
C1727 H1720 0.950 . S
C1727 C1724 1.387 . S
C1728 C1729 1.387 . S
C1728 H1732 0.950 . S
C1728 C1737 1.390 . S
C1729 C1728 1.387 . S
C1729 C1731 1.387 . S
H1730 C1737 0.950 . S
C1731 C1729 1.387 . S
C1731 C1733 1.390 . S
C1731 H1735 0.950 . S
H1732 C1728 0.950 . S
C1733 C1731 1.390 . S
C1733 C1734 1.387 . S
C1733 H1736 0.950 . S
C1734 C1733 1.387 . S
C1734 C1737 1.387 . S
H1735 C1731 0.950 . S
H1736 C1733 0.950 . S
C1737 C1728 1.390 . S
C1737 H1730 0.950 . S
C1737 C1734 1.387 . S
C1738 C1739 1.387 . S
C1738 H1742 0.950 . S
C1738 C1747 1.390 . S
C1739 C1738 1.387 . S
C1739 C1741 1.387 . S
H1740 C1747 0.950 . S
C1741 C1739 1.387 . S
C1741 C1743 1.390 . S
C1741 H1745 0.950 . S
H1742 C1738 0.950 . S
C1743 C1741 1.390 . S
C1743 C1744 1.387 . S
C1743 H1746 0.950 . S
C1744 C1743 1.387 . S
C1744 C1747 1.387 . S
H1745 C1741 0.950 . S
H1746 C1743 0.950 . S
C1747 C1738 1.390 . S
C1747 H1740 0.950 . S
C1747 C1744 1.387 . S
C1748 C1749 1.387 . S
C1748 H1752 0.950 . S
C1748 C1757 1.390 . S
C1749 C1748 1.387 . S
C1749 C1751 1.387 . S
H1750 C1757 0.950 . S
C1751 C1749 1.387 . S
C1751 C1753 1.390 . S
C1751 H1755 0.950 . S
H1752 C1748 0.950 . S
C1753 C1751 1.390 . S
C1753 C1754 1.387 . S
C1753 H1756 0.950 . S
C1754 C1753 1.387 . S
C1754 C1757 1.387 . S
H1755 C1751 0.950 . S
H1756 C1753 0.950 . S
C1757 C1748 1.390 . S
C1757 H1750 0.950 . S
C1757 C1754 1.387 . S
C1758 C1759 1.387 . S
C1758 H1762 0.950 . S
C1758 C1767 1.390 . S
C1759 C1758 1.387 . S
C1759 C1761 1.387 . S
H1760 C1767 0.950 . S
C1761 C1759 1.387 . S
C1761 C1763 1.390 . S
C1761 H1765 0.950 . S
H1762 C1758 0.950 . S
C1763 C1761 1.390 . S
C1763 C1764 1.387 . S
C1763 H1766 0.950 . S
C1764 C1763 1.387 . S
C1764 C1767 1.387 . S
H1765 C1761 0.950 . S
H1766 C1763 0.950 . S
C1767 C1758 1.390 . S
C1767 H1760 0.950 . S
C1767 C1764 1.387 . S
C1768 C1769 1.387 . S
C1768 H1772 0.950 . S
C1768 C1777 1.390 . S
C1769 C1768 1.387 . S
C1769 C1771 1.387 . S
H1770 C1777 0.950 . S
C1771 C1769 1.387 . S
C1771 C1773 1.390 . S
C1771 H1775 0.950 . S
H1772 C1768 0.950 . S
C1773 C1771 1.390 . S
C1773 C1774 1.387 . S
C1773 H1776 0.950 . S
C1774 C1773 1.387 . S
C1774 C1777 1.387 . S
H1775 C1771 0.950 . S
H1776 C1773 0.950 . S
C1777 C1768 1.390 . S
C1777 H1770 0.950 . S
C1777 C1774 1.387 . S
C1778 C1779 1.387 . S
C1778 H1782 0.950 . S
C1778 C1787 1.390 . S
C1779 C1778 1.387 . S
C1779 C1781 1.387 . S
H1780 C1787 0.950 . S
C1781 C1779 1.387 . S
C1781 C1783 1.390 . S
C1781 H1785 0.950 . S
H1782 C1778 0.950 . S
C1783 C1781 1.390 . S
C1783 C1784 1.387 . S
C1783 H1786 0.950 . S
C1784 C1783 1.387 . S
C1784 C1787 1.387 . S
H1785 C1781 0.950 . S
H1786 C1783 0.950 . S
C1787 C1778 1.390 . S
C1787 H1780 0.950 . S
C1787 C1784 1.387 . S
C1788 C1789 1.390 . S
C1788 H1792 0.951 1_655 S
C1788 C1797 1.386 1_655 S
C1789 C1788 1.390 . S
C1789 C1791 1.387 . S
H1790 C1797 0.950 . S
C1791 C1789 1.387 . S
C1791 C1793 1.390 . S
C1791 H1795 0.950 . S
H1792 C1788 0.951 1_455 S
C1793 C1791 1.390 . S
C1793 C1794 1.387 . S
C1793 H1796 0.950 . S
C1794 C1793 1.387 . S
C1794 C1797 1.387 1_655 S
H1795 C1791 0.950 . S
H1796 C1793 0.950 . S
C1797 C1788 1.386 1_455 S
C1797 H1790 0.950 . S
C1797 C1794 1.387 1_455 S
C1798 C1799 1.387 . S
C1798 H1802 0.950 . S
C1798 C1807 1.390 . S
C1799 C1798 1.387 . S
C1799 C1801 1.387 . S
H1800 C1807 0.950 . S
C1801 C1799 1.387 . S
C1801 C1803 1.390 . S
C1801 H1805 0.950 . S
H1802 C1798 0.950 . S
C1803 C1801 1.390 . S
C1803 C1804 1.387 . S
C1803 H1806 0.950 . S
C1804 C1803 1.387 . S
C1804 C1807 1.387 . S
H1805 C1801 0.950 . S
H1806 C1803 0.950 . S
C1807 C1798 1.390 . S
C1807 H1800 0.950 . S
C1807 C1804 1.387 . S
C1808 C1809 1.387 1_565 S
C1808 H1812 0.950 . S
C1808 C1817 1.390 . S
C1809 C1808 1.387 1_545 S
C1809 C1811 1.387 . S
H1810 C1817 0.950 . S
C1811 C1809 1.387 . S
C1811 C1813 1.390 . S
C1811 H1815 0.950 . S
H1812 C1808 0.950 . S
C1813 C1811 1.390 . S
C1813 C1814 1.387 . S
C1813 H1816 0.950 . S
C1814 C1813 1.387 . S
C1814 C1817 1.387 1_545 S
H1815 C1811 0.950 . S
H1816 C1813 0.950 . S
C1817 C1808 1.390 . S
C1817 H1810 0.950 . S
C1817 C1814 1.387 1_565 S
C1099 C10 1.583 1_655 S
C1104 C711 1.589 . S
C1109 C23 1.632 . S
C1114 C759 1.614 . S
C1124 C807 1.596 . S
C1119 C29 1.608 . S
C1129 C30 1.585 1_565 S
C1134 C831 1.597 . S
C1139 C5 1.614 . S
C1144 C903 1.600 . S
C1149 C18 1.638 . S
C1154 C951 1.622 . S
C1159 C49 1.609 . S
C1164 C879 1.597 . S
C1174 C927 1.625 . S
C1169 C62 1.635 . S
C1184 C855 1.582 . S
C1179 C70 1.637 1_565 S
C1189 C75 1.606 . S
C1194 C783 1.594 . S
C1204 C687 1.616 . S
C1199 C44 1.644 1_655 S
C1209 C57 1.640 . S
C1214 C735 1.630 . S
C1219 C88 1.655 . S
C1224 C999 1.638 . S
C1229 C101 1.655 . S
C1234 C1047 1.637 . S
C1244 C1071 1.632 . S
C1239 C107 1.653 . S
C1249 C108 1.641 . S
C1254 C255 1.621 . S
C1259 C83 1.651 . S
C1264 C327 1.635 . S
C1269 C96 1.650 . S
C1274 C375 1.631 . S
C1279 C127 1.640 . S
C1284 C303 1.629 . S
C1289 C140 1.647 . S
C1294 C351 1.635 . S
C1304 C279 1.602 . S
C1299 C146 1.644 . S
C1314 C1095 1.608 . S
C1309 C147 1.653 . S
C1324 C975 1.646 . S
C1319 C122 1.657 . S
C1334 C1023 1.651 . S
C1329 C135 1.662 . S
C1339 C160 1.639 . S
C1344 C423 1.622 . S
C1349 C173 1.643 . S
C1354 C471 1.623 . S
C1359 C185 1.649 . S
C1364 C495 1.630 . S
C1369 C186 1.656 . S
C1374 C543 1.636 . S
C1384 C615 1.637 . S
C1379 C159 1.655 . S
C1394 C663 1.642 . S
C1389 C172 1.660 . S
C1404 C591 1.647 . S
C1399 C205 1.658 . S
C1414 C639 1.646 . S
C1409 C218 1.658 . S
C1419 C224 1.648 . S
C1424 C567 1.602 . S
C1434 C519 1.593 . S
C1429 C225 1.635 . S
C1439 C200 1.655 . S
C1444 C399 1.643 . S
C1454 C447 1.640 . S
C1449 C213 1.653 . S
C1464 C264 1.523 . S
C1459 C4 1.525 . S
C1469 C17 1.508 . S
C1474 C318 1.492 . S
C1484 C366 1.512 . S
C1479 C31 1.528 . S
C1494 C414 1.512 . S
C1489 C36 1.527 . S
C1504 C462 1.513 . S
C1499 C3 1.530 . S
C1514 C504 1.510 . S
C1509 C16 1.512 . S
C1519 C43 1.530 . S
C1524 C510 1.527 . S
C1529 C56 1.510 . S
C1534 C408 1.489 . S
C1539 C68 1.522 . S
C1544 C456 1.497 . S
C1549 C69 1.526 . S
C1554 C312 1.510 . S
C1564 C360 1.508 . S
C1559 C42 1.528 . S
C1569 C55 1.516 . S
C1574 C270 1.507 . S
C1584 C552 1.522 . S
C1579 C82 1.524 . S
C1589 C95 1.535 . S
C1594 C606 1.518 . S
C1599 C109 1.547 . S
C1604 C654 1.531 . S
C1614 C702 1.496 . S
C1609 C114 1.498 . S
C1619 C81 1.532 . S
C1624 C750 1.515 . S
C1629 C94 1.501 . S
C1634 C798 1.496 . S
C1639 C121 1.500 . S
C1644 C792 1.491 . S
C1649 C134 1.496 . S
C1654 C696 1.491 . S
C1664 C744 1.507 . S
C1659 C148 1.526 . S
C1669 C153 1.525 . S
C1674 C600 1.503 . S
C1679 C120 1.548 . S
C1684 C648 1.528 . S
C1694 C558 1.531 . S
C1689 C133 1.541 . S
C1704 C840 1.498 . S
C1699 C166 1.496 . S
C1709 C179 1.493 . S
C1714 C894 1.490 . S
C1719 C187 1.530 . S
C1724 C942 1.515 . S
C1734 C990 1.510 . S
C1729 C192 1.528 . S
C1744 C1038 1.531 . S
C1739 C161 1.548 . S
C1749 C174 1.539 . S
C1754 C1080 1.537 . S
C1759 C199 1.529 . S
C1764 C1086 1.519 . S
C1769 C212 1.534 . S
C1774 C984 1.514 . S
C1784 C1032 1.522 . S
C1779 C226 1.542 . S
C1794 C888 1.489 . S
C1789 C231 1.492 . S
C1804 C936 1.515 . S
C1799 C198 1.534 . S
C1809 C211 1.505 . S
C1814 C846 1.500 . S
