# Generated by pormake.
# Topology tsx, (6,3)-cn, num edge types: 1
# Building blocks:
#     Node 0, Type 0, BuildingBlock: JUFBIX_clean_sbu_0, # of connection points: 6
#     Node 1, Type 0, BuildingBlock: JUFBIX_clean_sbu_0, # of connection points: 6
#     Node 2, Type 1, BuildingBlock: BELTOD_clean_linker_0, # of connection points: 3
#     Node 3, Type 1, BuildingBlock: BELTOD_clean_linker_0, # of connection points: 3
#     Node 4, Type 1, BuildingBlock: BELTOD_clean_linker_0, # of connection points: 3
#     Node 5, Type 1, BuildingBlock: BELTOD_clean_linker_0, # of connection points: 3
#     Edge 6, Type (0, 1), BuildingBlock: CIFDUS_clean_linker_0, # of connection points: 2
#     Edge 7, Type (0, 1), BuildingBlock: CIFDUS_clean_linker_0, # of connection points: 2
#     Edge 8, Type (0, 1), BuildingBlock: CIFDUS_clean_linker_0, # of connection points: 2
#     Edge 9, Type (0, 1), BuildingBlock: CIFDUS_clean_linker_0, # of connection points: 2
#     Edge 10, Type (0, 1), BuildingBlock: CIFDUS_clean_linker_0, # of connection points: 2
#     Edge 11, Type (0, 1), BuildingBlock: CIFDUS_clean_linker_0, # of connection points: 2
#     Edge 12, Type (0, 1), BuildingBlock: CIFDUS_clean_linker_0, # of connection points: 2
#     Edge 13, Type (0, 1), BuildingBlock: CIFDUS_clean_linker_0, # of connection points: 2
#     Edge 14, Type (0, 1), BuildingBlock: CIFDUS_clean_linker_0, # of connection points: 2
#     Edge 15, Type (0, 1), BuildingBlock: CIFDUS_clean_linker_0, # of connection points: 2
#     Edge 16, Type (0, 1), BuildingBlock: CIFDUS_clean_linker_0, # of connection points: 2
#     Edge 17, Type (0, 1), BuildingBlock: CIFDUS_clean_linker_0, # of connection points: 2
# Relax obj value: 0.145
# Max RMSD: 0.161
# Mean RMSD: 0.127
data_MOF--net-tsx--node1-JUFBIX_clean_sbu_0--node2-BELTOD_clean_linker_0--edge1-CIFDUS_clean_linker_0
_symmetry_space_group_name_H-M    P1
_symmetry_Int_Tables_number       1
_symmetry_cell_setting            triclinic
loop_
_symmetry_equiv_pos_as_xyz
'x, y, z'
_cell_length_a     20.05521
_cell_length_b     23.848593
_cell_length_c     35.672563
_cell_angle_alpha  92.873295
_cell_angle_beta   89.218813
_cell_angle_gamma 99.682534
loop_
_atom_site_label
_atom_site_type_symbol
_atom_site_fract_x
_atom_site_fract_y
_atom_site_fract_z
_atom_type_partial_charge
Co0 Co 0.03264 0.99552 0.00408 0.0
C1 C 0.97998 0.01752 0.93489 0.0
Co2 Co 0.95283 0.04979 0.00719 0.0
C3 C 0.11596 0.90495 0.01021 0.0
C4 C 0.15988 0.97356 0.97644 0.0
N5 N 0.10467 0.95514 -0.00258 0.0
N6 N 0.17661 0.89272 -0.00149 0.0
C7 C 0.20415 0.93576 0.97738 0.0
H8 H 0.08088 0.8782 0.02777 0.0
H9 H 0.16741 0.01191 0.9609 0.0
C10 C 1.00561 0.02724 0.07657 0.0
N11 N 0.88195 0.09039 0.01345 0.0
C12 C 0.86713 0.13392 0.99406 0.0
C13 C 0.83433 0.08284 0.04067 0.0
N14 N 0.81267 0.15408 0.00848 0.0
C15 C 0.79199 0.12209 0.03782 0.0
C16 C 0.90737 0.93171 0.00969 0.0
O17 O 0.04314 0.99892 0.05701 0.0
O18 O 0.96389 0.05227 0.06013 0.0
O19 O 0.89046 0.98077 0.00991 0.0
O20 O 0.9696 0.9272 0.00698 0.0
O21 O 0.94307 0.04678 0.9541 0.0
H22 H 0.83104 0.05111 0.06155 0.0
H23 H 0.89673 0.15144 0.97048 0.0
O24 O 0.02131 0.99234 0.95149 0.0
O25 O 0.09434 0.0651 0.00139 0.0
O26 O 0.01554 0.11858 0.00458 0.0
C27 C 0.07765 0.11419 0.00177 0.0
H28 H 0.2524 0.93887 0.96295 0.0
H29 H 0.74917 0.1267 0.05583 0.0
Co30 Co 0.52602 0.46465 0.50432 0.0
C31 C 0.46639 0.49458 0.43966 0.0
Co32 Co 0.44491 0.51622 0.51477 0.0
C33 C 0.61748 0.37902 0.50633 0.0
C34 C 0.64397 0.44332 0.46637 0.0
N35 N 0.59715 0.42539 0.49264 0.0
N36 N 0.67565 0.36852 0.48981 0.0
C37 C 0.69196 0.40883 0.46467 0.0
H38 H 0.59135 0.35452 0.52847 0.0
H39 H 0.64376 0.4799 0.44967 0.0
C40 C 0.50518 0.48727 0.57956 0.0
N41 N 0.3761 0.55802 0.52459 0.0
C42 C 0.36851 0.60599 0.50785 0.0
C43 C 0.32426 0.54902 0.54922 0.0
N44 N 0.31432 0.62774 0.52103 0.0
C45 C 0.28606 0.59181 0.54705 0.0
C46 C 0.40077 0.39823 0.5118 0.0
O47 O 0.54035 0.46133 0.55673 0.0
O48 O 0.46108 0.51389 0.56682 0.0
O49 O 0.38219 0.44661 0.51673 0.0
O50 O 0.4628 0.39586 0.50499 0.0
O51 O 0.42919 0.51815 0.46238 0.0
H52 H 0.31525 0.51399 0.56778 0.0
H53 H 0.4022 0.62439 0.4861 0.0
O54 O 0.51112 0.46893 0.45236 0.0
O55 O 0.58831 0.53366 0.50399 0.0
O56 O 0.50913 0.58566 0.5133 0.0
C57 C 0.57119 0.58239 0.50818 0.0
H58 H 0.73569 0.41294 0.44624 0.0
H59 H 0.24199 0.59674 0.56393 0.0
P60 P 0.10776 0.06465 0.42499 0.0
H61 H 0.11578 0.15124 0.48549 0.0
H62 H 0.03529 0.2087 0.51151 0.0
H63 H 0.87948 0.114 0.43966 0.0
H64 H 0.96003 0.05398 0.41559 0.0
H65 H 0.22173 0.03552 0.46474 0.0
H66 H 0.24571 0.94767 0.48789 0.0
H67 H 0.046 0.86284 0.45397 0.0
H68 H 0.02111 0.95337 0.43339 0.0
H69 H 0.05898 0.13152 0.3684 0.0
H70 H 0.12364 0.96832 0.3724 0.0
O71 O 0.18035 0.11069 0.42718 0.0
H72 H 0.04669 0.11786 0.30044 0.0
H73 H 0.10874 0.95326 0.30487 0.0
C74 C 0.04414 0.09901 0.44827 0.0
C75 C 0.06383 0.1417 0.47615 0.0
C76 C 0.01774 0.17496 0.49073 0.0
C77 C 0.95114 0.16704 0.47704 0.0
C78 C 0.93023 0.12134 0.45093 0.0
C79 C 0.97638 0.08727 0.43687 0.0
C80 C 0.11978 0.00102 0.44729 0.0
C81 C 0.18251 0.99842 0.46303 0.0
C82 C 0.1966 0.94736 0.47563 0.0
C83 C 0.14879 0.89694 0.47193 0.0
C84 C 0.08441 0.90036 0.45757 0.0
C85 C 0.06992 0.95216 0.44565 0.0
C86 C 0.09012 0.05027 0.37574 0.0
C87 C 0.06876 0.09206 0.3548 0.0
C88 C 0.06169 0.08412 0.31589 0.0
C89 C 0.07633 0.03424 0.2971 0.0
C90 C 0.09753 0.99235 0.31831 0.0
C91 C 0.10505 1.00058 0.35718 0.0
P92 P 0.08916 0.91905 0.59469 0.0
H93 H 0.05465 0.79656 0.5845 0.0
H94 H 0.95983 0.73342 0.55556 0.0
H95 H 0.88082 0.8784 0.51789 0.0
H96 H 0.97694 0.94224 0.54717 0.0
H97 H 0.22867 0.95513 0.57109 0.0
H98 H 0.28977 0.04317 0.54859 0.0
H99 H 0.10362 0.11219 0.54794 0.0
H100 H 0.04329 0.02421 0.57266 0.0
H101 H 0.98865 0.85394 0.64238 0.0
H102 H 0.11658 0.01894 0.64775 0.0
O103 O 0.14831 0.8798 0.60323 0.0
H104 H 0.9566 0.86764 0.70783 0.0
H105 H 0.08366 0.03287 0.71348 0.0
C106 C 0.02422 0.87431 0.56725 0.0
C107 C 0.01806 0.81512 0.56933 0.0
C108 C 0.96356 0.77887 0.55278 0.0
C109 C 0.91325 0.80094 0.53412 0.0
C110 C 0.91914 0.8603 0.53196 0.0
C111 C 0.97437 0.89678 0.54844 0.0
C112 C 0.13082 0.98223 0.57272 0.0
C113 C 0.20051 0.98878 0.56571 0.0
C114 C 0.23563 0.03949 0.55247 0.0
C115 C 0.20182 0.08498 0.54531 0.0
C116 C 0.13164 0.07819 0.55245 0.0
C117 C 0.09658 0.02737 0.56614 0.0
C118 C 0.05417 0.9358 0.63977 0.0
C119 C 0.00828 0.8939 0.65713 0.0
C120 C 0.99011 0.90158 0.69465 0.0
C121 C 0.01765 0.95129 0.71554 0.0
C122 C 0.06106 0.99451 0.69774 0.0
C123 C 0.07984 0.98652 0.66017 0.0
P124 P 0.59951 0.5903 0.92517 0.0
H125 H 0.59734 0.71087 0.93652 0.0
H126 H 0.51698 0.76555 0.96533 0.0
H127 H 0.38749 0.60988 0.99435 0.0
H128 H 0.46972 0.55454 0.96519 0.0
H129 H 0.69609 0.57266 0.98119 0.0
H130 H 0.72654 0.48735 0.00671 0.0
H131 H 0.56887 0.38312 0.94116 0.0
H132 H 0.53603 0.46938 0.91717 0.0
H133 H 0.46722 0.5601 0.88794 0.0
H134 H 0.67811 0.57834 0.85709 0.0
O135 O 0.6738 0.6341 0.92431 0.0
H136 H 0.43558 0.53681 0.82233 0.0
H137 H 0.64718 0.55669 0.79144 0.0
C138 C 0.54011 0.62867 0.9492 0.0
C139 C 0.55229 0.68821 0.9495 0.0
C140 C 0.50622 0.71956 0.96618 0.0
C141 C 0.44612 0.69216 0.98259 0.0
C142 C 0.4334 0.6322 0.982 0.0
C143 C 0.48033 0.60062 0.9655 0.0
C144 C 0.61357 0.52748 0.94763 0.0
C145 C 0.66642 0.53173 0.97337 0.0
C146 C 0.68417 0.48292 0.98765 0.0
C147 C 0.65024 0.42883 0.97568 0.0
C148 C 0.59602 0.42449 0.95056 0.0
C149 C 0.57716 0.47365 0.937 0.0
C150 C 0.57503 0.57233 0.87719 0.0
C151 C 0.50672 0.55956 0.86703 0.0
C152 C 0.48873 0.54629 0.82948 0.0
C153 C 0.53885 0.54527 0.80153 0.0
C154 C 0.60724 0.55653 0.81219 0.0
C155 C 0.62505 0.56958 0.8497 0.0
P156 P 0.52773 0.48113 0.09005 0.0
H157 H 0.50266 0.43769 0.01344 0.0
H158 H 0.39978 0.38809 0.98266 0.0
H159 H 0.28176 0.43431 0.07811 0.0
H160 H 0.38416 0.48611 0.10758 0.0
H161 H 0.67365 0.51026 0.09154 0.0
H162 H 0.75264 0.59203 0.07098 0.0
H163 H 0.58585 0.66231 0.02735 0.0
H164 H 0.50684 0.58073 0.04924 0.0
H165 H 0.4458 0.41451 0.14535 0.0
H166 H 0.57958 0.57643 0.14363 0.0
O167 O 0.56526 0.42376 0.08688 0.0
H168 H 0.43692 0.42573 0.21383 0.0
H169 H 0.5727 0.58638 0.21197 0.0
C170 C 0.45117 0.4635 0.0633 0.0
C171 C 0.45428 0.43877 0.02705 0.0
C172 C 0.39548 0.41024 0.00962 0.0
C173 C 0.33286 0.40561 0.02851 0.0
C174 C 0.32913 0.43662 0.06286 0.0
C175 C 0.38799 0.46569 0.08005 0.0
C176 C 0.58478 0.53901 0.07109 0.0
C177 C 0.65424 0.54297 0.0771 0.0
C178 C 0.69936 0.58978 0.06526 0.0
C179 C 0.67581 0.63353 0.04699 0.0
C180 C 0.60576 0.62945 0.04127 0.0
C181 C 0.56055 0.5826 0.05341 0.0
C182 C 0.51275 0.49477 0.13927 0.0
C183 C 0.47203 0.45296 0.15956 0.0
C184 C 0.46695 0.45934 0.19858 0.0
C185 C 0.50407 0.50693 0.21787 0.0
C186 C 0.54354 0.54942 0.19752 0.0
C187 C 0.54747 0.5436 0.15844 0.0
H188 H 0.06412 0.22641 0.01121 0.0
H189 H 0.21137 0.11603 0.98786 0.0
H190 H 0.30184 0.19778 0.98939 0.0
H191 H 0.34059 0.29843 0.0034 0.0
H192 H 0.19649 0.41063 0.02865 0.0
H193 H 0.1033 0.33029 0.02014 0.0
C194 C 0.11594 0.22039 0.00609 0.0
C195 C 0.1309 0.16505 -0.00014 0.0
C196 C 0.16832 0.2678 0.00746 0.0
C197 C 0.19831 0.15799 0.99313 0.0
C198 C 0.25024 0.20476 0.99392 0.0
C199 C 0.2888 0.30591 0.00593 0.0
C200 C 0.2756 0.36056 0.01654 0.0
C201 C 0.23599 0.25961 0.0018 0.0
C202 C 0.20805 0.36889 0.02066 0.0
C203 C 0.15481 0.32296 0.01589 0.0
H204 H 0.29423 0.89297 0.03184 0.0
H205 H 0.12901 0.78384 0.97621 0.0
H206 H 0.19605 0.70638 0.97047 0.0
H207 H 0.30876 0.67642 0.9724 0.0
H208 H 0.47324 0.78756 0.02851 0.0
H209 H 0.39963 0.85723 0.04349 0.0
C210 C 0.27246 0.85145 0.01965 0.0
C211 C 0.20715 0.84364 0.00455 0.0
C212 C 0.31171 0.80797 0.01599 0.0
C213 C 0.17902 0.7902 0.98841 0.0
C214 C 0.21768 0.74633 0.98477 0.0
C215 C 0.32786 0.71515 0.98882 0.0
C216 C 0.39687 0.72734 -0.00143 0.0
C217 C 0.28513 0.75553 -0.00285 0.0
C218 C 0.4208 0.77776 0.01989 0.0
C219 C 0.37873 0.81763 0.02852 0.0
H220 H 0.92055 0.8201 -6e-05 0.0
H221 H 0.77595 0.93002 0.03037 0.0
H222 H 0.69063 0.84745 0.04279 0.0
H223 H 0.6593 0.74474 0.04905 0.0
H224 H 0.80191 0.63407 0.01631 0.0
H225 H 0.88576 0.71632 0.00111 0.0
C226 C 0.87026 0.82593 0.00909 0.0
C227 C 0.85489 0.88112 0.01451 0.0
C228 C 0.82117 0.77822 0.01611 0.0
C229 C 0.78925 0.88798 0.02602 0.0
C230 C 0.74037 0.8408 0.03324 0.0
C231 C 0.70821 0.73837 0.03795 0.0
C232 C 0.72443 0.68324 0.03444 0.0
C233 C 0.75605 0.78578 0.02888 0.0
C234 C 0.78849 0.6761 0.02026 0.0
C235 C 0.83644 0.7231 0.01131 0.0
H236 H 0.76477 0.23263 0.05253 0.0
H237 H 0.79574 0.18118 0.93705 0.0
H238 H 0.74325 0.26006 0.91632 0.0
H239 H 0.68984 0.34462 0.93145 0.0
H240 H 0.66856 0.40028 0.04709 0.0
H241 H 0.71478 0.31834 0.06765 0.0
C242 C 0.75954 0.23862 0.02286 0.0
C243 C 0.78352 0.20116 0.99629 0.0
C244 C 0.73059 0.28449 0.01133 0.0
C245 C 0.77786 0.20981 0.9579 0.0
C246 C 0.7476 0.25463 0.94612 0.0
C247 C 0.69461 0.33817 0.96112 0.0
C248 C 0.67452 0.37746 0.98785 0.0
C249 C 0.72378 0.29225 0.9726 0.0
C250 C 0.68258 0.36985 0.02618 0.0
C251 C 0.70939 0.32331 0.03787 0.0
H252 H 0.6991 0.58964 0.48197 0.0
H253 H 0.56292 0.69019 0.53668 0.0
H254 H 0.65633 0.77027 0.54582 0.0
H255 H 0.7795 0.80732 0.54443 0.0
H256 H 0.91403 0.70467 0.49029 0.0
H257 H 0.81836 0.62992 0.47448 0.0
C258 C 0.68958 0.62927 0.49557 0.0
C259 C 0.62439 0.63368 0.50914 0.0
C260 C 0.7434 0.67465 0.50099 0.0
C261 C 0.61272 0.68563 0.52613 0.0
C262 C 0.66619 0.73132 0.53149 0.0
C263 C 0.78749 0.76914 0.52841 0.0
C264 C 0.85376 0.76118 0.51888 0.0
C265 C 0.73214 0.72579 0.51989 0.0
C266 C 0.86356 0.71137 0.49833 0.0
C267 C 0.80893 0.66862 0.48933 0.0
H268 H 0.80957 0.38329 0.49514 0.0
H269 H 0.63027 0.2562 0.49896 0.0
H270 H 0.70032 0.18067 0.49833 0.0
H271 H 0.81332 0.15136 0.49004 0.0
H272 H 0.99043 0.28182 0.48351 0.0
H273 H 0.92078 0.35523 0.49219 0.0
C274 C 0.78599 0.33901 0.49631 0.0
C275 C 0.71516 0.32504 0.49668 0.0
C276 C 0.82632 0.29643 0.49519 0.0
C277 C 0.68484 0.26777 0.4988 0.0
C278 C 0.7249 0.22473 0.49806 0.0
C279 C 0.83661 0.19584 0.49075 0.0
C280 C 0.90735 0.21068 0.4862 0.0
C281 C 0.79579 0.23853 0.49514 0.0
C282 C 0.93657 0.26871 0.4876 0.0
C283 C 0.89666 0.311 0.49224 0.0
H284 H 0.41261 0.29057 0.48722 0.0
H285 H 0.27861 0.38709 0.54779 0.0
H286 H 0.20314 0.29903 0.56194 0.0
H287 H 0.18031 0.19448 0.56149 0.0
H288 H 0.31169 0.09859 0.49773 0.0
H289 H 0.3829 0.18646 0.48087 0.0
C290 C 0.36659 0.29235 0.50325 0.0
C291 C 0.35168 0.34527 0.51674 0.0
C292 C 0.32317 0.2416 0.51112 0.0
C293 C 0.29138 0.3469 0.53707 0.0
C294 C 0.24829 0.29652 0.54532 0.0
C295 C 0.22362 0.1925 0.54328 0.0
C296 C 0.24073 0.13931 0.53163 0.0
C297 C 0.2643 0.24352 0.53307 0.0
C298 C 0.29771 0.13841 0.50816 0.0
C299 C 0.33856 0.18884 0.4982 0.0
H300 H 0.18776 0.65362 0.52412 0.0
H301 H 0.39419 0.71984 0.49399 0.0
H302 H 0.36032 0.80724 0.47483 0.0
H303 H 0.27326 0.8647 0.46632 0.0
H304 H 0.06664 0.8015 0.49745 0.0
H305 H 0.09934 0.71298 0.51605 0.0
C306 C 0.22537 0.68736 0.51367 0.0
C307 C 0.29345 0.67975 0.51035 0.0
C308 C 0.20559 0.73811 0.50284 0.0
C309 C 0.34133 0.7238 0.49626 0.0
C310 C 0.32207 0.77411 0.48548 0.0
C311 C 0.23522 0.83246 0.47803 0.0
C312 C 0.16767 0.84138 0.48183 0.0
C313 C 0.25446 0.78172 0.48869 0.0
C314 C 0.11916 0.79693 0.49497 0.0
C315 C 0.13788 0.74602 0.50559 0.0
H316 H 0.09863 0.99184 0.12105 0.0
H317 H 0.92039 0.07151 0.12537 0.0
H318 H 0.92552 0.07915 0.19363 0.0
H319 H 0.98041 0.06378 0.25216 0.0
H320 H 0.16152 0.9881 0.24828 0.0
H321 H 0.15452 0.97737 0.18 0.0
C322 C 0.06086 0.01077 0.13694 0.0
C323 C 0.00933 0.03113 0.11805 0.0
C324 C 0.0643 0.0155 0.17634 0.0
C325 C 0.96085 0.05568 0.1391 0.0
C326 C 0.9636 0.06002 0.17821 0.0
C327 C 0.01878 0.04542 0.23642 0.0
C328 C 0.07133 0.02678 0.25549 0.0
C329 C 0.01523 0.04031 0.19711 0.0
C330 C 0.11984 0.00207 0.23451 0.0
C331 C 0.11622 0.9963 0.19537 0.0
H332 H 0.01088 0.93125 0.89045 0.0
H333 H 0.94105 0.0923 0.88698 0.0
H334 H 0.94551 0.08614 0.8181 0.0
H335 H 0.97475 0.03616 0.75889 0.0
H336 H 0.04026 0.87347 0.76406 0.0
H337 H 0.03196 0.87894 0.83235 0.0
C338 C 0.99635 0.96494 0.87462 0.0
C339 C 0.97636 0.0124 0.89359 0.0
C340 C 0.99846 0.96079 0.83539 0.0
C341 C 0.95661 0.05532 0.87284 0.0
C342 C 0.95946 0.05191 0.83354 0.0
C343 C 0.98676 0.00197 0.77514 0.0
C344 C 0.00803 0.9545 0.75668 0.0
C345 C 0.98117 0.00511 0.81452 0.0
C346 C 0.02317 0.91013 0.77777 0.0
C347 C 0.01875 0.91333 0.81676 0.0
H348 H 0.4386 0.53898 0.63429 0.0
H349 H 0.59728 0.43827 0.617 0.0
H350 H 0.61935 0.44487 0.68446 0.0
H351 H 0.59617 0.48218 0.74801 0.0
H352 H 0.43998 0.58564 0.76435 0.0
H353 H 0.41356 0.57397 0.69763 0.0
C354 C 0.47788 0.5182 0.64521 0.0
C355 C 0.51648 0.48844 0.62055 0.0
C356 C 0.49061 0.5225 0.6839 0.0
C357 C 0.56693 0.46161 0.6353 0.0
C358 C 0.57962 0.4654 0.67388 0.0
C359 C 0.55651 0.50236 0.73696 0.0
C360 C 0.52028 0.53488 0.76125 0.0
C361 C 0.54228 0.4963 0.69838 0.0
C362 C 0.46816 0.5598 0.7465 0.0
C363 C 0.45335 0.55355 0.70825 0.0
H364 H 0.5678 0.50093 0.3894 0.0
H365 H 0.35304 0.49948 0.39897 0.0
H366 H 0.34514 0.50354 0.33056 0.0
H367 H 0.39997 0.50481 0.26778 0.0
H368 H 0.61605 0.51303 0.2599 0.0
H369 H 0.62319 0.50933 0.32805 0.0
C370 C 0.51925 0.50141 0.37645 0.0
C371 C 0.4609 0.49907 0.39887 0.0
C372 C 0.51556 0.50514 0.33753 0.0
C373 C 0.39851 0.50101 0.38205 0.0
C374 C 0.39404 0.50324 0.34304 0.0
C375 C 0.44844 0.50615 0.28122 0.0
C376 C 0.50743 0.50908 0.25919 0.0
C377 C 0.45224 0.50496 0.32048 0.0
C378 C 0.57021 0.51116 0.27656 0.0
C379 C 0.57423 0.50877 0.31539 0.0
loop_
_geom_bond_atom_site_label_1
_geom_bond_atom_site_label_2
_geom_bond_distance
_geom_bond_site_symmetry_2
_ccdc_geom_bond_type
Co0 N5 2.057 . S
Co0 O17 2.021 . S
Co0 O20 2.062 1_455 S
Co0 O24 2.117 1_554 S
Co0 O25 2.020 1_565 S
C1 O21 1.259 1_455 S
C1 O24 1.258 1_545 S
Co2 N11 2.057 . S
Co2 O18 2.117 . S
Co2 O19 2.020 1_545 S
Co2 O21 2.021 1_554 S
Co2 O26 2.062 1_655 S
C3 N5 1.316 . S
C3 N6 1.347 . S
C3 H8 0.931 . S
C4 N5 1.375 1_556 S
C4 C7 1.350 . S
C4 H9 0.930 . S
N5 Co0 2.057 . S
N5 C3 1.316 . S
N5 C4 1.375 1_554 S
N6 C3 1.347 . S
N6 C7 1.373 1_554 S
C7 C4 1.350 . S
C7 N6 1.373 1_556 S
C7 H28 0.931 . S
H8 C3 0.931 . S
H9 C4 0.930 . S
C10 O17 1.259 1_545 S
C10 O18 1.258 1_455 S
N11 Co2 2.057 . S
N11 C12 1.332 . S
N11 C13 1.375 . S
C12 N11 1.332 . S
C12 N14 1.358 . S
C12 H23 0.907 1_554 S
C13 N11 1.375 . S
C13 C15 1.350 . S
C13 H22 0.930 . S
N14 C12 1.358 . S
N14 C15 1.373 . S
C15 C13 1.350 . S
C15 N14 1.373 . S
C15 H29 0.931 . S
C16 O19 1.256 . S
C16 O20 1.255 . S
O17 Co0 2.021 . S
O17 C10 1.259 1_565 S
O18 Co2 2.117 . S
O18 C10 1.258 1_655 S
O19 Co2 2.020 1_565 S
O19 C16 1.256 . S
O20 Co0 2.062 1_655 S
O20 C16 1.255 . S
O21 C1 1.259 1_655 S
O21 Co2 2.021 1_556 S
H22 C13 0.930 . S
H23 C12 0.907 1_556 S
O24 Co0 2.117 1_556 S
O24 C1 1.258 1_565 S
O25 Co0 2.020 1_545 S
O25 C27 1.256 . S
O26 Co2 2.062 1_455 S
O26 C27 1.255 . S
C27 O25 1.256 . S
C27 O26 1.255 . S
H28 C7 0.931 . S
H29 C15 0.931 . S
Co30 N35 2.057 . S
Co30 O47 2.021 . S
Co30 O50 2.062 . S
Co30 O54 2.117 . S
Co30 O55 2.020 . S
C31 O51 1.259 . S
C31 O54 1.258 . S
Co32 N41 2.057 . S
Co32 O48 2.117 . S
Co32 O49 2.020 . S
Co32 O51 2.021 . S
Co32 O56 2.062 . S
C33 N35 1.316 . S
C33 N36 1.347 . S
C33 H38 0.931 . S
C34 N35 1.375 . S
C34 C37 1.350 . S
C34 H39 0.930 . S
N35 Co30 2.057 . S
N35 C33 1.316 . S
N35 C34 1.375 . S
N36 C33 1.347 . S
N36 C37 1.373 . S
C37 C34 1.350 . S
C37 N36 1.373 . S
C37 H58 0.931 . S
H38 C33 0.931 . S
H39 C34 0.930 . S
C40 O47 1.259 . S
C40 O48 1.258 . S
N41 Co32 2.057 . S
N41 C42 1.316 . S
N41 C43 1.375 . S
C42 N41 1.316 . S
C42 N44 1.347 . S
C42 H53 0.931 . S
C43 N41 1.375 . S
C43 C45 1.350 . S
C43 H52 0.930 . S
N44 C42 1.347 . S
N44 C45 1.373 . S
C45 C43 1.350 . S
C45 N44 1.373 . S
C45 H59 0.931 . S
C46 O49 1.256 . S
C46 O50 1.255 . S
O47 Co30 2.021 . S
O47 C40 1.259 . S
O48 Co32 2.117 . S
O48 C40 1.258 . S
O49 Co32 2.020 . S
O49 C46 1.256 . S
O50 Co30 2.062 . S
O50 C46 1.255 . S
O51 C31 1.259 . S
O51 Co32 2.021 . S
H52 C43 0.930 . S
H53 C42 0.931 . S
O54 Co30 2.117 . S
O54 C31 1.258 . S
O55 Co30 2.020 . S
O55 C57 1.256 . S
O56 Co32 2.062 . S
O56 C57 1.255 . S
C57 O55 1.256 . S
C57 O56 1.255 . S
H58 C37 0.931 . S
H59 C45 0.931 . S
P60 O71 1.490 . S
P60 C74 1.812 . S
P60 C80 1.803 1_545 S
P60 C86 1.819 . S
H61 C75 0.941 . S
H62 C76 0.939 . S
H63 C78 0.940 . S
H64 C79 0.940 . S
H65 C81 0.939 1_545 S
H66 C82 0.942 . S
H67 C84 0.940 . S
H68 C85 0.924 1_655 S
H69 C87 0.941 . S
H70 C91 0.939 . S
O71 P60 1.490 . S
H72 C88 0.939 . S
H73 C90 0.940 . S
C74 P60 1.812 . S
C74 C75 1.389 . S
C74 C79 1.391 1_455 S
C75 H61 0.941 . S
C75 C74 1.389 . S
C75 C76 1.397 1_455 S
C76 H62 0.939 . S
C76 C75 1.397 1_655 S
C76 C77 1.378 . S
C77 C76 1.378 . S
C77 C78 1.378 . S
C78 H63 0.940 . S
C78 C77 1.378 . S
C78 C79 1.396 . S
C79 H64 0.940 . S
C79 C74 1.391 1_655 S
C79 C78 1.396 . S
C80 P60 1.803 1_565 S
C80 C81 1.378 . S
C80 C85 1.400 . S
C81 H65 0.939 1_565 S
C81 C80 1.378 . S
C81 C82 1.361 . S
C82 H66 0.942 . S
C82 C81 1.361 . S
C82 C83 1.369 . S
C83 C82 1.369 . S
C83 C84 1.404 . S
C84 H67 0.940 . S
C84 C83 1.404 . S
C84 C85 1.389 . S
C85 H68 0.924 1_455 S
C85 C80 1.400 . S
C85 C84 1.389 . S
C86 P60 1.819 . S
C86 C87 1.391 . S
C86 C91 1.391 1_545 S
C87 H69 0.941 . S
C87 C86 1.391 . S
C87 C88 1.396 . S
C88 H72 0.939 . S
C88 C87 1.396 . S
C88 C89 1.397 . S
C89 C88 1.397 . S
C89 C90 1.385 1_545 S
C90 H73 0.940 . S
C90 C89 1.385 1_565 S
C90 C91 1.388 . S
C91 H70 0.939 . S
C91 C86 1.391 1_565 S
C91 C90 1.388 . S
P92 O103 1.490 . S
P92 C106 1.812 1_455 S
P92 C112 1.803 1_565 S
P92 C118 1.819 . S
H93 C107 0.941 1_455 S
H94 C108 0.939 . S
H95 C110 0.940 . S
H96 C111 0.940 . S
H97 C113 0.939 . S
H98 C114 0.942 . S
H99 C116 0.940 . S
H100 C117 0.939 . S
H101 C119 0.941 . S
H102 C123 0.939 . S
O103 P92 1.490 . S
H104 C120 0.939 . S
H105 C122 0.940 . S
C106 P92 1.812 1_655 S
C106 C107 1.389 . S
C106 C111 1.391 . S
C107 H93 0.941 1_655 S
C107 C106 1.389 . S
C107 C108 1.397 . S
C108 H94 0.939 . S
C108 C107 1.397 . S
C108 C109 1.378 . S
C109 C108 1.378 . S
C109 C110 1.378 . S
C110 H95 0.940 . S
C110 C109 1.378 . S
C110 C111 1.396 . S
C111 H96 0.940 . S
C111 C106 1.391 . S
C111 C110 1.396 . S
C112 P92 1.803 1_545 S
C112 C113 1.378 . S
C112 C117 1.400 . S
C113 H97 0.939 . S
C113 C112 1.378 . S
C113 C114 1.361 . S
C114 H98 0.942 . S
C114 C113 1.361 . S
C114 C115 1.369 . S
C115 C114 1.369 . S
C115 C116 1.404 . S
C116 H99 0.940 . S
C116 C115 1.404 . S
C116 C117 1.389 . S
C117 H100 0.939 . S
C117 C112 1.400 . S
C117 C116 1.389 . S
C118 P92 1.819 . S
C118 C119 1.391 . S
C118 C123 1.391 1_565 S
C119 H101 0.941 . S
C119 C118 1.391 . S
C119 C120 1.396 . S
C120 H104 0.939 . S
C120 C119 1.396 . S
C120 C121 1.397 1_565 S
C121 C120 1.397 1_545 S
C121 C122 1.385 . S
C122 H105 0.940 . S
C122 C121 1.385 . S
C122 C123 1.388 . S
C123 H102 0.939 . S
C123 C118 1.391 1_545 S
C123 C122 1.388 . S
P124 O135 1.490 . S
P124 C138 1.812 . S
P124 C144 1.803 . S
P124 C150 1.819 . S
H125 C139 0.941 . S
H126 C140 0.939 1_554 S
H127 C142 0.940 . S
H128 C143 0.940 . S
H129 C145 0.939 . S
H130 C146 0.942 . S
H131 C148 0.940 . S
H132 C149 0.939 . S
H133 C151 0.941 . S
H134 C155 0.939 . S
O135 P124 1.490 . S
H136 C152 0.939 . S
H137 C154 0.940 . S
C138 P124 1.812 . S
C138 C139 1.389 . S
C138 C143 1.391 . S
C139 H125 0.941 . S
C139 C138 1.389 . S
C139 C140 1.397 . S
C140 H126 0.939 1_556 S
C140 C139 1.397 . S
C140 C141 1.378 . S
C141 C140 1.378 . S
C141 C142 1.378 . S
C142 H127 0.940 . S
C142 C141 1.378 . S
C142 C143 1.396 . S
C143 H128 0.940 . S
C143 C138 1.391 . S
C143 C142 1.396 . S
C144 P124 1.803 . S
C144 C145 1.378 . S
C144 C149 1.400 . S
C145 H129 0.939 . S
C145 C144 1.378 . S
C145 C146 1.361 . S
C146 H130 0.942 . S
C146 C145 1.361 . S
C146 C147 1.369 . S
C147 C146 1.369 . S
C147 C148 1.404 . S
C148 H131 0.940 . S
C148 C147 1.404 . S
C148 C149 1.389 . S
C149 H132 0.939 . S
C149 C144 1.400 . S
C149 C148 1.389 . S
C150 P124 1.819 . S
C150 C151 1.391 . S
C150 C155 1.391 . S
C151 H133 0.941 . S
C151 C150 1.391 . S
C151 C152 1.396 . S
C152 H136 0.939 . S
C152 C151 1.396 . S
C152 C153 1.397 . S
C153 C152 1.397 . S
C153 C154 1.385 . S
C154 H137 0.940 . S
C154 C153 1.385 . S
C154 C155 1.388 . S
C155 H134 0.939 . S
C155 C150 1.391 . S
C155 C154 1.388 . S
P156 O167 1.490 . S
P156 C170 1.812 . S
P156 C176 1.803 . S
P156 C182 1.819 . S
H157 C171 0.941 . S
H158 C172 0.939 . S
H159 C174 0.940 . S
H160 C175 0.940 . S
H161 C177 0.939 . S
H162 C178 0.942 . S
H163 C180 0.940 . S
H164 C181 0.939 . S
H165 C183 0.941 . S
H166 C187 0.939 . S
O167 P156 1.490 . S
H168 C184 0.939 . S
H169 C186 0.940 . S
C170 P156 1.812 . S
C170 C171 1.389 . S
C170 C175 1.391 . S
C171 H157 0.941 . S
C171 C170 1.389 . S
C171 C172 1.397 . S
C172 H158 0.939 . S
C172 C171 1.397 . S
C172 C173 1.378 . S
C173 C172 1.378 . S
C173 C174 1.378 . S
C174 H159 0.940 . S
C174 C173 1.378 . S
C174 C175 1.396 . S
C175 H160 0.940 . S
C175 C170 1.391 . S
C175 C174 1.396 . S
C176 P156 1.803 . S
C176 C177 1.378 . S
C176 C181 1.400 . S
C177 H161 0.939 . S
C177 C176 1.378 . S
C177 C178 1.361 . S
C178 H162 0.942 . S
C178 C177 1.361 . S
C178 C179 1.369 . S
C179 C178 1.369 . S
C179 C180 1.404 . S
C180 H163 0.940 . S
C180 C179 1.404 . S
C180 C181 1.389 . S
C181 H164 0.939 . S
C181 C176 1.400 . S
C181 C180 1.389 . S
C182 P156 1.819 . S
C182 C183 1.391 . S
C182 C187 1.391 . S
C183 H165 0.941 . S
C183 C182 1.391 . S
C183 C184 1.396 . S
C184 H168 0.939 . S
C184 C183 1.396 . S
C184 C185 1.397 . S
C185 C184 1.397 . S
C185 C186 1.385 . S
C186 H169 0.940 . S
C186 C185 1.385 . S
C186 C187 1.388 . S
C187 H166 0.939 . S
C187 C182 1.391 . S
C187 C186 1.388 . S
H188 C194 0.930 . S
H189 C197 0.930 . S
H190 C198 0.930 . S
H191 C199 0.930 . S
H192 C202 0.930 . S
H193 C203 0.930 . S
C194 H188 0.930 . S
C194 C195 1.355 . S
C194 C196 1.415 . S
C195 C194 1.355 . S
C195 C197 1.419 . S
C196 C194 1.415 . S
C196 C201 1.425 . S
C196 C203 1.409 . S
C197 H189 0.930 . S
C197 C195 1.419 . S
C197 C198 1.362 . S
C198 H190 0.930 . S
C198 C197 1.362 . S
C198 C201 1.409 . S
C199 H191 0.930 . S
C199 C200 1.355 . S
C199 C201 1.415 . S
C200 C199 1.355 . S
C200 C202 1.419 . S
C201 C196 1.425 . S
C201 C198 1.409 . S
C201 C199 1.415 . S
C202 H192 0.930 . S
C202 C200 1.419 . S
C202 C203 1.362 . S
C203 H193 0.930 . S
C203 C196 1.409 . S
C203 C202 1.362 . S
H204 C210 0.930 . S
H205 C213 0.930 . S
H206 C214 0.930 . S
H207 C215 0.930 . S
H208 C218 0.930 . S
H209 C219 0.930 . S
C210 H204 0.930 . S
C210 C211 1.355 . S
C210 C212 1.415 . S
C211 C210 1.355 . S
C211 C213 1.419 1_554 S
C212 C210 1.415 . S
C212 C217 1.425 1_554 S
C212 C219 1.409 . S
C213 H205 0.930 . S
C213 C211 1.419 1_556 S
C213 C214 1.362 . S
C214 H206 0.930 . S
C214 C213 1.362 . S
C214 C217 1.409 . S
C215 H207 0.930 . S
C215 C216 1.355 . S
C215 C217 1.415 . S
C216 C215 1.355 . S
C216 C218 1.419 1_556 S
C217 C212 1.425 1_556 S
C217 C214 1.409 . S
C217 C215 1.415 . S
C218 H208 0.930 . S
C218 C216 1.419 1_554 S
C218 C219 1.362 . S
C219 H209 0.930 . S
C219 C212 1.409 . S
C219 C218 1.362 . S
H220 C226 0.930 . S
H221 C229 0.930 . S
H222 C230 0.930 . S
H223 C231 0.930 . S
H224 C234 0.930 . S
H225 C235 0.930 . S
C226 H220 0.930 . S
C226 C227 1.355 1_556 S
C226 C228 1.415 1_556 S
C227 C226 1.355 1_554 S
C227 C229 1.419 . S
C228 C226 1.415 1_554 S
C228 C233 1.425 . S
C228 C235 1.409 1_554 S
C229 H221 0.930 . S
C229 C227 1.419 . S
C229 C230 1.362 . S
C230 H222 0.930 . S
C230 C229 1.362 . S
C230 C233 1.409 . S
C231 H223 0.930 . S
C231 C232 1.355 . S
C231 C233 1.415 . S
C232 C231 1.355 . S
C232 C234 1.419 1_554 S
C233 C228 1.425 . S
C233 C230 1.409 . S
C233 C231 1.415 . S
C234 H224 0.930 . S
C234 C232 1.419 1_556 S
C234 C235 1.362 . S
C235 H225 0.930 . S
C235 C228 1.409 1_556 S
C235 C234 1.362 . S
H236 C242 0.930 . S
H237 C245 0.930 . S
H238 C246 0.930 . S
H239 C247 0.930 . S
H240 C250 0.930 . S
H241 C251 0.930 . S
C242 H236 0.930 . S
C242 C243 1.355 . S
C242 C244 1.415 . S
C243 C242 1.355 . S
C243 C245 1.419 1_554 S
C244 C242 1.415 . S
C244 C249 1.425 1_554 S
C244 C251 1.409 . S
C245 H237 0.930 . S
C245 C243 1.419 1_556 S
C245 C246 1.362 . S
C246 H238 0.930 . S
C246 C245 1.362 . S
C246 C249 1.409 . S
C247 H239 0.930 . S
C247 C248 1.355 . S
C247 C249 1.415 . S
C248 C247 1.355 . S
C248 C250 1.419 1_556 S
C249 C244 1.425 1_556 S
C249 C246 1.409 . S
C249 C247 1.415 . S
C250 H240 0.930 . S
C250 C248 1.419 1_554 S
C250 C251 1.362 . S
C251 H241 0.930 . S
C251 C244 1.409 . S
C251 C250 1.362 . S
H252 C258 0.930 . S
H253 C261 0.930 . S
H254 C262 0.930 . S
H255 C263 0.930 . S
H256 C266 0.930 . S
H257 C267 0.930 . S
C258 H252 0.930 . S
C258 C259 1.355 . S
C258 C260 1.415 . S
C259 C258 1.355 . S
C259 C261 1.419 . S
C260 C258 1.415 . S
C260 C265 1.425 . S
C260 C267 1.409 . S
C261 H253 0.930 . S
C261 C259 1.419 . S
C261 C262 1.362 . S
C262 H254 0.930 . S
C262 C261 1.362 . S
C262 C265 1.409 . S
C263 H255 0.930 . S
C263 C264 1.355 . S
C263 C265 1.415 . S
C264 C263 1.355 . S
C264 C266 1.419 . S
C265 C260 1.425 . S
C265 C262 1.409 . S
C265 C263 1.415 . S
C266 H256 0.930 . S
C266 C264 1.419 . S
C266 C267 1.362 . S
C267 H257 0.930 . S
C267 C260 1.409 . S
C267 C266 1.362 . S
H268 C274 0.930 . S
H269 C277 0.930 . S
H270 C278 0.930 . S
H271 C279 0.930 . S
H272 C282 0.930 . S
H273 C283 0.930 . S
C274 H268 0.930 . S
C274 C275 1.355 . S
C274 C276 1.415 . S
C275 C274 1.355 . S
C275 C277 1.419 . S
C276 C274 1.415 . S
C276 C281 1.425 . S
C276 C283 1.409 . S
C277 H269 0.930 . S
C277 C275 1.419 . S
C277 C278 1.362 . S
C278 H270 0.930 . S
C278 C277 1.362 . S
C278 C281 1.409 . S
C279 H271 0.930 . S
C279 C280 1.355 . S
C279 C281 1.415 . S
C280 C279 1.355 . S
C280 C282 1.419 . S
C281 C276 1.425 . S
C281 C278 1.409 . S
C281 C279 1.415 . S
C282 H272 0.930 . S
C282 C280 1.419 . S
C282 C283 1.362 . S
C283 H273 0.930 . S
C283 C276 1.409 . S
C283 C282 1.362 . S
H284 C290 0.930 . S
H285 C293 0.930 . S
H286 C294 0.930 . S
H287 C295 0.930 . S
H288 C298 0.930 . S
H289 C299 0.930 . S
C290 H284 0.930 . S
C290 C291 1.355 . S
C290 C292 1.415 . S
C291 C290 1.355 . S
C291 C293 1.419 . S
C292 C290 1.415 . S
C292 C297 1.425 . S
C292 C299 1.409 . S
C293 H285 0.930 . S
C293 C291 1.419 . S
C293 C294 1.362 . S
C294 H286 0.930 . S
C294 C293 1.362 . S
C294 C297 1.409 . S
C295 H287 0.930 . S
C295 C296 1.355 . S
C295 C297 1.415 . S
C296 C295 1.355 . S
C296 C298 1.419 . S
C297 C292 1.425 . S
C297 C294 1.409 . S
C297 C295 1.415 . S
C298 H288 0.930 . S
C298 C296 1.419 . S
C298 C299 1.362 . S
C299 H289 0.930 . S
C299 C292 1.409 . S
C299 C298 1.362 . S
H300 C306 0.930 . S
H301 C309 0.930 . S
H302 C310 0.930 . S
H303 C311 0.930 . S
H304 C314 0.930 . S
H305 C315 0.930 . S
C306 H300 0.930 . S
C306 C307 1.355 . S
C306 C308 1.415 . S
C307 C306 1.355 . S
C307 C309 1.419 . S
C308 C306 1.415 . S
C308 C313 1.425 . S
C308 C315 1.409 . S
C309 H301 0.930 . S
C309 C307 1.419 . S
C309 C310 1.362 . S
C310 H302 0.930 . S
C310 C309 1.362 . S
C310 C313 1.409 . S
C311 H303 0.930 . S
C311 C312 1.355 . S
C311 C313 1.415 . S
C312 C311 1.355 . S
C312 C314 1.419 . S
C313 C308 1.425 . S
C313 C310 1.409 . S
C313 C311 1.415 . S
C314 H304 0.930 . S
C314 C312 1.419 . S
C314 C315 1.362 . S
C315 H305 0.930 . S
C315 C308 1.409 . S
C315 C314 1.362 . S
H316 C322 0.930 . S
H317 C325 0.930 . S
H318 C326 0.930 . S
H319 C327 0.930 . S
H320 C330 0.930 . S
H321 C331 0.930 . S
C322 H316 0.930 . S
C322 C323 1.355 1_465 S
C322 C324 1.415 . S
C323 C322 1.355 1_645 S
C323 C325 1.419 . S
C324 C322 1.415 . S
C324 C329 1.425 1_465 S
C324 C331 1.409 . S
C325 H317 0.930 . S
C325 C323 1.419 . S
C325 C326 1.362 . S
C326 H318 0.930 . S
C326 C325 1.362 . S
C326 C329 1.409 . S
C327 H319 0.930 . S
C327 C328 1.355 1_655 S
C327 C329 1.415 . S
C328 C327 1.355 1_455 S
C328 C330 1.419 1_545 S
C329 C324 1.425 1_645 S
C329 C326 1.409 . S
C329 C327 1.415 . S
C330 H320 0.930 . S
C330 C328 1.419 1_565 S
C330 C331 1.362 . S
C331 H321 0.930 . S
C331 C324 1.409 . S
C331 C330 1.362 . S
H332 C338 0.930 . S
H333 C341 0.930 . S
H334 C342 0.930 . S
H335 C343 0.930 . S
H336 C346 0.930 . S
H337 C347 0.930 . S
C338 H332 0.930 . S
C338 C339 1.355 1_565 S
C338 C340 1.415 . S
C339 C338 1.355 1_545 S
C339 C341 1.419 1_455 S
C340 C338 1.415 . S
C340 C345 1.425 1_465 S
C340 C347 1.409 . S
C341 H333 0.930 . S
C341 C339 1.419 1_655 S
C341 C342 1.362 . S
C342 H334 0.930 . S
C342 C341 1.362 . S
C342 C345 1.409 . S
C343 H335 0.930 . S
C343 C344 1.355 1_655 S
C343 C345 1.415 . S
C344 C343 1.355 1_455 S
C344 C346 1.419 1_545 S
C345 C340 1.425 1_645 S
C345 C342 1.409 . S
C345 C343 1.415 . S
C346 H336 0.930 . S
C346 C344 1.419 1_565 S
C346 C347 1.362 . S
C347 H337 0.930 . S
C347 C340 1.409 . S
C347 C346 1.362 . S
H348 C354 0.930 . S
H349 C357 0.930 . S
H350 C358 0.930 . S
H351 C359 0.930 . S
H352 C362 0.930 . S
H353 C363 0.930 . S
C354 H348 0.930 . S
C354 C355 1.355 . S
C354 C356 1.415 . S
C355 C354 1.355 . S
C355 C357 1.419 . S
C356 C354 1.415 . S
C356 C361 1.425 . S
C356 C363 1.409 . S
C357 H349 0.930 . S
C357 C355 1.419 . S
C357 C358 1.362 . S
C358 H350 0.930 . S
C358 C357 1.362 . S
C358 C361 1.409 . S
C359 H351 0.930 . S
C359 C360 1.355 . S
C359 C361 1.415 . S
C360 C359 1.355 . S
C360 C362 1.419 . S
C361 C356 1.425 . S
C361 C358 1.409 . S
C361 C359 1.415 . S
C362 H352 0.930 . S
C362 C360 1.419 . S
C362 C363 1.362 . S
C363 H353 0.930 . S
C363 C356 1.409 . S
C363 C362 1.362 . S
H364 C370 0.930 . S
H365 C373 0.930 . S
H366 C374 0.930 . S
H367 C375 0.930 . S
H368 C378 0.930 . S
H369 C379 0.930 . S
C370 H364 0.930 . S
C370 C371 1.355 . S
C370 C372 1.415 . S
C371 C370 1.355 . S
C371 C373 1.419 . S
C372 C370 1.415 . S
C372 C377 1.425 . S
C372 C379 1.409 . S
C373 H365 0.930 . S
C373 C371 1.419 . S
C373 C374 1.362 . S
C374 H366 0.930 . S
C374 C373 1.362 . S
C374 C377 1.409 . S
C375 H367 0.930 . S
C375 C376 1.355 . S
C375 C377 1.415 . S
C376 C375 1.355 . S
C376 C378 1.419 . S
C377 C372 1.425 . S
C377 C374 1.409 . S
C377 C375 1.415 . S
C378 H368 0.930 . S
C378 C376 1.419 . S
C378 C379 1.362 . S
C379 H369 0.930 . S
C379 C372 1.409 . S
C379 C378 1.362 . S
C200 C173 1.450 . S
C195 C27 1.480 . S
C211 N6 1.355 . S
C216 C141 1.403 . S
C227 C16 1.460 . S
C232 C179 1.446 . S
C243 N14 1.399 . S
C248 C147 1.366 . S
C259 C57 1.473 . S
C264 C109 1.460 . S
C275 N36 1.392 . S
C280 C77 1.369 . S
C296 C115 1.387 . S
C291 C46 1.468 . S
C312 C83 1.417 . S
C307 N44 1.432 . S
C323 C10 1.403 1_655 S
C328 C89 1.338 . S
C339 C1 1.525 . S
C344 C121 1.486 . S
C360 C153 1.348 . S
C355 C40 1.389 . S
C371 C31 1.525 . S
C376 C185 1.496 . S
