# Generated by pormake.
# Topology tbo, (3,4)-cn, num edge types: 1
# Building blocks:
#     Node 0, Type 0, BuildingBlock: KAKCAD_clean_linker_0, # of connection points: 3
#     Node 1, Type 0, BuildingBlock: KAKCAD_clean_linker_0, # of connection points: 3
#     Node 2, Type 0, BuildingBlock: KAKCAD_clean_linker_0, # of connection points: 3
#     Node 3, Type 0, BuildingBlock: KAKCAD_clean_linker_0, # of connection points: 3
#     Node 4, Type 0, BuildingBlock: KAKCAD_clean_linker_0, # of connection points: 3
#     Node 5, Type 0, BuildingBlock: KAKCAD_clean_linker_0, # of connection points: 3
#     Node 6, Type 0, BuildingBlock: KAKCAD_clean_linker_0, # of connection points: 3
#     Node 7, Type 0, BuildingBlock: KAKCAD_clean_linker_0, # of connection points: 3
#     Node 8, Type 0, BuildingBlock: KAKCAD_clean_linker_0, # of connection points: 3
#     Node 9, Type 0, BuildingBlock: KAKCAD_clean_linker_0, # of connection points: 3
#     Node 10, Type 0, BuildingBlock: KAKCAD_clean_linker_0, # of connection points: 3
#     Node 11, Type 0, BuildingBlock: KAKCAD_clean_linker_0, # of connection points: 3
#     Node 12, Type 0, BuildingBlock: KAKCAD_clean_linker_0, # of connection points: 3
#     Node 13, Type 0, BuildingBlock: KAKCAD_clean_linker_0, # of connection points: 3
#     Node 14, Type 0, BuildingBlock: KAKCAD_clean_linker_0, # of connection points: 3
#     Node 15, Type 0, BuildingBlock: KAKCAD_clean_linker_0, # of connection points: 3
#     Node 16, Type 0, BuildingBlock: KAKCAD_clean_linker_0, # of connection points: 3
#     Node 17, Type 0, BuildingBlock: KAKCAD_clean_linker_0, # of connection points: 3
#     Node 18, Type 0, BuildingBlock: KAKCAD_clean_linker_0, # of connection points: 3
#     Node 19, Type 0, BuildingBlock: KAKCAD_clean_linker_0, # of connection points: 3
#     Node 20, Type 0, BuildingBlock: KAKCAD_clean_linker_0, # of connection points: 3
#     Node 21, Type 0, BuildingBlock: KAKCAD_clean_linker_0, # of connection points: 3
#     Node 22, Type 0, BuildingBlock: KAKCAD_clean_linker_0, # of connection points: 3
#     Node 23, Type 0, BuildingBlock: KAKCAD_clean_linker_0, # of connection points: 3
#     Node 24, Type 0, BuildingBlock: KAKCAD_clean_linker_0, # of connection points: 3
#     Node 25, Type 0, BuildingBlock: KAKCAD_clean_linker_0, # of connection points: 3
#     Node 26, Type 0, BuildingBlock: KAKCAD_clean_linker_0, # of connection points: 3
#     Node 27, Type 0, BuildingBlock: KAKCAD_clean_linker_0, # of connection points: 3
#     Node 28, Type 0, BuildingBlock: KAKCAD_clean_linker_0, # of connection points: 3
#     Node 29, Type 0, BuildingBlock: KAKCAD_clean_linker_0, # of connection points: 3
#     Node 30, Type 0, BuildingBlock: KAKCAD_clean_linker_0, # of connection points: 3
#     Node 31, Type 0, BuildingBlock: KAKCAD_clean_linker_0, # of connection points: 3
#     Node 32, Type 1, BuildingBlock: ESEHIV_clean_sbu_0, # of connection points: 4
#     Node 33, Type 1, BuildingBlock: ESEHIV_clean_sbu_0, # of connection points: 4
#     Node 34, Type 1, BuildingBlock: ESEHIV_clean_sbu_0, # of connection points: 4
#     Node 35, Type 1, BuildingBlock: ESEHIV_clean_sbu_0, # of connection points: 4
#     Node 36, Type 1, BuildingBlock: ESEHIV_clean_sbu_0, # of connection points: 4
#     Node 37, Type 1, BuildingBlock: ESEHIV_clean_sbu_0, # of connection points: 4
#     Node 38, Type 1, BuildingBlock: ESEHIV_clean_sbu_0, # of connection points: 4
#     Node 39, Type 1, BuildingBlock: ESEHIV_clean_sbu_0, # of connection points: 4
#     Node 40, Type 1, BuildingBlock: ESEHIV_clean_sbu_0, # of connection points: 4
#     Node 41, Type 1, BuildingBlock: ESEHIV_clean_sbu_0, # of connection points: 4
#     Node 42, Type 1, BuildingBlock: ESEHIV_clean_sbu_0, # of connection points: 4
#     Node 43, Type 1, BuildingBlock: ESEHIV_clean_sbu_0, # of connection points: 4
#     Node 44, Type 1, BuildingBlock: ESEHIV_clean_sbu_0, # of connection points: 4
#     Node 45, Type 1, BuildingBlock: ESEHIV_clean_sbu_0, # of connection points: 4
#     Node 46, Type 1, BuildingBlock: ESEHIV_clean_sbu_0, # of connection points: 4
#     Node 47, Type 1, BuildingBlock: ESEHIV_clean_sbu_0, # of connection points: 4
#     Node 48, Type 1, BuildingBlock: ESEHIV_clean_sbu_0, # of connection points: 4
#     Node 49, Type 1, BuildingBlock: ESEHIV_clean_sbu_0, # of connection points: 4
#     Node 50, Type 1, BuildingBlock: ESEHIV_clean_sbu_0, # of connection points: 4
#     Node 51, Type 1, BuildingBlock: ESEHIV_clean_sbu_0, # of connection points: 4
#     Node 52, Type 1, BuildingBlock: ESEHIV_clean_sbu_0, # of connection points: 4
#     Node 53, Type 1, BuildingBlock: ESEHIV_clean_sbu_0, # of connection points: 4
#     Node 54, Type 1, BuildingBlock: ESEHIV_clean_sbu_0, # of connection points: 4
#     Node 55, Type 1, BuildingBlock: ESEHIV_clean_sbu_0, # of connection points: 4
#     Edge 56, Type (0, 1), BuildingBlock: OJICUG_clean_linker_0, # of connection points: 2
#     Edge 57, Type (0, 1), BuildingBlock: OJICUG_clean_linker_0, # of connection points: 2
#     Edge 58, Type (0, 1), BuildingBlock: OJICUG_clean_linker_0, # of connection points: 2
#     Edge 59, Type (0, 1), BuildingBlock: OJICUG_clean_linker_0, # of connection points: 2
#     Edge 60, Type (0, 1), BuildingBlock: OJICUG_clean_linker_0, # of connection points: 2
#     Edge 61, Type (0, 1), BuildingBlock: OJICUG_clean_linker_0, # of connection points: 2
#     Edge 62, Type (0, 1), BuildingBlock: OJICUG_clean_linker_0, # of connection points: 2
#     Edge 63, Type (0, 1), BuildingBlock: OJICUG_clean_linker_0, # of connection points: 2
#     Edge 64, Type (0, 1), BuildingBlock: OJICUG_clean_linker_0, # of connection points: 2
#     Edge 65, Type (0, 1), BuildingBlock: OJICUG_clean_linker_0, # of connection points: 2
#     Edge 66, Type (0, 1), BuildingBlock: OJICUG_clean_linker_0, # of connection points: 2
#     Edge 67, Type (0, 1), BuildingBlock: OJICUG_clean_linker_0, # of connection points: 2
#     Edge 68, Type (0, 1), BuildingBlock: OJICUG_clean_linker_0, # of connection points: 2
#     Edge 69, Type (0, 1), BuildingBlock: OJICUG_clean_linker_0, # of connection points: 2
#     Edge 70, Type (0, 1), BuildingBlock: OJICUG_clean_linker_0, # of connection points: 2
#     Edge 71, Type (0, 1), BuildingBlock: OJICUG_clean_linker_0, # of connection points: 2
#     Edge 72, Type (0, 1), BuildingBlock: OJICUG_clean_linker_0, # of connection points: 2
#     Edge 73, Type (0, 1), BuildingBlock: OJICUG_clean_linker_0, # of connection points: 2
#     Edge 74, Type (0, 1), BuildingBlock: OJICUG_clean_linker_0, # of connection points: 2
#     Edge 75, Type (0, 1), BuildingBlock: OJICUG_clean_linker_0, # of connection points: 2
#     Edge 76, Type (0, 1), BuildingBlock: OJICUG_clean_linker_0, # of connection points: 2
#     Edge 77, Type (0, 1), BuildingBlock: OJICUG_clean_linker_0, # of connection points: 2
#     Edge 78, Type (0, 1), BuildingBlock: OJICUG_clean_linker_0, # of connection points: 2
#     Edge 79, Type (0, 1), BuildingBlock: OJICUG_clean_linker_0, # of connection points: 2
#     Edge 80, Type (0, 1), BuildingBlock: OJICUG_clean_linker_0, # of connection points: 2
#     Edge 81, Type (0, 1), BuildingBlock: OJICUG_clean_linker_0, # of connection points: 2
#     Edge 82, Type (0, 1), BuildingBlock: OJICUG_clean_linker_0, # of connection points: 2
#     Edge 83, Type (0, 1), BuildingBlock: OJICUG_clean_linker_0, # of connection points: 2
#     Edge 84, Type (0, 1), BuildingBlock: OJICUG_clean_linker_0, # of connection points: 2
#     Edge 85, Type (0, 1), BuildingBlock: OJICUG_clean_linker_0, # of connection points: 2
#     Edge 86, Type (0, 1), BuildingBlock: OJICUG_clean_linker_0, # of connection points: 2
#     Edge 87, Type (0, 1), BuildingBlock: OJICUG_clean_linker_0, # of connection points: 2
#     Edge 88, Type (0, 1), BuildingBlock: OJICUG_clean_linker_0, # of connection points: 2
#     Edge 89, Type (0, 1), BuildingBlock: OJICUG_clean_linker_0, # of connection points: 2
#     Edge 90, Type (0, 1), BuildingBlock: OJICUG_clean_linker_0, # of connection points: 2
#     Edge 91, Type (0, 1), BuildingBlock: OJICUG_clean_linker_0, # of connection points: 2
#     Edge 92, Type (0, 1), BuildingBlock: OJICUG_clean_linker_0, # of connection points: 2
#     Edge 93, Type (0, 1), BuildingBlock: OJICUG_clean_linker_0, # of connection points: 2
#     Edge 94, Type (0, 1), BuildingBlock: OJICUG_clean_linker_0, # of connection points: 2
#     Edge 95, Type (0, 1), BuildingBlock: OJICUG_clean_linker_0, # of connection points: 2
#     Edge 96, Type (0, 1), BuildingBlock: OJICUG_clean_linker_0, # of connection points: 2
#     Edge 97, Type (0, 1), BuildingBlock: OJICUG_clean_linker_0, # of connection points: 2
#     Edge 98, Type (0, 1), BuildingBlock: OJICUG_clean_linker_0, # of connection points: 2
#     Edge 99, Type (0, 1), BuildingBlock: OJICUG_clean_linker_0, # of connection points: 2
#     Edge 100, Type (0, 1), BuildingBlock: OJICUG_clean_linker_0, # of connection points: 2
#     Edge 101, Type (0, 1), BuildingBlock: OJICUG_clean_linker_0, # of connection points: 2
#     Edge 102, Type (0, 1), BuildingBlock: OJICUG_clean_linker_0, # of connection points: 2
#     Edge 103, Type (0, 1), BuildingBlock: OJICUG_clean_linker_0, # of connection points: 2
#     Edge 104, Type (0, 1), BuildingBlock: OJICUG_clean_linker_0, # of connection points: 2
#     Edge 105, Type (0, 1), BuildingBlock: OJICUG_clean_linker_0, # of connection points: 2
#     Edge 106, Type (0, 1), BuildingBlock: OJICUG_clean_linker_0, # of connection points: 2
#     Edge 107, Type (0, 1), BuildingBlock: OJICUG_clean_linker_0, # of connection points: 2
#     Edge 108, Type (0, 1), BuildingBlock: OJICUG_clean_linker_0, # of connection points: 2
#     Edge 109, Type (0, 1), BuildingBlock: OJICUG_clean_linker_0, # of connection points: 2
#     Edge 110, Type (0, 1), BuildingBlock: OJICUG_clean_linker_0, # of connection points: 2
#     Edge 111, Type (0, 1), BuildingBlock: OJICUG_clean_linker_0, # of connection points: 2
#     Edge 112, Type (0, 1), BuildingBlock: OJICUG_clean_linker_0, # of connection points: 2
#     Edge 113, Type (0, 1), BuildingBlock: OJICUG_clean_linker_0, # of connection points: 2
#     Edge 114, Type (0, 1), BuildingBlock: OJICUG_clean_linker_0, # of connection points: 2
#     Edge 115, Type (0, 1), BuildingBlock: OJICUG_clean_linker_0, # of connection points: 2
#     Edge 116, Type (0, 1), BuildingBlock: OJICUG_clean_linker_0, # of connection points: 2
#     Edge 117, Type (0, 1), BuildingBlock: OJICUG_clean_linker_0, # of connection points: 2
#     Edge 118, Type (0, 1), BuildingBlock: OJICUG_clean_linker_0, # of connection points: 2
#     Edge 119, Type (0, 1), BuildingBlock: OJICUG_clean_linker_0, # of connection points: 2
#     Edge 120, Type (0, 1), BuildingBlock: OJICUG_clean_linker_0, # of connection points: 2
#     Edge 121, Type (0, 1), BuildingBlock: OJICUG_clean_linker_0, # of connection points: 2
#     Edge 122, Type (0, 1), BuildingBlock: OJICUG_clean_linker_0, # of connection points: 2
#     Edge 123, Type (0, 1), BuildingBlock: OJICUG_clean_linker_0, # of connection points: 2
#     Edge 124, Type (0, 1), BuildingBlock: OJICUG_clean_linker_0, # of connection points: 2
#     Edge 125, Type (0, 1), BuildingBlock: OJICUG_clean_linker_0, # of connection points: 2
#     Edge 126, Type (0, 1), BuildingBlock: OJICUG_clean_linker_0, # of connection points: 2
#     Edge 127, Type (0, 1), BuildingBlock: OJICUG_clean_linker_0, # of connection points: 2
#     Edge 128, Type (0, 1), BuildingBlock: OJICUG_clean_linker_0, # of connection points: 2
#     Edge 129, Type (0, 1), BuildingBlock: OJICUG_clean_linker_0, # of connection points: 2
#     Edge 130, Type (0, 1), BuildingBlock: OJICUG_clean_linker_0, # of connection points: 2
#     Edge 131, Type (0, 1), BuildingBlock: OJICUG_clean_linker_0, # of connection points: 2
#     Edge 132, Type (0, 1), BuildingBlock: OJICUG_clean_linker_0, # of connection points: 2
#     Edge 133, Type (0, 1), BuildingBlock: OJICUG_clean_linker_0, # of connection points: 2
#     Edge 134, Type (0, 1), BuildingBlock: OJICUG_clean_linker_0, # of connection points: 2
#     Edge 135, Type (0, 1), BuildingBlock: OJICUG_clean_linker_0, # of connection points: 2
#     Edge 136, Type (0, 1), BuildingBlock: OJICUG_clean_linker_0, # of connection points: 2
#     Edge 137, Type (0, 1), BuildingBlock: OJICUG_clean_linker_0, # of connection points: 2
#     Edge 138, Type (0, 1), BuildingBlock: OJICUG_clean_linker_0, # of connection points: 2
#     Edge 139, Type (0, 1), BuildingBlock: OJICUG_clean_linker_0, # of connection points: 2
#     Edge 140, Type (0, 1), BuildingBlock: OJICUG_clean_linker_0, # of connection points: 2
#     Edge 141, Type (0, 1), BuildingBlock: OJICUG_clean_linker_0, # of connection points: 2
#     Edge 142, Type (0, 1), BuildingBlock: OJICUG_clean_linker_0, # of connection points: 2
#     Edge 143, Type (0, 1), BuildingBlock: OJICUG_clean_linker_0, # of connection points: 2
#     Edge 144, Type (0, 1), BuildingBlock: OJICUG_clean_linker_0, # of connection points: 2
#     Edge 145, Type (0, 1), BuildingBlock: OJICUG_clean_linker_0, # of connection points: 2
#     Edge 146, Type (0, 1), BuildingBlock: OJICUG_clean_linker_0, # of connection points: 2
#     Edge 147, Type (0, 1), BuildingBlock: OJICUG_clean_linker_0, # of connection points: 2
#     Edge 148, Type (0, 1), BuildingBlock: OJICUG_clean_linker_0, # of connection points: 2
#     Edge 149, Type (0, 1), BuildingBlock: OJICUG_clean_linker_0, # of connection points: 2
#     Edge 150, Type (0, 1), BuildingBlock: OJICUG_clean_linker_0, # of connection points: 2
#     Edge 151, Type (0, 1), BuildingBlock: OJICUG_clean_linker_0, # of connection points: 2
# Relax obj value: 0.003
# Max RMSD: 0.122
# Mean RMSD: 0.050
data_MOF--net-tbo--node1-ESEHIV_clean_sbu_0--node2-KAKCAD_clean_linker_0--edge1-OJICUG_clean_linker_0
_symmetry_space_group_name_H-M    P1
_symmetry_Int_Tables_number       1
_symmetry_cell_setting            triclinic
loop_
_symmetry_equiv_pos_as_xyz
'x, y, z'
_cell_length_a     71.083292
_cell_length_b     70.91528
_cell_length_c     70.838629
_cell_angle_alpha  90.386577
_cell_angle_beta   92.276595
_cell_angle_gamma 90.984612
loop_
_atom_site_label
_atom_site_type_symbol
_atom_site_fract_x
_atom_site_fract_y
_atom_site_fract_z
_atom_type_partial_charge
C0 C 0.19909 0.19001 0.13273 0.0
C1 C 0.19819 0.20977 0.13158 0.0
C2 C 0.19329 0.18058 0.14884 0.0
C3 C 0.1865 0.19069 0.16423 0.0
C4 C 0.18545 0.21044 0.16299 0.0
C5 C 0.19118 0.21986 0.14685 0.0
C6 C 0.18084 0.18077 0.18167 0.0
C7 C 0.19143 0.16565 0.18892 0.0
C8 C 0.18665 0.15689 0.20582 0.0
C9 C 0.17105 0.1633 0.21547 0.0
C10 C 0.15998 0.17808 0.20832 0.0
C11 C 0.16501 0.18668 0.19135 0.0
C12 C 0.14325 0.18449 0.21865 0.0
C13 C 0.13196 0.17149 0.22824 0.0
C14 C 0.13854 0.20367 0.21922 0.0
C15 C 0.12303 0.20967 0.22909 0.0
C16 C 0.11189 0.1967 0.23891 0.0
C17 C 0.19772 0.14092 0.2136 0.0
C18 C 0.20178 0.12526 0.20224 0.0
C19 C 0.20291 0.14057 0.23292 0.0
C20 C 0.21075 0.12447 0.24098 0.0
C21 C 0.2135 0.10826 0.22996 0.0
C22 C 0.20959 0.10903 0.21037 0.0
C23 C 0.11662 0.17752 0.23833 0.0
H24 H 0.20417 0.18179 0.12109 0.0
H25 H 0.194 0.16534 0.14917 0.0
H26 H 0.1806 0.21873 0.17468 0.0
H27 H 0.19057 0.2351 0.14654 0.0
H28 H 0.20376 0.16105 0.18177 0.0
H29 H 0.15638 0.19778 0.18543 0.0
H30 H 0.16753 0.15666 0.22862 0.0
H31 H 0.13487 0.15656 0.22791 0.0
H32 H 0.14697 0.21418 0.21223 0.0
H33 H 0.11972 0.22451 0.22887 0.0
H34 H 0.19792 0.12516 0.18729 0.0
H35 H 0.20032 0.15257 0.24194 0.0
H36 H 0.10862 0.16708 0.24587 0.0
H37 H 0.21149 0.09674 0.20154 0.0
H38 H 0.21396 0.12443 0.25606 0.0
C39 C 0.91458 0.24394 0.19909 0.0
C40 C 0.92979 0.2318 0.20254 0.0
C41 C 0.89862 0.23773 0.18835 0.0
C42 C 0.89756 0.21925 0.18102 0.0
C43 C 0.91324 0.20763 0.18336 0.0
C44 C 0.92922 0.21388 0.19384 0.0
C45 C 0.8796 0.21134 0.17271 0.0
C46 C 0.86996 0.22023 0.15769 0.0
C47 C 0.8527 0.21278 0.15006 0.0
C48 C 0.84521 0.19612 0.15802 0.0
C49 C 0.85492 0.1869 0.17299 0.0
C50 C 0.87203 0.19475 0.18017 0.0
C51 C 0.84748 0.16918 0.18152 0.0
C52 C 0.82845 0.16719 0.18599 0.0
C53 C 0.85983 0.15454 0.18644 0.0
C54 C 0.85354 0.1387 0.19619 0.0
C55 C 0.83468 0.13695 0.20127 0.0
C56 C 0.84293 0.22229 0.13361 0.0
C57 C 0.84425 0.242 0.13148 0.0
C58 C 0.83282 0.21181 0.11948 0.0
C59 C 0.82458 0.22073 0.10364 0.0
C60 C 0.82643 0.24039 0.10125 0.0
C61 C 0.83637 0.25085 0.11551 0.0
C62 C 0.82212 0.15126 0.19576 0.0
H63 H 0.91451 0.25778 0.20564 0.0
H64 H 0.88668 0.24695 0.18675 0.0
H65 H 0.91287 0.19343 0.17761 0.0
H66 H 0.94085 0.20433 0.19581 0.0
H67 H 0.87632 0.23269 0.15167 0.0
H68 H 0.87936 0.18816 0.19204 0.0
H69 H 0.83191 0.19024 0.15258 0.0
H70 H 0.81858 0.17824 0.18257 0.0
H71 H 0.8745 0.1554 0.1829 0.0
H72 H 0.86352 0.12779 0.19975 0.0
H73 H 0.85149 0.25075 0.14214 0.0
H74 H 0.83156 0.19662 0.12037 0.0
H75 H 0.80751 0.15045 0.19951 0.0
H76 H 0.83848 0.26593 0.11428 0.0
H77 H 0.81677 0.2121 0.09329 0.0
C78 C 0.83658 0.83012 0.12433 0.0
C79 C 0.8337 0.84117 0.10809 0.0
C80 C 0.84033 0.83862 0.14202 0.0
C81 C 0.84126 0.85838 0.14393 0.0
C82 C 0.83836 0.86942 0.12769 0.0
C83 C 0.83464 0.86093 0.11002 0.0
C84 C 0.84545 0.86749 0.16273 0.0
C85 C 0.85926 0.86012 0.17518 0.0
C86 C 0.86366 0.86866 0.19285 0.0
C87 C 0.85409 0.88513 0.19787 0.0
C88 C 0.84018 0.89287 0.18554 0.0
C89 C 0.83591 0.88375 0.16812 0.0
C90 C 0.83017 0.91056 0.1905 0.0
C91 C 0.8245 0.91406 0.20899 0.0
C92 C 0.82594 0.92405 0.17653 0.0
C93 C 0.81631 0.94047 0.18086 0.0
C94 C 0.81068 0.94405 0.19935 0.0
C95 C 0.87863 0.86036 0.20556 0.0
C96 C 0.88008 0.84065 0.20712 0.0
C97 C 0.89219 0.87183 0.21532 0.0
C98 C 0.90719 0.86377 0.22575 0.0
C99 C 0.90902 0.84404 0.22661 0.0
C100 C 0.89507 0.83262 0.21743 0.0
C101 C 0.81487 0.93056 0.21335 0.0
H102 H 0.83608 0.81487 0.12337 0.0
H103 H 0.84232 0.82968 0.15425 0.0
H104 H 0.83917 0.88466 0.12858 0.0
H105 H 0.83222 0.86991 0.09789 0.0
H106 H 0.86706 0.84795 0.17083 0.0
H107 H 0.82487 0.88916 0.15878 0.0
H108 H 0.85755 0.89196 0.21131 0.0
H109 H 0.82732 0.90395 0.22009 0.0
H110 H 0.83026 0.92205 0.16217 0.0
H111 H 0.81322 0.95036 0.16962 0.0
H112 H 0.86969 0.83134 0.20018 0.0
H113 H 0.89163 0.88704 0.21434 0.0
H114 H 0.81101 0.93289 0.2278 0.0
H115 H 0.89576 0.8174 0.21814 0.0
H116 H 0.91773 0.87299 0.23258 0.0
C117 C 0.19151 0.81704 0.11361 0.0
C118 C 0.21126 0.81905 0.11586 0.0
C119 C 0.17982 0.82103 0.12859 0.0
C120 C 0.18756 0.82732 0.14612 0.0
C121 C 0.20726 0.82908 0.14845 0.0
C122 C 0.21892 0.82495 0.13359 0.0
C123 C 0.17538 0.83257 0.16194 0.0
C124 C 0.16033 0.82078 0.1673 0.0
C125 C 0.15021 0.82523 0.18336 0.0
C126 C 0.15492 0.84169 0.19375 0.0
C127 C 0.16935 0.85402 0.18828 0.0
C128 C 0.17944 0.84929 0.17227 0.0
C129 C 0.17414 0.87148 0.1996 0.0
C130 C 0.16008 0.88141 0.20876 0.0
C131 C 0.19287 0.87816 0.20175 0.0
C132 C 0.19739 0.89417 0.21276 0.0
C133 C 0.18341 0.90381 0.22232 0.0
C134 C 0.13506 0.81269 0.19027 0.0
C135 C 0.11783 0.81031 0.18001 0.0
C136 C 0.13675 0.80562 0.2087 0.0
C137 C 0.12119 0.79764 0.21726 0.0
C138 C 0.10349 0.79668 0.20767 0.0
C139 C 0.10212 0.80234 0.18866 0.0
C140 C 0.16466 0.89719 0.22009 0.0
H141 H 0.18501 0.81273 0.10015 0.0
H142 H 0.16469 0.81965 0.12632 0.0
H143 H 0.21371 0.83357 0.16189 0.0
H144 H 0.23402 0.82622 0.13612 0.0
H145 H 0.15705 0.80783 0.15956 0.0
H146 H 0.19046 0.85872 0.16765 0.0
H147 H 0.14735 0.8447 0.20638 0.0
H148 H 0.14544 0.87702 0.20722 0.0
H149 H 0.20419 0.87086 0.1952 0.0
H150 H 0.21194 0.89896 0.21369 0.0
H151 H 0.11617 0.8158 0.16582 0.0
H152 H 0.1499 0.80724 0.21687 0.0
H153 H 0.15346 0.90397 0.22732 0.0
H154 H 0.08866 0.80183 0.18095 0.0
H155 H 0.12277 0.79314 0.23182 0.0
C156 C 0.11323 0.82134 0.84528 0.0
C157 C 0.11068 0.81775 0.82573 0.0
C158 C 0.13077 0.82724 0.85307 0.0
C159 C 0.14609 0.83003 0.84147 0.0
C160 C 0.14353 0.8268 0.82192 0.0
C161 C 0.12608 0.82065 0.81415 0.0
C162 C 0.16454 0.837 0.84954 0.0
C163 C 0.17325 0.82843 0.86539 0.0
C164 C 0.19099 0.8349 0.87262 0.0
C165 C 0.19971 0.85048 0.86391 0.0
C166 C 0.19108 0.85921 0.84807 0.0
C167 C 0.17352 0.85231 0.8411 0.0
C168 C 0.20003 0.87558 0.83856 0.0
C169 C 0.20808 0.89082 0.84902 0.0
C170 C 0.19939 0.87658 0.81872 0.0
C171 C 0.20586 0.89268 0.80957 0.0
C172 C 0.21323 0.90824 0.81998 0.0
C173 C 0.20063 0.82511 0.88888 0.0
C174 C 0.19056 0.81871 0.90443 0.0
C175 C 0.22012 0.82204 0.88895 0.0
C176 C 0.22937 0.81339 0.9043 0.0
C177 C 0.21947 0.80758 0.92014 0.0
C178 C 0.19986 0.81005 0.91986 0.0
C179 C 0.21463 0.90698 0.83982 0.0
H180 H 0.10165 0.81964 0.85464 0.0
H181 H 0.13227 0.82995 0.86813 0.0
H182 H 0.15516 0.82877 0.81265 0.0
H183 H 0.12482 0.81772 0.79913 0.0
H184 H 0.16647 0.81632 0.87165 0.0
H185 H 0.16652 0.85919 0.8292 0.0
H186 H 0.21326 0.85576 0.86937 0.0
H187 H 0.20868 0.89054 0.86432 0.0
H188 H 0.19366 0.86494 0.81021 0.0
H189 H 0.20502 0.89295 0.79428 0.0
H190 H 0.17555 0.82089 0.90492 0.0
H191 H 0.22829 0.82629 0.87706 0.0
H192 H 0.2202 0.91873 0.84827 0.0
H193 H 0.19181 0.80591 0.93186 0.0
H194 H 0.24442 0.81139 0.90382 0.0
C195 C 0.24712 0.17618 0.94094 0.0
C196 C 0.2505 0.19546 0.94478 0.0
C197 C 0.23933 0.1702 0.92338 0.0
C198 C 0.23464 0.18336 0.90927 0.0
C199 C 0.23852 0.20258 0.91292 0.0
C200 C 0.24637 0.20855 0.93042 0.0
C201 C 0.22496 0.17719 0.89114 0.0
C202 C 0.20941 0.18716 0.88382 0.0
C203 C 0.19949 0.18119 0.86718 0.0
C204 C 0.20586 0.16521 0.85749 0.0
C205 C 0.22154 0.155 0.86448 0.0
C206 C 0.23082 0.16111 0.88145 0.0
C207 C 0.22799 0.1377 0.85445 0.0
C208 C 0.21494 0.12526 0.84524 0.0
C209 C 0.24724 0.13321 0.85431 0.0
C210 C 0.25319 0.11665 0.84559 0.0
C211 C 0.2401 0.10415 0.83651 0.0
C212 C 0.18228 0.19149 0.86035 0.0
C213 C 0.16982 0.19894 0.87334 0.0
C214 C 0.17814 0.19413 0.84096 0.0
C215 C 0.16212 0.20402 0.83478 0.0
C216 C 0.14979 0.21166 0.84783 0.0
C217 C 0.15396 0.20895 0.8672 0.0
C218 C 0.22091 0.10887 0.8363 0.0
H219 H 0.25027 0.1657 0.95161 0.0
H220 H 0.23642 0.1553 0.92109 0.0
H221 H 0.23528 0.21307 0.90229 0.0
H222 H 0.24856 0.22352 0.93292 0.0
H223 H 0.20488 0.19953 0.89132 0.0
H224 H 0.2426 0.15326 0.88727 0.0
H225 H 0.19846 0.1606 0.84459 0.0
H226 H 0.2 0.12797 0.84516 0.0
H227 H 0.25782 0.14252 0.86092 0.0
H228 H 0.26806 0.11358 0.84622 0.0
H229 H 0.17223 0.19696 0.88838 0.0
H230 H 0.18741 0.18878 0.83048 0.0
H231 H 0.21034 0.09995 0.82913 0.0
H232 H 0.14508 0.21478 0.87777 0.0
H233 H 0.15934 0.20552 0.81974 0.0
C234 C 0.85659 0.12641 0.80894 0.0
C235 C 0.83679 0.12703 0.80816 0.0
C236 C 0.86745 0.14234 0.81447 0.0
C237 C 0.85876 0.1593 0.81926 0.0
C238 C 0.83896 0.15998 0.81804 0.0
C239 C 0.82814 0.14406 0.81265 0.0
C240 C 0.8701 0.17608 0.82617 0.0
C241 C 0.88725 0.18116 0.81815 0.0
C242 C 0.89772 0.19715 0.82469 0.0
C243 C 0.8906 0.20821 0.83935 0.0
C244 C 0.8735 0.2033 0.84764 0.0
C245 C 0.86362 0.18707 0.84106 0.0
C246 C 0.8659 0.21469 0.86342 0.0
C247 C 0.87792 0.22277 0.87762 0.0
C248 C 0.84634 0.2168 0.86485 0.0
C249 C 0.83897 0.22595 0.88039 0.0
C250 C 0.85093 0.23362 0.89488 0.0
C251 C 0.91619 0.20215 0.81638 0.0
C252 C 0.92911 0.18804 0.81216 0.0
C253 C 0.92127 0.22106 0.81296 0.0
C254 C 0.93887 0.22574 0.80587 0.0
C255 C 0.95195 0.21166 0.80204 0.0
C256 C 0.94673 0.19273 0.80512 0.0
C257 C 0.87055 0.2322 0.89307 0.0
H258 H 0.86369 0.11347 0.80569 0.0
H259 H 0.88263 0.14122 0.81544 0.0
H260 H 0.83176 0.17289 0.82121 0.0
H261 H 0.81294 0.14514 0.81182 0.0
H262 H 0.89226 0.1729 0.80651 0.0
H263 H 0.85094 0.18263 0.84792 0.0
H264 H 0.89846 0.22058 0.8444 0.0
H265 H 0.89303 0.2214 0.87714 0.0
H266 H 0.83659 0.21117 0.85402 0.0
H267 H 0.82382 0.22652 0.88122 0.0
H268 H 0.92579 0.17334 0.81473 0.0
H269 H 0.91163 0.2323 0.8158 0.0
H270 H 0.8803 0.23825 0.90365 0.0
H271 H 0.95632 0.18148 0.80219 0.0
H272 H 0.94242 0.24049 0.8039 0.0
C273 C 0.80901 0.86443 0.88773 0.0
C274 C 0.81907 0.86423 0.90522 0.0
C275 C 0.81819 0.86881 0.87116 0.0
C276 C 0.83765 0.87265 0.87175 0.0
C277 C 0.84765 0.87273 0.88926 0.0
C278 C 0.8384 0.86875 0.90587 0.0
C279 C 0.84775 0.8754 0.85406 0.0
C280 C 0.84233 0.88943 0.84115 0.0
C281 C 0.85199 0.892 0.82435 0.0
C282 C 0.86686 0.87989 0.82039 0.0
C283 C 0.87226 0.86559 0.83309 0.0
C284 C 0.86275 0.86365 0.84999 0.0
C285 C 0.88745 0.85228 0.8286 0.0
C286 C 0.88808 0.84409 0.81053 0.0
C287 C 0.90103 0.84716 0.84253 0.0
C288 C 0.91492 0.83415 0.83848 0.0
C289 C 0.91553 0.82587 0.82042 0.0
C290 C 0.84674 0.90754 0.81118 0.0
C291 C 0.82773 0.91147 0.80693 0.0
C292 C 0.8607 0.91895 0.80323 0.0
C293 C 0.85576 0.93423 0.79173 0.0
C294 C 0.83673 0.93838 0.78778 0.0
C295 C 0.82279 0.92666 0.79534 0.0
C296 C 0.9019 0.831 0.80651 0.0
H297 H 0.79409 0.86101 0.88689 0.0
H298 H 0.81023 0.86856 0.85779 0.0
H299 H 0.86267 0.87566 0.89004 0.0
H300 H 0.84649 0.86856 0.91916 0.0
H301 H 0.83093 0.89868 0.8445 0.0
H302 H 0.86659 0.85252 0.85976 0.0
H303 H 0.87424 0.88158 0.80739 0.0
H304 H 0.87763 0.84748 0.79959 0.0
H305 H 0.90103 0.85337 0.85654 0.0
H306 H 0.92536 0.83082 0.84945 0.0
H307 H 0.81663 0.90285 0.81265 0.0
H308 H 0.87548 0.91641 0.80632 0.0
H309 H 0.9017 0.8247 0.79254 0.0
H310 H 0.808 0.92955 0.79279 0.0
H311 H 0.86685 0.94289 0.78605 0.0
C312 C 0.22113 0.70558 0.6148 0.0
C313 C 0.21888 0.7249 0.61092 0.0
C314 C 0.21392 0.69747 0.63102 0.0
C315 C 0.20435 0.70841 0.64408 0.0
C316 C 0.2021 0.72775 0.64028 0.0
C317 C 0.20928 0.73589 0.62395 0.0
C318 C 0.1969 0.6996 0.66155 0.0
C319 C 0.20704 0.68528 0.67112 0.0
C320 C 0.20011 0.67697 0.68746 0.0
C321 C 0.18289 0.68276 0.69412 0.0
C322 C 0.17223 0.69648 0.68468 0.0
C323 C 0.17943 0.70511 0.66856 0.0
C324 C 0.15351 0.70122 0.69196 0.0
C325 C 0.14144 0.68668 0.69789 0.0
C326 C 0.14829 0.72002 0.69471 0.0
C327 C 0.13184 0.72415 0.70412 0.0
C328 C 0.12035 0.70954 0.71097 0.0
C329 C 0.21005 0.6616 0.6976 0.0
C330 C 0.21229 0.64405 0.68877 0.0
C331 C 0.2145 0.66347 0.71703 0.0
C332 C 0.22038 0.64792 0.72762 0.0
C333 C 0.22164 0.63008 0.71905 0.0
C334 C 0.21792 0.62839 0.69943 0.0
C335 C 0.12513 0.69078 0.70735 0.0
H336 H 0.22873 0.69663 0.60541 0.0
H337 H 0.21576 0.68251 0.6332 0.0
H338 H 0.195 0.73672 0.65007 0.0
H339 H 0.20715 0.75076 0.62148 0.0
H340 H 0.22049 0.68082 0.66616 0.0
H341 H 0.17112 0.71559 0.66113 0.0
H342 H 0.17761 0.67626 0.70673 0.0
H343 H 0.14486 0.67203 0.69563 0.0
H344 H 0.15734 0.73151 0.69037 0.0
H345 H 0.12853 0.73877 0.70672 0.0
H346 H 0.2087 0.64222 0.67386 0.0
H347 H 0.21269 0.67684 0.72417 0.0
H348 H 0.11636 0.67922 0.71203 0.0
H349 H 0.21896 0.61485 0.6924 0.0
H350 H 0.22305 0.64967 0.74269 0.0
C351 C 0.91665 0.74495 0.68929 0.0
C352 C 0.93173 0.73235 0.69083 0.0
C353 C 0.89967 0.73952 0.67991 0.0
C354 C 0.89732 0.72131 0.67215 0.0
C355 C 0.91252 0.70897 0.67304 0.0
C356 C 0.92958 0.71451 0.68204 0.0
C357 C 0.87902 0.715 0.66333 0.0
C358 C 0.87084 0.72515 0.6483 0.0
C359 C 0.85382 0.71894 0.63935 0.0
C360 C 0.84474 0.70265 0.64609 0.0
C361 C 0.85267 0.69233 0.66124 0.0
C362 C 0.86996 0.69857 0.66965 0.0
C363 C 0.84299 0.67496 0.6681 0.0
C364 C 0.82334 0.67437 0.66986 0.0
C365 C 0.85329 0.65879 0.67284 0.0
C366 C 0.84419 0.64245 0.67911 0.0
C367 C 0.82453 0.64184 0.68087 0.0
C368 C 0.84598 0.729 0.62247 0.0
C369 C 0.84664 0.74882 0.62151 0.0
C370 C 0.83817 0.71876 0.60693 0.0
C371 C 0.83114 0.72805 0.5909 0.0
C372 C 0.83184 0.74785 0.58987 0.0
C373 C 0.83965 0.75814 0.60541 0.0
C374 C 0.81423 0.65804 0.67617 0.0
H375 H 0.91765 0.75872 0.696 0.0
H376 H 0.88812 0.7493 0.67931 0.0
H377 H 0.91115 0.69499 0.66683 0.0
H378 H 0.94099 0.70459 0.6824 0.0
H379 H 0.87819 0.73746 0.64311 0.0
H380 H 0.87624 0.69088 0.68141 0.0
H381 H 0.83154 0.69784 0.63937 0.0
H382 H 0.81498 0.68664 0.66661 0.0
H383 H 0.86839 0.65863 0.67138 0.0
H384 H 0.85257 0.63018 0.68228 0.0
H385 H 0.85242 0.75717 0.63329 0.0
H386 H 0.83766 0.70349 0.60702 0.0
H387 H 0.79913 0.65824 0.67763 0.0
H388 H 0.84051 0.77339 0.60508 0.0
H389 H 0.82491 0.71964 0.57938 0.0
C390 C 0.85537 0.32117 0.64261 0.0
C391 C 0.84815 0.33155 0.62718 0.0
C392 C 0.86254 0.33032 0.65903 0.0
C393 C 0.86284 0.35015 0.66049 0.0
C394 C 0.8557 0.36053 0.64498 0.0
C395 C 0.84841 0.35136 0.6286 0.0
C396 C 0.87041 0.3599 0.67814 0.0
C397 C 0.88608 0.35271 0.68845 0.0
C398 C 0.89302 0.36143 0.70534 0.0
C399 C 0.88397 0.37754 0.71191 0.0
C400 C 0.86863 0.38523 0.70172 0.0
C401 C 0.86195 0.37637 0.68486 0.0
C402 C 0.85979 0.40267 0.70874 0.0
C403 C 0.85433 0.40402 0.72753 0.0
C404 C 0.85742 0.41832 0.69692 0.0
C405 C 0.85002 0.43509 0.70382 0.0
C406 C 0.84443 0.43653 0.72266 0.0
C407 C 0.90979 0.3539 0.71609 0.0
C408 C 0.91257 0.33436 0.71768 0.0
C409 C 0.92314 0.36626 0.72504 0.0
C410 C 0.93868 0.3593 0.73538 0.0
C411 C 0.94144 0.33978 0.73691 0.0
C412 C 0.92821 0.3274 0.72789 0.0
C413 C 0.8466 0.42065 0.73436 0.0
H414 H 0.85517 0.3059 0.64214 0.0
H415 H 0.86756 0.32178 0.67074 0.0
H416 H 0.85596 0.37579 0.64535 0.0
H417 H 0.84323 0.35983 0.61691 0.0
H418 H 0.89321 0.34055 0.68304 0.0
H419 H 0.8498 0.38208 0.67732 0.0
H420 H 0.88892 0.38429 0.72499 0.0
H421 H 0.85587 0.39211 0.73693 0.0
H422 H 0.86176 0.41775 0.68243 0.0
H423 H 0.84899 0.447 0.69439 0.0
H424 H 0.90249 0.32438 0.71127 0.0
H425 H 0.92176 0.38139 0.72386 0.0
H426 H 0.84212 0.42091 0.74878 0.0
H427 H 0.92981 0.31228 0.72896 0.0
H428 H 0.94876 0.36923 0.74189 0.0
C429 C 0.21567 0.36401 0.62048 0.0
C430 C 0.22286 0.34574 0.61882 0.0
C431 C 0.20715 0.36966 0.63697 0.0
C432 C 0.20542 0.35714 0.65211 0.0
C433 C 0.21181 0.33864 0.65022 0.0
C434 C 0.22053 0.33302 0.63378 0.0
C435 C 0.19873 0.364 0.67043 0.0
C436 C 0.18471 0.35422 0.68004 0.0
C437 C 0.17874 0.36085 0.6976 0.0
C438 C 0.18732 0.37738 0.70554 0.0
C439 C 0.20168 0.38702 0.69618 0.0
C440 C 0.20706 0.38029 0.67859 0.0
C441 C 0.21137 0.40414 0.70437 0.0
C442 C 0.20108 0.41939 0.71098 0.0
C443 C 0.23111 0.40589 0.70416 0.0
C444 C 0.24032 0.42268 0.70982 0.0
C445 C 0.23002 0.43822 0.71577 0.0
C446 C 0.1638 0.35032 0.70769 0.0
C447 C 0.14785 0.34262 0.69778 0.0
C448 C 0.16544 0.34772 0.72734 0.0
C449 C 0.15145 0.33794 0.73684 0.0
C450 C 0.13532 0.33053 0.72702 0.0
C451 C 0.1338 0.33286 0.70732 0.0
C452 C 0.2103 0.43629 0.71653 0.0
H453 H 0.21679 0.37404 0.60911 0.0
H454 H 0.20218 0.38397 0.63804 0.0
H455 H 0.21084 0.3288 0.66178 0.0
H456 H 0.22607 0.31892 0.63314 0.0
H457 H 0.17855 0.34142 0.67385 0.0
H458 H 0.21799 0.38772 0.67122 0.0
H459 H 0.18294 0.38269 0.71902 0.0
H460 H 0.18586 0.41849 0.71121 0.0
H461 H 0.23945 0.39431 0.69928 0.0
H462 H 0.25549 0.42367 0.70899 0.0
H463 H 0.14601 0.34449 0.68267 0.0
H464 H 0.17768 0.35307 0.73539 0.0
H465 H 0.20197 0.44789 0.72135 0.0
H466 H 0.12151 0.32757 0.6993 0.0
H467 H 0.15334 0.33611 0.75196 0.0
C468 C 0.10692 0.33223 0.35239 0.0
C469 C 0.10379 0.32765 0.33313 0.0
C470 C 0.12438 0.3393 0.35917 0.0
C471 C 0.13905 0.34237 0.34683 0.0
C472 C 0.13563 0.33912 0.32739 0.0
C473 C 0.11819 0.33173 0.3206 0.0
C474 C 0.15823 0.34738 0.35452 0.0
C475 C 0.16666 0.33606 0.36863 0.0
C476 C 0.18502 0.34002 0.37562 0.0
C477 C 0.19477 0.35577 0.3688 0.0
C478 C 0.18639 0.36781 0.35532 0.0
C479 C 0.16815 0.36322 0.3479 0.0
C480 C 0.19675 0.38524 0.34954 0.0
C481 C 0.20826 0.39538 0.36284 0.0
C482 C 0.1957 0.39169 0.3308 0.0
C483 C 0.2062 0.40757 0.32547 0.0
C484 C 0.21817 0.41734 0.3387 0.0
C485 C 0.19419 0.32815 0.39039 0.0
C486 C 0.18543 0.32453 0.40747 0.0
C487 C 0.21261 0.32195 0.38815 0.0
C488 C 0.22256 0.31347 0.4031 0.0
C489 C 0.21441 0.31119 0.42074 0.0
C490 C 0.19548 0.31615 0.42256 0.0
C491 C 0.21893 0.41102 0.35748 0.0
H492 H 0.09603 0.32982 0.36241 0.0
H493 H 0.12658 0.34196 0.37419 0.0
H494 H 0.14677 0.34134 0.3176 0.0
H495 H 0.11636 0.32831 0.30572 0.0
H496 H 0.15911 0.32384 0.37378 0.0
H497 H 0.16139 0.37224 0.33748 0.0
H498 H 0.20898 0.35873 0.37427 0.0
H499 H 0.20914 0.39121 0.37752 0.0
H500 H 0.18707 0.38426 0.32013 0.0
H501 H 0.2049 0.41216 0.31094 0.0
H502 H 0.17123 0.32921 0.40954 0.0
H503 H 0.21958 0.32427 0.37502 0.0
H504 H 0.22808 0.41789 0.3681 0.0
H505 H 0.18882 0.31465 0.43597 0.0
H506 H 0.23698 0.30942 0.4011 0.0
C507 C 0.2113 0.70155 0.41828 0.0
C508 C 0.23097 0.70415 0.41776 0.0
C509 C 0.20074 0.69517 0.40228 0.0
C510 C 0.20955 0.69112 0.38532 0.0
C511 C 0.22919 0.69377 0.38477 0.0
C512 C 0.23973 0.70022 0.40073 0.0
C513 C 0.19838 0.68393 0.36836 0.0
C514 C 0.18081 0.69163 0.36319 0.0
C515 C 0.17023 0.68495 0.34717 0.0
C516 C 0.17744 0.67012 0.33636 0.0
C517 C 0.19503 0.66231 0.34122 0.0
C518 C 0.20533 0.66933 0.35722 0.0
C519 C 0.203 0.64684 0.32978 0.0
C520 C 0.19239 0.63044 0.32494 0.0
C521 C 0.2219 0.64791 0.32477 0.0
C522 C 0.23033 0.6326 0.31618 0.0
C523 C 0.22017 0.61567 0.3125 0.0
C524 C 0.15193 0.69385 0.34157 0.0
C525 C 0.13918 0.69907 0.3553 0.0
C526 C 0.14729 0.69772 0.32251 0.0
C527 C 0.13049 0.70678 0.31736 0.0
C528 C 0.11782 0.71218 0.33111 0.0
C529 C 0.12238 0.70809 0.35015 0.0
C530 C 0.20091 0.61497 0.31641 0.0
H531 H 0.20404 0.70412 0.43117 0.0
H532 H 0.18569 0.69305 0.40332 0.0
H533 H 0.23643 0.69109 0.37188 0.0
H534 H 0.25476 0.70237 0.39961 0.0
H535 H 0.17563 0.70329 0.37135 0.0
H536 H 0.21867 0.66304 0.36128 0.0
H537 H 0.16945 0.66473 0.32408 0.0
H538 H 0.17777 0.62922 0.32863 0.0
H539 H 0.23034 0.66048 0.32795 0.0
H540 H 0.24507 0.63382 0.31296 0.0
H541 H 0.14213 0.69606 0.37008 0.0
H542 H 0.15687 0.69418 0.31157 0.0
H543 H 0.19269 0.60214 0.31382 0.0
H544 H 0.11285 0.71168 0.36113 0.0
H545 H 0.12765 0.70991 0.30259 0.0
C546 C 0.83522 0.60201 0.30407 0.0
C547 C 0.81556 0.60138 0.30064 0.0
C548 C 0.84416 0.61808 0.31201 0.0
C549 C 0.83365 0.63386 0.31684 0.0
C550 C 0.81396 0.6331 0.31375 0.0
C551 C 0.80503 0.61706 0.30575 0.0
C552 C 0.84308 0.65099 0.32531 0.0
C553 C 0.85983 0.65835 0.31815 0.0
C554 C 0.86854 0.67477 0.32602 0.0
C555 C 0.86015 0.68381 0.34131 0.0
C556 C 0.84335 0.6766 0.34861 0.0
C557 C 0.83512 0.66012 0.34058 0.0
C558 C 0.83412 0.68589 0.36466 0.0
C559 C 0.84463 0.69245 0.38071 0.0
C560 C 0.81438 0.6871 0.3645 0.0
C561 C 0.80531 0.69378 0.38025 0.0
C562 C 0.81572 0.69964 0.39657 0.0
C563 C 0.88623 0.68248 0.31804 0.0
C564 C 0.90051 0.67031 0.31256 0.0
C565 C 0.88891 0.702 0.31556 0.0
C566 C 0.90541 0.70914 0.30783 0.0
C567 C 0.91972 0.69697 0.30242 0.0
C568 C 0.91702 0.67745 0.30489 0.0
C569 C 0.83551 0.69931 0.3965 0.0
H570 H 0.84375 0.59007 0.30057 0.0
H571 H 0.85929 0.61808 0.31452 0.0
H572 H 0.80547 0.64511 0.31715 0.0
H573 H 0.78993 0.61719 0.30304 0.0
H574 H 0.8658 0.65157 0.30607 0.0
H575 H 0.82256 0.6541 0.34652 0.0
H576 H 0.86665 0.69644 0.34751 0.0
H577 H 0.85984 0.69163 0.38134 0.0
H578 H 0.80586 0.68261 0.35221 0.0
H579 H 0.79008 0.6943 0.37968 0.0
H580 H 0.89904 0.65522 0.3144 0.0
H581 H 0.87816 0.71179 0.31942 0.0
H582 H 0.84391 0.70374 0.40889 0.0
H583 H 0.92763 0.66763 0.30077 0.0
H584 H 0.90707 0.72426 0.30638 0.0
C585 C 0.7939 0.34943 0.41653 0.0
C586 C 0.80531 0.34691 0.43299 0.0
C587 C 0.80198 0.35332 0.39916 0.0
C588 C 0.82167 0.35451 0.39783 0.0
C589 C 0.83302 0.35242 0.41437 0.0
C590 C 0.82497 0.34871 0.43169 0.0
C591 C 0.83051 0.35677 0.37919 0.0
C592 C 0.82411 0.37032 0.36604 0.0
C593 C 0.83256 0.3723 0.3484 0.0
C594 C 0.84725 0.36008 0.34404 0.0
C595 C 0.85404 0.34676 0.35709 0.0
C596 C 0.84559 0.34523 0.3746 0.0
C597 C 0.87027 0.33475 0.35255 0.0
C598 C 0.87109 0.32591 0.33479 0.0
C599 C 0.88532 0.33248 0.36577 0.0
C600 C 0.901 0.32193 0.36121 0.0
C601 C 0.90198 0.31325 0.34334 0.0
C602 C 0.8265 0.38723 0.3346 0.0
C603 C 0.80766 0.393 0.33289 0.0
C604 C 0.83961 0.39576 0.32276 0.0
C605 C 0.83402 0.40913 0.30934 0.0
C606 C 0.81519 0.41491 0.30756 0.0
C607 C 0.80213 0.40673 0.31971 0.0
C608 C 0.8867 0.31524 0.33028 0.0
H609 H 0.77872 0.34826 0.41703 0.0
H610 H 0.79286 0.35477 0.38667 0.0
H611 H 0.84821 0.35341 0.41389 0.0
H612 H 0.83425 0.34664 0.44397 0.0
H613 H 0.81298 0.37967 0.36988 0.0
H614 H 0.85051 0.33466 0.38452 0.0
H615 H 0.85368 0.36101 0.33047 0.0
H616 H 0.8596 0.32717 0.3244 0.0
H617 H 0.8852 0.33929 0.3795 0.0
H618 H 0.91257 0.32101 0.37155 0.0
H619 H 0.79704 0.38677 0.34156 0.0
H620 H 0.85436 0.39221 0.32383 0.0
H621 H 0.88671 0.30847 0.31653 0.0
H622 H 0.78757 0.41096 0.3192 0.0
H623 H 0.84458 0.41472 0.3002 0.0
C624 C 0.70973 0.20484 0.60355 0.0
C625 C 0.71417 0.22422 0.6051 0.0
C626 C 0.70221 0.19506 0.61863 0.0
C627 C 0.69875 0.20438 0.63567 0.0
C628 C 0.70196 0.224 0.63686 0.0
C629 C 0.70963 0.23383 0.62172 0.0
C630 C 0.69326 0.19326 0.65245 0.0
C631 C 0.70303 0.17673 0.6571 0.0
C632 C 0.69838 0.16592 0.67283 0.0
C633 C 0.68359 0.17178 0.68397 0.0
C634 C 0.67331 0.1881 0.67948 0.0
C635 C 0.67847 0.19891 0.66376 0.0
C636 C 0.65701 0.19348 0.69103 0.0
C637 C 0.64493 0.17953 0.69819 0.0
C638 C 0.65339 0.21251 0.69513 0.0
C639 C 0.6382 0.21739 0.70613 0.0
C640 C 0.62629 0.20339 0.71342 0.0
C641 C 0.70889 0.14842 0.67751 0.0
C642 C 0.71298 0.13536 0.66326 0.0
C643 C 0.7148 0.14456 0.69624 0.0
C644 C 0.72446 0.128 0.70063 0.0
C645 C 0.72831 0.11481 0.68643 0.0
C646 C 0.72248 0.11872 0.66768 0.0
C647 C 0.62986 0.1844 0.70928 0.0
H648 H 0.71262 0.19706 0.5908 0.0
H649 H 0.69951 0.18003 0.61711 0.0
H650 H 0.69945 0.23157 0.64982 0.0
H651 H 0.71292 0.24873 0.62341 0.0
H652 H 0.71466 0.17249 0.64868 0.0
H653 H 0.67062 0.21136 0.65992 0.0
H654 H 0.68 0.16346 0.69613 0.0
H655 H 0.64693 0.16476 0.69502 0.0
H656 H 0.66247 0.22365 0.69011 0.0
H657 H 0.63598 0.23215 0.7092 0.0
H658 H 0.70851 0.13784 0.6487 0.0
H659 H 0.71203 0.15439 0.70752 0.0
H660 H 0.62079 0.17327 0.71436 0.0
H661 H 0.7253 0.10891 0.65639 0.0
H662 H 0.72855 0.12534 0.71525 0.0
C663 C 0.41406 0.22851 0.70207 0.0
C664 C 0.42903 0.21628 0.70627 0.0
C665 C 0.39699 0.22154 0.6939 0.0
C666 C 0.39443 0.20217 0.68989 0.0
C667 C 0.40959 0.1901 0.6934 0.0
C668 C 0.42668 0.19707 0.70132 0.0
C669 C 0.37588 0.19444 0.68258 0.0
C670 C 0.36602 0.20327 0.66756 0.0
C671 C 0.34842 0.19611 0.66065 0.0
C672 C 0.34058 0.18021 0.66932 0.0
C673 C 0.35018 0.17115 0.68429 0.0
C674 C 0.36793 0.1782 0.69071 0.0
C675 C 0.3415 0.15422 0.69296 0.0
C676 C 0.32253 0.15428 0.69789 0.0
C677 C 0.35174 0.13757 0.69538 0.0
C678 C 0.34298 0.12116 0.70194 0.0
C679 C 0.32388 0.12113 0.70648 0.0
C680 C 0.33811 0.20517 0.64446 0.0
C681 C 0.33785 0.22489 0.64285 0.0
C682 C 0.32818 0.19416 0.6306 0.0
C683 C 0.3181 0.20267 0.61567 0.0
C684 C 0.31773 0.22241 0.61416 0.0
C685 C 0.32787 0.23339 0.62789 0.0
C686 C 0.31385 0.13796 0.70467 0.0
H687 H 0.41524 0.24333 0.7058 0.0
H688 H 0.38553 0.2312 0.69139 0.0
H689 H 0.40821 0.17519 0.69011 0.0
H690 H 0.43801 0.18727 0.70384 0.0
H691 H 0.37233 0.21542 0.66092 0.0
H692 H 0.37529 0.17137 0.7024 0.0
H693 H 0.32691 0.17477 0.66437 0.0
H694 H 0.31432 0.16695 0.6963 0.0
H695 H 0.36635 0.13709 0.69162 0.0
H696 H 0.35113 0.10844 0.70336 0.0
H697 H 0.34517 0.23384 0.6533 0.0
H698 H 0.32829 0.17891 0.6312 0.0
H699 H 0.29911 0.13837 0.70795 0.0
H700 H 0.3283 0.24862 0.62701 0.0
H701 H 0.31045 0.19377 0.60541 0.0
C702 C 0.35644 0.8128 0.65051 0.0
C703 C 0.34877 0.82237 0.63473 0.0
C704 C 0.36308 0.82272 0.66667 0.0
C705 C 0.36226 0.84252 0.66759 0.0
C706 C 0.35429 0.8521 0.65197 0.0
C707 C 0.34766 0.84217 0.63576 0.0
C708 C 0.37019 0.85306 0.68458 0.0
C709 C 0.38726 0.8474 0.69344 0.0
C710 C 0.39497 0.85692 0.70954 0.0
C711 C 0.38545 0.87252 0.71658 0.0
C712 C 0.36851 0.8786 0.70795 0.0
C713 C 0.36088 0.86873 0.69201 0.0
C714 C 0.35872 0.89493 0.71624 0.0
C715 C 0.33956 0.89362 0.72031 0.0
C716 C 0.36887 0.91153 0.72136 0.0
C717 C 0.36018 0.9263 0.7307 0.0
C718 C 0.3412 0.92473 0.73538 0.0
C719 C 0.41265 0.85036 0.71937 0.0
C720 C 0.41622 0.831 0.72125 0.0
C721 C 0.42583 0.86338 0.72751 0.0
C722 C 0.4419 0.85722 0.73757 0.0
C723 C 0.44535 0.83785 0.73966 0.0
C724 C 0.43237 0.82484 0.73117 0.0
C725 C 0.33093 0.9083 0.72989 0.0
H726 H 0.35719 0.79756 0.65046 0.0
H727 H 0.36878 0.8148 0.67854 0.0
H728 H 0.35361 0.86735 0.65205 0.0
H729 H 0.34207 0.85009 0.62385 0.0
H730 H 0.39479 0.83573 0.68756 0.0
H731 H 0.34768 0.87321 0.68547 0.0
H732 H 0.39089 0.87964 0.72929 0.0
H733 H 0.33141 0.88098 0.71666 0.0
H734 H 0.38364 0.91299 0.71833 0.0
H735 H 0.36849 0.93873 0.73476 0.0
H736 H 0.40635 0.82052 0.71537 0.0
H737 H 0.42375 0.87841 0.72615 0.0
H738 H 0.31621 0.90675 0.73309 0.0
H739 H 0.43466 0.80982 0.73213 0.0
H740 H 0.45144 0.86769 0.744 0.0
C741 C 0.68178 0.81503 0.60649 0.0
C742 C 0.70114 0.81229 0.60433 0.0
C743 C 0.67539 0.82438 0.62236 0.0
C744 C 0.68818 0.83148 0.63638 0.0
C745 C 0.70755 0.82937 0.63402 0.0
C746 C 0.71396 0.81978 0.61823 0.0
C747 C 0.68115 0.83984 0.65397 0.0
C748 C 0.66746 0.82996 0.6639 0.0
C749 C 0.66078 0.83716 0.68081 0.0
C750 C 0.66766 0.85476 0.68754 0.0
C751 C 0.68138 0.86496 0.67784 0.0
C752 C 0.68822 0.85725 0.6611 0.0
C753 C 0.68867 0.88343 0.68554 0.0
C754 C 0.67634 0.89648 0.69325 0.0
C755 C 0.70802 0.88791 0.6859 0.0
C756 C 0.7149 0.90483 0.69408 0.0
C757 C 0.7026 0.91775 0.70206 0.0
C758 C 0.64738 0.82582 0.69193 0.0
C759 C 0.63243 0.81545 0.68298 0.0
C760 C 0.64984 0.82485 0.71166 0.0
C761 C 0.63775 0.81381 0.72219 0.0
C762 C 0.62292 0.80327 0.7133 0.0
C763 C 0.6203 0.80432 0.69356 0.0
C764 C 0.6832 0.91339 0.7014 0.0
H765 H 0.67147 0.80995 0.5959 0.0
H766 H 0.66037 0.82599 0.62374 0.0
H767 H 0.71769 0.83454 0.64473 0.0
H768 H 0.72896 0.8178 0.61721 0.0
H769 H 0.66256 0.81622 0.6588 0.0
H770 H 0.69871 0.86494 0.65339 0.0
H771 H 0.66253 0.86044 0.70057 0.0
H772 H 0.66131 0.89364 0.69293 0.0
H773 H 0.71794 0.87809 0.68032 0.0
H774 H 0.72995 0.90757 0.69454 0.0
H775 H 0.63004 0.81602 0.66781 0.0
H776 H 0.66133 0.83241 0.71902 0.0
H777 H 0.67326 0.92313 0.70705 0.0
H778 H 0.60903 0.7964 0.68627 0.0
H779 H 0.63996 0.8137 0.7374 0.0
C780 C 0.61989 0.82494 0.33676 0.0
C781 C 0.61708 0.82132 0.31731 0.0
C782 C 0.6356 0.83548 0.34361 0.0
C783 C 0.64877 0.84291 0.33118 0.0
C784 C 0.64561 0.83989 0.31168 0.0
C785 C 0.63003 0.8291 0.30484 0.0
C786 C 0.66641 0.85246 0.33872 0.0
C787 C 0.67703 0.84388 0.3534 0.0
C788 C 0.69394 0.85213 0.36059 0.0
C789 C 0.70004 0.86934 0.35317 0.0
C790 C 0.68963 0.87852 0.33877 0.0
C791 C 0.6729 0.86976 0.33131 0.0
C792 C 0.69677 0.89714 0.33192 0.0
C793 C 0.7055 0.91004 0.34483 0.0
C794 C 0.69651 0.90159 0.31261 0.0
C795 C 0.70562 0.91803 0.30635 0.0
C796 C 0.7154 0.93034 0.31924 0.0
C797 C 0.70534 0.84305 0.37598 0.0
C798 C 0.69664 0.83487 0.39149 0.0
C799 C 0.72512 0.84319 0.37563 0.0
C800 C 0.73595 0.83573 0.39058 0.0
C801 C 0.72729 0.82776 0.40622 0.0
C802 C 0.70749 0.82729 0.40641 0.0
C803 C 0.71488 0.92615 0.33861 0.0
H804 H 0.61025 0.81914 0.34675 0.0
H805 H 0.63759 0.83765 0.35872 0.0
H806 H 0.65554 0.84531 0.30176 0.0
H807 H 0.62815 0.82677 0.28975 0.0
H808 H 0.67239 0.8304 0.35884 0.0
H809 H 0.6647 0.87659 0.3202 0.0
H810 H 0.71307 0.8757 0.35876 0.0
H811 H 0.7056 0.90742 0.35987 0.0
H812 H 0.68989 0.89205 0.30225 0.0
H813 H 0.70517 0.92088 0.29136 0.0
H814 H 0.68146 0.83464 0.39228 0.0
H815 H 0.73229 0.84912 0.36378 0.0
H816 H 0.72229 0.93491 0.34913 0.0
H817 H 0.70032 0.82096 0.41805 0.0
H818 H 0.75114 0.83646 0.38997 0.0
C819 C 0.70443 0.21474 0.41155 0.0
C820 C 0.72423 0.21657 0.4119 0.0
C821 C 0.69437 0.20829 0.39525 0.0
C822 C 0.70382 0.20336 0.37891 0.0
C823 C 0.72356 0.20537 0.3792 0.0
C824 C 0.7336 0.21191 0.39541 0.0
C825 C 0.69331 0.1958 0.36171 0.0
C826 C 0.67644 0.20404 0.35497 0.0
C827 C 0.667 0.19726 0.33835 0.0
C828 C 0.67445 0.18179 0.32869 0.0
C829 C 0.69119 0.17328 0.33519 0.0
C830 C 0.70042 0.1804 0.35176 0.0
C831 C 0.69929 0.15719 0.3246 0.0
C832 C 0.68772 0.14267 0.31651 0.0
C833 C 0.71886 0.15611 0.32278 0.0
C834 C 0.72672 0.14066 0.31386 0.0
C835 C 0.71527 0.1258 0.30641 0.0
C836 C 0.64958 0.20644 0.33062 0.0
C837 C 0.63506 0.21183 0.34242 0.0
C838 C 0.64706 0.20917 0.31105 0.0
C839 C 0.63014 0.21601 0.30336 0.0
C840 C 0.61524 0.22042 0.31499 0.0
C841 C 0.61804 0.21878 0.33467 0.0
C842 C 0.69563 0.12716 0.30746 0.0
H843 H 0.69669 0.21793 0.42399 0.0
H844 H 0.6792 0.20674 0.3956 0.0
H845 H 0.73129 0.20204 0.36676 0.0
H846 H 0.74875 0.21351 0.39491 0.0
H847 H 0.67105 0.21614 0.36229 0.0
H848 H 0.71309 0.17368 0.35717 0.0
H849 H 0.66728 0.17644 0.31593 0.0
H850 H 0.67259 0.14296 0.31769 0.0
H851 H 0.7282 0.16722 0.32833 0.0
H852 H 0.74189 0.14022 0.31298 0.0
H853 H 0.63653 0.20993 0.35755 0.0
H854 H 0.65809 0.2057 0.30156 0.0
H855 H 0.68645 0.11591 0.30195 0.0
H856 H 0.60679 0.22201 0.34397 0.0
H857 H 0.62855 0.21743 0.28816 0.0
C858 C 0.32314 0.1036 0.35029 0.0
C859 C 0.30353 0.10595 0.3498 0.0
C860 C 0.33538 0.1191 0.35343 0.0
C861 C 0.32823 0.13717 0.35648 0.0
C862 C 0.30861 0.13945 0.35624 0.0
C863 C 0.2964 0.12404 0.35279 0.0
C864 C 0.34111 0.15366 0.35994 0.0
C865 C 0.35594 0.1574 0.34785 0.0
C866 C 0.3676 0.1735 0.35064 0.0
C867 C 0.36451 0.18557 0.36603 0.0
C868 C 0.34985 0.18201 0.37832 0.0
C869 C 0.3382 0.166 0.37511 0.0
C870 C 0.34645 0.19532 0.39415 0.0
C871 C 0.36159 0.20384 0.40463 0.0
C872 C 0.328 0.19996 0.39863 0.0
C873 C 0.32476 0.21283 0.41311 0.0
C874 C 0.33988 0.22155 0.42344 0.0
C875 C 0.38276 0.17816 0.3374 0.0
C876 C 0.39434 0.16408 0.33029 0.0
C877 C 0.38613 0.197 0.33223 0.0
C878 C 0.40113 0.20176 0.32096 0.0
C879 C 0.41307 0.18781 0.31438 0.0
C880 C 0.40932 0.16886 0.31883 0.0
C881 C 0.35835 0.21682 0.41906 0.0
H882 H 0.32901 0.08985 0.34785 0.0
H883 H 0.35044 0.11693 0.35364 0.0
H884 H 0.30272 0.15324 0.35843 0.0
H885 H 0.28135 0.12624 0.35252 0.0
H886 H 0.35791 0.14816 0.33587 0.0
H887 H 0.32699 0.16292 0.38461 0.0
H888 H 0.37345 0.19796 0.36832 0.0
H889 H 0.37599 0.20043 0.40175 0.0
H890 H 0.316 0.19387 0.39074 0.0
H891 H 0.31033 0.21583 0.41628 0.0
H892 H 0.39221 0.14945 0.33405 0.0
H893 H 0.3772 0.20816 0.33697 0.0
H894 H 0.37034 0.22332 0.42661 0.0
H895 H 0.41834 0.15782 0.31399 0.0
H896 H 0.40344 0.21644 0.31744 0.0
C897 C 0.31112 0.83755 0.41921 0.0
C898 C 0.3235 0.83296 0.43441 0.0
C899 C 0.31802 0.84382 0.40203 0.0
C900 C 0.33753 0.84574 0.39949 0.0
C901 C 0.34993 0.84088 0.41458 0.0
C902 C 0.34302 0.8346 0.43178 0.0
C903 C 0.34476 0.85316 0.38132 0.0
C904 C 0.33527 0.86788 0.37187 0.0
C905 C 0.34132 0.87477 0.35449 0.0
C906 C 0.3571 0.86674 0.34655 0.0
C907 C 0.36702 0.85229 0.35574 0.0
C908 C 0.36092 0.84565 0.37323 0.0
C909 C 0.38371 0.8444 0.34661 0.0
C910 C 0.38233 0.83878 0.32752 0.0
C911 C 0.40142 0.8443 0.35612 0.0
C912 C 0.41756 0.83952 0.34646 0.0
C913 C 0.41625 0.83449 0.32717 0.0
C914 C 0.33098 0.89005 0.34434 0.0
C915 C 0.31122 0.89029 0.34383 0.0
C916 C 0.34074 0.90421 0.33463 0.0
C917 C 0.33096 0.9181 0.32449 0.0
C918 C 0.31117 0.91819 0.32383 0.0
C919 C 0.30146 0.90419 0.3338 0.0
C920 C 0.39836 0.8338 0.31796 0.0
H921 H 0.29603 0.8366 0.42065 0.0
H922 H 0.30799 0.84712 0.39068 0.0
H923 H 0.36502 0.84225 0.41326 0.0
H924 H 0.35305 0.83091 0.44299 0.0
H925 H 0.32332 0.87427 0.37825 0.0
H926 H 0.36839 0.83426 0.38015 0.0
H927 H 0.36171 0.87171 0.33303 0.0
H928 H 0.36884 0.83871 0.31984 0.0
H929 H 0.4029 0.8487 0.37079 0.0
H930 H 0.43111 0.84001 0.35402 0.0
H931 H 0.3032 0.87955 0.35096 0.0
H932 H 0.35598 0.90463 0.33491 0.0
H933 H 0.39683 0.83011 0.3031 0.0
H934 H 0.28624 0.90402 0.334 0.0
H935 H 0.33891 0.92861 0.31699 0.0
C936 C 0.70198 0.71655 0.09904 0.0
C937 C 0.70776 0.73545 0.10194 0.0
C938 C 0.69499 0.70595 0.11391 0.0
C939 C 0.6934 0.71416 0.13187 0.0
C940 C 0.69938 0.73298 0.1348 0.0
C941 C 0.70657 0.74348 0.12003 0.0
C942 C 0.68461 0.70355 0.14732 0.0
C943 C 0.69029 0.68526 0.15201 0.0
C944 C 0.68195 0.67527 0.16678 0.0
C945 C 0.66751 0.68398 0.17673 0.0
C946 C 0.6618 0.70242 0.17219 0.0
C947 C 0.67043 0.71194 0.15745 0.0
C948 C 0.64681 0.71222 0.18241 0.0
C949 C 0.62918 0.70356 0.185 0.0
C950 C 0.64952 0.7312 0.1879 0.0
C951 C 0.63476 0.74157 0.19489 0.0
C952 C 0.61682 0.73327 0.19662 0.0
C953 C 0.68894 0.65609 0.17198 0.0
C954 C 0.69457 0.64345 0.15795 0.0
C955 C 0.69106 0.65062 0.191 0.0
C956 C 0.69906 0.63326 0.19583 0.0
C957 C 0.70524 0.62088 0.18179 0.0
C958 C 0.70266 0.62618 0.16277 0.0
C959 C 0.61431 0.71399 0.19203 0.0
H960 H 0.70291 0.70996 0.08528 0.0
H961 H 0.69037 0.69151 0.11126 0.0
H962 H 0.6984 0.73962 0.14854 0.0
H963 H 0.71082 0.75803 0.12266 0.0
H964 H 0.70168 0.6791 0.14449 0.0
H965 H 0.66578 0.72591 0.15353 0.0
H966 H 0.66081 0.67655 0.18804 0.0
H967 H 0.62662 0.689 0.18079 0.0
H968 H 0.66304 0.7382 0.18636 0.0
H969 H 0.63738 0.7562 0.19877 0.0
H970 H 0.6929 0.64696 0.14313 0.0
H971 H 0.68705 0.65997 0.20223 0.0
H972 H 0.60068 0.70714 0.19318 0.0
H973 H 0.70734 0.61722 0.15151 0.0
H974 H 0.70045 0.6296 0.21062 0.0
C975 C 0.41392 0.73353 0.20164 0.0
C976 C 0.42974 0.72421 0.20943 0.0
C977 C 0.39865 0.72334 0.19331 0.0
C978 C 0.39874 0.70353 0.19256 0.0
C979 C 0.41462 0.69422 0.20028 0.0
C980 C 0.42987 0.70441 0.20864 0.0
C981 C 0.38213 0.6925 0.1845 0.0
C982 C 0.37198 0.69838 0.16812 0.0
C983 C 0.35632 0.68781 0.16069 0.0
C984 C 0.35103 0.67106 0.16988 0.0
C985 C 0.36083 0.66506 0.1864 0.0
C986 C 0.3762 0.67602 0.19357 0.0
C987 C 0.35489 0.64771 0.19666 0.0
C988 C 0.33574 0.64286 0.19816 0.0
C989 C 0.36839 0.63627 0.20581 0.0
C990 C 0.36292 0.62091 0.21672 0.0
C991 C 0.34376 0.61628 0.21857 0.0
C992 C 0.3452 0.69443 0.14363 0.0
C993 C 0.34093 0.71362 0.14155 0.0
C994 C 0.33842 0.68168 0.12949 0.0
C995 C 0.32769 0.68795 0.11374 0.0
C996 C 0.32329 0.70713 0.11177 0.0
C997 C 0.33014 0.71986 0.1259 0.0
C998 C 0.33027 0.62731 0.20885 0.0
H999 H 0.41319 0.74876 0.2022 0.0
H1000 H 0.38659 0.73099 0.18782 0.0
H1001 H 0.41535 0.67899 0.19972 0.0
H1002 H 0.44191 0.69677 0.21419 0.0
H1003 H 0.3765 0.711 0.16092 0.0
H1004 H 0.38331 0.67201 0.20671 0.0
H1005 H 0.33909 0.66282 0.16428 0.0
H1006 H 0.32489 0.65135 0.19148 0.0
H1007 H 0.3833 0.63925 0.20471 0.0
H1008 H 0.3738 0.61298 0.22406 0.0
H1009 H 0.34571 0.72385 0.15218 0.0
H1010 H 0.34156 0.66682 0.1305 0.0
H1011 H 0.31538 0.62401 0.20952 0.0
H1012 H 0.32738 0.73478 0.12476 0.0
H1013 H 0.32267 0.67773 0.10321 0.0
C1014 C 0.33169 0.31088 0.14352 0.0
C1015 C 0.32578 0.32173 0.12792 0.0
C1016 C 0.33977 0.31956 0.1598 0.0
C1017 C 0.34218 0.33931 0.16083 0.0
C1018 C 0.33686 0.35006 0.14496 0.0
C1019 C 0.32878 0.34139 0.12874 0.0
C1020 C 0.34979 0.34873 0.17851 0.0
C1021 C 0.36469 0.3408 0.18916 0.0
C1022 C 0.37179 0.34939 0.20599 0.0
C1023 C 0.36388 0.36632 0.21214 0.0
C1024 C 0.34871 0.37445 0.20178 0.0
C1025 C 0.34188 0.36551 0.18498 0.0
C1026 C 0.33928 0.39173 0.20872 0.0
C1027 C 0.33556 0.39392 0.22794 0.0
C1028 C 0.33305 0.40574 0.19603 0.0
C1029 C 0.32313 0.42134 0.20235 0.0
C1030 C 0.31912 0.42336 0.22154 0.0
C1031 C 0.38724 0.34007 0.21702 0.0
C1032 C 0.38542 0.32086 0.22138 0.0
C1033 C 0.40441 0.3495 0.22158 0.0
C1034 C 0.4199 0.3395 0.22908 0.0
C1035 C 0.41838 0.31995 0.2322 0.0
C1036 C 0.40072 0.31098 0.22897 0.0
C1037 C 0.32563 0.40949 0.23426 0.0
H1038 H 0.3294 0.29574 0.14344 0.0
H1039 H 0.34354 0.31084 0.17181 0.0
H1040 H 0.33888 0.36523 0.14509 0.0
H1041 H 0.32469 0.35015 0.11685 0.0
H1042 H 0.37103 0.32798 0.18421 0.0
H1043 H 0.32986 0.37127 0.17726 0.0
H1044 H 0.36935 0.37296 0.22508 0.0
H1045 H 0.33995 0.38338 0.23811 0.0
H1046 H 0.33581 0.40464 0.18114 0.0
H1047 H 0.31837 0.43168 0.19214 0.0
H1048 H 0.37227 0.3133 0.21829 0.0
H1049 H 0.40618 0.36431 0.21834 0.0
H1050 H 0.32317 0.41072 0.2492 0.0
H1051 H 0.39892 0.29604 0.23159 0.0
H1052 H 0.4333 0.34682 0.23138 0.0
C1053 C 0.68426 0.33198 0.09837 0.0
C1054 C 0.70375 0.33401 0.09604 0.0
C1055 C 0.67603 0.3387 0.11461 0.0
C1056 C 0.68704 0.34738 0.12928 0.0
C1057 C 0.70649 0.34977 0.12688 0.0
C1058 C 0.71473 0.3432 0.11045 0.0
C1059 C 0.67814 0.35321 0.14713 0.0
C1060 C 0.66366 0.34194 0.15436 0.0
C1061 C 0.65425 0.34739 0.17051 0.0
C1062 C 0.65982 0.36422 0.17987 0.0
C1063 C 0.67455 0.37558 0.17324 0.0
C1064 C 0.68366 0.36995 0.15684 0.0
C1065 C 0.68015 0.3934 0.18343 0.0
C1066 C 0.6664 0.40569 0.18984 0.0
C1067 C 0.69924 0.39806 0.18719 0.0
C1068 C 0.70444 0.41455 0.19724 0.0
C1069 C 0.69068 0.42686 0.20363 0.0
C1070 C 0.63844 0.33553 0.17737 0.0
C1071 C 0.62528 0.32702 0.16445 0.0
C1072 C 0.63638 0.33257 0.19679 0.0
C1073 C 0.62154 0.32138 0.20312 0.0
C1074 C 0.60843 0.31285 0.19019 0.0
C1075 C 0.6105 0.31578 0.17078 0.0
C1076 C 0.6716 0.42225 0.19975 0.0
H1077 H 0.67527 0.32478 0.08784 0.0
H1078 H 0.66095 0.33694 0.11569 0.0
H1079 H 0.71544 0.35631 0.13788 0.0
H1080 H 0.72974 0.34532 0.10911 0.0
H1081 H 0.65984 0.32863 0.14753 0.0
H1082 H 0.69461 0.37892 0.15133 0.0
H1083 H 0.65264 0.36854 0.19236 0.0
H1084 H 0.65157 0.40261 0.18704 0.0
H1085 H 0.71016 0.38883 0.18257 0.0
H1086 H 0.71927 0.4178 0.19975 0.0
H1087 H 0.62623 0.32927 0.14941 0.0
H1088 H 0.64641 0.33866 0.20711 0.0
H1089 H 0.66065 0.43137 0.2045 0.0
H1090 H 0.60048 0.30965 0.16047 0.0
H1091 H 0.62048 0.3192 0.21816 0.0
C1092 C 0.61904 0.33367 0.82873 0.0
C1093 C 0.61524 0.32853 0.80968 0.0
C1094 C 0.63614 0.34237 0.83448 0.0
C1095 C 0.64983 0.34651 0.82131 0.0
C1096 C 0.64582 0.34211 0.80214 0.0
C1097 C 0.62876 0.33315 0.7964 0.0
C1098 C 0.66819 0.3554 0.82761 0.0
C1099 C 0.6784 0.34856 0.84351 0.0
C1100 C 0.6957 0.35699 0.84968 0.0
C1101 C 0.70258 0.37261 0.83968 0.0
C1102 C 0.69256 0.37972 0.82378 0.0
C1103 C 0.67543 0.37091 0.81784 0.0
C1104 C 0.69976 0.39655 0.81353 0.0
C1105 C 0.70817 0.41193 0.82351 0.0
C1106 C 0.69802 0.39752 0.79369 0.0
C1107 C 0.70443 0.41345 0.78412 0.0
C1108 C 0.71284 0.42879 0.79412 0.0
C1109 C 0.70658 0.34953 0.86652 0.0
C1110 C 0.6973 0.34299 0.88248 0.0
C1111 C 0.7264 0.349 0.86686 0.0
C1112 C 0.7366 0.34227 0.88269 0.0
C1113 C 0.72731 0.33577 0.89863 0.0
C1114 C 0.70751 0.33617 0.89827 0.0
C1115 C 0.71466 0.42781 0.81393 0.0
H1116 H 0.60883 0.33081 0.83934 0.0
H1117 H 0.63862 0.34595 0.84927 0.0
H1118 H 0.65612 0.3451 0.79166 0.0
H1119 H 0.62649 0.32927 0.78167 0.0
H1120 H 0.67304 0.33633 0.8508 0.0
H1121 H 0.66734 0.3765 0.80592 0.0
H1122 H 0.71576 0.37934 0.84433 0.0
H1123 H 0.70944 0.41187 0.8388 0.0
H1124 H 0.69189 0.38585 0.7855 0.0
H1125 H 0.70305 0.41362 0.76884 0.0
H1126 H 0.6821 0.34344 0.88293 0.0
H1127 H 0.73409 0.35355 0.85476 0.0
H1128 H 0.72081 0.43949 0.8221 0.0
H1129 H 0.69986 0.33153 0.91037 0.0
H1130 H 0.75181 0.34191 0.88232 0.0
C1131 C 0.74492 0.70331 0.9294 0.0
C1132 C 0.76138 0.7137 0.92581 0.0
C1133 C 0.73611 0.69211 0.91521 0.0
C1134 C 0.74379 0.69082 0.8973 0.0
C1135 C 0.76089 0.70021 0.89405 0.0
C1136 C 0.76953 0.71172 0.90814 0.0
C1137 C 0.73285 0.6815 0.88152 0.0
C1138 C 0.71478 0.68792 0.87663 0.0
C1139 C 0.70403 0.67981 0.86151 0.0
C1140 C 0.71166 0.66478 0.85136 0.0
C1141 C 0.72981 0.65804 0.85613 0.0
C1142 C 0.74039 0.66671 0.87114 0.0
C1143 C 0.73761 0.64174 0.84573 0.0
C1144 C 0.72619 0.6259 0.84095 0.0
C1145 C 0.75662 0.64168 0.84083 0.0
C1146 C 0.764 0.62617 0.83144 0.0
C1147 C 0.7526 0.61027 0.82681 0.0
C1148 C 0.68517 0.68761 0.85622 0.0
C1149 C 0.67317 0.69366 0.87031 0.0
C1150 C 0.67948 0.69023 0.83717 0.0
C1151 C 0.66259 0.6993 0.8324 0.0
C1152 C 0.65104 0.70605 0.84656 0.0
C1153 C 0.6564 0.70283 0.86555 0.0
C1154 C 0.73358 0.61038 0.83164 0.0
H1155 H 0.73822 0.70475 0.94279 0.0
H1156 H 0.72291 0.685 0.918 0.0
H1157 H 0.76699 0.69949 0.88029 0.0
H1158 H 0.78219 0.71962 0.90501 0.0
H1159 H 0.70937 0.69979 0.88434 0.0
H1160 H 0.75428 0.66166 0.87514 0.0
H1161 H 0.70348 0.65834 0.83972 0.0
H1162 H 0.71155 0.62536 0.84465 0.0
H1163 H 0.76579 0.6537 0.84414 0.0
H1164 H 0.77871 0.62655 0.82802 0.0
H1165 H 0.67684 0.69151 0.88512 0.0
H1166 H 0.68842 0.68594 0.82595 0.0
H1167 H 0.72429 0.59851 0.82806 0.0
H1168 H 0.64764 0.7075 0.87679 0.0
H1169 H 0.65892 0.70166 0.81763 0.0
C1170 C 0.36136 0.61613 0.81844 0.0
C1171 C 0.34253 0.6164 0.81164 0.0
C1172 C 0.3692 0.63147 0.82867 0.0
C1173 C 0.3583 0.64727 0.83263 0.0
C1174 C 0.33931 0.64733 0.82635 0.0
C1175 C 0.33155 0.6321 0.8158 0.0
C1176 C 0.36722 0.6642 0.84189 0.0
C1177 C 0.38345 0.67213 0.83427 0.0
C1178 C 0.39209 0.68836 0.84228 0.0
C1179 C 0.38443 0.69653 0.85833 0.0
C1180 C 0.3684 0.68866 0.86658 0.0
C1181 C 0.35968 0.67254 0.85799 0.0
C1182 C 0.36117 0.69735 0.88419 0.0
C1183 C 0.37375 0.70557 0.89788 0.0
C1184 C 0.34176 0.69806 0.88733 0.0
C1185 C 0.33518 0.70703 0.90346 0.0
C1186 C 0.34779 0.71576 0.91685 0.0
C1187 C 0.40926 0.69673 0.83408 0.0
C1188 C 0.42392 0.68523 0.8282 0.0
C1189 C 0.41139 0.7164 0.8327 0.0
C1190 C 0.42808 0.72441 0.82646 0.0
C1191 C 0.44305 0.71296 0.82139 0.0
C1192 C 0.44064 0.69327 0.82187 0.0
C1193 C 0.36719 0.71479 0.91378 0.0
H1194 H 0.37015 0.60424 0.81543 0.0
H1195 H 0.38389 0.63109 0.83335 0.0
H1196 H 0.33067 0.6594 0.82908 0.0
H1197 H 0.31693 0.63259 0.8109 0.0
H1198 H 0.38907 0.66591 0.8217 0.0
H1199 H 0.34741 0.66612 0.86407 0.0
H1200 H 0.39111 0.7091 0.86446 0.0
H1201 H 0.38882 0.70498 0.89635 0.0
H1202 H 0.33157 0.69201 0.87716 0.0
H1203 H 0.32015 0.70707 0.90539 0.0
H1204 H 0.42276 0.67002 0.82918 0.0
H1205 H 0.40021 0.72566 0.83665 0.0
H1206 H 0.37746 0.72145 0.92347 0.0
H1207 H 0.45199 0.68412 0.81817 0.0
H1208 H 0.42942 0.73963 0.82592 0.0
C1209 C 0.30842 0.31904 0.909 0.0
C1210 C 0.31643 0.32129 0.92734 0.0
C1211 C 0.31846 0.32461 0.89334 0.0
C1212 C 0.33682 0.33208 0.89574 0.0
C1213 C 0.34509 0.33376 0.91401 0.0
C1214 C 0.33489 0.32858 0.92971 0.0
C1215 C 0.34658 0.3398 0.87939 0.0
C1216 C 0.33893 0.35522 0.86983 0.0
C1217 C 0.34805 0.36342 0.85465 0.0
C1218 C 0.36507 0.35572 0.84886 0.0
C1219 C 0.37283 0.33984 0.85809 0.0
C1220 C 0.36348 0.33217 0.87356 0.0
C1221 C 0.39032 0.33089 0.85142 0.0
C1222 C 0.39349 0.32908 0.83201 0.0
C1223 C 0.40363 0.32331 0.86441 0.0
C1224 C 0.41936 0.3138 0.85817 0.0
C1225 C 0.42234 0.3117 0.83877 0.0
C1226 C 0.33972 0.38036 0.84555 0.0
C1227 C 0.32026 0.38079 0.84119 0.0
C1228 C 0.35062 0.39678 0.84295 0.0
C1229 C 0.34206 0.41352 0.837 0.0
C1230 C 0.32244 0.41415 0.83343 0.0
C1231 C 0.31174 0.39744 0.83518 0.0
C1232 C 0.4093 0.31965 0.82577 0.0
H1233 H 0.29419 0.31351 0.90684 0.0
H1234 H 0.3118 0.32335 0.87935 0.0
H1235 H 0.35917 0.33968 0.91614 0.0
H1236 H 0.34138 0.33033 0.94373 0.0
H1237 H 0.32603 0.36124 0.87468 0.0
H1238 H 0.369 0.31991 0.88081 0.0
H1239 H 0.37218 0.36207 0.83718 0.0
H1240 H 0.38347 0.33445 0.82156 0.0
H1241 H 0.40192 0.32473 0.87947 0.0
H1242 H 0.42928 0.30817 0.86858 0.0
H1243 H 0.31152 0.36828 0.8428 0.0
H1244 H 0.36561 0.39693 0.84638 0.0
H1245 H 0.41103 0.31815 0.81072 0.0
H1246 H 0.29669 0.39724 0.8321 0.0
H1247 H 0.35075 0.42613 0.83591 0.0
Cu1248 Cu 0.26887 0.26576 0.03539 0.0
N1249 N 0.26726 0.28524 0.01786 0.0
N1250 N 0.27503 0.30174 0.99251 0.0
C1251 C 0.2769 0.28539 1.0019 0.0
C1252 C 0.26369 0.31236 1.0029 0.0
C1253 C 0.25878 0.30206 0.01852 0.0
O1254 O 0.27552 0.24402 0.02006 0.0
C1255 C 0.28196 0.28753 0.06533 0.0
O1256 O 0.26529 0.29459 0.06154 0.0
H1257 H 0.28586 0.27404 0.9977 0.0
H1258 H 0.25004 0.30672 0.02973 0.0
N1259 N 0.24596 0.26116 0.04672 0.0
N1260 N 0.22586 0.24975 0.06746 0.0
C1261 C 0.24404 0.2515 0.06283 0.0
C1262 C 0.22842 0.2659 0.04096 0.0
C1263 C 0.21596 0.25891 0.05379 0.0
C1264 C 0.2654 0.22904 0.01837 0.0
O1265 O 0.25244 0.22571 0.03067 0.0
H1266 H 0.25583 0.2458 0.07092 0.0
H1267 H 0.22494 0.27364 0.02823 0.0
O1268 O 0.28718 0.27364 0.05538 0.0
H1269 H 0.25946 0.32659 0.99956 0.0
H1270 H 0.20079 0.26005 0.05284 0.0
Cu1271 Cu 0.77733 0.28187 0.99648 0.0
N1272 N 0.75447 0.2869 0.01018 0.0
N1273 N 0.73469 0.29856 0.03086 0.0
C1274 C 0.75277 0.29759 0.02583 0.0
C1275 C 0.72464 0.2882 0.01784 0.0
C1276 C 0.73689 0.28099 1.00511 0.0
O1277 O 0.7892 0.26944 0.0201 0.0
C1278 C 0.76954 0.30829 0.96485 0.0
O1279 O 0.78399 0.31801 0.97216 0.0
H1280 H 0.76438 0.30492 0.03313 0.0
H1281 H 0.73325 0.27221 0.99292 0.0
N1282 N 0.80028 0.27705 0.9828 0.0
N1283 N 0.82017 0.26708 0.96135 0.0
C1284 C 0.80192 0.2685 0.96587 0.0
C1285 C 0.81797 0.2813 0.98905 0.0
C1286 C 0.83026 0.27509 0.97591 0.0
C1287 C 0.79722 0.27861 0.03381 0.0
O1288 O 0.79877 0.29706 0.03283 0.0
H1289 H 0.79007 0.26313 0.95726 0.0
H1290 H 0.8217 0.28833 1.00229 0.0
O1291 O 0.76464 0.2929 0.97259 0.0
H1292 H 0.70955 0.28585 0.01764 0.0
H1293 H 0.84546 0.2765 0.97691 0.0
Cu1294 Cu 0.77987 0.79625 0.01107 0.0
N1295 N 0.78017 0.81836 0.99677 0.0
N1296 N 0.78695 0.83832 0.97364 0.0
C1297 C 0.78802 0.82045 0.9799 0.0
C1298 C 0.77829 0.84797 0.98717 0.0
C1299 C 0.77403 0.83557 1.00142 0.0
O1300 O 0.78405 0.77469 0.99457 0.0
C1301 C 0.81045 0.81163 0.03415 0.0
O1302 O 0.81438 0.82167 0.01926 0.0
H1303 H 0.79486 0.80919 0.97256 0.0
H1304 H 0.76726 0.8389 0.01441 0.0
N1305 N 0.75655 0.79206 0.02148 0.0
N1306 N 0.73583 0.7796 0.04095 0.0
C1307 C 0.75417 0.78265 0.03765 0.0
C1308 C 0.7391 0.79521 0.01425 0.0
C1309 C 0.72624 0.78747 0.02626 0.0
C1310 C 0.77391 0.77392 0.97932 0.0
O1311 O 0.76181 0.78735 0.97575 0.0
H1312 H 0.76575 0.77735 0.04636 0.0
H1313 H 0.73598 0.80212 1.00096 0.0
O1314 O 0.79756 0.79895 0.03272 0.0
H1315 H 0.77522 0.86287 0.98675 0.0
H1316 H 0.71107 0.78741 0.02421 0.0
Cu1317 Cu 0.27879 0.76485 0.01678 0.0
N1318 N 0.27526 0.78541 0.033 0.0
N1319 N 0.26132 0.80171 0.05568 0.0
C1320 C 0.26146 0.78554 0.04548 0.0
C1321 C 0.27581 0.81217 0.04926 0.0
C1322 C 0.28438 0.80208 0.03529 0.0
O1323 O 0.27968 0.74293 0.03372 0.0
C1324 C 0.26197 0.78233 0.98713 0.0
O1325 O 0.2761 0.79344 0.99275 0.0
H1326 H 0.2519 0.77369 0.04713 0.0
H1327 H 0.29633 0.80659 0.02736 0.0
N1328 N 0.30147 0.76472 1.00407 0.0
N1329 N 0.32114 0.75549 0.98201 0.0
C1330 C 0.30319 0.75561 0.98748 0.0
C1331 C 0.31899 0.77075 1.00928 0.0
C1332 C 0.33119 0.76497 0.99571 0.0
C1333 C 0.29201 0.7452 0.04726 0.0
O1334 O 0.30209 0.76087 0.04814 0.0
H1335 H 0.29156 0.74844 0.97997 0.0
H1336 H 0.32274 0.77829 0.02224 0.0
O1337 O 0.25925 0.76715 0.99641 0.0
H1338 H 0.27991 0.8262 0.0541 0.0
H1339 H 0.34629 0.76734 0.99601 0.0
Cu1340 Cu 0.01085 0.2634 0.2883 0.0
N1341 N 0.02511 0.2414 0.28795 0.0
N1342 N 0.04785 0.22224 0.27904 0.0
C1343 C 0.04143 0.24003 0.27905 0.0
C1344 C 0.03509 0.21197 0.28837 0.0
C1345 C 0.02111 0.22385 0.29393 0.0
O1346 O 0.02912 0.28402 0.29278 0.0
C1347 C 0.98434 0.24933 0.26341 0.0
O1348 O 0.9839 0.23769 0.27773 0.0
H1349 H 0.04801 0.25174 0.27195 0.0
H1350 H 1.0086 0.21979 0.3012 0.0
N1351 N 0.99368 0.26392 0.30772 0.0
N1352 N 0.96853 0.27281 0.32349 0.0
C1353 C 0.97912 0.27578 0.30831 0.0
C1354 C 0.99242 0.25304 0.32311 0.0
C1355 C 0.97694 0.25847 0.33285 0.0
C1356 C 0.03828 0.28234 0.30853 0.0
O1357 O 0.03391 0.2681 0.31939 0.0
H1358 H 0.97649 0.28642 0.29771 0.0
H1359 H 1.00199 0.24189 0.32695 0.0
O1360 O 0.99575 0.26342 0.26459 0.0
H1361 H 0.03568 0.19693 0.29074 0.0
H1362 H 0.97215 0.25207 0.34566 0.0
Cu1363 Cu 0.77094 0.03375 0.25748 0.0
N1364 N 0.79289 0.04848 0.25488 0.0
N1365 N 0.81095 0.0719 0.24391 0.0
C1366 C 0.79329 0.06477 0.2452 0.0
C1367 C 0.82206 0.05961 0.25346 0.0
C1368 C 0.81089 0.04517 0.26018 0.0
O1369 O 0.75105 0.05188 0.2626 0.0
C1370 C 0.78002 0.01548 0.22301 0.0
O1371 O 0.79082 0.03029 0.22014 0.0
H1372 H 0.78078 0.071 0.2389 0.0
H1373 H 0.81561 0.03287 0.26784 0.0
N1374 N 0.77171 0.01716 0.27797 0.0
N1375 N 0.76138 0.99331 0.29553 0.0
C1376 C 0.76034 1.00179 0.27856 0.0
C1377 C 0.78053 0.01831 0.29514 0.0
C1378 C 0.77402 1.00366 0.30608 0.0
C1379 C 0.75538 0.06181 0.27733 0.0
O1380 O 0.77157 0.05864 0.28623 0.0
H1381 H 0.7507 0.99747 0.26705 0.0
H1382 H 0.79043 0.02934 0.29963 0.0
O1383 O 0.76809 0.01618 0.23598 0.0
H1384 H 0.83726 0.06056 0.25493 0.0
H1385 H 0.77799 1.00101 0.32072 0.0
Cu1386 Cu 1.00911 0.76578 0.27068 0.0
N1387 N 0.9954 0.78813 0.27205 0.0
N1388 N 0.97317 0.80924 0.26451 0.0
C1389 C 0.98025 0.79206 0.26079 0.0
C1390 C 0.9844 0.81631 0.2788 0.0
C1391 C 0.99805 0.80329 0.28341 0.0
O1392 O 0.98975 0.74576 0.26864 0.0
C1393 C 0.03819 0.7818 0.25252 0.0
O1394 O 0.03676 0.79234 0.2677 0.0
H1395 H 0.97452 0.78231 0.25017 0.0
H1396 H 1.00923 0.80486 0.29415 0.0
N1397 N 0.02475 0.76179 0.29226 0.0
N1398 N 0.04911 0.75085 0.30983 0.0
C1399 C 0.04106 0.75233 0.2923 0.0
C1400 C 0.02234 0.76654 0.31041 0.0
C1401 C 0.03737 0.75987 0.32126 0.0
C1402 C 0.98981 0.7311 0.27899 0.0
O1403 O 1.00516 0.72703 0.28896 0.0
H1404 H 0.04682 0.7466 0.27961 0.0
H1405 H 1.01036 0.77403 0.31542 0.0
O1406 O 0.02626 0.76829 0.24978 0.0
H1407 H 0.98314 0.83005 0.28532 0.0
H1408 H 0.0392 0.76117 0.33646 0.0
Cu1409 Cu 0.24349 1.00732 0.28515 0.0
N1410 N 0.24523 0.01991 0.30846 0.0
N1411 N 0.25654 0.04197 0.32875 0.0
C1412 C 0.2532 0.03718 0.31049 0.0
C1413 C 0.25044 0.02709 0.33874 0.0
C1414 C 0.24337 0.01347 0.32614 0.0
O1415 O 0.24236 0.02733 0.26627 0.0
C1416 C 0.26267 0.97566 0.29512 0.0
O1417 O 0.24692 0.97329 0.30396 0.0
H1418 H 0.25783 0.04551 0.29873 0.0
H1419 H 0.23829 0.99952 0.32963 0.0
N1420 N 0.22179 0.99216 0.28119 0.0
N1421 N 0.20382 0.9688 0.26861 0.0
C1422 C 0.22085 0.97745 0.26907 0.0
C1423 C 0.20471 0.99286 0.28873 0.0
C1424 C 0.1935 0.97849 0.28083 0.0
C1425 C 0.2282 0.03783 0.26852 0.0
O1426 O 0.21659 0.03335 0.28181 0.0
H1427 H 0.23249 0.97317 0.26072 0.0
H1428 H 0.20072 1.00301 0.29924 0.0
O1429 O 0.26493 0.9904 0.28516 0.0
H1430 H 0.25165 0.02586 0.35396 0.0
H1431 H 0.17907 0.97517 0.28408 0.0
Cu1432 Cu 0.01798 0.76369 0.77021 0.0
N1433 N 0.03344 0.74276 0.76829 0.0
N1434 N 0.05685 0.72646 0.75612 0.0
C1435 C 0.04728 0.74272 0.75591 0.0
C1436 C 0.04866 0.71581 0.76939 0.0
C1437 C 0.03419 0.72592 0.77689 0.0
O1438 O 0.03568 0.78413 0.77719 0.0
C1439 C 0.99351 0.74892 0.74453 0.0
O1440 O 0.9956 0.73608 0.7577 0.0
H1441 H 0.05032 0.75467 0.74707 0.0
H1442 H 0.02487 0.72122 0.78765 0.0
N1443 N 0.99983 0.76339 0.78863 0.0
N1444 N 0.97491 0.77474 0.80304 0.0
C1445 C 0.98787 0.77775 0.78996 0.0
C1446 C 0.99442 0.75068 0.80145 0.0
C1447 C 0.97904 0.75771 0.81045 0.0
C1448 C 0.04306 0.78115 0.79362 0.0
O1449 O 0.03712 0.76638 0.80293 0.0
H1450 H 0.98873 0.79019 0.78126 0.0
H1451 H 1.00086 0.73717 0.80385 0.0
O1452 O 1.00304 0.7643 0.74646 0.0
H1453 H 0.0526 0.70164 0.77326 0.0
H1454 H 0.97122 0.75059 0.82118 0.0
Cu1455 Cu 0.27678 0.01409 0.76867 0.0
N1456 N 0.27682 0.02893 0.74697 0.0
N1457 N 0.28614 0.05258 0.72854 0.0
C1458 C 0.28316 0.04695 0.74638 0.0
C1459 C 0.28134 0.03755 0.71748 0.0
C1460 C 0.27573 0.02297 0.72888 0.0
O1461 O 0.27534 0.03177 0.78998 0.0
C1462 C 0.30175 0.98306 0.77497 0.0
O1463 O 0.29073 0.97818 0.78861 0.0
H1464 H 0.28709 0.05518 0.75889 0.0
H1465 H 0.2726 1.00863 0.72438 0.0
N1466 N 0.25622 0.99699 0.76858 0.0
N1467 N 0.23785 0.97323 0.77833 0.0
C1468 C 0.25106 0.98647 0.78337 0.0
C1469 C 0.24552 0.99056 0.75375 0.0
C1470 C 0.2342 0.97595 0.7597 0.0
C1471 C 0.25898 0.03763 0.79366 0.0
O1472 O 0.24428 0.03064 0.78403 0.0
H1473 H 0.25738 0.98811 0.79743 0.0
H1474 H 0.24643 0.9955 0.73943 0.0
O1475 O 0.29947 0.99896 0.767 0.0
H1476 H 0.2827 0.0368 0.70233 0.0
H1477 H 0.22482 0.96732 0.75071 0.0
Cu1478 Cu 0.04785 0.27272 0.78282 0.0
N1479 N 0.0315 0.29285 0.78562 0.0
N1480 N 1.00697 0.31118 0.77783 0.0
C1481 C 0.01658 0.29548 0.77369 0.0
C1482 C 0.01636 0.31865 0.79321 0.0
C1483 C 0.03145 0.30731 0.79797 0.0
O1484 O 0.03017 0.25202 0.77588 0.0
C1485 C 0.07623 0.29489 0.76985 0.0
O1486 O 0.07344 0.30195 0.78668 0.0
H1487 H 0.01296 0.28585 0.76218 0.0
H1488 H 0.04175 0.30959 0.80945 0.0
N1489 N 0.0617 0.26682 0.80508 0.0
N1490 N 0.08406 0.25378 0.82371 0.0
C1491 C 0.07833 0.2579 0.80581 0.0
C1492 C 0.05679 0.26861 0.82314 0.0
C1493 C 0.07053 0.26053 0.83466 0.0
C1494 C 0.02745 0.23788 0.78656 0.0
O1495 O 0.04026 0.23392 0.79973 0.0
H1496 H 0.08563 0.25376 0.79336 0.0
H1497 H 0.04386 0.27478 0.82756 0.0
O1498 O 0.06608 0.28073 0.76426 0.0
H1499 H 0.01288 0.33154 0.80041 0.0
H1500 H 0.07045 0.25953 0.84989 0.0
Cu1501 Cu 0.77387 0.02492 0.74501 0.0
N1502 N 0.77791 0.03947 0.76691 0.0
N1503 N 0.79075 0.06242 0.78531 0.0
C1504 C 0.78881 0.05519 0.76767 0.0
C1505 C 0.78035 0.05091 0.79608 0.0
C1506 C 0.7725 0.03669 0.78467 0.0
O1507 O 0.77193 0.04344 0.72472 0.0
C1508 C 0.80893 1.0069 0.75392 0.0
O1509 O 0.814 0.02267 0.76265 0.0
H1510 H 0.7955 0.06097 0.75547 0.0
H1511 H 0.76389 0.02492 0.78909 0.0
N1512 N 0.75175 0.01032 0.74532 0.0
N1513 N 0.73187 0.98643 0.73749 0.0
C1514 C 0.74932 0.9939 0.73581 0.0
C1515 C 0.73532 0.0134 0.7535 0.0
C1516 C 0.72302 0.99863 0.74874 0.0
C1517 C 0.75842 0.04376 0.71235 0.0
O1518 O 0.74717 0.02896 0.71023 0.0
H1519 H 0.76022 0.98766 0.72769 0.0
H1520 H 0.7324 0.02563 0.76203 0.0
O1521 O 0.79375 1.00633 0.74372 0.0
H1522 H 0.77906 0.05228 0.8112 0.0
H1523 H 0.70855 0.99727 0.75283 0.0
Cu1524 Cu 0.28506 0.77013 0.52472 0.0
N1525 N 0.30609 0.77152 0.54165 0.0
N1526 N 0.32393 0.78156 0.56674 0.0
C1527 C 0.30664 0.78142 0.55801 0.0
C1528 C 0.33461 0.77116 0.55538 0.0
C1529 C 0.32362 0.76505 0.53993 0.0
O1530 O 0.26325 0.76741 0.54091 0.0
C1531 C 0.29987 0.8026 0.506 0.0
O1532 O 0.31295 0.80262 0.5196 0.0
H1533 H 0.29457 0.78865 0.56317 0.0
H1534 H 0.32828 0.75711 0.52795 0.0
N1535 N 0.2848 0.7493 0.50815 0.0
N1536 N 0.27474 0.73101 0.48366 0.0
C1537 C 0.27236 0.74722 0.49339 0.0
C1538 C 0.29559 0.73391 0.5078 0.0
C1539 C 0.28942 0.72261 0.49273 0.0
C1540 C 0.26017 0.75082 0.54721 0.0
O1541 O 0.27078 0.73701 0.54174 0.0
H1542 H 0.26185 0.7576 0.48985 0.0
H1543 H 0.30689 0.73091 0.51794 0.0
O1544 O 0.28556 0.79156 0.50716 0.0
H1545 H 0.34952 0.76872 0.55763 0.0
H1546 H 0.29512 0.70909 0.48904 0.0
Cu1547 Cu 0.76293 0.76556 0.49795 0.0
N1548 N 0.76322 0.74443 0.48196 0.0
N1549 N 0.77351 0.72545 0.45928 0.0
C1550 C 0.77814 0.73904 0.4722 0.0
C1551 C 0.75499 0.72186 0.4614 0.0
C1552 C 0.74871 0.73356 0.47534 0.0
O1553 O 0.75938 0.78752 0.48213 0.0
C1554 C 0.79139 0.77818 0.52526 0.0
O1555 O 0.78227 0.79412 0.52583 0.0
H1556 H 0.79195 0.74558 0.47408 0.0
H1557 H 0.73435 0.73466 0.47959 0.0
N1558 N 0.7425 0.76488 0.51388 0.0
N1559 N 0.72508 0.77273 0.53829 0.0
C1560 C 0.74262 0.7712 0.53188 0.0
C1561 C 0.72419 0.76226 0.50878 0.0
C1562 C 0.71343 0.7669 0.52385 0.0
C1563 C 0.76804 0.79027 0.467 0.0
O1564 O 0.78251 0.7798 0.46332 0.0
H1565 H 0.75523 0.77548 0.53988 0.0
H1566 H 0.71891 0.75871 0.49466 0.0
O1567 O 0.78603 0.76547 0.5134 0.0
H1568 H 0.74625 0.71229 0.45276 0.0
H1569 H 0.69821 0.76738 0.52368 0.0
Cu1570 Cu 0.77572 0.28081 0.52135 0.0
N1571 N 0.77616 0.26071 0.50399 0.0
N1572 N 0.76663 0.24284 0.47898 0.0
C1573 C 0.764 0.25885 0.48896 0.0
C1574 C 0.78117 0.23434 0.4882 0.0
C1575 C 0.78699 0.24537 0.50358 0.0
O1576 O 0.77158 0.30262 0.50491 0.0
C1577 C 0.76014 0.25931 0.54845 0.0
O1578 O 0.77603 0.25091 0.54518 0.0
H1579 H 0.75344 0.2692 0.48549 0.0
H1580 H 0.79811 0.24222 0.51388 0.0
N1581 N 0.79841 0.2841 0.53574 0.0
N1582 N 0.81834 0.29399 0.55928 0.0
C1583 C 0.80027 0.29323 0.55252 0.0
C1584 C 0.81591 0.27884 0.53172 0.0
C1585 C 0.8282 0.28485 0.54622 0.0
C1586 C 0.78303 0.31665 0.50444 0.0
O1587 O 0.79543 0.31926 0.51849 0.0
H1588 H 0.78852 0.29928 0.55955 0.0
H1589 H 0.81953 0.27148 0.51899 0.0
O1590 O 0.75626 0.27425 0.53921 0.0
H1591 H 0.787 0.22091 0.48442 0.0
H1592 H 0.8433 0.28308 0.54681 0.0
Cu1593 Cu 0.27942 0.28282 0.51857 0.0
N1594 N 0.27671 0.30516 0.53218 0.0
N1595 N 0.26524 0.32342 0.55471 0.0
C1596 C 0.26292 0.30744 0.54436 0.0
C1597 C 0.2811 0.33168 0.54843 0.0
C1598 C 0.28817 0.32034 0.53453 0.0
O1599 O 0.27947 0.26243 0.53703 0.0
C1600 C 0.26145 0.29625 0.48747 0.0
O1601 O 0.27536 0.30839 0.49096 0.0
H1602 H 0.25179 0.29706 0.54596 0.0
H1603 H 0.30117 0.32253 0.52736 0.0
N1604 N 0.30206 0.28133 0.50623 0.0
N1605 N 0.32138 0.27048 0.48471 0.0
C1606 C 0.30338 0.27267 0.48941 0.0
C1607 C 0.31993 0.28483 0.51248 0.0
C1608 C 0.33193 0.27806 0.4992 0.0
C1609 C 0.28975 0.26594 0.55187 0.0
O1610 O 0.29904 0.28207 0.55331 0.0
H1611 H 0.29132 0.2669 0.48137 0.0
H1612 H 0.32396 0.29097 0.52609 0.0
O1613 O 0.25954 0.28247 0.49876 0.0
H1614 H 0.28771 0.34448 0.55406 0.0
H1615 H 0.34716 0.27816 0.50038 0.0
Cu1616 Cu 0.78095 0.5327 0.74502 0.0
N1617 N 0.77976 0.54937 0.72469 0.0
N1618 N 0.78726 0.57412 0.70678 0.0
C1619 C 0.79034 0.56522 0.72342 0.0
C1620 C 0.77413 0.56334 0.69726 0.0
C1621 C 0.76958 0.54807 0.70832 0.0
O1622 O 0.78432 0.54879 0.76749 0.0
C1623 C 0.80875 0.50368 0.75142 0.0
O1624 O 0.80559 0.50506 0.76952 0.0
H1625 H 0.80013 0.57006 0.73457 0.0
H1626 H 0.75981 0.53667 0.70456 0.0
N1627 N 0.7587 0.51834 0.74662 0.0
N1628 N 0.73946 0.49504 0.75567 0.0
C1629 C 0.75746 0.50126 0.75474 0.0
C1630 C 0.74087 0.52307 0.74201 0.0
C1631 C 0.72896 0.50868 0.74751 0.0
C1632 C 0.77557 0.54614 0.78263 0.0
O1633 O 0.76665 0.53003 0.785 0.0
H1634 H 0.76955 0.49379 0.76035 0.0
H1635 H 0.73677 0.53631 0.73572 0.0
O1636 O 0.80078 0.51498 0.73987 0.0
H1637 H 0.76853 0.56596 0.68311 0.0
H1638 H 0.71373 0.50867 0.74636 0.0
Cu1639 Cu 0.27723 0.52548 0.77617 0.0
N1640 N 0.27681 0.5087 0.79626 0.0
N1641 N 0.28529 0.48343 0.81312 0.0
C1642 C 0.28791 0.49354 0.79734 0.0
C1643 C 0.27187 0.49267 0.82232 0.0
C1644 C 0.26669 0.50831 0.81188 0.0
O1645 O 0.27713 0.50868 0.75425 0.0
C1646 C 0.30565 0.55445 0.77067 0.0
O1647 O 0.29878 0.55607 0.75327 0.0
H1648 H 0.29753 0.48991 0.78648 0.0
H1649 H 0.25635 0.51863 0.81544 0.0
N1650 N 0.25597 0.54083 0.77476 0.0
N1651 N 0.23816 0.56451 0.76399 0.0
C1652 C 0.25577 0.55862 0.76816 0.0
C1653 C 0.23775 0.53543 0.77528 0.0
C1654 C 0.22672 0.54998 0.76854 0.0
C1655 C 0.26456 0.5091 0.74093 0.0
O1656 O 0.25487 0.52452 0.73832 0.0
H1657 H 0.26827 0.56657 0.76493 0.0
H1658 H 0.23291 0.52138 0.77879 0.0
O1659 O 0.29942 0.54145 0.78113 0.0
H1660 H 0.26633 0.48861 0.83574 0.0
H1661 H 0.21158 0.54952 0.76623 0.0
Cu1662 Cu 0.27806 0.51847 0.2774 0.0
N1663 N 0.27603 0.50359 0.29899 0.0
N1664 N 0.26449 0.4806 0.31683 0.0
C1665 C 0.26418 0.48863 0.29965 0.0
C1666 C 0.27706 0.49093 0.3275 0.0
C1667 C 0.28429 0.50507 0.31639 0.0
O1668 O 0.27771 0.50037 0.25631 0.0
C1669 C 0.26192 0.54885 0.2928 0.0
O1670 O 0.27669 0.54547 0.30391 0.0
H1671 H 0.25517 0.48398 0.28778 0.0
H1672 H 0.29465 0.51574 0.32074 0.0
N1673 N 0.30071 0.53214 0.27596 0.0
N1674 N 0.32008 0.55422 0.26486 0.0
C1675 C 0.30216 0.54787 0.26557 0.0
C1676 C 0.31838 0.5284 0.28222 0.0
C1677 C 0.33042 0.542 0.27526 0.0
C1678 C 0.29028 0.48781 0.25863 0.0
O1679 O 0.30135 0.48844 0.2739 0.0
H1680 H 0.29032 0.55407 0.25796 0.0
H1681 H 0.32231 0.5164 0.29075 0.0
O1682 O 0.25854 0.53776 0.27871 0.0
H1683 H 0.28081 0.48838 0.34221 0.0
H1684 H 0.34557 0.54273 0.2775 0.0
Cu1685 Cu 0.75593 0.5133 0.24216 0.0
N1686 N 0.77493 0.49533 0.24169 0.0
N1687 N 0.79196 0.47153 0.25339 0.0
C1688 C 0.77573 0.48101 0.25408 0.0
C1689 C 0.80182 0.48015 0.23991 0.0
C1690 C 0.79119 0.49477 0.23258 0.0
O1691 O 0.73357 0.49776 0.24623 0.0
C1692 C 0.77914 0.54028 0.25747 0.0
O1693 O 0.78664 0.53614 0.24134 0.0
H1694 H 0.76506 0.47833 0.26427 0.0
H1695 H 0.79541 0.50478 0.22203 0.0
N1696 N 0.75227 0.52721 0.2199 0.0
N1697 N 0.74167 0.55092 0.20185 0.0
C1698 C 0.74552 0.54487 0.21959 0.0
C1699 C 0.75288 0.52186 0.20168 0.0
C1700 C 0.74631 0.53647 0.1905 0.0
C1701 C 0.7191 0.49766 0.23501 0.0
O1702 O 0.71591 0.5124 0.22432 0.0
H1703 H 0.7425 0.55269 0.23226 0.0
H1704 H 0.75705 0.50808 0.19692 0.0
O1705 O 0.76403 0.53158 0.26171 0.0
H1706 H 0.81586 0.47646 0.236 0.0
H1707 H 0.74474 0.5363 0.17524 0.0
Cu1708 Cu 0.5227 0.25945 0.77192 0.0
N1709 N 0.50824 0.25999 0.79358 0.0
N1710 N 0.48566 0.27002 0.81234 0.0
C1711 C 0.49373 0.27176 0.79546 0.0
C1712 C 0.49557 0.25646 0.82142 0.0
C1713 C 0.50946 0.25031 0.80983 0.0
O1714 O 0.50398 0.25663 0.75086 0.0
C1715 C 0.55053 0.28031 0.78876 0.0
O1716 O 0.54823 0.26565 0.79973 0.0
H1717 H 0.48917 0.28132 0.78443 0.0
H1718 H 0.51985 0.23976 0.81317 0.0
N1719 N 0.53911 0.23908 0.76991 0.0
N1720 N 0.56309 0.22289 0.75846 0.0
C1721 C 0.55335 0.23911 0.75791 0.0
C1722 C 0.53979 0.22225 0.77853 0.0
C1723 C 0.55454 0.21224 0.7715 0.0
C1724 C 0.49448 0.24129 0.75253 0.0
O1725 O 0.49878 0.23042 0.76695 0.0
H1726 H 0.55648 0.25101 0.74904 0.0
H1727 H 0.53012 0.21745 0.78895 0.0
O1728 O 0.53972 0.28156 0.77396 0.0
H1729 H 0.49326 0.25151 0.83557 0.0
H1730 H 0.55835 0.19807 0.77549 0.0
Cu1731 Cu 0.54399 0.76516 0.78928 0.0
N1732 N 0.56086 0.76157 0.80997 0.0
N1733 N 0.58511 0.74959 0.8269 0.0
C1734 C 0.57438 0.74848 0.81071 0.0
C1735 C 0.57782 0.76397 0.83674 0.0
C1736 C 0.56294 0.77134 0.82625 0.0
O1737 O 0.55822 0.76404 0.76636 0.0
C1738 C 0.51433 0.74943 0.80629 0.0
O1739 O 0.52044 0.76259 0.81828 0.0
H1740 H 0.57659 0.73879 0.79919 0.0
H1741 H 0.55439 0.78312 0.83012 0.0
N1742 N 0.53266 0.78875 0.78895 0.0
N1743 N 0.51128 0.81001 0.77992 0.0
C1744 C 0.51525 0.79154 0.78143 0.0
C1745 C 0.54006 0.80609 0.79239 0.0
C1746 C 0.52687 0.81927 0.78679 0.0
C1747 C 0.57392 0.77302 0.76747 0.0
O1748 O 0.57915 0.78156 0.78337 0.0
H1749 H 0.50611 0.7802 0.77605 0.0
H1750 H 0.5543 0.80895 0.79772 0.0
O1751 O 0.52335 0.74696 0.79129 0.0
H1752 H 0.58282 0.76897 0.85053 0.0
H1753 H 0.52879 0.83444 0.78727 0.0
Cu1754 Cu 0.52001 0.786 0.26369 0.0
N1755 N 0.50491 0.80654 0.26932 0.0
N1756 N 0.48189 0.82167 0.28357 0.0
C1757 C 0.48833 0.80486 0.27782 0.0
C1758 C 0.49495 0.83448 0.27839 0.0
C1759 C 0.50915 0.82511 0.26966 0.0
O1760 O 0.50231 0.76536 0.25661 0.0
C1761 C 0.554 0.77753 0.28437 0.0
O1762 O 0.55726 0.76587 0.27046 0.0
H1763 H 0.48174 0.79139 0.28081 0.0
H1764 H 0.52208 0.83133 0.26486 0.0
N1765 N 0.53548 0.78961 0.24312 0.0
N1766 N 0.55804 0.78031 0.22401 0.0
C1767 C 0.54258 0.77515 0.23337 0.0
C1768 C 0.54647 0.80464 0.23938 0.0
C1769 C 0.56028 0.79899 0.2275 0.0
C1770 C 0.4924 0.7694 0.24176 0.0
O1771 O 0.49567 0.78568 0.23364 0.0
H1772 H 0.53762 0.76074 0.23479 0.0
H1773 H 0.54582 0.8182 0.24634 0.0
O1774 O 0.53749 0.78407 0.28568 0.0
H1775 H 0.49456 0.84949 0.28117 0.0
H1776 H 0.57214 0.80758 0.22339 0.0
Cu1777 Cu 0.51353 0.25314 0.25919 0.0
N1778 N 0.49873 0.23109 0.26059 0.0
N1779 N 0.47623 0.21202 0.27146 0.0
C1780 C 0.48479 0.22917 0.27275 0.0
C1781 C 0.48519 0.20281 0.25777 0.0
C1782 C 0.49906 0.21461 0.2511 0.0
O1783 O 0.49561 0.27394 0.2598 0.0
C1784 C 0.54417 0.23729 0.27584 0.0
O1785 O 0.53966 0.22636 0.26125 0.0
H1786 H 0.48093 0.24038 0.28218 0.0
H1787 H 0.5088 0.2113 0.24026 0.0
N1788 N 0.52606 0.25557 0.23659 0.0
N1789 N 0.54712 0.26741 0.21702 0.0
C1790 C 0.54042 0.26788 0.23457 0.0
C1791 C 0.52349 0.24686 0.21973 0.0
C1792 C 0.53651 0.25412 0.20762 0.0
C1793 C 0.48333 0.27239 0.24616 0.0
O1794 O 0.48485 0.25826 0.23426 0.0
H1795 H 0.54593 0.27686 0.24597 0.0
H1796 H 0.51281 0.23619 0.21639 0.0
O1797 O 0.53375 0.25144 0.27884 0.0
H1798 H 0.48219 0.18849 0.25307 0.0
H1799 H 0.53778 0.25016 0.19295 0.0
C1800 C 0.22182 0.21453 0.10654 0.0
C1801 C 0.20501 0.21987 0.11474 0.0
H1802 H 0.2415 0.2197 0.08506 0.0
C1803 C 0.19502 0.2351 0.10693 0.0
H1804 H 0.22995 0.20299 0.1123 0.0
C1805 C 0.20173 0.2448 0.09134 0.0
C1806 C 0.21866 0.23958 0.0833 0.0
H1807 H 0.18194 0.23947 0.11282 0.0
H1808 H 0.19383 0.25657 0.08578 0.0
C1809 C 0.22857 0.22428 0.09105 0.0
C1810 C 0.81695 0.24059 0.06628 0.0
C1811 C 0.81837 0.24997 0.08392 0.0
H1812 H 0.80905 0.24214 0.03675 0.0
C1813 C 0.81237 0.26881 0.08475 0.0
H1814 H 0.82169 0.22626 0.06479 0.0
C1815 C 0.8057 0.27806 0.06848 0.0
C1816 C 0.80435 0.26866 0.05096 0.0
H1817 H 0.81265 0.2765 0.098 0.0
H1818 H 0.8013 0.29256 0.06969 0.0
C1819 C 0.80984 0.24974 0.05007 0.0
C1820 C 0.81691 0.81658 0.08744 0.0
C1821 C 0.82929 0.83224 0.08925 0.0
H1822 H 0.80139 0.79764 0.06871 0.0
C1823 C 0.8368 0.83982 0.07279 0.0
H1824 H 0.81074 0.81044 0.09977 0.0
C1825 C 0.8314 0.8325 0.05496 0.0
C1826 C 0.81836 0.8174 0.0531 0.0
H1827 H 0.84667 0.85162 0.07367 0.0
H1828 H 0.83704 0.83909 0.04259 0.0
C1829 C 0.81151 0.80924 0.06959 0.0
C1830 C 0.24049 0.82567 0.0976 0.0
C1831 C 0.22388 0.81496 0.09994 0.0
H1832 H 0.2654 0.82985 0.08211 0.0
C1833 C 0.21962 0.80014 0.08711 0.0
H1834 H 0.24415 0.83743 0.10694 0.0
C1835 C 0.23169 0.79601 0.07255 0.0
C1836 C 0.24852 0.80646 0.0704 0.0
H1837 H 0.2071 0.79144 0.08848 0.0
H1838 H 0.22769 0.78455 0.063 0.0
C1839 C 0.25265 0.82145 0.08311 0.0
C1840 C 0.24691 0.80933 0.94333 0.0
C1841 C 0.22994 0.80039 0.9373 0.0
H1842 H 0.26999 0.81067 0.96329 0.0
C1843 C 0.2233 0.78503 0.9479 0.0
H1844 H 0.25232 0.8214 0.93583 0.0
C1845 C 0.2336 0.77872 0.96404 0.0
C1846 C 0.25059 0.78784 0.96995 0.0
H1847 H 0.21027 0.77779 0.94362 0.0
H1848 H 0.22823 0.7669 0.97191 0.0
C1849 C 0.25701 0.80319 0.9593 0.0
C1850 C 0.26972 0.2174 0.96643 0.0
C1851 C 0.25693 0.20212 0.96404 0.0
H1852 H 0.28284 0.23765 0.98552 0.0
C1853 C 0.24908 0.19424 0.98017 0.0
H1854 H 0.27627 0.22362 0.95435 0.0
C1855 C 0.25293 0.2022 0.99806 0.0
C1856 C 0.26476 0.21823 1.0003 0.0
H1857 H 0.23909 0.18255 0.97888 0.0
H1858 H 0.24586 0.19634 0.01001 0.0
C1859 C 0.27364 0.22533 0.98436 0.0
C1860 C 0.8522 0.24085 0.92988 0.0
C1861 C 0.84297 0.24251 0.91202 0.0
H1862 H 0.85214 0.24728 0.95946 0.0
C1863 C 0.82586 0.25232 0.91083 0.0
H1864 H 0.8651 0.23305 0.93159 0.0
C1865 C 0.81821 0.2601 0.92702 0.0
C1866 C 0.82762 0.25857 0.94473 0.0
H1867 H 0.81844 0.25424 0.89737 0.0
H1868 H 0.80514 0.26768 0.92563 0.0
C1869 C 0.8447 0.24891 0.94595 0.0
C1870 C 0.81121 0.86936 0.9391 0.0
C1871 C 0.80975 0.85824 0.92259 0.0
H1872 H 0.80471 0.87179 0.96837 0.0
C1873 C 0.80007 0.84083 0.92299 0.0
H1874 H 0.81861 0.88285 0.93913 0.0
C1875 C 0.79246 0.8344 0.93972 0.0
C1876 C 0.79405 0.84543 0.95627 0.0
H1877 H 0.79886 0.83194 0.91049 0.0
H1878 H 0.78535 0.82078 0.93975 0.0
C1879 C 0.80322 0.86311 0.95575 0.0
C1880 C 0.07912 0.19168 0.25078 0.0
C1881 C 0.09544 0.20312 0.24966 0.0
H1882 H 0.05127 0.18877 0.26108 0.0
C1883 C 0.09586 0.22081 0.25887 0.0
H1884 H 0.07803 0.17815 0.24363 0.0
C1885 C 0.08032 0.22699 0.26857 0.0
C1886 C 0.06408 0.21555 0.26961 0.0
H1887 H 0.10825 0.22988 0.25876 0.0
H1888 H 0.08106 0.24067 0.27546 0.0
C1889 C 0.06371 0.19776 0.26076 0.0
C1890 C 0.8399 0.1132 0.22727 0.0
C1891 C 0.82833 0.12038 0.2125 0.0
H1892 H 0.84342 0.09253 0.24896 0.0
C1893 C 0.81079 0.11147 0.20848 0.0
H1894 H 0.85336 0.11988 0.23102 0.0
C1895 C 0.80509 0.09571 0.21878 0.0
C1896 C 0.81672 0.08842 0.23348 0.0
H1897 H 0.8016 0.11643 0.19707 0.0
H1898 H 0.79168 0.08905 0.21489 0.0
C1899 C 0.83418 0.09747 0.2376 0.0
C1900 C 0.93459 0.81992 0.2282 0.0
C1901 C 0.92565 0.83529 0.23646 0.0
H1902 H 0.95667 0.79996 0.23021 0.0
C1903 C 0.93276 0.84211 0.25407 0.0
H1904 H 0.92974 0.81451 0.21449 0.0
C1905 C 0.94826 0.83361 0.26326 0.0
C1906 C 0.95717 0.81814 0.25503 0.0
H1907 H 0.92613 0.85381 0.26092 0.0
H1908 H 0.95303 0.83906 0.27695 0.0
C1909 C 0.95011 0.81152 0.2373 0.0
C1910 C 0.20597 0.9217 0.24461 0.0
C1911 C 0.18841 0.92052 0.23469 0.0
H1912 H 0.22459 0.93805 0.26308 0.0
C1913 C 0.17576 0.93545 0.23672 0.0
H1914 H 0.21594 0.91038 0.24395 0.0
C1915 C 0.18059 0.95107 0.24825 0.0
C1916 C 0.19831 0.95232 0.25764 0.0
H1917 H 0.16224 0.93533 0.22913 0.0
H1918 H 0.17073 0.96244 0.24937 0.0
C1919 C 0.21093 0.93749 0.25574 0.0
C1920 C 0.08549 0.81456 0.79938 0.0
C1921 C 0.09242 0.80988 0.81769 0.0
H1922 H 0.06432 0.80932 0.7773 0.0
C1923 C 0.08216 0.79678 0.82811 0.0
H1924 H 0.09287 0.82481 0.79102 0.0
C1925 C 0.0658 0.78825 0.82041 0.0
C1926 C 0.0592 0.79234 0.80192 0.0
H1927 H 0.0871 0.79249 0.84206 0.0
H1928 H 0.05861 0.77794 0.82889 0.0
C1929 C 0.06903 0.80585 0.79156 0.0
C1930 C 0.26356 0.08537 0.81814 0.0
C1931 C 0.24627 0.08631 0.82722 0.0
H1932 H 0.28141 0.06905 0.80068 0.0
C1933 C 0.23449 0.07013 0.82681 0.0
H1934 H 0.273 0.0975 0.81794 0.0
C1935 C 0.23921 0.05404 0.81665 0.0
C1936 C 0.25604 0.05342 0.80698 0.0
H1937 H 0.22139 0.06992 0.83409 0.0
H1938 H 0.2294 0.04216 0.81601 0.0
C1939 C 0.26846 0.06904 0.80823 0.0
C1940 C 0.97418 0.23172 0.78321 0.0
C1941 C 0.97127 0.21682 0.79589 0.0
H1942 H 0.99413 0.24981 0.76992 0.0
C1943 C 0.98714 0.20755 0.80355 0.0
H1944 H 0.96232 0.23901 0.77679 0.0
C1945 C 1.00538 0.21365 0.79949 0.0
C1946 C 1.0083 0.22915 0.78761 0.0
H1947 H 0.98553 0.19613 0.81346 0.0
H1948 H 0.01721 0.20668 0.80636 0.0
C1949 C 0.99246 0.23777 0.77907 0.0
C1950 C 0.84073 0.97284 0.78035 0.0
C1951 C 0.83133 0.95548 0.7768 0.0
H1952 H 0.84121 1.00264 0.77571 0.0
C1953 C 0.81593 0.95493 0.7637 0.0
H1954 H 0.85258 0.97382 0.79043 0.0
C1955 C 0.80942 0.97148 0.75518 0.0
C1956 C 0.81809 0.98902 0.75968 0.0
H1957 H 0.80856 0.94174 0.76041 0.0
H1958 H 0.79702 0.97061 0.74581 0.0
C1959 C 0.83417 0.9894 0.77193 0.0
C1960 C 0.2316 0.07777 0.23277 0.0
C1961 C 0.21798 0.09013 0.23941 0.0
H1962 H 0.24588 0.05144 0.23691 0.0
C1963 C 0.20793 0.08495 0.25525 0.0
H1964 H 0.23952 0.08141 0.22053 0.0
C1965 C 0.21139 0.068 0.26438 0.0
C1966 C 0.22509 0.05563 0.25804 0.0
H1967 H 0.19709 0.09392 0.2605 0.0
H1968 H 0.20324 0.06469 0.27656 0.0
C1969 C 0.23526 0.06068 0.24214 0.0
C1970 C 0.23585 0.9355 0.81548 0.0
C1971 C 0.21913 0.92571 0.81003 0.0
H1972 H 0.25507 0.95803 0.80962 0.0
C1973 C 0.2082 0.93249 0.79461 0.0
H1974 H 0.24468 0.93058 0.82719 0.0
C1975 C 0.21408 0.94831 0.78458 0.0
C1976 C 0.23108 0.9578 0.78965 0.0
H1977 H 0.19503 0.92554 0.79026 0.0
H1978 H 0.2053 0.95305 0.77278 0.0
C1979 C 0.24178 0.95131 0.8054 0.0
C1980 C 0.11604 0.22143 0.85146 0.0
C1981 C 0.13273 0.22241 0.84138 0.0
H1982 H 0.08763 0.23054 0.8538 0.0
C1983 C 0.13296 0.23394 0.82526 0.0
H1984 H 0.11503 0.21243 0.86368 0.0
C1985 C 0.11704 0.24415 0.81945 0.0
C1986 C 0.10051 0.24329 0.8297 0.0
H1987 H 0.14556 0.23539 0.81726 0.0
H1988 H 0.11779 0.253 0.8071 0.0
C1989 C 0.10023 0.23181 0.84578 0.0
C1990 C 0.83 0.09873 0.78726 0.0
C1991 C 0.82514 0.11008 0.80259 0.0
H1992 H 0.82298 0.07468 0.76984 0.0
C1993 C 0.8089 0.10526 0.81237 0.0
H1994 H 0.84233 0.10209 0.77935 0.0
C1995 C 0.79774 0.08954 0.80688 0.0
C1996 C 0.80245 0.07838 0.79135 0.0
H1997 H 0.80486 0.1136 0.82437 0.0
H1998 H 0.78525 0.0863 0.81458 0.0
C1999 C 0.81876 0.08312 0.78168 0.0
C2000 C 0.93877 0.81268 0.79825 0.0
C2001 C 0.93054 0.81226 0.81594 0.0
H2002 H 0.9588 0.80095 0.78013 0.0
C2003 C 0.93689 0.7989 0.82927 0.0
H2004 H 0.93444 0.82286 0.78769 0.0
C2005 C 0.95126 0.78643 0.82502 0.0
C2006 C 0.95962 0.78705 0.80737 0.0
H2007 H 0.93071 0.798 0.84296 0.0
H2008 H 0.956 0.77654 0.83568 0.0
C2009 C 0.95302 0.80022 0.794 0.0
C2010 C 0.80688 0.97917 0.19582 0.0
C2011 C 0.80119 0.96211 0.20408 0.0
H2012 H 0.80441 1.00917 0.19494 0.0
C2013 C 0.78686 0.96265 0.21725 0.0
H2014 H 0.81798 0.97946 0.18579 0.0
C2015 C 0.77902 0.97985 0.22256 0.0
C2016 C 0.78536 0.99697 0.21488 0.0
H2017 H 0.78187 0.94979 0.22369 0.0
H2018 H 0.76856 0.97978 0.23328 0.0
C2019 C 0.79908 0.99631 0.20112 0.0
C2020 C 0.08429 0.80162 0.23585 0.0
C2021 C 0.08638 0.79241 0.21849 0.0
H2022 H 0.06772 0.80559 0.25983 0.0
C2023 C 0.0721 0.77971 0.21188 0.0
H2024 H 0.0948 0.81176 0.24119 0.0
C2025 C 0.05629 0.776 0.22277 0.0
C2026 C 0.0544 0.78523 0.24025 0.0
H2027 H 0.07332 0.77247 0.19848 0.0
H2028 H 0.0456 0.76601 0.21754 0.0
C2029 C 0.06859 0.79814 0.2465 0.0
C2030 C 0.95301 0.2549 0.21884 0.0
C2031 C 0.94497 0.23662 0.21699 0.0
H2032 H 0.97215 0.27337 0.23485 0.0
C2033 C 0.95077 0.22277 0.22993 0.0
H2034 H 0.94886 0.26588 0.20906 0.0
C2035 C 0.9639 0.22703 0.24448 0.0
C2036 C 0.97171 0.24528 0.24665 0.0
H2037 H 0.94468 0.20866 0.22927 0.0
H2038 H 0.96769 0.21593 0.25428 0.0
C2039 C 0.96641 0.25917 0.2335 0.0
C2040 C 0.23538 0.75146 0.59368 0.0
C2041 C 0.22687 0.7333 0.5935 0.0
H2042 H 0.25237 0.77156 0.57891 0.0
C2043 C 0.22714 0.72259 0.57672 0.0
H2044 H 0.23555 0.76014 0.60632 0.0
C2045 C 0.2369 0.72906 0.56123 0.0
C2046 C 0.24635 0.74662 0.56182 0.0
H2047 H 0.22029 0.70885 0.5757 0.0
H2048 H 0.23767 0.71994 0.54896 0.0
C2049 C 0.24497 0.75808 0.57795 0.0
C2050 C 0.82576 0.74968 0.55473 0.0
C2051 C 0.82388 0.75756 0.57282 0.0
H2052 H 0.81719 0.75022 0.52544 0.0
C2053 C 0.81328 0.77402 0.57455 0.0
H2054 H 0.83423 0.73732 0.55277 0.0
C2055 C 0.80379 0.78166 0.55875 0.0
C2056 C 0.80459 0.7729 0.54095 0.0
H2057 H 0.81144 0.78044 0.58825 0.0
H2058 H 0.79488 0.7937 0.56073 0.0
C2059 C 0.81615 0.75719 0.53901 0.0
C2060 C 0.82376 0.32797 0.60042 0.0
C2061 C 0.84038 0.32177 0.6097 0.0
H2062 H 0.80376 0.32409 0.57723 0.0
C2063 C 0.84951 0.30614 0.60212 0.0
H2064 H 0.81625 0.33983 0.60592 0.0
C2065 C 0.84231 0.29707 0.58566 0.0
C2066 C 0.82567 0.30325 0.5764 0.0
H2067 H 0.86242 0.30106 0.60878 0.0
H2068 H 0.8497 0.28508 0.58029 0.0
C2069 C 0.81647 0.31879 0.58405 0.0
C2070 C 0.23165 0.32178 0.5945 0.0
C2071 C 0.23329 0.3402 0.60186 0.0
H2072 H 0.24056 0.3019 0.57428 0.0
C2073 C 0.24536 0.35315 0.59315 0.0
H2074 H 0.22234 0.31148 0.60064 0.0
C2075 C 0.2556 0.34778 0.57759 0.0
C2076 C 0.25418 0.32925 0.57039 0.0
H2077 H 0.24722 0.36741 0.59856 0.0
H2078 H 0.26465 0.35818 0.57127 0.0
C2079 C 0.242 0.31636 0.57908 0.0
C2080 C 0.22011 0.29356 0.45146 0.0
C2081 C 0.22641 0.30603 0.43755 0.0
H2082 H 0.22637 0.28031 0.47822 0.0
C2083 C 0.2443 0.31457 0.44013 0.0
H2084 H 0.20637 0.28677 0.44985 0.0
C2085 C 0.25553 0.311 0.45618 0.0
C2086 C 0.2493 0.29873 0.47022 0.0
H2087 H 0.24949 0.32452 0.42994 0.0
H2088 H 0.26914 0.31808 0.45762 0.0
C2089 C 0.23155 0.28981 0.46762 0.0
C2090 C 0.26033 0.70397 0.43915 0.0
C2091 C 0.24226 0.71099 0.43484 0.0
H2092 H 0.28482 0.70485 0.45773 0.0
C2093 C 0.23508 0.72464 0.447 0.0
H2094 H 0.26628 0.69328 0.4303 0.0
C2095 C 0.24564 0.7311 0.46295 0.0
C2096 C 0.26376 0.72416 0.46723 0.0
H2097 H 0.22134 0.73056 0.4441 0.0
H2098 H 0.23945 0.74144 0.47197 0.0
C2099 C 0.27092 0.71047 0.45508 0.0
C2100 C 0.7901 0.6953 0.41958 0.0
C2101 C 0.80576 0.7057 0.4136 0.0
H2102 H 0.76796 0.69305 0.43901 0.0
C2103 C 0.81135 0.72214 0.42362 0.0
H2104 H 0.78565 0.68236 0.41236 0.0
C2105 C 0.80108 0.7284 0.43886 0.0
C2106 C 0.78505 0.71827 0.44454 0.0
H2107 H 0.82329 0.73052 0.41928 0.0
H2108 H 0.80541 0.74152 0.44572 0.0
C2109 C 0.77993 0.70145 0.43488 0.0
C2110 C 0.80467 0.34889 0.46849 0.0
C2111 C 0.79709 0.34143 0.45132 0.0
H2112 H 0.80587 0.34728 0.49866 0.0
C2113 C 0.78276 0.32752 0.45196 0.0
H2114 H 0.81545 0.35988 0.46856 0.0
C2115 C 0.77712 0.32034 0.46932 0.0
C2116 C 0.7857 0.32691 0.48643 0.0
H2117 H 0.77664 0.32139 0.43904 0.0
H2118 H 0.76684 0.30889 0.46923 0.0
C2119 C 0.79906 0.34174 0.48579 0.0
C2120 C 0.09127 0.72795 0.71701 0.0
C2121 C 0.10379 0.71371 0.72241 0.0
H2122 H 0.06632 0.74275 0.72298 0.0
C2123 C 0.10044 0.70346 0.73893 0.0
H2124 H 0.0933 0.73591 0.70423 0.0
C2125 C 0.08503 0.70749 0.74989 0.0
C2126 C 0.07251 0.72183 0.74457 0.0
H2127 H 0.10997 0.69254 0.74361 0.0
H2128 H 0.08317 0.69959 0.7627 0.0
C2129 C 0.07578 0.73189 0.72786 0.0
C2130 C 0.79722 0.61853 0.67963 0.0
C2131 C 0.81483 0.6244 0.6876 0.0
H2132 H 0.77461 0.59819 0.67951 0.0
C2133 C 0.82312 0.61343 0.70205 0.0
H2134 H 0.79047 0.62647 0.66834 0.0
C2135 C 0.81412 0.59705 0.70832 0.0
C2136 C 0.79651 0.59114 0.70034 0.0
H2137 H 0.83655 0.61759 0.7087 0.0
H2138 H 0.82113 0.58894 0.71929 0.0
C2139 C 0.7882 0.60213 0.68591 0.0
C2140 C 0.96417 0.34015 0.76521 0.0
C2141 C 0.95822 0.33239 0.7476 0.0
H2142 H 0.98389 0.33942 0.78875 0.0
C2143 C 0.96856 0.3176 0.74014 0.0
H2144 H 0.9564 0.35146 0.77146 0.0
C2145 C 0.98447 0.31077 0.74994 0.0
C2146 C 0.99048 0.3184 0.76767 0.0
H2147 H 0.96455 0.31149 0.72648 0.0
H2148 H 0.99208 0.29962 0.74335 0.0
C2149 C 0.98002 0.33321 0.77515 0.0
C2150 C 0.25682 0.45668 0.73182 0.0
C2151 C 0.23981 0.4564 0.72094 0.0
H2152 H 0.27816 0.47347 0.74644 0.0
C2153 C 0.23217 0.47367 0.71511 0.0
H2154 H 0.26308 0.44365 0.7366 0.0
C2155 C 0.24089 0.49078 0.72062 0.0
C2156 C 0.25743 0.49109 0.73222 0.0
H2157 H 0.2193 0.47396 0.7064 0.0
H2158 H 0.23424 0.50378 0.71633 0.0
C2159 C 0.2655 0.47381 0.73742 0.0
C2160 C 0.07732 0.32008 0.30887 0.0
C2161 C 0.08632 0.31704 0.32667 0.0
H2162 H 0.0549 0.31166 0.28907 0.0
C2163 C 0.07895 0.30298 0.3383 0.0
H2164 H 0.08256 0.33084 0.29956 0.0
C2165 C 0.06319 0.29225 0.3324 0.0
C2166 C 0.05428 0.29503 0.31459 0.0
H2167 H 0.08566 0.29982 0.35187 0.0
H2168 H 0.05822 0.28146 0.34183 0.0
C2169 C 0.06141 0.30919 0.30289 0.0
C2170 C 0.24784 0.59458 0.31557 0.0
C2171 C 0.23036 0.59845 0.30666 0.0
H2172 H 0.27117 0.57637 0.31817 0.0
C2173 C 0.22299 0.58566 0.29279 0.0
H2174 H 0.25381 0.6038 0.32659 0.0
C2175 C 0.23313 0.56953 0.28784 0.0
C2176 C 0.25064 0.56582 0.29691 0.0
H2177 H 0.20953 0.58824 0.28567 0.0
H2178 H 0.22721 0.55994 0.27713 0.0
C2179 C 0.25777 0.57862 0.31079 0.0
C2180 C 0.9375 0.72001 0.28233 0.0
C2181 C 0.93761 0.70465 0.29483 0.0
H2182 H 0.95379 0.74018 0.26719 0.0
C2183 C 0.95506 0.69707 0.30059 0.0
H2184 H 0.92433 0.72602 0.27735 0.0
C2185 C 0.97195 0.7051 0.29466 0.0
C2186 C 0.97188 0.7209 0.28275 0.0
H2187 H 0.95575 0.68536 0.31032 0.0
H2188 H 0.9851 0.69926 0.29994 0.0
C2189 C 0.95442 0.728 0.27632 0.0
C2190 C 0.79095 0.42906 0.28479 0.0
C2191 C 0.8093 0.42935 0.29314 0.0
H2192 H 0.77111 0.44229 0.26566 0.0
C2193 C 0.82196 0.44362 0.28753 0.0
H2194 H 0.78082 0.41818 0.28824 0.0
C2195 C 0.81649 0.45703 0.27404 0.0
C2196 C 0.79808 0.45687 0.26613 0.0
H2197 H 0.83606 0.44477 0.29381 0.0
H2198 H 0.82646 0.46795 0.27028 0.0
C2199 C 0.78537 0.44277 0.27165 0.0
C2200 C 0.24048 0.61371 0.74472 0.0
C2201 C 0.22586 0.61319 0.73075 0.0
H2202 H 0.25575 0.59861 0.76633 0.0
C2203 C 0.21489 0.59657 0.72841 0.0
H2204 H 0.24918 0.62629 0.74685 0.0
C2205 C 0.21851 0.58082 0.73971 0.0
C2206 C 0.23334 0.58123 0.75345 0.0
H2207 H 0.20338 0.59582 0.71793 0.0
H2208 H 0.21002 0.56815 0.73734 0.0
C2209 C 0.24425 0.59787 0.75584 0.0
C2210 C 0.23424 0.44889 0.34566 0.0
C2211 C 0.23005 0.43382 0.33299 0.0
H2212 H 0.24864 0.47544 0.3505 0.0
C2213 C 0.23768 0.43449 0.31495 0.0
H2214 H 0.22838 0.44919 0.35953 0.0
C2215 C 0.24898 0.44979 0.30972 0.0
C2216 C 0.25322 0.46467 0.32246 0.0
H2217 H 0.2352 0.42307 0.30491 0.0
H2218 H 0.25467 0.44986 0.29577 0.0
C2219 C 0.24583 0.46401 0.34052 0.0
C2220 C 0.08959 0.71718 0.309 0.0
C2221 C 0.10002 0.72214 0.32566 0.0
H2222 H 0.06526 0.72209 0.29109 0.0
C2223 C 0.09332 0.73676 0.33701 0.0
H2224 H 0.09408 0.70581 0.30005 0.0
C2225 C 0.07669 0.74611 0.33186 0.0
C2226 C 0.0663 0.74118 0.31519 0.0
H2227 H 0.10108 0.74122 0.34977 0.0
H2228 H 0.07215 0.75743 0.34083 0.0
C2229 C 0.07299 0.72656 0.30384 0.0
C2230 C 0.81507 0.57673 0.27523 0.0
C2231 C 0.80632 0.58496 0.29058 0.0
H2232 H 0.81348 0.5563 0.25307 0.0
C2233 C 0.78854 0.57786 0.29556 0.0
H2234 H 0.82857 0.58198 0.27076 0.0
C2235 C 0.77968 0.563 0.28521 0.0
C2236 C 0.7884 0.55511 0.26963 0.0
H2237 H 0.78148 0.58382 0.30742 0.0
H2238 H 0.76593 0.55796 0.28916 0.0
C2239 C 0.80627 0.56204 0.26494 0.0
C2240 C 0.92568 0.30338 0.3198 0.0
C2241 C 0.919 0.30254 0.33821 0.0
H2242 H 0.94617 0.2945 0.3006 0.0
C2243 C 0.92887 0.29157 0.35167 0.0
H2244 H 0.91867 0.31186 0.30909 0.0
C2245 C 0.94502 0.28185 0.34688 0.0
C2246 C 0.95173 0.28273 0.32846 0.0
H2247 H 0.92406 0.29035 0.36593 0.0
H2248 H 0.9523 0.27382 0.35774 0.0
C2249 C 0.94173 0.29357 0.31498 0.0
C2250 C 0.82507 0.46583 0.71796 0.0
C2251 C 0.83614 0.45435 0.72996 0.0
H2252 H 0.80813 0.49036 0.71516 0.0
C2253 C 0.83885 0.45991 0.74906 0.0
H2254 H 0.82225 0.46199 0.70329 0.0
C2255 C 0.83032 0.47611 0.756 0.0
C2256 C 0.81913 0.48737 0.74397 0.0
H2257 H 0.84758 0.45178 0.75873 0.0
H2258 H 0.83242 0.47975 0.77082 0.0
C2259 C 0.81684 0.48216 0.72482 0.0
C2260 C 0.11491 0.32847 0.75506 0.0
C2261 C 0.11991 0.32116 0.73752 0.0
H2262 H 0.09748 0.32607 0.77872 0.0
C2263 C 0.11003 0.30507 0.7303 0.0
H2264 H 0.12182 0.34105 0.76092 0.0
C2265 C 0.09574 0.2964 0.74058 0.0
C2266 C 0.09101 0.30369 0.75825 0.0
H2267 H 0.11356 0.29898 0.71686 0.0
H2268 H 0.08852 0.28397 0.73477 0.0
C2269 C 0.10076 0.31988 0.76525 0.0
C2270 C 0.95649 0.75541 0.70476 0.0
C2271 C 0.94887 0.73692 0.70302 0.0
H2272 H 0.97684 0.77389 0.71915 0.0
C2273 C 0.95715 0.72264 0.71399 0.0
H2274 H 0.95059 0.76675 0.6964 0.0
C2275 C 0.97217 0.72666 0.72662 0.0
C2276 C 0.97935 0.74516 0.72897 0.0
H2277 H 0.95159 0.70833 0.71347 0.0
H2278 H 0.97778 0.71519 0.73503 0.0
C2279 C 0.97164 0.75949 0.71763 0.0
C2280 C 0.74033 0.22409 0.58257 0.0
C2281 C 0.72521 0.23362 0.59019 0.0
H2282 H 0.76284 0.22457 0.56366 0.0
C2283 C 0.72131 0.25198 0.58376 0.0
H2284 H 0.74403 0.21012 0.5874 0.0
C2285 C 0.73229 0.26046 0.56989 0.0
C2286 C 0.74751 0.25081 0.56246 0.0
H2287 H 0.70974 0.25971 0.58934 0.0
H2288 H 0.72906 0.27459 0.56521 0.0
C2289 C 0.75127 0.23251 0.56898 0.0
C2290 C 0.30731 0.22434 0.57966 0.0
C2291 C 0.30726 0.23171 0.5982 0.0
H2292 H 0.3012 0.22937 0.55013 0.0
C2293 C 0.29822 0.24889 0.60122 0.0
H2294 H 0.31419 0.21119 0.57677 0.0
C2295 C 0.29101 0.25925 0.586 0.0
C2296 C 0.29225 0.25251 0.56745 0.0
H2297 H 0.29739 0.25476 0.61531 0.0
H2298 H 0.2853 0.27305 0.58866 0.0
C2299 C 0.29978 0.23465 0.56438 0.0
C2300 C 0.3522 0.79612 0.61084 0.0
C2301 C 0.34221 0.81174 0.61725 0.0
H2302 H 0.35422 0.77424 0.59009 0.0
C2303 C 0.32597 0.81712 0.60676 0.0
H2304 H 0.3649 0.79165 0.61836 0.0
C2305 C 0.31994 0.80721 0.59036 0.0
C2306 C 0.32997 0.79162 0.58391 0.0
H2307 H 0.31777 0.82893 0.61131 0.0
H2308 H 0.30752 0.81201 0.58262 0.0
C2309 C 0.34618 0.78622 0.59443 0.0
C2310 C 0.69725 0.78609 0.58013 0.0
C2311 C 0.70781 0.80154 0.58773 0.0
H2312 H 0.69454 0.76479 0.55851 0.0
C2313 C 0.72464 0.80674 0.57917 0.0
H2314 H 0.68446 0.78134 0.58655 0.0
C2315 C 0.73056 0.79697 0.5633 0.0
C2316 C 0.71972 0.78187 0.55547 0.0
H2317 H 0.73304 0.81869 0.58439 0.0
H2318 H 0.74332 0.80168 0.55678 0.0
C2319 C 0.70306 0.77649 0.56412 0.0
C2320 C 0.73338 0.82168 0.44088 0.0
C2321 C 0.73884 0.8197 0.42211 0.0
H2322 H 0.73849 0.81423 0.46984 0.0
C2323 C 0.75517 0.80951 0.4186 0.0
H2324 H 0.72115 0.82978 0.44417 0.0
C2325 C 0.76531 0.80087 0.43337 0.0
C2326 C 0.7593 0.80209 0.45199 0.0
H2327 H 0.75973 0.80754 0.40432 0.0
H2328 H 0.77738 0.79253 0.43002 0.0
C2329 C 0.74346 0.81294 0.45564 0.0
C2330 C 0.72794 0.23727 0.44108 0.0
C2331 C 0.73508 0.22325 0.42933 0.0
H2332 H 0.73199 0.25426 0.46595 0.0
C2333 C 0.75278 0.21571 0.43435 0.0
H2334 H 0.7145 0.24361 0.43765 0.0
C2335 C 0.76306 0.22209 0.45051 0.0
C2336 C 0.75595 0.23617 0.46226 0.0
H2337 H 0.75868 0.20469 0.42587 0.0
H2338 H 0.77668 0.21604 0.45364 0.0
C2339 C 0.73818 0.2436 0.45729 0.0
C2340 C 0.34738 0.23582 0.45567 0.0
C2341 C 0.33627 0.2354 0.43875 0.0
H2342 H 0.35138 0.24747 0.48361 0.0
C2343 C 0.32123 0.24796 0.43678 0.0
H2344 H 0.35898 0.22626 0.45777 0.0
C2345 C 0.31683 0.25993 0.45163 0.0
C2346 C 0.32747 0.25982 0.46876 0.0
H2347 H 0.31267 0.24843 0.4238 0.0
H2348 H 0.3049 0.26913 0.44984 0.0
C2349 C 0.34306 0.24798 0.47049 0.0
C2350 C 0.30023 0.81443 0.45362 0.0
C2351 C 0.31617 0.82649 0.4529 0.0
H2352 H 0.28237 0.79762 0.47086 0.0
C2353 C 0.32535 0.83201 0.47007 0.0
H2354 H 0.29282 0.80975 0.44074 0.0
C2355 C 0.31935 0.82504 0.48732 0.0
C2356 C 0.30393 0.81238 0.48799 0.0
H2357 H 0.33736 0.84162 0.47021 0.0
H2358 H 0.32718 0.82922 0.50015 0.0
C2359 C 0.29417 0.80748 0.47094 0.0
C2360 C 0.60598 0.19816 0.74141 0.0
C2361 C 0.61012 0.20852 0.72517 0.0
H2362 H 0.58821 0.19471 0.76484 0.0
C2363 C 0.59854 0.22368 0.72012 0.0
H2364 H 0.61474 0.18653 0.74585 0.0
C2365 C 0.58318 0.22831 0.73093 0.0
C2366 C 0.579 0.21801 0.74724 0.0
H2367 H 0.60113 0.23179 0.70755 0.0
H2368 H 0.57447 0.23985 0.72622 0.0
C2369 C 0.59069 0.20287 0.75232 0.0
C2370 C 0.30224 0.10338 0.7277 0.0
C2371 C 0.31424 0.10344 0.71237 0.0
H2372 H 0.2839 0.08708 0.74487 0.0
C2373 C 0.31666 0.08653 0.70238 0.0
H2374 H 0.30014 0.11618 0.73572 0.0
C2375 C 0.30726 0.06996 0.70751 0.0
C2376 C 0.29535 0.06984 0.7229 0.0
H2377 H 0.32566 0.08615 0.6904 0.0
H2378 H 0.30958 0.05717 0.6996 0.0
C2379 C 0.29301 0.08673 0.73299 0.0
C2380 C 0.47968 0.84101 0.75027 0.0
C2381 C 0.46229 0.8312 0.75073 0.0
H2382 H 0.50887 0.84201 0.75923 0.0
C2383 C 0.46126 0.81482 0.76179 0.0
H2384 H 0.48114 0.85354 0.74176 0.0
C2385 C 0.47721 0.80815 0.77162 0.0
C2386 C 0.49462 0.81776 0.77086 0.0
H2387 H 0.44807 0.80712 0.76293 0.0
H2388 H 0.47594 0.79543 0.77987 0.0
C2389 C 0.49562 0.83442 0.76029 0.0
C2390 C 0.70233 0.94254 0.72782 0.0
C2391 C 0.70996 0.93562 0.71113 0.0
H2392 H 0.70341 0.96394 0.74937 0.0
C2393 C 0.72474 0.9459 0.7032 0.0
H2394 H 0.69111 0.93488 0.73449 0.0
C2395 C 0.73181 0.96252 0.71178 0.0
C2396 C 0.7243 0.96938 0.72854 0.0
H2397 H 0.73073 0.94123 0.69019 0.0
H2398 H 0.74301 0.97013 0.70507 0.0
C2399 C 0.7094 0.95922 0.73639 0.0
C2400 C 0.60383 0.79507 0.29644 0.0
C2401 C 0.60099 0.80913 0.31006 0.0
H2402 H 0.59147 0.77377 0.27814 0.0
C2403 C 0.58269 0.81149 0.31651 0.0
H2404 H 0.61778 0.79265 0.2914 0.0
C2405 C 0.56747 0.80064 0.30886 0.0
C2406 C 0.57025 0.78697 0.29478 0.0
H2407 H 0.58001 0.8222 0.32699 0.0
H2408 H 0.55347 0.80336 0.31359 0.0
C2409 C 0.58872 0.78408 0.28899 0.0
C2410 C 0.73927 0.10068 0.30932 0.0
C2411 C 0.72417 0.10852 0.29895 0.0
H2412 H 0.76047 0.07993 0.31083 0.0
C2413 C 0.71825 0.09997 0.28163 0.0
H2414 H 0.74392 0.10658 0.3229 0.0
C2415 C 0.72791 0.0844 0.2745 0.0
C2416 C 0.74352 0.0771 0.2847 0.0
H2417 H 0.70657 0.10568 0.27335 0.0
H2418 H 0.72349 0.07842 0.2609 0.0
C2419 C 0.74875 0.08526 0.30235 0.0
C2420 C 0.44139 0.20844 0.30989 0.0
C2421 C 0.42975 0.19331 0.30355 0.0
H2422 H 0.46541 0.22583 0.30517 0.0
C2423 C 0.43404 0.18387 0.28679 0.0
H2424 H 0.43867 0.21575 0.32296 0.0
C2425 C 0.44935 0.18984 0.27632 0.0
C2426 C 0.46081 0.20527 0.28249 0.0
H2427 H 0.42526 0.17219 0.28154 0.0
H2428 H 0.45192 0.1826 0.26321 0.0
C2429 C 0.45673 0.21427 0.29959 0.0
C2430 C 0.28323 0.92819 0.30378 0.0
C2431 C 0.3005 0.93291 0.31317 0.0
H2432 H 0.25785 0.93827 0.29043 0.0
C2433 C 0.30664 0.95194 0.31339 0.0
H2434 H 0.27828 0.91368 0.30281 0.0
C2435 C 0.29506 0.96603 0.3057 0.0
C2436 C 0.27718 0.96128 0.29783 0.0
H2437 H 0.31982 0.95611 0.32053 0.0
H2438 H 0.29945 0.98068 0.30726 0.0
C2439 C 0.27164 0.94223 0.29641 0.0
C2440 C 0.75296 0.09632 0.70454 0.0
C2441 C 0.73765 0.09671 0.69135 0.0
H2442 H 0.77187 0.07937 0.72118 0.0
C2443 C 0.73065 0.07953 0.68363 0.0
H2444 H 0.75885 0.10931 0.71056 0.0
C2445 C 0.73812 0.06235 0.6897 0.0
C2446 C 0.75287 0.06192 0.70352 0.0
H2447 H 0.71881 0.0793 0.67352 0.0
H2448 H 0.73184 0.04938 0.68404 0.0
C2449 C 0.76055 0.07914 0.71049 0.0
C2450 C 0.73544 0.94668 0.29516 0.0
C2451 C 0.72672 0.947 0.31271 0.0
H2452 H 0.75321 0.96124 0.27597 0.0
C2453 C 0.72966 0.96313 0.32433 0.0
H2454 H 0.73397 0.93453 0.28587 0.0
C2455 C 0.74132 0.97807 0.31888 0.0
C2456 C 0.74993 0.97762 0.30143 0.0
H2457 H 0.72287 0.96438 0.33767 0.0
H2458 H 0.7433 0.99023 0.32813 0.0
C2459 C 0.74668 0.9619 0.28951 0.0
C2460 C 0.58912 0.2132 0.29149 0.0
C2461 C 0.59644 0.22482 0.30618 0.0
H2462 H 0.56717 0.20786 0.27085 0.0
C2463 C 0.58589 0.2404 0.3118 0.0
H2464 H 0.59667 0.20089 0.28706 0.0
C2465 C 0.56865 0.24459 0.3023 0.0
C2466 C 0.56167 0.23311 0.28722 0.0
H2467 H 0.59119 0.24957 0.32315 0.0
H2468 H 0.561 0.25689 0.30654 0.0
C2469 C 0.57205 0.21723 0.28222 0.0
C2470 C 0.29275 0.07245 0.35483 0.0
C2471 C 0.29054 0.08973 0.34545 0.0
H2472 H 0.28326 0.04366 0.35709 0.0
C2473 C 0.27616 0.09131 0.3314 0.0
H2474 H 0.30366 0.07089 0.3658 0.0
C2475 C 0.26466 0.07576 0.32635 0.0
C2476 C 0.26707 0.05838 0.33545 0.0
H2477 H 0.2742 0.10442 0.32387 0.0
H2478 H 0.25402 0.0772 0.31511 0.0
C2479 C 0.28099 0.05695 0.35 0.0
C2480 C 0.43377 0.81575 0.30335 0.0
C2481 C 0.43344 0.83079 0.31639 0.0
H2482 H 0.44935 0.80113 0.28268 0.0
C2483 C 0.44938 0.84277 0.31844 0.0
H2484 H 0.42177 0.80621 0.30147 0.0
C2485 C 0.46516 0.83991 0.30758 0.0
C2486 C 0.46548 0.82487 0.29454 0.0
H2487 H 0.44953 0.8546 0.32819 0.0
H2488 H 0.4772 0.84936 0.30958 0.0
C2489 C 0.44962 0.81277 0.29265 0.0
C2490 C 0.33457 0.95905 0.74148 0.0
C2491 C 0.33221 0.93996 0.74631 0.0
H2492 H 0.32689 0.98769 0.74675 0.0
C2493 C 0.32104 0.93544 0.76162 0.0
H2494 H 0.34307 0.96299 0.72974 0.0
C2495 C 0.31201 0.94957 0.77154 0.0
C2496 C 0.31371 0.96861 0.76626 0.0
H2497 H 0.31919 0.92091 0.7659 0.0
H2498 H 0.30316 0.94544 0.78296 0.0
C2499 C 0.32532 0.9732 0.75126 0.0
C2500 C 0.59044 0.79166 0.72135 0.0
C2501 C 0.61009 0.79176 0.72491 0.0
H2502 H 0.56326 0.78504 0.73213 0.0
C2503 C 0.61736 0.78223 0.74085 0.0
H2504 H 0.58436 0.79889 0.70921 0.0
C2505 C 0.60532 0.77456 0.75394 0.0
C2506 C 0.58576 0.77582 0.75116 0.0
H2507 H 0.63241 0.78153 0.74375 0.0
H2508 H 0.61133 0.76856 0.76681 0.0
C2509 C 0.57833 0.78366 0.73439 0.0
C2510 C 0.4545 0.21134 0.7311 0.0
C2511 C 0.44639 0.223 0.71717 0.0
H2512 H 0.47577 0.20781 0.75263 0.0
C2513 C 0.45466 0.24098 0.71444 0.0
H2514 H 0.4484 0.19763 0.73403 0.0
C2515 C 0.47059 0.24707 0.72549 0.0
C2516 C 0.47845 0.23532 0.73953 0.0
H2517 H 0.44886 0.25033 0.70377 0.0
H2518 H 0.47654 0.261 0.72326 0.0
C2519 C 0.47024 0.21735 0.74198 0.0
C2520 C 0.73125 0.75815 0.08885 0.0
C2521 C 0.71489 0.74689 0.08616 0.0
H2522 H 0.75064 0.77747 0.07655 0.0
C2523 C 0.70528 0.74686 0.06843 0.0
H2524 H 0.73899 0.7584 0.10233 0.0
C2525 C 0.7119 0.75789 0.05369 0.0
C2526 C 0.7284 0.76896 0.05632 0.0
H2527 H 0.69254 0.73845 0.06601 0.0
H2528 H 0.70433 0.75746 0.04012 0.0
C2529 C 0.73797 0.76898 0.07407 0.0
C2530 C 0.31536 0.70755 0.07653 0.0
C2531 C 0.31208 0.71413 0.09493 0.0
H2532 H 0.31101 0.71206 0.04666 0.0
C2533 C 0.29902 0.72864 0.09699 0.0
H2534 H 0.3254 0.69652 0.07435 0.0
C2535 C 0.29072 0.73736 0.08114 0.0
C2536 C 0.295 0.73166 0.06281 0.0
H2537 H 0.29583 0.73386 0.11088 0.0
H2538 H 0.28189 0.74945 0.08321 0.0
C2539 C 0.30697 0.71631 0.06063 0.0
C2540 C 0.32075 0.29565 0.10348 0.0
C2541 C 0.31526 0.31289 0.11142 0.0
H2542 H 0.31472 0.2741 0.08245 0.0
C2543 C 0.29911 0.32161 0.10381 0.0
H2544 H 0.33318 0.28862 0.10899 0.0
C2545 C 0.28863 0.31334 0.08881 0.0
C2546 C 0.29396 0.29611 0.08086 0.0
H2547 H 0.29428 0.3347 0.10973 0.0
H2548 H 0.27619 0.32052 0.08352 0.0
C2549 C 0.31025 0.28739 0.08824 0.0
C2550 C 0.73042 0.31797 0.08 0.0
C2551 C 0.71244 0.32604 0.07887 0.0
H2552 H 0.75159 0.30292 0.06558 0.0
C2553 C 0.70242 0.32565 0.06129 0.0
H2554 H 0.73851 0.31771 0.09327 0.0
C2555 C 0.70979 0.31679 0.04558 0.0
C2556 C 0.72753 0.30842 0.04687 0.0
H2557 H 0.68878 0.33213 0.05961 0.0
H2558 H 0.70162 0.31656 0.03235 0.0
C2559 C 0.73793 0.30939 0.06415 0.0
C2560 C 0.73202 0.31258 0.92525 0.0
C2561 C 0.73822 0.32865 0.91555 0.0
H2562 H 0.737 0.29351 0.94818 0.0
C2563 C 0.75492 0.33787 0.92219 0.0
H2564 H 0.71936 0.30498 0.92044 0.0
C2565 C 0.76506 0.33129 0.93814 0.0
C2566 C 0.75886 0.31522 0.94781 0.0
H2567 H 0.76002 0.3504 0.91523 0.0
H2568 H 0.77778 0.33883 0.94287 0.0
C2569 C 0.74223 0.30593 0.94112 0.0
C2570 C 0.77076 0.7246 0.95885 0.0
C2571 C 0.76831 0.72846 0.93945 0.0
H2572 H 0.77515 0.73614 0.98688 0.0
C2573 C 0.77019 0.74716 0.93331 0.0
H2574 H 0.76933 0.71029 0.96392 0.0
C2575 C 0.77313 0.76183 0.94638 0.0
C2576 C 0.7747 0.75809 0.9658 0.0
H2577 H 0.76816 0.75058 0.9185 0.0
H2578 H 0.77342 0.77623 0.94134 0.0
C2579 C 0.77419 0.73932 0.97194 0.0
C2580 C 0.35157 0.72671 0.95098 0.0
C2581 C 0.34086 0.72603 0.93377 0.0
H2582 H 0.35382 0.73676 0.97965 0.0
C2583 C 0.32359 0.73554 0.93285 0.0
H2584 H 0.36471 0.71929 0.95256 0.0
C2585 C 0.31721 0.7452 0.94862 0.0
C2586 C 0.32803 0.74595 0.96565 0.0
H2587 H 0.31505 0.7358 0.91986 0.0
H2588 H 0.30388 0.75235 0.94742 0.0
C2589 C 0.34533 0.73669 0.96662 0.0
C2590 C 0.30297 0.32976 0.95836 0.0
C2591 C 0.30538 0.3164 0.94395 0.0
H2592 H 0.29097 0.3356 0.98506 0.0
C2593 C 0.2971 0.29839 0.94546 0.0
H2594 H 0.30912 0.34379 0.95742 0.0
C2595 C 0.28698 0.29366 0.96133 0.0
C2596 C 0.28458 0.30699 0.97576 0.0
H2597 H 0.29878 0.28786 0.93453 0.0
H2598 H 0.28097 0.27959 0.96234 0.0
C2599 C 0.29248 0.32516 0.97403 0.0
C2600 C 0.58784 0.7378 0.21552 0.0
C2601 C 0.60085 0.74493 0.20283 0.0
H2602 H 0.56425 0.74335 0.23237 0.0
C2603 C 0.59876 0.76355 0.19639 0.0
H2604 H 0.58909 0.7236 0.22091 0.0
C2605 C 0.58442 0.77491 0.20289 0.0
C2606 C 0.57173 0.76799 0.21601 0.0
H2607 H 0.60826 0.76941 0.18629 0.0
H2608 H 0.58336 0.7892 0.19773 0.0
C2609 C 0.5735 0.74918 0.22205 0.0
C2610 C 0.32126 0.60123 0.24094 0.0
C2611 C 0.3379 0.60028 0.23085 0.0
H2612 H 0.30267 0.58735 0.2597 0.0
C2613 C 0.34891 0.584 0.23277 0.0
H2614 H 0.31261 0.61364 0.24031 0.0
C2615 C 0.34338 0.56912 0.24435 0.0
C2616 C 0.32656 0.57001 0.25402 0.0
H2617 H 0.36164 0.58251 0.22505 0.0
H2618 H 0.35195 0.55666 0.24528 0.0
C2619 C 0.3156 0.58623 0.25223 0.0
C2620 C 0.43747 0.29155 0.22622 0.0
C2621 C 0.43531 0.30831 0.23647 0.0
H2622 H 0.4539 0.26743 0.22127 0.0
C2623 C 0.44939 0.31357 0.25019 0.0
H2624 H 0.42719 0.28722 0.21527 0.0
C2625 C 0.46509 0.302 0.25375 0.0
C2626 C 0.46704 0.28516 0.24341 0.0
H2627 H 0.44814 0.32646 0.2583 0.0
H2628 H 0.47567 0.30626 0.26441 0.0
C2629 C 0.453 0.28021 0.22962 0.0
C2630 C 0.68751 0.46178 0.2089 0.0
C2631 C 0.6963 0.44475 0.21369 0.0
H2632 H 0.68762 0.49183 0.2121 0.0
C2633 C 0.71109 0.44513 0.22748 0.0
H2634 H 0.67612 0.46201 0.19829 0.0
C2635 C 0.7176 0.46223 0.23555 0.0
C2636 C 0.70958 0.4794 0.22986 0.0
H2637 H 0.71795 0.43222 0.23173 0.0
H2638 H 0.72957 0.46204 0.2455 0.0
C2639 C 0.69412 0.4789 0.21684 0.0
C2640 C 0.58803 0.31954 0.78663 0.0
C2641 C 0.59792 0.31717 0.80413 0.0
H2642 H 0.56509 0.30995 0.76792 0.0
C2643 C 0.59149 0.3032 0.81637 0.0
H2644 H 0.59249 0.33026 0.77687 0.0
C2645 C 0.57587 0.29188 0.81137 0.0
C2646 C 0.56612 0.29392 0.79384 0.0
H2647 H 0.59884 0.30056 0.82975 0.0
H2648 H 0.57168 0.28119 0.82129 0.0
C2649 C 0.57224 0.30803 0.78154 0.0
C2650 C 0.7724 0.59619 0.80166 0.0
C2651 C 0.7603 0.59371 0.81673 0.0
H2652 H 0.78691 0.58317 0.77917 0.0
C2653 C 0.75497 0.57524 0.82163 0.0
H2654 H 0.77673 0.61021 0.79743 0.0
C2655 C 0.76082 0.55974 0.81118 0.0
C2656 C 0.77215 0.56227 0.79552 0.0
H2657 H 0.74599 0.57276 0.83339 0.0
H2658 H 0.75591 0.5458 0.81503 0.0
C2659 C 0.77824 0.58066 0.79117 0.0
C2660 C 0.46904 0.736 0.8292 0.0
C2661 C 0.46153 0.7217 0.81723 0.0
H2662 H 0.49143 0.75565 0.83523 0.0
C2663 C 0.47184 0.71595 0.80169 0.0
H2664 H 0.46162 0.74048 0.84148 0.0
C2665 C 0.48915 0.72477 0.79799 0.0
C2666 C 0.49648 0.73925 0.80995 0.0
H2667 H 0.46635 0.70493 0.79225 0.0
H2668 H 0.4967 0.72034 0.78579 0.0
C2669 C 0.48626 0.7446 0.82565 0.0
C2670 C 0.32139 0.44516 0.81623 0.0
C2671 C 0.31301 0.4322 0.8284 0.0
H2672 H 0.31941 0.4716 0.8021 0.0
C2673 C 0.29551 0.43663 0.83579 0.0
H2674 H 0.33479 0.44221 0.81018 0.0
C2675 C 0.28652 0.45344 0.83096 0.0
C2676 C 0.29479 0.4663 0.81861 0.0
H2677 H 0.28876 0.42715 0.84546 0.0
H2678 H 0.27295 0.45619 0.83671 0.0
C2679 C 0.31241 0.46197 0.81142 0.0
C2680 C 0.71202 0.58648 0.17552 0.0
C2681 C 0.71467 0.60274 0.18693 0.0
H2682 H 0.71846 0.55736 0.17126 0.0
C2683 C 0.72668 0.60159 0.20317 0.0
H2684 H 0.70268 0.58662 0.16308 0.0
C2685 C 0.73559 0.58471 0.20793 0.0
C2686 C 0.73291 0.56849 0.19653 0.0
H2687 H 0.72946 0.61384 0.21213 0.0
H2688 H 0.7448 0.58441 0.22047 0.0
C2689 C 0.72108 0.56963 0.1802 0.0
C2690 C 0.73707 0.45443 0.78945 0.0
C2691 C 0.71977 0.44574 0.78396 0.0
H2692 H 0.75681 0.47685 0.78494 0.0
C2693 C 0.70913 0.45346 0.7688 0.0
H2694 H 0.74571 0.44877 0.80093 0.0
C2695 C 0.71557 0.46957 0.75951 0.0
C2696 C 0.73288 0.47826 0.76503 0.0
H2697 H 0.69567 0.44722 0.76431 0.0
H2698 H 0.70706 0.47515 0.7479 0.0
C2699 C 0.74355 0.47044 0.7801 0.0
C2700 C 0.62132 0.7112 0.8268 0.0
C2701 C 0.63383 0.717 0.84164 0.0
H2702 H 0.59592 0.71652 0.81081 0.0
C2703 C 0.62993 0.73354 0.8517 0.0
H2704 H 0.62381 0.69841 0.81891 0.0
C2705 C 0.61401 0.74412 0.84696 0.0
C2706 C 0.60142 0.7384 0.83207 0.0
H2707 H 0.63943 0.73856 0.86305 0.0
H2708 H 0.61185 0.75694 0.85484 0.0
C2709 C 0.60528 0.72169 0.82215 0.0
C2710 C 0.33644 0.58172 0.80658 0.0
C2711 C 0.33438 0.60034 0.80026 0.0
H2712 H 0.32901 0.55257 0.8021 0.0
C2713 C 0.32422 0.60352 0.78318 0.0
H2714 H 0.34417 0.57886 0.8197 0.0
C2715 C 0.31586 0.58844 0.77288 0.0
C2716 C 0.31721 0.56989 0.77965 0.0
H2717 H 0.32258 0.61772 0.77788 0.0
H2718 H 0.30762 0.59141 0.76009 0.0
C2719 C 0.32779 0.56668 0.79648 0.0
C2720 C 0.44918 0.30769 0.81695 0.0
C2721 C 0.43883 0.30107 0.83212 0.0
H2722 H 0.47226 0.30347 0.7991 0.0
C2723 C 0.44427 0.28412 0.8408 0.0
H2724 H 0.44558 0.32083 0.8101 0.0
C2725 C 0.45957 0.27399 0.83439 0.0
C2726 C 0.46993 0.28056 0.81915 0.0
H2727 H 0.43647 0.27845 0.85237 0.0
H2728 H 0.46302 0.26084 0.84123 0.0
C2729 C 0.46454 0.29764 0.8106 0.0
C2730 C 0.31229 0.45828 0.22168 0.0
C2731 C 0.30862 0.43999 0.22848 0.0
H2732 H 0.30876 0.48807 0.22574 0.0
C2733 C 0.29577 0.4379 0.24296 0.0
H2734 H 0.32221 0.46049 0.21066 0.0
C2735 C 0.28801 0.4537 0.25144 0.0
C2736 C 0.29266 0.47195 0.24546 0.0
H2737 H 0.29229 0.42406 0.24832 0.0
H2738 H 0.27934 0.45171 0.26354 0.0
C2739 C 0.30445 0.47411 0.23016 0.0
C2740 C 0.58244 0.30704 0.21249 0.0
C2741 C 0.59253 0.30113 0.19693 0.0
H2742 H 0.55992 0.30133 0.23074 0.0
C2743 C 0.58724 0.28404 0.18786 0.0
H2744 H 0.58592 0.32031 0.21958 0.0
C2745 C 0.57232 0.27302 0.19434 0.0
C2746 C 0.5623 0.27887 0.21001 0.0
H2747 H 0.59486 0.279 0.17593 0.0
H2748 H 0.56889 0.25977 0.18725 0.0
C2749 C 0.56751 0.2961 0.21891 0.0
C2750 C 0.45594 0.72943 0.23449 0.0
C2751 C 0.44621 0.73521 0.21781 0.0
H2752 H 0.47816 0.73562 0.25532 0.0
C2753 C 0.45233 0.75177 0.20903 0.0
H2754 H 0.45156 0.71677 0.24169 0.0
C2755 C 0.46742 0.76245 0.21678 0.0
C2756 C 0.47697 0.75698 0.23362 0.0
H2757 H 0.44552 0.75647 0.19599 0.0
H2758 H 0.47152 0.77516 0.2095 0.0
C2759 C 0.47115 0.74023 0.24235 0.0
loop_
_geom_bond_atom_site_label_1
_geom_bond_atom_site_label_2
_geom_bond_distance
_geom_bond_site_symmetry_2
_ccdc_geom_bond_type
C0 C1 1.386 . S
C0 C2 1.397 . S
C0 H24 0.931 . S
C1 C0 1.386 . S
C1 C5 1.397 . S
C2 C0 1.397 . S
C2 C3 1.384 . S
C2 H25 0.930 . S
C3 C2 1.384 . S
C3 C4 1.377 . S
C3 C6 1.481 . S
C4 C3 1.377 . S
C4 C5 1.389 . S
C4 H26 0.929 . S
C5 C1 1.397 . S
C5 C4 1.389 . S
C5 H27 0.931 . S
C6 C3 1.481 . S
C6 C7 1.387 . S
C6 C11 1.390 . S
C7 C6 1.387 . S
C7 C8 1.401 . S
C7 H28 0.930 . S
C8 C7 1.401 . S
C8 C9 1.376 . S
C8 C17 1.511 . S
C9 C8 1.376 . S
C9 C10 1.392 . S
C9 H30 0.931 . S
C10 C9 1.392 . S
C10 C11 1.361 . S
C10 C12 1.500 . S
C11 C6 1.390 . S
C11 C10 1.361 . S
C11 H29 0.931 . S
C12 C10 1.500 . S
C12 C13 1.371 . S
C12 C14 1.365 . S
C13 C12 1.371 . S
C13 C23 1.386 . S
C13 H31 0.931 . S
C14 C12 1.365 . S
C14 C15 1.409 . S
C14 H32 0.929 . S
C15 C14 1.409 . S
C15 C16 1.380 . S
C15 H33 0.930 . S
C16 C15 1.380 . S
C16 C23 1.357 . S
C17 C8 1.511 . S
C17 C18 1.341 . S
C17 C19 1.371 . S
C18 C17 1.341 . S
C18 C22 1.394 . S
C18 H34 0.930 . S
C19 C17 1.371 . S
C19 C20 1.392 . S
C19 H35 0.931 . S
C20 C19 1.392 . S
C20 C21 1.331 . S
C20 H38 0.932 . S
C21 C20 1.331 . S
C21 C22 1.336 . S
C22 C18 1.394 . S
C22 C21 1.336 . S
C22 H37 0.929 . S
C23 C13 1.386 . S
C23 C16 1.357 . S
C23 H36 0.928 . S
H24 C0 0.931 . S
H25 C2 0.930 . S
H26 C4 0.929 . S
H27 C5 0.931 . S
H28 C7 0.930 . S
H29 C11 0.931 . S
H30 C9 0.931 . S
H31 C13 0.931 . S
H32 C14 0.929 . S
H33 C15 0.930 . S
H34 C18 0.930 . S
H35 C19 0.931 . S
H36 C23 0.928 . S
H37 C22 0.929 . S
H38 C20 0.932 . S
C39 C40 1.386 . S
C39 C41 1.397 . S
C39 H63 0.931 . S
C40 C39 1.386 . S
C40 C44 1.397 . S
C41 C39 1.397 . S
C41 C42 1.384 . S
C41 H64 0.930 . S
C42 C41 1.384 . S
C42 C43 1.377 . S
C42 C45 1.481 . S
C43 C42 1.377 . S
C43 C44 1.389 . S
C43 H65 0.929 . S
C44 C40 1.397 . S
C44 C43 1.389 . S
C44 H66 0.931 . S
C45 C42 1.481 . S
C45 C46 1.387 . S
C45 C50 1.390 . S
C46 C45 1.387 . S
C46 C47 1.401 . S
C46 H67 0.930 . S
C47 C46 1.401 . S
C47 C48 1.376 . S
C47 C56 1.511 . S
C48 C47 1.376 . S
C48 C49 1.392 . S
C48 H69 0.931 . S
C49 C48 1.392 . S
C49 C50 1.361 . S
C49 C51 1.500 . S
C50 C45 1.390 . S
C50 C49 1.361 . S
C50 H68 0.931 . S
C51 C49 1.500 . S
C51 C52 1.371 . S
C51 C53 1.365 . S
C52 C51 1.371 . S
C52 C62 1.386 . S
C52 H70 0.931 . S
C53 C51 1.365 . S
C53 C54 1.409 . S
C53 H71 0.929 . S
C54 C53 1.409 . S
C54 C55 1.380 . S
C54 H72 0.930 . S
C55 C54 1.380 . S
C55 C62 1.357 . S
C56 C47 1.511 . S
C56 C57 1.341 . S
C56 C58 1.371 . S
C57 C56 1.341 . S
C57 C61 1.394 . S
C57 H73 0.930 . S
C58 C56 1.371 . S
C58 C59 1.392 . S
C58 H74 0.931 . S
C59 C58 1.392 . S
C59 C60 1.331 . S
C59 H77 0.932 . S
C60 C59 1.331 . S
C60 C61 1.336 . S
C61 C57 1.394 . S
C61 C60 1.336 . S
C61 H76 0.929 . S
C62 C52 1.386 . S
C62 C55 1.357 . S
C62 H75 0.928 . S
H63 C39 0.931 . S
H64 C41 0.930 . S
H65 C43 0.929 . S
H66 C44 0.931 . S
H67 C46 0.930 . S
H68 C50 0.931 . S
H69 C48 0.931 . S
H70 C52 0.931 . S
H71 C53 0.929 . S
H72 C54 0.930 . S
H73 C57 0.930 . S
H74 C58 0.931 . S
H75 C62 0.928 . S
H76 C61 0.929 . S
H77 C59 0.932 . S
C78 C79 1.386 . S
C78 C80 1.397 . S
C78 H102 0.931 . S
C79 C78 1.386 . S
C79 C83 1.397 . S
C80 C78 1.397 . S
C80 C81 1.384 . S
C80 H103 0.930 . S
C81 C80 1.384 . S
C81 C82 1.377 . S
C81 C84 1.481 . S
C82 C81 1.377 . S
C82 C83 1.389 . S
C82 H104 0.929 . S
C83 C79 1.397 . S
C83 C82 1.389 . S
C83 H105 0.931 . S
C84 C81 1.481 . S
C84 C85 1.387 . S
C84 C89 1.390 . S
C85 C84 1.387 . S
C85 C86 1.401 . S
C85 H106 0.930 . S
C86 C85 1.401 . S
C86 C87 1.376 . S
C86 C95 1.511 . S
C87 C86 1.376 . S
C87 C88 1.392 . S
C87 H108 0.931 . S
C88 C87 1.392 . S
C88 C89 1.361 . S
C88 C90 1.500 . S
C89 C84 1.390 . S
C89 C88 1.361 . S
C89 H107 0.931 . S
C90 C88 1.500 . S
C90 C91 1.371 . S
C90 C92 1.365 . S
C91 C90 1.371 . S
C91 C101 1.386 . S
C91 H109 0.931 . S
C92 C90 1.365 . S
C92 C93 1.409 . S
C92 H110 0.929 . S
C93 C92 1.409 . S
C93 C94 1.380 . S
C93 H111 0.930 . S
C94 C93 1.380 . S
C94 C101 1.357 . S
C95 C86 1.511 . S
C95 C96 1.341 . S
C95 C97 1.371 . S
C96 C95 1.341 . S
C96 C100 1.394 . S
C96 H112 0.930 . S
C97 C95 1.371 . S
C97 C98 1.392 . S
C97 H113 0.931 . S
C98 C97 1.392 . S
C98 C99 1.331 . S
C98 H116 0.932 . S
C99 C98 1.331 . S
C99 C100 1.336 . S
C100 C96 1.394 . S
C100 C99 1.336 . S
C100 H115 0.929 . S
C101 C91 1.386 . S
C101 C94 1.357 . S
C101 H114 0.928 . S
H102 C78 0.931 . S
H103 C80 0.930 . S
H104 C82 0.929 . S
H105 C83 0.931 . S
H106 C85 0.930 . S
H107 C89 0.931 . S
H108 C87 0.931 . S
H109 C91 0.931 . S
H110 C92 0.929 . S
H111 C93 0.930 . S
H112 C96 0.930 . S
H113 C97 0.931 . S
H114 C101 0.928 . S
H115 C100 0.929 . S
H116 C98 0.932 . S
C117 C118 1.386 . S
C117 C119 1.397 . S
C117 H141 0.931 . S
C118 C117 1.386 . S
C118 C122 1.397 . S
C119 C117 1.397 . S
C119 C120 1.384 . S
C119 H142 0.930 . S
C120 C119 1.384 . S
C120 C121 1.377 . S
C120 C123 1.481 . S
C121 C120 1.377 . S
C121 C122 1.389 . S
C121 H143 0.929 . S
C122 C118 1.397 . S
C122 C121 1.389 . S
C122 H144 0.931 . S
C123 C120 1.481 . S
C123 C124 1.387 . S
C123 C128 1.390 . S
C124 C123 1.387 . S
C124 C125 1.401 . S
C124 H145 0.930 . S
C125 C124 1.401 . S
C125 C126 1.376 . S
C125 C134 1.511 . S
C126 C125 1.376 . S
C126 C127 1.392 . S
C126 H147 0.931 . S
C127 C126 1.392 . S
C127 C128 1.361 . S
C127 C129 1.500 . S
C128 C123 1.390 . S
C128 C127 1.361 . S
C128 H146 0.931 . S
C129 C127 1.500 . S
C129 C130 1.371 . S
C129 C131 1.365 . S
C130 C129 1.371 . S
C130 C140 1.386 . S
C130 H148 0.931 . S
C131 C129 1.365 . S
C131 C132 1.409 . S
C131 H149 0.929 . S
C132 C131 1.409 . S
C132 C133 1.380 . S
C132 H150 0.930 . S
C133 C132 1.380 . S
C133 C140 1.357 . S
C134 C125 1.511 . S
C134 C135 1.341 . S
C134 C136 1.371 . S
C135 C134 1.341 . S
C135 C139 1.394 . S
C135 H151 0.930 . S
C136 C134 1.371 . S
C136 C137 1.392 . S
C136 H152 0.931 . S
C137 C136 1.392 . S
C137 C138 1.331 . S
C137 H155 0.932 . S
C138 C137 1.331 . S
C138 C139 1.336 . S
C139 C135 1.394 . S
C139 C138 1.336 . S
C139 H154 0.929 . S
C140 C130 1.386 . S
C140 C133 1.357 . S
C140 H153 0.928 . S
H141 C117 0.931 . S
H142 C119 0.930 . S
H143 C121 0.929 . S
H144 C122 0.931 . S
H145 C124 0.930 . S
H146 C128 0.931 . S
H147 C126 0.931 . S
H148 C130 0.931 . S
H149 C131 0.929 . S
H150 C132 0.930 . S
H151 C135 0.930 . S
H152 C136 0.931 . S
H153 C140 0.928 . S
H154 C139 0.929 . S
H155 C137 0.932 . S
C156 C157 1.386 . S
C156 C158 1.397 . S
C156 H180 0.931 . S
C157 C156 1.386 . S
C157 C161 1.397 . S
C158 C156 1.397 . S
C158 C159 1.384 . S
C158 H181 0.930 . S
C159 C158 1.384 . S
C159 C160 1.377 . S
C159 C162 1.481 . S
C160 C159 1.377 . S
C160 C161 1.389 . S
C160 H182 0.929 . S
C161 C157 1.397 . S
C161 C160 1.389 . S
C161 H183 0.931 . S
C162 C159 1.481 . S
C162 C163 1.387 . S
C162 C167 1.390 . S
C163 C162 1.387 . S
C163 C164 1.401 . S
C163 H184 0.930 . S
C164 C163 1.401 . S
C164 C165 1.376 . S
C164 C173 1.511 . S
C165 C164 1.376 . S
C165 C166 1.392 . S
C165 H186 0.931 . S
C166 C165 1.392 . S
C166 C167 1.361 . S
C166 C168 1.500 . S
C167 C162 1.390 . S
C167 C166 1.361 . S
C167 H185 0.931 . S
C168 C166 1.500 . S
C168 C169 1.371 . S
C168 C170 1.365 . S
C169 C168 1.371 . S
C169 C179 1.386 . S
C169 H187 0.931 . S
C170 C168 1.365 . S
C170 C171 1.409 . S
C170 H188 0.929 . S
C171 C170 1.409 . S
C171 C172 1.380 . S
C171 H189 0.930 . S
C172 C171 1.380 . S
C172 C179 1.357 . S
C173 C164 1.511 . S
C173 C174 1.341 . S
C173 C175 1.371 . S
C174 C173 1.341 . S
C174 C178 1.394 . S
C174 H190 0.930 . S
C175 C173 1.371 . S
C175 C176 1.392 . S
C175 H191 0.931 . S
C176 C175 1.392 . S
C176 C177 1.331 . S
C176 H194 0.932 . S
C177 C176 1.331 . S
C177 C178 1.336 . S
C178 C174 1.394 . S
C178 C177 1.336 . S
C178 H193 0.929 . S
C179 C169 1.386 . S
C179 C172 1.357 . S
C179 H192 0.928 . S
H180 C156 0.931 . S
H181 C158 0.930 . S
H182 C160 0.929 . S
H183 C161 0.931 . S
H184 C163 0.930 . S
H185 C167 0.931 . S
H186 C165 0.931 . S
H187 C169 0.931 . S
H188 C170 0.929 . S
H189 C171 0.930 . S
H190 C174 0.930 . S
H191 C175 0.931 . S
H192 C179 0.928 . S
H193 C178 0.929 . S
H194 C176 0.932 . S
C195 C196 1.386 . S
C195 C197 1.397 . S
C195 H219 0.931 . S
C196 C195 1.386 . S
C196 C200 1.397 . S
C197 C195 1.397 . S
C197 C198 1.384 . S
C197 H220 0.930 . S
C198 C197 1.384 . S
C198 C199 1.377 . S
C198 C201 1.481 . S
C199 C198 1.377 . S
C199 C200 1.389 . S
C199 H221 0.929 . S
C200 C196 1.397 . S
C200 C199 1.389 . S
C200 H222 0.931 . S
C201 C198 1.481 . S
C201 C202 1.387 . S
C201 C206 1.390 . S
C202 C201 1.387 . S
C202 C203 1.401 . S
C202 H223 0.930 . S
C203 C202 1.401 . S
C203 C204 1.376 . S
C203 C212 1.511 . S
C204 C203 1.376 . S
C204 C205 1.392 . S
C204 H225 0.931 . S
C205 C204 1.392 . S
C205 C206 1.361 . S
C205 C207 1.500 . S
C206 C201 1.390 . S
C206 C205 1.361 . S
C206 H224 0.931 . S
C207 C205 1.500 . S
C207 C208 1.371 . S
C207 C209 1.365 . S
C208 C207 1.371 . S
C208 C218 1.386 . S
C208 H226 0.931 . S
C209 C207 1.365 . S
C209 C210 1.409 . S
C209 H227 0.929 . S
C210 C209 1.409 . S
C210 C211 1.380 . S
C210 H228 0.930 . S
C211 C210 1.380 . S
C211 C218 1.357 . S
C212 C203 1.511 . S
C212 C213 1.341 . S
C212 C214 1.371 . S
C213 C212 1.341 . S
C213 C217 1.394 . S
C213 H229 0.930 . S
C214 C212 1.371 . S
C214 C215 1.392 . S
C214 H230 0.931 . S
C215 C214 1.392 . S
C215 C216 1.331 . S
C215 H233 0.932 . S
C216 C215 1.331 . S
C216 C217 1.336 . S
C217 C213 1.394 . S
C217 C216 1.336 . S
C217 H232 0.929 . S
C218 C208 1.386 . S
C218 C211 1.357 . S
C218 H231 0.928 . S
H219 C195 0.931 . S
H220 C197 0.930 . S
H221 C199 0.929 . S
H222 C200 0.931 . S
H223 C202 0.930 . S
H224 C206 0.931 . S
H225 C204 0.931 . S
H226 C208 0.931 . S
H227 C209 0.929 . S
H228 C210 0.930 . S
H229 C213 0.930 . S
H230 C214 0.931 . S
H231 C218 0.928 . S
H232 C217 0.929 . S
H233 C215 0.932 . S
C234 C235 1.386 . S
C234 C236 1.397 . S
C234 H258 0.931 . S
C235 C234 1.386 . S
C235 C239 1.397 . S
C236 C234 1.397 . S
C236 C237 1.384 . S
C236 H259 0.930 . S
C237 C236 1.384 . S
C237 C238 1.377 . S
C237 C240 1.481 . S
C238 C237 1.377 . S
C238 C239 1.389 . S
C238 H260 0.929 . S
C239 C235 1.397 . S
C239 C238 1.389 . S
C239 H261 0.931 . S
C240 C237 1.481 . S
C240 C241 1.387 . S
C240 C245 1.390 . S
C241 C240 1.387 . S
C241 C242 1.401 . S
C241 H262 0.930 . S
C242 C241 1.401 . S
C242 C243 1.376 . S
C242 C251 1.511 . S
C243 C242 1.376 . S
C243 C244 1.392 . S
C243 H264 0.931 . S
C244 C243 1.392 . S
C244 C245 1.361 . S
C244 C246 1.500 . S
C245 C240 1.390 . S
C245 C244 1.361 . S
C245 H263 0.931 . S
C246 C244 1.500 . S
C246 C247 1.371 . S
C246 C248 1.365 . S
C247 C246 1.371 . S
C247 C257 1.386 . S
C247 H265 0.931 . S
C248 C246 1.365 . S
C248 C249 1.409 . S
C248 H266 0.929 . S
C249 C248 1.409 . S
C249 C250 1.380 . S
C249 H267 0.930 . S
C250 C249 1.380 . S
C250 C257 1.357 . S
C251 C242 1.511 . S
C251 C252 1.341 . S
C251 C253 1.371 . S
C252 C251 1.341 . S
C252 C256 1.394 . S
C252 H268 0.930 . S
C253 C251 1.371 . S
C253 C254 1.392 . S
C253 H269 0.931 . S
C254 C253 1.392 . S
C254 C255 1.331 . S
C254 H272 0.932 . S
C255 C254 1.331 . S
C255 C256 1.336 . S
C256 C252 1.394 . S
C256 C255 1.336 . S
C256 H271 0.929 . S
C257 C247 1.386 . S
C257 C250 1.357 . S
C257 H270 0.928 . S
H258 C234 0.931 . S
H259 C236 0.930 . S
H260 C238 0.929 . S
H261 C239 0.931 . S
H262 C241 0.930 . S
H263 C245 0.931 . S
H264 C243 0.931 . S
H265 C247 0.931 . S
H266 C248 0.929 . S
H267 C249 0.930 . S
H268 C252 0.930 . S
H269 C253 0.931 . S
H270 C257 0.928 . S
H271 C256 0.929 . S
H272 C254 0.932 . S
C273 C274 1.386 . S
C273 C275 1.397 . S
C273 H297 0.931 . S
C274 C273 1.386 . S
C274 C278 1.397 . S
C275 C273 1.397 . S
C275 C276 1.384 . S
C275 H298 0.930 . S
C276 C275 1.384 . S
C276 C277 1.377 . S
C276 C279 1.481 . S
C277 C276 1.377 . S
C277 C278 1.389 . S
C277 H299 0.929 . S
C278 C274 1.397 . S
C278 C277 1.389 . S
C278 H300 0.931 . S
C279 C276 1.481 . S
C279 C280 1.387 . S
C279 C284 1.390 . S
C280 C279 1.387 . S
C280 C281 1.401 . S
C280 H301 0.930 . S
C281 C280 1.401 . S
C281 C282 1.376 . S
C281 C290 1.511 . S
C282 C281 1.376 . S
C282 C283 1.392 . S
C282 H303 0.931 . S
C283 C282 1.392 . S
C283 C284 1.361 . S
C283 C285 1.500 . S
C284 C279 1.390 . S
C284 C283 1.361 . S
C284 H302 0.931 . S
C285 C283 1.500 . S
C285 C286 1.371 . S
C285 C287 1.365 . S
C286 C285 1.371 . S
C286 C296 1.386 . S
C286 H304 0.931 . S
C287 C285 1.365 . S
C287 C288 1.409 . S
C287 H305 0.929 . S
C288 C287 1.409 . S
C288 C289 1.380 . S
C288 H306 0.930 . S
C289 C288 1.380 . S
C289 C296 1.357 . S
C290 C281 1.511 . S
C290 C291 1.341 . S
C290 C292 1.371 . S
C291 C290 1.341 . S
C291 C295 1.394 . S
C291 H307 0.930 . S
C292 C290 1.371 . S
C292 C293 1.392 . S
C292 H308 0.931 . S
C293 C292 1.392 . S
C293 C294 1.331 . S
C293 H311 0.932 . S
C294 C293 1.331 . S
C294 C295 1.336 . S
C295 C291 1.394 . S
C295 C294 1.336 . S
C295 H310 0.929 . S
C296 C286 1.386 . S
C296 C289 1.357 . S
C296 H309 0.928 . S
H297 C273 0.931 . S
H298 C275 0.930 . S
H299 C277 0.929 . S
H300 C278 0.931 . S
H301 C280 0.930 . S
H302 C284 0.931 . S
H303 C282 0.931 . S
H304 C286 0.931 . S
H305 C287 0.929 . S
H306 C288 0.930 . S
H307 C291 0.930 . S
H308 C292 0.931 . S
H309 C296 0.928 . S
H310 C295 0.929 . S
H311 C293 0.932 . S
C312 C313 1.386 . S
C312 C314 1.397 . S
C312 H336 0.931 . S
C313 C312 1.386 . S
C313 C317 1.397 . S
C314 C312 1.397 . S
C314 C315 1.384 . S
C314 H337 0.930 . S
C315 C314 1.384 . S
C315 C316 1.377 . S
C315 C318 1.481 . S
C316 C315 1.377 . S
C316 C317 1.389 . S
C316 H338 0.929 . S
C317 C313 1.397 . S
C317 C316 1.389 . S
C317 H339 0.931 . S
C318 C315 1.481 . S
C318 C319 1.387 . S
C318 C323 1.390 . S
C319 C318 1.387 . S
C319 C320 1.401 . S
C319 H340 0.930 . S
C320 C319 1.401 . S
C320 C321 1.376 . S
C320 C329 1.511 . S
C321 C320 1.376 . S
C321 C322 1.392 . S
C321 H342 0.931 . S
C322 C321 1.392 . S
C322 C323 1.361 . S
C322 C324 1.500 . S
C323 C318 1.390 . S
C323 C322 1.361 . S
C323 H341 0.931 . S
C324 C322 1.500 . S
C324 C325 1.371 . S
C324 C326 1.365 . S
C325 C324 1.371 . S
C325 C335 1.386 . S
C325 H343 0.931 . S
C326 C324 1.365 . S
C326 C327 1.409 . S
C326 H344 0.929 . S
C327 C326 1.409 . S
C327 C328 1.380 . S
C327 H345 0.930 . S
C328 C327 1.380 . S
C328 C335 1.357 . S
C329 C320 1.511 . S
C329 C330 1.341 . S
C329 C331 1.371 . S
C330 C329 1.341 . S
C330 C334 1.394 . S
C330 H346 0.930 . S
C331 C329 1.371 . S
C331 C332 1.392 . S
C331 H347 0.931 . S
C332 C331 1.392 . S
C332 C333 1.331 . S
C332 H350 0.932 . S
C333 C332 1.331 . S
C333 C334 1.336 . S
C334 C330 1.394 . S
C334 C333 1.336 . S
C334 H349 0.929 . S
C335 C325 1.386 . S
C335 C328 1.357 . S
C335 H348 0.928 . S
H336 C312 0.931 . S
H337 C314 0.930 . S
H338 C316 0.929 . S
H339 C317 0.931 . S
H340 C319 0.930 . S
H341 C323 0.931 . S
H342 C321 0.931 . S
H343 C325 0.931 . S
H344 C326 0.929 . S
H345 C327 0.930 . S
H346 C330 0.930 . S
H347 C331 0.931 . S
H348 C335 0.928 . S
H349 C334 0.929 . S
H350 C332 0.932 . S
C351 C352 1.386 . S
C351 C353 1.397 . S
C351 H375 0.931 . S
C352 C351 1.386 . S
C352 C356 1.397 . S
C353 C351 1.397 . S
C353 C354 1.384 . S
C353 H376 0.930 . S
C354 C353 1.384 . S
C354 C355 1.377 . S
C354 C357 1.481 . S
C355 C354 1.377 . S
C355 C356 1.389 . S
C355 H377 0.929 . S
C356 C352 1.397 . S
C356 C355 1.389 . S
C356 H378 0.931 . S
C357 C354 1.481 . S
C357 C358 1.387 . S
C357 C362 1.390 . S
C358 C357 1.387 . S
C358 C359 1.401 . S
C358 H379 0.930 . S
C359 C358 1.401 . S
C359 C360 1.376 . S
C359 C368 1.511 . S
C360 C359 1.376 . S
C360 C361 1.392 . S
C360 H381 0.931 . S
C361 C360 1.392 . S
C361 C362 1.361 . S
C361 C363 1.500 . S
C362 C357 1.390 . S
C362 C361 1.361 . S
C362 H380 0.931 . S
C363 C361 1.500 . S
C363 C364 1.371 . S
C363 C365 1.365 . S
C364 C363 1.371 . S
C364 C374 1.386 . S
C364 H382 0.931 . S
C365 C363 1.365 . S
C365 C366 1.409 . S
C365 H383 0.929 . S
C366 C365 1.409 . S
C366 C367 1.380 . S
C366 H384 0.930 . S
C367 C366 1.380 . S
C367 C374 1.357 . S
C368 C359 1.511 . S
C368 C369 1.341 . S
C368 C370 1.371 . S
C369 C368 1.341 . S
C369 C373 1.394 . S
C369 H385 0.930 . S
C370 C368 1.371 . S
C370 C371 1.392 . S
C370 H386 0.931 . S
C371 C370 1.392 . S
C371 C372 1.331 . S
C371 H389 0.932 . S
C372 C371 1.331 . S
C372 C373 1.336 . S
C373 C369 1.394 . S
C373 C372 1.336 . S
C373 H388 0.929 . S
C374 C364 1.386 . S
C374 C367 1.357 . S
C374 H387 0.928 . S
H375 C351 0.931 . S
H376 C353 0.930 . S
H377 C355 0.929 . S
H378 C356 0.931 . S
H379 C358 0.930 . S
H380 C362 0.931 . S
H381 C360 0.931 . S
H382 C364 0.931 . S
H383 C365 0.929 . S
H384 C366 0.930 . S
H385 C369 0.930 . S
H386 C370 0.931 . S
H387 C374 0.928 . S
H388 C373 0.929 . S
H389 C371 0.932 . S
C390 C391 1.386 . S
C390 C392 1.397 . S
C390 H414 0.931 . S
C391 C390 1.386 . S
C391 C395 1.397 . S
C392 C390 1.397 . S
C392 C393 1.384 . S
C392 H415 0.930 . S
C393 C392 1.384 . S
C393 C394 1.377 . S
C393 C396 1.481 . S
C394 C393 1.377 . S
C394 C395 1.389 . S
C394 H416 0.929 . S
C395 C391 1.397 . S
C395 C394 1.389 . S
C395 H417 0.931 . S
C396 C393 1.481 . S
C396 C397 1.387 . S
C396 C401 1.390 . S
C397 C396 1.387 . S
C397 C398 1.401 . S
C397 H418 0.930 . S
C398 C397 1.401 . S
C398 C399 1.376 . S
C398 C407 1.511 . S
C399 C398 1.376 . S
C399 C400 1.392 . S
C399 H420 0.931 . S
C400 C399 1.392 . S
C400 C401 1.361 . S
C400 C402 1.500 . S
C401 C396 1.390 . S
C401 C400 1.361 . S
C401 H419 0.931 . S
C402 C400 1.500 . S
C402 C403 1.371 . S
C402 C404 1.365 . S
C403 C402 1.371 . S
C403 C413 1.386 . S
C403 H421 0.931 . S
C404 C402 1.365 . S
C404 C405 1.409 . S
C404 H422 0.929 . S
C405 C404 1.409 . S
C405 C406 1.380 . S
C405 H423 0.930 . S
C406 C405 1.380 . S
C406 C413 1.357 . S
C407 C398 1.511 . S
C407 C408 1.341 . S
C407 C409 1.371 . S
C408 C407 1.341 . S
C408 C412 1.394 . S
C408 H424 0.930 . S
C409 C407 1.371 . S
C409 C410 1.392 . S
C409 H425 0.931 . S
C410 C409 1.392 . S
C410 C411 1.331 . S
C410 H428 0.932 . S
C411 C410 1.331 . S
C411 C412 1.336 . S
C412 C408 1.394 . S
C412 C411 1.336 . S
C412 H427 0.929 . S
C413 C403 1.386 . S
C413 C406 1.357 . S
C413 H426 0.928 . S
H414 C390 0.931 . S
H415 C392 0.930 . S
H416 C394 0.929 . S
H417 C395 0.931 . S
H418 C397 0.930 . S
H419 C401 0.931 . S
H420 C399 0.931 . S
H421 C403 0.931 . S
H422 C404 0.929 . S
H423 C405 0.930 . S
H424 C408 0.930 . S
H425 C409 0.931 . S
H426 C413 0.928 . S
H427 C412 0.929 . S
H428 C410 0.932 . S
C429 C430 1.386 . S
C429 C431 1.397 . S
C429 H453 0.931 . S
C430 C429 1.386 . S
C430 C434 1.397 . S
C431 C429 1.397 . S
C431 C432 1.384 . S
C431 H454 0.930 . S
C432 C431 1.384 . S
C432 C433 1.377 . S
C432 C435 1.481 . S
C433 C432 1.377 . S
C433 C434 1.389 . S
C433 H455 0.929 . S
C434 C430 1.397 . S
C434 C433 1.389 . S
C434 H456 0.931 . S
C435 C432 1.481 . S
C435 C436 1.387 . S
C435 C440 1.390 . S
C436 C435 1.387 . S
C436 C437 1.401 . S
C436 H457 0.930 . S
C437 C436 1.401 . S
C437 C438 1.376 . S
C437 C446 1.511 . S
C438 C437 1.376 . S
C438 C439 1.392 . S
C438 H459 0.931 . S
C439 C438 1.392 . S
C439 C440 1.361 . S
C439 C441 1.500 . S
C440 C435 1.390 . S
C440 C439 1.361 . S
C440 H458 0.931 . S
C441 C439 1.500 . S
C441 C442 1.371 . S
C441 C443 1.365 . S
C442 C441 1.371 . S
C442 C452 1.386 . S
C442 H460 0.931 . S
C443 C441 1.365 . S
C443 C444 1.409 . S
C443 H461 0.929 . S
C444 C443 1.409 . S
C444 C445 1.380 . S
C444 H462 0.930 . S
C445 C444 1.380 . S
C445 C452 1.357 . S
C446 C437 1.511 . S
C446 C447 1.341 . S
C446 C448 1.371 . S
C447 C446 1.341 . S
C447 C451 1.394 . S
C447 H463 0.930 . S
C448 C446 1.371 . S
C448 C449 1.392 . S
C448 H464 0.931 . S
C449 C448 1.392 . S
C449 C450 1.331 . S
C449 H467 0.932 . S
C450 C449 1.331 . S
C450 C451 1.336 . S
C451 C447 1.394 . S
C451 C450 1.336 . S
C451 H466 0.929 . S
C452 C442 1.386 . S
C452 C445 1.357 . S
C452 H465 0.928 . S
H453 C429 0.931 . S
H454 C431 0.930 . S
H455 C433 0.929 . S
H456 C434 0.931 . S
H457 C436 0.930 . S
H458 C440 0.931 . S
H459 C438 0.931 . S
H460 C442 0.931 . S
H461 C443 0.929 . S
H462 C444 0.930 . S
H463 C447 0.930 . S
H464 C448 0.931 . S
H465 C452 0.928 . S
H466 C451 0.929 . S
H467 C449 0.932 . S
C468 C469 1.386 . S
C468 C470 1.397 . S
C468 H492 0.931 . S
C469 C468 1.386 . S
C469 C473 1.397 . S
C470 C468 1.397 . S
C470 C471 1.384 . S
C470 H493 0.930 . S
C471 C470 1.384 . S
C471 C472 1.377 . S
C471 C474 1.481 . S
C472 C471 1.377 . S
C472 C473 1.389 . S
C472 H494 0.929 . S
C473 C469 1.397 . S
C473 C472 1.389 . S
C473 H495 0.931 . S
C474 C471 1.481 . S
C474 C475 1.387 . S
C474 C479 1.390 . S
C475 C474 1.387 . S
C475 C476 1.401 . S
C475 H496 0.930 . S
C476 C475 1.401 . S
C476 C477 1.376 . S
C476 C485 1.511 . S
C477 C476 1.376 . S
C477 C478 1.392 . S
C477 H498 0.931 . S
C478 C477 1.392 . S
C478 C479 1.361 . S
C478 C480 1.500 . S
C479 C474 1.390 . S
C479 C478 1.361 . S
C479 H497 0.931 . S
C480 C478 1.500 . S
C480 C481 1.371 . S
C480 C482 1.365 . S
C481 C480 1.371 . S
C481 C491 1.386 . S
C481 H499 0.931 . S
C482 C480 1.365 . S
C482 C483 1.409 . S
C482 H500 0.929 . S
C483 C482 1.409 . S
C483 C484 1.380 . S
C483 H501 0.930 . S
C484 C483 1.380 . S
C484 C491 1.357 . S
C485 C476 1.511 . S
C485 C486 1.341 . S
C485 C487 1.371 . S
C486 C485 1.341 . S
C486 C490 1.394 . S
C486 H502 0.930 . S
C487 C485 1.371 . S
C487 C488 1.392 . S
C487 H503 0.931 . S
C488 C487 1.392 . S
C488 C489 1.331 . S
C488 H506 0.932 . S
C489 C488 1.331 . S
C489 C490 1.336 . S
C490 C486 1.394 . S
C490 C489 1.336 . S
C490 H505 0.929 . S
C491 C481 1.386 . S
C491 C484 1.357 . S
C491 H504 0.928 . S
H492 C468 0.931 . S
H493 C470 0.930 . S
H494 C472 0.929 . S
H495 C473 0.931 . S
H496 C475 0.930 . S
H497 C479 0.931 . S
H498 C477 0.931 . S
H499 C481 0.931 . S
H500 C482 0.929 . S
H501 C483 0.930 . S
H502 C486 0.930 . S
H503 C487 0.931 . S
H504 C491 0.928 . S
H505 C490 0.929 . S
H506 C488 0.932 . S
C507 C508 1.386 . S
C507 C509 1.397 . S
C507 H531 0.931 . S
C508 C507 1.386 . S
C508 C512 1.397 . S
C509 C507 1.397 . S
C509 C510 1.384 . S
C509 H532 0.930 . S
C510 C509 1.384 . S
C510 C511 1.377 . S
C510 C513 1.481 . S
C511 C510 1.377 . S
C511 C512 1.389 . S
C511 H533 0.929 . S
C512 C508 1.397 . S
C512 C511 1.389 . S
C512 H534 0.931 . S
C513 C510 1.481 . S
C513 C514 1.387 . S
C513 C518 1.390 . S
C514 C513 1.387 . S
C514 C515 1.401 . S
C514 H535 0.930 . S
C515 C514 1.401 . S
C515 C516 1.376 . S
C515 C524 1.511 . S
C516 C515 1.376 . S
C516 C517 1.392 . S
C516 H537 0.931 . S
C517 C516 1.392 . S
C517 C518 1.361 . S
C517 C519 1.500 . S
C518 C513 1.390 . S
C518 C517 1.361 . S
C518 H536 0.931 . S
C519 C517 1.500 . S
C519 C520 1.371 . S
C519 C521 1.365 . S
C520 C519 1.371 . S
C520 C530 1.386 . S
C520 H538 0.931 . S
C521 C519 1.365 . S
C521 C522 1.409 . S
C521 H539 0.929 . S
C522 C521 1.409 . S
C522 C523 1.380 . S
C522 H540 0.930 . S
C523 C522 1.380 . S
C523 C530 1.357 . S
C524 C515 1.511 . S
C524 C525 1.341 . S
C524 C526 1.371 . S
C525 C524 1.341 . S
C525 C529 1.394 . S
C525 H541 0.930 . S
C526 C524 1.371 . S
C526 C527 1.392 . S
C526 H542 0.931 . S
C527 C526 1.392 . S
C527 C528 1.331 . S
C527 H545 0.932 . S
C528 C527 1.331 . S
C528 C529 1.336 . S
C529 C525 1.394 . S
C529 C528 1.336 . S
C529 H544 0.929 . S
C530 C520 1.386 . S
C530 C523 1.357 . S
C530 H543 0.928 . S
H531 C507 0.931 . S
H532 C509 0.930 . S
H533 C511 0.929 . S
H534 C512 0.931 . S
H535 C514 0.930 . S
H536 C518 0.931 . S
H537 C516 0.931 . S
H538 C520 0.931 . S
H539 C521 0.929 . S
H540 C522 0.930 . S
H541 C525 0.930 . S
H542 C526 0.931 . S
H543 C530 0.928 . S
H544 C529 0.929 . S
H545 C527 0.932 . S
C546 C547 1.386 . S
C546 C548 1.397 . S
C546 H570 0.931 . S
C547 C546 1.386 . S
C547 C551 1.397 . S
C548 C546 1.397 . S
C548 C549 1.384 . S
C548 H571 0.930 . S
C549 C548 1.384 . S
C549 C550 1.377 . S
C549 C552 1.481 . S
C550 C549 1.377 . S
C550 C551 1.389 . S
C550 H572 0.929 . S
C551 C547 1.397 . S
C551 C550 1.389 . S
C551 H573 0.931 . S
C552 C549 1.481 . S
C552 C553 1.387 . S
C552 C557 1.390 . S
C553 C552 1.387 . S
C553 C554 1.401 . S
C553 H574 0.930 . S
C554 C553 1.401 . S
C554 C555 1.376 . S
C554 C563 1.511 . S
C555 C554 1.376 . S
C555 C556 1.392 . S
C555 H576 0.931 . S
C556 C555 1.392 . S
C556 C557 1.361 . S
C556 C558 1.500 . S
C557 C552 1.390 . S
C557 C556 1.361 . S
C557 H575 0.931 . S
C558 C556 1.500 . S
C558 C559 1.371 . S
C558 C560 1.365 . S
C559 C558 1.371 . S
C559 C569 1.386 . S
C559 H577 0.931 . S
C560 C558 1.365 . S
C560 C561 1.409 . S
C560 H578 0.929 . S
C561 C560 1.409 . S
C561 C562 1.380 . S
C561 H579 0.930 . S
C562 C561 1.380 . S
C562 C569 1.357 . S
C563 C554 1.511 . S
C563 C564 1.341 . S
C563 C565 1.371 . S
C564 C563 1.341 . S
C564 C568 1.394 . S
C564 H580 0.930 . S
C565 C563 1.371 . S
C565 C566 1.392 . S
C565 H581 0.931 . S
C566 C565 1.392 . S
C566 C567 1.331 . S
C566 H584 0.932 . S
C567 C566 1.331 . S
C567 C568 1.336 . S
C568 C564 1.394 . S
C568 C567 1.336 . S
C568 H583 0.929 . S
C569 C559 1.386 . S
C569 C562 1.357 . S
C569 H582 0.928 . S
H570 C546 0.931 . S
H571 C548 0.930 . S
H572 C550 0.929 . S
H573 C551 0.931 . S
H574 C553 0.930 . S
H575 C557 0.931 . S
H576 C555 0.931 . S
H577 C559 0.931 . S
H578 C560 0.929 . S
H579 C561 0.930 . S
H580 C564 0.930 . S
H581 C565 0.931 . S
H582 C569 0.928 . S
H583 C568 0.929 . S
H584 C566 0.932 . S
C585 C586 1.386 . S
C585 C587 1.397 . S
C585 H609 0.931 . S
C586 C585 1.386 . S
C586 C590 1.397 . S
C587 C585 1.397 . S
C587 C588 1.384 . S
C587 H610 0.930 . S
C588 C587 1.384 . S
C588 C589 1.377 . S
C588 C591 1.481 . S
C589 C588 1.377 . S
C589 C590 1.389 . S
C589 H611 0.929 . S
C590 C586 1.397 . S
C590 C589 1.389 . S
C590 H612 0.931 . S
C591 C588 1.481 . S
C591 C592 1.387 . S
C591 C596 1.390 . S
C592 C591 1.387 . S
C592 C593 1.401 . S
C592 H613 0.930 . S
C593 C592 1.401 . S
C593 C594 1.376 . S
C593 C602 1.511 . S
C594 C593 1.376 . S
C594 C595 1.392 . S
C594 H615 0.931 . S
C595 C594 1.392 . S
C595 C596 1.361 . S
C595 C597 1.500 . S
C596 C591 1.390 . S
C596 C595 1.361 . S
C596 H614 0.931 . S
C597 C595 1.500 . S
C597 C598 1.371 . S
C597 C599 1.365 . S
C598 C597 1.371 . S
C598 C608 1.386 . S
C598 H616 0.931 . S
C599 C597 1.365 . S
C599 C600 1.409 . S
C599 H617 0.929 . S
C600 C599 1.409 . S
C600 C601 1.380 . S
C600 H618 0.930 . S
C601 C600 1.380 . S
C601 C608 1.357 . S
C602 C593 1.511 . S
C602 C603 1.341 . S
C602 C604 1.371 . S
C603 C602 1.341 . S
C603 C607 1.394 . S
C603 H619 0.930 . S
C604 C602 1.371 . S
C604 C605 1.392 . S
C604 H620 0.931 . S
C605 C604 1.392 . S
C605 C606 1.331 . S
C605 H623 0.932 . S
C606 C605 1.331 . S
C606 C607 1.336 . S
C607 C603 1.394 . S
C607 C606 1.336 . S
C607 H622 0.929 . S
C608 C598 1.386 . S
C608 C601 1.357 . S
C608 H621 0.928 . S
H609 C585 0.931 . S
H610 C587 0.930 . S
H611 C589 0.929 . S
H612 C590 0.931 . S
H613 C592 0.930 . S
H614 C596 0.931 . S
H615 C594 0.931 . S
H616 C598 0.931 . S
H617 C599 0.929 . S
H618 C600 0.930 . S
H619 C603 0.930 . S
H620 C604 0.931 . S
H621 C608 0.928 . S
H622 C607 0.929 . S
H623 C605 0.932 . S
C624 C625 1.386 . S
C624 C626 1.397 . S
C624 H648 0.931 . S
C625 C624 1.386 . S
C625 C629 1.397 . S
C626 C624 1.397 . S
C626 C627 1.384 . S
C626 H649 0.930 . S
C627 C626 1.384 . S
C627 C628 1.377 . S
C627 C630 1.481 . S
C628 C627 1.377 . S
C628 C629 1.389 . S
C628 H650 0.929 . S
C629 C625 1.397 . S
C629 C628 1.389 . S
C629 H651 0.931 . S
C630 C627 1.481 . S
C630 C631 1.387 . S
C630 C635 1.390 . S
C631 C630 1.387 . S
C631 C632 1.401 . S
C631 H652 0.930 . S
C632 C631 1.401 . S
C632 C633 1.376 . S
C632 C641 1.511 . S
C633 C632 1.376 . S
C633 C634 1.392 . S
C633 H654 0.931 . S
C634 C633 1.392 . S
C634 C635 1.361 . S
C634 C636 1.500 . S
C635 C630 1.390 . S
C635 C634 1.361 . S
C635 H653 0.931 . S
C636 C634 1.500 . S
C636 C637 1.371 . S
C636 C638 1.365 . S
C637 C636 1.371 . S
C637 C647 1.386 . S
C637 H655 0.931 . S
C638 C636 1.365 . S
C638 C639 1.409 . S
C638 H656 0.929 . S
C639 C638 1.409 . S
C639 C640 1.380 . S
C639 H657 0.930 . S
C640 C639 1.380 . S
C640 C647 1.357 . S
C641 C632 1.511 . S
C641 C642 1.341 . S
C641 C643 1.371 . S
C642 C641 1.341 . S
C642 C646 1.394 . S
C642 H658 0.930 . S
C643 C641 1.371 . S
C643 C644 1.392 . S
C643 H659 0.931 . S
C644 C643 1.392 . S
C644 C645 1.331 . S
C644 H662 0.932 . S
C645 C644 1.331 . S
C645 C646 1.336 . S
C646 C642 1.394 . S
C646 C645 1.336 . S
C646 H661 0.929 . S
C647 C637 1.386 . S
C647 C640 1.357 . S
C647 H660 0.928 . S
H648 C624 0.931 . S
H649 C626 0.930 . S
H650 C628 0.929 . S
H651 C629 0.931 . S
H652 C631 0.930 . S
H653 C635 0.931 . S
H654 C633 0.931 . S
H655 C637 0.931 . S
H656 C638 0.929 . S
H657 C639 0.930 . S
H658 C642 0.930 . S
H659 C643 0.931 . S
H660 C647 0.928 . S
H661 C646 0.929 . S
H662 C644 0.932 . S
C663 C664 1.386 . S
C663 C665 1.397 . S
C663 H687 0.931 . S
C664 C663 1.386 . S
C664 C668 1.397 . S
C665 C663 1.397 . S
C665 C666 1.384 . S
C665 H688 0.930 . S
C666 C665 1.384 . S
C666 C667 1.377 . S
C666 C669 1.481 . S
C667 C666 1.377 . S
C667 C668 1.389 . S
C667 H689 0.929 . S
C668 C664 1.397 . S
C668 C667 1.389 . S
C668 H690 0.931 . S
C669 C666 1.481 . S
C669 C670 1.387 . S
C669 C674 1.390 . S
C670 C669 1.387 . S
C670 C671 1.401 . S
C670 H691 0.930 . S
C671 C670 1.401 . S
C671 C672 1.376 . S
C671 C680 1.511 . S
C672 C671 1.376 . S
C672 C673 1.392 . S
C672 H693 0.931 . S
C673 C672 1.392 . S
C673 C674 1.361 . S
C673 C675 1.500 . S
C674 C669 1.390 . S
C674 C673 1.361 . S
C674 H692 0.931 . S
C675 C673 1.500 . S
C675 C676 1.371 . S
C675 C677 1.365 . S
C676 C675 1.371 . S
C676 C686 1.386 . S
C676 H694 0.931 . S
C677 C675 1.365 . S
C677 C678 1.409 . S
C677 H695 0.929 . S
C678 C677 1.409 . S
C678 C679 1.380 . S
C678 H696 0.930 . S
C679 C678 1.380 . S
C679 C686 1.357 . S
C680 C671 1.511 . S
C680 C681 1.341 . S
C680 C682 1.371 . S
C681 C680 1.341 . S
C681 C685 1.394 . S
C681 H697 0.930 . S
C682 C680 1.371 . S
C682 C683 1.392 . S
C682 H698 0.931 . S
C683 C682 1.392 . S
C683 C684 1.331 . S
C683 H701 0.932 . S
C684 C683 1.331 . S
C684 C685 1.336 . S
C685 C681 1.394 . S
C685 C684 1.336 . S
C685 H700 0.929 . S
C686 C676 1.386 . S
C686 C679 1.357 . S
C686 H699 0.928 . S
H687 C663 0.931 . S
H688 C665 0.930 . S
H689 C667 0.929 . S
H690 C668 0.931 . S
H691 C670 0.930 . S
H692 C674 0.931 . S
H693 C672 0.931 . S
H694 C676 0.931 . S
H695 C677 0.929 . S
H696 C678 0.930 . S
H697 C681 0.930 . S
H698 C682 0.931 . S
H699 C686 0.928 . S
H700 C685 0.929 . S
H701 C683 0.932 . S
C702 C703 1.386 . S
C702 C704 1.397 . S
C702 H726 0.931 . S
C703 C702 1.386 . S
C703 C707 1.397 . S
C704 C702 1.397 . S
C704 C705 1.384 . S
C704 H727 0.930 . S
C705 C704 1.384 . S
C705 C706 1.377 . S
C705 C708 1.481 . S
C706 C705 1.377 . S
C706 C707 1.389 . S
C706 H728 0.929 . S
C707 C703 1.397 . S
C707 C706 1.389 . S
C707 H729 0.931 . S
C708 C705 1.481 . S
C708 C709 1.387 . S
C708 C713 1.390 . S
C709 C708 1.387 . S
C709 C710 1.401 . S
C709 H730 0.930 . S
C710 C709 1.401 . S
C710 C711 1.376 . S
C710 C719 1.511 . S
C711 C710 1.376 . S
C711 C712 1.392 . S
C711 H732 0.931 . S
C712 C711 1.392 . S
C712 C713 1.361 . S
C712 C714 1.500 . S
C713 C708 1.390 . S
C713 C712 1.361 . S
C713 H731 0.931 . S
C714 C712 1.500 . S
C714 C715 1.371 . S
C714 C716 1.365 . S
C715 C714 1.371 . S
C715 C725 1.386 . S
C715 H733 0.931 . S
C716 C714 1.365 . S
C716 C717 1.409 . S
C716 H734 0.929 . S
C717 C716 1.409 . S
C717 C718 1.380 . S
C717 H735 0.930 . S
C718 C717 1.380 . S
C718 C725 1.357 . S
C719 C710 1.511 . S
C719 C720 1.341 . S
C719 C721 1.371 . S
C720 C719 1.341 . S
C720 C724 1.394 . S
C720 H736 0.930 . S
C721 C719 1.371 . S
C721 C722 1.392 . S
C721 H737 0.931 . S
C722 C721 1.392 . S
C722 C723 1.331 . S
C722 H740 0.932 . S
C723 C722 1.331 . S
C723 C724 1.336 . S
C724 C720 1.394 . S
C724 C723 1.336 . S
C724 H739 0.929 . S
C725 C715 1.386 . S
C725 C718 1.357 . S
C725 H738 0.928 . S
H726 C702 0.931 . S
H727 C704 0.930 . S
H728 C706 0.929 . S
H729 C707 0.931 . S
H730 C709 0.930 . S
H731 C713 0.931 . S
H732 C711 0.931 . S
H733 C715 0.931 . S
H734 C716 0.929 . S
H735 C717 0.930 . S
H736 C720 0.930 . S
H737 C721 0.931 . S
H738 C725 0.928 . S
H739 C724 0.929 . S
H740 C722 0.932 . S
C741 C742 1.386 . S
C741 C743 1.397 . S
C741 H765 0.931 . S
C742 C741 1.386 . S
C742 C746 1.397 . S
C743 C741 1.397 . S
C743 C744 1.384 . S
C743 H766 0.930 . S
C744 C743 1.384 . S
C744 C745 1.377 . S
C744 C747 1.481 . S
C745 C744 1.377 . S
C745 C746 1.389 . S
C745 H767 0.929 . S
C746 C742 1.397 . S
C746 C745 1.389 . S
C746 H768 0.931 . S
C747 C744 1.481 . S
C747 C748 1.387 . S
C747 C752 1.390 . S
C748 C747 1.387 . S
C748 C749 1.401 . S
C748 H769 0.930 . S
C749 C748 1.401 . S
C749 C750 1.376 . S
C749 C758 1.511 . S
C750 C749 1.376 . S
C750 C751 1.392 . S
C750 H771 0.931 . S
C751 C750 1.392 . S
C751 C752 1.361 . S
C751 C753 1.500 . S
C752 C747 1.390 . S
C752 C751 1.361 . S
C752 H770 0.931 . S
C753 C751 1.500 . S
C753 C754 1.371 . S
C753 C755 1.365 . S
C754 C753 1.371 . S
C754 C764 1.386 . S
C754 H772 0.931 . S
C755 C753 1.365 . S
C755 C756 1.409 . S
C755 H773 0.929 . S
C756 C755 1.409 . S
C756 C757 1.380 . S
C756 H774 0.930 . S
C757 C756 1.380 . S
C757 C764 1.357 . S
C758 C749 1.511 . S
C758 C759 1.341 . S
C758 C760 1.371 . S
C759 C758 1.341 . S
C759 C763 1.394 . S
C759 H775 0.930 . S
C760 C758 1.371 . S
C760 C761 1.392 . S
C760 H776 0.931 . S
C761 C760 1.392 . S
C761 C762 1.331 . S
C761 H779 0.932 . S
C762 C761 1.331 . S
C762 C763 1.336 . S
C763 C759 1.394 . S
C763 C762 1.336 . S
C763 H778 0.929 . S
C764 C754 1.386 . S
C764 C757 1.357 . S
C764 H777 0.928 . S
H765 C741 0.931 . S
H766 C743 0.930 . S
H767 C745 0.929 . S
H768 C746 0.931 . S
H769 C748 0.930 . S
H770 C752 0.931 . S
H771 C750 0.931 . S
H772 C754 0.931 . S
H773 C755 0.929 . S
H774 C756 0.930 . S
H775 C759 0.930 . S
H776 C760 0.931 . S
H777 C764 0.928 . S
H778 C763 0.929 . S
H779 C761 0.932 . S
C780 C781 1.386 . S
C780 C782 1.397 . S
C780 H804 0.931 . S
C781 C780 1.386 . S
C781 C785 1.397 . S
C782 C780 1.397 . S
C782 C783 1.384 . S
C782 H805 0.930 . S
C783 C782 1.384 . S
C783 C784 1.377 . S
C783 C786 1.481 . S
C784 C783 1.377 . S
C784 C785 1.389 . S
C784 H806 0.929 . S
C785 C781 1.397 . S
C785 C784 1.389 . S
C785 H807 0.931 . S
C786 C783 1.481 . S
C786 C787 1.387 . S
C786 C791 1.390 . S
C787 C786 1.387 . S
C787 C788 1.401 . S
C787 H808 0.930 . S
C788 C787 1.401 . S
C788 C789 1.376 . S
C788 C797 1.511 . S
C789 C788 1.376 . S
C789 C790 1.392 . S
C789 H810 0.931 . S
C790 C789 1.392 . S
C790 C791 1.361 . S
C790 C792 1.500 . S
C791 C786 1.390 . S
C791 C790 1.361 . S
C791 H809 0.931 . S
C792 C790 1.500 . S
C792 C793 1.371 . S
C792 C794 1.365 . S
C793 C792 1.371 . S
C793 C803 1.386 . S
C793 H811 0.931 . S
C794 C792 1.365 . S
C794 C795 1.409 . S
C794 H812 0.929 . S
C795 C794 1.409 . S
C795 C796 1.380 . S
C795 H813 0.930 . S
C796 C795 1.380 . S
C796 C803 1.357 . S
C797 C788 1.511 . S
C797 C798 1.341 . S
C797 C799 1.371 . S
C798 C797 1.341 . S
C798 C802 1.394 . S
C798 H814 0.930 . S
C799 C797 1.371 . S
C799 C800 1.392 . S
C799 H815 0.931 . S
C800 C799 1.392 . S
C800 C801 1.331 . S
C800 H818 0.932 . S
C801 C800 1.331 . S
C801 C802 1.336 . S
C802 C798 1.394 . S
C802 C801 1.336 . S
C802 H817 0.929 . S
C803 C793 1.386 . S
C803 C796 1.357 . S
C803 H816 0.928 . S
H804 C780 0.931 . S
H805 C782 0.930 . S
H806 C784 0.929 . S
H807 C785 0.931 . S
H808 C787 0.930 . S
H809 C791 0.931 . S
H810 C789 0.931 . S
H811 C793 0.931 . S
H812 C794 0.929 . S
H813 C795 0.930 . S
H814 C798 0.930 . S
H815 C799 0.931 . S
H816 C803 0.928 . S
H817 C802 0.929 . S
H818 C800 0.932 . S
C819 C820 1.386 . S
C819 C821 1.397 . S
C819 H843 0.931 . S
C820 C819 1.386 . S
C820 C824 1.397 . S
C821 C819 1.397 . S
C821 C822 1.384 . S
C821 H844 0.930 . S
C822 C821 1.384 . S
C822 C823 1.377 . S
C822 C825 1.481 . S
C823 C822 1.377 . S
C823 C824 1.389 . S
C823 H845 0.929 . S
C824 C820 1.397 . S
C824 C823 1.389 . S
C824 H846 0.931 . S
C825 C822 1.481 . S
C825 C826 1.387 . S
C825 C830 1.390 . S
C826 C825 1.387 . S
C826 C827 1.401 . S
C826 H847 0.930 . S
C827 C826 1.401 . S
C827 C828 1.376 . S
C827 C836 1.511 . S
C828 C827 1.376 . S
C828 C829 1.392 . S
C828 H849 0.931 . S
C829 C828 1.392 . S
C829 C830 1.361 . S
C829 C831 1.500 . S
C830 C825 1.390 . S
C830 C829 1.361 . S
C830 H848 0.931 . S
C831 C829 1.500 . S
C831 C832 1.371 . S
C831 C833 1.365 . S
C832 C831 1.371 . S
C832 C842 1.386 . S
C832 H850 0.931 . S
C833 C831 1.365 . S
C833 C834 1.409 . S
C833 H851 0.929 . S
C834 C833 1.409 . S
C834 C835 1.380 . S
C834 H852 0.930 . S
C835 C834 1.380 . S
C835 C842 1.357 . S
C836 C827 1.511 . S
C836 C837 1.341 . S
C836 C838 1.371 . S
C837 C836 1.341 . S
C837 C841 1.394 . S
C837 H853 0.930 . S
C838 C836 1.371 . S
C838 C839 1.392 . S
C838 H854 0.931 . S
C839 C838 1.392 . S
C839 C840 1.331 . S
C839 H857 0.932 . S
C840 C839 1.331 . S
C840 C841 1.336 . S
C841 C837 1.394 . S
C841 C840 1.336 . S
C841 H856 0.929 . S
C842 C832 1.386 . S
C842 C835 1.357 . S
C842 H855 0.928 . S
H843 C819 0.931 . S
H844 C821 0.930 . S
H845 C823 0.929 . S
H846 C824 0.931 . S
H847 C826 0.930 . S
H848 C830 0.931 . S
H849 C828 0.931 . S
H850 C832 0.931 . S
H851 C833 0.929 . S
H852 C834 0.930 . S
H853 C837 0.930 . S
H854 C838 0.931 . S
H855 C842 0.928 . S
H856 C841 0.929 . S
H857 C839 0.932 . S
C858 C859 1.386 . S
C858 C860 1.397 . S
C858 H882 0.931 . S
C859 C858 1.386 . S
C859 C863 1.397 . S
C860 C858 1.397 . S
C860 C861 1.384 . S
C860 H883 0.930 . S
C861 C860 1.384 . S
C861 C862 1.377 . S
C861 C864 1.481 . S
C862 C861 1.377 . S
C862 C863 1.389 . S
C862 H884 0.929 . S
C863 C859 1.397 . S
C863 C862 1.389 . S
C863 H885 0.931 . S
C864 C861 1.481 . S
C864 C865 1.387 . S
C864 C869 1.390 . S
C865 C864 1.387 . S
C865 C866 1.401 . S
C865 H886 0.930 . S
C866 C865 1.401 . S
C866 C867 1.376 . S
C866 C875 1.511 . S
C867 C866 1.376 . S
C867 C868 1.392 . S
C867 H888 0.931 . S
C868 C867 1.392 . S
C868 C869 1.361 . S
C868 C870 1.500 . S
C869 C864 1.390 . S
C869 C868 1.361 . S
C869 H887 0.931 . S
C870 C868 1.500 . S
C870 C871 1.371 . S
C870 C872 1.365 . S
C871 C870 1.371 . S
C871 C881 1.386 . S
C871 H889 0.931 . S
C872 C870 1.365 . S
C872 C873 1.409 . S
C872 H890 0.929 . S
C873 C872 1.409 . S
C873 C874 1.380 . S
C873 H891 0.930 . S
C874 C873 1.380 . S
C874 C881 1.357 . S
C875 C866 1.511 . S
C875 C876 1.341 . S
C875 C877 1.371 . S
C876 C875 1.341 . S
C876 C880 1.394 . S
C876 H892 0.930 . S
C877 C875 1.371 . S
C877 C878 1.392 . S
C877 H893 0.931 . S
C878 C877 1.392 . S
C878 C879 1.331 . S
C878 H896 0.932 . S
C879 C878 1.331 . S
C879 C880 1.336 . S
C880 C876 1.394 . S
C880 C879 1.336 . S
C880 H895 0.929 . S
C881 C871 1.386 . S
C881 C874 1.357 . S
C881 H894 0.928 . S
H882 C858 0.931 . S
H883 C860 0.930 . S
H884 C862 0.929 . S
H885 C863 0.931 . S
H886 C865 0.930 . S
H887 C869 0.931 . S
H888 C867 0.931 . S
H889 C871 0.931 . S
H890 C872 0.929 . S
H891 C873 0.930 . S
H892 C876 0.930 . S
H893 C877 0.931 . S
H894 C881 0.928 . S
H895 C880 0.929 . S
H896 C878 0.932 . S
C897 C898 1.386 . S
C897 C899 1.397 . S
C897 H921 0.931 . S
C898 C897 1.386 . S
C898 C902 1.397 . S
C899 C897 1.397 . S
C899 C900 1.384 . S
C899 H922 0.930 . S
C900 C899 1.384 . S
C900 C901 1.377 . S
C900 C903 1.481 . S
C901 C900 1.377 . S
C901 C902 1.389 . S
C901 H923 0.929 . S
C902 C898 1.397 . S
C902 C901 1.389 . S
C902 H924 0.931 . S
C903 C900 1.481 . S
C903 C904 1.387 . S
C903 C908 1.390 . S
C904 C903 1.387 . S
C904 C905 1.401 . S
C904 H925 0.930 . S
C905 C904 1.401 . S
C905 C906 1.376 . S
C905 C914 1.511 . S
C906 C905 1.376 . S
C906 C907 1.392 . S
C906 H927 0.931 . S
C907 C906 1.392 . S
C907 C908 1.361 . S
C907 C909 1.500 . S
C908 C903 1.390 . S
C908 C907 1.361 . S
C908 H926 0.931 . S
C909 C907 1.500 . S
C909 C910 1.371 . S
C909 C911 1.365 . S
C910 C909 1.371 . S
C910 C920 1.386 . S
C910 H928 0.931 . S
C911 C909 1.365 . S
C911 C912 1.409 . S
C911 H929 0.929 . S
C912 C911 1.409 . S
C912 C913 1.380 . S
C912 H930 0.930 . S
C913 C912 1.380 . S
C913 C920 1.357 . S
C914 C905 1.511 . S
C914 C915 1.341 . S
C914 C916 1.371 . S
C915 C914 1.341 . S
C915 C919 1.394 . S
C915 H931 0.930 . S
C916 C914 1.371 . S
C916 C917 1.392 . S
C916 H932 0.931 . S
C917 C916 1.392 . S
C917 C918 1.331 . S
C917 H935 0.932 . S
C918 C917 1.331 . S
C918 C919 1.336 . S
C919 C915 1.394 . S
C919 C918 1.336 . S
C919 H934 0.929 . S
C920 C910 1.386 . S
C920 C913 1.357 . S
C920 H933 0.928 . S
H921 C897 0.931 . S
H922 C899 0.930 . S
H923 C901 0.929 . S
H924 C902 0.931 . S
H925 C904 0.930 . S
H926 C908 0.931 . S
H927 C906 0.931 . S
H928 C910 0.931 . S
H929 C911 0.929 . S
H930 C912 0.930 . S
H931 C915 0.930 . S
H932 C916 0.931 . S
H933 C920 0.928 . S
H934 C919 0.929 . S
H935 C917 0.932 . S
C936 C937 1.386 . S
C936 C938 1.397 . S
C936 H960 0.931 . S
C937 C936 1.386 . S
C937 C941 1.397 . S
C938 C936 1.397 . S
C938 C939 1.384 . S
C938 H961 0.930 . S
C939 C938 1.384 . S
C939 C940 1.377 . S
C939 C942 1.481 . S
C940 C939 1.377 . S
C940 C941 1.389 . S
C940 H962 0.929 . S
C941 C937 1.397 . S
C941 C940 1.389 . S
C941 H963 0.931 . S
C942 C939 1.481 . S
C942 C943 1.387 . S
C942 C947 1.390 . S
C943 C942 1.387 . S
C943 C944 1.401 . S
C943 H964 0.930 . S
C944 C943 1.401 . S
C944 C945 1.376 . S
C944 C953 1.511 . S
C945 C944 1.376 . S
C945 C946 1.392 . S
C945 H966 0.931 . S
C946 C945 1.392 . S
C946 C947 1.361 . S
C946 C948 1.500 . S
C947 C942 1.390 . S
C947 C946 1.361 . S
C947 H965 0.931 . S
C948 C946 1.500 . S
C948 C949 1.371 . S
C948 C950 1.365 . S
C949 C948 1.371 . S
C949 C959 1.386 . S
C949 H967 0.931 . S
C950 C948 1.365 . S
C950 C951 1.409 . S
C950 H968 0.929 . S
C951 C950 1.409 . S
C951 C952 1.380 . S
C951 H969 0.930 . S
C952 C951 1.380 . S
C952 C959 1.357 . S
C953 C944 1.511 . S
C953 C954 1.341 . S
C953 C955 1.371 . S
C954 C953 1.341 . S
C954 C958 1.394 . S
C954 H970 0.930 . S
C955 C953 1.371 . S
C955 C956 1.392 . S
C955 H971 0.931 . S
C956 C955 1.392 . S
C956 C957 1.331 . S
C956 H974 0.932 . S
C957 C956 1.331 . S
C957 C958 1.336 . S
C958 C954 1.394 . S
C958 C957 1.336 . S
C958 H973 0.929 . S
C959 C949 1.386 . S
C959 C952 1.357 . S
C959 H972 0.928 . S
H960 C936 0.931 . S
H961 C938 0.930 . S
H962 C940 0.929 . S
H963 C941 0.931 . S
H964 C943 0.930 . S
H965 C947 0.931 . S
H966 C945 0.931 . S
H967 C949 0.931 . S
H968 C950 0.929 . S
H969 C951 0.930 . S
H970 C954 0.930 . S
H971 C955 0.931 . S
H972 C959 0.928 . S
H973 C958 0.929 . S
H974 C956 0.932 . S
C975 C976 1.386 . S
C975 C977 1.397 . S
C975 H999 0.931 . S
C976 C975 1.386 . S
C976 C980 1.397 . S
C977 C975 1.397 . S
C977 C978 1.384 . S
C977 H1000 0.930 . S
C978 C977 1.384 . S
C978 C979 1.377 . S
C978 C981 1.481 . S
C979 C978 1.377 . S
C979 C980 1.389 . S
C979 H1001 0.929 . S
C980 C976 1.397 . S
C980 C979 1.389 . S
C980 H1002 0.931 . S
C981 C978 1.481 . S
C981 C982 1.387 . S
C981 C986 1.390 . S
C982 C981 1.387 . S
C982 C983 1.401 . S
C982 H1003 0.930 . S
C983 C982 1.401 . S
C983 C984 1.376 . S
C983 C992 1.511 . S
C984 C983 1.376 . S
C984 C985 1.392 . S
C984 H1005 0.931 . S
C985 C984 1.392 . S
C985 C986 1.361 . S
C985 C987 1.500 . S
C986 C981 1.390 . S
C986 C985 1.361 . S
C986 H1004 0.931 . S
C987 C985 1.500 . S
C987 C988 1.371 . S
C987 C989 1.365 . S
C988 C987 1.371 . S
C988 C998 1.386 . S
C988 H1006 0.931 . S
C989 C987 1.365 . S
C989 C990 1.409 . S
C989 H1007 0.929 . S
C990 C989 1.409 . S
C990 C991 1.380 . S
C990 H1008 0.930 . S
C991 C990 1.380 . S
C991 C998 1.357 . S
C992 C983 1.511 . S
C992 C993 1.341 . S
C992 C994 1.371 . S
C993 C992 1.341 . S
C993 C997 1.394 . S
C993 H1009 0.930 . S
C994 C992 1.371 . S
C994 C995 1.392 . S
C994 H1010 0.931 . S
C995 C994 1.392 . S
C995 C996 1.331 . S
C995 H1013 0.932 . S
C996 C995 1.331 . S
C996 C997 1.336 . S
C997 C993 1.394 . S
C997 C996 1.336 . S
C997 H1012 0.929 . S
C998 C988 1.386 . S
C998 C991 1.357 . S
C998 H1011 0.928 . S
H999 C975 0.931 . S
H1000 C977 0.930 . S
H1001 C979 0.929 . S
H1002 C980 0.931 . S
H1003 C982 0.930 . S
H1004 C986 0.931 . S
H1005 C984 0.931 . S
H1006 C988 0.931 . S
H1007 C989 0.929 . S
H1008 C990 0.930 . S
H1009 C993 0.930 . S
H1010 C994 0.931 . S
H1011 C998 0.928 . S
H1012 C997 0.929 . S
H1013 C995 0.932 . S
C1014 C1015 1.386 . S
C1014 C1016 1.397 . S
C1014 H1038 0.931 . S
C1015 C1014 1.386 . S
C1015 C1019 1.397 . S
C1016 C1014 1.397 . S
C1016 C1017 1.384 . S
C1016 H1039 0.930 . S
C1017 C1016 1.384 . S
C1017 C1018 1.377 . S
C1017 C1020 1.481 . S
C1018 C1017 1.377 . S
C1018 C1019 1.389 . S
C1018 H1040 0.929 . S
C1019 C1015 1.397 . S
C1019 C1018 1.389 . S
C1019 H1041 0.931 . S
C1020 C1017 1.481 . S
C1020 C1021 1.387 . S
C1020 C1025 1.390 . S
C1021 C1020 1.387 . S
C1021 C1022 1.401 . S
C1021 H1042 0.930 . S
C1022 C1021 1.401 . S
C1022 C1023 1.376 . S
C1022 C1031 1.511 . S
C1023 C1022 1.376 . S
C1023 C1024 1.392 . S
C1023 H1044 0.931 . S
C1024 C1023 1.392 . S
C1024 C1025 1.361 . S
C1024 C1026 1.500 . S
C1025 C1020 1.390 . S
C1025 C1024 1.361 . S
C1025 H1043 0.931 . S
C1026 C1024 1.500 . S
C1026 C1027 1.371 . S
C1026 C1028 1.365 . S
C1027 C1026 1.371 . S
C1027 C1037 1.386 . S
C1027 H1045 0.931 . S
C1028 C1026 1.365 . S
C1028 C1029 1.409 . S
C1028 H1046 0.929 . S
C1029 C1028 1.409 . S
C1029 C1030 1.380 . S
C1029 H1047 0.930 . S
C1030 C1029 1.380 . S
C1030 C1037 1.357 . S
C1031 C1022 1.511 . S
C1031 C1032 1.341 . S
C1031 C1033 1.371 . S
C1032 C1031 1.341 . S
C1032 C1036 1.394 . S
C1032 H1048 0.930 . S
C1033 C1031 1.371 . S
C1033 C1034 1.392 . S
C1033 H1049 0.931 . S
C1034 C1033 1.392 . S
C1034 C1035 1.331 . S
C1034 H1052 0.932 . S
C1035 C1034 1.331 . S
C1035 C1036 1.336 . S
C1036 C1032 1.394 . S
C1036 C1035 1.336 . S
C1036 H1051 0.929 . S
C1037 C1027 1.386 . S
C1037 C1030 1.357 . S
C1037 H1050 0.928 . S
H1038 C1014 0.931 . S
H1039 C1016 0.930 . S
H1040 C1018 0.929 . S
H1041 C1019 0.931 . S
H1042 C1021 0.930 . S
H1043 C1025 0.931 . S
H1044 C1023 0.931 . S
H1045 C1027 0.931 . S
H1046 C1028 0.929 . S
H1047 C1029 0.930 . S
H1048 C1032 0.930 . S
H1049 C1033 0.931 . S
H1050 C1037 0.928 . S
H1051 C1036 0.929 . S
H1052 C1034 0.932 . S
C1053 C1054 1.386 . S
C1053 C1055 1.397 . S
C1053 H1077 0.931 . S
C1054 C1053 1.386 . S
C1054 C1058 1.397 . S
C1055 C1053 1.397 . S
C1055 C1056 1.384 . S
C1055 H1078 0.930 . S
C1056 C1055 1.384 . S
C1056 C1057 1.377 . S
C1056 C1059 1.481 . S
C1057 C1056 1.377 . S
C1057 C1058 1.389 . S
C1057 H1079 0.929 . S
C1058 C1054 1.397 . S
C1058 C1057 1.389 . S
C1058 H1080 0.931 . S
C1059 C1056 1.481 . S
C1059 C1060 1.387 . S
C1059 C1064 1.390 . S
C1060 C1059 1.387 . S
C1060 C1061 1.401 . S
C1060 H1081 0.930 . S
C1061 C1060 1.401 . S
C1061 C1062 1.376 . S
C1061 C1070 1.511 . S
C1062 C1061 1.376 . S
C1062 C1063 1.392 . S
C1062 H1083 0.931 . S
C1063 C1062 1.392 . S
C1063 C1064 1.361 . S
C1063 C1065 1.500 . S
C1064 C1059 1.390 . S
C1064 C1063 1.361 . S
C1064 H1082 0.931 . S
C1065 C1063 1.500 . S
C1065 C1066 1.371 . S
C1065 C1067 1.365 . S
C1066 C1065 1.371 . S
C1066 C1076 1.386 . S
C1066 H1084 0.931 . S
C1067 C1065 1.365 . S
C1067 C1068 1.409 . S
C1067 H1085 0.929 . S
C1068 C1067 1.409 . S
C1068 C1069 1.380 . S
C1068 H1086 0.930 . S
C1069 C1068 1.380 . S
C1069 C1076 1.357 . S
C1070 C1061 1.511 . S
C1070 C1071 1.341 . S
C1070 C1072 1.371 . S
C1071 C1070 1.341 . S
C1071 C1075 1.394 . S
C1071 H1087 0.930 . S
C1072 C1070 1.371 . S
C1072 C1073 1.392 . S
C1072 H1088 0.931 . S
C1073 C1072 1.392 . S
C1073 C1074 1.331 . S
C1073 H1091 0.932 . S
C1074 C1073 1.331 . S
C1074 C1075 1.336 . S
C1075 C1071 1.394 . S
C1075 C1074 1.336 . S
C1075 H1090 0.929 . S
C1076 C1066 1.386 . S
C1076 C1069 1.357 . S
C1076 H1089 0.928 . S
H1077 C1053 0.931 . S
H1078 C1055 0.930 . S
H1079 C1057 0.929 . S
H1080 C1058 0.931 . S
H1081 C1060 0.930 . S
H1082 C1064 0.931 . S
H1083 C1062 0.931 . S
H1084 C1066 0.931 . S
H1085 C1067 0.929 . S
H1086 C1068 0.930 . S
H1087 C1071 0.930 . S
H1088 C1072 0.931 . S
H1089 C1076 0.928 . S
H1090 C1075 0.929 . S
H1091 C1073 0.932 . S
C1092 C1093 1.386 . S
C1092 C1094 1.397 . S
C1092 H1116 0.931 . S
C1093 C1092 1.386 . S
C1093 C1097 1.397 . S
C1094 C1092 1.397 . S
C1094 C1095 1.384 . S
C1094 H1117 0.930 . S
C1095 C1094 1.384 . S
C1095 C1096 1.377 . S
C1095 C1098 1.481 . S
C1096 C1095 1.377 . S
C1096 C1097 1.389 . S
C1096 H1118 0.929 . S
C1097 C1093 1.397 . S
C1097 C1096 1.389 . S
C1097 H1119 0.931 . S
C1098 C1095 1.481 . S
C1098 C1099 1.387 . S
C1098 C1103 1.390 . S
C1099 C1098 1.387 . S
C1099 C1100 1.401 . S
C1099 H1120 0.930 . S
C1100 C1099 1.401 . S
C1100 C1101 1.376 . S
C1100 C1109 1.511 . S
C1101 C1100 1.376 . S
C1101 C1102 1.392 . S
C1101 H1122 0.931 . S
C1102 C1101 1.392 . S
C1102 C1103 1.361 . S
C1102 C1104 1.500 . S
C1103 C1098 1.390 . S
C1103 C1102 1.361 . S
C1103 H1121 0.931 . S
C1104 C1102 1.500 . S
C1104 C1105 1.371 . S
C1104 C1106 1.365 . S
C1105 C1104 1.371 . S
C1105 C1115 1.386 . S
C1105 H1123 0.931 . S
C1106 C1104 1.365 . S
C1106 C1107 1.409 . S
C1106 H1124 0.929 . S
C1107 C1106 1.409 . S
C1107 C1108 1.380 . S
C1107 H1125 0.930 . S
C1108 C1107 1.380 . S
C1108 C1115 1.357 . S
C1109 C1100 1.511 . S
C1109 C1110 1.341 . S
C1109 C1111 1.371 . S
C1110 C1109 1.341 . S
C1110 C1114 1.394 . S
C1110 H1126 0.930 . S
C1111 C1109 1.371 . S
C1111 C1112 1.392 . S
C1111 H1127 0.931 . S
C1112 C1111 1.392 . S
C1112 C1113 1.331 . S
C1112 H1130 0.932 . S
C1113 C1112 1.331 . S
C1113 C1114 1.336 . S
C1114 C1110 1.394 . S
C1114 C1113 1.336 . S
C1114 H1129 0.929 . S
C1115 C1105 1.386 . S
C1115 C1108 1.357 . S
C1115 H1128 0.928 . S
H1116 C1092 0.931 . S
H1117 C1094 0.930 . S
H1118 C1096 0.929 . S
H1119 C1097 0.931 . S
H1120 C1099 0.930 . S
H1121 C1103 0.931 . S
H1122 C1101 0.931 . S
H1123 C1105 0.931 . S
H1124 C1106 0.929 . S
H1125 C1107 0.930 . S
H1126 C1110 0.930 . S
H1127 C1111 0.931 . S
H1128 C1115 0.928 . S
H1129 C1114 0.929 . S
H1130 C1112 0.932 . S
C1131 C1132 1.386 . S
C1131 C1133 1.397 . S
C1131 H1155 0.931 . S
C1132 C1131 1.386 . S
C1132 C1136 1.397 . S
C1133 C1131 1.397 . S
C1133 C1134 1.384 . S
C1133 H1156 0.930 . S
C1134 C1133 1.384 . S
C1134 C1135 1.377 . S
C1134 C1137 1.481 . S
C1135 C1134 1.377 . S
C1135 C1136 1.389 . S
C1135 H1157 0.929 . S
C1136 C1132 1.397 . S
C1136 C1135 1.389 . S
C1136 H1158 0.931 . S
C1137 C1134 1.481 . S
C1137 C1138 1.387 . S
C1137 C1142 1.390 . S
C1138 C1137 1.387 . S
C1138 C1139 1.401 . S
C1138 H1159 0.930 . S
C1139 C1138 1.401 . S
C1139 C1140 1.376 . S
C1139 C1148 1.511 . S
C1140 C1139 1.376 . S
C1140 C1141 1.392 . S
C1140 H1161 0.931 . S
C1141 C1140 1.392 . S
C1141 C1142 1.361 . S
C1141 C1143 1.500 . S
C1142 C1137 1.390 . S
C1142 C1141 1.361 . S
C1142 H1160 0.931 . S
C1143 C1141 1.500 . S
C1143 C1144 1.371 . S
C1143 C1145 1.365 . S
C1144 C1143 1.371 . S
C1144 C1154 1.386 . S
C1144 H1162 0.931 . S
C1145 C1143 1.365 . S
C1145 C1146 1.409 . S
C1145 H1163 0.929 . S
C1146 C1145 1.409 . S
C1146 C1147 1.380 . S
C1146 H1164 0.930 . S
C1147 C1146 1.380 . S
C1147 C1154 1.357 . S
C1148 C1139 1.511 . S
C1148 C1149 1.341 . S
C1148 C1150 1.371 . S
C1149 C1148 1.341 . S
C1149 C1153 1.394 . S
C1149 H1165 0.930 . S
C1150 C1148 1.371 . S
C1150 C1151 1.392 . S
C1150 H1166 0.931 . S
C1151 C1150 1.392 . S
C1151 C1152 1.331 . S
C1151 H1169 0.932 . S
C1152 C1151 1.331 . S
C1152 C1153 1.336 . S
C1153 C1149 1.394 . S
C1153 C1152 1.336 . S
C1153 H1168 0.929 . S
C1154 C1144 1.386 . S
C1154 C1147 1.357 . S
C1154 H1167 0.928 . S
H1155 C1131 0.931 . S
H1156 C1133 0.930 . S
H1157 C1135 0.929 . S
H1158 C1136 0.931 . S
H1159 C1138 0.930 . S
H1160 C1142 0.931 . S
H1161 C1140 0.931 . S
H1162 C1144 0.931 . S
H1163 C1145 0.929 . S
H1164 C1146 0.930 . S
H1165 C1149 0.930 . S
H1166 C1150 0.931 . S
H1167 C1154 0.928 . S
H1168 C1153 0.929 . S
H1169 C1151 0.932 . S
C1170 C1171 1.386 . S
C1170 C1172 1.397 . S
C1170 H1194 0.931 . S
C1171 C1170 1.386 . S
C1171 C1175 1.397 . S
C1172 C1170 1.397 . S
C1172 C1173 1.384 . S
C1172 H1195 0.930 . S
C1173 C1172 1.384 . S
C1173 C1174 1.377 . S
C1173 C1176 1.481 . S
C1174 C1173 1.377 . S
C1174 C1175 1.389 . S
C1174 H1196 0.929 . S
C1175 C1171 1.397 . S
C1175 C1174 1.389 . S
C1175 H1197 0.931 . S
C1176 C1173 1.481 . S
C1176 C1177 1.387 . S
C1176 C1181 1.390 . S
C1177 C1176 1.387 . S
C1177 C1178 1.401 . S
C1177 H1198 0.930 . S
C1178 C1177 1.401 . S
C1178 C1179 1.376 . S
C1178 C1187 1.511 . S
C1179 C1178 1.376 . S
C1179 C1180 1.392 . S
C1179 H1200 0.931 . S
C1180 C1179 1.392 . S
C1180 C1181 1.361 . S
C1180 C1182 1.500 . S
C1181 C1176 1.390 . S
C1181 C1180 1.361 . S
C1181 H1199 0.931 . S
C1182 C1180 1.500 . S
C1182 C1183 1.371 . S
C1182 C1184 1.365 . S
C1183 C1182 1.371 . S
C1183 C1193 1.386 . S
C1183 H1201 0.931 . S
C1184 C1182 1.365 . S
C1184 C1185 1.409 . S
C1184 H1202 0.929 . S
C1185 C1184 1.409 . S
C1185 C1186 1.380 . S
C1185 H1203 0.930 . S
C1186 C1185 1.380 . S
C1186 C1193 1.357 . S
C1187 C1178 1.511 . S
C1187 C1188 1.341 . S
C1187 C1189 1.371 . S
C1188 C1187 1.341 . S
C1188 C1192 1.394 . S
C1188 H1204 0.930 . S
C1189 C1187 1.371 . S
C1189 C1190 1.392 . S
C1189 H1205 0.931 . S
C1190 C1189 1.392 . S
C1190 C1191 1.331 . S
C1190 H1208 0.932 . S
C1191 C1190 1.331 . S
C1191 C1192 1.336 . S
C1192 C1188 1.394 . S
C1192 C1191 1.336 . S
C1192 H1207 0.929 . S
C1193 C1183 1.386 . S
C1193 C1186 1.357 . S
C1193 H1206 0.928 . S
H1194 C1170 0.931 . S
H1195 C1172 0.930 . S
H1196 C1174 0.929 . S
H1197 C1175 0.931 . S
H1198 C1177 0.930 . S
H1199 C1181 0.931 . S
H1200 C1179 0.931 . S
H1201 C1183 0.931 . S
H1202 C1184 0.929 . S
H1203 C1185 0.930 . S
H1204 C1188 0.930 . S
H1205 C1189 0.931 . S
H1206 C1193 0.928 . S
H1207 C1192 0.929 . S
H1208 C1190 0.932 . S
C1209 C1210 1.386 . S
C1209 C1211 1.397 . S
C1209 H1233 0.931 . S
C1210 C1209 1.386 . S
C1210 C1214 1.397 . S
C1211 C1209 1.397 . S
C1211 C1212 1.384 . S
C1211 H1234 0.930 . S
C1212 C1211 1.384 . S
C1212 C1213 1.377 . S
C1212 C1215 1.481 . S
C1213 C1212 1.377 . S
C1213 C1214 1.389 . S
C1213 H1235 0.929 . S
C1214 C1210 1.397 . S
C1214 C1213 1.389 . S
C1214 H1236 0.931 . S
C1215 C1212 1.481 . S
C1215 C1216 1.387 . S
C1215 C1220 1.390 . S
C1216 C1215 1.387 . S
C1216 C1217 1.401 . S
C1216 H1237 0.930 . S
C1217 C1216 1.401 . S
C1217 C1218 1.376 . S
C1217 C1226 1.511 . S
C1218 C1217 1.376 . S
C1218 C1219 1.392 . S
C1218 H1239 0.931 . S
C1219 C1218 1.392 . S
C1219 C1220 1.361 . S
C1219 C1221 1.500 . S
C1220 C1215 1.390 . S
C1220 C1219 1.361 . S
C1220 H1238 0.931 . S
C1221 C1219 1.500 . S
C1221 C1222 1.371 . S
C1221 C1223 1.365 . S
C1222 C1221 1.371 . S
C1222 C1232 1.386 . S
C1222 H1240 0.931 . S
C1223 C1221 1.365 . S
C1223 C1224 1.409 . S
C1223 H1241 0.929 . S
C1224 C1223 1.409 . S
C1224 C1225 1.380 . S
C1224 H1242 0.930 . S
C1225 C1224 1.380 . S
C1225 C1232 1.357 . S
C1226 C1217 1.511 . S
C1226 C1227 1.341 . S
C1226 C1228 1.371 . S
C1227 C1226 1.341 . S
C1227 C1231 1.394 . S
C1227 H1243 0.930 . S
C1228 C1226 1.371 . S
C1228 C1229 1.392 . S
C1228 H1244 0.931 . S
C1229 C1228 1.392 . S
C1229 C1230 1.331 . S
C1229 H1247 0.932 . S
C1230 C1229 1.331 . S
C1230 C1231 1.336 . S
C1231 C1227 1.394 . S
C1231 C1230 1.336 . S
C1231 H1246 0.929 . S
C1232 C1222 1.386 . S
C1232 C1225 1.357 . S
C1232 H1245 0.928 . S
H1233 C1209 0.931 . S
H1234 C1211 0.930 . S
H1235 C1213 0.929 . S
H1236 C1214 0.931 . S
H1237 C1216 0.930 . S
H1238 C1220 0.931 . S
H1239 C1218 0.931 . S
H1240 C1222 0.931 . S
H1241 C1223 0.929 . S
H1242 C1224 0.930 . S
H1243 C1227 0.930 . S
H1244 C1228 0.931 . S
H1245 C1232 0.928 . S
H1246 C1231 0.929 . S
H1247 C1229 0.932 . S
Cu1248 N1249 1.999 . S
Cu1248 O1254 1.974 1_554 S
Cu1248 N1259 1.985 . S
Cu1248 O1268 1.959 . S
N1249 Cu1248 1.999 . S
N1249 C1251 1.263 1_554 S
N1249 C1253 1.389 . S
N1250 C1251 1.358 . S
N1250 C1252 1.400 . S
C1251 N1249 1.263 1_556 S
C1251 N1250 1.358 . S
C1251 H1257 0.930 . S
C1252 N1250 1.400 . S
C1252 C1253 1.351 1_556 S
C1252 H1269 0.930 . S
C1253 N1249 1.389 . S
C1253 C1252 1.351 1_554 S
C1253 H1258 0.930 . S
O1254 Cu1248 1.974 1_556 S
O1254 C1264 1.282 . S
C1255 O1256 1.261 . S
C1255 O1268 1.251 . S
O1256 C1255 1.261 . S
H1257 C1251 0.930 . S
H1258 C1253 0.930 . S
N1259 Cu1248 1.985 . S
N1259 C1261 1.335 . S
N1259 C1262 1.390 . S
N1260 C1261 1.345 . S
N1260 C1263 1.336 . S
C1261 N1259 1.335 . S
C1261 N1260 1.345 . S
C1261 H1266 0.930 . S
C1262 N1259 1.390 . S
C1262 C1263 1.346 . S
C1262 H1267 0.930 . S
C1263 N1260 1.336 . S
C1263 C1262 1.346 . S
C1263 H1270 0.929 . S
C1264 O1254 1.282 . S
C1264 O1265 1.216 . S
O1265 C1264 1.216 . S
H1266 C1261 0.930 . S
H1267 C1262 0.930 . S
O1268 Cu1248 1.959 . S
O1268 C1255 1.251 . S
H1269 C1252 0.930 . S
H1270 C1263 0.929 . S
Cu1271 N1272 1.999 . S
Cu1271 O1277 1.974 . S
Cu1271 N1282 1.985 1_554 S
Cu1271 O1291 1.959 1_554 S
N1272 Cu1271 1.999 . S
N1272 C1274 1.263 . S
N1272 C1276 1.389 . S
N1273 C1274 1.358 . S
N1273 C1275 1.400 . S
C1274 N1272 1.263 . S
C1274 N1273 1.358 . S
C1274 H1280 0.930 . S
C1275 N1273 1.400 . S
C1275 C1276 1.351 . S
C1275 H1292 0.930 . S
C1276 N1272 1.389 . S
C1276 C1275 1.351 . S
C1276 H1281 0.930 . S
O1277 Cu1271 1.974 . S
O1277 C1287 1.282 . S
C1278 O1279 1.261 . S
C1278 O1291 1.251 . S
O1279 C1278 1.261 . S
H1280 C1274 0.930 . S
H1281 C1276 0.930 . S
N1282 Cu1271 1.985 1_556 S
N1282 C1284 1.335 . S
N1282 C1285 1.390 . S
N1283 C1284 1.345 . S
N1283 C1286 1.336 . S
C1284 N1282 1.335 . S
C1284 N1283 1.345 . S
C1284 H1289 0.930 . S
C1285 N1282 1.390 . S
C1285 C1286 1.346 . S
C1285 H1290 0.930 1_556 S
C1286 N1283 1.336 . S
C1286 C1285 1.346 . S
C1286 H1293 0.929 . S
C1287 O1277 1.282 . S
C1287 O1288 1.216 . S
O1288 C1287 1.216 . S
H1289 C1284 0.930 . S
H1290 C1285 0.930 1_554 S
O1291 Cu1271 1.959 1_556 S
O1291 C1278 1.251 . S
H1292 C1275 0.930 . S
H1293 C1286 0.929 . S
Cu1294 N1295 1.959 1_554 S
Cu1294 O1300 1.924 1_554 S
Cu1294 N1305 2.024 . S
Cu1294 O1314 2.008 . S
N1295 Cu1294 1.959 1_556 S
N1295 C1297 1.263 . S
N1295 C1299 1.389 . S
N1296 C1297 1.358 . S
N1296 C1298 1.400 . S
C1297 N1295 1.263 . S
C1297 N1296 1.358 . S
C1297 H1303 0.930 . S
C1298 N1296 1.400 . S
C1298 C1299 1.351 . S
C1298 H1315 0.930 . S
C1299 N1295 1.389 . S
C1299 C1298 1.351 . S
C1299 H1304 0.977 . S
O1300 Cu1294 1.924 1_556 S
O1300 C1310 1.282 . S
C1301 O1302 1.261 . S
C1301 O1314 1.251 . S
O1302 C1301 1.261 . S
H1303 C1297 0.930 . S
H1304 C1299 0.977 . S
N1305 Cu1294 2.024 . S
N1305 C1307 1.335 . S
N1305 C1308 1.390 . S
N1306 C1307 1.345 . S
N1306 C1309 1.336 . S
C1307 N1305 1.335 . S
C1307 N1306 1.345 . S
C1307 H1312 0.930 . S
C1308 N1305 1.390 . S
C1308 C1309 1.346 . S
C1308 H1313 0.932 . S
C1309 N1306 1.336 . S
C1309 C1308 1.346 . S
C1309 H1316 0.929 . S
C1310 O1300 1.282 . S
C1310 O1311 1.216 . S
O1311 C1310 1.216 . S
H1312 C1307 0.930 . S
H1313 C1308 0.932 . S
O1314 Cu1294 2.008 . S
O1314 C1301 1.251 . S
H1315 C1298 0.930 . S
H1316 C1309 0.929 . S
Cu1317 N1318 2.033 . S
Cu1317 O1323 2.014 . S
Cu1317 N1328 1.953 1_554 S
Cu1317 O1337 1.920 1_554 S
N1318 Cu1317 2.033 . S
N1318 C1320 1.263 . S
N1318 C1322 1.389 . S
N1319 C1320 1.358 . S
N1319 C1321 1.400 . S
C1320 N1318 1.263 . S
C1320 N1319 1.358 . S
C1320 H1326 0.930 . S
C1321 N1319 1.400 . S
C1321 C1322 1.351 . S
C1321 H1338 0.930 . S
C1322 N1318 1.389 . S
C1322 C1321 1.351 . S
C1322 H1327 0.930 . S
O1323 Cu1317 2.014 . S
O1323 C1333 1.282 . S
C1324 O1325 1.261 . S
C1324 O1337 1.251 . S
O1325 C1324 1.261 . S
H1326 C1320 0.930 . S
H1327 C1322 0.930 . S
N1328 Cu1317 1.953 1_556 S
N1328 C1330 1.335 . S
N1328 C1331 1.390 . S
N1329 C1330 1.345 . S
N1329 C1332 1.336 . S
C1330 N1328 1.335 . S
C1330 N1329 1.345 . S
C1330 H1335 0.930 . S
C1331 N1328 1.390 . S
C1331 C1332 1.346 . S
C1331 H1336 0.930 1_556 S
C1332 N1329 1.336 . S
C1332 C1331 1.346 . S
C1332 H1339 0.929 . S
C1333 O1323 1.282 . S
C1333 O1334 1.216 . S
O1334 C1333 1.216 . S
H1335 C1330 0.930 . S
H1336 C1331 0.930 1_554 S
O1337 Cu1317 1.920 1_556 S
O1337 C1324 1.251 . S
H1338 C1321 0.930 . S
H1339 C1332 0.929 . S
Cu1340 N1341 1.999 . S
Cu1340 O1346 1.974 . S
Cu1340 N1351 1.985 1_455 S
Cu1340 O1360 1.959 1_455 S
N1341 Cu1340 1.999 . S
N1341 C1343 1.263 . S
N1341 C1345 1.389 . S
N1342 C1343 1.358 . S
N1342 C1344 1.400 . S
C1343 N1341 1.263 . S
C1343 N1342 1.358 . S
C1343 H1349 0.930 . S
C1344 N1342 1.400 . S
C1344 C1345 1.351 . S
C1344 H1361 0.930 . S
C1345 N1341 1.389 . S
C1345 C1344 1.351 . S
C1345 H1350 0.930 . S
O1346 Cu1340 1.974 . S
O1346 C1356 1.282 . S
C1347 O1348 1.261 . S
C1347 O1360 1.251 . S
O1348 C1347 1.261 . S
H1349 C1343 0.930 . S
H1350 C1345 0.930 . S
N1351 Cu1340 1.985 1_655 S
N1351 C1353 1.335 . S
N1351 C1354 1.382 1_655 S
N1352 C1353 1.345 . S
N1352 C1355 1.336 . S
C1353 N1351 1.335 . S
C1353 N1352 1.345 . S
C1353 H1358 0.930 . S
C1354 N1351 1.382 1_455 S
C1354 C1355 1.307 1_455 S
C1354 H1359 0.971 . S
C1355 N1352 1.336 . S
C1355 C1354 1.307 1_655 S
C1355 H1362 0.929 . S
C1356 O1346 1.282 . S
C1356 O1357 1.216 . S
O1357 C1356 1.216 . S
H1358 C1353 0.930 . S
H1359 C1354 0.971 . S
O1360 Cu1340 1.959 1_655 S
O1360 C1347 1.251 . S
H1361 C1344 0.930 . S
H1362 C1355 0.929 . S
Cu1363 N1364 1.999 . S
Cu1363 O1369 1.974 . S
Cu1363 N1374 1.985 1_545 S
Cu1363 O1383 1.959 1_545 S
N1364 Cu1363 1.999 . S
N1364 C1366 1.263 . S
N1364 C1368 1.389 . S
N1365 C1366 1.358 . S
N1365 C1367 1.400 . S
C1366 N1364 1.263 . S
C1366 N1365 1.358 . S
C1366 H1372 0.930 . S
C1367 N1365 1.400 . S
C1367 C1368 1.351 . S
C1367 H1384 0.930 . S
C1368 N1364 1.389 . S
C1368 C1367 1.351 . S
C1368 H1373 0.930 . S
O1369 Cu1363 1.974 . S
O1369 C1379 1.282 . S
C1370 O1371 1.261 . S
C1370 O1383 1.251 . S
O1371 C1370 1.261 . S
H1372 C1366 0.930 . S
H1373 C1368 0.930 . S
N1374 Cu1363 1.985 1_565 S
N1374 C1376 1.335 . S
N1374 C1377 1.390 . S
N1375 C1376 1.345 . S
N1375 C1378 1.336 . S
C1376 N1374 1.335 . S
C1376 N1375 1.345 . S
C1376 H1381 0.930 . S
C1377 N1374 1.390 . S
C1377 C1378 1.346 . S
C1377 H1382 0.930 1_565 S
C1378 N1375 1.336 . S
C1378 C1377 1.346 . S
C1378 H1385 0.929 . S
C1379 O1369 1.282 . S
C1379 O1380 1.216 . S
O1380 C1379 1.216 . S
H1381 C1376 0.930 . S
H1382 C1377 0.930 1_545 S
O1383 Cu1363 1.959 1_565 S
O1383 C1370 1.251 . S
H1384 C1367 0.930 . S
H1385 C1378 0.929 . S
Cu1386 N1387 2.000 . S
Cu1386 O1392 1.974 . S
Cu1386 N1397 1.985 1_655 S
Cu1386 O1406 1.959 1_655 S
N1387 Cu1386 2.000 . S
N1387 C1389 1.263 . S
N1387 C1391 1.389 . S
N1388 C1389 1.358 . S
N1388 C1390 1.400 . S
C1389 N1387 1.263 . S
C1389 N1388 1.358 . S
C1389 H1395 0.930 . S
C1390 N1388 1.400 . S
C1390 C1391 1.351 . S
C1390 H1407 0.930 . S
C1391 N1387 1.389 . S
C1391 C1390 1.351 . S
C1391 H1396 0.930 . S
O1392 Cu1386 1.974 . S
O1392 C1402 1.282 . S
C1393 O1394 1.261 . S
C1393 O1406 1.251 . S
O1394 C1393 1.261 . S
H1395 C1389 0.930 . S
H1396 C1391 0.930 . S
N1397 Cu1386 1.985 1_455 S
N1397 C1399 1.335 . S
N1397 C1400 1.390 . S
N1398 C1399 1.345 . S
N1398 C1401 1.336 . S
C1399 N1397 1.335 . S
C1399 N1398 1.345 . S
C1399 H1404 0.930 . S
C1400 N1397 1.390 . S
C1400 C1401 1.346 . S
C1400 H1405 0.930 . S
C1401 N1398 1.336 . S
C1401 C1400 1.346 . S
C1401 H1408 0.929 . S
C1402 O1392 1.282 . S
C1402 O1403 1.216 . S
O1403 C1402 1.216 . S
H1404 C1399 0.930 . S
H1405 C1400 0.930 . S
O1406 Cu1386 1.959 1_455 S
O1406 C1393 1.251 . S
H1407 C1390 0.930 . S
H1408 C1401 0.929 . S
Cu1409 N1410 1.982 1_565 S
Cu1409 O1415 1.952 1_565 S
Cu1409 N1420 2.002 . S
Cu1409 O1429 1.981 . S
N1410 Cu1409 1.982 1_545 S
N1410 C1412 1.263 . S
N1410 C1414 1.389 . S
N1411 C1412 1.358 . S
N1411 C1413 1.400 . S
C1412 N1410 1.263 . S
C1412 N1411 1.358 . S
C1412 H1418 0.930 . S
C1413 N1411 1.400 . S
C1413 C1414 1.351 . S
C1413 H1430 0.930 . S
C1414 N1410 1.389 . S
C1414 C1413 1.351 . S
C1414 H1419 0.930 . S
O1415 Cu1409 1.952 1_545 S
O1415 C1425 1.282 . S
C1416 O1417 1.261 . S
C1416 O1429 1.251 . S
O1417 C1416 1.261 . S
H1418 C1412 0.930 . S
H1419 C1414 0.930 . S
N1420 Cu1409 2.002 . S
N1420 C1422 1.335 . S
N1420 C1423 1.390 . S
N1421 C1422 1.345 . S
N1421 C1424 1.336 . S
C1422 N1420 1.335 . S
C1422 N1421 1.345 . S
C1422 H1427 0.930 . S
C1423 N1420 1.390 . S
C1423 C1424 1.346 . S
C1423 H1428 0.930 . S
C1424 N1421 1.336 . S
C1424 C1423 1.346 . S
C1424 H1431 0.929 . S
C1425 O1415 1.282 . S
C1425 O1426 1.216 . S
O1426 C1425 1.216 . S
H1427 C1422 0.930 . S
H1428 C1423 0.930 . S
O1429 Cu1409 1.981 . S
O1429 C1416 1.251 . S
H1430 C1413 0.930 . S
H1431 C1424 0.929 . S
Cu1432 N1433 1.999 . S
Cu1432 O1438 1.974 . S
Cu1432 N1443 1.985 1_455 S
Cu1432 O1452 1.959 1_455 S
N1433 Cu1432 1.999 . S
N1433 C1435 1.263 . S
N1433 C1437 1.389 . S
N1434 C1435 1.358 . S
N1434 C1436 1.400 . S
C1435 N1433 1.263 . S
C1435 N1434 1.358 . S
C1435 H1441 0.930 . S
C1436 N1434 1.400 . S
C1436 C1437 1.351 . S
C1436 H1453 0.930 . S
C1437 N1433 1.389 . S
C1437 C1436 1.351 . S
C1437 H1442 0.930 . S
O1438 Cu1432 1.974 . S
O1438 C1448 1.282 . S
C1439 O1440 1.261 . S
C1439 O1452 1.251 . S
O1440 C1439 1.261 . S
H1441 C1435 0.930 . S
H1442 C1437 0.930 . S
N1443 Cu1432 1.985 1_655 S
N1443 C1445 1.335 . S
N1443 C1446 1.390 . S
N1444 C1445 1.345 . S
N1444 C1447 1.336 . S
C1445 N1443 1.335 . S
C1445 N1444 1.345 . S
C1445 H1450 0.930 . S
C1446 N1443 1.390 . S
C1446 C1447 1.347 . S
C1446 H1451 0.930 1_655 S
C1447 N1444 1.336 . S
C1447 C1446 1.347 . S
C1447 H1454 0.929 . S
C1448 O1438 1.282 . S
C1448 O1449 1.216 . S
O1449 C1448 1.216 . S
H1450 C1445 0.930 . S
H1451 C1446 0.930 1_455 S
O1452 Cu1432 1.959 1_655 S
O1452 C1439 1.251 . S
H1453 C1436 0.930 . S
H1454 C1447 0.929 . S
Cu1455 N1456 1.999 . S
Cu1455 O1461 1.974 . S
Cu1455 N1466 1.985 1_545 S
Cu1455 O1475 1.959 1_545 S
N1456 Cu1455 1.999 . S
N1456 C1458 1.263 . S
N1456 C1460 1.389 . S
N1457 C1458 1.358 . S
N1457 C1459 1.400 . S
C1458 N1456 1.263 . S
C1458 N1457 1.358 . S
C1458 H1464 0.930 . S
C1459 N1457 1.400 . S
C1459 C1460 1.351 . S
C1459 H1476 0.930 . S
C1460 N1456 1.389 . S
C1460 C1459 1.351 . S
C1460 H1465 0.930 . S
O1461 Cu1455 1.974 . S
O1461 C1471 1.282 . S
C1462 O1463 1.261 . S
C1462 O1475 1.251 . S
O1463 C1462 1.261 . S
H1464 C1458 0.930 . S
H1465 C1460 0.930 . S
N1466 Cu1455 1.985 1_565 S
N1466 C1468 1.335 . S
N1466 C1469 1.390 1_565 S
N1467 C1468 1.345 . S
N1467 C1470 1.336 . S
C1468 N1466 1.335 . S
C1468 N1467 1.345 . S
C1468 H1473 0.930 . S
C1469 N1466 1.390 1_545 S
C1469 C1470 1.346 1_545 S
C1469 H1474 0.930 . S
C1470 N1467 1.336 . S
C1470 C1469 1.346 1_565 S
C1470 H1477 0.929 . S
C1471 O1461 1.282 . S
C1471 O1472 1.216 . S
O1472 C1471 1.216 . S
H1473 C1468 0.930 . S
H1474 C1469 0.930 . S
O1475 Cu1455 1.959 1_565 S
O1475 C1462 1.251 . S
H1476 C1459 0.930 . S
H1477 C1470 0.929 . S
Cu1478 N1479 1.999 . S
Cu1478 O1484 1.974 . S
Cu1478 N1489 1.985 . S
Cu1478 O1498 1.959 . S
N1479 Cu1478 1.999 . S
N1479 C1481 1.263 1_455 S
N1479 C1483 1.389 . S
N1480 C1481 1.358 . S
N1480 C1482 1.400 . S
C1481 N1479 1.263 1_655 S
C1481 N1480 1.358 . S
C1481 H1487 0.930 . S
C1482 N1480 1.400 . S
C1482 C1483 1.351 1_655 S
C1482 H1499 0.930 . S
C1483 N1479 1.389 . S
C1483 C1482 1.351 1_455 S
C1483 H1488 0.930 . S
O1484 Cu1478 1.974 . S
O1484 C1494 1.282 1_455 S
C1485 O1486 1.261 . S
C1485 O1498 1.251 . S
O1486 C1485 1.261 . S
H1487 C1481 0.930 . S
H1488 C1483 0.930 . S
N1489 Cu1478 1.985 . S
N1489 C1491 1.335 . S
N1489 C1492 1.390 . S
N1490 C1491 1.345 . S
N1490 C1493 1.336 . S
C1491 N1489 1.335 . S
C1491 N1490 1.345 . S
C1491 H1496 0.930 . S
C1492 N1489 1.390 . S
C1492 C1493 1.346 . S
C1492 H1497 0.930 . S
C1493 N1490 1.336 . S
C1493 C1492 1.346 . S
C1493 H1500 0.929 . S
C1494 O1484 1.282 1_655 S
C1494 O1495 1.216 1_655 S
O1495 C1494 1.216 1_455 S
H1496 C1491 0.930 . S
H1497 C1492 0.930 . S
O1498 Cu1478 1.959 . S
O1498 C1485 1.251 . S
H1499 C1482 0.930 . S
H1500 C1493 0.929 . S
Cu1501 N1502 1.999 . S
Cu1501 O1507 1.974 . S
Cu1501 N1512 2.023 . S
Cu1501 O1521 1.959 1_545 S
N1502 Cu1501 1.999 . S
N1502 C1504 1.263 . S
N1502 C1506 1.389 . S
N1503 C1504 1.358 . S
N1503 C1505 1.400 . S
C1504 N1502 1.263 . S
C1504 N1503 1.358 . S
C1504 H1510 0.930 . S
C1505 N1503 1.400 . S
C1505 C1506 1.351 . S
C1505 H1522 0.930 . S
C1506 N1502 1.389 . S
C1506 C1505 1.351 . S
C1506 H1511 0.930 . S
O1507 Cu1501 1.974 . S
O1507 C1517 1.282 . S
C1508 O1509 1.233 1_565 S
C1508 O1521 1.251 . S
O1509 C1508 1.233 1_545 S
H1510 C1504 0.930 . S
H1511 C1506 0.930 . S
N1512 Cu1501 2.023 . S
N1512 C1514 1.275 1_545 S
N1512 C1515 1.406 . S
N1513 C1514 1.345 . S
N1513 C1516 1.336 . S
C1514 N1512 1.275 1_565 S
C1514 N1513 1.345 . S
C1514 H1519 0.930 . S
C1515 N1512 1.406 . S
C1515 C1516 1.346 1_545 S
C1515 H1520 0.930 . S
C1516 N1513 1.336 . S
C1516 C1515 1.346 1_565 S
C1516 H1523 0.929 . S
C1517 O1507 1.282 . S
C1517 O1518 1.216 . S
O1518 C1517 1.216 . S
H1519 C1514 0.930 . S
H1520 C1515 0.930 . S
O1521 Cu1501 1.959 1_565 S
O1521 C1508 1.251 . S
H1522 C1505 0.930 . S
H1523 C1516 0.929 . S
Cu1524 N1525 1.999 . S
Cu1524 O1530 1.974 . S
Cu1524 N1535 1.985 . S
Cu1524 O1544 1.959 . S
N1525 Cu1524 1.999 . S
N1525 C1527 1.263 . S
N1525 C1529 1.389 . S
N1526 C1527 1.358 . S
N1526 C1528 1.400 . S
C1527 N1525 1.263 . S
C1527 N1526 1.358 . S
C1527 H1533 0.930 . S
C1528 N1526 1.400 . S
C1528 C1529 1.351 . S
C1528 H1545 0.930 . S
C1529 N1525 1.389 . S
C1529 C1528 1.351 . S
C1529 H1534 0.930 . S
O1530 Cu1524 1.974 . S
O1530 C1540 1.282 . S
C1531 O1532 1.261 . S
C1531 O1544 1.251 . S
O1532 C1531 1.261 . S
H1533 C1527 0.930 . S
H1534 C1529 0.930 . S
N1535 Cu1524 1.985 . S
N1535 C1537 1.335 . S
N1535 C1538 1.390 . S
N1536 C1537 1.345 . S
N1536 C1539 1.336 . S
C1537 N1535 1.335 . S
C1537 N1536 1.345 . S
C1537 H1542 0.930 . S
C1538 N1535 1.390 . S
C1538 C1539 1.346 . S
C1538 H1543 0.930 . S
C1539 N1536 1.336 . S
C1539 C1538 1.346 . S
C1539 H1546 0.929 . S
C1540 O1530 1.282 . S
C1540 O1541 1.216 . S
O1541 C1540 1.216 . S
H1542 C1537 0.930 . S
H1543 C1538 0.930 . S
O1544 Cu1524 1.959 . S
O1544 C1531 1.251 . S
H1545 C1528 0.930 . S
H1546 C1539 0.929 . S
Cu1547 N1548 1.999 . S
Cu1547 O1553 1.974 . S
Cu1547 N1558 1.985 . S
Cu1547 O1567 1.959 . S
N1548 Cu1547 1.999 . S
N1548 C1550 1.263 . S
N1548 C1552 1.389 . S
N1549 C1550 1.358 . S
N1549 C1551 1.400 . S
C1550 N1548 1.263 . S
C1550 N1549 1.358 . S
C1550 H1556 0.930 . S
C1551 N1549 1.400 . S
C1551 C1552 1.351 . S
C1551 H1568 0.930 . S
C1552 N1548 1.389 . S
C1552 C1551 1.351 . S
C1552 H1557 0.930 . S
O1553 Cu1547 1.974 . S
O1553 C1563 1.282 . S
C1554 O1555 1.261 . S
C1554 O1567 1.251 . S
O1555 C1554 1.261 . S
H1556 C1550 0.930 . S
H1557 C1552 0.930 . S
N1558 Cu1547 1.985 . S
N1558 C1560 1.335 . S
N1558 C1561 1.390 . S
N1559 C1560 1.345 . S
N1559 C1562 1.336 . S
C1560 N1558 1.335 . S
C1560 N1559 1.345 . S
C1560 H1565 0.930 . S
C1561 N1558 1.390 . S
C1561 C1562 1.346 . S
C1561 H1566 0.930 . S
C1562 N1559 1.336 . S
C1562 C1561 1.346 . S
C1562 H1569 0.929 . S
C1563 O1553 1.282 . S
C1563 O1564 1.216 . S
O1564 C1563 1.216 . S
H1565 C1560 0.930 . S
H1566 C1561 0.930 . S
O1567 Cu1547 1.959 . S
O1567 C1554 1.251 . S
H1568 C1551 0.930 . S
H1569 C1562 0.929 . S
Cu1570 N1571 1.999 . S
Cu1570 O1576 1.974 . S
Cu1570 N1581 1.985 . S
Cu1570 O1590 1.959 . S
N1571 Cu1570 1.999 . S
N1571 C1573 1.263 . S
N1571 C1575 1.389 . S
N1572 C1573 1.358 . S
N1572 C1574 1.400 . S
C1573 N1571 1.263 . S
C1573 N1572 1.358 . S
C1573 H1579 0.930 . S
C1574 N1572 1.400 . S
C1574 C1575 1.351 . S
C1574 H1591 0.930 . S
C1575 N1571 1.389 . S
C1575 C1574 1.351 . S
C1575 H1580 0.930 . S
O1576 Cu1570 1.974 . S
O1576 C1586 1.282 . S
C1577 O1578 1.261 . S
C1577 O1590 1.251 . S
O1578 C1577 1.261 . S
H1579 C1573 0.930 . S
H1580 C1575 0.930 . S
N1581 Cu1570 1.985 . S
N1581 C1583 1.335 . S
N1581 C1584 1.390 . S
N1582 C1583 1.345 . S
N1582 C1585 1.336 . S
C1583 N1581 1.335 . S
C1583 N1582 1.345 . S
C1583 H1588 0.930 . S
C1584 N1581 1.390 . S
C1584 C1585 1.346 . S
C1584 H1589 0.930 . S
C1585 N1582 1.336 . S
C1585 C1584 1.346 . S
C1585 H1592 0.929 . S
C1586 O1576 1.282 . S
C1586 O1587 1.216 . S
O1587 C1586 1.216 . S
H1588 C1583 0.930 . S
H1589 C1584 0.930 . S
O1590 Cu1570 1.959 . S
O1590 C1577 1.251 . S
H1591 C1574 0.930 . S
H1592 C1585 0.929 . S
Cu1593 N1594 1.999 . S
Cu1593 O1599 1.974 . S
Cu1593 N1604 1.985 . S
Cu1593 O1613 1.959 . S
N1594 Cu1593 1.999 . S
N1594 C1596 1.263 . S
N1594 C1598 1.389 . S
N1595 C1596 1.358 . S
N1595 C1597 1.400 . S
C1596 N1594 1.263 . S
C1596 N1595 1.358 . S
C1596 H1602 0.930 . S
C1597 N1595 1.400 . S
C1597 C1598 1.351 . S
C1597 H1614 0.930 . S
C1598 N1594 1.389 . S
C1598 C1597 1.351 . S
C1598 H1603 0.930 . S
O1599 Cu1593 1.974 . S
O1599 C1609 1.282 . S
C1600 O1601 1.261 . S
C1600 O1613 1.251 . S
O1601 C1600 1.261 . S
H1602 C1596 0.930 . S
H1603 C1598 0.930 . S
N1604 Cu1593 1.985 . S
N1604 C1606 1.335 . S
N1604 C1607 1.390 . S
N1605 C1606 1.345 . S
N1605 C1608 1.336 . S
C1606 N1604 1.335 . S
C1606 N1605 1.345 . S
C1606 H1611 0.930 . S
C1607 N1604 1.390 . S
C1607 C1608 1.346 . S
C1607 H1612 0.930 . S
C1608 N1605 1.336 . S
C1608 C1607 1.346 . S
C1608 H1615 0.929 . S
C1609 O1599 1.282 . S
C1609 O1610 1.216 . S
O1610 C1609 1.216 . S
H1611 C1606 0.930 . S
H1612 C1607 0.930 . S
O1613 Cu1593 1.959 . S
O1613 C1600 1.251 . S
H1614 C1597 0.930 . S
H1615 C1608 0.929 . S
Cu1616 N1617 1.999 . S
Cu1616 O1622 1.974 . S
Cu1616 N1627 1.985 . S
Cu1616 O1636 1.959 . S
N1617 Cu1616 1.999 . S
N1617 C1619 1.263 . S
N1617 C1621 1.389 . S
N1618 C1619 1.358 . S
N1618 C1620 1.400 . S
C1619 N1617 1.263 . S
C1619 N1618 1.358 . S
C1619 H1625 0.930 . S
C1620 N1618 1.400 . S
C1620 C1621 1.351 . S
C1620 H1637 0.930 . S
C1621 N1617 1.389 . S
C1621 C1620 1.351 . S
C1621 H1626 0.930 . S
O1622 Cu1616 1.974 . S
O1622 C1632 1.282 . S
C1623 O1624 1.261 . S
C1623 O1636 1.251 . S
O1624 C1623 1.261 . S
H1625 C1619 0.930 . S
H1626 C1621 0.930 . S
N1627 Cu1616 1.985 . S
N1627 C1629 1.335 . S
N1627 C1630 1.390 . S
N1628 C1629 1.345 . S
N1628 C1631 1.336 . S
C1629 N1627 1.335 . S
C1629 N1628 1.345 . S
C1629 H1634 0.930 . S
C1630 N1627 1.390 . S
C1630 C1631 1.346 . S
C1630 H1635 0.930 . S
C1631 N1628 1.336 . S
C1631 C1630 1.346 . S
C1631 H1638 0.929 . S
C1632 O1622 1.282 . S
C1632 O1633 1.216 . S
O1633 C1632 1.216 . S
H1634 C1629 0.930 . S
H1635 C1630 0.930 . S
O1636 Cu1616 1.959 . S
O1636 C1623 1.251 . S
H1637 C1620 0.930 . S
H1638 C1631 0.929 . S
Cu1639 N1640 1.999 . S
Cu1639 O1645 1.974 . S
Cu1639 N1650 1.985 . S
Cu1639 O1659 1.959 . S
N1640 Cu1639 1.999 . S
N1640 C1642 1.263 . S
N1640 C1644 1.389 . S
N1641 C1642 1.358 . S
N1641 C1643 1.400 . S
C1642 N1640 1.263 . S
C1642 N1641 1.358 . S
C1642 H1648 0.930 . S
C1643 N1641 1.400 . S
C1643 C1644 1.351 . S
C1643 H1660 0.930 . S
C1644 N1640 1.389 . S
C1644 C1643 1.351 . S
C1644 H1649 0.930 . S
O1645 Cu1639 1.974 . S
O1645 C1655 1.282 . S
C1646 O1647 1.261 . S
C1646 O1659 1.251 . S
O1647 C1646 1.261 . S
H1648 C1642 0.930 . S
H1649 C1644 0.930 . S
N1650 Cu1639 1.985 . S
N1650 C1652 1.335 . S
N1650 C1653 1.390 . S
N1651 C1652 1.345 . S
N1651 C1654 1.336 . S
C1652 N1650 1.335 . S
C1652 N1651 1.345 . S
C1652 H1657 0.930 . S
C1653 N1650 1.390 . S
C1653 C1654 1.346 . S
C1653 H1658 0.930 . S
C1654 N1651 1.336 . S
C1654 C1653 1.346 . S
C1654 H1661 0.929 . S
C1655 O1645 1.282 . S
C1655 O1656 1.216 . S
O1656 C1655 1.216 . S
H1657 C1652 0.930 . S
H1658 C1653 0.930 . S
O1659 Cu1639 1.959 . S
O1659 C1646 1.251 . S
H1660 C1643 0.930 . S
H1661 C1654 0.929 . S
Cu1662 N1663 1.999 . S
Cu1662 O1668 1.974 . S
Cu1662 N1673 1.985 . S
Cu1662 O1682 1.959 . S
N1663 Cu1662 1.999 . S
N1663 C1665 1.263 . S
N1663 C1667 1.389 . S
N1664 C1665 1.358 . S
N1664 C1666 1.400 . S
C1665 N1663 1.263 . S
C1665 N1664 1.358 . S
C1665 H1671 0.930 . S
C1666 N1664 1.400 . S
C1666 C1667 1.351 . S
C1666 H1683 0.930 . S
C1667 N1663 1.389 . S
C1667 C1666 1.351 . S
C1667 H1672 0.930 . S
O1668 Cu1662 1.974 . S
O1668 C1678 1.282 . S
C1669 O1670 1.261 . S
C1669 O1682 1.251 . S
O1670 C1669 1.261 . S
H1671 C1665 0.930 . S
H1672 C1667 0.930 . S
N1673 Cu1662 1.985 . S
N1673 C1675 1.335 . S
N1673 C1676 1.390 . S
N1674 C1675 1.345 . S
N1674 C1677 1.336 . S
C1675 N1673 1.335 . S
C1675 N1674 1.345 . S
C1675 H1680 0.930 . S
C1676 N1673 1.390 . S
C1676 C1677 1.346 . S
C1676 H1681 0.930 . S
C1677 N1674 1.336 . S
C1677 C1676 1.346 . S
C1677 H1684 0.929 . S
C1678 O1668 1.282 . S
C1678 O1679 1.216 . S
O1679 C1678 1.216 . S
H1680 C1675 0.930 . S
H1681 C1676 0.930 . S
O1682 Cu1662 1.959 . S
O1682 C1669 1.251 . S
H1683 C1666 0.930 . S
H1684 C1677 0.929 . S
Cu1685 N1686 1.999 . S
Cu1685 O1691 1.974 . S
Cu1685 N1696 1.985 . S
Cu1685 O1705 1.959 . S
N1686 Cu1685 1.999 . S
N1686 C1688 1.263 . S
N1686 C1690 1.389 . S
N1687 C1688 1.358 . S
N1687 C1689 1.400 . S
C1688 N1686 1.263 . S
C1688 N1687 1.358 . S
C1688 H1694 0.930 . S
C1689 N1687 1.400 . S
C1689 C1690 1.351 . S
C1689 H1706 0.930 . S
C1690 N1686 1.389 . S
C1690 C1689 1.351 . S
C1690 H1695 0.930 . S
O1691 Cu1685 1.974 . S
O1691 C1701 1.282 . S
C1692 O1693 1.261 . S
C1692 O1705 1.251 . S
O1693 C1692 1.261 . S
H1694 C1688 0.930 . S
H1695 C1690 0.930 . S
N1696 Cu1685 1.985 . S
N1696 C1698 1.335 . S
N1696 C1699 1.390 . S
N1697 C1698 1.345 . S
N1697 C1700 1.336 . S
C1698 N1696 1.335 . S
C1698 N1697 1.345 . S
C1698 H1703 0.930 . S
C1699 N1696 1.390 . S
C1699 C1700 1.346 . S
C1699 H1704 0.930 . S
C1700 N1697 1.336 . S
C1700 C1699 1.346 . S
C1700 H1707 0.929 . S
C1701 O1691 1.282 . S
C1701 O1702 1.216 . S
O1702 C1701 1.216 . S
H1703 C1698 0.930 . S
H1704 C1699 0.930 . S
O1705 Cu1685 1.959 . S
O1705 C1692 1.251 . S
H1706 C1689 0.930 . S
H1707 C1700 0.929 . S
Cu1708 N1709 1.999 . S
Cu1708 O1714 1.974 . S
Cu1708 N1719 1.985 . S
Cu1708 O1728 1.959 . S
N1709 Cu1708 1.999 . S
N1709 C1711 1.263 . S
N1709 C1713 1.389 . S
N1710 C1711 1.358 . S
N1710 C1712 1.400 . S
C1711 N1709 1.263 . S
C1711 N1710 1.358 . S
C1711 H1717 0.930 . S
C1712 N1710 1.400 . S
C1712 C1713 1.351 . S
C1712 H1729 0.930 . S
C1713 N1709 1.389 . S
C1713 C1712 1.351 . S
C1713 H1718 0.930 . S
O1714 Cu1708 1.974 . S
O1714 C1724 1.282 . S
C1715 O1716 1.261 . S
C1715 O1728 1.251 . S
O1716 C1715 1.261 . S
H1717 C1711 0.930 . S
H1718 C1713 0.930 . S
N1719 Cu1708 1.985 . S
N1719 C1721 1.335 . S
N1719 C1722 1.390 . S
N1720 C1721 1.345 . S
N1720 C1723 1.336 . S
C1721 N1719 1.335 . S
C1721 N1720 1.345 . S
C1721 H1726 0.930 . S
C1722 N1719 1.390 . S
C1722 C1723 1.346 . S
C1722 H1727 0.930 . S
C1723 N1720 1.336 . S
C1723 C1722 1.346 . S
C1723 H1730 0.929 . S
C1724 O1714 1.282 . S
C1724 O1725 1.216 . S
O1725 C1724 1.216 . S
H1726 C1721 0.930 . S
H1727 C1722 0.930 . S
O1728 Cu1708 1.959 . S
O1728 C1715 1.251 . S
H1729 C1712 0.930 . S
H1730 C1723 0.929 . S
Cu1731 N1732 1.999 . S
Cu1731 O1737 1.974 . S
Cu1731 N1742 1.985 . S
Cu1731 O1751 1.959 . S
N1732 Cu1731 1.999 . S
N1732 C1734 1.263 . S
N1732 C1736 1.389 . S
N1733 C1734 1.358 . S
N1733 C1735 1.400 . S
C1734 N1732 1.263 . S
C1734 N1733 1.358 . S
C1734 H1740 0.930 . S
C1735 N1733 1.400 . S
C1735 C1736 1.351 . S
C1735 H1752 0.930 . S
C1736 N1732 1.389 . S
C1736 C1735 1.351 . S
C1736 H1741 0.930 . S
O1737 Cu1731 1.974 . S
O1737 C1747 1.282 . S
C1738 O1739 1.261 . S
C1738 O1751 1.251 . S
O1739 C1738 1.261 . S
H1740 C1734 0.930 . S
H1741 C1736 0.930 . S
N1742 Cu1731 1.985 . S
N1742 C1744 1.335 . S
N1742 C1745 1.390 . S
N1743 C1744 1.345 . S
N1743 C1746 1.336 . S
C1744 N1742 1.335 . S
C1744 N1743 1.345 . S
C1744 H1749 0.930 . S
C1745 N1742 1.390 . S
C1745 C1746 1.346 . S
C1745 H1750 0.930 . S
C1746 N1743 1.336 . S
C1746 C1745 1.346 . S
C1746 H1753 0.929 . S
C1747 O1737 1.282 . S
C1747 O1748 1.216 . S
O1748 C1747 1.216 . S
H1749 C1744 0.930 . S
H1750 C1745 0.930 . S
O1751 Cu1731 1.959 . S
O1751 C1738 1.251 . S
H1752 C1735 0.930 . S
H1753 C1746 0.929 . S
Cu1754 N1755 1.999 . S
Cu1754 O1760 1.974 . S
Cu1754 N1765 1.985 . S
Cu1754 O1774 1.959 . S
N1755 Cu1754 1.999 . S
N1755 C1757 1.263 . S
N1755 C1759 1.389 . S
N1756 C1757 1.358 . S
N1756 C1758 1.400 . S
C1757 N1755 1.263 . S
C1757 N1756 1.358 . S
C1757 H1763 0.930 . S
C1758 N1756 1.400 . S
C1758 C1759 1.351 . S
C1758 H1775 0.930 . S
C1759 N1755 1.389 . S
C1759 C1758 1.351 . S
C1759 H1764 0.930 . S
O1760 Cu1754 1.974 . S
O1760 C1770 1.282 . S
C1761 O1762 1.261 . S
C1761 O1774 1.251 . S
O1762 C1761 1.261 . S
H1763 C1757 0.930 . S
H1764 C1759 0.930 . S
N1765 Cu1754 1.985 . S
N1765 C1767 1.335 . S
N1765 C1768 1.390 . S
N1766 C1767 1.345 . S
N1766 C1769 1.336 . S
C1767 N1765 1.335 . S
C1767 N1766 1.345 . S
C1767 H1772 0.930 . S
C1768 N1765 1.390 . S
C1768 C1769 1.346 . S
C1768 H1773 0.930 . S
C1769 N1766 1.336 . S
C1769 C1768 1.346 . S
C1769 H1776 0.929 . S
C1770 O1760 1.282 . S
C1770 O1771 1.216 . S
O1771 C1770 1.216 . S
H1772 C1767 0.930 . S
H1773 C1768 0.930 . S
O1774 Cu1754 1.959 . S
O1774 C1761 1.251 . S
H1775 C1758 0.930 . S
H1776 C1769 0.929 . S
Cu1777 N1778 1.999 . S
Cu1777 O1783 1.974 . S
Cu1777 N1788 1.985 . S
Cu1777 O1797 1.959 . S
N1778 Cu1777 1.999 . S
N1778 C1780 1.263 . S
N1778 C1782 1.389 . S
N1779 C1780 1.358 . S
N1779 C1781 1.400 . S
C1780 N1778 1.263 . S
C1780 N1779 1.358 . S
C1780 H1786 0.930 . S
C1781 N1779 1.400 . S
C1781 C1782 1.351 . S
C1781 H1798 0.930 . S
C1782 N1778 1.389 . S
C1782 C1781 1.351 . S
C1782 H1787 0.930 . S
O1783 Cu1777 1.974 . S
O1783 C1793 1.282 . S
C1784 O1785 1.261 . S
C1784 O1797 1.251 . S
O1785 C1784 1.261 . S
H1786 C1780 0.930 . S
H1787 C1782 0.930 . S
N1788 Cu1777 1.985 . S
N1788 C1790 1.335 . S
N1788 C1791 1.390 . S
N1789 C1790 1.345 . S
N1789 C1792 1.336 . S
C1790 N1788 1.335 . S
C1790 N1789 1.345 . S
C1790 H1795 0.930 . S
C1791 N1788 1.390 . S
C1791 C1792 1.346 . S
C1791 H1796 0.930 . S
C1792 N1789 1.336 . S
C1792 C1791 1.346 . S
C1792 H1799 0.929 . S
C1793 O1783 1.282 . S
C1793 O1794 1.216 . S
O1794 C1793 1.216 . S
H1795 C1790 0.930 . S
H1796 C1791 0.930 . S
O1797 Cu1777 1.959 . S
O1797 C1784 1.251 . S
H1798 C1781 0.930 . S
H1799 C1792 0.929 . S
C1800 C1801 1.387 . S
C1800 H1804 0.950 . S
C1800 C1809 1.390 . S
C1801 C1800 1.387 . S
C1801 C1803 1.387 . S
H1802 C1809 0.950 . S
C1803 C1801 1.387 . S
C1803 C1805 1.390 . S
C1803 H1807 0.950 . S
H1804 C1800 0.950 . S
C1805 C1803 1.390 . S
C1805 C1806 1.387 . S
C1805 H1808 0.950 . S
C1806 C1805 1.387 . S
C1806 C1809 1.387 . S
H1807 C1803 0.950 . S
H1808 C1805 0.950 . S
C1809 C1800 1.390 . S
C1809 H1802 0.950 . S
C1809 C1806 1.387 . S
C1810 C1811 1.387 . S
C1810 H1814 0.950 . S
C1810 C1819 1.390 . S
C1811 C1810 1.387 . S
C1811 C1813 1.387 . S
H1812 C1819 0.950 . S
C1813 C1811 1.387 . S
C1813 C1815 1.390 . S
C1813 H1817 0.950 . S
H1814 C1810 0.950 . S
C1815 C1813 1.390 . S
C1815 C1816 1.387 . S
C1815 H1818 0.950 . S
C1816 C1815 1.387 . S
C1816 C1819 1.387 . S
H1817 C1813 0.950 . S
H1818 C1815 0.950 . S
C1819 C1810 1.390 . S
C1819 H1812 0.950 . S
C1819 C1816 1.387 . S
C1820 C1821 1.387 . S
C1820 H1824 0.950 . S
C1820 C1829 1.390 . S
C1821 C1820 1.387 . S
C1821 C1823 1.387 . S
H1822 C1829 0.950 . S
C1823 C1821 1.387 . S
C1823 C1825 1.390 . S
C1823 H1827 0.950 . S
H1824 C1820 0.950 . S
C1825 C1823 1.390 . S
C1825 C1826 1.387 . S
C1825 H1828 0.950 . S
C1826 C1825 1.387 . S
C1826 C1829 1.387 . S
H1827 C1823 0.950 . S
H1828 C1825 0.950 . S
C1829 C1820 1.390 . S
C1829 H1822 0.950 . S
C1829 C1826 1.387 . S
C1830 C1831 1.387 . S
C1830 H1834 0.950 . S
C1830 C1839 1.390 . S
C1831 C1830 1.387 . S
C1831 C1833 1.387 . S
H1832 C1839 0.950 . S
C1833 C1831 1.387 . S
C1833 C1835 1.390 . S
C1833 H1837 0.950 . S
H1834 C1830 0.950 . S
C1835 C1833 1.390 . S
C1835 C1836 1.387 . S
C1835 H1838 0.950 . S
C1836 C1835 1.387 . S
C1836 C1839 1.387 . S
H1837 C1833 0.950 . S
H1838 C1835 0.950 . S
C1839 C1830 1.390 . S
C1839 H1832 0.950 . S
C1839 C1836 1.387 . S
C1840 C1841 1.387 . S
C1840 H1844 0.950 . S
C1840 C1849 1.390 . S
C1841 C1840 1.387 . S
C1841 C1843 1.387 . S
H1842 C1849 0.950 . S
C1843 C1841 1.387 . S
C1843 C1845 1.390 . S
C1843 H1847 0.950 . S
H1844 C1840 0.950 . S
C1845 C1843 1.390 . S
C1845 C1846 1.387 . S
C1845 H1848 0.950 . S
C1846 C1845 1.387 . S
C1846 C1849 1.387 . S
H1847 C1843 0.950 . S
H1848 C1845 0.950 . S
C1849 C1840 1.390 . S
C1849 H1842 0.950 . S
C1849 C1846 1.387 . S
C1850 C1851 1.387 . S
C1850 H1854 0.950 . S
C1850 C1859 1.390 . S
C1851 C1850 1.387 . S
C1851 C1853 1.387 . S
H1852 C1859 0.950 . S
C1853 C1851 1.387 . S
C1853 C1855 1.390 . S
C1853 H1857 0.950 . S
H1854 C1850 0.950 . S
C1855 C1853 1.390 . S
C1855 C1856 1.387 . S
C1855 H1858 0.950 . S
C1856 C1855 1.387 . S
C1856 C1859 1.387 . S
H1857 C1853 0.950 . S
H1858 C1855 0.950 . S
C1859 C1850 1.390 . S
C1859 H1852 0.950 . S
C1859 C1856 1.387 . S
C1860 C1861 1.387 . S
C1860 H1864 0.950 . S
C1860 C1869 1.390 . S
C1861 C1860 1.387 . S
C1861 C1863 1.387 . S
H1862 C1869 0.950 . S
C1863 C1861 1.387 . S
C1863 C1865 1.390 . S
C1863 H1867 0.950 . S
H1864 C1860 0.950 . S
C1865 C1863 1.390 . S
C1865 C1866 1.387 . S
C1865 H1868 0.950 . S
C1866 C1865 1.387 . S
C1866 C1869 1.387 . S
H1867 C1863 0.950 . S
H1868 C1865 0.950 . S
C1869 C1860 1.390 . S
C1869 H1862 0.950 . S
C1869 C1866 1.387 . S
C1870 C1871 1.387 . S
C1870 H1874 0.950 . S
C1870 C1879 1.390 . S
C1871 C1870 1.387 . S
C1871 C1873 1.387 . S
H1872 C1879 0.950 . S
C1873 C1871 1.387 . S
C1873 C1875 1.390 . S
C1873 H1877 0.950 . S
H1874 C1870 0.950 . S
C1875 C1873 1.390 . S
C1875 C1876 1.387 . S
C1875 H1878 0.950 . S
C1876 C1875 1.387 . S
C1876 C1879 1.387 . S
H1877 C1873 0.950 . S
H1878 C1875 0.950 . S
C1879 C1870 1.390 . S
C1879 H1872 0.950 . S
C1879 C1876 1.387 . S
C1880 C1881 1.387 . S
C1880 H1884 0.950 . S
C1880 C1889 1.390 . S
C1881 C1880 1.387 . S
C1881 C1883 1.387 . S
H1882 C1889 0.950 . S
C1883 C1881 1.387 . S
C1883 C1885 1.390 . S
C1883 H1887 0.950 . S
H1884 C1880 0.950 . S
C1885 C1883 1.390 . S
C1885 C1886 1.387 . S
C1885 H1888 0.950 . S
C1886 C1885 1.387 . S
C1886 C1889 1.387 . S
H1887 C1883 0.950 . S
H1888 C1885 0.950 . S
C1889 C1880 1.390 . S
C1889 H1882 0.950 . S
C1889 C1886 1.387 . S
C1890 C1891 1.387 . S
C1890 H1894 0.950 . S
C1890 C1899 1.390 . S
C1891 C1890 1.387 . S
C1891 C1893 1.387 . S
H1892 C1899 0.950 . S
C1893 C1891 1.387 . S
C1893 C1895 1.390 . S
C1893 H1897 0.950 . S
H1894 C1890 0.950 . S
C1895 C1893 1.390 . S
C1895 C1896 1.387 . S
C1895 H1898 0.950 . S
C1896 C1895 1.387 . S
C1896 C1899 1.387 . S
H1897 C1893 0.950 . S
H1898 C1895 0.950 . S
C1899 C1890 1.390 . S
C1899 H1892 0.950 . S
C1899 C1896 1.387 . S
C1900 C1901 1.387 . S
C1900 H1904 0.950 . S
C1900 C1909 1.390 . S
C1901 C1900 1.387 . S
C1901 C1903 1.387 . S
H1902 C1909 0.950 . S
C1903 C1901 1.387 . S
C1903 C1905 1.390 . S
C1903 H1907 0.950 . S
H1904 C1900 0.950 . S
C1905 C1903 1.390 . S
C1905 C1906 1.387 . S
C1905 H1908 0.950 . S
C1906 C1905 1.387 . S
C1906 C1909 1.387 . S
H1907 C1903 0.950 . S
H1908 C1905 0.950 . S
C1909 C1900 1.390 . S
C1909 H1902 0.950 . S
C1909 C1906 1.387 . S
C1910 C1911 1.387 . S
C1910 H1914 0.950 . S
C1910 C1919 1.390 . S
C1911 C1910 1.387 . S
C1911 C1913 1.387 . S
H1912 C1919 0.950 . S
C1913 C1911 1.387 . S
C1913 C1915 1.390 . S
C1913 H1917 0.950 . S
H1914 C1910 0.950 . S
C1915 C1913 1.390 . S
C1915 C1916 1.387 . S
C1915 H1918 0.950 . S
C1916 C1915 1.387 . S
C1916 C1919 1.387 . S
H1917 C1913 0.950 . S
H1918 C1915 0.950 . S
C1919 C1910 1.390 . S
C1919 H1912 0.950 . S
C1919 C1916 1.387 . S
C1920 C1921 1.387 . S
C1920 H1924 0.950 . S
C1920 C1929 1.390 . S
C1921 C1920 1.387 . S
C1921 C1923 1.387 . S
H1922 C1929 0.950 . S
C1923 C1921 1.387 . S
C1923 C1925 1.390 . S
C1923 H1927 0.950 . S
H1924 C1920 0.950 . S
C1925 C1923 1.390 . S
C1925 C1926 1.387 . S
C1925 H1928 0.950 . S
C1926 C1925 1.387 . S
C1926 C1929 1.387 . S
H1927 C1923 0.950 . S
H1928 C1925 0.950 . S
C1929 C1920 1.390 . S
C1929 H1922 0.950 . S
C1929 C1926 1.387 . S
C1930 C1931 1.387 . S
C1930 H1934 0.950 . S
C1930 C1939 1.390 . S
C1931 C1930 1.387 . S
C1931 C1933 1.387 . S
H1932 C1939 0.950 . S
C1933 C1931 1.387 . S
C1933 C1935 1.390 . S
C1933 H1937 0.950 . S
H1934 C1930 0.950 . S
C1935 C1933 1.390 . S
C1935 C1936 1.387 . S
C1935 H1938 0.950 . S
C1936 C1935 1.387 . S
C1936 C1939 1.387 . S
H1937 C1933 0.950 . S
H1938 C1935 0.950 . S
C1939 C1930 1.390 . S
C1939 H1932 0.950 . S
C1939 C1936 1.387 . S
C1940 C1941 1.387 . S
C1940 H1944 0.950 . S
C1940 C1949 1.390 . S
C1941 C1940 1.387 . S
C1941 C1943 1.387 . S
H1942 C1949 0.950 . S
C1943 C1941 1.387 . S
C1943 C1945 1.390 . S
C1943 H1947 0.950 . S
H1944 C1940 0.950 . S
C1945 C1943 1.390 . S
C1945 C1946 1.387 . S
C1945 H1948 0.950 . S
C1946 C1945 1.387 . S
C1946 C1949 1.387 . S
H1947 C1943 0.950 . S
H1948 C1945 0.950 . S
C1949 C1940 1.390 . S
C1949 H1942 0.950 . S
C1949 C1946 1.387 . S
C1950 C1951 1.387 . S
C1950 H1954 0.950 . S
C1950 C1959 1.390 . S
C1951 C1950 1.387 . S
C1951 C1953 1.387 . S
H1952 C1959 0.950 . S
C1953 C1951 1.387 . S
C1953 C1955 1.390 . S
C1953 H1957 0.950 . S
H1954 C1950 0.950 . S
C1955 C1953 1.390 . S
C1955 C1956 1.387 . S
C1955 H1958 0.950 . S
C1956 C1955 1.387 . S
C1956 C1959 1.387 . S
H1957 C1953 0.950 . S
H1958 C1955 0.950 . S
C1959 C1950 1.390 . S
C1959 H1952 0.950 . S
C1959 C1956 1.387 . S
C1960 C1961 1.387 . S
C1960 H1964 0.950 . S
C1960 C1969 1.390 . S
C1961 C1960 1.387 . S
C1961 C1963 1.387 . S
H1962 C1969 0.950 . S
C1963 C1961 1.387 . S
C1963 C1965 1.390 . S
C1963 H1967 0.950 . S
H1964 C1960 0.950 . S
C1965 C1963 1.390 . S
C1965 C1966 1.387 . S
C1965 H1968 0.950 . S
C1966 C1965 1.387 . S
C1966 C1969 1.387 . S
H1967 C1963 0.950 . S
H1968 C1965 0.950 . S
C1969 C1960 1.390 . S
C1969 H1962 0.950 . S
C1969 C1966 1.387 . S
C1970 C1971 1.387 . S
C1970 H1974 0.950 . S
C1970 C1979 1.390 . S
C1971 C1970 1.387 . S
C1971 C1973 1.387 . S
H1972 C1979 0.950 . S
C1973 C1971 1.387 . S
C1973 C1975 1.390 . S
C1973 H1977 0.950 . S
H1974 C1970 0.950 . S
C1975 C1973 1.390 . S
C1975 C1976 1.387 . S
C1975 H1978 0.950 . S
C1976 C1975 1.387 . S
C1976 C1979 1.387 . S
H1977 C1973 0.950 . S
H1978 C1975 0.950 . S
C1979 C1970 1.390 . S
C1979 H1972 0.950 . S
C1979 C1976 1.387 . S
C1980 C1981 1.387 . S
C1980 H1984 0.950 . S
C1980 C1989 1.390 . S
C1981 C1980 1.387 . S
C1981 C1983 1.387 . S
H1982 C1989 0.950 . S
C1983 C1981 1.387 . S
C1983 C1985 1.390 . S
C1983 H1987 0.950 . S
H1984 C1980 0.950 . S
C1985 C1983 1.390 . S
C1985 C1986 1.387 . S
C1985 H1988 0.950 . S
C1986 C1985 1.387 . S
C1986 C1989 1.387 . S
H1987 C1983 0.950 . S
H1988 C1985 0.950 . S
C1989 C1980 1.390 . S
C1989 H1982 0.950 . S
C1989 C1986 1.387 . S
C1990 C1991 1.387 . S
C1990 H1994 0.950 . S
C1990 C1999 1.390 . S
C1991 C1990 1.387 . S
C1991 C1993 1.387 . S
H1992 C1999 0.950 . S
C1993 C1991 1.387 . S
C1993 C1995 1.390 . S
C1993 H1997 0.950 . S
H1994 C1990 0.950 . S
C1995 C1993 1.390 . S
C1995 C1996 1.387 . S
C1995 H1998 0.950 . S
C1996 C1995 1.387 . S
C1996 C1999 1.387 . S
H1997 C1993 0.950 . S
H1998 C1995 0.950 . S
C1999 C1990 1.390 . S
C1999 H1992 0.950 . S
C1999 C1996 1.387 . S
C2000 C2001 1.387 . S
C2000 H2004 0.950 . S
C2000 C2009 1.390 . S
C2001 C2000 1.387 . S
C2001 C2003 1.387 . S
H2002 C2009 0.950 . S
C2003 C2001 1.387 . S
C2003 C2005 1.390 . S
C2003 H2007 0.950 . S
H2004 C2000 0.950 . S
C2005 C2003 1.390 . S
C2005 C2006 1.387 . S
C2005 H2008 0.950 . S
C2006 C2005 1.387 . S
C2006 C2009 1.387 . S
H2007 C2003 0.950 . S
H2008 C2005 0.950 . S
C2009 C2000 1.390 . S
C2009 H2002 0.950 . S
C2009 C2006 1.387 . S
C2010 C2011 1.387 . S
C2010 H2014 0.950 . S
C2010 C2019 1.390 . S
C2011 C2010 1.387 . S
C2011 C2013 1.387 . S
H2012 C2019 0.950 . S
C2013 C2011 1.387 . S
C2013 C2015 1.390 . S
C2013 H2017 0.950 . S
H2014 C2010 0.950 . S
C2015 C2013 1.390 . S
C2015 C2016 1.387 . S
C2015 H2018 0.950 . S
C2016 C2015 1.387 . S
C2016 C2019 1.387 . S
H2017 C2013 0.950 . S
H2018 C2015 0.950 . S
C2019 C2010 1.390 . S
C2019 H2012 0.950 . S
C2019 C2016 1.387 . S
C2020 C2021 1.387 . S
C2020 H2024 0.950 . S
C2020 C2029 1.390 . S
C2021 C2020 1.387 . S
C2021 C2023 1.387 . S
H2022 C2029 0.950 . S
C2023 C2021 1.387 . S
C2023 C2025 1.390 . S
C2023 H2027 0.950 . S
H2024 C2020 0.950 . S
C2025 C2023 1.390 . S
C2025 C2026 1.387 . S
C2025 H2028 0.950 . S
C2026 C2025 1.387 . S
C2026 C2029 1.387 . S
H2027 C2023 0.950 . S
H2028 C2025 0.950 . S
C2029 C2020 1.390 . S
C2029 H2022 0.950 . S
C2029 C2026 1.387 . S
C2030 C2031 1.387 . S
C2030 H2034 0.950 . S
C2030 C2039 1.390 . S
C2031 C2030 1.387 . S
C2031 C2033 1.387 . S
H2032 C2039 0.950 . S
C2033 C2031 1.387 . S
C2033 C2035 1.390 . S
C2033 H2037 0.950 . S
H2034 C2030 0.950 . S
C2035 C2033 1.390 . S
C2035 C2036 1.387 . S
C2035 H2038 0.950 . S
C2036 C2035 1.387 . S
C2036 C2039 1.387 . S
H2037 C2033 0.950 . S
H2038 C2035 0.950 . S
C2039 C2030 1.390 . S
C2039 H2032 0.950 . S
C2039 C2036 1.387 . S
C2040 C2041 1.387 . S
C2040 H2044 0.950 . S
C2040 C2049 1.390 . S
C2041 C2040 1.387 . S
C2041 C2043 1.387 . S
H2042 C2049 0.950 . S
C2043 C2041 1.387 . S
C2043 C2045 1.390 . S
C2043 H2047 0.950 . S
H2044 C2040 0.950 . S
C2045 C2043 1.390 . S
C2045 C2046 1.387 . S
C2045 H2048 0.950 . S
C2046 C2045 1.387 . S
C2046 C2049 1.387 . S
H2047 C2043 0.950 . S
H2048 C2045 0.950 . S
C2049 C2040 1.390 . S
C2049 H2042 0.950 . S
C2049 C2046 1.387 . S
C2050 C2051 1.387 . S
C2050 H2054 0.950 . S
C2050 C2059 1.390 . S
C2051 C2050 1.387 . S
C2051 C2053 1.387 . S
H2052 C2059 0.950 . S
C2053 C2051 1.387 . S
C2053 C2055 1.390 . S
C2053 H2057 0.950 . S
H2054 C2050 0.950 . S
C2055 C2053 1.390 . S
C2055 C2056 1.387 . S
C2055 H2058 0.950 . S
C2056 C2055 1.387 . S
C2056 C2059 1.387 . S
H2057 C2053 0.950 . S
H2058 C2055 0.950 . S
C2059 C2050 1.390 . S
C2059 H2052 0.950 . S
C2059 C2056 1.387 . S
C2060 C2061 1.387 . S
C2060 H2064 0.950 . S
C2060 C2069 1.390 . S
C2061 C2060 1.387 . S
C2061 C2063 1.387 . S
H2062 C2069 0.950 . S
C2063 C2061 1.387 . S
C2063 C2065 1.390 . S
C2063 H2067 0.950 . S
H2064 C2060 0.950 . S
C2065 C2063 1.390 . S
C2065 C2066 1.387 . S
C2065 H2068 0.950 . S
C2066 C2065 1.387 . S
C2066 C2069 1.387 . S
H2067 C2063 0.950 . S
H2068 C2065 0.950 . S
C2069 C2060 1.390 . S
C2069 H2062 0.950 . S
C2069 C2066 1.387 . S
C2070 C2071 1.387 . S
C2070 H2074 0.950 . S
C2070 C2079 1.390 . S
C2071 C2070 1.387 . S
C2071 C2073 1.387 . S
H2072 C2079 0.950 . S
C2073 C2071 1.387 . S
C2073 C2075 1.390 . S
C2073 H2077 0.950 . S
H2074 C2070 0.950 . S
C2075 C2073 1.390 . S
C2075 C2076 1.387 . S
C2075 H2078 0.950 . S
C2076 C2075 1.387 . S
C2076 C2079 1.387 . S
H2077 C2073 0.950 . S
H2078 C2075 0.950 . S
C2079 C2070 1.390 . S
C2079 H2072 0.950 . S
C2079 C2076 1.387 . S
C2080 C2081 1.387 . S
C2080 H2084 0.950 . S
C2080 C2089 1.390 . S
C2081 C2080 1.387 . S
C2081 C2083 1.387 . S
H2082 C2089 0.950 . S
C2083 C2081 1.387 . S
C2083 C2085 1.390 . S
C2083 H2087 0.950 . S
H2084 C2080 0.950 . S
C2085 C2083 1.390 . S
C2085 C2086 1.387 . S
C2085 H2088 0.950 . S
C2086 C2085 1.387 . S
C2086 C2089 1.387 . S
H2087 C2083 0.950 . S
H2088 C2085 0.950 . S
C2089 C2080 1.390 . S
C2089 H2082 0.950 . S
C2089 C2086 1.387 . S
C2090 C2091 1.387 . S
C2090 H2094 0.950 . S
C2090 C2099 1.390 . S
C2091 C2090 1.387 . S
C2091 C2093 1.387 . S
H2092 C2099 0.950 . S
C2093 C2091 1.387 . S
C2093 C2095 1.390 . S
C2093 H2097 0.950 . S
H2094 C2090 0.950 . S
C2095 C2093 1.390 . S
C2095 C2096 1.387 . S
C2095 H2098 0.950 . S
C2096 C2095 1.387 . S
C2096 C2099 1.387 . S
H2097 C2093 0.950 . S
H2098 C2095 0.950 . S
C2099 C2090 1.390 . S
C2099 H2092 0.950 . S
C2099 C2096 1.387 . S
C2100 C2101 1.387 . S
C2100 H2104 0.950 . S
C2100 C2109 1.390 . S
C2101 C2100 1.387 . S
C2101 C2103 1.387 . S
H2102 C2109 0.950 . S
C2103 C2101 1.387 . S
C2103 C2105 1.390 . S
C2103 H2107 0.950 . S
H2104 C2100 0.950 . S
C2105 C2103 1.390 . S
C2105 C2106 1.387 . S
C2105 H2108 0.950 . S
C2106 C2105 1.387 . S
C2106 C2109 1.387 . S
H2107 C2103 0.950 . S
H2108 C2105 0.950 . S
C2109 C2100 1.390 . S
C2109 H2102 0.950 . S
C2109 C2106 1.387 . S
C2110 C2111 1.387 . S
C2110 H2114 0.950 . S
C2110 C2119 1.390 . S
C2111 C2110 1.387 . S
C2111 C2113 1.387 . S
H2112 C2119 0.950 . S
C2113 C2111 1.387 . S
C2113 C2115 1.390 . S
C2113 H2117 0.950 . S
H2114 C2110 0.950 . S
C2115 C2113 1.390 . S
C2115 C2116 1.387 . S
C2115 H2118 0.950 . S
C2116 C2115 1.387 . S
C2116 C2119 1.387 . S
H2117 C2113 0.950 . S
H2118 C2115 0.950 . S
C2119 C2110 1.390 . S
C2119 H2112 0.950 . S
C2119 C2116 1.387 . S
C2120 C2121 1.387 . S
C2120 H2124 0.950 . S
C2120 C2129 1.390 . S
C2121 C2120 1.387 . S
C2121 C2123 1.387 . S
H2122 C2129 0.950 . S
C2123 C2121 1.387 . S
C2123 C2125 1.390 . S
C2123 H2127 0.950 . S
H2124 C2120 0.950 . S
C2125 C2123 1.390 . S
C2125 C2126 1.387 . S
C2125 H2128 0.950 . S
C2126 C2125 1.387 . S
C2126 C2129 1.387 . S
H2127 C2123 0.950 . S
H2128 C2125 0.950 . S
C2129 C2120 1.390 . S
C2129 H2122 0.950 . S
C2129 C2126 1.387 . S
C2130 C2131 1.387 . S
C2130 H2134 0.950 . S
C2130 C2139 1.390 . S
C2131 C2130 1.387 . S
C2131 C2133 1.387 . S
H2132 C2139 0.950 . S
C2133 C2131 1.387 . S
C2133 C2135 1.390 . S
C2133 H2137 0.950 . S
H2134 C2130 0.950 . S
C2135 C2133 1.390 . S
C2135 C2136 1.387 . S
C2135 H2138 0.950 . S
C2136 C2135 1.387 . S
C2136 C2139 1.387 . S
H2137 C2133 0.950 . S
H2138 C2135 0.950 . S
C2139 C2130 1.390 . S
C2139 H2132 0.950 . S
C2139 C2136 1.387 . S
C2140 C2141 1.387 . S
C2140 H2144 0.950 . S
C2140 C2149 1.390 . S
C2141 C2140 1.387 . S
C2141 C2143 1.387 . S
H2142 C2149 0.950 . S
C2143 C2141 1.387 . S
C2143 C2145 1.390 . S
C2143 H2147 0.950 . S
H2144 C2140 0.950 . S
C2145 C2143 1.390 . S
C2145 C2146 1.387 . S
C2145 H2148 0.950 . S
C2146 C2145 1.387 . S
C2146 C2149 1.387 . S
H2147 C2143 0.950 . S
H2148 C2145 0.950 . S
C2149 C2140 1.390 . S
C2149 H2142 0.950 . S
C2149 C2146 1.387 . S
C2150 C2151 1.387 . S
C2150 H2154 0.950 . S
C2150 C2159 1.390 . S
C2151 C2150 1.387 . S
C2151 C2153 1.387 . S
H2152 C2159 0.950 . S
C2153 C2151 1.387 . S
C2153 C2155 1.390 . S
C2153 H2157 0.950 . S
H2154 C2150 0.950 . S
C2155 C2153 1.390 . S
C2155 C2156 1.387 . S
C2155 H2158 0.950 . S
C2156 C2155 1.387 . S
C2156 C2159 1.387 . S
H2157 C2153 0.950 . S
H2158 C2155 0.950 . S
C2159 C2150 1.390 . S
C2159 H2152 0.950 . S
C2159 C2156 1.387 . S
C2160 C2161 1.387 . S
C2160 H2164 0.950 . S
C2160 C2169 1.390 . S
C2161 C2160 1.387 . S
C2161 C2163 1.387 . S
H2162 C2169 0.950 . S
C2163 C2161 1.387 . S
C2163 C2165 1.390 . S
C2163 H2167 0.950 . S
H2164 C2160 0.950 . S
C2165 C2163 1.390 . S
C2165 C2166 1.387 . S
C2165 H2168 0.950 . S
C2166 C2165 1.387 . S
C2166 C2169 1.387 . S
H2167 C2163 0.950 . S
H2168 C2165 0.950 . S
C2169 C2160 1.390 . S
C2169 H2162 0.950 . S
C2169 C2166 1.387 . S
C2170 C2171 1.387 . S
C2170 H2174 0.950 . S
C2170 C2179 1.390 . S
C2171 C2170 1.387 . S
C2171 C2173 1.387 . S
H2172 C2179 0.950 . S
C2173 C2171 1.387 . S
C2173 C2175 1.390 . S
C2173 H2177 0.950 . S
H2174 C2170 0.950 . S
C2175 C2173 1.390 . S
C2175 C2176 1.387 . S
C2175 H2178 0.950 . S
C2176 C2175 1.387 . S
C2176 C2179 1.387 . S
H2177 C2173 0.950 . S
H2178 C2175 0.950 . S
C2179 C2170 1.390 . S
C2179 H2172 0.950 . S
C2179 C2176 1.387 . S
C2180 C2181 1.387 . S
C2180 H2184 0.950 . S
C2180 C2189 1.390 . S
C2181 C2180 1.387 . S
C2181 C2183 1.387 . S
H2182 C2189 0.950 . S
C2183 C2181 1.387 . S
C2183 C2185 1.390 . S
C2183 H2187 0.950 . S
H2184 C2180 0.950 . S
C2185 C2183 1.390 . S
C2185 C2186 1.387 . S
C2185 H2188 0.950 . S
C2186 C2185 1.387 . S
C2186 C2189 1.387 . S
H2187 C2183 0.950 . S
H2188 C2185 0.950 . S
C2189 C2180 1.390 . S
C2189 H2182 0.950 . S
C2189 C2186 1.387 . S
C2190 C2191 1.387 . S
C2190 H2194 0.950 . S
C2190 C2199 1.390 . S
C2191 C2190 1.387 . S
C2191 C2193 1.387 . S
H2192 C2199 0.950 . S
C2193 C2191 1.387 . S
C2193 C2195 1.390 . S
C2193 H2197 0.950 . S
H2194 C2190 0.950 . S
C2195 C2193 1.390 . S
C2195 C2196 1.387 . S
C2195 H2198 0.950 . S
C2196 C2195 1.387 . S
C2196 C2199 1.387 . S
H2197 C2193 0.950 . S
H2198 C2195 0.950 . S
C2199 C2190 1.390 . S
C2199 H2192 0.950 . S
C2199 C2196 1.387 . S
C2200 C2201 1.387 . S
C2200 H2204 0.950 . S
C2200 C2209 1.390 . S
C2201 C2200 1.387 . S
C2201 C2203 1.387 . S
H2202 C2209 0.950 . S
C2203 C2201 1.387 . S
C2203 C2205 1.390 . S
C2203 H2207 0.950 . S
H2204 C2200 0.950 . S
C2205 C2203 1.390 . S
C2205 C2206 1.387 . S
C2205 H2208 0.950 . S
C2206 C2205 1.387 . S
C2206 C2209 1.387 . S
H2207 C2203 0.950 . S
H2208 C2205 0.950 . S
C2209 C2200 1.390 . S
C2209 H2202 0.950 . S
C2209 C2206 1.387 . S
C2210 C2211 1.387 . S
C2210 H2214 0.950 . S
C2210 C2219 1.390 . S
C2211 C2210 1.387 . S
C2211 C2213 1.387 . S
H2212 C2219 0.950 . S
C2213 C2211 1.387 . S
C2213 C2215 1.390 . S
C2213 H2217 0.950 . S
H2214 C2210 0.950 . S
C2215 C2213 1.390 . S
C2215 C2216 1.387 . S
C2215 H2218 0.950 . S
C2216 C2215 1.387 . S
C2216 C2219 1.387 . S
H2217 C2213 0.950 . S
H2218 C2215 0.950 . S
C2219 C2210 1.390 . S
C2219 H2212 0.950 . S
C2219 C2216 1.387 . S
C2220 C2221 1.387 . S
C2220 H2224 0.950 . S
C2220 C2229 1.390 . S
C2221 C2220 1.387 . S
C2221 C2223 1.387 . S
H2222 C2229 0.950 . S
C2223 C2221 1.387 . S
C2223 C2225 1.390 . S
C2223 H2227 0.950 . S
H2224 C2220 0.950 . S
C2225 C2223 1.390 . S
C2225 C2226 1.387 . S
C2225 H2228 0.950 . S
C2226 C2225 1.387 . S
C2226 C2229 1.387 . S
H2227 C2223 0.950 . S
H2228 C2225 0.950 . S
C2229 C2220 1.390 . S
C2229 H2222 0.950 . S
C2229 C2226 1.387 . S
C2230 C2231 1.387 . S
C2230 H2234 0.950 . S
C2230 C2239 1.390 . S
C2231 C2230 1.387 . S
C2231 C2233 1.387 . S
H2232 C2239 0.950 . S
C2233 C2231 1.387 . S
C2233 C2235 1.390 . S
C2233 H2237 0.950 . S
H2234 C2230 0.950 . S
C2235 C2233 1.390 . S
C2235 C2236 1.387 . S
C2235 H2238 0.950 . S
C2236 C2235 1.387 . S
C2236 C2239 1.387 . S
H2237 C2233 0.950 . S
H2238 C2235 0.950 . S
C2239 C2230 1.390 . S
C2239 H2232 0.950 . S
C2239 C2236 1.387 . S
C2240 C2241 1.387 . S
C2240 H2244 0.950 . S
C2240 C2249 1.390 . S
C2241 C2240 1.387 . S
C2241 C2243 1.387 . S
H2242 C2249 0.950 . S
C2243 C2241 1.387 . S
C2243 C2245 1.390 . S
C2243 H2247 0.950 . S
H2244 C2240 0.950 . S
C2245 C2243 1.390 . S
C2245 C2246 1.387 . S
C2245 H2248 0.950 . S
C2246 C2245 1.387 . S
C2246 C2249 1.387 . S
H2247 C2243 0.950 . S
H2248 C2245 0.950 . S
C2249 C2240 1.390 . S
C2249 H2242 0.950 . S
C2249 C2246 1.387 . S
C2250 C2251 1.387 . S
C2250 H2254 0.950 . S
C2250 C2259 1.390 . S
C2251 C2250 1.387 . S
C2251 C2253 1.387 . S
H2252 C2259 0.950 . S
C2253 C2251 1.387 . S
C2253 C2255 1.390 . S
C2253 H2257 0.950 . S
H2254 C2250 0.950 . S
C2255 C2253 1.390 . S
C2255 C2256 1.387 . S
C2255 H2258 0.950 . S
C2256 C2255 1.387 . S
C2256 C2259 1.387 . S
H2257 C2253 0.950 . S
H2258 C2255 0.950 . S
C2259 C2250 1.390 . S
C2259 H2252 0.950 . S
C2259 C2256 1.387 . S
C2260 C2261 1.387 . S
C2260 H2264 0.950 . S
C2260 C2269 1.390 . S
C2261 C2260 1.387 . S
C2261 C2263 1.387 . S
H2262 C2269 0.950 . S
C2263 C2261 1.387 . S
C2263 C2265 1.390 . S
C2263 H2267 0.950 . S
H2264 C2260 0.950 . S
C2265 C2263 1.390 . S
C2265 C2266 1.387 . S
C2265 H2268 0.950 . S
C2266 C2265 1.387 . S
C2266 C2269 1.387 . S
H2267 C2263 0.950 . S
H2268 C2265 0.950 . S
C2269 C2260 1.390 . S
C2269 H2262 0.950 . S
C2269 C2266 1.387 . S
C2270 C2271 1.387 . S
C2270 H2274 0.950 . S
C2270 C2279 1.390 . S
C2271 C2270 1.387 . S
C2271 C2273 1.387 . S
H2272 C2279 0.950 . S
C2273 C2271 1.387 . S
C2273 C2275 1.390 . S
C2273 H2277 0.950 . S
H2274 C2270 0.950 . S
C2275 C2273 1.390 . S
C2275 C2276 1.387 . S
C2275 H2278 0.950 . S
C2276 C2275 1.387 . S
C2276 C2279 1.387 . S
H2277 C2273 0.950 . S
H2278 C2275 0.950 . S
C2279 C2270 1.390 . S
C2279 H2272 0.950 . S
C2279 C2276 1.387 . S
C2280 C2281 1.387 . S
C2280 H2284 0.950 . S
C2280 C2289 1.390 . S
C2281 C2280 1.387 . S
C2281 C2283 1.387 . S
H2282 C2289 0.950 . S
C2283 C2281 1.387 . S
C2283 C2285 1.390 . S
C2283 H2287 0.950 . S
H2284 C2280 0.950 . S
C2285 C2283 1.390 . S
C2285 C2286 1.387 . S
C2285 H2288 0.950 . S
C2286 C2285 1.387 . S
C2286 C2289 1.387 . S
H2287 C2283 0.950 . S
H2288 C2285 0.950 . S
C2289 C2280 1.390 . S
C2289 H2282 0.950 . S
C2289 C2286 1.387 . S
C2290 C2291 1.387 . S
C2290 H2294 0.950 . S
C2290 C2299 1.390 . S
C2291 C2290 1.387 . S
C2291 C2293 1.387 . S
H2292 C2299 0.950 . S
C2293 C2291 1.387 . S
C2293 C2295 1.390 . S
C2293 H2297 0.950 . S
H2294 C2290 0.950 . S
C2295 C2293 1.390 . S
C2295 C2296 1.387 . S
C2295 H2298 0.950 . S
C2296 C2295 1.387 . S
C2296 C2299 1.387 . S
H2297 C2293 0.950 . S
H2298 C2295 0.950 . S
C2299 C2290 1.390 . S
C2299 H2292 0.950 . S
C2299 C2296 1.387 . S
C2300 C2301 1.387 . S
C2300 H2304 0.950 . S
C2300 C2309 1.390 . S
C2301 C2300 1.387 . S
C2301 C2303 1.387 . S
H2302 C2309 0.950 . S
C2303 C2301 1.387 . S
C2303 C2305 1.390 . S
C2303 H2307 0.950 . S
H2304 C2300 0.950 . S
C2305 C2303 1.390 . S
C2305 C2306 1.387 . S
C2305 H2308 0.950 . S
C2306 C2305 1.387 . S
C2306 C2309 1.387 . S
H2307 C2303 0.950 . S
H2308 C2305 0.950 . S
C2309 C2300 1.390 . S
C2309 H2302 0.950 . S
C2309 C2306 1.387 . S
C2310 C2311 1.387 . S
C2310 H2314 0.950 . S
C2310 C2319 1.390 . S
C2311 C2310 1.387 . S
C2311 C2313 1.387 . S
H2312 C2319 0.950 . S
C2313 C2311 1.387 . S
C2313 C2315 1.390 . S
C2313 H2317 0.950 . S
H2314 C2310 0.950 . S
C2315 C2313 1.390 . S
C2315 C2316 1.387 . S
C2315 H2318 0.950 . S
C2316 C2315 1.387 . S
C2316 C2319 1.387 . S
H2317 C2313 0.950 . S
H2318 C2315 0.950 . S
C2319 C2310 1.390 . S
C2319 H2312 0.950 . S
C2319 C2316 1.387 . S
C2320 C2321 1.387 . S
C2320 H2324 0.950 . S
C2320 C2329 1.390 . S
C2321 C2320 1.387 . S
C2321 C2323 1.387 . S
H2322 C2329 0.950 . S
C2323 C2321 1.387 . S
C2323 C2325 1.390 . S
C2323 H2327 0.950 . S
H2324 C2320 0.950 . S
C2325 C2323 1.390 . S
C2325 C2326 1.387 . S
C2325 H2328 0.950 . S
C2326 C2325 1.387 . S
C2326 C2329 1.387 . S
H2327 C2323 0.950 . S
H2328 C2325 0.950 . S
C2329 C2320 1.390 . S
C2329 H2322 0.950 . S
C2329 C2326 1.387 . S
C2330 C2331 1.387 . S
C2330 H2334 0.950 . S
C2330 C2339 1.390 . S
C2331 C2330 1.387 . S
C2331 C2333 1.387 . S
H2332 C2339 0.950 . S
C2333 C2331 1.387 . S
C2333 C2335 1.390 . S
C2333 H2337 0.950 . S
H2334 C2330 0.950 . S
C2335 C2333 1.390 . S
C2335 C2336 1.387 . S
C2335 H2338 0.950 . S
C2336 C2335 1.387 . S
C2336 C2339 1.387 . S
H2337 C2333 0.950 . S
H2338 C2335 0.950 . S
C2339 C2330 1.390 . S
C2339 H2332 0.950 . S
C2339 C2336 1.387 . S
C2340 C2341 1.387 . S
C2340 H2344 0.950 . S
C2340 C2349 1.390 . S
C2341 C2340 1.387 . S
C2341 C2343 1.387 . S
H2342 C2349 0.950 . S
C2343 C2341 1.387 . S
C2343 C2345 1.390 . S
C2343 H2347 0.950 . S
H2344 C2340 0.950 . S
C2345 C2343 1.390 . S
C2345 C2346 1.387 . S
C2345 H2348 0.950 . S
C2346 C2345 1.387 . S
C2346 C2349 1.387 . S
H2347 C2343 0.950 . S
H2348 C2345 0.950 . S
C2349 C2340 1.390 . S
C2349 H2342 0.950 . S
C2349 C2346 1.387 . S
C2350 C2351 1.387 . S
C2350 H2354 0.950 . S
C2350 C2359 1.390 . S
C2351 C2350 1.387 . S
C2351 C2353 1.387 . S
H2352 C2359 0.950 . S
C2353 C2351 1.387 . S
C2353 C2355 1.390 . S
C2353 H2357 0.950 . S
H2354 C2350 0.950 . S
C2355 C2353 1.390 . S
C2355 C2356 1.387 . S
C2355 H2358 0.950 . S
C2356 C2355 1.387 . S
C2356 C2359 1.387 . S
H2357 C2353 0.950 . S
H2358 C2355 0.950 . S
C2359 C2350 1.390 . S
C2359 H2352 0.950 . S
C2359 C2356 1.387 . S
C2360 C2361 1.387 . S
C2360 H2364 0.950 . S
C2360 C2369 1.390 . S
C2361 C2360 1.387 . S
C2361 C2363 1.387 . S
H2362 C2369 0.950 . S
C2363 C2361 1.387 . S
C2363 C2365 1.390 . S
C2363 H2367 0.950 . S
H2364 C2360 0.950 . S
C2365 C2363 1.390 . S
C2365 C2366 1.387 . S
C2365 H2368 0.950 . S
C2366 C2365 1.387 . S
C2366 C2369 1.387 . S
H2367 C2363 0.950 . S
H2368 C2365 0.950 . S
C2369 C2360 1.390 . S
C2369 H2362 0.950 . S
C2369 C2366 1.387 . S
C2370 C2371 1.387 . S
C2370 H2374 0.950 . S
C2370 C2379 1.390 . S
C2371 C2370 1.387 . S
C2371 C2373 1.387 . S
H2372 C2379 0.950 . S
C2373 C2371 1.387 . S
C2373 C2375 1.390 . S
C2373 H2377 0.950 . S
H2374 C2370 0.950 . S
C2375 C2373 1.390 . S
C2375 C2376 1.387 . S
C2375 H2378 0.950 . S
C2376 C2375 1.387 . S
C2376 C2379 1.387 . S
H2377 C2373 0.950 . S
H2378 C2375 0.950 . S
C2379 C2370 1.390 . S
C2379 H2372 0.950 . S
C2379 C2376 1.387 . S
C2380 C2381 1.387 . S
C2380 H2384 0.950 . S
C2380 C2389 1.390 . S
C2381 C2380 1.387 . S
C2381 C2383 1.387 . S
H2382 C2389 0.950 . S
C2383 C2381 1.387 . S
C2383 C2385 1.390 . S
C2383 H2387 0.950 . S
H2384 C2380 0.950 . S
C2385 C2383 1.390 . S
C2385 C2386 1.387 . S
C2385 H2388 0.950 . S
C2386 C2385 1.387 . S
C2386 C2389 1.387 . S
H2387 C2383 0.950 . S
H2388 C2385 0.950 . S
C2389 C2380 1.390 . S
C2389 H2382 0.950 . S
C2389 C2386 1.387 . S
C2390 C2391 1.387 . S
C2390 H2394 0.950 . S
C2390 C2399 1.390 . S
C2391 C2390 1.387 . S
C2391 C2393 1.387 . S
H2392 C2399 0.950 . S
C2393 C2391 1.387 . S
C2393 C2395 1.390 . S
C2393 H2397 0.950 . S
H2394 C2390 0.950 . S
C2395 C2393 1.390 . S
C2395 C2396 1.387 . S
C2395 H2398 0.950 . S
C2396 C2395 1.387 . S
C2396 C2399 1.387 . S
H2397 C2393 0.950 . S
H2398 C2395 0.950 . S
C2399 C2390 1.390 . S
C2399 H2392 0.950 . S
C2399 C2396 1.387 . S
C2400 C2401 1.387 . S
C2400 H2404 0.950 . S
C2400 C2409 1.390 . S
C2401 C2400 1.387 . S
C2401 C2403 1.387 . S
H2402 C2409 0.950 . S
C2403 C2401 1.387 . S
C2403 C2405 1.390 . S
C2403 H2407 0.950 . S
H2404 C2400 0.950 . S
C2405 C2403 1.390 . S
C2405 C2406 1.387 . S
C2405 H2408 0.950 . S
C2406 C2405 1.387 . S
C2406 C2409 1.387 . S
H2407 C2403 0.950 . S
H2408 C2405 0.950 . S
C2409 C2400 1.390 . S
C2409 H2402 0.950 . S
C2409 C2406 1.387 . S
C2410 C2411 1.387 . S
C2410 H2414 0.950 . S
C2410 C2419 1.390 . S
C2411 C2410 1.387 . S
C2411 C2413 1.387 . S
H2412 C2419 0.950 . S
C2413 C2411 1.387 . S
C2413 C2415 1.390 . S
C2413 H2417 0.950 . S
H2414 C2410 0.950 . S
C2415 C2413 1.390 . S
C2415 C2416 1.387 . S
C2415 H2418 0.950 . S
C2416 C2415 1.387 . S
C2416 C2419 1.387 . S
H2417 C2413 0.950 . S
H2418 C2415 0.950 . S
C2419 C2410 1.390 . S
C2419 H2412 0.950 . S
C2419 C2416 1.387 . S
C2420 C2421 1.387 . S
C2420 H2424 0.950 . S
C2420 C2429 1.390 . S
C2421 C2420 1.387 . S
C2421 C2423 1.387 . S
H2422 C2429 0.950 . S
C2423 C2421 1.387 . S
C2423 C2425 1.390 . S
C2423 H2427 0.950 . S
H2424 C2420 0.950 . S
C2425 C2423 1.390 . S
C2425 C2426 1.387 . S
C2425 H2428 0.950 . S
C2426 C2425 1.387 . S
C2426 C2429 1.387 . S
H2427 C2423 0.950 . S
H2428 C2425 0.950 . S
C2429 C2420 1.390 . S
C2429 H2422 0.950 . S
C2429 C2426 1.387 . S
C2430 C2431 1.387 . S
C2430 H2434 0.950 . S
C2430 C2439 1.390 . S
C2431 C2430 1.387 . S
C2431 C2433 1.387 . S
H2432 C2439 0.950 . S
C2433 C2431 1.387 . S
C2433 C2435 1.390 . S
C2433 H2437 0.950 . S
H2434 C2430 0.950 . S
C2435 C2433 1.390 . S
C2435 C2436 1.387 . S
C2435 H2438 0.950 . S
C2436 C2435 1.387 . S
C2436 C2439 1.387 . S
H2437 C2433 0.950 . S
H2438 C2435 0.950 . S
C2439 C2430 1.390 . S
C2439 H2432 0.950 . S
C2439 C2436 1.387 . S
C2440 C2441 1.387 . S
C2440 H2444 0.950 . S
C2440 C2449 1.390 . S
C2441 C2440 1.387 . S
C2441 C2443 1.387 . S
H2442 C2449 0.950 . S
C2443 C2441 1.387 . S
C2443 C2445 1.390 . S
C2443 H2447 0.950 . S
H2444 C2440 0.950 . S
C2445 C2443 1.390 . S
C2445 C2446 1.387 . S
C2445 H2448 0.950 . S
C2446 C2445 1.387 . S
C2446 C2449 1.387 . S
H2447 C2443 0.950 . S
H2448 C2445 0.950 . S
C2449 C2440 1.390 . S
C2449 H2442 0.950 . S
C2449 C2446 1.387 . S
C2450 C2451 1.387 . S
C2450 H2454 0.950 . S
C2450 C2459 1.390 . S
C2451 C2450 1.387 . S
C2451 C2453 1.387 . S
H2452 C2459 0.950 . S
C2453 C2451 1.387 . S
C2453 C2455 1.390 . S
C2453 H2457 0.950 . S
H2454 C2450 0.950 . S
C2455 C2453 1.390 . S
C2455 C2456 1.387 . S
C2455 H2458 0.950 . S
C2456 C2455 1.387 . S
C2456 C2459 1.387 . S
H2457 C2453 0.950 . S
H2458 C2455 0.950 . S
C2459 C2450 1.390 . S
C2459 H2452 0.950 . S
C2459 C2456 1.387 . S
C2460 C2461 1.387 . S
C2460 H2464 0.950 . S
C2460 C2469 1.390 . S
C2461 C2460 1.387 . S
C2461 C2463 1.387 . S
H2462 C2469 0.950 . S
C2463 C2461 1.387 . S
C2463 C2465 1.390 . S
C2463 H2467 0.950 . S
H2464 C2460 0.950 . S
C2465 C2463 1.390 . S
C2465 C2466 1.387 . S
C2465 H2468 0.950 . S
C2466 C2465 1.387 . S
C2466 C2469 1.387 . S
H2467 C2463 0.950 . S
H2468 C2465 0.950 . S
C2469 C2460 1.390 . S
C2469 H2462 0.950 . S
C2469 C2466 1.387 . S
C2470 C2471 1.387 . S
C2470 H2474 0.950 . S
C2470 C2479 1.390 . S
C2471 C2470 1.387 . S
C2471 C2473 1.387 . S
H2472 C2479 0.950 . S
C2473 C2471 1.387 . S
C2473 C2475 1.390 . S
C2473 H2477 0.950 . S
H2474 C2470 0.950 . S
C2475 C2473 1.390 . S
C2475 C2476 1.387 . S
C2475 H2478 0.950 . S
C2476 C2475 1.387 . S
C2476 C2479 1.387 . S
H2477 C2473 0.950 . S
H2478 C2475 0.950 . S
C2479 C2470 1.390 . S
C2479 H2472 0.950 . S
C2479 C2476 1.387 . S
C2480 C2481 1.387 . S
C2480 H2484 0.950 . S
C2480 C2489 1.390 . S
C2481 C2480 1.387 . S
C2481 C2483 1.387 . S
H2482 C2489 0.950 . S
C2483 C2481 1.387 . S
C2483 C2485 1.390 . S
C2483 H2487 0.950 . S
H2484 C2480 0.950 . S
C2485 C2483 1.390 . S
C2485 C2486 1.387 . S
C2485 H2488 0.950 . S
C2486 C2485 1.387 . S
C2486 C2489 1.387 . S
H2487 C2483 0.950 . S
H2488 C2485 0.950 . S
C2489 C2480 1.390 . S
C2489 H2482 0.950 . S
C2489 C2486 1.387 . S
C2490 C2491 1.387 . S
C2490 H2494 0.950 . S
C2490 C2499 1.390 . S
C2491 C2490 1.387 . S
C2491 C2493 1.387 . S
H2492 C2499 0.950 . S
C2493 C2491 1.387 . S
C2493 C2495 1.390 . S
C2493 H2497 0.950 . S
H2494 C2490 0.950 . S
C2495 C2493 1.390 . S
C2495 C2496 1.387 . S
C2495 H2498 0.950 . S
C2496 C2495 1.387 . S
C2496 C2499 1.387 . S
H2497 C2493 0.950 . S
H2498 C2495 0.950 . S
C2499 C2490 1.390 . S
C2499 H2492 0.950 . S
C2499 C2496 1.387 . S
C2500 C2501 1.387 . S
C2500 H2504 0.950 . S
C2500 C2509 1.390 . S
C2501 C2500 1.387 . S
C2501 C2503 1.387 . S
H2502 C2509 0.950 . S
C2503 C2501 1.387 . S
C2503 C2505 1.390 . S
C2503 H2507 0.950 . S
H2504 C2500 0.950 . S
C2505 C2503 1.390 . S
C2505 C2506 1.387 . S
C2505 H2508 0.950 . S
C2506 C2505 1.387 . S
C2506 C2509 1.387 . S
H2507 C2503 0.950 . S
H2508 C2505 0.950 . S
C2509 C2500 1.390 . S
C2509 H2502 0.950 . S
C2509 C2506 1.387 . S
C2510 C2511 1.387 . S
C2510 H2514 0.950 . S
C2510 C2519 1.390 . S
C2511 C2510 1.387 . S
C2511 C2513 1.387 . S
H2512 C2519 0.950 . S
C2513 C2511 1.387 . S
C2513 C2515 1.390 . S
C2513 H2517 0.950 . S
H2514 C2510 0.950 . S
C2515 C2513 1.390 . S
C2515 C2516 1.387 . S
C2515 H2518 0.950 . S
C2516 C2515 1.387 . S
C2516 C2519 1.387 . S
H2517 C2513 0.950 . S
H2518 C2515 0.950 . S
C2519 C2510 1.390 . S
C2519 H2512 0.950 . S
C2519 C2516 1.387 . S
C2520 C2521 1.387 . S
C2520 H2524 0.950 . S
C2520 C2529 1.390 . S
C2521 C2520 1.387 . S
C2521 C2523 1.387 . S
H2522 C2529 0.950 . S
C2523 C2521 1.387 . S
C2523 C2525 1.390 . S
C2523 H2527 0.950 . S
H2524 C2520 0.950 . S
C2525 C2523 1.390 . S
C2525 C2526 1.387 . S
C2525 H2528 0.950 . S
C2526 C2525 1.387 . S
C2526 C2529 1.387 . S
H2527 C2523 0.950 . S
H2528 C2525 0.950 . S
C2529 C2520 1.390 . S
C2529 H2522 0.950 . S
C2529 C2526 1.387 . S
C2530 C2531 1.387 . S
C2530 H2534 0.950 . S
C2530 C2539 1.390 . S
C2531 C2530 1.387 . S
C2531 C2533 1.387 . S
H2532 C2539 0.950 . S
C2533 C2531 1.387 . S
C2533 C2535 1.390 . S
C2533 H2537 0.950 . S
H2534 C2530 0.950 . S
C2535 C2533 1.390 . S
C2535 C2536 1.387 . S
C2535 H2538 0.950 . S
C2536 C2535 1.387 . S
C2536 C2539 1.387 . S
H2537 C2533 0.950 . S
H2538 C2535 0.950 . S
C2539 C2530 1.390 . S
C2539 H2532 0.950 . S
C2539 C2536 1.387 . S
C2540 C2541 1.387 . S
C2540 H2544 0.950 . S
C2540 C2549 1.390 . S
C2541 C2540 1.387 . S
C2541 C2543 1.387 . S
H2542 C2549 0.950 . S
C2543 C2541 1.387 . S
C2543 C2545 1.390 . S
C2543 H2547 0.950 . S
H2544 C2540 0.950 . S
C2545 C2543 1.390 . S
C2545 C2546 1.387 . S
C2545 H2548 0.950 . S
C2546 C2545 1.387 . S
C2546 C2549 1.387 . S
H2547 C2543 0.950 . S
H2548 C2545 0.950 . S
C2549 C2540 1.390 . S
C2549 H2542 0.950 . S
C2549 C2546 1.387 . S
C2550 C2551 1.387 . S
C2550 H2554 0.950 . S
C2550 C2559 1.390 . S
C2551 C2550 1.387 . S
C2551 C2553 1.387 . S
H2552 C2559 0.950 . S
C2553 C2551 1.387 . S
C2553 C2555 1.390 . S
C2553 H2557 0.950 . S
H2554 C2550 0.950 . S
C2555 C2553 1.390 . S
C2555 C2556 1.387 . S
C2555 H2558 0.950 . S
C2556 C2555 1.387 . S
C2556 C2559 1.387 . S
H2557 C2553 0.950 . S
H2558 C2555 0.950 . S
C2559 C2550 1.390 . S
C2559 H2552 0.950 . S
C2559 C2556 1.387 . S
C2560 C2561 1.387 . S
C2560 H2564 0.950 . S
C2560 C2569 1.390 . S
C2561 C2560 1.387 . S
C2561 C2563 1.387 . S
H2562 C2569 0.950 . S
C2563 C2561 1.387 . S
C2563 C2565 1.390 . S
C2563 H2567 0.950 . S
H2564 C2560 0.950 . S
C2565 C2563 1.390 . S
C2565 C2566 1.387 . S
C2565 H2568 0.950 . S
C2566 C2565 1.387 . S
C2566 C2569 1.387 . S
H2567 C2563 0.950 . S
H2568 C2565 0.950 . S
C2569 C2560 1.390 . S
C2569 H2562 0.950 . S
C2569 C2566 1.387 . S
C2570 C2571 1.387 . S
C2570 H2574 0.950 . S
C2570 C2579 1.390 . S
C2571 C2570 1.387 . S
C2571 C2573 1.387 . S
H2572 C2579 0.950 . S
C2573 C2571 1.387 . S
C2573 C2575 1.390 . S
C2573 H2577 0.950 . S
H2574 C2570 0.950 . S
C2575 C2573 1.390 . S
C2575 C2576 1.387 . S
C2575 H2578 0.950 . S
C2576 C2575 1.387 . S
C2576 C2579 1.387 . S
H2577 C2573 0.950 . S
H2578 C2575 0.950 . S
C2579 C2570 1.390 . S
C2579 H2572 0.950 . S
C2579 C2576 1.387 . S
C2580 C2581 1.387 . S
C2580 H2584 0.950 . S
C2580 C2589 1.390 . S
C2581 C2580 1.387 . S
C2581 C2583 1.387 . S
H2582 C2589 0.950 . S
C2583 C2581 1.387 . S
C2583 C2585 1.390 . S
C2583 H2587 0.950 . S
H2584 C2580 0.950 . S
C2585 C2583 1.390 . S
C2585 C2586 1.387 . S
C2585 H2588 0.950 . S
C2586 C2585 1.387 . S
C2586 C2589 1.387 . S
H2587 C2583 0.950 . S
H2588 C2585 0.950 . S
C2589 C2580 1.390 . S
C2589 H2582 0.950 . S
C2589 C2586 1.387 . S
C2590 C2591 1.387 . S
C2590 H2594 0.950 . S
C2590 C2599 1.390 . S
C2591 C2590 1.387 . S
C2591 C2593 1.387 . S
H2592 C2599 0.950 . S
C2593 C2591 1.387 . S
C2593 C2595 1.390 . S
C2593 H2597 0.950 . S
H2594 C2590 0.950 . S
C2595 C2593 1.390 . S
C2595 C2596 1.387 . S
C2595 H2598 0.950 . S
C2596 C2595 1.387 . S
C2596 C2599 1.387 . S
H2597 C2593 0.950 . S
H2598 C2595 0.950 . S
C2599 C2590 1.390 . S
C2599 H2592 0.950 . S
C2599 C2596 1.387 . S
C2600 C2601 1.387 . S
C2600 H2604 0.950 . S
C2600 C2609 1.390 . S
C2601 C2600 1.387 . S
C2601 C2603 1.387 . S
H2602 C2609 0.950 . S
C2603 C2601 1.387 . S
C2603 C2605 1.390 . S
C2603 H2607 0.950 . S
H2604 C2600 0.950 . S
C2605 C2603 1.390 . S
C2605 C2606 1.387 . S
C2605 H2608 0.950 . S
C2606 C2605 1.387 . S
C2606 C2609 1.387 . S
H2607 C2603 0.950 . S
H2608 C2605 0.950 . S
C2609 C2600 1.390 . S
C2609 H2602 0.950 . S
C2609 C2606 1.387 . S
C2610 C2611 1.387 . S
C2610 H2614 0.950 . S
C2610 C2619 1.390 . S
C2611 C2610 1.387 . S
C2611 C2613 1.387 . S
H2612 C2619 0.950 . S
C2613 C2611 1.387 . S
C2613 C2615 1.390 . S
C2613 H2617 0.950 . S
H2614 C2610 0.950 . S
C2615 C2613 1.390 . S
C2615 C2616 1.387 . S
C2615 H2618 0.950 . S
C2616 C2615 1.387 . S
C2616 C2619 1.387 . S
H2617 C2613 0.950 . S
H2618 C2615 0.950 . S
C2619 C2610 1.390 . S
C2619 H2612 0.950 . S
C2619 C2616 1.387 . S
C2620 C2621 1.387 . S
C2620 H2624 0.950 . S
C2620 C2629 1.390 . S
C2621 C2620 1.387 . S
C2621 C2623 1.387 . S
H2622 C2629 0.950 . S
C2623 C2621 1.387 . S
C2623 C2625 1.390 . S
C2623 H2627 0.950 . S
H2624 C2620 0.950 . S
C2625 C2623 1.390 . S
C2625 C2626 1.387 . S
C2625 H2628 0.950 . S
C2626 C2625 1.387 . S
C2626 C2629 1.387 . S
H2627 C2623 0.950 . S
H2628 C2625 0.950 . S
C2629 C2620 1.390 . S
C2629 H2622 0.950 . S
C2629 C2626 1.387 . S
C2630 C2631 1.387 . S
C2630 H2634 0.950 . S
C2630 C2639 1.390 . S
C2631 C2630 1.387 . S
C2631 C2633 1.387 . S
H2632 C2639 0.950 . S
C2633 C2631 1.387 . S
C2633 C2635 1.390 . S
C2633 H2637 0.950 . S
H2634 C2630 0.950 . S
C2635 C2633 1.390 . S
C2635 C2636 1.387 . S
C2635 H2638 0.950 . S
C2636 C2635 1.387 . S
C2636 C2639 1.387 . S
H2637 C2633 0.950 . S
H2638 C2635 0.950 . S
C2639 C2630 1.390 . S
C2639 H2632 0.950 . S
C2639 C2636 1.387 . S
C2640 C2641 1.387 . S
C2640 H2644 0.950 . S
C2640 C2649 1.390 . S
C2641 C2640 1.387 . S
C2641 C2643 1.387 . S
H2642 C2649 0.950 . S
C2643 C2641 1.387 . S
C2643 C2645 1.390 . S
C2643 H2647 0.950 . S
H2644 C2640 0.950 . S
C2645 C2643 1.390 . S
C2645 C2646 1.387 . S
C2645 H2648 0.950 . S
C2646 C2645 1.387 . S
C2646 C2649 1.387 . S
H2647 C2643 0.950 . S
H2648 C2645 0.950 . S
C2649 C2640 1.390 . S
C2649 H2642 0.950 . S
C2649 C2646 1.387 . S
C2650 C2651 1.387 . S
C2650 H2654 0.950 . S
C2650 C2659 1.390 . S
C2651 C2650 1.387 . S
C2651 C2653 1.387 . S
H2652 C2659 0.950 . S
C2653 C2651 1.387 . S
C2653 C2655 1.390 . S
C2653 H2657 0.950 . S
H2654 C2650 0.950 . S
C2655 C2653 1.390 . S
C2655 C2656 1.387 . S
C2655 H2658 0.950 . S
C2656 C2655 1.387 . S
C2656 C2659 1.387 . S
H2657 C2653 0.950 . S
H2658 C2655 0.950 . S
C2659 C2650 1.390 . S
C2659 H2652 0.950 . S
C2659 C2656 1.387 . S
C2660 C2661 1.387 . S
C2660 H2664 0.950 . S
C2660 C2669 1.390 . S
C2661 C2660 1.387 . S
C2661 C2663 1.387 . S
H2662 C2669 0.950 . S
C2663 C2661 1.387 . S
C2663 C2665 1.390 . S
C2663 H2667 0.950 . S
H2664 C2660 0.950 . S
C2665 C2663 1.390 . S
C2665 C2666 1.387 . S
C2665 H2668 0.950 . S
C2666 C2665 1.387 . S
C2666 C2669 1.387 . S
H2667 C2663 0.950 . S
H2668 C2665 0.950 . S
C2669 C2660 1.390 . S
C2669 H2662 0.950 . S
C2669 C2666 1.387 . S
C2670 C2671 1.387 . S
C2670 H2674 0.950 . S
C2670 C2679 1.390 . S
C2671 C2670 1.387 . S
C2671 C2673 1.387 . S
H2672 C2679 0.950 . S
C2673 C2671 1.387 . S
C2673 C2675 1.390 . S
C2673 H2677 0.950 . S
H2674 C2670 0.950 . S
C2675 C2673 1.390 . S
C2675 C2676 1.387 . S
C2675 H2678 0.950 . S
C2676 C2675 1.387 . S
C2676 C2679 1.387 . S
H2677 C2673 0.950 . S
H2678 C2675 0.950 . S
C2679 C2670 1.390 . S
C2679 H2672 0.950 . S
C2679 C2676 1.387 . S
C2680 C2681 1.387 . S
C2680 H2684 0.950 . S
C2680 C2689 1.390 . S
C2681 C2680 1.387 . S
C2681 C2683 1.387 . S
H2682 C2689 0.950 . S
C2683 C2681 1.387 . S
C2683 C2685 1.390 . S
C2683 H2687 0.950 . S
H2684 C2680 0.950 . S
C2685 C2683 1.390 . S
C2685 C2686 1.387 . S
C2685 H2688 0.950 . S
C2686 C2685 1.387 . S
C2686 C2689 1.387 . S
H2687 C2683 0.950 . S
H2688 C2685 0.950 . S
C2689 C2680 1.390 . S
C2689 H2682 0.950 . S
C2689 C2686 1.387 . S
C2690 C2691 1.387 . S
C2690 H2694 0.950 . S
C2690 C2699 1.390 . S
C2691 C2690 1.387 . S
C2691 C2693 1.387 . S
H2692 C2699 0.950 . S
C2693 C2691 1.387 . S
C2693 C2695 1.390 . S
C2693 H2697 0.950 . S
H2694 C2690 0.950 . S
C2695 C2693 1.390 . S
C2695 C2696 1.387 . S
C2695 H2698 0.950 . S
C2696 C2695 1.387 . S
C2696 C2699 1.387 . S
H2697 C2693 0.950 . S
H2698 C2695 0.950 . S
C2699 C2690 1.390 . S
C2699 H2692 0.950 . S
C2699 C2696 1.387 . S
C2700 C2701 1.387 . S
C2700 H2704 0.950 . S
C2700 C2709 1.390 . S
C2701 C2700 1.387 . S
C2701 C2703 1.387 . S
H2702 C2709 0.950 . S
C2703 C2701 1.387 . S
C2703 C2705 1.390 . S
C2703 H2707 0.950 . S
H2704 C2700 0.950 . S
C2705 C2703 1.390 . S
C2705 C2706 1.387 . S
C2705 H2708 0.950 . S
C2706 C2705 1.387 . S
C2706 C2709 1.387 . S
H2707 C2703 0.950 . S
H2708 C2705 0.950 . S
C2709 C2700 1.390 . S
C2709 H2702 0.950 . S
C2709 C2706 1.387 . S
C2710 C2711 1.387 . S
C2710 H2714 0.950 . S
C2710 C2719 1.390 . S
C2711 C2710 1.387 . S
C2711 C2713 1.387 . S
H2712 C2719 0.950 . S
C2713 C2711 1.387 . S
C2713 C2715 1.390 . S
C2713 H2717 0.950 . S
H2714 C2710 0.950 . S
C2715 C2713 1.390 . S
C2715 C2716 1.387 . S
C2715 H2718 0.950 . S
C2716 C2715 1.387 . S
C2716 C2719 1.387 . S
H2717 C2713 0.950 . S
H2718 C2715 0.950 . S
C2719 C2710 1.390 . S
C2719 H2712 0.950 . S
C2719 C2716 1.387 . S
C2720 C2721 1.387 . S
C2720 H2724 0.950 . S
C2720 C2729 1.390 . S
C2721 C2720 1.387 . S
C2721 C2723 1.387 . S
H2722 C2729 0.950 . S
C2723 C2721 1.387 . S
C2723 C2725 1.390 . S
C2723 H2727 0.950 . S
H2724 C2720 0.950 . S
C2725 C2723 1.390 . S
C2725 C2726 1.387 . S
C2725 H2728 0.950 . S
C2726 C2725 1.387 . S
C2726 C2729 1.387 . S
H2727 C2723 0.950 . S
H2728 C2725 0.950 . S
C2729 C2720 1.390 . S
C2729 H2722 0.950 . S
C2729 C2726 1.387 . S
C2730 C2731 1.387 . S
C2730 H2734 0.950 . S
C2730 C2739 1.390 . S
C2731 C2730 1.387 . S
C2731 C2733 1.387 . S
H2732 C2739 0.950 . S
C2733 C2731 1.387 . S
C2733 C2735 1.390 . S
C2733 H2737 0.950 . S
H2734 C2730 0.950 . S
C2735 C2733 1.390 . S
C2735 C2736 1.387 . S
C2735 H2738 0.950 . S
C2736 C2735 1.387 . S
C2736 C2739 1.387 . S
H2737 C2733 0.950 . S
H2738 C2735 0.950 . S
C2739 C2730 1.390 . S
C2739 H2732 0.950 . S
C2739 C2736 1.387 . S
C2740 C2741 1.387 . S
C2740 H2744 0.950 . S
C2740 C2749 1.390 . S
C2741 C2740 1.387 . S
C2741 C2743 1.387 . S
H2742 C2749 0.950 . S
C2743 C2741 1.387 . S
C2743 C2745 1.390 . S
C2743 H2747 0.950 . S
H2744 C2740 0.950 . S
C2745 C2743 1.390 . S
C2745 C2746 1.387 . S
C2745 H2748 0.950 . S
C2746 C2745 1.387 . S
C2746 C2749 1.387 . S
H2747 C2743 0.950 . S
H2748 C2745 0.950 . S
C2749 C2740 1.390 . S
C2749 H2742 0.950 . S
C2749 C2746 1.387 . S
C2750 C2751 1.387 . S
C2750 H2754 0.950 . S
C2750 C2759 1.390 . S
C2751 C2750 1.387 . S
C2751 C2753 1.387 . S
H2752 C2759 0.950 . S
C2753 C2751 1.387 . S
C2753 C2755 1.390 . S
C2753 H2757 0.950 . S
H2754 C2750 0.950 . S
C2755 C2753 1.390 . S
C2755 C2756 1.387 . S
C2755 H2758 0.950 . S
C2756 C2755 1.387 . S
C2756 C2759 1.387 . S
H2757 C2753 0.950 . S
H2758 C2755 0.950 . S
C2759 C2750 1.390 . S
C2759 H2752 0.950 . S
C2759 C2756 1.387 . S
C1806 N1260 1.474 . S
C1801 C1 1.531 . S
C1816 C1287 1.607 . S
C1811 C60 1.608 . S
C1821 C79 1.517 . S
C1826 C1301 1.512 . S
C1836 N1319 1.437 . S
C1831 C118 1.477 . S
C1841 C177 1.591 . S
C1846 C1324 1.590 . S
C1851 C196 1.520 . S
C1856 C1264 1.526 . S
C1861 C250 1.424 . S
C1866 N1283 1.380 . S
C1876 N1296 1.474 . S
C1871 C274 1.516 . S
C1886 N1342 1.421 . S
C1881 C16 1.460 . S
C1891 C55 1.559 . S
C1896 N1365 1.534 . S
C1901 C99 1.585 . S
C1906 N1388 1.575 . S
C1916 N1421 1.403 . S
C1911 C133 1.454 . S
C1921 C157 1.572 . S
C1926 C1448 1.557 . S
C1936 C1471 1.572 . S
C1931 C211 1.576 . S
C1941 C255 1.479 . S
C1946 C1494 1.481 . S
C1956 C1508 1.452 . S
C1951 C294 1.450 . S
C1961 C21 1.469 . S
C1966 C1425 1.468 . S
C1971 C172 1.509 . S
C1976 N1467 1.470 . S
C1986 N1490 1.435 . S
C1981 C216 1.480 . S
C1991 C235 1.473 . S
C1996 N1503 1.435 . S
C2006 N1444 1.423 . S
C2001 C289 1.478 . S
C2016 C1370 1.666 . S
C2011 C94 1.670 . S
C2021 C138 1.486 . S
C2026 C1393 1.481 . S
C2036 C1347 1.623 . S
C2031 C40 1.628 . S
C2046 C1540 1.486 . S
C2041 C313 1.489 . S
C2051 C372 1.612 . S
C2056 C1554 1.614 . S
C2061 C391 1.510 . S
C2066 N1582 1.459 . S
C2076 N1595 1.425 . S
C2071 C430 1.462 . S
C2081 C489 1.603 . S
C2086 C1600 1.604 . S
C2091 C508 1.520 . S
C2096 N1536 1.467 . S
C2101 C562 1.512 . S
C2106 N1549 1.486 . S
C2111 C586 1.481 . S
C2116 C1586 1.474 . S
C2126 N1434 1.426 . S
C2121 C328 1.460 . S
C2131 C367 1.532 . S
C2136 N1618 1.486 . S
C2146 N1480 1.456 . S
C2141 C411 1.482 . S
C2151 C445 1.507 . S
C2156 C1655 1.510 . S
C2161 C469 1.608 . S
C2166 C1356 1.604 . S
C2176 C1669 1.599 . S
C2171 C523 1.601 . S
C2181 C567 1.514 . S
C2186 C1402 1.504 . S
C2196 N1687 1.405 . S
C2191 C606 1.443 . S
C2201 C333 1.481 . S
C2206 N1651 1.432 . S
C2216 N1664 1.505 . S
C2211 C484 1.543 . S
C2221 C528 1.486 . S
C2226 N1398 1.433 . S
C2236 C1692 1.422 . S
C2231 C547 1.422 . S
C2241 C601 1.457 . S
C2246 N1352 1.410 . S
C2251 C406 1.574 . S
C2256 C1623 1.572 . S
C2261 C450 1.531 . S
C2266 C1485 1.527 . S
C2271 C352 1.618 . S
C2276 C1439 1.619 . S
C2281 C625 1.548 . S
C2286 C1577 1.547 . S
C2296 C1609 1.553 . S
C2291 C684 1.560 . S
C2301 C703 1.479 . S
C2306 N1526 1.444 . S
C2311 C742 1.452 . S
C2316 N1559 1.405 . S
C2321 C801 1.607 . S
C2326 C1563 1.602 . S
C2331 C820 1.558 . S
C2336 N1572 1.533 . S
C2346 N1605 1.351 . S
C2341 C874 1.401 . S
C2351 C898 1.520 . S
C2356 C1531 1.519 . S
C2366 N1720 1.444 . S
C2361 C640 1.488 . S
C2371 C679 1.493 . S
C2376 N1457 1.459 . S
C2386 N1743 1.388 . S
C2381 C723 1.446 . S
C2391 C757 1.492 . S
C2396 N1513 1.446 . S
C2401 C781 1.578 . S
C2406 C1761 1.577 . S
C2411 C835 1.663 . S
C2416 C1379 1.661 . S
C2426 N1779 1.359 . S
C2421 C879 1.405 . S
C2431 C918 1.496 . S
C2436 C1416 1.498 . S
C2446 C1517 1.511 . S
C2441 C645 1.511 . S
C2456 N1375 1.506 . S
C2451 C796 1.563 . S
C2461 C840 1.575 . S
C2466 C1784 1.571 . S
C2471 C859 1.391 . S
C2476 N1411 1.347 . S
C2486 N1756 1.489 . S
C2481 C913 1.518 . S
C2496 C1462 1.580 . S
C2491 C718 1.580 . S
C2506 C1747 1.538 . S
C2501 C762 1.539 . S
C2516 C1724 1.594 . S
C2511 C664 1.593 . S
C2521 C937 1.442 . S
C2526 N1306 1.389 . S
C2531 C996 1.579 . S
C2536 C1333 1.573 . S
C2546 C1255 1.548 . S
C2541 C1015 1.549 . S
C2556 N1273 1.377 . S
C2551 C1054 1.414 . S
C2566 C1278 1.609 . S
C2561 C1113 1.611 . S
C2576 C1310 1.557 . S
C2571 C1132 1.546 . S
C2586 N1329 1.476 . S
C2581 C1186 1.526 . S
C2591 C1210 1.543 . S
C2596 N1250 1.512 . S
C2601 C952 1.407 . S
C2606 N1766 1.363 . S
C2616 N1674 1.481 . S
C2611 C991 1.518 . S
C2626 C1793 1.605 . S
C2621 C1035 1.599 . S
C2636 C1701 1.373 . S
C2631 C1069 1.378 . S
C2641 C1093 1.601 . S
C2646 C1715 1.597 . S
C2656 C1632 1.582 . S
C2651 C1147 1.588 . S
C2666 C1738 1.605 . S
C2661 C1191 1.608 . S
C2671 C1230 1.493 . S
C2676 N1641 1.449 . S
C2686 N1697 1.363 . S
C2681 C957 1.408 . S
C2696 N1628 1.474 . S
C2691 C1108 1.510 . S
C2706 N1733 1.400 . S
C2701 C1152 1.429 . S
C2711 C1171 1.499 . S
C2716 C1646 1.495 . S
C2721 C1225 1.465 . S
C2726 N1710 1.429 . S
C2731 C1030 1.673 . S
C2736 C1678 1.668 . S
C2741 C1074 1.411 . S
C2746 N1789 1.371 . S
C2756 C1770 1.568 . S
C2751 C976 1.572 . S
