# Generated by pormake.
# Topology pyr, (3,6)-cn, num edge types: 1
# Building blocks:
#     Node 0, Type 0, BuildingBlock: CUQRIR_clean_linker_1, # of connection points: 3
#     Node 1, Type 0, BuildingBlock: CUQRIR_clean_linker_1, # of connection points: 3
#     Node 2, Type 0, BuildingBlock: CUQRIR_clean_linker_1, # of connection points: 3
#     Node 3, Type 0, BuildingBlock: CUQRIR_clean_linker_1, # of connection points: 3
#     Node 4, Type 0, BuildingBlock: CUQRIR_clean_linker_1, # of connection points: 3
#     Node 5, Type 0, BuildingBlock: CUQRIR_clean_linker_1, # of connection points: 3
#     Node 6, Type 0, BuildingBlock: CUQRIR_clean_linker_1, # of connection points: 3
#     Node 7, Type 0, BuildingBlock: CUQRIR_clean_linker_1, # of connection points: 3
#     Node 8, Type 1, BuildingBlock: BETDEL_clean_sbu_0, # of connection points: 6
#     Node 9, Type 1, BuildingBlock: BETDEL_clean_sbu_0, # of connection points: 6
#     Node 10, Type 1, BuildingBlock: BETDEL_clean_sbu_0, # of connection points: 6
#     Node 11, Type 1, BuildingBlock: BETDEL_clean_sbu_0, # of connection points: 6
#     Edge 12, Type (0, 1), BuildingBlock: AJUNOK_clean_linker_0, # of connection points: 2
#     Edge 13, Type (0, 1), BuildingBlock: AJUNOK_clean_linker_0, # of connection points: 2
#     Edge 14, Type (0, 1), BuildingBlock: AJUNOK_clean_linker_0, # of connection points: 2
#     Edge 15, Type (0, 1), BuildingBlock: AJUNOK_clean_linker_0, # of connection points: 2
#     Edge 16, Type (0, 1), BuildingBlock: AJUNOK_clean_linker_0, # of connection points: 2
#     Edge 17, Type (0, 1), BuildingBlock: AJUNOK_clean_linker_0, # of connection points: 2
#     Edge 18, Type (0, 1), BuildingBlock: AJUNOK_clean_linker_0, # of connection points: 2
#     Edge 19, Type (0, 1), BuildingBlock: AJUNOK_clean_linker_0, # of connection points: 2
#     Edge 20, Type (0, 1), BuildingBlock: AJUNOK_clean_linker_0, # of connection points: 2
#     Edge 21, Type (0, 1), BuildingBlock: AJUNOK_clean_linker_0, # of connection points: 2
#     Edge 22, Type (0, 1), BuildingBlock: AJUNOK_clean_linker_0, # of connection points: 2
#     Edge 23, Type (0, 1), BuildingBlock: AJUNOK_clean_linker_0, # of connection points: 2
#     Edge 24, Type (0, 1), BuildingBlock: AJUNOK_clean_linker_0, # of connection points: 2
#     Edge 25, Type (0, 1), BuildingBlock: AJUNOK_clean_linker_0, # of connection points: 2
#     Edge 26, Type (0, 1), BuildingBlock: AJUNOK_clean_linker_0, # of connection points: 2
#     Edge 27, Type (0, 1), BuildingBlock: AJUNOK_clean_linker_0, # of connection points: 2
#     Edge 28, Type (0, 1), BuildingBlock: AJUNOK_clean_linker_0, # of connection points: 2
#     Edge 29, Type (0, 1), BuildingBlock: AJUNOK_clean_linker_0, # of connection points: 2
#     Edge 30, Type (0, 1), BuildingBlock: AJUNOK_clean_linker_0, # of connection points: 2
#     Edge 31, Type (0, 1), BuildingBlock: AJUNOK_clean_linker_0, # of connection points: 2
#     Edge 32, Type (0, 1), BuildingBlock: AJUNOK_clean_linker_0, # of connection points: 2
#     Edge 33, Type (0, 1), BuildingBlock: AJUNOK_clean_linker_0, # of connection points: 2
#     Edge 34, Type (0, 1), BuildingBlock: AJUNOK_clean_linker_0, # of connection points: 2
#     Edge 35, Type (0, 1), BuildingBlock: AJUNOK_clean_linker_0, # of connection points: 2
# Relax obj value: 0.117
# Max RMSD: 0.233
# Mean RMSD: 0.156
data_MOF--net-pyr--node1-BETDEL_clean_sbu_0--node2-CUQRIR_clean_linker_1--edge1-AJUNOK_clean_linker_0
_symmetry_space_group_name_H-M    P1
_symmetry_Int_Tables_number       1
_symmetry_cell_setting            triclinic
loop_
_symmetry_equiv_pos_as_xyz
'x, y, z'
_cell_length_a     23.699795
_cell_length_b     24.640936
_cell_length_c     22.697391
_cell_angle_alpha  89.755351
_cell_angle_beta   90.170152
_cell_angle_gamma 100.36248
loop_
_atom_site_label
_atom_site_type_symbol
_atom_site_fract_x
_atom_site_fract_y
_atom_site_fract_z
_atom_type_partial_charge
C0 C 0.26819 0.33077 0.23498 0.0
N1 N 0.29866 0.28963 0.23908 0.0
N2 N 0.27856 0.35838 0.18342 0.0
C3 C 0.221 0.33783 0.27703 0.0
C4 C 0.31957 0.33479 0.15781 0.0
N5 N 0.33219 0.29365 0.19213 0.0
C6 C 0.34008 0.34576 0.09553 0.0
H7 H 0.18172 0.3075 0.26659 0.0
H8 H 0.21103 0.38006 0.27367 0.0
H9 H 0.2339 0.32981 0.32285 0.0
H10 H 0.34486 0.39024 0.08479 0.0
H11 H 0.30779 0.3228 0.06496 0.0
H12 H 0.38171 0.33217 0.08856 0.0
C13 C 0.30225 0.87996 0.65266 0.0
N14 N 0.28673 0.91955 0.68701 0.0
N15 N 0.33536 0.85047 0.68324 0.0
C16 C 0.28612 0.87114 0.5888 0.0
C17 C 0.33982 0.87344 0.73729 0.0
N18 N 0.30961 0.91516 0.74011 0.0
C19 C 0.37825 0.85841 0.78546 0.0
H20 H 0.2396 0.87085 0.5828 0.0
H21 H 0.29654 0.8319 0.57201 0.0
H22 H 0.30968 0.90599 0.56247 0.0
H23 H 0.4125 0.83799 0.76742 0.0
H24 H 0.35214 0.82942 0.81655 0.0
H25 H 0.39847 0.89552 0.81039 0.0
C26 C 0.62253 0.34979 0.84374 0.0
N27 N 0.65441 0.34198 0.89186 0.0
N28 N 0.63756 0.40191 0.82262 0.0
C29 C 0.57465 0.30745 0.81917 0.0
C30 C 0.6794 0.42573 0.85978 0.0
N31 N 0.68926 0.38968 0.90237 0.0
C32 C 0.71345 0.48311 0.85176 0.0
H33 H 0.5929 0.27995 0.78887 0.0
H34 H 0.54355 0.32738 0.7942 0.0
H35 H 0.55197 0.28167 0.85507 0.0
H36 H 0.69356 0.5123 0.87833 0.0
H37 H 0.7136 0.49629 0.80495 0.0
H38 H 0.7584 0.4855 0.86683 0.0
C39 C 0.84123 0.67206 0.33123 0.0
N40 N 0.89098 0.70558 0.31512 0.0
N41 N 0.81529 0.69419 0.37605 0.0
C42 C 0.81942 0.61643 0.30443 0.0
C43 C 0.85058 0.74293 0.38618 0.0
N44 N 0.89697 0.7501 0.34994 0.0
C45 C 0.83926 0.78446 0.43118 0.0
H46 H 0.80814 0.62199 0.25758 0.0
H47 H 0.78136 0.59374 0.32783 0.0
H48 H 0.85368 0.59113 0.30536 0.0
H49 H 0.86438 0.77988 0.47164 0.0
H50 H 0.79312 0.77844 0.44283 0.0
H51 H 0.85313 0.82708 0.4143 0.0
C52 C 0.74568 0.83615 0.8718 0.0
N53 N 0.79357 0.83381 0.84058 0.0
N54 N 0.72941 0.88541 0.86379 0.0
C55 C 0.72124 0.79495 0.91838 0.0
C56 C 0.76921 0.91319 0.82716 0.0
N57 N 0.80881 0.88217 0.81397 0.0
C58 C 0.77083 0.97184 0.80765 0.0
H59 H 0.71826 0.75231 0.90172 0.0
H60 H 0.67809 0.80117 0.9325 0.0
H61 H 0.75034 0.79979 0.95715 0.0
H62 H 0.79333 1.00012 0.84156 0.0
H63 H 0.72657 0.98033 0.80322 0.0
H64 H 0.79375 0.98032 0.76512 0.0
C65 C 0.81225 0.29377 0.42541 0.0
N66 N 0.83231 0.25371 0.39493 0.0
N67 N 0.77841 0.31949 0.3907 0.0
C68 C 0.82213 0.30552 0.48982 0.0
C69 C 0.77923 0.29426 0.33816 0.0
N70 N 0.81066 0.25342 0.34072 0.0
C71 C 0.74192 0.30411 0.28659 0.0
H72 H 0.82085 0.34942 0.49927 0.0
H73 H 0.86396 0.29576 0.50422 0.0
H74 H 0.7874 0.27972 0.51543 0.0
H75 H 0.72593 0.34353 0.29097 0.0
H76 H 0.70471 0.2697 0.28364 0.0
H77 H 0.76652 0.30547 0.24499 0.0
C78 C 0.32477 0.69176 0.20735 0.0
N79 N 0.3746 0.7216 0.22795 0.0
N80 N 0.29562 0.72367 0.17487 0.0
C81 C 0.30324 0.63198 0.22143 0.0
C82 C 0.32866 0.77401 0.17639 0.0
N83 N 0.3766 0.77336 0.20882 0.0
C84 C 0.31657 0.82272 0.1412 0.0
H85 H 0.26067 0.61679 0.20125 0.0
H86 H 0.30002 0.62639 0.26992 0.0
H87 H 0.33456 0.60702 0.20541 0.0
H88 H 0.26982 0.82044 0.13461 0.0
H89 H 0.33687 0.82249 0.09723 0.0
H90 H 0.33451 0.86213 0.16331 0.0
C91 C 0.13231 0.3818 0.71133 0.0
N92 N 0.16847 0.37021 0.66857 0.0
N93 N 0.15217 0.43133 0.73692 0.0
C94 C 0.07614 0.34534 0.72633 0.0
C95 C 0.20194 0.44977 0.70743 0.0
N96 N 0.2122 0.41288 0.66593 0.0
C97 C 0.24191 0.50328 0.72002 0.0
H98 H 0.05578 0.32488 0.68618 0.0
H99 H 0.04614 0.36911 0.74733 0.0
H100 H 0.08429 0.31262 0.75728 0.0
H101 H 0.22347 0.52992 0.75093 0.0
H102 H 0.25358 0.52596 0.67818 0.0
H103 H 0.28198 0.49429 0.74002 0.0
Dy104 Dy 0.09765 0.07395 0.45213 0.0
C105 C 0.97709 0.97304 0.64787 0.0
C106 C 0.16341 0.11164 0.3578 0.0
Dy107 Dy 0.02322 0.03224 0.55304 0.0
O108 O 0.17801 0.08088 0.39929 0.0
O109 O 0.11188 0.12086 0.36691 0.0
O110 O 0.17259 0.08193 0.51397 0.0
O111 O 0.10499 1.0154 0.52414 0.0
C112 C 0.15248 0.03882 0.54514 0.0
C113 C 0.96103 0.0928 0.48924 0.0
O114 O 0.07542 0.11211 0.58976 0.0
O115 O 0.09784 0.15355 0.49932 0.0
O116 O 1.01587 1.01769 0.65127 0.0
O117 O 0.96392 0.96183 0.59338 0.0
O118 O 0.94343 0.06603 0.53683 0.0
O119 O 1.01115 0.08495 0.47676 0.0
O120 O 0.05268 0.9952 0.4092 0.0
O121 O 1.01199 0.95615 0.49513 0.0
C122 C 0.09544 0.15676 0.55741 0.0
C123 C 0.02365 0.95248 0.43829 0.0
Dy124 Dy 0.57729 0.07719 0.12049 0.0
C125 C 0.39715 1.0212 0.94596 0.0
C126 C 0.6697 0.11819 0.18794 0.0
Dy127 Dy 0.48642 0.04831 0.02416 0.0
O128 O 0.61736 0.10458 0.20658 0.0
O129 O 0.6716 0.11254 0.13101 0.0
O130 O 0.55501 1.00598 0.1827 0.0
O131 O 0.50681 1.00793 0.10553 0.0
C132 C 0.51368 0.97978 0.15106 0.0
C133 C 0.57481 0.13143 0.99835 0.0
O134 O 0.43855 0.09132 0.08742 0.0
O135 O 0.5162 0.13333 0.14354 0.0
O136 O 0.43312 0.06748 0.94712 0.0
O137 O 0.40956 0.98961 0.98836 0.0
O138 O 0.5521 0.09348 0.9616 0.0
O139 O 0.54888 0.12331 0.04698 0.0
O140 O 0.62062 0.03341 0.05249 0.0
O141 O 0.5394 0.98559 1.00676 0.0
C142 C 0.46159 0.12747 0.12748 0.0
C143 C 0.5951 0.99425 0.01656 0.0
Dy144 Dy 0.523 0.50755 0.4762 0.0
C145 C 0.45273 0.67908 0.60617 0.0
C146 C 0.60277 0.4492 0.43515 0.0
Dy147 Dy 0.50005 0.59857 0.55406 0.0
O148 O 0.54723 0.43313 0.43011 0.0
O149 O 0.61333 0.4971 0.45995 0.0
O150 O 0.42937 0.46779 0.47314 0.0
O151 O 0.46312 0.51027 0.5492 0.0
C152 C 0.4173 0.48562 0.525 0.0
C153 C 0.60511 0.61481 0.50496 0.0
O154 O 0.52901 0.54999 0.62752 0.0
O155 O 0.55876 0.48689 0.56502 0.0
O156 O 0.50172 0.68663 0.57941 0.0
O157 O 0.43028 0.62696 0.60658 0.0
O158 O 0.59581 0.62947 0.55852 0.0
O159 O 0.55809 0.59473 0.48087 0.0
O160 O 0.4963 0.563 0.40493 0.0
O161 O 0.45246 0.61289 0.471 0.0
C162 C 0.55461 0.50723 0.61867 0.0
C163 C 0.46449 0.60127 0.41599 0.0
Dy164 Dy 0.02401 0.5207 0.05103 0.0
C165 C 0.92362 0.67808 0.92753 0.0
C166 C 0.10358 0.45822 0.07681 0.0
Dy167 Dy 0.97933 0.60487 0.98222 0.0
O168 O 0.04945 0.44462 0.09083 0.0
O169 O 0.11276 0.50404 0.04764 0.0
O170 O 1.00679 0.54365 0.1451 0.0
O171 O 0.98407 0.59162 0.07659 0.0
C172 C 0.98537 0.58714 0.13217 0.0
C173 C 0.04494 0.54793 0.91712 0.0
O174 O 0.05256 0.65736 0.02871 0.0
O175 O 0.10022 0.58499 0.03181 0.0
O176 O 0.91311 0.62529 0.91915 0.0
O177 O 0.96369 0.69074 0.96662 0.0
O178 O 0.04412 0.60006 0.91132 0.0
O179 O 1.00863 0.5279 0.95596 0.0
O180 O 0.94114 0.46846 0.02292 0.0
O181 O 0.89897 0.54418 1.00296 0.0
C182 C 0.10016 0.6379 0.03678 0.0
C183 C 0.89528 0.49027 1.01078 0.0
C184 C 0.28816 0.22227 0.3202 0.0
C185 C 0.27332 0.23735 0.2636 0.0
C186 C 0.25479 0.17718 0.34872 0.0
C187 C 0.20515 0.14756 0.32164 0.0
H188 H 0.32353 0.2472 0.3434 0.0
H189 H 0.26523 0.16828 0.39385 0.0
S190 S 0.15298 0.16791 0.17108 0.0
N191 N 0.21086 0.21594 0.1787 0.0
N192 N 0.14582 0.13329 0.23393 0.0
C193 C 0.19213 0.16037 0.26383 0.0
C194 C 0.22706 0.20483 0.23425 0.0
C195 C 0.34699 1.00316 0.78822 0.0
C196 C 0.31056 0.95151 0.78974 0.0
C197 C 0.37034 1.02862 0.84026 0.0
C198 C 0.35908 1.00245 0.89537 0.0
H199 H 0.36277 1.02097 0.74657 0.0
H200 H 0.4018 0.06624 0.83653 0.0
S201 S 0.25787 0.87191 0.92339 0.0
N202 N 0.25679 0.87979 0.85109 0.0
N203 N 0.30233 0.92619 0.94893 0.0
C204 C 0.31795 0.95381 0.89793 0.0
C205 C 0.29307 0.92885 0.84505 0.0
C206 C 0.59028 0.47342 0.7774 0.0
C207 C 0.61577 0.42652 0.7715 0.0
C208 C 0.57078 0.4992 0.72789 0.0
C209 C 0.5764 0.47928 0.67038 0.0
H210 H 0.58544 0.49017 0.82074 0.0
H211 H 0.55122 0.5351 0.73497 0.0
S212 S 0.64318 0.35841 0.63211 0.0
N213 N 0.64753 0.36194 0.70466 0.0
N214 N 0.61116 0.40961 0.61131 0.0
C215 C 0.60246 0.43232 0.66423 0.0
C216 C 0.62201 0.40614 0.71482 0.0
C217 C 0.9648 0.65361 0.28167 0.0
C218 C 0.92855 0.69164 0.26912 0.0
C219 C 0.98429 0.62173 0.23695 0.0
C220 C 0.9686 0.62626 0.17723 0.0
H221 H 0.97434 0.64529 0.32716 0.0
H222 H 1.01012 0.59156 0.24979 0.0
S223 S 0.87715 0.72222 0.12019 0.0
N224 N 0.87966 0.7334 0.192 0.0
N225 N 0.91726 0.67506 0.108 0.0
C226 C 0.93518 0.66652 0.16359 0.0
C227 C 0.915 0.69866 0.20936 0.0
C228 C 0.34897 0.21817 0.12803 0.0
C229 C 0.36516 0.25263 0.17632 0.0
C230 C 0.37933 0.17641 0.11401 0.0
C231 C 0.42703 0.16789 0.14782 0.0
H232 H 0.31241 0.22342 0.1013 0.0
H233 H 0.36595 0.15157 0.07547 0.0
S234 S 0.4828 0.24557 0.2818 0.0
N235 N 0.42847 0.27445 0.26012 0.0
N236 N 0.4867 0.1961 0.23386 0.0
C237 C 0.4425 0.20148 0.19733 0.0
C238 C 0.41111 0.24374 0.21165 0.0
C239 C 0.19274 0.94215 0.66284 0.0
C240 C 0.25254 0.95876 0.66722 0.0
C241 C 0.1599 0.9697 0.62516 0.0
C242 C 0.18588 1.01507 0.5909 0.0
H243 H 0.17209 0.90492 0.68512 0.0
H244 H 0.1144 0.9538 0.62081 0.0
S245 S 0.3409 0.07638 0.58955 0.0
N246 N 0.33601 1.02376 0.63567 0.0
N247 N 0.27471 0.07774 0.5675 0.0
C248 C 0.24516 0.03427 0.59813 0.0
C249 C 0.27843 1.00553 0.63561 0.0
C250 C 0.7852 0.38008 0.93799 0.0
C251 C 0.73422 0.40078 0.94592 0.0
C252 C 0.83698 0.40612 0.96422 0.0
C253 C 0.8393 0.45417 0.99832 0.0
H254 H 0.78606 0.34695 0.90699 0.0
H255 H 0.87614 0.39158 0.95325 0.0
S256 S 0.7152 0.51819 0.04029 0.0
N257 N 0.68746 0.46643 0.99702 0.0
N258 N 0.78439 0.51628 0.04515 0.0
C259 C 0.78744 0.47175 1.01098 0.0
C260 C 0.73493 0.44466 0.98522 0.0
C261 C 0.71053 0.6581 0.37914 0.0
C262 C 0.76379 0.67062 0.40812 0.0
C263 C 0.65965 0.63861 0.41053 0.0
C264 C 0.65999 0.63187 0.47229 0.0
H265 H 0.7082 0.66444 0.33202 0.0
H266 H 0.61954 0.63028 0.38639 0.0
S267 S 0.78923 0.65381 0.56783 0.0
N268 N 0.81444 0.67035 0.5011 0.0
N269 N 0.71897 0.63589 0.5604 0.0
C270 C 0.71323 0.64292 0.50143 0.0
C271 C 0.76503 0.66178 0.46932 0.0
C272 C 0.18112 0.35246 0.14371 0.0
C273 C 0.23672 0.38289 0.15245 0.0
C274 C 0.13808 0.37672 0.11809 0.0
C275 C 0.14999 0.43161 0.09885 0.0
H276 H 0.17057 0.30997 0.15808 0.0
H277 H 0.0953 0.35259 0.11376 0.0
S278 S 0.29012 0.52711 0.10813 0.0
N279 N 0.302 0.46938 0.13888 0.0
N280 N 0.22218 0.51506 0.08739 0.0
C281 C 0.20625 0.46168 0.10481 0.0
C282 C 0.24949 0.43721 0.13239 0.0
C283 C 0.62145 0.28717 0.9809 0.0
C284 C 0.64897 0.29156 0.92582 0.0
C285 C 0.60102 0.23514 1.00676 0.0
C286 C 0.60694 0.18585 0.97788 0.0
H287 H 0.6122 0.32392 1.00198 0.0
H288 H 0.57715 0.23349 0.04755 0.0
S289 S 0.6833 0.17625 0.83693 0.0
N290 N 0.68687 0.24316 0.84683 0.0
N291 N 0.64832 0.14571 0.89442 0.0
C292 C 0.63818 0.19028 0.92495 0.0
C293 C 0.65923 0.24303 0.89917 0.0
C294 C 0.9463 0.84556 0.32819 0.0
C295 C 0.94561 0.79482 0.35758 0.0
C296 C 0.97516 0.89624 0.35209 0.0
C297 C 1.00308 0.89845 0.40735 0.0
H298 H 0.92009 0.84655 0.28919 0.0
H299 H 0.9717 0.93424 0.32935 0.0
S300 S 1.01886 0.77694 0.49896 0.0
N301 N 0.98053 0.75016 0.4418 0.0
N302 N 0.03258 0.84429 0.48755 0.0
C303 C 1.00586 0.8477 0.43497 0.0
C304 C 0.97805 0.79637 0.40979 0.0
C305 C 0.34923 0.75409 0.68496 0.0
C306 C 0.364 0.80783 0.66236 0.0
C307 C 0.3783 0.71237 0.66665 0.0
C308 C 0.42375 0.72369 0.62621 0.0
H309 H 0.31494 0.74452 0.71683 0.0
H310 H 0.36545 0.6712 0.68459 0.0
S311 S 0.4781 0.85856 0.55446 0.0
N312 N 0.42593 0.87059 0.59787 0.0
N313 N 0.48143 0.79265 0.56351 0.0
C314 C 0.43893 0.77759 0.60358 0.0
C315 C 0.40878 0.81965 0.62168 0.0
C316 C 0.86403 0.87214 0.72547 0.0
C317 C 0.85932 0.89844 0.77918 0.0
C318 C 0.90592 0.89459 0.68475 0.0
C319 C 0.94435 0.94387 0.69692 0.0
H320 H 0.83268 0.83624 0.71345 0.0
H321 H 0.90592 0.87497 0.64211 0.0
S322 S 0.95606 1.0214 0.83722 0.0
N323 N 0.90111 0.97049 0.84701 0.0
N324 N 0.9802 1.01353 0.77011 0.0
C325 C 0.94354 0.96737 0.75303 0.0
C326 C 0.90071 0.9444 0.7944 0.0
C327 C 0.80468 0.20763 0.24459 0.0
C328 C 0.79471 0.20461 0.30569 0.0
C329 C 0.76664 0.17549 0.20542 0.0
C330 C 0.71832 0.13935 0.22689 0.0
H331 H 0.83748 0.23987 0.22695 0.0
H332 H 0.77199 0.1829 0.15853 0.0
S333 S 0.68297 0.10585 0.38329 0.0
N334 N 0.73993 0.15536 0.38561 0.0
N335 N 0.67003 0.09344 0.31268 0.0
C336 C 0.71332 0.13004 0.28784 0.0
C337 C 0.75162 0.16279 0.32728 0.0
C338 C 0.43956 0.65942 0.262 0.0
C339 C 0.40869 0.70203 0.27387 0.0
C340 C 0.45806 0.62742 0.30767 0.0
C341 C 0.44571 0.63612 0.36735 0.0
H342 H 0.44679 0.64894 0.2167 0.0
H343 H 0.48079 0.59467 0.29588 0.0
S344 S 0.36598 0.74345 0.42142 0.0
N345 N 0.36658 0.75097 0.34914 0.0
N346 N 0.40173 0.69312 0.43496 0.0
C347 C 0.41621 0.68002 0.37956 0.0
C348 C 0.3977 0.7123 0.333 0.0
C349 C 0.1112 0.5115 0.77211 0.0
C350 C 0.125 0.4591 0.78263 0.0
C351 C 0.08567 0.53951 0.81585 0.0
C352 C 0.07111 0.51583 0.87178 0.0
H353 H 0.1205 0.5311 0.72958 0.0
H354 H 0.07675 0.58006 0.80536 0.0
S355 S 0.0977 0.37912 0.9218 0.0
N356 N 0.12295 0.38493 0.8538 0.0
N357 N 0.07216 0.43608 0.93466 0.0
C358 C 0.08354 0.46289 0.88249 0.0
C359 C 0.11095 0.4349 0.83833 0.0
C360 C 0.63743 0.90768 0.89328 0.0
C361 C 0.69585 0.91038 0.90378 0.0
C362 C 0.60469 0.93358 0.9314 0.0
C363 C 0.62982 0.96307 0.98093 0.0
H364 H 0.61744 0.88611 0.85499 0.0
H365 H 0.55976 0.93156 0.92089 0.0
S366 S 0.78189 0.97784 0.02801 0.0
N367 N 0.7778 0.94119 0.9669 0.0
N368 N 0.71669 0.9905 0.03942 0.0
C369 C 0.68838 0.9645 0.99238 0.0
C370 C 0.72139 0.93795 0.95348 0.0
C371 C 0.8474 0.18233 0.46785 0.0
C372 C 0.86525 0.21372 0.41731 0.0
C373 C 0.8783 0.14289 0.48937 0.0
C374 C 0.92885 0.13324 0.46171 0.0
H375 H 0.80865 0.18766 0.49047 0.0
H376 H 0.86243 0.12007 0.52863 0.0
S377 S 0.99327 0.2042 0.32709 0.0
N378 N 0.93584 0.23195 0.33917 0.0
N379 N 0.99472 0.15838 0.38024 0.0
C380 C 0.94698 0.16407 0.41076 0.0
C381 C 0.91493 0.20398 0.3884 0.0
C382 C 0.19318 0.71764 0.15218 0.0
C383 C 0.24736 0.70665 0.13704 0.0
C384 C 0.14549 0.70001 0.11583 0.0
C385 C 0.15118 0.67094 0.06364 0.0
H386 H 0.18764 0.7385 0.19308 0.0
H387 H 0.10355 0.70583 0.13058 0.0
S388 S 0.28594 0.6393 1.00154 0.0
N389 N 0.30557 0.6709 0.06437 0.0
N390 N 0.21593 0.63657 0.99622 0.0
C391 C 0.20592 0.66265 0.04675 0.0
C392 C 0.25415 0.68078 0.08352 0.0
C393 C 0.31775 0.42665 0.65198 0.0
C394 C 0.26222 0.42039 0.62739 0.0
C395 C 0.36735 0.44747 0.61878 0.0
C396 C 0.36397 0.46184 0.55881 0.0
H397 H 0.32262 0.41759 0.69824 0.0
H398 H 0.40873 0.45274 0.64051 0.0
S399 S 0.22936 0.45326 0.47281 0.0
N400 N 0.20735 0.43172 0.53932 0.0
N401 N 0.30018 0.46685 0.47594 0.0
C402 C 0.30896 0.45371 0.53299 0.0
C403 C 0.25832 0.43398 0.56737 0.0
C404 C 0.87866 0.81279 0.88962 0.0
C405 C 0.83141 0.79617 0.8526 0.0
C406 C 0.90953 0.77423 0.91225 0.0
C407 C 0.89375 0.71798 0.89846 0.0
H408 H 0.8897 0.85539 0.90352 0.0
H409 H 0.94463 0.78834 0.94233 0.0
S410 S 0.77559 0.65538 0.7989 0.0
N411 N 0.77217 0.72177 0.79965 0.0
N412 N 0.83008 0.64826 0.84208 0.0
C413 C 0.84814 0.7014 0.85898 0.0
C414 C 0.81691 0.74089 0.83598 0.0
C415 C 0.45401 0.82593 0.15026 0.0
C416 C 0.42547 0.81736 0.20494 0.0
C417 C 0.48105 0.87886 0.13183 0.0
C418 C 0.48178 0.92487 0.16824 0.0
H419 H 0.45042 0.79219 0.11925 0.0
H420 H 0.50094 0.88387 0.08876 0.0
S421 S 0.41852 0.92432 0.31737 0.0
N422 N 0.40215 0.85947 0.29569 0.0
N423 N 0.45656 0.958 0.26343 0.0
C424 C 0.4575 0.91628 0.22467 0.0
C425 C 0.42876 0.86277 0.24261 0.0
C426 C 0.13294 0.31321 0.58163 0.0
C427 C 0.16101 0.31841 0.63658 0.0
C428 C 0.11296 0.26105 0.55615 0.0
C429 C 0.11786 0.2115 0.58566 0.0
H430 H 0.12368 0.34954 0.55949 0.0
H431 H 0.09137 0.25952 0.51389 0.0
S432 S 0.18745 0.2025 0.73118 0.0
N433 N 0.19303 0.26949 0.71943 0.0
N434 N 0.1542 0.17173 0.67293 0.0
C435 C 0.14598 0.2162 0.64065 0.0
C436 C 0.16761 0.26939 0.66574 0.0
C437 C 0.67741 0.32682 0.40904 0.0
C438 C 0.73591 0.35139 0.4083 0.0
C439 C 0.63422 0.35863 0.41629 0.0
C440 C 0.64812 0.41615 0.42334 0.0
H441 H 0.66517 0.28277 0.40236 0.0
H442 H 0.58981 0.33802 0.41671 0.0
S443 S 0.79521 0.49998 0.4239 0.0
N444 N 0.80541 0.43602 0.41428 0.0
N445 N 0.7251 0.4962 0.42922 0.0
C446 C 0.70668 0.44097 0.42331 0.0
C447 C 0.75037 0.40851 0.41553 0.0
loop_
_geom_bond_atom_site_label_1
_geom_bond_atom_site_label_2
_geom_bond_distance
_geom_bond_site_symmetry_2
_ccdc_geom_bond_type
C0 N1 1.317 . S
C0 N2 1.348 . S
C0 C3 1.485 . S
N1 C0 1.317 . S
N1 N5 1.370 . S
N2 C0 1.348 . S
N2 C4 1.346 . S
C3 C0 1.485 . S
C3 H7 0.960 . S
C3 H8 0.961 . S
C3 H9 0.960 . S
C4 N2 1.346 . S
C4 N5 1.307 . S
C4 C6 1.486 . S
N5 N1 1.370 . S
N5 C4 1.307 . S
C6 C4 1.486 . S
C6 H10 0.960 . S
C6 H11 0.960 . S
C6 H12 0.959 . S
H7 C3 0.960 . S
H8 C3 0.961 . S
H9 C3 0.960 . S
H10 C6 0.960 . S
H11 C6 0.960 . S
H12 C6 0.959 . S
C13 N14 1.317 . S
C13 N15 1.348 . S
C13 C16 1.485 . S
N14 C13 1.317 . S
N14 N18 1.370 . S
N15 C13 1.348 . S
N15 C17 1.346 . S
C16 C13 1.485 . S
C16 H20 0.960 . S
C16 H21 0.961 . S
C16 H22 0.960 . S
C17 N15 1.346 . S
C17 N18 1.307 . S
C17 C19 1.486 . S
N18 N14 1.370 . S
N18 C17 1.307 . S
C19 C17 1.486 . S
C19 H23 0.960 . S
C19 H24 0.960 . S
C19 H25 0.959 . S
H20 C16 0.960 . S
H21 C16 0.961 . S
H22 C16 0.960 . S
H23 C19 0.960 . S
H24 C19 0.960 . S
H25 C19 0.959 . S
C26 N27 1.317 . S
C26 N28 1.348 . S
C26 C29 1.485 . S
N27 C26 1.317 . S
N27 N31 1.370 . S
N28 C26 1.348 . S
N28 C30 1.346 . S
C29 C26 1.485 . S
C29 H33 0.960 . S
C29 H34 0.961 . S
C29 H35 0.960 . S
C30 N28 1.346 . S
C30 N31 1.307 . S
C30 C32 1.486 . S
N31 N27 1.370 . S
N31 C30 1.307 . S
C32 C30 1.486 . S
C32 H36 0.960 . S
C32 H37 0.960 . S
C32 H38 0.959 . S
H33 C29 0.960 . S
H34 C29 0.961 . S
H35 C29 0.960 . S
H36 C32 0.960 . S
H37 C32 0.960 . S
H38 C32 0.959 . S
C39 N40 1.317 . S
C39 N41 1.348 . S
C39 C42 1.485 . S
N40 C39 1.317 . S
N40 N44 1.370 . S
N41 C39 1.348 . S
N41 C43 1.346 . S
C42 C39 1.485 . S
C42 H46 0.960 . S
C42 H47 0.961 . S
C42 H48 0.960 . S
C43 N41 1.346 . S
C43 N44 1.307 . S
C43 C45 1.486 . S
N44 N40 1.370 . S
N44 C43 1.307 . S
C45 C43 1.486 . S
C45 H49 0.960 . S
C45 H50 0.960 . S
C45 H51 0.959 . S
H46 C42 0.960 . S
H47 C42 0.961 . S
H48 C42 0.960 . S
H49 C45 0.960 . S
H50 C45 0.960 . S
H51 C45 0.959 . S
C52 N53 1.317 . S
C52 N54 1.348 . S
C52 C55 1.485 . S
N53 C52 1.317 . S
N53 N57 1.370 . S
N54 C52 1.348 . S
N54 C56 1.346 . S
C55 C52 1.485 . S
C55 H59 0.960 . S
C55 H60 0.961 . S
C55 H61 0.960 . S
C56 N54 1.346 . S
C56 N57 1.307 . S
C56 C58 1.486 . S
N57 N53 1.370 . S
N57 C56 1.307 . S
C58 C56 1.486 . S
C58 H62 0.960 . S
C58 H63 0.960 . S
C58 H64 0.959 . S
H59 C55 0.960 . S
H60 C55 0.961 . S
H61 C55 0.960 . S
H62 C58 0.960 . S
H63 C58 0.960 . S
H64 C58 0.959 . S
C65 N66 1.317 . S
C65 N67 1.348 . S
C65 C68 1.485 . S
N66 C65 1.317 . S
N66 N70 1.370 . S
N67 C65 1.348 . S
N67 C69 1.346 . S
C68 C65 1.485 . S
C68 H72 0.960 . S
C68 H73 0.961 . S
C68 H74 0.960 . S
C69 N67 1.346 . S
C69 N70 1.307 . S
C69 C71 1.486 . S
N70 N66 1.370 . S
N70 C69 1.307 . S
C71 C69 1.486 . S
C71 H75 0.960 . S
C71 H76 0.960 . S
C71 H77 0.959 . S
H72 C68 0.960 . S
H73 C68 0.961 . S
H74 C68 0.960 . S
H75 C71 0.960 . S
H76 C71 0.960 . S
H77 C71 0.959 . S
C78 N79 1.317 . S
C78 N80 1.348 . S
C78 C81 1.485 . S
N79 C78 1.317 . S
N79 N83 1.370 . S
N80 C78 1.348 . S
N80 C82 1.346 . S
C81 C78 1.485 . S
C81 H85 0.960 . S
C81 H86 0.961 . S
C81 H87 0.960 . S
C82 N80 1.346 . S
C82 N83 1.307 . S
C82 C84 1.486 . S
N83 N79 1.370 . S
N83 C82 1.307 . S
C84 C82 1.486 . S
C84 H88 0.960 . S
C84 H89 0.960 . S
C84 H90 0.959 . S
H85 C81 0.960 . S
H86 C81 0.961 . S
H87 C81 0.960 . S
H88 C84 0.960 . S
H89 C84 0.960 . S
H90 C84 0.959 . S
C91 N92 1.317 . S
C91 N93 1.348 . S
C91 C94 1.485 . S
N92 C91 1.317 . S
N92 N96 1.370 . S
N93 C91 1.348 . S
N93 C95 1.346 . S
C94 C91 1.485 . S
C94 H98 0.960 . S
C94 H99 0.961 . S
C94 H100 0.960 . S
C95 N93 1.346 . S
C95 N96 1.307 . S
C95 C97 1.486 . S
N96 N92 1.370 . S
N96 C95 1.307 . S
C97 C95 1.486 . S
C97 H101 0.960 . S
C97 H102 0.960 . S
C97 H103 0.959 . S
H98 C94 0.960 . S
H99 C94 0.961 . S
H100 C94 0.960 . S
H101 C97 0.960 . S
H102 C97 0.960 . S
H103 C97 0.959 . S
Dy104 O108 2.398 . S
Dy104 O109 2.491 . S
Dy104 O110 2.404 1_545 S
Dy104 O111 2.664 1_545 S
Dy104 O115 2.326 . S
Dy104 O119 2.310 . S
Dy104 O120 2.351 1_545 S
C105 O116 1.185 . S
C105 O117 1.355 . S
C106 O108 1.185 . S
C106 O109 1.355 . S
Dy107 O111 2.325 1_545 S
Dy107 O114 2.359 . S
Dy107 O116 2.385 1_445 S
Dy107 O117 2.493 1_445 S
Dy107 O118 2.389 1_455 S
Dy107 O119 2.664 . S
Dy107 O121 2.322 1_445 S
O108 Dy104 2.398 . S
O108 C106 1.185 . S
O109 Dy104 2.491 . S
O109 C106 1.355 . S
O110 Dy104 2.404 1_565 S
O110 C112 1.254 . S
O111 Dy104 2.664 1_565 S
O111 Dy107 2.325 1_565 S
O111 C112 1.268 . S
C112 O110 1.254 . S
C112 O111 1.268 . S
C113 O118 1.254 . S
C113 O119 1.268 1_655 S
O114 Dy107 2.359 . S
O114 C122 1.249 . S
O115 Dy104 2.326 . S
O115 C122 1.267 . S
O116 C105 1.185 . S
O116 Dy107 2.385 1_665 S
O117 C105 1.355 . S
O117 Dy107 2.493 1_665 S
O118 Dy107 2.389 1_655 S
O118 C113 1.254 . S
O119 Dy104 2.310 . S
O119 Dy107 2.664 . S
O119 C113 1.268 1_455 S
O120 Dy104 2.351 1_565 S
O120 C123 1.249 1_455 S
O121 Dy107 2.322 1_665 S
O121 C123 1.267 . S
C122 O114 1.249 . S
C122 O115 1.267 . S
C123 O120 1.249 1_655 S
C123 O121 1.267 . S
Dy124 O128 2.398 . S
Dy124 O129 2.491 . S
Dy124 O130 2.403 1_545 S
Dy124 O131 2.664 1_545 S
Dy124 O135 2.326 . S
Dy124 O139 2.310 . S
Dy124 O140 2.351 1_545 S
C125 O136 1.185 1_565 S
C125 O137 1.355 . S
C126 O128 1.185 . S
C126 O129 1.355 . S
Dy127 O131 2.310 1_546 S
Dy127 O134 2.351 1_556 S
Dy127 O136 2.398 . S
Dy127 O137 2.491 1_545 S
Dy127 O138 2.403 . S
Dy127 O139 2.664 1_556 S
Dy127 O141 2.326 . S
O128 Dy124 2.398 . S
O128 C126 1.185 . S
O129 Dy124 2.491 . S
O129 C126 1.355 . S
O130 Dy124 2.403 1_565 S
O130 C132 1.254 . S
O131 Dy124 2.664 1_565 S
O131 Dy127 2.310 1_564 S
O131 C132 1.268 . S
C132 O130 1.254 . S
C132 O131 1.268 . S
C133 O138 1.254 . S
C133 O139 1.268 1_556 S
O134 Dy127 2.351 1_554 S
O134 C142 1.249 . S
O135 Dy124 2.326 . S
O135 C142 1.267 . S
O136 C125 1.185 1_545 S
O136 Dy127 2.398 . S
O137 C125 1.355 . S
O137 Dy127 2.491 1_565 S
O138 Dy127 2.403 . S
O138 C133 1.254 . S
O139 Dy124 2.310 . S
O139 Dy127 2.664 1_554 S
O139 C133 1.268 1_554 S
O140 Dy124 2.351 1_565 S
O140 C143 1.249 1_554 S
O141 Dy127 2.326 . S
O141 C143 1.267 1_545 S
C142 O134 1.249 . S
C142 O135 1.267 . S
C143 O140 1.249 1_556 S
C143 O141 1.267 1_565 S
Dy144 O148 2.398 . S
Dy144 O149 2.491 . S
Dy144 O150 2.403 . S
Dy144 O151 2.664 . S
Dy144 O155 2.326 . S
Dy144 O159 2.310 . S
Dy144 O160 2.351 . S
C145 O156 1.185 . S
C145 O157 1.355 . S
C146 O148 1.185 . S
C146 O149 1.355 . S
Dy147 O151 2.310 . S
Dy147 O154 2.351 . S
Dy147 O156 2.398 . S
Dy147 O157 2.491 . S
Dy147 O158 2.403 . S
Dy147 O159 2.664 . S
Dy147 O161 2.326 . S
O148 Dy144 2.398 . S
O148 C146 1.185 . S
O149 Dy144 2.491 . S
O149 C146 1.355 . S
O150 Dy144 2.403 . S
O150 C152 1.254 . S
O151 Dy144 2.664 . S
O151 Dy147 2.310 . S
O151 C152 1.268 . S
C152 O150 1.254 . S
C152 O151 1.268 . S
C153 O158 1.254 . S
C153 O159 1.268 . S
O154 Dy147 2.351 . S
O154 C162 1.249 . S
O155 Dy144 2.326 . S
O155 C162 1.267 . S
O156 C145 1.185 . S
O156 Dy147 2.398 . S
O157 C145 1.355 . S
O157 Dy147 2.491 . S
O158 Dy147 2.403 . S
O158 C153 1.254 . S
O159 Dy144 2.310 . S
O159 Dy147 2.664 . S
O159 C153 1.268 . S
O160 Dy144 2.351 . S
O160 C163 1.249 . S
O161 Dy147 2.326 . S
O161 C163 1.267 . S
C162 O154 1.249 . S
C162 O155 1.267 . S
C163 O160 1.249 . S
C163 O161 1.267 . S
Dy164 O168 2.398 . S
Dy164 O169 2.491 . S
Dy164 O170 2.403 1_455 S
Dy164 O171 2.664 1_455 S
Dy164 O175 2.326 . S
Dy164 O179 2.310 1_554 S
Dy164 O180 2.351 1_454 S
C165 O176 1.185 . S
C165 O177 1.355 . S
C166 O168 1.185 . S
C166 O169 1.355 . S
Dy167 O171 2.310 1_556 S
Dy167 O174 2.351 1_656 S
Dy167 O176 2.398 . S
Dy167 O177 2.491 . S
Dy167 O178 2.403 1_655 S
Dy167 O179 2.664 1_655 S
Dy167 O181 2.326 . S
O168 Dy164 2.398 . S
O168 C166 1.185 . S
O169 Dy164 2.491 . S
O169 C166 1.355 . S
O170 Dy164 2.403 1_655 S
O170 C172 1.254 . S
O171 Dy164 2.664 1_655 S
O171 Dy167 2.310 1_554 S
O171 C172 1.268 . S
C172 O170 1.254 . S
C172 O171 1.268 . S
C173 O178 1.254 . S
C173 O179 1.268 . S
O174 Dy167 2.351 1_454 S
O174 C182 1.249 . S
O175 Dy164 2.326 . S
O175 C182 1.267 . S
O176 C165 1.185 . S
O176 Dy167 2.398 . S
O177 C165 1.355 . S
O177 Dy167 2.491 . S
O178 Dy167 2.403 1_455 S
O178 C173 1.254 . S
O179 Dy164 2.310 1_556 S
O179 Dy167 2.664 1_455 S
O179 C173 1.268 . S
O180 Dy164 2.351 1_656 S
O180 C183 1.249 . S
O181 Dy167 2.326 . S
O181 C183 1.267 . S
C182 O174 1.249 . S
C182 O175 1.267 . S
C183 O180 1.249 . S
C183 O181 1.267 . S
C184 C185 1.369 . S
C184 C186 1.419 . S
C184 H188 0.930 . S
C185 C184 1.369 . S
C185 C194 1.429 . S
C186 C184 1.419 . S
C186 C187 1.363 . S
C186 H189 0.929 . S
C187 C186 1.363 . S
C187 C193 1.428 . S
H188 C184 0.930 . S
H189 C186 0.929 . S
S190 N191 1.613 . S
S190 N192 1.610 . S
N191 S190 1.613 . S
N191 C194 1.350 . S
N192 S190 1.610 . S
N192 C193 1.351 . S
C193 C187 1.428 . S
C193 N192 1.351 . S
C193 C194 1.434 . S
C194 C185 1.429 . S
C194 N191 1.350 . S
C194 C193 1.434 . S
C195 C196 1.369 . S
C195 C197 1.419 . S
C195 H199 0.930 . S
C196 C195 1.369 . S
C196 C205 1.429 . S
C197 C195 1.419 . S
C197 C198 1.363 . S
C197 H200 0.929 1_565 S
C198 C197 1.363 . S
C198 C204 1.428 . S
H199 C195 0.930 . S
H200 C197 0.929 1_545 S
S201 N202 1.613 . S
S201 N203 1.610 . S
N202 S201 1.613 . S
N202 C205 1.350 . S
N203 S201 1.610 . S
N203 C204 1.351 . S
C204 C198 1.428 . S
C204 N203 1.351 . S
C204 C205 1.434 . S
C205 C196 1.429 . S
C205 N202 1.350 . S
C205 C204 1.434 . S
C206 C207 1.369 . S
C206 C208 1.419 . S
C206 H210 0.930 . S
C207 C206 1.369 . S
C207 C216 1.429 . S
C208 C206 1.419 . S
C208 C209 1.363 . S
C208 H211 0.929 . S
C209 C208 1.363 . S
C209 C215 1.428 . S
H210 C206 0.930 . S
H211 C208 0.929 . S
S212 N213 1.613 . S
S212 N214 1.610 . S
N213 S212 1.613 . S
N213 C216 1.350 . S
N214 S212 1.610 . S
N214 C215 1.351 . S
C215 C209 1.428 . S
C215 N214 1.351 . S
C215 C216 1.434 . S
C216 C207 1.429 . S
C216 N213 1.350 . S
C216 C215 1.434 . S
C217 C218 1.369 . S
C217 C219 1.419 . S
C217 H221 0.930 . S
C218 C217 1.369 . S
C218 C227 1.429 . S
C219 C217 1.419 . S
C219 C220 1.363 . S
C219 H222 0.929 1_655 S
C220 C219 1.363 . S
C220 C226 1.428 . S
H221 C217 0.930 . S
H222 C219 0.929 1_455 S
S223 N224 1.613 . S
S223 N225 1.610 . S
N224 S223 1.613 . S
N224 C227 1.350 . S
N225 S223 1.610 . S
N225 C226 1.351 . S
C226 C220 1.428 . S
C226 N225 1.351 . S
C226 C227 1.434 . S
C227 C218 1.429 . S
C227 N224 1.350 . S
C227 C226 1.434 . S
C228 C229 1.369 . S
C228 C230 1.419 . S
C228 H232 0.930 . S
C229 C228 1.369 . S
C229 C238 1.429 . S
C230 C228 1.419 . S
C230 C231 1.363 . S
C230 H233 0.929 . S
C231 C230 1.363 . S
C231 C237 1.428 . S
H232 C228 0.930 . S
H233 C230 0.929 . S
S234 N235 1.613 . S
S234 N236 1.610 . S
N235 S234 1.613 . S
N235 C238 1.350 . S
N236 S234 1.610 . S
N236 C237 1.351 . S
C237 C231 1.428 . S
C237 N236 1.351 . S
C237 C238 1.434 . S
C238 C229 1.429 . S
C238 N235 1.350 . S
C238 C237 1.434 . S
C239 C240 1.369 . S
C239 C241 1.419 . S
C239 H243 0.930 . S
C240 C239 1.369 . S
C240 C249 1.429 . S
C241 C239 1.419 . S
C241 C242 1.363 . S
C241 H244 0.929 . S
C242 C241 1.363 . S
C242 C248 1.428 . S
H243 C239 0.930 . S
H244 C241 0.929 . S
S245 N246 1.613 . S
S245 N247 1.610 . S
N246 S245 1.613 . S
N246 C249 1.350 1_545 S
N247 S245 1.610 . S
N247 C248 1.351 1_545 S
C248 C242 1.428 . S
C248 N247 1.351 1_565 S
C248 C249 1.434 . S
C249 C240 1.429 . S
C249 N246 1.350 1_565 S
C249 C248 1.434 . S
C250 C251 1.369 . S
C250 C252 1.419 . S
C250 H254 0.930 . S
C251 C250 1.369 . S
C251 C260 1.429 . S
C252 C250 1.419 . S
C252 C253 1.363 . S
C252 H255 0.929 . S
C253 C252 1.363 . S
C253 C259 1.428 . S
H254 C250 0.930 . S
H255 C252 0.929 . S
S256 N257 1.613 . S
S256 N258 1.610 . S
N257 S256 1.613 . S
N257 C260 1.350 . S
N258 S256 1.610 . S
N258 C259 1.351 . S
C259 C253 1.428 . S
C259 N258 1.351 . S
C259 C260 1.434 . S
C260 C251 1.429 . S
C260 N257 1.350 . S
C260 C259 1.434 . S
C261 C262 1.369 . S
C261 C263 1.419 . S
C261 H265 0.930 . S
C262 C261 1.369 . S
C262 C271 1.429 . S
C263 C261 1.419 . S
C263 C264 1.363 . S
C263 H266 0.929 . S
C264 C263 1.363 . S
C264 C270 1.428 . S
H265 C261 0.930 . S
H266 C263 0.929 . S
S267 N268 1.613 . S
S267 N269 1.610 . S
N268 S267 1.613 . S
N268 C271 1.350 . S
N269 S267 1.610 . S
N269 C270 1.351 . S
C270 C264 1.428 . S
C270 N269 1.351 . S
C270 C271 1.434 . S
C271 C262 1.429 . S
C271 N268 1.350 . S
C271 C270 1.434 . S
C272 C273 1.369 . S
C272 C274 1.419 . S
C272 H276 0.930 . S
C273 C272 1.369 . S
C273 C282 1.429 . S
C274 C272 1.419 . S
C274 C275 1.363 . S
C274 H277 0.929 . S
C275 C274 1.363 . S
C275 C281 1.428 . S
H276 C272 0.930 . S
H277 C274 0.929 . S
S278 N279 1.613 . S
S278 N280 1.610 . S
N279 S278 1.613 . S
N279 C282 1.350 . S
N280 S278 1.610 . S
N280 C281 1.351 . S
C281 C275 1.428 . S
C281 N280 1.351 . S
C281 C282 1.434 . S
C282 C273 1.429 . S
C282 N279 1.350 . S
C282 C281 1.434 . S
C283 C284 1.369 . S
C283 C285 1.419 . S
C283 H287 0.930 . S
C284 C283 1.369 . S
C284 C293 1.429 . S
C285 C283 1.419 . S
C285 C286 1.363 . S
C285 H288 0.935 . S
C286 C285 1.363 . S
C286 C292 1.428 . S
H287 C283 0.930 . S
H288 C285 0.935 . S
S289 N290 1.613 . S
S289 N291 1.610 . S
N290 S289 1.613 . S
N290 C293 1.350 . S
N291 S289 1.610 . S
N291 C292 1.351 . S
C292 C286 1.428 . S
C292 N291 1.351 . S
C292 C293 1.434 . S
C293 C284 1.429 . S
C293 N290 1.350 . S
C293 C292 1.434 . S
C294 C295 1.369 . S
C294 C296 1.419 . S
C294 H298 0.930 . S
C295 C294 1.369 . S
C295 C304 1.429 . S
C296 C294 1.419 . S
C296 C297 1.363 . S
C296 H299 0.929 . S
C297 C296 1.363 . S
C297 C303 1.428 . S
H298 C294 0.930 . S
H299 C296 0.929 . S
S300 N301 1.613 1_455 S
S300 N302 1.610 . S
N301 S300 1.613 1_655 S
N301 C304 1.350 . S
N302 S300 1.610 . S
N302 C303 1.351 1_455 S
C303 C297 1.428 . S
C303 N302 1.351 1_655 S
C303 C304 1.434 . S
C304 C295 1.429 . S
C304 N301 1.350 . S
C304 C303 1.434 . S
C305 C306 1.369 . S
C305 C307 1.419 . S
C305 H309 0.930 . S
C306 C305 1.369 . S
C306 C315 1.429 . S
C307 C305 1.419 . S
C307 C308 1.363 . S
C307 H310 0.929 . S
C308 C307 1.363 . S
C308 C314 1.428 . S
H309 C305 0.930 . S
H310 C307 0.929 . S
S311 N312 1.613 . S
S311 N313 1.610 . S
N312 S311 1.613 . S
N312 C315 1.350 . S
N313 S311 1.610 . S
N313 C314 1.351 . S
C314 C308 1.428 . S
C314 N313 1.351 . S
C314 C315 1.434 . S
C315 C306 1.429 . S
C315 N312 1.350 . S
C315 C314 1.434 . S
C316 C317 1.369 . S
C316 C318 1.419 . S
C316 H320 0.930 . S
C317 C316 1.369 . S
C317 C326 1.429 . S
C318 C316 1.419 . S
C318 C319 1.363 . S
C318 H321 0.929 . S
C319 C318 1.363 . S
C319 C325 1.428 . S
H320 C316 0.930 . S
H321 C318 0.929 . S
S322 N323 1.613 . S
S322 N324 1.610 . S
N323 S322 1.613 . S
N323 C326 1.350 . S
N324 S322 1.610 . S
N324 C325 1.351 . S
C325 C319 1.428 . S
C325 N324 1.351 . S
C325 C326 1.434 . S
C326 C317 1.429 . S
C326 N323 1.350 . S
C326 C325 1.434 . S
C327 C328 1.369 . S
C327 C329 1.419 . S
C327 H331 0.930 . S
C328 C327 1.369 . S
C328 C337 1.429 . S
C329 C327 1.419 . S
C329 C330 1.363 . S
C329 H332 0.929 . S
C330 C329 1.363 . S
C330 C336 1.428 . S
H331 C327 0.930 . S
H332 C329 0.929 . S
S333 N334 1.613 . S
S333 N335 1.610 . S
N334 S333 1.613 . S
N334 C337 1.350 . S
N335 S333 1.610 . S
N335 C336 1.351 . S
C336 C330 1.428 . S
C336 N335 1.351 . S
C336 C337 1.434 . S
C337 C328 1.429 . S
C337 N334 1.350 . S
C337 C336 1.434 . S
C338 C339 1.369 . S
C338 C340 1.419 . S
C338 H342 0.930 . S
C339 C338 1.369 . S
C339 C348 1.429 . S
C340 C338 1.419 . S
C340 C341 1.363 . S
C340 H343 0.929 . S
C341 C340 1.363 . S
C341 C347 1.428 . S
H342 C338 0.930 . S
H343 C340 0.929 . S
S344 N345 1.613 . S
S344 N346 1.610 . S
N345 S344 1.613 . S
N345 C348 1.350 . S
N346 S344 1.610 . S
N346 C347 1.351 . S
C347 C341 1.428 . S
C347 N346 1.351 . S
C347 C348 1.434 . S
C348 C339 1.429 . S
C348 N345 1.350 . S
C348 C347 1.434 . S
C349 C350 1.369 . S
C349 C351 1.419 . S
C349 H353 0.930 . S
C350 C349 1.369 . S
C350 C359 1.429 . S
C351 C349 1.419 . S
C351 C352 1.363 . S
C351 H354 0.929 . S
C352 C351 1.363 . S
C352 C358 1.428 . S
H353 C349 0.930 . S
H354 C351 0.929 . S
S355 N356 1.613 . S
S355 N357 1.610 . S
N356 S355 1.613 . S
N356 C359 1.350 . S
N357 S355 1.610 . S
N357 C358 1.351 . S
C358 C352 1.428 . S
C358 N357 1.351 . S
C358 C359 1.434 . S
C359 C350 1.429 . S
C359 N356 1.350 . S
C359 C358 1.434 . S
C360 C361 1.369 . S
C360 C362 1.419 . S
C360 H364 0.930 . S
C361 C360 1.369 . S
C361 C370 1.429 . S
C362 C360 1.419 . S
C362 C363 1.363 . S
C362 H365 0.929 . S
C363 C362 1.363 . S
C363 C369 1.428 . S
H364 C360 0.930 . S
H365 C362 0.929 . S
S366 N367 1.613 1_554 S
S366 N368 1.610 . S
N367 S366 1.613 1_556 S
N367 C370 1.350 . S
N368 S366 1.610 . S
N368 C369 1.351 1_554 S
C369 C363 1.428 . S
C369 N368 1.351 1_556 S
C369 C370 1.434 . S
C370 C361 1.429 . S
C370 N367 1.350 . S
C370 C369 1.434 . S
C371 C372 1.369 . S
C371 C373 1.419 . S
C371 H375 0.930 . S
C372 C371 1.369 . S
C372 C381 1.429 . S
C373 C371 1.419 . S
C373 C374 1.363 . S
C373 H376 0.929 . S
C374 C373 1.363 . S
C374 C380 1.428 . S
H375 C371 0.930 . S
H376 C373 0.929 . S
S377 N378 1.613 . S
S377 N379 1.610 . S
N378 S377 1.613 . S
N378 C381 1.350 . S
N379 S377 1.610 . S
N379 C380 1.351 . S
C380 C374 1.428 . S
C380 N379 1.351 . S
C380 C381 1.434 . S
C381 C372 1.429 . S
C381 N378 1.350 . S
C381 C380 1.434 . S
C382 C383 1.369 . S
C382 C384 1.419 . S
C382 H386 0.930 . S
C383 C382 1.369 . S
C383 C392 1.429 . S
C384 C382 1.419 . S
C384 C385 1.363 . S
C384 H387 0.929 . S
C385 C384 1.363 . S
C385 C391 1.428 . S
H386 C382 0.930 . S
H387 C384 0.929 . S
S388 N389 1.613 1_556 S
S388 N390 1.610 . S
N389 S388 1.613 1_554 S
N389 C392 1.350 . S
N390 S388 1.610 . S
N390 C391 1.351 1_556 S
C391 C385 1.428 . S
C391 N390 1.351 1_554 S
C391 C392 1.434 . S
C392 C383 1.429 . S
C392 N389 1.350 . S
C392 C391 1.434 . S
C393 C394 1.369 . S
C393 C395 1.419 . S
C393 H397 0.930 . S
C394 C393 1.369 . S
C394 C403 1.429 . S
C395 C393 1.419 . S
C395 C396 1.363 . S
C395 H398 0.929 . S
C396 C395 1.363 . S
C396 C402 1.428 . S
H397 C393 0.930 . S
H398 C395 0.929 . S
S399 N400 1.613 . S
S399 N401 1.610 . S
N400 S399 1.613 . S
N400 C403 1.350 . S
N401 S399 1.610 . S
N401 C402 1.351 . S
C402 C396 1.428 . S
C402 N401 1.351 . S
C402 C403 1.434 . S
C403 C394 1.429 . S
C403 N400 1.350 . S
C403 C402 1.434 . S
C404 C405 1.369 . S
C404 C406 1.419 . S
C404 H408 0.930 . S
C405 C404 1.369 . S
C405 C414 1.429 . S
C406 C404 1.419 . S
C406 C407 1.363 . S
C406 H409 0.929 . S
C407 C406 1.363 . S
C407 C413 1.428 . S
H408 C404 0.930 . S
H409 C406 0.929 . S
S410 N411 1.613 . S
S410 N412 1.610 . S
N411 S410 1.613 . S
N411 C414 1.350 . S
N412 S410 1.610 . S
N412 C413 1.351 . S
C413 C407 1.428 . S
C413 N412 1.351 . S
C413 C414 1.434 . S
C414 C405 1.429 . S
C414 N411 1.350 . S
C414 C413 1.434 . S
C415 C416 1.369 . S
C415 C417 1.419 . S
C415 H419 0.930 . S
C416 C415 1.369 . S
C416 C425 1.429 . S
C417 C415 1.419 . S
C417 C418 1.363 . S
C417 H420 0.929 . S
C418 C417 1.363 . S
C418 C424 1.428 . S
H419 C415 0.930 . S
H420 C417 0.929 . S
S421 N422 1.613 . S
S421 N423 1.610 . S
N422 S421 1.613 . S
N422 C425 1.350 . S
N423 S421 1.610 . S
N423 C424 1.351 . S
C424 C418 1.428 . S
C424 N423 1.351 . S
C424 C425 1.434 . S
C425 C416 1.429 . S
C425 N422 1.350 . S
C425 C424 1.434 . S
C426 C427 1.369 . S
C426 C428 1.419 . S
C426 H430 0.930 . S
C427 C426 1.369 . S
C427 C436 1.429 . S
C428 C426 1.419 . S
C428 C429 1.363 . S
C428 H431 0.929 . S
C429 C428 1.363 . S
C429 C435 1.428 . S
H430 C426 0.930 . S
H431 C428 0.929 . S
S432 N433 1.613 . S
S432 N434 1.610 . S
N433 S432 1.613 . S
N433 C436 1.350 . S
N434 S432 1.610 . S
N434 C435 1.351 . S
C435 C429 1.428 . S
C435 N434 1.351 . S
C435 C436 1.434 . S
C436 C427 1.429 . S
C436 N433 1.350 . S
C436 C435 1.434 . S
C437 C438 1.369 . S
C437 C439 1.419 . S
C437 H441 0.930 . S
C438 C437 1.369 . S
C438 C447 1.429 . S
C439 C437 1.419 . S
C439 C440 1.363 . S
C439 H442 0.929 . S
C440 C439 1.363 . S
C440 C446 1.428 . S
H441 C437 0.930 . S
H442 C439 0.929 . S
S443 N444 1.613 . S
S443 N445 1.610 . S
N444 S443 1.613 . S
N444 C447 1.350 . S
N445 S443 1.610 . S
N445 C446 1.351 . S
C446 C440 1.428 . S
C446 N445 1.351 . S
C446 C447 1.434 . S
C447 C438 1.429 . S
C447 N444 1.350 . S
C447 C446 1.434 . S
C185 N1 1.311 . S
C187 C106 1.351 . S
C196 N18 1.452 . S
C198 C125 1.479 . S
C209 C162 1.492 . S
C207 N28 1.524 . S
C218 N40 1.860 . S
C220 C172 1.871 . S
C231 C142 2.001 . S
C229 N5 1.976 . S
C242 C112 1.381 . S
C240 N14 1.412 . S
C253 C183 1.623 . S
C251 N31 1.606 . S
C264 C153 1.274 . S
C262 N41 1.294 . S
C273 N2 1.474 . S
C275 C166 1.500 . S
C286 C133 1.775 . S
C284 N27 1.826 . S
C295 N44 1.788 . S
C297 C123 1.825 . S
C306 N15 1.156 . S
C308 C145 1.135 . S
C319 C105 1.567 . S
C317 N57 1.605 . S
C328 N70 1.236 . S
C330 C126 1.263 . S
C339 N79 1.678 . S
C341 C163 1.714 . S
C350 N93 1.708 . S
C352 C173 1.691 . S
C361 N54 1.616 . S
C363 C143 1.676 . S
C374 C113 1.696 . S
C372 N66 1.784 . S
C385 C182 1.199 . S
C383 N80 1.226 . S
C396 C152 1.525 . S
C394 N96 1.532 . S
C405 N53 1.496 . S
C407 C165 1.523 . S
C418 C132 1.655 . S
C416 N83 1.652 . S
C429 C122 1.926 . S
C427 N92 1.900 . S
C438 N67 1.268 . S
C440 C146 1.302 . S
