# Generated by pormake.
# Topology pyr, (3,6)-cn, num edge types: 1
# Building blocks:
#     Node 0, Type 0, BuildingBlock: QEWDON_clean_linker_0, # of connection points: 3
#     Node 1, Type 0, BuildingBlock: QEWDON_clean_linker_0, # of connection points: 3
#     Node 2, Type 0, BuildingBlock: QEWDON_clean_linker_0, # of connection points: 3
#     Node 3, Type 0, BuildingBlock: QEWDON_clean_linker_0, # of connection points: 3
#     Node 4, Type 0, BuildingBlock: QEWDON_clean_linker_0, # of connection points: 3
#     Node 5, Type 0, BuildingBlock: QEWDON_clean_linker_0, # of connection points: 3
#     Node 6, Type 0, BuildingBlock: QEWDON_clean_linker_0, # of connection points: 3
#     Node 7, Type 0, BuildingBlock: QEWDON_clean_linker_0, # of connection points: 3
#     Node 8, Type 1, BuildingBlock: MIFKUJ_clean_sbu_0, # of connection points: 6
#     Node 9, Type 1, BuildingBlock: MIFKUJ_clean_sbu_0, # of connection points: 6
#     Node 10, Type 1, BuildingBlock: MIFKUJ_clean_sbu_0, # of connection points: 6
#     Node 11, Type 1, BuildingBlock: MIFKUJ_clean_sbu_0, # of connection points: 6
#     Edge 12, Type (0, 1), BuildingBlock: KIFKEQ_clean_linker_1, # of connection points: 2
#     Edge 13, Type (0, 1), BuildingBlock: KIFKEQ_clean_linker_1, # of connection points: 2
#     Edge 14, Type (0, 1), BuildingBlock: KIFKEQ_clean_linker_1, # of connection points: 2
#     Edge 15, Type (0, 1), BuildingBlock: KIFKEQ_clean_linker_1, # of connection points: 2
#     Edge 16, Type (0, 1), BuildingBlock: KIFKEQ_clean_linker_1, # of connection points: 2
#     Edge 17, Type (0, 1), BuildingBlock: KIFKEQ_clean_linker_1, # of connection points: 2
#     Edge 18, Type (0, 1), BuildingBlock: KIFKEQ_clean_linker_1, # of connection points: 2
#     Edge 19, Type (0, 1), BuildingBlock: KIFKEQ_clean_linker_1, # of connection points: 2
#     Edge 20, Type (0, 1), BuildingBlock: KIFKEQ_clean_linker_1, # of connection points: 2
#     Edge 21, Type (0, 1), BuildingBlock: KIFKEQ_clean_linker_1, # of connection points: 2
#     Edge 22, Type (0, 1), BuildingBlock: KIFKEQ_clean_linker_1, # of connection points: 2
#     Edge 23, Type (0, 1), BuildingBlock: KIFKEQ_clean_linker_1, # of connection points: 2
#     Edge 24, Type (0, 1), BuildingBlock: KIFKEQ_clean_linker_1, # of connection points: 2
#     Edge 25, Type (0, 1), BuildingBlock: KIFKEQ_clean_linker_1, # of connection points: 2
#     Edge 26, Type (0, 1), BuildingBlock: KIFKEQ_clean_linker_1, # of connection points: 2
#     Edge 27, Type (0, 1), BuildingBlock: KIFKEQ_clean_linker_1, # of connection points: 2
#     Edge 28, Type (0, 1), BuildingBlock: KIFKEQ_clean_linker_1, # of connection points: 2
#     Edge 29, Type (0, 1), BuildingBlock: KIFKEQ_clean_linker_1, # of connection points: 2
#     Edge 30, Type (0, 1), BuildingBlock: KIFKEQ_clean_linker_1, # of connection points: 2
#     Edge 31, Type (0, 1), BuildingBlock: KIFKEQ_clean_linker_1, # of connection points: 2
#     Edge 32, Type (0, 1), BuildingBlock: KIFKEQ_clean_linker_1, # of connection points: 2
#     Edge 33, Type (0, 1), BuildingBlock: KIFKEQ_clean_linker_1, # of connection points: 2
#     Edge 34, Type (0, 1), BuildingBlock: KIFKEQ_clean_linker_1, # of connection points: 2
#     Edge 35, Type (0, 1), BuildingBlock: KIFKEQ_clean_linker_1, # of connection points: 2
# Relax obj value: 0.096
# Max RMSD: 0.268
# Mean RMSD: 0.179
data_MOF--net-pyr--node1-MIFKUJ_clean_sbu_0--node2-QEWDON_clean_linker_0--edge1-KIFKEQ_clean_linker_1
_symmetry_space_group_name_H-M    P1
_symmetry_Int_Tables_number       1
_symmetry_cell_setting            triclinic
loop_
_symmetry_equiv_pos_as_xyz
'x, y, z'
_cell_length_a     39.566762
_cell_length_b     36.005246
_cell_length_c     41.045431
_cell_angle_alpha  85.708295
_cell_angle_beta   87.933279
_cell_angle_gamma 106.91597
loop_
_atom_site_label
_atom_site_type_symbol
_atom_site_fract_x
_atom_site_fract_y
_atom_site_fract_z
_atom_type_partial_charge
H0 H 0.27205 0.25384 0.19972 0.0
C1 C 0.25392 0.23783 0.21986 0.0
C2 C 0.25574 0.20109 0.23256 0.0
C3 C 0.23021 0.25501 0.23443 0.0
H4 H 0.2348 0.15345 0.27002 0.0
C5 C 0.23315 0.18146 0.25977 0.0
C6 C 0.20934 0.19849 0.27448 0.0
C7 C 0.20802 0.2352 0.2615 0.0
C8 C 0.23216 0.29601 0.22516 0.0
H9 H 0.19032 0.24899 0.27308 0.0
C10 C 0.20878 0.30597 0.20342 0.0
C11 C 0.20866 0.34506 0.19811 0.0
C12 C 0.25562 0.32527 0.24096 0.0
H13 H 0.27347 0.31798 0.25803 0.0
C14 C 0.25557 0.36395 0.23558 0.0
H15 H 0.19038 0.28348 0.19135 0.0
C16 C 0.23209 0.37381 0.21445 0.0
H17 H 0.23236 0.40401 0.21062 0.0
H18 H 0.27355 0.38631 0.24806 0.0
H19 H 0.31148 0.87695 0.78232 0.0
C20 C 0.32901 0.86617 0.76727 0.0
C21 C 0.36174 0.86459 0.77866 0.0
C22 C 0.3177 0.85063 0.73774 0.0
H23 H 0.40844 0.84699 0.76871 0.0
C24 C 0.38334 0.84844 0.75982 0.0
C25 C 0.37246 0.83329 0.73013 0.0
C26 C 0.33966 0.83477 0.71921 0.0
C27 C 0.28075 0.84396 0.7288 0.0
H28 H 0.33009 0.82136 0.69719 0.0
C29 C 0.26916 0.87383 0.7132 0.0
C30 C 0.23479 0.86508 0.70188 0.0
C31 C 0.25766 0.80585 0.73346 0.0
H32 H 0.26633 0.78247 0.7451 0.0
C33 C 0.22348 0.79742 0.72265 0.0
H34 H 0.28699 0.90319 0.70902 0.0
C35 C 0.21213 0.82681 0.70677 0.0
H36 H 0.18559 0.81971 0.69824 0.0
H37 H 0.2059 0.76795 0.72624 0.0
H38 H 0.71358 0.41566 0.84118 0.0
C39 C 0.70344 0.38666 0.85365 0.0
C40 C 0.72535 0.37201 0.87396 0.0
C41 C 0.66799 0.36508 0.85109 0.0
H42 H 0.72738 0.3256 0.90963 0.0
C43 C 0.71145 0.33565 0.89205 0.0
C44 C 0.67595 0.31422 0.88996 0.0
C45 C 0.65518 0.32808 0.86805 0.0
C46 C 0.64301 0.3827 0.83436 0.0
H47 H 0.62803 0.31084 0.86582 0.0
C48 C 0.65348 0.40719 0.80517 0.0
C49 C 0.62969 0.42447 0.79053 0.0
C50 C 0.60847 0.37607 0.84846 0.0
H51 H 0.5998 0.35838 0.87144 0.0
C52 C 0.58478 0.39288 0.83349 0.0
H53 H 0.67979 0.41263 0.79373 0.0
C54 C 0.59531 0.41703 0.80462 0.0
H55 H 0.57667 0.43005 0.79324 0.0
H56 H 0.55831 0.38746 0.84446 0.0
H57 H 0.861 0.76615 0.26345 0.0
C58 C 0.84248 0.74849 0.28267 0.0
C59 C 0.84398 0.75984 0.31463 0.0
C60 C 0.81552 0.71556 0.27526 0.0
H61 H 0.81912 0.74897 0.36303 0.0
C62 C 0.8188 0.73829 0.339 0.0
C63 C 0.79153 0.70569 0.33194 0.0
C64 C 0.79047 0.69412 0.29999 0.0
C65 C 0.81098 0.70548 0.24121 0.0
H66 H 0.7696 0.66898 0.29398 0.0
C67 C 0.83734 0.69496 0.2236 0.0
C68 C 0.83172 0.68313 0.19182 0.0
C69 C 0.77925 0.70491 0.22671 0.0
H70 H 0.75861 0.71289 0.23998 0.0
C71 C 0.77394 0.69419 0.19494 0.0
H72 H 0.86144 0.69449 0.23515 0.0
C73 C 0.79993 0.68333 0.17756 0.0
H74 H 0.79516 0.67512 0.15291 0.0
H75 H 0.74952 0.69405 0.18381 0.0
H76 H 0.79616 0.8114 0.85844 0.0
C77 C 0.80917 0.82611 0.83534 0.0
C78 C 0.84362 0.82535 0.82635 0.0
C79 C 0.79075 0.84441 0.81407 0.0
H80 H 0.88603 0.84323 0.78867 0.0
C81 C 0.85987 0.84448 0.79615 0.0
C82 C 0.84187 0.86335 0.77467 0.0
C83 C 0.80713 0.86283 0.7838 0.0
C84 C 0.75306 0.84063 0.82182 0.0
H85 H 0.79272 0.87682 0.76742 0.0
C86 C 0.74227 0.85749 0.84872 0.0
C87 C 0.70602 0.85283 0.85577 0.0
C88 C 0.72752 0.8192 0.80213 0.0
H89 H 0.73535 0.80596 0.78141 0.0
C90 C 0.69169 0.81419 0.80924 0.0
H91 H 0.76193 0.87422 0.8639 0.0
C92 C 0.68096 0.83082 0.83584 0.0
H93 H 0.65299 0.82717 0.84038 0.0
H94 H 0.67216 0.79753 0.79397 0.0
H95 H 0.71709 0.20677 0.42337 0.0
C96 C 0.70971 0.20165 0.39854 0.0
C97 C 0.7297 0.18521 0.37806 0.0
C98 C 0.67945 0.21018 0.38745 0.0
H99 H 0.73348 0.16346 0.33077 0.0
C100 C 0.71881 0.17712 0.34637 0.0
C101 C 0.68828 0.18524 0.3352 0.0
C102 C 0.66909 0.20223 0.35585 0.0
C103 C 0.65501 0.22084 0.41036 0.0
H104 H 0.64473 0.20721 0.34807 0.0
C105 C 0.65911 0.25988 0.41632 0.0
C106 C 0.63413 0.2688 0.43725 0.0
C107 C 0.62588 0.19121 0.42504 0.0
H108 H 0.62216 0.16112 0.42028 0.0
C109 C 0.60117 0.20014 0.44568 0.0
H110 H 0.68131 0.28298 0.40473 0.0
C111 C 0.60528 0.23869 0.45185 0.0
H112 H 0.58573 0.24515 0.46786 0.0
H113 H 0.57868 0.17714 0.45681 0.0
H114 H 0.37005 0.71789 0.28132 0.0
C115 C 0.34602 0.71387 0.26846 0.0
C116 C 0.34265 0.74471 0.24706 0.0
C117 C 0.31877 0.67798 0.27252 0.0
H118 H 0.3109 0.76269 0.21133 0.0
C119 C 0.31288 0.73923 0.22863 0.0
C120 C 0.28687 0.70327 0.23046 0.0
C121 C 0.2891 0.67337 0.25343 0.0
C122 C 0.32151 0.64496 0.29565 0.0
H123 H 0.26806 0.64615 0.25557 0.0
C124 C 0.3407 0.65198 0.32399 0.0
C125 C 0.34281 0.62087 0.3457 0.0
C126 C 0.30488 0.60588 0.28964 0.0
H127 H 0.29119 0.59865 0.26759 0.0
C128 C 0.30618 0.5751 0.31182 0.0
H129 H 0.35391 0.68143 0.32956 0.0
C130 C 0.32497 0.5825 0.33981 0.0
H131 H 0.32658 0.55823 0.35633 0.0
H132 H 0.29313 0.54534 0.30695 0.0
H133 H 0.23194 0.39876 0.78917 0.0
C134 C 0.21758 0.37747 0.77343 0.0
C135 C 0.23295 0.37478 0.74254 0.0
C136 C 0.18477 0.35099 0.78496 0.0
H137 H 0.22594 0.34332 0.6992 0.0
C138 C 0.21464 0.34585 0.7231 0.0
C139 C 0.18182 0.31978 0.73417 0.0
C140 C 0.1668 0.3226 0.76487 0.0
C141 C 0.1705 0.35075 0.81889 0.0
H142 H 0.14162 0.3019 0.77349 0.0
C143 C 0.16907 0.38546 0.8317 0.0
C144 C 0.15556 0.38479 0.864 0.0
C145 C 0.15838 0.31538 0.83878 0.0
H146 H 0.15952 0.28829 0.82964 0.0
C147 C 0.14514 0.31466 0.87082 0.0
H148 H 0.17818 0.41282 0.81649 0.0
C149 C 0.1437 0.34908 0.88341 0.0
H150 H 0.13261 0.34763 0.90816 0.0
H151 H 0.13581 0.28728 0.88591 0.0
Zn152 Zn 0.05037 0.05087 0.54982 0.0
Zn153 Zn 0.96499 0.03629 0.48947 0.0
C154 C 0.09328 0.11548 0.57823 0.0
O155 O 0.11721 0.10571 0.56058 0.0
C156 C 0.92305 0.9685 0.45981 0.0
O157 O 0.89809 0.96912 0.48159 0.0
O158 O 0.08337 0.02024 0.56473 0.0
O159 O 1.00052 0.01846 0.56244 0.0
O160 O 0.95163 0.00899 0.53552 0.0
C161 C 0.0813 0.00935 0.59512 0.0
O162 O 0.05706 0.01666 0.6142 0.0
O163 O 0.06091 0.09645 0.57695 0.0
C164 C 0.92852 0.07937 0.4493 0.0
O165 O 0.94674 0.0686 0.42635 0.0
O166 O 0.93278 0.07023 0.47912 0.0
O167 O 0.01616 0.06431 0.47398 0.0
O168 O 0.06367 0.07188 0.50293 0.0
O169 O 0.95304 0.99386 0.45927 0.0
C170 C 0.9675 0.00287 0.56087 0.0
C171 C 0.0495 0.07681 0.47628 0.0
Zn172 Zn 0.51423 0.99197 0.03458 0.0
Zn173 Zn 0.48941 0.05863 0.10518 0.0
C174 C 0.47422 0.94201 0.98986 0.0
O175 O 0.49286 0.92015 1.00223 0.0
C176 C 0.54501 0.09959 0.1422 0.0
O177 O 0.54358 0.1268 0.11956 0.0
O178 O 0.55541 0.97288 0.0197 0.0
O179 O 0.53226 0.05011 0.03041 0.0
O180 O 0.51832 0.08866 0.06515 0.0
C181 C 0.56978 0.98502 0.99113 0.0
O182 O 0.55827 0.01014 0.97331 0.0
O183 O 0.47671 0.97446 1.00147 0.0
C184 C 0.43809 0.07813 0.14694 0.0
O185 O 0.44809 0.05413 0.16744 0.0
O186 O 0.45195 0.08497 0.11779 0.0
O187 O 0.46466 0.00149 0.10084 0.0
O188 O 0.49749 0.9674 0.0802 0.0
O189 O 0.52349 0.06555 0.14185 0.0
C190 C 0.53447 0.08377 0.03921 0.0
C191 C 0.4781 0.97336 0.10346 0.0
Zn192 Zn 0.54429 0.54884 0.54295 0.0
Zn193 Zn 0.5141 0.60306 0.59477 0.0
C194 C 0.58292 0.60668 0.49443 0.0
O195 O 0.55398 0.59248 0.47921 0.0
C196 C 0.46686 0.55482 0.64518 0.0
O197 O 0.48731 0.58065 0.66247 0.0
O198 O 0.55359 0.50428 0.52019 0.0
O199 O 0.55111 0.53787 0.59009 0.0
O200 O 0.56082 0.59647 0.60754 0.0
C201 C 0.58544 0.50298 0.5199 0.0
O202 O 0.60887 0.52934 0.53436 0.0
O203 O 0.58411 0.59481 0.52416 0.0
C204 C 0.47704 0.65499 0.61114 0.0
O205 O 0.45541 0.63254 0.59225 0.0
O206 O 0.50645 0.6487 0.61645 0.0
O207 O 0.50676 0.61432 0.54719 0.0
O208 O 0.49791 0.55568 0.53004 0.0
O209 O 0.47405 0.55675 0.61449 0.0
C210 C 0.56754 0.56404 0.60768 0.0
C211 C 0.49274 0.58898 0.52788 0.0
Zn212 Zn 1.00115 0.60342 0.97188 0.0
Zn213 Zn 0.05975 0.55949 0.0417 0.0
C214 C 0.95841 0.54533 0.93421 0.0
O215 O 0.98566 0.55771 0.91282 0.0
C216 C 0.11031 0.62979 0.06071 0.0
O217 O 0.08697 0.64849 0.05448 0.0
O218 O 0.99095 0.65301 0.95385 0.0
O219 O 1.002 0.59687 0.02252 0.0
O220 O 0.02272 0.57498 0.06717 0.0
C221 C 0.9593 0.65376 0.95942 0.0
O222 O 0.93744 0.62489 0.97805 0.0
O223 O 0.95946 0.56035 0.96131 0.0
C224 C 0.09549 0.50291 0.05272 0.0
O225 O 0.11934 0.53141 0.03544 0.0
O226 O 0.06409 0.50546 0.05649 0.0
O227 O 0.05221 0.57407 0.99593 0.0
O228 O 0.043 0.59344 0.9471 0.0
O229 O 0.10444 0.59485 0.05393 0.0
C230 C 1.00256 0.59279 0.05372 0.0
C231 C 0.05942 0.57589 0.96559 0.0
H232 H 0.16537 0.12367 0.28504 0.0
H233 H 0.20337 0.23032 0.33168 0.0
H234 H 0.12652 0.09386 0.3339 0.0
H235 H 0.16483 0.2007 0.38033 0.0
H236 H 0.11947 0.11885 0.4735 0.0
H237 H 0.15865 0.14684 0.425 0.0
H238 H 0.07214 0.10408 0.36336 0.0
H239 H 0.03268 0.07609 0.41193 0.0
C240 C 0.16556 0.14058 0.30581 0.0
C241 C 0.18716 0.17936 0.30452 0.0
C242 C 0.14318 0.12368 0.33363 0.0
C243 C 0.14251 0.14502 0.36089 0.0
C244 C 0.16483 0.18346 0.35981 0.0
C245 C 0.18673 0.20049 0.33189 0.0
C246 C 0.10869 0.11547 0.44964 0.0
C247 C 0.07286 0.09524 0.44668 0.0
C248 C 0.13117 0.13161 0.42185 0.0
C249 C 0.11852 0.12755 0.39036 0.0
C250 C 0.08273 0.10733 0.3873 0.0
C251 C 0.06008 0.0916 0.41515 0.0
H252 H 0.37211 0.93569 0.80319 0.0
H253 H 0.37525 0.81839 0.8283 0.0
H254 H 0.3968 0.95495 0.85553 0.0
H255 H 0.3981 0.83661 0.88086 0.0
H256 H 0.48183 0.88893 0.9489 0.0
H257 H 0.45209 0.87144 0.89938 0.0
H258 H 0.39087 0.95121 0.91419 0.0
H259 H 0.42231 0.9702 0.96358 0.0
C260 C 0.37748 0.91395 0.82025 0.0
C261 C 0.37231 0.87575 0.81167 0.0
C262 C 0.39149 0.92484 0.85026 0.0
C263 C 0.40017 0.89755 0.87234 0.0
C264 C 0.39291 0.85881 0.86421 0.0
C265 C 0.37951 0.84819 0.83419 0.0
C266 C 0.46183 0.9026 0.94186 0.0
C267 C 0.45423 0.9307 0.96044 0.0
C268 C 0.44452 0.89236 0.9134 0.0
C269 C 0.41852 0.90936 0.90282 0.0
C270 C 0.41086 0.93763 0.92139 0.0
C271 C 0.42868 0.94835 0.94982 0.0
H272 H 0.62067 0.403 0.72938 0.0
H273 H 0.65883 0.50281 0.78422 0.0
H274 H 0.61951 0.44554 0.68094 0.0
H275 H 0.65901 0.54628 0.73531 0.0
H276 H 0.57864 0.5864 0.6694 0.0
H277 H 0.60933 0.55888 0.71076 0.0
H278 H 0.6438 0.49432 0.63821 0.0
H279 H 0.61116 0.51995 0.59767 0.0
C280 C 0.63034 0.43428 0.73044 0.0
C281 C 0.63969 0.44995 0.76011 0.0
C282 C 0.62987 0.45882 0.70271 0.0
C283 C 0.63871 0.49945 0.70434 0.0
C284 C 0.65145 0.51513 0.73344 0.0
C285 C 0.65169 0.49043 0.76128 0.0
C286 C 0.5935 0.56704 0.66225 0.0
C287 C 0.59201 0.55458 0.63066 0.0
C288 C 0.61139 0.55148 0.68583 0.0
C289 C 0.62855 0.52379 0.67792 0.0
C290 C 0.63009 0.51475 0.64531 0.0
C291 C 0.6115 0.52951 0.62206 0.0
H292 H 0.90401 0.71447 0.18704 0.0
H293 H 0.81928 0.62035 0.15607 0.0
H294 H 0.9469 0.69313 0.1545 0.0
H295 H 0.86188 0.59954 0.12347 0.0
H296 H 0.94013 0.60489 0.03836 0.0
H297 H 0.90048 0.62802 0.07289 0.0
H298 H 0.97141 0.63531 0.15132 0.0
H299 H 0.01153 0.61282 0.11633 0.0
C300 C 0.8946 0.68909 0.17354 0.0
C301 C 0.85823 0.66943 0.17369 0.0
C302 C 0.9191 0.67694 0.15494 0.0
C303 C 0.90757 0.64505 0.13614 0.0
C304 C 0.87138 0.62476 0.13714 0.0
C305 C 0.84701 0.63674 0.15576 0.0
C306 C 0.94748 0.61198 0.06273 0.0
C307 C 0.97887 0.60722 0.07457 0.0
C308 C 0.92464 0.62478 0.08265 0.0
C309 C 0.93282 0.6332 0.11482 0.0
C310 C 0.96457 0.62916 0.12656 0.0
C311 C 0.98732 0.61602 0.10665 0.0
H312 H 0.30512 0.17733 0.26568 0.0
H313 H 0.26819 0.18821 0.16892 0.0
H314 H 0.35013 0.15025 0.24419 0.0
H315 H 0.31209 0.15911 0.14728 0.0
H316 H 0.41509 0.13492 0.11384 0.0
H317 H 0.37226 0.16636 0.13378 0.0
H318 H 0.35689 0.09376 0.2251 0.0
H319 H 0.40042 0.06387 0.20575 0.0
C320 C 0.30641 0.17338 0.2398 0.0
C321 C 0.28297 0.18447 0.21902 0.0
C322 C 0.33212 0.15765 0.2274 0.0
C323 C 0.33469 0.15183 0.19393 0.0
C324 C 0.31135 0.16344 0.17308 0.0
C325 C 0.28599 0.17988 0.18546 0.0
C326 C 0.40257 0.1258 0.13819 0.0
C327 C 0.41137 0.09693 0.15819 0.0
C328 C 0.3778 0.14368 0.14961 0.0
C329 C 0.36104 0.13294 0.18125 0.0
C330 C 0.36967 0.10366 0.20094 0.0
C331 C 0.39454 0.08614 0.18967 0.0
H332 H 0.22672 0.87453 0.63687 0.0
H333 H 0.21149 0.92064 0.72834 0.0
H334 H 0.19271 0.91343 0.60978 0.0
H335 H 0.17771 0.96009 0.70142 0.0
H336 H 0.07661 0.97164 0.65584 0.0
H337 H 0.1191 0.94277 0.68049 0.0
H338 H 0.18722 0.97747 0.59201 0.0
H339 H 0.14408 0.00571 0.56695 0.0
C340 C 0.21692 0.89401 0.65085 0.0
C341 C 0.22173 0.89498 0.6845 0.0
C342 C 0.19746 0.91626 0.63542 0.0
C343 C 0.18208 0.93949 0.65352 0.0
C344 C 0.18872 0.94202 0.6869 0.0
C345 C 0.20838 0.91991 0.70225 0.0
C346 C 0.10066 0.97319 0.64162 0.0
C347 C 0.10693 0.99091 0.60942 0.0
C348 C 0.12522 0.95696 0.65588 0.0
C349 C 0.15681 0.95822 0.63839 0.0
C350 C 0.16307 0.97583 0.60609 0.0
C351 C 0.13834 0.99196 0.59173 0.0
H352 H 0.7436 0.44731 0.8886 0.0
H353 H 0.78716 0.3525 0.87368 0.0
H354 H 0.80135 0.48727 0.9029 0.0
H355 H 0.84528 0.39276 0.88817 0.0
H356 H 0.94866 0.50174 0.88167 0.0
H357 H 0.89293 0.45812 0.86582 0.0
H358 H 0.83883 0.48092 0.95185 0.0
H359 H 0.89418 0.52423 0.96784 0.0
C360 C 0.7657 0.43526 0.88791 0.0
C361 C 0.76107 0.39692 0.87994 0.0
C362 C 0.79858 0.45795 0.89642 0.0
C363 C 0.82752 0.44287 0.89686 0.0
C364 C 0.82328 0.40496 0.88793 0.0
C365 C 0.79016 0.382 0.87979 0.0
C366 C 0.9249 0.49717 0.89731 0.0
C367 C 0.92569 0.51662 0.92584 0.0
C368 C 0.89315 0.47214 0.8883 0.0
C369 C 0.8617 0.46662 0.90748 0.0
C370 C 0.86271 0.48518 0.93645 0.0
C371 C 0.89442 0.50979 0.94565 0.0
H372 H 0.79538 0.69291 0.39832 0.0
H373 H 0.72074 0.67758 0.32242 0.0
H374 H 0.74669 0.67432 0.43971 0.0
H375 H 0.67223 0.65524 0.36361 0.0
H376 H 0.58999 0.65577 0.43949 0.0
H377 H 0.64193 0.68021 0.40159 0.0
H378 H 0.70065 0.62483 0.46613 0.0
H379 H 0.64945 0.60305 0.50486 0.0
C380 C 0.76859 0.68505 0.39042 0.0
C381 C 0.76211 0.68737 0.35696 0.0
C382 C 0.74059 0.67392 0.41422 0.0
C383 C 0.70536 0.66395 0.40514 0.0
C384 C 0.69895 0.66395 0.37164 0.0
C385 C 0.72692 0.67589 0.34787 0.0
C386 C 0.61435 0.64977 0.44581 0.0
C387 C 0.61577 0.62754 0.47495 0.0
C388 C 0.64398 0.66318 0.42391 0.0
C389 C 0.67533 0.65363 0.43028 0.0
C390 C 0.67715 0.63301 0.46036 0.0
C391 C 0.64776 0.62048 0.48264 0.0
H392 H 0.2137 0.34972 0.13174 0.0
H393 H 0.15147 0.36909 0.2135 0.0
H394 H 0.18175 0.38133 0.09409 0.0
H395 H 0.1194 0.40089 0.17609 0.0
H396 H 0.05668 0.44257 0.09703 0.0
H397 H 0.07915 0.39669 0.13069 0.0
H398 H 0.1835 0.44911 0.08388 0.0
H399 H 0.16125 0.49377 0.05018 0.0
C400 C 0.19247 0.35984 0.14148 0.0
C401 C 0.18481 0.35691 0.17533 0.0
C402 C 0.17439 0.37826 0.12005 0.0
C403 C 0.14819 0.394 0.13207 0.0
C404 C 0.13918 0.3889 0.16594 0.0
C405 C 0.15754 0.3708 0.18737 0.0
C406 C 0.08424 0.44374 0.09358 0.0
C407 C 0.10706 0.47182 0.07078 0.0
C408 C 0.09717 0.41766 0.113 0.0
C409 C 0.13312 0.41905 0.10989 0.0
C410 C 0.15555 0.44654 0.08652 0.0
C411 C 0.14272 0.47242 0.06724 0.0
H412 H 0.699 0.25158 0.91007 0.0
H413 H 0.61398 0.30257 0.92492 0.0
H414 H 0.66811 0.19633 0.94953 0.0
H415 H 0.58293 0.24748 0.96296 0.0
H416 H 0.54761 0.16067 0.05004 0.0
H417 H 0.58639 0.21704 0.01708 0.0
H418 H 0.61328 0.14103 0.95062 0.0
H419 H 0.57527 0.08469 0.98383 0.0
C420 C 0.67382 0.25094 0.92176 0.0
C421 C 0.65854 0.28087 0.91403 0.0
C422 C 0.65611 0.21939 0.94414 0.0
C423 C 0.62311 0.21765 0.95927 0.0
C424 C 0.60847 0.24817 0.95205 0.0
C425 C 0.62602 0.27943 0.92982 0.0
C426 C 0.56184 0.15593 0.02846 0.0
C427 C 0.55791 0.11813 0.01934 0.0
C428 C 0.58407 0.18822 0.00961 0.0
C429 C 0.60273 0.18339 0.98121 0.0
C430 C 0.59954 0.14563 0.97256 0.0
C431 C 0.57736 0.11335 0.99141 0.0
H432 H 0.83166 0.82929 0.30605 0.0
H433 H 0.90585 0.77301 0.34489 0.0
H434 H 0.85547 0.88422 0.33861 0.0
H435 H 0.93045 0.82857 0.37693 0.0
H436 H 0.97048 0.95593 0.41494 0.0
H437 H 0.95837 0.91017 0.37256 0.0
H438 H 0.84805 0.87139 0.40583 0.0
H439 H 0.85993 0.91647 0.4485 0.0
C440 C 0.85439 0.8298 0.32017 0.0
C441 C 0.86734 0.79742 0.32279 0.0
C442 C 0.86767 0.86087 0.33905 0.0
C443 C 0.89441 0.86017 0.36042 0.0
C444 C 0.90989 0.82968 0.36049 0.0
C445 C 0.89611 0.79817 0.34201 0.0
C446 C 0.94364 0.93757 0.41328 0.0
C447 C 0.91607 0.93994 0.43498 0.0
C448 C 0.93683 0.91151 0.38903 0.0
C449 C 0.90228 0.88793 0.38577 0.0
C450 C 0.87483 0.88994 0.40759 0.0
C451 C 0.88167 0.91552 0.4321 0.0
H452 H 0.40487 0.78105 0.75546 0.0
H453 H 0.38684 0.83777 0.66401 0.0
H454 H 0.43419 0.7419 0.72564 0.0
H455 H 0.41625 0.79856 0.63413 0.0
H456 H 0.42195 0.68275 0.59652 0.0
H457 H 0.40088 0.7296 0.62458 0.0
H458 H 0.48612 0.74344 0.68981 0.0
H459 H 0.50711 0.69591 0.66181 0.0
C460 C 0.40788 0.78578 0.72901 0.0
C461 C 0.39349 0.81247 0.71207 0.0
C462 C 0.42467 0.76332 0.71192 0.0
C463 C 0.42739 0.767 0.67753 0.0
C464 C 0.41409 0.79465 0.66063 0.0
C465 C 0.39729 0.81711 0.67771 0.0
C466 C 0.43638 0.69593 0.61671 0.0
C467 C 0.46613 0.68554 0.62702 0.0
C468 C 0.42445 0.72305 0.63264 0.0
C469 C 0.44187 0.7403 0.65938 0.0
C470 C 0.47201 0.73042 0.66941 0.0
C471 C 0.48414 0.7034 0.65327 0.0
H472 H 0.81298 0.86084 0.71467 0.0
H473 H 0.90987 0.90975 0.76171 0.0
H474 H 0.84191 0.89182 0.66189 0.0
H475 H 0.93861 0.94117 0.7093 0.0
H476 H 0.9923 0.96319 0.6088 0.0
H477 H 0.96106 0.92766 0.65896 0.0
H478 H 0.86559 0.95298 0.62992 0.0
H479 H 0.89687 0.98758 0.57897 0.0
C480 C 0.84037 0.87853 0.71379 0.0
C481 C 0.85915 0.88272 0.74244 0.0
C482 C 0.85698 0.89633 0.6835 0.0
C483 C 0.89276 0.91889 0.68111 0.0
C484 C 0.91131 0.92333 0.70991 0.0
C485 C 0.89479 0.90539 0.74008 0.0
C486 C 0.96463 0.96116 0.61308 0.0
C487 C 0.94723 0.97872 0.59009 0.0
C488 C 0.94668 0.94089 0.64198 0.0
C489 C 0.91087 0.93795 0.64896 0.0
C490 C 0.89309 0.9544 0.62539 0.0
C491 C 0.91103 0.97437 0.59619 0.0
H492 H 0.66529 0.22829 0.28838 0.0
H493 H 0.67818 0.11437 0.31079 0.0
H494 H 0.63396 0.20586 0.2402 0.0
H495 H 0.64731 0.09187 0.26201 0.0
H496 H 0.54723 0.05691 0.20013 0.0
H497 H 0.58645 0.07708 0.24446 0.0
H498 H 0.64012 0.18478 0.18654 0.0
H499 H 0.60064 0.16512 0.14281 0.0
C500 C 0.66189 0.19858 0.28264 0.0
C501 C 0.67413 0.17309 0.30336 0.0
C502 C 0.6441 0.18573 0.25492 0.0
C503 C 0.63793 0.14695 0.24725 0.0
C504 C 0.65126 0.12177 0.2674 0.0
C505 C 0.66932 0.13477 0.29509 0.0
C506 C 0.56763 0.0847 0.1968 0.0
C507 C 0.5705 0.10958 0.16811 0.0
C508 C 0.59025 0.09621 0.22212 0.0
C509 C 0.61627 0.13276 0.21921 0.0
C510 C 0.61995 0.15681 0.18991 0.0
C511 C 0.59733 0.14543 0.16477 0.0
H512 H 0.32352 0.61074 0.41077 0.0
H513 H 0.41417 0.64453 0.34165 0.0
H514 H 0.36264 0.61046 0.4559 0.0
H515 H 0.45318 0.64305 0.38657 0.0
H516 H 0.48025 0.55603 0.47022 0.0
H517 H 0.44639 0.57319 0.42598 0.0
H518 H 0.42411 0.66153 0.48125 0.0
H519 H 0.4592 0.64552 0.52526 0.0
C520 C 0.35188 0.61899 0.40548 0.0
C521 C 0.36612 0.62771 0.37307 0.0
C522 C 0.37414 0.6189 0.43112 0.0
C523 C 0.41068 0.6266 0.42442 0.0
C524 C 0.42503 0.6371 0.39213 0.0
C525 C 0.40286 0.63804 0.3666 0.0
C526 C 0.46833 0.57925 0.47291 0.0
C527 C 0.47221 0.59932 0.50125 0.0
C528 C 0.44922 0.5892 0.44755 0.0
C529 C 0.43299 0.61872 0.45039 0.0
C530 C 0.43662 0.63876 0.47865 0.0
C531 C 0.45656 0.62951 0.50373 0.0
H532 H 0.17304 0.4101 0.92391 0.0
H533 H 0.12958 0.44015 0.83413 0.0
H534 H 0.15868 0.46349 0.94884 0.0
H535 H 0.11482 0.49322 0.8591 0.0
H536 H 0.10095 0.59533 0.90854 0.0
H537 H 0.13372 0.55555 0.88325 0.0
H538 H 0.10148 0.46956 0.9665 0.0
H539 H 0.06878 0.50894 0.99101 0.0
C540 C 0.16078 0.42844 0.90941 0.0
C541 C 0.152 0.42071 0.87725 0.0
C542 C 0.15259 0.45899 0.92365 0.0
C543 C 0.13527 0.48229 0.90606 0.0
C544 C 0.12852 0.47608 0.87319 0.0
C545 C 0.13687 0.4456 0.8589 0.0
C546 C 0.1017 0.56832 0.92159 0.0
C547 C 0.0833 0.55558 0.95216 0.0
C548 C 0.12027 0.54553 0.90714 0.0
C549 C 0.1204 0.50953 0.92296 0.0
C550 C 0.10279 0.49758 0.95402 0.0
C551 C 0.08428 0.52028 0.9683 0.0
H552 H 0.73164 0.92875 0.86977 0.0
H553 H 0.65205 0.82057 0.90194 0.0
H554 H 0.70452 0.96273 0.90765 0.0
H555 H 0.62456 0.85442 0.9392 0.0
H556 H 0.58966 0.92171 0.01506 0.0
H557 H 0.62901 0.89084 0.98775 0.0
H558 H 0.64882 0.97964 0.90674 0.0
H559 H 0.61004 0.01062 0.93406 0.0
C560 C 0.70885 0.9121 0.88546 0.0
C561 C 0.69374 0.8721 0.88267 0.0
C562 C 0.6931 0.93159 0.90691 0.0
C563 C 0.66212 0.91138 0.92619 0.0
C564 C 0.64848 0.87088 0.9249 0.0
C565 C 0.66406 0.85151 0.90335 0.0
C566 C 0.60288 0.93497 0.99167 0.0
C567 C 0.59649 0.96847 0.97663 0.0
C568 C 0.62529 0.91718 0.97596 0.0
C569 C 0.642 0.93269 0.94501 0.0
C570 C 0.63677 0.96715 0.93072 0.0
C571 C 0.61425 0.98475 0.94629 0.0
H572 H 0.79645 0.20383 0.34937 0.0
H573 H 0.73228 0.14116 0.43449 0.0
H574 H 0.84635 0.18286 0.36818 0.0
H575 H 0.78148 0.11849 0.45277 0.0
H576 H 0.88397 0.10392 0.48992 0.0
H577 H 0.83793 0.13339 0.47423 0.0
H578 H 0.86511 0.12705 0.37225 0.0
H579 H 0.91168 0.09921 0.38789 0.0
C580 C 0.79307 0.18541 0.37208 0.0
C581 C 0.76053 0.17403 0.39041 0.0
C582 C 0.82158 0.17315 0.38284 0.0
C583 C 0.81806 0.14854 0.41193 0.0
C584 C 0.78554 0.13783 0.43055 0.0
C585 C 0.75721 0.15065 0.42002 0.0
C586 C 0.88033 0.10925 0.46415 0.0
C587 C 0.9016 0.09917 0.44019 0.0
C588 C 0.85369 0.12588 0.45512 0.0
C589 C 0.84756 0.1327 0.42189 0.0
C590 C 0.86927 0.12303 0.39804 0.0
C591 C 0.89594 0.10669 0.40705 0.0
H592 H 0.21638 0.66179 0.23959 0.0
H593 H 0.29627 0.72751 0.16541 0.0
H594 H 0.17335 0.6469 0.19748 0.0
H595 H 0.25279 0.71411 0.1241 0.0
H596 H 0.14526 0.70546 0.07114 0.0
H597 H 0.18787 0.72678 0.11326 0.0
H598 H 0.17751 0.60667 0.14467 0.0
H599 H 0.13642 0.58544 0.10273 0.0
C600 C 0.22467 0.67338 0.21452 0.0
C601 C 0.25966 0.69611 0.20594 0.0
C602 C 0.20005 0.66514 0.19058 0.0
C603 C 0.20996 0.67995 0.1579 0.0
C604 C 0.24455 0.70321 0.14935 0.0
C605 C 0.26928 0.7109 0.17308 0.0
C606 C 0.15247 0.68385 0.08691 0.0
C607 C 0.13779 0.64397 0.08362 0.0
C608 C 0.17656 0.69593 0.11089 0.0
C609 C 0.1852 0.66815 0.13225 0.0
C610 C 0.17075 0.62846 0.12869 0.0
C611 C 0.14756 0.61647 0.10443 0.0
H612 H 0.26052 0.45349 0.74728 0.0
H613 H 0.28645 0.35467 0.71151 0.0
H614 H 0.31808 0.49617 0.72493 0.0
H615 H 0.34347 0.39727 0.68887 0.0
H616 H 0.42071 0.49384 0.61851 0.0
H617 H 0.36499 0.45016 0.64362 0.0
H618 H 0.3829 0.50881 0.7322 0.0
H619 H 0.43849 0.55248 0.7072 0.0
C620 C 0.27858 0.44082 0.73494 0.0
C621 C 0.26866 0.40075 0.73081 0.0
C622 C 0.31152 0.46525 0.72211 0.0
C623 C 0.33517 0.45012 0.70484 0.0
C624 C 0.32557 0.40994 0.70146 0.0
C625 C 0.29284 0.38556 0.7144 0.0
C626 C 0.41288 0.49725 0.6434 0.0
C627 C 0.43409 0.52663 0.66082 0.0
C628 C 0.38102 0.47216 0.65784 0.0
C629 C 0.3695 0.47613 0.68988 0.0
C630 C 0.39086 0.50529 0.70737 0.0
C631 C 0.42286 0.53011 0.69308 0.0
H632 H 0.91335 0.84564 0.84142 0.0
H633 H 0.81506 0.75297 0.85844 0.0
H634 H 0.94311 0.80709 0.87479 0.0
H635 H 0.84467 0.71444 0.89142 0.0
H636 H 0.89703 0.66837 0.97353 0.0
H637 H 0.8705 0.71187 0.94283 0.0
H638 H 0.96274 0.74928 0.87527 0.0
H639 H 0.98981 0.70621 0.90673 0.0
C640 C 0.89812 0.81701 0.85221 0.0
C641 C 0.86175 0.80255 0.84746 0.0
C642 C 0.9152 0.79487 0.87128 0.0
C643 C 0.89631 0.7577 0.88601 0.0
C644 C 0.85995 0.74327 0.88112 0.0
C645 C 0.84291 0.7654 0.86217 0.0
C646 C 0.91188 0.68615 0.95232 0.0
C647 C 0.94549 0.68367 0.9425 0.0
C648 C 0.89651 0.71092 0.93453 0.0
C649 C 0.9142 0.73374 0.90625 0.0
C650 C 0.94843 0.73234 0.89704 0.0
C651 C 0.96396 0.70761 0.91504 0.0
H652 H 0.33809 0.81807 0.24984 0.0
H653 H 0.41075 0.75386 0.22576 0.0
H654 H 0.37686 0.87632 0.21952 0.0
H655 H 0.45069 0.8127 0.19634 0.0
H656 H 0.47107 0.89591 0.10176 0.0
H657 H 0.4454 0.84376 0.14444 0.0
H658 H 0.42977 0.92798 0.20871 0.0
H659 H 0.4542 0.9801 0.16516 0.0
C660 C 0.36326 0.81704 0.23925 0.0
C661 C 0.3714 0.78156 0.23986 0.0
C662 C 0.38556 0.85044 0.22183 0.0
C663 C 0.4166 0.84905 0.20482 0.0
C664 C 0.42654 0.81451 0.2085 0.0
C665 C 0.40405 0.78097 0.22583 0.0
C666 C 0.46246 0.90333 0.12511 0.0
C667 C 0.46432 0.94203 0.13008 0.0
C668 C 0.44805 0.87344 0.14977 0.0
C669 C 0.43567 0.88158 0.18021 0.0
C670 C 0.43864 0.92056 0.18547 0.0
C671 C 0.45258 0.95042 0.16057 0.0
H672 H 0.20472 0.25809 0.72322 0.0
H673 H 0.12164 0.30959 0.70107 0.0
H674 H 0.18086 0.20729 0.68694 0.0
H675 H 0.09813 0.25946 0.66358 0.0
H676 H 0.05101 0.14209 0.61922 0.0
H677 H 0.06987 0.18984 0.65923 0.0
H678 H 0.17913 0.20566 0.62848 0.0
H679 H 0.16045 0.15765 0.58918 0.0
C680 C 0.18122 0.25828 0.71052 0.0
C681 C 0.16504 0.28758 0.71452 0.0
C682 C 0.16769 0.22948 0.68961 0.0
C683 C 0.13796 0.22974 0.67192 0.0
C684 C 0.12096 0.25836 0.67696 0.0
C685 C 0.13438 0.28706 0.69824 0.0
C686 C 0.07905 0.15589 0.62098 0.0
C687 C 0.10425 0.146 0.6011 0.0
C688 C 0.08982 0.18332 0.64383 0.0
C689 C 0.126 0.20125 0.64728 0.0
C690 C 0.15107 0.1918 0.62693 0.0
C691 C 0.14034 0.1645 0.60416 0.0
H692 H 0.61799 0.32484 0.39807 0.0
H693 H 0.65432 0.30191 0.49309 0.0
H694 H 0.60984 0.38593 0.41481 0.0
H695 H 0.64637 0.36266 0.50996 0.0
H696 H 0.64814 0.48641 0.52435 0.0
H697 H 0.66616 0.43486 0.50015 0.0
H698 H 0.56604 0.39855 0.4554 0.0
H699 H 0.54791 0.45036 0.4796 0.0
C700 C 0.6252 0.33358 0.42217 0.0
C701 C 0.63703 0.30914 0.44429 0.0
C702 C 0.62019 0.36818 0.43188 0.0
C703 C 0.62718 0.37892 0.46379 0.0
C704 C 0.64102 0.35541 0.48515 0.0
C705 C 0.64565 0.32071 0.47555 0.0
C706 C 0.62999 0.46762 0.50918 0.0
C707 C 0.59642 0.47229 0.50412 0.0
C708 C 0.64035 0.43805 0.49536 0.0
C709 C 0.61755 0.41264 0.47587 0.0
C710 C 0.58436 0.41795 0.47002 0.0
C711 C 0.57383 0.44737 0.48413 0.0
loop_
_geom_bond_atom_site_label_1
_geom_bond_atom_site_label_2
_geom_bond_distance
_geom_bond_site_symmetry_2
_ccdc_geom_bond_type
H0 C1 0.949 . S
C1 H0 0.949 . S
C1 C2 1.395 . S
C1 C3 1.391 . S
C2 C1 1.395 . S
C2 C5 1.390 . S
C3 C1 1.391 . S
C3 C7 1.387 . S
C3 C8 1.491 . S
H4 C5 0.950 . S
C5 C2 1.390 . S
C5 H4 0.950 . S
C5 C6 1.378 . S
C6 C5 1.378 . S
C6 C7 1.409 . S
C7 C3 1.387 . S
C7 C6 1.409 . S
C7 H9 0.951 . S
C8 C3 1.491 . S
C8 C10 1.382 . S
C8 C12 1.404 . S
H9 C7 0.951 . S
C10 C8 1.382 . S
C10 C11 1.390 . S
C10 H15 0.949 . S
C11 C10 1.390 . S
C11 C16 1.399 . S
C12 C8 1.404 . S
C12 H13 0.950 . S
C12 C14 1.375 . S
H13 C12 0.950 . S
C14 C12 1.375 . S
C14 C16 1.382 . S
C14 H18 0.950 . S
H15 C10 0.949 . S
C16 C11 1.399 . S
C16 C14 1.382 . S
C16 H17 0.952 . S
H17 C16 0.952 . S
H18 C14 0.950 . S
H19 C20 0.949 . S
C20 H19 0.949 . S
C20 C21 1.395 . S
C20 C22 1.391 . S
C21 C20 1.395 . S
C21 C24 1.390 . S
C22 C20 1.391 . S
C22 C26 1.387 . S
C22 C27 1.491 . S
H23 C24 0.950 . S
C24 C21 1.390 . S
C24 H23 0.950 . S
C24 C25 1.378 . S
C25 C24 1.378 . S
C25 C26 1.409 . S
C26 C22 1.387 . S
C26 C25 1.409 . S
C26 H28 0.951 . S
C27 C22 1.491 . S
C27 C29 1.382 . S
C27 C31 1.404 . S
H28 C26 0.951 . S
C29 C27 1.382 . S
C29 C30 1.390 . S
C29 H34 0.949 . S
C30 C29 1.390 . S
C30 C35 1.399 . S
C31 C27 1.404 . S
C31 H32 0.950 . S
C31 C33 1.375 . S
H32 C31 0.950 . S
C33 C31 1.375 . S
C33 C35 1.382 . S
C33 H37 0.950 . S
H34 C29 0.949 . S
C35 C30 1.399 . S
C35 C33 1.382 . S
C35 H36 0.952 . S
H36 C35 0.952 . S
H37 C33 0.950 . S
H38 C39 0.949 . S
C39 H38 0.949 . S
C39 C40 1.395 . S
C39 C41 1.391 . S
C40 C39 1.395 . S
C40 C43 1.390 . S
C41 C39 1.391 . S
C41 C45 1.387 . S
C41 C46 1.491 . S
H42 C43 0.950 . S
C43 C40 1.390 . S
C43 H42 0.950 . S
C43 C44 1.378 . S
C44 C43 1.378 . S
C44 C45 1.409 . S
C45 C41 1.387 . S
C45 C44 1.409 . S
C45 H47 0.951 . S
C46 C41 1.491 . S
C46 C48 1.382 . S
C46 C50 1.404 . S
H47 C45 0.951 . S
C48 C46 1.382 . S
C48 C49 1.390 . S
C48 H53 0.949 . S
C49 C48 1.390 . S
C49 C54 1.399 . S
C50 C46 1.404 . S
C50 H51 0.950 . S
C50 C52 1.375 . S
H51 C50 0.950 . S
C52 C50 1.375 . S
C52 C54 1.382 . S
C52 H56 0.950 . S
H53 C48 0.949 . S
C54 C49 1.399 . S
C54 C52 1.382 . S
C54 H55 0.952 . S
H55 C54 0.952 . S
H56 C52 0.950 . S
H57 C58 0.949 . S
C58 H57 0.949 . S
C58 C59 1.395 . S
C58 C60 1.391 . S
C59 C58 1.395 . S
C59 C62 1.390 . S
C60 C58 1.391 . S
C60 C64 1.387 . S
C60 C65 1.491 . S
H61 C62 0.950 . S
C62 C59 1.390 . S
C62 H61 0.950 . S
C62 C63 1.378 . S
C63 C62 1.378 . S
C63 C64 1.409 . S
C64 C60 1.387 . S
C64 C63 1.409 . S
C64 H66 0.951 . S
C65 C60 1.491 . S
C65 C67 1.382 . S
C65 C69 1.404 . S
H66 C64 0.951 . S
C67 C65 1.382 . S
C67 C68 1.390 . S
C67 H72 0.949 . S
C68 C67 1.390 . S
C68 C73 1.399 . S
C69 C65 1.404 . S
C69 H70 0.950 . S
C69 C71 1.375 . S
H70 C69 0.950 . S
C71 C69 1.375 . S
C71 C73 1.382 . S
C71 H75 0.950 . S
H72 C67 0.949 . S
C73 C68 1.399 . S
C73 C71 1.382 . S
C73 H74 0.952 . S
H74 C73 0.952 . S
H75 C71 0.950 . S
H76 C77 0.949 . S
C77 H76 0.949 . S
C77 C78 1.395 . S
C77 C79 1.391 . S
C78 C77 1.395 . S
C78 C81 1.390 . S
C79 C77 1.391 . S
C79 C83 1.387 . S
C79 C84 1.491 . S
H80 C81 0.950 . S
C81 C78 1.390 . S
C81 H80 0.950 . S
C81 C82 1.378 . S
C82 C81 1.378 . S
C82 C83 1.409 . S
C83 C79 1.387 . S
C83 C82 1.409 . S
C83 H85 0.951 . S
C84 C79 1.491 . S
C84 C86 1.382 . S
C84 C88 1.404 . S
H85 C83 0.951 . S
C86 C84 1.382 . S
C86 C87 1.390 . S
C86 H91 0.949 . S
C87 C86 1.390 . S
C87 C92 1.399 . S
C88 C84 1.404 . S
C88 H89 0.950 . S
C88 C90 1.375 . S
H89 C88 0.950 . S
C90 C88 1.375 . S
C90 C92 1.382 . S
C90 H94 0.950 . S
H91 C86 0.949 . S
C92 C87 1.399 . S
C92 C90 1.382 . S
C92 H93 0.952 . S
H93 C92 0.952 . S
H94 C90 0.950 . S
H95 C96 0.949 . S
C96 H95 0.949 . S
C96 C97 1.395 . S
C96 C98 1.391 . S
C97 C96 1.395 . S
C97 C100 1.390 . S
C98 C96 1.391 . S
C98 C102 1.387 . S
C98 C103 1.491 . S
H99 C100 0.950 . S
C100 C97 1.390 . S
C100 H99 0.950 . S
C100 C101 1.378 . S
C101 C100 1.378 . S
C101 C102 1.409 . S
C102 C98 1.387 . S
C102 C101 1.409 . S
C102 H104 0.951 . S
C103 C98 1.491 . S
C103 C105 1.382 . S
C103 C107 1.404 . S
H104 C102 0.951 . S
C105 C103 1.382 . S
C105 C106 1.390 . S
C105 H110 0.949 . S
C106 C105 1.390 . S
C106 C111 1.399 . S
C107 C103 1.404 . S
C107 H108 0.950 . S
C107 C109 1.375 . S
H108 C107 0.950 . S
C109 C107 1.375 . S
C109 C111 1.382 . S
C109 H113 0.950 . S
H110 C105 0.949 . S
C111 C106 1.399 . S
C111 C109 1.382 . S
C111 H112 0.952 . S
H112 C111 0.952 . S
H113 C109 0.950 . S
H114 C115 0.949 . S
C115 H114 0.949 . S
C115 C116 1.395 . S
C115 C117 1.391 . S
C116 C115 1.395 . S
C116 C119 1.390 . S
C117 C115 1.391 . S
C117 C121 1.387 . S
C117 C122 1.491 . S
H118 C119 0.950 . S
C119 C116 1.390 . S
C119 H118 0.950 . S
C119 C120 1.378 . S
C120 C119 1.378 . S
C120 C121 1.409 . S
C121 C117 1.387 . S
C121 C120 1.409 . S
C121 H123 0.951 . S
C122 C117 1.491 . S
C122 C124 1.382 . S
C122 C126 1.404 . S
H123 C121 0.951 . S
C124 C122 1.382 . S
C124 C125 1.390 . S
C124 H129 0.949 . S
C125 C124 1.390 . S
C125 C130 1.399 . S
C126 C122 1.404 . S
C126 H127 0.950 . S
C126 C128 1.375 . S
H127 C126 0.950 . S
C128 C126 1.375 . S
C128 C130 1.382 . S
C128 H132 0.950 . S
H129 C124 0.949 . S
C130 C125 1.399 . S
C130 C128 1.382 . S
C130 H131 0.952 . S
H131 C130 0.952 . S
H132 C128 0.950 . S
H133 C134 0.949 . S
C134 H133 0.949 . S
C134 C135 1.395 . S
C134 C136 1.391 . S
C135 C134 1.395 . S
C135 C138 1.390 . S
C136 C134 1.391 . S
C136 C140 1.387 . S
C136 C141 1.491 . S
H137 C138 0.950 . S
C138 C135 1.390 . S
C138 H137 0.950 . S
C138 C139 1.378 . S
C139 C138 1.378 . S
C139 C140 1.409 . S
C140 C136 1.387 . S
C140 C139 1.409 . S
C140 H142 0.951 . S
C141 C136 1.491 . S
C141 C143 1.382 . S
C141 C145 1.404 . S
H142 C140 0.951 . S
C143 C141 1.382 . S
C143 C144 1.390 . S
C143 H148 0.949 . S
C144 C143 1.390 . S
C144 C149 1.399 . S
C145 C141 1.404 . S
C145 H146 0.950 . S
C145 C147 1.375 . S
H146 C145 0.950 . S
C147 C145 1.375 . S
C147 C149 1.382 . S
C147 H151 0.950 . S
H148 C143 0.949 . S
C149 C144 1.399 . S
C149 C147 1.382 . S
C149 H150 0.952 . S
H150 C149 0.952 . S
H151 C147 0.950 . S
Zn152 O158 1.969 . S
Zn152 O159 1.965 . S
Zn152 O163 2.024 . S
Zn152 O168 1.969 . S
Zn153 O160 1.969 1_545 S
Zn153 O166 1.969 . S
Zn153 O167 1.965 1_655 S
Zn153 O169 2.024 1_545 S
C154 O155 1.229 . S
C154 O163 1.058 . S
O155 C154 1.229 . S
C156 O157 1.229 . S
C156 O169 1.058 . S
O157 C156 1.229 . S
O158 Zn152 1.969 . S
O158 C161 1.267 . S
O159 Zn152 1.965 . S
O159 C170 1.260 1_445 S
O160 Zn153 1.969 1_565 S
O160 C170 1.258 . S
C161 O158 1.267 . S
C161 O162 1.228 . S
O162 C161 1.228 . S
O163 Zn152 2.024 . S
O163 C154 1.058 . S
C164 O165 1.228 . S
C164 O166 1.267 . S
O165 C164 1.228 . S
O166 Zn153 1.969 . S
O166 C164 1.267 . S
O167 Zn153 1.965 1_455 S
O167 C171 1.260 . S
O168 Zn152 1.969 . S
O168 C171 1.258 . S
O169 Zn153 2.024 1_565 S
O169 C156 1.058 . S
C170 O159 1.260 1_665 S
C170 O160 1.258 . S
C171 O167 1.260 . S
C171 O168 1.258 . S
Zn172 O178 1.969 . S
Zn172 O179 1.965 1_565 S
Zn172 O183 2.024 1_554 S
Zn172 O188 1.969 . S
Zn173 O180 1.969 . S
Zn173 O186 1.969 . S
Zn173 O187 1.965 . S
Zn173 O189 2.024 . S
C174 O175 1.229 . S
C174 O183 1.058 . S
O175 C174 1.229 . S
C176 O177 1.229 . S
C176 O189 1.058 . S
O177 C176 1.229 . S
O178 Zn172 1.969 . S
O178 C181 1.267 . S
O179 Zn172 1.965 1_545 S
O179 C190 1.260 . S
O180 Zn173 1.969 . S
O180 C190 1.258 . S
C181 O178 1.267 . S
C181 O182 1.228 1_554 S
O182 C181 1.228 1_556 S
O183 Zn172 2.024 1_556 S
O183 C174 1.058 . S
C184 O185 1.228 . S
C184 O186 1.267 . S
O185 C184 1.228 . S
O186 Zn173 1.969 . S
O186 C184 1.267 . S
O187 Zn173 1.965 . S
O187 C191 1.260 1_545 S
O188 Zn172 1.969 . S
O188 C191 1.258 . S
O189 Zn173 2.024 . S
O189 C176 1.058 . S
C190 O179 1.260 . S
C190 O180 1.258 . S
C191 O187 1.260 1_565 S
C191 O188 1.258 . S
Zn192 O198 1.969 . S
Zn192 O199 1.965 . S
Zn192 O203 2.024 . S
Zn192 O208 1.969 . S
Zn193 O200 1.969 . S
Zn193 O206 1.969 . S
Zn193 O207 1.965 . S
Zn193 O209 2.024 . S
C194 O195 1.229 . S
C194 O203 1.058 . S
O195 C194 1.229 . S
C196 O197 1.229 . S
C196 O209 1.058 . S
O197 C196 1.229 . S
O198 Zn192 1.969 . S
O198 C201 1.267 . S
O199 Zn192 1.965 . S
O199 C210 1.260 . S
O200 Zn193 1.969 . S
O200 C210 1.258 . S
C201 O198 1.267 . S
C201 O202 1.228 . S
O202 C201 1.228 . S
O203 Zn192 2.024 . S
O203 C194 1.058 . S
C204 O205 1.228 . S
C204 O206 1.267 . S
O205 C204 1.228 . S
O206 Zn193 1.969 . S
O206 C204 1.267 . S
O207 Zn193 1.965 . S
O207 C211 1.260 . S
O208 Zn192 1.969 . S
O208 C211 1.258 . S
O209 Zn193 2.024 . S
O209 C196 1.058 . S
C210 O199 1.260 . S
C210 O200 1.258 . S
C211 O207 1.260 . S
C211 O208 1.258 . S
Zn212 O218 1.969 1_655 S
Zn212 O219 1.965 1_656 S
Zn212 O223 2.024 . S
Zn212 O228 1.969 1_655 S
Zn213 O220 1.969 . S
Zn213 O226 1.969 . S
Zn213 O227 1.966 . S
Zn213 O229 2.024 . S
C214 O215 1.229 . S
C214 O223 1.058 . S
O215 C214 1.229 . S
C216 O217 1.229 . S
C216 O229 1.058 . S
O217 C216 1.229 . S
O218 Zn212 1.969 1_455 S
O218 C221 1.267 1_455 S
O219 Zn212 1.965 1_454 S
O219 C230 1.260 . S
O220 Zn213 1.969 . S
O220 C230 1.258 . S
C221 O218 1.267 1_655 S
C221 O222 1.228 . S
O222 C221 1.228 . S
O223 Zn212 2.024 . S
O223 C214 1.058 . S
C224 O225 1.228 . S
C224 O226 1.267 . S
O225 C224 1.228 . S
O226 Zn213 1.969 . S
O226 C224 1.267 . S
O227 Zn213 1.966 . S
O227 C231 1.259 1_554 S
O228 Zn212 1.969 1_455 S
O228 C231 1.258 . S
O229 Zn213 2.024 . S
O229 C216 1.058 . S
C230 O219 1.260 . S
C230 O220 1.258 . S
C231 O227 1.259 1_556 S
C231 O228 1.258 . S
H232 C240 0.950 . S
H233 C245 0.950 . S
H234 C242 0.950 . S
H235 C244 0.950 . S
H236 C246 0.950 . S
H237 C248 0.950 . S
H238 C250 0.950 . S
H239 C251 0.950 . S
C240 H232 0.950 . S
C240 C241 1.386 . S
C240 C242 1.391 . S
C241 C240 1.386 . S
C241 C245 1.393 . S
C242 H234 0.950 . S
C242 C240 1.391 . S
C242 C243 1.400 . S
C243 C242 1.400 . S
C243 C244 1.398 . S
C243 C249 1.491 . S
C244 H235 0.950 . S
C244 C243 1.398 . S
C244 C245 1.391 . S
C245 H233 0.950 . S
C245 C241 1.393 . S
C245 C244 1.391 . S
C246 H236 0.950 . S
C246 C247 1.386 . S
C246 C248 1.391 . S
C247 C246 1.386 . S
C247 C251 1.393 . S
C248 H237 0.950 . S
C248 C246 1.391 . S
C248 C249 1.400 . S
C249 C243 1.491 . S
C249 C248 1.400 . S
C249 C250 1.398 . S
C250 H238 0.950 . S
C250 C249 1.398 . S
C250 C251 1.391 . S
C251 H239 0.950 . S
C251 C247 1.393 . S
C251 C250 1.391 . S
H252 C260 0.950 . S
H253 C265 0.950 . S
H254 C262 0.950 . S
H255 C264 0.950 . S
H256 C266 0.950 . S
H257 C268 0.950 . S
H258 C270 0.950 . S
H259 C271 0.950 . S
C260 H252 0.950 . S
C260 C261 1.386 . S
C260 C262 1.391 . S
C261 C260 1.386 . S
C261 C265 1.393 . S
C262 H254 0.950 . S
C262 C260 1.391 . S
C262 C263 1.400 . S
C263 C262 1.400 . S
C263 C264 1.398 . S
C263 C269 1.491 . S
C264 H255 0.950 . S
C264 C263 1.398 . S
C264 C265 1.391 . S
C265 H253 0.950 . S
C265 C261 1.393 . S
C265 C264 1.391 . S
C266 H256 0.950 . S
C266 C267 1.386 . S
C266 C268 1.391 . S
C267 C266 1.386 . S
C267 C271 1.393 . S
C268 H257 0.950 . S
C268 C266 1.391 . S
C268 C269 1.400 . S
C269 C263 1.491 . S
C269 C268 1.400 . S
C269 C270 1.398 . S
C270 H258 0.950 . S
C270 C269 1.398 . S
C270 C271 1.391 . S
C271 H259 0.950 . S
C271 C267 1.393 . S
C271 C270 1.391 . S
H272 C280 0.950 . S
H273 C285 0.950 . S
H274 C282 0.950 . S
H275 C284 0.950 . S
H276 C286 0.950 . S
H277 C288 0.950 . S
H278 C290 0.950 . S
H279 C291 0.950 . S
C280 H272 0.950 . S
C280 C281 1.386 . S
C280 C282 1.391 . S
C281 C280 1.386 . S
C281 C285 1.393 . S
C282 H274 0.950 . S
C282 C280 1.391 . S
C282 C283 1.400 . S
C283 C282 1.400 . S
C283 C284 1.398 . S
C283 C289 1.491 . S
C284 H275 0.950 . S
C284 C283 1.398 . S
C284 C285 1.391 . S
C285 H273 0.950 . S
C285 C281 1.393 . S
C285 C284 1.391 . S
C286 H276 0.950 . S
C286 C287 1.386 . S
C286 C288 1.391 . S
C287 C286 1.386 . S
C287 C291 1.393 . S
C288 H277 0.950 . S
C288 C286 1.391 . S
C288 C289 1.400 . S
C289 C283 1.491 . S
C289 C288 1.400 . S
C289 C290 1.398 . S
C290 H278 0.950 . S
C290 C289 1.398 . S
C290 C291 1.391 . S
C291 H279 0.950 . S
C291 C287 1.393 . S
C291 C290 1.391 . S
H292 C300 0.950 . S
H293 C305 0.950 . S
H294 C302 0.950 . S
H295 C304 0.950 . S
H296 C306 0.950 . S
H297 C308 0.950 . S
H298 C310 0.950 . S
H299 C311 0.950 1_455 S
C300 H292 0.950 . S
C300 C301 1.386 . S
C300 C302 1.391 . S
C301 C300 1.386 . S
C301 C305 1.393 . S
C302 H294 0.950 . S
C302 C300 1.391 . S
C302 C303 1.400 . S
C303 C302 1.400 . S
C303 C304 1.398 . S
C303 C309 1.491 . S
C304 H295 0.950 . S
C304 C303 1.398 . S
C304 C305 1.391 . S
C305 H293 0.950 . S
C305 C301 1.393 . S
C305 C304 1.391 . S
C306 H296 0.950 . S
C306 C307 1.386 . S
C306 C308 1.391 . S
C307 C306 1.386 . S
C307 C311 1.393 . S
C308 H297 0.950 . S
C308 C306 1.391 . S
C308 C309 1.400 . S
C309 C303 1.491 . S
C309 C308 1.400 . S
C309 C310 1.398 . S
C310 H298 0.950 . S
C310 C309 1.398 . S
C310 C311 1.391 . S
C311 H299 0.950 1_655 S
C311 C307 1.393 . S
C311 C310 1.391 . S
H312 C320 0.950 . S
H313 C325 0.950 . S
H314 C322 0.950 . S
H315 C324 0.950 . S
H316 C326 0.950 . S
H317 C328 0.950 . S
H318 C330 0.950 . S
H319 C331 0.950 . S
C320 H312 0.950 . S
C320 C321 1.386 . S
C320 C322 1.391 . S
C321 C320 1.386 . S
C321 C325 1.393 . S
C322 H314 0.950 . S
C322 C320 1.391 . S
C322 C323 1.400 . S
C323 C322 1.400 . S
C323 C324 1.398 . S
C323 C329 1.491 . S
C324 H315 0.950 . S
C324 C323 1.398 . S
C324 C325 1.391 . S
C325 H313 0.950 . S
C325 C321 1.393 . S
C325 C324 1.391 . S
C326 H316 0.950 . S
C326 C327 1.386 . S
C326 C328 1.391 . S
C327 C326 1.386 . S
C327 C331 1.393 . S
C328 H317 0.950 . S
C328 C326 1.391 . S
C328 C329 1.400 . S
C329 C323 1.491 . S
C329 C328 1.400 . S
C329 C330 1.398 . S
C330 H318 0.950 . S
C330 C329 1.398 . S
C330 C331 1.391 . S
C331 H319 0.950 . S
C331 C327 1.393 . S
C331 C330 1.391 . S
H332 C340 0.950 . S
H333 C345 0.950 . S
H334 C342 0.950 . S
H335 C344 0.950 . S
H336 C346 0.950 . S
H337 C348 0.950 . S
H338 C350 0.950 . S
H339 C351 0.950 . S
C340 H332 0.950 . S
C340 C341 1.386 . S
C340 C342 1.391 . S
C341 C340 1.386 . S
C341 C345 1.393 . S
C342 H334 0.950 . S
C342 C340 1.391 . S
C342 C343 1.400 . S
C343 C342 1.400 . S
C343 C344 1.398 . S
C343 C349 1.491 . S
C344 H335 0.950 . S
C344 C343 1.398 . S
C344 C345 1.391 . S
C345 H333 0.950 . S
C345 C341 1.393 . S
C345 C344 1.391 . S
C346 H336 0.950 . S
C346 C347 1.386 . S
C346 C348 1.391 . S
C347 C346 1.386 . S
C347 C351 1.393 . S
C348 H337 0.950 . S
C348 C346 1.391 . S
C348 C349 1.400 . S
C349 C343 1.491 . S
C349 C348 1.400 . S
C349 C350 1.398 . S
C350 H338 0.950 . S
C350 C349 1.398 . S
C350 C351 1.391 . S
C351 H339 0.950 . S
C351 C347 1.393 . S
C351 C350 1.391 . S
H352 C360 0.950 . S
H353 C365 0.950 . S
H354 C362 0.950 . S
H355 C364 0.950 . S
H356 C366 0.950 . S
H357 C368 0.950 . S
H358 C370 0.950 . S
H359 C371 0.950 . S
C360 H352 0.950 . S
C360 C361 1.386 . S
C360 C362 1.391 . S
C361 C360 1.386 . S
C361 C365 1.393 . S
C362 H354 0.950 . S
C362 C360 1.391 . S
C362 C363 1.400 . S
C363 C362 1.400 . S
C363 C364 1.398 . S
C363 C369 1.491 . S
C364 H355 0.950 . S
C364 C363 1.398 . S
C364 C365 1.391 . S
C365 H353 0.950 . S
C365 C361 1.393 . S
C365 C364 1.391 . S
C366 H356 0.950 . S
C366 C367 1.386 . S
C366 C368 1.391 . S
C367 C366 1.386 . S
C367 C371 1.393 . S
C368 H357 0.950 . S
C368 C366 1.391 . S
C368 C369 1.400 . S
C369 C363 1.491 . S
C369 C368 1.400 . S
C369 C370 1.398 . S
C370 H358 0.950 . S
C370 C369 1.398 . S
C370 C371 1.391 . S
C371 H359 0.950 . S
C371 C367 1.393 . S
C371 C370 1.391 . S
H372 C380 0.950 . S
H373 C385 0.950 . S
H374 C382 0.950 . S
H375 C384 0.950 . S
H376 C386 0.950 . S
H377 C388 0.950 . S
H378 C390 0.950 . S
H379 C391 0.950 . S
C380 H372 0.950 . S
C380 C381 1.386 . S
C380 C382 1.391 . S
C381 C380 1.386 . S
C381 C385 1.393 . S
C382 H374 0.950 . S
C382 C380 1.391 . S
C382 C383 1.400 . S
C383 C382 1.400 . S
C383 C384 1.398 . S
C383 C389 1.491 . S
C384 H375 0.950 . S
C384 C383 1.398 . S
C384 C385 1.391 . S
C385 H373 0.950 . S
C385 C381 1.393 . S
C385 C384 1.391 . S
C386 H376 0.950 . S
C386 C387 1.386 . S
C386 C388 1.391 . S
C387 C386 1.386 . S
C387 C391 1.393 . S
C388 H377 0.950 . S
C388 C386 1.391 . S
C388 C389 1.400 . S
C389 C383 1.491 . S
C389 C388 1.400 . S
C389 C390 1.398 . S
C390 H378 0.950 . S
C390 C389 1.398 . S
C390 C391 1.391 . S
C391 H379 0.950 . S
C391 C387 1.393 . S
C391 C390 1.391 . S
H392 C400 0.950 . S
H393 C405 0.950 . S
H394 C402 0.950 . S
H395 C404 0.950 . S
H396 C406 0.950 . S
H397 C408 0.950 . S
H398 C410 0.950 . S
H399 C411 0.950 . S
C400 H392 0.950 . S
C400 C401 1.386 . S
C400 C402 1.391 . S
C401 C400 1.386 . S
C401 C405 1.393 . S
C402 H394 0.950 . S
C402 C400 1.391 . S
C402 C403 1.400 . S
C403 C402 1.400 . S
C403 C404 1.398 . S
C403 C409 1.491 . S
C404 H395 0.950 . S
C404 C403 1.398 . S
C404 C405 1.391 . S
C405 H393 0.950 . S
C405 C401 1.393 . S
C405 C404 1.391 . S
C406 H396 0.950 . S
C406 C407 1.386 . S
C406 C408 1.391 . S
C407 C406 1.386 . S
C407 C411 1.393 . S
C408 H397 0.950 . S
C408 C406 1.391 . S
C408 C409 1.400 . S
C409 C403 1.491 . S
C409 C408 1.400 . S
C409 C410 1.398 . S
C410 H398 0.950 . S
C410 C409 1.398 . S
C410 C411 1.391 . S
C411 H399 0.950 . S
C411 C407 1.393 . S
C411 C410 1.391 . S
H412 C420 0.950 . S
H413 C425 0.950 . S
H414 C422 0.950 . S
H415 C424 0.950 . S
H416 C426 0.950 . S
H417 C428 0.950 . S
H418 C430 0.950 . S
H419 C431 0.950 . S
C420 H412 0.950 . S
C420 C421 1.386 . S
C420 C422 1.391 . S
C421 C420 1.386 . S
C421 C425 1.393 . S
C422 H414 0.950 . S
C422 C420 1.391 . S
C422 C423 1.400 . S
C423 C422 1.400 . S
C423 C424 1.398 . S
C423 C429 1.491 . S
C424 H415 0.950 . S
C424 C423 1.398 . S
C424 C425 1.391 . S
C425 H413 0.950 . S
C425 C421 1.393 . S
C425 C424 1.391 . S
C426 H416 0.950 . S
C426 C427 1.386 . S
C426 C428 1.391 1_554 S
C427 C426 1.386 . S
C427 C431 1.393 1_554 S
C428 H417 0.950 . S
C428 C426 1.391 1_556 S
C428 C429 1.400 . S
C429 C423 1.491 . S
C429 C428 1.400 . S
C429 C430 1.398 . S
C430 H418 0.950 . S
C430 C429 1.398 . S
C430 C431 1.391 . S
C431 H419 0.950 . S
C431 C427 1.393 1_556 S
C431 C430 1.391 . S
H432 C440 0.950 . S
H433 C445 0.950 . S
H434 C442 0.950 . S
H435 C444 0.950 . S
H436 C446 0.950 . S
H437 C448 0.950 . S
H438 C450 0.950 . S
H439 C451 0.950 . S
C440 H432 0.950 . S
C440 C441 1.386 . S
C440 C442 1.391 . S
C441 C440 1.386 . S
C441 C445 1.393 . S
C442 H434 0.950 . S
C442 C440 1.391 . S
C442 C443 1.400 . S
C443 C442 1.400 . S
C443 C444 1.398 . S
C443 C449 1.491 . S
C444 H435 0.950 . S
C444 C443 1.398 . S
C444 C445 1.391 . S
C445 H433 0.950 . S
C445 C441 1.393 . S
C445 C444 1.391 . S
C446 H436 0.950 . S
C446 C447 1.386 . S
C446 C448 1.391 . S
C447 C446 1.386 . S
C447 C451 1.393 . S
C448 H437 0.950 . S
C448 C446 1.391 . S
C448 C449 1.400 . S
C449 C443 1.491 . S
C449 C448 1.400 . S
C449 C450 1.398 . S
C450 H438 0.950 . S
C450 C449 1.398 . S
C450 C451 1.391 . S
C451 H439 0.950 . S
C451 C447 1.393 . S
C451 C450 1.391 . S
H452 C460 0.950 . S
H453 C465 0.950 . S
H454 C462 0.950 . S
H455 C464 0.950 . S
H456 C466 0.950 . S
H457 C468 0.950 . S
H458 C470 0.950 . S
H459 C471 0.950 . S
C460 H452 0.950 . S
C460 C461 1.386 . S
C460 C462 1.391 . S
C461 C460 1.386 . S
C461 C465 1.393 . S
C462 H454 0.950 . S
C462 C460 1.391 . S
C462 C463 1.400 . S
C463 C462 1.400 . S
C463 C464 1.398 . S
C463 C469 1.491 . S
C464 H455 0.950 . S
C464 C463 1.398 . S
C464 C465 1.391 . S
C465 H453 0.950 . S
C465 C461 1.393 . S
C465 C464 1.391 . S
C466 H456 0.950 . S
C466 C467 1.386 . S
C466 C468 1.391 . S
C467 C466 1.386 . S
C467 C471 1.393 . S
C468 H457 0.950 . S
C468 C466 1.391 . S
C468 C469 1.400 . S
C469 C463 1.491 . S
C469 C468 1.400 . S
C469 C470 1.398 . S
C470 H458 0.950 . S
C470 C469 1.398 . S
C470 C471 1.391 . S
C471 H459 0.950 . S
C471 C467 1.393 . S
C471 C470 1.391 . S
H472 C480 0.950 . S
H473 C485 0.950 . S
H474 C482 0.950 . S
H475 C484 0.950 . S
H476 C486 0.950 . S
H477 C488 0.950 . S
H478 C490 0.950 . S
H479 C491 0.950 . S
C480 H472 0.950 . S
C480 C481 1.386 . S
C480 C482 1.391 . S
C481 C480 1.386 . S
C481 C485 1.393 . S
C482 H474 0.950 . S
C482 C480 1.391 . S
C482 C483 1.400 . S
C483 C482 1.400 . S
C483 C484 1.398 . S
C483 C489 1.491 . S
C484 H475 0.950 . S
C484 C483 1.398 . S
C484 C485 1.391 . S
C485 H473 0.950 . S
C485 C481 1.393 . S
C485 C484 1.391 . S
C486 H476 0.950 . S
C486 C487 1.386 . S
C486 C488 1.391 . S
C487 C486 1.386 . S
C487 C491 1.393 . S
C488 H477 0.950 . S
C488 C486 1.391 . S
C488 C489 1.400 . S
C489 C483 1.491 . S
C489 C488 1.400 . S
C489 C490 1.398 . S
C490 H478 0.950 . S
C490 C489 1.398 . S
C490 C491 1.391 . S
C491 H479 0.950 . S
C491 C487 1.393 . S
C491 C490 1.391 . S
H492 C500 0.950 . S
H493 C505 0.950 . S
H494 C502 0.950 . S
H495 C504 0.950 . S
H496 C506 0.950 . S
H497 C508 0.950 . S
H498 C510 0.950 . S
H499 C511 0.950 . S
C500 H492 0.950 . S
C500 C501 1.386 . S
C500 C502 1.391 . S
C501 C500 1.386 . S
C501 C505 1.393 . S
C502 H494 0.950 . S
C502 C500 1.391 . S
C502 C503 1.400 . S
C503 C502 1.400 . S
C503 C504 1.398 . S
C503 C509 1.491 . S
C504 H495 0.950 . S
C504 C503 1.398 . S
C504 C505 1.391 . S
C505 H493 0.950 . S
C505 C501 1.393 . S
C505 C504 1.391 . S
C506 H496 0.950 . S
C506 C507 1.386 . S
C506 C508 1.391 . S
C507 C506 1.386 . S
C507 C511 1.393 . S
C508 H497 0.950 . S
C508 C506 1.391 . S
C508 C509 1.400 . S
C509 C503 1.491 . S
C509 C508 1.400 . S
C509 C510 1.398 . S
C510 H498 0.950 . S
C510 C509 1.398 . S
C510 C511 1.391 . S
C511 H499 0.950 . S
C511 C507 1.393 . S
C511 C510 1.391 . S
H512 C520 0.950 . S
H513 C525 0.950 . S
H514 C522 0.950 . S
H515 C524 0.950 . S
H516 C526 0.950 . S
H517 C528 0.950 . S
H518 C530 0.950 . S
H519 C531 0.950 . S
C520 H512 0.950 . S
C520 C521 1.386 . S
C520 C522 1.391 . S
C521 C520 1.386 . S
C521 C525 1.393 . S
C522 H514 0.950 . S
C522 C520 1.391 . S
C522 C523 1.400 . S
C523 C522 1.400 . S
C523 C524 1.398 . S
C523 C529 1.491 . S
C524 H515 0.950 . S
C524 C523 1.398 . S
C524 C525 1.391 . S
C525 H513 0.950 . S
C525 C521 1.393 . S
C525 C524 1.391 . S
C526 H516 0.950 . S
C526 C527 1.386 . S
C526 C528 1.391 . S
C527 C526 1.386 . S
C527 C531 1.393 . S
C528 H517 0.950 . S
C528 C526 1.391 . S
C528 C529 1.400 . S
C529 C523 1.491 . S
C529 C528 1.400 . S
C529 C530 1.398 . S
C530 H518 0.950 . S
C530 C529 1.398 . S
C530 C531 1.391 . S
C531 H519 0.950 . S
C531 C527 1.393 . S
C531 C530 1.391 . S
H532 C540 0.950 . S
H533 C545 0.950 . S
H534 C542 0.950 . S
H535 C544 0.950 . S
H536 C546 0.950 . S
H537 C548 0.950 . S
H538 C550 0.950 . S
H539 C551 0.950 . S
C540 H532 0.950 . S
C540 C541 1.386 . S
C540 C542 1.391 . S
C541 C540 1.386 . S
C541 C545 1.393 . S
C542 H534 0.950 . S
C542 C540 1.391 . S
C542 C543 1.400 . S
C543 C542 1.400 . S
C543 C544 1.398 . S
C543 C549 1.491 . S
C544 H535 0.950 . S
C544 C543 1.398 . S
C544 C545 1.391 . S
C545 H533 0.950 . S
C545 C541 1.393 . S
C545 C544 1.391 . S
C546 H536 0.950 . S
C546 C547 1.386 . S
C546 C548 1.391 . S
C547 C546 1.386 . S
C547 C551 1.393 . S
C548 H537 0.950 . S
C548 C546 1.391 . S
C548 C549 1.400 . S
C549 C543 1.491 . S
C549 C548 1.400 . S
C549 C550 1.398 . S
C550 H538 0.950 . S
C550 C549 1.398 . S
C550 C551 1.391 . S
C551 H539 0.950 . S
C551 C547 1.393 . S
C551 C550 1.391 . S
H552 C560 0.950 . S
H553 C565 0.950 . S
H554 C562 0.950 . S
H555 C564 0.950 . S
H556 C566 0.960 . S
H557 C568 0.950 . S
H558 C570 0.950 . S
H559 C571 0.969 . S
C560 H552 0.950 . S
C560 C561 1.386 . S
C560 C562 1.391 . S
C561 C560 1.386 . S
C561 C565 1.393 . S
C562 H554 0.950 . S
C562 C560 1.391 . S
C562 C563 1.400 . S
C563 C562 1.400 . S
C563 C564 1.398 . S
C563 C569 1.491 . S
C564 H555 0.950 . S
C564 C563 1.398 . S
C564 C565 1.391 . S
C565 H553 0.950 . S
C565 C561 1.393 . S
C565 C564 1.391 . S
C566 H556 0.960 . S
C566 C567 1.383 1_554 S
C566 C568 1.384 1_554 S
C567 C566 1.383 1_556 S
C567 C571 1.393 . S
C568 H557 0.950 . S
C568 C566 1.384 1_556 S
C568 C569 1.400 . S
C569 C563 1.491 . S
C569 C568 1.400 . S
C569 C570 1.398 . S
C570 H558 0.950 . S
C570 C569 1.398 . S
C570 C571 1.391 . S
C571 H559 0.969 . S
C571 C567 1.393 . S
C571 C570 1.391 . S
H572 C580 0.950 . S
H573 C585 0.950 . S
H574 C582 0.950 . S
H575 C584 0.950 . S
H576 C586 0.950 . S
H577 C588 0.950 . S
H578 C590 0.950 . S
H579 C591 0.950 . S
C580 H572 0.950 . S
C580 C581 1.386 . S
C580 C582 1.391 . S
C581 C580 1.386 . S
C581 C585 1.393 . S
C582 H574 0.950 . S
C582 C580 1.391 . S
C582 C583 1.400 . S
C583 C582 1.400 . S
C583 C584 1.398 . S
C583 C589 1.491 . S
C584 H575 0.950 . S
C584 C583 1.398 . S
C584 C585 1.391 . S
C585 H573 0.950 . S
C585 C581 1.393 . S
C585 C584 1.391 . S
C586 H576 0.950 . S
C586 C587 1.386 . S
C586 C588 1.391 . S
C587 C586 1.386 . S
C587 C591 1.393 . S
C588 H577 0.950 . S
C588 C586 1.391 . S
C588 C589 1.400 . S
C589 C583 1.491 . S
C589 C588 1.400 . S
C589 C590 1.398 . S
C590 H578 0.950 . S
C590 C589 1.398 . S
C590 C591 1.391 . S
C591 H579 0.950 . S
C591 C587 1.393 . S
C591 C590 1.391 . S
H592 C600 0.950 . S
H593 C605 0.950 . S
H594 C602 0.950 . S
H595 C604 0.950 . S
H596 C606 0.950 . S
H597 C608 0.950 . S
H598 C610 0.950 . S
H599 C611 0.950 . S
C600 H592 0.950 . S
C600 C601 1.386 . S
C600 C602 1.391 . S
C601 C600 1.386 . S
C601 C605 1.393 . S
C602 H594 0.950 . S
C602 C600 1.391 . S
C602 C603 1.400 . S
C603 C602 1.400 . S
C603 C604 1.398 . S
C603 C609 1.491 . S
C604 H595 0.950 . S
C604 C603 1.398 . S
C604 C605 1.391 . S
C605 H593 0.950 . S
C605 C601 1.393 . S
C605 C604 1.391 . S
C606 H596 0.950 . S
C606 C607 1.386 . S
C606 C608 1.391 . S
C607 C606 1.386 . S
C607 C611 1.393 . S
C608 H597 0.950 . S
C608 C606 1.391 . S
C608 C609 1.400 . S
C609 C603 1.491 . S
C609 C608 1.400 . S
C609 C610 1.398 . S
C610 H598 0.950 . S
C610 C609 1.398 . S
C610 C611 1.391 . S
C611 H599 0.950 . S
C611 C607 1.393 . S
C611 C610 1.391 . S
H612 C620 0.950 . S
H613 C625 0.950 . S
H614 C622 0.950 . S
H615 C624 0.950 . S
H616 C626 0.950 . S
H617 C628 0.950 . S
H618 C630 0.950 . S
H619 C631 0.950 . S
C620 H612 0.950 . S
C620 C621 1.386 . S
C620 C622 1.391 . S
C621 C620 1.386 . S
C621 C625 1.393 . S
C622 H614 0.950 . S
C622 C620 1.391 . S
C622 C623 1.400 . S
C623 C622 1.400 . S
C623 C624 1.398 . S
C623 C629 1.491 . S
C624 H615 0.950 . S
C624 C623 1.398 . S
C624 C625 1.391 . S
C625 H613 0.950 . S
C625 C621 1.393 . S
C625 C624 1.391 . S
C626 H616 0.950 . S
C626 C627 1.386 . S
C626 C628 1.391 . S
C627 C626 1.386 . S
C627 C631 1.393 . S
C628 H617 0.950 . S
C628 C626 1.391 . S
C628 C629 1.400 . S
C629 C623 1.491 . S
C629 C628 1.400 . S
C629 C630 1.398 . S
C630 H618 0.950 . S
C630 C629 1.398 . S
C630 C631 1.391 . S
C631 H619 0.950 . S
C631 C627 1.393 . S
C631 C630 1.391 . S
H632 C640 0.950 . S
H633 C645 0.950 . S
H634 C642 0.950 . S
H635 C644 0.950 . S
H636 C646 0.950 . S
H637 C648 0.950 . S
H638 C650 0.950 . S
H639 C651 0.950 1_455 S
C640 H632 0.950 . S
C640 C641 1.386 . S
C640 C642 1.391 . S
C641 C640 1.386 . S
C641 C645 1.393 . S
C642 H634 0.950 . S
C642 C640 1.391 . S
C642 C643 1.400 . S
C643 C642 1.400 . S
C643 C644 1.398 . S
C643 C649 1.491 . S
C644 H635 0.950 . S
C644 C643 1.398 . S
C644 C645 1.391 . S
C645 H633 0.950 . S
C645 C641 1.393 . S
C645 C644 1.391 . S
C646 H636 0.950 . S
C646 C647 1.386 . S
C646 C648 1.391 . S
C647 C646 1.386 . S
C647 C651 1.393 . S
C648 H637 0.950 . S
C648 C646 1.391 . S
C648 C649 1.400 . S
C649 C643 1.491 . S
C649 C648 1.400 . S
C649 C650 1.398 . S
C650 H638 0.950 . S
C650 C649 1.398 . S
C650 C651 1.391 . S
C651 H639 0.950 1_655 S
C651 C647 1.393 . S
C651 C650 1.391 . S
H652 C660 0.950 . S
H653 C665 0.950 . S
H654 C662 0.950 . S
H655 C664 0.950 . S
H656 C666 0.950 . S
H657 C668 0.950 . S
H658 C670 0.950 . S
H659 C671 0.950 . S
C660 H652 0.950 . S
C660 C661 1.386 . S
C660 C662 1.391 . S
C661 C660 1.386 . S
C661 C665 1.393 . S
C662 H654 0.950 . S
C662 C660 1.391 . S
C662 C663 1.400 . S
C663 C662 1.400 . S
C663 C664 1.398 . S
C663 C669 1.491 . S
C664 H655 0.950 . S
C664 C663 1.398 . S
C664 C665 1.391 . S
C665 H653 0.950 . S
C665 C661 1.393 . S
C665 C664 1.391 . S
C666 H656 0.950 . S
C666 C667 1.386 . S
C666 C668 1.391 . S
C667 C666 1.386 . S
C667 C671 1.393 . S
C668 H657 0.950 . S
C668 C666 1.391 . S
C668 C669 1.400 . S
C669 C663 1.491 . S
C669 C668 1.400 . S
C669 C670 1.398 . S
C670 H658 0.950 . S
C670 C669 1.398 . S
C670 C671 1.391 . S
C671 H659 0.950 . S
C671 C667 1.393 . S
C671 C670 1.391 . S
H672 C680 0.950 . S
H673 C685 0.950 . S
H674 C682 0.950 . S
H675 C684 0.950 . S
H676 C686 0.950 . S
H677 C688 0.950 . S
H678 C690 0.950 . S
H679 C691 0.950 . S
C680 H672 0.950 . S
C680 C681 1.386 . S
C680 C682 1.391 . S
C681 C680 1.386 . S
C681 C685 1.393 . S
C682 H674 0.950 . S
C682 C680 1.391 . S
C682 C683 1.400 . S
C683 C682 1.400 . S
C683 C684 1.398 . S
C683 C689 1.491 . S
C684 H675 0.950 . S
C684 C683 1.398 . S
C684 C685 1.391 . S
C685 H673 0.950 . S
C685 C681 1.393 . S
C685 C684 1.391 . S
C686 H676 0.950 . S
C686 C687 1.386 . S
C686 C688 1.391 . S
C687 C686 1.386 . S
C687 C691 1.393 . S
C688 H677 0.950 . S
C688 C686 1.391 . S
C688 C689 1.400 . S
C689 C683 1.491 . S
C689 C688 1.400 . S
C689 C690 1.398 . S
C690 H678 0.950 . S
C690 C689 1.398 . S
C690 C691 1.391 . S
C691 H679 0.950 . S
C691 C687 1.393 . S
C691 C690 1.391 . S
H692 C700 0.950 . S
H693 C705 0.950 . S
H694 C702 0.950 . S
H695 C704 0.950 . S
H696 C706 0.950 . S
H697 C708 0.950 . S
H698 C710 0.950 . S
H699 C711 0.950 . S
C700 H692 0.950 . S
C700 C701 1.386 . S
C700 C702 1.391 . S
C701 C700 1.386 . S
C701 C705 1.393 . S
C702 H694 0.950 . S
C702 C700 1.391 . S
C702 C703 1.400 . S
C703 C702 1.400 . S
C703 C704 1.398 . S
C703 C709 1.491 . S
C704 H695 0.950 . S
C704 C703 1.398 . S
C704 C705 1.391 . S
C705 H693 0.950 . S
C705 C701 1.393 . S
C705 C704 1.391 . S
C706 H696 0.950 . S
C706 C707 1.386 . S
C706 C708 1.391 . S
C707 C706 1.386 . S
C707 C711 1.393 . S
C708 H697 0.950 . S
C708 C706 1.391 . S
C708 C709 1.400 . S
C709 C703 1.491 . S
C709 C708 1.400 . S
C709 C710 1.398 . S
C710 H698 0.950 . S
C710 C709 1.398 . S
C710 C711 1.391 . S
C711 H699 0.950 . S
C711 C707 1.393 . S
C711 C710 1.391 . S
C241 C6 1.746 . S
C247 C171 1.736 . S
C261 C21 1.753 . S
C267 C174 1.697 . S
C287 C210 1.156 . S
C281 C49 1.047 . S
C301 C68 1.442 . S
C307 C230 1.475 1_655 S
C327 C184 2.379 . S
C321 C2 2.381 . S
C347 C161 1.219 1_565 S
C341 C30 1.147 . S
C367 C214 1.331 . S
C361 C40 1.391 . S
C387 C194 1.204 . S
C381 C63 1.350 . S
C401 C11 1.337 . S
C407 C224 1.351 . S
C427 C190 1.841 . S
C421 C44 1.853 . S
C441 C59 1.347 . S
C447 C156 1.312 . S
C461 C25 1.611 . S
C467 C204 1.544 . S
C487 C170 1.863 . S
C481 C82 1.869 . S
C501 C101 1.491 . S
C507 C176 1.426 . S
C521 C125 1.475 . S
C527 C211 1.577 . S
C541 C144 1.216 . S
C547 C231 1.183 . S
C561 C87 1.416 . S
C567 C181 1.453 1_556 S
C587 C164 2.224 . S
C581 C97 2.220 . S
C607 C216 1.301 . S
C601 C120 1.500 . S
C627 C196 1.246 . S
C621 C135 1.282 . S
C641 C78 1.751 . S
C647 C221 1.635 . S
C667 C191 1.338 . S
C661 C116 1.337 . S
C687 C154 1.795 . S
C681 C139 1.862 . S
C701 C106 1.174 . S
C707 C201 1.267 . S
