# Generated by pormake.
# Topology ptr, (4,4)-cn, num edge types: 1
# Building blocks:
#     Node 0, Type 0, BuildingBlock: UXUYUI_clean_sbu_0, # of connection points: 4
#     Node 1, Type 0, BuildingBlock: UXUYUI_clean_sbu_0, # of connection points: 4
#     Node 2, Type 0, BuildingBlock: UXUYUI_clean_sbu_0, # of connection points: 4
#     Node 3, Type 0, BuildingBlock: UXUYUI_clean_sbu_0, # of connection points: 4
#     Node 4, Type 0, BuildingBlock: UXUYUI_clean_sbu_0, # of connection points: 4
#     Node 5, Type 0, BuildingBlock: UXUYUI_clean_sbu_0, # of connection points: 4
#     Node 6, Type 0, BuildingBlock: UXUYUI_clean_sbu_0, # of connection points: 4
#     Node 7, Type 0, BuildingBlock: UXUYUI_clean_sbu_0, # of connection points: 4
#     Node 8, Type 0, BuildingBlock: UXUYUI_clean_sbu_0, # of connection points: 4
#     Node 9, Type 0, BuildingBlock: UXUYUI_clean_sbu_0, # of connection points: 4
#     Node 10, Type 0, BuildingBlock: UXUYUI_clean_sbu_0, # of connection points: 4
#     Node 11, Type 0, BuildingBlock: UXUYUI_clean_sbu_0, # of connection points: 4
#     Node 12, Type 0, BuildingBlock: UXUYUI_clean_sbu_0, # of connection points: 4
#     Node 13, Type 0, BuildingBlock: UXUYUI_clean_sbu_0, # of connection points: 4
#     Node 14, Type 0, BuildingBlock: UXUYUI_clean_sbu_0, # of connection points: 4
#     Node 15, Type 0, BuildingBlock: UXUYUI_clean_sbu_0, # of connection points: 4
#     Node 16, Type 0, BuildingBlock: UXUYUI_clean_sbu_0, # of connection points: 4
#     Node 17, Type 0, BuildingBlock: UXUYUI_clean_sbu_0, # of connection points: 4
#     Node 18, Type 1, BuildingBlock: AZAVOO_clean_linker_0, # of connection points: 4
#     Node 19, Type 1, BuildingBlock: AZAVOO_clean_linker_0, # of connection points: 4
#     Node 20, Type 1, BuildingBlock: AZAVOO_clean_linker_0, # of connection points: 4
#     Node 21, Type 1, BuildingBlock: AZAVOO_clean_linker_0, # of connection points: 4
#     Node 22, Type 1, BuildingBlock: AZAVOO_clean_linker_0, # of connection points: 4
#     Node 23, Type 1, BuildingBlock: AZAVOO_clean_linker_0, # of connection points: 4
#     Node 24, Type 1, BuildingBlock: AZAVOO_clean_linker_0, # of connection points: 4
#     Node 25, Type 1, BuildingBlock: AZAVOO_clean_linker_0, # of connection points: 4
#     Node 26, Type 1, BuildingBlock: AZAVOO_clean_linker_0, # of connection points: 4
#     Node 27, Type 1, BuildingBlock: AZAVOO_clean_linker_0, # of connection points: 4
#     Node 28, Type 1, BuildingBlock: AZAVOO_clean_linker_0, # of connection points: 4
#     Node 29, Type 1, BuildingBlock: AZAVOO_clean_linker_0, # of connection points: 4
#     Node 30, Type 1, BuildingBlock: AZAVOO_clean_linker_0, # of connection points: 4
#     Node 31, Type 1, BuildingBlock: AZAVOO_clean_linker_0, # of connection points: 4
#     Node 32, Type 1, BuildingBlock: AZAVOO_clean_linker_0, # of connection points: 4
#     Node 33, Type 1, BuildingBlock: AZAVOO_clean_linker_0, # of connection points: 4
#     Node 34, Type 1, BuildingBlock: AZAVOO_clean_linker_0, # of connection points: 4
#     Node 35, Type 1, BuildingBlock: AZAVOO_clean_linker_0, # of connection points: 4
#     Edge 36, Type (0, 1), BuildingBlock: EZIPEK_clean_linker_0, # of connection points: 2
#     Edge 37, Type (0, 1), BuildingBlock: EZIPEK_clean_linker_0, # of connection points: 2
#     Edge 38, Type (0, 1), BuildingBlock: EZIPEK_clean_linker_0, # of connection points: 2
#     Edge 39, Type (0, 1), BuildingBlock: EZIPEK_clean_linker_0, # of connection points: 2
#     Edge 40, Type (0, 1), BuildingBlock: EZIPEK_clean_linker_0, # of connection points: 2
#     Edge 41, Type (0, 1), BuildingBlock: EZIPEK_clean_linker_0, # of connection points: 2
#     Edge 42, Type (0, 1), BuildingBlock: EZIPEK_clean_linker_0, # of connection points: 2
#     Edge 43, Type (0, 1), BuildingBlock: EZIPEK_clean_linker_0, # of connection points: 2
#     Edge 44, Type (0, 1), BuildingBlock: EZIPEK_clean_linker_0, # of connection points: 2
#     Edge 45, Type (0, 1), BuildingBlock: EZIPEK_clean_linker_0, # of connection points: 2
#     Edge 46, Type (0, 1), BuildingBlock: EZIPEK_clean_linker_0, # of connection points: 2
#     Edge 47, Type (0, 1), BuildingBlock: EZIPEK_clean_linker_0, # of connection points: 2
#     Edge 48, Type (0, 1), BuildingBlock: EZIPEK_clean_linker_0, # of connection points: 2
#     Edge 49, Type (0, 1), BuildingBlock: EZIPEK_clean_linker_0, # of connection points: 2
#     Edge 50, Type (0, 1), BuildingBlock: EZIPEK_clean_linker_0, # of connection points: 2
#     Edge 51, Type (0, 1), BuildingBlock: EZIPEK_clean_linker_0, # of connection points: 2
#     Edge 52, Type (0, 1), BuildingBlock: EZIPEK_clean_linker_0, # of connection points: 2
#     Edge 53, Type (0, 1), BuildingBlock: EZIPEK_clean_linker_0, # of connection points: 2
#     Edge 54, Type (0, 1), BuildingBlock: EZIPEK_clean_linker_0, # of connection points: 2
#     Edge 55, Type (0, 1), BuildingBlock: EZIPEK_clean_linker_0, # of connection points: 2
#     Edge 56, Type (0, 1), BuildingBlock: EZIPEK_clean_linker_0, # of connection points: 2
#     Edge 57, Type (0, 1), BuildingBlock: EZIPEK_clean_linker_0, # of connection points: 2
#     Edge 58, Type (0, 1), BuildingBlock: EZIPEK_clean_linker_0, # of connection points: 2
#     Edge 59, Type (0, 1), BuildingBlock: EZIPEK_clean_linker_0, # of connection points: 2
#     Edge 60, Type (0, 1), BuildingBlock: EZIPEK_clean_linker_0, # of connection points: 2
#     Edge 61, Type (0, 1), BuildingBlock: EZIPEK_clean_linker_0, # of connection points: 2
#     Edge 62, Type (0, 1), BuildingBlock: EZIPEK_clean_linker_0, # of connection points: 2
#     Edge 63, Type (0, 1), BuildingBlock: EZIPEK_clean_linker_0, # of connection points: 2
#     Edge 64, Type (0, 1), BuildingBlock: EZIPEK_clean_linker_0, # of connection points: 2
#     Edge 65, Type (0, 1), BuildingBlock: EZIPEK_clean_linker_0, # of connection points: 2
#     Edge 66, Type (0, 1), BuildingBlock: EZIPEK_clean_linker_0, # of connection points: 2
#     Edge 67, Type (0, 1), BuildingBlock: EZIPEK_clean_linker_0, # of connection points: 2
#     Edge 68, Type (0, 1), BuildingBlock: EZIPEK_clean_linker_0, # of connection points: 2
#     Edge 69, Type (0, 1), BuildingBlock: EZIPEK_clean_linker_0, # of connection points: 2
#     Edge 70, Type (0, 1), BuildingBlock: EZIPEK_clean_linker_0, # of connection points: 2
#     Edge 71, Type (0, 1), BuildingBlock: EZIPEK_clean_linker_0, # of connection points: 2
#     Edge 72, Type (0, 1), BuildingBlock: EZIPEK_clean_linker_0, # of connection points: 2
#     Edge 73, Type (0, 1), BuildingBlock: EZIPEK_clean_linker_0, # of connection points: 2
#     Edge 74, Type (0, 1), BuildingBlock: EZIPEK_clean_linker_0, # of connection points: 2
#     Edge 75, Type (0, 1), BuildingBlock: EZIPEK_clean_linker_0, # of connection points: 2
#     Edge 76, Type (0, 1), BuildingBlock: EZIPEK_clean_linker_0, # of connection points: 2
#     Edge 77, Type (0, 1), BuildingBlock: EZIPEK_clean_linker_0, # of connection points: 2
#     Edge 78, Type (0, 1), BuildingBlock: EZIPEK_clean_linker_0, # of connection points: 2
#     Edge 79, Type (0, 1), BuildingBlock: EZIPEK_clean_linker_0, # of connection points: 2
#     Edge 80, Type (0, 1), BuildingBlock: EZIPEK_clean_linker_0, # of connection points: 2
#     Edge 81, Type (0, 1), BuildingBlock: EZIPEK_clean_linker_0, # of connection points: 2
#     Edge 82, Type (0, 1), BuildingBlock: EZIPEK_clean_linker_0, # of connection points: 2
#     Edge 83, Type (0, 1), BuildingBlock: EZIPEK_clean_linker_0, # of connection points: 2
#     Edge 84, Type (0, 1), BuildingBlock: EZIPEK_clean_linker_0, # of connection points: 2
#     Edge 85, Type (0, 1), BuildingBlock: EZIPEK_clean_linker_0, # of connection points: 2
#     Edge 86, Type (0, 1), BuildingBlock: EZIPEK_clean_linker_0, # of connection points: 2
#     Edge 87, Type (0, 1), BuildingBlock: EZIPEK_clean_linker_0, # of connection points: 2
#     Edge 88, Type (0, 1), BuildingBlock: EZIPEK_clean_linker_0, # of connection points: 2
#     Edge 89, Type (0, 1), BuildingBlock: EZIPEK_clean_linker_0, # of connection points: 2
#     Edge 90, Type (0, 1), BuildingBlock: EZIPEK_clean_linker_0, # of connection points: 2
#     Edge 91, Type (0, 1), BuildingBlock: EZIPEK_clean_linker_0, # of connection points: 2
#     Edge 92, Type (0, 1), BuildingBlock: EZIPEK_clean_linker_0, # of connection points: 2
#     Edge 93, Type (0, 1), BuildingBlock: EZIPEK_clean_linker_0, # of connection points: 2
#     Edge 94, Type (0, 1), BuildingBlock: EZIPEK_clean_linker_0, # of connection points: 2
#     Edge 95, Type (0, 1), BuildingBlock: EZIPEK_clean_linker_0, # of connection points: 2
#     Edge 96, Type (0, 1), BuildingBlock: EZIPEK_clean_linker_0, # of connection points: 2
#     Edge 97, Type (0, 1), BuildingBlock: EZIPEK_clean_linker_0, # of connection points: 2
#     Edge 98, Type (0, 1), BuildingBlock: EZIPEK_clean_linker_0, # of connection points: 2
#     Edge 99, Type (0, 1), BuildingBlock: EZIPEK_clean_linker_0, # of connection points: 2
#     Edge 100, Type (0, 1), BuildingBlock: EZIPEK_clean_linker_0, # of connection points: 2
#     Edge 101, Type (0, 1), BuildingBlock: EZIPEK_clean_linker_0, # of connection points: 2
#     Edge 102, Type (0, 1), BuildingBlock: EZIPEK_clean_linker_0, # of connection points: 2
#     Edge 103, Type (0, 1), BuildingBlock: EZIPEK_clean_linker_0, # of connection points: 2
#     Edge 104, Type (0, 1), BuildingBlock: EZIPEK_clean_linker_0, # of connection points: 2
#     Edge 105, Type (0, 1), BuildingBlock: EZIPEK_clean_linker_0, # of connection points: 2
#     Edge 106, Type (0, 1), BuildingBlock: EZIPEK_clean_linker_0, # of connection points: 2
#     Edge 107, Type (0, 1), BuildingBlock: EZIPEK_clean_linker_0, # of connection points: 2
# Relax obj value: 0.134
# Max RMSD: 0.320
# Mean RMSD: 0.191
data_MOF--net-ptr--node1-UXUYUI_clean_sbu_0--node2-AZAVOO_clean_linker_0--edge1-EZIPEK_clean_linker_0
_symmetry_space_group_name_H-M    P1
_symmetry_Int_Tables_number       1
_symmetry_cell_setting            triclinic
loop_
_symmetry_equiv_pos_as_xyz
'x, y, z'
_cell_length_a     80.168261
_cell_length_b     79.416208
_cell_length_c     65.213554
_cell_angle_alpha  92.819119
_cell_angle_beta   92.488057
_cell_angle_gamma 120.23131
loop_
_atom_site_label
_atom_site_type_symbol
_atom_site_fract_x
_atom_site_fract_y
_atom_site_fract_z
_atom_type_partial_charge
Li0 Li 0.99047 0.34709 0.01161 0.0
Li1 Li 0.02099 0.36384 0.03147 0.0
Li2 Li 0.99762 0.37353 0.03714 0.0
Li3 Li 0.01453 0.38134 0.00595 0.0
C4 C 0.97742 0.33627 0.04968 0.0
N5 N 0.94204 0.31289 0.06525 0.0
C6 C 0.97602 0.32486 0.06591 0.0
C7 C 0.96073 0.33566 0.04132 0.0
C8 C 0.95803 0.31318 0.07358 0.0
C9 C 0.94301 0.32379 0.04942 0.0
C10 C 0.02558 0.34782 0.99567 0.0
C11 C 0.0495 0.34528 0.97675 0.0
N12 N 0.045 0.32845 0.98553 0.0
C13 C 0.02113 0.33048 0.00445 0.0
C14 C 0.03985 0.3553 0.98169 0.0
C15 C 0.03114 0.32092 0.99915 0.0
C16 C 0.96107 0.32254 0.98084 0.0
N17 N 0.97129 0.32276 0.99814 0.0
C18 C 0.95449 0.28786 0.99601 0.0
C19 C 0.96826 0.30593 0.00587 0.0
C20 C 0.94372 0.28721 0.97818 0.0
C21 C 0.94701 0.30475 0.97057 0.0
H22 H 0.96387 0.33618 0.97504 0.0
H23 H 0.97651 0.30654 0.01973 0.0
C24 C 0.03514 0.35181 0.06374 0.0
N25 N 0.04009 0.35994 0.0455 0.0
C26 C 0.04756 0.34763 0.07509 0.0
C27 C 0.07042 0.36096 0.04909 0.0
C28 C 0.05737 0.36459 0.03804 0.0
C29 C 0.06543 0.35224 0.06777 0.0
H30 H 0.02149 0.34854 0.06947 0.0
H31 H 0.061 0.37093 0.02346 0.0
C32 C 0.98099 0.38316 0.00472 0.0
N33 N 0.97064 0.41072 0.99694 0.0
C34 C 0.99214 0.40229 0.01383 0.0
C35 C 0.96462 0.37809 0.99161 0.0
C36 C 0.98664 0.41599 0.00974 0.0
C37 C 0.95963 0.39223 0.98785 0.0
C38 C 0.04532 0.40391 0.03575 0.0
C39 C 0.05436 0.41785 0.05254 0.0
C40 C 0.05633 0.40326 0.02003 0.0
C41 C 0.0743 0.4309 0.05332 0.0
C42 C 0.07623 0.41655 0.02137 0.0
N43 N 0.08474 0.42998 0.03785 0.0
C44 C 0.00061 0.39269 0.07473 0.0
C45 C 0.9707 0.38256 0.05571 0.0
C46 C 0.99607 0.40207 0.09023 0.0
N47 N 0.98812 0.38347 0.05779 0.0
C48 C 0.96555 0.39177 0.07091 0.0
C49 C 0.97851 0.40187 0.08821 0.0
H50 H 0.01426 0.39301 0.07598 0.0
H51 H 0.96099 0.37506 0.04211 0.0
C52 C 0.01418 0.39165 0.9659 0.0
N53 N 0.02261 0.39938 0.98519 0.0
C54 C 0.01573 0.4039 0.95055 0.0
C55 C 0.03553 0.43184 0.97489 0.0
C56 C 0.03334 0.41906 0.98988 0.0
C57 C 0.02614 0.42422 0.95517 0.0
H58 H 0.00532 0.37596 0.96281 0.0
H59 H 0.03925 0.42488 0.00549 0.0
O60 O 0.995 0.34765 0.04195 0.0
O61 O 0.01626 0.35764 0.00097 0.0
O62 O 0.98601 0.36942 0.00849 0.0
O63 O 0.02582 0.39095 0.0349 0.0
H64 H 0.98867 0.32493 0.07249 0.0
H65 H 0.9613 0.34412 0.02865 0.0
H66 H 0.95679 0.3043 0.08614 0.0
H67 H 0.93002 0.32321 0.04308 0.0
H68 H 0.0606 0.3509 0.96598 0.0
H69 H 0.01041 0.32473 0.0156 0.0
H70 H 0.04346 0.36873 0.97479 0.0
H71 H 0.02797 0.30757 0.00597 0.0
H72 H 0.95218 0.27452 0.00225 0.0
H73 H 0.93883 0.30465 0.95685 0.0
H74 H 0.04334 0.34094 0.08949 0.0
H75 H 0.08413 0.36469 0.04305 0.0
H76 H 0.00487 0.40653 0.024 0.0
H77 H 0.95584 0.36336 0.98443 0.0
H78 H 0.99512 0.43082 0.01671 0.0
H79 H 0.947 0.38851 0.97773 0.0
H80 H 0.04606 0.4186 0.06483 0.0
H81 H 0.04961 0.39261 0.00691 0.0
H82 H 0.08149 0.44176 0.06623 0.0
H83 H 0.08492 0.41618 0.0093 0.0
H84 H 0.00627 0.40966 0.10352 0.0
H85 H 0.95184 0.39132 0.06908 0.0
H86 H 0.00821 0.39761 0.9355 0.0
H87 H 0.04349 0.44747 0.97894 0.0
Li88 Li 0.64534 0.62562 0.05671 0.0
Li89 Li 0.63189 0.64059 0.07564 0.0
Li90 Li 0.62168 0.60649 0.08044 0.0
Li91 Li 0.61193 0.61708 0.04712 0.0
C92 C 0.66546 0.63298 0.09204 0.0
N93 N 0.70224 0.63928 0.10122 0.0
C94 C 0.68172 0.65083 0.08858 0.0
C95 C 0.66791 0.61839 0.10031 0.0
C96 C 0.70019 0.6537 0.09325 0.0
C97 C 0.68663 0.62186 0.10484 0.0
C98 C 0.63903 0.66017 0.0421 0.0
C99 C 0.62783 0.68099 0.02923 0.0
N100 N 0.64567 0.69686 0.03442 0.0
C101 C 0.65729 0.67667 0.04724 0.0
C102 C 0.62419 0.6623 0.03293 0.0
C103 C 0.66035 0.6951 0.04323 0.0
C104 C 0.67374 0.64273 0.029 0.0
N105 N 0.66804 0.62976 0.0437 0.0
C106 C 0.69418 0.6241 0.03813 0.0
C107 C 0.67781 0.62034 0.0483 0.0
C108 C 0.70042 0.63767 0.02319 0.0
C109 C 0.69004 0.64701 0.01859 0.0
H110 H 0.66556 0.6497 0.0252 0.0
H111 H 0.6729 0.60986 0.05977 0.0
C112 C 0.6522 0.67212 0.10573 0.0
N113 N 0.63763 0.66461 0.09047 0.0
C114 C 0.6585 0.69045 0.11584 0.0
C115 C 0.63402 0.69263 0.0951 0.0
C116 C 0.62826 0.67429 0.08531 0.0
C117 C 0.64952 0.70096 0.11029 0.0
H118 H 0.65923 0.66406 0.10982 0.0
H119 H 0.61665 0.66804 0.07325 0.0
C120 C 0.62969 0.58868 0.04179 0.0
N121 N 0.64586 0.56893 0.02303 0.0
C122 C 0.63256 0.58984 0.0208 0.0
C123 C 0.63491 0.57737 0.05322 0.0
C124 C 0.64083 0.57981 0.01162 0.0
C125 C 0.64306 0.56749 0.04344 0.0
C126 C 0.59638 0.62604 0.08758 0.0
C127 C 0.60059 0.62897 0.10892 0.0
C128 C 0.58402 0.63164 0.07848 0.0
C129 C 0.59249 0.63773 0.12083 0.0
C130 C 0.57618 0.64031 0.09093 0.0
N131 N 0.58056 0.64317 0.11166 0.0
C132 C 0.61849 0.59149 0.11921 0.0
C133 C 0.59888 0.56815 0.09194 0.0
C134 C 0.61124 0.57724 0.13328 0.0
N135 N 0.61249 0.58665 0.09894 0.0
C136 C 0.59125 0.55342 0.10548 0.0
C137 C 0.5981 0.55736 0.12657 0.0
H138 H 0.62863 0.60658 0.12453 0.0
H139 H 0.59361 0.56492 0.07585 0.0
C140 C 0.6009 0.61243 0.00574 0.0
N141 N 0.59339 0.60887 0.02437 0.0
C142 C 0.58873 0.60516 0.98769 0.0
C143 C 0.56114 0.59153 0.00829 0.0
C144 C 0.57393 0.59884 0.02605 0.0
C145 C 0.56863 0.5943 0.98887 0.0
H146 H 0.61644 0.62053 0.00496 0.0
H147 H 0.56839 0.59612 0.0411 0.0
O148 O 0.64725 0.62987 0.08748 0.0
O149 O 0.63581 0.64198 0.04573 0.0
O150 O 0.62196 0.59868 0.05117 0.0
O151 O 0.60443 0.61782 0.07564 0.0
H152 H 0.68008 0.66227 0.08217 0.0
H153 H 0.65551 0.60445 0.10297 0.0
H154 H 0.71289 0.66738 0.0905 0.0
H155 H 0.68874 0.61066 0.11115 0.0
H156 H 0.61644 0.68288 0.02225 0.0
H157 H 0.66895 0.67527 0.05429 0.0
H158 H 0.60996 0.64971 0.02891 0.0
H159 H 0.67439 0.708 0.04714 0.0
H160 H 0.70188 0.61655 0.04183 0.0
H161 H 0.69445 0.65741 0.00695 0.0
H162 H 0.67049 0.69655 0.12757 0.0
H163 H 0.62682 0.70046 0.09052 0.0
H164 H 0.6287 0.59859 0.01176 0.0
H165 H 0.63293 0.57644 0.06951 0.0
H166 H 0.6433 0.58071 0.99543 0.0
H167 H 0.64726 0.55877 0.05212 0.0
H168 H 0.6102 0.62477 0.11616 0.0
H169 H 0.58071 0.62955 0.06196 0.0
H170 H 0.59573 0.64024 0.13735 0.0
H171 H 0.56667 0.64483 0.0841 0.0
H172 H 0.61554 0.58235 0.1493 0.0
H173 H 0.5795 0.53941 0.09917 0.0
H174 H 0.59492 0.60763 0.97293 0.0
H175 H 0.54566 0.58327 0.00963 0.0
Li176 Li 0.38861 0.99569 0.0015 0.0
Li177 Li 0.39652 0.00588 0.0375 0.0
Li178 Li 0.36212 0.98163 0.0234 0.0
Li179 Li 0.37721 0.01658 0.01667 0.0
C180 C 0.39348 0.96877 0.01626 0.0
N181 N 0.41018 0.94932 0.99808 0.0
C182 C 0.41358 0.97708 0.01803 0.0
C183 C 0.38183 0.95049 0.00547 0.0
C184 C 0.42176 0.96704 0.00866 0.0
C185 C 0.39057 0.9409 0.99635 0.0
C186 C 0.4171 0.04235 0.02198 0.0
C187 C 0.42391 0.0703 0.04482 0.0
N188 N 0.44164 0.08068 0.03747 0.0
C189 C 0.43536 0.05337 0.01456 0.0
C190 C 0.4113 0.05094 0.03716 0.0
C191 C 0.44757 0.07269 0.02262 0.0
C192 C 0.38849 0.97732 0.96207 0.0
N193 N 0.39926 0.99133 0.97758 0.0
C194 C 0.42786 0.00224 0.95968 0.0
C195 C 0.41861 0.0035 0.97679 0.0
C196 C 0.41707 0.9882 0.94333 0.0
C197 C 0.39721 0.97542 0.94468 0.0
H198 H 0.37318 0.96769 0.96312 0.0
H199 H 0.42686 0.01422 0.9895 0.0
C200 C 0.40626 0.99609 0.07384 0.0
N201 N 0.41362 0.01073 0.06102 0.0
C202 C 0.41685 0.99742 0.09198 0.0
C203 C 0.4425 0.02892 0.08345 0.0
C204 C 0.43146 0.02689 0.0653 0.0
C205 C 0.43512 0.01403 0.09695 0.0
H206 H 0.39205 0.98342 0.06998 0.0
H207 H 0.43714 0.03825 0.05481 0.0
C208 C 0.34674 0.98238 0.98421 0.0
N209 N 0.31316 0.96025 0.95887 0.0
C210 C 0.33677 0.99106 0.97602 0.0
C211 C 0.33962 0.96244 0.97957 0.0
C212 C 0.31983 0.97963 0.96322 0.0
C213 C 0.32262 0.9515 0.96672 0.0
C214 C 0.36594 0.00992 0.06059 0.0
C215 C 0.34622 0.0027 0.06246 0.0
C216 C 0.37936 0.02188 0.07686 0.0
C217 C 0.34025 0.00758 0.08049 0.0
C218 C 0.37282 0.02641 0.09465 0.0
N219 N 0.35356 0.01922 0.09609 0.0
C220 C 0.3394 0.94919 0.04507 0.0
C221 C 0.32155 0.96027 0.0257 0.0
C222 C 0.32311 0.93714 0.05535 0.0
N223 N 0.33843 0.9608 0.031 0.0
C224 C 0.30497 0.94849 0.03563 0.0
C225 C 0.30591 0.93733 0.05111 0.0
H226 H 0.35314 0.95031 0.04931 0.0
H227 H 0.32134 0.9702 0.0151 0.0
C228 C 0.38024 0.04914 0.99814 0.0
N229 N 0.37009 0.03542 0.01131 0.0
C230 C 0.37326 0.06086 0.99092 0.0
C231 C 0.34578 0.04438 0.01132 0.0
C232 C 0.3533 0.03299 0.01817 0.0
C233 C 0.35565 0.05818 0.99723 0.0
H234 H 0.39324 0.05032 0.99248 0.0
H235 H 0.3452 0.0215 0.028 0.0
O236 O 0.38529 0.97872 0.02465 0.0
O237 O 0.40502 0.02339 0.01419 0.0
O238 O 0.36316 0.99333 0.99705 0.0
O239 O 0.37206 0.00488 0.04324 0.0
H240 H 0.42278 0.99127 0.02628 0.0
H241 H 0.36624 0.94384 0.00407 0.0
H242 H 0.43731 0.97336 0.00972 0.0
H243 H 0.38176 0.92679 0.98784 0.0
H244 H 0.41957 0.07707 0.05658 0.0
H245 H 0.44011 0.0471 0.00271 0.0
H246 H 0.39718 0.04286 0.04288 0.0
H247 H 0.46175 0.08134 0.01705 0.0
H248 H 0.44326 0.01218 0.95914 0.0
H249 H 0.38857 0.96433 0.93232 0.0
H250 H 0.41078 0.98572 0.10215 0.0
H251 H 0.45657 0.04193 0.08696 0.0
H252 H 0.34208 0.00647 0.97949 0.0
H253 H 0.34699 0.95545 0.98606 0.0
H254 H 0.31198 0.98616 0.95675 0.0
H255 H 0.3169 0.93603 0.96305 0.0
H256 H 0.3356 0.99359 0.05008 0.0
H257 H 0.39468 0.02767 0.07583 0.0
H258 H 0.32502 0.00208 0.08207 0.0
H259 H 0.38307 0.03563 0.10733 0.0
H260 H 0.32424 0.92874 0.06737 0.0
H261 H 0.29192 0.94907 0.03225 0.0
H262 H 0.38102 0.07127 0.97983 0.0
H263 H 0.332 0.04185 0.01618 0.0
Li264 Li 0.01542 0.65653 0.05988 0.0
Li265 Li 0.99241 0.62424 0.06683 0.0
Li266 Li 0.00688 0.62994 0.03458 0.0
Li267 Li 0.98222 0.63954 0.04143 0.0
C268 C 0.0377 0.64402 0.07279 0.0
N269 N 0.07359 0.66472 0.09453 0.0
C270 C 0.03951 0.64256 0.09396 0.0
C271 C 0.05418 0.65599 0.06269 0.0
C272 C 0.05777 0.65312 0.10466 0.0
C273 C 0.07217 0.66637 0.07395 0.0
C274 C 0.97855 0.64473 0.08716 0.0
C275 C 0.94779 0.63658 0.09995 0.0
N276 N 0.95557 0.63881 0.11955 0.0
C277 C 0.98626 0.64701 0.10743 0.0
C278 C 0.95917 0.63951 0.08337 0.0
C279 C 0.97439 0.64392 0.12359 0.0
C280 C 0.04341 0.69671 0.05926 0.0
N281 N 0.03482 0.68175 0.07159 0.0
C282 C 0.0526 0.7031 0.10148 0.0
C283 C 0.03901 0.68464 0.09234 0.0
C284 C 0.06164 0.71874 0.08914 0.0
C285 C 0.05697 0.7155 0.06779 0.0
H286 H 0.03954 0.6941 0.04286 0.0
H287 H 0.03176 0.67262 0.10183 0.0
C288 C 0.99533 0.59709 0.08916 0.0
N289 N 0.98405 0.60527 0.08697 0.0
C290 C 0.9917 0.58361 0.10367 0.0
C291 C 0.96412 0.58619 0.11279 0.0
C292 C 0.96826 0.59962 0.09796 0.0
C293 C 0.97617 0.57835 0.11588 0.0
H294 H 0.00733 0.60118 0.0797 0.0
H295 H 0.95885 0.60547 0.0953 0.0
C296 C 0.01336 0.65721 0.01036 0.0
N297 N 0.02368 0.65956 0.97026 0.0
C298 C 0.99917 0.65044 0.99392 0.0
C299 C 0.03281 0.66532 0.0064 0.0
C300 C 0.00468 0.65174 0.97376 0.0
C301 C 0.03773 0.66633 0.98603 0.0
C302 C 0.96638 0.59459 0.04266 0.0
C303 C 0.97193 0.58052 0.04089 0.0
C304 C 0.94823 0.58952 0.04937 0.0
C305 C 0.95922 0.56156 0.04603 0.0
C306 C 0.93593 0.57039 0.05432 0.0
N307 N 0.94164 0.55693 0.05259 0.0
C308 C 0.03172 0.61961 0.01361 0.0
C309 C 0.0004 0.60838 0.99746 0.0
C310 C 0.03584 0.61014 0.99768 0.0
N311 N 0.01424 0.61857 0.01313 0.0
C312 C 0.00385 0.59865 0.98134 0.0
C313 C 0.02169 0.59942 0.98146 0.0
H314 H 0.04234 0.62753 0.02641 0.0
H315 H 0.98657 0.60767 0.99762 0.0
C316 C 0.9679 0.66304 0.02925 0.0
N317 N 0.96343 0.64408 0.0287 0.0
C318 C 0.95599 0.66809 0.01825 0.0
C319 C 0.93487 0.63392 0.00666 0.0
C320 C 0.94729 0.62953 0.0178 0.0
C321 C 0.93939 0.65343 0.00669 0.0
H322 H 0.98104 0.67427 0.03781 0.0
H323 H 0.94438 0.61466 0.01728 0.0
O324 O 0.01989 0.63403 0.06206 0.0
O325 O 0.98998 0.64799 0.07114 0.0
O326 O 0.00819 0.65544 0.03022 0.0
O327 O 0.97888 0.61338 0.0384 0.0
H328 H 0.02692 0.6337 0.10217 0.0
H329 H 0.05305 0.6575 0.0464 0.0
H330 H 0.05935 0.6522 0.12106 0.0
H331 H 0.08501 0.67579 0.06635 0.0
H332 H 0.93276 0.6325 0.09724 0.0
H333 H 0.00112 0.65079 0.11066 0.0
H334 H 0.95294 0.63769 0.06781 0.0
H335 H 0.98013 0.6455 0.13934 0.0
H336 H 0.05592 0.70522 0.11801 0.0
H337 H 0.0637 0.72739 0.05792 0.0
H338 H 0.00109 0.57758 0.1056 0.0
H339 H 0.95183 0.58211 0.12187 0.0
H340 H 0.98403 0.64397 0.99664 0.0
H341 H 0.04398 0.67064 0.01892 0.0
H342 H 0.99383 0.64644 0.9609 0.0
H343 H 0.05272 0.67245 0.98274 0.0
H344 H 0.986 0.58428 0.03587 0.0
H345 H 0.94384 0.60033 0.05107 0.0
H346 H 0.96336 0.55054 0.04489 0.0
H347 H 0.92189 0.56628 0.05968 0.0
H348 H 0.04975 0.61096 0.9981 0.0
H349 H 0.99269 0.5905 0.96897 0.0
H350 H 0.95979 0.68327 0.01846 0.0
H351 H 0.92216 0.62236 0.99775 0.0
Li352 Li 0.35446 0.37695 0.00918 0.0
Li353 Li 0.38742 0.38393 0.01934 0.0
Li354 Li 0.3813 0.3924 0.98777 0.0
Li355 Li 0.36936 0.35789 0.99224 0.0
C356 C 0.38306 0.4211 0.01177 0.0
N357 N 0.39288 0.45889 0.00463 0.0
C358 C 0.40251 0.43561 0.01158 0.0
C359 C 0.3686 0.42584 0.00854 0.0
C360 C 0.40718 0.45461 0.00784 0.0
C361 C 0.37387 0.44503 0.00495 0.0
C362 C 0.36425 0.35327 0.03968 0.0
C363 C 0.37155 0.33368 0.06131 0.0
N364 N 0.36872 0.34242 0.0782 0.0
C365 C 0.36132 0.36199 0.05722 0.0
C366 C 0.36934 0.33895 0.04169 0.0
C367 C 0.36369 0.35633 0.07657 0.0
C368 C 0.31456 0.3558 0.01149 0.0
N369 N 0.33093 0.37244 0.0191 0.0
C370 C 0.31402 0.37797 0.04539 0.0
C371 C 0.33096 0.3837 0.0355 0.0
C372 C 0.29716 0.36043 0.03836 0.0
C373 C 0.29734 0.34946 0.02097 0.0
H374 H 0.31518 0.34695 0.99872 0.0
H375 H 0.34436 0.39655 0.04155 0.0
C376 C 0.41283 0.3807 0.04971 0.0
N377 N 0.40493 0.39148 0.04352 0.0
C378 C 0.42472 0.38635 0.06802 0.0
C379 C 0.41991 0.41391 0.07336 0.0
C380 C 0.40827 0.40783 0.05493 0.0
C381 C 0.42814 0.40304 0.08006 0.0
H382 H 0.40964 0.36751 0.04069 0.0
H383 H 0.40158 0.41597 0.04992 0.0
C384 C 0.35047 0.37433 0.96117 0.0
N385 N 0.34303 0.38493 0.92369 0.0
C386 C 0.35833 0.37129 0.94363 0.0
C387 C 0.33867 0.38256 0.95966 0.0
C388 C 0.35446 0.37684 0.92482 0.0
C389 C 0.33509 0.38784 0.94056 0.0
C390 C 0.41373 0.38133 0.9988 0.0
C391 C 0.4297 0.39993 0.0043 0.0
C392 C 0.41578 0.36489 0.99943 0.0
C393 C 0.44744 0.40177 0.01068 0.0
C394 C 0.43379 0.36735 0.00584 0.0
N395 N 0.4491 0.38557 0.01132 0.0
C396 C 0.38516 0.42222 0.96096 0.0
C397 C 0.40833 0.41208 0.9594 0.0
C398 C 0.39434 0.43568 0.94639 0.0
N399 N 0.39243 0.41095 0.96738 0.0
C400 C 0.41788 0.42523 0.94481 0.0
C401 C 0.41096 0.43728 0.93834 0.0
H402 H 0.37228 0.42081 0.9671 0.0
H403 H 0.41364 0.40275 0.96432 0.0
C404 C 0.34727 0.31729 0.9876 0.0
N405 N 0.36226 0.33301 0.98004 0.0
C406 C 0.34068 0.29853 0.97853 0.0
C407 C 0.365 0.31255 0.95399 0.0
C408 C 0.37115 0.33108 0.96356 0.0
C409 C 0.34957 0.29612 0.96152 0.0
H410 H 0.34034 0.31939 0.00055 0.0
H411 H 0.3829 0.34394 0.9578 0.0
O412 O 0.37819 0.40241 0.01537 0.0
O413 O 0.36237 0.35888 0.02065 0.0
O414 O 0.35445 0.36944 0.9798 0.0
O415 O 0.39624 0.37924 0.99253 0.0
H416 H 0.41386 0.4322 0.01418 0.0
H417 H 0.35347 0.41476 0.00853 0.0
H418 H 0.42217 0.46596 0.00749 0.0
H419 H 0.36284 0.44888 0.00229 0.0
H420 H 0.37559 0.32271 0.06312 0.0
H421 H 0.3575 0.37318 0.05592 0.0
H422 H 0.37178 0.33217 0.02825 0.0
H423 H 0.36161 0.36305 0.09031 0.0
H424 H 0.31428 0.38656 0.05895 0.0
H425 H 0.28454 0.33576 0.01539 0.0
H426 H 0.43079 0.37761 0.07298 0.0
H427 H 0.42224 0.4268 0.08249 0.0
H428 H 0.36753 0.36497 0.94461 0.0
H429 H 0.33252 0.38501 0.97315 0.0
H430 H 0.36059 0.37476 0.91114 0.0
H431 H 0.32608 0.39433 0.93915 0.0
H432 H 0.42836 0.4128 0.00376 0.0
H433 H 0.40357 0.35039 0.99525 0.0
H434 H 0.45988 0.41606 0.01513 0.0
H435 H 0.43558 0.35476 0.00653 0.0
H436 H 0.38862 0.44474 0.94149 0.0
H437 H 0.43061 0.42609 0.9387 0.0
H438 H 0.32872 0.28604 0.9846 0.0
H439 H 0.37209 0.31102 0.94085 0.0
Li440 Li 0.62439 0.98565 0.05067 0.0
Li441 Li 0.61569 0.0088 0.06579 0.0
Li442 Li 0.60892 0.99815 0.02857 0.0
Li443 Li 0.64206 0.02075 0.04206 0.0
C444 C 0.58639 0.96307 0.05581 0.0
N445 N 0.56341 0.92438 0.06368 0.0
C446 C 0.57661 0.95831 0.07377 0.0
C447 C 0.58433 0.94815 0.04177 0.0
C448 C 0.56509 0.93866 0.07748 0.0
C449 C 0.5727 0.92868 0.04605 0.0
C450 C 0.65262 0.01624 0.08668 0.0
C451 C 0.68008 0.04182 0.10782 0.0
N452 N 0.67713 0.02906 0.12231 0.0
C453 C 0.65002 0.00335 0.10172 0.0
C454 C 0.66791 0.0356 0.08967 0.0
C455 C 0.66249 0.01012 0.11965 0.0
C456 C 0.64233 0.96345 0.04569 0.0
N457 N 0.62923 0.9653 0.05671 0.0
C458 C 0.62831 0.94251 0.07983 0.0
C459 C 0.62193 0.95492 0.0733 0.0
C460 C 0.64234 0.94094 0.06921 0.0
C461 C 0.64912 0.95119 0.0517 0.0
H462 H 0.64818 0.9722 0.03284 0.0
H463 H 0.61195 0.95705 0.08212 0.0
C464 C 0.59681 0.02463 0.08943 0.0
N465 N 0.60575 0.01392 0.08988 0.0
C466 C 0.58764 0.0263 0.10651 0.0
C467 C 0.59689 0.00577 0.12407 0.0
C468 C 0.60606 0.00469 0.10678 0.0
C469 C 0.58734 0.01646 0.1239 0.0
H470 H 0.59623 0.03134 0.0756 0.0
H471 H 0.6126 0.99568 0.10646 0.0
C472 C 0.6307 0.99236 0.00306 0.0
N473 N 0.62673 0.98424 0.96085 0.0
C474 C 0.63791 0.0076 0.99008 0.0
C475 C 0.62165 0.973 0.99459 0.0
C476 C 0.63572 0.00319 0.96878 0.0
C477 C 0.61972 0.9692 0.97321 0.0
C478 C 0.62601 0.04456 0.04763 0.0
C479 C 0.62154 0.05559 0.03484 0.0
C480 C 0.63694 0.05326 0.06636 0.0
C481 C 0.62825 0.07522 0.04094 0.0
C482 C 0.64337 0.0729 0.07193 0.0
N483 N 0.63895 0.0834 0.05921 0.0
C484 C 0.57628 0.97484 0.99918 0.0
C485 C 0.59691 0.00805 0.99293 0.0
C486 C 0.56491 0.97165 0.98092 0.0
N487 N 0.59198 0.99281 0.0047 0.0
C488 C 0.58597 0.00554 0.97464 0.0
C489 C 0.56983 0.98716 0.96849 0.0
H490 H 0.57267 0.96297 0.0088 0.0
H491 H 0.60961 0.02208 0.99759 0.0
C492 C 0.68086 0.03565 0.03741 0.0
N493 N 0.66668 0.04018 0.03496 0.0
C494 C 0.69835 0.04652 0.02858 0.0
C495 C 0.68662 0.06702 0.01561 0.0
C496 C 0.66932 0.05575 0.02471 0.0
C497 C 0.70106 0.06201 0.01706 0.0
H498 H 0.6781 0.02289 0.04522 0.0
H499 H 0.6576 0.05863 0.02241 0.0
O500 O 0.5979 0.98224 0.05203 0.0
O501 O 0.64083 0.00976 0.06876 0.0
O502 O 0.63239 0.99637 0.02393 0.0
O503 O 0.61976 0.02539 0.04171 0.0
H504 H 0.57783 0.96963 0.08469 0.0
H505 H 0.59182 0.95159 0.02784 0.0
H506 H 0.55748 0.93476 0.09134 0.0
H507 H 0.57109 0.917 0.03537 0.0
H508 H 0.69191 0.05678 0.11033 0.0
H509 H 0.63843 0.98831 0.09968 0.0
H510 H 0.67047 0.04575 0.07809 0.0
H511 H 0.66054 0.0003 0.13144 0.0
H512 H 0.62301 0.93489 0.09354 0.0
H513 H 0.66012 0.95036 0.04337 0.0
H514 H 0.58023 0.03454 0.1059 0.0
H515 H 0.5967 0.99785 0.1372 0.0
H516 H 0.64489 0.02265 0.99635 0.0
H517 H 0.6162 0.96105 0.00441 0.0
H518 H 0.64111 0.01484 0.95855 0.0
H519 H 0.61267 0.95429 0.96644 0.0
H520 H 0.61301 0.0491 0.02033 0.0
H521 H 0.64017 0.04486 0.07662 0.0
H522 H 0.62495 0.08394 0.03116 0.0
H523 H 0.65183 0.07979 0.08641 0.0
H524 H 0.55256 0.95727 0.97644 0.0
H525 H 0.59016 0.01772 0.96525 0.0
H526 H 0.70921 0.04224 0.02973 0.0
H527 H 0.6883 0.07878 0.00656 0.0
Li528 Li 0.65362 0.68211 0.34122 0.0
Li529 Li 0.68336 0.69828 0.36211 0.0
Li530 Li 0.66041 0.70835 0.36807 0.0
Li531 Li 0.67761 0.71589 0.33719 0.0
C532 C 0.65849 0.66855 0.38188 0.0
N533 N 0.66301 0.64164 0.40306 0.0
C534 C 0.65839 0.65282 0.37114 0.0
C535 C 0.66082 0.67055 0.40339 0.0
C536 C 0.66072 0.63939 0.38213 0.0
C537 C 0.6631 0.6568 0.41381 0.0
C538 C 0.69726 0.69784 0.32377 0.0
C539 C 0.73178 0.71962 0.32422 0.0
N540 N 0.73227 0.709 0.30749 0.0
C541 C 0.69811 0.68715 0.30659 0.0
C542 C 0.71423 0.71422 0.33268 0.0
C543 C 0.71595 0.69303 0.29859 0.0
C544 C 0.63479 0.65676 0.30597 0.0
N545 N 0.63393 0.65891 0.32657 0.0
C546 C 0.60359 0.62915 0.32496 0.0
C547 C 0.61909 0.64517 0.3363 0.0
C548 C 0.60263 0.62754 0.30315 0.0
C549 C 0.61962 0.64088 0.29408 0.0
H550 H 0.64727 0.66749 0.29875 0.0
H551 H 0.61918 0.64676 0.35288 0.0
C552 C 0.70975 0.70372 0.39513 0.0
N553 N 0.70186 0.69391 0.37635 0.0
C554 C 0.72216 0.69979 0.40694 0.0
C555 C 0.71817 0.67587 0.37977 0.0
C556 C 0.70585 0.68026 0.36848 0.0
C557 C 0.72632 0.68563 0.39925 0.0
H558 H 0.70607 0.7143 0.40106 0.0
H559 H 0.69911 0.67247 0.35365 0.0
C560 C 0.63 0.69802 0.33748 0.0
N561 N 0.59061 0.68402 0.33387 0.0
C562 C 0.62192 0.70369 0.32178 0.0
C563 C 0.61804 0.68525 0.35138 0.0
C564 C 0.60197 0.69646 0.32021 0.0
C565 C 0.59817 0.67833 0.34928 0.0
C566 C 0.69328 0.74446 0.36976 0.0
C567 C 0.68146 0.75092 0.36103 0.0
C568 C 0.70981 0.75754 0.38243 0.0
C569 C 0.68641 0.77039 0.36512 0.0
C570 C 0.71427 0.77689 0.38615 0.0
N571 N 0.70258 0.78286 0.37749 0.0
C572 C 0.65922 0.72079 0.40812 0.0
C573 C 0.63853 0.72501 0.38448 0.0
C574 C 0.65486 0.72978 0.42421 0.0
N575 N 0.65102 0.71852 0.38875 0.0
C576 C 0.63359 0.7339 0.40018 0.0
C577 C 0.642 0.73653 0.42023 0.0
H578 H 0.66964 0.71616 0.4109 0.0
H579 H 0.63284 0.72387 0.36885 0.0
C580 C 0.67478 0.73019 0.30027 0.0
N581 N 0.68729 0.73429 0.31701 0.0
C582 C 0.67923 0.74374 0.28563 0.0
C583 C 0.70987 0.76513 0.30518 0.0
C584 C 0.70478 0.75114 0.31953 0.0
C585 C 0.69676 0.76158 0.28829 0.0
H586 H 0.66108 0.71659 0.29863 0.0
H587 H 0.71449 0.754 0.33297 0.0
O588 O 0.65664 0.68208 0.37136 0.0
O589 O 0.67982 0.69216 0.33168 0.0
O590 O 0.64947 0.7047 0.3389 0.0
O591 O 0.68874 0.72542 0.36625 0.0
H592 H 0.65687 0.65119 0.35448 0.0
H593 H 0.66092 0.68262 0.41195 0.0
H594 H 0.6608 0.62722 0.37401 0.0
H595 H 0.66499 0.65821 0.43046 0.0
H596 H 0.74502 0.73226 0.33097 0.0
H597 H 0.6851 0.67443 0.29952 0.0
H598 H 0.71394 0.72268 0.346 0.0
H599 H 0.71681 0.68488 0.28529 0.0
H600 H 0.59264 0.6182 0.33358 0.0
H601 H 0.62181 0.63933 0.2781 0.0
H602 H 0.72829 0.70753 0.42196 0.0
H603 H 0.72115 0.66486 0.37351 0.0
H604 H 0.63095 0.71358 0.3109 0.0
H605 H 0.624 0.68077 0.3637 0.0
H606 H 0.59553 0.70072 0.30812 0.0
H607 H 0.58875 0.66843 0.35991 0.0
H608 H 0.6686 0.74109 0.35119 0.0
H609 H 0.71908 0.75275 0.38934 0.0
H610 H 0.6774 0.77557 0.35846 0.0
H611 H 0.72702 0.78717 0.39593 0.0
H612 H 0.6617 0.73179 0.43954 0.0
H613 H 0.62376 0.73916 0.39667 0.0
H614 H 0.66889 0.74061 0.27268 0.0
H615 H 0.72354 0.77879 0.30753 0.0
Li616 Li 0.28107 0.9482 0.38373 0.0
Li617 Li 0.28845 0.93899 0.41569 0.0
Li618 Li 0.30163 0.97406 0.40999 0.0
Li619 Li 0.3132 0.9541 0.39138 0.0
C620 C 0.25832 0.95473 0.41254 0.0
N621 N 0.22559 0.95774 0.41522 0.0
C622 C 0.24126 0.93909 0.41865 0.0
C623 C 0.25878 0.97199 0.40811 0.0
C624 C 0.22485 0.94087 0.41981 0.0
C625 C 0.24207 0.97321 0.40947 0.0
C626 C 0.27407 0.90967 0.38379 0.0
C627 C 0.26202 0.87593 0.37222 0.0
N628 N 0.24386 0.87155 0.37642 0.0
C629 C 0.2553 0.90484 0.38797 0.0
C630 C 0.27749 0.89512 0.37584 0.0
C631 C 0.24021 0.8855 0.38415 0.0
C632 C 0.26708 0.93235 0.34409 0.0
N633 N 0.26236 0.93992 0.36049 0.0
C634 C 0.23391 0.93501 0.34129 0.0
C635 C 0.24607 0.94128 0.35948 0.0
C636 C 0.23868 0.92733 0.3242 0.0
C637 C 0.25543 0.926 0.32568 0.0
H638 H 0.28011 0.93145 0.34529 0.0
H639 H 0.24251 0.9473 0.37258 0.0
C640 C 0.27083 0.92658 0.45188 0.0
N641 N 0.27823 0.9211 0.43626 0.0
C642 C 0.26109 0.91369 0.46664 0.0
C643 C 0.26746 0.89002 0.4495 0.0
C644 C 0.27709 0.90339 0.43501 0.0
C645 C 0.25906 0.89509 0.46527 0.0
H646 H 0.27202 0.94078 0.45248 0.0
H647 H 0.28321 0.89944 0.42251 0.0
C648 C 0.30312 0.97694 0.36116 0.0
N649 N 0.29611 0.98437 0.3217 0.0
C650 C 0.31228 0.97384 0.34486 0.0
C651 C 0.29055 0.98403 0.3574 0.0
C652 C 0.30852 0.97765 0.32502 0.0
C653 C 0.28714 0.98762 0.33734 0.0
C654 C 0.32645 0.95466 0.4318 0.0
C655 C 0.33896 0.96572 0.44899 0.0
C656 C 0.3251 0.93704 0.42491 0.0
C657 C 0.34987 0.95891 0.45907 0.0
C658 C 0.33624 0.93072 0.43541 0.0
N659 N 0.34829 0.94169 0.45213 0.0
C660 C 0.31669 0.00261 0.44336 0.0
C661 C 0.31038 0.01347 0.4123 0.0
C662 C 0.32406 0.02118 0.45346 0.0
N663 N 0.31009 0.99916 0.42316 0.0
C664 C 0.31715 0.03209 0.42191 0.0
C665 C 0.32417 0.03609 0.4427 0.0
H666 H 0.3164 0.99096 0.45155 0.0
H667 H 0.30541 0.01045 0.39616 0.0
C668 C 0.33267 0.94262 0.36425 0.0
N669 N 0.33515 0.95575 0.37999 0.0
C670 C 0.34842 0.9454 0.35348 0.0
C671 C 0.36903 0.97465 0.37595 0.0
C672 C 0.35287 0.97136 0.38622 0.0
C673 C 0.36671 0.96178 0.35913 0.0
H674 H 0.31831 0.93056 0.35945 0.0
H675 H 0.35427 0.98166 0.39862 0.0
O676 O 0.27461 0.95334 0.4116 0.0
O677 O 0.28914 0.92849 0.38755 0.0
O678 O 0.30632 0.97291 0.38064 0.0
O679 O 0.3157 0.9612 0.42178 0.0
H680 H 0.24069 0.92573 0.42253 0.0
H681 H 0.27183 0.98427 0.40354 0.0
H682 H 0.21155 0.92886 0.42443 0.0
H683 H 0.24222 0.98645 0.40595 0.0
H684 H 0.26446 0.86451 0.3661 0.0
H685 H 0.2524 0.91591 0.39402 0.0
H686 H 0.29196 0.89861 0.37259 0.0
H687 H 0.22561 0.88157 0.38732 0.0
H688 H 0.22104 0.93622 0.34048 0.0
H689 H 0.25946 0.92016 0.31268 0.0
H690 H 0.25475 0.91797 0.4787 0.0
H691 H 0.26612 0.87573 0.44816 0.0
H692 H 0.32215 0.96851 0.34744 0.0
H693 H 0.28316 0.98634 0.36973 0.0
H694 H 0.31545 0.97522 0.31226 0.0
H695 H 0.27728 0.9929 0.33419 0.0
H696 H 0.34027 0.97945 0.45447 0.0
H697 H 0.3156 0.92831 0.41158 0.0
H698 H 0.35961 0.96731 0.4724 0.0
H699 H 0.33532 0.9171 0.43024 0.0
H700 H 0.32951 0.02388 0.46949 0.0
H701 H 0.31716 0.04335 0.41317 0.0
H702 H 0.34626 0.93535 0.34042 0.0
H703 H 0.38301 0.98747 0.3805 0.0
Li704 Li 0.05871 0.32557 0.33617 0.0
Li705 Li 0.06994 0.3412 0.37127 0.0
Li706 Li 0.03501 0.31831 0.36022 0.0
Li707 Li 0.05093 0.34966 0.34759 0.0
C708 C 0.0638 0.30106 0.35631 0.0
N709 N 0.07885 0.27812 0.34334 0.0
C710 C 0.08286 0.30648 0.36258 0.0
C711 C 0.05236 0.28391 0.34354 0.0
C712 C 0.0902 0.2947 0.35585 0.0
C713 C 0.06024 0.27254 0.33711 0.0
C714 C 0.08584 0.36424 0.32909 0.0
C715 C 0.11405 0.38869 0.31398 0.0
N716 N 0.10313 0.38525 0.29603 0.0
C717 C 0.07489 0.36095 0.31048 0.0
C718 C 0.10558 0.37821 0.33087 0.0
C719 C 0.0839 0.37172 0.29396 0.0
C720 C 0.05663 0.3096 0.2951 0.0
N721 N 0.06794 0.3179 0.313 0.0
C722 C 0.09569 0.32155 0.29697 0.0
C723 C 0.0871 0.32373 0.31426 0.0
C724 C 0.08441 0.31325 0.27827 0.0
C725 C 0.06456 0.30682 0.2775 0.0
H726 H 0.04172 0.30601 0.29414 0.0
H727 H 0.0959 0.33091 0.32848 0.0
C728 C 0.08307 0.33611 0.4087 0.0
N729 N 0.08861 0.34885 0.39382 0.0
C730 C 0.09511 0.34032 0.42655 0.0
C731 C 0.11839 0.37082 0.41354 0.0
C732 C 0.10592 0.36591 0.39574 0.0
C733 C 0.1129 0.35789 0.42914 0.0
H734 H 0.06916 0.32272 0.40671 0.0
H735 H 0.10982 0.37582 0.38369 0.0
C736 C 0.0143 0.31104 0.32741 0.0
N737 N 0.97524 0.28352 0.32123 0.0
C738 C 0.00043 0.31591 0.33271 0.0
C739 C 0.00823 0.29209 0.31907 0.0
C740 C 0.98078 0.30181 0.32947 0.0
C741 C 0.98844 0.27842 0.316 0.0
C742 C 0.04679 0.35998 0.3851 0.0
C743 C 0.0309 0.3623 0.38038 0.0
C744 C 0.06234 0.37421 0.39818 0.0
C745 C 0.03098 0.37892 0.38859 0.0
C746 C 0.06186 0.39061 0.40612 0.0
N747 N 0.04633 0.39263 0.40117 0.0
C748 C 0.00297 0.30683 0.38313 0.0
C749 C 0.0039 0.27979 0.36736 0.0
C750 C 0.98579 0.29441 0.39169 0.0
N751 N 0.01159 0.29943 0.37111 0.0
C752 C 0.98661 0.26676 0.37562 0.0
C753 C 0.97747 0.27419 0.38791 0.0
H754 H 0.00946 0.32241 0.38615 0.0
H755 H 0.01111 0.27426 0.35793 0.0
C756 C 0.03466 0.36692 0.32366 0.0
N757 N 0.04872 0.371 0.33872 0.0
C758 C 0.03202 0.38177 0.31674 0.0
C759 C 0.05903 0.40503 0.34023 0.0
C760 C 0.06111 0.38965 0.34678 0.0
C761 C 0.04418 0.401 0.3252 0.0
H762 H 0.0256 0.35215 0.31683 0.0
H763 H 0.07252 0.39253 0.35833 0.0
O764 O 0.05647 0.31263 0.36237 0.0
O765 O 0.07745 0.3537 0.34545 0.0
O766 O 0.03367 0.32454 0.331 0.0
O767 O 0.04709 0.34386 0.37704 0.0
H768 H 0.092 0.31978 0.37231 0.0
H769 H 0.03763 0.27954 0.33843 0.0
H770 H 0.10496 0.29877 0.36049 0.0
H771 H 0.05159 0.2593 0.32711 0.0
H772 H 0.12932 0.39954 0.31514 0.0
H773 H 0.05963 0.35013 0.30873 0.0
H774 H 0.11428 0.38088 0.34513 0.0
H775 H 0.07561 0.36928 0.27947 0.0
H776 H 0.11109 0.32682 0.29798 0.0
H777 H 0.05555 0.30055 0.2632 0.0
H778 H 0.09046 0.33014 0.43841 0.0
H779 H 0.132 0.38457 0.41525 0.0
H780 H 0.00474 0.3303 0.33959 0.0
H781 H 0.01862 0.28777 0.31541 0.0
H782 H 0.96994 0.30538 0.33361 0.0
H783 H 0.98358 0.2637 0.30965 0.0
H784 H 0.01877 0.35158 0.37018 0.0
H785 H 0.07469 0.37268 0.40219 0.0
H786 H 0.01886 0.38097 0.38488 0.0
H787 H 0.07384 0.40175 0.4162 0.0
H788 H 0.97909 0.3005 0.40128 0.0
H789 H 0.9805 0.25115 0.37262 0.0
H790 H 0.02067 0.37834 0.30482 0.0
H791 H 0.06881 0.41984 0.34677 0.0
Li792 Li 0.67934 0.98409 0.3932 0.0
Li793 Li 0.65778 0.95084 0.39979 0.0
Li794 Li 0.67445 0.95808 0.36878 0.0
Li795 Li 0.64897 0.96509 0.37276 0.0
C796 C 0.70567 0.97107 0.39727 0.0
N797 N 0.74515 0.98619 0.39706 0.0
C798 C 0.71476 0.96339 0.40919 0.0
C799 C 0.71668 0.98647 0.38526 0.0
C800 C 0.73473 0.97122 0.40887 0.0
C801 C 0.73661 0.99391 0.38537 0.0
C802 C 0.65417 0.97924 0.42295 0.0
C803 C 0.64447 0.99352 0.45002 0.0
N804 N 0.6568 0.99201 0.46379 0.0
C805 C 0.66676 0.97785 0.43737 0.0
C806 C 0.64294 0.98714 0.4293 0.0
C807 C 0.66787 0.98437 0.45794 0.0
C808 C 0.69682 0.02482 0.39687 0.0
N809 N 0.69697 0.0096 0.40536 0.0
C810 C 0.72206 0.03133 0.43076 0.0
C811 C 0.70914 0.01245 0.42206 0.0
C812 C 0.72233 0.04726 0.42213 0.0
C813 C 0.70951 0.04397 0.40507 0.0
H814 H 0.68687 0.02205 0.38367 0.0
H815 H 0.7089 7e-05 0.42856 0.0
C816 C 0.65874 0.92259 0.42188 0.0
N817 N 0.64922 0.93263 0.42018 0.0
C818 C 0.65448 0.90949 0.43698 0.0
C819 C 0.63032 0.91695 0.44806 0.0
C820 C 0.63506 0.92996 0.43269 0.0
C821 C 0.64028 0.90677 0.45036 0.0
H822 H 0.66982 0.92496 0.41161 0.0
H823 H 0.62768 0.9381 0.43095 0.0
C824 C 0.67286 0.98349 0.34215 0.0
N825 N 0.66892 0.98569 0.30021 0.0
C826 C 0.66115 0.96653 0.32918 0.0
C827 C 0.68255 0.00156 0.33378 0.0
C828 C 0.65936 0.96795 0.30803 0.0
C829 C 0.68037 0.00237 0.31254 0.0
C830 C 0.62778 0.92457 0.3723 0.0
C831 C 0.62069 0.90642 0.36132 0.0
C832 C 0.61544 0.92793 0.38413 0.0
C833 C 0.60137 0.89189 0.36237 0.0
C834 C 0.59622 0.91303 0.38479 0.0
N835 N 0.58964 0.89547 0.374 0.0
C836 C 0.67772 0.92925 0.3464 0.0
C837 C 0.70007 0.96138 0.33805 0.0
C838 C 0.68335 0.92122 0.33056 0.0
N839 N 0.68577 0.94896 0.34948 0.0
C840 C 0.70628 0.95396 0.32214 0.0
C841 C 0.69745 0.93366 0.31798 0.0
H842 H 0.6664 0.91978 0.35577 0.0
H843 H 0.7061 0.97698 0.34068 0.0
C844 C 0.63036 0.98511 0.36137 0.0
N845 N 0.62941 0.96759 0.35814 0.0
C846 C 0.61779 0.98906 0.34991 0.0
C847 C 0.60327 0.95672 0.33228 0.0
C848 C 0.61629 0.95349 0.34388 0.0
C849 C 0.60412 0.97474 0.33519 0.0
H850 H 0.6412 0.99616 0.37255 0.0
H851 H 0.61621 0.93992 0.34112 0.0
O852 O 0.68612 0.96353 0.39757 0.0
O853 O 0.65283 0.97306 0.40267 0.0
O854 O 0.67486 0.9826 0.36296 0.0
O855 O 0.64672 0.93884 0.37142 0.0
H856 H 0.70646 0.95152 0.41863 0.0
H857 H 0.70998 0.99272 0.37602 0.0
H858 H 0.74194 0.96541 0.41803 0.0
H859 H 0.7453 0.00583 0.37616 0.0
H860 H 0.63586 0.99967 0.45514 0.0
H861 H 0.67558 0.97178 0.43278 0.0
H862 H 0.63315 0.98834 0.41831 0.0
H863 H 0.67754 0.98337 0.46925 0.0
H864 H 0.73187 0.03353 0.44391 0.0
H865 H 0.70949 0.05607 0.39812 0.0
H866 H 0.66234 0.90176 0.43842 0.0
H867 H 0.61925 0.91505 0.4582 0.0
H868 H 0.65353 0.9524 0.33532 0.0
H869 H 0.69165 0.01482 0.34361 0.0
H870 H 0.65038 0.95494 0.29782 0.0
H871 H 0.68778 0.01626 0.30585 0.0
H872 H 0.63001 0.90358 0.35204 0.0
H873 H 0.62055 0.94188 0.39265 0.0
H874 H 0.5957 0.87778 0.35394 0.0
H875 H 0.58653 0.91545 0.39388 0.0
H876 H 0.67628 0.90548 0.32763 0.0
H877 H 0.71713 0.96388 0.31256 0.0
H878 H 0.61877 0.00312 0.35239 0.0
H879 H 0.59292 0.94548 0.32088 0.0
Li880 Li 0.05478 0.72335 0.35863 0.0
Li881 Li 0.0224 0.71575 0.34694 0.0
Li882 Li 0.03687 0.6982 0.32997 0.0
Li883 Li 0.04809 0.7319 0.32489 0.0
C884 C 0.02386 0.69418 0.37842 0.0
N885 N 0.01026 0.68642 0.41709 0.0
C886 C 0.02837 0.70953 0.39319 0.0
C887 C 0.01242 0.67487 0.38334 0.0
C888 C 0.02139 0.70531 0.41265 0.0
C889 C 0.00567 0.67125 0.40297 0.0
C890 C 0.04036 0.75482 0.35894 0.0
C891 C 0.02101 0.76988 0.35363 0.0
N892 N 0.02802 0.77999 0.37241 0.0
C893 C 0.04732 0.76531 0.37823 0.0
C894 C 0.02705 0.75707 0.34658 0.0
C895 C 0.04093 0.77799 0.38474 0.0
C896 C 0.08513 0.75079 0.38648 0.0
N897 N 0.07305 0.73128 0.38182 0.0
C898 C 0.08433 0.72405 0.41279 0.0
C899 C 0.07285 0.71789 0.39421 0.0
C900 C 0.09599 0.74412 0.41853 0.0
C901 C 0.09675 0.7576 0.40497 0.0
H902 H 0.08509 0.76106 0.37621 0.0
H903 H 0.06314 0.70246 0.39011 0.0
C904 C 0.9822 0.69491 0.34693 0.0
N905 N 0.99825 0.71077 0.35648 0.0
C906 C 0.96429 0.68769 0.35521 0.0
C907 C 0.97961 0.71373 0.38252 0.0
C908 C 0.99722 0.72033 0.37384 0.0
C909 C 0.96303 0.69699 0.37341 0.0
H910 H 0.98353 0.68729 0.33346 0.0
H911 H 0.01017 0.73239 0.38169 0.0
C912 C 0.07665 0.71319 0.33537 0.0
N913 N 0.10208 0.6999 0.34285 0.0
C914 C 0.09515 0.72294 0.32827 0.0
C915 C 0.0711 0.69672 0.34634 0.0
C916 C 0.1078 0.71599 0.33219 0.0
C917 C 0.08416 0.69022 0.34994 0.0
C918 C 0.01828 0.71289 0.29799 0.0
C919 C 0.02696 0.7094 0.28146 0.0
C920 C 0.00632 0.72074 0.2947 0.0
C921 C 0.02389 0.71429 0.26192 0.0
C922 C 0.00357 0.72539 0.27492 0.0
N923 N 0.01237 0.72214 0.25909 0.0
C924 C 0.01572 0.65743 0.32289 0.0
C925 C 0.04215 0.67307 0.30209 0.0
C926 C 0.01079 0.63913 0.31366 0.0
N927 N 0.03121 0.67386 0.31707 0.0
C928 C 0.03767 0.65507 0.29237 0.0
C929 C 0.02186 0.63793 0.29824 0.0
H930 H 0.00716 0.6586 0.33463 0.0
H931 H 0.05431 0.68642 0.2977 0.0
C932 C 0.05657 0.7655 0.30216 0.0
N933 N 0.05956 0.75029 0.30471 0.0
C934 C 0.06612 0.77862 0.28741 0.0
C935 C 0.08143 0.76005 0.27812 0.0
C936 C 0.07158 0.7473 0.29294 0.0
C937 C 0.07885 0.77599 0.27541 0.0
H938 H 0.04697 0.76761 0.3116 0.0
H939 H 0.07353 0.73498 0.29511 0.0
O940 O 0.03037 0.69795 0.35916 0.0
O941 O 0.04626 0.74214 0.35242 0.0
O942 O 0.06419 0.71994 0.33165 0.0
O943 O 0.0216 0.70876 0.31734 0.0
H944 H 0.03709 0.72456 0.38966 0.0
H945 H 0.00877 0.6628 0.37213 0.0
H946 H 0.02477 0.71707 0.4242 0.0
H947 H 0.99678 0.65637 0.40697 0.0
H948 H 0.01067 0.7717 0.34422 0.0
H949 H 0.05741 0.76358 0.38817 0.0
H950 H 0.02124 0.74878 0.33183 0.0
H951 H 0.04618 0.78618 0.39963 0.0
H952 H 0.08347 0.71335 0.42303 0.0
H953 H 0.10564 0.77318 0.40905 0.0
H954 H 0.95173 0.6746 0.34799 0.0
H955 H 0.97908 0.72105 0.39673 0.0
H956 H 0.09972 0.73577 0.31984 0.0
H957 H 0.0569 0.68899 0.35204 0.0
H958 H 0.12216 0.72339 0.32677 0.0
H959 H 0.08004 0.67748 0.35838 0.0
H960 H 0.03624 0.70331 0.28376 0.0
H961 H 0.99921 0.72318 0.30726 0.0
H962 H 0.03071 0.71191 0.24903 0.0
H963 H 0.99443 0.73157 0.27216 0.0
H964 H 0.99848 0.62607 0.31842 0.0
H965 H 0.04645 0.65448 0.2805 0.0
H966 H 0.06384 0.79081 0.28555 0.0
H967 H 0.09111 0.75762 0.26898 0.0
Li968 Li 0.28399 0.34368 0.39851 0.0
Li969 Li 0.29398 0.32102 0.38512 0.0
Li970 Li 0.30869 0.35505 0.37316 0.0
Li971 Li 0.2755 0.32985 0.36178 0.0
C972 C 0.32018 0.35476 0.41976 0.0
N973 N 0.34071 0.37081 0.45759 0.0
C974 C 0.31817 0.34274 0.43555 0.0
C975 C 0.333 0.37491 0.42309 0.0
C976 C 0.32855 0.35113 0.4546 0.0
C977 C 0.34315 0.38275 0.44235 0.0
C978 C 0.25578 0.29686 0.3913 0.0
C979 C 0.2421 0.26243 0.3818 0.0
N980 N 0.23352 0.25826 0.39986 0.0
C981 C 0.24668 0.29223 0.40969 0.0
C982 C 0.25335 0.28184 0.37718 0.0
C983 C 0.23554 0.27263 0.41376 0.0
C984 C 0.26716 0.36202 0.42195 0.0
N985 N 0.27475 0.35009 0.42244 0.0
C986 C 0.26625 0.34327 0.45699 0.0
C987 C 0.27448 0.34081 0.43952 0.0
C988 C 0.25823 0.35537 0.45682 0.0
C989 C 0.25897 0.36508 0.4392 0.0
H990 H 0.26689 0.3687 0.40801 0.0
H991 H 0.2799 0.33082 0.43926 0.0
C992 C 0.31443 0.30118 0.38198 0.0
N993 N 0.3006 0.30216 0.39246 0.0
C994 C 0.32169 0.28937 0.38819 0.0
C995 C 0.30012 0.27961 0.41566 0.0
C996 C 0.2933 0.29162 0.40895 0.0
C997 C 0.31464 0.27866 0.40536 0.0
H998 H 0.32027 0.31008 0.36922 0.0
H999 H 0.28277 0.29312 0.41741 0.0
C1000 C 0.29031 0.37663 0.37368 0.0
N1001 N 0.30157 0.41579 0.37469 0.0
C1002 C 0.28404 0.38364 0.35761 0.0
C1003 C 0.30212 0.38951 0.39035 0.0
C1004 C 0.28994 0.4035 0.35837 0.0
C1005 C 0.3077 0.40926 0.39057 0.0
C1006 C 0.29776 0.32232 0.33716 0.0
C1007 C 0.30328 0.33478 0.32124 0.0
C1008 C 0.29035 0.30231 0.33257 0.0
C1009 C 0.30078 0.32695 0.30093 0.0
C1010 C 0.28809 0.29504 0.31207 0.0
N1011 N 0.29327 0.3074 0.2968 0.0
C1012 C 0.34878 0.37693 0.37115 0.0
C1013 C 0.33106 0.38579 0.34841 0.0
C1014 C 0.36585 0.38891 0.36203 0.0
N1015 N 0.33183 0.37538 0.36401 0.0
C1016 C 0.34776 0.39782 0.33875 0.0
C1017 C 0.36523 0.39903 0.3453 0.0
H1018 H 0.34882 0.36807 0.38321 0.0
H1019 H 0.31731 0.38379 0.3426 0.0
C1020 C 0.24004 0.30446 0.33669 0.0
N1021 N 0.25718 0.32171 0.33858 0.0
C1022 C 0.22747 0.29928 0.31895 0.0
C1023 C 0.25027 0.32987 0.30577 0.0
C1024 C 0.26236 0.3344 0.32366 0.0
C1025 C 0.23266 0.31213 0.30331 0.0
H1026 H 0.2361 0.29473 0.34888 0.0
H1027 H 0.27604 0.34801 0.3256 0.0
O1028 O 0.31026 0.34675 0.40092 0.0
O1029 O 0.267 0.31599 0.3872 0.0
O1030 O 0.28503 0.35731 0.37299 0.0
O1031 O 0.29984 0.3297 0.35713 0.0
H1032 H 0.30857 0.3271 0.4332 0.0
H1033 H 0.33527 0.38441 0.41089 0.0
H1034 H 0.32698 0.342 0.467 0.0
H1035 H 0.35304 0.39834 0.44515 0.0
H1036 H 0.24018 0.25068 0.37103 0.0
H1037 H 0.24814 0.30361 0.42069 0.0
H1038 H 0.26006 0.28516 0.36279 0.0
H1039 H 0.22847 0.26885 0.42796 0.0
H1040 H 0.26567 0.3354 0.4703 0.0
H1041 H 0.25269 0.37436 0.43858 0.0
H1042 H 0.33305 0.28903 0.38011 0.0
H1043 H 0.29461 0.27164 0.42912 0.0
H1044 H 0.27474 0.37388 0.34466 0.0
H1045 H 0.30671 0.38424 0.4031 0.0
H1046 H 0.28526 0.40913 0.34599 0.0
H1047 H 0.31685 0.41937 0.40339 0.0
H1048 H 0.30919 0.3503 0.32447 0.0
H1049 H 0.28653 0.29251 0.3447 0.0
H1050 H 0.3048 0.33642 0.28845 0.0
H1051 H 0.28228 0.27957 0.30831 0.0
H1052 H 0.37915 0.38945 0.3672 0.0
H1053 H 0.34689 0.40533 0.32568 0.0
H1054 H 0.21392 0.28547 0.3174 0.0
H1055 H 0.25465 0.34003 0.2939 0.0
Li1056 Li 0.3284 0.01628 0.67604 0.0
Li1057 Li 0.358 0.03803 0.69928 0.0
Li1058 Li 0.32995 0.04239 0.70062 0.0
Li1059 Li 0.34822 0.04998 0.67136 0.0
C1060 C 0.33146 0.0082 0.7221 0.0
N1061 N 0.33155 0.98571 0.75308 0.0
C1062 C 0.3408 0.99743 0.72002 0.0
C1063 C 0.32217 0.00753 0.73994 0.0
C1064 C 0.34061 0.98608 0.7358 0.0
C1065 C 0.32244 0.99614 0.75546 0.0
C1066 C 0.36632 0.03555 0.65306 0.0
C1067 C 0.3963 0.05649 0.63826 0.0
N1068 N 0.38719 0.04939 0.6191 0.0
C1069 C 0.35726 0.02834 0.63325 0.0
C1070 C 0.386 0.04966 0.65565 0.0
C1071 C 0.36806 0.03557 0.61626 0.0
C1072 C 0.30157 0.9889 0.64508 0.0
N1073 N 0.3119 0.99069 0.66299 0.0
C1074 C 0.29676 0.95597 0.66301 0.0
C1075 C 0.30995 0.97472 0.67186 0.0
C1076 C 0.28534 0.95375 0.64507 0.0
C1077 C 0.28798 0.97042 0.63588 0.0
H1078 H 0.30356 0.00184 0.63821 0.0
H1079 H 0.31831 0.97645 0.68598 0.0
C1080 C 0.3784 0.04493 0.73716 0.0
N1081 N 0.3776 0.03861 0.71719 0.0
C1082 C 0.39061 0.0436 0.75206 0.0
C1083 C 0.40144 0.02984 0.72546 0.0
C1084 C 0.38891 0.03135 0.71103 0.0
C1085 C 0.40212 0.0358 0.74624 0.0
H1086 H 0.36903 0.05038 0.74159 0.0
H1087 H 0.38772 0.02615 0.69509 0.0
C1088 C 0.29984 0.02589 0.66991 0.0
N1089 N 0.25983 0.00657 0.66723 0.0
C1090 C 0.28983 0.03075 0.65554 0.0
C1091 C 0.28947 0.0112 0.68297 0.0
C1092 C 0.26961 0.02082 0.65442 0.0
C1093 C 0.26926 0.0016 0.68134 0.0
C1094 C 0.35925 0.08064 0.70138 0.0
C1095 C 0.34563 0.08384 0.69088 0.0
C1096 C 0.37443 0.0959 0.71394 0.0
C1097 C 0.34749 0.1023 0.69309 0.0
C1098 C 0.37578 0.11416 0.71576 0.0
N1099 N 0.36239 0.11695 0.70539 0.0
C1100 C 0.3262 0.05537 0.73901 0.0
C1101 C 0.30267 0.05353 0.7142 0.0
C1102 C 0.31999 0.06355 0.75406 0.0
N1103 N 0.31754 0.05055 0.71956 0.0
C1104 C 0.29591 0.06162 0.72885 0.0
C1105 C 0.30484 0.06692 0.74893 0.0
H1106 H 0.3383 0.05329 0.74265 0.0
H1107 H 0.29645 0.05026 0.6985 0.0
C1108 C 0.34368 0.06309 0.63381 0.0
N1109 N 0.35657 0.06778 0.65037 0.0
C1110 C 0.34752 0.07628 0.61888 0.0
C1111 C 0.37816 0.09866 0.63793 0.0
C1112 C 0.37372 0.085 0.65254 0.0
C1113 C 0.36474 0.09441 0.62112 0.0
H1114 H 0.33019 0.04927 0.63251 0.0
H1115 H 0.38367 0.08835 0.66591 0.0
O1116 O 0.33116 0.01916 0.70668 0.0
O1117 O 0.35586 0.02914 0.66986 0.0
O1118 O 0.31966 0.03548 0.67091 0.0
O1119 O 0.35773 0.06265 0.69967 0.0
H1120 H 0.3481 0.99781 0.70633 0.0
H1121 H 0.31462 0.01553 0.74169 0.0
H1122 H 0.34764 0.97755 0.73431 0.0
H1123 H 0.31529 0.99548 0.76934 0.0
H1124 H 0.41152 0.06751 0.64 0.0
H1125 H 0.342 0.01747 0.63103 0.0
H1126 H 0.39317 0.05544 0.67092 0.0
H1127 H 0.36122 0.03025 0.60081 0.0
H1128 H 0.29503 0.94332 0.67041 0.0
H1129 H 0.27936 0.96912 0.62198 0.0
H1130 H 0.39077 0.04819 0.76802 0.0
H1131 H 0.41009 0.02363 0.7206 0.0
H1132 H 0.29762 0.04209 0.64535 0.0
H1133 H 0.29682 0.00715 0.6942 0.0
H1134 H 0.26169 0.02444 0.64337 0.0
H1135 H 0.26107 0.99019 0.6913 0.0
H1136 H 0.33373 0.07224 0.68114 0.0
H1137 H 0.38504 0.09363 0.72222 0.0
H1138 H 0.33707 0.10498 0.68505 0.0
H1139 H 0.38746 0.1261 0.72544 0.0
H1140 H 0.32719 0.06761 0.76944 0.0
H1141 H 0.28426 0.06422 0.72449 0.0
H1142 H 0.33693 0.07264 0.60603 0.0
H1143 H 0.39158 0.11259 0.63999 0.0
Li1144 Li 0.98372 0.28855 0.72092 0.0
Li1145 Li 0.96909 0.30567 0.73657 0.0
Li1146 Li 0.95681 0.27256 0.74414 0.0
Li1147 Li 0.94993 0.27962 0.70997 0.0
C1148 C 0.99346 0.30896 0.76636 0.0
N1149 N 0.01249 0.3386 0.79748 0.0
C1150 C 0.01088 0.32576 0.76308 0.0
C1151 C 0.98576 0.30718 0.78548 0.0
C1152 C 0.02026 0.3406 0.779 0.0
C1153 C 0.99559 0.32235 0.80102 0.0
C1154 C 0.98346 0.31896 0.69537 0.0
C1155 C 0.98255 0.33748 0.66755 0.0
N1156 N 0.00218 0.3488 0.66995 0.0
C1157 C 0.00365 0.33066 0.69742 0.0
C1158 C 0.97282 0.3223 0.68022 0.0
C1159 C 0.01283 0.34574 0.68449 0.0
C1160 C 0.00532 0.28804 0.68935 0.0
N1161 N 0.00638 0.29132 0.71014 0.0
C1162 C 0.04056 0.30417 0.7125 0.0
C1163 C 0.0234 0.29876 0.72188 0.0
C1164 C 0.03993 0.30174 0.69098 0.0
C1165 C 0.02206 0.29316 0.67937 0.0
H1166 H 0.99159 0.28238 0.68047 0.0
H1167 H 0.02378 0.30132 0.73838 0.0
C1168 C 0.96364 0.33044 0.76421 0.0
N1169 N 0.97441 0.33051 0.74862 0.0
C1170 C 0.96711 0.34801 0.7741 0.0
C1171 C 0.99297 0.36542 0.75203 0.0
C1172 C 0.98891 0.34753 0.74247 0.0
C1173 C 0.98193 0.36571 0.76796 0.0
H1174 H 0.95245 0.3167 0.76907 0.0
H1175 H 0.99759 0.34726 0.73047 0.0
C1176 C 0.94538 0.24285 0.71231 0.0
N1177 N 0.91616 0.20454 0.70291 0.0
C1178 C 0.9266 0.23673 0.71775 0.0
C1179 C 0.94928 0.22951 0.70204 0.0
C1180 C 0.91203 0.2173 0.71288 0.0
C1181 C 0.93431 0.2102 0.69744 0.0
C1182 C 0.92898 0.29158 0.73312 0.0
C1183 C 0.91137 0.28324 0.7422 0.0
C1184 C 0.93374 0.30681 0.72044 0.0
C1185 C 0.89877 0.29027 0.73841 0.0
C1186 C 0.92078 0.31345 0.71704 0.0
N1187 N 0.9037 0.3051 0.72601 0.0
C1188 C 0.93503 0.25819 0.7775 0.0
C1189 C 0.94801 0.23876 0.76559 0.0
C1190 C 0.9252 0.24511 0.79207 0.0
N1191 N 0.94599 0.25471 0.76455 0.0
C1192 C 0.93835 0.22522 0.77995 0.0
C1193 C 0.92667 0.22834 0.79319 0.0
H1194 H 0.93372 0.27101 0.77627 0.0
H1195 H 0.95677 0.23635 0.755 0.0
C1196 C 0.94071 0.27042 0.66819 0.0
N1197 N 0.93255 0.27055 0.68598 0.0
C1198 C 0.92935 0.26335 0.64958 0.0
C1199 C 0.90132 0.2567 0.66789 0.0
C1200 C 0.91323 0.2638 0.68623 0.0
C1201 C 0.90943 0.25634 0.64937 0.0
H1202 H 0.95607 0.27569 0.66856 0.0
H1203 H 0.90701 0.26364 0.70063 0.0
O1204 O 0.98381 0.29446 0.75083 0.0
O1205 O 0.97415 0.30387 0.70762 0.0
O1206 O 0.95988 0.26183 0.71676 0.0
O1207 O 0.94138 0.28474 0.7367 0.0
H1208 H 0.01691 0.32749 0.74829 0.0
H1209 H 0.97227 0.2943 0.78825 0.0
H1210 H 0.03367 0.35375 0.77663 0.0
H1211 H 0.98976 0.32122 0.81586 0.0
H1212 H 0.97449 0.34025 0.6558 0.0
H1213 H 0.01214 0.32833 0.70906 0.0
H1214 H 0.95721 0.31325 0.67822 0.0
H1215 H 0.02842 0.35503 0.68605 0.0
H1216 H 0.05422 0.31086 0.72179 0.0
H1217 H 0.02121 0.29124 0.66272 0.0
H1218 H 0.95842 0.34784 0.78644 0.0
H1219 H 0.00458 0.37891 0.74709 0.0
H1220 H 0.92326 0.24685 0.72562 0.0
H1221 H 0.96374 0.23405 0.69766 0.0
H1222 H 0.89745 0.21237 0.71702 0.0
H1223 H 0.93713 0.1997 0.6895 0.0
H1224 H 0.90744 0.27139 0.75201 0.0
H1225 H 0.94733 0.31354 0.71342 0.0
H1226 H 0.88508 0.28392 0.74531 0.0
H1227 H 0.9243 0.32525 0.70729 0.0
H1228 H 0.91627 0.24785 0.80213 0.0
H1229 H 0.93968 0.21233 0.78052 0.0
H1230 H 0.93598 0.2632 0.63549 0.0
H1231 H 0.88594 0.25131 0.66814 0.0
Li1232 Li 0.71257 0.68122 0.68319 0.0
Li1233 Li 0.69756 0.64705 0.69125 0.0
Li1234 Li 0.73057 0.66965 0.70395 0.0
Li1235 Li 0.72332 0.65861 0.66891 0.0
C1236 C 0.70245 0.66678 0.72993 0.0
N1237 N 0.69301 0.65841 0.76989 0.0
C1238 C 0.70421 0.652 0.73876 0.0
C1239 C 0.69589 0.6773 0.74143 0.0
C1240 C 0.69939 0.64801 0.75898 0.0
C1241 C 0.69116 0.67283 0.7616 0.0
C1242 C 0.67957 0.64603 0.65539 0.0
C1243 C 0.65247 0.61455 0.64279 0.0
N1244 N 0.6418 0.6231 0.63869 0.0
C1245 C 0.66838 0.65453 0.65089 0.0
C1246 C 0.67162 0.6259 0.65114 0.0
C1247 C 0.6493 0.64269 0.6425 0.0
C1248 C 0.71528 0.71273 0.66271 0.0
N1249 N 0.70649 0.7006 0.67768 0.0
C1250 C 0.68434 0.71217 0.68087 0.0
C1251 C 0.69151 0.70028 0.68702 0.0
C1252 C 0.69277 0.72438 0.66504 0.0
C1253 C 0.70866 0.72495 0.65618 0.0
H1254 H 0.72691 0.71231 0.65532 0.0
H1255 H 0.68451 0.69005 0.69846 0.0
C1256 C 0.67081 0.61144 0.70817 0.0
N1257 N 0.67321 0.6277 0.69956 0.0
C1258 C 0.65402 0.59979 0.71796 0.0
C1259 C 0.64238 0.62158 0.70931 0.0
C1260 C 0.6594 0.63285 0.69986 0.0
C1261 C 0.63982 0.60513 0.71885 0.0
H1262 H 0.68238 0.60819 0.70857 0.0
H1263 H 0.66209 0.64633 0.69374 0.0
C1264 C 0.75643 0.70159 0.68976 0.0
N1265 N 0.79036 0.73172 0.70965 0.0
C1266 C 0.77273 0.6996 0.69251 0.0
C1267 C 0.75743 0.71896 0.69705 0.0
C1268 C 0.78972 0.71497 0.70266 0.0
C1269 C 0.77471 0.73401 0.70705 0.0
C1270 C 0.72445 0.62988 0.68282 0.0
C1271 C 0.74392 0.63617 0.68034 0.0
C1272 C 0.71014 0.61115 0.67483 0.0
C1273 C 0.74872 0.6237 0.66968 0.0
C1274 C 0.71553 0.59909 0.66431 0.0
N1275 N 0.73454 0.60557 0.66194 0.0
C1276 C 0.75193 0.69283 0.74038 0.0
C1277 C 0.75529 0.66522 0.73268 0.0
C1278 C 0.76325 0.69738 0.75892 0.0
N1279 N 0.74815 0.67694 0.72777 0.0
C1280 C 0.76665 0.66921 0.75106 0.0
C1281 C 0.77048 0.68529 0.76445 0.0
H1282 H 0.74566 0.70162 0.73631 0.0
H1283 H 0.75163 0.6524 0.72269 0.0
C1284 C 0.72152 0.63741 0.63107 0.0
N1285 N 0.73287 0.65332 0.64447 0.0
C1286 C 0.72881 0.6343 0.61307 0.0
C1287 C 0.75923 0.66397 0.62304 0.0
C1288 C 0.75137 0.66653 0.64076 0.0
C1289 C 0.74785 0.64777 0.60898 0.0
H1290 H 0.70683 0.6272 0.63428 0.0
H1291 H 0.75999 0.67917 0.65148 0.0
O1292 O 0.70725 0.67111 0.71019 0.0
O1293 O 0.69822 0.65738 0.66382 0.0
O1294 O 0.7395 0.68655 0.68026 0.0
O1295 O 0.71944 0.64209 0.69275 0.0
H1296 H 0.7093 0.64371 0.73016 0.0
H1297 H 0.69453 0.68885 0.73488 0.0
H1298 H 0.70071 0.63663 0.766 0.0
H1299 H 0.68606 0.68085 0.77067 0.0
H1300 H 0.64609 0.59893 0.63961 0.0
H1301 H 0.67433 0.67011 0.65381 0.0
H1302 H 0.68003 0.61907 0.65458 0.0
H1303 H 0.64046 0.64908 0.63901 0.0
H1304 H 0.6719 0.71129 0.68777 0.0
H1305 H 0.71529 0.73414 0.64378 0.0
H1306 H 0.65249 0.58732 0.72556 0.0
H1307 H 0.63178 0.62618 0.71011 0.0
H1308 H 0.7722 0.68622 0.68718 0.0
H1309 H 0.74494 0.72072 0.69524 0.0
H1310 H 0.80239 0.71356 0.70504 0.0
H1311 H 0.77566 0.74749 0.71285 0.0
H1312 H 0.75519 0.65067 0.68623 0.0
H1313 H 0.69501 0.606 0.67654 0.0
H1314 H 0.76371 0.62847 0.66746 0.0
H1315 H 0.70459 0.5846 0.65795 0.0
H1316 H 0.76586 0.70978 0.76912 0.0
H1317 H 0.7719 0.65953 0.75512 0.0
H1318 H 0.71971 0.62167 0.6024 0.0
H1319 H 0.77396 0.67464 0.62019 0.0
Li1320 Li 0.34884 0.32018 0.72479 0.0
Li1321 Li 0.32581 0.287 0.73037 0.0
Li1322 Li 0.34259 0.29423 0.6995 0.0
Li1323 Li 0.31841 0.30303 0.70423 0.0
C1324 C 0.3734 0.30502 0.72792 0.0
N1325 N 0.41252 0.31815 0.72764 0.0
C1326 C 0.38166 0.29636 0.73954 0.0
C1327 C 0.38505 0.32038 0.71617 0.0
C1328 C 0.40146 0.3032 0.73919 0.0
C1329 C 0.40479 0.32681 0.71623 0.0
C1330 C 0.32407 0.31586 0.75482 0.0
C1331 C 0.31557 0.33048 0.78271 0.0
N1332 N 0.32733 0.32774 0.79607 0.0
C1333 C 0.33609 0.31321 0.76884 0.0
C1334 C 0.31373 0.32457 0.76179 0.0
C1335 C 0.33753 0.3193 0.78962 0.0
C1336 C 0.36793 0.36096 0.72997 0.0
N1337 N 0.36735 0.3451 0.7377 0.0
C1338 C 0.39229 0.3654 0.76391 0.0
C1339 C 0.37914 0.34693 0.75435 0.0
C1340 C 0.3932 0.38196 0.75616 0.0
C1341 C 0.3809 0.37971 0.73901 0.0
H1342 H 0.35825 0.35899 0.71681 0.0
H1343 H 0.3783 0.33406 0.76025 0.0
C1344 C 0.32489 0.25704 0.75067 0.0
N1345 N 0.31635 0.26809 0.75 0.0
C1346 C 0.32016 0.2434 0.76525 0.0
C1347 C 0.29752 0.25237 0.7779 0.0
C1348 C 0.30268 0.26588 0.763 0.0
C1349 C 0.30653 0.24119 0.77918 0.0
H1350 H 0.33561 0.25908 0.74003 0.0
H1351 H 0.29607 0.27482 0.76206 0.0
C1352 C 0.34284 0.32141 0.67394 0.0
N1353 N 0.33922 0.32527 0.63235 0.0
C1354 C 0.33119 0.30492 0.66034 0.0
C1355 C 0.35263 0.33985 0.66638 0.0
C1356 C 0.32956 0.30717 0.63938 0.0
C1357 C 0.35062 0.3415 0.6453 0.0
C1358 C 0.2953 0.26267 0.70231 0.0
C1359 C 0.2873 0.24478 0.69052 0.0
C1360 C 0.28353 0.26659 0.71451 0.0
C1361 C 0.26765 0.23106 0.69117 0.0
C1362 C 0.26395 0.25249 0.71474 0.0
N1363 N 0.25648 0.23517 0.70317 0.0
C1364 C 0.34421 0.26444 0.67727 0.0
C1365 C 0.36754 0.29603 0.66844 0.0
C1366 C 0.34937 0.25566 0.6617 0.0
N1367 N 0.35302 0.28424 0.68002 0.0
C1368 C 0.37326 0.28786 0.65277 0.0
C1369 C 0.36376 0.26745 0.64904 0.0
H1370 H 0.33275 0.25548 0.68677 0.0
H1371 H 0.37421 0.31174 0.67088 0.0
C1372 C 0.29965 0.32375 0.69577 0.0
N1373 N 0.29954 0.30697 0.69021 0.0
C1374 C 0.28746 0.32857 0.68488 0.0
C1375 C 0.27517 0.29864 0.66291 0.0
C1376 C 0.28761 0.2944 0.6742 0.0
C1377 C 0.27519 0.31597 0.66818 0.0
H1378 H 0.30952 0.33356 0.70839 0.0
H1379 H 0.28806 0.28134 0.66985 0.0
O1380 O 0.35401 0.29841 0.72822 0.0
O1381 O 0.32245 0.31018 0.73433 0.0
O1382 O 0.34461 0.31969 0.6946 0.0
O1383 O 0.31455 0.27616 0.70176 0.0
H1384 H 0.37285 0.28448 0.74877 0.0
H1385 H 0.37899 0.32736 0.70714 0.0
H1386 H 0.40804 0.29662 0.74811 0.0
H1387 H 0.41396 0.33869 0.70721 0.0
H1388 H 0.30765 0.33726 0.78831 0.0
H1389 H 0.34422 0.3065 0.76377 0.0
H1390 H 0.30439 0.32676 0.75112 0.0
H1391 H 0.34677 0.31732 0.80063 0.0
H1392 H 0.40169 0.36678 0.77713 0.0
H1393 H 0.38137 0.39231 0.73275 0.0
H1394 H 0.3273 0.23491 0.76591 0.0
H1395 H 0.28691 0.25089 0.78851 0.0
H1396 H 0.32345 0.29052 0.66586 0.0
H1397 H 0.36169 0.35276 0.6767 0.0
H1398 H 0.32061 0.29453 0.62869 0.0
H1399 H 0.35811 0.3557 0.63924 0.0
H1400 H 0.29618 0.24153 0.68094 0.0
H1401 H 0.28935 0.28034 0.72366 0.0
H1402 H 0.26127 0.21716 0.68213 0.0
H1403 H 0.2547 0.25534 0.72412 0.0
H1404 H 0.34178 0.23987 0.65911 0.0
H1405 H 0.38437 0.29729 0.64312 0.0
H1406 H 0.28777 0.34207 0.68923 0.0
H1407 H 0.26585 0.2887 0.65003 0.0
Li1408 Li 0.69045 0.04617 0.67655 0.0
Li1409 Li 0.72288 0.05208 0.68737 0.0
Li1410 Li 0.71743 0.06103 0.65294 0.0
Li1411 Li 0.70386 0.02781 0.66038 0.0
C1412 C 0.71526 0.08849 0.67829 0.0
N1413 N 0.71569 0.1229 0.6724 0.0
C1414 C 0.72969 0.10607 0.68857 0.0
C1415 C 0.70111 0.08841 0.6649 0.0
C1416 C 0.72963 0.12331 0.68543 0.0
C1417 C 0.70157 0.10596 0.66215 0.0
C1418 C 0.69899 0.02404 0.70868 0.0
C1419 C 0.70944 0.00916 0.73364 0.0
N1420 N 0.70357 0.01678 0.74893 0.0
C1421 C 0.69298 0.03166 0.72462 0.0
C1422 C 0.7072 0.01262 0.71319 0.0
C1423 C 0.69544 0.02784 0.74487 0.0
C1424 C 0.65211 0.02589 0.68569 0.0
N1425 N 0.66789 0.04421 0.68709 0.0
C1426 C 0.652 0.05634 0.70825 0.0
C1427 C 0.66815 0.05938 0.69806 0.0
C1428 C 0.63572 0.0375 0.70728 0.0
C1429 C 0.63569 0.0222 0.69565 0.0
H1430 H 0.65265 0.01397 0.67768 0.0
H1431 H 0.68114 0.07359 0.69977 0.0
C1432 C 0.75426 0.05526 0.71358 0.0
N1433 N 0.74041 0.06027 0.71122 0.0
C1434 C 0.76623 0.06108 0.73187 0.0
C1435 C 0.74959 0.0773 0.74467 0.0
C1436 C 0.73799 0.07119 0.72621 0.0
C1437 C 0.76383 0.07218 0.7476 0.0
H1438 H 0.75592 0.04664 0.7014 0.0
H1439 H 0.72681 0.07489 0.72389 0.0
C1440 C 0.68157 0.02788 0.62897 0.0
N1441 N 0.6644 0.0025 0.59399 0.0
C1442 C 0.69153 0.03109 0.61117 0.0
C1443 C 0.66284 0.0118 0.62893 0.0
C1444 C 0.6826 0.0181 0.59364 0.0
C1445 C 0.65443 0.99911 0.61112 0.0
C1446 C 0.73971 0.03815 0.65143 0.0
C1447 C 0.74619 0.04248 0.63176 0.0
C1448 C 0.74124 0.02368 0.66127 0.0
C1449 C 0.75398 0.03214 0.6222 0.0
C1450 C 0.74906 0.01364 0.65116 0.0
N1451 N 0.75522 0.01804 0.63201 0.0
C1452 C 0.74899 0.09028 0.63529 0.0
C1453 C 0.71878 0.08309 0.6191 0.0
C1454 C 0.75892 0.10341 0.62078 0.0
N1455 N 0.72932 0.08014 0.6339 0.0
C1456 C 0.72813 0.09617 0.60428 0.0
C1457 C 0.74841 0.10615 0.60489 0.0
H1458 H 0.75694 0.0877 0.64735 0.0
H1459 H 0.70313 0.0749 0.6185 0.0
C1460 C 0.68325 0.98689 0.65974 0.0
N1461 N 0.69553 0.00186 0.64887 0.0
C1462 C 0.67581 0.96754 0.652 0.0
C1463 C 0.69368 0.97932 0.62193 0.0
C1464 C 0.70069 0.99843 0.6302 0.0
C1465 C 0.68112 0.96371 0.63291 0.0
H1466 H 0.67904 0.98997 0.67434 0.0
H1467 H 0.71006 0.01046 0.62156 0.0
O1468 O 0.7153 0.07154 0.68089 0.0
O1469 O 0.69717 0.02802 0.6888 0.0
O1470 O 0.69019 0.04029 0.64638 0.0
O1471 O 0.7321 0.04816 0.66105 0.0
H1472 H 0.74082 0.10637 0.69887 0.0
H1473 H 0.68992 0.07493 0.6567 0.0
H1474 H 0.74068 0.13703 0.69332 0.0
H1475 H 0.69071 0.10612 0.65185 0.0
H1476 H 0.71587 0.00043 0.73737 0.0
H1477 H 0.68673 0.04064 0.72146 0.0
H1478 H 0.71187 0.00656 0.70102 0.0
H1479 H 0.69096 0.03374 0.75737 0.0
H1480 H 0.65248 0.06833 0.71745 0.0
H1481 H 0.6234 0.00745 0.69497 0.0
H1482 H 0.7771 0.05689 0.73381 0.0
H1483 H 0.7474 0.08579 0.75663 0.0
H1484 H 0.70617 0.0432 0.61099 0.0
H1485 H 0.65491 0.00905 0.64253 0.0
H1486 H 0.6902 0.02034 0.57981 0.0
H1487 H 0.63999 0.98655 0.61093 0.0
H1488 H 0.74502 0.05353 0.62383 0.0
H1489 H 0.73615 0.02002 0.67639 0.0
H1490 H 0.75897 0.03528 0.60694 0.0
H1491 H 0.75018 0.0023 0.65853 0.0
H1492 H 0.77459 0.11099 0.62163 0.0
H1493 H 0.7197 0.0981 0.59218 0.0
H1494 H 0.66605 0.9557 0.66075 0.0
H1495 H 0.69793 0.97674 0.60709 0.0
Li1496 Li 0.94396 0.67735 0.73252 0.0
Li1497 Li 0.95128 0.65278 0.71881 0.0
Li1498 Li 0.96878 0.68728 0.7079 0.0
Li1499 Li 0.93512 0.66452 0.69528 0.0
C1500 C 0.97685 0.68438 0.75519 0.0
N1501 N 0.99261 0.69761 0.79528 0.0
C1502 C 0.97257 0.67113 0.77023 0.0
C1503 C 0.9895 0.70432 0.76046 0.0
C1504 C 0.98057 0.67811 0.79043 0.0
C1505 C 0.99722 0.71073 0.78083 0.0
C1506 C 0.91133 0.63106 0.72125 0.0
C1507 C 0.89382 0.5977 0.70631 0.0
N1508 N 0.88346 0.59223 0.72317 0.0
C1509 C 0.90039 0.62513 0.73835 0.0
C1510 C 0.90792 0.61727 0.70505 0.0
C1511 C 0.88642 0.60542 0.73906 0.0
C1512 C 0.93256 0.6997 0.7582 0.0
N1513 N 0.93552 0.68426 0.75667 0.0
C1514 C 0.92364 0.67494 0.78966 0.0
C1515 C 0.93132 0.67203 0.77197 0.0
C1516 C 0.92018 0.69053 0.7915 0.0
C1517 C 0.92494 0.7032 0.77572 0.0
H1518 H 0.9356 0.70896 0.74565 0.0
H1519 H 0.93341 0.65964 0.77015 0.0
C1520 C 0.96934 0.63045 0.71727 0.0
N1521 N 0.95499 0.632 0.72594 0.0
C1522 C 0.97434 0.61699 0.72385 0.0
C1523 C 0.94956 0.60686 0.74798 0.0
C1524 C 0.94501 0.62047 0.74091 0.0
C1525 C 0.96455 0.60529 0.73958 0.0
H1526 H 0.97732 0.64013 0.70574 0.0
H1527 H 0.93414 0.62245 0.74804 0.0
C1528 C 0.9538 0.71134 0.70521 0.0
N1529 N 0.96922 0.75062 0.69996 0.0
C1530 C 0.9484 0.71719 0.68747 0.0
C1531 C 0.96682 0.72547 0.7204 0.0
C1532 C 0.95641 0.73712 0.68507 0.0
C1533 C 0.97452 0.74525 0.71744 0.0
C1534 C 0.95745 0.65386 0.67186 0.0
C1535 C 0.96539 0.66579 0.65576 0.0
C1536 C 0.94927 0.63363 0.66827 0.0
C1537 C 0.96445 0.65724 0.63618 0.0
C1538 C 0.94864 0.62563 0.64848 0.0
N1539 N 0.95614 0.6375 0.63297 0.0
C1540 C 0.00937 0.70831 0.70889 0.0
C1541 C 0.99366 0.71642 0.68281 0.0
C1542 C 0.02726 0.7198 0.70095 0.0
N1543 N 0.99303 0.70665 0.69957 0.0
C1544 C 0.01121 0.728 0.67433 0.0
C1545 C 0.02812 0.72939 0.68322 0.0
H1546 H 0.00836 0.69998 0.72188 0.0
H1547 H 0.98041 0.71435 0.67529 0.0
C1548 C 0.89831 0.64426 0.6713 0.0
N1549 N 0.91741 0.65814 0.67178 0.0
C1550 C 0.88612 0.64007 0.65345 0.0
C1551 C 0.9133 0.66508 0.63731 0.0
C1552 C 0.92495 0.66866 0.65534 0.0
C1553 C 0.8937 0.65059 0.63625 0.0
H1554 H 0.89247 0.6365 0.68474 0.0
H1555 H 0.94003 0.67996 0.65632 0.0
O1556 O 0.96909 0.6778 0.73533 0.0
O1557 O 0.92534 0.65024 0.72047 0.0
O1558 O 0.94637 0.69189 0.70769 0.0
O1559 O 0.95828 0.662 0.69118 0.0
H1560 H 0.96302 0.65564 0.7664 0.0
H1561 H 0.99349 0.71474 0.74893 0.0
H1562 H 0.97721 0.66802 0.80225 0.0
H1563 H 0.00696 0.72614 0.78513 0.0
H1564 H 0.89106 0.58689 0.69386 0.0
H1565 H 0.90262 0.6356 0.75094 0.0
H1566 H 0.91589 0.62168 0.69152 0.0
H1567 H 0.87791 0.60062 0.75223 0.0
H1568 H 0.91996 0.66484 0.80154 0.0
H1569 H 0.92225 0.71528 0.77671 0.0
H1570 H 0.98613 0.61619 0.7173 0.0
H1571 H 0.94197 0.59816 0.76035 0.0
H1572 H 0.93813 0.70648 0.67568 0.0
H1573 H 0.97084 0.72118 0.73437 0.0
H1574 H 0.95243 0.74185 0.67137 0.0
H1575 H 0.98468 0.75633 0.72905 0.0
H1576 H 0.97205 0.68147 0.65826 0.0
H1577 H 0.94367 0.62418 0.68063 0.0
H1578 H 0.97037 0.66631 0.62355 0.0
H1579 H 0.94226 0.60999 0.64549 0.0
H1580 H 0.04011 0.72048 0.70796 0.0
H1581 H 0.01148 0.73509 0.66048 0.0
H1582 H 0.87097 0.62889 0.65307 0.0
H1583 H 0.9195 0.67351 0.62429 0.0
H1584 H 0.17569 0.36228 0.0211 0.0
H1585 H 0.2616 0.28288 0.17518 0.0
H1586 H 0.16509 0.35751 0.13111 0.0
H1587 H 0.14136 0.36458 0.11484 0.0
H1588 H 0.09677 0.3042 0.1165 0.0
H1589 H 0.12073 0.29698 0.13218 0.0
H1590 H 0.1963 0.35702 0.10674 0.0
H1591 H 0.19254 0.36464 0.07154 0.0
H1592 H 0.14075 0.30783 0.05967 0.0
H1593 H 0.14487 0.30027 0.0948 0.0
H1594 H 0.22563 0.35098 0.13502 0.0
H1595 H 0.251 0.35888 0.11124 0.0
H1596 H 0.21146 0.308 0.07101 0.0
H1597 H 0.18606 0.2998 0.0951 0.0
H1598 H 0.22275 0.34006 0.1764 0.0
H1599 H 0.24878 0.33427 0.18782 0.0
H1600 H 0.22021 0.27878 0.15115 0.0
H1601 H 0.19418 0.28471 0.13999 0.0
H1602 H 0.19289 0.34122 0.19791 0.0
H1603 H 0.20302 0.33685 0.23231 0.0
H1604 H 0.1785 0.27528 0.21526 0.0
H1605 H 0.16846 0.27973 0.18063 0.0
H1606 H 0.16454 0.34727 0.18399 0.0
H1607 H 0.1444 0.34513 0.21224 0.0
H1608 H 0.10817 0.28303 0.19667 0.0
H1609 H 0.12883 0.2851 0.16891 0.0
O1610 O 0.17697 0.35891 0.03492 0.0
O1611 O 0.15017 0.32973 0.02978 0.0
O1612 O 0.26558 0.31419 0.18951 0.0
O1613 O 0.25159 0.28563 0.17075 0.0
C1614 C 0.15972 0.32201 0.13896 0.0
C1615 C 0.17311 0.32345 0.12469 0.0
C1616 C 0.18867 0.32078 0.13091 0.0
C1617 C 0.19043 0.31596 0.15111 0.0
C1618 C 0.17692 0.31427 0.16526 0.0
C1619 C 0.16159 0.31733 0.1592 0.0
C1620 C 0.14461 0.32673 0.13277 0.0
C1621 C 0.15013 0.34587 0.12828 0.0
C1622 C 0.13666 0.34989 0.11899 0.0
C1623 C 0.1174 0.33487 0.11437 0.0
C1624 C 0.1116 0.31593 0.11994 0.0
C1625 C 0.12518 0.31186 0.129 0.0
C1626 C 0.17093 0.32805 0.10326 0.0
C1627 C 0.18424 0.34619 0.09645 0.0
C1628 C 0.18202 0.35053 0.07637 0.0
C1629 C 0.16634 0.33684 0.06278 0.0
C1630 C 0.15299 0.31869 0.06972 0.0
C1631 C 0.1553 0.31434 0.08977 0.0
C1632 C 0.20408 0.32474 0.11684 0.0
C1633 C 0.2225 0.34137 0.12124 0.0
C1634 C 0.23688 0.34594 0.10767 0.0
C1635 C 0.23298 0.33403 0.08946 0.0
C1636 C 0.21461 0.31732 0.08503 0.0
C1637 C 0.20022 0.31266 0.09872 0.0
C1638 C 0.20653 0.31272 0.15752 0.0
C1639 C 0.22212 0.32664 0.17091 0.0
C1640 C 0.237 0.32332 0.17735 0.0
C1641 C 0.23654 0.30602 0.17045 0.0
C1642 C 0.22098 0.29223 0.1568 0.0
C1643 C 0.20612 0.29558 0.15038 0.0
C1644 C 0.17989 0.31077 0.18687 0.0
C1645 C 0.18924 0.3267 0.20176 0.0
C1646 C 0.19509 0.32423 0.22128 0.0
C1647 C 0.19162 0.30579 0.22616 0.0
C1648 C 0.1813 0.28961 0.21167 0.0
C1649 C 0.17556 0.29212 0.19203 0.0
C1650 C 0.14807 0.31634 0.17447 0.0
C1651 C 0.15215 0.33325 0.18657 0.0
C1652 C 0.14073 0.33202 0.20264 0.0
C1653 C 0.12489 0.3139 0.20657 0.0
C1654 C 0.12037 0.2971 0.1939 0.0
C1655 C 0.13205 0.29829 0.17808 0.0
C1656 C 0.16394 0.34154 0.0415 0.0
C1657 C 0.25215 0.30228 0.17751 0.0
H1658 H 0.64244 0.79581 0.04037 0.0
H1659 H 0.7129 0.9784 0.18201 0.0
H1660 H 0.65349 0.80626 0.1528 0.0
H1661 H 0.64531 0.77272 0.14223 0.0
H1662 H 0.70589 0.79053 0.14839 0.0
H1663 H 0.71412 0.82427 0.1589 0.0
H1664 H 0.65102 0.8321 0.12335 0.0
H1665 H 0.64191 0.81596 0.08844 0.0
H1666 H 0.70007 0.8265 0.08442 0.0
H1667 H 0.70906 0.84289 0.11922 0.0
H1668 H 0.65342 0.86424 0.14572 0.0
H1669 H 0.6438 0.88217 0.12308 0.0
H1670 H 0.69918 0.9074 0.09718 0.0
H1671 H 0.70881 0.88925 0.11989 0.0
H1672 H 0.66773 0.88191 0.18882 0.0
H1673 H 0.66887 0.91313 0.19523 0.0
H1674 H 0.72381 0.94264 0.16811 0.0
H1675 H 0.72242 0.91129 0.16174 0.0
H1676 H 0.67243 0.85344 0.21592 0.0
H1677 H 0.67612 0.87094 0.24939 0.0
H1678 H 0.73393 0.91504 0.23742 0.0
H1679 H 0.73024 0.89746 0.20379 0.0
H1680 H 0.66608 0.81592 0.19834 0.0
H1681 H 0.66949 0.79689 0.22509 0.0
H1682 H 0.73158 0.83426 0.22839 0.0
H1683 H 0.72816 0.85339 0.20156 0.0
O1684 O 0.64642 0.80248 0.05405 0.0
O1685 O 0.67645 0.80803 0.05288 0.0
O1686 O 0.68427 0.95014 0.19436 0.0
O1687 O 0.71215 0.96589 0.17981 0.0
C1688 C 0.68911 0.83808 0.16097 0.0
C1689 C 0.68615 0.84804 0.14514 0.0
C1690 C 0.68803 0.86643 0.14988 0.0
C1691 C 0.69383 0.87535 0.17017 0.0
C1692 C 0.69725 0.86561 0.18592 0.0
C1693 C 0.69473 0.84687 0.18134 0.0
C1694 C 0.68439 0.81764 0.15642 0.0
C1695 C 0.66498 0.80289 0.15204 0.0
C1696 C 0.66033 0.78384 0.1461 0.0
C1697 C 0.67502 0.77931 0.14452 0.0
C1698 C 0.69442 0.79388 0.14957 0.0
C1699 C 0.69909 0.81301 0.15553 0.0
C1700 C 0.68077 0.83892 0.12367 0.0
C1701 C 0.66184 0.83119 0.11477 0.0
C1702 C 0.65665 0.82185 0.09489 0.0
C1703 C 0.67027 0.81997 0.08362 0.0
C1704 C 0.68924 0.82775 0.09264 0.0
C1705 C 0.69442 0.83714 0.11249 0.0
C1706 C 0.68176 0.87547 0.13433 0.0
C1707 C 0.66333 0.87334 0.13488 0.0
C1708 C 0.65787 0.88351 0.12203 0.0
C1709 C 0.6708 0.896 0.10856 0.0
C1710 C 0.68904 0.89769 0.10748 0.0
C1711 C 0.69449 0.8874 0.12033 0.0
C1712 C 0.69508 0.89443 0.17501 0.0
C1713 C 0.68006 0.89517 0.18445 0.0
C1714 C 0.68071 0.91299 0.18798 0.0
C1715 C 0.69646 0.93039 0.18221 0.0
C1716 C 0.71151 0.92954 0.1728 0.0
C1717 C 0.71079 0.91169 0.1692 0.0
C1718 C 0.7011 0.87416 0.20751 0.0
C1719 C 0.68612 0.86652 0.22078 0.0
C1720 C 0.68819 0.8765 0.23978 0.0
C1721 C 0.70528 0.8942 0.24575 0.0
C1722 C 0.72072 0.9013 0.23304 0.0
C1723 C 0.71861 0.89132 0.21395 0.0
C1724 C 0.69688 0.83595 0.19802 0.0
C1725 C 0.68041 0.82002 0.20486 0.0
C1726 C 0.68234 0.80923 0.22005 0.0
C1727 C 0.70077 0.81422 0.22855 0.0
C1728 C 0.71728 0.83026 0.2219 0.0
C1729 C 0.71533 0.84113 0.20672 0.0
C1730 C 0.66465 0.80983 0.06259 0.0
C1731 C 0.69719 0.94935 0.18587 0.0
H1732 H 0.16158 0.83174 0.02398 0.0
H1733 H 0.30155 0.96735 0.19926 0.0
H1734 H 0.13565 0.84333 0.12581 0.0
H1735 H 0.10906 0.81142 0.11081 0.0
H1736 H 0.13033 0.78225 0.14883 0.0
H1737 H 0.15711 0.81406 0.16347 0.0
H1738 H 0.17348 0.87433 0.10409 0.0
H1739 H 0.16796 0.8609 0.06823 0.0
H1740 H 0.17336 0.81254 0.08795 0.0
H1741 H 0.17903 0.82622 0.12371 0.0
H1742 H 0.21045 0.91105 0.12689 0.0
H1743 H 0.23647 0.92553 0.10332 0.0
H1744 H 0.24514 0.87635 0.10706 0.0
H1745 H 0.21919 0.86191 0.13054 0.0
H1746 H 0.20579 0.92016 0.17743 0.0
H1747 H 0.23589 0.95015 0.18964 0.0
H1748 H 0.26763 0.9199 0.18099 0.0
H1749 H 0.23738 0.88993 0.16921 0.0
H1750 H 0.17132 0.89253 0.20244 0.0
H1751 H 0.18055 0.90595 0.23874 0.0
H1752 H 0.22226 0.88687 0.24224 0.0
H1753 H 0.21311 0.87354 0.20615 0.0
H1754 H 0.13392 0.85361 0.17636 0.0
H1755 H 0.11015 0.83499 0.20107 0.0
H1756 H 0.14968 0.81892 0.22818 0.0
H1757 H 0.17337 0.83749 0.20359 0.0
O1758 O 0.16385 0.83683 0.03825 0.0
O1759 O 0.16642 0.81209 0.04923 0.0
O1760 O 0.2724 0.97047 0.19903 0.0
O1761 O 0.28944 0.9557 0.19449 0.0
C1762 C 0.16593 0.84993 0.1524 0.0
C1763 C 0.17996 0.85948 0.1382 0.0
C1764 C 0.19757 0.87669 0.14476 0.0
C1765 C 0.20101 0.88466 0.16538 0.0
C1766 C 0.18707 0.87498 0.17963 0.0
C1767 C 0.16953 0.85764 0.17314 0.0
C1768 C 0.14824 0.83097 0.14575 0.0
C1769 C 0.13436 0.83005 0.13115 0.0
C1770 C 0.11927 0.81194 0.12263 0.0
C1771 C 0.11788 0.79462 0.12874 0.0
C1772 C 0.13123 0.79553 0.14401 0.0
C1773 C 0.14637 0.81361 0.15242 0.0
C1774 C 0.17651 0.85117 0.11648 0.0
C1775 C 0.17347 0.86084 0.10061 0.0
C1776 C 0.17031 0.85313 0.08015 0.0
C1777 C 0.17016 0.83561 0.07523 0.0
C1778 C 0.17333 0.82602 0.09121 0.0
C1779 C 0.1765 0.83377 0.11165 0.0
C1780 C 0.21298 0.88546 0.13034 0.0
C1781 C 0.21794 0.90341 0.12255 0.0
C1782 C 0.23266 0.91159 0.10915 0.0
C1783 C 0.24257 0.9019 0.1035 0.0
C1784 C 0.23754 0.88392 0.11122 0.0
C1785 C 0.22281 0.87574 0.12455 0.0
C1786 C 0.21943 0.90293 0.17228 0.0
C1787 C 0.21927 0.92006 0.17818 0.0
C1788 C 0.23648 0.93716 0.18513 0.0
C1789 C 0.25418 0.93743 0.18624 0.0
C1790 C 0.25427 0.92021 0.18028 0.0
C1791 C 0.23703 0.90309 0.17344 0.0
C1792 C 0.19166 0.88221 0.20171 0.0
C1793 C 0.18233 0.89114 0.21113 0.0
C1794 C 0.18756 0.89875 0.23171 0.0
C1795 C 0.20206 0.89735 0.24299 0.0
C1796 C 0.21103 0.88802 0.23369 0.0
C1797 C 0.20587 0.88051 0.21318 0.0
C1798 C 0.15536 0.84694 0.1883 0.0
C1799 C 0.13744 0.84612 0.18769 0.0
C1800 C 0.12395 0.83556 0.2017 0.0
C1801 C 0.12823 0.8256 0.21631 0.0
C1802 C 0.14619 0.82653 0.21697 0.0
C1803 C 0.15967 0.83713 0.20305 0.0
C1804 C 0.16671 0.82741 0.0535 0.0
C1805 C 0.2725 0.95556 0.19364 0.0
H1806 H 0.31911 0.18002 0.03343 0.0
H1807 H 0.31463 0.03606 0.8673 0.0
H1808 H 0.2859 0.17111 0.92644 0.0
H1809 H 0.29509 0.20468 0.93893 0.0
H1810 H 0.34788 0.22712 0.90821 0.0
H1811 H 0.33879 0.19367 0.89582 0.0
H1812 H 0.28728 0.13731 0.95248 0.0
H1813 H 0.29536 0.15123 0.98831 0.0
H1814 H 0.35266 0.19425 0.97297 0.0
H1815 H 0.3444 0.18015 0.93723 0.0
H1816 H 0.28453 0.09707 0.93225 0.0
H1817 H 0.29436 0.07892 0.95459 0.0
H1818 H 0.35399 0.12503 0.95514 0.0
H1819 H 0.3442 0.1431 0.93291 0.0
H1820 H 0.27162 0.08852 0.88242 0.0
H1821 H 0.26933 0.05732 0.87207 0.0
H1822 H 0.33142 0.08443 0.88362 0.0
H1823 H 0.33351 0.11555 0.89374 0.0
H1824 H 0.26918 0.11556 0.85244 0.0
H1825 H 0.26589 0.09927 0.81802 0.0
H1826 H 0.32701 0.11929 0.82317 0.0
H1827 H 0.33027 0.13553 0.85727 0.0
H1828 H 0.27407 0.15939 0.87673 0.0
H1829 H 0.27226 0.18048 0.85131 0.0
H1830 H 0.32701 0.19184 0.83039 0.0
H1831 H 0.32887 0.17087 0.85578 0.0
O1832 O 0.31627 0.17466 0.01922 0.0
O1833 O 0.34542 0.19667 0.01044 0.0
O1834 O 0.28333 0.03514 0.86488 0.0
O1835 O 0.3151 0.04819 0.87136 0.0
C1836 C 0.30765 0.1599 0.90496 0.0
C1837 C 0.31014 0.14941 0.92054 0.0
C1838 C 0.30845 0.13114 0.91534 0.0
C1839 C 0.30404 0.12323 0.89465 0.0
C1840 C 0.30177 0.13383 0.87907 0.0
C1841 C 0.30337 0.15206 0.88423 0.0
C1842 C 0.31167 0.18003 0.9102 0.0
C1843 C 0.29925 0.18331 0.9221 0.0
C1844 C 0.30446 0.20235 0.92918 0.0
C1845 C 0.32212 0.2182 0.92443 0.0
C1846 C 0.33417 0.21499 0.9119 0.0
C1847 C 0.32896 0.19599 0.9048 0.0
C1848 C 0.3152 0.15783 0.94227 0.0
C1849 C 0.30156 0.14974 0.95692 0.0
C1850 C 0.30622 0.15773 0.97735 0.0
C1851 C 0.32463 0.17391 0.98349 0.0
C1852 C 0.33833 0.18183 0.96875 0.0
C1853 C 0.33364 0.17385 0.94833 0.0
C1854 C 0.31367 0.12138 0.93105 0.0
C1855 C 0.29964 0.1034 0.93756 0.0
C1856 C 0.30522 0.09311 0.95024 0.0
C1857 C 0.32488 0.1007 0.95638 0.0
C1858 C 0.33877 0.11905 0.95057 0.0
C1859 C 0.33319 0.12933 0.93798 0.0
C1860 C 0.3027 0.10421 0.88899 0.0
C1861 C 0.28469 0.08765 0.88277 0.0
C1862 C 0.28343 0.06987 0.87686 0.0
C1863 C 0.3002 0.06837 0.87706 0.0
C1864 C 0.31823 0.08505 0.88331 0.0
C1865 C 0.31946 0.10282 0.8892 0.0
C1866 C 0.29995 0.12663 0.85725 0.0
C1867 C 0.28188 0.11675 0.84589 0.0
C1868 C 0.28001 0.10747 0.8264 0.0
C1869 C 0.29621 0.10803 0.81828 0.0
C1870 C 0.31439 0.11871 0.82927 0.0
C1871 C 0.31625 0.12796 0.84863 0.0
C1872 C 0.3015 0.16348 0.86791 0.0
C1873 C 0.28554 0.16625 0.86648 0.0
C1874 C 0.28451 0.17822 0.85208 0.0
C1875 C 0.29949 0.18758 0.83907 0.0
C1876 C 0.31531 0.18461 0.84031 0.0
C1877 C 0.31632 0.17263 0.85465 0.0
C1878 C 0.32947 0.18248 0.00516 0.0
C1879 C 0.29895 0.04954 0.87072 0.0
H1880 H 0.82747 0.19482 0.03225 0.0
H1881 H 0.728 0.01279 0.88161 0.0
H1882 H 0.83802 0.18794 0.92104 0.0
H1883 H 0.86404 0.2206 0.93467 0.0
H1884 H 0.90361 0.19892 0.94 0.0
H1885 H 0.87756 0.16622 0.92606 0.0
H1886 H 0.80508 0.15932 0.94753 0.0
H1887 H 0.80983 0.175 0.98223 0.0
H1888 H 0.85803 0.1662 0.99595 0.0
H1889 H 0.85291 0.15026 0.96131 0.0
H1890 H 0.77376 0.12149 0.92154 0.0
H1891 H 0.74817 0.10584 0.94518 0.0
H1892 H 0.78555 0.09367 0.98332 0.0
H1893 H 0.8112 0.10923 0.95948 0.0
H1894 H 0.77596 0.10975 0.87828 0.0
H1895 H 0.74779 0.07772 0.86723 0.0
H1896 H 0.77143 0.05028 0.90505 0.0
H1897 H 0.79963 0.08241 0.91581 0.0
H1898 H 0.80998 0.14192 0.85812 0.0
H1899 H 0.79896 0.12691 0.82277 0.0
H1900 H 0.81128 0.08166 0.83722 0.0
H1901 H 0.82232 0.09673 0.8728 0.0
H1902 H 0.84155 0.17846 0.87807 0.0
H1903 H 0.86463 0.19681 0.85283 0.0
H1904 H 0.88724 0.15777 0.85505 0.0
H1905 H 0.86404 0.13931 0.8803 0.0
O1906 O 0.8257 0.18837 0.01869 0.0
O1907 O 0.8506 0.18381 0.02483 0.0
O1908 O 0.72763 0.04044 0.86626 0.0
O1909 O 0.73894 0.02565 0.8858 0.0
C1910 C 0.83972 0.1548 0.91647 0.0
C1911 C 0.82602 0.14455 0.93071 0.0
C1912 C 0.80964 0.12612 0.92449 0.0
C1913 C 0.80715 0.11778 0.90415 0.0
C1914 C 0.82087 0.12809 0.8899 0.0
C1915 C 0.8372 0.14657 0.89611 0.0
C1916 C 0.85598 0.1748 0.92266 0.0
C1917 C 0.85238 0.19033 0.92486 0.0
C1918 C 0.86715 0.20887 0.9326 0.0
C1919 C 0.88563 0.21204 0.93837 0.0
C1920 C 0.8894 0.19666 0.93558 0.0
C1921 C 0.87463 0.17811 0.92765 0.0
C1922 C 0.82858 0.15357 0.95197 0.0
C1923 C 0.81653 0.16063 0.95813 0.0
C1924 C 0.81934 0.16966 0.97792 0.0
C1925 C 0.83433 0.17187 0.99187 0.0
C1926 C 0.84635 0.16472 0.98561 0.0
C1927 C 0.84347 0.15563 0.96584 0.0
C1928 C 0.79424 0.11633 0.93875 0.0
C1929 C 0.7764 0.11534 0.93492 0.0
C1930 C 0.7619 0.10656 0.9484 0.0
C1931 C 0.76511 0.09873 0.96593 0.0
C1932 C 0.78295 0.09974 0.96986 0.0
C1933 C 0.79747 0.10852 0.95631 0.0
C1934 C 0.7899 0.09836 0.89768 0.0
C1935 C 0.77507 0.09679 0.88407 0.0
C1936 C 0.75896 0.07849 0.87785 0.0
C1937 C 0.75739 0.06142 0.88521 0.0
C1938 C 0.77221 0.06311 0.89904 0.0
C1939 C 0.78832 0.08143 0.90523 0.0
C1940 C 0.81695 0.12041 0.86797 0.0
C1941 C 0.81073 0.12903 0.85356 0.0
C1942 C 0.80439 0.12045 0.83349 0.0
C1943 C 0.8042 0.10315 0.82754 0.0
C1944 C 0.81132 0.09501 0.84163 0.0
C1945 C 0.81759 0.10357 0.86181 0.0
C1946 C 0.85125 0.15766 0.88104 0.0
C1947 C 0.85154 0.17392 0.87318 0.0
C1948 C 0.86459 0.1843 0.85881 0.0
C1949 C 0.87753 0.17857 0.8522 0.0
C1950 C 0.87731 0.16234 0.86006 0.0
C1951 C 0.86415 0.15187 0.87438 0.0
C1952 C 0.83742 0.18169 0.01279 0.0
C1953 C 0.7404 0.04192 0.87848 0.0
H1954 H 0.847 0.67114 0.05819 0.0
H1955 H 0.71374 0.66109 0.87688 0.0
H1956 H 0.87732 0.70716 0.95423 0.0
H1957 H 0.90216 0.70212 0.97162 0.0
H1958 H 0.87513 0.64391 0.94141 0.0
H1959 H 0.85027 0.64888 0.9242 0.0
H1960 H 0.84086 0.70073 0.97951 0.0
H1961 H 0.84475 0.69373 0.01498 0.0
H1962 H 0.82989 0.63513 0.99323 0.0
H1963 H 0.82615 0.64239 0.95785 0.0
H1964 H 0.80225 0.70008 0.9568 0.0
H1965 H 0.77479 0.68992 0.97837 0.0
H1966 H 0.76316 0.63057 0.97204 0.0
H1967 H 0.79029 0.64062 0.95017 0.0
H1968 H 0.8066 0.7121 0.91314 0.0
H1969 H 0.7771 0.71138 0.90016 0.0
H1970 H 0.74699 0.64817 0.89369 0.0
H1971 H 0.77665 0.64914 0.90653 0.0
H1972 H 0.83445 0.71842 0.88685 0.0
H1973 H 0.82312 0.72126 0.85214 0.0
H1974 H 0.79742 0.65907 0.83839 0.0
H1975 H 0.80856 0.65623 0.87304 0.0
H1976 H 0.87161 0.71797 0.89821 0.0
H1977 H 0.89222 0.7218 0.86977 0.0
H1978 H 0.86501 0.65909 0.85985 0.0
H1979 H 0.84429 0.65529 0.88797 0.0
O1980 O 0.84527 0.67356 0.04408 0.0
O1981 O 0.83768 0.64364 0.03209 0.0
O1982 O 0.74167 0.69431 0.88592 0.0
O1983 O 0.72555 0.6618 0.88225 0.0
C1984 C 0.84514 0.67988 0.93084 0.0
C1985 C 0.8309 0.67643 0.94474 0.0
C1986 C 0.8141 0.67681 0.9382 0.0
C1987 C 0.81176 0.68118 0.91797 0.0
C1988 C 0.82601 0.6847 0.90411 0.0
C1989 C 0.84262 0.6839 0.91046 0.0
C1990 C 0.8622 0.67847 0.93776 0.0
C1991 C 0.87714 0.69356 0.95088 0.0
C1992 C 0.89119 0.69068 0.96082 0.0
C1993 C 0.89037 0.67266 0.95773 0.0
C1994 C 0.876 0.65793 0.94382 0.0
C1995 C 0.86195 0.66082 0.93391 0.0
C1996 C 0.83339 0.67212 0.96617 0.0
C1997 C 0.83851 0.68642 0.98247 0.0
C1998 C 0.84069 0.68237 0.00269 0.0
C1999 C 0.83768 0.66388 0.00694 0.0
C2000 C 0.83235 0.64952 0.99051 0.0
C2001 C 0.83029 0.65365 0.97029 0.0
C2002 C 0.79824 0.67108 0.95203 0.0
C2003 C 0.79381 0.68492 0.96015 0.0
C2004 C 0.77826 0.67916 0.97242 0.0
C2005 C 0.76709 0.65954 0.97674 0.0
C2006 C 0.77171 0.64577 0.96888 0.0
C2007 C 0.78715 0.6515 0.95651 0.0
C2008 C 0.7937 0.68068 0.91073 0.0
C2009 C 0.79359 0.69813 0.90892 0.0
C2010 C 0.77674 0.69767 0.90153 0.0
C2011 C 0.75968 0.6797 0.89587 0.0
C2012 C 0.75986 0.66224 0.89789 0.0
C2013 C 0.77674 0.66274 0.90525 0.0
C2014 C 0.82228 0.68712 0.88233 0.0
C2015 C 0.82676 0.70551 0.87614 0.0
C2016 C 0.82033 0.70713 0.85646 0.0
C2017 C 0.80948 0.69036 0.84285 0.0
C2018 C 0.80585 0.67213 0.84873 0.0
C2019 C 0.81221 0.67053 0.86838 0.0
C2020 C 0.85674 0.68636 0.89532 0.0
C2021 C 0.87041 0.7051 0.89016 0.0
C2022 C 0.88208 0.70728 0.87399 0.0
C2023 C 0.88014 0.69071 0.86289 0.0
C2024 C 0.86678 0.672 0.8684 0.0
C2025 C 0.85508 0.66984 0.88447 0.0
C2026 C 0.84018 0.65967 0.02842 0.0
C2027 C 0.7418 0.67913 0.88775 0.0
H2028 H 0.82416 0.69515 0.35347 0.0
H2029 H 0.92813 0.62678 0.51503 0.0
H2030 H 0.81645 0.68657 0.4793 0.0
H2031 H 0.7921 0.69344 0.46412 0.0
H2032 H 0.76411 0.63734 0.42908 0.0
H2033 H 0.78846 0.63045 0.44428 0.0
H2034 H 0.83939 0.69193 0.44127 0.0
H2035 H 0.83496 0.69906 0.40603 0.0
H2036 H 0.81796 0.63982 0.38436 0.0
H2037 H 0.82259 0.63296 0.4197 0.0
H2038 H 0.8758 0.69174 0.44739 0.0
H2039 H 0.90191 0.6996 0.42462 0.0
H2040 H 0.88495 0.63863 0.41712 0.0
H2041 H 0.85879 0.63077 0.44011 0.0
H2042 H 0.89173 0.68144 0.48403 0.0
H2043 H 0.91979 0.6785 0.49437 0.0
H2044 H 0.8817 0.61709 0.50177 0.0
H2045 H 0.8538 0.62015 0.49097 0.0
H2046 H 0.86953 0.67905 0.52131 0.0
H2047 H 0.87915 0.67606 0.55656 0.0
H2048 H 0.8315 0.61662 0.55354 0.0
H2049 H 0.82199 0.61952 0.51798 0.0
H2050 H 0.83042 0.67993 0.51991 0.0
H2051 H 0.80969 0.67675 0.5479 0.0
H2052 H 0.76756 0.61841 0.52261 0.0
H2053 H 0.7883 0.62164 0.49447 0.0
O2054 O 0.82602 0.69206 0.36725 0.0
O2055 O 0.818 0.66166 0.35678 0.0
O2056 O 0.93631 0.65983 0.50612 0.0
O2057 O 0.91731 0.62832 0.5107 0.0
C2058 C 0.82077 0.65553 0.46899 0.0
C2059 C 0.83409 0.65771 0.45436 0.0
C2060 C 0.85057 0.65645 0.46013 0.0
C2061 C 0.85365 0.65275 0.48048 0.0
C2062 C 0.8406 0.65104 0.49524 0.0
C2063 C 0.82412 0.65236 0.48949 0.0
C2064 C 0.80414 0.65799 0.46292 0.0
C2065 C 0.80474 0.67553 0.46882 0.0
C2066 C 0.79096 0.67948 0.46013 0.0
C2067 C 0.77642 0.66588 0.44552 0.0
C2068 C 0.77521 0.64792 0.44042 0.0
C2069 C 0.78902 0.64399 0.44908 0.0
C2070 C 0.83116 0.6619 0.433 0.0
C2071 C 0.83465 0.68051 0.42888 0.0
C2072 C 0.83217 0.68455 0.40874 0.0
C2073 C 0.82602 0.66998 0.39238 0.0
C2074 C 0.82264 0.65135 0.3966 0.0
C2075 C 0.82525 0.64738 0.41675 0.0
C2076 C 0.86545 0.6607 0.44533 0.0
C2077 C 0.87758 0.68005 0.44065 0.0
C2078 C 0.89243 0.68452 0.42775 0.0
C2079 C 0.89529 0.66968 0.41929 0.0
C2080 C 0.88288 0.65023 0.42355 0.0
C2081 C 0.86806 0.64576 0.4366 0.0
C2082 C 0.87075 0.65096 0.48653 0.0
C2083 C 0.8895 0.66732 0.48765 0.0
C2084 C 0.90549 0.66562 0.49367 0.0
C2085 C 0.90299 0.64754 0.49887 0.0
C2086 C 0.88415 0.63121 0.49783 0.0
C2087 C 0.86819 0.63291 0.49168 0.0
C2088 C 0.84518 0.64945 0.51709 0.0
C2089 C 0.8611 0.66541 0.52828 0.0
C2090 C 0.86653 0.66374 0.54831 0.0
C2091 C 0.85606 0.64611 0.55746 0.0
C2092 C 0.83972 0.6303 0.5466 0.0
C2093 C 0.83431 0.63196 0.52644 0.0
C2094 C 0.8108 0.65102 0.50521 0.0
C2095 C 0.81662 0.66656 0.52028 0.0
C2096 C 0.80486 0.66475 0.53618 0.0
C2097 C 0.7872 0.64735 0.53722 0.0
C2098 C 0.78117 0.63192 0.52195 0.0
C2099 C 0.79291 0.63379 0.50595 0.0
C2100 C 0.8231 0.67424 0.37105 0.0
C2101 C 0.91991 0.64568 0.50543 0.0
H2102 H 0.32529 0.13989 0.36742 0.0
H2103 H 0.37875 0.31044 0.51938 0.0
H2104 H 0.3262 0.1411 0.47745 0.0
H2105 H 0.31965 0.10817 0.467 0.0
H2106 H 0.37842 0.12531 0.4872 0.0
H2107 H 0.38531 0.15875 0.4967 0.0
H2108 H 0.32467 0.16811 0.45175 0.0
H2109 H 0.31936 0.15516 0.41578 0.0
H2110 H 0.37835 0.16706 0.41772 0.0
H2111 H 0.38356 0.18029 0.45362 0.0
H2112 H 0.32345 0.19672 0.4756 0.0
H2113 H 0.31437 0.21569 0.45395 0.0
H2114 H 0.37216 0.24615 0.43378 0.0
H2115 H 0.38126 0.22697 0.45549 0.0
H2116 H 0.33466 0.21324 0.51875 0.0
H2117 H 0.33431 0.24362 0.52588 0.0
H2118 H 0.39222 0.2765 0.50598 0.0
H2119 H 0.39227 0.24598 0.49875 0.0
H2120 H 0.34009 0.18605 0.54728 0.0
H2121 H 0.34248 0.20315 0.58065 0.0
H2122 H 0.40121 0.24705 0.57155 0.0
H2123 H 0.3988 0.22993 0.53805 0.0
H2124 H 0.33524 0.14761 0.52741 0.0
H2125 H 0.33759 0.12803 0.55421 0.0
H2126 H 0.39919 0.16801 0.56351 0.0
H2127 H 0.39684 0.18769 0.53667 0.0
O2128 O 0.32775 0.14522 0.38162 0.0
O2129 O 0.35815 0.1515 0.38347 0.0
O2130 O 0.34906 0.28071 0.52758 0.0
O2131 O 0.37855 0.29823 0.51682 0.0
C2132 C 0.36018 0.17253 0.49277 0.0
C2133 C 0.35785 0.18308 0.47712 0.0
C2134 C 0.35876 0.20096 0.4824 0.0
C2135 C 0.36325 0.20896 0.50303 0.0
C2136 C 0.36631 0.19883 0.51859 0.0
C2137 C 0.36444 0.18044 0.51353 0.0
C2138 C 0.35631 0.15241 0.48751 0.0
C2139 C 0.33775 0.13786 0.47943 0.0
C2140 C 0.33398 0.11908 0.47361 0.0
C2141 C 0.3486 0.11442 0.47619 0.0
C2142 C 0.36702 0.12874 0.48497 0.0
C2143 C 0.37092 0.14772 0.49041 0.0
C2144 C 0.35459 0.17543 0.45519 0.0
C2145 C 0.33651 0.16819 0.44429 0.0
C2146 C 0.33348 0.16066 0.42378 0.0
C2147 C 0.34845 0.16013 0.41384 0.0
C2148 C 0.36653 0.16731 0.42488 0.0
C2149 C 0.36955 0.17488 0.44537 0.0
C2150 C 0.35295 0.21044 0.46694 0.0
C2151 C 0.33402 0.20717 0.46614 0.0
C2152 C 0.32887 0.21795 0.45388 0.0
C2153 C 0.34262 0.23223 0.44237 0.0
C2154 C 0.3614 0.23508 0.44255 0.0
C2155 C 0.36655 0.22418 0.45481 0.0
C2156 C 0.36354 0.22749 0.5084 0.0
C2157 C 0.34729 0.22705 0.51609 0.0
C2158 C 0.3471 0.2444 0.52005 0.0
C2159 C 0.36326 0.2625 0.51653 0.0
C2160 C 0.37957 0.26284 0.50892 0.0
C2161 C 0.37967 0.24545 0.50483 0.0
C2162 C 0.3693 0.20674 0.54034 0.0
C2163 C 0.35368 0.19898 0.55278 0.0
C2164 C 0.35501 0.20873 0.57172 0.0
C2165 C 0.372 0.22629 0.57843 0.0
C2166 C 0.38806 0.23342 0.5666 0.0
C2167 C 0.38669 0.2237 0.54759 0.0
C2168 C 0.36588 0.16899 0.53009 0.0
C2169 C 0.34923 0.15215 0.53524 0.0
C2170 C 0.35056 0.14104 0.55046 0.0
C2171 C 0.36856 0.14663 0.56069 0.0
C2172 C 0.38522 0.16354 0.55568 0.0
C2173 C 0.38387 0.17472 0.54049 0.0
C2174 C 0.34516 0.15205 0.39208 0.0
C2175 C 0.36312 0.28097 0.52068 0.0
H2176 H 0.81522 0.15997 0.35004 0.0
H2177 H 0.96976 0.29274 0.51811 0.0
H2178 H 0.79823 0.17296 0.45604 0.0
H2179 H 0.76995 0.1413 0.44289 0.0
H2180 H 0.7945 0.11119 0.47408 0.0
H2181 H 0.82265 0.14272 0.48723 0.0
H2182 H 0.83535 0.20346 0.43095 0.0
H2183 H 0.82648 0.18981 0.39504 0.0
H2184 H 0.83216 0.14067 0.41125 0.0
H2185 H 0.84114 0.15455 0.44705 0.0
H2186 H 0.87627 0.24033 0.45314 0.0
H2187 H 0.90358 0.25552 0.43126 0.0
H2188 H 0.90793 0.20353 0.4298 0.0
H2189 H 0.88083 0.18844 0.4518 0.0
H2190 H 0.87351 0.2489 0.50314 0.0
H2191 H 0.90474 0.2782 0.51382 0.0
H2192 H 0.93367 0.24566 0.50146 0.0
H2193 H 0.90235 0.21641 0.49113 0.0
H2194 H 0.83866 0.22047 0.53008 0.0
H2195 H 0.84932 0.23323 0.56641 0.0
H2196 H 0.89184 0.21521 0.56526 0.0
H2197 H 0.88106 0.20226 0.52923 0.0
H2198 H 0.80051 0.18326 0.50508 0.0
H2199 H 0.77774 0.16452 0.53055 0.0
H2200 H 0.81756 0.14721 0.55389 0.0
H2201 H 0.84024 0.16584 0.52848 0.0
O2202 O 0.81894 0.1652 0.36427 0.0
O2203 O 0.82173 0.14008 0.37349 0.0
O2204 O 0.94161 0.29732 0.52066 0.0
O2205 O 0.95721 0.28136 0.51406 0.0
C2206 C 0.83054 0.17883 0.47842 0.0
C2207 C 0.84373 0.1881 0.46341 0.0
C2208 C 0.86187 0.20494 0.46923 0.0
C2209 C 0.86664 0.2128 0.48998 0.0
C2210 C 0.85345 0.20346 0.50499 0.0
C2211 C 0.83541 0.18647 0.4992 0.0
C2212 C 0.8124 0.16005 0.47258 0.0
C2213 C 0.79729 0.15952 0.46032 0.0
C2214 C 0.78125 0.14157 0.45288 0.0
C2215 C 0.7803 0.12407 0.45755 0.0
C2216 C 0.79506 0.12462 0.47041 0.0
C2217 C 0.81101 0.14252 0.47792 0.0
C2218 C 0.83874 0.17992 0.44159 0.0
C2219 C 0.83471 0.18977 0.42668 0.0
C2220 C 0.82963 0.18193 0.4062 0.0
C2221 C 0.82853 0.1641 0.40029 0.0
C2222 C 0.83281 0.15439 0.41528 0.0
C2223 C 0.83789 0.16225 0.43575 0.0
C2224 C 0.87661 0.21331 0.45401 0.0
C2225 C 0.88292 0.23212 0.44781 0.0
C2226 C 0.89839 0.24073 0.43537 0.0
C2227 C 0.90763 0.23056 0.42901 0.0
C2228 C 0.90085 0.21148 0.43454 0.0
C2229 C 0.88542 0.2029 0.44698 0.0
C2230 C 0.88569 0.23059 0.4962 0.0
C2231 C 0.88662 0.24815 0.50275 0.0
C2232 C 0.90447 0.26485 0.50883 0.0
C2233 C 0.92172 0.26429 0.50842 0.0
C2234 C 0.92069 0.24662 0.5019 0.0
C2235 C 0.90282 0.22991 0.4959 0.0
C2236 C 0.85924 0.21064 0.52703 0.0
C2237 C 0.85018 0.21919 0.53774 0.0
C2238 C 0.85623 0.22644 0.55834 0.0
C2239 C 0.87141 0.22522 0.56832 0.0
C2240 C 0.88017 0.21632 0.55771 0.0
C2241 C 0.87409 0.20903 0.53722 0.0
C2242 C 0.82202 0.17596 0.51506 0.0
C2243 C 0.80434 0.17552 0.51579 0.0
C2244 C 0.79143 0.16491 0.53024 0.0
C2245 C 0.7961 0.1546 0.544 0.0
C2246 C 0.81383 0.15517 0.54338 0.0
C2247 C 0.82673 0.16579 0.52899 0.0
C2248 C 0.82289 0.15568 0.37858 0.0
C2249 C 0.94072 0.28202 0.51476 0.0
H2250 H 0.01821 0.53413 0.36829 0.0
H2251 H 0.01417 0.38988 0.20331 0.0
H2252 H 0.97215 0.51377 0.26447 0.0
H2253 H 0.97734 0.5459 0.27716 0.0
H2254 H 0.02768 0.57431 0.24255 0.0
H2255 H 0.02249 0.54224 0.22984 0.0
H2256 H 0.98207 0.48594 0.29079 0.0
H2257 H 0.99243 0.50191 0.32579 0.0
H2258 H 0.04537 0.54755 0.304 0.0
H2259 H 0.03485 0.5314 0.26913 0.0
H2260 H 0.9801 0.44641 0.2689 0.0
H2261 H 0.99287 0.42975 0.2896 0.0
H2262 H 0.05075 0.47886 0.28813 0.0
H2263 H 0.03803 0.49535 0.26705 0.0
H2264 H 0.96444 0.43476 0.22316 0.0
H2265 H 0.96483 0.40472 0.21384 0.0
H2266 H 0.02739 0.43797 0.21647 0.0
H2267 H 0.02678 0.46787 0.22581 0.0
H2268 H 0.95437 0.45801 0.1946 0.0
H2269 H 0.94722 0.43854 0.16136 0.0
H2270 H 0.00843 0.46325 0.15567 0.0
H2271 H 0.01552 0.48265 0.18867 0.0
H2272 H 0.95754 0.50073 0.2159 0.0
H2273 H 0.95072 0.519 0.19062 0.0
H2274 H 0.00486 0.53531 0.16458 0.0
H2275 H 0.01165 0.51707 0.18973 0.0
O2276 O 0.01447 0.52795 0.35439 0.0
O2277 O 0.04128 0.55123 0.34232 0.0
O2278 O 0.9814 0.38519 0.20524 0.0
O2279 O 0.01359 0.40151 0.20705 0.0
C2280 C 0.99556 0.5067 0.24098 0.0
C2281 C 0.00116 0.49804 0.25621 0.0
C2282 C 0.00101 0.48051 0.25107 0.0
C2283 C 0.99526 0.47163 0.23075 0.0
C2284 C 0.98988 0.48039 0.2155 0.0
C2285 C 0.98992 0.49788 0.22062 0.0
C2286 C 0.99694 0.52575 0.24624 0.0
C2287 C 0.98405 0.52692 0.25931 0.0
C2288 C 0.987 0.54515 0.26651 0.0
C2289 C 0.0029 0.56233 0.26076 0.0
C2290 C 0.01533 0.56114 0.24705 0.0
C2291 C 0.01233 0.54293 0.23978 0.0
C2292 C 0.00766 0.50759 0.27746 0.0
C2293 C 0.99591 0.49936 0.29365 0.0
C2294 C 0.00186 0.50853 0.3136 0.0
C2295 C 0.0197 0.52605 0.31768 0.0
C2296 C 0.03153 0.53411 0.30139 0.0
C2297 C 0.02554 0.52495 0.28146 0.0
C2298 C 0.00816 0.47203 0.26647 0.0
C2299 C 0.99548 0.45372 0.27338 0.0
C2300 C 0.00273 0.44427 0.28515 0.0
C2301 C 0.02271 0.45311 0.29021 0.0
C2302 C 0.03529 0.47191 0.28433 0.0
C2303 C 0.02804 0.48129 0.27243 0.0
C2304 C 0.99558 0.45343 0.22518 0.0
C2305 C 0.9782 0.43549 0.22171 0.0
C2306 C 0.97847 0.41838 0.21643 0.0
C2307 C 0.99615 0.41895 0.2144 0.0
C2308 C 0.01354 0.437 0.21788 0.0
C2309 C 0.01324 0.45409 0.22325 0.0
C2310 C 0.98545 0.47167 0.19396 0.0
C2311 C 0.9662 0.4596 0.18587 0.0
C2312 C 0.96214 0.4485 0.16704 0.0
C2313 C 0.97734 0.44944 0.15627 0.0
C2314 C 0.99657 0.46238 0.16383 0.0
C2315 C 0.0006 0.47343 0.18255 0.0
C2316 C 0.98503 0.50753 0.20451 0.0
C2317 C 0.96779 0.50806 0.20456 0.0
C2318 C 0.96391 0.51841 0.19023 0.0
C2319 C 0.97732 0.52841 0.17585 0.0
C2320 C 0.99438 0.52759 0.17558 0.0
C2321 C 0.9982 0.51719 0.18982 0.0
C2322 C 0.02587 0.53589 0.33883 0.0
C2323 C 0.99652 0.40083 0.20862 0.0
H2324 H 0.49335 0.54166 0.35565 0.0
H2325 H 0.38873 0.35209 0.21731 0.0
H2326 H 0.50104 0.52455 0.24213 0.0
H2327 H 0.52474 0.55859 0.25401 0.0
H2328 H 0.56632 0.54157 0.27158 0.0
H2329 H 0.54252 0.50733 0.25936 0.0
H2330 H 0.47094 0.5007 0.27328 0.0
H2331 H 0.4758 0.51878 0.30661 0.0
H2332 H 0.522 0.5082 0.32499 0.0
H2333 H 0.51683 0.48998 0.29168 0.0
H2334 H 0.43984 0.46295 0.25236 0.0
H2335 H 0.41404 0.44745 0.27588 0.0
H2336 H 0.44954 0.4316 0.31217 0.0
H2337 H 0.47549 0.4473 0.28868 0.0
H2338 H 0.44138 0.44811 0.20828 0.0
H2339 H 0.41194 0.41658 0.19884 0.0
H2340 H 0.43352 0.38876 0.23883 0.0
H2341 H 0.46295 0.42037 0.24802 0.0
H2342 H 0.47756 0.47802 0.18617 0.0
H2343 H 0.46625 0.46109 0.1516 0.0
H2344 H 0.47379 0.4142 0.17153 0.0
H2345 H 0.48529 0.43127 0.20628 0.0
H2346 H 0.51004 0.51447 0.2036 0.0
H2347 H 0.53555 0.53025 0.17977 0.0
H2348 H 0.55394 0.48869 0.19054 0.0
H2349 H 0.52851 0.47298 0.21447 0.0
O2350 O 0.49148 0.53421 0.34269 0.0
O2351 O 0.5152 0.52847 0.35134 0.0
O2352 O 0.39002 0.37967 0.20003 0.0
O2353 O 0.40021 0.36474 0.2208 0.0
C2354 C 0.50478 0.49295 0.24517 0.0
C2355 C 0.49102 0.48368 0.25964 0.0
C2356 C 0.47466 0.46507 0.2543 0.0
C2357 C 0.4721 0.45564 0.23452 0.0
C2358 C 0.48607 0.46479 0.22014 0.0
C2359 C 0.50256 0.48337 0.22559 0.0
C2360 C 0.52016 0.5136 0.24988 0.0
C2361 C 0.51539 0.52823 0.24815 0.0
C2362 C 0.52883 0.54754 0.25492 0.0
C2363 C 0.54715 0.55243 0.26366 0.0
C2364 C 0.55222 0.53795 0.2648 0.0
C2365 C 0.53875 0.51855 0.25783 0.0
C2366 C 0.49345 0.49395 0.28017 0.0
C2367 C 0.48196 0.50214 0.28463 0.0
C2368 C 0.48483 0.51253 0.30363 0.0
C2369 C 0.4993 0.51494 0.31847 0.0
C2370 C 0.51072 0.5066 0.31393 0.0
C2371 C 0.5078 0.49618 0.29494 0.0
C2372 C 0.45942 0.45611 0.26884 0.0
C2373 C 0.44207 0.4562 0.26543 0.0
C2374 C 0.42746 0.44748 0.27882 0.0
C2375 C 0.43003 0.4385 0.29567 0.0
C2376 C 0.44745 0.43856 0.29923 0.0
C2377 C 0.46214 0.44743 0.28589 0.0
C2378 C 0.45433 0.43646 0.2287 0.0
C2379 C 0.43975 0.43516 0.21488 0.0
C2380 C 0.42293 0.41715 0.20959 0.0
C2381 C 0.4204 0.40013 0.21805 0.0
C2382 C 0.43503 0.40155 0.23199 0.0
C2383 C 0.45184 0.41958 0.23727 0.0
C2384 C 0.48225 0.45587 0.19869 0.0
C2385 C 0.47728 0.46436 0.18297 0.0
C2386 C 0.47079 0.45471 0.16333 0.0
C2387 C 0.46914 0.43643 0.15917 0.0
C2388 C 0.47503 0.42834 0.17456 0.0
C2389 C 0.48153 0.43802 0.19428 0.0
C2390 C 0.51758 0.49271 0.21085 0.0
C2391 C 0.51961 0.50883 0.20087 0.0
C2392 C 0.53405 0.51774 0.18728 0.0
C2393 C 0.54652 0.51056 0.1835 0.0
C2394 C 0.54438 0.49435 0.19333 0.0
C2395 C 0.52995 0.48544 0.2069 0.0
C2396 C 0.50252 0.52625 0.33851 0.0
C2397 C 0.40261 0.38095 0.21237 0.0
H2398 H 0.516 0.98128 0.38348 0.0
H2399 H 0.38026 0.98957 0.20389 0.0
H2400 H 0.54131 0.02496 0.27685 0.0
H2401 H 0.56656 0.02035 0.29393 0.0
H2402 H 0.53308 0.95861 0.27532 0.0
H2403 H 0.50764 0.96315 0.25876 0.0
H2404 H 0.51463 0.01663 0.30729 0.0
H2405 H 0.51883 0.00746 0.34161 0.0
H2406 H 0.4779 0.94684 0.32193 0.0
H2407 H 0.47396 0.95624 0.28764 0.0
H2408 H 0.47568 0.0162 0.30127 0.0
H2409 H 0.44951 0.00826 0.32421 0.0
H2410 H 0.41451 0.95213 0.29001 0.0
H2411 H 0.44059 0.96012 0.267 0.0
H2412 H 0.46433 0.02647 0.26061 0.0
H2413 H 0.43567 0.02829 0.24989 0.0
H2414 H 0.41378 0.97469 0.21084 0.0
H2415 H 0.44238 0.97294 0.2219 0.0
H2416 H 0.49105 0.03653 0.2218 0.0
H2417 H 0.48119 0.04189 0.18761 0.0
H2418 H 0.46568 0.98334 0.16547 0.0
H2419 H 0.47588 0.97815 0.19951 0.0
H2420 H 0.52893 0.03604 0.22532 0.0
H2421 H 0.55033 0.0412 0.19741 0.0
H2422 H 0.53206 0.97987 0.19306 0.0
H2423 H 0.51041 0.97463 0.22062 0.0
O2424 O 0.51396 0.98461 0.36989 0.0
O2425 O 0.4924 0.95373 0.3592 0.0
O2426 O 0.40313 0.0162 0.2295 0.0
O2427 O 0.39161 0.98908 0.20861 0.0
C2428 C 0.50598 0.99639 0.26011 0.0
C2429 C 0.49181 0.99266 0.27417 0.0
C2430 C 0.47528 0.99371 0.2682 0.0
C2431 C 0.47298 0.99875 0.24827 0.0
C2432 C 0.48721 0.00263 0.23426 0.0
C2433 C 0.50373 0.00144 0.24014 0.0
C2434 C 0.52279 0.9944 0.26648 0.0
C2435 C 0.5397 0.01055 0.276 0.0
C2436 C 0.55399 0.00792 0.28576 0.0
C2437 C 0.55158 0.98915 0.28582 0.0
C2438 C 0.53516 0.97318 0.27529 0.0
C2439 C 0.52076 0.97578 0.26581 0.0
C2440 C 0.49404 0.98708 0.29505 0.0
C2441 C 0.5066 0.00139 0.31046 0.0
C2442 C 0.50894 0.99611 0.33004 0.0
C2443 C 0.4987 0.97641 0.33452 0.0
C2444 C 0.486 0.96214 0.319 0.0
C2445 C 0.48371 0.96745 0.29943 0.0
C2446 C 0.45993 0.98873 0.28252 0.0
C2447 C 0.46241 0.00216 0.29884 0.0
C2448 C 0.44758 0.99766 0.31185 0.0
C2449 C 0.43022 0.97963 0.30872 0.0
C2450 C 0.42788 0.96607 0.29261 0.0
C2451 C 0.44265 0.97062 0.27954 0.0
C2452 C 0.45544 0.99963 0.24195 0.0
C2453 C 0.45328 0.01511 0.24981 0.0
C2454 C 0.43692 0.01613 0.24363 0.0
C2455 C 0.42245 0.00166 0.22944 0.0
C2456 C 0.42464 0.98609 0.22175 0.0
C2457 C 0.44098 0.98507 0.22799 0.0
C2458 C 0.48411 0.00695 0.21305 0.0
C2459 C 0.48594 0.02505 0.20942 0.0
C2460 C 0.48032 0.02808 0.19002 0.0
C2461 C 0.47257 0.01293 0.17417 0.0
C2462 C 0.4716 0.99516 0.17756 0.0
C2463 C 0.47743 0.99222 0.19688 0.0
C2464 C 0.51828 0.00499 0.22509 0.0
C2465 C 0.52977 0.02378 0.21854 0.0
C2466 C 0.54191 0.02672 0.20268 0.0
C2467 C 0.54275 0.01091 0.19331 0.0
C2468 C 0.53165 0.99223 0.20024 0.0
C2469 C 0.51943 0.98927 0.21599 0.0
C2470 C 0.50142 0.97082 0.35525 0.0
C2471 C 0.40518 0.00281 0.22259 0.0
H2472 H 0.51458 0.05799 0.69518 0.0
H2473 H 0.60835 0.977 0.8312 0.0
H2474 H 0.50304 0.04403 0.8036 0.0
H2475 H 0.47854 0.05168 0.79421 0.0
H2476 H 0.43512 0.99017 0.7926 0.0
H2477 H 0.46013 0.98301 0.80172 0.0
H2478 H 0.53516 0.04689 0.77853 0.0
H2479 H 0.53134 0.05698 0.74464 0.0
H2480 H 0.48004 0.00036 0.72936 0.0
H2481 H 0.4842 0.99037 0.76321 0.0
H2482 H 0.56493 0.03991 0.80195 0.0
H2483 H 0.59055 0.04682 0.77871 0.0
H2484 H 0.55073 0.99559 0.73905 0.0
H2485 H 0.52505 0.98857 0.76244 0.0
H2486 H 0.56158 0.0259 0.84498 0.0
H2487 H 0.58947 0.02209 0.85346 0.0
H2488 H 0.56492 0.9707 0.81043 0.0
H2489 H 0.537 0.97457 0.80228 0.0
H2490 H 0.5279 0.0224 0.8683 0.0
H2491 H 0.53809 0.016 0.90163 0.0
H2492 H 0.52331 0.95843 0.87667 0.0
H2493 H 0.51311 0.96486 0.84321 0.0
H2494 H 0.49703 0.02951 0.85027 0.0
H2495 H 0.47495 0.02414 0.87745 0.0
H2496 H 0.45136 0.96188 0.86751 0.0
H2497 H 0.47359 0.96727 0.84042 0.0
O2498 O 0.51584 0.05368 0.70848 0.0
O2499 O 0.48948 0.0244 0.70144 0.0
O2500 O 0.60917 0.00499 0.85054 0.0
O2501 O 0.59748 0.97885 0.82814 0.0
C2502 C 0.49889 0.00852 0.80854 0.0
C2503 C 0.51241 0.0117 0.7938 0.0
C2504 C 0.52823 0.00905 0.79864 0.0
C2505 C 0.53034 0.00282 0.818 0.0
C2506 C 0.51663 0.99927 0.83257 0.0
C2507 C 0.50089 0.00208 0.82783 0.0
C2508 C 0.48331 0.01306 0.80415 0.0
C2509 C 0.48803 0.03235 0.80201 0.0
C2510 C 0.47359 0.03674 0.79724 0.0
C2511 C 0.45371 0.02212 0.79552 0.0
C2512 C 0.44946 0.00252 0.79634 0.0
C2513 C 0.46396 0.99814 0.80105 0.0
C2514 C 0.51001 0.01788 0.77327 0.0
C2515 C 0.52318 0.03666 0.76779 0.0
C2516 C 0.52092 0.0424 0.74845 0.0
C2517 C 0.50539 0.02947 0.73427 0.0
C2518 C 0.49217 0.01067 0.73989 0.0
C2519 C 0.49449 0.00494 0.75922 0.0
C2520 C 0.54322 0.0137 0.78388 0.0
C2521 C 0.56171 0.03024 0.7882 0.0
C2522 C 0.57624 0.03419 0.77499 0.0
C2523 C 0.57242 0.02169 0.75727 0.0
C2524 C 0.55382 0.00538 0.75267 0.0
C2525 C 0.53926 0.0014 0.76593 0.0
C2526 C 0.54723 0.00043 0.82314 0.0
C2527 C 0.56221 0.01377 0.83751 0.0
C2528 C 0.57815 0.0116 0.84225 0.0
C2529 C 0.57941 0.99606 0.83264 0.0
C2530 C 0.56439 0.9828 0.81815 0.0
C2531 C 0.54844 0.98497 0.81345 0.0
C2532 C 0.51978 0.99409 0.85338 0.0
C2533 C 0.52642 0.00824 0.87015 0.0
C2534 C 0.53229 0.00463 0.88907 0.0
C2535 C 0.53157 0.98682 0.89146 0.0
C2536 C 0.52398 0.97225 0.87502 0.0
C2537 C 0.51817 0.9759 0.85603 0.0
C2538 C 0.48684 0.99877 0.84341 0.0
C2539 C 0.48698 0.01471 0.85384 0.0
C2540 C 0.47447 0.01166 0.86931 0.0
C2541 C 0.46163 0.99263 0.87445 0.0
C2542 C 0.46121 0.97665 0.86373 0.0
C2543 C 0.47383 0.97971 0.84835 0.0
C2544 C 0.50303 0.03562 0.71374 0.0
C2545 C 0.59627 0.99364 0.8377 0.0
H2546 H 0.9525 0.45004 0.70973 0.0
H2547 H 0.0276 0.63452 0.8545 0.0
H2548 H 0.97062 0.46075 0.82091 0.0
H2549 H 0.96573 0.42894 0.80777 0.0
H2550 H 0.02761 0.45375 0.80869 0.0
H2551 H 0.03249 0.4856 0.82209 0.0
H2552 H 0.96421 0.48677 0.79314 0.0
H2553 H 0.95371 0.47017 0.75845 0.0
H2554 H 0.01253 0.48483 0.74955 0.0
H2555 H 0.02285 0.50154 0.78421 0.0
H2556 H 0.96715 0.52031 0.81273 0.0
H2557 H 0.95848 0.53966 0.7911 0.0
H2558 H 0.01497 0.56633 0.7676 0.0
H2559 H 0.02359 0.54679 0.78919 0.0
H2560 H 0.98172 0.53747 0.85676 0.0
H2561 H 0.98298 0.56856 0.8647 0.0
H2562 H 0.03839 0.5991 0.83867 0.0
H2563 H 0.03692 0.56788 0.83086 0.0
H2564 H 0.98879 0.51217 0.88426 0.0
H2565 H 0.99452 0.53149 0.91709 0.0
H2566 H 0.05296 0.57161 0.90281 0.0
H2567 H 0.04707 0.55243 0.86973 0.0
H2568 H 0.98368 0.47036 0.86375 0.0
H2569 H 0.98903 0.45191 0.88977 0.0
H2570 H 0.05006 0.49474 0.89559 0.0
H2571 H 0.04476 0.51301 0.86911 0.0
O2572 O 0.95703 0.45699 0.72326 0.0
O2573 O 0.98747 0.46476 0.71953 0.0
O2574 O 0.99853 0.60571 0.8654 0.0
O2575 O 0.02679 0.62204 0.85167 0.0
C2576 C 0.0046 0.49496 0.82781 0.0
C2577 C 0.00045 0.5046 0.8125 0.0
C2578 C 0.00193 0.52273 0.8177 0.0
C2579 C 0.00816 0.53156 0.83797 0.0
C2580 C 0.01253 0.52205 0.85324 0.0
C2581 C 0.01056 0.50361 0.84823 0.0
C2582 C 0.00189 0.47539 0.82237 0.0
C2583 C 0.98311 0.45922 0.81861 0.0
C2584 C 0.98033 0.44117 0.81115 0.0
C2585 C 0.99632 0.43914 0.80725 0.0
C2586 C 0.01515 0.45513 0.81168 0.0
C2587 C 0.01792 0.47319 0.81931 0.0
C2588 C 0.9943 0.49548 0.79108 0.0
C2589 C 0.97483 0.48659 0.78356 0.0
C2590 C 0.96887 0.47703 0.76379 0.0
C2591 C 0.98228 0.47616 0.75122 0.0
C2592 C 0.00183 0.48525 0.75881 0.0
C2593 C 0.00777 0.49482 0.77857 0.0
C2594 C 0.99594 0.53216 0.80238 0.0
C2595 C 0.97747 0.52998 0.80254 0.0
C2596 C 0.97255 0.54096 0.79028 0.0
C2597 C 0.98611 0.55431 0.77784 0.0
C2598 C 0.00434 0.55597 0.77707 0.0
C2599 C 0.00923 0.54487 0.78928 0.0
C2600 C 0.00928 0.5505 0.84335 0.0
C2601 C 0.99416 0.55092 0.85291 0.0
C2602 C 0.99488 0.56868 0.85735 0.0
C2603 C 0.01079 0.58633 0.8523 0.0
C2604 C 0.02595 0.5858 0.84277 0.0
C2605 C 0.02517 0.56801 0.83832 0.0
C2606 C 0.01753 0.53094 0.87472 0.0
C2607 C 0.003 0.52479 0.8885 0.0
C2608 C 0.00623 0.53582 0.90711 0.0
C2609 C 0.02408 0.55303 0.91217 0.0
C2610 C 0.0391 0.55838 0.89907 0.0
C2611 C 0.03578 0.54745 0.88033 0.0
C2612 C 0.01385 0.49293 0.86447 0.0
C2613 C 0.99822 0.4757 0.87053 0.0
C2614 C 0.00125 0.46523 0.88534 0.0
C2615 C 0.01994 0.47195 0.89444 0.0
C2616 C 0.03557 0.48932 0.88861 0.0
C2617 C 0.03254 0.49974 0.87364 0.0
C2618 C 0.97583 0.46567 0.73038 0.0
C2619 C 0.01159 0.60522 0.85689 0.0
H2620 H 0.49009 0.4941 0.6889 0.0
H2621 H 0.63325 0.63363 0.85936 0.0
H2622 H 0.46637 0.50683 0.79238 0.0
H2623 H 0.43931 0.47475 0.77835 0.0
H2624 H 0.46343 0.44611 0.81305 0.0
H2625 H 0.4904 0.4781 0.82711 0.0
H2626 H 0.504 0.53769 0.76883 0.0
H2627 H 0.49757 0.52381 0.73306 0.0
H2628 H 0.50467 0.47634 0.75247 0.0
H2629 H 0.51122 0.49046 0.78813 0.0
H2630 H 0.54252 0.57585 0.79234 0.0
H2631 H 0.56913 0.59114 0.76959 0.0
H2632 H 0.57646 0.54097 0.77034 0.0
H2633 H 0.55014 0.52584 0.79328 0.0
H2634 H 0.53696 0.58421 0.84192 0.0
H2635 H 0.56699 0.61476 0.85285 0.0
H2636 H 0.59958 0.58559 0.84291 0.0
H2637 H 0.56944 0.55507 0.83241 0.0
H2638 H 0.50039 0.55351 0.86737 0.0
H2639 H 0.50845 0.56629 0.90386 0.0
H2640 H 0.55573 0.55495 0.90638 0.0
H2641 H 0.54737 0.54169 0.8703 0.0
H2642 H 0.46514 0.51593 0.84014 0.0
H2643 H 0.44131 0.49654 0.86442 0.0
H2644 H 0.4826 0.48388 0.89365 0.0
H2645 H 0.50633 0.50306 0.86933 0.0
O2646 O 0.49282 0.49942 0.70312 0.0
O2647 O 0.49623 0.47512 0.71397 0.0
O2648 O 0.6037 0.63595 0.86047 0.0
O2649 O 0.62115 0.62172 0.85522 0.0
C2650 C 0.49786 0.51385 0.81714 0.0
C2651 C 0.51166 0.52342 0.80275 0.0
C2652 C 0.52917 0.54083 0.80905 0.0
C2653 C 0.53272 0.54896 0.82966 0.0
C2654 C 0.51894 0.5393 0.8441 0.0
C2655 C 0.50151 0.52172 0.83782 0.0
C2656 C 0.48028 0.49472 0.81074 0.0
C2657 C 0.46559 0.49362 0.79723 0.0
C2658 C 0.45024 0.47542 0.78927 0.0
C2659 C 0.44953 0.45821 0.7947 0.0
C2660 C 0.46382 0.4593 0.80879 0.0
C2661 C 0.47909 0.47747 0.81682 0.0
C2662 C 0.50793 0.515 0.78105 0.0
C2663 C 0.50418 0.52431 0.7653 0.0
C2664 C 0.5005 0.51634 0.74489 0.0
C2665 C 0.50053 0.49892 0.73991 0.0
C2666 C 0.50448 0.48974 0.75577 0.0
C2667 C 0.50816 0.49773 0.77616 0.0
C2668 C 0.54441 0.54974 0.79439 0.0
C2669 C 0.5498 0.56814 0.78749 0.0
C2670 C 0.56487 0.57679 0.77455 0.0
C2671 C 0.5746 0.56708 0.76834 0.0
C2672 C 0.56899 0.54857 0.77494 0.0
C2673 C 0.55401 0.53997 0.78793 0.0
C2674 C 0.55103 0.56747 0.83624 0.0
C2675 C 0.5506 0.58445 0.84216 0.0
C2676 C 0.56778 0.60188 0.84837 0.0
C2677 C 0.58571 0.60263 0.84869 0.0
C2678 C 0.58605 0.58554 0.8428 0.0
C2679 C 0.56885 0.5681 0.83671 0.0
C2680 C 0.52345 0.54688 0.86614 0.0
C2681 C 0.51242 0.55371 0.87585 0.0
C2682 C 0.517 0.56099 0.89656 0.0
C2683 C 0.53279 0.56171 0.90764 0.0
C2684 C 0.54359 0.55463 0.89799 0.0
C2685 C 0.5389 0.54717 0.87744 0.0
C2686 C 0.48745 0.51092 0.85306 0.0
C2687 C 0.46905 0.50905 0.85186 0.0
C2688 C 0.45553 0.49807 0.86564 0.0
C2689 C 0.46029 0.48884 0.88071 0.0
C2690 C 0.47876 0.49095 0.88209 0.0
C2691 C 0.49225 0.50189 0.86832 0.0
C2692 C 0.49642 0.49038 0.71826 0.0
C2693 C 0.604 0.62113 0.85516 0.0
H2694 H 0.65328 0.84676 0.70685 0.0
H2695 H 0.6558 0.7075 0.53963 0.0
H2696 H 0.62052 0.83747 0.59993 0.0
H2697 H 0.62791 0.87045 0.61259 0.0
H2698 H 0.68094 0.89568 0.58207 0.0
H2699 H 0.67368 0.86284 0.5696 0.0
H2700 H 0.62331 0.80436 0.62552 0.0
H2701 H 0.63067 0.81795 0.66145 0.0
H2702 H 0.68733 0.86303 0.64676 0.0
H2703 H 0.67983 0.8492 0.61094 0.0
H2704 H 0.6216 0.76585 0.60547 0.0
H2705 H 0.63162 0.7473 0.62692 0.0
H2706 H 0.69127 0.7932 0.62676 0.0
H2707 H 0.68125 0.81178 0.60563 0.0
H2708 H 0.60989 0.75703 0.55539 0.0
H2709 H 0.60877 0.72643 0.54482 0.0
H2710 H 0.67105 0.75551 0.55602 0.0
H2711 H 0.67196 0.786 0.56643 0.0
H2712 H 0.60717 0.78426 0.5248 0.0
H2713 H 0.60497 0.76859 0.49035 0.0
H2714 H 0.66637 0.7901 0.49689 0.0
H2715 H 0.66857 0.80583 0.53099 0.0
H2716 H 0.60965 0.82637 0.54936 0.0
H2717 H 0.607 0.84676 0.52359 0.0
H2718 H 0.66303 0.86101 0.50405 0.0
H2719 H 0.6657 0.84071 0.52974 0.0
O2720 O 0.65072 0.84154 0.69261 0.0
O2721 O 0.67956 0.86458 0.68417 0.0
O2722 O 0.62391 0.70533 0.53737 0.0
O2723 O 0.65581 0.71939 0.54374 0.0
C2724 C 0.64356 0.82813 0.57833 0.0
C2725 C 0.64633 0.81772 0.59382 0.0
C2726 C 0.64539 0.79983 0.58845 0.0
C2727 C 0.64159 0.79228 0.56766 0.0
C2728 C 0.6392 0.80285 0.55216 0.0
C2729 C 0.63992 0.82064 0.55749 0.0
C2730 C 0.64654 0.84783 0.5838 0.0
C2731 C 0.63354 0.85015 0.59569 0.0
C2732 C 0.63772 0.86885 0.60286 0.0
C2733 C 0.65493 0.88533 0.59818 0.0
C2734 C 0.66756 0.88305 0.58569 0.0
C2735 C 0.66339 0.8644 0.57855 0.0
C2736 C 0.65098 0.82589 0.61564 0.0
C2737 C 0.63731 0.81715 0.63013 0.0
C2738 C 0.64155 0.82495 0.65062 0.0
C2739 C 0.65957 0.84162 0.65697 0.0
C2740 C 0.6733 0.85021 0.64239 0.0
C2741 C 0.66904 0.84239 0.62191 0.0
C2742 C 0.65072 0.79011 0.60408 0.0
C2743 C 0.63675 0.77208 0.61053 0.0
C2744 C 0.64245 0.76155 0.62268 0.0
C2745 C 0.66217 0.7689 0.62823 0.0
C2746 C 0.67601 0.78737 0.62261 0.0
C2747 C 0.6703 0.79794 0.61065 0.0
C2748 C 0.64097 0.77363 0.56185 0.0
C2749 C 0.62325 0.75671 0.55563 0.0
C2750 C 0.62266 0.73928 0.54958 0.0
C2751 C 0.63983 0.73852 0.54963 0.0
C2752 C 0.65757 0.75557 0.55584 0.0
C2753 C 0.65813 0.77298 0.5619 0.0
C2754 C 0.63801 0.79607 0.53031 0.0
C2755 C 0.62017 0.78593 0.51854 0.0
C2756 C 0.61891 0.77699 0.49904 0.0
C2757 C 0.6355 0.77811 0.4913 0.0
C2758 C 0.65345 0.78907 0.50269 0.0
C2759 C 0.6547 0.79803 0.52205 0.0
C2760 C 0.63778 0.83196 0.54123 0.0
C2761 C 0.62125 0.83376 0.53937 0.0
C2762 C 0.61975 0.84534 0.52478 0.0
C2763 C 0.63483 0.85528 0.51203 0.0
C2764 C 0.65127 0.85336 0.51378 0.0
C2765 C 0.65274 0.84175 0.5283 0.0
C2766 C 0.66396 0.84999 0.6787 0.0
C2767 C 0.63929 0.72005 0.54319 0.0
H2768 H 0.1689 0.86243 0.70959 0.0
H2769 H 0.0489 0.68932 0.55394 0.0
H2770 H 0.17513 0.85796 0.59716 0.0
H2771 H 0.20362 0.88945 0.60969 0.0
H2772 H 0.23877 0.86246 0.61042 0.0
H2773 H 0.21019 0.8309 0.59752 0.0
H2774 H 0.14207 0.83111 0.62394 0.0
H2775 H 0.1491 0.8457 0.65945 0.0
H2776 H 0.19287 0.82964 0.66878 0.0
H2777 H 0.18548 0.81485 0.63333 0.0
H2778 H 0.10862 0.79766 0.59788 0.0
H2779 H 0.08217 0.78165 0.62053 0.0
H2780 H 0.1137 0.75874 0.65254 0.0
H2781 H 0.14029 0.77488 0.62985 0.0
H2782 H 0.10825 0.78556 0.55251 0.0
H2783 H 0.07731 0.75605 0.54151 0.0
H2784 H 0.09499 0.72181 0.57614 0.0
H2785 H 0.12597 0.75142 0.58681 0.0
H2786 H 0.14369 0.81487 0.53185 0.0
H2787 H 0.13209 0.80121 0.49611 0.0
H2788 H 0.13767 0.75141 0.50874 0.0
H2789 H 0.1494 0.76515 0.54462 0.0
H2790 H 0.17691 0.84939 0.55365 0.0
H2791 H 0.19989 0.86704 0.52809 0.0
H2792 H 0.21657 0.82319 0.52526 0.0
H2793 H 0.19351 0.80546 0.55093 0.0
O2794 O 0.1662 0.85638 0.69567 0.0
O2795 O 0.18868 0.84799 0.6996 0.0
O2796 O 0.05287 0.71938 0.53998 0.0
O2797 O 0.06104 0.70121 0.55801 0.0
C2798 C 0.17314 0.82317 0.59009 0.0
C2799 C 0.15931 0.81349 0.6044 0.0
C2800 C 0.14168 0.79633 0.59784 0.0
C2801 C 0.1381 0.78854 0.57713 0.0
C2802 C 0.15203 0.79818 0.56285 0.0
C2803 C 0.16954 0.81553 0.56935 0.0
C2804 C 0.19067 0.84224 0.59655 0.0
C2805 C 0.18901 0.8589 0.59985 0.0
C2806 C 0.20519 0.87678 0.60692 0.0
C2807 C 0.2232 0.87818 0.61094 0.0
C2808 C 0.22496 0.86158 0.60731 0.0
C2809 C 0.20875 0.84369 0.60001 0.0
C2810 C 0.16316 0.8218 0.62615 0.0
C2811 C 0.15302 0.83058 0.63376 0.0
C2812 C 0.15713 0.83899 0.65401 0.0
C2813 C 0.17155 0.83885 0.66696 0.0
C2814 C 0.18167 0.82999 0.65923 0.0
C2815 C 0.17748 0.82153 0.63901 0.0
C2816 C 0.12626 0.78731 0.61222 0.0
C2817 C 0.10987 0.78928 0.60985 0.0
C2818 C 0.09488 0.78025 0.62275 0.0
C2819 C 0.09612 0.76912 0.63812 0.0
C2820 C 0.11263 0.76737 0.64075 0.0
C2821 C 0.1277 0.7765 0.62788 0.0
C2822 C 0.11939 0.77058 0.5703 0.0
C2823 C 0.10546 0.77165 0.55756 0.0
C2824 C 0.08778 0.75478 0.55138 0.0
C2825 C 0.08369 0.73655 0.55792 0.0
C2826 C 0.09768 0.7356 0.57078 0.0
C2827 C 0.11538 0.75247 0.57691 0.0
C2828 C 0.14742 0.79101 0.54076 0.0
C2829 C 0.14287 0.80125 0.5268 0.0
C2830 C 0.13623 0.79348 0.5065 0.0
C2831 C 0.13411 0.77539 0.49993 0.0
C2832 C 0.13938 0.76546 0.51362 0.0
C2833 C 0.146 0.77324 0.53398 0.0
C2834 C 0.18368 0.82625 0.55418 0.0
C2835 C 0.18562 0.84367 0.54763 0.0
C2836 C 0.19862 0.85366 0.53308 0.0
C2837 C 0.20985 0.84636 0.52493 0.0
C2838 C 0.208 0.82899 0.5315 0.0
C2839 C 0.19491 0.81893 0.54604 0.0
C2840 C 0.17605 0.84798 0.68839 0.0
C2841 C 0.06493 0.71859 0.55139 0.0
H2842 H 0.19003 0.32969 0.71805 0.0
H2843 H 0.06262 0.34995 0.53556 0.0
H2844 H 0.21951 0.37232 0.60676 0.0
H2845 H 0.24363 0.36573 0.62333 0.0
H2846 H 0.20261 0.30379 0.6149 0.0
H2847 H 0.17856 0.31038 0.59847 0.0
H2848 H 0.19301 0.36553 0.64105 0.0
H2849 H 0.19601 0.35601 0.67553 0.0
H2850 H 0.14837 0.29754 0.65787 0.0
H2851 H 0.14563 0.30724 0.6234 0.0
H2852 H 0.15277 0.36487 0.6384 0.0
H2853 H 0.12661 0.35526 0.66172 0.0
H2854 H 0.0893 0.30437 0.62038 0.0
H2855 H 0.11545 0.31379 0.59729 0.0
H2856 H 0.1439 0.37979 0.59528 0.0
H2857 H 0.11706 0.38437 0.58381 0.0
H2858 H 0.09302 0.33136 0.54331 0.0
H2859 H 0.11981 0.32687 0.55507 0.0
H2860 H 0.17012 0.38781 0.55493 0.0
H2861 H 0.16124 0.39284 0.52007 0.0
H2862 H 0.14372 0.33325 0.50006 0.0
H2863 H 0.15293 0.32839 0.53469 0.0
H2864 H 0.20674 0.38442 0.55881 0.0
H2865 H 0.22706 0.38705 0.53052 0.0
H2866 H 0.20564 0.32509 0.52905 0.0
H2867 H 0.18509 0.32239 0.55703 0.0
O2868 O 0.18843 0.3332 0.7044 0.0
O2869 O 0.16347 0.30353 0.69478 0.0
O2870 O 0.08577 0.37509 0.56225 0.0
O2871 O 0.07322 0.34834 0.54062 0.0
C2872 C 0.18174 0.34567 0.59498 0.0
C2873 C 0.1676 0.34288 0.60878 0.0
C2874 C 0.15181 0.34512 0.60245 0.0
C2875 C 0.15044 0.35069 0.58251 0.0
C2876 C 0.16467 0.35365 0.56877 0.0
C2877 C 0.18033 0.35112 0.57498 0.0
C2878 C 0.19736 0.34181 0.60145 0.0
C2879 C 0.21594 0.35734 0.60803 0.0
C2880 C 0.2296 0.3536 0.61751 0.0
C2881 C 0.22478 0.33429 0.62034 0.0
C2882 C 0.20653 0.31875 0.61279 0.0
C2883 C 0.19289 0.32249 0.60341 0.0
C2884 C 0.1691 0.33708 0.62978 0.0
C2885 C 0.18324 0.35068 0.64468 0.0
C2886 C 0.18489 0.34521 0.66436 0.0
C2887 C 0.17244 0.32601 0.66945 0.0
C2888 C 0.1582 0.31244 0.65446 0.0
C2889 C 0.15657 0.31794 0.63478 0.0
C2890 C 0.13592 0.34008 0.61613 0.0
C2891 C 0.13893 0.3517 0.63438 0.0
C2892 C 0.12411 0.34623 0.64763 0.0
C2893 C 0.10613 0.32913 0.64268 0.0
C2894 C 0.10311 0.3176 0.62438 0.0
C2895 C 0.11793 0.32302 0.61121 0.0
C2896 C 0.13386 0.3531 0.57588 0.0
C2897 C 0.13278 0.36916 0.58399 0.0
C2898 C 0.11746 0.37175 0.57739 0.0
C2899 C 0.10294 0.35827 0.56256 0.0
C2900 C 0.10398 0.34204 0.55469 0.0
C2901 C 0.11929 0.33947 0.56133 0.0
C2902 C 0.16208 0.35772 0.54727 0.0
C2903 C 0.16477 0.37601 0.54288 0.0
C2904 C 0.15973 0.37886 0.52309 0.0
C2905 C 0.15164 0.36332 0.50764 0.0
C2906 C 0.14987 0.34536 0.51182 0.0
C2907 C 0.15514 0.3426 0.5315 0.0
C2908 C 0.19455 0.35323 0.56003 0.0
C2909 C 0.20669 0.37148 0.55261 0.0
C2910 C 0.21823 0.37299 0.53654 0.0
C2911 C 0.2178 0.35626 0.52782 0.0
C2912 C 0.20618 0.33814 0.53572 0.0
C2913 C 0.19459 0.33663 0.5517 0.0
C2914 C 0.17443 0.32017 0.69028 0.0
C2915 C 0.08682 0.36113 0.55521 0.0
C2916 C 0.96853 0.4044 0.12343 0.0
C2917 C 0.97413 0.41257 0.10434 0.0
C2918 C 0.976 0.44279 0.11816 0.0
C2919 C 0.97349 0.43577 0.138 0.0
N2920 N 0.96837 0.41039 0.16017 0.0
N2921 N 0.98397 0.43966 0.08325 0.0
C2922 C 0.96974 0.41658 0.14079 0.0
C2923 C 0.97781 0.43172 0.1015 0.0
N2924 N 0.962 0.38497 0.12484 0.0
N2925 N 0.9766 0.46003 0.11534 0.0
H2926 H 0.98509 0.43186 0.07057 0.0
H2927 H 0.98909 0.4543 0.081 0.0
H2928 H 0.97537 0.46843 0.12735 0.0
H2929 H 0.9766 0.46514 0.10094 0.0
H2930 H 0.95594 0.37766 0.13778 0.0
H2931 H 0.96101 0.37571 0.11234 0.0
H2932 H 0.96812 0.39758 0.16352 0.0
H2933 H 0.96871 0.41868 0.17325 0.0
C2934 C 0.57444 0.52239 0.13552 0.0
C2935 C 0.58954 0.54168 0.14177 0.0
C2936 C 0.58008 0.53679 0.17707 0.0
C2937 C 0.5621 0.52027 0.16948 0.0
N2938 N 0.54255 0.49607 0.14153 0.0
N2939 N 0.61364 0.5571 0.1703 0.0
C2940 C 0.55946 0.51249 0.14876 0.0
C2941 C 0.59462 0.54621 0.16323 0.0
N2942 N 0.57599 0.51263 0.11861 0.0
N2943 N 0.58319 0.54373 0.19728 0.0
H2944 H 0.62462 0.56148 0.16023 0.0
H2945 H 0.61839 0.55943 0.18586 0.0
H2946 H 0.57313 0.53684 0.20809 0.0
H2947 H 0.59533 0.55696 0.20292 0.0
H2948 H 0.56625 0.49789 0.11433 0.0
H2949 H 0.58852 0.51877 0.11067 0.0
H2950 H 0.53931 0.49109 0.12597 0.0
H2951 H 0.5313 0.48822 0.15084 0.0
C2952 C 0.43882 0.01808 0.13545 0.0
C2953 C 0.44606 0.01585 0.11669 0.0
C2954 C 0.47284 0.01551 0.13594 0.0
C2955 C 0.46404 0.01502 0.15448 0.0
N2956 N 0.43684 0.01257 0.17162 0.0
N2957 N 0.46857 0.00996 0.09872 0.0
C2958 C 0.44657 0.01552 0.15421 0.0
C2959 C 0.46279 0.01401 0.1168 0.0
N2960 N 0.42474 0.023 0.13536 0.0
N2961 N 0.49093 0.01778 0.13667 0.0
H2962 H 0.46158 0.0087 0.08439 0.0
H2963 H 0.47933 0.0063 0.09803 0.0
H2964 H 0.49873 0.01906 0.15047 0.0
H2965 H 0.49889 0.02015 0.12384 0.0
H2966 H 0.42028 0.02674 0.14873 0.0
H2967 H 0.41884 0.02521 0.12188 0.0
H2968 H 0.42298 0.01061 0.17171 0.0
H2969 H 0.44178 0.01027 0.18567 0.0
C2970 C 0.44052 0.98091 0.92659 0.0
C2971 C 0.42682 0.98717 0.92486 0.0
C2972 C 0.43338 0.9932 0.88878 0.0
C2973 C 0.44893 0.9896 0.89145 0.0
N2974 N 0.46914 0.98256 0.91371 0.0
N2975 N 0.41176 0.00165 0.9052 0.0
C2976 C 0.45295 0.98401 0.91054 0.0
C2977 C 0.42354 0.99384 0.90614 0.0
N2978 N 0.44142 0.97172 0.94343 0.0
N2979 N 0.42782 0.99567 0.86957 0.0
H2980 H 0.40433 0.00248 0.91758 0.0
H2981 H 0.41058 0.00877 0.89271 0.0
H2982 H 0.43469 0.99523 0.85649 0.0
H2983 H 0.41536 0.99637 0.86629 0.0
H2984 H 0.44977 0.9651 0.94462 0.0
H2985 H 0.43239 0.96907 0.9554 0.0
H2986 H 0.47395 0.98069 0.92804 0.0
H2987 H 0.47874 0.9849 0.90242 0.0
C2988 C 0.01515 0.4471 0.94382 0.0
C2989 C 0.0256 0.43733 0.93999 0.0
C2990 C 0.03189 0.44976 0.9058 0.0
C2991 C 0.02289 0.46083 0.91042 0.0
N2992 N 0.00969 0.47337 0.93539 0.0
N2993 N 0.04698 0.43221 0.91908 0.0
C2994 C 0.01568 0.46053 0.92995 0.0
C2995 C 0.03491 0.43952 0.92147 0.0
N2996 N 0.00392 0.44283 0.96014 0.0
N2997 N 0.03685 0.4484 0.88625 0.0
H2998 H 0.04961 0.42474 0.93031 0.0
H2999 H 0.05569 0.43505 0.90682 0.0
H3000 H 0.03484 0.45565 0.87434 0.0
H3001 H 0.04147 0.43882 0.88141 0.0
H3002 H 0.99438 0.44793 0.96236 0.0
H3003 H 0.00267 0.43267 0.97041 0.0
H3004 H 0.00618 0.47519 0.95022 0.0
H3005 H 0.01 0.48356 0.92566 0.0
C3006 C 0.54632 0.56494 0.96446 0.0
C3007 C 0.55584 0.58545 0.96954 0.0
C3008 C 0.54815 0.59038 0.93436 0.0
C3009 C 0.53835 0.56986 0.92944 0.0
N3010 N 0.5234 0.53742 0.94096 0.0
N3011 N 0.56126 0.61696 0.96127 0.0
C3012 C 0.53583 0.55708 0.94495 0.0
C3013 C 0.55519 0.59793 0.95509 0.0
N3014 N 0.5483 0.55309 0.97765 0.0
N3015 N 0.55172 0.60272 0.91912 0.0
H3016 H 0.56631 0.62282 0.97644 0.0
H3017 H 0.5595 0.62632 0.95194 0.0
H3018 H 0.54682 0.59781 0.90372 0.0
H3019 H 0.56076 0.61783 0.92147 0.0
H3020 H 0.54354 0.53841 0.97368 0.0
H3021 H 0.55607 0.55819 0.992 0.0
H3022 H 0.51954 0.52754 0.95224 0.0
H3023 H 0.51544 0.53128 0.92679 0.0
C3024 C 0.02764 0.5961 0.9446 0.0
C3025 C 0.02527 0.58892 0.96436 0.0
C3026 C 0.02675 0.5605 0.9504 0.0
C3027 C 0.02623 0.56626 0.93026 0.0
N3028 N 0.02371 0.58831 0.90775 0.0
N3029 N 0.02068 0.56342 0.98611 0.0
C3030 C 0.02619 0.58384 0.92721 0.0
C3031 C 0.0245 0.57095 0.96735 0.0
N3032 N 0.03146 0.61474 0.94252 0.0
N3033 N 0.02963 0.54519 0.95329 0.0
H3034 H 0.01905 0.57067 0.99895 0.0
H3035 H 0.01772 0.54936 0.98861 0.0
H3036 H 0.03135 0.53728 0.94114 0.0
H3037 H 0.03205 0.54147 0.96775 0.0
H3038 H 0.03525 0.6215 0.92882 0.0
H3039 H 0.03266 0.62413 0.955 0.0
H3040 H 0.02127 0.59969 0.90473 0.0
H3041 H 0.02246 0.57972 0.89453 0.0
C3042 C 0.41814 0.44502 0.90196 0.0
C3043 C 0.42143 0.45154 0.92315 0.0
C3044 C 0.44743 0.48387 0.91556 0.0
C3045 C 0.44584 0.47649 0.89488 0.0
N3046 N 0.4309 0.4498 0.86835 0.0
N3047 N 0.43954 0.47656 0.95075 0.0
C3048 C 0.43138 0.45705 0.88797 0.0
C3049 C 0.43605 0.47089 0.93013 0.0
N3050 N 0.40228 0.42736 0.89527 0.0
N3051 N 0.45966 0.50333 0.92115 0.0
H3052 H 0.43108 0.46767 0.9618 0.0
H3053 H 0.45145 0.48961 0.95709 0.0
H3054 H 0.46829 0.51318 0.91085 0.0
H3055 H 0.46016 0.51006 0.93545 0.0
H3056 H 0.39795 0.42256 0.87978 0.0
H3057 H 0.39242 0.41814 0.90521 0.0
H3058 H 0.42218 0.43513 0.86308 0.0
H3059 H 0.44025 0.4582 0.85758 0.0
C3060 C 0.54049 0.98341 0.94836 0.0
C3061 C 0.55862 0.98427 0.94863 0.0
C3062 C 0.55856 0.98573 0.9112 0.0
C3063 C 0.54011 0.98418 0.91082 0.0
N3064 N 0.51161 0.97727 0.92801 0.0
N3065 N 0.58276 0.98164 0.93026 0.0
C3066 C 0.53046 0.98165 0.92912 0.0
C3067 C 0.56695 0.98394 0.92999 0.0
N3068 N 0.53328 0.98515 0.96645 0.0
N3069 N 0.56851 0.98989 0.89388 0.0
H3070 H 0.58923 0.98023 0.94379 0.0
H3071 H 0.58834 0.97931 0.91699 0.0
H3072 H 0.5629 0.99126 0.87976 0.0
H3073 H 0.58291 0.99347 0.89383 0.0
H3074 H 0.52129 0.98689 0.96724 0.0
H3075 H 0.54011 0.98626 0.98085 0.0
H3076 H 0.50314 0.9734 0.94052 0.0
H3077 H 0.50388 0.97577 0.91409 0.0
C3078 C 0.55546 0.00569 0.13888 0.0
C3079 C 0.57602 0.01623 0.14143 0.0
C3080 C 0.57486 0.02292 0.1783 0.0
C3081 C 0.55439 0.01359 0.17539 0.0
N3082 N 0.5255 -0.0 0.15229 0.0
N3083 N 0.60541 0.03806 0.16248 0.0
C3084 C 0.54478 0.00618 0.15546 0.0
C3085 C 0.58577 0.02582 0.16085 0.0
N3086 N 0.5461 0.99445 0.12098 0.0
N3087 N 0.58382 0.02838 0.19777 0.0
H3088 H 0.61382 0.04062 0.14996 0.0
H3089 H 0.61312 0.047 0.17573 0.0
H3090 H 0.57631 0.02657 0.21092 0.0
H3091 H 0.59845 0.03326 0.20102 0.0
H3092 H 0.5312 0.9848 0.11915 0.0
H3093 H 0.55333 0.99336 0.10853 0.0
H3094 H 0.5182 0.99643 0.13771 0.0
H3095 H 0.51717 0.00019 0.16406 0.0
C3096 C 0.98231 0.57329 0.15239 0.0
C3097 C 0.97328 0.56515 0.13234 0.0
C3098 C 0.96494 0.53241 0.14152 0.0
C3099 C 0.97411 0.54057 0.1615 0.0
N3100 N 0.98815 0.56764 0.18754 0.0
N3101 N 0.95275 0.53707 0.10878 0.0
C3102 C 0.98165 0.56068 0.16745 0.0
C3103 C 0.96349 0.54468 0.12724 0.0
N3104 N 0.99229 0.59315 0.15667 0.0
N3105 N 0.9583 0.5131 0.13601 0.0
H3106 H 0.95158 0.54577 0.09799 0.0
H3107 H 0.9438 0.52217 0.10476 0.0
H3108 H 0.95851 0.50357 0.14633 0.0
H3109 H 0.95351 0.50669 0.12103 0.0
H3110 H 0.00121 0.60021 0.17007 0.0
H3111 H 0.99255 0.60282 0.14625 0.0
H3112 H 0.99197 0.58165 0.19341 0.0
H3113 H 0.98841 0.55891 0.19884 0.0
C3114 C 0.45961 0.42326 0.10153 0.0
C3115 C 0.43962 0.40891 0.10021 0.0
C3116 C 0.43961 0.41074 0.1378 0.0
C3117 C 0.45959 0.42521 0.13915 0.0
N3118 N 0.48962 0.44248 0.12321 0.0
N3119 N 0.41151 0.38583 0.1165 0.0
C3120 C 0.46993 0.43056 0.12124 0.0
C3121 C 0.42995 0.40156 0.11821 0.0
N3122 N 0.46849 0.43033 0.08393 0.0
N3123 N 0.42964 0.40656 0.15511 0.0
H3124 H 0.40383 0.37907 0.10236 0.0
H3125 H 0.40436 0.37845 0.12898 0.0
H3126 H 0.43624 0.41265 0.16982 0.0
H3127 H 0.41464 0.39802 0.15488 0.0
H3128 H 0.48237 0.44236 0.08379 0.0
H3129 H 0.46154 0.42467 0.06924 0.0
H3130 H 0.49835 0.44564 0.11096 0.0
H3131 H 0.49749 0.44805 0.1375 0.0
C3132 C 0.62723 0.73617 0.45337 0.0
C3133 C 0.63793 0.74683 0.43712 0.0
C3134 C 0.64231 0.77707 0.45435 0.0
C3135 C 0.63423 0.76689 0.47188 0.0
N3136 N 0.62096 0.73714 0.48926 0.0
N3137 N 0.65768 0.77781 0.42299 0.0
C3138 C 0.62703 0.74649 0.47168 0.0
C3139 C 0.64587 0.76739 0.4377 0.0
N3140 N 0.61706 0.71619 0.45116 0.0
N3141 N 0.64646 0.79596 0.45363 0.0
H3142 H 0.66086 0.77134 0.41063 0.0
H3143 H 0.66561 0.79303 0.42391 0.0
H3144 H 0.64398 0.80341 0.46564 0.0
H3145 H 0.65062 0.80357 0.44049 0.0
H3146 H 0.60747 0.70764 0.46163 0.0
H3147 H 0.61682 0.70818 0.43786 0.0
H3148 H 0.61779 0.72284 0.49068 0.0
H3149 H 0.62049 0.7441 0.50301 0.0
C3150 C 0.22777 0.86631 0.47375 0.0
C3151 C 0.24728 0.88076 0.47989 0.0
C3152 C 0.2427 0.87167 0.51546 0.0
C3153 C 0.22332 0.85699 0.50921 0.0
N3154 N 0.19842 0.83747 0.48218 0.0
N3155 N 0.27457 0.89481 0.50518 0.0
C3156 C 0.2162 0.85337 0.48823 0.0
C3157 C 0.25514 0.88267 0.50035 0.0
N3158 N 0.22003 0.86558 0.45438 0.0
N3159 N 0.24895 0.87551 0.5359 0.0
H3160 H 0.28403 0.90308 0.49442 0.0
H3161 H 0.2816 0.89549 0.51926 0.0
H3162 H 0.24045 0.86727 0.54731 0.0
H3163 H 0.2621 0.88752 0.54177 0.0
H3164 H 0.20534 0.85698 0.44975 0.0
H3165 H 0.22807 0.87463 0.44321 0.0
H3166 H 0.19322 0.8328 0.46683 0.0
H3167 H 0.18941 0.82791 0.49247 0.0
C3168 C 0.14191 0.36129 0.44981 0.0
C3169 C 0.12502 0.36284 0.44883 0.0
C3170 C 0.12626 0.36602 0.48646 0.0
C3171 C 0.14354 0.36514 0.48751 0.0
N3172 N 0.17027 0.36655 0.47056 0.0
N3173 N 0.10417 0.37187 0.46569 0.0
C3174 C 0.15218 0.36428 0.46925 0.0
C3175 C 0.11824 0.36696 0.46703 0.0
N3176 N 0.14761 0.35605 0.43235 0.0
N3177 N 0.11683 0.36478 0.50381 0.0
H3178 H 0.09808 0.37281 0.45163 0.0
H3179 H 0.09997 0.37688 0.47839 0.0
H3180 H 0.12196 0.36376 0.51838 0.0
H3181 H 0.10305 0.36305 0.50353 0.0
H3182 H 0.15846 0.35249 0.43245 0.0
H3183 H 0.14058 0.35392 0.41781 0.0
H3184 H 0.17811 0.36785 0.45782 0.0
H3185 H 0.17819 0.36894 0.4846 0.0
C3186 C 0.10219 0.30049 0.25787 0.0
C3187 C 0.09371 0.31241 0.25932 0.0
C3188 C 0.10272 0.32237 0.22464 0.0
C3189 C 0.11342 0.31258 0.22437 0.0
N3190 N 0.1262 0.29513 0.24241 0.0
N3191 N 0.08915 0.3377 0.24568 0.0
C3192 C 0.1139 0.30233 0.24142 0.0
C3193 C 0.0948 0.32415 0.24311 0.0
N3194 N 0.09872 0.28712 0.27194 0.0
N3195 N 0.09975 0.32959 0.20712 0.0
H3196 H 0.08379 0.33994 0.25919 0.0
H3197 H 0.09156 0.34803 0.23519 0.0
H3198 H 0.10506 0.32825 0.19318 0.0
H3199 H 0.09045 0.33513 0.20591 0.0
H3200 H 0.10294 0.2767 0.27044 0.0
H3201 H 0.08999 0.28518 0.28405 0.0
H3202 H 0.12863 0.28939 0.25548 0.0
H3203 H 0.13538 0.29653 0.23093 0.0
C3204 C 0.69799 0.79264 0.27971 0.0
C3205 C 0.70066 0.77675 0.27381 0.0
C3206 C 0.70471 0.7862 0.23835 0.0
C3207 C 0.70255 0.80236 0.2444 0.0
N3208 N 0.70117 0.82349 0.27122 0.0
N3209 N 0.71049 0.76061 0.24903 0.0
C3210 C 0.70055 0.80642 0.26526 0.0
C3211 C 0.70528 0.77424 0.25356 0.0
N3212 N 0.69202 0.79399 0.29874 0.0
N3213 N 0.70547 0.78187 0.21797 0.0
H3214 H 0.71108 0.75166 0.2599 0.0
H3215 H 0.71584 0.7593 0.23515 0.0
H3216 H 0.70564 0.79062 0.20646 0.0
H3217 H 0.70467 0.76899 0.21227 0.0
H3218 H 0.68762 0.80386 0.30306 0.0
H3219 H 0.69007 0.78429 0.30986 0.0
H3220 H 0.70183 0.82829 0.28654 0.0
H3221 H 0.70269 0.83374 0.26093 0.0
C3222 C 0.21075 0.90141 0.301 0.0
C3223 C 0.22654 0.92088 0.30443 0.0
C3224 C 0.22429 0.92588 0.26789 0.0
C3225 C 0.20872 0.90631 0.26439 0.0
N3226 N 0.18425 0.87681 0.27757 0.0
N3227 N 0.24552 0.95303 0.29276 0.0
C3228 C 0.20096 0.89453 0.28101 0.0
C3229 C 0.23235 0.93359 0.28835 0.0
N3230 N 0.20576 0.88926 0.31661 0.0
N3231 N 0.2319 0.93677 0.25154 0.0
H3232 H 0.25171 0.95904 0.30763 0.0
H3233 H 0.24911 0.96348 0.28216 0.0
H3234 H 0.22595 0.93185 0.2364 0.0
H3235 H 0.24472 0.95023 0.25274 0.0
H3236 H 0.19596 0.8743 0.31458 0.0
H3237 H 0.21225 0.89399 0.33159 0.0
H3238 H 0.17677 0.86824 0.28926 0.0
H3239 H 0.17695 0.87132 0.26301 0.0
C3240 C 0.69392 0.92651 0.27969 0.0
C3241 C 0.70148 0.92529 0.29931 0.0
C3242 C 0.71269 0.90439 0.2837 0.0
C3243 C 0.70583 0.90631 0.26406 0.0
N3244 N 0.69395 0.92254 0.24265 0.0
N3245 N 0.72115 0.91639 0.31979 0.0
C3246 C 0.69779 0.91851 0.26185 0.0
C3247 C 0.71184 0.91523 0.30125 0.0
N3248 N 0.68216 0.93433 0.27817 0.0
N3249 N 0.71948 0.89178 0.28559 0.0
H3250 H 0.7208 0.92426 0.3329 0.0
H3251 H 0.73047 0.91096 0.32182 0.0
H3252 H 0.72088 0.88414 0.27293 0.0
H3253 H 0.72263 0.88799 0.29969 0.0
H3254 H 0.67444 0.93352 0.26454 0.0
H3255 H 0.67871 0.94018 0.29084 0.0
H3256 H 0.69003 0.93297 0.24007 0.0
H3257 H 0.69642 0.91676 0.2292 0.0
C3258 C 0.10649 0.80828 0.26695 0.0
C3259 C 0.0899 0.78998 0.26018 0.0
C3260 C 0.09775 0.79545 0.22432 0.0
C3261 C 0.11398 0.81402 0.23105 0.0
N3262 N 0.13141 0.84006 0.25786 0.0
N3263 N 0.06725 0.76797 0.23257 0.0
C3264 C 0.11757 0.82106 0.25212 0.0
C3265 C 0.08473 0.78417 0.23886 0.0
N3266 N 0.11218 0.81304 0.28749 0.0
N3267 N 0.0953 0.7882 0.20427 0.0
H3268 H 0.05739 0.7594 0.24288 0.0
H3269 H 0.06177 0.76403 0.21724 0.0
H3270 H 0.10448 0.79602 0.1931 0.0
H3271 H 0.08504 0.77388 0.19897 0.0
H3272 H 0.12537 0.82509 0.29321 0.0
H3273 H 0.10439 0.80417 0.29888 0.0
H3274 H 0.13346 0.84664 0.27268 0.0
H3275 H 0.13974 0.84982 0.24733 0.0
C3276 C 0.22588 0.30212 0.26558 0.0
C3277 C 0.22005 0.30712 0.28401 0.0
C3278 C 0.19257 0.306 0.26464 0.0
C3279 C 0.20016 0.30402 0.24602 0.0
N3280 N 0.22513 0.30207 0.22843 0.0
N3281 N 0.19874 0.31525 0.30136 0.0
C3282 C 0.217 0.30235 0.24636 0.0
C3283 C 0.20348 0.30923 0.28368 0.0
N3284 N 0.23983 0.29703 0.26652 0.0
N3285 N 0.17485 0.3046 0.26404 0.0
H3286 H 0.20625 0.31754 0.31565 0.0
H3287 H 0.18822 0.31925 0.30168 0.0
H3288 H 0.16656 0.30222 0.25027 0.0
H3289 H 0.16763 0.30404 0.27711 0.0
H3290 H 0.24336 0.29137 0.25378 0.0
H3291 H 0.24663 0.29673 0.2804 0.0
H3292 H 0.23865 0.30327 0.22794 0.0
H3293 H 0.21909 0.30213 0.21398 0.0
C3294 C 0.25882 0.36664 0.49368 0.0
C3295 C 0.24806 0.35686 0.47472 0.0
C3296 C 0.21801 0.34979 0.48993 0.0
C3297 C 0.22848 0.35736 0.50945 0.0
N3298 N 0.25846 0.37099 0.5307 0.0
N3299 N 0.2171 0.33635 0.45552 0.0
C3300 C 0.24882 0.36533 0.51156 0.0
C3301 C 0.22755 0.34774 0.47299 0.0
N3302 N 0.27858 0.37758 0.49445 0.0
N3303 N 0.19903 0.34494 0.48749 0.0
H3304 H 0.22346 0.33417 0.44282 0.0
H3305 H 0.20206 0.32762 0.45431 0.0
H3306 H 0.19153 0.34626 0.49956 0.0
H3307 H 0.19126 0.34134 0.47317 0.0
H3308 H 0.28714 0.38664 0.50729 0.0
H3309 H 0.28636 0.37895 0.4816 0.0
H3310 H 0.2729 0.37487 0.53344 0.0
H3311 H 0.25163 0.37039 0.54413 0.0
C3312 C 0.64506 0.90137 0.48722 0.0
C3313 C 0.63637 0.8935 0.46701 0.0
C3314 C 0.6253 0.86029 0.47673 0.0
C3315 C 0.63377 0.86815 0.497 0.0
N3316 N 0.64812 0.8953 0.52293 0.0
N3317 N 0.61491 0.86574 0.44344 0.0
C3318 C 0.64246 0.88845 0.5027 0.0
C3319 C 0.62541 0.873 0.46207 0.0
N3320 N 0.65655 0.92117 0.49136 0.0
N3321 N 0.6178 0.8408 0.47135 0.0
H3322 H 0.61475 0.87472 0.43237 0.0
H3323 H 0.60513 0.85096 0.43958 0.0
H3324 H 0.61692 0.83096 0.48187 0.0
H3325 H 0.61351 0.83454 0.45627 0.0
H3326 H 0.66514 0.92773 0.50506 0.0
H3327 H 0.65854 0.93114 0.48055 0.0
H3328 H 0.65268 0.90961 0.52845 0.0
H3329 H 0.64678 0.88627 0.5346 0.0
C3330 C 0.12631 0.75997 0.44244 0.0
C3331 C 0.10587 0.75107 0.43953 0.0
C3332 C 0.10404 0.75534 0.47667 0.0
C3333 C 0.12456 0.76608 0.47927 0.0
N3334 N 0.15552 0.78047 0.46484 0.0
N3335 N 0.07538 0.74288 0.4532 0.0
C3336 C 0.13581 0.76887 0.46221 0.0
C3337 C 0.09473 0.74936 0.45648 0.0
N3338 N 0.13652 0.75946 0.4264 0.0
N3339 N 0.09347 0.75068 0.49354 0.0
H3340 H 0.06794 0.73847 0.43864 0.0
H3341 H 0.06698 0.74344 0.46466 0.0
H3342 H 0.09978 0.75513 0.5086 0.0
H3343 H 0.07858 0.74104 0.49275 0.0
H3344 H 0.15118 0.76393 0.42797 0.0
H3345 H 0.12997 0.75308 0.41173 0.0
H3346 H 0.16442 0.78493 0.4527 0.0
H3347 H 0.16295 0.78676 0.47922 0.0
C3348 C 0.30547 0.09684 0.76446 0.0
C3349 C 0.29898 0.0766 0.76469 0.0
C3350 C 0.28798 0.07629 0.79917 0.0
C3351 C 0.29435 0.0965 0.79888 0.0
N3352 N 0.30469 0.12488 0.77987 0.0
N3353 N 0.2799 0.04603 0.77958 0.0
C3354 C 0.30157 0.10638 0.78098 0.0
C3355 C 0.2888 0.06598 0.7812 0.0
N3356 N 0.31629 0.10718 0.74909 0.0
N3357 N 0.28219 0.06722 0.81695 0.0
H3358 H 0.28027 0.0381 0.76654 0.0
H3359 H 0.27071 0.03729 0.79023 0.0
H3360 H 0.28107 0.07416 0.83038 0.0
H3361 H 0.27971 0.05322 0.81886 0.0
H3362 H 0.32335 0.12236 0.74936 0.0
H3363 H 0.31938 0.10073 0.73663 0.0
H3364 H 0.30823 0.13224 0.76653 0.0
H3365 H 0.30197 0.13218 0.79183 0.0
C3366 C 0.89699 0.19747 0.80108 0.0
C3367 C 0.91534 0.21389 0.8079 0.0
C3368 C 0.90953 0.20628 0.84377 0.0
C3369 C 0.8913 0.18974 0.83693 0.0
N3370 N 0.86901 0.16725 0.80936 0.0
N3371 N 0.94086 0.23192 0.83476 0.0
C3372 C 0.88549 0.18456 0.81562 0.0
C3373 C 0.92218 0.21764 0.82899 0.0
N3374 N 0.89023 0.19476 0.78086 0.0
N3375 N 0.91442 0.21146 0.86441 0.0
H3376 H 0.95043 0.24055 0.82426 0.0
H3377 H 0.94741 0.2342 0.84956 0.0
H3378 H 0.90584 0.20307 0.87569 0.0
H3379 H 0.9264 0.2246 0.87044 0.0
H3380 H 0.8761 0.1845 0.77533 0.0
H3381 H 0.89841 0.20364 0.76965 0.0
H3382 H 0.86499 0.16159 0.79406 0.0
H3383 H 0.85999 0.15768 0.81965 0.0
C3384 C 0.80132 0.69713 0.78656 0.0
C3385 C 0.78088 0.68853 0.78491 0.0
C3386 C 0.78013 0.68508 0.82201 0.0
C3387 C 0.80016 0.69134 0.82318 0.0
N3388 N 0.82991 0.7024 0.80683 0.0
N3389 N 0.75033 0.67242 0.80032 0.0
C3390 C 0.81084 0.69727 0.80554 0.0
C3391 C 0.77014 0.68211 0.80247 0.0
N3392 N 0.81157 0.70544 0.77006 0.0
N3393 N 0.77077 0.68229 0.83968 0.0
H3394 H 0.74242 0.67011 0.7863 0.0
H3395 H 0.74164 0.66536 0.81208 0.0
H3396 H 0.77763 0.68425 0.85429 0.0
H3397 H 0.75671 0.67972 0.84008 0.0
H3398 H 0.82662 0.71364 0.77077 0.0
H3399 H 0.80497 0.70546 0.75591 0.0
H3400 H 0.83798 0.70466 0.79411 0.0
H3401 H 0.83747 0.70329 0.82066 0.0
C3402 C 0.76816 0.63721 0.5904 0.0
C3403 C 0.75598 0.64536 0.58979 0.0
C3404 C 0.76147 0.65126 0.55346 0.0
C3405 C 0.77537 0.64525 0.55482 0.0
N3406 N 0.79306 0.6335 0.57446 0.0
N3407 N 0.74177 0.66139 0.57161 0.0
C3408 C 0.77894 0.63835 0.57323 0.0
C3409 C 0.75267 0.65257 0.57148 0.0
N3410 N 0.76916 0.62814 0.60732 0.0
N3411 N 0.7566 0.65556 0.53488 0.0
H3412 H 0.73469 0.66218 0.58435 0.0
H3413 H 0.74067 0.66902 0.5596 0.0
H3414 H 0.7631 0.65518 0.52149 0.0
H3415 H 0.74514 0.65804 0.53231 0.0
H3416 H 0.77624 0.62019 0.60802 0.0
H3417 H 0.76157 0.62722 0.62021 0.0
H3418 H 0.79803 0.63062 0.58811 0.0
H3419 H 0.80073 0.63343 0.56196 0.0
C3420 C 0.36427 0.12447 0.61183 0.0
C3421 C 0.36801 0.10922 0.60636 0.0
C3422 C 0.3729 0.11898 0.57103 0.0
C3423 C 0.36978 0.1346 0.5767 0.0
N3424 N 0.36611 0.15466 0.60297 0.0
N3425 N 0.37938 0.09398 0.58232 0.0
C3426 C 0.36665 0.13814 0.5973 0.0
C3427 C 0.37342 0.10711 0.5864 0.0
N3428 N 0.35755 0.12533 0.63056 0.0
N3429 N 0.37475 0.11513 0.55084 0.0
H3430 H 0.37986 0.08505 0.59326 0.0
H3431 H 0.38533 0.09303 0.56874 0.0
H3432 H 0.37505 0.12388 0.53927 0.0
H3433 H 0.37476 0.10263 0.54527 0.0
H3434 H 0.35238 0.13463 0.63453 0.0
H3435 H 0.3558 0.11574 0.64174 0.0
H3436 H 0.36598 0.1592 0.61818 0.0
H3437 H 0.36736 0.16476 0.5926 0.0
C3438 C 0.88491 0.22802 0.62523 0.0
C3439 C 0.89727 0.24851 0.6296 0.0
C3440 C 0.89143 0.25397 0.59402 0.0
C3441 C 0.87866 0.23355 0.58983 0.0
N3442 N 0.85964 0.2017 0.60222 0.0
N3443 N 0.90871 0.28124 0.61993 0.0
C3444 C 0.87421 0.22076 0.60575 0.0
C3445 C 0.89935 0.26158 0.61452 0.0
N3446 N 0.88419 0.21546 0.63925 0.0
N3447 N 0.89672 0.26597 0.57826 0.0
H3448 H 0.91459 0.28726 0.63488 0.0
H3449 H 0.90907 0.29138 0.61015 0.0
H3450 H 0.8911 0.26101 0.56304 0.0
H3451 H 0.90773 0.28057 0.57999 0.0
H3452 H 0.87719 0.20037 0.636 0.0
H3453 H 0.89182 0.22017 0.6537 0.0
H3454 H 0.8544 0.19212 0.61377 0.0
H3455 H 0.85154 0.19597 0.58807 0.0
C3456 C 0.37745 0.24784 0.63352 0.0
C3457 C 0.3676 0.25834 0.63083 0.0
C3458 C 0.36426 0.25081 0.59351 0.0
C3459 C 0.37192 0.23836 0.59644 0.0
N3460 N 0.38455 0.22359 0.61899 0.0
N3461 N 0.34907 0.26758 0.60873 0.0
C3462 C 0.37827 0.23653 0.61639 0.0
C3463 C 0.36042 0.25935 0.61093 0.0
N3464 N 0.38636 0.24907 0.65235 0.0
N3465 N 0.36086 0.25463 0.57404 0.0
H3466 H 0.34571 0.2739 0.62107 0.0
H3467 H 0.34159 0.2667 0.59488 0.0
H3468 H 0.36333 0.24847 0.56089 0.0
H3469 H 0.35727 0.26521 0.57096 0.0
H3470 H 0.39536 0.24334 0.6549 0.0
H3471 H 0.38604 0.25727 0.66517 0.0
H3472 H 0.38731 0.21991 0.63334 0.0
H3473 H 0.38586 0.21554 0.60668 0.0
C3474 C 0.76943 0.13939 0.59271 0.0
C3475 C 0.75883 0.11878 0.58841 0.0
C3476 C 0.76976 0.1223 0.55354 0.0
C3477 C 0.78223 0.14261 0.55878 0.0
N3478 N 0.79539 0.17061 0.58359 0.0
N3479 N 0.75034 0.09019 0.56573 0.0
C3480 C 0.78239 0.15124 0.57841 0.0
C3481 C 0.75922 0.1101 0.56901 0.0
N3482 N 0.7668 0.14758 0.6103 0.0
N3483 N 0.76792 0.11474 0.53371 0.0
H3484 H 0.7424 0.08069 0.57663 0.0
H3485 H 0.75201 0.08308 0.55284 0.0
H3486 H 0.77572 0.12321 0.52206 0.0
H3487 H 0.75752 0.10048 0.52838 0.0
H3488 H 0.77262 0.16256 0.6134 0.0
H3489 H 0.75738 0.13927 0.62107 0.0
H3490 H 0.79783 0.17726 0.59843 0.0
H3491 H 0.80474 0.17985 0.5733 0.0
C3492 C 0.88391 0.6368 0.59961 0.0
C3493 C 0.88139 0.64656 0.61692 0.0
C3494 C 0.85867 0.65203 0.59585 0.0
C3495 C 0.86301 0.64426 0.57817 0.0
N3496 N 0.87946 0.62839 0.56344 0.0
N3497 N 0.8675 0.6647 0.63173 0.0
C3498 C 0.87531 0.6363 0.58008 0.0
C3499 C 0.86883 0.65427 0.61519 0.0
N3500 N 0.895 0.62828 0.60161 0.0
N3501 N 0.84469 0.65704 0.59409 0.0
H3502 H 0.87454 0.66647 0.64618 0.0
H3503 H 0.86043 0.67264 0.63091 0.0
H3504 H 0.83721 0.65578 0.58006 0.0
H3505 H 0.83935 0.66091 0.60661 0.0
H3506 H 0.89735 0.62118 0.58914 0.0
H3507 H 0.90131 0.62783 0.61575 0.0
H3508 H 0.87401 0.62747 0.54834 0.0
H3509 H 0.87401 0.62747 0.54834 0.0
C3510 C 0.89051 0.68652 0.80726 0.0
C3511 C 0.91052 0.6927 0.8095 0.0
C3512 C 0.91088 0.69808 0.84691 0.0
C3513 C 0.8911 0.69273 0.84453 0.0
N3514 N 0.86316 0.68593 0.82241 0.0
N3515 N 0.9407 0.70787 0.83054 0.0
C3516 C 0.88126 0.68824 0.82465 0.0
C3517 C 0.92101 0.69959 0.82909 0.0
N3518 N 0.88013 0.67816 0.78873 0.0
N3519 N 0.91972 0.70092 0.8662 0.0
H3520 H 0.94853 0.70916 0.81775 0.0
H3521 H 0.94944 0.71494 0.84405 0.0
H3522 H 0.91281 0.70015 0.87961 0.0
H3523 H 0.93342 0.70266 0.86896 0.0
H3524 H 0.86509 0.67128 0.78676 0.0
H3525 H 0.88633 0.67667 0.77554 0.0
H3526 H 0.85604 0.68464 0.80817 0.0
H3527 H 0.85589 0.68702 0.83483 0.0
C3528 C 0.31215 0.23486 0.8154 0.0
C3529 C 0.30241 0.22755 0.79549 0.0
C3530 C 0.28964 0.19386 0.80454 0.0
C3531 C 0.29912 0.20117 0.82455 0.0
N3532 N 0.3161 0.22804 0.85059 0.0
N3533 N 0.27893 0.20065 0.7722 0.0
C3534 C 0.3093 0.22153 0.83048 0.0
C3535 C 0.29018 0.20718 0.79042 0.0
N3536 N 0.32481 0.25447 0.81958 0.0
N3537 N 0.28075 0.17427 0.79884 0.0
H3538 H 0.27908 0.21008 0.76152 0.0
H3539 H 0.2683 0.18612 0.76838 0.0
H3540 H 0.27963 0.16404 0.80897 0.0
H3541 H 0.27554 0.16822 0.7838 0.0
H3542 H 0.3341 0.26048 0.83291 0.0
H3543 H 0.32699 0.26476 0.80909 0.0
H3544 H 0.32183 0.24249 0.85641 0.0
H3545 H 0.31462 0.21868 0.86195 0.0
C3546 C 0.79457 0.09485 0.76947 0.0
C3547 C 0.7757 0.07811 0.76753 0.0
C3548 C 0.77629 0.07647 0.80492 0.0
C3549 C 0.79528 0.09308 0.80689 0.0
N3550 N 0.82418 0.11543 0.79128 0.0
N3551 N 0.75051 0.05019 0.78236 0.0
C3552 C 0.80498 0.1014 0.78918 0.0
C3553 C 0.76721 0.06799 0.78496 0.0
N3554 N 0.80215 0.10498 0.75267 0.0
N3555 N 0.76652 0.06947 0.82206 0.0
H3556 H 0.7435 0.04361 0.76789 0.0
H3557 H 0.7446 0.04116 0.79424 0.0
H3558 H 0.77264 0.07515 0.837 0.0
H3559 H 0.75187 0.05894 0.82149 0.0
H3560 H 0.81483 0.11855 0.7535 0.0
H3561 H 0.79511 0.10039 0.73792 0.0
H3562 H 0.83261 0.12084 0.77889 0.0
H3563 H 0.83216 0.12044 0.80555 0.0
C3564 C 0.08294 0.33356 0.07138 0.0
C3565 C 0.07879 0.34779 0.07967 0.0
C3566 C 0.09778 0.35143 0.11179 0.0
C3567 C 0.10366 0.33889 0.10262 0.0
N3568 N 0.10504 0.3212 0.07214 0.0
N3569 N 0.08531 0.37311 0.10621 0.0
C3570 C 0.09714 0.33082 0.08196 0.0
C3571 C 0.08706 0.35753 0.09948 0.0
N3572 N 0.07285 0.32216 0.0538 0.0
N3573 N 0.10198 0.35707 0.13239 0.0
H3574 H 0.07797 0.37835 0.09743 0.0
H3575 H 0.0927 0.38199 0.11961 0.0
H3576 H 0.10961 0.35268 0.14196 0.0
H3577 H 0.09635 0.36456 0.14033 0.0
H3578 H 0.0739 0.31022 0.04829 0.0
H3579 H 0.06204 0.32341 0.04577 0.0
H3580 H 0.10232 0.3169 0.05642 0.0
H3581 H 0.11573 0.31914 0.07919 0.0
C3582 C 0.66735 0.73713 0.1075 0.0
C3583 C 0.65701 0.72113 0.11956 0.0
C3584 C 0.66174 0.74379 0.14912 0.0
C3585 C 0.66996 0.75948 0.1363 0.0
N3586 N 0.67828 0.77106 0.1026 0.0
N3587 N 0.6422 0.70873 0.15101 0.0
C3588 C 0.6722 0.75617 0.11529 0.0
C3589 C 0.65368 0.72431 0.14021 0.0
N3590 N 0.67304 0.73418 0.08884 0.0
N3591 N 0.66197 0.74758 0.16984 0.0
H3592 H 0.63602 0.69424 0.14497 0.0
H3593 H 0.63754 0.71012 0.16532 0.0
H3594 H 0.66772 0.76171 0.17681 0.0
H3595 H 0.658 0.73697 0.18033 0.0
H3596 H 0.68232 0.74552 0.08032 0.0
H3597 H 0.66993 0.72044 0.08272 0.0
H3598 H 0.678 0.76897 0.08667 0.0
H3599 H 0.68221 0.78532 0.10773 0.0
C3600 C 0.29162 0.93676 0.08464 0.0
C3601 C 0.28973 0.92791 0.06456 0.0
C3602 C 0.25619 0.9031 0.06929 0.0
C3603 C 0.25875 0.9109 0.08999 0.0
N3604 N 0.27981 0.93288 0.11864 0.0
N3605 N 0.27145 0.90126 0.03858 0.0
C3606 C 0.27673 0.9271 0.09804 0.0
C3607 C 0.27234 0.91066 0.05709 0.0
N3608 N 0.30732 0.95477 0.09065 0.0
N3609 N 0.23821 0.8889 0.06113 0.0
H3610 H 0.283 0.90649 0.02923 0.0
H3611 H 0.25991 0.88754 0.03326 0.0
H3612 H 0.22605 0.88302 0.06962 0.0
H3613 H 0.23498 0.88406 0.04556 0.0
H3614 H 0.30838 0.9629 0.10418 0.0
H3615 H 0.31858 0.96242 0.08132 0.0
H3616 H 0.29332 0.94318 0.12576 0.0
H3617 H 0.26926 0.92617 0.12902 0.0
C3618 C 0.33763 0.06175 0.96714 0.0
C3619 C 0.34661 0.06838 0.98742 0.0
C3620 C 0.33815 0.09405 0.98853 0.0
C3621 C 0.33128 0.08885 0.96745 0.0
N3622 N 0.32692 0.06963 0.93567 0.0
N3623 N 0.35725 0.09177 0.017 0.0
C3624 C 0.33158 0.07314 0.95648 0.0
C3625 C 0.34731 0.08475 0.99808 0.0
N3626 N 0.33448 0.04433 0.95825 0.0
N3627 N 0.33555 0.10758 0.99946 0.0
H3628 H 0.36389 0.08513 0.02455 0.0
H3629 H 0.36012 0.1049 0.02459 0.0
H3630 H 0.3289 0.11465 0.99287 0.0
H3631 H 0.33847 0.11062 0.01534 0.0
H3632 H 0.32612 0.03771 0.94442 0.0
H3633 H 0.33876 0.03556 0.96555 0.0
H3634 H 0.32906 0.05988 0.92647 0.0
H3635 H 0.32237 0.07759 0.92721 0.0
C3636 C 0.93186 0.26163 0.94831 0.0
C3637 C 0.92877 0.26807 0.96772 0.0
C3638 C 0.89859 0.23686 0.96878 0.0
C3639 C 0.90069 0.23125 0.94849 0.0
N3640 N 0.91759 0.23937 0.91752 0.0
N3641 N 0.90757 0.26347 0.99474 0.0
C3642 C 0.91686 0.24394 0.93783 0.0
C3643 C 0.91166 0.25615 0.97749 0.0
N3644 N 0.94937 0.27205 0.94023 0.0
N3645 N 0.88449 0.22356 0.97998 0.0
H3646 H 0.91668 0.27764 0.00148 0.0
H3647 H 0.89435 0.25617 0.00126 0.0
H3648 H 0.87474 0.20919 0.97424 0.0
H3649 H 0.88357 0.22621 0.99557 0.0
H3650 H 0.95318 0.267 0.92724 0.0
H3651 H 0.96077 0.28503 0.94751 0.0
H3652 H 0.92797 0.249 0.90833 0.0
H3653 H 0.90686 0.22652 0.90934 0.0
C3654 C 0.7149 0.6352 0.9908 0.0
C3655 C 0.71759 0.64198 0.01188 0.0
C3656 C 0.75278 0.65804 0.01053 0.0
C3657 C 0.75005 0.65322 0.98894 0.0
N3658 N 0.72873 0.63978 0.95783 0.0
N3659 N 0.73888 0.6619 0.04143 0.0
C3660 C 0.73116 0.64244 0.97886 0.0
C3661 C 0.73649 0.6539 0.02171 0.0
N3662 N 0.69684 0.62149 0.98233 0.0
N3663 N 0.77087 0.66614 0.02039 0.0
H3664 H 0.7273 0.65913 0.05018 0.0
H3665 H 0.75226 0.67247 0.04858 0.0
H3666 H 0.78315 0.66941 0.01267 0.0
H3667 H 0.77348 0.66808 0.03635 0.0
H3668 H 0.69427 0.61451 0.96763 0.0
H3669 H 0.6846 0.61573 0.9907 0.0
H3670 H 0.71532 0.63393 0.94955 0.0
H3671 H 0.74028 0.64497 0.94848 0.0
C3672 C 0.9115 0.65923 0.00318 0.0
C3673 C 0.92701 0.65863 0.99422 0.0
C3674 C 0.91981 0.66936 0.96207 0.0
C3675 C 0.9034 0.66845 0.97048 0.0
N3676 N 0.88201 0.66043 0.9979 0.0
N3677 N 0.94511 0.66109 0.96481 0.0
C3678 C 0.89882 0.66287 0.99077 0.0
C3679 C 0.93096 0.66315 0.97355 0.0
N3680 N 0.90913 0.65668 0.02366 0.0
N3681 N 0.92499 0.67665 0.94334 0.0
H3682 H 0.95395 0.65716 0.97294 0.0
H3683 H 0.94731 0.66201 0.9492 0.0
H3684 H 0.917 0.68113 0.93446 0.0
H3685 H 0.9379 0.67967 0.93722 0.0
H3686 H 0.89956 0.65918 0.03172 0.0
H3687 H 0.91775 0.65334 0.03309 0.0
H3688 H 0.87664 0.65418 0.01153 0.0
H3689 H 0.8726 0.66343 0.98947 0.0
C3690 C 0.34858 0.26412 0.96104 0.0
C3691 C 0.34272 0.27628 0.95173 0.0
C3692 C 0.32414 0.25072 0.9238 0.0
C3693 C 0.32885 0.2381 0.93394 0.0
N3694 N 0.34322 0.23141 0.96339 0.0
N3695 N 0.32312 0.28077 0.92596 0.0
C3696 C 0.34041 0.24441 0.95293 0.0
C3697 C 0.33002 0.26949 0.93353 0.0
N3698 N 0.3624 0.27163 0.97724 0.0
N3699 N 0.31438 0.24486 0.90471 0.0
H3700 H 0.32733 0.29472 0.93252 0.0
H3701 H 0.31221 0.27586 0.9141 0.0
H3702 H 0.30927 0.23094 0.89749 0.0
H3703 H 0.31244 0.25412 0.89543 0.0
H3704 H 0.36887 0.26421 0.98327 0.0
H3705 H 0.36861 0.28598 0.98372 0.0
H3706 H 0.34959 0.23443 0.97837 0.0
H3707 H 0.33786 0.21696 0.95769 0.0
C3708 C 0.71732 0.06164 0.98531 0.0
C3709 C 0.71788 0.07132 0.00444 0.0
C3710 C 0.74945 0.09924 0.9983 0.0
C3711 C 0.74939 0.089 0.97981 0.0
N3712 N 0.73523 0.05931 0.95737 0.0
N3713 N 0.73528 0.09776 0.03082 0.0
C3714 C 0.73389 0.06983 0.97381 0.0
C3715 C 0.73421 0.08969 0.01145 0.0
N3716 N 0.7007 0.04495 0.9778 0.0
N3717 N 0.76372 0.11829 0.00291 0.0
H3718 H 0.7242 0.09127 0.04068 0.0
H3719 H 0.74765 0.11008 0.03772 0.0
H3720 H 0.77529 0.12564 0.99382 0.0
H3721 H 0.76347 0.12726 0.01493 0.0
H3722 H 0.69865 0.03847 0.96293 0.0
H3723 H 0.68826 0.03833 0.98581 0.0
H3724 H 0.72539 0.04452 0.95357 0.0
H3725 H 0.74712 0.06489 0.94848 0.0
C3726 C 0.64499 0.91075 0.06959 0.0
C3727 C 0.65123 0.93008 0.07773 0.0
C3728 C 0.6714 0.92754 0.1053 0.0
C3729 C 0.66556 0.90839 0.09686 0.0
N3730 N 0.64986 0.88292 0.06927 0.0
N3731 N 0.67321 0.95846 0.10041 0.0
C3732 C 0.65332 0.90037 0.0784 0.0
C3733 C 0.66536 0.93898 0.09469 0.0
N3734 N 0.6306 0.90211 0.05399 0.0
N3735 N 0.68203 0.93446 0.1239 0.0
H3736 H 0.66902 0.9673 0.0931 0.0
H3737 H 0.685 0.96628 0.11122 0.0
H3738 H 0.68717 0.92674 0.13194 0.0
H3739 H 0.68469 0.94727 0.1321 0.0
H3740 H 0.62385 0.88736 0.04889 0.0
H3741 H 0.62446 0.90944 0.04693 0.0
H3742 H 0.64261 0.87711 0.05478 0.0
H3743 H 0.65564 0.87492 0.0755 0.0
C3744 C 0.06962 0.74905 0.11121 0.0
C3745 C 0.07594 0.73853 0.09868 0.0
C3746 C 0.10927 0.76597 0.10377 0.0
C3747 C 0.10328 0.7755 0.11812 0.0
N3748 N 0.07839 0.77511 0.13789 0.0
N3749 N 0.10209 0.73542 0.0857 0.0
C3750 C 0.0836 0.76678 0.1225 0.0
C3751 C 0.09586 0.74657 0.09564 0.0
N3752 N 0.05027 0.74239 0.11182 0.0
N3753 N 0.12765 0.77566 0.09752 0.0
H3754 H 0.09274 0.72105 0.07966 0.0
H3755 H 0.11666 0.73979 0.08501 0.0
H3756 H 0.13791 0.78992 0.10312 0.0
H3757 H 0.13219 0.77025 0.08545 0.0
H3758 H 0.04484 0.75043 0.11898 0.0
H3759 H 0.0396 0.72955 0.10358 0.0
H3760 H 0.06465 0.7683 0.14334 0.0
H3761 H 0.08824 0.78816 0.14643 0.0
C3762 C 0.26536 0.35731 0.04602 0.0
C3763 C 0.27993 0.35259 0.05046 0.0
C3764 C 0.26188 0.333 0.07817 0.0
C3765 C 0.24833 0.3393 0.07506 0.0
N3766 N 0.23736 0.3583 0.0573 0.0
N3767 N 0.29326 0.33731 0.07142 0.0
C3768 C 0.25004 0.35161 0.05924 0.0
C3769 C 0.27847 0.34072 0.06667 0.0
N3770 N 0.26607 0.36699 0.02901 0.0
N3771 N 0.25866 0.31941 0.09193 0.0
H3772 H 0.30534 0.3421 0.06291 0.0
H3773 H 0.29424 0.3308 0.08453 0.0
H3774 H 0.24683 0.31374 0.10091 0.0
H3775 H 0.26679 0.31259 0.09341 0.0
H3776 H 0.25492 0.36912 0.02361 0.0
H3777 H 0.27737 0.37179 0.01934 0.0
H3778 H 0.23904 0.36906 0.04771 0.0
H3779 H 0.22558 0.35389 0.06624 0.0
C3780 C 0.75862 0.68846 0.40642 0.0
C3781 C 0.73926 0.68099 0.41157 0.0
C3782 C 0.74484 0.66517 0.44034 0.0
C3783 C 0.76362 0.67124 0.43405 0.0
N3784 N 0.78766 0.68626 0.4096 0.0
N3785 N 0.71289 0.66027 0.43152 0.0
C3786 C 0.77032 0.68224 0.41666 0.0
C3787 C 0.73207 0.66883 0.42806 0.0
N3788 N 0.76597 0.70196 0.39215 0.0
N3789 N 0.73941 0.65628 0.45826 0.0
H3790 H 0.70318 0.66278 0.42298 0.0
H3791 H 0.70626 0.64958 0.44179 0.0
H3792 H 0.7483 0.65307 0.46739 0.0
H3793 H 0.72675 0.65339 0.4649 0.0
H3794 H 0.78055 0.70957 0.38935 0.0
H3795 H 0.75778 0.70679 0.38423 0.0
H3796 H 0.79234 0.69218 0.39564 0.0
H3797 H 0.79682 0.68228 0.41694 0.0
C3798 C 0.32243 0.05913 0.46939 0.0
C3799 C 0.33187 0.05603 0.45294 0.0
C3800 C 0.35293 0.09142 0.45205 0.0
C3801 C 0.34433 0.09445 0.46935 0.0
N3802 N 0.32457 0.0812 0.49774 0.0
N3803 N 0.35945 0.06896 0.43248 0.0
C3804 C 0.33026 0.07827 0.47909 0.0
C3805 C 0.34821 0.07212 0.44549 0.0
N3806 N 0.30541 0.04409 0.47502 0.0
N3807 N 0.36478 0.10678 0.44118 0.0
H3808 H 0.35669 0.05499 0.42773 0.0
H3809 H 0.37256 0.08017 0.42813 0.0
H3810 H 0.36836 0.12114 0.44516 0.0
H3811 H 0.36968 0.105 0.42715 0.0
H3812 H 0.29693 0.04607 0.48543 0.0
H3813 H 0.29879 0.02994 0.46791 0.0
H3814 H 0.31572 0.0698 0.50646 0.0
H3815 H 0.3303 0.09505 0.50543 0.0
C3816 C 0.94125 0.25335 0.38645 0.0
C3817 C 0.95953 0.26104 0.39762 0.0
C3818 C 0.94376 0.24893 0.42931 0.0
C3819 C 0.92546 0.24052 0.41799 0.0
N3820 N 0.90642 0.23165 0.3855 0.0
N3821 N 0.97846 0.26312 0.42838 0.0
C3822 C 0.92409 0.24178 0.39643 0.0
C3823 C 0.96085 0.25786 0.41867 0.0
N3824 N 0.94032 0.25772 0.36656 0.0
N3825 N 0.9448 0.24904 0.45032 0.0
H3826 H 0.99131 0.26982 0.42105 0.0
H3827 H 0.98018 0.25938 0.44307 0.0
H3828 H 0.9326 0.24242 0.45868 0.0
H3829 H 0.95766 0.25694 0.45964 0.0
H3830 H 0.92751 0.25451 0.35832 0.0
H3831 H 0.9526 0.26572 0.35861 0.0
H3832 H 0.9046 0.2303 0.36949 0.0
H3833 H 0.89356 0.22328 0.39243 0.0
C3834 C 0.03213 0.42458 0.32955 0.0
C3835 C 0.04142 0.41677 0.31762 0.0
C3836 C 0.03916 0.43342 0.28798 0.0
C3837 C 0.0305 0.44183 0.3001 0.0
N3838 N 0.02235 0.44889 0.3333 0.0
N3839 N 0.05795 0.41724 0.28747 0.0
C3840 C 0.02816 0.43852 0.32122 0.0
C3841 C 0.0463 0.42236 0.29745 0.0
N3842 N 0.02629 0.41801 0.34839 0.0
N3843 N 0.03967 0.43515 0.26721 0.0
H3844 H 0.0635 0.40918 0.29407 0.0
H3845 H 0.06359 0.42251 0.27357 0.0
H3846 H 0.03462 0.44314 0.25959 0.0
H3847 H 0.04368 0.42738 0.25724 0.0
H3848 H 0.01748 0.42144 0.35677 0.0
H3849 H 0.02913 0.40798 0.35512 0.0
H3850 H 0.0222 0.44858 0.34923 0.0
H3851 H 0.01928 0.45916 0.32758 0.0
C3852 C 0.585 0.60649 0.26928 0.0
C3853 C 0.585 0.61091 0.29063 0.0
C3854 C 0.55685 0.57833 0.29247 0.0
C3855 C 0.56028 0.57257 0.2729 0.0
N3856 N 0.57725 0.5814 0.24194 0.0
N3857 N 0.56111 0.60576 0.31448 0.0
C3858 C 0.57425 0.58672 0.26104 0.0
C3859 C 0.56802 0.59821 0.30017 0.0
N3860 N 0.59188 0.62114 0.25636 0.0
N3861 N 0.54327 0.56482 0.30393 0.0
H3862 H 0.56761 0.62083 0.31799 0.0
H3863 H 0.5478 0.59748 0.3206 0.0
H3864 H 0.53468 0.55006 0.29882 0.0
H3865 H 0.54167 0.5681 0.31914 0.0
H3866 H 0.59074 0.61862 0.24038 0.0
H3867 H 0.59577 0.63539 0.26155 0.0
H3868 H 0.58861 0.59099 0.23363 0.0
H3869 H 0.56927 0.56711 0.23511 0.0
C3870 C 0.39638 0.9602 0.35176 0.0
C3871 C 0.38309 0.96637 0.34634 0.0
C3872 C 0.40013 0.9803 0.31571 0.0
C3873 C 0.41411 0.9752 0.32182 0.0
N3874 N 0.42725 0.96248 0.3465 0.0
N3875 N 0.37332 0.98438 0.32501 0.0
C3876 C 0.41273 0.96576 0.34011 0.0
C3877 C 0.38524 0.97701 0.32881 0.0
N3878 N 0.39307 0.94862 0.36771 0.0
N3879 N 0.40087 0.98789 0.29716 0.0
H3880 H 0.36192 0.98186 0.33393 0.0
H3881 H 0.37548 0.99413 0.31393 0.0
H3882 H 0.41194 0.99116 0.28745 0.0
H3883 H 0.3899 0.98978 0.29064 0.0
H3884 H 0.40096 0.94184 0.37113 0.0
H3885 H 0.38147 0.94466 0.37683 0.0
H3886 H 0.42825 0.95761 0.36077 0.0
H3887 H 0.43914 0.96586 0.33803 0.0
C3888 C 0.59522 0.9846 0.30237 0.0
C3889 C 0.59082 0.97871 0.3226 0.0
C3890 C 0.56058 0.97933 0.31851 0.0
C3891 C 0.56531 0.98587 0.29854 0.0
N3892 N 0.58756 0.99671 0.27195 0.0
N3893 N 0.57071 0.97222 0.351 0.0
C3894 C 0.58278 0.98907 0.2906 0.0
C3895 C 0.57387 0.97658 0.33098 0.0
N3896 N 0.61117 0.98559 0.29436 0.0
N3897 N 0.54316 0.97541 0.32533 0.0
H3898 H 0.5796 0.96914 0.36029 0.0
H3899 H 0.55995 0.97268 0.35893 0.0
H3900 H 0.53349 0.97822 0.31713 0.0
H3901 H 0.53768 0.96845 0.33859 0.0
H3902 H 0.61415 0.98762 0.27902 0.0
H3903 H 0.62112 0.98337 0.30285 0.0
H3904 H 0.60094 0.00141 0.26612 0.0
H3905 H 0.57842 0.99943 0.2626 0.0
C3906 C 0.02519 0.60824 0.29753 0.0
C3907 C 0.01703 0.61861 0.28849 0.0
C3908 C 0.00027 0.59249 0.26064 0.0
C3909 C 0.00748 0.58161 0.27039 0.0
N3910 N 0.02471 0.57755 0.29918 0.0
N3911 N 0.99531 0.62026 0.26301 0.0
C3912 C 0.01937 0.58905 0.28916 0.0
C3913 C 0.00415 0.61064 0.27044 0.0
N3914 N 0.03887 0.61696 0.31382 0.0
N3915 N 0.99003 0.58559 0.24184 0.0
H3916 H 0.99824 0.63385 0.26946 0.0
H3917 H 0.98419 0.61432 0.2513 0.0
H3918 H 0.98627 0.57199 0.23466 0.0
H3919 H 0.98622 0.59372 0.23275 0.0
H3920 H 0.04703 0.61117 0.31965 0.0
H3921 H 0.04313 0.63081 0.32072 0.0
H3922 H 0.03145 0.58113 0.31403 0.0
H3923 H 0.02122 0.56364 0.29322 0.0
C3924 C 0.38447 0.39842 0.3164 0.0
C3925 C 0.3823 0.4091 0.33315 0.0
C3926 C 0.41264 0.4385 0.32671 0.0
C3927 C 0.41398 0.42822 0.30903 0.0
N3928 N 0.40068 0.39924 0.28557 0.0
N3929 N 0.39287 0.4394 0.35347 0.0
C3930 C 0.39978 0.40838 0.30349 0.0
C3931 C 0.39603 0.42918 0.33814 0.0
N3932 N 0.37207 0.37866 0.3131 0.0
N3933 N 0.42742 0.45706 0.33267 0.0
H3934 H 0.38113 0.43286 0.36251 0.0
H3935 H 0.4011 0.45451 0.35648 0.0
H3936 H 0.43954 0.46448 0.32433 0.0
H3937 H 0.42839 0.46468 0.34654 0.0
H3938 H 0.37414 0.36962 0.30272 0.0
H3939 H 0.36026 0.37092 0.32176 0.0
H3940 H 0.3896 0.38563 0.2793 0.0
H3941 H 0.41208 0.40578 0.27611 0.0
C3942 C 0.31798 0.24881 0.40408 0.0
C3943 C 0.32336 0.26751 0.41354 0.0
C3944 C 0.34234 0.26355 0.44134 0.0
C3945 C 0.33751 0.24514 0.43151 0.0
N3946 N 0.32392 0.22168 0.40194 0.0
N3947 N 0.34376 0.29455 0.43848 0.0
C3948 C 0.32633 0.23823 0.41232 0.0
C3949 C 0.33653 0.27546 0.43136 0.0
N3950 N 0.30431 0.24087 0.38774 0.0
N3951 N 0.35178 0.26927 0.46061 0.0
H3952 H 0.33977 0.30372 0.43159 0.0
H3953 H 0.35493 0.3018 0.45007 0.0
H3954 H 0.35665 0.26116 0.4683 0.0
H3955 H 0.35359 0.28135 0.46962 0.0
H3956 H 0.29815 0.22646 0.38159 0.0
H3957 H 0.29808 0.24832 0.38114 0.0
H3958 H 0.31756 0.21687 0.38697 0.0
H3959 H 0.32977 0.21356 0.40771 0.0
C3960 C 0.73305 0.07531 0.4488 0.0
C3961 C 0.73656 0.06745 0.43058 0.0
C3962 C 0.76724 0.09796 0.4285 0.0
C3963 C 0.76463 0.10506 0.44777 0.0
N3964 N 0.74624 0.10038 0.47738 0.0
N3965 N 0.75771 0.06996 0.40421 0.0
C3966 C 0.74782 0.09372 0.45823 0.0
C3967 C 0.75381 0.07846 0.42064 0.0
N3968 N 0.71543 0.06534 0.45677 0.0
N3969 N 0.78248 0.10996 0.41764 0.0
H3970 H 0.74814 0.05576 0.39784 0.0
H3971 H 0.771 0.07637 0.39778 0.0
H3972 H 0.79295 0.12417 0.42316 0.0
H3973 H 0.78402 0.10647 0.40251 0.0
H3974 H 0.71119 0.07111 0.46877 0.0
H3975 H 0.70436 0.05173 0.45033 0.0
H3976 H 0.73549 0.0919 0.48689 0.0
H3977 H 0.75643 0.11414 0.48436 0.0
C3978 C 0.92884 0.68967 0.37623 0.0
C3979 C 0.94488 0.68833 0.38406 0.0
C3980 C 0.92834 0.67452 0.41493 0.0
C3981 C 0.91187 0.67486 0.4066 0.0
N3982 N 0.89475 0.6789 0.37773 0.0
N3983 N 0.95822 0.67536 0.40828 0.0
C3984 C 0.9116 0.68124 0.38671 0.0
C3985 C 0.94409 0.67945 0.40263 0.0
N3986 N 0.93035 0.69967 0.35927 0.0
N3987 N 0.92933 0.67038 0.43491 0.0
H3988 H 0.96992 0.67859 0.39954 0.0
H3989 H 0.95741 0.66712 0.42054 0.0
H3990 H 0.91816 0.66679 0.44455 0.0
H3991 H 0.94186 0.67211 0.4425 0.0
H3992 H 0.91996 0.70303 0.35419 0.0
H3993 H 0.94272 0.70596 0.35114 0.0
H3994 H 0.89311 0.68146 0.36247 0.0
H3995 H 0.88184 0.6727 0.38498 0.0
C3996 C 0.43172 0.04922 0.77098 0.0
C3997 C 0.41407 0.03299 0.76219 0.0
C3998 C 0.41833 0.01218 0.78579 0.0
C3999 C 0.43799 0.02696 0.78999 0.0
N4000 N 0.45487 0.06132 0.80067 0.0
N4001 N 0.38939 0.99897 0.76272 0.0
C4002 C 0.44252 0.04627 0.78675 0.0
C4003 C 0.40692 0.01444 0.77015 0.0
N4004 N 0.43849 0.0673 0.76402 0.0
N4005 N 0.40989 0.99777 0.79886 0.0
H4006 H 0.38027 0.00022 0.7518 0.0
H4007 H 0.38456 0.98473 0.76656 0.0
H4008 H 0.41741 0.99792 0.81243 0.0
H4009 H 0.39511 0.98756 0.79773 0.0
H4010 H 0.45224 0.07908 0.76869 0.0
H4011 H 0.43095 0.07011 0.75254 0.0
H4012 H 0.45736 0.0755 0.80014 0.0
H4013 H 0.46044 0.05881 0.81421 0.0
C4014 C 0.98065 0.39654 0.76723 0.0
C4015 C 0.98582 0.38459 0.77809 0.0
C4016 C 0.99688 0.40787 0.80864 0.0
C4017 C 0.99321 0.42054 0.79718 0.0
N4018 N 0.98522 0.42888 0.76453 0.0
N4019 N 0.00183 0.38015 0.80776 0.0
C4020 C 0.98614 0.41544 0.77615 0.0
C4021 C 0.99479 0.39061 0.79844 0.0
N4022 N 0.96991 0.38957 0.74871 0.0
N4023 N 0.00175 0.41202 0.82937 0.0
H4024 H 0.00057 0.36743 0.80074 0.0
H4025 H 0.01033 0.38493 0.82167 0.0
H4026 H 0.0035 0.42459 0.83736 0.0
H4027 H 0.00255 0.4023 0.83895 0.0
H4028 H 0.96393 0.39678 0.74116 0.0
H4029 H 0.96549 0.37572 0.74169 0.0
H4030 H 0.98214 0.42671 0.74862 0.0
H4031 H 0.98928 0.44298 0.77046 0.0
C4032 C 0.60507 0.5799 0.72218 0.0
C4033 C 0.62322 0.59481 0.73158 0.0
C4034 C 0.60981 0.59045 0.76527 0.0
C4035 C 0.5913 0.57666 0.75561 0.0
N4036 N 0.57044 0.55966 0.72487 0.0
N4037 N 0.64263 0.61629 0.76129 0.0
C4038 C 0.58868 0.57173 0.73404 0.0
C4039 C 0.62554 0.60063 0.75293 0.0
N4040 N 0.60366 0.57335 0.70203 0.0
N4041 N 0.61242 0.59342 0.7863 0.0
H4042 H 0.65468 0.62384 0.75288 0.0
H4043 H 0.64451 0.62273 0.77614 0.0
H4044 H 0.60117 0.5865 0.79586 0.0
H4045 H 0.62594 0.60158 0.7944 0.0
H4046 H 0.5914 0.56115 0.6948 0.0
H4047 H 0.61533 0.57929 0.69285 0.0
H4048 H 0.56722 0.5571 0.70899 0.0
H4049 H 0.55816 0.5532 0.73314 0.0
C4050 C 0.68616 0.75217 0.66734 0.0
C4051 C 0.68386 0.73517 0.65636 0.0
C4052 C 0.66753 0.7404 0.6269 0.0
C4053 C 0.66866 0.75665 0.63836 0.0
N4054 N 0.67568 0.77594 0.67065 0.0
N4055 N 0.66856 0.71051 0.62782 0.0
C4056 C 0.67696 0.76192 0.65898 0.0
C4057 C 0.67337 0.72849 0.63677 0.0
N4058 N 0.69766 0.75936 0.68537 0.0
N4059 N 0.66173 0.73683 0.60633 0.0
H4060 H 0.67244 0.70124 0.63465 0.0
H4061 H 0.65917 0.70401 0.6146 0.0
H4062 H 0.65745 0.74527 0.59837 0.0
H4063 H 0.66276 0.72657 0.59673 0.0
H4064 H 0.7016 0.77284 0.69294 0.0
H4065 H 0.70453 0.75252 0.692 0.0
H4066 H 0.67972 0.77907 0.68638 0.0
H4067 H 0.66895 0.78329 0.66498 0.0
C4068 C 0.25349 0.92315 0.64778 0.0
C4069 C 0.2699 0.934 0.63654 0.0
C4070 C 0.25548 0.9084 0.608 0.0
C4071 C 0.23989 0.89692 0.61999 0.0
N4072 N 0.2262 0.89136 0.65294 0.0
N4073 N 0.2884 0.93544 0.60778 0.0
C4074 C 0.23956 0.90369 0.64042 0.0
C4075 C 0.27147 0.92617 0.61716 0.0
N4076 N 0.25072 0.93172 0.665 0.0
N4077 N 0.25469 0.90271 0.58767 0.0
H4078 H 0.30047 0.94841 0.61414 0.0
H4079 H 0.29107 0.92941 0.59468 0.0
H4080 H 0.24318 0.88981 0.58041 0.0
H4081 H 0.26462 0.91153 0.57761 0.0
H4082 H 0.23799 0.92515 0.6725 0.0
H4083 H 0.26033 0.94613 0.67069 0.0
H4084 H 0.22654 0.89489 0.6686 0.0
H4085 H 0.21589 0.87687 0.64816 0.0
C4086 C 0.06836 0.29954 0.67938 0.0
C4087 C 0.05804 0.3097 0.68029 0.0
C4088 C 0.0794 0.3328 0.65671 0.0
C4089 C 0.09027 0.32319 0.65655 0.0
N4090 N 0.09772 0.30003 0.67066 0.0
N4091 N 0.0561 0.33831 0.67372 0.0
C4092 C 0.08555 0.30734 0.66882 0.0
C4093 C 0.06431 0.32707 0.67014 0.0
N4094 N 0.06132 0.28207 0.68794 0.0
N4095 N 0.08298 0.34684 0.64342 0.0
H4096 H 0.04508 0.33463 0.6836 0.0
H4097 H 0.06135 0.35213 0.66844 0.0
H4098 H 0.09401 0.35156 0.63342 0.0
H4099 H 0.07408 0.35274 0.64113 0.0
H4100 H 0.06695 0.27287 0.6858 0.0
H4101 H 0.04891 0.27605 0.69602 0.0
H4102 H 0.09614 0.28982 0.68098 0.0
H4103 H 0.11042 0.30541 0.6631 0.0
C4104 C 0.26759 0.32816 0.63634 0.0
C4105 C 0.26252 0.32106 0.65602 0.0
C4106 C 0.23417 0.32506 0.6532 0.0
C4107 C 0.23817 0.33029 0.63273 0.0
N4108 N 0.25708 0.33452 0.60364 0.0
N4109 N 0.23969 0.30998 0.68212 0.0
C4110 C 0.25448 0.33126 0.62396 0.0
C4111 C 0.24545 0.31877 0.66419 0.0
N4112 N 0.28517 0.33246 0.62976 0.0
N4113 N 0.21991 0.32663 0.66232 0.0
H4114 H 0.24764 0.30525 0.69069 0.0
H4115 H 0.2263 0.3059 0.68767 0.0
H4116 H 0.21132 0.33116 0.65475 0.0
H4117 H 0.21767 0.32507 0.67789 0.0
H4118 H 0.2906 0.33963 0.61658 0.0
H4119 H 0.29512 0.3303 0.63836 0.0
H4120 H 0.26744 0.33324 0.59573 0.0
H4121 H 0.24788 0.33708 0.59419 0.0
C4122 C 0.65931 0.93512 0.60773 0.0
C4123 C 0.67372 0.94331 0.6245 0.0
C4124 C 0.67351 0.91244 0.62571 0.0
C4125 C 0.66063 0.90498 0.60766 0.0
N4126 N 0.64284 0.90955 0.5799 0.0
N4127 N 0.69671 0.94107 0.64764 0.0
C4128 C 0.65392 0.9164 0.59822 0.0
C4129 C 0.68138 0.9323 0.63307 0.0
N4130 N 0.65044 0.94503 0.60131 0.0
N4131 N 0.67794 0.90042 0.636 0.0
H4132 H 0.70294 0.95563 0.65343 0.0
H4133 H 0.70433 0.93445 0.65279 0.0
H4134 H 0.67265 0.88584 0.6309 0.0
H4135 H 0.6855 0.90437 0.65045 0.0
H4136 H 0.63848 0.93901 0.5906 0.0
H4137 H 0.65403 0.95878 0.60794 0.0
H4138 H 0.63934 0.91805 0.57103 0.0
H4139 H 0.63823 0.89569 0.57277 0.0
C4140 C 0.06043 0.75899 0.67888 0.0
C4141 C 0.04628 0.73926 0.6727 0.0
C4142 C 0.065 0.73902 0.64406 0.0
C4143 C 0.07951 0.75849 0.65073 0.0
N4144 N 0.09292 0.78617 0.67593 0.0
N4145 N 0.03635 0.70927 0.65194 0.0
C4146 C 0.0778 0.76822 0.66863 0.0
C4147 C 0.04896 0.7289 0.65603 0.0
N4148 N 0.05693 0.76902 0.6941 0.0
N4149 N 0.06624 0.73046 0.6259 0.0
H4150 H 0.02423 0.70139 0.66015 0.0
H4151 H 0.03864 0.70042 0.64151 0.0
H4152 H 0.07805 0.73717 0.61699 0.0
H4153 H 0.05504 0.71726 0.6189 0.0
H4154 H 0.06559 0.78401 0.69783 0.0
H4155 H 0.04455 0.76255 0.70223 0.0
H4156 H 0.09346 0.79324 0.69003 0.0
H4157 H 0.1057 0.79345 0.66857 0.0
C4158 C 0.96453 0.57364 0.73899 0.0
C4159 C 0.97104 0.59258 0.74855 0.0
C4160 C 0.98747 0.58641 0.77722 0.0
C4161 C 0.98173 0.56782 0.7672 0.0
N4162 N 0.96751 0.54465 0.73743 0.0
N4163 N 0.99139 0.61853 0.77458 0.0
C4164 C 0.97107 0.56171 0.7477 0.0
C4165 C 0.98334 0.59943 0.76703 0.0
N4166 N 0.95163 0.56689 0.72199 0.0
N4167 N 0.9963 0.59134 0.79677 0.0
H4168 H 0.98851 0.62847 0.76769 0.0
H4169 H 0.00212 0.625 0.78669 0.0
H4170 H 3e-05 0.58242 0.80459 0.0
H4171 H 0.99872 0.60363 0.80587 0.0
H4172 H 0.94465 0.55249 0.71558 0.0
H4173 H 0.94684 0.5754 0.71499 0.0
H4174 H 0.96155 0.54028 0.72228 0.0
H4175 H 0.97186 0.53545 0.74358 0.0
C4176 C 0.42535 0.41283 0.75717 0.0
C4177 C 0.40736 0.40172 0.76579 0.0
C4178 C 0.41713 0.42748 0.79374 0.0
C4179 C 0.43465 0.43902 0.78446 0.0
N4180 N 0.4546 0.4443 0.75606 0.0
N4181 N 0.3847 0.39904 0.79037 0.0
C4182 C 0.4385 0.43217 0.76576 0.0
C4183 C 0.40284 0.40921 0.78356 0.0
N4184 N 0.4301 0.40461 0.74121 0.0
N4185 N 0.41438 0.43385 0.81246 0.0
H4186 H 0.37399 0.38546 0.78347 0.0
H4187 H 0.37975 0.40457 0.80188 0.0
H4188 H 0.42422 0.4475 0.81993 0.0
H4189 H 0.40301 0.42523 0.82124 0.0
H4190 H 0.44382 0.41104 0.73576 0.0
H4191 H 0.42071 0.39059 0.73428 0.0
H4192 H 0.45714 0.44106 0.74127 0.0
H4193 H 0.46489 0.45836 0.76219 0.0
C4194 C 0.60478 0.03725 0.71265 0.0
C4195 C 0.61936 0.0334 0.71992 0.0
C4196 C 0.60198 0.01995 0.75047 0.0
C4197 C 0.58827 0.0253 0.74406 0.0
N4198 N 0.57755 0.04114 0.72066 0.0
N4199 N 0.63366 0.02381 0.74689 0.0
C4200 C 0.58989 0.03451 0.72555 0.0
C4201 C 0.61847 0.02548 0.73916 0.0
N4202 N 0.60494 0.04307 0.69324 0.0
N4203 N 0.59895 0.00913 0.76706 0.0
H4204 H 0.64592 0.02748 0.73896 0.0
H4205 H 0.63488 0.02025 0.76181 0.0
H4206 H 0.58711 0.00493 0.77586 0.0
H4207 H 0.60726 0.00294 0.77117 0.0
H4208 H 0.59362 0.04408 0.68615 0.0
H4209 H 0.61583 0.04556 0.68354 0.0
H4210 H 0.57927 0.04986 0.70862 0.0
H4211 H 0.56629 0.0391 0.72959 0.0
loop_
_geom_bond_atom_site_label_1
_geom_bond_atom_site_label_2
_geom_bond_distance
_geom_bond_site_symmetry_2
_ccdc_geom_bond_type
Li0 N17 1.990 . S
Li0 O60 1.968 . S
Li0 O61 1.970 1_655 S
Li0 O62 1.961 . S
Li1 N25 1.990 . S
Li1 O60 1.944 1_455 S
Li1 O61 1.956 . S
Li1 O63 1.961 . S
Li2 N47 1.990 . S
Li2 O60 1.980 . S
Li2 O62 1.956 . S
Li2 O63 1.970 1_655 S
Li3 N53 1.990 1_554 S
Li3 O61 1.961 . S
Li3 O62 1.970 1_455 S
Li3 O63 1.956 . S
C4 C6 1.348 1_655 S
C4 C7 1.356 . S
C4 O60 1.325 . S
N5 C8 1.314 . S
N5 C9 1.279 . S
C6 C4 1.348 1_455 S
C6 C8 1.353 1_455 S
C6 H64 0.929 . S
C7 C4 1.356 . S
C7 C9 1.358 . S
C7 H65 0.930 . S
C8 N5 1.314 . S
C8 C6 1.353 1_655 S
C8 H66 0.930 1_655 S
C9 N5 1.279 . S
C9 C7 1.358 . S
C9 H67 0.930 . S
C10 C13 1.348 . S
C10 C14 1.356 . S
C10 O61 1.325 1_556 S
C11 N12 1.279 . S
C11 C14 1.358 . S
C11 H68 0.930 . S
N12 C11 1.279 . S
N12 C15 1.314 . S
C13 C10 1.348 . S
C13 C15 1.353 . S
C13 H69 0.929 1_455 S
C14 C10 1.356 . S
C14 C11 1.358 . S
C14 H70 0.930 . S
C15 N12 1.314 . S
C15 C13 1.353 . S
C15 H71 0.930 . S
C16 N17 1.314 1_556 S
C16 C21 1.353 . S
C16 H22 0.930 . S
N17 Li0 1.990 . S
N17 C16 1.314 1_554 S
N17 C19 1.279 . S
C18 C19 1.358 . S
C18 C20 1.356 1_554 S
C18 H72 0.930 . S
C19 N17 1.279 . S
C19 C18 1.358 . S
C19 H23 0.930 . S
C20 C18 1.356 1_556 S
C20 C21 1.348 . S
C21 C16 1.353 . S
C21 C20 1.348 . S
C21 H73 0.929 . S
H22 C16 0.930 . S
H23 C19 0.930 . S
C24 N25 1.314 . S
C24 C26 1.353 . S
C24 H30 0.930 . S
N25 Li1 1.990 . S
N25 C24 1.314 . S
N25 C28 1.279 . S
C26 C24 1.353 . S
C26 C29 1.348 . S
C26 H74 0.929 . S
C27 C28 1.358 . S
C27 C29 1.356 . S
C27 H75 0.930 . S
C28 N25 1.279 . S
C28 C27 1.358 . S
C28 H31 0.930 . S
C29 C26 1.348 . S
C29 C27 1.356 . S
H30 C24 0.930 . S
H31 C28 0.930 . S
C32 C34 1.348 1_554 S
C32 C35 1.356 . S
C32 O62 1.325 . S
N33 C36 1.314 . S
N33 C37 1.279 1_556 S
C34 C32 1.348 1_556 S
C34 C36 1.353 . S
C34 H76 0.929 . S
C35 C32 1.356 . S
C35 C37 1.358 . S
C35 H77 0.930 . S
C36 N33 1.314 . S
C36 C34 1.353 . S
C36 H78 0.930 . S
C37 N33 1.279 1_554 S
C37 C35 1.358 . S
C37 H79 0.930 . S
C38 C39 1.348 . S
C38 C40 1.356 . S
C38 O63 1.325 . S
C39 C38 1.348 . S
C39 C41 1.353 . S
C39 H80 0.929 . S
C40 C38 1.356 . S
C40 C42 1.358 . S
C40 H81 0.930 . S
C41 C39 1.353 . S
C41 N43 1.314 . S
C41 H82 0.930 . S
C42 C40 1.358 . S
C42 N43 1.279 . S
C42 H83 0.930 . S
N43 C41 1.314 . S
N43 C42 1.279 . S
C44 C46 1.353 . S
C44 N47 1.314 . S
C44 H50 0.930 1_655 S
C45 N47 1.279 . S
C45 C48 1.358 . S
C45 H51 0.930 . S
C46 C44 1.353 . S
C46 C49 1.348 . S
C46 H84 0.929 . S
N47 Li2 1.990 . S
N47 C44 1.314 . S
N47 C45 1.279 . S
C48 C45 1.358 . S
C48 C49 1.356 . S
C48 H85 0.930 . S
C49 C46 1.348 . S
C49 C48 1.356 . S
H50 C44 0.930 1_455 S
H51 C45 0.930 . S
C52 N53 1.314 . S
C52 C54 1.353 . S
C52 H58 0.930 . S
N53 Li3 1.990 1_556 S
N53 C52 1.314 . S
N53 C56 1.279 . S
C54 C52 1.353 . S
C54 C57 1.348 . S
C54 H86 0.929 . S
C55 C56 1.358 . S
C55 C57 1.356 . S
C55 H87 0.930 . S
C56 N53 1.279 . S
C56 C55 1.358 . S
C56 H59 0.930 . S
C57 C54 1.348 . S
C57 C55 1.356 . S
H58 C52 0.930 . S
H59 C56 0.930 . S
O60 Li0 1.968 . S
O60 Li1 1.944 1_655 S
O60 Li2 1.980 . S
O60 C4 1.325 . S
O61 Li0 1.970 1_455 S
O61 Li1 1.956 . S
O61 Li3 1.961 . S
O61 C10 1.325 1_554 S
O62 Li0 1.961 . S
O62 Li2 1.956 . S
O62 Li3 1.970 1_655 S
O62 C32 1.325 . S
O63 Li1 1.961 . S
O63 Li2 1.970 1_455 S
O63 Li3 1.956 . S
O63 C38 1.325 . S
H64 C6 0.929 . S
H65 C7 0.930 . S
H66 C8 0.930 1_455 S
H67 C9 0.930 . S
H68 C11 0.930 . S
H69 C13 0.929 1_655 S
H70 C14 0.930 . S
H71 C15 0.930 . S
H72 C18 0.930 . S
H73 C21 0.929 . S
H74 C26 0.929 . S
H75 C27 0.930 . S
H76 C34 0.929 . S
H77 C35 0.930 . S
H78 C36 0.930 . S
H79 C37 0.930 . S
H80 C39 0.929 . S
H81 C40 0.930 . S
H82 C41 0.930 . S
H83 C42 0.930 . S
H84 C46 0.929 . S
H85 C48 0.930 . S
H86 C54 0.929 . S
H87 C55 0.930 . S
Li88 N105 1.990 . S
Li88 O148 1.956 . S
Li88 O149 1.970 . S
Li88 O150 1.961 . S
Li89 N113 1.990 . S
Li89 O148 1.970 . S
Li89 O149 1.956 . S
Li89 O151 1.961 . S
Li90 N135 1.990 . S
Li90 O148 1.961 . S
Li90 O150 1.956 . S
Li90 O151 1.970 . S
Li91 N141 1.990 . S
Li91 O149 1.961 . S
Li91 O150 1.970 . S
Li91 O151 1.956 . S
C92 C94 1.348 . S
C92 C95 1.356 . S
C92 O148 1.325 . S
N93 C96 1.314 . S
N93 C97 1.279 . S
C94 C92 1.348 . S
C94 C96 1.353 . S
C94 H152 0.929 . S
C95 C92 1.356 . S
C95 C97 1.358 . S
C95 H153 0.930 . S
C96 N93 1.314 . S
C96 C94 1.353 . S
C96 H154 0.930 . S
C97 N93 1.279 . S
C97 C95 1.358 . S
C97 H155 0.930 . S
C98 C101 1.348 . S
C98 C102 1.356 . S
C98 O149 1.325 . S
C99 N100 1.283 . S
C99 C102 1.358 . S
C99 H156 0.943 . S
N100 C99 1.283 . S
N100 C103 1.319 . S
C101 C98 1.348 . S
C101 C103 1.353 . S
C101 H157 0.929 . S
C102 C98 1.356 . S
C102 C99 1.358 . S
C102 H158 0.930 . S
C103 N100 1.319 . S
C103 C101 1.353 . S
C103 H159 0.930 . S
C104 N105 1.314 . S
C104 C109 1.353 . S
C104 H110 0.930 . S
N105 Li88 1.990 . S
N105 C104 1.314 . S
N105 C107 1.279 . S
C106 C107 1.358 . S
C106 C108 1.356 . S
C106 H160 0.930 . S
C107 N105 1.279 . S
C107 C106 1.358 . S
C107 H111 0.930 . S
C108 C106 1.356 . S
C108 C109 1.348 . S
C109 C104 1.353 . S
C109 C108 1.348 . S
C109 H161 0.929 . S
H110 C104 0.930 . S
H111 C107 0.930 . S
C112 N113 1.314 . S
C112 C114 1.353 . S
C112 H118 0.930 . S
N113 Li89 1.990 . S
N113 C112 1.314 . S
N113 C116 1.279 . S
C114 C112 1.353 . S
C114 C117 1.348 . S
C114 H162 0.929 . S
C115 C116 1.358 . S
C115 C117 1.356 . S
C115 H163 0.930 . S
C116 N113 1.279 . S
C116 C115 1.358 . S
C116 H119 0.930 . S
C117 C114 1.348 . S
C117 C115 1.356 . S
H118 C112 0.930 . S
H119 C116 0.930 . S
C120 C122 1.348 . S
C120 C123 1.356 . S
C120 O150 1.325 . S
N121 C124 1.314 . S
N121 C125 1.279 . S
C122 C120 1.348 . S
C122 C124 1.353 . S
C122 H164 0.929 . S
C123 C120 1.356 . S
C123 C125 1.358 . S
C123 H165 0.930 . S
C124 N121 1.314 . S
C124 C122 1.353 . S
C124 H166 0.930 . S
C125 N121 1.279 . S
C125 C123 1.358 . S
C125 H167 0.930 . S
C126 C127 1.348 . S
C126 C128 1.356 . S
C126 O151 1.325 . S
C127 C126 1.348 . S
C127 C129 1.353 . S
C127 H168 0.929 . S
C128 C126 1.356 . S
C128 C130 1.358 . S
C128 H169 0.930 . S
C129 C127 1.353 . S
C129 N131 1.314 . S
C129 H170 0.930 . S
C130 C128 1.358 . S
C130 N131 1.279 . S
C130 H171 0.930 . S
N131 C129 1.314 . S
N131 C130 1.279 . S
C132 C134 1.353 . S
C132 N135 1.314 . S
C132 H138 0.930 . S
C133 N135 1.279 . S
C133 C136 1.358 . S
C133 H139 0.930 . S
C134 C132 1.353 . S
C134 C137 1.348 . S
C134 H172 0.929 . S
N135 Li90 1.990 . S
N135 C132 1.314 . S
N135 C133 1.279 . S
C136 C133 1.358 . S
C136 C137 1.356 . S
C136 H173 0.930 . S
C137 C134 1.348 . S
C137 C136 1.356 . S
H138 C132 0.930 . S
H139 C133 0.930 . S
C140 N141 1.325 . S
C140 C142 1.345 1_554 S
C140 H146 0.927 1_554 S
N141 Li91 1.990 . S
N141 C140 1.325 . S
N141 C144 1.279 . S
C142 C140 1.345 1_556 S
C142 C145 1.348 . S
C142 H174 0.929 . S
C143 C144 1.358 . S
C143 C145 1.356 1_554 S
C143 H175 0.930 . S
C144 N141 1.279 . S
C144 C143 1.358 . S
C144 H147 0.930 . S
C145 C142 1.348 . S
C145 C143 1.356 1_556 S
H146 C140 0.927 1_556 S
H147 C144 0.930 . S
O148 Li88 1.956 . S
O148 Li89 1.970 . S
O148 Li90 1.961 . S
O148 C92 1.325 . S
O149 Li88 1.970 . S
O149 Li89 1.956 . S
O149 Li91 1.961 . S
O149 C98 1.325 . S
O150 Li88 1.961 . S
O150 Li90 1.956 . S
O150 Li91 1.970 . S
O150 C120 1.325 . S
O151 Li89 1.961 . S
O151 Li90 1.970 . S
O151 Li91 1.956 . S
O151 C126 1.325 . S
H152 C94 0.929 . S
H153 C95 0.930 . S
H154 C96 0.930 . S
H155 C97 0.930 . S
H156 C99 0.943 . S
H157 C101 0.929 . S
H158 C102 0.930 . S
H159 C103 0.930 . S
H160 C106 0.930 . S
H161 C109 0.929 . S
H162 C114 0.929 . S
H163 C115 0.930 . S
H164 C122 0.929 . S
H165 C123 0.930 . S
H166 C124 0.930 . S
H167 C125 0.930 . S
H168 C127 0.929 . S
H169 C128 0.930 . S
H170 C129 0.930 . S
H171 C130 0.930 . S
H172 C134 0.929 . S
H173 C136 0.930 . S
H174 C142 0.929 . S
H175 C143 0.930 . S
Li176 N193 1.990 1_554 S
Li176 O236 1.956 . S
Li176 O237 1.970 1_565 S
Li176 O238 1.961 . S
Li177 N201 1.990 . S
Li177 O236 1.970 1_545 S
Li177 O237 1.956 . S
Li177 O239 1.961 . S
Li178 N223 1.990 . S
Li178 O236 1.961 . S
Li178 O238 1.956 . S
Li178 O239 1.970 1_565 S
Li179 N229 1.990 . S
Li179 O237 1.961 . S
Li179 O238 1.970 1_545 S
Li179 O239 1.956 . S
C180 C182 1.348 . S
C180 C183 1.356 . S
C180 O236 1.325 . S
N181 C184 1.314 . S
N181 C185 1.279 . S
C182 C180 1.348 . S
C182 C184 1.353 . S
C182 H240 0.929 . S
C183 C180 1.356 . S
C183 C185 1.358 . S
C183 H241 0.930 . S
C184 N181 1.314 . S
C184 C182 1.353 . S
C184 H242 0.930 . S
C185 N181 1.279 . S
C185 C183 1.358 . S
C185 H243 0.930 . S
C186 C189 1.348 . S
C186 C190 1.356 . S
C186 O237 1.325 . S
C187 N188 1.279 . S
C187 C190 1.358 . S
C187 H244 0.930 . S
N188 C187 1.279 . S
N188 C191 1.314 1_554 S
C189 C186 1.348 . S
C189 C191 1.353 1_554 S
C189 H245 0.929 1_554 S
C190 C186 1.356 . S
C190 C187 1.358 . S
C190 H246 0.930 . S
C191 N188 1.314 1_556 S
C191 C189 1.353 1_556 S
C191 H247 0.930 . S
C192 N193 1.314 . S
C192 C197 1.353 . S
C192 H198 0.930 . S
N193 Li176 1.990 1_556 S
N193 C192 1.314 . S
N193 C195 1.279 . S
C194 C195 1.358 . S
C194 C196 1.356 . S
C194 H248 0.930 . S
C195 N193 1.279 . S
C195 C194 1.358 . S
C195 H199 0.930 . S
C196 C194 1.356 . S
C196 C197 1.348 . S
C197 C192 1.353 . S
C197 C196 1.348 . S
C197 H249 0.929 . S
H198 C192 0.930 . S
H199 C195 0.930 . S
C200 N201 1.314 . S
C200 C202 1.353 . S
C200 H206 0.930 . S
N201 Li177 1.990 . S
N201 C200 1.314 . S
N201 C204 1.279 . S
C202 C200 1.353 . S
C202 C205 1.348 . S
C202 H250 0.929 . S
C203 C204 1.358 . S
C203 C205 1.356 . S
C203 H251 0.930 . S
C204 N201 1.279 . S
C204 C203 1.358 . S
C204 H207 0.930 . S
C205 C202 1.348 . S
C205 C203 1.356 . S
H206 C200 0.930 . S
H207 C204 0.930 . S
C208 C210 1.348 . S
C208 C211 1.356 . S
C208 O238 1.325 1_556 S
N209 C212 1.314 . S
N209 C213 1.279 . S
C210 C208 1.348 . S
C210 C212 1.353 . S
C210 H252 0.929 1_565 S
C211 C208 1.356 . S
C211 C213 1.358 . S
C211 H253 0.930 . S
C212 N209 1.314 . S
C212 C210 1.353 . S
C212 H254 0.930 . S
C213 N209 1.279 . S
C213 C211 1.358 . S
C213 H255 0.930 . S
C214 C215 1.348 . S
C214 C216 1.356 . S
C214 O239 1.325 . S
C215 C214 1.348 . S
C215 C217 1.353 . S
C215 H256 0.929 1_545 S
C216 C214 1.356 . S
C216 C218 1.358 . S
C216 H257 0.930 . S
C217 C215 1.353 . S
C217 N219 1.314 . S
C217 H258 0.930 . S
C218 C216 1.358 . S
C218 N219 1.279 . S
C218 H259 0.930 . S
N219 C217 1.314 . S
N219 C218 1.279 . S
C220 C222 1.353 . S
C220 N223 1.314 . S
C220 H226 0.930 . S
C221 N223 1.279 . S
C221 C224 1.358 . S
C221 H227 0.930 . S
C222 C220 1.353 . S
C222 C225 1.348 . S
C222 H260 0.929 . S
N223 Li178 1.990 . S
N223 C220 1.314 . S
N223 C221 1.279 . S
C224 C221 1.358 . S
C224 C225 1.356 . S
C224 H261 0.930 . S
C225 C222 1.348 . S
C225 C224 1.356 . S
H226 C220 0.930 . S
H227 C221 0.930 . S
C228 N229 1.314 1_556 S
C228 C230 1.353 . S
C228 H234 0.930 . S
N229 Li179 1.990 . S
N229 C228 1.314 1_554 S
N229 C232 1.279 . S
C230 C228 1.353 . S
C230 C233 1.348 . S
C230 H262 0.929 . S
C231 C232 1.358 . S
C231 C233 1.356 1_554 S
C231 H263 0.930 . S
C232 N229 1.279 . S
C232 C231 1.358 . S
C232 H235 0.930 . S
C233 C230 1.348 . S
C233 C231 1.356 1_556 S
H234 C228 0.930 . S
H235 C232 0.930 . S
O236 Li176 1.956 . S
O236 Li177 1.970 1_565 S
O236 Li178 1.961 . S
O236 C180 1.325 . S
O237 Li176 1.970 1_545 S
O237 Li177 1.956 . S
O237 Li179 1.961 . S
O237 C186 1.325 . S
O238 Li176 1.961 . S
O238 Li178 1.956 . S
O238 Li179 1.970 1_565 S
O238 C208 1.325 1_554 S
O239 Li177 1.961 . S
O239 Li178 1.970 1_545 S
O239 Li179 1.956 . S
O239 C214 1.325 . S
H240 C182 0.929 . S
H241 C183 0.930 . S
H242 C184 0.930 . S
H243 C185 0.930 . S
H244 C187 0.930 . S
H245 C189 0.929 1_556 S
H246 C190 0.930 . S
H247 C191 0.930 . S
H248 C194 0.930 . S
H249 C197 0.929 . S
H250 C202 0.929 . S
H251 C203 0.930 . S
H252 C210 0.929 1_545 S
H253 C211 0.930 . S
H254 C212 0.930 . S
H255 C213 0.930 . S
H256 C215 0.929 1_565 S
H257 C216 0.930 . S
H258 C217 0.930 . S
H259 C218 0.930 . S
H260 C222 0.929 . S
H261 C224 0.930 . S
H262 C230 0.929 . S
H263 C231 0.930 . S
Li264 N281 1.990 . S
Li264 O324 1.956 . S
Li264 O325 1.970 1_455 S
Li264 O326 1.961 . S
Li265 N289 1.990 . S
Li265 O324 1.970 1_655 S
Li265 O325 1.956 . S
Li265 O327 1.961 . S
Li266 N311 2.032 . S
Li266 O324 1.961 . S
Li266 O326 1.956 . S
Li266 O327 1.970 1_455 S
Li267 N317 1.990 . S
Li267 O325 1.961 . S
Li267 O326 1.970 1_655 S
Li267 O327 1.956 . S
C268 C270 1.348 . S
C268 C271 1.356 . S
C268 O324 1.325 . S
N269 C272 1.314 . S
N269 C273 1.279 . S
C270 C268 1.348 . S
C270 C272 1.353 . S
C270 H328 0.929 . S
C271 C268 1.356 . S
C271 C273 1.358 . S
C271 H329 0.930 . S
C272 N269 1.314 . S
C272 C270 1.353 . S
C272 H330 0.930 . S
C273 N269 1.279 . S
C273 C271 1.358 . S
C273 H331 0.930 . S
C274 C277 1.348 1_655 S
C274 C278 1.356 . S
C274 O325 1.325 . S
C275 N276 1.279 . S
C275 C278 1.358 . S
C275 H332 0.930 . S
N276 C275 1.279 . S
N276 C279 1.314 . S
C277 C274 1.348 1_455 S
C277 C279 1.353 1_455 S
C277 H333 0.929 . S
C278 C274 1.356 . S
C278 C275 1.358 . S
C278 H334 0.930 . S
C279 N276 1.314 . S
C279 C277 1.353 1_655 S
C279 H335 0.930 1_655 S
C280 N281 1.314 . S
C280 C285 1.353 . S
C280 H286 0.930 . S
N281 Li264 1.990 . S
N281 C280 1.314 . S
N281 C283 1.279 . S
C282 C283 1.358 . S
C282 C284 1.356 . S
C282 H336 0.930 . S
C283 N281 1.279 . S
C283 C282 1.358 . S
C283 H287 0.930 . S
C284 C282 1.356 . S
C284 C285 1.348 . S
C285 C280 1.353 . S
C285 C284 1.348 . S
C285 H337 0.929 . S
H286 C280 0.930 . S
H287 C283 0.930 . S
C288 N289 1.314 . S
C288 C290 1.353 . S
C288 H294 0.930 . S
N289 Li265 1.990 . S
N289 C288 1.314 . S
N289 C292 1.279 . S
C290 C288 1.353 . S
C290 C293 1.348 . S
C290 H338 0.929 . S
C291 C292 1.358 . S
C291 C293 1.356 . S
C291 H339 0.930 . S
C292 N289 1.279 . S
C292 C291 1.358 . S
C292 H295 0.930 . S
C293 C290 1.348 . S
C293 C291 1.356 . S
H294 C288 0.930 . S
H295 C292 0.930 . S
C296 C298 1.326 1_454 S
C296 C299 1.356 . S
C296 O326 1.325 . S
N297 C300 1.314 . S
N297 C301 1.279 . S
C298 C296 1.326 1_656 S
C298 C300 1.351 1_655 S
C298 H340 0.953 . S
C299 C296 1.356 . S
C299 C301 1.358 1_554 S
C299 H341 0.930 . S
C300 N297 1.314 . S
C300 C298 1.351 1_455 S
C300 H342 0.930 1_455 S
C301 N297 1.279 . S
C301 C299 1.358 1_556 S
C301 H343 0.930 . S
C302 C303 1.348 . S
C302 C304 1.356 . S
C302 O327 1.325 . S
C303 C302 1.348 . S
C303 C305 1.353 . S
C303 H344 0.930 1_554 S
C304 C302 1.356 . S
C304 C306 1.358 . S
C304 H345 0.930 . S
C305 C303 1.353 . S
C305 N307 1.314 . S
C305 H346 0.930 1_554 S
C306 C304 1.358 . S
C306 N307 1.279 . S
C306 H347 0.930 . S
N307 C305 1.314 . S
N307 C306 1.279 . S
C308 C310 1.353 1_554 S
C308 N311 1.321 . S
C308 H314 0.930 . S
C309 N311 1.228 1_556 S
C309 C312 1.358 . S
C309 H315 0.930 . S
C310 C308 1.353 1_556 S
C310 C313 1.348 . S
C310 H348 0.929 . S
N311 Li266 2.032 . S
N311 C308 1.321 . S
N311 C309 1.228 1_554 S
C312 C309 1.358 . S
C312 C313 1.356 . S
C312 H349 0.930 . S
C313 C310 1.348 . S
C313 C312 1.356 . S
H314 C308 0.930 . S
H315 C309 0.930 . S
C316 N317 1.314 . S
C316 C318 1.353 . S
C316 H322 0.930 . S
N317 Li267 1.990 . S
N317 C316 1.314 . S
N317 C320 1.279 . S
C318 C316 1.353 . S
C318 C321 1.348 . S
C318 H350 0.929 . S
C319 C320 1.358 . S
C319 C321 1.356 . S
C319 H351 0.930 . S
C320 N317 1.279 . S
C320 C319 1.358 . S
C320 H323 0.930 . S
C321 C318 1.348 . S
C321 C319 1.356 . S
H322 C316 0.930 . S
H323 C320 0.930 . S
O324 Li264 1.956 . S
O324 Li265 1.970 1_455 S
O324 Li266 1.961 . S
O324 C268 1.325 . S
O325 Li264 1.970 1_655 S
O325 Li265 1.956 . S
O325 Li267 1.961 . S
O325 C274 1.325 . S
O326 Li264 1.961 . S
O326 Li266 1.956 . S
O326 Li267 1.970 1_455 S
O326 C296 1.325 . S
O327 Li265 1.961 . S
O327 Li266 1.970 1_655 S
O327 Li267 1.956 . S
O327 C302 1.325 . S
H328 C270 0.929 . S
H329 C271 0.930 . S
H330 C272 0.930 . S
H331 C273 0.930 . S
H332 C275 0.930 . S
H333 C277 0.929 . S
H334 C278 0.930 . S
H335 C279 0.930 1_455 S
H336 C282 0.930 . S
H337 C285 0.929 . S
H338 C290 0.929 . S
H339 C291 0.930 . S
H340 C298 0.953 . S
H341 C299 0.930 . S
H342 C300 0.930 1_655 S
H343 C301 0.930 . S
H344 C303 0.930 1_556 S
H345 C304 0.930 . S
H346 C305 0.930 1_556 S
H347 C306 0.930 . S
H348 C310 0.929 . S
H349 C312 0.930 . S
H350 C318 0.929 . S
H351 C319 0.930 . S
Li352 N369 1.990 . S
Li352 O412 1.956 . S
Li352 O413 1.970 . S
Li352 O414 1.961 1_554 S
Li353 N377 1.990 . S
Li353 O412 1.970 . S
Li353 O413 1.956 . S
Li353 O415 1.961 1_554 S
Li354 N399 1.990 . S
Li354 O412 1.961 1_556 S
Li354 O414 1.956 . S
Li354 O415 1.970 . S
Li355 N405 1.990 . S
Li355 O413 1.961 1_556 S
Li355 O414 1.970 . S
Li355 O415 1.956 . S
C356 C358 1.348 . S
C356 C359 1.356 . S
C356 O412 1.325 . S
N357 C360 1.314 . S
N357 C361 1.279 . S
C358 C356 1.348 . S
C358 C360 1.353 . S
C358 H416 0.929 . S
C359 C356 1.356 . S
C359 C361 1.358 . S
C359 H417 0.930 . S
C360 N357 1.314 . S
C360 C358 1.353 . S
C360 H418 0.930 . S
C361 N357 1.279 . S
C361 C359 1.358 . S
C361 H419 0.930 . S
C362 C365 1.348 . S
C362 C366 1.356 . S
C362 O413 1.325 . S
C363 N364 1.279 . S
C363 C366 1.358 . S
C363 H420 0.930 . S
N364 C363 1.279 . S
N364 C367 1.314 . S
C365 C362 1.348 . S
C365 C367 1.353 . S
C365 H421 0.929 . S
C366 C362 1.356 . S
C366 C363 1.358 . S
C366 H422 0.930 . S
C367 N364 1.314 . S
C367 C365 1.353 . S
C367 H423 0.930 . S
C368 N369 1.314 . S
C368 C373 1.353 . S
C368 H374 0.930 . S
N369 Li352 1.990 . S
N369 C368 1.314 . S
N369 C371 1.279 . S
C370 C371 1.358 . S
C370 C372 1.356 . S
C370 H424 0.930 . S
C371 N369 1.279 . S
C371 C370 1.358 . S
C371 H375 0.930 . S
C372 C370 1.356 . S
C372 C373 1.348 . S
C373 C368 1.353 . S
C373 C372 1.348 . S
C373 H425 0.929 . S
H374 C368 0.930 . S
H375 C371 0.930 . S
C376 N377 1.314 . S
C376 C378 1.353 . S
C376 H382 0.930 . S
N377 Li353 1.990 . S
N377 C376 1.314 . S
N377 C380 1.279 . S
C378 C376 1.353 . S
C378 C381 1.348 . S
C378 H426 0.929 . S
C379 C380 1.358 . S
C379 C381 1.356 . S
C379 H427 0.930 . S
C380 N377 1.279 . S
C380 C379 1.358 . S
C380 H383 0.930 . S
C381 C378 1.348 . S
C381 C379 1.356 . S
H382 C376 0.930 . S
H383 C380 0.930 . S
C384 C386 1.348 . S
C384 C387 1.356 . S
C384 O414 1.325 . S
N385 C388 1.314 . S
N385 C389 1.279 . S
C386 C384 1.348 . S
C386 C388 1.353 . S
C386 H428 0.929 . S
C387 C384 1.356 . S
C387 C389 1.358 . S
C387 H429 0.930 . S
C388 N385 1.314 . S
C388 C386 1.353 . S
C388 H430 0.930 . S
C389 N385 1.279 . S
C389 C387 1.358 . S
C389 H431 0.930 . S
C390 C391 1.348 . S
C390 C392 1.330 1_556 S
C390 O415 1.325 . S
C391 C390 1.348 . S
C391 C393 1.353 . S
C391 H432 0.929 . S
C392 C390 1.330 1_554 S
C392 C394 1.337 1_554 S
C392 H433 0.980 . S
C393 C391 1.353 . S
C393 N395 1.314 . S
C393 H434 0.930 . S
C394 C392 1.337 1_556 S
C394 N395 1.279 . S
C394 H435 0.930 1_556 S
N395 C393 1.314 . S
N395 C394 1.279 . S
C396 C398 1.353 . S
C396 N399 1.314 . S
C396 H402 0.930 . S
C397 N399 1.279 . S
C397 C400 1.358 . S
C397 H403 0.930 . S
C398 C396 1.353 . S
C398 C401 1.348 . S
C398 H436 0.929 . S
N399 Li354 1.990 . S
N399 C396 1.314 . S
N399 C397 1.279 . S
C400 C397 1.358 . S
C400 C401 1.356 . S
C400 H437 0.930 . S
C401 C398 1.348 . S
C401 C400 1.356 . S
H402 C396 0.930 . S
H403 C397 0.930 . S
C404 N405 1.314 . S
C404 C406 1.353 . S
C404 H410 0.930 . S
N405 Li355 1.990 . S
N405 C404 1.314 . S
N405 C408 1.279 . S
C406 C404 1.353 . S
C406 C409 1.348 . S
C406 H438 0.929 . S
C407 C408 1.358 . S
C407 C409 1.356 . S
C407 H439 0.930 . S
C408 N405 1.279 . S
C408 C407 1.358 . S
C408 H411 0.930 . S
C409 C406 1.348 . S
C409 C407 1.356 . S
H410 C404 0.930 . S
H411 C408 0.930 . S
O412 Li352 1.956 . S
O412 Li353 1.970 . S
O412 Li354 1.961 1_554 S
O412 C356 1.325 . S
O413 Li352 1.970 . S
O413 Li353 1.956 . S
O413 Li355 1.961 1_554 S
O413 C362 1.325 . S
O414 Li352 1.961 1_556 S
O414 Li354 1.956 . S
O414 Li355 1.970 . S
O414 C384 1.325 . S
O415 Li353 1.961 1_556 S
O415 Li354 1.970 . S
O415 Li355 1.956 . S
O415 C390 1.325 . S
H416 C358 0.929 . S
H417 C359 0.930 . S
H418 C360 0.930 . S
H419 C361 0.930 . S
H420 C363 0.930 . S
H421 C365 0.929 . S
H422 C366 0.930 . S
H423 C367 0.930 . S
H424 C370 0.930 . S
H425 C373 0.929 . S
H426 C378 0.929 . S
H427 C379 0.930 . S
H428 C386 0.929 . S
H429 C387 0.930 . S
H430 C388 0.930 . S
H431 C389 0.930 . S
H432 C391 0.929 . S
H433 C392 0.980 . S
H434 C393 0.930 . S
H435 C394 0.930 1_554 S
H436 C398 0.929 . S
H437 C400 0.930 . S
H438 C406 0.929 . S
H439 C407 0.930 . S
Li440 N457 1.990 . S
Li440 O500 1.956 . S
Li440 O501 1.970 1_565 S
Li440 O502 1.961 . S
Li441 N465 1.990 . S
Li441 O500 1.970 1_545 S
Li441 O501 1.956 . S
Li441 O503 1.961 . S
Li442 N487 1.990 . S
Li442 O500 1.961 . S
Li442 O502 1.956 . S
Li442 O503 1.970 1_565 S
Li443 N493 1.990 . S
Li443 O501 1.961 . S
Li443 O502 1.970 1_545 S
Li443 O503 1.956 . S
C444 C446 1.348 . S
C444 C447 1.356 . S
C444 O500 1.325 . S
N445 C448 1.314 . S
N445 C449 1.279 . S
C446 C444 1.348 . S
C446 C448 1.353 . S
C446 H504 0.929 . S
C447 C444 1.356 . S
C447 C449 1.358 . S
C447 H505 0.930 . S
C448 N445 1.314 . S
C448 C446 1.353 . S
C448 H506 0.930 . S
C449 N445 1.279 . S
C449 C447 1.358 . S
C449 H507 0.930 . S
C450 C453 1.348 . S
C450 C454 1.356 . S
C450 O501 1.325 . S
C451 N452 1.279 . S
C451 C454 1.358 . S
C451 H508 0.930 . S
N452 C451 1.279 . S
N452 C455 1.314 . S
C453 C450 1.348 . S
C453 C455 1.353 . S
C453 H509 0.929 1_545 S
C454 C450 1.356 . S
C454 C451 1.358 . S
C454 H510 0.930 . S
C455 N452 1.314 . S
C455 C453 1.353 . S
C455 H511 0.930 . S
C456 N457 1.314 . S
C456 C461 1.353 . S
C456 H462 0.930 . S
N457 Li440 1.990 . S
N457 C456 1.314 . S
N457 C459 1.279 . S
C458 C459 1.358 . S
C458 C460 1.356 . S
C458 H512 0.930 . S
C459 N457 1.279 . S
C459 C458 1.358 . S
C459 H463 0.930 . S
C460 C458 1.356 . S
C460 C461 1.348 . S
C461 C456 1.353 . S
C461 C460 1.348 . S
C461 H513 0.929 . S
H462 C456 0.930 . S
H463 C459 0.930 . S
C464 N465 1.314 . S
C464 C466 1.353 . S
C464 H470 0.930 . S
N465 Li441 1.990 . S
N465 C464 1.314 . S
N465 C468 1.279 . S
C466 C464 1.353 . S
C466 C469 1.348 . S
C466 H514 0.929 . S
C467 C468 1.358 . S
C467 C469 1.356 . S
C467 H515 0.930 . S
C468 N465 1.279 . S
C468 C467 1.358 . S
C468 H471 0.930 . S
C469 C466 1.348 . S
C469 C467 1.356 . S
H470 C464 0.930 . S
H471 C468 0.930 . S
C472 C474 1.348 1_564 S
C472 C475 1.356 . S
C472 O502 1.325 . S
N473 C476 1.314 . S
N473 C477 1.279 . S
C474 C472 1.348 1_546 S
C474 C476 1.353 1_545 S
C474 H516 0.930 . S
C475 C472 1.356 . S
C475 C477 1.358 1_554 S
C475 H517 0.930 . S
C476 N473 1.314 . S
C476 C474 1.353 1_565 S
C476 H518 0.930 1_565 S
C477 N473 1.279 . S
C477 C475 1.358 1_556 S
C477 H519 0.930 . S
C478 C479 1.348 . S
C478 C480 1.356 . S
C478 O503 1.325 . S
C479 C478 1.348 . S
C479 C481 1.353 . S
C479 H520 0.929 . S
C480 C478 1.356 . S
C480 C482 1.358 . S
C480 H521 0.930 . S
C481 C479 1.353 . S
C481 N483 1.314 . S
C481 H522 0.930 1_554 S
C482 C480 1.358 . S
C482 N483 1.279 . S
C482 H523 0.930 . S
N483 C481 1.314 . S
N483 C482 1.279 . S
C484 C486 1.353 1_554 S
C484 N487 1.314 . S
C484 H490 0.930 . S
C485 N487 1.279 1_556 S
C485 C488 1.358 . S
C485 H491 0.930 . S
C486 C484 1.353 1_556 S
C486 C489 1.348 . S
C486 H524 0.929 . S
N487 Li442 1.990 . S
N487 C484 1.314 . S
N487 C485 1.279 1_554 S
C488 C485 1.358 . S
C488 C489 1.356 . S
C488 H525 0.930 . S
C489 C486 1.348 . S
C489 C488 1.356 . S
H490 C484 0.930 . S
H491 C485 0.930 . S
C492 N493 1.314 . S
C492 C494 1.353 . S
C492 H498 0.930 . S
N493 Li443 1.990 . S
N493 C492 1.314 . S
N493 C496 1.279 . S
C494 C492 1.353 . S
C494 C497 1.348 . S
C494 H526 0.929 . S
C495 C496 1.358 . S
C495 C497 1.356 . S
C495 H527 0.930 . S
C496 N493 1.279 . S
C496 C495 1.358 . S
C496 H499 0.930 . S
C497 C494 1.348 . S
C497 C495 1.356 . S
H498 C492 0.930 . S
H499 C496 0.930 . S
O500 Li440 1.956 . S
O500 Li441 1.970 1_565 S
O500 Li442 1.961 . S
O500 C444 1.325 . S
O501 Li440 1.970 1_545 S
O501 Li441 1.956 . S
O501 Li443 1.961 . S
O501 C450 1.325 . S
O502 Li440 1.961 . S
O502 Li442 1.956 . S
O502 Li443 1.970 1_565 S
O502 C472 1.325 . S
O503 Li441 1.961 . S
O503 Li442 1.970 1_545 S
O503 Li443 1.956 . S
O503 C478 1.325 . S
H504 C446 0.929 . S
H505 C447 0.930 . S
H506 C448 0.930 . S
H507 C449 0.930 . S
H508 C451 0.930 . S
H509 C453 0.929 1_565 S
H510 C454 0.930 . S
H511 C455 0.930 . S
H512 C458 0.930 . S
H513 C461 0.929 . S
H514 C466 0.929 . S
H515 C467 0.930 . S
H516 C474 0.930 . S
H517 C475 0.930 . S
H518 C476 0.930 1_545 S
H519 C477 0.930 . S
H520 C479 0.929 . S
H521 C480 0.930 . S
H522 C481 0.930 1_556 S
H523 C482 0.930 . S
H524 C486 0.929 . S
H525 C488 0.930 . S
H526 C494 0.929 . S
H527 C495 0.930 . S
Li528 N545 1.990 . S
Li528 O588 1.956 . S
Li528 O589 1.970 . S
Li528 O590 1.961 . S
Li529 N553 1.990 . S
Li529 O588 1.970 . S
Li529 O589 1.956 . S
Li529 O591 1.961 . S
Li530 N575 1.990 . S
Li530 O588 1.961 . S
Li530 O590 1.956 . S
Li530 O591 1.970 . S
Li531 N581 1.990 . S
Li531 O589 1.961 . S
Li531 O590 1.970 . S
Li531 O591 1.956 . S
C532 C534 1.348 . S
C532 C535 1.356 . S
C532 O588 1.325 . S
N533 C536 1.314 . S
N533 C537 1.279 . S
C534 C532 1.348 . S
C534 C536 1.353 . S
C534 H592 0.929 . S
C535 C532 1.356 . S
C535 C537 1.358 . S
C535 H593 0.930 . S
C536 N533 1.314 . S
C536 C534 1.353 . S
C536 H594 0.930 . S
C537 N533 1.279 . S
C537 C535 1.358 . S
C537 H595 0.930 . S
C538 C541 1.348 . S
C538 C542 1.356 . S
C538 O589 1.325 . S
C539 N540 1.279 . S
C539 C542 1.358 . S
C539 H596 0.930 . S
N540 C539 1.279 . S
N540 C543 1.314 . S
C541 C538 1.348 . S
C541 C543 1.353 . S
C541 H597 0.929 . S
C542 C538 1.356 . S
C542 C539 1.358 . S
C542 H598 0.930 . S
C543 N540 1.314 . S
C543 C541 1.353 . S
C543 H599 0.930 . S
C544 N545 1.314 . S
C544 C549 1.353 . S
C544 H550 0.930 . S
N545 Li528 1.990 . S
N545 C544 1.314 . S
N545 C547 1.279 . S
C546 C547 1.358 . S
C546 C548 1.356 . S
C546 H600 0.930 . S
C547 N545 1.279 . S
C547 C546 1.358 . S
C547 H551 0.930 . S
C548 C546 1.356 . S
C548 C549 1.348 . S
C549 C544 1.353 . S
C549 C548 1.348 . S
C549 H601 0.929 . S
H550 C544 0.930 . S
H551 C547 0.930 . S
C552 N553 1.314 . S
C552 C554 1.353 . S
C552 H558 0.930 . S
N553 Li529 1.990 . S
N553 C552 1.314 . S
N553 C556 1.279 . S
C554 C552 1.353 . S
C554 C557 1.348 . S
C554 H602 0.929 . S
C555 C556 1.358 . S
C555 C557 1.356 . S
C555 H603 0.930 . S
C556 N553 1.279 . S
C556 C555 1.358 . S
C556 H559 0.930 . S
C557 C554 1.348 . S
C557 C555 1.356 . S
H558 C552 0.930 . S
H559 C556 0.930 . S
C560 C562 1.348 . S
C560 C563 1.356 . S
C560 O590 1.325 . S
N561 C564 1.314 . S
N561 C565 1.279 . S
C562 C560 1.348 . S
C562 C564 1.353 . S
C562 H604 0.929 . S
C563 C560 1.356 . S
C563 C565 1.358 . S
C563 H605 0.930 . S
C564 N561 1.314 . S
C564 C562 1.353 . S
C564 H606 0.930 . S
C565 N561 1.279 . S
C565 C563 1.358 . S
C565 H607 0.930 . S
C566 C567 1.348 . S
C566 C568 1.356 . S
C566 O591 1.325 . S
C567 C566 1.348 . S
C567 C569 1.353 . S
C567 H608 0.929 . S
C568 C566 1.356 . S
C568 C570 1.358 . S
C568 H609 0.930 . S
C569 C567 1.353 . S
C569 N571 1.314 . S
C569 H610 0.930 . S
C570 C568 1.358 . S
C570 N571 1.279 . S
C570 H611 0.930 . S
N571 C569 1.314 . S
N571 C570 1.279 . S
C572 C574 1.353 . S
C572 N575 1.314 . S
C572 H578 0.930 . S
C573 N575 1.279 . S
C573 C576 1.358 . S
C573 H579 0.930 . S
C574 C572 1.353 . S
C574 C577 1.348 . S
C574 H612 0.929 . S
N575 Li530 1.990 . S
N575 C572 1.314 . S
N575 C573 1.279 . S
C576 C573 1.358 . S
C576 C577 1.356 . S
C576 H613 0.930 . S
C577 C574 1.348 . S
C577 C576 1.356 . S
H578 C572 0.930 . S
H579 C573 0.930 . S
C580 N581 1.314 . S
C580 C582 1.353 . S
C580 H586 0.930 . S
N581 Li531 1.990 . S
N581 C580 1.314 . S
N581 C584 1.279 . S
C582 C580 1.353 . S
C582 C585 1.348 . S
C582 H614 0.929 . S
C583 C584 1.358 . S
C583 C585 1.356 . S
C583 H615 0.930 . S
C584 N581 1.279 . S
C584 C583 1.358 . S
C584 H587 0.930 . S
C585 C582 1.348 . S
C585 C583 1.356 . S
H586 C580 0.930 . S
H587 C584 0.930 . S
O588 Li528 1.956 . S
O588 Li529 1.970 . S
O588 Li530 1.961 . S
O588 C532 1.325 . S
O589 Li528 1.970 . S
O589 Li529 1.956 . S
O589 Li531 1.961 . S
O589 C538 1.325 . S
O590 Li528 1.961 . S
O590 Li530 1.956 . S
O590 Li531 1.970 . S
O590 C560 1.325 . S
O591 Li529 1.961 . S
O591 Li530 1.970 . S
O591 Li531 1.956 . S
O591 C566 1.325 . S
H592 C534 0.929 . S
H593 C535 0.930 . S
H594 C536 0.930 . S
H595 C537 0.930 . S
H596 C539 0.930 . S
H597 C541 0.929 . S
H598 C542 0.930 . S
H599 C543 0.930 . S
H600 C546 0.930 . S
H601 C549 0.929 . S
H602 C554 0.929 . S
H603 C555 0.930 . S
H604 C562 0.929 . S
H605 C563 0.930 . S
H606 C564 0.930 . S
H607 C565 0.930 . S
H608 C567 0.929 . S
H609 C568 0.930 . S
H610 C569 0.930 . S
H611 C570 0.930 . S
H612 C574 0.929 . S
H613 C576 0.930 . S
H614 C582 0.929 . S
H615 C583 0.930 . S
Li616 N633 1.990 . S
Li616 O676 1.956 . S
Li616 O677 1.970 . S
Li616 O678 1.961 . S
Li617 N641 1.990 . S
Li617 O676 1.970 . S
Li617 O677 1.956 . S
Li617 O679 1.961 . S
Li618 N663 1.990 1_565 S
Li618 O676 1.961 . S
Li618 O678 1.956 . S
Li618 O679 1.970 . S
Li619 N669 1.990 . S
Li619 O677 1.961 . S
Li619 O678 1.970 . S
Li619 O679 1.956 . S
C620 C622 1.348 . S
C620 C623 1.356 . S
C620 O676 1.325 . S
N621 C624 1.314 . S
N621 C625 1.279 . S
C622 C620 1.348 . S
C622 C624 1.353 . S
C622 H680 0.929 . S
C623 C620 1.356 . S
C623 C625 1.358 . S
C623 H681 0.930 . S
C624 N621 1.314 . S
C624 C622 1.353 . S
C624 H682 0.930 . S
C625 N621 1.279 . S
C625 C623 1.358 . S
C625 H683 0.930 . S
C626 C629 1.348 . S
C626 C630 1.356 . S
C626 O677 1.325 . S
C627 N628 1.279 . S
C627 C630 1.358 . S
C627 H684 0.930 . S
N628 C627 1.279 . S
N628 C631 1.314 . S
C629 C626 1.348 . S
C629 C631 1.353 . S
C629 H685 0.929 . S
C630 C626 1.356 . S
C630 C627 1.358 . S
C630 H686 0.930 . S
C631 N628 1.314 . S
C631 C629 1.353 . S
C631 H687 0.930 . S
C632 N633 1.314 . S
C632 C637 1.353 . S
C632 H638 0.930 . S
N633 Li616 1.990 . S
N633 C632 1.314 . S
N633 C635 1.279 . S
C634 C635 1.358 . S
C634 C636 1.356 . S
C634 H688 0.930 . S
C635 N633 1.279 . S
C635 C634 1.358 . S
C635 H639 0.930 . S
C636 C634 1.356 . S
C636 C637 1.348 . S
C637 C632 1.353 . S
C637 C636 1.348 . S
C637 H689 0.929 . S
H638 C632 0.930 . S
H639 C635 0.930 . S
C640 N641 1.314 . S
C640 C642 1.353 . S
C640 H646 0.930 . S
N641 Li617 1.990 . S
N641 C640 1.314 . S
N641 C644 1.279 . S
C642 C640 1.353 . S
C642 C645 1.348 . S
C642 H690 0.929 . S
C643 C644 1.358 . S
C643 C645 1.356 . S
C643 H691 0.930 . S
C644 N641 1.279 . S
C644 C643 1.358 . S
C644 H647 0.930 . S
C645 C642 1.348 . S
C645 C643 1.356 . S
H646 C640 0.930 . S
H647 C644 0.930 . S
C648 C650 1.348 . S
C648 C651 1.356 . S
C648 O678 1.325 . S
N649 C652 1.314 . S
N649 C653 1.279 . S
C650 C648 1.348 . S
C650 C652 1.333 1_565 S
C650 H692 0.951 . S
C651 C648 1.356 . S
C651 C653 1.358 1_565 S
C651 H693 0.930 . S
C652 N649 1.314 . S
C652 C650 1.333 1_545 S
C652 H694 0.930 . S
C653 N649 1.279 . S
C653 C651 1.358 1_545 S
C653 H695 0.930 . S
C654 C655 1.348 . S
C654 C656 1.356 . S
C654 O679 1.325 . S
C655 C654 1.348 . S
C655 C657 1.353 . S
C655 H696 0.929 1_565 S
C656 C654 1.356 . S
C656 C658 1.358 . S
C656 H697 0.930 . S
C657 C655 1.353 . S
C657 N659 1.314 . S
C657 H698 0.930 1_565 S
C658 C656 1.358 . S
C658 N659 1.279 . S
C658 H699 0.930 . S
N659 C657 1.314 . S
N659 C658 1.279 . S
C660 C662 1.353 . S
C660 N663 1.314 . S
C660 H666 0.956 . S
C661 N663 1.279 . S
C661 C664 1.358 . S
C661 H667 0.930 . S
C662 C660 1.353 . S
C662 C665 1.348 . S
C662 H700 0.929 . S
N663 Li618 1.990 1_545 S
N663 C660 1.314 . S
N663 C661 1.279 . S
C664 C661 1.358 . S
C664 C665 1.356 . S
C664 H701 0.930 . S
C665 C662 1.348 . S
C665 C664 1.356 . S
H666 C660 0.956 . S
H667 C661 0.930 . S
C668 N669 1.314 . S
C668 C670 1.353 . S
C668 H674 0.930 . S
N669 Li619 1.990 . S
N669 C668 1.314 . S
N669 C672 1.279 . S
C670 C668 1.353 . S
C670 C673 1.348 . S
C670 H702 0.929 . S
C671 C672 1.358 . S
C671 C673 1.356 . S
C671 H703 0.930 . S
C672 N669 1.279 . S
C672 C671 1.358 . S
C672 H675 0.930 . S
C673 C670 1.348 . S
C673 C671 1.356 . S
H674 C668 0.930 . S
H675 C672 0.930 . S
O676 Li616 1.956 . S
O676 Li617 1.970 . S
O676 Li618 1.961 . S
O676 C620 1.325 . S
O677 Li616 1.970 . S
O677 Li617 1.956 . S
O677 Li619 1.961 . S
O677 C626 1.325 . S
O678 Li616 1.961 . S
O678 Li618 1.956 . S
O678 Li619 1.970 . S
O678 C648 1.325 . S
O679 Li617 1.961 . S
O679 Li618 1.970 . S
O679 Li619 1.956 . S
O679 C654 1.325 . S
H680 C622 0.929 . S
H681 C623 0.930 . S
H682 C624 0.930 . S
H683 C625 0.930 . S
H684 C627 0.930 . S
H685 C629 0.929 . S
H686 C630 0.930 . S
H687 C631 0.930 . S
H688 C634 0.930 . S
H689 C637 0.929 . S
H690 C642 0.929 . S
H691 C643 0.930 . S
H692 C650 0.951 . S
H693 C651 0.930 . S
H694 C652 0.930 . S
H695 C653 0.930 . S
H696 C655 0.929 1_545 S
H697 C656 0.930 . S
H698 C657 0.930 1_545 S
H699 C658 0.930 . S
H700 C662 0.929 . S
H701 C664 0.930 . S
H702 C670 0.929 . S
H703 C671 0.930 . S
Li704 N721 1.990 . S
Li704 O764 1.956 . S
Li704 O765 1.970 . S
Li704 O766 1.961 . S
Li705 N729 1.990 . S
Li705 O764 1.970 . S
Li705 O765 1.956 . S
Li705 O767 1.961 . S
Li706 N751 1.990 . S
Li706 O764 1.961 . S
Li706 O766 1.956 . S
Li706 O767 1.970 . S
Li707 N757 1.990 . S
Li707 O765 1.961 . S
Li707 O766 1.970 . S
Li707 O767 1.956 . S
C708 C710 1.348 . S
C708 C711 1.356 . S
C708 O764 1.325 . S
N709 C712 1.314 . S
N709 C713 1.279 . S
C710 C708 1.348 . S
C710 C712 1.353 . S
C710 H768 0.929 . S
C711 C708 1.356 . S
C711 C713 1.358 . S
C711 H769 0.930 . S
C712 N709 1.314 . S
C712 C710 1.353 . S
C712 H770 0.930 . S
C713 N709 1.279 . S
C713 C711 1.358 . S
C713 H771 0.930 . S
C714 C717 1.348 . S
C714 C718 1.356 . S
C714 O765 1.325 . S
C715 N716 1.279 . S
C715 C718 1.358 . S
C715 H772 0.930 . S
N716 C715 1.279 . S
N716 C719 1.314 . S
C717 C714 1.348 . S
C717 C719 1.353 . S
C717 H773 0.929 . S
C718 C714 1.356 . S
C718 C715 1.358 . S
C718 H774 0.930 . S
C719 N716 1.314 . S
C719 C717 1.353 . S
C719 H775 0.930 . S
C720 N721 1.314 . S
C720 C725 1.353 . S
C720 H726 0.930 . S
N721 Li704 1.990 . S
N721 C720 1.314 . S
N721 C723 1.279 . S
C722 C723 1.358 . S
C722 C724 1.356 . S
C722 H776 0.930 . S
C723 N721 1.279 . S
C723 C722 1.358 . S
C723 H727 0.930 . S
C724 C722 1.356 . S
C724 C725 1.348 . S
C725 C720 1.353 . S
C725 C724 1.348 . S
C725 H777 0.929 . S
H726 C720 0.930 . S
H727 C723 0.930 . S
C728 N729 1.314 . S
C728 C730 1.353 . S
C728 H734 0.930 . S
N729 Li705 1.990 . S
N729 C728 1.314 . S
N729 C732 1.279 . S
C730 C728 1.353 . S
C730 C733 1.348 . S
C730 H778 0.929 . S
C731 C732 1.358 . S
C731 C733 1.356 . S
C731 H779 0.930 . S
C732 N729 1.279 . S
C732 C731 1.358 . S
C732 H735 0.930 . S
C733 C730 1.348 . S
C733 C731 1.356 . S
H734 C728 0.930 . S
H735 C732 0.930 . S
C736 C738 1.348 . S
C736 C739 1.356 . S
C736 O766 1.325 . S
N737 C740 1.314 . S
N737 C741 1.279 . S
C738 C736 1.348 . S
C738 C740 1.353 1_455 S
C738 H780 0.929 . S
C739 C736 1.356 . S
C739 C741 1.358 1_455 S
C739 H781 0.930 . S
C740 N737 1.314 . S
C740 C738 1.353 1_655 S
C740 H782 0.930 . S
C741 N737 1.279 . S
C741 C739 1.358 1_655 S
C741 H783 0.930 . S
C742 C743 1.348 . S
C742 C744 1.356 . S
C742 O767 1.325 . S
C743 C742 1.348 . S
C743 C745 1.353 . S
C743 H784 0.929 . S
C744 C742 1.356 . S
C744 C746 1.358 . S
C744 H785 0.930 . S
C745 C743 1.353 . S
C745 N747 1.314 . S
C745 H786 0.975 . S
C746 C744 1.358 . S
C746 N747 1.279 . S
C746 H787 0.930 . S
N747 C745 1.314 . S
N747 C746 1.279 . S
C748 C750 1.379 . S
C748 N751 1.319 1_655 S
C748 H754 0.896 1_655 S
C749 N751 1.279 1_655 S
C749 C752 1.358 . S
C749 H755 0.930 . S
C750 C748 1.379 . S
C750 C753 1.348 . S
C750 H788 0.929 . S
N751 Li706 1.990 . S
N751 C748 1.319 1_455 S
N751 C749 1.279 1_455 S
C752 C749 1.358 . S
C752 C753 1.356 . S
C752 H789 0.930 . S
C753 C750 1.348 . S
C753 C752 1.356 . S
H754 C748 0.896 1_455 S
H755 C749 0.930 . S
C756 N757 1.314 . S
C756 C758 1.353 . S
C756 H762 0.930 . S
N757 Li707 1.990 . S
N757 C756 1.314 . S
N757 C760 1.279 . S
C758 C756 1.353 . S
C758 C761 1.348 . S
C758 H790 0.929 . S
C759 C760 1.358 . S
C759 C761 1.356 . S
C759 H791 0.930 . S
C760 N757 1.279 . S
C760 C759 1.358 . S
C760 H763 0.930 . S
C761 C758 1.348 . S
C761 C759 1.356 . S
H762 C756 0.930 . S
H763 C760 0.930 . S
O764 Li704 1.956 . S
O764 Li705 1.970 . S
O764 Li706 1.961 . S
O764 C708 1.325 . S
O765 Li704 1.970 . S
O765 Li705 1.956 . S
O765 Li707 1.961 . S
O765 C714 1.325 . S
O766 Li704 1.961 . S
O766 Li706 1.956 . S
O766 Li707 1.970 . S
O766 C736 1.325 . S
O767 Li705 1.961 . S
O767 Li706 1.970 . S
O767 Li707 1.956 . S
O767 C742 1.325 . S
H768 C710 0.929 . S
H769 C711 0.930 . S
H770 C712 0.930 . S
H771 C713 0.930 . S
H772 C715 0.930 . S
H773 C717 0.929 . S
H774 C718 0.930 . S
H775 C719 0.930 . S
H776 C722 0.930 . S
H777 C725 0.929 . S
H778 C730 0.929 . S
H779 C731 0.930 . S
H780 C738 0.929 . S
H781 C739 0.930 . S
H782 C740 0.930 . S
H783 C741 0.930 . S
H784 C743 0.929 . S
H785 C744 0.930 . S
H786 C745 0.975 . S
H787 C746 0.930 . S
H788 C750 0.929 . S
H789 C752 0.930 . S
H790 C758 0.929 . S
H791 C759 0.930 . S
Li792 N809 1.990 1_565 S
Li792 O852 1.956 . S
Li792 O853 1.970 . S
Li792 O854 1.961 . S
Li793 N817 1.990 . S
Li793 O852 1.970 . S
Li793 O853 1.956 . S
Li793 O855 1.961 . S
Li794 N839 1.990 . S
Li794 O852 1.961 . S
Li794 O854 1.956 . S
Li794 O855 1.970 . S
Li795 N845 1.990 . S
Li795 O853 1.961 . S
Li795 O854 1.970 . S
Li795 O855 1.956 . S
C796 C798 1.348 . S
C796 C799 1.356 . S
C796 O852 1.325 . S
N797 C800 1.314 . S
N797 C801 1.279 . S
C798 C796 1.348 . S
C798 C800 1.353 . S
C798 H856 0.929 . S
C799 C796 1.356 . S
C799 C801 1.358 . S
C799 H857 0.930 . S
C800 N797 1.314 . S
C800 C798 1.353 . S
C800 H858 0.930 . S
C801 N797 1.279 . S
C801 C799 1.358 . S
C801 H859 0.930 . S
C802 C805 1.348 . S
C802 C806 1.356 . S
C802 O853 1.325 . S
C803 N804 1.279 . S
C803 C806 1.358 . S
C803 H860 0.930 . S
N804 C803 1.279 . S
N804 C807 1.314 . S
C805 C802 1.348 . S
C805 C807 1.353 . S
C805 H861 0.929 . S
C806 C802 1.356 . S
C806 C803 1.358 . S
C806 H862 0.930 . S
C807 N804 1.314 . S
C807 C805 1.353 . S
C807 H863 0.930 1_565 S
C808 N809 1.314 . S
C808 C813 1.353 . S
C808 H814 0.930 . S
N809 Li792 1.990 1_545 S
N809 C808 1.314 . S
N809 C811 1.279 . S
C810 C811 1.358 . S
C810 C812 1.356 . S
C810 H864 0.930 . S
C811 N809 1.279 . S
C811 C810 1.358 . S
C811 H815 0.930 . S
C812 C810 1.356 . S
C812 C813 1.348 . S
C813 C808 1.353 . S
C813 C812 1.348 . S
C813 H865 0.929 . S
H814 C808 0.930 . S
H815 C811 0.930 . S
C816 N817 1.314 . S
C816 C818 1.353 . S
C816 H822 0.930 . S
N817 Li793 1.990 . S
N817 C816 1.314 . S
N817 C820 1.279 . S
C818 C816 1.353 . S
C818 C821 1.348 . S
C818 H866 0.929 . S
C819 C820 1.358 . S
C819 C821 1.356 . S
C819 H867 0.930 . S
C820 N817 1.279 . S
C820 C819 1.358 . S
C820 H823 0.930 . S
C821 C818 1.348 . S
C821 C819 1.356 . S
H822 C816 0.930 . S
H823 C820 0.930 . S
C824 C826 1.348 . S
C824 C827 1.356 1_565 S
C824 O854 1.325 . S
N825 C828 1.314 . S
N825 C829 1.279 . S
C826 C824 1.348 . S
C826 C828 1.353 1_565 S
C826 H868 0.929 . S
C827 C824 1.356 1_545 S
C827 C829 1.358 . S
C827 H869 0.930 . S
C828 N825 1.314 . S
C828 C826 1.353 1_545 S
C828 H870 0.930 . S
C829 N825 1.279 . S
C829 C827 1.358 . S
C829 H871 0.930 . S
C830 C831 1.348 . S
C830 C832 1.356 . S
C830 O855 1.325 . S
C831 C830 1.348 . S
C831 C833 1.353 . S
C831 H872 0.929 . S
C832 C830 1.356 . S
C832 C834 1.358 . S
C832 H873 0.930 . S
C833 C831 1.353 . S
C833 N835 1.314 . S
C833 H874 0.930 . S
C834 C832 1.358 . S
C834 N835 1.279 . S
C834 H875 0.930 . S
N835 C833 1.314 . S
N835 C834 1.279 . S
C836 C838 1.353 . S
C836 N839 1.314 . S
C836 H842 0.930 . S
C837 N839 1.279 . S
C837 C840 1.358 . S
C837 H843 0.930 . S
C838 C836 1.353 . S
C838 C841 1.348 . S
C838 H876 0.929 . S
N839 Li794 1.990 . S
N839 C836 1.314 . S
N839 C837 1.279 . S
C840 C837 1.358 . S
C840 C841 1.356 . S
C840 H877 0.930 . S
C841 C838 1.348 . S
C841 C840 1.356 . S
H842 C836 0.930 . S
H843 C837 0.930 . S
C844 N845 1.314 . S
C844 C846 1.353 . S
C844 H850 0.930 . S
N845 Li795 1.990 . S
N845 C844 1.314 . S
N845 C848 1.279 . S
C846 C844 1.353 . S
C846 C849 1.348 . S
C846 H878 0.929 . S
C847 C848 1.358 . S
C847 C849 1.356 . S
C847 H879 0.930 . S
C848 N845 1.279 . S
C848 C847 1.358 . S
C848 H851 0.930 . S
C849 C846 1.348 . S
C849 C847 1.356 . S
H850 C844 0.930 . S
H851 C848 0.930 . S
O852 Li792 1.956 . S
O852 Li793 1.970 . S
O852 Li794 1.961 . S
O852 C796 1.325 . S
O853 Li792 1.970 . S
O853 Li793 1.956 . S
O853 Li795 1.961 . S
O853 C802 1.325 . S
O854 Li792 1.961 . S
O854 Li794 1.956 . S
O854 Li795 1.970 . S
O854 C824 1.325 . S
O855 Li793 1.961 . S
O855 Li794 1.970 . S
O855 Li795 1.956 . S
O855 C830 1.325 . S
H856 C798 0.929 . S
H857 C799 0.930 . S
H858 C800 0.930 . S
H859 C801 0.930 . S
H860 C803 0.930 . S
H861 C805 0.929 . S
H862 C806 0.930 . S
H863 C807 0.930 1_545 S
H864 C810 0.930 . S
H865 C813 0.929 . S
H866 C818 0.929 . S
H867 C819 0.930 . S
H868 C826 0.929 . S
H869 C827 0.930 . S
H870 C828 0.930 . S
H871 C829 0.930 . S
H872 C831 0.929 . S
H873 C832 0.930 . S
H874 C833 0.930 . S
H875 C834 0.930 . S
H876 C838 0.929 . S
H877 C840 0.930 . S
H878 C846 0.929 . S
H879 C847 0.930 . S
Li880 N897 1.990 . S
Li880 O940 1.956 . S
Li880 O941 1.970 . S
Li880 O942 1.961 . S
Li881 N905 1.990 1_455 S
Li881 O940 1.970 . S
Li881 O941 1.956 . S
Li881 O943 1.961 . S
Li882 N927 1.990 . S
Li882 O940 1.961 . S
Li882 O942 1.956 . S
Li882 O943 1.970 . S
Li883 N933 1.990 . S
Li883 O941 1.961 . S
Li883 O942 1.970 . S
Li883 O943 1.956 . S
C884 C886 1.348 . S
C884 C887 1.356 . S
C884 O940 1.325 . S
N885 C888 1.314 . S
N885 C889 1.279 . S
C886 C884 1.348 . S
C886 C888 1.353 . S
C886 H944 0.929 . S
C887 C884 1.356 . S
C887 C889 1.358 . S
C887 H945 0.930 . S
C888 N885 1.314 . S
C888 C886 1.353 . S
C888 H946 0.930 . S
C889 N885 1.279 . S
C889 C887 1.358 . S
C889 H947 0.930 . S
C890 C893 1.348 . S
C890 C894 1.356 . S
C890 O941 1.325 . S
C891 N892 1.279 . S
C891 C894 1.358 . S
C891 H948 0.930 . S
N892 C891 1.279 . S
N892 C895 1.314 . S
C893 C890 1.348 . S
C893 C895 1.353 . S
C893 H949 0.929 . S
C894 C890 1.356 . S
C894 C891 1.358 . S
C894 H950 0.930 . S
C895 N892 1.314 . S
C895 C893 1.353 . S
C895 H951 0.930 . S
C896 N897 1.314 . S
C896 C901 1.353 . S
C896 H902 0.930 . S
N897 Li880 1.990 . S
N897 C896 1.314 . S
N897 C899 1.279 . S
C898 C899 1.358 . S
C898 C900 1.356 . S
C898 H952 0.930 . S
C899 N897 1.279 . S
C899 C898 1.358 . S
C899 H903 0.930 . S
C900 C898 1.356 . S
C900 C901 1.348 . S
C901 C896 1.353 . S
C901 C900 1.348 . S
C901 H953 0.929 . S
H902 C896 0.930 . S
H903 C899 0.930 . S
C904 N905 1.314 . S
C904 C906 1.353 . S
C904 H910 0.930 . S
N905 Li881 1.990 1_655 S
N905 C904 1.314 . S
N905 C908 1.279 . S
C906 C904 1.353 . S
C906 C909 1.348 . S
C906 H954 0.929 . S
C907 C908 1.358 . S
C907 C909 1.356 . S
C907 H955 0.930 . S
C908 N905 1.279 . S
C908 C907 1.358 . S
C908 H911 0.930 1_655 S
C909 C906 1.348 . S
C909 C907 1.356 . S
H910 C904 0.930 . S
H911 C908 0.930 1_455 S
C912 C914 1.348 . S
C912 C915 1.356 . S
C912 O942 1.325 . S
N913 C916 1.314 . S
N913 C917 1.279 . S
C914 C912 1.348 . S
C914 C916 1.353 . S
C914 H956 0.929 . S
C915 C912 1.356 . S
C915 C917 1.358 . S
C915 H957 0.930 . S
C916 N913 1.314 . S
C916 C914 1.353 . S
C916 H958 0.930 . S
C917 N913 1.279 . S
C917 C915 1.358 . S
C917 H959 0.930 . S
C918 C919 1.348 . S
C918 C920 1.312 1_455 S
C918 O943 1.325 . S
C919 C918 1.348 . S
C919 C921 1.353 1_455 S
C919 H960 0.929 . S
C920 C918 1.312 1_655 S
C920 C922 1.385 . S
C920 H961 0.953 . S
C921 C919 1.353 1_655 S
C921 N923 1.314 . S
C921 H962 0.930 . S
C922 C920 1.385 . S
C922 N923 1.279 . S
C922 H963 0.930 . S
N923 C921 1.314 . S
N923 C922 1.279 . S
C924 C926 1.353 . S
C924 N927 1.314 . S
C924 H930 0.930 . S
C925 N927 1.279 . S
C925 C928 1.358 . S
C925 H931 0.930 . S
C926 C924 1.353 . S
C926 C929 1.348 . S
C926 H964 0.929 . S
N927 Li882 1.990 . S
N927 C924 1.314 . S
N927 C925 1.279 . S
C928 C925 1.358 . S
C928 C929 1.356 . S
C928 H965 0.930 . S
C929 C926 1.348 . S
C929 C928 1.356 . S
H930 C924 0.930 . S
H931 C925 0.930 . S
C932 N933 1.314 . S
C932 C934 1.353 . S
C932 H938 0.930 . S
N933 Li883 1.990 . S
N933 C932 1.314 . S
N933 C936 1.279 . S
C934 C932 1.353 . S
C934 C937 1.348 . S
C934 H966 0.929 . S
C935 C936 1.358 . S
C935 C937 1.356 . S
C935 H967 0.930 . S
C936 N933 1.279 . S
C936 C935 1.358 . S
C936 H939 0.930 . S
C937 C934 1.348 . S
C937 C935 1.356 . S
H938 C932 0.930 . S
H939 C936 0.930 . S
O940 Li880 1.956 . S
O940 Li881 1.970 . S
O940 Li882 1.961 . S
O940 C884 1.325 . S
O941 Li880 1.970 . S
O941 Li881 1.956 . S
O941 Li883 1.961 . S
O941 C890 1.325 . S
O942 Li880 1.961 . S
O942 Li882 1.956 . S
O942 Li883 1.970 . S
O942 C912 1.325 . S
O943 Li881 1.961 . S
O943 Li882 1.970 . S
O943 Li883 1.956 . S
O943 C918 1.325 . S
H944 C886 0.929 . S
H945 C887 0.930 . S
H946 C888 0.930 . S
H947 C889 0.930 . S
H948 C891 0.930 . S
H949 C893 0.929 . S
H950 C894 0.930 . S
H951 C895 0.930 . S
H952 C898 0.930 . S
H953 C901 0.929 . S
H954 C906 0.929 . S
H955 C907 0.930 . S
H956 C914 0.929 . S
H957 C915 0.930 . S
H958 C916 0.930 . S
H959 C917 0.930 . S
H960 C919 0.929 . S
H961 C920 0.953 . S
H962 C921 0.930 . S
H963 C922 0.930 . S
H964 C926 0.929 . S
H965 C928 0.930 . S
H966 C934 0.929 . S
H967 C935 0.930 . S
Li968 N985 1.990 . S
Li968 O1028 1.956 . S
Li968 O1029 1.970 . S
Li968 O1030 1.961 . S
Li969 N993 1.990 . S
Li969 O1028 1.970 . S
Li969 O1029 1.956 . S
Li969 O1031 1.961 . S
Li970 N1015 1.990 . S
Li970 O1028 1.961 . S
Li970 O1030 1.956 . S
Li970 O1031 1.970 . S
Li971 N1021 1.990 . S
Li971 O1029 1.961 . S
Li971 O1030 1.970 . S
Li971 O1031 1.956 . S
C972 C974 1.348 . S
C972 C975 1.356 . S
C972 O1028 1.325 . S
N973 C976 1.314 . S
N973 C977 1.279 . S
C974 C972 1.348 . S
C974 C976 1.353 . S
C974 H1032 0.929 . S
C975 C972 1.356 . S
C975 C977 1.358 . S
C975 H1033 0.930 . S
C976 N973 1.314 . S
C976 C974 1.353 . S
C976 H1034 0.930 . S
C977 N973 1.279 . S
C977 C975 1.358 . S
C977 H1035 0.930 . S
C978 C981 1.348 . S
C978 C982 1.356 . S
C978 O1029 1.325 . S
C979 N980 1.279 . S
C979 C982 1.358 . S
C979 H1036 0.930 . S
N980 C979 1.279 . S
N980 C983 1.314 . S
C981 C978 1.348 . S
C981 C983 1.353 . S
C981 H1037 0.929 . S
C982 C978 1.356 . S
C982 C979 1.358 . S
C982 H1038 0.930 . S
C983 N980 1.314 . S
C983 C981 1.353 . S
C983 H1039 0.930 . S
C984 N985 1.314 . S
C984 C989 1.353 . S
C984 H990 0.930 . S
N985 Li968 1.990 . S
N985 C984 1.314 . S
N985 C987 1.279 . S
C986 C987 1.358 . S
C986 C988 1.356 . S
C986 H1040 0.930 . S
C987 N985 1.279 . S
C987 C986 1.358 . S
C987 H991 0.930 . S
C988 C986 1.356 . S
C988 C989 1.348 . S
C989 C984 1.353 . S
C989 C988 1.348 . S
C989 H1041 0.929 . S
H990 C984 0.930 . S
H991 C987 0.930 . S
C992 N993 1.314 . S
C992 C994 1.353 . S
C992 H998 0.930 . S
N993 Li969 1.990 . S
N993 C992 1.314 . S
N993 C996 1.279 . S
C994 C992 1.353 . S
C994 C997 1.348 . S
C994 H1042 0.929 . S
C995 C996 1.358 . S
C995 C997 1.356 . S
C995 H1043 0.930 . S
C996 N993 1.279 . S
C996 C995 1.358 . S
C996 H999 0.930 . S
C997 C994 1.348 . S
C997 C995 1.356 . S
H998 C992 0.930 . S
H999 C996 0.930 . S
C1000 C1002 1.348 . S
C1000 C1003 1.356 . S
C1000 O1030 1.325 . S
N1001 C1004 1.314 . S
N1001 C1005 1.279 . S
C1002 C1000 1.348 . S
C1002 C1004 1.353 . S
C1002 H1044 0.929 . S
C1003 C1000 1.356 . S
C1003 C1005 1.358 . S
C1003 H1045 0.930 . S
C1004 N1001 1.314 . S
C1004 C1002 1.353 . S
C1004 H1046 0.930 . S
C1005 N1001 1.279 . S
C1005 C1003 1.358 . S
C1005 H1047 0.930 . S
C1006 C1007 1.348 . S
C1006 C1008 1.356 . S
C1006 O1031 1.325 . S
C1007 C1006 1.348 . S
C1007 C1009 1.353 . S
C1007 H1048 0.929 . S
C1008 C1006 1.356 . S
C1008 C1010 1.358 . S
C1008 H1049 0.930 . S
C1009 C1007 1.353 . S
C1009 N1011 1.314 . S
C1009 H1050 0.930 . S
C1010 C1008 1.358 . S
C1010 N1011 1.279 . S
C1010 H1051 0.930 . S
N1011 C1009 1.314 . S
N1011 C1010 1.279 . S
C1012 C1014 1.353 . S
C1012 N1015 1.314 . S
C1012 H1018 0.930 . S
C1013 N1015 1.279 . S
C1013 C1016 1.358 . S
C1013 H1019 0.930 . S
C1014 C1012 1.353 . S
C1014 C1017 1.348 . S
C1014 H1052 0.929 . S
N1015 Li970 1.990 . S
N1015 C1012 1.314 . S
N1015 C1013 1.279 . S
C1016 C1013 1.358 . S
C1016 C1017 1.356 . S
C1016 H1053 0.930 . S
C1017 C1014 1.348 . S
C1017 C1016 1.356 . S
H1018 C1012 0.930 . S
H1019 C1013 0.930 . S
C1020 N1021 1.314 . S
C1020 C1022 1.353 . S
C1020 H1026 0.930 . S
N1021 Li971 1.990 . S
N1021 C1020 1.314 . S
N1021 C1024 1.279 . S
C1022 C1020 1.353 . S
C1022 C1025 1.348 . S
C1022 H1054 0.929 . S
C1023 C1024 1.358 . S
C1023 C1025 1.356 . S
C1023 H1055 0.930 . S
C1024 N1021 1.279 . S
C1024 C1023 1.358 . S
C1024 H1027 0.930 . S
C1025 C1022 1.348 . S
C1025 C1023 1.356 . S
H1026 C1020 0.930 . S
H1027 C1024 0.930 . S
O1028 Li968 1.956 . S
O1028 Li969 1.970 . S
O1028 Li970 1.961 . S
O1028 C972 1.325 . S
O1029 Li968 1.970 . S
O1029 Li969 1.956 . S
O1029 Li971 1.961 . S
O1029 C978 1.325 . S
O1030 Li968 1.961 . S
O1030 Li970 1.956 . S
O1030 Li971 1.970 . S
O1030 C1000 1.325 . S
O1031 Li969 1.961 . S
O1031 Li970 1.970 . S
O1031 Li971 1.956 . S
O1031 C1006 1.325 . S
H1032 C974 0.929 . S
H1033 C975 0.930 . S
H1034 C976 0.930 . S
H1035 C977 0.930 . S
H1036 C979 0.930 . S
H1037 C981 0.929 . S
H1038 C982 0.930 . S
H1039 C983 0.930 . S
H1040 C986 0.930 . S
H1041 C989 0.929 . S
H1042 C994 0.929 . S
H1043 C995 0.930 . S
H1044 C1002 0.929 . S
H1045 C1003 0.930 . S
H1046 C1004 0.930 . S
H1047 C1005 0.930 . S
H1048 C1007 0.929 . S
H1049 C1008 0.930 . S
H1050 C1009 0.930 . S
H1051 C1010 0.930 . S
H1052 C1014 0.929 . S
H1053 C1016 0.930 . S
H1054 C1022 0.929 . S
H1055 C1023 0.930 . S
Li1056 N1073 1.990 1_545 S
Li1056 O1116 1.956 . S
Li1056 O1117 1.970 . S
Li1056 O1118 1.961 . S
Li1057 N1081 1.990 . S
Li1057 O1116 1.970 . S
Li1057 O1117 1.956 . S
Li1057 O1119 1.961 . S
Li1058 N1103 1.990 . S
Li1058 O1116 1.961 . S
Li1058 O1118 1.956 . S
Li1058 O1119 1.970 . S
Li1059 N1109 1.990 . S
Li1059 O1117 1.961 . S
Li1059 O1118 1.970 . S
Li1059 O1119 1.956 . S
C1060 C1062 1.348 . S
C1060 C1063 1.356 . S
C1060 O1116 1.325 . S
N1061 C1064 1.314 . S
N1061 C1065 1.279 . S
C1062 C1060 1.348 . S
C1062 C1064 1.353 1_545 S
C1062 H1120 0.929 . S
C1063 C1060 1.356 . S
C1063 C1065 1.358 1_545 S
C1063 H1121 0.930 . S
C1064 N1061 1.314 . S
C1064 C1062 1.353 1_565 S
C1064 H1122 0.930 . S
C1065 N1061 1.279 . S
C1065 C1063 1.358 1_565 S
C1065 H1123 0.930 . S
C1066 C1069 1.348 . S
C1066 C1070 1.356 . S
C1066 O1117 1.325 . S
C1067 N1068 1.279 . S
C1067 C1070 1.358 . S
C1067 H1124 0.930 . S
N1068 C1067 1.279 . S
N1068 C1071 1.314 . S
C1069 C1066 1.348 . S
C1069 C1071 1.353 . S
C1069 H1125 0.929 1_545 S
C1070 C1066 1.356 . S
C1070 C1067 1.358 . S
C1070 H1126 0.930 . S
C1071 N1068 1.314 . S
C1071 C1069 1.353 . S
C1071 H1127 0.930 1_545 S
C1072 N1073 1.314 . S
C1072 C1077 1.353 . S
C1072 H1078 0.924 1_565 S
N1073 Li1056 1.990 1_565 S
N1073 C1072 1.314 . S
N1073 C1075 1.279 . S
C1074 C1075 1.358 . S
C1074 C1076 1.356 . S
C1074 H1128 0.930 . S
C1075 N1073 1.279 . S
C1075 C1074 1.358 . S
C1075 H1079 0.930 . S
C1076 C1074 1.356 . S
C1076 C1077 1.348 . S
C1077 C1072 1.353 . S
C1077 C1076 1.348 . S
C1077 H1129 0.929 . S
H1078 C1072 0.924 1_545 S
H1079 C1075 0.930 . S
C1080 N1081 1.314 . S
C1080 C1082 1.353 . S
C1080 H1086 0.930 . S
N1081 Li1057 1.990 . S
N1081 C1080 1.314 . S
N1081 C1084 1.279 . S
C1082 C1080 1.353 . S
C1082 C1085 1.348 . S
C1082 H1130 0.929 . S
C1083 C1084 1.358 . S
C1083 C1085 1.356 . S
C1083 H1131 0.930 . S
C1084 N1081 1.279 . S
C1084 C1083 1.358 . S
C1084 H1087 0.930 . S
C1085 C1082 1.348 . S
C1085 C1083 1.356 . S
H1086 C1080 0.930 . S
H1087 C1084 0.930 . S
C1088 C1090 1.348 . S
C1088 C1091 1.356 . S
C1088 O1118 1.325 . S
N1089 C1092 1.314 . S
N1089 C1093 1.279 . S
C1090 C1088 1.348 . S
C1090 C1092 1.353 . S
C1090 H1132 0.929 . S
C1091 C1088 1.356 . S
C1091 C1093 1.358 . S
C1091 H1133 0.930 . S
C1092 N1089 1.314 . S
C1092 C1090 1.353 . S
C1092 H1134 0.930 . S
C1093 N1089 1.279 . S
C1093 C1091 1.358 . S
C1093 H1135 0.930 . S
C1094 C1095 1.348 . S
C1094 C1096 1.356 . S
C1094 O1119 1.325 . S
C1095 C1094 1.348 . S
C1095 C1097 1.353 . S
C1095 H1136 0.929 . S
C1096 C1094 1.356 . S
C1096 C1098 1.358 . S
C1096 H1137 0.930 . S
C1097 C1095 1.353 . S
C1097 N1099 1.314 . S
C1097 H1138 0.930 . S
C1098 C1096 1.358 . S
C1098 N1099 1.279 . S
C1098 H1139 0.930 . S
N1099 C1097 1.314 . S
N1099 C1098 1.279 . S
C1100 C1102 1.353 . S
C1100 N1103 1.314 . S
C1100 H1106 0.930 . S
C1101 N1103 1.279 . S
C1101 C1104 1.358 . S
C1101 H1107 0.930 . S
C1102 C1100 1.353 . S
C1102 C1105 1.348 . S
C1102 H1140 0.929 . S
N1103 Li1058 1.990 . S
N1103 C1100 1.314 . S
N1103 C1101 1.279 . S
C1104 C1101 1.358 . S
C1104 C1105 1.356 . S
C1104 H1141 0.930 . S
C1105 C1102 1.348 . S
C1105 C1104 1.356 . S
H1106 C1100 0.930 . S
H1107 C1101 0.930 . S
C1108 N1109 1.314 . S
C1108 C1110 1.353 . S
C1108 H1114 0.930 . S
N1109 Li1059 1.990 . S
N1109 C1108 1.314 . S
N1109 C1112 1.279 . S
C1110 C1108 1.353 . S
C1110 C1113 1.348 . S
C1110 H1142 0.929 . S
C1111 C1112 1.358 . S
C1111 C1113 1.356 . S
C1111 H1143 0.930 . S
C1112 N1109 1.279 . S
C1112 C1111 1.358 . S
C1112 H1115 0.930 . S
C1113 C1110 1.348 . S
C1113 C1111 1.356 . S
H1114 C1108 0.930 . S
H1115 C1112 0.930 . S
O1116 Li1056 1.956 . S
O1116 Li1057 1.970 . S
O1116 Li1058 1.961 . S
O1116 C1060 1.325 . S
O1117 Li1056 1.970 . S
O1117 Li1057 1.956 . S
O1117 Li1059 1.961 . S
O1117 C1066 1.325 . S
O1118 Li1056 1.961 . S
O1118 Li1058 1.956 . S
O1118 Li1059 1.970 . S
O1118 C1088 1.325 . S
O1119 Li1057 1.961 . S
O1119 Li1058 1.970 . S
O1119 Li1059 1.956 . S
O1119 C1094 1.325 . S
H1120 C1062 0.929 . S
H1121 C1063 0.930 . S
H1122 C1064 0.930 . S
H1123 C1065 0.930 . S
H1124 C1067 0.930 . S
H1125 C1069 0.929 1_565 S
H1126 C1070 0.930 . S
H1127 C1071 0.930 1_565 S
H1128 C1074 0.930 . S
H1129 C1077 0.929 . S
H1130 C1082 0.929 . S
H1131 C1083 0.930 . S
H1132 C1090 0.929 . S
H1133 C1091 0.930 . S
H1134 C1092 0.930 . S
H1135 C1093 0.930 . S
H1136 C1095 0.929 . S
H1137 C1096 0.930 . S
H1138 C1097 0.930 . S
H1139 C1098 0.930 . S
H1140 C1102 0.929 . S
H1141 C1104 0.930 . S
H1142 C1110 0.929 . S
H1143 C1111 0.930 . S
Li1144 N1161 1.990 1_655 S
Li1144 O1204 1.956 . S
Li1144 O1205 1.970 . S
Li1144 O1206 1.961 . S
Li1145 N1169 1.990 . S
Li1145 O1204 1.970 . S
Li1145 O1205 1.956 . S
Li1145 O1207 1.961 . S
Li1146 N1191 1.990 . S
Li1146 O1204 1.961 . S
Li1146 O1206 1.956 . S
Li1146 O1207 1.970 . S
Li1147 N1197 1.990 . S
Li1147 O1205 1.961 . S
Li1147 O1206 1.970 . S
Li1147 O1207 1.956 . S
C1148 C1150 1.351 1_655 S
C1148 C1151 1.356 . S
C1148 O1204 1.325 . S
N1149 C1152 1.314 . S
N1149 C1153 1.279 . S
C1150 C1148 1.351 1_455 S
C1150 C1152 1.387 . S
C1150 H1208 0.896 1_455 S
C1151 C1148 1.356 . S
C1151 C1153 1.358 1_655 S
C1151 H1209 0.930 . S
C1152 N1149 1.314 . S
C1152 C1150 1.387 . S
C1152 H1210 0.930 . S
C1153 N1149 1.279 . S
C1153 C1151 1.358 1_455 S
C1153 H1211 0.930 . S
C1154 C1157 1.348 . S
C1154 C1158 1.356 . S
C1154 O1205 1.325 . S
C1155 N1156 1.279 . S
C1155 C1158 1.358 . S
C1155 H1212 0.930 . S
N1156 C1155 1.279 . S
N1156 C1159 1.314 . S
C1157 C1154 1.348 . S
C1157 C1159 1.353 . S
C1157 H1213 0.929 1_655 S
C1158 C1154 1.356 . S
C1158 C1155 1.358 . S
C1158 H1214 0.930 . S
C1159 N1156 1.314 . S
C1159 C1157 1.353 . S
C1159 H1215 0.930 1_655 S
C1160 N1161 1.314 . S
C1160 C1165 1.353 . S
C1160 H1166 0.930 1_455 S
N1161 Li1144 1.990 1_455 S
N1161 C1160 1.314 . S
N1161 C1163 1.279 . S
C1162 C1163 1.358 . S
C1162 C1164 1.356 . S
C1162 H1216 0.930 . S
C1163 N1161 1.279 . S
C1163 C1162 1.358 . S
C1163 H1167 0.930 . S
C1164 C1162 1.356 . S
C1164 C1165 1.348 . S
C1165 C1160 1.353 . S
C1165 C1164 1.348 . S
C1165 H1217 0.929 . S
H1166 C1160 0.930 1_655 S
H1167 C1163 0.930 . S
C1168 N1169 1.314 . S
C1168 C1170 1.353 . S
C1168 H1174 0.930 . S
N1169 Li1145 1.990 . S
N1169 C1168 1.314 . S
N1169 C1172 1.279 . S
C1170 C1168 1.353 . S
C1170 C1173 1.348 . S
C1170 H1218 0.929 . S
C1171 C1172 1.358 . S
C1171 C1173 1.356 . S
C1171 H1219 0.930 . S
C1172 N1169 1.279 . S
C1172 C1171 1.358 . S
C1172 H1175 0.930 . S
C1173 C1170 1.348 . S
C1173 C1171 1.356 . S
H1174 C1168 0.930 . S
H1175 C1172 0.930 . S
C1176 C1178 1.348 . S
C1176 C1179 1.356 . S
C1176 O1206 1.325 . S
N1177 C1180 1.314 . S
N1177 C1181 1.279 . S
C1178 C1176 1.348 . S
C1178 C1180 1.353 . S
C1178 H1220 0.929 . S
C1179 C1176 1.356 . S
C1179 C1181 1.358 . S
C1179 H1221 0.930 . S
C1180 N1177 1.314 . S
C1180 C1178 1.353 . S
C1180 H1222 0.930 . S
C1181 N1177 1.279 . S
C1181 C1179 1.358 . S
C1181 H1223 0.930 . S
C1182 C1183 1.348 . S
C1182 C1184 1.356 . S
C1182 O1207 1.325 . S
C1183 C1182 1.348 . S
C1183 C1185 1.353 . S
C1183 H1224 0.929 . S
C1184 C1182 1.356 . S
C1184 C1186 1.358 . S
C1184 H1225 0.930 . S
C1185 C1183 1.353 . S
C1185 N1187 1.314 . S
C1185 H1226 0.930 . S
C1186 C1184 1.358 . S
C1186 N1187 1.279 . S
C1186 H1227 0.930 . S
N1187 C1185 1.314 . S
N1187 C1186 1.279 . S
C1188 C1190 1.353 . S
C1188 N1191 1.314 . S
C1188 H1194 0.930 . S
C1189 N1191 1.279 . S
C1189 C1192 1.358 . S
C1189 H1195 0.930 . S
C1190 C1188 1.353 . S
C1190 C1193 1.348 . S
C1190 H1228 0.929 . S
N1191 Li1146 1.990 . S
N1191 C1188 1.314 . S
N1191 C1189 1.279 . S
C1192 C1189 1.358 . S
C1192 C1193 1.356 . S
C1192 H1229 0.930 . S
C1193 C1190 1.348 . S
C1193 C1192 1.356 . S
H1194 C1188 0.930 . S
H1195 C1189 0.930 . S
C1196 N1197 1.314 . S
C1196 C1198 1.353 . S
C1196 H1202 0.930 . S
N1197 Li1147 1.990 . S
N1197 C1196 1.314 . S
N1197 C1200 1.279 . S
C1198 C1196 1.353 . S
C1198 C1201 1.348 . S
C1198 H1230 0.929 . S
C1199 C1200 1.358 . S
C1199 C1201 1.356 . S
C1199 H1231 0.930 . S
C1200 N1197 1.279 . S
C1200 C1199 1.358 . S
C1200 H1203 0.930 . S
C1201 C1198 1.348 . S
C1201 C1199 1.356 . S
H1202 C1196 0.930 . S
H1203 C1200 0.930 . S
O1204 Li1144 1.956 . S
O1204 Li1145 1.970 . S
O1204 Li1146 1.961 . S
O1204 C1148 1.325 . S
O1205 Li1144 1.970 . S
O1205 Li1145 1.956 . S
O1205 Li1147 1.961 . S
O1205 C1154 1.325 . S
O1206 Li1144 1.961 . S
O1206 Li1146 1.956 . S
O1206 Li1147 1.970 . S
O1206 C1176 1.325 . S
O1207 Li1145 1.961 . S
O1207 Li1146 1.970 . S
O1207 Li1147 1.956 . S
O1207 C1182 1.325 . S
H1208 C1150 0.896 1_655 S
H1209 C1151 0.930 . S
H1210 C1152 0.930 . S
H1211 C1153 0.930 . S
H1212 C1155 0.930 . S
H1213 C1157 0.929 1_455 S
H1214 C1158 0.930 . S
H1215 C1159 0.930 1_455 S
H1216 C1162 0.930 . S
H1217 C1165 0.929 . S
H1218 C1170 0.929 . S
H1219 C1171 0.930 . S
H1220 C1178 0.929 . S
H1221 C1179 0.930 . S
H1222 C1180 0.930 . S
H1223 C1181 0.930 . S
H1224 C1183 0.929 . S
H1225 C1184 0.930 . S
H1226 C1185 0.930 . S
H1227 C1186 0.930 . S
H1228 C1190 0.929 . S
H1229 C1192 0.930 . S
H1230 C1198 0.929 . S
H1231 C1199 0.930 . S
Li1232 N1249 1.990 . S
Li1232 O1292 1.956 . S
Li1232 O1293 1.970 . S
Li1232 O1294 1.961 . S
Li1233 N1257 1.990 . S
Li1233 O1292 1.970 . S
Li1233 O1293 1.956 . S
Li1233 O1295 1.961 . S
Li1234 N1279 1.990 . S
Li1234 O1292 1.961 . S
Li1234 O1294 1.956 . S
Li1234 O1295 1.970 . S
Li1235 N1285 1.990 . S
Li1235 O1293 1.961 . S
Li1235 O1294 1.970 . S
Li1235 O1295 1.956 . S
C1236 C1238 1.348 . S
C1236 C1239 1.356 . S
C1236 O1292 1.325 . S
N1237 C1240 1.314 . S
N1237 C1241 1.279 . S
C1238 C1236 1.348 . S
C1238 C1240 1.353 . S
C1238 H1296 0.929 . S
C1239 C1236 1.356 . S
C1239 C1241 1.358 . S
C1239 H1297 0.930 . S
C1240 N1237 1.314 . S
C1240 C1238 1.353 . S
C1240 H1298 0.930 . S
C1241 N1237 1.279 . S
C1241 C1239 1.358 . S
C1241 H1299 0.930 . S
C1242 C1245 1.348 . S
C1242 C1246 1.356 . S
C1242 O1293 1.325 . S
C1243 N1244 1.279 . S
C1243 C1246 1.358 . S
C1243 H1300 0.930 . S
N1244 C1243 1.279 . S
N1244 C1247 1.314 . S
C1245 C1242 1.348 . S
C1245 C1247 1.353 . S
C1245 H1301 0.929 . S
C1246 C1242 1.356 . S
C1246 C1243 1.358 . S
C1246 H1302 0.930 . S
C1247 N1244 1.314 . S
C1247 C1245 1.353 . S
C1247 H1303 0.930 . S
C1248 N1249 1.314 . S
C1248 C1253 1.353 . S
C1248 H1254 0.930 . S
N1249 Li1232 1.990 . S
N1249 C1248 1.314 . S
N1249 C1251 1.279 . S
C1250 C1251 1.358 . S
C1250 C1252 1.356 . S
C1250 H1304 0.930 . S
C1251 N1249 1.279 . S
C1251 C1250 1.358 . S
C1251 H1255 0.930 . S
C1252 C1250 1.356 . S
C1252 C1253 1.348 . S
C1253 C1248 1.353 . S
C1253 C1252 1.348 . S
C1253 H1305 0.929 . S
H1254 C1248 0.930 . S
H1255 C1251 0.930 . S
C1256 N1257 1.314 . S
C1256 C1258 1.353 . S
C1256 H1262 0.930 . S
N1257 Li1233 1.990 . S
N1257 C1256 1.314 . S
N1257 C1260 1.279 . S
C1258 C1256 1.353 . S
C1258 C1261 1.348 . S
C1258 H1306 0.929 . S
C1259 C1260 1.358 . S
C1259 C1261 1.356 . S
C1259 H1307 0.930 . S
C1260 N1257 1.279 . S
C1260 C1259 1.358 . S
C1260 H1263 0.930 . S
C1261 C1258 1.348 . S
C1261 C1259 1.356 . S
H1262 C1256 0.930 . S
H1263 C1260 0.930 . S
C1264 C1266 1.348 . S
C1264 C1267 1.356 . S
C1264 O1294 1.325 . S
N1265 C1268 1.314 . S
N1265 C1269 1.279 . S
C1266 C1264 1.348 . S
C1266 C1268 1.353 . S
C1266 H1308 0.929 . S
C1267 C1264 1.356 . S
C1267 C1269 1.358 . S
C1267 H1309 0.930 . S
C1268 N1265 1.314 . S
C1268 C1266 1.353 . S
C1268 H1310 0.930 . S
C1269 N1265 1.279 . S
C1269 C1267 1.358 . S
C1269 H1311 0.930 . S
C1270 C1271 1.348 . S
C1270 C1272 1.356 . S
C1270 O1295 1.325 . S
C1271 C1270 1.348 . S
C1271 C1273 1.353 . S
C1271 H1312 0.929 . S
C1272 C1270 1.356 . S
C1272 C1274 1.358 . S
C1272 H1313 0.930 . S
C1273 C1271 1.353 . S
C1273 N1275 1.314 . S
C1273 H1314 0.930 . S
C1274 C1272 1.358 . S
C1274 N1275 1.279 . S
C1274 H1315 0.930 . S
N1275 C1273 1.314 . S
N1275 C1274 1.279 . S
C1276 C1278 1.353 . S
C1276 N1279 1.314 . S
C1276 H1282 0.930 . S
C1277 N1279 1.279 . S
C1277 C1280 1.358 . S
C1277 H1283 0.930 . S
C1278 C1276 1.353 . S
C1278 C1281 1.348 . S
C1278 H1316 0.929 . S
N1279 Li1234 1.990 . S
N1279 C1276 1.314 . S
N1279 C1277 1.279 . S
C1280 C1277 1.358 . S
C1280 C1281 1.356 . S
C1280 H1317 0.930 . S
C1281 C1278 1.348 . S
C1281 C1280 1.356 . S
H1282 C1276 0.930 . S
H1283 C1277 0.930 . S
C1284 N1285 1.314 . S
C1284 C1286 1.353 . S
C1284 H1290 0.930 . S
N1285 Li1235 1.990 . S
N1285 C1284 1.314 . S
N1285 C1288 1.279 . S
C1286 C1284 1.353 . S
C1286 C1289 1.348 . S
C1286 H1318 0.929 . S
C1287 C1288 1.358 . S
C1287 C1289 1.356 . S
C1287 H1319 0.930 . S
C1288 N1285 1.279 . S
C1288 C1287 1.358 . S
C1288 H1291 0.930 . S
C1289 C1286 1.348 . S
C1289 C1287 1.356 . S
H1290 C1284 0.930 . S
H1291 C1288 0.930 . S
O1292 Li1232 1.956 . S
O1292 Li1233 1.970 . S
O1292 Li1234 1.961 . S
O1292 C1236 1.325 . S
O1293 Li1232 1.970 . S
O1293 Li1233 1.956 . S
O1293 Li1235 1.961 . S
O1293 C1242 1.325 . S
O1294 Li1232 1.961 . S
O1294 Li1234 1.956 . S
O1294 Li1235 1.970 . S
O1294 C1264 1.325 . S
O1295 Li1233 1.961 . S
O1295 Li1234 1.970 . S
O1295 Li1235 1.956 . S
O1295 C1270 1.325 . S
H1296 C1238 0.929 . S
H1297 C1239 0.930 . S
H1298 C1240 0.930 . S
H1299 C1241 0.930 . S
H1300 C1243 0.930 . S
H1301 C1245 0.929 . S
H1302 C1246 0.930 . S
H1303 C1247 0.930 . S
H1304 C1250 0.930 . S
H1305 C1253 0.929 . S
H1306 C1258 0.929 . S
H1307 C1259 0.930 . S
H1308 C1266 0.929 . S
H1309 C1267 0.930 . S
H1310 C1268 0.930 . S
H1311 C1269 0.930 . S
H1312 C1271 0.929 . S
H1313 C1272 0.930 . S
H1314 C1273 0.930 . S
H1315 C1274 0.930 . S
H1316 C1278 0.929 . S
H1317 C1280 0.930 . S
H1318 C1286 0.929 . S
H1319 C1287 0.930 . S
Li1320 N1337 1.990 . S
Li1320 O1380 1.956 . S
Li1320 O1381 1.970 . S
Li1320 O1382 1.961 . S
Li1321 N1345 1.990 . S
Li1321 O1380 1.970 . S
Li1321 O1381 1.956 . S
Li1321 O1383 1.961 . S
Li1322 N1367 1.990 . S
Li1322 O1380 1.961 . S
Li1322 O1382 1.956 . S
Li1322 O1383 1.970 . S
Li1323 N1373 1.990 . S
Li1323 O1381 1.961 . S
Li1323 O1382 1.970 . S
Li1323 O1383 1.956 . S
C1324 C1326 1.348 . S
C1324 C1327 1.356 . S
C1324 O1380 1.325 . S
N1325 C1328 1.314 . S
N1325 C1329 1.279 . S
C1326 C1324 1.348 . S
C1326 C1328 1.353 . S
C1326 H1384 0.929 . S
C1327 C1324 1.356 . S
C1327 C1329 1.358 . S
C1327 H1385 0.930 . S
C1328 N1325 1.314 . S
C1328 C1326 1.353 . S
C1328 H1386 0.930 . S
C1329 N1325 1.279 . S
C1329 C1327 1.358 . S
C1329 H1387 0.930 . S
C1330 C1333 1.348 . S
C1330 C1334 1.356 . S
C1330 O1381 1.325 . S
C1331 N1332 1.279 . S
C1331 C1334 1.358 . S
C1331 H1388 0.930 . S
N1332 C1331 1.279 . S
N1332 C1335 1.314 . S
C1333 C1330 1.348 . S
C1333 C1335 1.353 . S
C1333 H1389 0.929 . S
C1334 C1330 1.356 . S
C1334 C1331 1.358 . S
C1334 H1390 0.930 . S
C1335 N1332 1.314 . S
C1335 C1333 1.353 . S
C1335 H1391 0.930 . S
C1336 N1337 1.314 . S
C1336 C1341 1.353 . S
C1336 H1342 0.930 . S
N1337 Li1320 1.990 . S
N1337 C1336 1.314 . S
N1337 C1339 1.279 . S
C1338 C1339 1.358 . S
C1338 C1340 1.356 . S
C1338 H1392 0.930 . S
C1339 N1337 1.279 . S
C1339 C1338 1.358 . S
C1339 H1343 0.930 . S
C1340 C1338 1.356 . S
C1340 C1341 1.348 . S
C1341 C1336 1.353 . S
C1341 C1340 1.348 . S
C1341 H1393 0.929 . S
H1342 C1336 0.930 . S
H1343 C1339 0.930 . S
C1344 N1345 1.314 . S
C1344 C1346 1.353 . S
C1344 H1350 0.930 . S
N1345 Li1321 1.990 . S
N1345 C1344 1.314 . S
N1345 C1348 1.279 . S
C1346 C1344 1.353 . S
C1346 C1349 1.348 . S
C1346 H1394 0.929 . S
C1347 C1348 1.358 . S
C1347 C1349 1.356 . S
C1347 H1395 0.930 . S
C1348 N1345 1.279 . S
C1348 C1347 1.358 . S
C1348 H1351 0.930 . S
C1349 C1346 1.348 . S
C1349 C1347 1.356 . S
H1350 C1344 0.930 . S
H1351 C1348 0.930 . S
C1352 C1354 1.348 . S
C1352 C1355 1.356 . S
C1352 O1382 1.325 . S
N1353 C1356 1.314 . S
N1353 C1357 1.279 . S
C1354 C1352 1.348 . S
C1354 C1356 1.353 . S
C1354 H1396 0.929 . S
C1355 C1352 1.356 . S
C1355 C1357 1.358 . S
C1355 H1397 0.930 . S
C1356 N1353 1.314 . S
C1356 C1354 1.353 . S
C1356 H1398 0.930 . S
C1357 N1353 1.279 . S
C1357 C1355 1.358 . S
C1357 H1399 0.930 . S
C1358 C1359 1.348 . S
C1358 C1360 1.356 . S
C1358 O1383 1.325 . S
C1359 C1358 1.348 . S
C1359 C1361 1.353 . S
C1359 H1400 0.929 . S
C1360 C1358 1.356 . S
C1360 C1362 1.358 . S
C1360 H1401 0.930 . S
C1361 C1359 1.353 . S
C1361 N1363 1.314 . S
C1361 H1402 0.930 . S
C1362 C1360 1.358 . S
C1362 N1363 1.279 . S
C1362 H1403 0.930 . S
N1363 C1361 1.314 . S
N1363 C1362 1.279 . S
C1364 C1366 1.353 . S
C1364 N1367 1.314 . S
C1364 H1370 0.930 . S
C1365 N1367 1.279 . S
C1365 C1368 1.358 . S
C1365 H1371 0.930 . S
C1366 C1364 1.353 . S
C1366 C1369 1.348 . S
C1366 H1404 0.929 . S
N1367 Li1322 1.990 . S
N1367 C1364 1.314 . S
N1367 C1365 1.279 . S
C1368 C1365 1.358 . S
C1368 C1369 1.356 . S
C1368 H1405 0.930 . S
C1369 C1366 1.348 . S
C1369 C1368 1.356 . S
H1370 C1364 0.930 . S
H1371 C1365 0.930 . S
C1372 N1373 1.314 . S
C1372 C1374 1.353 . S
C1372 H1378 0.930 . S
N1373 Li1323 1.990 . S
N1373 C1372 1.314 . S
N1373 C1376 1.279 . S
C1374 C1372 1.353 . S
C1374 C1377 1.348 . S
C1374 H1406 0.929 . S
C1375 C1376 1.358 . S
C1375 C1377 1.356 . S
C1375 H1407 0.930 . S
C1376 N1373 1.279 . S
C1376 C1375 1.358 . S
C1376 H1379 0.930 . S
C1377 C1374 1.348 . S
C1377 C1375 1.356 . S
H1378 C1372 0.930 . S
H1379 C1376 0.930 . S
O1380 Li1320 1.956 . S
O1380 Li1321 1.970 . S
O1380 Li1322 1.961 . S
O1380 C1324 1.325 . S
O1381 Li1320 1.970 . S
O1381 Li1321 1.956 . S
O1381 Li1323 1.961 . S
O1381 C1330 1.325 . S
O1382 Li1320 1.961 . S
O1382 Li1322 1.956 . S
O1382 Li1323 1.970 . S
O1382 C1352 1.325 . S
O1383 Li1321 1.961 . S
O1383 Li1322 1.970 . S
O1383 Li1323 1.956 . S
O1383 C1358 1.325 . S
H1384 C1326 0.929 . S
H1385 C1327 0.930 . S
H1386 C1328 0.930 . S
H1387 C1329 0.930 . S
H1388 C1331 0.930 . S
H1389 C1333 0.929 . S
H1390 C1334 0.930 . S
H1391 C1335 0.930 . S
H1392 C1338 0.930 . S
H1393 C1341 0.929 . S
H1394 C1346 0.929 . S
H1395 C1347 0.930 . S
H1396 C1354 0.929 . S
H1397 C1355 0.930 . S
H1398 C1356 0.930 . S
H1399 C1357 0.930 . S
H1400 C1359 0.929 . S
H1401 C1360 0.930 . S
H1402 C1361 0.930 . S
H1403 C1362 0.930 . S
H1404 C1366 0.929 . S
H1405 C1368 0.930 . S
H1406 C1374 0.929 . S
H1407 C1375 0.930 . S
Li1408 N1425 1.990 . S
Li1408 O1468 1.956 . S
Li1408 O1469 1.970 . S
Li1408 O1470 1.961 . S
Li1409 N1433 1.990 . S
Li1409 O1468 1.970 . S
Li1409 O1469 1.956 . S
Li1409 O1471 1.961 . S
Li1410 N1455 1.990 . S
Li1410 O1468 1.961 . S
Li1410 O1470 1.956 . S
Li1410 O1471 1.970 . S
Li1411 N1461 1.990 1_545 S
Li1411 O1469 1.961 . S
Li1411 O1470 1.970 . S
Li1411 O1471 1.956 . S
C1412 C1414 1.348 . S
C1412 C1415 1.356 . S
C1412 O1468 1.325 . S
N1413 C1416 1.314 . S
N1413 C1417 1.279 . S
C1414 C1412 1.348 . S
C1414 C1416 1.353 . S
C1414 H1472 0.929 . S
C1415 C1412 1.356 . S
C1415 C1417 1.358 . S
C1415 H1473 0.930 . S
C1416 N1413 1.314 . S
C1416 C1414 1.353 . S
C1416 H1474 0.930 . S
C1417 N1413 1.279 . S
C1417 C1415 1.358 . S
C1417 H1475 0.930 . S
C1418 C1421 1.348 . S
C1418 C1422 1.346 1_545 S
C1418 O1469 1.325 . S
C1419 N1420 1.279 . S
C1419 C1422 1.365 . S
C1419 H1476 0.930 . S
N1420 C1419 1.279 . S
N1420 C1423 1.314 . S
C1421 C1418 1.348 . S
C1421 C1423 1.353 1_545 S
C1421 H1477 0.929 . S
C1422 C1418 1.346 1_565 S
C1422 C1419 1.365 . S
C1422 H1478 0.934 1_565 S
C1423 N1420 1.314 . S
C1423 C1421 1.353 1_565 S
C1423 H1479 0.930 . S
C1424 N1425 1.314 . S
C1424 C1429 1.353 . S
C1424 H1430 0.930 . S
N1425 Li1408 1.990 . S
N1425 C1424 1.314 . S
N1425 C1427 1.279 . S
C1426 C1427 1.358 . S
C1426 C1428 1.356 . S
C1426 H1480 0.930 . S
C1427 N1425 1.279 . S
C1427 C1426 1.358 . S
C1427 H1431 0.930 . S
C1428 C1426 1.356 . S
C1428 C1429 1.348 . S
C1429 C1424 1.353 . S
C1429 C1428 1.348 . S
C1429 H1481 0.929 . S
H1430 C1424 0.930 . S
H1431 C1427 0.930 . S
C1432 N1433 1.314 . S
C1432 C1434 1.353 . S
C1432 H1438 0.930 . S
N1433 Li1409 1.990 . S
N1433 C1432 1.314 . S
N1433 C1436 1.279 . S
C1434 C1432 1.353 . S
C1434 C1437 1.348 . S
C1434 H1482 0.929 . S
C1435 C1436 1.358 . S
C1435 C1437 1.356 . S
C1435 H1483 0.930 . S
C1436 N1433 1.279 . S
C1436 C1435 1.358 . S
C1436 H1439 0.930 . S
C1437 C1434 1.348 . S
C1437 C1435 1.356 . S
H1438 C1432 0.930 . S
H1439 C1436 0.930 . S
C1440 C1442 1.348 . S
C1440 C1443 1.356 . S
C1440 O1470 1.325 . S
N1441 C1444 1.314 . S
N1441 C1445 1.279 . S
C1442 C1440 1.348 . S
C1442 C1444 1.353 . S
C1442 H1484 0.929 . S
C1443 C1440 1.356 . S
C1443 C1445 1.358 . S
C1443 H1485 0.930 . S
C1444 N1441 1.314 . S
C1444 C1442 1.353 . S
C1444 H1486 0.930 1_545 S
C1445 N1441 1.279 . S
C1445 C1443 1.358 . S
C1445 H1487 0.930 . S
C1446 C1447 1.348 . S
C1446 C1448 1.356 . S
C1446 O1471 1.325 . S
C1447 C1446 1.348 . S
C1447 C1449 1.353 . S
C1447 H1488 0.929 . S
C1448 C1446 1.356 . S
C1448 C1450 1.358 . S
C1448 H1489 0.930 . S
C1449 C1447 1.353 . S
C1449 N1451 1.314 . S
C1449 H1490 0.930 . S
C1450 C1448 1.358 . S
C1450 N1451 1.279 . S
C1450 H1491 0.930 . S
N1451 C1449 1.314 . S
N1451 C1450 1.279 . S
C1452 C1454 1.353 . S
C1452 N1455 1.314 . S
C1452 H1458 0.930 . S
C1453 N1455 1.279 . S
C1453 C1456 1.358 . S
C1453 H1459 0.930 . S
C1454 C1452 1.353 . S
C1454 C1457 1.348 . S
C1454 H1492 0.929 . S
N1455 Li1410 1.990 . S
N1455 C1452 1.314 . S
N1455 C1453 1.279 . S
C1456 C1453 1.358 . S
C1456 C1457 1.356 . S
C1456 H1493 0.930 . S
C1457 C1454 1.348 . S
C1457 C1456 1.356 . S
H1458 C1452 0.930 . S
H1459 C1453 0.930 . S
C1460 N1461 1.314 . S
C1460 C1462 1.353 . S
C1460 H1466 0.930 . S
N1461 Li1411 1.990 1_565 S
N1461 C1460 1.314 . S
N1461 C1464 1.279 . S
C1462 C1460 1.353 . S
C1462 C1465 1.348 . S
C1462 H1494 0.929 . S
C1463 C1464 1.358 . S
C1463 C1465 1.356 . S
C1463 H1495 0.930 . S
C1464 N1461 1.279 . S
C1464 C1463 1.358 . S
C1464 H1467 0.930 1_565 S
C1465 C1462 1.348 . S
C1465 C1463 1.356 . S
H1466 C1460 0.930 . S
H1467 C1464 0.930 1_545 S
O1468 Li1408 1.956 . S
O1468 Li1409 1.970 . S
O1468 Li1410 1.961 . S
O1468 C1412 1.325 . S
O1469 Li1408 1.970 . S
O1469 Li1409 1.956 . S
O1469 Li1411 1.961 . S
O1469 C1418 1.325 . S
O1470 Li1408 1.961 . S
O1470 Li1410 1.956 . S
O1470 Li1411 1.970 . S
O1470 C1440 1.325 . S
O1471 Li1409 1.961 . S
O1471 Li1410 1.970 . S
O1471 Li1411 1.956 . S
O1471 C1446 1.325 . S
H1472 C1414 0.929 . S
H1473 C1415 0.930 . S
H1474 C1416 0.930 . S
H1475 C1417 0.930 . S
H1476 C1419 0.930 . S
H1477 C1421 0.929 . S
H1478 C1422 0.934 1_545 S
H1479 C1423 0.930 . S
H1480 C1426 0.930 . S
H1481 C1429 0.929 . S
H1482 C1434 0.929 . S
H1483 C1435 0.930 . S
H1484 C1442 0.929 . S
H1485 C1443 0.930 . S
H1486 C1444 0.930 1_565 S
H1487 C1445 0.930 . S
H1488 C1447 0.929 . S
H1489 C1448 0.930 . S
H1490 C1449 0.930 . S
H1491 C1450 0.930 . S
H1492 C1454 0.929 . S
H1493 C1456 0.930 . S
H1494 C1462 0.929 . S
H1495 C1463 0.930 . S
Li1496 N1513 1.990 . S
Li1496 O1556 1.956 . S
Li1496 O1557 1.970 . S
Li1496 O1558 1.961 . S
Li1497 N1521 1.990 . S
Li1497 O1556 1.970 . S
Li1497 O1557 1.956 . S
Li1497 O1559 1.961 . S
Li1498 N1543 1.962 1_655 S
Li1498 O1556 1.961 . S
Li1498 O1558 1.956 . S
Li1498 O1559 1.970 . S
Li1499 N1549 1.990 . S
Li1499 O1557 1.961 . S
Li1499 O1558 1.970 . S
Li1499 O1559 1.956 . S
C1500 C1502 1.348 . S
C1500 C1503 1.356 . S
C1500 O1556 1.325 . S
N1501 C1504 1.317 . S
N1501 C1505 1.279 . S
C1502 C1500 1.348 . S
C1502 C1504 1.346 1_655 S
C1502 H1560 0.929 . S
C1503 C1500 1.356 . S
C1503 C1505 1.358 1_655 S
C1503 H1561 0.930 . S
C1504 N1501 1.317 . S
C1504 C1502 1.346 1_455 S
C1504 H1562 0.913 . S
C1505 N1501 1.279 . S
C1505 C1503 1.358 1_455 S
C1505 H1563 0.930 . S
C1506 C1509 1.348 . S
C1506 C1510 1.356 . S
C1506 O1557 1.325 . S
C1507 N1508 1.279 . S
C1507 C1510 1.358 . S
C1507 H1564 0.930 . S
N1508 C1507 1.279 . S
N1508 C1511 1.314 . S
C1509 C1506 1.348 . S
C1509 C1511 1.353 . S
C1509 H1565 0.929 . S
C1510 C1506 1.356 . S
C1510 C1507 1.358 . S
C1510 H1566 0.930 . S
C1511 N1508 1.314 . S
C1511 C1509 1.353 . S
C1511 H1567 0.930 . S
C1512 N1513 1.314 . S
C1512 C1517 1.353 . S
C1512 H1518 0.930 . S
N1513 Li1496 1.990 . S
N1513 C1512 1.314 . S
N1513 C1515 1.279 . S
C1514 C1515 1.358 . S
C1514 C1516 1.356 . S
C1514 H1568 0.930 . S
C1515 N1513 1.279 . S
C1515 C1514 1.358 . S
C1515 H1519 0.930 . S
C1516 C1514 1.356 . S
C1516 C1517 1.348 . S
C1517 C1512 1.353 . S
C1517 C1516 1.348 . S
C1517 H1569 0.929 . S
H1518 C1512 0.930 . S
H1519 C1515 0.930 . S
C1520 N1521 1.314 . S
C1520 C1522 1.353 . S
C1520 H1526 0.930 . S
N1521 Li1497 1.990 . S
N1521 C1520 1.314 . S
N1521 C1524 1.279 . S
C1522 C1520 1.353 . S
C1522 C1525 1.348 . S
C1522 H1570 0.929 . S
C1523 C1524 1.358 . S
C1523 C1525 1.356 . S
C1523 H1571 0.930 . S
C1524 N1521 1.279 . S
C1524 C1523 1.358 . S
C1524 H1527 0.930 . S
C1525 C1522 1.348 . S
C1525 C1523 1.356 . S
H1526 C1520 0.930 . S
H1527 C1524 0.930 . S
C1528 C1530 1.348 . S
C1528 C1531 1.356 . S
C1528 O1558 1.325 . S
N1529 C1532 1.314 . S
N1529 C1533 1.279 . S
C1530 C1528 1.348 . S
C1530 C1532 1.353 . S
C1530 H1572 0.929 . S
C1531 C1528 1.356 . S
C1531 C1533 1.358 . S
C1531 H1573 0.930 . S
C1532 N1529 1.314 . S
C1532 C1530 1.353 . S
C1532 H1574 0.930 . S
C1533 N1529 1.279 . S
C1533 C1531 1.358 . S
C1533 H1575 0.930 . S
C1534 C1535 1.348 . S
C1534 C1536 1.356 . S
C1534 O1559 1.325 . S
C1535 C1534 1.348 . S
C1535 C1537 1.353 . S
C1535 H1576 0.929 . S
C1536 C1534 1.356 . S
C1536 C1538 1.358 . S
C1536 H1577 0.930 . S
C1537 C1535 1.353 . S
C1537 N1539 1.314 . S
C1537 H1578 0.930 . S
C1538 C1536 1.358 . S
C1538 N1539 1.279 . S
C1538 H1579 0.930 . S
N1539 C1537 1.314 . S
N1539 C1538 1.279 . S
C1540 C1542 1.353 . S
C1540 N1543 1.360 . S
C1540 H1546 0.930 . S
C1541 N1543 1.270 . S
C1541 C1544 1.358 . S
C1541 H1547 0.930 1_455 S
C1542 C1540 1.353 . S
C1542 C1545 1.348 . S
C1542 H1580 0.929 . S
N1543 Li1498 1.962 1_455 S
N1543 C1540 1.360 . S
N1543 C1541 1.270 . S
C1544 C1541 1.358 . S
C1544 C1545 1.356 . S
C1544 H1581 0.930 . S
C1545 C1542 1.348 . S
C1545 C1544 1.356 . S
H1546 C1540 0.930 . S
H1547 C1541 0.930 1_655 S
C1548 N1549 1.314 . S
C1548 C1550 1.353 . S
C1548 H1554 0.930 . S
N1549 Li1499 1.990 . S
N1549 C1548 1.314 . S
N1549 C1552 1.279 . S
C1550 C1548 1.353 . S
C1550 C1553 1.348 . S
C1550 H1582 0.929 . S
C1551 C1552 1.358 . S
C1551 C1553 1.356 . S
C1551 H1583 0.930 . S
C1552 N1549 1.279 . S
C1552 C1551 1.358 . S
C1552 H1555 0.930 . S
C1553 C1550 1.348 . S
C1553 C1551 1.356 . S
H1554 C1548 0.930 . S
H1555 C1552 0.930 . S
O1556 Li1496 1.956 . S
O1556 Li1497 1.970 . S
O1556 Li1498 1.961 . S
O1556 C1500 1.325 . S
O1557 Li1496 1.970 . S
O1557 Li1497 1.956 . S
O1557 Li1499 1.961 . S
O1557 C1506 1.325 . S
O1558 Li1496 1.961 . S
O1558 Li1498 1.956 . S
O1558 Li1499 1.970 . S
O1558 C1528 1.325 . S
O1559 Li1497 1.961 . S
O1559 Li1498 1.970 . S
O1559 Li1499 1.956 . S
O1559 C1534 1.325 . S
H1560 C1502 0.929 . S
H1561 C1503 0.930 . S
H1562 C1504 0.913 . S
H1563 C1505 0.930 . S
H1564 C1507 0.930 . S
H1565 C1509 0.929 . S
H1566 C1510 0.930 . S
H1567 C1511 0.930 . S
H1568 C1514 0.930 . S
H1569 C1517 0.929 . S
H1570 C1522 0.929 . S
H1571 C1523 0.930 . S
H1572 C1530 0.929 . S
H1573 C1531 0.930 . S
H1574 C1532 0.930 . S
H1575 C1533 0.930 . S
H1576 C1535 0.929 . S
H1577 C1536 0.930 . S
H1578 C1537 0.930 . S
H1579 C1538 0.930 . S
H1580 C1542 0.929 . S
H1581 C1544 0.930 . S
H1582 C1550 0.929 . S
H1583 C1551 0.930 . S
H1584 O1610 0.856 . S
H1585 O1613 0.854 . S
H1586 C1621 0.930 . S
H1587 C1622 0.930 . S
H1588 C1624 0.930 . S
H1589 C1625 0.930 . S
H1590 C1627 0.931 . S
H1591 C1628 0.930 . S
H1592 C1630 0.930 . S
H1593 C1631 0.929 . S
H1594 C1633 0.930 . S
H1595 C1634 0.931 . S
H1596 C1636 0.930 . S
H1597 C1637 0.929 . S
H1598 C1639 0.931 . S
H1599 C1640 0.930 . S
H1600 C1642 0.930 . S
H1601 C1643 0.932 . S
H1602 C1645 0.930 . S
H1603 C1646 0.929 . S
H1604 C1648 0.931 . S
H1605 C1649 0.930 . S
H1606 C1651 0.929 . S
H1607 C1652 0.931 . S
H1608 C1654 0.930 . S
H1609 C1655 0.929 . S
O1610 H1584 0.856 . S
O1610 C1656 1.300 . S
O1611 C1656 1.209 . S
O1612 C1657 1.199 . S
O1613 H1585 0.854 . S
O1613 C1657 1.297 . S
C1614 C1615 1.404 . S
C1614 C1619 1.397 . S
C1614 C1620 1.492 . S
C1615 C1614 1.404 . S
C1615 C1616 1.396 . S
C1615 C1626 1.492 . S
C1616 C1615 1.396 . S
C1616 C1617 1.397 . S
C1616 C1632 1.509 . S
C1617 C1616 1.397 . S
C1617 C1618 1.412 . S
C1617 C1638 1.485 . S
C1618 C1617 1.412 . S
C1618 C1619 1.388 . S
C1618 C1644 1.490 . S
C1619 C1614 1.397 . S
C1619 C1618 1.388 . S
C1619 C1650 1.519 . S
C1620 C1614 1.492 . S
C1620 C1621 1.363 . S
C1620 C1625 1.390 . S
C1621 H1586 0.930 . S
C1621 C1620 1.363 . S
C1621 C1622 1.372 . S
C1622 H1587 0.930 . S
C1622 C1621 1.372 . S
C1622 C1623 1.383 . S
C1623 C1622 1.383 . S
C1623 C1624 1.395 . S
C1624 H1588 0.930 . S
C1624 C1623 1.395 . S
C1624 C1625 1.362 . S
C1625 H1589 0.930 . S
C1625 C1620 1.390 . S
C1625 C1624 1.362 . S
C1626 C1615 1.492 . S
C1626 C1627 1.377 . S
C1626 C1631 1.397 . S
C1627 H1590 0.931 . S
C1627 C1626 1.377 . S
C1627 C1628 1.376 . S
C1628 H1591 0.930 . S
C1628 C1627 1.376 . S
C1628 C1629 1.376 . S
C1629 C1628 1.376 . S
C1629 C1630 1.378 . S
C1629 C1656 1.486 . S
C1630 H1592 0.930 . S
C1630 C1629 1.378 . S
C1630 C1631 1.376 . S
C1631 H1593 0.929 . S
C1631 C1626 1.397 . S
C1631 C1630 1.376 . S
C1632 C1616 1.509 . S
C1632 C1633 1.391 . S
C1632 C1637 1.386 . S
C1633 H1594 0.930 . S
C1633 C1632 1.391 . S
C1633 C1634 1.375 . S
C1634 H1595 0.931 . S
C1634 C1633 1.375 . S
C1634 C1635 1.375 . S
C1635 C1634 1.375 . S
C1635 C1636 1.361 . S
C1636 H1596 0.930 . S
C1636 C1635 1.361 . S
C1636 C1637 1.399 . S
C1637 H1597 0.929 . S
C1637 C1632 1.386 . S
C1637 C1636 1.399 . S
C1638 C1617 1.485 . S
C1638 C1639 1.394 . S
C1638 C1643 1.360 . S
C1639 H1598 0.931 . S
C1639 C1638 1.394 . S
C1639 C1640 1.372 . S
C1640 H1599 0.930 . S
C1640 C1639 1.372 . S
C1640 C1641 1.397 . S
C1641 C1640 1.397 . S
C1641 C1642 1.390 . S
C1641 C1657 1.476 . S
C1642 H1600 0.930 . S
C1642 C1641 1.390 . S
C1642 C1643 1.366 . S
C1643 H1601 0.932 . S
C1643 C1638 1.360 . S
C1643 C1642 1.366 . S
C1644 C1618 1.490 . S
C1644 C1645 1.380 . S
C1644 C1649 1.386 . S
C1645 H1602 0.930 . S
C1645 C1644 1.380 . S
C1645 C1646 1.381 . S
C1646 H1603 0.929 . S
C1646 C1645 1.381 . S
C1646 C1647 1.371 . S
C1647 C1646 1.371 . S
C1647 C1648 1.380 . S
C1648 H1604 0.931 . S
C1648 C1647 1.380 . S
C1648 C1649 1.387 . S
C1649 H1605 0.930 . S
C1649 C1644 1.386 . S
C1649 C1648 1.387 . S
C1650 C1619 1.519 . S
C1650 C1651 1.377 . S
C1650 C1655 1.361 . S
C1651 H1606 0.929 . S
C1651 C1650 1.377 . S
C1651 C1652 1.386 . S
C1652 H1607 0.931 . S
C1652 C1651 1.386 . S
C1652 C1653 1.363 . S
C1653 C1652 1.363 . S
C1653 C1654 1.385 . S
C1654 H1608 0.930 . S
C1654 C1653 1.385 . S
C1654 C1655 1.396 . S
C1655 H1609 0.929 . S
C1655 C1650 1.361 . S
C1655 C1654 1.396 . S
C1656 O1610 1.300 . S
C1656 O1611 1.209 . S
C1656 C1629 1.486 . S
C1657 O1612 1.199 . S
C1657 O1613 1.297 . S
C1657 C1641 1.476 . S
H1658 O1684 0.856 . S
H1659 O1687 0.854 . S
H1660 C1695 0.930 . S
H1661 C1696 0.930 . S
H1662 C1698 0.930 . S
H1663 C1699 0.930 . S
H1664 C1701 0.931 . S
H1665 C1702 0.930 . S
H1666 C1704 0.930 . S
H1667 C1705 0.929 . S
H1668 C1707 0.930 . S
H1669 C1708 0.931 . S
H1670 C1710 0.930 . S
H1671 C1711 0.929 . S
H1672 C1713 0.931 . S
H1673 C1714 0.930 . S
H1674 C1716 0.930 . S
H1675 C1717 0.932 . S
H1676 C1719 0.930 . S
H1677 C1720 0.929 . S
H1678 C1722 0.931 . S
H1679 C1723 0.930 . S
H1680 C1725 0.929 . S
H1681 C1726 0.931 . S
H1682 C1728 0.930 . S
H1683 C1729 0.929 . S
O1684 H1658 0.856 . S
O1684 C1730 1.300 . S
O1685 C1730 1.209 . S
O1686 C1731 1.199 . S
O1687 H1659 0.854 . S
O1687 C1731 1.297 . S
C1688 C1689 1.404 . S
C1688 C1693 1.397 . S
C1688 C1694 1.492 . S
C1689 C1688 1.404 . S
C1689 C1690 1.396 . S
C1689 C1700 1.492 . S
C1690 C1689 1.396 . S
C1690 C1691 1.397 . S
C1690 C1706 1.509 . S
C1691 C1690 1.397 . S
C1691 C1692 1.412 . S
C1691 C1712 1.485 . S
C1692 C1691 1.412 . S
C1692 C1693 1.388 . S
C1692 C1718 1.490 . S
C1693 C1688 1.397 . S
C1693 C1692 1.388 . S
C1693 C1724 1.519 . S
C1694 C1688 1.492 . S
C1694 C1695 1.363 . S
C1694 C1699 1.390 . S
C1695 H1660 0.930 . S
C1695 C1694 1.363 . S
C1695 C1696 1.372 . S
C1696 H1661 0.930 . S
C1696 C1695 1.372 . S
C1696 C1697 1.383 . S
C1697 C1696 1.383 . S
C1697 C1698 1.395 . S
C1698 H1662 0.930 . S
C1698 C1697 1.395 . S
C1698 C1699 1.362 . S
C1699 H1663 0.930 . S
C1699 C1694 1.390 . S
C1699 C1698 1.362 . S
C1700 C1689 1.492 . S
C1700 C1701 1.377 . S
C1700 C1705 1.397 . S
C1701 H1664 0.931 . S
C1701 C1700 1.377 . S
C1701 C1702 1.376 . S
C1702 H1665 0.930 . S
C1702 C1701 1.376 . S
C1702 C1703 1.376 . S
C1703 C1702 1.376 . S
C1703 C1704 1.378 . S
C1703 C1730 1.486 . S
C1704 H1666 0.930 . S
C1704 C1703 1.378 . S
C1704 C1705 1.376 . S
C1705 H1667 0.929 . S
C1705 C1700 1.397 . S
C1705 C1704 1.376 . S
C1706 C1690 1.509 . S
C1706 C1707 1.391 . S
C1706 C1711 1.386 . S
C1707 H1668 0.930 . S
C1707 C1706 1.391 . S
C1707 C1708 1.375 . S
C1708 H1669 0.931 . S
C1708 C1707 1.375 . S
C1708 C1709 1.375 . S
C1709 C1708 1.375 . S
C1709 C1710 1.361 . S
C1710 H1670 0.930 . S
C1710 C1709 1.361 . S
C1710 C1711 1.399 . S
C1711 H1671 0.929 . S
C1711 C1706 1.386 . S
C1711 C1710 1.399 . S
C1712 C1691 1.485 . S
C1712 C1713 1.394 . S
C1712 C1717 1.360 . S
C1713 H1672 0.931 . S
C1713 C1712 1.394 . S
C1713 C1714 1.372 . S
C1714 H1673 0.930 . S
C1714 C1713 1.372 . S
C1714 C1715 1.397 . S
C1715 C1714 1.397 . S
C1715 C1716 1.390 . S
C1715 C1731 1.476 . S
C1716 H1674 0.930 . S
C1716 C1715 1.390 . S
C1716 C1717 1.366 . S
C1717 H1675 0.932 . S
C1717 C1712 1.360 . S
C1717 C1716 1.366 . S
C1718 C1692 1.490 . S
C1718 C1719 1.380 . S
C1718 C1723 1.386 . S
C1719 H1676 0.930 . S
C1719 C1718 1.380 . S
C1719 C1720 1.381 . S
C1720 H1677 0.929 . S
C1720 C1719 1.381 . S
C1720 C1721 1.371 . S
C1721 C1720 1.371 . S
C1721 C1722 1.380 . S
C1722 H1678 0.931 . S
C1722 C1721 1.380 . S
C1722 C1723 1.387 . S
C1723 H1679 0.930 . S
C1723 C1718 1.386 . S
C1723 C1722 1.387 . S
C1724 C1693 1.519 . S
C1724 C1725 1.377 . S
C1724 C1729 1.361 . S
C1725 H1680 0.929 . S
C1725 C1724 1.377 . S
C1725 C1726 1.386 . S
C1726 H1681 0.931 . S
C1726 C1725 1.386 . S
C1726 C1727 1.363 . S
C1727 C1726 1.363 . S
C1727 C1728 1.385 . S
C1728 H1682 0.930 . S
C1728 C1727 1.385 . S
C1728 C1729 1.396 . S
C1729 H1683 0.929 . S
C1729 C1724 1.361 . S
C1729 C1728 1.396 . S
C1730 O1684 1.300 . S
C1730 O1685 1.209 . S
C1730 C1703 1.486 . S
C1731 O1686 1.199 . S
C1731 O1687 1.297 . S
C1731 C1715 1.476 . S
H1732 O1758 0.856 . S
H1733 O1761 0.854 . S
H1734 C1769 0.930 . S
H1735 C1770 0.930 . S
H1736 C1772 0.930 . S
H1737 C1773 0.930 . S
H1738 C1775 0.931 . S
H1739 C1776 0.930 . S
H1740 C1778 0.930 . S
H1741 C1779 0.929 . S
H1742 C1781 0.930 . S
H1743 C1782 0.931 . S
H1744 C1784 0.930 . S
H1745 C1785 0.929 . S
H1746 C1787 0.931 . S
H1747 C1788 0.930 . S
H1748 C1790 0.930 . S
H1749 C1791 0.932 . S
H1750 C1793 0.930 . S
H1751 C1794 0.929 . S
H1752 C1796 0.931 . S
H1753 C1797 0.930 . S
H1754 C1799 0.929 . S
H1755 C1800 0.931 . S
H1756 C1802 0.930 . S
H1757 C1803 0.929 . S
O1758 H1732 0.856 . S
O1758 C1804 1.300 . S
O1759 C1804 1.209 . S
O1760 C1805 1.199 . S
O1761 H1733 0.854 . S
O1761 C1805 1.297 . S
C1762 C1763 1.404 . S
C1762 C1767 1.397 . S
C1762 C1768 1.492 . S
C1763 C1762 1.404 . S
C1763 C1764 1.396 . S
C1763 C1774 1.492 . S
C1764 C1763 1.396 . S
C1764 C1765 1.397 . S
C1764 C1780 1.509 . S
C1765 C1764 1.397 . S
C1765 C1766 1.412 . S
C1765 C1786 1.485 . S
C1766 C1765 1.412 . S
C1766 C1767 1.388 . S
C1766 C1792 1.490 . S
C1767 C1762 1.397 . S
C1767 C1766 1.388 . S
C1767 C1798 1.519 . S
C1768 C1762 1.492 . S
C1768 C1769 1.363 . S
C1768 C1773 1.390 . S
C1769 H1734 0.930 . S
C1769 C1768 1.363 . S
C1769 C1770 1.372 . S
C1770 H1735 0.930 . S
C1770 C1769 1.372 . S
C1770 C1771 1.383 . S
C1771 C1770 1.383 . S
C1771 C1772 1.395 . S
C1772 H1736 0.930 . S
C1772 C1771 1.395 . S
C1772 C1773 1.362 . S
C1773 H1737 0.930 . S
C1773 C1768 1.390 . S
C1773 C1772 1.362 . S
C1774 C1763 1.492 . S
C1774 C1775 1.377 . S
C1774 C1779 1.397 . S
C1775 H1738 0.931 . S
C1775 C1774 1.377 . S
C1775 C1776 1.376 . S
C1776 H1739 0.930 . S
C1776 C1775 1.376 . S
C1776 C1777 1.376 . S
C1777 C1776 1.376 . S
C1777 C1778 1.378 . S
C1777 C1804 1.486 . S
C1778 H1740 0.930 . S
C1778 C1777 1.378 . S
C1778 C1779 1.376 . S
C1779 H1741 0.929 . S
C1779 C1774 1.397 . S
C1779 C1778 1.376 . S
C1780 C1764 1.509 . S
C1780 C1781 1.391 . S
C1780 C1785 1.386 . S
C1781 H1742 0.930 . S
C1781 C1780 1.391 . S
C1781 C1782 1.375 . S
C1782 H1743 0.931 . S
C1782 C1781 1.375 . S
C1782 C1783 1.375 . S
C1783 C1782 1.375 . S
C1783 C1784 1.361 . S
C1784 H1744 0.930 . S
C1784 C1783 1.361 . S
C1784 C1785 1.399 . S
C1785 H1745 0.929 . S
C1785 C1780 1.386 . S
C1785 C1784 1.399 . S
C1786 C1765 1.485 . S
C1786 C1787 1.394 . S
C1786 C1791 1.360 . S
C1787 H1746 0.931 . S
C1787 C1786 1.394 . S
C1787 C1788 1.372 . S
C1788 H1747 0.930 . S
C1788 C1787 1.372 . S
C1788 C1789 1.397 . S
C1789 C1788 1.397 . S
C1789 C1790 1.390 . S
C1789 C1805 1.476 . S
C1790 H1748 0.930 . S
C1790 C1789 1.390 . S
C1790 C1791 1.366 . S
C1791 H1749 0.932 . S
C1791 C1786 1.360 . S
C1791 C1790 1.366 . S
C1792 C1766 1.490 . S
C1792 C1793 1.380 . S
C1792 C1797 1.386 . S
C1793 H1750 0.930 . S
C1793 C1792 1.380 . S
C1793 C1794 1.381 . S
C1794 H1751 0.929 . S
C1794 C1793 1.381 . S
C1794 C1795 1.371 . S
C1795 C1794 1.371 . S
C1795 C1796 1.380 . S
C1796 H1752 0.931 . S
C1796 C1795 1.380 . S
C1796 C1797 1.387 . S
C1797 H1753 0.930 . S
C1797 C1792 1.386 . S
C1797 C1796 1.387 . S
C1798 C1767 1.519 . S
C1798 C1799 1.377 . S
C1798 C1803 1.361 . S
C1799 H1754 0.929 . S
C1799 C1798 1.377 . S
C1799 C1800 1.386 . S
C1800 H1755 0.931 . S
C1800 C1799 1.386 . S
C1800 C1801 1.363 . S
C1801 C1800 1.363 . S
C1801 C1802 1.385 . S
C1802 H1756 0.930 . S
C1802 C1801 1.385 . S
C1802 C1803 1.396 . S
C1803 H1757 0.929 . S
C1803 C1798 1.361 . S
C1803 C1802 1.396 . S
C1804 O1758 1.300 . S
C1804 O1759 1.209 . S
C1804 C1777 1.486 . S
C1805 O1760 1.199 . S
C1805 O1761 1.297 . S
C1805 C1789 1.476 . S
H1806 O1832 0.856 . S
H1807 O1835 0.854 . S
H1808 C1843 0.930 . S
H1809 C1844 0.930 . S
H1810 C1846 0.930 . S
H1811 C1847 0.930 . S
H1812 C1849 0.931 . S
H1813 C1850 0.930 . S
H1814 C1852 0.930 . S
H1815 C1853 0.929 . S
H1816 C1855 0.930 . S
H1817 C1856 0.931 . S
H1818 C1858 0.930 . S
H1819 C1859 0.929 . S
H1820 C1861 0.931 . S
H1821 C1862 0.930 . S
H1822 C1864 0.930 . S
H1823 C1865 0.932 . S
H1824 C1867 0.930 . S
H1825 C1868 0.929 . S
H1826 C1870 0.931 . S
H1827 C1871 0.930 . S
H1828 C1873 0.929 . S
H1829 C1874 0.931 . S
H1830 C1876 0.930 . S
H1831 C1877 0.929 . S
O1832 H1806 0.856 . S
O1832 C1878 1.300 . S
O1833 C1878 1.209 . S
O1834 C1879 1.199 . S
O1835 H1807 0.854 . S
O1835 C1879 1.297 . S
C1836 C1837 1.404 . S
C1836 C1841 1.397 . S
C1836 C1842 1.492 . S
C1837 C1836 1.404 . S
C1837 C1838 1.396 . S
C1837 C1848 1.492 . S
C1838 C1837 1.396 . S
C1838 C1839 1.397 . S
C1838 C1854 1.509 . S
C1839 C1838 1.397 . S
C1839 C1840 1.412 . S
C1839 C1860 1.485 . S
C1840 C1839 1.412 . S
C1840 C1841 1.388 . S
C1840 C1866 1.490 . S
C1841 C1836 1.397 . S
C1841 C1840 1.388 . S
C1841 C1872 1.519 . S
C1842 C1836 1.492 . S
C1842 C1843 1.363 . S
C1842 C1847 1.390 . S
C1843 H1808 0.930 . S
C1843 C1842 1.363 . S
C1843 C1844 1.372 . S
C1844 H1809 0.930 . S
C1844 C1843 1.372 . S
C1844 C1845 1.383 . S
C1845 C1844 1.383 . S
C1845 C1846 1.395 . S
C1846 H1810 0.930 . S
C1846 C1845 1.395 . S
C1846 C1847 1.362 . S
C1847 H1811 0.930 . S
C1847 C1842 1.390 . S
C1847 C1846 1.362 . S
C1848 C1837 1.492 . S
C1848 C1849 1.377 . S
C1848 C1853 1.397 . S
C1849 H1812 0.931 . S
C1849 C1848 1.377 . S
C1849 C1850 1.376 . S
C1850 H1813 0.930 . S
C1850 C1849 1.376 . S
C1850 C1851 1.376 . S
C1851 C1850 1.376 . S
C1851 C1852 1.378 . S
C1851 C1878 1.486 1_556 S
C1852 H1814 0.930 . S
C1852 C1851 1.378 . S
C1852 C1853 1.376 . S
C1853 H1815 0.929 . S
C1853 C1848 1.397 . S
C1853 C1852 1.376 . S
C1854 C1838 1.509 . S
C1854 C1855 1.391 . S
C1854 C1859 1.386 . S
C1855 H1816 0.930 . S
C1855 C1854 1.391 . S
C1855 C1856 1.375 . S
C1856 H1817 0.931 . S
C1856 C1855 1.375 . S
C1856 C1857 1.375 . S
C1857 C1856 1.375 . S
C1857 C1858 1.361 . S
C1858 H1818 0.930 . S
C1858 C1857 1.361 . S
C1858 C1859 1.399 . S
C1859 H1819 0.929 . S
C1859 C1854 1.386 . S
C1859 C1858 1.399 . S
C1860 C1839 1.485 . S
C1860 C1861 1.394 . S
C1860 C1865 1.360 . S
C1861 H1820 0.931 . S
C1861 C1860 1.394 . S
C1861 C1862 1.372 . S
C1862 H1821 0.930 . S
C1862 C1861 1.372 . S
C1862 C1863 1.397 . S
C1863 C1862 1.397 . S
C1863 C1864 1.390 . S
C1863 C1879 1.476 . S
C1864 H1822 0.930 . S
C1864 C1863 1.390 . S
C1864 C1865 1.366 . S
C1865 H1823 0.932 . S
C1865 C1860 1.360 . S
C1865 C1864 1.366 . S
C1866 C1840 1.490 . S
C1866 C1867 1.380 . S
C1866 C1871 1.386 . S
C1867 H1824 0.930 . S
C1867 C1866 1.380 . S
C1867 C1868 1.381 . S
C1868 H1825 0.929 . S
C1868 C1867 1.381 . S
C1868 C1869 1.371 . S
C1869 C1868 1.371 . S
C1869 C1870 1.380 . S
C1870 H1826 0.931 . S
C1870 C1869 1.380 . S
C1870 C1871 1.387 . S
C1871 H1827 0.930 . S
C1871 C1866 1.386 . S
C1871 C1870 1.387 . S
C1872 C1841 1.519 . S
C1872 C1873 1.377 . S
C1872 C1877 1.361 . S
C1873 H1828 0.929 . S
C1873 C1872 1.377 . S
C1873 C1874 1.386 . S
C1874 H1829 0.931 . S
C1874 C1873 1.386 . S
C1874 C1875 1.363 . S
C1875 C1874 1.363 . S
C1875 C1876 1.385 . S
C1876 H1830 0.930 . S
C1876 C1875 1.385 . S
C1876 C1877 1.396 . S
C1877 H1831 0.929 . S
C1877 C1872 1.361 . S
C1877 C1876 1.396 . S
C1878 O1832 1.300 . S
C1878 O1833 1.209 . S
C1878 C1851 1.486 1_554 S
C1879 O1834 1.199 . S
C1879 O1835 1.297 . S
C1879 C1863 1.476 . S
H1880 O1906 0.856 . S
H1881 O1909 0.854 . S
H1882 C1917 0.930 . S
H1883 C1918 0.930 . S
H1884 C1920 0.930 . S
H1885 C1921 0.930 . S
H1886 C1923 0.931 . S
H1887 C1924 0.930 . S
H1888 C1926 0.930 . S
H1889 C1927 0.929 . S
H1890 C1929 0.930 . S
H1891 C1930 0.931 . S
H1892 C1932 0.930 . S
H1893 C1933 0.929 . S
H1894 C1935 0.931 . S
H1895 C1936 0.930 . S
H1896 C1938 0.930 . S
H1897 C1939 0.932 . S
H1898 C1941 0.930 . S
H1899 C1942 0.929 . S
H1900 C1944 0.931 . S
H1901 C1945 0.930 . S
H1902 C1947 0.929 . S
H1903 C1948 0.931 . S
H1904 C1950 0.930 . S
H1905 C1951 0.929 . S
O1906 H1880 0.856 . S
O1906 C1952 1.300 . S
O1907 C1952 1.209 . S
O1908 C1953 1.199 . S
O1909 H1881 0.854 . S
O1909 C1953 1.297 . S
C1910 C1911 1.404 . S
C1910 C1915 1.397 . S
C1910 C1916 1.492 . S
C1911 C1910 1.404 . S
C1911 C1912 1.396 . S
C1911 C1922 1.492 . S
C1912 C1911 1.396 . S
C1912 C1913 1.397 . S
C1912 C1928 1.509 . S
C1913 C1912 1.397 . S
C1913 C1914 1.412 . S
C1913 C1934 1.485 . S
C1914 C1913 1.412 . S
C1914 C1915 1.388 . S
C1914 C1940 1.490 . S
C1915 C1910 1.397 . S
C1915 C1914 1.388 . S
C1915 C1946 1.519 . S
C1916 C1910 1.492 . S
C1916 C1917 1.363 . S
C1916 C1921 1.390 . S
C1917 H1882 0.930 . S
C1917 C1916 1.363 . S
C1917 C1918 1.372 . S
C1918 H1883 0.930 . S
C1918 C1917 1.372 . S
C1918 C1919 1.383 . S
C1919 C1918 1.383 . S
C1919 C1920 1.395 . S
C1920 H1884 0.930 . S
C1920 C1919 1.395 . S
C1920 C1921 1.362 . S
C1921 H1885 0.930 . S
C1921 C1916 1.390 . S
C1921 C1920 1.362 . S
C1922 C1911 1.492 . S
C1922 C1923 1.377 . S
C1922 C1927 1.397 . S
C1923 H1886 0.931 . S
C1923 C1922 1.377 . S
C1923 C1924 1.376 . S
C1924 H1887 0.930 . S
C1924 C1923 1.376 . S
C1924 C1925 1.376 . S
C1925 C1924 1.376 . S
C1925 C1926 1.378 . S
C1925 C1952 1.486 1_556 S
C1926 H1888 0.930 . S
C1926 C1925 1.378 . S
C1926 C1927 1.376 . S
C1927 H1889 0.929 . S
C1927 C1922 1.397 . S
C1927 C1926 1.376 . S
C1928 C1912 1.509 . S
C1928 C1929 1.391 . S
C1928 C1933 1.386 . S
C1929 H1890 0.930 . S
C1929 C1928 1.391 . S
C1929 C1930 1.375 . S
C1930 H1891 0.931 . S
C1930 C1929 1.375 . S
C1930 C1931 1.375 . S
C1931 C1930 1.375 . S
C1931 C1932 1.361 . S
C1932 H1892 0.930 . S
C1932 C1931 1.361 . S
C1932 C1933 1.399 . S
C1933 H1893 0.929 . S
C1933 C1928 1.386 . S
C1933 C1932 1.399 . S
C1934 C1913 1.485 . S
C1934 C1935 1.394 . S
C1934 C1939 1.360 . S
C1935 H1894 0.931 . S
C1935 C1934 1.394 . S
C1935 C1936 1.372 . S
C1936 H1895 0.930 . S
C1936 C1935 1.372 . S
C1936 C1937 1.397 . S
C1937 C1936 1.397 . S
C1937 C1938 1.390 . S
C1937 C1953 1.476 . S
C1938 H1896 0.930 . S
C1938 C1937 1.390 . S
C1938 C1939 1.366 . S
C1939 H1897 0.932 . S
C1939 C1934 1.360 . S
C1939 C1938 1.366 . S
C1940 C1914 1.490 . S
C1940 C1941 1.380 . S
C1940 C1945 1.386 . S
C1941 H1898 0.930 . S
C1941 C1940 1.380 . S
C1941 C1942 1.381 . S
C1942 H1899 0.929 . S
C1942 C1941 1.381 . S
C1942 C1943 1.371 . S
C1943 C1942 1.371 . S
C1943 C1944 1.380 . S
C1944 H1900 0.931 . S
C1944 C1943 1.380 . S
C1944 C1945 1.387 . S
C1945 H1901 0.930 . S
C1945 C1940 1.386 . S
C1945 C1944 1.387 . S
C1946 C1915 1.519 . S
C1946 C1947 1.377 . S
C1946 C1951 1.361 . S
C1947 H1902 0.929 . S
C1947 C1946 1.377 . S
C1947 C1948 1.386 . S
C1948 H1903 0.931 . S
C1948 C1947 1.386 . S
C1948 C1949 1.363 . S
C1949 C1948 1.363 . S
C1949 C1950 1.385 . S
C1950 H1904 0.930 . S
C1950 C1949 1.385 . S
C1950 C1951 1.396 . S
C1951 H1905 0.929 . S
C1951 C1946 1.361 . S
C1951 C1950 1.396 . S
C1952 O1906 1.300 . S
C1952 O1907 1.209 . S
C1952 C1925 1.486 1_554 S
C1953 O1908 1.199 . S
C1953 O1909 1.297 . S
C1953 C1937 1.476 . S
H1954 O1980 0.856 . S
H1955 O1983 0.854 . S
H1956 C1991 0.930 . S
H1957 C1992 0.930 . S
H1958 C1994 0.930 . S
H1959 C1995 0.930 . S
H1960 C1997 0.931 . S
H1961 C1998 0.930 . S
H1962 C2000 0.930 . S
H1963 C2001 0.929 . S
H1964 C2003 0.930 . S
H1965 C2004 0.931 . S
H1966 C2006 0.930 . S
H1967 C2007 0.929 . S
H1968 C2009 0.931 . S
H1969 C2010 0.930 . S
H1970 C2012 0.930 . S
H1971 C2013 0.932 . S
H1972 C2015 0.930 . S
H1973 C2016 0.929 . S
H1974 C2018 0.931 . S
H1975 C2019 0.930 . S
H1976 C2021 0.929 . S
H1977 C2022 0.931 . S
H1978 C2024 0.930 . S
H1979 C2025 0.929 . S
O1980 H1954 0.856 . S
O1980 C2026 1.300 . S
O1981 C2026 1.209 . S
O1982 C2027 1.199 . S
O1983 H1955 0.854 . S
O1983 C2027 1.297 . S
C1984 C1985 1.404 . S
C1984 C1989 1.397 . S
C1984 C1990 1.492 . S
C1985 C1984 1.404 . S
C1985 C1986 1.396 . S
C1985 C1996 1.492 . S
C1986 C1985 1.396 . S
C1986 C1987 1.397 . S
C1986 C2002 1.509 . S
C1987 C1986 1.397 . S
C1987 C1988 1.412 . S
C1987 C2008 1.485 . S
C1988 C1987 1.412 . S
C1988 C1989 1.388 . S
C1988 C2014 1.490 . S
C1989 C1984 1.397 . S
C1989 C1988 1.388 . S
C1989 C2020 1.519 . S
C1990 C1984 1.492 . S
C1990 C1991 1.363 . S
C1990 C1995 1.390 . S
C1991 H1956 0.930 . S
C1991 C1990 1.363 . S
C1991 C1992 1.372 . S
C1992 H1957 0.930 . S
C1992 C1991 1.372 . S
C1992 C1993 1.383 . S
C1993 C1992 1.383 . S
C1993 C1994 1.395 . S
C1994 H1958 0.930 . S
C1994 C1993 1.395 . S
C1994 C1995 1.362 . S
C1995 H1959 0.930 . S
C1995 C1990 1.390 . S
C1995 C1994 1.362 . S
C1996 C1985 1.492 . S
C1996 C1997 1.377 . S
C1996 C2001 1.397 . S
C1997 H1960 0.931 . S
C1997 C1996 1.377 . S
C1997 C1998 1.376 1_556 S
C1998 H1961 0.930 . S
C1998 C1997 1.376 1_554 S
C1998 C1999 1.376 . S
C1999 C1998 1.376 . S
C1999 C2000 1.378 1_554 S
C1999 C2026 1.486 . S
C2000 H1962 0.930 . S
C2000 C1999 1.378 1_556 S
C2000 C2001 1.376 . S
C2001 H1963 0.929 . S
C2001 C1996 1.397 . S
C2001 C2000 1.376 . S
C2002 C1986 1.509 . S
C2002 C2003 1.391 . S
C2002 C2007 1.386 . S
C2003 H1964 0.930 . S
C2003 C2002 1.391 . S
C2003 C2004 1.375 . S
C2004 H1965 0.931 . S
C2004 C2003 1.375 . S
C2004 C2005 1.375 . S
C2005 C2004 1.375 . S
C2005 C2006 1.361 . S
C2006 H1966 0.930 . S
C2006 C2005 1.361 . S
C2006 C2007 1.399 . S
C2007 H1967 0.929 . S
C2007 C2002 1.386 . S
C2007 C2006 1.399 . S
C2008 C1987 1.485 . S
C2008 C2009 1.394 . S
C2008 C2013 1.360 . S
C2009 H1968 0.931 . S
C2009 C2008 1.394 . S
C2009 C2010 1.372 . S
C2010 H1969 0.930 . S
C2010 C2009 1.372 . S
C2010 C2011 1.397 . S
C2011 C2010 1.397 . S
C2011 C2012 1.390 . S
C2011 C2027 1.476 . S
C2012 H1970 0.930 . S
C2012 C2011 1.390 . S
C2012 C2013 1.366 . S
C2013 H1971 0.932 . S
C2013 C2008 1.360 . S
C2013 C2012 1.366 . S
C2014 C1988 1.490 . S
C2014 C2015 1.380 . S
C2014 C2019 1.386 . S
C2015 H1972 0.930 . S
C2015 C2014 1.380 . S
C2015 C2016 1.381 . S
C2016 H1973 0.929 . S
C2016 C2015 1.381 . S
C2016 C2017 1.371 . S
C2017 C2016 1.371 . S
C2017 C2018 1.380 . S
C2018 H1974 0.931 . S
C2018 C2017 1.380 . S
C2018 C2019 1.387 . S
C2019 H1975 0.930 . S
C2019 C2014 1.386 . S
C2019 C2018 1.387 . S
C2020 C1989 1.519 . S
C2020 C2021 1.377 . S
C2020 C2025 1.361 . S
C2021 H1976 0.929 . S
C2021 C2020 1.377 . S
C2021 C2022 1.386 . S
C2022 H1977 0.931 . S
C2022 C2021 1.386 . S
C2022 C2023 1.363 . S
C2023 C2022 1.363 . S
C2023 C2024 1.385 . S
C2024 H1978 0.930 . S
C2024 C2023 1.385 . S
C2024 C2025 1.396 . S
C2025 H1979 0.929 . S
C2025 C2020 1.361 . S
C2025 C2024 1.396 . S
C2026 O1980 1.300 . S
C2026 O1981 1.209 . S
C2026 C1999 1.486 . S
C2027 O1982 1.199 . S
C2027 O1983 1.297 . S
C2027 C2011 1.476 . S
H2028 O2054 0.856 . S
H2029 O2057 0.854 . S
H2030 C2065 0.930 . S
H2031 C2066 0.930 . S
H2032 C2068 0.930 . S
H2033 C2069 0.930 . S
H2034 C2071 0.931 . S
H2035 C2072 0.930 . S
H2036 C2074 0.930 . S
H2037 C2075 0.929 . S
H2038 C2077 0.930 . S
H2039 C2078 0.931 . S
H2040 C2080 0.930 . S
H2041 C2081 0.929 . S
H2042 C2083 0.931 . S
H2043 C2084 0.930 . S
H2044 C2086 0.930 . S
H2045 C2087 0.932 . S
H2046 C2089 0.930 . S
H2047 C2090 0.929 . S
H2048 C2092 0.931 . S
H2049 C2093 0.930 . S
H2050 C2095 0.929 . S
H2051 C2096 0.931 . S
H2052 C2098 0.930 . S
H2053 C2099 0.929 . S
O2054 H2028 0.856 . S
O2054 C2100 1.300 . S
O2055 C2100 1.209 . S
O2056 C2101 1.199 . S
O2057 H2029 0.854 . S
O2057 C2101 1.297 . S
C2058 C2059 1.404 . S
C2058 C2063 1.397 . S
C2058 C2064 1.492 . S
C2059 C2058 1.404 . S
C2059 C2060 1.396 . S
C2059 C2070 1.492 . S
C2060 C2059 1.396 . S
C2060 C2061 1.397 . S
C2060 C2076 1.509 . S
C2061 C2060 1.397 . S
C2061 C2062 1.412 . S
C2061 C2082 1.485 . S
C2062 C2061 1.412 . S
C2062 C2063 1.388 . S
C2062 C2088 1.490 . S
C2063 C2058 1.397 . S
C2063 C2062 1.388 . S
C2063 C2094 1.519 . S
C2064 C2058 1.492 . S
C2064 C2065 1.363 . S
C2064 C2069 1.390 . S
C2065 H2030 0.930 . S
C2065 C2064 1.363 . S
C2065 C2066 1.372 . S
C2066 H2031 0.930 . S
C2066 C2065 1.372 . S
C2066 C2067 1.383 . S
C2067 C2066 1.383 . S
C2067 C2068 1.395 . S
C2068 H2032 0.930 . S
C2068 C2067 1.395 . S
C2068 C2069 1.362 . S
C2069 H2033 0.930 . S
C2069 C2064 1.390 . S
C2069 C2068 1.362 . S
C2070 C2059 1.492 . S
C2070 C2071 1.377 . S
C2070 C2075 1.397 . S
C2071 H2034 0.931 . S
C2071 C2070 1.377 . S
C2071 C2072 1.376 . S
C2072 H2035 0.930 . S
C2072 C2071 1.376 . S
C2072 C2073 1.376 . S
C2073 C2072 1.376 . S
C2073 C2074 1.378 . S
C2073 C2100 1.486 . S
C2074 H2036 0.930 . S
C2074 C2073 1.378 . S
C2074 C2075 1.376 . S
C2075 H2037 0.929 . S
C2075 C2070 1.397 . S
C2075 C2074 1.376 . S
C2076 C2060 1.509 . S
C2076 C2077 1.391 . S
C2076 C2081 1.386 . S
C2077 H2038 0.930 . S
C2077 C2076 1.391 . S
C2077 C2078 1.375 . S
C2078 H2039 0.931 . S
C2078 C2077 1.375 . S
C2078 C2079 1.375 . S
C2079 C2078 1.375 . S
C2079 C2080 1.361 . S
C2080 H2040 0.930 . S
C2080 C2079 1.361 . S
C2080 C2081 1.399 . S
C2081 H2041 0.929 . S
C2081 C2076 1.386 . S
C2081 C2080 1.399 . S
C2082 C2061 1.485 . S
C2082 C2083 1.394 . S
C2082 C2087 1.360 . S
C2083 H2042 0.931 . S
C2083 C2082 1.394 . S
C2083 C2084 1.372 . S
C2084 H2043 0.930 . S
C2084 C2083 1.372 . S
C2084 C2085 1.397 . S
C2085 C2084 1.397 . S
C2085 C2086 1.390 . S
C2085 C2101 1.476 . S
C2086 H2044 0.930 . S
C2086 C2085 1.390 . S
C2086 C2087 1.366 . S
C2087 H2045 0.932 . S
C2087 C2082 1.360 . S
C2087 C2086 1.366 . S
C2088 C2062 1.490 . S
C2088 C2089 1.380 . S
C2088 C2093 1.386 . S
C2089 H2046 0.930 . S
C2089 C2088 1.380 . S
C2089 C2090 1.381 . S
C2090 H2047 0.929 . S
C2090 C2089 1.381 . S
C2090 C2091 1.371 . S
C2091 C2090 1.371 . S
C2091 C2092 1.380 . S
C2092 H2048 0.931 . S
C2092 C2091 1.380 . S
C2092 C2093 1.387 . S
C2093 H2049 0.930 . S
C2093 C2088 1.386 . S
C2093 C2092 1.387 . S
C2094 C2063 1.519 . S
C2094 C2095 1.377 . S
C2094 C2099 1.361 . S
C2095 H2050 0.929 . S
C2095 C2094 1.377 . S
C2095 C2096 1.386 . S
C2096 H2051 0.931 . S
C2096 C2095 1.386 . S
C2096 C2097 1.363 . S
C2097 C2096 1.363 . S
C2097 C2098 1.385 . S
C2098 H2052 0.930 . S
C2098 C2097 1.385 . S
C2098 C2099 1.396 . S
C2099 H2053 0.929 . S
C2099 C2094 1.361 . S
C2099 C2098 1.396 . S
C2100 O2054 1.300 . S
C2100 O2055 1.209 . S
C2100 C2073 1.486 . S
C2101 O2056 1.199 . S
C2101 O2057 1.297 . S
C2101 C2085 1.476 . S
H2102 O2128 0.856 . S
H2103 O2131 0.854 . S
H2104 C2139 0.930 . S
H2105 C2140 0.930 . S
H2106 C2142 0.930 . S
H2107 C2143 0.930 . S
H2108 C2145 0.931 . S
H2109 C2146 0.930 . S
H2110 C2148 0.930 . S
H2111 C2149 0.929 . S
H2112 C2151 0.930 . S
H2113 C2152 0.931 . S
H2114 C2154 0.930 . S
H2115 C2155 0.929 . S
H2116 C2157 0.931 . S
H2117 C2158 0.930 . S
H2118 C2160 0.930 . S
H2119 C2161 0.932 . S
H2120 C2163 0.930 . S
H2121 C2164 0.929 . S
H2122 C2166 0.931 . S
H2123 C2167 0.930 . S
H2124 C2169 0.929 . S
H2125 C2170 0.931 . S
H2126 C2172 0.930 . S
H2127 C2173 0.929 . S
O2128 H2102 0.856 . S
O2128 C2174 1.300 . S
O2129 C2174 1.209 . S
O2130 C2175 1.199 . S
O2131 H2103 0.854 . S
O2131 C2175 1.297 . S
C2132 C2133 1.404 . S
C2132 C2137 1.397 . S
C2132 C2138 1.492 . S
C2133 C2132 1.404 . S
C2133 C2134 1.396 . S
C2133 C2144 1.492 . S
C2134 C2133 1.396 . S
C2134 C2135 1.397 . S
C2134 C2150 1.509 . S
C2135 C2134 1.397 . S
C2135 C2136 1.412 . S
C2135 C2156 1.485 . S
C2136 C2135 1.412 . S
C2136 C2137 1.388 . S
C2136 C2162 1.490 . S
C2137 C2132 1.397 . S
C2137 C2136 1.388 . S
C2137 C2168 1.519 . S
C2138 C2132 1.492 . S
C2138 C2139 1.363 . S
C2138 C2143 1.390 . S
C2139 H2104 0.930 . S
C2139 C2138 1.363 . S
C2139 C2140 1.372 . S
C2140 H2105 0.930 . S
C2140 C2139 1.372 . S
C2140 C2141 1.383 . S
C2141 C2140 1.383 . S
C2141 C2142 1.395 . S
C2142 H2106 0.930 . S
C2142 C2141 1.395 . S
C2142 C2143 1.362 . S
C2143 H2107 0.930 . S
C2143 C2138 1.390 . S
C2143 C2142 1.362 . S
C2144 C2133 1.492 . S
C2144 C2145 1.377 . S
C2144 C2149 1.397 . S
C2145 H2108 0.931 . S
C2145 C2144 1.377 . S
C2145 C2146 1.376 . S
C2146 H2109 0.930 . S
C2146 C2145 1.376 . S
C2146 C2147 1.376 . S
C2147 C2146 1.376 . S
C2147 C2148 1.378 . S
C2147 C2174 1.486 . S
C2148 H2110 0.930 . S
C2148 C2147 1.378 . S
C2148 C2149 1.376 . S
C2149 H2111 0.929 . S
C2149 C2144 1.397 . S
C2149 C2148 1.376 . S
C2150 C2134 1.509 . S
C2150 C2151 1.391 . S
C2150 C2155 1.386 . S
C2151 H2112 0.930 . S
C2151 C2150 1.391 . S
C2151 C2152 1.375 . S
C2152 H2113 0.931 . S
C2152 C2151 1.375 . S
C2152 C2153 1.375 . S
C2153 C2152 1.375 . S
C2153 C2154 1.361 . S
C2154 H2114 0.930 . S
C2154 C2153 1.361 . S
C2154 C2155 1.399 . S
C2155 H2115 0.929 . S
C2155 C2150 1.386 . S
C2155 C2154 1.399 . S
C2156 C2135 1.485 . S
C2156 C2157 1.394 . S
C2156 C2161 1.360 . S
C2157 H2116 0.931 . S
C2157 C2156 1.394 . S
C2157 C2158 1.372 . S
C2158 H2117 0.930 . S
C2158 C2157 1.372 . S
C2158 C2159 1.397 . S
C2159 C2158 1.397 . S
C2159 C2160 1.390 . S
C2159 C2175 1.476 . S
C2160 H2118 0.930 . S
C2160 C2159 1.390 . S
C2160 C2161 1.366 . S
C2161 H2119 0.932 . S
C2161 C2156 1.360 . S
C2161 C2160 1.366 . S
C2162 C2136 1.490 . S
C2162 C2163 1.380 . S
C2162 C2167 1.386 . S
C2163 H2120 0.930 . S
C2163 C2162 1.380 . S
C2163 C2164 1.381 . S
C2164 H2121 0.929 . S
C2164 C2163 1.381 . S
C2164 C2165 1.371 . S
C2165 C2164 1.371 . S
C2165 C2166 1.380 . S
C2166 H2122 0.931 . S
C2166 C2165 1.380 . S
C2166 C2167 1.387 . S
C2167 H2123 0.930 . S
C2167 C2162 1.386 . S
C2167 C2166 1.387 . S
C2168 C2137 1.519 . S
C2168 C2169 1.377 . S
C2168 C2173 1.361 . S
C2169 H2124 0.929 . S
C2169 C2168 1.377 . S
C2169 C2170 1.386 . S
C2170 H2125 0.931 . S
C2170 C2169 1.386 . S
C2170 C2171 1.363 . S
C2171 C2170 1.363 . S
C2171 C2172 1.385 . S
C2172 H2126 0.930 . S
C2172 C2171 1.385 . S
C2172 C2173 1.396 . S
C2173 H2127 0.929 . S
C2173 C2168 1.361 . S
C2173 C2172 1.396 . S
C2174 O2128 1.300 . S
C2174 O2129 1.209 . S
C2174 C2147 1.486 . S
C2175 O2130 1.199 . S
C2175 O2131 1.297 . S
C2175 C2159 1.476 . S
H2176 O2202 0.856 . S
H2177 O2205 0.854 . S
H2178 C2213 0.930 . S
H2179 C2214 0.930 . S
H2180 C2216 0.930 . S
H2181 C2217 0.930 . S
H2182 C2219 0.931 . S
H2183 C2220 0.930 . S
H2184 C2222 0.930 . S
H2185 C2223 0.929 . S
H2186 C2225 0.930 . S
H2187 C2226 0.931 . S
H2188 C2228 0.930 . S
H2189 C2229 0.929 . S
H2190 C2231 0.931 . S
H2191 C2232 0.930 . S
H2192 C2234 0.930 . S
H2193 C2235 0.932 . S
H2194 C2237 0.930 . S
H2195 C2238 0.929 . S
H2196 C2240 0.931 . S
H2197 C2241 0.930 . S
H2198 C2243 0.929 . S
H2199 C2244 0.931 . S
H2200 C2246 0.930 . S
H2201 C2247 0.929 . S
O2202 H2176 0.856 . S
O2202 C2248 1.300 . S
O2203 C2248 1.209 . S
O2204 C2249 1.199 . S
O2205 H2177 0.854 . S
O2205 C2249 1.297 . S
C2206 C2207 1.404 . S
C2206 C2211 1.397 . S
C2206 C2212 1.492 . S
C2207 C2206 1.404 . S
C2207 C2208 1.396 . S
C2207 C2218 1.492 . S
C2208 C2207 1.396 . S
C2208 C2209 1.397 . S
C2208 C2224 1.509 . S
C2209 C2208 1.397 . S
C2209 C2210 1.412 . S
C2209 C2230 1.485 . S
C2210 C2209 1.412 . S
C2210 C2211 1.388 . S
C2210 C2236 1.490 . S
C2211 C2206 1.397 . S
C2211 C2210 1.388 . S
C2211 C2242 1.519 . S
C2212 C2206 1.492 . S
C2212 C2213 1.363 . S
C2212 C2217 1.390 . S
C2213 H2178 0.930 . S
C2213 C2212 1.363 . S
C2213 C2214 1.372 . S
C2214 H2179 0.930 . S
C2214 C2213 1.372 . S
C2214 C2215 1.383 . S
C2215 C2214 1.383 . S
C2215 C2216 1.395 . S
C2216 H2180 0.930 . S
C2216 C2215 1.395 . S
C2216 C2217 1.362 . S
C2217 H2181 0.930 . S
C2217 C2212 1.390 . S
C2217 C2216 1.362 . S
C2218 C2207 1.492 . S
C2218 C2219 1.377 . S
C2218 C2223 1.397 . S
C2219 H2182 0.931 . S
C2219 C2218 1.377 . S
C2219 C2220 1.376 . S
C2220 H2183 0.930 . S
C2220 C2219 1.376 . S
C2220 C2221 1.376 . S
C2221 C2220 1.376 . S
C2221 C2222 1.378 . S
C2221 C2248 1.486 . S
C2222 H2184 0.930 . S
C2222 C2221 1.378 . S
C2222 C2223 1.376 . S
C2223 H2185 0.929 . S
C2223 C2218 1.397 . S
C2223 C2222 1.376 . S
C2224 C2208 1.509 . S
C2224 C2225 1.391 . S
C2224 C2229 1.386 . S
C2225 H2186 0.930 . S
C2225 C2224 1.391 . S
C2225 C2226 1.375 . S
C2226 H2187 0.931 . S
C2226 C2225 1.375 . S
C2226 C2227 1.375 . S
C2227 C2226 1.375 . S
C2227 C2228 1.361 . S
C2228 H2188 0.930 . S
C2228 C2227 1.361 . S
C2228 C2229 1.399 . S
C2229 H2189 0.929 . S
C2229 C2224 1.386 . S
C2229 C2228 1.399 . S
C2230 C2209 1.485 . S
C2230 C2231 1.394 . S
C2230 C2235 1.360 . S
C2231 H2190 0.931 . S
C2231 C2230 1.394 . S
C2231 C2232 1.372 . S
C2232 H2191 0.930 . S
C2232 C2231 1.372 . S
C2232 C2233 1.397 . S
C2233 C2232 1.397 . S
C2233 C2234 1.390 . S
C2233 C2249 1.476 . S
C2234 H2192 0.930 . S
C2234 C2233 1.390 . S
C2234 C2235 1.366 . S
C2235 H2193 0.932 . S
C2235 C2230 1.360 . S
C2235 C2234 1.366 . S
C2236 C2210 1.490 . S
C2236 C2237 1.380 . S
C2236 C2241 1.386 . S
C2237 H2194 0.930 . S
C2237 C2236 1.380 . S
C2237 C2238 1.381 . S
C2238 H2195 0.929 . S
C2238 C2237 1.381 . S
C2238 C2239 1.371 . S
C2239 C2238 1.371 . S
C2239 C2240 1.380 . S
C2240 H2196 0.931 . S
C2240 C2239 1.380 . S
C2240 C2241 1.387 . S
C2241 H2197 0.930 . S
C2241 C2236 1.386 . S
C2241 C2240 1.387 . S
C2242 C2211 1.519 . S
C2242 C2243 1.377 . S
C2242 C2247 1.361 . S
C2243 H2198 0.929 . S
C2243 C2242 1.377 . S
C2243 C2244 1.386 . S
C2244 H2199 0.931 . S
C2244 C2243 1.386 . S
C2244 C2245 1.363 . S
C2245 C2244 1.363 . S
C2245 C2246 1.385 . S
C2246 H2200 0.930 . S
C2246 C2245 1.385 . S
C2246 C2247 1.396 . S
C2247 H2201 0.929 . S
C2247 C2242 1.361 . S
C2247 C2246 1.396 . S
C2248 O2202 1.300 . S
C2248 O2203 1.209 . S
C2248 C2221 1.486 . S
C2249 O2204 1.199 . S
C2249 O2205 1.297 . S
C2249 C2233 1.476 . S
H2250 O2276 0.856 . S
H2251 O2279 0.854 . S
H2252 C2287 0.930 . S
H2253 C2288 0.930 . S
H2254 C2290 0.930 . S
H2255 C2291 0.930 . S
H2256 C2293 0.931 . S
H2257 C2294 0.930 1_655 S
H2258 C2296 0.930 . S
H2259 C2297 0.929 . S
H2260 C2299 0.930 . S
H2261 C2300 0.931 1_655 S
H2262 C2302 0.930 . S
H2263 C2303 0.929 . S
H2264 C2305 0.931 . S
H2265 C2306 0.930 . S
H2266 C2308 0.930 . S
H2267 C2309 0.932 . S
H2268 C2311 0.930 . S
H2269 C2312 0.929 . S
H2270 C2314 0.931 . S
H2271 C2315 0.930 . S
H2272 C2317 0.929 . S
H2273 C2318 0.931 . S
H2274 C2320 0.930 . S
H2275 C2321 0.929 . S
O2276 H2250 0.856 . S
O2276 C2322 1.300 . S
O2277 C2322 1.209 . S
O2278 C2323 1.199 1_655 S
O2279 H2251 0.854 . S
O2279 C2323 1.297 . S
C2280 C2281 1.404 . S
C2280 C2285 1.395 . S
C2280 C2286 1.492 . S
C2281 C2280 1.404 . S
C2281 C2282 1.396 . S
C2281 C2292 1.492 . S
C2282 C2281 1.396 . S
C2282 C2283 1.397 . S
C2282 C2298 1.509 . S
C2283 C2282 1.397 . S
C2283 C2284 1.422 . S
C2283 C2304 1.485 . S
C2284 C2283 1.422 . S
C2284 C2285 1.406 . S
C2284 C2310 1.490 1_455 S
C2285 C2280 1.395 . S
C2285 C2284 1.406 . S
C2285 C2316 1.486 1_455 S
C2286 C2280 1.492 . S
C2286 C2287 1.363 1_455 S
C2286 C2291 1.390 . S
C2287 H2252 0.930 . S
C2287 C2286 1.363 1_655 S
C2287 C2288 1.372 . S
C2288 H2253 0.930 . S
C2288 C2287 1.372 . S
C2288 C2289 1.383 . S
C2289 C2288 1.383 . S
C2289 C2290 1.395 1_655 S
C2290 H2254 0.930 . S
C2290 C2289 1.395 1_455 S
C2290 C2291 1.362 . S
C2291 H2255 0.930 . S
C2291 C2286 1.390 . S
C2291 C2290 1.362 . S
C2292 C2281 1.492 . S
C2292 C2293 1.377 1_455 S
C2292 C2297 1.397 . S
C2293 H2256 0.931 . S
C2293 C2292 1.377 1_655 S
C2293 C2294 1.376 1_655 S
C2294 H2257 0.930 1_455 S
C2294 C2293 1.376 1_455 S
C2294 C2295 1.376 . S
C2295 C2294 1.376 . S
C2295 C2296 1.378 . S
C2295 C2322 1.486 . S
C2296 H2258 0.930 . S
C2296 C2295 1.378 . S
C2296 C2297 1.376 . S
C2297 H2259 0.929 . S
C2297 C2292 1.397 . S
C2297 C2296 1.376 . S
C2298 C2282 1.509 . S
C2298 C2299 1.391 1_455 S
C2298 C2303 1.386 . S
C2299 H2260 0.930 . S
C2299 C2298 1.391 1_655 S
C2299 C2300 1.375 1_655 S
C2300 H2261 0.931 1_455 S
C2300 C2299 1.375 1_455 S
C2300 C2301 1.375 . S
C2301 C2300 1.375 . S
C2301 C2302 1.361 . S
C2302 H2262 0.930 . S
C2302 C2301 1.361 . S
C2302 C2303 1.399 . S
C2303 H2263 0.929 . S
C2303 C2298 1.386 . S
C2303 C2302 1.399 . S
C2304 C2283 1.485 . S
C2304 C2305 1.394 1_455 S
C2304 C2309 1.360 . S
C2305 H2264 0.931 . S
C2305 C2304 1.394 1_655 S
C2305 C2306 1.372 . S
C2306 H2265 0.930 . S
C2306 C2305 1.372 . S
C2306 C2307 1.397 1_655 S
C2307 C2306 1.397 1_455 S
C2307 C2308 1.390 . S
C2307 C2323 1.476 . S
C2308 H2266 0.930 . S
C2308 C2307 1.390 . S
C2308 C2309 1.366 . S
C2309 H2267 0.932 . S
C2309 C2304 1.360 . S
C2309 C2308 1.366 . S
C2310 C2284 1.490 1_655 S
C2310 C2311 1.380 . S
C2310 C2315 1.386 1_655 S
C2311 H2268 0.930 . S
C2311 C2310 1.380 . S
C2311 C2312 1.381 . S
C2312 H2269 0.929 . S
C2312 C2311 1.381 . S
C2312 C2313 1.371 . S
C2313 C2312 1.371 . S
C2313 C2314 1.380 1_655 S
C2314 H2270 0.931 . S
C2314 C2313 1.380 1_455 S
C2314 C2315 1.387 . S
C2315 H2271 0.930 . S
C2315 C2310 1.386 1_455 S
C2315 C2314 1.387 . S
C2316 C2285 1.486 1_655 S
C2316 C2317 1.415 . S
C2316 C2321 1.336 1_655 S
C2317 H2272 0.929 . S
C2317 C2316 1.415 . S
C2317 C2318 1.386 . S
C2318 H2273 0.931 . S
C2318 C2317 1.386 . S
C2318 C2319 1.392 . S
C2319 C2318 1.392 . S
C2319 C2320 1.342 1_655 S
C2320 H2274 0.930 . S
C2320 C2319 1.342 1_455 S
C2320 C2321 1.396 . S
C2321 H2275 0.929 . S
C2321 C2316 1.336 1_455 S
C2321 C2320 1.396 . S
C2322 O2276 1.300 . S
C2322 O2277 1.209 . S
C2322 C2295 1.486 . S
C2323 O2278 1.199 1_455 S
C2323 O2279 1.297 . S
C2323 C2307 1.476 . S
H2324 O2350 0.856 . S
H2325 O2353 0.854 . S
H2326 C2361 0.930 . S
H2327 C2362 0.930 . S
H2328 C2364 0.930 . S
H2329 C2365 0.930 . S
H2330 C2367 0.931 . S
H2331 C2368 0.930 . S
H2332 C2370 0.930 . S
H2333 C2371 0.929 . S
H2334 C2373 0.930 . S
H2335 C2374 0.931 . S
H2336 C2376 0.930 . S
H2337 C2377 0.929 . S
H2338 C2379 0.931 . S
H2339 C2380 0.930 . S
H2340 C2382 0.930 . S
H2341 C2383 0.932 . S
H2342 C2385 0.930 . S
H2343 C2386 0.929 . S
H2344 C2388 0.931 . S
H2345 C2389 0.930 . S
H2346 C2391 0.929 . S
H2347 C2392 0.931 . S
H2348 C2394 0.930 . S
H2349 C2395 0.929 . S
O2350 H2324 0.856 . S
O2350 C2396 1.300 . S
O2351 C2396 1.209 . S
O2352 C2397 1.199 . S
O2353 H2325 0.854 . S
O2353 C2397 1.297 . S
C2354 C2355 1.404 . S
C2354 C2359 1.397 . S
C2354 C2360 1.492 . S
C2355 C2354 1.404 . S
C2355 C2356 1.396 . S
C2355 C2366 1.492 . S
C2356 C2355 1.396 . S
C2356 C2357 1.397 . S
C2356 C2372 1.509 . S
C2357 C2356 1.397 . S
C2357 C2358 1.412 . S
C2357 C2378 1.485 . S
C2358 C2357 1.412 . S
C2358 C2359 1.388 . S
C2358 C2384 1.490 . S
C2359 C2354 1.397 . S
C2359 C2358 1.388 . S
C2359 C2390 1.519 . S
C2360 C2354 1.492 . S
C2360 C2361 1.363 . S
C2360 C2365 1.390 . S
C2361 H2326 0.930 . S
C2361 C2360 1.363 . S
C2361 C2362 1.372 . S
C2362 H2327 0.930 . S
C2362 C2361 1.372 . S
C2362 C2363 1.383 . S
C2363 C2362 1.383 . S
C2363 C2364 1.395 . S
C2364 H2328 0.930 . S
C2364 C2363 1.395 . S
C2364 C2365 1.362 . S
C2365 H2329 0.930 . S
C2365 C2360 1.390 . S
C2365 C2364 1.362 . S
C2366 C2355 1.492 . S
C2366 C2367 1.377 . S
C2366 C2371 1.397 . S
C2367 H2330 0.931 . S
C2367 C2366 1.377 . S
C2367 C2368 1.376 . S
C2368 H2331 0.930 . S
C2368 C2367 1.376 . S
C2368 C2369 1.376 . S
C2369 C2368 1.376 . S
C2369 C2370 1.378 . S
C2369 C2396 1.486 . S
C2370 H2332 0.930 . S
C2370 C2369 1.378 . S
C2370 C2371 1.376 . S
C2371 H2333 0.929 . S
C2371 C2366 1.397 . S
C2371 C2370 1.376 . S
C2372 C2356 1.509 . S
C2372 C2373 1.391 . S
C2372 C2377 1.386 . S
C2373 H2334 0.930 . S
C2373 C2372 1.391 . S
C2373 C2374 1.375 . S
C2374 H2335 0.931 . S
C2374 C2373 1.375 . S
C2374 C2375 1.375 . S
C2375 C2374 1.375 . S
C2375 C2376 1.361 . S
C2376 H2336 0.930 . S
C2376 C2375 1.361 . S
C2376 C2377 1.399 . S
C2377 H2337 0.929 . S
C2377 C2372 1.386 . S
C2377 C2376 1.399 . S
C2378 C2357 1.485 . S
C2378 C2379 1.394 . S
C2378 C2383 1.360 . S
C2379 H2338 0.931 . S
C2379 C2378 1.394 . S
C2379 C2380 1.372 . S
C2380 H2339 0.930 . S
C2380 C2379 1.372 . S
C2380 C2381 1.397 . S
C2381 C2380 1.397 . S
C2381 C2382 1.390 . S
C2381 C2397 1.476 . S
C2382 H2340 0.930 . S
C2382 C2381 1.390 . S
C2382 C2383 1.366 . S
C2383 H2341 0.932 . S
C2383 C2378 1.360 . S
C2383 C2382 1.366 . S
C2384 C2358 1.490 . S
C2384 C2385 1.380 . S
C2384 C2389 1.386 . S
C2385 H2342 0.930 . S
C2385 C2384 1.380 . S
C2385 C2386 1.381 . S
C2386 H2343 0.929 . S
C2386 C2385 1.381 . S
C2386 C2387 1.371 . S
C2387 C2386 1.371 . S
C2387 C2388 1.380 . S
C2388 H2344 0.931 . S
C2388 C2387 1.380 . S
C2388 C2389 1.387 . S
C2389 H2345 0.930 . S
C2389 C2384 1.386 . S
C2389 C2388 1.387 . S
C2390 C2359 1.519 . S
C2390 C2391 1.377 . S
C2390 C2395 1.361 . S
C2391 H2346 0.929 . S
C2391 C2390 1.377 . S
C2391 C2392 1.386 . S
C2392 H2347 0.931 . S
C2392 C2391 1.386 . S
C2392 C2393 1.363 . S
C2393 C2392 1.363 . S
C2393 C2394 1.385 . S
C2394 H2348 0.930 . S
C2394 C2393 1.385 . S
C2394 C2395 1.396 . S
C2395 H2349 0.929 . S
C2395 C2390 1.361 . S
C2395 C2394 1.396 . S
C2396 O2350 1.300 . S
C2396 O2351 1.209 . S
C2396 C2369 1.486 . S
C2397 O2352 1.199 . S
C2397 O2353 1.297 . S
C2397 C2381 1.476 . S
H2398 O2424 0.856 . S
H2399 O2427 0.854 . S
H2400 C2435 0.930 . S
H2401 C2436 0.930 . S
H2402 C2438 0.930 . S
H2403 C2439 0.930 . S
H2404 C2441 0.931 . S
H2405 C2442 0.927 1_545 S
H2406 C2444 0.930 . S
H2407 C2445 0.929 . S
H2408 C2447 0.930 . S
H2409 C2448 0.980 . S
H2410 C2450 0.930 . S
H2411 C2451 0.929 . S
H2412 C2453 0.931 . S
H2413 C2454 0.930 . S
H2414 C2456 0.930 . S
H2415 C2457 0.932 . S
H2416 C2459 0.930 . S
H2417 C2460 0.929 . S
H2418 C2462 0.931 . S
H2419 C2463 0.930 . S
H2420 C2465 0.929 . S
H2421 C2466 0.931 . S
H2422 C2468 0.930 . S
H2423 C2469 0.929 . S
O2424 H2398 0.856 . S
O2424 C2470 1.300 . S
O2425 C2470 1.209 . S
O2426 C2471 1.199 1_545 S
O2427 H2399 0.854 . S
O2427 C2471 1.297 . S
C2428 C2429 1.404 . S
C2428 C2433 1.414 . S
C2428 C2434 1.492 . S
C2429 C2428 1.404 . S
C2429 C2430 1.396 . S
C2429 C2440 1.492 . S
C2430 C2429 1.396 . S
C2430 C2431 1.397 . S
C2430 C2446 1.509 . S
C2431 C2430 1.397 . S
C2431 C2432 1.410 . S
C2431 C2452 1.485 . S
C2432 C2431 1.410 . S
C2432 C2433 1.368 . S
C2432 C2458 1.486 1_565 S
C2433 C2428 1.414 . S
C2433 C2432 1.368 . S
C2433 C2464 1.536 1_565 S
C2434 C2428 1.492 . S
C2434 C2435 1.363 1_565 S
C2434 C2439 1.390 . S
C2435 H2400 0.930 . S
C2435 C2434 1.363 1_545 S
C2435 C2436 1.372 . S
C2436 H2401 0.930 . S
C2436 C2435 1.372 . S
C2436 C2437 1.383 . S
C2437 C2436 1.383 . S
C2437 C2438 1.395 1_545 S
C2438 H2402 0.930 . S
C2438 C2437 1.395 1_565 S
C2438 C2439 1.362 . S
C2439 H2403 0.930 . S
C2439 C2434 1.390 . S
C2439 C2438 1.362 . S
C2440 C2429 1.492 . S
C2440 C2441 1.377 1_565 S
C2440 C2445 1.397 . S
C2441 H2404 0.931 . S
C2441 C2440 1.377 1_545 S
C2441 C2442 1.374 1_545 S
C2442 H2405 0.927 1_565 S
C2442 C2441 1.374 1_565 S
C2442 C2443 1.380 . S
C2443 C2442 1.380 . S
C2443 C2444 1.378 . S
C2443 C2470 1.486 . S
C2444 H2406 0.930 . S
C2444 C2443 1.378 . S
C2444 C2445 1.376 . S
C2445 H2407 0.929 . S
C2445 C2440 1.397 . S
C2445 C2444 1.376 . S
C2446 C2430 1.509 . S
C2446 C2447 1.391 1_565 S
C2446 C2451 1.386 . S
C2447 H2408 0.930 . S
C2447 C2446 1.391 1_545 S
C2447 C2448 1.368 . S
C2448 H2409 0.980 . S
C2448 C2447 1.368 . S
C2448 C2449 1.336 1_545 S
C2449 C2448 1.336 1_565 S
C2449 C2450 1.361 . S
C2450 H2410 0.930 . S
C2450 C2449 1.361 . S
C2450 C2451 1.399 . S
C2451 H2411 0.929 . S
C2451 C2446 1.386 . S
C2451 C2450 1.399 . S
C2452 C2431 1.485 . S
C2452 C2453 1.394 1_565 S
C2452 C2457 1.360 . S
C2453 H2412 0.931 . S
C2453 C2452 1.394 1_545 S
C2453 C2454 1.372 . S
C2454 H2413 0.930 . S
C2454 C2453 1.372 . S
C2454 C2455 1.397 1_545 S
C2455 C2454 1.397 1_565 S
C2455 C2456 1.390 . S
C2455 C2471 1.476 . S
C2456 H2414 0.930 . S
C2456 C2455 1.390 . S
C2456 C2457 1.366 . S
C2457 H2415 0.932 . S
C2457 C2452 1.360 . S
C2457 C2456 1.366 . S
C2458 C2432 1.486 1_545 S
C2458 C2459 1.380 . S
C2458 C2463 1.386 1_545 S
C2459 H2416 0.930 . S
C2459 C2458 1.380 . S
C2459 C2460 1.381 . S
C2460 H2417 0.929 . S
C2460 C2459 1.381 . S
C2460 C2461 1.371 . S
C2461 C2460 1.371 . S
C2461 C2462 1.380 1_545 S
C2462 H2418 0.931 . S
C2462 C2461 1.380 1_565 S
C2462 C2463 1.387 . S
C2463 H2419 0.930 . S
C2463 C2458 1.386 1_565 S
C2463 C2462 1.387 . S
C2464 C2433 1.536 1_545 S
C2464 C2465 1.380 . S
C2464 C2469 1.355 1_545 S
C2465 H2420 0.929 . S
C2465 C2464 1.380 . S
C2465 C2466 1.386 . S
C2466 H2421 0.931 . S
C2466 C2465 1.386 . S
C2466 C2467 1.340 1_545 S
C2467 C2466 1.340 1_565 S
C2467 C2468 1.397 . S
C2468 H2422 0.930 . S
C2468 C2467 1.397 . S
C2468 C2469 1.396 . S
C2469 H2423 0.929 . S
C2469 C2464 1.355 1_565 S
C2469 C2468 1.396 . S
C2470 O2424 1.300 . S
C2470 O2425 1.209 . S
C2470 C2443 1.486 . S
C2471 O2426 1.199 1_565 S
C2471 O2427 1.297 . S
C2471 C2455 1.476 . S
H2472 O2498 0.856 . S
H2473 O2501 0.854 . S
H2474 C2509 0.930 . S
H2475 C2510 0.930 . S
H2476 C2512 0.930 . S
H2477 C2513 0.930 . S
H2478 C2515 0.931 . S
H2479 C2516 0.930 . S
H2480 C2518 0.930 . S
H2481 C2519 0.929 . S
H2482 C2521 0.930 . S
H2483 C2522 0.931 . S
H2484 C2524 0.930 . S
H2485 C2525 0.929 . S
H2486 C2527 0.931 . S
H2487 C2528 0.930 . S
H2488 C2530 0.930 . S
H2489 C2531 0.932 . S
H2490 C2533 0.930 . S
H2491 C2534 0.929 . S
H2492 C2536 0.931 . S
H2493 C2537 0.930 . S
H2494 C2539 0.929 . S
H2495 C2540 0.931 . S
H2496 C2542 0.930 . S
H2497 C2543 0.929 . S
O2498 H2472 0.856 . S
O2498 C2544 1.300 . S
O2499 C2544 1.209 1_565 S
O2500 C2545 1.199 1_545 S
O2501 H2473 0.854 . S
O2501 C2545 1.297 . S
C2502 C2503 1.404 . S
C2502 C2507 1.397 1_545 S
C2502 C2508 1.492 . S
C2503 C2502 1.404 . S
C2503 C2504 1.396 . S
C2503 C2514 1.492 . S
C2504 C2503 1.396 . S
C2504 C2505 1.393 1_545 S
C2504 C2520 1.532 . S
C2505 C2504 1.393 1_565 S
C2505 C2506 1.419 . S
C2505 C2526 1.494 . S
C2506 C2505 1.419 . S
C2506 C2507 1.368 . S
C2506 C2532 1.487 . S
C2507 C2502 1.397 1_565 S
C2507 C2506 1.368 . S
C2507 C2538 1.519 . S
C2508 C2502 1.492 . S
C2508 C2509 1.363 . S
C2508 C2513 1.390 1_545 S
C2509 H2474 0.930 . S
C2509 C2508 1.363 . S
C2509 C2510 1.372 . S
C2510 H2475 0.930 . S
C2510 C2509 1.372 . S
C2510 C2511 1.383 . S
C2511 C2510 1.383 . S
C2511 C2512 1.395 1_545 S
C2512 H2476 0.930 . S
C2512 C2511 1.395 1_565 S
C2512 C2513 1.362 . S
C2513 H2477 0.930 . S
C2513 C2508 1.390 1_565 S
C2513 C2512 1.362 . S
C2514 C2503 1.492 . S
C2514 C2515 1.377 . S
C2514 C2519 1.397 1_545 S
C2515 H2478 0.931 . S
C2515 C2514 1.377 . S
C2515 C2516 1.376 . S
C2516 H2479 0.930 . S
C2516 C2515 1.376 . S
C2516 C2517 1.376 . S
C2517 C2516 1.376 . S
C2517 C2518 1.378 1_545 S
C2517 C2544 1.486 . S
C2518 H2480 0.930 . S
C2518 C2517 1.378 1_565 S
C2518 C2519 1.376 . S
C2519 H2481 0.929 . S
C2519 C2514 1.397 1_565 S
C2519 C2518 1.376 . S
C2520 C2504 1.532 . S
C2520 C2521 1.421 . S
C2520 C2525 1.337 1_545 S
C2521 H2482 0.930 . S
C2521 C2520 1.421 . S
C2521 C2522 1.375 . S
C2522 H2483 0.931 . S
C2522 C2521 1.375 . S
C2522 C2523 1.412 . S
C2523 C2522 1.412 . S
C2523 C2524 1.341 1_545 S
C2524 H2484 0.930 . S
C2524 C2523 1.341 1_565 S
C2524 C2525 1.399 . S
C2525 H2485 0.929 . S
C2525 C2520 1.337 1_565 S
C2525 C2524 1.399 . S
C2526 C2505 1.494 . S
C2526 C2527 1.394 1_565 S
C2526 C2531 1.360 . S
C2527 H2486 0.931 . S
C2527 C2526 1.394 1_545 S
C2527 C2528 1.372 . S
C2528 H2487 0.930 . S
C2528 C2527 1.372 . S
C2528 C2529 1.397 1_545 S
C2529 C2528 1.397 1_565 S
C2529 C2530 1.390 . S
C2529 C2545 1.476 . S
C2530 H2488 0.930 . S
C2530 C2529 1.390 . S
C2530 C2531 1.366 . S
C2531 H2489 0.932 . S
C2531 C2526 1.360 . S
C2531 C2530 1.366 . S
C2532 C2506 1.487 . S
C2532 C2533 1.340 1_565 S
C2532 C2537 1.436 . S
C2533 H2490 0.930 . S
C2533 C2532 1.340 1_545 S
C2533 C2534 1.381 . S
C2534 H2491 0.929 . S
C2534 C2533 1.381 . S
C2534 C2535 1.376 . S
C2535 C2534 1.376 . S
C2535 C2536 1.376 1_545 S
C2536 H2492 0.931 . S
C2536 C2535 1.376 1_565 S
C2536 C2537 1.387 . S
C2537 H2493 0.930 . S
C2537 C2532 1.436 . S
C2537 C2536 1.387 . S
C2538 C2507 1.519 . S
C2538 C2539 1.377 1_565 S
C2538 C2543 1.361 . S
C2539 H2494 0.929 . S
C2539 C2538 1.377 1_545 S
C2539 C2540 1.386 . S
C2540 H2495 0.931 . S
C2540 C2539 1.386 . S
C2540 C2541 1.363 1_545 S
C2541 C2540 1.363 1_565 S
C2541 C2542 1.385 . S
C2542 H2496 0.930 . S
C2542 C2541 1.385 . S
C2542 C2543 1.396 . S
C2543 H2497 0.929 . S
C2543 C2538 1.361 . S
C2543 C2542 1.396 . S
C2544 O2498 1.300 . S
C2544 O2499 1.209 1_545 S
C2544 C2517 1.486 . S
C2545 O2500 1.199 1_565 S
C2545 O2501 1.297 . S
C2545 C2529 1.476 . S
H2546 O2572 0.856 . S
H2547 O2575 0.854 . S
H2548 C2583 0.930 . S
H2549 C2584 0.930 . S
H2550 C2586 0.930 . S
H2551 C2587 0.930 . S
H2552 C2589 0.931 . S
H2553 C2590 0.930 . S
H2554 C2592 0.930 . S
H2555 C2593 0.929 . S
H2556 C2595 0.930 . S
H2557 C2596 0.931 . S
H2558 C2598 0.930 . S
H2559 C2599 0.929 . S
H2560 C2601 0.931 . S
H2561 C2602 0.930 . S
H2562 C2604 0.930 . S
H2563 C2605 0.932 . S
H2564 C2607 0.930 . S
H2565 C2608 0.929 . S
H2566 C2610 0.931 . S
H2567 C2611 0.930 . S
H2568 C2613 0.929 . S
H2569 C2614 0.931 . S
H2570 C2616 0.930 . S
H2571 C2617 0.929 . S
O2572 H2546 0.856 . S
O2572 C2618 1.300 . S
O2573 C2618 1.209 1_455 S
O2574 C2619 1.199 1_655 S
O2575 H2547 0.854 . S
O2575 C2619 1.297 . S
C2576 C2577 1.404 . S
C2576 C2581 1.398 . S
C2576 C2582 1.492 . S
C2577 C2576 1.404 . S
C2577 C2578 1.396 . S
C2577 C2588 1.492 . S
C2578 C2577 1.396 . S
C2578 C2579 1.396 . S
C2578 C2594 1.509 . S
C2579 C2578 1.396 . S
C2579 C2580 1.393 1_655 S
C2579 C2600 1.490 1_655 S
C2580 C2579 1.393 1_455 S
C2580 C2581 1.407 1_455 S
C2580 C2606 1.485 . S
C2581 C2576 1.398 . S
C2581 C2580 1.407 1_655 S
C2581 C2612 1.522 1_655 S
C2582 C2576 1.492 . S
C2582 C2583 1.363 . S
C2582 C2587 1.390 1_655 S
C2583 H2548 0.930 . S
C2583 C2582 1.363 . S
C2583 C2584 1.372 . S
C2584 H2549 0.930 . S
C2584 C2583 1.372 . S
C2584 C2585 1.383 . S
C2585 C2584 1.383 . S
C2585 C2586 1.395 1_655 S
C2586 H2550 0.930 . S
C2586 C2585 1.395 1_455 S
C2586 C2587 1.362 . S
C2587 H2551 0.930 . S
C2587 C2582 1.390 1_455 S
C2587 C2586 1.362 . S
C2588 C2577 1.492 . S
C2588 C2589 1.377 . S
C2588 C2593 1.397 1_655 S
C2589 H2552 0.931 . S
C2589 C2588 1.377 . S
C2589 C2590 1.376 . S
C2590 H2553 0.930 . S
C2590 C2589 1.376 . S
C2590 C2591 1.376 . S
C2591 C2590 1.376 . S
C2591 C2592 1.378 1_655 S
C2591 C2618 1.486 . S
C2592 H2554 0.930 . S
C2592 C2591 1.378 1_455 S
C2592 C2593 1.376 . S
C2593 H2555 0.929 . S
C2593 C2588 1.397 1_455 S
C2593 C2592 1.376 . S
C2594 C2578 1.509 . S
C2594 C2595 1.391 . S
C2594 C2599 1.386 1_655 S
C2595 H2556 0.930 . S
C2595 C2594 1.391 . S
C2595 C2596 1.375 . S
C2596 H2557 0.931 . S
C2596 C2595 1.375 . S
C2596 C2597 1.375 . S
C2597 C2596 1.375 . S
C2597 C2598 1.361 1_655 S
C2598 H2558 0.930 . S
C2598 C2597 1.361 1_455 S
C2598 C2599 1.399 . S
C2599 H2559 0.929 . S
C2599 C2594 1.386 1_455 S
C2599 C2598 1.399 . S
C2600 C2579 1.490 1_455 S
C2600 C2601 1.394 1_455 S
C2600 C2605 1.360 . S
C2601 H2560 0.931 . S
C2601 C2600 1.394 1_655 S
C2601 C2602 1.372 . S
C2602 H2561 0.930 . S
C2602 C2601 1.372 . S
C2602 C2603 1.397 1_655 S
C2603 C2602 1.397 1_455 S
C2603 C2604 1.390 . S
C2603 C2619 1.476 . S
C2604 H2562 0.930 . S
C2604 C2603 1.390 . S
C2604 C2605 1.366 . S
C2605 H2563 0.932 . S
C2605 C2600 1.360 . S
C2605 C2604 1.366 . S
C2606 C2580 1.485 . S
C2606 C2607 1.380 1_455 S
C2606 C2611 1.386 . S
C2607 H2564 0.930 . S
C2607 C2606 1.380 1_655 S
C2607 C2608 1.381 . S
C2608 H2565 0.929 . S
C2608 C2607 1.381 . S
C2608 C2609 1.371 1_655 S
C2609 C2608 1.371 1_455 S
C2609 C2610 1.380 . S
C2610 H2566 0.931 . S
C2610 C2609 1.380 . S
C2610 C2611 1.387 . S
C2611 H2567 0.930 . S
C2611 C2606 1.386 . S
C2611 C2610 1.387 . S
C2612 C2581 1.522 1_455 S
C2612 C2613 1.377 1_455 S
C2612 C2617 1.361 . S
C2613 H2568 0.929 . S
C2613 C2612 1.377 1_655 S
C2613 C2614 1.386 . S
C2614 H2569 0.931 . S
C2614 C2613 1.386 . S
C2614 C2615 1.363 1_655 S
C2615 C2614 1.363 1_455 S
C2615 C2616 1.385 . S
C2616 H2570 0.930 . S
C2616 C2615 1.385 . S
C2616 C2617 1.396 . S
C2617 H2571 0.929 . S
C2617 C2612 1.361 . S
C2617 C2616 1.396 . S
C2618 O2572 1.300 . S
C2618 O2573 1.209 1_655 S
C2618 C2591 1.486 . S
C2619 O2574 1.199 1_455 S
C2619 O2575 1.297 . S
C2619 C2603 1.476 . S
H2620 O2646 0.856 . S
H2621 O2649 0.854 . S
H2622 C2657 0.930 . S
H2623 C2658 0.930 . S
H2624 C2660 0.930 . S
H2625 C2661 0.930 . S
H2626 C2663 0.931 . S
H2627 C2664 0.930 . S
H2628 C2666 0.930 . S
H2629 C2667 0.929 . S
H2630 C2669 0.930 . S
H2631 C2670 0.931 . S
H2632 C2672 0.930 . S
H2633 C2673 0.929 . S
H2634 C2675 0.931 . S
H2635 C2676 0.930 . S
H2636 C2678 0.930 . S
H2637 C2679 0.932 . S
H2638 C2681 0.930 . S
H2639 C2682 0.929 . S
H2640 C2684 0.931 . S
H2641 C2685 0.930 . S
H2642 C2687 0.929 . S
H2643 C2688 0.931 . S
H2644 C2690 0.930 . S
H2645 C2691 0.929 . S
O2646 H2620 0.856 . S
O2646 C2692 1.300 . S
O2647 C2692 1.209 . S
O2648 C2693 1.199 . S
O2649 H2621 0.854 . S
O2649 C2693 1.297 . S
C2650 C2651 1.404 . S
C2650 C2655 1.397 . S
C2650 C2656 1.492 . S
C2651 C2650 1.404 . S
C2651 C2652 1.396 . S
C2651 C2662 1.492 . S
C2652 C2651 1.396 . S
C2652 C2653 1.397 . S
C2652 C2668 1.509 . S
C2653 C2652 1.397 . S
C2653 C2654 1.412 . S
C2653 C2674 1.485 . S
C2654 C2653 1.412 . S
C2654 C2655 1.388 . S
C2654 C2680 1.490 . S
C2655 C2650 1.397 . S
C2655 C2654 1.388 . S
C2655 C2686 1.519 . S
C2656 C2650 1.492 . S
C2656 C2657 1.363 . S
C2656 C2661 1.390 . S
C2657 H2622 0.930 . S
C2657 C2656 1.363 . S
C2657 C2658 1.372 . S
C2658 H2623 0.930 . S
C2658 C2657 1.372 . S
C2658 C2659 1.383 . S
C2659 C2658 1.383 . S
C2659 C2660 1.395 . S
C2660 H2624 0.930 . S
C2660 C2659 1.395 . S
C2660 C2661 1.362 . S
C2661 H2625 0.930 . S
C2661 C2656 1.390 . S
C2661 C2660 1.362 . S
C2662 C2651 1.492 . S
C2662 C2663 1.377 . S
C2662 C2667 1.397 . S
C2663 H2626 0.931 . S
C2663 C2662 1.377 . S
C2663 C2664 1.376 . S
C2664 H2627 0.930 . S
C2664 C2663 1.376 . S
C2664 C2665 1.376 . S
C2665 C2664 1.376 . S
C2665 C2666 1.378 . S
C2665 C2692 1.486 . S
C2666 H2628 0.930 . S
C2666 C2665 1.378 . S
C2666 C2667 1.376 . S
C2667 H2629 0.929 . S
C2667 C2662 1.397 . S
C2667 C2666 1.376 . S
C2668 C2652 1.509 . S
C2668 C2669 1.391 . S
C2668 C2673 1.386 . S
C2669 H2630 0.930 . S
C2669 C2668 1.391 . S
C2669 C2670 1.375 . S
C2670 H2631 0.931 . S
C2670 C2669 1.375 . S
C2670 C2671 1.375 . S
C2671 C2670 1.375 . S
C2671 C2672 1.361 . S
C2672 H2632 0.930 . S
C2672 C2671 1.361 . S
C2672 C2673 1.399 . S
C2673 H2633 0.929 . S
C2673 C2668 1.386 . S
C2673 C2672 1.399 . S
C2674 C2653 1.485 . S
C2674 C2675 1.394 . S
C2674 C2679 1.360 . S
C2675 H2634 0.931 . S
C2675 C2674 1.394 . S
C2675 C2676 1.372 . S
C2676 H2635 0.930 . S
C2676 C2675 1.372 . S
C2676 C2677 1.397 . S
C2677 C2676 1.397 . S
C2677 C2678 1.390 . S
C2677 C2693 1.476 . S
C2678 H2636 0.930 . S
C2678 C2677 1.390 . S
C2678 C2679 1.366 . S
C2679 H2637 0.932 . S
C2679 C2674 1.360 . S
C2679 C2678 1.366 . S
C2680 C2654 1.490 . S
C2680 C2681 1.380 . S
C2680 C2685 1.386 . S
C2681 H2638 0.930 . S
C2681 C2680 1.380 . S
C2681 C2682 1.381 . S
C2682 H2639 0.929 . S
C2682 C2681 1.381 . S
C2682 C2683 1.371 . S
C2683 C2682 1.371 . S
C2683 C2684 1.380 . S
C2684 H2640 0.931 . S
C2684 C2683 1.380 . S
C2684 C2685 1.387 . S
C2685 H2641 0.930 . S
C2685 C2680 1.386 . S
C2685 C2684 1.387 . S
C2686 C2655 1.519 . S
C2686 C2687 1.377 . S
C2686 C2691 1.361 . S
C2687 H2642 0.929 . S
C2687 C2686 1.377 . S
C2687 C2688 1.386 . S
C2688 H2643 0.931 . S
C2688 C2687 1.386 . S
C2688 C2689 1.363 . S
C2689 C2688 1.363 . S
C2689 C2690 1.385 . S
C2690 H2644 0.930 . S
C2690 C2689 1.385 . S
C2690 C2691 1.396 . S
C2691 H2645 0.929 . S
C2691 C2686 1.361 . S
C2691 C2690 1.396 . S
C2692 O2646 1.300 . S
C2692 O2647 1.209 . S
C2692 C2665 1.486 . S
C2693 O2648 1.199 . S
C2693 O2649 1.297 . S
C2693 C2677 1.476 . S
H2694 O2720 0.856 . S
H2695 O2723 0.854 . S
H2696 C2731 0.930 . S
H2697 C2732 0.930 . S
H2698 C2734 0.930 . S
H2699 C2735 0.930 . S
H2700 C2737 0.931 . S
H2701 C2738 0.930 . S
H2702 C2740 0.930 . S
H2703 C2741 0.929 . S
H2704 C2743 0.930 . S
H2705 C2744 0.931 . S
H2706 C2746 0.930 . S
H2707 C2747 0.929 . S
H2708 C2749 0.931 . S
H2709 C2750 0.930 . S
H2710 C2752 0.930 . S
H2711 C2753 0.932 . S
H2712 C2755 0.930 . S
H2713 C2756 0.929 . S
H2714 C2758 0.931 . S
H2715 C2759 0.930 . S
H2716 C2761 0.929 . S
H2717 C2762 0.931 . S
H2718 C2764 0.930 . S
H2719 C2765 0.929 . S
O2720 H2694 0.856 . S
O2720 C2766 1.300 . S
O2721 C2766 1.209 . S
O2722 C2767 1.199 . S
O2723 H2695 0.854 . S
O2723 C2767 1.297 . S
C2724 C2725 1.404 . S
C2724 C2729 1.397 . S
C2724 C2730 1.492 . S
C2725 C2724 1.404 . S
C2725 C2726 1.396 . S
C2725 C2736 1.492 . S
C2726 C2725 1.396 . S
C2726 C2727 1.397 . S
C2726 C2742 1.509 . S
C2727 C2726 1.397 . S
C2727 C2728 1.412 . S
C2727 C2748 1.485 . S
C2728 C2727 1.412 . S
C2728 C2729 1.388 . S
C2728 C2754 1.490 . S
C2729 C2724 1.397 . S
C2729 C2728 1.388 . S
C2729 C2760 1.519 . S
C2730 C2724 1.492 . S
C2730 C2731 1.363 . S
C2730 C2735 1.390 . S
C2731 H2696 0.930 . S
C2731 C2730 1.363 . S
C2731 C2732 1.372 . S
C2732 H2697 0.930 . S
C2732 C2731 1.372 . S
C2732 C2733 1.383 . S
C2733 C2732 1.383 . S
C2733 C2734 1.395 . S
C2734 H2698 0.930 . S
C2734 C2733 1.395 . S
C2734 C2735 1.362 . S
C2735 H2699 0.930 . S
C2735 C2730 1.390 . S
C2735 C2734 1.362 . S
C2736 C2725 1.492 . S
C2736 C2737 1.377 . S
C2736 C2741 1.397 . S
C2737 H2700 0.931 . S
C2737 C2736 1.377 . S
C2737 C2738 1.376 . S
C2738 H2701 0.930 . S
C2738 C2737 1.376 . S
C2738 C2739 1.376 . S
C2739 C2738 1.376 . S
C2739 C2740 1.378 . S
C2739 C2766 1.486 . S
C2740 H2702 0.930 . S
C2740 C2739 1.378 . S
C2740 C2741 1.376 . S
C2741 H2703 0.929 . S
C2741 C2736 1.397 . S
C2741 C2740 1.376 . S
C2742 C2726 1.509 . S
C2742 C2743 1.391 . S
C2742 C2747 1.386 . S
C2743 H2704 0.930 . S
C2743 C2742 1.391 . S
C2743 C2744 1.375 . S
C2744 H2705 0.931 . S
C2744 C2743 1.375 . S
C2744 C2745 1.375 . S
C2745 C2744 1.375 . S
C2745 C2746 1.361 . S
C2746 H2706 0.930 . S
C2746 C2745 1.361 . S
C2746 C2747 1.399 . S
C2747 H2707 0.929 . S
C2747 C2742 1.386 . S
C2747 C2746 1.399 . S
C2748 C2727 1.485 . S
C2748 C2749 1.394 . S
C2748 C2753 1.360 . S
C2749 H2708 0.931 . S
C2749 C2748 1.394 . S
C2749 C2750 1.372 . S
C2750 H2709 0.930 . S
C2750 C2749 1.372 . S
C2750 C2751 1.397 . S
C2751 C2750 1.397 . S
C2751 C2752 1.390 . S
C2751 C2767 1.476 . S
C2752 H2710 0.930 . S
C2752 C2751 1.390 . S
C2752 C2753 1.366 . S
C2753 H2711 0.932 . S
C2753 C2748 1.360 . S
C2753 C2752 1.366 . S
C2754 C2728 1.490 . S
C2754 C2755 1.380 . S
C2754 C2759 1.386 . S
C2755 H2712 0.930 . S
C2755 C2754 1.380 . S
C2755 C2756 1.381 . S
C2756 H2713 0.929 . S
C2756 C2755 1.381 . S
C2756 C2757 1.371 . S
C2757 C2756 1.371 . S
C2757 C2758 1.380 . S
C2758 H2714 0.931 . S
C2758 C2757 1.380 . S
C2758 C2759 1.387 . S
C2759 H2715 0.930 . S
C2759 C2754 1.386 . S
C2759 C2758 1.387 . S
C2760 C2729 1.519 . S
C2760 C2761 1.377 . S
C2760 C2765 1.361 . S
C2761 H2716 0.929 . S
C2761 C2760 1.377 . S
C2761 C2762 1.386 . S
C2762 H2717 0.931 . S
C2762 C2761 1.386 . S
C2762 C2763 1.363 . S
C2763 C2762 1.363 . S
C2763 C2764 1.385 . S
C2764 H2718 0.930 . S
C2764 C2763 1.385 . S
C2764 C2765 1.396 . S
C2765 H2719 0.929 . S
C2765 C2760 1.361 . S
C2765 C2764 1.396 . S
C2766 O2720 1.300 . S
C2766 O2721 1.209 . S
C2766 C2739 1.486 . S
C2767 O2722 1.199 . S
C2767 O2723 1.297 . S
C2767 C2751 1.476 . S
H2768 O2794 0.856 . S
H2769 O2797 0.854 . S
H2770 C2805 0.930 . S
H2771 C2806 0.930 . S
H2772 C2808 0.930 . S
H2773 C2809 0.930 . S
H2774 C2811 0.931 . S
H2775 C2812 0.930 . S
H2776 C2814 0.930 . S
H2777 C2815 0.929 . S
H2778 C2817 0.930 . S
H2779 C2818 0.931 . S
H2780 C2820 0.930 . S
H2781 C2821 0.929 . S
H2782 C2823 0.931 . S
H2783 C2824 0.930 . S
H2784 C2826 0.930 . S
H2785 C2827 0.932 . S
H2786 C2829 0.930 . S
H2787 C2830 0.929 . S
H2788 C2832 0.931 . S
H2789 C2833 0.930 . S
H2790 C2835 0.929 . S
H2791 C2836 0.931 . S
H2792 C2838 0.930 . S
H2793 C2839 0.929 . S
O2794 H2768 0.856 . S
O2794 C2840 1.300 . S
O2795 C2840 1.209 . S
O2796 C2841 1.199 . S
O2797 H2769 0.854 . S
O2797 C2841 1.297 . S
C2798 C2799 1.404 . S
C2798 C2803 1.397 . S
C2798 C2804 1.492 . S
C2799 C2798 1.404 . S
C2799 C2800 1.396 . S
C2799 C2810 1.492 . S
C2800 C2799 1.396 . S
C2800 C2801 1.397 . S
C2800 C2816 1.509 . S
C2801 C2800 1.397 . S
C2801 C2802 1.412 . S
C2801 C2822 1.485 . S
C2802 C2801 1.412 . S
C2802 C2803 1.388 . S
C2802 C2828 1.490 . S
C2803 C2798 1.397 . S
C2803 C2802 1.388 . S
C2803 C2834 1.519 . S
C2804 C2798 1.492 . S
C2804 C2805 1.363 . S
C2804 C2809 1.390 . S
C2805 H2770 0.930 . S
C2805 C2804 1.363 . S
C2805 C2806 1.372 . S
C2806 H2771 0.930 . S
C2806 C2805 1.372 . S
C2806 C2807 1.383 . S
C2807 C2806 1.383 . S
C2807 C2808 1.395 . S
C2808 H2772 0.930 . S
C2808 C2807 1.395 . S
C2808 C2809 1.362 . S
C2809 H2773 0.930 . S
C2809 C2804 1.390 . S
C2809 C2808 1.362 . S
C2810 C2799 1.492 . S
C2810 C2811 1.377 . S
C2810 C2815 1.397 . S
C2811 H2774 0.931 . S
C2811 C2810 1.377 . S
C2811 C2812 1.376 . S
C2812 H2775 0.930 . S
C2812 C2811 1.376 . S
C2812 C2813 1.376 . S
C2813 C2812 1.376 . S
C2813 C2814 1.378 . S
C2813 C2840 1.486 . S
C2814 H2776 0.930 . S
C2814 C2813 1.378 . S
C2814 C2815 1.376 . S
C2815 H2777 0.929 . S
C2815 C2810 1.397 . S
C2815 C2814 1.376 . S
C2816 C2800 1.509 . S
C2816 C2817 1.391 . S
C2816 C2821 1.386 . S
C2817 H2778 0.930 . S
C2817 C2816 1.391 . S
C2817 C2818 1.375 . S
C2818 H2779 0.931 . S
C2818 C2817 1.375 . S
C2818 C2819 1.375 . S
C2819 C2818 1.375 . S
C2819 C2820 1.361 . S
C2820 H2780 0.930 . S
C2820 C2819 1.361 . S
C2820 C2821 1.399 . S
C2821 H2781 0.929 . S
C2821 C2816 1.386 . S
C2821 C2820 1.399 . S
C2822 C2801 1.485 . S
C2822 C2823 1.394 . S
C2822 C2827 1.360 . S
C2823 H2782 0.931 . S
C2823 C2822 1.394 . S
C2823 C2824 1.372 . S
C2824 H2783 0.930 . S
C2824 C2823 1.372 . S
C2824 C2825 1.397 . S
C2825 C2824 1.397 . S
C2825 C2826 1.390 . S
C2825 C2841 1.476 . S
C2826 H2784 0.930 . S
C2826 C2825 1.390 . S
C2826 C2827 1.366 . S
C2827 H2785 0.932 . S
C2827 C2822 1.360 . S
C2827 C2826 1.366 . S
C2828 C2802 1.490 . S
C2828 C2829 1.380 . S
C2828 C2833 1.386 . S
C2829 H2786 0.930 . S
C2829 C2828 1.380 . S
C2829 C2830 1.381 . S
C2830 H2787 0.929 . S
C2830 C2829 1.381 . S
C2830 C2831 1.371 . S
C2831 C2830 1.371 . S
C2831 C2832 1.380 . S
C2832 H2788 0.931 . S
C2832 C2831 1.380 . S
C2832 C2833 1.387 . S
C2833 H2789 0.930 . S
C2833 C2828 1.386 . S
C2833 C2832 1.387 . S
C2834 C2803 1.519 . S
C2834 C2835 1.377 . S
C2834 C2839 1.361 . S
C2835 H2790 0.929 . S
C2835 C2834 1.377 . S
C2835 C2836 1.386 . S
C2836 H2791 0.931 . S
C2836 C2835 1.386 . S
C2836 C2837 1.363 . S
C2837 C2836 1.363 . S
C2837 C2838 1.385 . S
C2838 H2792 0.930 . S
C2838 C2837 1.385 . S
C2838 C2839 1.396 . S
C2839 H2793 0.929 . S
C2839 C2834 1.361 . S
C2839 C2838 1.396 . S
C2840 O2794 1.300 . S
C2840 O2795 1.209 . S
C2840 C2813 1.486 . S
C2841 O2796 1.199 . S
C2841 O2797 1.297 . S
C2841 C2825 1.476 . S
H2842 O2868 0.856 . S
H2843 O2871 0.854 . S
H2844 C2879 0.930 . S
H2845 C2880 0.930 . S
H2846 C2882 0.930 . S
H2847 C2883 0.930 . S
H2848 C2885 0.931 . S
H2849 C2886 0.930 . S
H2850 C2888 0.930 . S
H2851 C2889 0.929 . S
H2852 C2891 0.930 . S
H2853 C2892 0.931 . S
H2854 C2894 0.930 . S
H2855 C2895 0.929 . S
H2856 C2897 0.931 . S
H2857 C2898 0.930 . S
H2858 C2900 0.930 . S
H2859 C2901 0.932 . S
H2860 C2903 0.930 . S
H2861 C2904 0.929 . S
H2862 C2906 0.931 . S
H2863 C2907 0.930 . S
H2864 C2909 0.929 . S
H2865 C2910 0.931 . S
H2866 C2912 0.930 . S
H2867 C2913 0.929 . S
O2868 H2842 0.856 . S
O2868 C2914 1.300 . S
O2869 C2914 1.209 . S
O2870 C2915 1.199 . S
O2871 H2843 0.854 . S
O2871 C2915 1.297 . S
C2872 C2873 1.404 . S
C2872 C2877 1.397 . S
C2872 C2878 1.492 . S
C2873 C2872 1.404 . S
C2873 C2874 1.396 . S
C2873 C2884 1.492 . S
C2874 C2873 1.396 . S
C2874 C2875 1.397 . S
C2874 C2890 1.509 . S
C2875 C2874 1.397 . S
C2875 C2876 1.412 . S
C2875 C2896 1.485 . S
C2876 C2875 1.412 . S
C2876 C2877 1.388 . S
C2876 C2902 1.490 . S
C2877 C2872 1.397 . S
C2877 C2876 1.388 . S
C2877 C2908 1.519 . S
C2878 C2872 1.492 . S
C2878 C2879 1.363 . S
C2878 C2883 1.390 . S
C2879 H2844 0.930 . S
C2879 C2878 1.363 . S
C2879 C2880 1.372 . S
C2880 H2845 0.930 . S
C2880 C2879 1.372 . S
C2880 C2881 1.383 . S
C2881 C2880 1.383 . S
C2881 C2882 1.395 . S
C2882 H2846 0.930 . S
C2882 C2881 1.395 . S
C2882 C2883 1.362 . S
C2883 H2847 0.930 . S
C2883 C2878 1.390 . S
C2883 C2882 1.362 . S
C2884 C2873 1.492 . S
C2884 C2885 1.377 . S
C2884 C2889 1.397 . S
C2885 H2848 0.931 . S
C2885 C2884 1.377 . S
C2885 C2886 1.376 . S
C2886 H2849 0.930 . S
C2886 C2885 1.376 . S
C2886 C2887 1.376 . S
C2887 C2886 1.376 . S
C2887 C2888 1.378 . S
C2887 C2914 1.486 . S
C2888 H2850 0.930 . S
C2888 C2887 1.378 . S
C2888 C2889 1.376 . S
C2889 H2851 0.929 . S
C2889 C2884 1.397 . S
C2889 C2888 1.376 . S
C2890 C2874 1.509 . S
C2890 C2891 1.391 . S
C2890 C2895 1.386 . S
C2891 H2852 0.930 . S
C2891 C2890 1.391 . S
C2891 C2892 1.375 . S
C2892 H2853 0.931 . S
C2892 C2891 1.375 . S
C2892 C2893 1.375 . S
C2893 C2892 1.375 . S
C2893 C2894 1.361 . S
C2894 H2854 0.930 . S
C2894 C2893 1.361 . S
C2894 C2895 1.399 . S
C2895 H2855 0.929 . S
C2895 C2890 1.386 . S
C2895 C2894 1.399 . S
C2896 C2875 1.485 . S
C2896 C2897 1.394 . S
C2896 C2901 1.360 . S
C2897 H2856 0.931 . S
C2897 C2896 1.394 . S
C2897 C2898 1.372 . S
C2898 H2857 0.930 . S
C2898 C2897 1.372 . S
C2898 C2899 1.397 . S
C2899 C2898 1.397 . S
C2899 C2900 1.390 . S
C2899 C2915 1.476 . S
C2900 H2858 0.930 . S
C2900 C2899 1.390 . S
C2900 C2901 1.366 . S
C2901 H2859 0.932 . S
C2901 C2896 1.360 . S
C2901 C2900 1.366 . S
C2902 C2876 1.490 . S
C2902 C2903 1.380 . S
C2902 C2907 1.386 . S
C2903 H2860 0.930 . S
C2903 C2902 1.380 . S
C2903 C2904 1.381 . S
C2904 H2861 0.929 . S
C2904 C2903 1.381 . S
C2904 C2905 1.371 . S
C2905 C2904 1.371 . S
C2905 C2906 1.380 . S
C2906 H2862 0.931 . S
C2906 C2905 1.380 . S
C2906 C2907 1.387 . S
C2907 H2863 0.930 . S
C2907 C2902 1.386 . S
C2907 C2906 1.387 . S
C2908 C2877 1.519 . S
C2908 C2909 1.377 . S
C2908 C2913 1.361 . S
C2909 H2864 0.929 . S
C2909 C2908 1.377 . S
C2909 C2910 1.386 . S
C2910 H2865 0.931 . S
C2910 C2909 1.386 . S
C2910 C2911 1.363 . S
C2911 C2910 1.363 . S
C2911 C2912 1.385 . S
C2912 H2866 0.930 . S
C2912 C2911 1.385 . S
C2912 C2913 1.396 . S
C2913 H2867 0.929 . S
C2913 C2908 1.361 . S
C2913 C2912 1.396 . S
C2914 O2868 1.300 . S
C2914 O2869 1.209 . S
C2914 C2887 1.486 . S
C2915 O2870 1.199 . S
C2915 O2871 1.297 . S
C2915 C2899 1.476 . S
C2916 C2917 1.363 . S
C2916 C2922 1.379 . S
C2916 N2924 1.356 . S
C2917 C2916 1.363 . S
C2917 C2923 1.363 . S
C2918 C2919 1.363 . S
C2918 C2923 1.379 . S
C2918 N2925 1.356 . S
C2919 C2918 1.363 . S
C2919 C2922 1.363 . S
N2920 C2922 1.356 . S
N2920 H2932 0.984 . S
N2920 H2933 0.985 . S
N2921 C2923 1.356 . S
N2921 H2926 0.984 . S
N2921 H2927 0.985 . S
C2922 C2916 1.379 . S
C2922 C2919 1.363 . S
C2922 N2920 1.356 . S
C2923 C2917 1.363 . S
C2923 C2918 1.379 . S
C2923 N2921 1.356 . S
N2924 C2916 1.356 . S
N2924 H2930 0.984 . S
N2924 H2931 0.984 . S
N2925 C2918 1.356 . S
N2925 H2928 0.984 . S
N2925 H2929 0.985 . S
H2926 N2921 0.984 . S
H2927 N2921 0.985 . S
H2928 N2925 0.984 . S
H2929 N2925 0.985 . S
H2930 N2924 0.984 . S
H2931 N2924 0.984 . S
H2932 N2920 0.984 . S
H2933 N2920 0.985 . S
C2934 C2935 1.363 . S
C2934 C2940 1.379 . S
C2934 N2942 1.356 . S
C2935 C2934 1.363 . S
C2935 C2941 1.363 . S
C2936 C2937 1.363 . S
C2936 C2941 1.379 . S
C2936 N2943 1.356 . S
C2937 C2936 1.363 . S
C2937 C2940 1.363 . S
N2938 C2940 1.356 . S
N2938 H2950 0.984 . S
N2938 H2951 0.985 . S
N2939 C2941 1.356 . S
N2939 H2944 0.984 . S
N2939 H2945 0.985 . S
C2940 C2934 1.379 . S
C2940 C2937 1.363 . S
C2940 N2938 1.356 . S
C2941 C2935 1.363 . S
C2941 C2936 1.379 . S
C2941 N2939 1.356 . S
N2942 C2934 1.356 . S
N2942 H2948 0.984 . S
N2942 H2949 0.984 . S
N2943 C2936 1.356 . S
N2943 H2946 0.984 . S
N2943 H2947 0.985 . S
H2944 N2939 0.984 . S
H2945 N2939 0.985 . S
H2946 N2943 0.984 . S
H2947 N2943 0.985 . S
H2948 N2942 0.984 . S
H2949 N2942 0.984 . S
H2950 N2938 0.984 . S
H2951 N2938 0.985 . S
C2952 C2953 1.363 . S
C2952 C2958 1.379 . S
C2952 N2960 1.356 . S
C2953 C2952 1.363 . S
C2953 C2959 1.363 . S
C2954 C2955 1.363 . S
C2954 C2959 1.379 . S
C2954 N2961 1.356 . S
C2955 C2954 1.363 . S
C2955 C2958 1.363 . S
N2956 C2958 1.356 . S
N2956 H2968 0.984 . S
N2956 H2969 0.985 . S
N2957 C2959 1.356 . S
N2957 H2962 0.984 . S
N2957 H2963 0.985 . S
C2958 C2952 1.379 . S
C2958 C2955 1.363 . S
C2958 N2956 1.356 . S
C2959 C2953 1.363 . S
C2959 C2954 1.379 . S
C2959 N2957 1.356 . S
N2960 C2952 1.356 . S
N2960 H2966 0.984 . S
N2960 H2967 0.984 . S
N2961 C2954 1.356 . S
N2961 H2964 0.984 . S
N2961 H2965 0.985 . S
H2962 N2957 0.984 . S
H2963 N2957 0.985 . S
H2964 N2961 0.984 . S
H2965 N2961 0.985 . S
H2966 N2960 0.984 . S
H2967 N2960 0.984 . S
H2968 N2956 0.984 . S
H2969 N2956 0.985 . S
C2970 C2971 1.363 . S
C2970 C2976 1.379 . S
C2970 N2978 1.356 . S
C2971 C2970 1.363 . S
C2971 C2977 1.363 . S
C2972 C2973 1.363 . S
C2972 C2977 1.379 . S
C2972 N2979 1.356 1_565 S
C2973 C2972 1.363 . S
C2973 C2976 1.363 . S
N2974 C2976 1.356 . S
N2974 H2986 0.984 . S
N2974 H2987 0.985 . S
N2975 C2977 1.356 . S
N2975 H2980 0.984 . S
N2975 H2981 0.985 1_565 S
C2976 C2970 1.379 . S
C2976 C2973 1.363 . S
C2976 N2974 1.356 . S
C2977 C2971 1.363 . S
C2977 C2972 1.379 . S
C2977 N2975 1.356 . S
N2978 C2970 1.356 . S
N2978 H2984 0.984 . S
N2978 H2985 0.984 . S
N2979 C2972 1.356 1_545 S
N2979 H2982 0.984 . S
N2979 H2983 0.985 . S
H2980 N2975 0.984 . S
H2981 N2975 0.985 1_545 S
H2982 N2979 0.984 . S
H2983 N2979 0.985 . S
H2984 N2978 0.984 . S
H2985 N2978 0.984 . S
H2986 N2974 0.984 . S
H2987 N2974 0.985 . S
C2988 C2989 1.363 . S
C2988 C2994 1.379 . S
C2988 N2996 1.356 . S
C2989 C2988 1.363 . S
C2989 C2995 1.363 . S
C2990 C2991 1.363 . S
C2990 C2995 1.379 . S
C2990 N2997 1.356 . S
C2991 C2990 1.363 . S
C2991 C2994 1.363 . S
N2992 C2994 1.356 1_655 S
N2992 H3004 0.984 . S
N2992 H3005 0.985 . S
N2993 C2995 1.356 . S
N2993 H2998 0.984 . S
N2993 H2999 0.985 . S
C2994 C2988 1.379 . S
C2994 C2991 1.363 . S
C2994 N2992 1.356 1_455 S
C2995 C2989 1.363 . S
C2995 C2990 1.379 . S
C2995 N2993 1.356 . S
N2996 C2988 1.356 . S
N2996 H3002 0.984 1_455 S
N2996 H3003 0.984 . S
N2997 C2990 1.356 . S
N2997 H3000 0.984 . S
N2997 H3001 0.985 . S
H2998 N2993 0.984 . S
H2999 N2993 0.985 . S
H3000 N2997 0.984 . S
H3001 N2997 0.985 . S
H3002 N2996 0.984 1_655 S
H3003 N2996 0.984 . S
H3004 N2992 0.984 . S
H3005 N2992 0.985 . S
C3006 C3007 1.363 . S
C3006 C3012 1.379 . S
C3006 N3014 1.356 . S
C3007 C3006 1.363 . S
C3007 C3013 1.363 . S
C3008 C3009 1.363 . S
C3008 C3013 1.379 . S
C3008 N3015 1.356 . S
C3009 C3008 1.363 . S
C3009 C3012 1.363 . S
N3010 C3012 1.356 . S
N3010 H3022 0.984 . S
N3010 H3023 0.985 . S
N3011 C3013 1.356 . S
N3011 H3016 0.984 . S
N3011 H3017 0.985 . S
C3012 C3006 1.379 . S
C3012 C3009 1.363 . S
C3012 N3010 1.356 . S
C3013 C3007 1.363 . S
C3013 C3008 1.379 . S
C3013 N3011 1.356 . S
N3014 C3006 1.356 . S
N3014 H3020 0.984 . S
N3014 H3021 0.984 . S
N3015 C3008 1.356 . S
N3015 H3018 0.984 . S
N3015 H3019 0.985 . S
H3016 N3011 0.984 . S
H3017 N3011 0.985 . S
H3018 N3015 0.984 . S
H3019 N3015 0.985 . S
H3020 N3014 0.984 . S
H3021 N3014 0.984 . S
H3022 N3010 0.984 . S
H3023 N3010 0.985 . S
C3024 C3025 1.363 . S
C3024 C3030 1.379 . S
C3024 N3032 1.356 . S
C3025 C3024 1.363 . S
C3025 C3031 1.363 . S
C3026 C3027 1.363 . S
C3026 C3031 1.379 . S
C3026 N3033 1.356 1_455 S
C3027 C3026 1.363 . S
C3027 C3030 1.363 . S
N3028 C3030 1.356 . S
N3028 H3040 0.984 . S
N3028 H3041 0.985 . S
N3029 C3031 1.356 . S
N3029 H3034 0.984 . S
N3029 H3035 0.985 . S
C3030 C3024 1.379 . S
C3030 C3027 1.363 . S
C3030 N3028 1.356 . S
C3031 C3025 1.363 . S
C3031 C3026 1.379 . S
C3031 N3029 1.356 . S
N3032 C3024 1.356 . S
N3032 H3038 0.984 . S
N3032 H3039 0.984 . S
N3033 C3026 1.356 1_655 S
N3033 H3036 0.984 . S
N3033 H3037 0.985 . S
H3034 N3029 0.984 . S
H3035 N3029 0.985 . S
H3036 N3033 0.984 . S
H3037 N3033 0.985 . S
H3038 N3032 0.984 . S
H3039 N3032 0.984 . S
H3040 N3028 0.984 . S
H3041 N3028 0.985 . S
C3042 C3043 1.363 . S
C3042 C3048 1.379 . S
C3042 N3050 1.356 . S
C3043 C3042 1.363 . S
C3043 C3049 1.363 . S
C3044 C3045 1.363 . S
C3044 C3049 1.379 . S
C3044 N3051 1.356 . S
C3045 C3044 1.363 . S
C3045 C3048 1.363 . S
N3046 C3048 1.356 . S
N3046 H3058 0.984 . S
N3046 H3059 0.985 . S
N3047 C3049 1.356 . S
N3047 H3052 0.984 . S
N3047 H3053 0.985 . S
C3048 C3042 1.379 . S
C3048 C3045 1.363 . S
C3048 N3046 1.356 . S
C3049 C3043 1.363 . S
C3049 C3044 1.379 . S
C3049 N3047 1.356 . S
N3050 C3042 1.356 . S
N3050 H3056 0.984 . S
N3050 H3057 0.984 . S
N3051 C3044 1.356 . S
N3051 H3054 0.984 . S
N3051 H3055 0.985 . S
H3052 N3047 0.984 . S
H3053 N3047 0.985 . S
H3054 N3051 0.984 . S
H3055 N3051 0.985 . S
H3056 N3050 0.984 . S
H3057 N3050 0.984 . S
H3058 N3046 0.984 . S
H3059 N3046 0.985 . S
C3060 C3061 1.363 . S
C3060 C3066 1.379 . S
C3060 N3068 1.356 . S
C3061 C3060 1.363 . S
C3061 C3067 1.363 . S
C3062 C3063 1.363 . S
C3062 C3067 1.379 . S
C3062 N3069 1.356 . S
C3063 C3062 1.363 . S
C3063 C3066 1.363 . S
N3064 C3066 1.356 1_545 S
N3064 H3076 0.984 . S
N3064 H3077 0.985 . S
N3065 C3067 1.356 . S
N3065 H3070 0.984 . S
N3065 H3071 0.985 . S
C3066 C3060 1.379 . S
C3066 C3063 1.363 . S
C3066 N3064 1.356 1_565 S
C3067 C3061 1.363 . S
C3067 C3062 1.379 . S
C3067 N3065 1.356 . S
N3068 C3060 1.356 . S
N3068 H3074 0.984 . S
N3068 H3075 0.984 . S
N3069 C3062 1.356 . S
N3069 H3072 0.984 . S
N3069 H3073 0.985 . S
H3070 N3065 0.984 . S
H3071 N3065 0.985 . S
H3072 N3069 0.984 . S
H3073 N3069 0.985 . S
H3074 N3068 0.984 . S
H3075 N3068 0.984 . S
H3076 N3064 0.984 . S
H3077 N3064 0.985 . S
C3078 C3079 1.363 . S
C3078 C3084 1.379 . S
C3078 N3086 1.356 . S
C3079 C3078 1.363 . S
C3079 C3085 1.363 . S
C3080 C3081 1.363 . S
C3080 C3085 1.379 . S
C3080 N3087 1.356 . S
C3081 C3080 1.363 . S
C3081 C3084 1.363 . S
N3082 C3084 1.356 1_565 S
N3082 H3094 0.984 . S
N3082 H3095 0.985 . S
N3083 C3085 1.356 . S
N3083 H3088 0.984 . S
N3083 H3089 0.985 . S
C3084 C3078 1.379 . S
C3084 C3081 1.363 . S
C3084 N3082 1.356 1_545 S
C3085 C3079 1.363 . S
C3085 C3080 1.379 . S
C3085 N3083 1.356 . S
N3086 C3078 1.356 . S
N3086 H3092 0.984 1_545 S
N3086 H3093 0.984 . S
N3087 C3080 1.356 . S
N3087 H3090 0.984 . S
N3087 H3091 0.985 . S
H3088 N3083 0.984 . S
H3089 N3083 0.985 . S
H3090 N3087 0.984 . S
H3091 N3087 0.985 . S
H3092 N3086 0.984 1_565 S
H3093 N3086 0.984 . S
H3094 N3082 0.984 . S
H3095 N3082 0.985 . S
C3096 C3097 1.363 . S
C3096 C3102 1.379 1_655 S
C3096 N3104 1.356 1_655 S
C3097 C3096 1.363 . S
C3097 C3103 1.363 . S
C3098 C3099 1.363 . S
C3098 C3103 1.379 . S
C3098 N3105 1.356 . S
C3099 C3098 1.363 . S
C3099 C3102 1.363 1_655 S
N3100 C3102 1.356 . S
N3100 H3112 0.984 . S
N3100 H3113 0.985 . S
N3101 C3103 1.356 . S
N3101 H3106 0.984 . S
N3101 H3107 0.985 . S
C3102 C3096 1.379 1_455 S
C3102 C3099 1.363 1_455 S
C3102 N3100 1.356 . S
C3103 C3097 1.363 . S
C3103 C3098 1.379 . S
C3103 N3101 1.356 . S
N3104 C3096 1.356 1_455 S
N3104 H3110 0.984 . S
N3104 H3111 0.984 1_455 S
N3105 C3098 1.356 . S
N3105 H3108 0.984 . S
N3105 H3109 0.985 . S
H3106 N3101 0.984 . S
H3107 N3101 0.985 . S
H3108 N3105 0.984 . S
H3109 N3105 0.985 . S
H3110 N3104 0.984 . S
H3111 N3104 0.984 1_655 S
H3112 N3100 0.984 . S
H3113 N3100 0.985 . S
C3114 C3115 1.363 . S
C3114 C3120 1.379 . S
C3114 N3122 1.356 . S
C3115 C3114 1.363 . S
C3115 C3121 1.363 . S
C3116 C3117 1.363 . S
C3116 C3121 1.379 . S
C3116 N3123 1.356 . S
C3117 C3116 1.363 . S
C3117 C3120 1.363 . S
N3118 C3120 1.356 . S
N3118 H3130 0.984 . S
N3118 H3131 0.985 . S
N3119 C3121 1.356 . S
N3119 H3124 0.984 . S
N3119 H3125 0.985 . S
C3120 C3114 1.379 . S
C3120 C3117 1.363 . S
C3120 N3118 1.356 . S
C3121 C3115 1.363 . S
C3121 C3116 1.379 . S
C3121 N3119 1.356 . S
N3122 C3114 1.356 . S
N3122 H3128 0.984 . S
N3122 H3129 0.984 . S
N3123 C3116 1.356 . S
N3123 H3126 0.984 . S
N3123 H3127 0.985 . S
H3124 N3119 0.984 . S
H3125 N3119 0.985 . S
H3126 N3123 0.984 . S
H3127 N3123 0.985 . S
H3128 N3122 0.984 . S
H3129 N3122 0.984 . S
H3130 N3118 0.984 . S
H3131 N3118 0.985 . S
C3132 C3133 1.363 . S
C3132 C3138 1.379 . S
C3132 N3140 1.356 . S
C3133 C3132 1.363 . S
C3133 C3139 1.363 . S
C3134 C3135 1.363 . S
C3134 C3139 1.379 . S
C3134 N3141 1.356 . S
C3135 C3134 1.363 . S
C3135 C3138 1.363 . S
N3136 C3138 1.356 . S
N3136 H3148 0.984 . S
N3136 H3149 0.985 . S
N3137 C3139 1.356 . S
N3137 H3142 0.984 . S
N3137 H3143 0.985 . S
C3138 C3132 1.379 . S
C3138 C3135 1.363 . S
C3138 N3136 1.356 . S
C3139 C3133 1.363 . S
C3139 C3134 1.379 . S
C3139 N3137 1.356 . S
N3140 C3132 1.356 . S
N3140 H3146 0.984 . S
N3140 H3147 0.984 . S
N3141 C3134 1.356 . S
N3141 H3144 0.984 . S
N3141 H3145 0.985 . S
H3142 N3137 0.984 . S
H3143 N3137 0.985 . S
H3144 N3141 0.984 . S
H3145 N3141 0.985 . S
H3146 N3140 0.984 . S
H3147 N3140 0.984 . S
H3148 N3136 0.984 . S
H3149 N3136 0.985 . S
C3150 C3151 1.363 . S
C3150 C3156 1.379 . S
C3150 N3158 1.356 . S
C3151 C3150 1.363 . S
C3151 C3157 1.363 . S
C3152 C3153 1.363 . S
C3152 C3157 1.379 . S
C3152 N3159 1.356 . S
C3153 C3152 1.363 . S
C3153 C3156 1.363 . S
N3154 C3156 1.356 . S
N3154 H3166 0.984 . S
N3154 H3167 0.985 . S
N3155 C3157 1.356 . S
N3155 H3160 0.984 . S
N3155 H3161 0.985 . S
C3156 C3150 1.379 . S
C3156 C3153 1.363 . S
C3156 N3154 1.356 . S
C3157 C3151 1.363 . S
C3157 C3152 1.379 . S
C3157 N3155 1.356 . S
N3158 C3150 1.356 . S
N3158 H3164 0.984 . S
N3158 H3165 0.984 . S
N3159 C3152 1.356 . S
N3159 H3162 0.984 . S
N3159 H3163 0.985 . S
H3160 N3155 0.984 . S
H3161 N3155 0.985 . S
H3162 N3159 0.984 . S
H3163 N3159 0.985 . S
H3164 N3158 0.984 . S
H3165 N3158 0.984 . S
H3166 N3154 0.984 . S
H3167 N3154 0.985 . S
C3168 C3169 1.363 . S
C3168 C3174 1.379 . S
C3168 N3176 1.356 . S
C3169 C3168 1.363 . S
C3169 C3175 1.363 . S
C3170 C3171 1.363 . S
C3170 C3175 1.379 . S
C3170 N3177 1.356 . S
C3171 C3170 1.363 . S
C3171 C3174 1.363 . S
N3172 C3174 1.356 . S
N3172 H3184 0.984 . S
N3172 H3185 0.985 . S
N3173 C3175 1.356 . S
N3173 H3178 0.984 . S
N3173 H3179 0.985 . S
C3174 C3168 1.379 . S
C3174 C3171 1.363 . S
C3174 N3172 1.356 . S
C3175 C3169 1.363 . S
C3175 C3170 1.379 . S
C3175 N3173 1.356 . S
N3176 C3168 1.356 . S
N3176 H3182 0.984 . S
N3176 H3183 0.984 . S
N3177 C3170 1.356 . S
N3177 H3180 0.984 . S
N3177 H3181 0.985 . S
H3178 N3173 0.984 . S
H3179 N3173 0.985 . S
H3180 N3177 0.984 . S
H3181 N3177 0.985 . S
H3182 N3176 0.984 . S
H3183 N3176 0.984 . S
H3184 N3172 0.984 . S
H3185 N3172 0.985 . S
C3186 C3187 1.363 . S
C3186 C3192 1.379 . S
C3186 N3194 1.356 . S
C3187 C3186 1.363 . S
C3187 C3193 1.363 . S
C3188 C3189 1.363 . S
C3188 C3193 1.379 . S
C3188 N3195 1.356 . S
C3189 C3188 1.363 . S
C3189 C3192 1.363 . S
N3190 C3192 1.356 . S
N3190 H3202 0.984 . S
N3190 H3203 0.985 . S
N3191 C3193 1.356 . S
N3191 H3196 0.984 . S
N3191 H3197 0.985 . S
C3192 C3186 1.379 . S
C3192 C3189 1.363 . S
C3192 N3190 1.356 . S
C3193 C3187 1.363 . S
C3193 C3188 1.379 . S
C3193 N3191 1.356 . S
N3194 C3186 1.356 . S
N3194 H3200 0.984 . S
N3194 H3201 0.984 . S
N3195 C3188 1.356 . S
N3195 H3198 0.984 . S
N3195 H3199 0.985 . S
H3196 N3191 0.984 . S
H3197 N3191 0.985 . S
H3198 N3195 0.984 . S
H3199 N3195 0.985 . S
H3200 N3194 0.984 . S
H3201 N3194 0.984 . S
H3202 N3190 0.984 . S
H3203 N3190 0.985 . S
C3204 C3205 1.363 . S
C3204 C3210 1.379 . S
C3204 N3212 1.356 . S
C3205 C3204 1.363 . S
C3205 C3211 1.363 . S
C3206 C3207 1.363 . S
C3206 C3211 1.379 . S
C3206 N3213 1.356 . S
C3207 C3206 1.363 . S
C3207 C3210 1.363 . S
N3208 C3210 1.356 . S
N3208 H3220 0.984 . S
N3208 H3221 0.985 . S
N3209 C3211 1.356 . S
N3209 H3214 0.984 . S
N3209 H3215 0.985 . S
C3210 C3204 1.379 . S
C3210 C3207 1.363 . S
C3210 N3208 1.356 . S
C3211 C3205 1.363 . S
C3211 C3206 1.379 . S
C3211 N3209 1.356 . S
N3212 C3204 1.356 . S
N3212 H3218 0.984 . S
N3212 H3219 0.984 . S
N3213 C3206 1.356 . S
N3213 H3216 0.984 . S
N3213 H3217 0.985 . S
H3214 N3209 0.984 . S
H3215 N3209 0.985 . S
H3216 N3213 0.984 . S
H3217 N3213 0.985 . S
H3218 N3212 0.984 . S
H3219 N3212 0.984 . S
H3220 N3208 0.984 . S
H3221 N3208 0.985 . S
C3222 C3223 1.363 . S
C3222 C3228 1.379 . S
C3222 N3230 1.356 . S
C3223 C3222 1.363 . S
C3223 C3229 1.363 . S
C3224 C3225 1.363 . S
C3224 C3229 1.379 . S
C3224 N3231 1.356 . S
C3225 C3224 1.363 . S
C3225 C3228 1.363 . S
N3226 C3228 1.356 . S
N3226 H3238 0.984 . S
N3226 H3239 0.985 . S
N3227 C3229 1.356 . S
N3227 H3232 0.984 . S
N3227 H3233 0.985 . S
C3228 C3222 1.379 . S
C3228 C3225 1.363 . S
C3228 N3226 1.356 . S
C3229 C3223 1.363 . S
C3229 C3224 1.379 . S
C3229 N3227 1.356 . S
N3230 C3222 1.356 . S
N3230 H3236 0.984 . S
N3230 H3237 0.984 . S
N3231 C3224 1.356 . S
N3231 H3234 0.984 . S
N3231 H3235 0.985 . S
H3232 N3227 0.984 . S
H3233 N3227 0.985 . S
H3234 N3231 0.984 . S
H3235 N3231 0.985 . S
H3236 N3230 0.984 . S
H3237 N3230 0.984 . S
H3238 N3226 0.984 . S
H3239 N3226 0.985 . S
C3240 C3241 1.363 . S
C3240 C3246 1.379 . S
C3240 N3248 1.356 . S
C3241 C3240 1.363 . S
C3241 C3247 1.363 . S
C3242 C3243 1.363 . S
C3242 C3247 1.379 . S
C3242 N3249 1.356 . S
C3243 C3242 1.363 . S
C3243 C3246 1.363 . S
N3244 C3246 1.356 . S
N3244 H3256 0.984 . S
N3244 H3257 0.985 . S
N3245 C3247 1.356 . S
N3245 H3250 0.984 . S
N3245 H3251 0.985 . S
C3246 C3240 1.379 . S
C3246 C3243 1.363 . S
C3246 N3244 1.356 . S
C3247 C3241 1.363 . S
C3247 C3242 1.379 . S
C3247 N3245 1.356 . S
N3248 C3240 1.356 . S
N3248 H3254 0.984 . S
N3248 H3255 0.984 . S
N3249 C3242 1.356 . S
N3249 H3252 0.984 . S
N3249 H3253 0.985 . S
H3250 N3245 0.984 . S
H3251 N3245 0.985 . S
H3252 N3249 0.984 . S
H3253 N3249 0.985 . S
H3254 N3248 0.984 . S
H3255 N3248 0.984 . S
H3256 N3244 0.984 . S
H3257 N3244 0.985 . S
C3258 C3259 1.363 . S
C3258 C3264 1.379 . S
C3258 N3266 1.356 . S
C3259 C3258 1.363 . S
C3259 C3265 1.363 . S
C3260 C3261 1.363 . S
C3260 C3265 1.379 . S
C3260 N3267 1.356 . S
C3261 C3260 1.363 . S
C3261 C3264 1.363 . S
N3262 C3264 1.356 . S
N3262 H3274 0.984 . S
N3262 H3275 0.985 . S
N3263 C3265 1.356 . S
N3263 H3268 0.984 . S
N3263 H3269 0.985 . S
C3264 C3258 1.379 . S
C3264 C3261 1.363 . S
C3264 N3262 1.356 . S
C3265 C3259 1.363 . S
C3265 C3260 1.379 . S
C3265 N3263 1.356 . S
N3266 C3258 1.356 . S
N3266 H3272 0.984 . S
N3266 H3273 0.984 . S
N3267 C3260 1.356 . S
N3267 H3270 0.984 . S
N3267 H3271 0.985 . S
H3268 N3263 0.984 . S
H3269 N3263 0.985 . S
H3270 N3267 0.984 . S
H3271 N3267 0.985 . S
H3272 N3266 0.984 . S
H3273 N3266 0.984 . S
H3274 N3262 0.984 . S
H3275 N3262 0.985 . S
C3276 C3277 1.363 . S
C3276 C3282 1.379 . S
C3276 N3284 1.356 . S
C3277 C3276 1.363 . S
C3277 C3283 1.363 . S
C3278 C3279 1.363 . S
C3278 C3283 1.379 . S
C3278 N3285 1.356 . S
C3279 C3278 1.363 . S
C3279 C3282 1.363 . S
N3280 C3282 1.356 . S
N3280 H3292 0.984 . S
N3280 H3293 0.985 . S
N3281 C3283 1.356 . S
N3281 H3286 0.984 . S
N3281 H3287 0.985 . S
C3282 C3276 1.379 . S
C3282 C3279 1.363 . S
C3282 N3280 1.356 . S
C3283 C3277 1.363 . S
C3283 C3278 1.379 . S
C3283 N3281 1.356 . S
N3284 C3276 1.356 . S
N3284 H3290 0.984 . S
N3284 H3291 0.984 . S
N3285 C3278 1.356 . S
N3285 H3288 0.984 . S
N3285 H3289 0.985 . S
H3286 N3281 0.984 . S
H3287 N3281 0.985 . S
H3288 N3285 0.984 . S
H3289 N3285 0.985 . S
H3290 N3284 0.984 . S
H3291 N3284 0.984 . S
H3292 N3280 0.984 . S
H3293 N3280 0.985 . S
C3294 C3295 1.363 . S
C3294 C3300 1.379 . S
C3294 N3302 1.356 . S
C3295 C3294 1.363 . S
C3295 C3301 1.363 . S
C3296 C3297 1.363 . S
C3296 C3301 1.379 . S
C3296 N3303 1.356 . S
C3297 C3296 1.363 . S
C3297 C3300 1.363 . S
N3298 C3300 1.356 . S
N3298 H3310 0.984 . S
N3298 H3311 0.985 . S
N3299 C3301 1.356 . S
N3299 H3304 0.984 . S
N3299 H3305 0.985 . S
C3300 C3294 1.379 . S
C3300 C3297 1.363 . S
C3300 N3298 1.356 . S
C3301 C3295 1.363 . S
C3301 C3296 1.379 . S
C3301 N3299 1.356 . S
N3302 C3294 1.356 . S
N3302 H3308 0.984 . S
N3302 H3309 0.984 . S
N3303 C3296 1.356 . S
N3303 H3306 0.984 . S
N3303 H3307 0.985 . S
H3304 N3299 0.984 . S
H3305 N3299 0.985 . S
H3306 N3303 0.984 . S
H3307 N3303 0.985 . S
H3308 N3302 0.984 . S
H3309 N3302 0.984 . S
H3310 N3298 0.984 . S
H3311 N3298 0.985 . S
C3312 C3313 1.363 . S
C3312 C3318 1.379 . S
C3312 N3320 1.356 . S
C3313 C3312 1.363 . S
C3313 C3319 1.363 . S
C3314 C3315 1.363 . S
C3314 C3319 1.379 . S
C3314 N3321 1.356 . S
C3315 C3314 1.363 . S
C3315 C3318 1.363 . S
N3316 C3318 1.356 . S
N3316 H3328 0.984 . S
N3316 H3329 0.985 . S
N3317 C3319 1.356 . S
N3317 H3322 0.984 . S
N3317 H3323 0.985 . S
C3318 C3312 1.379 . S
C3318 C3315 1.363 . S
C3318 N3316 1.356 . S
C3319 C3313 1.363 . S
C3319 C3314 1.379 . S
C3319 N3317 1.356 . S
N3320 C3312 1.356 . S
N3320 H3326 0.984 . S
N3320 H3327 0.984 . S
N3321 C3314 1.356 . S
N3321 H3324 0.984 . S
N3321 H3325 0.985 . S
H3322 N3317 0.984 . S
H3323 N3317 0.985 . S
H3324 N3321 0.984 . S
H3325 N3321 0.985 . S
H3326 N3320 0.984 . S
H3327 N3320 0.984 . S
H3328 N3316 0.984 . S
H3329 N3316 0.985 . S
C3330 C3331 1.363 . S
C3330 C3336 1.379 . S
C3330 N3338 1.356 . S
C3331 C3330 1.363 . S
C3331 C3337 1.363 . S
C3332 C3333 1.363 . S
C3332 C3337 1.379 . S
C3332 N3339 1.356 . S
C3333 C3332 1.363 . S
C3333 C3336 1.363 . S
N3334 C3336 1.356 . S
N3334 H3346 0.984 . S
N3334 H3347 0.985 . S
N3335 C3337 1.356 . S
N3335 H3340 0.984 . S
N3335 H3341 0.985 . S
C3336 C3330 1.379 . S
C3336 C3333 1.363 . S
C3336 N3334 1.356 . S
C3337 C3331 1.363 . S
C3337 C3332 1.379 . S
C3337 N3335 1.356 . S
N3338 C3330 1.356 . S
N3338 H3344 0.984 . S
N3338 H3345 0.984 . S
N3339 C3332 1.356 . S
N3339 H3342 0.984 . S
N3339 H3343 0.985 . S
H3340 N3335 0.984 . S
H3341 N3335 0.985 . S
H3342 N3339 0.984 . S
H3343 N3339 0.985 . S
H3344 N3338 0.984 . S
H3345 N3338 0.984 . S
H3346 N3334 0.984 . S
H3347 N3334 0.985 . S
C3348 C3349 1.363 . S
C3348 C3354 1.379 . S
C3348 N3356 1.356 . S
C3349 C3348 1.363 . S
C3349 C3355 1.363 . S
C3350 C3351 1.363 . S
C3350 C3355 1.379 . S
C3350 N3357 1.356 . S
C3351 C3350 1.363 . S
C3351 C3354 1.363 . S
N3352 C3354 1.356 . S
N3352 H3364 0.984 . S
N3352 H3365 0.985 . S
N3353 C3355 1.356 . S
N3353 H3358 0.984 . S
N3353 H3359 0.985 . S
C3354 C3348 1.379 . S
C3354 C3351 1.363 . S
C3354 N3352 1.356 . S
C3355 C3349 1.363 . S
C3355 C3350 1.379 . S
C3355 N3353 1.356 . S
N3356 C3348 1.356 . S
N3356 H3362 0.984 . S
N3356 H3363 0.984 . S
N3357 C3350 1.356 . S
N3357 H3360 0.984 . S
N3357 H3361 0.985 . S
H3358 N3353 0.984 . S
H3359 N3353 0.985 . S
H3360 N3357 0.984 . S
H3361 N3357 0.985 . S
H3362 N3356 0.984 . S
H3363 N3356 0.984 . S
H3364 N3352 0.984 . S
H3365 N3352 0.985 . S
C3366 C3367 1.363 . S
C3366 C3372 1.379 . S
C3366 N3374 1.356 . S
C3367 C3366 1.363 . S
C3367 C3373 1.363 . S
C3368 C3369 1.363 . S
C3368 C3373 1.379 . S
C3368 N3375 1.356 . S
C3369 C3368 1.363 . S
C3369 C3372 1.363 . S
N3370 C3372 1.356 . S
N3370 H3382 0.984 . S
N3370 H3383 0.985 . S
N3371 C3373 1.356 . S
N3371 H3376 0.984 . S
N3371 H3377 0.985 . S
C3372 C3366 1.379 . S
C3372 C3369 1.363 . S
C3372 N3370 1.356 . S
C3373 C3367 1.363 . S
C3373 C3368 1.379 . S
C3373 N3371 1.356 . S
N3374 C3366 1.356 . S
N3374 H3380 0.984 . S
N3374 H3381 0.984 . S
N3375 C3368 1.356 . S
N3375 H3378 0.984 . S
N3375 H3379 0.985 . S
H3376 N3371 0.984 . S
H3377 N3371 0.985 . S
H3378 N3375 0.984 . S
H3379 N3375 0.985 . S
H3380 N3374 0.984 . S
H3381 N3374 0.984 . S
H3382 N3370 0.984 . S
H3383 N3370 0.985 . S
C3384 C3385 1.363 . S
C3384 C3390 1.379 . S
C3384 N3392 1.356 . S
C3385 C3384 1.363 . S
C3385 C3391 1.363 . S
C3386 C3387 1.363 . S
C3386 C3391 1.379 . S
C3386 N3393 1.356 . S
C3387 C3386 1.363 . S
C3387 C3390 1.363 . S
N3388 C3390 1.356 . S
N3388 H3400 0.984 . S
N3388 H3401 0.985 . S
N3389 C3391 1.356 . S
N3389 H3394 0.984 . S
N3389 H3395 0.985 . S
C3390 C3384 1.379 . S
C3390 C3387 1.363 . S
C3390 N3388 1.356 . S
C3391 C3385 1.363 . S
C3391 C3386 1.379 . S
C3391 N3389 1.356 . S
N3392 C3384 1.356 . S
N3392 H3398 0.984 . S
N3392 H3399 0.984 . S
N3393 C3386 1.356 . S
N3393 H3396 0.984 . S
N3393 H3397 0.985 . S
H3394 N3389 0.984 . S
H3395 N3389 0.985 . S
H3396 N3393 0.984 . S
H3397 N3393 0.985 . S
H3398 N3392 0.984 . S
H3399 N3392 0.984 . S
H3400 N3388 0.984 . S
H3401 N3388 0.985 . S
C3402 C3403 1.363 . S
C3402 C3408 1.379 . S
C3402 N3410 1.356 . S
C3403 C3402 1.363 . S
C3403 C3409 1.363 . S
C3404 C3405 1.363 . S
C3404 C3409 1.379 . S
C3404 N3411 1.356 . S
C3405 C3404 1.363 . S
C3405 C3408 1.363 . S
N3406 C3408 1.356 . S
N3406 H3418 0.984 . S
N3406 H3419 0.985 . S
N3407 C3409 1.356 . S
N3407 H3412 0.984 . S
N3407 H3413 0.985 . S
C3408 C3402 1.379 . S
C3408 C3405 1.363 . S
C3408 N3406 1.356 . S
C3409 C3403 1.363 . S
C3409 C3404 1.379 . S
C3409 N3407 1.356 . S
N3410 C3402 1.356 . S
N3410 H3416 0.984 . S
N3410 H3417 0.984 . S
N3411 C3404 1.356 . S
N3411 H3414 0.984 . S
N3411 H3415 0.985 . S
H3412 N3407 0.984 . S
H3413 N3407 0.985 . S
H3414 N3411 0.984 . S
H3415 N3411 0.985 . S
H3416 N3410 0.984 . S
H3417 N3410 0.984 . S
H3418 N3406 0.984 . S
H3419 N3406 0.985 . S
C3420 C3421 1.363 . S
C3420 C3426 1.379 . S
C3420 N3428 1.356 . S
C3421 C3420 1.363 . S
C3421 C3427 1.363 . S
C3422 C3423 1.363 . S
C3422 C3427 1.379 . S
C3422 N3429 1.356 . S
C3423 C3422 1.363 . S
C3423 C3426 1.363 . S
N3424 C3426 1.356 . S
N3424 H3436 0.984 . S
N3424 H3437 0.985 . S
N3425 C3427 1.356 . S
N3425 H3430 0.984 . S
N3425 H3431 0.985 . S
C3426 C3420 1.379 . S
C3426 C3423 1.363 . S
C3426 N3424 1.356 . S
C3427 C3421 1.363 . S
C3427 C3422 1.379 . S
C3427 N3425 1.356 . S
N3428 C3420 1.356 . S
N3428 H3434 0.984 . S
N3428 H3435 0.984 . S
N3429 C3422 1.356 . S
N3429 H3432 0.984 . S
N3429 H3433 0.985 . S
H3430 N3425 0.984 . S
H3431 N3425 0.985 . S
H3432 N3429 0.984 . S
H3433 N3429 0.985 . S
H3434 N3428 0.984 . S
H3435 N3428 0.984 . S
H3436 N3424 0.984 . S
H3437 N3424 0.985 . S
C3438 C3439 1.363 . S
C3438 C3444 1.379 . S
C3438 N3446 1.356 . S
C3439 C3438 1.363 . S
C3439 C3445 1.363 . S
C3440 C3441 1.363 . S
C3440 C3445 1.379 . S
C3440 N3447 1.356 . S
C3441 C3440 1.363 . S
C3441 C3444 1.363 . S
N3442 C3444 1.356 . S
N3442 H3454 0.984 . S
N3442 H3455 0.985 . S
N3443 C3445 1.356 . S
N3443 H3448 0.984 . S
N3443 H3449 0.985 . S
C3444 C3438 1.379 . S
C3444 C3441 1.363 . S
C3444 N3442 1.356 . S
C3445 C3439 1.363 . S
C3445 C3440 1.379 . S
C3445 N3443 1.356 . S
N3446 C3438 1.356 . S
N3446 H3452 0.984 . S
N3446 H3453 0.984 . S
N3447 C3440 1.356 . S
N3447 H3450 0.984 . S
N3447 H3451 0.985 . S
H3448 N3443 0.984 . S
H3449 N3443 0.985 . S
H3450 N3447 0.984 . S
H3451 N3447 0.985 . S
H3452 N3446 0.984 . S
H3453 N3446 0.984 . S
H3454 N3442 0.984 . S
H3455 N3442 0.985 . S
C3456 C3457 1.363 . S
C3456 C3462 1.379 . S
C3456 N3464 1.356 . S
C3457 C3456 1.363 . S
C3457 C3463 1.363 . S
C3458 C3459 1.363 . S
C3458 C3463 1.379 . S
C3458 N3465 1.356 . S
C3459 C3458 1.363 . S
C3459 C3462 1.363 . S
N3460 C3462 1.356 . S
N3460 H3472 0.984 . S
N3460 H3473 0.985 . S
N3461 C3463 1.356 . S
N3461 H3466 0.984 . S
N3461 H3467 0.985 . S
C3462 C3456 1.379 . S
C3462 C3459 1.363 . S
C3462 N3460 1.356 . S
C3463 C3457 1.363 . S
C3463 C3458 1.379 . S
C3463 N3461 1.356 . S
N3464 C3456 1.356 . S
N3464 H3470 0.984 . S
N3464 H3471 0.984 . S
N3465 C3458 1.356 . S
N3465 H3468 0.984 . S
N3465 H3469 0.985 . S
H3466 N3461 0.984 . S
H3467 N3461 0.985 . S
H3468 N3465 0.984 . S
H3469 N3465 0.985 . S
H3470 N3464 0.984 . S
H3471 N3464 0.984 . S
H3472 N3460 0.984 . S
H3473 N3460 0.985 . S
C3474 C3475 1.363 . S
C3474 C3480 1.379 . S
C3474 N3482 1.356 . S
C3475 C3474 1.363 . S
C3475 C3481 1.363 . S
C3476 C3477 1.363 . S
C3476 C3481 1.379 . S
C3476 N3483 1.356 . S
C3477 C3476 1.363 . S
C3477 C3480 1.363 . S
N3478 C3480 1.356 . S
N3478 H3490 0.984 . S
N3478 H3491 0.985 . S
N3479 C3481 1.356 . S
N3479 H3484 0.984 . S
N3479 H3485 0.985 . S
C3480 C3474 1.379 . S
C3480 C3477 1.363 . S
C3480 N3478 1.356 . S
C3481 C3475 1.363 . S
C3481 C3476 1.379 . S
C3481 N3479 1.356 . S
N3482 C3474 1.356 . S
N3482 H3488 0.984 . S
N3482 H3489 0.984 . S
N3483 C3476 1.356 . S
N3483 H3486 0.984 . S
N3483 H3487 0.985 . S
H3484 N3479 0.984 . S
H3485 N3479 0.985 . S
H3486 N3483 0.984 . S
H3487 N3483 0.985 . S
H3488 N3482 0.984 . S
H3489 N3482 0.984 . S
H3490 N3478 0.984 . S
H3491 N3478 0.985 . S
C3492 C3493 1.363 . S
C3492 C3498 1.379 . S
C3492 N3500 1.356 . S
C3493 C3492 1.363 . S
C3493 C3499 1.363 . S
C3494 C3495 1.363 . S
C3494 C3499 1.379 . S
C3494 N3501 1.356 . S
C3495 C3494 1.363 . S
C3495 C3498 1.363 . S
N3496 C3498 1.356 . S
N3496 H3508 0.984 . S
N3496 H3509 0.985 . S
N3497 C3499 1.356 . S
N3497 H3502 0.984 . S
N3497 H3503 0.985 . S
C3498 C3492 1.379 . S
C3498 C3495 1.363 . S
C3498 N3496 1.356 . S
C3499 C3493 1.363 . S
C3499 C3494 1.379 . S
C3499 N3497 1.356 . S
N3500 C3492 1.356 . S
N3500 H3506 0.984 . S
N3500 H3507 0.984 . S
N3501 C3494 1.356 . S
N3501 H3504 0.984 . S
N3501 H3505 0.985 . S
H3502 N3497 0.984 . S
H3503 N3497 0.985 . S
H3504 N3501 0.984 . S
H3505 N3501 0.985 . S
H3506 N3500 0.984 . S
H3507 N3500 0.984 . S
H3508 N3496 0.984 . S
H3509 N3496 0.985 . S
C3510 C3511 1.363 . S
C3510 C3516 1.379 . S
C3510 N3518 1.356 . S
C3511 C3510 1.363 . S
C3511 C3517 1.363 . S
C3512 C3513 1.363 . S
C3512 C3517 1.379 . S
C3512 N3519 1.356 . S
C3513 C3512 1.363 . S
C3513 C3516 1.363 . S
N3514 C3516 1.356 . S
N3514 H3526 0.984 . S
N3514 H3527 0.985 . S
N3515 C3517 1.356 . S
N3515 H3520 0.984 . S
N3515 H3521 0.985 . S
C3516 C3510 1.379 . S
C3516 C3513 1.363 . S
C3516 N3514 1.356 . S
C3517 C3511 1.363 . S
C3517 C3512 1.379 . S
C3517 N3515 1.356 . S
N3518 C3510 1.356 . S
N3518 H3524 0.984 . S
N3518 H3525 0.984 . S
N3519 C3512 1.356 . S
N3519 H3522 0.984 . S
N3519 H3523 0.985 . S
H3520 N3515 0.984 . S
H3521 N3515 0.985 . S
H3522 N3519 0.984 . S
H3523 N3519 0.985 . S
H3524 N3518 0.984 . S
H3525 N3518 0.984 . S
H3526 N3514 0.984 . S
H3527 N3514 0.985 . S
C3528 C3529 1.363 . S
C3528 C3534 1.379 . S
C3528 N3536 1.356 . S
C3529 C3528 1.363 . S
C3529 C3535 1.363 . S
C3530 C3531 1.363 . S
C3530 C3535 1.379 . S
C3530 N3537 1.356 . S
C3531 C3530 1.363 . S
C3531 C3534 1.363 . S
N3532 C3534 1.356 . S
N3532 H3544 0.984 . S
N3532 H3545 0.985 . S
N3533 C3535 1.356 . S
N3533 H3538 0.984 . S
N3533 H3539 0.985 . S
C3534 C3528 1.379 . S
C3534 C3531 1.363 . S
C3534 N3532 1.356 . S
C3535 C3529 1.363 . S
C3535 C3530 1.379 . S
C3535 N3533 1.356 . S
N3536 C3528 1.356 . S
N3536 H3542 0.984 . S
N3536 H3543 0.984 . S
N3537 C3530 1.356 . S
N3537 H3540 0.984 . S
N3537 H3541 0.985 . S
H3538 N3533 0.984 . S
H3539 N3533 0.985 . S
H3540 N3537 0.984 . S
H3541 N3537 0.985 . S
H3542 N3536 0.984 . S
H3543 N3536 0.984 . S
H3544 N3532 0.984 . S
H3545 N3532 0.985 . S
C3546 C3547 1.363 . S
C3546 C3552 1.379 . S
C3546 N3554 1.356 . S
C3547 C3546 1.363 . S
C3547 C3553 1.363 . S
C3548 C3549 1.363 . S
C3548 C3553 1.379 . S
C3548 N3555 1.356 . S
C3549 C3548 1.363 . S
C3549 C3552 1.363 . S
N3550 C3552 1.356 . S
N3550 H3562 0.984 . S
N3550 H3563 0.985 . S
N3551 C3553 1.356 . S
N3551 H3556 0.984 . S
N3551 H3557 0.985 . S
C3552 C3546 1.379 . S
C3552 C3549 1.363 . S
C3552 N3550 1.356 . S
C3553 C3547 1.363 . S
C3553 C3548 1.379 . S
C3553 N3551 1.356 . S
N3554 C3546 1.356 . S
N3554 H3560 0.984 . S
N3554 H3561 0.984 . S
N3555 C3548 1.356 . S
N3555 H3558 0.984 . S
N3555 H3559 0.985 . S
H3556 N3551 0.984 . S
H3557 N3551 0.985 . S
H3558 N3555 0.984 . S
H3559 N3555 0.985 . S
H3560 N3554 0.984 . S
H3561 N3554 0.984 . S
H3562 N3550 0.984 . S
H3563 N3550 0.985 . S
C3564 C3565 1.363 . S
C3564 C3570 1.379 . S
C3564 N3572 1.356 . S
C3565 C3564 1.363 . S
C3565 C3571 1.363 . S
C3566 C3567 1.363 . S
C3566 C3571 1.379 . S
C3566 N3573 1.356 . S
C3567 C3566 1.363 . S
C3567 C3570 1.363 . S
N3568 C3570 1.356 . S
N3568 H3580 0.984 . S
N3568 H3581 0.985 . S
N3569 C3571 1.356 . S
N3569 H3574 0.984 . S
N3569 H3575 0.985 . S
C3570 C3564 1.379 . S
C3570 C3567 1.363 . S
C3570 N3568 1.356 . S
C3571 C3565 1.363 . S
C3571 C3566 1.379 . S
C3571 N3569 1.356 . S
N3572 C3564 1.356 . S
N3572 H3578 0.984 . S
N3572 H3579 0.984 . S
N3573 C3566 1.356 . S
N3573 H3576 0.984 . S
N3573 H3577 0.985 . S
H3574 N3569 0.984 . S
H3575 N3569 0.985 . S
H3576 N3573 0.984 . S
H3577 N3573 0.985 . S
H3578 N3572 0.984 . S
H3579 N3572 0.984 . S
H3580 N3568 0.984 . S
H3581 N3568 0.985 . S
C3582 C3583 1.363 . S
C3582 C3588 1.379 . S
C3582 N3590 1.356 . S
C3583 C3582 1.363 . S
C3583 C3589 1.363 . S
C3584 C3585 1.363 . S
C3584 C3589 1.379 . S
C3584 N3591 1.356 . S
C3585 C3584 1.363 . S
C3585 C3588 1.363 . S
N3586 C3588 1.356 . S
N3586 H3598 0.984 . S
N3586 H3599 0.985 . S
N3587 C3589 1.356 . S
N3587 H3592 0.984 . S
N3587 H3593 0.985 . S
C3588 C3582 1.379 . S
C3588 C3585 1.363 . S
C3588 N3586 1.356 . S
C3589 C3583 1.363 . S
C3589 C3584 1.379 . S
C3589 N3587 1.356 . S
N3590 C3582 1.356 . S
N3590 H3596 0.984 . S
N3590 H3597 0.984 . S
N3591 C3584 1.356 . S
N3591 H3594 0.984 . S
N3591 H3595 0.985 . S
H3592 N3587 0.984 . S
H3593 N3587 0.985 . S
H3594 N3591 0.984 . S
H3595 N3591 0.985 . S
H3596 N3590 0.984 . S
H3597 N3590 0.984 . S
H3598 N3586 0.984 . S
H3599 N3586 0.985 . S
C3600 C3601 1.363 . S
C3600 C3606 1.379 . S
C3600 N3608 1.356 . S
C3601 C3600 1.363 . S
C3601 C3607 1.363 . S
C3602 C3603 1.363 . S
C3602 C3607 1.379 . S
C3602 N3609 1.356 . S
C3603 C3602 1.363 . S
C3603 C3606 1.363 . S
N3604 C3606 1.356 . S
N3604 H3616 0.984 . S
N3604 H3617 0.985 . S
N3605 C3607 1.356 . S
N3605 H3610 0.984 . S
N3605 H3611 0.985 . S
C3606 C3600 1.379 . S
C3606 C3603 1.363 . S
C3606 N3604 1.356 . S
C3607 C3601 1.363 . S
C3607 C3602 1.379 . S
C3607 N3605 1.356 . S
N3608 C3600 1.356 . S
N3608 H3614 0.984 . S
N3608 H3615 0.984 . S
N3609 C3602 1.356 . S
N3609 H3612 0.984 . S
N3609 H3613 0.985 . S
H3610 N3605 0.984 . S
H3611 N3605 0.985 . S
H3612 N3609 0.984 . S
H3613 N3609 0.985 . S
H3614 N3608 0.984 . S
H3615 N3608 0.984 . S
H3616 N3604 0.984 . S
H3617 N3604 0.985 . S
C3618 C3619 1.363 . S
C3618 C3624 1.379 . S
C3618 N3626 1.356 . S
C3619 C3618 1.363 . S
C3619 C3625 1.366 1_556 S
C3620 C3621 1.363 . S
C3620 C3625 1.380 1_556 S
C3620 N3627 1.358 . S
C3621 C3620 1.363 . S
C3621 C3624 1.363 . S
N3622 C3624 1.356 . S
N3622 H3634 0.984 . S
N3622 H3635 0.985 . S
N3623 C3625 1.352 . S
N3623 H3628 0.984 . S
N3623 H3629 0.985 . S
C3624 C3618 1.379 . S
C3624 C3621 1.363 . S
C3624 N3622 1.356 . S
C3625 C3619 1.366 1_554 S
C3625 C3620 1.380 1_554 S
C3625 N3623 1.352 . S
N3626 C3618 1.356 . S
N3626 H3632 0.984 . S
N3626 H3633 0.984 . S
N3627 C3620 1.358 . S
N3627 H3630 0.987 . S
N3627 H3631 0.981 1_556 S
H3628 N3623 0.984 . S
H3629 N3623 0.985 . S
H3630 N3627 0.987 . S
H3631 N3627 0.981 1_554 S
H3632 N3626 0.984 . S
H3633 N3626 0.984 . S
H3634 N3622 0.984 . S
H3635 N3622 0.985 . S
C3636 C3637 1.363 . S
C3636 C3642 1.379 . S
C3636 N3644 1.356 . S
C3637 C3636 1.363 . S
C3637 C3643 1.363 . S
C3638 C3639 1.363 . S
C3638 C3643 1.379 . S
C3638 N3645 1.356 . S
C3639 C3638 1.363 . S
C3639 C3642 1.363 . S
N3640 C3642 1.356 . S
N3640 H3652 0.984 . S
N3640 H3653 0.985 . S
N3641 C3643 1.356 1_554 S
N3641 H3646 0.984 . S
N3641 H3647 0.985 . S
C3642 C3636 1.379 . S
C3642 C3639 1.363 . S
C3642 N3640 1.356 . S
C3643 C3637 1.363 . S
C3643 C3638 1.379 . S
C3643 N3641 1.356 1_556 S
N3644 C3636 1.356 . S
N3644 H3650 0.984 . S
N3644 H3651 0.984 . S
N3645 C3638 1.356 . S
N3645 H3648 0.984 . S
N3645 H3649 0.985 . S
H3646 N3641 0.984 . S
H3647 N3641 0.985 . S
H3648 N3645 0.984 . S
H3649 N3645 0.985 . S
H3650 N3644 0.984 . S
H3651 N3644 0.984 . S
H3652 N3640 0.984 . S
H3653 N3640 0.985 . S
C3654 C3655 1.367 1_556 S
C3654 C3660 1.376 . S
C3654 N3662 1.356 . S
C3655 C3654 1.367 1_554 S
C3655 C3661 1.363 . S
C3656 C3657 1.363 1_554 S
C3656 C3661 1.379 . S
C3656 N3663 1.356 . S
C3657 C3656 1.363 1_556 S
C3657 C3660 1.363 . S
N3658 C3660 1.356 . S
N3658 H3670 0.984 . S
N3658 H3671 0.985 . S
N3659 C3661 1.356 . S
N3659 H3664 0.984 . S
N3659 H3665 0.985 . S
C3660 C3654 1.376 . S
C3660 C3657 1.363 . S
C3660 N3658 1.356 . S
C3661 C3655 1.363 . S
C3661 C3656 1.379 . S
C3661 N3659 1.356 . S
N3662 C3654 1.356 . S
N3662 H3668 0.984 . S
N3662 H3669 0.984 1_556 S
N3663 C3656 1.356 . S
N3663 H3666 0.984 . S
N3663 H3667 0.985 . S
H3664 N3659 0.984 . S
H3665 N3659 0.985 . S
H3666 N3663 0.984 . S
H3667 N3663 0.985 . S
H3668 N3662 0.984 . S
H3669 N3662 0.984 1_554 S
H3670 N3658 0.984 . S
H3671 N3658 0.985 . S
C3672 C3673 1.355 1_554 S
C3672 C3678 1.360 1_554 S
C3672 N3680 1.385 . S
C3673 C3672 1.355 1_556 S
C3673 C3679 1.363 . S
C3674 C3675 1.363 . S
C3674 C3679 1.379 . S
C3674 N3681 1.356 . S
C3675 C3674 1.363 . S
C3675 C3678 1.363 . S
N3676 C3678 1.356 . S
N3676 H3688 0.984 1_556 S
N3676 H3689 0.985 . S
N3677 C3679 1.356 . S
N3677 H3682 0.984 . S
N3677 H3683 0.985 . S
C3678 C3672 1.360 1_556 S
C3678 C3675 1.363 . S
C3678 N3676 1.356 . S
C3679 C3673 1.363 . S
C3679 C3674 1.379 . S
C3679 N3677 1.356 . S
N3680 C3672 1.385 . S
N3680 H3686 0.984 . S
N3680 H3687 0.984 . S
N3681 C3674 1.356 . S
N3681 H3684 0.984 . S
N3681 H3685 0.985 . S
H3682 N3677 0.984 . S
H3683 N3677 0.985 . S
H3684 N3681 0.984 . S
H3685 N3681 0.985 . S
H3686 N3680 0.984 . S
H3687 N3680 0.984 . S
H3688 N3676 0.984 1_554 S
H3689 N3676 0.985 . S
C3690 C3691 1.363 . S
C3690 C3696 1.379 . S
C3690 N3698 1.356 . S
C3691 C3690 1.363 . S
C3691 C3697 1.363 . S
C3692 C3693 1.363 . S
C3692 C3697 1.379 . S
C3692 N3699 1.356 . S
C3693 C3692 1.363 . S
C3693 C3696 1.363 . S
N3694 C3696 1.356 . S
N3694 H3706 0.984 . S
N3694 H3707 0.985 . S
N3695 C3697 1.356 . S
N3695 H3700 0.984 . S
N3695 H3701 0.985 . S
C3696 C3690 1.379 . S
C3696 C3693 1.363 . S
C3696 N3694 1.356 . S
C3697 C3691 1.363 . S
C3697 C3692 1.379 . S
C3697 N3695 1.356 . S
N3698 C3690 1.356 . S
N3698 H3704 0.984 . S
N3698 H3705 0.984 . S
N3699 C3692 1.356 . S
N3699 H3702 0.984 . S
N3699 H3703 0.985 . S
H3700 N3695 0.984 . S
H3701 N3695 0.985 . S
H3702 N3699 0.984 . S
H3703 N3699 0.985 . S
H3704 N3698 0.984 . S
H3705 N3698 0.984 . S
H3706 N3694 0.984 . S
H3707 N3694 0.985 . S
C3708 C3709 1.363 . S
C3708 C3714 1.379 1_554 S
C3708 N3716 1.356 . S
C3709 C3708 1.363 . S
C3709 C3715 1.363 . S
C3710 C3711 1.363 . S
C3710 C3715 1.379 1_556 S
C3710 N3717 1.356 . S
C3711 C3710 1.363 . S
C3711 C3714 1.363 . S
N3712 C3714 1.356 . S
N3712 H3724 0.984 . S
N3712 H3725 0.985 . S
N3713 C3715 1.356 . S
N3713 H3718 0.984 . S
N3713 H3719 0.985 . S
C3714 C3708 1.379 1_556 S
C3714 C3711 1.363 . S
C3714 N3712 1.356 . S
C3715 C3709 1.363 . S
C3715 C3710 1.379 1_554 S
C3715 N3713 1.356 . S
N3716 C3708 1.356 . S
N3716 H3722 0.984 . S
N3716 H3723 0.984 . S
N3717 C3710 1.356 . S
N3717 H3720 0.984 . S
N3717 H3721 0.985 . S
H3718 N3713 0.984 . S
H3719 N3713 0.985 . S
H3720 N3717 0.984 . S
H3721 N3717 0.985 . S
H3722 N3716 0.984 . S
H3723 N3716 0.984 . S
H3724 N3712 0.984 . S
H3725 N3712 0.985 . S
C3726 C3727 1.363 . S
C3726 C3732 1.379 . S
C3726 N3734 1.356 . S
C3727 C3726 1.363 . S
C3727 C3733 1.363 . S
C3728 C3729 1.363 . S
C3728 C3733 1.379 . S
C3728 N3735 1.356 . S
C3729 C3728 1.363 . S
C3729 C3732 1.363 . S
N3730 C3732 1.356 . S
N3730 H3742 0.984 . S
N3730 H3743 0.985 . S
N3731 C3733 1.356 . S
N3731 H3736 0.984 . S
N3731 H3737 0.985 . S
C3732 C3726 1.379 . S
C3732 C3729 1.363 . S
C3732 N3730 1.356 . S
C3733 C3727 1.363 . S
C3733 C3728 1.379 . S
C3733 N3731 1.356 . S
N3734 C3726 1.356 . S
N3734 H3740 0.984 . S
N3734 H3741 0.984 . S
N3735 C3728 1.356 . S
N3735 H3738 0.984 . S
N3735 H3739 0.985 . S
H3736 N3731 0.984 . S
H3737 N3731 0.985 . S
H3738 N3735 0.984 . S
H3739 N3735 0.985 . S
H3740 N3734 0.984 . S
H3741 N3734 0.984 . S
H3742 N3730 0.984 . S
H3743 N3730 0.985 . S
C3744 C3745 1.363 . S
C3744 C3750 1.379 . S
C3744 N3752 1.356 . S
C3745 C3744 1.363 . S
C3745 C3751 1.363 . S
C3746 C3747 1.363 . S
C3746 C3751 1.379 . S
C3746 N3753 1.356 . S
C3747 C3746 1.363 . S
C3747 C3750 1.363 . S
N3748 C3750 1.356 . S
N3748 H3760 0.984 . S
N3748 H3761 0.985 . S
N3749 C3751 1.356 . S
N3749 H3754 0.984 . S
N3749 H3755 0.985 . S
C3750 C3744 1.379 . S
C3750 C3747 1.363 . S
C3750 N3748 1.356 . S
C3751 C3745 1.363 . S
C3751 C3746 1.379 . S
C3751 N3749 1.356 . S
N3752 C3744 1.356 . S
N3752 H3758 0.984 . S
N3752 H3759 0.984 . S
N3753 C3746 1.356 . S
N3753 H3756 0.984 . S
N3753 H3757 0.985 . S
H3754 N3749 0.984 . S
H3755 N3749 0.985 . S
H3756 N3753 0.984 . S
H3757 N3753 0.985 . S
H3758 N3752 0.984 . S
H3759 N3752 0.984 . S
H3760 N3748 0.984 . S
H3761 N3748 0.985 . S
C3762 C3763 1.363 . S
C3762 C3768 1.379 . S
C3762 N3770 1.356 . S
C3763 C3762 1.363 . S
C3763 C3769 1.363 . S
C3764 C3765 1.363 . S
C3764 C3769 1.379 . S
C3764 N3771 1.356 . S
C3765 C3764 1.363 . S
C3765 C3768 1.363 . S
N3766 C3768 1.356 . S
N3766 H3778 0.984 . S
N3766 H3779 0.985 . S
N3767 C3769 1.356 . S
N3767 H3772 0.984 . S
N3767 H3773 0.985 . S
C3768 C3762 1.379 . S
C3768 C3765 1.363 . S
C3768 N3766 1.356 . S
C3769 C3763 1.363 . S
C3769 C3764 1.379 . S
C3769 N3767 1.356 . S
N3770 C3762 1.356 . S
N3770 H3776 0.984 . S
N3770 H3777 0.984 . S
N3771 C3764 1.356 . S
N3771 H3774 0.984 . S
N3771 H3775 0.985 . S
H3772 N3767 0.984 . S
H3773 N3767 0.985 . S
H3774 N3771 0.984 . S
H3775 N3771 0.985 . S
H3776 N3770 0.984 . S
H3777 N3770 0.984 . S
H3778 N3766 0.984 . S
H3779 N3766 0.985 . S
C3780 C3781 1.363 . S
C3780 C3786 1.379 . S
C3780 N3788 1.356 . S
C3781 C3780 1.363 . S
C3781 C3787 1.363 . S
C3782 C3783 1.363 . S
C3782 C3787 1.379 . S
C3782 N3789 1.356 . S
C3783 C3782 1.363 . S
C3783 C3786 1.363 . S
N3784 C3786 1.356 . S
N3784 H3796 0.984 . S
N3784 H3797 0.985 . S
N3785 C3787 1.356 . S
N3785 H3790 0.984 . S
N3785 H3791 0.985 . S
C3786 C3780 1.379 . S
C3786 C3783 1.363 . S
C3786 N3784 1.356 . S
C3787 C3781 1.363 . S
C3787 C3782 1.379 . S
C3787 N3785 1.356 . S
N3788 C3780 1.356 . S
N3788 H3794 0.984 . S
N3788 H3795 0.984 . S
N3789 C3782 1.356 . S
N3789 H3792 0.984 . S
N3789 H3793 0.985 . S
H3790 N3785 0.984 . S
H3791 N3785 0.985 . S
H3792 N3789 0.984 . S
H3793 N3789 0.985 . S
H3794 N3788 0.984 . S
H3795 N3788 0.984 . S
H3796 N3784 0.984 . S
H3797 N3784 0.985 . S
C3798 C3799 1.363 . S
C3798 C3804 1.379 . S
C3798 N3806 1.356 . S
C3799 C3798 1.363 . S
C3799 C3805 1.363 . S
C3800 C3801 1.363 . S
C3800 C3805 1.379 . S
C3800 N3807 1.356 . S
C3801 C3800 1.363 . S
C3801 C3804 1.363 . S
N3802 C3804 1.356 . S
N3802 H3814 0.984 . S
N3802 H3815 0.985 . S
N3803 C3805 1.356 . S
N3803 H3808 0.984 . S
N3803 H3809 0.985 . S
C3804 C3798 1.379 . S
C3804 C3801 1.363 . S
C3804 N3802 1.356 . S
C3805 C3799 1.363 . S
C3805 C3800 1.379 . S
C3805 N3803 1.356 . S
N3806 C3798 1.356 . S
N3806 H3812 0.984 . S
N3806 H3813 0.984 . S
N3807 C3800 1.356 . S
N3807 H3810 0.984 . S
N3807 H3811 0.985 . S
H3808 N3803 0.984 . S
H3809 N3803 0.985 . S
H3810 N3807 0.984 . S
H3811 N3807 0.985 . S
H3812 N3806 0.984 . S
H3813 N3806 0.984 . S
H3814 N3802 0.984 . S
H3815 N3802 0.985 . S
C3816 C3817 1.363 . S
C3816 C3822 1.379 . S
C3816 N3824 1.356 . S
C3817 C3816 1.363 . S
C3817 C3823 1.363 . S
C3818 C3819 1.363 . S
C3818 C3823 1.379 . S
C3818 N3825 1.356 . S
C3819 C3818 1.363 . S
C3819 C3822 1.363 . S
N3820 C3822 1.356 . S
N3820 H3832 0.984 . S
N3820 H3833 0.985 . S
N3821 C3823 1.356 . S
N3821 H3826 0.984 . S
N3821 H3827 0.985 . S
C3822 C3816 1.379 . S
C3822 C3819 1.363 . S
C3822 N3820 1.356 . S
C3823 C3817 1.363 . S
C3823 C3818 1.379 . S
C3823 N3821 1.356 . S
N3824 C3816 1.356 . S
N3824 H3830 0.984 . S
N3824 H3831 0.984 . S
N3825 C3818 1.356 . S
N3825 H3828 0.984 . S
N3825 H3829 0.985 . S
H3826 N3821 0.984 . S
H3827 N3821 0.985 . S
H3828 N3825 0.984 . S
H3829 N3825 0.985 . S
H3830 N3824 0.984 . S
H3831 N3824 0.984 . S
H3832 N3820 0.984 . S
H3833 N3820 0.985 . S
C3834 C3835 1.363 . S
C3834 C3840 1.379 . S
C3834 N3842 1.356 . S
C3835 C3834 1.363 . S
C3835 C3841 1.363 . S
C3836 C3837 1.363 . S
C3836 C3841 1.379 . S
C3836 N3843 1.356 . S
C3837 C3836 1.363 . S
C3837 C3840 1.363 . S
N3838 C3840 1.356 . S
N3838 H3850 0.996 . S
N3838 H3851 0.985 . S
N3839 C3841 1.356 . S
N3839 H3844 0.984 . S
N3839 H3845 0.985 . S
C3840 C3834 1.379 . S
C3840 C3837 1.363 . S
C3840 N3838 1.356 . S
C3841 C3835 1.363 . S
C3841 C3836 1.379 . S
C3841 N3839 1.356 . S
N3842 C3834 1.356 . S
N3842 H3848 0.984 . S
N3842 H3849 0.984 . S
N3843 C3836 1.356 . S
N3843 H3846 0.984 . S
N3843 H3847 0.985 . S
H3844 N3839 0.984 . S
H3845 N3839 0.985 . S
H3846 N3843 0.984 . S
H3847 N3843 0.985 . S
H3848 N3842 0.984 . S
H3849 N3842 0.984 . S
H3850 N3838 0.996 . S
H3851 N3838 0.985 . S
C3852 C3853 1.363 . S
C3852 C3858 1.379 . S
C3852 N3860 1.356 . S
C3853 C3852 1.363 . S
C3853 C3859 1.363 . S
C3854 C3855 1.363 . S
C3854 C3859 1.379 . S
C3854 N3861 1.356 . S
C3855 C3854 1.363 . S
C3855 C3858 1.363 . S
N3856 C3858 1.356 . S
N3856 H3868 0.984 . S
N3856 H3869 0.985 . S
N3857 C3859 1.356 . S
N3857 H3862 0.984 . S
N3857 H3863 0.985 . S
C3858 C3852 1.379 . S
C3858 C3855 1.363 . S
C3858 N3856 1.356 . S
C3859 C3853 1.363 . S
C3859 C3854 1.379 . S
C3859 N3857 1.356 . S
N3860 C3852 1.356 . S
N3860 H3866 0.984 . S
N3860 H3867 0.984 . S
N3861 C3854 1.356 . S
N3861 H3864 0.984 . S
N3861 H3865 0.985 . S
H3862 N3857 0.984 . S
H3863 N3857 0.985 . S
H3864 N3861 0.984 . S
H3865 N3861 0.985 . S
H3866 N3860 0.984 . S
H3867 N3860 0.984 . S
H3868 N3856 0.984 . S
H3869 N3856 0.985 . S
C3870 C3871 1.363 . S
C3870 C3876 1.379 . S
C3870 N3878 1.356 . S
C3871 C3870 1.363 . S
C3871 C3877 1.363 . S
C3872 C3873 1.363 . S
C3872 C3877 1.379 . S
C3872 N3879 1.356 1_565 S
C3873 C3872 1.363 . S
C3873 C3876 1.363 . S
N3874 C3876 1.356 . S
N3874 H3886 0.984 . S
N3874 H3887 0.985 . S
N3875 C3877 1.356 . S
N3875 H3880 0.984 . S
N3875 H3881 0.985 1_565 S
C3876 C3870 1.379 . S
C3876 C3873 1.363 . S
C3876 N3874 1.356 . S
C3877 C3871 1.363 . S
C3877 C3872 1.379 . S
C3877 N3875 1.356 . S
N3878 C3870 1.356 . S
N3878 H3884 0.984 . S
N3878 H3885 0.984 . S
N3879 C3872 1.356 1_545 S
N3879 H3882 0.984 . S
N3879 H3883 0.985 . S
H3880 N3875 0.984 . S
H3881 N3875 0.985 1_545 S
H3882 N3879 0.984 . S
H3883 N3879 0.985 . S
H3884 N3878 0.984 . S
H3885 N3878 0.984 . S
H3886 N3874 0.984 . S
H3887 N3874 0.985 . S
C3888 C3889 1.363 . S
C3888 C3894 1.379 . S
C3888 N3896 1.356 . S
C3889 C3888 1.363 . S
C3889 C3895 1.363 . S
C3890 C3891 1.351 1_545 S
C3890 C3895 1.334 1_545 S
C3890 N3897 1.419 . S
C3891 C3890 1.351 1_565 S
C3891 C3894 1.363 . S
N3892 C3894 1.356 . S
N3892 H3904 0.984 . S
N3892 H3905 0.985 . S
N3893 C3895 1.356 . S
N3893 H3898 0.984 . S
N3893 H3899 0.985 1_565 S
C3894 C3888 1.379 . S
C3894 C3891 1.363 . S
C3894 N3892 1.356 . S
C3895 C3889 1.363 . S
C3895 C3890 1.334 1_565 S
C3895 N3893 1.356 . S
N3896 C3888 1.356 . S
N3896 H3902 0.984 . S
N3896 H3903 0.984 . S
N3897 C3890 1.419 . S
N3897 H3900 0.984 . S
N3897 H3901 0.985 . S
H3898 N3893 0.984 . S
H3899 N3893 0.985 1_545 S
H3900 N3897 0.984 . S
H3901 N3897 0.985 . S
H3902 N3896 0.984 . S
H3903 N3896 0.984 . S
H3904 N3892 0.984 . S
H3905 N3892 0.985 . S
C3906 C3907 1.363 . S
C3906 C3912 1.379 . S
C3906 N3914 1.356 . S
C3907 C3906 1.363 . S
C3907 C3913 1.363 . S
C3908 C3909 1.363 . S
C3908 C3913 1.379 . S
C3908 N3915 1.356 1_455 S
C3909 C3908 1.363 . S
C3909 C3912 1.363 . S
N3910 C3912 1.356 . S
N3910 H3922 0.984 . S
N3910 H3923 0.985 . S
N3911 C3913 1.356 . S
N3911 H3916 0.984 . S
N3911 H3917 0.985 . S
C3912 C3906 1.379 . S
C3912 C3909 1.363 . S
C3912 N3910 1.356 . S
C3913 C3907 1.363 . S
C3913 C3908 1.379 . S
C3913 N3911 1.356 . S
N3914 C3906 1.356 . S
N3914 H3920 0.984 . S
N3914 H3921 0.984 . S
N3915 C3908 1.356 1_655 S
N3915 H3918 0.984 . S
N3915 H3919 0.985 . S
H3916 N3911 0.984 . S
H3917 N3911 0.985 . S
H3918 N3915 0.984 . S
H3919 N3915 0.985 . S
H3920 N3914 0.984 . S
H3921 N3914 0.984 . S
H3922 N3910 0.984 . S
H3923 N3910 0.985 . S
C3924 C3925 1.363 . S
C3924 C3930 1.379 . S
C3924 N3932 1.356 . S
C3925 C3924 1.363 . S
C3925 C3931 1.363 . S
C3926 C3927 1.363 . S
C3926 C3931 1.379 . S
C3926 N3933 1.356 . S
C3927 C3926 1.363 . S
C3927 C3930 1.363 . S
N3928 C3930 1.356 . S
N3928 H3940 0.984 . S
N3928 H3941 0.985 . S
N3929 C3931 1.356 . S
N3929 H3934 0.984 . S
N3929 H3935 0.985 . S
C3930 C3924 1.379 . S
C3930 C3927 1.363 . S
C3930 N3928 1.356 . S
C3931 C3925 1.363 . S
C3931 C3926 1.379 . S
C3931 N3929 1.356 . S
N3932 C3924 1.356 . S
N3932 H3938 0.984 . S
N3932 H3939 0.984 . S
N3933 C3926 1.356 . S
N3933 H3936 0.984 . S
N3933 H3937 0.985 . S
H3934 N3929 0.984 . S
H3935 N3929 0.985 . S
H3936 N3933 0.984 . S
H3937 N3933 0.985 . S
H3938 N3932 0.984 . S
H3939 N3932 0.984 . S
H3940 N3928 0.984 . S
H3941 N3928 0.985 . S
C3942 C3943 1.363 . S
C3942 C3948 1.379 . S
C3942 N3950 1.356 . S
C3943 C3942 1.363 . S
C3943 C3949 1.363 . S
C3944 C3945 1.363 . S
C3944 C3949 1.379 . S
C3944 N3951 1.356 . S
C3945 C3944 1.363 . S
C3945 C3948 1.363 . S
N3946 C3948 1.356 . S
N3946 H3958 0.984 . S
N3946 H3959 0.985 . S
N3947 C3949 1.356 . S
N3947 H3952 0.984 . S
N3947 H3953 0.985 . S
C3948 C3942 1.379 . S
C3948 C3945 1.363 . S
C3948 N3946 1.356 . S
C3949 C3943 1.363 . S
C3949 C3944 1.379 . S
C3949 N3947 1.356 . S
N3950 C3942 1.356 . S
N3950 H3956 0.984 . S
N3950 H3957 0.984 . S
N3951 C3944 1.356 . S
N3951 H3954 0.984 . S
N3951 H3955 0.985 . S
H3952 N3947 0.984 . S
H3953 N3947 0.985 . S
H3954 N3951 0.984 . S
H3955 N3951 0.985 . S
H3956 N3950 0.984 . S
H3957 N3950 0.984 . S
H3958 N3946 0.984 . S
H3959 N3946 0.985 . S
C3960 C3961 1.363 . S
C3960 C3966 1.379 . S
C3960 N3968 1.356 . S
C3961 C3960 1.363 . S
C3961 C3967 1.363 . S
C3962 C3963 1.363 . S
C3962 C3967 1.379 . S
C3962 N3969 1.356 . S
C3963 C3962 1.363 . S
C3963 C3966 1.363 . S
N3964 C3966 1.356 . S
N3964 H3976 0.984 . S
N3964 H3977 0.985 . S
N3965 C3967 1.356 . S
N3965 H3970 0.984 . S
N3965 H3971 0.985 . S
C3966 C3960 1.379 . S
C3966 C3963 1.363 . S
C3966 N3964 1.356 . S
C3967 C3961 1.363 . S
C3967 C3962 1.379 . S
C3967 N3965 1.356 . S
N3968 C3960 1.356 . S
N3968 H3974 0.984 . S
N3968 H3975 0.984 . S
N3969 C3962 1.356 . S
N3969 H3972 0.984 . S
N3969 H3973 0.985 . S
H3970 N3965 0.984 . S
H3971 N3965 0.985 . S
H3972 N3969 0.984 . S
H3973 N3969 0.985 . S
H3974 N3968 0.984 . S
H3975 N3968 0.984 . S
H3976 N3964 0.984 . S
H3977 N3964 0.985 . S
C3978 C3979 1.363 . S
C3978 C3984 1.379 . S
C3978 N3986 1.356 . S
C3979 C3978 1.363 . S
C3979 C3985 1.363 . S
C3980 C3981 1.363 . S
C3980 C3985 1.379 . S
C3980 N3987 1.356 . S
C3981 C3980 1.363 . S
C3981 C3984 1.363 . S
N3982 C3984 1.356 . S
N3982 H3994 0.984 . S
N3982 H3995 0.985 . S
N3983 C3985 1.356 . S
N3983 H3988 0.984 . S
N3983 H3989 0.985 . S
C3984 C3978 1.379 . S
C3984 C3981 1.363 . S
C3984 N3982 1.356 . S
C3985 C3979 1.363 . S
C3985 C3980 1.379 . S
C3985 N3983 1.356 . S
N3986 C3978 1.356 . S
N3986 H3992 0.984 . S
N3986 H3993 0.984 . S
N3987 C3980 1.356 . S
N3987 H3990 0.984 . S
N3987 H3991 0.985 . S
H3988 N3983 0.984 . S
H3989 N3983 0.985 . S
H3990 N3987 0.984 . S
H3991 N3987 0.985 . S
H3992 N3986 0.984 . S
H3993 N3986 0.984 . S
H3994 N3982 0.984 . S
H3995 N3982 0.985 . S
C3996 C3997 1.363 . S
C3996 C4002 1.379 . S
C3996 N4004 1.356 . S
C3997 C3996 1.363 . S
C3997 C4003 1.363 . S
C3998 C3999 1.363 . S
C3998 C4003 1.379 . S
C3998 N4005 1.356 1_545 S
C3999 C3998 1.363 . S
C3999 C4002 1.363 . S
N4000 C4002 1.356 . S
N4000 H4012 0.984 . S
N4000 H4013 0.985 . S
N4001 C4003 1.358 . S
N4001 H4006 1.037 . S
N4001 H4007 0.933 1_545 S
C4002 C3996 1.379 . S
C4002 C3999 1.363 . S
C4002 N4000 1.356 . S
C4003 C3997 1.363 . S
C4003 C3998 1.379 . S
C4003 N4001 1.358 . S
N4004 C3996 1.356 . S
N4004 H4010 0.984 . S
N4004 H4011 0.984 . S
N4005 C3998 1.356 1_565 S
N4005 H4008 0.984 . S
N4005 H4009 0.985 . S
H4006 N4001 1.037 . S
H4007 N4001 0.933 1_565 S
H4008 N4005 0.984 . S
H4009 N4005 0.985 . S
H4010 N4004 0.984 . S
H4011 N4004 0.984 . S
H4012 N4000 0.984 . S
H4013 N4000 0.985 . S
C4014 C4015 1.363 . S
C4014 C4020 1.379 . S
C4014 N4022 1.356 . S
C4015 C4014 1.363 . S
C4015 C4021 1.363 . S
C4016 C4017 1.363 . S
C4016 C4021 1.379 . S
C4016 N4023 1.356 1_655 S
C4017 C4016 1.363 . S
C4017 C4020 1.363 . S
N4018 C4020 1.356 . S
N4018 H4030 0.984 . S
N4018 H4031 0.985 . S
N4019 C4021 1.356 . S
N4019 H4024 0.984 . S
N4019 H4025 0.985 1_655 S
C4020 C4014 1.379 . S
C4020 C4017 1.363 . S
C4020 N4018 1.356 . S
C4021 C4015 1.363 . S
C4021 C4016 1.379 . S
C4021 N4019 1.356 . S
N4022 C4014 1.356 . S
N4022 H4028 0.984 . S
N4022 H4029 0.984 . S
N4023 C4016 1.356 1_455 S
N4023 H4026 0.984 . S
N4023 H4027 0.985 . S
H4024 N4019 0.984 . S
H4025 N4019 0.985 1_455 S
H4026 N4023 0.984 . S
H4027 N4023 0.985 . S
H4028 N4022 0.984 . S
H4029 N4022 0.984 . S
H4030 N4018 0.984 . S
H4031 N4018 0.985 . S
C4032 C4033 1.363 . S
C4032 C4038 1.379 . S
C4032 N4040 1.356 . S
C4033 C4032 1.363 . S
C4033 C4039 1.363 . S
C4034 C4035 1.363 . S
C4034 C4039 1.379 . S
C4034 N4041 1.356 . S
C4035 C4034 1.363 . S
C4035 C4038 1.363 . S
N4036 C4038 1.356 . S
N4036 H4048 0.984 . S
N4036 H4049 0.985 . S
N4037 C4039 1.356 . S
N4037 H4042 0.984 . S
N4037 H4043 0.985 . S
C4038 C4032 1.379 . S
C4038 C4035 1.363 . S
C4038 N4036 1.356 . S
C4039 C4033 1.363 . S
C4039 C4034 1.379 . S
C4039 N4037 1.356 . S
N4040 C4032 1.356 . S
N4040 H4046 0.984 . S
N4040 H4047 0.984 . S
N4041 C4034 1.356 . S
N4041 H4044 0.984 . S
N4041 H4045 0.985 . S
H4042 N4037 0.984 . S
H4043 N4037 0.985 . S
H4044 N4041 0.984 . S
H4045 N4041 0.985 . S
H4046 N4040 0.984 . S
H4047 N4040 0.984 . S
H4048 N4036 0.984 . S
H4049 N4036 0.985 . S
C4050 C4051 1.363 . S
C4050 C4056 1.379 . S
C4050 N4058 1.356 . S
C4051 C4050 1.363 . S
C4051 C4057 1.363 . S
C4052 C4053 1.363 . S
C4052 C4057 1.379 . S
C4052 N4059 1.356 . S
C4053 C4052 1.363 . S
C4053 C4056 1.363 . S
N4054 C4056 1.356 . S
N4054 H4066 0.984 . S
N4054 H4067 0.985 . S
N4055 C4057 1.356 . S
N4055 H4060 0.984 . S
N4055 H4061 0.985 . S
C4056 C4050 1.379 . S
C4056 C4053 1.363 . S
C4056 N4054 1.356 . S
C4057 C4051 1.363 . S
C4057 C4052 1.379 . S
C4057 N4055 1.356 . S
N4058 C4050 1.356 . S
N4058 H4064 0.984 . S
N4058 H4065 0.984 . S
N4059 C4052 1.356 . S
N4059 H4062 0.984 . S
N4059 H4063 0.985 . S
H4060 N4055 0.984 . S
H4061 N4055 0.985 . S
H4062 N4059 0.984 . S
H4063 N4059 0.985 . S
H4064 N4058 0.984 . S
H4065 N4058 0.984 . S
H4066 N4054 0.984 . S
H4067 N4054 0.985 . S
C4068 C4069 1.363 . S
C4068 C4074 1.379 . S
C4068 N4076 1.356 . S
C4069 C4068 1.363 . S
C4069 C4075 1.363 . S
C4070 C4071 1.363 . S
C4070 C4075 1.379 . S
C4070 N4077 1.356 . S
C4071 C4070 1.363 . S
C4071 C4074 1.363 . S
N4072 C4074 1.356 . S
N4072 H4084 0.984 . S
N4072 H4085 0.985 . S
N4073 C4075 1.356 . S
N4073 H4078 0.984 . S
N4073 H4079 0.985 . S
C4074 C4068 1.379 . S
C4074 C4071 1.363 . S
C4074 N4072 1.356 . S
C4075 C4069 1.363 . S
C4075 C4070 1.379 . S
C4075 N4073 1.356 . S
N4076 C4068 1.356 . S
N4076 H4082 0.984 . S
N4076 H4083 0.984 . S
N4077 C4070 1.356 . S
N4077 H4080 0.984 . S
N4077 H4081 0.985 . S
H4078 N4073 0.984 . S
H4079 N4073 0.985 . S
H4080 N4077 0.984 . S
H4081 N4077 0.985 . S
H4082 N4076 0.984 . S
H4083 N4076 0.984 . S
H4084 N4072 0.984 . S
H4085 N4072 0.985 . S
C4086 C4087 1.363 . S
C4086 C4092 1.379 . S
C4086 N4094 1.356 . S
C4087 C4086 1.363 . S
C4087 C4093 1.363 . S
C4088 C4089 1.363 . S
C4088 C4093 1.379 . S
C4088 N4095 1.356 . S
C4089 C4088 1.363 . S
C4089 C4092 1.363 . S
N4090 C4092 1.356 . S
N4090 H4102 0.984 . S
N4090 H4103 0.985 . S
N4091 C4093 1.356 . S
N4091 H4096 0.984 . S
N4091 H4097 0.985 . S
C4092 C4086 1.379 . S
C4092 C4089 1.363 . S
C4092 N4090 1.356 . S
C4093 C4087 1.363 . S
C4093 C4088 1.379 . S
C4093 N4091 1.356 . S
N4094 C4086 1.356 . S
N4094 H4100 0.984 . S
N4094 H4101 0.984 . S
N4095 C4088 1.356 . S
N4095 H4098 0.984 . S
N4095 H4099 0.985 . S
H4096 N4091 0.984 . S
H4097 N4091 0.985 . S
H4098 N4095 0.984 . S
H4099 N4095 0.985 . S
H4100 N4094 0.984 . S
H4101 N4094 0.984 . S
H4102 N4090 0.984 . S
H4103 N4090 0.985 . S
C4104 C4105 1.363 . S
C4104 C4110 1.379 . S
C4104 N4112 1.356 . S
C4105 C4104 1.363 . S
C4105 C4111 1.363 . S
C4106 C4107 1.363 . S
C4106 C4111 1.379 . S
C4106 N4113 1.356 . S
C4107 C4106 1.363 . S
C4107 C4110 1.363 . S
N4108 C4110 1.356 . S
N4108 H4120 0.984 . S
N4108 H4121 0.985 . S
N4109 C4111 1.356 . S
N4109 H4114 0.984 . S
N4109 H4115 0.985 . S
C4110 C4104 1.379 . S
C4110 C4107 1.363 . S
C4110 N4108 1.356 . S
C4111 C4105 1.363 . S
C4111 C4106 1.379 . S
C4111 N4109 1.356 . S
N4112 C4104 1.356 . S
N4112 H4118 0.984 . S
N4112 H4119 0.984 . S
N4113 C4106 1.356 . S
N4113 H4116 0.984 . S
N4113 H4117 0.985 . S
H4114 N4109 0.984 . S
H4115 N4109 0.985 . S
H4116 N4113 0.984 . S
H4117 N4113 0.985 . S
H4118 N4112 0.984 . S
H4119 N4112 0.984 . S
H4120 N4108 0.984 . S
H4121 N4108 0.985 . S
C4122 C4123 1.363 . S
C4122 C4128 1.379 . S
C4122 N4130 1.356 . S
C4123 C4122 1.363 . S
C4123 C4129 1.363 . S
C4124 C4125 1.363 . S
C4124 C4129 1.379 . S
C4124 N4131 1.356 . S
C4125 C4124 1.363 . S
C4125 C4128 1.363 . S
N4126 C4128 1.356 . S
N4126 H4138 0.984 . S
N4126 H4139 0.985 . S
N4127 C4129 1.356 . S
N4127 H4132 0.984 . S
N4127 H4133 0.985 . S
C4128 C4122 1.379 . S
C4128 C4125 1.363 . S
C4128 N4126 1.356 . S
C4129 C4123 1.363 . S
C4129 C4124 1.379 . S
C4129 N4127 1.356 . S
N4130 C4122 1.356 . S
N4130 H4136 0.984 . S
N4130 H4137 0.984 . S
N4131 C4124 1.356 . S
N4131 H4134 0.984 . S
N4131 H4135 0.985 . S
H4132 N4127 0.984 . S
H4133 N4127 0.985 . S
H4134 N4131 0.984 . S
H4135 N4131 0.985 . S
H4136 N4130 0.984 . S
H4137 N4130 0.984 . S
H4138 N4126 0.984 . S
H4139 N4126 0.985 . S
C4140 C4141 1.363 . S
C4140 C4146 1.379 . S
C4140 N4148 1.356 . S
C4141 C4140 1.363 . S
C4141 C4147 1.363 . S
C4142 C4143 1.363 . S
C4142 C4147 1.379 . S
C4142 N4149 1.356 . S
C4143 C4142 1.363 . S
C4143 C4146 1.363 . S
N4144 C4146 1.356 . S
N4144 H4156 0.984 . S
N4144 H4157 0.985 . S
N4145 C4147 1.356 . S
N4145 H4150 0.984 . S
N4145 H4151 0.985 . S
C4146 C4140 1.379 . S
C4146 C4143 1.363 . S
C4146 N4144 1.356 . S
C4147 C4141 1.363 . S
C4147 C4142 1.379 . S
C4147 N4145 1.356 . S
N4148 C4140 1.356 . S
N4148 H4154 0.984 . S
N4148 H4155 0.984 . S
N4149 C4142 1.356 . S
N4149 H4152 0.984 . S
N4149 H4153 0.985 . S
H4150 N4145 0.984 . S
H4151 N4145 0.985 . S
H4152 N4149 0.984 . S
H4153 N4149 0.985 . S
H4154 N4148 0.984 . S
H4155 N4148 0.984 . S
H4156 N4144 0.984 . S
H4157 N4144 0.985 . S
C4158 C4159 1.363 . S
C4158 C4164 1.379 . S
C4158 N4166 1.356 . S
C4159 C4158 1.363 . S
C4159 C4165 1.363 . S
C4160 C4161 1.363 . S
C4160 C4165 1.379 . S
C4160 N4167 1.399 . S
C4161 C4160 1.363 . S
C4161 C4164 1.363 . S
N4162 C4164 1.356 . S
N4162 H4174 0.984 . S
N4162 H4175 0.985 . S
N4163 C4165 1.356 . S
N4163 H4168 0.984 . S
N4163 H4169 0.985 . S
C4164 C4158 1.379 . S
C4164 C4161 1.363 . S
C4164 N4162 1.356 . S
C4165 C4159 1.363 . S
C4165 C4160 1.379 . S
C4165 N4163 1.356 . S
N4166 C4158 1.356 . S
N4166 H4172 0.984 . S
N4166 H4173 0.984 . S
N4167 C4160 1.399 . S
N4167 H4170 0.925 1_655 S
N4167 H4171 0.999 . S
H4168 N4163 0.984 . S
H4169 N4163 0.985 . S
H4170 N4167 0.925 1_455 S
H4171 N4167 0.999 . S
H4172 N4166 0.984 . S
H4173 N4166 0.984 . S
H4174 N4162 0.984 . S
H4175 N4162 0.985 . S
C4176 C4177 1.363 . S
C4176 C4182 1.379 . S
C4176 N4184 1.356 . S
C4177 C4176 1.363 . S
C4177 C4183 1.363 . S
C4178 C4179 1.363 . S
C4178 C4183 1.379 . S
C4178 N4185 1.356 . S
C4179 C4178 1.363 . S
C4179 C4182 1.363 . S
N4180 C4182 1.356 . S
N4180 H4192 0.984 . S
N4180 H4193 0.985 . S
N4181 C4183 1.356 . S
N4181 H4186 0.984 . S
N4181 H4187 0.985 . S
C4182 C4176 1.379 . S
C4182 C4179 1.363 . S
C4182 N4180 1.356 . S
C4183 C4177 1.363 . S
C4183 C4178 1.379 . S
C4183 N4181 1.356 . S
N4184 C4176 1.356 . S
N4184 H4190 0.984 . S
N4184 H4191 0.984 . S
N4185 C4178 1.356 . S
N4185 H4188 0.984 . S
N4185 H4189 0.985 . S
H4186 N4181 0.984 . S
H4187 N4181 0.985 . S
H4188 N4185 0.984 . S
H4189 N4185 0.985 . S
H4190 N4184 0.984 . S
H4191 N4184 0.984 . S
H4192 N4180 0.984 . S
H4193 N4180 0.985 . S
C4194 C4195 1.363 . S
C4194 C4200 1.379 . S
C4194 N4202 1.356 . S
C4195 C4194 1.363 . S
C4195 C4201 1.363 . S
C4196 C4197 1.363 . S
C4196 C4201 1.379 . S
C4196 N4203 1.356 . S
C4197 C4196 1.363 . S
C4197 C4200 1.363 . S
N4198 C4200 1.356 1_565 S
N4198 H4210 0.984 . S
N4198 H4211 0.985 . S
N4199 C4201 1.356 . S
N4199 H4204 0.984 . S
N4199 H4205 0.985 . S
C4200 C4194 1.379 . S
C4200 C4197 1.363 . S
C4200 N4198 1.356 1_545 S
C4201 C4195 1.363 . S
C4201 C4196 1.379 . S
C4201 N4199 1.356 . S
N4202 C4194 1.356 . S
N4202 H4208 0.984 . S
N4202 H4209 0.984 . S
N4203 C4196 1.356 . S
N4203 H4206 0.984 . S
N4203 H4207 0.985 . S
H4204 N4199 0.984 . S
H4205 N4199 0.985 . S
H4206 N4203 0.984 . S
H4207 N4203 0.985 . S
H4208 N4202 0.984 . S
H4209 N4202 0.984 . S
H4210 N4198 0.984 . S
H4211 N4198 0.985 . S
C2917 C49 1.321 . S
C2919 C2313 1.268 . S
C2935 C137 1.640 . S
C2937 C2393 1.611 . S
C2955 C2461 1.470 . S
C2953 C205 1.457 . S
C2971 C196 1.816 . S
C2973 C2541 1.881 . S
C2989 C57 1.628 . S
C2991 C2615 1.691 . S
C3007 C145 1.658 . S
C3009 C2683 1.583 . S
C3025 C313 1.380 . S
C3027 C2609 1.341 . S
C3045 C2689 1.551 . S
C3043 C401 1.523 . S
C3063 C2535 1.536 1_565 S
C3061 C489 1.529 . S
C3079 C469 1.934 . S
C3081 C2467 2.009 1_545 S
C3099 C2319 1.755 . S
C3097 C293 1.675 . S
C3115 C381 1.530 . S
C3117 C2387 1.522 . S
C3133 C577 1.520 . S
C3135 C2757 1.382 . S
C3151 C645 1.670 . S
C3153 C2837 1.602 . S
C3171 C2905 1.505 . S
C3169 C733 1.603 . S
C3187 C724 1.904 . S
C3189 C1653 1.869 . S
C3205 C585 1.745 . S
C3207 C1727 1.706 . S
C3223 C636 1.691 . S
C3225 C1795 1.611 . S
C3241 C841 1.227 . S
C3243 C1721 1.184 . S
C3259 C937 1.574 . S
C3261 C1801 1.592 . S
C3279 C1647 1.482 . S
C3277 C1025 1.486 . S
C3297 C2911 1.903 . S
C3295 C988 1.884 . S
C3315 C2763 1.553 . S
C3313 C821 1.546 . S
C3333 C2831 1.509 . S
C3331 C900 1.521 . S
C3349 C1105 1.420 . S
C3351 C1869 1.294 . S
C3367 C1193 1.713 . S
C3369 C1949 1.661 . S
C3385 C1281 1.647 . S
C3387 C2017 1.561 . S
C3403 C1289 1.981 . S
C3405 C2097 1.939 . S
C3423 C2171 1.645 . S
C3421 C1113 1.699 . S
C3441 C2239 1.608 . S
C3439 C1201 1.710 . S
C3459 C2165 1.287 . S
C3457 C1369 1.339 . S
C3477 C2245 1.516 . S
C3475 C1457 1.512 . S
C3493 C1553 1.395 . S
C3495 C2091 1.384 . S
C3513 C2023 1.824 . S
C3511 C1516 1.799 . S
C3529 C1349 1.630 . S
C3531 C1875 1.650 . S
C3549 C1943 1.539 . S
C3547 C1437 1.535 . S
C3567 C1623 2.205 . S
C3565 C29 2.215 . S
C3583 C117 1.557 . S
C3585 C1697 1.553 . S
C3603 C1783 1.841 . S
C3601 C225 1.787 . S
C3621 C1857 1.427 . S
C3619 C233 1.421 . S
C3639 C1919 1.764 . S
C3637 C20 1.768 . S
C3657 C2005 1.722 . S
C3655 C108 1.698 . S
C3673 C321 2.476 1_556 S
C3675 C1993 2.352 . S
C3691 C409 1.890 . S
C3693 C1845 1.754 . S
C3709 C497 2.182 . S
C3711 C1931 2.158 . S
C3727 C460 1.832 . S
C3729 C1709 1.737 . S
C3747 C1771 1.975 . S
C3745 C284 2.108 . S
C3763 C372 2.049 . S
C3765 C1635 1.995 . S
C3783 C2067 2.019 . S
C3781 C557 2.049 . S
C3799 C665 1.627 . S
C3801 C2141 1.610 . S
C3817 C753 1.705 . S
C3819 C2227 1.706 . S
C3837 C2301 1.000 . S
C3835 C761 1.014 . S
C3853 C548 1.578 . S
C3855 C2363 1.570 . S
C3871 C673 1.372 . S
C3873 C2449 1.399 . S
C3889 C849 1.864 . S
C3891 C2437 1.781 1_565 S
C3907 C929 1.382 . S
C3909 C2289 1.320 1_455 S
C3927 C2375 1.908 . S
C3925 C1017 1.964 . S
C3943 C997 1.788 . S
C3945 C2153 1.664 . S
C3961 C812 1.982 . S
C3963 C2215 1.844 . S
C3981 C2079 1.997 . S
C3979 C909 2.064 . S
C3999 C2511 1.729 . S
C3997 C1085 1.756 . S
C4015 C1173 1.158 . S
C4017 C2585 1.154 . S
C4033 C1261 1.606 . S
C4035 C2671 1.627 . S
C4053 C2745 1.340 . S
C4051 C1252 1.373 . S
C4071 C2807 1.673 . S
C4069 C1076 1.691 . S
C4087 C1164 1.735 . S
C4089 C2893 1.744 . S
C4105 C1377 2.339 . S
C4107 C2881 2.194 . S
C4123 C1465 1.939 . S
C4125 C2733 1.798 . S
C4143 C2819 1.968 . S
C4141 C1545 2.050 . S
C4161 C2597 1.162 . S
C4159 C1525 1.212 . S
C4179 C2659 1.769 . S
C4177 C1340 1.893 . S
C4195 C1428 1.547 . S
C4197 C2523 1.544 . S
