# Generated by pormake.
# Topology llk, (3,12)-cn, num edge types: 1
# Building blocks:
#     Node 0, Type 0, BuildingBlock: BETDIP_clean_linker_0, # of connection points: 3
#     Node 1, Type 0, BuildingBlock: BETDIP_clean_linker_0, # of connection points: 3
#     Node 2, Type 0, BuildingBlock: BETDIP_clean_linker_0, # of connection points: 3
#     Node 3, Type 0, BuildingBlock: BETDIP_clean_linker_0, # of connection points: 3
#     Node 4, Type 0, BuildingBlock: BETDIP_clean_linker_0, # of connection points: 3
#     Node 5, Type 0, BuildingBlock: BETDIP_clean_linker_0, # of connection points: 3
#     Node 6, Type 0, BuildingBlock: BETDIP_clean_linker_0, # of connection points: 3
#     Node 7, Type 0, BuildingBlock: BETDIP_clean_linker_0, # of connection points: 3
#     Node 8, Type 0, BuildingBlock: BETDIP_clean_linker_0, # of connection points: 3
#     Node 9, Type 0, BuildingBlock: BETDIP_clean_linker_0, # of connection points: 3
#     Node 10, Type 0, BuildingBlock: BETDIP_clean_linker_0, # of connection points: 3
#     Node 11, Type 0, BuildingBlock: BETDIP_clean_linker_0, # of connection points: 3
#     Node 12, Type 0, BuildingBlock: BETDIP_clean_linker_0, # of connection points: 3
#     Node 13, Type 0, BuildingBlock: BETDIP_clean_linker_0, # of connection points: 3
#     Node 14, Type 0, BuildingBlock: BETDIP_clean_linker_0, # of connection points: 3
#     Node 15, Type 0, BuildingBlock: BETDIP_clean_linker_0, # of connection points: 3
#     Node 16, Type 0, BuildingBlock: BETDIP_clean_linker_0, # of connection points: 3
#     Node 17, Type 0, BuildingBlock: BETDIP_clean_linker_0, # of connection points: 3
#     Node 18, Type 0, BuildingBlock: BETDIP_clean_linker_0, # of connection points: 3
#     Node 19, Type 0, BuildingBlock: BETDIP_clean_linker_0, # of connection points: 3
#     Node 20, Type 0, BuildingBlock: BETDIP_clean_linker_0, # of connection points: 3
#     Node 21, Type 0, BuildingBlock: BETDIP_clean_linker_0, # of connection points: 3
#     Node 22, Type 0, BuildingBlock: BETDIP_clean_linker_0, # of connection points: 3
#     Node 23, Type 0, BuildingBlock: BETDIP_clean_linker_0, # of connection points: 3
#     Node 24, Type 1, BuildingBlock: QEWDON_clean_sbu_0, # of connection points: 12
#     Node 25, Type 1, BuildingBlock: QEWDON_clean_sbu_0, # of connection points: 12
#     Node 26, Type 1, BuildingBlock: QEWDON_clean_sbu_0, # of connection points: 12
#     Node 27, Type 1, BuildingBlock: QEWDON_clean_sbu_0, # of connection points: 12
#     Node 28, Type 1, BuildingBlock: QEWDON_clean_sbu_0, # of connection points: 12
#     Node 29, Type 1, BuildingBlock: QEWDON_clean_sbu_0, # of connection points: 12
#     Edge 30, Type (0, 1), BuildingBlock: OJICUG_clean_linker_0, # of connection points: 2
#     Edge 31, Type (0, 1), BuildingBlock: OJICUG_clean_linker_0, # of connection points: 2
#     Edge 32, Type (0, 1), BuildingBlock: OJICUG_clean_linker_0, # of connection points: 2
#     Edge 33, Type (0, 1), BuildingBlock: OJICUG_clean_linker_0, # of connection points: 2
#     Edge 34, Type (0, 1), BuildingBlock: OJICUG_clean_linker_0, # of connection points: 2
#     Edge 35, Type (0, 1), BuildingBlock: OJICUG_clean_linker_0, # of connection points: 2
#     Edge 36, Type (0, 1), BuildingBlock: OJICUG_clean_linker_0, # of connection points: 2
#     Edge 37, Type (0, 1), BuildingBlock: OJICUG_clean_linker_0, # of connection points: 2
#     Edge 38, Type (0, 1), BuildingBlock: OJICUG_clean_linker_0, # of connection points: 2
#     Edge 39, Type (0, 1), BuildingBlock: OJICUG_clean_linker_0, # of connection points: 2
#     Edge 40, Type (0, 1), BuildingBlock: OJICUG_clean_linker_0, # of connection points: 2
#     Edge 41, Type (0, 1), BuildingBlock: OJICUG_clean_linker_0, # of connection points: 2
#     Edge 42, Type (0, 1), BuildingBlock: OJICUG_clean_linker_0, # of connection points: 2
#     Edge 43, Type (0, 1), BuildingBlock: OJICUG_clean_linker_0, # of connection points: 2
#     Edge 44, Type (0, 1), BuildingBlock: OJICUG_clean_linker_0, # of connection points: 2
#     Edge 45, Type (0, 1), BuildingBlock: OJICUG_clean_linker_0, # of connection points: 2
#     Edge 46, Type (0, 1), BuildingBlock: OJICUG_clean_linker_0, # of connection points: 2
#     Edge 47, Type (0, 1), BuildingBlock: OJICUG_clean_linker_0, # of connection points: 2
#     Edge 48, Type (0, 1), BuildingBlock: OJICUG_clean_linker_0, # of connection points: 2
#     Edge 49, Type (0, 1), BuildingBlock: OJICUG_clean_linker_0, # of connection points: 2
#     Edge 50, Type (0, 1), BuildingBlock: OJICUG_clean_linker_0, # of connection points: 2
#     Edge 51, Type (0, 1), BuildingBlock: OJICUG_clean_linker_0, # of connection points: 2
#     Edge 52, Type (0, 1), BuildingBlock: OJICUG_clean_linker_0, # of connection points: 2
#     Edge 53, Type (0, 1), BuildingBlock: OJICUG_clean_linker_0, # of connection points: 2
#     Edge 54, Type (0, 1), BuildingBlock: OJICUG_clean_linker_0, # of connection points: 2
#     Edge 55, Type (0, 1), BuildingBlock: OJICUG_clean_linker_0, # of connection points: 2
#     Edge 56, Type (0, 1), BuildingBlock: OJICUG_clean_linker_0, # of connection points: 2
#     Edge 57, Type (0, 1), BuildingBlock: OJICUG_clean_linker_0, # of connection points: 2
#     Edge 58, Type (0, 1), BuildingBlock: OJICUG_clean_linker_0, # of connection points: 2
#     Edge 59, Type (0, 1), BuildingBlock: OJICUG_clean_linker_0, # of connection points: 2
#     Edge 60, Type (0, 1), BuildingBlock: OJICUG_clean_linker_0, # of connection points: 2
#     Edge 61, Type (0, 1), BuildingBlock: OJICUG_clean_linker_0, # of connection points: 2
#     Edge 62, Type (0, 1), BuildingBlock: OJICUG_clean_linker_0, # of connection points: 2
#     Edge 63, Type (0, 1), BuildingBlock: OJICUG_clean_linker_0, # of connection points: 2
#     Edge 64, Type (0, 1), BuildingBlock: OJICUG_clean_linker_0, # of connection points: 2
#     Edge 65, Type (0, 1), BuildingBlock: OJICUG_clean_linker_0, # of connection points: 2
#     Edge 66, Type (0, 1), BuildingBlock: OJICUG_clean_linker_0, # of connection points: 2
#     Edge 67, Type (0, 1), BuildingBlock: OJICUG_clean_linker_0, # of connection points: 2
#     Edge 68, Type (0, 1), BuildingBlock: OJICUG_clean_linker_0, # of connection points: 2
#     Edge 69, Type (0, 1), BuildingBlock: OJICUG_clean_linker_0, # of connection points: 2
#     Edge 70, Type (0, 1), BuildingBlock: OJICUG_clean_linker_0, # of connection points: 2
#     Edge 71, Type (0, 1), BuildingBlock: OJICUG_clean_linker_0, # of connection points: 2
#     Edge 72, Type (0, 1), BuildingBlock: OJICUG_clean_linker_0, # of connection points: 2
#     Edge 73, Type (0, 1), BuildingBlock: OJICUG_clean_linker_0, # of connection points: 2
#     Edge 74, Type (0, 1), BuildingBlock: OJICUG_clean_linker_0, # of connection points: 2
#     Edge 75, Type (0, 1), BuildingBlock: OJICUG_clean_linker_0, # of connection points: 2
#     Edge 76, Type (0, 1), BuildingBlock: OJICUG_clean_linker_0, # of connection points: 2
#     Edge 77, Type (0, 1), BuildingBlock: OJICUG_clean_linker_0, # of connection points: 2
#     Edge 78, Type (0, 1), BuildingBlock: OJICUG_clean_linker_0, # of connection points: 2
#     Edge 79, Type (0, 1), BuildingBlock: OJICUG_clean_linker_0, # of connection points: 2
#     Edge 80, Type (0, 1), BuildingBlock: OJICUG_clean_linker_0, # of connection points: 2
#     Edge 81, Type (0, 1), BuildingBlock: OJICUG_clean_linker_0, # of connection points: 2
#     Edge 82, Type (0, 1), BuildingBlock: OJICUG_clean_linker_0, # of connection points: 2
#     Edge 83, Type (0, 1), BuildingBlock: OJICUG_clean_linker_0, # of connection points: 2
#     Edge 84, Type (0, 1), BuildingBlock: OJICUG_clean_linker_0, # of connection points: 2
#     Edge 85, Type (0, 1), BuildingBlock: OJICUG_clean_linker_0, # of connection points: 2
#     Edge 86, Type (0, 1), BuildingBlock: OJICUG_clean_linker_0, # of connection points: 2
#     Edge 87, Type (0, 1), BuildingBlock: OJICUG_clean_linker_0, # of connection points: 2
#     Edge 88, Type (0, 1), BuildingBlock: OJICUG_clean_linker_0, # of connection points: 2
#     Edge 89, Type (0, 1), BuildingBlock: OJICUG_clean_linker_0, # of connection points: 2
#     Edge 90, Type (0, 1), BuildingBlock: OJICUG_clean_linker_0, # of connection points: 2
#     Edge 91, Type (0, 1), BuildingBlock: OJICUG_clean_linker_0, # of connection points: 2
#     Edge 92, Type (0, 1), BuildingBlock: OJICUG_clean_linker_0, # of connection points: 2
#     Edge 93, Type (0, 1), BuildingBlock: OJICUG_clean_linker_0, # of connection points: 2
#     Edge 94, Type (0, 1), BuildingBlock: OJICUG_clean_linker_0, # of connection points: 2
#     Edge 95, Type (0, 1), BuildingBlock: OJICUG_clean_linker_0, # of connection points: 2
#     Edge 96, Type (0, 1), BuildingBlock: OJICUG_clean_linker_0, # of connection points: 2
#     Edge 97, Type (0, 1), BuildingBlock: OJICUG_clean_linker_0, # of connection points: 2
#     Edge 98, Type (0, 1), BuildingBlock: OJICUG_clean_linker_0, # of connection points: 2
#     Edge 99, Type (0, 1), BuildingBlock: OJICUG_clean_linker_0, # of connection points: 2
#     Edge 100, Type (0, 1), BuildingBlock: OJICUG_clean_linker_0, # of connection points: 2
#     Edge 101, Type (0, 1), BuildingBlock: OJICUG_clean_linker_0, # of connection points: 2
# Relax obj value: 0.102
# Max RMSD: 0.183
# Mean RMSD: 0.146
data_MOF--net-llk--node1-QEWDON_clean_sbu_0--node2-BETDIP_clean_linker_0--edge1-OJICUG_clean_linker_0
_symmetry_space_group_name_H-M    P1
_symmetry_Int_Tables_number       1
_symmetry_cell_setting            triclinic
loop_
_symmetry_equiv_pos_as_xyz
'x, y, z'
_cell_length_a     35.060217
_cell_length_b     36.241096
_cell_length_c     36.186916
_cell_angle_alpha  90.0652
_cell_angle_beta   89.886557
_cell_angle_gamma 89.595512
loop_
_atom_site_label
_atom_site_type_symbol
_atom_site_fract_x
_atom_site_fract_y
_atom_site_fract_z
_atom_type_partial_charge
H0 H 0.05209 0.26172 0.22371 0.0
H1 H 0.05167 0.27496 0.34213 0.0
H2 H 0.0453 0.37016 0.27186 0.0
H3 H 0.09899 0.2165 0.32694 0.0
C4 C 0.07129 0.20669 0.31795 0.0
C5 C 0.05174 0.27942 0.24786 0.0
C6 C 0.04925 0.31799 0.24364 0.0
C7 C 0.05324 0.26372 0.28346 0.0
C8 C 0.05182 0.28686 0.31467 0.0
C9 C 0.04902 0.32523 0.31065 0.0
C10 C 0.04805 0.3405 0.27512 0.0
N11 N 0.05294 0.22472 0.28781 0.0
H12 H 0.80638 0.06822 0.24242 0.0
H13 H 0.69047 0.06596 0.20467 0.0
H14 H 0.71413 0.07725 0.32048 0.0
H15 H 0.76227 0.00044 0.18788 0.0
C16 C 0.75472 0.02363 0.17024 0.0
C17 C 0.77621 0.07161 0.24825 0.0
C18 C 0.76338 0.0743 0.28497 0.0
C19 C 0.75 0.06923 0.21928 0.0
C20 C 0.71077 0.07015 0.22682 0.0
C21 C 0.69784 0.07408 0.26315 0.0
C22 C 0.72422 0.07695 0.2921 0.0
N23 N 0.76283 0.05943 0.18358 0.0
H24 H 0.04163 0.81591 0.2581 0.0
H25 H 0.06108 0.70099 0.27971 0.0
H26 H 0.03479 0.77427 0.36944 0.0
H27 H 0.11232 0.71878 0.22442 0.0
C28 C 0.08404 0.7228 0.21278 0.0
C29 C 0.0447 0.79366 0.27784 0.0
C30 C 0.03671 0.79976 0.3156 0.0
C31 C 0.05539 0.75835 0.26514 0.0
C32 C 0.0563 0.72869 0.29007 0.0
C33 C 0.04743 0.73407 0.32749 0.0
C34 C 0.03992 0.76994 0.34022 0.0
N35 N 0.06068 0.75199 0.22668 0.0
H36 H 0.19083 0.99925 0.23023 0.0
H37 H 0.30133 0.00717 0.28186 0.0
H38 H 0.20272 0.98751 0.34817 0.0
H39 H 0.30461 0.05217 0.23636 0.0
C40 C 0.29734 0.034 0.21353 0.0
C41 C 0.20876 0.99735 0.25451 0.0
C42 C 0.19243 0.99119 0.28941 0.0
C43 C 0.24822 0.00316 0.2515 0.0
C44 C 0.27087 0.00265 0.28357 0.0
C45 C 0.25439 0.99713 0.31826 0.0
C46 C 0.21554 0.99043 0.321 0.0
N47 N 0.26474 0.01111 0.21657 0.0
H48 H 0.99185 0.75698 0.79911 0.0
H49 H 0.97275 0.73142 0.6844 0.0
H50 H 0.97439 0.64463 0.76454 0.0
H51 H 0.02804 0.76913 0.68502 0.0
C52 C 0.01331 0.79218 0.69821 0.0
C53 C 0.98496 0.73718 0.77773 0.0
C54 C 0.98248 0.69941 0.78632 0.0
C55 C 0.98197 0.74877 0.74074 0.0
C56 C 0.97418 0.72269 0.713 0.0
C57 C 0.97247 0.68508 0.72125 0.0
C58 C 0.97542 0.67384 0.75808 0.0
N59 N 0.9915 0.78551 0.73074 0.0
H60 H 0.22112 0.97815 0.77179 0.0
H61 H 0.34029 0.96892 0.79842 0.0
H62 H 0.30505 0.03008 0.70321 0.0
H63 H 0.28315 0.9098 0.86099 0.0
C64 C 0.29127 0.93638 0.84973 0.0
C65 C 0.25049 0.98584 0.76666 0.0
C66 C 0.25981 0.00553 0.73453 0.0
C67 C 0.27895 0.97386 0.79109 0.0
C68 C 0.31741 0.98101 0.78249 0.0
C69 C 0.32671 0.00312 0.75204 0.0
C70 C 0.29767 0.01563 0.72844 0.0
N71 N 0.26765 0.95164 0.82159 0.0
H72 H -0.00456 0.22608 0.75597 0.0
H73 H 0.00369 0.3432 0.7402 0.0
H74 H 0.99198 0.27195 0.6462 0.0
H75 H 0.05917 0.31804 0.78623 0.0
C76 C 0.03402 0.31464 0.80353 0.0
C77 C -0.00555 0.24978 0.73776 0.0
C78 C 0.99191 0.24474 0.6992 0.0
C79 C -0.00131 0.28533 0.75257 0.0
C80 C -0.00071 0.31588 0.72882 0.0
C81 C -0.00319 0.31123 0.69048 0.0
C82 C -0.00767 0.2757 0.67594 0.0
N83 N 0.0051 0.29032 0.791 0.0
H84 H 0.7555 0.06451 0.83661 0.0
H85 H 0.79787 0.06463 0.72521 0.0
H86 H 0.67718 0.06472 0.74476 0.0
H87 H 0.8401 0.00996 0.80112 0.0
C88 C 0.84428 0.03646 0.78775 0.0
C89 C 0.74982 0.06576 0.80721 0.0
C90 C 0.71208 0.06422 0.79397 0.0
C91 C 0.78076 0.06582 0.78262 0.0
C92 C 0.77417 0.06515 0.74439 0.0
C93 C 0.73686 0.06567 0.73078 0.0
C94 C 0.70599 0.0654 0.75557 0.0
N95 N 0.81847 0.06545 0.79665 0.0
H96 H 0.17628 0.26749 0.99148 0.0
H97 H 0.2964 0.25736 0.01198 0.0
H98 H 0.2396 0.36039 0.03259 0.0
H99 H 0.25819 0.224 0.92955 0.0
C100 C 0.26239 0.21266 0.95703 0.0
C101 C 0.20249 0.2793 0.00182 0.0
C102 C 0.20343 0.31647 0.01308 0.0
C103 C 0.23604 0.25812 0.00099 0.0
C104 C 0.27037 0.27353 0.01303 0.0
C105 C 0.27169 0.31014 0.02522 0.0
C106 C 0.23805 0.33133 0.02563 0.0
N107 N 0.23573 0.22244 0.98502 0.0
H108 H 0.15159 0.77737 0.02949 0.0
H109 H 0.27399 0.7729 0.03366 0.0
H110 H 0.2097 0.67327 0.04474 0.0
H111 H 0.22958 0.83701 0.08124 0.0
C112 C 0.23456 0.84145 0.05192 0.0
C113 C 0.17762 0.76164 0.0336 0.0
C114 C 0.1761 0.72312 0.03934 0.0
C115 C 0.213 0.77976 0.03296 0.0
C116 C 0.24675 0.75913 0.03609 0.0
C117 C 0.24557 0.72072 0.04001 0.0
C118 C 0.21035 0.70315 0.04302 0.0
N119 N 0.21526 0.8183 0.02648 0.0
H120 H 0.82973 0.20829 0.97476 0.0
H121 H 0.8204 0.32688 0.98302 0.0
H122 H 0.72274 0.25948 0.00395 0.0
H123 H 0.87271 0.30375 0.92041 0.0
C124 C 0.88381 0.30053 0.94826 0.0
C125 C 0.813 0.23289 0.98054 0.0
C126 C 0.7741 0.2299 0.98939 0.0
C127 C 0.83004 0.26785 0.97817 0.0
C128 C 0.80783 0.29975 0.98486 0.0
C129 C 0.76941 0.29671 0.99492 0.0
C130 C 0.75282 0.26179 0.99725 0.0
N131 N 0.86944 0.27063 0.96931 0.0
H132 H 0.78582 0.7994 0.94344 0.0
H133 H 0.78043 0.68204 0.96169 0.0
H134 H 0.68637 0.75169 0.99354 0.0
H135 H 0.86073 0.76443 0.97689 0.0
C136 C 0.85648 0.73835 0.96267 0.0
C137 C 0.77065 0.7755 0.95358 0.0
C138 C 0.73409 0.77953 0.96907 0.0
C139 C 0.78767 0.74027 0.9517 0.0
C140 C 0.76764 0.70926 0.96404 0.0
C141 C 0.73129 0.71347 0.9796 0.0
C142 C 0.71502 0.74859 0.98243 0.0
N143 N 0.82522 0.73567 0.93812 0.0
H144 H 0.55608 0.76799 0.70556 0.0
H145 H 0.54918 0.7691 0.82436 0.0
H146 H 0.54242 0.87086 0.76409 0.0
H147 H 0.60791 0.71348 0.79576 0.0
C148 C 0.578 0.70625 0.79325 0.0
C149 C 0.55339 0.78317 0.73126 0.0
C150 C 0.5497 0.82192 0.73078 0.0
C151 C 0.55368 0.76404 0.76511 0.0
C152 C 0.54983 0.78379 0.7983 0.0
C153 C 0.54561 0.82223 0.7981 0.0
C154 C 0.54587 0.84109 0.76433 0.0
N155 N 0.55622 0.72489 0.76581 0.0
H156 H 0.35806 0.53541 0.76058 0.0
H157 H 0.23981 0.55643 0.73592 0.0
H158 H 0.27641 0.54939 0.84876 0.0
H159 H 0.29765 0.60141 0.68553 0.0
C160 C 0.29218 0.57232 0.68072 0.0
C161 C 0.32919 0.54086 0.76995 0.0
C162 C 0.32104 0.54265 0.80805 0.0
C163 C 0.30023 0.54729 0.74386 0.0
C164 C 0.26257 0.55324 0.75591 0.0
C165 C 0.25394 0.55389 0.79366 0.0
C166 C 0.28333 0.5495 0.81953 0.0
N167 N 0.30876 0.54641 0.7055 0.0
H168 H 0.47427 0.29419 0.74502 0.0
H169 H 0.45404 0.17899 0.76541 0.0
H170 H 0.47948 0.25163 0.85586 0.0
H171 H 0.51207 0.2505 0.6936 0.0
C172 C 0.4904 0.22987 0.68825 0.0
C173 C 0.47106 0.27152 0.76423 0.0
C174 C 0.47587 0.2774 0.80256 0.0
C175 C 0.46235 0.23576 0.75106 0.0
C176 C 0.45934 0.20651 0.77594 0.0
C177 C 0.46624 0.21178 0.81363 0.0
C178 C 0.47329 0.24742 0.82679 0.0
N179 N 0.459 0.22734 0.71288 0.0
H180 H 0.66283 0.5207 0.75987 0.0
H181 H 0.78106 0.53661 0.78747 0.0
H182 H 0.70484 0.49314 0.8685 0.0
H183 H 0.75678 0.59651 0.74082 0.0
C184 C 0.75879 0.57034 0.72625 0.0
C185 C 0.68614 0.5181 0.77932 0.0
C186 C 0.67931 0.50458 0.8153 0.0
C187 C 0.72296 0.52972 0.76911 0.0
C188 C 0.75261 0.52774 0.79495 0.0
C189 C 0.74604 0.51418 0.83045 0.0
C190 C 0.7098 0.50205 0.84029 0.0
N191 N 0.73026 0.54334 0.73299 0.0
H192 H 0.4703 0.26364 0.30549 0.0
H193 H 0.49156 0.25105 0.18931 0.0
H194 H 0.51095 0.1594 0.26246 0.0
H195 H 0.5213 0.32433 0.2573 0.0
C196 C 0.4973 0.32665 0.23843 0.0
C197 C 0.47955 0.24656 0.28253 0.0
C198 C 0.49144 0.2097 0.28865 0.0
C199 C 0.48007 0.2614 0.24656 0.0
C200 C 0.49135 0.23926 0.21684 0.0
C201 C 0.50253 0.20245 0.22228 0.0
C202 C 0.50307 0.18808 0.25827 0.0
N203 N 0.46933 0.29854 0.23941 0.0
H204 H 0.66566 0.48282 0.26408 0.0
H205 H 0.78642 0.49712 0.27589 0.0
H206 H 0.73995 0.47398 0.16902 0.0
H207 H 0.73125 0.4455 0.33857 0.0
C208 C 0.73797 0.47473 0.33933 0.0
C209 C 0.69378 0.4829 0.25166 0.0
C210 C 0.69844 0.47617 0.21339 0.0
C211 C 0.72557 0.48983 0.2742 0.0
C212 C 0.7621 0.49071 0.25864 0.0
C213 C 0.7672 0.48461 0.22082 0.0
C214 C 0.73558 0.47689 0.19853 0.0
N215 N 0.72095 0.49783 0.31229 0.0
H216 H 0.52956 0.7178 0.26546 0.0
H217 H 0.54577 0.83499 0.25756 0.0
H218 H 0.54863 0.768 0.15952 0.0
H219 H 0.58497 0.80514 0.32283 0.0
C220 C 0.55431 0.80414 0.32722 0.0
C221 C 0.53611 0.74189 0.24899 0.0
C222 C 0.54126 0.73847 0.2105 0.0
C223 C 0.53933 0.77656 0.2662 0.0
C224 C 0.54562 0.80804 0.24454 0.0
C225 C 0.54833 0.80529 0.20597 0.0
C226 C 0.5477 0.77028 0.1894 0.0
N227 N 0.53206 0.78049 0.30464 0.0
H228 H 0.28575 0.60551 0.28388 0.0
H229 H 0.30981 0.60337 0.16702 0.0
H230 H 0.20994 0.55046 0.20902 0.0
H231 H 0.39262 0.61248 0.25655 0.0
C232 C 0.37401 0.60825 0.23302 0.0
C233 C 0.27848 0.59676 0.25614 0.0
C234 C 0.24484 0.5768 0.24996 0.0
C235 C 0.30317 0.60493 0.22658 0.0
C236 C 0.29287 0.59499 0.19041 0.0
C237 C 0.25967 0.57472 0.18433 0.0
C238 C 0.23616 0.56538 0.21411 0.0
N239 N 0.3371 0.62483 0.23371 0.0
H240 H 0.72277 0.78301 0.46712 0.0
H241 H 0.84455 0.79447 0.47824 0.0
H242 H 0.7716 0.88953 0.4886 0.0
H243 H 0.83384 0.74415 0.42549 0.0
C244 C 0.82085 0.72946 0.44841 0.0
C245 C 0.74749 0.80021 0.47164 0.0
C246 C 0.74279 0.83834 0.47788 0.0
C247 C 0.78425 0.78426 0.47122 0.0
C248 C 0.81623 0.80662 0.47758 0.0
C249 C 0.81172 0.84457 0.48375 0.0
C250 C 0.77506 0.86013 0.48379 0.0
N251 N 0.78872 0.74548 0.46664 0.0
H252 H 0.69488 0.25389 0.49721 0.0
H253 H 0.81644 0.26865 0.49726 0.0
H254 H 0.76979 0.16057 0.48161 0.0
H255 H 0.76786 0.29771 0.56351 0.0
C256 C 0.76746 0.31606 0.53973 0.0
C257 C 0.72334 0.24246 0.49403 0.0
C258 C 0.72863 0.20444 0.48824 0.0
C259 C 0.75506 0.26554 0.49712 0.0
C260 C 0.79202 0.25078 0.4939 0.0
C261 C 0.79752 0.213 0.48769 0.0
C262 C 0.76569 0.19012 0.48461 0.0
N263 N 0.75024 0.30305 0.50689 0.0
H264 H 0.25361 0.71937 0.53704 0.0
H265 H 0.2328 0.83622 0.53547 0.0
H266 H 0.13846 0.76148 0.54203 0.0
H267 H 0.28419 0.81521 0.48171 0.0
C268 C 0.30107 0.81076 0.50652 0.0
C269 C 0.2338 0.74238 0.53888 0.0
C270 C 0.19416 0.73594 0.54038 0.0
C271 C 0.24772 0.77863 0.53729 0.0
C272 C 0.22195 0.8084 0.53786 0.0
C273 C 0.1825 0.8025 0.53975 0.0
C274 C 0.16895 0.76622 0.54174 0.0
N275 N 0.28744 0.78533 0.53336 0.0
H276 H 0.27007 0.29779 0.48877 0.0
H277 H 0.24147 0.1853 0.51103 0.0
H278 H 0.15843 0.27085 0.5308 0.0
H279 H 0.33242 0.25426 0.52524 0.0
C280 C 0.32988 0.23157 0.50572 0.0
C281 C 0.24995 0.27789 0.49945 0.0
C282 C 0.21315 0.28929 0.51073 0.0
C283 C 0.26014 0.24036 0.50043 0.0
C284 C 0.23383 0.21432 0.51252 0.0
C285 C 0.19715 0.22507 0.52377 0.0
C286 C 0.18729 0.26267 0.52353 0.0
N287 N 0.29534 0.2275 0.48604 0.0
Zn288 Zn 0.93299 0.9863 0.42453 0.0
Zn289 Zn 0.93043 0.07219 0.45123 0.0
O290 O 0.96206 0.02549 0.4514 0.0
H291 H 0.98273 0.01994 0.46802 0.0
C292 C 0.92296 0.94986 0.53054 0.0
O293 O 0.92541 0.98168 0.51342 0.0
Zn294 Zn 0.08777 0.06946 0.58299 0.0
Zn295 Zn 0.07881 0.9845 0.58404 0.0
O296 O 0.04754 0.0308 0.59086 0.0
H297 H 0.02647 0.03216 0.60806 0.0
Zn298 Zn 0.96106 0.99327 0.58645 0.0
O299 O 0.9655 0.03778 0.55306 0.0
Zn300 Zn 0.96037 0.08196 0.58507 0.0
H301 H 0.97922 0.03775 0.52995 0.0
Zn302 Zn 0.04402 0.97511 0.45623 0.0
O303 O 0.05147 0.02152 0.48637 0.0
H304 H 0.04415 0.02423 0.51197 0.0
Zn305 Zn 0.0595 0.06133 0.44926 0.0
C306 C 0.09033 0.92975 0.50465 0.0
O307 O 0.10238 0.9626 0.51437 0.0
O308 O 0.88754 0.00843 0.39773 0.0
O309 O 0.87936 0.06333 0.4246 0.0
O310 O 0.12997 0.9916 0.60963 0.0
O311 O 0.13693 0.05246 0.60816 0.0
O312 O 0.94045 0.00749 0.638 0.0
O313 O 0.93602 0.06877 0.63457 0.0
C314 C -0.00744 0.10727 0.41711 0.0
O315 O 0.06089 0.98142 0.40201 0.0
O316 O 0.07932 0.04012 0.40109 0.0
O317 O 0.05416 0.93539 0.59952 0.0
C318 C 0.86895 0.03851 0.40162 0.0
O319 O 0.95902 0.93917 0.40268 0.0
C320 C 0.03471 0.12003 0.61156 0.0
O321 O 0.93726 0.94671 0.56264 0.0
C322 C 0.14854 0.02046 0.61799 0.0
O323 O 0.06413 0.92726 0.48057 0.0
C324 C 0.92068 0.11874 0.52394 0.0
O325 O 0.95655 0.10958 0.41894 0.0
O326 O 0.00861 0.0837 0.43808 0.0
C327 C 0.93106 0.03854 0.65209 0.0
O328 O 0.07055 0.11551 0.60946 0.0
O329 O 0.01403 0.0983 0.59293 0.0
C330 C 0.10064 0.10214 0.50596 0.0
O331 O 0.92957 0.1202 0.55803 0.0
O332 O 0.93116 0.09074 0.50496 0.0
C333 C 0.07562 0.00879 0.38529 0.0
O334 O 0.09316 0.09998 0.47164 0.0
O335 O 0.0899 0.07651 0.52745 0.0
C336 C 0.03554 0.93382 0.62966 0.0
O337 O 0.02943 0.9643 0.64852 0.0
C338 C 0.98001 0.93925 0.37394 0.0
O339 O 0.98724 0.97069 0.3574 0.0
Zn340 Zn 0.44466 0.08132 0.03884 0.0
Zn341 Zn 0.45374 0.0733 0.95217 0.0
O342 O 0.45869 0.04446 -0.001 0.0
H343 H 0.47583 0.02382 0.00274 0.0
C344 C 0.54808 0.11957 0.0929 0.0
O345 O 0.52905 0.1237 0.06192 0.0
Zn346 Zn 0.57244 0.95324 0.94154 0.0
Zn347 Zn 0.58285 0.95216 0.02808 0.0
O348 O 0.56987 0.9863 0.98577 0.0
H349 H 0.5518 0.00641 0.98794 0.0
Zn350 Zn 0.60034 0.08327 0.042 0.0
O351 O 0.56249 0.07904 0.00012 0.0
Zn352 Zn 0.5924 0.08269 0.95313 0.0
H353 H 0.53627 0.07158 0.00301 0.0
Zn354 Zn 0.4466 0.94949 0.05635 0.0
O355 O 0.47707 0.94694 0.00925 0.0
H356 H 0.50332 0.95442 0.00681 0.0
Zn357 Zn 0.43993 0.94182 0.96837 0.0
C358 C 0.50741 0.91424 0.0991 0.0
O359 O 0.52462 0.91515 0.06685 0.0
O360 O 0.40836 0.12158 0.01994 0.0
O361 O 0.41816 0.11722 0.95953 0.0
O362 O 0.61662 0.90935 0.01093 0.0
O363 O 0.61038 0.91139 0.94996 0.0
O364 O 0.65007 0.10746 0.02478 0.0
O365 O 0.64376 0.10862 0.9636 0.0
C366 C 0.41803 0.00887 0.92088 0.0
O367 O 0.39125 0.93199 0.04844 0.0
O368 O 0.38778 0.92306 0.98763 0.0
O369 O 0.60808 0.97518 0.07348 0.0
C370 C 0.40124 0.13196 0.98712 0.0
O371 O 0.42482 0.06082 0.08789 0.0
C372 C 0.60319 0.01537 0.90219 0.0
O373 O 0.57958 0.10203 0.09234 0.0
C374 C 0.62564 0.89776 0.97889 0.0
O375 O 0.47419 0.92822 0.10225 0.0
C376 C 0.52457 0.10753 0.91582 0.0
O377 O 0.42447 0.04281 0.91491 0.0
O378 O 0.437 0.99283 0.94616 0.0
C379 C 0.66263 0.1161 0.99291 0.0
O380 O 0.59374 0.98181 0.89803 0.0
O381 O 0.59491 0.03096 0.93271 0.0
C382 C 0.49861 0.9103 0.92213 0.0
O383 O 0.56069 0.11096 0.91644 0.0
O384 O 0.50846 0.08664 0.9392 0.0
C385 C 0.3728 0.92166 0.01993 0.0
O386 O 0.46374 0.90679 0.93114 0.0
O387 O 0.51781 0.93558 0.93762 0.0
C388 C 0.63266 0.99999 0.06738 0.0
O389 O 0.63647 0.01301 0.03371 0.0
C390 C 0.39568 0.04025 0.08648 0.0
O391 O 0.38284 0.02974 0.05407 0.0
Zn392 Zn 0.94668 0.47803 0.95118 0.0
Zn393 Zn 0.93618 0.56614 0.96124 0.0
O394 O 0.97582 0.52596 0.95876 0.0
H395 H 0.96526 0.50168 0.95531 0.0
C396 C 0.93073 0.43344 0.0234 0.0
O397 O 0.90974 0.46319 0.01838 0.0
Zn398 Zn 0.07273 0.55823 0.0597 0.0
Zn399 Zn 0.09546 0.47043 0.07228 0.0
O400 O 0.05272 0.50583 0.05734 0.0
H401 H 0.03378 0.49709 0.0402 0.0
Zn402 Zn 0.96173 0.48113 0.08107 0.0
O403 O 0.97509 0.5326 0.06125 0.0
Zn404 Zn 0.94993 0.56902 0.09533 0.0
H405 H 0.98459 0.53834 0.03687 0.0
Zn406 Zn 0.07218 0.48609 0.91776 0.0
O407 O 0.05788 0.52529 0.95544 0.0
H408 H 0.04724 0.52079 0.97961 0.0
Zn409 Zn 0.05541 0.57179 0.92608 0.0
C410 C 0.09984 0.43243 0.97206 0.0
O411 O 0.09487 0.46089 0.99409 0.0
O412 O 0.893 0.48803 0.93105 0.0
O413 O 0.88734 0.54862 0.9387 0.0
O414 O 0.14622 0.49712 0.0806 0.0
O415 O 0.12877 0.55594 0.07415 0.0
O416 O 0.92095 0.48327 0.12169 0.0
O417 O 0.91249 0.54364 0.13009 0.0
C418 C 0.98239 0.60955 0.91346 0.0
O419 O 0.10434 0.50833 0.87566 0.0
O420 O 0.09368 0.56853 0.88358 0.0
O421 O 0.08549 0.42389 0.10553 0.0
C422 C 0.87404 0.51785 0.92798 0.0
O423 O 0.97252 0.43146 0.92812 0.0
C424 C 0.02294 0.60573 0.12172 0.0
O425 O 0.95703 0.43416 0.04751 0.0
C426 C 0.15412 0.53139 0.08087 0.0
O427 O 0.09123 0.43563 0.9381 0.0
C428 C 0.9182 0.6074 0.03178 0.0
O429 O 0.95166 0.61069 0.93194 0.0
O430 O 0.00055 0.57907 0.91242 0.0
C431 C 0.90419 0.51021 0.13762 0.0
O432 O 0.04354 0.58837 0.0983 0.0
O433 O 0.98747 0.59896 0.12468 0.0
C434 C 0.07398 0.61309 0.99275 0.0
O435 O 0.92168 0.60833 0.06665 0.0
O436 O 0.92955 0.57869 0.01476 0.0
C437 C 0.11044 0.54185 0.8669 0.0
O438 O 0.06959 0.61462 0.95793 0.0
O439 O 0.06803 0.58232 0.0089 0.0
C440 C 0.05306 0.41541 0.11871 0.0
O441 O 0.02333 0.43609 0.11055 0.0
C442 C -0.00453 0.43486 0.90119 0.0
O443 O 0.00454 0.4681 0.8899 0.0
Zn444 Zn 0.45123 0.44936 0.9831 0.0
Zn445 Zn 0.45601 0.455 0.07277 0.0
O446 O 0.46425 0.48362 0.02553 0.0
H447 H 0.46663 0.5099 0.02218 0.0
C448 C 0.51965 0.39185 0.90271 0.0
O449 O 0.4948 0.41504 0.91714 0.0
Zn450 Zn 0.56183 0.56988 0.0634 0.0
Zn451 Zn 0.54791 0.56645 0.97625 0.0
O452 O 0.5368 0.53858 0.0241 0.0
H453 H 0.53375 0.51217 0.02538 0.0
Zn454 Zn 0.57509 0.41777 0.96329 0.0
O455 O 0.54433 0.42752 0.01078 0.0
Zn456 Zn 0.58202 0.43277 0.05298 0.0
H457 H 0.51698 0.42532 0.01298 0.0
Zn458 Zn 0.44968 0.61013 0.97241 0.0
O459 O 0.48184 0.59595 0.0174 0.0
H460 H 0.50776 0.60447 0.0198 0.0
Zn461 Zn 0.44572 0.59202 0.06054 0.0
C462 C 0.50922 0.63923 0.92228 0.0
O463 O 0.52896 0.63853 0.95307 0.0
O464 O 0.41869 0.40655 0.00238 0.0
O465 O 0.41644 0.41541 0.06341 0.0
O466 O 0.59537 0.59868 0.98131 0.0
O467 O 0.60365 0.60145 0.04209 0.0
O468 O 0.63079 0.40409 0.97614 0.0
O469 O 0.63344 0.41093 0.0374 0.0
C470 C 0.43322 0.52423 0.10931 0.0
O471 O 0.39823 0.63315 0.98778 0.0
O472 O 0.39501 0.61561 0.04666 0.0
O473 O 0.54749 0.54252 0.92407 0.0
C474 C 0.40609 0.39815 0.03434 0.0
O475 O 0.43193 0.47168 0.9329 0.0
C476 C 0.59329 0.50325 0.09819 0.0
O477 O 0.55261 0.38886 0.91727 0.0
C478 C 0.61392 0.60965 0.00934 0.0
O479 O 0.47479 0.62845 0.92291 0.0
C480 C 0.52801 0.41148 0.10741 0.0
O481 O 0.43729 0.48949 0.11335 0.0
O482 O 0.44161 0.53863 0.07818 0.0
C483 C 0.64881 0.40167 0.00664 0.0
O484 O 0.58663 0.53763 0.10071 0.0
O485 O 0.58462 0.48652 0.06832 0.0
C486 C 0.50143 0.62229 0.11048 0.0
O487 O 0.56259 0.40659 0.09791 0.0
O488 O 0.50678 0.4308 0.08622 0.0
C489 C 0.38069 0.63183 0.01864 0.0
O490 O 0.4663 0.62221 0.1022 0.0
O491 O 0.52448 0.602 0.09219 0.0
C492 C 0.56266 0.51095 0.91936 0.0
O493 O 0.5709 0.49115 0.94871 0.0
C494 C 0.4188 0.5044 0.93055 0.0
O495 O 0.41936 0.52561 0.96002 0.0
Zn496 Zn 0.94698 0.47653 0.45455 0.0
Zn497 Zn 0.93966 0.56352 0.44294 0.0
O498 O 0.97742 0.52353 0.45322 0.0
H499 H 0.00093 0.52685 0.46667 0.0
C500 C 0.87573 0.43478 0.54185 0.0
O501 O 0.86876 0.46516 0.52319 0.0
Zn502 Zn 0.08522 0.56949 0.55851 0.0
Zn503 Zn 0.09895 0.48283 0.56788 0.0
O504 O 0.05997 0.52116 0.55316 0.0
H505 H 0.03526 0.51675 0.54229 0.0
Zn506 Zn 0.92621 0.48345 0.58275 0.0
O507 O 0.93509 0.52225 0.54377 0.0
Zn508 Zn 0.93905 0.56906 0.57287 0.0
H509 H 0.94615 0.51741 0.51979 0.0
Zn510 Zn 0.11254 0.48595 0.42284 0.0
O511 O 0.08819 0.52449 0.45652 0.0
H512 H 0.07503 0.51908 0.47932 0.0
Zn513 Zn 0.08234 0.57083 0.42636 0.0
C514 C 0.14082 0.42892 0.47709 0.0
O515 O 0.12032 0.44694 0.50169 0.0
O516 O 0.89276 0.48404 0.434 0.0
O517 O 0.8906 0.54348 0.41855 0.0
O518 O 0.14816 0.50399 0.5908 0.0
O519 O 0.13797 0.56405 0.5822 0.0
O520 O 0.89648 0.5054 0.62617 0.0
O521 O 0.90985 0.56506 0.62218 0.0
C522 C 0.00276 0.60458 0.40812 0.0
O523 O 0.13758 0.50894 0.37731 0.0
O524 O 0.11476 0.56638 0.37912 0.0
O525 O 0.07664 0.43525 0.58967 0.0
C526 C 0.87547 0.5114 0.41934 0.0
O527 O 0.9745 0.43016 0.43397 0.0
C528 C 0.01607 0.59846 0.59666 0.0
O529 O 0.90129 0.43489 0.56667 0.0
C530 C 0.15883 0.53742 0.59384 0.0
O531 O 0.14111 0.43996 0.44377 0.0
C532 C 0.90808 0.60894 0.51078 0.0
O533 O 0.96677 0.60205 0.41264 0.0
O534 O 0.02458 0.57911 0.42038 0.0
C535 C 0.89261 0.5383 0.63791 0.0
O536 O 0.05219 0.59958 0.59287 0.0
O537 O -0.00393 0.57989 0.5742 0.0
C538 C 0.1086 0.61261 0.48923 0.0
O539 O 0.9104 0.60894 0.54574 0.0
O540 O 0.92698 0.58443 0.49323 0.0
C541 C 0.13561 0.54144 0.36412 0.0
O542 O 0.10695 0.61252 0.45419 0.0
O543 O 0.08954 0.58854 0.50666 0.0
C544 C 0.04533 0.4375 0.60731 0.0
O545 O 0.02858 0.46985 0.61105 0.0
C546 C 0.00738 0.43306 0.41946 0.0
O547 O 0.0245 0.46519 0.42015 0.0
Zn548 Zn 0.43966 0.97776 0.44742 0.0
Zn549 Zn 0.4273 0.06683 0.45742 0.0
O550 O 0.46649 0.02731 0.44438 0.0
H551 H 0.48469 0.02922 0.42443 0.0
C552 C 0.41648 0.92025 0.53597 0.0
O553 O 0.42281 0.94613 0.5114 0.0
Zn554 Zn 0.59742 0.0684 0.55431 0.0
Zn555 Zn 0.61152 0.98126 0.57134 0.0
O556 O 0.57026 0.02004 0.56152 0.0
H557 H 0.54467 0.01476 0.55331 0.0
Zn558 Zn 0.46281 0.96948 0.58454 0.0
O559 O 0.46452 0.01558 0.55186 0.0
Zn560 Zn 0.46625 0.0595 0.58617 0.0
H561 H 0.47247 0.01553 0.52628 0.0
Zn562 Zn 0.56491 0.9845 0.41471 0.0
O563 O 0.55133 0.02454 0.45262 0.0
H564 H 0.54416 0.02064 0.47811 0.0
Zn565 Zn 0.54881 0.0727 0.42503 0.0
C566 C 0.61285 0.93457 0.46249 0.0
O567 O 0.60243 0.95685 0.4894 0.0
O568 O 0.38321 0.98622 0.4358 0.0
O569 O 0.37623 0.04732 0.4403 0.0
O570 O 0.65829 0.00723 0.59317 0.0
O571 O 0.65147 0.06559 0.57482 0.0
O572 O 0.45343 0.98303 0.63902 0.0
O573 O 0.45063 0.04437 0.63776 0.0
C574 C 0.47157 0.11858 0.41781 0.0
O575 O 0.57719 0.0061 0.36311 0.0
O576 O 0.56357 0.06532 0.37216 0.0
O577 O 0.59735 0.93208 0.59857 0.0
C578 C 0.36303 0.01542 0.43262 0.0
O579 O 0.46294 0.93287 0.41785 0.0
C580 C 0.53857 0.10782 0.59465 0.0
O581 O 0.43102 0.92345 0.56796 0.0
C582 C 0.67 0.04043 0.59205 0.0
O583 O 0.60042 0.94048 0.43002 0.0
C584 C 0.4219 0.10268 0.53448 0.0
O585 O 0.43759 0.11413 0.42896 0.0
O586 O 0.49604 0.09486 0.42857 0.0
C587 C 0.44765 0.01387 0.6551 0.0
O588 O 0.57326 0.10866 0.5848 0.0
O589 O 0.5194 0.0796 0.58524 0.0
C590 C 0.60293 0.10479 0.47691 0.0
O591 O 0.4321 0.1001 0.56804 0.0
O592 O 0.43067 0.07648 0.51246 0.0
C593 C 0.57497 0.03918 0.35132 0.0
O594 O 0.58866 0.10597 0.44474 0.0
O595 O 0.58932 0.08254 0.50059 0.0
C596 C 0.56467 0.92726 0.61303 0.0
O597 O 0.53843 0.95297 0.60883 0.0
C598 C 0.49303 0.91511 0.42653 0.0
O599 O 0.51202 0.92499 0.45617 0.0
C600 C 0.17524 0.16344 0.54728 0.0
C601 C 0.16751 0.19653 0.52826 0.0
H602 H 0.15906 0.10696 0.55574 0.0
C603 C 0.13372 0.1997 0.50775 0.0
H604 H 0.20107 0.16042 0.56342 0.0
C605 C 0.11019 0.16933 0.50322 0.0
C606 C 0.1197 0.13538 0.51945 0.0
H607 H 0.12711 0.22462 0.49247 0.0
H608 H 0.08582 0.17173 0.48496 0.0
C609 C 0.15122 0.133 0.54311 0.0
C610 C 0.85833 0.20333 0.52147 0.0
C611 C 0.83575 0.19595 0.49043 0.0
H612 H 0.90353 0.18463 0.55617 0.0
C613 C 0.84665 0.16742 0.46621 0.0
H614 H 0.85064 0.22519 0.54058 0.0
C615 C 0.87709 0.14409 0.47518 0.0
C616 C 0.89652 0.14855 0.50866 0.0
H617 H 0.82999 0.16164 0.44171 0.0
H618 H 0.88347 0.12118 0.45732 0.0
C619 C 0.88844 0.17979 0.53053 0.0
C620 C 0.84949 0.90147 0.4723 0.0
C621 C 0.84475 0.86834 0.49175 0.0
H622 H 0.87854 0.95296 0.46888 0.0
C623 C 0.86906 0.8602 0.52146 0.0
H624 H 0.83121 0.90815 0.4491 0.0
C625 C 0.89595 0.88602 0.53314 0.0
C626 C 0.89912 0.92019 0.51503 0.0
H627 H 0.86579 0.83482 0.53691 0.0
H628 H 0.91313 0.87981 0.55722 0.0
C629 C 0.8766 0.92706 0.48365 0.0
C630 C 0.16253 0.8681 0.55217 0.0
C631 C 0.15561 0.83397 0.53505 0.0
H632 H 0.14695 0.92516 0.55636 0.0
C633 C 0.1246 0.83093 0.51069 0.0
H634 H 0.18588 0.87116 0.57146 0.0
C635 C 0.10217 0.86172 0.50224 0.0
C636 C 0.11042 0.89628 0.51776 0.0
H637 H 0.11875 0.8052 0.49662 0.0
H638 H 0.07943 0.85869 0.48226 0.0
C639 C 0.14014 0.89897 0.54362 0.0
C640 C 0.49077 0.18021 0.15781 0.0
C641 C 0.51292 0.17904 0.19012 0.0
H642 H 0.48419 0.16201 0.10201 0.0
C643 C 0.54543 0.15617 0.19105 0.0
H644 H 0.46515 0.19705 0.15654 0.0
C645 C 0.55634 0.13596 0.15978 0.0
C646 C 0.53485 0.13814 0.12706 0.0
H647 H 0.56308 0.15478 0.21556 0.0
H648 H 0.58209 0.11932 0.16102 0.0
C649 C 0.50157 0.15995 0.12665 0.0
C650 C 0.8239 0.52338 0.20662 0.0
C651 C 0.80497 0.4895 0.20359 0.0
H652 H 0.87028 0.55672 0.18783 0.0
C653 C 0.82058 0.46155 0.18134 0.0
H654 H 0.81211 0.54539 0.22352 0.0
C655 C 0.85399 0.46776 0.16139 0.0
C656 C 0.87196 0.50234 0.16274 0.0
H657 H 0.80637 0.43522 0.17871 0.0
H658 H 0.86474 0.44595 0.14363 0.0
C659 C 0.85699 0.52988 0.1861 0.0
C660 C 0.51532 0.86433 0.1901 0.0
C661 C 0.54442 0.83854 0.18243 0.0
H662 H 0.48091 0.90873 0.16975 0.0
C663 C 0.56508 0.84167 0.14928 0.0
H664 H 0.49861 0.86247 0.21523 0.0
C665 C 0.55479 0.8682 0.12306 0.0
C666 C 0.52345 0.8918 0.12945 0.0
H667 H 0.58786 0.82236 0.14284 0.0
H668 H 0.56994 0.86866 0.09695 0.0
C669 C 0.50491 0.89066 0.16385 0.0
C670 C 0.22632 0.59183 0.1268 0.0
C671 C 0.24643 0.56518 0.14711 0.0
H672 H 0.18098 0.60183 0.08866 0.0
C673 C 0.243 0.52782 0.13779 0.0
H674 H 0.22855 0.62081 0.13381 0.0
C675 C 0.21574 0.51681 0.11213 0.0
C676 C 0.19124 0.54312 0.09601 0.0
H677 H 0.25829 0.50692 0.15336 0.0
H678 H 0.21121 0.48754 0.10814 0.0
C679 C 0.19882 0.58085 0.10127 0.0
C680 C 0.50883 0.83015 0.85657 0.0
C681 C 0.53769 0.84249 0.8328 0.0
H682 H 0.47406 0.842 0.90369 0.0
C683 C 0.55655 0.87561 0.84096 0.0
H684 H 0.49363 0.80486 0.85078 0.0
C685 C 0.54554 0.8968 0.87156 0.0
C686 C 0.51517 0.88542 0.89404 0.0
H687 H 0.57907 0.88557 0.82311 0.0
H688 H 0.55934 0.92292 0.87636 0.0
C689 C 0.49754 0.8515 0.88676 0.0
C690 C 0.18918 0.52638 0.79741 0.0
C691 C 0.21394 0.55527 0.80644 0.0
H692 H 0.13642 0.49947 0.80965 0.0
C693 C 0.20176 0.5827 0.83124 0.0
H694 H 0.19818 0.50482 0.77847 0.0
C695 C 0.16608 0.58019 0.84836 0.0
C696 C 0.14258 0.54962 0.8417 0.0
H697 H 0.22053 0.60517 0.83856 0.0
H698 H 0.15826 0.60067 0.8689 0.0
C699 C 0.15394 0.52334 0.81522 0.0
C700 C 0.46091 0.18034 0.87509 0.0
C701 C 0.4733 0.17986 0.83811 0.0
H702 H 0.46834 0.15761 0.92927 0.0
C703 C 0.49833 0.15178 0.82624 0.0
H704 H 0.44173 0.20179 0.88492 0.0
C705 C 0.51309 0.12652 0.85147 0.0
C706 C 0.50262 0.1286 0.88876 0.0
H707 H 0.50892 0.15107 0.7981 0.0
H708 H 0.53427 0.1066 0.84225 0.0
C709 C 0.47563 0.15485 0.90033 0.0
C710 C 0.7946 0.54886 0.86567 0.0
C711 C 0.77654 0.51533 0.8581 0.0
H712 H 0.83917 0.5761 0.89472 0.0
C713 C 0.78817 0.48313 0.87644 0.0
H714 H 0.78554 0.57406 0.85208 0.0
C715 C 0.81907 0.48411 0.90063 0.0
C716 C 0.83814 0.51747 0.90718 0.0
H717 H 0.77427 0.45708 0.87101 0.0
H718 H 0.82864 0.45867 0.91342 0.0
C719 C 0.82497 0.55001 0.89029 0.0
C720 C 0.69107 0.67997 0.02495 0.0
C721 C 0.70778 0.68165 0.98971 0.0
H722 H 0.64815 0.65549 0.05894 0.0
C723 C 0.69604 0.65717 0.96209 0.0
H724 H 0.6996 0.69901 0.04646 0.0
C725 C 0.6661 0.63296 0.96885 0.0
C726 C 0.6479 0.63258 0.00352 0.0
H727 H 0.70824 0.65849 0.93459 0.0
H728 H 0.65646 0.61536 0.94658 0.0
C729 C 0.66154 0.65533 0.03193 0.0
C730 C 0.30386 0.70377 0.00446 0.0
C731 C 0.28055 0.69829 0.0355 0.0
H732 H 0.35321 0.68644 0.97429 0.0
C733 C 0.28932 0.66971 0.06028 0.0
H734 H 0.29716 0.72515 0.98455 0.0
C735 C 0.32152 0.64748 0.05449 0.0
C736 C 0.34496 0.65306 0.02341 0.0
H737 H 0.27145 0.66479 0.08422 0.0
H738 H 0.32808 0.62604 0.07438 0.0
C739 C 0.33559 0.68124 -0.00168 0.0
C740 C 0.33828 0.32362 0.00563 0.0
C741 C 0.3089 0.32797 0.03174 0.0
H742 H 0.39241 0.34227 0.9863 0.0
C743 C 0.31412 0.35215 0.06166 0.0
H744 H 0.33494 0.30542 0.9821 0.0
C745 C 0.34734 0.37313 0.06424 0.0
C746 C 0.37542 0.37066 0.03655 0.0
H747 H 0.29194 0.35577 0.08226 0.0
H748 H 0.34989 0.3929 0.08656 0.0
C749 C 0.37113 0.34486 0.00792 0.0
C750 C 0.72587 0.33456 0.0344 0.0
C751 C 0.74527 0.3297 0.00078 0.0
H752 H 0.68068 0.36245 0.06307 0.0
C753 C 0.73704 0.35319 0.97105 0.0
H754 H 0.73191 0.31663 0.05764 0.0
C755 C 0.7073 0.37895 0.97383 0.0
C756 C 0.68585 0.38195 0.00662 0.0
H757 H 0.75165 0.34975 0.94484 0.0
H758 H 0.69969 0.39501 0.94967 0.0
C759 C 0.6967 0.36084 0.03747 0.0
C760 C 0.95662 0.66063 0.6579 0.0
C761 C 0.97714 0.65775 0.69119 0.0
H762 H 0.95262 0.64318 0.60118 0.0
C763 C 0.00708 0.63197 0.69382 0.0
H764 H 0.93346 0.68038 0.65524 0.0
C765 C 0.01812 0.61144 0.6632 0.0
C766 C -0.00077 0.61584 0.62942 0.0
H767 H 0.02388 0.6295 0.7188 0.0
H768 H 0.0426 0.59316 0.66552 0.0
C769 C 0.96743 0.63942 0.62714 0.0
C770 C 0.3894 0.97707 0.73294 0.0
C771 C 0.36664 0.0082 0.74034 0.0
H772 H 0.43471 0.95464 0.70021 0.0
C773 C 0.37867 0.04296 0.7281 0.0
H774 H 0.38084 0.94998 0.74232 0.0
C775 C 0.40953 0.04574 0.70392 0.0
C776 C 0.42825 0.01364 0.69138 0.0
H777 H 0.3618 0.06743 0.7341 0.0
H778 H 0.41561 0.07241 0.69186 0.0
C779 C 0.42018 0.97978 0.70862 0.0
C780 C 0.03308 0.33892 0.63825 0.0
C781 C 0.00504 0.34268 0.6658 0.0
H782 H 0.06784 0.366 0.59818 0.0
C783 C 0.98812 0.37738 0.67194 0.0
H784 H 0.04697 0.31258 0.63326 0.0
C785 C 9e-05 0.40809 0.65181 0.0
C786 C 0.02955 0.40462 0.62559 0.0
H787 H 0.96633 0.3809 0.69296 0.0
H788 H 0.98726 0.43471 0.65779 0.0
C789 C 0.04529 0.3696 0.61841 0.0
C790 C 0.70922 0.09167 0.67293 0.0
C791 C 0.72949 0.06339 0.69073 0.0
H792 H 0.67608 0.10727 0.62596 0.0
C793 C 0.73768 0.03063 0.67153 0.0
H794 H 0.70282 0.11722 0.68733 0.0
C795 C 0.72201 0.0246 0.63654 0.0
C796 C 0.69833 0.05147 0.62016 0.0
H797 H 0.75339 0.0085 0.68486 0.0
H798 H 0.72567 0.99774 0.62378 0.0
C799 C 0.69426 0.08601 0.63764 0.0
C800 C 0.0145 0.34212 0.36875 0.0
C801 C 0.04348 0.3496 0.34306 0.0
H802 H 0.98037 0.36274 0.41337 0.0
C803 C 0.06388 0.38268 0.34603 0.0
H804 H -0.00178 0.31688 0.36693 0.0
C805 C 0.05382 0.40891 0.37268 0.0
C806 C 0.02283 0.40268 0.39652 0.0
H807 H 0.08661 0.38888 0.32673 0.0
H808 H 0.069 0.43483 0.3732 0.0
C809 C 0.00417 0.36848 0.39518 0.0
C810 C 0.64491 0.03086 0.27381 0.0
C811 C 0.65779 0.06739 0.27259 0.0
H812 H 0.60696 0.99287 0.29974 0.0
C813 C 0.63616 0.09543 0.2892 0.0
H814 H 0.66146 0.00888 0.26108 0.0
C815 C 0.60458 0.08647 0.31075 0.0
C816 C 0.59529 0.0492 0.31699 0.0
H817 H 0.64579 0.12377 0.28842 0.0
H818 H 0.59053 0.10845 0.32597 0.0
C819 C 0.61377 0.02174 0.29599 0.0
C820 C 0.06167 0.66929 0.34938 0.0
C821 C 0.03987 0.70197 0.35185 0.0
H822 H 0.06636 0.6124 0.36474 0.0
C823 C 0.00775 0.70268 0.37519 0.0
H824 H 0.08657 0.66782 0.33166 0.0
C825 C -0.00309 0.67129 0.39447 0.0
C826 C 0.01776 0.6383 0.39089 0.0
H827 H 0.98971 0.72697 0.37726 0.0
H828 H 0.97143 0.67261 0.41144 0.0
C829 C 0.05058 0.63769 0.36873 0.0
C830 C 0.28528 0.97331 0.37555 0.0
C831 C 0.277 0.00279 0.35184 0.0
H832 H 0.31902 0.95445 0.42111 0.0
C833 C 0.2915 0.0379 0.35946 0.0
H834 H 0.27378 0.94616 0.37022 0.0
C835 C 0.31636 0.043 0.38897 0.0
C836 C 0.32777 0.01279 0.41072 0.0
H837 H 0.28473 0.06107 0.34167 0.0
H838 H 0.32901 0.06994 0.3927 0.0
C839 C 0.31078 0.97821 0.40473 0.0
C840 C 0.07224 0.15735 0.36624 0.0
C841 C 0.05149 0.17874 0.34078 0.0
H842 H 0.07029 0.11713 0.40944 0.0
C843 C 0.01173 0.17506 0.3394 0.0
H844 H 0.10299 0.15964 0.3678 0.0
C845 C -0.007 0.1515 0.36394 0.0
C846 C 0.01357 0.13059 0.39013 0.0
H847 H -0.00511 0.1913 0.32024 0.0
H848 H 0.96218 0.15005 0.36262 0.0
C849 C 0.05351 0.13316 0.39033 0.0
C850 C 0.79275 0.08922 0.34659 0.0
C851 C 0.78968 0.06595 0.31567 0.0
H852 H 0.82049 0.09888 0.39856 0.0
C853 C 0.81004 0.03259 0.31495 0.0
H854 H 0.77664 0.11481 0.34791 0.0
C855 C 0.83395 0.02296 0.34401 0.0
C856 C 0.83864 0.04678 0.37438 0.0
H857 H 0.80727 0.01371 0.29188 0.0
H858 H 0.84969 0.99722 0.34194 0.0
C859 C 0.81746 0.07991 0.37562 0.0
C860 C 0.03577 0.86972 0.3158 0.0
C861 C 0.02203 0.83602 0.32954 0.0
H862 H 0.0331 0.92884 0.31881 0.0
C863 C -0.00614 0.83695 0.35738 0.0
H864 H 0.05748 0.87015 0.29448 0.0
C865 C 0.98075 0.87035 0.37192 0.0
C866 C -0.00528 0.90397 0.35853 0.0
H867 H 0.9815 0.81175 0.36791 0.0
H868 H 0.95922 0.86975 0.39342 0.0
C869 C 0.02206 0.90336 0.32999 0.0
C870 C 0.13485 0.02767 0.30126 0.0
C871 C 0.15115 0.99261 0.29591 0.0
H872 H 0.09761 0.0606 0.33487 0.0
C873 C 0.13404 0.96181 0.31227 0.0
H874 H 0.14784 0.0518 0.28899 0.0
C875 C 0.10553 0.96677 0.33879 0.0
C876 C 0.09409 0.00261 0.34912 0.0
H877 H 0.14645 0.93457 0.30864 0.0
H878 H 0.09602 0.94291 0.35417 0.0
C879 C 0.10663 0.03274 0.32807 0.0
C880 C 0.03534 0.83113 0.64652 0.0
C881 C 0.01627 0.82869 0.68054 0.0
H882 H 0.05579 0.86602 0.60346 0.0
C883 C 0.00104 0.8608 0.6967 0.0
H884 H 0.04708 0.80666 0.63339 0.0
C885 C 0.00608 0.89506 0.67952 0.0
C886 C 0.02621 0.89758 0.6459 0.0
H887 H 0.98598 0.85958 0.72282 0.0
H888 H -0.00508 0.91961 0.69294 0.0
C889 C 0.04013 0.86513 0.62929 0.0
C890 C 0.21163 0.97938 0.6918 0.0
C891 C 0.23159 0.01025 0.70451 0.0
H892 H 0.1711 0.95806 0.65379 0.0
C893 C 0.22655 0.04428 0.6865 0.0
H894 H 0.21581 0.9526 0.70451 0.0
C895 C 0.2007 0.0476 0.65716 0.0
C896 C 0.18007 0.01674 0.64497 0.0
H897 H 0.24212 0.06837 0.69552 0.0
H898 H 0.19634 0.0744 0.64457 0.0
C899 C 0.18644 0.98248 0.66227 0.0
C900 C 0.02874 0.18645 0.69146 0.0
C901 C -0.00331 0.20781 0.68215 0.0
H902 H 0.06593 0.14208 0.67601 0.0
C903 C 0.97418 0.19709 0.65183 0.0
H904 H 0.0469 0.19433 0.7143 0.0
C905 C 0.98501 0.16689 0.62987 0.0
C906 C 0.01888 0.14757 0.63754 0.0
H907 H 0.94941 0.2133 0.64399 0.0
H908 H 0.96838 0.1603 0.60564 0.0
C909 C 0.03989 0.15684 0.66921 0.0
C910 C 0.8763 0.07169 0.7366 0.0
C911 C 0.86948 0.03826 0.755 0.0
H912 H 0.9012 0.09811 0.68954 0.0
C913 C 0.88558 0.00559 0.74102 0.0
H914 H 0.86454 0.09737 0.74706 0.0
C915 C 0.90657 0.00593 0.70821 0.0
C916 C 0.91202 0.03905 0.68871 0.0
H917 H 0.88097 0.97952 0.7549 0.0
H918 H 0.91773 0.98 0.69773 0.0
C919 C 0.89733 0.07208 0.70368 0.0
C920 C 0.3144 0.01257 0.1494 0.0
C921 C 0.32315 0.03269 0.18141 0.0
H922 H 0.331 0.9988 0.094 0.0
C923 C 0.35736 0.05238 0.18308 0.0
H924 H 0.28831 0.99686 0.1476 0.0
C925 C 0.38193 0.05314 0.15283 0.0
C926 C 0.37255 0.03449 0.12007 0.0
H927 H 0.36488 0.06776 0.20768 0.0
H928 H 0.4076 0.06948 0.15475 0.0
C929 C 0.33891 0.01356 0.11885 0.0
C930 C 0.07954 0.33722 0.18404 0.0
C931 C 0.04727 0.33608 0.20698 0.0
H932 H 0.10682 0.36336 0.13796 0.0
C933 C 0.01541 0.35804 0.19811 0.0
H934 H 0.1046 0.32088 0.19064 0.0
C935 C 0.01652 0.38224 0.16806 0.0
C936 C 0.04979 0.38547 0.14657 0.0
H937 H 0.99032 0.35782 0.21564 0.0
H938 H 0.99199 0.39985 0.16297 0.0
C939 C 0.08086 0.36181 0.15415 0.0
C940 C 0.69901 0.988 0.14833 0.0
C941 C 0.72299 0.0185 0.14428 0.0
H942 H 0.65063 0.95893 0.12788 0.0
C943 C 0.71564 0.04437 0.11636 0.0
H944 H 0.70392 0.96801 0.17009 0.0
C945 C 0.68543 0.03901 0.09187 0.0
C946 C 0.66164 0.0082 0.09557 0.0
H947 H 0.73371 0.06827 0.11299 0.0
H948 H 0.68106 0.05864 0.06976 0.0
C949 C 0.6683 0.9831 0.12447 0.0
C950 C 0.09328 0.66856 0.1707 0.0
C951 C 0.06857 0.69412 0.18784 0.0
H952 H 0.09848 0.62063 0.13601 0.0
C953 C 0.02912 0.69058 0.18278 0.0
H954 H 0.12386 0.67068 0.17432 0.0
C955 C 0.01461 0.66167 0.16159 0.0
C956 C 0.03919 0.63587 0.14449 0.0
H957 H 0.00931 0.70961 0.19584 0.0
H958 H 0.98397 0.65969 0.15851 0.0
C959 C 0.07877 0.6399 0.1489 0.0
C960 C 0.35202 0.93469 0.8846 0.0
C961 C 0.32356 0.95575 0.86734 0.0
H962 H 0.40418 0.93469 0.91432 0.0
C963 C 0.32614 0.9944 0.8679 0.0
H964 H 0.35037 0.90484 0.88501 0.0
C965 C 0.35763 0.01147 0.88411 0.0
C966 C 0.38648 0.9903 0.90114 0.0
H967 H 0.30392 0.01143 0.85589 0.0
H968 H 0.35882 0.04133 0.88415 0.0
C969 C 0.38307 0.95179 0.90131 0.0
C970 C -0.00477 0.34034 0.85633 0.0
C971 C 0.02619 0.34314 0.83186 0.0
H972 H 0.96169 0.36707 0.89827 0.0
C973 C 0.04888 0.3749 0.83275 0.0
H974 H 0.97741 0.31605 0.85634 0.0
C975 C 0.03962 0.40427 0.8562 0.0
C976 C 0.00787 0.40214 0.87977 0.0
H977 H 0.07299 0.37765 0.81419 0.0
H978 H 0.05685 0.42896 0.85532 0.0
C979 C 0.98636 0.36949 0.88038 0.0
C980 C 0.67883 0.0728 0.85539 0.0
C981 C 0.67972 0.05712 0.81982 0.0
H982 H 0.65394 0.07157 0.90927 0.0
C983 C 0.65138 0.03146 0.81035 0.0
H984 H 0.69994 0.09286 0.86361 0.0
C985 C 0.6245 0.02003 0.83645 0.0
C986 C 0.62517 0.03401 0.87266 0.0
H987 H 0.65132 0.01834 0.78345 0.0
H988 H 0.60445 0.99875 0.82879 0.0
C989 C 0.65189 0.06125 0.88148 0.0
C990 C 0.96538 0.69267 0.85304 0.0
C991 C 0.99028 0.68485 0.82372 0.0
H992 H 0.94401 0.67511 0.9055 0.0
C993 C 0.0182 0.65714 0.82807 0.0
H994 H 0.94364 0.71387 0.85025 0.0
C995 C 0.01831 0.63469 0.85939 0.0
C996 C 0.99051 0.63961 0.88692 0.0
H997 H 0.03791 0.65086 0.80579 0.0
H998 H 0.03798 0.6116 0.86037 0.0
C999 C 0.96558 0.67027 0.88454 0.0
C1000 C 0.15203 0.34079 0.97163 0.0
C1001 C 0.17066 0.34166 0.006 0.0
H1002 H 0.11478 0.36873 0.93398 0.0
C1003 C 0.16161 0.37012 0.031 0.0
H1004 H 0.1586 0.31946 0.95157 0.0
C1005 C 0.13676 0.39861 0.02075 0.0
C1006 C 0.12045 0.39921 0.98529 0.0
H1007 H 0.1752 0.37131 0.05783 0.0
H1008 H 0.13202 0.4211 0.03992 0.0
C1009 C 0.12717 0.36927 0.96138 0.0
C1010 C 0.13298 0.67115 0.05769 0.0
C1011 C 0.14033 0.70184 0.03492 0.0
H1012 H 0.10492 0.61915 0.06284 0.0
C1013 C 0.11846 0.70671 0.00292 0.0
H1014 H 0.14892 0.66712 0.083 0.0
C1015 C 0.09372 0.67903 0.9913 0.0
C1016 C 0.0904 0.64588 0.01139 0.0
H1017 H 0.12327 0.73004 0.98486 0.0
H1018 H 0.07962 0.68244 0.9649 0.0
C1019 C 0.10802 0.64346 0.04605 0.0
C1020 C 0.32604 0.18855 0.93757 0.0
C1021 C 0.29883 0.19375 0.96563 0.0
H1022 H 0.38026 0.16548 0.92238 0.0
C1023 C 0.30698 0.18125 0.00147 0.0
H1024 H 0.32048 0.19821 0.90976 0.0
C1025 C 0.34147 0.16326 0.00893 0.0
C1026 C 0.36822 0.15677 0.98054 0.0
H1027 H 0.28662 0.18502 0.02372 0.0
H1028 H 0.3464 0.15308 0.03666 0.0
C1029 C 0.36036 0.17011 0.94488 0.0
C1030 C 0.88982 0.36859 0.95189 0.0
C1031 C 0.89873 0.33389 0.96666 0.0
H1032 H 0.89153 0.42685 0.95908 0.0
C1033 C 0.91991 0.33179 -0.00049 0.0
H1034 H 0.87328 0.37094 0.92673 0.0
C1035 C 0.93183 0.36414 0.01734 0.0
C1036 C 0.92164 0.39899 0.00317 0.0
H1037 H 0.92704 0.30523 0.01146 0.0
H1038 H 0.94781 0.36186 0.04283 0.0
C1039 C 0.90041 0.40069 0.97037 0.0
C1040 C 0.70247 0.829 0.00508 0.0
C1041 C 0.71357 0.81503 0.97055 0.0
H1042 H 0.66579 0.86563 0.03481 0.0
C1043 C 0.69728 0.82973 0.93836 0.0
H1044 H 0.71423 0.81745 0.03025 0.0
C1045 C 0.66884 0.85694 0.94083 0.0
C1046 C 0.65632 0.8697 0.97558 0.0
H1047 H 0.70487 0.8186 0.91151 0.0
H1048 H 0.65597 0.86719 0.91562 0.0
C1049 C 0.67425 0.85611 0.0076 0.0
C1050 C 0.86871 0.66978 0.96226 0.0
C1051 C 0.87433 0.70469 0.97829 0.0
H1052 H 0.87775 0.61144 0.96695 0.0
C1053 C 0.89569 0.70733 0.01087 0.0
H1054 H 0.85237 0.66691 0.93707 0.0
C1055 C 0.9102 0.67563 0.0278 0.0
C1056 C 0.90408 0.6406 0.01225 0.0
H1057 H 0.90042 0.7339 0.02378 0.0
H1058 H 0.92613 0.67854 0.05325 0.0
C1059 C 0.88347 0.638 0.97916 0.0
C1060 C 0.28394 0.88733 0.0683 0.0
C1061 C 0.26672 0.86562 0.04102 0.0
H1062 H 0.33013 0.9224 0.08295 0.0
C1063 C 0.2825 0.86526 0.00522 0.0
H1064 H 0.2723 0.88828 0.09605 0.0
C1065 C 0.31608 0.88489 0.99754 0.0
C1066 C 0.33443 0.90511 0.02557 0.0
H1067 H 0.26983 0.84873 0.98359 0.0
H1068 H 0.32845 0.883 0.97015 0.0
C1069 C 0.31722 0.90686 0.06072 0.0
C1070 C 0.73834 0.18089 0.95611 0.0
C1071 C 0.75401 0.19426 0.98915 0.0
H1072 H 0.69719 0.14517 0.93113 0.0
C1073 C 0.74332 0.17816 0.02273 0.0
H1074 H 0.74581 0.19346 0.92995 0.0
C1075 C 0.71562 0.15064 0.02355 0.0
C1076 C 0.6975 0.13914 0.99079 0.0
H1077 H 0.75466 0.1885 0.04855 0.0
H1078 H 0.70678 0.14009 0.0502 0.0
C1079 C 0.71032 0.15348 0.95687 0.0
C1080 C 0.52054 0.67953 0.82573 0.0
C1081 C 0.55991 0.68655 0.82462 0.0
H1082 H 0.47356 0.6587 0.85743 0.0
C1083 C 0.5825 0.6762 0.85492 0.0
H1084 H 0.5024 0.68716 0.80275 0.0
C1085 C 0.56607 0.66026 0.88624 0.0
C1086 C 0.52659 0.65399 0.88791 0.0
H1087 H 0.61293 0.68123 0.85477 0.0
H1088 H 0.58434 0.65324 0.90933 0.0
C1089 C 0.50406 0.66322 0.85704 0.0
C1090 C 0.35389 0.55922 0.86715 0.0
C1091 C 0.35085 0.53567 0.83643 0.0
H1092 H 0.3782 0.56823 0.92055 0.0
C1093 C 0.37356 0.50359 0.83513 0.0
H1094 H 0.33698 0.58431 0.86872 0.0
C1095 C 0.39699 0.49409 0.86506 0.0
C1096 C 0.39843 0.5167 0.89671 0.0
H1097 H 0.37166 0.48486 0.81186 0.0
H1098 H 0.4129 0.46838 0.86394 0.0
C1099 C 0.37757 0.54998 0.89683 0.0
C1100 C 0.45931 0.33545 0.83634 0.0
C1101 C 0.48702 0.31327 0.81891 0.0
H1102 H 0.44782 0.37798 0.87622 0.0
C1103 C 0.52568 0.31976 0.8264 0.0
H1104 H 0.42928 0.33021 0.83188 0.0
C1105 C 0.53637 0.34644 0.85241 0.0
C1106 C 0.5086 0.36726 0.87152 0.0
H1107 H 0.54751 0.30233 0.8141 0.0
H1108 H 0.56637 0.3496 0.8587 0.0
C1109 C 0.46999 0.36244 0.8621 0.0
C1110 C 0.61426 0.52842 0.83 0.0
C1111 C 0.64035 0.49887 0.83019 0.0
H1112 H 0.56807 0.55523 0.85812 0.0
C1113 C 0.63338 0.46868 0.8536 0.0
H1114 H 0.61892 0.55206 0.8123 0.0
C1115 C 0.60459 0.47065 0.8803 0.0
C1116 C 0.58218 0.50276 0.88384 0.0
H1117 H 0.65289 0.44536 0.85401 0.0
H1118 H 0.60256 0.44862 0.9004 0.0
C1119 C 0.58526 0.53032 0.85659 0.0
C1120 C 0.53347 0.37444 0.20431 0.0
C1121 C 0.50067 0.35267 0.20682 0.0
H1122 H 0.56729 0.41033 0.17101 0.0
C1123 C 0.47383 0.35418 0.17786 0.0
H1124 H 0.55455 0.37405 0.22618 0.0
C1125 C 0.48091 0.37564 0.14614 0.0
C1126 C 0.51513 0.39536 0.14287 0.0
H1127 H 0.44818 0.33775 0.17905 0.0
H1128 H 0.46087 0.375 0.1234 0.0
C1129 C 0.54073 0.39527 0.17271 0.0
C1130 C 0.63253 0.49548 0.19373 0.0
C1131 C 0.66508 0.47344 0.18774 0.0
H1132 H 0.58319 0.52079 0.17004 0.0
C1133 C 0.66777 0.45353 0.15418 0.0
H1134 H 0.62902 0.51122 0.21895 0.0
C1135 C 0.64152 0.45969 0.12555 0.0
C1136 C 0.61185 0.48536 0.13027 0.0
H1137 H 0.69171 0.43522 0.14896 0.0
H1138 H 0.64664 0.44713 0.09887 0.0
C1139 C 0.60618 0.50115 0.16542 0.0
C1140 C 0.56107 0.69057 0.16403 0.0
C1141 C 0.53475 0.70317 0.19071 0.0
H1142 H 0.57146 0.65434 0.11802 0.0
C1143 C 0.49934 0.68561 0.19365 0.0
H1144 H 0.5885 0.70384 0.16111 0.0
C1145 C 0.4893 0.65794 0.16857 0.0
C1146 C 0.51473 0.64686 0.14046 0.0
H1147 H 0.4784 0.69503 0.21366 0.0
H1148 H 0.46101 0.64622 0.17028 0.0
C1149 C 0.55132 0.66233 0.13937 0.0
C1150 C 0.38502 0.60022 0.16506 0.0
C1151 C 0.38891 0.58693 0.20121 0.0
H1152 H 0.39444 0.58994 0.10774 0.0
C1153 C 0.40941 0.55414 0.20724 0.0
H1154 H 0.37084 0.62634 0.15985 0.0
C1155 C 0.42424 0.53403 0.17738 0.0
C1156 C 0.41939 0.54673 0.14094 0.0
H1157 H 0.41353 0.54382 0.23505 0.0
H1158 H 0.43948 0.50851 0.18282 0.0
C1159 C 0.39949 0.57994 0.13523 0.0
C1160 C 0.80334 0.52518 0.6954 0.0
C1161 C 0.79442 0.56151 0.7058 0.0
H1162 H 0.84202 0.48918 0.66713 0.0
C1163 C 0.82032 0.58972 0.69733 0.0
H1164 H 0.78435 0.50271 0.70213 0.0
C1165 C 0.85359 0.58209 0.67708 0.0
C1166 C 0.86184 0.54591 0.6653 0.0
H1167 H 0.81432 0.61793 0.70557 0.0
H1168 H 0.87212 0.60469 0.66962 0.0
C1169 C 0.83676 0.51743 0.67564 0.0
C1170 C 0.52093 0.86908 0.68869 0.0
C1171 C 0.55021 0.84343 0.69591 0.0
H1172 H 0.50219 0.91517 0.65648 0.0
C1173 C 0.58233 0.84258 0.6727 0.0
H1174 H 0.49582 0.8702 0.70616 0.0
C1175 C 0.58632 0.86871 0.64441 0.0
C1176 C 0.55806 0.89594 0.63868 0.0
H1177 H 0.6054 0.82323 0.67788 0.0
H1178 H 0.61227 0.86857 0.62813 0.0
C1179 C 0.52468 0.89488 0.66025 0.0
C1180 C 0.24802 0.52568 0.65237 0.0
C1181 C 0.26036 0.56229 0.65584 0.0
H1182 H 0.20642 0.48903 0.62988 0.0
C1183 C 0.24064 0.59027 0.63687 0.0
H1184 H 0.2627 0.5035 0.66662 0.0
C1185 C 0.20833 0.58209 0.61587 0.0
C1186 C 0.19507 0.54564 0.61331 0.0
H1187 H 0.24966 0.61872 0.63903 0.0
H1188 H 0.19333 0.6045 0.60228 0.0
C1189 C 0.21574 0.51743 0.63127 0.0
C1190 C 0.53291 0.20175 0.64067 0.0
C1191 C 0.49926 0.19975 0.66144 0.0
H1192 H 0.57114 0.17488 0.60333 0.0
C1193 C 0.47645 0.168 0.65808 0.0
H1194 H 0.55102 0.22578 0.64257 0.0
C1195 C 0.48806 0.13834 0.63538 0.0
C1196 C 0.52269 0.13986 0.61577 0.0
H1197 H 0.45027 0.16555 0.67378 0.0
H1198 H 0.47063 0.1139 0.63425 0.0
C1199 C 0.54445 0.17234 0.61822 0.0
C1200 C 0.78755 0.46108 0.38621 0.0
C1201 C 0.77065 0.48674 0.36227 0.0
H1202 H 0.83324 0.44875 0.42302 0.0
C1203 C 0.78676 0.52207 0.35914 0.0
H1204 H 0.77565 0.43373 0.38929 0.0
C1205 C 0.82017 0.53088 0.3786 0.0
C1206 C 0.83799 0.50447 0.40142 0.0
H1207 H 0.77428 0.54249 0.34088 0.0
H1208 H 0.83263 0.55789 0.37487 0.0
C1209 C 0.82069 0.46977 0.40551 0.0
C1210 C 0.49975 0.84383 0.34934 0.0
C1211 C 0.53678 0.82972 0.35441 0.0
H1212 H 0.45708 0.88238 0.36777 0.0
C1213 C 0.55852 0.84249 0.38424 0.0
H1214 H 0.48251 0.83472 0.3263 0.0
C1215 C 0.54372 0.86912 0.40846 0.0
C1216 C 0.50735 0.88461 0.40258 0.0
H1217 H 0.58714 0.83196 0.38871 0.0
H1218 H 0.56113 0.87805 0.43137 0.0
C1219 C 0.48532 0.87129 0.37298 0.0
C1220 C 0.20148 0.59615 0.30183 0.0
C1221 C 0.2178 0.56803 0.28012 0.0
H1222 H 0.16156 0.60998 0.34476 0.0
C1223 C 0.20562 0.53154 0.28505 0.0
H1224 H 0.20996 0.62458 0.29803 0.0
C1225 C 0.17809 0.52315 0.31158 0.0
C1226 C 0.16166 0.55115 0.33344 0.0
H1227 H 0.21757 0.50943 0.26839 0.0
H1228 H 0.16981 0.49462 0.31511 0.0
C1229 C 0.17339 0.58783 0.32808 0.0
C1230 C 0.4553 0.19361 0.3463 0.0
C1231 C 0.48929 0.19213 0.32582 0.0
H1232 H 0.42314 0.17163 0.39138 0.0
C1233 C 0.51947 0.16985 0.33888 0.0
H1234 H 0.43152 0.21039 0.33696 0.0
C1235 C 0.51485 0.14778 0.37039 0.0
C1236 C 0.4797 0.14685 0.38901 0.0
H1237 H 0.54625 0.16855 0.32393 0.0
H1238 H 0.53827 0.13042 0.37919 0.0
C1239 C 0.45049 0.17114 0.37741 0.0
C1240 C 0.69377 0.88029 0.50609 0.0
C1241 C 0.70489 0.85679 0.47699 0.0
H1242 H 0.65563 0.92288 0.52461 0.0
C1243 C 0.68274 0.85594 0.44476 0.0
H1244 H 0.71043 0.88142 0.53125 0.0
C1245 C 0.65171 0.88015 0.44063 0.0
C1246 C 0.64198 0.90532 0.46887 0.0
H1247 H 0.69092 0.83833 0.42182 0.0
H1248 H 0.63638 0.8802 0.41469 0.0
C1249 C 0.66247 0.90411 0.5022 0.0
C1250 C 0.6679 0.1785 0.51451 0.0
C1251 C 0.69613 0.17881 0.48676 0.0
H1252 H 0.61605 0.15344 0.534 0.0
C1253 C 0.6946 0.15286 0.45809 0.0
H1254 H 0.66889 0.19802 0.53717 0.0
C1255 C 0.66506 0.12764 0.45656 0.0
C1256 C 0.63653 0.12753 0.48377 0.0
H1257 H 0.716 0.15247 0.43644 0.0
H1258 H 0.66402 0.10859 0.43346 0.0
C1259 C 0.63824 0.15272 0.51315 0.0
C1260 C 0.83258 0.6831 0.49856 0.0
C1261 C 0.83997 0.69579 0.46269 0.0
H1262 H 0.84848 0.64585 0.54166 0.0
C1263 C 0.86811 0.67782 0.44139 0.0
H1264 H 0.8112 0.69639 0.51574 0.0
C1265 C 0.88922 0.64828 0.4561 0.0
C1266 C 0.88322 0.63685 0.49266 0.0
H1267 H 0.87433 0.68713 0.4136 0.0
H1268 H 0.91113 0.63551 0.43941 0.0
C1269 C 0.85416 0.65419 0.51345 0.0
C1270 C 0.35237 0.8367 0.54776 0.0
C1271 C 0.33363 0.83573 0.5135 0.0
H1272 H 0.39344 0.86414 0.58176 0.0
C1273 C 0.34428 0.86095 0.48598 0.0
H1274 H 0.34478 0.81762 0.56952 0.0
C1275 C 0.37209 0.88754 0.49288 0.0
C1276 C 0.38985 0.88962 0.5276 0.0
H1277 H 0.33031 0.86076 0.45929 0.0
H1278 H 0.37888 0.90709 0.47125 0.0
C1279 C 0.38022 0.86342 0.55474 0.0
C1280 C 0.17577 0.34539 0.53074 0.0
C1281 C 0.19928 0.32765 0.50452 0.0
H1282 H 0.13897 0.39135 0.5428 0.0
C1283 C 0.2055 0.3449 0.47031 0.0
H1284 H 0.17057 0.33283 0.55741 0.0
C1285 C 0.18721 0.37821 0.46184 0.0
C1286 C 0.16245 0.39519 0.48744 0.0
H1287 H 0.22298 0.33173 0.44932 0.0
H1288 H 0.19177 0.39015 0.43477 0.0
C1289 C 0.15765 0.37889 0.52235 0.0
C1290 C 0.38511 0.20073 0.53586 0.0
C1291 C 0.35692 0.20009 0.50852 0.0
H1292 H 0.4278 0.17043 0.56518 0.0
C1293 C 0.35285 0.16811 0.48671 0.0
H1294 H 0.38896 0.225 0.55294 0.0
C1295 C 0.3753 0.13667 0.4936 0.0
C1296 C 0.40188 0.13671 0.52255 0.0
H1297 H 0.33141 0.16687 0.46525 0.0
H1298 H 0.37051 0.1119 0.4776 0.0
C1299 C 0.4072 0.16938 0.54292 0.0
C1300 C 0.82242 0.34842 0.56714 0.0
C1301 C 0.79528 0.34631 0.53888 0.0
H1302 H 0.86974 0.37734 0.58968 0.0
C1303 C 0.79595 0.37228 0.5101 0.0
H1304 H 0.82267 0.32844 0.5894 0.0
C1305 C 0.82284 0.40067 0.51034 0.0
C1306 C 0.84974 0.40303 0.53902 0.0
H1307 H 0.7754 0.37101 0.48783 0.0
H1308 H 0.82227 0.42096 0.4884 0.0
C1309 C 0.84957 0.37626 0.56708 0.0
C1310 C 0.18962 0.67906 0.50204 0.0
C1311 C 0.17806 0.69871 0.53359 0.0
H1312 H 0.17636 0.63646 0.46336 0.0
C1313 C 0.14631 0.68606 0.55381 0.0
H1314 H 0.21362 0.68829 0.48565 0.0
C1315 C 0.12495 0.65601 0.5411 0.0
C1316 C 0.13464 0.63873 0.50763 0.0
H1317 H 0.13677 0.70077 0.57825 0.0
H1318 H 0.09943 0.64813 0.55592 0.0
C1319 C 0.16797 0.64962 0.48906 0.0
loop_
_geom_bond_atom_site_label_1
_geom_bond_atom_site_label_2
_geom_bond_distance
_geom_bond_site_symmetry_2
_ccdc_geom_bond_type
H0 C5 0.930 . S
H1 C8 0.930 . S
H2 C10 0.930 . S
H3 C4 1.016 . S
C4 H3 1.016 . S
C4 N11 1.286 . S
C5 H0 0.930 . S
C5 C6 1.397 . S
C5 C7 1.361 . S
C6 C5 1.397 . S
C6 C10 1.390 . S
C7 C5 1.361 . S
C7 C8 1.393 . S
C7 N11 1.413 . S
C8 H1 0.930 . S
C8 C7 1.393 . S
C8 C9 1.399 . S
C9 C8 1.399 . S
C9 C10 1.381 . S
C10 H2 0.930 . S
C10 C6 1.390 . S
C10 C9 1.381 . S
N11 C4 1.286 . S
N11 C7 1.413 . S
H12 C17 0.930 . S
H13 C20 0.930 . S
H14 C22 0.930 . S
H15 C16 1.016 . S
C16 H15 1.016 . S
C16 N23 1.286 . S
C17 H12 0.930 . S
C17 C18 1.397 . S
C17 C19 1.361 . S
C18 C17 1.397 . S
C18 C22 1.390 . S
C19 C17 1.361 . S
C19 C20 1.393 . S
C19 N23 1.413 . S
C20 H13 0.930 . S
C20 C19 1.393 . S
C20 C21 1.399 . S
C21 C20 1.399 . S
C21 C22 1.381 . S
C22 H14 0.930 . S
C22 C18 1.390 . S
C22 C21 1.381 . S
N23 C16 1.286 . S
N23 C19 1.413 . S
H24 C29 0.930 . S
H25 C32 0.930 . S
H26 C34 0.930 . S
H27 C28 1.016 . S
C28 H27 1.016 . S
C28 N35 1.286 . S
C29 H24 0.930 . S
C29 C30 1.397 . S
C29 C31 1.361 . S
C30 C29 1.397 . S
C30 C34 1.390 . S
C31 C29 1.361 . S
C31 C32 1.393 . S
C31 N35 1.413 . S
C32 H25 0.930 . S
C32 C31 1.393 . S
C32 C33 1.399 . S
C33 C32 1.399 . S
C33 C34 1.381 . S
C34 H26 0.930 . S
C34 C30 1.390 . S
C34 C33 1.381 . S
N35 C28 1.286 . S
N35 C31 1.413 . S
H36 C41 0.930 . S
H37 C44 0.930 . S
H38 C46 0.930 . S
H39 C40 1.016 . S
C40 H39 1.016 . S
C40 N47 1.286 1_545 S
C41 H36 0.930 . S
C41 C42 1.397 1_565 S
C41 C43 1.361 . S
C42 C41 1.397 1_545 S
C42 C46 1.390 . S
C43 C41 1.361 . S
C43 C44 1.393 . S
C43 N47 1.413 . S
C44 H37 0.930 . S
C44 C43 1.393 . S
C44 C45 1.399 1_565 S
C45 C44 1.399 1_545 S
C45 C46 1.381 . S
C46 H38 0.930 . S
C46 C42 1.390 . S
C46 C45 1.381 . S
N47 C40 1.286 1_565 S
N47 C43 1.413 . S
H48 C53 0.930 . S
H49 C56 0.930 . S
H50 C58 0.930 . S
H51 C52 1.020 . S
C52 H51 1.020 . S
C52 N59 1.280 1_455 S
C53 H48 0.930 . S
C53 C54 1.397 . S
C53 C55 1.361 . S
C54 C53 1.397 . S
C54 C58 1.390 1_655 S
C55 C53 1.361 . S
C55 C56 1.393 . S
C55 N59 1.413 . S
C56 H49 0.930 . S
C56 C55 1.393 . S
C56 C57 1.402 . S
C57 C56 1.402 . S
C57 C58 1.379 1_655 S
C58 H50 0.930 . S
C58 C54 1.390 1_455 S
C58 C57 1.379 1_455 S
N59 C52 1.280 1_655 S
N59 C55 1.413 . S
H60 C65 0.930 . S
H61 C68 0.930 . S
H62 C70 0.930 1_565 S
H63 C64 1.016 1_565 S
C64 H63 1.016 1_545 S
C64 N71 1.286 . S
C65 H60 0.930 . S
C65 C66 1.397 . S
C65 C67 1.361 . S
C66 C65 1.397 . S
C66 C70 1.390 . S
C67 C65 1.361 . S
C67 C68 1.393 . S
C67 N71 1.413 . S
C68 H61 0.930 . S
C68 C67 1.393 . S
C68 C69 1.399 . S
C69 C68 1.399 . S
C69 C70 1.381 . S
C70 H62 0.930 1_545 S
C70 C66 1.390 . S
C70 C69 1.381 . S
N71 C64 1.286 . S
N71 C67 1.413 . S
H72 C77 0.930 . S
H73 C80 0.930 . S
H74 C82 0.930 . S
H75 C76 1.016 . S
C76 H75 1.016 . S
C76 N83 1.286 . S
C77 H72 0.930 . S
C77 C78 1.397 . S
C77 C79 1.361 . S
C78 C77 1.397 . S
C78 C82 1.390 . S
C79 C77 1.361 . S
C79 C80 1.393 . S
C79 N83 1.413 . S
C80 H73 0.930 . S
C80 C79 1.393 . S
C80 C81 1.399 . S
C81 C80 1.399 . S
C81 C82 1.381 . S
C82 H74 0.930 . S
C82 C78 1.390 . S
C82 C81 1.381 . S
N83 C76 1.286 . S
N83 C79 1.413 . S
H84 C89 0.930 . S
H85 C92 0.930 . S
H86 C94 0.930 . S
H87 C88 1.016 . S
C88 H87 1.016 . S
C88 N95 1.286 . S
C89 H84 0.930 . S
C89 C90 1.397 . S
C89 C91 1.361 . S
C90 C89 1.397 . S
C90 C94 1.390 . S
C91 C89 1.361 . S
C91 C92 1.393 . S
C91 N95 1.413 . S
C92 H85 0.930 . S
C92 C91 1.393 . S
C92 C93 1.399 . S
C93 C92 1.399 . S
C93 C94 1.381 . S
C94 H86 0.930 . S
C94 C90 1.390 . S
C94 C93 1.381 . S
N95 C88 1.286 . S
N95 C91 1.413 . S
H96 C101 0.930 . S
H97 C104 0.930 . S
H98 C106 0.930 . S
H99 C100 1.016 . S
C100 H99 1.016 . S
C100 N107 1.286 . S
C101 H96 0.930 . S
C101 C102 1.397 . S
C101 C103 1.361 . S
C102 C101 1.397 . S
C102 C106 1.390 . S
C103 C101 1.361 . S
C103 C104 1.393 . S
C103 N107 1.413 . S
C104 H97 0.930 . S
C104 C103 1.393 . S
C104 C105 1.399 . S
C105 C104 1.399 . S
C105 C106 1.381 . S
C106 H98 0.930 . S
C106 C102 1.390 . S
C106 C105 1.381 . S
N107 C100 1.286 . S
N107 C103 1.413 . S
H108 C113 0.930 . S
H109 C116 0.930 . S
H110 C118 0.930 . S
H111 C112 1.016 . S
C112 H111 1.016 . S
C112 N119 1.286 1_554 S
C113 H108 0.930 . S
C113 C114 1.397 . S
C113 C115 1.361 . S
C114 C113 1.397 . S
C114 C118 1.390 . S
C115 C113 1.361 . S
C115 C116 1.393 . S
C115 N119 1.413 1_554 S
C116 H109 0.930 . S
C116 C115 1.393 . S
C116 C117 1.399 . S
C117 C116 1.399 . S
C117 C118 1.381 . S
C118 H110 0.930 . S
C118 C114 1.390 . S
C118 C117 1.381 . S
N119 C112 1.286 1_556 S
N119 C115 1.413 1_556 S
H120 C125 0.930 . S
H121 C128 0.930 . S
H122 C130 0.930 . S
H123 C124 1.011 1_556 S
C124 H123 1.011 1_554 S
C124 N131 1.295 . S
C125 H120 0.930 . S
C125 C126 1.397 . S
C125 C127 1.361 . S
C126 C125 1.397 . S
C126 C130 1.390 1_554 S
C127 C125 1.361 . S
C127 C128 1.393 . S
C127 N131 1.413 . S
C128 H121 0.930 . S
C128 C127 1.393 . S
C128 C129 1.399 . S
C129 C128 1.399 . S
C129 C130 1.381 1_554 S
C130 H122 0.930 . S
C130 C126 1.390 1_556 S
C130 C129 1.381 1_556 S
N131 C124 1.295 . S
N131 C127 1.413 . S
H132 C137 0.930 . S
H133 C140 0.930 . S
H134 C142 0.930 . S
H135 C136 1.016 . S
C136 H135 1.016 . S
C136 N143 1.286 1_554 S
C137 H132 0.930 . S
C137 C138 1.397 1_556 S
C137 C139 1.361 . S
C138 C137 1.397 1_554 S
C138 C142 1.390 . S
C139 C137 1.361 . S
C139 C140 1.393 . S
C139 N143 1.413 . S
C140 H133 0.930 . S
C140 C139 1.393 . S
C140 C141 1.399 1_556 S
C141 C140 1.399 1_554 S
C141 C142 1.381 . S
C142 H134 0.930 . S
C142 C138 1.390 . S
C142 C141 1.381 . S
N143 C136 1.286 1_556 S
N143 C139 1.413 . S
H144 C149 0.930 . S
H145 C152 0.930 . S
H146 C154 0.930 . S
H147 C148 1.016 . S
C148 H147 1.016 . S
C148 N155 1.286 . S
C149 H144 0.930 . S
C149 C150 1.397 . S
C149 C151 1.361 . S
C150 C149 1.397 . S
C150 C154 1.390 . S
C151 C149 1.361 . S
C151 C152 1.393 . S
C151 N155 1.413 . S
C152 H145 0.930 . S
C152 C151 1.393 . S
C152 C153 1.399 . S
C153 C152 1.399 . S
C153 C154 1.381 . S
C154 H146 0.930 . S
C154 C150 1.390 . S
C154 C153 1.381 . S
N155 C148 1.286 . S
N155 C151 1.413 . S
H156 C161 0.930 . S
H157 C164 0.930 . S
H158 C166 0.930 . S
H159 C160 1.016 . S
C160 H159 1.016 . S
C160 N167 1.286 . S
C161 H156 0.930 . S
C161 C162 1.397 . S
C161 C163 1.361 . S
C162 C161 1.397 . S
C162 C166 1.390 . S
C163 C161 1.361 . S
C163 C164 1.393 . S
C163 N167 1.413 . S
C164 H157 0.930 . S
C164 C163 1.393 . S
C164 C165 1.399 . S
C165 C164 1.399 . S
C165 C166 1.381 . S
C166 H158 0.930 . S
C166 C162 1.390 . S
C166 C165 1.381 . S
N167 C160 1.286 . S
N167 C163 1.413 . S
H168 C173 0.930 . S
H169 C176 0.930 . S
H170 C178 0.930 . S
H171 C172 1.016 . S
C172 H171 1.016 . S
C172 N179 1.286 . S
C173 H168 0.930 . S
C173 C174 1.397 . S
C173 C175 1.361 . S
C174 C173 1.397 . S
C174 C178 1.390 . S
C175 C173 1.361 . S
C175 C176 1.393 . S
C175 N179 1.413 . S
C176 H169 0.930 . S
C176 C175 1.393 . S
C176 C177 1.399 . S
C177 C176 1.399 . S
C177 C178 1.381 . S
C178 H170 0.930 . S
C178 C174 1.390 . S
C178 C177 1.381 . S
N179 C172 1.286 . S
N179 C175 1.413 . S
H180 C185 0.930 . S
H181 C188 0.930 . S
H182 C190 0.930 . S
H183 C184 1.016 . S
C184 H183 1.016 . S
C184 N191 1.286 . S
C185 H180 0.930 . S
C185 C186 1.397 . S
C185 C187 1.361 . S
C186 C185 1.397 . S
C186 C190 1.390 . S
C187 C185 1.361 . S
C187 C188 1.393 . S
C187 N191 1.413 . S
C188 H181 0.930 . S
C188 C187 1.393 . S
C188 C189 1.399 . S
C189 C188 1.399 . S
C189 C190 1.381 . S
C190 H182 0.930 . S
C190 C186 1.390 . S
C190 C189 1.381 . S
N191 C184 1.286 . S
N191 C187 1.413 . S
H192 C197 0.930 . S
H193 C200 0.930 . S
H194 C202 0.930 . S
H195 C196 1.016 . S
C196 H195 1.016 . S
C196 N203 1.286 . S
C197 H192 0.930 . S
C197 C198 1.397 . S
C197 C199 1.361 . S
C198 C197 1.397 . S
C198 C202 1.390 . S
C199 C197 1.361 . S
C199 C200 1.393 . S
C199 N203 1.413 . S
C200 H193 0.930 . S
C200 C199 1.393 . S
C200 C201 1.399 . S
C201 C200 1.399 . S
C201 C202 1.381 . S
C202 H194 0.930 . S
C202 C198 1.390 . S
C202 C201 1.381 . S
N203 C196 1.286 . S
N203 C199 1.413 . S
H204 C209 0.930 . S
H205 C212 0.930 . S
H206 C214 0.930 . S
H207 C208 1.016 . S
C208 H207 1.016 . S
C208 N215 1.286 . S
C209 H204 0.930 . S
C209 C210 1.397 . S
C209 C211 1.361 . S
C210 C209 1.397 . S
C210 C214 1.390 . S
C211 C209 1.361 . S
C211 C212 1.393 . S
C211 N215 1.413 . S
C212 H205 0.930 . S
C212 C211 1.393 . S
C212 C213 1.399 . S
C213 C212 1.399 . S
C213 C214 1.381 . S
C214 H206 0.930 . S
C214 C210 1.390 . S
C214 C213 1.381 . S
N215 C208 1.286 . S
N215 C211 1.413 . S
H216 C221 0.930 . S
H217 C224 0.930 . S
H218 C226 0.930 . S
H219 C220 1.016 . S
C220 H219 1.016 . S
C220 N227 1.286 . S
C221 H216 0.930 . S
C221 C222 1.397 . S
C221 C223 1.361 . S
C222 C221 1.397 . S
C222 C226 1.390 . S
C223 C221 1.361 . S
C223 C224 1.393 . S
C223 N227 1.413 . S
C224 H217 0.930 . S
C224 C223 1.393 . S
C224 C225 1.399 . S
C225 C224 1.399 . S
C225 C226 1.381 . S
C226 H218 0.930 . S
C226 C222 1.390 . S
C226 C225 1.381 . S
N227 C220 1.286 . S
N227 C223 1.413 . S
H228 C233 0.930 . S
H229 C236 0.930 . S
H230 C238 0.930 . S
H231 C232 1.016 . S
C232 H231 1.016 . S
C232 N239 1.286 . S
C233 H228 0.930 . S
C233 C234 1.397 . S
C233 C235 1.361 . S
C234 C233 1.397 . S
C234 C238 1.390 . S
C235 C233 1.361 . S
C235 C236 1.393 . S
C235 N239 1.413 . S
C236 H229 0.930 . S
C236 C235 1.393 . S
C236 C237 1.399 . S
C237 C236 1.399 . S
C237 C238 1.381 . S
C238 H230 0.930 . S
C238 C234 1.390 . S
C238 C237 1.381 . S
N239 C232 1.286 . S
N239 C235 1.413 . S
H240 C245 0.930 . S
H241 C248 0.930 . S
H242 C250 0.930 . S
H243 C244 1.016 . S
C244 H243 1.016 . S
C244 N251 1.286 . S
C245 H240 0.930 . S
C245 C246 1.397 . S
C245 C247 1.361 . S
C246 C245 1.397 . S
C246 C250 1.390 . S
C247 C245 1.361 . S
C247 C248 1.393 . S
C247 N251 1.413 . S
C248 H241 0.930 . S
C248 C247 1.393 . S
C248 C249 1.399 . S
C249 C248 1.399 . S
C249 C250 1.381 . S
C250 H242 0.930 . S
C250 C246 1.390 . S
C250 C249 1.381 . S
N251 C244 1.286 . S
N251 C247 1.413 . S
H252 C257 0.930 . S
H253 C260 0.930 . S
H254 C262 0.930 . S
H255 C256 1.016 . S
C256 H255 1.016 . S
C256 N263 1.286 . S
C257 H252 0.930 . S
C257 C258 1.397 . S
C257 C259 1.361 . S
C258 C257 1.397 . S
C258 C262 1.390 . S
C259 C257 1.361 . S
C259 C260 1.393 . S
C259 N263 1.413 . S
C260 H253 0.930 . S
C260 C259 1.393 . S
C260 C261 1.399 . S
C261 C260 1.399 . S
C261 C262 1.381 . S
C262 H254 0.930 . S
C262 C258 1.390 . S
C262 C261 1.381 . S
N263 C256 1.286 . S
N263 C259 1.413 . S
H264 C269 0.930 . S
H265 C272 0.930 . S
H266 C274 0.930 . S
H267 C268 1.016 . S
C268 H267 1.016 . S
C268 N275 1.286 . S
C269 H264 0.930 . S
C269 C270 1.397 . S
C269 C271 1.361 . S
C270 C269 1.397 . S
C270 C274 1.390 . S
C271 C269 1.361 . S
C271 C272 1.393 . S
C271 N275 1.413 . S
C272 H265 0.930 . S
C272 C271 1.393 . S
C272 C273 1.399 . S
C273 C272 1.399 . S
C273 C274 1.381 . S
C274 H266 0.930 . S
C274 C270 1.390 . S
C274 C273 1.381 . S
N275 C268 1.286 . S
N275 C271 1.413 . S
H276 C281 0.930 . S
H277 C284 0.930 . S
H278 C286 0.930 . S
H279 C280 1.016 . S
C280 H279 1.016 . S
C280 N287 1.286 . S
C281 H276 0.930 . S
C281 C282 1.397 . S
C281 C283 1.361 . S
C282 C281 1.397 . S
C282 C286 1.390 . S
C283 C281 1.361 . S
C283 C284 1.393 . S
C283 N287 1.413 . S
C284 H277 0.930 . S
C284 C283 1.393 . S
C284 C285 1.399 . S
C285 C284 1.399 . S
C285 C286 1.381 . S
C286 H278 0.930 . S
C286 C282 1.390 . S
C286 C285 1.381 . S
N287 C280 1.286 . S
N287 C283 1.413 . S
Zn288 O290 1.933 1_565 S
Zn288 O308 1.985 . S
Zn288 O319 1.955 . S
Zn289 O290 1.911 . S
Zn289 O309 1.970 . S
Zn289 O325 1.945 . S
Zn289 O332 1.981 . S
O290 Zn288 1.933 1_545 S
O290 Zn289 1.911 . S
O290 H291 0.841 1_655 S
H291 O290 0.841 1_455 S
C292 O293 1.246 . S
C292 O321 1.276 . S
O293 C292 1.246 . S
Zn294 O296 1.911 . S
Zn294 O311 1.970 . S
Zn294 O328 1.945 . S
Zn294 O335 1.981 . S
Zn295 O296 1.933 1_565 S
Zn295 O310 1.985 . S
Zn295 O317 1.955 . S
O296 Zn294 1.911 . S
O296 Zn295 1.933 1_545 S
O296 H297 0.841 . S
H297 O296 0.841 . S
Zn298 O299 1.933 1_565 S
Zn298 O312 1.985 . S
Zn298 O321 1.955 . S
O299 Zn298 1.933 1_545 S
O299 Zn300 1.911 . S
O299 H301 0.841 . S
Zn300 O299 1.911 . S
Zn300 O313 1.970 . S
Zn300 O329 1.981 . S
Zn300 O331 1.945 . S
H301 O299 0.841 . S
Zn302 O303 1.933 1_565 S
Zn302 O315 1.985 . S
Zn302 O323 1.955 . S
O303 Zn302 1.933 1_545 S
O303 H304 0.841 . S
O303 Zn305 1.911 . S
H304 O303 0.841 . S
Zn305 O303 1.911 . S
Zn305 O316 1.970 . S
Zn305 O326 1.981 . S
Zn305 O334 1.945 . S
C306 O307 1.246 . S
C306 O323 1.276 . S
O307 C306 1.246 . S
O308 Zn288 1.985 . S
O308 C318 1.245 1_565 S
O309 Zn289 1.970 . S
O309 C318 1.263 . S
O310 Zn295 1.985 . S
O310 C322 1.245 1_565 S
O311 Zn294 1.970 . S
O311 C322 1.263 . S
O312 Zn298 1.985 . S
O312 C327 1.245 1_565 S
O313 Zn300 1.970 . S
O313 C327 1.263 . S
C314 O325 1.262 1_455 S
C314 O326 1.245 . S
O315 Zn302 1.985 . S
O315 C333 1.245 1_565 S
O316 Zn305 1.970 . S
O316 C333 1.263 . S
O317 Zn295 1.955 . S
O317 C336 1.276 . S
C318 O308 1.245 1_545 S
C318 O309 1.263 . S
O319 Zn288 1.955 . S
O319 C338 1.276 1_655 S
C320 O328 1.262 . S
C320 O329 1.245 1_455 S
O321 C292 1.276 . S
O321 Zn298 1.955 . S
C322 O310 1.245 1_545 S
C322 O311 1.263 . S
O323 Zn302 1.955 . S
O323 C306 1.276 . S
C324 O331 1.262 . S
C324 O332 1.245 . S
O325 Zn289 1.945 . S
O325 C314 1.262 1_655 S
O326 Zn305 1.981 . S
O326 C314 1.245 . S
C327 O312 1.245 1_545 S
C327 O313 1.263 . S
O328 Zn294 1.945 . S
O328 C320 1.262 . S
O329 Zn300 1.981 . S
O329 C320 1.245 1_655 S
C330 O334 1.262 . S
C330 O335 1.245 . S
O331 Zn300 1.945 . S
O331 C324 1.262 . S
O332 Zn289 1.981 . S
O332 C324 1.245 . S
C333 O315 1.245 1_545 S
C333 O316 1.263 . S
O334 Zn305 1.945 . S
O334 C330 1.262 . S
O335 Zn294 1.981 . S
O335 C330 1.245 . S
C336 O317 1.276 . S
C336 O337 1.246 1_455 S
O337 C336 1.246 1_655 S
C338 O319 1.276 1_455 S
C338 O339 1.246 . S
O339 C338 1.246 . S
Zn340 O342 1.933 . S
Zn340 O360 1.985 . S
Zn340 O371 1.955 . S
Zn341 O342 1.911 1_556 S
Zn341 O361 1.970 . S
Zn341 O377 1.945 . S
Zn341 O384 1.981 . S
O342 Zn340 1.933 . S
O342 Zn341 1.911 1_554 S
O342 H343 0.841 . S
H343 O342 0.841 . S
C344 O345 1.246 . S
C344 O373 1.276 . S
O345 C344 1.246 . S
Zn346 O348 1.911 1_556 S
Zn346 O363 1.970 . S
Zn346 O380 1.945 . S
Zn346 O387 1.981 . S
Zn347 O348 1.933 . S
Zn347 O362 1.985 . S
Zn347 O369 1.955 . S
O348 Zn346 1.911 1_554 S
O348 Zn347 1.933 . S
O348 H349 0.841 1_565 S
H349 O348 0.841 1_545 S
Zn350 O351 1.933 . S
Zn350 O364 1.985 . S
Zn350 O373 1.955 . S
O351 Zn350 1.933 . S
O351 Zn352 1.911 1_554 S
O351 H353 0.841 . S
Zn352 O351 1.911 1_556 S
Zn352 O365 1.970 . S
Zn352 O381 1.981 . S
Zn352 O383 1.945 . S
H353 O351 0.841 . S
Zn354 O355 1.933 . S
Zn354 O367 1.985 . S
Zn354 O375 1.955 . S
O355 Zn354 1.933 . S
O355 H356 0.841 . S
O355 Zn357 1.911 1_554 S
H356 O355 0.841 . S
Zn357 O355 1.911 1_556 S
Zn357 O368 1.970 . S
Zn357 O378 2.004 . S
Zn357 O386 1.945 . S
C358 O359 1.246 . S
C358 O375 1.276 . S
O359 C358 1.246 . S
O360 Zn340 1.985 . S
O360 C370 1.245 . S
O361 Zn341 1.970 . S
O361 C370 1.263 1_556 S
O362 Zn347 1.985 . S
O362 C374 1.245 . S
O363 Zn346 1.970 . S
O363 C374 1.263 1_556 S
O364 Zn350 1.985 . S
O364 C379 1.245 . S
O365 Zn352 1.970 . S
O365 C379 1.263 1_556 S
C366 O377 1.262 . S
C366 O378 1.229 1_545 S
O367 Zn354 1.985 . S
O367 C385 1.245 . S
O368 Zn357 1.970 . S
O368 C385 1.263 1_556 S
O369 Zn347 1.955 . S
O369 C388 1.276 1_565 S
C370 O360 1.245 . S
C370 O361 1.263 1_554 S
O371 Zn340 1.955 . S
O371 C390 1.276 . S
C372 O380 1.262 1_545 S
C372 O381 1.245 . S
O373 C344 1.276 . S
O373 Zn350 1.955 . S
C374 O362 1.245 . S
C374 O363 1.263 1_554 S
O375 Zn354 1.955 . S
O375 C358 1.276 . S
C376 O383 1.262 . S
C376 O384 1.245 . S
O377 Zn341 1.945 . S
O377 C366 1.262 . S
O378 Zn357 2.004 . S
O378 C366 1.229 1_565 S
C379 O364 1.245 . S
C379 O365 1.263 1_554 S
O380 Zn346 1.945 . S
O380 C372 1.262 1_565 S
O381 Zn352 1.981 . S
O381 C372 1.245 . S
C382 O386 1.262 . S
C382 O387 1.245 . S
O383 Zn352 1.945 . S
O383 C376 1.262 . S
O384 Zn341 1.981 . S
O384 C376 1.245 . S
C385 O367 1.245 . S
C385 O368 1.263 1_554 S
O386 Zn357 1.945 . S
O386 C382 1.262 . S
O387 Zn346 1.981 . S
O387 C382 1.245 . S
C388 O369 1.276 1_545 S
C388 O389 1.246 . S
O389 C388 1.246 . S
C390 O371 1.276 . S
C390 O391 1.246 1_545 S
O391 C390 1.246 1_565 S
Zn392 O394 1.933 . S
Zn392 O412 1.985 . S
Zn392 O423 1.955 . S
Zn393 O394 1.911 . S
Zn393 O413 1.970 . S
Zn393 O429 1.945 . S
Zn393 O436 1.981 . S
O394 Zn392 1.933 . S
O394 Zn393 1.911 . S
O394 H395 0.841 1_655 S
H395 O394 0.841 1_455 S
C396 O397 1.246 1_554 S
C396 O425 1.276 . S
O397 C396 1.246 1_556 S
Zn398 O400 1.911 . S
Zn398 O415 1.970 . S
Zn398 O432 1.945 . S
Zn398 O439 1.981 . S
Zn399 O400 1.933 . S
Zn399 O414 1.985 . S
Zn399 O421 1.955 . S
O400 Zn398 1.911 . S
O400 Zn399 1.933 . S
O400 H401 0.841 . S
H401 O400 0.841 . S
Zn402 O403 1.933 . S
Zn402 O416 1.985 . S
Zn402 O425 1.955 . S
O403 Zn402 1.933 . S
O403 Zn404 1.911 . S
O403 H405 0.841 . S
Zn404 O403 1.911 . S
Zn404 O417 1.970 . S
Zn404 O433 1.981 1_655 S
Zn404 O435 1.945 . S
H405 O403 0.841 . S
Zn406 O407 1.933 . S
Zn406 O419 1.985 . S
Zn406 O427 1.955 . S
O407 Zn406 1.933 . S
O407 H408 0.841 1_556 S
O407 Zn409 1.911 . S
H408 O407 0.841 1_554 S
Zn409 O407 1.911 . S
Zn409 O420 1.970 . S
Zn409 O430 1.981 . S
Zn409 O438 1.945 . S
C410 O411 1.246 . S
C410 O427 1.276 1_554 S
O411 C410 1.246 . S
O412 Zn392 1.985 . S
O412 C422 1.245 . S
O413 Zn393 1.970 . S
O413 C422 1.263 . S
O414 Zn399 1.985 . S
O414 C426 1.245 . S
O415 Zn398 1.970 . S
O415 C426 1.263 . S
O416 Zn402 1.985 . S
O416 C431 1.245 . S
O417 Zn404 1.970 . S
O417 C431 1.263 . S
C418 O429 1.262 1_455 S
C418 O430 1.245 . S
O419 Zn406 1.985 . S
O419 C437 1.245 . S
O420 Zn409 1.970 . S
O420 C437 1.263 . S
O421 Zn399 1.955 . S
O421 C440 1.276 . S
C422 O412 1.245 . S
C422 O413 1.263 . S
O423 Zn392 1.955 . S
O423 C442 1.276 1_655 S
C424 O432 1.262 . S
C424 O433 1.245 . S
O425 C396 1.276 . S
O425 Zn402 1.955 . S
C426 O414 1.245 . S
C426 O415 1.263 . S
O427 Zn406 1.955 . S
O427 C410 1.276 1_556 S
C428 O435 1.262 . S
C428 O436 1.245 1_554 S
O429 Zn393 1.945 . S
O429 C418 1.262 1_655 S
O430 Zn409 1.981 . S
O430 C418 1.245 . S
C431 O416 1.245 . S
C431 O417 1.263 . S
O432 Zn398 1.945 . S
O432 C424 1.262 . S
O433 Zn404 1.981 1_455 S
O433 C424 1.245 . S
C434 O438 1.262 1_554 S
C434 O439 1.245 . S
O435 Zn404 1.945 . S
O435 C428 1.262 . S
O436 Zn393 1.981 . S
O436 C428 1.245 1_556 S
C437 O419 1.245 . S
C437 O420 1.263 . S
O438 Zn409 1.945 . S
O438 C434 1.262 1_556 S
O439 Zn398 1.981 . S
O439 C434 1.245 . S
C440 O421 1.276 . S
C440 O441 1.246 . S
O441 C440 1.246 . S
C442 O423 1.276 1_455 S
C442 O443 1.246 . S
O443 C442 1.246 . S
Zn444 O446 1.933 1_556 S
Zn444 O464 1.985 . S
Zn444 O475 1.955 . S
Zn445 O446 1.911 . S
Zn445 O465 1.970 . S
Zn445 O481 1.945 . S
Zn445 O488 1.981 . S
O446 Zn444 1.933 1_554 S
O446 Zn445 1.911 . S
O446 H447 0.841 . S
H447 O446 0.841 . S
C448 O449 1.246 . S
C448 O477 1.276 . S
O449 C448 1.246 . S
Zn450 O452 1.911 . S
Zn450 O467 1.970 . S
Zn450 O484 1.945 . S
Zn450 O491 1.981 . S
Zn451 O452 1.933 1_556 S
Zn451 O466 1.985 . S
Zn451 O473 1.955 . S
O452 Zn450 1.911 . S
O452 Zn451 1.933 1_554 S
O452 H453 0.841 . S
H453 O452 0.841 . S
Zn454 O455 1.933 1_556 S
Zn454 O468 1.985 . S
Zn454 O477 1.955 . S
O455 Zn454 1.933 1_554 S
O455 Zn456 1.911 . S
O455 H457 0.841 . S
Zn456 O455 1.911 . S
Zn456 O469 1.970 . S
Zn456 O485 1.981 . S
Zn456 O487 1.945 . S
H457 O455 0.841 . S
Zn458 O459 1.933 1_556 S
Zn458 O471 1.985 . S
Zn458 O479 1.955 . S
O459 Zn458 1.933 1_554 S
O459 H460 0.841 . S
O459 Zn461 1.911 . S
H460 O459 0.841 . S
Zn461 O459 1.911 . S
Zn461 O472 1.970 . S
Zn461 O482 1.981 . S
Zn461 O490 1.945 . S
C462 O463 1.246 . S
C462 O479 1.276 . S
O463 C462 1.246 . S
O464 Zn444 1.985 . S
O464 C474 1.245 1_556 S
O465 Zn445 1.970 . S
O465 C474 1.263 . S
O466 Zn451 1.985 . S
O466 C478 1.245 1_556 S
O467 Zn450 1.970 . S
O467 C478 1.263 . S
O468 Zn454 1.985 . S
O468 C483 1.245 1_556 S
O469 Zn456 1.970 . S
O469 C483 1.263 . S
C470 O481 1.262 . S
C470 O482 1.245 . S
O471 Zn458 1.985 . S
O471 C489 1.245 1_556 S
O472 Zn461 1.970 . S
O472 C489 1.263 . S
O473 Zn451 1.955 . S
O473 C492 1.276 . S
C474 O464 1.245 1_554 S
C474 O465 1.263 . S
O475 Zn444 1.955 . S
O475 C494 1.276 . S
C476 O484 1.262 . S
C476 O485 1.245 . S
O477 C448 1.276 . S
O477 Zn454 1.955 . S
C478 O466 1.245 1_554 S
C478 O467 1.263 . S
O479 Zn458 1.955 . S
O479 C462 1.276 . S
C480 O487 1.262 . S
C480 O488 1.245 . S
O481 Zn445 1.945 . S
O481 C470 1.262 . S
O482 Zn461 1.981 . S
O482 C470 1.245 . S
C483 O468 1.245 1_554 S
C483 O469 1.263 . S
O484 Zn450 1.945 . S
O484 C476 1.262 . S
O485 Zn456 1.981 . S
O485 C476 1.245 . S
C486 O490 1.262 . S
C486 O491 1.245 . S
O487 Zn456 1.945 . S
O487 C480 1.262 . S
O488 Zn445 1.981 . S
O488 C480 1.245 . S
C489 O471 1.245 1_554 S
C489 O472 1.263 . S
O490 Zn461 1.945 . S
O490 C486 1.262 . S
O491 Zn450 1.981 . S
O491 C486 1.245 . S
C492 O473 1.276 . S
C492 O493 1.246 . S
O493 C492 1.246 . S
C494 O475 1.276 . S
C494 O495 1.246 . S
O495 C494 1.246 . S
Zn496 O498 1.933 . S
Zn496 O516 1.985 . S
Zn496 O527 1.955 . S
Zn497 O498 1.911 . S
Zn497 O517 1.970 . S
Zn497 O533 1.945 . S
Zn497 O540 1.981 . S
O498 Zn496 1.933 . S
O498 Zn497 1.911 . S
O498 H499 0.841 1_655 S
H499 O498 0.841 1_455 S
C500 O501 1.246 . S
C500 O529 1.276 . S
O501 C500 1.246 . S
Zn502 O504 1.911 . S
Zn502 O519 1.970 . S
Zn502 O536 1.945 . S
Zn502 O543 1.981 . S
Zn503 O504 1.933 . S
Zn503 O518 1.985 . S
Zn503 O525 1.955 . S
O504 Zn502 1.911 . S
O504 Zn503 1.933 . S
O504 H505 0.841 . S
H505 O504 0.841 . S
Zn506 O507 1.933 . S
Zn506 O520 1.985 . S
Zn506 O529 1.955 . S
O507 Zn506 1.933 . S
O507 Zn508 1.911 . S
O507 H509 0.841 . S
Zn508 O507 1.911 . S
Zn508 O521 1.970 . S
Zn508 O537 1.981 . S
Zn508 O539 1.945 . S
H509 O507 0.841 . S
Zn510 O511 1.933 . S
Zn510 O523 1.985 . S
Zn510 O531 1.955 . S
O511 Zn510 1.933 . S
O511 H512 0.841 . S
O511 Zn513 1.911 . S
H512 O511 0.841 . S
Zn513 O511 1.911 . S
Zn513 O524 1.970 . S
Zn513 O534 1.981 . S
Zn513 O542 1.945 . S
C514 O515 1.246 . S
C514 O531 1.276 . S
O515 C514 1.246 . S
O516 Zn496 1.985 . S
O516 C526 1.245 . S
O517 Zn497 1.970 . S
O517 C526 1.263 . S
O518 Zn503 1.985 . S
O518 C530 1.245 . S
O519 Zn502 1.970 . S
O519 C530 1.263 . S
O520 Zn506 1.985 . S
O520 C535 1.245 . S
O521 Zn508 1.970 . S
O521 C535 1.263 . S
C522 O533 1.262 1_455 S
C522 O534 1.245 . S
O523 Zn510 1.985 . S
O523 C541 1.245 . S
O524 Zn513 1.970 . S
O524 C541 1.263 . S
O525 Zn503 1.955 . S
O525 C544 1.276 . S
C526 O516 1.245 . S
C526 O517 1.263 . S
O527 Zn496 1.955 . S
O527 C546 1.276 1_655 S
C528 O536 1.262 . S
C528 O537 1.245 1_455 S
O529 C500 1.276 . S
O529 Zn506 1.955 . S
C530 O518 1.245 . S
C530 O519 1.263 . S
O531 Zn510 1.955 . S
O531 C514 1.276 . S
C532 O539 1.262 . S
C532 O540 1.245 . S
O533 Zn497 1.945 . S
O533 C522 1.262 1_655 S
O534 Zn513 1.981 . S
O534 C522 1.245 . S
C535 O520 1.245 . S
C535 O521 1.263 . S
O536 Zn502 1.945 . S
O536 C528 1.262 . S
O537 Zn508 1.981 . S
O537 C528 1.245 1_655 S
C538 O542 1.262 . S
C538 O543 1.245 . S
O539 Zn508 1.945 . S
O539 C532 1.262 . S
O540 Zn497 1.981 . S
O540 C532 1.245 . S
C541 O523 1.245 . S
C541 O524 1.263 . S
O542 Zn513 1.945 . S
O542 C538 1.262 . S
O543 Zn502 1.981 . S
O543 C538 1.245 . S
C544 O525 1.276 . S
C544 O545 1.246 1_455 S
O545 C544 1.246 1_655 S
C546 O527 1.276 1_455 S
C546 O547 1.246 . S
O547 C546 1.246 . S
Zn548 O550 1.933 1_565 S
Zn548 O568 1.985 . S
Zn548 O579 1.955 . S
Zn549 O550 1.911 . S
Zn549 O569 1.970 . S
Zn549 O585 1.945 . S
Zn549 O592 1.981 . S
O550 Zn548 1.933 1_545 S
O550 Zn549 1.911 . S
O550 H551 0.841 . S
H551 O550 0.841 . S
C552 O553 1.246 . S
C552 O581 1.276 . S
O553 C552 1.246 . S
Zn554 O556 1.911 . S
Zn554 O571 1.970 . S
Zn554 O588 1.945 . S
Zn554 O595 1.981 . S
Zn555 O556 1.933 1_565 S
Zn555 O570 1.985 . S
Zn555 O577 1.955 . S
O556 Zn554 1.911 . S
O556 Zn555 1.933 1_545 S
O556 H557 0.841 . S
H557 O556 0.841 . S
Zn558 O559 1.933 1_565 S
Zn558 O572 1.985 . S
Zn558 O581 1.955 . S
O559 Zn558 1.933 1_545 S
O559 Zn560 1.911 . S
O559 H561 0.841 . S
Zn560 O559 1.911 . S
Zn560 O573 1.970 . S
Zn560 O589 1.981 . S
Zn560 O591 1.945 . S
H561 O559 0.841 . S
Zn562 O563 1.933 1_565 S
Zn562 O575 1.985 . S
Zn562 O583 1.955 . S
O563 Zn562 1.933 1_545 S
O563 H564 0.841 . S
O563 Zn565 1.911 . S
H564 O563 0.841 . S
Zn565 O563 1.911 . S
Zn565 O576 1.970 . S
Zn565 O586 1.981 . S
Zn565 O594 1.945 . S
C566 O567 1.246 . S
C566 O583 1.276 . S
O567 C566 1.246 . S
O568 Zn548 1.985 . S
O568 C578 1.245 1_565 S
O569 Zn549 1.970 . S
O569 C578 1.263 . S
O570 Zn555 1.985 . S
O570 C582 1.245 1_565 S
O571 Zn554 1.970 . S
O571 C582 1.263 . S
O572 Zn558 1.985 . S
O572 C587 1.245 1_565 S
O573 Zn560 1.970 . S
O573 C587 1.263 . S
C574 O585 1.262 . S
C574 O586 1.245 . S
O575 Zn562 1.985 . S
O575 C593 1.245 1_565 S
O576 Zn565 1.970 . S
O576 C593 1.263 . S
O577 Zn555 1.955 . S
O577 C596 1.276 . S
C578 O568 1.245 1_545 S
C578 O569 1.263 . S
O579 Zn548 1.955 . S
O579 C598 1.276 . S
C580 O588 1.262 . S
C580 O589 1.245 . S
O581 C552 1.276 . S
O581 Zn558 1.955 . S
C582 O570 1.245 1_545 S
C582 O571 1.263 . S
O583 Zn562 1.955 . S
O583 C566 1.276 . S
C584 O591 1.262 . S
C584 O592 1.245 . S
O585 Zn549 1.945 . S
O585 C574 1.262 . S
O586 Zn565 1.981 . S
O586 C574 1.245 . S
C587 O572 1.245 1_545 S
C587 O573 1.263 . S
O588 Zn554 1.945 . S
O588 C580 1.262 . S
O589 Zn560 1.981 . S
O589 C580 1.245 . S
C590 O594 1.262 . S
C590 O595 1.245 . S
O591 Zn560 1.945 . S
O591 C584 1.262 . S
O592 Zn549 1.981 . S
O592 C584 1.245 . S
C593 O575 1.245 1_545 S
C593 O576 1.263 . S
O594 Zn565 1.945 . S
O594 C590 1.262 . S
O595 Zn554 1.981 . S
O595 C590 1.245 . S
C596 O577 1.276 . S
C596 O597 1.246 . S
O597 C596 1.246 . S
C598 O579 1.276 . S
C598 O599 1.246 . S
O599 C598 1.246 . S
C600 C601 1.387 . S
C600 H604 0.950 . S
C600 C609 1.390 . S
C601 C600 1.387 . S
C601 C603 1.387 . S
H602 C609 0.950 . S
C603 C601 1.387 . S
C603 C605 1.390 . S
C603 H607 0.950 . S
H604 C600 0.950 . S
C605 C603 1.390 . S
C605 C606 1.387 . S
C605 H608 0.950 . S
C606 C605 1.387 . S
C606 C609 1.387 . S
H607 C603 0.950 . S
H608 C605 0.950 . S
C609 C600 1.390 . S
C609 H602 0.950 . S
C609 C606 1.387 . S
C610 C611 1.387 . S
C610 H614 0.950 . S
C610 C619 1.390 . S
C611 C610 1.387 . S
C611 C613 1.387 . S
H612 C619 0.950 . S
C613 C611 1.387 . S
C613 C615 1.390 . S
C613 H617 0.950 . S
H614 C610 0.950 . S
C615 C613 1.390 . S
C615 C616 1.387 . S
C615 H618 0.950 . S
C616 C615 1.387 . S
C616 C619 1.387 . S
H617 C613 0.950 . S
H618 C615 0.950 . S
C619 C610 1.390 . S
C619 H612 0.950 . S
C619 C616 1.387 . S
C620 C621 1.387 . S
C620 H624 0.950 . S
C620 C629 1.390 . S
C621 C620 1.387 . S
C621 C623 1.387 . S
H622 C629 0.950 . S
C623 C621 1.387 . S
C623 C625 1.390 . S
C623 H627 0.950 . S
H624 C620 0.950 . S
C625 C623 1.390 . S
C625 C626 1.387 . S
C625 H628 0.950 . S
C626 C625 1.387 . S
C626 C629 1.387 . S
H627 C623 0.950 . S
H628 C625 0.950 . S
C629 C620 1.390 . S
C629 H622 0.950 . S
C629 C626 1.387 . S
C630 C631 1.387 . S
C630 H634 0.950 . S
C630 C639 1.390 . S
C631 C630 1.387 . S
C631 C633 1.387 . S
H632 C639 0.950 . S
C633 C631 1.387 . S
C633 C635 1.390 . S
C633 H637 0.950 . S
H634 C630 0.950 . S
C635 C633 1.390 . S
C635 C636 1.387 . S
C635 H638 0.950 . S
C636 C635 1.387 . S
C636 C639 1.387 . S
H637 C633 0.950 . S
H638 C635 0.950 . S
C639 C630 1.390 . S
C639 H632 0.950 . S
C639 C636 1.387 . S
C640 C641 1.387 . S
C640 H644 0.950 . S
C640 C649 1.390 . S
C641 C640 1.387 . S
C641 C643 1.387 . S
H642 C649 0.950 . S
C643 C641 1.387 . S
C643 C645 1.390 . S
C643 H647 0.950 . S
H644 C640 0.950 . S
C645 C643 1.390 . S
C645 C646 1.387 . S
C645 H648 0.950 . S
C646 C645 1.387 . S
C646 C649 1.387 . S
H647 C643 0.950 . S
H648 C645 0.950 . S
C649 C640 1.390 . S
C649 H642 0.950 . S
C649 C646 1.387 . S
C650 C651 1.387 . S
C650 H654 0.950 . S
C650 C659 1.390 . S
C651 C650 1.387 . S
C651 C653 1.387 . S
H652 C659 0.950 . S
C653 C651 1.387 . S
C653 C655 1.390 . S
C653 H657 0.950 . S
H654 C650 0.950 . S
C655 C653 1.390 . S
C655 C656 1.387 . S
C655 H658 0.950 . S
C656 C655 1.387 . S
C656 C659 1.387 . S
H657 C653 0.950 . S
H658 C655 0.950 . S
C659 C650 1.390 . S
C659 H652 0.950 . S
C659 C656 1.387 . S
C660 C661 1.387 . S
C660 H664 0.950 . S
C660 C669 1.390 . S
C661 C660 1.387 . S
C661 C663 1.387 . S
H662 C669 0.950 . S
C663 C661 1.387 . S
C663 C665 1.390 . S
C663 H667 0.950 . S
H664 C660 0.950 . S
C665 C663 1.390 . S
C665 C666 1.387 . S
C665 H668 0.950 . S
C666 C665 1.387 . S
C666 C669 1.387 . S
H667 C663 0.950 . S
H668 C665 0.950 . S
C669 C660 1.390 . S
C669 H662 0.950 . S
C669 C666 1.387 . S
C670 C671 1.387 . S
C670 H674 0.950 . S
C670 C679 1.390 . S
C671 C670 1.387 . S
C671 C673 1.387 . S
H672 C679 0.950 . S
C673 C671 1.387 . S
C673 C675 1.390 . S
C673 H677 0.950 . S
H674 C670 0.950 . S
C675 C673 1.390 . S
C675 C676 1.387 . S
C675 H678 0.950 . S
C676 C675 1.387 . S
C676 C679 1.387 . S
H677 C673 0.950 . S
H678 C675 0.950 . S
C679 C670 1.390 . S
C679 H672 0.950 . S
C679 C676 1.387 . S
C680 C681 1.387 . S
C680 H684 0.950 . S
C680 C689 1.390 . S
C681 C680 1.387 . S
C681 C683 1.387 . S
H682 C689 0.950 . S
C683 C681 1.387 . S
C683 C685 1.390 . S
C683 H687 0.950 . S
H684 C680 0.950 . S
C685 C683 1.390 . S
C685 C686 1.387 . S
C685 H688 0.950 . S
C686 C685 1.387 . S
C686 C689 1.387 . S
H687 C683 0.950 . S
H688 C685 0.950 . S
C689 C680 1.390 . S
C689 H682 0.950 . S
C689 C686 1.387 . S
C690 C691 1.387 . S
C690 H694 0.950 . S
C690 C699 1.390 . S
C691 C690 1.387 . S
C691 C693 1.387 . S
H692 C699 0.950 . S
C693 C691 1.387 . S
C693 C695 1.390 . S
C693 H697 0.950 . S
H694 C690 0.950 . S
C695 C693 1.390 . S
C695 C696 1.387 . S
C695 H698 0.950 . S
C696 C695 1.387 . S
C696 C699 1.387 . S
H697 C693 0.950 . S
H698 C695 0.950 . S
C699 C690 1.390 . S
C699 H692 0.950 . S
C699 C696 1.387 . S
C700 C701 1.387 . S
C700 H704 0.950 . S
C700 C709 1.390 . S
C701 C700 1.387 . S
C701 C703 1.387 . S
H702 C709 0.950 . S
C703 C701 1.387 . S
C703 C705 1.390 . S
C703 H707 0.950 . S
H704 C700 0.950 . S
C705 C703 1.390 . S
C705 C706 1.387 . S
C705 H708 0.950 . S
C706 C705 1.387 . S
C706 C709 1.387 . S
H707 C703 0.950 . S
H708 C705 0.950 . S
C709 C700 1.390 . S
C709 H702 0.950 . S
C709 C706 1.387 . S
C710 C711 1.387 . S
C710 H714 0.950 . S
C710 C719 1.390 . S
C711 C710 1.387 . S
C711 C713 1.387 . S
H712 C719 0.950 . S
C713 C711 1.387 . S
C713 C715 1.390 . S
C713 H717 0.950 . S
H714 C710 0.950 . S
C715 C713 1.390 . S
C715 C716 1.387 . S
C715 H718 0.950 . S
C716 C715 1.387 . S
C716 C719 1.387 . S
H717 C713 0.950 . S
H718 C715 0.950 . S
C719 C710 1.390 . S
C719 H712 0.950 . S
C719 C716 1.387 . S
C720 C721 1.387 . S
C720 H724 0.950 . S
C720 C729 1.390 . S
C721 C720 1.387 . S
C721 C723 1.387 1_554 S
H722 C729 0.950 . S
C723 C721 1.387 1_556 S
C723 C725 1.390 . S
C723 H727 0.950 . S
H724 C720 0.950 . S
C725 C723 1.390 . S
C725 C726 1.387 1_556 S
C725 H728 0.950 . S
C726 C725 1.387 1_554 S
C726 C729 1.387 . S
H727 C723 0.950 . S
H728 C725 0.950 . S
C729 C720 1.390 . S
C729 H722 0.950 . S
C729 C726 1.387 . S
C730 C731 1.387 1_556 S
C730 H734 0.950 . S
C730 C739 1.390 . S
C731 C730 1.387 1_554 S
C731 C733 1.387 . S
H732 C739 0.950 . S
C733 C731 1.387 . S
C733 C735 1.390 . S
C733 H737 0.950 . S
H734 C730 0.950 . S
C735 C733 1.390 . S
C735 C736 1.387 . S
C735 H738 0.950 . S
C736 C735 1.387 . S
C736 C739 1.387 1_554 S
H737 C733 0.950 . S
H738 C735 0.950 . S
C739 C730 1.390 . S
C739 H732 0.950 . S
C739 C736 1.387 1_556 S
C740 C741 1.387 1_556 S
C740 H744 0.950 . S
C740 C749 1.390 . S
C741 C740 1.387 1_554 S
C741 C743 1.387 . S
H742 C749 0.950 . S
C743 C741 1.387 . S
C743 C745 1.390 . S
C743 H747 0.950 . S
H744 C740 0.950 . S
C745 C743 1.390 . S
C745 C746 1.387 . S
C745 H748 0.950 . S
C746 C745 1.387 . S
C746 C749 1.387 1_554 S
H747 C743 0.950 . S
H748 C745 0.950 . S
C749 C740 1.390 . S
C749 H742 0.950 . S
C749 C746 1.387 1_556 S
C750 C751 1.387 . S
C750 H754 0.950 . S
C750 C759 1.390 . S
C751 C750 1.387 . S
C751 C753 1.387 1_554 S
H752 C759 0.950 . S
C753 C751 1.387 1_556 S
C753 C755 1.390 . S
C753 H757 0.950 . S
H754 C750 0.950 . S
C755 C753 1.390 . S
C755 C756 1.387 1_556 S
C755 H758 0.950 . S
C756 C755 1.387 1_554 S
C756 C759 1.387 . S
H757 C753 0.950 . S
H758 C755 0.950 . S
C759 C750 1.390 . S
C759 H752 0.950 . S
C759 C756 1.387 . S
C760 C761 1.387 1_655 S
C760 H764 0.950 . S
C760 C769 1.390 . S
C761 C760 1.387 1_455 S
C761 C763 1.387 . S
H762 C769 0.950 . S
C763 C761 1.387 . S
C763 C765 1.390 . S
C763 H767 0.950 . S
H764 C760 0.950 . S
C765 C763 1.390 . S
C765 C766 1.387 . S
C765 H768 0.950 . S
C766 C765 1.387 . S
C766 C769 1.387 1_455 S
H767 C763 0.950 . S
H768 C765 0.950 . S
C769 C760 1.390 . S
C769 H762 0.950 . S
C769 C766 1.387 1_655 S
C770 C771 1.387 1_565 S
C770 H774 0.950 . S
C770 C779 1.390 . S
C771 C770 1.387 1_545 S
C771 C773 1.387 . S
H772 C779 0.950 . S
C773 C771 1.387 . S
C773 C775 1.390 . S
C773 H777 0.950 . S
H774 C770 0.950 . S
C775 C773 1.390 . S
C775 C776 1.387 . S
C775 H778 0.950 . S
C776 C775 1.387 . S
C776 C779 1.387 1_545 S
H777 C773 0.950 . S
H778 C775 0.950 . S
C779 C770 1.390 . S
C779 H772 0.950 . S
C779 C776 1.387 1_565 S
C780 C781 1.387 . S
C780 H784 0.950 . S
C780 C789 1.390 . S
C781 C780 1.387 . S
C781 C783 1.387 1_455 S
H782 C789 0.950 . S
C783 C781 1.387 1_655 S
C783 C785 1.390 . S
C783 H787 0.950 . S
H784 C780 0.950 . S
C785 C783 1.390 . S
C785 C786 1.387 1_655 S
C785 H788 0.950 . S
C786 C785 1.387 1_455 S
C786 C789 1.387 . S
H787 C783 0.950 . S
H788 C785 0.950 . S
C789 C780 1.390 . S
C789 H782 0.950 . S
C789 C786 1.387 . S
C790 C791 1.387 . S
C790 H794 0.950 . S
C790 C799 1.390 . S
C791 C790 1.387 . S
C791 C793 1.387 1_545 S
H792 C799 0.950 . S
C793 C791 1.387 1_565 S
C793 C795 1.390 . S
C793 H797 0.950 . S
H794 C790 0.950 . S
C795 C793 1.390 . S
C795 C796 1.387 1_565 S
C795 H798 0.950 . S
C796 C795 1.387 1_545 S
C796 C799 1.387 . S
H797 C793 0.950 . S
H798 C795 0.950 . S
C799 C790 1.390 . S
C799 H792 0.950 . S
C799 C796 1.387 . S
C800 C801 1.387 . S
C800 H804 0.950 1_455 S
C800 C809 1.390 . S
C801 C800 1.387 . S
C801 C803 1.387 . S
H802 C809 0.950 1_655 S
C803 C801 1.387 . S
C803 C805 1.390 . S
C803 H807 0.950 . S
H804 C800 0.950 1_655 S
C805 C803 1.390 . S
C805 C806 1.387 . S
C805 H808 0.950 . S
C806 C805 1.387 . S
C806 C809 1.387 . S
H807 C803 0.950 . S
H808 C805 0.950 . S
C809 C800 1.390 . S
C809 H802 0.950 1_455 S
C809 C806 1.387 . S
C810 C811 1.387 . S
C810 H814 0.950 1_545 S
C810 C819 1.390 1_545 S
C811 C810 1.387 . S
C811 C813 1.387 . S
H812 C819 0.950 . S
C813 C811 1.387 . S
C813 C815 1.390 . S
C813 H817 0.950 . S
H814 C810 0.950 1_565 S
C815 C813 1.390 . S
C815 C816 1.387 . S
C815 H818 0.950 . S
C816 C815 1.387 . S
C816 C819 1.387 1_545 S
H817 C813 0.950 . S
H818 C815 0.950 . S
C819 C810 1.390 1_565 S
C819 H812 0.950 . S
C819 C816 1.387 1_565 S
C820 C821 1.387 . S
C820 H824 0.950 . S
C820 C829 1.390 . S
C821 C820 1.387 . S
C821 C823 1.387 1_455 S
H822 C829 0.950 . S
C823 C821 1.387 1_655 S
C823 C825 1.390 . S
C823 H827 0.950 . S
H824 C820 0.950 . S
C825 C823 1.390 . S
C825 C826 1.387 1_655 S
C825 H828 0.950 . S
C826 C825 1.387 1_455 S
C826 C829 1.387 . S
H827 C823 0.950 . S
H828 C825 0.950 . S
C829 C820 1.390 . S
C829 H822 0.950 . S
C829 C826 1.387 . S
C830 C831 1.387 1_565 S
C830 H834 0.950 . S
C830 C839 1.390 . S
C831 C830 1.387 1_545 S
C831 C833 1.387 . S
H832 C839 0.950 . S
C833 C831 1.387 . S
C833 C835 1.390 . S
C833 H837 0.950 . S
H834 C830 0.950 . S
C835 C833 1.390 . S
C835 C836 1.387 . S
C835 H838 0.950 . S
C836 C835 1.387 . S
C836 C839 1.387 1_545 S
H837 C833 0.950 . S
H838 C835 0.950 . S
C839 C830 1.390 . S
C839 H832 0.950 . S
C839 C836 1.387 1_565 S
C840 C841 1.387 . S
C840 H844 0.950 . S
C840 C849 1.390 . S
C841 C840 1.387 . S
C841 C843 1.387 . S
H842 C849 0.950 . S
C843 C841 1.387 . S
C843 C845 1.390 . S
C843 H847 0.950 1_455 S
H844 C840 0.950 . S
C845 C843 1.390 . S
C845 C846 1.387 . S
C845 H848 0.950 1_455 S
C846 C845 1.387 . S
C846 C849 1.387 . S
H847 C843 0.950 1_655 S
H848 C845 0.950 1_655 S
C849 C840 1.390 . S
C849 H842 0.950 . S
C849 C846 1.387 . S
C850 C851 1.387 . S
C850 H854 0.950 . S
C850 C859 1.390 . S
C851 C850 1.387 . S
C851 C853 1.390 1_545 S
H852 C859 0.950 . S
C853 C851 1.390 1_565 S
C853 C855 1.390 . S
C853 H857 0.947 . S
H854 C850 0.950 . S
C855 C853 1.390 . S
C855 C856 1.387 1_565 S
C855 H858 0.950 . S
C856 C855 1.387 1_545 S
C856 C859 1.387 . S
H857 C853 0.947 . S
H858 C855 0.950 . S
C859 C850 1.390 . S
C859 H852 0.950 . S
C859 C856 1.387 . S
C860 C861 1.387 . S
C860 H864 0.950 . S
C860 C869 1.390 . S
C861 C860 1.387 . S
C861 C863 1.387 1_455 S
H862 C869 0.950 . S
C863 C861 1.387 1_655 S
C863 C865 1.390 . S
C863 H867 0.950 . S
H864 C860 0.950 . S
C865 C863 1.390 . S
C865 C866 1.387 1_655 S
C865 H868 0.950 . S
C866 C865 1.387 1_455 S
C866 C869 1.387 . S
H867 C863 0.950 . S
H868 C865 0.950 . S
C869 C860 1.390 . S
C869 H862 0.950 . S
C869 C866 1.387 . S
C870 C871 1.387 . S
C870 H874 0.950 . S
C870 C879 1.390 . S
C871 C870 1.387 . S
C871 C873 1.387 1_545 S
H872 C879 0.950 . S
C873 C871 1.387 1_565 S
C873 C875 1.390 . S
C873 H877 0.950 . S
H874 C870 0.950 . S
C875 C873 1.390 . S
C875 C876 1.387 1_565 S
C875 H878 0.950 . S
C876 C875 1.387 1_545 S
C876 C879 1.387 . S
H877 C873 0.950 . S
H878 C875 0.950 . S
C879 C870 1.390 . S
C879 H872 0.950 . S
C879 C876 1.387 . S
C880 C881 1.375 1_455 S
C880 H884 0.950 . S
C880 C889 1.390 . S
C881 C880 1.375 1_655 S
C881 C883 1.400 . S
H882 C889 0.950 . S
C883 C881 1.400 . S
C883 C885 1.390 . S
C883 H887 0.950 . S
H884 C880 0.950 . S
C885 C883 1.390 . S
C885 C886 1.376 1_655 S
C885 H888 0.950 . S
C886 C885 1.376 1_455 S
C886 C889 1.399 . S
H887 C883 0.950 . S
H888 C885 0.950 . S
C889 C880 1.390 . S
C889 H882 0.950 . S
C889 C886 1.399 . S
C890 C891 1.387 1_565 S
C890 H894 0.950 . S
C890 C899 1.390 . S
C891 C890 1.387 1_545 S
C891 C893 1.387 . S
H892 C899 0.950 . S
C893 C891 1.387 . S
C893 C895 1.390 . S
C893 H897 0.950 . S
H894 C890 0.950 . S
C895 C893 1.390 . S
C895 C896 1.387 . S
C895 H898 0.950 . S
C896 C895 1.387 . S
C896 C899 1.387 1_545 S
H897 C893 0.950 . S
H898 C895 0.950 . S
C899 C890 1.390 . S
C899 H892 0.950 . S
C899 C896 1.387 1_565 S
C900 C901 1.387 . S
C900 H904 0.950 . S
C900 C909 1.390 . S
C901 C900 1.387 . S
C901 C903 1.387 1_455 S
H902 C909 0.950 . S
C903 C901 1.387 1_655 S
C903 C905 1.390 . S
C903 H907 0.950 . S
H904 C900 0.950 . S
C905 C903 1.390 . S
C905 C906 1.387 1_655 S
C905 H908 0.950 . S
C906 C905 1.387 1_455 S
C906 C909 1.387 . S
H907 C903 0.950 . S
H908 C905 0.950 . S
C909 C900 1.390 . S
C909 H902 0.950 . S
C909 C906 1.387 . S
C910 C911 1.387 . S
C910 H914 0.950 . S
C910 C919 1.390 . S
C911 C910 1.387 . S
C911 C913 1.387 1_545 S
H912 C919 0.950 . S
C913 C911 1.387 1_565 S
C913 C915 1.390 . S
C913 H917 0.950 . S
H914 C910 0.950 . S
C915 C913 1.390 . S
C915 C916 1.387 1_565 S
C915 H918 0.950 . S
C916 C915 1.387 1_545 S
C916 C919 1.387 . S
H917 C913 0.950 . S
H918 C915 0.950 . S
C919 C910 1.390 . S
C919 H912 0.950 . S
C919 C916 1.387 . S
C920 C921 1.387 1_565 S
C920 H924 0.950 . S
C920 C929 1.390 . S
C921 C920 1.387 1_545 S
C921 C923 1.387 . S
H922 C929 0.950 . S
C923 C921 1.387 . S
C923 C925 1.390 . S
C923 H927 0.950 . S
H924 C920 0.950 . S
C925 C923 1.390 . S
C925 C926 1.387 . S
C925 H928 0.950 . S
C926 C925 1.387 . S
C926 C929 1.387 1_545 S
H927 C923 0.950 . S
H928 C925 0.950 . S
C929 C920 1.390 . S
C929 H922 0.950 . S
C929 C926 1.387 1_565 S
C930 C931 1.387 . S
C930 H934 0.950 . S
C930 C939 1.390 . S
C931 C930 1.387 . S
C931 C933 1.387 . S
H932 C939 0.950 . S
C933 C931 1.387 . S
C933 C935 1.390 1_455 S
C933 H937 0.950 1_455 S
H934 C930 0.950 . S
C935 C933 1.390 1_655 S
C935 C936 1.387 1_655 S
C935 H938 0.950 . S
C936 C935 1.387 1_455 S
C936 C939 1.387 . S
H937 C933 0.950 1_655 S
H938 C935 0.950 . S
C939 C930 1.390 . S
C939 H932 0.950 . S
C939 C936 1.387 . S
C940 C941 1.387 . S
C940 H944 0.950 1_545 S
C940 C949 1.390 . S
C941 C940 1.387 . S
C941 C943 1.387 . S
H942 C949 0.950 1_565 S
C943 C941 1.387 . S
C943 C945 1.390 . S
C943 H947 0.950 . S
H944 C940 0.950 1_565 S
C945 C943 1.390 . S
C945 C946 1.387 . S
C945 H948 0.950 . S
C946 C945 1.387 . S
C946 C949 1.387 . S
H947 C943 0.950 . S
H948 C945 0.950 . S
C949 C940 1.390 . S
C949 H942 0.950 1_545 S
C949 C946 1.387 . S
C950 C951 1.387 . S
C950 H954 0.950 . S
C950 C959 1.390 . S
C951 C950 1.387 . S
C951 C953 1.387 1_455 S
H952 C959 0.950 . S
C953 C951 1.387 1_655 S
C953 C955 1.390 . S
C953 H957 0.950 . S
H954 C950 0.950 . S
C955 C953 1.390 . S
C955 C956 1.387 1_655 S
C955 H958 0.950 . S
C956 C955 1.387 1_455 S
C956 C959 1.387 . S
H957 C953 0.950 . S
H958 C955 0.950 . S
C959 C950 1.390 . S
C959 H952 0.950 . S
C959 C956 1.387 . S
C960 C961 1.387 1_565 S
C960 H964 0.950 . S
C960 C969 1.390 . S
C961 C960 1.387 1_545 S
C961 C963 1.387 . S
H962 C969 0.950 . S
C963 C961 1.387 . S
C963 C965 1.390 . S
C963 H967 0.950 . S
H964 C960 0.950 . S
C965 C963 1.390 . S
C965 C966 1.387 . S
C965 H968 0.950 . S
C966 C965 1.387 . S
C966 C969 1.387 1_545 S
H967 C963 0.950 . S
H968 C965 0.950 . S
C969 C960 1.390 . S
C969 H962 0.950 . S
C969 C966 1.387 1_565 S
C970 C971 1.387 . S
C970 H974 0.950 1_455 S
C970 C979 1.390 . S
C971 C970 1.387 . S
C971 C973 1.387 . S
H972 C979 0.950 . S
C973 C971 1.387 . S
C973 C975 1.390 . S
C973 H977 0.950 . S
H974 C970 0.950 1_655 S
C975 C973 1.390 . S
C975 C976 1.387 . S
C975 H978 0.950 . S
C976 C975 1.387 . S
C976 C979 1.387 . S
H977 C973 0.950 . S
H978 C975 0.950 . S
C979 C970 1.390 . S
C979 H972 0.950 . S
C979 C976 1.387 . S
C980 C981 1.387 . S
C980 H984 0.950 . S
C980 C989 1.390 . S
C981 C980 1.387 . S
C981 C983 1.387 . S
H982 C989 0.950 . S
C983 C981 1.387 . S
C983 C985 1.390 . S
C983 H987 0.950 . S
H984 C980 0.950 . S
C985 C983 1.390 . S
C985 C986 1.387 . S
C985 H988 0.950 . S
C986 C985 1.387 . S
C986 C989 1.387 . S
H987 C983 0.950 . S
H988 C985 0.950 . S
C989 C980 1.390 . S
C989 H982 0.950 . S
C989 C986 1.387 . S
C990 C991 1.387 1_655 S
C990 H994 0.950 . S
C990 C999 1.390 . S
C991 C990 1.387 1_455 S
C991 C993 1.387 . S
H992 C999 0.950 . S
C993 C991 1.387 . S
C993 C995 1.390 . S
C993 H997 0.950 . S
H994 C990 0.950 . S
C995 C993 1.390 . S
C995 C996 1.387 . S
C995 H998 0.950 . S
C996 C995 1.387 . S
C996 C999 1.387 1_455 S
H997 C993 0.950 . S
H998 C995 0.950 . S
C999 C990 1.390 . S
C999 H992 0.950 . S
C999 C996 1.387 1_655 S
C1000 C1001 1.387 1_556 S
C1000 H1004 0.950 . S
C1000 C1009 1.390 . S
C1001 C1000 1.387 1_554 S
C1001 C1003 1.387 . S
H1002 C1009 0.950 . S
C1003 C1001 1.387 . S
C1003 C1005 1.390 . S
C1003 H1007 0.950 . S
H1004 C1000 0.950 . S
C1005 C1003 1.390 . S
C1005 C1006 1.387 . S
C1005 H1008 0.950 . S
C1006 C1005 1.387 . S
C1006 C1009 1.387 1_554 S
H1007 C1003 0.950 . S
H1008 C1005 0.950 . S
C1009 C1000 1.390 . S
C1009 H1002 0.950 . S
C1009 C1006 1.387 1_556 S
C1010 C1011 1.387 . S
C1010 H1014 0.950 . S
C1010 C1019 1.390 . S
C1011 C1010 1.387 . S
C1011 C1013 1.387 1_554 S
H1012 C1019 0.950 . S
C1013 C1011 1.387 1_556 S
C1013 C1015 1.390 . S
C1013 H1017 0.950 . S
H1014 C1010 0.950 . S
C1015 C1013 1.390 . S
C1015 C1016 1.387 1_556 S
C1015 H1018 0.950 . S
C1016 C1015 1.387 1_554 S
C1016 C1019 1.387 . S
H1017 C1013 0.950 . S
H1018 C1015 0.950 . S
C1019 C1010 1.390 . S
C1019 H1012 0.950 . S
C1019 C1016 1.387 . S
C1020 C1021 1.387 1_556 S
C1020 H1024 0.950 . S
C1020 C1029 1.390 . S
C1021 C1020 1.387 1_554 S
C1021 C1023 1.387 . S
H1022 C1029 0.950 . S
C1023 C1021 1.387 . S
C1023 C1025 1.390 . S
C1023 H1027 0.950 . S
H1024 C1020 0.950 . S
C1025 C1023 1.390 . S
C1025 C1026 1.387 . S
C1025 H1028 0.950 . S
C1026 C1025 1.387 . S
C1026 C1029 1.387 1_554 S
H1027 C1023 0.950 . S
H1028 C1025 0.950 . S
C1029 C1020 1.390 . S
C1029 H1022 0.950 . S
C1029 C1026 1.387 1_556 S
C1030 C1031 1.387 1_556 S
C1030 H1034 0.950 . S
C1030 C1039 1.390 . S
C1031 C1030 1.387 1_554 S
C1031 C1033 1.387 . S
H1032 C1039 0.950 . S
C1033 C1031 1.387 . S
C1033 C1035 1.390 . S
C1033 H1037 0.950 . S
H1034 C1030 0.950 . S
C1035 C1033 1.390 . S
C1035 C1036 1.387 . S
C1035 H1038 0.950 . S
C1036 C1035 1.387 . S
C1036 C1039 1.387 1_554 S
H1037 C1033 0.950 . S
H1038 C1035 0.950 . S
C1039 C1030 1.390 . S
C1039 H1032 0.950 . S
C1039 C1036 1.387 1_556 S
C1040 C1041 1.387 . S
C1040 H1044 0.950 . S
C1040 C1049 1.390 . S
C1041 C1040 1.387 . S
C1041 C1043 1.387 1_554 S
H1042 C1049 0.950 . S
C1043 C1041 1.387 1_556 S
C1043 C1045 1.390 . S
C1043 H1047 0.950 . S
H1044 C1040 0.950 . S
C1045 C1043 1.390 . S
C1045 C1046 1.387 1_556 S
C1045 H1048 0.950 . S
C1046 C1045 1.387 1_554 S
C1046 C1049 1.387 . S
H1047 C1043 0.950 . S
H1048 C1045 0.950 . S
C1049 C1040 1.390 . S
C1049 H1042 0.950 . S
C1049 C1046 1.387 . S
C1050 C1051 1.387 1_556 S
C1050 H1054 0.950 . S
C1050 C1059 1.390 . S
C1051 C1050 1.387 1_554 S
C1051 C1053 1.387 . S
H1052 C1059 0.950 . S
C1053 C1051 1.387 . S
C1053 C1055 1.390 . S
C1053 H1057 0.950 . S
H1054 C1050 0.950 . S
C1055 C1053 1.390 . S
C1055 C1056 1.387 . S
C1055 H1058 0.950 . S
C1056 C1055 1.387 . S
C1056 C1059 1.387 1_554 S
H1057 C1053 0.950 . S
H1058 C1055 0.950 . S
C1059 C1050 1.390 . S
C1059 H1052 0.950 . S
C1059 C1056 1.387 1_556 S
C1060 C1061 1.387 . S
C1060 H1064 0.950 . S
C1060 C1069 1.390 . S
C1061 C1060 1.387 . S
C1061 C1063 1.387 1_554 S
H1062 C1069 0.950 . S
C1063 C1061 1.387 1_556 S
C1063 C1065 1.390 . S
C1063 H1067 0.950 . S
H1064 C1060 0.950 . S
C1065 C1063 1.390 . S
C1065 C1066 1.387 1_556 S
C1065 H1068 0.950 . S
C1066 C1065 1.387 1_554 S
C1066 C1069 1.387 . S
H1067 C1063 0.950 . S
H1068 C1065 0.950 . S
C1069 C1060 1.390 . S
C1069 H1062 0.950 . S
C1069 C1066 1.387 . S
C1070 C1071 1.365 1_556 S
C1070 H1074 0.950 . S
C1070 C1079 1.390 . S
C1071 C1070 1.365 1_554 S
C1071 C1073 1.411 . S
H1072 C1079 0.950 . S
C1073 C1071 1.411 . S
C1073 C1075 1.390 . S
C1073 H1077 0.950 . S
H1074 C1070 0.950 . S
C1075 C1073 1.390 . S
C1075 C1076 1.387 . S
C1075 H1078 0.950 . S
C1076 C1075 1.387 . S
C1076 C1079 1.387 1_554 S
H1077 C1073 0.950 . S
H1078 C1075 0.950 . S
C1079 C1070 1.390 . S
C1079 H1072 0.950 . S
C1079 C1076 1.387 1_556 S
C1080 C1081 1.387 . S
C1080 H1084 0.950 . S
C1080 C1089 1.390 . S
C1081 C1080 1.387 . S
C1081 C1083 1.387 . S
H1082 C1089 0.950 . S
C1083 C1081 1.387 . S
C1083 C1085 1.390 . S
C1083 H1087 0.950 . S
H1084 C1080 0.950 . S
C1085 C1083 1.390 . S
C1085 C1086 1.387 . S
C1085 H1088 0.950 . S
C1086 C1085 1.387 . S
C1086 C1089 1.387 . S
H1087 C1083 0.950 . S
H1088 C1085 0.950 . S
C1089 C1080 1.390 . S
C1089 H1082 0.950 . S
C1089 C1086 1.387 . S
C1090 C1091 1.387 . S
C1090 H1094 0.950 . S
C1090 C1099 1.390 . S
C1091 C1090 1.387 . S
C1091 C1093 1.387 . S
H1092 C1099 0.950 . S
C1093 C1091 1.387 . S
C1093 C1095 1.390 . S
C1093 H1097 0.950 . S
H1094 C1090 0.950 . S
C1095 C1093 1.390 . S
C1095 C1096 1.387 . S
C1095 H1098 0.950 . S
C1096 C1095 1.387 . S
C1096 C1099 1.387 . S
H1097 C1093 0.950 . S
H1098 C1095 0.950 . S
C1099 C1090 1.390 . S
C1099 H1092 0.950 . S
C1099 C1096 1.387 . S
C1100 C1101 1.387 . S
C1100 H1104 0.950 . S
C1100 C1109 1.390 . S
C1101 C1100 1.387 . S
C1101 C1103 1.387 . S
H1102 C1109 0.950 . S
C1103 C1101 1.387 . S
C1103 C1105 1.390 . S
C1103 H1107 0.950 . S
H1104 C1100 0.950 . S
C1105 C1103 1.390 . S
C1105 C1106 1.387 . S
C1105 H1108 0.950 . S
C1106 C1105 1.387 . S
C1106 C1109 1.387 . S
H1107 C1103 0.950 . S
H1108 C1105 0.950 . S
C1109 C1100 1.390 . S
C1109 H1102 0.950 . S
C1109 C1106 1.387 . S
C1110 C1111 1.387 . S
C1110 H1114 0.950 . S
C1110 C1119 1.390 . S
C1111 C1110 1.387 . S
C1111 C1113 1.387 . S
H1112 C1119 0.950 . S
C1113 C1111 1.387 . S
C1113 C1115 1.390 . S
C1113 H1117 0.950 . S
H1114 C1110 0.950 . S
C1115 C1113 1.390 . S
C1115 C1116 1.387 . S
C1115 H1118 0.950 . S
C1116 C1115 1.387 . S
C1116 C1119 1.387 . S
H1117 C1113 0.950 . S
H1118 C1115 0.950 . S
C1119 C1110 1.390 . S
C1119 H1112 0.950 . S
C1119 C1116 1.387 . S
C1120 C1121 1.387 . S
C1120 H1124 0.950 . S
C1120 C1129 1.390 . S
C1121 C1120 1.387 . S
C1121 C1123 1.387 . S
H1122 C1129 0.950 . S
C1123 C1121 1.387 . S
C1123 C1125 1.390 . S
C1123 H1127 0.950 . S
H1124 C1120 0.950 . S
C1125 C1123 1.390 . S
C1125 C1126 1.387 . S
C1125 H1128 0.950 . S
C1126 C1125 1.387 . S
C1126 C1129 1.387 . S
H1127 C1123 0.950 . S
H1128 C1125 0.950 . S
C1129 C1120 1.390 . S
C1129 H1122 0.950 . S
C1129 C1126 1.387 . S
C1130 C1131 1.387 . S
C1130 H1134 0.950 . S
C1130 C1139 1.390 . S
C1131 C1130 1.387 . S
C1131 C1133 1.387 . S
H1132 C1139 0.950 . S
C1133 C1131 1.387 . S
C1133 C1135 1.390 . S
C1133 H1137 0.950 . S
H1134 C1130 0.950 . S
C1135 C1133 1.390 . S
C1135 C1136 1.387 . S
C1135 H1138 0.950 . S
C1136 C1135 1.387 . S
C1136 C1139 1.387 . S
H1137 C1133 0.950 . S
H1138 C1135 0.950 . S
C1139 C1130 1.390 . S
C1139 H1132 0.950 . S
C1139 C1136 1.387 . S
C1140 C1141 1.387 . S
C1140 H1144 0.950 . S
C1140 C1149 1.390 . S
C1141 C1140 1.387 . S
C1141 C1143 1.387 . S
H1142 C1149 0.950 . S
C1143 C1141 1.387 . S
C1143 C1145 1.390 . S
C1143 H1147 0.950 . S
H1144 C1140 0.950 . S
C1145 C1143 1.390 . S
C1145 C1146 1.387 . S
C1145 H1148 0.950 . S
C1146 C1145 1.387 . S
C1146 C1149 1.387 . S
H1147 C1143 0.950 . S
H1148 C1145 0.950 . S
C1149 C1140 1.390 . S
C1149 H1142 0.950 . S
C1149 C1146 1.387 . S
C1150 C1151 1.387 . S
C1150 H1154 0.950 . S
C1150 C1159 1.390 . S
C1151 C1150 1.387 . S
C1151 C1153 1.387 . S
H1152 C1159 0.950 . S
C1153 C1151 1.387 . S
C1153 C1155 1.390 . S
C1153 H1157 0.950 . S
H1154 C1150 0.950 . S
C1155 C1153 1.390 . S
C1155 C1156 1.387 . S
C1155 H1158 0.950 . S
C1156 C1155 1.387 . S
C1156 C1159 1.387 . S
H1157 C1153 0.950 . S
H1158 C1155 0.950 . S
C1159 C1150 1.390 . S
C1159 H1152 0.950 . S
C1159 C1156 1.387 . S
C1160 C1161 1.387 . S
C1160 H1164 0.950 . S
C1160 C1169 1.390 . S
C1161 C1160 1.387 . S
C1161 C1163 1.387 . S
H1162 C1169 0.950 . S
C1163 C1161 1.387 . S
C1163 C1165 1.390 . S
C1163 H1167 0.950 . S
H1164 C1160 0.950 . S
C1165 C1163 1.390 . S
C1165 C1166 1.387 . S
C1165 H1168 0.950 . S
C1166 C1165 1.387 . S
C1166 C1169 1.387 . S
H1167 C1163 0.950 . S
H1168 C1165 0.950 . S
C1169 C1160 1.390 . S
C1169 H1162 0.950 . S
C1169 C1166 1.387 . S
C1170 C1171 1.387 . S
C1170 H1174 0.950 . S
C1170 C1179 1.390 . S
C1171 C1170 1.387 . S
C1171 C1173 1.387 . S
H1172 C1179 0.950 . S
C1173 C1171 1.387 . S
C1173 C1175 1.390 . S
C1173 H1177 0.950 . S
H1174 C1170 0.950 . S
C1175 C1173 1.390 . S
C1175 C1176 1.387 . S
C1175 H1178 0.950 . S
C1176 C1175 1.387 . S
C1176 C1179 1.387 . S
H1177 C1173 0.950 . S
H1178 C1175 0.950 . S
C1179 C1170 1.390 . S
C1179 H1172 0.950 . S
C1179 C1176 1.387 . S
C1180 C1181 1.387 . S
C1180 H1184 0.950 . S
C1180 C1189 1.390 . S
C1181 C1180 1.387 . S
C1181 C1183 1.387 . S
H1182 C1189 0.950 . S
C1183 C1181 1.387 . S
C1183 C1185 1.390 . S
C1183 H1187 0.950 . S
H1184 C1180 0.950 . S
C1185 C1183 1.390 . S
C1185 C1186 1.387 . S
C1185 H1188 0.950 . S
C1186 C1185 1.387 . S
C1186 C1189 1.387 . S
H1187 C1183 0.950 . S
H1188 C1185 0.950 . S
C1189 C1180 1.390 . S
C1189 H1182 0.950 . S
C1189 C1186 1.387 . S
C1190 C1191 1.387 . S
C1190 H1194 0.950 . S
C1190 C1199 1.390 . S
C1191 C1190 1.387 . S
C1191 C1193 1.387 . S
H1192 C1199 0.950 . S
C1193 C1191 1.387 . S
C1193 C1195 1.390 . S
C1193 H1197 0.950 . S
H1194 C1190 0.950 . S
C1195 C1193 1.390 . S
C1195 C1196 1.387 . S
C1195 H1198 0.950 . S
C1196 C1195 1.387 . S
C1196 C1199 1.387 . S
H1197 C1193 0.950 . S
H1198 C1195 0.950 . S
C1199 C1190 1.390 . S
C1199 H1192 0.950 . S
C1199 C1196 1.387 . S
C1200 C1201 1.387 . S
C1200 H1204 0.950 . S
C1200 C1209 1.390 . S
C1201 C1200 1.387 . S
C1201 C1203 1.387 . S
H1202 C1209 0.950 . S
C1203 C1201 1.387 . S
C1203 C1205 1.390 . S
C1203 H1207 0.950 . S
H1204 C1200 0.950 . S
C1205 C1203 1.390 . S
C1205 C1206 1.387 . S
C1205 H1208 0.950 . S
C1206 C1205 1.387 . S
C1206 C1209 1.387 . S
H1207 C1203 0.950 . S
H1208 C1205 0.950 . S
C1209 C1200 1.390 . S
C1209 H1202 0.950 . S
C1209 C1206 1.387 . S
C1210 C1211 1.387 . S
C1210 H1214 0.950 . S
C1210 C1219 1.390 . S
C1211 C1210 1.387 . S
C1211 C1213 1.387 . S
H1212 C1219 0.950 . S
C1213 C1211 1.387 . S
C1213 C1215 1.390 . S
C1213 H1217 0.950 . S
H1214 C1210 0.950 . S
C1215 C1213 1.390 . S
C1215 C1216 1.387 . S
C1215 H1218 0.950 . S
C1216 C1215 1.387 . S
C1216 C1219 1.387 . S
H1217 C1213 0.950 . S
H1218 C1215 0.950 . S
C1219 C1210 1.390 . S
C1219 H1212 0.950 . S
C1219 C1216 1.387 . S
C1220 C1221 1.387 . S
C1220 H1224 0.950 . S
C1220 C1229 1.390 . S
C1221 C1220 1.387 . S
C1221 C1223 1.387 . S
H1222 C1229 0.950 . S
C1223 C1221 1.387 . S
C1223 C1225 1.390 . S
C1223 H1227 0.950 . S
H1224 C1220 0.950 . S
C1225 C1223 1.390 . S
C1225 C1226 1.387 . S
C1225 H1228 0.950 . S
C1226 C1225 1.387 . S
C1226 C1229 1.387 . S
H1227 C1223 0.950 . S
H1228 C1225 0.950 . S
C1229 C1220 1.390 . S
C1229 H1222 0.950 . S
C1229 C1226 1.387 . S
C1230 C1231 1.387 . S
C1230 H1234 0.950 . S
C1230 C1239 1.390 . S
C1231 C1230 1.387 . S
C1231 C1233 1.387 . S
H1232 C1239 0.950 . S
C1233 C1231 1.387 . S
C1233 C1235 1.390 . S
C1233 H1237 0.950 . S
H1234 C1230 0.950 . S
C1235 C1233 1.390 . S
C1235 C1236 1.387 . S
C1235 H1238 0.950 . S
C1236 C1235 1.387 . S
C1236 C1239 1.387 . S
H1237 C1233 0.950 . S
H1238 C1235 0.950 . S
C1239 C1230 1.390 . S
C1239 H1232 0.950 . S
C1239 C1236 1.387 . S
C1240 C1241 1.387 . S
C1240 H1244 0.950 . S
C1240 C1249 1.390 . S
C1241 C1240 1.387 . S
C1241 C1243 1.387 . S
H1242 C1249 0.950 . S
C1243 C1241 1.387 . S
C1243 C1245 1.390 . S
C1243 H1247 0.950 . S
H1244 C1240 0.950 . S
C1245 C1243 1.390 . S
C1245 C1246 1.387 . S
C1245 H1248 0.950 . S
C1246 C1245 1.387 . S
C1246 C1249 1.387 . S
H1247 C1243 0.950 . S
H1248 C1245 0.950 . S
C1249 C1240 1.390 . S
C1249 H1242 0.950 . S
C1249 C1246 1.387 . S
C1250 C1251 1.387 . S
C1250 H1254 0.950 . S
C1250 C1259 1.390 . S
C1251 C1250 1.387 . S
C1251 C1253 1.387 . S
H1252 C1259 0.950 . S
C1253 C1251 1.387 . S
C1253 C1255 1.390 . S
C1253 H1257 0.950 . S
H1254 C1250 0.950 . S
C1255 C1253 1.390 . S
C1255 C1256 1.387 . S
C1255 H1258 0.950 . S
C1256 C1255 1.387 . S
C1256 C1259 1.387 . S
H1257 C1253 0.950 . S
H1258 C1255 0.950 . S
C1259 C1250 1.390 . S
C1259 H1252 0.950 . S
C1259 C1256 1.387 . S
C1260 C1261 1.387 . S
C1260 H1264 0.950 . S
C1260 C1269 1.390 . S
C1261 C1260 1.387 . S
C1261 C1263 1.387 . S
H1262 C1269 0.950 . S
C1263 C1261 1.387 . S
C1263 C1265 1.390 . S
C1263 H1267 0.950 . S
H1264 C1260 0.950 . S
C1265 C1263 1.390 . S
C1265 C1266 1.387 . S
C1265 H1268 0.950 . S
C1266 C1265 1.387 . S
C1266 C1269 1.387 . S
H1267 C1263 0.950 . S
H1268 C1265 0.950 . S
C1269 C1260 1.390 . S
C1269 H1262 0.950 . S
C1269 C1266 1.387 . S
C1270 C1271 1.387 . S
C1270 H1274 0.950 . S
C1270 C1279 1.390 . S
C1271 C1270 1.387 . S
C1271 C1273 1.387 . S
H1272 C1279 0.950 . S
C1273 C1271 1.387 . S
C1273 C1275 1.390 . S
C1273 H1277 0.950 . S
H1274 C1270 0.950 . S
C1275 C1273 1.390 . S
C1275 C1276 1.387 . S
C1275 H1278 0.950 . S
C1276 C1275 1.387 . S
C1276 C1279 1.387 . S
H1277 C1273 0.950 . S
H1278 C1275 0.950 . S
C1279 C1270 1.390 . S
C1279 H1272 0.950 . S
C1279 C1276 1.387 . S
C1280 C1281 1.387 . S
C1280 H1284 0.950 . S
C1280 C1289 1.390 . S
C1281 C1280 1.387 . S
C1281 C1283 1.387 . S
H1282 C1289 0.950 . S
C1283 C1281 1.387 . S
C1283 C1285 1.390 . S
C1283 H1287 0.950 . S
H1284 C1280 0.950 . S
C1285 C1283 1.390 . S
C1285 C1286 1.387 . S
C1285 H1288 0.950 . S
C1286 C1285 1.387 . S
C1286 C1289 1.387 . S
H1287 C1283 0.950 . S
H1288 C1285 0.950 . S
C1289 C1280 1.390 . S
C1289 H1282 0.950 . S
C1289 C1286 1.387 . S
C1290 C1291 1.387 . S
C1290 H1294 0.950 . S
C1290 C1299 1.390 . S
C1291 C1290 1.387 . S
C1291 C1293 1.387 . S
H1292 C1299 0.950 . S
C1293 C1291 1.387 . S
C1293 C1295 1.390 . S
C1293 H1297 0.950 . S
H1294 C1290 0.950 . S
C1295 C1293 1.390 . S
C1295 C1296 1.387 . S
C1295 H1298 0.950 . S
C1296 C1295 1.387 . S
C1296 C1299 1.387 . S
H1297 C1293 0.950 . S
H1298 C1295 0.950 . S
C1299 C1290 1.390 . S
C1299 H1292 0.950 . S
C1299 C1296 1.387 . S
C1300 C1301 1.387 . S
C1300 H1304 0.950 . S
C1300 C1309 1.390 . S
C1301 C1300 1.387 . S
C1301 C1303 1.387 . S
H1302 C1309 0.950 . S
C1303 C1301 1.387 . S
C1303 C1305 1.390 . S
C1303 H1307 0.950 . S
H1304 C1300 0.950 . S
C1305 C1303 1.390 . S
C1305 C1306 1.387 . S
C1305 H1308 0.950 . S
C1306 C1305 1.387 . S
C1306 C1309 1.387 . S
H1307 C1303 0.950 . S
H1308 C1305 0.950 . S
C1309 C1300 1.390 . S
C1309 H1302 0.950 . S
C1309 C1306 1.387 . S
C1310 C1311 1.387 . S
C1310 H1314 0.950 . S
C1310 C1319 1.390 . S
C1311 C1310 1.387 . S
C1311 C1313 1.387 . S
H1312 C1319 0.950 . S
C1313 C1311 1.387 . S
C1313 C1315 1.390 . S
C1313 H1317 0.950 . S
H1314 C1310 0.950 . S
C1315 C1313 1.390 . S
C1315 C1316 1.387 . S
C1315 H1318 0.950 . S
C1316 C1315 1.387 . S
C1316 C1319 1.387 . S
H1317 C1313 0.950 . S
H1318 C1315 0.950 . S
C1319 C1310 1.390 . S
C1319 H1312 0.950 . S
C1319 C1316 1.387 . S
C606 C330 1.530 . S
C601 C285 1.579 . S
C611 C261 1.501 . S
C616 C324 1.400 . S
C626 C292 1.498 . S
C621 C249 1.621 . S
C631 C273 1.723 . S
C636 C306 1.621 . S
C646 C344 1.914 . S
C641 C201 2.008 . S
C656 C431 1.513 . S
C651 C213 1.602 . S
C661 C225 2.066 . S
C666 C358 1.942 . S
C676 C426 1.189 . S
C671 C237 1.245 . S
C681 C153 1.963 . S
C686 C382 1.880 . S
C696 C437 1.522 . S
C691 C165 1.598 . S
C701 C177 1.961 . S
C706 C376 1.841 . S
C711 C189 1.358 . S
C716 C422 1.340 . S
C726 C478 1.318 . S
C721 C141 1.336 . S
C731 C117 1.496 . S
C736 C489 1.478 . S
C741 C105 1.312 . S
C746 C474 1.260 . S
C756 C483 1.616 . S
C751 C129 1.662 . S
C761 C57 1.714 1_455 S
C766 C528 1.599 . S
C771 C69 1.022 . S
C776 C587 0.981 . S
C781 C81 1.803 . S
C786 C544 1.693 . S
C791 C93 1.300 . S
C796 C582 1.219 . S
C806 C546 1.624 . S
C801 C9 1.761 . S
C816 C593 0.943 . S
C811 C21 0.967 . S
C821 C33 1.601 . S
C826 C522 1.537 . S
C836 C578 1.247 . S
C831 C45 1.286 . S
C846 C314 1.496 . S
C841 C4 1.443 . S
C851 C18 1.372 . S
C856 C318 1.381 . S
C861 C30 1.700 . S
C866 C338 1.630 . S
C871 C42 1.293 . S
C876 C333 1.288 . S
C881 C52 1.499 1_655 S
C886 C336 1.534 . S
C896 C322 1.400 . S
C891 C66 1.387 . S
C901 C78 1.675 . S
C906 C320 1.618 . S
C916 C327 1.040 . S
C911 C88 0.924 . S
C926 C390 1.451 . S
C921 C40 1.421 . S
C931 C6 1.885 . S
C936 C440 1.785 . S
C946 C388 1.269 . S
C941 C16 1.246 . S
C956 C424 1.607 . S
C951 C28 1.545 . S
C961 C64 1.141 . S
C966 C366 1.177 . S
C976 C442 1.723 . S
C971 C76 1.707 . S
C986 C372 1.536 . S
C981 C90 1.578 . S
C996 C418 1.825 . S
C991 C54 1.954 1_455 S
C1006 C410 1.500 . S
C1001 C102 1.512 . S
C1011 C114 1.373 . S
C1016 C434 1.390 . S
C1026 C370 1.184 . S
C1021 C100 1.087 . S
C1036 C396 1.384 . S
C1031 C124 1.240 . S
C1041 C138 1.296 . S
C1046 C374 1.311 . S
C1051 C136 1.263 . S
C1056 C428 1.412 . S
C1066 C385 1.363 . S
C1061 C112 1.202 . S
C1076 C379 1.558 . S
C1071 C126 1.519 . S
C1086 C462 1.765 . S
C1081 C148 1.646 . S
C1096 C494 1.509 . S
C1091 C162 1.503 . S
C1101 C174 1.894 . S
C1106 C448 1.839 . S
C1116 C492 1.403 . S
C1111 C186 1.464 . S
C1126 C480 1.733 . S
C1121 C196 1.617 . S
C1131 C210 1.536 . S
C1136 C476 1.535 . S
C1141 C222 1.914 . S
C1146 C486 1.905 . S
C1156 C470 1.172 . S
C1151 C232 1.037 . S
C1166 C535 1.386 . S
C1161 C184 1.277 . S
C1171 C150 1.678 . S
C1176 C596 1.637 . S
C1186 C530 1.253 . S
C1181 C160 1.119 . S
C1196 C580 1.589 . S
C1191 C172 1.411 . S
C1206 C526 1.164 . S
C1201 C208 1.033 . S
C1211 C220 1.491 . S
C1216 C598 1.587 . S
C1226 C541 1.458 . S
C1221 C234 1.446 . S
C1236 C574 1.632 . S
C1231 C198 1.713 . S
C1246 C566 1.629 . S
C1241 C246 1.698 . S
C1251 C258 1.781 . S
C1256 C590 1.672 . S
C1266 C532 1.334 . S
C1261 C244 1.297 . S
C1271 C268 1.573 . S
C1276 C552 1.613 . S
C1286 C514 1.580 . S
C1281 C282 1.630 . S
C1296 C584 1.496 . S
C1291 C280 1.408 . S
C1306 C500 1.369 . S
C1301 C256 1.356 . S
C1311 C270 1.576 . S
C1316 C538 1.529 . S
