# Generated by pormake.
# Topology ptr, (4,4)-cn, num edge types: 1
# Building blocks:
#     Node 0, Type 0, BuildingBlock: QUQFOY_clean_sbu_3, # of connection points: 4
#     Node 1, Type 0, BuildingBlock: QUQFOY_clean_sbu_3, # of connection points: 4
#     Node 2, Type 0, BuildingBlock: QUQFOY_clean_sbu_3, # of connection points: 4
#     Node 3, Type 0, BuildingBlock: QUQFOY_clean_sbu_3, # of connection points: 4
#     Node 4, Type 0, BuildingBlock: QUQFOY_clean_sbu_3, # of connection points: 4
#     Node 5, Type 0, BuildingBlock: QUQFOY_clean_sbu_3, # of connection points: 4
#     Node 6, Type 0, BuildingBlock: QUQFOY_clean_sbu_3, # of connection points: 4
#     Node 7, Type 0, BuildingBlock: QUQFOY_clean_sbu_3, # of connection points: 4
#     Node 8, Type 0, BuildingBlock: QUQFOY_clean_sbu_3, # of connection points: 4
#     Node 9, Type 0, BuildingBlock: QUQFOY_clean_sbu_3, # of connection points: 4
#     Node 10, Type 0, BuildingBlock: QUQFOY_clean_sbu_3, # of connection points: 4
#     Node 11, Type 0, BuildingBlock: QUQFOY_clean_sbu_3, # of connection points: 4
#     Node 12, Type 0, BuildingBlock: QUQFOY_clean_sbu_3, # of connection points: 4
#     Node 13, Type 0, BuildingBlock: QUQFOY_clean_sbu_3, # of connection points: 4
#     Node 14, Type 0, BuildingBlock: QUQFOY_clean_sbu_3, # of connection points: 4
#     Node 15, Type 0, BuildingBlock: QUQFOY_clean_sbu_3, # of connection points: 4
#     Node 16, Type 0, BuildingBlock: QUQFOY_clean_sbu_3, # of connection points: 4
#     Node 17, Type 0, BuildingBlock: QUQFOY_clean_sbu_3, # of connection points: 4
#     Node 18, Type 1, BuildingBlock: MUDLON_clean_linker_0, # of connection points: 4
#     Node 19, Type 1, BuildingBlock: MUDLON_clean_linker_0, # of connection points: 4
#     Node 20, Type 1, BuildingBlock: MUDLON_clean_linker_0, # of connection points: 4
#     Node 21, Type 1, BuildingBlock: MUDLON_clean_linker_0, # of connection points: 4
#     Node 22, Type 1, BuildingBlock: MUDLON_clean_linker_0, # of connection points: 4
#     Node 23, Type 1, BuildingBlock: MUDLON_clean_linker_0, # of connection points: 4
#     Node 24, Type 1, BuildingBlock: MUDLON_clean_linker_0, # of connection points: 4
#     Node 25, Type 1, BuildingBlock: MUDLON_clean_linker_0, # of connection points: 4
#     Node 26, Type 1, BuildingBlock: MUDLON_clean_linker_0, # of connection points: 4
#     Node 27, Type 1, BuildingBlock: MUDLON_clean_linker_0, # of connection points: 4
#     Node 28, Type 1, BuildingBlock: MUDLON_clean_linker_0, # of connection points: 4
#     Node 29, Type 1, BuildingBlock: MUDLON_clean_linker_0, # of connection points: 4
#     Node 30, Type 1, BuildingBlock: MUDLON_clean_linker_0, # of connection points: 4
#     Node 31, Type 1, BuildingBlock: MUDLON_clean_linker_0, # of connection points: 4
#     Node 32, Type 1, BuildingBlock: MUDLON_clean_linker_0, # of connection points: 4
#     Node 33, Type 1, BuildingBlock: MUDLON_clean_linker_0, # of connection points: 4
#     Node 34, Type 1, BuildingBlock: MUDLON_clean_linker_0, # of connection points: 4
#     Node 35, Type 1, BuildingBlock: MUDLON_clean_linker_0, # of connection points: 4
#     Edge 36, Type (0, 1), BuildingBlock: XIVTED_clean_linker_0, # of connection points: 2
#     Edge 37, Type (0, 1), BuildingBlock: XIVTED_clean_linker_0, # of connection points: 2
#     Edge 38, Type (0, 1), BuildingBlock: XIVTED_clean_linker_0, # of connection points: 2
#     Edge 39, Type (0, 1), BuildingBlock: XIVTED_clean_linker_0, # of connection points: 2
#     Edge 40, Type (0, 1), BuildingBlock: XIVTED_clean_linker_0, # of connection points: 2
#     Edge 41, Type (0, 1), BuildingBlock: XIVTED_clean_linker_0, # of connection points: 2
#     Edge 42, Type (0, 1), BuildingBlock: XIVTED_clean_linker_0, # of connection points: 2
#     Edge 43, Type (0, 1), BuildingBlock: XIVTED_clean_linker_0, # of connection points: 2
#     Edge 44, Type (0, 1), BuildingBlock: XIVTED_clean_linker_0, # of connection points: 2
#     Edge 45, Type (0, 1), BuildingBlock: XIVTED_clean_linker_0, # of connection points: 2
#     Edge 46, Type (0, 1), BuildingBlock: XIVTED_clean_linker_0, # of connection points: 2
#     Edge 47, Type (0, 1), BuildingBlock: XIVTED_clean_linker_0, # of connection points: 2
#     Edge 48, Type (0, 1), BuildingBlock: XIVTED_clean_linker_0, # of connection points: 2
#     Edge 49, Type (0, 1), BuildingBlock: XIVTED_clean_linker_0, # of connection points: 2
#     Edge 50, Type (0, 1), BuildingBlock: XIVTED_clean_linker_0, # of connection points: 2
#     Edge 51, Type (0, 1), BuildingBlock: XIVTED_clean_linker_0, # of connection points: 2
#     Edge 52, Type (0, 1), BuildingBlock: XIVTED_clean_linker_0, # of connection points: 2
#     Edge 53, Type (0, 1), BuildingBlock: XIVTED_clean_linker_0, # of connection points: 2
#     Edge 54, Type (0, 1), BuildingBlock: XIVTED_clean_linker_0, # of connection points: 2
#     Edge 55, Type (0, 1), BuildingBlock: XIVTED_clean_linker_0, # of connection points: 2
#     Edge 56, Type (0, 1), BuildingBlock: XIVTED_clean_linker_0, # of connection points: 2
#     Edge 57, Type (0, 1), BuildingBlock: XIVTED_clean_linker_0, # of connection points: 2
#     Edge 58, Type (0, 1), BuildingBlock: XIVTED_clean_linker_0, # of connection points: 2
#     Edge 59, Type (0, 1), BuildingBlock: XIVTED_clean_linker_0, # of connection points: 2
#     Edge 60, Type (0, 1), BuildingBlock: XIVTED_clean_linker_0, # of connection points: 2
#     Edge 61, Type (0, 1), BuildingBlock: XIVTED_clean_linker_0, # of connection points: 2
#     Edge 62, Type (0, 1), BuildingBlock: XIVTED_clean_linker_0, # of connection points: 2
#     Edge 63, Type (0, 1), BuildingBlock: XIVTED_clean_linker_0, # of connection points: 2
#     Edge 64, Type (0, 1), BuildingBlock: XIVTED_clean_linker_0, # of connection points: 2
#     Edge 65, Type (0, 1), BuildingBlock: XIVTED_clean_linker_0, # of connection points: 2
#     Edge 66, Type (0, 1), BuildingBlock: XIVTED_clean_linker_0, # of connection points: 2
#     Edge 67, Type (0, 1), BuildingBlock: XIVTED_clean_linker_0, # of connection points: 2
#     Edge 68, Type (0, 1), BuildingBlock: XIVTED_clean_linker_0, # of connection points: 2
#     Edge 69, Type (0, 1), BuildingBlock: XIVTED_clean_linker_0, # of connection points: 2
#     Edge 70, Type (0, 1), BuildingBlock: XIVTED_clean_linker_0, # of connection points: 2
#     Edge 71, Type (0, 1), BuildingBlock: XIVTED_clean_linker_0, # of connection points: 2
#     Edge 72, Type (0, 1), BuildingBlock: XIVTED_clean_linker_0, # of connection points: 2
#     Edge 73, Type (0, 1), BuildingBlock: XIVTED_clean_linker_0, # of connection points: 2
#     Edge 74, Type (0, 1), BuildingBlock: XIVTED_clean_linker_0, # of connection points: 2
#     Edge 75, Type (0, 1), BuildingBlock: XIVTED_clean_linker_0, # of connection points: 2
#     Edge 76, Type (0, 1), BuildingBlock: XIVTED_clean_linker_0, # of connection points: 2
#     Edge 77, Type (0, 1), BuildingBlock: XIVTED_clean_linker_0, # of connection points: 2
#     Edge 78, Type (0, 1), BuildingBlock: XIVTED_clean_linker_0, # of connection points: 2
#     Edge 79, Type (0, 1), BuildingBlock: XIVTED_clean_linker_0, # of connection points: 2
#     Edge 80, Type (0, 1), BuildingBlock: XIVTED_clean_linker_0, # of connection points: 2
#     Edge 81, Type (0, 1), BuildingBlock: XIVTED_clean_linker_0, # of connection points: 2
#     Edge 82, Type (0, 1), BuildingBlock: XIVTED_clean_linker_0, # of connection points: 2
#     Edge 83, Type (0, 1), BuildingBlock: XIVTED_clean_linker_0, # of connection points: 2
#     Edge 84, Type (0, 1), BuildingBlock: XIVTED_clean_linker_0, # of connection points: 2
#     Edge 85, Type (0, 1), BuildingBlock: XIVTED_clean_linker_0, # of connection points: 2
#     Edge 86, Type (0, 1), BuildingBlock: XIVTED_clean_linker_0, # of connection points: 2
#     Edge 87, Type (0, 1), BuildingBlock: XIVTED_clean_linker_0, # of connection points: 2
#     Edge 88, Type (0, 1), BuildingBlock: XIVTED_clean_linker_0, # of connection points: 2
#     Edge 89, Type (0, 1), BuildingBlock: XIVTED_clean_linker_0, # of connection points: 2
#     Edge 90, Type (0, 1), BuildingBlock: XIVTED_clean_linker_0, # of connection points: 2
#     Edge 91, Type (0, 1), BuildingBlock: XIVTED_clean_linker_0, # of connection points: 2
#     Edge 92, Type (0, 1), BuildingBlock: XIVTED_clean_linker_0, # of connection points: 2
#     Edge 93, Type (0, 1), BuildingBlock: XIVTED_clean_linker_0, # of connection points: 2
#     Edge 94, Type (0, 1), BuildingBlock: XIVTED_clean_linker_0, # of connection points: 2
#     Edge 95, Type (0, 1), BuildingBlock: XIVTED_clean_linker_0, # of connection points: 2
#     Edge 96, Type (0, 1), BuildingBlock: XIVTED_clean_linker_0, # of connection points: 2
#     Edge 97, Type (0, 1), BuildingBlock: XIVTED_clean_linker_0, # of connection points: 2
#     Edge 98, Type (0, 1), BuildingBlock: XIVTED_clean_linker_0, # of connection points: 2
#     Edge 99, Type (0, 1), BuildingBlock: XIVTED_clean_linker_0, # of connection points: 2
#     Edge 100, Type (0, 1), BuildingBlock: XIVTED_clean_linker_0, # of connection points: 2
#     Edge 101, Type (0, 1), BuildingBlock: XIVTED_clean_linker_0, # of connection points: 2
#     Edge 102, Type (0, 1), BuildingBlock: XIVTED_clean_linker_0, # of connection points: 2
#     Edge 103, Type (0, 1), BuildingBlock: XIVTED_clean_linker_0, # of connection points: 2
#     Edge 104, Type (0, 1), BuildingBlock: XIVTED_clean_linker_0, # of connection points: 2
#     Edge 105, Type (0, 1), BuildingBlock: XIVTED_clean_linker_0, # of connection points: 2
#     Edge 106, Type (0, 1), BuildingBlock: XIVTED_clean_linker_0, # of connection points: 2
#     Edge 107, Type (0, 1), BuildingBlock: XIVTED_clean_linker_0, # of connection points: 2
# Relax obj value: 0.030
# Max RMSD: 0.097
# Mean RMSD: 0.061
data_MOF--net-ptr--node1-QUQFOY_clean_sbu_3--node2-MUDLON_clean_linker_0--edge1-XIVTED_clean_linker_0
_symmetry_space_group_name_H-M    P1
_symmetry_Int_Tables_number       1
_symmetry_cell_setting            triclinic
loop_
_symmetry_equiv_pos_as_xyz
'x, y, z'
_cell_length_a     105.9559
_cell_length_b     106.4892
_cell_length_c     64.755063
_cell_angle_alpha  90.23553
_cell_angle_beta   89.637223
_cell_angle_gamma 120.50924
loop_
_atom_site_label
_atom_site_type_symbol
_atom_site_fract_x
_atom_site_fract_y
_atom_site_fract_z
_atom_type_partial_charge
C0 C 0.96375 0.32899 0.01412 0.0
O1 O 0.95671 0.33429 0.0228 0.0
Cd2 Cd 0.96911 0.35954 0.03358 0.0
O3 O 0.97758 0.33672 0.01199 0.0
Cd4 Cd -0.00163 0.36099 0.0206 0.0
C5 C 0.98607 0.37709 0.98835 0.0
O6 O 0.99008 0.36516 0.05434 0.0
O7 O 0.00866 0.38355 0.03984 0.0
O8 O 0.01009 0.34739 0.03067 0.0
C9 C 0.00022 0.37844 0.05537 0.0
O10 O 0.97651 0.37446 0.00232 0.0
C11 C 0.02207 0.35542 0.02121 0.0
O12 O 0.99498 0.37245 0.99008 0.0
O13 O 0.02308 0.36612 0.01113 0.0
C14 C 0.63005 0.66888 0.0256 0.0
O15 O 0.6165 0.66229 0.02127 0.0
Cd16 Cd 0.60414 0.63794 0.00748 0.0
O17 O 0.63761 0.66286 0.02205 0.0
Cd18 Cd 0.63554 0.64049 0.00696 0.0
C19 C 0.61186 0.61954 0.04442 0.0
O20 O 0.61874 0.63766 0.97921 0.0
O21 O 0.62287 0.61994 0.98325 0.0
O22 O 0.65906 0.65739 0.99158 0.0
C23 C 0.61668 0.62544 0.97304 0.0
O24 O 0.60262 0.62201 0.03563 0.0
C25 C 0.66553 0.65065 -0.00306 0.0
O26 O 0.62502 0.62545 0.03785 0.0
O27 O 0.658 0.63892 0.00707 0.0
C28 C 0.32511 0.96169 0.01658 0.0
O29 O 0.33016 0.95408 0.00907 0.0
Cd30 Cd 0.35462 0.96457 0.99569 0.0
O31 O 0.33286 0.97556 0.01665 0.0
Cd32 Cd 0.3571 0.99562 0.00499 0.0
C33 C 0.37444 0.9848 0.03793 0.0
O34 O 0.35787 0.98372 0.97333 0.0
O35 O 0.37769 0.00378 0.98052 0.0
O36 O 0.34333 0.007 0.99439 0.0
C37 C 0.37083 0.99317 0.96819 0.0
O38 O 0.37067 0.97412 0.02562 0.0
C39 C 0.35189 0.01939 0.00227 0.0
O40 O 0.37035 0.99402 0.03487 0.0
O41 O 0.36299 0.0208 0.01182 0.0
C42 C 0.9599 0.63181 0.00191 0.0
O43 O 0.9532 0.61841 0.00676 0.0
Cd44 Cd 0.96597 0.60656 0.01899 0.0
O45 O 0.97379 0.63946 0.00335 0.0
Cd46 Cd 0.99462 0.63665 0.01387 0.0
C47 C 0.98798 0.61124 0.97755 0.0
O48 O 0.98304 0.62208 0.04486 0.0
O49 O 0.00343 0.62385 0.03543 0.0
O50 O 0.00541 0.66178 0.02591 0.0
C51 C 0.99328 0.61959 0.04876 0.0
O52 O 0.97771 0.60221 0.9893 0.0
C53 C 0.01809 0.66603 0.01858 0.0
O54 O 0.9951 0.62477 0.98191 0.0
O55 O 0.01985 0.65664 0.00887 0.0
C56 C 0.33295 0.36975 0.02315 0.0
O57 O 0.33936 0.38314 0.01831 0.0
Cd58 Cd 0.36469 0.39543 0.00762 0.0
O59 O 0.33957 0.36265 0.02113 0.0
Cd60 Cd 0.3627 0.36533 0.00821 0.0
C61 C 0.38165 0.38814 0.04707 0.0
O62 O 0.36759 0.3822 0.9794 0.0
O63 O 0.38509 0.37851 0.98829 0.0
O64 O 0.34716 0.34271 0.99024 0.0
C65 C 0.38028 0.38422 0.97579 0.0
O66 O 0.37949 0.39738 0.03772 0.0
C67 C 0.35298 0.33578 -0.00262 0.0
O68 O 0.37611 0.37516 0.04031 0.0
O69 O 0.36362 0.34264 0.00976 0.0
C70 C 0.66502 0.03151 0.00794 0.0
O71 O 0.6579 0.03765 0.0133 0.0
Cd72 Cd 0.63265 0.02481 0.02288 0.0
O73 O 0.65898 0.01767 0.00836 0.0
Cd74 Cd 0.6351 0.99618 0.01918 0.0
C75 C 0.6167 0.00187 0.98117 0.0
O76 O 0.63027 0.00761 0.04822 0.0
O77 O 0.61219 0.98663 0.03937 0.0
O78 O 0.64745 0.98673 0.0396 0.0
C79 C 0.61738 0.99729 0.05185 0.0
O80 O 0.61894 0.01296 0.99166 0.0
C81 C 0.64312 0.97504 0.0295 0.0
O82 O 0.62175 0.99388 0.98711 0.0
O83 O 0.63505 0.97304 0.01393 0.0
C84 C 0.62962 0.6647 0.33266 0.0
O85 O 0.62266 0.67117 0.33715 0.0
Cd86 Cd 0.63466 0.69544 0.35116 0.0
O87 O 0.64334 0.67087 0.33602 0.0
Cd88 Cd 0.66381 0.6936 0.35094 0.0
C89 C 0.66106 0.7146 0.31412 0.0
O90 O 0.64958 0.6958 0.37915 0.0
O91 O 0.67159 0.7139 0.37511 0.0
O92 O 0.67104 0.67727 0.36567 0.0
C93 C 0.65977 0.70807 0.38545 0.0
O94 O 0.64921 0.71184 0.32314 0.0
C95 C 0.68436 0.68449 0.36007 0.0
O96 O 0.66833 0.70881 0.32032 0.0
O97 O 0.68833 0.69618 0.35009 0.0
C98 C 0.29222 0.00233 0.36357 0.0
O99 O 0.27843 0.99546 0.36099 0.0
Cd100 Cd 0.26505 0.97123 0.34658 0.0
O101 O 0.29973 0.99646 0.35871 0.0
Cd102 Cd 0.29613 0.97344 0.344 0.0
C103 C 0.27237 0.95178 0.38141 0.0
O104 O 0.27903 0.97142 0.31717 0.0
O105 O 0.28314 0.95358 0.31919 0.0
O106 O 0.32003 0.98775 0.32731 0.0
C107 C 0.27695 0.95944 0.30993 0.0
O108 O 0.26276 0.95391 0.37308 0.0
C109 C 0.32529 0.98026 0.33436 0.0
O110 O 0.28552 0.95834 0.37477 0.0
O111 O 0.31702 0.96967 0.34611 0.0
C112 C 0.002 0.30052 0.34429 0.0
O113 O 0.00806 0.29377 0.33703 0.0
Cd114 Cd 0.03356 0.30637 0.32771 0.0
O115 O 0.00921 0.31435 0.34589 0.0
Cd116 Cd 0.03363 0.33549 0.33761 0.0
C117 C 0.04951 0.32484 0.37289 0.0
O118 O 0.03771 0.32601 0.30538 0.0
O119 O 0.05626 0.34559 0.31739 0.0
O120 O 0.0195 0.34585 0.32494 0.0
C121 C 0.05082 0.3363 0.30294 0.0
O122 O 0.04724 0.31485 0.35999 0.0
C123 C 0.0269 0.35814 0.33371 0.0
O124 O 0.04498 0.33365 0.3693 0.0
O125 O 0.03756 0.36 0.34485 0.0
C126 C 0.62714 0.95507 0.33311 0.0
O127 O 0.62137 0.94163 0.33734 0.0
Cd128 Cd 0.63553 0.93111 0.34845 0.0
O129 O 0.64092 0.96358 0.33471 0.0
Cd130 Cd 0.66279 0.9623 0.34498 0.0
C131 C 0.65854 0.93841 0.30718 0.0
O132 O 0.65188 0.94652 0.37516 0.0
O133 O 0.67313 0.95048 0.36554 0.0
O134 O 0.67185 0.98617 0.36073 0.0
C135 C 0.66286 0.94513 0.37877 0.0
O136 O 0.64784 0.92885 0.31783 0.0
C137 C 0.68427 0.99226 0.35187 0.0
O138 O 0.66545 0.95169 0.31288 0.0
O139 O 0.68674 0.98443 0.33955 0.0
C140 C 0.00089 0.70608 0.35705 0.0
O141 O 0.00758 0.71955 0.3526 0.0
Cd142 Cd 0.03278 0.73179 0.34142 0.0
O143 O 0.00731 0.69878 0.35503 0.0
Cd144 Cd 0.03091 0.70185 0.34311 0.0
C145 C 0.04991 0.72549 0.38134 0.0
O146 O 0.0352 0.71801 0.31351 0.0
O147 O 0.053 0.71482 0.32234 0.0
O148 O 0.01574 0.67798 0.32758 0.0
C149 C 0.04787 0.72006 0.30961 0.0
O150 O 0.04791 0.73467 0.37151 0.0
C151 C 0.02293 0.67238 0.33459 0.0
O152 O 0.04419 0.71239 0.37506 0.0
O153 O 0.03394 0.6805 0.34577 0.0
C154 C 0.33649 0.36777 0.33478 0.0
O155 O 0.33009 0.37488 0.33856 0.0
Cd156 Cd 0.30548 0.36396 0.35153 0.0
O157 O 0.32998 0.35408 0.3381 0.0
Cd158 Cd 0.30621 0.33424 0.35184 0.0
C159 C 0.28576 0.33769 0.31476 0.0
O160 O 0.30362 0.34847 0.37929 0.0
O161 O 0.28472 0.32718 0.37389 0.0
O162 O 0.31815 0.32475 0.37317 0.0
C163 C 0.29079 0.33874 0.38464 0.0
O164 O 0.28897 0.34961 0.32374 0.0
C165 C 0.31323 0.31268 0.36385 0.0
O166 O 0.29118 0.33007 0.32093 0.0
O167 O 0.30497 0.31045 0.34845 0.0
C168 C 0.29915 0.00185 0.6705 0.0
O169 O 0.29233 0.00831 0.67574 0.0
Cd170 Cd 0.30547 0.03321 0.68743 0.0
O171 O 0.31303 0.0083 0.67225 0.0
Cd172 Cd 0.33388 0.03158 0.68501 0.0
C173 C 0.32958 0.05078 0.6474 0.0
O174 O 0.32184 0.0356 0.71483 0.0
O175 O 0.34286 0.05366 0.70552 0.0
O176 O 0.3416 0.01595 0.70064 0.0
C177 C 0.33238 0.04838 0.71843 0.0
O178 O 0.31829 0.04852 0.65756 0.0
C179 C 0.35471 0.02283 0.69405 0.0
O180 O 0.33708 0.04514 0.65317 0.0
O181 O 0.35836 0.03405 0.68308 0.0
C182 C 0.95695 0.33151 0.68466 0.0
O183 O 0.94382 0.32342 0.6787 0.0
Cd184 Cd 0.93405 0.29942 0.66497 0.0
O185 O 0.96617 0.3272 0.68314 0.0
Cd186 Cd 0.96681 0.30555 0.66961 0.0
C187 C 0.94167 0.2829 0.70469 0.0
O188 O 0.95156 0.30181 0.63964 0.0
O189 O 0.95648 0.28483 0.64526 0.0
O190 O 0.99116 0.32235 0.65587 0.0
C191 C 0.95059 0.29 0.63375 0.0
O192 O 0.93219 0.28397 0.69403 0.0
C193 C 0.99733 0.31599 0.66385 0.0
O194 O 0.95521 0.29017 0.6999 0.0
O195 O 0.98934 0.30484 0.67485 0.0
C196 C 0.66768 0.63316 0.68734 0.0
O197 O 0.67384 0.62588 0.68299 0.0
Cd198 Cd 0.69855 0.63717 0.67059 0.0
O199 O 0.67446 0.64692 0.68474 0.0
Cd200 Cd 0.69806 0.66713 0.67134 0.0
C201 C 0.7174 0.66226 0.70892 0.0
O202 O 0.69909 0.65251 0.6432 0.0
O203 O 0.71766 0.67427 0.64533 0.0
O204 O 0.68156 0.67535 0.66034 0.0
C205 C 0.71128 0.66218 0.63587 0.0
O206 O 0.7143 0.6504 0.69987 0.0
C207 C 0.69016 0.68873 0.66434 0.0
O208 O 0.71248 0.67017 0.70221 0.0
O209 O 0.70265 0.69222 0.67156 0.0
C210 C 0.2953 0.29401 0.6647 0.0
O211 O 0.28843 0.28033 0.66765 0.0
Cd212 Cd 0.29993 0.26734 0.67979 0.0
O213 O 0.30902 0.30163 0.66813 0.0
Cd214 Cd 0.32924 0.29831 0.68057 0.0
C215 C 0.32553 0.27508 0.64175 0.0
O216 O 0.31504 0.28133 0.70821 0.0
O217 O 0.33683 0.28502 0.70338 0.0
O218 O 0.33846 0.32183 0.69742 0.0
C219 C 0.32511 0.27903 0.71395 0.0
O220 O 0.31376 0.26566 0.65068 0.0
C221 C 0.35134 0.32761 0.69006 0.0
O222 O 0.33291 0.28802 0.64876 0.0
O223 O 0.35403 0.31974 0.67815 0.0
C224 C 0.66354 0.03583 0.67776 0.0
O225 O 0.67 0.04889 0.67132 0.0
Cd226 Cd 0.6951 0.06087 0.65954 0.0
O227 O 0.67015 0.02864 0.6777 0.0
Cd228 Cd 0.69383 0.03122 0.66778 0.0
C229 C 0.71231 0.05809 0.70254 0.0
O230 O 0.69804 0.04512 0.63574 0.0
O231 O 0.71611 0.04323 0.64717 0.0
O232 O 0.67941 0.00645 0.65479 0.0
C233 C 0.71093 0.04744 0.633 0.0
O234 O 0.71041 0.06621 0.69012 0.0
C235 C 0.68651 0.00152 0.66405 0.0
O236 O 0.70656 0.04449 0.69902 0.0
O237 O 0.69706 0.01041 0.67539 0.0
C238 C -0.00213 0.70113 0.66492 0.0
O239 O 0.99152 0.70821 0.66935 0.0
Cd240 Cd 0.96709 0.69686 0.6829 0.0
O241 O 0.99138 0.6874 0.66785 0.0
Cd242 Cd 0.96794 0.66709 0.68175 0.0
C243 C 0.94775 0.67158 0.64503 0.0
O244 O 0.96682 0.68158 0.71014 0.0
O245 O 0.94827 0.65984 0.70761 0.0
O246 O 0.98429 0.65869 0.69319 0.0
C247 C 0.9546 0.67184 0.7173 0.0
O248 O 0.9508 0.68334 0.65433 0.0
C249 C 0.97569 0.64534 0.68898 0.0
O250 O 0.95305 0.66385 0.65116 0.0
O251 O 0.96336 0.64198 0.68131 0.0
H252 H 0.2218 0.33193 0.14937 0.0
N253 N 0.19929 0.30651 0.13323 0.0
H254 H 0.23424 0.33486 0.1818 0.0
H255 H 0.19357 0.28601 0.16148 0.0
H256 H 0.20616 0.289 0.19458 0.0
H257 H 0.20849 0.29089 0.11279 0.0
H258 H 0.22853 0.29972 0.08764 0.0
H259 H 0.21349 0.33364 0.11544 0.0
H260 H 0.23391 0.34275 0.09134 0.0
H261 H 0.19641 0.32674 0.1573 0.0
H262 H 0.17739 0.29663 0.10628 0.0
H263 H 0.17923 0.33482 0.15229 0.0
H264 H 0.16023 0.30529 0.10073 0.0
H265 H 0.13024 0.36572 0.13975 0.0
H266 H 0.11724 0.36443 0.17184 0.0
H267 H 0.10121 0.31822 0.17546 0.0
H268 H 0.11389 0.31954 0.14339 0.0
H269 H 0.10238 0.3213 0.1112 0.0
H270 H 0.086 0.32145 0.08537 0.0
H271 H 0.12156 0.36164 0.06041 0.0
H272 H 0.1376 0.36189 0.08756 0.0
H273 H 0.15858 0.35873 0.12608 0.0
H274 H 0.17523 0.34928 0.12857 0.0
H275 H 0.13943 0.30601 0.1146 0.0
N276 N 0.13007 0.3439 0.11949 0.0
H277 H 0.12304 0.31579 0.11114 0.0
C278 C 0.20658 0.30868 0.1529 0.0
C279 C 0.21824 0.32242 0.15894 0.0
C280 C 0.22531 0.32414 0.17767 0.0
C281 C 0.22109 0.31219 0.1908 0.0
C282 C 0.20963 0.29839 0.18472 0.0
C283 C 0.2024 0.2967 0.16595 0.0
C284 C 0.20957 0.31156 0.11618 0.0
C285 C 0.2138 0.30213 0.10773 0.0
C286 C 0.22536 0.30726 0.09354 0.0
C287 C 0.23305 0.32204 0.08771 0.0
C288 C 0.22822 0.33129 0.09528 0.0
C289 C 0.21655 0.3261 0.10925 0.0
C290 C 0.18845 0.31099 0.13198 0.0
C291 C 0.18867 0.3218 0.1449 0.0
C292 C 0.17878 0.3266 0.14192 0.0
C293 C 0.16851 0.32094 0.12585 0.0
C294 C 0.16796 0.30987 0.11331 0.0
C295 C 0.17779 0.30493 0.11643 0.0
C296 C 0.12313 0.34282 0.13916 0.0
C297 C 0.12401 0.35537 0.14763 0.0
C298 C 0.11663 0.3546 0.16597 0.0
C299 C 0.10816 0.3412 0.17616 0.0
C300 C 0.10748 0.32867 0.16784 0.0
C301 C 0.11487 0.32945 0.14953 0.0
C302 C 0.12115 0.34186 0.10166 0.0
C303 C 0.10672 0.33007 0.10008 0.0
C304 C 0.09735 0.33011 0.08502 0.0
C305 C 0.1023 0.34175 0.07094 0.0
C306 C 0.11718 0.35275 0.07137 0.0
C307 C 0.12645 0.35284 0.0867 0.0
C308 C 0.13963 0.33799 0.11865 0.0
C309 C 0.15442 0.34725 0.12327 0.0
C310 C 0.16385 0.34178 0.12491 0.0
C311 C 0.15861 0.32681 0.12222 0.0
C312 C 0.14384 0.31759 0.11674 0.0
C313 C 0.13443 0.32314 0.11487 0.0
H314 H 0.71591 0.79095 0.15041 0.0
N315 N 0.70202 0.8034 0.1342 0.0
H316 H 0.71059 0.77781 0.18308 0.0
H317 H 0.68428 0.80373 0.16558 0.0
H318 H 0.67948 0.79133 0.1984 0.0
H319 H 0.67298 0.78226 0.13546 0.0
H320 H 0.66079 0.76106 0.11298 0.0
H321 H 0.7129 0.79822 0.10027 0.0
H322 H 0.70064 0.77709 0.07724 0.0
H323 H 0.72507 0.8299 0.12907 0.0
H324 H 0.67789 0.80653 0.131 0.0
H325 H 0.72529 0.85264 0.12294 0.0
H326 H 0.67793 0.82914 0.12638 0.0
H327 H 0.71319 0.92284 0.13758 0.0
H328 H 0.70712 0.93013 0.17026 0.0
H329 H 0.67532 0.88499 0.18319 0.0
H330 H 0.68094 0.87797 0.1501 0.0
H331 H 0.67058 0.88441 0.11881 0.0
H332 H 0.65786 0.8933 0.09748 0.0
H333 H 0.69863 0.92304 0.06699 0.0
H334 H 0.71137 0.91412 0.08858 0.0
H335 H 0.72116 0.89248 0.13667 0.0
H336 H 0.72173 0.86997 0.13917 0.0
H337 H 0.6816 0.84759 0.10407 0.0
N338 N 0.70035 0.89633 0.12091 0.0
H339 H 0.68061 0.86977 0.10283 0.0
C340 C 0.70057 0.79835 0.15528 0.0
C341 C 0.70816 0.79131 0.16104 0.0
C342 C 0.70511 0.78382 0.17977 0.0
C343 C 0.69444 0.78332 0.19332 0.0
C344 C 0.6875 0.79116 0.18813 0.0
C345 C 0.69041 0.79847 0.16928 0.0
C346 C 0.69394 0.79183 0.11956 0.0
C347 C 0.67904 0.78139 0.12258 0.0
C348 C 0.67205 0.76925 0.10963 0.0
C349 C 0.67976 0.7673 0.09339 0.0
C350 C 0.69445 0.77813 0.08982 0.0
C351 C 0.70144 0.79026 0.10281 0.0
C352 C 0.70156 0.81655 0.13076 0.0
C353 C 0.71477 0.82973 0.12839 0.0
C354 C 0.71484 0.84272 0.12503 0.0
C355 C 0.70163 0.84286 0.1243 0.0
C356 C 0.68835 0.82954 0.12648 0.0
C357 C 0.6883 0.81652 0.1294 0.0
C358 C 0.69766 0.89991 0.14141 0.0
C359 C 0.70505 0.91454 0.14764 0.0
C360 C 0.70158 0.91866 0.16637 0.0
C361 C 0.69067 0.90816 0.17941 0.0
C362 C 0.68358 0.89341 0.17342 0.0
C363 C 0.68693 0.88934 0.15456 0.0
C364 C 0.69203 0.89873 0.10541 0.0
C365 C 0.67675 0.89257 0.10721 0.0
C366 C 0.66948 0.89768 0.09503 0.0
C367 C 0.67729 0.90898 0.08076 0.0
C368 C 0.69232 0.91426 0.07777 0.0
C369 C 0.69961 0.9092 0.09008 0.0
C370 C 0.70088 0.88301 0.11974 0.0
C371 C 0.71254 0.88271 0.12941 0.0
C372 C 0.71288 0.86981 0.1307 0.0
C373 C 0.70167 0.85682 0.12191 0.0
C374 C 0.69026 0.85724 0.11149 0.0
C375 C 0.68976 0.87011 0.11058 0.0
H376 H 0.12462 0.76508 0.14485 0.0
N377 N 0.12532 0.78644 0.12294 0.0
H378 H 0.1116 0.75472 0.17737 0.0
H379 H 0.10926 0.7956 0.14493 0.0
H380 H 0.0965 0.78557 0.17761 0.0
H381 H 0.09743 0.78006 0.11372 0.0
H382 H 0.08163 0.76295 0.08775 0.0
H383 H 0.13342 0.77544 0.09216 0.0
H384 H 0.11791 0.75896 0.06489 0.0
H385 H 0.15175 0.80243 0.13883 0.0
H386 H 0.11877 0.80581 0.10467 0.0
H387 H 0.16682 0.82907 0.14011 0.0
H388 H 0.13406 0.83245 0.10536 0.0
H389 H 0.20587 0.88427 0.15159 0.0
H390 H 0.21949 0.89465 0.18318 0.0
H391 H 0.20793 0.9282 0.18145 0.0
H392 H 0.1936 0.91714 0.15022 0.0
H393 H 0.20009 0.91847 0.10617 0.0
H394 H 0.22094 0.92973 0.08223 0.0
H395 H 0.22876 0.89418 0.09274 0.0
H396 H 0.2077 0.88282 0.11584 0.0
H397 H 0.17707 0.87496 0.16087 0.0
H398 H 0.16086 0.84888 0.15781 0.0
H399 H 0.16178 0.85254 0.09152 0.0
N400 N 0.19126 0.89461 0.12891 0.0
H401 H 0.17863 0.87879 0.09423 0.0
C402 C 0.11799 0.7811 0.14254 0.0
C403 C 0.11855 0.76961 0.15203 0.0
C404 C 0.11117 0.76378 0.17063 0.0
C405 C 0.10304 0.76935 0.1801 0.0
C406 C 0.10253 0.78094 0.1706 0.0
C407 C 0.10993 0.78676 0.15199 0.0
C408 C 0.11656 0.77873 0.10523 0.0
C409 C 0.10205 0.77561 0.10307 0.0
C410 C 0.09302 0.76589 0.08792 0.0
C411 C 0.09836 0.75929 0.07431 0.0
C412 C 0.11326 0.76345 0.07544 0.0
C413 C 0.12221 0.773 0.09086 0.0
C414 C 0.13425 0.80209 0.12153 0.0
C415 C 0.14789 0.80892 0.13134 0.0
C416 C 0.1564 0.82407 0.13216 0.0
C417 C 0.15152 0.83271 0.12287 0.0
C418 C 0.13804 0.82595 0.11254 0.0
C419 C 0.12934 0.81073 0.11209 0.0
C420 C 0.19851 0.89984 0.14861 0.0
C421 C 0.20613 0.89377 0.15808 0.0
C422 C 0.21405 0.89983 0.17613 0.0
C423 C 0.21495 0.91237 0.18489 0.0
C424 C 0.2073 0.9184 0.17542 0.0
C425 C 0.19914 0.91215 0.15752 0.0
C426 C 0.20234 0.89989 0.11286 0.0
C427 C 0.20616 0.91301 0.10292 0.0
C428 C 0.21814 0.91947 0.08943 0.0
C429 C 0.22662 0.91293 0.08571 0.0
C430 C 0.22242 0.89946 0.09506 0.0
C431 C 0.21043 0.893 0.10848 0.0
C432 C 0.18052 0.87903 0.12767 0.0
C433 C 0.17437 0.87035 0.14551 0.0
C434 C 0.16484 0.85535 0.14386 0.0
C435 C 0.16051 0.84873 0.12444 0.0
C436 C 0.16526 0.85741 0.10667 0.0
C437 C 0.17504 0.87241 0.10827 0.0
H438 H 0.33577 0.22635 0.88349 0.0
N439 N 0.31181 0.20216 0.89997 0.0
H440 H 0.33739 0.23705 0.84992 0.0
H441 H 0.29154 0.19221 0.87056 0.0
H442 H 0.29316 0.20292 0.83643 0.0
H443 H 0.29266 0.20762 0.91825 0.0
H444 H 0.29789 0.22769 0.94179 0.0
H445 H 0.33822 0.22003 0.9189 0.0
H446 H 0.34367 0.24041 0.9416 0.0
H447 H 0.33864 0.20602 0.88851 0.0
H448 H 0.29717 0.17583 0.91677 0.0
H449 H 0.34624 0.1881 0.89073 0.0
H450 H 0.30498 0.15785 0.91986 0.0
H451 H 0.36299 0.13692 0.86826 0.0
H452 H 0.35919 0.12324 0.83624 0.0
H453 H 0.31567 0.09119 0.85708 0.0
H454 H 0.31992 0.10451 0.88933 0.0
H455 H 0.32168 0.11228 0.92567 0.0
H456 H 0.32102 0.09556 0.95198 0.0
H457 H 0.36688 0.11105 0.94062 0.0
H458 H 0.36743 0.12788 0.91469 0.0
H459 H 0.36112 0.15741 0.91094 0.0
H460 H 0.35338 0.17545 0.91365 0.0
H461 H 0.30918 0.14215 0.89803 0.0
N462 N 0.34504 0.1296 0.90046 0.0
H463 H 0.31688 0.12421 0.89626 0.0
C464 C 0.31345 0.20837 0.87964 0.0
C465 C 0.32642 0.22101 0.87339 0.0
C466 C 0.32738 0.22712 0.85403 0.0
C467 C 0.31542 0.22082 0.84047 0.0
C468 C 0.30252 0.20809 0.84661 0.0
C469 C 0.3016 0.20193 0.866 0.0
C470 C 0.31499 0.21238 0.91661 0.0
C471 C 0.30374 0.21453 0.92377 0.0
C472 C 0.30679 0.22609 0.93704 0.0
C473 C 0.32126 0.23585 0.94327 0.0
C474 C 0.33239 0.23308 0.93722 0.0
C475 C 0.32929 0.22142 0.92407 0.0
C476 C 0.31717 0.19221 0.90227 0.0
C477 C 0.33117 0.19559 0.89538 0.0
C478 C 0.33559 0.18531 0.89686 0.0
C479 C 0.32622 0.17148 0.90544 0.0
C480 C 0.31239 0.16829 0.91286 0.0
C481 C 0.30794 0.17856 0.91125 0.0
C482 C 0.34178 0.12186 0.8811 0.0
C483 C 0.3526 0.12701 0.86575 0.0
C484 C 0.35035 0.11919 0.84742 0.0
C485 C 0.3371 0.10607 0.84399 0.0
C486 C 0.32609 0.10112 0.85926 0.0
C487 C 0.32844 0.10886 0.87768 0.0
C488 C 0.34466 0.1213 0.91818 0.0
C489 C 0.33165 0.11229 0.92916 0.0
C490 C 0.33128 0.10267 0.94413 0.0
C491 C 0.34387 0.10188 0.94834 0.0
C492 C 0.35702 0.11148 0.93804 0.0
C493 C 0.35737 0.12107 0.92314 0.0
C494 C 0.33971 0.13954 0.90317 0.0
C495 C 0.34974 0.15403 0.90834 0.0
C496 C 0.34531 0.16432 0.90972 0.0
C497 C 0.33068 0.1603 0.90582 0.0
C498 C 0.3205 0.14562 0.90131 0.0
C499 C 0.32494 0.13532 0.90009 0.0
H500 H 0.77581 0.13233 0.86308 0.0
N501 N 0.78822 0.12281 0.88931 0.0
H502 H 0.76489 0.12178 0.82963 0.0
H503 H 0.7888 0.1003 0.87028 0.0
H504 H 0.77823 0.08981 0.83662 0.0
H505 H 0.78824 0.09998 0.90789 0.0
H506 H 0.77085 0.08408 0.9345 0.0
H507 H 0.76855 0.12675 0.90901 0.0
H508 H 0.75116 0.11108 0.93539 0.0
H509 H 0.79876 0.15034 0.90026 0.0
H510 H 0.81164 0.11902 0.88514 0.0
H511 H 0.82447 0.16944 0.90321 0.0
H512 H 0.83749 0.13816 0.88703 0.0
H513 H 0.89196 0.22526 0.8791 0.0
H514 H 0.90003 0.23739 0.84601 0.0
H515 H 0.91452 0.20765 0.82801 0.0
H516 H 0.90627 0.19529 0.8616 0.0
H517 H 0.91828 0.20943 0.91226 0.0
H518 H 0.92977 0.22807 0.93907 0.0
H519 H 0.89244 0.23421 0.9385 0.0
H520 H 0.88083 0.21518 0.91269 0.0
H521 H 0.86935 0.20266 0.87941 0.0
H522 H 0.84416 0.18302 0.88014 0.0
H523 H 0.85738 0.15494 0.90883 0.0
N524 N 0.89351 0.20154 0.89239 0.0
H525 H 0.88302 0.17477 0.90723 0.0
C526 C 0.78311 0.11713 0.86901 0.0
C527 C 0.7765 0.12316 0.8572 0.0
C528 C 0.77034 0.11714 0.83809 0.0
C529 C 0.77069 0.10494 0.83043 0.0
C530 C 0.77762 0.09909 0.84218 0.0
C531 C 0.78378 0.10514 0.86134 0.0
C532 C 0.77953 0.11444 0.90656 0.0
C533 C 0.78027 0.1025 0.91409 0.0
C534 C 0.77032 0.09344 0.92921 0.0
C535 C 0.75962 0.09631 0.93706 0.0
C536 C 0.75939 0.10866 0.92996 0.0
C537 C 0.76925 0.1176 0.91484 0.0
C538 C 0.80339 0.13341 0.89226 0.0
C539 C 0.80722 0.14764 0.89761 0.0
C540 C 0.8219 0.15853 0.89909 0.0
C541 C 0.83309 0.15541 0.89501 0.0
C542 C 0.82918 0.14095 0.89037 0.0
C543 C 0.81442 0.13 0.8891 0.0
C544 C 0.89842 0.2092 0.87292 0.0
C545 C 0.89684 0.22123 0.86821 0.0
C546 C 0.9014 0.22817 0.84915 0.0
C547 C 0.90779 0.2234 0.83439 0.0
C548 C 0.90966 0.21158 0.83916 0.0
C549 C 0.90492 0.2045 0.85824 0.0
C550 C 0.8988 0.21096 0.91026 0.0
C551 C 0.91247 0.21459 0.91833 0.0
C552 C 0.91907 0.22536 0.93349 0.0
C553 C 0.91217 0.23288 0.94074 0.0
C554 C 0.89806 0.22862 0.93347 0.0
C555 C 0.89141 0.21773 0.9185 0.0
C556 C 0.87826 0.1902 0.89311 0.0
C557 C 0.86701 0.19235 0.88577 0.0
C558 C 0.85245 0.18106 0.88642 0.0
C559 C 0.84868 0.16738 0.89465 0.0
C560 C 0.8599 0.16528 0.90217 0.0
C561 C 0.87453 0.1766 0.90139 0.0
H562 H 0.78977 0.71668 0.87536 0.0
N563 N 0.80041 0.70239 0.8954 0.0
H564 H 0.77664 0.71012 0.8426 0.0
H565 H 0.79604 0.67985 0.87005 0.0
H566 H 0.78363 0.67361 0.83679 0.0
H567 H 0.77863 0.67409 0.90168 0.0
H568 H 0.75816 0.66585 0.9257 0.0
H569 H 0.79784 0.71772 0.92592 0.0
H570 H 0.77755 0.70947 0.95062 0.0
H571 H 0.82672 0.72163 0.88117 0.0
H572 H 0.80366 0.68092 0.91424 0.0
H573 H 0.84905 0.72041 0.88207 0.0
H574 H 0.82607 0.6801 0.91652 0.0
H575 H 0.91954 0.71456 0.88173 0.0
H576 H 0.92958 0.71123 0.84945 0.0
H577 H 0.88666 0.67561 0.83317 0.0
H578 H 0.87693 0.67865 0.86562 0.0
H579 H 0.88357 0.66893 0.89734 0.0
H580 H 0.89238 0.65715 0.92057 0.0
H581 H 0.91689 0.69749 0.9545 0.0
H582 H 0.90829 0.70931 0.93067 0.0
H583 H 0.89033 0.72153 0.90034 0.0
H584 H 0.86799 0.72279 0.90235 0.0
H585 H 0.84216 0.67577 0.89769 0.0
N586 N 0.89268 0.69804 0.89666 0.0
H587 H 0.86453 0.67468 0.89731 0.0
C588 C 0.79398 0.69889 0.87508 0.0
C589 C 0.78856 0.70735 0.86686 0.0
C590 C 0.78113 0.70361 0.84807 0.0
C591 C 0.77905 0.69132 0.83695 0.0
C592 C 0.7848 0.68301 0.84503 0.0
C593 C 0.79208 0.68667 0.86397 0.0
C594 C 0.78971 0.69662 0.91187 0.0
C595 C 0.77863 0.68184 0.91253 0.0
C596 C 0.76695 0.67711 0.92642 0.0
C597 C 0.76611 0.68703 0.93995 0.0
C598 C 0.77772 0.7016 0.94016 0.0
C599 C 0.78938 0.70632 0.92621 0.0
C600 C 0.81351 0.70153 0.89773 0.0
C601 C 0.82656 0.71258 0.88898 0.0
C602 C 0.83936 0.71189 0.88968 0.0
C603 C 0.83949 0.70019 0.89951 0.0
C604 C 0.8264 0.68918 0.90854 0.0
C605 C 0.81351 0.68974 0.90746 0.0
C606 C 0.89751 0.69698 0.87618 0.0
C607 C 0.91228 0.70621 0.87099 0.0
C608 C 0.91797 0.70429 0.8525 0.0
C609 C 0.90894 0.69309 0.83872 0.0
C610 C 0.89399 0.68419 0.84358 0.0
C611 C 0.88834 0.68605 0.86214 0.0
C612 C 0.89541 0.69009 0.91221 0.0
C613 C 0.89057 0.67517 0.91002 0.0
C614 C 0.8956 0.66842 0.92341 0.0
C615 C 0.9055 0.67642 0.93926 0.0
C616 C 0.90951 0.69108 0.9422 0.0
C617 C 0.90452 0.69783 0.92876 0.0
C618 C 0.87915 0.6981 0.89836 0.0
C619 C 0.87981 0.71153 0.89992 0.0
C620 C 0.86699 0.7122 0.90087 0.0
C621 C 0.85315 0.69939 0.89988 0.0
C622 C 0.85254 0.68588 0.89871 0.0
C623 C 0.8654 0.68523 0.89821 0.0
H624 H 0.74275 0.61646 0.47122 0.0
N625 N 0.76866 0.63343 0.45367 0.0
H626 H 0.7336 0.62052 0.50382 0.0
H627 H 0.78472 0.65499 0.48206 0.0
H628 H 0.77596 0.65875 0.51487 0.0
H629 H 0.77592 0.66195 0.44969 0.0
H630 H 0.76399 0.67087 0.42689 0.0
H631 H 0.75181 0.61944 0.42166 0.0
H632 H 0.74011 0.62839 0.3982 0.0
H633 H 0.77246 0.61073 0.45305 0.0
H634 H 0.79611 0.6576 0.44966 0.0
H635 H 0.79552 0.61079 0.45249 0.0
H636 H 0.81924 0.65796 0.45081 0.0
H637 H 0.87505 0.62012 0.47832 0.0
H638 H 0.88762 0.62556 0.51147 0.0
H639 H 0.87725 0.65946 0.5222 0.0
H640 H 0.86536 0.65437 0.48858 0.0
H641 H 0.88366 0.66366 0.45828 0.0
H642 H 0.90518 0.67542 0.43599 0.0
H643 H 0.89118 0.63428 0.40534 0.0
H644 H 0.86985 0.62248 0.4284 0.0
H645 H 0.83774 0.6155 0.47611 0.0
H646 H 0.81482 0.61548 0.47361 0.0
H647 H 0.83614 0.65365 0.43455 0.0
N648 N 0.86368 0.63443 0.46015 0.0
H649 H 0.8591 0.65424 0.43834 0.0
C650 C 0.7644 0.63527 0.47416 0.0
C651 C 0.75008 0.62559 0.48087 0.0
C652 C 0.74491 0.62792 0.49954 0.0
C653 C 0.75403 0.64001 0.51199 0.0
C654 C 0.76855 0.64947 0.50554 0.0
C655 C 0.77366 0.6472 0.48677 0.0
C656 C 0.7646 0.63992 0.4375 0.0
C657 C 0.76843 0.65465 0.43816 0.0
C658 C 0.76159 0.65976 0.42502 0.0
C659 C 0.75088 0.65027 0.41095 0.0
C660 C 0.74806 0.6359 0.40917 0.0
C661 C 0.75483 0.63079 0.42239 0.0
C662 C 0.78253 0.63409 0.4517 0.0
C663 C 0.78268 0.62104 0.45226 0.0
C664 C 0.79591 0.62114 0.45221 0.0
C665 C 0.80937 0.6344 0.45203 0.0
C666 C 0.80917 0.64751 0.45081 0.0
C667 C 0.79589 0.64735 0.45038 0.0
C668 C 0.86921 0.63673 0.481 0.0
C669 C 0.87533 0.62857 0.48802 0.0
C670 C 0.88246 0.63168 0.50703 0.0
C671 C 0.88354 0.64301 0.51957 0.0
C672 C 0.87689 0.65084 0.51283 0.0
C673 C 0.8699 0.64782 0.49369 0.0
C674 C 0.87521 0.6421 0.44511 0.0
C675 C 0.88514 0.65719 0.44665 0.0
C676 C 0.8974 0.66394 0.43373 0.0
C677 C 0.9 0.65577 0.41896 0.0
C678 C 0.88964 0.64084 0.41678 0.0
C679 C 0.87739 0.63409 0.42978 0.0
C680 C 0.85028 0.6348 0.45759 0.0
C681 C 0.83746 0.6239 0.46709 0.0
C682 C 0.8243 0.62383 0.46542 0.0
C683 C 0.82348 0.63451 0.45372 0.0
C684 C 0.83631 0.64537 0.44398 0.0
C685 C 0.84957 0.64563 0.44604 0.0
H686 H 0.38256 0.12605 0.48169 0.0
N687 N 0.3684 0.13856 0.46666 0.0
H688 H 0.3779 0.11291 0.51428 0.0
H689 H 0.35142 0.13902 0.49902 0.0
H690 H 0.34725 0.12659 0.53174 0.0
H691 H 0.33924 0.11788 0.46933 0.0
H692 H 0.32619 0.09646 0.4475 0.0
H693 H 0.37808 0.1329 0.43192 0.0
H694 H 0.36492 0.11154 0.40949 0.0
H695 H 0.39168 0.16487 0.46125 0.0
H696 H 0.34456 0.14225 0.46489 0.0
H697 H 0.39229 0.1879 0.4561 0.0
H698 H 0.34502 0.16514 0.4612 0.0
H699 H 0.38149 0.25882 0.47455 0.0
H700 H 0.37508 0.26581 0.50722 0.0
H701 H 0.34287 0.22061 0.51891 0.0
H702 H 0.34885 0.21389 0.48587 0.0
H703 H 0.33884 0.22137 0.45514 0.0
H704 H 0.32654 0.23074 0.43386 0.0
H705 H 0.36751 0.25976 0.40329 0.0
H706 H 0.37987 0.2504 0.4249 0.0
H707 H 0.38918 0.2281 0.47193 0.0
H708 H 0.38932 0.20532 0.47348 0.0
H709 H 0.34877 0.18386 0.43924 0.0
N710 N 0.36851 0.23255 0.45713 0.0
H711 H 0.34822 0.20627 0.43892 0.0
C712 C 0.36742 0.13355 0.48766 0.0
C713 C 0.37507 0.12645 0.49277 0.0
C714 C 0.37239 0.11896 0.51144 0.0
C715 C 0.36204 0.11851 0.52557 0.0
C716 C 0.35504 0.12639 0.52102 0.0
C717 C 0.35759 0.13373 0.50224 0.0
C718 C 0.35973 0.12699 0.45229 0.0
C719 C 0.34487 0.11677 0.45609 0.0
C720 C 0.33738 0.1045 0.4435 0.0
C721 C 0.34454 0.1022 0.42683 0.0
C722 C 0.35916 0.11285 0.42243 0.0
C723 C 0.36666 0.12511 0.43508 0.0
C724 C 0.36816 0.15187 0.46368 0.0
C725 C 0.38148 0.16492 0.46112 0.0
C726 C 0.38178 0.17808 0.45833 0.0
C727 C 0.36871 0.1785 0.45836 0.0
C728 C 0.35532 0.16531 0.46072 0.0
C729 C 0.35504 0.15214 0.4631 0.0
C730 C 0.36578 0.23589 0.47776 0.0
C731 C 0.37321 0.25044 0.48436 0.0
C732 C 0.36954 0.25438 0.50308 0.0
C733 C 0.35838 0.24379 0.51571 0.0
C734 C 0.35132 0.22911 0.50943 0.0
C735 C 0.35488 0.2252 0.49061 0.0
C736 C 0.36039 0.23533 0.44176 0.0
C737 C 0.34516 0.2295 0.44357 0.0
C738 C 0.33812 0.23487 0.43141 0.0
C739 C 0.34611 0.24608 0.41711 0.0
C740 C 0.36107 0.25105 0.41411 0.0
C741 C 0.36815 0.24574 0.42643 0.0
C742 C 0.36875 0.2191 0.45546 0.0
C743 C 0.38037 0.21848 0.46465 0.0
C744 C 0.38047 0.20542 0.46539 0.0
C745 C 0.36901 0.19262 0.45656 0.0
C746 C 0.35762 0.19336 0.44665 0.0
C747 C 0.35738 0.20637 0.44628 0.0
H748 H 0.79347 0.09096 0.47332 0.0
N749 N 0.79571 0.11286 0.45104 0.0
H750 H 0.77949 0.08084 0.50524 0.0
H751 H 0.78015 0.12303 0.47188 0.0
H752 H 0.76621 0.11308 0.50394 0.0
H753 H 0.77233 0.11469 0.4371 0.0
H754 H 0.75419 0.09835 0.41213 0.0
H755 H 0.79791 0.09424 0.42616 0.0
H756 H 0.77965 0.07753 0.40158 0.0
H757 H 0.81766 0.12785 0.47702 0.0
H758 H 0.79741 0.13338 0.42278 0.0
H759 H 0.83515 0.15385 0.47751 0.0
H760 H 0.81536 0.15919 0.42259 0.0
H761 H 0.89402 0.2212 0.46665 0.0
H762 H 0.90623 0.2319 0.49902 0.0
H763 H 0.87264 0.24204 0.51437 0.0
H764 H 0.86049 0.23143 0.48143 0.0
H765 H 0.87576 0.24475 0.43278 0.0
H766 H 0.89524 0.25814 0.40735 0.0
H767 H 0.90483 0.22323 0.40712 0.0
H768 H 0.88525 0.20987 0.43165 0.0
H769 H 0.87358 0.19758 0.46222 0.0
H770 H 0.85575 0.17181 0.46051 0.0
H771 H 0.82306 0.18165 0.43948 0.0
N772 N 0.86923 0.22013 0.45181 0.0
H773 H 0.84146 0.20767 0.44004 0.0
C774 C 0.78785 0.10768 0.4703 0.0
C775 C 0.7876 0.09585 0.48004 0.0
C776 C 0.77967 0.09015 0.49828 0.0
C777 C 0.77177 0.09619 0.50713 0.0
C778 C 0.77206 0.1081 0.49737 0.0
C779 C 0.78005 0.11383 0.47911 0.0
C780 C 0.7865 0.10564 0.43348 0.0
C781 C 0.77418 0.10686 0.42901 0.0
C782 C 0.76376 0.09743 0.41482 0.0
C783 C 0.76534 0.08647 0.40503 0.0
C784 C 0.77813 0.08592 0.4086 0.0
C785 C 0.78859 0.09543 0.42268 0.0
C786 C 0.8059 0.12844 0.45024 0.0
C787 C 0.81697 0.13463 0.46519 0.0
C788 C 0.8271 0.14953 0.4653 0.0
C789 C 0.82675 0.1587 0.45003 0.0
C790 C 0.81581 0.15253 0.43483 0.0
C791 C 0.80547 0.1376 0.43492 0.0
C792 C 0.87627 0.22554 0.47151 0.0
C793 C 0.88914 0.22558 0.47694 0.0
C794 C 0.89612 0.23166 0.49561 0.0
C795 C 0.89043 0.23784 0.50929 0.0
C796 C 0.8774 0.23753 0.50405 0.0
C797 C 0.8704 0.23141 0.48534 0.0
C798 C 0.87898 0.22634 0.4343 0.0
C799 C 0.88184 0.23986 0.42678 0.0
C800 C 0.89306 0.24754 0.41241 0.0
C801 C 0.90174 0.24186 0.40536 0.0
C802 C 0.8983 0.22791 0.412 0.0
C803 C 0.88704 0.22022 0.42626 0.0
C804 C 0.8589 0.20466 0.45105 0.0
C805 C 0.86267 0.1943 0.45701 0.0
C806 C 0.85233 0.17945 0.45625 0.0
C807 C 0.83786 0.17456 0.45 0.0
C808 C 0.83412 0.18496 0.44409 0.0
C809 C 0.84458 0.19984 0.44453 0.0
H810 H 0.01412 0.55714 0.20372 0.0
N811 N 0.99136 0.54401 0.23134 0.0
H812 H 0.0142 0.56898 0.17153 0.0
H813 H 0.96869 0.54353 0.21346 0.0
H814 H 0.96839 0.55473 0.18072 0.0
H815 H 0.975 0.54259 0.26347 0.0
H816 H 0.98023 0.56188 0.28871 0.0
H817 H 0.01743 0.56982 0.23554 0.0
H818 H 0.02268 0.58894 0.26045 0.0
H819 H 0.01912 0.54903 0.23915 0.0
H820 H 0.97481 0.51561 0.22523 0.0
H821 H 0.0265 0.53085 0.24006 0.0
H822 H 0.98224 0.49733 0.22514 0.0
H823 H 0.04209 0.46759 0.2066 0.0
H824 H 0.03773 0.45296 0.17537 0.0
H825 H 0.99182 0.43958 0.17813 0.0
H826 H 0.99632 0.45423 0.2094 0.0
H827 H 0.99716 0.44531 0.24315 0.0
H828 H 0.99524 0.42831 0.26941 0.0
H829 H 0.0418 0.45478 0.28054 0.0
H830 H 0.04334 0.47247 0.25523 0.0
H831 H 0.03788 0.49694 0.21753 0.0
H832 H 0.03067 0.51542 0.21808 0.0
H833 H 0.98959 0.48446 0.24698 0.0
N834 N 0.02245 0.46949 0.2298 0.0
H835 H 0.99654 0.46606 0.24549 0.0
C836 C 0.99138 0.54957 0.21108 0.0
C837 C 0.00409 0.55652 0.19878 0.0
C838 C 0.00408 0.5632 0.18024 0.0
C839 C 0.99133 0.56295 0.17358 0.0
C840 C 0.97849 0.55544 0.18557 0.0
C841 C 0.97857 0.5489 0.20416 0.0
C842 C 0.99576 0.55466 0.24767 0.0
C843 C 0.98554 0.55257 0.26308 0.0
C844 C 0.98852 0.56361 0.27737 0.0
C845 C 0.00185 0.57694 0.27651 0.0
C846 C 0.01239 0.57873 0.2617 0.0
C847 C 0.00936 0.56775 0.24735 0.0
C848 C 0.99627 0.53365 0.23238 0.0
C849 C 0.01093 0.5378 0.23632 0.0
C850 C 0.0152 0.52735 0.23662 0.0
C851 C 0.00498 0.51258 0.23272 0.0
C852 C 0.99036 0.50853 0.22864 0.0
C853 C 0.98609 0.51896 0.22855 0.0
C854 C 0.0196 0.46202 0.21029 0.0
C855 C 0.03115 0.46166 0.20024 0.0
C856 C 0.02862 0.45332 0.18241 0.0
C857 C 0.01441 0.44508 0.17431 0.0
C858 C 0.00285 0.44568 0.18415 0.0
C859 C 0.00542 0.45412 0.20195 0.0
C860 C 0.02043 0.46039 0.2474 0.0
C861 C 0.00686 0.44787 0.25181 0.0
C862 C 0.00583 0.43793 0.26665 0.0
C863 C 0.01841 0.43997 0.27691 0.0
C864 C 0.03183 0.45287 0.27319 0.0
C865 C 0.03277 0.46299 0.25865 0.0
C866 C 0.01791 0.48013 0.23156 0.0
C867 C 0.02735 0.49421 0.22405 0.0
C868 C 0.02323 0.50477 0.2245 0.0
C869 C 0.00954 0.50146 0.23263 0.0
C870 C 0.00012 0.48735 0.24033 0.0
C871 C 0.0042 0.47677 0.23967 0.0
H872 H 0.59233 0.54338 0.208 0.0
N873 N 0.5656 0.53033 0.22435 0.0
H874 H 0.60045 0.55695 0.17559 0.0
H875 H 0.54767 0.53073 0.19386 0.0
H876 H 0.55553 0.54354 0.16129 0.0
H877 H 0.55675 0.55046 0.22482 0.0
H878 H 0.56583 0.57147 0.24762 0.0
H879 H 0.58181 0.53551 0.25794 0.0
H880 H 0.59073 0.55642 0.28133 0.0
H881 H 0.56277 0.50414 0.22574 0.0
H882 H 0.53774 0.52575 0.22888 0.0
H883 H 0.54021 0.48051 0.22857 0.0
H884 H 0.51516 0.50234 0.23033 0.0
H885 H 0.45929 0.40812 0.20817 0.0
H886 H 0.44507 0.40088 0.17633 0.0
H887 H 0.45546 0.44538 0.16744 0.0
H888 H 0.46901 0.45229 0.1998 0.0
H889 H 0.45222 0.44349 0.2316 0.0
H890 H 0.43123 0.43329 0.25484 0.0
H891 H 0.4452 0.40513 0.2813 0.0
H892 H 0.46608 0.4152 0.25734 0.0
H893 H 0.49711 0.4408 0.20927 0.0
H894 H 0.51994 0.46418 0.20953 0.0
H895 H 0.49986 0.48178 0.2496 0.0
N896 N 0.47168 0.43394 0.2267 0.0
H897 H 0.47699 0.45885 0.24822 0.0
C898 C 0.56944 0.53597 0.20355 0.0
C899 C 0.58424 0.54317 0.19766 0.0
C900 C 0.58884 0.5509 0.17909 0.0
C901 C 0.57867 0.5515 0.16589 0.0
C902 C 0.56373 0.54361 0.17128 0.0
C903 C 0.55916 0.53605 0.18995 0.0
C904 C 0.56868 0.5414 0.23964 0.0
C905 C 0.5639 0.55147 0.23737 0.0
C906 C 0.5691 0.56351 0.2505 0.0
C907 C 0.57915 0.56574 0.2662 0.0
C908 C 0.58322 0.55519 0.26916 0.0
C909 C 0.57804 0.54316 0.25597 0.0
C910 C 0.55201 0.5167 0.22693 0.0
C911 C 0.55238 0.50375 0.22696 0.0
C912 C 0.53944 0.49026 0.22838 0.0
C913 C 0.52574 0.4894 0.22946 0.0
C914 C 0.52544 0.50247 0.22982 0.0
C915 C 0.53842 0.51597 0.2288 0.0
C916 C 0.46527 0.43069 0.20633 0.0
C917 C 0.45866 0.41632 0.19912 0.0
C918 C 0.45058 0.41224 0.18087 0.0
C919 C 0.44903 0.42252 0.16929 0.0
C920 C 0.45618 0.4371 0.17613 0.0
C921 C 0.46412 0.44113 0.19453 0.0
C922 C 0.46074 0.43004 0.24269 0.0
C923 C 0.45092 0.43529 0.24259 0.0
C924 C 0.43894 0.42949 0.25604 0.0
C925 C 0.43645 0.41831 0.26987 0.0
C926 C 0.44667 0.41358 0.27063 0.0
C927 C 0.45868 0.41941 0.25713 0.0
C928 C 0.48518 0.44786 0.22854 0.0
C929 C 0.49766 0.44972 0.21811 0.0
C930 C 0.51076 0.46311 0.21845 0.0
C931 C 0.51185 0.47498 0.22961 0.0
C932 C 0.49942 0.47303 0.24047 0.0
C933 C 0.48622 0.45971 0.23981 0.0
H934 H 0.54521 0.98401 0.21589 0.0
N935 N 0.54578 0.00814 0.23199 0.0
H936 H 0.5555 0.98245 0.18291 0.0
H937 H 0.5574 0.02843 0.20274 0.0
H938 H 0.56755 0.02689 0.16934 0.0
H939 H 0.57296 0.02315 0.24595 0.0
H940 H 0.58539 0.0145 0.26824 0.0
H941 H 0.53224 0.98276 0.2554 0.0
H942 H 0.54437 0.97441 0.27834 0.0
H943 H 0.52189 0.98162 0.22204 0.0
H944 H 0.53512 0.0249 0.24363 0.0
H945 H 0.49647 0.97537 0.22228 0.0
H946 H 0.50956 0.01899 0.24286 0.0
H947 H 0.41857 0.9602 0.20507 0.0
H948 H 0.40933 0.96271 0.17172 0.0
H949 H 0.44187 0.00862 0.17105 0.0
H950 H 0.45107 0.00595 0.20447 0.0
H951 H 0.44356 0.0071 0.23895 0.0
H952 H 0.42808 0.01064 0.26361 0.0
H953 H 0.40463 0.96443 0.27673 0.0
H954 H 0.42044 0.96115 0.25244 0.0
H955 H 0.45496 0.97303 0.20186 0.0
H956 H 0.48056 0.9799 0.20335 0.0
H957 H 0.48599 0.00533 0.25829 0.0
N958 N 0.44021 0.98087 0.22707 0.0
H959 H 0.46065 -0.00089 0.25618 0.0
C960 C 0.55061 0.00643 0.21182 0.0
C961 C 0.54988 0.99336 0.20574 0.0
C962 C 0.55572 0.99246 0.18679 0.0
C963 C 0.56241 0.00457 0.17352 0.0
C964 C 0.56267 0.01744 0.17934 0.0
C965 C 0.55681 0.01833 0.19832 0.0
C966 C 0.55171 0.0037 0.24866 0.0
C967 C 0.5666 0.01262 0.25333 0.0
C968 C 0.57369 0.00764 0.26616 0.0
C969 C 0.56595 0.99362 0.27491 0.0
C970 C 0.55077 0.9851 0.27144 0.0
C971 C 0.54374 0.99 0.25834 0.0
C972 C 0.53048 0.00377 0.23301 0.0
C973 C 0.51935 0.98982 0.22686 0.0
C974 C 0.50475 0.98629 0.22679 0.0
C975 C 0.50091 0.99671 0.23237 0.0
C976 C 0.51205 0.01062 0.23871 0.0
C977 C 0.52667 0.01405 0.23908 0.0
C978 C 0.43542 0.98283 0.20718 0.0
C979 C 0.42372 0.97076 0.19763 0.0
C980 C 0.41852 0.97223 0.17859 0.0
C981 C 0.42492 0.98586 0.16874 0.0
C982 C 0.43666 0.99801 0.17837 0.0
C983 C 0.44192 0.9965 0.19741 0.0
C984 C 0.4331 0.9838 0.24389 0.0
C985 C 0.43527 0.9978 0.24744 0.0
C986 C 0.42635 -0.00021 0.26148 0.0
C987 C 0.415 0.98781 0.27204 0.0
C988 C 0.41337 0.97395 0.26914 0.0
C989 C 0.42235 0.97201 0.25521 0.0
C990 C 0.45569 0.98573 0.22846 0.0
C991 C 0.4617 0.98029 0.21406 0.0
C992 C 0.47634 0.98408 0.21512 0.0
C993 C 0.48539 0.99312 0.23103 0.0
C994 C 0.47943 -0.00147 0.24561 0.0
C995 C 0.46477 0.9949 0.24438 0.0
H996 H 0.41245 0.95668 0.80422 0.0
N997 N 0.43935 0.97408 0.79003 0.0
H998 H 0.40135 0.95967 0.83562 0.0
H999 H 0.45369 0.99452 0.82051 0.0
H1000 H 0.44299 0.99715 0.85228 0.0
H1001 H 0.44662 0.00261 0.78681 0.0
H1002 H 0.43553 0.01193 0.76304 0.0
H1003 H 0.42432 0.96087 0.75634 0.0
H1004 H 0.41351 0.97023 0.73197 0.0
H1005 H 0.44298 0.9513 0.78858 0.0
H1006 H 0.46695 0.99823 0.78971 0.0
H1007 H 0.46591 0.95116 0.78907 0.0
H1008 H 0.48993 0.99831 0.792 0.0
H1009 H 0.54388 0.9571 0.81221 0.0
H1010 H 0.55734 0.96151 0.84444 0.0
H1011 H 0.55021 0.99723 0.85819 0.0
H1012 H 0.5374 0.99313 0.82543 0.0
H1013 H 0.55491 0.00136 0.79372 0.0
H1014 H 0.57474 0.01199 0.76844 0.0
H1015 H 0.55577 0.97059 0.73668 0.0
H1016 H 0.53609 0.95991 0.76256 0.0
H1017 H 0.50716 0.95375 0.8117 0.0
H1018 H 0.48461 0.95455 0.81045 0.0
H1019 H 0.50714 0.99468 0.77553 0.0
N1020 N 0.53324 0.97271 0.79618 0.0
H1021 H 0.52973 0.99439 0.77829 0.0
C1022 C 0.43389 0.97521 0.80999 0.0
C1023 C 0.41919 0.9654 0.81484 0.0
C1024 C 0.4129 0.96712 0.83285 0.0
C1025 C 0.42125 0.97869 0.84654 0.0
C1026 C 0.43614 0.98826 0.84196 0.0
C1027 C 0.44237 0.98663 0.82381 0.0
C1028 C 0.4361 0.98094 0.77346 0.0
C1029 C 0.43974 0.9956 0.77454 0.0
C1030 C 0.43341 0.00094 0.76086 0.0
C1031 C 0.4234 0.99173 0.74584 0.0
C1032 C 0.42091 0.9775 0.74365 0.0
C1033 C 0.42717 0.97217 0.7574 0.0
C1034 C 0.45323 0.97469 0.78941 0.0
C1035 C 0.45325 0.96158 0.78911 0.0
C1036 C 0.4664 0.96155 0.78967 0.0
C1037 C 0.4799 0.97472 0.79097 0.0
C1038 C 0.47984 0.98793 0.79083 0.0
C1039 C 0.46665 0.98792 0.78977 0.0
C1040 C 0.53956 0.97467 0.81646 0.0
C1041 C 0.54509 0.96575 0.82236 0.0
C1042 C 0.55273 0.96827 0.84085 0.0
C1043 C 0.55493 0.97976 0.85399 0.0
C1044 C 0.54897 0.98844 0.84832 0.0
C1045 C 0.54146 0.986 0.82969 0.0
C1046 C 0.54408 0.97975 0.7801 0.0
C1047 C 0.55494 0.99459 0.78125 0.0
C1048 C 0.56622 0.0007 0.76663 0.0
C1049 C 0.56689 0.99212 0.75059 0.0
C1050 C 0.55568 0.97744 0.74902 0.0
C1051 C 0.54439 0.97134 0.76366 0.0
C1052 C 0.5202 0.97384 0.79502 0.0
C1053 C 0.50722 0.96276 0.80391 0.0
C1054 C 0.49428 0.96318 0.80295 0.0
C1055 C 0.49389 0.97459 0.79262 0.0
C1056 C 0.50696 0.98579 0.78385 0.0
C1057 C 0.51999 0.98554 0.78525 0.0
H1058 H 0.99341 0.56136 0.80196 0.0
N1059 N 0.01587 0.55649 0.79205 0.0
H1060 H 0.99021 0.57116 0.83431 0.0
H1061 H 0.03238 0.56344 0.82586 0.0
H1062 H 0.02881 0.57284 0.85883 0.0
H1063 H 0.03329 0.58291 0.77686 0.0
H1064 H 0.02706 0.59587 0.75184 0.0
H1065 H 0.99153 0.54393 0.76668 0.0
H1066 H 0.98557 0.5565 0.74084 0.0
H1067 H 0.98871 0.53472 0.80461 0.0
H1068 H 0.03008 0.54315 0.77954 0.0
H1069 H 0.98054 0.50897 0.80741 0.0
H1070 H 0.02169 0.51707 0.78132 0.0
H1071 H 0.96193 0.44072 0.84056 0.0
H1072 H 0.96474 0.43052 0.87277 0.0
H1073 H 0.00787 0.44034 0.85303 0.0
H1074 H 0.0047 0.44999 0.82067 0.0
H1075 H 0.00255 0.45288 0.7843 0.0
H1076 H 0.00073 0.43554 0.75774 0.0
H1077 H 0.95399 0.40995 0.7682 0.0
H1078 H 0.95597 0.4273 0.79463 0.0
H1079 H 0.96452 0.46169 0.79547 0.0
H1080 H 0.97295 0.48733 0.78872 0.0
H1081 H 0.01685 0.4987 0.80613 0.0
N1082 N 0.98009 0.45024 0.80852 0.0
H1083 H 0.00841 0.473 0.81176 0.0
C1084 C 0.0134 0.56193 0.81126 0.0
C1085 C 0.00135 0.56398 0.81407 0.0
C1086 C -0.00052 0.56956 0.8326 0.0
C1087 C 0.00933 0.57284 0.8489 0.0
C1088 C 0.02109 0.5704 0.84641 0.0
C1089 C 0.02315 0.56509 0.82766 0.0
C1090 C 0.01297 0.56249 0.77389 0.0
C1091 C 0.023 0.577 0.76868 0.0
C1092 C 0.01939 0.58438 0.75426 0.0
C1093 C 0.00568 0.57732 0.74441 0.0
C1094 C 0.99607 0.56242 0.74847 0.0
C1095 C -0.00041 0.55511 0.76317 0.0
C1096 C 0.01015 0.54094 0.79205 0.0
C1097 C 0.99601 0.53101 0.79949 0.0
C1098 C 0.99128 0.51619 0.80089 0.0
C1099 C 0.00046 0.51088 0.79464 0.0
C1100 C 0.01442 0.52079 0.78661 0.0
C1101 C 0.01919 0.53566 0.78538 0.0
C1102 C 0.98306 0.44617 0.82829 0.0
C1103 C 0.97206 0.44086 0.8434 0.0
C1104 C 0.97374 0.43508 0.86181 0.0
C1105 C 0.98653 0.43455 0.8655 0.0
C1106 C -0.00221 0.44037 0.85058 0.0
C1107 C 0.99606 0.44608 0.83211 0.0
C1108 C 0.97934 0.44126 0.79143 0.0
C1109 C 0.99193 0.4436 0.78071 0.0
C1110 C 0.99088 0.43367 0.7656 0.0
C1111 C 0.97722 0.42138 0.76087 0.0
C1112 C 0.96463 0.41941 0.77123 0.0
C1113 C 0.96572 0.42924 0.78637 0.0
C1114 C 0.98573 0.46545 0.80442 0.0
C1115 C 0.97597 0.46976 0.7977 0.0
C1116 C 0.98081 0.48442 0.79399 0.0
C1117 C 0.99556 0.49516 0.79712 0.0
C1118 C 0.00544 0.49075 0.80338 0.0
C1119 C 0.00059 0.47601 0.80686 0.0
H1120 H 0.45921 0.42801 0.81447 0.0
N1121 N 0.46113 0.44945 0.79142 0.0
H1122 H 0.44551 0.41839 0.84671 0.0
H1123 H 0.44498 0.45934 0.81127 0.0
H1124 H 0.43137 0.44994 0.84369 0.0
H1125 H 0.43758 0.4505 0.77639 0.0
H1126 H 0.41987 0.43357 0.75145 0.0
H1127 H 0.46416 0.43092 0.76745 0.0
H1128 H 0.44633 0.41362 0.74295 0.0
H1129 H 0.48281 0.46477 0.81759 0.0
H1130 H 0.46261 0.46969 0.76285 0.0
H1131 H 0.49978 0.49085 0.81827 0.0
H1132 H 0.48016 0.49564 0.76274 0.0
H1133 H 0.55817 0.5585 0.80702 0.0
H1134 H 0.57024 0.56908 0.83946 0.0
H1135 H 0.53654 0.57908 0.85478 0.0
H1136 H 0.52446 0.5685 0.82175 0.0
H1137 H 0.54096 0.58216 0.77339 0.0
H1138 H 0.56094 0.59518 0.7485 0.0
H1139 H 0.56851 0.55893 0.74808 0.0
H1140 H 0.54852 0.54598 0.77199 0.0
H1141 H 0.53772 0.53485 0.80383 0.0
H1142 H 0.52028 0.50905 0.802 0.0
H1143 H 0.48746 0.51812 0.77908 0.0
N1144 N 0.53323 0.55713 0.79219 0.0
H1145 H 0.50557 0.54424 0.77966 0.0
C1146 C 0.45312 0.44434 0.81058 0.0
C1147 C 0.45317 0.43283 0.82085 0.0
C1148 C 0.44541 0.42744 0.83928 0.0
C1149 C 0.43741 0.43347 0.84781 0.0
C1150 C 0.43731 0.44499 0.83741 0.0
C1151 C 0.44511 0.45039 0.81894 0.0
C1152 C 0.45222 0.44195 0.77375 0.0
C1153 C 0.43975 0.44275 0.76872 0.0
C1154 C 0.42957 0.43297 0.75456 0.0
C1155 C 0.43154 0.42207 0.74539 0.0
C1156 C 0.4445 0.42194 0.7495 0.0
C1157 C 0.45472 0.4318 0.76353 0.0
C1158 C 0.47115 0.46506 0.79051 0.0
C1159 C 0.48206 0.47144 0.80565 0.0
C1160 C 0.4919 0.4864 0.80586 0.0
C1161 C 0.49145 0.49545 0.79048 0.0
C1162 C 0.48068 0.48909 0.77506 0.0
C1163 C 0.47059 0.47408 0.77509 0.0
C1164 C 0.5403 0.56267 0.81186 0.0
C1165 C 0.55322 0.56281 0.8173 0.0
C1166 C 0.56013 0.56884 0.83601 0.0
C1167 C 0.55434 0.57489 0.84975 0.0
C1168 C 0.54134 0.57461 0.84443 0.0
C1169 C 0.53439 0.56851 0.82568 0.0
C1170 C 0.54314 0.56311 0.77477 0.0
C1171 C 0.54669 0.5769 0.76742 0.0
C1172 C 0.55821 0.58437 0.75338 0.0
C1173 C 0.56647 0.57819 0.74646 0.0
C1174 C 0.56231 0.564 0.75284 0.0
C1175 C 0.55079 0.55653 0.76677 0.0
C1176 C 0.52301 0.54161 0.79171 0.0
C1177 C 0.52686 0.53141 0.79825 0.0
C1178 C 0.51673 0.51652 0.79739 0.0
C1179 C 0.50234 0.51138 0.79055 0.0
C1180 C 0.49848 0.52161 0.78415 0.0
C1181 C 0.50876 0.53655 0.78462 0.0
H1182 H 0.69493 0.8927 0.53392 0.0
N1183 N 0.6759 0.88124 0.56484 0.0
H1184 H 0.69183 0.90232 0.50134 0.0
H1185 H 0.65077 0.88004 0.55161 0.0
H1186 H 0.64723 0.88878 0.5188 0.0
H1187 H 0.65201 0.87607 0.58812 0.0
H1188 H 0.65129 0.89271 0.61361 0.0
H1189 H 0.69846 0.90499 0.5803 0.0
H1190 H 0.69789 0.92176 0.60558 0.0
H1191 H 0.6923 0.87002 0.57488 0.0
H1192 H 0.64775 0.85801 0.56156 0.0
H1193 H 0.6848 0.84426 0.57776 0.0
H1194 H 0.64026 0.83235 0.56358 0.0
H1195 H 0.6687 0.77536 0.55258 0.0
H1196 H 0.6709 0.76526 0.51994 0.0
H1197 H 0.62679 0.75393 0.50414 0.0
H1198 H 0.62459 0.76399 0.53726 0.0
H1199 H 0.62813 0.74893 0.58282 0.0
H1200 H 0.63573 0.7364 0.60661 0.0
H1201 H 0.67739 0.77617 0.61449 0.0
H1202 H 0.67003 0.78831 0.58981 0.0
H1203 H 0.6704 0.79876 0.55347 0.0
H1204 H 0.67741 0.82423 0.55468 0.0
H1205 H 0.63672 0.81271 0.58577 0.0
N1206 N 0.6444 0.77544 0.56726 0.0
H1207 H 0.62946 0.7869 0.58376 0.0
C1208 C 0.67311 0.88554 0.54511 0.0
C1209 C 0.68447 0.89172 0.53054 0.0
C1210 C 0.68262 0.89713 0.51189 0.0
C1211 C 0.66926 0.89636 0.50736 0.0
C1212 C 0.65775 0.88979 0.52184 0.0
C1213 C 0.65968 0.88456 0.54058 0.0
C1214 C 0.67534 0.88939 0.58223 0.0
C1215 C 0.6621 0.88587 0.59213 0.0
C1216 C 0.6617 0.89543 0.60666 0.0
C1217 C 0.67452 0.90861 0.61155 0.0
C1218 C 0.68785 0.91163 0.60242 0.0
C1219 C 0.68821 0.90211 0.58791 0.0
C1220 C 0.6707 0.86599 0.5678 0.0
C1221 C 0.6809 0.86181 0.57264 0.0
C1222 C 0.6766 0.8471 0.57411 0.0
C1223 C 0.66195 0.83621 0.57064 0.0
C1224 C 0.65161 0.84043 0.56649 0.0
C1225 C 0.65592 0.85518 0.56516 0.0
C1226 C 0.64641 0.77044 0.54739 0.0
C1227 C 0.65952 0.77085 0.54208 0.0
C1228 C 0.6608 0.76511 0.52331 0.0
C1229 C 0.64903 0.7588 0.50943 0.0
C1230 C 0.63601 0.7586 0.5146 0.0
C1231 C 0.63476 0.7644 0.5334 0.0
C1232 C 0.64839 0.76952 0.5844 0.0
C1233 C 0.63878 0.755 0.59003 0.0
C1234 C 0.64316 0.74788 0.60375 0.0
C1235 C 0.65727 0.75521 0.61242 0.0
C1236 C 0.66657 0.77007 0.60779 0.0
C1237 C 0.66226 0.77712 0.59379 0.0
C1238 C 0.64922 0.79079 0.56833 0.0
C1239 C 0.66288 0.80158 0.56045 0.0
C1240 C 0.66699 0.81626 0.56138 0.0
C1241 C 0.65765 0.82056 0.57036 0.0
C1242 C 0.6441 0.80978 0.57851 0.0
C1243 C 0.63996 0.79505 0.57748 0.0
H1244 H 0.25351 0.87394 0.54386 0.0
N1245 N 0.229 0.86669 0.5645 0.0
H1246 H 0.26093 0.88549 0.50985 0.0
H1247 H 0.21201 0.87191 0.53796 0.0
H1248 H 0.21946 0.88389 0.50475 0.0
H1249 H 0.21931 0.88614 0.56864 0.0
H1250 H 0.22943 0.90713 0.59144 0.0
H1251 H 0.24785 0.87269 0.59498 0.0
H1252 H 0.25786 0.89364 0.61846 0.0
H1253 H 0.22676 0.84082 0.5666 0.0
H1254 H 0.20097 0.86164 0.56949 0.0
H1255 H 0.20447 0.81696 0.56929 0.0
H1256 H 0.17866 0.83801 0.57063 0.0
H1257 H 0.1244 0.74417 0.54498 0.0
H1258 H 0.11115 0.73749 0.51234 0.0
H1259 H 0.12178 0.78212 0.50428 0.0
H1260 H 0.13432 0.78847 0.53743 0.0
H1261 H 0.11662 0.77917 0.56823 0.0
H1262 H 0.0948 0.76842 0.58989 0.0
H1263 H 0.10771 0.73954 0.6167 0.0
H1264 H 0.12946 0.75017 0.59432 0.0
H1265 H 0.16208 0.77714 0.54807 0.0
H1266 H 0.18467 0.80067 0.54948 0.0
H1267 H 0.16335 0.81708 0.58932 0.0
N1268 N 0.13617 0.76966 0.56438 0.0
H1269 H 0.14073 0.794 0.58684 0.0
C1270 C 0.23227 0.87205 0.54357 0.0
C1271 C 0.24596 0.87587 0.53516 0.0
C1272 C 0.25022 0.88259 0.51583 0.0
C1273 C 0.24084 0.88574 0.50457 0.0
C1274 C 0.22691 0.88147 0.51278 0.0
C1275 C 0.22264 0.87466 0.532 0.0
C1276 C 0.23289 0.8778 0.58002 0.0
C1277 C 0.22749 0.88744 0.57968 0.0
C1278 C 0.23329 0.8995 0.59287 0.0
C1279 C 0.24458 0.90218 0.60668 0.0
C1280 C 0.24937 0.89206 0.60776 0.0
C1281 C 0.24358 0.88002 0.59452 0.0
C1282 C 0.2156 0.85301 0.56757 0.0
C1283 C 0.21627 0.84021 0.56777 0.0
C1284 C 0.20348 0.82659 0.56908 0.0
C1285 C 0.18965 0.82545 0.56988 0.0
C1286 C 0.18905 0.83837 0.57026 0.0
C1287 C 0.20189 0.85199 0.56933 0.0
C1288 C 0.13041 0.76677 0.54363 0.0
C1289 C 0.12404 0.75253 0.53595 0.0
C1290 C 0.11652 0.74876 0.51724 0.0
C1291 C 0.1153 0.75924 0.50564 0.0
C1292 C 0.12224 0.7737 0.51295 0.0
C1293 C 0.12961 0.7774 0.53182 0.0
C1294 C 0.1247 0.76542 0.57963 0.0
C1295 C 0.11491 0.77069 0.57898 0.0
C1296 C 0.10244 0.76457 0.59152 0.0
C1297 C 0.09943 0.75303 0.60496 0.0
C1298 C 0.1096 0.74827 0.6063 0.0
C1299 C 0.12209 0.75442 0.59372 0.0
C1300 C 0.14953 0.78359 0.56709 0.0
C1301 C 0.1623 0.78582 0.55712 0.0
C1302 C 0.17527 0.79929 0.55812 0.0
C1303 C 0.17593 0.81089 0.56952 0.0
C1304 C 0.16324 0.80855 0.58002 0.0
C1305 C 0.15017 0.79514 0.57869 0.0
H1306 H 0.22427 0.33403 0.55071 0.0
N1307 N 0.22459 0.3586 0.5644 0.0
H1308 H 0.23365 0.33095 0.51788 0.0
H1309 H 0.2358 0.37767 0.53343 0.0
H1310 H 0.2452 0.37461 0.50018 0.0
H1311 H 0.25237 0.37209 0.57637 0.0
H1312 H 0.26395 0.36261 0.59888 0.0
H1313 H 0.20997 0.33504 0.59138 0.0
H1314 H 0.22137 0.32597 0.61428 0.0
H1315 H 0.20103 0.33164 0.55518 0.0
H1316 H 0.21328 0.37511 0.57478 0.0
H1317 H 0.17548 0.32467 0.55569 0.0
H1318 H 0.18744 0.36835 0.57442 0.0
H1319 H 0.09604 0.30401 0.5432 0.0
H1320 H 0.08526 0.30456 0.51015 0.0
H1321 H 0.11516 0.35105 0.50633 0.0
H1322 H 0.12585 0.35035 0.5395 0.0
H1323 H 0.11911 0.35177 0.57457 0.0
H1324 H 0.10315 0.35428 0.59959 0.0
H1325 H 0.08333 0.30856 0.61477 0.0
H1326 H 0.09963 0.30636 0.59013 0.0
H1327 H 0.13267 0.31941 0.53719 0.0
H1328 H 0.15869 0.32802 0.53699 0.0
H1329 H 0.16422 0.35412 0.59118 0.0
N1330 N 0.11758 0.32622 0.56332 0.0
H1331 H 0.13832 0.34615 0.59072 0.0
C1332 C 0.22932 0.35615 0.54455 0.0
C1333 C 0.22862 0.3429 0.53971 0.0
C1334 C 0.23396 0.34112 0.52086 0.0
C1335 C 0.24015 0.35253 0.50641 0.0
C1336 C 0.24062 0.36567 0.51109 0.0
C1337 C 0.2352 0.36742 0.52998 0.0
C1338 C 0.23033 0.35427 0.58152 0.0
C1339 C 0.24551 0.36217 0.58494 0.0
C1340 C 0.25211 0.35672 0.59789 0.0
C1341 C 0.24362 0.34332 0.60804 0.0
C1342 C 0.22829 0.33608 0.60614 0.0
C1343 C 0.22171 0.3414 0.59296 0.0
C1344 C 0.20919 0.35398 0.56501 0.0
C1345 C 0.19827 0.33978 0.55942 0.0
C1346 C 0.18356 0.33581 0.55959 0.0
C1347 C 0.17933 0.34598 0.56486 0.0
C1348 C 0.19025 0.36018 0.57049 0.0
C1349 C 0.20502 0.36409 0.57061 0.0
C1350 C 0.11168 0.32707 0.54372 0.0
C1351 C 0.10025 0.31428 0.53516 0.0
C1352 C 0.09418 0.31463 0.51628 0.0
C1353 C 0.09941 0.32785 0.50561 0.0
C1354 C 0.11082 0.34073 0.5143 0.0
C1355 C 0.11695 0.34035 0.5332 0.0
C1356 C 0.11049 0.32882 0.58052 0.0
C1357 C 0.11155 0.3424 0.58364 0.0
C1358 C 0.10235 0.34378 0.59788 0.0
C1359 C 0.09182 0.33159 0.60906 0.0
C1360 C 0.09141 0.31824 0.60668 0.0
C1361 C 0.10068 0.31692 0.59256 0.0
C1362 C 0.13331 0.33224 0.56359 0.0
C1363 C 0.13949 0.3272 0.54885 0.0
C1364 C 0.1544 0.332 0.54892 0.0
C1365 C 0.1636 0.34169 0.56419 0.0
C1366 C 0.15751 0.34682 0.57901 0.0
C1367 C 0.14254 0.34217 0.57875 0.0
H1368 H 0.98282 0.37155 0.09005 0.0
H1369 H 0.03088 0.45137 0.13903 0.0
H1370 H 0.02114 0.40691 0.06103 0.0
H1371 H 0.99183 0.41707 0.16812 0.0
H1372 H 0.02716 0.43509 0.11015 0.0
H1373 H 0.98567 0.38785 0.1188 0.0
C1374 C 0.99183 0.38272 0.08974 0.0
C1375 C 0.00176 0.38787 0.07313 0.0
C1376 C 0.01936 0.4311 0.1228 0.0
C1377 C 0.00506 0.40655 0.10586 0.0
C1378 C 0.02151 0.4404 0.13933 0.0
C1379 C 0.01169 0.43556 0.15606 0.0
C1380 C 0.00731 0.41681 0.12296 0.0
C1381 C -0.00039 0.42129 0.15546 0.0
C1382 C 0.99343 0.39202 0.10612 0.0
C1383 C 0.01322 0.40245 0.0735 0.0
N1384 N -0.0022 0.41238 0.13922 0.0
N1385 N 0.01455 0.41125 0.08958 0.0
H1386 H 0.58632 0.6087 0.0663 0.0
H1387 H 0.60115 0.55707 0.13881 0.0
H1388 H 0.62641 0.60749 0.06333 0.0
H1389 H 0.56777 0.56808 0.15081 0.0
H1390 H 0.60958 0.57374 0.10929 0.0
H1391 H 0.57827 0.59192 0.09539 0.0
C1392 C 0.59345 0.60491 0.07176 0.0
C1393 C 0.60709 0.60955 0.06235 0.0
C1394 C 0.6004 0.57245 0.1184 0.0
C1395 C 0.59786 0.5902 0.0957 0.0
C1396 C 0.59559 0.56297 0.13529 0.0
C1397 C 0.58366 0.56107 0.14733 0.0
C1398 C 0.59317 0.58002 0.11343 0.0
C1399 C 0.57679 0.5689 0.1418 0.0
C1400 C 0.58885 0.59534 0.08842 0.0
C1401 C 0.61585 0.60426 0.07017 0.0
N1402 N 0.58162 0.57798 0.12528 0.0
N1403 N 0.61106 0.59481 0.08636 0.0
H1404 H 0.38581 0.96768 0.04806 0.0
H1405 H 0.41923 0.00709 0.15609 0.0
H1406 H 0.38349 0.00491 0.06954 0.0
H1407 H 0.41764 0.96775 0.13542 0.0
H1408 H 0.40827 0.00806 0.12332 0.0
H1409 H 0.39949 0.96909 0.07881 0.0
C1410 C 0.3882 0.9762 0.05922 0.0
C1411 C 0.38337 0.98613 0.05623 0.0
C1412 C 0.41038 -0.00074 0.12595 0.0
C1413 C 0.39911 0.98778 0.0917 0.0
C1414 C 0.41671 -0.00125 0.14458 0.0
C1415 C 0.41923 0.98725 0.14854 0.0
C1416 C 0.40664 0.98823 0.11117 0.0
C1417 C 0.41566 0.97667 0.13315 0.0
C1418 C 0.39604 0.97699 0.07683 0.0
C1419 C 0.38693 0.99698 0.07123 0.0
N1420 N 0.40952 0.97739 0.11522 0.0
N1421 N 0.39453 0.99748 0.08839 0.0
H1422 H 0.36115 0.96861 0.94478 0.0
H1423 H 0.42671 0.00473 0.86334 0.0
H1424 H 0.39696 0.01295 0.95037 0.0
H1425 H 0.39978 0.95816 0.87187 0.0
H1426 H 0.41466 0.0084 0.89305 0.0
H1427 H 0.37363 0.96508 0.9154 0.0
C1428 C 0.37161 0.97763 0.93976 0.0
C1429 C 0.37805 0.9911 0.95002 0.0
C1430 C 0.41145 0.99739 0.88844 0.0
C1431 C 0.39235 0.98713 0.91643 0.0
C1432 C 0.41839 0.99526 0.87155 0.0
C1433 C 0.41431 0.98109 0.86502 0.0
C1434 C 0.4002 0.98528 0.89877 0.0
C1435 C 0.40317 0.96928 0.87606 0.0
C1436 C 0.37876 0.97558 0.92307 0.0
C1437 C 0.39164 0.00238 0.94291 0.0
N1438 N 0.39646 0.97164 0.89231 0.0
N1439 N 0.39833 0.00016 0.92649 0.0
H1440 H 0.00223 0.38218 0.95273 0.0
H1441 H 0.97714 0.43524 0.90492 0.0
H1442 H 0.97189 0.39225 0.98267 0.0
H1443 H -0.00143 0.41708 0.86903 0.0
H1444 H 0.97757 0.42168 0.93493 0.0
H1445 H 0.00336 0.39698 0.92314 0.0
C1446 C 0.99582 0.38749 0.95311 0.0
C1447 C 0.9869 0.38591 0.9702 0.0
C1448 C 0.98222 0.4207 0.9205 0.0
C1449 C 0.98825 0.40294 0.93649 0.0
C1450 C 0.98194 0.42841 0.90332 0.0
C1451 C 0.98774 0.42726 0.88432 0.0
C1452 C 0.98842 0.4118 0.91877 0.0
C1453 C 0.99411 0.41846 0.88337 0.0
C1454 C 0.99646 0.39593 0.93621 0.0
C1455 C 0.97885 0.39307 0.96982 0.0
N1456 N 0.99424 0.41104 0.90032 0.0
N1457 N 0.97974 0.40128 0.95328 0.0
H1458 H 0.60974 0.59884 0.95734 0.0
H1459 H 0.55923 0.60051 0.86717 0.0
H1460 H 0.60143 0.63419 0.94884 0.0
H1461 H 0.56741 0.56516 0.87653 0.0
H1462 H 0.5737 0.61256 0.89793 0.0
H1463 H 0.59363 0.58604 0.92834 0.0
C1464 C 0.60452 0.60392 0.94936 0.0
C1465 C 0.60697 0.61762 0.95548 0.0
C1466 C 0.57227 0.60214 0.8933 0.0
C1467 C 0.58846 0.60301 0.92225 0.0
C1468 C 0.56393 0.5952 0.87582 0.0
C1469 C 0.56217 0.58184 0.86919 0.0
C1470 C 0.57891 0.59566 0.90423 0.0
C1471 C 0.56867 0.57556 0.88087 0.0
C1472 C 0.5953 0.59659 0.93282 0.0
C1473 C 0.59988 0.62365 0.94461 0.0
N1474 N 0.57678 0.58255 0.89776 0.0
N1475 N 0.59097 0.61632 0.92849 0.0
H1476 H 0.00223 0.62684 0.94303 0.0
H1477 H 0.00744 0.56257 0.88807 0.0
H1478 H 0.98245 0.58369 0.96927 0.0
H1479 H 0.00647 0.59668 0.85376 0.0
H1480 H 0.00273 0.57215 0.91999 0.0
H1481 H 0.00826 0.6178 0.91186 0.0
C1482 C -0.00079 0.61548 0.94226 0.0
C1483 C 0.99177 0.60597 0.9587 0.0
C1484 C 0.0036 0.57753 0.90546 0.0
C1485 C -0.0012 0.59567 0.9233 0.0
C1486 C 0.00636 0.57215 0.88734 0.0
C1487 C 0.00727 0.57886 0.86837 0.0
C1488 C 0.00206 0.58986 0.90455 0.0
C1489 C 0.00572 0.59117 0.86813 0.0
C1490 C 0.00261 0.61034 0.92447 0.0
C1491 C 0.98808 0.59135 0.95687 0.0
N1492 N 0.00325 0.59634 0.88598 0.0
N1493 N 0.99172 0.58666 0.93952 0.0
H1494 H 0.4083 0.39158 0.96624 0.0
H1495 H 0.40988 0.42811 0.85786 0.0
H1496 H 0.37237 0.39607 0.9444 0.0
H1497 H 0.44628 0.42557 0.88249 0.0
H1498 H 0.39619 0.4173 0.8898 0.0
H1499 H 0.42253 0.40473 0.93593 0.0
C1500 C 0.40341 0.39537 0.95507 0.0
C1501 C 0.3891 0.39266 0.9578 0.0
C1502 C 0.40719 0.41917 0.88823 0.0
C1503 C 0.40536 0.40774 0.92294 0.0
C1504 C 0.41504 0.42541 0.87005 0.0
C1505 C 0.42921 0.42764 0.86744 0.0
C1506 C 0.41356 0.41514 0.90389 0.0
C1507 C 0.43529 0.4238 0.88367 0.0
C1508 C 0.41156 0.40291 0.93776 0.0
C1509 C 0.38336 0.39789 0.94287 0.0
N1510 N 0.42742 0.41769 0.90113 0.0
N1511 N 0.39149 0.40513 0.926 0.0
H1512 H 0.60376 0.97623 0.95907 0.0
H1513 H 0.57416 0.00656 0.87056 0.0
H1514 H 0.60967 0.01945 0.95966 0.0
H1515 H 0.55655 0.96053 0.88075 0.0
H1516 H 0.58924 0.01181 0.90124 0.0
H1517 H 0.58863 0.97064 0.92804 0.0
C1518 C 0.60195 0.98456 0.95264 0.0
C1519 C 0.60796 0.99832 0.96202 0.0
C1520 C 0.58204 0.00055 0.89678 0.0
C1521 C 0.59075 0.99201 0.92658 0.0
C1522 C 0.57331 0.99753 0.87932 0.0
C1523 C 0.56394 0.98305 0.87301 0.0
C1524 C 0.58157 0.98907 0.90799 0.0
C1525 C 0.56371 0.97186 0.8848 0.0
C1526 C 0.59326 0.98133 0.93501 0.0
C1527 C 0.6052 0.00867 0.95304 0.0
N1528 N 0.57241 0.97511 0.90167 0.0
N1529 N 0.59685 0.00532 0.93582 0.0
H1530 H 0.58944 0.97694 0.06387 0.0
H1531 H 0.58876 0.02569 0.15792 0.0
H1532 H 0.62539 0.01981 0.07881 0.0
H1533 H 0.55316 0.98212 0.14554 0.0
H1534 H 0.6016 0.02415 0.12756 0.0
H1535 H 0.57537 0.9789 0.0926 0.0
C1536 C 0.59436 0.98676 0.07317 0.0
C1537 C 0.60862 0.99821 0.06899 0.0
C1538 C 0.59095 0.01493 0.1314 0.0
C1539 C 0.59261 0.00055 0.10178 0.0
C1540 C 0.58355 0.01585 0.14867 0.0
C1541 C 0.56985 0.00401 0.15431 0.0
C1542 C 0.58466 0.00207 0.11964 0.0
C1543 C 0.56378 0.99144 0.14191 0.0
C1544 C 0.58633 0.98788 0.08955 0.0
C1545 C 0.61445 0.01069 0.08151 0.0
N1546 N 0.57124 0.99078 0.12518 0.0
N1547 N 0.60644 0.01151 0.09732 0.0
H1548 H 0.97436 0.6113 0.08156 0.0
H1549 H 0.00589 0.566 0.13685 0.0
H1550 H 0.01121 0.60885 0.05784 0.0
H1551 H 0.97737 0.57836 0.16718 0.0
H1552 H 0.00652 0.57986 0.10646 0.0
H1553 H 0.97373 0.5973 0.11178 0.0
C1554 C 0.98232 0.60781 0.08271 0.0
C1555 C 0.99286 0.61125 0.06719 0.0
C1556 C 0.00012 0.57951 0.11979 0.0
C1557 C 0.99216 0.59517 0.10164 0.0
C1558 C -0.00021 0.57165 0.13719 0.0
C1559 C 0.99154 0.57096 0.15467 0.0
C1560 C 0.99206 0.58668 0.11978 0.0
C1561 C 0.98367 0.57832 0.15399 0.0
C1562 C 0.98197 0.59985 0.09998 0.0
C1563 C 0.00292 0.60647 0.06948 0.0
N1564 N 0.98412 0.58584 0.13685 0.0
N1565 N 0.00229 0.59862 0.08636 0.0
H1566 H 0.39394 0.37395 0.066 0.0
H1567 H 0.43093 0.4324 0.15642 0.0
H1568 H 0.39112 0.41293 0.07009 0.0
H1569 H 0.44484 0.40189 0.14005 0.0
H1570 H 0.41453 0.42406 0.12682 0.0
H1571 H 0.41052 0.38241 0.09558 0.0
C1572 C 0.39673 0.38424 0.07318 0.0
C1573 C 0.39114 0.39275 0.06553 0.0
C1574 C 0.42122 0.41924 0.12969 0.0
C1575 C 0.41009 0.40247 0.09935 0.0
C1576 C 0.4307 0.42407 0.14651 0.0
C1577 C 0.43939 0.4179 0.1508 0.0
C1578 C 0.42025 0.40802 0.11712 0.0
C1579 C 0.43824 0.40685 0.13761 0.0
C1580 C 0.40626 0.38909 0.08998 0.0
C1581 C 0.3952 0.40603 0.07541 0.0
N1582 N 0.42881 0.40223 0.12143 0.0
N1583 N 0.40439 0.41046 0.09184 0.0
H1584 H 0.63536 0.69862 0.40978 0.0
H1585 H 0.6724 0.76915 0.4828 0.0
H1586 H 0.67952 0.73461 0.40172 0.0
H1587 H 0.62849 0.73295 0.49188 0.0
H1588 H 0.67483 0.75702 0.45225 0.0
H1589 H 0.63228 0.71132 0.4392 0.0
C1590 C 0.64441 0.70919 0.41421 0.0
C1591 C 0.65773 0.71555 0.40332 0.0
C1592 C 0.66464 0.75174 0.46087 0.0
C1593 C 0.65427 0.73016 0.43692 0.0
C1594 C 0.66326 0.75864 0.47836 0.0
C1595 C 0.65025 0.75202 0.49 0.0
C1596 C 0.65293 0.73807 0.45493 0.0
C1597 C 0.63867 0.73851 0.48328 0.0
C1598 C 0.64264 0.71644 0.43098 0.0
C1599 C 0.66907 0.72928 0.40969 0.0
N1600 N 0.64031 0.73195 0.46626 0.0
N1601 N 0.66709 0.73611 0.42608 0.0
H1602 H 0.29039 0.94836 0.40813 0.0
H1603 H 0.22473 0.88242 0.46968 0.0
H1604 H 0.24474 0.93164 0.39443 0.0
H1605 H 0.26827 0.90845 0.49468 0.0
H1606 H 0.23256 0.89793 0.43907 0.0
H1607 H 0.28305 0.93136 0.43714 0.0
C1608 C 0.27883 0.9411 0.41117 0.0
C1609 C 0.26816 0.94148 0.39889 0.0
C1610 C 0.2404 0.90019 0.45124 0.0
C1611 C 0.25973 0.92194 0.43191 0.0
C1612 C 0.23593 0.89137 0.46877 0.0
C1613 C 0.2458 0.89417 0.48496 0.0
C1614 C 0.25488 0.91184 0.44973 0.0
C1615 C 0.26029 0.90574 0.48258 0.0
C1616 C 0.27466 0.93142 0.42774 0.0
C1617 C 0.25334 0.9318 0.40357 0.0
N1618 N 0.26438 0.91417 0.46534 0.0
N1619 N 0.24957 0.92241 0.41967 0.0
H1620 H 0.05705 0.34495 0.40417 0.0
H1621 H 0.09236 0.3087 0.47357 0.0
H1622 H 0.06006 0.30752 0.38579 0.0
H1623 H 0.09179 0.34745 0.49173 0.0
H1624 H 0.08069 0.30841 0.44111 0.0
H1625 H 0.06992 0.34637 0.43615 0.0
C1626 C 0.06041 0.33705 0.40682 0.0
C1627 C 0.05742 0.32607 0.39226 0.0
C1628 C 0.08314 0.31702 0.45213 0.0
C1629 C 0.07215 0.32765 0.4288 0.0
C1630 C 0.08974 0.31714 0.47073 0.0
C1631 C 0.09296 0.32805 0.48544 0.0
C1632 C 0.07965 0.32786 0.44817 0.0
C1633 C 0.08958 0.33888 0.48076 0.0
C1634 C 0.06778 0.33788 0.42507 0.0
C1635 C 0.06208 0.31615 0.39654 0.0
N1636 N 0.08303 0.33847 0.46256 0.0
N1637 N 0.06917 0.31717 0.4144 0.0
H1638 H 0.07907 0.35712 0.29364 0.0
H1639 H 0.0802 0.32004 0.18635 0.0
H1640 H 0.04232 0.3174 0.27028 0.0
H1641 H 0.1168 0.36015 0.20898 0.0
H1642 H 0.06635 0.31867 0.21735 0.0
H1643 H 0.0932 0.35829 0.26298 0.0
C1644 C 0.07398 0.34864 0.28206 0.0
C1645 C 0.0595 0.33715 0.28451 0.0
C1646 C 0.07742 0.32777 0.21557 0.0
C1647 C 0.0756 0.33841 0.24939 0.0
C1648 C 0.08537 0.32851 0.19792 0.0
C1649 C 0.09971 0.34021 0.19508 0.0
C1650 C 0.08382 0.33881 0.23054 0.0
C1651 C 0.10573 0.35101 0.21043 0.0
C1652 C 0.08205 0.34932 0.26456 0.0
C1653 C 0.05345 0.32647 0.26902 0.0
N1654 N 0.09776 0.35004 0.2275 0.0
N1655 N 0.06153 0.32736 0.25213 0.0
H1656 H 0.68788 0.72694 0.29463 0.0
H1657 H 0.66672 0.76691 0.20927 0.0
H1658 H 0.64646 0.72558 0.29324 0.0
H1659 H 0.71132 0.77759 0.21966 0.0
H1660 H 0.65891 0.7506 0.23881 0.0
H1661 H 0.69641 0.74414 0.26568 0.0
C1662 C 0.68056 0.73021 0.28823 0.0
C1663 C 0.66642 0.72479 0.29639 0.0
C1664 C 0.67043 0.75657 0.23472 0.0
C1665 C 0.6761 0.74442 0.26331 0.0
C1666 C 0.67494 0.76602 0.2179 0.0
C1667 C 0.68976 0.77379 0.21195 0.0
C1668 C 0.68073 0.75468 0.24565 0.0
C1669 C 0.69977 0.77174 0.22349 0.0
C1670 C 0.68547 0.74007 0.27177 0.0
C1671 C 0.65745 0.72947 0.28751 0.0
N1672 N 0.69507 0.76235 0.23974 0.0
N1673 N 0.66242 0.73896 0.27144 0.0
H1674 H 0.25699 0.96541 0.293 0.0
H1675 H 0.24109 0.91443 0.1951 0.0
H1676 H 0.27566 0.93786 0.28549 0.0
H1677 H 0.20999 0.92633 0.21718 0.0
H1678 H 0.25585 0.92553 0.22578 0.0
H1679 H 0.24165 0.95387 0.26265 0.0
C1680 C 0.25787 0.95696 0.28494 0.0
C1681 C 0.26759 0.95257 0.29174 0.0
C1682 C 0.24576 0.92566 0.2239 0.0
C1683 C 0.25023 0.93947 0.25703 0.0
C1684 C 0.23725 0.91923 0.20643 0.0
C1685 C 0.22414 0.91929 0.2035 0.0
C1686 C 0.24132 0.93244 0.23846 0.0
C1687 C 0.22006 0.92615 0.21855 0.0
C1688 C 0.24908 0.95035 0.26771 0.0
C1689 C 0.26827 0.94153 0.2808 0.0
N1690 N 0.22865 0.9325 0.23533 0.0
N1691 N 0.25977 0.93542 0.26388 0.0
H1692 H 0.64343 0.91266 0.2861 0.0
H1693 H 0.70813 0.93007 0.20664 0.0
H1694 H 0.68412 0.95388 0.28518 0.0
H1695 H 0.66312 0.89658 0.19626 0.0
H1696 H 0.70037 0.93767 0.23754 0.0
H1697 H 0.65136 0.90523 0.25524 0.0
C1698 C 0.65403 0.92016 0.27942 0.0
C1699 C 0.66311 0.93393 0.28823 0.0
C1700 C 0.69222 0.92866 0.22846 0.0
C1701 C 0.67229 0.92542 0.25298 0.0
C1702 C 0.69662 0.92433 0.21076 0.0
C1703 C 0.68628 0.91263 0.19872 0.0
C1704 C 0.6774 0.92116 0.23432 0.0
C1705 C 0.67156 0.90546 0.20517 0.0
C1706 C 0.65853 0.91591 0.26177 0.0
C1707 C 0.67673 0.94319 0.27885 0.0
N1708 N 0.66757 0.90982 0.22252 0.0
N1709 N 0.68095 0.93874 0.26178 0.0
H1710 H 0.07553 0.72681 0.29873 0.0
H1711 H 0.07552 0.76353 0.19117 0.0
H1712 H 0.03944 0.73154 0.2784 0.0
H1713 H 0.11218 0.76055 0.21367 0.0
H1714 H 0.06226 0.75234 0.22319 0.0
H1715 H 0.08917 0.7395 0.26776 0.0
C1716 C 0.07048 0.73055 0.28775 0.0
C1717 C 0.0563 0.72808 0.29112 0.0
C1718 C 0.07322 0.75417 0.22114 0.0
C1719 C 0.07189 0.74262 0.25554 0.0
C1720 C 0.08083 0.76063 0.20291 0.0
C1721 C 0.09498 0.76294 0.19969 0.0
C1722 C 0.07978 0.74997 0.23627 0.0
C1723 C 0.10122 0.75877 0.21533 0.0
C1724 C 0.07829 0.73781 0.27006 0.0
C1725 C 0.05033 0.7332 0.27639 0.0
N1726 N 0.09357 0.75247 0.23289 0.0
N1727 N 0.05814 0.7402 0.25919 0.0
H1728 H 0.27639 0.31328 0.29026 0.0
H1729 H 0.22764 0.33351 0.21919 0.0
H1730 H 0.27144 0.35078 0.29919 0.0
H1731 H 0.23206 0.296 0.20761 0.0
H1732 H 0.24248 0.3388 0.25009 0.0
H1733 H 0.25928 0.30574 0.26119 0.0
C1734 C 0.27172 0.31992 0.28615 0.0
C1735 C 0.27544 0.33273 0.29716 0.0
C1736 C 0.24019 0.32936 0.24091 0.0
C1737 C 0.25584 0.32413 0.26405 0.0
C1738 C 0.23172 0.32635 0.22324 0.0
C1739 C 0.22876 0.3144 0.21072 0.0
C1740 C 0.24586 0.3204 0.24616 0.0
C1741 C 0.23409 0.30532 0.21688 0.0
C1742 C 0.26194 0.31559 0.26959 0.0
C1743 C 0.269 0.34086 0.29116 0.0
N1744 N 0.24252 0.30859 0.2341 0.0
N1745 N 0.25958 0.33644 0.27506 0.0
H1746 H 0.3006 0.36316 0.40848 0.0
H1747 H 0.22921 0.32879 0.48071 0.0
H1748 H 0.26336 0.31992 0.3999 0.0
H1749 H 0.26605 0.3724 0.48805 0.0
H1750 H 0.24113 0.3256 0.45035 0.0
H1751 H 0.28775 0.36697 0.43702 0.0
C1752 C 0.2897 0.35446 0.4126 0.0
C1753 C 0.28305 0.34118 0.40184 0.0
C1754 C 0.24657 0.33589 0.45852 0.0
C1755 C 0.26827 0.34549 0.43452 0.0
C1756 C 0.2398 0.33771 0.4759 0.0
C1757 C 0.24668 0.35086 0.487 0.0
C1758 C 0.26037 0.34729 0.45222 0.0
C1759 C 0.26028 0.36212 0.47987 0.0
C1760 C 0.28236 0.35666 0.42888 0.0
C1761 C 0.26891 0.33032 0.40781 0.0
N1762 N 0.26672 0.36005 0.46302 0.0
N1763 N 0.262 0.3327 0.42379 0.0
H1764 H 0.68233 0.93612 0.38684 0.0
H1765 H 0.65412 0.91074 0.5018 0.0
H1766 H 0.64488 0.93652 0.41268 0.0
H1767 H 0.6806 0.89701 0.4687 0.0
H1768 H 0.65194 0.92185 0.47021 0.0
H1769 H 0.68342 0.9236 0.41779 0.0
C1770 C 0.67433 0.93357 0.39902 0.0
C1771 C 0.6635 0.93737 0.39721 0.0
C1772 C 0.65816 0.91634 0.46986 0.0
C1773 C 0.66475 0.92315 0.43266 0.0
C1774 C 0.65935 0.90989 0.48788 0.0
C1775 C 0.66754 0.90285 0.48802 0.0
C1776 C 0.66537 0.91595 0.45184 0.0
C1777 C 0.67436 0.9025 0.46951 0.0
C1778 C 0.67493 0.92638 0.41663 0.0
C1779 C 0.6534 0.93376 0.41343 0.0
N1780 N 0.67319 0.90901 0.45222 0.0
N1781 N 0.65432 0.92693 0.43055 0.0
H1782 H 0.06187 0.71127 0.401 0.0
H1783 H 0.09765 0.76941 0.49181 0.0
H1784 H 0.05959 0.75059 0.40374 0.0
H1785 H 0.11187 0.73902 0.47614 0.0
H1786 H 0.08195 0.76143 0.46146 0.0
H1787 H 0.07816 0.71976 0.43086 0.0
C1788 C 0.06473 0.72165 0.40793 0.0
C1789 C 0.05936 0.73024 0.39984 0.0
C1790 C 0.08857 0.75657 0.46464 0.0
C1791 C 0.07797 0.73998 0.43401 0.0
C1792 C 0.09765 0.76119 0.4819 0.0
C1793 C 0.10619 0.75493 0.48663 0.0
C1794 C 0.08783 0.74545 0.45209 0.0
C1795 C 0.10535 0.74403 0.47338 0.0
C1796 C 0.0741 0.72652 0.4249 0.0
C1797 C 0.0635 0.74364 0.40941 0.0
N1798 N 0.09628 0.73959 0.4568 0.0
N1799 N 0.07252 0.74807 0.42604 0.0
H1800 H 0.35027 0.07752 0.72516 0.0
H1801 H 0.32275 0.07621 0.83998 0.0
H1802 H 0.31438 0.03882 0.75245 0.0
H1803 H 0.34682 0.11585 0.80452 0.0
H1804 H 0.32052 0.06214 0.80899 0.0
H1805 H 0.35044 0.09158 0.75515 0.0
C1806 C 0.34241 0.07198 0.73747 0.0
C1807 C 0.33232 0.05697 0.73635 0.0
C1808 C 0.32621 0.07392 0.808 0.0
C1809 C 0.33252 0.073 0.77078 0.0
C1810 C 0.32742 0.08199 0.82567 0.0
C1811 C 0.33504 0.09731 0.82498 0.0
C1812 C 0.33281 0.08117 0.78951 0.0
C1813 C 0.34111 0.10411 0.80599 0.0
C1814 C 0.34248 0.08003 0.75454 0.0
C1815 C 0.32235 0.05038 0.7527 0.0
N1816 N 0.33995 0.09601 0.78907 0.0
N1817 N 0.32277 0.05842 0.76935 0.0
H1818 H 0.95812 0.2761 0.72998 0.0
H1819 H 0.8922 0.23091 0.80917 0.0
H1820 H 0.91409 0.26763 0.72122 0.0
H1821 H 0.9337 0.23272 0.81351 0.0
H1822 H 0.90031 0.24458 0.77693 0.0
H1823 H 0.94973 0.26053 0.76067 0.0
C1824 C 0.94669 0.27096 0.73446 0.0
C1825 C 0.93681 0.27324 0.72302 0.0
C1826 C 0.90764 0.24195 0.78483 0.0
C1827 C 0.92717 0.25544 0.75812 0.0
C1828 C 0.90303 0.23419 0.80328 0.0
C1829 C 0.91234 0.23078 0.81407 0.0
C1830 C 0.92174 0.24647 0.77713 0.0
C1831 C 0.92618 0.2351 0.8056 0.0
C1832 C 0.94191 0.26204 0.75195 0.0
C1833 C 0.92213 0.26624 0.72954 0.0
N1834 N 0.93052 0.24284 0.78769 0.0
N1835 N 0.91779 0.25774 0.74668 0.0
H1836 H 0.73118 0.68907 0.7277 0.0
H1837 H 0.76004 0.66362 0.82283 0.0
H1838 H 0.72504 0.64587 0.73244 0.0
H1839 H 0.77826 0.70892 0.80653 0.0
H1840 H 0.74552 0.65665 0.79133 0.0
H1841 H 0.74665 0.69629 0.75844 0.0
C1842 C 0.73306 0.6811 0.7352 0.0
C1843 C 0.7268 0.66684 0.72747 0.0
C1844 C 0.75275 0.66811 0.79463 0.0
C1845 C 0.74441 0.67502 0.76268 0.0
C1846 C 0.76114 0.67213 0.81257 0.0
C1847 C 0.77047 0.68691 0.81744 0.0
C1848 C 0.75351 0.67894 0.78152 0.0
C1849 C 0.77108 0.69739 0.80367 0.0
C1850 C 0.74194 0.68525 0.75269 0.0
C1851 C 0.72967 0.65699 0.7378 0.0
N1852 N 0.76267 0.69321 0.78641 0.0
N1853 N 0.7382 0.66124 0.75494 0.0
H1854 H 0.7356 0.68153 0.61389 0.0
H1855 H 0.73471 0.62053 0.54048 0.0
H1856 H 0.70229 0.636 0.61706 0.0
H1857 H 0.75999 0.6666 0.52708 0.0
H1858 H 0.72448 0.62592 0.57084 0.0
H1859 H 0.74653 0.67617 0.58421 0.0
C1860 C 0.7306 0.67041 0.60835 0.0
C1861 C 0.718 0.6592 0.6179 0.0
C1862 C 0.73229 0.63484 0.56125 0.0
C1863 C 0.73047 0.65298 0.58411 0.0
C1864 C 0.7381 0.63177 0.54386 0.0
C1865 C 0.74823 0.64311 0.53111 0.0
C1866 C 0.73669 0.64936 0.56605 0.0
C1867 C 0.7524 0.6575 0.53657 0.0
C1868 C 0.73682 0.66736 0.5914 0.0
C1869 C 0.71196 0.64498 0.61009 0.0
N1870 N 0.74662 0.6602 0.55361 0.0
N1871 N 0.71828 0.64227 0.59369 0.0
H1872 H 0.3141 0.06104 0.6271 0.0
H1873 H 0.37952 0.11297 0.55087 0.0
H1874 H 0.35568 0.0627 0.62615 0.0
H1875 H 0.33465 0.10207 0.54258 0.0
H1876 H 0.37172 0.09623 0.58025 0.0
H1877 H 0.32219 0.07773 0.59783 0.0
C1878 C 0.32493 0.06489 0.62071 0.0
C1879 C 0.33422 0.06044 0.62911 0.0
C1880 C 0.36361 0.09755 0.57198 0.0
C1881 C 0.3436 0.07969 0.59562 0.0
C1882 C 0.36804 0.10708 0.55518 0.0
C1883 C 0.35776 0.10902 0.5442 0.0
C1884 C 0.34881 0.08996 0.57795 0.0
C1885 C 0.34306 0.10121 0.55075 0.0
C1886 C 0.32953 0.07442 0.60397 0.0
C1887 C 0.34813 0.06579 0.62013 0.0
N1888 N 0.33905 0.09207 0.56717 0.0
N1889 N 0.35243 0.07519 0.60392 0.0
H1890 H 0.94521 0.26371 0.61833 0.0
H1891 H 0.89505 0.2635 0.52608 0.0
H1892 H 0.9357 0.29807 0.60789 0.0
H1893 H 0.90421 0.22886 0.53618 0.0
H1894 H 0.90934 0.27594 0.55668 0.0
H1895 H 0.93 0.25056 0.58859 0.0
C1896 C 0.93994 0.2685 0.60977 0.0
C1897 C 0.94173 0.28201 0.61559 0.0
C1898 C 0.9082 0.26559 0.55225 0.0
C1899 C 0.92429 0.26702 0.58162 0.0
C1900 C 0.89993 0.25842 0.53485 0.0
C1901 C 0.89843 0.24511 0.52851 0.0
C1902 C 0.91504 0.25944 0.56344 0.0
C1903 C 0.90523 0.2392 0.54033 0.0
C1904 C 0.93124 0.26098 0.59282 0.0
C1905 C 0.93464 0.28769 0.60395 0.0
N1906 N 0.91326 0.24641 0.55719 0.0
N1907 N 0.92624 0.28017 0.58755 0.0
H1908 H 0.35227 0.29021 0.62231 0.0
H1909 H 0.33045 0.23233 0.53098 0.0
H1910 H 0.31053 0.25017 0.61884 0.0
H1911 H 0.37526 0.26531 0.54381 0.0
H1912 H 0.32264 0.23986 0.56171 0.0
H1913 H 0.36052 0.28257 0.59187 0.0
C1914 C 0.34483 0.27984 0.61514 0.0
C1915 C 0.33068 0.27081 0.62317 0.0
C1916 C 0.33419 0.24542 0.55785 0.0
C1917 C 0.34005 0.26205 0.58834 0.0
C1918 C 0.3387 0.24105 0.54036 0.0
C1919 C 0.35358 0.24812 0.53477 0.0
C1920 C 0.34459 0.25706 0.56983 0.0
C1921 C 0.36366 0.25964 0.54732 0.0
C1922 C 0.34957 0.27547 0.59782 0.0
C1923 C 0.32154 0.25747 0.61326 0.0
N1924 N 0.35898 0.26377 0.56422 0.0
N1925 N 0.32636 0.25353 0.59634 0.0
H1926 H 0.70313 0.05828 0.60021 0.0
H1927 H 0.77975 0.08709 0.54152 0.0
H1928 H 0.73884 0.05415 0.62392 0.0
H1929 H 0.74419 0.09092 0.51651 0.0
H1930 H 0.76504 0.07565 0.57232 0.0
H1931 H 0.71809 0.07088 0.56986 0.0
C1932 C 0.71411 0.06003 0.59904 0.0
C1933 C 0.71974 0.05513 0.61459 0.0
C1934 C 0.76044 0.07901 0.56014 0.0
C1935 C 0.7369 0.06954 0.57998 0.0
C1936 C 0.76882 0.0855 0.5425 0.0
C1937 C 0.76316 0.08989 0.52635 0.0
C1938 C 0.74624 0.07686 0.5617 0.0
C1939 C 0.74903 0.0878 0.52865 0.0
C1940 C 0.72265 0.06723 0.58173 0.0
C1941 C 0.73404 0.05771 0.6123 0.0
N1942 N 0.74102 0.08137 0.54596 0.0
N1943 N 0.74211 0.06471 0.59533 0.0
H1944 H 0.93451 0.64508 0.6252 0.0
H1945 H 0.90111 0.67043 0.53558 0.0
H1946 H 0.9386 0.68752 0.62349 0.0
H1947 H 0.88615 0.62512 0.54777 0.0
H1948 H 0.91617 0.67713 0.56648 0.0
H1949 H 0.91827 0.63783 0.59525 0.0
C1950 C 0.93202 0.65288 0.61853 0.0
C1951 C 0.93794 0.66694 0.62688 0.0
C1952 C 0.90953 0.66571 0.56245 0.0
C1953 C 0.91943 0.65872 0.5926 0.0
C1954 C 0.90081 0.66184 0.54485 0.0
C1955 C 0.89225 0.64714 0.53897 0.0
C1956 C 0.90988 0.65486 0.57422 0.0
C1957 C 0.8927 0.63659 0.55144 0.0
C1958 C 0.9227 0.64871 0.6015 0.0
C1959 C 0.93428 0.67656 0.61763 0.0
N1960 N 0.90142 0.64066 0.5684 0.0
N1961 N 0.92532 0.6723 0.60095 0.0
H1962 H 0.92953 0.65251 0.73786 0.0
H1963 H 0.93038 0.71293 0.81269 0.0
H1964 H 0.96374 0.69777 0.73707 0.0
H1965 H 0.90206 0.66664 0.822 0.0
H1966 H 0.94144 0.7078 0.78306 0.0
H1967 H 0.918 0.6577 0.76693 0.0
C1968 C 0.93462 0.66354 0.74382 0.0
C1969 C 0.94762 0.67472 0.73508 0.0
C1970 C 0.93278 0.69877 0.79158 0.0
C1971 C 0.93445 0.68075 0.76821 0.0
C1972 C 0.92648 0.70169 0.80855 0.0
C1973 C 0.91526 0.69021 0.81994 0.0
C1974 C 0.9278 0.68427 0.78585 0.0
C1975 C 0.91051 0.67586 0.81356 0.0
C1976 C 0.92804 0.66649 0.76041 0.0
C1977 C 0.95374 0.68881 0.7434 0.0
N1978 N 0.9168 0.67331 0.79697 0.0
N1979 N 0.94708 0.69143 0.75946 0.0
H1980 H 0.30087 0.26424 0.73859 0.0
H1981 H 0.33837 0.23283 0.81305 0.0
H1982 H 0.34474 0.27217 0.72979 0.0
H1983 H 0.2946 0.22507 0.82221 0.0
H1984 H 0.34043 0.24624 0.7815 0.0
H1985 H 0.29792 0.2489 0.76832 0.0
C1986 C 0.30988 0.26273 0.74289 0.0
C1987 C 0.3231 0.26954 0.73174 0.0
C1988 C 0.33034 0.24154 0.79034 0.0
C1989 C 0.31979 0.25198 0.76575 0.0
C1990 C 0.32918 0.23393 0.8084 0.0
C1991 C 0.31633 0.2279 0.82037 0.0
C1992 C 0.31859 0.24321 0.78419 0.0
C1993 C 0.30467 0.22944 0.81339 0.0
C1994 C 0.30818 0.25396 0.75986 0.0
C1995 C 0.33438 0.26717 0.73798 0.0
N1996 N 0.30611 0.23702 0.79583 0.0
N1997 N 0.33248 0.25862 0.75459 0.0
H1998 H 0.71716 0.0442 0.73458 0.0
H1999 H 0.77036 0.11843 0.79462 0.0
H2000 H 0.72836 0.08696 0.71287 0.0
H2001 H 0.75417 0.07578 0.82116 0.0
H2002 H 0.7567 0.10696 0.76318 0.0
H2003 H 0.73226 0.05548 0.76515 0.0
C2004 C 0.72279 0.05595 0.7362 0.0
C2005 C 0.72143 0.06463 0.72114 0.0
C2006 C 0.75617 0.10009 0.77585 0.0
C2007 C 0.73878 0.07759 0.75603 0.0
C2008 C 0.76393 0.10664 0.79385 0.0
C2009 C 0.76334 0.09807 0.81065 0.0
C2010 C 0.74774 0.08483 0.77456 0.0
C2011 C 0.75506 0.08283 0.80856 0.0
C2012 C 0.73141 0.06237 0.75367 0.0
C2013 C 0.72901 0.0798 0.72409 0.0
N2014 N 0.74753 0.0767 0.79088 0.0
N2015 N 0.73734 0.08578 0.74116 0.0
H2016 H 0.05114 0.37459 0.01368 0.0
H2017 H 0.07707 0.32008 0.05245 0.0
H2018 H 0.02115 0.3304 0.033 0.0
H2019 H 0.10297 0.3669 0.05931 0.0
H2020 H 0.05792 0.32287 0.03601 0.0
H2021 H 0.07168 0.37083 0.02095 0.0
C2022 C 0.04887 0.36403 0.01913 0.0
C2023 C 0.03445 0.35284 0.02299 0.0
C2024 C 0.06792 0.3325 0.04089 0.0
C2025 C 0.0578 0.34846 0.03113 0.0
C2026 C 0.07885 0.33094 0.05039 0.0
C2027 C 0.09166 0.34324 0.05767 0.0
C2028 C 0.06988 0.34647 0.03836 0.0
C2029 C 0.09343 0.35706 0.05389 0.0
C2030 C 0.06058 0.36192 0.02333 0.0
C2031 C 0.03212 0.33937 0.03005 0.0
N2032 N 0.08263 0.35827 0.04464 0.0
N2033 N 0.04369 0.33757 0.03398 0.0
H2034 H 0.61768 0.68544 0.03535 0.0
H2035 H 0.69218 0.75147 0.08052 0.0
H2036 H 0.65884 0.68623 0.03629 0.0
H2037 H 0.65149 0.75156 0.07899 0.0
H2038 H 0.68028 0.72803 0.06283 0.0
H2039 H 0.62991 0.70992 0.05033 0.0
C2040 C 0.62928 0.69075 0.03868 0.0
C2041 C 0.63722 0.68372 0.0346 0.0
C2042 C 0.67395 0.73319 0.06625 0.0
C2043 C 0.65128 0.71176 0.05171 0.0
C2044 C 0.68078 0.74667 0.07621 0.0
C2045 C 0.67284 0.75354 0.08127 0.0
C2046 C 0.65902 0.72645 0.06132 0.0
C2047 C 0.65801 0.74659 0.07564 0.0
C2048 C 0.63626 0.70474 0.04721 0.0
C2049 C 0.65224 0.69117 0.03921 0.0
N2050 N 0.65156 0.73341 0.06603 0.0
N2051 N 0.65875 0.70475 0.04753 0.0
H2052 H 0.30454 0.93252 0.01656 0.0
H2053 H 0.2471 0.9421 0.08524 0.0
H2054 H 0.31141 0.9743 0.03647 0.0
H2055 H 0.23759 0.90109 0.05816 0.0
H2056 H 0.2705 0.95412 0.06696 0.0
H2057 H 0.27996 0.92079 0.03161 0.0
C2058 C 0.30089 0.93924 0.02407 0.0
C2059 C 0.3101 0.95443 0.02531 0.0
C2060 C 0.26326 0.94251 0.06489 0.0
C2061 C 0.28195 0.94104 0.04259 0.0
C2062 C 0.24981 0.93564 0.07521 0.0
C2063 C 0.24033 0.92053 0.07329 0.0
C2064 C 0.26734 0.93423 0.05265 0.0
C2065 C 0.24463 0.91272 0.06038 0.0
C2066 C 0.28683 0.93253 0.03261 0.0
C2067 C 0.30472 0.96256 0.03516 0.0
N2068 N 0.25785 0.91964 0.05065 0.0
N2069 N 0.29104 0.95576 0.04349 0.0
H2070 H 0.36989 0.04813 0.01281 0.0
H2071 H 0.32181 0.07336 0.95047 0.0
H2072 H 0.32819 0.0187 0.98481 0.0
H2073 H 0.36422 0.10345 0.97608 0.0
H2074 H 0.32228 0.05343 0.96799 0.0
H2075 H 0.36649 0.06859 0.00413 0.0
C2076 C 0.35995 0.04596 0.00506 0.0
C2077 C 0.34939 0.03171 -0.00071 0.0
C2078 C 0.33142 0.06441 0.97 0.0
C2079 C 0.34545 0.05503 0.98928 0.0
C2080 C 0.3311 0.07585 0.96013 0.0
C2081 C 0.34307 0.09013 0.9616 0.0
C2082 C 0.34384 0.06719 0.98134 0.0
C2083 C 0.35489 0.09258 0.97415 0.0
C2084 C 0.35802 0.05764 9e-05 0.0
C2085 C 0.3367 0.02952 0.98935 0.0
N2086 N 0.35505 0.08121 0.98334 0.0
N2087 N 0.33514 0.04105 0.98452 0.0
H2088 H 0.93431 0.30856 0.01633 0.0
H2089 H 0.94138 0.25359 0.93985 0.0
H2090 H 0.97547 0.31505 0.99293 0.0
H2091 H 0.9012 0.24225 0.97224 0.0
H2092 H 0.95396 0.27595 0.95984 0.0
H2093 H 0.92181 0.28421 0.00072 0.0
C2094 C 0.94073 0.30486 0.00802 0.0
C2095 C 0.95596 0.31393 0.00584 0.0
C2096 C 0.94241 0.26853 0.96273 0.0
C2097 C 0.94173 0.28613 0.98791 0.0
C2098 C 0.93521 0.25563 0.95141 0.0
C2099 C 0.92014 0.24592 0.95429 0.0
C2100 C 0.93453 0.27192 0.97694 0.0
C2101 C 0.91275 0.24948 0.96921 0.0
C2102 C 0.93359 0.29095 -0.00084 0.0
C2103 C 0.96372 0.30851 0.99496 0.0
N2104 N 0.91999 0.26225 0.97986 0.0
N2105 N 0.95651 0.29504 0.98632 0.0
H2106 H 0.68175 0.63727 0.00156 0.0
H2107 H 0.75234 0.70255 0.94639 0.0
H2108 H 0.68464 0.67686 0.97955 0.0
H2109 H 0.74862 0.66122 0.96065 0.0
H2110 H 0.72874 0.69429 0.96293 0.0
H2111 H 0.7072 0.64668 0.99052 0.0
C2112 C 0.68775 0.64796 0.99452 0.0
C2113 C 0.68103 0.65625 0.99133 0.0
C2114 C 0.73311 0.68704 0.9626 0.0
C2115 C 0.71008 0.66707 0.97879 0.0
C2116 C 0.74669 0.69182 0.95333 0.0
C2117 C 0.75251 0.68257 0.95206 0.0
C2118 C 0.72516 0.67286 0.97067 0.0
C2119 C 0.74447 0.66865 0.96101 0.0
C2120 C 0.70225 0.65331 0.98822 0.0
C2121 C 0.68932 0.67004 0.98218 0.0
N2122 N 0.73116 0.66418 0.96984 0.0
N2123 N 0.70337 0.67498 0.9762 0.0
H2124 H 0.97063 0.66036 0.9916 0.0
H2125 H 0.89334 0.64856 0.95477 0.0
H2126 H 0.93028 0.6189 0.99516 0.0
H2127 H 0.93424 0.68944 0.95066 0.0
H2128 H 0.90621 0.63772 0.97152 0.0
H2129 H 0.95702 0.67141 0.9785 0.0
C2130 C 0.95889 0.65357 0.98966 0.0
C2131 C 0.95161 0.63865 0.9944 0.0
C2132 C 0.91233 0.6491 0.96709 0.0
C2133 C 0.93591 0.65129 0.97934 0.0
C2134 C 0.905 0.65528 0.95748 0.0
C2135 C 0.9127 0.66994 0.95127 0.0
C2136 C 0.92749 0.65762 0.97044 0.0
C2137 C 0.92778 0.67816 0.95542 0.0
C2138 C 0.95111 0.6599 0.98219 0.0
C2139 C 0.93636 0.63043 0.99165 0.0
N2140 N 0.93466 0.67187 0.96462 0.0
N2141 N 0.92902 0.63685 0.98422 0.0
H2142 H 0.32973 0.31868 0.97272 0.0
H2143 H 0.3415 0.25015 0.97416 0.0
H2144 H 0.36379 0.31804 0.00811 0.0
H2145 H 0.30965 0.25327 0.93664 0.0
H2146 H 0.34877 0.27408 0.98901 0.0
H2147 H 0.32114 0.29379 0.96168 0.0
C2148 C 0.33541 0.31329 0.97821 0.0
C2149 C 0.34756 0.32049 0.99126 0.0
C2150 C 0.34011 0.26943 0.97765 0.0
C2151 C 0.33775 0.29186 0.9786 0.0
C2152 C 0.33598 0.25579 0.96912 0.0
C2153 C 0.32493 0.24963 0.95411 0.0
C2154 C 0.33316 0.27697 0.97108 0.0
C2155 C 0.31804 0.2574 0.94838 0.0
C2156 C 0.33048 0.29903 0.9719 0.0
C2157 C 0.35441 0.31289 -0.00203 0.0
N2158 N 0.32232 0.27064 0.95679 0.0
N2159 N 0.34944 0.29898 0.99148 0.0
H2160 H 0.68295 0.06087 0.01269 0.0
H2161 H 0.74426 0.06641 0.93571 0.0
H2162 H 0.68205 0.02296 0.98696 0.0
H2163 H 0.74822 0.10277 0.97081 0.0
H2164 H 0.72253 0.04998 0.95601 0.0
H2165 H 0.70757 0.0761 -0.00114 0.0
C2166 C 0.68796 0.05573 0.00419 0.0
C2167 C 0.68035 0.04062 0.00079 0.0
C2168 C 0.72827 0.06153 0.95945 0.0
C2169 C 0.70862 0.05807 0.98478 0.0
C2170 C 0.74075 0.07091 0.94796 0.0
C2171 C 0.74796 0.08602 0.95138 0.0
C2172 C 0.72293 0.06731 0.97436 0.0
C2173 C 0.74281 0.09124 0.96733 0.0
C2174 C 0.70207 0.06444 -0.00364 0.0
C2175 C 0.68749 0.03456 0.98986 0.0
N2176 N 0.73053 0.08193 0.97805 0.0
N2177 N 0.70117 0.04333 0.98203 0.0
H2178 H 0.65069 0.9716 0.06804 0.0
H2179 H 0.67837 0.91746 0.04028 0.0
H2180 H 0.64451 0.95398 0.00637 0.0
H2181 H 0.6608 0.91835 0.1002 0.0
H2182 H 0.66874 0.93252 0.02663 0.0
H2183 H 0.65756 0.95412 0.0795 0.0
C2184 C 0.6508 0.96404 0.05689 0.0
C2185 C 0.64704 0.96422 0.03623 0.0
C2186 C 0.66685 0.9292 0.04268 0.0
C2187 C 0.65504 0.94427 0.04924 0.0
C2188 C 0.67236 0.92068 0.05046 0.0
C2189 C 0.67031 0.91661 0.07137 0.0
C2190 C 0.65963 0.93394 0.05606 0.0
C2191 C 0.66247 0.92108 0.08394 0.0
C2192 C 0.65464 0.95402 0.06348 0.0
C2193 C 0.6473 0.95413 0.02247 0.0
N2194 N 0.65759 0.92964 0.07616 0.0
N2195 N 0.65141 0.94461 0.02917 0.0
H2196 H 0.01669 0.68984 0.03107 0.0
H2197 H 0.0993 0.73479 0.06337 0.0
H2198 H 0.04741 0.67617 0.01444 0.0
H2199 H 0.07366 0.75549 0.05435 0.0
H2200 H 0.08064 0.71335 0.04537 0.0
H2201 H 0.03724 0.71391 0.04011 0.0
C2202 C 0.02777 0.69196 0.02916 0.0
C2203 C 0.03037 0.68098 0.02217 0.0
C2204 C 0.07921 0.72267 0.04708 0.0
C2205 C 0.05386 0.70839 0.03267 0.0
C2206 C 0.08994 0.73503 0.05726 0.0
C2207 C 0.08808 0.74705 0.06067 0.0
C2208 C 0.06634 0.72213 0.04059 0.0
C2209 C 0.07546 0.7464 0.05265 0.0
C2210 C 0.03948 0.7057 0.03422 0.0
C2211 C 0.04493 0.68432 0.01984 0.0
N2212 N 0.06496 0.73407 0.04329 0.0
N2213 N 0.05614 0.69767 0.02539 0.0
H2214 H 0.31764 0.34247 0.03975 0.0
H2215 H 0.24372 0.34381 0.05829 0.0
H2216 H 0.31353 0.3797 0.02463 0.0
H2217 H 0.2541 0.31434 0.08931 0.0
H2218 H 0.2677 0.35519 0.04125 0.0
H2219 H 0.29271 0.33011 0.05331 0.0
C2220 C 0.31149 0.34805 0.03922 0.0
C2221 C 0.31774 0.3622 0.03114 0.0
C2222 C 0.26464 0.34617 0.0517 0.0
C2223 C 0.28909 0.34801 0.04659 0.0
C2224 C 0.25097 0.33967 0.06148 0.0
C2225 C 0.24683 0.32809 0.07538 0.0
C2226 C 0.27418 0.34097 0.05568 0.0
C2227 C 0.25662 0.32305 0.07853 0.0
C2228 C 0.29725 0.34098 0.04701 0.0
C2229 C 0.30919 0.36884 0.03085 0.0
N2230 N 0.26982 0.32954 0.06882 0.0
N2231 N 0.29527 0.36168 0.03848 0.0
H2232 H 0.7143 0.69903 0.35505 0.0
H2233 H 0.72134 0.63416 0.40483 0.0
H2234 H 0.67783 0.65841 0.37675 0.0
H2235 H 0.75882 0.67676 0.39288 0.0
H2236 H 0.70552 0.64213 0.39016 0.0
H2237 H 0.73098 0.69045 0.36499 0.0
C2238 C 0.7098 0.6883 0.3618 0.0
C2239 C 0.69466 0.67945 0.36519 0.0
C2240 C 0.71722 0.64974 0.39059 0.0
C2241 C 0.71361 0.66957 0.37646 0.0
C2242 C 0.72631 0.64514 0.39878 0.0
C2243 C 0.74148 0.65478 0.40008 0.0
C2244 C 0.72325 0.66414 0.38364 0.0
C2245 C 0.74717 0.66899 0.39239 0.0
C2246 C 0.71932 0.68342 0.36749 0.0
C2247 C 0.68942 0.66564 0.37397 0.0
N2248 N 0.73805 0.67327 0.38456 0.0
N2249 N 0.69887 0.66116 0.3793 0.0
H2250 H 0.28015 0.0189 0.37486 0.0
H2251 H 0.3564 0.08601 0.41327 0.0
H2252 H 0.32145 0.02005 0.3714 0.0
H2253 H 0.31579 0.0863 0.41434 0.0
H2254 H 0.34381 0.06219 0.3967 0.0
H2255 H 0.29295 0.04372 0.38867 0.0
C2256 C 0.2919 0.02435 0.377 0.0
C2257 C 0.29972 0.01734 0.37201 0.0
C2258 C 0.33765 0.06748 0.40043 0.0
C2259 C 0.31443 0.04576 0.38776 0.0
C2260 C 0.34487 0.08118 0.40975 0.0
C2261 C 0.33716 0.08822 0.41522 0.0
C2262 C 0.32255 0.06067 0.3966 0.0
C2263 C 0.32214 0.08121 0.41064 0.0
C2264 C 0.2992 0.03854 0.38484 0.0
C2265 C 0.31494 0.02498 0.37506 0.0
N2266 N 0.31532 0.0678 0.40167 0.0
N2267 N 0.32177 0.03874 0.38276 0.0
H2268 H 0.98636 0.31109 0.36399 0.0
H2269 H 0.91309 0.23323 0.37361 0.0
H2270 H 0.98225 0.27127 0.34001 0.0
H2271 H 0.92131 0.27114 0.40889 0.0
H2272 H 0.93692 0.24778 0.35672 0.0
H2273 H 0.96105 0.29728 0.37617 0.0
C2274 C 0.98013 0.29945 0.36121 0.0
C2275 C 0.9865 0.29231 0.3511 0.0
C2276 C 0.93342 0.25292 0.36804 0.0
C2277 C 0.95746 0.27645 0.36496 0.0
C2278 C 0.91984 0.24462 0.37773 0.0
C2279 C 0.91519 0.25091 0.39286 0.0
C2280 C 0.94243 0.26764 0.37344 0.0
C2281 C 0.9243 0.26582 0.39721 0.0
C2282 C 0.96568 0.29157 0.36818 0.0
C2283 C 0.97784 0.27721 0.34787 0.0
N2284 N 0.93751 0.27363 0.38766 0.0
N2285 N 0.96377 0.26978 0.35483 0.0
H2286 H 0.00358 0.35604 0.31319 0.0
H2287 H 0.0341 0.44184 0.31199 0.0
H2288 H 0.04291 0.38698 0.34522 0.0
H2289 H 0.00163 0.41058 0.27012 0.0
H2290 H 0.0348 0.42179 0.32938 0.0
H2291 H -0.00021 0.37585 0.30301 0.0
C2292 C 0.01137 0.36701 0.31825 0.0
C2293 C 0.0237 0.3699 0.32982 0.0
C2294 C 0.02741 0.41938 0.31653 0.0
C2295 C 0.01947 0.3927 0.31805 0.0
C2296 C 0.02704 0.43081 0.30653 0.0
C2297 C 0.01782 0.42798 0.28945 0.0
C2298 C 0.01844 0.40503 0.30949 0.0
C2299 C 0.00874 0.4134 0.28337 0.0
C2300 C 0.0092 0.37833 0.3124 0.0
C2301 C 0.03332 0.38431 0.33615 0.0
N2302 N 0.00935 0.40254 0.2933 0.0
N2303 N 0.03109 0.39523 0.32998 0.0
H2304 H 0.60032 0.6478 0.32381 0.0
H2305 H 0.6079 0.58206 0.27774 0.0
H2306 H 0.64094 0.64757 0.32136 0.0
H2307 H 0.56678 0.58122 0.28159 0.0
H2308 H 0.6199 0.60564 0.29505 0.0
H2309 H 0.58766 0.62322 0.30918 0.0
C2310 C 0.60659 0.6426 0.32021 0.0
C2311 C 0.62175 0.64981 0.32378 0.0
C2312 C 0.60823 0.60028 0.29223 0.0
C2313 C 0.60729 0.62163 0.30707 0.0
C2314 C 0.60132 0.58671 0.28249 0.0
C2315 C 0.58627 0.57958 0.27819 0.0
C2316 C 0.60008 0.60686 0.29768 0.0
C2317 C 0.57843 0.58638 0.28435 0.0
C2318 C 0.59934 0.62854 0.31189 0.0
C2319 C 0.62927 0.64248 0.31884 0.0
N2320 N 0.58544 0.59965 0.29371 0.0
N2321 N 0.62197 0.62883 0.31072 0.0
H2322 H 0.33966 0.9665 0.34769 0.0
H2323 H 0.40322 0.00495 0.26366 0.0
H2324 H 0.34453 0.00086 0.30733 0.0
H2325 H 0.40139 0.97407 0.30835 0.0
H2326 H 0.38304 0.00514 0.2815 0.0
H2327 H 0.36322 0.97035 0.33534 0.0
C2328 C 0.34574 0.97493 0.33635 0.0
C2329 C 0.34006 0.98328 0.32838 0.0
C2330 C 0.38714 -0.00157 0.28756 0.0
C2331 C 0.36699 0.98771 0.31411 0.0
C2332 C 0.39879 -0.00159 0.27746 0.0
C2333 C 0.404 0.98939 0.28439 0.0
C2334 C 0.38052 0.98928 0.30465 0.0
C2335 C 0.39756 0.98097 0.30219 0.0
C2336 C 0.3592 0.97714 0.32932 0.0
C2337 C 0.34845 0.99411 0.3138 0.0
N2338 N 0.38607 0.98101 0.31157 0.0
N2339 N 0.36142 0.99592 0.307 0.0
H2340 H 0.63451 0.98366 0.32955 0.0
H2341 H 0.56036 0.96547 0.27425 0.0
H2342 H 0.59847 0.93972 0.32093 0.0
H2343 H 0.5899 0.00775 0.30059 0.0
H2344 H 0.57457 0.95599 0.29015 0.0
H2345 H 0.61897 0.99294 0.31739 0.0
C2346 C 0.62333 0.97596 0.32512 0.0
C2347 C 0.6178 0.96088 0.32619 0.0
C2348 C 0.57787 0.96731 0.2926 0.0
C2349 C 0.6 0.97145 0.31221 0.0
C2350 C 0.56968 0.97274 0.28365 0.0
C2351 C 0.57388 0.98749 0.28604 0.0
C2352 C 0.59052 0.97669 0.30381 0.0
C2353 C 0.58634 0.99639 0.29799 0.0
C2354 C 0.61445 0.98128 0.31828 0.0
C2355 C 0.6032 0.95143 0.32036 0.0
N2356 N 0.59428 0.99088 0.30628 0.0
N2357 N 0.59485 0.95687 0.31348 0.0
H2358 H -0.00225 0.6515 0.31648 0.0
H2359 H 0.02675 0.5966 0.29719 0.0
H2360 H 0.03884 0.65891 0.34069 0.0
H2361 H 0.98247 0.58605 0.28475 0.0
H2362 H 0.03128 0.61905 0.31434 0.0
H2363 H 0.99178 0.62712 0.30574 0.0
C2364 C 0.00549 0.64796 0.31963 0.0
C2365 C 0.01886 0.65728 0.32936 0.0
C2366 C 0.02052 0.61172 0.30811 0.0
C2367 C 0.01213 0.62938 0.31698 0.0
C2368 C 0.01794 0.59894 0.29827 0.0
C2369 C 0.00423 0.58948 0.28945 0.0
C2370 C 0.00935 0.61515 0.30889 0.0
C2371 C 0.99316 0.59296 0.29147 0.0
C2372 C 0.00205 0.63401 0.31356 0.0
C2373 C 0.02843 0.65208 0.33319 0.0
N2374 N 0.99601 0.60558 0.30076 0.0
N2375 N 0.02495 0.63851 0.32679 0.0
H2376 H 0.35448 0.39709 0.32835 0.0
H2377 H 0.4191 0.3891 0.27794 0.0
H2378 H 0.35321 0.35604 0.32273 0.0
H2379 H 0.42218 0.43052 0.28955 0.0
H2380 H 0.39534 0.37687 0.29532 0.0
H2381 H 0.37943 0.40954 0.31463 0.0
C2382 C 0.35944 0.39068 0.32425 0.0
C2383 C 0.35169 0.37546 0.32663 0.0
C2384 C 0.40125 0.38864 0.29421 0.0
C2385 C 0.38031 0.3897 0.3109 0.0
C2386 C 0.41491 0.39566 0.28442 0.0
C2387 C 0.42268 0.41089 0.2822 0.0
C2388 C 0.39524 0.39687 0.30175 0.0
C2389 C 0.4165 0.41876 0.2906 0.0
C2390 C 0.37372 0.39781 0.31646 0.0
C2391 C 0.35873 0.36777 0.32112 0.0
N2392 N 0.40313 0.41166 0.29989 0.0
N2393 N 0.37262 0.37496 0.31344 0.0
H2394 H 0.32118 0.30991 0.4025 0.0
H2395 H 0.347 0.25406 0.37645 0.0
H2396 H 0.31365 0.29078 0.3417 0.0
H2397 H 0.33039 0.25635 0.43649 0.0
H2398 H 0.33765 0.26927 0.36245 0.0
H2399 H 0.32778 0.29234 0.41461 0.0
C2400 C 0.32093 0.30199 0.39169 0.0
C2401 C 0.31687 0.30177 0.37108 0.0
C2402 C 0.33591 0.26623 0.37861 0.0
C2403 C 0.32457 0.28175 0.38479 0.0
C2404 C 0.34126 0.25764 0.38659 0.0
C2405 C 0.33939 0.25391 0.40761 0.0
C2406 C 0.32903 0.27139 0.39192 0.0
C2407 C 0.33191 0.25882 0.42014 0.0
C2408 C 0.32461 0.29193 0.39864 0.0
C2409 C 0.31666 0.29123 0.35774 0.0
N2410 N 0.32718 0.26746 0.41217 0.0
N2411 N 0.32064 0.2817 0.36478 0.0
H2412 H 0.68163 0.01144 0.37705 0.0
H2413 H 0.76651 0.07249 0.36975 0.0
H2414 H 0.71249 0.00785 0.33725 0.0
H2415 H 0.736 0.07315 0.41366 0.0
H2416 H 0.74628 0.05067 0.35397 0.0
H2417 H 0.70082 0.0359 0.38683 0.0
C2418 C 0.69243 0.01584 0.37025 0.0
C2419 C 0.69551 0.00753 0.35649 0.0
C2420 C 0.74401 0.05571 0.3669 0.0
C2421 C 0.71758 0.03556 0.36769 0.0
C2422 C 0.75556 0.06815 0.37596 0.0
C2423 C 0.75302 0.07464 0.3932 0.0
C2424 C 0.72981 0.0497 0.37515 0.0
C2425 C 0.73853 0.06866 0.40031 0.0
C2426 C 0.70339 0.02983 0.37584 0.0
C2427 C 0.70967 0.01384 0.34804 0.0
N2428 N 0.72754 0.05649 0.39138 0.0
N2429 N 0.72023 0.02745 0.35391 0.0
H2430 H 0.98326 0.71781 0.36319 0.0
H2431 H 0.91698 0.64393 0.40937 0.0
H2432 H 0.98347 0.67748 0.36797 0.0
H2433 H 0.91514 0.68325 0.40195 0.0
H2434 H 0.94089 0.65585 0.39259 0.0
H2435 H 0.95805 0.70529 0.37623 0.0
C2436 C 0.97801 0.70633 0.36694 0.0
C2437 C 0.98554 0.69871 0.36457 0.0
C2438 C 0.93524 0.66186 0.39449 0.0
C2439 C 0.95669 0.68433 0.37946 0.0
C2440 C 0.92148 0.65501 0.40393 0.0
C2441 C 0.91399 0.66259 0.40713 0.0
C2442 C 0.94166 0.67647 0.38825 0.0
C2443 C 0.92059 0.67704 0.40009 0.0
C2444 C 0.96361 0.69919 0.37435 0.0
C2445 C 0.97816 0.68383 0.36961 0.0
N2446 N 0.93408 0.68354 0.39108 0.0
N2447 N 0.96419 0.67716 0.37687 0.0
H2448 H 0.34834 0.99691 0.71091 0.0
H2449 H 0.4314 0.01844 0.72848 0.0
H2450 H 0.38467 0.03756 0.68906 0.0
H2451 H 0.39413 0.97534 0.73815 0.0
H2452 H 0.41497 0.02596 0.71367 0.0
H2453 H 0.36538 0.98909 0.72083 0.0
C2454 C 0.35993 0.00419 0.70815 0.0
C2455 C 0.3651 0.01794 0.69923 0.0
C2456 C 0.41046 0.01481 0.71881 0.0
C2457 C 0.38478 0.00906 0.71069 0.0
C2458 C 0.41981 0.01053 0.72731 0.0
C2459 C 0.41416 0.99623 0.73455 0.0
C2460 C 0.39535 0.00476 0.71778 0.0
C2461 C 0.39906 0.98641 0.73252 0.0
C2462 C 0.36968 -0.0003 0.71376 0.0
C2463 C 0.38024 0.02688 0.69591 0.0
N2464 N 0.39021 0.9909 0.7245 0.0
N2465 N 0.38959 0.02233 0.70181 0.0
H2466 H 0.98282 0.35065 0.70388 0.0
H2467 H 0.95647 0.40721 0.73112 0.0
H2468 H 0.94129 0.34545 0.68566 0.0
H2469 H 0.99509 0.4098 0.75727 0.0
H2470 H 0.95271 0.38645 0.71029 0.0
H2471 H 0.98929 0.37408 0.71977 0.0
C2472 C 0.9751 0.35445 0.70311 0.0
C2473 C 0.96143 0.346 0.69357 0.0
C2474 C 0.96208 0.39161 0.72046 0.0
C2475 C 0.9688 0.37278 0.71161 0.0
C2476 C 0.96422 0.40346 0.73237 0.0
C2477 C 0.97601 0.41013 0.74614 0.0
C2478 C 0.97177 0.38634 0.72232 0.0
C2479 C 0.98588 0.405 0.74681 0.0
C2480 C 0.9788 0.36782 0.71219 0.0
C2481 C 0.95189 0.35151 0.69299 0.0
N2482 N 0.98345 0.39331 0.73523 0.0
N2483 N 0.95574 0.3645 0.70194 0.0
H2484 H 0.65254 0.64514 0.70467 0.0
H2485 H 0.57754 0.56902 0.71508 0.0
H2486 H 0.64783 0.60387 0.68678 0.0
H2487 H 0.58696 0.60723 0.75057 0.0
H2488 H 0.60185 0.58272 0.69928 0.0
H2489 H 0.62709 0.63229 0.71668 0.0
C2490 C 0.64616 0.63339 0.70324 0.0
C2491 C 0.65236 0.62555 0.69483 0.0
C2492 C 0.59852 0.58811 0.71042 0.0
C2493 C 0.62321 0.61085 0.7083 0.0
C2494 C 0.58466 0.5803 0.71947 0.0
C2495 C 0.58021 0.58691 0.73439 0.0
C2496 C 0.60798 0.60267 0.71617 0.0
C2497 C 0.58981 0.60168 0.73905 0.0
C2498 C 0.63164 0.62608 0.7101 0.0
C2499 C 0.64355 0.61034 0.69332 0.0
N2500 N 0.60327 0.60903 0.73007 0.0
N2501 N 0.62942 0.60348 0.69996 0.0
H2502 H 0.70793 0.71825 0.65983 0.0
H2503 H 0.64183 0.73234 0.6394 0.0
H2504 H 0.66254 0.68401 0.65973 0.0
H2505 H 0.68503 0.75918 0.61307 0.0
H2506 H 0.65014 0.71695 0.65503 0.0
H2507 H 0.70036 0.73582 0.65068 0.0
C2508 C 0.69638 0.71447 0.65809 0.0
C2509 C 0.68584 0.69966 0.66032 0.0
C2510 C 0.6578 0.72632 0.646 0.0
C2511 C 0.67716 0.71963 0.65019 0.0
C2512 C 0.65307 0.73509 0.63697 0.0
C2513 C 0.66265 0.74702 0.62458 0.0
C2514 C 0.67227 0.7296 0.64289 0.0
C2515 C 0.67723 0.75023 0.62258 0.0
C2516 C 0.69209 0.72447 0.65284 0.0
C2517 C 0.67102 0.69532 0.65792 0.0
N2518 N 0.68156 0.74152 0.63153 0.0
N2519 N 0.66711 0.70526 0.65298 0.0
H2520 H 0.31031 0.9849 0.65759 0.0
H2521 H 0.23249 0.91679 0.62588 0.0
H2522 H 0.26945 0.98426 0.66504 0.0
H2523 H 0.27394 0.91942 0.61427 0.0
H2524 H 0.24554 0.94071 0.64255 0.0
H2525 H 0.29686 0.96016 0.64392 0.0
C2526 C 0.2985 0.97957 0.65638 0.0
C2527 C 0.29102 0.98674 0.66241 0.0
C2528 C 0.25176 0.936 0.63646 0.0
C2529 C 0.27551 0.95829 0.64674 0.0
C2530 C 0.24432 0.92235 0.62689 0.0
C2531 C 0.25211 0.91605 0.61859 0.0
C2532 C 0.26711 0.94343 0.63774 0.0
C2533 C 0.26743 0.9237 0.62065 0.0
C2534 C 0.29082 0.96541 0.64857 0.0
C2535 C 0.27569 0.9792 0.66052 0.0
N2536 N 0.2744 0.93699 0.62992 0.0
N2537 N 0.26845 0.96541 0.65282 0.0
H2538 H 0.01652 0.33869 0.63946 0.0
H2539 H 0.07913 0.31795 0.64587 0.0
H2540 H 0.01349 0.30432 0.6781 0.0
H2541 H 0.07775 0.34648 0.59986 0.0
H2542 H 0.05743 0.31615 0.66234 0.0
H2543 H 0.0413 0.34498 0.62946 0.0
C2544 C 0.02112 0.33255 0.646 0.0
C2545 C 0.01286 0.32084 0.65944 0.0
C2546 C 0.06201 0.32294 0.64879 0.0
C2547 C 0.04123 0.32797 0.648 0.0
C2548 C 0.07437 0.32395 0.63933 0.0
C2549 C 0.08022 0.33225 0.62127 0.0
C2550 C 0.05544 0.3303 0.64016 0.0
C2551 C 0.07375 0.34003 0.6138 0.0
C2552 C 0.03527 0.33614 0.64027 0.0
C2553 C 0.01943 0.31334 0.66755 0.0
N2554 N 0.06165 0.33875 0.62315 0.0
N2555 N 0.03319 0.31695 0.66157 0.0
H2556 H 0.26691 0.28108 0.65151 0.0
H2557 H 0.26871 0.3561 0.63171 0.0
H2558 H 0.30537 0.3233 0.66153 0.0
H2559 H 0.23497 0.31433 0.60865 0.0
H2560 H 0.28117 0.3442 0.6465 0.0
H2561 H 0.25388 0.29308 0.63953 0.0
C2562 C 0.27262 0.29287 0.65122 0.0
C2563 C 0.28729 0.30119 0.65745 0.0
C2564 C 0.27098 0.33767 0.6383 0.0
C2565 C 0.27238 0.31501 0.64383 0.0
C2566 C 0.26387 0.34445 0.6298 0.0
C2567 C 0.25073 0.33624 0.61888 0.0
C2568 C 0.26488 0.32256 0.63594 0.0
C2569 C 0.2449 0.32112 0.61722 0.0
C2570 C 0.26517 0.29972 0.64436 0.0
C2571 C 0.2941 0.31645 0.65676 0.0
N2572 N 0.25203 0.3148 0.6256 0.0
N2573 N 0.28659 0.32288 0.65008 0.0
H2574 H 0.70164 0.9886 0.67786 0.0
H2575 H 0.65376 0.91666 0.61075 0.0
H2576 H 0.66351 0.9799 0.6428 0.0
H2577 H 0.69401 0.92662 0.64097 0.0
H2578 H 0.65488 0.93773 0.62753 0.0
H2579 H 0.69692 0.96417 0.66924 0.0
C2580 C 0.69219 0.9815 0.66854 0.0
C2581 C 0.68305 0.98635 0.66083 0.0
C2582 C 0.66339 0.93522 0.6307 0.0
C2583 C 0.6776 0.95844 0.6509 0.0
C2584 C 0.66268 0.92309 0.62126 0.0
C2585 C 0.67389 0.91993 0.62428 0.0
C2586 C 0.67542 0.94433 0.64321 0.0
C2587 C 0.68528 0.92881 0.63789 0.0
C2588 C 0.68951 0.96757 0.66361 0.0
C2589 C 0.67094 0.97668 0.6489 0.0
N2590 N 0.68583 0.94069 0.64668 0.0
N2591 N 0.66863 0.96324 0.64418 0.0
H2592 H 0.01583 0.73054 0.65922 0.0
H2593 H 0.08176 0.72364 0.61123 0.0
H2594 H 0.01468 0.68961 0.6524 0.0
H2595 H 0.0845 0.76478 0.62398 0.0
H2596 H 0.05742 0.711 0.62695 0.0
H2597 H 0.041 0.74325 0.64637 0.0
C2598 C 0.02085 0.72421 0.655 0.0
C2599 C 0.01308 0.70896 0.65685 0.0
C2600 C 0.06338 0.7228 0.62643 0.0
C2601 C 0.04198 0.72349 0.64216 0.0
C2602 C 0.07736 0.73005 0.61762 0.0
C2603 C 0.08522 0.74532 0.61622 0.0
C2604 C 0.05715 0.73086 0.63385 0.0
C2605 C 0.07877 0.75299 0.62442 0.0
C2606 C 0.03526 0.73149 0.64772 0.0
C2607 C 0.02021 0.70136 0.6512 0.0
N2608 N 0.0651 0.74568 0.63277 0.0
N2609 N 0.03424 0.70871 0.64407 0.0
H2610 H 0.95763 0.61578 0.69253 0.0
H2611 H 0.02239 0.60068 0.71866 0.0
H2612 H 0.00307 0.64974 0.69556 0.0
H2613 H 0.9781 0.57362 0.74124 0.0
H2614 H 0.01496 0.61652 0.70222 0.0
H2615 H 0.96465 0.59795 0.70254 0.0
C2616 C 0.96909 0.61945 0.69508 0.0
C2617 C 0.97978 0.63426 0.69342 0.0
C2618 C 0.00687 0.60701 0.71061 0.0
C2619 C 0.98785 0.61398 0.70457 0.0
C2620 C 0.0111 0.59797 0.7201 0.0
C2621 C 0.00094 0.58583 0.73168 0.0
C2622 C 0.99233 0.6038 0.71244 0.0
C2623 C 0.98635 0.58272 0.73239 0.0
C2624 C 0.97306 0.6093 0.70083 0.0
C2625 C 0.99446 0.63844 0.69688 0.0
N2626 N 0.98251 0.59168 0.72301 0.0
N2627 N -0.00193 0.62835 0.70231 0.0
H2628 H 0.34839 0.34666 0.7151 0.0
H2629 H 0.43344 0.40779 0.71092 0.0
H2630 H 0.38013 0.34282 0.67768 0.0
H2631 H 0.40209 0.4083 0.75335 0.0
H2632 H 0.41361 0.38567 0.69512 0.0
H2633 H 0.3675 0.37093 0.72578 0.0
C2634 C 0.35938 0.35095 0.70904 0.0
C2635 C 0.3627 0.34265 0.69562 0.0
C2636 C 0.41108 0.39073 0.70775 0.0
C2637 C 0.38468 0.37047 0.70783 0.0
C2638 C 0.42239 0.40335 0.71681 0.0
C2639 C 0.41949 0.40992 0.73361 0.0
C2640 C 0.39675 0.38464 0.71552 0.0
C2641 C 0.4049 0.40378 0.74032 0.0
C2642 C 0.3703 0.36483 0.71515 0.0
C2643 C 0.37711 0.34882 0.68816 0.0
N2644 N 0.39413 0.39146 0.73137 0.0
N2645 N 0.38761 0.36234 0.69447 0.0
H2646 H 0.64584 0.00748 0.68951 0.0
H2647 H 0.5818 0.01932 0.73281 0.0
H2648 H 0.64663 0.0483 0.68449 0.0
H2649 H 0.58167 0.9788 0.73687 0.0
H2650 H 0.6046 0.02974 0.71285 0.0
H2651 H 0.62141 0.99641 0.70457 0.0
C2652 C 0.64086 0.01413 0.6915 0.0
C2653 C 0.64837 0.02889 0.68586 0.0
C2654 C 0.5995 0.01853 0.71796 0.0
C2655 C 0.6203 0.01623 0.70321 0.0
C2656 C 0.58651 0.01259 0.72941 0.0
C2657 C 0.57983 0.99818 0.73662 0.0
C2658 C 0.60589 0.01002 0.71377 0.0
C2659 C 0.58632 0.9899 0.73148 0.0
C2660 C 0.62687 0.00777 0.7001 0.0
C2661 C 0.64128 0.0369 0.68869 0.0
N2662 N 0.59902 0.99597 0.72052 0.0
N2663 N 0.62767 0.03049 0.6973 0.0
loop_
_geom_bond_atom_site_label_1
_geom_bond_atom_site_label_2
_geom_bond_distance
_geom_bond_site_symmetry_2
_ccdc_geom_bond_type
C0 O1 1.319 . S
C0 O3 1.157 1_554 S
O1 C0 1.319 . S
O1 Cd2 2.228 . S
Cd2 O1 2.228 . S
Cd2 O6 2.273 . S
Cd2 O10 2.277 1_554 S
O3 C0 1.157 1_556 S
O3 Cd4 2.203 1_656 S
Cd4 O3 2.203 1_454 S
Cd4 O6 2.411 1_455 S
Cd4 O7 2.333 . S
Cd4 O8 2.352 . S
Cd4 O12 2.277 1_554 S
Cd4 O13 2.356 . S
C5 O10 1.209 1_455 S
C5 O12 1.226 . S
O6 Cd2 2.273 . S
O6 Cd4 2.411 1_655 S
O6 C9 1.320 1_655 S
O7 Cd4 2.333 . S
O7 C9 1.214 . S
O8 Cd4 2.352 . S
O8 C11 1.258 . S
C9 O6 1.320 1_455 S
C9 O7 1.214 . S
O10 Cd2 2.277 1_556 S
O10 C5 1.209 1_655 S
C11 O8 1.258 . S
C11 O13 1.282 . S
O12 Cd4 2.277 1_556 S
O12 C5 1.226 . S
O13 Cd4 2.356 . S
O13 C11 1.282 . S
C14 O15 1.306 . S
C14 O17 1.160 . S
O15 C14 1.306 . S
O15 Cd16 2.228 . S
Cd16 O15 2.228 . S
Cd16 O20 2.273 1_554 S
Cd16 O24 2.277 . S
O17 C14 1.160 . S
O17 Cd18 2.203 . S
Cd18 O17 2.203 . S
Cd18 O20 2.411 1_554 S
Cd18 O21 2.333 1_554 S
Cd18 O22 2.352 1_554 S
Cd18 O26 2.277 . S
Cd18 O27 2.356 . S
C19 O24 1.209 . S
C19 O26 1.226 . S
O20 Cd16 2.273 1_556 S
O20 Cd18 2.411 1_556 S
O20 C23 1.320 . S
O21 Cd18 2.333 1_556 S
O21 C23 1.214 . S
O22 Cd18 2.352 1_556 S
O22 C25 1.258 . S
C23 O20 1.320 . S
C23 O21 1.214 . S
O24 Cd16 2.277 . S
O24 C19 1.209 . S
C25 O22 1.258 . S
C25 O27 1.282 1_556 S
O26 Cd18 2.277 . S
O26 C19 1.226 . S
O27 Cd18 2.356 . S
O27 C25 1.282 1_554 S
C28 O29 1.306 . S
C28 O31 1.160 . S
O29 C28 1.306 . S
O29 Cd30 2.228 . S
Cd30 O29 2.228 . S
Cd30 O34 2.273 1_554 S
Cd30 O38 2.277 . S
O31 C28 1.160 . S
O31 Cd32 2.203 1_565 S
Cd32 O31 2.203 1_545 S
Cd32 O34 2.411 1_544 S
Cd32 O35 2.333 1_554 S
Cd32 O36 2.352 1_554 S
Cd32 O40 2.277 . S
Cd32 O41 2.356 . S
C33 O38 1.209 1_545 S
C33 O40 1.226 . S
O34 Cd30 2.273 1_556 S
O34 Cd32 2.411 1_566 S
O34 C37 1.320 1_565 S
O35 Cd32 2.333 1_556 S
O35 C37 1.214 . S
O36 Cd32 2.352 1_556 S
O36 C39 1.266 . S
C37 O34 1.320 1_545 S
C37 O35 1.214 . S
O38 Cd30 2.277 . S
O38 C33 1.209 1_565 S
C39 O36 1.266 . S
C39 O41 1.267 1_556 S
O40 Cd32 2.277 . S
O40 C33 1.226 . S
O41 Cd32 2.356 . S
O41 C39 1.267 1_554 S
C42 O43 1.306 1_556 S
C42 O45 1.160 . S
O43 C42 1.306 1_554 S
O43 Cd44 2.228 . S
Cd44 O43 2.228 . S
Cd44 O48 2.273 . S
Cd44 O52 2.277 1_554 S
O45 C42 1.160 . S
O45 Cd46 2.203 1_656 S
Cd46 O45 2.203 1_454 S
Cd46 O48 2.411 1_455 S
Cd46 O49 2.333 . S
Cd46 O50 2.352 . S
Cd46 O54 2.277 1_554 S
Cd46 O55 2.356 . S
C47 O52 1.209 1_455 S
C47 O54 1.226 . S
O48 Cd44 2.273 . S
O48 Cd46 2.411 1_655 S
O48 C51 1.320 1_655 S
O49 Cd46 2.333 . S
O49 C51 1.214 . S
O50 Cd46 2.352 . S
O50 C53 1.258 . S
C51 O48 1.320 1_455 S
C51 O49 1.214 . S
O52 Cd44 2.277 1_556 S
O52 C47 1.209 1_655 S
C53 O50 1.258 . S
C53 O55 1.282 . S
O54 Cd46 2.277 1_556 S
O54 C47 1.226 . S
O55 Cd46 2.356 . S
O55 C53 1.282 . S
C56 O57 1.306 . S
C56 O59 1.160 . S
O57 C56 1.306 . S
O57 Cd58 2.228 . S
Cd58 O57 2.228 . S
Cd58 O62 2.273 1_554 S
Cd58 O66 2.277 . S
O59 C56 1.160 . S
O59 Cd60 2.203 . S
Cd60 O59 2.203 . S
Cd60 O62 2.411 1_554 S
Cd60 O63 2.333 1_554 S
Cd60 O64 2.352 1_554 S
Cd60 O68 2.277 . S
Cd60 O69 2.356 . S
C61 O66 1.209 . S
C61 O68 1.226 . S
O62 Cd58 2.273 1_556 S
O62 Cd60 2.411 1_556 S
O62 C65 1.320 . S
O63 Cd60 2.333 1_556 S
O63 C65 1.214 . S
O64 Cd60 2.352 1_556 S
O64 C67 1.258 . S
C65 O62 1.320 . S
C65 O63 1.214 . S
O66 Cd58 2.277 . S
O66 C61 1.209 . S
C67 O64 1.258 . S
C67 O69 1.282 1_556 S
O68 Cd60 2.277 . S
O68 C61 1.226 . S
O69 Cd60 2.356 . S
O69 C67 1.282 1_554 S
C70 O71 1.298 1_556 S
C70 O73 1.162 . S
O71 C70 1.298 1_554 S
O71 Cd72 2.228 . S
Cd72 O71 2.228 . S
Cd72 O76 2.273 . S
Cd72 O80 2.277 1_554 S
O73 C70 1.162 . S
O73 Cd74 2.203 1_546 S
Cd74 O73 2.203 1_564 S
Cd74 O76 2.411 1_565 S
Cd74 O77 2.333 . S
Cd74 O78 2.352 . S
Cd74 O82 2.277 1_554 S
Cd74 O83 2.356 . S
C75 O80 1.195 1_565 S
C75 O82 1.245 . S
O76 Cd72 2.273 . S
O76 Cd74 2.411 1_545 S
O76 C79 1.333 . S
O77 Cd74 2.333 . S
O77 C79 1.187 1_565 S
O78 Cd74 2.352 . S
O78 C81 1.258 . S
C79 O76 1.333 . S
C79 O77 1.187 1_545 S
O80 Cd72 2.277 1_556 S
O80 C75 1.195 1_545 S
C81 O78 1.258 . S
C81 O83 1.282 . S
O82 Cd74 2.277 1_556 S
O82 C75 1.245 . S
O83 Cd74 2.356 . S
O83 C81 1.282 . S
C84 O85 1.306 . S
C84 O87 1.160 . S
O85 C84 1.306 . S
O85 Cd86 2.228 . S
Cd86 O85 2.228 . S
Cd86 O90 2.273 . S
Cd86 O94 2.277 . S
O87 C84 1.160 . S
O87 Cd88 2.203 . S
Cd88 O87 2.203 . S
Cd88 O90 2.411 . S
Cd88 O91 2.333 . S
Cd88 O92 2.352 . S
Cd88 O96 2.277 . S
Cd88 O97 2.356 . S
C89 O94 1.209 . S
C89 O96 1.226 . S
O90 Cd86 2.273 . S
O90 Cd88 2.411 . S
O90 C93 1.320 . S
O91 Cd88 2.333 . S
O91 C93 1.214 . S
O92 Cd88 2.352 . S
O92 C95 1.258 . S
C93 O90 1.320 . S
C93 O91 1.214 . S
O94 Cd86 2.277 . S
O94 C89 1.209 . S
C95 O92 1.258 . S
C95 O97 1.282 . S
O96 Cd88 2.277 . S
O96 C89 1.226 . S
O97 Cd88 2.356 . S
O97 C95 1.282 . S
C98 O99 1.306 1_545 S
C98 O101 1.160 1_545 S
O99 C98 1.306 1_565 S
O99 Cd100 2.228 . S
Cd100 O99 2.228 . S
Cd100 O104 2.273 . S
Cd100 O108 2.277 . S
O101 C98 1.160 1_565 S
O101 Cd102 2.203 . S
Cd102 O101 2.203 . S
Cd102 O104 2.411 . S
Cd102 O105 2.333 . S
Cd102 O106 2.352 . S
Cd102 O110 2.277 . S
Cd102 O111 2.356 . S
C103 O108 1.209 . S
C103 O110 1.226 . S
O104 Cd100 2.273 . S
O104 Cd102 2.411 . S
O104 C107 1.320 . S
O105 Cd102 2.333 . S
O105 C107 1.214 . S
O106 Cd102 2.352 . S
O106 C109 1.258 . S
C107 O104 1.320 . S
C107 O105 1.214 . S
O108 Cd100 2.277 . S
O108 C103 1.209 . S
C109 O106 1.258 . S
C109 O111 1.282 . S
O110 Cd102 2.277 . S
O110 C103 1.226 . S
O111 Cd102 2.356 . S
O111 C109 1.282 . S
C112 O113 1.306 . S
C112 O115 1.160 . S
O113 C112 1.306 . S
O113 Cd114 2.228 . S
Cd114 O113 2.228 . S
Cd114 O118 2.273 . S
Cd114 O122 2.277 . S
O115 C112 1.160 . S
O115 Cd116 2.203 . S
Cd116 O115 2.203 . S
Cd116 O118 2.411 . S
Cd116 O119 2.333 . S
Cd116 O120 2.352 . S
Cd116 O124 2.277 . S
Cd116 O125 2.356 . S
C117 O122 1.209 . S
C117 O124 1.226 . S
O118 Cd114 2.273 . S
O118 Cd116 2.411 . S
O118 C121 1.320 . S
O119 Cd116 2.333 . S
O119 C121 1.214 . S
O120 Cd116 2.352 . S
O120 C123 1.258 . S
C121 O118 1.320 . S
C121 O119 1.214 . S
O122 Cd114 2.277 . S
O122 C117 1.209 . S
C123 O120 1.258 . S
C123 O125 1.282 . S
O124 Cd116 2.277 . S
O124 C117 1.226 . S
O125 Cd116 2.356 . S
O125 C123 1.282 . S
C126 O127 1.306 . S
C126 O129 1.160 . S
O127 C126 1.306 . S
O127 Cd128 2.228 . S
Cd128 O127 2.228 . S
Cd128 O132 2.273 . S
Cd128 O136 2.277 . S
O129 C126 1.160 . S
O129 Cd130 2.203 . S
Cd130 O129 2.203 . S
Cd130 O132 2.411 . S
Cd130 O133 2.333 . S
Cd130 O134 2.352 . S
Cd130 O138 2.277 . S
Cd130 O139 2.368 . S
C131 O136 1.209 . S
C131 O138 1.226 . S
O132 Cd128 2.273 . S
O132 Cd130 2.411 . S
O132 C135 1.320 . S
O133 Cd130 2.333 . S
O133 C135 1.214 . S
O134 Cd130 2.352 . S
O134 C137 1.258 1_565 S
C135 O132 1.320 . S
C135 O133 1.214 . S
O136 Cd128 2.277 . S
O136 C131 1.209 . S
C137 O134 1.258 1_545 S
C137 O139 1.265 1_545 S
O138 Cd130 2.277 . S
O138 C131 1.226 . S
O139 Cd130 2.368 . S
O139 C137 1.265 1_565 S
C140 O141 1.306 . S
C140 O143 1.160 . S
O141 C140 1.306 . S
O141 Cd142 2.228 . S
Cd142 O141 2.228 . S
Cd142 O146 2.273 . S
Cd142 O150 2.277 . S
O143 C140 1.160 . S
O143 Cd144 2.203 . S
Cd144 O143 2.203 . S
Cd144 O146 2.411 . S
Cd144 O147 2.333 . S
Cd144 O148 2.352 . S
Cd144 O152 2.277 . S
Cd144 O153 2.356 . S
C145 O150 1.209 . S
C145 O152 1.226 . S
O146 Cd142 2.273 . S
O146 Cd144 2.411 . S
O146 C149 1.320 . S
O147 Cd144 2.333 . S
O147 C149 1.214 . S
O148 Cd144 2.352 . S
O148 C151 1.258 . S
C149 O146 1.320 . S
C149 O147 1.214 . S
O150 Cd142 2.277 . S
O150 C145 1.209 . S
C151 O148 1.258 . S
C151 O153 1.282 . S
O152 Cd144 2.277 . S
O152 C145 1.226 . S
O153 Cd144 2.356 . S
O153 C151 1.282 . S
C154 O155 1.306 . S
C154 O157 1.160 . S
O155 C154 1.306 . S
O155 Cd156 2.228 . S
Cd156 O155 2.228 . S
Cd156 O160 2.273 . S
Cd156 O164 2.277 . S
O157 C154 1.160 . S
O157 Cd158 2.203 . S
Cd158 O157 2.203 . S
Cd158 O160 2.411 . S
Cd158 O161 2.333 . S
Cd158 O162 2.352 . S
Cd158 O166 2.277 . S
Cd158 O167 2.356 . S
C159 O164 1.209 . S
C159 O166 1.226 . S
O160 Cd156 2.273 . S
O160 Cd158 2.411 . S
O160 C163 1.320 . S
O161 Cd158 2.333 . S
O161 C163 1.214 . S
O162 Cd158 2.352 . S
O162 C165 1.258 . S
C163 O160 1.320 . S
C163 O161 1.214 . S
O164 Cd156 2.277 . S
O164 C159 1.209 . S
C165 O162 1.258 . S
C165 O167 1.282 . S
O166 Cd158 2.277 . S
O166 C159 1.226 . S
O167 Cd158 2.356 . S
O167 C165 1.282 . S
C168 O169 1.306 . S
C168 O171 1.160 . S
O169 C168 1.306 . S
O169 Cd170 2.228 . S
Cd170 O169 2.228 . S
Cd170 O174 2.273 . S
Cd170 O178 2.277 . S
O171 C168 1.160 . S
O171 Cd172 2.203 . S
Cd172 O171 2.203 . S
Cd172 O174 2.411 . S
Cd172 O175 2.333 . S
Cd172 O176 2.352 . S
Cd172 O180 2.277 . S
Cd172 O181 2.356 . S
C173 O178 1.209 . S
C173 O180 1.226 . S
O174 Cd170 2.273 . S
O174 Cd172 2.411 . S
O174 C177 1.320 . S
O175 Cd172 2.333 . S
O175 C177 1.214 . S
O176 Cd172 2.352 . S
O176 C179 1.258 . S
C177 O174 1.320 . S
C177 O175 1.214 . S
O178 Cd170 2.277 . S
O178 C173 1.209 . S
C179 O176 1.258 . S
C179 O181 1.282 . S
O180 Cd172 2.277 . S
O180 C173 1.226 . S
O181 Cd172 2.356 . S
O181 C179 1.282 . S
C182 O183 1.306 . S
C182 O185 1.160 . S
O183 C182 1.306 . S
O183 Cd184 2.228 . S
Cd184 O183 2.228 . S
Cd184 O188 2.273 . S
Cd184 O192 2.277 . S
O185 C182 1.160 . S
O185 Cd186 2.203 . S
Cd186 O185 2.203 . S
Cd186 O188 2.411 . S
Cd186 O189 2.333 . S
Cd186 O190 2.357 . S
Cd186 O194 2.277 . S
Cd186 O195 2.356 1_655 S
C187 O192 1.209 . S
C187 O194 1.226 . S
O188 Cd184 2.273 . S
O188 Cd186 2.411 . S
O188 C191 1.320 . S
O189 Cd186 2.333 . S
O189 C191 1.214 . S
O190 Cd186 2.357 . S
O190 C193 1.250 1_655 S
C191 O188 1.320 . S
C191 O189 1.214 . S
O192 Cd184 2.277 . S
O192 C187 1.209 . S
C193 O190 1.250 1_455 S
C193 O195 1.282 . S
O194 Cd186 2.277 . S
O194 C187 1.226 . S
O195 Cd186 2.356 1_455 S
O195 C193 1.282 . S
C196 O197 1.306 . S
C196 O199 1.160 . S
O197 C196 1.306 . S
O197 Cd198 2.228 . S
Cd198 O197 2.228 . S
Cd198 O202 2.273 . S
Cd198 O206 2.277 . S
O199 C196 1.160 . S
O199 Cd200 2.203 . S
Cd200 O199 2.203 . S
Cd200 O202 2.411 . S
Cd200 O203 2.333 . S
Cd200 O204 2.352 . S
Cd200 O208 2.277 . S
Cd200 O209 2.356 . S
C201 O206 1.209 . S
C201 O208 1.226 . S
O202 Cd198 2.273 . S
O202 Cd200 2.411 . S
O202 C205 1.320 . S
O203 Cd200 2.333 . S
O203 C205 1.214 . S
O204 Cd200 2.352 . S
O204 C207 1.258 . S
C205 O202 1.320 . S
C205 O203 1.214 . S
O206 Cd198 2.277 . S
O206 C201 1.209 . S
C207 O204 1.258 . S
C207 O209 1.282 . S
O208 Cd200 2.277 . S
O208 C201 1.226 . S
O209 Cd200 2.356 . S
O209 C207 1.282 . S
C210 O211 1.306 . S
C210 O213 1.160 . S
O211 C210 1.306 . S
O211 Cd212 2.228 . S
Cd212 O211 2.228 . S
Cd212 O216 2.273 . S
Cd212 O220 2.277 . S
O213 C210 1.160 . S
O213 Cd214 2.203 . S
Cd214 O213 2.203 . S
Cd214 O216 2.411 . S
Cd214 O217 2.333 . S
Cd214 O218 2.352 . S
Cd214 O222 2.277 . S
Cd214 O223 2.356 . S
C215 O220 1.209 . S
C215 O222 1.226 . S
O216 Cd212 2.273 . S
O216 Cd214 2.411 . S
O216 C219 1.320 . S
O217 Cd214 2.333 . S
O217 C219 1.214 . S
O218 Cd214 2.352 . S
O218 C221 1.258 . S
C219 O216 1.320 . S
C219 O217 1.214 . S
O220 Cd212 2.277 . S
O220 C215 1.209 . S
C221 O218 1.258 . S
C221 O223 1.282 . S
O222 Cd214 2.277 . S
O222 C215 1.226 . S
O223 Cd214 2.356 . S
O223 C221 1.282 . S
C224 O225 1.306 . S
C224 O227 1.160 . S
O225 C224 1.306 . S
O225 Cd226 2.228 . S
Cd226 O225 2.228 . S
Cd226 O230 2.273 . S
Cd226 O234 2.277 . S
O227 C224 1.160 . S
O227 Cd228 2.203 . S
Cd228 O227 2.203 . S
Cd228 O230 2.411 . S
Cd228 O231 2.333 . S
Cd228 O232 2.352 . S
Cd228 O236 2.277 . S
Cd228 O237 2.356 . S
C229 O234 1.209 . S
C229 O236 1.226 . S
O230 Cd226 2.273 . S
O230 Cd228 2.411 . S
O230 C233 1.320 . S
O231 Cd228 2.333 . S
O231 C233 1.214 . S
O232 Cd228 2.352 . S
O232 C235 1.258 1_545 S
C233 O230 1.320 . S
C233 O231 1.214 . S
O234 Cd226 2.277 . S
O234 C229 1.209 . S
C235 O232 1.258 1_565 S
C235 O237 1.282 1_565 S
O236 Cd228 2.277 . S
O236 C229 1.226 . S
O237 Cd228 2.356 . S
O237 C235 1.282 1_545 S
C238 O239 1.306 1_455 S
C238 O241 1.160 1_455 S
O239 C238 1.306 1_655 S
O239 Cd240 2.228 . S
Cd240 O239 2.228 . S
Cd240 O244 2.273 . S
Cd240 O248 2.277 . S
O241 C238 1.160 1_655 S
O241 Cd242 2.203 . S
Cd242 O241 2.203 . S
Cd242 O244 2.411 . S
Cd242 O245 2.333 . S
Cd242 O246 2.352 . S
Cd242 O250 2.277 . S
Cd242 O251 2.356 . S
C243 O248 1.209 . S
C243 O250 1.226 . S
O244 Cd240 2.273 . S
O244 Cd242 2.411 . S
O244 C247 1.320 . S
O245 Cd242 2.333 . S
O245 C247 1.214 . S
O246 Cd242 2.352 . S
O246 C249 1.258 . S
C247 O244 1.320 . S
C247 O245 1.214 . S
O248 Cd240 2.277 . S
O248 C243 1.209 . S
C249 O246 1.258 . S
C249 O251 1.282 . S
O250 Cd242 2.277 . S
O250 C243 1.226 . S
O251 Cd242 2.356 . S
O251 C249 1.282 . S
H252 C279 0.929 . S
N253 C278 1.433 . S
N253 C284 1.435 . S
N253 C290 1.423 . S
H254 C280 0.930 . S
H255 C283 0.931 . S
H256 C282 0.929 . S
H257 C285 0.930 . S
H258 C286 0.932 . S
H259 C289 0.929 . S
H260 C288 0.931 . S
H261 C291 0.929 . S
H262 C295 0.932 . S
H263 C292 0.931 . S
H264 C294 0.929 . S
H265 C297 0.929 . S
H266 C298 0.930 . S
H267 C300 0.929 . S
H268 C301 0.931 . S
H269 C303 0.930 . S
H270 C304 0.932 . S
H271 C306 0.931 . S
H272 C307 0.929 . S
H273 C309 0.929 . S
H274 C310 0.931 . S
H275 C312 0.929 . S
N276 C296 1.433 . S
N276 C302 1.435 . S
N276 C308 1.423 . S
H277 C313 0.932 . S
C278 N253 1.433 . S
C278 C279 1.363 . S
C278 C283 1.370 . S
C279 H252 0.929 . S
C279 C278 1.363 . S
C279 C280 1.385 . S
C280 H254 0.930 . S
C280 C279 1.385 . S
C280 C281 1.357 . S
C281 C280 1.357 . S
C281 C282 1.406 . S
C282 H256 0.929 . S
C282 C281 1.406 . S
C282 C283 1.391 . S
C283 H255 0.931 . S
C283 C278 1.370 . S
C283 C282 1.391 . S
C284 N253 1.435 . S
C284 C285 1.358 . S
C284 C289 1.371 . S
C285 H257 0.930 . S
C285 C284 1.358 . S
C285 C286 1.405 . S
C286 H258 0.932 . S
C286 C285 1.405 . S
C286 C287 1.383 . S
C287 C286 1.383 . S
C287 C288 1.393 . S
C288 H260 0.931 . S
C288 C287 1.393 . S
C288 C289 1.382 . S
C289 H259 0.929 . S
C289 C284 1.371 . S
C289 C288 1.382 . S
C290 N253 1.423 . S
C290 C291 1.362 . S
C290 C295 1.388 . S
C291 H261 0.929 . S
C291 C290 1.362 . S
C291 C292 1.376 . S
C292 H263 0.931 . S
C292 C291 1.376 . S
C292 C293 1.396 . S
C293 C292 1.396 . S
C293 C294 1.348 . S
C293 C311 1.472 . S
C294 H264 0.929 . S
C294 C293 1.348 . S
C294 C295 1.443 . S
C295 H262 0.932 . S
C295 C290 1.388 . S
C295 C294 1.443 . S
C296 N276 1.433 . S
C296 C297 1.363 . S
C296 C301 1.370 . S
C297 H265 0.929 . S
C297 C296 1.363 . S
C297 C298 1.385 . S
C298 H266 0.930 . S
C298 C297 1.385 . S
C298 C299 1.357 . S
C299 C298 1.357 . S
C299 C300 1.406 . S
C300 H267 0.929 . S
C300 C299 1.406 . S
C300 C301 1.391 . S
C301 H268 0.931 . S
C301 C296 1.370 . S
C301 C300 1.391 . S
C302 N276 1.435 . S
C302 C303 1.358 . S
C302 C307 1.371 . S
C303 H269 0.930 . S
C303 C302 1.358 . S
C303 C304 1.405 . S
C304 H270 0.932 . S
C304 C303 1.405 . S
C304 C305 1.383 . S
C305 C304 1.383 . S
C305 C306 1.393 . S
C306 H271 0.931 . S
C306 C305 1.393 . S
C306 C307 1.382 . S
C307 H272 0.929 . S
C307 C302 1.371 . S
C307 C306 1.382 . S
C308 N276 1.423 . S
C308 C309 1.362 . S
C308 C313 1.388 . S
C309 H273 0.929 . S
C309 C308 1.362 . S
C309 C310 1.376 . S
C310 H274 0.931 . S
C310 C309 1.376 . S
C310 C311 1.396 . S
C311 C293 1.472 . S
C311 C310 1.396 . S
C311 C312 1.348 . S
C312 H275 0.929 . S
C312 C311 1.348 . S
C312 C313 1.443 . S
C313 H277 0.932 . S
C313 C308 1.388 . S
C313 C312 1.443 . S
H314 C341 0.929 . S
N315 C340 1.433 . S
N315 C346 1.435 . S
N315 C352 1.423 . S
H316 C342 0.930 . S
H317 C345 0.931 . S
H318 C344 0.929 . S
H319 C347 0.930 . S
H320 C348 0.932 . S
H321 C351 0.929 . S
H322 C350 0.931 . S
H323 C353 0.929 . S
H324 C357 0.932 . S
H325 C354 0.931 . S
H326 C356 0.929 . S
H327 C359 0.929 . S
H328 C360 0.930 . S
H329 C362 0.929 . S
H330 C363 0.931 . S
H331 C365 0.930 . S
H332 C366 0.932 . S
H333 C368 0.931 . S
H334 C369 0.929 . S
H335 C371 0.929 . S
H336 C372 0.931 . S
H337 C374 0.929 . S
N338 C358 1.433 . S
N338 C364 1.435 . S
N338 C370 1.423 . S
H339 C375 0.932 . S
C340 N315 1.433 . S
C340 C341 1.363 . S
C340 C345 1.370 . S
C341 H314 0.929 . S
C341 C340 1.363 . S
C341 C342 1.385 . S
C342 H316 0.930 . S
C342 C341 1.385 . S
C342 C343 1.357 . S
C343 C342 1.357 . S
C343 C344 1.406 . S
C344 H318 0.929 . S
C344 C343 1.406 . S
C344 C345 1.391 . S
C345 H317 0.931 . S
C345 C340 1.370 . S
C345 C344 1.391 . S
C346 N315 1.435 . S
C346 C347 1.358 . S
C346 C351 1.371 . S
C347 H319 0.930 . S
C347 C346 1.358 . S
C347 C348 1.405 . S
C348 H320 0.932 . S
C348 C347 1.405 . S
C348 C349 1.383 . S
C349 C348 1.383 . S
C349 C350 1.393 . S
C350 H322 0.931 . S
C350 C349 1.393 . S
C350 C351 1.382 . S
C351 H321 0.929 . S
C351 C346 1.371 . S
C351 C350 1.382 . S
C352 N315 1.423 . S
C352 C353 1.362 . S
C352 C357 1.388 . S
C353 H323 0.929 . S
C353 C352 1.362 . S
C353 C354 1.376 . S
C354 H325 0.931 . S
C354 C353 1.376 . S
C354 C355 1.396 . S
C355 C354 1.396 . S
C355 C356 1.348 . S
C355 C373 1.472 . S
C356 H326 0.929 . S
C356 C355 1.348 . S
C356 C357 1.443 . S
C357 H324 0.932 . S
C357 C352 1.388 . S
C357 C356 1.443 . S
C358 N338 1.433 . S
C358 C359 1.363 . S
C358 C363 1.370 . S
C359 H327 0.929 . S
C359 C358 1.363 . S
C359 C360 1.385 . S
C360 H328 0.930 . S
C360 C359 1.385 . S
C360 C361 1.357 . S
C361 C360 1.357 . S
C361 C362 1.406 . S
C362 H329 0.929 . S
C362 C361 1.406 . S
C362 C363 1.391 . S
C363 H330 0.931 . S
C363 C358 1.370 . S
C363 C362 1.391 . S
C364 N338 1.435 . S
C364 C365 1.358 . S
C364 C369 1.371 . S
C365 H331 0.930 . S
C365 C364 1.358 . S
C365 C366 1.405 . S
C366 H332 0.932 . S
C366 C365 1.405 . S
C366 C367 1.383 . S
C367 C366 1.383 . S
C367 C368 1.393 . S
C368 H333 0.931 . S
C368 C367 1.393 . S
C368 C369 1.382 . S
C369 H334 0.929 . S
C369 C364 1.371 . S
C369 C368 1.382 . S
C370 N338 1.423 . S
C370 C371 1.362 . S
C370 C375 1.388 . S
C371 H335 0.929 . S
C371 C370 1.362 . S
C371 C372 1.376 . S
C372 H336 0.931 . S
C372 C371 1.376 . S
C372 C373 1.396 . S
C373 C355 1.472 . S
C373 C372 1.396 . S
C373 C374 1.348 . S
C374 H337 0.929 . S
C374 C373 1.348 . S
C374 C375 1.443 . S
C375 H339 0.932 . S
C375 C370 1.388 . S
C375 C374 1.443 . S
H376 C403 0.929 . S
N377 C402 1.433 . S
N377 C408 1.435 . S
N377 C414 1.423 . S
H378 C404 0.930 . S
H379 C407 0.931 . S
H380 C406 0.929 . S
H381 C409 0.930 . S
H382 C410 0.932 . S
H383 C413 0.929 . S
H384 C412 0.931 . S
H385 C415 0.929 . S
H386 C419 0.932 . S
H387 C416 0.931 . S
H388 C418 0.929 . S
H389 C421 0.929 . S
H390 C422 0.930 . S
H391 C424 0.929 . S
H392 C425 0.931 . S
H393 C427 0.930 . S
H394 C428 0.932 . S
H395 C430 0.931 . S
H396 C431 0.929 . S
H397 C433 0.929 . S
H398 C434 0.931 . S
H399 C436 0.929 . S
N400 C420 1.433 . S
N400 C426 1.435 . S
N400 C432 1.423 . S
H401 C437 0.932 . S
C402 N377 1.433 . S
C402 C403 1.363 . S
C402 C407 1.370 . S
C403 H376 0.929 . S
C403 C402 1.363 . S
C403 C404 1.385 . S
C404 H378 0.930 . S
C404 C403 1.385 . S
C404 C405 1.357 . S
C405 C404 1.357 . S
C405 C406 1.406 . S
C406 H380 0.929 . S
C406 C405 1.406 . S
C406 C407 1.391 . S
C407 H379 0.931 . S
C407 C402 1.370 . S
C407 C406 1.391 . S
C408 N377 1.435 . S
C408 C409 1.358 . S
C408 C413 1.371 . S
C409 H381 0.930 . S
C409 C408 1.358 . S
C409 C410 1.405 . S
C410 H382 0.932 . S
C410 C409 1.405 . S
C410 C411 1.383 . S
C411 C410 1.383 . S
C411 C412 1.393 . S
C412 H384 0.931 . S
C412 C411 1.393 . S
C412 C413 1.382 . S
C413 H383 0.929 . S
C413 C408 1.371 . S
C413 C412 1.382 . S
C414 N377 1.423 . S
C414 C415 1.362 . S
C414 C419 1.388 . S
C415 H385 0.929 . S
C415 C414 1.362 . S
C415 C416 1.376 . S
C416 H387 0.931 . S
C416 C415 1.376 . S
C416 C417 1.396 . S
C417 C416 1.396 . S
C417 C418 1.348 . S
C417 C435 1.472 . S
C418 H388 0.929 . S
C418 C417 1.348 . S
C418 C419 1.443 . S
C419 H386 0.932 . S
C419 C414 1.388 . S
C419 C418 1.443 . S
C420 N400 1.433 . S
C420 C421 1.363 . S
C420 C425 1.370 . S
C421 H389 0.929 . S
C421 C420 1.363 . S
C421 C422 1.385 . S
C422 H390 0.930 . S
C422 C421 1.385 . S
C422 C423 1.357 . S
C423 C422 1.357 . S
C423 C424 1.406 . S
C424 H391 0.929 . S
C424 C423 1.406 . S
C424 C425 1.391 . S
C425 H392 0.931 . S
C425 C420 1.370 . S
C425 C424 1.391 . S
C426 N400 1.435 . S
C426 C427 1.358 . S
C426 C431 1.371 . S
C427 H393 0.930 . S
C427 C426 1.358 . S
C427 C428 1.405 . S
C428 H394 0.932 . S
C428 C427 1.405 . S
C428 C429 1.383 . S
C429 C428 1.383 . S
C429 C430 1.393 . S
C430 H395 0.931 . S
C430 C429 1.393 . S
C430 C431 1.382 . S
C431 H396 0.929 . S
C431 C426 1.371 . S
C431 C430 1.382 . S
C432 N400 1.423 . S
C432 C433 1.362 . S
C432 C437 1.388 . S
C433 H397 0.929 . S
C433 C432 1.362 . S
C433 C434 1.376 . S
C434 H398 0.931 . S
C434 C433 1.376 . S
C434 C435 1.396 . S
C435 C417 1.472 . S
C435 C434 1.396 . S
C435 C436 1.348 . S
C436 H399 0.929 . S
C436 C435 1.348 . S
C436 C437 1.443 . S
C437 H401 0.932 . S
C437 C432 1.388 . S
C437 C436 1.443 . S
H438 C465 0.929 . S
N439 C464 1.433 . S
N439 C470 1.435 . S
N439 C476 1.423 . S
H440 C466 0.930 . S
H441 C469 0.931 . S
H442 C468 0.929 . S
H443 C471 0.930 . S
H444 C472 0.932 . S
H445 C475 0.929 . S
H446 C474 0.931 . S
H447 C477 0.929 . S
H448 C481 0.932 . S
H449 C478 0.931 . S
H450 C480 0.929 . S
H451 C483 0.929 . S
H452 C484 0.930 . S
H453 C486 0.929 . S
H454 C487 0.931 . S
H455 C489 0.930 . S
H456 C490 0.932 . S
H457 C492 0.931 . S
H458 C493 0.929 . S
H459 C495 0.929 . S
H460 C496 0.931 . S
H461 C498 0.929 . S
N462 C482 1.433 . S
N462 C488 1.435 . S
N462 C494 1.423 . S
H463 C499 0.932 . S
C464 N439 1.433 . S
C464 C465 1.363 . S
C464 C469 1.370 . S
C465 H438 0.929 . S
C465 C464 1.363 . S
C465 C466 1.385 . S
C466 H440 0.930 . S
C466 C465 1.385 . S
C466 C467 1.357 . S
C467 C466 1.357 . S
C467 C468 1.406 . S
C468 H442 0.929 . S
C468 C467 1.406 . S
C468 C469 1.391 . S
C469 H441 0.931 . S
C469 C464 1.370 . S
C469 C468 1.391 . S
C470 N439 1.435 . S
C470 C471 1.358 . S
C470 C475 1.371 . S
C471 H443 0.930 . S
C471 C470 1.358 . S
C471 C472 1.405 . S
C472 H444 0.932 . S
C472 C471 1.405 . S
C472 C473 1.383 . S
C473 C472 1.383 . S
C473 C474 1.393 . S
C474 H446 0.931 . S
C474 C473 1.393 . S
C474 C475 1.382 . S
C475 H445 0.929 . S
C475 C470 1.371 . S
C475 C474 1.382 . S
C476 N439 1.423 . S
C476 C477 1.362 . S
C476 C481 1.388 . S
C477 H447 0.929 . S
C477 C476 1.362 . S
C477 C478 1.376 . S
C478 H449 0.931 . S
C478 C477 1.376 . S
C478 C479 1.396 . S
C479 C478 1.396 . S
C479 C480 1.348 . S
C479 C497 1.472 . S
C480 H450 0.929 . S
C480 C479 1.348 . S
C480 C481 1.443 . S
C481 H448 0.932 . S
C481 C476 1.388 . S
C481 C480 1.443 . S
C482 N462 1.433 . S
C482 C483 1.363 . S
C482 C487 1.370 . S
C483 H451 0.929 . S
C483 C482 1.363 . S
C483 C484 1.385 . S
C484 H452 0.930 . S
C484 C483 1.385 . S
C484 C485 1.357 . S
C485 C484 1.357 . S
C485 C486 1.406 . S
C486 H453 0.929 . S
C486 C485 1.406 . S
C486 C487 1.391 . S
C487 H454 0.931 . S
C487 C482 1.370 . S
C487 C486 1.391 . S
C488 N462 1.435 . S
C488 C489 1.358 . S
C488 C493 1.371 . S
C489 H455 0.930 . S
C489 C488 1.358 . S
C489 C490 1.405 . S
C490 H456 0.932 . S
C490 C489 1.405 . S
C490 C491 1.383 . S
C491 C490 1.383 . S
C491 C492 1.393 . S
C492 H457 0.931 . S
C492 C491 1.393 . S
C492 C493 1.382 . S
C493 H458 0.929 . S
C493 C488 1.371 . S
C493 C492 1.382 . S
C494 N462 1.423 . S
C494 C495 1.362 . S
C494 C499 1.388 . S
C495 H459 0.929 . S
C495 C494 1.362 . S
C495 C496 1.376 . S
C496 H460 0.931 . S
C496 C495 1.376 . S
C496 C497 1.396 . S
C497 C479 1.472 . S
C497 C496 1.396 . S
C497 C498 1.348 . S
C498 H461 0.929 . S
C498 C497 1.348 . S
C498 C499 1.443 . S
C499 H463 0.932 . S
C499 C494 1.388 . S
C499 C498 1.443 . S
H500 C527 0.929 . S
N501 C526 1.433 . S
N501 C532 1.435 . S
N501 C538 1.423 . S
H502 C528 0.930 . S
H503 C531 0.931 . S
H504 C530 0.929 . S
H505 C533 0.930 . S
H506 C534 0.932 . S
H507 C537 0.929 . S
H508 C536 0.931 . S
H509 C539 0.929 . S
H510 C543 0.932 . S
H511 C540 0.931 . S
H512 C542 0.929 . S
H513 C545 0.929 . S
H514 C546 0.930 . S
H515 C548 0.929 . S
H516 C549 0.931 . S
H517 C551 0.930 . S
H518 C552 0.932 . S
H519 C554 0.931 . S
H520 C555 0.929 . S
H521 C557 0.929 . S
H522 C558 0.931 . S
H523 C560 0.929 . S
N524 C544 1.433 . S
N524 C550 1.435 . S
N524 C556 1.423 . S
H525 C561 0.932 . S
C526 N501 1.433 . S
C526 C527 1.363 . S
C526 C531 1.370 . S
C527 H500 0.929 . S
C527 C526 1.363 . S
C527 C528 1.385 . S
C528 H502 0.930 . S
C528 C527 1.385 . S
C528 C529 1.357 . S
C529 C528 1.357 . S
C529 C530 1.406 . S
C530 H504 0.929 . S
C530 C529 1.406 . S
C530 C531 1.391 . S
C531 H503 0.931 . S
C531 C526 1.370 . S
C531 C530 1.391 . S
C532 N501 1.435 . S
C532 C533 1.358 . S
C532 C537 1.371 . S
C533 H505 0.930 . S
C533 C532 1.358 . S
C533 C534 1.405 . S
C534 H506 0.932 . S
C534 C533 1.405 . S
C534 C535 1.383 . S
C535 C534 1.383 . S
C535 C536 1.393 . S
C536 H508 0.931 . S
C536 C535 1.393 . S
C536 C537 1.382 . S
C537 H507 0.929 . S
C537 C532 1.371 . S
C537 C536 1.382 . S
C538 N501 1.423 . S
C538 C539 1.362 . S
C538 C543 1.388 . S
C539 H509 0.929 . S
C539 C538 1.362 . S
C539 C540 1.376 . S
C540 H511 0.931 . S
C540 C539 1.376 . S
C540 C541 1.396 . S
C541 C540 1.396 . S
C541 C542 1.348 . S
C541 C559 1.472 . S
C542 H512 0.929 . S
C542 C541 1.348 . S
C542 C543 1.443 . S
C543 H510 0.932 . S
C543 C538 1.388 . S
C543 C542 1.443 . S
C544 N524 1.433 . S
C544 C545 1.363 . S
C544 C549 1.370 . S
C545 H513 0.929 . S
C545 C544 1.363 . S
C545 C546 1.385 . S
C546 H514 0.930 . S
C546 C545 1.385 . S
C546 C547 1.357 . S
C547 C546 1.357 . S
C547 C548 1.406 . S
C548 H515 0.929 . S
C548 C547 1.406 . S
C548 C549 1.391 . S
C549 H516 0.931 . S
C549 C544 1.370 . S
C549 C548 1.391 . S
C550 N524 1.435 . S
C550 C551 1.358 . S
C550 C555 1.371 . S
C551 H517 0.930 . S
C551 C550 1.358 . S
C551 C552 1.405 . S
C552 H518 0.932 . S
C552 C551 1.405 . S
C552 C553 1.383 . S
C553 C552 1.383 . S
C553 C554 1.393 . S
C554 H519 0.931 . S
C554 C553 1.393 . S
C554 C555 1.382 . S
C555 H520 0.929 . S
C555 C550 1.371 . S
C555 C554 1.382 . S
C556 N524 1.423 . S
C556 C557 1.362 . S
C556 C561 1.388 . S
C557 H521 0.929 . S
C557 C556 1.362 . S
C557 C558 1.376 . S
C558 H522 0.931 . S
C558 C557 1.376 . S
C558 C559 1.396 . S
C559 C541 1.472 . S
C559 C558 1.396 . S
C559 C560 1.348 . S
C560 H523 0.929 . S
C560 C559 1.348 . S
C560 C561 1.443 . S
C561 H525 0.932 . S
C561 C556 1.388 . S
C561 C560 1.443 . S
H562 C589 0.929 . S
N563 C588 1.433 . S
N563 C594 1.435 . S
N563 C600 1.423 . S
H564 C590 0.930 . S
H565 C593 0.931 . S
H566 C592 0.929 . S
H567 C595 0.930 . S
H568 C596 0.932 . S
H569 C599 0.929 . S
H570 C598 0.931 . S
H571 C601 0.929 . S
H572 C605 0.932 . S
H573 C602 0.931 . S
H574 C604 0.929 . S
H575 C607 0.929 . S
H576 C608 0.930 . S
H577 C610 0.929 . S
H578 C611 0.931 . S
H579 C613 0.930 . S
H580 C614 0.932 . S
H581 C616 0.931 . S
H582 C617 0.929 . S
H583 C619 0.929 . S
H584 C620 0.931 . S
H585 C622 0.929 . S
N586 C606 1.433 . S
N586 C612 1.435 . S
N586 C618 1.423 . S
H587 C623 0.932 . S
C588 N563 1.433 . S
C588 C589 1.363 . S
C588 C593 1.370 . S
C589 H562 0.929 . S
C589 C588 1.363 . S
C589 C590 1.385 . S
C590 H564 0.930 . S
C590 C589 1.385 . S
C590 C591 1.357 . S
C591 C590 1.357 . S
C591 C592 1.406 . S
C592 H566 0.929 . S
C592 C591 1.406 . S
C592 C593 1.391 . S
C593 H565 0.931 . S
C593 C588 1.370 . S
C593 C592 1.391 . S
C594 N563 1.435 . S
C594 C595 1.358 . S
C594 C599 1.371 . S
C595 H567 0.930 . S
C595 C594 1.358 . S
C595 C596 1.405 . S
C596 H568 0.932 . S
C596 C595 1.405 . S
C596 C597 1.383 . S
C597 C596 1.383 . S
C597 C598 1.393 . S
C598 H570 0.931 . S
C598 C597 1.393 . S
C598 C599 1.382 . S
C599 H569 0.929 . S
C599 C594 1.371 . S
C599 C598 1.382 . S
C600 N563 1.423 . S
C600 C601 1.362 . S
C600 C605 1.388 . S
C601 H571 0.929 . S
C601 C600 1.362 . S
C601 C602 1.376 . S
C602 H573 0.931 . S
C602 C601 1.376 . S
C602 C603 1.396 . S
C603 C602 1.396 . S
C603 C604 1.348 . S
C603 C621 1.472 . S
C604 H574 0.929 . S
C604 C603 1.348 . S
C604 C605 1.443 . S
C605 H572 0.932 . S
C605 C600 1.388 . S
C605 C604 1.443 . S
C606 N586 1.433 . S
C606 C607 1.363 . S
C606 C611 1.370 . S
C607 H575 0.929 . S
C607 C606 1.363 . S
C607 C608 1.385 . S
C608 H576 0.930 . S
C608 C607 1.385 . S
C608 C609 1.357 . S
C609 C608 1.357 . S
C609 C610 1.406 . S
C610 H577 0.929 . S
C610 C609 1.406 . S
C610 C611 1.391 . S
C611 H578 0.931 . S
C611 C606 1.370 . S
C611 C610 1.391 . S
C612 N586 1.435 . S
C612 C613 1.358 . S
C612 C617 1.371 . S
C613 H579 0.930 . S
C613 C612 1.358 . S
C613 C614 1.405 . S
C614 H580 0.932 . S
C614 C613 1.405 . S
C614 C615 1.383 . S
C615 C614 1.383 . S
C615 C616 1.393 . S
C616 H581 0.931 . S
C616 C615 1.393 . S
C616 C617 1.382 . S
C617 H582 0.929 . S
C617 C612 1.371 . S
C617 C616 1.382 . S
C618 N586 1.423 . S
C618 C619 1.362 . S
C618 C623 1.388 . S
C619 H583 0.929 . S
C619 C618 1.362 . S
C619 C620 1.376 . S
C620 H584 0.931 . S
C620 C619 1.376 . S
C620 C621 1.396 . S
C621 C603 1.472 . S
C621 C620 1.396 . S
C621 C622 1.348 . S
C622 H585 0.929 . S
C622 C621 1.348 . S
C622 C623 1.443 . S
C623 H587 0.932 . S
C623 C618 1.388 . S
C623 C622 1.443 . S
H624 C651 0.929 . S
N625 C650 1.433 . S
N625 C656 1.435 . S
N625 C662 1.423 . S
H626 C652 0.930 . S
H627 C655 0.931 . S
H628 C654 0.929 . S
H629 C657 0.930 . S
H630 C658 0.932 . S
H631 C661 0.929 . S
H632 C660 0.931 . S
H633 C663 0.929 . S
H634 C667 0.932 . S
H635 C664 0.931 . S
H636 C666 0.929 . S
H637 C669 0.929 . S
H638 C670 0.930 . S
H639 C672 0.929 . S
H640 C673 0.931 . S
H641 C675 0.930 . S
H642 C676 0.932 . S
H643 C678 0.931 . S
H644 C679 0.929 . S
H645 C681 0.929 . S
H646 C682 0.931 . S
H647 C684 0.929 . S
N648 C668 1.433 . S
N648 C674 1.435 . S
N648 C680 1.423 . S
H649 C685 0.932 . S
C650 N625 1.433 . S
C650 C651 1.363 . S
C650 C655 1.370 . S
C651 H624 0.929 . S
C651 C650 1.363 . S
C651 C652 1.385 . S
C652 H626 0.930 . S
C652 C651 1.385 . S
C652 C653 1.357 . S
C653 C652 1.357 . S
C653 C654 1.406 . S
C654 H628 0.929 . S
C654 C653 1.406 . S
C654 C655 1.391 . S
C655 H627 0.931 . S
C655 C650 1.370 . S
C655 C654 1.391 . S
C656 N625 1.435 . S
C656 C657 1.358 . S
C656 C661 1.371 . S
C657 H629 0.930 . S
C657 C656 1.358 . S
C657 C658 1.405 . S
C658 H630 0.932 . S
C658 C657 1.405 . S
C658 C659 1.383 . S
C659 C658 1.383 . S
C659 C660 1.393 . S
C660 H632 0.931 . S
C660 C659 1.393 . S
C660 C661 1.382 . S
C661 H631 0.929 . S
C661 C656 1.371 . S
C661 C660 1.382 . S
C662 N625 1.423 . S
C662 C663 1.362 . S
C662 C667 1.388 . S
C663 H633 0.929 . S
C663 C662 1.362 . S
C663 C664 1.376 . S
C664 H635 0.931 . S
C664 C663 1.376 . S
C664 C665 1.396 . S
C665 C664 1.396 . S
C665 C666 1.348 . S
C665 C683 1.472 . S
C666 H636 0.929 . S
C666 C665 1.348 . S
C666 C667 1.443 . S
C667 H634 0.932 . S
C667 C662 1.388 . S
C667 C666 1.443 . S
C668 N648 1.433 . S
C668 C669 1.363 . S
C668 C673 1.370 . S
C669 H637 0.929 . S
C669 C668 1.363 . S
C669 C670 1.385 . S
C670 H638 0.930 . S
C670 C669 1.385 . S
C670 C671 1.357 . S
C671 C670 1.357 . S
C671 C672 1.406 . S
C672 H639 0.929 . S
C672 C671 1.406 . S
C672 C673 1.391 . S
C673 H640 0.931 . S
C673 C668 1.370 . S
C673 C672 1.391 . S
C674 N648 1.435 . S
C674 C675 1.358 . S
C674 C679 1.371 . S
C675 H641 0.930 . S
C675 C674 1.358 . S
C675 C676 1.405 . S
C676 H642 0.932 . S
C676 C675 1.405 . S
C676 C677 1.383 . S
C677 C676 1.383 . S
C677 C678 1.393 . S
C678 H643 0.931 . S
C678 C677 1.393 . S
C678 C679 1.382 . S
C679 H644 0.929 . S
C679 C674 1.371 . S
C679 C678 1.382 . S
C680 N648 1.423 . S
C680 C681 1.362 . S
C680 C685 1.388 . S
C681 H645 0.929 . S
C681 C680 1.362 . S
C681 C682 1.376 . S
C682 H646 0.931 . S
C682 C681 1.376 . S
C682 C683 1.396 . S
C683 C665 1.472 . S
C683 C682 1.396 . S
C683 C684 1.348 . S
C684 H647 0.929 . S
C684 C683 1.348 . S
C684 C685 1.443 . S
C685 H649 0.932 . S
C685 C680 1.388 . S
C685 C684 1.443 . S
H686 C713 0.929 . S
N687 C712 1.433 . S
N687 C718 1.435 . S
N687 C724 1.423 . S
H688 C714 0.930 . S
H689 C717 0.931 . S
H690 C716 0.929 . S
H691 C719 0.930 . S
H692 C720 0.932 . S
H693 C723 0.929 . S
H694 C722 0.931 . S
H695 C725 0.929 . S
H696 C729 0.932 . S
H697 C726 0.931 . S
H698 C728 0.929 . S
H699 C731 0.929 . S
H700 C732 0.930 . S
H701 C734 0.929 . S
H702 C735 0.931 . S
H703 C737 0.930 . S
H704 C738 0.932 . S
H705 C740 0.931 . S
H706 C741 0.929 . S
H707 C743 0.929 . S
H708 C744 0.931 . S
H709 C746 0.929 . S
N710 C730 1.433 . S
N710 C736 1.435 . S
N710 C742 1.423 . S
H711 C747 0.932 . S
C712 N687 1.433 . S
C712 C713 1.363 . S
C712 C717 1.370 . S
C713 H686 0.929 . S
C713 C712 1.363 . S
C713 C714 1.385 . S
C714 H688 0.930 . S
C714 C713 1.385 . S
C714 C715 1.357 . S
C715 C714 1.357 . S
C715 C716 1.406 . S
C716 H690 0.929 . S
C716 C715 1.406 . S
C716 C717 1.391 . S
C717 H689 0.931 . S
C717 C712 1.370 . S
C717 C716 1.391 . S
C718 N687 1.435 . S
C718 C719 1.358 . S
C718 C723 1.371 . S
C719 H691 0.930 . S
C719 C718 1.358 . S
C719 C720 1.405 . S
C720 H692 0.932 . S
C720 C719 1.405 . S
C720 C721 1.383 . S
C721 C720 1.383 . S
C721 C722 1.393 . S
C722 H694 0.931 . S
C722 C721 1.393 . S
C722 C723 1.382 . S
C723 H693 0.929 . S
C723 C718 1.371 . S
C723 C722 1.382 . S
C724 N687 1.423 . S
C724 C725 1.362 . S
C724 C729 1.388 . S
C725 H695 0.929 . S
C725 C724 1.362 . S
C725 C726 1.376 . S
C726 H697 0.931 . S
C726 C725 1.376 . S
C726 C727 1.396 . S
C727 C726 1.396 . S
C727 C728 1.348 . S
C727 C745 1.472 . S
C728 H698 0.929 . S
C728 C727 1.348 . S
C728 C729 1.443 . S
C729 H696 0.932 . S
C729 C724 1.388 . S
C729 C728 1.443 . S
C730 N710 1.433 . S
C730 C731 1.363 . S
C730 C735 1.370 . S
C731 H699 0.929 . S
C731 C730 1.363 . S
C731 C732 1.385 . S
C732 H700 0.930 . S
C732 C731 1.385 . S
C732 C733 1.357 . S
C733 C732 1.357 . S
C733 C734 1.406 . S
C734 H701 0.929 . S
C734 C733 1.406 . S
C734 C735 1.391 . S
C735 H702 0.931 . S
C735 C730 1.370 . S
C735 C734 1.391 . S
C736 N710 1.435 . S
C736 C737 1.358 . S
C736 C741 1.371 . S
C737 H703 0.930 . S
C737 C736 1.358 . S
C737 C738 1.405 . S
C738 H704 0.932 . S
C738 C737 1.405 . S
C738 C739 1.383 . S
C739 C738 1.383 . S
C739 C740 1.393 . S
C740 H705 0.931 . S
C740 C739 1.393 . S
C740 C741 1.382 . S
C741 H706 0.929 . S
C741 C736 1.371 . S
C741 C740 1.382 . S
C742 N710 1.423 . S
C742 C743 1.362 . S
C742 C747 1.388 . S
C743 H707 0.929 . S
C743 C742 1.362 . S
C743 C744 1.376 . S
C744 H708 0.931 . S
C744 C743 1.376 . S
C744 C745 1.396 . S
C745 C727 1.472 . S
C745 C744 1.396 . S
C745 C746 1.348 . S
C746 H709 0.929 . S
C746 C745 1.348 . S
C746 C747 1.443 . S
C747 H711 0.932 . S
C747 C742 1.388 . S
C747 C746 1.443 . S
H748 C775 0.929 . S
N749 C774 1.433 . S
N749 C780 1.435 . S
N749 C786 1.423 . S
H750 C776 0.930 . S
H751 C779 0.931 . S
H752 C778 0.929 . S
H753 C781 0.930 . S
H754 C782 0.932 . S
H755 C785 0.929 . S
H756 C784 0.931 . S
H757 C787 0.929 . S
H758 C791 0.932 . S
H759 C788 0.931 . S
H760 C790 0.929 . S
H761 C793 0.929 . S
H762 C794 0.930 . S
H763 C796 0.929 . S
H764 C797 0.931 . S
H765 C799 0.930 . S
H766 C800 0.932 . S
H767 C802 0.931 . S
H768 C803 0.929 . S
H769 C805 0.929 . S
H770 C806 0.931 . S
H771 C808 0.929 . S
N772 C792 1.433 . S
N772 C798 1.435 . S
N772 C804 1.423 . S
H773 C809 0.932 . S
C774 N749 1.433 . S
C774 C775 1.363 . S
C774 C779 1.370 . S
C775 H748 0.929 . S
C775 C774 1.363 . S
C775 C776 1.385 . S
C776 H750 0.930 . S
C776 C775 1.385 . S
C776 C777 1.357 . S
C777 C776 1.357 . S
C777 C778 1.406 . S
C778 H752 0.929 . S
C778 C777 1.406 . S
C778 C779 1.391 . S
C779 H751 0.931 . S
C779 C774 1.370 . S
C779 C778 1.391 . S
C780 N749 1.435 . S
C780 C781 1.358 . S
C780 C785 1.371 . S
C781 H753 0.930 . S
C781 C780 1.358 . S
C781 C782 1.405 . S
C782 H754 0.932 . S
C782 C781 1.405 . S
C782 C783 1.383 . S
C783 C782 1.383 . S
C783 C784 1.393 . S
C784 H756 0.931 . S
C784 C783 1.393 . S
C784 C785 1.382 . S
C785 H755 0.929 . S
C785 C780 1.371 . S
C785 C784 1.382 . S
C786 N749 1.423 . S
C786 C787 1.362 . S
C786 C791 1.388 . S
C787 H757 0.929 . S
C787 C786 1.362 . S
C787 C788 1.376 . S
C788 H759 0.931 . S
C788 C787 1.376 . S
C788 C789 1.396 . S
C789 C788 1.396 . S
C789 C790 1.348 . S
C789 C807 1.472 . S
C790 H760 0.929 . S
C790 C789 1.348 . S
C790 C791 1.443 . S
C791 H758 0.932 . S
C791 C786 1.388 . S
C791 C790 1.443 . S
C792 N772 1.433 . S
C792 C793 1.363 . S
C792 C797 1.370 . S
C793 H761 0.929 . S
C793 C792 1.363 . S
C793 C794 1.385 . S
C794 H762 0.930 . S
C794 C793 1.385 . S
C794 C795 1.357 . S
C795 C794 1.357 . S
C795 C796 1.406 . S
C796 H763 0.929 . S
C796 C795 1.406 . S
C796 C797 1.391 . S
C797 H764 0.931 . S
C797 C792 1.370 . S
C797 C796 1.391 . S
C798 N772 1.435 . S
C798 C799 1.358 . S
C798 C803 1.371 . S
C799 H765 0.930 . S
C799 C798 1.358 . S
C799 C800 1.405 . S
C800 H766 0.932 . S
C800 C799 1.405 . S
C800 C801 1.383 . S
C801 C800 1.383 . S
C801 C802 1.393 . S
C802 H767 0.931 . S
C802 C801 1.393 . S
C802 C803 1.382 . S
C803 H768 0.929 . S
C803 C798 1.371 . S
C803 C802 1.382 . S
C804 N772 1.423 . S
C804 C805 1.362 . S
C804 C809 1.388 . S
C805 H769 0.929 . S
C805 C804 1.362 . S
C805 C806 1.376 . S
C806 H770 0.931 . S
C806 C805 1.376 . S
C806 C807 1.396 . S
C807 C789 1.472 . S
C807 C806 1.396 . S
C807 C808 1.348 . S
C808 H771 0.929 . S
C808 C807 1.348 . S
C808 C809 1.443 . S
C809 H773 0.932 . S
C809 C804 1.388 . S
C809 C808 1.443 . S
H810 C837 0.929 . S
N811 C836 1.433 . S
N811 C842 1.435 . S
N811 C848 1.423 . S
H812 C838 0.930 . S
H813 C841 0.931 . S
H814 C840 0.929 . S
H815 C843 0.930 . S
H816 C844 0.932 . S
H817 C847 0.929 . S
H818 C846 0.931 . S
H819 C849 0.929 . S
H820 C853 0.932 1_655 S
H821 C850 0.931 . S
H822 C852 0.938 . S
H823 C855 0.929 . S
H824 C856 0.930 . S
H825 C858 0.929 . S
H826 C859 0.931 . S
H827 C861 0.930 . S
H828 C862 0.932 . S
H829 C864 0.931 . S
H830 C865 0.929 . S
H831 C867 0.929 . S
H832 C868 0.931 . S
H833 C870 0.979 . S
N834 C854 1.433 . S
N834 C860 1.435 . S
N834 C866 1.423 . S
H835 C871 0.932 1_655 S
C836 N811 1.433 . S
C836 C837 1.363 . S
C836 C841 1.370 1_455 S
C837 H810 0.929 . S
C837 C836 1.363 . S
C837 C838 1.385 . S
C838 H812 0.930 . S
C838 C837 1.385 . S
C838 C839 1.357 1_455 S
C839 C838 1.357 1_655 S
C839 C840 1.406 . S
C840 H814 0.929 . S
C840 C839 1.406 . S
C840 C841 1.391 . S
C841 H813 0.931 . S
C841 C836 1.370 1_655 S
C841 C840 1.391 . S
C842 N811 1.435 . S
C842 C843 1.358 1_455 S
C842 C847 1.371 . S
C843 H815 0.930 . S
C843 C842 1.358 1_655 S
C843 C844 1.405 . S
C844 H816 0.932 . S
C844 C843 1.405 . S
C844 C845 1.383 1_655 S
C845 C844 1.383 1_455 S
C845 C846 1.393 . S
C846 H818 0.931 . S
C846 C845 1.393 . S
C846 C847 1.382 . S
C847 H817 0.929 . S
C847 C842 1.371 . S
C847 C846 1.382 . S
C848 N811 1.423 . S
C848 C849 1.362 . S
C848 C853 1.388 . S
C849 H819 0.929 . S
C849 C848 1.362 . S
C849 C850 1.376 . S
C850 H821 0.931 . S
C850 C849 1.376 . S
C850 C851 1.396 . S
C851 C850 1.396 . S
C851 C852 1.348 . S
C851 C869 1.472 . S
C852 H822 0.938 . S
C852 C851 1.348 . S
C852 C853 1.443 . S
C853 H820 0.932 1_455 S
C853 C848 1.388 . S
C853 C852 1.443 . S
C854 N834 1.433 . S
C854 C855 1.363 . S
C854 C859 1.370 1_455 S
C855 H823 0.929 . S
C855 C854 1.363 . S
C855 C856 1.385 . S
C856 H824 0.930 . S
C856 C855 1.385 . S
C856 C857 1.357 1_455 S
C857 C856 1.357 1_655 S
C857 C858 1.406 . S
C858 H825 0.929 . S
C858 C857 1.406 . S
C858 C859 1.391 . S
C859 H826 0.931 . S
C859 C854 1.370 1_655 S
C859 C858 1.391 . S
C860 N834 1.435 . S
C860 C861 1.358 1_455 S
C860 C865 1.371 . S
C861 H827 0.930 . S
C861 C860 1.358 1_655 S
C861 C862 1.405 . S
C862 H828 0.932 . S
C862 C861 1.405 . S
C862 C863 1.383 1_655 S
C863 C862 1.383 1_455 S
C863 C864 1.393 . S
C864 H829 0.931 . S
C864 C863 1.393 . S
C864 C865 1.382 . S
C865 H830 0.929 . S
C865 C860 1.371 . S
C865 C864 1.382 . S
C866 N834 1.423 . S
C866 C867 1.362 . S
C866 C871 1.388 . S
C867 H831 0.929 . S
C867 C866 1.362 . S
C867 C868 1.376 . S
C868 H832 0.931 . S
C868 C867 1.376 . S
C868 C869 1.396 . S
C869 C851 1.472 . S
C869 C868 1.396 . S
C869 C870 1.348 . S
C870 H833 0.979 . S
C870 C869 1.348 . S
C870 C871 1.443 . S
C871 H835 0.932 1_455 S
C871 C866 1.388 . S
C871 C870 1.443 . S
H872 C899 0.929 . S
N873 C898 1.433 . S
N873 C904 1.435 . S
N873 C910 1.423 . S
H874 C900 0.930 . S
H875 C903 0.931 . S
H876 C902 0.929 . S
H877 C905 0.930 . S
H878 C906 0.932 . S
H879 C909 0.929 . S
H880 C908 0.931 . S
H881 C911 0.929 . S
H882 C915 0.932 . S
H883 C912 0.931 . S
H884 C914 0.929 . S
H885 C917 0.929 . S
H886 C918 0.930 . S
H887 C920 0.929 . S
H888 C921 0.931 . S
H889 C923 0.930 . S
H890 C924 0.932 . S
H891 C926 0.931 . S
H892 C927 0.929 . S
H893 C929 0.929 . S
H894 C930 0.931 . S
H895 C932 0.929 . S
N896 C916 1.433 . S
N896 C922 1.435 . S
N896 C928 1.423 . S
H897 C933 0.932 . S
C898 N873 1.433 . S
C898 C899 1.363 . S
C898 C903 1.370 . S
C899 H872 0.929 . S
C899 C898 1.363 . S
C899 C900 1.385 . S
C900 H874 0.930 . S
C900 C899 1.385 . S
C900 C901 1.357 . S
C901 C900 1.357 . S
C901 C902 1.406 . S
C902 H876 0.929 . S
C902 C901 1.406 . S
C902 C903 1.391 . S
C903 H875 0.931 . S
C903 C898 1.370 . S
C903 C902 1.391 . S
C904 N873 1.435 . S
C904 C905 1.358 . S
C904 C909 1.371 . S
C905 H877 0.930 . S
C905 C904 1.358 . S
C905 C906 1.405 . S
C906 H878 0.932 . S
C906 C905 1.405 . S
C906 C907 1.383 . S
C907 C906 1.383 . S
C907 C908 1.393 . S
C908 H880 0.931 . S
C908 C907 1.393 . S
C908 C909 1.382 . S
C909 H879 0.929 . S
C909 C904 1.371 . S
C909 C908 1.382 . S
C910 N873 1.423 . S
C910 C911 1.362 . S
C910 C915 1.388 . S
C911 H881 0.929 . S
C911 C910 1.362 . S
C911 C912 1.376 . S
C912 H883 0.931 . S
C912 C911 1.376 . S
C912 C913 1.396 . S
C913 C912 1.396 . S
C913 C914 1.348 . S
C913 C931 1.472 . S
C914 H884 0.929 . S
C914 C913 1.348 . S
C914 C915 1.443 . S
C915 H882 0.932 . S
C915 C910 1.388 . S
C915 C914 1.443 . S
C916 N896 1.433 . S
C916 C917 1.363 . S
C916 C921 1.370 . S
C917 H885 0.929 . S
C917 C916 1.363 . S
C917 C918 1.385 . S
C918 H886 0.930 . S
C918 C917 1.385 . S
C918 C919 1.357 . S
C919 C918 1.357 . S
C919 C920 1.406 . S
C920 H887 0.929 . S
C920 C919 1.406 . S
C920 C921 1.391 . S
C921 H888 0.931 . S
C921 C916 1.370 . S
C921 C920 1.391 . S
C922 N896 1.435 . S
C922 C923 1.358 . S
C922 C927 1.371 . S
C923 H889 0.930 . S
C923 C922 1.358 . S
C923 C924 1.405 . S
C924 H890 0.932 . S
C924 C923 1.405 . S
C924 C925 1.383 . S
C925 C924 1.383 . S
C925 C926 1.393 . S
C926 H891 0.931 . S
C926 C925 1.393 . S
C926 C927 1.382 . S
C927 H892 0.929 . S
C927 C922 1.371 . S
C927 C926 1.382 . S
C928 N896 1.423 . S
C928 C929 1.362 . S
C928 C933 1.388 . S
C929 H893 0.929 . S
C929 C928 1.362 . S
C929 C930 1.376 . S
C930 H894 0.931 . S
C930 C929 1.376 . S
C930 C931 1.396 . S
C931 C913 1.472 . S
C931 C930 1.396 . S
C931 C932 1.348 . S
C932 H895 0.929 . S
C932 C931 1.348 . S
C932 C933 1.443 . S
C933 H897 0.932 . S
C933 C928 1.388 . S
C933 C932 1.443 . S
H934 C961 0.929 . S
N935 C960 1.433 . S
N935 C966 1.435 . S
N935 C972 1.423 . S
H936 C962 0.930 . S
H937 C965 0.931 . S
H938 C964 0.929 . S
H939 C967 0.930 . S
H940 C968 0.932 . S
H941 C971 0.929 . S
H942 C970 0.931 . S
H943 C973 0.929 . S
H944 C977 0.932 1_545 S
H945 C974 0.931 . S
H946 C976 0.983 . S
H947 C979 0.929 . S
H948 C980 0.930 . S
H949 C982 0.929 . S
H950 C983 0.931 . S
H951 C985 0.930 . S
H952 C986 0.932 . S
H953 C988 0.931 . S
H954 C989 0.929 . S
H955 C991 0.929 . S
H956 C992 0.931 . S
H957 C994 0.938 . S
N958 C978 1.433 . S
N958 C984 1.435 . S
N958 C990 1.423 . S
H959 C995 0.932 1_545 S
C960 N935 1.433 . S
C960 C961 1.363 . S
C960 C965 1.370 1_565 S
C961 H934 0.929 . S
C961 C960 1.363 . S
C961 C962 1.385 . S
C962 H936 0.930 . S
C962 C961 1.385 . S
C962 C963 1.357 1_565 S
C963 C962 1.357 1_545 S
C963 C964 1.406 . S
C964 H938 0.929 . S
C964 C963 1.406 . S
C964 C965 1.391 . S
C965 H937 0.931 . S
C965 C960 1.370 1_545 S
C965 C964 1.391 . S
C966 N935 1.435 . S
C966 C967 1.358 1_565 S
C966 C971 1.371 . S
C967 H939 0.930 . S
C967 C966 1.358 1_545 S
C967 C968 1.405 . S
C968 H940 0.932 . S
C968 C967 1.405 . S
C968 C969 1.383 1_545 S
C969 C968 1.383 1_565 S
C969 C970 1.393 . S
C970 H942 0.931 . S
C970 C969 1.393 . S
C970 C971 1.382 . S
C971 H941 0.929 . S
C971 C966 1.371 . S
C971 C970 1.382 . S
C972 N935 1.423 . S
C972 C973 1.362 . S
C972 C977 1.388 . S
C973 H943 0.929 . S
C973 C972 1.362 . S
C973 C974 1.376 . S
C974 H945 0.931 . S
C974 C973 1.376 . S
C974 C975 1.396 . S
C975 C974 1.396 . S
C975 C976 1.348 . S
C975 C993 1.472 . S
C976 H946 0.983 . S
C976 C975 1.348 . S
C976 C977 1.443 . S
C977 H944 0.932 1_565 S
C977 C972 1.388 . S
C977 C976 1.443 . S
C978 N958 1.433 . S
C978 C979 1.363 . S
C978 C983 1.370 1_565 S
C979 H947 0.929 . S
C979 C978 1.363 . S
C979 C980 1.385 . S
C980 H948 0.930 . S
C980 C979 1.385 . S
C980 C981 1.357 1_565 S
C981 C980 1.357 1_545 S
C981 C982 1.406 . S
C982 H949 0.929 . S
C982 C981 1.406 . S
C982 C983 1.391 . S
C983 H950 0.931 . S
C983 C978 1.370 1_545 S
C983 C982 1.391 . S
C984 N958 1.435 . S
C984 C985 1.358 1_565 S
C984 C989 1.371 . S
C985 H951 0.930 . S
C985 C984 1.358 1_545 S
C985 C986 1.405 . S
C986 H952 0.932 . S
C986 C985 1.405 . S
C986 C987 1.383 1_545 S
C987 C986 1.383 1_565 S
C987 C988 1.393 . S
C988 H953 0.931 . S
C988 C987 1.393 . S
C988 C989 1.382 . S
C989 H954 0.929 . S
C989 C984 1.371 . S
C989 C988 1.382 . S
C990 N958 1.423 . S
C990 C991 1.362 . S
C990 C995 1.388 . S
C991 H955 0.929 . S
C991 C990 1.362 . S
C991 C992 1.376 . S
C992 H956 0.931 . S
C992 C991 1.376 . S
C992 C993 1.396 . S
C993 C975 1.472 . S
C993 C992 1.396 . S
C993 C994 1.348 . S
C994 H957 0.938 . S
C994 C993 1.348 . S
C994 C995 1.443 . S
C995 H959 0.932 1_565 S
C995 C990 1.388 . S
C995 C994 1.443 . S
H996 C1023 0.929 . S
N997 C1022 1.433 . S
N997 C1028 1.435 . S
N997 C1034 1.423 . S
H998 C1024 0.930 . S
H999 C1027 0.931 . S
H1000 C1026 0.929 . S
H1001 C1029 0.930 . S
H1002 C1030 0.932 . S
H1003 C1033 0.929 . S
H1004 C1032 0.931 . S
H1005 C1035 0.929 . S
H1006 C1039 1.013 . S
H1007 C1036 0.931 . S
H1008 C1038 0.918 1_545 S
H1009 C1041 0.929 . S
H1010 C1042 0.930 . S
H1011 C1044 0.929 . S
H1012 C1045 0.992 . S
H1013 C1047 0.930 . S
H1014 C1048 0.932 . S
H1015 C1050 0.931 . S
H1016 C1051 0.929 . S
H1017 C1053 0.929 . S
H1018 C1054 0.931 . S
H1019 C1056 0.878 1_545 S
N1020 C1040 1.433 . S
N1020 C1046 1.435 . S
N1020 C1052 1.423 . S
H1021 C1057 0.958 . S
C1022 N997 1.433 . S
C1022 C1023 1.363 . S
C1022 C1027 1.370 1_565 S
C1023 H996 0.929 . S
C1023 C1022 1.363 . S
C1023 C1024 1.385 . S
C1024 H998 0.930 . S
C1024 C1023 1.385 . S
C1024 C1025 1.357 . S
C1025 C1024 1.357 . S
C1025 C1026 1.406 1_565 S
C1026 H1000 0.929 . S
C1026 C1025 1.406 1_545 S
C1026 C1027 1.391 . S
C1027 H999 0.931 . S
C1027 C1022 1.370 1_545 S
C1027 C1026 1.391 . S
C1028 N997 1.435 . S
C1028 C1029 1.358 1_565 S
C1028 C1033 1.371 . S
C1029 H1001 0.930 . S
C1029 C1028 1.358 1_545 S
C1029 C1030 1.405 . S
C1030 H1002 0.932 . S
C1030 C1029 1.405 . S
C1030 C1031 1.383 . S
C1031 C1030 1.383 . S
C1031 C1032 1.393 1_545 S
C1032 H1004 0.931 . S
C1032 C1031 1.393 1_565 S
C1032 C1033 1.382 . S
C1033 H1003 0.929 . S
C1033 C1028 1.371 . S
C1033 C1032 1.382 . S
C1034 N997 1.423 . S
C1034 C1035 1.362 . S
C1034 C1039 1.366 1_565 S
C1035 H1005 0.929 . S
C1035 C1034 1.362 . S
C1035 C1036 1.376 . S
C1036 H1007 0.931 . S
C1036 C1035 1.376 . S
C1036 C1037 1.396 . S
C1037 C1036 1.396 . S
C1037 C1038 1.398 . S
C1037 C1055 1.472 . S
C1038 H1008 0.918 1_565 S
C1038 C1037 1.398 . S
C1038 C1039 1.355 1_565 S
C1039 H1006 1.013 . S
C1039 C1034 1.366 1_545 S
C1039 C1038 1.355 1_545 S
C1040 N1020 1.433 . S
C1040 C1041 1.363 . S
C1040 C1045 1.322 1_565 S
C1041 H1009 0.929 . S
C1041 C1040 1.363 . S
C1041 C1042 1.385 . S
C1042 H1010 0.930 . S
C1042 C1041 1.385 . S
C1042 C1043 1.357 . S
C1043 C1042 1.357 . S
C1043 C1044 1.406 1_565 S
C1044 H1011 0.929 . S
C1044 C1043 1.406 1_545 S
C1044 C1045 1.382 . S
C1045 H1012 0.992 . S
C1045 C1040 1.322 1_545 S
C1045 C1044 1.382 . S
C1046 N1020 1.435 . S
C1046 C1047 1.358 1_565 S
C1046 C1051 1.371 . S
C1047 H1013 0.930 . S
C1047 C1046 1.358 1_545 S
C1047 C1048 1.405 . S
C1048 H1014 0.932 . S
C1048 C1047 1.405 . S
C1048 C1049 1.383 . S
C1049 C1048 1.383 . S
C1049 C1050 1.393 1_545 S
C1050 H1015 0.931 . S
C1050 C1049 1.393 1_565 S
C1050 C1051 1.382 . S
C1051 H1016 0.929 . S
C1051 C1046 1.371 . S
C1051 C1050 1.382 . S
C1052 N1020 1.423 . S
C1052 C1053 1.362 . S
C1052 C1057 1.336 1_565 S
C1053 H1017 0.929 . S
C1053 C1052 1.362 . S
C1053 C1054 1.376 . S
C1054 H1018 0.931 . S
C1054 C1053 1.376 . S
C1054 C1055 1.396 . S
C1055 C1037 1.472 . S
C1055 C1054 1.396 . S
C1055 C1056 1.369 . S
C1056 H1019 0.878 1_565 S
C1056 C1055 1.369 . S
C1056 C1057 1.509 1_565 S
C1057 H1021 0.958 . S
C1057 C1052 1.336 1_545 S
C1057 C1056 1.509 1_545 S
H1058 C1085 0.929 . S
N1059 C1084 1.433 . S
N1059 C1090 1.435 . S
N1059 C1096 1.423 . S
H1060 C1086 0.930 . S
H1061 C1089 0.931 . S
H1062 C1088 0.929 . S
H1063 C1091 0.930 . S
H1064 C1092 0.932 . S
H1065 C1095 0.929 . S
H1066 C1094 0.931 . S
H1067 C1097 0.929 . S
H1068 C1101 0.932 1_455 S
H1069 C1098 0.931 . S
H1070 C1100 0.976 . S
H1071 C1103 0.929 . S
H1072 C1104 0.930 . S
H1073 C1106 0.929 . S
H1074 C1107 0.931 . S
H1075 C1109 0.930 . S
H1076 C1110 0.932 . S
H1077 C1112 0.931 . S
H1078 C1113 0.929 . S
H1079 C1115 0.929 . S
H1080 C1116 0.931 . S
H1081 C1118 0.938 . S
N1082 C1102 1.433 . S
N1082 C1108 1.435 . S
N1082 C1114 1.423 . S
H1083 C1119 0.932 1_455 S
C1084 N1059 1.433 . S
C1084 C1085 1.363 . S
C1084 C1089 1.370 1_655 S
C1085 H1058 0.929 . S
C1085 C1084 1.363 . S
C1085 C1086 1.385 . S
C1086 H1060 0.930 . S
C1086 C1085 1.385 . S
C1086 C1087 1.357 1_655 S
C1087 C1086 1.357 1_455 S
C1087 C1088 1.406 . S
C1088 H1062 0.929 . S
C1088 C1087 1.406 . S
C1088 C1089 1.391 . S
C1089 H1061 0.931 . S
C1089 C1084 1.370 1_455 S
C1089 C1088 1.391 . S
C1090 N1059 1.435 . S
C1090 C1091 1.358 1_655 S
C1090 C1095 1.371 . S
C1091 H1063 0.930 . S
C1091 C1090 1.358 1_455 S
C1091 C1092 1.405 . S
C1092 H1064 0.932 . S
C1092 C1091 1.405 . S
C1092 C1093 1.383 1_455 S
C1093 C1092 1.383 1_655 S
C1093 C1094 1.393 . S
C1094 H1066 0.931 . S
C1094 C1093 1.393 . S
C1094 C1095 1.382 . S
C1095 H1065 0.929 . S
C1095 C1090 1.371 . S
C1095 C1094 1.382 . S
C1096 N1059 1.423 . S
C1096 C1097 1.362 . S
C1096 C1101 1.388 . S
C1097 H1067 0.929 . S
C1097 C1096 1.362 . S
C1097 C1098 1.376 . S
C1098 H1069 0.931 . S
C1098 C1097 1.376 . S
C1098 C1099 1.396 . S
C1099 C1098 1.396 . S
C1099 C1100 1.348 . S
C1099 C1117 1.472 . S
C1100 H1070 0.976 . S
C1100 C1099 1.348 . S
C1100 C1101 1.443 . S
C1101 H1068 0.932 1_655 S
C1101 C1096 1.388 . S
C1101 C1100 1.443 . S
C1102 N1082 1.433 . S
C1102 C1103 1.363 . S
C1102 C1107 1.370 1_655 S
C1103 H1071 0.929 . S
C1103 C1102 1.363 . S
C1103 C1104 1.385 . S
C1104 H1072 0.930 . S
C1104 C1103 1.385 . S
C1104 C1105 1.357 1_655 S
C1105 C1104 1.357 1_455 S
C1105 C1106 1.406 . S
C1106 H1073 0.929 . S
C1106 C1105 1.406 . S
C1106 C1107 1.391 . S
C1107 H1074 0.931 . S
C1107 C1102 1.370 1_455 S
C1107 C1106 1.391 . S
C1108 N1082 1.435 . S
C1108 C1109 1.358 1_655 S
C1108 C1113 1.371 . S
C1109 H1075 0.930 . S
C1109 C1108 1.358 1_455 S
C1109 C1110 1.405 . S
C1110 H1076 0.932 . S
C1110 C1109 1.405 . S
C1110 C1111 1.383 1_455 S
C1111 C1110 1.383 1_655 S
C1111 C1112 1.393 . S
C1112 H1077 0.931 . S
C1112 C1111 1.393 . S
C1112 C1113 1.382 . S
C1113 H1078 0.929 . S
C1113 C1108 1.371 . S
C1113 C1112 1.382 . S
C1114 N1082 1.423 . S
C1114 C1115 1.362 . S
C1114 C1119 1.388 . S
C1115 H1079 0.929 . S
C1115 C1114 1.362 . S
C1115 C1116 1.376 . S
C1116 H1080 0.931 . S
C1116 C1115 1.376 . S
C1116 C1117 1.396 . S
C1117 C1099 1.472 . S
C1117 C1116 1.396 . S
C1117 C1118 1.348 . S
C1118 H1081 0.938 . S
C1118 C1117 1.348 . S
C1118 C1119 1.443 . S
C1119 H1083 0.932 1_655 S
C1119 C1114 1.388 . S
C1119 C1118 1.443 . S
H1120 C1147 0.929 . S
N1121 C1146 1.433 . S
N1121 C1152 1.435 . S
N1121 C1158 1.423 . S
H1122 C1148 0.930 . S
H1123 C1151 0.931 . S
H1124 C1150 0.929 . S
H1125 C1153 0.930 . S
H1126 C1154 0.932 . S
H1127 C1157 0.929 . S
H1128 C1156 0.931 . S
H1129 C1159 0.929 . S
H1130 C1163 0.932 . S
H1131 C1160 0.931 . S
H1132 C1162 0.929 . S
H1133 C1165 0.929 . S
H1134 C1166 0.930 . S
H1135 C1168 0.929 . S
H1136 C1169 0.931 . S
H1137 C1171 0.930 . S
H1138 C1172 0.932 . S
H1139 C1174 0.931 . S
H1140 C1175 0.929 . S
H1141 C1177 0.929 . S
H1142 C1178 0.931 . S
H1143 C1180 0.929 . S
N1144 C1164 1.433 . S
N1144 C1170 1.435 . S
N1144 C1176 1.423 . S
H1145 C1181 0.932 . S
C1146 N1121 1.433 . S
C1146 C1147 1.363 . S
C1146 C1151 1.370 . S
C1147 H1120 0.929 . S
C1147 C1146 1.363 . S
C1147 C1148 1.385 . S
C1148 H1122 0.930 . S
C1148 C1147 1.385 . S
C1148 C1149 1.357 . S
C1149 C1148 1.357 . S
C1149 C1150 1.406 . S
C1150 H1124 0.929 . S
C1150 C1149 1.406 . S
C1150 C1151 1.391 . S
C1151 H1123 0.931 . S
C1151 C1146 1.370 . S
C1151 C1150 1.391 . S
C1152 N1121 1.435 . S
C1152 C1153 1.358 . S
C1152 C1157 1.371 . S
C1153 H1125 0.930 . S
C1153 C1152 1.358 . S
C1153 C1154 1.405 . S
C1154 H1126 0.932 . S
C1154 C1153 1.405 . S
C1154 C1155 1.383 . S
C1155 C1154 1.383 . S
C1155 C1156 1.393 . S
C1156 H1128 0.931 . S
C1156 C1155 1.393 . S
C1156 C1157 1.382 . S
C1157 H1127 0.929 . S
C1157 C1152 1.371 . S
C1157 C1156 1.382 . S
C1158 N1121 1.423 . S
C1158 C1159 1.362 . S
C1158 C1163 1.388 . S
C1159 H1129 0.929 . S
C1159 C1158 1.362 . S
C1159 C1160 1.376 . S
C1160 H1131 0.931 . S
C1160 C1159 1.376 . S
C1160 C1161 1.396 . S
C1161 C1160 1.396 . S
C1161 C1162 1.348 . S
C1161 C1179 1.472 . S
C1162 H1132 0.929 . S
C1162 C1161 1.348 . S
C1162 C1163 1.443 . S
C1163 H1130 0.932 . S
C1163 C1158 1.388 . S
C1163 C1162 1.443 . S
C1164 N1144 1.433 . S
C1164 C1165 1.363 . S
C1164 C1169 1.370 . S
C1165 H1133 0.929 . S
C1165 C1164 1.363 . S
C1165 C1166 1.385 . S
C1166 H1134 0.930 . S
C1166 C1165 1.385 . S
C1166 C1167 1.357 . S
C1167 C1166 1.357 . S
C1167 C1168 1.406 . S
C1168 H1135 0.929 . S
C1168 C1167 1.406 . S
C1168 C1169 1.391 . S
C1169 H1136 0.931 . S
C1169 C1164 1.370 . S
C1169 C1168 1.391 . S
C1170 N1144 1.435 . S
C1170 C1171 1.358 . S
C1170 C1175 1.371 . S
C1171 H1137 0.930 . S
C1171 C1170 1.358 . S
C1171 C1172 1.405 . S
C1172 H1138 0.932 . S
C1172 C1171 1.405 . S
C1172 C1173 1.383 . S
C1173 C1172 1.383 . S
C1173 C1174 1.393 . S
C1174 H1139 0.931 . S
C1174 C1173 1.393 . S
C1174 C1175 1.382 . S
C1175 H1140 0.929 . S
C1175 C1170 1.371 . S
C1175 C1174 1.382 . S
C1176 N1144 1.423 . S
C1176 C1177 1.362 . S
C1176 C1181 1.388 . S
C1177 H1141 0.929 . S
C1177 C1176 1.362 . S
C1177 C1178 1.376 . S
C1178 H1142 0.931 . S
C1178 C1177 1.376 . S
C1178 C1179 1.396 . S
C1179 C1161 1.472 . S
C1179 C1178 1.396 . S
C1179 C1180 1.348 . S
C1180 H1143 0.929 . S
C1180 C1179 1.348 . S
C1180 C1181 1.443 . S
C1181 H1145 0.932 . S
C1181 C1176 1.388 . S
C1181 C1180 1.443 . S
H1182 C1209 0.929 . S
N1183 C1208 1.433 . S
N1183 C1214 1.435 . S
N1183 C1220 1.423 . S
H1184 C1210 0.930 . S
H1185 C1213 0.931 . S
H1186 C1212 0.929 . S
H1187 C1215 0.930 . S
H1188 C1216 0.932 . S
H1189 C1219 0.929 . S
H1190 C1218 0.931 . S
H1191 C1221 0.929 . S
H1192 C1225 0.932 . S
H1193 C1222 0.931 . S
H1194 C1224 0.929 . S
H1195 C1227 0.929 . S
H1196 C1228 0.930 . S
H1197 C1230 0.929 . S
H1198 C1231 0.931 . S
H1199 C1233 0.930 . S
H1200 C1234 0.932 . S
H1201 C1236 0.931 . S
H1202 C1237 0.929 . S
H1203 C1239 0.929 . S
H1204 C1240 0.931 . S
H1205 C1242 0.929 . S
N1206 C1226 1.433 . S
N1206 C1232 1.435 . S
N1206 C1238 1.423 . S
H1207 C1243 0.932 . S
C1208 N1183 1.433 . S
C1208 C1209 1.363 . S
C1208 C1213 1.370 . S
C1209 H1182 0.929 . S
C1209 C1208 1.363 . S
C1209 C1210 1.385 . S
C1210 H1184 0.930 . S
C1210 C1209 1.385 . S
C1210 C1211 1.357 . S
C1211 C1210 1.357 . S
C1211 C1212 1.406 . S
C1212 H1186 0.929 . S
C1212 C1211 1.406 . S
C1212 C1213 1.391 . S
C1213 H1185 0.931 . S
C1213 C1208 1.370 . S
C1213 C1212 1.391 . S
C1214 N1183 1.435 . S
C1214 C1215 1.358 . S
C1214 C1219 1.371 . S
C1215 H1187 0.930 . S
C1215 C1214 1.358 . S
C1215 C1216 1.405 . S
C1216 H1188 0.932 . S
C1216 C1215 1.405 . S
C1216 C1217 1.383 . S
C1217 C1216 1.383 . S
C1217 C1218 1.393 . S
C1218 H1190 0.931 . S
C1218 C1217 1.393 . S
C1218 C1219 1.382 . S
C1219 H1189 0.929 . S
C1219 C1214 1.371 . S
C1219 C1218 1.382 . S
C1220 N1183 1.423 . S
C1220 C1221 1.362 . S
C1220 C1225 1.388 . S
C1221 H1191 0.929 . S
C1221 C1220 1.362 . S
C1221 C1222 1.376 . S
C1222 H1193 0.931 . S
C1222 C1221 1.376 . S
C1222 C1223 1.396 . S
C1223 C1222 1.396 . S
C1223 C1224 1.348 . S
C1223 C1241 1.472 . S
C1224 H1194 0.929 . S
C1224 C1223 1.348 . S
C1224 C1225 1.443 . S
C1225 H1192 0.932 . S
C1225 C1220 1.388 . S
C1225 C1224 1.443 . S
C1226 N1206 1.433 . S
C1226 C1227 1.363 . S
C1226 C1231 1.370 . S
C1227 H1195 0.929 . S
C1227 C1226 1.363 . S
C1227 C1228 1.385 . S
C1228 H1196 0.930 . S
C1228 C1227 1.385 . S
C1228 C1229 1.357 . S
C1229 C1228 1.357 . S
C1229 C1230 1.406 . S
C1230 H1197 0.929 . S
C1230 C1229 1.406 . S
C1230 C1231 1.391 . S
C1231 H1198 0.931 . S
C1231 C1226 1.370 . S
C1231 C1230 1.391 . S
C1232 N1206 1.435 . S
C1232 C1233 1.358 . S
C1232 C1237 1.371 . S
C1233 H1199 0.930 . S
C1233 C1232 1.358 . S
C1233 C1234 1.405 . S
C1234 H1200 0.932 . S
C1234 C1233 1.405 . S
C1234 C1235 1.383 . S
C1235 C1234 1.383 . S
C1235 C1236 1.393 . S
C1236 H1201 0.931 . S
C1236 C1235 1.393 . S
C1236 C1237 1.382 . S
C1237 H1202 0.929 . S
C1237 C1232 1.371 . S
C1237 C1236 1.382 . S
C1238 N1206 1.423 . S
C1238 C1239 1.362 . S
C1238 C1243 1.388 . S
C1239 H1203 0.929 . S
C1239 C1238 1.362 . S
C1239 C1240 1.376 . S
C1240 H1204 0.931 . S
C1240 C1239 1.376 . S
C1240 C1241 1.396 . S
C1241 C1223 1.472 . S
C1241 C1240 1.396 . S
C1241 C1242 1.348 . S
C1242 H1205 0.929 . S
C1242 C1241 1.348 . S
C1242 C1243 1.443 . S
C1243 H1207 0.932 . S
C1243 C1238 1.388 . S
C1243 C1242 1.443 . S
H1244 C1271 0.929 . S
N1245 C1270 1.433 . S
N1245 C1276 1.435 . S
N1245 C1282 1.423 . S
H1246 C1272 0.930 . S
H1247 C1275 0.931 . S
H1248 C1274 0.929 . S
H1249 C1277 0.930 . S
H1250 C1278 0.932 . S
H1251 C1281 0.929 . S
H1252 C1280 0.931 . S
H1253 C1283 0.929 . S
H1254 C1287 0.932 . S
H1255 C1284 0.931 . S
H1256 C1286 0.929 . S
H1257 C1289 0.929 . S
H1258 C1290 0.930 . S
H1259 C1292 0.929 . S
H1260 C1293 0.931 . S
H1261 C1295 0.930 . S
H1262 C1296 0.932 . S
H1263 C1298 0.931 . S
H1264 C1299 0.929 . S
H1265 C1301 0.929 . S
H1266 C1302 0.931 . S
H1267 C1304 0.929 . S
N1268 C1288 1.433 . S
N1268 C1294 1.435 . S
N1268 C1300 1.423 . S
H1269 C1305 0.932 . S
C1270 N1245 1.433 . S
C1270 C1271 1.363 . S
C1270 C1275 1.370 . S
C1271 H1244 0.929 . S
C1271 C1270 1.363 . S
C1271 C1272 1.385 . S
C1272 H1246 0.930 . S
C1272 C1271 1.385 . S
C1272 C1273 1.357 . S
C1273 C1272 1.357 . S
C1273 C1274 1.406 . S
C1274 H1248 0.929 . S
C1274 C1273 1.406 . S
C1274 C1275 1.391 . S
C1275 H1247 0.931 . S
C1275 C1270 1.370 . S
C1275 C1274 1.391 . S
C1276 N1245 1.435 . S
C1276 C1277 1.358 . S
C1276 C1281 1.371 . S
C1277 H1249 0.930 . S
C1277 C1276 1.358 . S
C1277 C1278 1.405 . S
C1278 H1250 0.932 . S
C1278 C1277 1.405 . S
C1278 C1279 1.383 . S
C1279 C1278 1.383 . S
C1279 C1280 1.393 . S
C1280 H1252 0.931 . S
C1280 C1279 1.393 . S
C1280 C1281 1.382 . S
C1281 H1251 0.929 . S
C1281 C1276 1.371 . S
C1281 C1280 1.382 . S
C1282 N1245 1.423 . S
C1282 C1283 1.362 . S
C1282 C1287 1.388 . S
C1283 H1253 0.929 . S
C1283 C1282 1.362 . S
C1283 C1284 1.376 . S
C1284 H1255 0.931 . S
C1284 C1283 1.376 . S
C1284 C1285 1.396 . S
C1285 C1284 1.396 . S
C1285 C1286 1.348 . S
C1285 C1303 1.472 . S
C1286 H1256 0.929 . S
C1286 C1285 1.348 . S
C1286 C1287 1.443 . S
C1287 H1254 0.932 . S
C1287 C1282 1.388 . S
C1287 C1286 1.443 . S
C1288 N1268 1.433 . S
C1288 C1289 1.363 . S
C1288 C1293 1.370 . S
C1289 H1257 0.929 . S
C1289 C1288 1.363 . S
C1289 C1290 1.385 . S
C1290 H1258 0.930 . S
C1290 C1289 1.385 . S
C1290 C1291 1.357 . S
C1291 C1290 1.357 . S
C1291 C1292 1.406 . S
C1292 H1259 0.929 . S
C1292 C1291 1.406 . S
C1292 C1293 1.391 . S
C1293 H1260 0.931 . S
C1293 C1288 1.370 . S
C1293 C1292 1.391 . S
C1294 N1268 1.435 . S
C1294 C1295 1.358 . S
C1294 C1299 1.371 . S
C1295 H1261 0.930 . S
C1295 C1294 1.358 . S
C1295 C1296 1.405 . S
C1296 H1262 0.932 . S
C1296 C1295 1.405 . S
C1296 C1297 1.383 . S
C1297 C1296 1.383 . S
C1297 C1298 1.393 . S
C1298 H1263 0.931 . S
C1298 C1297 1.393 . S
C1298 C1299 1.382 . S
C1299 H1264 0.929 . S
C1299 C1294 1.371 . S
C1299 C1298 1.382 . S
C1300 N1268 1.423 . S
C1300 C1301 1.362 . S
C1300 C1305 1.388 . S
C1301 H1265 0.929 . S
C1301 C1300 1.362 . S
C1301 C1302 1.376 . S
C1302 H1266 0.931 . S
C1302 C1301 1.376 . S
C1302 C1303 1.396 . S
C1303 C1285 1.472 . S
C1303 C1302 1.396 . S
C1303 C1304 1.348 . S
C1304 H1267 0.929 . S
C1304 C1303 1.348 . S
C1304 C1305 1.443 . S
C1305 H1269 0.932 . S
C1305 C1300 1.388 . S
C1305 C1304 1.443 . S
H1306 C1333 0.929 . S
N1307 C1332 1.433 . S
N1307 C1338 1.435 . S
N1307 C1344 1.423 . S
H1308 C1334 0.930 . S
H1309 C1337 0.931 . S
H1310 C1336 0.929 . S
H1311 C1339 0.930 . S
H1312 C1340 0.932 . S
H1313 C1343 0.929 . S
H1314 C1342 0.931 . S
H1315 C1345 0.929 . S
H1316 C1349 0.932 . S
H1317 C1346 0.931 . S
H1318 C1348 0.929 . S
H1319 C1351 0.929 . S
H1320 C1352 0.930 . S
H1321 C1354 0.929 . S
H1322 C1355 0.931 . S
H1323 C1357 0.930 . S
H1324 C1358 0.932 . S
H1325 C1360 0.931 . S
H1326 C1361 0.929 . S
H1327 C1363 0.929 . S
H1328 C1364 0.931 . S
H1329 C1366 0.929 . S
N1330 C1350 1.433 . S
N1330 C1356 1.435 . S
N1330 C1362 1.423 . S
H1331 C1367 0.932 . S
C1332 N1307 1.433 . S
C1332 C1333 1.363 . S
C1332 C1337 1.370 . S
C1333 H1306 0.929 . S
C1333 C1332 1.363 . S
C1333 C1334 1.385 . S
C1334 H1308 0.930 . S
C1334 C1333 1.385 . S
C1334 C1335 1.357 . S
C1335 C1334 1.357 . S
C1335 C1336 1.406 . S
C1336 H1310 0.929 . S
C1336 C1335 1.406 . S
C1336 C1337 1.391 . S
C1337 H1309 0.931 . S
C1337 C1332 1.370 . S
C1337 C1336 1.391 . S
C1338 N1307 1.435 . S
C1338 C1339 1.358 . S
C1338 C1343 1.371 . S
C1339 H1311 0.930 . S
C1339 C1338 1.358 . S
C1339 C1340 1.405 . S
C1340 H1312 0.932 . S
C1340 C1339 1.405 . S
C1340 C1341 1.383 . S
C1341 C1340 1.383 . S
C1341 C1342 1.393 . S
C1342 H1314 0.931 . S
C1342 C1341 1.393 . S
C1342 C1343 1.382 . S
C1343 H1313 0.929 . S
C1343 C1338 1.371 . S
C1343 C1342 1.382 . S
C1344 N1307 1.423 . S
C1344 C1345 1.362 . S
C1344 C1349 1.388 . S
C1345 H1315 0.929 . S
C1345 C1344 1.362 . S
C1345 C1346 1.376 . S
C1346 H1317 0.931 . S
C1346 C1345 1.376 . S
C1346 C1347 1.396 . S
C1347 C1346 1.396 . S
C1347 C1348 1.348 . S
C1347 C1365 1.472 . S
C1348 H1318 0.929 . S
C1348 C1347 1.348 . S
C1348 C1349 1.443 . S
C1349 H1316 0.932 . S
C1349 C1344 1.388 . S
C1349 C1348 1.443 . S
C1350 N1330 1.433 . S
C1350 C1351 1.363 . S
C1350 C1355 1.370 . S
C1351 H1319 0.929 . S
C1351 C1350 1.363 . S
C1351 C1352 1.385 . S
C1352 H1320 0.930 . S
C1352 C1351 1.385 . S
C1352 C1353 1.357 . S
C1353 C1352 1.357 . S
C1353 C1354 1.406 . S
C1354 H1321 0.929 . S
C1354 C1353 1.406 . S
C1354 C1355 1.391 . S
C1355 H1322 0.931 . S
C1355 C1350 1.370 . S
C1355 C1354 1.391 . S
C1356 N1330 1.435 . S
C1356 C1357 1.358 . S
C1356 C1361 1.371 . S
C1357 H1323 0.930 . S
C1357 C1356 1.358 . S
C1357 C1358 1.405 . S
C1358 H1324 0.932 . S
C1358 C1357 1.405 . S
C1358 C1359 1.383 . S
C1359 C1358 1.383 . S
C1359 C1360 1.393 . S
C1360 H1325 0.931 . S
C1360 C1359 1.393 . S
C1360 C1361 1.382 . S
C1361 H1326 0.929 . S
C1361 C1356 1.371 . S
C1361 C1360 1.382 . S
C1362 N1330 1.423 . S
C1362 C1363 1.362 . S
C1362 C1367 1.388 . S
C1363 H1327 0.929 . S
C1363 C1362 1.362 . S
C1363 C1364 1.376 . S
C1364 H1328 0.931 . S
C1364 C1363 1.376 . S
C1364 C1365 1.396 . S
C1365 C1347 1.472 . S
C1365 C1364 1.396 . S
C1365 C1366 1.348 . S
C1366 H1329 0.929 . S
C1366 C1365 1.348 . S
C1366 C1367 1.443 . S
C1367 H1331 0.932 . S
C1367 C1362 1.388 . S
C1367 C1366 1.443 . S
H1368 C1374 0.930 . S
H1369 C1378 0.930 . S
H1370 C1383 0.929 . S
H1371 C1381 0.929 . S
H1372 C1376 0.929 . S
H1373 C1382 0.929 . S
C1374 H1368 0.930 . S
C1374 C1375 1.456 . S
C1374 C1382 1.378 . S
C1375 C1374 1.456 . S
C1375 C1383 1.380 1_655 S
C1376 H1372 0.929 . S
C1376 C1378 1.378 . S
C1376 C1380 1.350 1_455 S
C1377 C1380 1.463 . S
C1377 C1382 1.350 . S
C1377 N1385 1.427 1_655 S
C1378 H1369 0.930 . S
C1378 C1376 1.378 . S
C1378 C1379 1.367 1_455 S
C1379 C1378 1.367 1_655 S
C1379 C1381 1.433 . S
C1380 C1376 1.350 1_655 S
C1380 C1377 1.463 . S
C1380 N1384 1.427 . S
C1381 H1371 0.929 . S
C1381 C1379 1.433 . S
C1381 N1384 1.384 . S
C1382 H1373 0.929 . S
C1382 C1374 1.378 . S
C1382 C1377 1.350 . S
C1383 H1370 0.929 . S
C1383 C1375 1.380 1_455 S
C1383 N1385 1.384 . S
N1384 C1380 1.427 . S
N1384 C1381 1.384 . S
N1385 C1377 1.427 1_455 S
N1385 C1383 1.384 . S
H1386 C1392 0.930 . S
H1387 C1396 0.930 . S
H1388 C1401 0.929 . S
H1389 C1399 0.929 . S
H1390 C1394 0.929 . S
H1391 C1400 0.929 . S
C1392 H1386 0.930 . S
C1392 C1393 1.367 . S
C1392 C1400 1.378 . S
C1393 C1392 1.367 . S
C1393 C1401 1.433 . S
C1394 H1390 0.929 . S
C1394 C1396 1.378 . S
C1394 C1398 1.350 . S
C1395 C1398 1.463 . S
C1395 C1400 1.350 . S
C1395 N1403 1.427 . S
C1396 H1387 0.930 . S
C1396 C1394 1.378 . S
C1396 C1397 1.367 . S
C1397 C1396 1.367 . S
C1397 C1399 1.433 . S
C1398 C1394 1.350 . S
C1398 C1395 1.463 . S
C1398 N1402 1.427 . S
C1399 H1389 0.929 . S
C1399 C1397 1.433 . S
C1399 N1402 1.384 . S
C1400 H1391 0.929 . S
C1400 C1392 1.378 . S
C1400 C1395 1.350 . S
C1401 H1388 0.929 . S
C1401 C1393 1.433 . S
C1401 N1403 1.384 . S
N1402 C1398 1.427 . S
N1402 C1399 1.384 . S
N1403 C1395 1.427 . S
N1403 C1401 1.384 . S
H1404 C1410 0.930 . S
H1405 C1414 0.930 . S
H1406 C1419 0.929 . S
H1407 C1417 0.929 . S
H1408 C1412 0.929 . S
H1409 C1418 0.929 . S
C1410 H1404 0.930 . S
C1410 C1411 1.367 1_565 S
C1410 C1418 1.378 . S
C1411 C1410 1.367 1_545 S
C1411 C1419 1.433 . S
C1412 H1408 0.929 . S
C1412 C1414 1.378 . S
C1412 C1416 1.350 . S
C1413 C1416 1.463 . S
C1413 C1418 1.350 1_545 S
C1413 N1421 1.427 . S
C1414 H1405 0.930 . S
C1414 C1412 1.378 . S
C1414 C1415 1.367 . S
C1415 C1414 1.367 . S
C1415 C1417 1.433 1_545 S
C1416 C1412 1.350 . S
C1416 C1413 1.463 . S
C1416 N1420 1.427 1_545 S
C1417 H1407 0.929 . S
C1417 C1415 1.433 1_565 S
C1417 N1420 1.384 . S
C1418 H1409 0.929 . S
C1418 C1410 1.378 . S
C1418 C1413 1.350 1_565 S
C1419 H1406 0.929 . S
C1419 C1411 1.433 . S
C1419 N1421 1.384 . S
N1420 C1416 1.427 1_565 S
N1420 C1417 1.384 . S
N1421 C1413 1.427 . S
N1421 C1419 1.384 . S
H1422 C1428 0.930 . S
H1423 C1432 0.930 . S
H1424 C1437 0.929 . S
H1425 C1435 0.929 . S
H1426 C1430 0.929 . S
H1427 C1436 0.929 . S
C1428 H1422 0.930 . S
C1428 C1429 1.369 1_565 S
C1428 C1436 1.378 . S
C1429 C1428 1.369 1_545 S
C1429 C1437 1.432 . S
C1430 H1426 0.929 . S
C1430 C1432 1.378 . S
C1430 C1434 1.350 1_545 S
C1431 C1434 1.463 . S
C1431 C1436 1.350 . S
C1431 N1439 1.427 1_565 S
C1432 H1423 0.930 . S
C1432 C1430 1.378 . S
C1432 C1433 1.367 1_545 S
C1433 C1432 1.367 1_565 S
C1433 C1435 1.433 . S
C1434 C1430 1.350 1_565 S
C1434 C1431 1.463 . S
C1434 N1438 1.427 . S
C1435 H1425 0.929 . S
C1435 C1433 1.433 . S
C1435 N1438 1.384 . S
C1436 H1427 0.929 . S
C1436 C1428 1.378 . S
C1436 C1431 1.350 . S
C1437 H1424 0.929 . S
C1437 C1429 1.432 . S
C1437 N1439 1.384 . S
N1438 C1434 1.427 . S
N1438 C1435 1.384 . S
N1439 C1431 1.427 1_545 S
N1439 C1437 1.384 . S
H1440 C1446 0.930 . S
H1441 C1450 0.930 . S
H1442 C1455 0.929 . S
H1443 C1453 0.929 . S
H1444 C1448 0.929 . S
H1445 C1454 0.929 . S
C1446 H1440 0.930 . S
C1446 C1447 1.367 . S
C1446 C1454 1.378 . S
C1447 C1446 1.367 . S
C1447 C1455 1.433 1_455 S
C1448 H1444 0.929 . S
C1448 C1450 1.378 . S
C1448 C1452 1.350 1_655 S
C1449 C1452 1.463 . S
C1449 C1454 1.350 . S
C1449 N1457 1.427 1_455 S
C1450 H1441 0.930 . S
C1450 C1448 1.378 . S
C1450 C1451 1.367 1_655 S
C1451 C1450 1.367 1_455 S
C1451 C1453 1.433 . S
C1452 C1448 1.350 1_455 S
C1452 C1449 1.463 . S
C1452 N1456 1.427 . S
C1453 H1443 0.929 . S
C1453 C1451 1.433 . S
C1453 N1456 1.384 . S
C1454 H1445 0.929 . S
C1454 C1446 1.378 . S
C1454 C1449 1.350 . S
C1455 H1442 0.929 . S
C1455 C1447 1.433 1_655 S
C1455 N1457 1.384 . S
N1456 C1452 1.427 . S
N1456 C1453 1.384 . S
N1457 C1449 1.427 1_655 S
N1457 C1455 1.384 . S
H1458 C1464 0.930 . S
H1459 C1468 0.930 . S
H1460 C1473 0.929 . S
H1461 C1471 0.929 . S
H1462 C1466 0.929 . S
H1463 C1472 0.929 . S
C1464 H1458 0.930 . S
C1464 C1465 1.367 . S
C1464 C1472 1.378 . S
C1465 C1464 1.367 . S
C1465 C1473 1.433 . S
C1466 H1462 0.929 . S
C1466 C1468 1.378 . S
C1466 C1470 1.350 . S
C1467 C1470 1.463 . S
C1467 C1472 1.350 . S
C1467 N1475 1.427 . S
C1468 H1459 0.930 . S
C1468 C1466 1.378 . S
C1468 C1469 1.367 . S
C1469 C1468 1.367 . S
C1469 C1471 1.433 . S
C1470 C1466 1.350 . S
C1470 C1467 1.463 . S
C1470 N1474 1.427 . S
C1471 H1461 0.929 . S
C1471 C1469 1.433 . S
C1471 N1474 1.384 . S
C1472 H1463 0.929 . S
C1472 C1464 1.378 . S
C1472 C1467 1.350 . S
C1473 H1460 0.929 . S
C1473 C1465 1.433 . S
C1473 N1475 1.384 . S
N1474 C1470 1.427 . S
N1474 C1471 1.384 . S
N1475 C1467 1.427 . S
N1475 C1473 1.384 . S
H1476 C1482 0.930 . S
H1477 C1486 0.930 . S
H1478 C1491 0.929 . S
H1479 C1489 0.929 . S
H1480 C1484 0.929 . S
H1481 C1490 0.929 . S
C1482 H1476 0.930 . S
C1482 C1483 1.367 1_655 S
C1482 C1490 1.378 . S
C1483 C1482 1.367 1_455 S
C1483 C1491 1.433 . S
C1484 H1480 0.929 . S
C1484 C1486 1.378 . S
C1484 C1488 1.350 . S
C1485 C1488 1.463 . S
C1485 C1490 1.350 1_455 S
C1485 N1493 1.427 . S
C1486 H1477 0.930 . S
C1486 C1484 1.378 . S
C1486 C1487 1.367 . S
C1487 C1486 1.367 . S
C1487 C1489 1.433 1_455 S
C1488 C1484 1.350 . S
C1488 C1485 1.463 . S
C1488 N1492 1.427 1_455 S
C1489 H1479 0.929 . S
C1489 C1487 1.433 1_655 S
C1489 N1492 1.384 . S
C1490 H1481 0.929 . S
C1490 C1482 1.378 . S
C1490 C1485 1.350 1_655 S
C1491 H1478 0.929 . S
C1491 C1483 1.433 . S
C1491 N1493 1.384 . S
N1492 C1488 1.427 1_655 S
N1492 C1489 1.384 . S
N1493 C1485 1.427 . S
N1493 C1491 1.384 . S
H1494 C1500 0.930 . S
H1495 C1504 0.930 . S
H1496 C1509 0.929 . S
H1497 C1507 0.929 . S
H1498 C1502 0.929 . S
H1499 C1508 0.929 . S
C1500 H1494 0.930 . S
C1500 C1501 1.367 . S
C1500 C1508 1.378 . S
C1501 C1500 1.367 . S
C1501 C1509 1.433 . S
C1502 H1498 0.929 . S
C1502 C1504 1.378 . S
C1502 C1506 1.350 . S
C1503 C1506 1.463 . S
C1503 C1508 1.350 . S
C1503 N1511 1.427 . S
C1504 H1495 0.930 . S
C1504 C1502 1.378 . S
C1504 C1505 1.367 . S
C1505 C1504 1.367 . S
C1505 C1507 1.433 . S
C1506 C1502 1.350 . S
C1506 C1503 1.463 . S
C1506 N1510 1.427 . S
C1507 H1497 0.929 . S
C1507 C1505 1.433 . S
C1507 N1510 1.384 . S
C1508 H1499 0.929 . S
C1508 C1500 1.378 . S
C1508 C1503 1.350 . S
C1509 H1496 0.929 . S
C1509 C1501 1.433 . S
C1509 N1511 1.384 . S
N1510 C1506 1.427 . S
N1510 C1507 1.384 . S
N1511 C1503 1.427 . S
N1511 C1509 1.384 . S
H1512 C1518 0.930 . S
H1513 C1522 0.930 . S
H1514 C1527 0.929 . S
H1515 C1525 0.929 . S
H1516 C1520 0.929 . S
H1517 C1526 0.929 . S
C1518 H1512 0.930 . S
C1518 C1519 1.367 . S
C1518 C1526 1.378 . S
C1519 C1518 1.367 . S
C1519 C1527 1.433 1_565 S
C1520 H1516 0.929 . S
C1520 C1522 1.378 . S
C1520 C1524 1.350 1_545 S
C1521 C1524 1.463 . S
C1521 C1526 1.350 . S
C1521 N1529 1.427 1_565 S
C1522 H1513 0.930 . S
C1522 C1520 1.378 . S
C1522 C1523 1.367 1_545 S
C1523 C1522 1.367 1_565 S
C1523 C1525 1.433 . S
C1524 C1520 1.350 1_565 S
C1524 C1521 1.463 . S
C1524 N1528 1.427 . S
C1525 H1515 0.929 . S
C1525 C1523 1.433 . S
C1525 N1528 1.384 . S
C1526 H1517 0.929 . S
C1526 C1518 1.378 . S
C1526 C1521 1.350 . S
C1527 H1514 0.929 . S
C1527 C1519 1.433 1_545 S
C1527 N1529 1.384 . S
N1528 C1524 1.427 . S
N1528 C1525 1.384 . S
N1529 C1521 1.427 1_545 S
N1529 C1527 1.384 . S
H1530 C1536 0.930 . S
H1531 C1540 0.930 . S
H1532 C1545 0.929 . S
H1533 C1543 0.929 . S
H1534 C1538 0.929 . S
H1535 C1544 0.929 . S
C1536 H1530 0.930 . S
C1536 C1537 1.367 1_565 S
C1536 C1544 1.378 . S
C1537 C1536 1.367 1_545 S
C1537 C1545 1.433 . S
C1538 H1534 0.929 . S
C1538 C1540 1.378 . S
C1538 C1542 1.350 . S
C1539 C1542 1.463 . S
C1539 C1544 1.350 1_545 S
C1539 N1547 1.427 . S
C1540 H1531 0.930 . S
C1540 C1538 1.378 . S
C1540 C1541 1.367 . S
C1541 C1540 1.367 . S
C1541 C1543 1.433 1_545 S
C1542 C1538 1.350 . S
C1542 C1539 1.463 . S
C1542 N1546 1.427 1_545 S
C1543 H1533 0.929 . S
C1543 C1541 1.433 1_565 S
C1543 N1546 1.384 . S
C1544 H1535 0.929 . S
C1544 C1536 1.378 . S
C1544 C1539 1.350 1_565 S
C1545 H1532 0.929 . S
C1545 C1537 1.433 . S
C1545 N1547 1.384 . S
N1546 C1542 1.427 1_565 S
N1546 C1543 1.384 . S
N1547 C1539 1.427 . S
N1547 C1545 1.384 . S
H1548 C1554 0.930 . S
H1549 C1558 0.930 . S
H1550 C1563 0.937 . S
H1551 C1561 0.929 . S
H1552 C1556 0.947 . S
H1553 C1562 0.929 . S
C1554 H1548 0.930 . S
C1554 C1555 1.385 . S
C1554 C1562 1.378 . S
C1555 C1554 1.385 . S
C1555 C1563 1.379 1_655 S
C1556 H1552 0.947 . S
C1556 C1558 1.378 . S
C1556 C1560 1.350 . S
C1557 C1560 1.463 . S
C1557 C1562 1.350 . S
C1557 N1565 1.436 . S
C1558 H1549 0.930 . S
C1558 C1556 1.378 . S
C1558 C1559 1.367 . S
C1559 C1558 1.367 . S
C1559 C1561 1.433 . S
C1560 C1556 1.350 . S
C1560 C1557 1.463 . S
C1560 N1564 1.427 . S
C1561 H1551 0.929 . S
C1561 C1559 1.433 . S
C1561 N1564 1.384 . S
C1562 H1553 0.929 . S
C1562 C1554 1.378 . S
C1562 C1557 1.350 . S
C1563 H1550 0.937 . S
C1563 C1555 1.379 1_455 S
C1563 N1565 1.406 1_455 S
N1564 C1560 1.427 . S
N1564 C1561 1.384 . S
N1565 C1557 1.436 . S
N1565 C1563 1.406 1_655 S
H1566 C1572 0.930 . S
H1567 C1576 0.930 . S
H1568 C1581 0.929 . S
H1569 C1579 0.929 . S
H1570 C1574 0.929 . S
H1571 C1580 0.929 . S
C1572 H1566 0.930 . S
C1572 C1573 1.367 . S
C1572 C1580 1.378 . S
C1573 C1572 1.367 . S
C1573 C1581 1.433 . S
C1574 H1570 0.929 . S
C1574 C1576 1.378 . S
C1574 C1578 1.350 . S
C1575 C1578 1.463 . S
C1575 C1580 1.350 . S
C1575 N1583 1.427 . S
C1576 H1567 0.930 . S
C1576 C1574 1.378 . S
C1576 C1577 1.367 . S
C1577 C1576 1.367 . S
C1577 C1579 1.433 . S
C1578 C1574 1.350 . S
C1578 C1575 1.463 . S
C1578 N1582 1.427 . S
C1579 H1569 0.929 . S
C1579 C1577 1.433 . S
C1579 N1582 1.384 . S
C1580 H1571 0.929 . S
C1580 C1572 1.378 . S
C1580 C1575 1.350 . S
C1581 H1568 0.929 . S
C1581 C1573 1.433 . S
C1581 N1583 1.384 . S
N1582 C1578 1.427 . S
N1582 C1579 1.384 . S
N1583 C1575 1.427 . S
N1583 C1581 1.384 . S
H1584 C1590 0.930 . S
H1585 C1594 0.930 . S
H1586 C1599 0.929 . S
H1587 C1597 0.929 . S
H1588 C1592 0.929 . S
H1589 C1598 0.929 . S
C1590 H1584 0.930 . S
C1590 C1591 1.367 . S
C1590 C1598 1.378 . S
C1591 C1590 1.367 . S
C1591 C1599 1.433 . S
C1592 H1588 0.929 . S
C1592 C1594 1.378 . S
C1592 C1596 1.350 . S
C1593 C1596 1.463 . S
C1593 C1598 1.350 . S
C1593 N1601 1.427 . S
C1594 H1585 0.930 . S
C1594 C1592 1.378 . S
C1594 C1595 1.367 . S
C1595 C1594 1.367 . S
C1595 C1597 1.433 . S
C1596 C1592 1.350 . S
C1596 C1593 1.463 . S
C1596 N1600 1.427 . S
C1597 H1587 0.929 . S
C1597 C1595 1.433 . S
C1597 N1600 1.384 . S
C1598 H1589 0.929 . S
C1598 C1590 1.378 . S
C1598 C1593 1.350 . S
C1599 H1586 0.929 . S
C1599 C1591 1.433 . S
C1599 N1601 1.384 . S
N1600 C1596 1.427 . S
N1600 C1597 1.384 . S
N1601 C1593 1.427 . S
N1601 C1599 1.384 . S
H1602 C1608 0.930 . S
H1603 C1612 0.930 . S
H1604 C1617 0.929 . S
H1605 C1615 0.929 . S
H1606 C1610 0.929 . S
H1607 C1616 0.929 . S
C1608 H1602 0.930 . S
C1608 C1609 1.367 . S
C1608 C1616 1.378 . S
C1609 C1608 1.367 . S
C1609 C1617 1.433 . S
C1610 H1606 0.929 . S
C1610 C1612 1.378 . S
C1610 C1614 1.350 . S
C1611 C1614 1.463 . S
C1611 C1616 1.350 . S
C1611 N1619 1.427 . S
C1612 H1603 0.930 . S
C1612 C1610 1.378 . S
C1612 C1613 1.367 . S
C1613 C1612 1.367 . S
C1613 C1615 1.433 . S
C1614 C1610 1.350 . S
C1614 C1611 1.463 . S
C1614 N1618 1.427 . S
C1615 H1605 0.929 . S
C1615 C1613 1.433 . S
C1615 N1618 1.384 . S
C1616 H1607 0.929 . S
C1616 C1608 1.378 . S
C1616 C1611 1.350 . S
C1617 H1604 0.929 . S
C1617 C1609 1.433 . S
C1617 N1619 1.384 . S
N1618 C1614 1.427 . S
N1618 C1615 1.384 . S
N1619 C1611 1.427 . S
N1619 C1617 1.384 . S
H1620 C1626 0.930 . S
H1621 C1630 0.930 . S
H1622 C1635 0.929 . S
H1623 C1633 0.929 . S
H1624 C1628 0.929 . S
H1625 C1634 0.929 . S
C1626 H1620 0.930 . S
C1626 C1627 1.367 . S
C1626 C1634 1.378 . S
C1627 C1626 1.367 . S
C1627 C1635 1.433 . S
C1628 H1624 0.929 . S
C1628 C1630 1.378 . S
C1628 C1632 1.350 . S
C1629 C1632 1.463 . S
C1629 C1634 1.350 . S
C1629 N1637 1.427 . S
C1630 H1621 0.930 . S
C1630 C1628 1.378 . S
C1630 C1631 1.367 . S
C1631 C1630 1.367 . S
C1631 C1633 1.433 . S
C1632 C1628 1.350 . S
C1632 C1629 1.463 . S
C1632 N1636 1.427 . S
C1633 H1623 0.929 . S
C1633 C1631 1.433 . S
C1633 N1636 1.384 . S
C1634 H1625 0.929 . S
C1634 C1626 1.378 . S
C1634 C1629 1.350 . S
C1635 H1622 0.929 . S
C1635 C1627 1.433 . S
C1635 N1637 1.384 . S
N1636 C1632 1.427 . S
N1636 C1633 1.384 . S
N1637 C1629 1.427 . S
N1637 C1635 1.384 . S
H1638 C1644 0.930 . S
H1639 C1648 0.930 . S
H1640 C1653 0.929 . S
H1641 C1651 0.929 . S
H1642 C1646 0.929 . S
H1643 C1652 0.929 . S
C1644 H1638 0.930 . S
C1644 C1645 1.367 . S
C1644 C1652 1.378 . S
C1645 C1644 1.367 . S
C1645 C1653 1.433 . S
C1646 H1642 0.929 . S
C1646 C1648 1.378 . S
C1646 C1650 1.350 . S
C1647 C1650 1.463 . S
C1647 C1652 1.350 . S
C1647 N1655 1.427 . S
C1648 H1639 0.930 . S
C1648 C1646 1.378 . S
C1648 C1649 1.367 . S
C1649 C1648 1.367 . S
C1649 C1651 1.433 . S
C1650 C1646 1.350 . S
C1650 C1647 1.463 . S
C1650 N1654 1.427 . S
C1651 H1641 0.929 . S
C1651 C1649 1.433 . S
C1651 N1654 1.384 . S
C1652 H1643 0.929 . S
C1652 C1644 1.378 . S
C1652 C1647 1.350 . S
C1653 H1640 0.929 . S
C1653 C1645 1.433 . S
C1653 N1655 1.384 . S
N1654 C1650 1.427 . S
N1654 C1651 1.384 . S
N1655 C1647 1.427 . S
N1655 C1653 1.384 . S
H1656 C1662 0.930 . S
H1657 C1666 0.930 . S
H1658 C1671 0.929 . S
H1659 C1669 0.929 . S
H1660 C1664 0.929 . S
H1661 C1670 0.929 . S
C1662 H1656 0.930 . S
C1662 C1663 1.367 . S
C1662 C1670 1.378 . S
C1663 C1662 1.367 . S
C1663 C1671 1.433 . S
C1664 H1660 0.929 . S
C1664 C1666 1.378 . S
C1664 C1668 1.350 . S
C1665 C1668 1.463 . S
C1665 C1670 1.350 . S
C1665 N1673 1.427 . S
C1666 H1657 0.930 . S
C1666 C1664 1.378 . S
C1666 C1667 1.367 . S
C1667 C1666 1.367 . S
C1667 C1669 1.433 . S
C1668 C1664 1.350 . S
C1668 C1665 1.463 . S
C1668 N1672 1.427 . S
C1669 H1659 0.929 . S
C1669 C1667 1.433 . S
C1669 N1672 1.384 . S
C1670 H1661 0.929 . S
C1670 C1662 1.378 . S
C1670 C1665 1.350 . S
C1671 H1658 0.929 . S
C1671 C1663 1.433 . S
C1671 N1673 1.384 . S
N1672 C1668 1.427 . S
N1672 C1669 1.384 . S
N1673 C1665 1.427 . S
N1673 C1671 1.384 . S
H1674 C1680 0.930 . S
H1675 C1684 0.930 . S
H1676 C1689 0.929 . S
H1677 C1687 0.929 . S
H1678 C1682 0.929 . S
H1679 C1688 0.929 . S
C1680 H1674 0.930 . S
C1680 C1681 1.367 . S
C1680 C1688 1.378 . S
C1681 C1680 1.367 . S
C1681 C1689 1.433 . S
C1682 H1678 0.929 . S
C1682 C1684 1.378 . S
C1682 C1686 1.350 . S
C1683 C1686 1.463 . S
C1683 C1688 1.350 . S
C1683 N1691 1.427 . S
C1684 H1675 0.930 . S
C1684 C1682 1.378 . S
C1684 C1685 1.367 . S
C1685 C1684 1.367 . S
C1685 C1687 1.433 . S
C1686 C1682 1.350 . S
C1686 C1683 1.463 . S
C1686 N1690 1.427 . S
C1687 H1677 0.929 . S
C1687 C1685 1.433 . S
C1687 N1690 1.384 . S
C1688 H1679 0.929 . S
C1688 C1680 1.378 . S
C1688 C1683 1.350 . S
C1689 H1676 0.929 . S
C1689 C1681 1.433 . S
C1689 N1691 1.384 . S
N1690 C1686 1.427 . S
N1690 C1687 1.384 . S
N1691 C1683 1.427 . S
N1691 C1689 1.384 . S
H1692 C1698 0.930 . S
H1693 C1702 0.930 . S
H1694 C1707 0.929 . S
H1695 C1705 0.929 . S
H1696 C1700 0.929 . S
H1697 C1706 0.929 . S
C1698 H1692 0.930 . S
C1698 C1699 1.367 . S
C1698 C1706 1.378 . S
C1699 C1698 1.367 . S
C1699 C1707 1.433 . S
C1700 H1696 0.929 . S
C1700 C1702 1.378 . S
C1700 C1704 1.350 . S
C1701 C1704 1.463 . S
C1701 C1706 1.350 . S
C1701 N1709 1.427 . S
C1702 H1693 0.930 . S
C1702 C1700 1.378 . S
C1702 C1703 1.367 . S
C1703 C1702 1.367 . S
C1703 C1705 1.433 . S
C1704 C1700 1.350 . S
C1704 C1701 1.463 . S
C1704 N1708 1.427 . S
C1705 H1695 0.929 . S
C1705 C1703 1.433 . S
C1705 N1708 1.384 . S
C1706 H1697 0.929 . S
C1706 C1698 1.378 . S
C1706 C1701 1.350 . S
C1707 H1694 0.929 . S
C1707 C1699 1.433 . S
C1707 N1709 1.384 . S
N1708 C1704 1.427 . S
N1708 C1705 1.384 . S
N1709 C1701 1.427 . S
N1709 C1707 1.384 . S
H1710 C1716 0.930 . S
H1711 C1720 0.930 . S
H1712 C1725 0.929 . S
H1713 C1723 0.929 . S
H1714 C1718 0.929 . S
H1715 C1724 0.929 . S
C1716 H1710 0.930 . S
C1716 C1717 1.367 . S
C1716 C1724 1.378 . S
C1717 C1716 1.367 . S
C1717 C1725 1.433 . S
C1718 H1714 0.929 . S
C1718 C1720 1.378 . S
C1718 C1722 1.350 . S
C1719 C1722 1.463 . S
C1719 C1724 1.350 . S
C1719 N1727 1.427 . S
C1720 H1711 0.930 . S
C1720 C1718 1.378 . S
C1720 C1721 1.367 . S
C1721 C1720 1.367 . S
C1721 C1723 1.433 . S
C1722 C1718 1.350 . S
C1722 C1719 1.463 . S
C1722 N1726 1.427 . S
C1723 H1713 0.929 . S
C1723 C1721 1.433 . S
C1723 N1726 1.384 . S
C1724 H1715 0.929 . S
C1724 C1716 1.378 . S
C1724 C1719 1.350 . S
C1725 H1712 0.929 . S
C1725 C1717 1.433 . S
C1725 N1727 1.384 . S
N1726 C1722 1.427 . S
N1726 C1723 1.384 . S
N1727 C1719 1.427 . S
N1727 C1725 1.384 . S
H1728 C1734 0.930 . S
H1729 C1738 0.930 . S
H1730 C1743 0.929 . S
H1731 C1741 0.929 . S
H1732 C1736 0.929 . S
H1733 C1742 0.929 . S
C1734 H1728 0.930 . S
C1734 C1735 1.367 . S
C1734 C1742 1.378 . S
C1735 C1734 1.367 . S
C1735 C1743 1.433 . S
C1736 H1732 0.929 . S
C1736 C1738 1.378 . S
C1736 C1740 1.350 . S
C1737 C1740 1.463 . S
C1737 C1742 1.350 . S
C1737 N1745 1.427 . S
C1738 H1729 0.930 . S
C1738 C1736 1.378 . S
C1738 C1739 1.367 . S
C1739 C1738 1.367 . S
C1739 C1741 1.433 . S
C1740 C1736 1.350 . S
C1740 C1737 1.463 . S
C1740 N1744 1.427 . S
C1741 H1731 0.929 . S
C1741 C1739 1.433 . S
C1741 N1744 1.384 . S
C1742 H1733 0.929 . S
C1742 C1734 1.378 . S
C1742 C1737 1.350 . S
C1743 H1730 0.929 . S
C1743 C1735 1.433 . S
C1743 N1745 1.384 . S
N1744 C1740 1.427 . S
N1744 C1741 1.384 . S
N1745 C1737 1.427 . S
N1745 C1743 1.384 . S
H1746 C1752 0.930 . S
H1747 C1756 0.930 . S
H1748 C1761 0.929 . S
H1749 C1759 0.929 . S
H1750 C1754 0.929 . S
H1751 C1760 0.929 . S
C1752 H1746 0.930 . S
C1752 C1753 1.367 . S
C1752 C1760 1.378 . S
C1753 C1752 1.367 . S
C1753 C1761 1.433 . S
C1754 H1750 0.929 . S
C1754 C1756 1.378 . S
C1754 C1758 1.350 . S
C1755 C1758 1.463 . S
C1755 C1760 1.350 . S
C1755 N1763 1.427 . S
C1756 H1747 0.930 . S
C1756 C1754 1.378 . S
C1756 C1757 1.367 . S
C1757 C1756 1.367 . S
C1757 C1759 1.433 . S
C1758 C1754 1.350 . S
C1758 C1755 1.463 . S
C1758 N1762 1.427 . S
C1759 H1749 0.929 . S
C1759 C1757 1.433 . S
C1759 N1762 1.384 . S
C1760 H1751 0.929 . S
C1760 C1752 1.378 . S
C1760 C1755 1.350 . S
C1761 H1748 0.929 . S
C1761 C1753 1.433 . S
C1761 N1763 1.384 . S
N1762 C1758 1.427 . S
N1762 C1759 1.384 . S
N1763 C1755 1.427 . S
N1763 C1761 1.384 . S
H1764 C1770 0.930 . S
H1765 C1774 0.930 . S
H1766 C1779 0.929 . S
H1767 C1777 0.929 . S
H1768 C1772 0.929 . S
H1769 C1778 0.929 . S
C1770 H1764 0.930 . S
C1770 C1771 1.367 . S
C1770 C1778 1.378 . S
C1771 C1770 1.367 . S
C1771 C1779 1.433 . S
C1772 H1768 0.929 . S
C1772 C1774 1.378 . S
C1772 C1776 1.350 . S
C1773 C1776 1.463 . S
C1773 C1778 1.350 . S
C1773 N1781 1.427 . S
C1774 H1765 0.930 . S
C1774 C1772 1.378 . S
C1774 C1775 1.367 . S
C1775 C1774 1.367 . S
C1775 C1777 1.433 . S
C1776 C1772 1.350 . S
C1776 C1773 1.463 . S
C1776 N1780 1.427 . S
C1777 H1767 0.929 . S
C1777 C1775 1.433 . S
C1777 N1780 1.384 . S
C1778 H1769 0.929 . S
C1778 C1770 1.378 . S
C1778 C1773 1.350 . S
C1779 H1766 0.929 . S
C1779 C1771 1.433 . S
C1779 N1781 1.384 . S
N1780 C1776 1.427 . S
N1780 C1777 1.384 . S
N1781 C1773 1.427 . S
N1781 C1779 1.384 . S
H1782 C1788 0.930 . S
H1783 C1792 0.930 . S
H1784 C1797 0.929 . S
H1785 C1795 0.929 . S
H1786 C1790 0.929 . S
H1787 C1796 0.929 . S
C1788 H1782 0.930 . S
C1788 C1789 1.367 . S
C1788 C1796 1.378 . S
C1789 C1788 1.367 . S
C1789 C1797 1.433 . S
C1790 H1786 0.929 . S
C1790 C1792 1.378 . S
C1790 C1794 1.350 . S
C1791 C1794 1.463 . S
C1791 C1796 1.350 . S
C1791 N1799 1.427 . S
C1792 H1783 0.930 . S
C1792 C1790 1.378 . S
C1792 C1793 1.367 . S
C1793 C1792 1.367 . S
C1793 C1795 1.433 . S
C1794 C1790 1.350 . S
C1794 C1791 1.463 . S
C1794 N1798 1.427 . S
C1795 H1785 0.929 . S
C1795 C1793 1.433 . S
C1795 N1798 1.384 . S
C1796 H1787 0.929 . S
C1796 C1788 1.378 . S
C1796 C1791 1.350 . S
C1797 H1784 0.929 . S
C1797 C1789 1.433 . S
C1797 N1799 1.384 . S
N1798 C1794 1.427 . S
N1798 C1795 1.384 . S
N1799 C1791 1.427 . S
N1799 C1797 1.384 . S
H1800 C1806 0.930 . S
H1801 C1810 0.930 . S
H1802 C1815 0.929 . S
H1803 C1813 0.929 . S
H1804 C1808 0.929 . S
H1805 C1814 0.929 . S
C1806 H1800 0.930 . S
C1806 C1807 1.367 . S
C1806 C1814 1.378 . S
C1807 C1806 1.367 . S
C1807 C1815 1.433 . S
C1808 H1804 0.929 . S
C1808 C1810 1.378 . S
C1808 C1812 1.350 . S
C1809 C1812 1.463 . S
C1809 C1814 1.350 . S
C1809 N1817 1.427 . S
C1810 H1801 0.930 . S
C1810 C1808 1.378 . S
C1810 C1811 1.367 . S
C1811 C1810 1.367 . S
C1811 C1813 1.433 . S
C1812 C1808 1.350 . S
C1812 C1809 1.463 . S
C1812 N1816 1.427 . S
C1813 H1803 0.929 . S
C1813 C1811 1.433 . S
C1813 N1816 1.384 . S
C1814 H1805 0.929 . S
C1814 C1806 1.378 . S
C1814 C1809 1.350 . S
C1815 H1802 0.929 . S
C1815 C1807 1.433 . S
C1815 N1817 1.384 . S
N1816 C1812 1.427 . S
N1816 C1813 1.384 . S
N1817 C1809 1.427 . S
N1817 C1815 1.384 . S
H1818 C1824 0.930 . S
H1819 C1828 0.930 . S
H1820 C1833 0.929 . S
H1821 C1831 0.929 . S
H1822 C1826 0.929 . S
H1823 C1832 0.929 . S
C1824 H1818 0.930 . S
C1824 C1825 1.367 . S
C1824 C1832 1.378 . S
C1825 C1824 1.367 . S
C1825 C1833 1.433 . S
C1826 H1822 0.929 . S
C1826 C1828 1.378 . S
C1826 C1830 1.350 . S
C1827 C1830 1.463 . S
C1827 C1832 1.350 . S
C1827 N1835 1.427 . S
C1828 H1819 0.930 . S
C1828 C1826 1.378 . S
C1828 C1829 1.367 . S
C1829 C1828 1.367 . S
C1829 C1831 1.433 . S
C1830 C1826 1.350 . S
C1830 C1827 1.463 . S
C1830 N1834 1.427 . S
C1831 H1821 0.929 . S
C1831 C1829 1.433 . S
C1831 N1834 1.384 . S
C1832 H1823 0.929 . S
C1832 C1824 1.378 . S
C1832 C1827 1.350 . S
C1833 H1820 0.929 . S
C1833 C1825 1.433 . S
C1833 N1835 1.384 . S
N1834 C1830 1.427 . S
N1834 C1831 1.384 . S
N1835 C1827 1.427 . S
N1835 C1833 1.384 . S
H1836 C1842 0.930 . S
H1837 C1846 0.930 . S
H1838 C1851 0.929 . S
H1839 C1849 0.929 . S
H1840 C1844 0.929 . S
H1841 C1850 0.929 . S
C1842 H1836 0.930 . S
C1842 C1843 1.367 . S
C1842 C1850 1.378 . S
C1843 C1842 1.367 . S
C1843 C1851 1.433 . S
C1844 H1840 0.929 . S
C1844 C1846 1.378 . S
C1844 C1848 1.350 . S
C1845 C1848 1.463 . S
C1845 C1850 1.350 . S
C1845 N1853 1.427 . S
C1846 H1837 0.930 . S
C1846 C1844 1.378 . S
C1846 C1847 1.367 . S
C1847 C1846 1.367 . S
C1847 C1849 1.433 . S
C1848 C1844 1.350 . S
C1848 C1845 1.463 . S
C1848 N1852 1.427 . S
C1849 H1839 0.929 . S
C1849 C1847 1.433 . S
C1849 N1852 1.384 . S
C1850 H1841 0.929 . S
C1850 C1842 1.378 . S
C1850 C1845 1.350 . S
C1851 H1838 0.929 . S
C1851 C1843 1.433 . S
C1851 N1853 1.384 . S
N1852 C1848 1.427 . S
N1852 C1849 1.384 . S
N1853 C1845 1.427 . S
N1853 C1851 1.384 . S
H1854 C1860 0.930 . S
H1855 C1864 0.930 . S
H1856 C1869 0.929 . S
H1857 C1867 0.929 . S
H1858 C1862 0.929 . S
H1859 C1868 0.929 . S
C1860 H1854 0.930 . S
C1860 C1861 1.367 . S
C1860 C1868 1.378 . S
C1861 C1860 1.367 . S
C1861 C1869 1.433 . S
C1862 H1858 0.929 . S
C1862 C1864 1.378 . S
C1862 C1866 1.350 . S
C1863 C1866 1.463 . S
C1863 C1868 1.350 . S
C1863 N1871 1.427 . S
C1864 H1855 0.930 . S
C1864 C1862 1.378 . S
C1864 C1865 1.367 . S
C1865 C1864 1.367 . S
C1865 C1867 1.433 . S
C1866 C1862 1.350 . S
C1866 C1863 1.463 . S
C1866 N1870 1.427 . S
C1867 H1857 0.929 . S
C1867 C1865 1.433 . S
C1867 N1870 1.384 . S
C1868 H1859 0.929 . S
C1868 C1860 1.378 . S
C1868 C1863 1.350 . S
C1869 H1856 0.929 . S
C1869 C1861 1.433 . S
C1869 N1871 1.384 . S
N1870 C1866 1.427 . S
N1870 C1867 1.384 . S
N1871 C1863 1.427 . S
N1871 C1869 1.384 . S
H1872 C1878 0.930 . S
H1873 C1882 0.930 . S
H1874 C1887 0.929 . S
H1875 C1885 0.929 . S
H1876 C1880 0.929 . S
H1877 C1886 0.929 . S
C1878 H1872 0.930 . S
C1878 C1879 1.367 . S
C1878 C1886 1.378 . S
C1879 C1878 1.367 . S
C1879 C1887 1.433 . S
C1880 H1876 0.929 . S
C1880 C1882 1.378 . S
C1880 C1884 1.350 . S
C1881 C1884 1.463 . S
C1881 C1886 1.350 . S
C1881 N1889 1.427 . S
C1882 H1873 0.930 . S
C1882 C1880 1.378 . S
C1882 C1883 1.367 . S
C1883 C1882 1.367 . S
C1883 C1885 1.433 . S
C1884 C1880 1.350 . S
C1884 C1881 1.463 . S
C1884 N1888 1.427 . S
C1885 H1875 0.929 . S
C1885 C1883 1.433 . S
C1885 N1888 1.384 . S
C1886 H1877 0.929 . S
C1886 C1878 1.378 . S
C1886 C1881 1.350 . S
C1887 H1874 0.929 . S
C1887 C1879 1.433 . S
C1887 N1889 1.384 . S
N1888 C1884 1.427 . S
N1888 C1885 1.384 . S
N1889 C1881 1.427 . S
N1889 C1887 1.384 . S
H1890 C1896 0.930 . S
H1891 C1900 0.930 . S
H1892 C1905 0.929 . S
H1893 C1903 0.929 . S
H1894 C1898 0.929 . S
H1895 C1904 0.929 . S
C1896 H1890 0.930 . S
C1896 C1897 1.367 . S
C1896 C1904 1.378 . S
C1897 C1896 1.367 . S
C1897 C1905 1.433 . S
C1898 H1894 0.929 . S
C1898 C1900 1.378 . S
C1898 C1902 1.350 . S
C1899 C1902 1.463 . S
C1899 C1904 1.350 . S
C1899 N1907 1.427 . S
C1900 H1891 0.930 . S
C1900 C1898 1.378 . S
C1900 C1901 1.367 . S
C1901 C1900 1.367 . S
C1901 C1903 1.433 . S
C1902 C1898 1.350 . S
C1902 C1899 1.463 . S
C1902 N1906 1.427 . S
C1903 H1893 0.929 . S
C1903 C1901 1.433 . S
C1903 N1906 1.384 . S
C1904 H1895 0.929 . S
C1904 C1896 1.378 . S
C1904 C1899 1.350 . S
C1905 H1892 0.929 . S
C1905 C1897 1.433 . S
C1905 N1907 1.384 . S
N1906 C1902 1.427 . S
N1906 C1903 1.384 . S
N1907 C1899 1.427 . S
N1907 C1905 1.384 . S
H1908 C1914 0.930 . S
H1909 C1918 0.930 . S
H1910 C1923 0.929 . S
H1911 C1921 0.929 . S
H1912 C1916 0.929 . S
H1913 C1922 0.929 . S
C1914 H1908 0.930 . S
C1914 C1915 1.367 . S
C1914 C1922 1.378 . S
C1915 C1914 1.367 . S
C1915 C1923 1.433 . S
C1916 H1912 0.929 . S
C1916 C1918 1.378 . S
C1916 C1920 1.350 . S
C1917 C1920 1.463 . S
C1917 C1922 1.350 . S
C1917 N1925 1.427 . S
C1918 H1909 0.930 . S
C1918 C1916 1.378 . S
C1918 C1919 1.367 . S
C1919 C1918 1.367 . S
C1919 C1921 1.433 . S
C1920 C1916 1.350 . S
C1920 C1917 1.463 . S
C1920 N1924 1.427 . S
C1921 H1911 0.929 . S
C1921 C1919 1.433 . S
C1921 N1924 1.384 . S
C1922 H1913 0.929 . S
C1922 C1914 1.378 . S
C1922 C1917 1.350 . S
C1923 H1910 0.929 . S
C1923 C1915 1.433 . S
C1923 N1925 1.384 . S
N1924 C1920 1.427 . S
N1924 C1921 1.384 . S
N1925 C1917 1.427 . S
N1925 C1923 1.384 . S
H1926 C1932 0.930 . S
H1927 C1936 0.930 . S
H1928 C1941 0.929 . S
H1929 C1939 0.929 . S
H1930 C1934 0.929 . S
H1931 C1940 0.929 . S
C1932 H1926 0.930 . S
C1932 C1933 1.367 . S
C1932 C1940 1.378 . S
C1933 C1932 1.367 . S
C1933 C1941 1.433 . S
C1934 H1930 0.929 . S
C1934 C1936 1.378 . S
C1934 C1938 1.350 . S
C1935 C1938 1.463 . S
C1935 C1940 1.350 . S
C1935 N1943 1.427 . S
C1936 H1927 0.930 . S
C1936 C1934 1.378 . S
C1936 C1937 1.367 . S
C1937 C1936 1.367 . S
C1937 C1939 1.433 . S
C1938 C1934 1.350 . S
C1938 C1935 1.463 . S
C1938 N1942 1.427 . S
C1939 H1929 0.929 . S
C1939 C1937 1.433 . S
C1939 N1942 1.384 . S
C1940 H1931 0.929 . S
C1940 C1932 1.378 . S
C1940 C1935 1.350 . S
C1941 H1928 0.929 . S
C1941 C1933 1.433 . S
C1941 N1943 1.384 . S
N1942 C1938 1.427 . S
N1942 C1939 1.384 . S
N1943 C1935 1.427 . S
N1943 C1941 1.384 . S
H1944 C1950 0.930 . S
H1945 C1954 0.930 . S
H1946 C1959 0.929 . S
H1947 C1957 0.929 . S
H1948 C1952 0.929 . S
H1949 C1958 0.929 . S
C1950 H1944 0.930 . S
C1950 C1951 1.367 . S
C1950 C1958 1.378 . S
C1951 C1950 1.367 . S
C1951 C1959 1.433 . S
C1952 H1948 0.929 . S
C1952 C1954 1.378 . S
C1952 C1956 1.350 . S
C1953 C1956 1.463 . S
C1953 C1958 1.350 . S
C1953 N1961 1.427 . S
C1954 H1945 0.930 . S
C1954 C1952 1.378 . S
C1954 C1955 1.367 . S
C1955 C1954 1.367 . S
C1955 C1957 1.433 . S
C1956 C1952 1.350 . S
C1956 C1953 1.463 . S
C1956 N1960 1.427 . S
C1957 H1947 0.929 . S
C1957 C1955 1.433 . S
C1957 N1960 1.384 . S
C1958 H1949 0.929 . S
C1958 C1950 1.378 . S
C1958 C1953 1.350 . S
C1959 H1946 0.929 . S
C1959 C1951 1.433 . S
C1959 N1961 1.384 . S
N1960 C1956 1.427 . S
N1960 C1957 1.384 . S
N1961 C1953 1.427 . S
N1961 C1959 1.384 . S
H1962 C1968 0.930 . S
H1963 C1972 0.930 . S
H1964 C1977 0.929 . S
H1965 C1975 0.929 . S
H1966 C1970 0.929 . S
H1967 C1976 0.929 . S
C1968 H1962 0.930 . S
C1968 C1969 1.367 . S
C1968 C1976 1.378 . S
C1969 C1968 1.367 . S
C1969 C1977 1.433 . S
C1970 H1966 0.929 . S
C1970 C1972 1.378 . S
C1970 C1974 1.350 . S
C1971 C1974 1.463 . S
C1971 C1976 1.350 . S
C1971 N1979 1.427 . S
C1972 H1963 0.930 . S
C1972 C1970 1.378 . S
C1972 C1973 1.367 . S
C1973 C1972 1.367 . S
C1973 C1975 1.433 . S
C1974 C1970 1.350 . S
C1974 C1971 1.463 . S
C1974 N1978 1.427 . S
C1975 H1965 0.929 . S
C1975 C1973 1.433 . S
C1975 N1978 1.384 . S
C1976 H1967 0.929 . S
C1976 C1968 1.378 . S
C1976 C1971 1.350 . S
C1977 H1964 0.929 . S
C1977 C1969 1.433 . S
C1977 N1979 1.384 . S
N1978 C1974 1.427 . S
N1978 C1975 1.384 . S
N1979 C1971 1.427 . S
N1979 C1977 1.384 . S
H1980 C1986 0.930 . S
H1981 C1990 0.930 . S
H1982 C1995 0.929 . S
H1983 C1993 0.929 . S
H1984 C1988 0.929 . S
H1985 C1994 0.929 . S
C1986 H1980 0.930 . S
C1986 C1987 1.367 . S
C1986 C1994 1.378 . S
C1987 C1986 1.367 . S
C1987 C1995 1.433 . S
C1988 H1984 0.929 . S
C1988 C1990 1.378 . S
C1988 C1992 1.350 . S
C1989 C1992 1.463 . S
C1989 C1994 1.350 . S
C1989 N1997 1.427 . S
C1990 H1981 0.930 . S
C1990 C1988 1.378 . S
C1990 C1991 1.367 . S
C1991 C1990 1.367 . S
C1991 C1993 1.433 . S
C1992 C1988 1.350 . S
C1992 C1989 1.463 . S
C1992 N1996 1.427 . S
C1993 H1983 0.929 . S
C1993 C1991 1.433 . S
C1993 N1996 1.384 . S
C1994 H1985 0.929 . S
C1994 C1986 1.378 . S
C1994 C1989 1.350 . S
C1995 H1982 0.929 . S
C1995 C1987 1.433 . S
C1995 N1997 1.384 . S
N1996 C1992 1.427 . S
N1996 C1993 1.384 . S
N1997 C1989 1.427 . S
N1997 C1995 1.384 . S
H1998 C2004 0.930 . S
H1999 C2008 0.930 . S
H2000 C2013 0.929 . S
H2001 C2011 0.929 . S
H2002 C2006 0.929 . S
H2003 C2012 0.929 . S
C2004 H1998 0.930 . S
C2004 C2005 1.367 . S
C2004 C2012 1.378 . S
C2005 C2004 1.367 . S
C2005 C2013 1.433 . S
C2006 H2002 0.929 . S
C2006 C2008 1.378 . S
C2006 C2010 1.350 . S
C2007 C2010 1.463 . S
C2007 C2012 1.350 . S
C2007 N2015 1.427 . S
C2008 H1999 0.930 . S
C2008 C2006 1.378 . S
C2008 C2009 1.367 . S
C2009 C2008 1.367 . S
C2009 C2011 1.433 . S
C2010 C2006 1.350 . S
C2010 C2007 1.463 . S
C2010 N2014 1.427 . S
C2011 H2001 0.929 . S
C2011 C2009 1.433 . S
C2011 N2014 1.384 . S
C2012 H2003 0.929 . S
C2012 C2004 1.378 . S
C2012 C2007 1.350 . S
C2013 H2000 0.929 . S
C2013 C2005 1.433 . S
C2013 N2015 1.384 . S
N2014 C2010 1.427 . S
N2014 C2011 1.384 . S
N2015 C2007 1.427 . S
N2015 C2013 1.384 . S
H2016 C2022 0.930 . S
H2017 C2026 0.930 . S
H2018 C2031 0.929 . S
H2019 C2029 0.929 . S
H2020 C2024 0.929 . S
H2021 C2030 0.929 . S
C2022 H2016 0.930 . S
C2022 C2023 1.367 . S
C2022 C2030 1.378 . S
C2023 C2022 1.367 . S
C2023 C2031 1.433 . S
C2024 H2020 0.929 . S
C2024 C2026 1.378 . S
C2024 C2028 1.350 . S
C2025 C2028 1.463 . S
C2025 C2030 1.350 . S
C2025 N2033 1.427 . S
C2026 H2017 0.930 . S
C2026 C2024 1.378 . S
C2026 C2027 1.367 . S
C2027 C2026 1.367 . S
C2027 C2029 1.433 . S
C2028 C2024 1.350 . S
C2028 C2025 1.463 . S
C2028 N2032 1.427 . S
C2029 H2019 0.929 . S
C2029 C2027 1.433 . S
C2029 N2032 1.384 . S
C2030 H2021 0.929 . S
C2030 C2022 1.378 . S
C2030 C2025 1.350 . S
C2031 H2018 0.929 . S
C2031 C2023 1.433 . S
C2031 N2033 1.384 . S
N2032 C2028 1.427 . S
N2032 C2029 1.384 . S
N2033 C2025 1.427 . S
N2033 C2031 1.384 . S
H2034 C2040 0.930 . S
H2035 C2044 0.930 . S
H2036 C2049 0.929 . S
H2037 C2047 0.929 . S
H2038 C2042 0.929 . S
H2039 C2048 0.929 . S
C2040 H2034 0.930 . S
C2040 C2041 1.367 . S
C2040 C2048 1.378 . S
C2041 C2040 1.367 . S
C2041 C2049 1.433 . S
C2042 H2038 0.929 . S
C2042 C2044 1.378 . S
C2042 C2046 1.350 . S
C2043 C2046 1.463 . S
C2043 C2048 1.350 . S
C2043 N2051 1.427 . S
C2044 H2035 0.930 . S
C2044 C2042 1.378 . S
C2044 C2045 1.367 . S
C2045 C2044 1.367 . S
C2045 C2047 1.433 . S
C2046 C2042 1.350 . S
C2046 C2043 1.463 . S
C2046 N2050 1.427 . S
C2047 H2037 0.929 . S
C2047 C2045 1.433 . S
C2047 N2050 1.384 . S
C2048 H2039 0.929 . S
C2048 C2040 1.378 . S
C2048 C2043 1.350 . S
C2049 H2036 0.929 . S
C2049 C2041 1.433 . S
C2049 N2051 1.384 . S
N2050 C2046 1.427 . S
N2050 C2047 1.384 . S
N2051 C2043 1.427 . S
N2051 C2049 1.384 . S
H2052 C2058 0.930 . S
H2053 C2062 0.930 . S
H2054 C2067 0.929 . S
H2055 C2065 0.929 . S
H2056 C2060 0.929 . S
H2057 C2066 0.929 . S
C2058 H2052 0.930 . S
C2058 C2059 1.367 . S
C2058 C2066 1.378 . S
C2059 C2058 1.367 . S
C2059 C2067 1.433 . S
C2060 H2056 0.929 . S
C2060 C2062 1.378 . S
C2060 C2064 1.350 . S
C2061 C2064 1.463 . S
C2061 C2066 1.350 . S
C2061 N2069 1.427 . S
C2062 H2053 0.930 . S
C2062 C2060 1.378 . S
C2062 C2063 1.367 . S
C2063 C2062 1.367 . S
C2063 C2065 1.433 . S
C2064 C2060 1.350 . S
C2064 C2061 1.463 . S
C2064 N2068 1.427 . S
C2065 H2055 0.929 . S
C2065 C2063 1.433 . S
C2065 N2068 1.384 . S
C2066 H2057 0.929 . S
C2066 C2058 1.378 . S
C2066 C2061 1.350 . S
C2067 H2054 0.929 . S
C2067 C2059 1.433 . S
C2067 N2069 1.384 . S
N2068 C2064 1.427 . S
N2068 C2065 1.384 . S
N2069 C2061 1.427 . S
N2069 C2067 1.384 . S
H2070 C2076 0.930 . S
H2071 C2080 0.930 . S
H2072 C2085 0.929 . S
H2073 C2083 0.929 . S
H2074 C2078 0.929 . S
H2075 C2084 0.929 1_554 S
C2076 H2070 0.930 . S
C2076 C2077 1.367 1_554 S
C2076 C2084 1.378 1_554 S
C2077 C2076 1.367 1_556 S
C2077 C2085 1.433 . S
C2078 H2074 0.929 . S
C2078 C2080 1.378 . S
C2078 C2082 1.350 . S
C2079 C2082 1.463 . S
C2079 C2084 1.350 . S
C2079 N2087 1.427 . S
C2080 H2071 0.930 . S
C2080 C2078 1.378 . S
C2080 C2081 1.367 . S
C2081 C2080 1.367 . S
C2081 C2083 1.433 . S
C2082 C2078 1.350 . S
C2082 C2079 1.463 . S
C2082 N2086 1.427 . S
C2083 H2073 0.929 . S
C2083 C2081 1.433 . S
C2083 N2086 1.384 . S
C2084 H2075 0.929 1_556 S
C2084 C2076 1.378 1_556 S
C2084 C2079 1.350 . S
C2085 H2072 0.929 . S
C2085 C2077 1.433 . S
C2085 N2087 1.384 . S
N2086 C2082 1.427 . S
N2086 C2083 1.384 . S
N2087 C2079 1.427 . S
N2087 C2085 1.384 . S
H2088 C2094 0.930 . S
H2089 C2098 0.930 . S
H2090 C2103 0.929 . S
H2091 C2101 0.929 . S
H2092 C2096 0.929 . S
H2093 C2102 0.929 1_554 S
C2094 H2088 0.930 . S
C2094 C2095 1.367 1_554 S
C2094 C2102 1.378 1_554 S
C2095 C2094 1.367 1_556 S
C2095 C2103 1.433 . S
C2096 H2092 0.929 . S
C2096 C2098 1.378 . S
C2096 C2100 1.350 . S
C2097 C2100 1.463 . S
C2097 C2102 1.350 . S
C2097 N2105 1.427 . S
C2098 H2089 0.930 . S
C2098 C2096 1.378 . S
C2098 C2099 1.367 . S
C2099 C2098 1.367 . S
C2099 C2101 1.433 . S
C2100 C2096 1.350 . S
C2100 C2097 1.463 . S
C2100 N2104 1.427 . S
C2101 H2091 0.929 . S
C2101 C2099 1.433 . S
C2101 N2104 1.384 . S
C2102 H2093 0.929 1_556 S
C2102 C2094 1.378 1_556 S
C2102 C2097 1.350 . S
C2103 H2090 0.929 . S
C2103 C2095 1.433 . S
C2103 N2105 1.384 . S
N2104 C2100 1.427 . S
N2104 C2101 1.384 . S
N2105 C2097 1.427 . S
N2105 C2103 1.384 . S
H2106 C2112 0.930 . S
H2107 C2116 0.930 . S
H2108 C2121 0.929 . S
H2109 C2119 0.929 . S
H2110 C2114 0.929 . S
H2111 C2120 0.929 . S
C2112 H2106 0.930 . S
C2112 C2113 1.367 . S
C2112 C2120 1.378 . S
C2113 C2112 1.367 . S
C2113 C2121 1.433 . S
C2114 H2110 0.929 . S
C2114 C2116 1.378 . S
C2114 C2118 1.350 . S
C2115 C2118 1.463 . S
C2115 C2120 1.350 . S
C2115 N2123 1.427 . S
C2116 H2107 0.930 . S
C2116 C2114 1.378 . S
C2116 C2117 1.367 . S
C2117 C2116 1.367 . S
C2117 C2119 1.433 . S
C2118 C2114 1.350 . S
C2118 C2115 1.463 . S
C2118 N2122 1.427 . S
C2119 H2109 0.929 . S
C2119 C2117 1.433 . S
C2119 N2122 1.384 . S
C2120 H2111 0.929 . S
C2120 C2112 1.378 . S
C2120 C2115 1.350 . S
C2121 H2108 0.929 . S
C2121 C2113 1.433 . S
C2121 N2123 1.384 . S
N2122 C2118 1.427 . S
N2122 C2119 1.384 . S
N2123 C2115 1.427 . S
N2123 C2121 1.384 . S
H2124 C2130 0.930 . S
H2125 C2134 0.930 . S
H2126 C2139 0.929 1_554 S
H2127 C2137 0.929 . S
H2128 C2132 0.929 . S
H2129 C2138 0.929 . S
C2130 H2124 0.930 . S
C2130 C2131 1.367 . S
C2130 C2138 1.378 . S
C2131 C2130 1.367 . S
C2131 C2139 1.433 . S
C2132 H2128 0.929 . S
C2132 C2134 1.378 . S
C2132 C2136 1.350 . S
C2133 C2136 1.463 . S
C2133 C2138 1.350 . S
C2133 N2141 1.427 . S
C2134 H2125 0.930 . S
C2134 C2132 1.378 . S
C2134 C2135 1.367 . S
C2135 C2134 1.367 . S
C2135 C2137 1.433 . S
C2136 C2132 1.350 . S
C2136 C2133 1.463 . S
C2136 N2140 1.427 . S
C2137 H2127 0.929 . S
C2137 C2135 1.433 . S
C2137 N2140 1.384 . S
C2138 H2129 0.929 . S
C2138 C2130 1.378 . S
C2138 C2133 1.350 . S
C2139 H2126 0.929 1_556 S
C2139 C2131 1.433 . S
C2139 N2141 1.384 . S
N2140 C2136 1.427 . S
N2140 C2137 1.384 . S
N2141 C2133 1.427 . S
N2141 C2139 1.384 . S
H2142 C2148 0.930 . S
H2143 C2152 0.930 . S
H2144 C2157 0.931 1_554 S
H2145 C2155 0.929 . S
H2146 C2150 0.929 . S
H2147 C2156 0.929 . S
C2148 H2142 0.930 . S
C2148 C2149 1.367 . S
C2148 C2156 1.378 . S
C2149 C2148 1.367 . S
C2149 C2157 1.432 . S
C2150 H2146 0.929 . S
C2150 C2152 1.378 . S
C2150 C2154 1.350 . S
C2151 C2154 1.463 . S
C2151 C2156 1.350 . S
C2151 N2159 1.427 . S
C2152 H2143 0.930 . S
C2152 C2150 1.378 . S
C2152 C2153 1.367 . S
C2153 C2152 1.367 . S
C2153 C2155 1.433 . S
C2154 C2150 1.350 . S
C2154 C2151 1.463 . S
C2154 N2158 1.427 . S
C2155 H2145 0.929 . S
C2155 C2153 1.433 . S
C2155 N2158 1.384 . S
C2156 H2147 0.929 . S
C2156 C2148 1.378 . S
C2156 C2151 1.350 . S
C2157 H2144 0.931 1_556 S
C2157 C2149 1.432 . S
C2157 N2159 1.383 . S
N2158 C2154 1.427 . S
N2158 C2155 1.384 . S
N2159 C2151 1.427 . S
N2159 C2157 1.383 . S
H2160 C2166 0.930 . S
H2161 C2170 0.930 . S
H2162 C2175 0.929 . S
H2163 C2173 0.929 . S
H2164 C2168 0.929 . S
H2165 C2174 0.929 1_554 S
C2166 H2160 0.930 . S
C2166 C2167 1.367 1_554 S
C2166 C2174 1.378 1_554 S
C2167 C2166 1.367 1_556 S
C2167 C2175 1.433 . S
C2168 H2164 0.929 . S
C2168 C2170 1.378 . S
C2168 C2172 1.350 . S
C2169 C2172 1.463 . S
C2169 C2174 1.350 . S
C2169 N2177 1.427 . S
C2170 H2161 0.930 . S
C2170 C2168 1.378 . S
C2170 C2171 1.367 . S
C2171 C2170 1.367 . S
C2171 C2173 1.433 . S
C2172 C2168 1.350 . S
C2172 C2169 1.463 . S
C2172 N2176 1.427 . S
C2173 H2163 0.929 . S
C2173 C2171 1.433 . S
C2173 N2176 1.384 . S
C2174 H2165 0.929 1_556 S
C2174 C2166 1.378 1_556 S
C2174 C2169 1.350 . S
C2175 H2162 0.929 . S
C2175 C2167 1.433 . S
C2175 N2177 1.384 . S
N2176 C2172 1.427 . S
N2176 C2173 1.384 . S
N2177 C2169 1.427 . S
N2177 C2175 1.384 . S
H2178 C2184 0.930 . S
H2179 C2188 0.930 . S
H2180 C2193 0.929 . S
H2181 C2191 0.929 . S
H2182 C2186 0.929 . S
H2183 C2192 0.929 . S
C2184 H2178 0.930 . S
C2184 C2185 1.367 . S
C2184 C2192 1.378 . S
C2185 C2184 1.367 . S
C2185 C2193 1.433 . S
C2186 H2182 0.929 . S
C2186 C2188 1.378 . S
C2186 C2190 1.350 . S
C2187 C2190 1.463 . S
C2187 C2192 1.350 . S
C2187 N2195 1.427 . S
C2188 H2179 0.930 . S
C2188 C2186 1.378 . S
C2188 C2189 1.367 . S
C2189 C2188 1.367 . S
C2189 C2191 1.433 . S
C2190 C2186 1.350 . S
C2190 C2187 1.463 . S
C2190 N2194 1.427 . S
C2191 H2181 0.929 . S
C2191 C2189 1.433 . S
C2191 N2194 1.384 . S
C2192 H2183 0.929 . S
C2192 C2184 1.378 . S
C2192 C2187 1.350 . S
C2193 H2180 0.929 . S
C2193 C2185 1.433 . S
C2193 N2195 1.384 . S
N2194 C2190 1.427 . S
N2194 C2191 1.384 . S
N2195 C2187 1.427 . S
N2195 C2193 1.384 . S
H2196 C2202 0.930 . S
H2197 C2206 0.930 . S
H2198 C2211 0.929 . S
H2199 C2209 0.929 . S
H2200 C2204 0.929 . S
H2201 C2210 0.929 . S
C2202 H2196 0.930 . S
C2202 C2203 1.367 . S
C2202 C2210 1.378 . S
C2203 C2202 1.367 . S
C2203 C2211 1.433 . S
C2204 H2200 0.929 . S
C2204 C2206 1.378 . S
C2204 C2208 1.350 . S
C2205 C2208 1.463 . S
C2205 C2210 1.350 . S
C2205 N2213 1.427 . S
C2206 H2197 0.930 . S
C2206 C2204 1.378 . S
C2206 C2207 1.367 . S
C2207 C2206 1.367 . S
C2207 C2209 1.433 . S
C2208 C2204 1.350 . S
C2208 C2205 1.463 . S
C2208 N2212 1.427 . S
C2209 H2199 0.929 . S
C2209 C2207 1.433 . S
C2209 N2212 1.384 . S
C2210 H2201 0.929 . S
C2210 C2202 1.378 . S
C2210 C2205 1.350 . S
C2211 H2198 0.929 . S
C2211 C2203 1.433 . S
C2211 N2213 1.384 . S
N2212 C2208 1.427 . S
N2212 C2209 1.384 . S
N2213 C2205 1.427 . S
N2213 C2211 1.384 . S
H2214 C2220 0.930 . S
H2215 C2224 0.930 . S
H2216 C2229 0.929 . S
H2217 C2227 0.929 . S
H2218 C2222 0.929 . S
H2219 C2228 0.929 . S
C2220 H2214 0.930 . S
C2220 C2221 1.367 . S
C2220 C2228 1.378 . S
C2221 C2220 1.367 . S
C2221 C2229 1.433 . S
C2222 H2218 0.929 . S
C2222 C2224 1.378 . S
C2222 C2226 1.350 . S
C2223 C2226 1.463 . S
C2223 C2228 1.350 . S
C2223 N2231 1.427 . S
C2224 H2215 0.930 . S
C2224 C2222 1.378 . S
C2224 C2225 1.367 . S
C2225 C2224 1.367 . S
C2225 C2227 1.433 . S
C2226 C2222 1.350 . S
C2226 C2223 1.463 . S
C2226 N2230 1.427 . S
C2227 H2217 0.929 . S
C2227 C2225 1.433 . S
C2227 N2230 1.384 . S
C2228 H2219 0.929 . S
C2228 C2220 1.378 . S
C2228 C2223 1.350 . S
C2229 H2216 0.929 . S
C2229 C2221 1.433 . S
C2229 N2231 1.384 . S
N2230 C2226 1.427 . S
N2230 C2227 1.384 . S
N2231 C2223 1.427 . S
N2231 C2229 1.384 . S
H2232 C2238 0.930 . S
H2233 C2242 0.930 . S
H2234 C2247 0.929 . S
H2235 C2245 0.929 . S
H2236 C2240 0.929 . S
H2237 C2246 0.929 . S
C2238 H2232 0.930 . S
C2238 C2239 1.367 . S
C2238 C2246 1.378 . S
C2239 C2238 1.367 . S
C2239 C2247 1.433 . S
C2240 H2236 0.929 . S
C2240 C2242 1.378 . S
C2240 C2244 1.350 . S
C2241 C2244 1.463 . S
C2241 C2246 1.350 . S
C2241 N2249 1.427 . S
C2242 H2233 0.930 . S
C2242 C2240 1.378 . S
C2242 C2243 1.367 . S
C2243 C2242 1.367 . S
C2243 C2245 1.433 . S
C2244 C2240 1.350 . S
C2244 C2241 1.463 . S
C2244 N2248 1.427 . S
C2245 H2235 0.929 . S
C2245 C2243 1.433 . S
C2245 N2248 1.384 . S
C2246 H2237 0.929 . S
C2246 C2238 1.378 . S
C2246 C2241 1.350 . S
C2247 H2234 0.929 . S
C2247 C2239 1.433 . S
C2247 N2249 1.384 . S
N2248 C2244 1.427 . S
N2248 C2245 1.384 . S
N2249 C2241 1.427 . S
N2249 C2247 1.384 . S
H2250 C2256 0.930 . S
H2251 C2260 0.930 . S
H2252 C2265 0.929 . S
H2253 C2263 0.929 . S
H2254 C2258 0.929 . S
H2255 C2264 0.929 . S
C2256 H2250 0.930 . S
C2256 C2257 1.367 . S
C2256 C2264 1.378 . S
C2257 C2256 1.367 . S
C2257 C2265 1.433 . S
C2258 H2254 0.929 . S
C2258 C2260 1.378 . S
C2258 C2262 1.350 . S
C2259 C2262 1.463 . S
C2259 C2264 1.350 . S
C2259 N2267 1.427 . S
C2260 H2251 0.930 . S
C2260 C2258 1.378 . S
C2260 C2261 1.367 . S
C2261 C2260 1.367 . S
C2261 C2263 1.433 . S
C2262 C2258 1.350 . S
C2262 C2259 1.463 . S
C2262 N2266 1.427 . S
C2263 H2253 0.929 . S
C2263 C2261 1.433 . S
C2263 N2266 1.384 . S
C2264 H2255 0.929 . S
C2264 C2256 1.378 . S
C2264 C2259 1.350 . S
C2265 H2252 0.929 . S
C2265 C2257 1.433 . S
C2265 N2267 1.384 . S
N2266 C2262 1.427 . S
N2266 C2263 1.384 . S
N2267 C2259 1.427 . S
N2267 C2265 1.384 . S
H2268 C2274 0.930 . S
H2269 C2278 0.930 . S
H2270 C2283 0.929 . S
H2271 C2281 0.929 . S
H2272 C2276 0.929 . S
H2273 C2282 0.929 . S
C2274 H2268 0.930 . S
C2274 C2275 1.367 . S
C2274 C2282 1.378 . S
C2275 C2274 1.367 . S
C2275 C2283 1.433 . S
C2276 H2272 0.929 . S
C2276 C2278 1.378 . S
C2276 C2280 1.350 . S
C2277 C2280 1.463 . S
C2277 C2282 1.350 . S
C2277 N2285 1.427 . S
C2278 H2269 0.930 . S
C2278 C2276 1.378 . S
C2278 C2279 1.367 . S
C2279 C2278 1.367 . S
C2279 C2281 1.433 . S
C2280 C2276 1.350 . S
C2280 C2277 1.463 . S
C2280 N2284 1.427 . S
C2281 H2271 0.929 . S
C2281 C2279 1.433 . S
C2281 N2284 1.384 . S
C2282 H2273 0.929 . S
C2282 C2274 1.378 . S
C2282 C2277 1.350 . S
C2283 H2270 0.929 . S
C2283 C2275 1.433 . S
C2283 N2285 1.384 . S
N2284 C2280 1.427 . S
N2284 C2281 1.384 . S
N2285 C2277 1.427 . S
N2285 C2283 1.384 . S
H2286 C2292 0.930 . S
H2287 C2296 0.930 . S
H2288 C2301 0.929 . S
H2289 C2299 0.975 . S
H2290 C2294 0.929 . S
H2291 C2300 0.977 . S
C2292 H2286 0.930 . S
C2292 C2293 1.367 . S
C2292 C2300 1.378 . S
C2293 C2292 1.367 . S
C2293 C2301 1.433 . S
C2294 H2290 0.929 . S
C2294 C2296 1.378 . S
C2294 C2298 1.350 . S
C2295 C2298 1.463 . S
C2295 C2300 1.350 . S
C2295 N2303 1.427 . S
C2296 H2287 0.930 . S
C2296 C2294 1.378 . S
C2296 C2297 1.367 . S
C2297 C2296 1.367 . S
C2297 C2299 1.432 1_455 S
C2298 C2294 1.350 . S
C2298 C2295 1.463 . S
C2298 N2302 1.427 . S
C2299 H2289 0.975 . S
C2299 C2297 1.432 1_655 S
C2299 N2302 1.341 1_655 S
C2300 H2291 0.977 . S
C2300 C2292 1.378 . S
C2300 C2295 1.350 . S
C2301 H2288 0.929 . S
C2301 C2293 1.433 . S
C2301 N2303 1.384 . S
N2302 C2298 1.427 . S
N2302 C2299 1.341 1_455 S
N2303 C2295 1.427 . S
N2303 C2301 1.384 . S
H2304 C2310 0.930 . S
H2305 C2314 0.930 . S
H2306 C2319 0.929 . S
H2307 C2317 0.929 . S
H2308 C2312 0.929 . S
H2309 C2318 0.929 . S
C2310 H2304 0.930 . S
C2310 C2311 1.367 . S
C2310 C2318 1.378 . S
C2311 C2310 1.367 . S
C2311 C2319 1.433 . S
C2312 H2308 0.929 . S
C2312 C2314 1.378 . S
C2312 C2316 1.350 . S
C2313 C2316 1.463 . S
C2313 C2318 1.350 . S
C2313 N2321 1.427 . S
C2314 H2305 0.930 . S
C2314 C2312 1.378 . S
C2314 C2315 1.367 . S
C2315 C2314 1.367 . S
C2315 C2317 1.433 . S
C2316 C2312 1.350 . S
C2316 C2313 1.463 . S
C2316 N2320 1.427 . S
C2317 H2307 0.929 . S
C2317 C2315 1.433 . S
C2317 N2320 1.384 . S
C2318 H2309 0.929 . S
C2318 C2310 1.378 . S
C2318 C2313 1.350 . S
C2319 H2306 0.929 . S
C2319 C2311 1.433 . S
C2319 N2321 1.384 . S
N2320 C2316 1.427 . S
N2320 C2317 1.384 . S
N2321 C2313 1.427 . S
N2321 C2319 1.384 . S
H2322 C2328 0.930 . S
H2323 C2332 0.930 . S
H2324 C2337 0.942 . S
H2325 C2335 0.929 . S
H2326 C2330 0.950 . S
H2327 C2336 0.929 . S
C2328 H2322 0.930 . S
C2328 C2329 1.367 . S
C2328 C2336 1.378 . S
C2329 C2328 1.367 . S
C2329 C2337 1.433 . S
C2330 H2326 0.950 . S
C2330 C2332 1.369 . S
C2330 C2334 1.338 1_545 S
C2331 C2334 1.463 . S
C2331 C2336 1.350 . S
C2331 N2339 1.427 . S
C2332 H2323 0.930 . S
C2332 C2330 1.369 . S
C2332 C2333 1.367 1_545 S
C2333 C2332 1.367 1_565 S
C2333 C2335 1.433 . S
C2334 C2330 1.338 1_565 S
C2334 C2331 1.463 . S
C2334 N2338 1.427 . S
C2335 H2325 0.929 . S
C2335 C2333 1.433 . S
C2335 N2338 1.384 . S
C2336 H2327 0.929 . S
C2336 C2328 1.378 . S
C2336 C2331 1.350 . S
C2337 H2324 0.942 . S
C2337 C2329 1.433 . S
C2337 N2339 1.384 . S
N2338 C2334 1.427 . S
N2338 C2335 1.384 . S
N2339 C2331 1.427 . S
N2339 C2337 1.384 . S
H2340 C2346 0.930 1_545 S
H2341 C2350 0.930 . S
H2342 C2355 0.929 . S
H2343 C2353 0.929 . S
H2344 C2348 0.929 . S
H2345 C2354 0.929 1_545 S
C2346 H2340 0.930 1_565 S
C2346 C2347 1.367 . S
C2346 C2354 1.378 . S
C2347 C2346 1.367 . S
C2347 C2355 1.433 . S
C2348 H2344 0.929 . S
C2348 C2350 1.378 . S
C2348 C2352 1.350 . S
C2349 C2352 1.463 . S
C2349 C2354 1.350 . S
C2349 N2357 1.427 . S
C2350 H2341 0.930 . S
C2350 C2348 1.378 . S
C2350 C2351 1.367 . S
C2351 C2350 1.367 . S
C2351 C2353 1.433 1_565 S
C2352 C2348 1.350 . S
C2352 C2349 1.463 . S
C2352 N2356 1.427 1_565 S
C2353 H2343 0.929 . S
C2353 C2351 1.433 1_545 S
C2353 N2356 1.384 . S
C2354 H2345 0.929 1_565 S
C2354 C2346 1.378 . S
C2354 C2349 1.350 . S
C2355 H2342 0.929 . S
C2355 C2347 1.433 . S
C2355 N2357 1.384 . S
N2356 C2352 1.427 1_545 S
N2356 C2353 1.384 . S
N2357 C2349 1.427 . S
N2357 C2355 1.384 . S
H2358 C2364 0.930 . S
H2359 C2368 0.930 1_655 S
H2360 C2373 0.929 . S
H2361 C2371 0.929 . S
H2362 C2366 0.929 . S
H2363 C2372 0.929 . S
C2364 H2358 0.930 . S
C2364 C2365 1.367 . S
C2364 C2372 1.378 . S
C2365 C2364 1.367 . S
C2365 C2373 1.433 . S
C2366 H2362 0.929 . S
C2366 C2368 1.378 . S
C2366 C2370 1.350 . S
C2367 C2370 1.463 . S
C2367 C2372 1.350 . S
C2367 N2375 1.427 . S
C2368 H2359 0.930 1_455 S
C2368 C2366 1.378 . S
C2368 C2369 1.367 . S
C2369 C2368 1.367 . S
C2369 C2371 1.433 . S
C2370 C2366 1.350 . S
C2370 C2367 1.463 . S
C2370 N2374 1.427 . S
C2371 H2361 0.929 . S
C2371 C2369 1.433 . S
C2371 N2374 1.384 . S
C2372 H2363 0.929 . S
C2372 C2364 1.378 . S
C2372 C2367 1.350 . S
C2373 H2360 0.929 . S
C2373 C2365 1.433 . S
C2373 N2375 1.384 . S
N2374 C2370 1.427 . S
N2374 C2371 1.384 . S
N2375 C2367 1.427 . S
N2375 C2373 1.384 . S
H2376 C2382 0.930 . S
H2377 C2386 0.930 . S
H2378 C2391 0.929 . S
H2379 C2389 0.929 . S
H2380 C2384 0.929 . S
H2381 C2390 0.929 . S
C2382 H2376 0.930 . S
C2382 C2383 1.367 . S
C2382 C2390 1.378 . S
C2383 C2382 1.367 . S
C2383 C2391 1.433 . S
C2384 H2380 0.929 . S
C2384 C2386 1.378 . S
C2384 C2388 1.350 . S
C2385 C2388 1.463 . S
C2385 C2390 1.350 . S
C2385 N2393 1.427 . S
C2386 H2377 0.930 . S
C2386 C2384 1.378 . S
C2386 C2387 1.367 . S
C2387 C2386 1.367 . S
C2387 C2389 1.433 . S
C2388 C2384 1.350 . S
C2388 C2385 1.463 . S
C2388 N2392 1.427 . S
C2389 H2379 0.929 . S
C2389 C2387 1.433 . S
C2389 N2392 1.384 . S
C2390 H2381 0.929 . S
C2390 C2382 1.378 . S
C2390 C2385 1.350 . S
C2391 H2378 0.929 . S
C2391 C2383 1.433 . S
C2391 N2393 1.384 . S
N2392 C2388 1.427 . S
N2392 C2389 1.384 . S
N2393 C2385 1.427 . S
N2393 C2391 1.384 . S
H2394 C2400 0.930 . S
H2395 C2404 0.930 . S
H2396 C2409 0.929 . S
H2397 C2407 0.929 . S
H2398 C2402 0.929 . S
H2399 C2408 0.929 . S
C2400 H2394 0.930 . S
C2400 C2401 1.367 . S
C2400 C2408 1.378 . S
C2401 C2400 1.367 . S
C2401 C2409 1.433 . S
C2402 H2398 0.929 . S
C2402 C2404 1.378 . S
C2402 C2406 1.350 . S
C2403 C2406 1.463 . S
C2403 C2408 1.350 . S
C2403 N2411 1.427 . S
C2404 H2395 0.930 . S
C2404 C2402 1.378 . S
C2404 C2405 1.367 . S
C2405 C2404 1.367 . S
C2405 C2407 1.433 . S
C2406 C2402 1.350 . S
C2406 C2403 1.463 . S
C2406 N2410 1.427 . S
C2407 H2397 0.929 . S
C2407 C2405 1.433 . S
C2407 N2410 1.384 . S
C2408 H2399 0.929 . S
C2408 C2400 1.378 . S
C2408 C2403 1.350 . S
C2409 H2396 0.929 . S
C2409 C2401 1.433 . S
C2409 N2411 1.384 . S
N2410 C2406 1.427 . S
N2410 C2407 1.384 . S
N2411 C2403 1.427 . S
N2411 C2409 1.384 . S
H2412 C2418 0.930 . S
H2413 C2422 0.930 . S
H2414 C2427 0.929 . S
H2415 C2425 0.929 . S
H2416 C2420 0.929 . S
H2417 C2426 0.929 . S
C2418 H2412 0.930 . S
C2418 C2419 1.367 . S
C2418 C2426 1.378 . S
C2419 C2418 1.367 . S
C2419 C2427 1.433 . S
C2420 H2416 0.929 . S
C2420 C2422 1.378 . S
C2420 C2424 1.350 . S
C2421 C2424 1.463 . S
C2421 C2426 1.350 . S
C2421 N2429 1.427 . S
C2422 H2413 0.930 . S
C2422 C2420 1.378 . S
C2422 C2423 1.367 . S
C2423 C2422 1.367 . S
C2423 C2425 1.433 . S
C2424 C2420 1.350 . S
C2424 C2421 1.463 . S
C2424 N2428 1.427 . S
C2425 H2415 0.929 . S
C2425 C2423 1.433 . S
C2425 N2428 1.384 . S
C2426 H2417 0.929 . S
C2426 C2418 1.378 . S
C2426 C2421 1.350 . S
C2427 H2414 0.929 . S
C2427 C2419 1.433 . S
C2427 N2429 1.384 . S
N2428 C2424 1.427 . S
N2428 C2425 1.384 . S
N2429 C2421 1.427 . S
N2429 C2427 1.384 . S
H2430 C2436 0.930 . S
H2431 C2440 0.930 . S
H2432 C2445 0.929 . S
H2433 C2443 0.929 . S
H2434 C2438 0.929 . S
H2435 C2444 0.929 . S
C2436 H2430 0.930 . S
C2436 C2437 1.367 . S
C2436 C2444 1.378 . S
C2437 C2436 1.367 . S
C2437 C2445 1.433 . S
C2438 H2434 0.929 . S
C2438 C2440 1.378 . S
C2438 C2442 1.350 . S
C2439 C2442 1.463 . S
C2439 C2444 1.350 . S
C2439 N2447 1.427 . S
C2440 H2431 0.930 . S
C2440 C2438 1.378 . S
C2440 C2441 1.367 . S
C2441 C2440 1.367 . S
C2441 C2443 1.433 . S
C2442 C2438 1.350 . S
C2442 C2439 1.463 . S
C2442 N2446 1.427 . S
C2443 H2433 0.929 . S
C2443 C2441 1.433 . S
C2443 N2446 1.384 . S
C2444 H2435 0.929 . S
C2444 C2436 1.378 . S
C2444 C2439 1.350 . S
C2445 H2432 0.929 . S
C2445 C2437 1.433 . S
C2445 N2447 1.384 . S
N2446 C2442 1.427 . S
N2446 C2443 1.384 . S
N2447 C2439 1.427 . S
N2447 C2445 1.384 . S
H2448 C2454 0.930 1_565 S
H2449 C2458 0.930 . S
H2450 C2463 0.929 . S
H2451 C2461 0.929 . S
H2452 C2456 0.929 . S
H2453 C2462 0.929 1_565 S
C2454 H2448 0.930 1_545 S
C2454 C2455 1.367 . S
C2454 C2462 1.378 . S
C2455 C2454 1.367 . S
C2455 C2463 1.433 . S
C2456 H2452 0.929 . S
C2456 C2458 1.378 . S
C2456 C2460 1.350 . S
C2457 C2460 1.463 . S
C2457 C2462 1.350 . S
C2457 N2465 1.427 . S
C2458 H2449 0.930 . S
C2458 C2456 1.378 . S
C2458 C2459 1.367 . S
C2459 C2458 1.367 . S
C2459 C2461 1.433 1_545 S
C2460 C2456 1.350 . S
C2460 C2457 1.463 . S
C2460 N2464 1.427 1_545 S
C2461 H2451 0.929 . S
C2461 C2459 1.433 1_565 S
C2461 N2464 1.384 . S
C2462 H2453 0.929 1_545 S
C2462 C2454 1.378 . S
C2462 C2457 1.350 . S
C2463 H2450 0.929 . S
C2463 C2455 1.433 . S
C2463 N2465 1.384 . S
N2464 C2460 1.427 1_565 S
N2464 C2461 1.384 . S
N2465 C2457 1.427 . S
N2465 C2463 1.384 . S
H2466 C2472 0.930 1_455 S
H2467 C2476 0.930 . S
H2468 C2481 0.929 . S
H2469 C2479 0.929 . S
H2470 C2474 0.929 . S
H2471 C2480 0.929 1_455 S
C2472 H2466 0.930 1_655 S
C2472 C2473 1.367 . S
C2472 C2480 1.378 . S
C2473 C2472 1.367 . S
C2473 C2481 1.433 . S
C2474 H2470 0.929 . S
C2474 C2476 1.378 . S
C2474 C2478 1.350 . S
C2475 C2478 1.463 . S
C2475 C2480 1.350 . S
C2475 N2483 1.427 . S
C2476 H2467 0.930 . S
C2476 C2474 1.378 . S
C2476 C2477 1.367 . S
C2477 C2476 1.367 . S
C2477 C2479 1.433 1_655 S
C2478 C2474 1.350 . S
C2478 C2475 1.463 . S
C2478 N2482 1.427 1_655 S
C2479 H2469 0.929 . S
C2479 C2477 1.433 1_455 S
C2479 N2482 1.384 . S
C2480 H2471 0.929 1_655 S
C2480 C2472 1.378 . S
C2480 C2475 1.350 . S
C2481 H2468 0.929 . S
C2481 C2473 1.433 . S
C2481 N2483 1.384 . S
N2482 C2478 1.427 1_455 S
N2482 C2479 1.384 . S
N2483 C2475 1.427 . S
N2483 C2481 1.384 . S
H2484 C2490 0.930 . S
H2485 C2494 0.930 . S
H2486 C2499 0.929 . S
H2487 C2497 0.929 . S
H2488 C2492 0.929 . S
H2489 C2498 0.929 . S
C2490 H2484 0.930 . S
C2490 C2491 1.367 . S
C2490 C2498 1.378 . S
C2491 C2490 1.367 . S
C2491 C2499 1.433 . S
C2492 H2488 0.929 . S
C2492 C2494 1.378 . S
C2492 C2496 1.350 . S
C2493 C2496 1.463 . S
C2493 C2498 1.350 . S
C2493 N2501 1.427 . S
C2494 H2485 0.930 . S
C2494 C2492 1.378 . S
C2494 C2495 1.367 . S
C2495 C2494 1.367 . S
C2495 C2497 1.433 . S
C2496 C2492 1.350 . S
C2496 C2493 1.463 . S
C2496 N2500 1.427 . S
C2497 H2487 0.929 . S
C2497 C2495 1.433 . S
C2497 N2500 1.384 . S
C2498 H2489 0.929 . S
C2498 C2490 1.378 . S
C2498 C2493 1.350 . S
C2499 H2486 0.929 . S
C2499 C2491 1.433 . S
C2499 N2501 1.384 . S
N2500 C2496 1.427 . S
N2500 C2497 1.384 . S
N2501 C2493 1.427 . S
N2501 C2499 1.384 . S
H2502 C2508 0.930 . S
H2503 C2512 0.930 . S
H2504 C2517 0.929 . S
H2505 C2515 0.929 . S
H2506 C2510 0.929 . S
H2507 C2516 0.929 . S
C2508 H2502 0.930 . S
C2508 C2509 1.367 . S
C2508 C2516 1.378 . S
C2509 C2508 1.367 . S
C2509 C2517 1.433 . S
C2510 H2506 0.929 . S
C2510 C2512 1.378 . S
C2510 C2514 1.350 . S
C2511 C2514 1.463 . S
C2511 C2516 1.350 . S
C2511 N2519 1.427 . S
C2512 H2503 0.930 . S
C2512 C2510 1.378 . S
C2512 C2513 1.367 . S
C2513 C2512 1.367 . S
C2513 C2515 1.433 . S
C2514 C2510 1.350 . S
C2514 C2511 1.463 . S
C2514 N2518 1.427 . S
C2515 H2505 0.929 . S
C2515 C2513 1.433 . S
C2515 N2518 1.384 . S
C2516 H2507 0.929 . S
C2516 C2508 1.378 . S
C2516 C2511 1.350 . S
C2517 H2504 0.929 . S
C2517 C2509 1.433 . S
C2517 N2519 1.384 . S
N2518 C2514 1.427 . S
N2518 C2515 1.384 . S
N2519 C2511 1.427 . S
N2519 C2517 1.384 . S
H2520 C2526 0.930 . S
H2521 C2530 0.930 . S
H2522 C2535 0.929 . S
H2523 C2533 0.929 . S
H2524 C2528 0.929 . S
H2525 C2534 0.929 . S
C2526 H2520 0.930 . S
C2526 C2527 1.367 . S
C2526 C2534 1.378 . S
C2527 C2526 1.367 . S
C2527 C2535 1.433 . S
C2528 H2524 0.929 . S
C2528 C2530 1.378 . S
C2528 C2532 1.350 . S
C2529 C2532 1.463 . S
C2529 C2534 1.350 . S
C2529 N2537 1.427 . S
C2530 H2521 0.930 . S
C2530 C2528 1.378 . S
C2530 C2531 1.367 . S
C2531 C2530 1.367 . S
C2531 C2533 1.433 . S
C2532 C2528 1.350 . S
C2532 C2529 1.463 . S
C2532 N2536 1.427 . S
C2533 H2523 0.929 . S
C2533 C2531 1.433 . S
C2533 N2536 1.384 . S
C2534 H2525 0.929 . S
C2534 C2526 1.378 . S
C2534 C2529 1.350 . S
C2535 H2522 0.929 . S
C2535 C2527 1.433 . S
C2535 N2537 1.384 . S
N2536 C2532 1.427 . S
N2536 C2533 1.384 . S
N2537 C2529 1.427 . S
N2537 C2535 1.384 . S
H2538 C2544 0.930 . S
H2539 C2548 0.930 . S
H2540 C2553 0.929 . S
H2541 C2551 0.929 . S
H2542 C2546 0.929 . S
H2543 C2552 0.929 . S
C2544 H2538 0.930 . S
C2544 C2545 1.367 . S
C2544 C2552 1.378 . S
C2545 C2544 1.367 . S
C2545 C2553 1.433 . S
C2546 H2542 0.929 . S
C2546 C2548 1.378 . S
C2546 C2550 1.350 . S
C2547 C2550 1.463 . S
C2547 C2552 1.350 . S
C2547 N2555 1.427 . S
C2548 H2539 0.930 . S
C2548 C2546 1.378 . S
C2548 C2549 1.367 . S
C2549 C2548 1.367 . S
C2549 C2551 1.433 . S
C2550 C2546 1.350 . S
C2550 C2547 1.463 . S
C2550 N2554 1.427 . S
C2551 H2541 0.929 . S
C2551 C2549 1.433 . S
C2551 N2554 1.384 . S
C2552 H2543 0.929 . S
C2552 C2544 1.378 . S
C2552 C2547 1.350 . S
C2553 H2540 0.929 . S
C2553 C2545 1.433 . S
C2553 N2555 1.384 . S
N2554 C2550 1.427 . S
N2554 C2551 1.384 . S
N2555 C2547 1.427 . S
N2555 C2553 1.384 . S
H2556 C2562 0.930 . S
H2557 C2566 0.930 . S
H2558 C2571 0.929 . S
H2559 C2569 0.929 . S
H2560 C2564 0.929 . S
H2561 C2570 0.929 . S
C2562 H2556 0.930 . S
C2562 C2563 1.367 . S
C2562 C2570 1.378 . S
C2563 C2562 1.367 . S
C2563 C2571 1.433 . S
C2564 H2560 0.929 . S
C2564 C2566 1.378 . S
C2564 C2568 1.350 . S
C2565 C2568 1.463 . S
C2565 C2570 1.350 . S
C2565 N2573 1.427 . S
C2566 H2557 0.930 . S
C2566 C2564 1.378 . S
C2566 C2567 1.367 . S
C2567 C2566 1.367 . S
C2567 C2569 1.433 . S
C2568 C2564 1.350 . S
C2568 C2565 1.463 . S
C2568 N2572 1.427 . S
C2569 H2559 0.929 . S
C2569 C2567 1.433 . S
C2569 N2572 1.384 . S
C2570 H2561 0.929 . S
C2570 C2562 1.378 . S
C2570 C2565 1.350 . S
C2571 H2558 0.929 . S
C2571 C2563 1.433 . S
C2571 N2573 1.384 . S
N2572 C2568 1.427 . S
N2572 C2569 1.384 . S
N2573 C2565 1.427 . S
N2573 C2571 1.384 . S
H2574 C2580 0.930 . S
H2575 C2584 0.930 . S
H2576 C2589 0.929 . S
H2577 C2587 0.929 . S
H2578 C2582 0.929 . S
H2579 C2588 0.929 . S
C2580 H2574 0.930 . S
C2580 C2581 1.367 . S
C2580 C2588 1.378 . S
C2581 C2580 1.367 . S
C2581 C2589 1.433 . S
C2582 H2578 0.929 . S
C2582 C2584 1.378 . S
C2582 C2586 1.350 . S
C2583 C2586 1.463 . S
C2583 C2588 1.350 . S
C2583 N2591 1.427 . S
C2584 H2575 0.930 . S
C2584 C2582 1.378 . S
C2584 C2585 1.367 . S
C2585 C2584 1.367 . S
C2585 C2587 1.433 . S
C2586 C2582 1.350 . S
C2586 C2583 1.463 . S
C2586 N2590 1.427 . S
C2587 H2577 0.929 . S
C2587 C2585 1.433 . S
C2587 N2590 1.384 . S
C2588 H2579 0.929 . S
C2588 C2580 1.378 . S
C2588 C2583 1.350 . S
C2589 H2576 0.929 . S
C2589 C2581 1.433 . S
C2589 N2591 1.384 . S
N2590 C2586 1.427 . S
N2590 C2587 1.384 . S
N2591 C2583 1.427 . S
N2591 C2589 1.384 . S
H2592 C2598 0.930 . S
H2593 C2602 0.930 . S
H2594 C2607 0.929 . S
H2595 C2605 0.929 . S
H2596 C2600 0.929 . S
H2597 C2606 0.929 . S
C2598 H2592 0.930 . S
C2598 C2599 1.367 . S
C2598 C2606 1.378 . S
C2599 C2598 1.367 . S
C2599 C2607 1.433 . S
C2600 H2596 0.929 . S
C2600 C2602 1.378 . S
C2600 C2604 1.350 . S
C2601 C2604 1.463 . S
C2601 C2606 1.350 . S
C2601 N2609 1.427 . S
C2602 H2593 0.930 . S
C2602 C2600 1.378 . S
C2602 C2603 1.367 . S
C2603 C2602 1.367 . S
C2603 C2605 1.433 . S
C2604 C2600 1.350 . S
C2604 C2601 1.463 . S
C2604 N2608 1.427 . S
C2605 H2595 0.929 . S
C2605 C2603 1.433 . S
C2605 N2608 1.384 . S
C2606 H2597 0.929 . S
C2606 C2598 1.378 . S
C2606 C2601 1.350 . S
C2607 H2594 0.929 . S
C2607 C2599 1.433 . S
C2607 N2609 1.384 . S
N2608 C2604 1.427 . S
N2608 C2605 1.384 . S
N2609 C2601 1.427 . S
N2609 C2607 1.384 . S
H2610 C2616 0.930 . S
H2611 C2620 0.930 . S
H2612 C2625 0.929 1_455 S
H2613 C2623 0.929 . S
H2614 C2618 0.929 . S
H2615 C2624 0.929 . S
C2616 H2610 0.930 . S
C2616 C2617 1.367 . S
C2616 C2624 1.378 . S
C2617 C2616 1.367 . S
C2617 C2625 1.433 . S
C2618 H2614 0.929 . S
C2618 C2620 1.378 . S
C2618 C2622 1.350 1_455 S
C2619 C2622 1.463 . S
C2619 C2624 1.350 . S
C2619 N2627 1.469 . S
C2620 H2611 0.930 . S
C2620 C2618 1.378 . S
C2620 C2621 1.367 1_455 S
C2621 C2620 1.367 1_655 S
C2621 C2623 1.433 . S
C2622 C2618 1.350 1_655 S
C2622 C2619 1.463 . S
C2622 N2626 1.427 . S
C2623 H2613 0.929 . S
C2623 C2621 1.433 . S
C2623 N2626 1.384 . S
C2624 H2615 0.929 . S
C2624 C2616 1.378 . S
C2624 C2619 1.350 . S
C2625 H2612 0.929 1_655 S
C2625 C2617 1.433 . S
C2625 N2627 1.437 . S
N2626 C2622 1.427 . S
N2626 C2623 1.384 . S
N2627 C2619 1.469 . S
N2627 C2625 1.437 . S
H2628 C2634 0.930 . S
H2629 C2638 0.930 . S
H2630 C2643 0.929 . S
H2631 C2641 0.929 . S
H2632 C2636 0.929 . S
H2633 C2642 0.929 . S
C2634 H2628 0.930 . S
C2634 C2635 1.367 . S
C2634 C2642 1.378 . S
C2635 C2634 1.367 . S
C2635 C2643 1.433 . S
C2636 H2632 0.929 . S
C2636 C2638 1.378 . S
C2636 C2640 1.350 . S
C2637 C2640 1.463 . S
C2637 C2642 1.350 . S
C2637 N2645 1.427 . S
C2638 H2629 0.930 . S
C2638 C2636 1.378 . S
C2638 C2639 1.367 . S
C2639 C2638 1.367 . S
C2639 C2641 1.433 . S
C2640 C2636 1.350 . S
C2640 C2637 1.463 . S
C2640 N2644 1.427 . S
C2641 H2631 0.929 . S
C2641 C2639 1.433 . S
C2641 N2644 1.384 . S
C2642 H2633 0.929 . S
C2642 C2634 1.378 . S
C2642 C2637 1.350 . S
C2643 H2630 0.929 . S
C2643 C2635 1.433 . S
C2643 N2645 1.384 . S
N2644 C2640 1.427 . S
N2644 C2641 1.384 . S
N2645 C2637 1.427 . S
N2645 C2643 1.384 . S
H2646 C2652 0.930 1_565 S
H2647 C2656 0.930 . S
H2648 C2661 0.929 . S
H2649 C2659 0.929 . S
H2650 C2654 0.929 . S
H2651 C2660 0.929 1_565 S
C2652 H2646 0.930 1_545 S
C2652 C2653 1.367 . S
C2652 C2660 1.378 . S
C2653 C2652 1.367 . S
C2653 C2661 1.433 . S
C2654 H2650 0.929 . S
C2654 C2656 1.378 . S
C2654 C2658 1.350 . S
C2655 C2658 1.463 . S
C2655 C2660 1.350 . S
C2655 N2663 1.427 . S
C2656 H2647 0.930 . S
C2656 C2654 1.378 . S
C2656 C2657 1.367 . S
C2657 C2656 1.367 . S
C2657 C2659 1.433 1_545 S
C2658 C2654 1.350 . S
C2658 C2655 1.463 . S
C2658 N2662 1.427 1_545 S
C2659 H2649 0.929 . S
C2659 C2657 1.433 1_565 S
C2659 N2662 1.384 . S
C2660 H2651 0.929 1_545 S
C2660 C2652 1.378 . S
C2660 C2655 1.350 . S
C2661 H2648 0.929 . S
C2661 C2653 1.433 . S
C2661 N2663 1.384 . S
N2662 C2658 1.427 1_565 S
N2662 C2659 1.384 . S
N2663 C2655 1.427 . S
N2663 C2661 1.384 . S
C1375 C9 1.543 1_655 S
C1379 C857 1.510 . S
C1393 C19 1.609 . S
C1397 C901 1.568 . S
C1415 C981 1.555 . S
C1411 C33 1.615 . S
C1429 C37 1.600 . S
C1433 C1025 1.554 . S
C1447 C5 1.575 . S
C1451 C1105 1.517 . S
C1465 C23 1.638 . S
C1469 C1167 1.566 . S
C1483 C47 1.592 . S
C1487 C1087 1.536 . S
C1505 C1149 1.580 . S
C1501 C65 1.653 . S
C1523 C1043 1.546 . S
C1519 C75 1.584 . S
C1537 C79 1.550 . S
C1541 C963 1.485 . S
C1559 C839 1.551 . S
C1555 C51 1.632 1_655 S
C1573 C61 1.629 . S
C1577 C919 1.584 . S
C1591 C93 1.701 . S
C1595 C1229 1.604 . S
C1609 C103 1.649 . S
C1613 C1273 1.612 . S
C1631 C1353 1.603 . S
C1627 C117 1.686 . S
C1645 C121 1.667 . S
C1649 C299 1.590 . S
C1663 C89 1.665 . S
C1667 C343 1.619 . S
C1681 C107 1.673 . S
C1685 C423 1.583 . S
C1699 C131 1.655 . S
C1703 C361 1.608 . S
C1717 C149 1.680 . S
C1721 C405 1.605 . S
C1739 C281 1.564 . S
C1735 C159 1.650 . S
C1757 C1335 1.591 . S
C1753 C163 1.669 . S
C1775 C1211 1.617 . S
C1771 C135 1.708 . S
C1793 C1291 1.630 . S
C1789 C145 1.671 . S
C1807 C177 1.662 . S
C1811 C485 1.576 . S
C1825 C187 1.629 . S
C1829 C547 1.550 . S
C1843 C201 1.686 . S
C1847 C591 1.638 . S
C1861 C205 1.706 . S
C1865 C653 1.658 . S
C1883 C715 1.619 . S
C1879 C173 1.666 . S
C1901 C795 1.613 . S
C1897 C191 1.690 . S
C1919 C733 1.654 . S
C1915 C215 1.698 . S
C1937 C777 1.625 . S
C1933 C233 1.704 . S
C1951 C243 1.646 . S
C1955 C671 1.602 . S
C1973 C609 1.582 . S
C1969 C247 1.623 . S
C1987 C219 1.711 . S
C1991 C467 1.613 . S
C2009 C529 1.588 . S
C2005 C229 1.665 . S
C2027 C305 1.470 . S
C2023 C11 1.543 . S
C2041 C14 1.532 . S
C2045 C349 1.463 . S
C2063 C429 1.530 . S
C2059 C28 1.612 . S
C2081 C491 1.518 . S
C2077 C39 1.614 . S
C2099 C553 1.477 . S
C2095 C0 1.551 1_556 S
C2117 C597 1.431 . S
C2113 C25 1.492 . S
C2131 C42 1.608 . S
C2135 C615 1.552 . S
C2149 C67 1.544 . S
C2153 C473 1.472 . S
C2167 C70 1.516 . S
C2171 C535 1.425 . S
C2185 C81 1.543 . S
C2189 C367 1.495 . S
C2207 C411 1.500 . S
C2203 C53 1.583 . S
C2221 C56 1.564 . S
C2225 C287 1.485 . S
C2243 C659 1.481 . S
C2239 C95 1.538 . S
C2257 C98 1.588 . S
C2261 C721 1.530 . S
C2275 C112 1.657 1_655 S
C2279 C801 1.576 . S
C2297 C863 1.438 . S
C2293 C123 1.489 . S
C2311 C84 1.549 . S
C2315 C907 1.493 . S
C2329 C109 1.425 . S
C2333 C987 1.370 . S
C2347 C126 1.515 . S
C2351 C969 1.452 . S
C2365 C151 1.466 . S
C2369 C845 1.421 . S
C2387 C925 1.470 . S
C2383 C154 1.522 . S
C2401 C165 1.528 . S
C2405 C739 1.472 . S
C2419 C137 1.614 . S
C2423 C783 1.539 . S
C2441 C677 1.553 . S
C2437 C140 1.623 1_655 S
C2459 C1031 1.411 . S
C2455 C179 1.461 . S
C2473 C182 1.464 . S
C2477 C1111 1.414 . S
C2491 C196 1.602 . S
C2495 C1173 1.530 . S
C2513 C1235 1.517 . S
C2509 C207 1.598 . S
C2531 C1279 1.533 . S
C2527 C168 1.595 1_565 S
C2545 C193 1.559 . S
C2549 C1359 1.483 . S
C2563 C210 1.606 . S
C2567 C1341 1.534 . S
C2581 C235 1.600 . S
C2585 C1217 1.521 . S
C2603 C1297 1.495 . S
C2599 C238 1.565 . S
C2621 C1093 1.375 . S
C2617 C249 1.419 . S
C2639 C1155 1.495 . S
C2635 C221 1.568 . S
C2653 C224 1.502 . S
C2657 C1049 1.451 . S
