# Generated by pormake.
# Topology pyr, (3,6)-cn, num edge types: 1
# Building blocks:
#     Node 0, Type 0, BuildingBlock: KAKCAD_clean_linker_0, # of connection points: 3
#     Node 1, Type 0, BuildingBlock: KAKCAD_clean_linker_0, # of connection points: 3
#     Node 2, Type 0, BuildingBlock: KAKCAD_clean_linker_0, # of connection points: 3
#     Node 3, Type 0, BuildingBlock: KAKCAD_clean_linker_0, # of connection points: 3
#     Node 4, Type 0, BuildingBlock: KAKCAD_clean_linker_0, # of connection points: 3
#     Node 5, Type 0, BuildingBlock: KAKCAD_clean_linker_0, # of connection points: 3
#     Node 6, Type 0, BuildingBlock: KAKCAD_clean_linker_0, # of connection points: 3
#     Node 7, Type 0, BuildingBlock: KAKCAD_clean_linker_0, # of connection points: 3
#     Node 8, Type 1, BuildingBlock: FUNLAD_clean_sbu_0, # of connection points: 6
#     Node 9, Type 1, BuildingBlock: FUNLAD_clean_sbu_0, # of connection points: 6
#     Node 10, Type 1, BuildingBlock: FUNLAD_clean_sbu_0, # of connection points: 6
#     Node 11, Type 1, BuildingBlock: FUNLAD_clean_sbu_0, # of connection points: 6
#     Edge 12, Type (0, 1), BuildingBlock: XIVTED_clean_linker_0, # of connection points: 2
#     Edge 13, Type (0, 1), BuildingBlock: XIVTED_clean_linker_0, # of connection points: 2
#     Edge 14, Type (0, 1), BuildingBlock: XIVTED_clean_linker_0, # of connection points: 2
#     Edge 15, Type (0, 1), BuildingBlock: XIVTED_clean_linker_0, # of connection points: 2
#     Edge 16, Type (0, 1), BuildingBlock: XIVTED_clean_linker_0, # of connection points: 2
#     Edge 17, Type (0, 1), BuildingBlock: XIVTED_clean_linker_0, # of connection points: 2
#     Edge 18, Type (0, 1), BuildingBlock: XIVTED_clean_linker_0, # of connection points: 2
#     Edge 19, Type (0, 1), BuildingBlock: XIVTED_clean_linker_0, # of connection points: 2
#     Edge 20, Type (0, 1), BuildingBlock: XIVTED_clean_linker_0, # of connection points: 2
#     Edge 21, Type (0, 1), BuildingBlock: XIVTED_clean_linker_0, # of connection points: 2
#     Edge 22, Type (0, 1), BuildingBlock: XIVTED_clean_linker_0, # of connection points: 2
#     Edge 23, Type (0, 1), BuildingBlock: XIVTED_clean_linker_0, # of connection points: 2
#     Edge 24, Type (0, 1), BuildingBlock: XIVTED_clean_linker_0, # of connection points: 2
#     Edge 25, Type (0, 1), BuildingBlock: XIVTED_clean_linker_0, # of connection points: 2
#     Edge 26, Type (0, 1), BuildingBlock: XIVTED_clean_linker_0, # of connection points: 2
#     Edge 27, Type (0, 1), BuildingBlock: XIVTED_clean_linker_0, # of connection points: 2
#     Edge 28, Type (0, 1), BuildingBlock: XIVTED_clean_linker_0, # of connection points: 2
#     Edge 29, Type (0, 1), BuildingBlock: XIVTED_clean_linker_0, # of connection points: 2
#     Edge 30, Type (0, 1), BuildingBlock: XIVTED_clean_linker_0, # of connection points: 2
#     Edge 31, Type (0, 1), BuildingBlock: XIVTED_clean_linker_0, # of connection points: 2
#     Edge 32, Type (0, 1), BuildingBlock: XIVTED_clean_linker_0, # of connection points: 2
#     Edge 33, Type (0, 1), BuildingBlock: XIVTED_clean_linker_0, # of connection points: 2
#     Edge 34, Type (0, 1), BuildingBlock: XIVTED_clean_linker_0, # of connection points: 2
#     Edge 35, Type (0, 1), BuildingBlock: XIVTED_clean_linker_0, # of connection points: 2
# Relax obj value: 0.055
# Max RMSD: 0.061
# Mean RMSD: 0.029
data_MOF--net-pry--node1-FUNLAD_clean_sbu_0--node2-KAKCAD_clean_linker_0--edge1-XIVTED_clean_linker_0
_symmetry_space_group_name_H-M    P1
_symmetry_Int_Tables_number       1
_symmetry_cell_setting            triclinic
loop_
_symmetry_equiv_pos_as_xyz
'x, y, z'
_cell_length_a     44.374702
_cell_length_b     46.860792
_cell_length_c     47.081131
_cell_angle_alpha  90.428987
_cell_angle_beta   89.935268
_cell_angle_gamma 85.853785
loop_
_atom_site_label
_atom_site_type_symbol
_atom_site_fract_x
_atom_site_fract_y
_atom_site_fract_z
_atom_type_partial_charge
C0 C 0.09006 0.14248 0.26568 0.0
C1 C 0.1095 0.12589 0.28368 0.0
C2 C 0.10115 0.15499 0.2411 0.0
C3 C 0.13211 0.15161 0.23404 0.0
C4 C 0.15156 0.13562 0.25264 0.0
C5 C 0.14039 0.12275 0.27687 0.0
C6 C 0.14413 0.16396 0.20721 0.0
C7 C 0.1317 0.19021 0.19608 0.0
C8 C 0.14333 0.20172 0.171 0.0
C9 C 0.1678 0.18657 0.15721 0.0
C10 C 0.1807 0.16053 0.16783 0.0
C11 C 0.16844 0.14932 0.19257 0.0
C12 C 0.20733 0.14534 0.15327 0.0
C13 C 0.20946 0.1446 0.12342 0.0
C14 C 0.2313 0.13216 0.16911 0.0
C15 C 0.25681 0.11897 0.15551 0.0
C16 C 0.25914 0.11872 0.1257 0.0
C17 C 0.13025 0.22945 0.15883 0.0
C18 C 0.09885 0.23653 0.1587 0.0
C19 C 0.14912 0.24855 0.14592 0.0
C20 C 0.137 0.2733 0.1324 0.0
C21 C 0.10562 0.28001 0.13165 0.0
C22 C 0.08671 0.26152 0.14537 0.0
C23 C 0.23504 0.13157 0.10985 0.0
H24 H 0.06609 0.1452 0.27024 0.0
H25 H 0.08527 0.16676 0.22733 0.0
H26 H 0.17564 0.13309 0.24866 0.0
H27 H 0.15608 0.11058 0.29054 0.0
H28 H 0.11351 0.20212 0.2073 0.0
H29 H 0.17756 0.12869 0.20008 0.0
H30 H 0.17699 0.19516 0.13803 0.0
H31 H 0.19127 0.154 0.11045 0.0
H32 H 0.23073 0.13263 0.1921 0.0
H33 H 0.27508 0.1096 0.16842 0.0
H34 H 0.08352 0.22232 0.16814 0.0
H35 H 0.17344 0.2444 0.14617 0.0
H36 H 0.23582 0.13136 0.08685 0.0
H37 H 0.06242 0.26594 0.14511 0.0
H38 H 0.1523 0.28734 0.12264 0.0
C39 C 0.37098 0.90929 0.77491 0.0
C40 C 0.4018 0.90605 0.78186 0.0
C41 C 0.36002 0.89633 0.75048 0.0
C42 C 0.37966 0.88016 0.73191 0.0
C43 C 0.41056 0.87685 0.73904 0.0
C44 C 0.42142 0.88944 0.7638 0.0
C45 C 0.36791 0.86736 0.70511 0.0
C46 C 0.34378 0.88167 0.69026 0.0
C47 C 0.33192 0.86994 0.66544 0.0
C48 C 0.34505 0.84375 0.65499 0.0
C49 C 0.36936 0.82897 0.66907 0.0
C50 C 0.38053 0.84093 0.69422 0.0
C51 C 0.38285 0.80114 0.65717 0.0
C52 C 0.36439 0.78161 0.64416 0.0
C53 C 0.41429 0.79434 0.65753 0.0
C54 C 0.42689 0.76912 0.64461 0.0
C55 C 0.40841 0.75018 0.63081 0.0
C56 C 0.30546 0.88474 0.65064 0.0
C57 C 0.28119 0.89799 0.66628 0.0
C58 C 0.3038 0.88505 0.62078 0.0
C59 C 0.27837 0.89777 0.60698 0.0
C60 C 0.25398 0.91069 0.62264 0.0
C61 C 0.25583 0.91084 0.65246 0.0
C62 C 0.37698 0.75662 0.63104 0.0
H63 H 0.35519 0.92155 0.78864 0.0
H64 H 0.33599 0.89885 0.74636 0.0
H65 H 0.42657 0.865 0.72525 0.0
H66 H 0.44534 0.88669 0.76849 0.0
H67 H 0.33449 0.9024 0.69765 0.0
H68 H 0.39853 0.82924 0.70568 0.0
H69 H 0.33619 0.83477 0.63574 0.0
H70 H 0.34005 0.7856 0.64404 0.0
H71 H 0.4293 0.8089 0.66706 0.0
H72 H 0.45121 0.76488 0.64471 0.0
H73 H 0.28141 0.89781 0.68928 0.0
H74 H 0.32224 0.87557 0.60799 0.0
H75 H 0.36202 0.74222 0.62115 0.0
H76 H 0.23731 0.92028 0.6652 0.0
H77 H 0.27793 0.89767 0.58398 0.0
C78 C 0.71296 0.4848 0.96974 0.0
C79 C 0.73341 0.46374 0.98124 0.0
C80 C 0.68273 0.47931 0.96554 0.0
C81 C 0.67249 0.45245 0.97233 0.0
C82 C 0.693 0.43164 0.9844 0.0
C83 C 0.72304 0.43732 0.989 0.0
C84 C 0.6414 0.44518 0.96467 0.0
C85 C 0.6288 0.45414 0.93853 0.0
C86 C 0.60163 0.44392 0.92891 0.0
C87 C 0.58678 0.4249 0.94593 0.0
C88 C 0.59936 0.41498 0.97168 0.0
C89 C 0.62602 0.42616 0.98144 0.0
C90 C 0.58828 0.38878 0.98449 0.0
C91 C 0.55737 0.38382 0.98381 0.0
C92 C 0.60922 0.3662 0.99213 0.0
C93 C 0.59992 0.3387 0.9958 0.0
C94 C 0.56957 0.3331 0.99166 0.0
C95 C 0.59106 0.44976 0.89947 0.0
C96 C 0.59248 0.477 0.88745 0.0
C97 C 0.58098 0.42744 0.88262 0.0
C98 C 0.57269 0.43215 0.85443 0.0
C99 C 0.57461 0.45919 0.84227 0.0
C100 C 0.5844 0.48165 0.85906 0.0
C101 C 0.5481 0.35616 0.98722 0.0
H102 H 0.7204 0.50548 0.96389 0.0
H103 H 0.66751 0.49596 0.95658 0.0
H104 H 0.68626 0.41047 0.98927 0.0
H105 H 0.73846 0.42062 0.99762 0.0
H106 H 0.6413 0.46731 0.9246 0.0
H107 H 0.63562 0.41881 1.00146 0.0
H108 H 0.5665 0.41611 0.93796 0.0
H109 H 0.5406 0.4009 0.97857 0.0
H110 H 0.63321 0.36906 0.99282 0.0
H111 H 0.61687 0.32144 1.00001 0.0
H112 H 0.59999 0.49465 0.89993 0.0
H113 H 0.58041 0.40598 0.89088 0.0
H114 H 0.52448 0.35258 0.98415 0.0
H115 H 0.58589 0.50277 0.85021 0.0
H116 H 0.5658 0.4143 0.84185 0.0
C117 C 0.92149 0.53983 0.34891 0.0
C118 C 0.95205 0.54033 0.34125 0.0
C119 C 0.91208 0.54644 0.37653 0.0
C120 C 0.93297 0.55373 0.3973 0.0
C121 C 0.96381 0.55268 0.39013 0.0
C122 C 0.97327 0.54604 0.36233 0.0
C123 C 0.92168 0.56647 0.42461 0.0
C124 C 0.8959 0.55656 0.43753 0.0
C125 C 0.87945 0.57332 0.4579 0.0
C126 C 0.89042 0.59924 0.46692 0.0
C127 C 0.91686 0.60882 0.45507 0.0
C128 C 0.93262 0.59217 0.43427 0.0
C129 C 0.92472 0.63853 0.45993 0.0
C130 C 0.90306 0.66112 0.45462 0.0
C131 C 0.95431 0.64461 0.4669 0.0
C132 C 0.96218 0.67296 0.46829 0.0
C133 C 0.94069 0.69568 0.46214 0.0
C134 C 0.84841 0.56645 0.46579 0.0
C135 C 0.82871 0.55752 0.44466 0.0
C136 C 0.8373 0.57121 0.49353 0.0
C137 C 0.80692 0.56784 0.49978 0.0
C138 C 0.78711 0.5598 0.47835 0.0
C139 C 0.79849 0.55416 0.45089 0.0
C140 C 0.91098 0.68933 0.45548 0.0
H141 H 0.9044 0.53608 0.33318 0.0
H142 H 0.88807 0.54769 0.381 0.0
H143 H 0.98046 0.55801 0.40574 0.0
H144 H 0.99704 0.5462 0.35717 0.0
H145 H 0.88738 0.5367 0.4302 0.0
H146 H 0.95153 0.60083 0.42354 0.0
H147 H 0.87727 0.61304 0.48162 0.0
H148 H 0.88025 0.65691 0.44853 0.0
H149 H 0.97139 0.62742 0.47094 0.0
H150 H 0.98512 0.67699 0.47398 0.0
H151 H 0.8363 0.55417 0.42294 0.0
H152 H 0.85195 0.57805 0.51026 0.0
H153 H 0.89395 0.70604 0.4499 0.0
H154 H 0.78392 0.54748 0.43402 0.0
H155 H 0.79876 0.57241 0.52113 0.0
C156 C 0.90873 0.87381 0.7429 0.0
C157 C 0.90585 0.90369 0.73897 0.0
C158 C 0.89788 0.86147 0.76766 0.0
C159 C 0.88381 0.8786 0.78927 0.0
C160 C 0.8813 0.90847 0.78547 0.0
C161 C 0.89204 0.92079 0.76073 0.0
C162 C 0.87127 0.86557 0.81543 0.0
C163 C 0.88641 0.8416 0.82858 0.0
C164 C 0.87476 0.82967 0.85341 0.0
C165 C 0.84763 0.84225 0.865 0.0
C166 C 0.83195 0.86604 0.85232 0.0
C167 C 0.84393 0.8773 0.82741 0.0
C168 C 0.8032 0.87914 0.86527 0.0
C169 C 0.78292 0.86207 0.87909 0.0
C170 C 0.79601 0.9089 0.86451 0.0
C171 C 0.76953 0.92116 0.87726 0.0
C172 C 0.74955 0.90413 0.89157 0.0
C173 C 0.89042 0.80393 0.86733 0.0
C174 C 0.90436 0.78133 0.85109 0.0
C175 C 0.89031 0.80113 0.89711 0.0
C176 C 0.90261 0.77616 0.91015 0.0
C177 C 0.91592 0.75322 0.89393 0.0
C178 C 0.91701 0.75643 0.86417 0.0
C179 C 0.75674 0.87436 0.89224 0.0
H180 H 0.91956 0.85986 0.72691 0.0
H181 H 0.90007 0.8384 0.76961 0.0
H182 H 0.87106 0.92251 0.80171 0.0
H183 H 0.88899 0.94379 0.75854 0.0
H184 H 0.9077 0.8327 0.81992 0.0
H185 H 0.83152 0.89492 0.81688 0.0
H186 H 0.83859 0.83337 0.88408 0.0
H187 H 0.78712 0.83905 0.87977 0.0
H188 H 0.81108 0.92294 0.85443 0.0
H189 H 0.76476 0.94407 0.87569 0.0
H190 H 0.90484 0.78248 0.82813 0.0
H191 H 0.88044 0.81819 0.91054 0.0
H192 H 0.74242 0.86036 0.90331 0.0
H193 H 0.92755 0.73964 0.85082 0.0
H194 H 0.90092 0.77469 0.93302 0.0
C195 C 0.62052 0.1039 0.26302 0.0
C196 C 0.60814 0.1209 0.24079 0.0
C197 C 0.6311 0.11642 0.28786 0.0
C198 C 0.62986 0.14638 0.29127 0.0
C199 C 0.61719 0.16342 0.2692 0.0
C200 C 0.60648 0.15087 0.24435 0.0
C201 C 0.64234 0.15958 0.31748 0.0
C202 C 0.66884 0.14705 0.33018 0.0
C203 C 0.6808 0.15875 0.35497 0.0
C204 C 0.66585 0.18326 0.36724 0.0
C205 C 0.63949 0.19631 0.35507 0.0
C206 C 0.628 0.18451 0.33002 0.0
C207 C 0.6243 0.22222 0.369 0.0
C208 C 0.61948 0.2228 0.39853 0.0
C209 C 0.61625 0.24705 0.3534 0.0
C210 C 0.60466 0.27217 0.36718 0.0
C211 C 0.60053 0.27301 0.39691 0.0
C212 C 0.70887 0.14547 0.36825 0.0
C213 C 0.71316 0.11565 0.37155 0.0
C214 C 0.73129 0.16265 0.37839 0.0
C215 C 0.75714 0.1504 0.39183 0.0
C216 C 0.76125 0.12061 0.39564 0.0
C217 C 0.73898 0.10338 0.38513 0.0
C218 C 0.60764 0.24774 0.41225 0.0
H219 H 0.62258 0.08081 0.26111 0.0
H220 H 0.64022 0.10249 0.30447 0.0
H221 H 0.61601 0.18653 0.27085 0.0
H222 H 0.59674 0.16475 0.22798 0.0
H223 H 0.68071 0.1285 0.32038 0.0
H224 H 0.60739 0.19425 0.32087 0.0
H225 H 0.6748 0.19227 0.38647 0.0
H226 H 0.62505 0.20389 0.41112 0.0
H227 H 0.61995 0.24735 0.33066 0.0
H228 H 0.59984 0.29116 0.35456 0.0
H229 H 0.69617 0.10183 0.36425 0.0
H230 H 0.72895 0.18565 0.37577 0.0
H231 H 0.60409 0.24713 0.43499 0.0
H232 H 0.74111 0.08042 0.38795 0.0
H233 H 0.77404 0.16434 0.39904 0.0
C234 C 0.29359 0.57913 0.07423 0.0
C235 C 0.28481 0.56888 0.04756 0.0
C236 C 0.32393 0.58178 0.08037 0.0
C237 C 0.34619 0.57476 0.05986 0.0
C238 C 0.3377 0.56562 0.03281 0.0
C239 C 0.30721 0.56249 0.02674 0.0
C240 C 0.37816 0.57665 0.06749 0.0
C241 C 0.39005 0.56042 0.0903 0.0
C242 C 0.41809 0.56585 0.10205 0.0
C243 C 0.43481 0.58686 0.08983 0.0
C244 C 0.42278 0.60397 0.06762 0.0
C245 C 0.39471 0.59818 0.05593 0.0
C246 C 0.43666 0.63095 0.06079 0.0
C247 C 0.44633 0.64822 0.08306 0.0
C248 C 0.43842 0.64074 0.03274 0.0
C249 C 0.44937 0.66745 0.0272 0.0
C250 C 0.45861 0.68481 0.04964 0.0
C251 C 0.42689 0.55462 0.13042 0.0
C252 C 0.40543 0.55615 0.15246 0.0
C253 C 0.45729 0.54681 0.13686 0.0
C254 C 0.46631 0.54249 0.16505 0.0
C255 C 0.44508 0.54614 0.18716 0.0
C256 C 0.41445 0.55198 0.18052 0.0
C257 C 0.45719 0.67471 0.07756 0.0
H258 H 0.27701 0.58509 0.09051 0.0
H259 H 0.33009 0.58931 0.10125 0.0
H260 H 0.35467 0.56017 0.01672 0.0
H261 H 0.30132 0.55436 1.00605 0.0
H262 H 0.37652 0.54478 0.10006 0.0
H263 H 0.38443 0.61206 0.03976 0.0
H264 H 0.456 0.59184 0.09945 0.0
H265 H 0.4444 0.64179 0.105 0.0
H266 H 0.43109 0.62789 0.01519 0.0
H267 H 0.45033 0.67461 1.00543 0.0
H268 H 0.3819 0.56249 0.1483 0.0
H269 H 0.47426 0.54538 0.12026 0.0
H270 H 0.4633 0.6878 0.09542 0.0
H271 H 0.39758 0.55445 0.19719 0.0
H272 H 0.49008 0.53794 0.16964 0.0
C273 C 0.09733 0.34049 0.53703 0.0
C274 C 0.06704 0.33577 0.54284 0.0
C275 C 0.10745 0.36788 0.53922 0.0
C276 C 0.08743 0.39123 0.54709 0.0
C277 C 0.05655 0.38691 0.55021 0.0
C278 C 0.04645 0.3594 0.54816 0.0
C279 C 0.09969 0.41828 0.55687 0.0
C280 C 0.12507 0.42867 0.54365 0.0
C281 C 0.1414 0.44964 0.55699 0.0
C282 C 0.13099 0.46124 0.58315 0.0
C283 C 0.1052 0.45167 0.59618 0.0
C284 C 0.08949 0.43051 0.58276 0.0
C285 C 0.0973 0.46014 0.62575 0.0
C286 C 0.11973 0.45871 0.64682 0.0
C287 C 0.06704 0.46676 0.63364 0.0
C288 C 0.05926 0.47099 0.6622 0.0
C289 C 0.08158 0.46834 0.68335 0.0
C290 C 0.17151 0.45645 0.54604 0.0
C291 C 0.19159 0.43458 0.53478 0.0
C292 C 0.1817 0.484 0.54961 0.0
C293 C 0.21171 0.48907 0.5438 0.0
C294 C 0.23195 0.46686 0.53379 0.0
C295 C 0.22144 0.43982 0.52852 0.0
C296 C 0.11193 0.46269 0.67535 0.0
H297 H 0.11359 0.32274 0.53221 0.0
H298 H 0.13141 0.37028 0.53683 0.0
H299 H 0.04051 0.40456 0.55589 0.0
H300 H 0.02293 0.35646 0.55261 0.0
H301 H 0.13297 0.41934 0.52362 0.0
H302 H 0.07099 0.42165 0.59394 0.0
H303 H 0.14391 0.47653 0.59434 0.0
H304 H 0.14318 0.45325 0.6414 0.0
H305 H 0.04935 0.46796 0.61776 0.0
H306 H 0.03568 0.47522 0.66782 0.0
H307 H 0.18485 0.41297 0.53222 0.0
H308 H 0.16673 0.50146 0.55772 0.0
H309 H 0.12961 0.46088 0.69123 0.0
H310 H 0.23672 0.4223 0.52101 0.0
H311 H 0.21928 0.51022 0.54767 0.0
C312 C 0.03212 0.03525 0.46115 0.0
N313 N 0.01405 0.07474 0.53999 0.0
C314 C 0.0416 0.08532 0.53698 0.0
C315 C 0.04581 0.11349 0.54463 0.0
C316 C 0.02134 0.13109 0.55513 0.0
C317 C 0.99342 0.11939 0.55908 0.0
C318 C 0.9903 0.09087 0.55148 0.0
Zn319 Zn 0.00831 0.03582 0.52223 0.0
C320 C 0.95027 0.03569 0.4905 0.0
N321 N 0.99846 0.95598 0.48155 0.0
C322 C 0.02088 0.94036 0.46747 0.0
C323 C 0.97125 0.94535 0.4864 0.0
C324 C 0.96607 0.91765 0.47803 0.0
C325 C 0.989 0.90055 0.46422 0.0
C326 C 0.01658 0.91241 0.45849 0.0
Zn327 Zn 1.00472 0.99472 0.49944 0.0
O328 O 0.02775 0.05033 0.48357 0.0
C329 C 0.06281 0.99471 0.53097 0.0
O330 O 0.02506 0.00939 0.46125 0.0
H331 H 0.9538 0.95803 0.4978 0.0
H332 H 0.06004 0.07234 0.52734 0.0
H333 H 0.04237 0.94928 0.46391 0.0
O334 O 0.05174 0.01975 0.53729 0.0
O335 O 0.04789 0.97905 0.51483 0.0
H336 H 0.96859 0.08201 0.55366 0.0
O337 O 0.98459 0.98049 0.53821 0.0
O338 O 0.98869 0.02119 0.56052 0.0
O339 O 0.96158 0.01083 0.48393 0.0
O340 O 0.96489 0.05118 0.50703 0.0
C341 C 0.98083 0.99561 0.56068 0.0
H342 H 0.06758 0.12183 0.54083 0.0
H343 H 0.97408 0.13234 0.56725 0.0
H344 H 0.94469 0.90939 0.48354 0.0
H345 H 0.0348 0.90011 0.44768 0.0
C346 C 0.5616 0.99109 0.98908 0.0
N347 N 0.51403 0.07188 0.98495 0.0
C348 C 0.54167 0.0822 0.98825 0.0
C349 C 0.54584 0.11072 0.98247 0.0
C350 C 0.52125 0.12893 0.97352 0.0
C351 C 0.49323 0.1175 0.96912 0.0
C352 C 0.49013 0.08864 0.97486 0.0
Zn353 Zn 0.50834 0.03237 1.00078 0.0
C354 C 0.47912 0.99378 0.96154 0.0
N355 N 0.49783 0.95134 0.03767 0.0
C356 C 0.52188 0.93428 0.04692 0.0
C357 C 0.47024 0.94097 0.03403 0.0
C358 C 0.46647 0.91205 0.03799 0.0
C359 C 0.49142 0.89346 0.04537 0.0
C360 C 0.51918 0.90505 0.05089 0.0
Zn361 Zn 0.50362 0.99098 0.02216 0.0
O362 O 0.55136 0.01657 0.98396 0.0
C363 C 0.53301 0.02943 0.06146 0.0
O364 O 0.54634 0.97558 1.00484 0.0
H365 H 0.45147 0.95479 0.0264 0.0
H366 H 0.56022 0.0687 0.99677 0.0
H367 H 0.54364 0.94296 0.04959 0.0
O368 O 0.52921 0.04505 0.03958 0.0
O369 O 0.52459 1.00403 0.06062 0.0
H370 H 0.46834 0.07997 0.97246 0.0
O371 O 0.46082 1.00686 0.03917 0.0
O372 O 0.46534 0.04762 0.01771 0.0
O373 O 0.48295 0.97832 0.9835 0.0
O374 O 0.4873 0.01926 0.96225 0.0
C375 C 0.45024 0.03215 0.03366 0.0
H376 H 0.5677 0.11878 0.98657 0.0
H377 H 0.47379 0.13088 0.96207 0.0
H378 H 0.44448 0.90415 0.03417 0.0
H379 H 0.53903 0.8915 0.05654 0.0
C380 C 0.52905 0.45906 0.49364 0.0
N381 N 0.52568 0.49297 0.57679 0.0
C382 C 0.5168 0.46835 0.58821 0.0
C383 C 0.52315 0.46191 0.61664 0.0
C384 C 0.53881 0.48101 0.63327 0.0
C385 C 0.54785 0.50608 0.62073 0.0
C386 C 0.54107 0.51163 0.5924 0.0
Zn387 Zn 0.5155 0.50455 0.53619 0.0
C388 C 0.56856 0.52923 0.50875 0.0
N389 N 0.49577 0.53315 0.45255 0.0
C390 C 0.48183 0.5137 0.43659 0.0
C391 C 0.50533 0.55741 0.44088 0.0
C392 C 0.50186 0.56229 0.41174 0.0
C393 C 0.48882 0.54177 0.39471 0.0
C394 C 0.4782 0.51756 0.40755 0.0
Zn395 Zn 0.50526 0.52189 0.49336 0.0
O396 O 0.52948 0.46244 0.52048 0.0
C397 C 0.45222 0.49725 0.52071 0.0
O398 O 0.52032 0.4802 0.47823 0.0
H399 H 0.51649 0.5725 0.45398 0.0
H400 H 0.50456 0.45386 0.57536 0.0
H401 H 0.47438 0.49456 0.44623 0.0
O402 O 0.47055 0.49275 0.54119 0.0
O403 O 0.46112 0.50883 0.49821 0.0
H404 H 0.54776 0.53118 0.58301 0.0
O405 O 0.49013 0.56352 0.50901 0.0
O406 O 0.50144 0.5467 0.55129 0.0
O407 O 0.54971 0.53485 0.48893 0.0
O408 O 0.56013 0.51651 0.53076 0.0
C409 C 0.49152 0.56738 0.53575 0.0
H410 H 0.51596 0.44224 0.62547 0.0
H411 H 0.55944 0.52167 0.63285 0.0
H412 H 0.51028 0.58126 0.40248 0.0
H413 H 0.46753 0.50154 0.39516 0.0
C414 C 0.99021 0.56899 0.99031 0.0
N415 N 0.99286 0.53446 0.07313 0.0
C416 C 1.00216 0.55831 0.08616 0.0
C417 C 0.997 0.56278 0.11525 0.0
C418 C 0.98222 0.54246 0.1309 0.0
C419 C 0.9723 0.51851 0.11658 0.0
C420 C 0.97776 0.51498 0.08769 0.0
Zn421 Zn 1.00399 0.52355 0.03232 0.0
C422 C 0.95212 0.49805 1.00329 0.0
N423 N 0.02656 0.49515 0.94866 0.0
C424 C 0.04026 0.51476 0.93297 0.0
C425 C 0.01891 0.47 0.93703 0.0
C426 C 0.02431 0.4642 0.90821 0.0
C427 C 0.03735 0.48468 0.8914 0.0
C428 C 0.04579 0.50998 0.9042 0.0
Zn429 Zn 0.01552 0.50647 0.98933 0.0
O430 O 0.98969 0.56559 0.01713 0.0
C431 C 0.06728 0.53217 0.01851 0.0
O432 O 0.99965 0.54802 0.9746 0.0
H433 H 0.00795 0.45478 0.94993 0.0
H434 H 0.01426 0.57344 0.07417 0.0
H435 H 0.04629 0.53455 0.94263 0.0
O436 O 0.04811 0.53617 0.03846 0.0
O437 O 0.05951 0.52048 0.99548 0.0
H438 H 0.97086 0.49598 0.0771 0.0
O439 O 0.03113 0.46479 1.00474 0.0
O440 O 0.0185 0.48159 0.04694 0.0
O441 O 0.97132 0.49284 0.98355 0.0
O442 O 0.95998 0.51069 0.02573 0.0
C443 C 0.02909 0.46095 0.0314 0.0
H444 H 1.00482 0.58169 0.12541 0.0
H445 H 0.96144 0.50191 0.12774 0.0
H446 H 0.01747 0.44444 0.89899 0.0
H447 H 0.05635 0.52606 0.892 0.0
H448 H 0.12169 0.07056 0.30142 0.0
H449 H 0.03579 0.09214 0.45006 0.0
H450 H 0.0707 0.14906 0.32472 0.0
H451 H 0.05545 0.00856 0.41257 0.0
H452 H 0.05403 0.11387 0.40682 0.0
H453 H 0.10302 0.04803 0.34429 0.0
C454 C 0.10662 0.08308 0.31559 0.0
C455 C 0.09777 0.11179 0.30942 0.0
C456 C 0.05435 0.09078 0.40803 0.0
C457 C 0.0765 0.08614 0.35873 0.0
C458 C 0.04408 0.07829 0.4328 0.0
C459 C 0.04404 0.04839 0.43506 0.0
C460 C 0.06523 0.07333 0.38533 0.0
C461 C 0.05497 0.03167 0.41181 0.0
C462 C 0.09586 0.07016 0.33998 0.0
C463 C 0.07796 0.12686 0.32847 0.0
N464 N 0.06528 0.04434 0.38803 0.0
N465 N 0.06822 0.11396 0.35232 0.0
H466 H 0.39015 0.96143 0.80048 0.0
H467 H 0.47325 0.93736 0.94946 0.0
H468 H 0.43948 0.88214 0.82278 0.0
H469 H 0.45715 0.02147 0.91341 0.0
H470 H 0.4548 0.91646 0.9057 0.0
H471 H 0.40863 0.98347 0.84401 0.0
C472 C 0.40481 0.94865 0.81457 0.0
C473 C 0.41329 0.91988 0.80796 0.0
C474 C 0.45528 0.93949 0.90734 0.0
C475 C 0.43427 0.94491 0.85792 0.0
C476 C 0.46567 0.95151 0.93241 0.0
C477 C 0.46679 0.9813 0.9352 0.0
C478 C 0.44541 0.9573 0.88487 0.0
C479 C 0.45676 0.99843 0.91221 0.0
C480 C 0.41546 0.96128 0.83931 0.0
C481 C 0.43255 0.90441 0.8269 0.0
N482 N 0.44633 0.9862 0.88807 0.0
N483 N 0.44217 0.91703 0.85108 0.0
H484 H 0.52686 0.4408 0.81216 0.0
H485 H 0.59025 0.49033 0.66286 0.0
H486 H 0.60737 0.48636 0.80295 0.0
H487 H 0.50149 0.45965 0.67317 0.0
H488 H 0.59845 0.48556 0.71384 0.0
H489 H 0.51836 0.44467 0.76095 0.0
C490 C 0.54268 0.45169 0.79933 0.0
C491 C 0.56785 0.46329 0.81175 0.0
C492 C 0.57718 0.47983 0.70497 0.0
C493 C 0.55838 0.46766 0.75328 0.0
C494 C 0.57246 0.48259 0.67586 0.0
C495 C 0.54502 0.47562 0.66376 0.0
C496 C 0.55437 0.4699 0.72217 0.0
C497 C 0.52306 0.46507 0.68156 0.0
C498 C 0.53779 0.45394 0.77016 0.0
C499 C 0.58751 0.4774 0.79426 0.0
N500 N 0.52817 0.46263 0.70992 0.0
N501 N 0.58244 0.47905 0.76587 0.0
H502 H 0.93105 0.50412 0.30108 0.0
H503 H 0.02185 0.56185 0.17038 0.0
H504 H 0.99252 0.57073 0.31197 0.0
H505 H 0.93401 0.52834 0.1629 0.0
H506 H 0.01705 0.56031 0.22223 0.0
H507 H 0.93905 0.50576 0.24988 0.0
C508 C 0.9464 0.51896 0.29275 0.0
C509 C 0.96078 0.53761 0.31086 0.0
C510 C 0.99887 0.55342 0.2091 0.0
C511 C 0.97021 0.53939 0.25228 0.0
C512 C 1.00142 0.55453 0.17955 0.0
C513 C 0.97842 0.54492 0.16218 0.0
C514 C 0.97337 0.54228 0.22125 0.0
C515 C 0.95265 0.5353 0.17535 0.0
C516 C 0.9509 0.51991 0.26353 0.0
C517 C 0.98105 0.55586 0.29886 0.0
N518 N 0.95097 0.53396 0.20404 0.0
N519 N 0.98507 0.55642 0.27024 0.0
H520 H 0.28936 0.13914 0.08003 0.0
H521 H 0.41493 1.00715 0.073 0.0
H522 H 0.29217 0.06841 0.13835 0.0
H523 H 0.41926 0.08391 0.02352 0.0
H524 H 0.36811 0.02763 0.09491 0.0
H525 H 0.33491 0.11761 0.05685 0.0
C526 C 0.29941 0.11897 0.08786 0.0
C527 C 0.28679 0.1056 0.11122 0.0
C528 C 0.37927 0.03997 0.07923 0.0
C529 C 0.33929 0.08083 0.08478 0.0
C530 C 0.406 0.02826 0.06663 0.0
C531 C 0.42117 0.04382 0.04637 0.0
C532 C 0.36742 0.06743 0.07145 0.0
C533 C 0.40845 0.07111 0.03905 0.0
C534 C 0.32558 0.10677 0.0747 0.0
C535 C 0.30121 0.07968 0.12063 0.0
N536 N 0.38238 0.082 0.05154 0.0
N537 N 0.32659 0.06814 0.10737 0.0
H538 H 0.22448 0.88951 0.57667 0.0
H539 H 0.0979 0.02046 0.57016 0.0
H540 H 0.22071 0.96106 0.6351 0.0
H541 H 0.09453 0.94329 0.51998 0.0
H542 H 0.14491 1.00068 0.59172 0.0
H543 H 0.17905 0.91051 0.55327 0.0
C544 C 0.21424 0.90975 0.58447 0.0
C545 C 0.22652 0.92351 0.60794 0.0
C546 C 0.13394 0.98809 0.57595 0.0
C547 C 0.17421 0.94764 0.58127 0.0
C548 C 0.1071 0.99941 0.56354 0.0
C549 C 0.09213 0.98351 0.54323 0.0
C550 C 0.14609 0.96068 0.56794 0.0
C551 C 0.1052 0.95632 0.53558 0.0
C552 C 0.18816 0.92165 0.57119 0.0
C553 C 0.21191 0.9495 0.61731 0.0
N554 N 0.13137 0.94579 0.54793 0.0
N555 N 0.18662 0.96072 0.60395 0.0
H556 H 0.77083 0.48417 0.94134 0.0
H557 H 0.91093 0.49195 0.04531 0.0
H558 H 0.76942 0.45431 0.02773 0.0
H559 H 0.9215 0.48764 0.95419 0.0
H560 H 0.85773 0.48281 0.03987 0.0
H561 H 0.8249 0.49088 0.94623 0.0
C562 C 0.78191 0.47924 0.96138 0.0
C563 C 0.76575 0.46878 0.98422 0.0
C564 C 0.87174 0.48368 0.02108 0.0
C565 C 0.82728 0.4763 0.98992 0.0
C566 C 0.90206 0.48896 0.02415 0.0
C567 C 0.92059 0.49058 1.00014 0.0
C568 C 0.85972 0.48052 0.99379 0.0
C569 C 0.90798 0.48644 0.97324 0.0
C570 C 0.81273 0.48281 0.96407 0.0
C571 C 0.78116 0.46233 1.00961 0.0
N572 N 0.87818 0.48187 0.97076 0.0
N573 N 0.81106 0.46637 0.01186 0.0
H574 H 0.73948 0.5789 0.44514 0.0
H575 H 0.61445 0.51925 0.54691 0.0
H576 H 0.76034 0.53695 0.52476 0.0
H577 H 0.59495 0.55558 0.46434 0.0
H578 H 0.66736 0.529 0.54097 0.0
H579 H 0.68594 0.57377 0.45357 0.0
C580 C 0.73279 0.5685 0.46438 0.0
C581 C 0.75445 0.55801 0.48413 0.0
C582 C 0.6515 0.53494 0.5242 0.0
C583 C 0.69307 0.55236 0.49407 0.0
C584 C 0.62126 0.5294 0.52756 0.0
C585 C 0.60027 0.53645 0.50599 0.0
C586 C 0.66085 0.54763 0.49908 0.0
C587 C 0.61037 0.54967 0.48146 0.0
C588 C 0.70218 0.56573 0.46925 0.0
C589 C 0.7444 0.5454 0.50902 0.0
N590 N 0.63998 0.55473 0.47863 0.0
N591 N 0.71442 0.54277 0.51321 0.0
H592 H 0.05985 0.31925 0.14869 0.0
H593 H 0.06307 0.41497 1.00792 0.0
H594 H 0.12222 0.30023 0.07964 0.0
H595 H 0.01833 0.44348 0.08557 0.0
H596 H 0.08086 0.37035 0.03163 0.0
H597 H 0.04017 0.36229 0.12363 0.0
C598 C 0.06929 0.324 0.12818 0.0
C599 C 0.09286 0.30606 0.11638 0.0
C600 C 0.0671 0.38638 0.04343 0.0
C601 C 0.07036 0.35548 0.08745 0.0
C602 C 0.05684 0.41182 0.02987 0.0
C603 C 0.03923 0.43314 0.04474 0.0
C604 C 0.05942 0.382 0.07201 0.0
C605 C 0.03196 0.42779 0.07322 0.0
C606 C 0.05816 0.34869 0.11394 0.0
C607 C 0.10434 0.31357 0.08978 0.0
N608 N 0.042 0.40285 0.08584 0.0
N609 N 0.09296 0.33759 0.07623 0.0
H610 H 0.60074 0.29004 0.96269 0.0
H611 H 0.48314 0.17281 0.99409 0.0
H612 H 0.51897 0.30841 0.01127 0.0
H613 H 0.56732 0.15566 0.94904 0.0
H614 H 0.493 0.2235 0.99683 0.0
H615 H 0.58674 0.24145 0.95502 0.0
C616 C 0.57999 0.28372 0.97212 0.0
C617 C 0.56126 0.30321 0.98811 0.0
C618 C 0.50916 0.20868 0.98611 0.0
C619 C 0.54466 0.24751 0.97876 0.0
C620 C 0.50341 0.17982 0.98429 0.0
C621 C 0.52457 0.16003 0.97147 0.0
C622 C 0.53623 0.21772 0.97501 0.0
C623 C 0.55062 0.17017 0.95945 0.0
C624 C 0.57183 0.256 0.96744 0.0
C625 C 0.53411 0.29404 0.9989 0.0
N626 N 0.5558 0.19826 0.96169 0.0
N627 N 0.52667 0.26675 0.99414 0.0
H628 H 0.90597 0.74428 0.47748 0.0
H629 H 0.0304 0.85402 0.4681 0.0
H630 H 0.99483 0.71622 0.44588 0.0
H631 H 0.93721 0.87716 0.44662 0.0
H632 H 0.01993 0.80347 0.46521 0.0
H633 H 0.91884 0.79367 0.47335 0.0
C634 C 0.92812 0.74837 0.4695 0.0
C635 C 0.94917 0.72583 0.4617 0.0
C636 C 1.00197 0.81974 0.46085 0.0
C637 C 0.96424 0.78255 0.45776 0.0
C638 C 0.00791 0.84858 0.46227 0.0
C639 C 0.98451 0.87 0.45807 0.0
C640 C 0.97239 0.81239 0.45573 0.0
C641 C 0.95575 0.8615 0.4509 0.0
C642 C 0.93544 0.77663 0.46724 0.0
C643 C 0.97793 0.73274 0.45247 0.0
N644 N 0.95038 0.83339 0.45045 0.0
N645 N 0.9847 0.76053 0.45089 0.0
H646 H 0.39338 0.72918 0.57852 0.0
H647 H 0.5007 0.58516 0.59036 0.0
H648 H 0.45373 0.71138 0.64895 0.0
H649 H 0.4583 0.61306 0.51192 0.0
H650 H 0.48169 0.63004 0.61294 0.0
H651 H 0.41457 0.68559 0.55473 0.0
C652 C 0.41104 0.71606 0.58904 0.0
C653 C 0.42169 0.72396 0.61587 0.0
C654 C 0.47665 0.62644 0.59076 0.0
C655 C 0.44614 0.67391 0.58864 0.0
C656 C 0.48745 0.60076 0.57782 0.0
C657 C 0.48109 0.59524 0.54914 0.0
C658 C 0.45896 0.64679 0.57509 0.0
C659 C 0.46384 0.61638 0.53403 0.0
C660 C 0.42326 0.69125 0.57534 0.0
C661 C 0.44494 0.70628 0.62824 0.0
N662 N 0.45322 0.64109 0.54723 0.0
N663 N 0.45621 0.68203 0.61464 0.0
H664 H 0.90488 0.88295 0.68389 0.0
H665 H 0.975 0.01953 0.6142 0.0
H666 H 0.93201 0.95507 0.73274 0.0
H667 H 0.95886 0.9427 0.56725 0.0
H668 H 0.95673 0.99743 0.65734 0.0
H669 H 0.92253 0.90527 0.64078 0.0
C670 C 0.91472 0.90336 0.68571 0.0
C671 C 0.91687 0.91699 0.71229 0.0
C672 C 0.95713 0.98541 0.63759 0.0
C673 C 0.93678 0.94307 0.6625 0.0
C674 C 0.9675 0.99808 0.61288 0.0
C675 C 0.96855 0.98301 0.58693 0.0
C676 C 0.94756 0.95745 0.63647 0.0
C677 C 0.95854 0.95519 0.58669 0.0
C678 C 0.92463 0.91622 0.66094 0.0
C679 C 0.92936 0.94379 0.71287 0.0
N680 N 0.94851 0.94337 0.61099 0.0
N681 N 0.93876 0.95588 0.68846 0.0
H682 H 0.61204 0.14004 0.18569 0.0
H683 H 0.5376 1.0055 0.11474 0.0
H684 H 0.57979 0.07063 0.2343 0.0
H685 H 0.55732 0.08116 0.06856 0.0
H686 H 0.55621 0.0273 0.15824 0.0
H687 H 0.59471 0.1175 0.14232 0.0
C688 C 0.60114 0.12018 0.18739 0.0
C689 C 0.59741 0.10739 0.21397 0.0
C690 C 0.55653 0.0391 0.13857 0.0
C691 C 0.5779 0.08101 0.16391 0.0
C692 C 0.54601 0.0266 0.11367 0.0
C693 C 0.54581 0.04147 0.08785 0.0
C694 C 0.56713 0.06666 0.13773 0.0
C695 C 0.55693 0.06884 0.0879 0.0
C696 C 0.59142 0.10718 0.16248 0.0
C697 C 0.58364 0.08123 0.21443 0.0
N698 N 0.56708 0.08049 0.11236 0.0
N699 N 0.57445 0.06897 0.18987 0.0
H700 H 0.48461 0.50762 0.21411 0.0
H701 H 0.468 0.58875 0.36436 0.0
H702 H 0.4283 0.58543 0.22807 0.0
H703 H 0.50511 0.50159 0.35446 0.0
H704 H 0.4607 0.59138 0.31279 0.0
H705 H 0.49944 0.50836 0.26427 0.0
C706 C 0.4755 0.52487 0.22773 0.0
C707 C 0.4549 0.54625 0.21714 0.0
C708 C 0.4706 0.57174 0.32193 0.0
C709 C 0.4718 0.5474 0.27418 0.0
C710 C 0.47491 0.57032 0.35126 0.0
C711 C 0.4868 0.54482 0.36357 0.0
C712 C 0.47851 0.54756 0.30491 0.0
C713 C 0.49537 0.52149 0.34575 0.0
C714 C 0.48387 0.52528 0.25629 0.0
C715 C 0.44376 0.56821 0.23559 0.0
N716 N 0.49095 0.52337 0.31731 0.0
N717 N 0.45231 0.5682 0.26323 0.0
H718 H 0.0426 0.50815 0.70959 0.0
H719 H 0.06165 0.43702 0.86325 0.0
H720 H 0.10121 0.43258 0.72603 0.0
H721 H 0.02225 0.52265 0.84939 0.0
H722 H 0.07067 0.43185 0.81198 0.0
H723 H 0.02937 0.51079 0.76008 0.0
C724 C 0.05257 0.49207 0.72384 0.0
C725 C 0.07319 0.47026 0.71374 0.0
C726 C 0.05999 0.45174 0.8202 0.0
C727 C 0.05818 0.47306 0.77134 0.0
C728 C 0.0547 0.4546 0.84936 0.0
C729 C 0.04146 0.48037 0.86048 0.0
C730 C 0.05165 0.4747 0.80213 0.0
C731 C 0.03295 0.50258 0.84166 0.0
C732 C 0.04513 0.49363 0.75262 0.0
C733 C 0.08558 0.45001 0.73308 0.0
N734 N 0.03822 0.49925 0.81341 0.0
N735 N 0.07787 0.45188 0.76098 0.0
H736 H 0.69441 0.88104 0.89865 0.0
H737 H 0.60711 0.01996 0.96544 0.0
H738 H 0.74001 0.95743 0.91728 0.0
H739 H 0.58099 0.93472 0.98193 0.0
H740 H 0.65314 0.99919 0.94193 0.0
H741 H 0.64977 0.90206 0.92334 0.0
C742 C 0.69532 0.90211 0.90803 0.0
C743 C 0.72152 0.91722 0.90586 0.0
C744 C 0.63735 0.98509 0.95081 0.0
C745 C 0.6696 0.94184 0.93357 0.0
C746 C 0.61106 0.99691 0.96417 0.0
C747 C 0.59017 0.97906 0.97575 0.0
C748 C 0.64247 0.95522 0.94845 0.0
C749 C 0.59651 0.94931 0.97347 0.0
C750 C 0.66961 0.91416 0.92201 0.0
C751 C 0.72047 0.94494 0.91786 0.0
N752 N 0.62191 0.93835 0.95989 0.0
N753 N 0.69498 0.95635 0.93105 0.0
H754 H 0.79042 0.1418 0.44196 0.0
H755 H 0.91555 0.00993 0.45102 0.0
H756 H 0.79441 0.0698 0.38397 0.0
H757 H 0.91865 0.08727 0.50099 0.0
H758 H 0.86907 0.02992 0.42866 0.0
H759 H 0.83548 0.12083 0.46578 0.0
C760 C 0.80082 0.12167 0.43407 0.0
C761 C 0.78851 0.1077 0.41071 0.0
C762 C 0.87987 0.0425 0.44457 0.0
C763 C 0.8401 0.08324 0.43839 0.0
C764 C 0.90639 0.03106 0.45743 0.0
C765 C 0.92114 0.04695 0.47792 0.0
C766 C 0.86782 0.07003 0.45226 0.0
C767 C 0.90814 0.07424 0.48529 0.0
C768 C 0.8265 0.1096 0.44785 0.0
C769 C 0.80275 0.08128 0.40202 0.0
N770 N 0.88229 0.0849 0.47247 0.0
N771 N 0.82774 0.06997 0.41581 0.0
H772 H 0.25247 0.57711 0.99787 0.0
H773 H 0.09504 0.54523 0.06816 0.0
H774 H 0.24333 0.54969 0.08469 0.0
H775 H 0.1109 0.53661 0.9779 0.0
H776 H 0.14786 0.55527 0.07469 0.0
H777 H 0.19904 0.56945 0.9901 0.0
C778 C 0.23938 0.56939 0.01526 0.0
C779 C 0.25252 0.56424 0.04205 0.0
C780 C 0.13973 0.55124 0.05345 0.0
C781 C 0.19135 0.55611 0.03341 0.0
C782 C 0.10958 0.54565 0.04969 0.0
C783 C 0.09864 0.53991 0.02247 0.0
C784 C 0.15899 0.55146 0.02979 0.0
C785 C 0.11851 0.54072 0.99928 0.0
C786 C 0.20888 0.5652 0.01082 0.0
C787 C 0.23418 0.55465 0.06387 0.0
N788 N 0.14778 0.54643 1.00346 0.0
N789 N 0.20457 0.55105 0.0591 0.0
H790 H 0.26898 0.45346 0.48839 0.0
H791 H 0.41985 0.48883 0.56909 0.0
H792 H 0.26869 0.48934 0.57302 0.0
H793 H 0.41238 0.48996 0.47768 0.0
H794 H 0.36599 0.48067 0.57224 0.0
H795 H 0.32348 0.45904 0.48525 0.0
C796 C 0.28044 0.46257 0.50623 0.0
C797 C 0.26444 0.47121 0.53089 0.0
C798 C 0.37625 0.48263 0.55153 0.0
C799 C 0.32646 0.47712 0.5277 0.0
C800 C 0.40695 0.48709 0.54971 0.0
C801 C 0.42048 0.49021 0.5231 0.0
C802 C 0.3592 0.48081 0.52655 0.0
C803 C 0.40274 0.48788 0.49864 0.0
C804 C 0.31141 0.46576 0.50444 0.0
C805 C 0.28023 0.48281 0.5535 0.0
N806 N 0.37299 0.48325 0.50094 0.0
N807 N 0.31045 0.48528 0.55144 0.0
H808 H 0.91625 0.69779 0.87336 0.0
H809 H 0.97748 0.62177 0.01588 0.0
H810 H 0.94261 0.74574 0.94687 0.0
H811 H 0.97858 0.5794 0.93416 0.0
H812 H 0.96005 0.6668 0.99265 0.0
H813 H 0.93478 0.65371 0.89675 0.0
C814 C 0.92616 0.69926 0.89427 0.0
C815 C 0.9278 0.72593 0.90793 0.0
C816 C 0.96417 0.64762 0.97985 0.0
C817 C 0.94847 0.67489 0.93533 0.0
C818 C 0.97403 0.62189 0.99311 0.0
C819 C 0.97957 0.59668 0.97701 0.0
C820 C 0.95938 0.64811 0.95031 0.0
C821 C 0.97473 0.59823 0.94751 0.0
C822 C 0.93656 0.67391 0.90773 0.0
C823 C 0.94027 0.7259 0.93547 0.0
N824 N 0.96481 0.62336 0.93521 0.0
N825 N 0.94996 0.70087 0.94825 0.0
H826 H 0.43336 0.72471 0.0128 0.0
H827 H 0.51734 0.85305 0.08175 0.0
H828 H 0.50388 0.71222 0.07554 0.0
H829 H 0.46037 0.86218 1.00758 0.0
H830 H 0.51295 0.80132 0.07987 0.0
H831 H 0.44379 0.775 0.00982 0.0
C832 C 0.45141 0.73239 0.02557 0.0
C833 C 0.46757 0.71425 0.04464 0.0
C834 C 0.50148 0.81468 0.06398 0.0
C835 C 0.47912 0.772 0.04186 0.0
C836 C 0.504 0.8442 0.06504 0.0
C837 C 0.48891 0.86206 0.04502 0.0
C838 C 0.4837 0.80297 0.0428 0.0
C839 C 0.47178 0.84938 0.02392 0.0
C840 C 0.45719 0.7612 0.02405 0.0
C841 C 0.49044 0.72557 0.06096 0.0
N842 N 0.46954 0.82068 0.02345 0.0
N843 N 0.49532 0.75378 0.05942 0.0
H844 H 0.01491 0.31278 0.5247 0.0
H845 H 0.06728 0.15655 0.58152 0.0
H846 H 0.09803 0.29172 0.56992 0.0
H847 H 0.9833 0.17584 0.53724 0.0
H848 H 0.07644 0.20726 0.58113 0.0
H849 H 1.00068 0.26375 0.53198 0.0
C850 C 0.03013 0.29786 0.53615 0.0
C851 C 0.05791 0.3062 0.54631 0.0
C852 C 0.05583 0.20051 0.57173 0.0
C853 C 0.04178 0.25032 0.55484 0.0
C854 C 0.05061 0.17157 0.57201 0.0
C855 C 0.02463 0.16203 0.55922 0.0
C856 C 0.03505 0.22005 0.55833 0.0
C857 C 1.00356 0.18238 0.54746 0.0
C858 C 0.02201 0.26993 0.54031 0.0
C859 C 0.07676 0.28604 0.56105 0.0
N860 N 0.0094 0.21044 0.54699 0.0
N861 N 0.06839 0.25908 0.56478 0.0
H862 H 0.61659 0.29244 0.44992 0.0
H863 H 0.52108 0.44316 0.43835 0.0
H864 H 0.55933 0.316 0.37848 0.0
H865 H 0.55886 0.41125 0.51737 0.0
H866 H 0.53774 0.39793 0.41531 0.0
H867 H 0.59832 0.33662 0.4741 0.0
C868 C 0.59998 0.30667 0.43932 0.0
C869 C 0.58949 0.30012 0.41197 0.0
C870 C 0.54233 0.40072 0.43771 0.0
C871 C 0.56893 0.35143 0.4396 0.0
C872 C 0.53288 0.42663 0.45093 0.0
C873 C 0.53858 0.43112 0.47993 0.0
C874 C 0.55796 0.37904 0.45341 0.0
C875 C 0.55391 0.40876 0.49502 0.0
C876 C 0.58969 0.33206 0.45317 0.0
C877 C 0.56851 0.32006 0.39928 0.0
N878 N 0.56321 0.38377 0.48156 0.0
N879 N 0.55904 0.34473 0.41313 0.0
loop_
_geom_bond_atom_site_label_1
_geom_bond_atom_site_label_2
_geom_bond_distance
_geom_bond_site_symmetry_2
_ccdc_geom_bond_type
C0 C1 1.386 . S
C0 C2 1.397 . S
C0 H24 0.931 . S
C1 C0 1.386 . S
C1 C5 1.397 . S
C2 C0 1.397 . S
C2 C3 1.384 . S
C2 H25 0.930 . S
C3 C2 1.384 . S
C3 C4 1.377 . S
C3 C6 1.481 . S
C4 C3 1.377 . S
C4 C5 1.389 . S
C4 H26 0.929 . S
C5 C1 1.397 . S
C5 C4 1.389 . S
C5 H27 0.931 . S
C6 C3 1.481 . S
C6 C7 1.387 . S
C6 C11 1.390 . S
C7 C6 1.387 . S
C7 C8 1.401 . S
C7 H28 0.930 . S
C8 C7 1.401 . S
C8 C9 1.376 . S
C8 C17 1.511 . S
C9 C8 1.376 . S
C9 C10 1.392 . S
C9 H30 0.931 . S
C10 C9 1.392 . S
C10 C11 1.361 . S
C10 C12 1.500 . S
C11 C6 1.390 . S
C11 C10 1.361 . S
C11 H29 0.931 . S
C12 C10 1.500 . S
C12 C13 1.371 . S
C12 C14 1.365 . S
C13 C12 1.371 . S
C13 C23 1.386 . S
C13 H31 0.931 . S
C14 C12 1.365 . S
C14 C15 1.409 . S
C14 H32 0.929 . S
C15 C14 1.409 . S
C15 C16 1.380 . S
C15 H33 0.930 . S
C16 C15 1.380 . S
C16 C23 1.357 . S
C17 C8 1.511 . S
C17 C18 1.341 . S
C17 C19 1.371 . S
C18 C17 1.341 . S
C18 C22 1.394 . S
C18 H34 0.930 . S
C19 C17 1.371 . S
C19 C20 1.392 . S
C19 H35 0.931 . S
C20 C19 1.392 . S
C20 C21 1.331 . S
C20 H38 0.932 . S
C21 C20 1.331 . S
C21 C22 1.336 . S
C22 C18 1.394 . S
C22 C21 1.336 . S
C22 H37 0.929 . S
C23 C13 1.386 . S
C23 C16 1.357 . S
C23 H36 0.928 . S
H24 C0 0.931 . S
H25 C2 0.930 . S
H26 C4 0.929 . S
H27 C5 0.931 . S
H28 C7 0.930 . S
H29 C11 0.931 . S
H30 C9 0.931 . S
H31 C13 0.931 . S
H32 C14 0.929 . S
H33 C15 0.930 . S
H34 C18 0.930 . S
H35 C19 0.931 . S
H36 C23 0.928 . S
H37 C22 0.929 . S
H38 C20 0.932 . S
C39 C40 1.386 . S
C39 C41 1.397 . S
C39 H63 0.931 . S
C40 C39 1.386 . S
C40 C44 1.397 . S
C41 C39 1.397 . S
C41 C42 1.384 . S
C41 H64 0.930 . S
C42 C41 1.384 . S
C42 C43 1.377 . S
C42 C45 1.481 . S
C43 C42 1.377 . S
C43 C44 1.389 . S
C43 H65 0.929 . S
C44 C40 1.397 . S
C44 C43 1.389 . S
C44 H66 0.931 . S
C45 C42 1.481 . S
C45 C46 1.387 . S
C45 C50 1.390 . S
C46 C45 1.387 . S
C46 C47 1.401 . S
C46 H67 0.930 . S
C47 C46 1.401 . S
C47 C48 1.376 . S
C47 C56 1.511 . S
C48 C47 1.376 . S
C48 C49 1.392 . S
C48 H69 0.931 . S
C49 C48 1.392 . S
C49 C50 1.361 . S
C49 C51 1.500 . S
C50 C45 1.390 . S
C50 C49 1.361 . S
C50 H68 0.931 . S
C51 C49 1.500 . S
C51 C52 1.371 . S
C51 C53 1.365 . S
C52 C51 1.371 . S
C52 C62 1.386 . S
C52 H70 0.931 . S
C53 C51 1.365 . S
C53 C54 1.409 . S
C53 H71 0.929 . S
C54 C53 1.409 . S
C54 C55 1.380 . S
C54 H72 0.930 . S
C55 C54 1.380 . S
C55 C62 1.357 . S
C56 C47 1.511 . S
C56 C57 1.341 . S
C56 C58 1.371 . S
C57 C56 1.341 . S
C57 C61 1.394 . S
C57 H73 0.930 . S
C58 C56 1.371 . S
C58 C59 1.392 . S
C58 H74 0.931 . S
C59 C58 1.392 . S
C59 C60 1.331 . S
C59 H77 0.932 . S
C60 C59 1.331 . S
C60 C61 1.336 . S
C61 C57 1.394 . S
C61 C60 1.336 . S
C61 H76 0.929 . S
C62 C52 1.386 . S
C62 C55 1.357 . S
C62 H75 0.928 . S
H63 C39 0.931 . S
H64 C41 0.930 . S
H65 C43 0.929 . S
H66 C44 0.931 . S
H67 C46 0.930 . S
H68 C50 0.931 . S
H69 C48 0.931 . S
H70 C52 0.931 . S
H71 C53 0.929 . S
H72 C54 0.930 . S
H73 C57 0.930 . S
H74 C58 0.931 . S
H75 C62 0.928 . S
H76 C61 0.929 . S
H77 C59 0.932 . S
C78 C79 1.386 . S
C78 C80 1.397 . S
C78 H102 0.931 . S
C79 C78 1.386 . S
C79 C83 1.397 . S
C80 C78 1.397 . S
C80 C81 1.384 . S
C80 H103 0.930 . S
C81 C80 1.384 . S
C81 C82 1.377 . S
C81 C84 1.481 . S
C82 C81 1.377 . S
C82 C83 1.389 . S
C82 H104 0.929 . S
C83 C79 1.397 . S
C83 C82 1.389 . S
C83 H105 0.931 . S
C84 C81 1.481 . S
C84 C85 1.387 . S
C84 C89 1.390 . S
C85 C84 1.387 . S
C85 C86 1.401 . S
C85 H106 0.930 . S
C86 C85 1.401 . S
C86 C87 1.376 . S
C86 C95 1.511 . S
C87 C86 1.376 . S
C87 C88 1.392 . S
C87 H108 0.931 . S
C88 C87 1.392 . S
C88 C89 1.361 . S
C88 C90 1.500 . S
C89 C84 1.390 . S
C89 C88 1.361 . S
C89 H107 0.931 . S
C90 C88 1.500 . S
C90 C91 1.371 . S
C90 C92 1.365 . S
C91 C90 1.371 . S
C91 C101 1.386 . S
C91 H109 0.931 . S
C92 C90 1.365 . S
C92 C93 1.409 . S
C92 H110 0.929 . S
C93 C92 1.409 . S
C93 C94 1.380 . S
C93 H111 0.930 . S
C94 C93 1.380 . S
C94 C101 1.357 . S
C95 C86 1.511 . S
C95 C96 1.341 . S
C95 C97 1.371 . S
C96 C95 1.341 . S
C96 C100 1.394 . S
C96 H112 0.930 . S
C97 C95 1.371 . S
C97 C98 1.392 . S
C97 H113 0.931 . S
C98 C97 1.392 . S
C98 C99 1.331 . S
C98 H116 0.932 . S
C99 C98 1.331 . S
C99 C100 1.336 . S
C100 C96 1.394 . S
C100 C99 1.336 . S
C100 H115 0.929 . S
C101 C91 1.386 . S
C101 C94 1.357 . S
C101 H114 0.928 . S
H102 C78 0.931 . S
H103 C80 0.930 . S
H104 C82 0.929 . S
H105 C83 0.931 . S
H106 C85 0.930 . S
H107 C89 0.931 . S
H108 C87 0.931 . S
H109 C91 0.931 . S
H110 C92 0.929 . S
H111 C93 0.930 . S
H112 C96 0.930 . S
H113 C97 0.931 . S
H114 C101 0.928 . S
H115 C100 0.929 . S
H116 C98 0.932 . S
C117 C118 1.386 . S
C117 C119 1.397 . S
C117 H141 0.931 . S
C118 C117 1.386 . S
C118 C122 1.397 . S
C119 C117 1.397 . S
C119 C120 1.384 . S
C119 H142 0.930 . S
C120 C119 1.384 . S
C120 C121 1.377 . S
C120 C123 1.481 . S
C121 C120 1.377 . S
C121 C122 1.389 . S
C121 H143 0.929 . S
C122 C118 1.397 . S
C122 C121 1.389 . S
C122 H144 0.931 . S
C123 C120 1.481 . S
C123 C124 1.387 . S
C123 C128 1.390 . S
C124 C123 1.387 . S
C124 C125 1.401 . S
C124 H145 0.930 . S
C125 C124 1.401 . S
C125 C126 1.376 . S
C125 C134 1.511 . S
C126 C125 1.376 . S
C126 C127 1.392 . S
C126 H147 0.931 . S
C127 C126 1.392 . S
C127 C128 1.361 . S
C127 C129 1.500 . S
C128 C123 1.390 . S
C128 C127 1.361 . S
C128 H146 0.931 . S
C129 C127 1.500 . S
C129 C130 1.371 . S
C129 C131 1.365 . S
C130 C129 1.371 . S
C130 C140 1.386 . S
C130 H148 0.931 . S
C131 C129 1.365 . S
C131 C132 1.409 . S
C131 H149 0.929 . S
C132 C131 1.409 . S
C132 C133 1.380 . S
C132 H150 0.930 . S
C133 C132 1.380 . S
C133 C140 1.357 . S
C134 C125 1.511 . S
C134 C135 1.341 . S
C134 C136 1.371 . S
C135 C134 1.341 . S
C135 C139 1.394 . S
C135 H151 0.930 . S
C136 C134 1.371 . S
C136 C137 1.392 . S
C136 H152 0.931 . S
C137 C136 1.392 . S
C137 C138 1.331 . S
C137 H155 0.932 . S
C138 C137 1.331 . S
C138 C139 1.336 . S
C139 C135 1.394 . S
C139 C138 1.336 . S
C139 H154 0.929 . S
C140 C130 1.386 . S
C140 C133 1.357 . S
C140 H153 0.928 . S
H141 C117 0.931 . S
H142 C119 0.930 . S
H143 C121 0.929 . S
H144 C122 0.931 . S
H145 C124 0.930 . S
H146 C128 0.931 . S
H147 C126 0.931 . S
H148 C130 0.931 . S
H149 C131 0.929 . S
H150 C132 0.930 . S
H151 C135 0.930 . S
H152 C136 0.931 . S
H153 C140 0.928 . S
H154 C139 0.929 . S
H155 C137 0.932 . S
C156 C157 1.386 . S
C156 C158 1.397 . S
C156 H180 0.931 . S
C157 C156 1.386 . S
C157 C161 1.397 . S
C158 C156 1.397 . S
C158 C159 1.384 . S
C158 H181 0.930 . S
C159 C158 1.384 . S
C159 C160 1.377 . S
C159 C162 1.481 . S
C160 C159 1.377 . S
C160 C161 1.389 . S
C160 H182 0.929 . S
C161 C157 1.397 . S
C161 C160 1.389 . S
C161 H183 0.931 . S
C162 C159 1.481 . S
C162 C163 1.387 . S
C162 C167 1.390 . S
C163 C162 1.387 . S
C163 C164 1.401 . S
C163 H184 0.930 . S
C164 C163 1.401 . S
C164 C165 1.376 . S
C164 C173 1.511 . S
C165 C164 1.376 . S
C165 C166 1.392 . S
C165 H186 0.931 . S
C166 C165 1.392 . S
C166 C167 1.361 . S
C166 C168 1.500 . S
C167 C162 1.390 . S
C167 C166 1.361 . S
C167 H185 0.931 . S
C168 C166 1.500 . S
C168 C169 1.371 . S
C168 C170 1.365 . S
C169 C168 1.371 . S
C169 C179 1.386 . S
C169 H187 0.931 . S
C170 C168 1.365 . S
C170 C171 1.409 . S
C170 H188 0.929 . S
C171 C170 1.409 . S
C171 C172 1.380 . S
C171 H189 0.930 . S
C172 C171 1.380 . S
C172 C179 1.357 . S
C173 C164 1.511 . S
C173 C174 1.341 . S
C173 C175 1.371 . S
C174 C173 1.341 . S
C174 C178 1.394 . S
C174 H190 0.930 . S
C175 C173 1.371 . S
C175 C176 1.392 . S
C175 H191 0.931 . S
C176 C175 1.392 . S
C176 C177 1.331 . S
C176 H194 0.932 . S
C177 C176 1.331 . S
C177 C178 1.336 . S
C178 C174 1.394 . S
C178 C177 1.336 . S
C178 H193 0.929 . S
C179 C169 1.386 . S
C179 C172 1.357 . S
C179 H192 0.928 . S
H180 C156 0.931 . S
H181 C158 0.930 . S
H182 C160 0.929 . S
H183 C161 0.931 . S
H184 C163 0.930 . S
H185 C167 0.931 . S
H186 C165 0.931 . S
H187 C169 0.931 . S
H188 C170 0.929 . S
H189 C171 0.930 . S
H190 C174 0.930 . S
H191 C175 0.931 . S
H192 C179 0.928 . S
H193 C178 0.929 . S
H194 C176 0.932 . S
C195 C196 1.386 . S
C195 C197 1.397 . S
C195 H219 0.931 . S
C196 C195 1.386 . S
C196 C200 1.397 . S
C197 C195 1.397 . S
C197 C198 1.384 . S
C197 H220 0.930 . S
C198 C197 1.384 . S
C198 C199 1.377 . S
C198 C201 1.481 . S
C199 C198 1.377 . S
C199 C200 1.389 . S
C199 H221 0.929 . S
C200 C196 1.397 . S
C200 C199 1.389 . S
C200 H222 0.931 . S
C201 C198 1.481 . S
C201 C202 1.387 . S
C201 C206 1.390 . S
C202 C201 1.387 . S
C202 C203 1.401 . S
C202 H223 0.930 . S
C203 C202 1.401 . S
C203 C204 1.376 . S
C203 C212 1.511 . S
C204 C203 1.376 . S
C204 C205 1.392 . S
C204 H225 0.931 . S
C205 C204 1.392 . S
C205 C206 1.361 . S
C205 C207 1.500 . S
C206 C201 1.390 . S
C206 C205 1.361 . S
C206 H224 0.931 . S
C207 C205 1.500 . S
C207 C208 1.371 . S
C207 C209 1.365 . S
C208 C207 1.371 . S
C208 C218 1.386 . S
C208 H226 0.931 . S
C209 C207 1.365 . S
C209 C210 1.409 . S
C209 H227 0.929 . S
C210 C209 1.409 . S
C210 C211 1.380 . S
C210 H228 0.930 . S
C211 C210 1.380 . S
C211 C218 1.357 . S
C212 C203 1.511 . S
C212 C213 1.341 . S
C212 C214 1.371 . S
C213 C212 1.341 . S
C213 C217 1.394 . S
C213 H229 0.930 . S
C214 C212 1.371 . S
C214 C215 1.392 . S
C214 H230 0.931 . S
C215 C214 1.392 . S
C215 C216 1.331 . S
C215 H233 0.932 . S
C216 C215 1.331 . S
C216 C217 1.336 . S
C217 C213 1.394 . S
C217 C216 1.336 . S
C217 H232 0.929 . S
C218 C208 1.386 . S
C218 C211 1.357 . S
C218 H231 0.928 . S
H219 C195 0.931 . S
H220 C197 0.930 . S
H221 C199 0.929 . S
H222 C200 0.931 . S
H223 C202 0.930 . S
H224 C206 0.931 . S
H225 C204 0.931 . S
H226 C208 0.931 . S
H227 C209 0.929 . S
H228 C210 0.930 . S
H229 C213 0.930 . S
H230 C214 0.931 . S
H231 C218 0.928 . S
H232 C217 0.929 . S
H233 C215 0.932 . S
C234 C235 1.386 . S
C234 C236 1.397 . S
C234 H258 0.931 . S
C235 C234 1.386 . S
C235 C239 1.397 . S
C236 C234 1.397 . S
C236 C237 1.384 . S
C236 H259 0.930 . S
C237 C236 1.384 . S
C237 C238 1.377 . S
C237 C240 1.481 . S
C238 C237 1.377 . S
C238 C239 1.389 . S
C238 H260 0.929 . S
C239 C235 1.397 . S
C239 C238 1.389 . S
C239 H261 0.931 . S
C240 C237 1.481 . S
C240 C241 1.387 . S
C240 C245 1.390 . S
C241 C240 1.387 . S
C241 C242 1.401 . S
C241 H262 0.930 . S
C242 C241 1.401 . S
C242 C243 1.376 . S
C242 C251 1.511 . S
C243 C242 1.376 . S
C243 C244 1.392 . S
C243 H264 0.931 . S
C244 C243 1.392 . S
C244 C245 1.361 . S
C244 C246 1.500 . S
C245 C240 1.390 . S
C245 C244 1.361 . S
C245 H263 0.931 . S
C246 C244 1.500 . S
C246 C247 1.371 . S
C246 C248 1.365 . S
C247 C246 1.371 . S
C247 C257 1.386 . S
C247 H265 0.931 . S
C248 C246 1.365 . S
C248 C249 1.409 . S
C248 H266 0.929 . S
C249 C248 1.409 . S
C249 C250 1.380 . S
C249 H267 0.930 . S
C250 C249 1.380 . S
C250 C257 1.357 . S
C251 C242 1.511 . S
C251 C252 1.341 . S
C251 C253 1.371 . S
C252 C251 1.341 . S
C252 C256 1.394 . S
C252 H268 0.930 . S
C253 C251 1.371 . S
C253 C254 1.392 . S
C253 H269 0.931 . S
C254 C253 1.392 . S
C254 C255 1.331 . S
C254 H272 0.932 . S
C255 C254 1.331 . S
C255 C256 1.336 . S
C256 C252 1.394 . S
C256 C255 1.336 . S
C256 H271 0.929 . S
C257 C247 1.386 . S
C257 C250 1.357 . S
C257 H270 0.928 . S
H258 C234 0.931 . S
H259 C236 0.930 . S
H260 C238 0.929 . S
H261 C239 0.931 . S
H262 C241 0.930 . S
H263 C245 0.931 . S
H264 C243 0.931 . S
H265 C247 0.931 . S
H266 C248 0.929 . S
H267 C249 0.930 . S
H268 C252 0.930 . S
H269 C253 0.931 . S
H270 C257 0.928 . S
H271 C256 0.929 . S
H272 C254 0.932 . S
C273 C274 1.386 . S
C273 C275 1.397 . S
C273 H297 0.931 . S
C274 C273 1.386 . S
C274 C278 1.397 . S
C275 C273 1.397 . S
C275 C276 1.384 . S
C275 H298 0.930 . S
C276 C275 1.384 . S
C276 C277 1.377 . S
C276 C279 1.481 . S
C277 C276 1.377 . S
C277 C278 1.389 . S
C277 H299 0.929 . S
C278 C274 1.397 . S
C278 C277 1.389 . S
C278 H300 0.931 . S
C279 C276 1.481 . S
C279 C280 1.387 . S
C279 C284 1.390 . S
C280 C279 1.387 . S
C280 C281 1.401 . S
C280 H301 0.930 . S
C281 C280 1.401 . S
C281 C282 1.376 . S
C281 C290 1.511 . S
C282 C281 1.376 . S
C282 C283 1.392 . S
C282 H303 0.931 . S
C283 C282 1.392 . S
C283 C284 1.361 . S
C283 C285 1.500 . S
C284 C279 1.390 . S
C284 C283 1.361 . S
C284 H302 0.931 . S
C285 C283 1.500 . S
C285 C286 1.371 . S
C285 C287 1.365 . S
C286 C285 1.371 . S
C286 C296 1.386 . S
C286 H304 0.931 . S
C287 C285 1.365 . S
C287 C288 1.409 . S
C287 H305 0.929 . S
C288 C287 1.409 . S
C288 C289 1.380 . S
C288 H306 0.930 . S
C289 C288 1.380 . S
C289 C296 1.357 . S
C290 C281 1.511 . S
C290 C291 1.341 . S
C290 C292 1.371 . S
C291 C290 1.341 . S
C291 C295 1.394 . S
C291 H307 0.930 . S
C292 C290 1.371 . S
C292 C293 1.392 . S
C292 H308 0.931 . S
C293 C292 1.392 . S
C293 C294 1.331 . S
C293 H311 0.932 . S
C294 C293 1.331 . S
C294 C295 1.336 . S
C295 C291 1.394 . S
C295 C294 1.336 . S
C295 H310 0.929 . S
C296 C286 1.386 . S
C296 C289 1.357 . S
C296 H309 0.928 . S
H297 C273 0.931 . S
H298 C275 0.930 . S
H299 C277 0.929 . S
H300 C278 0.931 . S
H301 C280 0.930 . S
H302 C284 0.931 . S
H303 C282 0.931 . S
H304 C286 0.931 . S
H305 C287 0.929 . S
H306 C288 0.930 . S
H307 C291 0.930 . S
H308 C292 0.931 . S
H309 C296 0.928 . S
H310 C295 0.929 . S
H311 C293 0.932 . S
C312 O328 1.251 . S
C312 O330 1.254 1_545 S
N313 C314 1.333 . S
N313 C318 1.307 . S
N313 Zn319 2.020 . S
C314 N313 1.333 . S
C314 C315 1.379 . S
C314 H332 0.952 . S
C315 C314 1.379 . S
C315 C316 1.390 . S
C315 H342 0.949 . S
C316 C315 1.390 . S
C316 C317 1.357 . S
C317 C316 1.357 . S
C317 C318 1.370 . S
C317 H343 0.950 . S
C318 N313 1.307 . S
C318 C317 1.370 . S
C318 H336 0.948 1_455 S
Zn319 N313 2.020 . S
Zn319 O328 2.039 . S
Zn319 O334 2.034 . S
Zn319 O338 2.025 1_455 S
Zn319 O340 2.024 1_455 S
C320 O339 1.246 1_545 S
C320 O340 1.249 . S
N321 C322 1.322 . S
N321 C323 1.333 . S
N321 Zn327 2.020 . S
C322 N321 1.322 . S
C322 C326 1.380 . S
C322 H333 0.923 1_655 S
C323 N321 1.333 . S
C323 C324 1.379 . S
C323 H331 0.952 . S
C324 C323 1.379 . S
C324 C325 1.390 . S
C324 H344 0.949 . S
C325 C324 1.390 . S
C325 C326 1.357 . S
C326 C322 1.380 . S
C326 C325 1.357 . S
C326 H345 0.950 1_655 S
Zn327 N321 2.020 . S
Zn327 O330 2.025 1_655 S
Zn327 O335 2.024 1_655 S
Zn327 O337 2.039 . S
Zn327 O339 2.034 . S
O328 C312 1.251 . S
O328 Zn319 2.039 . S
C329 O334 1.246 1_565 S
C329 O335 1.249 . S
O330 C312 1.254 1_565 S
O330 Zn327 2.025 1_455 S
H331 C323 0.952 . S
H332 C314 0.952 . S
H333 C322 0.923 1_455 S
O334 Zn319 2.034 . S
O334 C329 1.246 1_545 S
O335 Zn327 2.024 1_455 S
O335 C329 1.249 . S
H336 C318 0.948 1_655 S
O337 Zn327 2.039 . S
O337 C341 1.251 . S
O338 Zn319 2.025 1_655 S
O338 C341 1.254 1_545 S
O339 C320 1.246 1_565 S
O339 Zn327 2.034 . S
O340 Zn319 2.024 1_655 S
O340 C320 1.249 . S
C341 O337 1.251 . S
C341 O338 1.254 1_565 S
H342 C315 0.949 . S
H343 C317 0.950 . S
H344 C324 0.949 . S
H345 C326 0.950 1_455 S
C346 O362 1.251 1_565 S
C346 O364 1.254 . S
N347 C348 1.333 . S
N347 C352 1.307 . S
N347 Zn353 2.020 . S
C348 N347 1.333 . S
C348 C349 1.379 . S
C348 H366 0.952 . S
C349 C348 1.379 . S
C349 C350 1.390 . S
C349 H376 0.949 . S
C350 C349 1.390 . S
C350 C351 1.357 . S
C351 C350 1.357 . S
C351 C352 1.370 . S
C351 H377 0.950 . S
C352 N347 1.307 . S
C352 C351 1.370 . S
C352 H370 0.948 . S
Zn353 N347 2.020 . S
Zn353 O362 2.039 . S
Zn353 O368 2.034 1_556 S
Zn353 O372 2.025 1_556 S
Zn353 O374 2.024 . S
C354 O373 1.246 . S
C354 O374 1.249 1_565 S
N355 C356 1.307 . S
N355 C357 1.333 . S
N355 Zn361 2.020 . S
C356 N355 1.307 . S
C356 C360 1.370 . S
C356 H367 0.948 . S
C357 N355 1.333 . S
C357 C358 1.379 . S
C357 H365 0.952 . S
C358 C357 1.379 . S
C358 C359 1.390 . S
C358 H378 0.949 . S
C359 C358 1.390 . S
C359 C360 1.357 . S
C360 C356 1.370 . S
C360 C359 1.357 . S
C360 H379 0.950 . S
Zn361 N355 2.020 . S
Zn361 O364 2.025 1_554 S
Zn361 O369 2.024 . S
Zn361 O371 2.039 . S
Zn361 O373 2.034 1_554 S
O362 C346 1.251 1_545 S
O362 Zn353 2.039 . S
C363 O368 1.246 . S
C363 O369 1.249 1_545 S
O364 C346 1.254 . S
O364 Zn361 2.025 1_556 S
H365 C357 0.952 . S
H366 C348 0.952 . S
H367 C356 0.948 . S
O368 Zn353 2.034 1_554 S
O368 C363 1.246 . S
O369 Zn361 2.024 . S
O369 C363 1.249 1_565 S
H370 C352 0.948 . S
O371 Zn361 2.039 . S
O371 C375 1.251 1_565 S
O372 Zn353 2.025 1_554 S
O372 C375 1.254 . S
O373 C354 1.246 . S
O373 Zn361 2.034 1_556 S
O374 Zn353 2.024 . S
O374 C354 1.249 1_545 S
C375 O371 1.251 1_545 S
C375 O372 1.254 . S
H376 C349 0.949 . S
H377 C351 0.950 . S
H378 C358 0.949 . S
H379 C360 0.950 . S
C380 O396 1.251 . S
C380 O398 1.254 . S
N381 C382 1.333 . S
N381 C386 1.307 . S
N381 Zn387 2.020 . S
C382 N381 1.333 . S
C382 C383 1.379 . S
C382 H400 0.952 . S
C383 C382 1.379 . S
C383 C384 1.390 . S
C383 H410 0.949 . S
C384 C383 1.390 . S
C384 C385 1.357 . S
C385 C384 1.357 . S
C385 C386 1.370 . S
C385 H411 0.950 . S
C386 N381 1.307 . S
C386 C385 1.370 . S
C386 H404 0.948 . S
Zn387 N381 2.020 . S
Zn387 O396 2.039 . S
Zn387 O402 2.034 . S
Zn387 O406 2.025 . S
Zn387 O408 2.024 . S
C388 O407 1.246 . S
C388 O408 1.249 . S
N389 C390 1.307 . S
N389 C391 1.333 . S
N389 Zn395 2.020 . S
C390 N389 1.307 . S
C390 C394 1.370 . S
C390 H401 0.948 . S
C391 N389 1.333 . S
C391 C392 1.379 . S
C391 H399 0.952 . S
C392 C391 1.379 . S
C392 C393 1.390 . S
C392 H412 0.949 . S
C393 C392 1.390 . S
C393 C394 1.357 . S
C394 C390 1.370 . S
C394 C393 1.357 . S
C394 H413 0.950 . S
Zn395 N389 2.020 . S
Zn395 O398 2.025 . S
Zn395 O403 2.024 . S
Zn395 O405 2.039 . S
Zn395 O407 2.034 . S
O396 C380 1.251 . S
O396 Zn387 2.039 . S
C397 O402 1.246 . S
C397 O403 1.249 . S
O398 C380 1.254 . S
O398 Zn395 2.025 . S
H399 C391 0.952 . S
H400 C382 0.952 . S
H401 C390 0.948 . S
O402 Zn387 2.034 . S
O402 C397 1.246 . S
O403 Zn395 2.024 . S
O403 C397 1.249 . S
H404 C386 0.948 . S
O405 Zn395 2.039 . S
O405 C409 1.251 . S
O406 Zn387 2.025 . S
O406 C409 1.254 . S
O407 C388 1.246 . S
O407 Zn395 2.034 . S
O408 Zn387 2.024 . S
O408 C388 1.249 . S
C409 O405 1.251 . S
C409 O406 1.254 . S
H410 C383 0.949 . S
H411 C385 0.950 . S
H412 C392 0.949 . S
H413 C394 0.950 . S
C414 O430 1.251 1_556 S
C414 O432 1.267 . S
N415 C416 1.333 . S
N415 C420 1.307 . S
N415 Zn421 2.020 . S
C416 N415 1.333 . S
C416 C417 1.379 . S
C416 H434 0.952 . S
C417 C416 1.379 . S
C417 C418 1.390 . S
C417 H444 0.949 . S
C418 C417 1.390 . S
C418 C419 1.357 . S
C419 C418 1.357 . S
C419 C420 1.370 . S
C419 H445 0.950 . S
C420 N415 1.307 . S
C420 C419 1.370 . S
C420 H438 0.948 . S
Zn421 N415 2.020 . S
Zn421 O430 2.039 . S
Zn421 O436 2.034 1_655 S
Zn421 O440 2.025 1_655 S
Zn421 O442 2.024 . S
C422 O441 1.246 . S
C422 O442 1.249 1_556 S
N423 C424 1.307 . S
N423 C425 1.333 . S
N423 Zn429 2.020 . S
C424 N423 1.307 . S
C424 C428 1.370 . S
C424 H435 0.948 . S
C425 N423 1.333 . S
C425 C426 1.379 . S
C425 H433 0.952 . S
C426 C425 1.379 . S
C426 C427 1.390 . S
C426 H446 0.949 . S
C427 C426 1.390 . S
C427 C428 1.357 . S
C428 C424 1.370 . S
C428 C427 1.357 . S
C428 H447 0.950 . S
Zn429 N423 2.020 . S
Zn429 O432 2.017 1_455 S
Zn429 O437 2.024 . S
Zn429 O439 2.039 . S
Zn429 O441 2.034 1_455 S
O430 C414 1.251 1_554 S
O430 Zn421 2.039 . S
C431 O436 1.246 . S
C431 O437 1.249 1_554 S
O432 C414 1.267 . S
O432 Zn429 2.017 1_655 S
H433 C425 0.952 . S
H434 C416 0.952 . S
H435 C424 0.948 . S
O436 Zn421 2.034 1_455 S
O436 C431 1.246 . S
O437 Zn429 2.024 . S
O437 C431 1.249 1_556 S
H438 C420 0.948 . S
O439 Zn429 2.039 . S
O439 C443 1.251 1_556 S
O440 Zn421 2.025 1_455 S
O440 C443 1.254 . S
O441 C422 1.246 . S
O441 Zn429 2.034 1_655 S
O442 Zn421 2.024 . S
O442 C422 1.249 1_554 S
C443 O439 1.251 1_554 S
C443 O440 1.254 . S
H444 C417 0.949 . S
H445 C419 0.950 . S
H446 C426 0.949 . S
H447 C428 0.950 . S
H448 C454 0.930 . S
H449 C458 0.930 . S
H450 C463 0.929 . S
H451 C461 0.929 1_565 S
H452 C456 0.929 . S
H453 C462 0.929 . S
C454 H448 0.930 . S
C454 C455 1.367 . S
C454 C462 1.378 . S
C455 C454 1.367 . S
C455 C463 1.433 . S
C456 H452 0.929 . S
C456 C458 1.378 . S
C456 C460 1.350 . S
C457 C460 1.463 . S
C457 C462 1.350 . S
C457 N465 1.427 . S
C458 H449 0.930 . S
C458 C456 1.378 . S
C458 C459 1.367 . S
C459 C458 1.367 . S
C459 C461 1.433 . S
C460 C456 1.350 . S
C460 C457 1.463 . S
C460 N464 1.427 . S
C461 H451 0.929 1_545 S
C461 C459 1.433 . S
C461 N464 1.384 . S
C462 H453 0.929 . S
C462 C454 1.378 . S
C462 C457 1.350 . S
C463 H450 0.929 . S
C463 C455 1.433 . S
C463 N465 1.384 . S
N464 C460 1.427 . S
N464 C461 1.384 . S
N465 C457 1.427 . S
N465 C463 1.384 . S
H466 C472 0.930 . S
H467 C476 0.930 . S
H468 C481 0.929 . S
H469 C479 0.929 1_545 S
H470 C474 0.929 . S
H471 C480 0.929 . S
C472 H466 0.930 . S
C472 C473 1.367 . S
C472 C480 1.378 . S
C473 C472 1.367 . S
C473 C481 1.433 . S
C474 H470 0.929 . S
C474 C476 1.378 . S
C474 C478 1.350 . S
C475 C478 1.463 . S
C475 C480 1.350 . S
C475 N483 1.427 . S
C476 H467 0.930 . S
C476 C474 1.378 . S
C476 C477 1.367 . S
C477 C476 1.367 . S
C477 C479 1.433 . S
C478 C474 1.350 . S
C478 C475 1.463 . S
C478 N482 1.427 . S
C479 H469 0.929 1_565 S
C479 C477 1.433 . S
C479 N482 1.384 . S
C480 H471 0.929 . S
C480 C472 1.378 . S
C480 C475 1.350 . S
C481 H468 0.929 . S
C481 C473 1.433 . S
C481 N483 1.384 . S
N482 C478 1.427 . S
N482 C479 1.384 . S
N483 C475 1.427 . S
N483 C481 1.384 . S
H484 C490 0.930 . S
H485 C494 0.930 . S
H486 C499 0.929 . S
H487 C497 0.929 . S
H488 C492 0.929 . S
H489 C498 0.929 . S
C490 H484 0.930 . S
C490 C491 1.367 . S
C490 C498 1.378 . S
C491 C490 1.367 . S
C491 C499 1.433 . S
C492 H488 0.929 . S
C492 C494 1.378 . S
C492 C496 1.350 . S
C493 C496 1.463 . S
C493 C498 1.350 . S
C493 N501 1.427 . S
C494 H485 0.930 . S
C494 C492 1.378 . S
C494 C495 1.367 . S
C495 C494 1.367 . S
C495 C497 1.433 . S
C496 C492 1.350 . S
C496 C493 1.463 . S
C496 N500 1.427 . S
C497 H487 0.929 . S
C497 C495 1.433 . S
C497 N500 1.384 . S
C498 H489 0.929 . S
C498 C490 1.378 . S
C498 C493 1.350 . S
C499 H486 0.929 . S
C499 C491 1.433 . S
C499 N501 1.384 . S
N500 C496 1.427 . S
N500 C497 1.384 . S
N501 C493 1.427 . S
N501 C499 1.384 . S
H502 C508 0.930 . S
H503 C512 0.930 . S
H504 C517 0.929 . S
H505 C515 0.929 . S
H506 C510 0.929 . S
H507 C516 0.929 . S
C508 H502 0.930 . S
C508 C509 1.367 . S
C508 C516 1.378 . S
C509 C508 1.367 . S
C509 C517 1.433 . S
C510 H506 0.929 . S
C510 C512 1.378 . S
C510 C514 1.350 . S
C511 C514 1.463 . S
C511 C516 1.350 . S
C511 N519 1.427 . S
C512 H503 0.930 . S
C512 C510 1.378 . S
C512 C513 1.367 . S
C513 C512 1.367 . S
C513 C515 1.433 . S
C514 C510 1.350 . S
C514 C511 1.463 . S
C514 N518 1.427 . S
C515 H505 0.929 . S
C515 C513 1.433 . S
C515 N518 1.384 . S
C516 H507 0.929 . S
C516 C508 1.378 . S
C516 C511 1.350 . S
C517 H504 0.929 . S
C517 C509 1.433 . S
C517 N519 1.384 . S
N518 C514 1.427 . S
N518 C515 1.384 . S
N519 C511 1.427 . S
N519 C517 1.384 . S
H520 C526 0.930 . S
H521 C530 0.930 1_565 S
H522 C535 0.929 . S
H523 C533 0.929 . S
H524 C528 0.929 . S
H525 C534 0.929 . S
C526 H520 0.930 . S
C526 C527 1.367 . S
C526 C534 1.378 . S
C527 C526 1.367 . S
C527 C535 1.433 . S
C528 H524 0.929 . S
C528 C530 1.378 . S
C528 C532 1.350 . S
C529 C532 1.463 . S
C529 C534 1.350 . S
C529 N537 1.427 . S
C530 H521 0.930 1_545 S
C530 C528 1.378 . S
C530 C531 1.367 . S
C531 C530 1.367 . S
C531 C533 1.433 . S
C532 C528 1.350 . S
C532 C529 1.463 . S
C532 N536 1.427 . S
C533 H523 0.929 . S
C533 C531 1.433 . S
C533 N536 1.384 . S
C534 H525 0.929 . S
C534 C526 1.378 . S
C534 C529 1.350 . S
C535 H522 0.929 . S
C535 C527 1.433 . S
C535 N537 1.384 . S
N536 C532 1.427 . S
N536 C533 1.384 . S
N537 C529 1.427 . S
N537 C535 1.384 . S
H538 C544 0.930 . S
H539 C548 0.930 1_545 S
H540 C553 0.929 . S
H541 C551 0.929 . S
H542 C546 0.929 1_545 S
H543 C552 0.929 . S
C544 H538 0.930 . S
C544 C545 1.367 . S
C544 C552 1.378 . S
C545 C544 1.367 . S
C545 C553 1.433 . S
C546 H542 0.929 1_565 S
C546 C548 1.378 . S
C546 C550 1.350 . S
C547 C550 1.463 . S
C547 C552 1.350 . S
C547 N555 1.427 . S
C548 H539 0.930 1_565 S
C548 C546 1.378 . S
C548 C549 1.367 . S
C549 C548 1.367 . S
C549 C551 1.433 . S
C550 C546 1.350 . S
C550 C547 1.463 . S
C550 N554 1.427 . S
C551 H541 0.929 . S
C551 C549 1.433 . S
C551 N554 1.384 . S
C552 H543 0.929 . S
C552 C544 1.378 . S
C552 C547 1.350 . S
C553 H540 0.929 . S
C553 C545 1.433 . S
C553 N555 1.384 . S
N554 C550 1.427 . S
N554 C551 1.384 . S
N555 C547 1.427 . S
N555 C553 1.384 . S
H556 C562 0.930 . S
H557 C566 0.930 1_554 S
H558 C571 0.929 . S
H559 C569 0.929 . S
H560 C564 0.929 . S
H561 C570 0.929 . S
C562 H556 0.930 . S
C562 C563 1.367 . S
C562 C570 1.378 . S
C563 C562 1.367 . S
C563 C571 1.433 . S
C564 H560 0.929 . S
C564 C566 1.378 . S
C564 C568 1.350 . S
C565 C568 1.463 . S
C565 C570 1.350 . S
C565 N573 1.427 . S
C566 H557 0.930 1_556 S
C566 C564 1.378 . S
C566 C567 1.367 . S
C567 C566 1.367 . S
C567 C569 1.433 . S
C568 C564 1.350 . S
C568 C565 1.463 . S
C568 N572 1.427 . S
C569 H559 0.929 . S
C569 C567 1.433 . S
C569 N572 1.384 . S
C570 H561 0.929 . S
C570 C562 1.378 . S
C570 C565 1.350 . S
C571 H558 0.929 . S
C571 C563 1.433 . S
C571 N573 1.384 . S
N572 C568 1.427 . S
N572 C569 1.384 . S
N573 C565 1.427 . S
N573 C571 1.384 . S
H574 C580 0.930 . S
H575 C584 0.930 . S
H576 C589 0.929 . S
H577 C587 0.929 . S
H578 C582 0.929 . S
H579 C588 0.929 . S
C580 H574 0.930 . S
C580 C581 1.367 . S
C580 C588 1.378 . S
C581 C580 1.367 . S
C581 C589 1.433 . S
C582 H578 0.929 . S
C582 C584 1.378 . S
C582 C586 1.350 . S
C583 C586 1.463 . S
C583 C588 1.350 . S
C583 N591 1.427 . S
C584 H575 0.930 . S
C584 C582 1.378 . S
C584 C585 1.367 . S
C585 C584 1.367 . S
C585 C587 1.433 . S
C586 C582 1.350 . S
C586 C583 1.463 . S
C586 N590 1.427 . S
C587 H577 0.929 . S
C587 C585 1.433 . S
C587 N590 1.384 . S
C588 H579 0.929 . S
C588 C580 1.378 . S
C588 C583 1.350 . S
C589 H576 0.929 . S
C589 C581 1.433 . S
C589 N591 1.384 . S
N590 C586 1.427 . S
N590 C587 1.384 . S
N591 C583 1.427 . S
N591 C589 1.384 . S
H592 C598 0.930 . S
H593 C602 0.930 . S
H594 C607 0.929 . S
H595 C605 0.929 1_655 S
H596 C600 0.929 . S
H597 C606 0.929 . S
C598 H592 0.930 . S
C598 C599 1.367 . S
C598 C606 1.378 . S
C599 C598 1.367 . S
C599 C607 1.433 . S
C600 H596 0.929 . S
C600 C602 1.378 . S
C600 C604 1.350 . S
C601 C604 1.463 . S
C601 C606 1.350 . S
C601 N609 1.427 . S
C602 H593 0.930 . S
C602 C600 1.378 . S
C602 C603 1.367 . S
C603 C602 1.367 . S
C603 C605 1.433 . S
C604 C600 1.350 . S
C604 C601 1.463 . S
C604 N608 1.427 . S
C605 H595 0.929 1_455 S
C605 C603 1.433 . S
C605 N608 1.384 . S
C606 H597 0.929 . S
C606 C598 1.378 . S
C606 C601 1.350 . S
C607 H594 0.929 . S
C607 C599 1.433 . S
C607 N609 1.384 . S
N608 C604 1.427 . S
N608 C605 1.384 . S
N609 C601 1.427 . S
N609 C607 1.384 . S
H610 C616 0.930 . S
H611 C620 0.942 . S
H612 C625 0.929 . S
H613 C623 0.929 . S
H614 C618 0.929 . S
H615 C624 0.929 . S
C616 H610 0.930 . S
C616 C617 1.367 . S
C616 C624 1.378 . S
C617 C616 1.367 . S
C617 C625 1.433 . S
C618 H614 0.929 . S
C618 C620 1.378 . S
C618 C622 1.350 . S
C619 C622 1.463 . S
C619 C624 1.350 . S
C619 N627 1.427 . S
C620 H611 0.942 . S
C620 C618 1.378 . S
C620 C621 1.367 . S
C621 C620 1.367 . S
C621 C623 1.433 . S
C622 C618 1.350 . S
C622 C619 1.463 . S
C622 N626 1.427 . S
C623 H613 0.929 . S
C623 C621 1.433 . S
C623 N626 1.384 . S
C624 H615 0.929 . S
C624 C616 1.378 . S
C624 C619 1.350 . S
C625 H612 0.929 . S
C625 C617 1.433 . S
C625 N627 1.384 . S
N626 C622 1.427 . S
N626 C623 1.384 . S
N627 C619 1.427 . S
N627 C625 1.384 . S
H628 C634 0.930 . S
H629 C638 0.948 . S
H630 C643 0.929 . S
H631 C641 0.929 . S
H632 C636 0.929 . S
H633 C642 0.929 . S
C634 H628 0.930 . S
C634 C635 1.367 . S
C634 C642 1.378 . S
C635 C634 1.367 . S
C635 C643 1.433 . S
C636 H632 0.929 . S
C636 C638 1.378 . S
C636 C640 1.350 . S
C637 C640 1.463 . S
C637 C642 1.350 . S
C637 N645 1.427 . S
C638 H629 0.948 . S
C638 C636 1.378 . S
C638 C639 1.367 . S
C639 C638 1.367 . S
C639 C641 1.433 . S
C640 C636 1.350 . S
C640 C637 1.463 . S
C640 N644 1.427 . S
C641 H631 0.929 . S
C641 C639 1.433 . S
C641 N644 1.384 . S
C642 H633 0.929 . S
C642 C634 1.378 . S
C642 C637 1.350 . S
C643 H630 0.929 . S
C643 C635 1.433 . S
C643 N645 1.384 . S
N644 C640 1.427 . S
N644 C641 1.384 . S
N645 C637 1.427 . S
N645 C643 1.384 . S
H646 C652 0.930 . S
H647 C656 0.930 . S
H648 C661 0.929 . S
H649 C659 0.929 . S
H650 C654 0.929 . S
H651 C660 0.929 . S
C652 H646 0.930 . S
C652 C653 1.367 . S
C652 C660 1.378 . S
C653 C652 1.367 . S
C653 C661 1.433 . S
C654 H650 0.929 . S
C654 C656 1.378 . S
C654 C658 1.350 . S
C655 C658 1.463 . S
C655 C660 1.350 . S
C655 N663 1.427 . S
C656 H647 0.930 . S
C656 C654 1.378 . S
C656 C657 1.367 . S
C657 C656 1.367 . S
C657 C659 1.433 . S
C658 C654 1.350 . S
C658 C655 1.463 . S
C658 N662 1.427 . S
C659 H649 0.929 . S
C659 C657 1.433 . S
C659 N662 1.384 . S
C660 H651 0.929 . S
C660 C652 1.378 . S
C660 C655 1.350 . S
C661 H648 0.929 . S
C661 C653 1.433 . S
C661 N663 1.384 . S
N662 C658 1.427 . S
N662 C659 1.384 . S
N663 C655 1.427 . S
N663 C661 1.384 . S
H664 C670 0.930 . S
H665 C674 0.930 1_445 S
H666 C679 0.929 . S
H667 C677 0.929 . S
H668 C672 0.929 . S
H669 C678 0.929 . S
C670 H664 0.930 . S
C670 C671 1.367 . S
C670 C678 1.378 . S
C671 C670 1.367 . S
C671 C679 1.433 . S
C672 H668 0.929 . S
C672 C674 1.378 . S
C672 C676 1.350 . S
C673 C676 1.463 . S
C673 C678 1.350 . S
C673 N681 1.427 . S
C674 H665 0.930 1_665 S
C674 C672 1.378 . S
C674 C675 1.367 . S
C675 C674 1.367 . S
C675 C677 1.433 . S
C676 C672 1.350 . S
C676 C673 1.463 . S
C676 N680 1.427 . S
C677 H667 0.929 . S
C677 C675 1.433 . S
C677 N680 1.384 . S
C678 H669 0.929 . S
C678 C670 1.378 . S
C678 C673 1.350 . S
C679 H666 0.929 . S
C679 C671 1.433 . S
C679 N681 1.384 . S
N680 C676 1.427 . S
N680 C677 1.384 . S
N681 C673 1.427 . S
N681 C679 1.384 . S
H682 C688 0.930 . S
H683 C692 0.930 1_565 S
H684 C697 0.929 . S
H685 C695 0.929 . S
H686 C690 0.929 . S
H687 C696 0.929 . S
C688 H682 0.930 . S
C688 C689 1.367 . S
C688 C696 1.378 . S
C689 C688 1.367 . S
C689 C697 1.433 . S
C690 H686 0.929 . S
C690 C692 1.378 . S
C690 C694 1.350 . S
C691 C694 1.463 . S
C691 C696 1.350 . S
C691 N699 1.427 . S
C692 H683 0.930 1_545 S
C692 C690 1.378 . S
C692 C693 1.367 . S
C693 C692 1.367 . S
C693 C695 1.433 . S
C694 C690 1.350 . S
C694 C691 1.463 . S
C694 N698 1.427 . S
C695 H685 0.929 . S
C695 C693 1.433 . S
C695 N698 1.384 . S
C696 H687 0.929 . S
C696 C688 1.378 . S
C696 C691 1.350 . S
C697 H684 0.929 . S
C697 C689 1.433 . S
C697 N699 1.384 . S
N698 C694 1.427 . S
N698 C695 1.384 . S
N699 C691 1.427 . S
N699 C697 1.384 . S
H700 C706 0.930 . S
H701 C710 0.930 . S
H702 C715 0.929 . S
H703 C713 0.929 . S
H704 C708 0.929 . S
H705 C714 0.929 . S
C706 H700 0.930 . S
C706 C707 1.367 . S
C706 C714 1.378 . S
C707 C706 1.367 . S
C707 C715 1.433 . S
C708 H704 0.929 . S
C708 C710 1.378 . S
C708 C712 1.350 . S
C709 C712 1.463 . S
C709 C714 1.350 . S
C709 N717 1.427 . S
C710 H701 0.930 . S
C710 C708 1.378 . S
C710 C711 1.367 . S
C711 C710 1.367 . S
C711 C713 1.433 . S
C712 C708 1.350 . S
C712 C709 1.463 . S
C712 N716 1.427 . S
C713 H703 0.929 . S
C713 C711 1.433 . S
C713 N716 1.384 . S
C714 H705 0.929 . S
C714 C706 1.378 . S
C714 C709 1.350 . S
C715 H702 0.929 . S
C715 C707 1.433 . S
C715 N717 1.384 . S
N716 C712 1.427 . S
N716 C713 1.384 . S
N717 C709 1.427 . S
N717 C715 1.384 . S
H718 C724 0.930 . S
H719 C728 0.930 . S
H720 C733 0.929 . S
H721 C731 0.929 . S
H722 C726 0.929 . S
H723 C732 0.929 . S
C724 H718 0.930 . S
C724 C725 1.367 . S
C724 C732 1.378 . S
C725 C724 1.367 . S
C725 C733 1.433 . S
C726 H722 0.929 . S
C726 C728 1.378 . S
C726 C730 1.350 . S
C727 C730 1.463 . S
C727 C732 1.350 . S
C727 N735 1.427 . S
C728 H719 0.930 . S
C728 C726 1.378 . S
C728 C729 1.367 . S
C729 C728 1.367 . S
C729 C731 1.433 . S
C730 C726 1.350 . S
C730 C727 1.463 . S
C730 N734 1.427 . S
C731 H721 0.929 . S
C731 C729 1.433 . S
C731 N734 1.384 . S
C732 H723 0.929 . S
C732 C724 1.378 . S
C732 C727 1.350 . S
C733 H720 0.929 . S
C733 C725 1.433 . S
C733 N735 1.384 . S
N734 C730 1.427 . S
N734 C731 1.384 . S
N735 C727 1.427 . S
N735 C733 1.384 . S
H736 C742 0.930 . S
H737 C746 0.930 1_545 S
H738 C751 0.929 . S
H739 C749 0.929 . S
H740 C744 0.929 . S
H741 C750 0.929 . S
C742 H736 0.930 . S
C742 C743 1.367 . S
C742 C750 1.378 . S
C743 C742 1.367 . S
C743 C751 1.433 . S
C744 H740 0.929 . S
C744 C746 1.378 . S
C744 C748 1.350 . S
C745 C748 1.463 . S
C745 C750 1.350 . S
C745 N753 1.427 . S
C746 H737 0.930 1_565 S
C746 C744 1.378 . S
C746 C747 1.367 . S
C747 C746 1.367 . S
C747 C749 1.433 . S
C748 C744 1.350 . S
C748 C745 1.463 . S
C748 N752 1.427 . S
C749 H739 0.929 . S
C749 C747 1.433 . S
C749 N752 1.384 . S
C750 H741 0.929 . S
C750 C742 1.378 . S
C750 C745 1.350 . S
C751 H738 0.929 . S
C751 C743 1.433 . S
C751 N753 1.384 . S
N752 C748 1.427 . S
N752 C749 1.384 . S
N753 C745 1.427 . S
N753 C751 1.384 . S
H754 C760 0.930 . S
H755 C764 0.930 . S
H756 C769 0.929 . S
H757 C767 0.929 . S
H758 C762 0.929 . S
H759 C768 0.929 . S
C760 H754 0.930 . S
C760 C761 1.367 . S
C760 C768 1.378 . S
C761 C760 1.367 . S
C761 C769 1.433 . S
C762 H758 0.929 . S
C762 C764 1.378 . S
C762 C766 1.350 . S
C763 C766 1.463 . S
C763 C768 1.350 . S
C763 N771 1.427 . S
C764 H755 0.930 . S
C764 C762 1.378 . S
C764 C765 1.367 . S
C765 C764 1.367 . S
C765 C767 1.433 . S
C766 C762 1.350 . S
C766 C763 1.463 . S
C766 N770 1.427 . S
C767 H757 0.929 . S
C767 C765 1.433 . S
C767 N770 1.384 . S
C768 H759 0.929 . S
C768 C760 1.378 . S
C768 C763 1.350 . S
C769 H756 0.929 . S
C769 C761 1.433 . S
C769 N771 1.384 . S
N770 C766 1.427 . S
N770 C767 1.384 . S
N771 C763 1.427 . S
N771 C769 1.384 . S
H772 C778 0.930 . S
H773 C782 0.930 . S
H774 C787 0.929 . S
H775 C785 0.935 . S
H776 C780 0.929 . S
H777 C786 0.929 1_556 S
C778 H772 0.930 . S
C778 C779 1.367 . S
C778 C786 1.378 . S
C779 C778 1.367 . S
C779 C787 1.433 . S
C780 H776 0.929 . S
C780 C782 1.378 . S
C780 C784 1.350 . S
C781 C784 1.463 . S
C781 C786 1.350 . S
C781 N789 1.427 . S
C782 H773 0.930 . S
C782 C780 1.378 . S
C782 C783 1.367 . S
C783 C782 1.367 . S
C783 C785 1.429 1_554 S
C784 C780 1.350 . S
C784 C781 1.463 . S
C784 N788 1.427 . S
C785 H775 0.935 . S
C785 C783 1.429 1_556 S
C785 N788 1.383 1_556 S
C786 H777 0.929 1_554 S
C786 C778 1.378 . S
C786 C781 1.350 . S
C787 H774 0.929 . S
C787 C779 1.433 . S
C787 N789 1.384 . S
N788 C784 1.427 . S
N788 C785 1.383 1_554 S
N789 C781 1.427 . S
N789 C787 1.384 . S
H790 C796 0.930 . S
H791 C800 0.930 . S
H792 C805 0.929 . S
H793 C803 0.929 . S
H794 C798 0.929 . S
H795 C804 0.929 . S
C796 H790 0.930 . S
C796 C797 1.367 . S
C796 C804 1.378 . S
C797 C796 1.367 . S
C797 C805 1.433 . S
C798 H794 0.929 . S
C798 C800 1.378 . S
C798 C802 1.350 . S
C799 C802 1.463 . S
C799 C804 1.350 . S
C799 N807 1.427 . S
C800 H791 0.930 . S
C800 C798 1.378 . S
C800 C801 1.367 . S
C801 C800 1.367 . S
C801 C803 1.433 . S
C802 C798 1.350 . S
C802 C799 1.463 . S
C802 N806 1.427 . S
C803 H793 0.929 . S
C803 C801 1.433 . S
C803 N806 1.384 . S
C804 H795 0.929 . S
C804 C796 1.378 . S
C804 C799 1.350 . S
C805 H792 0.929 . S
C805 C797 1.433 . S
C805 N807 1.384 . S
N806 C802 1.427 . S
N806 C803 1.384 . S
N807 C799 1.427 . S
N807 C805 1.384 . S
H808 C814 0.930 . S
H809 C818 0.930 1_554 S
H810 C823 0.929 . S
H811 C821 0.929 . S
H812 C816 0.929 . S
H813 C822 0.929 . S
C814 H808 0.930 . S
C814 C815 1.367 . S
C814 C822 1.378 . S
C815 C814 1.367 . S
C815 C823 1.433 . S
C816 H812 0.929 . S
C816 C818 1.378 . S
C816 C820 1.350 . S
C817 C820 1.463 . S
C817 C822 1.350 . S
C817 N825 1.427 . S
C818 H809 0.930 1_556 S
C818 C816 1.378 . S
C818 C819 1.367 . S
C819 C818 1.367 . S
C819 C821 1.433 . S
C820 C816 1.350 . S
C820 C817 1.463 . S
C820 N824 1.427 . S
C821 H811 0.929 . S
C821 C819 1.433 . S
C821 N824 1.384 . S
C822 H813 0.929 . S
C822 C814 1.378 . S
C822 C817 1.350 . S
C823 H810 0.929 . S
C823 C815 1.433 . S
C823 N825 1.384 . S
N824 C820 1.427 . S
N824 C821 1.384 . S
N825 C817 1.427 . S
N825 C823 1.384 . S
H826 C832 0.930 . S
H827 C836 0.930 . S
H828 C841 0.929 . S
H829 C839 0.929 . S
H830 C834 0.929 . S
H831 C840 0.929 . S
C832 H826 0.930 . S
C832 C833 1.367 . S
C832 C840 1.378 . S
C833 C832 1.367 . S
C833 C841 1.433 . S
C834 H830 0.929 . S
C834 C836 1.378 . S
C834 C838 1.350 . S
C835 C838 1.463 . S
C835 C840 1.350 . S
C835 N843 1.427 . S
C836 H827 0.930 . S
C836 C834 1.378 . S
C836 C837 1.367 . S
C837 C836 1.367 . S
C837 C839 1.433 . S
C838 C834 1.350 . S
C838 C835 1.463 . S
C838 N842 1.427 . S
C839 H829 0.929 . S
C839 C837 1.433 . S
C839 N842 1.384 . S
C840 H831 0.929 . S
C840 C832 1.378 . S
C840 C835 1.350 . S
C841 H828 0.929 . S
C841 C833 1.433 . S
C841 N843 1.384 . S
N842 C838 1.427 . S
N842 C839 1.384 . S
N843 C835 1.427 . S
N843 C841 1.384 . S
H844 C850 0.930 . S
H845 C854 0.930 . S
H846 C859 0.929 . S
H847 C857 0.929 . S
H848 C852 0.929 . S
H849 C858 0.929 . S
C850 H844 0.930 . S
C850 C851 1.367 . S
C850 C858 1.378 . S
C851 C850 1.367 . S
C851 C859 1.433 . S
C852 H848 0.929 . S
C852 C854 1.378 . S
C852 C856 1.350 . S
C853 C856 1.463 . S
C853 C858 1.350 . S
C853 N861 1.427 . S
C854 H845 0.930 . S
C854 C852 1.378 . S
C854 C855 1.367 . S
C855 C854 1.367 . S
C855 C857 1.433 . S
C856 C852 1.350 . S
C856 C853 1.463 . S
C856 N860 1.427 . S
C857 H847 0.929 . S
C857 C855 1.433 . S
C857 N860 1.384 . S
C858 H849 0.929 . S
C858 C850 1.378 . S
C858 C853 1.350 . S
C859 H846 0.929 . S
C859 C851 1.433 . S
C859 N861 1.384 . S
N860 C856 1.427 . S
N860 C857 1.384 . S
N861 C853 1.427 . S
N861 C859 1.384 . S
H862 C868 0.930 . S
H863 C872 0.930 . S
H864 C877 0.929 . S
H865 C875 0.929 . S
H866 C870 0.929 . S
H867 C876 0.929 . S
C868 H862 0.930 . S
C868 C869 1.367 . S
C868 C876 1.378 . S
C869 C868 1.367 . S
C869 C877 1.433 . S
C870 H866 0.929 . S
C870 C872 1.378 . S
C870 C874 1.350 . S
C871 C874 1.463 . S
C871 C876 1.350 . S
C871 N879 1.427 . S
C872 H863 0.930 . S
C872 C870 1.378 . S
C872 C873 1.367 . S
C873 C872 1.367 . S
C873 C875 1.433 . S
C874 C870 1.350 . S
C874 C871 1.463 . S
C874 N878 1.427 . S
C875 H865 0.929 . S
C875 C873 1.433 . S
C875 N878 1.384 . S
C876 H867 0.929 . S
C876 C868 1.378 . S
C876 C871 1.350 . S
C877 H864 0.929 . S
C877 C869 1.433 . S
C877 N879 1.384 . S
N878 C874 1.427 . S
N878 C875 1.384 . S
N879 C871 1.427 . S
N879 C877 1.384 . S
C455 C1 2.338 . S
C459 C312 2.350 . S
C473 C40 2.283 . S
C477 C354 2.303 . S
C495 C384 1.014 . S
C491 C99 1.010 . S
C509 C118 1.062 . S
C513 C418 1.071 . S
C531 C375 1.888 . S
C527 C16 1.869 . S
C549 C329 1.872 . S
C545 C60 1.852 . S
C567 C422 1.397 . S
C563 C79 1.379 . S
C585 C388 1.414 . S
C581 C138 1.380 . S
C599 C21 2.220 . S
C603 C443 2.230 . S
C621 C350 1.165 . S
C617 C94 1.153 . S
C635 C133 1.136 . S
C639 C325 1.154 . S
C653 C55 2.190 . S
C657 C409 2.203 . S
C675 C341 2.354 . S
C671 C157 2.333 . S
C689 C196 2.285 . S
C693 C363 2.302 . S
C707 C255 1.014 . S
C711 C393 1.022 . S
C725 C289 1.073 . S
C729 C427 1.077 . S
C743 C172 1.869 . S
C747 C346 1.886 . S
C765 C320 1.877 . S
C761 C216 1.868 . S
C783 C431 1.403 . S
C779 C235 1.380 . S
C801 C397 1.418 . S
C797 C294 1.384 . S
C815 C177 2.207 . S
C819 C414 2.229 . S
C837 C359 1.176 . S
C833 C250 1.168 . S
C855 C316 1.159 . S
C851 C274 1.143 . S
C869 C211 2.180 . S
C873 C380 2.197 . S
