# Generated by pormake.
# Topology anh, (6,3)-cn, num edge types: 1
# Building blocks:
#     Node 0, Type 0, BuildingBlock: PAMTUU_clean_sbu_0, # of connection points: 6
#     Node 1, Type 0, BuildingBlock: PAMTUU_clean_sbu_0, # of connection points: 6
#     Node 2, Type 0, BuildingBlock: PAMTUU_clean_sbu_0, # of connection points: 6
#     Node 3, Type 1, BuildingBlock: QEWDON_clean_linker_0, # of connection points: 3
#     Node 4, Type 1, BuildingBlock: QEWDON_clean_linker_0, # of connection points: 3
#     Node 5, Type 1, BuildingBlock: QEWDON_clean_linker_0, # of connection points: 3
#     Node 6, Type 1, BuildingBlock: QEWDON_clean_linker_0, # of connection points: 3
#     Node 7, Type 1, BuildingBlock: QEWDON_clean_linker_0, # of connection points: 3
#     Node 8, Type 1, BuildingBlock: QEWDON_clean_linker_0, # of connection points: 3
#     Edge 9, Type (0, 1), BuildingBlock: CIFDUS_clean_linker_0, # of connection points: 2
#     Edge 10, Type (0, 1), BuildingBlock: CIFDUS_clean_linker_0, # of connection points: 2
#     Edge 11, Type (0, 1), BuildingBlock: CIFDUS_clean_linker_0, # of connection points: 2
#     Edge 12, Type (0, 1), BuildingBlock: CIFDUS_clean_linker_0, # of connection points: 2
#     Edge 13, Type (0, 1), BuildingBlock: CIFDUS_clean_linker_0, # of connection points: 2
#     Edge 14, Type (0, 1), BuildingBlock: CIFDUS_clean_linker_0, # of connection points: 2
#     Edge 15, Type (0, 1), BuildingBlock: CIFDUS_clean_linker_0, # of connection points: 2
#     Edge 16, Type (0, 1), BuildingBlock: CIFDUS_clean_linker_0, # of connection points: 2
#     Edge 17, Type (0, 1), BuildingBlock: CIFDUS_clean_linker_0, # of connection points: 2
#     Edge 18, Type (0, 1), BuildingBlock: CIFDUS_clean_linker_0, # of connection points: 2
#     Edge 19, Type (0, 1), BuildingBlock: CIFDUS_clean_linker_0, # of connection points: 2
#     Edge 20, Type (0, 1), BuildingBlock: CIFDUS_clean_linker_0, # of connection points: 2
#     Edge 21, Type (0, 1), BuildingBlock: CIFDUS_clean_linker_0, # of connection points: 2
#     Edge 22, Type (0, 1), BuildingBlock: CIFDUS_clean_linker_0, # of connection points: 2
#     Edge 23, Type (0, 1), BuildingBlock: CIFDUS_clean_linker_0, # of connection points: 2
#     Edge 24, Type (0, 1), BuildingBlock: CIFDUS_clean_linker_0, # of connection points: 2
#     Edge 25, Type (0, 1), BuildingBlock: CIFDUS_clean_linker_0, # of connection points: 2
#     Edge 26, Type (0, 1), BuildingBlock: CIFDUS_clean_linker_0, # of connection points: 2
# Relax obj value: 0.259
# Max RMSD: 0.140
# Mean RMSD: 0.113
data_MOF--net-anh--node1-PAMTUU_clean_sbu_0--node2-QEWDON_clean_linker_0--edge1-CIFDUS_clean_linker_0
_symmetry_space_group_name_H-M    P1
_symmetry_Int_Tables_number       1
_symmetry_cell_setting            triclinic
loop_
_symmetry_equiv_pos_as_xyz
'x, y, z'
_cell_length_a     28.503288
_cell_length_b     28.416499
_cell_length_c     43.268343
_cell_angle_alpha  96.345973
_cell_angle_beta   94.580596
_cell_angle_gamma 119.74248
loop_
_atom_site_label
_atom_site_type_symbol
_atom_site_fract_x
_atom_site_fract_y
_atom_site_fract_z
_atom_type_partial_charge
Tb0 Tb 0.1904 0.77563 0.16175 0.0
Tb1 Tb 0.23865 0.69575 0.16452 0.0
C2 C 0.20336 0.71761 0.09922 0.0
C3 C 1.08077 0.80212 0.15367 0.0
C4 C 0.97061 0.71765 0.13962 0.0
C5 C 1.00143 0.73652 0.11529 0.0
C6 C 1.05602 0.7785 0.12222 0.0
C7 C 1.04776 0.78835 0.17752 0.0
C8 C 0.99307 0.74608 0.17057 0.0
C9 C 0.14059 0.82764 0.16223 0.0
O10 O 1.11818 0.69506 0.16752 0.0
O11 O 0.14934 0.63505 0.15917 0.0
O12 O 0.20775 0.70344 0.20809 0.0
O13 O 0.23425 0.7919 0.20833 0.0
O14 O 0.23793 0.62334 0.14848 0.0
O15 O 0.2932 0.67933 0.19032 0.0
O16 O 0.31279 0.78123 0.17339 0.0
O17 O 0.27745 0.83404 0.15838 0.0
O18 O 0.17323 0.73318 0.11364 0.0
O19 O 0.23794 0.70789 0.11525 0.0
C20 C 1.10888 0.64382 0.16406 0.0
O21 O 0.15538 0.81381 0.18735 0.0
O22 O 0.1674 0.82504 0.13957 0.0
C23 C 0.21958 0.75101 0.22349 0.0
C24 C 0.31433 0.61566 0.16418 0.0
C25 C 0.37526 0.56814 0.14481 0.0
C26 C 0.34303 0.54924 0.1685 0.0
C27 C 0.31295 0.57297 0.17815 0.0
C28 C 0.34795 0.63626 0.14128 0.0
C29 C 0.37874 0.61278 0.13178 0.0
C30 C 0.27527 0.63258 0.17162 0.0
C31 C 0.3204 0.82949 0.16736 0.0
H32 H 0.9843 0.71642 0.09105 0.0
H33 H 1.07988 0.78872 0.10315 0.0
H34 H 1.06557 0.8063 0.20196 0.0
H35 H 0.96991 0.73276 0.18971 0.0
H36 H 0.34029 0.51532 0.1791 0.0
H37 H 0.2869 0.55653 0.19577 0.0
H38 H 0.34892 0.66897 0.13011 0.0
H39 H 0.40336 0.62786 0.11342 0.0
Tb40 Tb 0.61896 0.13362 0.48635 0.0
Tb41 Tb 0.74803 0.18734 0.5013 0.0
C42 C 0.68669 0.16703 0.4315 0.0
C43 C 0.47146 1.05888 0.49454 0.0
C44 C 0.37799 0.98583 0.51844 0.0
C45 C 0.37955 1.02918 0.50471 0.0
C46 C 0.42586 1.06528 0.49289 0.0
C47 C 0.4721 1.01862 0.51038 0.0
C48 C 0.42566 0.9824 0.52237 0.0
C49 C 0.51687 0.09364 0.47871 0.0
O50 O 0.63082 1.06239 0.49206 0.0
O51 O 0.72294 0.0989 0.4906 0.0
O52 O 0.71764 0.1468 0.54138 0.0
O53 O 0.63837 0.14847 0.53692 0.0
O54 O 0.82523 0.21203 0.48775 0.0
O55 O 0.81769 0.23423 0.53561 0.0
O56 O 0.73046 0.2539 0.51589 0.0
O57 O 0.65139 0.22211 0.48281 0.0
O58 O 0.64121 0.13138 0.44016 0.0
O59 O 0.73161 0.19769 0.45222 0.0
C60 C 0.67399 1.05584 0.49111 0.0
O61 O 0.55188 0.14221 0.49464 0.0
O62 O 0.54079 1.07056 0.46441 0.0
C63 C 0.67381 0.14015 0.55263 0.0
C64 C 0.87902 0.30581 0.51233 0.0
C65 C 0.89082 0.40971 0.51039 0.0
C66 C 0.90201 0.39621 0.53922 0.0
C67 C 0.89646 0.34467 0.54016 0.0
C68 C 0.87455 0.32225 0.48329 0.0
C69 C 0.88026 0.37364 0.48237 0.0
C70 C 0.84976 0.2466 0.51428 0.0
C71 C 0.69444 0.26375 0.50138 0.0
H72 H 0.34358 1.03283 0.50075 0.0
H73 H 0.42508 0.09665 0.48107 0.0
H74 H 0.5075 1.0137 0.51227 0.0
H75 H 0.426 0.94987 0.5331 0.0
H76 H 0.91101 0.42365 0.56115 0.0
H77 H 0.90028 0.33318 0.56288 0.0
H78 H 0.86172 0.29376 0.46132 0.0
H79 H 0.87346 0.38398 0.45972 0.0
Tb80 Tb 0.69812 0.59534 0.81962 0.0
Tb81 Tb 0.77089 0.72552 0.83049 0.0
C82 C 0.72705 0.65612 0.76272 0.0
C83 C 0.65694 0.45101 0.82134 0.0
C84 C 0.66628 0.36032 0.83244 0.0
C85 C 0.69507 0.39248 0.81057 0.0
C86 C 0.69039 0.43738 0.80503 0.0
C87 C 0.63277 0.42249 0.84548 0.0
C88 C 0.63785 0.37775 0.85121 0.0
C89 C 0.64463 0.49251 0.81221 0.0
O90 O 0.78263 0.60949 0.8197 0.0
O91 O 0.83586 0.70337 0.83541 0.0
O92 O 0.73775 0.69895 0.87363 0.0
O93 O 0.74408 0.62324 0.866 0.0
O94 O 0.7924 0.80074 0.81589 0.0
O95 O 0.8282 0.79847 0.86123 0.0
O96 O 0.68484 0.7073 0.82052 0.0
O97 O 0.63806 0.62048 0.83197 0.0
O98 O 0.68729 0.62037 0.77554 0.0
O99 O 0.77034 0.69799 0.78074 0.0
C100 C 0.83166 0.65459 0.82866 0.0
O101 O 0.64153 0.52415 0.83519 0.0
O102 O 0.67078 0.51974 0.7908 0.0
C103 C 0.74003 0.65921 0.88494 0.0
C104 C 0.79832 0.8622 0.8586 0.0
C105 C 0.73067 0.90478 0.87336 0.0
C106 C 0.73243 0.86558 0.8898 0.0
C107 C 0.76567 0.84418 0.88234 0.0
C108 C 0.80114 0.90552 0.84466 0.0
C109 C 0.76762 0.92667 0.85195 0.0
C110 C 0.81915 0.8286 0.84373 0.0
C111 C 0.63897 0.66593 0.82678 0.0
H112 H 0.71704 0.3801 0.79552 0.0
H113 H 0.71044 0.45922 0.78666 0.0
H114 H 0.6076 0.43292 0.85881 0.0
H115 H 0.61592 0.35416 0.86856 0.0
H116 H 0.70517 0.84851 0.90676 0.0
H117 H 0.76253 0.81061 0.89345 0.0
H118 H 0.82568 0.91968 0.82614 0.0
H119 H 0.76712 0.95649 0.83857 0.0
H120 H 0.75265 0.26292 0.24156 0.0
C121 C 0.71654 0.22553 0.22932 0.0
C122 C 0.68498 0.18443 0.24685 0.0
C123 C 0.69954 0.22081 0.19689 0.0
H124 H 0.61344 0.10511 0.2454 0.0
C125 C 0.63681 0.136 0.23154 0.0
C126 C 0.61647 0.12734 0.1995 0.0
C127 C 0.64848 0.17067 0.18239 0.0
C128 C 0.73107 0.27066 0.1796 0.0
H129 H 0.63353 0.16478 0.15769 0.0
C130 C 0.78926 0.31346 0.18709 0.0
C131 C 0.81341 0.36057 0.17067 0.0
C132 C 0.69985 0.27745 0.15555 0.0
H133 H 0.65631 0.24911 0.14929 0.0
C134 C 0.72282 0.32171 0.13952 0.0
H135 H 0.81519 0.31052 0.2055 0.0
C136 C 0.77796 0.36209 0.1468 0.0
H137 H 0.79308 0.39486 0.13303 0.0
H138 H 0.6971 0.32505 0.12112 0.0
H139 H 0.70843 0.69877 0.56594 0.0
C140 C 0.70848 0.66267 0.55499 0.0
C141 C 0.71829 0.63086 0.57457 0.0
C142 C 0.69472 0.64632 0.52199 0.0
H143 H 0.72278 0.55799 0.57666 0.0
C144 C 0.716 0.58204 0.56107 0.0
C145 C 0.70333 0.56264 0.52836 0.0
C146 C 0.69276 0.59564 0.50901 0.0
C147 C 0.67714 0.67906 0.50208 0.0
H148 H 0.68348 0.58171 0.48385 0.0
C149 C 0.69144 0.73635 0.51117 0.0
C150 C 0.66906 0.76196 0.4922 0.0
C151 C 0.64115 0.65027 0.47363 0.0
H152 H 0.62683 0.6073 0.46565 0.0
C153 C 0.6207 0.67504 0.45504 0.0
H154 H 0.71897 0.76062 0.53278 0.0
C155 C 0.63417 0.72937 0.46405 0.0
H156 H 0.61716 0.7462 0.44836 0.0
H157 H 0.59323 0.65134 0.43327 0.0
H158 H 0.26295 0.67413 0.9018 0.0
C159 C 0.22521 0.66931 0.89055 0.0
C160 C 0.18644 0.66835 0.90966 0.0
C161 C 0.217 0.66679 0.85753 0.0
H162 H 1.10746 0.66184 0.90974 0.0
C163 C 0.13745 0.66354 0.89532 0.0
C164 C 0.12662 0.6626 0.86298 0.0
C165 C 0.16658 0.66373 0.84432 0.0
C166 C 0.26163 0.67024 0.8373 0.0
H167 H 0.15678 0.66107 0.81937 0.0
C168 C 0.30772 0.66239 0.84667 0.0
C169 C 0.34689 0.66652 0.82564 0.0
C170 C 0.25851 0.68361 0.8071 0.0
H171 H 0.22871 0.69387 0.79861 0.0
C172 C 0.29392 0.68492 0.78651 0.0
H173 H 0.31343 0.65357 0.86988 0.0
C174 C 0.33607 0.67551 0.79521 0.0
H175 H 0.36038 0.67535 0.7773 0.0
H176 H 0.2887 0.69372 0.76317 0.0
H177 H 0.99375 0.7041 0.36107 0.0
C178 C 1.02557 0.7191 0.38125 0.0
C179 C 1.07908 0.73345 0.37677 0.0
C180 C 1.0131 0.72315 0.41192 0.0
H181 H 0.16068 0.76215 0.3996 0.0
C182 C 1.11941 0.75105 0.40307 0.0
C183 C 1.10762 0.75531 0.43371 0.0
C184 C 1.05458 0.74197 0.43799 0.0
C185 C 0.95614 0.70304 0.41739 0.0
H186 H 1.04532 0.74543 0.46167 0.0
C187 C 0.93496 0.66578 0.43814 0.0
C188 C 0.88108 0.64459 0.44411 0.0
C189 C 0.92267 0.71944 0.40218 0.0
H190 H 0.93817 0.74825 0.386 0.0
C191 C 0.86888 0.69889 0.40813 0.0
H192 H 0.96015 0.6512 0.44861 0.0
C193 C 0.84791 0.6613 0.42885 0.0
H194 H 0.80592 0.64496 0.4327 0.0
H195 H 0.84319 0.71168 0.3964 0.0
H196 H 0.489 0.92435 0.68916 0.0
C197 C 0.49999 0.96175 0.70505 0.0
C198 C 0.53549 1.01368 0.69728 0.0
C199 C 0.48108 0.95885 0.73429 0.0
H200 H 0.57897 0.10168 0.71327 0.0
C201 C 0.55187 1.06158 0.71902 0.0
C202 C 0.53216 1.05841 0.74771 0.0
C203 C 0.49594 1.00731 0.75483 0.0
C204 C 0.45551 0.90802 0.74773 0.0
H205 H 0.48212 1.00503 0.77758 0.0
C206 C 0.48779 0.90496 0.77261 0.0
C207 C 0.46423 0.87215 0.79532 0.0
C208 C 0.39866 0.87312 0.74327 0.0
H209 H 0.37284 0.87612 0.72477 0.0
C210 C 0.37474 0.83651 0.76414 0.0
H211 H 0.53177 0.93176 0.77525 0.0
C212 C 0.40708 0.83668 0.79041 0.0
H213 H 0.38718 0.81017 0.80708 0.0
H214 H 0.33075 0.8098 0.76084 0.0
H215 H 0.56739 0.4212 0.00765 0.0
C216 C 0.60619 0.4297 0.01988 0.0
C217 C 0.65531 0.46958 0.0115 0.0
C218 C 0.6069 0.40366 0.04565 0.0
H219 H 0.7433 0.51196 0.02226 0.0
C220 C 0.70497 0.48097 0.02823 0.0
C221 C 0.70612 0.45705 0.05464 0.0
C222 C 0.65715 0.41788 0.06312 0.0
C223 C 0.55599 0.37044 0.05826 0.0
H224 H 0.65811 0.40186 0.08464 0.0
C225 C 0.52396 0.39353 0.06556 0.0
C226 C 0.48032 0.36766 0.08234 0.0
C227 C 0.54248 0.31924 0.06638 0.0
H228 H 0.56712 0.30097 0.06122 0.0
C229 C 0.49733 0.29169 0.08163 0.0
H230 H 0.53473 0.43316 0.05926 0.0
C231 C 0.46663 0.31588 0.08987 0.0
H232 H 0.43344 0.29488 0.10297 0.0
H233 H 0.48704 0.25221 0.08789 0.0
H234 H 0.32912 0.45917 0.12429 0.0
H235 H 0.48278 0.61255 0.13881 0.0
H236 H 0.52905 0.56338 0.12155 0.0
H237 H 0.5258 0.47704 0.10413 0.0
H238 H 0.37102 0.32382 0.08592 0.0
H239 H 0.32518 0.37269 0.10406 0.0
C240 C 0.37276 0.48166 0.12366 0.0
C241 C 0.40283 0.53916 0.13293 0.0
C242 C 0.39873 0.45322 0.11349 0.0
C243 C 0.45906 0.56825 0.13165 0.0
C244 C 0.4854 0.54016 0.12196 0.0
C245 C 0.48183 0.45422 0.10345 0.0
C246 C 0.45188 0.39675 0.09338 0.0
C247 C 0.45562 0.48268 0.11297 0.0
C248 C 0.39521 0.36792 0.09381 0.0
C249 C 0.3689 0.39588 0.10393 0.0
H250 H 0.81121 0.41657 0.47643 0.0
H251 H 0.96092 0.51413 0.54241 0.0
H252 H 0.96123 0.59804 0.53416 0.0
H253 H 0.92927 0.64332 0.50028 0.0
H254 H 0.78539 0.54553 0.43015 0.0
H255 H 0.77024 0.46208 0.4493 0.0
C256 C 0.84372 0.45625 0.48913 0.0
C257 C 0.88702 0.45955 0.50919 0.0
C258 C 0.84417 0.50413 0.48376 0.0
C259 C 0.92764 0.51076 0.52652 0.0
C260 C 0.9278 0.55865 0.52179 0.0
C261 C 0.89376 0.60379 0.4898 0.0
C262 C 0.85959 0.60017 0.46318 0.0
C263 C 0.88773 0.55588 0.49935 0.0
C264 C 0.81269 0.54927 0.4504 0.0
C265 C 0.80461 0.50145 0.46097 0.0
H266 H 0.62406 0.82941 0.87428 0.0
H267 H 0.73176 1.00161 0.8716 0.0
H268 H 0.65314 1.00968 0.85345 0.0
H269 H 0.55795 0.96292 0.82768 0.0
H270 H 0.45092 0.79088 0.82919 0.0
H271 H 0.52469 0.78885 0.86107 0.0
C272 C 0.63048 0.86938 0.87107 0.0
C273 C 0.68402 0.91451 0.87334 0.0
C274 C 0.58529 0.87347 0.85998 0.0
C275 C 0.69112 0.96587 0.8691 0.0
C276 C 0.64619 0.9705 0.85871 0.0
C277 C 0.55065 0.9247 0.83476 0.0
C278 C 0.50072 0.87541 0.82323 0.0
C279 C 0.59365 0.92366 0.85209 0.0
C280 C 0.49034 0.82805 0.83548 0.0
C281 C 0.53245 0.82699 0.85376 0.0
H282 H 0.9484 0.62247 0.10447 0.0
H283 H 0.87481 0.69528 0.16069 0.0
H284 H 0.78553 0.61087 0.14523 0.0
H285 H 0.72709 0.52397 0.10853 0.0
H286 H 0.79988 0.45602 0.04835 0.0
H287 H 0.89144 0.52989 0.07343 0.0
C288 C 0.91274 0.61978 0.11332 0.0
C289 C 0.91756 0.6654 0.13286 0.0
C290 C 0.86179 0.5717 0.10396 0.0
C291 C 0.87174 0.66083 0.14525 0.0
C292 C 0.82085 0.61264 0.13646 0.0
C293 C 0.76319 0.52419 0.10201 0.0
C294 C 0.75741 0.48493 0.07695 0.0
C295 C 0.81515 0.56868 0.11496 0.0
C296 C 0.80391 0.48573 0.06794 0.0
C297 C 0.856 0.5284 0.08187 0.0
H298 H 0.3425 0.87721 0.5028 0.0
H299 H 0.29115 0.98845 0.54042 0.0
H300 H 0.19557 0.91735 0.52256 0.0
H301 H 0.13176 0.83548 0.4831 0.0
H302 H 0.18469 0.72634 0.44439 0.0
H303 H 0.2745 0.78428 0.47659 0.0
C304 C 0.31056 0.88533 0.50855 0.0
C305 C 0.32398 0.93886 0.5216 0.0
C306 C 0.25596 0.84498 0.49725 0.0
C307 C 0.28181 0.94808 0.52928 0.0
C308 C 0.22714 0.90754 0.51892 0.0
C309 C 0.16219 0.82318 0.48273 0.0
C310 C 0.15261 0.77807 0.4606 0.0
C311 C 0.21423 0.85752 0.50069 0.0
C312 C 0.19202 0.76206 0.46059 0.0
C313 C 0.24334 0.79517 0.47896 0.0
H314 H 0.56823 0.26994 0.83112 0.0
H315 H 0.73697 0.32193 0.82491 0.0
H316 H 0.70971 0.22873 0.79981 0.0
H317 H 0.63615 0.13824 0.77107 0.0
H318 H 0.46784 0.08891 0.77619 0.0
H319 H 0.4968 0.17576 0.81069 0.0
C320 C 0.5995 0.26062 0.82558 0.0
C321 C 0.65442 0.30299 0.82924 0.0
C322 C 0.58336 0.2079 0.81018 0.0
C323 C 0.69426 0.29003 0.82176 0.0
C324 C 0.67865 0.23699 0.80717 0.0
C325 C 0.60608 0.14664 0.78003 0.0
C326 C 0.55011 0.10843 0.7707 0.0
C327 C 0.62303 0.19661 0.79965 0.0
C328 C 0.51116 0.11844 0.78292 0.0
C329 C 0.52768 0.16786 0.80261 0.0
H330 H 0.752 1.02278 0.50443 0.0
H331 H 0.57831 0.95607 0.48014 0.0
H332 H 0.56203 0.86355 0.48088 0.0
H333 H 0.59536 0.79895 0.48674 0.0
H334 H 0.76789 0.86213 0.51185 0.0
H335 H 0.78547 0.95652 0.51322 0.0
C336 C 0.71047 0.98814 0.4992 0.0
C337 C 0.66654 0.99816 0.49184 0.0
C338 C 0.70082 0.93336 0.50014 0.0
C339 C 0.61334 0.95139 0.48571 0.0
C340 C 0.60382 0.89773 0.48619 0.0
C341 C 0.63709 0.83314 0.49285 0.0
C342 C 0.68011 0.82167 0.49922 0.0
C343 C 0.64701 0.88786 0.49322 0.0
C344 C 0.73345 0.86806 0.50723 0.0
C345 C 0.7436 0.9226 0.50762 0.0
H346 H 0.94158 0.72196 0.81831 0.0
H347 H 0.83826 0.57259 0.85259 0.0
H348 H 0.91657 0.56097 0.86538 0.0
H349 H 1.0165 0.59384 0.86891 0.0
H350 H 1.11907 0.73738 0.82984 0.0
H351 H 1.04075 0.74973 0.81687 0.0
C352 C 0.9359 0.68664 0.82845 0.0
C353 C 0.88251 0.64845 0.83454 0.0
C354 C 0.98189 0.67879 0.83493 0.0
C355 C 0.87758 0.6029 0.8474 0.0
C356 C 0.92294 0.59616 0.85487 0.0
C357 C 1.02187 0.62747 0.85707 0.0
C358 C 1.07509 0.66438 0.85037 0.0
C359 C 0.97558 0.6338 0.84895 0.0
C360 C 1.0796 0.70757 0.83509 0.0
C361 C 1.03435 0.71497 0.82785 0.0
H362 H 0.36215 0.93546 0.14938 0.0
H363 H 0.41457 0.84174 0.19889 0.0
H364 H 0.50726 0.92106 0.21133 0.0
H365 H 0.57539 1.01896 0.21029 0.0
H366 H 0.52668 0.11386 0.15958 0.0
H367 H 0.43348 1.03362 0.14539 0.0
C368 C 0.3937 0.93195 0.16278 0.0
C369 C 0.37922 0.88072 0.17309 0.0
C370 C 0.44896 0.97885 0.16973 0.0
C371 C 0.42247 0.87899 0.19031 0.0
C372 C 0.47632 0.92504 0.19759 0.0
C373 C 0.54482 1.0226 0.19592 0.0
C374 C 0.56007 1.07438 0.18632 0.0
C375 C 0.49038 0.97549 0.1877 0.0
C376 C 0.51821 1.07585 0.16734 0.0
C377 C 0.46403 1.02945 0.15939 0.0
H378 H 0.63762 0.31112 0.47247 0.0
H379 H 0.77153 0.35216 0.54495 0.0
H380 H 0.78743 0.44492 0.558 0.0
H381 H 0.76393 0.51627 0.55051 0.0
H382 H 0.63118 0.47887 0.47839 0.0
H383 H 0.61631 0.38595 0.46343 0.0
C384 C 0.67036 0.34016 0.49115 0.0
C385 C 0.70276 0.32243 0.50774 0.0
C386 C 0.6802 0.39553 0.49869 0.0
C387 C 0.74515 0.36252 0.53162 0.0
C388 C 0.75447 0.41642 0.53926 0.0
C389 C 0.73126 0.48816 0.53156 0.0
C390 C 0.69844 0.50645 0.51613 0.0
C391 C 0.72229 0.43368 0.52318 0.0
C392 C 0.65777 0.46796 0.49098 0.0
C393 C 0.6488 0.41389 0.48251 0.0
H394 H 0.54307 0.61268 0.85637 0.0
H395 H 0.61595 0.7313 0.79499 0.0
H396 H 0.53607 0.74151 0.79009 0.0
H397 H 0.44509 0.71647 0.80092 0.0
H398 H 0.37016 0.60523 0.8656 0.0
H399 H 0.4502 0.59305 0.87129 0.0
C400 C 0.5416 0.64076 0.84185 0.0
C401 C 0.58702 0.67065 0.82569 0.0
C402 C 0.49458 0.64796 0.83962 0.0
C403 C 0.58308 0.70732 0.80765 0.0
C404 C 0.53675 0.71321 0.80474 0.0
C405 C 0.44511 0.6896 0.81672 0.0
C406 C 0.39916 0.66204 0.83277 0.0
C407 C 0.49207 0.68366 0.82035 0.0
C408 C 0.40345 0.62791 0.85292 0.0
C409 C 0.44975 0.62061 0.85603 0.0
H410 H 1.0725 0.53185 0.16978 0.0
H411 H 1.01253 0.64405 0.16537 0.0
H412 H 0.92095 0.57064 0.16961 0.0
H413 H 0.85478 0.47334 0.17266 0.0
H414 H 0.91172 0.35916 0.17817 0.0
H415 H 1.00536 0.43337 0.17607 0.0
C416 C 1.03956 0.54057 0.16962 0.0
C417 C 1.05134 0.59522 0.16676 0.0
C418 C 0.9853 0.49705 0.17249 0.0
C419 C 1.00662 0.60382 0.16719 0.0
C420 C 0.95344 0.56125 0.16967 0.0
C421 C 0.88742 0.46411 0.17373 0.0
C422 C 0.87413 0.40883 0.1757 0.0
C423 C 0.94185 0.50751 0.17214 0.0
C424 C 0.91888 0.40007 0.17718 0.0
C425 C 0.97302 0.443 0.17555 0.0
H426 H 0.23932 0.66685 0.05628 0.0
H427 H 0.15582 0.75873 0.06249 0.0
H428 H 0.14589 0.75369 0.00583 0.0
H429 H 0.16019 0.72404 0.95428 0.0
H430 H 0.23773 0.62682 0.94564 0.0
H431 H 0.25189 0.63461 0.00301 0.0
C432 C 0.21898 0.68575 0.04522 0.0
C433 C 0.19825 0.713 0.06406 0.0
C434 C 0.21256 0.68218 0.01198 0.0
C435 C 0.17194 0.73709 0.049 0.0
C436 C 0.1663 0.73444 0.01639 0.0
C437 C 0.17942 0.70357 0.96465 0.0
C438 C 0.19718 0.67428 0.94508 0.0
C439 C 0.18616 0.70695 -0.00239 0.0
C440 C 0.22381 0.65002 0.9597 0.0
C441 C 0.23159 0.65411 -0.00733 0.0
H442 H 0.76735 0.20363 0.3923 0.0
H443 H 0.59676 0.14876 0.39468 0.0
H444 H 0.58304 0.15331 0.33948 0.0
H445 H 0.61631 0.16771 0.28955 0.0
H446 H 0.78467 0.21943 0.2836 0.0
H447 H 0.80249 0.22244 0.34065 0.0
C448 C 0.7274 0.19309 0.38072 0.0
C449 C 0.68303 0.17499 0.3979 0.0
C450 C 0.71914 0.19514 0.3481 0.0
C451 C 0.63159 0.16177 0.38229 0.0
C452 C 0.62353 0.16455 0.35054 0.0
C453 C 0.65702 0.17955 0.30062 0.0
C454 C 0.69879 0.19243 0.28204 0.0
C455 C 0.66656 0.18018 0.33309 0.0
C456 C 0.7516 0.20917 0.29718 0.0
C457 C 0.76168 0.21054 0.32984 0.0
H458 H 0.78128 0.72804 0.72196 0.0
H459 H 0.66064 0.55899 0.7241 0.0
H460 H 0.64781 0.53703 0.66727 0.0
H461 H 0.66897 0.56434 0.61646 0.0
H462 H 0.78719 0.73239 0.61181 0.0
H463 H 0.8021 0.75607 0.66949 0.0
C464 C 0.75237 0.68646 0.70994 0.0
C465 C 0.72196 0.64545 0.72764 0.0
C466 C 0.74438 0.67373 0.67658 0.0
C467 C 0.68443 0.59178 0.71143 0.0
C468 C 0.67699 0.5789 0.67874 0.0
C469 C 0.69844 0.60611 0.62802 0.0
C470 C 0.72729 0.6463 0.60972 0.0
C471 C 0.70653 0.61939 0.66105 0.0
C472 C 0.7643 0.70054 0.62524 0.0
C473 C 0.77299 0.71405 0.65828 0.0
H474 H 0.5737 1.06438 0.56158 0.0
H475 H 0.74136 0.1603 0.6074 0.0
H476 H 0.71382 0.12362 0.65592 0.0
H477 H 0.64028 1.07076 0.68626 0.0
H478 H 0.47326 0.97319 0.63936 0.0
H479 H 0.50238 1.00271 0.58972 0.0
C480 C 0.60422 1.07707 0.58218 0.0
C481 C 0.65925 0.11591 0.58134 0.0
C482 C 0.58817 1.05506 0.60951 0.0
C483 C 0.69872 0.13094 0.60776 0.0
C484 C 0.68293 0.10994 0.63539 0.0
C485 C 0.61056 1.05505 0.66493 0.0
C486 C 0.55467 1.02007 0.66635 0.0
C487 C 0.6276 1.07281 0.63667 0.0
C488 C 0.51645 0.9997 0.6387 0.0
C489 C 0.53303 1.01713 0.61047 0.0
H490 H 0.64754 0.56944 0.89013 0.0
H491 H 0.79094 0.7102 0.94528 0.0
H492 H 0.77185 0.66498 -0.00821 0.0
H493 H 0.72281 0.57976 0.01354 0.0
H494 H 0.58785 0.43432 0.95486 0.0
H495 H 0.59485 0.48684 0.9127 0.0
C496 C 0.67394 0.59049 0.91253 0.0
C497 C 0.72064 0.64264 0.91449 0.0
C498 C 0.66472 0.5628 0.93816 0.0
C499 C 0.75444 0.67024 0.94351 0.0
C500 C 0.74393 0.64398 0.96983 0.0
C501 C 0.69503 0.55937 -0.00853 0.0
C502 C 0.65566 0.50268 -0.0129 0.0
C503 C 0.70071 0.58926 0.96692 0.0
C504 C 0.61861 0.47766 0.95885 0.0
C505 C 0.62274 0.50764 0.93469 0.0
H506 H 0.13117 0.67287 0.24418 0.0
H507 H 0.26664 0.83957 0.27041 0.0
H508 H 0.23289 0.84988 0.3195 0.0
H509 H 0.16502 0.81153 0.35472 0.0
H510 H 1.02773 0.64599 0.3282 0.0
H511 H 1.06095 0.63555 0.27878 0.0
C512 C 0.15366 0.7111 0.26094 0.0
C513 C 0.20192 0.75511 0.2542 0.0
C514 C 0.13304 0.71723 0.28857 0.0
C515 C 0.22983 0.80503 0.27546 0.0
C516 C 0.21036 0.81101 0.30334 0.0
C517 C 0.14227 0.77326 0.338 0.0
C518 C 1.09421 0.72947 0.34503 0.0
C519 C 0.16194 0.76749 0.31003 0.0
C520 C 1.0646 0.68037 0.3231 0.0
C521 C 1.08392 0.67423 0.29508 0.0
loop_
_geom_bond_atom_site_label_1
_geom_bond_atom_site_label_2
_geom_bond_distance
_geom_bond_site_symmetry_2
_ccdc_geom_bond_type
Tb0 C9 2.764 1_455 S
Tb0 O10 2.325 1_455 S
Tb0 O13 2.303 . S
Tb0 O17 2.322 . S
Tb0 O18 2.349 . S
Tb0 O21 2.415 1_455 S
Tb0 O22 2.399 1_455 S
Tb1 O11 2.322 . S
Tb1 O12 2.349 . S
Tb1 O14 2.415 . S
Tb1 O15 2.399 . S
Tb1 O16 2.325 . S
Tb1 O19 2.303 . S
Tb1 C30 2.764 . S
C2 O18 1.261 . S
C2 O19 1.257 . S
C3 C6 1.358 . S
C3 C7 1.332 . S
C3 C9 1.504 . S
C4 C5 1.373 . S
C4 C8 1.308 . S
C5 C4 1.373 . S
C5 C6 1.429 . S
C5 H32 0.932 . S
C6 C3 1.358 . S
C6 C5 1.429 . S
C6 H33 0.930 . S
C7 C3 1.332 . S
C7 C8 1.394 . S
C7 H34 0.932 . S
C8 C4 1.308 . S
C8 C7 1.394 . S
C8 H35 0.929 . S
C9 Tb0 2.764 1_655 S
C9 C3 1.504 . S
C9 O21 1.239 . S
C9 O22 1.263 . S
O10 Tb0 2.325 1_655 S
O10 C20 1.236 . S
O11 Tb1 2.322 . S
O11 C20 1.257 1_455 S
O12 Tb1 2.349 . S
O12 C23 1.261 . S
O13 Tb0 2.303 . S
O13 C23 1.257 . S
O14 Tb1 2.415 . S
O14 C30 1.239 . S
O15 Tb1 2.399 . S
O15 C30 1.263 . S
O16 Tb1 2.325 . S
O16 C31 1.236 . S
O17 Tb0 2.322 . S
O17 C31 1.257 . S
O18 Tb0 2.349 . S
O18 C2 1.261 . S
O19 Tb1 2.303 . S
O19 C2 1.257 . S
C20 O10 1.236 . S
C20 O11 1.257 1_655 S
O21 Tb0 2.415 1_655 S
O21 C9 1.239 . S
O22 Tb0 2.399 1_655 S
O22 C9 1.263 . S
C23 O12 1.261 . S
C23 O13 1.257 . S
C24 C27 1.358 . S
C24 C28 1.332 . S
C24 C30 1.504 . S
C25 C26 1.373 . S
C25 C29 1.308 . S
C26 C25 1.373 . S
C26 C27 1.429 . S
C26 H36 0.932 . S
C27 C24 1.358 . S
C27 C26 1.429 . S
C27 H37 0.930 . S
C28 C24 1.332 . S
C28 C29 1.394 . S
C28 H38 0.932 . S
C29 C25 1.308 . S
C29 C28 1.394 . S
C29 H39 0.929 . S
C30 Tb1 2.764 . S
C30 O14 1.239 . S
C30 O15 1.263 . S
C30 C24 1.504 . S
C31 O16 1.236 . S
C31 O17 1.257 . S
H32 C5 0.932 . S
H33 C6 0.930 . S
H34 C7 0.932 . S
H35 C8 0.929 . S
H36 C26 0.932 . S
H37 C27 0.930 . S
H38 C28 0.932 . S
H39 C29 0.929 . S
Tb40 C49 2.764 1_545 S
Tb40 O50 2.325 1_545 S
Tb40 O53 2.303 . S
Tb40 O57 2.322 . S
Tb40 O58 2.349 . S
Tb40 O61 2.415 1_545 S
Tb40 O62 2.399 1_545 S
Tb41 O51 2.322 . S
Tb41 O52 2.349 . S
Tb41 O54 2.415 . S
Tb41 O55 2.399 . S
Tb41 O56 2.325 . S
Tb41 O59 2.303 . S
Tb41 C70 2.764 . S
C42 O58 1.261 . S
C42 O59 1.257 . S
C43 C46 1.358 . S
C43 C47 1.332 . S
C43 C49 1.504 . S
C44 C45 1.373 . S
C44 C48 1.308 . S
C45 C44 1.373 . S
C45 C46 1.429 . S
C45 H72 0.932 . S
C46 C43 1.358 . S
C46 C45 1.429 . S
C46 H73 0.930 . S
C47 C43 1.332 . S
C47 C48 1.394 . S
C47 H74 0.932 . S
C48 C44 1.308 . S
C48 C47 1.394 . S
C48 H75 0.929 . S
C49 Tb40 2.764 1_565 S
C49 C43 1.504 . S
C49 O61 1.239 . S
C49 O62 1.263 . S
O50 Tb40 2.325 1_565 S
O50 C60 1.236 . S
O51 Tb41 2.322 . S
O51 C60 1.257 1_545 S
O52 Tb41 2.349 . S
O52 C63 1.261 . S
O53 Tb40 2.303 . S
O53 C63 1.257 . S
O54 Tb41 2.415 . S
O54 C70 1.239 . S
O55 Tb41 2.399 . S
O55 C70 1.263 . S
O56 Tb41 2.325 . S
O56 C71 1.236 . S
O57 Tb40 2.322 . S
O57 C71 1.257 . S
O58 Tb40 2.349 . S
O58 C42 1.261 . S
O59 Tb41 2.303 . S
O59 C42 1.257 . S
C60 O50 1.236 . S
C60 O51 1.257 1_565 S
O61 Tb40 2.415 1_565 S
O61 C49 1.239 . S
O62 Tb40 2.399 1_565 S
O62 C49 1.263 . S
C63 O52 1.261 . S
C63 O53 1.257 . S
C64 C67 1.358 . S
C64 C68 1.332 . S
C64 C70 1.504 . S
C65 C66 1.373 . S
C65 C69 1.308 . S
C66 C65 1.373 . S
C66 C67 1.429 . S
C66 H76 0.932 . S
C67 C64 1.358 . S
C67 C66 1.429 . S
C67 H77 0.930 . S
C68 C64 1.332 . S
C68 C69 1.394 . S
C68 H78 0.932 . S
C69 C65 1.308 . S
C69 C68 1.394 . S
C69 H79 0.929 . S
C70 Tb41 2.764 . S
C70 O54 1.239 . S
C70 O55 1.263 . S
C70 C64 1.504 . S
C71 O56 1.236 . S
C71 O57 1.257 . S
H72 C45 0.932 . S
H73 C46 0.930 . S
H74 C47 0.932 . S
H75 C48 0.929 . S
H76 C66 0.932 . S
H77 C67 0.930 . S
H78 C68 0.932 . S
H79 C69 0.929 . S
Tb80 C89 2.764 . S
Tb80 O90 2.325 . S
Tb80 O93 2.303 . S
Tb80 O97 2.322 . S
Tb80 O98 2.349 . S
Tb80 O101 2.415 . S
Tb80 O102 2.399 . S
Tb81 O91 2.322 . S
Tb81 O92 2.349 . S
Tb81 O94 2.415 . S
Tb81 O95 2.399 . S
Tb81 O96 2.325 . S
Tb81 O99 2.303 . S
Tb81 C110 2.764 . S
C82 O98 1.261 . S
C82 O99 1.257 . S
C83 C86 1.358 . S
C83 C87 1.332 . S
C83 C89 1.504 . S
C84 C85 1.373 . S
C84 C88 1.308 . S
C85 C84 1.373 . S
C85 C86 1.429 . S
C85 H112 0.932 . S
C86 C83 1.358 . S
C86 C85 1.429 . S
C86 H113 0.930 . S
C87 C83 1.332 . S
C87 C88 1.394 . S
C87 H114 0.932 . S
C88 C84 1.308 . S
C88 C87 1.394 . S
C88 H115 0.929 . S
C89 Tb80 2.764 . S
C89 C83 1.504 . S
C89 O101 1.239 . S
C89 O102 1.263 . S
O90 Tb80 2.325 . S
O90 C100 1.236 . S
O91 Tb81 2.322 . S
O91 C100 1.257 . S
O92 Tb81 2.349 . S
O92 C103 1.261 . S
O93 Tb80 2.303 . S
O93 C103 1.257 . S
O94 Tb81 2.415 . S
O94 C110 1.239 . S
O95 Tb81 2.399 . S
O95 C110 1.263 . S
O96 Tb81 2.325 . S
O96 C111 1.236 . S
O97 Tb80 2.322 . S
O97 C111 1.257 . S
O98 Tb80 2.349 . S
O98 C82 1.261 . S
O99 Tb81 2.303 . S
O99 C82 1.257 . S
C100 O90 1.236 . S
C100 O91 1.257 . S
O101 Tb80 2.415 . S
O101 C89 1.239 . S
O102 Tb80 2.399 . S
O102 C89 1.263 . S
C103 O92 1.261 . S
C103 O93 1.257 . S
C104 C107 1.358 . S
C104 C108 1.332 . S
C104 C110 1.504 . S
C105 C106 1.373 . S
C105 C109 1.308 . S
C106 C105 1.373 . S
C106 C107 1.429 . S
C106 H116 0.932 . S
C107 C104 1.358 . S
C107 C106 1.429 . S
C107 H117 0.930 . S
C108 C104 1.332 . S
C108 C109 1.394 . S
C108 H118 0.932 . S
C109 C105 1.308 . S
C109 C108 1.394 . S
C109 H119 0.929 . S
C110 Tb81 2.764 . S
C110 O94 1.239 . S
C110 O95 1.263 . S
C110 C104 1.504 . S
C111 O96 1.236 . S
C111 O97 1.257 . S
H112 C85 0.932 . S
H113 C86 0.930 . S
H114 C87 0.932 . S
H115 C88 0.929 . S
H116 C106 0.932 . S
H117 C107 0.930 . S
H118 C108 0.932 . S
H119 C109 0.929 . S
H120 C121 0.949 . S
C121 H120 0.949 . S
C121 C122 1.395 . S
C121 C123 1.391 . S
C122 C121 1.395 . S
C122 C125 1.390 . S
C123 C121 1.391 . S
C123 C127 1.387 . S
C123 C128 1.491 . S
H124 C125 0.945 1_565 S
C125 C122 1.390 . S
C125 H124 0.945 1_545 S
C125 C126 1.378 . S
C126 C125 1.378 . S
C126 C127 1.409 . S
C127 C123 1.387 . S
C127 C126 1.409 . S
C127 H129 0.951 . S
C128 C123 1.491 . S
C128 C130 1.382 . S
C128 C132 1.404 . S
H129 C127 0.951 . S
C130 C128 1.382 . S
C130 C131 1.390 . S
C130 H135 0.949 . S
C131 C130 1.390 . S
C131 C136 1.399 . S
C132 C128 1.404 . S
C132 H133 0.950 . S
C132 C134 1.375 . S
H133 C132 0.950 . S
C134 C132 1.375 . S
C134 C136 1.382 . S
C134 H138 0.950 . S
H135 C130 0.949 . S
C136 C131 1.399 . S
C136 C134 1.382 . S
C136 H137 0.952 . S
H137 C136 0.952 . S
H138 C134 0.950 . S
H139 C140 0.949 . S
C140 H139 0.949 . S
C140 C141 1.395 . S
C140 C142 1.391 . S
C141 C140 1.395 . S
C141 C144 1.390 . S
C142 C140 1.391 . S
C142 C146 1.387 . S
C142 C147 1.491 . S
H143 C144 0.950 . S
C144 C141 1.390 . S
C144 H143 0.950 . S
C144 C145 1.378 . S
C145 C144 1.378 . S
C145 C146 1.409 . S
C146 C142 1.387 . S
C146 C145 1.409 . S
C146 H148 0.951 . S
C147 C142 1.491 . S
C147 C149 1.382 . S
C147 C151 1.404 . S
H148 C146 0.951 . S
C149 C147 1.382 . S
C149 C150 1.390 . S
C149 H154 0.949 . S
C150 C149 1.390 . S
C150 C155 1.399 . S
C151 C147 1.404 . S
C151 H152 0.950 . S
C151 C153 1.375 . S
H152 C151 0.950 . S
C153 C151 1.375 . S
C153 C155 1.382 . S
C153 H157 0.950 . S
H154 C149 0.949 . S
C155 C150 1.399 . S
C155 C153 1.382 . S
C155 H156 0.952 . S
H156 C155 0.952 . S
H157 C153 0.950 . S
H158 C159 0.949 . S
C159 H158 0.949 . S
C159 C160 1.395 . S
C159 C161 1.391 . S
C160 C159 1.395 . S
C160 C163 1.415 . S
C161 C159 1.391 . S
C161 C165 1.387 . S
C161 C166 1.491 . S
H162 C163 0.927 1_655 S
C163 C160 1.415 . S
C163 H162 0.927 1_455 S
C163 C164 1.376 1_455 S
C164 C163 1.376 1_655 S
C164 C165 1.409 1_655 S
C165 C161 1.387 . S
C165 C164 1.409 1_455 S
C165 H167 0.951 . S
C166 C161 1.491 . S
C166 C168 1.382 . S
C166 C170 1.404 . S
H167 C165 0.951 . S
C168 C166 1.382 . S
C168 C169 1.390 . S
C168 H173 0.949 . S
C169 C168 1.390 . S
C169 C174 1.399 . S
C170 C166 1.404 . S
C170 H171 0.950 . S
C170 C172 1.375 . S
H171 C170 0.950 . S
C172 C170 1.375 . S
C172 C174 1.382 . S
C172 H176 0.950 . S
H173 C168 0.949 . S
C174 C169 1.399 . S
C174 C172 1.382 . S
C174 H175 0.952 . S
H175 C174 0.952 . S
H176 C172 0.950 . S
H177 C178 0.949 . S
C178 H177 0.949 . S
C178 C179 1.395 1_655 S
C178 C180 1.391 1_655 S
C179 C178 1.395 1_455 S
C179 C182 1.390 . S
C180 C178 1.391 1_455 S
C180 C184 1.387 . S
C180 C185 1.491 1_455 S
H181 C182 0.950 . S
C182 C179 1.390 . S
C182 H181 0.950 . S
C182 C183 1.378 . S
C183 C182 1.378 . S
C183 C184 1.409 . S
C184 C180 1.387 . S
C184 C183 1.409 . S
C184 H186 0.951 . S
C185 C180 1.491 1_655 S
C185 C187 1.382 . S
C185 C189 1.404 . S
H186 C184 0.951 . S
C187 C185 1.382 . S
C187 C188 1.390 . S
C187 H192 0.949 . S
C188 C187 1.390 . S
C188 C193 1.399 . S
C189 C185 1.404 . S
C189 H190 0.950 . S
C189 C191 1.375 . S
H190 C189 0.950 . S
C191 C189 1.375 . S
C191 C193 1.382 . S
C191 H195 0.950 . S
H192 C187 0.949 . S
C193 C188 1.399 . S
C193 C191 1.382 . S
C193 H194 0.952 . S
H194 C193 0.952 . S
H195 C191 0.950 . S
H196 C197 0.949 1_565 S
C197 H196 0.949 1_545 S
C197 C198 1.395 . S
C197 C199 1.391 . S
C198 C197 1.395 . S
C198 C201 1.390 . S
C199 C197 1.391 . S
C199 C203 1.387 . S
C199 C204 1.491 1_545 S
H200 C201 0.950 . S
C201 C198 1.390 . S
C201 H200 0.950 . S
C201 C202 1.378 . S
C202 C201 1.378 . S
C202 C203 1.409 . S
C203 C199 1.387 . S
C203 C202 1.409 . S
C203 H205 0.951 . S
C204 C199 1.491 1_565 S
C204 C206 1.382 . S
C204 C208 1.404 . S
H205 C203 0.951 . S
C206 C204 1.382 . S
C206 C207 1.390 . S
C206 H211 0.949 . S
C207 C206 1.390 . S
C207 C212 1.399 . S
C208 C204 1.404 . S
C208 H209 0.950 1_565 S
C208 C210 1.375 . S
H209 C208 0.950 1_545 S
C210 C208 1.375 . S
C210 C212 1.382 . S
C210 H214 0.950 . S
H211 C206 0.949 . S
C212 C207 1.399 . S
C212 C210 1.382 . S
C212 H213 0.952 . S
H213 C212 0.952 . S
H214 C210 0.950 . S
H215 C216 0.949 . S
C216 H215 0.949 . S
C216 C217 1.395 . S
C216 C218 1.391 . S
C217 C216 1.395 . S
C217 C220 1.390 . S
C218 C216 1.391 . S
C218 C222 1.387 . S
C218 C223 1.491 . S
H219 C220 0.950 . S
C220 C217 1.390 . S
C220 H219 0.950 . S
C220 C221 1.378 . S
C221 C220 1.378 . S
C221 C222 1.409 . S
C222 C218 1.387 . S
C222 C221 1.409 . S
C222 H224 0.951 . S
C223 C218 1.491 . S
C223 C225 1.382 . S
C223 C227 1.404 . S
H224 C222 0.951 . S
C225 C223 1.382 . S
C225 C226 1.390 . S
C225 H230 0.949 . S
C226 C225 1.390 . S
C226 C231 1.399 . S
C227 C223 1.404 . S
C227 H228 0.950 . S
C227 C229 1.375 . S
H228 C227 0.950 . S
C229 C227 1.375 . S
C229 C231 1.382 . S
C229 H233 0.950 . S
H230 C225 0.949 . S
C231 C226 1.399 . S
C231 C229 1.382 . S
C231 H232 0.952 . S
H232 C231 0.952 . S
H233 C229 0.950 . S
H234 C240 0.930 . S
H235 C243 0.930 . S
H236 C244 0.930 . S
H237 C245 0.930 . S
H238 C248 0.930 . S
H239 C249 0.930 . S
C240 H234 0.930 . S
C240 C241 1.355 . S
C240 C242 1.415 . S
C241 C240 1.355 . S
C241 C243 1.419 . S
C242 C240 1.415 . S
C242 C247 1.425 . S
C242 C249 1.409 . S
C243 H235 0.930 . S
C243 C241 1.419 . S
C243 C244 1.362 . S
C244 H236 0.930 . S
C244 C243 1.362 . S
C244 C247 1.409 . S
C245 H237 0.930 . S
C245 C246 1.355 . S
C245 C247 1.415 . S
C246 C245 1.355 . S
C246 C248 1.419 . S
C247 C242 1.425 . S
C247 C244 1.409 . S
C247 C245 1.415 . S
C248 H238 0.930 . S
C248 C246 1.419 . S
C248 C249 1.362 . S
C249 H239 0.930 . S
C249 C242 1.409 . S
C249 C248 1.362 . S
H250 C256 0.930 . S
H251 C259 0.930 . S
H252 C260 0.930 . S
H253 C261 0.930 . S
H254 C264 0.930 . S
H255 C265 0.930 . S
C256 H250 0.930 . S
C256 C257 1.355 . S
C256 C258 1.415 . S
C257 C256 1.355 . S
C257 C259 1.419 . S
C258 C256 1.415 . S
C258 C263 1.425 . S
C258 C265 1.409 . S
C259 H251 0.930 . S
C259 C257 1.419 . S
C259 C260 1.362 . S
C260 H252 0.930 . S
C260 C259 1.362 . S
C260 C263 1.409 . S
C261 H253 0.930 . S
C261 C262 1.355 . S
C261 C263 1.415 . S
C262 C261 1.355 . S
C262 C264 1.419 . S
C263 C258 1.425 . S
C263 C260 1.409 . S
C263 C261 1.415 . S
C264 H254 0.930 . S
C264 C262 1.419 . S
C264 C265 1.362 . S
C265 H255 0.930 . S
C265 C258 1.409 . S
C265 C264 1.362 . S
H266 C272 0.930 . S
H267 C275 0.930 . S
H268 C276 0.930 . S
H269 C277 0.930 . S
H270 C280 0.930 . S
H271 C281 0.930 . S
C272 H266 0.930 . S
C272 C273 1.355 . S
C272 C274 1.415 . S
C273 C272 1.355 . S
C273 C275 1.419 . S
C274 C272 1.415 . S
C274 C279 1.425 . S
C274 C281 1.409 . S
C275 H267 0.930 . S
C275 C273 1.419 . S
C275 C276 1.362 . S
C276 H268 0.930 . S
C276 C275 1.362 . S
C276 C279 1.409 . S
C277 H269 0.930 . S
C277 C278 1.355 . S
C277 C279 1.415 . S
C278 C277 1.355 . S
C278 C280 1.419 . S
C279 C274 1.425 . S
C279 C276 1.409 . S
C279 C277 1.415 . S
C280 H270 0.930 . S
C280 C278 1.419 . S
C280 C281 1.362 . S
C281 H271 0.930 . S
C281 C274 1.409 . S
C281 C280 1.362 . S
H282 C288 0.930 . S
H283 C291 0.930 . S
H284 C292 0.930 . S
H285 C293 0.930 . S
H286 C296 0.930 . S
H287 C297 0.930 . S
C288 H282 0.930 . S
C288 C289 1.355 . S
C288 C290 1.415 . S
C289 C288 1.355 . S
C289 C291 1.419 . S
C290 C288 1.415 . S
C290 C295 1.425 . S
C290 C297 1.409 . S
C291 H283 0.930 . S
C291 C289 1.419 . S
C291 C292 1.362 . S
C292 H284 0.930 . S
C292 C291 1.362 . S
C292 C295 1.409 . S
C293 H285 0.930 . S
C293 C294 1.355 . S
C293 C295 1.415 . S
C294 C293 1.355 . S
C294 C296 1.419 . S
C295 C290 1.425 . S
C295 C292 1.409 . S
C295 C293 1.415 . S
C296 H286 0.930 . S
C296 C294 1.419 . S
C296 C297 1.362 . S
C297 H287 0.930 . S
C297 C290 1.409 . S
C297 C296 1.362 . S
H298 C304 0.930 . S
H299 C307 0.930 . S
H300 C308 0.930 . S
H301 C309 0.930 . S
H302 C312 0.930 . S
H303 C313 0.930 . S
C304 H298 0.930 . S
C304 C305 1.355 . S
C304 C306 1.415 . S
C305 C304 1.355 . S
C305 C307 1.419 . S
C306 C304 1.415 . S
C306 C311 1.425 . S
C306 C313 1.409 . S
C307 H299 0.930 . S
C307 C305 1.419 . S
C307 C308 1.362 . S
C308 H300 0.930 . S
C308 C307 1.362 . S
C308 C311 1.409 . S
C309 H301 0.930 . S
C309 C310 1.355 . S
C309 C311 1.415 . S
C310 C309 1.355 . S
C310 C312 1.419 . S
C311 C306 1.425 . S
C311 C308 1.409 . S
C311 C309 1.415 . S
C312 H302 0.930 . S
C312 C310 1.419 . S
C312 C313 1.362 . S
C313 H303 0.930 . S
C313 C306 1.409 . S
C313 C312 1.362 . S
H314 C320 0.930 . S
H315 C323 0.930 . S
H316 C324 0.930 . S
H317 C325 0.930 . S
H318 C328 0.930 . S
H319 C329 0.930 . S
C320 H314 0.930 . S
C320 C321 1.355 . S
C320 C322 1.415 . S
C321 C320 1.355 . S
C321 C323 1.419 . S
C322 C320 1.415 . S
C322 C327 1.425 . S
C322 C329 1.409 . S
C323 H315 0.930 . S
C323 C321 1.419 . S
C323 C324 1.362 . S
C324 H316 0.930 . S
C324 C323 1.362 . S
C324 C327 1.409 . S
C325 H317 0.930 . S
C325 C326 1.355 . S
C325 C327 1.415 . S
C326 C325 1.355 . S
C326 C328 1.419 . S
C327 C322 1.425 . S
C327 C324 1.409 . S
C327 C325 1.415 . S
C328 H318 0.930 . S
C328 C326 1.419 . S
C328 C329 1.362 . S
C329 H319 0.930 . S
C329 C322 1.409 . S
C329 C328 1.362 . S
H330 C336 0.930 . S
H331 C339 0.930 . S
H332 C340 0.930 . S
H333 C341 0.930 . S
H334 C344 0.930 . S
H335 C345 0.930 . S
C336 H330 0.930 . S
C336 C337 1.355 . S
C336 C338 1.415 . S
C337 C336 1.355 . S
C337 C339 1.419 . S
C338 C336 1.415 . S
C338 C343 1.425 . S
C338 C345 1.409 . S
C339 H331 0.930 . S
C339 C337 1.419 . S
C339 C340 1.362 . S
C340 H332 0.930 . S
C340 C339 1.362 . S
C340 C343 1.409 . S
C341 H333 0.930 . S
C341 C342 1.355 . S
C341 C343 1.415 . S
C342 C341 1.355 . S
C342 C344 1.419 . S
C343 C338 1.425 . S
C343 C340 1.409 . S
C343 C341 1.415 . S
C344 H334 0.930 . S
C344 C342 1.419 . S
C344 C345 1.362 . S
C345 H335 0.930 . S
C345 C338 1.409 . S
C345 C344 1.362 . S
H346 C352 0.930 . S
H347 C355 0.930 . S
H348 C356 0.930 . S
H349 C357 0.930 . S
H350 C360 0.930 . S
H351 C361 0.930 . S
C352 H346 0.930 . S
C352 C353 1.355 . S
C352 C354 1.415 . S
C353 C352 1.355 . S
C353 C355 1.419 . S
C354 C352 1.415 . S
C354 C359 1.425 . S
C354 C361 1.409 . S
C355 H347 0.930 . S
C355 C353 1.419 . S
C355 C356 1.362 . S
C356 H348 0.930 . S
C356 C355 1.362 . S
C356 C359 1.409 . S
C357 H349 0.930 . S
C357 C358 1.355 . S
C357 C359 1.415 . S
C358 C357 1.355 . S
C358 C360 1.419 . S
C359 C354 1.425 . S
C359 C356 1.409 . S
C359 C357 1.415 . S
C360 H350 0.930 . S
C360 C358 1.419 . S
C360 C361 1.362 . S
C361 H351 0.930 . S
C361 C354 1.409 . S
C361 C360 1.362 . S
H362 C368 0.930 . S
H363 C371 0.930 . S
H364 C372 0.930 . S
H365 C373 0.930 . S
H366 C376 0.930 . S
H367 C377 0.930 . S
C368 H362 0.930 . S
C368 C369 1.355 . S
C368 C370 1.415 . S
C369 C368 1.355 . S
C369 C371 1.419 . S
C370 C368 1.415 . S
C370 C375 1.425 . S
C370 C377 1.409 . S
C371 H363 0.930 . S
C371 C369 1.419 . S
C371 C372 1.362 . S
C372 H364 0.930 . S
C372 C371 1.362 . S
C372 C375 1.409 . S
C373 H365 0.930 . S
C373 C374 1.355 . S
C373 C375 1.415 . S
C374 C373 1.355 . S
C374 C376 1.419 . S
C375 C370 1.425 . S
C375 C372 1.409 . S
C375 C373 1.415 . S
C376 H366 0.930 . S
C376 C374 1.419 . S
C376 C377 1.362 . S
C377 H367 0.930 . S
C377 C370 1.409 . S
C377 C376 1.362 . S
H378 C384 0.930 . S
H379 C387 0.930 . S
H380 C388 0.930 . S
H381 C389 0.930 . S
H382 C392 0.930 . S
H383 C393 0.930 . S
C384 H378 0.930 . S
C384 C385 1.355 . S
C384 C386 1.415 . S
C385 C384 1.355 . S
C385 C387 1.419 . S
C386 C384 1.415 . S
C386 C391 1.425 . S
C386 C393 1.409 . S
C387 H379 0.930 . S
C387 C385 1.419 . S
C387 C388 1.362 . S
C388 H380 0.930 . S
C388 C387 1.362 . S
C388 C391 1.409 . S
C389 H381 0.930 . S
C389 C390 1.355 . S
C389 C391 1.415 . S
C390 C389 1.355 . S
C390 C392 1.419 . S
C391 C386 1.425 . S
C391 C388 1.409 . S
C391 C389 1.415 . S
C392 H382 0.930 . S
C392 C390 1.419 . S
C392 C393 1.362 . S
C393 H383 0.930 . S
C393 C386 1.409 . S
C393 C392 1.362 . S
H394 C400 0.930 . S
H395 C403 0.930 . S
H396 C404 0.930 . S
H397 C405 0.930 . S
H398 C408 0.930 . S
H399 C409 0.930 . S
C400 H394 0.930 . S
C400 C401 1.355 . S
C400 C402 1.415 . S
C401 C400 1.355 . S
C401 C403 1.419 . S
C402 C400 1.415 . S
C402 C407 1.425 . S
C402 C409 1.409 . S
C403 H395 0.930 . S
C403 C401 1.419 . S
C403 C404 1.362 . S
C404 H396 0.930 . S
C404 C403 1.362 . S
C404 C407 1.409 . S
C405 H397 0.930 . S
C405 C406 1.355 . S
C405 C407 1.415 . S
C406 C405 1.355 . S
C406 C408 1.419 . S
C407 C402 1.425 . S
C407 C404 1.409 . S
C407 C405 1.415 . S
C408 H398 0.930 . S
C408 C406 1.419 . S
C408 C409 1.362 . S
C409 H399 0.930 . S
C409 C402 1.409 . S
C409 C408 1.362 . S
H410 C416 0.930 . S
H411 C419 0.930 . S
H412 C420 0.930 . S
H413 C421 0.930 . S
H414 C424 0.930 . S
H415 C425 0.930 . S
C416 H410 0.930 . S
C416 C417 1.355 . S
C416 C418 1.415 . S
C417 C416 1.355 . S
C417 C419 1.419 . S
C418 C416 1.415 . S
C418 C423 1.425 . S
C418 C425 1.409 . S
C419 H411 0.930 . S
C419 C417 1.419 . S
C419 C420 1.362 . S
C420 H412 0.930 . S
C420 C419 1.362 . S
C420 C423 1.409 . S
C421 H413 0.930 . S
C421 C422 1.355 . S
C421 C423 1.415 . S
C422 C421 1.355 . S
C422 C424 1.419 . S
C423 C418 1.425 . S
C423 C420 1.409 . S
C423 C421 1.415 . S
C424 H414 0.930 . S
C424 C422 1.419 . S
C424 C425 1.362 . S
C425 H415 0.930 . S
C425 C418 1.409 . S
C425 C424 1.362 . S
H426 C432 0.930 . S
H427 C435 0.930 . S
H428 C436 0.930 . S
H429 C437 0.930 . S
H430 C440 0.930 . S
H431 C441 0.930 1_554 S
C432 H426 0.930 . S
C432 C433 1.355 . S
C432 C434 1.415 . S
C433 C432 1.355 . S
C433 C435 1.419 . S
C434 C432 1.415 . S
C434 C439 1.425 . S
C434 C441 1.409 1_554 S
C435 H427 0.930 . S
C435 C433 1.419 . S
C435 C436 1.362 . S
C436 H428 0.930 . S
C436 C435 1.362 . S
C436 C439 1.409 . S
C437 H429 0.930 . S
C437 C438 1.355 . S
C437 C439 1.415 1_556 S
C438 C437 1.355 . S
C438 C440 1.419 . S
C439 C434 1.425 . S
C439 C436 1.409 . S
C439 C437 1.415 1_554 S
C440 H430 0.930 . S
C440 C438 1.419 . S
C440 C441 1.362 . S
C441 H431 0.930 1_556 S
C441 C434 1.409 1_556 S
C441 C440 1.362 . S
H442 C448 0.930 . S
H443 C451 0.930 . S
H444 C452 0.930 . S
H445 C453 0.930 . S
H446 C456 0.930 . S
H447 C457 0.930 . S
C448 H442 0.930 . S
C448 C449 1.355 . S
C448 C450 1.415 . S
C449 C448 1.355 . S
C449 C451 1.419 . S
C450 C448 1.415 . S
C450 C455 1.425 . S
C450 C457 1.409 . S
C451 H443 0.930 . S
C451 C449 1.419 . S
C451 C452 1.362 . S
C452 H444 0.930 . S
C452 C451 1.362 . S
C452 C455 1.409 . S
C453 H445 0.930 . S
C453 C454 1.355 . S
C453 C455 1.415 . S
C454 C453 1.355 . S
C454 C456 1.419 . S
C455 C450 1.425 . S
C455 C452 1.409 . S
C455 C453 1.415 . S
C456 H446 0.930 . S
C456 C454 1.419 . S
C456 C457 1.362 . S
C457 H447 0.930 . S
C457 C450 1.409 . S
C457 C456 1.362 . S
H458 C464 0.930 . S
H459 C467 0.930 . S
H460 C468 0.930 . S
H461 C469 0.930 . S
H462 C472 0.930 . S
H463 C473 0.930 . S
C464 H458 0.930 . S
C464 C465 1.355 . S
C464 C466 1.415 . S
C465 C464 1.355 . S
C465 C467 1.419 . S
C466 C464 1.415 . S
C466 C471 1.425 . S
C466 C473 1.409 . S
C467 H459 0.930 . S
C467 C465 1.419 . S
C467 C468 1.362 . S
C468 H460 0.930 . S
C468 C467 1.362 . S
C468 C471 1.409 . S
C469 H461 0.930 . S
C469 C470 1.355 . S
C469 C471 1.415 . S
C470 C469 1.355 . S
C470 C472 1.419 . S
C471 C466 1.425 . S
C471 C468 1.409 . S
C471 C469 1.415 . S
C472 H462 0.930 . S
C472 C470 1.419 . S
C472 C473 1.362 . S
C473 H463 0.930 . S
C473 C466 1.409 . S
C473 C472 1.362 . S
H474 C480 0.930 . S
H475 C483 0.930 . S
H476 C484 0.930 . S
H477 C485 0.930 . S
H478 C488 0.930 1_565 S
H479 C489 0.930 1_565 S
C480 H474 0.930 . S
C480 C481 1.355 . S
C480 C482 1.415 . S
C481 C480 1.355 . S
C481 C483 1.419 . S
C482 C480 1.415 . S
C482 C487 1.425 . S
C482 C489 1.409 . S
C483 H475 0.930 . S
C483 C481 1.419 . S
C483 C484 1.362 . S
C484 H476 0.930 . S
C484 C483 1.362 . S
C484 C487 1.409 . S
C485 H477 0.930 . S
C485 C486 1.355 . S
C485 C487 1.415 . S
C486 C485 1.355 . S
C486 C488 1.419 . S
C487 C482 1.425 . S
C487 C484 1.409 . S
C487 C485 1.415 . S
C488 H478 0.930 1_545 S
C488 C486 1.419 . S
C488 C489 1.362 . S
C489 H479 0.930 1_545 S
C489 C482 1.409 . S
C489 C488 1.362 . S
H490 C496 0.930 . S
H491 C499 0.930 . S
H492 C500 0.928 1_554 S
H493 C501 0.930 . S
H494 C504 0.930 . S
H495 C505 0.930 . S
C496 H490 0.930 . S
C496 C497 1.355 . S
C496 C498 1.415 . S
C497 C496 1.355 . S
C497 C499 1.419 . S
C498 C496 1.415 . S
C498 C503 1.425 . S
C498 C505 1.409 . S
C499 H491 0.930 . S
C499 C497 1.419 . S
C499 C500 1.362 . S
C500 H492 0.928 1_556 S
C500 C499 1.362 . S
C500 C503 1.409 . S
C501 H493 0.930 . S
C501 C502 1.355 . S
C501 C503 1.415 1_554 S
C502 C501 1.355 . S
C502 C504 1.419 . S
C503 C498 1.425 . S
C503 C500 1.409 . S
C503 C501 1.415 1_556 S
C504 H494 0.930 . S
C504 C502 1.419 . S
C504 C505 1.362 1_554 S
C505 H495 0.930 . S
C505 C498 1.409 . S
C505 C504 1.362 1_556 S
H506 C512 0.930 . S
H507 C515 0.930 . S
H508 C516 0.930 . S
H509 C517 0.930 . S
H510 C520 0.930 . S
H511 C521 0.930 . S
C512 H506 0.930 . S
C512 C513 1.355 . S
C512 C514 1.415 . S
C513 C512 1.355 . S
C513 C515 1.419 . S
C514 C512 1.415 . S
C514 C519 1.425 . S
C514 C521 1.409 . S
C515 H507 0.930 . S
C515 C513 1.419 . S
C515 C516 1.362 . S
C516 H508 0.930 . S
C516 C515 1.362 . S
C516 C519 1.409 . S
C517 H509 0.930 . S
C517 C518 1.355 . S
C517 C519 1.415 . S
C518 C517 1.355 . S
C518 C520 1.419 . S
C519 C514 1.425 . S
C519 C516 1.409 . S
C519 C517 1.415 . S
C520 H510 0.930 . S
C520 C518 1.419 . S
C520 C521 1.362 . S
C521 H511 0.930 . S
C521 C514 1.409 . S
C521 C520 1.362 . S
C241 C25 0.699 . S
C246 C226 0.810 . S
C257 C65 0.298 . S
C262 C188 0.419 . S
C273 C105 0.457 . S
C278 C207 0.446 . S
C289 C4 0.519 . S
C294 C221 0.525 . S
C310 C183 0.250 . S
C305 C44 0.362 . S
C326 C202 0.190 . S
C321 C84 0.276 . S
C337 C60 3.094 . S
C342 C150 2.996 . S
C353 C100 3.048 . S
C358 C164 2.997 . S
C369 C31 3.035 . S
C374 C126 2.990 1_565 S
C390 C145 2.997 . S
C385 C71 3.029 . S
C406 C169 3.004 . S
C401 C111 3.069 . S
C417 C20 3.097 . S
C422 C131 3.006 . S
C438 C160 1.739 . S
C433 C2 1.725 . S
C449 C42 1.762 . S
C454 C122 1.760 . S
C465 C82 1.717 . S
C470 C141 1.763 . S
C486 C198 1.266 . S
C481 C63 1.196 . S
C502 C217 1.350 . S
C497 C103 1.313 . S
C513 C23 1.246 . S
C518 C179 1.240 . S
