# Generated by pormake.
# Topology nom, (4,4)-cn, num edge types: 1
# Building blocks:
#     Node 0, Type 0, BuildingBlock: AZAVOO_clean_linker_0, # of connection points: 4
#     Node 1, Type 0, BuildingBlock: AZAVOO_clean_linker_0, # of connection points: 4
#     Node 2, Type 0, BuildingBlock: AZAVOO_clean_linker_0, # of connection points: 4
#     Node 3, Type 0, BuildingBlock: AZAVOO_clean_linker_0, # of connection points: 4
#     Node 4, Type 0, BuildingBlock: AZAVOO_clean_linker_0, # of connection points: 4
#     Node 5, Type 0, BuildingBlock: AZAVOO_clean_linker_0, # of connection points: 4
#     Node 6, Type 1, BuildingBlock: UXUYUI_clean_sbu_0, # of connection points: 4
#     Node 7, Type 1, BuildingBlock: UXUYUI_clean_sbu_0, # of connection points: 4
#     Node 8, Type 1, BuildingBlock: UXUYUI_clean_sbu_0, # of connection points: 4
#     Node 9, Type 1, BuildingBlock: UXUYUI_clean_sbu_0, # of connection points: 4
#     Node 10, Type 1, BuildingBlock: UXUYUI_clean_sbu_0, # of connection points: 4
#     Node 11, Type 1, BuildingBlock: UXUYUI_clean_sbu_0, # of connection points: 4
#     Edge 12, Type (0, 1), BuildingBlock: TEMPAE_clean_linker_10, # of connection points: 2
#     Edge 13, Type (0, 1), BuildingBlock: TEMPAE_clean_linker_10, # of connection points: 2
#     Edge 14, Type (0, 1), BuildingBlock: TEMPAE_clean_linker_10, # of connection points: 2
#     Edge 15, Type (0, 1), BuildingBlock: TEMPAE_clean_linker_10, # of connection points: 2
#     Edge 16, Type (0, 1), BuildingBlock: TEMPAE_clean_linker_10, # of connection points: 2
#     Edge 17, Type (0, 1), BuildingBlock: TEMPAE_clean_linker_10, # of connection points: 2
#     Edge 18, Type (0, 1), BuildingBlock: TEMPAE_clean_linker_10, # of connection points: 2
#     Edge 19, Type (0, 1), BuildingBlock: TEMPAE_clean_linker_10, # of connection points: 2
#     Edge 20, Type (0, 1), BuildingBlock: TEMPAE_clean_linker_10, # of connection points: 2
#     Edge 21, Type (0, 1), BuildingBlock: TEMPAE_clean_linker_10, # of connection points: 2
#     Edge 22, Type (0, 1), BuildingBlock: TEMPAE_clean_linker_10, # of connection points: 2
#     Edge 23, Type (0, 1), BuildingBlock: TEMPAE_clean_linker_10, # of connection points: 2
#     Edge 24, Type (0, 1), BuildingBlock: TEMPAE_clean_linker_10, # of connection points: 2
#     Edge 25, Type (0, 1), BuildingBlock: TEMPAE_clean_linker_10, # of connection points: 2
#     Edge 26, Type (0, 1), BuildingBlock: TEMPAE_clean_linker_10, # of connection points: 2
#     Edge 27, Type (0, 1), BuildingBlock: TEMPAE_clean_linker_10, # of connection points: 2
#     Edge 28, Type (0, 1), BuildingBlock: TEMPAE_clean_linker_10, # of connection points: 2
#     Edge 29, Type (0, 1), BuildingBlock: TEMPAE_clean_linker_10, # of connection points: 2
#     Edge 30, Type (0, 1), BuildingBlock: TEMPAE_clean_linker_10, # of connection points: 2
#     Edge 31, Type (0, 1), BuildingBlock: TEMPAE_clean_linker_10, # of connection points: 2
#     Edge 32, Type (0, 1), BuildingBlock: TEMPAE_clean_linker_10, # of connection points: 2
#     Edge 33, Type (0, 1), BuildingBlock: TEMPAE_clean_linker_10, # of connection points: 2
#     Edge 34, Type (0, 1), BuildingBlock: TEMPAE_clean_linker_10, # of connection points: 2
#     Edge 35, Type (0, 1), BuildingBlock: TEMPAE_clean_linker_10, # of connection points: 2
# Relax obj value: 0.170
# Max RMSD: 0.224
# Mean RMSD: 0.184
data_MOF--net-nom--node1-UXUYUI_clean_sbu_0--node2-AZAVOO_clean_linker_0--edge1-TEMPAE_clean_linker_10
_symmetry_space_group_name_H-M    P1
_symmetry_Int_Tables_number       1
_symmetry_cell_setting            triclinic
loop_
_symmetry_equiv_pos_as_xyz
'x, y, z'
_cell_length_a     58.049867
_cell_length_b     59.053581
_cell_length_c     72.851319
_cell_angle_alpha  89.98251
_cell_angle_beta   89.881155
_cell_angle_gamma 121.34562
loop_
_atom_site_label
_atom_site_type_symbol
_atom_site_fract_x
_atom_site_fract_y
_atom_site_fract_z
_atom_type_partial_charge
H0 H 0.0725 0.50186 0.19787 0.0
H1 H 0.19466 0.62061 0.39163 0.0
H2 H 0.00989 0.4636 0.29294 0.0
H3 H 0.97533 0.44298 0.26917 0.0
H4 H 0.96578 0.51083 0.26983 0.0
H5 H 0.00054 0.53136 0.29367 0.0
H6 H 0.07341 0.49598 0.27803 0.0
H7 H 0.07586 0.4934 0.2446 0.0
H8 H 0.04891 0.54888 0.23866 0.0
H9 H 0.04693 0.55155 0.2721 0.0
H10 H 0.12169 0.5271 0.30486 0.0
H11 H 0.16737 0.55698 0.29285 0.0
H12 H 0.14569 0.61491 0.27973 0.0
H13 H 0.1004 0.5852 0.29204 0.0
H14 H 0.10706 0.51615 0.34182 0.0
H15 H 0.14541 0.53685 0.36292 0.0
H16 H 0.14504 0.60983 0.36043 0.0
H17 H 0.10673 0.58886 0.33929 0.0
H18 H 0.05435 0.49065 0.35907 0.0
H19 H 0.06712 0.49769 0.39155 0.0
H20 H 0.06534 0.56982 0.3911 0.0
H21 H 0.05334 0.56311 0.35843 0.0
H22 H 0.98829 0.46672 0.33619 0.0
H23 H 0.94591 0.45745 0.35074 0.0
H24 H 0.97315 0.54085 0.34782 0.0
H25 H 0.01518 0.54979 0.33361 0.0
O26 O 0.0716 0.50334 0.21106 0.0
O27 O 0.05743 0.53172 0.20876 0.0
O28 O 0.18123 0.57519 0.38221 0.0
O29 O 0.18005 0.61222 0.38288 0.0
C30 C 0.03223 0.51327 0.3063 0.0
C31 C 0.05775 0.52477 0.2977 0.0
C32 C 0.0814 0.53779 0.30835 0.0
C33 C 0.07955 0.53776 0.32763 0.0
C34 C 0.05406 0.5264 0.33619 0.0
C35 C 0.03048 0.51526 0.32548 0.0
C36 C 0.00759 0.49888 0.295 0.0
C37 C -0.00026 0.47362 0.28833 0.0
C38 C 0.98003 0.46191 0.27477 0.0
C39 C 0.96803 0.47541 0.26758 0.0
C40 C 0.9749 0.50012 0.27504 0.0
C41 C 0.9945 0.51174 0.28873 0.0
C42 C 0.05978 0.52377 0.27743 0.0
C43 C 0.06814 0.50762 0.26946 0.0
C44 C 0.06947 0.50614 0.25038 0.0
C45 C 0.06247 0.52085 0.23895 0.0
C46 C 0.05435 0.53723 0.24705 0.0
C47 C 0.05312 0.53874 0.26613 0.0
C48 C 0.10794 0.55414 0.29936 0.0
C49 C 0.12683 0.54614 0.29921 0.0
C50 C 0.15276 0.56313 0.29228 0.0
C51 C 0.16006 0.58831 0.28549 0.0
C52 C 0.14069 0.59576 0.28509 0.0
C53 C 0.11484 0.5788 0.29199 0.0
C54 C 0.10432 0.5511 0.33899 0.0
C55 C 0.11556 0.53671 0.34567 0.0
C56 C 0.13737 0.54854 0.35777 0.0
C57 C 0.14825 0.57499 0.3634 0.0
C58 C 0.13713 0.58944 0.3564 0.0
C59 C 0.11536 0.57758 0.34427 0.0
C60 C 0.05275 0.52627 0.35648 0.0
C61 C 0.0556 0.50737 0.36618 0.0
C62 C 0.06305 0.51148 0.38462 0.0
C63 C 0.06723 0.5343 0.39365 0.0
C64 C 0.06194 0.55196 0.3844 0.0
C65 C 0.05493 0.54807 0.36583 0.0
C66 C 0.00473 0.50892 0.33404 0.0
C67 C 0.98498 0.48287 0.33878 0.0
C68 C 0.96086 0.47766 0.34699 0.0
C69 C 0.95635 0.49848 0.35058 0.0
C70 C 0.97624 0.52447 0.3456 0.0
C71 C 0.00017 0.52961 0.3374 0.0
C72 C 0.06366 0.51904 0.21869 0.0
C73 C 0.17085 0.58738 0.3767 0.0
H74 H 0.58203 0.09588 0.37219 0.0
H75 H 0.55627 0.17133 0.56867 0.0
H76 H 0.56725 0.0217 0.46022 0.0
H77 H 0.56245 0.99063 0.43619 0.0
H78 H 0.47584 0.95441 0.4382 0.0
H79 H 0.48093 0.98597 0.46212 0.0
H80 H 0.58516 0.08368 0.45168 0.0
H81 H 0.59203 0.09358 0.4188 0.0
H82 H 0.50591 0.04494 0.41021 0.0
H83 H 0.49932 0.0355 0.44315 0.0
H84 H 0.59172 0.11966 0.48504 0.0
H85 H 0.60197 0.1639 0.47581 0.0
H86 H 0.52062 0.12983 0.45549 0.0
H87 H 0.51043 0.08584 0.46514 0.0
H88 H 0.58478 0.09024 0.52388 0.0
H89 H 0.59611 0.12375 0.54759 0.0
H90 H 0.52577 0.12705 0.53286 0.0
H91 H 0.51441 0.09315 0.50941 0.0
H92 H 0.56305 0.0295 0.52681 0.0
H93 H 0.56949 0.03234 0.56011 0.0
H94 H 0.5036 0.04591 0.56641 0.0
H95 H 0.49699 0.04256 0.53312 0.0
H96 H 0.54014 0.98587 0.50136 0.0
H97 H 0.5121 0.93966 0.5121 0.0
H98 H 0.44248 0.94805 0.51308 0.0
H99 H 0.47046 0.99388 0.50255 0.0
O100 O 0.57885 0.09178 0.38515 0.0
O101 O 0.53445 0.06644 0.38146 0.0
O102 O 0.58799 0.15538 0.56654 0.0
O103 O 0.55244 0.1583 0.55923 0.0
C104 C 0.52807 0.0267 0.47602 0.0
C105 C 0.53773 0.05278 0.46972 0.0
C106 C 0.54335 0.07308 0.48241 0.0
C107 C 0.54107 0.06768 0.50142 0.0
C108 C 0.53095 0.04147 0.50764 0.0
C109 C 0.52334 0.02085 0.4949 0.0
C110 C 0.52444 0.006 0.46287 0.0
C111 C 0.54723 0.00681 0.45562 0.0
C112 C 0.54444 0.989 0.44198 0.0
C113 C 0.51877 0.97011 0.43531 0.0
C114 C 0.49588 0.96891 0.44298 0.0
C115 C 0.4987 0.98672 0.4567 0.0
C116 C 0.54177 0.05881 0.44976 0.0
C117 C 0.56781 0.07527 0.44267 0.0
C118 C 0.57168 0.08084 0.42389 0.0
C119 C 0.54952 0.07001 0.41187 0.0
C120 C 0.52342 0.05356 0.41908 0.0
C121 C 0.51959 0.04807 0.43786 0.0
C122 C 0.55034 0.09964 0.47578 0.0
C123 C 0.5762 0.12181 0.47853 0.0
C124 C 0.58203 0.14698 0.47317 0.0
C125 C 0.56204 0.15031 0.46499 0.0
C126 C 0.5363 0.12792 0.46197 0.0
C127 C 0.53052 0.1028 0.46732 0.0
C128 C 0.54881 0.08932 0.51493 0.0
C129 C 0.57191 0.09831 0.52576 0.0
C130 C 0.57832 0.11743 0.53929 0.0
C131 C 0.56182 0.12806 0.54214 0.0
C132 C 0.5389 0.11928 0.53103 0.0
C133 C 0.53243 0.10002 0.51757 0.0
C134 C 0.52975 0.0361 0.5276 0.0
C135 C 0.54936 0.03207 0.53545 0.0
C136 C 0.55315 0.03391 0.55443 0.0
C137 C 0.5373 0.03972 0.5658 0.0
C138 C 0.51601 0.04126 0.558 0.0
C139 C 0.51225 0.03944 0.53901 0.0
C140 C 0.50721 0.99303 0.50118 0.0
C141 C 0.51884 0.9776 0.5039 0.0
C142 C 0.50288 0.95137 0.51006 0.0
C143 C 0.47513 0.94032 0.51328 0.0
C144 C 0.46372 0.95596 0.51046 0.0
C145 C 0.47965 0.98211 0.50455 0.0
C146 C 0.5537 0.0759 0.39191 0.0
C147 C 0.5683 0.14807 0.5567 0.0
H148 H 0.53054 0.47583 0.77349 0.0
H149 H 0.56699 0.41941 0.57238 0.0
H150 H 0.54118 0.54827 0.68893 0.0
H151 H 0.53049 0.56758 0.71452 0.0
H152 H 0.44644 0.52411 0.69855 0.0
H153 H 0.4573 0.50337 0.67359 0.0
H154 H 0.55662 0.5081 0.69667 0.0
H155 H 0.55386 0.49842 0.72953 0.0
H156 H 0.46678 0.45433 0.72617 0.0
H157 H 0.46986 0.46385 0.69325 0.0
H158 H 0.57448 0.4901 0.66866 0.0
H159 H 0.58537 0.45765 0.68026 0.0
H160 H 0.50107 0.39642 0.67776 0.0
H161 H 0.49027 0.42905 0.66658 0.0
H162 H 0.57705 0.51547 0.6263 0.0
H163 H 0.5969 0.50034 0.60334 0.0
H164 H 0.52491 0.42219 0.60486 0.0
H165 H 0.50517 0.43773 0.62764 0.0
H166 H 0.55302 0.55106 0.6196 0.0
H167 H 0.56859 0.55838 0.58769 0.0
H168 H 0.50515 0.47867 0.57424 0.0
H169 H 0.4898 0.47149 0.60619 0.0
H170 H 0.51829 0.56537 0.65067 0.0
H171 H 0.49134 0.58373 0.63954 0.0
H172 H 0.43415 0.50776 0.6158 0.0
H173 H 0.46083 0.48963 0.62704 0.0
O174 O 0.53117 0.47925 0.76045 0.0
O175 O 0.48647 0.45693 0.75802 0.0
O176 O 0.59673 0.46602 0.58192 0.0
O177 O 0.55982 0.42575 0.5817 0.0
C178 C 0.50667 0.50976 0.66612 0.0
C179 C 0.51517 0.49273 0.67268 0.0
C180 C 0.52479 0.48122 0.66027 0.0
C181 C 0.52709 0.4876 0.64149 0.0
C182 C 0.51741 0.50363 0.63487 0.0
C183 C 0.50625 0.51391 0.64707 0.0
C184 C 0.5 0.52431 0.67953 0.0
C185 C 0.52049 0.54316 0.69085 0.0
C186 C 0.51434 0.55439 0.70539 0.0
C187 C 0.48754 0.54739 0.7087 0.0
C188 C 0.46721 0.52958 0.69661 0.0
C189 C 0.47337 0.51794 0.68222 0.0
C190 C 0.51345 0.48651 0.69258 0.0
C191 C 0.53699 0.49613 0.70303 0.0
C192 C 0.53534 0.49068 0.72181 0.0
C193 C 0.51009 0.47558 0.73048 0.0
C194 C 0.48654 0.46599 0.71993 0.0
C195 C 0.48823 0.4714 0.70114 0.0
C196 C 0.53163 0.4618 0.66688 0.0
C197 C 0.55844 0.46969 0.67067 0.0
C198 C 0.56457 0.45125 0.6773 0.0
C199 C 0.544 0.42467 0.67986 0.0
C200 C 0.51723 0.4168 0.67579 0.0
C201 C 0.51106 0.43533 0.66948 0.0
C202 C 0.53976 0.47765 0.62867 0.0
C203 C 0.5657 0.49504 0.62175 0.0
C204 C 0.57696 0.48636 0.60862 0.0
C205 C 0.56247 0.46004 0.60226 0.0
C206 C 0.53661 0.44257 0.60946 0.0
C207 C 0.52534 0.45132 0.62256 0.0
C208 C 0.52058 0.51064 0.61516 0.0
C209 C 0.54178 0.53562 0.60957 0.0
C210 C 0.55065 0.53975 0.59137 0.0
C211 C 0.53835 0.51889 0.57866 0.0
C212 C 0.51518 0.49492 0.58389 0.0
C213 C 0.5063 0.49084 0.60204 0.0
C214 C 0.49148 0.52617 0.63966 0.0
C215 C 0.49999 0.5528 0.64301 0.0
C216 C 0.4846 0.56321 0.63668 0.0
C217 C 0.46072 0.54718 0.62674 0.0
C218 C 0.45266 0.5207 0.62316 0.0
C219 C 0.46784 0.5103 0.62961 0.0
C220 C 0.50842 0.46997 0.75046 0.0
C221 C 0.57414 0.45088 0.58804 0.0
H222 H 0.01407 0.542 0.94973 0.0
H223 H 0.18702 0.57969 0.77208 0.0
H224 H 0.98238 0.54079 0.85172 0.0
H225 H 0.94992 0.52506 0.87701 0.0
H226 H 0.9391 0.44718 0.87197 0.0
H227 H 0.97106 0.46298 0.84639 0.0
H228 H 0.03845 0.56584 0.87161 0.0
H229 H 0.03123 0.56386 0.90486 0.0
H230 H 0.00675 0.48105 0.90464 0.0
H231 H 0.01431 0.48342 0.87145 0.0
H232 H 0.09837 0.58259 0.85203 0.0
H233 H 0.13676 0.58782 0.86988 0.0
H234 H 0.09991 0.50257 0.87086 0.0
H235 H 0.06172 0.49771 0.85363 0.0
H236 H 0.08292 0.58605 0.80447 0.0
H237 H 0.12506 0.60604 0.78697 0.0
H238 H 0.13275 0.53886 0.80014 0.0
H239 H 0.09037 0.51892 0.81736 0.0
H240 H 0.02476 0.55713 0.7865 0.0
H241 H 0.0418 0.56835 0.75487 0.0
H242 H 0.06675 0.51116 0.75757 0.0
H243 H 0.04923 0.49967 0.78895 0.0
H244 H 0.96322 0.51763 0.8111 0.0
H245 H 0.92084 0.48326 0.79694 0.0
H246 H 0.9555 0.43472 0.78831 0.0
H247 H 0.99733 0.4687 0.80264 0.0
O248 O 0.01751 0.54255 0.93668 0.0
O249 O 0.0045 0.49988 0.93571 0.0
O250 O 0.16594 0.60679 0.77314 0.0
O251 O 0.17072 0.57259 0.77935 0.0
C252 C 0.00553 0.51485 0.83792 0.0
C253 C 0.02901 0.52554 0.84883 0.0
C254 C 0.0544 0.53581 0.84048 0.0
C255 C 0.05676 0.53802 0.82123 0.0
C256 C 0.03323 0.52674 0.81028 0.0
C257 C 0.00752 0.51394 0.81865 0.0
C258 C 0.97913 0.50304 0.84735 0.0
C259 C 0.97193 0.52 0.85548 0.0
C260 C 0.95371 0.51108 0.87009 0.0
C261 C 0.94255 0.48509 0.8768 0.0
C262 C 0.94734 0.4673 0.86714 0.0
C263 C 0.96549 0.47623 0.85243 0.0
C264 C 0.0268 0.52477 0.86917 0.0
C265 C 0.03183 0.5474 0.87883 0.0
C266 C 0.02757 0.54616 0.89779 0.0
C267 C 0.01828 0.52225 0.9074 0.0
C268 C 0.01384 0.49975 0.89767 0.0
C269 C 0.01818 0.50105 0.87873 0.0
C270 C 0.07738 0.5398 0.85167 0.0
C271 C 0.09864 0.56517 0.85631 0.0
C272 C 0.12049 0.56805 0.86641 0.0
C273 C 0.12129 0.54558 0.87188 0.0
C274 C 0.09969 0.52025 0.86726 0.0
C275 C 0.07794 0.51742 0.8573 0.0
C276 C 0.08376 0.5512 0.81235 0.0
C277 C 0.09393 0.57586 0.80375 0.0
C278 C 0.11794 0.58717 0.7937 0.0
C279 C 0.13227 0.57402 0.79213 0.0
C280 C 0.12225 0.54953 0.80109 0.0
C281 C 0.09817 0.5382 0.81108 0.0
C282 C 0.03604 0.5278 0.79002 0.0
C283 C 0.0329 0.54629 0.77998 0.0
C284 C 0.04273 0.55275 0.762 0.0
C285 C 0.05592 0.54088 0.75401 0.0
C286 C 0.0569 0.52075 0.76356 0.0
C287 C 0.04679 0.51408 0.78139 0.0
C288 C 0.98331 0.49564 0.80783 0.0
C289 C 0.96173 0.49975 0.80585 0.0
C290 C 0.93765 0.4802 0.79774 0.0
C291 C 0.93491 0.45629 0.79168 0.0
C292 C 0.957 0.45283 0.79304 0.0
C293 C 0.98095 0.47231 0.80106 0.0
C294 C 0.01302 0.52079 0.92744 0.0
C295 C 0.15733 0.58556 0.78099 0.0
H296 H 0.44278 0.98649 0.87285 0.0
H297 H 0.43729 0.82786 0.0385 0.0
H298 H 0.47284 0.03281 0.96457 0.0
H299 H 0.49204 0.0677 0.94146 0.0
H300 H 0.5716 0.08231 0.95361 0.0
H301 H 0.55176 0.04579 0.97558 0.0
H302 H 0.43699 0.97107 0.95245 0.0
H303 H 0.43122 0.974 0.91943 0.0
H304 H 0.51702 0.00883 0.91144 0.0
H305 H 0.52243 0.00533 0.9444 0.0
H306 H 0.42226 0.91802 0.9786 0.0
H307 H 0.40831 0.87618 0.96255 0.0
H308 H 0.48823 0.91096 0.93931 0.0
H309 H 0.50216 0.9521 0.95567 0.0
H310 H 0.43273 0.93664 0.02179 0.0
H311 H 0.41441 0.89389 0.03738 0.0
H312 H 0.47588 0.88383 0.01192 0.0
H313 H 0.4942 0.92676 0.99663 0.0
H314 H 0.46706 0.9944 0.03779 0.0
H315 H 0.47073 0.98687 0.07059 0.0
H316 H 0.52719 0.96245 0.05735 0.0
H317 H 0.52318 0.96968 0.02475 0.0
H318 H 0.50029 0.05364 0.00765 0.0
H319 H 0.5361 0.09547 0.02068 0.0
H320 H 0.58458 0.06028 0.02931 0.0
H321 H 0.54998 0.01979 0.01475 0.0
O322 O 0.44547 0.98525 0.88583 0.0
O323 O 0.48979 0.00364 0.88254 0.0
O324 O 0.41314 0.8511 0.04545 0.0
O325 O 0.44413 0.84483 0.03253 0.0
C326 C 0.49822 0.01068 0.98135 0.0
C327 C 0.48357 0.98706 0.971 0.0
C328 C 0.47322 0.96221 0.97962 0.0
C329 C 0.47587 0.9608 -0.00122 0.0
C330 C 0.49058 0.98433 0.0091 0.0
C331 C 0.5026 0.0093 0.00031 0.0
C332 C 0.51083 0.03655 0.97161 0.0
C333 C 0.4945 0.044 0.96253 0.0
C334 C 0.5056 0.0641 0.94936 0.0
C335 C 0.53338 0.07756 0.94536 0.0
C336 C 0.55003 0.07186 0.95594 0.0
C337 C 0.53881 0.0513 0.96878 0.0
C338 C 0.48014 0.98825 0.95084 0.0
C339 C 0.45448 0.97921 0.94352 0.0
C340 C 0.45126 0.98097 0.92467 0.0
C341 C 0.47368 0.99178 0.9128 0.0
C342 C 0.49935 0.00051 0.92019 0.0
C343 C 0.50251 0.99862 0.93902 0.0
C344 C 0.46319 0.93807 0.96824 0.0
C345 C 0.43656 0.91664 0.96982 0.0
C346 C 0.42866 0.89288 0.96069 0.0
C347 C 0.44719 0.89051 0.94964 0.0
C348 C 0.47343 0.91243 0.94747 0.0
C349 C 0.4814 0.93591 0.9568 0.0
C350 C 0.46464 0.93466 0.00799 0.0
C351 C 0.44218 0.92515 0.01961 0.0
C352 C 0.43177 0.90073 0.02848 0.0
C353 C 0.44365 0.8854 0.02586 0.0
C354 C 0.46621 0.89509 0.01421 0.0
C355 C 0.47667 0.91955 0.00541 0.0
C356 C 0.49484 0.98254 0.02898 0.0
C357 C 0.48049 0.98781 0.04206 0.0
C358 C 0.48255 0.98346 0.0607 0.0
C359 C 0.49934 0.97422 0.06645 0.0
C360 C 0.51442 0.96994 0.05331 0.0
C361 C 0.51204 0.9739 0.03473 0.0
C362 C 0.5224 0.03357 0.01037 0.0
C363 C 0.51863 0.05503 0.01247 0.0
C364 C 0.53905 0.07883 0.02006 0.0
C365 C 0.5634 0.08138 0.02596 0.0
C366 C 0.56643 0.05932 0.02458 0.0
C367 C 0.54638 0.03589 0.01659 0.0
C368 C 0.47025 0.99395 0.89281 0.0
C369 C 0.43265 0.85944 0.03523 0.0
H370 H 0.45014 0.41635 0.04685 0.0
H371 H 0.61851 0.43429 0.21665 0.0
H372 H 0.45407 0.47265 0.1347 0.0
H373 H 0.43835 0.48803 0.10915 0.0
H374 H 0.517 0.55973 0.10593 0.0
H375 H 0.53213 0.5445 0.13174 0.0
H376 H 0.47185 0.4289 0.12576 0.0
H377 H 0.45714 0.41591 0.09401 0.0
H378 H 0.51928 0.49384 0.07555 0.0
H379 H 0.53407 0.50636 0.10729 0.0
H380 H 0.51343 0.41565 0.1515 0.0
H381 H 0.53892 0.39716 0.13781 0.0
H382 H 0.59067 0.47178 0.11016 0.0
H383 H 0.56531 0.48982 0.12373 0.0
H384 H 0.50818 0.43618 0.1939 0.0
H385 H 0.53011 0.41878 0.21306 0.0
H386 H 0.60511 0.46851 0.18403 0.0
H387 H 0.58303 0.48601 0.16517 0.0
H388 H 0.49086 0.4781 0.20419 0.0
H389 H 0.50288 0.48423 0.23684 0.0
H390 H 0.58739 0.52758 0.22203 0.0
H391 H 0.57517 0.52181 0.1896 0.0
H392 H 0.46974 0.5077 0.1722 0.0
H393 H 0.46989 0.54712 0.18305 0.0
H394 H 0.55706 0.59031 0.18489 0.0
H395 H 0.55667 0.55145 0.17323 0.0
O396 O 0.45665 0.4217 0.05927 0.0
O397 O 0.48842 0.4623 0.05057 0.0
O398 O 0.5703 0.41568 0.22377 0.0
O399 O 0.60929 0.44067 0.20917 0.0
C400 C 0.50579 0.49521 0.14643 0.0
C401 C 0.51138 0.47684 0.13825 0.0
C402 C 0.52503 0.46698 0.14831 0.0
C403 C 0.53076 0.47345 0.16705 0.0
C404 C 0.52506 0.49173 0.1752 0.0
C405 C 0.51371 0.50354 0.16468 0.0
C406 C 0.49421 0.50746 0.13495 0.0
C407 C 0.46749 0.49212 0.12889 0.0
C408 C 0.4587 0.50078 0.11417 0.0
C409 C 0.47661 0.52484 0.10529 0.0
C410 C 0.50264 0.54119 0.11252 0.0
C411 C 0.51134 0.53258 0.12731 0.0
C412 C 0.5038 0.46863 0.11883 0.0
C413 C 0.48238 0.44304 0.11481 0.0
C414 C 0.47397 0.43572 0.09668 0.0
C415 C 0.4869 0.45391 0.08225 0.0
C416 C 0.50878 0.4794 0.08633 0.0
C417 C 0.51723 0.48662 0.10445 0.0
C418 C 0.53744 0.45399 0.13848 0.0
C419 C 0.52996 0.42771 0.1422 0.0
C420 C 0.54458 0.41728 0.13446 0.0
C421 C 0.56673 0.433 0.12285 0.0
C422 C 0.57341 0.45896 0.11872 0.0
C423 C 0.55895 0.46934 0.12648 0.0
C424 C 0.54396 0.46215 0.17805 0.0
C425 C 0.52931 0.44318 0.19166 0.0
C426 C 0.5419 0.43332 0.20258 0.0
C427 C 0.56938 0.44223 0.20005 0.0
C428 C 0.58393 0.46118 0.18632 0.0
C429 C 0.57135 0.47111 0.17546 0.0
C430 C 0.53218 0.49925 0.19465 0.0
C431 C 0.51192 0.48947 0.20808 0.0
C432 C 0.51881 0.49288 0.22665 0.0
C433 C 0.54606 0.50621 0.23196 0.0
C434 C 0.56624 0.51748 0.21839 0.0
C435 C 0.55933 0.51404 0.19988 0.0
C436 C 0.51318 0.52668 0.17205 0.0
C437 C 0.4888 0.52572 0.17496 0.0
C438 C 0.48896 0.54819 0.18126 0.0
C439 C 0.51351 0.57191 0.1848 0.0
C440 C 0.53782 0.57255 0.18204 0.0
C441 C 0.53764 0.55025 0.1756 0.0
C442 C 0.47748 0.44632 0.06306 0.0
C443 C 0.5829 0.43199 0.21174 0.0
Li444 Li 0.66708 0.47012 0.42925 0.0
Li445 Li 0.65157 0.42585 0.41846 0.0
Li446 Li 0.69822 0.4634 0.41117 0.0
Li447 Li 0.65726 0.45958 0.39737 0.0
C448 C 0.69546 0.45405 0.45174 0.0
N449 N 0.72264 0.46701 0.48481 0.0
C450 C 0.68297 0.43882 0.4674 0.0
C451 C 0.72188 0.4757 0.45286 0.0
C452 C 0.69702 0.44574 0.484 0.0
C453 C 0.73525 0.48198 0.46971 0.0
C454 C 0.60754 0.42604 0.42493 0.0
C455 C 0.56445 0.38561 0.4212 0.0
N456 N 0.55838 0.38717 0.43902 0.0
C457 C 0.60086 0.42724 0.44321 0.0
C458 C 0.58917 0.40509 0.41381 0.0
C459 C 0.5759 0.4074 0.45006 0.0
C460 C 0.64566 0.49881 0.44139 0.0
N461 N 0.66196 0.49024 0.44744 0.0
C462 C 0.66098 0.50484 0.47783 0.0
C463 C 0.6704 0.49375 0.46516 0.0
C464 C 0.64298 0.51267 0.4721 0.0
C465 C 0.63627 0.51052 0.45343 0.0
H466 H 0.63892 0.49542 0.42729 0.0
H467 H 0.68333 0.48687 0.46977 0.0
C468 C 0.63256 0.37234 0.41127 0.0
N469 N 0.63251 0.38907 0.42404 0.0
C470 C 0.62127 0.34552 0.41532 0.0
C471 C 0.60959 0.35351 0.4455 0.0
C472 C 0.62116 0.38021 0.44087 0.0
C473 C 0.60995 0.33587 0.43274 0.0
H474 H 0.64217 0.37997 0.39813 0.0
H475 H 0.62159 0.39396 0.45083 0.0
C476 C 0.69672 0.51653 0.41177 0.0
N477 N 0.71036 0.56747 0.42081 0.0
C478 C 0.68291 0.52764 0.40386 0.0
C479 C 0.71768 0.53144 0.4241 0.0
C480 C 0.69005 0.5534 0.40865 0.0
C481 C 0.72421 0.55712 0.42854 0.0
C482 C 0.66893 0.43147 0.37616 0.0
C483 C 0.69184 0.44528 0.36507 0.0
C484 C 0.64383 0.41459 0.3681 0.0
C485 C 0.68921 0.44212 0.34604 0.0
C486 C 0.64203 0.412 0.34902 0.0
N487 N 0.66456 0.42571 0.33848 0.0
C488 C 0.7367 0.44974 0.40769 0.0
C489 C 0.75386 0.49529 0.40168 0.0
C490 C 0.76146 0.45267 0.40324 0.0
N491 N 0.73338 0.47083 0.40669 0.0
C492 C 0.77907 0.49916 0.39716 0.0
C493 C 0.78301 0.47758 0.39773 0.0
H494 H 0.71983 0.43049 0.41154 0.0
H495 H 0.75047 0.51162 0.40091 0.0
C496 C 0.6166 0.45874 0.37632 0.0
N497 N 0.64327 0.46717 0.37648 0.0
C498 C 0.60563 0.46505 0.36163 0.0
C499 C 0.64991 0.48881 0.3476 0.0
C500 C 0.66003 0.48208 0.36262 0.0
C501 C 0.62237 0.48032 0.34704 0.0
H502 H 0.60388 0.44737 0.3877 0.0
H503 H 0.68131 0.48903 0.36338 0.0
O504 O 0.68205 0.44741 0.43536 0.0
O505 O 0.63194 0.44516 0.41794 0.0
O506 O 0.68978 0.49121 0.40743 0.0
O507 O 0.67098 0.43474 0.39478 0.0
H508 H 0.66261 0.42193 0.4668 0.0
H509 H 0.73199 0.48752 0.44087 0.0
H510 H 0.68754 0.43421 0.49625 0.0
H511 H 0.75567 0.49873 0.47077 0.0
H512 H 0.55011 0.36923 0.41277 0.0
H513 H 0.61485 0.4431 0.4521 0.0
H514 H 0.59407 0.40374 0.39967 0.0
H515 H 0.57051 0.40805 0.4642 0.0
H516 H 0.66652 0.50581 0.49211 0.0
H517 H 0.62294 0.51674 0.44827 0.0
H518 H 0.6224 0.33272 0.40518 0.0
H519 H 0.60084 0.34684 0.45902 0.0
H520 H 0.66661 0.5164 0.39431 0.0
H521 H 0.72871 0.52326 0.43024 0.0
H522 H 0.67941 0.56217 0.40274 0.0
H523 H 0.74029 0.56883 0.43815 0.0
H524 H 0.7114 0.4585 0.37108 0.0
H525 H 0.62589 0.40383 0.3765 0.0
H526 H 0.70674 0.45277 0.33728 0.0
H527 H 0.62271 0.39915 0.34259 0.0
H528 H 0.76344 0.43542 0.40358 0.0
H529 H 0.79522 0.51875 0.39317 0.0
H530 H 0.58426 0.45792 0.36163 0.0
H531 H 0.66352 0.50089 0.33672 0.0
Li532 Li 0.23531 0.63788 0.59296 0.0
Li533 Li 0.26644 0.62727 0.58012 0.0
Li534 Li 0.27258 0.67264 0.57536 0.0
Li535 Li 0.23485 0.6314 0.56028 0.0
C536 C 0.27866 0.66343 0.6161 0.0
N537 N 0.28729 0.6794 0.65235 0.0
C538 C 0.27226 0.64487 0.63009 0.0
C539 C 0.28957 0.69014 0.62052 0.0
C540 C 0.27672 0.65333 0.64834 0.0
C541 C 0.29377 0.69781 0.63894 0.0
C542 C 0.22128 0.5801 0.58195 0.0
C543 C 0.21559 0.53981 0.56925 0.0
N544 N 0.21109 0.52924 0.58641 0.0
C545 C 0.21639 0.56878 0.59945 0.0
C546 C 0.22069 0.56548 0.56671 0.0
C547 C 0.21136 0.54306 0.60143 0.0
C548 C 0.18634 0.60701 0.61087 0.0
N549 N 0.21045 0.62999 0.61287 0.0
C550 C 0.19691 0.63731 0.6422 0.0
C551 C 0.21563 0.64561 0.62788 0.0
C552 C 0.17227 0.61301 0.64087 0.0
C553 C 0.16688 0.59816 0.62468 0.0
H554 H 0.18226 0.59538 0.59853 0.0
H555 H 0.23434 0.66439 0.6289 0.0
C556 C 0.30726 0.61693 0.57129 0.0
N557 N 0.28758 0.61151 0.58376 0.0
C558 C 0.3258 0.60911 0.57456 0.0
C559 C 0.30332 0.58994 0.60337 0.0
C560 C 0.2852 0.59812 0.59952 0.0
C561 C 0.32427 0.59584 0.59094 0.0
H562 H 0.30925 0.62821 0.5591 0.0
H563 H 0.26991 0.59465 0.60946 0.0
C564 C 0.21605 0.66607 0.58087 0.0
N565 N 0.17924 0.67527 0.59804 0.0
C566 C 0.1885 0.64955 0.57738 0.0
C567 C 0.22493 0.68733 0.593 0.0
C568 C 0.17019 0.65451 0.58623 0.0
C569 C 0.20598 0.69164 0.60156 0.0
C570 C 0.2805 0.64815 0.53914 0.0
C571 C 0.29289 0.67177 0.52907 0.0
C572 C 0.27406 0.62443 0.53053 0.0
C573 C 0.29838 0.67119 0.51045 0.0
C574 C 0.27984 0.62467 0.51188 0.0
N575 N 0.29176 0.64784 0.50231 0.0
C576 C 0.32534 0.7144 0.57229 0.0
C577 C 0.29314 0.72681 0.5666 0.0
C578 C 0.34642 0.73975 0.56766 0.0
N579 N 0.29939 0.70843 0.57148 0.0
C580 C 0.31364 0.75251 0.56199 0.0
C581 C 0.34065 0.75908 0.56221 0.0
H582 H 0.32954 0.69918 0.57605 0.0
H583 H 0.27225 0.72129 0.56577 0.0
C584 C 0.18807 0.5954 0.54108 0.0
N585 N 0.21225 0.61838 0.53928 0.0
C586 C 0.17016 0.5854 0.52634 0.0
C587 C 0.20247 0.62281 0.50812 0.0
C588 C 0.21947 0.63237 0.52334 0.0
C589 C 0.1773 0.59904 0.50948 0.0
H590 H 0.18252 0.58505 0.5541 0.0
H591 H 0.23834 0.65105 0.52242 0.0
O592 O 0.27476 0.65566 0.59814 0.0
O593 O 0.22632 0.60528 0.57976 0.0
O594 O 0.23419 0.66106 0.57278 0.0
O595 O 0.27489 0.64833 0.55736 0.0
H596 H 0.26355 0.62411 0.62692 0.0
H597 H 0.29466 0.70478 0.60986 0.0
H598 H 0.27169 0.63915 0.65932 0.0
H599 H 0.30213 0.7184 0.64258 0.0
H600 H 0.21516 0.52828 0.55757 0.0
H601 H 0.2168 0.57986 0.61141 0.0
H602 H 0.22405 0.57382 0.55305 0.0
H603 H 0.20773 0.53411 0.6149 0.0
H604 H 0.20206 0.64951 0.65437 0.0
H605 H 0.14788 0.57976 0.6227 0.0
H606 H 0.34149 0.61386 0.56453 0.0
H607 H 0.30163 0.58012 0.61629 0.0
H608 H 0.18135 0.63293 0.56809 0.0
H609 H 0.24619 0.70011 0.59598 0.0
H610 H 0.14879 0.64181 0.58375 0.0
H611 H 0.21252 0.70792 0.61107 0.0
H612 H 0.29803 0.69032 0.53551 0.0
H613 H 0.26472 0.60604 0.53817 0.0
H614 H 0.30785 0.68929 0.50246 0.0
H615 H 0.27487 0.60643 0.50502 0.0
H616 H 0.36699 0.74411 0.56812 0.0
H617 H 0.30837 0.76678 0.55763 0.0
H618 H 0.15078 0.56738 0.52828 0.0
H619 H 0.20917 0.63395 0.49543 0.0
Li620 Li 0.66169 0.23659 0.74854 0.0
Li621 Li 0.62269 0.2074 0.76527 0.0
Li622 Li 0.626 0.19864 0.73282 0.0
Li623 Li 0.62096 0.23741 0.74323 0.0
C624 C 0.66645 0.19129 0.75329 0.0
N625 N 0.70464 0.17671 0.75272 0.0
C626 C 0.67726 0.18861 0.76971 0.0
C627 C 0.67458 0.18589 0.73662 0.0
C628 C 0.69668 0.18142 0.76912 0.0
C629 C 0.69404 0.17873 0.73661 0.0
C630 C 0.65506 0.25704 0.78188 0.0
C631 C 0.66753 0.28853 0.80653 0.0
N632 N 0.68204 0.27897 0.81434 0.0
C633 C 0.6701 0.24755 0.79013 0.0
C634 C 0.65376 0.27772 0.7901 0.0
C635 C 0.6836 0.25888 0.80655 0.0
C636 C 0.70412 0.28721 0.75188 0.0
N637 N 0.69942 0.26223 0.75022 0.0
C638 C 0.74652 0.27845 0.75318 0.0
C639 C 0.71999 0.2575 0.75051 0.0
C640 C 0.75165 0.30428 0.75565 0.0
C641 C 0.73012 0.30858 0.75465 0.0
H642 H 0.68745 0.29047 0.75136 0.0
H643 H 0.71595 0.23759 0.74899 0.0
C644 C 0.60629 0.16743 0.79214 0.0
N645 N 0.60891 0.19121 0.78842 0.0
C646 C 0.59696 0.15561 0.80931 0.0
C647 C 0.59339 0.19306 0.81843 0.0
C648 C 0.60231 0.20392 0.801 0.0
C649 C 0.59076 0.16869 0.82273 0.0
H650 H 0.61161 0.15778 0.7818 0.0
H651 H 0.60411 0.22257 0.79754 0.0
C652 C 0.66757 0.25414 0.71453 0.0
N653 N 0.71322 0.29058 0.6954 0.0
C654 C 0.67283 0.27978 0.71146 0.0
C655 C 0.68533 0.24694 0.70758 0.0
C656 C 0.69606 0.29794 0.70182 0.0
C657 C 0.70836 0.26566 0.69804 0.0
C658 C 0.57232 0.1841 0.75582 0.0
C659 C 0.56056 0.15668 0.7575 0.0
C660 C 0.56127 0.19683 0.76531 0.0
C661 C 0.53794 0.14242 0.76878 0.0
C662 C 0.53864 0.18185 0.77644 0.0
N663 N 0.52756 0.15519 0.77794 0.0
C664 C 0.60312 0.14694 0.71725 0.0
C665 C 0.61993 0.18297 0.6964 0.0
C666 C 0.59359 0.12883 0.70272 0.0
N667 N 0.61562 0.17338 0.71381 0.0
C668 C 0.61101 0.1657 0.68152 0.0
C669 C 0.59712 0.13818 0.68455 0.0
H670 H 0.60005 0.13991 0.73128 0.0
H671 H 0.62988 0.20409 0.69407 0.0
C672 C 0.62322 0.28533 0.74134 0.0
N673 N 0.60727 0.25913 0.73742 0.0
C674 C 0.61553 0.30307 0.73595 0.0
C675 C 0.57438 0.26624 0.72352 0.0
C676 C 0.58312 0.24923 0.72887 0.0
C677 C 0.59098 0.29355 0.72677 0.0
H678 H 0.64234 0.29251 0.74814 0.0
H679 H 0.57095 0.22825 0.72593 0.0
O680 O 0.6472 0.19805 0.75364 0.0
O681 O 0.6418 0.24638 0.76573 0.0
O682 O 0.64525 0.23626 0.72434 0.0
O683 O 0.59499 0.19856 0.74536 0.0
H684 H 0.67061 0.19185 0.7828 0.0
H685 H 0.66589 0.18702 0.72383 0.0
H686 H 0.70533 0.17944 0.78172 0.0
H687 H 0.70064 0.17466 0.72379 0.0
H688 H 0.66668 0.30454 0.81306 0.0
H689 H 0.67144 0.23174 0.78387 0.0
H690 H 0.64219 0.2853 0.78386 0.0
H691 H 0.69535 0.25172 0.81307 0.0
H692 H 0.76267 0.2744 0.75389 0.0
H693 H 0.73332 0.32826 0.75617 0.0
H694 H 0.59522 0.13679 0.81224 0.0
H695 H 0.58849 0.20352 0.82842 0.0
H696 H 0.65923 0.28567 0.71651 0.0
H697 H 0.68151 0.22718 0.70965 0.0
H698 H 0.70045 0.31789 0.69947 0.0
H699 H 0.72236 0.26039 0.69273 0.0
H700 H 0.56898 0.14658 0.75034 0.0
H701 H 0.57033 0.21809 0.76431 0.0
H702 H 0.52871 0.1212 0.77029 0.0
H703 H 0.52996 0.19145 0.78395 0.0
H704 H 0.58291 0.1078 0.70569 0.0
H705 H 0.61477 0.17385 0.66777 0.0
H706 H 0.62871 0.32402 0.73875 0.0
H707 H 0.55536 0.25833 0.71638 0.0
Li708 Li 0.42572 0.60306 0.9265 0.0
Li709 Li 0.42295 0.63706 0.9111 0.0
Li710 Li 0.38426 0.59393 0.91152 0.0
Li711 Li 0.42387 0.60481 0.89184 0.0
C712 C 0.38795 0.60473 0.94839 0.0
N713 N 0.35978 0.58031 0.98017 0.0
C714 C 0.38531 0.61963 0.96222 0.0
C715 C 0.37616 0.57738 0.95071 0.0
C716 C 0.37101 0.60693 0.97819 0.0
C717 C 0.36204 0.56541 0.96687 0.0
C718 C 0.47598 0.65342 0.91082 0.0
C719 C 0.5174 0.68928 0.89812 0.0
N720 N 0.52333 0.70179 0.91465 0.0
C721 C 0.48254 0.66653 0.9277 0.0
C722 C 0.49356 0.66479 0.89591 0.0
C723 C 0.50655 0.69102 0.92934 0.0
C724 C 0.44219 0.57311 0.94731 0.0
N725 N 0.4392 0.59447 0.9472 0.0
C726 C 0.44762 0.60081 0.97935 0.0
C727 C 0.44271 0.60884 0.96263 0.0
C728 C 0.44951 0.57815 0.98006 0.0
C729 C 0.44761 0.56461 0.96377 0.0
H730 H 0.43935 0.56214 0.93479 0.0
H731 H 0.44037 0.62582 0.96212 0.0
C732 C 0.41162 0.67442 0.92178 0.0
N733 N 0.43101 0.67266 0.91259 0.0
C734 C 0.4128 0.69848 0.92299 0.0
C735 C 0.45421 0.71889 0.90539 0.0
C736 C 0.45201 0.69421 0.9043 0.0
C737 C 0.43425 0.72104 0.91471 0.0
H738 H 0.39485 0.65692 0.9279 0.0
H739 H 0.46665 0.69224 0.89646 0.0
C740 C 0.3863 0.54792 0.90385 0.0
N741 N 0.35237 0.49581 0.8933 0.0
C742 C 0.37381 0.54208 0.88669 0.0
C743 C 0.38137 0.52724 0.91571 0.0
C744 C 0.35678 0.51562 0.88158 0.0
C745 C 0.36418 0.50103 0.91012 0.0
C746 C 0.40244 0.63824 0.87933 0.0
C747 C 0.3826 0.64491 0.87878 0.0
C748 C 0.42614 0.65308 0.86912 0.0
C749 C 0.38693 0.66647 0.86814 0.0
C750 C 0.42967 0.67445 0.85861 0.0
N751 N 0.41017 0.68068 0.85836 0.0
C752 C 0.33936 0.59541 0.91595 0.0
C753 C 0.32739 0.55078 0.91182 0.0
C754 C 0.31243 0.58804 0.9163 0.0
N755 N 0.34634 0.57702 0.91325 0.0
C756 C 0.29998 0.54243 0.91206 0.0
C757 C 0.2923 0.56131 0.91399 0.0
H758 H 0.35493 0.61605 0.91736 0.0
H759 H 0.33334 0.53637 0.91023 0.0
C760 C 0.45874 0.60043 0.86638 0.0
N761 N 0.4346 0.59853 0.86886 0.0
C762 C 0.46666 0.59752 0.84883 0.0
C763 C 0.42439 0.59013 0.837 0.0
C764 C 0.41758 0.59366 0.85462 0.0
C765 C 0.44936 0.59234 0.83381 0.0
H766 H 0.47203 0.6047 0.87796 0.0
H767 H 0.39874 0.5928 0.85692 0.0
O768 O 0.40219 0.61708 0.93278 0.0
O769 O 0.45268 0.62937 0.90895 0.0
O770 O 0.40322 0.57369 0.90909 0.0
O771 O 0.39897 0.61766 0.89007 0.0
H772 H 0.39437 0.64083 0.96069 0.0
H773 H 0.37794 0.56548 0.94022 0.0
H774 H 0.36888 0.61824 0.98902 0.0
H775 H 0.3529 0.54428 0.96885 0.0
H776 H 0.53116 0.69837 0.8867 0.0
H777 H 0.46909 0.65805 0.93932 0.0
H778 H 0.48876 0.65488 0.88275 0.0
H779 H 0.51181 0.70148 0.94229 0.0
H780 H 0.44925 0.61178 0.99169 0.0
H781 H 0.44901 0.54703 0.96395 0.0
H782 H 0.39717 0.69947 0.93044 0.0
H783 H 0.47092 0.73592 0.8987 0.0
H784 H 0.37671 0.55776 0.8776 0.0
H785 H 0.39064 0.53135 0.92912 0.0
H786 H 0.34693 0.51084 0.86835 0.0
H787 H 0.36021 0.48484 0.91915 0.0
H788 H 0.36409 0.63363 0.8865 0.0
H789 H 0.44191 0.6485 0.86959 0.0
H790 H 0.3718 0.67192 0.86765 0.0
H791 H 0.448 0.6862 0.85075 0.0
H792 H 0.30754 0.60334 0.91756 0.0
H793 H 0.28502 0.52157 0.91046 0.0
H794 H 0.48626 0.59977 0.84703 0.0
H795 H 0.41011 0.58562 0.82601 0.0
Li796 Li 0.78635 0.3894 0.07693 0.0
Li797 Li 0.8199 0.38232 0.09335 0.0
Li798 Li 0.82231 0.39131 0.05947 0.0
Li799 Li 0.78793 0.3501 0.07145 0.0
C800 C 0.82567 0.43683 0.08609 0.0
N801 N 0.82393 0.48022 0.0983 0.0
C802 C 0.83289 0.44571 0.10415 0.0
C803 C 0.81773 0.45013 0.07422 0.0
C804 C 0.83185 0.46767 0.11006 0.0
C805 C 0.81691 0.47198 0.08067 0.0
C806 C 0.75965 0.33925 0.10194 0.0
C807 C 0.74279 0.29804 0.11829 0.0
N808 N 0.71711 0.29159 0.1146 0.0
C809 C 0.73311 0.3323 0.09839 0.0
C810 C 0.76458 0.32206 0.11202 0.0
C811 C 0.71187 0.30808 0.10488 0.0
C812 C 0.74295 0.39501 0.067 0.0
N813 N 0.76118 0.40013 0.08047 0.0
C814 C 0.73813 0.41319 0.10102 0.0
C815 C 0.75923 0.40907 0.09724 0.0
C816 C 0.71861 0.40743 0.08751 0.0
C817 C 0.72137 0.39858 0.07024 0.0
H818 H 0.74451 0.38707 0.05402 0.0
H819 H 0.77348 0.41202 0.10789 0.0
C820 C 0.86586 0.40271 0.11625 0.0
N821 N 0.83848 0.38924 0.11589 0.0
C822 C 0.87949 0.41032 0.13301 0.0
C823 C 0.83639 0.38947 0.14861 0.0
C824 C 0.82365 0.38244 0.13159 0.0
C825 C 0.8647 0.404 0.14949 0.0
H826 H 0.87708 0.40821 0.10349 0.0
H827 H 0.80191 0.37217 0.13088 0.0
C828 C 0.78485 0.37436 0.03485 0.0
N829 N 0.78977 0.37965 0.99713 0.0
C830 C 0.78563 0.35504 0.02425 0.0
C831 C 0.78634 0.39626 0.02626 0.0
C832 C 0.78814 0.35809 0.00519 0.0
C833 C 0.78891 0.39861 0.00717 0.0
C834 C 0.82966 0.34258 0.07379 0.0
C835 C 0.82632 0.32768 0.05802 0.0
C836 C 0.8355 0.33505 0.09051 0.0
C837 C 0.8289 0.30549 0.05925 0.0
C838 C 0.8379 0.31272 0.09117 0.0
N839 N 0.83459 0.29853 0.07566 0.0
C840 C 0.85207 0.43307 0.03404 0.0
C841 C 0.85254 0.39384 0.02827 0.0
C842 C 0.86462 0.44373 0.01721 0.0
N843 N 0.84562 0.40824 0.03897 0.0
C844 C 0.86508 0.40369 0.01134 0.0
C845 C 0.87064 0.42868 0.0054 0.0
H846 H 0.8464 0.44413 0.04279 0.0
H847 H 0.84711 0.37415 0.03245 0.0
C848 C 0.74043 0.30983 0.05753 0.0
N849 N 0.76242 0.31338 0.06672 0.0
C850 C 0.71885 0.28448 0.0539 0.0
C851 C 0.74259 0.26646 0.06937 0.0
C852 C 0.76364 0.29233 0.07299 0.0
C853 C 0.7198 0.26229 0.05964 0.0
H854 H 0.73927 0.32678 0.05342 0.0
H855 H 0.78053 0.29544 0.08114 0.0
O856 O 0.82635 0.41522 0.08009 0.0
O857 O 0.78071 0.36248 0.09521 0.0
O858 O 0.78331 0.37218 0.05357 0.0
O859 O 0.82786 0.36476 0.07282 0.0
H860 H 0.83917 0.43578 0.11353 0.0
H861 H 0.81171 0.44333 0.06029 0.0
H862 H 0.83731 0.47472 0.12401 0.0
H863 H 0.81058 0.4823 0.07167 0.0
H864 H 0.74629 0.28445 0.12599 0.0
H865 H 0.72895 0.3453 0.09051 0.0
H866 H 0.78503 0.32704 0.11471 0.0
H867 H 0.69122 0.30235 0.10214 0.0
H868 H 0.73641 0.41966 0.11459 0.0
H869 H 0.70671 0.39397 0.0595 0.0
H870 H 0.90132 0.42182 0.13302 0.0
H871 H 0.82418 0.38388 0.16095 0.0
H872 H 0.78468 0.33806 0.03067 0.0
H873 H 0.78599 0.4115 0.03426 0.0
H874 H 0.78895 0.34339 0.99683 0.0
H875 H 0.79037 0.41559 0.00035 0.0
H876 H 0.82132 0.33285 0.04502 0.0
H877 H 0.83815 0.34628 0.10286 0.0
H878 H 0.82623 0.29371 0.04718 0.0
H879 H 0.84239 0.30666 0.10403 0.0
H880 H 0.86896 0.46326 0.01329 0.0
H881 H 0.86915 0.39131 0.00262 0.0
H882 H 0.70137 0.28237 0.04695 0.0
H883 H 0.74421 0.24998 0.07414 0.0
Li884 Li 0.48385 0.8226 0.26539 0.0
Li885 Li 0.44455 0.78809 0.24936 0.0
Li886 Li 0.48882 0.79355 0.24513 0.0
Li887 Li 0.47874 0.8255 0.23244 0.0
C888 C 0.46654 0.7805 0.28605 0.0
N889 N 0.46614 0.7767 0.32387 0.0
C890 C 0.44287 0.77272 0.29592 0.0
C891 C 0.48996 0.7862 0.29541 0.0
C892 C 0.44309 0.77092 0.31503 0.0
C893 C 0.48936 0.78422 0.31453 0.0
C894 C 0.45294 0.84614 0.24733 0.0
C895 C 0.43391 0.86514 0.2277 0.0
N896 N 0.45001 0.88914 0.23574 0.0
C897 C 0.4693 0.87099 0.2554 0.0
C898 C 0.43505 0.84315 0.23339 0.0
C899 C 0.46749 0.89248 0.24936 0.0
C900 C 0.51925 0.85586 0.2942 0.0
N901 N 0.49349 0.84122 0.28797 0.0
C902 C 0.47665 0.851 0.3148 0.0
C903 C 0.47239 0.83874 0.2978 0.0
C904 C 0.50296 0.86622 0.3217 0.0
C905 C 0.52449 0.86871 0.31117 0.0
H906 H 0.53564 0.85752 0.28604 0.0
H907 H 0.45216 0.82714 0.29236 0.0
C908 C 0.4013 0.73702 0.25562 0.0
N909 N 0.40754 0.76213 0.25187 0.0
C910 C 0.37449 0.71678 0.25778 0.0
C911 C 0.36101 0.74864 0.25212 0.0
C912 C 0.38815 0.76833 0.25014 0.0
C913 C 0.35397 0.72252 0.25609 0.0
H914 H 0.41725 0.7328 0.25698 0.0
H915 H 0.39376 0.78853 0.24735 0.0
C916 C 0.53565 0.83629 0.24102 0.0
N917 N 0.58339 0.84063 0.23012 0.0
C918 C 0.54471 0.84326 0.22294 0.0
C919 C 0.55092 0.83169 0.25359 0.0
C920 C 0.5689 0.84533 0.21769 0.0
C921 C 0.57498 0.83392 0.2478 0.0
C922 C 0.44106 0.76604 0.218 0.0
C923 C 0.4399 0.74178 0.21841 0.0
C924 C 0.41986 0.76739 0.21011 0.0
C925 C 0.41761 0.71935 0.21086 0.0
C926 C 0.39789 0.74449 0.20275 0.0
N927 N 0.39724 0.72115 0.20326 0.0
C928 C 0.50424 0.75613 0.25224 0.0
C929 C 0.51263 0.77376 0.22204 0.0
C930 C 0.50994 0.73685 0.24685 0.0
N931 N 0.5051 0.77363 0.23974 0.0
C932 C 0.51832 0.75477 0.21604 0.0
C933 C 0.51612 0.73547 0.22839 0.0
H934 H 0.4974 0.75596 0.26606 0.0
H935 H 0.51234 0.78743 0.2123 0.0
C936 C 0.50175 0.8754 0.21441 0.0
N937 N 0.48531 0.84873 0.2124 0.0
C938 C 0.50573 0.89241 0.19978 0.0
C939 C 0.4762 0.85409 0.18131 0.0
C940 C 0.47291 0.8379 0.19622 0.0
C941 C 0.49278 0.88176 0.18295 0.0
H942 H 0.51166 0.88343 0.2274 0.0
H943 H 0.46036 0.81667 0.19488 0.0
O944 O 0.46694 0.78305 0.26737 0.0
O945 O 0.45481 0.82498 0.25278 0.0
O946 O 0.5118 0.83371 0.24634 0.0
O947 O 0.46243 0.78816 0.2257 0.0
H948 H 0.42463 0.76847 0.28894 0.0
H949 H 0.5085 0.79246 0.288 0.0
H950 H 0.42496 0.76507 0.32285 0.0
H951 H 0.50738 0.78876 0.32196 0.0
H952 H 0.42031 0.86315 0.21683 0.0
H953 H 0.48347 0.87379 0.26606 0.0
H954 H 0.42252 0.82417 0.2268 0.0
H955 H 0.4801 0.91184 0.25544 0.0
H956 H 0.45956 0.84898 0.32232 0.0
H957 H 0.54506 0.88026 0.31606 0.0
H958 H 0.36984 0.69684 0.2607 0.0
H959 H 0.34576 0.75389 0.25097 0.0
H960 H 0.53308 0.84679 0.21301 0.0
H961 H 0.54413 0.8262 0.26762 0.0
H962 H 0.57611 0.85058 0.20372 0.0
H963 H 0.58694 0.83027 0.25735 0.0
H964 H 0.45578 0.74012 0.2247 0.0
H965 H 0.42005 0.7858 0.21001 0.0
H966 H 0.41645 0.70046 0.21113 0.0
H967 H 0.38129 0.74525 0.19673 0.0
H968 H 0.50771 0.72211 0.25671 0.0
H969 H 0.52314 0.75439 0.20172 0.0
H970 H 0.51897 0.91359 0.20158 0.0
H971 H 0.46556 0.84499 0.16869 0.0
C972 C 0.20234 0.59948 0.2686 0.0
C973 C 0.18819 0.60743 0.27983 0.0
C974 C 0.22924 0.61745 0.2636 0.0
C975 C 0.2422 0.64385 0.27015 0.0
C976 C 0.22792 0.65199 0.2814 0.0
C977 C 0.20107 0.63367 0.28608 0.0
C978 C 0.24385 0.60819 0.25148 0.0
C979 C 0.24115 0.67991 0.28877 0.0
C980 C 0.31831 0.68435 0.27415 0.0
C981 C 0.32544 0.70153 0.25909 0.0
C982 C 0.29129 0.66506 0.27767 0.0
C983 C 0.27098 0.66286 0.26578 0.0
C984 C 0.27809 0.67977 0.25032 0.0
C985 C 0.30529 0.69901 0.2472 0.0
C986 C 0.28444 0.64753 0.29438 0.0
C987 C 0.25694 0.67784 0.2373 0.0
H988 H 0.19232 0.57923 0.26365 0.0
H989 H 0.19028 0.63975 0.295 0.0
H990 H 0.25184 0.62096 0.23911 0.0
H991 H 0.26136 0.60995 0.25894 0.0
H992 H 0.2306 0.58727 0.24704 0.0
H993 H 0.22702 0.68319 0.29702 0.0
H994 H 0.25857 0.68416 0.29753 0.0
H995 H 0.24905 0.69438 0.27729 0.0
H996 H 0.33383 0.68648 0.28349 0.0
H997 H 0.31082 0.71208 0.23542 0.0
H998 H 0.27238 0.62635 0.29036 0.0
H999 H 0.27192 0.65126 0.30399 0.0
H1000 H 0.30271 0.651 0.30178 0.0
H1001 H 0.24432 0.65725 0.23215 0.0
H1002 H 0.26595 0.69145 0.22538 0.0
H1003 H 0.24335 0.68275 0.24466 0.0
C1004 C 0.54918 0.1847 0.46418 0.0
C1005 C 0.56782 0.17711 0.45997 0.0
C1006 C 0.55453 0.21012 0.45981 0.0
C1007 C 0.5791 0.22836 0.45101 0.0
C1008 C 0.5979 0.22075 0.4466 0.0
C1009 C 0.59204 0.19521 0.45116 0.0
C1010 C 0.53407 0.21759 0.4648 0.0
C1011 C 0.62427 0.23965 0.43715 0.0
C1012 C 0.58566 0.28736 0.42532 0.0
C1013 C 0.60024 0.30798 0.43788 0.0
C1014 C 0.57818 0.26122 0.42954 0.0
C1015 C 0.58545 0.25561 0.44673 0.0
C1016 C 0.59956 0.2762 0.45964 0.0
C1017 C 0.60683 0.30215 0.45505 0.0
C1018 C 0.563 0.23971 0.41548 0.0
C1019 C 0.60764 0.27096 0.47812 0.0
H1020 H 0.53058 0.17088 0.47122 0.0
H1021 H 0.60634 0.1893 0.44769 0.0
H1022 H 0.54313 0.23448 0.47454 0.0
H1023 H 0.52812 0.22418 0.45239 0.0
H1024 H 0.51565 0.20087 0.47119 0.0
H1025 H 0.63653 0.23052 0.43444 0.0
H1026 H 0.62037 0.24634 0.42391 0.0
H1027 H 0.63628 0.25755 0.44575 0.0
H1028 H 0.58023 0.29171 0.41213 0.0
H1029 H 0.61844 0.31805 0.46471 0.0
H1030 H 0.54399 0.22341 0.42151 0.0
H1031 H 0.57526 0.23113 0.41129 0.0
H1032 H 0.55804 0.24719 0.40302 0.0
H1033 H 0.58969 0.25506 0.48543 0.0
H1034 H 0.61743 0.28892 0.48693 0.0
H1035 H 0.62188 0.26393 0.47621 0.0
C1036 C 0.43667 0.57137 0.63288 0.0
C1037 C 0.44347 0.55742 0.62065 0.0
C1038 C 0.41816 0.57878 0.62787 0.0
C1039 C 0.4063 0.57215 0.61021 0.0
C1040 C 0.41381 0.55887 0.5976 0.0
C1041 C 0.43229 0.55164 0.60299 0.0
C1042 C 0.41061 0.59291 0.64168 0.0
C1043 C 0.4018 0.55169 0.57859 0.0
C1044 C 0.33804 0.56522 0.60378 0.0
C1045 C 0.3452 0.58946 0.59549 0.0
C1046 C 0.35775 0.55936 0.60867 0.0
C1047 C 0.38528 0.57818 0.60513 0.0
C1048 C 0.39265 0.60263 0.59669 0.0
C1049 C 0.37253 0.60799 0.592 0.0
C1050 C 0.34911 0.53304 0.61761 0.0
C1051 C 0.4218 0.62317 0.59272 0.0
H1052 H 0.44507 0.57562 0.6466 0.0
H1053 H 0.43778 0.54113 0.59344 0.0
H1054 H 0.41351 0.61148 0.63567 0.0
H1055 H 0.38894 0.58021 0.64531 0.0
H1056 H 0.42269 0.59785 0.65446 0.0
H1057 H 0.41074 0.54248 0.57016 0.0
H1058 H 0.37972 0.53758 0.57959 0.0
H1059 H 0.4049 0.56961 0.57137 0.0
H1060 H 0.31695 0.55072 0.60635 0.0
H1061 H 0.37827 0.62696 0.58589 0.0
H1062 H 0.35893 0.5363 0.63121 0.0
H1063 H 0.35571 0.52184 0.6091 0.0
H1064 H 0.32691 0.52066 0.61954 0.0
H1065 H 0.43347 0.62934 0.60569 0.0
H1066 H 0.42413 0.64106 0.58587 0.0
H1067 H 0.43084 0.61458 0.5838 0.0
C1068 C 0.89848 0.40861 0.7923 0.0
C1069 C 0.9086 0.43416 0.78519 0.0
C1070 C 0.87337 0.38737 0.78678 0.0
C1071 C 0.85808 0.39177 0.77374 0.0
C1072 C 0.86833 0.41745 0.76631 0.0
C1073 C 0.89346 0.43844 0.77223 0.0
C1074 C 0.86294 0.36036 0.79522 0.0
C1075 C 0.85262 0.42279 0.75227 0.0
C1076 C 0.80153 0.33094 0.74996 0.0
C1077 C 0.77903 0.32664 0.76006 0.0
C1078 C 0.82741 0.35242 0.75401 0.0
C1079 C 0.83077 0.36969 0.76863 0.0
C1080 C 0.8081 0.36532 0.7789 0.0
C1081 C 0.7825 0.34389 0.77446 0.0
C1082 C 0.85116 0.3566 0.74272 0.0
C1083 C 0.81091 0.38307 0.79475 0.0
H1084 H 0.90999 0.40535 0.80253 0.0
H1085 H 0.90137 0.45817 0.76666 0.0
H1086 H 0.84402 0.35413 0.8029 0.0
H1087 H 0.85807 0.34543 0.78432 0.0
H1088 H 0.87772 0.36012 0.80477 0.0
H1089 H 0.864 0.44356 0.74719 0.0
H1090 H 0.84747 0.40921 0.74042 0.0
H1091 H 0.83335 0.41886 0.75838 0.0
H1092 H 0.79881 0.31772 0.73874 0.0
H1093 H 0.76516 0.34037 0.78245 0.0
H1094 H 0.86577 0.35509 0.75163 0.0
H1095 H 0.86182 0.37682 0.73669 0.0
H1096 H 0.84501 0.3419 0.73145 0.0
H1097 H 0.82418 0.38243 0.80542 0.0
H1098 H 0.79117 0.3772 0.80114 0.0
H1099 H 0.82055 0.40392 0.79001 0.0
C1100 C 0.43002 0.84245 0.95343 0.0
C1101 C 0.44047 0.86466 0.94193 0.0
C1102 C 0.42771 0.81888 0.9473 0.0
C1103 C 0.43582 0.81753 0.92919 0.0
C1104 C 0.44499 0.83943 0.9172 0.0
C1105 C 0.44738 0.86287 0.92377 0.0
C1106 C 0.41799 0.79595 0.96053 0.0
C1107 C 0.45338 0.83852 0.89772 0.0
C1108 C 0.45926 0.76902 0.92275 0.0
C1109 C 0.43575 0.74669 0.91623 0.0
C1110 C 0.45982 0.79259 0.92646 0.0
C1111 C 0.4364 0.7938 0.92334 0.0
C1112 C 0.41307 0.7717 0.91585 0.0
C1113 C 0.41297 0.7483 0.91249 0.0
C1114 C 0.48504 0.81574 0.93456 0.0
C1115 C 0.38791 0.77245 0.91206 0.0
H1116 H 0.42503 0.84397 0.96756 0.0
H1117 H 0.45533 0.88007 0.91487 0.0
H1118 H 0.40116 0.77759 0.95439 0.0
H1119 H 0.43458 0.79232 0.96335 0.0
H1120 H 0.41103 0.79969 0.97377 0.0
H1121 H 0.45728 0.85612 0.88962 0.0
H1122 H 0.47204 0.83769 0.8978 0.0
H1123 H 0.43756 0.82037 0.89071 0.0
H1124 H 0.47679 0.76766 0.92574 0.0
H1125 H 0.39489 0.73103 0.90724 0.0
H1126 H 0.48074 0.81966 0.94867 0.0
H1127 H 0.49156 0.83392 0.92634 0.0
H1128 H 0.50195 0.81208 0.93518 0.0
H1129 H 0.37897 0.7737 0.92521 0.0
H1130 H 0.3725 0.75459 0.90453 0.0
H1131 H 0.39292 0.79033 0.90391 0.0
C1132 C 0.59309 0.41102 0.12833 0.0
C1133 C 0.58447 0.42358 0.11622 0.0
C1134 C 0.61326 0.40593 0.12316 0.0
C1135 C 0.62517 0.41381 0.10554 0.0
C1136 C 0.61555 0.42519 0.09292 0.0
C1137 C 0.59519 0.4298 0.09839 0.0
C1138 C 0.62281 0.39345 0.1369 0.0
C1139 C 0.62775 0.43383 0.074 0.0
C1140 C 0.69778 0.43174 0.10061 0.0
C1141 C 0.69473 0.40929 0.09177 0.0
C1142 C 0.67525 0.43347 0.10509 0.0
C1143 C 0.64908 0.41209 0.1008 0.0
C1144 C 0.64588 0.38933 0.09192 0.0
C1145 C 0.66879 0.38826 0.08742 0.0
C1146 C 0.67946 0.4582 0.11439 0.0
C1147 C 0.61827 0.36605 0.08733 0.0
H1148 H 0.58508 0.4064 0.14218 0.0
H1149 H 0.58827 0.43913 0.08889 0.0
H1150 H 0.62364 0.37684 0.13051 0.0
H1151 H 0.64354 0.40834 0.14142 0.0
H1152 H 0.60955 0.38588 0.1492 0.0
H1153 H 0.61659 0.44048 0.06538 0.0
H1154 H 0.64898 0.45044 0.07521 0.0
H1155 H 0.62802 0.41738 0.06687 0.0
H1156 H 0.71785 0.44807 0.10386 0.0
H1157 H 0.66641 0.37071 0.08082 0.0
H1158 H 0.66901 0.45304 0.12787 0.0
H1159 H 0.67055 0.46737 0.10594 0.0
H1160 H 0.70115 0.47312 0.11662 0.0
H1161 H 0.60613 0.35805 0.10007 0.0
H1162 H 0.61928 0.34983 0.08039 0.0
H1163 H 0.60744 0.37254 0.07828 0.0
C1164 C 0.4329 0.89592 0.51139 0.0
C1165 C 0.45784 0.91267 0.51979 0.0
C1166 C 0.41507 0.87049 0.51834 0.0
C1167 C 0.42231 0.86169 0.53415 0.0
C1168 C 0.44782 0.87823 0.5424 0.0
C1169 C 0.46539 0.90355 0.53504 0.0
C1170 C 0.38821 0.85331 0.50901 0.0
C1171 C 0.45615 0.86953 0.55932 0.0
C1172 C 0.36343 0.80856 0.5618 0.0
C1173 C 0.36256 0.78553 0.55593 0.0
C1174 C 0.38334 0.83359 0.55525 0.0
C1175 C 0.40264 0.83556 0.54239 0.0
C1176 C 0.40215 0.81242 0.53666 0.0
C1177 C 0.38215 0.78767 0.54355 0.0
C1178 C 0.38338 0.85787 0.5618 0.0
C1179 C 0.42222 0.81372 0.52283 0.0
H1180 H 0.42721 0.90288 0.49946 0.0
H1181 H 0.4846 0.91659 0.54162 0.0
H1182 H 0.38544 0.83378 0.50546 0.0
H1183 H 0.37163 0.84958 0.51851 0.0
H1184 H 0.38628 0.86257 0.49629 0.0
H1185 H 0.4772 0.88414 0.56349 0.0
H1186 H 0.44246 0.86682 0.57088 0.0
H1187 H 0.45435 0.85013 0.55689 0.0
H1188 H 0.34849 0.80697 0.57152 0.0
H1189 H 0.38134 0.76987 0.53882 0.0
H1190 H 0.3793 0.86729 0.55008 0.0
H1191 H 0.40351 0.87267 0.56731 0.0
H1192 H 0.36798 0.8531 0.57261 0.0
H1193 H 0.4194 0.82104 0.5095 0.0
H1194 H 0.42004 0.79409 0.5206 0.0
H1195 H 0.44311 0.82793 0.52743 0.0
C1196 C 0.56473 0.40991 0.70322 0.0
C1197 C 0.55039 0.40512 0.68682 0.0
C1198 C 0.57064 0.39134 0.71012 0.0
C1199 C 0.56246 0.36778 0.70014 0.0
C1200 C 0.54809 0.36296 0.6835 0.0
C1201 C 0.54198 0.38163 0.67712 0.0
C1202 C 0.58561 0.39692 0.72807 0.0
C1203 C 0.53953 0.3383 0.67232 0.0
C1204 C 0.60137 0.33353 0.70872 0.0
C1205 C 0.5834 0.31228 0.71991 0.0
C1206 C 0.59463 0.35156 0.70199 0.0
C1207 C 0.56955 0.34848 0.70689 0.0
C1208 C 0.55137 0.32708 0.71828 0.0
C1209 C 0.55842 0.30901 0.7245 0.0
C1210 C 0.61429 0.37382 0.68958 0.0
C1211 C 0.52466 0.32349 0.72403 0.0
H1212 H 0.57096 0.42802 0.71076 0.0
H1213 H 0.53103 0.37812 0.66437 0.0
H1214 H 0.57379 0.3804 0.73785 0.0
H1215 H 0.60517 0.39822 0.72582 0.0
H1216 H 0.58959 0.4157 0.73447 0.0
H1217 H 0.52849 0.33757 0.65968 0.0
H1218 H 0.55752 0.33745 0.66833 0.0
H1219 H 0.52636 0.32037 0.68066 0.0
H1220 H 0.62058 0.33581 0.70505 0.0
H1221 H 0.54465 0.29259 0.73324 0.0
H1222 H 0.62057 0.39323 0.69599 0.0
H1223 H 0.60441 0.37299 0.67636 0.0
H1224 H 0.63261 0.37296 0.68669 0.0
H1225 H 0.52806 0.34143 0.73138 0.0
H1226 H 0.51298 0.30599 0.73311 0.0
H1227 H 0.51232 0.32106 0.71174 0.0
C1228 C 0.1418 0.53026 0.89531 0.0
C1229 C 0.14511 0.54822 0.88143 0.0
C1230 C 0.16409 0.53045 0.90288 0.0
C1231 C 0.19028 0.54929 0.89656 0.0
C1232 C 0.19385 0.56826 0.88318 0.0
C1233 C 0.1712 0.56741 0.8757 0.0
C1234 C 0.15955 0.50991 0.9171 0.0
C1235 C 0.22156 0.58886 0.87625 0.0
C1236 C 0.25359 0.56653 0.92266 0.0
C1237 C 0.26386 0.55404 0.91191 0.0
C1238 C 0.22888 0.5641 0.91841 0.0
C1239 C 0.214 0.54855 0.90318 0.0
C1240 C 0.22323 0.53423 0.89317 0.0
C1241 C 0.24815 0.53723 0.89762 0.0
C1242 C 0.21964 0.5796 0.92943 0.0
C1243 C 0.20768 0.51714 0.87699 0.0
H1244 H 0.1217 0.51566 0.90003 0.0
H1245 H 0.17391 0.58114 0.86484 0.0
H1246 H 0.16573 0.49642 0.91142 0.0
H1247 H 0.17218 0.51957 0.92937 0.0
H1248 H 0.1381 0.49784 0.92146 0.0
H1249 H 0.22097 0.60323 0.8667 0.0
H1250 H 0.23493 0.59998 0.88793 0.0
H1251 H 0.23075 0.57898 0.86896 0.0
H1252 H 0.26546 0.57916 0.93395 0.0
H1253 H 0.25603 0.52766 0.88917 0.0
H1254 H 0.19809 0.56684 0.93332 0.0
H1255 H 0.2215 0.59607 0.92093 0.0
H1256 H 0.23175 0.58814 0.9421 0.0
H1257 H 0.18615 0.5037 0.88068 0.0
H1258 H 0.21597 0.505 0.87201 0.0
H1259 H 0.20847 0.52993 0.86554 0.0
C1260 C 0.61284 0.11512 0.0278 0.0
C1261 C 0.58621 0.10726 0.0325 0.0
C1262 C 0.63464 0.13964 0.03337 0.0
C1263 C 0.62972 0.15713 0.04348 0.0
C1264 C 0.603 0.14941 0.04838 0.0
C1265 C 0.58156 0.12444 0.04298 0.0
C1266 C 0.6629 0.14706 0.02805 0.0
C1267 C 0.597 0.16778 0.05892 0.0
C1268 C 0.68846 0.21455 0.06841 0.0
C1269 C 0.69689 0.23514 0.05558 0.0
C1270 C 0.66656 0.189 0.06471 0.0
C1271 C 0.65249 0.1841 0.04793 0.0
C1272 C 0.66072 0.2048 0.035 0.0
C1273 C 0.683 0.22993 0.03887 0.0
C1274 C 0.65859 0.16722 0.07866 0.0
C1275 C 0.64606 0.20039 0.01701 0.0
H1276 H 0.61672 0.10236 0.01935 0.0
H1277 H 0.56114 0.11845 0.04691 0.0
H1278 H 0.67154 0.16397 0.0183 0.0
H1279 H 0.6761 0.15355 0.04033 0.0
H1280 H 0.66344 0.13035 0.02151 0.0
H1281 H 0.5752 0.15848 0.06214 0.0
H1282 H 0.60852 0.17392 0.07195 0.0
H1283 H 0.60357 0.18605 0.05077 0.0
H1284 H 0.69877 0.21842 0.08146 0.0
H1285 H 0.68966 0.2455 0.02869 0.0
H1286 H 0.65983 0.15076 0.07239 0.0
H1287 H 0.63737 0.15899 0.08302 0.0
H1288 H 0.67166 0.17427 0.09102 0.0
H1289 H 0.64779 0.18566 0.00864 0.0
H1290 H 0.65415 0.21895 0.00889 0.0
H1291 H 0.62427 0.19221 0.01958 0.0
C1292 C 0.49531 0.59431 0.20418 0.0
C1293 C 0.514 0.59609 0.19114 0.0
C1294 C 0.49591 0.6171 0.2104 0.0
C1295 C 0.5158 0.64228 0.20353 0.0
C1296 C 0.53473 0.64422 0.1904 0.0
C1297 C 0.53349 0.62111 0.18428 0.0
C1298 C 0.47524 0.61426 0.22431 0.0
C1299 C 0.55624 0.67072 0.18275 0.0
C1300 C 0.50253 0.69864 0.20606 0.0
C1301 C 0.51728 0.71241 0.22166 0.0
C1302 C 0.50186 0.67578 0.20003 0.0
C1303 C 0.51648 0.66657 0.20977 0.0
C1304 C 0.53169 0.68055 0.22542 0.0
C1305 C 0.53177 0.70325 0.23126 0.0
C1306 C 0.48517 0.66126 0.1834 0.0
C1307 C 0.54777 0.67146 0.236 0.0
H1308 H 0.48041 0.57511 0.20972 0.0
H1309 H 0.5477 0.62264 0.17395 0.0
H1310 H 0.48549 0.62563 0.23689 0.0
H1311 H 0.46349 0.62266 0.2187 0.0
H1312 H 0.461 0.59326 0.22821 0.0
H1313 H 0.56995 0.66888 0.17303 0.0
H1314 H 0.54672 0.68029 0.1755 0.0
H1315 H 0.56846 0.6841 0.1941 0.0
H1316 H 0.49087 0.70538 0.19882 0.0
H1317 H 0.54322 0.71391 0.2433 0.0
H1318 H 0.46952 0.64067 0.18724 0.0
H1319 H 0.49812 0.65995 0.17275 0.0
H1320 H 0.47507 0.67111 0.17733 0.0
H1321 H 0.53415 0.65115 0.24141 0.0
H1322 H 0.55888 0.68479 0.24768 0.0
H1323 H 0.56249 0.67057 0.22676 0.0
C1324 C 0.93159 0.51061 0.37275 0.0
C1325 C 0.93092 0.49341 0.3592 0.0
C1326 C 0.90773 0.5076 0.37992 0.0
C1327 C 0.88258 0.48679 0.37344 0.0
C1328 C 0.88173 0.46877 0.36023 0.0
C1329 C 0.90595 0.47231 0.35324 0.0
C1330 C 0.90945 0.52715 0.39403 0.0
C1331 C 0.85525 0.44627 0.35306 0.0
C1332 C 0.8198 0.46761 0.40147 0.0
C1333 C 0.80903 0.48066 0.39193 0.0
C1334 C 0.8437 0.46935 0.39559 0.0
C1335 C 0.85723 0.48464 0.37987 0.0
C1336 C 0.84666 0.4981 0.3703 0.0
C1337 C 0.82265 0.49589 0.37641 0.0
C1338 C 0.85441 0.45474 0.40614 0.0
C1339 C 0.8606 0.51468 0.3535 0.0
H1340 H 0.95086 0.52668 0.37762 0.0
H1341 H 0.90533 0.4591 0.34267 0.0
H1342 H 0.90064 0.53843 0.38836 0.0
H1343 H 0.89754 0.51651 0.40641 0.0
H1344 H 0.93055 0.54146 0.39825 0.0
H1345 H 0.85804 0.43307 0.34366 0.0
H1346 H 0.84211 0.43424 0.36464 0.0
H1347 H 0.84448 0.45437 0.34555 0.0
H1348 H 0.80957 0.45608 0.4136 0.0
H1349 H 0.81424 0.50567 0.36879 0.0
H1350 H 0.87501 0.46896 0.41124 0.0
H1351 H 0.85595 0.44061 0.39694 0.0
H1352 H 0.84138 0.44358 0.41802 0.0
H1353 H 0.88152 0.53046 0.35697 0.0
H1354 H 0.84991 0.52414 0.34775 0.0
H1355 H 0.86194 0.50215 0.34272 0.0
C1356 C 0.10697 0.54578 0.4129 0.0
C1357 C 0.08103 0.54172 0.41155 0.0
C1358 C 0.12153 0.55456 0.4293 0.0
C1359 C 0.10961 0.55893 0.44481 0.0
C1360 C 0.08313 0.55431 0.44361 0.0
C1361 C 0.06924 0.54609 0.42684 0.0
C1362 C 0.14995 0.55991 0.42984 0.0
C1363 C 0.06959 0.55822 0.45998 0.0
C1364 C 0.14239 0.56122 0.49035 0.0
C1365 C 0.15872 0.58864 0.49341 0.0
C1366 C 0.12545 0.55124 0.47498 0.0
C1367 C 0.12532 0.56908 0.46208 0.0
C1368 C 0.14144 0.59671 0.46513 0.0
C1369 C 0.15761 0.60613 0.48087 0.0
C1370 C 0.10822 0.52161 0.4723 0.0
C1371 C 0.14217 0.61638 0.45152 0.0
H1372 H 0.11617 0.5428 0.40089 0.0
H1373 H 0.04918 0.54297 0.42567 0.0
H1374 H 0.16434 0.58139 0.43209 0.0
H1375 H 0.15231 0.54912 0.44144 0.0
H1376 H 0.15559 0.55396 0.41694 0.0
H1377 H 0.04844 0.55241 0.45704 0.0
H1378 H 0.06964 0.54636 0.47178 0.0
H1379 H 0.08098 0.57933 0.46423 0.0
H1380 H 0.14326 0.54744 0.49972 0.0
H1381 H 0.16951 0.6273 0.48327 0.0
H1382 H 0.11537 0.51573 0.46011 0.0
H1383 H 0.08698 0.51569 0.46969 0.0
H1384 H 0.10876 0.51042 0.48439 0.0
H1385 H 0.14954 0.61391 0.43804 0.0
H1386 H 0.15546 0.63723 0.45607 0.0
H1387 H 0.12157 0.61264 0.44937 0.0
C1388 C 0.5724 0.06723 0.58888 0.0
C1389 C 0.54543 0.04816 0.58504 0.0
C1390 C 0.58011 0.07883 0.60628 0.0
C1391 C 0.56038 0.07108 0.62022 0.0
C1392 C 0.53339 0.05073 0.61676 0.0
C1393 C 0.52616 0.03962 0.59912 0.0
C1394 C 0.60905 0.10069 0.60933 0.0
C1395 C 0.51187 0.0417 0.63136 0.0
C1396 C 0.58731 0.09661 0.6681 0.0
C1397 C 0.58591 0.11962 0.66875 0.0
C1398 C 0.57808 0.07992 0.65266 0.0
C1399 C 0.56748 0.08658 0.63753 0.0
C1400 C 0.56529 0.10933 0.63836 0.0
C1401 C 0.5743 0.1254 0.654 0.0
C1402 C 0.58046 0.05566 0.65231 0.0
C1403 C 0.5542 0.11722 0.62246 0.0
H1404 H 0.58728 0.07424 0.57796 0.0
H1405 H 0.50532 0.02478 0.59619 0.0
H1406 H 0.61006 0.11987 0.61094 0.0
H1407 H 0.61699 0.0971 0.62212 0.0
H1408 H 0.62237 0.10253 0.59773 0.0
H1409 H 0.49291 0.02332 0.62734 0.0
H1410 H 0.51907 0.03809 0.64451 0.0
H1411 H 0.50731 0.0575 0.63385 0.0
H1412 H 0.59633 0.09204 0.6794 0.0
H1413 H 0.57247 0.14274 0.65459 0.0
H1414 H 0.59572 0.05837 0.64194 0.0
H1415 H 0.56099 0.03796 0.64821 0.0
H1416 H 0.58652 0.05175 0.66584 0.0
H1417 H 0.56722 0.12151 0.6102 0.0
H1418 H 0.55304 0.13502 0.62556 0.0
H1419 H 0.53374 0.10066 0.61884 0.0
C1420 C 0.49887 0.58232 0.73257 0.0
C1421 C 0.48083 0.55692 0.72559 0.0
C1422 C 0.49471 0.59009 0.74983 0.0
C1423 C 0.47153 0.57233 0.76011 0.0
C1424 C 0.45245 0.54729 0.75274 0.0
C1425 C 0.45748 0.53975 0.73567 0.0
C1426 C 0.51567 0.61684 0.75737 0.0
C1427 C 0.42717 0.52804 0.76316 0.0
C1428 C 0.47115 0.57604 0.81202 0.0
C1429 C 0.45695 0.58902 0.81493 0.0
C1430 C 0.47691 0.57137 0.79421 0.0
C1431 C 0.46773 0.57934 0.77895 0.0
C1432 C 0.45391 0.59292 0.78174 0.0
C1433 C 0.44904 0.59794 0.79969 0.0
C1434 C 0.49223 0.55731 0.79172 0.0
C1435 C 0.4435 0.60139 0.7658 0.0
H1436 H 0.51667 0.59595 0.72473 0.0
H1437 H 0.44358 0.51996 0.73061 0.0
H1438 H 0.50617 0.62818 0.76157 0.0
H1439 H 0.52495 0.61407 0.76982 0.0
H1440 H 0.53191 0.62883 0.74727 0.0
H1441 H 0.41324 0.51041 0.75482 0.0
H1442 H 0.43261 0.52119 0.77569 0.0
H1443 H 0.41631 0.53797 0.76765 0.0
H1444 H 0.47713 0.56882 0.82364 0.0
H1445 H 0.43872 0.60863 0.80175 0.0
H1446 H 0.5096 0.56878 0.78231 0.0
H1447 H 0.47892 0.53762 0.78536 0.0
H1448 H 0.49986 0.55437 0.80493 0.0
H1449 H 0.46019 0.61402 0.75619 0.0
H1450 H 0.43387 0.61252 0.7703 0.0
H1451 H 0.42846 0.58365 0.75802 0.0
C1452 C 0.94145 0.49566 0.90985 0.0
C1453 C 0.92958 0.47786 0.89519 0.0
C1454 C 0.93141 0.48847 0.92776 0.0
C1455 C 0.90907 0.46274 0.93116 0.0
C1456 C 0.8966 0.44483 0.9164 0.0
C1457 C 0.90703 0.45261 0.89856 0.0
C1458 C 0.9453 0.50813 0.94313 0.0
C1459 C 0.87272 0.41722 0.91952 0.0
C1460 C 0.90134 0.4346 0.97917 0.0
C1461 C 0.8812 0.43824 0.98661 0.0
C1462 C 0.91057 0.44246 0.96112 0.0
C1463 C 0.8994 0.45428 0.95028 0.0
C1464 C 0.87924 0.45823 0.95775 0.0
C1465 C 0.87034 0.45011 0.97581 0.0
C1466 C 0.93221 0.43804 0.95364 0.0
C1467 C 0.86698 0.4709 0.94662 0.0
H1468 H 0.9593 0.51498 0.90746 0.0
H1469 H 0.89775 0.43882 0.88728 0.0
H1470 H 0.93036 0.50992 0.95152 0.0
H1471 H 0.95544 0.50101 0.95233 0.0
H1472 H 0.96066 0.52811 0.93794 0.0
H1473 H 0.86465 0.40609 0.90649 0.0
H1474 H 0.87868 0.40597 0.92852 0.0
H1475 H 0.85634 0.41818 0.92666 0.0
H1476 H 0.90999 0.42567 0.9875 0.0
H1477 H 0.85443 0.45257 0.98137 0.0
H1478 H 0.9501 0.45726 0.94948 0.0
H1479 H 0.92474 0.4254 0.94121 0.0
H1480 H 0.93866 0.42843 0.96382 0.0
H1481 H 0.88299 0.49096 0.94203 0.0
H1482 H 0.85162 0.47273 0.9545 0.0
H1483 H 0.85735 0.459 0.93411 0.0
C1484 C 0.52393 0.97455 0.09466 0.0
C1485 C 0.4995 0.9667 0.08579 0.0
C1486 C 0.52427 0.96417 0.11191 0.0
C1487 C 0.4996 0.94519 0.12026 0.0
C1488 C 0.47485 0.93833 0.11181 0.0
C1489 C 0.47511 0.94931 0.09468 0.0
C1490 C 0.55104 0.97233 0.12066 0.0
C1491 C 0.44812 0.918 0.12019 0.0
C1492 C 0.49871 0.89157 0.1493 0.0
C1493 C 0.49635 0.89915 0.16711 0.0
C1494 C 0.50014 0.90662 0.13401 0.0
C1495 C 0.49962 0.93011 0.13658 0.0
C1496 C 0.4982 0.93844 0.15453 0.0
C1497 C 0.49644 0.92277 0.16962 0.0
C1498 C 0.50162 0.89703 0.11506 0.0
C1499 C 0.49791 0.96353 0.15777 0.0
H1500 H 0.54279 0.98821 0.08783 0.0
H1501 H 0.45621 0.94305 0.08774 0.0
H1502 H 0.5509 0.97697 0.1354 0.0
H1503 H 0.55468 0.95569 0.11986 0.0
H1504 H 0.56806 0.98988 0.11377 0.0
H1505 H 0.43079 0.91692 0.1129 0.0
H1506 H 0.44588 0.89816 0.11964 0.0
H1507 H 0.44725 0.92261 0.13484 0.0
H1508 H 0.49926 0.87368 0.14728 0.0
H1509 H 0.49441 0.92866 0.18333 0.0
H1510 H 0.51992 0.91247 0.10779 0.0
H1511 H 0.4839 0.89335 0.10687 0.0
H1512 H 0.50211 0.87848 0.11546 0.0
H1513 H 0.51519 0.98047 0.15063 0.0
H1514 H 0.49888 0.96834 0.1726 0.0
H1515 H 0.47922 0.96137 0.15197 0.0
C1516 C 0.57584 0.5278 0.25917 0.0
C1517 C 0.55363 0.50552 0.25125 0.0
C1518 C 0.58622 0.52589 0.27607 0.0
C1519 C 0.57408 0.5011 0.28515 0.0
C1520 C 0.55057 0.47899 0.27782 0.0
C1521 C 0.54063 0.48147 0.26092 0.0
C1522 C 0.61116 0.54996 0.28359 0.0
C1523 C 0.53702 0.45223 0.28714 0.0
C1524 C 0.61811 0.48455 0.31332 0.0
C1525 C 0.61101 0.48704 0.33126 0.0
C1526 C 0.60659 0.48963 0.2982 0.0
C1527 C 0.58756 0.49742 0.30113 0.0
C1528 C 0.58073 0.50053 0.31921 0.0
C1529 C 0.59253 0.49526 0.33409 0.0
C1530 C 0.61431 0.48601 0.27908 0.0
C1531 C 0.56061 0.50892 0.32281 0.0
H1532 H 0.58571 0.5465 0.2518 0.0
H1533 H 0.52366 0.46409 0.25476 0.0
H1534 H 0.60861 0.55247 0.2984 0.0
H1535 H 0.62861 0.54722 0.28224 0.0
H1536 H 0.616 0.5684 0.27621 0.0
H1537 H 0.51729 0.43794 0.2808 0.0
H1538 H 0.55026 0.4439 0.2862 0.0
H1539 H 0.53375 0.45417 0.30192 0.0
H1540 H 0.63215 0.47792 0.31109 0.0
H1541 H 0.58729 0.49756 0.34797 0.0
H1542 H 0.62184 0.50448 0.27099 0.0
H1543 H 0.5963 0.47008 0.2719 0.0
H1544 H 0.63011 0.48076 0.27918 0.0
H1545 H 0.56671 0.52768 0.31545 0.0
H1546 H 0.55859 0.51179 0.33767 0.0
H1547 H 0.54053 0.49366 0.31747 0.0
C1548 C 0.53144 0.94064 0.41913 0.0
C1549 C 0.51614 0.95279 0.41971 0.0
C1550 C 0.53031 0.92556 0.4039 0.0
C1551 C 0.51357 0.92269 0.38888 0.0
C1552 C 0.4978 0.9346 0.3895 0.0
C1553 C 0.49925 0.94948 0.40492 0.0
C1554 C 0.54725 0.91297 0.40377 0.0
C1555 C 0.47976 0.93204 0.37372 0.0
C1556 C 0.52782 0.90679 0.34125 0.0
C1557 C 0.50763 0.87999 0.33954 0.0
C1558 C 0.53054 0.92076 0.35748 0.0
C1559 C 0.51272 0.90755 0.37234 0.0
C1560 C 0.49304 0.88022 0.37096 0.0
C1561 C 0.4907 0.86678 0.35455 0.0
C1562 C 0.55176 0.94991 0.35845 0.0
C1563 C 0.47384 0.8654 0.38657 0.0
H1564 H 0.54433 0.94297 0.43062 0.0
H1565 H 0.4877 0.95916 0.40518 0.0
H1566 H 0.53423 0.89128 0.4016 0.0
H1567 H 0.56182 0.92104 0.3922 0.0
H1568 H 0.55863 0.9165 0.41675 0.0
H1569 H 0.46844 0.94213 0.3765 0.0
H1570 H 0.49203 0.94072 0.36111 0.0
H1571 H 0.46507 0.91081 0.37087 0.0
H1572 H 0.54079 0.91711 0.32963 0.0
H1573 H 0.47532 0.84595 0.35336 0.0
H1574 H 0.56436 0.95411 0.37088 0.0
H1575 H 0.54187 0.96166 0.35955 0.0
H1576 H 0.56513 0.95682 0.34619 0.0
H1577 H 0.48521 0.86827 0.39944 0.0
H1578 H 0.46102 0.8438 0.38379 0.0
H1579 H 0.4605 0.87339 0.38891 0.0
C1580 C 0.55715 0.50016 0.55705 0.0
C1581 C 0.55229 0.52046 0.5613 0.0
C1582 C 0.57245 0.50194 0.54168 0.0
C1583 C 0.58313 0.52457 0.53022 0.0
C1584 C 0.57799 0.545 0.53425 0.0
C1585 C 0.56274 0.5428 0.54989 0.0
C1586 C 0.57768 0.47981 0.53798 0.0
C1587 C 0.58876 0.5692 0.52214 0.0
C1588 C 0.64203 0.53396 0.50175 0.0
C1589 C 0.62889 0.51998 0.48577 0.0
C1590 C 0.62766 0.53715 0.51599 0.0
C1591 C 0.59958 0.52642 0.51406 0.0
C1592 C 0.58662 0.51409 0.49744 0.0
C1593 C 0.60134 0.51077 0.48359 0.0
C1594 C 0.64216 0.55039 0.53357 0.0
C1595 C 0.55674 0.50257 0.49481 0.0
H1596 H 0.54968 0.48319 0.56613 0.0
H1597 H 0.55906 0.55853 0.55325 0.0
H1598 H 0.57136 0.47212 0.52384 0.0
H1599 H 0.59961 0.48751 0.53904 0.0
H1600 H 0.56681 0.46303 0.54774 0.0
H1601 H 0.58227 0.58291 0.52688 0.0
H1602 H 0.61112 0.58008 0.52191 0.0
H1603 H 0.5818 0.56315 0.50782 0.0
H1604 H 0.6634 0.54163 0.50341 0.0
H1605 H 0.59076 0.49958 0.47147 0.0
H1606 H 0.63561 0.53527 0.54459 0.0
H1607 H 0.63696 0.56513 0.53808 0.0
H1608 H 0.66441 0.56049 0.53208 0.0
H1609 H 0.54531 0.48431 0.50322 0.0
H1610 H 0.55062 0.49739 0.48025 0.0
H1611 H 0.55083 0.51673 0.49949 0.0
C1612 C 0.0594 0.55408 0.72095 0.0
C1613 C 0.07146 0.55158 0.73683 0.0
C1614 C 0.0744 0.56435 0.70469 0.0
C1615 C 0.10215 0.57276 0.70453 0.0
C1616 C 0.11447 0.57077 0.7207 0.0
C1617 C 0.09892 0.56004 0.73661 0.0
C1618 C 0.06052 0.56582 0.68763 0.0
C1619 C 0.14409 0.57995 0.72122 0.0
C1620 C 0.13846 0.57539 0.66057 0.0
C1621 C 0.15283 0.60263 0.6565 0.0
C1622 C 0.12105 0.56531 0.67573 0.0
C1623 C 0.11829 0.58291 0.68738 0.0
C1624 C 0.13232 0.61034 0.68325 0.0
C1625 C 0.14924 0.61984 0.66778 0.0
C1626 C 0.10624 0.53589 0.67958 0.0
C1627 C 0.13007 0.62975 0.69548 0.0
H1628 H 0.03816 0.54758 0.7212 0.0
H1629 H 0.10833 0.55856 0.74904 0.0
H1630 H 0.07085 0.58649 0.68245 0.0
H1631 H 0.06176 0.55347 0.67665 0.0
H1632 H 0.03895 0.55888 0.69013 0.0
H1633 H 0.15072 0.5778 0.73507 0.0
H1634 H 0.14838 0.56832 0.71132 0.0
H1635 H 0.15638 0.60106 0.71701 0.0
H1636 H 0.14137 0.5619 0.6522 0.0
H1637 H 0.15983 0.64083 0.66461 0.0
H1638 H 0.0844 0.52804 0.68154 0.0
H1639 H 0.11388 0.53218 0.69249 0.0
H1640 H 0.10876 0.52463 0.66835 0.0
H1641 H 0.10861 0.62365 0.69724 0.0
H1642 H 0.14136 0.65028 0.68994 0.0
H1643 H 0.13807 0.62977 0.70931 0.0
C1644 C 0.56356 0.09401 0.91775 0.0
C1645 C 0.54424 0.09491 0.92886 0.0
C1646 C 0.572 0.10788 0.9011 0.0
C1647 C 0.56036 0.12251 0.89513 0.0
C1648 C 0.54136 0.12409 0.90639 0.0
C1649 C 0.53374 0.1105 0.92322 0.0
C1650 C 0.59266 0.10606 0.88959 0.0
C1651 C 0.52831 0.13927 0.90034 0.0
C1652 C 0.59589 0.17237 0.85675 0.0
C1653 C 0.58219 0.15726 0.84129 0.0
C1654 C 0.5888 0.16145 0.87443 0.0
C1655 C 0.56717 0.13498 0.87665 0.0
C1656 C 0.5528 0.11988 0.86109 0.0
C1657 C 0.5607 0.13114 0.84354 0.0
C1658 C 0.60495 0.17792 0.89066 0.0
C1659 C 0.52931 0.09173 0.86295 0.0
H1660 H 0.57142 0.08161 0.92166 0.0
H1661 H 0.51912 0.11167 0.9318 0.0
H1662 H 0.5831 0.09492 0.87681 0.0
H1663 H 0.60917 0.12617 0.88552 0.0
H1664 H 0.60155 0.09594 0.89696 0.0
H1665 H 0.51478 0.13951 0.91104 0.0
H1666 H 0.54394 0.16001 0.89689 0.0
H1667 H 0.51634 0.13013 0.88773 0.0
H1668 H 0.61267 0.19253 0.85493 0.0
H1669 H 0.55 0.1196 0.83155 0.0
H1670 H 0.61512 0.16855 0.89733 0.0
H1671 H 0.59143 0.17875 0.90106 0.0
H1672 H 0.62051 0.1985 0.88666 0.0
H1673 H 0.53639 0.07896 0.86861 0.0
H1674 H 0.51923 0.08332 0.84961 0.0
H1675 H 0.51421 0.09094 0.87271 0.0
C1676 C 0.45616 0.51163 0.07406 0.0
C1677 C 0.46942 0.53144 0.08739 0.0
C1678 C 0.45148 0.51781 0.05643 0.0
C1679 C 0.4607 0.5445 0.05193 0.0
C1680 C 0.47373 0.56454 0.06537 0.0
C1681 C 0.47775 0.55773 0.083 0.0
C1682 C 0.43722 0.49587 0.0425 0.0
C1683 C 0.48399 0.59327 0.061 0.0
C1684 C 0.47399 0.56565 0.00197 0.0
C1685 C 0.45176 0.56797 0.99798 0.0
C1686 C 0.47708 0.55778 0.01951 0.0
C1687 C 0.45712 0.55161 0.03309 0.0
C1688 C 0.43415 0.55304 0.02883 0.0
C1689 C 0.43189 0.5615 0.01134 0.0
C1690 C 0.50202 0.55681 0.02368 0.0
C1691 C 0.41216 0.54599 0.04281 0.0
H1692 H 0.4502 0.49134 0.0772 0.0
H1693 H 0.48779 0.57307 0.09329 0.0
H1694 H 0.41972 0.49615 0.03667 0.0
H1695 H 0.45108 0.499 0.03097 0.0
H1696 H 0.42995 0.47597 0.04852 0.0
H1697 H 0.49366 0.60642 0.07302 0.0
H1698 H 0.49894 0.60004 0.04966 0.0
H1699 H 0.46715 0.59553 0.05626 0.0
H1700 H 0.48931 0.57079 0.99155 0.0
H1701 H 0.41459 0.56314 0.00806 0.0
H1702 H 0.49629 0.53679 0.02866 0.0
H1703 H 0.51365 0.57106 0.03479 0.0
H1704 H 0.51534 0.56171 0.01149 0.0
H1705 H 0.4046 0.52578 0.04831 0.0
H1706 H 0.39491 0.54673 0.03695 0.0
H1707 H 0.42039 0.55993 0.05456 0.0
C1708 C 0.93029 0.43792 0.25016 0.0
C1709 C 0.95044 0.46482 0.25122 0.0
C1710 C 0.91517 0.4273 0.23407 0.0
C1711 C 0.92054 0.44397 0.21866 0.0
C1712 C 0.94053 0.47124 0.21978 0.0
C1713 C 0.9552 0.48135 0.23607 0.0
C1714 C 0.8938 0.39817 0.23344 0.0
C1715 C 0.94696 0.48961 0.2036 0.0
C1716 C 0.90225 0.41329 0.17112 0.0
C1717 C 0.87863 0.41345 0.16745 0.0
C1718 C 0.91596 0.42293 0.18782 0.0
C1719 C 0.9057 0.43283 0.2012 0.0
C1720 C 0.8817 0.43273 0.19769 0.0
C1721 C 0.86853 0.42317 0.18083 0.0
C1722 C 0.94157 0.42279 0.19107 0.0
C1723 C 0.87014 0.44309 0.21164 0.0
H1724 H 0.92652 0.42514 0.2619 0.0
H1725 H 0.97108 0.50207 0.23674 0.0
H1726 H 0.87412 0.39557 0.22948 0.0
H1727 H 0.89913 0.38815 0.22285 0.0
H1728 H 0.89139 0.38815 0.24683 0.0
H1729 H 0.96254 0.51046 0.2069 0.0
H1730 H 0.95434 0.48294 0.19196 0.0
H1731 H 0.92848 0.48899 0.19891 0.0
H1732 H 0.90999 0.40552 0.16096 0.0
H1733 H 0.85056 0.42382 0.178 0.0
H1734 H 0.9395 0.41125 0.20364 0.0
H1735 H 0.95863 0.44334 0.19334 0.0
H1736 H 0.94669 0.41414 0.17936 0.0
H1737 H 0.86692 0.43266 0.22493 0.0
H1738 H 0.85068 0.44056 0.20711 0.0
H1739 H 0.88464 0.46447 0.21413 0.0
loop_
_geom_bond_atom_site_label_1
_geom_bond_atom_site_label_2
_geom_bond_distance
_geom_bond_site_symmetry_2
_ccdc_geom_bond_type
H0 O26 0.856 . S
H1 O29 0.854 . S
H2 C37 0.930 . S
H3 C38 0.930 . S
H4 C40 0.930 . S
H5 C41 0.942 1_455 S
H6 C43 0.931 . S
H7 C44 0.930 . S
H8 C46 0.930 . S
H9 C47 0.929 . S
H10 C49 0.930 . S
H11 C50 0.931 . S
H12 C52 0.930 . S
H13 C53 0.929 . S
H14 C55 0.931 . S
H15 C56 0.930 . S
H16 C58 0.930 . S
H17 C59 0.932 . S
H18 C61 0.930 . S
H19 C62 0.929 . S
H20 C64 0.931 . S
H21 C65 0.930 . S
H22 C67 0.929 . S
H23 C68 0.931 . S
H24 C70 0.930 . S
H25 C71 0.929 . S
O26 H0 0.856 . S
O26 C72 1.300 . S
O27 C72 1.209 . S
O28 C73 1.199 . S
O29 H1 0.854 . S
O29 C73 1.297 . S
C30 C31 1.404 . S
C30 C35 1.397 . S
C30 C36 1.492 . S
C31 C30 1.404 . S
C31 C32 1.396 . S
C31 C42 1.492 . S
C32 C31 1.396 . S
C32 C33 1.397 . S
C32 C48 1.509 . S
C33 C32 1.397 . S
C33 C34 1.412 . S
C33 C54 1.485 . S
C34 C33 1.412 . S
C34 C35 1.388 . S
C34 C60 1.490 . S
C35 C30 1.397 . S
C35 C34 1.388 . S
C35 C66 1.519 . S
C36 C30 1.492 . S
C36 C37 1.363 . S
C36 C41 1.390 1_455 S
C37 H2 0.930 . S
C37 C36 1.363 . S
C37 C38 1.372 1_455 S
C38 H3 0.930 . S
C38 C37 1.372 1_655 S
C38 C39 1.383 . S
C39 C38 1.383 . S
C39 C40 1.395 . S
C40 H4 0.930 . S
C40 C39 1.395 . S
C40 C41 1.362 . S
C41 H5 0.942 1_655 S
C41 C36 1.390 1_655 S
C41 C40 1.362 . S
C42 C31 1.492 . S
C42 C43 1.377 . S
C42 C47 1.397 . S
C43 H6 0.931 . S
C43 C42 1.377 . S
C43 C44 1.376 . S
C44 H7 0.930 . S
C44 C43 1.376 . S
C44 C45 1.376 . S
C45 C44 1.376 . S
C45 C46 1.378 . S
C45 C72 1.486 . S
C46 H8 0.930 . S
C46 C45 1.378 . S
C46 C47 1.376 . S
C47 H9 0.929 . S
C47 C42 1.397 . S
C47 C46 1.376 . S
C48 C32 1.509 . S
C48 C49 1.391 . S
C48 C53 1.386 . S
C49 H10 0.930 . S
C49 C48 1.391 . S
C49 C50 1.375 . S
C50 H11 0.931 . S
C50 C49 1.375 . S
C50 C51 1.375 . S
C51 C50 1.375 . S
C51 C52 1.361 . S
C52 H12 0.930 . S
C52 C51 1.361 . S
C52 C53 1.399 . S
C53 H13 0.929 . S
C53 C48 1.386 . S
C53 C52 1.399 . S
C54 C33 1.485 . S
C54 C55 1.394 . S
C54 C59 1.360 . S
C55 H14 0.931 . S
C55 C54 1.394 . S
C55 C56 1.372 . S
C56 H15 0.930 . S
C56 C55 1.372 . S
C56 C57 1.397 . S
C57 C56 1.397 . S
C57 C58 1.390 . S
C57 C73 1.476 . S
C58 H16 0.930 . S
C58 C57 1.390 . S
C58 C59 1.366 . S
C59 H17 0.932 . S
C59 C54 1.360 . S
C59 C58 1.366 . S
C60 C34 1.490 . S
C60 C61 1.380 . S
C60 C65 1.386 . S
C61 H18 0.930 . S
C61 C60 1.380 . S
C61 C62 1.381 . S
C62 H19 0.929 . S
C62 C61 1.381 . S
C62 C63 1.371 . S
C63 C62 1.371 . S
C63 C64 1.380 . S
C64 H20 0.931 . S
C64 C63 1.380 . S
C64 C65 1.387 . S
C65 H21 0.930 . S
C65 C60 1.386 . S
C65 C64 1.387 . S
C66 C35 1.519 . S
C66 C67 1.377 1_455 S
C66 C71 1.361 . S
C67 H22 0.929 . S
C67 C66 1.377 1_655 S
C67 C68 1.386 . S
C68 H23 0.931 . S
C68 C67 1.386 . S
C68 C69 1.363 . S
C69 C68 1.363 . S
C69 C70 1.385 . S
C70 H24 0.930 . S
C70 C69 1.385 . S
C70 C71 1.396 1_655 S
C71 H25 0.929 . S
C71 C66 1.361 . S
C71 C70 1.396 1_455 S
C72 O26 1.300 . S
C72 O27 1.209 . S
C72 C45 1.486 . S
C73 O28 1.199 . S
C73 O29 1.297 . S
C73 C57 1.476 . S
H74 O100 0.856 . S
H75 O103 0.854 . S
H76 C111 0.930 . S
H77 C112 0.930 . S
H78 C114 0.930 . S
H79 C115 0.902 1_545 S
H80 C117 0.931 . S
H81 C118 0.930 . S
H82 C120 0.930 . S
H83 C121 0.929 . S
H84 C123 0.930 . S
H85 C124 0.931 . S
H86 C126 0.930 . S
H87 C127 0.929 . S
H88 C129 0.931 . S
H89 C130 0.930 . S
H90 C132 0.930 . S
H91 C133 0.932 . S
H92 C135 0.930 . S
H93 C136 0.929 . S
H94 C138 0.931 . S
H95 C139 0.930 . S
H96 C141 0.929 1_545 S
H97 C142 0.931 . S
H98 C144 0.930 . S
H99 C145 0.929 . S
O100 H74 0.856 . S
O100 C146 1.300 . S
O101 C146 1.209 . S
O102 C147 1.199 . S
O103 H75 0.854 . S
O103 C147 1.297 . S
C104 C105 1.404 . S
C104 C109 1.397 . S
C104 C110 1.492 . S
C105 C104 1.404 . S
C105 C106 1.396 . S
C105 C116 1.492 . S
C106 C105 1.396 . S
C106 C107 1.397 . S
C106 C122 1.509 . S
C107 C106 1.397 . S
C107 C108 1.412 . S
C107 C128 1.485 . S
C108 C107 1.412 . S
C108 C109 1.388 . S
C108 C134 1.490 . S
C109 C104 1.397 . S
C109 C108 1.388 . S
C109 C140 1.519 . S
C110 C104 1.492 . S
C110 C111 1.363 . S
C110 C115 1.388 1_545 S
C111 H76 0.930 . S
C111 C110 1.363 . S
C111 C112 1.372 1_545 S
C112 H77 0.930 . S
C112 C111 1.372 1_565 S
C112 C113 1.383 . S
C113 C112 1.383 . S
C113 C114 1.395 . S
C114 H78 0.930 . S
C114 C113 1.395 . S
C114 C115 1.368 . S
C115 H79 0.902 1_565 S
C115 C110 1.388 1_565 S
C115 C114 1.368 . S
C116 C105 1.492 . S
C116 C117 1.377 . S
C116 C121 1.397 . S
C117 H80 0.931 . S
C117 C116 1.377 . S
C117 C118 1.376 . S
C118 H81 0.930 . S
C118 C117 1.376 . S
C118 C119 1.376 . S
C119 C118 1.376 . S
C119 C120 1.378 . S
C119 C146 1.486 . S
C120 H82 0.930 . S
C120 C119 1.378 . S
C120 C121 1.376 . S
C121 H83 0.929 . S
C121 C116 1.397 . S
C121 C120 1.376 . S
C122 C106 1.509 . S
C122 C123 1.391 . S
C122 C127 1.386 . S
C123 H84 0.930 . S
C123 C122 1.391 . S
C123 C124 1.375 . S
C124 H85 0.931 . S
C124 C123 1.375 . S
C124 C125 1.375 . S
C125 C124 1.375 . S
C125 C126 1.361 . S
C126 H86 0.930 . S
C126 C125 1.361 . S
C126 C127 1.399 . S
C127 H87 0.929 . S
C127 C122 1.386 . S
C127 C126 1.399 . S
C128 C107 1.485 . S
C128 C129 1.394 . S
C128 C133 1.360 . S
C129 H88 0.931 . S
C129 C128 1.394 . S
C129 C130 1.372 . S
C130 H89 0.930 . S
C130 C129 1.372 . S
C130 C131 1.397 . S
C131 C130 1.397 . S
C131 C132 1.390 . S
C131 C147 1.476 . S
C132 H90 0.930 . S
C132 C131 1.390 . S
C132 C133 1.366 . S
C133 H91 0.932 . S
C133 C128 1.360 . S
C133 C132 1.366 . S
C134 C108 1.490 . S
C134 C135 1.380 . S
C134 C139 1.386 . S
C135 H92 0.930 . S
C135 C134 1.380 . S
C135 C136 1.381 . S
C136 H93 0.929 . S
C136 C135 1.381 . S
C136 C137 1.371 . S
C137 C136 1.371 . S
C137 C138 1.380 . S
C138 H94 0.931 . S
C138 C137 1.380 . S
C138 C139 1.387 . S
C139 H95 0.930 . S
C139 C134 1.386 . S
C139 C138 1.387 . S
C140 C109 1.519 . S
C140 C141 1.377 1_545 S
C140 C145 1.361 . S
C141 H96 0.929 1_565 S
C141 C140 1.377 1_565 S
C141 C142 1.386 . S
C142 H97 0.931 . S
C142 C141 1.386 . S
C142 C143 1.363 . S
C143 C142 1.363 . S
C143 C144 1.385 . S
C144 H98 0.930 . S
C144 C143 1.385 . S
C144 C145 1.396 1_565 S
C145 H99 0.929 . S
C145 C140 1.361 . S
C145 C144 1.396 1_545 S
C146 O100 1.300 . S
C146 O101 1.209 . S
C146 C119 1.486 . S
C147 O102 1.199 . S
C147 O103 1.297 . S
C147 C131 1.476 . S
H148 O174 0.856 . S
H149 O177 0.854 . S
H150 C185 0.930 . S
H151 C186 0.930 . S
H152 C188 0.930 . S
H153 C189 0.930 . S
H154 C191 0.931 . S
H155 C192 0.930 . S
H156 C194 0.930 . S
H157 C195 0.929 . S
H158 C197 0.930 . S
H159 C198 0.931 . S
H160 C200 0.930 . S
H161 C201 0.929 . S
H162 C203 0.931 . S
H163 C204 0.930 . S
H164 C206 0.930 . S
H165 C207 0.932 . S
H166 C209 0.930 . S
H167 C210 0.929 . S
H168 C212 0.931 . S
H169 C213 0.930 . S
H170 C215 0.929 . S
H171 C216 0.931 . S
H172 C218 0.930 . S
H173 C219 0.929 . S
O174 H148 0.856 . S
O174 C220 1.300 . S
O175 C220 1.209 . S
O176 C221 1.199 . S
O177 H149 0.854 . S
O177 C221 1.297 . S
C178 C179 1.404 . S
C178 C183 1.397 . S
C178 C184 1.492 . S
C179 C178 1.404 . S
C179 C180 1.396 . S
C179 C190 1.492 . S
C180 C179 1.396 . S
C180 C181 1.397 . S
C180 C196 1.509 . S
C181 C180 1.397 . S
C181 C182 1.412 . S
C181 C202 1.485 . S
C182 C181 1.412 . S
C182 C183 1.388 . S
C182 C208 1.490 . S
C183 C178 1.397 . S
C183 C182 1.388 . S
C183 C214 1.519 . S
C184 C178 1.492 . S
C184 C185 1.363 . S
C184 C189 1.390 . S
C185 H150 0.930 . S
C185 C184 1.363 . S
C185 C186 1.372 . S
C186 H151 0.930 . S
C186 C185 1.372 . S
C186 C187 1.383 . S
C187 C186 1.383 . S
C187 C188 1.395 . S
C188 H152 0.930 . S
C188 C187 1.395 . S
C188 C189 1.362 . S
C189 H153 0.930 . S
C189 C184 1.390 . S
C189 C188 1.362 . S
C190 C179 1.492 . S
C190 C191 1.377 . S
C190 C195 1.397 . S
C191 H154 0.931 . S
C191 C190 1.377 . S
C191 C192 1.376 . S
C192 H155 0.930 . S
C192 C191 1.376 . S
C192 C193 1.376 . S
C193 C192 1.376 . S
C193 C194 1.378 . S
C193 C220 1.486 . S
C194 H156 0.930 . S
C194 C193 1.378 . S
C194 C195 1.376 . S
C195 H157 0.929 . S
C195 C190 1.397 . S
C195 C194 1.376 . S
C196 C180 1.509 . S
C196 C197 1.391 . S
C196 C201 1.386 . S
C197 H158 0.930 . S
C197 C196 1.391 . S
C197 C198 1.375 . S
C198 H159 0.931 . S
C198 C197 1.375 . S
C198 C199 1.375 . S
C199 C198 1.375 . S
C199 C200 1.361 . S
C200 H160 0.930 . S
C200 C199 1.361 . S
C200 C201 1.399 . S
C201 H161 0.929 . S
C201 C196 1.386 . S
C201 C200 1.399 . S
C202 C181 1.485 . S
C202 C203 1.394 . S
C202 C207 1.360 . S
C203 H162 0.931 . S
C203 C202 1.394 . S
C203 C204 1.372 . S
C204 H163 0.930 . S
C204 C203 1.372 . S
C204 C205 1.397 . S
C205 C204 1.397 . S
C205 C206 1.390 . S
C205 C221 1.476 . S
C206 H164 0.930 . S
C206 C205 1.390 . S
C206 C207 1.366 . S
C207 H165 0.932 . S
C207 C202 1.360 . S
C207 C206 1.366 . S
C208 C182 1.490 . S
C208 C209 1.380 . S
C208 C213 1.386 . S
C209 H166 0.930 . S
C209 C208 1.380 . S
C209 C210 1.381 . S
C210 H167 0.929 . S
C210 C209 1.381 . S
C210 C211 1.371 . S
C211 C210 1.371 . S
C211 C212 1.380 . S
C212 H168 0.931 . S
C212 C211 1.380 . S
C212 C213 1.387 . S
C213 H169 0.930 . S
C213 C208 1.386 . S
C213 C212 1.387 . S
C214 C183 1.519 . S
C214 C215 1.377 . S
C214 C219 1.361 . S
C215 H170 0.929 . S
C215 C214 1.377 . S
C215 C216 1.386 . S
C216 H171 0.931 . S
C216 C215 1.386 . S
C216 C217 1.363 . S
C217 C216 1.363 . S
C217 C218 1.385 . S
C218 H172 0.930 . S
C218 C217 1.385 . S
C218 C219 1.396 . S
C219 H173 0.929 . S
C219 C214 1.361 . S
C219 C218 1.396 . S
C220 O174 1.300 . S
C220 O175 1.209 . S
C220 C193 1.486 . S
C221 O176 1.199 . S
C221 O177 1.297 . S
C221 C205 1.476 . S
H222 O248 0.856 . S
H223 O251 0.854 . S
H224 C259 0.929 1_455 S
H225 C260 0.930 . S
H226 C262 0.930 . S
H227 C263 0.930 . S
H228 C265 0.931 . S
H229 C266 0.930 . S
H230 C268 0.930 . S
H231 C269 0.929 . S
H232 C271 0.930 . S
H233 C272 0.931 . S
H234 C274 0.930 . S
H235 C275 0.929 . S
H236 C277 0.931 . S
H237 C278 0.930 . S
H238 C280 0.930 . S
H239 C281 0.932 . S
H240 C283 0.930 . S
H241 C284 0.929 . S
H242 C286 0.931 . S
H243 C287 0.930 . S
H244 C289 0.929 . S
H245 C290 0.931 . S
H246 C292 0.930 . S
H247 C293 0.929 1_455 S
O248 H222 0.856 . S
O248 C294 1.300 . S
O249 C294 1.209 . S
O250 C295 1.199 . S
O251 H223 0.854 . S
O251 C295 1.297 . S
C252 C253 1.404 . S
C252 C257 1.397 . S
C252 C258 1.492 . S
C253 C252 1.404 . S
C253 C254 1.396 . S
C253 C264 1.492 . S
C254 C253 1.396 . S
C254 C255 1.397 . S
C254 C270 1.509 . S
C255 C254 1.397 . S
C255 C256 1.412 . S
C255 C276 1.485 . S
C256 C255 1.412 . S
C256 C257 1.388 . S
C256 C282 1.490 . S
C257 C252 1.397 . S
C257 C256 1.388 . S
C257 C288 1.519 1_455 S
C258 C252 1.492 . S
C258 C259 1.360 1_455 S
C258 C263 1.390 1_455 S
C259 H224 0.929 1_655 S
C259 C258 1.360 1_655 S
C259 C260 1.377 . S
C260 H225 0.930 . S
C260 C259 1.377 . S
C260 C261 1.383 . S
C261 C260 1.383 . S
C261 C262 1.395 . S
C262 H226 0.930 . S
C262 C261 1.395 . S
C262 C263 1.362 . S
C263 H227 0.930 . S
C263 C258 1.390 1_655 S
C263 C262 1.362 . S
C264 C253 1.492 . S
C264 C265 1.377 . S
C264 C269 1.397 . S
C265 H228 0.931 . S
C265 C264 1.377 . S
C265 C266 1.376 . S
C266 H229 0.930 . S
C266 C265 1.376 . S
C266 C267 1.376 . S
C267 C266 1.376 . S
C267 C268 1.378 . S
C267 C294 1.486 . S
C268 H230 0.930 . S
C268 C267 1.378 . S
C268 C269 1.376 . S
C269 H231 0.929 . S
C269 C264 1.397 . S
C269 C268 1.376 . S
C270 C254 1.509 . S
C270 C271 1.391 . S
C270 C275 1.386 . S
C271 H232 0.930 . S
C271 C270 1.391 . S
C271 C272 1.375 . S
C272 H233 0.931 . S
C272 C271 1.375 . S
C272 C273 1.375 . S
C273 C272 1.375 . S
C273 C274 1.361 . S
C274 H234 0.930 . S
C274 C273 1.361 . S
C274 C275 1.399 . S
C275 H235 0.929 . S
C275 C270 1.386 . S
C275 C274 1.399 . S
C276 C255 1.485 . S
C276 C277 1.394 . S
C276 C281 1.360 . S
C277 H236 0.931 . S
C277 C276 1.394 . S
C277 C278 1.372 . S
C278 H237 0.930 . S
C278 C277 1.372 . S
C278 C279 1.397 . S
C279 C278 1.397 . S
C279 C280 1.390 . S
C279 C295 1.476 . S
C280 H238 0.930 . S
C280 C279 1.390 . S
C280 C281 1.366 . S
C281 H239 0.932 . S
C281 C276 1.360 . S
C281 C280 1.366 . S
C282 C256 1.490 . S
C282 C283 1.380 . S
C282 C287 1.386 . S
C283 H240 0.930 . S
C283 C282 1.380 . S
C283 C284 1.381 . S
C284 H241 0.929 . S
C284 C283 1.381 . S
C284 C285 1.371 . S
C285 C284 1.371 . S
C285 C286 1.380 . S
C286 H242 0.931 . S
C286 C285 1.380 . S
C286 C287 1.387 . S
C287 H243 0.930 . S
C287 C282 1.386 . S
C287 C286 1.387 . S
C288 C257 1.519 1_655 S
C288 C289 1.377 . S
C288 C293 1.361 . S
C289 H244 0.929 . S
C289 C288 1.377 . S
C289 C290 1.386 . S
C290 H245 0.931 . S
C290 C289 1.386 . S
C290 C291 1.363 . S
C291 C290 1.363 . S
C291 C292 1.385 . S
C292 H246 0.930 . S
C292 C291 1.385 . S
C292 C293 1.396 . S
C293 H247 0.929 1_655 S
C293 C288 1.361 . S
C293 C292 1.396 . S
C294 O248 1.300 . S
C294 O249 1.209 . S
C294 C267 1.486 . S
C295 O250 1.199 . S
C295 O251 1.297 . S
C295 C279 1.476 . S
H296 O322 0.856 . S
H297 O325 0.854 . S
H298 C333 0.930 . S
H299 C334 0.930 . S
H300 C336 0.930 . S
H301 C337 0.930 . S
H302 C339 0.931 . S
H303 C340 0.930 . S
H304 C342 0.930 . S
H305 C343 0.929 . S
H306 C345 0.930 . S
H307 C346 0.931 . S
H308 C348 0.930 . S
H309 C349 0.929 . S
H310 C351 0.931 . S
H311 C352 0.930 . S
H312 C354 0.930 . S
H313 C355 0.932 . S
H314 C357 0.930 . S
H315 C358 0.929 . S
H316 C360 0.931 . S
H317 C361 0.930 . S
H318 C363 0.929 1_556 S
H319 C364 0.931 . S
H320 C366 0.930 . S
H321 C367 0.929 . S
O322 H296 0.856 . S
O322 C368 1.300 . S
O323 C368 1.209 . S
O324 C369 1.199 . S
O325 H297 0.854 . S
O325 C369 1.297 . S
C326 C327 1.404 . S
C326 C331 1.397 . S
C326 C332 1.492 1_565 S
C327 C326 1.404 . S
C327 C328 1.396 . S
C327 C338 1.492 . S
C328 C327 1.396 . S
C328 C329 1.462 . S
C328 C344 1.509 . S
C329 C328 1.462 . S
C329 C330 1.388 1_556 S
C329 C350 1.447 1_556 S
C330 C329 1.388 1_554 S
C330 C331 1.388 1_554 S
C330 C356 1.490 . S
C331 C326 1.397 . S
C331 C330 1.388 1_556 S
C331 C362 1.519 1_566 S
C332 C326 1.492 1_545 S
C332 C333 1.363 . S
C332 C337 1.390 . S
C333 H298 0.930 . S
C333 C332 1.363 . S
C333 C334 1.372 . S
C334 H299 0.930 . S
C334 C333 1.372 . S
C334 C335 1.383 . S
C335 C334 1.383 . S
C335 C336 1.395 . S
C336 H300 0.930 . S
C336 C335 1.395 . S
C336 C337 1.362 . S
C337 H301 0.930 . S
C337 C332 1.390 . S
C337 C336 1.362 . S
C338 C327 1.492 . S
C338 C339 1.377 . S
C338 C343 1.397 . S
C339 H302 0.931 . S
C339 C338 1.377 . S
C339 C340 1.376 . S
C340 H303 0.930 . S
C340 C339 1.376 . S
C340 C341 1.376 . S
C341 C340 1.376 . S
C341 C342 1.378 . S
C341 C368 1.486 . S
C342 H304 0.930 . S
C342 C341 1.378 . S
C342 C343 1.376 . S
C343 H305 0.929 . S
C343 C338 1.397 . S
C343 C342 1.376 . S
C344 C328 1.509 . S
C344 C345 1.391 . S
C344 C349 1.386 . S
C345 H306 0.930 . S
C345 C344 1.391 . S
C345 C346 1.375 . S
C346 H307 0.931 . S
C346 C345 1.375 . S
C346 C347 1.375 . S
C347 C346 1.375 . S
C347 C348 1.361 . S
C348 H308 0.930 . S
C348 C347 1.361 . S
C348 C349 1.399 . S
C349 H309 0.929 . S
C349 C344 1.386 . S
C349 C348 1.399 . S
C350 C329 1.447 1_554 S
C350 C351 1.394 . S
C350 C355 1.360 . S
C351 H310 0.931 . S
C351 C350 1.394 . S
C351 C352 1.372 . S
C352 H311 0.930 . S
C352 C351 1.372 . S
C352 C353 1.397 . S
C353 C352 1.397 . S
C353 C354 1.390 . S
C353 C369 1.476 . S
C354 H312 0.930 . S
C354 C353 1.390 . S
C354 C355 1.366 . S
C355 H313 0.932 . S
C355 C350 1.360 . S
C355 C354 1.366 . S
C356 C330 1.490 . S
C356 C357 1.380 . S
C356 C361 1.386 . S
C357 H314 0.930 . S
C357 C356 1.380 . S
C357 C358 1.381 . S
C358 H315 0.929 . S
C358 C357 1.381 . S
C358 C359 1.371 . S
C359 C358 1.371 . S
C359 C360 1.380 . S
C360 H316 0.931 . S
C360 C359 1.380 . S
C360 C361 1.387 . S
C361 H317 0.930 . S
C361 C356 1.386 . S
C361 C360 1.387 . S
C362 C331 1.519 1_544 S
C362 C363 1.377 . S
C362 C367 1.361 . S
C363 H318 0.929 1_554 S
C363 C362 1.377 . S
C363 C364 1.386 . S
C364 H319 0.931 . S
C364 C363 1.386 . S
C364 C365 1.363 . S
C365 C364 1.363 . S
C365 C366 1.385 . S
C366 H320 0.930 . S
C366 C365 1.385 . S
C366 C367 1.396 . S
C367 H321 0.929 . S
C367 C362 1.361 . S
C367 C366 1.396 . S
C368 O322 1.300 . S
C368 O323 1.209 . S
C368 C341 1.486 . S
C369 O324 1.199 . S
C369 O325 1.297 . S
C369 C353 1.476 . S
H370 O396 0.856 . S
H371 O399 0.854 . S
H372 C407 0.930 . S
H373 C408 0.930 . S
H374 C410 0.930 . S
H375 C411 0.930 . S
H376 C413 0.931 . S
H377 C414 0.930 . S
H378 C416 0.930 . S
H379 C417 0.929 . S
H380 C419 0.930 . S
H381 C420 0.931 . S
H382 C422 0.930 . S
H383 C423 0.929 . S
H384 C425 0.931 . S
H385 C426 0.930 . S
H386 C428 0.930 . S
H387 C429 0.932 . S
H388 C431 0.930 . S
H389 C432 0.929 . S
H390 C434 0.931 . S
H391 C435 0.930 . S
H392 C437 0.929 . S
H393 C438 0.931 . S
H394 C440 0.930 . S
H395 C441 0.929 . S
O396 H370 0.856 . S
O396 C442 1.300 . S
O397 C442 1.209 . S
O398 C443 1.199 . S
O399 H371 0.854 . S
O399 C443 1.297 . S
C400 C401 1.404 . S
C400 C405 1.397 . S
C400 C406 1.492 . S
C401 C400 1.404 . S
C401 C402 1.396 . S
C401 C412 1.492 . S
C402 C401 1.396 . S
C402 C403 1.397 . S
C402 C418 1.509 . S
C403 C402 1.397 . S
C403 C404 1.412 . S
C403 C424 1.485 . S
C404 C403 1.412 . S
C404 C405 1.388 . S
C404 C430 1.490 . S
C405 C400 1.397 . S
C405 C404 1.388 . S
C405 C436 1.519 . S
C406 C400 1.492 . S
C406 C407 1.363 . S
C406 C411 1.390 . S
C407 H372 0.930 . S
C407 C406 1.363 . S
C407 C408 1.372 . S
C408 H373 0.930 . S
C408 C407 1.372 . S
C408 C409 1.383 . S
C409 C408 1.383 . S
C409 C410 1.395 . S
C410 H374 0.930 . S
C410 C409 1.395 . S
C410 C411 1.362 . S
C411 H375 0.930 . S
C411 C406 1.390 . S
C411 C410 1.362 . S
C412 C401 1.492 . S
C412 C413 1.377 . S
C412 C417 1.397 . S
C413 H376 0.931 . S
C413 C412 1.377 . S
C413 C414 1.376 . S
C414 H377 0.930 . S
C414 C413 1.376 . S
C414 C415 1.376 . S
C415 C414 1.376 . S
C415 C416 1.378 . S
C415 C442 1.486 . S
C416 H378 0.930 . S
C416 C415 1.378 . S
C416 C417 1.376 . S
C417 H379 0.929 . S
C417 C412 1.397 . S
C417 C416 1.376 . S
C418 C402 1.509 . S
C418 C419 1.391 . S
C418 C423 1.386 . S
C419 H380 0.930 . S
C419 C418 1.391 . S
C419 C420 1.375 . S
C420 H381 0.931 . S
C420 C419 1.375 . S
C420 C421 1.375 . S
C421 C420 1.375 . S
C421 C422 1.361 . S
C422 H382 0.930 . S
C422 C421 1.361 . S
C422 C423 1.399 . S
C423 H383 0.929 . S
C423 C418 1.386 . S
C423 C422 1.399 . S
C424 C403 1.485 . S
C424 C425 1.394 . S
C424 C429 1.360 . S
C425 H384 0.931 . S
C425 C424 1.394 . S
C425 C426 1.372 . S
C426 H385 0.930 . S
C426 C425 1.372 . S
C426 C427 1.397 . S
C427 C426 1.397 . S
C427 C428 1.390 . S
C427 C443 1.476 . S
C428 H386 0.930 . S
C428 C427 1.390 . S
C428 C429 1.366 . S
C429 H387 0.932 . S
C429 C424 1.360 . S
C429 C428 1.366 . S
C430 C404 1.490 . S
C430 C431 1.380 . S
C430 C435 1.386 . S
C431 H388 0.930 . S
C431 C430 1.380 . S
C431 C432 1.381 . S
C432 H389 0.929 . S
C432 C431 1.381 . S
C432 C433 1.371 . S
C433 C432 1.371 . S
C433 C434 1.380 . S
C434 H390 0.931 . S
C434 C433 1.380 . S
C434 C435 1.387 . S
C435 H391 0.930 . S
C435 C430 1.386 . S
C435 C434 1.387 . S
C436 C405 1.519 . S
C436 C437 1.377 . S
C436 C441 1.361 . S
C437 H392 0.929 . S
C437 C436 1.377 . S
C437 C438 1.386 . S
C438 H393 0.931 . S
C438 C437 1.386 . S
C438 C439 1.363 . S
C439 C438 1.363 . S
C439 C440 1.385 . S
C440 H394 0.930 . S
C440 C439 1.385 . S
C440 C441 1.396 . S
C441 H395 0.929 . S
C441 C436 1.361 . S
C441 C440 1.396 . S
C442 O396 1.300 . S
C442 O397 1.209 . S
C442 C415 1.486 . S
C443 O398 1.199 . S
C443 O399 1.297 . S
C443 C427 1.476 . S
Li444 N461 1.990 . S
Li444 O504 1.956 . S
Li444 O505 1.970 . S
Li444 O506 1.961 . S
Li445 N469 1.990 . S
Li445 O504 1.970 . S
Li445 O505 1.956 . S
Li445 O507 1.961 . S
Li446 N491 1.990 . S
Li446 O504 1.961 . S
Li446 O506 1.956 . S
Li446 O507 1.970 . S
Li447 N497 1.990 . S
Li447 O505 1.961 . S
Li447 O506 1.970 . S
Li447 O507 1.956 . S
C448 C450 1.348 . S
C448 C451 1.356 . S
C448 O504 1.325 . S
N449 C452 1.314 . S
N449 C453 1.279 . S
C450 C448 1.348 . S
C450 C452 1.353 . S
C450 H508 0.929 . S
C451 C448 1.356 . S
C451 C453 1.358 . S
C451 H509 0.930 . S
C452 N449 1.314 . S
C452 C450 1.353 . S
C452 H510 0.930 . S
C453 N449 1.279 . S
C453 C451 1.358 . S
C453 H511 0.930 . S
C454 C457 1.348 . S
C454 C458 1.356 . S
C454 O505 1.325 . S
C455 N456 1.279 . S
C455 C458 1.358 . S
C455 H512 0.930 . S
N456 C455 1.279 . S
N456 C459 1.314 . S
C457 C454 1.348 . S
C457 C459 1.353 . S
C457 H513 0.929 . S
C458 C454 1.356 . S
C458 C455 1.358 . S
C458 H514 0.930 . S
C459 N456 1.314 . S
C459 C457 1.353 . S
C459 H515 0.930 . S
C460 N461 1.314 . S
C460 C465 1.353 . S
C460 H466 0.930 . S
N461 Li444 1.990 . S
N461 C460 1.314 . S
N461 C463 1.279 . S
C462 C463 1.358 . S
C462 C464 1.356 . S
C462 H516 0.930 . S
C463 N461 1.279 . S
C463 C462 1.358 . S
C463 H467 0.930 . S
C464 C462 1.356 . S
C464 C465 1.348 . S
C465 C460 1.353 . S
C465 C464 1.348 . S
C465 H517 0.929 . S
H466 C460 0.930 . S
H467 C463 0.930 . S
C468 N469 1.314 . S
C468 C470 1.353 . S
C468 H474 0.930 . S
N469 Li445 1.990 . S
N469 C468 1.314 . S
N469 C472 1.279 . S
C470 C468 1.353 . S
C470 C473 1.348 . S
C470 H518 0.929 . S
C471 C472 1.358 . S
C471 C473 1.356 . S
C471 H519 0.930 . S
C472 N469 1.279 . S
C472 C471 1.358 . S
C472 H475 0.930 . S
C473 C470 1.348 . S
C473 C471 1.356 . S
H474 C468 0.930 . S
H475 C472 0.930 . S
C476 C478 1.348 . S
C476 C479 1.356 . S
C476 O506 1.325 . S
N477 C480 1.314 . S
N477 C481 1.279 . S
C478 C476 1.348 . S
C478 C480 1.353 . S
C478 H520 0.929 . S
C479 C476 1.356 . S
C479 C481 1.358 . S
C479 H521 0.930 . S
C480 N477 1.314 . S
C480 C478 1.353 . S
C480 H522 0.930 . S
C481 N477 1.279 . S
C481 C479 1.358 . S
C481 H523 0.930 . S
C482 C483 1.348 . S
C482 C484 1.356 . S
C482 O507 1.325 . S
C483 C482 1.348 . S
C483 C485 1.353 . S
C483 H524 0.929 . S
C484 C482 1.356 . S
C484 C486 1.358 . S
C484 H525 0.930 . S
C485 C483 1.353 . S
C485 N487 1.314 . S
C485 H526 0.930 . S
C486 C484 1.358 . S
C486 N487 1.279 . S
C486 H527 0.930 . S
N487 C485 1.314 . S
N487 C486 1.279 . S
C488 C490 1.353 . S
C488 N491 1.314 . S
C488 H494 0.930 . S
C489 N491 1.279 . S
C489 C492 1.358 . S
C489 H495 0.930 . S
C490 C488 1.353 . S
C490 C493 1.348 . S
C490 H528 0.929 . S
N491 Li446 1.990 . S
N491 C488 1.314 . S
N491 C489 1.279 . S
C492 C489 1.358 . S
C492 C493 1.356 . S
C492 H529 0.930 . S
C493 C490 1.348 . S
C493 C492 1.356 . S
H494 C488 0.930 . S
H495 C489 0.930 . S
C496 N497 1.314 . S
C496 C498 1.353 . S
C496 H502 0.930 . S
N497 Li447 1.990 . S
N497 C496 1.314 . S
N497 C500 1.279 . S
C498 C496 1.353 . S
C498 C501 1.348 . S
C498 H530 0.929 . S
C499 C500 1.358 . S
C499 C501 1.356 . S
C499 H531 0.930 . S
C500 N497 1.279 . S
C500 C499 1.358 . S
C500 H503 0.930 . S
C501 C498 1.348 . S
C501 C499 1.356 . S
H502 C496 0.930 . S
H503 C500 0.930 . S
O504 Li444 1.956 . S
O504 Li445 1.970 . S
O504 Li446 1.961 . S
O504 C448 1.325 . S
O505 Li444 1.970 . S
O505 Li445 1.956 . S
O505 Li447 1.961 . S
O505 C454 1.325 . S
O506 Li444 1.961 . S
O506 Li446 1.956 . S
O506 Li447 1.970 . S
O506 C476 1.325 . S
O507 Li445 1.961 . S
O507 Li446 1.970 . S
O507 Li447 1.956 . S
O507 C482 1.325 . S
H508 C450 0.929 . S
H509 C451 0.930 . S
H510 C452 0.930 . S
H511 C453 0.930 . S
H512 C455 0.930 . S
H513 C457 0.929 . S
H514 C458 0.930 . S
H515 C459 0.930 . S
H516 C462 0.930 . S
H517 C465 0.929 . S
H518 C470 0.929 . S
H519 C471 0.930 . S
H520 C478 0.929 . S
H521 C479 0.930 . S
H522 C480 0.930 . S
H523 C481 0.930 . S
H524 C483 0.929 . S
H525 C484 0.930 . S
H526 C485 0.930 . S
H527 C486 0.930 . S
H528 C490 0.929 . S
H529 C492 0.930 . S
H530 C498 0.929 . S
H531 C499 0.930 . S
Li532 N549 1.990 . S
Li532 O592 1.956 . S
Li532 O593 1.970 . S
Li532 O594 1.961 . S
Li533 N557 1.990 . S
Li533 O592 1.970 . S
Li533 O593 1.956 . S
Li533 O595 1.961 . S
Li534 N579 1.990 . S
Li534 O592 1.961 . S
Li534 O594 1.956 . S
Li534 O595 1.970 . S
Li535 N585 1.990 . S
Li535 O593 1.961 . S
Li535 O594 1.970 . S
Li535 O595 1.956 . S
C536 C538 1.348 . S
C536 C539 1.356 . S
C536 O592 1.325 . S
N537 C540 1.314 . S
N537 C541 1.279 . S
C538 C536 1.348 . S
C538 C540 1.353 . S
C538 H596 0.929 . S
C539 C536 1.356 . S
C539 C541 1.358 . S
C539 H597 0.930 . S
C540 N537 1.314 . S
C540 C538 1.353 . S
C540 H598 0.930 . S
C541 N537 1.279 . S
C541 C539 1.358 . S
C541 H599 0.930 . S
C542 C545 1.348 . S
C542 C546 1.356 . S
C542 O593 1.325 . S
C543 N544 1.279 . S
C543 C546 1.358 . S
C543 H600 0.930 . S
N544 C543 1.279 . S
N544 C547 1.314 . S
C545 C542 1.348 . S
C545 C547 1.353 . S
C545 H601 0.929 . S
C546 C542 1.356 . S
C546 C543 1.358 . S
C546 H602 0.930 . S
C547 N544 1.314 . S
C547 C545 1.353 . S
C547 H603 0.930 . S
C548 N549 1.314 . S
C548 C553 1.353 . S
C548 H554 0.930 . S
N549 Li532 1.990 . S
N549 C548 1.314 . S
N549 C551 1.279 . S
C550 C551 1.358 . S
C550 C552 1.356 . S
C550 H604 0.930 . S
C551 N549 1.279 . S
C551 C550 1.358 . S
C551 H555 0.930 . S
C552 C550 1.356 . S
C552 C553 1.348 . S
C553 C548 1.353 . S
C553 C552 1.348 . S
C553 H605 0.929 . S
H554 C548 0.930 . S
H555 C551 0.930 . S
C556 N557 1.314 . S
C556 C558 1.353 . S
C556 H562 0.930 . S
N557 Li533 1.990 . S
N557 C556 1.314 . S
N557 C560 1.279 . S
C558 C556 1.353 . S
C558 C561 1.348 . S
C558 H606 0.929 . S
C559 C560 1.358 . S
C559 C561 1.356 . S
C559 H607 0.930 . S
C560 N557 1.279 . S
C560 C559 1.358 . S
C560 H563 0.930 . S
C561 C558 1.348 . S
C561 C559 1.356 . S
H562 C556 0.930 . S
H563 C560 0.930 . S
C564 C566 1.348 . S
C564 C567 1.356 . S
C564 O594 1.325 . S
N565 C568 1.314 . S
N565 C569 1.279 . S
C566 C564 1.348 . S
C566 C568 1.353 . S
C566 H608 0.929 . S
C567 C564 1.356 . S
C567 C569 1.358 . S
C567 H609 0.930 . S
C568 N565 1.314 . S
C568 C566 1.353 . S
C568 H610 0.930 . S
C569 N565 1.279 . S
C569 C567 1.358 . S
C569 H611 0.930 . S
C570 C571 1.348 . S
C570 C572 1.356 . S
C570 O595 1.325 . S
C571 C570 1.348 . S
C571 C573 1.353 . S
C571 H612 0.929 . S
C572 C570 1.356 . S
C572 C574 1.358 . S
C572 H613 0.930 . S
C573 C571 1.353 . S
C573 N575 1.314 . S
C573 H614 0.930 . S
C574 C572 1.358 . S
C574 N575 1.279 . S
C574 H615 0.930 . S
N575 C573 1.314 . S
N575 C574 1.279 . S
C576 C578 1.353 . S
C576 N579 1.314 . S
C576 H582 0.930 . S
C577 N579 1.279 . S
C577 C580 1.358 . S
C577 H583 0.930 . S
C578 C576 1.353 . S
C578 C581 1.348 . S
C578 H616 0.929 . S
N579 Li534 1.990 . S
N579 C576 1.314 . S
N579 C577 1.279 . S
C580 C577 1.358 . S
C580 C581 1.356 . S
C580 H617 0.930 . S
C581 C578 1.348 . S
C581 C580 1.356 . S
H582 C576 0.930 . S
H583 C577 0.930 . S
C584 N585 1.314 . S
C584 C586 1.353 . S
C584 H590 0.930 . S
N585 Li535 1.990 . S
N585 C584 1.314 . S
N585 C588 1.279 . S
C586 C584 1.353 . S
C586 C589 1.348 . S
C586 H618 0.929 . S
C587 C588 1.358 . S
C587 C589 1.356 . S
C587 H619 0.930 . S
C588 N585 1.279 . S
C588 C587 1.358 . S
C588 H591 0.930 . S
C589 C586 1.348 . S
C589 C587 1.356 . S
H590 C584 0.930 . S
H591 C588 0.930 . S
O592 Li532 1.956 . S
O592 Li533 1.970 . S
O592 Li534 1.961 . S
O592 C536 1.325 . S
O593 Li532 1.970 . S
O593 Li533 1.956 . S
O593 Li535 1.961 . S
O593 C542 1.325 . S
O594 Li532 1.961 . S
O594 Li534 1.956 . S
O594 Li535 1.970 . S
O594 C564 1.325 . S
O595 Li533 1.961 . S
O595 Li534 1.970 . S
O595 Li535 1.956 . S
O595 C570 1.325 . S
H596 C538 0.929 . S
H597 C539 0.930 . S
H598 C540 0.930 . S
H599 C541 0.930 . S
H600 C543 0.930 . S
H601 C545 0.929 . S
H602 C546 0.930 . S
H603 C547 0.930 . S
H604 C550 0.930 . S
H605 C553 0.929 . S
H606 C558 0.929 . S
H607 C559 0.930 . S
H608 C566 0.929 . S
H609 C567 0.930 . S
H610 C568 0.930 . S
H611 C569 0.930 . S
H612 C571 0.929 . S
H613 C572 0.930 . S
H614 C573 0.930 . S
H615 C574 0.930 . S
H616 C578 0.929 . S
H617 C580 0.930 . S
H618 C586 0.929 . S
H619 C587 0.930 . S
Li620 N637 1.990 . S
Li620 O680 1.956 . S
Li620 O681 1.970 . S
Li620 O682 1.961 . S
Li621 N645 1.990 . S
Li621 O680 1.970 . S
Li621 O681 1.956 . S
Li621 O683 1.961 . S
Li622 N667 1.990 . S
Li622 O680 1.961 . S
Li622 O682 1.956 . S
Li622 O683 1.970 . S
Li623 N673 1.990 . S
Li623 O681 1.961 . S
Li623 O682 1.970 . S
Li623 O683 1.956 . S
C624 C626 1.348 . S
C624 C627 1.356 . S
C624 O680 1.325 . S
N625 C628 1.314 . S
N625 C629 1.279 . S
C626 C624 1.348 . S
C626 C628 1.353 . S
C626 H684 0.929 . S
C627 C624 1.356 . S
C627 C629 1.358 . S
C627 H685 0.930 . S
C628 N625 1.314 . S
C628 C626 1.353 . S
C628 H686 0.930 . S
C629 N625 1.279 . S
C629 C627 1.358 . S
C629 H687 0.930 . S
C630 C633 1.348 . S
C630 C634 1.356 . S
C630 O681 1.325 . S
C631 N632 1.279 . S
C631 C634 1.358 . S
C631 H688 0.930 . S
N632 C631 1.279 . S
N632 C635 1.314 . S
C633 C630 1.348 . S
C633 C635 1.353 . S
C633 H689 0.929 . S
C634 C630 1.356 . S
C634 C631 1.358 . S
C634 H690 0.930 . S
C635 N632 1.314 . S
C635 C633 1.353 . S
C635 H691 0.930 . S
C636 N637 1.314 . S
C636 C641 1.353 . S
C636 H642 0.930 . S
N637 Li620 1.990 . S
N637 C636 1.314 . S
N637 C639 1.279 . S
C638 C639 1.358 . S
C638 C640 1.356 . S
C638 H692 0.930 . S
C639 N637 1.279 . S
C639 C638 1.358 . S
C639 H643 0.930 . S
C640 C638 1.356 . S
C640 C641 1.348 . S
C641 C636 1.353 . S
C641 C640 1.348 . S
C641 H693 0.929 . S
H642 C636 0.930 . S
H643 C639 0.930 . S
C644 N645 1.314 . S
C644 C646 1.353 . S
C644 H650 0.930 . S
N645 Li621 1.990 . S
N645 C644 1.314 . S
N645 C648 1.279 . S
C646 C644 1.353 . S
C646 C649 1.348 . S
C646 H694 0.929 . S
C647 C648 1.358 . S
C647 C649 1.356 . S
C647 H695 0.930 . S
C648 N645 1.279 . S
C648 C647 1.358 . S
C648 H651 0.930 . S
C649 C646 1.348 . S
C649 C647 1.356 . S
H650 C644 0.930 . S
H651 C648 0.930 . S
C652 C654 1.348 . S
C652 C655 1.356 . S
C652 O682 1.325 . S
N653 C656 1.314 . S
N653 C657 1.279 . S
C654 C652 1.348 . S
C654 C656 1.353 . S
C654 H696 0.929 . S
C655 C652 1.356 . S
C655 C657 1.358 . S
C655 H697 0.930 . S
C656 N653 1.314 . S
C656 C654 1.353 . S
C656 H698 0.930 . S
C657 N653 1.279 . S
C657 C655 1.358 . S
C657 H699 0.930 . S
C658 C659 1.348 . S
C658 C660 1.356 . S
C658 O683 1.325 . S
C659 C658 1.348 . S
C659 C661 1.353 . S
C659 H700 0.929 . S
C660 C658 1.356 . S
C660 C662 1.358 . S
C660 H701 0.930 . S
C661 C659 1.353 . S
C661 N663 1.314 . S
C661 H702 0.930 . S
C662 C660 1.358 . S
C662 N663 1.279 . S
C662 H703 0.930 . S
N663 C661 1.314 . S
N663 C662 1.279 . S
C664 C666 1.353 . S
C664 N667 1.314 . S
C664 H670 0.930 . S
C665 N667 1.279 . S
C665 C668 1.358 . S
C665 H671 0.930 . S
C666 C664 1.353 . S
C666 C669 1.348 . S
C666 H704 0.929 . S
N667 Li622 1.990 . S
N667 C664 1.314 . S
N667 C665 1.279 . S
C668 C665 1.358 . S
C668 C669 1.356 . S
C668 H705 0.930 . S
C669 C666 1.348 . S
C669 C668 1.356 . S
H670 C664 0.930 . S
H671 C665 0.930 . S
C672 N673 1.314 . S
C672 C674 1.353 . S
C672 H678 0.930 . S
N673 Li623 1.990 . S
N673 C672 1.314 . S
N673 C676 1.279 . S
C674 C672 1.353 . S
C674 C677 1.348 . S
C674 H706 0.929 . S
C675 C676 1.358 . S
C675 C677 1.356 . S
C675 H707 0.930 . S
C676 N673 1.279 . S
C676 C675 1.358 . S
C676 H679 0.930 . S
C677 C674 1.348 . S
C677 C675 1.356 . S
H678 C672 0.930 . S
H679 C676 0.930 . S
O680 Li620 1.956 . S
O680 Li621 1.970 . S
O680 Li622 1.961 . S
O680 C624 1.325 . S
O681 Li620 1.970 . S
O681 Li621 1.956 . S
O681 Li623 1.961 . S
O681 C630 1.325 . S
O682 Li620 1.961 . S
O682 Li622 1.956 . S
O682 Li623 1.970 . S
O682 C652 1.325 . S
O683 Li621 1.961 . S
O683 Li622 1.970 . S
O683 Li623 1.956 . S
O683 C658 1.325 . S
H684 C626 0.929 . S
H685 C627 0.930 . S
H686 C628 0.930 . S
H687 C629 0.930 . S
H688 C631 0.930 . S
H689 C633 0.929 . S
H690 C634 0.930 . S
H691 C635 0.930 . S
H692 C638 0.930 . S
H693 C641 0.929 . S
H694 C646 0.929 . S
H695 C647 0.930 . S
H696 C654 0.929 . S
H697 C655 0.930 . S
H698 C656 0.930 . S
H699 C657 0.930 . S
H700 C659 0.929 . S
H701 C660 0.930 . S
H702 C661 0.930 . S
H703 C662 0.930 . S
H704 C666 0.929 . S
H705 C668 0.930 . S
H706 C674 0.929 . S
H707 C675 0.930 . S
Li708 N725 1.990 . S
Li708 O768 1.956 . S
Li708 O769 1.970 . S
Li708 O770 1.961 . S
Li709 N733 1.990 . S
Li709 O768 1.970 . S
Li709 O769 1.956 . S
Li709 O771 1.961 . S
Li710 N755 1.990 . S
Li710 O768 1.961 . S
Li710 O770 1.956 . S
Li710 O771 1.970 . S
Li711 N761 1.990 . S
Li711 O769 1.961 . S
Li711 O770 1.970 . S
Li711 O771 1.956 . S
C712 C714 1.348 . S
C712 C715 1.356 . S
C712 O768 1.325 . S
N713 C716 1.314 . S
N713 C717 1.279 . S
C714 C712 1.348 . S
C714 C716 1.353 . S
C714 H772 0.929 . S
C715 C712 1.356 . S
C715 C717 1.358 . S
C715 H773 0.930 . S
C716 N713 1.314 . S
C716 C714 1.353 . S
C716 H774 0.930 . S
C717 N713 1.279 . S
C717 C715 1.358 . S
C717 H775 0.930 . S
C718 C721 1.348 . S
C718 C722 1.356 . S
C718 O769 1.325 . S
C719 N720 1.279 . S
C719 C722 1.358 . S
C719 H776 0.930 . S
N720 C719 1.279 . S
N720 C723 1.314 . S
C721 C718 1.348 . S
C721 C723 1.353 . S
C721 H777 0.929 . S
C722 C718 1.356 . S
C722 C719 1.358 . S
C722 H778 0.930 . S
C723 N720 1.314 . S
C723 C721 1.353 . S
C723 H779 0.930 . S
C724 N725 1.314 . S
C724 C729 1.353 . S
C724 H730 0.930 . S
N725 Li708 1.990 . S
N725 C724 1.314 . S
N725 C727 1.279 . S
C726 C727 1.358 . S
C726 C728 1.356 . S
C726 H780 0.930 . S
C727 N725 1.279 . S
C727 C726 1.358 . S
C727 H731 0.930 . S
C728 C726 1.356 . S
C728 C729 1.348 . S
C729 C724 1.353 . S
C729 C728 1.348 . S
C729 H781 0.929 . S
H730 C724 0.930 . S
H731 C727 0.930 . S
C732 N733 1.314 . S
C732 C734 1.353 . S
C732 H738 0.930 . S
N733 Li709 1.990 . S
N733 C732 1.314 . S
N733 C736 1.279 . S
C734 C732 1.353 . S
C734 C737 1.348 . S
C734 H782 0.929 . S
C735 C736 1.358 . S
C735 C737 1.356 . S
C735 H783 0.930 . S
C736 N733 1.279 . S
C736 C735 1.358 . S
C736 H739 0.930 . S
C737 C734 1.348 . S
C737 C735 1.356 . S
H738 C732 0.930 . S
H739 C736 0.930 . S
C740 C742 1.348 . S
C740 C743 1.356 . S
C740 O770 1.325 . S
N741 C744 1.314 . S
N741 C745 1.279 . S
C742 C740 1.348 . S
C742 C744 1.353 . S
C742 H784 0.929 . S
C743 C740 1.356 . S
C743 C745 1.358 . S
C743 H785 0.930 . S
C744 N741 1.314 . S
C744 C742 1.353 . S
C744 H786 0.930 . S
C745 N741 1.279 . S
C745 C743 1.358 . S
C745 H787 0.930 . S
C746 C747 1.348 . S
C746 C748 1.356 . S
C746 O771 1.325 . S
C747 C746 1.348 . S
C747 C749 1.353 . S
C747 H788 0.929 . S
C748 C746 1.356 . S
C748 C750 1.358 . S
C748 H789 0.930 . S
C749 C747 1.353 . S
C749 N751 1.314 . S
C749 H790 0.930 . S
C750 C748 1.358 . S
C750 N751 1.279 . S
C750 H791 0.930 . S
N751 C749 1.314 . S
N751 C750 1.279 . S
C752 C754 1.353 . S
C752 N755 1.314 . S
C752 H758 0.930 . S
C753 N755 1.279 . S
C753 C756 1.358 . S
C753 H759 0.930 . S
C754 C752 1.353 . S
C754 C757 1.348 . S
C754 H792 0.929 . S
N755 Li710 1.990 . S
N755 C752 1.314 . S
N755 C753 1.279 . S
C756 C753 1.358 . S
C756 C757 1.356 . S
C756 H793 0.930 . S
C757 C754 1.348 . S
C757 C756 1.356 . S
H758 C752 0.930 . S
H759 C753 0.930 . S
C760 N761 1.314 . S
C760 C762 1.353 . S
C760 H766 0.930 . S
N761 Li711 1.990 . S
N761 C760 1.314 . S
N761 C764 1.279 . S
C762 C760 1.353 . S
C762 C765 1.348 . S
C762 H794 0.929 . S
C763 C764 1.358 . S
C763 C765 1.356 . S
C763 H795 0.930 . S
C764 N761 1.279 . S
C764 C763 1.358 . S
C764 H767 0.930 . S
C765 C762 1.348 . S
C765 C763 1.356 . S
H766 C760 0.930 . S
H767 C764 0.930 . S
O768 Li708 1.956 . S
O768 Li709 1.970 . S
O768 Li710 1.961 . S
O768 C712 1.325 . S
O769 Li708 1.970 . S
O769 Li709 1.956 . S
O769 Li711 1.961 . S
O769 C718 1.325 . S
O770 Li708 1.961 . S
O770 Li710 1.956 . S
O770 Li711 1.970 . S
O770 C740 1.325 . S
O771 Li709 1.961 . S
O771 Li710 1.970 . S
O771 Li711 1.956 . S
O771 C746 1.325 . S
H772 C714 0.929 . S
H773 C715 0.930 . S
H774 C716 0.930 . S
H775 C717 0.930 . S
H776 C719 0.930 . S
H777 C721 0.929 . S
H778 C722 0.930 . S
H779 C723 0.930 . S
H780 C726 0.930 . S
H781 C729 0.929 . S
H782 C734 0.929 . S
H783 C735 0.930 . S
H784 C742 0.929 . S
H785 C743 0.930 . S
H786 C744 0.930 . S
H787 C745 0.930 . S
H788 C747 0.929 . S
H789 C748 0.930 . S
H790 C749 0.930 . S
H791 C750 0.930 . S
H792 C754 0.929 . S
H793 C756 0.930 . S
H794 C762 0.929 . S
H795 C763 0.930 . S
Li796 N813 1.990 . S
Li796 O856 1.956 . S
Li796 O857 1.970 . S
Li796 O858 1.961 . S
Li797 N821 1.990 . S
Li797 O856 1.970 . S
Li797 O857 1.956 . S
Li797 O859 1.961 . S
Li798 N843 1.990 . S
Li798 O856 1.961 . S
Li798 O858 1.956 . S
Li798 O859 1.970 . S
Li799 N849 1.990 . S
Li799 O857 1.961 . S
Li799 O858 1.970 . S
Li799 O859 1.956 . S
C800 C802 1.348 . S
C800 C803 1.356 . S
C800 O856 1.325 . S
N801 C804 1.314 . S
N801 C805 1.279 . S
C802 C800 1.348 . S
C802 C804 1.353 . S
C802 H860 0.929 . S
C803 C800 1.356 . S
C803 C805 1.358 . S
C803 H861 0.930 . S
C804 N801 1.314 . S
C804 C802 1.353 . S
C804 H862 0.930 . S
C805 N801 1.279 . S
C805 C803 1.358 . S
C805 H863 0.930 . S
C806 C809 1.348 . S
C806 C810 1.356 . S
C806 O857 1.325 . S
C807 N808 1.279 . S
C807 C810 1.358 . S
C807 H864 0.930 . S
N808 C807 1.279 . S
N808 C811 1.314 . S
C809 C806 1.348 . S
C809 C811 1.353 . S
C809 H865 0.929 . S
C810 C806 1.356 . S
C810 C807 1.358 . S
C810 H866 0.930 . S
C811 N808 1.314 . S
C811 C809 1.353 . S
C811 H867 0.930 . S
C812 N813 1.314 . S
C812 C817 1.353 . S
C812 H818 0.930 . S
N813 Li796 1.990 . S
N813 C812 1.314 . S
N813 C815 1.279 . S
C814 C815 1.358 . S
C814 C816 1.356 . S
C814 H868 0.930 . S
C815 N813 1.279 . S
C815 C814 1.358 . S
C815 H819 0.930 . S
C816 C814 1.356 . S
C816 C817 1.348 . S
C817 C812 1.353 . S
C817 C816 1.348 . S
C817 H869 0.929 . S
H818 C812 0.930 . S
H819 C815 0.930 . S
C820 N821 1.314 . S
C820 C822 1.353 . S
C820 H826 0.930 . S
N821 Li797 1.990 . S
N821 C820 1.314 . S
N821 C824 1.279 . S
C822 C820 1.353 . S
C822 C825 1.348 . S
C822 H870 0.929 . S
C823 C824 1.358 . S
C823 C825 1.356 . S
C823 H871 0.930 . S
C824 N821 1.279 . S
C824 C823 1.358 . S
C824 H827 0.930 . S
C825 C822 1.348 . S
C825 C823 1.356 . S
H826 C820 0.930 . S
H827 C824 0.930 . S
C828 C830 1.348 . S
C828 C831 1.356 . S
C828 O858 1.325 . S
N829 C832 1.314 . S
N829 C833 1.279 . S
C830 C828 1.348 . S
C830 C832 1.353 . S
C830 H872 0.929 . S
C831 C828 1.356 . S
C831 C833 1.358 . S
C831 H873 0.930 . S
C832 N829 1.314 . S
C832 C830 1.353 . S
C832 H874 0.930 . S
C833 N829 1.279 . S
C833 C831 1.358 . S
C833 H875 0.930 . S
C834 C835 1.348 . S
C834 C836 1.356 . S
C834 O859 1.325 . S
C835 C834 1.348 . S
C835 C837 1.353 . S
C835 H876 0.929 . S
C836 C834 1.356 . S
C836 C838 1.358 . S
C836 H877 0.930 . S
C837 C835 1.353 . S
C837 N839 1.314 . S
C837 H878 0.930 . S
C838 C836 1.358 . S
C838 N839 1.279 . S
C838 H879 0.930 . S
N839 C837 1.314 . S
N839 C838 1.279 . S
C840 C842 1.353 . S
C840 N843 1.314 . S
C840 H846 0.930 . S
C841 N843 1.279 . S
C841 C844 1.358 . S
C841 H847 0.930 . S
C842 C840 1.353 . S
C842 C845 1.348 . S
C842 H880 0.929 . S
N843 Li798 1.990 . S
N843 C840 1.314 . S
N843 C841 1.279 . S
C844 C841 1.358 . S
C844 C845 1.356 . S
C844 H881 0.930 1_554 S
C845 C842 1.348 . S
C845 C844 1.356 . S
H846 C840 0.930 . S
H847 C841 0.930 . S
C848 N849 1.314 . S
C848 C850 1.353 . S
C848 H854 0.930 . S
N849 Li799 1.990 . S
N849 C848 1.314 . S
N849 C852 1.279 . S
C850 C848 1.353 . S
C850 C853 1.348 . S
C850 H882 0.929 . S
C851 C852 1.358 . S
C851 C853 1.356 . S
C851 H883 0.930 . S
C852 N849 1.279 . S
C852 C851 1.358 . S
C852 H855 0.930 . S
C853 C850 1.348 . S
C853 C851 1.356 . S
H854 C848 0.930 . S
H855 C852 0.930 . S
O856 Li796 1.956 . S
O856 Li797 1.970 . S
O856 Li798 1.961 . S
O856 C800 1.325 . S
O857 Li796 1.970 . S
O857 Li797 1.956 . S
O857 Li799 1.961 . S
O857 C806 1.325 . S
O858 Li796 1.961 . S
O858 Li798 1.956 . S
O858 Li799 1.970 . S
O858 C828 1.325 . S
O859 Li797 1.961 . S
O859 Li798 1.970 . S
O859 Li799 1.956 . S
O859 C834 1.325 . S
H860 C802 0.929 . S
H861 C803 0.930 . S
H862 C804 0.930 . S
H863 C805 0.930 . S
H864 C807 0.930 . S
H865 C809 0.929 . S
H866 C810 0.930 . S
H867 C811 0.930 . S
H868 C814 0.930 . S
H869 C817 0.929 . S
H870 C822 0.929 . S
H871 C823 0.930 . S
H872 C830 0.929 . S
H873 C831 0.930 . S
H874 C832 0.930 . S
H875 C833 0.930 . S
H876 C835 0.929 . S
H877 C836 0.930 . S
H878 C837 0.930 . S
H879 C838 0.930 . S
H880 C842 0.929 . S
H881 C844 0.930 1_556 S
H882 C850 0.929 . S
H883 C851 0.930 . S
Li884 N901 1.990 . S
Li884 O944 1.956 . S
Li884 O945 1.970 . S
Li884 O946 1.961 . S
Li885 N909 1.990 . S
Li885 O944 1.970 . S
Li885 O945 1.956 . S
Li885 O947 1.961 . S
Li886 N931 1.990 . S
Li886 O944 1.961 . S
Li886 O946 1.956 . S
Li886 O947 1.970 . S
Li887 N937 1.990 . S
Li887 O945 1.961 . S
Li887 O946 1.970 . S
Li887 O947 1.956 . S
C888 C890 1.348 . S
C888 C891 1.356 . S
C888 O944 1.325 . S
N889 C892 1.314 . S
N889 C893 1.279 . S
C890 C888 1.348 . S
C890 C892 1.353 . S
C890 H948 0.929 . S
C891 C888 1.356 . S
C891 C893 1.358 . S
C891 H949 0.930 . S
C892 N889 1.314 . S
C892 C890 1.353 . S
C892 H950 0.930 . S
C893 N889 1.279 . S
C893 C891 1.358 . S
C893 H951 0.930 . S
C894 C897 1.348 . S
C894 C898 1.356 . S
C894 O945 1.325 . S
C895 N896 1.279 . S
C895 C898 1.358 . S
C895 H952 0.930 . S
N896 C895 1.279 . S
N896 C899 1.314 . S
C897 C894 1.348 . S
C897 C899 1.353 . S
C897 H953 0.929 . S
C898 C894 1.356 . S
C898 C895 1.358 . S
C898 H954 0.930 . S
C899 N896 1.314 . S
C899 C897 1.353 . S
C899 H955 0.930 . S
C900 N901 1.314 . S
C900 C905 1.353 . S
C900 H906 0.930 . S
N901 Li884 1.990 . S
N901 C900 1.314 . S
N901 C903 1.279 . S
C902 C903 1.358 . S
C902 C904 1.356 . S
C902 H956 0.930 . S
C903 N901 1.279 . S
C903 C902 1.358 . S
C903 H907 0.930 . S
C904 C902 1.356 . S
C904 C905 1.348 . S
C905 C900 1.353 . S
C905 C904 1.348 . S
C905 H957 0.929 . S
H906 C900 0.930 . S
H907 C903 0.930 . S
C908 N909 1.314 . S
C908 C910 1.353 . S
C908 H914 0.930 . S
N909 Li885 1.990 . S
N909 C908 1.314 . S
N909 C912 1.279 . S
C910 C908 1.353 . S
C910 C913 1.348 . S
C910 H958 0.929 . S
C911 C912 1.358 . S
C911 C913 1.356 . S
C911 H959 0.930 . S
C912 N909 1.279 . S
C912 C911 1.358 . S
C912 H915 0.930 . S
C913 C910 1.348 . S
C913 C911 1.356 . S
H914 C908 0.930 . S
H915 C912 0.930 . S
C916 C918 1.348 . S
C916 C919 1.356 . S
C916 O946 1.325 . S
N917 C920 1.314 . S
N917 C921 1.279 . S
C918 C916 1.348 . S
C918 C920 1.353 . S
C918 H960 0.929 . S
C919 C916 1.356 . S
C919 C921 1.358 . S
C919 H961 0.930 . S
C920 N917 1.314 . S
C920 C918 1.353 . S
C920 H962 0.930 . S
C921 N917 1.279 . S
C921 C919 1.358 . S
C921 H963 0.930 . S
C922 C923 1.348 . S
C922 C924 1.356 . S
C922 O947 1.325 . S
C923 C922 1.348 . S
C923 C925 1.353 . S
C923 H964 0.929 . S
C924 C922 1.356 . S
C924 C926 1.358 . S
C924 H965 0.930 . S
C925 C923 1.353 . S
C925 N927 1.314 . S
C925 H966 0.930 . S
C926 C924 1.358 . S
C926 N927 1.279 . S
C926 H967 0.930 . S
N927 C925 1.314 . S
N927 C926 1.279 . S
C928 C930 1.353 . S
C928 N931 1.314 . S
C928 H934 0.930 . S
C929 N931 1.279 . S
C929 C932 1.358 . S
C929 H935 0.930 . S
C930 C928 1.353 . S
C930 C933 1.348 . S
C930 H968 0.929 . S
N931 Li886 1.990 . S
N931 C928 1.314 . S
N931 C929 1.279 . S
C932 C929 1.358 . S
C932 C933 1.356 . S
C932 H969 0.930 . S
C933 C930 1.348 . S
C933 C932 1.356 . S
H934 C928 0.930 . S
H935 C929 0.930 . S
C936 N937 1.314 . S
C936 C938 1.353 . S
C936 H942 0.930 . S
N937 Li887 1.990 . S
N937 C936 1.314 . S
N937 C940 1.279 . S
C938 C936 1.353 . S
C938 C941 1.348 . S
C938 H970 0.929 . S
C939 C940 1.358 . S
C939 C941 1.356 . S
C939 H971 0.930 . S
C940 N937 1.279 . S
C940 C939 1.358 . S
C940 H943 0.930 . S
C941 C938 1.348 . S
C941 C939 1.356 . S
H942 C936 0.930 . S
H943 C940 0.930 . S
O944 Li884 1.956 . S
O944 Li885 1.970 . S
O944 Li886 1.961 . S
O944 C888 1.325 . S
O945 Li884 1.970 . S
O945 Li885 1.956 . S
O945 Li887 1.961 . S
O945 C894 1.325 . S
O946 Li884 1.961 . S
O946 Li886 1.956 . S
O946 Li887 1.970 . S
O946 C916 1.325 . S
O947 Li885 1.961 . S
O947 Li886 1.970 . S
O947 Li887 1.956 . S
O947 C922 1.325 . S
H948 C890 0.929 . S
H949 C891 0.930 . S
H950 C892 0.930 . S
H951 C893 0.930 . S
H952 C895 0.930 . S
H953 C897 0.929 . S
H954 C898 0.930 . S
H955 C899 0.930 . S
H956 C902 0.930 . S
H957 C905 0.929 . S
H958 C910 0.929 . S
H959 C911 0.930 . S
H960 C918 0.929 . S
H961 C919 0.930 . S
H962 C920 0.930 . S
H963 C921 0.930 . S
H964 C923 0.929 . S
H965 C924 0.930 . S
H966 C925 0.930 . S
H967 C926 0.930 . S
H968 C930 0.929 . S
H969 C932 0.930 . S
H970 C938 0.929 . S
H971 C939 0.930 . S
C972 C973 1.391 . S
C972 C974 1.394 . S
C972 H988 0.931 . S
C973 C972 1.391 . S
C973 C977 1.376 . S
C974 C972 1.394 . S
C974 C975 1.369 . S
C974 C978 1.531 . S
C975 C974 1.369 . S
C975 C976 1.410 . S
C975 C983 1.503 . S
C976 C975 1.410 . S
C976 C977 1.392 . S
C976 C979 1.511 . S
C977 C973 1.376 . S
C977 C976 1.392 . S
C977 H989 0.929 . S
C978 C974 1.531 . S
C978 H990 0.960 . S
C978 H991 0.962 . S
C978 H992 0.960 . S
C979 C976 1.511 . S
C979 H993 0.961 . S
C979 H994 0.961 . S
C979 H995 0.961 . S
C980 C981 1.370 . S
C980 C982 1.363 . S
C980 H996 0.931 . S
C981 C980 1.370 . S
C981 C985 1.408 . S
C982 C980 1.363 . S
C982 C983 1.370 . S
C982 C986 1.524 . S
C983 C975 1.503 . S
C983 C982 1.370 . S
C983 C984 1.403 . S
C984 C983 1.403 . S
C984 C985 1.404 . S
C984 C987 1.539 . S
C985 C981 1.408 . S
C985 C984 1.404 . S
C985 H997 0.930 . S
C986 C982 1.524 . S
C986 H998 0.956 . S
C986 H999 0.961 . S
C986 H1000 0.961 . S
C987 C984 1.539 . S
C987 H1001 0.958 . S
C987 H1002 0.961 . S
C987 H1003 0.960 . S
H988 C972 0.931 . S
H989 C977 0.929 . S
H990 C978 0.960 . S
H991 C978 0.962 . S
H992 C978 0.960 . S
H993 C979 0.961 . S
H994 C979 0.961 . S
H995 C979 0.961 . S
H996 C980 0.931 . S
H997 C985 0.930 . S
H998 C986 0.956 . S
H999 C986 0.961 . S
H1000 C986 0.961 . S
H1001 C987 0.958 . S
H1002 C987 0.961 . S
H1003 C987 0.960 . S
C1004 C1005 1.391 . S
C1004 C1006 1.394 . S
C1004 H1020 0.931 . S
C1005 C1004 1.391 . S
C1005 C1009 1.376 . S
C1006 C1004 1.394 . S
C1006 C1007 1.369 . S
C1006 C1010 1.531 . S
C1007 C1006 1.369 . S
C1007 C1008 1.410 . S
C1007 C1015 1.503 . S
C1008 C1007 1.410 . S
C1008 C1009 1.392 . S
C1008 C1011 1.511 . S
C1009 C1005 1.376 . S
C1009 C1008 1.392 . S
C1009 H1021 0.929 . S
C1010 C1006 1.531 . S
C1010 H1022 0.960 . S
C1010 H1023 0.962 . S
C1010 H1024 0.960 . S
C1011 C1008 1.511 . S
C1011 H1025 0.961 . S
C1011 H1026 0.961 . S
C1011 H1027 0.961 . S
C1012 C1013 1.370 . S
C1012 C1014 1.363 . S
C1012 H1028 0.931 . S
C1013 C1012 1.370 . S
C1013 C1017 1.408 . S
C1014 C1012 1.363 . S
C1014 C1015 1.370 . S
C1014 C1018 1.524 . S
C1015 C1007 1.503 . S
C1015 C1014 1.370 . S
C1015 C1016 1.403 . S
C1016 C1015 1.403 . S
C1016 C1017 1.404 . S
C1016 C1019 1.539 . S
C1017 C1013 1.408 . S
C1017 C1016 1.404 . S
C1017 H1029 0.930 . S
C1018 C1014 1.524 . S
C1018 H1030 0.956 . S
C1018 H1031 0.961 . S
C1018 H1032 0.961 . S
C1019 C1016 1.539 . S
C1019 H1033 0.958 . S
C1019 H1034 0.961 . S
C1019 H1035 0.960 . S
H1020 C1004 0.931 . S
H1021 C1009 0.929 . S
H1022 C1010 0.960 . S
H1023 C1010 0.962 . S
H1024 C1010 0.960 . S
H1025 C1011 0.961 . S
H1026 C1011 0.961 . S
H1027 C1011 0.961 . S
H1028 C1012 0.931 . S
H1029 C1017 0.930 . S
H1030 C1018 0.956 . S
H1031 C1018 0.961 . S
H1032 C1018 0.961 . S
H1033 C1019 0.958 . S
H1034 C1019 0.961 . S
H1035 C1019 0.960 . S
C1036 C1037 1.391 . S
C1036 C1038 1.394 . S
C1036 H1052 0.931 . S
C1037 C1036 1.391 . S
C1037 C1041 1.376 . S
C1038 C1036 1.394 . S
C1038 C1039 1.369 . S
C1038 C1042 1.531 . S
C1039 C1038 1.369 . S
C1039 C1040 1.410 . S
C1039 C1047 1.503 . S
C1040 C1039 1.410 . S
C1040 C1041 1.392 . S
C1040 C1043 1.511 . S
C1041 C1037 1.376 . S
C1041 C1040 1.392 . S
C1041 H1053 0.929 . S
C1042 C1038 1.531 . S
C1042 H1054 0.960 . S
C1042 H1055 0.962 . S
C1042 H1056 0.960 . S
C1043 C1040 1.511 . S
C1043 H1057 0.961 . S
C1043 H1058 0.961 . S
C1043 H1059 0.961 . S
C1044 C1045 1.370 . S
C1044 C1046 1.363 . S
C1044 H1060 0.931 . S
C1045 C1044 1.370 . S
C1045 C1049 1.408 . S
C1046 C1044 1.363 . S
C1046 C1047 1.370 . S
C1046 C1050 1.524 . S
C1047 C1039 1.503 . S
C1047 C1046 1.370 . S
C1047 C1048 1.403 . S
C1048 C1047 1.403 . S
C1048 C1049 1.404 . S
C1048 C1051 1.539 . S
C1049 C1045 1.408 . S
C1049 C1048 1.404 . S
C1049 H1061 0.930 . S
C1050 C1046 1.524 . S
C1050 H1062 0.956 . S
C1050 H1063 0.961 . S
C1050 H1064 0.961 . S
C1051 C1048 1.539 . S
C1051 H1065 0.958 . S
C1051 H1066 0.961 . S
C1051 H1067 0.960 . S
H1052 C1036 0.931 . S
H1053 C1041 0.929 . S
H1054 C1042 0.960 . S
H1055 C1042 0.962 . S
H1056 C1042 0.960 . S
H1057 C1043 0.961 . S
H1058 C1043 0.961 . S
H1059 C1043 0.961 . S
H1060 C1044 0.931 . S
H1061 C1049 0.930 . S
H1062 C1050 0.956 . S
H1063 C1050 0.961 . S
H1064 C1050 0.961 . S
H1065 C1051 0.958 . S
H1066 C1051 0.961 . S
H1067 C1051 0.960 . S
C1068 C1069 1.391 . S
C1068 C1070 1.394 . S
C1068 H1084 0.931 . S
C1069 C1068 1.391 . S
C1069 C1073 1.376 . S
C1070 C1068 1.394 . S
C1070 C1071 1.369 . S
C1070 C1074 1.531 . S
C1071 C1070 1.369 . S
C1071 C1072 1.410 . S
C1071 C1079 1.503 . S
C1072 C1071 1.410 . S
C1072 C1073 1.392 . S
C1072 C1075 1.511 . S
C1073 C1069 1.376 . S
C1073 C1072 1.392 . S
C1073 H1085 0.929 . S
C1074 C1070 1.531 . S
C1074 H1086 0.960 . S
C1074 H1087 0.962 . S
C1074 H1088 0.960 . S
C1075 C1072 1.511 . S
C1075 H1089 0.961 . S
C1075 H1090 0.961 . S
C1075 H1091 0.961 . S
C1076 C1077 1.370 . S
C1076 C1078 1.363 . S
C1076 H1092 0.931 . S
C1077 C1076 1.370 . S
C1077 C1081 1.408 . S
C1078 C1076 1.363 . S
C1078 C1079 1.370 . S
C1078 C1082 1.524 . S
C1079 C1071 1.503 . S
C1079 C1078 1.370 . S
C1079 C1080 1.403 . S
C1080 C1079 1.403 . S
C1080 C1081 1.404 . S
C1080 C1083 1.539 . S
C1081 C1077 1.408 . S
C1081 C1080 1.404 . S
C1081 H1093 0.930 . S
C1082 C1078 1.524 . S
C1082 H1094 0.956 . S
C1082 H1095 0.961 . S
C1082 H1096 0.961 . S
C1083 C1080 1.539 . S
C1083 H1097 0.958 . S
C1083 H1098 0.961 . S
C1083 H1099 0.960 . S
H1084 C1068 0.931 . S
H1085 C1073 0.929 . S
H1086 C1074 0.960 . S
H1087 C1074 0.962 . S
H1088 C1074 0.960 . S
H1089 C1075 0.961 . S
H1090 C1075 0.961 . S
H1091 C1075 0.961 . S
H1092 C1076 0.931 . S
H1093 C1081 0.930 . S
H1094 C1082 0.956 . S
H1095 C1082 0.961 . S
H1096 C1082 0.961 . S
H1097 C1083 0.958 . S
H1098 C1083 0.961 . S
H1099 C1083 0.960 . S
C1100 C1101 1.391 . S
C1100 C1102 1.394 . S
C1100 H1116 0.931 . S
C1101 C1100 1.391 . S
C1101 C1105 1.376 . S
C1102 C1100 1.394 . S
C1102 C1103 1.369 . S
C1102 C1106 1.531 . S
C1103 C1102 1.369 . S
C1103 C1104 1.410 . S
C1103 C1111 1.503 . S
C1104 C1103 1.410 . S
C1104 C1105 1.392 . S
C1104 C1107 1.511 . S
C1105 C1101 1.376 . S
C1105 C1104 1.392 . S
C1105 H1117 0.929 . S
C1106 C1102 1.531 . S
C1106 H1118 0.960 . S
C1106 H1119 0.962 . S
C1106 H1120 0.960 . S
C1107 C1104 1.511 . S
C1107 H1121 0.961 . S
C1107 H1122 0.961 . S
C1107 H1123 0.961 . S
C1108 C1109 1.370 . S
C1108 C1110 1.363 . S
C1108 H1124 0.931 . S
C1109 C1108 1.370 . S
C1109 C1113 1.408 . S
C1110 C1108 1.363 . S
C1110 C1111 1.370 . S
C1110 C1114 1.524 . S
C1111 C1103 1.503 . S
C1111 C1110 1.370 . S
C1111 C1112 1.403 . S
C1112 C1111 1.403 . S
C1112 C1113 1.404 . S
C1112 C1115 1.539 . S
C1113 C1109 1.408 . S
C1113 C1112 1.404 . S
C1113 H1125 0.930 . S
C1114 C1110 1.524 . S
C1114 H1126 0.956 . S
C1114 H1127 0.961 . S
C1114 H1128 0.961 . S
C1115 C1112 1.539 . S
C1115 H1129 0.958 . S
C1115 H1130 0.961 . S
C1115 H1131 0.960 . S
H1116 C1100 0.931 . S
H1117 C1105 0.929 . S
H1118 C1106 0.960 . S
H1119 C1106 0.962 . S
H1120 C1106 0.960 . S
H1121 C1107 0.961 . S
H1122 C1107 0.961 . S
H1123 C1107 0.961 . S
H1124 C1108 0.931 . S
H1125 C1113 0.930 . S
H1126 C1114 0.956 . S
H1127 C1114 0.961 . S
H1128 C1114 0.961 . S
H1129 C1115 0.958 . S
H1130 C1115 0.961 . S
H1131 C1115 0.960 . S
C1132 C1133 1.391 . S
C1132 C1134 1.394 . S
C1132 H1148 0.931 . S
C1133 C1132 1.391 . S
C1133 C1137 1.376 . S
C1134 C1132 1.394 . S
C1134 C1135 1.369 . S
C1134 C1138 1.531 . S
C1135 C1134 1.369 . S
C1135 C1136 1.410 . S
C1135 C1143 1.503 . S
C1136 C1135 1.410 . S
C1136 C1137 1.392 . S
C1136 C1139 1.511 . S
C1137 C1133 1.376 . S
C1137 C1136 1.392 . S
C1137 H1149 0.929 . S
C1138 C1134 1.531 . S
C1138 H1150 0.960 . S
C1138 H1151 0.962 . S
C1138 H1152 0.960 . S
C1139 C1136 1.511 . S
C1139 H1153 0.961 . S
C1139 H1154 0.961 . S
C1139 H1155 0.961 . S
C1140 C1141 1.370 . S
C1140 C1142 1.363 . S
C1140 H1156 0.931 . S
C1141 C1140 1.370 . S
C1141 C1145 1.408 . S
C1142 C1140 1.363 . S
C1142 C1143 1.370 . S
C1142 C1146 1.524 . S
C1143 C1135 1.503 . S
C1143 C1142 1.370 . S
C1143 C1144 1.403 . S
C1144 C1143 1.403 . S
C1144 C1145 1.404 . S
C1144 C1147 1.539 . S
C1145 C1141 1.408 . S
C1145 C1144 1.404 . S
C1145 H1157 0.930 . S
C1146 C1142 1.524 . S
C1146 H1158 0.956 . S
C1146 H1159 0.961 . S
C1146 H1160 0.961 . S
C1147 C1144 1.539 . S
C1147 H1161 0.958 . S
C1147 H1162 0.961 . S
C1147 H1163 0.960 . S
H1148 C1132 0.931 . S
H1149 C1137 0.929 . S
H1150 C1138 0.960 . S
H1151 C1138 0.962 . S
H1152 C1138 0.960 . S
H1153 C1139 0.961 . S
H1154 C1139 0.961 . S
H1155 C1139 0.961 . S
H1156 C1140 0.931 . S
H1157 C1145 0.930 . S
H1158 C1146 0.956 . S
H1159 C1146 0.961 . S
H1160 C1146 0.961 . S
H1161 C1147 0.958 . S
H1162 C1147 0.961 . S
H1163 C1147 0.960 . S
C1164 C1165 1.391 . S
C1164 C1166 1.394 . S
C1164 H1180 0.931 . S
C1165 C1164 1.391 . S
C1165 C1169 1.376 . S
C1166 C1164 1.394 . S
C1166 C1167 1.369 . S
C1166 C1170 1.531 . S
C1167 C1166 1.369 . S
C1167 C1168 1.410 . S
C1167 C1175 1.503 . S
C1168 C1167 1.410 . S
C1168 C1169 1.392 . S
C1168 C1171 1.511 . S
C1169 C1165 1.376 . S
C1169 C1168 1.392 . S
C1169 H1181 0.929 . S
C1170 C1166 1.531 . S
C1170 H1182 0.960 . S
C1170 H1183 0.962 . S
C1170 H1184 0.960 . S
C1171 C1168 1.511 . S
C1171 H1185 0.961 . S
C1171 H1186 0.961 . S
C1171 H1187 0.961 . S
C1172 C1173 1.370 . S
C1172 C1174 1.363 . S
C1172 H1188 0.931 . S
C1173 C1172 1.370 . S
C1173 C1177 1.408 . S
C1174 C1172 1.363 . S
C1174 C1175 1.370 . S
C1174 C1178 1.524 . S
C1175 C1167 1.503 . S
C1175 C1174 1.370 . S
C1175 C1176 1.403 . S
C1176 C1175 1.403 . S
C1176 C1177 1.404 . S
C1176 C1179 1.539 . S
C1177 C1173 1.408 . S
C1177 C1176 1.404 . S
C1177 H1189 0.930 . S
C1178 C1174 1.524 . S
C1178 H1190 0.956 . S
C1178 H1191 0.961 . S
C1178 H1192 0.961 . S
C1179 C1176 1.539 . S
C1179 H1193 0.958 . S
C1179 H1194 0.961 . S
C1179 H1195 0.960 . S
H1180 C1164 0.931 . S
H1181 C1169 0.929 . S
H1182 C1170 0.960 . S
H1183 C1170 0.962 . S
H1184 C1170 0.960 . S
H1185 C1171 0.961 . S
H1186 C1171 0.961 . S
H1187 C1171 0.961 . S
H1188 C1172 0.931 . S
H1189 C1177 0.930 . S
H1190 C1178 0.956 . S
H1191 C1178 0.961 . S
H1192 C1178 0.961 . S
H1193 C1179 0.958 . S
H1194 C1179 0.961 . S
H1195 C1179 0.960 . S
C1196 C1197 1.391 . S
C1196 C1198 1.394 . S
C1196 H1212 0.931 . S
C1197 C1196 1.391 . S
C1197 C1201 1.376 . S
C1198 C1196 1.394 . S
C1198 C1199 1.369 . S
C1198 C1202 1.531 . S
C1199 C1198 1.369 . S
C1199 C1200 1.410 . S
C1199 C1207 1.503 . S
C1200 C1199 1.410 . S
C1200 C1201 1.392 . S
C1200 C1203 1.511 . S
C1201 C1197 1.376 . S
C1201 C1200 1.392 . S
C1201 H1213 0.929 . S
C1202 C1198 1.531 . S
C1202 H1214 0.960 . S
C1202 H1215 0.962 . S
C1202 H1216 0.960 . S
C1203 C1200 1.511 . S
C1203 H1217 0.961 . S
C1203 H1218 0.961 . S
C1203 H1219 0.961 . S
C1204 C1205 1.370 . S
C1204 C1206 1.363 . S
C1204 H1220 0.931 . S
C1205 C1204 1.370 . S
C1205 C1209 1.408 . S
C1206 C1204 1.363 . S
C1206 C1207 1.370 . S
C1206 C1210 1.524 . S
C1207 C1199 1.503 . S
C1207 C1206 1.370 . S
C1207 C1208 1.403 . S
C1208 C1207 1.403 . S
C1208 C1209 1.404 . S
C1208 C1211 1.539 . S
C1209 C1205 1.408 . S
C1209 C1208 1.404 . S
C1209 H1221 0.930 . S
C1210 C1206 1.524 . S
C1210 H1222 0.956 . S
C1210 H1223 0.961 . S
C1210 H1224 0.961 . S
C1211 C1208 1.539 . S
C1211 H1225 0.958 . S
C1211 H1226 0.961 . S
C1211 H1227 0.960 . S
H1212 C1196 0.931 . S
H1213 C1201 0.929 . S
H1214 C1202 0.960 . S
H1215 C1202 0.962 . S
H1216 C1202 0.960 . S
H1217 C1203 0.961 . S
H1218 C1203 0.961 . S
H1219 C1203 0.961 . S
H1220 C1204 0.931 . S
H1221 C1209 0.930 . S
H1222 C1210 0.956 . S
H1223 C1210 0.961 . S
H1224 C1210 0.961 . S
H1225 C1211 0.958 . S
H1226 C1211 0.961 . S
H1227 C1211 0.960 . S
C1228 C1229 1.391 . S
C1228 C1230 1.394 . S
C1228 H1244 0.931 . S
C1229 C1228 1.391 . S
C1229 C1233 1.376 . S
C1230 C1228 1.394 . S
C1230 C1231 1.369 . S
C1230 C1234 1.531 . S
C1231 C1230 1.369 . S
C1231 C1232 1.410 . S
C1231 C1239 1.503 . S
C1232 C1231 1.410 . S
C1232 C1233 1.392 . S
C1232 C1235 1.511 . S
C1233 C1229 1.376 . S
C1233 C1232 1.392 . S
C1233 H1245 0.929 . S
C1234 C1230 1.531 . S
C1234 H1246 0.960 . S
C1234 H1247 0.962 . S
C1234 H1248 0.960 . S
C1235 C1232 1.511 . S
C1235 H1249 0.961 . S
C1235 H1250 0.961 . S
C1235 H1251 0.961 . S
C1236 C1237 1.370 . S
C1236 C1238 1.363 . S
C1236 H1252 0.931 . S
C1237 C1236 1.370 . S
C1237 C1241 1.408 . S
C1238 C1236 1.363 . S
C1238 C1239 1.370 . S
C1238 C1242 1.524 . S
C1239 C1231 1.503 . S
C1239 C1238 1.370 . S
C1239 C1240 1.403 . S
C1240 C1239 1.403 . S
C1240 C1241 1.404 . S
C1240 C1243 1.539 . S
C1241 C1237 1.408 . S
C1241 C1240 1.404 . S
C1241 H1253 0.930 . S
C1242 C1238 1.524 . S
C1242 H1254 0.956 . S
C1242 H1255 0.961 . S
C1242 H1256 0.961 . S
C1243 C1240 1.539 . S
C1243 H1257 0.958 . S
C1243 H1258 0.961 . S
C1243 H1259 0.960 . S
H1244 C1228 0.931 . S
H1245 C1233 0.929 . S
H1246 C1234 0.960 . S
H1247 C1234 0.962 . S
H1248 C1234 0.960 . S
H1249 C1235 0.961 . S
H1250 C1235 0.961 . S
H1251 C1235 0.961 . S
H1252 C1236 0.931 . S
H1253 C1241 0.930 . S
H1254 C1242 0.956 . S
H1255 C1242 0.961 . S
H1256 C1242 0.961 . S
H1257 C1243 0.958 . S
H1258 C1243 0.961 . S
H1259 C1243 0.960 . S
C1260 C1261 1.391 . S
C1260 C1262 1.394 . S
C1260 H1276 0.931 . S
C1261 C1260 1.391 . S
C1261 C1265 1.376 . S
C1262 C1260 1.394 . S
C1262 C1263 1.369 . S
C1262 C1266 1.531 . S
C1263 C1262 1.369 . S
C1263 C1264 1.410 . S
C1263 C1271 1.503 . S
C1264 C1263 1.410 . S
C1264 C1265 1.392 . S
C1264 C1267 1.511 . S
C1265 C1261 1.376 . S
C1265 C1264 1.392 . S
C1265 H1277 0.929 . S
C1266 C1262 1.531 . S
C1266 H1278 0.960 . S
C1266 H1279 0.962 . S
C1266 H1280 0.960 1_554 S
C1267 C1264 1.511 . S
C1267 H1281 0.961 . S
C1267 H1282 0.961 . S
C1267 H1283 0.961 . S
C1268 C1269 1.370 . S
C1268 C1270 1.363 . S
C1268 H1284 0.931 . S
C1269 C1268 1.370 . S
C1269 C1273 1.408 . S
C1270 C1268 1.363 . S
C1270 C1271 1.370 . S
C1270 C1274 1.524 . S
C1271 C1263 1.503 . S
C1271 C1270 1.370 . S
C1271 C1272 1.403 . S
C1272 C1271 1.403 . S
C1272 C1273 1.404 . S
C1272 C1275 1.539 . S
C1273 C1269 1.408 . S
C1273 C1272 1.404 . S
C1273 H1285 0.930 . S
C1274 C1270 1.524 . S
C1274 H1286 0.956 . S
C1274 H1287 0.961 . S
C1274 H1288 0.961 . S
C1275 C1272 1.539 . S
C1275 H1289 0.958 . S
C1275 H1290 0.961 . S
C1275 H1291 0.960 . S
H1276 C1260 0.931 . S
H1277 C1265 0.929 . S
H1278 C1266 0.960 . S
H1279 C1266 0.962 . S
H1280 C1266 0.960 1_556 S
H1281 C1267 0.961 . S
H1282 C1267 0.961 . S
H1283 C1267 0.961 . S
H1284 C1268 0.931 . S
H1285 C1273 0.930 . S
H1286 C1274 0.956 . S
H1287 C1274 0.961 . S
H1288 C1274 0.961 . S
H1289 C1275 0.958 . S
H1290 C1275 0.961 . S
H1291 C1275 0.960 . S
C1292 C1293 1.391 . S
C1292 C1294 1.394 . S
C1292 H1308 0.931 . S
C1293 C1292 1.391 . S
C1293 C1297 1.376 . S
C1294 C1292 1.394 . S
C1294 C1295 1.369 . S
C1294 C1298 1.531 . S
C1295 C1294 1.369 . S
C1295 C1296 1.410 . S
C1295 C1303 1.503 . S
C1296 C1295 1.410 . S
C1296 C1297 1.392 . S
C1296 C1299 1.511 . S
C1297 C1293 1.376 . S
C1297 C1296 1.392 . S
C1297 H1309 0.929 . S
C1298 C1294 1.531 . S
C1298 H1310 0.960 . S
C1298 H1311 0.962 . S
C1298 H1312 0.960 . S
C1299 C1296 1.511 . S
C1299 H1313 0.961 . S
C1299 H1314 0.961 . S
C1299 H1315 0.961 . S
C1300 C1301 1.370 . S
C1300 C1302 1.363 . S
C1300 H1316 0.931 . S
C1301 C1300 1.370 . S
C1301 C1305 1.408 . S
C1302 C1300 1.363 . S
C1302 C1303 1.370 . S
C1302 C1306 1.524 . S
C1303 C1295 1.503 . S
C1303 C1302 1.370 . S
C1303 C1304 1.403 . S
C1304 C1303 1.403 . S
C1304 C1305 1.404 . S
C1304 C1307 1.539 . S
C1305 C1301 1.408 . S
C1305 C1304 1.404 . S
C1305 H1317 0.930 . S
C1306 C1302 1.524 . S
C1306 H1318 0.956 . S
C1306 H1319 0.961 . S
C1306 H1320 0.961 . S
C1307 C1304 1.539 . S
C1307 H1321 0.958 . S
C1307 H1322 0.961 . S
C1307 H1323 0.960 . S
H1308 C1292 0.931 . S
H1309 C1297 0.929 . S
H1310 C1298 0.960 . S
H1311 C1298 0.962 . S
H1312 C1298 0.960 . S
H1313 C1299 0.961 . S
H1314 C1299 0.961 . S
H1315 C1299 0.961 . S
H1316 C1300 0.931 . S
H1317 C1305 0.930 . S
H1318 C1306 0.956 . S
H1319 C1306 0.961 . S
H1320 C1306 0.961 . S
H1321 C1307 0.958 . S
H1322 C1307 0.961 . S
H1323 C1307 0.960 . S
C1324 C1325 1.391 . S
C1324 C1326 1.394 . S
C1324 H1340 0.931 . S
C1325 C1324 1.391 . S
C1325 C1329 1.376 . S
C1326 C1324 1.394 . S
C1326 C1327 1.369 . S
C1326 C1330 1.531 . S
C1327 C1326 1.369 . S
C1327 C1328 1.410 . S
C1327 C1335 1.503 . S
C1328 C1327 1.410 . S
C1328 C1329 1.392 . S
C1328 C1331 1.511 . S
C1329 C1325 1.376 . S
C1329 C1328 1.392 . S
C1329 H1341 0.929 . S
C1330 C1326 1.531 . S
C1330 H1342 0.960 . S
C1330 H1343 0.962 . S
C1330 H1344 0.960 . S
C1331 C1328 1.511 . S
C1331 H1345 0.961 . S
C1331 H1346 0.961 . S
C1331 H1347 0.961 . S
C1332 C1333 1.370 . S
C1332 C1334 1.363 . S
C1332 H1348 0.931 . S
C1333 C1332 1.370 . S
C1333 C1337 1.408 . S
C1334 C1332 1.363 . S
C1334 C1335 1.370 . S
C1334 C1338 1.524 . S
C1335 C1327 1.503 . S
C1335 C1334 1.370 . S
C1335 C1336 1.403 . S
C1336 C1335 1.403 . S
C1336 C1337 1.404 . S
C1336 C1339 1.539 . S
C1337 C1333 1.408 . S
C1337 C1336 1.404 . S
C1337 H1349 0.930 . S
C1338 C1334 1.524 . S
C1338 H1350 0.956 . S
C1338 H1351 0.961 . S
C1338 H1352 0.961 . S
C1339 C1336 1.539 . S
C1339 H1353 0.958 . S
C1339 H1354 0.961 . S
C1339 H1355 0.960 . S
H1340 C1324 0.931 . S
H1341 C1329 0.929 . S
H1342 C1330 0.960 . S
H1343 C1330 0.962 . S
H1344 C1330 0.960 . S
H1345 C1331 0.961 . S
H1346 C1331 0.961 . S
H1347 C1331 0.961 . S
H1348 C1332 0.931 . S
H1349 C1337 0.930 . S
H1350 C1338 0.956 . S
H1351 C1338 0.961 . S
H1352 C1338 0.961 . S
H1353 C1339 0.958 . S
H1354 C1339 0.961 . S
H1355 C1339 0.960 . S
C1356 C1357 1.391 . S
C1356 C1358 1.394 . S
C1356 H1372 0.931 . S
C1357 C1356 1.391 . S
C1357 C1361 1.376 . S
C1358 C1356 1.394 . S
C1358 C1359 1.369 . S
C1358 C1362 1.531 . S
C1359 C1358 1.369 . S
C1359 C1360 1.410 . S
C1359 C1367 1.503 . S
C1360 C1359 1.410 . S
C1360 C1361 1.392 . S
C1360 C1363 1.511 . S
C1361 C1357 1.376 . S
C1361 C1360 1.392 . S
C1361 H1373 0.929 . S
C1362 C1358 1.531 . S
C1362 H1374 0.960 . S
C1362 H1375 0.962 . S
C1362 H1376 0.960 . S
C1363 C1360 1.511 . S
C1363 H1377 0.961 . S
C1363 H1378 0.961 . S
C1363 H1379 0.961 . S
C1364 C1365 1.370 . S
C1364 C1366 1.363 . S
C1364 H1380 0.931 . S
C1365 C1364 1.370 . S
C1365 C1369 1.408 . S
C1366 C1364 1.363 . S
C1366 C1367 1.370 . S
C1366 C1370 1.524 . S
C1367 C1359 1.503 . S
C1367 C1366 1.370 . S
C1367 C1368 1.403 . S
C1368 C1367 1.403 . S
C1368 C1369 1.404 . S
C1368 C1371 1.539 . S
C1369 C1365 1.408 . S
C1369 C1368 1.404 . S
C1369 H1381 0.930 . S
C1370 C1366 1.524 . S
C1370 H1382 0.956 . S
C1370 H1383 0.961 . S
C1370 H1384 0.961 . S
C1371 C1368 1.539 . S
C1371 H1385 0.958 . S
C1371 H1386 0.961 . S
C1371 H1387 0.960 . S
H1372 C1356 0.931 . S
H1373 C1361 0.929 . S
H1374 C1362 0.960 . S
H1375 C1362 0.962 . S
H1376 C1362 0.960 . S
H1377 C1363 0.961 . S
H1378 C1363 0.961 . S
H1379 C1363 0.961 . S
H1380 C1364 0.931 . S
H1381 C1369 0.930 . S
H1382 C1370 0.956 . S
H1383 C1370 0.961 . S
H1384 C1370 0.961 . S
H1385 C1371 0.958 . S
H1386 C1371 0.961 . S
H1387 C1371 0.960 . S
C1388 C1389 1.391 . S
C1388 C1390 1.394 . S
C1388 H1404 0.931 . S
C1389 C1388 1.391 . S
C1389 C1393 1.376 . S
C1390 C1388 1.394 . S
C1390 C1391 1.369 . S
C1390 C1394 1.531 . S
C1391 C1390 1.369 . S
C1391 C1392 1.410 . S
C1391 C1399 1.503 . S
C1392 C1391 1.410 . S
C1392 C1393 1.392 . S
C1392 C1395 1.511 . S
C1393 C1389 1.376 . S
C1393 C1392 1.392 . S
C1393 H1405 0.929 . S
C1394 C1390 1.531 . S
C1394 H1406 0.960 . S
C1394 H1407 0.962 . S
C1394 H1408 0.960 . S
C1395 C1392 1.511 . S
C1395 H1409 0.961 . S
C1395 H1410 0.961 . S
C1395 H1411 0.961 . S
C1396 C1397 1.370 . S
C1396 C1398 1.363 . S
C1396 H1412 0.931 . S
C1397 C1396 1.370 . S
C1397 C1401 1.408 . S
C1398 C1396 1.363 . S
C1398 C1399 1.370 . S
C1398 C1402 1.524 . S
C1399 C1391 1.503 . S
C1399 C1398 1.370 . S
C1399 C1400 1.403 . S
C1400 C1399 1.403 . S
C1400 C1401 1.404 . S
C1400 C1403 1.539 . S
C1401 C1397 1.408 . S
C1401 C1400 1.404 . S
C1401 H1413 0.930 . S
C1402 C1398 1.524 . S
C1402 H1414 0.956 . S
C1402 H1415 0.961 . S
C1402 H1416 0.961 . S
C1403 C1400 1.539 . S
C1403 H1417 0.958 . S
C1403 H1418 0.961 . S
C1403 H1419 0.960 . S
H1404 C1388 0.931 . S
H1405 C1393 0.929 . S
H1406 C1394 0.960 . S
H1407 C1394 0.962 . S
H1408 C1394 0.960 . S
H1409 C1395 0.961 . S
H1410 C1395 0.961 . S
H1411 C1395 0.961 . S
H1412 C1396 0.931 . S
H1413 C1401 0.930 . S
H1414 C1402 0.956 . S
H1415 C1402 0.961 . S
H1416 C1402 0.961 . S
H1417 C1403 0.958 . S
H1418 C1403 0.961 . S
H1419 C1403 0.960 . S
C1420 C1421 1.391 . S
C1420 C1422 1.394 . S
C1420 H1436 0.931 . S
C1421 C1420 1.391 . S
C1421 C1425 1.376 . S
C1422 C1420 1.394 . S
C1422 C1423 1.369 . S
C1422 C1426 1.531 . S
C1423 C1422 1.369 . S
C1423 C1424 1.410 . S
C1423 C1431 1.503 . S
C1424 C1423 1.410 . S
C1424 C1425 1.392 . S
C1424 C1427 1.511 . S
C1425 C1421 1.376 . S
C1425 C1424 1.392 . S
C1425 H1437 0.929 . S
C1426 C1422 1.531 . S
C1426 H1438 0.960 . S
C1426 H1439 0.962 . S
C1426 H1440 0.960 . S
C1427 C1424 1.511 . S
C1427 H1441 0.961 . S
C1427 H1442 0.961 . S
C1427 H1443 0.961 . S
C1428 C1429 1.370 . S
C1428 C1430 1.363 . S
C1428 H1444 0.931 . S
C1429 C1428 1.370 . S
C1429 C1433 1.408 . S
C1430 C1428 1.363 . S
C1430 C1431 1.370 . S
C1430 C1434 1.524 . S
C1431 C1423 1.503 . S
C1431 C1430 1.370 . S
C1431 C1432 1.403 . S
C1432 C1431 1.403 . S
C1432 C1433 1.404 . S
C1432 C1435 1.539 . S
C1433 C1429 1.408 . S
C1433 C1432 1.404 . S
C1433 H1445 0.930 . S
C1434 C1430 1.524 . S
C1434 H1446 0.956 . S
C1434 H1447 0.961 . S
C1434 H1448 0.961 . S
C1435 C1432 1.539 . S
C1435 H1449 0.958 . S
C1435 H1450 0.961 . S
C1435 H1451 0.960 . S
H1436 C1420 0.931 . S
H1437 C1425 0.929 . S
H1438 C1426 0.960 . S
H1439 C1426 0.962 . S
H1440 C1426 0.960 . S
H1441 C1427 0.961 . S
H1442 C1427 0.961 . S
H1443 C1427 0.961 . S
H1444 C1428 0.931 . S
H1445 C1433 0.930 . S
H1446 C1434 0.956 . S
H1447 C1434 0.961 . S
H1448 C1434 0.961 . S
H1449 C1435 0.958 . S
H1450 C1435 0.961 . S
H1451 C1435 0.960 . S
C1452 C1453 1.391 . S
C1452 C1454 1.394 . S
C1452 H1468 0.931 . S
C1453 C1452 1.391 . S
C1453 C1457 1.376 . S
C1454 C1452 1.394 . S
C1454 C1455 1.369 . S
C1454 C1458 1.531 . S
C1455 C1454 1.369 . S
C1455 C1456 1.410 . S
C1455 C1463 1.503 . S
C1456 C1455 1.410 . S
C1456 C1457 1.392 . S
C1456 C1459 1.511 . S
C1457 C1453 1.376 . S
C1457 C1456 1.392 . S
C1457 H1469 0.929 . S
C1458 C1454 1.531 . S
C1458 H1470 0.960 . S
C1458 H1471 0.962 . S
C1458 H1472 0.960 . S
C1459 C1456 1.511 . S
C1459 H1473 0.961 . S
C1459 H1474 0.961 . S
C1459 H1475 0.961 . S
C1460 C1461 1.370 . S
C1460 C1462 1.363 . S
C1460 H1476 0.931 . S
C1461 C1460 1.370 . S
C1461 C1465 1.408 . S
C1462 C1460 1.363 . S
C1462 C1463 1.370 . S
C1462 C1466 1.524 . S
C1463 C1455 1.503 . S
C1463 C1462 1.370 . S
C1463 C1464 1.403 . S
C1464 C1463 1.403 . S
C1464 C1465 1.404 . S
C1464 C1467 1.539 . S
C1465 C1461 1.408 . S
C1465 C1464 1.404 . S
C1465 H1477 0.930 . S
C1466 C1462 1.524 . S
C1466 H1478 0.956 . S
C1466 H1479 0.961 . S
C1466 H1480 0.961 . S
C1467 C1464 1.539 . S
C1467 H1481 0.958 . S
C1467 H1482 0.961 . S
C1467 H1483 0.960 . S
H1468 C1452 0.931 . S
H1469 C1457 0.929 . S
H1470 C1458 0.960 . S
H1471 C1458 0.962 . S
H1472 C1458 0.960 . S
H1473 C1459 0.961 . S
H1474 C1459 0.961 . S
H1475 C1459 0.961 . S
H1476 C1460 0.931 . S
H1477 C1465 0.930 . S
H1478 C1466 0.956 . S
H1479 C1466 0.961 . S
H1480 C1466 0.961 . S
H1481 C1467 0.958 . S
H1482 C1467 0.961 . S
H1483 C1467 0.960 . S
C1484 C1485 1.391 . S
C1484 C1486 1.394 . S
C1484 H1500 0.931 1_565 S
C1485 C1484 1.391 . S
C1485 C1489 1.376 . S
C1486 C1484 1.394 . S
C1486 C1487 1.369 . S
C1486 C1490 1.531 . S
C1487 C1486 1.369 . S
C1487 C1488 1.410 . S
C1487 C1495 1.503 . S
C1488 C1487 1.410 . S
C1488 C1489 1.392 . S
C1488 C1491 1.511 . S
C1489 C1485 1.376 . S
C1489 C1488 1.392 . S
C1489 H1501 0.929 . S
C1490 C1486 1.531 . S
C1490 H1502 0.960 . S
C1490 H1503 0.962 . S
C1490 H1504 0.960 1_565 S
C1491 C1488 1.511 . S
C1491 H1505 0.961 . S
C1491 H1506 0.961 . S
C1491 H1507 0.961 . S
C1492 C1493 1.370 . S
C1492 C1494 1.363 . S
C1492 H1508 0.931 . S
C1493 C1492 1.370 . S
C1493 C1497 1.408 . S
C1494 C1492 1.363 . S
C1494 C1495 1.370 . S
C1494 C1498 1.524 . S
C1495 C1487 1.503 . S
C1495 C1494 1.370 . S
C1495 C1496 1.403 . S
C1496 C1495 1.403 . S
C1496 C1497 1.404 . S
C1496 C1499 1.539 . S
C1497 C1493 1.408 . S
C1497 C1496 1.404 . S
C1497 H1509 0.930 . S
C1498 C1494 1.524 . S
C1498 H1510 0.956 . S
C1498 H1511 0.961 . S
C1498 H1512 0.961 . S
C1499 C1496 1.539 . S
C1499 H1513 0.958 . S
C1499 H1514 0.961 . S
C1499 H1515 0.960 . S
H1500 C1484 0.931 1_545 S
H1501 C1489 0.929 . S
H1502 C1490 0.960 . S
H1503 C1490 0.962 . S
H1504 C1490 0.960 1_545 S
H1505 C1491 0.961 . S
H1506 C1491 0.961 . S
H1507 C1491 0.961 . S
H1508 C1492 0.931 . S
H1509 C1497 0.930 . S
H1510 C1498 0.956 . S
H1511 C1498 0.961 . S
H1512 C1498 0.961 . S
H1513 C1499 0.958 . S
H1514 C1499 0.961 . S
H1515 C1499 0.960 . S
C1516 C1517 1.391 . S
C1516 C1518 1.394 . S
C1516 H1532 0.931 . S
C1517 C1516 1.391 . S
C1517 C1521 1.376 . S
C1518 C1516 1.394 . S
C1518 C1519 1.369 . S
C1518 C1522 1.531 . S
C1519 C1518 1.369 . S
C1519 C1520 1.410 . S
C1519 C1527 1.503 . S
C1520 C1519 1.410 . S
C1520 C1521 1.392 . S
C1520 C1523 1.511 . S
C1521 C1517 1.376 . S
C1521 C1520 1.392 . S
C1521 H1533 0.929 . S
C1522 C1518 1.531 . S
C1522 H1534 0.960 . S
C1522 H1535 0.962 . S
C1522 H1536 0.960 . S
C1523 C1520 1.511 . S
C1523 H1537 0.961 . S
C1523 H1538 0.961 . S
C1523 H1539 0.961 . S
C1524 C1525 1.370 . S
C1524 C1526 1.363 . S
C1524 H1540 0.931 . S
C1525 C1524 1.370 . S
C1525 C1529 1.408 . S
C1526 C1524 1.363 . S
C1526 C1527 1.370 . S
C1526 C1530 1.524 . S
C1527 C1519 1.503 . S
C1527 C1526 1.370 . S
C1527 C1528 1.403 . S
C1528 C1527 1.403 . S
C1528 C1529 1.404 . S
C1528 C1531 1.539 . S
C1529 C1525 1.408 . S
C1529 C1528 1.404 . S
C1529 H1541 0.930 . S
C1530 C1526 1.524 . S
C1530 H1542 0.956 . S
C1530 H1543 0.961 . S
C1530 H1544 0.961 . S
C1531 C1528 1.539 . S
C1531 H1545 0.958 . S
C1531 H1546 0.961 . S
C1531 H1547 0.960 . S
H1532 C1516 0.931 . S
H1533 C1521 0.929 . S
H1534 C1522 0.960 . S
H1535 C1522 0.962 . S
H1536 C1522 0.960 . S
H1537 C1523 0.961 . S
H1538 C1523 0.961 . S
H1539 C1523 0.961 . S
H1540 C1524 0.931 . S
H1541 C1529 0.930 . S
H1542 C1530 0.956 . S
H1543 C1530 0.961 . S
H1544 C1530 0.961 . S
H1545 C1531 0.958 . S
H1546 C1531 0.961 . S
H1547 C1531 0.960 . S
C1548 C1549 1.391 . S
C1548 C1550 1.394 . S
C1548 H1564 0.931 . S
C1549 C1548 1.391 . S
C1549 C1553 1.376 . S
C1550 C1548 1.394 . S
C1550 C1551 1.369 . S
C1550 C1554 1.531 . S
C1551 C1550 1.369 . S
C1551 C1552 1.410 . S
C1551 C1559 1.503 . S
C1552 C1551 1.410 . S
C1552 C1553 1.392 . S
C1552 C1555 1.511 . S
C1553 C1549 1.376 . S
C1553 C1552 1.392 . S
C1553 H1565 0.929 . S
C1554 C1550 1.531 . S
C1554 H1566 0.960 . S
C1554 H1567 0.962 . S
C1554 H1568 0.960 . S
C1555 C1552 1.511 . S
C1555 H1569 0.961 . S
C1555 H1570 0.961 . S
C1555 H1571 0.961 . S
C1556 C1557 1.370 . S
C1556 C1558 1.363 . S
C1556 H1572 0.931 . S
C1557 C1556 1.370 . S
C1557 C1561 1.408 . S
C1558 C1556 1.363 . S
C1558 C1559 1.370 . S
C1558 C1562 1.524 . S
C1559 C1551 1.503 . S
C1559 C1558 1.370 . S
C1559 C1560 1.403 . S
C1560 C1559 1.403 . S
C1560 C1561 1.404 . S
C1560 C1563 1.539 . S
C1561 C1557 1.408 . S
C1561 C1560 1.404 . S
C1561 H1573 0.930 . S
C1562 C1558 1.524 . S
C1562 H1574 0.956 . S
C1562 H1575 0.961 . S
C1562 H1576 0.961 . S
C1563 C1560 1.539 . S
C1563 H1577 0.958 . S
C1563 H1578 0.961 . S
C1563 H1579 0.960 . S
H1564 C1548 0.931 . S
H1565 C1553 0.929 . S
H1566 C1554 0.960 . S
H1567 C1554 0.962 . S
H1568 C1554 0.960 . S
H1569 C1555 0.961 . S
H1570 C1555 0.961 . S
H1571 C1555 0.961 . S
H1572 C1556 0.931 . S
H1573 C1561 0.930 . S
H1574 C1562 0.956 . S
H1575 C1562 0.961 . S
H1576 C1562 0.961 . S
H1577 C1563 0.958 . S
H1578 C1563 0.961 . S
H1579 C1563 0.960 . S
C1580 C1581 1.391 . S
C1580 C1582 1.394 . S
C1580 H1596 0.931 . S
C1581 C1580 1.391 . S
C1581 C1585 1.376 . S
C1582 C1580 1.394 . S
C1582 C1583 1.369 . S
C1582 C1586 1.531 . S
C1583 C1582 1.369 . S
C1583 C1584 1.410 . S
C1583 C1591 1.503 . S
C1584 C1583 1.410 . S
C1584 C1585 1.392 . S
C1584 C1587 1.511 . S
C1585 C1581 1.376 . S
C1585 C1584 1.392 . S
C1585 H1597 0.929 . S
C1586 C1582 1.531 . S
C1586 H1598 0.960 . S
C1586 H1599 0.962 . S
C1586 H1600 0.960 . S
C1587 C1584 1.511 . S
C1587 H1601 0.961 . S
C1587 H1602 0.961 . S
C1587 H1603 0.961 . S
C1588 C1589 1.370 . S
C1588 C1590 1.363 . S
C1588 H1604 0.931 . S
C1589 C1588 1.370 . S
C1589 C1593 1.408 . S
C1590 C1588 1.363 . S
C1590 C1591 1.370 . S
C1590 C1594 1.524 . S
C1591 C1583 1.503 . S
C1591 C1590 1.370 . S
C1591 C1592 1.403 . S
C1592 C1591 1.403 . S
C1592 C1593 1.404 . S
C1592 C1595 1.539 . S
C1593 C1589 1.408 . S
C1593 C1592 1.404 . S
C1593 H1605 0.930 . S
C1594 C1590 1.524 . S
C1594 H1606 0.956 . S
C1594 H1607 0.961 . S
C1594 H1608 0.961 . S
C1595 C1592 1.539 . S
C1595 H1609 0.958 . S
C1595 H1610 0.961 . S
C1595 H1611 0.960 . S
H1596 C1580 0.931 . S
H1597 C1585 0.929 . S
H1598 C1586 0.960 . S
H1599 C1586 0.962 . S
H1600 C1586 0.960 . S
H1601 C1587 0.961 . S
H1602 C1587 0.961 . S
H1603 C1587 0.961 . S
H1604 C1588 0.931 . S
H1605 C1593 0.930 . S
H1606 C1594 0.956 . S
H1607 C1594 0.961 . S
H1608 C1594 0.961 . S
H1609 C1595 0.958 . S
H1610 C1595 0.961 . S
H1611 C1595 0.960 . S
C1612 C1613 1.391 . S
C1612 C1614 1.394 . S
C1612 H1628 0.931 . S
C1613 C1612 1.391 . S
C1613 C1617 1.376 . S
C1614 C1612 1.394 . S
C1614 C1615 1.369 . S
C1614 C1618 1.531 . S
C1615 C1614 1.369 . S
C1615 C1616 1.410 . S
C1615 C1623 1.503 . S
C1616 C1615 1.410 . S
C1616 C1617 1.392 . S
C1616 C1619 1.511 . S
C1617 C1613 1.376 . S
C1617 C1616 1.392 . S
C1617 H1629 0.929 . S
C1618 C1614 1.531 . S
C1618 H1630 0.960 . S
C1618 H1631 0.962 . S
C1618 H1632 0.960 . S
C1619 C1616 1.511 . S
C1619 H1633 0.961 . S
C1619 H1634 0.961 . S
C1619 H1635 0.961 . S
C1620 C1621 1.370 . S
C1620 C1622 1.363 . S
C1620 H1636 0.931 . S
C1621 C1620 1.370 . S
C1621 C1625 1.408 . S
C1622 C1620 1.363 . S
C1622 C1623 1.370 . S
C1622 C1626 1.524 . S
C1623 C1615 1.503 . S
C1623 C1622 1.370 . S
C1623 C1624 1.403 . S
C1624 C1623 1.403 . S
C1624 C1625 1.404 . S
C1624 C1627 1.539 . S
C1625 C1621 1.408 . S
C1625 C1624 1.404 . S
C1625 H1637 0.930 . S
C1626 C1622 1.524 . S
C1626 H1638 0.956 . S
C1626 H1639 0.961 . S
C1626 H1640 0.961 . S
C1627 C1624 1.539 . S
C1627 H1641 0.958 . S
C1627 H1642 0.961 . S
C1627 H1643 0.960 . S
H1628 C1612 0.931 . S
H1629 C1617 0.929 . S
H1630 C1618 0.960 . S
H1631 C1618 0.962 . S
H1632 C1618 0.960 . S
H1633 C1619 0.961 . S
H1634 C1619 0.961 . S
H1635 C1619 0.961 . S
H1636 C1620 0.931 . S
H1637 C1625 0.930 . S
H1638 C1626 0.956 . S
H1639 C1626 0.961 . S
H1640 C1626 0.961 . S
H1641 C1627 0.958 . S
H1642 C1627 0.961 . S
H1643 C1627 0.960 . S
C1644 C1645 1.391 . S
C1644 C1646 1.394 . S
C1644 H1660 0.931 . S
C1645 C1644 1.391 . S
C1645 C1649 1.376 . S
C1646 C1644 1.394 . S
C1646 C1647 1.369 . S
C1646 C1650 1.531 . S
C1647 C1646 1.369 . S
C1647 C1648 1.410 . S
C1647 C1655 1.503 . S
C1648 C1647 1.410 . S
C1648 C1649 1.392 . S
C1648 C1651 1.511 . S
C1649 C1645 1.376 . S
C1649 C1648 1.392 . S
C1649 H1661 0.929 . S
C1650 C1646 1.531 . S
C1650 H1662 0.960 . S
C1650 H1663 0.962 . S
C1650 H1664 0.960 . S
C1651 C1648 1.511 . S
C1651 H1665 0.961 . S
C1651 H1666 0.961 . S
C1651 H1667 0.961 . S
C1652 C1653 1.370 . S
C1652 C1654 1.363 . S
C1652 H1668 0.931 . S
C1653 C1652 1.370 . S
C1653 C1657 1.408 . S
C1654 C1652 1.363 . S
C1654 C1655 1.370 . S
C1654 C1658 1.524 . S
C1655 C1647 1.503 . S
C1655 C1654 1.370 . S
C1655 C1656 1.403 . S
C1656 C1655 1.403 . S
C1656 C1657 1.404 . S
C1656 C1659 1.539 . S
C1657 C1653 1.408 . S
C1657 C1656 1.404 . S
C1657 H1669 0.930 . S
C1658 C1654 1.524 . S
C1658 H1670 0.956 . S
C1658 H1671 0.961 . S
C1658 H1672 0.961 . S
C1659 C1656 1.539 . S
C1659 H1673 0.958 . S
C1659 H1674 0.961 . S
C1659 H1675 0.960 . S
H1660 C1644 0.931 . S
H1661 C1649 0.929 . S
H1662 C1650 0.960 . S
H1663 C1650 0.962 . S
H1664 C1650 0.960 . S
H1665 C1651 0.961 . S
H1666 C1651 0.961 . S
H1667 C1651 0.961 . S
H1668 C1652 0.931 . S
H1669 C1657 0.930 . S
H1670 C1658 0.956 . S
H1671 C1658 0.961 . S
H1672 C1658 0.961 . S
H1673 C1659 0.958 . S
H1674 C1659 0.961 . S
H1675 C1659 0.960 . S
C1676 C1677 1.391 . S
C1676 C1678 1.394 . S
C1676 H1692 0.931 . S
C1677 C1676 1.391 . S
C1677 C1681 1.376 . S
C1678 C1676 1.394 . S
C1678 C1679 1.369 . S
C1678 C1682 1.531 . S
C1679 C1678 1.369 . S
C1679 C1680 1.410 . S
C1679 C1687 1.503 . S
C1680 C1679 1.410 . S
C1680 C1681 1.392 . S
C1680 C1683 1.511 . S
C1681 C1677 1.376 . S
C1681 C1680 1.392 . S
C1681 H1693 0.929 . S
C1682 C1678 1.531 . S
C1682 H1694 0.960 . S
C1682 H1695 0.962 . S
C1682 H1696 0.960 . S
C1683 C1680 1.511 . S
C1683 H1697 0.961 . S
C1683 H1698 0.961 . S
C1683 H1699 0.961 . S
C1684 C1685 1.357 1_554 S
C1684 C1686 1.363 . S
C1684 H1700 0.931 1_554 S
C1685 C1684 1.357 1_556 S
C1685 C1689 1.381 1_556 S
C1686 C1684 1.363 . S
C1686 C1687 1.370 . S
C1686 C1690 1.524 . S
C1687 C1679 1.503 . S
C1687 C1686 1.370 . S
C1687 C1688 1.403 . S
C1688 C1687 1.403 . S
C1688 C1689 1.404 . S
C1688 C1691 1.539 . S
C1689 C1685 1.381 1_554 S
C1689 C1688 1.404 . S
C1689 H1701 0.930 . S
C1690 C1686 1.524 . S
C1690 H1702 0.956 . S
C1690 H1703 0.961 . S
C1690 H1704 0.961 . S
C1691 C1688 1.539 . S
C1691 H1705 0.958 . S
C1691 H1706 0.961 . S
C1691 H1707 0.960 . S
H1692 C1676 0.931 . S
H1693 C1681 0.929 . S
H1694 C1682 0.960 . S
H1695 C1682 0.962 . S
H1696 C1682 0.960 . S
H1697 C1683 0.961 . S
H1698 C1683 0.961 . S
H1699 C1683 0.961 . S
H1700 C1684 0.931 1_556 S
H1701 C1689 0.930 . S
H1702 C1690 0.956 . S
H1703 C1690 0.961 . S
H1704 C1690 0.961 . S
H1705 C1691 0.958 . S
H1706 C1691 0.961 . S
H1707 C1691 0.960 . S
C1708 C1709 1.391 . S
C1708 C1710 1.394 . S
C1708 H1724 0.931 . S
C1709 C1708 1.391 . S
C1709 C1713 1.376 . S
C1710 C1708 1.394 . S
C1710 C1711 1.369 . S
C1710 C1714 1.531 . S
C1711 C1710 1.369 . S
C1711 C1712 1.410 . S
C1711 C1719 1.503 . S
C1712 C1711 1.410 . S
C1712 C1713 1.392 . S
C1712 C1715 1.511 . S
C1713 C1709 1.376 . S
C1713 C1712 1.392 . S
C1713 H1725 0.929 . S
C1714 C1710 1.531 . S
C1714 H1726 0.960 . S
C1714 H1727 0.962 . S
C1714 H1728 0.960 . S
C1715 C1712 1.511 . S
C1715 H1729 0.961 . S
C1715 H1730 0.961 . S
C1715 H1731 0.961 . S
C1716 C1717 1.370 . S
C1716 C1718 1.363 . S
C1716 H1732 0.931 . S
C1717 C1716 1.370 . S
C1717 C1721 1.408 . S
C1718 C1716 1.363 . S
C1718 C1719 1.370 . S
C1718 C1722 1.524 . S
C1719 C1711 1.503 . S
C1719 C1718 1.370 . S
C1719 C1720 1.403 . S
C1720 C1719 1.403 . S
C1720 C1721 1.404 . S
C1720 C1723 1.539 . S
C1721 C1717 1.408 . S
C1721 C1720 1.404 . S
C1721 H1733 0.930 . S
C1722 C1718 1.524 . S
C1722 H1734 0.956 . S
C1722 H1735 0.961 . S
C1722 H1736 0.961 . S
C1723 C1720 1.539 . S
C1723 H1737 0.958 . S
C1723 H1738 0.961 . S
C1723 H1739 0.960 . S
H1724 C1708 0.931 . S
H1725 C1713 0.929 . S
H1726 C1714 0.960 . S
H1727 C1714 0.962 . S
H1728 C1714 0.960 . S
H1729 C1715 0.961 . S
H1730 C1715 0.961 . S
H1731 C1715 0.961 . S
H1732 C1716 0.931 . S
H1733 C1721 0.930 . S
H1734 C1722 0.956 . S
H1735 C1722 0.961 . S
H1736 C1722 0.961 . S
H1737 C1723 0.958 . S
H1738 C1723 0.961 . S
H1739 C1723 0.960 . S
C981 C913 1.192 . S
C973 C51 1.152 . S
C1005 C125 1.635 . S
C1013 C473 1.639 . S
C1037 C217 2.614 . S
C1045 C561 2.609 . S
C1069 C291 1.852 . S
C1077 C640 1.830 . S
C1109 C737 0.667 . S
C1101 C347 0.752 . S
C1133 C421 0.966 . S
C1141 C816 0.930 . S
C1165 C143 2.623 . S
C1173 C581 2.615 . S
C1197 C199 1.384 . S
C1205 C677 1.411 . S
C1229 C273 0.669 . S
C1237 C757 0.711 . S
C1269 C853 1.527 . S
C1261 C365 1.557 . S
C1301 C933 2.207 . S
C1293 C439 2.219 . S
C1333 C493 2.504 . S
C1325 C69 2.500 . S
C1357 C63 1.311 . S
C1365 C589 1.408 . S
C1389 C137 1.378 . S
C1397 C669 1.461 . S
C1429 C765 1.272 . S
C1421 C187 1.286 . S
C1453 C261 1.384 . S
C1461 C845 1.411 1_556 S
C1493 C941 1.289 . S
C1485 C359 1.252 . S
C1525 C501 1.039 . S
C1517 C433 1.042 . S
C1557 C904 1.621 . S
C1549 C113 1.650 . S
C1581 C211 1.353 . S
C1589 C464 1.376 . S
C1621 C552 1.483 . S
C1613 C285 1.371 . S
C1645 C335 1.175 . S
C1653 C649 1.265 . S
C1677 C409 1.346 . S
C1685 C728 1.384 . S
C1709 C39 1.747 . S
C1717 C825 1.732 . S
