# Generated by pormake.
# Topology rtl, (3,6)-cn, num edge types: 1
# Building blocks:
#     Node 0, Type 0, BuildingBlock: PAMTOO_clean_linker_0, # of connection points: 3
#     Node 1, Type 0, BuildingBlock: PAMTOO_clean_linker_0, # of connection points: 3
#     Node 2, Type 0, BuildingBlock: PAMTOO_clean_linker_0, # of connection points: 3
#     Node 3, Type 0, BuildingBlock: PAMTOO_clean_linker_0, # of connection points: 3
#     Node 4, Type 1, BuildingBlock: CIFDUS_clean_sbu_1, # of connection points: 6
#     Node 5, Type 1, BuildingBlock: CIFDUS_clean_sbu_1, # of connection points: 6
#     Edge 6, Type (0, 1), BuildingBlock: MIFKUJ_clean_linker_0, # of connection points: 2
#     Edge 7, Type (0, 1), BuildingBlock: MIFKUJ_clean_linker_0, # of connection points: 2
#     Edge 8, Type (0, 1), BuildingBlock: MIFKUJ_clean_linker_0, # of connection points: 2
#     Edge 9, Type (0, 1), BuildingBlock: MIFKUJ_clean_linker_0, # of connection points: 2
#     Edge 10, Type (0, 1), BuildingBlock: MIFKUJ_clean_linker_0, # of connection points: 2
#     Edge 11, Type (0, 1), BuildingBlock: MIFKUJ_clean_linker_0, # of connection points: 2
#     Edge 12, Type (0, 1), BuildingBlock: MIFKUJ_clean_linker_0, # of connection points: 2
#     Edge 13, Type (0, 1), BuildingBlock: MIFKUJ_clean_linker_0, # of connection points: 2
#     Edge 14, Type (0, 1), BuildingBlock: MIFKUJ_clean_linker_0, # of connection points: 2
#     Edge 15, Type (0, 1), BuildingBlock: MIFKUJ_clean_linker_0, # of connection points: 2
#     Edge 16, Type (0, 1), BuildingBlock: MIFKUJ_clean_linker_0, # of connection points: 2
#     Edge 17, Type (0, 1), BuildingBlock: MIFKUJ_clean_linker_0, # of connection points: 2
# Relax obj value: 0.020
# Max RMSD: 0.117
# Mean RMSD: 0.092
data_MOF--net-rtl--node1-CIFDUS_clean_sbu_1--node2-PAMTOO_clean_linker_0--edge1-MIFKUJ_clean_linker_0
_symmetry_space_group_name_H-M    P1
_symmetry_Int_Tables_number       1
_symmetry_cell_setting            triclinic
loop_
_symmetry_equiv_pos_as_xyz
'x, y, z'
_cell_length_a     45.714615
_cell_length_b     45.567087
_cell_length_c     28.978674
_cell_angle_alpha  91.476552
_cell_angle_beta   97.605296
_cell_angle_gamma 90.65784
loop_
_atom_site_label
_atom_site_type_symbol
_atom_site_fract_x
_atom_site_fract_y
_atom_site_fract_z
_atom_type_partial_charge
H0 H 0.16443 0.88498 0.06293 0.0
H1 H 0.2354 0.8414 0.14639 0.0
H2 H 0.22633 0.83333 0.99784 0.0
H3 H 0.2321 0.77716 0.05165 0.0
C4 C 0.24889 0.78513 0.08079 0.0
O5 O 0.25451 0.8147 0.07604 0.0
H6 H 0.23943 0.78179 0.11377 0.0
C7 C 0.18427 0.8721 0.06607 0.0
C8 C 0.19439 0.86159 0.02495 0.0
C9 C 0.19892 0.8658 0.11064 0.0
C10 C 0.22326 0.84683 0.11319 0.0
C11 C 0.23234 0.8344 0.07266 0.0
C12 C 0.21828 0.8422 0.02874 0.0
H13 H 0.65354 0.67433 0.58103 0.0
H14 H 0.71623 0.72292 0.51195 0.0
H15 H 0.72189 0.72649 0.66049 0.0
H16 H 0.72332 0.78395 0.61487 0.0
C17 C 0.73601 0.7778 0.58592 0.0
O18 O 0.74245 0.74822 0.58801 0.0
H19 H 0.72212 0.78203 0.5523 0.0
C20 C 0.67265 0.68857 0.58167 0.0
C21 C 0.687 0.69841 0.62529 0.0
C22 C 0.68296 0.69646 0.53977 0.0
C23 C 0.70728 0.71619 0.5428 0.0
C24 C 0.72063 0.72763 0.58607 0.0
C25 C 0.71101 0.7181 0.6272 0.0
H26 H 0.87237 0.17222 0.01491 0.0
H27 H 0.81045 0.22453 0.92807 0.0
H28 H 0.8182 0.23451 0.07697 0.0
H29 H 0.75708 0.23526 0.02411 0.0
C30 C 0.76197 0.24833 0.99403 0.0
O31 O 0.792 0.25387 0.9975 0.0
H32 H 0.75472 0.23494 0.9618 0.0
C33 C 0.85538 0.1887 0.01105 0.0
C34 C 0.84684 0.20219 0.05122 0.0
C35 C 0.84229 0.19611 0.96621 0.0
C36 C 0.82082 0.21823 0.96208 0.0
C37 C 0.81213 0.23207 0.00194 0.0
C38 C 0.82493 0.22374 0.04638 0.0
H39 H 0.35908 0.38781 0.49621 0.0
H40 H 0.30219 0.32751 0.55529 0.0
H41 H 0.2911 0.33893 0.40766 0.0
H42 H 0.23439 0.33099 0.45234 0.0
C43 C 0.24365 0.31668 0.48106 0.0
O44 O 0.27252 0.31028 0.47576 0.0
H45 H 0.24293 0.3286 0.51488 0.0
C46 C 0.34086 0.37212 0.49169 0.0
C47 C 0.32622 0.36531 0.44676 0.0
C48 C 0.33219 0.35886 0.53107 0.0
C49 C 0.3089 0.3382 0.52532 0.0
C50 C 0.29427 0.33098 0.48088 0.0
C51 C 0.30281 0.34457 0.44177 0.0
O52 O 0.99357 0.05081 0.48124 0.0
Mn53 Mn 0.01382 0.0249 0.53593 0.0
O54 O 0.95922 0.02273 0.4385 0.0
Mn55 Mn 0.97659 0.98876 0.46041 0.0
O56 O 0.03465 1.00017 0.59177 0.0
O57 O 0.04451 0.05823 0.5494 0.0
Mn58 Mn 0.04589 0.0664 0.60964 0.0
O59 O 0.98514 0.04373 0.57996 0.0
O60 O 0.05839 0.03366 0.64201 0.0
O61 O 0.04159 1.00532 0.49127 0.0
O62 O 0.01112 0.97909 0.43782 0.0
O63 O 0.07279 0.09149 0.59118 0.0
O64 O 0.00994 0.08069 0.62061 0.0
C65 C 0.96398 0.96989 0.52001 0.0
C66 C 0.9715 0.04752 0.44893 0.0
C67 C 0.05104 1.00721 0.63035 0.0
C68 C 0.06434 0.07922 0.55072 0.0
C69 C 0.98624 0.06629 0.60784 0.0
C70 C 0.03679 0.98829 0.45469 0.0
O71 O 0.98329 0.99141 0.52204 0.0
O72 O 0.95335 0.96008 0.47876 0.0
O73 O 0.53013 0.5512 0.08829 0.0
Mn74 Mn 0.51031 0.52449 0.03261 0.0
O75 O 0.54227 0.51849 0.14389 0.0
Mn76 Mn 0.53438 0.48523 0.10605 0.0
O77 O 0.49037 0.49635 0.97791 0.0
O78 O 0.48027 0.55754 0.0174 0.0
Mn79 Mn 0.47692 0.55824 0.95579 0.0
O80 O 0.54011 0.5419 0.9898 0.0
O81 O 0.45903 0.52389 0.93226 0.0
O82 O 0.47902 0.50828 0.07396 0.0
O83 O 0.49803 0.46801 0.10575 0.0
O84 O 0.4533 0.58738 0.97008 0.0
O85 O 0.51218 0.56735 0.9357 0.0
C86 C 0.5614 0.47152 0.05833 0.0
C87 C 0.54014 0.54482 0.13033 0.0
C88 C 0.46925 0.49913 0.9444 0.0
C89 C 0.46078 0.57853 0.01211 0.0
C90 C 0.53701 0.55786 0.95344 0.0
C91 C 0.47616 0.48414 0.09481 0.0
O92 O 0.54163 0.49204 0.04832 0.0
O93 O 0.56394 0.46082 0.09967 0.0
H94 H 0.18386 0.31225 0.46389 0.0
H95 H 0.15211 0.26865 0.46517 0.0
H96 H 0.22899 0.21567 0.50056 0.0
H97 H 0.26079 0.25921 0.49975 0.0
H98 H 0.19035 0.18961 0.43144 0.0
H99 H 0.18683 0.23245 0.58148 0.0
H100 H 0.18006 0.27098 0.64021 0.0
H101 H 0.08942 0.27942 0.58121 0.0
H102 H 0.09577 0.24124 0.52156 0.0
H103 H 0.11792 0.06827 0.52561 0.0
H104 H 0.14797 0.10658 0.49697 0.0
H105 H 0.07029 0.15866 0.46335 0.0
H106 H 0.04027 0.12018 0.49226 0.0
H107 H 0.10953 0.18504 0.52959 0.0
H108 H 0.12139 0.15286 0.36618 0.0
H109 H 0.13284 0.11825 0.30435 0.0
H110 H 0.20852 0.08851 0.39392 0.0
H111 H 0.19818 0.12402 0.45542 0.0
C112 C 0.19395 0.29123 0.47161 0.0
C113 C 0.22482 0.28909 0.48045 0.0
C114 C 0.17581 0.26639 0.47267 0.0
C115 C 0.18815 0.23886 0.48297 0.0
C116 C 0.21899 0.23665 0.49221 0.0
C117 C 0.23715 0.26156 0.49156 0.0
C118 C 0.16884 0.21236 0.48331 0.0
C119 C 0.17288 0.18853 0.45334 0.0
C120 C 0.14573 0.21099 0.51125 0.0
C121 C 0.14189 0.23424 0.54666 0.0
C122 C 0.16554 0.24276 0.58066 0.0
C123 C 0.16176 0.26448 0.6142 0.0
C124 C 0.13435 0.27771 0.61435 0.0
C125 C 0.11065 0.2692 0.58098 0.0
C126 C 0.11433 0.24751 0.5473 0.0
C127 C 0.10694 0.08691 0.50889 0.0
C128 C 0.07669 0.09105 0.51059 0.0
C129 C 0.12425 0.10908 0.4929 0.0
C130 C 0.11153 0.13577 0.47828 0.0
C131 C 0.08067 0.13832 0.47446 0.0
C132 C 0.06337 0.11605 0.49025 0.0
C133 C 0.13058 0.16247 0.47686 0.0
C134 C 0.12675 0.18628 0.50726 0.0
C135 C 0.15411 0.16373 0.44987 0.0
C136 C 0.15873 0.14054 0.4154 0.0
C137 C 0.14024 0.13865 0.37275 0.0
C138 C 0.14675 0.11918 0.33763 0.0
C139 C 0.17127 0.10103 0.34531 0.0
C140 C 0.18949 0.10251 0.38805 0.0
C141 C 0.18347 0.12246 0.42288 0.0
H142 H 0.17616 0.08584 0.31814 0.0
H143 H 0.13145 0.29449 0.6404 0.0
H144 H 0.26517 0.74843 0.01231 0.0
H145 H 0.30576 0.71351 0.01858 0.0
H146 H 0.33576 0.74629 0.15787 0.0
H147 H 0.29485 0.78131 0.15176 0.0
H148 H 0.38263 0.73169 0.09503 0.0
H149 H 0.29614 0.68958 0.15405 0.0
H150 H 0.24269 0.67844 0.14438 0.0
H151 H 0.25021 0.62816 0.01921 0.0
H152 H 0.3036 0.63935 0.02782 0.0
H153 H 0.47836 0.61143 0.09323 0.0
H154 H 0.44567 0.64534 0.12871 0.0
H155 H 0.37112 0.60847 0.03719 0.0
H156 H 0.40278 0.57283 0.0076 0.0
H157 H 0.34845 0.62815 0.09708 0.0
H158 H 0.42543 0.67574 0.01942 0.0
H159 H 0.47683 0.6901 0.01202 0.0
H160 H 0.48583 0.73176 0.14794 0.0
H161 H 0.43478 0.7171 0.15642 0.0
C162 C 0.28072 0.74856 0.04394 0.0
C163 C 0.27669 0.76731 0.08179 0.0
C164 C 0.30389 0.7286 0.04751 0.0
C165 C 0.32359 0.72707 0.08889 0.0
C166 C 0.32081 0.74709 0.12566 0.0
C167 C 0.29747 0.76702 0.12218 0.0
C168 C 0.34517 0.7028 0.09479 0.0
C169 C 0.37535 0.70899 0.09596 0.0
C170 C 0.3356 0.67324 0.09528 0.0
C171 C 0.30382 0.66532 0.0916 0.0
C172 C 0.28637 0.67616 0.12449 0.0
C173 C 0.25608 0.66986 0.11916 0.0
C174 C 0.24306 0.65261 0.08121 0.0
C175 C 0.26032 0.64149 0.04863 0.0
C176 C 0.2906 0.64774 0.05378 0.0
C177 C 0.45472 0.60955 0.08317 0.0
C178 C 0.44304 0.58948 0.04773 0.0
C179 C 0.43601 0.62962 0.10227 0.0
C180 C 0.40577 0.63097 0.08411 0.0
C181 C 0.3941 0.60866 0.05224 0.0
C182 C 0.41236 0.58794 0.03517 0.0
C183 C 0.38638 0.65641 0.09362 0.0
C184 C 0.35629 0.65065 0.09622 0.0
C185 C 0.39592 0.68631 0.094 0.0
C186 C 0.42654 0.695 0.0888 0.0
C187 C 0.4385 0.68781 0.04778 0.0
C188 C 0.46758 0.69594 0.04344 0.0
C189 C 0.48468 0.71166 0.07961 0.0
C190 C 0.4727 0.71938 0.12009 0.0
C191 C 0.44373 0.71113 0.12472 0.0
H192 H 0.50717 0.71796 0.07617 0.0
H193 H 0.2196 0.64784 0.07705 0.0
H194 H 0.79577 0.76312 0.58802 0.0
H195 H 0.83812 0.79703 0.59133 0.0
H196 H 0.77989 0.87067 0.59416 0.0
H197 H 0.73758 0.83694 0.59068 0.0
H198 H 0.81784 0.87786 0.53169 0.0
H199 H 0.82428 0.85023 0.69216 0.0
H200 H 0.82767 0.81493 0.75566 0.0
H201 H 0.90926 0.78303 0.71681 0.0
H202 H 0.90611 0.81786 0.65261 0.0
H203 H 0.92031 0.99068 0.56537 0.0
H204 H 0.88389 0.95815 0.59337 0.0
H205 H 0.94234 0.88515 0.58542 0.0
H206 H 0.97867 0.91772 0.55751 0.0
H207 H 0.90517 0.87725 0.65329 0.0
H208 H 0.89859 0.90043 0.49219 0.0
H209 H 0.89614 0.93276 0.42493 0.0
H210 H 0.8157 0.96953 0.4604 0.0
H211 H 0.81797 0.93774 0.52844 0.0
C212 C 0.792 0.78651 0.58974 0.0
C213 C 0.76327 0.79741 0.58953 0.0
C214 C 0.81627 0.80589 0.59176 0.0
C215 C 0.81228 0.83647 0.59347 0.0
C216 C 0.78361 0.84723 0.593 0.0
C217 C 0.75946 0.82796 0.59116 0.0
C218 C 0.83764 0.85745 0.59415 0.0
C219 C 0.83666 0.878 0.55879 0.0
C220 C 0.86274 0.85712 0.62854 0.0
C221 C 0.86482 0.83645 0.66738 0.0
C222 C 0.84284 0.83554 0.69698 0.0
C223 C 0.84473 0.81564 0.73311 0.0
C224 C 0.86863 0.7967 0.7402 0.0
C225 C 0.89074 0.79769 0.71125 0.0
C226 C 0.88893 0.81752 0.67501 0.0
C227 C 0.92622 0.96815 0.57275 0.0
C228 C 0.95246 0.95679 0.55985 0.0
C229 C 0.90515 0.94941 0.58793 0.0
C230 C 0.91007 0.91903 0.59034 0.0
C231 C 0.93796 0.90844 0.5837 0.0
C232 C 0.95895 0.92719 0.56835 0.0
C233 C 0.88493 0.89803 0.59147 0.0
C234 C 0.88611 0.87732 0.62666 0.0
C235 C 0.86009 0.89786 0.55653 0.0
C236 C 0.85867 0.91703 0.51575 0.0
C237 C 0.88054 0.91563 0.48592 0.0
C238 C 0.87916 0.93382 0.44762 0.0
C239 C 0.85584 0.95327 0.4385 0.0
C240 C 0.8338 0.95452 0.4676 0.0
C241 C 0.83513 0.93643 0.50605 0.0
H242 H 0.85479 0.96732 0.40879 0.0
H243 H 0.87005 0.7813 0.76819 0.0
H244 H 0.73603 0.27798 0.91798 0.0
H245 H 0.70347 0.32047 0.9169 0.0
H246 H 0.71705 0.32516 0.06713 0.0
H247 H 0.74924 0.28238 0.06809 0.0
H248 H 0.66059 0.32832 0.03816 0.0
H249 H 0.74699 0.37606 0.99905 0.0
H250 H 0.78869 0.38536 0.95524 0.0
H251 H 0.72825 0.39915 0.83139 0.0
H252 H 0.68616 0.38964 0.87438 0.0
H253 H 0.62016 0.47802 0.07472 0.0
H254 H 0.65541 0.44338 0.04896 0.0
H255 H 0.58636 0.40383 0.95062 0.0
H256 H 0.55058 0.43816 0.9776 0.0
H257 H 0.66882 0.41845 0.9479 0.0
H258 H 0.5827 0.35798 0.9933 0.0
H259 H 0.54427 0.35297 0.04507 0.0
H260 H 0.60961 0.36684 0.16475 0.0
H261 H 0.64825 0.37262 0.11344 0.0
C262 C 0.73228 0.28833 0.9507 0.0
C263 C 0.74482 0.27665 0.99315 0.0
C264 C 0.71373 0.31269 0.9501 0.0
C265 C 0.7076 0.32614 0.99195 0.0
C266 C 0.72114 0.31512 0.03434 0.0
C267 C 0.73965 0.29077 0.03492 0.0
C268 C 0.68604 0.35066 0.9918 0.0
C269 C 0.66249 0.34786 0.01809 0.0
C270 C 0.68817 0.37642 0.96582 0.0
C271 C 0.71343 0.38185 0.93982 0.0
C272 C 0.74259 0.38083 0.96237 0.0
C273 C 0.7663 0.38621 0.93772 0.0
C274 C 0.76113 0.39279 0.89054 0.0
C275 C 0.73223 0.39404 0.86793 0.0
C276 C 0.70843 0.38869 0.89244 0.0
C277 C 0.61278 0.46298 0.04583 0.0
C278 C 0.58269 0.46113 0.02765 0.0
C279 C 0.63293 0.44295 0.03148 0.0
C280 C 0.62346 0.42069 0.99846 0.0
C281 C 0.59408 0.42069 0.97652 0.0
C282 C 0.57373 0.44067 0.99128 0.0
C283 C 0.6432 0.3954 0.99288 0.0
C284 C 0.66666 0.39837 0.96656 0.0
C285 C 0.64125 0.36982 0.01897 0.0
C286 C 0.61815 0.36621 0.04964 0.0
C287 C 0.58874 0.36031 0.03063 0.0
C288 C 0.56696 0.3573 0.05987 0.0
C289 C 0.57447 0.35973 0.10818 0.0
C290 C 0.60379 0.36511 0.12733 0.0
C291 C 0.62562 0.36832 0.0982 0.0
H292 H 0.55758 0.35733 0.13077 0.0
H293 H 0.77952 0.39698 0.87152 0.0
H294 H 0.20563 0.84515 0.20119 0.0
H295 H 0.18868 0.86724 0.26976 0.0
H296 H 0.14823 0.93672 0.18632 0.0
H297 H 0.16917 0.91779 0.11995 0.0
H298 H 0.16322 0.96054 0.25874 0.0
H299 H 0.11089 0.86891 0.22734 0.0
H300 H 0.10402 0.81536 0.21514 0.0
H301 H 0.14887 0.8015 0.35249 0.0
H302 H 0.15629 0.85499 0.36527 0.0
H303 H 0.03424 0.98445 0.36159 0.0
H304 H 0.07012 0.96346 0.31568 0.0
H305 H 0.12958 0.94912 0.44115 0.0
H306 H 0.09325 0.97056 0.48805 0.0
H307 H 0.11336 0.89764 0.36269 0.0
H308 H 0.15026 0.99966 0.38732 0.0
H309 H 0.13437 0.05122 0.3891 0.0
H310 H 0.09787 0.04328 0.2449 0.0
H311 H 0.11291 0.99156 0.24255 0.0
C312 C 0.19386 0.86556 0.19731 0.0
C313 C 0.18856 0.87908 0.15375 0.0
C314 C 0.18348 0.87792 0.23683 0.0
C315 C 0.1662 0.90335 0.23364 0.0
C316 C 0.16133 0.91708 0.19047 0.0
C317 C 0.17284 0.90558 0.15164 0.0
C318 C 0.15281 0.91576 0.27446 0.0
C319 C 0.15251 0.94648 0.28129 0.0
C320 C 0.13862 0.89798 0.30476 0.0
C321 C 0.13453 0.86586 0.29698 0.0
C322 C 0.1195 0.8544 0.25477 0.0
C323 C 0.11547 0.82408 0.24778 0.0
C324 C 0.12611 0.80503 0.28295 0.0
C325 C 0.14074 0.81627 0.32523 0.0
C326 C 0.14487 0.84658 0.33236 0.0
C327 C 0.05506 0.97711 0.37957 0.0
C328 C 0.06099 0.97922 0.42843 0.0
C329 C 0.07547 0.96497 0.35324 0.0
C330 C 0.10236 0.95452 0.37499 0.0
C331 C 0.1088 0.95693 0.42381 0.0
C332 C 0.08829 0.9695 0.45044 0.0
C333 C 0.12349 0.94182 0.34545 0.0
C334 C 0.12511 0.91124 0.34079 0.0
C335 C 0.13726 0.95962 0.31518 0.0
C336 C 0.13265 0.99175 0.31483 0.0
C337 C 0.13913 0.00904 0.35589 0.0
C338 C 0.13007 0.0382 0.35708 0.0
C339 C 0.11484 0.05035 0.31725 0.0
C340 C 0.10953 0.03374 0.27576 0.0
C341 C 0.11837 1.00454 0.27445 0.0
H342 H 0.10691 0.07255 0.31856 0.0
H343 H 0.12294 0.78156 0.2775 0.0
H344 H 0.63081 0.69536 0.64755 0.0
H345 H 0.61398 0.67125 0.71398 0.0
H346 H 0.70394 0.65078 0.76638 0.0
H347 H 0.72093 0.67487 0.69964 0.0
H348 H 0.66492 0.60213 0.76176 0.0
H349 H 0.66981 0.70198 0.82249 0.0
H350 H 0.65929 0.7549 0.81903 0.0
H351 H 0.56622 0.73587 0.8031 0.0
H352 H 0.57618 0.68283 0.8058 0.0
H353 H 0.59316 0.57786 0.98853 0.0
H354 H 0.62891 0.60068 0.94274 0.0
H355 H 0.57142 0.57883 0.81603 0.0
H356 H 0.53634 0.55608 0.86081 0.0
H357 H 0.60331 0.64949 0.8704 0.0
H358 H 0.60475 0.55506 0.76378 0.0
H359 H 0.61119 0.50131 0.76191 0.0
H360 H 0.68818 0.51057 0.86395 0.0
H361 H 0.68175 0.56436 0.86689 0.0
C362 C 0.64703 0.68601 0.6735 0.0
C363 C 0.6772 0.68702 0.66845 0.0
C364 C 0.63741 0.67233 0.71153 0.0
C365 C 0.65772 0.65932 0.74527 0.0
C366 C 0.68792 0.66075 0.74081 0.0
C367 C 0.6976 0.67471 0.70293 0.0
C368 C 0.64709 0.64302 0.78376 0.0
C369 C 0.65199 0.6127 0.78609 0.0
C370 C 0.62977 0.65655 0.81513 0.0
C371 C 0.62376 0.68844 0.8142 0.0
C372 C 0.64711 0.70909 0.81803 0.0
C373 C 0.64124 0.7391 0.81621 0.0
C374 C 0.61211 0.74874 0.81082 0.0
C375 C 0.58878 0.72838 0.80731 0.0
C376 C 0.59452 0.69834 0.80907 0.0
C377 C 0.58882 0.57705 0.95086 0.0
C378 C 0.56206 0.5652 0.92818 0.0
C379 C 0.60905 0.59024 0.9248 0.0
C380 C 0.60283 0.5912 0.87598 0.0
C381 C 0.57691 0.57788 0.85349 0.0
C382 C 0.55684 0.56497 0.87922 0.0
C383 C 0.62111 0.60883 0.84804 0.0
C384 C 0.61721 0.63929 0.84715 0.0
C385 C 0.63879 0.5955 0.81733 0.0
C386 C 0.64267 0.56345 0.81582 0.0
C387 C 0.62293 0.54552 0.78595 0.0
C388 C 0.62655 0.51511 0.78474 0.0
C389 C 0.65005 0.50252 0.81287 0.0
C390 C 0.66993 0.52033 0.84232 0.0
C391 C 0.66625 0.55075 0.84391 0.0
H392 H 0.65289 0.47898 0.81179 0.0
H393 H 0.60761 0.77199 0.80939 0.0
H394 H 0.90569 0.19813 0.08156 0.0
H395 H 0.92916 0.17876 0.155 0.0
H396 H 0.84353 0.16532 0.19894 0.0
H397 H 0.82005 0.18574 0.1259 0.0
H398 H 0.88 0.18201 0.27099 0.0
H399 H 0.88298 0.10871 0.15148 0.0
H400 H 0.89361 0.08775 0.0763 0.0
H401 H 0.9863 0.10383 0.11691 0.0
H402 H 0.97617 0.12535 0.19209 0.0
H403 H 0.91474 0.0601 0.41814 0.0
H404 H 0.89659 0.09395 0.35712 0.0
H405 H 0.98583 0.12278 0.34859 0.0
H406 H 1.00415 0.08922 0.41094 0.0
H407 H 0.95088 0.10113 0.2613 0.0
H408 H 0.94461 0.17035 0.38723 0.0
H409 H 0.93026 0.1864 0.46286 0.0
H410 H 0.83889 0.17178 0.40976 0.0
H411 H 0.85273 0.15519 0.334 0.0
C412 C 0.8919 0.19128 0.10711 0.0
C413 C 0.86102 0.19323 0.09786 0.0
C414 C 0.90533 0.18007 0.14903 0.0
C415 C 0.88816 0.16984 0.18228 0.0
C416 C 0.85733 0.17291 0.1739 0.0
C417 C 0.84389 0.1846 0.13217 0.0
C418 C 0.90228 0.15502 0.22481 0.0
C419 C 0.89534 0.16421 0.26869 0.0
C420 C 0.9226 0.1319 0.22229 0.0
C421 C 0.92879 0.11896 0.17716 0.0
C422 C 0.90561 0.108 0.14421 0.0
C423 C 0.91155 0.096 0.10162 0.0
C424 C 0.94061 0.09454 0.09177 0.0
C425 C 0.9638 0.10503 0.12455 0.0
C426 C 0.95798 0.11714 0.16715 0.0
C427 C 0.93043 0.07427 0.40419 0.0
C428 C 0.96081 0.07222 0.41945 0.0
C429 C 0.92003 0.09354 0.36926 0.0
C430 C 0.93984 0.11085 0.34828 0.0
C431 C 0.97019 0.10964 0.36447 0.0
C432 C 0.9806 0.09072 0.4003 0.0
C433 C 0.92868 0.12827 0.30711 0.0
C434 C 0.93595 0.11931 0.26346 0.0
C435 C 0.90815 0.15103 0.30977 0.0
C436 C 0.89973 0.16135 0.35505 0.0
C437 C 0.92147 0.17036 0.39178 0.0
C438 C 0.91343 0.17959 0.43466 0.0
C439 C 0.88368 0.18007 0.44113 0.0
C440 C 0.86192 0.17139 0.4047 0.0
C441 C 0.86985 0.16211 0.36176 0.0
H442 H 0.8775 0.18721 0.47437 0.0
H443 H 0.94516 0.08522 0.05879 0.0
H444 H 0.30659 0.37592 0.60688 0.0
H445 H 0.3313 0.393 0.68328 0.0
H446 H 0.41606 0.37753 0.63799 0.0
H447 H 0.39142 0.36076 0.56119 0.0
H448 H 0.40957 0.35872 0.73349 0.0
H449 H 0.39725 0.44201 0.63423 0.0
H450 H 0.36938 0.47538 0.5796 0.0
H451 H 0.3123 0.49665 0.68162 0.0
H452 H 0.33952 0.46294 0.73658 0.0
H453 H 0.49777 0.45662 0.89976 0.0
H454 H 0.47483 0.42465 0.83495 0.0
H455 H 0.3887 0.45367 0.86033 0.0
H456 H 0.41154 0.48589 0.92385 0.0
H457 H 0.39713 0.46385 0.77413 0.0
H458 H 0.40947 0.38218 0.87476 0.0
H459 H 0.43676 0.34894 0.93027 0.0
H460 H 0.4929 0.32471 0.82828 0.0
H461 H 0.46618 0.35816 0.77236 0.0
C462 C 0.33047 0.3758 0.61348 0.0
C463 C 0.34714 0.36713 0.57821 0.0
C464 C 0.34453 0.38557 0.657 0.0
C465 C 0.37547 0.38649 0.66615 0.0
C466 C 0.39217 0.37683 0.63159 0.0
C467 C 0.37811 0.36749 0.58776 0.0
C468 C 0.39025 0.39958 0.71059 0.0
C469 C 0.40718 0.38177 0.74234 0.0
C470 C 0.38664 0.42948 0.72227 0.0
C471 C 0.37018 0.44968 0.68927 0.0
C472 C 0.37854 0.45354 0.64481 0.0
C473 C 0.36291 0.47256 0.61383 0.0
C474 C 0.33902 0.48806 0.62707 0.0
C475 C 0.33076 0.48458 0.67137 0.0
C476 C 0.34628 0.46552 0.70245 0.0
C477 C 0.47393 0.45517 0.89253 0.0
C478 C 0.45634 0.47359 0.91657 0.0
C479 C 0.46081 0.43705 0.85541 0.0
C480 C 0.43002 0.43699 0.84249 0.0
C481 C 0.41247 0.45354 0.86935 0.0
C482 C 0.42551 0.47176 0.90585 0.0
C483 C 0.4162 0.42296 0.79791 0.0
C484 C 0.39953 0.44073 0.76572 0.0
C485 C 0.41999 0.39305 0.78615 0.0
C486 C 0.43604 0.3729 0.81958 0.0
C487 C 0.42781 0.36996 0.86432 0.0
C488 C 0.44313 0.35104 0.89582 0.0
C489 C 0.46661 0.33478 0.88286 0.0
C490 C 0.47474 0.33735 0.8383 0.0
C491 C 0.4595 0.35627 0.80667 0.0
H492 H 0.47845 0.32014 0.90731 0.0
H493 H 0.32697 0.50281 0.60306 0.0
H494 H 0.65063 0.64442 0.522 0.0
H495 H 0.6252 0.62554 0.44954 0.0
H496 H 0.66046 0.69645 0.37687 0.0
H497 H 0.68188 0.71879 0.45079 0.0
H498 H 0.61142 0.68607 0.33427 0.0
H499 H 0.68829 0.61899 0.3828 0.0
H500 H 0.71817 0.586 0.4357 0.0
H501 H 0.6417 0.53172 0.44385 0.0
H502 H 0.61131 0.56457 0.3915 0.0
H503 H 0.57301 0.59489 0.12101 0.0
H504 H 0.59783 0.62635 0.18532 0.0
H505 H 0.55442 0.57761 0.28316 0.0
H506 H 0.53039 0.54614 0.21981 0.0
H507 H 0.61353 0.57848 0.30534 0.0
H508 H 0.53741 0.64974 0.25462 0.0
H509 H 0.51157 0.68209 0.19604 0.0
H510 H 0.59305 0.7276 0.18508 0.0
H511 H 0.61943 0.69521 0.243 0.0
C512 C 0.65244 0.65698 0.49137 0.0
C513 C 0.66856 0.68371 0.49366 0.0
C514 C 0.63842 0.64535 0.44908 0.0
C515 C 0.64171 0.65872 0.40693 0.0
C516 C 0.65773 0.68533 0.40864 0.0
C517 C 0.67057 0.69788 0.45137 0.0
C518 C 0.62811 0.64496 0.36155 0.0
C519 C 0.61236 0.66257 0.32784 0.0
C520 C 0.6292 0.61427 0.35229 0.0
C521 C 0.64752 0.59434 0.38343 0.0
C522 C 0.67785 0.60008 0.39603 0.0
C523 C 0.69486 0.58141 0.42593 0.0
C524 C 0.68183 0.55681 0.44318 0.0
C525 C 0.65177 0.55078 0.43048 0.0
C526 C 0.63465 0.56939 0.40064 0.0
C527 C 0.56824 0.59155 0.15614 0.0
C528 C 0.55002 0.56801 0.16563 0.0
C529 C 0.58245 0.60943 0.19284 0.0
C530 C 0.57817 0.60415 0.23915 0.0
C531 C 0.55832 0.58192 0.24786 0.0
C532 C 0.54452 0.56401 0.2116 0.0
C533 C 0.5961 0.61941 0.27944 0.0
C534 C 0.61288 0.60201 0.31193 0.0
C535 C 0.59653 0.65019 0.28681 0.0
C536 C 0.58041 0.6699 0.25278 0.0
C537 C 0.54982 0.66653 0.23948 0.0
C538 C 0.53509 0.68489 0.20642 0.0
C539 C 0.55069 0.70684 0.18678 0.0
C540 C 0.58101 0.71057 0.20028 0.0
C541 C 0.59585 0.69224 0.23321 0.0
H542 H 0.53934 0.72102 0.16115 0.0
H543 H 0.69504 0.5424 0.46634 0.0
H544 H 0.85017 0.21908 0.88149 0.0
H545 H 0.86784 0.19385 0.81508 0.0
H546 H 0.87352 0.1131 0.88984 0.0
H547 H 0.85519 0.13781 0.9557 0.0
H548 H 0.92353 0.12378 0.85228 0.0
H549 H 0.82 0.12167 0.80031 0.0
H550 H 0.77024 0.14197 0.7813 0.0
H551 H 0.80134 0.19609 0.67825 0.0
H552 H 0.85143 0.17645 0.69721 0.0
H553 H 0.95704 0.03334 0.66459 0.0
H554 H 0.92569 0.05241 0.72093 0.0
H555 H 0.92811 0.13803 0.66142 0.0
H556 H 0.96005 0.11922 0.60618 0.0
H557 H 0.87187 0.12237 0.69042 0.0
H558 H 0.97581 0.1273 0.74699 0.0
H559 H 0.02559 0.10694 0.7653 0.0
H560 H 0.99332 0.04738 0.86004 0.0
H561 H 0.94316 0.06709 0.84162 0.0
C562 C 0.85466 0.19584 0.88357 0.0
C563 C 0.8514 0.18063 0.92431 0.0
C564 C 0.86488 0.18144 0.84556 0.0
C565 C 0.87202 0.15152 0.84738 0.0
C566 C 0.86837 0.13621 0.88766 0.0
C567 C 0.85799 0.15049 0.92546 0.0
C568 C 0.88428 0.13636 0.80809 0.0
C569 C 0.91194 0.12307 0.81708 0.0
C570 C 0.86954 0.13585 0.76187 0.0
C571 C 0.83952 0.14782 0.75053 0.0
C572 C 0.81629 0.13811 0.77392 0.0
C573 C 0.78802 0.14946 0.76309 0.0
C574 C 0.78265 0.17037 0.72868 0.0
C575 C 0.80554 0.17993 0.70496 0.0
C576 C 0.83387 0.16869 0.71572 0.0
C577 C 0.94984 0.0559 0.66242 0.0
C578 C 0.96056 0.07477 0.63076 0.0
C579 C 0.9322 0.06685 0.69484 0.0
C580 C 0.92474 0.09671 0.69556 0.0
C581 C 0.93348 0.11494 0.6614 0.0
C582 C 0.9516 0.10416 0.62973 0.0
C583 C 0.91093 0.1098 0.73483 0.0
C584 C 0.88318 0.12284 0.72579 0.0
C585 C 0.92555 0.11012 0.78107 0.0
C586 C 0.95568 0.09836 0.79243 0.0
C587 C 0.97926 0.10965 0.77136 0.0
C588 C 0.00756 0.09828 0.78182 0.0
C589 C 0.0126 0.0758 0.81369 0.0
C590 C 0.98936 0.06474 0.83527 0.0
C591 C 0.961 0.076 0.82483 0.0
H592 H 0.03452 0.06703 0.82177 0.0
H593 H 0.76073 0.17911 0.72031 0.0
H594 H 0.34333 0.42271 0.43864 0.0
H595 H 0.3627 0.44499 0.37298 0.0
H596 H 0.34966 0.36294 0.29493 0.0
H597 H 0.33142 0.34013 0.36125 0.0
H598 H 0.40332 0.38547 0.29074 0.0
H599 H 0.30423 0.42357 0.27074 0.0
H600 H 0.26208 0.44971 0.29662 0.0
H601 H 0.31543 0.52799 0.32395 0.0
H602 H 0.35801 0.50219 0.29884 0.0
H603 H 0.44401 0.43369 0.08414 0.0
H604 H 0.41049 0.41603 0.13681 0.0
H605 H 0.41799 0.49985 0.21057 0.0
H606 H 0.45024 0.51803 0.15596 0.0
H607 H 0.36586 0.47704 0.21647 0.0
H608 H 0.46442 0.44184 0.24348 0.0
H609 H 0.50942 0.41812 0.22322 0.0
H610 H 0.46109 0.3372 0.19088 0.0
H611 H 0.41568 0.3606 0.21023 0.0
C612 C 0.34464 0.40933 0.40757 0.0
C613 C 0.33589 0.37953 0.4054 0.0
C614 C 0.35541 0.42224 0.36978 0.0
C615 C 0.35736 0.40577 0.32871 0.0
C616 C 0.34825 0.37615 0.32616 0.0
C617 C 0.33758 0.36318 0.364 0.0
C618 C 0.37035 0.41888 0.28934 0.0
C619 C 0.39474 0.40518 0.27393 0.0
C620 C 0.36003 0.44532 0.26866 0.0
C621 C 0.33433 0.46089 0.28321 0.0
C622 C 0.30701 0.44631 0.28253 0.0
C623 C 0.28304 0.46107 0.29703 0.0
C624 C 0.28609 0.49048 0.312 0.0
C625 C 0.3131 0.50521 0.31238 0.0
C626 C 0.33714 0.49054 0.29796 0.0
C627 C 0.43738 0.44871 0.11033 0.0
C628 C 0.44942 0.47723 0.1159 0.0
C629 C 0.41858 0.4385 0.14086 0.0
C630 C 0.41249 0.45625 0.17873 0.0
C631 C 0.4225 0.48564 0.18189 0.0
C632 C 0.44076 0.49611 0.1505 0.0
C633 C 0.39847 0.44327 0.21729 0.0
C634 C 0.37418 0.45713 0.23289 0.0
C635 C 0.40927 0.41727 0.239 0.0
C636 C 0.4366 0.40305 0.22783 0.0
C637 C 0.46336 0.41904 0.23177 0.0
C638 C 0.48893 0.40565 0.22046 0.0
C639 C 0.4881 0.37619 0.20565 0.0
C640 C 0.4617 0.36003 0.20227 0.0
C641 C 0.43603 0.37334 0.2134 0.0
H642 H 0.50792 0.36587 0.19689 0.0
H643 H 0.26751 0.50186 0.32323 0.0
H644 H 0.18313 0.8301 0.94118 0.0
H645 H 0.15739 0.84692 0.86698 0.0
H646 H 0.14681 0.93219 0.92997 0.0
H647 H 0.17328 0.91617 0.00315 0.0
H648 H 0.0945 0.90922 0.88365 0.0
H649 H 0.19542 0.92406 0.85727 0.0
H650 H 0.24636 0.90938 0.8499 0.0
H651 H 0.21407 0.84815 0.73921 0.0
H652 H 0.16285 0.8622 0.74642 0.0
H653 H 0.06606 0.01681 0.72274 0.0
H654 H 0.08752 0.98343 0.78073 0.0
H655 H 0.08198 0.91322 0.67715 0.0
H656 H 0.06046 0.94738 0.61725 0.0
H657 H 0.13762 0.91746 0.73604 0.0
H658 H 0.03575 0.91068 0.7564 0.0
H659 H 0.98642 0.93022 0.76348 0.0
H660 H 0.0219 0.97989 0.88655 0.0
H661 H 0.07151 0.96092 0.87991 0.0
C662 C 0.17572 0.85256 0.93909 0.0
C663 C 0.17997 0.87157 0.97865 0.0
C664 C 0.16089 0.8621 0.89664 0.0
C665 C 0.14993 0.89075 0.89301 0.0
C666 C 0.15472 0.90987 0.93205 0.0
C667 C 0.16974 0.90054 0.97409 0.0
C668 C 0.13268 0.90103 0.84933 0.0
C669 C 0.10392 0.91092 0.85134 0.0
C670 C 0.14462 0.90257 0.80676 0.0
C671 C 0.17531 0.89382 0.80289 0.0
C672 C 0.19916 0.90719 0.83177 0.0
C673 C 0.22809 0.89906 0.82752 0.0
C674 C 0.23345 0.87775 0.79425 0.0
C675 C 0.20988 0.86458 0.76508 0.0
C676 C 0.1809 0.87261 0.76923 0.0
C677 C 0.06924 0.99428 0.7118 0.0
C678 C 0.06162 0.98487 0.66502 0.0
C679 C 0.08143 0.97511 0.74535 0.0
C680 C 0.08615 0.94572 0.73358 0.0
C681 C 0.07842 0.93584 0.68703 0.0
C682 C 0.06595 0.95526 0.65295 0.0
C683 C 0.09971 0.92624 0.77079 0.0
C684 C 0.12782 0.9148 0.76781 0.0
C685 C 0.08731 0.92345 0.81278 0.0
C686 C 0.05736 0.93437 0.8176 0.0
C687 C 0.03305 0.92582 0.78491 0.0
C688 C 0.00503 0.9368 0.78884 0.0
C689 C 1.00103 0.95628 0.82544 0.0
C690 C 0.02502 0.96475 0.85827 0.0
C691 C 0.05308 0.95383 0.8545 0.0
H692 H 0.97933 0.96481 0.82837 0.0
H693 H 0.25587 0.87152 0.79095 0.0
loop_
_geom_bond_atom_site_label_1
_geom_bond_atom_site_label_2
_geom_bond_distance
_geom_bond_site_symmetry_2
_ccdc_geom_bond_type
H0 C7 0.929 . S
H1 C10 0.930 . S
H2 C12 0.929 1_556 S
H3 C4 0.969 . S
C4 H3 0.969 . S
C4 O5 1.550 . S
C4 H6 0.973 . S
O5 C4 1.550 . S
O5 C11 1.412 . S
H6 C4 0.973 . S
C7 H0 0.929 . S
C7 C8 1.400 . S
C7 C9 1.364 . S
C8 C7 1.400 . S
C8 C12 1.377 . S
C9 C7 1.364 . S
C9 C10 1.374 . S
C10 H1 0.930 . S
C10 C9 1.374 . S
C10 C11 1.383 . S
C11 O5 1.412 . S
C11 C10 1.383 . S
C11 C12 1.394 . S
C12 H2 0.929 1_554 S
C12 C8 1.377 . S
C12 C11 1.394 . S
H13 C20 0.929 . S
H14 C23 0.930 . S
H15 C25 0.929 . S
H16 C17 0.969 . S
C17 H16 0.969 . S
C17 O18 1.550 . S
C17 H19 0.973 . S
O18 C17 1.550 . S
O18 C24 1.412 . S
H19 C17 0.973 . S
C20 H13 0.929 . S
C20 C21 1.400 . S
C20 C22 1.364 . S
C21 C20 1.400 . S
C21 C25 1.377 . S
C22 C20 1.364 . S
C22 C23 1.374 . S
C23 H14 0.930 . S
C23 C22 1.374 . S
C23 C24 1.383 . S
C24 O18 1.412 . S
C24 C23 1.383 . S
C24 C25 1.394 . S
C25 H15 0.929 . S
C25 C21 1.377 . S
C25 C24 1.394 . S
H26 C33 0.929 . S
H27 C36 0.930 . S
H28 C38 0.929 . S
H29 C30 0.969 . S
C30 H29 0.969 . S
C30 O31 1.550 1_556 S
C30 H32 0.973 . S
O31 C30 1.550 1_554 S
O31 C37 1.412 . S
H32 C30 0.973 . S
C33 H26 0.929 . S
C33 C34 1.400 . S
C33 C35 1.364 1_554 S
C34 C33 1.400 . S
C34 C38 1.377 . S
C35 C33 1.364 1_556 S
C35 C36 1.374 . S
C36 H27 0.930 . S
C36 C35 1.374 . S
C36 C37 1.383 1_556 S
C37 O31 1.412 . S
C37 C36 1.383 1_554 S
C37 C38 1.394 . S
C38 H28 0.929 . S
C38 C34 1.377 . S
C38 C37 1.394 . S
H39 C46 0.929 . S
H40 C49 0.930 . S
H41 C51 0.929 . S
H42 C43 0.969 . S
C43 H42 0.969 . S
C43 O44 1.550 . S
C43 H45 0.973 . S
O44 C43 1.550 . S
O44 C50 1.412 . S
H45 C43 0.973 . S
C46 H39 0.929 . S
C46 C47 1.400 . S
C46 C48 1.364 . S
C47 C46 1.400 . S
C47 C51 1.377 . S
C48 C46 1.364 . S
C48 C49 1.374 . S
C49 H40 0.930 . S
C49 C48 1.374 . S
C49 C50 1.383 . S
C50 O44 1.412 . S
C50 C49 1.383 . S
C50 C51 1.394 . S
C51 H41 0.929 . S
C51 C47 1.377 . S
C51 C50 1.394 . S
O52 Mn53 2.163 1_655 S
O52 C66 1.244 . S
Mn53 O52 2.163 1_455 S
Mn53 O56 2.160 1_545 S
Mn53 O57 2.221 . S
Mn53 O59 2.163 1_455 S
Mn53 O61 2.160 1_545 S
Mn53 O71 2.221 1_445 S
O54 Mn55 2.087 1_545 S
O54 C66 1.256 . S
Mn55 O54 2.087 1_565 S
Mn55 O62 2.089 1_655 S
Mn55 O71 2.290 . S
Mn55 O72 2.251 . S
O56 Mn53 2.160 1_565 S
O56 C67 1.239 . S
O57 Mn53 2.221 . S
O57 Mn58 2.290 . S
O57 C68 1.278 . S
Mn58 O57 2.290 . S
Mn58 O60 2.089 . S
Mn58 O63 2.251 . S
Mn58 O64 2.087 . S
O59 Mn53 2.163 1_655 S
O59 C69 1.244 . S
O60 Mn58 2.089 . S
O60 C67 1.256 1_545 S
O61 Mn53 2.160 1_565 S
O61 C70 1.239 . S
O62 Mn55 2.089 1_455 S
O62 C70 1.256 . S
O63 Mn58 2.251 . S
O63 C68 1.241 . S
O64 Mn58 2.087 . S
O64 C69 1.256 1_455 S
C65 O71 1.278 . S
C65 O72 1.241 . S
C66 O52 1.244 . S
C66 O54 1.256 . S
C67 O56 1.239 . S
C67 O60 1.256 1_565 S
C68 O57 1.278 . S
C68 O63 1.241 . S
C69 O59 1.244 . S
C69 O64 1.256 1_655 S
C70 O61 1.239 . S
C70 O62 1.256 . S
O71 Mn53 2.221 1_665 S
O71 Mn55 2.290 . S
O71 C65 1.278 . S
O72 Mn55 2.251 . S
O72 C65 1.241 . S
O73 Mn74 2.163 . S
O73 C87 1.244 . S
Mn74 O73 2.163 . S
Mn74 O77 2.160 1_554 S
Mn74 O78 2.221 . S
Mn74 O80 2.163 1_554 S
Mn74 O82 2.160 . S
Mn74 O92 2.221 . S
O75 Mn76 2.087 . S
O75 C87 1.256 . S
Mn76 O75 2.087 . S
Mn76 O83 2.089 . S
Mn76 O92 2.290 . S
Mn76 O93 2.251 . S
O77 Mn74 2.160 1_556 S
O77 C88 1.239 . S
O78 Mn74 2.221 . S
O78 Mn79 2.290 1_554 S
O78 C89 1.278 . S
Mn79 O78 2.290 1_556 S
Mn79 O81 2.089 . S
Mn79 O84 2.251 . S
Mn79 O85 2.087 . S
O80 Mn74 2.163 1_556 S
O80 C90 1.244 . S
O81 Mn79 2.089 . S
O81 C88 1.256 . S
O82 Mn74 2.160 . S
O82 C91 1.239 . S
O83 Mn76 2.089 . S
O83 C91 1.256 . S
O84 Mn79 2.251 . S
O84 C89 1.241 1_556 S
O85 Mn79 2.087 . S
O85 C90 1.256 . S
C86 O92 1.278 . S
C86 O93 1.241 . S
C87 O73 1.244 . S
C87 O75 1.256 . S
C88 O77 1.239 . S
C88 O81 1.256 . S
C89 O78 1.278 . S
C89 O84 1.241 1_554 S
C90 O80 1.244 . S
C90 O85 1.256 . S
C91 O82 1.239 . S
C91 O83 1.256 . S
O92 Mn74 2.221 . S
O92 Mn76 2.290 . S
O92 C86 1.278 . S
O93 Mn76 2.251 . S
O93 C86 1.241 . S
H94 C112 0.951 . S
H95 C114 0.951 . S
H96 C116 0.950 . S
H97 C117 0.950 . S
H98 C119 0.950 . S
H99 C122 0.950 . S
H100 C123 0.950 . S
H101 C125 0.950 . S
H102 C126 0.950 . S
H103 C127 0.951 . S
H104 C129 0.951 . S
H105 C131 0.950 . S
H106 C132 0.950 . S
H107 C134 0.950 . S
H108 C137 0.950 . S
H109 C138 0.950 . S
H110 C140 0.950 . S
H111 C141 0.950 . S
C112 H94 0.951 . S
C112 C113 1.366 . S
C112 C114 1.388 . S
C113 C112 1.366 . S
C113 C117 1.385 . S
C114 H95 0.951 . S
C114 C112 1.388 . S
C114 C115 1.366 . S
C115 C114 1.366 . S
C115 C116 1.414 . S
C115 C118 1.499 . S
C116 H96 0.950 . S
C116 C115 1.414 . S
C116 C117 1.374 . S
C117 H97 0.950 . S
C117 C113 1.385 . S
C117 C116 1.374 . S
C118 C115 1.499 . S
C118 C119 1.373 . S
C118 C120 1.389 . S
C119 H98 0.950 . S
C119 C118 1.373 . S
C119 C135 1.377 . S
C120 C118 1.389 . S
C120 C121 1.524 . S
C120 C134 1.377 . S
C121 C120 1.524 . S
C121 C122 1.397 . S
C121 C126 1.363 . S
C122 H99 0.950 . S
C122 C121 1.397 . S
C122 C123 1.334 . S
C123 H100 0.950 . S
C123 C122 1.334 . S
C123 C124 1.287 . S
C124 C123 1.287 . S
C124 C125 1.524 . S
C124 H143 0.913 . S
C125 H101 0.950 . S
C125 C124 1.524 . S
C125 C126 1.415 . S
C126 H102 0.950 . S
C126 C121 1.363 . S
C126 C125 1.415 . S
C127 H103 0.951 . S
C127 C128 1.366 . S
C127 C129 1.388 . S
C128 C127 1.366 . S
C128 C132 1.385 . S
C129 H104 0.951 . S
C129 C127 1.388 . S
C129 C130 1.366 . S
C130 C129 1.366 . S
C130 C131 1.414 . S
C130 C133 1.499 . S
C131 H105 0.950 . S
C131 C130 1.414 . S
C131 C132 1.374 . S
C132 H106 0.950 . S
C132 C128 1.385 . S
C132 C131 1.374 . S
C133 C130 1.499 . S
C133 C134 1.373 . S
C133 C135 1.389 . S
C134 H107 0.950 . S
C134 C120 1.377 . S
C134 C133 1.373 . S
C135 C119 1.377 . S
C135 C133 1.389 . S
C135 C136 1.524 . S
C136 C135 1.524 . S
C136 C137 1.397 . S
C136 C141 1.363 . S
C137 H108 0.950 . S
C137 C136 1.397 . S
C137 C138 1.334 . S
C138 H109 0.950 . S
C138 C137 1.334 . S
C138 C139 1.287 . S
C139 C138 1.287 . S
C139 C140 1.524 . S
C139 H142 0.999 . S
C140 H110 0.950 . S
C140 C139 1.524 . S
C140 C141 1.415 . S
C141 H111 0.950 . S
C141 C136 1.363 . S
C141 C140 1.415 . S
H142 C139 0.999 . S
H143 C124 0.913 . S
H144 C162 0.951 . S
H145 C164 0.951 . S
H146 C166 0.950 . S
H147 C167 0.950 . S
H148 C169 0.950 . S
H149 C172 0.950 . S
H150 C173 0.950 . S
H151 C175 0.950 . S
H152 C176 0.950 . S
H153 C177 0.951 . S
H154 C179 0.951 . S
H155 C181 0.950 1_556 S
H156 C182 0.950 1_556 S
H157 C184 0.950 . S
H158 C187 0.950 . S
H159 C188 0.950 . S
H160 C190 0.950 . S
H161 C191 0.950 . S
C162 H144 0.951 . S
C162 C163 1.366 . S
C162 C164 1.388 . S
C163 C162 1.366 . S
C163 C167 1.385 . S
C164 H145 0.951 . S
C164 C162 1.388 . S
C164 C165 1.366 . S
C165 C164 1.366 . S
C165 C166 1.414 . S
C165 C168 1.499 . S
C166 H146 0.950 . S
C166 C165 1.414 . S
C166 C167 1.374 . S
C167 H147 0.950 . S
C167 C163 1.385 . S
C167 C166 1.374 . S
C168 C165 1.499 . S
C168 C169 1.373 . S
C168 C170 1.389 . S
C169 H148 0.950 . S
C169 C168 1.373 . S
C169 C185 1.377 . S
C170 C168 1.389 . S
C170 C171 1.524 . S
C170 C184 1.377 . S
C171 C170 1.524 . S
C171 C172 1.397 . S
C171 C176 1.363 1_554 S
C172 H149 0.950 . S
C172 C171 1.397 . S
C172 C173 1.334 . S
C173 H150 0.950 . S
C173 C172 1.334 . S
C173 C174 1.287 . S
C174 C173 1.287 . S
C174 C175 1.524 1_554 S
C174 H193 0.913 . S
C175 H151 0.950 . S
C175 C174 1.524 1_556 S
C175 C176 1.415 . S
C176 H152 0.950 . S
C176 C171 1.363 1_556 S
C176 C175 1.415 . S
C177 H153 0.951 . S
C177 C178 1.366 . S
C177 C179 1.388 . S
C178 C177 1.366 . S
C178 C182 1.385 . S
C179 H154 0.951 . S
C179 C177 1.388 . S
C179 C180 1.366 . S
C180 C179 1.366 . S
C180 C181 1.414 . S
C180 C183 1.499 . S
C181 H155 0.950 1_554 S
C181 C180 1.414 . S
C181 C182 1.374 . S
C182 H156 0.950 1_554 S
C182 C178 1.385 . S
C182 C181 1.374 . S
C183 C180 1.499 . S
C183 C184 1.373 . S
C183 C185 1.389 . S
C184 H157 0.950 . S
C184 C170 1.377 . S
C184 C183 1.373 . S
C185 C169 1.377 . S
C185 C183 1.389 . S
C185 C186 1.524 . S
C186 C185 1.524 . S
C186 C187 1.397 . S
C186 C191 1.363 . S
C187 H158 0.950 . S
C187 C186 1.397 . S
C187 C188 1.334 . S
C188 H159 0.950 . S
C188 C187 1.334 . S
C188 C189 1.287 . S
C189 C188 1.287 . S
C189 C190 1.524 . S
C189 H192 0.999 . S
C190 H160 0.950 . S
C190 C189 1.524 . S
C190 C191 1.415 . S
C191 H161 0.950 . S
C191 C186 1.363 . S
C191 C190 1.415 . S
H192 C189 0.999 . S
H193 C174 0.913 . S
H194 C212 0.951 . S
H195 C214 0.951 . S
H196 C216 0.950 . S
H197 C217 0.950 . S
H198 C219 0.950 . S
H199 C222 0.950 . S
H200 C223 0.950 . S
H201 C225 0.950 . S
H202 C226 0.950 . S
H203 C227 0.951 . S
H204 C229 0.951 . S
H205 C231 0.950 . S
H206 C232 0.950 . S
H207 C234 0.950 . S
H208 C237 0.950 . S
H209 C238 0.950 . S
H210 C240 0.950 . S
H211 C241 0.950 . S
C212 H194 0.951 . S
C212 C213 1.366 . S
C212 C214 1.388 . S
C213 C212 1.366 . S
C213 C217 1.385 . S
C214 H195 0.951 . S
C214 C212 1.388 . S
C214 C215 1.366 . S
C215 C214 1.366 . S
C215 C216 1.414 . S
C215 C218 1.499 . S
C216 H196 0.950 . S
C216 C215 1.414 . S
C216 C217 1.374 . S
C217 H197 0.950 . S
C217 C213 1.385 . S
C217 C216 1.374 . S
C218 C215 1.499 . S
C218 C219 1.373 . S
C218 C220 1.389 . S
C219 H198 0.950 . S
C219 C218 1.373 . S
C219 C235 1.377 . S
C220 C218 1.389 . S
C220 C221 1.524 . S
C220 C234 1.377 . S
C221 C220 1.524 . S
C221 C222 1.397 . S
C221 C226 1.363 . S
C222 H199 0.950 . S
C222 C221 1.397 . S
C222 C223 1.334 . S
C223 H200 0.950 . S
C223 C222 1.334 . S
C223 C224 1.287 . S
C224 C223 1.287 . S
C224 C225 1.524 . S
C224 H243 0.913 . S
C225 H201 0.950 . S
C225 C224 1.524 . S
C225 C226 1.415 . S
C226 H202 0.950 . S
C226 C221 1.363 . S
C226 C225 1.415 . S
C227 H203 0.951 . S
C227 C228 1.366 . S
C227 C229 1.388 . S
C228 C227 1.366 . S
C228 C232 1.385 . S
C229 H204 0.951 . S
C229 C227 1.388 . S
C229 C230 1.366 . S
C230 C229 1.366 . S
C230 C231 1.414 . S
C230 C233 1.499 . S
C231 H205 0.950 . S
C231 C230 1.414 . S
C231 C232 1.374 . S
C232 H206 0.950 . S
C232 C228 1.385 . S
C232 C231 1.374 . S
C233 C230 1.499 . S
C233 C234 1.373 . S
C233 C235 1.389 . S
C234 H207 0.950 . S
C234 C220 1.377 . S
C234 C233 1.373 . S
C235 C219 1.377 . S
C235 C233 1.389 . S
C235 C236 1.524 . S
C236 C235 1.524 . S
C236 C237 1.397 . S
C236 C241 1.363 . S
C237 H208 0.950 . S
C237 C236 1.397 . S
C237 C238 1.334 . S
C238 H209 0.950 . S
C238 C237 1.334 . S
C238 C239 1.287 . S
C239 C238 1.287 . S
C239 C240 1.524 . S
C239 H242 0.999 . S
C240 H210 0.950 . S
C240 C239 1.524 . S
C240 C241 1.415 . S
C241 H211 0.950 . S
C241 C236 1.363 . S
C241 C240 1.415 . S
H242 C239 0.999 . S
H243 C224 0.913 . S
H244 C262 0.951 . S
H245 C264 0.951 . S
H246 C266 0.950 . S
H247 C267 0.950 . S
H248 C269 0.950 . S
H249 C272 0.950 1_554 S
H250 C273 0.950 . S
H251 C275 0.950 . S
H252 C276 0.950 . S
H253 C277 0.951 . S
H254 C279 0.951 . S
H255 C281 0.950 . S
H256 C282 0.950 . S
H257 C284 0.950 . S
H258 C287 0.950 . S
H259 C288 0.950 . S
H260 C290 0.950 . S
H261 C291 0.950 . S
C262 H244 0.951 . S
C262 C263 1.366 . S
C262 C264 1.388 . S
C263 C262 1.366 . S
C263 C267 1.385 1_556 S
C264 H245 0.951 . S
C264 C262 1.388 . S
C264 C265 1.343 1_556 S
C265 C264 1.343 1_554 S
C265 C266 1.433 . S
C265 C268 1.503 . S
C266 H246 0.950 . S
C266 C265 1.433 . S
C266 C267 1.374 . S
C267 H247 0.950 . S
C267 C263 1.385 1_554 S
C267 C266 1.374 . S
C268 C265 1.503 . S
C268 C269 1.373 . S
C268 C270 1.389 1_554 S
C269 H248 0.950 . S
C269 C268 1.373 . S
C269 C285 1.377 . S
C270 C268 1.389 1_556 S
C270 C271 1.524 . S
C270 C284 1.377 . S
C271 C270 1.524 . S
C271 C272 1.397 . S
C271 C276 1.363 . S
C272 H249 0.950 1_556 S
C272 C271 1.397 . S
C272 C273 1.334 . S
C273 H250 0.950 . S
C273 C272 1.334 . S
C273 C274 1.287 . S
C274 C273 1.287 . S
C274 C275 1.524 . S
C274 H293 0.913 . S
C275 H251 0.950 . S
C275 C274 1.524 . S
C275 C276 1.415 . S
C276 H252 0.950 . S
C276 C271 1.363 . S
C276 C275 1.415 . S
C277 H253 0.951 . S
C277 C278 1.366 . S
C277 C279 1.388 . S
C278 C277 1.366 . S
C278 C282 1.385 1_554 S
C279 H254 0.951 . S
C279 C277 1.388 . S
C279 C280 1.366 . S
C280 C279 1.366 . S
C280 C281 1.414 1_554 S
C280 C283 1.499 . S
C281 H255 0.950 . S
C281 C280 1.414 1_556 S
C281 C282 1.374 . S
C282 H256 0.950 . S
C282 C278 1.385 1_556 S
C282 C281 1.374 . S
C283 C280 1.499 . S
C283 C284 1.373 1_554 S
C283 C285 1.389 . S
C284 H257 0.950 . S
C284 C270 1.377 . S
C284 C283 1.373 1_556 S
C285 C269 1.377 . S
C285 C283 1.389 . S
C285 C286 1.524 . S
C286 C285 1.524 . S
C286 C287 1.397 . S
C286 C291 1.363 . S
C287 H258 0.950 . S
C287 C286 1.397 . S
C287 C288 1.334 . S
C288 H259 0.950 . S
C288 C287 1.334 . S
C288 C289 1.287 . S
C289 C288 1.287 . S
C289 C290 1.524 . S
C289 H292 0.999 . S
C290 H260 0.950 . S
C290 C289 1.524 . S
C290 C291 1.415 . S
C291 H261 0.950 . S
C291 C286 1.363 . S
C291 C290 1.415 . S
H292 C289 0.999 . S
H293 C274 0.913 . S
H294 C312 0.951 . S
H295 C314 0.951 . S
H296 C316 0.950 . S
H297 C317 0.950 . S
H298 C319 0.950 . S
H299 C322 0.950 . S
H300 C323 0.950 . S
H301 C325 0.950 . S
H302 C326 0.950 . S
H303 C327 0.951 . S
H304 C329 0.951 . S
H305 C331 0.950 . S
H306 C332 0.950 . S
H307 C334 0.950 . S
H308 C337 0.950 . S
H309 C338 0.950 . S
H310 C340 0.950 . S
H311 C341 0.950 . S
C312 H294 0.951 . S
C312 C313 1.366 . S
C312 C314 1.388 . S
C313 C312 1.366 . S
C313 C317 1.385 . S
C314 H295 0.951 . S
C314 C312 1.388 . S
C314 C315 1.366 . S
C315 C314 1.366 . S
C315 C316 1.414 . S
C315 C318 1.499 . S
C316 H296 0.950 . S
C316 C315 1.414 . S
C316 C317 1.374 . S
C317 H297 0.950 . S
C317 C313 1.385 . S
C317 C316 1.374 . S
C318 C315 1.499 . S
C318 C319 1.373 . S
C318 C320 1.389 . S
C319 H298 0.950 . S
C319 C318 1.373 . S
C319 C335 1.377 . S
C320 C318 1.389 . S
C320 C321 1.524 . S
C320 C334 1.377 . S
C321 C320 1.524 . S
C321 C322 1.397 . S
C321 C326 1.363 . S
C322 H299 0.950 . S
C322 C321 1.397 . S
C322 C323 1.334 . S
C323 H300 0.950 . S
C323 C322 1.334 . S
C323 C324 1.287 . S
C324 C323 1.287 . S
C324 C325 1.524 . S
C324 H343 0.913 . S
C325 H301 0.950 . S
C325 C324 1.524 . S
C325 C326 1.415 . S
C326 H302 0.950 . S
C326 C321 1.363 . S
C326 C325 1.415 . S
C327 H303 0.951 . S
C327 C328 1.366 . S
C327 C329 1.388 . S
C328 C327 1.366 . S
C328 C332 1.385 . S
C329 H304 0.951 . S
C329 C327 1.388 . S
C329 C330 1.366 . S
C330 C329 1.366 . S
C330 C331 1.414 . S
C330 C333 1.499 . S
C331 H305 0.950 . S
C331 C330 1.414 . S
C331 C332 1.374 . S
C332 H306 0.950 . S
C332 C328 1.385 . S
C332 C331 1.374 . S
C333 C330 1.499 . S
C333 C334 1.373 . S
C333 C335 1.389 . S
C334 H307 0.950 . S
C334 C320 1.377 . S
C334 C333 1.373 . S
C335 C319 1.377 . S
C335 C333 1.389 . S
C335 C336 1.524 . S
C336 C335 1.524 . S
C336 C337 1.397 . S
C336 C341 1.363 . S
C337 H308 0.950 . S
C337 C336 1.397 . S
C337 C338 1.334 1_565 S
C338 H309 0.950 . S
C338 C337 1.334 1_545 S
C338 C339 1.287 . S
C339 C338 1.287 . S
C339 C340 1.524 . S
C339 H342 0.999 . S
C340 H310 0.950 . S
C340 C339 1.524 . S
C340 C341 1.415 1_545 S
C341 H311 0.950 . S
C341 C336 1.363 . S
C341 C340 1.415 1_565 S
H342 C339 0.999 . S
H343 C324 0.913 . S
H344 C362 0.951 . S
H345 C364 0.951 . S
H346 C366 0.950 . S
H347 C367 0.950 . S
H348 C369 0.950 . S
H349 C372 0.950 . S
H350 C373 0.950 . S
H351 C375 0.950 . S
H352 C376 0.950 . S
H353 C377 0.951 . S
H354 C379 0.951 . S
H355 C381 0.950 . S
H356 C382 0.950 . S
H357 C384 0.950 . S
H358 C387 0.950 . S
H359 C388 0.950 . S
H360 C390 0.950 . S
H361 C391 0.950 . S
C362 H344 0.951 . S
C362 C363 1.366 . S
C362 C364 1.388 . S
C363 C362 1.366 . S
C363 C367 1.385 . S
C364 H345 0.951 . S
C364 C362 1.388 . S
C364 C365 1.366 . S
C365 C364 1.366 . S
C365 C366 1.414 . S
C365 C368 1.499 . S
C366 H346 0.950 . S
C366 C365 1.414 . S
C366 C367 1.374 . S
C367 H347 0.950 . S
C367 C363 1.385 . S
C367 C366 1.374 . S
C368 C365 1.499 . S
C368 C369 1.373 . S
C368 C370 1.389 . S
C369 H348 0.950 . S
C369 C368 1.373 . S
C369 C385 1.377 . S
C370 C368 1.389 . S
C370 C371 1.524 . S
C370 C384 1.377 . S
C371 C370 1.524 . S
C371 C372 1.397 . S
C371 C376 1.363 . S
C372 H349 0.950 . S
C372 C371 1.397 . S
C372 C373 1.334 . S
C373 H350 0.950 . S
C373 C372 1.334 . S
C373 C374 1.287 . S
C374 C373 1.287 . S
C374 C375 1.524 . S
C374 H393 0.913 . S
C375 H351 0.950 . S
C375 C374 1.524 . S
C375 C376 1.415 . S
C376 H352 0.950 . S
C376 C371 1.363 . S
C376 C375 1.415 . S
C377 H353 0.951 . S
C377 C378 1.366 . S
C377 C379 1.388 . S
C378 C377 1.366 . S
C378 C382 1.385 . S
C379 H354 0.951 . S
C379 C377 1.388 . S
C379 C380 1.366 . S
C380 C379 1.366 . S
C380 C381 1.414 . S
C380 C383 1.499 . S
C381 H355 0.950 . S
C381 C380 1.414 . S
C381 C382 1.374 . S
C382 H356 0.950 . S
C382 C378 1.385 . S
C382 C381 1.374 . S
C383 C380 1.499 . S
C383 C384 1.373 . S
C383 C385 1.389 . S
C384 H357 0.950 . S
C384 C370 1.377 . S
C384 C383 1.373 . S
C385 C369 1.377 . S
C385 C383 1.389 . S
C385 C386 1.524 . S
C386 C385 1.524 . S
C386 C387 1.397 . S
C386 C391 1.363 . S
C387 H358 0.950 . S
C387 C386 1.397 . S
C387 C388 1.334 . S
C388 H359 0.950 . S
C388 C387 1.334 . S
C388 C389 1.287 . S
C389 C388 1.287 . S
C389 C390 1.524 . S
C389 H392 0.999 . S
C390 H360 0.950 . S
C390 C389 1.524 . S
C390 C391 1.415 . S
C391 H361 0.950 . S
C391 C386 1.363 . S
C391 C390 1.415 . S
H392 C389 0.999 . S
H393 C374 0.913 . S
H394 C412 0.951 . S
H395 C414 0.951 . S
H396 C416 0.950 . S
H397 C417 0.950 . S
H398 C419 0.950 . S
H399 C422 0.950 . S
H400 C423 0.950 . S
H401 C425 0.950 . S
H402 C426 0.950 . S
H403 C427 0.951 . S
H404 C429 0.951 . S
H405 C431 0.950 . S
H406 C432 0.950 1_455 S
H407 C434 0.950 . S
H408 C437 0.950 . S
H409 C438 0.950 . S
H410 C440 0.950 . S
H411 C441 0.950 . S
C412 H394 0.951 . S
C412 C413 1.366 . S
C412 C414 1.388 . S
C413 C412 1.366 . S
C413 C417 1.385 . S
C414 H395 0.951 . S
C414 C412 1.388 . S
C414 C415 1.366 . S
C415 C414 1.366 . S
C415 C416 1.414 . S
C415 C418 1.499 . S
C416 H396 0.950 . S
C416 C415 1.414 . S
C416 C417 1.374 . S
C417 H397 0.950 . S
C417 C413 1.385 . S
C417 C416 1.374 . S
C418 C415 1.499 . S
C418 C419 1.373 . S
C418 C420 1.389 . S
C419 H398 0.950 . S
C419 C418 1.373 . S
C419 C435 1.377 . S
C420 C418 1.389 . S
C420 C421 1.524 . S
C420 C434 1.377 . S
C421 C420 1.524 . S
C421 C422 1.397 . S
C421 C426 1.363 . S
C422 H399 0.950 . S
C422 C421 1.397 . S
C422 C423 1.334 . S
C423 H400 0.950 . S
C423 C422 1.334 . S
C423 C424 1.287 . S
C424 C423 1.287 . S
C424 C425 1.524 . S
C424 H443 0.913 . S
C425 H401 0.950 . S
C425 C424 1.524 . S
C425 C426 1.415 . S
C426 H402 0.950 . S
C426 C421 1.363 . S
C426 C425 1.415 . S
C427 H403 0.951 . S
C427 C428 1.366 . S
C427 C429 1.388 . S
C428 C427 1.366 . S
C428 C432 1.385 . S
C429 H404 0.951 . S
C429 C427 1.388 . S
C429 C430 1.366 . S
C430 C429 1.366 . S
C430 C431 1.414 . S
C430 C433 1.499 . S
C431 H405 0.950 . S
C431 C430 1.414 . S
C431 C432 1.374 . S
C432 H406 0.950 1_655 S
C432 C428 1.385 . S
C432 C431 1.374 . S
C433 C430 1.499 . S
C433 C434 1.373 . S
C433 C435 1.389 . S
C434 H407 0.950 . S
C434 C420 1.377 . S
C434 C433 1.373 . S
C435 C419 1.377 . S
C435 C433 1.389 . S
C435 C436 1.524 . S
C436 C435 1.524 . S
C436 C437 1.397 . S
C436 C441 1.363 . S
C437 H408 0.950 . S
C437 C436 1.397 . S
C437 C438 1.334 . S
C438 H409 0.950 . S
C438 C437 1.334 . S
C438 C439 1.287 . S
C439 C438 1.287 . S
C439 C440 1.524 . S
C439 H442 0.999 . S
C440 H410 0.950 . S
C440 C439 1.524 . S
C440 C441 1.415 . S
C441 H411 0.950 . S
C441 C436 1.363 . S
C441 C440 1.415 . S
H442 C439 0.999 . S
H443 C424 0.913 . S
H444 C462 0.951 . S
H445 C464 0.951 . S
H446 C466 0.950 . S
H447 C467 0.950 . S
H448 C469 0.950 . S
H449 C472 0.950 . S
H450 C473 0.950 . S
H451 C475 0.950 . S
H452 C476 0.950 . S
H453 C477 0.951 . S
H454 C479 0.951 . S
H455 C481 0.950 . S
H456 C482 0.950 . S
H457 C484 0.950 . S
H458 C487 0.950 . S
H459 C488 0.950 . S
H460 C490 0.950 . S
H461 C491 0.950 . S
C462 H444 0.951 . S
C462 C463 1.366 . S
C462 C464 1.388 . S
C463 C462 1.366 . S
C463 C467 1.385 . S
C464 H445 0.951 . S
C464 C462 1.388 . S
C464 C465 1.366 . S
C465 C464 1.366 . S
C465 C466 1.414 . S
C465 C468 1.499 . S
C466 H446 0.950 . S
C466 C465 1.414 . S
C466 C467 1.374 . S
C467 H447 0.950 . S
C467 C463 1.385 . S
C467 C466 1.374 . S
C468 C465 1.499 . S
C468 C469 1.373 . S
C468 C470 1.389 . S
C469 H448 0.950 . S
C469 C468 1.373 . S
C469 C485 1.377 . S
C470 C468 1.389 . S
C470 C471 1.524 . S
C470 C484 1.377 . S
C471 C470 1.524 . S
C471 C472 1.397 . S
C471 C476 1.363 . S
C472 H449 0.950 . S
C472 C471 1.397 . S
C472 C473 1.334 . S
C473 H450 0.950 . S
C473 C472 1.334 . S
C473 C474 1.287 . S
C474 C473 1.287 . S
C474 C475 1.524 . S
C474 H493 0.913 . S
C475 H451 0.950 . S
C475 C474 1.524 . S
C475 C476 1.415 . S
C476 H452 0.950 . S
C476 C471 1.363 . S
C476 C475 1.415 . S
C477 H453 0.951 . S
C477 C478 1.366 . S
C477 C479 1.388 . S
C478 C477 1.366 . S
C478 C482 1.385 . S
C479 H454 0.951 . S
C479 C477 1.388 . S
C479 C480 1.366 . S
C480 C479 1.366 . S
C480 C481 1.414 . S
C480 C483 1.499 . S
C481 H455 0.950 . S
C481 C480 1.414 . S
C481 C482 1.374 . S
C482 H456 0.950 . S
C482 C478 1.385 . S
C482 C481 1.374 . S
C483 C480 1.499 . S
C483 C484 1.373 . S
C483 C485 1.389 . S
C484 H457 0.950 . S
C484 C470 1.377 . S
C484 C483 1.373 . S
C485 C469 1.377 . S
C485 C483 1.389 . S
C485 C486 1.524 . S
C486 C485 1.524 . S
C486 C487 1.397 . S
C486 C491 1.363 . S
C487 H458 0.950 . S
C487 C486 1.397 . S
C487 C488 1.334 . S
C488 H459 0.950 . S
C488 C487 1.334 . S
C488 C489 1.287 . S
C489 C488 1.287 . S
C489 C490 1.524 . S
C489 H492 0.999 . S
C490 H460 0.950 . S
C490 C489 1.524 . S
C490 C491 1.415 . S
C491 H461 0.950 . S
C491 C486 1.363 . S
C491 C490 1.415 . S
H492 C489 0.999 . S
H493 C474 0.913 . S
H494 C512 0.951 . S
H495 C514 0.951 . S
H496 C516 0.950 . S
H497 C517 0.950 . S
H498 C519 0.950 . S
H499 C522 0.950 . S
H500 C523 0.950 . S
H501 C525 0.950 . S
H502 C526 0.950 . S
H503 C527 0.951 . S
H504 C529 0.951 . S
H505 C531 0.950 . S
H506 C532 0.950 . S
H507 C534 0.950 . S
H508 C537 0.950 . S
H509 C538 0.950 . S
H510 C540 0.950 . S
H511 C541 0.950 . S
C512 H494 0.951 . S
C512 C513 1.366 . S
C512 C514 1.388 . S
C513 C512 1.366 . S
C513 C517 1.385 . S
C514 H495 0.951 . S
C514 C512 1.388 . S
C514 C515 1.366 . S
C515 C514 1.366 . S
C515 C516 1.414 . S
C515 C518 1.499 . S
C516 H496 0.950 . S
C516 C515 1.414 . S
C516 C517 1.374 . S
C517 H497 0.950 . S
C517 C513 1.385 . S
C517 C516 1.374 . S
C518 C515 1.499 . S
C518 C519 1.373 . S
C518 C520 1.389 . S
C519 H498 0.950 . S
C519 C518 1.373 . S
C519 C535 1.377 . S
C520 C518 1.389 . S
C520 C521 1.524 . S
C520 C534 1.377 . S
C521 C520 1.524 . S
C521 C522 1.397 . S
C521 C526 1.363 . S
C522 H499 0.950 . S
C522 C521 1.397 . S
C522 C523 1.334 . S
C523 H500 0.950 . S
C523 C522 1.334 . S
C523 C524 1.287 . S
C524 C523 1.287 . S
C524 C525 1.524 . S
C524 H543 0.913 . S
C525 H501 0.950 . S
C525 C524 1.524 . S
C525 C526 1.415 . S
C526 H502 0.950 . S
C526 C521 1.363 . S
C526 C525 1.415 . S
C527 H503 0.951 . S
C527 C528 1.366 . S
C527 C529 1.388 . S
C528 C527 1.366 . S
C528 C532 1.385 . S
C529 H504 0.951 . S
C529 C527 1.388 . S
C529 C530 1.366 . S
C530 C529 1.366 . S
C530 C531 1.414 . S
C530 C533 1.499 . S
C531 H505 0.950 . S
C531 C530 1.414 . S
C531 C532 1.374 . S
C532 H506 0.950 . S
C532 C528 1.385 . S
C532 C531 1.374 . S
C533 C530 1.499 . S
C533 C534 1.373 . S
C533 C535 1.389 . S
C534 H507 0.950 . S
C534 C520 1.377 . S
C534 C533 1.373 . S
C535 C519 1.377 . S
C535 C533 1.389 . S
C535 C536 1.524 . S
C536 C535 1.524 . S
C536 C537 1.397 . S
C536 C541 1.363 . S
C537 H508 0.950 . S
C537 C536 1.397 . S
C537 C538 1.334 . S
C538 H509 0.950 . S
C538 C537 1.334 . S
C538 C539 1.287 . S
C539 C538 1.287 . S
C539 C540 1.524 . S
C539 H542 0.999 . S
C540 H510 0.950 . S
C540 C539 1.524 . S
C540 C541 1.415 . S
C541 H511 0.950 . S
C541 C536 1.363 . S
C541 C540 1.415 . S
H542 C539 0.999 . S
H543 C524 0.913 . S
H544 C562 0.951 . S
H545 C564 0.951 . S
H546 C566 0.950 . S
H547 C567 0.950 . S
H548 C569 0.950 . S
H549 C572 0.950 . S
H550 C573 0.950 . S
H551 C575 0.950 . S
H552 C576 0.950 . S
H553 C577 0.951 . S
H554 C579 0.951 . S
H555 C581 0.950 . S
H556 C582 0.950 . S
H557 C584 0.950 . S
H558 C587 0.950 . S
H559 C588 0.950 . S
H560 C590 0.950 1_455 S
H561 C591 0.950 . S
C562 H544 0.951 . S
C562 C563 1.366 . S
C562 C564 1.388 . S
C563 C562 1.366 . S
C563 C567 1.385 . S
C564 H545 0.951 . S
C564 C562 1.388 . S
C564 C565 1.366 . S
C565 C564 1.366 . S
C565 C566 1.414 . S
C565 C568 1.499 . S
C566 H546 0.950 . S
C566 C565 1.414 . S
C566 C567 1.374 . S
C567 H547 0.950 . S
C567 C563 1.385 . S
C567 C566 1.374 . S
C568 C565 1.499 . S
C568 C569 1.373 . S
C568 C570 1.389 . S
C569 H548 0.950 . S
C569 C568 1.373 . S
C569 C585 1.377 . S
C570 C568 1.389 . S
C570 C571 1.524 . S
C570 C584 1.377 . S
C571 C570 1.524 . S
C571 C572 1.397 . S
C571 C576 1.363 . S
C572 H549 0.950 . S
C572 C571 1.397 . S
C572 C573 1.334 . S
C573 H550 0.950 . S
C573 C572 1.334 . S
C573 C574 1.287 . S
C574 C573 1.287 . S
C574 C575 1.524 . S
C574 H593 0.913 . S
C575 H551 0.950 . S
C575 C574 1.524 . S
C575 C576 1.415 . S
C576 H552 0.950 . S
C576 C571 1.363 . S
C576 C575 1.415 . S
C577 H553 0.951 . S
C577 C578 1.366 . S
C577 C579 1.388 . S
C578 C577 1.366 . S
C578 C582 1.385 . S
C579 H554 0.951 . S
C579 C577 1.388 . S
C579 C580 1.366 . S
C580 C579 1.366 . S
C580 C581 1.414 . S
C580 C583 1.499 . S
C581 H555 0.950 . S
C581 C580 1.414 . S
C581 C582 1.374 . S
C582 H556 0.950 . S
C582 C578 1.385 . S
C582 C581 1.374 . S
C583 C580 1.499 . S
C583 C584 1.373 . S
C583 C585 1.389 . S
C584 H557 0.950 . S
C584 C570 1.377 . S
C584 C583 1.373 . S
C585 C569 1.377 . S
C585 C583 1.389 . S
C585 C586 1.524 . S
C586 C585 1.524 . S
C586 C587 1.397 . S
C586 C591 1.363 . S
C587 H558 0.950 . S
C587 C586 1.397 . S
C587 C588 1.334 1_655 S
C588 H559 0.950 . S
C588 C587 1.334 1_455 S
C588 C589 1.287 . S
C589 C588 1.287 . S
C589 C590 1.524 1_455 S
C589 H592 0.999 . S
C590 H560 0.950 1_655 S
C590 C589 1.524 1_655 S
C590 C591 1.415 . S
C591 H561 0.950 . S
C591 C586 1.363 . S
C591 C590 1.415 . S
H592 C589 0.999 . S
H593 C574 0.913 . S
H594 C612 0.951 . S
H595 C614 0.951 . S
H596 C616 0.950 . S
H597 C617 0.950 . S
H598 C619 0.950 . S
H599 C622 0.950 . S
H600 C623 0.950 . S
H601 C625 0.950 . S
H602 C626 0.950 . S
H603 C627 0.951 . S
H604 C629 0.951 . S
H605 C631 0.950 . S
H606 C632 0.950 . S
H607 C634 0.950 . S
H608 C637 0.950 . S
H609 C638 0.950 . S
H610 C640 0.950 . S
H611 C641 0.950 . S
C612 H594 0.951 . S
C612 C613 1.366 . S
C612 C614 1.388 . S
C613 C612 1.366 . S
C613 C617 1.385 . S
C614 H595 0.951 . S
C614 C612 1.388 . S
C614 C615 1.366 . S
C615 C614 1.366 . S
C615 C616 1.414 . S
C615 C618 1.499 . S
C616 H596 0.950 . S
C616 C615 1.414 . S
C616 C617 1.374 . S
C617 H597 0.950 . S
C617 C613 1.385 . S
C617 C616 1.374 . S
C618 C615 1.499 . S
C618 C619 1.373 . S
C618 C620 1.389 . S
C619 H598 0.950 . S
C619 C618 1.373 . S
C619 C635 1.377 . S
C620 C618 1.389 . S
C620 C621 1.524 . S
C620 C634 1.377 . S
C621 C620 1.524 . S
C621 C622 1.397 . S
C621 C626 1.363 . S
C622 H599 0.950 . S
C622 C621 1.397 . S
C622 C623 1.334 . S
C623 H600 0.950 . S
C623 C622 1.334 . S
C623 C624 1.287 . S
C624 C623 1.287 . S
C624 C625 1.524 . S
C624 H643 0.913 . S
C625 H601 0.950 . S
C625 C624 1.524 . S
C625 C626 1.415 . S
C626 H602 0.950 . S
C626 C621 1.363 . S
C626 C625 1.415 . S
C627 H603 0.951 . S
C627 C628 1.366 . S
C627 C629 1.388 . S
C628 C627 1.366 . S
C628 C632 1.385 . S
C629 H604 0.951 . S
C629 C627 1.388 . S
C629 C630 1.366 . S
C630 C629 1.366 . S
C630 C631 1.414 . S
C630 C633 1.499 . S
C631 H605 0.950 . S
C631 C630 1.414 . S
C631 C632 1.374 . S
C632 H606 0.950 . S
C632 C628 1.385 . S
C632 C631 1.374 . S
C633 C630 1.499 . S
C633 C634 1.373 . S
C633 C635 1.389 . S
C634 H607 0.950 . S
C634 C620 1.377 . S
C634 C633 1.373 . S
C635 C619 1.377 . S
C635 C633 1.389 . S
C635 C636 1.524 . S
C636 C635 1.524 . S
C636 C637 1.397 . S
C636 C641 1.363 . S
C637 H608 0.950 . S
C637 C636 1.397 . S
C637 C638 1.334 . S
C638 H609 0.950 . S
C638 C637 1.334 . S
C638 C639 1.287 . S
C639 C638 1.287 . S
C639 C640 1.524 . S
C639 H642 0.999 . S
C640 H610 0.950 . S
C640 C639 1.524 . S
C640 C641 1.415 . S
C641 H611 0.950 . S
C641 C636 1.363 . S
C641 C640 1.415 . S
H642 C639 0.999 . S
H643 C624 0.913 . S
H644 C662 0.951 . S
H645 C664 0.951 . S
H646 C666 0.950 . S
H647 C667 0.950 1_554 S
H648 C669 0.950 . S
H649 C672 0.950 . S
H650 C673 0.950 . S
H651 C675 0.950 . S
H652 C676 0.950 . S
H653 C677 0.951 1_545 S
H654 C679 0.951 . S
H655 C681 0.950 . S
H656 C682 0.950 . S
H657 C684 0.950 . S
H658 C687 0.950 . S
H659 C688 0.950 1_655 S
H660 C690 0.950 . S
H661 C691 0.950 . S
C662 H644 0.951 . S
C662 C663 1.366 . S
C662 C664 1.388 . S
C663 C662 1.366 . S
C663 C667 1.385 . S
C664 H645 0.951 . S
C664 C662 1.388 . S
C664 C665 1.366 . S
C665 C664 1.366 . S
C665 C666 1.414 . S
C665 C668 1.499 . S
C666 H646 0.950 . S
C666 C665 1.414 . S
C666 C667 1.374 . S
C667 H647 0.950 1_556 S
C667 C663 1.385 . S
C667 C666 1.374 . S
C668 C665 1.499 . S
C668 C669 1.373 . S
C668 C670 1.389 . S
C669 H648 0.950 . S
C669 C668 1.373 . S
C669 C685 1.377 . S
C670 C668 1.389 . S
C670 C671 1.524 . S
C670 C684 1.377 . S
C671 C670 1.524 . S
C671 C672 1.397 . S
C671 C676 1.363 . S
C672 H649 0.950 . S
C672 C671 1.397 . S
C672 C673 1.334 . S
C673 H650 0.950 . S
C673 C672 1.334 . S
C673 C674 1.287 . S
C674 C673 1.287 . S
C674 C675 1.524 . S
C674 H693 0.913 . S
C675 H651 0.950 . S
C675 C674 1.524 . S
C675 C676 1.415 . S
C676 H652 0.950 . S
C676 C671 1.363 . S
C676 C675 1.415 . S
C677 H653 0.951 1_565 S
C677 C678 1.366 . S
C677 C679 1.388 . S
C678 C677 1.366 . S
C678 C682 1.385 . S
C679 H654 0.951 . S
C679 C677 1.388 . S
C679 C680 1.366 . S
C680 C679 1.366 . S
C680 C681 1.414 . S
C680 C683 1.499 . S
C681 H655 0.950 . S
C681 C680 1.414 . S
C681 C682 1.374 . S
C682 H656 0.950 . S
C682 C678 1.385 . S
C682 C681 1.374 . S
C683 C680 1.499 . S
C683 C684 1.373 . S
C683 C685 1.389 . S
C684 H657 0.950 . S
C684 C670 1.377 . S
C684 C683 1.373 . S
C685 C669 1.377 . S
C685 C683 1.389 . S
C685 C686 1.524 . S
C686 C685 1.524 . S
C686 C687 1.397 . S
C686 C691 1.363 . S
C687 H658 0.950 . S
C687 C686 1.397 . S
C687 C688 1.334 . S
C688 H659 0.950 1_455 S
C688 C687 1.334 . S
C688 C689 1.287 . S
C689 C688 1.287 . S
C689 C690 1.524 . S
C689 H692 0.999 1_455 S
C690 H660 0.950 . S
C690 C689 1.524 . S
C690 C691 1.415 . S
C691 H661 0.950 . S
C691 C686 1.363 . S
C691 C690 1.415 . S
H692 C689 0.999 1_655 S
H693 C674 0.913 . S
C128 C68 1.248 . S
C113 C43 1.373 . S
C163 C4 1.413 . S
C178 C89 1.255 . S
C213 C17 1.563 . S
C228 C65 1.421 . S
C263 C30 1.615 . S
C278 C86 1.426 . S
C328 C70 1.461 . S
C313 C9 1.476 . S
C378 C90 1.525 . S
C363 C21 1.586 . S
C413 C34 1.565 . S
C428 C66 1.518 . S
C463 C48 1.498 . S
C478 C88 1.449 . S
C528 C87 1.504 . S
C513 C22 1.546 . S
C578 C69 1.526 . S
C563 C35 1.562 . S
C628 C91 1.455 . S
C613 C47 1.493 . S
C663 C8 1.508 1_556 S
C678 C67 1.455 . S
