# Generated by pormake.
# Topology anh, (6,3)-cn, num edge types: 1
# Building blocks:
#     Node 0, Type 0, BuildingBlock: BETFEN_clean_sbu_0, # of connection points: 6
#     Node 1, Type 0, BuildingBlock: BETFEN_clean_sbu_0, # of connection points: 6
#     Node 2, Type 0, BuildingBlock: BETFEN_clean_sbu_0, # of connection points: 6
#     Node 3, Type 1, BuildingBlock: BETDIP_clean_linker_0, # of connection points: 3
#     Node 4, Type 1, BuildingBlock: BETDIP_clean_linker_0, # of connection points: 3
#     Node 5, Type 1, BuildingBlock: BETDIP_clean_linker_0, # of connection points: 3
#     Node 6, Type 1, BuildingBlock: BETDIP_clean_linker_0, # of connection points: 3
#     Node 7, Type 1, BuildingBlock: BETDIP_clean_linker_0, # of connection points: 3
#     Node 8, Type 1, BuildingBlock: BETDIP_clean_linker_0, # of connection points: 3
#     Edge 9, Type (0, 1), BuildingBlock: AJUNOK_clean_linker_0, # of connection points: 2
#     Edge 10, Type (0, 1), BuildingBlock: AJUNOK_clean_linker_0, # of connection points: 2
#     Edge 11, Type (0, 1), BuildingBlock: AJUNOK_clean_linker_0, # of connection points: 2
#     Edge 12, Type (0, 1), BuildingBlock: AJUNOK_clean_linker_0, # of connection points: 2
#     Edge 13, Type (0, 1), BuildingBlock: AJUNOK_clean_linker_0, # of connection points: 2
#     Edge 14, Type (0, 1), BuildingBlock: AJUNOK_clean_linker_0, # of connection points: 2
#     Edge 15, Type (0, 1), BuildingBlock: AJUNOK_clean_linker_0, # of connection points: 2
#     Edge 16, Type (0, 1), BuildingBlock: AJUNOK_clean_linker_0, # of connection points: 2
#     Edge 17, Type (0, 1), BuildingBlock: AJUNOK_clean_linker_0, # of connection points: 2
#     Edge 18, Type (0, 1), BuildingBlock: AJUNOK_clean_linker_0, # of connection points: 2
#     Edge 19, Type (0, 1), BuildingBlock: AJUNOK_clean_linker_0, # of connection points: 2
#     Edge 20, Type (0, 1), BuildingBlock: AJUNOK_clean_linker_0, # of connection points: 2
#     Edge 21, Type (0, 1), BuildingBlock: AJUNOK_clean_linker_0, # of connection points: 2
#     Edge 22, Type (0, 1), BuildingBlock: AJUNOK_clean_linker_0, # of connection points: 2
#     Edge 23, Type (0, 1), BuildingBlock: AJUNOK_clean_linker_0, # of connection points: 2
#     Edge 24, Type (0, 1), BuildingBlock: AJUNOK_clean_linker_0, # of connection points: 2
#     Edge 25, Type (0, 1), BuildingBlock: AJUNOK_clean_linker_0, # of connection points: 2
#     Edge 26, Type (0, 1), BuildingBlock: AJUNOK_clean_linker_0, # of connection points: 2
# Relax obj value: 0.222
# Max RMSD: 0.207
# Mean RMSD: 0.141
data_MOF--net-anh--node1-BETFEN_clean_sbu_0--node2-BETDIP_clean_linker_0--edge1-AJUNOK_clean_linker_0
_symmetry_space_group_name_H-M    P1
_symmetry_Int_Tables_number       1
_symmetry_cell_setting            triclinic
loop_
_symmetry_equiv_pos_as_xyz
'x, y, z'
_cell_length_a     21.788348
_cell_length_b     22.050311
_cell_length_c     36.820028
_cell_angle_alpha  93.117361
_cell_angle_beta   94.418368
_cell_angle_gamma 95.818963
loop_
_atom_site_label
_atom_site_type_symbol
_atom_site_fract_x
_atom_site_fract_y
_atom_site_fract_z
_atom_type_partial_charge
Pr0 Pr 1.0477 0.63102 0.15125 0.0
Pr1 Pr 1.05083 0.76048 0.13158 0.0
C2 C 1.01943 0.52492 0.18204 0.0
C3 C 0.96069 0.48922 0.18878 0.0
C4 C 0.91648 0.46717 0.15994 0.0
C5 C 0.859 0.43813 0.16721 0.0
C6 C 0.84446 0.4315 0.20335 0.0
C7 C 0.88895 0.45245 0.23208 0.0
C8 C 0.94662 0.4808 0.22485 0.0
C9 C 1.03892 0.64228 0.07597 0.0
C10 C 0.91547 0.69587 0.1409 0.0
C11 C 0.08421 0.87126 0.10854 0.0
C12 C 0.1389 0.91241 0.12334 0.0
C13 C 0.16357 0.90616 0.15914 0.0
C14 C 0.21818 0.94063 0.1731 0.0
C15 C 0.25018 0.98142 0.15139 0.0
C16 C 0.22522 0.98829 0.1156 0.0
C17 C 0.17001 0.95368 0.10158 0.0
C18 C 0.0622 0.74728 0.20661 0.0
C19 C 0.18295 0.6942 0.13817 0.0
O20 O 1.03169 0.5773 0.20087 0.0
O21 O 1.0334 0.52758 0.14819 0.0
O22 O 1.01048 0.67237 0.09825 0.0
O23 O 0.07217 0.60462 0.09237 0.0
O24 O 0.94409 0.73746 0.12197 0.0
O25 O 0.94675 0.65671 0.1585 0.0
O26 O 0.09663 0.82106 0.09136 0.0
O27 O 1.04095 0.8616 0.13096 0.0
O28 O 0.08972 0.71865 0.18345 0.0
O29 O 1.02867 0.78567 0.19145 0.0
O30 O 0.15526 0.64997 0.15561 0.0
O31 O 0.15101 0.7351 0.12286 0.0
H32 H 0.9257 0.47335 0.13182 0.0
H33 H 0.82529 0.42222 0.14466 0.0
H34 H 0.879 0.44701 0.26014 0.0
H35 H 0.97983 0.49739 0.24753 0.0
H36 H 0.14094 0.87388 0.1763 0.0
H37 H 0.23528 0.93543 0.20104 0.0
H38 H 0.24894 1.01956 0.09833 0.0
H39 H 0.1522 0.95839 0.0737 0.0
Pr40 Pr 0.62915 0.14173 0.49509 0.0
Pr41 Pr 0.507 0.12604 0.52284 0.0
C42 C 0.72965 0.17683 0.46013 0.0
C43 C 0.76077 0.23529 0.45028 0.0
C44 C 0.82531 0.24705 0.45662 0.0
C45 C 0.8554 0.30345 0.44907 0.0
C46 C 0.82135 0.34874 0.43478 0.0
C47 C 0.75668 0.33696 0.42861 0.0
C48 C 0.72658 0.28081 0.43641 0.0
C49 C 0.63738 0.12313 0.569 0.0
C50 C 0.56353 0.26688 0.52272 0.0
C51 C 0.40041 1.09007 0.55184 0.0
C52 C 0.35296 1.03713 0.54383 0.0
C53 C 0.29276 1.0466 0.53047 0.0
C54 C 0.25017 0.99715 0.51716 0.0
C55 C 0.2669 0.93728 0.51731 0.0
C56 C 0.32575 0.92757 0.5328 0.0
C57 C 0.36851 0.97695 0.54582 0.0
C58 C 0.50456 0.13797 0.44747 0.0
C59 C 0.57661 0.9996 0.50395 0.0
O60 O 0.67544 0.15839 0.44309 0.0
O61 O 0.7322 0.1681 0.49497 0.0
O62 O 0.60182 0.15866 0.55425 0.0
O63 O 0.66852 1.09628 0.54544 0.0
O64 O 0.5276 0.22961 0.5407 0.0
O65 O 0.60102 0.24406 0.50007 0.0
O66 O 0.45475 1.07931 0.56624 0.0
O67 O 0.40411 0.12929 0.52654 0.0
O68 O 0.53696 1.10396 0.46523 0.0
O69 O 0.4721 0.16828 0.4686 0.0
O70 O 0.61892 1.03448 0.48859 0.0
O71 O 0.53187 1.02372 0.52006 0.0
H72 H 0.85238 0.21269 0.46766 0.0
H73 H 0.9053 0.31146 0.45399 0.0
H74 H 0.72929 0.37155 0.4182 0.0
H75 H 0.67658 0.2733 0.43193 0.0
H76 H 0.27963 1.09251 0.52864 0.0
H77 H 0.20541 1.00606 0.50492 0.0
H78 H 0.33935 0.88177 0.53365 0.0
H79 H 0.41445 0.96792 0.55602 0.0
Pr80 Pr 0.47492 0.57416 0.82451 0.0
Pr81 Pr 0.4956 0.70816 0.83108 0.0
C82 C 0.44467 0.4534 0.81184 0.0
C83 C 0.47701 0.40118 0.82238 0.0
C84 C 0.47426 0.34978 0.79814 0.0
C85 C 0.51436 0.30537 0.80447 0.0
C86 C 0.55788 0.31199 0.83511 0.0
C87 C 0.55686 0.36094 0.86095 0.0
C88 C 0.51696 0.40554 0.8545 0.0
C89 C 0.49545 0.61992 0.89663 0.0
C90 C 0.61998 0.62947 0.83719 0.0
C91 C 0.53342 0.82685 0.84923 0.0
C92 C 0.5895 0.86918 0.8457 0.0
C93 C 0.58924 0.91204 0.81887 0.0
C94 C 0.6432 0.94915 0.81353 0.0
C95 C 0.69847 0.94434 0.83501 0.0
C96 C 0.69827 0.90308 0.86272 0.0
C97 C 0.6442 0.86614 0.86818 0.0
C98 C 0.48923 0.65945 0.75857 0.0
C99 C 0.35289 0.65248 0.82232 0.0
O100 O 0.47121 0.48739 0.78821 0.0
O101 O 0.42439 0.48516 0.83852 0.0
O102 O 0.46046 0.64176 0.87274 0.0
O103 O 0.5203 0.5735 0.88341 0.0
O104 O 0.59676 0.68168 0.84364 0.0
O105 O 0.58331 0.57971 0.82556 0.0
O106 O 0.49955 0.80811 0.81906 0.0
O107 O 0.53867 0.78362 0.87186 0.0
O108 O 0.51827 0.63978 0.78552 0.0
O109 O 0.46162 0.70639 0.76851 0.0
O110 O 0.37561 0.6043 0.80778 0.0
O111 O 0.3906 0.69755 0.83891 0.0
H112 H 0.44388 0.34588 0.77321 0.0
H113 H 0.51459 0.26838 0.78389 0.0
H114 H 0.58954 0.3667 0.8849 0.0
H115 H 0.51983 0.44507 0.8736 0.0
H116 H 0.54755 0.9161 0.80153 0.0
H117 H 0.64191 0.98127 0.7923 0.0
H118 H 0.7403 0.89811 0.87947 0.0
H119 H 0.6457 0.83437 0.88955 0.0
H120 H 0.49715 0.17864 0.18634 0.0
H121 H 0.5754 0.2376 0.29508 0.0
H122 H 0.42935 1.09038 0.27908 0.0
H123 H 0.58884 0.33099 0.26455 0.0
C124 C 0.61062 0.31163 0.24167 0.0
C125 C 0.49845 0.17446 0.21558 0.0
C126 C 0.45798 0.12996 0.22989 0.0
C127 C 0.54064 0.2138 0.23882 0.0
C128 C 0.54221 0.20842 0.27681 0.0
C129 C 0.50264 0.16344 0.29128 0.0
C130 C 0.46078 0.12434 0.26777 0.0
N131 N 0.58317 0.25604 0.22327 0.0
H132 H 0.56787 0.57125 0.505 0.0
H133 H 0.54812 0.69805 0.59545 0.0
H134 H 0.53066 0.50546 0.61019 0.0
H135 H 0.64214 0.74469 0.55892 0.0
C136 C 0.60503 0.74702 0.5377 0.0
C137 C 0.56025 0.57979 0.53346 0.0
C138 C 0.5508 0.53005 0.55609 0.0
C139 C 0.55986 0.64083 0.54771 0.0
C140 C 0.54897 0.65153 0.58451 0.0
C141 C 0.53826 0.60307 0.60718 0.0
C142 C 0.53921 0.54286 0.59272 0.0
N143 N 0.56799 0.6914 0.52504 0.0
H144 H 0.91678 0.61468 0.8153 0.0
H145 H 0.06065 0.63048 0.90312 0.0
H146 H 0.87006 0.61937 0.92701 0.0
H147 H 0.08186 0.71575 0.85042 0.0
C148 C 0.09031 0.67318 0.8362 0.0
C149 C 0.93064 0.61596 0.84425 0.0
C150 C 0.88559 0.6169 0.86981 0.0
C151 C 0.99406 0.62146 0.85637 0.0
C152 C 1.01183 0.62531 0.89394 0.0
C153 C 0.96752 0.62347 0.91961 0.0
C154 C 0.90459 0.61954 0.9073 0.0
N155 N 1.04054 0.62555 0.83118 0.0
H156 H 0.06932 0.6965 0.46594 0.0
H157 H 1.01391 0.63762 0.35362 0.0
H158 H 0.1412 0.79792 0.37874 0.0
H159 H 0.92579 0.60477 0.37766 0.0
C160 C 0.94332 0.58372 0.40179 0.0
C161 C 0.07135 0.70301 0.43708 0.0
C162 C 0.1102 0.75191 0.42549 0.0
C163 C 1.03508 0.66227 0.41143 0.0
C164 C 1.03957 0.66968 0.37398 0.0
C165 C 0.07726 0.7187 0.3623 0.0
C166 C 0.11227 0.7598 0.38798 0.0
N167 N 0.99547 0.61359 0.4237 0.0
H168 H 0.82438 0.18119 0.81711 0.0
H169 H 0.83953 0.13068 0.70382 0.0
H170 H 0.66672 0.17996 0.73942 0.0
H171 H 0.95852 1.10365 0.8127 0.0
C172 C 0.91282 1.09882 0.79824 0.0
C173 C 0.80357 0.1734 0.78933 0.0
C174 C 0.7415 0.18258 0.78143 0.0
C175 C 0.83875 0.15363 0.76137 0.0
C176 C 0.81206 0.14536 0.72532 0.0
C177 C 0.74953 0.15417 0.71734 0.0
C178 C 0.71478 0.17246 0.74555 0.0
N179 N 0.89966 0.13806 0.76984 0.0
H180 H 0.49154 0.71176 0.15736 0.0
H181 H 0.59619 0.68353 0.06476 0.0
H182 H 0.39789 0.67876 0.04973 0.0
H183 H 0.62779 0.60966 0.12724 0.0
C184 C 0.64689 0.65666 0.13442 0.0
C185 C 0.49311 0.7031 0.12821 0.0
C186 C 0.43818 0.69615 0.10507 0.0
C187 C 0.54998 0.69729 0.11362 0.0
C188 C 0.55183 0.68617 0.07588 0.0
C189 C 0.49724 0.67943 0.05253 0.0
C190 C 0.44056 0.68477 0.06739 0.0
N191 N 0.60564 0.70236 0.13669 0.0
C192 C 0.2832 0.6468 0.1399 0.0
C193 C 0.25058 0.69797 0.13435 0.0
C194 C 0.34553 0.64758 0.1324 0.0
C195 C 0.37727 0.69967 0.11947 0.0
H196 H 0.25984 0.60502 0.1486 0.0
H197 H 0.36827 0.60641 0.13522 0.0
S198 S 0.31621 0.84757 0.10423 0.0
N199 N 0.25739 0.80418 0.11813 0.0
N200 N 0.37398 0.8046 0.10381 0.0
C201 C 0.34652 0.75192 0.11555 0.0
C202 C 0.2833 0.75137 0.12312 0.0
C203 C 0.89496 0.44267 0.45215 0.0
C204 C 0.85319 0.40808 0.426 0.0
C205 C 0.92447 0.49954 0.44436 0.0
C206 C 0.91301 0.52358 0.41017 0.0
H207 H 0.9042 0.42602 0.47896 0.0
H208 H 0.95581 0.52497 0.46537 0.0
S209 S 0.81215 0.44822 0.33146 0.0
N210 N 0.8052 0.39997 0.36397 0.0
N211 N 0.8598 0.50704 0.34943 0.0
C212 C 0.87221 0.4889 0.38368 0.0
C213 C 0.84249 0.4311 0.39155 0.0
C214 C 0.77248 0.98203 0.79084 0.0
C215 C 0.75658 0.98036 0.82711 0.0
C216 C 0.82513 1.01801 0.78202 0.0
C217 C 0.86373 1.0537 0.8091 0.0
H218 H 0.74359 0.95581 0.76902 0.0
H219 H 0.83487 1.01916 0.75362 0.0
S220 S 0.84391 1.06474 0.90804 0.0
N221 N 0.78459 1.01677 0.89039 0.0
N222 N 0.88432 1.08413 0.87351 0.0
C223 C 0.85006 1.05078 0.84555 0.0
C224 C 0.79613 1.0143 0.85463 0.0
C225 C 0.8161 0.6327 0.14837 0.0
C226 C 0.84705 0.68935 0.14097 0.0
C227 C 0.75142 0.6235 0.14693 0.0
C228 C 0.71505 0.67083 0.13886 0.0
H229 H 0.84186 0.5944 0.15439 0.0
H230 H 0.72962 0.57862 0.15185 0.0
S231 S 0.77299 0.82856 0.11876 0.0
N232 N 0.83623 0.79403 0.126 0.0
N233 N 0.71443 0.77695 0.12403 0.0
C234 C 0.74516 0.72825 0.13235 0.0
C235 C 0.81123 0.73739 0.13317 0.0
C236 C 0.25109 0.85032 0.47024 0.0
C237 C 0.22649 0.88614 0.4972 0.0
C238 C 0.21334 0.80579 0.44798 0.0
C239 C 0.14961 0.79497 0.45199 0.0
H240 H 0.29954 0.85837 0.46533 0.0
H241 H 0.23398 0.78034 0.42695 0.0
S242 S 0.06291 0.87397 0.51972 0.0
N243 N 0.13491 0.9061 0.52772 0.0
N244 N 0.0637 0.82208 0.48569 0.0
C245 C 0.12465 0.82894 0.4796 0.0
C246 C 0.16311 0.87476 0.50216 0.0
C247 C 0.59937 0.21136 0.82696 0.0
C248 C 0.61053 0.27461 0.8356 0.0
C249 C 0.64572 0.17873 0.81382 0.0
C250 C 0.70444 0.20849 0.80902 0.0
H251 H 0.55304 0.18828 0.82703 0.0
H252 H 0.63376 0.13152 0.80386 0.0
S253 S 0.76038 0.37055 0.83413 0.0
N254 N 0.68728 0.36363 0.84365 0.0
N255 N 0.77434 0.30179 0.81909 0.0
C256 C 0.71851 0.26961 0.82202 0.0
C257 C 0.67137 0.30296 0.83531 0.0
C258 C 0.64106 0.91492 0.51929 0.0
C259 C 0.58329 0.93323 0.50729 0.0
C260 C 0.64738 0.85421 0.52778 0.0
C261 C 0.59671 0.80851 0.52362 0.0
H262 H 0.68125 0.94846 0.52391 0.0
H263 H 0.69235 0.84319 0.53848 0.0
S264 S 0.43632 0.83141 0.4901 0.0
N265 N 0.47468 0.90005 0.49021 0.0
N266 N 0.48719 0.78559 0.50463 0.0
C267 C 0.53921 0.82552 0.50998 0.0
C268 C 0.53236 0.8879 0.50229 0.0
C269 C 0.71734 0.5769 0.83106 0.0
C270 C 0.68841 0.62748 0.84393 0.0
C271 C 0.78165 0.57427 0.83809 0.0
C272 C 0.81918 0.62184 0.85854 0.0
H273 H 0.69013 0.53885 0.81564 0.0
H274 H 0.80179 0.53409 0.82839 0.0
S275 S 0.76794 0.76461 0.89794 0.0
N276 N 0.70409 0.72671 0.8778 0.0
N277 N 0.82368 0.72127 0.89064 0.0
C278 C 0.79123 0.67281 0.87097 0.0
C279 C 0.72629 0.67577 0.86378 0.0
C280 C 0.31577 1.08153 0.16488 0.0
C281 C 0.30837 1.0177 0.16696 0.0
C282 C 0.36617 1.11751 0.18393 0.0
C283 C 0.41064 1.09082 0.20576 0.0
H284 H 0.28085 1.10412 0.14988 0.0
H285 H 0.36876 0.16672 0.18298 0.0
S286 S 0.41799 0.9253 0.21556 0.0
N287 N 0.3541 0.9289 0.18891 0.0
N288 N 0.448 0.99672 0.22518 0.0
C289 C 0.40578 1.02694 0.20634 0.0
C290 C 0.35488 0.99032 0.1868 0.0
C291 C 0.51044 0.35645 0.54532 0.0
C292 C 0.56018 0.33477 0.52796 0.0
C293 C 0.5065 0.41925 0.55242 0.0
C294 C 0.55224 0.46416 0.54283 0.0
H295 H 0.47408 0.32458 0.55393 0.0
H296 H 0.46747 0.43273 0.56631 0.0
S297 S 0.69178 0.43288 0.49604 0.0
N298 N 0.65567 0.36434 0.50025 0.0
N299 N 0.64868 0.48207 0.51421 0.0
C300 C 0.60144 0.44349 0.52449 0.0
C301 C 0.60536 0.37913 0.51702 0.0
C302 C 0.26303 0.71163 0.8328 0.0
C303 C 0.28467 0.65601 0.82173 0.0
C304 C 0.2 0.7162 0.836 0.0
C305 C 0.15534 0.66558 0.82838 0.0
H306 H 0.2951 0.75207 0.83976 0.0
H307 H 0.18627 0.75992 0.84543 0.0
S308 S 0.18635 0.50979 0.79668 0.0
N309 N 0.2554 0.54926 0.80168 0.0
N310 N 0.1367 0.55814 0.80781 0.0
C311 C 0.17562 0.60994 0.81616 0.0
C312 C 0.24027 0.60518 0.81279 0.0
C313 C 0.7621 0.34298 0.19773 0.0
C314 C 0.78289 0.40296 0.21127 0.0
C315 C 0.70558 0.31389 0.20691 0.0
C316 C 0.66801 0.34396 0.22993 0.0
H317 H 0.79048 0.31788 0.18068 0.0
H318 H 0.69212 0.2671 0.19662 0.0
S319 S 0.69808 0.50407 0.26841 0.0
N320 N 0.75914 0.49338 0.24583 0.0
N321 N 0.65331 0.43856 0.26355 0.0
C322 C 0.68738 0.40465 0.24253 0.0
C323 C 0.74472 0.43424 0.23308 0.0
C324 C 0.98001 0.67478 0.02055 0.0
C325 C 1.02347 0.63844 0.03594 0.0
C326 C 0.96211 0.66962 0.98298 0.0
C327 C 0.98711 0.62803 0.95935 0.0
H328 H 0.9592 0.70718 0.03767 0.0
H329 H 0.92872 0.69874 0.97232 0.0
S330 S 0.1021 0.52192 0.9859 0.0
N331 N 0.09134 0.55959 0.02448 0.0
N332 N 0.05684 0.54924 0.95412 0.0
C333 C 1.03084 0.59168 0.97435 0.0
C334 C 1.04922 0.59704 0.01256 0.0
C335 C 0.48432 0.19552 0.3919 0.0
C336 C 0.50486 0.14366 0.40766 0.0
C337 C 0.48491 0.20229 0.35423 0.0
C338 C 0.50491 0.15687 0.33108 0.0
H339 H 0.46819 0.2314 0.40882 0.0
H340 H 0.46876 0.24283 0.34304 0.0
S341 S 0.56307 1.01259 0.35847 0.0
N342 N 0.54653 1.04653 0.39708 0.0
N343 N 0.54588 1.05874 0.32619 0.0
C344 C 0.52538 1.10485 0.34637 0.0
C345 C 0.52586 1.09839 0.38473 0.0
C346 C 0.47011 0.66981 0.69116 0.0
C347 C 0.5002 0.64239 0.72016 0.0
C348 C 0.4824 0.65664 0.6548 0.0
C349 C 0.52535 0.61557 0.64599 0.0
H350 H 0.43705 0.70204 0.69656 0.0
H351 H 0.45784 0.67867 0.63339 0.0
S352 S 0.61792 0.53273 0.71198 0.0
N353 N 0.57512 0.5722 0.73754 0.0
N354 N 0.59917 0.54882 0.66955 0.0
C355 C 0.55566 0.58777 0.67477 0.0
C356 C 0.54287 0.60082 0.71172 0.0
C357 C 0.6559 0.18145 0.62957 0.0
C358 C 0.65937 0.12765 0.60796 0.0
C359 C 0.68552 0.18974 0.66492 0.0
C360 C 0.71935 0.14446 0.67979 0.0
H361 H 0.63225 0.21827 0.61867 0.0
H362 H 0.683 0.23243 0.68048 0.0
S363 S 0.73538 0.99235 0.63584 0.0
N364 N 0.69464 1.02646 0.60485 0.0
N365 N 0.74959 1.04192 0.6715 0.0
C366 C 0.72092 1.08955 0.65898 0.0
C367 C 0.69093 1.08113 0.62303 0.0
C368 C 0.46578 0.68349 0.94965 0.0
C369 C 0.49856 0.6365 0.93623 0.0
C370 C 0.46598 0.69754 0.98729 0.0
C371 C 0.49907 0.66518 0.0128 0.0
H372 H 0.43933 0.70923 0.93099 0.0
H373 H 0.44009 0.73405 -0.00348 0.0
S374 S 0.59189 0.53757 -0.00827 0.0
N375 N 0.56551 0.55793 0.95147 0.0
N376 N 0.56449 0.58342 0.02198 0.0
C377 C 0.53234 0.61839 -0.00031 0.0
C378 C 0.53243 0.6043 0.96146 0.0
C379 C 1.04131 0.77961 0.27001 0.0
C380 C 0.07006 0.74107 0.24641 0.0
C381 C 1.04552 0.77328 0.30775 0.0
C382 C 0.07801 0.72778 0.32301 0.0
H383 H 1.01476 0.81457 0.25927 0.0
H384 H 1.02199 0.80313 0.32502 0.0
S385 S 0.16375 0.61702 0.27385 0.0
N386 N 0.13484 0.65769 0.24157 0.0
N387 N 0.14071 0.64476 0.3125 0.0
C388 C 0.10772 0.68957 0.30003 0.0
C389 C 0.10432 0.69653 0.26167 0.0
loop_
_geom_bond_atom_site_label_1
_geom_bond_atom_site_label_2
_geom_bond_distance
_geom_bond_site_symmetry_2
_ccdc_geom_bond_type
Pr0 C2 2.880 1_455 S
Pr0 O20 2.562 1_455 S
Pr0 O21 2.490 1_455 S
Pr0 O22 2.695 . S
Pr0 O23 2.512 . S
Pr0 O25 2.437 1_455 S
Pr0 O28 2.436 . S
Pr0 O30 2.438 . S
Pr1 C11 2.880 . S
Pr1 O22 2.436 . S
Pr1 O24 2.438 1_455 S
Pr1 O26 2.562 . S
Pr1 O27 2.490 . S
Pr1 O28 2.695 . S
Pr1 O29 2.512 . S
Pr1 O31 2.437 . S
C2 Pr0 2.880 1_655 S
C2 C3 1.491 . S
C2 O20 1.254 . S
C2 O21 1.225 . S
C3 C2 1.491 . S
C3 C4 1.392 . S
C3 C8 1.356 . S
C4 C3 1.392 . S
C4 C5 1.368 . S
C4 H32 0.929 . S
C5 C4 1.368 . S
C5 C6 1.386 . S
C5 H33 0.929 . S
C6 C5 1.386 . S
C6 C7 1.373 . S
C7 C6 1.373 . S
C7 C8 1.409 . S
C7 H34 0.931 . S
C8 C3 1.356 . S
C8 C7 1.409 . S
C8 H35 0.930 . S
C9 O22 1.270 . S
C9 O23 1.248 . S
C10 O24 1.267 . S
C10 O25 1.278 . S
C11 Pr1 2.880 . S
C11 C12 1.491 . S
C11 O26 1.254 . S
C11 O27 1.225 . S
C12 C11 1.491 . S
C12 C13 1.392 . S
C12 C17 1.356 . S
C13 C12 1.392 . S
C13 C14 1.368 . S
C13 H36 0.929 . S
C14 C13 1.368 . S
C14 C15 1.386 . S
C14 H37 0.929 . S
C15 C14 1.386 . S
C15 C16 1.373 . S
C16 C15 1.373 . S
C16 C17 1.409 . S
C16 H38 0.931 . S
C17 C12 1.356 . S
C17 C16 1.409 . S
C17 H39 0.930 . S
C18 O28 1.270 . S
C18 O29 1.248 . S
C19 O30 1.267 . S
C19 O31 1.278 . S
O20 Pr0 2.562 1_655 S
O20 C2 1.254 . S
O21 Pr0 2.490 1_655 S
O21 C2 1.225 . S
O22 Pr0 2.695 . S
O22 Pr1 2.436 . S
O22 C9 1.270 . S
O23 Pr0 2.512 . S
O23 C9 1.248 . S
O24 Pr1 2.438 1_655 S
O24 C10 1.267 . S
O25 Pr0 2.437 1_655 S
O25 C10 1.278 . S
O26 Pr1 2.562 . S
O26 C11 1.254 . S
O27 Pr1 2.490 . S
O27 C11 1.225 . S
O28 Pr0 2.436 . S
O28 Pr1 2.695 . S
O28 C18 1.270 . S
O29 Pr1 2.512 . S
O29 C18 1.248 . S
O30 Pr0 2.438 . S
O30 C19 1.267 . S
O31 Pr1 2.437 . S
O31 C19 1.278 . S
H32 C4 0.929 . S
H33 C5 0.929 . S
H34 C7 0.931 . S
H35 C8 0.930 . S
H36 C13 0.929 . S
H37 C14 0.929 . S
H38 C16 0.931 . S
H39 C17 0.930 . S
Pr40 C42 2.880 . S
Pr40 O60 2.562 . S
Pr40 O61 2.490 . S
Pr40 O62 2.695 . S
Pr40 O63 2.512 . S
Pr40 O65 2.437 . S
Pr40 O68 2.436 . S
Pr40 O70 2.438 1_545 S
Pr41 C51 2.880 1_545 S
Pr41 O62 2.436 . S
Pr41 O64 2.438 . S
Pr41 O66 2.562 1_545 S
Pr41 O67 2.490 1_545 S
Pr41 O68 2.695 . S
Pr41 O69 2.512 . S
Pr41 O71 2.437 1_545 S
C42 Pr40 2.880 . S
C42 C43 1.491 . S
C42 O60 1.254 . S
C42 O61 1.225 . S
C43 C42 1.491 . S
C43 C44 1.392 . S
C43 C48 1.356 . S
C44 C43 1.392 . S
C44 C45 1.368 . S
C44 H72 0.929 . S
C45 C44 1.368 . S
C45 C46 1.386 . S
C45 H73 0.929 . S
C46 C45 1.386 . S
C46 C47 1.373 . S
C47 C46 1.373 . S
C47 C48 1.409 . S
C47 H74 0.931 . S
C48 C43 1.356 . S
C48 C47 1.409 . S
C48 H75 0.930 . S
C49 O62 1.270 . S
C49 O63 1.248 . S
C50 O64 1.267 . S
C50 O65 1.278 . S
C51 Pr41 2.880 1_565 S
C51 C52 1.491 . S
C51 O66 1.254 . S
C51 O67 1.225 . S
C52 C51 1.491 . S
C52 C53 1.392 . S
C52 C57 1.356 . S
C53 C52 1.392 . S
C53 C54 1.368 . S
C53 H76 0.929 . S
C54 C53 1.368 . S
C54 C55 1.386 . S
C54 H77 0.929 . S
C55 C54 1.386 . S
C55 C56 1.373 . S
C56 C55 1.373 . S
C56 C57 1.409 . S
C56 H78 0.931 . S
C57 C52 1.356 . S
C57 C56 1.409 . S
C57 H79 0.930 . S
C58 O68 1.270 . S
C58 O69 1.248 . S
C59 O70 1.267 . S
C59 O71 1.278 . S
O60 Pr40 2.562 . S
O60 C42 1.254 . S
O61 Pr40 2.490 . S
O61 C42 1.225 . S
O62 Pr40 2.695 . S
O62 Pr41 2.436 . S
O62 C49 1.270 . S
O63 Pr40 2.512 . S
O63 C49 1.248 . S
O64 Pr41 2.438 . S
O64 C50 1.267 . S
O65 Pr40 2.437 . S
O65 C50 1.278 . S
O66 Pr41 2.562 1_565 S
O66 C51 1.254 . S
O67 Pr41 2.490 1_565 S
O67 C51 1.225 . S
O68 Pr40 2.436 . S
O68 Pr41 2.695 . S
O68 C58 1.270 . S
O69 Pr41 2.512 . S
O69 C58 1.248 . S
O70 Pr40 2.438 1_565 S
O70 C59 1.267 . S
O71 Pr41 2.437 1_565 S
O71 C59 1.278 . S
H72 C44 0.929 . S
H73 C45 0.929 . S
H74 C47 0.931 . S
H75 C48 0.930 . S
H76 C53 0.929 . S
H77 C54 0.929 . S
H78 C56 0.931 . S
H79 C57 0.930 . S
Pr80 C82 2.880 . S
Pr80 O100 2.562 . S
Pr80 O101 2.490 . S
Pr80 O102 2.695 . S
Pr80 O103 2.512 . S
Pr80 O105 2.437 . S
Pr80 O108 2.436 . S
Pr80 O110 2.438 . S
Pr81 C91 2.880 . S
Pr81 O102 2.436 . S
Pr81 O104 2.438 . S
Pr81 O106 2.562 . S
Pr81 O107 2.490 . S
Pr81 O108 2.695 . S
Pr81 O109 2.512 . S
Pr81 O111 2.437 . S
C82 Pr80 2.880 . S
C82 C83 1.491 . S
C82 O100 1.254 . S
C82 O101 1.225 . S
C83 C82 1.491 . S
C83 C84 1.392 . S
C83 C88 1.356 . S
C84 C83 1.392 . S
C84 C85 1.368 . S
C84 H112 0.929 . S
C85 C84 1.368 . S
C85 C86 1.386 . S
C85 H113 0.929 . S
C86 C85 1.386 . S
C86 C87 1.373 . S
C87 C86 1.373 . S
C87 C88 1.409 . S
C87 H114 0.931 . S
C88 C83 1.356 . S
C88 C87 1.409 . S
C88 H115 0.930 . S
C89 O102 1.270 . S
C89 O103 1.248 . S
C90 O104 1.267 . S
C90 O105 1.278 . S
C91 Pr81 2.880 . S
C91 C92 1.491 . S
C91 O106 1.254 . S
C91 O107 1.225 . S
C92 C91 1.491 . S
C92 C93 1.392 . S
C92 C97 1.356 . S
C93 C92 1.392 . S
C93 C94 1.368 . S
C93 H116 0.929 . S
C94 C93 1.368 . S
C94 C95 1.386 . S
C94 H117 0.929 . S
C95 C94 1.386 . S
C95 C96 1.373 . S
C96 C95 1.373 . S
C96 C97 1.409 . S
C96 H118 0.931 . S
C97 C92 1.356 . S
C97 C96 1.409 . S
C97 H119 0.930 . S
C98 O108 1.270 . S
C98 O109 1.248 . S
C99 O110 1.267 . S
C99 O111 1.278 . S
O100 Pr80 2.562 . S
O100 C82 1.254 . S
O101 Pr80 2.490 . S
O101 C82 1.225 . S
O102 Pr80 2.695 . S
O102 Pr81 2.436 . S
O102 C89 1.270 . S
O103 Pr80 2.512 . S
O103 C89 1.248 . S
O104 Pr81 2.438 . S
O104 C90 1.267 . S
O105 Pr80 2.437 . S
O105 C90 1.278 . S
O106 Pr81 2.562 . S
O106 C91 1.254 . S
O107 Pr81 2.490 . S
O107 C91 1.225 . S
O108 Pr80 2.436 . S
O108 Pr81 2.695 . S
O108 C98 1.270 . S
O109 Pr81 2.512 . S
O109 C98 1.248 . S
O110 Pr80 2.438 . S
O110 C99 1.267 . S
O111 Pr81 2.437 . S
O111 C99 1.278 . S
H112 C84 0.929 . S
H113 C85 0.929 . S
H114 C87 0.931 . S
H115 C88 0.930 . S
H116 C93 0.929 . S
H117 C94 0.929 . S
H118 C96 0.931 . S
H119 C97 0.930 . S
H120 C125 0.930 . S
H121 C128 0.930 . S
H122 C130 0.930 1_565 S
H123 C124 1.016 . S
C124 H123 1.016 . S
C124 N131 1.286 . S
C125 H120 0.930 . S
C125 C126 1.397 1_545 S
C125 C127 1.361 . S
C126 C125 1.397 1_565 S
C126 C130 1.390 1_565 S
C127 C125 1.361 . S
C127 C128 1.393 . S
C127 N131 1.413 . S
C128 H121 0.930 . S
C128 C127 1.393 . S
C128 C129 1.399 . S
C129 C128 1.399 . S
C129 C130 1.381 . S
C130 H122 0.930 1_545 S
C130 C126 1.390 1_545 S
C130 C129 1.381 . S
N131 C124 1.286 . S
N131 C127 1.413 . S
H132 C137 0.930 . S
H133 C140 0.930 . S
H134 C142 0.930 . S
H135 C136 1.016 . S
C136 H135 1.016 . S
C136 N143 1.286 . S
C137 H132 0.930 . S
C137 C138 1.397 . S
C137 C139 1.361 . S
C138 C137 1.397 . S
C138 C142 1.390 . S
C139 C137 1.361 . S
C139 C140 1.393 . S
C139 N143 1.413 . S
C140 H133 0.930 . S
C140 C139 1.393 . S
C140 C141 1.399 . S
C141 C140 1.399 . S
C141 C142 1.381 . S
C142 H134 0.930 . S
C142 C138 1.390 . S
C142 C141 1.381 . S
N143 C136 1.286 . S
N143 C139 1.413 . S
H144 C149 0.930 . S
H145 C152 0.930 . S
H146 C154 0.930 . S
H147 C148 1.016 . S
C148 H147 1.016 . S
C148 N155 1.286 . S
C149 H144 0.930 . S
C149 C150 1.397 . S
C149 C151 1.361 1_655 S
C150 C149 1.397 . S
C150 C154 1.390 . S
C151 C149 1.361 1_455 S
C151 C152 1.393 . S
C151 N155 1.413 . S
C152 H145 0.930 . S
C152 C151 1.393 . S
C152 C153 1.401 1_455 S
C153 C152 1.401 1_655 S
C153 C154 1.379 . S
C154 H146 0.930 . S
C154 C150 1.390 . S
C154 C153 1.379 . S
N155 C148 1.286 . S
N155 C151 1.413 . S
H156 C161 0.930 . S
H157 C164 0.930 . S
H158 C166 0.930 . S
H159 C160 1.016 . S
C160 H159 1.016 . S
C160 N167 1.286 . S
C161 H156 0.930 . S
C161 C162 1.397 . S
C161 C163 1.366 . S
C162 C161 1.397 . S
C162 C166 1.390 . S
C163 C161 1.366 . S
C163 C164 1.393 1_455 S
C163 N167 1.408 1_455 S
C164 H157 0.930 . S
C164 C163 1.393 1_655 S
C164 C165 1.399 1_655 S
C165 C164 1.399 1_455 S
C165 C166 1.381 . S
C166 H158 0.930 . S
C166 C162 1.390 . S
C166 C165 1.381 . S
N167 C160 1.286 . S
N167 C163 1.408 1_655 S
H168 C173 0.930 . S
H169 C176 0.930 . S
H170 C178 0.930 . S
H171 C172 1.016 . S
C172 H171 1.016 . S
C172 N179 1.286 . S
C173 H168 0.930 . S
C173 C174 1.397 . S
C173 C175 1.361 . S
C174 C173 1.397 . S
C174 C178 1.390 . S
C175 C173 1.361 . S
C175 C176 1.393 1_545 S
C175 N179 1.413 1_545 S
C176 H169 0.930 . S
C176 C175 1.393 1_565 S
C176 C177 1.399 1_565 S
C177 C176 1.399 1_545 S
C177 C178 1.381 . S
C178 H170 0.930 . S
C178 C174 1.390 . S
C178 C177 1.381 . S
N179 C172 1.286 . S
N179 C175 1.413 1_565 S
H180 C185 0.930 . S
H181 C188 0.930 . S
H182 C190 0.930 . S
H183 C184 1.016 . S
C184 H183 1.016 . S
C184 N191 1.286 . S
C185 H180 0.930 . S
C185 C186 1.397 . S
C185 C187 1.361 . S
C186 C185 1.397 . S
C186 C190 1.390 . S
C187 C185 1.361 . S
C187 C188 1.393 . S
C187 N191 1.413 . S
C188 H181 0.930 . S
C188 C187 1.393 . S
C188 C189 1.399 . S
C189 C188 1.399 . S
C189 C190 1.381 . S
C190 H182 0.930 . S
C190 C186 1.390 . S
C190 C189 1.381 . S
N191 C184 1.286 . S
N191 C187 1.413 . S
C192 C193 1.369 . S
C192 C194 1.419 . S
C192 H196 0.930 . S
C193 C192 1.369 . S
C193 C202 1.429 . S
C194 C192 1.419 . S
C194 C195 1.363 . S
C194 H197 0.929 . S
C195 C194 1.363 . S
C195 C201 1.428 . S
H196 C192 0.930 . S
H197 C194 0.929 . S
S198 N199 1.613 . S
S198 N200 1.610 . S
N199 S198 1.613 . S
N199 C202 1.350 . S
N200 S198 1.610 . S
N200 C201 1.351 . S
C201 C195 1.428 . S
C201 N200 1.351 . S
C201 C202 1.434 . S
C202 C193 1.429 . S
C202 N199 1.350 . S
C202 C201 1.434 . S
C203 C204 1.369 . S
C203 C205 1.419 . S
C203 H207 0.930 . S
C204 C203 1.369 . S
C204 C213 1.429 . S
C205 C203 1.419 . S
C205 C206 1.363 . S
C205 H208 0.929 . S
C206 C205 1.363 . S
C206 C212 1.428 . S
H207 C203 0.930 . S
H208 C205 0.929 . S
S209 N210 1.613 . S
S209 N211 1.610 . S
N210 S209 1.613 . S
N210 C213 1.350 . S
N211 S209 1.610 . S
N211 C212 1.351 . S
C212 C206 1.428 . S
C212 N211 1.351 . S
C212 C213 1.434 . S
C213 C204 1.429 . S
C213 N210 1.350 . S
C213 C212 1.434 . S
C214 C215 1.369 . S
C214 C216 1.419 . S
C214 H218 0.930 . S
C215 C214 1.369 . S
C215 C224 1.429 . S
C216 C214 1.419 . S
C216 C217 1.363 . S
C216 H219 0.929 . S
C217 C216 1.363 . S
C217 C223 1.428 . S
H218 C214 0.930 . S
H219 C216 0.929 . S
S220 N221 1.613 . S
S220 N222 1.610 . S
N221 S220 1.613 . S
N221 C224 1.350 . S
N222 S220 1.610 . S
N222 C223 1.351 . S
C223 C217 1.428 . S
C223 N222 1.351 . S
C223 C224 1.434 . S
C224 C215 1.429 . S
C224 N221 1.350 . S
C224 C223 1.434 . S
C225 C226 1.369 . S
C225 C227 1.419 . S
C225 H229 0.930 . S
C226 C225 1.369 . S
C226 C235 1.429 . S
C227 C225 1.419 . S
C227 C228 1.363 . S
C227 H230 0.929 . S
C228 C227 1.363 . S
C228 C234 1.428 . S
H229 C225 0.930 . S
H230 C227 0.929 . S
S231 N232 1.613 . S
S231 N233 1.610 . S
N232 S231 1.613 . S
N232 C235 1.350 . S
N233 S231 1.610 . S
N233 C234 1.351 . S
C234 C228 1.428 . S
C234 N233 1.351 . S
C234 C235 1.434 . S
C235 C226 1.429 . S
C235 N232 1.350 . S
C235 C234 1.434 . S
C236 C237 1.369 . S
C236 C238 1.419 . S
C236 H240 0.930 . S
C237 C236 1.369 . S
C237 C246 1.429 . S
C238 C236 1.419 . S
C238 C239 1.363 . S
C238 H241 0.929 . S
C239 C238 1.363 . S
C239 C245 1.428 . S
H240 C236 0.930 . S
H241 C238 0.929 . S
S242 N243 1.613 1_655 S
S242 N244 1.610 1_655 S
N243 S242 1.613 1_455 S
N243 C246 1.350 . S
N244 S242 1.610 1_455 S
N244 C245 1.351 . S
C245 C239 1.428 . S
C245 N244 1.351 . S
C245 C246 1.434 . S
C246 C237 1.429 . S
C246 N243 1.350 . S
C246 C245 1.434 . S
C247 C248 1.369 . S
C247 C249 1.419 . S
C247 H251 0.930 . S
C248 C247 1.369 . S
C248 C257 1.429 . S
C249 C247 1.419 . S
C249 C250 1.363 . S
C249 H252 0.929 . S
C250 C249 1.363 . S
C250 C256 1.428 . S
H251 C247 0.930 . S
H252 C249 0.929 . S
S253 N254 1.613 . S
S253 N255 1.610 . S
N254 S253 1.613 . S
N254 C257 1.350 . S
N255 S253 1.610 . S
N255 C256 1.351 . S
C256 C250 1.428 . S
C256 N255 1.351 . S
C256 C257 1.434 . S
C257 C248 1.429 . S
C257 N254 1.350 . S
C257 C256 1.434 . S
C258 C259 1.369 . S
C258 C260 1.419 . S
C258 H262 0.930 . S
C259 C258 1.369 . S
C259 C268 1.429 . S
C260 C258 1.419 . S
C260 C261 1.363 . S
C260 H263 0.929 . S
C261 C260 1.363 . S
C261 C267 1.428 . S
H262 C258 0.930 . S
H263 C260 0.929 . S
S264 N265 1.613 . S
S264 N266 1.610 . S
N265 S264 1.613 . S
N265 C268 1.350 . S
N266 S264 1.610 . S
N266 C267 1.351 . S
C267 C261 1.428 . S
C267 N266 1.351 . S
C267 C268 1.434 . S
C268 C259 1.429 . S
C268 N265 1.350 . S
C268 C267 1.434 . S
C269 C270 1.369 . S
C269 C271 1.419 . S
C269 H273 0.930 . S
C270 C269 1.369 . S
C270 C279 1.429 . S
C271 C269 1.419 . S
C271 C272 1.363 . S
C271 H274 0.929 . S
C272 C271 1.363 . S
C272 C278 1.428 . S
H273 C269 0.930 . S
H274 C271 0.929 . S
S275 N276 1.613 . S
S275 N277 1.610 . S
N276 S275 1.613 . S
N276 C279 1.350 . S
N277 S275 1.610 . S
N277 C278 1.351 . S
C278 C272 1.428 . S
C278 N277 1.351 . S
C278 C279 1.434 . S
C279 C270 1.429 . S
C279 N276 1.350 . S
C279 C278 1.434 . S
C280 C281 1.369 . S
C280 C282 1.419 . S
C280 H284 0.930 . S
C281 C280 1.369 . S
C281 C290 1.429 . S
C282 C280 1.419 . S
C282 C283 1.363 . S
C282 H285 0.929 . S
C283 C282 1.363 . S
C283 C289 1.428 . S
H284 C280 0.930 . S
H285 C282 0.929 . S
S286 N287 1.613 . S
S286 N288 1.610 . S
N287 S286 1.613 . S
N287 C290 1.350 . S
N288 S286 1.610 . S
N288 C289 1.351 . S
C289 C283 1.428 . S
C289 N288 1.351 . S
C289 C290 1.434 . S
C290 C281 1.429 . S
C290 N287 1.350 . S
C290 C289 1.434 . S
C291 C292 1.369 . S
C291 C293 1.419 . S
C291 H295 0.930 . S
C292 C291 1.369 . S
C292 C301 1.429 . S
C293 C291 1.419 . S
C293 C294 1.363 . S
C293 H296 0.929 . S
C294 C293 1.363 . S
C294 C300 1.428 . S
H295 C291 0.930 . S
H296 C293 0.929 . S
S297 N298 1.613 . S
S297 N299 1.610 . S
N298 S297 1.613 . S
N298 C301 1.350 . S
N299 S297 1.610 . S
N299 C300 1.351 . S
C300 C294 1.428 . S
C300 N299 1.351 . S
C300 C301 1.434 . S
C301 C292 1.429 . S
C301 N298 1.350 . S
C301 C300 1.434 . S
C302 C303 1.369 . S
C302 C304 1.419 . S
C302 H306 0.930 . S
C303 C302 1.369 . S
C303 C312 1.429 . S
C304 C302 1.419 . S
C304 C305 1.363 . S
C304 H307 0.929 . S
C305 C304 1.363 . S
C305 C311 1.428 . S
H306 C302 0.930 . S
H307 C304 0.929 . S
S308 N309 1.613 . S
S308 N310 1.610 . S
N309 S308 1.613 . S
N309 C312 1.350 . S
N310 S308 1.610 . S
N310 C311 1.351 . S
C311 C305 1.428 . S
C311 N310 1.351 . S
C311 C312 1.434 . S
C312 C303 1.429 . S
C312 N309 1.350 . S
C312 C311 1.434 . S
C313 C314 1.369 . S
C313 C315 1.419 . S
C313 H317 0.930 . S
C314 C313 1.369 . S
C314 C323 1.429 . S
C315 C313 1.419 . S
C315 C316 1.363 . S
C315 H318 0.929 . S
C316 C315 1.363 . S
C316 C322 1.428 . S
H317 C313 0.930 . S
H318 C315 0.929 . S
S319 N320 1.613 . S
S319 N321 1.610 . S
N320 S319 1.613 . S
N320 C323 1.350 . S
N321 S319 1.610 . S
N321 C322 1.351 . S
C322 C316 1.428 . S
C322 N321 1.351 . S
C322 C323 1.434 . S
C323 C314 1.429 . S
C323 N320 1.350 . S
C323 C322 1.434 . S
C324 C325 1.369 1_655 S
C324 C326 1.419 1_554 S
C324 H328 0.930 . S
C325 C324 1.369 1_455 S
C325 C334 1.429 . S
C326 C324 1.419 1_556 S
C326 C327 1.363 1_655 S
C326 H329 0.929 . S
C327 C326 1.363 1_455 S
C327 C333 1.428 . S
H328 C324 0.930 . S
H329 C326 0.929 . S
S330 N331 1.617 . S
S330 N332 1.607 1_554 S
N331 S330 1.617 . S
N331 C334 1.350 . S
N332 S330 1.607 1_556 S
N332 C333 1.351 . S
C333 C327 1.428 . S
C333 N332 1.351 . S
C333 C334 1.434 1_556 S
C334 C325 1.429 . S
C334 N331 1.350 . S
C334 C333 1.434 1_554 S
C335 C336 1.369 . S
C335 C337 1.419 . S
C335 H339 0.930 . S
C336 C335 1.369 . S
C336 C345 1.429 . S
C337 C335 1.419 . S
C337 C338 1.363 . S
C337 H340 0.929 . S
C338 C337 1.363 . S
C338 C344 1.428 . S
H339 C335 0.930 . S
H340 C337 0.929 . S
S341 N342 1.613 . S
S341 N343 1.610 . S
N342 S341 1.613 . S
N342 C345 1.350 1_565 S
N343 S341 1.610 . S
N343 C344 1.351 1_565 S
C344 C338 1.428 . S
C344 N343 1.351 1_545 S
C344 C345 1.434 . S
C345 C336 1.429 . S
C345 N342 1.350 1_545 S
C345 C344 1.434 . S
C346 C347 1.369 . S
C346 C348 1.419 . S
C346 H350 0.930 . S
C347 C346 1.369 . S
C347 C356 1.429 . S
C348 C346 1.419 . S
C348 C349 1.363 . S
C348 H351 0.929 . S
C349 C348 1.363 . S
C349 C355 1.428 . S
H350 C346 0.930 . S
H351 C348 0.929 . S
S352 N353 1.613 . S
S352 N354 1.610 . S
N353 S352 1.613 . S
N353 C356 1.350 . S
N354 S352 1.610 . S
N354 C355 1.351 . S
C355 C349 1.428 . S
C355 N354 1.351 . S
C355 C356 1.434 . S
C356 C347 1.429 . S
C356 N353 1.350 . S
C356 C355 1.434 . S
C357 C358 1.369 . S
C357 C359 1.419 . S
C357 H361 0.930 . S
C358 C357 1.369 . S
C358 C367 1.429 1_545 S
C359 C357 1.419 . S
C359 C360 1.363 . S
C359 H362 0.929 . S
C360 C359 1.363 . S
C360 C366 1.428 1_545 S
H361 C357 0.930 . S
H362 C359 0.929 . S
S363 N364 1.613 . S
S363 N365 1.610 . S
N364 S363 1.613 . S
N364 C367 1.350 . S
N365 S363 1.610 . S
N365 C366 1.351 . S
C366 C360 1.428 1_565 S
C366 N365 1.351 . S
C366 C367 1.434 . S
C367 C358 1.429 1_565 S
C367 N364 1.350 . S
C367 C366 1.434 . S
C368 C369 1.369 . S
C368 C370 1.419 1_556 S
C368 H372 0.930 . S
C369 C368 1.369 . S
C369 C378 1.429 . S
C370 C368 1.419 1_554 S
C370 C371 1.363 . S
C370 H373 0.929 . S
C371 C370 1.363 . S
C371 C377 1.428 . S
H372 C368 0.930 . S
H373 C370 0.929 . S
S374 N375 1.613 1_554 S
S374 N376 1.610 . S
N375 S374 1.613 1_556 S
N375 C378 1.350 . S
N376 S374 1.610 . S
N376 C377 1.351 . S
C377 C371 1.428 . S
C377 N376 1.351 . S
C377 C378 1.434 1_554 S
C378 C369 1.429 . S
C378 N375 1.350 . S
C378 C377 1.434 1_556 S
C379 C380 1.369 1_655 S
C379 C381 1.419 . S
C379 H383 0.930 . S
C380 C379 1.369 1_455 S
C380 C389 1.429 . S
C381 C379 1.419 . S
C381 C382 1.363 1_655 S
C381 H384 0.929 . S
C382 C381 1.363 1_455 S
C382 C388 1.428 . S
H383 C379 0.930 . S
H384 C381 0.929 . S
S385 N386 1.613 . S
S385 N387 1.610 . S
N386 S385 1.613 . S
N386 C389 1.350 . S
N387 S385 1.610 . S
N387 C388 1.351 . S
C388 C382 1.428 . S
C388 N387 1.351 . S
C388 C389 1.434 . S
C389 C380 1.429 . S
C389 N386 1.350 . S
C389 C388 1.434 . S
C193 C19 2.089 . S
C195 C186 2.072 . S
C204 C46 1.361 . S
C206 C160 1.393 . S
C215 C95 0.826 . S
C217 C172 0.884 . S
C226 C10 1.873 . S
C228 C184 1.740 . S
C239 C162 1.335 . S
C237 C55 1.302 . S
C250 C174 0.779 . S
C248 C86 0.752 . S
C259 C59 3.179 . S
C261 C136 3.081 . S
C270 C90 2.146 . S
C272 C150 2.182 . S
C281 C15 1.224 . S
C283 C126 1.265 . S
C294 C138 3.001 . S
C292 C50 3.025 . S
C305 C148 1.721 . S
C303 C99 1.806 . S
C314 C6 1.323 . S
C316 C124 1.342 . S
C327 C153 1.478 1_455 S
C325 C9 1.409 . S
C336 C58 1.524 . S
C338 C129 1.538 . S
C347 C98 1.693 . S
C349 C141 1.781 . S
C360 C177 1.161 . S
C358 C49 1.116 . S
C371 C189 1.483 . S
C369 C89 1.440 . S
C380 C18 1.493 . S
C382 C165 1.506 . S
