# Generated by pormake.
# Topology nom, (4,4)-cn, num edge types: 1
# Building blocks:
#     Node 0, Type 0, BuildingBlock: MUDLON_clean_linker_0, # of connection points: 4
#     Node 1, Type 0, BuildingBlock: MUDLON_clean_linker_0, # of connection points: 4
#     Node 2, Type 0, BuildingBlock: MUDLON_clean_linker_0, # of connection points: 4
#     Node 3, Type 0, BuildingBlock: MUDLON_clean_linker_0, # of connection points: 4
#     Node 4, Type 0, BuildingBlock: MUDLON_clean_linker_0, # of connection points: 4
#     Node 5, Type 0, BuildingBlock: MUDLON_clean_linker_0, # of connection points: 4
#     Node 6, Type 1, BuildingBlock: AZAVOO_clean_sbu_0, # of connection points: 4
#     Node 7, Type 1, BuildingBlock: AZAVOO_clean_sbu_0, # of connection points: 4
#     Node 8, Type 1, BuildingBlock: AZAVOO_clean_sbu_0, # of connection points: 4
#     Node 9, Type 1, BuildingBlock: AZAVOO_clean_sbu_0, # of connection points: 4
#     Node 10, Type 1, BuildingBlock: AZAVOO_clean_sbu_0, # of connection points: 4
#     Node 11, Type 1, BuildingBlock: AZAVOO_clean_sbu_0, # of connection points: 4
#     Edge 12, Type (0, 1), BuildingBlock: KIFKEQ_clean_linker_1, # of connection points: 2
#     Edge 13, Type (0, 1), BuildingBlock: KIFKEQ_clean_linker_1, # of connection points: 2
#     Edge 14, Type (0, 1), BuildingBlock: KIFKEQ_clean_linker_1, # of connection points: 2
#     Edge 15, Type (0, 1), BuildingBlock: KIFKEQ_clean_linker_1, # of connection points: 2
#     Edge 16, Type (0, 1), BuildingBlock: KIFKEQ_clean_linker_1, # of connection points: 2
#     Edge 17, Type (0, 1), BuildingBlock: KIFKEQ_clean_linker_1, # of connection points: 2
#     Edge 18, Type (0, 1), BuildingBlock: KIFKEQ_clean_linker_1, # of connection points: 2
#     Edge 19, Type (0, 1), BuildingBlock: KIFKEQ_clean_linker_1, # of connection points: 2
#     Edge 20, Type (0, 1), BuildingBlock: KIFKEQ_clean_linker_1, # of connection points: 2
#     Edge 21, Type (0, 1), BuildingBlock: KIFKEQ_clean_linker_1, # of connection points: 2
#     Edge 22, Type (0, 1), BuildingBlock: KIFKEQ_clean_linker_1, # of connection points: 2
#     Edge 23, Type (0, 1), BuildingBlock: KIFKEQ_clean_linker_1, # of connection points: 2
#     Edge 24, Type (0, 1), BuildingBlock: KIFKEQ_clean_linker_1, # of connection points: 2
#     Edge 25, Type (0, 1), BuildingBlock: KIFKEQ_clean_linker_1, # of connection points: 2
#     Edge 26, Type (0, 1), BuildingBlock: KIFKEQ_clean_linker_1, # of connection points: 2
#     Edge 27, Type (0, 1), BuildingBlock: KIFKEQ_clean_linker_1, # of connection points: 2
#     Edge 28, Type (0, 1), BuildingBlock: KIFKEQ_clean_linker_1, # of connection points: 2
#     Edge 29, Type (0, 1), BuildingBlock: KIFKEQ_clean_linker_1, # of connection points: 2
#     Edge 30, Type (0, 1), BuildingBlock: KIFKEQ_clean_linker_1, # of connection points: 2
#     Edge 31, Type (0, 1), BuildingBlock: KIFKEQ_clean_linker_1, # of connection points: 2
#     Edge 32, Type (0, 1), BuildingBlock: KIFKEQ_clean_linker_1, # of connection points: 2
#     Edge 33, Type (0, 1), BuildingBlock: KIFKEQ_clean_linker_1, # of connection points: 2
#     Edge 34, Type (0, 1), BuildingBlock: KIFKEQ_clean_linker_1, # of connection points: 2
#     Edge 35, Type (0, 1), BuildingBlock: KIFKEQ_clean_linker_1, # of connection points: 2
# Relax obj value: 0.035
# Max RMSD: 0.156
# Mean RMSD: 0.120
data_MOF--net-nom--node1-AZAVOO_clean_sbu_0--node2-MUDLON_clean_linker_0--edge1-KIFKEQ_clean_linker_1
_symmetry_space_group_name_H-M    P1
_symmetry_Int_Tables_number       1
_symmetry_cell_setting            triclinic
loop_
_symmetry_equiv_pos_as_xyz
'x, y, z'
_cell_length_a     61.159593
_cell_length_b     62.187567
_cell_length_c     59.549869
_cell_angle_alpha  91.411544
_cell_angle_beta   90.823157
_cell_angle_gamma 120.23662
loop_
_atom_site_label
_atom_site_type_symbol
_atom_site_fract_x
_atom_site_fract_y
_atom_site_fract_z
_atom_type_partial_charge
H0 H 0.13202 0.53279 0.32228 0.0
N1 N 0.0962 0.53964 0.33976 0.0
H2 H 0.16693 0.56135 0.29918 0.0
H3 H 0.10181 0.58222 0.32156 0.0
H4 H 0.13627 0.61058 0.29822 0.0
H5 H 0.11622 0.58537 0.3617 0.0
H6 H 0.13772 0.59702 0.39847 0.0
H7 H 0.09791 0.5094 0.36968 0.0
H8 H 0.11945 0.52102 0.40681 0.0
H9 H 0.06338 0.50245 0.31265 0.0
H10 H 0.07077 0.56283 0.3555 0.0
H11 H 0.02014 0.49176 0.30175 0.0
H12 H 0.02785 0.55228 0.34476 0.0
H13 H 0.91294 0.46013 0.27613 0.0
H14 H 0.89032 0.44024 0.24068 0.0
H15 H 0.88406 0.50503 0.22732 0.0
H16 H 0.90775 0.52508 0.26225 0.0
H17 H 0.90046 0.52974 0.30918 0.0
H18 H 0.86281 0.51342 0.33194 0.0
H19 H 0.86235 0.44396 0.33681 0.0
H20 H 0.90006 0.46054 0.31393 0.0
H21 H 0.95929 0.50519 0.26746 0.0
H22 H 0.00022 0.51169 0.27975 0.0
H23 H 0.98319 0.51883 0.34861 0.0
N24 N 0.92284 0.5055 0.2937 0.0
H25 H 0.94222 0.51235 0.33661 0.0
C26 C 0.1143 0.55523 0.32363 0.0
C27 C 0.13265 0.54954 0.31671 0.0
C28 C 0.15252 0.56585 0.3035 0.0
C29 C 0.15444 0.58831 0.29698 0.0
C30 C 0.1355 0.59359 0.30323 0.0
C31 C 0.11562 0.57724 0.31642 0.0
C32 C 0.10549 0.54638 0.36279 0.0
C33 C 0.11644 0.57105 0.37145 0.0
C34 C 0.12891 0.57777 0.39248 0.0
C35 C 0.13053 0.56 0.40539 0.0
C36 C 0.11842 0.5351 0.39727 0.0
C37 C 0.10611 0.52842 0.37611 0.0
C38 C 0.07033 0.5332 0.33502 0.0
C39 C 0.05559 0.51322 0.31986 0.0
C40 C 0.03101 0.50725 0.31356 0.0
C41 C 0.02058 0.52114 0.32244 0.0
C42 C 0.03522 0.541 0.33788 0.0
C43 C 0.05989 0.54708 0.34403 0.0
C44 C 0.91231 0.4943 0.2717 0.0
C45 C 0.90707 0.47018 0.26535 0.0
C46 C 0.89386 0.45872 0.24513 0.0
C47 C 0.88514 0.47089 0.23104 0.0
C48 C 0.89081 0.49517 0.23739 0.0
C49 C 0.90431 0.50671 0.2574 0.0
C50 C 0.90288 0.49636 0.30973 0.0
C51 C 0.89249 0.5112 0.31556 0.0
C52 C 0.87106 0.50185 0.32865 0.0
C53 C 0.85953 0.47733 0.33612 0.0
C54 C 0.87064 0.4628 0.33108 0.0
C55 C 0.89217 0.47224 0.31803 0.0
C56 C 0.94621 0.50647 0.30104 0.0
C57 C 0.96361 0.50713 0.28532 0.0
C58 C 0.98733 0.51109 0.29234 0.0
C59 C 0.9948 0.51543 0.31517 0.0
C60 C 0.97792 0.51539 0.33089 0.0
C61 C 0.95415 0.51125 0.32393 0.0
H62 H 0.49924 0.90491 0.48852 0.0
N63 N 0.48674 0.92865 0.45918 0.0
H64 H 0.47044 0.86941 0.51059 0.0
H65 H 0.4364 0.91212 0.46486 0.0
H66 H 0.40768 0.87721 0.4871 0.0
H67 H 0.45167 0.92835 0.43012 0.0
H68 H 0.43836 0.90624 0.39355 0.0
H69 H 0.51005 0.90935 0.43641 0.0
H70 H 0.49851 0.88901 0.39909 0.0
H71 H 0.53488 0.96256 0.45486 0.0
H72 H 0.46316 0.95436 0.47286 0.0
H73 H 0.55534 0.00741 0.46198 0.0
H74 H 0.48362 0.99896 0.48151 0.0
H75 H 0.61729 0.14475 0.51407 0.0
H76 H 0.62323 0.16219 0.55247 0.0
H77 H 0.54292 0.11639 0.56237 0.0
H78 H 0.53717 0.09906 0.5238 0.0
H79 H 0.53729 0.12541 0.49156 0.0
H80 H 0.53878 0.1595 0.47077 0.0
H81 H 0.60752 0.17198 0.43988 0.0
H82 H 0.60597 0.13793 0.46099 0.0
H83 H 0.59111 0.08168 0.4988 0.0
H84 H 0.56896 0.03682 0.4913 0.0
H85 H 0.5031 0.03923 0.46747 0.0
N86 N 0.57412 0.11274 0.49288 0.0
H87 H 0.52494 0.08383 0.47644 0.0
C88 C 0.47013 0.91128 0.47514 0.0
C89 C 0.47936 0.89929 0.48864 0.0
C90 C 0.46286 0.87902 0.50119 0.0
C91 C 0.4367 0.87031 0.50041 0.0
C92 C 0.42766 0.88318 0.48776 0.0
C93 C 0.44418 0.90341 0.4752 0.0
C94 C 0.48145 0.91987 0.4361 0.0
C95 C 0.46184 0.91969 0.42342 0.0
C96 C 0.45447 0.90726 0.40236 0.0
C97 C 0.46698 0.89529 0.39342 0.0
C98 C 0.4878 0.89717 0.40565 0.0
C99 C 0.49473 0.9091 0.42685 0.0
C100 C 0.49766 0.955 0.46363 0.0
C101 C 0.52362 0.97048 0.46061 0.0
C102 C 0.53529 0.99611 0.46491 0.0
C103 C 0.5213 0.00696 0.47275 0.0
C104 C 0.49505 0.99141 0.47538 0.0
C105 C 0.48329 0.96571 0.47065 0.0
C106 C 0.57693 0.1206 0.5162 0.0
C107 C 0.60106 0.13831 0.52465 0.0
C108 C 0.60435 0.14836 0.54646 0.0
C109 C 0.5835 0.14077 0.56032 0.0
C110 C 0.55933 0.12246 0.55207 0.0
C111 C 0.55602 0.11256 0.53009 0.0
C112 C 0.57159 0.12913 0.47774 0.0
C113 C 0.5523 0.13503 0.47988 0.0
C114 C 0.55318 0.15455 0.46798 0.0
C115 C 0.57344 0.16862 0.45389 0.0
C116 C 0.59189 0.16173 0.45087 0.0
C117 C 0.59091 0.14216 0.46269 0.0
C118 C 0.55999 0.08626 0.48791 0.0
C119 C 0.57187 0.07245 0.49199 0.0
C120 C 0.55918 0.0468 0.48748 0.0
C121 C 0.53427 0.03426 0.47838 0.0
C122 C 0.52217 0.04811 0.4746 0.0
C123 C 0.5348 0.07382 0.47951 0.0
H124 H 0.50383 0.63224 0.64433 0.0
N125 N 0.50801 0.59247 0.6507 0.0
H126 H 0.47089 0.63462 0.62328 0.0
H127 H 0.47232 0.55566 0.62151 0.0
H128 H 0.44067 0.55842 0.59888 0.0
H129 H 0.46273 0.56213 0.6699 0.0
H130 H 0.45076 0.56744 0.70768 0.0
H131 H 0.5384 0.62333 0.68345 0.0
H132 H 0.52684 0.62846 0.7216 0.0
H133 H 0.55269 0.60658 0.63336 0.0
H134 H 0.48565 0.54207 0.65583 0.0
H135 H 0.57179 0.58106 0.62525 0.0
H136 H 0.50402 0.51608 0.64689 0.0
H137 H 0.63129 0.49839 0.59732 0.0
H138 H 0.63252 0.48219 0.55974 0.0
H139 H 0.55117 0.44761 0.55287 0.0
H140 H 0.55016 0.46401 0.59047 0.0
H141 H 0.5507 0.44443 0.62554 0.0
H142 H 0.55137 0.41239 0.64803 0.0
H143 H 0.62758 0.46549 0.67161 0.0
H144 H 0.62693 0.49719 0.64848 0.0
H145 H 0.59218 0.5272 0.59476 0.0
H146 H 0.57017 0.55015 0.60071 0.0
H147 H 0.53597 0.50777 0.65944 0.0
N148 N 0.59084 0.49114 0.61936 0.0
H149 H 0.55686 0.48405 0.65296 0.0
C150 C 0.49073 0.59389 0.63478 0.0
C151 C 0.49025 0.61616 0.63419 0.0
C152 C 0.4714 0.6175 0.6219 0.0
C153 C 0.45273 0.59664 0.60931 0.0
C154 C 0.45418 0.57472 0.60879 0.0
C155 C 0.47267 0.5732 0.62163 0.0
C156 C 0.50148 0.59254 0.67386 0.0
C157 C 0.47695 0.5763 0.68124 0.0
C158 C 0.47017 0.57933 0.70291 0.0
C159 C 0.48778 0.59856 0.71762 0.0
C160 C 0.5127 0.61377 0.71057 0.0
C161 C 0.51942 0.61077 0.68888 0.0
C162 C 0.51782 0.57631 0.64506 0.0
C163 C 0.54199 0.5868 0.63622 0.0
C164 C 0.55276 0.5721 0.63147 0.0
C165 C 0.53943 0.54639 0.63529 0.0
C166 C 0.515 0.53583 0.644 0.0
C167 C 0.50436 0.55065 0.64898 0.0
C168 C 0.59077 0.48257 0.59659 0.0
C169 C 0.61379 0.48747 0.58759 0.0
C170 C 0.6144 0.47802 0.56627 0.0
C171 C 0.59191 0.4635 0.55345 0.0
C172 C 0.5688 0.45885 0.56233 0.0
C173 C 0.56819 0.46816 0.58379 0.0
C174 C 0.58892 0.47319 0.63528 0.0
C175 C 0.56742 0.44922 0.63575 0.0
C176 C 0.56778 0.43097 0.64873 0.0
C177 C 0.58965 0.43631 0.66141 0.0
C178 C 0.61061 0.46065 0.66172 0.0
C179 C 0.61022 0.47885 0.64874 0.0
C180 C 0.57588 0.50312 0.62278 0.0
C181 C 0.57947 0.52236 0.60864 0.0
C182 C 0.5671 0.53578 0.61226 0.0
C183 C 0.55125 0.53089 0.6306 0.0
C184 C 0.5476 0.51173 0.64487 0.0
C185 C 0.55976 0.49806 0.64109 0.0
H186 H 0.13456 0.63651 0.81951 0.0
N187 N 0.09448 0.59685 0.80048 0.0
H188 H 0.16905 0.63715 0.84141 0.0
H189 H 0.0932 0.5562 0.81925 0.0
H190 H 0.12728 0.55675 0.84134 0.0
H191 H 0.11006 0.56705 0.77989 0.0
H192 H 0.1304 0.57351 0.74415 0.0
H193 H 0.1016 0.63112 0.77078 0.0
H194 H 0.12292 0.63821 0.73475 0.0
H195 H 0.06339 0.60057 0.82894 0.0
H196 H 0.06543 0.55087 0.77809 0.0
H197 H 0.01967 0.5689 0.83676 0.0
H198 H 0.0225 0.51983 0.78582 0.0
H199 H 0.91036 0.48978 0.85243 0.0
H200 H 0.89138 0.48766 0.88876 0.0
H201 H 0.8932 0.42056 0.90225 0.0
H202 H 0.9128 0.4233 0.86615 0.0
H203 H 0.9058 0.41116 0.81724 0.0
H204 H 0.86898 0.38751 0.79187 0.0
H205 H 0.85855 0.45122 0.78941 0.0
H206 H 0.89529 0.47457 0.81504 0.0
H207 H 0.96082 0.49042 0.86336 0.0
H208 H 0.00037 0.52657 0.85361 0.0
H209 H 0.9782 0.51096 0.78335 0.0
N210 N 0.92327 0.45664 0.83497 0.0
H211 H 0.93865 0.47473 0.79274 0.0
C212 C 0.11136 0.59645 0.81754 0.0
C213 C 0.13255 0.61908 0.82483 0.0
C214 C 0.1522 0.61939 0.83737 0.0
C215 C 0.151 0.59697 0.84285 0.0
C216 C 0.12888 0.57432 0.83708 0.0
C217 C 0.10925 0.57402 0.82456 0.0
C218 C 0.10425 0.59871 0.77817 0.0
C219 C 0.11242 0.58249 0.77017 0.0
C220 C 0.12424 0.58629 0.74969 0.0
C221 C 0.12864 0.60661 0.73677 0.0
C222 C 0.11969 0.62232 0.74429 0.0
C223 C 0.1076 0.61836 0.76484 0.0
C224 C 0.06802 0.57851 0.80294 0.0
C225 C 0.05441 0.5831 0.81927 0.0
C226 C 0.02954 0.565 0.82377 0.0
C227 C 0.01769 0.54195 0.81183 0.0
C228 C 0.03099 0.53757 0.79505 0.0
C229 C 0.05587 0.55551 0.7907 0.0
C230 C 0.91301 0.45663 0.85666 0.0
C231 C 0.90673 0.47468 0.86326 0.0
C232 C 0.89583 0.47341 0.88403 0.0
C233 C 0.89078 0.45396 0.89847 0.0
C234 C 0.89726 0.43606 0.89179 0.0
C235 C 0.90829 0.43746 0.87112 0.0
C236 C 0.90314 0.44443 0.81812 0.0
C237 C 0.89574 0.42007 0.81092 0.0
C238 C 0.87481 0.40669 0.79632 0.0
C239 C 0.86078 0.41747 0.78861 0.0
C240 C 0.86876 0.44228 0.79525 0.0
C241 C 0.88973 0.45565 0.80991 0.0
C242 C 0.9454 0.48003 0.82908 0.0
C243 C 0.96374 0.49508 0.84585 0.0
C244 C 0.98658 0.51585 0.84029 0.0
C245 C 0.99221 0.52178 0.81776 0.0
C246 C 0.97425 0.50691 0.80091 0.0
C247 C 0.95131 0.4862 0.80643 0.0
H248 H 0.51461 0.15502 0.97944 0.0
N249 N 0.50413 0.10825 0.97554 0.0
H250 H 0.5468 0.18857 0.00324 0.0
H251 H 0.53156 0.10298 0.01074 0.0
H252 H 0.5625 0.13603 0.03558 0.0
H253 H 0.5499 0.11811 0.95987 0.0
H254 H 0.5651 0.13043 0.92201 0.0
H255 H 0.47882 0.11225 0.94083 0.0
H256 H 0.4942 0.12567 0.90312 0.0
H257 H 0.45556 0.07812 0.98301 0.0
H258 H 0.52607 0.07911 0.97617 0.0
H259 H 0.43329 0.03294 0.98589 0.0
H260 H 0.50444 0.03428 0.98044 0.0
H261 H 0.37556 0.89682 0.01896 0.0
H262 H 0.37554 0.8847 0.05785 0.0
H263 H 0.4573 0.92526 0.06005 0.0
H264 H 0.45716 0.93806 0.02143 0.0
H265 H 0.45738 0.91905 0.9874 0.0
H266 H 0.4579 0.88458 0.9674 0.0
H267 H 0.3793 0.85388 0.94753 0.0
H268 H 0.37892 0.88861 0.9676 0.0
H269 H 0.40393 0.95586 0.01203 0.0
H270 H 0.42603 0.00077 0.0089 0.0
H271 H 0.47705 0.99597 0.9622 0.0
N272 N 0.4154 0.9235 0.99407 0.0
H273 H 0.45588 0.95137 0.96637 0.0
C274 C 0.52075 0.12641 0.99265 0.0
C275 C 0.52487 0.1507 0.9918 0.0
C276 C 0.54322 0.1699 0.00568 0.0
C277 C 0.55764 0.16527 0.0214 0.0
C278 C 0.55238 0.14058 0.0233 0.0
C279 C 0.53435 0.12141 0.00899 0.0
C280 C 0.51315 0.11423 0.95305 0.0
C281 C 0.53746 0.1192 0.94742 0.0
C282 C 0.5462 0.1265 0.92582 0.0
C283 C 0.53093 0.12919 0.90953 0.0
C284 C 0.50634 0.12347 0.91511 0.0
C285 C 0.49757 0.116 0.93666 0.0
C286 C 0.49244 0.08208 0.97982 0.0
C287 C 0.46629 0.0686 0.98271 0.0
C288 C 0.45365 0.04275 0.98439 0.0
C289 C 0.46702 0.02979 0.98349 0.0
C290 C 0.49338 0.04345 0.98083 0.0
C291 C 0.50591 0.06925 0.9787 0.0
C292 C 0.41624 0.91788 0.01727 0.0
C293 C 0.39341 0.90329 0.02797 0.0
C294 C 0.39346 0.89656 0.05013 0.0
C295 C 0.41644 0.90409 0.06182 0.0
C296 C 0.43938 0.91916 0.05127 0.0
C297 C 0.4393 0.92627 0.02921 0.0
C298 C 0.41805 0.90657 0.97884 0.0
C299 C 0.44041 0.90531 0.97832 0.0
C300 C 0.44071 0.88557 0.96684 0.0
C301 C 0.41858 0.86646 0.95607 0.0
C302 C 0.39658 0.86826 0.95586 0.0
C303 C 0.39639 0.88817 0.96708 0.0
C304 C 0.42831 0.94991 0.98998 0.0
C305 C 0.41997 0.96449 0.00117 0.0
C306 C 0.43254 0.99024 -0.00081 0.0
C307 C 0.45351 0.0022 0.98538 0.0
C308 C 0.46141 0.98755 0.97349 0.0
C309 C 0.44907 0.96174 0.97582 0.0
H310 H 0.49955 0.40584 0.11186 0.0
N311 N 0.50195 0.4371 0.1443 0.0
H312 H 0.53496 0.40425 0.09487 0.0
H313 H 0.55226 0.47268 0.14969 0.0
H314 H 0.58757 0.47157 0.13254 0.0
H315 H 0.52412 0.47401 0.17708 0.0
H316 H 0.53253 0.46859 0.21626 0.0
H317 H 0.48482 0.39447 0.16492 0.0
H318 H 0.49298 0.38883 0.20408 0.0
H319 H 0.45346 0.42335 0.1449 0.0
H320 H 0.52657 0.48573 0.13036 0.0
H321 H 0.43383 0.44816 0.13701 0.0
H322 H 0.50701 0.51012 0.12103 0.0
H323 H 0.37714 0.52172 0.08781 0.0
H324 H 0.37373 0.5355 0.05027 0.0
H325 H 0.45473 0.58454 0.05101 0.0
H326 H 0.45818 0.56971 0.08807 0.0
H327 H 0.45578 0.58562 0.12282 0.0
H328 H 0.45396 0.6141 0.15034 0.0
H329 H 0.38168 0.55509 0.17165 0.0
H330 H 0.38358 0.52649 0.14363 0.0
H331 H 0.40072 0.48942 0.10351 0.0
H332 H 0.42178 0.46536 0.10878 0.0
H333 H 0.48813 0.53152 0.1362 0.0
N334 N 0.41866 0.53725 0.11321 0.0
H335 H 0.46755 0.55559 0.12935 0.0
C336 C 0.52309 0.43929 0.13197 0.0
C337 C 0.51873 0.42051 0.11604 0.0
C338 C 0.539 0.41966 0.10637 0.0
C339 C 0.56413 0.43767 0.11251 0.0
C340 C 0.56847 0.45717 0.12774 0.0
C341 C 0.5482 0.45794 0.13743 0.0
C342 C 0.50402 0.43454 0.16809 0.0
C343 C 0.51696 0.45536 0.18295 0.0
C344 C 0.52176 0.45225 0.2053 0.0
C345 C 0.5135 0.4283 0.21318 0.0
C346 C 0.49934 0.40749 0.19858 0.0
C347 C 0.49475 0.41065 0.17622 0.0
C348 C 0.49137 0.45236 0.13807 0.0
C349 C 0.4652 0.44227 0.13961 0.0
C350 C 0.45401 0.45649 0.1349 0.0
C351 C 0.46873 0.4812 0.12814 0.0
C352 C 0.49504 0.4913 0.12645 0.0
C353 C 0.50631 0.47715 0.13158 0.0
C354 C 0.41776 0.54493 0.09079 0.0
C355 C 0.39414 0.53524 0.07973 0.0
C356 C 0.39224 0.5431 0.05842 0.0
C357 C 0.41396 0.56117 0.04799 0.0
C358 C 0.43773 0.57076 0.05891 0.0
C359 C 0.43968 0.5624 0.08006 0.0
C360 C 0.41969 0.5538 0.13111 0.0
C361 C 0.43972 0.57855 0.13359 0.0
C362 C 0.43874 0.59487 0.14952 0.0
C363 C 0.41766 0.58686 0.16319 0.0
C364 C 0.39809 0.56185 0.16125 0.0
C365 C 0.39918 0.54549 0.14537 0.0
C366 C 0.43223 0.52413 0.11637 0.0
C367 C 0.41988 0.49868 0.11053 0.0
C368 C 0.43192 0.48494 0.11376 0.0
C369 C 0.45661 0.49632 0.1233 0.0
C370 C 0.46923 0.52207 0.12866 0.0
C371 C 0.45729 0.53591 0.12499 0.0
Mg372 Mg 0.62004 0.37491 0.36088 0.0
O373 O 0.61418 0.39337 0.39248 0.0
O374 O 0.62638 0.43263 0.38402 0.0
Mg375 Mg 0.63978 0.43938 0.34799 0.0
C376 C 0.61757 0.41493 0.39776 0.0
C377 C 0.5952 0.32725 0.3901 0.0
O378 O 0.5764 0.33177 0.38984 0.0
O379 O 0.66267 0.39613 0.3679 0.0
O380 O 0.67352 0.43458 0.358 0.0
O381 O 0.58116 0.36328 0.34741 0.0
O382 O 0.61528 0.39926 0.34089 0.0
C383 C 0.67939 0.41881 0.36497 0.0
C384 C 0.59114 0.38491 0.33856 0.0
O385 O 0.61555 0.34199 0.38048 0.0
Mg386 Mg 0.28188 0.65491 0.58317 0.0
O387 O 0.25433 0.63303 0.55349 0.0
O388 O 0.23079 0.59375 0.56415 0.0
Mg389 Mg 0.24144 0.59095 0.60051 0.0
C390 C 0.23691 0.61041 0.54956 0.0
C391 C 0.3178 0.70832 0.57276 0.0
O392 O 0.31383 0.70832 0.5944 0.0
O393 O 0.30523 0.63621 0.57609 0.0
O394 O 0.2808 0.59873 0.59021 0.0
O395 O 0.25411 0.6645 0.5974 0.0
O396 O 0.25587 0.631 0.60562 0.0
C397 C 0.30138 0.61483 0.58146 0.0
C398 C 0.24491 0.64393 0.60799 0.0
O399 O 0.30669 0.6877 0.56158 0.0
Mg400 Mg 0.62673 0.26757 0.7502 0.0
O401 O 0.61973 0.24123 0.71977 0.0
O402 O 0.63511 0.21663 0.72888 0.0
Mg403 Mg 0.65175 0.22706 0.76475 0.0
C404 C 0.62404 0.2236 0.71495 0.0
C405 C 0.60603 0.30191 0.7382 0.0
O406 O 0.59904 0.29659 0.75905 0.0
O407 O 0.6686 0.29042 0.74272 0.0
O408 O 0.68296 0.26558 0.75381 0.0
O409 O 0.58999 0.23985 0.76472 0.0
O410 O 0.62649 0.24182 0.77181 0.0
C411 C 0.68671 0.28617 0.74615 0.0
C412 C 0.60249 0.2309 0.77469 0.0
O413 O 0.6178 0.29223 0.72893 0.0
Mg414 Mg 0.38414 0.65862 0.86518 0.0
O415 O 0.38782 0.63786 0.89528 0.0
O416 O 0.36993 0.5978 0.88385 0.0
Mg417 Mg 0.35736 0.59333 0.84692 0.0
C418 C 0.38098 0.61518 0.89894 0.0
C419 C 0.41241 0.71153 0.8912 0.0
O420 O 0.43285 0.7126 0.88326 0.0
O421 O 0.34184 0.64099 0.87007 0.0
O422 O 0.32612 0.60182 0.85699 0.0
O423 O 0.42176 0.66635 0.85299 0.0
O424 O 0.38532 0.63298 0.84303 0.0
C425 C 0.32314 0.61928 0.86532 0.0
C426 C 0.40961 0.64515 0.84195 0.0
O427 O 0.39104 0.69194 0.8875 0.0
Mg428 Mg 0.73618 0.38525 0.05144 0.0
O429 O 0.7621 0.39453 0.08291 0.0
O430 O 0.78475 0.37579 0.07749 0.0
Mg431 Mg 0.77578 0.35748 0.04212 0.0
C432 C 0.77859 0.38904 0.0896 0.0
C433 C 0.7022 0.40757 0.05723 0.0
O434 O 0.70927 0.41198 0.03631 0.0
O435 O 0.71148 0.34486 0.06128 0.0
O436 O 0.73525 0.32839 0.05153 0.0
O437 O 0.76529 0.41968 0.0353 0.0
O438 O 0.76293 0.38316 0.03182 0.0
C439 C 0.71453 0.32612 0.05849 0.0
C440 C 0.77448 0.40641 0.02733 0.0
O441 O 0.71072 0.39669 0.06932 0.0
Mg442 Mg 0.36575 0.75435 0.21117 0.0
O443 O 0.38767 0.77942 0.24201 0.0
O444 O 0.42831 0.80128 0.23257 0.0
Mg445 Mg 0.43179 0.79258 0.19574 0.0
C446 C 0.41088 0.79534 0.24676 0.0
C447 C 0.31313 0.71222 0.22057 0.0
O448 O 0.31496 0.71061 0.1987 0.0
O449 O 0.38286 0.7298 0.21674 0.0
O450 O 0.42197 0.7528 0.20417 0.0
O451 O 0.35771 0.78317 0.1989 0.0
O452 O 0.39159 0.78095 0.19031 0.0
C453 C 0.40437 0.73255 0.21191 0.0
C454 C 0.37914 0.79255 0.18895 0.0
O455 O 0.33188 0.72932 0.23189 0.0
H456 H 0.17806 0.57951 0.2622 0.0
H457 H 0.18174 0.63876 0.30451 0.0
H458 H 0.21642 0.60961 0.24386 0.0
H459 H 0.21956 0.66894 0.28565 0.0
H460 H 0.30277 0.71017 0.26532 0.0
H461 H 0.264 0.6803 0.28331 0.0
H462 H 0.23141 0.64431 0.21866 0.0
H463 H 0.27023 0.67383 0.20073 0.0
C464 C 0.18699 0.59897 0.26751 0.0
C465 C 0.17685 0.60674 0.28481 0.0
C466 C 0.20884 0.61624 0.25687 0.0
C467 C 0.22106 0.64166 0.26333 0.0
C468 C 0.21075 0.64946 0.28046 0.0
C469 C 0.18889 0.6322 0.29106 0.0
C470 C 0.28733 0.69589 0.25495 0.0
C471 C 0.28961 0.69436 0.23161 0.0
C472 C 0.26506 0.67886 0.26524 0.0
C473 C 0.24462 0.65993 0.2524 0.0
C474 C 0.24692 0.65847 0.22905 0.0
C475 C 0.26914 0.67549 0.21877 0.0
H476 H 0.61652 0.21386 0.45259 0.0
H477 H 0.53713 0.17541 0.43311 0.0
H478 H 0.62163 0.25217 0.43777 0.0
H479 H 0.54228 0.21378 0.41785 0.0
H480 H 0.55541 0.29288 0.41388 0.0
H481 H 0.55002 0.25453 0.4292 0.0
H482 H 0.6223 0.27103 0.40329 0.0
H483 H 0.62801 0.30961 0.38864 0.0
C484 C 0.60022 0.21351 0.44478 0.0
C485 C 0.57645 0.19156 0.44386 0.0
C486 C 0.60314 0.2355 0.43629 0.0
C487 C 0.58239 0.2361 0.42654 0.0
C488 C 0.5586 0.21409 0.42554 0.0
C489 C 0.55565 0.19208 0.43418 0.0
C490 C 0.5702 0.28837 0.41157 0.0
C491 C 0.59217 0.30436 0.40009 0.0
C492 C 0.56702 0.26627 0.4202 0.0
C493 C 0.58569 0.25962 0.41746 0.0
C494 C 0.60769 0.2757 0.40603 0.0
C495 C 0.61093 0.29782 0.39753 0.0
H496 H 0.40361 0.55801 0.6028 0.0
H497 H 0.45147 0.63655 0.59124 0.0
H498 H 0.36711 0.55995 0.58983 0.0
H499 H 0.41445 0.63907 0.58087 0.0
H500 H 0.34454 0.63844 0.55688 0.0
H501 H 0.38053 0.63164 0.55781 0.0
H502 H 0.34175 0.5732 0.60496 0.0
H503 H 0.30566 0.57896 0.60285 0.0
C504 C 0.40657 0.57572 0.59732 0.0
C505 C 0.43075 0.59723 0.59858 0.0
C506 C 0.38535 0.57693 0.59027 0.0
C507 C 0.38747 0.59982 0.58491 0.0
C508 C 0.41182 0.62104 0.58484 0.0
C509 C 0.43317 0.61969 0.59129 0.0
C510 C 0.34363 0.62385 0.56709 0.0
C511 C 0.32224 0.60931 0.57982 0.0
C512 C 0.36436 0.62005 0.56779 0.0
C513 C 0.36436 0.60194 0.58159 0.0
C514 C 0.34252 0.58696 0.59372 0.0
C515 C 0.32171 0.59041 0.59266 0.0
H516 H 0.85104 0.38323 0.75431 0.0
H517 H 0.81595 0.41649 0.79335 0.0
H518 H 0.80981 0.35326 0.73722 0.0
H519 H 0.77498 0.38677 0.77627 0.0
H520 H 0.7036 0.33542 0.7388 0.0
H521 H 0.74712 0.36997 0.7427 0.0
H522 H 0.77311 0.31789 0.75311 0.0
H523 H 0.72989 0.28344 0.74887 0.0
C524 C 0.8346 0.38435 0.75903 0.0
C525 C 0.83675 0.40206 0.77539 0.0
C526 C 0.81102 0.36723 0.7492 0.0
C527 C 0.78909 0.3675 0.75551 0.0
C528 C 0.79151 0.38623 0.7708 0.0
C529 C 0.81506 0.4033 0.78063 0.0
C530 C 0.71866 0.33129 0.74137 0.0
C531 C 0.71318 0.30665 0.74392 0.0
C532 C 0.74358 0.35112 0.74373 0.0
C533 C 0.76353 0.34671 0.74853 0.0
C534 C 0.75824 0.32197 0.7493 0.0
C535 C 0.73336 0.30218 0.74703 0.0
H536 H 0.45255 0.86368 0.92839 0.0
H537 H 0.38337 0.81819 0.96293 0.0
H538 H 0.4514 0.82618 0.9134 0.0
H539 H 0.38257 0.78077 0.94878 0.0
H540 H 0.37306 0.71879 0.90072 0.0
H541 H 0.37494 0.75621 0.91603 0.0
H542 H 0.45648 0.79207 0.92261 0.0
H543 H 0.4546 0.75477 0.90626 0.0
C544 C 0.43718 0.84563 0.93285 0.0
C545 C 0.4179 0.84383 0.9466 0.0
C546 C 0.43658 0.82412 0.92442 0.0
C547 C 0.41685 0.80032 0.92981 0.0
C548 C 0.39777 0.79867 0.94382 0.0
C549 C 0.39821 0.82013 0.95198 0.0
C550 C 0.39141 0.73458 0.90555 0.0
C551 C 0.41369 0.73377 0.90225 0.0
C552 C 0.39249 0.75609 0.91447 0.0
C553 C 0.41587 0.77729 0.92062 0.0
C554 C 0.43816 0.7763 0.91771 0.0
C555 C 0.43709 0.75482 0.90852 0.0
H556 H 0.60633 0.44557 0.13622 0.0
H557 H 0.57046 0.424 0.07004 0.0
H558 H 0.64087 0.44019 0.12309 0.0
H559 H 0.60453 0.41764 0.05715 0.0
H560 H 0.68135 0.43142 0.03553 0.0
H561 H 0.6492 0.44029 0.04893 0.0
H562 H 0.64803 0.4065 0.11176 0.0
H563 H 0.68063 0.39805 0.09852 0.0
C564 C 0.60591 0.43988 0.11881 0.0
C565 C 0.58564 0.43529 0.10415 0.0
C566 C 0.62556 0.43647 0.11137 0.0
C567 C 0.62544 0.4284 0.0891 0.0
C568 C 0.60535 0.42412 0.07436 0.0
C569 C 0.58568 0.42751 0.0818 0.0
C570 C 0.67436 0.42599 0.05226 0.0
C571 C 0.68352 0.41395 0.06594 0.0
C572 C 0.65579 0.43095 0.05988 0.0
C573 C 0.64592 0.42399 0.08136 0.0
C574 C 0.65542 0.41235 0.09521 0.0
C575 C 0.67402 0.40739 0.08759 0.0
H576 H 0.39119 0.8326 0.48369 0.0
H577 H 0.44183 0.85492 0.54192 0.0
H578 H 0.36224 0.79369 0.50115 0.0
H579 H 0.41329 0.81553 0.55903 0.0
H580 H 0.34347 0.75481 0.5926 0.0
H581 H 0.3717 0.79394 0.57525 0.0
H582 H 0.35973 0.75474 0.51126 0.0
H583 H 0.33099 0.71547 0.52857 0.0
C584 C 0.39606 0.82929 0.5003 0.0
C585 C 0.41877 0.84696 0.51148 0.0
C586 C 0.37963 0.80681 0.51016 0.0
C587 C 0.38548 0.80145 0.53144 0.0
C588 C 0.4081 0.81918 0.5427 0.0
C589 C 0.42457 0.84166 0.53282 0.0
C590 C 0.34682 0.75448 0.57482 0.0
C591 C 0.33497 0.73199 0.56196 0.0
C592 C 0.36314 0.77694 0.56491 0.0
C593 C 0.36804 0.77748 0.54189 0.0
C594 C 0.35614 0.755 0.52899 0.0
C595 C 0.33978 0.73248 0.53893 0.0
H596 H 0.55333 0.39889 0.68595 0.0
H597 H 0.62947 0.42813 0.66282 0.0
H598 H 0.55574 0.36507 0.70367 0.0
H599 H 0.63219 0.39499 0.68113 0.0
H600 H 0.61978 0.31852 0.69572 0.0
H601 H 0.61458 0.35015 0.67697 0.0
H602 H 0.5777 0.35846 0.73514 0.0
H603 H 0.58248 0.32653 0.75375 0.0
C604 C 0.57058 0.39813 0.68469 0.0
C605 C 0.59123 0.41626 0.67305 0.0
C606 C 0.57204 0.37889 0.69499 0.0
C607 C 0.59414 0.3773 0.69374 0.0
C608 C 0.61478 0.39548 0.68216 0.0
C609 C 0.61334 0.4147 0.67194 0.0
C610 C 0.61041 0.32697 0.70446 0.0
C611 C 0.60166 0.32008 0.72628 0.0
C612 C 0.60757 0.3452 0.69377 0.0
C613 C 0.59589 0.35695 0.70464 0.0
C614 C 0.58659 0.34963 0.72624 0.0
C615 C 0.58945 0.33141 0.73694 0.0
H616 H 0.16964 0.56763 0.82871 0.0
H617 H 0.18459 0.6273 0.87636 0.0
H618 H 0.21002 0.57155 0.83878 0.0
H619 H 0.22515 0.63097 0.88695 0.0
H620 H 0.27912 0.57435 0.86556 0.0
H621 H 0.23602 0.56686 0.86554 0.0
H622 H 0.26516 0.64627 0.87017 0.0
H623 H 0.30816 0.65367 0.87112 0.0
C624 C 0.18125 0.58111 0.84187 0.0
C625 C 0.17391 0.59717 0.85173 0.0
C626 C 0.20449 0.58336 0.8477 0.0
C627 C 0.22099 0.60164 0.86366 0.0
C628 C 0.21312 0.61696 0.87432 0.0
C629 C 0.18986 0.61482 0.86834 0.0
C630 C 0.27631 0.59019 0.8669 0.0
C631 C 0.29708 0.61462 0.86804 0.0
C632 C 0.25158 0.58591 0.86679 0.0
C633 C 0.24703 0.60595 0.86751 0.0
C634 C 0.26785 0.63034 0.86982 0.0
C635 C 0.29258 0.63461 0.87021 0.0
H636 H 0.56193 0.20939 0.03709 0.0
H637 H 0.60293 0.16951 0.03508 0.0
H638 H 0.59989 0.24654 0.0508 0.0
H639 H 0.64005 0.20583 0.05123 0.0
H640 H 0.70921 0.28266 0.04144 0.0
H641 H 0.671 0.24255 0.03789 0.0
H642 H 0.63136 0.27108 0.07696 0.0
H643 H 0.66963 0.312 0.07924 0.0
C644 C 0.57889 0.20834 0.03988 0.0
C645 C 0.57932 0.18644 0.03423 0.0
C646 C 0.6007 0.22967 0.04826 0.0
C647 C 0.62345 0.22957 0.0518 0.0
C648 C 0.62322 0.20701 0.04807 0.0
C649 C 0.6016 0.18586 0.03915 0.0
C650 C 0.69249 0.28035 0.04963 0.0
C651 C 0.69244 0.30069 0.06037 0.0
C652 C 0.67043 0.25711 0.04773 0.0
C653 C 0.64773 0.25334 0.05693 0.0
C654 C 0.64819 0.27331 0.06911 0.0
C655 C 0.67023 0.29677 0.07062 0.0
H656 H 0.4539 0.62434 0.19062 0.0
H657 H 0.37581 0.59125 0.16793 0.0
H658 H 0.45142 0.65849 0.2092 0.0
H659 H 0.37337 0.6253 0.18615 0.0
H660 H 0.37067 0.6853 0.22489 0.0
H661 H 0.37416 0.64815 0.21966 0.0
H662 H 0.44946 0.69321 0.19472 0.0
H663 H 0.44631 0.73027 0.20049 0.0
C664 C 0.43613 0.62421 0.18985 0.0
C665 C 0.41513 0.60523 0.17764 0.0
C666 C 0.4347 0.64376 0.20047 0.0
C667 C 0.41228 0.64479 0.19899 0.0
C668 C 0.39085 0.62498 0.18793 0.0
C669 C 0.39225 0.60542 0.17741 0.0
C670 C 0.3882 0.68737 0.21875 0.0
C671 C 0.40805 0.71077 0.21275 0.0
C672 C 0.39012 0.66602 0.21565 0.0
C673 C 0.41193 0.66761 0.20645 0.0
C674 C 0.43245 0.69125 0.202 0.0
C675 C 0.43057 0.71257 0.20515 0.0
H676 H 0.81802 0.43134 0.32796 0.0
H677 H 0.84473 0.49882 0.36875 0.0
H678 H 0.77533 0.41616 0.34086 0.0
H679 H 0.80187 0.48355 0.38179 0.0
H680 H 0.70063 0.38969 0.37227 0.0
H681 H 0.74544 0.40242 0.3713 0.0
H682 H 0.76432 0.47857 0.36247 0.0
H683 H 0.71987 0.46606 0.36386 0.0
C684 C 0.81493 0.44262 0.34022 0.0
C685 C 0.83472 0.46641 0.34713 0.0
C686 C 0.7904 0.4339 0.34764 0.0
C687 C 0.78512 0.44876 0.36218 0.0
C688 C 0.80524 0.47185 0.37026 0.0
C689 C 0.82978 0.48059 0.36281 0.0
C690 C 0.71439 0.40923 0.37057 0.0
C691 C 0.70659 0.42679 0.36783 0.0
C692 C 0.74006 0.41649 0.3699 0.0
C693 C 0.75845 0.44147 0.36661 0.0
C694 C 0.75073 0.45921 0.36525 0.0
C695 C 0.72514 0.45197 0.36585 0.0
H696 H 0.17803 0.59981 0.41266 0.0
H697 H 0.11819 0.53745 0.44585 0.0
H698 H 0.20434 0.61197 0.44693 0.0
H699 H 0.14417 0.54996 0.48046 0.0
H700 H 0.20569 0.5635 0.53168 0.0
H701 H 0.18048 0.55157 0.49685 0.0
H702 H 0.2092 0.62922 0.48379 0.0
H703 H 0.23518 0.64115 0.51827 0.0
C704 C 0.17038 0.58891 0.42743 0.0
C705 C 0.14603 0.56772 0.42661 0.0
C706 C 0.18544 0.5959 0.44712 0.0
C707 C 0.17645 0.58199 0.46655 0.0
C708 C 0.15194 0.56088 0.46573 0.0
C709 C 0.13697 0.55375 0.44595 0.0
C710 C 0.20674 0.57805 0.52133 0.0
C711 C 0.22247 0.6033 0.5278 0.0
C712 C 0.19209 0.57119 0.5014 0.0
C713 C 0.19258 0.58938 0.48751 0.0
C714 C 0.20855 0.61467 0.49388 0.0
C715 C 0.22341 0.62154 0.51372 0.0
H716 H 0.56472 0.11781 0.59985 0.0
H717 H 0.61041 0.19021 0.57207 0.0
H718 H 0.57247 0.13735 0.63757 0.0
H719 H 0.61837 0.20966 0.60966 0.0
H720 H 0.60749 0.23752 0.67805 0.0
H721 H 0.59547 0.21685 0.64084 0.0
H722 H 0.61049 0.16009 0.6638 0.0
H723 H 0.62243 0.18057 0.70099 0.0
C724 C 0.57624 0.13789 0.60181 0.0
C725 C 0.5871 0.15249 0.58308 0.0
C726 C 0.58082 0.14904 0.62337 0.0
C727 C 0.59607 0.17502 0.62654 0.0
C728 C 0.60638 0.18963 0.60772 0.0
C729 C 0.60203 0.17848 0.58624 0.0
C730 C 0.60812 0.22057 0.67522 0.0
C731 C 0.61605 0.21079 0.6925 0.0
C732 C 0.60132 0.2088 0.65388 0.0
C733 C 0.60205 0.18687 0.64944 0.0
C734 C 0.6095 0.17683 0.6668 0.0
C735 C 0.61652 0.1887 0.68806 0.0
H736 H 0.45571 0.56562 0.74803 0.0
H737 H 0.50081 0.64424 0.73603 0.0
H738 H 0.43882 0.57512 0.78137 0.0
H739 H 0.48406 0.65366 0.76916 0.0
H740 H 0.46064 0.66616 0.83671 0.0
H741 H 0.48202 0.65332 0.80981 0.0
H742 H 0.40987 0.59055 0.78775 0.0
H743 H 0.38864 0.60309 0.81478 0.0
C744 C 0.46216 0.58491 0.75258 0.0
C745 C 0.47957 0.60415 0.73931 0.0
C746 C 0.4525 0.59035 0.77168 0.0
C747 C 0.46003 0.61515 0.77791 0.0
C748 C 0.47815 0.63439 0.7651 0.0
C749 C 0.48778 0.62896 0.74605 0.0
C750 C 0.44941 0.64939 0.82637 0.0
C751 C 0.42292 0.63574 0.8278 0.0
C752 C 0.46164 0.6421 0.81088 0.0
C753 C 0.44765 0.62101 0.79649 0.0
C754 C 0.42128 0.60671 0.79872 0.0
C755 C 0.40907 0.61399 0.81419 0.0
H756 H 0.8519 0.46268 0.90653 0.0
H757 H 0.89999 0.43958 0.93905 0.0
H758 H 0.82793 0.45497 0.94062 0.0
H759 H 0.87556 0.43139 0.97303 0.0
H760 H 0.7995 0.3839 0.01026 0.0
H761 H 0.83122 0.39917 0.98155 0.0
H762 H 0.83028 0.46813 0.98116 0.0
H763 H 0.79842 0.45285 0.01006 0.0
C764 C 0.85771 0.45644 0.92107 0.0
C765 C 0.87777 0.45156 0.91996 0.0
C766 C 0.84394 0.45201 0.94062 0.0
C767 C 0.84982 0.44248 0.95945 0.0
C768 C 0.87043 0.43845 0.95866 0.0
C769 C 0.88432 0.44305 0.93917 0.0
C770 C 0.80638 0.40251 0.00445 0.0
C771 C 0.79633 0.4171 0.0124 0.0
C772 C 0.82466 0.4113 0.98801 0.0
C773 C 0.83312 0.43479 0.97902 0.0
C774 C 0.8239 0.44985 0.98764 0.0
C775 C 0.80577 0.44113 0.00427 0.0
H776 H 0.44076 0.88011 0.0753 0.0
H777 H 0.3911 0.90584 0.0985 0.0
H778 H 0.43486 0.85789 0.10972 0.0
H779 H 0.38605 0.88467 0.13369 0.0
H780 H 0.35119 0.81147 0.17192 0.0
H781 H 0.36382 0.8434 0.14439 0.0
H782 H 0.4404 0.85676 0.1484 0.0
H783 H 0.42724 0.82375 0.17507 0.0
C784 C 0.4292 0.88161 0.08816 0.0
C785 C 0.4162 0.89444 0.08426 0.0
C786 C 0.42588 0.86898 0.108 0.0
C787 C 0.40975 0.86923 0.12452 0.0
C788 C 0.39811 0.88354 0.12115 0.0
C789 C 0.4011 0.89581 0.1011 0.0
C790 C 0.37082 0.8215 0.16718 0.0
C791 C 0.38812 0.81481 0.17536 0.0
C792 C 0.37816 0.84001 0.15146 0.0
C793 C 0.40312 0.85256 0.14387 0.0
C794 C 0.42086 0.84705 0.15337 0.0
C795 C 0.41337 0.8282 0.16878 0.0
H796 H 0.56089 0.45414 0.23208 0.0
H797 H 0.48533 0.39452 0.24459 0.0
H798 H 0.57661 0.44493 0.26595 0.0
H799 H 0.50091 0.38558 0.27911 0.0
H800 H 0.60046 0.43207 0.33176 0.0
H801 H 0.57857 0.44455 0.30539 0.0
H802 H 0.52544 0.36708 0.28831 0.0
H803 H 0.54688 0.35474 0.31543 0.0
C804 C 0.54749 0.43952 0.24248 0.0
C805 C 0.5219 0.425 0.23565 0.0
C806 C 0.55648 0.43423 0.262 0.0
C807 C 0.54006 0.4144 0.27531 0.0
C808 C 0.51417 0.40069 0.26907 0.0
C809 C 0.50521 0.40585 0.24937 0.0
C810 C 0.58396 0.41773 0.32256 0.0
C811 C 0.57568 0.39244 0.32533 0.0
C812 C 0.5714 0.42487 0.30738 0.0
C813 C 0.55051 0.40687 0.29433 0.0
C814 C 0.54132 0.38151 0.29815 0.0
C815 C 0.55368 0.37439 0.31363 0.0
H816 H 0.4458 0.90333 0.35563 0.0
H817 H 0.46689 0.85209 0.38263 0.0
H818 H 0.43045 0.87761 0.32095 0.0
H819 H 0.4529 0.8275 0.34751 0.0
H820 H 0.45635 0.81512 0.26928 0.0
H821 H 0.46891 0.83868 0.3052 0.0
H822 H 0.39432 0.82935 0.31016 0.0
H823 H 0.38142 0.80519 0.27438 0.0
C824 C 0.44711 0.88664 0.35431 0.0
C825 C 0.45784 0.88001 0.37201 0.0
C826 C 0.43839 0.87199 0.33441 0.0
C827 C 0.44062 0.85071 0.33165 0.0
C828 C 0.45123 0.844 0.34921 0.0
C829 C 0.45948 0.8583 0.36924 0.0
C830 C 0.44256 0.81793 0.2781 0.0
C831 C 0.41789 0.80829 0.26908 0.0
C832 C 0.44975 0.83135 0.29863 0.0
C833 C 0.43258 0.83584 0.31028 0.0
C834 C 0.40789 0.82619 0.30136 0.0
C835 C 0.4005 0.81226 0.28103 0.0
H836 H 0.56736 0.46357 0.51476 0.0
H837 H 0.61839 0.44075 0.54112 0.0
H838 H 0.57086 0.44929 0.47709 0.0
H839 H 0.62225 0.42688 0.50342 0.0
H840 H 0.6064 0.38593 0.43468 0.0
H841 H 0.59754 0.39528 0.47248 0.0
H842 H 0.60575 0.46441 0.45004 0.0
H843 H 0.61443 0.45516 0.41244 0.0
C844 C 0.5791 0.45527 0.51253 0.0
C845 C 0.59274 0.45344 0.53084 0.0
C846 C 0.58126 0.44727 0.49097 0.0
C847 C 0.59692 0.43708 0.48731 0.0
C848 C 0.6099 0.43449 0.50574 0.0
C849 C 0.6079 0.44267 0.52727 0.0
C850 C 0.60616 0.40305 0.43779 0.0
C851 C 0.61125 0.41985 0.42054 0.0
C852 C 0.60118 0.40843 0.45945 0.0
C853 C 0.60091 0.43056 0.46419 0.0
C854 C 0.60551 0.44707 0.44684 0.0
C855 C 0.6107 0.44183 0.42531 0.0
H856 H 0.12065 0.62148 0.69577 0.0
H857 H 0.17154 0.60438 0.7318 0.0
H858 H 0.14588 0.62913 0.6621 0.0
H859 H 0.19633 0.61175 0.69847 0.0
H860 H 0.22193 0.60178 0.63207 0.0
H861 H 0.19121 0.59181 0.66116 0.0
H862 H 0.18949 0.65906 0.64864 0.0
H863 H 0.21999 0.66885 0.61894 0.0
C864 C 0.13721 0.61943 0.69652 0.0
C865 C 0.14388 0.61196 0.71633 0.0
C866 C 0.15159 0.62376 0.67728 0.0
C867 C 0.1728 0.62061 0.67756 0.0
C868 C 0.17968 0.61365 0.69752 0.0
C869 C 0.16545 0.60943 0.71664 0.0
C870 C 0.21469 0.61424 0.63512 0.0
C871 C 0.22359 0.63622 0.62329 0.0
C872 C 0.1972 0.6086 0.65194 0.0
C873 C 0.18829 0.62488 0.65744 0.0
C874 C 0.196 0.64614 0.64474 0.0
C875 C 0.21353 0.65178 0.6278 0.0
H876 H 0.50658 0.11567 0.86801 0.0
H877 H 0.57845 0.16695 0.90107 0.0
H878 H 0.52274 0.13592 0.83246 0.0
H879 H 0.59453 0.18673 0.86572 0.0
H880 H 0.55297 0.2062 0.7869 0.0
H881 H 0.53497 0.17744 0.81748 0.0
H882 H 0.60626 0.18 0.82812 0.0
H883 H 0.62439 0.20906 0.79804 0.0
C884 C 0.52584 0.13113 0.86769 0.0
C885 C 0.54121 0.13968 0.88742 0.0
C886 C 0.53507 0.14266 0.84733 0.0
C887 C 0.55991 0.16284 0.84628 0.0
C888 C 0.57547 0.1709 0.86586 0.0
C889 C 0.56623 0.15951 0.88617 0.0
C890 C 0.56464 0.20024 0.79548 0.0
C891 C 0.59019 0.21015 0.7902 0.0
C892 C 0.55429 0.18367 0.81293 0.0
C893 C 0.56933 0.17675 0.82539 0.0
C894 C 0.59435 0.18536 0.81907 0.0
C895 C 0.60468 0.20191 0.8017 0.0
H896 H 0.42672 0.60835 0.03757 0.0
H897 H 0.39535 0.53394 0.00898 0.0
H898 H 0.4188 0.62229 0.00193 0.0
H899 H 0.38886 0.54786 0.97291 0.0
H900 H 0.35388 0.57099 0.91907 0.0
H901 H 0.3626 0.55895 0.95505 0.0
H902 H 0.42951 0.63179 0.9647 0.0
H903 H 0.41966 0.64422 0.92912 0.0
C904 C 0.41857 0.59514 0.02342 0.0
C905 C 0.41152 0.57012 0.02589 0.0
C906 C 0.41412 0.60308 0.00296 0.0
C907 C 0.40292 0.5862 0.98442 0.0
C908 C 0.39681 0.56131 0.98687 0.0
C909 C 0.40076 0.55331 0.00744 0.0
C910 C 0.37039 0.58446 0.92895 0.0
C911 C 0.38613 0.60851 0.92127 0.0
C912 C 0.37559 0.57749 0.94954 0.0
C913 C 0.39704 0.59421 0.96281 0.0
C914 C 0.41266 0.61844 0.95517 0.0
C915 C 0.40711 0.62559 0.93472 0.0
H916 H 0.84951 0.42128 0.22416 0.0
H917 H 0.88479 0.49141 0.19071 0.0
H918 H 0.82304 0.40074 0.19059 0.0
H919 H 0.85744 0.47089 0.15764 0.0
H920 H 0.78375 0.42945 0.11374 0.0
H921 H 0.80925 0.44876 0.14818 0.0
H922 H 0.82992 0.39189 0.14932 0.0
H923 H 0.8047 0.37268 0.11477 0.0
C924 C 0.85186 0.43234 0.20967 0.0
C925 C 0.86941 0.45811 0.21029 0.0
C926 C 0.83652 0.42054 0.19049 0.0
C927 C 0.83806 0.43427 0.17161 0.0
C928 C 0.85558 0.45994 0.17211 0.0
C929 C 0.8712 0.47168 0.19113 0.0
C930 C 0.79352 0.42092 0.12144 0.0
C931 C 0.79224 0.39955 0.11148 0.0
C932 C 0.80826 0.43208 0.14105 0.0
C933 C 0.82164 0.42188 0.15132 0.0
C934 C 0.81972 0.40009 0.14179 0.0
C935 C 0.80535 0.38916 0.12198 0.0
loop_
_geom_bond_atom_site_label_1
_geom_bond_atom_site_label_2
_geom_bond_distance
_geom_bond_site_symmetry_2
_ccdc_geom_bond_type
H0 C27 0.929 . S
N1 C26 1.433 . S
N1 C32 1.435 . S
N1 C38 1.423 . S
H2 C28 0.930 . S
H3 C31 0.931 . S
H4 C30 0.929 . S
H5 C33 0.930 . S
H6 C34 0.932 . S
H7 C37 0.929 . S
H8 C36 0.931 . S
H9 C39 0.929 . S
H10 C43 0.932 . S
H11 C40 0.931 . S
H12 C42 0.929 . S
H13 C45 0.929 . S
H14 C46 0.930 . S
H15 C48 0.929 . S
H16 C49 0.931 . S
H17 C51 0.930 . S
H18 C52 0.932 . S
H19 C54 0.931 . S
H20 C55 0.929 . S
H21 C57 0.929 . S
H22 C58 0.931 . S
H23 C60 0.929 . S
N24 C44 1.433 . S
N24 C50 1.435 . S
N24 C56 1.423 . S
H25 C61 0.932 . S
C26 N1 1.433 . S
C26 C27 1.363 . S
C26 C31 1.370 . S
C27 H0 0.929 . S
C27 C26 1.363 . S
C27 C28 1.385 . S
C28 H2 0.930 . S
C28 C27 1.385 . S
C28 C29 1.357 . S
C29 C28 1.357 . S
C29 C30 1.406 . S
C30 H4 0.929 . S
C30 C29 1.406 . S
C30 C31 1.391 . S
C31 H3 0.931 . S
C31 C26 1.370 . S
C31 C30 1.391 . S
C32 N1 1.435 . S
C32 C33 1.358 . S
C32 C37 1.371 . S
C33 H5 0.930 . S
C33 C32 1.358 . S
C33 C34 1.405 . S
C34 H6 0.932 . S
C34 C33 1.405 . S
C34 C35 1.383 . S
C35 C34 1.383 . S
C35 C36 1.393 . S
C36 H8 0.931 . S
C36 C35 1.393 . S
C36 C37 1.382 . S
C37 H7 0.929 . S
C37 C32 1.371 . S
C37 C36 1.382 . S
C38 N1 1.423 . S
C38 C39 1.362 . S
C38 C43 1.388 . S
C39 H9 0.929 . S
C39 C38 1.362 . S
C39 C40 1.376 . S
C40 H11 0.931 . S
C40 C39 1.376 . S
C40 C41 1.396 . S
C41 C40 1.396 . S
C41 C42 1.348 . S
C41 C59 1.472 1_455 S
C42 H12 0.929 . S
C42 C41 1.348 . S
C42 C43 1.443 . S
C43 H10 0.932 . S
C43 C38 1.388 . S
C43 C42 1.443 . S
C44 N24 1.433 . S
C44 C45 1.363 . S
C44 C49 1.370 . S
C45 H13 0.929 . S
C45 C44 1.363 . S
C45 C46 1.385 . S
C46 H14 0.930 . S
C46 C45 1.385 . S
C46 C47 1.357 . S
C47 C46 1.357 . S
C47 C48 1.406 . S
C48 H15 0.929 . S
C48 C47 1.406 . S
C48 C49 1.391 . S
C49 H16 0.931 . S
C49 C44 1.370 . S
C49 C48 1.391 . S
C50 N24 1.435 . S
C50 C51 1.358 . S
C50 C55 1.371 . S
C51 H17 0.930 . S
C51 C50 1.358 . S
C51 C52 1.405 . S
C52 H18 0.932 . S
C52 C51 1.405 . S
C52 C53 1.383 . S
C53 C52 1.383 . S
C53 C54 1.393 . S
C54 H19 0.931 . S
C54 C53 1.393 . S
C54 C55 1.382 . S
C55 H20 0.929 . S
C55 C50 1.371 . S
C55 C54 1.382 . S
C56 N24 1.423 . S
C56 C57 1.362 . S
C56 C61 1.388 . S
C57 H21 0.929 . S
C57 C56 1.362 . S
C57 C58 1.376 . S
C58 H22 0.931 . S
C58 C57 1.376 . S
C58 C59 1.396 . S
C59 C41 1.472 1_655 S
C59 C58 1.396 . S
C59 C60 1.348 . S
C60 H23 0.929 . S
C60 C59 1.348 . S
C60 C61 1.443 . S
C61 H25 0.932 . S
C61 C56 1.388 . S
C61 C60 1.443 . S
H62 C89 0.929 . S
N63 C88 1.433 . S
N63 C94 1.435 . S
N63 C100 1.423 . S
H64 C90 0.930 . S
H65 C93 0.931 . S
H66 C92 0.929 . S
H67 C95 0.930 . S
H68 C96 0.932 . S
H69 C99 0.929 . S
H70 C98 0.931 . S
H71 C101 0.929 . S
H72 C105 0.932 . S
H73 C102 0.931 . S
H74 C104 0.929 1_545 S
H75 C107 0.929 . S
H76 C108 0.930 . S
H77 C110 0.929 . S
H78 C111 0.931 . S
H79 C113 0.930 . S
H80 C114 0.932 . S
H81 C116 0.931 . S
H82 C117 0.929 . S
H83 C119 0.929 . S
H84 C120 0.931 . S
H85 C122 0.929 . S
N86 C106 1.433 . S
N86 C112 1.435 . S
N86 C118 1.423 . S
H87 C123 0.932 . S
C88 N63 1.433 . S
C88 C89 1.363 . S
C88 C93 1.370 . S
C89 H62 0.929 . S
C89 C88 1.363 . S
C89 C90 1.385 . S
C90 H64 0.930 . S
C90 C89 1.385 . S
C90 C91 1.357 . S
C91 C90 1.357 . S
C91 C92 1.406 . S
C92 H66 0.929 . S
C92 C91 1.406 . S
C92 C93 1.391 . S
C93 H65 0.931 . S
C93 C88 1.370 . S
C93 C92 1.391 . S
C94 N63 1.435 . S
C94 C95 1.358 . S
C94 C99 1.371 . S
C95 H67 0.930 . S
C95 C94 1.358 . S
C95 C96 1.405 . S
C96 H68 0.932 . S
C96 C95 1.405 . S
C96 C97 1.383 . S
C97 C96 1.383 . S
C97 C98 1.393 . S
C98 H70 0.931 . S
C98 C97 1.393 . S
C98 C99 1.382 . S
C99 H69 0.929 . S
C99 C94 1.371 . S
C99 C98 1.382 . S
C100 N63 1.423 . S
C100 C101 1.362 . S
C100 C105 1.388 . S
C101 H71 0.929 . S
C101 C100 1.362 . S
C101 C102 1.376 . S
C102 H73 0.931 . S
C102 C101 1.376 . S
C102 C103 1.396 1_565 S
C103 C102 1.396 1_545 S
C103 C104 1.348 1_545 S
C103 C121 1.472 . S
C104 H74 0.929 1_565 S
C104 C103 1.348 1_565 S
C104 C105 1.443 . S
C105 H72 0.932 . S
C105 C100 1.388 . S
C105 C104 1.443 . S
C106 N86 1.433 . S
C106 C107 1.363 . S
C106 C111 1.370 . S
C107 H75 0.929 . S
C107 C106 1.363 . S
C107 C108 1.385 . S
C108 H76 0.930 . S
C108 C107 1.385 . S
C108 C109 1.357 . S
C109 C108 1.357 . S
C109 C110 1.406 . S
C110 H77 0.929 . S
C110 C109 1.406 . S
C110 C111 1.391 . S
C111 H78 0.931 . S
C111 C106 1.370 . S
C111 C110 1.391 . S
C112 N86 1.435 . S
C112 C113 1.358 . S
C112 C117 1.371 . S
C113 H79 0.930 . S
C113 C112 1.358 . S
C113 C114 1.405 . S
C114 H80 0.932 . S
C114 C113 1.405 . S
C114 C115 1.383 . S
C115 C114 1.383 . S
C115 C116 1.393 . S
C116 H81 0.931 . S
C116 C115 1.393 . S
C116 C117 1.382 . S
C117 H82 0.929 . S
C117 C112 1.371 . S
C117 C116 1.382 . S
C118 N86 1.423 . S
C118 C119 1.362 . S
C118 C123 1.388 . S
C119 H83 0.929 . S
C119 C118 1.362 . S
C119 C120 1.376 . S
C120 H84 0.931 . S
C120 C119 1.376 . S
C120 C121 1.396 . S
C121 C103 1.472 . S
C121 C120 1.396 . S
C121 C122 1.348 . S
C122 H85 0.929 . S
C122 C121 1.348 . S
C122 C123 1.443 . S
C123 H87 0.932 . S
C123 C118 1.388 . S
C123 C122 1.443 . S
H124 C151 0.929 . S
N125 C150 1.433 . S
N125 C156 1.435 . S
N125 C162 1.423 . S
H126 C152 0.930 . S
H127 C155 0.931 . S
H128 C154 0.929 . S
H129 C157 0.930 . S
H130 C158 0.932 . S
H131 C161 0.929 . S
H132 C160 0.931 . S
H133 C163 0.929 . S
H134 C167 0.932 . S
H135 C164 0.931 . S
H136 C166 0.929 . S
H137 C169 0.929 . S
H138 C170 0.930 . S
H139 C172 0.929 . S
H140 C173 0.931 . S
H141 C175 0.930 . S
H142 C176 0.932 . S
H143 C178 0.931 . S
H144 C179 0.929 . S
H145 C181 0.929 . S
H146 C182 0.931 . S
H147 C184 0.929 . S
N148 C168 1.433 . S
N148 C174 1.435 . S
N148 C180 1.423 . S
H149 C185 0.932 . S
C150 N125 1.433 . S
C150 C151 1.363 . S
C150 C155 1.370 . S
C151 H124 0.929 . S
C151 C150 1.363 . S
C151 C152 1.385 . S
C152 H126 0.930 . S
C152 C151 1.385 . S
C152 C153 1.357 . S
C153 C152 1.357 . S
C153 C154 1.406 . S
C154 H128 0.929 . S
C154 C153 1.406 . S
C154 C155 1.391 . S
C155 H127 0.931 . S
C155 C150 1.370 . S
C155 C154 1.391 . S
C156 N125 1.435 . S
C156 C157 1.358 . S
C156 C161 1.371 . S
C157 H129 0.930 . S
C157 C156 1.358 . S
C157 C158 1.405 . S
C158 H130 0.932 . S
C158 C157 1.405 . S
C158 C159 1.383 . S
C159 C158 1.383 . S
C159 C160 1.393 . S
C160 H132 0.931 . S
C160 C159 1.393 . S
C160 C161 1.382 . S
C161 H131 0.929 . S
C161 C156 1.371 . S
C161 C160 1.382 . S
C162 N125 1.423 . S
C162 C163 1.362 . S
C162 C167 1.388 . S
C163 H133 0.929 . S
C163 C162 1.362 . S
C163 C164 1.376 . S
C164 H135 0.931 . S
C164 C163 1.376 . S
C164 C165 1.396 . S
C165 C164 1.396 . S
C165 C166 1.348 . S
C165 C183 1.472 . S
C166 H136 0.929 . S
C166 C165 1.348 . S
C166 C167 1.443 . S
C167 H134 0.932 . S
C167 C162 1.388 . S
C167 C166 1.443 . S
C168 N148 1.433 . S
C168 C169 1.363 . S
C168 C173 1.370 . S
C169 H137 0.929 . S
C169 C168 1.363 . S
C169 C170 1.385 . S
C170 H138 0.930 . S
C170 C169 1.385 . S
C170 C171 1.357 . S
C171 C170 1.357 . S
C171 C172 1.406 . S
C172 H139 0.929 . S
C172 C171 1.406 . S
C172 C173 1.391 . S
C173 H140 0.931 . S
C173 C168 1.370 . S
C173 C172 1.391 . S
C174 N148 1.435 . S
C174 C175 1.358 . S
C174 C179 1.371 . S
C175 H141 0.930 . S
C175 C174 1.358 . S
C175 C176 1.405 . S
C176 H142 0.932 . S
C176 C175 1.405 . S
C176 C177 1.383 . S
C177 C176 1.383 . S
C177 C178 1.393 . S
C178 H143 0.931 . S
C178 C177 1.393 . S
C178 C179 1.382 . S
C179 H144 0.929 . S
C179 C174 1.371 . S
C179 C178 1.382 . S
C180 N148 1.423 . S
C180 C181 1.362 . S
C180 C185 1.388 . S
C181 H145 0.929 . S
C181 C180 1.362 . S
C181 C182 1.376 . S
C182 H146 0.931 . S
C182 C181 1.376 . S
C182 C183 1.396 . S
C183 C165 1.472 . S
C183 C182 1.396 . S
C183 C184 1.348 . S
C184 H147 0.929 . S
C184 C183 1.348 . S
C184 C185 1.443 . S
C185 H149 0.932 . S
C185 C180 1.388 . S
C185 C184 1.443 . S
H186 C213 0.929 . S
N187 C212 1.433 . S
N187 C218 1.435 . S
N187 C224 1.423 . S
H188 C214 0.930 . S
H189 C217 0.931 . S
H190 C216 0.929 . S
H191 C219 0.930 . S
H192 C220 0.932 . S
H193 C223 0.929 . S
H194 C222 0.931 . S
H195 C225 0.929 . S
H196 C229 0.932 . S
H197 C226 0.931 . S
H198 C228 0.929 . S
H199 C231 0.929 . S
H200 C232 0.930 . S
H201 C234 0.929 . S
H202 C235 0.931 . S
H203 C237 0.930 . S
H204 C238 0.932 . S
H205 C240 0.931 . S
H206 C241 0.929 . S
H207 C243 0.929 . S
H208 C244 0.931 . S
H209 C246 0.929 . S
N210 C230 1.433 . S
N210 C236 1.435 . S
N210 C242 1.423 . S
H211 C247 0.932 . S
C212 N187 1.433 . S
C212 C213 1.363 . S
C212 C217 1.370 . S
C213 H186 0.929 . S
C213 C212 1.363 . S
C213 C214 1.385 . S
C214 H188 0.930 . S
C214 C213 1.385 . S
C214 C215 1.357 . S
C215 C214 1.357 . S
C215 C216 1.406 . S
C216 H190 0.929 . S
C216 C215 1.406 . S
C216 C217 1.391 . S
C217 H189 0.931 . S
C217 C212 1.370 . S
C217 C216 1.391 . S
C218 N187 1.435 . S
C218 C219 1.358 . S
C218 C223 1.371 . S
C219 H191 0.930 . S
C219 C218 1.358 . S
C219 C220 1.405 . S
C220 H192 0.932 . S
C220 C219 1.405 . S
C220 C221 1.383 . S
C221 C220 1.383 . S
C221 C222 1.393 . S
C222 H194 0.931 . S
C222 C221 1.393 . S
C222 C223 1.382 . S
C223 H193 0.929 . S
C223 C218 1.371 . S
C223 C222 1.382 . S
C224 N187 1.423 . S
C224 C225 1.362 . S
C224 C229 1.388 . S
C225 H195 0.929 . S
C225 C224 1.362 . S
C225 C226 1.376 . S
C226 H197 0.931 . S
C226 C225 1.376 . S
C226 C227 1.396 . S
C227 C226 1.396 . S
C227 C228 1.348 . S
C227 C245 1.472 1_455 S
C228 H198 0.929 . S
C228 C227 1.348 . S
C228 C229 1.443 . S
C229 H196 0.932 . S
C229 C224 1.388 . S
C229 C228 1.443 . S
C230 N210 1.433 . S
C230 C231 1.363 . S
C230 C235 1.370 . S
C231 H199 0.929 . S
C231 C230 1.363 . S
C231 C232 1.385 . S
C232 H200 0.930 . S
C232 C231 1.385 . S
C232 C233 1.357 . S
C233 C232 1.357 . S
C233 C234 1.406 . S
C234 H201 0.929 . S
C234 C233 1.406 . S
C234 C235 1.391 . S
C235 H202 0.931 . S
C235 C230 1.370 . S
C235 C234 1.391 . S
C236 N210 1.435 . S
C236 C237 1.358 . S
C236 C241 1.371 . S
C237 H203 0.930 . S
C237 C236 1.358 . S
C237 C238 1.405 . S
C238 H204 0.932 . S
C238 C237 1.405 . S
C238 C239 1.383 . S
C239 C238 1.383 . S
C239 C240 1.393 . S
C240 H205 0.931 . S
C240 C239 1.393 . S
C240 C241 1.382 . S
C241 H206 0.929 . S
C241 C236 1.371 . S
C241 C240 1.382 . S
C242 N210 1.423 . S
C242 C243 1.362 . S
C242 C247 1.388 . S
C243 H207 0.929 . S
C243 C242 1.362 . S
C243 C244 1.376 . S
C244 H208 0.931 . S
C244 C243 1.376 . S
C244 C245 1.396 . S
C245 C227 1.472 1_655 S
C245 C244 1.396 . S
C245 C246 1.348 . S
C246 H209 0.929 . S
C246 C245 1.348 . S
C246 C247 1.443 . S
C247 H211 0.932 . S
C247 C242 1.388 . S
C247 C246 1.443 . S
H248 C275 0.929 . S
N249 C274 1.433 . S
N249 C280 1.435 . S
N249 C286 1.423 . S
H250 C276 0.930 . S
H251 C279 0.931 . S
H252 C278 0.929 . S
H253 C281 0.930 . S
H254 C282 0.932 . S
H255 C285 0.929 . S
H256 C284 0.931 . S
H257 C287 0.929 . S
H258 C291 0.932 . S
H259 C288 0.931 . S
H260 C290 0.929 . S
H261 C293 0.929 . S
H262 C294 0.930 . S
H263 C296 0.929 . S
H264 C297 0.931 . S
H265 C299 0.930 1_554 S
H266 C300 0.932 . S
H267 C302 0.931 . S
H268 C303 0.929 . S
H269 C305 0.929 . S
H270 C306 0.931 1_544 S
H271 C308 0.929 . S
N272 C292 1.433 . S
N272 C298 1.435 1_554 S
N272 C304 1.423 1_554 S
H273 C309 0.932 . S
C274 N249 1.433 . S
C274 C275 1.363 . S
C274 C279 1.370 . S
C275 H248 0.929 . S
C275 C274 1.363 . S
C275 C276 1.385 . S
C276 H250 0.930 . S
C276 C275 1.385 . S
C276 C277 1.357 1_556 S
C277 C276 1.357 1_554 S
C277 C278 1.406 . S
C278 H252 0.929 . S
C278 C277 1.406 . S
C278 C279 1.391 1_554 S
C279 H251 0.931 . S
C279 C274 1.370 . S
C279 C278 1.391 1_556 S
C280 N249 1.435 . S
C280 C281 1.358 . S
C280 C285 1.371 . S
C281 H253 0.930 . S
C281 C280 1.358 . S
C281 C282 1.405 . S
C282 H254 0.932 . S
C282 C281 1.405 . S
C282 C283 1.383 . S
C283 C282 1.383 . S
C283 C284 1.393 . S
C284 H256 0.931 . S
C284 C283 1.393 . S
C284 C285 1.382 . S
C285 H255 0.929 . S
C285 C280 1.371 . S
C285 C284 1.382 . S
C286 N249 1.423 . S
C286 C287 1.362 . S
C286 C291 1.388 . S
C287 H257 0.929 . S
C287 C286 1.362 . S
C287 C288 1.376 . S
C288 H259 0.931 . S
C288 C287 1.376 . S
C288 C289 1.396 . S
C289 C288 1.396 . S
C289 C290 1.348 . S
C289 C307 1.472 . S
C290 H260 0.929 . S
C290 C289 1.348 . S
C290 C291 1.443 . S
C291 H258 0.932 . S
C291 C286 1.388 . S
C291 C290 1.443 . S
C292 N272 1.433 . S
C292 C293 1.363 . S
C292 C297 1.370 . S
C293 H261 0.929 . S
C293 C292 1.363 . S
C293 C294 1.385 . S
C294 H262 0.930 . S
C294 C293 1.385 . S
C294 C295 1.357 . S
C295 C294 1.357 . S
C295 C296 1.406 . S
C296 H263 0.929 . S
C296 C295 1.406 . S
C296 C297 1.391 . S
C297 H264 0.931 . S
C297 C292 1.370 . S
C297 C296 1.391 . S
C298 N272 1.435 1_556 S
C298 C299 1.358 . S
C298 C303 1.371 . S
C299 H265 0.930 1_556 S
C299 C298 1.358 . S
C299 C300 1.405 . S
C300 H266 0.932 . S
C300 C299 1.405 . S
C300 C301 1.383 . S
C301 C300 1.383 . S
C301 C302 1.393 . S
C302 H267 0.931 . S
C302 C301 1.393 . S
C302 C303 1.382 . S
C303 H268 0.929 . S
C303 C298 1.371 . S
C303 C302 1.382 . S
C304 N272 1.423 1_556 S
C304 C305 1.362 1_556 S
C304 C309 1.388 . S
C305 H269 0.929 . S
C305 C304 1.362 1_554 S
C305 C306 1.376 1_554 S
C306 H270 0.931 1_566 S
C306 C305 1.376 1_556 S
C306 C307 1.396 1_565 S
C307 C289 1.472 . S
C307 C306 1.396 1_545 S
C307 C308 1.348 1_545 S
C308 H271 0.929 . S
C308 C307 1.348 1_565 S
C308 C309 1.443 . S
C309 H273 0.932 . S
C309 C304 1.388 . S
C309 C308 1.443 . S
H310 C337 0.929 . S
N311 C336 1.433 . S
N311 C342 1.435 . S
N311 C348 1.423 . S
H312 C338 0.930 . S
H313 C341 0.931 . S
H314 C340 0.929 . S
H315 C343 0.930 . S
H316 C344 0.932 . S
H317 C347 0.929 . S
H318 C346 0.931 . S
H319 C349 0.929 . S
H320 C353 0.932 . S
H321 C350 0.931 . S
H322 C352 0.929 . S
H323 C355 0.929 . S
H324 C356 0.930 . S
H325 C358 0.929 . S
H326 C359 0.931 . S
H327 C361 0.930 . S
H328 C362 0.932 . S
H329 C364 0.931 . S
H330 C365 0.929 . S
H331 C367 0.929 . S
H332 C368 0.931 . S
H333 C370 0.929 . S
N334 C354 1.433 . S
N334 C360 1.435 . S
N334 C366 1.423 . S
H335 C371 0.932 . S
C336 N311 1.433 . S
C336 C337 1.363 . S
C336 C341 1.370 . S
C337 H310 0.929 . S
C337 C336 1.363 . S
C337 C338 1.385 . S
C338 H312 0.930 . S
C338 C337 1.385 . S
C338 C339 1.357 . S
C339 C338 1.357 . S
C339 C340 1.406 . S
C340 H314 0.929 . S
C340 C339 1.406 . S
C340 C341 1.391 . S
C341 H313 0.931 . S
C341 C336 1.370 . S
C341 C340 1.391 . S
C342 N311 1.435 . S
C342 C343 1.358 . S
C342 C347 1.371 . S
C343 H315 0.930 . S
C343 C342 1.358 . S
C343 C344 1.405 . S
C344 H316 0.932 . S
C344 C343 1.405 . S
C344 C345 1.383 . S
C345 C344 1.383 . S
C345 C346 1.393 . S
C346 H318 0.931 . S
C346 C345 1.393 . S
C346 C347 1.382 . S
C347 H317 0.929 . S
C347 C342 1.371 . S
C347 C346 1.382 . S
C348 N311 1.423 . S
C348 C349 1.362 . S
C348 C353 1.388 . S
C349 H319 0.929 . S
C349 C348 1.362 . S
C349 C350 1.376 . S
C350 H321 0.931 . S
C350 C349 1.376 . S
C350 C351 1.396 . S
C351 C350 1.396 . S
C351 C352 1.348 . S
C351 C369 1.472 . S
C352 H322 0.929 . S
C352 C351 1.348 . S
C352 C353 1.443 . S
C353 H320 0.932 . S
C353 C348 1.388 . S
C353 C352 1.443 . S
C354 N334 1.433 . S
C354 C355 1.363 . S
C354 C359 1.370 . S
C355 H323 0.929 . S
C355 C354 1.363 . S
C355 C356 1.385 . S
C356 H324 0.930 . S
C356 C355 1.385 . S
C356 C357 1.357 . S
C357 C356 1.357 . S
C357 C358 1.406 . S
C358 H325 0.929 . S
C358 C357 1.406 . S
C358 C359 1.391 . S
C359 H326 0.931 . S
C359 C354 1.370 . S
C359 C358 1.391 . S
C360 N334 1.435 . S
C360 C361 1.358 . S
C360 C365 1.371 . S
C361 H327 0.930 . S
C361 C360 1.358 . S
C361 C362 1.405 . S
C362 H328 0.932 . S
C362 C361 1.405 . S
C362 C363 1.383 . S
C363 C362 1.383 . S
C363 C364 1.393 . S
C364 H329 0.931 . S
C364 C363 1.393 . S
C364 C365 1.382 . S
C365 H330 0.929 . S
C365 C360 1.371 . S
C365 C364 1.382 . S
C366 N334 1.423 . S
C366 C367 1.362 . S
C366 C371 1.388 . S
C367 H331 0.929 . S
C367 C366 1.362 . S
C367 C368 1.376 . S
C368 H332 0.931 . S
C368 C367 1.376 . S
C368 C369 1.396 . S
C369 C351 1.472 . S
C369 C368 1.396 . S
C369 C370 1.348 . S
C370 H333 0.929 . S
C370 C369 1.348 . S
C370 C371 1.443 . S
C371 H335 0.932 . S
C371 C366 1.388 . S
C371 C370 1.443 . S
Mg372 O373 2.028 . S
Mg372 O379 1.986 . S
Mg372 O381 2.114 . S
Mg372 O382 2.251 . S
Mg372 O385 2.010 . S
O373 Mg372 2.028 . S
O373 C376 1.250 . S
O374 Mg375 2.028 . S
O374 C376 1.248 . S
Mg375 O374 2.028 . S
Mg375 O380 2.032 . S
Mg375 O382 2.079 . S
C376 O373 1.250 . S
C376 O374 1.248 . S
C377 O378 1.264 . S
C377 O385 1.249 . S
O378 C377 1.264 . S
O379 Mg372 1.986 . S
O379 C383 1.246 . S
O380 Mg375 2.032 . S
O380 C383 1.259 . S
O381 Mg372 2.114 . S
O381 C384 1.252 . S
O382 Mg372 2.251 . S
O382 Mg375 2.079 . S
O382 C384 1.273 . S
C383 O379 1.246 . S
C383 O380 1.259 . S
C384 O381 1.252 . S
C384 O382 1.273 . S
O385 Mg372 2.010 . S
O385 C377 1.249 . S
Mg386 O387 2.028 . S
Mg386 O393 1.986 . S
Mg386 O395 2.114 . S
Mg386 O396 2.251 . S
Mg386 O399 2.010 . S
O387 Mg386 2.028 . S
O387 C390 1.250 . S
O388 Mg389 2.028 . S
O388 C390 1.248 . S
Mg389 O388 2.028 . S
Mg389 O394 2.032 . S
Mg389 O396 2.079 . S
C390 O387 1.250 . S
C390 O388 1.248 . S
C391 O392 1.264 . S
C391 O399 1.249 . S
O392 C391 1.264 . S
O393 Mg386 1.986 . S
O393 C397 1.246 . S
O394 Mg389 2.032 . S
O394 C397 1.259 . S
O395 Mg386 2.114 . S
O395 C398 1.252 . S
O396 Mg386 2.251 . S
O396 Mg389 2.079 . S
O396 C398 1.273 . S
C397 O393 1.246 . S
C397 O394 1.259 . S
C398 O395 1.252 . S
C398 O396 1.273 . S
O399 Mg386 2.010 . S
O399 C391 1.249 . S
Mg400 O401 2.028 . S
Mg400 O407 1.986 . S
Mg400 O409 2.114 . S
Mg400 O410 2.251 . S
Mg400 O413 2.010 . S
O401 Mg400 2.028 . S
O401 C404 1.250 . S
O402 Mg403 2.028 . S
O402 C404 1.248 . S
Mg403 O402 2.028 . S
Mg403 O408 2.032 . S
Mg403 O410 2.079 . S
C404 O401 1.250 . S
C404 O402 1.248 . S
C405 O406 1.264 . S
C405 O413 1.249 . S
O406 C405 1.264 . S
O407 Mg400 1.986 . S
O407 C411 1.246 . S
O408 Mg403 2.032 . S
O408 C411 1.259 . S
O409 Mg400 2.114 . S
O409 C412 1.252 . S
O410 Mg400 2.251 . S
O410 Mg403 2.079 . S
O410 C412 1.273 . S
C411 O407 1.246 . S
C411 O408 1.259 . S
C412 O409 1.252 . S
C412 O410 1.273 . S
O413 Mg400 2.010 . S
O413 C405 1.249 . S
Mg414 O415 2.028 . S
Mg414 O421 1.986 . S
Mg414 O423 2.114 . S
Mg414 O424 2.251 . S
Mg414 O427 2.010 . S
O415 Mg414 2.028 . S
O415 C418 1.250 . S
O416 Mg417 2.028 . S
O416 C418 1.248 . S
Mg417 O416 2.028 . S
Mg417 O422 2.032 . S
Mg417 O424 2.079 . S
C418 O415 1.250 . S
C418 O416 1.248 . S
C419 O420 1.264 . S
C419 O427 1.249 . S
O420 C419 1.264 . S
O421 Mg414 1.986 . S
O421 C425 1.246 . S
O422 Mg417 2.032 . S
O422 C425 1.259 . S
O423 Mg414 2.114 . S
O423 C426 1.252 . S
O424 Mg414 2.251 . S
O424 Mg417 2.079 . S
O424 C426 1.273 . S
C425 O421 1.246 . S
C425 O422 1.259 . S
C426 O423 1.252 . S
C426 O424 1.273 . S
O427 Mg414 2.010 . S
O427 C419 1.249 . S
Mg428 O429 2.028 . S
Mg428 O435 1.986 . S
Mg428 O437 2.114 . S
Mg428 O438 2.251 . S
Mg428 O441 2.010 . S
O429 Mg428 2.028 . S
O429 C432 1.250 . S
O430 Mg431 2.028 . S
O430 C432 1.248 . S
Mg431 O430 2.028 . S
Mg431 O436 2.032 . S
Mg431 O438 2.079 . S
C432 O429 1.250 . S
C432 O430 1.248 . S
C433 O434 1.264 . S
C433 O441 1.249 . S
O434 C433 1.264 . S
O435 Mg428 1.986 . S
O435 C439 1.246 . S
O436 Mg431 2.032 . S
O436 C439 1.259 . S
O437 Mg428 2.114 . S
O437 C440 1.252 . S
O438 Mg428 2.251 . S
O438 Mg431 2.079 . S
O438 C440 1.273 . S
C439 O435 1.246 . S
C439 O436 1.259 . S
C440 O437 1.252 . S
C440 O438 1.273 . S
O441 Mg428 2.010 . S
O441 C433 1.249 . S
Mg442 O443 2.028 . S
Mg442 O449 1.986 . S
Mg442 O451 2.114 . S
Mg442 O452 2.251 . S
Mg442 O455 2.010 . S
O443 Mg442 2.028 . S
O443 C446 1.250 . S
O444 Mg445 2.028 . S
O444 C446 1.248 . S
Mg445 O444 2.028 . S
Mg445 O450 2.032 . S
Mg445 O452 2.079 . S
C446 O443 1.250 . S
C446 O444 1.248 . S
C447 O448 1.264 . S
C447 O455 1.249 . S
O448 C447 1.264 . S
O449 Mg442 1.986 . S
O449 C453 1.246 . S
O450 Mg445 2.032 . S
O450 C453 1.259 . S
O451 Mg442 2.114 . S
O451 C454 1.252 . S
O452 Mg442 2.251 . S
O452 Mg445 2.079 . S
O452 C454 1.273 . S
C453 O449 1.246 . S
C453 O450 1.259 . S
C454 O451 1.252 . S
C454 O452 1.273 . S
O455 Mg442 2.010 . S
O455 C447 1.249 . S
H456 C464 0.950 . S
H457 C469 0.950 . S
H458 C466 0.950 . S
H459 C468 0.950 . S
H460 C470 0.950 . S
H461 C472 0.950 . S
H462 C474 0.950 . S
H463 C475 0.950 . S
C464 H456 0.950 . S
C464 C465 1.386 . S
C464 C466 1.391 . S
C465 C464 1.386 . S
C465 C469 1.393 . S
C466 H458 0.950 . S
C466 C464 1.391 . S
C466 C467 1.400 . S
C467 C466 1.400 . S
C467 C468 1.398 . S
C467 C473 1.491 . S
C468 H459 0.950 . S
C468 C467 1.398 . S
C468 C469 1.391 . S
C469 H457 0.950 . S
C469 C465 1.393 . S
C469 C468 1.391 . S
C470 H460 0.950 . S
C470 C471 1.386 . S
C470 C472 1.391 . S
C471 C470 1.386 . S
C471 C475 1.393 . S
C472 H461 0.950 . S
C472 C470 1.391 . S
C472 C473 1.400 . S
C473 C467 1.491 . S
C473 C472 1.400 . S
C473 C474 1.398 . S
C474 H462 0.950 . S
C474 C473 1.398 . S
C474 C475 1.391 . S
C475 H463 0.950 . S
C475 C471 1.393 . S
C475 C474 1.391 . S
H476 C484 0.950 . S
H477 C489 0.950 . S
H478 C486 0.950 . S
H479 C488 0.950 . S
H480 C490 0.950 . S
H481 C492 0.950 . S
H482 C494 0.950 . S
H483 C495 0.950 . S
C484 H476 0.950 . S
C484 C485 1.386 . S
C484 C486 1.391 . S
C485 C484 1.386 . S
C485 C489 1.393 . S
C486 H478 0.950 . S
C486 C484 1.391 . S
C486 C487 1.400 . S
C487 C486 1.400 . S
C487 C488 1.398 . S
C487 C493 1.491 . S
C488 H479 0.950 . S
C488 C487 1.398 . S
C488 C489 1.391 . S
C489 H477 0.950 . S
C489 C485 1.393 . S
C489 C488 1.391 . S
C490 H480 0.950 . S
C490 C491 1.386 . S
C490 C492 1.391 . S
C491 C490 1.386 . S
C491 C495 1.393 . S
C492 H481 0.950 . S
C492 C490 1.391 . S
C492 C493 1.400 . S
C493 C487 1.491 . S
C493 C492 1.400 . S
C493 C494 1.398 . S
C494 H482 0.950 . S
C494 C493 1.398 . S
C494 C495 1.391 . S
C495 H483 0.950 . S
C495 C491 1.393 . S
C495 C494 1.391 . S
H496 C504 0.950 . S
H497 C509 0.950 . S
H498 C506 0.950 . S
H499 C508 0.950 . S
H500 C510 0.950 . S
H501 C512 0.950 . S
H502 C514 0.950 . S
H503 C515 0.950 . S
C504 H496 0.950 . S
C504 C505 1.386 . S
C504 C506 1.391 . S
C505 C504 1.386 . S
C505 C509 1.393 . S
C506 H498 0.950 . S
C506 C504 1.391 . S
C506 C507 1.400 . S
C507 C506 1.400 . S
C507 C508 1.398 . S
C507 C513 1.491 . S
C508 H499 0.950 . S
C508 C507 1.398 . S
C508 C509 1.391 . S
C509 H497 0.950 . S
C509 C505 1.393 . S
C509 C508 1.391 . S
C510 H500 0.950 . S
C510 C511 1.386 . S
C510 C512 1.391 . S
C511 C510 1.386 . S
C511 C515 1.393 . S
C512 H501 0.950 . S
C512 C510 1.391 . S
C512 C513 1.400 . S
C513 C507 1.491 . S
C513 C512 1.400 . S
C513 C514 1.398 . S
C514 H502 0.950 . S
C514 C513 1.398 . S
C514 C515 1.391 . S
C515 H503 0.950 . S
C515 C511 1.393 . S
C515 C514 1.391 . S
H516 C524 0.950 . S
H517 C529 0.950 . S
H518 C526 0.950 . S
H519 C528 0.950 . S
H520 C530 0.950 . S
H521 C532 0.950 . S
H522 C534 0.950 . S
H523 C535 0.950 . S
C524 H516 0.950 . S
C524 C525 1.386 . S
C524 C526 1.391 . S
C525 C524 1.386 . S
C525 C529 1.393 . S
C526 H518 0.950 . S
C526 C524 1.391 . S
C526 C527 1.400 . S
C527 C526 1.400 . S
C527 C528 1.398 . S
C527 C533 1.491 . S
C528 H519 0.950 . S
C528 C527 1.398 . S
C528 C529 1.391 . S
C529 H517 0.950 . S
C529 C525 1.393 . S
C529 C528 1.391 . S
C530 H520 0.950 . S
C530 C531 1.386 . S
C530 C532 1.391 . S
C531 C530 1.386 . S
C531 C535 1.393 . S
C532 H521 0.950 . S
C532 C530 1.391 . S
C532 C533 1.400 . S
C533 C527 1.491 . S
C533 C532 1.400 . S
C533 C534 1.398 . S
C534 H522 0.950 . S
C534 C533 1.398 . S
C534 C535 1.391 . S
C535 H523 0.950 . S
C535 C531 1.393 . S
C535 C534 1.391 . S
H536 C544 0.950 . S
H537 C549 0.950 . S
H538 C546 0.950 . S
H539 C548 0.950 . S
H540 C550 0.950 . S
H541 C552 0.950 . S
H542 C554 0.950 . S
H543 C555 0.950 . S
C544 H536 0.950 . S
C544 C545 1.386 . S
C544 C546 1.391 . S
C545 C544 1.386 . S
C545 C549 1.393 . S
C546 H538 0.950 . S
C546 C544 1.391 . S
C546 C547 1.400 . S
C547 C546 1.400 . S
C547 C548 1.398 . S
C547 C553 1.491 . S
C548 H539 0.950 . S
C548 C547 1.398 . S
C548 C549 1.391 . S
C549 H537 0.950 . S
C549 C545 1.393 . S
C549 C548 1.391 . S
C550 H540 0.950 . S
C550 C551 1.386 . S
C550 C552 1.391 . S
C551 C550 1.386 . S
C551 C555 1.393 . S
C552 H541 0.950 . S
C552 C550 1.391 . S
C552 C553 1.400 . S
C553 C547 1.491 . S
C553 C552 1.400 . S
C553 C554 1.398 . S
C554 H542 0.950 . S
C554 C553 1.398 . S
C554 C555 1.391 . S
C555 H543 0.950 . S
C555 C551 1.393 . S
C555 C554 1.391 . S
H556 C564 0.950 . S
H557 C569 0.950 . S
H558 C566 0.950 . S
H559 C568 0.950 . S
H560 C570 0.950 . S
H561 C572 0.950 . S
H562 C574 0.950 . S
H563 C575 0.950 . S
C564 H556 0.950 . S
C564 C565 1.386 . S
C564 C566 1.391 . S
C565 C564 1.386 . S
C565 C569 1.393 . S
C566 H558 0.950 . S
C566 C564 1.391 . S
C566 C567 1.400 . S
C567 C566 1.400 . S
C567 C568 1.398 . S
C567 C573 1.491 . S
C568 H559 0.950 . S
C568 C567 1.398 . S
C568 C569 1.391 . S
C569 H557 0.950 . S
C569 C565 1.393 . S
C569 C568 1.391 . S
C570 H560 0.950 . S
C570 C571 1.386 . S
C570 C572 1.391 . S
C571 C570 1.386 . S
C571 C575 1.393 . S
C572 H561 0.950 . S
C572 C570 1.391 . S
C572 C573 1.400 . S
C573 C567 1.491 . S
C573 C572 1.400 . S
C573 C574 1.398 . S
C574 H562 0.950 . S
C574 C573 1.398 . S
C574 C575 1.391 . S
C575 H563 0.950 . S
C575 C571 1.393 . S
C575 C574 1.391 . S
H576 C584 0.950 . S
H577 C589 0.950 . S
H578 C586 0.950 . S
H579 C588 0.950 . S
H580 C590 0.950 . S
H581 C592 0.950 . S
H582 C594 0.950 . S
H583 C595 0.950 . S
C584 H576 0.950 . S
C584 C585 1.386 . S
C584 C586 1.391 . S
C585 C584 1.386 . S
C585 C589 1.393 . S
C586 H578 0.950 . S
C586 C584 1.391 . S
C586 C587 1.400 . S
C587 C586 1.400 . S
C587 C588 1.398 . S
C587 C593 1.491 . S
C588 H579 0.950 . S
C588 C587 1.398 . S
C588 C589 1.391 . S
C589 H577 0.950 . S
C589 C585 1.393 . S
C589 C588 1.391 . S
C590 H580 0.950 . S
C590 C591 1.386 . S
C590 C592 1.391 . S
C591 C590 1.386 . S
C591 C595 1.393 . S
C592 H581 0.950 . S
C592 C590 1.391 . S
C592 C593 1.400 . S
C593 C587 1.491 . S
C593 C592 1.400 . S
C593 C594 1.398 . S
C594 H582 0.950 . S
C594 C593 1.398 . S
C594 C595 1.391 . S
C595 H583 0.950 . S
C595 C591 1.393 . S
C595 C594 1.391 . S
H596 C604 0.950 . S
H597 C609 0.950 . S
H598 C606 0.950 . S
H599 C608 0.950 . S
H600 C610 0.950 . S
H601 C612 0.950 . S
H602 C614 0.950 . S
H603 C615 0.950 . S
C604 H596 0.950 . S
C604 C605 1.386 . S
C604 C606 1.391 . S
C605 C604 1.386 . S
C605 C609 1.393 . S
C606 H598 0.950 . S
C606 C604 1.391 . S
C606 C607 1.400 . S
C607 C606 1.400 . S
C607 C608 1.398 . S
C607 C613 1.491 . S
C608 H599 0.950 . S
C608 C607 1.398 . S
C608 C609 1.391 . S
C609 H597 0.950 . S
C609 C605 1.393 . S
C609 C608 1.391 . S
C610 H600 0.950 . S
C610 C611 1.386 . S
C610 C612 1.391 . S
C611 C610 1.386 . S
C611 C615 1.393 . S
C612 H601 0.950 . S
C612 C610 1.391 . S
C612 C613 1.400 . S
C613 C607 1.491 . S
C613 C612 1.400 . S
C613 C614 1.398 . S
C614 H602 0.950 . S
C614 C613 1.398 . S
C614 C615 1.391 . S
C615 H603 0.950 . S
C615 C611 1.393 . S
C615 C614 1.391 . S
H616 C624 0.950 . S
H617 C629 0.950 . S
H618 C626 0.950 . S
H619 C628 0.950 . S
H620 C630 0.950 . S
H621 C632 0.950 . S
H622 C634 0.950 . S
H623 C635 0.950 . S
C624 H616 0.950 . S
C624 C625 1.386 . S
C624 C626 1.391 . S
C625 C624 1.386 . S
C625 C629 1.393 . S
C626 H618 0.950 . S
C626 C624 1.391 . S
C626 C627 1.400 . S
C627 C626 1.400 . S
C627 C628 1.398 . S
C627 C633 1.491 . S
C628 H619 0.950 . S
C628 C627 1.398 . S
C628 C629 1.391 . S
C629 H617 0.950 . S
C629 C625 1.393 . S
C629 C628 1.391 . S
C630 H620 0.950 . S
C630 C631 1.386 . S
C630 C632 1.391 . S
C631 C630 1.386 . S
C631 C635 1.393 . S
C632 H621 0.950 . S
C632 C630 1.391 . S
C632 C633 1.400 . S
C633 C627 1.491 . S
C633 C632 1.400 . S
C633 C634 1.398 . S
C634 H622 0.950 . S
C634 C633 1.398 . S
C634 C635 1.391 . S
C635 H623 0.950 . S
C635 C631 1.393 . S
C635 C634 1.391 . S
H636 C644 0.950 . S
H637 C649 0.959 . S
H638 C646 0.950 . S
H639 C648 0.950 . S
H640 C650 0.950 . S
H641 C652 0.950 . S
H642 C654 0.950 . S
H643 C655 0.950 . S
C644 H636 0.950 . S
C644 C645 1.386 . S
C644 C646 1.391 . S
C645 C644 1.386 . S
C645 C649 1.393 . S
C646 H638 0.950 . S
C646 C644 1.391 . S
C646 C647 1.400 . S
C647 C646 1.400 . S
C647 C648 1.398 . S
C647 C653 1.491 . S
C648 H639 0.950 . S
C648 C647 1.398 . S
C648 C649 1.391 . S
C649 H637 0.959 . S
C649 C645 1.393 . S
C649 C648 1.391 . S
C650 H640 0.950 . S
C650 C651 1.386 . S
C650 C652 1.391 . S
C651 C650 1.386 . S
C651 C655 1.393 . S
C652 H641 0.950 . S
C652 C650 1.391 . S
C652 C653 1.400 . S
C653 C647 1.491 . S
C653 C652 1.400 . S
C653 C654 1.398 . S
C654 H642 0.950 . S
C654 C653 1.398 . S
C654 C655 1.391 . S
C655 H643 0.950 . S
C655 C651 1.393 . S
C655 C654 1.391 . S
H656 C664 0.950 . S
H657 C669 0.950 . S
H658 C666 0.950 . S
H659 C668 0.950 . S
H660 C670 0.950 . S
H661 C672 0.950 . S
H662 C674 0.950 . S
H663 C675 0.950 . S
C664 H656 0.950 . S
C664 C665 1.386 . S
C664 C666 1.391 . S
C665 C664 1.386 . S
C665 C669 1.393 . S
C666 H658 0.950 . S
C666 C664 1.391 . S
C666 C667 1.400 . S
C667 C666 1.400 . S
C667 C668 1.398 . S
C667 C673 1.491 . S
C668 H659 0.950 . S
C668 C667 1.398 . S
C668 C669 1.391 . S
C669 H657 0.950 . S
C669 C665 1.393 . S
C669 C668 1.391 . S
C670 H660 0.950 . S
C670 C671 1.386 . S
C670 C672 1.391 . S
C671 C670 1.386 . S
C671 C675 1.393 . S
C672 H661 0.950 . S
C672 C670 1.391 . S
C672 C673 1.400 . S
C673 C667 1.491 . S
C673 C672 1.400 . S
C673 C674 1.398 . S
C674 H662 0.950 . S
C674 C673 1.398 . S
C674 C675 1.391 . S
C675 H663 0.950 . S
C675 C671 1.393 . S
C675 C674 1.391 . S
H676 C684 0.950 . S
H677 C689 0.950 . S
H678 C686 0.950 . S
H679 C688 0.950 . S
H680 C690 0.950 . S
H681 C692 0.950 . S
H682 C694 0.950 . S
H683 C695 0.950 . S
C684 H676 0.950 . S
C684 C685 1.386 . S
C684 C686 1.391 . S
C685 C684 1.386 . S
C685 C689 1.393 . S
C686 H678 0.950 . S
C686 C684 1.391 . S
C686 C687 1.400 . S
C687 C686 1.400 . S
C687 C688 1.398 . S
C687 C693 1.491 . S
C688 H679 0.950 . S
C688 C687 1.398 . S
C688 C689 1.391 . S
C689 H677 0.950 . S
C689 C685 1.393 . S
C689 C688 1.391 . S
C690 H680 0.950 . S
C690 C691 1.386 . S
C690 C692 1.391 . S
C691 C690 1.386 . S
C691 C695 1.393 . S
C692 H681 0.950 . S
C692 C690 1.391 . S
C692 C693 1.400 . S
C693 C687 1.491 . S
C693 C692 1.400 . S
C693 C694 1.398 . S
C694 H682 0.950 . S
C694 C693 1.398 . S
C694 C695 1.391 . S
C695 H683 0.950 . S
C695 C691 1.393 . S
C695 C694 1.391 . S
H696 C704 0.950 . S
H697 C709 0.950 . S
H698 C706 0.950 . S
H699 C708 0.950 . S
H700 C710 0.950 . S
H701 C712 0.950 . S
H702 C714 0.950 . S
H703 C715 0.950 . S
C704 H696 0.950 . S
C704 C705 1.386 . S
C704 C706 1.391 . S
C705 C704 1.386 . S
C705 C709 1.393 . S
C706 H698 0.950 . S
C706 C704 1.391 . S
C706 C707 1.400 . S
C707 C706 1.400 . S
C707 C708 1.398 . S
C707 C713 1.491 . S
C708 H699 0.950 . S
C708 C707 1.398 . S
C708 C709 1.391 . S
C709 H697 0.950 . S
C709 C705 1.393 . S
C709 C708 1.391 . S
C710 H700 0.950 . S
C710 C711 1.386 . S
C710 C712 1.391 . S
C711 C710 1.386 . S
C711 C715 1.393 . S
C712 H701 0.950 . S
C712 C710 1.391 . S
C712 C713 1.400 . S
C713 C707 1.491 . S
C713 C712 1.400 . S
C713 C714 1.398 . S
C714 H702 0.950 . S
C714 C713 1.398 . S
C714 C715 1.391 . S
C715 H703 0.950 . S
C715 C711 1.393 . S
C715 C714 1.391 . S
H716 C724 0.950 . S
H717 C729 0.950 . S
H718 C726 0.950 . S
H719 C728 0.950 . S
H720 C730 0.950 . S
H721 C732 0.950 . S
H722 C734 0.950 . S
H723 C735 0.950 . S
C724 H716 0.950 . S
C724 C725 1.386 . S
C724 C726 1.391 . S
C725 C724 1.386 . S
C725 C729 1.393 . S
C726 H718 0.950 . S
C726 C724 1.391 . S
C726 C727 1.400 . S
C727 C726 1.400 . S
C727 C728 1.398 . S
C727 C733 1.491 . S
C728 H719 0.950 . S
C728 C727 1.398 . S
C728 C729 1.391 . S
C729 H717 0.950 . S
C729 C725 1.393 . S
C729 C728 1.391 . S
C730 H720 0.950 . S
C730 C731 1.386 . S
C730 C732 1.391 . S
C731 C730 1.386 . S
C731 C735 1.393 . S
C732 H721 0.950 . S
C732 C730 1.391 . S
C732 C733 1.400 . S
C733 C727 1.491 . S
C733 C732 1.400 . S
C733 C734 1.398 . S
C734 H722 0.950 . S
C734 C733 1.398 . S
C734 C735 1.391 . S
C735 H723 0.950 . S
C735 C731 1.393 . S
C735 C734 1.391 . S
H736 C744 0.950 . S
H737 C749 0.950 . S
H738 C746 0.950 . S
H739 C748 0.950 . S
H740 C750 0.950 . S
H741 C752 0.950 . S
H742 C754 0.950 . S
H743 C755 0.950 . S
C744 H736 0.950 . S
C744 C745 1.386 . S
C744 C746 1.391 . S
C745 C744 1.386 . S
C745 C749 1.393 . S
C746 H738 0.950 . S
C746 C744 1.391 . S
C746 C747 1.400 . S
C747 C746 1.400 . S
C747 C748 1.398 . S
C747 C753 1.491 . S
C748 H739 0.950 . S
C748 C747 1.398 . S
C748 C749 1.391 . S
C749 H737 0.950 . S
C749 C745 1.393 . S
C749 C748 1.391 . S
C750 H740 0.950 . S
C750 C751 1.386 . S
C750 C752 1.391 . S
C751 C750 1.386 . S
C751 C755 1.393 . S
C752 H741 0.950 . S
C752 C750 1.391 . S
C752 C753 1.400 . S
C753 C747 1.491 . S
C753 C752 1.400 . S
C753 C754 1.398 . S
C754 H742 0.950 . S
C754 C753 1.398 . S
C754 C755 1.391 . S
C755 H743 0.950 . S
C755 C751 1.393 . S
C755 C754 1.391 . S
H756 C764 0.950 . S
H757 C769 0.950 . S
H758 C766 0.950 . S
H759 C768 0.950 . S
H760 C770 0.950 . S
H761 C772 0.950 1_554 S
H762 C774 0.950 . S
H763 C775 0.950 . S
C764 H756 0.950 . S
C764 C765 1.386 . S
C764 C766 1.391 . S
C765 C764 1.386 . S
C765 C769 1.393 . S
C766 H758 0.950 . S
C766 C764 1.391 . S
C766 C767 1.400 . S
C767 C766 1.400 . S
C767 C768 1.398 . S
C767 C773 1.491 . S
C768 H759 0.950 . S
C768 C767 1.398 . S
C768 C769 1.391 . S
C769 H757 0.950 . S
C769 C765 1.393 . S
C769 C768 1.391 . S
C770 H760 0.950 . S
C770 C771 1.386 . S
C770 C772 1.391 1_554 S
C771 C770 1.386 . S
C771 C775 1.393 1_554 S
C772 H761 0.950 1_556 S
C772 C770 1.391 1_556 S
C772 C773 1.400 . S
C773 C767 1.491 . S
C773 C772 1.400 . S
C773 C774 1.398 . S
C774 H762 0.950 . S
C774 C773 1.398 . S
C774 C775 1.391 . S
C775 H763 0.950 . S
C775 C771 1.393 1_556 S
C775 C774 1.391 . S
H776 C784 0.950 . S
H777 C789 0.950 . S
H778 C786 0.950 . S
H779 C788 0.950 . S
H780 C790 0.950 . S
H781 C792 0.950 . S
H782 C794 0.950 . S
H783 C795 0.950 . S
C784 H776 0.950 . S
C784 C785 1.386 . S
C784 C786 1.391 . S
C785 C784 1.386 . S
C785 C789 1.393 . S
C786 H778 0.950 . S
C786 C784 1.391 . S
C786 C787 1.400 . S
C787 C786 1.400 . S
C787 C788 1.398 . S
C787 C793 1.491 . S
C788 H779 0.950 . S
C788 C787 1.398 . S
C788 C789 1.391 . S
C789 H777 0.950 . S
C789 C785 1.393 . S
C789 C788 1.391 . S
C790 H780 0.950 . S
C790 C791 1.386 . S
C790 C792 1.391 . S
C791 C790 1.386 . S
C791 C795 1.393 . S
C792 H781 0.950 . S
C792 C790 1.391 . S
C792 C793 1.400 . S
C793 C787 1.491 . S
C793 C792 1.400 . S
C793 C794 1.398 . S
C794 H782 0.950 . S
C794 C793 1.398 . S
C794 C795 1.391 . S
C795 H783 0.950 . S
C795 C791 1.393 . S
C795 C794 1.391 . S
H796 C804 0.950 . S
H797 C809 0.950 . S
H798 C806 0.950 . S
H799 C808 0.950 . S
H800 C810 0.950 . S
H801 C812 0.950 . S
H802 C814 0.950 . S
H803 C815 0.950 . S
C804 H796 0.950 . S
C804 C805 1.386 . S
C804 C806 1.391 . S
C805 C804 1.386 . S
C805 C809 1.393 . S
C806 H798 0.950 . S
C806 C804 1.391 . S
C806 C807 1.400 . S
C807 C806 1.400 . S
C807 C808 1.398 . S
C807 C813 1.491 . S
C808 H799 0.950 . S
C808 C807 1.398 . S
C808 C809 1.391 . S
C809 H797 0.950 . S
C809 C805 1.393 . S
C809 C808 1.391 . S
C810 H800 0.950 . S
C810 C811 1.386 . S
C810 C812 1.391 . S
C811 C810 1.386 . S
C811 C815 1.393 . S
C812 H801 0.950 . S
C812 C810 1.391 . S
C812 C813 1.400 . S
C813 C807 1.491 . S
C813 C812 1.400 . S
C813 C814 1.398 . S
C814 H802 0.950 . S
C814 C813 1.398 . S
C814 C815 1.391 . S
C815 H803 0.950 . S
C815 C811 1.393 . S
C815 C814 1.391 . S
H816 C824 0.950 . S
H817 C829 0.950 . S
H818 C826 0.950 . S
H819 C828 0.950 . S
H820 C830 0.950 . S
H821 C832 0.950 . S
H822 C834 0.950 . S
H823 C835 0.950 . S
C824 H816 0.950 . S
C824 C825 1.386 . S
C824 C826 1.391 . S
C825 C824 1.386 . S
C825 C829 1.393 . S
C826 H818 0.950 . S
C826 C824 1.391 . S
C826 C827 1.400 . S
C827 C826 1.400 . S
C827 C828 1.398 . S
C827 C833 1.491 . S
C828 H819 0.950 . S
C828 C827 1.398 . S
C828 C829 1.391 . S
C829 H817 0.950 . S
C829 C825 1.393 . S
C829 C828 1.391 . S
C830 H820 0.950 . S
C830 C831 1.386 . S
C830 C832 1.391 . S
C831 C830 1.386 . S
C831 C835 1.393 . S
C832 H821 0.950 . S
C832 C830 1.391 . S
C832 C833 1.400 . S
C833 C827 1.491 . S
C833 C832 1.400 . S
C833 C834 1.398 . S
C834 H822 0.950 . S
C834 C833 1.398 . S
C834 C835 1.391 . S
C835 H823 0.950 . S
C835 C831 1.393 . S
C835 C834 1.391 . S
H836 C844 0.950 . S
H837 C849 0.950 . S
H838 C846 0.950 . S
H839 C848 0.950 . S
H840 C850 0.950 . S
H841 C852 0.950 . S
H842 C854 0.950 . S
H843 C855 0.950 . S
C844 H836 0.950 . S
C844 C845 1.386 . S
C844 C846 1.391 . S
C845 C844 1.386 . S
C845 C849 1.393 . S
C846 H838 0.950 . S
C846 C844 1.391 . S
C846 C847 1.400 . S
C847 C846 1.400 . S
C847 C848 1.398 . S
C847 C853 1.491 . S
C848 H839 0.950 . S
C848 C847 1.398 . S
C848 C849 1.391 . S
C849 H837 0.950 . S
C849 C845 1.393 . S
C849 C848 1.391 . S
C850 H840 0.950 . S
C850 C851 1.386 . S
C850 C852 1.391 . S
C851 C850 1.386 . S
C851 C855 1.393 . S
C852 H841 0.950 . S
C852 C850 1.391 . S
C852 C853 1.400 . S
C853 C847 1.491 . S
C853 C852 1.400 . S
C853 C854 1.398 . S
C854 H842 0.950 . S
C854 C853 1.398 . S
C854 C855 1.391 . S
C855 H843 0.950 . S
C855 C851 1.393 . S
C855 C854 1.391 . S
H856 C864 0.950 . S
H857 C869 0.950 . S
H858 C866 0.950 . S
H859 C868 0.950 . S
H860 C870 0.950 . S
H861 C872 0.950 . S
H862 C874 0.950 . S
H863 C875 0.950 . S
C864 H856 0.950 . S
C864 C865 1.386 . S
C864 C866 1.391 . S
C865 C864 1.386 . S
C865 C869 1.393 . S
C866 H858 0.950 . S
C866 C864 1.391 . S
C866 C867 1.400 . S
C867 C866 1.400 . S
C867 C868 1.398 . S
C867 C873 1.491 . S
C868 H859 0.950 . S
C868 C867 1.398 . S
C868 C869 1.391 . S
C869 H857 0.950 . S
C869 C865 1.393 . S
C869 C868 1.391 . S
C870 H860 0.950 . S
C870 C871 1.386 . S
C870 C872 1.391 . S
C871 C870 1.386 . S
C871 C875 1.393 . S
C872 H861 0.950 . S
C872 C870 1.391 . S
C872 C873 1.400 . S
C873 C867 1.491 . S
C873 C872 1.400 . S
C873 C874 1.398 . S
C874 H862 0.950 . S
C874 C873 1.398 . S
C874 C875 1.391 . S
C875 H863 0.950 . S
C875 C871 1.393 . S
C875 C874 1.391 . S
H876 C884 0.950 . S
H877 C889 0.950 . S
H878 C886 0.950 . S
H879 C888 0.950 . S
H880 C890 0.950 . S
H881 C892 0.950 . S
H882 C894 0.950 . S
H883 C895 0.950 . S
C884 H876 0.950 . S
C884 C885 1.386 . S
C884 C886 1.391 . S
C885 C884 1.386 . S
C885 C889 1.393 . S
C886 H878 0.950 . S
C886 C884 1.391 . S
C886 C887 1.400 . S
C887 C886 1.400 . S
C887 C888 1.398 . S
C887 C893 1.491 . S
C888 H879 0.950 . S
C888 C887 1.398 . S
C888 C889 1.391 . S
C889 H877 0.950 . S
C889 C885 1.393 . S
C889 C888 1.391 . S
C890 H880 0.950 . S
C890 C891 1.386 . S
C890 C892 1.391 . S
C891 C890 1.386 . S
C891 C895 1.393 . S
C892 H881 0.950 . S
C892 C890 1.391 . S
C892 C893 1.400 . S
C893 C887 1.491 . S
C893 C892 1.400 . S
C893 C894 1.398 . S
C894 H882 0.950 . S
C894 C893 1.398 . S
C894 C895 1.391 . S
C895 H883 0.950 . S
C895 C891 1.393 . S
C895 C894 1.391 . S
H896 C904 0.950 . S
H897 C909 0.950 . S
H898 C906 0.950 . S
H899 C908 0.950 . S
H900 C910 0.950 . S
H901 C912 0.950 . S
H902 C914 0.950 . S
H903 C915 0.950 . S
C904 H896 0.950 . S
C904 C905 1.386 . S
C904 C906 1.391 1_554 S
C905 C904 1.386 . S
C905 C909 1.393 . S
C906 H898 0.950 . S
C906 C904 1.391 1_556 S
C906 C907 1.400 . S
C907 C906 1.400 . S
C907 C908 1.398 1_556 S
C907 C913 1.491 . S
C908 H899 0.950 . S
C908 C907 1.398 1_554 S
C908 C909 1.391 . S
C909 H897 0.950 . S
C909 C905 1.393 . S
C909 C908 1.391 . S
C910 H900 0.950 . S
C910 C911 1.386 . S
C910 C912 1.391 . S
C911 C910 1.386 . S
C911 C915 1.393 . S
C912 H901 0.950 . S
C912 C910 1.391 . S
C912 C913 1.400 . S
C913 C907 1.491 . S
C913 C912 1.400 . S
C913 C914 1.398 . S
C914 H902 0.950 . S
C914 C913 1.398 . S
C914 C915 1.391 . S
C915 H903 0.950 . S
C915 C911 1.393 . S
C915 C914 1.391 . S
H916 C924 0.950 . S
H917 C929 0.950 . S
H918 C926 0.950 . S
H919 C928 0.950 . S
H920 C930 0.950 . S
H921 C932 0.950 . S
H922 C934 0.950 . S
H923 C935 0.950 . S
C924 H916 0.950 . S
C924 C925 1.386 . S
C924 C926 1.391 . S
C925 C924 1.386 . S
C925 C929 1.393 . S
C926 H918 0.950 . S
C926 C924 1.391 . S
C926 C927 1.400 . S
C927 C926 1.400 . S
C927 C928 1.398 . S
C927 C933 1.491 . S
C928 H919 0.950 . S
C928 C927 1.398 . S
C928 C929 1.391 . S
C929 H917 0.950 . S
C929 C925 1.393 . S
C929 C928 1.391 . S
C930 H920 0.950 . S
C930 C931 1.386 . S
C930 C932 1.391 . S
C931 C930 1.386 . S
C931 C935 1.393 . S
C932 H921 0.950 . S
C932 C930 1.391 . S
C932 C933 1.400 . S
C933 C927 1.491 . S
C933 C932 1.400 . S
C933 C934 1.398 . S
C934 H922 0.950 . S
C934 C933 1.398 . S
C934 C935 1.391 . S
C935 H923 0.950 . S
C935 C931 1.393 . S
C935 C934 1.391 . S
C471 C447 1.327 . S
C465 C29 1.508 . S
C485 C115 1.523 . S
C491 C377 1.305 . S
C505 C153 1.472 . S
C511 C397 1.572 . S
C525 C239 1.389 . S
C531 C411 1.416 . S
C551 C419 1.246 . S
C545 C301 1.485 . S
C565 C339 1.731 . S
C571 C433 1.546 . S
C585 C91 1.527 . S
C591 C391 1.380 . S
C605 C177 1.447 . S
C611 C405 1.218 . S
C625 C215 1.414 . S
C631 C425 1.495 . S
C651 C439 1.830 . S
C645 C277 1.714 . S
C671 C453 1.506 . S
C665 C363 1.466 . S
C691 C383 1.459 . S
C685 C53 1.452 . S
C705 C35 1.509 . S
C711 C390 1.512 . S
C725 C109 1.345 . S
C731 C404 1.436 . S
C751 C426 1.412 . S
C745 C159 1.399 . S
C765 C233 1.572 . S
C771 C440 1.713 . S
C791 C454 1.499 . S
C785 C295 1.362 . S
C811 C384 1.291 . S
C805 C345 1.263 . S
C831 C446 1.392 . S
C825 C97 1.391 . S
C845 C171 1.320 . S
C851 C376 1.412 . S
C871 C398 1.517 . S
C865 C221 1.479 . S
C885 C283 1.321 . S
C891 C412 1.338 . S
C905 C357 1.424 . S
C911 C418 1.528 . S
C925 C47 1.598 . S
C931 C432 1.683 . S
