# Generated by pormake.
# Topology sit, (3,6)-cn, num edge types: 1
# Building blocks:
#     Node 0, Type 0, BuildingBlock: PAMTOO_clean_linker_0, # of connection points: 3
#     Node 1, Type 0, BuildingBlock: PAMTOO_clean_linker_0, # of connection points: 3
#     Node 2, Type 0, BuildingBlock: PAMTOO_clean_linker_0, # of connection points: 3
#     Node 3, Type 0, BuildingBlock: PAMTOO_clean_linker_0, # of connection points: 3
#     Node 4, Type 1, BuildingBlock: MIDCAF_clean_sbu_0, # of connection points: 6
#     Node 5, Type 1, BuildingBlock: MIDCAF_clean_sbu_0, # of connection points: 6
#     Edge 6, Type (0, 1), BuildingBlock: XUDNAN_clean_linker_2, # of connection points: 2
#     Edge 7, Type (0, 1), BuildingBlock: XUDNAN_clean_linker_2, # of connection points: 2
#     Edge 8, Type (0, 1), BuildingBlock: XUDNAN_clean_linker_2, # of connection points: 2
#     Edge 9, Type (0, 1), BuildingBlock: XUDNAN_clean_linker_2, # of connection points: 2
#     Edge 10, Type (0, 1), BuildingBlock: XUDNAN_clean_linker_2, # of connection points: 2
#     Edge 11, Type (0, 1), BuildingBlock: XUDNAN_clean_linker_2, # of connection points: 2
#     Edge 12, Type (0, 1), BuildingBlock: XUDNAN_clean_linker_2, # of connection points: 2
#     Edge 13, Type (0, 1), BuildingBlock: XUDNAN_clean_linker_2, # of connection points: 2
#     Edge 14, Type (0, 1), BuildingBlock: XUDNAN_clean_linker_2, # of connection points: 2
#     Edge 15, Type (0, 1), BuildingBlock: XUDNAN_clean_linker_2, # of connection points: 2
#     Edge 16, Type (0, 1), BuildingBlock: XUDNAN_clean_linker_2, # of connection points: 2
#     Edge 17, Type (0, 1), BuildingBlock: XUDNAN_clean_linker_2, # of connection points: 2
# Relax obj value: 0.078
# Max RMSD: 0.181
# Mean RMSD: 0.117
data_MOF--net-sit--node1-MIDCAF_clean_sbu_0--node2-PAMTOO_clean_linker_0--edge1-XUDNAN_clean_linker_2
_symmetry_space_group_name_H-M    P1
_symmetry_Int_Tables_number       1
_symmetry_cell_setting            triclinic
loop_
_symmetry_equiv_pos_as_xyz
'x, y, z'
_cell_length_a     21.454311
_cell_length_b     32.288541
_cell_length_c     37.066137
_cell_angle_alpha  90.102183
_cell_angle_beta   89.542289
_cell_angle_gamma 86.410251
loop_
_atom_site_label
_atom_site_type_symbol
_atom_site_fract_x
_atom_site_fract_y
_atom_site_fract_z
_atom_type_partial_charge
H0 H 0.07209 0.43017 0.99774 0.0
H1 H 0.13222 0.33239 0.06984 0.0
H2 H 0.93633 0.36291 0.05655 0.0
H3 H 0.95939 0.32888 0.12797 0.0
C4 C 0.008 0.31587 0.12338 0.0
O5 O 0.01927 0.31202 0.08682 0.0
H6 H 0.0406 0.33752 0.13543 0.0
C7 C 0.06008 0.40752 0.01776 0.0
C8 C -0.00265 0.4008 0.02533 0.0
C9 C 0.10845 0.38354 0.03407 0.0
C10 C 0.09485 0.35191 0.05805 0.0
C11 C 0.03257 0.34451 0.06581 0.0
C12 C -0.01593 0.36915 0.04994 0.0
H13 H 0.96361 0.61971 0.00809 0.0
H14 H 0.92773 0.74329 0.04858 0.0
H15 H 0.11494 0.69127 0.04525 0.0
H16 H 0.09963 0.74264 0.10996 0.0
C17 C 0.05199 0.75612 0.10368 0.0
O18 O 0.04297 0.75362 0.06695 0.0
H19 H 0.01795 0.73769 0.11859 0.0
C20 C -0.01855 0.64709 0.02001 0.0
C21 C 0.04618 0.64992 0.02505 0.0
C22 C 0.93909 0.68118 0.02675 0.0
C23 C 0.95992 0.7167 0.04336 0.0
C24 C 0.02305 0.719 0.05135 0.0
C25 C 0.06609 0.6865 0.0413 0.0
H26 H 0.53203 0.90601 0.51216 0.0
H27 H 0.68908 0.81983 0.53383 0.0
H28 H 0.50432 0.77793 0.53325 0.0
H29 H 0.64012 0.77531 0.60056 0.0
C30 C 0.64012 0.74736 0.58287 0.0
O31 O 0.62137 0.75768 0.54825 0.0
H32 H 0.68922 0.73426 0.58142 0.0
C33 C 0.55111 0.87542 0.51959 0.0
C34 C 0.51088 0.84298 0.52135 0.0
C35 C 0.61615 0.8675 0.52159 0.0
C36 C 0.63938 0.82759 0.53226 0.0
C37 C 0.59845 0.79618 0.53898 0.0
C38 C 0.5346 0.80354 0.5323 0.0
H39 H 0.57364 0.18445 0.44246 0.0
H40 H 0.4392 0.27532 0.48644 0.0
H41 H 0.63226 0.28029 0.51391 0.0
H42 H 0.52383 0.28598 0.57258 0.0
C43 C 0.49771 0.31183 0.5582 0.0
O44 O 0.52007 0.31514 0.52341 0.0
H45 H 0.44786 0.30427 0.55744 0.0
C46 C 0.56302 0.2107 0.46021 0.0
C47 C 0.61146 0.23019 0.47767 0.0
C48 C 0.50095 0.22666 0.46338 0.0
C49 C 0.48692 0.26233 0.48428 0.0
C50 C 0.53419 0.28118 0.50281 0.0
C51 C 0.59617 0.26511 0.49961 0.0
Zn52 Zn 0.07501 0.1611 0.34645 0.0
Zn53 Zn 0.04958 0.94383 0.34781 0.0
Zn54 Zn 0.06464 1.01746 0.34705 0.0
C55 C 0.0353 0.96648 0.27625 0.0
C56 C 0.96122 0.97452 0.39505 0.0
O57 O 0.15526 0.03758 0.36727 0.0
O58 O 0.10638 0.09728 0.35606 0.0
C59 C 0.05764 0.08396 0.29279 0.0
O60 O 0.05199 1.00096 0.28944 0.0
O61 O 0.02671 0.93618 0.29675 0.0
O62 O -0.01475 0.93944 0.38586 0.0
O63 O -0.01734 1.00784 0.3821 0.0
O64 O 0.0652 0.101 0.32347 0.0
O65 O 0.05497 0.04446 0.29267 0.0
O66 O -0.00926 0.05017 0.37965 0.0
O67 O 0.03742 0.10439 0.36201 0.0
C68 C -0.00695 0.08969 0.38025 0.0
O69 O 0.1542 0.9928 0.36987 0.0
O70 O 0.13599 0.92706 0.3608 0.0
C71 C 0.15671 0.07716 0.3658 0.0
C72 C 0.17212 0.95406 0.37101 0.0
Zn73 Zn 0.48044 0.6089 0.84477 0.0
Zn74 Zn 0.54545 0.44981 0.83382 0.0
Zn75 Zn 0.52349 0.53121 0.83937 0.0
C76 C 0.53818 0.47891 0.76388 0.0
C77 C 0.44704 0.45759 0.87862 0.0
O78 O 0.5981 0.56357 0.8665 0.0
O79 O 0.55949 0.6287 0.86342 0.0
C80 C 0.48178 0.58991 0.77181 0.0
O81 O 0.52566 0.51337 0.78089 0.0
O82 O 0.54969 0.44568 0.78109 0.0
O83 O 0.47495 0.42804 0.86152 0.0
O84 O 0.46001 0.49541 0.87244 0.0
O85 O 0.46039 0.6178 0.79324 0.0
O86 O 0.50848 0.55598 0.78411 0.0
O87 O 0.43626 0.53723 0.87216 0.0
O88 O 0.41155 0.60425 0.87977 0.0
C89 C 0.40087 0.56698 0.88591 0.0
O90 O 0.61589 0.52054 0.86354 0.0
O91 O 0.62493 0.45195 0.85982 0.0
C92 C 0.60267 0.60255 0.87257 0.0
C93 C 0.64636 0.48569 0.86966 0.0
H94 H 0.06949 0.29569 0.18615 0.0
H95 H 0.96045 0.24257 0.10189 0.0
H96 H 0.96837 0.17467 0.13325 0.0
H97 H 0.17345 0.20369 0.20373 0.0
H98 H 0.17375 0.21314 0.25167 0.0
H99 H 0.16395 0.25605 0.22079 0.0
H100 H 0.06074 0.28077 0.25332 0.0
H101 H 0.07028 0.23799 0.28423 0.0
H102 H -0.00035 0.24527 0.25838 0.0
H103 H -0.01491 0.11296 0.17612 0.0
H104 H 0.0033 0.06535 0.2281 0.0
H105 H 0.09961 0.16069 0.28346 0.0
C106 C 0.04827 0.26955 0.17399 0.0
C107 C 0.01566 0.27396 0.14122 0.0
C108 C -0.0132 0.23943 0.12664 0.0
C109 C -0.00891 0.20084 0.14424 0.0
C110 C 0.02399 0.19746 0.17651 0.0
C111 C 0.0519 0.23103 0.19124 0.0
C112 C 0.08109 0.22032 0.22727 0.0
C113 C 0.15229 0.22348 0.22575 0.0
C114 C 0.05112 0.2477 0.25757 0.0
C115 C 0.06429 0.17576 0.23092 0.0
C116 C 0.03209 0.16274 0.20128 0.0
C117 C 0.01052 0.12284 0.19938 0.0
C118 C 0.02117 0.09599 0.2289 0.0
C119 C 0.05225 0.10955 0.25988 0.0
C120 C 0.07498 0.14961 0.26037 0.0
H121 H 0.13844 0.80329 0.13558 0.0
H122 H 0.94537 0.80729 0.10214 0.0
H123 H 0.92632 0.87566 0.132 0.0
H124 H 0.11172 0.83663 0.21984 0.0
H125 H 0.17902 0.86702 0.22392 0.0
H126 H 0.18048 0.8247 0.19253 0.0
H127 H 0.20737 0.87465 0.14076 0.0
H128 H 0.20526 0.9174 0.17222 0.0
H129 H 0.15715 0.92048 0.13256 0.0
H130 H 0.92273 0.93394 0.17638 0.0
H131 H 0.93421 0.9743 0.23248 0.0
H132 H 0.1301 0.93461 0.23575 0.0
C133 C 0.09285 0.81942 0.13341 0.0
C134 C 0.04344 0.80048 0.11633 0.0
C135 C -0.01613 0.82175 0.11478 0.0
C136 C 0.97283 0.86061 0.1315 0.0
C137 C 0.02212 0.878 0.14924 0.0
C138 C 0.08122 0.85819 0.14995 0.0
C139 C 0.12378 0.88003 0.1751 0.0
C140 C 0.1502 0.85034 0.20458 0.0
C141 C 0.17651 0.89929 0.15388 0.0
C142 C 0.0783 0.91335 0.19052 0.0
C143 C 0.02028 0.91253 0.17453 0.0
C144 C 0.96842 0.93603 0.18815 0.0
C145 C 0.97531 0.95918 0.21985 0.0
C146 C 0.03356 0.95867 0.23734 0.0
C147 C 0.08601 0.93704 0.22162 0.0
H148 H 0.67379 0.67116 0.61242 0.0
H149 H 0.51392 0.75709 0.59494 0.0
H150 H 0.44768 0.71207 0.62989 0.0
H151 H 0.58398 0.57147 0.61912 0.0
H152 H 0.63374 0.5521 0.65505 0.0
H153 H 0.66487 0.58354 0.61984 0.0
H154 H 0.70243 0.63473 0.66781 0.0
H155 H 0.67212 0.60335 0.7029 0.0
H156 H 0.64692 0.65757 0.70004 0.0
H157 H 0.40468 0.66788 0.67612 0.0
H158 H 0.39081 0.63194 0.73391 0.0
H159 H 0.57764 0.57388 0.72422 0.0
C160 C 0.62421 0.67938 0.61468 0.0
C161 C 0.59829 0.71674 0.59966 0.0
C162 C 0.53402 0.72775 0.6047 0.0
C163 C 0.49607 0.70229 0.62463 0.0
C164 C 0.52313 0.66599 0.63968 0.0
C165 C 0.58586 0.65443 0.63497 0.0
C166 C 0.6058 0.61829 0.6593 0.0
C167 C 0.62312 0.57903 0.63698 0.0
C168 C 0.65994 0.62918 0.68397 0.0
C169 C 0.54591 0.61367 0.68048 0.0
C170 C 0.49818 0.64042 0.66772 0.0
C171 C 0.44101 0.64598 0.68574 0.0
C172 C 0.43349 0.62545 0.71855 0.0
C173 C 0.48288 0.59981 0.73306 0.0
C174 C 0.53857 0.59226 0.71297 0.0
H175 H 0.59453 0.33318 0.60047 0.0
H176 H 0.41349 0.37951 0.5621 0.0
H177 H 0.41653 0.44026 0.60285 0.0
H178 H 0.56702 0.35087 0.68783 0.0
H179 H 0.64374 0.36599 0.69966 0.0
H180 H 0.63437 0.33322 0.66128 0.0
H181 H 0.68866 0.38582 0.62069 0.0
H182 H 0.69778 0.419 0.65925 0.0
H183 H 0.65872 0.43923 0.61955 0.0
H184 H 0.42958 0.48725 0.65624 0.0
H185 H 0.44828 0.51209 0.71826 0.0
H186 H 0.62077 0.43534 0.72155 0.0
C187 C 0.55663 0.35694 0.59988 0.0
C188 C 0.50367 0.35182 0.57851 0.0
C189 C 0.45441 0.38307 0.57847 0.0
C190 C 0.45601 0.41775 0.60133 0.0
C191 C 0.50778 0.42105 0.6235 0.0
C192 C 0.55756 0.39157 0.6226 0.0
C193 C 0.60323 0.39857 0.65254 0.0
C194 C 0.61253 0.3599 0.67674 0.0
C195 C 0.66581 0.41142 0.63707 0.0
C196 C 0.56904 0.43441 0.67217 0.0
C197 C 0.5152 0.4481 0.65439 0.0
C198 C 0.47247 0.47761 0.66986 0.0
C199 C 0.48353 0.49182 0.70501 0.0
C200 C 0.53632 0.47593 0.72425 0.0
C201 C 0.58073 0.44848 0.70694 0.0
H202 H 0.1676 0.35069 0.9754 0.0
H203 H 0.18826 0.43494 0.06481 0.0
H204 H 0.2838 0.4599 0.03623 0.0
H205 H 0.33801 0.3272 0.95571 0.0
H206 H 0.32461 0.3268 0.90777 0.0
H207 H 0.26515 0.31082 0.93846 0.0
H208 H 0.18604 0.36521 0.91014 0.0
H209 H 0.24542 0.38195 0.87994 0.0
H210 H 0.204 0.41902 0.90925 0.0
H211 H 0.367 0.482 0.99416 0.0
H212 H 0.438 0.4963 0.94353 0.0
H213 H 0.36146 0.39832 0.88082 0.0
C214 C 0.19421 0.37294 0.9896 0.0
C215 C 0.17256 0.39015 0.02264 0.0
C216 C 0.20594 0.4207 0.03998 0.0
C217 C 0.25969 0.43517 0.02381 0.0
C218 C 0.27883 0.41861 0.99045 0.0
C219 C 0.24764 0.38773 0.97376 0.0
C220 C 0.27405 0.37795 0.93653 0.0
C221 C 0.30214 0.33302 0.93451 0.0
C222 C 0.22441 0.38656 0.90726 0.0
C223 C 0.3242 0.4087 0.93453 0.0
C224 C 0.32626 0.4318 0.96592 0.0
C225 C 0.36638 0.46373 0.96967 0.0
C226 C 0.40589 0.47194 0.94068 0.0
C227 C 0.4042 0.44875 0.9083 0.0
C228 C 0.36345 0.41643 0.90537 0.0
H229 H 0.84603 0.62648 0.03216 0.0
H230 H 0.89902 0.73764 0.97743 0.0
H231 H 0.81582 0.73 0.93305 0.0
H232 H 0.82162 0.56863 0.96438 0.0
H233 H 0.74968 0.54495 0.97597 0.0
H234 H 0.79939 0.56272 0.01076 0.0
H235 H 0.71447 0.61157 0.03857 0.0
H236 H 0.66017 0.59178 0.00695 0.0
H237 H 0.66847 0.64686 0.01034 0.0
H238 H 0.74145 0.7046 0.88954 0.0
H239 H 0.66491 0.66893 0.85349 0.0
H240 H 0.65721 0.57374 0.93555 0.0
C241 C 0.83788 0.65017 0.0118 0.0
C242 C 0.87832 0.68284 0.00826 0.0
C243 C 0.86767 0.71289 0.98092 0.0
C244 C 0.82084 0.70863 0.95544 0.0
C245 C 0.78407 0.67478 0.95834 0.0
C246 C 0.78996 0.64702 0.98663 0.0
C247 C 0.74587 0.6124 0.98223 0.0
C248 C 0.78121 0.56958 0.98329 0.0
C249 C 0.69417 0.61588 0.01124 0.0
C250 C 0.71943 0.62272 0.94517 0.0
C251 C 0.74103 0.65952 0.93255 0.0
C252 C 0.72347 0.67606 0.89926 0.0
C253 C 0.68057 0.65542 0.87885 0.0
C254 C 0.65629 0.61837 0.89151 0.0
C255 C 0.67649 0.60146 0.92491 0.0
H256 H 0.88456 0.37334 0.00385 0.0
H257 H -0.00463 0.48151 0.99956 0.0
H258 H 0.92008 0.51489 0.95719 0.0
H259 H 0.83572 0.37212 0.91483 0.0
H260 H 0.75735 0.35855 0.92516 0.0
H261 H 0.82019 0.34305 0.95505 0.0
H262 H 0.76118 0.37994 0.00867 0.0
H263 H 0.69754 0.39488 0.97909 0.0
H264 H 0.73476 0.43384 0.00461 0.0
H265 H 0.83631 0.5329 0.90919 0.0
H266 H 0.73983 0.54068 0.87252 0.0
H267 H 0.68253 0.42357 0.91449 0.0
C268 C 0.89273 0.40445 0.995 0.0
C269 C 0.9471 0.4241 0.0047 0.0
C270 C 0.95537 0.46486 0.9917 0.0
C271 C 0.91262 0.48433 0.96771 0.0
C272 C 0.86087 0.46321 0.95772 0.0
C273 C 0.84991 0.42475 0.97194 0.0
C274 C 0.78969 0.40908 0.95832 0.0
C275 C 0.80149 0.3683 0.93708 0.0
C276 C 0.74303 0.40417 0.98953 0.0
C277 C 0.76881 0.44445 0.93384 0.0
C278 C 0.81071 0.47517 0.93314 0.0
C279 C 0.80203 0.50977 0.91067 0.0
C280 C 0.74736 0.51399 0.88996 0.0
C281 C 0.70353 0.48315 0.8913 0.0
C282 C 0.71505 0.4479 0.91321 0.0
H283 H 0.172 0.63397 0.04178 0.0
H284 H 0.02856 0.59278 0.96975 0.0
H285 H 0.10702 0.54999 0.93737 0.0
H286 H 0.26468 0.65858 0.97451 0.0
H287 H 0.33832 0.64469 0.9958 0.0
H288 H 0.27081 0.6586 0.02301 0.0
H289 H 0.28494 0.5884 0.05676 0.0
H290 H 0.35279 0.57408 0.02934 0.0
H291 H 0.28884 0.54054 0.03151 0.0
H292 H 0.20116 0.52322 0.9036 0.0
H293 H 0.30013 0.52389 0.86873 0.0
H294 H 0.38213 0.59244 0.95476 0.0
C295 C 0.1561 0.61583 0.01957 0.0
C296 C 0.09253 0.6177 0.00918 0.0
C297 C 0.07555 0.59199 0.98 0.0
C298 C 0.12041 0.56719 0.96087 0.0
C299 C 0.18277 0.56855 0.97038 0.0
C300 C 0.2007 0.59251 0.99899 0.0
C301 C 0.2707 0.59643 0.99873 0.0
C302 C 0.28701 0.64227 0.99792 0.0
C303 C 0.30111 0.57349 0.03101 0.0
C304 C 0.28824 0.57429 0.96374 0.0
C305 C 0.23761 0.55619 0.94892 0.0
C306 C 0.24135 0.53669 0.91522 0.0
C307 C 0.29744 0.5373 0.89555 0.0
C308 C 0.34784 0.55837 0.90929 0.0
C309 C 0.34386 0.57596 0.94408 0.0
H310 H 0.74025 0.87907 0.53836 0.0
H311 H 0.59022 0.92423 0.46737 0.0
H312 H 0.66062 0.96896 0.43731 0.0
H313 H 0.83218 0.97562 0.53739 0.0
H314 H 0.90532 0.94509 0.53448 0.0
H315 H 0.84003 0.92528 0.55843 0.0
H316 H 0.84854 0.8591 0.51852 0.0
H317 H 0.91349 0.87871 0.49454 0.0
H318 H 0.84578 0.86431 0.47012 0.0
H319 H 0.74748 0.99731 0.40599 0.0
H320 H 0.84811 1.00734 0.37549 0.0
H321 H 0.94587 0.94067 0.4614 0.0
C322 C 0.72163 0.89895 0.51706 0.0
C323 C 0.65836 0.89846 0.50652 0.0
C324 C 0.63697 0.92491 0.47791 0.0
C325 C 0.67707 0.95052 0.46008 0.0
C326 C 0.73914 0.94916 0.47038 0.0
C327 C 0.76166 0.92404 0.49812 0.0
C328 C 0.83235 0.92325 0.49962 0.0
C329 C 0.85372 0.94353 0.53456 0.0
C330 C 0.86172 0.87871 0.49542 0.0
C331 C 0.84574 0.94973 0.46706 0.0
C332 C 0.79107 0.96532 0.4513 0.0
C333 C 0.79079 0.98677 0.41873 0.0
C334 C 0.84794 0.99235 0.40162 0.0
C335 C 0.9042 0.97612 0.41697 0.0
C336 C 0.90326 0.95479 0.45012 0.0
H337 H 0.45826 0.14852 0.4701 0.0
H338 H 0.43229 0.2634 0.41017 0.0
H339 H 0.34878 0.23365 0.37472 0.0
H340 H 0.42619 0.07812 0.39618 0.0
H341 H 0.38192 0.04367 0.42279 0.0
H342 H 0.44345 0.07087 0.44336 0.0
H343 H 0.36869 0.10294 0.49145 0.0
H344 H 0.30517 0.07594 0.47308 0.0
H345 H 0.29775 0.13149 0.47803 0.0
H346 H 0.26781 0.19363 0.34744 0.0
H347 H 0.18444 0.14795 0.33299 0.0
H348 H 0.256 0.05863 0.41224 0.0
C349 C 0.43522 0.16702 0.44918 0.0
C350 C 0.4515 0.20809 0.44248 0.0
C351 C 0.42013 0.2319 0.41549 0.0
C352 C 0.37311 0.21518 0.39515 0.0
C353 C 0.3578 0.1747 0.4024 0.0
C354 C 0.38725 0.15095 0.42895 0.0
C355 C 0.35791 0.10951 0.43293 0.0
C356 C 0.40521 0.0734 0.42328 0.0
C357 C 0.33081 0.10468 0.47114 0.0
C358 C 0.30659 0.11414 0.40499 0.0
C359 C 0.30855 0.15178 0.38736 0.0
C360 C 0.26562 0.16415 0.36109 0.0
C361 C 0.21813 0.13803 0.35329 0.0
C362 C 0.21314 0.10009 0.37192 0.0
C363 C 0.25895 0.08738 0.39749 0.0
H364 H 0.4189 0.90646 0.52754 0.0
H365 H 0.47209 0.79353 0.46819 0.0
H366 H 0.39497 0.81327 0.42168 0.0
H367 H 0.2484 0.90866 0.50325 0.0
H368 H 0.24296 0.96451 0.50054 0.0
H369 H 0.29685 0.93869 0.53142 0.0
H370 H 0.38645 0.97756 0.50234 0.0
H371 H 0.33309 1.00204 0.47052 0.0
H372 H 0.40166 0.97212 0.4546 0.0
H373 H 0.3262 0.8491 0.37763 0.0
H374 H 0.24529 0.89052 0.3447 0.0
H375 H 0.23146 0.98029 0.43212 0.0
C376 C 0.41243 0.8852 0.50544 0.0
C377 C 0.45124 0.84832 0.50159 0.0
C378 C 0.44213 0.82147 0.47211 0.0
C379 C 0.39916 0.83277 0.4452 0.0
C380 C 0.36497 0.87065 0.44849 0.0
C381 C 0.36907 0.8958 0.47841 0.0
C382 C 0.32669 0.93503 0.47481 0.0
C383 C 0.27568 0.93681 0.50424 0.0
C384 C 0.36431 0.97398 0.47561 0.0
C385 C 0.2995 0.92837 0.43773 0.0
C386 C 0.3232 0.89118 0.42305 0.0
C387 C 0.30647 0.87794 0.38901 0.0
C388 C 0.26105 0.90192 0.37037 0.0
C389 C 0.23239 0.9385 0.3859 0.0
C390 C 0.25347 0.95283 0.41943 0.0
H391 H 0.66141 0.15001 0.46925 0.0
H392 H 0.71141 0.27828 0.46817 0.0
H393 H 0.81829 0.25547 0.44891 0.0
H394 H 0.8128 0.10168 0.4974 0.0
H395 H 0.80845 0.05829 0.46715 0.0
H396 H 0.73789 0.0833 0.48575 0.0
H397 H 0.69481 0.09497 0.42209 0.0
H398 H 0.76489 0.07231 0.4012 0.0
H399 H 0.73727 0.12423 0.38976 0.0
H400 H 0.91603 0.21955 0.42279 0.0
H401 H -0.00282 0.17303 0.39358 0.0
H402 H 0.8828 0.0689 0.41052 0.0
C403 C 0.69499 0.17334 0.46553 0.0
C404 C 0.67781 0.21598 0.47053 0.0
C405 C 0.72348 0.24538 0.46531 0.0
C406 C 0.78437 0.23274 0.45414 0.0
C407 C 0.79906 0.1906 0.44842 0.0
C408 C 0.75579 0.16131 0.45422 0.0
C409 C 0.7814 0.11846 0.44289 0.0
C410 C 0.78535 0.08868 0.47522 0.0
C411 C 0.74224 0.10149 0.41221 0.0
C412 C 0.84568 0.12824 0.4296 0.0
C413 C 0.85508 0.16998 0.43305 0.0
C414 C 0.90945 0.1867 0.42041 0.0
C415 C 0.95518 0.16004 0.40367 0.0
C416 C 0.94622 0.11717 0.3997 0.0
C417 C 0.8911 0.10126 0.41335 0.0
loop_
_geom_bond_atom_site_label_1
_geom_bond_atom_site_label_2
_geom_bond_distance
_geom_bond_site_symmetry_2
_ccdc_geom_bond_type
H0 C7 0.929 . S
H1 C10 0.930 . S
H2 C12 0.929 . S
H3 C4 0.969 . S
C4 H3 0.969 . S
C4 O5 1.550 . S
C4 H6 0.973 . S
O5 C4 1.550 . S
O5 C11 1.412 . S
H6 C4 0.973 . S
C7 H0 0.929 . S
C7 C8 1.400 . S
C7 C9 1.364 . S
C8 C7 1.400 . S
C8 C12 1.377 1_556 S
C9 C7 1.364 . S
C9 C10 1.374 1_556 S
C10 H1 0.930 . S
C10 C9 1.374 1_554 S
C10 C11 1.383 . S
C11 O5 1.412 . S
C11 C10 1.383 . S
C11 C12 1.394 . S
C12 H2 0.929 . S
C12 C8 1.377 1_554 S
C12 C11 1.394 . S
H13 C20 0.929 . S
H14 C23 0.930 . S
H15 C25 0.929 . S
H16 C17 0.969 . S
C17 H16 0.969 . S
C17 O18 1.550 1_655 S
C17 H19 0.973 . S
O18 C17 1.550 1_455 S
O18 C24 1.412 . S
H19 C17 0.973 . S
C20 H13 0.929 . S
C20 C21 1.400 . S
C20 C22 1.364 1_455 S
C21 C20 1.400 . S
C21 C25 1.377 1_556 S
C22 C20 1.364 1_655 S
C22 C23 1.374 1_556 S
C23 H14 0.930 . S
C23 C22 1.374 1_554 S
C23 C24 1.383 1_655 S
C24 O18 1.412 . S
C24 C23 1.383 1_455 S
C24 C25 1.394 . S
C25 H15 0.929 . S
C25 C21 1.377 1_554 S
C25 C24 1.394 . S
H26 C33 0.929 . S
H27 C36 0.930 . S
H28 C38 0.929 . S
H29 C30 0.969 . S
C30 H29 0.969 . S
C30 O31 1.550 . S
C30 H32 0.973 . S
O31 C30 1.550 . S
O31 C37 1.412 . S
H32 C30 0.973 . S
C33 H26 0.929 . S
C33 C34 1.400 . S
C33 C35 1.364 . S
C34 C33 1.400 . S
C34 C38 1.377 . S
C35 C33 1.364 . S
C35 C36 1.374 . S
C36 H27 0.930 . S
C36 C35 1.374 . S
C36 C37 1.383 . S
C37 O31 1.412 . S
C37 C36 1.383 . S
C37 C38 1.394 . S
C38 H28 0.929 . S
C38 C34 1.377 . S
C38 C37 1.394 . S
H39 C46 0.929 . S
H40 C49 0.930 . S
H41 C51 0.929 . S
H42 C43 0.969 . S
C43 H42 0.969 . S
C43 O44 1.550 . S
C43 H45 0.973 . S
O44 C43 1.550 . S
O44 C50 1.412 . S
H45 C43 0.973 . S
C46 H39 0.929 . S
C46 C47 1.400 . S
C46 C48 1.364 . S
C47 C46 1.400 . S
C47 C51 1.377 . S
C48 C46 1.364 . S
C48 C49 1.374 . S
C49 H40 0.930 . S
C49 C48 1.374 . S
C49 C50 1.383 . S
C50 O44 1.412 . S
C50 C49 1.383 . S
C50 C51 1.394 . S
C51 H41 0.929 . S
C51 C47 1.377 . S
C51 C50 1.394 . S
Zn52 O58 1.920 . S
Zn52 O64 1.898 . S
Zn52 O67 1.905 1_455 S
Zn53 O61 1.905 . S
Zn53 O62 1.898 . S
Zn53 O70 1.920 . S
Zn54 O57 2.080 . S
Zn54 O60 2.114 1_545 S
Zn54 O63 2.120 1_545 S
Zn54 O65 2.120 . S
Zn54 O66 2.114 1_455 S
Zn54 O69 2.080 1_545 S
C55 O60 1.166 . S
C55 O61 1.182 . S
C56 O62 1.166 1_655 S
C56 O63 1.291 1_655 S
O57 Zn54 2.080 . S
O57 C71 1.305 . S
O58 Zn52 1.920 . S
O58 C71 1.234 . S
C59 O64 1.167 . S
C59 O65 1.299 . S
O60 Zn54 2.114 1_565 S
O60 C55 1.166 . S
O61 Zn53 1.905 . S
O61 C55 1.182 . S
O62 Zn53 1.898 . S
O62 C56 1.166 1_455 S
O63 Zn54 2.120 1_565 S
O63 C56 1.291 1_455 S
O64 Zn52 1.898 . S
O64 C59 1.167 . S
O65 Zn54 2.120 . S
O65 C59 1.299 . S
O66 Zn54 2.114 1_655 S
O66 C68 1.166 . S
O67 Zn52 1.905 1_655 S
O67 C68 1.182 . S
C68 O66 1.166 . S
C68 O67 1.182 . S
O69 Zn54 2.080 1_565 S
O69 C72 1.305 . S
O70 Zn53 1.920 . S
O70 C72 1.234 . S
C71 O57 1.305 . S
C71 O58 1.234 . S
C72 O69 1.305 . S
C72 O70 1.234 . S
Zn73 O79 1.920 . S
Zn73 O85 1.898 . S
Zn73 O88 1.905 . S
Zn74 O82 1.905 . S
Zn74 O83 1.898 . S
Zn74 O91 1.920 . S
Zn75 O78 2.080 . S
Zn75 O81 2.114 . S
Zn75 O84 2.120 . S
Zn75 O86 2.120 . S
Zn75 O87 2.114 . S
Zn75 O90 2.080 . S
C76 O81 1.166 . S
C76 O82 1.182 . S
C77 O83 1.167 . S
C77 O84 1.299 . S
O78 Zn75 2.080 . S
O78 C92 1.305 . S
O79 Zn73 1.920 . S
O79 C92 1.234 . S
C80 O85 1.167 . S
C80 O86 1.299 . S
O81 Zn75 2.114 . S
O81 C76 1.166 . S
O82 Zn74 1.905 . S
O82 C76 1.182 . S
O83 Zn74 1.898 . S
O83 C77 1.167 . S
O84 Zn75 2.120 . S
O84 C77 1.299 . S
O85 Zn73 1.898 . S
O85 C80 1.167 . S
O86 Zn75 2.120 . S
O86 C80 1.299 . S
O87 Zn75 2.114 . S
O87 C89 1.166 . S
O88 Zn73 1.905 . S
O88 C89 1.182 . S
C89 O87 1.166 . S
C89 O88 1.182 . S
O90 Zn75 2.080 . S
O90 C93 1.305 . S
O91 Zn74 1.920 . S
O91 C93 1.234 . S
C92 O78 1.305 . S
C92 O79 1.234 . S
C93 O90 1.305 . S
C93 O91 1.234 . S
H94 C106 0.930 . S
H95 C108 0.930 . S
H96 C109 0.930 . S
H97 C113 0.959 . S
H98 C113 0.959 . S
H99 C113 0.961 . S
H100 C114 0.960 . S
H101 C114 0.961 . S
H102 C114 0.959 . S
H103 C117 0.929 . S
H104 C118 0.931 . S
H105 C120 0.930 . S
C106 H94 0.930 . S
C106 C107 1.399 . S
C106 C111 1.399 . S
C107 C106 1.399 . S
C107 C108 1.376 . S
C108 H95 0.930 . S
C108 C107 1.376 . S
C108 C109 1.388 . S
C109 H96 0.930 . S
C109 C108 1.388 . S
C109 C110 1.390 . S
C110 C109 1.390 . S
C110 C111 1.394 . S
C110 C116 1.465 . S
C111 C106 1.399 . S
C111 C110 1.394 . S
C111 C112 1.516 . S
C112 C111 1.516 . S
C112 C113 1.502 . S
C112 C114 1.561 . S
C112 C115 1.526 . S
C113 H97 0.959 . S
C113 H98 0.959 . S
C113 H99 0.961 . S
C113 C112 1.502 . S
C114 H100 0.960 . S
C114 H101 0.961 . S
C114 H102 0.959 . S
C114 C112 1.561 . S
C115 C112 1.526 . S
C115 C116 1.396 . S
C115 C120 1.390 . S
C116 C110 1.465 . S
C116 C115 1.396 . S
C116 C117 1.399 . S
C117 H103 0.929 . S
C117 C116 1.399 . S
C117 C118 1.385 . S
C118 H104 0.931 . S
C118 C117 1.385 . S
C118 C119 1.389 . S
C119 C118 1.389 . S
C119 C120 1.387 . S
C120 H105 0.930 . S
C120 C115 1.390 . S
C120 C119 1.387 . S
H121 C133 0.930 . S
H122 C135 0.930 . S
H123 C136 0.930 . S
H124 C140 0.959 . S
H125 C140 0.959 . S
H126 C140 0.961 . S
H127 C141 0.960 . S
H128 C141 0.961 . S
H129 C141 0.959 . S
H130 C144 0.929 . S
H131 C145 0.931 . S
H132 C147 0.930 . S
C133 H121 0.930 . S
C133 C134 1.399 1_455 S
C133 C138 1.399 . S
C134 C133 1.399 1_655 S
C134 C135 1.376 . S
C135 H122 0.930 . S
C135 C134 1.376 . S
C135 C136 1.388 . S
C136 H123 0.930 . S
C136 C135 1.388 . S
C136 C137 1.390 . S
C137 C136 1.390 . S
C137 C138 1.394 1_655 S
C137 C143 1.465 1_655 S
C138 C133 1.399 . S
C138 C137 1.394 1_455 S
C138 C139 1.516 . S
C139 C138 1.516 . S
C139 C140 1.502 . S
C139 C141 1.561 . S
C139 C142 1.526 . S
C140 H124 0.959 . S
C140 H125 0.959 . S
C140 H126 0.961 . S
C140 C139 1.502 . S
C141 H127 0.960 . S
C141 H128 0.961 . S
C141 H129 0.959 . S
C141 C139 1.561 . S
C142 C139 1.526 . S
C142 C143 1.396 . S
C142 C147 1.390 . S
C143 C137 1.465 1_455 S
C143 C142 1.396 . S
C143 C144 1.399 1_455 S
C144 H130 0.929 . S
C144 C143 1.399 1_655 S
C144 C145 1.385 . S
C145 H131 0.931 . S
C145 C144 1.385 . S
C145 C146 1.389 1_655 S
C146 C145 1.389 1_455 S
C146 C147 1.387 . S
C147 H132 0.930 . S
C147 C142 1.390 . S
C147 C146 1.387 . S
H148 C160 0.930 . S
H149 C162 0.930 . S
H150 C163 0.930 . S
H151 C167 0.959 . S
H152 C167 0.959 . S
H153 C167 0.961 . S
H154 C168 0.960 . S
H155 C168 0.961 . S
H156 C168 0.959 . S
H157 C171 0.929 . S
H158 C172 0.931 . S
H159 C174 0.930 . S
C160 H148 0.930 . S
C160 C161 1.399 . S
C160 C165 1.399 . S
C161 C160 1.399 . S
C161 C162 1.376 . S
C162 H149 0.930 . S
C162 C161 1.376 . S
C162 C163 1.388 . S
C163 H150 0.930 . S
C163 C162 1.388 . S
C163 C164 1.390 . S
C164 C163 1.390 . S
C164 C165 1.394 . S
C164 C170 1.465 . S
C165 C160 1.399 . S
C165 C164 1.394 . S
C165 C166 1.516 . S
C166 C165 1.516 . S
C166 C167 1.502 . S
C166 C168 1.561 . S
C166 C169 1.526 . S
C167 H151 0.959 . S
C167 H152 0.959 . S
C167 H153 0.961 . S
C167 C166 1.502 . S
C168 H154 0.960 . S
C168 H155 0.961 . S
C168 H156 0.959 . S
C168 C166 1.561 . S
C169 C166 1.526 . S
C169 C170 1.396 . S
C169 C174 1.390 . S
C170 C164 1.465 . S
C170 C169 1.396 . S
C170 C171 1.399 . S
C171 H157 0.929 . S
C171 C170 1.399 . S
C171 C172 1.385 . S
C172 H158 0.931 . S
C172 C171 1.385 . S
C172 C173 1.389 . S
C173 C172 1.389 . S
C173 C174 1.387 . S
C174 H159 0.930 . S
C174 C169 1.390 . S
C174 C173 1.387 . S
H175 C187 0.930 . S
H176 C189 0.930 . S
H177 C190 0.930 . S
H178 C194 0.959 . S
H179 C194 0.959 . S
H180 C194 0.961 . S
H181 C195 0.960 . S
H182 C195 0.961 . S
H183 C195 0.959 . S
H184 C198 0.929 . S
H185 C199 0.931 . S
H186 C201 0.930 . S
C187 H175 0.930 . S
C187 C188 1.399 . S
C187 C192 1.399 . S
C188 C187 1.399 . S
C188 C189 1.376 . S
C189 H176 0.930 . S
C189 C188 1.376 . S
C189 C190 1.388 . S
C190 H177 0.930 . S
C190 C189 1.388 . S
C190 C191 1.390 . S
C191 C190 1.390 . S
C191 C192 1.394 . S
C191 C197 1.465 . S
C192 C187 1.399 . S
C192 C191 1.394 . S
C192 C193 1.516 . S
C193 C192 1.516 . S
C193 C194 1.502 . S
C193 C195 1.561 . S
C193 C196 1.526 . S
C194 H178 0.959 . S
C194 H179 0.959 . S
C194 H180 0.961 . S
C194 C193 1.502 . S
C195 H181 0.960 . S
C195 H182 0.961 . S
C195 H183 0.959 . S
C195 C193 1.561 . S
C196 C193 1.526 . S
C196 C197 1.396 . S
C196 C201 1.390 . S
C197 C191 1.465 . S
C197 C196 1.396 . S
C197 C198 1.399 . S
C198 H184 0.929 . S
C198 C197 1.399 . S
C198 C199 1.385 . S
C199 H185 0.931 . S
C199 C198 1.385 . S
C199 C200 1.389 . S
C200 C199 1.389 . S
C200 C201 1.387 . S
C201 H186 0.930 . S
C201 C196 1.390 . S
C201 C200 1.387 . S
H202 C214 0.930 . S
H203 C216 0.930 1_554 S
H204 C217 0.930 . S
H205 C221 0.959 . S
H206 C221 0.959 . S
H207 C221 0.961 . S
H208 C222 0.960 . S
H209 C222 0.961 . S
H210 C222 0.959 . S
H211 C225 0.929 . S
H212 C226 0.931 . S
H213 C228 0.930 . S
C214 H202 0.930 . S
C214 C215 1.399 . S
C214 C219 1.399 . S
C215 C214 1.399 . S
C215 C216 1.376 . S
C216 H203 0.930 1_556 S
C216 C215 1.376 . S
C216 C217 1.388 . S
C217 H204 0.930 . S
C217 C216 1.388 . S
C217 C218 1.390 . S
C218 C217 1.390 . S
C218 C219 1.394 . S
C218 C224 1.465 . S
C219 C214 1.399 . S
C219 C218 1.394 . S
C219 C220 1.516 . S
C220 C219 1.516 . S
C220 C221 1.502 . S
C220 C222 1.561 . S
C220 C223 1.526 . S
C221 H205 0.959 . S
C221 H206 0.959 . S
C221 H207 0.961 . S
C221 C220 1.502 . S
C222 H208 0.960 . S
C222 H209 0.961 . S
C222 H210 0.959 . S
C222 C220 1.561 . S
C223 C220 1.526 . S
C223 C224 1.396 . S
C223 C228 1.390 . S
C224 C218 1.465 . S
C224 C223 1.396 . S
C224 C225 1.399 . S
C225 H211 0.929 . S
C225 C224 1.399 . S
C225 C226 1.385 . S
C226 H212 0.931 . S
C226 C225 1.385 . S
C226 C227 1.389 . S
C227 C226 1.389 . S
C227 C228 1.387 . S
C228 H213 0.930 . S
C228 C223 1.390 . S
C228 C227 1.387 . S
H229 C241 0.930 1_554 S
H230 C243 0.930 . S
H231 C244 0.930 . S
H232 C248 0.959 . S
H233 C248 0.959 1_554 S
H234 C248 0.961 1_554 S
H235 C249 0.960 . S
H236 C249 0.961 . S
H237 C249 0.959 . S
H238 C252 0.929 . S
H239 C253 0.931 . S
H240 C255 0.930 . S
C241 H229 0.930 1_556 S
C241 C242 1.399 . S
C241 C246 1.399 . S
C242 C241 1.399 . S
C242 C243 1.376 . S
C243 H230 0.930 . S
C243 C242 1.376 . S
C243 C244 1.388 . S
C244 H231 0.930 . S
C244 C243 1.388 . S
C244 C245 1.390 . S
C245 C244 1.390 . S
C245 C246 1.394 . S
C245 C251 1.465 . S
C246 C241 1.399 . S
C246 C245 1.394 . S
C246 C247 1.516 . S
C247 C246 1.516 . S
C247 C248 1.502 . S
C247 C249 1.561 1_556 S
C247 C250 1.526 . S
C248 H232 0.959 . S
C248 H233 0.959 1_556 S
C248 H234 0.961 1_556 S
C248 C247 1.502 . S
C249 H235 0.960 . S
C249 H236 0.961 . S
C249 H237 0.959 . S
C249 C247 1.561 1_554 S
C250 C247 1.526 . S
C250 C251 1.396 . S
C250 C255 1.390 . S
C251 C245 1.465 . S
C251 C250 1.396 . S
C251 C252 1.399 . S
C252 H238 0.929 . S
C252 C251 1.399 . S
C252 C253 1.385 . S
C253 H239 0.931 . S
C253 C252 1.385 . S
C253 C254 1.389 . S
C254 C253 1.389 . S
C254 C255 1.387 . S
C255 H240 0.930 . S
C255 C250 1.390 . S
C255 C254 1.387 . S
H256 C268 0.930 . S
H257 C270 0.930 . S
H258 C271 0.930 . S
H259 C275 0.959 . S
H260 C275 0.959 . S
H261 C275 0.961 . S
H262 C276 0.960 . S
H263 C276 0.961 . S
H264 C276 0.959 . S
H265 C279 0.929 . S
H266 C280 0.931 . S
H267 C282 0.930 . S
C268 H256 0.930 . S
C268 C269 1.399 1_655 S
C268 C273 1.399 . S
C269 C268 1.399 1_455 S
C269 C270 1.376 . S
C270 H257 0.930 . S
C270 C269 1.376 . S
C270 C271 1.388 1_455 S
C271 H258 0.930 . S
C271 C270 1.388 1_655 S
C271 C272 1.390 . S
C272 C271 1.390 . S
C272 C273 1.394 . S
C272 C278 1.465 . S
C273 C268 1.399 . S
C273 C272 1.394 . S
C273 C274 1.516 . S
C274 C273 1.516 . S
C274 C275 1.502 . S
C274 C276 1.561 . S
C274 C277 1.526 . S
C275 H259 0.959 . S
C275 H260 0.959 . S
C275 H261 0.961 . S
C275 C274 1.502 . S
C276 H262 0.960 . S
C276 H263 0.961 . S
C276 H264 0.959 . S
C276 C274 1.561 . S
C277 C274 1.526 . S
C277 C278 1.396 . S
C277 C282 1.390 . S
C278 C272 1.465 . S
C278 C277 1.396 . S
C278 C279 1.399 . S
C279 H265 0.929 . S
C279 C278 1.399 . S
C279 C280 1.385 . S
C280 H266 0.931 . S
C280 C279 1.385 . S
C280 C281 1.389 . S
C281 C280 1.389 . S
C281 C282 1.387 . S
C282 H267 0.930 . S
C282 C277 1.390 . S
C282 C281 1.387 . S
H283 C295 0.930 1_554 S
H284 C297 0.930 . S
H285 C298 0.930 . S
H286 C302 0.959 . S
H287 C302 0.959 . S
H288 C302 0.961 1_554 S
H289 C303 0.960 1_554 S
H290 C303 0.967 . S
H291 C303 0.959 . S
H292 C306 0.929 . S
H293 C307 0.931 . S
H294 C309 0.930 . S
C295 H283 0.930 1_556 S
C295 C296 1.399 . S
C295 C300 1.399 . S
C296 C295 1.399 . S
C296 C297 1.376 . S
C297 H284 0.930 . S
C297 C296 1.376 . S
C297 C298 1.388 . S
C298 H285 0.930 . S
C298 C297 1.388 . S
C298 C299 1.390 . S
C299 C298 1.390 . S
C299 C300 1.394 . S
C299 C305 1.465 . S
C300 C295 1.399 . S
C300 C299 1.394 . S
C300 C301 1.516 . S
C301 C300 1.516 . S
C301 C302 1.502 . S
C301 C303 1.561 . S
C301 C304 1.526 . S
C302 H286 0.959 . S
C302 H287 0.959 . S
C302 H288 0.961 1_556 S
C302 C301 1.502 . S
C303 H289 0.960 1_556 S
C303 H290 0.967 . S
C303 H291 0.959 . S
C303 C301 1.561 . S
C304 C301 1.526 . S
C304 C305 1.396 . S
C304 C309 1.390 . S
C305 C299 1.465 . S
C305 C304 1.396 . S
C305 C306 1.399 . S
C306 H292 0.929 . S
C306 C305 1.399 . S
C306 C307 1.385 . S
C307 H293 0.931 . S
C307 C306 1.385 . S
C307 C308 1.389 . S
C308 C307 1.389 . S
C308 C309 1.387 . S
C309 H294 0.930 . S
C309 C304 1.390 . S
C309 C308 1.387 . S
H310 C322 0.930 . S
H311 C324 0.930 . S
H312 C325 0.930 . S
H313 C329 0.959 . S
H314 C329 0.959 . S
H315 C329 0.961 . S
H316 C330 0.960 . S
H317 C330 0.961 . S
H318 C330 0.959 . S
H319 C333 0.929 . S
H320 C334 0.931 . S
H321 C336 0.930 . S
C322 H310 0.930 . S
C322 C323 1.399 . S
C322 C327 1.399 . S
C323 C322 1.399 . S
C323 C324 1.376 . S
C324 H311 0.930 . S
C324 C323 1.376 . S
C324 C325 1.388 . S
C325 H312 0.930 . S
C325 C324 1.388 . S
C325 C326 1.390 . S
C326 C325 1.390 . S
C326 C327 1.394 . S
C326 C332 1.465 . S
C327 C322 1.399 . S
C327 C326 1.394 . S
C327 C328 1.516 . S
C328 C327 1.516 . S
C328 C329 1.502 . S
C328 C330 1.561 . S
C328 C331 1.526 . S
C329 H313 0.959 . S
C329 H314 0.959 . S
C329 H315 0.961 . S
C329 C328 1.502 . S
C330 H316 0.960 . S
C330 H317 0.961 . S
C330 H318 0.959 . S
C330 C328 1.561 . S
C331 C328 1.526 . S
C331 C332 1.396 . S
C331 C336 1.390 . S
C332 C326 1.465 . S
C332 C331 1.396 . S
C332 C333 1.399 . S
C333 H319 0.929 . S
C333 C332 1.399 . S
C333 C334 1.385 . S
C334 H320 0.931 . S
C334 C333 1.385 . S
C334 C335 1.389 . S
C335 C334 1.389 . S
C335 C336 1.387 . S
C336 H321 0.930 . S
C336 C331 1.390 . S
C336 C335 1.387 . S
H337 C349 0.930 . S
H338 C351 0.930 . S
H339 C352 0.930 . S
H340 C356 0.959 . S
H341 C356 0.959 . S
H342 C356 0.961 . S
H343 C357 0.960 . S
H344 C357 0.961 . S
H345 C357 0.959 . S
H346 C360 0.929 . S
H347 C361 0.931 . S
H348 C363 0.930 . S
C349 H337 0.930 . S
C349 C350 1.399 . S
C349 C354 1.399 . S
C350 C349 1.399 . S
C350 C351 1.376 . S
C351 H338 0.930 . S
C351 C350 1.376 . S
C351 C352 1.388 . S
C352 H339 0.930 . S
C352 C351 1.388 . S
C352 C353 1.390 . S
C353 C352 1.390 . S
C353 C354 1.394 . S
C353 C359 1.465 . S
C354 C349 1.399 . S
C354 C353 1.394 . S
C354 C355 1.516 . S
C355 C354 1.516 . S
C355 C356 1.502 . S
C355 C357 1.561 . S
C355 C358 1.526 . S
C356 H340 0.959 . S
C356 H341 0.959 . S
C356 H342 0.961 . S
C356 C355 1.502 . S
C357 H343 0.960 . S
C357 H344 0.961 . S
C357 H345 0.959 . S
C357 C355 1.561 . S
C358 C355 1.526 . S
C358 C359 1.396 . S
C358 C363 1.390 . S
C359 C353 1.465 . S
C359 C358 1.396 . S
C359 C360 1.399 . S
C360 H346 0.929 . S
C360 C359 1.399 . S
C360 C361 1.385 . S
C361 H347 0.931 . S
C361 C360 1.385 . S
C361 C362 1.389 . S
C362 C361 1.389 . S
C362 C363 1.387 . S
C363 H348 0.930 . S
C363 C358 1.390 . S
C363 C362 1.387 . S
H364 C376 0.930 . S
H365 C378 0.930 . S
H366 C379 0.930 . S
H367 C383 0.959 . S
H368 C383 0.959 . S
H369 C383 0.961 . S
H370 C384 0.960 . S
H371 C384 0.961 . S
H372 C384 0.959 . S
H373 C387 0.929 . S
H374 C388 0.931 . S
H375 C390 0.930 . S
C376 H364 0.930 . S
C376 C377 1.399 . S
C376 C381 1.399 . S
C377 C376 1.399 . S
C377 C378 1.376 . S
C378 H365 0.930 . S
C378 C377 1.376 . S
C378 C379 1.388 . S
C379 H366 0.930 . S
C379 C378 1.388 . S
C379 C380 1.390 . S
C380 C379 1.390 . S
C380 C381 1.394 . S
C380 C386 1.465 . S
C381 C376 1.399 . S
C381 C380 1.394 . S
C381 C382 1.516 . S
C382 C381 1.516 . S
C382 C383 1.502 . S
C382 C384 1.561 . S
C382 C385 1.526 . S
C383 H367 0.959 . S
C383 H368 0.959 . S
C383 H369 0.961 . S
C383 C382 1.502 . S
C384 H370 0.960 . S
C384 H371 0.961 . S
C384 H372 0.959 . S
C384 C382 1.561 . S
C385 C382 1.526 . S
C385 C386 1.396 . S
C385 C390 1.390 . S
C386 C380 1.465 . S
C386 C385 1.396 . S
C386 C387 1.399 . S
C387 H373 0.929 . S
C387 C386 1.399 . S
C387 C388 1.385 . S
C388 H374 0.931 . S
C388 C387 1.385 . S
C388 C389 1.389 . S
C389 C388 1.389 . S
C389 C390 1.387 . S
C390 H375 0.930 . S
C390 C385 1.390 . S
C390 C389 1.387 . S
H391 C403 0.930 . S
H392 C405 0.930 . S
H393 C406 0.930 . S
H394 C410 0.959 . S
H395 C410 0.959 . S
H396 C410 0.961 . S
H397 C411 0.960 . S
H398 C411 0.961 . S
H399 C411 0.959 . S
H400 C414 0.929 . S
H401 C415 0.931 . S
H402 C417 0.930 . S
C403 H391 0.930 . S
C403 C404 1.399 . S
C403 C408 1.399 . S
C404 C403 1.399 . S
C404 C405 1.376 . S
C405 H392 0.930 . S
C405 C404 1.376 . S
C405 C406 1.388 . S
C406 H393 0.930 . S
C406 C405 1.388 . S
C406 C407 1.390 . S
C407 C406 1.390 . S
C407 C408 1.394 . S
C407 C413 1.465 . S
C408 C403 1.399 . S
C408 C407 1.394 . S
C408 C409 1.516 . S
C409 C408 1.516 . S
C409 C410 1.502 . S
C409 C411 1.561 . S
C409 C412 1.526 . S
C410 H394 0.959 . S
C410 H395 0.959 . S
C410 H396 0.961 . S
C410 C409 1.502 . S
C411 H397 0.960 . S
C411 H398 0.961 . S
C411 H399 0.959 . S
C411 C409 1.561 . S
C412 C409 1.526 . S
C412 C413 1.396 . S
C412 C417 1.390 . S
C413 C407 1.465 . S
C413 C412 1.396 . S
C413 C414 1.399 . S
C414 H400 0.929 . S
C414 C413 1.399 . S
C414 C415 1.385 . S
C415 H401 0.931 . S
C415 C414 1.385 . S
C415 C416 1.389 . S
C416 C415 1.389 . S
C416 C417 1.387 . S
C417 H402 0.930 . S
C417 C412 1.390 . S
C417 C416 1.387 . S
C119 C59 1.447 . S
C107 C4 1.508 . S
C146 C55 1.463 . S
C134 C17 1.503 . S
C173 C80 1.368 . S
C161 C30 1.434 . S
C188 C43 1.446 . S
C200 C76 1.393 . S
C215 C9 1.202 . S
C227 C77 1.199 . S
C254 C92 1.063 . S
C242 C22 1.291 . S
C269 C8 1.709 . S
C281 C93 1.623 . S
C308 C89 1.608 . S
C296 C21 1.728 . S
C335 C56 1.058 . S
C323 C35 1.269 . S
C350 C48 1.292 . S
C362 C71 1.062 . S
C389 C72 1.553 . S
C377 C34 1.724 . S
C416 C68 1.541 . S
C404 C47 1.743 . S
