# Generated by pormake.
# Topology pth, (4,4)-cn, num edge types: 1
# Building blocks:
#     Node 0, Type 0, BuildingBlock: QUQFOY_clean_sbu_1, # of connection points: 4
#     Node 1, Type 0, BuildingBlock: QUQFOY_clean_sbu_1, # of connection points: 4
#     Node 2, Type 0, BuildingBlock: QUQFOY_clean_sbu_1, # of connection points: 4
#     Node 3, Type 1, BuildingBlock: MUDLON_clean_linker_0, # of connection points: 4
#     Node 4, Type 1, BuildingBlock: MUDLON_clean_linker_0, # of connection points: 4
#     Node 5, Type 1, BuildingBlock: MUDLON_clean_linker_0, # of connection points: 4
#     Edge 6, Type (0, 1), BuildingBlock: AJUNOK_clean_linker_0, # of connection points: 2
#     Edge 7, Type (0, 1), BuildingBlock: AJUNOK_clean_linker_0, # of connection points: 2
#     Edge 8, Type (0, 1), BuildingBlock: AJUNOK_clean_linker_0, # of connection points: 2
#     Edge 9, Type (0, 1), BuildingBlock: AJUNOK_clean_linker_0, # of connection points: 2
#     Edge 10, Type (0, 1), BuildingBlock: AJUNOK_clean_linker_0, # of connection points: 2
#     Edge 11, Type (0, 1), BuildingBlock: AJUNOK_clean_linker_0, # of connection points: 2
#     Edge 12, Type (0, 1), BuildingBlock: AJUNOK_clean_linker_0, # of connection points: 2
#     Edge 13, Type (0, 1), BuildingBlock: AJUNOK_clean_linker_0, # of connection points: 2
#     Edge 14, Type (0, 1), BuildingBlock: AJUNOK_clean_linker_0, # of connection points: 2
#     Edge 15, Type (0, 1), BuildingBlock: AJUNOK_clean_linker_0, # of connection points: 2
#     Edge 16, Type (0, 1), BuildingBlock: AJUNOK_clean_linker_0, # of connection points: 2
#     Edge 17, Type (0, 1), BuildingBlock: AJUNOK_clean_linker_0, # of connection points: 2
# Relax obj value: 0.054
# Max RMSD: 0.153
# Mean RMSD: 0.116
data_MOF--net-pth--node1-QUQFOY_clean_sbu_1--node2-MUDLON_clean_linker_0--edge1-AJUNOK_clean_linker_0
_symmetry_space_group_name_H-M    P1
_symmetry_Int_Tables_number       1
_symmetry_cell_setting            triclinic
loop_
_symmetry_equiv_pos_as_xyz
'x, y, z'
_cell_length_a     26.2067
_cell_length_b     27.943653
_cell_length_c     56.209119
_cell_angle_alpha  89.914027
_cell_angle_beta   90.001047
_cell_angle_gamma 119.94119
loop_
_atom_site_label
_atom_site_type_symbol
_atom_site_fract_x
_atom_site_fract_y
_atom_site_fract_z
_atom_type_partial_charge
O0 O 0.0462 0.09153 0.01242 0.0
Cd1 Cd 0.97826 0.04076 0.03486 0.0
Cd2 Cd 0.03694 0.98595 0.03411 0.0
O3 O 0.10426 0.05694 0.01891 0.0
O4 O 0.94627 0.08713 0.04795 0.0
O5 O 0.99248 0.05475 0.06983 0.0
C6 C 0.96778 0.08471 0.06827 0.0
C7 C 0.04584 0.94248 0.06803 0.0
C8 C 0.09513 0.09327 0.00929 0.0
C9 C 0.91951 0.9341 0.00942 0.0
O10 O 0.96861 0.93585 0.01186 0.0
O11 O 0.91067 0.96989 0.0197 0.0
O12 O 0.06702 0.93859 0.04784 0.0
O13 O 0.02269 0.9738 0.06908 0.0
O14 O 0.94902 0.04517 0.38851 0.0
Cd15 Cd 0.0248 0.06679 0.36975 0.0
Cd16 Cd 0.97705 0.9555 0.36961 0.0
O17 O 0.90739 0.95438 0.38745 0.0
O18 O 0.05184 0.14465 0.36026 0.0
O19 O 0.02623 0.07725 0.33422 0.0
C20 C 0.04268 0.12839 0.33844 0.0
C21 C 0.96422 0.90024 0.33648 0.0
C22 C 0.90685 0.99766 0.39399 0.0
C23 C 0.09174 0.02272 0.39587 0.0
O24 O 0.05007 0.97537 0.38991 0.0
O25 O 0.09206 0.06625 0.38895 0.0
O26 O 0.95035 0.87949 0.35759 0.0
O27 O 0.98311 0.95247 0.33409 0.0
O28 O 0.92831 0.97982 0.67858 0.0
Cd29 Cd 0.97542 0.96192 0.70265 0.0
Cd30 Cd 0.04324 0.07119 0.70236 0.0
O31 O 0.9734 0.06994 0.68447 0.0
O32 O 0.92075 0.88784 0.71672 0.0
O33 O 0.96078 0.96555 0.73738 0.0
C34 C 0.92591 0.91275 0.73665 0.0
C35 C 0.08735 0.12524 0.73594 0.0
C36 C 0.93291 0.0266 0.6746 0.0
C37 C 0.09119 1.0038 0.6797 0.0
O38 O 0.09603 0.05104 0.68244 0.0
O39 O 0.04743 0.96108 0.68851 0.0
O40 O 0.09727 0.14692 0.71496 0.0
O41 O 0.05024 0.07308 0.73787 0.0
H42 H 0.8704 0.64371 0.22869 0.0
N43 N 0.95885 0.66728 0.19896 0.0
H44 H 0.87051 0.69937 0.2625 0.0
H45 H 0.05601 0.75551 0.21844 0.0
H46 H 0.05645 0.81086 0.25214 0.0
H47 H 0.06699 0.72513 0.1775 0.0
H48 H 0.09411 0.79536 0.1462 0.0
H49 H 0.88744 0.69061 0.17467 0.0
H50 H 0.91411 0.76039 0.14344 0.0
H51 H 0.89704 0.56861 0.17912 0.0
H52 H 0.05641 0.66951 0.21849 0.0
H53 H 0.91894 0.4933 0.17856 0.0
H54 H 0.07729 0.59375 0.21919 0.0
H55 H 0.9631 0.30926 0.23301 0.0
H56 H 0.96483 0.25721 0.2677 0.0
H57 H 0.13933 0.2916 0.24856 0.0
H58 H 0.13803 0.34493 0.214 0.0
H59 H 0.11657 0.36108 0.16294 0.0
H60 H 0.09089 0.29229 0.13131 0.0
H61 H 0.91344 0.20114 0.15848 0.0
H62 H 0.93975 0.26916 0.19045 0.0
H63 H 0.94062 0.34929 0.20146 0.0
H64 H 0.92052 0.42531 0.20228 0.0
H65 H 0.10708 0.54157 0.19648 0.0
N66 N 0.04948 0.35742 0.19894 0.0
H67 H 0.12673 0.46471 0.19701 0.0
C68 C 0.96294 0.6952 0.22106 0.0
C69 C 0.91135 0.67949 0.23408 0.0
C70 C 0.91144 0.71141 0.25325 0.0
C71 C 0.96325 0.75997 0.25959 0.0
C72 C 0.01563 0.77427 0.24728 0.0
C73 C 0.01554 0.74223 0.22819 0.0
C74 C 0.97495 0.70254 0.17832 0.0
C75 C 0.03325 0.73195 0.16986 0.0
C76 C 0.04874 0.77216 0.15209 0.0
C77 C 1.00639 0.78394 0.14281 0.0
C78 C 0.94784 0.75291 0.15066 0.0
C79 C 0.9324 0.7127 0.16824 0.0
C80 C 0.97444 0.62447 0.19901 0.0
C81 C 0.93656 0.57427 0.18782 0.0
C82 C 0.94898 0.53108 0.18773 0.0
C83 C 0.99966 0.53684 0.19907 0.0
C84 C 0.03814 0.58769 0.21006 0.0
C85 C 0.02594 0.63117 0.20989 0.0
C86 C 0.05109 0.33202 0.22106 0.0
C87 C 1.00234 0.30697 0.23647 0.0
C88 C 1.00322 0.27696 0.25628 0.0
C89 C 0.05229 0.27064 0.26074 0.0
C90 C 0.10104 0.29595 0.24546 0.0
C91 C 0.10051 0.32665 0.22591 0.0
C92 C 0.03005 0.32089 0.17876 0.0
C93 C 0.07187 0.32687 0.16175 0.0
C94 C 0.05729 0.28749 0.14388 0.0
C95 C 1.00024 0.24165 0.14254 0.0
C96 C 0.95754 0.23652 0.15905 0.0
C97 C 0.97244 0.27561 0.17718 0.0
C98 C 0.03551 0.40126 0.19945 0.0
C99 C 0.97733 0.39097 0.20067 0.0
C100 C 0.96583 0.43483 0.20084 0.0
C101 C 0.0121 0.49004 0.1994 0.0
C102 C 0.07025 0.49994 0.19805 0.0
C103 C 0.08165 0.45604 0.19818 0.0
H104 H 0.78712 0.14071 0.56272 0.0
N105 N 0.7147 0.05981 0.53407 0.0
H106 H 0.83773 0.13386 0.59799 0.0
H107 H 0.70295 0.96452 0.55323 0.0
H108 H 0.7477 0.95636 0.58974 0.0
H109 H 0.66465 0.95843 0.51208 0.0
H110 H 0.69895 0.9364 0.47551 0.0
H111 H 0.80616 0.1271 0.50758 0.0
H112 H 0.84229 0.1049 0.47153 0.0
H113 H 0.67544 0.12766 0.52235 0.0
H114 H 0.61702 0.96275 0.54805 0.0
H115 H 0.57323 0.1082 0.52233 0.0
H116 H 0.51611 0.94362 0.54855 0.0
H117 H 0.28577 0.05915 0.55089 0.0
H118 H 0.24376 0.06664 0.58845 0.0
H119 H 0.21603 0.90672 0.60977 0.0
H120 H 0.25563 0.8984 0.57145 0.0
H121 H 0.19711 0.90184 0.51276 0.0
H122 H 0.15618 0.92066 0.47718 0.0
H123 H 0.30324 0.08755 0.47543 0.0
H124 H 0.34252 0.06905 0.51154 0.0
H125 H 0.38981 0.0679 0.55002 0.0
H126 H 0.49268 0.09019 0.54991 0.0
H127 H 0.44025 0.9298 0.51994 0.0
N128 N 0.29476 0.97036 0.5358 0.0
H129 H 0.3373 0.90756 0.52061 0.0
C130 C 0.74024 0.05325 0.55565 0.0
C131 C 0.77818 0.10039 0.56872 0.0
C132 C 0.80638 0.09623 0.58908 0.0
C133 C 0.79586 0.04437 0.59714 0.0
C134 C 0.75696 0.99701 0.58411 0.0
C135 C 0.73036 1.00147 0.56335 0.0
C136 C 0.73284 0.04481 0.51249 0.0
C137 C 0.70311 0.99078 0.50328 0.0
C138 C 0.72305 0.97805 0.48243 0.0
C139 C 0.77347 0.01884 0.47066 0.0
C140 C 0.80286 0.0727 0.47998 0.0
C141 C 0.78261 0.08545 0.50062 0.0
C142 C 0.65428 0.04706 0.53522 0.0
C143 C 0.64071 0.08752 0.52816 0.0
C144 C 0.58246 0.0764 0.52826 0.0
C145 C 0.53661 0.02429 0.53538 0.0
C146 C 0.55035 0.98391 0.54265 0.0
C147 C 0.6085 0.99508 0.54255 0.0
C148 C 0.2729 0.97762 0.55823 0.0
C149 C 0.27066 0.02567 0.56359 0.0
C150 C 0.24744 0.03027 0.58528 0.0
C151 C 0.22719 0.98752 0.60225 0.0
C152 C 0.23103 0.94023 0.59705 0.0
C153 C 0.25361 0.93541 0.57524 0.0
C154 C 0.27278 0.98361 0.51475 0.0
C155 C 0.22032 0.94246 0.5047 0.0
C156 C 0.19732 0.95324 0.48433 0.0
C157 C 0.22653 1.00562 0.47349 0.0
C158 C 0.27931 0.04704 0.48355 0.0
C159 C 0.30209 0.03629 0.5041 0.0
C160 C 0.35596 0.98573 0.53544 0.0
C161 C 0.40048 0.03758 0.54345 0.0
C162 C 0.45929 0.05039 0.54324 0.0
C163 C 0.47452 1.01163 0.53504 0.0
C164 C 0.42984 0.96018 0.52674 0.0
C165 C 0.37118 0.94748 0.52696 0.0
H166 H 0.67354 0.81464 0.89411 0.0
N167 N 0.65415 0.72082 0.87445 0.0
H168 H 0.73243 0.85981 0.92949 0.0
H169 H 0.70062 0.67625 0.90531 0.0
H170 H 0.75684 0.71972 0.9413 0.0
H171 H 0.7572 0.72075 0.86572 0.0
H172 H 0.82416 0.76507 0.83214 0.0
H173 H 0.6404 0.77448 0.8382 0.0
H174 H 0.70848 0.8204 0.80487 0.0
H175 H 0.54171 0.67482 0.88688 0.0
H176 H 0.67066 0.63433 0.86126 0.0
H177 H 0.4675 0.57662 0.8876 0.0
H178 H 0.59679 0.5372 0.86079 0.0
H179 H 0.31207 0.35914 0.90771 0.0
H180 H 0.25758 0.31257 0.94365 0.0
H181 H 0.27663 0.17156 0.92669 0.0
H182 H 0.33394 0.21972 0.89131 0.0
H183 H 0.24443 0.3042 0.86961 0.0
H184 H 0.1768 0.26135 0.83617 0.0
H185 H 0.30888 0.24024 0.79951 0.0
H186 H 0.37625 0.28225 0.83327 0.0
H187 H 0.33515 0.40191 0.86343 0.0
H188 H 0.40837 0.49991 0.86292 0.0
H189 H 0.54114 0.46143 0.88621 0.0
N190 N 0.35475 0.3164 0.8742 0.0
H191 H 0.46786 0.36308 0.8855 0.0
C192 C 0.68262 0.74229 0.89701 0.0
C193 C 0.69111 0.79353 0.90453 0.0
C194 C 0.72451 0.81908 0.92477 0.0
C195 C 0.74997 0.79366 0.938 0.0
C196 C 0.73898 0.74094 0.93115 0.0
C197 C 0.70623 0.71573 0.91068 0.0
C198 C 0.69303 0.74352 0.85423 0.0
C199 C 0.74546 0.74135 0.8523 0.0
C200 C 0.78385 0.76684 0.8332 0.0
C201 C 0.77115 0.79584 0.816 0.0
C202 C 0.71903 0.79817 0.81795 0.0
C203 C 0.68015 0.77186 0.83683 0.0
C204 C 0.61163 0.66246 0.87382 0.0
C205 C 0.55381 0.64482 0.88114 0.0
C206 C 0.51142 0.58869 0.88139 0.0
C207 C 0.52595 0.54875 0.87417 0.0
C208 C 0.58405 0.56656 0.86679 0.0
C209 C 0.62651 0.62263 0.86678 0.0
C210 C 0.3274 0.29285 0.89679 0.0
C211 C 0.30578 0.31878 0.91193 0.0
C212 C 0.27396 0.2918 0.93237 0.0
C213 C 0.26188 0.23797 0.93778 0.0
C214 C 0.28542 0.21308 0.92309 0.0
C215 C 0.31791 0.24037 0.90285 0.0
C216 C 0.31537 0.29567 0.85406 0.0
C217 C 0.259 0.29041 0.85443 0.0
C218 C 0.22031 0.2659 0.83535 0.0
C219 C 0.23756 0.24707 0.81546 0.0
C220 C 0.29462 0.25444 0.81468 0.0
C221 C 0.333 0.27829 0.83388 0.0
C222 C 0.39637 0.37494 0.87416 0.0
C223 C 0.38007 0.41441 0.86819 0.0
C224 C 0.42203 0.4707 0.86817 0.0
C225 C 0.48095 0.48883 0.87441 0.0
C226 C 0.49661 0.44913 0.8808 0.0
C227 C 0.45478 0.39291 0.88058 0.0
C228 C 0.01154 0.13257 0.10667 0.0
C229 C 0.96973 0.11972 0.08848 0.0
C230 C 0.02028 0.17135 0.12429 0.0
C231 C 0.98686 0.19802 0.12468 0.0
H232 H 0.03946 0.11421 0.10681 0.0
H233 H 0.05407 0.18114 0.13757 0.0
S234 S 0.86881 0.17637 0.08241 0.0
N235 N 0.89246 0.13503 0.07274 0.0
N236 N 0.90845 0.20721 0.10626 0.0
C237 C 0.9432 0.18395 0.10732 0.0
C238 C 0.93478 0.14501 0.08911 0.0
C239 C 0.84853 0.03748 0.41102 0.0
C240 C 0.86158 0.99441 0.41068 0.0
C241 C 0.81669 0.04295 0.42977 0.0
C242 C 0.79726 1.00596 0.4491 0.0
H243 H 0.86529 0.0687 0.39718 0.0
H244 H 0.80935 0.07782 0.42961 0.0
S245 S 0.81678 0.88392 0.456 0.0
N246 N 0.84911 0.91178 0.43044 0.0
N247 N 0.79054 0.92286 0.46608 0.0
C248 C 0.80697 0.96076 0.44831 0.0
C249 C 0.83884 0.9548 0.429 0.0
C250 C 0.87622 0.91067 0.77489 0.0
C251 C 0.88984 0.88237 0.75758 0.0
C252 C 0.8379 0.88235 0.79377 0.0
C253 C 0.81283 0.82492 0.79632 0.0
H254 H 0.89389 0.95485 0.77347 0.0
H255 H 0.82765 0.90549 0.80647 0.0
S256 S 0.83645 0.73182 0.75676 0.0
N257 N 0.87635 0.79365 0.74472 0.0
N258 N 0.80538 0.74083 0.7806 0.0
C259 C 0.82731 0.7963 0.77963 0.0
C260 C 0.86552 0.82492 0.76015 0.0
C261 C 0.0606 0.86789 0.08583 0.0
C262 C 0.04298 0.90772 0.08861 0.0
C263 C 0.05079 0.82926 0.10381 0.0
C264 C 0.02271 0.82884 0.12516 0.0
H265 H 0.08024 0.86511 0.06932 0.0
H266 H 0.06306 0.79812 0.10057 0.0
S267 S 0.97525 0.9285 0.14282 0.0
N268 N 1.00128 0.94738 0.11558 0.0
N269 N 0.98294 0.87475 0.14919 0.0
C270 C 0.00776 0.87011 0.12873 0.0
C271 C 0.01793 0.90958 0.11052 0.0
C272 C 0.14681 0.98126 0.41463 0.0
C273 C 0.13587 0.02561 0.41313 0.0
C274 C 0.17885 0.97679 0.43356 0.0
C275 C 0.20083 0.0162 0.45191 0.0
H276 H 0.12859 0.94856 0.4015 0.0
H277 H 0.1848 0.94113 0.43424 0.0
S278 S 0.18707 0.14187 0.45576 0.0
N279 N 0.15258 0.11157 0.43089 0.0
N280 N 0.21179 0.1025 0.46683 0.0
C281 C 0.19289 0.06231 0.45003 0.0
C282 C 0.16066 0.06717 0.43055 0.0
C283 C 0.17491 0.20787 0.75312 0.0
C284 C 0.12141 0.15834 0.75675 0.0
C285 C 0.21168 0.23695 0.77225 0.0
C286 C 0.19585 0.21818 0.79575 0.0
H287 H 0.18968 0.22338 0.73529 0.0
H288 H 0.2532 0.27405 0.7686 0.0
S289 S 0.05925 0.0928 0.81514 0.0
N290 N 0.05355 0.09306 0.78588 0.0
N291 N 0.12248 0.1483 0.82181 0.0
C292 C 0.14163 0.16993 0.79977 0.0
C293 C 0.10448 0.13986 0.78028 0.0
C294 C 0.88247 0.99797 0.63558 0.0
C295 C 0.89554 0.03084 0.65604 0.0
C296 C 0.85025 1.00269 0.61682 0.0
C297 C 0.82845 0.03961 0.61793 0.0
H298 H 0.8989 0.96945 0.63368 0.0
H299 H 0.84361 0.97792 0.60109 0.0
S300 S 0.84601 0.13122 0.66889 0.0
N301 N 0.88273 0.10002 0.67696 0.0
N302 N 0.81896 0.10692 0.64224 0.0
C303 C 0.83979 0.07166 0.63871 0.0
C304 C 0.87402 0.06772 0.65762 0.0
C305 C 0.81805 0.8872 0.99166 0.0
C306 C 0.87464 0.89323 0.99289 0.0
C307 C 0.77716 0.85333 0.97446 0.0
C308 C 0.79124 0.82421 0.95776 0.0
H309 H 0.80552 0.90972 1.00376 0.0
H310 H 0.7345 0.85069 0.97397 0.0
S311 S 0.9331 0.82528 0.95324 0.0
N312 N 0.94191 0.86577 0.97605 0.0
N313 N 0.86567 0.80352 0.94351 0.0
C314 C 0.84705 0.82872 0.95912 0.0
C315 C 0.88855 0.86284 0.97672 0.0
C316 C 0.93793 0.80801 0.31939 0.0
C317 C 0.96136 0.86524 0.31605 0.0
C318 C 0.93812 0.77422 0.30101 0.0
C319 C 0.96224 0.79633 0.27861 0.0
H320 H 0.91982 0.78903 0.33644 0.0
H321 H 0.9203 0.73059 0.3045 0.0
S322 S 0.02567 0.94254 0.25994 0.0
N323 N 1.00702 0.9419 0.28804 0.0
N324 N 0.00721 0.87822 0.25358 0.0
C325 C 0.98468 0.85313 0.2748 0.0
C326 C 0.98419 0.88758 0.29347 0.0
C327 C 0.1114 0.9483 0.65039 0.0
C328 C 0.13159 0.99782 0.66313 0.0
C329 C 0.14381 0.94474 0.63134 0.0
C330 C 0.19794 0.99036 0.62444 0.0
H331 H 0.06863 0.9129 0.65421 0.0
H332 H 0.1248 0.90672 0.62123 0.0
S333 S 0.27518 0.12622 0.65478 0.0
N334 N 0.21231 0.09141 0.66933 0.0
N335 N 0.27398 0.08416 0.6339 0.0
C336 C 0.22062 0.03883 0.63812 0.0
C337 C 0.18733 0.04266 0.65739 0.0
C338 C 0.1953 0.13975 0.99029 0.0
C339 C 0.13943 0.13494 0.99276 0.0
C340 C 0.23548 0.17458 0.97304 0.0
C341 C 0.22143 0.20596 0.95757 0.0
H342 H 0.20777 0.11559 1.0014 0.0
H343 H 0.27758 0.17627 0.97155 0.0
S344 S 0.08138 0.20886 0.95659 0.0
N345 N 0.07293 0.16598 0.97842 0.0
N346 N 0.14783 0.23005 0.9458 0.0
C347 C 0.16638 0.20261 0.96019 0.0
C348 C 0.12559 0.16748 0.97781 0.0
C349 C 0.05623 0.15559 0.29535 0.0
C350 C 0.04784 0.1666 0.31902 0.0
C351 C 0.05884 0.19011 0.27664 0.0
C352 C 0.05188 0.23614 0.28087 0.0
H353 H 0.06082 0.12006 0.29124 0.0
H354 H 0.06512 0.18009 0.25866 0.0
S355 S 0.02884 0.28323 0.33938 0.0
N356 N 0.03316 0.22757 0.34555 0.0
N357 N 0.03698 0.29146 0.31027 0.0
C358 C 0.0436 0.24772 0.30436 0.0
C359 C 0.04193 0.21324 0.32347 0.0
loop_
_geom_bond_atom_site_label_1
_geom_bond_atom_site_label_2
_geom_bond_distance
_geom_bond_site_symmetry_2
_ccdc_geom_bond_type
O0 Cd1 2.223 1_456 S
O0 C8 1.311 1_556 S
Cd1 O0 2.223 1_654 S
Cd1 O4 2.297 . S
Cd1 O5 2.439 . S
Cd1 O11 2.240 1_545 S
Cd2 O3 2.240 1_565 S
Cd2 O10 2.223 1_454 S
Cd2 O12 2.297 . S
Cd2 O13 2.439 . S
O3 Cd2 2.240 1_545 S
O3 C8 1.296 . S
O4 Cd1 2.297 . S
O4 C6 1.247 . S
O5 Cd1 2.439 . S
O5 C6 1.208 . S
C6 O4 1.247 . S
C6 O5 1.208 . S
C7 O12 1.247 . S
C7 O13 1.208 . S
C8 O0 1.311 1_554 S
C8 O3 1.296 . S
C9 O10 1.311 1_554 S
C9 O11 1.296 . S
O10 Cd2 2.223 1_656 S
O10 C9 1.311 1_556 S
O11 Cd1 2.240 1_565 S
O11 C9 1.296 . S
O12 Cd2 2.297 . S
O12 C7 1.247 . S
O13 Cd2 2.439 . S
O13 C7 1.208 . S
O14 Cd15 2.223 1_655 S
O14 C22 1.315 . S
Cd15 O14 2.223 1_455 S
Cd15 O18 2.297 . S
Cd15 O19 2.439 . S
Cd15 O25 2.240 . S
Cd16 O17 2.240 . S
Cd16 O24 2.223 1_655 S
Cd16 O26 2.297 . S
Cd16 O27 2.439 . S
O17 Cd16 2.240 . S
O17 C22 1.279 1_565 S
O18 Cd15 2.297 . S
O18 C20 1.247 . S
O19 Cd15 2.439 . S
O19 C20 1.208 . S
C20 O18 1.247 . S
C20 O19 1.208 . S
C21 O26 1.247 . S
C21 O27 1.208 . S
C22 O14 1.315 . S
C22 O17 1.279 1_545 S
C23 O24 1.315 . S
C23 O25 1.279 1_565 S
O24 Cd16 2.223 1_455 S
O24 C23 1.315 . S
O25 Cd15 2.240 . S
O25 C23 1.279 1_545 S
O26 Cd16 2.297 . S
O26 C21 1.247 . S
O27 Cd16 2.439 . S
O27 C21 1.208 . S
O28 Cd29 2.223 . S
O28 C36 1.315 . S
Cd29 O28 2.223 . S
Cd29 O32 2.297 . S
Cd29 O33 2.439 . S
Cd29 O39 2.240 1_655 S
Cd30 O31 2.240 1_455 S
Cd30 O38 2.223 . S
Cd30 O40 2.297 . S
Cd30 O41 2.439 . S
O31 Cd30 2.240 1_655 S
O31 C36 1.279 1_545 S
O32 Cd29 2.297 . S
O32 C34 1.247 . S
O33 Cd29 2.439 . S
O33 C34 1.208 . S
C34 O32 1.247 . S
C34 O33 1.208 . S
C35 O40 1.247 . S
C35 O41 1.208 . S
C36 O28 1.315 . S
C36 O31 1.279 1_565 S
C37 O38 1.315 . S
C37 O39 1.279 1_545 S
O38 Cd30 2.223 . S
O38 C37 1.315 . S
O39 Cd29 2.240 1_455 S
O39 C37 1.279 1_565 S
O40 Cd30 2.297 . S
O40 C35 1.247 . S
O41 Cd30 2.439 . S
O41 C35 1.208 . S
H42 C69 0.929 . S
N43 C68 1.433 . S
N43 C74 1.435 . S
N43 C80 1.423 . S
H44 C70 0.930 . S
H45 C73 0.931 . S
H46 C72 0.929 . S
H47 C75 0.930 . S
H48 C76 0.932 . S
H49 C79 0.929 . S
H50 C78 0.931 . S
H51 C81 0.929 . S
H52 C85 0.932 1_455 S
H53 C82 0.931 . S
H54 C84 0.929 1_455 S
H55 C87 0.929 . S
H56 C88 0.930 . S
H57 C90 0.929 . S
H58 C91 0.931 . S
H59 C93 0.930 . S
H60 C94 0.932 . S
H61 C96 0.931 . S
H62 C97 0.929 . S
H63 C99 0.929 . S
H64 C100 0.931 . S
H65 C102 0.929 1_455 S
N66 C86 1.433 . S
N66 C92 1.435 . S
N66 C98 1.423 . S
H67 C103 0.932 1_455 S
C68 N43 1.433 . S
C68 C69 1.363 . S
C68 C73 1.370 1_655 S
C69 H42 0.929 . S
C69 C68 1.363 . S
C69 C70 1.385 . S
C70 H44 0.930 . S
C70 C69 1.385 . S
C70 C71 1.357 . S
C71 C70 1.357 . S
C71 C72 1.406 1_655 S
C72 H46 0.929 . S
C72 C71 1.406 1_455 S
C72 C73 1.391 . S
C73 H45 0.931 . S
C73 C68 1.370 1_455 S
C73 C72 1.391 . S
C74 N43 1.435 . S
C74 C75 1.358 1_655 S
C74 C79 1.371 . S
C75 H47 0.930 . S
C75 C74 1.358 1_455 S
C75 C76 1.405 . S
C76 H48 0.932 . S
C76 C75 1.405 . S
C76 C77 1.383 1_455 S
C77 C76 1.383 1_655 S
C77 C78 1.393 . S
C78 H50 0.931 . S
C78 C77 1.393 . S
C78 C79 1.382 . S
C79 H49 0.929 . S
C79 C74 1.371 . S
C79 C78 1.382 . S
C80 N43 1.423 . S
C80 C81 1.362 . S
C80 C85 1.388 . S
C81 H51 0.929 . S
C81 C80 1.362 . S
C81 C82 1.376 . S
C82 H53 0.931 . S
C82 C81 1.376 . S
C82 C83 1.396 . S
C83 C82 1.396 . S
C83 C84 1.348 . S
C83 C101 1.472 . S
C84 H54 0.929 1_655 S
C84 C83 1.348 . S
C84 C85 1.443 . S
C85 H52 0.932 1_655 S
C85 C80 1.388 . S
C85 C84 1.443 . S
C86 N66 1.433 . S
C86 C87 1.363 . S
C86 C91 1.370 1_655 S
C87 H55 0.929 . S
C87 C86 1.363 . S
C87 C88 1.385 . S
C88 H56 0.930 . S
C88 C87 1.385 . S
C88 C89 1.357 . S
C89 C88 1.357 . S
C89 C90 1.406 1_655 S
C90 H57 0.929 . S
C90 C89 1.406 1_455 S
C90 C91 1.391 . S
C91 H58 0.931 . S
C91 C86 1.370 1_455 S
C91 C90 1.391 . S
C92 N66 1.435 . S
C92 C93 1.358 1_655 S
C92 C97 1.371 . S
C93 H59 0.930 . S
C93 C92 1.358 1_455 S
C93 C94 1.405 . S
C94 H60 0.932 . S
C94 C93 1.405 . S
C94 C95 1.383 1_455 S
C95 C94 1.383 1_655 S
C95 C96 1.393 . S
C96 H61 0.931 . S
C96 C95 1.393 . S
C96 C97 1.382 . S
C97 H62 0.929 . S
C97 C92 1.371 . S
C97 C96 1.382 . S
C98 N66 1.423 . S
C98 C99 1.362 . S
C98 C103 1.388 . S
C99 H63 0.929 . S
C99 C98 1.362 . S
C99 C100 1.376 . S
C100 H64 0.931 . S
C100 C99 1.376 . S
C100 C101 1.396 . S
C101 C83 1.472 . S
C101 C100 1.396 . S
C101 C102 1.348 . S
C102 H65 0.929 1_655 S
C102 C101 1.348 . S
C102 C103 1.443 . S
C103 H67 0.932 1_655 S
C103 C98 1.388 . S
C103 C102 1.443 . S
H104 C131 0.929 . S
N105 C130 1.433 . S
N105 C136 1.435 . S
N105 C142 1.423 . S
H106 C132 0.930 . S
H107 C135 0.931 . S
H108 C134 0.929 . S
H109 C137 0.930 . S
H110 C138 0.932 . S
H111 C141 0.929 . S
H112 C140 0.931 . S
H113 C143 0.929 . S
H114 C147 0.932 1_565 S
H115 C144 0.931 . S
H116 C146 0.929 1_565 S
H117 C149 0.929 . S
H118 C150 0.930 . S
H119 C152 0.929 . S
H120 C153 0.931 . S
H121 C155 0.930 . S
H122 C156 0.932 . S
H123 C158 0.931 . S
H124 C159 0.929 . S
H125 C161 0.929 . S
H126 C162 0.931 . S
H127 C164 0.929 1_565 S
N128 C148 1.433 . S
N128 C154 1.435 . S
N128 C160 1.423 . S
H129 C165 0.932 1_565 S
C130 N105 1.433 . S
C130 C131 1.363 . S
C130 C135 1.370 1_545 S
C131 H104 0.929 . S
C131 C130 1.363 . S
C131 C132 1.385 . S
C132 H106 0.930 . S
C132 C131 1.385 . S
C132 C133 1.357 . S
C133 C132 1.357 . S
C133 C134 1.406 1_545 S
C134 H108 0.929 . S
C134 C133 1.406 1_565 S
C134 C135 1.391 . S
C135 H107 0.931 . S
C135 C130 1.370 1_565 S
C135 C134 1.391 . S
C136 N105 1.435 . S
C136 C137 1.358 1_545 S
C136 C141 1.371 . S
C137 H109 0.930 . S
C137 C136 1.358 1_565 S
C137 C138 1.405 . S
C138 H110 0.932 . S
C138 C137 1.405 . S
C138 C139 1.383 1_565 S
C139 C138 1.383 1_545 S
C139 C140 1.393 . S
C140 H112 0.931 . S
C140 C139 1.393 . S
C140 C141 1.382 . S
C141 H111 0.929 . S
C141 C136 1.371 . S
C141 C140 1.382 . S
C142 N105 1.423 . S
C142 C143 1.362 . S
C142 C147 1.388 . S
C143 H113 0.929 . S
C143 C142 1.362 . S
C143 C144 1.376 . S
C144 H115 0.931 . S
C144 C143 1.376 . S
C144 C145 1.396 . S
C145 C144 1.396 . S
C145 C146 1.348 . S
C145 C163 1.472 . S
C146 H116 0.929 1_545 S
C146 C145 1.348 . S
C146 C147 1.443 . S
C147 H114 0.932 1_545 S
C147 C142 1.388 . S
C147 C146 1.443 . S
C148 N128 1.433 . S
C148 C149 1.363 . S
C148 C153 1.370 1_545 S
C149 H117 0.929 . S
C149 C148 1.363 . S
C149 C150 1.385 . S
C150 H118 0.930 . S
C150 C149 1.385 . S
C150 C151 1.357 . S
C151 C150 1.357 . S
C151 C152 1.406 1_545 S
C152 H119 0.929 . S
C152 C151 1.406 1_565 S
C152 C153 1.391 . S
C153 H120 0.931 . S
C153 C148 1.370 1_565 S
C153 C152 1.391 . S
C154 N128 1.435 . S
C154 C155 1.358 1_545 S
C154 C159 1.371 . S
C155 H121 0.930 . S
C155 C154 1.358 1_565 S
C155 C156 1.405 . S
C156 H122 0.932 . S
C156 C155 1.405 . S
C156 C157 1.383 1_565 S
C157 C156 1.383 1_545 S
C157 C158 1.393 . S
C158 H123 0.931 . S
C158 C157 1.393 . S
C158 C159 1.382 . S
C159 H124 0.929 . S
C159 C154 1.371 . S
C159 C158 1.382 . S
C160 N128 1.423 . S
C160 C161 1.362 . S
C160 C165 1.388 . S
C161 H125 0.929 . S
C161 C160 1.362 . S
C161 C162 1.376 . S
C162 H126 0.931 . S
C162 C161 1.376 . S
C162 C163 1.396 . S
C163 C145 1.472 . S
C163 C162 1.396 . S
C163 C164 1.348 . S
C164 H127 0.929 1_545 S
C164 C163 1.348 . S
C164 C165 1.443 . S
C165 H129 0.932 1_545 S
C165 C160 1.388 . S
C165 C164 1.443 . S
H166 C193 0.929 . S
N167 C192 1.433 . S
N167 C198 1.435 . S
N167 C204 1.423 . S
H168 C194 0.930 . S
H169 C197 0.931 . S
H170 C196 0.929 . S
H171 C199 0.930 . S
H172 C200 0.932 . S
H173 C203 0.929 . S
H174 C202 0.931 . S
H175 C205 0.929 . S
H176 C209 0.932 . S
H177 C206 0.931 . S
H178 C208 0.929 . S
H179 C211 0.929 . S
H180 C212 0.930 . S
H181 C214 0.929 . S
H182 C215 0.931 . S
H183 C217 0.930 . S
H184 C218 0.932 . S
H185 C220 0.931 . S
H186 C221 0.929 . S
H187 C223 0.929 . S
H188 C224 0.931 . S
H189 C226 0.929 . S
N190 C210 1.433 . S
N190 C216 1.435 . S
N190 C222 1.423 . S
H191 C227 0.932 . S
C192 N167 1.433 . S
C192 C193 1.363 . S
C192 C197 1.370 . S
C193 H166 0.929 . S
C193 C192 1.363 . S
C193 C194 1.385 . S
C194 H168 0.930 . S
C194 C193 1.385 . S
C194 C195 1.357 . S
C195 C194 1.357 . S
C195 C196 1.406 . S
C196 H170 0.929 . S
C196 C195 1.406 . S
C196 C197 1.391 . S
C197 H169 0.931 . S
C197 C192 1.370 . S
C197 C196 1.391 . S
C198 N167 1.435 . S
C198 C199 1.358 . S
C198 C203 1.371 . S
C199 H171 0.930 . S
C199 C198 1.358 . S
C199 C200 1.405 . S
C200 H172 0.932 . S
C200 C199 1.405 . S
C200 C201 1.383 . S
C201 C200 1.383 . S
C201 C202 1.393 . S
C202 H174 0.931 . S
C202 C201 1.393 . S
C202 C203 1.382 . S
C203 H173 0.929 . S
C203 C198 1.371 . S
C203 C202 1.382 . S
C204 N167 1.423 . S
C204 C205 1.362 . S
C204 C209 1.388 . S
C205 H175 0.929 . S
C205 C204 1.362 . S
C205 C206 1.376 . S
C206 H177 0.931 . S
C206 C205 1.376 . S
C206 C207 1.396 . S
C207 C206 1.396 . S
C207 C208 1.348 . S
C207 C225 1.472 . S
C208 H178 0.929 . S
C208 C207 1.348 . S
C208 C209 1.443 . S
C209 H176 0.932 . S
C209 C204 1.388 . S
C209 C208 1.443 . S
C210 N190 1.433 . S
C210 C211 1.363 . S
C210 C215 1.370 . S
C211 H179 0.929 . S
C211 C210 1.363 . S
C211 C212 1.385 . S
C212 H180 0.930 . S
C212 C211 1.385 . S
C212 C213 1.357 . S
C213 C212 1.357 . S
C213 C214 1.406 . S
C214 H181 0.929 . S
C214 C213 1.406 . S
C214 C215 1.391 . S
C215 H182 0.931 . S
C215 C210 1.370 . S
C215 C214 1.391 . S
C216 N190 1.435 . S
C216 C217 1.358 . S
C216 C221 1.371 . S
C217 H183 0.930 . S
C217 C216 1.358 . S
C217 C218 1.405 . S
C218 H184 0.932 . S
C218 C217 1.405 . S
C218 C219 1.383 . S
C219 C218 1.383 . S
C219 C220 1.393 . S
C220 H185 0.931 . S
C220 C219 1.393 . S
C220 C221 1.382 . S
C221 H186 0.929 . S
C221 C216 1.371 . S
C221 C220 1.382 . S
C222 N190 1.423 . S
C222 C223 1.362 . S
C222 C227 1.388 . S
C223 H187 0.929 . S
C223 C222 1.362 . S
C223 C224 1.376 . S
C224 H188 0.931 . S
C224 C223 1.376 . S
C224 C225 1.396 . S
C225 C207 1.472 . S
C225 C224 1.396 . S
C225 C226 1.348 . S
C226 H189 0.929 . S
C226 C225 1.348 . S
C226 C227 1.443 . S
C227 H191 0.932 . S
C227 C222 1.388 . S
C227 C226 1.443 . S
C228 C229 1.369 1_655 S
C228 C230 1.419 . S
C228 H232 0.930 . S
C229 C228 1.369 1_455 S
C229 C238 1.429 . S
C230 C228 1.419 . S
C230 C231 1.366 1_655 S
C230 H233 0.929 . S
C231 C230 1.366 1_455 S
C231 C237 1.431 . S
H232 C228 0.930 . S
H233 C230 0.929 . S
S234 N235 1.613 . S
S234 N236 1.610 . S
N235 S234 1.613 . S
N235 C238 1.350 . S
N236 S234 1.610 . S
N236 C237 1.351 . S
C237 C231 1.431 . S
C237 N236 1.351 . S
C237 C238 1.434 . S
C238 C229 1.429 . S
C238 N235 1.350 . S
C238 C237 1.434 . S
C239 C240 1.369 . S
C239 C241 1.419 . S
C239 H243 0.930 . S
C240 C239 1.369 . S
C240 C249 1.429 1_545 S
C241 C239 1.419 . S
C241 C242 1.368 . S
C241 H244 0.929 . S
C242 C241 1.368 . S
C242 C248 1.420 1_545 S
H243 C239 0.930 . S
H244 C241 0.929 . S
S245 N246 1.613 . S
S245 N247 1.610 . S
N246 S245 1.613 . S
N246 C249 1.350 . S
N247 S245 1.610 . S
N247 C248 1.351 . S
C248 C242 1.420 1_565 S
C248 N247 1.351 . S
C248 C249 1.434 . S
C249 C240 1.429 1_565 S
C249 N246 1.350 . S
C249 C248 1.434 . S
C250 C251 1.369 . S
C250 C252 1.419 . S
C250 H254 0.930 . S
C251 C250 1.369 . S
C251 C260 1.429 . S
C252 C250 1.419 . S
C252 C253 1.363 . S
C252 H255 0.929 . S
C253 C252 1.363 . S
C253 C259 1.428 . S
H254 C250 0.930 . S
H255 C252 0.929 . S
S256 N257 1.613 . S
S256 N258 1.610 . S
N257 S256 1.613 . S
N257 C260 1.350 . S
N258 S256 1.610 . S
N258 C259 1.351 . S
C259 C253 1.428 . S
C259 N258 1.351 . S
C259 C260 1.434 . S
C260 C251 1.429 . S
C260 N257 1.350 . S
C260 C259 1.434 . S
C261 C262 1.369 1_455 S
C261 C263 1.419 . S
C261 H265 0.930 . S
C262 C261 1.369 1_655 S
C262 C271 1.429 . S
C263 C261 1.419 . S
C263 C264 1.363 . S
C263 H266 0.929 . S
C264 C263 1.363 . S
C264 C270 1.428 1_455 S
H265 C261 0.930 . S
H266 C263 0.929 . S
S267 N268 1.613 . S
S267 N269 1.610 . S
N268 S267 1.613 . S
N268 C271 1.350 . S
N269 S267 1.610 . S
N269 C270 1.351 . S
C270 C264 1.428 1_655 S
C270 N269 1.351 . S
C270 C271 1.434 . S
C271 C262 1.429 . S
C271 N268 1.350 . S
C271 C270 1.434 . S
C272 C273 1.369 . S
C272 C274 1.419 . S
C272 H276 0.930 . S
C273 C272 1.369 . S
C273 C282 1.429 1_565 S
C274 C272 1.419 . S
C274 C275 1.364 . S
C274 H277 0.929 . S
C275 C274 1.364 . S
C275 C281 1.426 1_565 S
H276 C272 0.930 . S
H277 C274 0.929 . S
S278 N279 1.613 . S
S278 N280 1.610 . S
N279 S278 1.613 . S
N279 C282 1.350 . S
N280 S278 1.610 . S
N280 C281 1.351 . S
C281 C275 1.426 1_545 S
C281 N280 1.351 . S
C281 C282 1.434 . S
C282 C273 1.429 1_545 S
C282 N279 1.350 . S
C282 C281 1.434 . S
C283 C284 1.369 . S
C283 C285 1.419 . S
C283 H287 0.930 . S
C284 C283 1.369 . S
C284 C293 1.429 . S
C285 C283 1.419 . S
C285 C286 1.363 . S
C285 H288 0.929 . S
C286 C285 1.363 . S
C286 C292 1.428 . S
H287 C283 0.930 . S
H288 C285 0.929 . S
S289 N290 1.613 . S
S289 N291 1.610 . S
N290 S289 1.613 . S
N290 C293 1.350 . S
N291 S289 1.610 . S
N291 C292 1.351 . S
C292 C286 1.428 . S
C292 N291 1.351 . S
C292 C293 1.434 . S
C293 C284 1.429 . S
C293 N290 1.350 . S
C293 C292 1.434 . S
C294 C295 1.369 . S
C294 C296 1.419 . S
C294 H298 0.930 . S
C295 C294 1.369 . S
C295 C304 1.429 1_565 S
C296 C294 1.419 . S
C296 C297 1.363 . S
C296 H299 0.929 . S
C297 C296 1.363 . S
C297 C303 1.428 1_565 S
H298 C294 0.930 . S
H299 C296 0.929 . S
S300 N301 1.613 . S
S300 N302 1.610 . S
N301 S300 1.613 . S
N301 C304 1.350 . S
N302 S300 1.610 . S
N302 C303 1.351 . S
C303 C297 1.428 1_545 S
C303 N302 1.351 . S
C303 C304 1.434 . S
C304 C295 1.429 1_545 S
C304 N301 1.350 . S
C304 C303 1.434 . S
C305 C306 1.369 . S
C305 C307 1.419 . S
C305 H309 0.930 . S
C306 C305 1.369 . S
C306 C315 1.429 . S
C307 C305 1.419 . S
C307 C308 1.363 . S
C307 H310 0.929 . S
C308 C307 1.363 . S
C308 C314 1.428 . S
H309 C305 0.930 . S
H310 C307 0.929 . S
S311 N312 1.613 . S
S311 N313 1.610 . S
N312 S311 1.613 . S
N312 C315 1.350 . S
N313 S311 1.610 . S
N313 C314 1.351 . S
C314 C308 1.428 . S
C314 N313 1.351 . S
C314 C315 1.434 . S
C315 C306 1.429 . S
C315 N312 1.350 . S
C315 C314 1.434 . S
C316 C317 1.369 1_655 S
C316 C318 1.419 . S
C316 H320 0.930 . S
C317 C316 1.369 1_455 S
C317 C326 1.429 . S
C318 C316 1.419 . S
C318 C319 1.363 1_655 S
C318 H321 0.929 . S
C319 C318 1.363 1_455 S
C319 C325 1.428 . S
H320 C316 0.930 . S
H321 C318 0.929 . S
S322 N323 1.613 . S
S322 N324 1.610 . S
N323 S322 1.613 . S
N323 C326 1.350 . S
N324 S322 1.610 . S
N324 C325 1.351 . S
C325 C319 1.428 . S
C325 N324 1.351 . S
C325 C326 1.434 . S
C326 C317 1.429 . S
C326 N323 1.350 . S
C326 C325 1.434 . S
C327 C328 1.369 1_565 S
C327 C329 1.419 . S
C327 H331 0.930 . S
C328 C327 1.369 1_545 S
C328 C337 1.429 . S
C329 C327 1.419 . S
C329 C330 1.363 1_565 S
C329 H332 0.929 . S
C330 C329 1.363 1_545 S
C330 C336 1.428 . S
H331 C327 0.930 . S
H332 C329 0.929 . S
S333 N334 1.613 . S
S333 N335 1.610 . S
N334 S333 1.613 . S
N334 C337 1.350 . S
N335 S333 1.610 . S
N335 C336 1.351 . S
C336 C330 1.428 . S
C336 N335 1.351 . S
C336 C337 1.434 . S
C337 C328 1.429 . S
C337 N334 1.350 . S
C337 C336 1.434 . S
C338 C339 1.369 . S
C338 C340 1.419 . S
C338 H342 0.930 1_556 S
C339 C338 1.369 . S
C339 C348 1.429 . S
C340 C338 1.419 . S
C340 C341 1.363 . S
C340 H343 0.929 . S
C341 C340 1.363 . S
C341 C347 1.428 . S
H342 C338 0.930 1_554 S
H343 C340 0.929 . S
S344 N345 1.613 . S
S344 N346 1.610 . S
N345 S344 1.613 . S
N345 C348 1.350 . S
N346 S344 1.610 . S
N346 C347 1.351 . S
C347 C341 1.428 . S
C347 N346 1.351 . S
C347 C348 1.434 . S
C348 C339 1.429 . S
C348 N345 1.350 . S
C348 C347 1.434 . S
C349 C350 1.369 1_455 S
C349 C351 1.419 . S
C349 H353 0.930 . S
C350 C349 1.369 1_655 S
C350 C359 1.429 . S
C351 C349 1.419 . S
C351 C352 1.363 1_455 S
C351 H354 0.929 . S
C352 C351 1.363 1_655 S
C352 C358 1.428 . S
H353 C349 0.930 . S
H354 C351 0.929 . S
S355 N356 1.613 . S
S355 N357 1.610 . S
N356 S355 1.613 . S
N356 C359 1.350 . S
N357 S355 1.610 . S
N357 C358 1.351 . S
C358 C352 1.428 . S
C358 N357 1.351 . S
C358 C359 1.434 . S
C359 C350 1.429 . S
C359 N356 1.350 . S
C359 C358 1.434 . S
C231 C95 1.396 1_455 S
C229 C6 1.392 1_455 S
C240 C22 1.573 . S
C242 C139 1.593 . S
C251 C34 1.254 . S
C253 C201 1.272 . S
C262 C7 1.393 1_655 S
C264 C77 1.401 1_455 S
C275 C157 1.589 1_565 S
C273 C23 1.572 . S
C284 C35 1.258 . S
C286 C219 1.272 . S
C297 C133 1.702 1_565 S
C295 C36 1.783 . S
C306 C9 1.990 1_556 S
C308 C195 1.912 . S
C319 C71 1.580 1_455 S
C317 C21 1.658 1_455 S
C330 C151 1.689 . S
C328 C37 1.779 . S
C341 C213 1.906 . S
C339 C8 1.991 1_556 S
C350 C20 1.656 1_655 S
C352 C89 1.571 . S
