# Generated by pormake.
# Topology anh, (6,3)-cn, num edge types: 1
# Building blocks:
#     Node 0, Type 0, BuildingBlock: BETDEL_clean_sbu_0, # of connection points: 6
#     Node 1, Type 0, BuildingBlock: BETDEL_clean_sbu_0, # of connection points: 6
#     Node 2, Type 0, BuildingBlock: BETDEL_clean_sbu_0, # of connection points: 6
#     Node 3, Type 1, BuildingBlock: BELTOD_clean_linker_0, # of connection points: 3
#     Node 4, Type 1, BuildingBlock: BELTOD_clean_linker_0, # of connection points: 3
#     Node 5, Type 1, BuildingBlock: BELTOD_clean_linker_0, # of connection points: 3
#     Node 6, Type 1, BuildingBlock: BELTOD_clean_linker_0, # of connection points: 3
#     Node 7, Type 1, BuildingBlock: BELTOD_clean_linker_0, # of connection points: 3
#     Node 8, Type 1, BuildingBlock: BELTOD_clean_linker_0, # of connection points: 3
#     Edge 9, Type (0, 1), BuildingBlock: XUDNAN_clean_linker_2, # of connection points: 2
#     Edge 10, Type (0, 1), BuildingBlock: XUDNAN_clean_linker_2, # of connection points: 2
#     Edge 11, Type (0, 1), BuildingBlock: XUDNAN_clean_linker_2, # of connection points: 2
#     Edge 12, Type (0, 1), BuildingBlock: XUDNAN_clean_linker_2, # of connection points: 2
#     Edge 13, Type (0, 1), BuildingBlock: XUDNAN_clean_linker_2, # of connection points: 2
#     Edge 14, Type (0, 1), BuildingBlock: XUDNAN_clean_linker_2, # of connection points: 2
#     Edge 15, Type (0, 1), BuildingBlock: XUDNAN_clean_linker_2, # of connection points: 2
#     Edge 16, Type (0, 1), BuildingBlock: XUDNAN_clean_linker_2, # of connection points: 2
#     Edge 17, Type (0, 1), BuildingBlock: XUDNAN_clean_linker_2, # of connection points: 2
#     Edge 18, Type (0, 1), BuildingBlock: XUDNAN_clean_linker_2, # of connection points: 2
#     Edge 19, Type (0, 1), BuildingBlock: XUDNAN_clean_linker_2, # of connection points: 2
#     Edge 20, Type (0, 1), BuildingBlock: XUDNAN_clean_linker_2, # of connection points: 2
#     Edge 21, Type (0, 1), BuildingBlock: XUDNAN_clean_linker_2, # of connection points: 2
#     Edge 22, Type (0, 1), BuildingBlock: XUDNAN_clean_linker_2, # of connection points: 2
#     Edge 23, Type (0, 1), BuildingBlock: XUDNAN_clean_linker_2, # of connection points: 2
#     Edge 24, Type (0, 1), BuildingBlock: XUDNAN_clean_linker_2, # of connection points: 2
#     Edge 25, Type (0, 1), BuildingBlock: XUDNAN_clean_linker_2, # of connection points: 2
#     Edge 26, Type (0, 1), BuildingBlock: XUDNAN_clean_linker_2, # of connection points: 2
# Relax obj value: 0.131
# Max RMSD: 0.160
# Mean RMSD: 0.124
data_MOF--net-anh--node1-BETDEL_clean_sbu_0--node2-BELTOD_clean_linker_0--edge1-XUDNAN_clean_linker_2
_symmetry_space_group_name_H-M    P1
_symmetry_Int_Tables_number       1
_symmetry_cell_setting            triclinic
loop_
_symmetry_equiv_pos_as_xyz
'x, y, z'
_cell_length_a     33.585879
_cell_length_b     33.62097
_cell_length_c     58.868481
_cell_angle_alpha  90.22751
_cell_angle_beta   90.072623
_cell_angle_gamma 119.93326
loop_
_atom_site_label
_atom_site_type_symbol
_atom_site_fract_x
_atom_site_fract_y
_atom_site_fract_z
_atom_type_partial_charge
Dy0 Dy 0.03914 0.4681 0.16191 0.0
C1 C 0.93177 0.55002 0.17912 0.0
C2 C 0.09395 0.4313 0.15268 0.0
Dy3 Dy 0.9937 0.52323 0.16723 0.0
O4 O 0.06241 0.41701 0.1681 0.0
O5 O 0.09513 0.46539 0.1418 0.0
O6 O 0.00995 0.43463 0.19519 0.0
O7 O 0.03071 0.50432 0.19114 0.0
C8 C 0.01183 0.47054 0.20434 0.0
C9 C 0.0189 0.51998 0.12427 0.0
O10 O 0.06441 0.57876 0.1777 0.0
O11 O 0.09915 0.54062 0.16208 0.0
O12 O 0.96378 0.57005 0.16402 0.0
O13 O 0.93506 0.51677 0.18824 0.0
O14 O 0.01863 0.55515 0.13316 0.0
O15 O 1.00189 0.48684 0.13795 0.0
O16 O 0.96914 0.4143 0.15037 0.0
O17 O 0.93404 0.44987 0.16801 0.0
C18 C 0.10182 0.57845 0.17072 0.0
C19 C 0.93179 0.41292 0.15856 0.0
Dy20 Dy 0.4921 0.04882 0.5036 0.0
C21 C 0.68665 0.16045 0.51272 0.0
C22 C 0.40184 0.98997 0.49392 0.0
Dy23 Dy 0.59626 0.10118 0.50332 0.0
O24 O 0.41725 0.012 0.51297 0.0
O25 O 0.43571 1.00064 0.48007 0.0
O26 O 0.4927 0.06888 0.54033 0.0
O27 O 0.54525 0.05868 0.52778 0.0
C28 C 0.53204 0.07188 0.54464 0.0
C29 C 0.55796 0.07639 0.46208 0.0
O30 O 0.58532 0.03019 0.51012 0.0
O31 O 0.5089 0.99204 0.49893 0.0
O32 O 0.67134 0.13385 0.495 0.0
O33 O 0.65258 0.15422 0.52549 0.0
O34 O 0.59716 0.08013 0.46746 0.0
O35 O 0.54333 0.09042 0.47824 0.0
O36 O 0.50176 0.11878 0.49791 0.0
O37 O 0.57895 0.15819 0.50777 0.0
C38 C 0.5472 0.99171 0.50429 0.0
C39 C 0.53975 0.15748 0.50324 0.0
Dy40 Dy 0.56871 0.59716 0.83202 0.0
C41 C 0.49367 0.40418 0.84141 0.0
C42 C 0.614 0.68841 0.82241 0.0
Dy43 Dy 0.52081 0.49418 0.83402 0.0
O44 O 0.62285 0.66977 0.83952 0.0
O45 O 0.58094 0.65696 0.81015 0.0
O46 O 0.54202 0.60066 0.86608 0.0
O47 O 0.55732 0.54824 0.85923 0.0
C48 C 0.54049 0.56376 0.87357 0.0
C49 C 0.51657 0.52812 0.79354 0.0
O50 O 0.46269 0.50468 0.84413 0.0
O51 O 0.49364 0.57714 0.82834 0.0
O52 O 0.50394 0.42439 0.82185 0.0
O53 O 0.49746 0.4331 0.85717 0.0
O54 O 0.483 0.49109 0.80214 0.0
O55 O 0.55138 0.54416 0.80637 0.0
O56 O 0.63158 0.58905 0.83039 0.0
O57 O 0.59363 0.50944 0.83182 0.0
C58 C 0.4583 0.53966 0.83703 0.0
C59 C 0.6319 0.54969 0.83068 0.0
P60 P 0.52365 0.9968 0.22202 0.0
H61 H 0.4987 0.95202 0.17729 0.0
H62 H 0.42897 0.88559 0.16313 0.0
H63 H 0.35838 0.88388 0.22475 0.0
H64 H 0.42719 0.95207 0.23805 0.0
H65 H 0.53872 0.03324 0.17481 0.0
H66 H 0.60183 0.10258 0.15795 0.0
H67 H 0.65914 0.15121 0.22476 0.0
H68 H 0.59684 0.08226 0.24134 0.0
H69 H 0.49883 0.0583 0.24598 0.0
H70 H 0.52726 0.95039 0.2632 0.0
O71 O 0.5533 0.96913 0.22116 0.0
H72 H 0.4909 0.07069 0.28647 0.0
H73 H 0.51869 0.9619 0.30339 0.0
C74 C 0.46868 0.95795 0.20866 0.0
C75 C 0.46772 0.93883 0.18732 0.0
C76 C 0.42778 0.89989 0.17945 0.0
C77 C 0.38791 0.87818 0.193 0.0
C78 C 0.38803 0.89934 0.21371 0.0
C79 C 0.42785 0.93871 0.22141 0.0
C80 C 0.56189 0.05254 0.2095 0.0
C81 C 0.56411 0.05925 0.18591 0.0
C82 C 0.60061 0.09893 0.17624 0.0
C83 C 0.63584 0.13276 0.18996 0.0
C84 C 0.63243 0.12659 0.21362 0.0
C85 C 0.59634 0.0869 0.22319 0.0
C86 C 0.51486 1.00432 0.25165 0.0
C87 C 0.5032 0.03722 0.25848 0.0
C88 C 0.49835 0.044 0.28159 0.0
C89 C 0.50481 0.0177 0.2982 0.0
C90 C 0.51457 0.98348 0.2911 0.0
C91 C 0.5194 0.97679 0.26807 0.0
P92 P 0.61523 0.61098 0.55674 0.0
H93 H 0.62855 0.53866 0.57449 0.0
H94 H 0.60837 0.4621 0.56146 0.0
H95 H 0.54507 0.48075 0.50155 0.0
H96 H 0.56468 0.55774 0.51525 0.0
H97 H 0.66669 0.69706 0.5315 0.0
H98 H 0.64703 0.75401 0.51864 0.0
H99 H 0.506 0.66407 0.53825 0.0
H100 H 0.52597 0.60682 0.55084 0.0
H101 H 0.53129 0.54251 0.57938 0.0
H102 H 0.65472 0.66775 0.59745 0.0
O103 O 0.67255 0.63866 0.55756 0.0
H104 H 0.50563 0.53297 0.61875 0.0
H105 H 0.62874 0.65926 0.63687 0.0
C106 C 0.59785 0.55389 0.54597 0.0
C107 C 0.61015 0.52628 0.55856 0.0
C108 C 0.59896 0.48246 0.55093 0.0
C109 C 0.57533 0.46491 0.53029 0.0
C110 C 0.56292 0.49277 0.51762 0.0
C111 C 0.5742 0.53693 0.52537 0.0
C112 C 0.59777 0.64729 0.54207 0.0
C113 C 0.63127 0.68901 0.53264 0.0
C114 C 0.6201 0.72202 0.52553 0.0
C115 C 0.57502 0.7142 0.52764 0.0
C116 C 0.54105 0.67141 0.53619 0.0
C117 C 0.55234 0.6384 0.54335 0.0
C118 C 0.59538 0.60525 0.58562 0.0
C119 C 0.55283 0.56804 0.59184 0.0
C120 C 0.53801 0.56289 0.61437 0.0
C121 C 0.5652 0.59526 0.63108 0.0
C122 C 0.60732 0.63325 0.62457 0.0
C123 C 0.62215 0.63825 0.60201 0.0
P124 P 0.07761 0.60721 0.88478 0.0
H125 H 0.15273 0.6483 0.8516 0.0
H126 H 0.20852 0.6266 0.83878 0.0
H127 H 0.13393 0.4985 0.87501 0.0
H128 H 0.0776 0.51967 0.88683 0.0
H129 H 1.00631 0.6225 0.9027 0.0
H130 H 0.93179 0.60742 0.88868 0.0
H131 H 0.95174 0.54831 0.82742 0.0
H132 H 0.02648 0.56275 0.84205 0.0
H133 H 0.13364 0.64658 0.92564 0.0
H134 H 1.00695 0.52462 0.90761 0.0
O135 O 0.10887 0.66441 0.8851 0.0
H136 H 0.12456 0.62068 0.96504 0.0
H137 H 0.99743 0.49857 0.94704 0.0
C138 C 0.11098 0.58583 0.87035 0.0
C139 C 0.14775 0.61503 0.85631 0.0
C140 C 0.18015 0.60281 0.84924 0.0
C141 C 0.17657 0.56103 0.8561 0.0
C142 C 0.13805 0.5308 0.86914 0.0
C143 C 0.10555 0.54293 0.87602 0.0
C144 C 0.02173 0.59313 0.8736 0.0
C145 C 0.99456 0.60598 0.88629 0.0
C146 C 0.95201 0.59781 0.8781 0.0
C147 C 0.93546 0.57681 0.85681 0.0
C148 C 0.96299 0.56409 0.84401 0.0
C149 C 1.00583 0.57235 0.8523 0.0
C150 C 0.07044 0.58803 0.91383 0.0
C151 C 0.10366 0.61439 0.9302 0.0
C152 C 0.09842 0.59955 0.95272 0.0
C153 C 0.06011 0.55771 0.9592 0.0
C154 C 0.02744 0.53082 0.94258 0.0
C155 C 0.03261 0.54587 0.92009 0.0
P156 P 0.10262 0.53457 0.44075 0.0
H157 H 0.12864 0.58078 0.4847 0.0
H158 H 0.1598 0.66109 0.49605 0.0
H159 H 0.14533 0.69528 0.42702 0.0
H160 H 0.11455 0.61542 0.41577 0.0
H161 H 0.08012 0.4416 0.45198 0.0
H162 H 0.01781 0.38081 0.4739 0.0
H163 H 0.96807 0.47342 0.49104 0.0
H164 H 0.03068 0.53411 0.46924 0.0
H165 H 0.14583 0.54669 0.39645 0.0
H166 H 0.00993 0.50138 0.4225 0.0
O167 O 0.14948 0.52937 0.44138 0.0
H168 H 0.11573 0.53378 0.35762 0.0
H169 H 0.9796 0.48839 0.38373 0.0
C170 C 0.11898 0.59202 0.44947 0.0
C171 C 0.13133 0.60544 0.47214 0.0
C172 C 0.14887 0.65123 0.47861 0.0
C173 C 0.1549 0.68435 0.46239 0.0
C174 C 0.14121 0.67047 0.43983 0.0
C175 C 0.12348 0.6247 0.43342 0.0
C176 C 0.06046 0.4925 0.45938 0.0
C177 C 0.05634 0.44905 0.46086 0.0
C178 C 0.0206 0.41431 0.47326 0.0
C179 C 0.98816 0.42242 0.48424 0.0
C180 C 0.99302 0.4664 0.48312 0.0
C181 C 0.02874 0.50109 0.47063 0.0
C182 C 0.07989 0.52377 0.41232 0.0
C183 C 0.10947 0.53368 0.3938 0.0
C184 C 0.09233 0.5268 0.37164 0.0
C185 C 0.04529 0.50996 0.36767 0.0
C186 C 0.01589 0.50085 0.38631 0.0
C187 C 0.03317 0.50811 0.40846 0.0
P188 P 0.66634 0.13185 0.77958 0.0
H189 H 0.6855 0.19178 0.81908 0.0
H190 H 0.6391 0.21735 0.83967 0.0
H191 H 0.521 0.1264 0.79893 0.0
H192 H 0.56737 0.10072 0.77852 0.0
H193 H 0.67583 0.06332 0.75309 0.0
H194 H 0.6731 0.99182 0.76341 0.0
H195 H 0.64453 0.01027 0.83295 0.0
H196 H 0.64642 0.08168 0.82244 0.0
H197 H 0.71498 0.19791 0.74333 0.0
H198 H 0.59038 0.06744 0.75035 0.0
O199 O 0.7212 0.17121 0.78431 0.0
H200 H 0.70116 0.19616 0.70238 0.0
H201 H 0.57562 0.06657 0.70958 0.0
C202 C 0.63033 0.14546 0.79673 0.0
C203 C 0.64951 0.17692 0.81473 0.0
C204 C 0.62283 0.19116 0.82667 0.0
C205 C 0.57654 0.17412 0.82075 0.0
C206 C 0.55675 0.14047 0.80365 0.0
C207 C 0.58337 0.12598 0.79187 0.0
C208 C 0.65982 0.07707 0.78686 0.0
C209 C 0.66777 0.05151 0.77045 0.0
C210 C 0.66639 0.0107 0.77635 0.0
C211 C 0.65834 0.99546 0.79893 0.0
C212 C 0.65081 0.02133 0.81542 0.0
C213 C 0.65155 0.06189 0.80941 0.0
C214 C 0.65369 0.13281 0.7499 0.0
C215 C 0.68433 0.16924 0.73616 0.0
C216 C 0.67644 0.16829 0.7128 0.0
C217 C 0.6373 0.13131 0.70295 0.0
C218 C 0.60575 0.09572 0.71686 0.0
C219 C 0.61411 0.09629 0.74014 0.0
P220 P 0.48545 0.38745 0.10132 0.0
H221 H 0.51927 0.37524 0.14457 0.0
H222 H 0.59197 0.4195 0.16485 0.0
H223 H 0.63959 0.52226 0.11207 0.0
H224 H 0.56563 0.47959 0.09305 0.0
H225 H 0.39352 0.31264 0.11213 0.0
H226 H 0.32475 0.3121 0.12586 0.0
H227 H 0.4029 0.45926 0.13506 0.0
H228 H 0.47173 0.45949 0.12107 0.0
H229 H 0.55216 0.41229 0.06434 0.0
H230 H 0.42006 0.40209 0.07432 0.0
O231 O 0.47804 0.33458 0.10009 0.0
H232 H 0.55607 0.44304 0.02616 0.0
H233 H 0.42312 0.43103 0.03643 0.0
C234 C 0.53765 0.42324 0.1169 0.0
C235 C 0.54529 0.4076 0.13755 0.0
C236 C 0.58708 0.43287 0.14903 0.0
C237 C 0.62241 0.47411 0.1399 0.0
C238 C 0.61345 0.49084 0.11976 0.0
C239 C 0.57122 0.46592 0.10855 0.0
C240 C 0.43783 0.386 0.116 0.0
C241 C 0.39618 0.34463 0.11767 0.0
C242 C 0.35683 0.34439 0.1255 0.0
C243 C 0.35837 0.38566 0.13152 0.0
C244 C 0.40057 0.42697 0.13038 0.0
C245 C 0.44 0.4271 0.12266 0.0
C246 C 0.48681 0.40666 0.07261 0.0
C247 C 0.52403 0.41656 0.05834 0.0
C248 C 0.52602 0.4337 0.03647 0.0
C249 C 0.49032 0.44038 0.02844 0.0
C250 C 0.45187 0.42769 0.04234 0.0
C251 C 0.45012 0.41102 0.06415 0.0
H252 H 0.17369 0.46983 0.12793 0.0
H253 H 0.08935 0.35662 0.17279 0.0
H254 H 0.14778 0.33254 0.17221 0.0
H255 H 0.21861 0.40978 0.0939 0.0
H256 H 0.27492 0.4597 0.09146 0.0
H257 H 0.22518 0.46637 0.09439 0.0
H258 H 0.2626 0.51895 0.12947 0.0
H259 H 0.31219 0.51198 0.12681 0.0
H260 H 0.28082 0.49798 0.15314 0.0
H261 H 0.2163 0.32247 0.16807 0.0
H262 H 0.28969 0.32545 0.15947 0.0
H263 H 0.33 0.44536 0.11744 0.0
C264 C 0.16729 0.43955 0.1373 0.0
C265 C 0.12698 0.41482 0.15028 0.0
C266 C 0.11998 0.37584 0.16265 0.0
C267 C 0.15298 0.36197 0.16246 0.0
C268 C 0.19281 0.38755 0.14987 0.0
C269 C 0.20007 0.42536 0.13741 0.0
C270 C 0.24648 0.44751 0.12584 0.0
C271 C 0.24095 0.44571 0.09986 0.0
C272 C 0.27734 0.49704 0.13433 0.0
C273 C 0.26416 0.41634 0.13383 0.0
C274 C 0.23263 0.38197 0.14766 0.0
C275 C 0.24119 0.34907 0.15716 0.0
C276 C 0.28289 0.35098 0.15214 0.0
C277 C 0.31555 0.38559 0.1378 0.0
C278 C 0.30601 0.41884 0.1287 0.0
H279 H 0.75841 0.18192 0.48445 0.0
H280 H 0.72184 0.22324 0.54729 0.0
H281 H 0.79938 0.292 0.54919 0.0
H282 H 0.88175 0.22571 0.49837 0.0
H283 H 0.89908 0.24405 0.46955 0.0
H284 H 0.84346 0.19498 0.47513 0.0
H285 H 0.80482 0.23294 0.45269 0.0
H286 H 0.86011 0.28215 0.44719 0.0
H287 H 0.81614 0.28941 0.46086 0.0
H288 H 0.87699 0.361 0.54137 0.0
H289 H 0.94923 0.42322 0.52516 0.0
H290 H 0.93388 0.33604 0.46743 0.0
C291 C 0.76721 0.20477 0.49895 0.0
C292 C 0.73451 0.19734 0.51581 0.0
C293 C 0.74674 0.22832 0.5343 0.0
C294 C 0.79064 0.26738 0.53552 0.0
C295 C 0.82177 0.27453 0.51819 0.0
C296 C 0.81072 0.2438 0.50038 0.0
C297 C 0.84864 0.26115 0.48291 0.0
C298 C 0.86947 0.22959 0.48142 0.0
C299 C 0.83138 0.26675 0.45955 0.0
C300 C 0.8822 0.30709 0.4933 0.0
C301 C 0.86639 0.31411 0.51375 0.0
C302 C 0.8901 0.35555 0.52559 0.0
C303 C 0.93087 0.39075 0.5162 0.0
C304 C 0.94736 0.38422 0.49519 0.0
C305 C 0.92281 0.34161 0.48382 0.0
H306 H 0.59094 0.73235 0.79045 0.0
H307 H 0.67812 0.75616 0.84928 0.0
H308 H 0.70147 0.8384 0.84875 0.0
H309 H 0.66677 0.8433 0.76223 0.0
H310 H 0.61884 0.84848 0.75219 0.0
H311 H 0.6127 0.79251 0.7559 0.0
H312 H 0.54294 0.76998 0.78224 0.0
H313 H 0.54924 0.82602 0.77889 0.0
H314 H 0.54962 0.80477 0.80691 0.0
H315 H 0.7088 0.91576 0.84438 0.0
H316 H 0.70511 0.98517 0.83425 0.0
H317 H 0.61424 0.91147 0.77791 0.0
C318 C 0.61579 0.75514 0.80286 0.0
C319 C 0.63293 0.73815 0.81985 0.0
C320 C 0.66483 0.7687 0.83604 0.0
C321 C 0.6782 0.81539 0.83591 0.0
C322 C 0.65959 0.83089 0.81936 0.0
C323 C 0.62961 0.80189 0.80292 0.0
C324 C 0.61311 0.82691 0.78764 0.0
C325 C 0.62881 0.82786 0.76303 0.0
C326 C 0.56062 0.80565 0.78902 0.0
C327 C 0.63779 0.87423 0.79836 0.0
C328 C 0.66438 0.87579 0.81665 0.0
C329 C 0.68859 0.91518 0.82993 0.0
C330 C 0.68599 0.95424 0.82418 0.0
C331 C 0.65955 0.95357 0.80529 0.0
C332 C 0.63519 0.91301 0.79226 0.0
H333 H 0.8463 0.48024 0.18701 0.0
H334 H 0.92181 0.62451 0.16982 0.0
H335 H 0.84822 0.62345 0.16337 0.0
H336 H 0.77017 0.45171 0.14215 0.0
H337 H 0.72281 0.40579 0.15708 0.0
H338 H 0.78088 0.42226 0.1647 0.0
H339 H 0.76267 0.43464 0.20655 0.0
H340 H 0.70508 0.41917 0.19816 0.0
H341 H 0.74142 0.47353 0.21196 0.0
H342 H 0.76631 0.60373 0.15466 0.0
H343 H 0.68549 0.56714 0.142 0.0
H344 H 0.66664 0.43398 0.16072 0.0
C345 C 0.8473 0.5121 0.18288 0.0
C346 C 0.88945 0.55284 0.17957 0.0
C347 C 0.88964 0.5933 0.17295 0.0
C348 C 0.84806 0.59291 0.16925 0.0
C349 C 0.80688 0.55158 0.17188 0.0
C350 C 0.80636 0.51185 0.1784 0.0
C351 C 0.7588 0.47037 0.17635 0.0
C352 C 0.75812 0.43549 0.15905 0.0
C353 C 0.74094 0.44813 0.19964 0.0
C354 C 0.73245 0.49276 0.16757 0.0
C355 C 0.76046 0.53967 0.16544 0.0
C356 C 0.74406 0.56705 0.15641 0.0
C357 C 0.69813 0.54582 0.14904 0.0
C358 C 0.66928 0.49748 0.15028 0.0
C359 C 0.68693 0.47103 0.16003 0.0
H360 H 0.36953 0.93367 0.4571 0.0
H361 H 0.32913 0.95966 0.52292 0.0
H362 H 0.25462 0.8876 0.51949 0.0
H363 H 0.25191 0.87421 0.43028 0.0
H364 H 0.26397 0.83419 0.41567 0.0
H365 H 0.3097 0.89185 0.42135 0.0
H366 H 0.35565 0.85936 0.44185 0.0
H367 H 0.3101 0.80181 0.43644 0.0
H368 H 0.32954 0.82016 0.46515 0.0
H369 H 0.19116 0.80707 0.51185 0.0
H370 H 0.14263 0.72599 0.49987 0.0
H371 H 0.22509 0.75332 0.43916 0.0
C372 C 0.3443 0.92498 0.4704 0.0
C373 C 0.35468 0.95216 0.49018 0.0
C374 C 0.32146 0.93932 0.50753 0.0
C375 C 0.27909 0.89853 0.50571 0.0
C376 C 0.27054 0.8714 0.48634 0.0
C377 C 0.30205 0.88441 0.46886 0.0
C378 C 0.28707 0.84702 0.45108 0.0
C379 C 0.27759 0.86277 0.42824 0.0
C380 C 0.32269 0.83116 0.4485 0.0
C381 C 0.24316 0.81024 0.4617 0.0
C382 C 0.23382 0.82503 0.4819 0.0
C383 C 0.19749 0.79544 0.4958 0.0
C384 C 0.17034 0.74947 0.48896 0.0
C385 C 0.1798 0.7337 0.46845 0.0
C386 C 0.2162 0.76479 0.45456 0.0
H387 H 0.47802 0.34032 0.80936 0.0
H388 H 0.50181 0.36767 0.88152 0.0
H389 H 0.51274 0.30044 0.88553 0.0
H390 H 0.42189 0.2103 0.81244 0.0
H391 H 0.45011 0.20927 0.7866 0.0
H392 H 0.43345 0.25216 0.79062 0.0
H393 H 0.51732 0.31599 0.78303 0.0
H394 H 0.53435 0.27361 0.77926 0.0
H395 H 0.5631 0.31851 0.80014 0.0
H396 H 0.53809 0.24203 0.87984 0.0
H397 H 0.57038 0.19472 0.86545 0.0
H398 H 0.52817 0.20508 0.79718 0.0
C399 C 0.48361 0.33095 0.82616 0.0
C400 C 0.48882 0.35874 0.84516 0.0
C401 C 0.49709 0.34627 0.86683 0.0
C402 C 0.5034 0.3082 0.86922 0.0
C403 C 0.50042 0.28273 0.84985 0.0
C404 C 0.48976 0.29313 0.82879 0.0
C405 C 0.49411 0.26449 0.81014 0.0
C406 C 0.44708 0.23212 0.79932 0.0
C407 C 0.52932 0.29498 0.79211 0.0
C408 C 0.51132 0.23807 0.82375 0.0
C409 C 0.51421 0.24847 0.84667 0.0
C410 C 0.53465 0.23255 0.86206 0.0
C411 C 0.55313 0.20597 0.85375 0.0
C412 C 0.55098 0.19565 0.83028 0.0
C413 C 0.52883 0.21108 0.8153 0.0
H414 H 0.61194 0.97032 0.52112 0.0
H415 H 0.47767 0.90946 0.48884 0.0
H416 H 0.47123 0.83344 0.49068 0.0
H417 H 0.64898 0.89692 0.49338 0.0
H418 H 0.678 0.8926 0.51823 0.0
H419 H 0.67318 0.94307 0.5139 0.0
H420 H 0.63478 0.93157 0.55329 0.0
H421 H 0.63947 0.88108 0.55772 0.0
H422 H 0.58425 0.87758 0.5597 0.0
H423 H 0.47768 0.76299 0.4967 0.0
H424 H 0.49741 0.70347 0.50621 0.0
H425 H 0.62696 0.80821 0.53503 0.0
C426 C 0.58138 0.9411 0.51428 0.0
C427 C 0.54536 0.94632 0.50482 0.0
C428 C 0.50583 0.90681 0.49623 0.0
C429 C 0.50176 0.86323 0.49716 0.0
C430 C 0.53749 0.85919 0.50673 0.0
C431 C 0.57662 0.89697 0.51511 0.0
C432 C 0.6095 0.88263 0.52489 0.0
C433 C 0.65512 0.90515 0.51182 0.0
C434 C 0.61745 0.89388 0.55041 0.0
C435 C 0.58261 0.83102 0.52076 0.0
C436 C 0.54118 0.81832 0.51024 0.0
C437 C 0.51007 0.77256 0.50494 0.0
C438 C 0.52149 0.73886 0.51056 0.0
C439 C 0.56375 0.75076 0.52141 0.0
C440 C 0.59465 0.79775 0.52646 0.0
H441 H 0.71831 0.61618 0.84592 0.0
H442 H 0.64519 0.48144 0.81433 0.0
H443 H 0.71562 0.47598 0.81549 0.0
H444 H 0.83035 0.65411 0.81855 0.0
H445 H 0.86269 0.6827 0.84376 0.0
H446 H 0.80761 0.67811 0.83869 0.0
H447 H 0.77935 0.63941 0.87785 0.0
H448 H 0.83422 0.64368 0.88299 0.0
H449 H 0.78238 0.58864 0.88442 0.0
H450 H 0.79272 0.48279 0.82175 0.0
H451 H 0.87047 0.5008 0.83358 0.0
H452 H 0.89481 0.63082 0.86154 0.0
C453 C 0.71744 0.58598 0.83885 0.0
C454 C 0.67612 0.54938 0.82986 0.0
C455 C 0.67627 0.50997 0.82128 0.0
C456 C 0.71622 0.50655 0.82181 0.0
C457 C 0.75609 0.54271 0.83111 0.0
C458 C 0.75713 0.5817 0.83951 0.0
C459 C 0.80392 0.61428 0.84982 0.0
C460 C 0.82754 0.66001 0.83693 0.0
C461 C 0.79969 0.62193 0.87528 0.0
C462 C 0.82868 0.58729 0.84608 0.0
C463 C 0.80053 0.54629 0.83507 0.0
C464 C 0.81523 0.51503 0.8302 0.0
C465 C 0.8597 0.52572 0.83689 0.0
C466 C 0.88924 0.56731 0.84848 0.0
C467 C 0.87325 0.59854 0.8529 0.0
H468 H 0.12655 0.665 0.18866 0.0
H469 H 0.18303 0.58763 0.15626 0.0
H470 H 0.26 0.65552 0.15781 0.0
H471 H 0.2007 0.7732 0.16046 0.0
H472 H 0.20771 0.80821 0.18507 0.0
H473 H 0.156 0.75355 0.18153 0.0
H474 H 0.16914 0.72788 0.22089 0.0
H475 H 0.22083 0.78249 0.22457 0.0
H476 H 0.2229 0.73009 0.22678 0.0
H477 H 0.33117 0.73038 0.16289 0.0
H478 H 0.39321 0.8081 0.17198 0.0
H479 H 0.29353 0.8407 0.20057 0.0
C480 C 0.15509 0.66237 0.18191 0.0
C481 C 0.14823 0.62054 0.17233 0.0
C482 C 0.18684 0.61888 0.16373 0.0
C483 C 0.23098 0.65742 0.16447 0.0
C484 C 0.23656 0.69791 0.1739 0.0
C485 C 0.19989 0.70086 0.18254 0.0
C486 C 0.21617 0.74889 0.19194 0.0
C487 C 0.19381 0.77235 0.17897 0.0
C488 C 0.20669 0.74722 0.21757 0.0
C489 C 0.26756 0.77214 0.18721 0.0
C490 C 0.27826 0.74188 0.17674 0.0
C491 C 0.32319 0.75457 0.17089 0.0
C492 C 0.3583 0.79927 0.17595 0.0
C493 C 0.34878 0.83147 0.1867 0.0
C494 C 0.30241 0.81733 0.19236 0.0
H495 H 0.60597 0.24294 0.51927 0.0
H496 H 0.46955 0.17112 0.48925 0.0
H497 H 0.46505 0.24203 0.49148 0.0
H498 H 0.58261 0.30968 0.55877 0.0
H499 H 0.63834 0.36035 0.55623 0.0
H500 H 0.63192 0.30453 0.55134 0.0
H501 H 0.66816 0.33009 0.51148 0.0
H502 H 0.67478 0.38605 0.51625 0.0
H503 H 0.64377 0.35287 0.49166 0.0
H504 H 0.47434 0.32084 0.49791 0.0
H505 H 0.49609 0.40014 0.50884 0.0
H506 H 0.62666 0.42137 0.53439 0.0
C507 C 0.57529 0.24216 0.51297 0.0
C508 C 0.53818 0.20115 0.504 0.0
C509 C 0.49852 0.20183 0.4962 0.0
C510 C 0.49562 0.24209 0.49735 0.0
C511 C 0.53261 0.28174 0.5064 0.0
C512 C 0.5717 0.2821 0.51409 0.0
C513 C 0.60601 0.32898 0.52368 0.0
C514 C 0.61525 0.32566 0.54901 0.0
C515 C 0.65083 0.35078 0.50995 0.0
C516 C 0.58 0.35476 0.52031 0.0
C517 C 0.53782 0.32697 0.51021 0.0
C518 C 0.50745 0.34297 0.50571 0.0
C519 C 0.52028 0.38833 0.51186 0.0
C520 C 0.56316 0.4175 0.52251 0.0
C521 C 0.5934 0.40016 0.52653 0.0
H522 H 0.43545 0.60815 0.84107 0.0
H523 H 0.37601 0.4605 0.83551 0.0
H524 H 0.29832 0.45064 0.83773 0.0
H525 H 0.35455 0.60379 0.88232 0.0
H526 H 0.35218 0.65239 0.87112 0.0
H527 H 0.40336 0.64845 0.86759 0.0
H528 H 0.3989 0.6564 0.82406 0.0
H529 H 0.34757 0.66019 0.82745 0.0
H530 H 0.34714 0.61708 0.80899 0.0
H531 H 0.22685 0.45615 0.84054 0.0
H532 H 0.16642 0.47614 0.84651 0.0
H533 H 0.27097 0.61991 0.85311 0.0
C534 C 0.40602 0.57384 0.84009 0.0
C535 C 0.41191 0.53509 0.83798 0.0
C536 C 0.3725 0.4907 0.83717 0.0
C537 C 0.32812 0.48473 0.83832 0.0
C538 C 0.3234 0.52343 0.84053 0.0
C539 C 0.36119 0.56713 0.84163 0.0
C540 C 0.34624 0.60256 0.84532 0.0
C541 C 0.36521 0.62831 0.86794 0.0
C542 C 0.36083 0.63604 0.82526 0.0
C543 C 0.29428 0.5719 0.84612 0.0
C544 C 0.28196 0.52645 0.84307 0.0
C545 C 0.23612 0.49163 0.84312 0.0
C546 C 0.20194 0.50338 0.84672 0.0
C547 C 0.21343 0.54962 0.85055 0.0
C548 C 0.26052 0.58427 0.84999 0.0
H549 H 0.85647 0.38656 0.1861 0.0
H550 H 0.90651 0.3392 0.13023 0.0
H551 H 0.83412 0.26462 0.1305 0.0
H552 H 0.80477 0.28053 0.21593 0.0
H553 H 0.75682 0.28538 0.22621 0.0
H554 H 0.81069 0.33633 0.2203 0.0
H555 H 0.76908 0.36398 0.19343 0.0
H556 H 0.71489 0.3129 0.1986 0.0
H557 H 0.73563 0.32823 0.16994 0.0
H558 H 0.757 0.19394 0.13765 0.0
H559 H 0.68387 0.13141 0.15256 0.0
H560 H 0.68449 0.22329 0.20473 0.0
C561 C 0.85188 0.36078 0.17366 0.0
C562 C 0.88709 0.36902 0.15793 0.0
C563 C 0.88007 0.33387 0.14234 0.0
C564 C 0.83896 0.29138 0.14234 0.0
C565 C 0.80516 0.28419 0.15819 0.0
C566 C 0.81129 0.31781 0.17368 0.0
C567 C 0.77096 0.30015 0.18996 0.0
C568 C 0.78676 0.30062 0.21455 0.0
C569 C 0.74616 0.32796 0.18783 0.0
C570 C 0.74118 0.25138 0.18121 0.0
C571 C 0.76135 0.24304 0.16274 0.0
C572 C 0.7408 0.20025 0.15202 0.0
C573 C 0.69895 0.16492 0.16053 0.0
C574 C 0.67793 0.17217 0.17977 0.0
C575 C 0.69947 0.21636 0.19004 0.0
H576 H 0.04976 0.58819 0.093 0.0
H577 H 1.0038 0.44333 0.10036 0.0
H578 H 0.01158 0.43714 0.05879 0.0
H579 H 0.99124 0.57923 0.04164 0.0
H580 H 0.03643 0.63207 0.03002 0.0
H581 H 0.02948 0.62521 0.06032 0.0
H582 H 0.11403 0.64415 0.06448 0.0
H583 H 0.1213 0.65121 0.03418 0.0
H584 H 0.13364 0.61133 0.04855 0.0
H585 H 0.02053 0.44666 0.01587 0.0
H586 H 0.03256 0.47142 0.9757 0.0
H587 H 0.07281 0.6101 0.99717 0.0
C588 C 0.04169 0.55522 0.0859 0.0
C589 C 0.02607 0.51617 0.0998 0.0
C590 C 0.01584 0.47364 0.08993 0.0
C591 C 0.02014 0.46984 0.06638 0.0
C592 C 0.03501 0.50898 0.05306 0.0
C593 C 0.04592 0.55091 0.06253 0.0
C594 C 0.06017 0.58762 0.0446 0.0
C595 C 0.02736 0.60716 0.04412 0.0
C596 C 0.11026 0.62583 0.04817 0.0
C597 C 0.05509 0.55979 0.02344 0.0
C598 C 0.04057 0.51451 0.02861 0.0
C599 C 0.03217 0.4821 0.01168 0.0
C600 C 0.03883 0.49641 0.98892 0.0
C601 C 0.05384 0.54273 0.9833 0.0
C602 C 0.06211 0.57465 0.0009 0.0
H603 H 0.59241 0.05277 0.42625 0.0
H604 H 0.48248 0.07854 0.44504 0.0
H605 H 0.45524 0.06523 0.40498 0.0
H606 H 0.61791 0.10933 0.37303 0.0
H607 H 0.63019 0.06871 0.35924 0.0
H608 H 0.63927 0.07862 0.38936 0.0
H609 H 0.58612 0.99167 0.39672 0.0
H610 H 0.57694 0.98146 0.36661 0.0
H611 H 0.52852 0.96294 0.38535 0.0
H612 H 0.44239 0.05131 0.3619 0.0
H613 H 0.44369 0.03604 0.32075 0.0
H614 H 0.56319 0.02076 0.33143 0.0
C615 C 0.56243 0.05541 0.42201 0.0
C616 C 0.53953 0.06675 0.43867 0.0
C617 C 0.50046 0.06987 0.43246 0.0
C618 C 0.48484 0.06241 0.40978 0.0
C619 C 0.5087 0.05181 0.39366 0.0
C620 C 0.54658 0.04818 0.39962 0.0
C621 C 0.56691 0.03717 0.3793 0.0
C622 C 0.6165 0.07576 0.37499 0.0
C623 C 0.56445 0.99054 0.38218 0.0
C624 C 0.53472 0.03523 0.36084 0.0
C625 C 0.50133 0.04376 0.36932 0.0
C626 C 0.46833 0.04445 0.35515 0.0
C627 C 0.46949 0.036 0.33179 0.0
C628 C 0.50333 0.02686 0.32286 0.0
C629 C 0.53631 0.02672 0.33772 0.0
H630 H 0.59016 0.57566 0.76516 0.0
H631 H 0.44186 0.51178 0.76879 0.0
H632 H 0.43902 0.52875 0.72821 0.0
H633 H 0.60955 0.66568 0.72318 0.0
H634 H 0.6539 0.66025 0.70872 0.0
H635 H 0.64499 0.64883 0.73873 0.0
H636 H 0.63485 0.56805 0.73207 0.0
H637 H 0.64353 0.57911 0.70209 0.0
H638 H 0.59211 0.52947 0.7121 0.0
H639 H 0.45143 0.54712 0.68687 0.0
H640 H 0.47785 0.56363 0.64719 0.0
H641 H 0.61786 0.61169 0.66969 0.0
C642 C 0.5573 0.56634 0.75748 0.0
C643 C 0.51621 0.54285 0.77003 0.0
C644 C 0.47367 0.53 0.75939 0.0
C645 C 0.47176 0.53962 0.7364 0.0
C646 C 0.51271 0.56185 0.72428 0.0
C647 C 0.55472 0.57504 0.7344 0.0
C648 C 0.59306 0.59466 0.71703 0.0
C649 C 0.6274 0.64537 0.72222 0.0
C650 C 0.61729 0.56611 0.71575 0.0
C651 C 0.56591 0.58956 0.69554 0.0
C652 C 0.51973 0.57117 0.70018 0.0
C653 C 0.48755 0.56172 0.68303 0.0
C654 C 0.50287 0.57086 0.6605 0.0
C655 C 0.54993 0.5888 0.65521 0.0
C656 C 0.58179 0.5987 0.67312 0.0
H657 H 0.50045 0.08434 0.58558 0.0
H658 H 0.61697 0.08478 0.5536 0.0
H659 H 0.65853 0.10578 0.59014 0.0
H660 H 0.5637 0.17703 0.62613 0.0
H661 H 0.52331 0.14901 0.64881 0.0
H662 H 0.50402 0.13812 0.61969 0.0
H663 H 0.47024 0.05084 0.62582 0.0
H664 H 0.48932 0.06143 0.65494 0.0
H665 H 0.50685 0.03009 0.63649 0.0
H666 H 0.68743 0.12634 0.62985 0.0
H667 H 0.6989 0.1373 0.67138 0.0
H668 H 0.56151 0.11703 0.67861 0.0
C669 C 0.5349 0.08939 0.58629 0.0
C670 C 0.55609 0.08419 0.56669 0.0
C671 C 0.60066 0.0898 0.56831 0.0
C672 C 0.62448 0.1016 0.589 0.0
C673 C 0.60283 0.1067 0.60801 0.0
C674 C 0.55881 0.10013 0.60698 0.0
C675 C 0.54224 0.10427 0.63034 0.0
C676 C 0.53277 0.14451 0.63129 0.0
C677 C 0.49965 0.05896 0.6373 0.0
C678 C 0.58378 0.11403 0.6446 0.0
C679 C 0.61859 0.11603 0.63128 0.0
C680 C 0.66046 0.12484 0.64049 0.0
C681 C 0.66675 0.13121 0.66401 0.0
C682 C 0.63111 0.12803 0.67804 0.0
C683 C 0.5892 0.11951 0.66818 0.0
H684 H 0.55118 0.49805 0.89644 0.0
H685 H 0.49975 0.59304 0.90345 0.0
H686 H 0.4804 0.57049 0.94339 0.0
H687 H 0.46554 0.40868 0.93308 0.0
H688 H 0.50586 0.39411 0.94526 0.0
H689 H 0.51422 0.41623 0.91678 0.0
H690 H 0.59581 0.48101 0.92772 0.0
H691 H 0.58771 0.45939 0.95629 0.0
H692 H 0.60302 0.51822 0.9514 0.0
H693 H 0.46998 0.54148 0.98247 0.0
H694 H 0.46629 0.50495 0.01909 0.0
H695 H 0.52277 0.42678 0.98763 0.0
C696 C 0.53545 0.51364 0.90639 0.0
C697 C 0.52702 0.54734 0.89696 0.0
C698 C 0.50664 0.56728 0.91043 0.0
C699 C 0.49547 0.5547 0.93311 0.0
C700 C 0.50481 0.52202 0.94207 0.0
C701 C 0.52409 0.50149 0.92922 0.0
C702 C 0.53127 0.46798 0.9434 0.0
C703 C 0.50249 0.41883 0.93408 0.0
C704 C 0.5825 0.48254 0.94478 0.0
C705 C 0.51337 0.47335 0.9662 0.0
C706 C 0.49828 0.50469 0.96492 0.0
C707 C 0.48114 0.51642 0.98369 0.0
C708 C 0.47895 0.49525 0.00439 0.0
C709 C 0.49362 0.4625 0.00621 0.0
C710 C 0.51134 0.45169 0.98681 0.0
H711 H 0.05925 0.54236 0.23363 0.0
H712 H 0.94497 0.40309 0.22926 0.0
H713 H 0.93447 0.40235 0.27084 0.0
H714 H 0.10765 0.52398 0.2811 0.0
H715 H 0.1277 0.57947 0.29405 0.0
H716 H 0.12057 0.57303 0.26374 0.0
H717 H 0.0663 0.60701 0.2647 0.0
H718 H 0.07353 0.61394 0.29508 0.0
H719 H 0.01672 0.5818 0.28296 0.0
H720 H 0.94176 0.41317 0.31271 0.0
H721 H 0.96869 0.43315 0.35236 0.0
H722 H 0.08095 0.5641 0.32998 0.0
C723 C 0.03112 0.51241 0.24144 0.0
C724 C 1.00238 0.473 0.22845 0.0
C725 C 0.96696 0.43366 0.23911 0.0
C726 C 0.96066 0.43304 0.26263 0.0
C727 C 0.99041 0.47192 0.27519 0.0
C728 C 0.02504 0.51089 0.26501 0.0
C729 C 0.05594 0.54565 0.28263 0.0
C730 C 0.1059 0.55611 0.28023 0.0
C731 C 0.05292 0.58971 0.28126 0.0
C732 C 0.0342 0.51948 0.30423 0.0
C733 C 0.99582 0.4775 0.29956 0.0
C734 C 0.97133 0.44623 0.31664 0.0
C735 C 0.98681 0.4579 0.33909 0.0
C736 C 0.02678 0.50018 0.3442 0.0
C737 C 0.0503 0.53153 0.32653 0.0
loop_
_geom_bond_atom_site_label_1
_geom_bond_atom_site_label_2
_geom_bond_distance
_geom_bond_site_symmetry_2
_ccdc_geom_bond_type
Dy0 O4 2.398 . S
Dy0 O5 2.491 . S
Dy0 O6 2.403 . S
Dy0 O7 2.664 . S
Dy0 O11 2.326 . S
Dy0 O15 2.310 . S
Dy0 O16 2.351 1_455 S
C1 O12 1.185 . S
C1 O13 1.355 . S
C2 O4 1.185 . S
C2 O5 1.355 . S
Dy3 O7 2.309 1_655 S
Dy3 O10 2.351 1_655 S
Dy3 O12 2.398 . S
Dy3 O13 2.492 . S
Dy3 O14 2.403 1_655 S
Dy3 O15 2.664 1_655 S
Dy3 O17 2.326 . S
O4 Dy0 2.398 . S
O4 C2 1.185 . S
O5 Dy0 2.491 . S
O5 C2 1.355 . S
O6 Dy0 2.403 . S
O6 C8 1.254 . S
O7 Dy0 2.664 . S
O7 Dy3 2.309 1_455 S
O7 C8 1.268 . S
C8 O6 1.254 . S
C8 O7 1.268 . S
C9 O14 1.254 . S
C9 O15 1.268 . S
O10 Dy3 2.351 1_455 S
O10 C18 1.249 . S
O11 Dy0 2.326 . S
O11 C18 1.267 . S
O12 C1 1.185 . S
O12 Dy3 2.398 . S
O13 C1 1.355 . S
O13 Dy3 2.492 . S
O14 Dy3 2.403 1_455 S
O14 C9 1.254 . S
O15 Dy0 2.310 . S
O15 Dy3 2.664 1_455 S
O15 C9 1.268 . S
O16 Dy0 2.351 1_655 S
O16 C19 1.249 . S
O17 Dy3 2.326 . S
O17 C19 1.267 . S
C18 O10 1.249 . S
C18 O11 1.267 . S
C19 O16 1.249 . S
C19 O17 1.267 . S
Dy20 O24 2.388 1_545 S
Dy20 O25 2.479 1_545 S
Dy20 O26 2.403 . S
Dy20 O27 2.666 . S
Dy20 O31 2.311 1_545 S
Dy20 O35 2.308 . S
Dy20 O36 2.368 . S
C21 O32 1.185 . S
C21 O33 1.355 . S
C22 O24 1.185 . S
C22 O25 1.355 . S
Dy23 O27 2.310 . S
Dy23 O30 2.351 1_545 S
Dy23 O32 2.398 . S
Dy23 O33 2.491 . S
Dy23 O34 2.403 . S
Dy23 O35 2.664 . S
Dy23 O37 2.326 . S
O24 Dy20 2.388 1_565 S
O24 C22 1.185 . S
O25 Dy20 2.479 1_565 S
O25 C22 1.355 . S
O26 Dy20 2.403 . S
O26 C28 1.254 . S
O27 Dy20 2.666 . S
O27 Dy23 2.310 . S
O27 C28 1.268 . S
C28 O26 1.254 . S
C28 O27 1.268 . S
C29 O34 1.254 . S
C29 O35 1.268 . S
O30 Dy23 2.351 1_565 S
O30 C38 1.249 . S
O31 Dy20 2.311 1_565 S
O31 C38 1.267 . S
O32 C21 1.185 . S
O32 Dy23 2.398 . S
O33 C21 1.355 . S
O33 Dy23 2.491 . S
O34 Dy23 2.403 . S
O34 C29 1.254 . S
O35 Dy20 2.308 . S
O35 Dy23 2.664 . S
O35 C29 1.268 . S
O36 Dy20 2.368 . S
O36 C39 1.249 . S
O37 Dy23 2.326 . S
O37 C39 1.267 . S
C38 O30 1.249 . S
C38 O31 1.267 . S
C39 O36 1.249 . S
C39 O37 1.267 . S
Dy40 O44 2.398 . S
Dy40 O45 2.491 . S
Dy40 O46 2.403 . S
Dy40 O47 2.664 . S
Dy40 O51 2.326 . S
Dy40 O55 2.310 . S
Dy40 O56 2.351 . S
C41 O52 1.185 . S
C41 O53 1.355 . S
C42 O44 1.185 . S
C42 O45 1.355 . S
Dy43 O47 2.310 . S
Dy43 O50 2.351 . S
Dy43 O52 2.398 . S
Dy43 O53 2.491 . S
Dy43 O54 2.403 . S
Dy43 O55 2.664 . S
Dy43 O57 2.326 . S
O44 Dy40 2.398 . S
O44 C42 1.185 . S
O45 Dy40 2.491 . S
O45 C42 1.355 . S
O46 Dy40 2.403 . S
O46 C48 1.254 . S
O47 Dy40 2.664 . S
O47 Dy43 2.310 . S
O47 C48 1.268 . S
C48 O46 1.254 . S
C48 O47 1.268 . S
C49 O54 1.254 . S
C49 O55 1.268 . S
O50 Dy43 2.351 . S
O50 C58 1.249 . S
O51 Dy40 2.326 . S
O51 C58 1.267 . S
O52 C41 1.185 . S
O52 Dy43 2.398 . S
O53 C41 1.355 . S
O53 Dy43 2.491 . S
O54 Dy43 2.403 . S
O54 C49 1.254 . S
O55 Dy40 2.310 . S
O55 Dy43 2.664 . S
O55 C49 1.268 . S
O56 Dy40 2.351 . S
O56 C59 1.249 . S
O57 Dy43 2.326 . S
O57 C59 1.267 . S
C58 O50 1.249 . S
C58 O51 1.267 . S
C59 O56 1.249 . S
C59 O57 1.267 . S
P60 O71 1.490 . S
P60 C74 1.812 . S
P60 C80 1.803 1_565 S
P60 C86 1.819 . S
H61 C75 0.941 . S
H62 C76 0.939 . S
H63 C78 0.940 . S
H64 C79 0.940 . S
H65 C81 0.939 . S
H66 C82 0.942 . S
H67 C84 0.940 . S
H68 C85 0.939 . S
H69 C87 0.941 . S
H70 C91 0.939 . S
O71 P60 1.490 . S
H72 C88 0.939 . S
H73 C90 0.940 . S
C74 P60 1.812 . S
C74 C75 1.389 . S
C74 C79 1.391 . S
C75 H61 0.941 . S
C75 C74 1.389 . S
C75 C76 1.397 . S
C76 H62 0.939 . S
C76 C75 1.397 . S
C76 C77 1.378 . S
C77 C76 1.378 . S
C77 C78 1.378 . S
C78 H63 0.940 . S
C78 C77 1.378 . S
C78 C79 1.396 . S
C79 H64 0.940 . S
C79 C74 1.391 . S
C79 C78 1.396 . S
C80 P60 1.803 1_545 S
C80 C81 1.378 . S
C80 C85 1.400 . S
C81 H65 0.939 . S
C81 C80 1.378 . S
C81 C82 1.361 . S
C82 H66 0.942 . S
C82 C81 1.361 . S
C82 C83 1.369 . S
C83 C82 1.369 . S
C83 C84 1.404 . S
C84 H67 0.940 . S
C84 C83 1.404 . S
C84 C85 1.389 . S
C85 H68 0.939 . S
C85 C80 1.400 . S
C85 C84 1.389 . S
C86 P60 1.819 . S
C86 C87 1.391 . S
C86 C91 1.391 1_565 S
C87 H69 0.941 . S
C87 C86 1.391 . S
C87 C88 1.396 . S
C88 H72 0.939 . S
C88 C87 1.396 . S
C88 C89 1.397 1_565 S
C89 C88 1.397 1_545 S
C89 C90 1.385 . S
C90 H73 0.940 . S
C90 C89 1.385 . S
C90 C91 1.388 . S
C91 H70 0.939 . S
C91 C86 1.391 1_545 S
C91 C90 1.388 . S
P92 O103 1.490 . S
P92 C106 1.812 . S
P92 C112 1.803 . S
P92 C118 1.819 . S
H93 C107 0.941 . S
H94 C108 0.939 . S
H95 C110 0.940 . S
H96 C111 0.940 . S
H97 C113 0.939 . S
H98 C114 0.942 . S
H99 C116 0.940 . S
H100 C117 0.939 . S
H101 C119 0.941 . S
H102 C123 0.939 . S
O103 P92 1.490 . S
H104 C120 0.939 . S
H105 C122 0.940 . S
C106 P92 1.812 . S
C106 C107 1.389 . S
C106 C111 1.391 . S
C107 H93 0.941 . S
C107 C106 1.389 . S
C107 C108 1.397 . S
C108 H94 0.939 . S
C108 C107 1.397 . S
C108 C109 1.378 . S
C109 C108 1.378 . S
C109 C110 1.378 . S
C110 H95 0.940 . S
C110 C109 1.378 . S
C110 C111 1.396 . S
C111 H96 0.940 . S
C111 C106 1.391 . S
C111 C110 1.396 . S
C112 P92 1.803 . S
C112 C113 1.378 . S
C112 C117 1.400 . S
C113 H97 0.939 . S
C113 C112 1.378 . S
C113 C114 1.361 . S
C114 H98 0.942 . S
C114 C113 1.361 . S
C114 C115 1.369 . S
C115 C114 1.369 . S
C115 C116 1.404 . S
C116 H99 0.940 . S
C116 C115 1.404 . S
C116 C117 1.389 . S
C117 H100 0.939 . S
C117 C112 1.400 . S
C117 C116 1.389 . S
C118 P92 1.819 . S
C118 C119 1.391 . S
C118 C123 1.391 . S
C119 H101 0.941 . S
C119 C118 1.391 . S
C119 C120 1.396 . S
C120 H104 0.939 . S
C120 C119 1.396 . S
C120 C121 1.397 . S
C121 C120 1.397 . S
C121 C122 1.385 . S
C122 H105 0.940 . S
C122 C121 1.385 . S
C122 C123 1.388 . S
C123 H102 0.939 . S
C123 C118 1.391 . S
C123 C122 1.388 . S
P124 O135 1.490 . S
P124 C138 1.812 . S
P124 C144 1.803 . S
P124 C150 1.819 . S
H125 C139 0.941 . S
H126 C140 0.939 . S
H127 C142 0.940 . S
H128 C143 0.940 . S
H129 C145 0.939 . S
H130 C146 0.942 . S
H131 C148 0.940 . S
H132 C149 0.939 . S
H133 C151 0.941 . S
H134 C155 0.939 . S
O135 P124 1.490 . S
H136 C152 0.939 . S
H137 C154 0.940 1_655 S
C138 P124 1.812 . S
C138 C139 1.389 . S
C138 C143 1.391 . S
C139 H125 0.941 . S
C139 C138 1.389 . S
C139 C140 1.397 . S
C140 H126 0.939 . S
C140 C139 1.397 . S
C140 C141 1.378 . S
C141 C140 1.378 . S
C141 C142 1.378 . S
C142 H127 0.940 . S
C142 C141 1.378 . S
C142 C143 1.396 . S
C143 H128 0.940 . S
C143 C138 1.391 . S
C143 C142 1.396 . S
C144 P124 1.803 . S
C144 C145 1.378 . S
C144 C149 1.400 . S
C145 H129 0.939 . S
C145 C144 1.378 . S
C145 C146 1.361 1_455 S
C146 H130 0.942 . S
C146 C145 1.361 1_655 S
C146 C147 1.369 . S
C147 C146 1.369 . S
C147 C148 1.404 . S
C148 H131 0.940 . S
C148 C147 1.404 . S
C148 C149 1.389 1_655 S
C149 H132 0.939 . S
C149 C144 1.400 . S
C149 C148 1.389 1_455 S
C150 P124 1.819 . S
C150 C151 1.391 . S
C150 C155 1.391 . S
C151 H133 0.941 . S
C151 C150 1.391 . S
C151 C152 1.396 . S
C152 H136 0.939 . S
C152 C151 1.396 . S
C152 C153 1.397 . S
C153 C152 1.397 . S
C153 C154 1.385 . S
C154 H137 0.940 1_455 S
C154 C153 1.385 . S
C154 C155 1.388 . S
C155 H134 0.939 . S
C155 C150 1.391 . S
C155 C154 1.388 . S
P156 O167 1.490 . S
P156 C170 1.812 . S
P156 C176 1.803 1_455 S
P156 C182 1.819 . S
H157 C171 0.941 . S
H158 C172 0.939 . S
H159 C174 0.940 . S
H160 C175 0.940 . S
H161 C177 0.939 . S
H162 C178 0.942 . S
H163 C180 0.940 . S
H164 C181 0.939 . S
H165 C183 0.941 . S
H166 C187 0.939 . S
O167 P156 1.490 . S
H168 C184 0.939 . S
H169 C186 0.940 . S
C170 P156 1.812 . S
C170 C171 1.389 . S
C170 C175 1.391 . S
C171 H157 0.941 . S
C171 C170 1.389 . S
C171 C172 1.397 . S
C172 H158 0.939 . S
C172 C171 1.397 . S
C172 C173 1.378 . S
C173 C172 1.378 . S
C173 C174 1.378 . S
C174 H159 0.940 . S
C174 C173 1.378 . S
C174 C175 1.396 . S
C175 H160 0.940 . S
C175 C170 1.391 . S
C175 C174 1.396 . S
C176 P156 1.803 1_655 S
C176 C177 1.378 . S
C176 C181 1.400 . S
C177 H161 0.939 . S
C177 C176 1.378 . S
C177 C178 1.361 . S
C178 H162 0.942 . S
C178 C177 1.361 . S
C178 C179 1.369 . S
C179 C178 1.369 . S
C179 C180 1.404 . S
C180 H163 0.940 . S
C180 C179 1.404 . S
C180 C181 1.389 . S
C181 H164 0.939 . S
C181 C176 1.400 . S
C181 C180 1.389 . S
C182 P156 1.819 . S
C182 C183 1.391 . S
C182 C187 1.391 1_455 S
C183 H165 0.941 . S
C183 C182 1.391 . S
C183 C184 1.396 . S
C184 H168 0.939 . S
C184 C183 1.396 . S
C184 C185 1.397 . S
C185 C184 1.397 . S
C185 C186 1.385 1_455 S
C186 H169 0.940 . S
C186 C185 1.385 1_655 S
C186 C187 1.388 . S
C187 H166 0.939 . S
C187 C182 1.391 1_655 S
C187 C186 1.388 . S
P188 O199 1.490 . S
P188 C202 1.812 . S
P188 C208 1.803 . S
P188 C214 1.819 . S
H189 C203 0.941 . S
H190 C204 0.939 . S
H191 C206 0.940 . S
H192 C207 0.940 . S
H193 C209 0.939 . S
H194 C210 0.942 . S
H195 C212 0.940 . S
H196 C213 0.939 . S
H197 C215 0.941 . S
H198 C219 0.939 . S
O199 P188 1.490 . S
H200 C216 0.939 . S
H201 C218 0.940 1_565 S
C202 P188 1.812 . S
C202 C203 1.389 . S
C202 C207 1.391 . S
C203 H189 0.941 . S
C203 C202 1.389 . S
C203 C204 1.397 . S
C204 H190 0.939 . S
C204 C203 1.397 . S
C204 C205 1.378 . S
C205 C204 1.378 . S
C205 C206 1.378 . S
C206 H191 0.940 . S
C206 C205 1.378 . S
C206 C207 1.396 . S
C207 H192 0.940 . S
C207 C202 1.391 . S
C207 C206 1.396 . S
C208 P188 1.803 . S
C208 C209 1.378 . S
C208 C213 1.400 . S
C209 H193 0.939 . S
C209 C208 1.378 . S
C209 C210 1.361 1_545 S
C210 H194 0.942 . S
C210 C209 1.361 1_565 S
C210 C211 1.369 . S
C211 C210 1.369 . S
C211 C212 1.404 . S
C212 H195 0.940 . S
C212 C211 1.404 . S
C212 C213 1.389 1_565 S
C213 H196 0.939 . S
C213 C208 1.400 . S
C213 C212 1.389 1_545 S
C214 P188 1.819 . S
C214 C215 1.391 . S
C214 C219 1.391 . S
C215 H197 0.941 . S
C215 C214 1.391 . S
C215 C216 1.396 . S
C216 H200 0.939 . S
C216 C215 1.396 . S
C216 C217 1.397 . S
C217 C216 1.397 . S
C217 C218 1.385 . S
C218 H201 0.940 1_545 S
C218 C217 1.385 . S
C218 C219 1.388 . S
C219 H198 0.939 . S
C219 C214 1.391 . S
C219 C218 1.388 . S
P220 O231 1.490 . S
P220 C234 1.812 . S
P220 C240 1.803 . S
P220 C246 1.819 . S
H221 C235 0.941 . S
H222 C236 0.939 . S
H223 C238 0.940 . S
H224 C239 0.940 . S
H225 C241 0.939 . S
H226 C242 0.942 . S
H227 C244 0.940 . S
H228 C245 0.939 . S
H229 C247 0.941 . S
H230 C251 0.939 . S
O231 P220 1.490 . S
H232 C248 0.939 . S
H233 C250 0.940 . S
C234 P220 1.812 . S
C234 C235 1.389 . S
C234 C239 1.391 . S
C235 H221 0.941 . S
C235 C234 1.389 . S
C235 C236 1.397 . S
C236 H222 0.939 . S
C236 C235 1.397 . S
C236 C237 1.378 . S
C237 C236 1.378 . S
C237 C238 1.378 . S
C238 H223 0.940 . S
C238 C237 1.378 . S
C238 C239 1.396 . S
C239 H224 0.940 . S
C239 C234 1.391 . S
C239 C238 1.396 . S
C240 P220 1.803 . S
C240 C241 1.378 . S
C240 C245 1.400 . S
C241 H225 0.939 . S
C241 C240 1.378 . S
C241 C242 1.361 . S
C242 H226 0.942 . S
C242 C241 1.361 . S
C242 C243 1.369 . S
C243 C242 1.369 . S
C243 C244 1.404 . S
C244 H227 0.940 . S
C244 C243 1.404 . S
C244 C245 1.389 . S
C245 H228 0.939 . S
C245 C240 1.400 . S
C245 C244 1.389 . S
C246 P220 1.819 . S
C246 C247 1.391 . S
C246 C251 1.391 . S
C247 H229 0.941 . S
C247 C246 1.391 . S
C247 C248 1.396 . S
C248 H232 0.939 . S
C248 C247 1.396 . S
C248 C249 1.397 . S
C249 C248 1.397 . S
C249 C250 1.385 . S
C250 H233 0.940 . S
C250 C249 1.385 . S
C250 C251 1.388 . S
C251 H230 0.939 . S
C251 C246 1.391 . S
C251 C250 1.388 . S
H252 C264 0.930 . S
H253 C266 0.930 . S
H254 C267 0.930 . S
H255 C271 0.959 . S
H256 C271 0.959 . S
H257 C271 0.961 . S
H258 C272 0.960 . S
H259 C272 0.961 . S
H260 C272 0.959 . S
H261 C275 0.929 . S
H262 C276 0.931 . S
H263 C278 0.930 . S
C264 H252 0.930 . S
C264 C265 1.399 . S
C264 C269 1.399 . S
C265 C264 1.399 . S
C265 C266 1.376 . S
C266 H253 0.930 . S
C266 C265 1.376 . S
C266 C267 1.388 . S
C267 H254 0.930 . S
C267 C266 1.388 . S
C267 C268 1.390 . S
C268 C267 1.390 . S
C268 C269 1.394 . S
C268 C274 1.465 . S
C269 C264 1.399 . S
C269 C268 1.394 . S
C269 C270 1.516 . S
C270 C269 1.516 . S
C270 C271 1.502 . S
C270 C272 1.561 . S
C270 C273 1.526 . S
C271 H255 0.959 . S
C271 H256 0.959 . S
C271 H257 0.961 . S
C271 C270 1.502 . S
C272 H258 0.960 . S
C272 H259 0.961 . S
C272 H260 0.959 . S
C272 C270 1.561 . S
C273 C270 1.526 . S
C273 C274 1.396 . S
C273 C278 1.390 . S
C274 C268 1.465 . S
C274 C273 1.396 . S
C274 C275 1.399 . S
C275 H261 0.929 . S
C275 C274 1.399 . S
C275 C276 1.385 . S
C276 H262 0.931 . S
C276 C275 1.385 . S
C276 C277 1.389 . S
C277 C276 1.389 . S
C277 C278 1.387 . S
C278 H263 0.930 . S
C278 C273 1.390 . S
C278 C277 1.387 . S
H279 C291 0.930 . S
H280 C293 0.930 . S
H281 C294 0.930 . S
H282 C298 0.959 . S
H283 C298 0.959 . S
H284 C298 0.961 . S
H285 C299 0.960 . S
H286 C299 0.961 . S
H287 C299 0.959 . S
H288 C302 0.929 . S
H289 C303 0.931 . S
H290 C305 0.930 . S
C291 H279 0.930 . S
C291 C292 1.399 . S
C291 C296 1.399 . S
C292 C291 1.399 . S
C292 C293 1.376 . S
C293 H280 0.930 . S
C293 C292 1.376 . S
C293 C294 1.388 . S
C294 H281 0.930 . S
C294 C293 1.388 . S
C294 C295 1.390 . S
C295 C294 1.390 . S
C295 C296 1.394 . S
C295 C301 1.465 . S
C296 C291 1.399 . S
C296 C295 1.394 . S
C296 C297 1.516 . S
C297 C296 1.516 . S
C297 C298 1.502 . S
C297 C299 1.561 . S
C297 C300 1.526 . S
C298 H282 0.959 . S
C298 H283 0.959 . S
C298 H284 0.961 . S
C298 C297 1.502 . S
C299 H285 0.960 . S
C299 H286 0.961 . S
C299 H287 0.959 . S
C299 C297 1.561 . S
C300 C297 1.526 . S
C300 C301 1.396 . S
C300 C305 1.390 . S
C301 C295 1.465 . S
C301 C300 1.396 . S
C301 C302 1.399 . S
C302 H288 0.929 . S
C302 C301 1.399 . S
C302 C303 1.385 . S
C303 H289 0.931 . S
C303 C302 1.385 . S
C303 C304 1.389 . S
C304 C303 1.389 . S
C304 C305 1.387 . S
C305 H290 0.930 . S
C305 C300 1.390 . S
C305 C304 1.387 . S
H306 C318 0.930 . S
H307 C320 0.930 . S
H308 C321 0.930 . S
H309 C325 0.959 . S
H310 C325 0.959 . S
H311 C325 0.961 . S
H312 C326 0.960 . S
H313 C326 0.961 . S
H314 C326 0.959 . S
H315 C329 0.929 . S
H316 C330 0.931 . S
H317 C332 0.930 . S
C318 H306 0.930 . S
C318 C319 1.399 . S
C318 C323 1.399 . S
C319 C318 1.399 . S
C319 C320 1.376 . S
C320 H307 0.930 . S
C320 C319 1.376 . S
C320 C321 1.388 . S
C321 H308 0.930 . S
C321 C320 1.388 . S
C321 C322 1.390 . S
C322 C321 1.390 . S
C322 C323 1.394 . S
C322 C328 1.465 . S
C323 C318 1.399 . S
C323 C322 1.394 . S
C323 C324 1.516 . S
C324 C323 1.516 . S
C324 C325 1.502 . S
C324 C326 1.561 . S
C324 C327 1.526 . S
C325 H309 0.959 . S
C325 H310 0.959 . S
C325 H311 0.961 . S
C325 C324 1.502 . S
C326 H312 0.960 . S
C326 H313 0.961 . S
C326 H314 0.959 . S
C326 C324 1.561 . S
C327 C324 1.526 . S
C327 C328 1.396 . S
C327 C332 1.390 . S
C328 C322 1.465 . S
C328 C327 1.396 . S
C328 C329 1.399 . S
C329 H315 0.929 . S
C329 C328 1.399 . S
C329 C330 1.385 . S
C330 H316 0.931 . S
C330 C329 1.385 . S
C330 C331 1.389 . S
C331 C330 1.389 . S
C331 C332 1.387 . S
C332 H317 0.930 . S
C332 C327 1.390 . S
C332 C331 1.387 . S
H333 C345 0.930 . S
H334 C347 0.930 . S
H335 C348 0.930 . S
H336 C352 0.959 . S
H337 C352 0.959 . S
H338 C352 0.961 . S
H339 C353 0.960 . S
H340 C353 0.961 . S
H341 C353 0.959 . S
H342 C356 0.929 . S
H343 C357 0.931 . S
H344 C359 0.930 . S
C345 H333 0.930 . S
C345 C346 1.399 . S
C345 C350 1.399 . S
C346 C345 1.399 . S
C346 C347 1.376 . S
C347 H334 0.930 . S
C347 C346 1.376 . S
C347 C348 1.388 . S
C348 H335 0.930 . S
C348 C347 1.388 . S
C348 C349 1.390 . S
C349 C348 1.390 . S
C349 C350 1.394 . S
C349 C355 1.465 . S
C350 C345 1.399 . S
C350 C349 1.394 . S
C350 C351 1.516 . S
C351 C350 1.516 . S
C351 C352 1.502 . S
C351 C353 1.561 . S
C351 C354 1.526 . S
C352 H336 0.959 . S
C352 H337 0.959 . S
C352 H338 0.961 . S
C352 C351 1.502 . S
C353 H339 0.960 . S
C353 H340 0.961 . S
C353 H341 0.959 . S
C353 C351 1.561 . S
C354 C351 1.526 . S
C354 C355 1.396 . S
C354 C359 1.390 . S
C355 C349 1.465 . S
C355 C354 1.396 . S
C355 C356 1.399 . S
C356 H342 0.929 . S
C356 C355 1.399 . S
C356 C357 1.385 . S
C357 H343 0.931 . S
C357 C356 1.385 . S
C357 C358 1.389 . S
C358 C357 1.389 . S
C358 C359 1.387 . S
C359 H344 0.930 . S
C359 C354 1.390 . S
C359 C358 1.387 . S
H360 C372 0.930 . S
H361 C374 0.930 . S
H362 C375 0.930 . S
H363 C379 0.959 . S
H364 C379 0.959 . S
H365 C379 0.961 . S
H366 C380 0.960 . S
H367 C380 0.961 . S
H368 C380 0.959 . S
H369 C383 0.929 . S
H370 C384 0.931 . S
H371 C386 0.930 . S
C372 H360 0.930 . S
C372 C373 1.399 . S
C372 C377 1.399 . S
C373 C372 1.399 . S
C373 C374 1.376 . S
C374 H361 0.930 . S
C374 C373 1.376 . S
C374 C375 1.388 . S
C375 H362 0.930 . S
C375 C374 1.388 . S
C375 C376 1.390 . S
C376 C375 1.390 . S
C376 C377 1.394 . S
C376 C382 1.465 . S
C377 C372 1.399 . S
C377 C376 1.394 . S
C377 C378 1.516 . S
C378 C377 1.516 . S
C378 C379 1.502 . S
C378 C380 1.561 . S
C378 C381 1.526 . S
C379 H363 0.959 . S
C379 H364 0.959 . S
C379 H365 0.961 . S
C379 C378 1.502 . S
C380 H366 0.960 . S
C380 H367 0.961 . S
C380 H368 0.959 . S
C380 C378 1.561 . S
C381 C378 1.526 . S
C381 C382 1.396 . S
C381 C386 1.390 . S
C382 C376 1.465 . S
C382 C381 1.396 . S
C382 C383 1.399 . S
C383 H369 0.929 . S
C383 C382 1.399 . S
C383 C384 1.385 . S
C384 H370 0.931 . S
C384 C383 1.385 . S
C384 C385 1.389 . S
C385 C384 1.389 . S
C385 C386 1.387 . S
C386 H371 0.930 . S
C386 C381 1.390 . S
C386 C385 1.387 . S
H387 C399 0.930 . S
H388 C401 0.930 . S
H389 C402 0.930 . S
H390 C406 0.959 . S
H391 C406 0.959 . S
H392 C406 0.961 . S
H393 C407 0.960 . S
H394 C407 0.961 . S
H395 C407 0.959 . S
H396 C410 0.929 . S
H397 C411 0.931 . S
H398 C413 0.930 . S
C399 H387 0.930 . S
C399 C400 1.399 . S
C399 C404 1.399 . S
C400 C399 1.399 . S
C400 C401 1.376 . S
C401 H388 0.930 . S
C401 C400 1.376 . S
C401 C402 1.388 . S
C402 H389 0.930 . S
C402 C401 1.388 . S
C402 C403 1.390 . S
C403 C402 1.390 . S
C403 C404 1.394 . S
C403 C409 1.465 . S
C404 C399 1.399 . S
C404 C403 1.394 . S
C404 C405 1.516 . S
C405 C404 1.516 . S
C405 C406 1.502 . S
C405 C407 1.561 . S
C405 C408 1.526 . S
C406 H390 0.959 . S
C406 H391 0.959 . S
C406 H392 0.961 . S
C406 C405 1.502 . S
C407 H393 0.960 . S
C407 H394 0.961 . S
C407 H395 0.959 . S
C407 C405 1.561 . S
C408 C405 1.526 . S
C408 C409 1.396 . S
C408 C413 1.390 . S
C409 C403 1.465 . S
C409 C408 1.396 . S
C409 C410 1.399 . S
C410 H396 0.929 . S
C410 C409 1.399 . S
C410 C411 1.385 . S
C411 H397 0.931 . S
C411 C410 1.385 . S
C411 C412 1.389 . S
C412 C411 1.389 . S
C412 C413 1.387 . S
C413 H398 0.930 . S
C413 C408 1.390 . S
C413 C412 1.387 . S
H414 C426 0.930 . S
H415 C428 0.930 . S
H416 C429 0.930 . S
H417 C433 0.959 . S
H418 C433 0.959 . S
H419 C433 0.961 . S
H420 C434 0.960 . S
H421 C434 0.961 . S
H422 C434 0.959 . S
H423 C437 0.929 . S
H424 C438 0.931 . S
H425 C440 0.930 . S
C426 H414 0.930 . S
C426 C427 1.399 . S
C426 C431 1.399 . S
C427 C426 1.399 . S
C427 C428 1.376 . S
C428 H415 0.930 . S
C428 C427 1.376 . S
C428 C429 1.388 . S
C429 H416 0.930 . S
C429 C428 1.388 . S
C429 C430 1.390 . S
C430 C429 1.390 . S
C430 C431 1.394 . S
C430 C436 1.465 . S
C431 C426 1.399 . S
C431 C430 1.394 . S
C431 C432 1.516 . S
C432 C431 1.516 . S
C432 C433 1.502 . S
C432 C434 1.561 . S
C432 C435 1.526 . S
C433 H417 0.959 . S
C433 H418 0.959 . S
C433 H419 0.961 . S
C433 C432 1.502 . S
C434 H420 0.960 . S
C434 H421 0.961 . S
C434 H422 0.959 . S
C434 C432 1.561 . S
C435 C432 1.526 . S
C435 C436 1.396 . S
C435 C440 1.390 . S
C436 C430 1.465 . S
C436 C435 1.396 . S
C436 C437 1.399 . S
C437 H423 0.929 . S
C437 C436 1.399 . S
C437 C438 1.385 . S
C438 H424 0.931 . S
C438 C437 1.385 . S
C438 C439 1.389 . S
C439 C438 1.389 . S
C439 C440 1.387 . S
C440 H425 0.930 . S
C440 C435 1.390 . S
C440 C439 1.387 . S
H441 C453 0.930 . S
H442 C455 0.930 . S
H443 C456 0.930 . S
H444 C460 0.959 . S
H445 C460 0.959 . S
H446 C460 0.961 . S
H447 C461 0.960 . S
H448 C461 0.961 . S
H449 C461 0.959 . S
H450 C464 0.929 . S
H451 C465 0.931 . S
H452 C467 0.930 . S
C453 H441 0.930 . S
C453 C454 1.399 . S
C453 C458 1.399 . S
C454 C453 1.399 . S
C454 C455 1.376 . S
C455 H442 0.930 . S
C455 C454 1.376 . S
C455 C456 1.388 . S
C456 H443 0.930 . S
C456 C455 1.388 . S
C456 C457 1.390 . S
C457 C456 1.390 . S
C457 C458 1.394 . S
C457 C463 1.465 . S
C458 C453 1.399 . S
C458 C457 1.394 . S
C458 C459 1.516 . S
C459 C458 1.516 . S
C459 C460 1.502 . S
C459 C461 1.561 . S
C459 C462 1.526 . S
C460 H444 0.959 . S
C460 H445 0.959 . S
C460 H446 0.961 . S
C460 C459 1.502 . S
C461 H447 0.960 . S
C461 H448 0.961 . S
C461 H449 0.959 . S
C461 C459 1.561 . S
C462 C459 1.526 . S
C462 C463 1.396 . S
C462 C467 1.390 . S
C463 C457 1.465 . S
C463 C462 1.396 . S
C463 C464 1.399 . S
C464 H450 0.929 . S
C464 C463 1.399 . S
C464 C465 1.385 . S
C465 H451 0.931 . S
C465 C464 1.385 . S
C465 C466 1.389 . S
C466 C465 1.389 . S
C466 C467 1.387 . S
C467 H452 0.930 . S
C467 C462 1.390 . S
C467 C466 1.387 . S
H468 C480 0.930 . S
H469 C482 0.930 . S
H470 C483 0.930 . S
H471 C487 0.959 . S
H472 C487 0.959 . S
H473 C487 0.961 . S
H474 C488 0.960 . S
H475 C488 0.961 . S
H476 C488 0.959 . S
H477 C491 0.929 . S
H478 C492 0.931 . S
H479 C494 0.930 . S
C480 H468 0.930 . S
C480 C481 1.399 . S
C480 C485 1.399 . S
C481 C480 1.399 . S
C481 C482 1.376 . S
C482 H469 0.930 . S
C482 C481 1.376 . S
C482 C483 1.388 . S
C483 H470 0.930 . S
C483 C482 1.388 . S
C483 C484 1.390 . S
C484 C483 1.390 . S
C484 C485 1.394 . S
C484 C490 1.465 . S
C485 C480 1.399 . S
C485 C484 1.394 . S
C485 C486 1.516 . S
C486 C485 1.516 . S
C486 C487 1.502 . S
C486 C488 1.561 . S
C486 C489 1.526 . S
C487 H471 0.959 . S
C487 H472 0.959 . S
C487 H473 0.961 . S
C487 C486 1.502 . S
C488 H474 0.960 . S
C488 H475 0.961 . S
C488 H476 0.959 . S
C488 C486 1.561 . S
C489 C486 1.526 . S
C489 C490 1.396 . S
C489 C494 1.390 . S
C490 C484 1.465 . S
C490 C489 1.396 . S
C490 C491 1.399 . S
C491 H477 0.929 . S
C491 C490 1.399 . S
C491 C492 1.385 . S
C492 H478 0.931 . S
C492 C491 1.385 . S
C492 C493 1.389 . S
C493 C492 1.389 . S
C493 C494 1.387 . S
C494 H479 0.930 . S
C494 C489 1.390 . S
C494 C493 1.387 . S
H495 C507 0.930 . S
H496 C509 0.930 . S
H497 C510 0.930 . S
H498 C514 0.959 . S
H499 C514 0.959 . S
H500 C514 0.961 . S
H501 C515 0.960 . S
H502 C515 0.961 . S
H503 C515 0.959 . S
H504 C518 0.929 . S
H505 C519 0.931 . S
H506 C521 0.930 . S
C507 H495 0.930 . S
C507 C508 1.399 . S
C507 C512 1.399 . S
C508 C507 1.399 . S
C508 C509 1.376 . S
C509 H496 0.930 . S
C509 C508 1.376 . S
C509 C510 1.388 . S
C510 H497 0.930 . S
C510 C509 1.388 . S
C510 C511 1.390 . S
C511 C510 1.390 . S
C511 C512 1.394 . S
C511 C517 1.465 . S
C512 C507 1.399 . S
C512 C511 1.394 . S
C512 C513 1.516 . S
C513 C512 1.516 . S
C513 C514 1.502 . S
C513 C515 1.561 . S
C513 C516 1.526 . S
C514 H498 0.959 . S
C514 H499 0.959 . S
C514 H500 0.961 . S
C514 C513 1.502 . S
C515 H501 0.960 . S
C515 H502 0.961 . S
C515 H503 0.959 . S
C515 C513 1.561 . S
C516 C513 1.526 . S
C516 C517 1.396 . S
C516 C521 1.390 . S
C517 C511 1.465 . S
C517 C516 1.396 . S
C517 C518 1.399 . S
C518 H504 0.929 . S
C518 C517 1.399 . S
C518 C519 1.385 . S
C519 H505 0.931 . S
C519 C518 1.385 . S
C519 C520 1.389 . S
C520 C519 1.389 . S
C520 C521 1.387 . S
C521 H506 0.930 . S
C521 C516 1.390 . S
C521 C520 1.387 . S
H522 C534 0.930 . S
H523 C536 0.930 . S
H524 C537 0.930 . S
H525 C541 0.959 . S
H526 C541 0.959 . S
H527 C541 0.961 . S
H528 C542 0.960 . S
H529 C542 0.961 . S
H530 C542 0.959 . S
H531 C545 0.929 . S
H532 C546 0.931 . S
H533 C548 0.930 . S
C534 H522 0.930 . S
C534 C535 1.399 . S
C534 C539 1.399 . S
C535 C534 1.399 . S
C535 C536 1.376 . S
C536 H523 0.930 . S
C536 C535 1.376 . S
C536 C537 1.388 . S
C537 H524 0.930 . S
C537 C536 1.388 . S
C537 C538 1.390 . S
C538 C537 1.390 . S
C538 C539 1.394 . S
C538 C544 1.465 . S
C539 C534 1.399 . S
C539 C538 1.394 . S
C539 C540 1.516 . S
C540 C539 1.516 . S
C540 C541 1.502 . S
C540 C542 1.561 . S
C540 C543 1.526 . S
C541 H525 0.959 . S
C541 H526 0.959 . S
C541 H527 0.961 . S
C541 C540 1.502 . S
C542 H528 0.960 . S
C542 H529 0.961 . S
C542 H530 0.959 . S
C542 C540 1.561 . S
C543 C540 1.526 . S
C543 C544 1.396 . S
C543 C548 1.390 . S
C544 C538 1.465 . S
C544 C543 1.396 . S
C544 C545 1.399 . S
C545 H531 0.929 . S
C545 C544 1.399 . S
C545 C546 1.385 . S
C546 H532 0.931 . S
C546 C545 1.385 . S
C546 C547 1.389 . S
C547 C546 1.389 . S
C547 C548 1.387 . S
C548 H533 0.930 . S
C548 C543 1.390 . S
C548 C547 1.387 . S
H549 C561 0.930 . S
H550 C563 0.930 . S
H551 C564 0.930 . S
H552 C568 0.959 . S
H553 C568 0.959 . S
H554 C568 0.961 . S
H555 C569 0.960 . S
H556 C569 0.961 . S
H557 C569 0.959 . S
H558 C572 0.929 . S
H559 C573 0.931 . S
H560 C575 0.930 . S
C561 H549 0.930 . S
C561 C562 1.399 . S
C561 C566 1.399 . S
C562 C561 1.399 . S
C562 C563 1.376 . S
C563 H550 0.930 . S
C563 C562 1.376 . S
C563 C564 1.388 . S
C564 H551 0.930 . S
C564 C563 1.388 . S
C564 C565 1.390 . S
C565 C564 1.390 . S
C565 C566 1.394 . S
C565 C571 1.465 . S
C566 C561 1.399 . S
C566 C565 1.394 . S
C566 C567 1.516 . S
C567 C566 1.516 . S
C567 C568 1.502 . S
C567 C569 1.561 . S
C567 C570 1.526 . S
C568 H552 0.959 . S
C568 H553 0.959 . S
C568 H554 0.961 . S
C568 C567 1.502 . S
C569 H555 0.960 . S
C569 H556 0.961 . S
C569 H557 0.959 . S
C569 C567 1.561 . S
C570 C567 1.526 . S
C570 C571 1.396 . S
C570 C575 1.390 . S
C571 C565 1.465 . S
C571 C570 1.396 . S
C571 C572 1.399 . S
C572 H558 0.929 . S
C572 C571 1.399 . S
C572 C573 1.385 . S
C573 H559 0.931 . S
C573 C572 1.385 . S
C573 C574 1.389 . S
C574 C573 1.389 . S
C574 C575 1.387 . S
C575 H560 0.930 . S
C575 C570 1.390 . S
C575 C574 1.387 . S
H576 C588 0.930 . S
H577 C590 0.930 . S
H578 C591 0.930 . S
H579 C595 0.959 1_655 S
H580 C595 0.959 . S
H581 C595 0.961 . S
H582 C596 0.960 . S
H583 C596 0.961 . S
H584 C596 0.959 . S
H585 C599 0.929 . S
H586 C600 0.931 . S
H587 C602 0.922 1_556 S
C588 H576 0.930 . S
C588 C589 1.399 . S
C588 C593 1.399 . S
C589 C588 1.399 . S
C589 C590 1.376 . S
C590 H577 0.930 . S
C590 C589 1.376 . S
C590 C591 1.388 . S
C591 H578 0.930 . S
C591 C590 1.388 . S
C591 C592 1.390 . S
C592 C591 1.390 . S
C592 C593 1.394 . S
C592 C598 1.465 . S
C593 C588 1.399 . S
C593 C592 1.394 . S
C593 C594 1.516 . S
C594 C593 1.516 . S
C594 C595 1.502 . S
C594 C596 1.561 . S
C594 C597 1.526 . S
C595 H579 0.959 1_455 S
C595 H580 0.959 . S
C595 H581 0.961 . S
C595 C594 1.502 . S
C596 H582 0.960 . S
C596 H583 0.961 . S
C596 H584 0.959 . S
C596 C594 1.561 . S
C597 C594 1.526 . S
C597 C598 1.396 . S
C597 C602 1.421 . S
C598 C592 1.465 . S
C598 C597 1.396 . S
C598 C599 1.399 . S
C599 H585 0.929 . S
C599 C598 1.399 . S
C599 C600 1.385 1_554 S
C600 H586 0.931 . S
C600 C599 1.385 1_556 S
C600 C601 1.389 . S
C601 C600 1.389 . S
C601 C602 1.364 1_556 S
C602 H587 0.922 1_554 S
C602 C597 1.421 . S
C602 C601 1.364 1_554 S
H603 C615 0.930 . S
H604 C617 0.930 . S
H605 C618 0.930 . S
H606 C622 0.959 . S
H607 C622 0.959 . S
H608 C622 0.961 . S
H609 C623 0.960 . S
H610 C623 0.961 . S
H611 C623 0.959 . S
H612 C626 0.929 . S
H613 C627 0.931 . S
H614 C629 0.930 . S
C615 H603 0.930 . S
C615 C616 1.399 . S
C615 C620 1.399 . S
C616 C615 1.399 . S
C616 C617 1.376 1_545 S
C617 H604 0.930 . S
C617 C616 1.376 1_565 S
C617 C618 1.388 . S
C618 H605 0.930 . S
C618 C617 1.388 . S
C618 C619 1.390 1_565 S
C619 C618 1.390 1_545 S
C619 C620 1.394 . S
C619 C625 1.466 . S
C620 C615 1.399 . S
C620 C619 1.394 . S
C620 C621 1.516 . S
C621 C620 1.516 . S
C621 C622 1.502 . S
C621 C623 1.561 . S
C621 C624 1.526 . S
C622 H606 0.959 . S
C622 H607 0.959 . S
C622 H608 0.961 . S
C622 C621 1.502 . S
C623 H609 0.960 . S
C623 H610 0.961 . S
C623 H611 0.959 . S
C623 C621 1.561 . S
C624 C621 1.526 . S
C624 C625 1.408 . S
C624 C629 1.390 . S
C625 C619 1.466 . S
C625 C624 1.408 . S
C625 C626 1.388 1_545 S
C626 H612 0.929 . S
C626 C625 1.388 1_565 S
C626 C627 1.385 . S
C627 H613 0.931 . S
C627 C626 1.385 . S
C627 C628 1.389 1_565 S
C628 C627 1.389 1_545 S
C628 C629 1.387 . S
C629 H614 0.930 . S
C629 C624 1.390 . S
C629 C628 1.387 . S
H630 C642 0.930 . S
H631 C644 0.930 . S
H632 C645 0.930 . S
H633 C649 0.959 . S
H634 C649 0.959 . S
H635 C649 0.961 . S
H636 C650 0.960 . S
H637 C650 0.961 . S
H638 C650 0.959 . S
H639 C653 0.929 . S
H640 C654 0.931 . S
H641 C656 0.930 . S
C642 H630 0.930 . S
C642 C643 1.399 . S
C642 C647 1.399 . S
C643 C642 1.399 . S
C643 C644 1.376 . S
C644 H631 0.930 . S
C644 C643 1.376 . S
C644 C645 1.388 . S
C645 H632 0.930 . S
C645 C644 1.388 . S
C645 C646 1.390 . S
C646 C645 1.390 . S
C646 C647 1.394 . S
C646 C652 1.465 . S
C647 C642 1.399 . S
C647 C646 1.394 . S
C647 C648 1.516 . S
C648 C647 1.516 . S
C648 C649 1.502 . S
C648 C650 1.561 . S
C648 C651 1.526 . S
C649 H633 0.959 . S
C649 H634 0.959 . S
C649 H635 0.961 . S
C649 C648 1.502 . S
C650 H636 0.960 . S
C650 H637 0.961 . S
C650 H638 0.959 . S
C650 C648 1.561 . S
C651 C648 1.526 . S
C651 C652 1.396 . S
C651 C656 1.390 . S
C652 C646 1.465 . S
C652 C651 1.396 . S
C652 C653 1.399 . S
C653 H639 0.929 . S
C653 C652 1.399 . S
C653 C654 1.385 . S
C654 H640 0.931 . S
C654 C653 1.385 . S
C654 C655 1.389 . S
C655 C654 1.389 . S
C655 C656 1.387 . S
C656 H641 0.930 . S
C656 C651 1.390 . S
C656 C655 1.387 . S
H657 C669 0.930 . S
H658 C671 0.930 . S
H659 C672 0.930 . S
H660 C676 0.959 . S
H661 C676 0.959 1_565 S
H662 C676 0.961 1_565 S
H663 C677 0.960 . S
H664 C677 0.961 . S
H665 C677 0.959 . S
H666 C680 0.929 . S
H667 C681 0.931 . S
H668 C683 0.930 . S
C669 H657 0.930 . S
C669 C670 1.399 . S
C669 C674 1.399 . S
C670 C669 1.399 . S
C670 C671 1.376 . S
C671 H658 0.930 . S
C671 C670 1.376 . S
C671 C672 1.388 . S
C672 H659 0.930 . S
C672 C671 1.388 . S
C672 C673 1.390 . S
C673 C672 1.390 . S
C673 C674 1.394 . S
C673 C679 1.465 . S
C674 C669 1.399 . S
C674 C673 1.394 . S
C674 C675 1.516 . S
C675 C674 1.516 . S
C675 C676 1.502 . S
C675 C677 1.561 1_545 S
C675 C678 1.526 . S
C676 H660 0.959 . S
C676 H661 0.959 1_545 S
C676 H662 0.961 1_545 S
C676 C675 1.502 . S
C677 H663 0.960 . S
C677 H664 0.961 . S
C677 H665 0.959 . S
C677 C675 1.561 1_565 S
C678 C675 1.526 . S
C678 C679 1.396 . S
C678 C683 1.390 . S
C679 C673 1.465 . S
C679 C678 1.396 . S
C679 C680 1.399 . S
C680 H666 0.929 . S
C680 C679 1.399 . S
C680 C681 1.385 . S
C681 H667 0.931 . S
C681 C680 1.385 . S
C681 C682 1.389 . S
C682 C681 1.389 . S
C682 C683 1.387 . S
C683 H668 0.930 . S
C683 C678 1.390 . S
C683 C682 1.387 . S
H684 C696 0.930 . S
H685 C698 0.930 . S
H686 C699 0.930 . S
H687 C703 0.959 . S
H688 C703 0.959 . S
H689 C703 0.961 . S
H690 C704 0.960 . S
H691 C704 0.961 . S
H692 C704 0.959 . S
H693 C707 0.929 . S
H694 C708 0.931 . S
H695 C710 0.930 . S
C696 H684 0.930 . S
C696 C697 1.399 . S
C696 C701 1.399 . S
C697 C696 1.399 . S
C697 C698 1.376 . S
C698 H685 0.930 . S
C698 C697 1.376 . S
C698 C699 1.388 . S
C699 H686 0.930 . S
C699 C698 1.388 . S
C699 C700 1.390 . S
C700 C699 1.390 . S
C700 C701 1.394 . S
C700 C706 1.465 . S
C701 C696 1.399 . S
C701 C700 1.394 . S
C701 C702 1.516 . S
C702 C701 1.516 . S
C702 C703 1.502 . S
C702 C704 1.561 . S
C702 C705 1.526 . S
C703 H687 0.959 . S
C703 H688 0.959 . S
C703 H689 0.961 . S
C703 C702 1.502 . S
C704 H690 0.960 . S
C704 H691 0.961 . S
C704 H692 0.959 . S
C704 C702 1.561 . S
C705 C702 1.526 . S
C705 C706 1.396 . S
C705 C710 1.390 1_556 S
C706 C700 1.465 . S
C706 C705 1.396 . S
C706 C707 1.399 . S
C707 H693 0.929 . S
C707 C706 1.399 . S
C707 C708 1.385 1_556 S
C708 H694 0.931 . S
C708 C707 1.385 1_554 S
C708 C709 1.389 . S
C709 C708 1.389 . S
C709 C710 1.386 . S
C710 H695 0.930 . S
C710 C705 1.390 1_554 S
C710 C709 1.386 . S
H711 C723 0.930 . S
H712 C725 0.930 . S
H713 C726 0.930 . S
H714 C730 0.959 . S
H715 C730 0.959 . S
H716 C730 0.961 . S
H717 C731 0.960 . S
H718 C731 0.961 . S
H719 C731 0.959 . S
H720 C734 0.929 . S
H721 C735 0.931 . S
H722 C737 0.930 . S
C723 H711 0.930 . S
C723 C724 1.399 . S
C723 C728 1.399 . S
C724 C723 1.399 . S
C724 C725 1.376 1_455 S
C725 H712 0.930 . S
C725 C724 1.376 1_655 S
C725 C726 1.388 . S
C726 H713 0.930 . S
C726 C725 1.388 . S
C726 C727 1.390 1_655 S
C727 C726 1.390 1_455 S
C727 C728 1.394 . S
C727 C733 1.465 1_455 S
C728 C723 1.399 . S
C728 C727 1.394 . S
C728 C729 1.516 . S
C729 C728 1.516 . S
C729 C730 1.502 . S
C729 C731 1.561 . S
C729 C732 1.526 . S
C730 H714 0.959 . S
C730 H715 0.959 . S
C730 H716 0.961 . S
C730 C729 1.502 . S
C731 H717 0.960 . S
C731 H718 0.961 . S
C731 H719 0.959 . S
C731 C729 1.561 . S
C732 C729 1.526 . S
C732 C733 1.394 1_455 S
C732 C737 1.390 . S
C733 C727 1.465 1_655 S
C733 C732 1.394 1_655 S
C733 C734 1.401 . S
C734 H720 0.929 . S
C734 C733 1.401 . S
C734 C735 1.385 . S
C735 H721 0.931 . S
C735 C734 1.385 . S
C735 C736 1.389 1_655 S
C736 C735 1.389 1_455 S
C736 C737 1.387 . S
C737 H722 0.930 . S
C737 C732 1.390 . S
C737 C736 1.387 . S
C265 C2 1.028 . S
C277 C243 1.026 . S
C292 C21 1.049 . S
C304 C179 1.040 . S
C319 C42 1.094 . S
C331 C211 1.099 . S
C346 C1 1.003 . S
C358 C237 1.049 . S
C385 C173 1.048 . S
C373 C22 1.061 . S
C412 C205 1.001 . S
C400 C41 1.027 . S
C427 C38 1.879 . S
C439 C115 1.857 . S
C454 C59 1.917 . S
C466 C147 1.867 . S
C481 C18 1.830 . S
C493 C77 1.788 . S
C520 C109 1.862 . S
C508 C39 1.916 . S
C547 C141 1.864 . S
C535 C58 1.873 . S
C562 C19 1.934 . S
C574 C83 1.850 . S
C601 C153 1.557 . S
C589 C9 1.541 . S
C616 C29 1.488 . S
C628 C89 1.519 . S
C643 C49 1.478 . S
C655 C121 1.535 . S
C682 C217 1.339 . S
C670 C28 1.393 . S
C709 C249 1.385 . S
C697 C48 1.344 . S
C724 C8 1.370 . S
C736 C185 1.346 . S
