# Generated by pormake.
# Topology pyr, (3,6)-cn, num edge types: 1
# Building blocks:
#     Node 0, Type 0, BuildingBlock: PAMTOO_clean_linker_0, # of connection points: 3
#     Node 1, Type 0, BuildingBlock: PAMTOO_clean_linker_0, # of connection points: 3
#     Node 2, Type 0, BuildingBlock: PAMTOO_clean_linker_0, # of connection points: 3
#     Node 3, Type 0, BuildingBlock: PAMTOO_clean_linker_0, # of connection points: 3
#     Node 4, Type 0, BuildingBlock: PAMTOO_clean_linker_0, # of connection points: 3
#     Node 5, Type 0, BuildingBlock: PAMTOO_clean_linker_0, # of connection points: 3
#     Node 6, Type 0, BuildingBlock: PAMTOO_clean_linker_0, # of connection points: 3
#     Node 7, Type 0, BuildingBlock: PAMTOO_clean_linker_0, # of connection points: 3
#     Node 8, Type 1, BuildingBlock: LEVNOQ01_clean_sbu_1, # of connection points: 6
#     Node 9, Type 1, BuildingBlock: LEVNOQ01_clean_sbu_1, # of connection points: 6
#     Node 10, Type 1, BuildingBlock: LEVNOQ01_clean_sbu_1, # of connection points: 6
#     Node 11, Type 1, BuildingBlock: LEVNOQ01_clean_sbu_1, # of connection points: 6
#     Edge 12, Type (0, 1), BuildingBlock: OJICUG_clean_linker_0, # of connection points: 2
#     Edge 13, Type (0, 1), BuildingBlock: OJICUG_clean_linker_0, # of connection points: 2
#     Edge 14, Type (0, 1), BuildingBlock: OJICUG_clean_linker_0, # of connection points: 2
#     Edge 15, Type (0, 1), BuildingBlock: OJICUG_clean_linker_0, # of connection points: 2
#     Edge 16, Type (0, 1), BuildingBlock: OJICUG_clean_linker_0, # of connection points: 2
#     Edge 17, Type (0, 1), BuildingBlock: OJICUG_clean_linker_0, # of connection points: 2
#     Edge 18, Type (0, 1), BuildingBlock: OJICUG_clean_linker_0, # of connection points: 2
#     Edge 19, Type (0, 1), BuildingBlock: OJICUG_clean_linker_0, # of connection points: 2
#     Edge 20, Type (0, 1), BuildingBlock: OJICUG_clean_linker_0, # of connection points: 2
#     Edge 21, Type (0, 1), BuildingBlock: OJICUG_clean_linker_0, # of connection points: 2
#     Edge 22, Type (0, 1), BuildingBlock: OJICUG_clean_linker_0, # of connection points: 2
#     Edge 23, Type (0, 1), BuildingBlock: OJICUG_clean_linker_0, # of connection points: 2
#     Edge 24, Type (0, 1), BuildingBlock: OJICUG_clean_linker_0, # of connection points: 2
#     Edge 25, Type (0, 1), BuildingBlock: OJICUG_clean_linker_0, # of connection points: 2
#     Edge 26, Type (0, 1), BuildingBlock: OJICUG_clean_linker_0, # of connection points: 2
#     Edge 27, Type (0, 1), BuildingBlock: OJICUG_clean_linker_0, # of connection points: 2
#     Edge 28, Type (0, 1), BuildingBlock: OJICUG_clean_linker_0, # of connection points: 2
#     Edge 29, Type (0, 1), BuildingBlock: OJICUG_clean_linker_0, # of connection points: 2
#     Edge 30, Type (0, 1), BuildingBlock: OJICUG_clean_linker_0, # of connection points: 2
#     Edge 31, Type (0, 1), BuildingBlock: OJICUG_clean_linker_0, # of connection points: 2
#     Edge 32, Type (0, 1), BuildingBlock: OJICUG_clean_linker_0, # of connection points: 2
#     Edge 33, Type (0, 1), BuildingBlock: OJICUG_clean_linker_0, # of connection points: 2
#     Edge 34, Type (0, 1), BuildingBlock: OJICUG_clean_linker_0, # of connection points: 2
#     Edge 35, Type (0, 1), BuildingBlock: OJICUG_clean_linker_0, # of connection points: 2
# Relax obj value: 0.096
# Max RMSD: 0.206
# Mean RMSD: 0.142
data_MOF--net-pry--node1-LEVNOQ01_clean_sbu_1--node2-PAMTOO_clean_linker_0--edge1-OJICUG_clean_linker_0
_symmetry_space_group_name_H-M    P1
_symmetry_Int_Tables_number       1
_symmetry_cell_setting            triclinic
loop_
_symmetry_equiv_pos_as_xyz
'x, y, z'
_cell_length_a     26.440343
_cell_length_b     26.216872
_cell_length_c     25.254157
_cell_angle_alpha  91.826151
_cell_angle_beta   93.660305
_cell_angle_gamma 98.729474
loop_
_atom_site_label
_atom_site_type_symbol
_atom_site_fract_x
_atom_site_fract_y
_atom_site_fract_z
_atom_type_partial_charge
H0 H 0.11216 0.20636 0.25057 0.0
H1 H 0.22493 0.10392 0.24044 0.0
H2 H 0.20111 0.20259 0.11334 0.0
H3 H 0.21122 0.09367 0.08112 0.0
C4 C 0.23969 0.08706 0.11358 0.0
O5 O 0.251 0.13031 0.14735 0.0
H6 H 0.22299 0.05331 0.13584 0.0
C7 C 0.14167 0.19133 0.22978 0.0
C8 C 0.15409 0.21031 0.17947 0.0
C9 C 0.16603 0.15183 0.25227 0.0
C10 C 0.2038 0.13266 0.2239 0.0
C11 C 0.21501 0.14991 0.17369 0.0
C12 C 0.19053 0.18863 0.15164 0.0
H13 H 0.35646 0.95546 0.71212 0.0
H14 H 0.33553 0.8689 0.56231 0.0
H15 H 0.45559 0.84481 0.67615 0.0
H16 H 0.47763 0.85319 0.56505 0.0
C17 C 0.44902 0.81827 0.55329 0.0
O18 O 0.40821 0.8138 0.58522 0.0
H19 H 0.4347 0.82235 0.51153 0.0
C20 C 0.36893 0.92814 0.68463 0.0
C21 C 0.41036 0.90286 0.70039 0.0
C22 C 0.34165 0.91664 0.63477 0.0
C23 C 0.35617 0.87886 0.60058 0.0
C24 C 0.39695 0.85299 0.61611 0.0
C25 C 0.42392 0.86511 0.66547 0.0
H26 H 0.75659 0.2537 0.90016 0.0
H27 H 0.68057 0.20403 0.74782 0.0
H28 H 0.77783 0.35094 0.76657 0.0
H29 H 0.63592 0.26566 0.70547 0.0
C30 C 0.66362 0.28808 0.68027 0.0
O31 O 0.71379 0.28948 0.70084 0.0
H32 H 0.6595 0.26689 0.64109 0.0
C33 C 0.75025 0.25981 0.85819 0.0
C34 C 0.77411 0.30563 0.83706 0.0
C35 C 0.71588 0.22325 0.82664 0.0
C36 C 0.70633 0.23231 0.77281 0.0
C37 C 0.7264 0.27956 0.75201 0.0
C38 C 0.76053 0.31587 0.78396 0.0
H39 H 0.84843 0.68234 0.50005 0.0
H40 H 0.82589 0.59262 0.35149 0.0
H41 H 0.94432 0.72278 0.37131 0.0
H42 H 0.8904 0.69601 0.24915 0.0
C43 C 0.87499 0.65661 0.26132 0.0
O44 O 0.90134 0.64604 0.30775 0.0
H45 H 0.83335 0.65515 0.26688 0.0
C46 C 0.85892 0.67483 0.4601 0.0
C47 C 0.90011 0.70725 0.44009 0.0
C48 C 0.83143 0.633 0.42863 0.0
C49 C 0.84658 0.62373 0.3772 0.0
C50 C 0.88691 0.65615 0.35685 0.0
C51 C 0.91351 0.69768 0.38806 0.0
H52 H 0.84226 0.96691 0.86371 0.0
H53 H 0.83766 0.84956 0.98028 0.0
H54 H 0.94101 0.85067 0.857 0.0
H55 H 0.8856 0.74473 0.89191 0.0
C56 C 0.88719 0.75573 0.93496 0.0
O57 O 0.9104 0.8064 0.94356 0.0
H58 H 0.84728 0.75164 0.94769 0.0
C59 C 0.85519 0.9328 0.87946 0.0
C60 C 0.89332 0.91097 0.85394 0.0
C61 C 0.83432 0.91127 0.92531 0.0
C62 C 0.85304 0.86781 0.94566 0.0
C63 C 0.89115 0.84619 0.92113 0.0
C64 C 0.91076 0.86723 0.87502 0.0
H65 H 0.74294 0.06804 0.35331 0.0
H66 H 0.61839 0.15418 0.37073 0.0
H67 H 0.74159 0.16883 0.49146 0.0
H68 H 0.63967 0.18433 0.5366 0.0
C69 C 0.62004 0.19094 0.49773 0.0
O70 O 0.65593 0.20061 0.46051 0.0
H71 H 0.59203 0.1557 0.48564 0.0
C72 C 0.72458 0.09479 0.37619 0.0
C73 C 0.74829 0.1164 0.42508 0.0
C74 C 0.67764 0.10784 0.35607 0.0
C75 C 0.65363 0.14201 0.38622 0.0
C76 C 0.67647 0.16337 0.4351 0.0
C77 C 0.72348 0.15042 0.45459 0.0
H78 H 0.29092 0.73121 0.14146 0.0
H79 H 0.29507 0.65608 0.29112 0.0
H80 H 0.40105 0.79261 0.26875 0.0
H81 H 0.44127 0.74752 0.37144 0.0
C82 C 0.42203 0.7149 0.34463 0.0
O83 O 0.37132 0.72166 0.33517 0.0
H84 H 0.44277 0.71715 0.30753 0.0
C85 C 0.30691 0.72897 0.18171 0.0
C86 C 0.34931 0.76564 0.20051 0.0
C87 C 0.28599 0.68932 0.214 0.0
C88 C 0.30866 0.68707 0.26582 0.0
C89 C 0.34932 0.72474 0.28563 0.0
C90 C 0.3683 0.76488 0.25355 0.0
H91 H 0.11298 0.3591 0.72447 0.0
H92 H 0.17788 0.51552 0.69144 0.0
H93 H 0.15029 0.39959 0.56674 0.0
H94 H 0.22196 0.56338 0.61577 0.0
C95 C 0.22005 0.53075 0.5861 0.0
O96 O 0.17465 0.49761 0.58967 0.0
H97 H 0.21891 0.54822 0.54661 0.0
C98 C 0.129 0.38791 0.69802 0.0
C99 C 0.13073 0.37319 0.64405 0.0
C100 C 0.14643 0.43915 0.71719 0.0
C101 C 0.16443 0.47556 0.67986 0.0
C102 C 0.16549 0.46121 0.62606 0.0
C103 C 0.15019 0.40995 0.60863 0.0
O104 O 0.04198 0.04709 0.70621 0.0
Mg105 Mg 0.09297 0.07782 0.65255 0.0
O106 O 0.00401 0.99834 0.6384 0.0
Mg107 Mg 0.04181 0.03175 0.55967 0.0
O108 O 0.0672 0.1192 0.59126 0.0
O109 O 0.10894 0.15329 0.66822 0.0
O110 O 0.07881 0.07285 0.4814 0.0
O111 O 0.96243 0.05667 0.53726 0.0
Mg112 Mg 0.02399 0.99235 0.47499 0.0
O113 O 0.01125 0.94146 0.53317 0.0
O114 O 0.09538 0.00328 0.44238 0.0
O115 O 0.96855 0.04022 0.4527 0.0
O116 O 0.9919 0.92235 0.44598 0.0
C117 C 0.16204 0.01587 0.61002 0.0
C118 C 0.00775 0.01098 0.68808 0.0
C119 C 0.08693 0.15899 0.6223 0.0
C120 C 0.10099 0.05174 0.4449 0.0
C121 C 0.94538 0.05888 0.48922 0.0
C122 C 0.99359 0.90839 0.49428 0.0
O123 O 0.16139 0.04952 0.64659 0.0
O124 O 0.12269 0.00315 0.57752 0.0
O125 O 0.46837 0.11565 0.04714 0.0
Mg126 Mg 0.54865 0.12687 0.05139 0.0
O127 O 0.4618 0.03017 0.04535 0.0
Mg128 Mg 0.54119 0.00578 0.02622 0.0
O129 O 0.57306 0.08349 0.99268 0.0
O130 O 0.58633 0.16958 0.99525 0.0
O131 O 0.62328 0.98807 1.00263 0.0
O132 O 0.50545 0.98164 0.94059 0.0
Mg133 Mg 0.55667 0.91078 1.01355 0.0
O134 O 0.50221 0.92703 0.06294 0.0
O135 O 0.63368 0.91772 0.04267 0.0
O136 O 0.53713 0.90939 0.93065 0.0
O137 O 0.51709 0.84706 0.04087 0.0
C138 C 0.59229 0.07098 0.14152 0.0
C139 C 0.44156 0.07142 0.04855 0.0
C140 C 0.59179 0.12635 0.97217 0.0
C141 C 0.65265 0.95648 0.01849 0.0
C142 C 0.51206 0.94283 0.91156 0.0
C143 C 0.49197 0.87702 0.06655 0.0
O144 O 0.58704 0.11508 0.1248 0.0
O145 O 0.57738 0.02959 0.11296 0.0
O146 O 0.54394 0.62022 0.63389 0.0
Mg147 Mg 0.52881 0.5451 0.66491 0.0
O148 O 0.5203 0.58975 0.55131 0.0
Mg149 Mg 0.52989 0.50317 0.53735 0.0
O150 O 0.56368 0.49774 0.62056 0.0
O151 O 0.58319 0.50602 0.70645 0.0
O152 O 0.54038 0.41573 0.52489 0.0
O153 O 0.61083 0.52832 0.50998 0.0
Mg154 Mg 0.53357 0.45887 0.41483 0.0
O155 O 0.49655 0.50983 0.45278 0.0
O156 O 0.51389 0.38445 0.44362 0.0
O157 O 0.61298 0.49305 0.42857 0.0
O158 O 0.48207 0.49333 0.3664 0.0
C159 C 0.4252 0.48933 0.60714 0.0
C160 C 0.52903 0.62716 0.58615 0.0
C161 C 0.58777 0.48284 0.66172 0.0
C162 C 0.52998 0.37775 0.4908 0.0
C163 C 0.63477 0.52005 0.46897 0.0
C164 C 0.47502 0.52051 0.40793 0.0
O165 O 0.44946 0.51163 0.64906 0.0
O166 O 0.44794 0.48148 0.56498 0.0
O167 O 0.01397 0.37671 0.12775 0.0
Mg168 Mg 0.02106 0.45245 0.15789 0.0
O169 O 0.06517 0.41107 0.0694 0.0
Mg170 Mg 0.02414 0.48406 0.0437 0.0
O171 O 0.97491 0.49216 0.11583 0.0
O172 O 0.96068 0.4689 0.19844 0.0
O173 O 0.97518 0.55682 0.03174 0.0
O174 O 0.95773 0.42764 1.00154 0.0
Mg175 Mg 0.02455 0.52077 0.97811 0.0
O176 O 0.07822 0.47663 0.96475 0.0
O177 O 0.04353 0.60008 1.00521 0.0
O178 O 0.94706 0.48874 0.94777 0.0
O179 O 0.05327 0.5333 0.90823 0.0
C180 C 0.1119 0.53681 0.13617 0.0
C181 C 0.04982 0.37304 0.09813 0.0
C182 C 0.94901 0.49425 0.15764 0.0
C183 C 0.99896 0.60014 0.01952 0.0
C184 C 0.93185 0.444 0.96343 0.0
C185 C 0.08146 0.49891 0.91924 0.0
O186 O 0.09275 0.50409 0.16859 0.0
O187 O 0.09193 0.53809 0.08877 0.0
C188 C 0.1527 0.07544 0.31027 0.0
C189 C 0.15125 0.12831 0.30365 0.0
H190 H 0.14047 0.01118 0.35968 0.0
C191 C 0.1356 0.15717 0.34614 0.0
H192 H 0.1629 0.0511 0.27849 0.0
C193 C 0.12117 0.13337 0.39338 0.0
C194 C 0.12251 0.08034 0.39924 0.0
H195 H 0.13437 0.19804 0.34295 0.0
H196 H 0.10798 0.15617 0.4247 0.0
C197 C 0.13934 0.05218 0.35726 0.0
C198 C 0.44555 0.96431 0.77799 0.0
C199 C 0.43785 0.91415 0.75401 0.0
H200 H 0.47486 0.01289 0.84664 0.0
C201 C 0.45587 0.87435 0.78219 0.0
H202 H 0.433 0.9962 0.75729 0.0
C203 C 0.48086 0.88427 0.83261 0.0
C204 C 0.48779 0.93407 0.85687 0.0
H205 H 0.44973 0.83501 0.76596 0.0
H206 H 0.49362 0.85237 0.85316 0.0
C207 C 0.46988 0.97406 0.82907 0.0
C208 C 0.67902 0.38728 0.68942 0.0
C209 C 0.64762 0.34047 0.67306 0.0
H210 H 0.6843 0.46988 0.69851 0.0
C211 C 0.59788 0.34184 0.65068 0.0
H212 H 0.71735 0.38769 0.70725 0.0
C213 C 0.57986 0.38869 0.644 0.0
C214 C 0.6108 0.43524 0.66077 0.0
H215 H 0.57265 0.30627 0.63858 0.0
H216 H 0.54082 0.38832 0.62791 0.0
C217 C 0.66036 0.43432 0.68399 0.0
C218 C 0.85815 0.56507 0.22521 0.0
C219 C 0.88174 0.61617 0.21995 0.0
H220 H 0.86057 0.48514 0.20742 0.0
C221 C 0.91913 0.62647 0.18302 0.0
H222 H 0.82952 0.55628 0.25377 0.0
C223 C 0.93621 0.58579 0.15568 0.0
C224 C 0.91673 0.53441 0.16576 0.0
H225 H 0.9382 0.66555 0.17871 0.0
H226 H 0.96884 0.59453 0.13193 0.0
C227 C 0.87568 0.52446 0.19848 0.0
C228 C 0.31246 0.11382 0.05675 0.0
C229 C 0.28824 0.07734 0.08997 0.0
H230 H 0.37999 0.14003 0.01712 0.0
C231 C 0.31241 0.03515 0.10459 0.0
H232 H 0.29448 0.14663 0.04513 0.0
C233 C 0.36121 0.03086 0.08799 0.0
C234 C 0.38671 0.06929 0.05749 0.0
H235 H 0.29443 0.00664 0.13042 0.0
H236 H 0.38012 0.99932 0.10161 0.0
C237 C 0.3613 0.11 0.04088 0.0
C238 C 0.25063 0.91568 0.59659 0.0
C239 C 0.29703 0.94312 0.62018 0.0
H240 H 0.17097 0.91738 0.57417 0.0
C241 C 0.29953 0.99585 0.63366 0.0
H242 H 0.24741 0.87495 0.58583 0.0
C243 C 0.25601 0.01965 0.62756 0.0
C244 C 0.20885 0.99163 0.60719 0.0
H245 H 0.33492 0.01849 0.65055 0.0
H246 H 0.25897 0.0599 0.64039 0.0
C247 C 0.20685 0.93986 0.58993 0.0
C248 C 0.846 0.32276 0.90866 0.0
C249 C 0.81301 0.34204 0.87086 0.0
H250 H 0.90821 0.33963 0.96801 0.0
C251 C 0.81808 0.39587 0.8657 0.0
H252 H 0.84426 0.28162 0.9132 0.0
C253 C 0.85577 0.42926 0.89673 0.0
C254 C 0.88876 0.40965 0.93411 0.0
H255 H 0.79296 0.41235 0.83778 0.0
H256 H 0.85933 0.47041 0.89114 0.0
C257 C 0.88296 0.3561 0.94016 0.0
C258 C 0.7506 0.62409 0.47743 0.0
C259 C 0.78466 0.60126 0.447 0.0
H260 H 0.67658 0.6157 0.50897 0.0
C261 C 0.77096 0.54906 0.42968 0.0
H262 H 0.75931 0.66421 0.49107 0.0
C263 C 0.72277 0.52197 0.43841 0.0
C264 C 0.68795 0.54584 0.46625 0.0
H265 H 0.79676 0.52949 0.40774 0.0
H266 H 0.71231 0.48266 0.42242 0.0
C267 C 0.70294 0.59641 0.48746 0.0
C268 C 0.12381 0.296 0.18908 0.0
C269 C 0.13027 0.25355 0.15641 0.0
H270 H 0.09493 0.36763 0.19518 0.0
C271 C 0.11472 0.25348 0.10176 0.0
H272 H 0.13631 0.29805 0.2309 0.0
C273 C 0.09131 0.29401 0.08097 0.0
C274 C 0.08346 0.33532 0.11448 0.0
H275 H 0.11907 0.22125 0.07543 0.0
H276 H 0.0774 0.29192 0.03956 0.0
C277 C 0.1008 0.33624 0.1684 0.0
C278 C 0.63032 0.17418 0.84301 0.0
C279 C 0.68396 0.18083 0.85243 0.0
H280 H 0.55787 0.14928 0.87459 0.0
C281 C 0.70519 0.15468 0.89412 0.0
H282 H 0.61269 0.19392 0.81143 0.0
C283 C 0.67346 0.12853 0.93 0.0
C284 C 0.62035 0.12831 0.92442 0.0
H285 H 0.7464 0.15854 0.90184 0.0
H286 H 0.69082 0.11385 0.96525 0.0
C287 C 0.59877 0.14837 0.87903 0.0
C288 C 0.89855 0.78906 0.4937 0.0
C289 C 0.92687 0.75374 0.471 0.0
H290 H 0.89899 0.86748 0.52106 0.0
C291 C 0.98035 0.7672 0.47045 0.0
H292 H 0.85727 0.77981 0.49446 0.0
C293 C 0.0041 0.81711 0.48609 0.0
C294 C 0.97482 0.85408 0.50296 0.0
H295 H 0.0032 0.74044 0.4539 0.0
H296 H 0.0444 0.82823 0.47992 0.0
C297 C 0.92243 0.8391 0.50938 0.0
C298 C 0.44904 0.72396 0.53214 0.0
C299 C 0.47363 0.77028 0.5575 0.0
H300 H 0.44682 0.64233 0.52259 0.0
C301 C 0.51807 0.76977 0.59105 0.0
H302 H 0.41393 0.72318 0.50732 0.0
C303 C 0.53761 0.72358 0.5989 0.0
C304 C 0.51291 0.6772 0.57342 0.0
H305 H 0.53696 0.80484 0.6121 0.0
H306 H 0.57134 0.7239 0.62569 0.0
C307 C 0.4683 0.67789 0.54029 0.0
C308 C 0.93432 0.98986 0.81085 0.0
C309 C 0.91784 0.93634 0.80803 0.0
H310 H 0.97516 0.05493 0.77506 0.0
C311 C 0.92752 0.90756 0.76264 0.0
H312 H 0.92795 0.01309 0.84534 0.0
C313 C 0.95431 0.93184 0.72161 0.0
C314 C 0.97273 0.98506 0.72597 0.0
H315 H 0.91499 0.86622 0.75927 0.0
H316 H 0.96255 0.90875 0.68782 0.0
C317 C 0.96163 0.01378 0.7706 0.0
C318 C 0.60327 0.07391 0.29067 0.0
C319 C 0.65626 0.08993 0.30153 0.0
H320 H 0.54151 0.05377 0.23059 0.0
C321 C 0.68844 0.09282 0.25906 0.0
H322 H 0.57758 0.07107 0.32254 0.0
C323 C 0.66777 0.08285 0.20673 0.0
C324 C 0.61474 0.06895 0.19598 0.0
H325 H 0.7293 0.1057 0.26597 0.0
H326 H 0.69293 0.08846 0.17448 0.0
C327 C 0.5827 0.06343 0.23827 0.0
C328 C 0.46645 0.66208 0.40868 0.0
C329 C 0.42737 0.66396 0.36875 0.0
H330 H 0.51172 0.61479 0.4527 0.0
C331 C 0.40046 0.61738 0.34572 0.0
H332 H 0.48925 0.69736 0.42556 0.0
C333 C 0.41314 0.56999 0.3617 0.0
C334 C 0.45302 0.56838 0.40084 0.0
H335 H 0.3717 0.61756 0.31336 0.0
H336 H 0.39364 0.5347 0.34148 0.0
C337 C 0.47903 0.61478 0.42466 0.0
C338 C 0.13874 0.50731 0.78831 0.0
C339 C 0.14123 0.45536 0.77432 0.0
H340 H 0.12187 0.56171 0.84622 0.0
C341 C 0.13465 0.41918 0.81492 0.0
H342 H 0.14289 0.53734 0.75999 0.0
C343 C 0.11987 0.43352 0.86521 0.0
C344 C 0.11305 0.48463 0.87639 0.0
H345 H 0.13863 0.37919 0.80766 0.0
H346 H 0.1104 0.4041 0.89365 0.0
C347 C 0.12604 0.52167 0.8386 0.0
C348 C 0.78683 0.92811 1.00623 0.0
C349 C 0.79207 0.9325 0.95126 0.0
H350 H 0.73825 0.93204 0.07059 0.0
C351 C 0.75418 0.95348 0.92094 0.0
H352 H 0.8159 0.91423 0.03161 0.0
C353 C 0.71074 0.9661 0.9442 0.0
C354 C 0.70367 0.95686 0.99788 0.0
H355 H 0.75628 0.95731 0.87857 0.0
H356 H 0.68085 0.97922 0.91919 0.0
C357 C 0.74272 0.93917 0.02899 0.0
C358 C 0.8373 0.10277 0.40631 0.0
C359 C 0.80017 0.10557 0.44328 0.0
H360 H 0.91204 0.08656 0.39198 0.0
C361 C 0.81298 0.09724 0.49698 0.0
H362 H 0.82943 0.11046 0.36496 0.0
C363 C 0.86109 0.0842 0.51277 0.0
C364 C 0.89711 0.07908 0.47509 0.0
H365 H 0.78527 0.09913 0.52648 0.0
H366 H 0.8693 0.07627 0.554 0.0
C367 C 0.88495 0.0895 0.42194 0.0
C368 C 0.20532 0.62789 0.22808 0.0
C369 C 0.24148 0.64986 0.19346 0.0
H370 H 0.13686 0.57486 0.23725 0.0
C371 C 0.23438 0.63384 0.13924 0.0
H372 H 0.20835 0.63982 0.26973 0.0
C373 C 0.19209 0.59755 0.12029 0.0
C374 C 0.15668 0.57539 0.15529 0.0
H375 H 0.26174 0.6487 0.11128 0.0
H376 H 0.18762 0.58616 0.07843 0.0
C377 C 0.16392 0.59076 0.20937 0.0
C378 C 0.293 0.50595 0.64378 0.0
C379 C 0.2674 0.50526 0.59333 0.0
H380 H 0.36309 0.49961 0.68814 0.0
C381 C 0.29008 0.48721 0.5491 0.0
H382 H 0.27593 0.5191 0.67857 0.0
C383 C 0.34028 0.47621 0.55435 0.0
C384 C 0.36836 0.48305 0.60402 0.0
H385 H 0.27059 0.48565 0.50989 0.0
H386 H 0.35838 0.46679 0.51878 0.0
C387 C 0.34298 0.49477 0.64914 0.0
C388 C 0.89173 0.67812 0.99134 0.0
C389 C 0.91722 0.72008 0.96518 0.0
H390 H 0.89785 0.60775 0.03062 0.0
C391 C 0.97063 0.72519 0.96292 0.0
H392 H 0.85047 0.67303 0.99325 0.0
C393 C 0.9978 0.68821 0.98469 0.0
C394 C 0.97203 0.64469 1.00835 0.0
H395 H 0.99114 0.75681 0.94249 0.0
H396 H 0.03868 0.69231 0.98024 0.0
C397 C 0.91889 0.64088 1.01293 0.0
C398 C 0.40144 0.84994 0.17669 0.0
C399 C 0.37913 0.79854 0.16289 0.0
H400 H 0.4544 0.91601 0.15632 0.0
C401 C 0.39088 0.7758 0.11506 0.0
H402 H 0.39295 0.86849 0.2133 0.0
C403 C 0.42614 0.80246 0.08329 0.0
C404 C 0.45035 0.85279 0.09812 0.0
H405 H 0.37506 0.73615 0.1035 0.0
H406 H 0.43554 0.7829 0.04761 0.0
C407 C 0.43646 0.87712 0.14417 0.0
C408 C 0.14143 0.29217 0.59353 0.0
C409 C 0.11152 0.31932 0.62492 0.0
H410 H 0.15518 0.21764 0.5659 0.0
C411 C 0.06545 0.29323 0.64212 0.0
H412 H 0.17704 0.31141 0.57961 0.0
C413 C 0.05265 0.2399 0.63346 0.0
C414 C 0.08557 0.21205 0.60729 0.0
H415 H 0.04108 0.31352 0.66533 0.0
H416 H 0.01988 0.21983 0.65195 0.0
C417 C 0.12859 0.23869 0.58496 0.0
C418 C 0.54327 0.23652 0.47948 0.0
C419 C 0.59302 0.23727 0.50297 0.0
H420 H 0.4835 0.28071 0.45839 0.0
C421 C 0.61966 0.28363 0.52656 0.0
H422 H 0.52233 0.20144 0.46012 0.0
C423 C 0.59752 0.32876 0.52557 0.0
C424 C 0.54815 0.32832 0.50137 0.0
H425 H 0.65855 0.2854 0.54366 0.0
H426 H 0.62023 0.36463 0.54111 0.0
C427 C 0.52105 0.28171 0.47862 0.0
loop_
_geom_bond_atom_site_label_1
_geom_bond_atom_site_label_2
_geom_bond_distance
_geom_bond_site_symmetry_2
_ccdc_geom_bond_type
H0 C7 0.929 . S
H1 C10 0.930 . S
H2 C12 0.929 . S
H3 C4 0.969 . S
C4 H3 0.969 . S
C4 O5 1.550 . S
C4 H6 0.973 . S
O5 C4 1.550 . S
O5 C11 1.412 . S
H6 C4 0.973 . S
C7 H0 0.929 . S
C7 C8 1.400 . S
C7 C9 1.364 . S
C8 C7 1.400 . S
C8 C12 1.377 . S
C9 C7 1.364 . S
C9 C10 1.374 . S
C10 H1 0.930 . S
C10 C9 1.374 . S
C10 C11 1.383 . S
C11 O5 1.412 . S
C11 C10 1.383 . S
C11 C12 1.394 . S
C12 H2 0.929 . S
C12 C8 1.377 . S
C12 C11 1.394 . S
H13 C20 0.929 . S
H14 C23 0.930 . S
H15 C25 0.929 . S
H16 C17 0.969 . S
C17 H16 0.969 . S
C17 O18 1.550 . S
C17 H19 0.973 . S
O18 C17 1.550 . S
O18 C24 1.412 . S
H19 C17 0.973 . S
C20 H13 0.929 . S
C20 C21 1.400 . S
C20 C22 1.364 . S
C21 C20 1.400 . S
C21 C25 1.377 . S
C22 C20 1.364 . S
C22 C23 1.374 . S
C23 H14 0.930 . S
C23 C22 1.374 . S
C23 C24 1.383 . S
C24 O18 1.412 . S
C24 C23 1.383 . S
C24 C25 1.394 . S
C25 H15 0.929 . S
C25 C21 1.377 . S
C25 C24 1.394 . S
H26 C33 0.929 . S
H27 C36 0.930 . S
H28 C38 0.929 . S
H29 C30 0.969 . S
C30 H29 0.969 . S
C30 O31 1.550 . S
C30 H32 0.973 . S
O31 C30 1.550 . S
O31 C37 1.412 . S
H32 C30 0.973 . S
C33 H26 0.929 . S
C33 C34 1.400 . S
C33 C35 1.364 . S
C34 C33 1.400 . S
C34 C38 1.377 . S
C35 C33 1.364 . S
C35 C36 1.374 . S
C36 H27 0.930 . S
C36 C35 1.374 . S
C36 C37 1.383 . S
C37 O31 1.412 . S
C37 C36 1.383 . S
C37 C38 1.394 . S
C38 H28 0.929 . S
C38 C34 1.377 . S
C38 C37 1.394 . S
H39 C46 0.929 . S
H40 C49 0.930 . S
H41 C51 0.929 . S
H42 C43 0.969 . S
C43 H42 0.969 . S
C43 O44 1.550 . S
C43 H45 0.973 . S
O44 C43 1.550 . S
O44 C50 1.412 . S
H45 C43 0.973 . S
C46 H39 0.929 . S
C46 C47 1.400 . S
C46 C48 1.364 . S
C47 C46 1.400 . S
C47 C51 1.377 . S
C48 C46 1.364 . S
C48 C49 1.374 . S
C49 H40 0.930 . S
C49 C48 1.374 . S
C49 C50 1.383 . S
C50 O44 1.412 . S
C50 C49 1.383 . S
C50 C51 1.394 . S
C51 H41 0.929 . S
C51 C47 1.377 . S
C51 C50 1.394 . S
H52 C59 0.929 . S
H53 C62 0.930 . S
H54 C64 0.929 . S
H55 C56 0.969 . S
C56 H55 0.969 . S
C56 O57 1.550 . S
C56 H58 0.973 . S
O57 C56 1.550 . S
O57 C63 1.412 . S
H58 C56 0.973 . S
C59 H52 0.929 . S
C59 C60 1.400 . S
C59 C61 1.364 . S
C60 C59 1.400 . S
C60 C64 1.377 . S
C61 C59 1.364 . S
C61 C62 1.374 . S
C62 H53 0.930 . S
C62 C61 1.374 . S
C62 C63 1.383 . S
C63 O57 1.412 . S
C63 C62 1.383 . S
C63 C64 1.394 . S
C64 H54 0.929 . S
C64 C60 1.377 . S
C64 C63 1.394 . S
H65 C72 0.929 . S
H66 C75 0.930 . S
H67 C77 0.929 . S
H68 C69 0.969 . S
C69 H68 0.969 . S
C69 O70 1.550 . S
C69 H71 0.973 . S
O70 C69 1.550 . S
O70 C76 1.412 . S
H71 C69 0.973 . S
C72 H65 0.929 . S
C72 C73 1.400 . S
C72 C74 1.364 . S
C73 C72 1.400 . S
C73 C77 1.377 . S
C74 C72 1.364 . S
C74 C75 1.374 . S
C75 H66 0.930 . S
C75 C74 1.374 . S
C75 C76 1.383 . S
C76 O70 1.412 . S
C76 C75 1.383 . S
C76 C77 1.394 . S
C77 H67 0.929 . S
C77 C73 1.377 . S
C77 C76 1.394 . S
H78 C85 0.929 . S
H79 C88 0.930 . S
H80 C90 0.929 . S
H81 C82 0.969 . S
C82 H81 0.969 . S
C82 O83 1.550 . S
C82 H84 0.973 . S
O83 C82 1.550 . S
O83 C89 1.412 . S
H84 C82 0.973 . S
C85 H78 0.929 . S
C85 C86 1.400 . S
C85 C87 1.364 . S
C86 C85 1.400 . S
C86 C90 1.377 . S
C87 C85 1.364 . S
C87 C88 1.374 . S
C88 H79 0.930 . S
C88 C87 1.374 . S
C88 C89 1.383 . S
C89 O83 1.412 . S
C89 C88 1.383 . S
C89 C90 1.394 . S
C90 H80 0.929 . S
C90 C86 1.377 . S
C90 C89 1.394 . S
H91 C98 0.929 . S
H92 C101 0.930 . S
H93 C103 0.929 . S
H94 C95 0.969 . S
C95 H94 0.969 . S
C95 O96 1.550 . S
C95 H97 0.973 . S
O96 C95 1.550 . S
O96 C102 1.412 . S
H97 C95 0.973 . S
C98 H91 0.929 . S
C98 C99 1.400 . S
C98 C100 1.364 . S
C99 C98 1.400 . S
C99 C103 1.377 . S
C100 C98 1.364 . S
C100 C101 1.374 . S
C101 H92 0.930 . S
C101 C100 1.374 . S
C101 C102 1.383 . S
C102 O96 1.412 . S
C102 C101 1.383 . S
C102 C103 1.394 . S
C103 H93 0.929 . S
C103 C99 1.377 . S
C103 C102 1.394 . S
O104 Mg105 1.990 . S
O104 C118 1.253 1_445 S
Mg105 O104 1.990 . S
Mg105 O108 2.180 . S
Mg105 O109 2.117 . S
Mg105 O123 2.030 . S
O106 Mg107 2.072 1_665 S
O106 C118 1.260 . S
Mg107 O106 2.072 1_445 S
Mg107 O108 2.099 . S
Mg107 O110 2.079 . S
Mg107 O111 2.072 1_455 S
Mg107 O113 2.099 1_445 S
Mg107 O124 2.079 1_545 S
O108 Mg105 2.180 . S
O108 Mg107 2.099 . S
O108 C119 1.279 . S
O109 Mg105 2.117 . S
O109 C119 1.250 . S
O110 Mg107 2.079 . S
O110 C120 1.264 . S
O111 Mg107 2.072 1_655 S
O111 C121 1.260 . S
Mg112 O113 2.180 . S
Mg112 O114 2.030 1_565 S
Mg112 O115 1.990 1_565 S
Mg112 O116 2.117 . S
O113 Mg107 2.099 1_665 S
O113 Mg112 2.180 . S
O113 C122 1.279 . S
O114 Mg112 2.030 1_545 S
O114 C120 1.248 1_655 S
O115 Mg112 1.990 1_545 S
O115 C121 1.253 . S
O116 Mg112 2.117 . S
O116 C122 1.250 . S
C117 O123 1.248 1_565 S
C117 O124 1.264 . S
C118 O104 1.253 1_665 S
C118 O106 1.260 . S
C119 O108 1.279 . S
C119 O109 1.250 . S
C120 O110 1.264 . S
C120 O114 1.248 1_455 S
C121 O111 1.260 . S
C121 O115 1.253 . S
C122 O113 1.279 . S
C122 O116 1.250 . S
O123 Mg105 2.030 . S
O123 C117 1.248 1_545 S
O124 Mg107 2.079 1_565 S
O124 C117 1.264 . S
O125 Mg126 1.990 . S
O125 C139 1.253 . S
Mg126 O125 1.990 . S
Mg126 O129 2.187 . S
Mg126 O130 2.117 1_554 S
Mg126 O144 2.030 . S
O127 Mg128 2.072 . S
O127 C139 1.260 . S
Mg128 O127 2.072 . S
Mg128 O129 2.101 . S
Mg128 O131 2.079 1_554 S
Mg128 O132 2.072 1_554 S
Mg128 O134 2.099 1_545 S
Mg128 O145 2.079 . S
O129 Mg126 2.187 . S
O129 Mg128 2.101 . S
O129 C140 1.272 1_554 S
O130 Mg126 2.117 1_556 S
O130 C140 1.250 . S
O131 Mg128 2.079 1_556 S
O131 C141 1.264 1_545 S
O132 Mg128 2.072 1_556 S
O132 C142 1.260 1_545 S
Mg133 O134 2.180 1_556 S
Mg133 O135 2.030 . S
Mg133 O136 1.990 . S
Mg133 O137 2.117 1_556 S
O134 Mg128 2.099 1_565 S
O134 Mg133 2.180 1_554 S
O134 C143 1.279 . S
O135 Mg133 2.030 . S
O135 C141 1.248 . S
O136 Mg133 1.990 . S
O136 C142 1.253 . S
O137 Mg133 2.117 1_554 S
O137 C143 1.250 . S
C138 O144 1.248 . S
C138 O145 1.264 . S
C139 O125 1.253 . S
C139 O127 1.260 . S
C140 O129 1.272 1_556 S
C140 O130 1.250 . S
C141 O131 1.264 1_565 S
C141 O135 1.248 . S
C142 O132 1.260 1_565 S
C142 O136 1.253 . S
C143 O134 1.279 . S
C143 O137 1.250 . S
O144 Mg126 2.030 . S
O144 C138 1.248 . S
O145 Mg128 2.079 . S
O145 C138 1.264 . S
O146 Mg147 1.990 . S
O146 C160 1.253 . S
Mg147 O146 1.990 . S
Mg147 O150 2.180 . S
Mg147 O151 2.117 . S
Mg147 O165 2.030 . S
O148 Mg149 2.072 . S
O148 C160 1.260 . S
Mg149 O148 2.072 . S
Mg149 O150 2.099 . S
Mg149 O152 2.079 . S
Mg149 O153 2.072 . S
Mg149 O155 2.099 . S
Mg149 O166 2.079 . S
O150 Mg147 2.180 . S
O150 Mg149 2.099 . S
O150 C161 1.279 . S
O151 Mg147 2.117 . S
O151 C161 1.250 . S
O152 Mg149 2.079 . S
O152 C162 1.264 . S
O153 Mg149 2.072 . S
O153 C163 1.260 . S
Mg154 O155 2.180 . S
Mg154 O156 2.030 . S
Mg154 O157 1.990 . S
Mg154 O158 2.117 . S
O155 Mg149 2.099 . S
O155 Mg154 2.180 . S
O155 C164 1.279 . S
O156 Mg154 2.030 . S
O156 C162 1.248 . S
O157 Mg154 1.990 . S
O157 C163 1.253 . S
O158 Mg154 2.117 . S
O158 C164 1.250 . S
C159 O165 1.248 . S
C159 O166 1.264 . S
C160 O146 1.253 . S
C160 O148 1.260 . S
C161 O150 1.279 . S
C161 O151 1.250 . S
C162 O152 1.264 . S
C162 O156 1.248 . S
C163 O153 1.260 . S
C163 O157 1.253 . S
C164 O155 1.279 . S
C164 O158 1.250 . S
O165 Mg147 2.030 . S
O165 C159 1.248 . S
O166 Mg149 2.079 . S
O166 C159 1.264 . S
O167 Mg168 1.990 . S
O167 C181 1.253 . S
Mg168 O167 1.990 . S
Mg168 O171 2.180 . S
Mg168 O172 2.117 . S
Mg168 O186 2.030 . S
O169 Mg170 2.072 . S
O169 C181 1.260 . S
Mg170 O169 2.072 . S
Mg170 O171 2.099 . S
Mg170 O173 2.079 . S
Mg170 O174 2.072 1_455 S
Mg170 O176 2.099 1_554 S
Mg170 O187 2.079 . S
O171 Mg168 2.180 . S
O171 Mg170 2.099 . S
O171 C182 1.279 1_455 S
O172 Mg168 2.117 . S
O172 C182 1.250 1_455 S
O173 Mg170 2.079 . S
O173 C183 1.264 1_454 S
O174 Mg170 2.072 1_655 S
O174 C184 1.260 1_554 S
Mg175 O176 2.180 1_655 S
Mg175 O177 2.030 . S
Mg175 O178 1.990 . S
Mg175 O179 2.117 1_655 S
O176 Mg170 2.099 1_556 S
O176 Mg175 2.180 1_455 S
O176 C185 1.279 . S
O177 Mg175 2.030 . S
O177 C183 1.248 . S
O178 Mg175 1.990 . S
O178 C184 1.253 . S
O179 Mg175 2.117 1_455 S
O179 C185 1.250 . S
C180 O186 1.248 . S
C180 O187 1.264 . S
C181 O167 1.253 . S
C181 O169 1.260 . S
C182 O171 1.279 1_655 S
C182 O172 1.250 1_655 S
C183 O173 1.264 1_656 S
C183 O177 1.248 . S
C184 O174 1.260 1_556 S
C184 O178 1.253 . S
C185 O176 1.279 . S
C185 O179 1.250 . S
O186 Mg168 2.030 . S
O186 C180 1.248 . S
O187 Mg170 2.079 . S
O187 C180 1.264 . S
C188 C189 1.387 . S
C188 H192 0.950 . S
C188 C197 1.390 . S
C189 C188 1.387 . S
C189 C191 1.387 . S
H190 C197 0.950 . S
C191 C189 1.387 . S
C191 C193 1.390 . S
C191 H195 0.950 . S
H192 C188 0.950 . S
C193 C191 1.390 . S
C193 C194 1.387 . S
C193 H196 0.950 . S
C194 C193 1.387 . S
C194 C197 1.387 . S
H195 C191 0.950 . S
H196 C193 0.950 . S
C197 C188 1.390 . S
C197 H190 0.950 . S
C197 C194 1.387 . S
C198 C199 1.387 1_545 S
C198 H202 0.950 . S
C198 C207 1.390 . S
C199 C198 1.387 1_565 S
C199 C201 1.387 . S
H200 C207 0.950 . S
C201 C199 1.387 . S
C201 C203 1.390 . S
C201 H205 0.950 . S
H202 C198 0.950 . S
C203 C201 1.390 . S
C203 C204 1.387 . S
C203 H206 0.950 . S
C204 C203 1.387 . S
C204 C207 1.387 1_565 S
H205 C201 0.950 . S
H206 C203 0.950 . S
C207 C198 1.390 . S
C207 H200 0.950 . S
C207 C204 1.387 1_545 S
C208 C209 1.387 . S
C208 H212 0.950 . S
C208 C217 1.390 . S
C209 C208 1.387 . S
C209 C211 1.387 . S
H210 C217 0.950 . S
C211 C209 1.387 . S
C211 C213 1.390 . S
C211 H215 0.950 . S
H212 C208 0.950 . S
C213 C211 1.390 . S
C213 C214 1.387 . S
C213 H216 0.950 . S
C214 C213 1.387 . S
C214 C217 1.387 . S
H215 C211 0.950 . S
H216 C213 0.950 . S
C217 C208 1.390 . S
C217 H210 0.950 . S
C217 C214 1.387 . S
C218 C219 1.387 . S
C218 H222 0.950 . S
C218 C227 1.390 . S
C219 C218 1.387 . S
C219 C221 1.387 . S
H220 C227 0.950 . S
C221 C219 1.387 . S
C221 C223 1.390 . S
C221 H225 0.950 . S
H222 C218 0.950 . S
C223 C221 1.390 . S
C223 C224 1.387 . S
C223 H226 0.950 1_655 S
C224 C223 1.387 . S
C224 C227 1.387 . S
H225 C221 0.950 . S
H226 C223 0.950 1_455 S
C227 C218 1.390 . S
C227 H220 0.950 . S
C227 C224 1.387 . S
C228 C229 1.387 . S
C228 H232 0.950 . S
C228 C237 1.390 . S
C229 C228 1.387 . S
C229 C231 1.387 . S
H230 C237 0.950 . S
C231 C229 1.387 . S
C231 C233 1.390 . S
C231 H235 0.950 . S
H232 C228 0.950 . S
C233 C231 1.390 . S
C233 C234 1.387 . S
C233 H236 0.942 1_545 S
C234 C233 1.387 . S
C234 C237 1.387 . S
H235 C231 0.950 . S
H236 C233 0.942 1_565 S
C237 C228 1.390 . S
C237 H230 0.950 . S
C237 C234 1.387 . S
C238 C239 1.387 . S
C238 H242 0.950 . S
C238 C247 1.390 . S
C239 C238 1.387 . S
C239 C241 1.387 . S
H240 C247 0.950 . S
C241 C239 1.387 . S
C241 C243 1.390 . S
C241 H245 0.950 1_565 S
H242 C238 0.950 . S
C243 C241 1.390 . S
C243 C244 1.387 . S
C243 H246 0.950 1_565 S
C244 C243 1.387 . S
C244 C247 1.387 . S
H245 C241 0.950 1_545 S
H246 C243 0.950 1_545 S
C247 C238 1.390 . S
C247 H240 0.950 . S
C247 C244 1.387 . S
C248 C249 1.387 . S
C248 H252 0.950 . S
C248 C257 1.390 . S
C249 C248 1.387 . S
C249 C251 1.387 . S
H250 C257 0.950 . S
C251 C249 1.387 . S
C251 C253 1.390 . S
C251 H255 0.950 . S
H252 C248 0.950 . S
C253 C251 1.390 . S
C253 C254 1.387 . S
C253 H256 0.950 . S
C254 C253 1.387 . S
C254 C257 1.387 . S
H255 C251 0.950 . S
H256 C253 0.950 . S
C257 C248 1.390 . S
C257 H250 0.950 . S
C257 C254 1.387 . S
C258 C259 1.387 . S
C258 H262 0.950 . S
C258 C267 1.390 . S
C259 C258 1.387 . S
C259 C261 1.387 . S
H260 C267 0.950 . S
C261 C259 1.387 . S
C261 C263 1.390 . S
C261 H265 0.950 . S
H262 C258 0.950 . S
C263 C261 1.390 . S
C263 C264 1.387 . S
C263 H266 0.950 . S
C264 C263 1.387 . S
C264 C267 1.387 . S
H265 C261 0.950 . S
H266 C263 0.950 . S
C267 C258 1.390 . S
C267 H260 0.950 . S
C267 C264 1.387 . S
C268 C269 1.387 . S
C268 H272 0.950 . S
C268 C277 1.390 . S
C269 C268 1.387 . S
C269 C271 1.387 . S
H270 C277 0.950 . S
C271 C269 1.387 . S
C271 C273 1.390 . S
C271 H275 0.950 . S
H272 C268 0.950 . S
C273 C271 1.390 . S
C273 C274 1.387 . S
C273 H276 0.950 . S
C274 C273 1.387 . S
C274 C277 1.387 . S
H275 C271 0.950 . S
H276 C273 0.950 . S
C277 C268 1.390 . S
C277 H270 0.950 . S
C277 C274 1.387 . S
C278 C279 1.387 . S
C278 H282 0.950 . S
C278 C287 1.390 . S
C279 C278 1.387 . S
C279 C281 1.387 . S
H280 C287 0.950 . S
C281 C279 1.387 . S
C281 C283 1.390 . S
C281 H285 0.950 . S
H282 C278 0.950 . S
C283 C281 1.390 . S
C283 C284 1.387 . S
C283 H286 0.950 1_556 S
C284 C283 1.387 . S
C284 C287 1.387 . S
H285 C281 0.950 . S
H286 C283 0.950 1_554 S
C287 C278 1.390 . S
C287 H280 0.950 . S
C287 C284 1.387 . S
C288 C289 1.387 . S
C288 H292 0.950 . S
C288 C297 1.390 . S
C289 C288 1.387 . S
C289 C291 1.387 . S
H290 C297 0.950 . S
C291 C289 1.387 . S
C291 C293 1.390 . S
C291 H295 0.950 . S
H292 C288 0.950 . S
C293 C291 1.390 . S
C293 C294 1.387 . S
C293 H296 0.950 1_655 S
C294 C293 1.387 . S
C294 C297 1.387 . S
H295 C291 0.950 . S
H296 C293 0.950 1_455 S
C297 C288 1.390 . S
C297 H290 0.950 . S
C297 C294 1.387 . S
C298 C299 1.387 . S
C298 H302 0.950 . S
C298 C307 1.390 . S
C299 C298 1.387 . S
C299 C301 1.387 . S
H300 C307 0.950 . S
C301 C299 1.387 . S
C301 C303 1.390 . S
C301 H305 0.950 . S
H302 C298 0.950 . S
C303 C301 1.390 . S
C303 C304 1.387 . S
C303 H306 0.950 . S
C304 C303 1.387 . S
C304 C307 1.387 . S
H305 C301 0.950 . S
H306 C303 0.950 . S
C307 C298 1.390 . S
C307 H300 0.950 . S
C307 C304 1.387 . S
C308 C309 1.387 . S
C308 H312 0.950 1_565 S
C308 C317 1.390 . S
C309 C308 1.387 . S
C309 C311 1.387 . S
H310 C317 0.950 1_545 S
C311 C309 1.387 . S
C311 C313 1.390 . S
C311 H315 0.950 . S
H312 C308 0.950 1_545 S
C313 C311 1.390 . S
C313 C314 1.387 . S
C313 H316 0.950 . S
C314 C313 1.387 . S
C314 C317 1.387 . S
H315 C311 0.950 . S
H316 C313 0.950 . S
C317 C308 1.390 . S
C317 H310 0.950 1_565 S
C317 C314 1.387 . S
C318 C319 1.387 . S
C318 H322 0.950 . S
C318 C327 1.390 . S
C319 C318 1.387 . S
C319 C321 1.387 . S
H320 C327 0.950 . S
C321 C319 1.387 . S
C321 C323 1.390 . S
C321 H325 0.950 . S
H322 C318 0.950 . S
C323 C321 1.390 . S
C323 C324 1.387 . S
C323 H326 0.950 . S
C324 C323 1.387 . S
C324 C327 1.387 . S
H325 C321 0.950 . S
H326 C323 0.950 . S
C327 C318 1.390 . S
C327 H320 0.950 . S
C327 C324 1.387 . S
C328 C329 1.387 . S
C328 H332 0.950 . S
C328 C337 1.390 . S
C329 C328 1.387 . S
C329 C331 1.387 . S
H330 C337 0.950 . S
C331 C329 1.387 . S
C331 C333 1.390 . S
C331 H335 0.950 . S
H332 C328 0.950 . S
C333 C331 1.390 . S
C333 C334 1.387 . S
C333 H336 0.950 . S
C334 C333 1.387 . S
C334 C337 1.387 . S
H335 C331 0.950 . S
H336 C333 0.950 . S
C337 C328 1.390 . S
C337 H330 0.950 . S
C337 C334 1.387 . S
C338 C339 1.387 . S
C338 H342 0.950 . S
C338 C347 1.390 . S
C339 C338 1.387 . S
C339 C341 1.387 . S
H340 C347 0.950 . S
C341 C339 1.387 . S
C341 C343 1.390 . S
C341 H345 0.950 . S
H342 C338 0.950 . S
C343 C341 1.390 . S
C343 C344 1.387 . S
C343 H346 0.950 . S
C344 C343 1.387 . S
C344 C347 1.387 . S
H345 C341 0.950 . S
H346 C343 0.950 . S
C347 C338 1.390 . S
C347 H340 0.950 . S
C347 C344 1.387 . S
C348 C349 1.387 . S
C348 H352 0.950 . S
C348 C357 1.390 . S
C349 C348 1.387 . S
C349 C351 1.387 . S
H350 C357 0.950 1_554 S
C351 C349 1.387 . S
C351 C353 1.390 . S
C351 H355 0.950 . S
H352 C348 0.950 . S
C353 C351 1.390 . S
C353 C354 1.387 . S
C353 H356 0.950 . S
C354 C353 1.387 . S
C354 C357 1.387 . S
H355 C351 0.950 . S
H356 C353 0.950 . S
C357 C348 1.390 . S
C357 H350 0.950 1_556 S
C357 C354 1.387 . S
C358 C359 1.387 . S
C358 H362 0.950 . S
C358 C367 1.390 . S
C359 C358 1.387 . S
C359 C361 1.387 . S
H360 C367 0.950 . S
C361 C359 1.387 . S
C361 C363 1.390 . S
C361 H365 0.950 . S
H362 C358 0.950 . S
C363 C361 1.390 . S
C363 C364 1.387 . S
C363 H366 0.950 . S
C364 C363 1.387 . S
C364 C367 1.387 . S
H365 C361 0.950 . S
H366 C363 0.950 . S
C367 C358 1.390 . S
C367 H360 0.950 . S
C367 C364 1.387 . S
C368 C369 1.387 . S
C368 H372 0.950 . S
C368 C377 1.390 . S
C369 C368 1.387 . S
C369 C371 1.387 . S
H370 C377 0.950 . S
C371 C369 1.387 . S
C371 C373 1.390 . S
C371 H375 0.950 . S
H372 C368 0.950 . S
C373 C371 1.390 . S
C373 C374 1.387 . S
C373 H376 0.950 . S
C374 C373 1.387 . S
C374 C377 1.387 . S
H375 C371 0.950 . S
H376 C373 0.950 . S
C377 C368 1.390 . S
C377 H370 0.950 . S
C377 C374 1.387 . S
C378 C379 1.387 . S
C378 H382 0.950 . S
C378 C387 1.390 . S
C379 C378 1.387 . S
C379 C381 1.387 . S
H380 C387 0.950 . S
C381 C379 1.387 . S
C381 C383 1.390 . S
C381 H385 0.950 . S
H382 C378 0.950 . S
C383 C381 1.390 . S
C383 C384 1.387 . S
C383 H386 0.950 . S
C384 C383 1.387 . S
C384 C387 1.387 . S
H385 C381 0.950 . S
H386 C383 0.950 . S
C387 C378 1.390 . S
C387 H380 0.950 . S
C387 C384 1.387 . S
C388 C389 1.387 1_554 S
C388 H392 0.950 . S
C388 C397 1.390 . S
C389 C388 1.387 1_556 S
C389 C391 1.387 . S
H390 C397 0.950 . S
C391 C389 1.387 . S
C391 C393 1.390 . S
C391 H395 0.950 . S
H392 C388 0.950 . S
C393 C391 1.390 . S
C393 C394 1.387 . S
C393 H396 0.950 . S
C394 C393 1.387 . S
C394 C397 1.387 1_556 S
H395 C391 0.950 . S
H396 C393 0.950 . S
C397 C388 1.390 . S
C397 H390 0.950 . S
C397 C394 1.387 1_554 S
C398 C399 1.387 . S
C398 H402 0.950 . S
C398 C407 1.390 . S
C399 C398 1.387 . S
C399 C401 1.387 . S
H400 C407 0.950 . S
C401 C399 1.387 . S
C401 C403 1.390 . S
C401 H405 0.950 . S
H402 C398 0.950 . S
C403 C401 1.390 . S
C403 C404 1.387 . S
C403 H406 0.950 . S
C404 C403 1.387 . S
C404 C407 1.387 . S
H405 C401 0.950 . S
H406 C403 0.950 . S
C407 C398 1.390 . S
C407 H400 0.950 . S
C407 C404 1.387 . S
C408 C409 1.387 . S
C408 H412 0.950 . S
C408 C417 1.390 . S
C409 C408 1.387 . S
C409 C411 1.387 . S
H410 C417 0.950 . S
C411 C409 1.387 . S
C411 C413 1.390 . S
C411 H415 0.950 1_455 S
H412 C408 0.950 . S
C413 C411 1.390 . S
C413 C414 1.387 . S
C413 H416 0.950 1_455 S
C414 C413 1.387 . S
C414 C417 1.387 . S
H415 C411 0.950 1_655 S
H416 C413 0.950 1_655 S
C417 C408 1.390 . S
C417 H410 0.950 . S
C417 C414 1.387 . S
C418 C419 1.387 . S
C418 H422 0.950 . S
C418 C427 1.390 . S
C419 C418 1.387 . S
C419 C421 1.387 . S
H420 C427 0.950 . S
C421 C419 1.387 . S
C421 C423 1.390 . S
C421 H425 0.950 . S
H422 C418 0.950 . S
C423 C421 1.390 . S
C423 C424 1.387 . S
C423 H426 0.950 . S
C424 C423 1.387 . S
C424 C427 1.387 . S
H425 C421 0.950 . S
H426 C423 0.950 . S
C427 C418 1.390 . S
C427 H420 0.950 . S
C427 C424 1.387 . S
C189 C9 1.843 . S
C194 C120 1.795 . S
C199 C21 1.543 . S
C204 C142 1.524 . S
C214 C161 1.115 . S
C209 C30 1.369 . S
C219 C43 1.458 . S
C224 C182 1.272 . S
C234 C139 1.581 . S
C229 C4 1.592 . S
C244 C117 1.965 . S
C239 C22 2.006 . S
C254 C184 1.133 . S
C249 C34 1.198 . S
C264 C163 1.321 . S
C259 C48 1.353 . S
C269 C8 1.728 . S
C274 C181 1.650 . S
C284 C140 1.309 . S
C279 C35 1.643 . S
C289 C47 1.662 . S
C294 C122 1.525 . S
C299 C17 1.469 . S
C304 C160 1.455 . S
C314 C118 1.529 . S
C309 C60 1.596 . S
C319 C74 1.590 . S
C324 C138 1.547 . S
C329 C82 1.174 . S
C334 C164 1.003 . S
C339 C100 1.863 . S
C344 C185 1.479 . S
C349 C61 1.880 . S
C354 C141 1.828 . S
C364 C121 1.622 . S
C359 C73 1.709 . S
C374 C180 1.421 . S
C369 C87 1.464 . S
C384 C159 1.229 . S
C379 C95 1.246 . S
C389 C56 1.510 . S
C394 C183 1.542 . S
C404 C143 1.306 . S
C399 C86 1.590 . S
C414 C119 1.323 . S
C409 C99 1.490 . S
C419 C69 1.344 . S
C424 C162 1.371 . S
