# Generated by pormake.
# Topology pto, (3,4)-cn, num edge types: 1
# Building blocks:
#     Node 0, Type 0, BuildingBlock: MIDCAF_clean_linker_0, # of connection points: 3
#     Node 1, Type 0, BuildingBlock: MIDCAF_clean_linker_0, # of connection points: 3
#     Node 2, Type 0, BuildingBlock: MIDCAF_clean_linker_0, # of connection points: 3
#     Node 3, Type 0, BuildingBlock: MIDCAF_clean_linker_0, # of connection points: 3
#     Node 4, Type 0, BuildingBlock: MIDCAF_clean_linker_0, # of connection points: 3
#     Node 5, Type 0, BuildingBlock: MIDCAF_clean_linker_0, # of connection points: 3
#     Node 6, Type 0, BuildingBlock: MIDCAF_clean_linker_0, # of connection points: 3
#     Node 7, Type 0, BuildingBlock: MIDCAF_clean_linker_0, # of connection points: 3
#     Node 8, Type 1, BuildingBlock: NAWXER_clean_sbu_0, # of connection points: 4
#     Node 9, Type 1, BuildingBlock: NAWXER_clean_sbu_0, # of connection points: 4
#     Node 10, Type 1, BuildingBlock: NAWXER_clean_sbu_0, # of connection points: 4
#     Node 11, Type 1, BuildingBlock: NAWXER_clean_sbu_0, # of connection points: 4
#     Node 12, Type 1, BuildingBlock: NAWXER_clean_sbu_0, # of connection points: 4
#     Node 13, Type 1, BuildingBlock: NAWXER_clean_sbu_0, # of connection points: 4
#     Edge 14, Type (0, 1), BuildingBlock: XUDNAN_clean_linker_2, # of connection points: 2
#     Edge 15, Type (0, 1), BuildingBlock: XUDNAN_clean_linker_2, # of connection points: 2
#     Edge 16, Type (0, 1), BuildingBlock: XUDNAN_clean_linker_2, # of connection points: 2
#     Edge 17, Type (0, 1), BuildingBlock: XUDNAN_clean_linker_2, # of connection points: 2
#     Edge 18, Type (0, 1), BuildingBlock: XUDNAN_clean_linker_2, # of connection points: 2
#     Edge 19, Type (0, 1), BuildingBlock: XUDNAN_clean_linker_2, # of connection points: 2
#     Edge 20, Type (0, 1), BuildingBlock: XUDNAN_clean_linker_2, # of connection points: 2
#     Edge 21, Type (0, 1), BuildingBlock: XUDNAN_clean_linker_2, # of connection points: 2
#     Edge 22, Type (0, 1), BuildingBlock: XUDNAN_clean_linker_2, # of connection points: 2
#     Edge 23, Type (0, 1), BuildingBlock: XUDNAN_clean_linker_2, # of connection points: 2
#     Edge 24, Type (0, 1), BuildingBlock: XUDNAN_clean_linker_2, # of connection points: 2
#     Edge 25, Type (0, 1), BuildingBlock: XUDNAN_clean_linker_2, # of connection points: 2
#     Edge 26, Type (0, 1), BuildingBlock: XUDNAN_clean_linker_2, # of connection points: 2
#     Edge 27, Type (0, 1), BuildingBlock: XUDNAN_clean_linker_2, # of connection points: 2
#     Edge 28, Type (0, 1), BuildingBlock: XUDNAN_clean_linker_2, # of connection points: 2
#     Edge 29, Type (0, 1), BuildingBlock: XUDNAN_clean_linker_2, # of connection points: 2
#     Edge 30, Type (0, 1), BuildingBlock: XUDNAN_clean_linker_2, # of connection points: 2
#     Edge 31, Type (0, 1), BuildingBlock: XUDNAN_clean_linker_2, # of connection points: 2
#     Edge 32, Type (0, 1), BuildingBlock: XUDNAN_clean_linker_2, # of connection points: 2
#     Edge 33, Type (0, 1), BuildingBlock: XUDNAN_clean_linker_2, # of connection points: 2
#     Edge 34, Type (0, 1), BuildingBlock: XUDNAN_clean_linker_2, # of connection points: 2
#     Edge 35, Type (0, 1), BuildingBlock: XUDNAN_clean_linker_2, # of connection points: 2
#     Edge 36, Type (0, 1), BuildingBlock: XUDNAN_clean_linker_2, # of connection points: 2
#     Edge 37, Type (0, 1), BuildingBlock: XUDNAN_clean_linker_2, # of connection points: 2
# Relax obj value: 0.000
# Max RMSD: 0.002
# Mean RMSD: 0.001
data_MOF--net-pto--node1-NAWXER_clean_sbu_0--node2-MIDCAF_clean_linker_0--edge1-XUDNAN_clean_linker_2
_symmetry_space_group_name_H-M    P1
_symmetry_Int_Tables_number       1
_symmetry_cell_setting            triclinic
loop_
_symmetry_equiv_pos_as_xyz
'x, y, z'
_cell_length_a     53.228998
_cell_length_b     50.07777
_cell_length_c     46.837564
_cell_angle_alpha  89.705217
_cell_angle_beta   90.047854
_cell_angle_gamma 90.246645
loop_
_atom_site_label
_atom_site_type_symbol
_atom_site_fract_x
_atom_site_fract_y
_atom_site_fract_z
_atom_type_partial_charge
C0 C 0.32922 0.22837 0.18475 0.0
C1 C 0.3351 0.25343 0.17285 0.0
C2 C 0.31837 0.2747 0.17687 0.0
C3 C 0.29645 0.2712 0.19284 0.0
H4 H 0.22738 0.30625 0.20716 0.0
H5 H 0.19724 0.3428 0.21091 0.0
H6 H 0.15574 0.29802 0.27431 0.0
H7 H 0.18565 0.26172 0.27087 0.0
H8 H 0.20239 0.1947 0.27651 0.0
H9 H 0.1977 0.16197 0.31462 0.0
H10 H 0.27779 0.16554 0.33026 0.0
H11 H 0.28245 0.19691 0.29063 0.0
H12 H 0.30357 0.20551 0.21051 0.0
H13 H 0.34186 0.21169 0.18205 0.0
H14 H 0.32237 0.29419 0.16777 0.0
H15 H 0.2842 0.28819 0.19569 0.0
N16 N 0.24947 0.26195 0.22233 0.0
N17 N 0.22663 0.23873 0.25726 0.0
N18 N 0.26577 0.2225 0.24235 0.0
C19 C 0.22869 0.2598 0.23903 0.0
C20 C 0.24501 0.22007 0.25913 0.0
C21 C 0.268 0.2433 0.22363 0.0
C22 C 0.20922 0.28106 0.23897 0.0
C23 C 0.21171 0.30406 0.22172 0.0
C24 C 0.19437 0.32499 0.22374 0.0
C25 C 0.1743 0.32344 0.24317 0.0
C26 C 0.17127 0.30004 0.25952 0.0
C27 C 0.18844 0.27914 0.25743 0.0
C28 C 0.24277 0.1984 0.28063 0.0
C29 C 0.21902 0.18818 0.28789 0.0
C30 C 0.21634 0.16958 0.31005 0.0
C31 C 0.23727 0.16123 0.32619 0.0
C32 C 0.26119 0.17104 0.31831 0.0
C33 C 0.26392 0.18918 0.2956 0.0
C34 C 0.29082 0.24639 0.20558 0.0
C35 C 0.30739 0.22493 0.20118 0.0
C36 C 0.18775 0.66202 0.78634 0.0
C37 C 0.16481 0.67433 0.77932 0.0
C38 C 0.16497 0.70182 0.77283 0.0
C39 C 0.18744 0.71636 0.77238 0.0
H40 H 0.21878 0.78635 0.73793 0.0
H41 H 0.22197 0.82757 0.71006 0.0
H42 H 0.30286 0.82482 0.71741 0.0
H43 H 0.29963 0.78446 0.74599 0.0
H44 H 0.31253 0.75619 0.81641 0.0
H45 H 0.34781 0.74223 0.84554 0.0
H46 H 0.32693 0.65952 0.83261 0.0
H47 H 0.29047 0.67392 0.80511 0.0
H48 H 0.22757 0.6665 0.79141 0.0
H49 H 0.18851 0.64086 0.79111 0.0
H50 H 0.14768 0.71225 0.76804 0.0
H51 H 0.18676 0.73742 0.76704 0.0
N52 N 0.23554 0.74274 0.76279 0.0
N53 N 0.27759 0.74826 0.77655 0.0
N54 N 0.25489 0.71065 0.79215 0.0
C55 C 0.25725 0.75714 0.76178 0.0
C56 C 0.27658 0.72509 0.79177 0.0
C57 C 0.23421 0.71945 0.77789 0.0
C58 C 0.25893 0.78211 0.74448 0.0
C59 C 0.23724 0.7946 0.73365 0.0
C60 C 0.23908 0.81819 0.71748 0.0
C61 C 0.26266 0.8298 0.71157 0.0
C62 C 0.28431 0.81698 0.72205 0.0
C63 C 0.28247 0.79363 0.73839 0.0
C64 C 0.2987 0.71617 0.80847 0.0
C65 C 0.31553 0.73502 0.81975 0.0
C66 C 0.33599 0.72689 0.83633 0.0
C67 C 0.34065 0.69959 0.84149 0.0
C68 C 0.32391 0.68072 0.82972 0.0
C69 C 0.30303 0.68893 0.81372 0.0
C70 C 0.21037 0.70397 0.77892 0.0
C71 C 0.21022 0.6767 0.78631 0.0
C72 C 0.70995 0.73105 0.16297 0.0
C73 C 0.68845 0.74245 0.17536 0.0
C74 C 0.691 0.75518 0.20197 0.0
C75 C 0.71444 0.75731 0.21529 0.0
H76 H 0.75449 0.79538 0.28499 0.0
H77 H 0.76251 0.83147 0.31848 0.0
H78 H 0.8398 0.83522 0.28999 0.0
H79 H 0.83199 0.79794 0.25824 0.0
H80 H 0.83581 0.71247 0.25971 0.0
H81 H 0.8673 0.67882 0.25017 0.0
H82 H 0.8481 0.68161 0.1603 0.0
H83 H 0.81502 0.71356 0.17075 0.0
H84 H 0.74957 0.72419 0.16616 0.0
H85 H 0.7089 0.72139 0.14238 0.0
H86 H 0.67486 0.76362 0.21262 0.0
H87 H 0.71564 0.76748 0.2356 0.0
N88 N 0.76498 0.76862 0.23628 0.0
N89 N 0.80667 0.75442 0.24193 0.0
N90 N 0.78002 0.7325 0.20956 0.0
C91 C 0.78789 0.77155 0.2488 0.0
C92 C 0.80282 0.73481 0.22242 0.0
C93 C 0.76092 0.7492 0.21654 0.0
C94 C 0.79264 0.79367 0.26911 0.0
C95 C 0.77321 0.80389 0.28608 0.0
C96 C 0.77783 0.82484 0.30514 0.0
C97 C 0.80189 0.83661 0.30723 0.0
C98 C 0.82118 0.82647 0.28981 0.0
C99 C 0.81669 0.8051 0.27133 0.0
C100 C 0.823 0.71557 0.21598 0.0
C101 C 0.83842 0.70584 0.23793 0.0
C102 C 0.85672 0.68663 0.23229 0.0
C103 C 0.8607 0.67723 0.2043 0.0
C104 C 0.84546 0.68762 0.18224 0.0
C105 C 0.82658 0.7062 0.18811 0.0
C106 C 0.73595 0.74634 0.20266 0.0
C107 C 0.73337 0.73283 0.17654 0.0
C108 C 0.80134 0.17242 0.70402 0.0
C109 C 0.78007 0.15663 0.69811 0.0
C110 C 0.75747 0.16235 0.71235 0.0
C111 C 0.75621 0.18302 0.73222 0.0
H112 H 0.71193 0.21225 0.79789 0.0
H113 H 0.67201 0.22068 0.82184 0.0
H114 H 0.69804 0.29934 0.84512 0.0
H115 H 0.73795 0.29107 0.82128 0.0
H116 H 0.795 0.31099 0.79719 0.0
H117 H 0.83142 0.34072 0.80002 0.0
H118 H 0.8802 0.27407 0.78194 0.0
H119 H 0.84381 0.245 0.77752 0.0
H120 H 0.81688 0.20484 0.72801 0.0
H121 H 0.8191 0.16845 0.69363 0.0
H122 H 0.74057 0.15097 0.70797 0.0
H123 H 0.73842 0.18673 0.74264 0.0
N124 N 0.75416 0.22555 0.77361 0.0
N125 N 0.7724 0.26263 0.79618 0.0
N126 N 0.796 0.23715 0.76398 0.0
C127 C 0.75221 0.24627 0.79213 0.0
C128 C 0.79442 0.25803 0.78234 0.0
C129 C 0.77591 0.2209 0.75931 0.0
C130 C 0.72819 0.25105 0.80746 0.0
C131 C 0.70921 0.23135 0.80815 0.0
C132 C 0.68637 0.23607 0.82205 0.0
C133 C 0.68183 0.2607 0.83524 0.0
C134 C 0.70088 0.28025 0.83487 0.0
C135 C 0.72382 0.27545 0.8213 0.0
C136 C 0.8165 0.27573 0.7867 0.0
C137 C 0.81356 0.30275 0.79396 0.0
C138 C 0.83451 0.31976 0.79576 0.0
C139 C 0.85891 0.31002 0.79081 0.0
C140 C 0.86176 0.28262 0.785 0.0
C141 C 0.84085 0.26583 0.78262 0.0
C142 C 0.77749 0.19872 0.73835 0.0
C143 C 0.80008 0.1932 0.72391 0.0
C144 C 0.66718 0.77361 0.8006 0.0
C145 C 0.66666 0.75921 0.82643 0.0
C146 C 0.68485 0.73933 0.83107 0.0
C147 C 0.70303 0.73391 0.81034 0.0
H148 H 0.75592 0.67637 0.78418 0.0
H149 H 0.78669 0.64098 0.7906 0.0
H150 H 0.83103 0.67402 0.7216 0.0
H151 H 0.79994 0.70878 0.71453 0.0
H152 H 0.7717 0.74871 0.67144 0.0
H153 H 0.77791 0.7802 0.63237 0.0
H154 H 0.72645 0.8351 0.67223 0.0
H155 H 0.71963 0.8033 0.71093 0.0
H156 H 0.68506 0.77978 0.7603 0.0
H157 H 0.65324 0.78873 0.79607 0.0
H158 H 0.68522 0.72808 0.85088 0.0
H159 H 0.71677 0.71854 0.81471 0.0
N160 N 0.73916 0.7222 0.76544 0.0
N161 N 0.75878 0.73423 0.7224 0.0
N162 N 0.72494 0.75929 0.73935 0.0
C163 C 0.75715 0.71768 0.74541 0.0
C164 C 0.74274 0.75504 0.71917 0.0
C165 C 0.72294 0.74299 0.76252 0.0
C166 C 0.77542 0.69555 0.74892 0.0
C167 C 0.77216 0.67603 0.77028 0.0
C168 C 0.78991 0.65577 0.77404 0.0
C169 C 0.81148 0.65464 0.75672 0.0
C170 C 0.81451 0.67395 0.73508 0.0
C171 C 0.79669 0.69406 0.73117 0.0
C172 C 0.74533 0.77352 0.69451 0.0
C173 C 0.76156 0.76741 0.67183 0.0
C174 C 0.76521 0.78553 0.64945 0.0
C175 C 0.75287 0.81031 0.64928 0.0
C176 C 0.73606 0.8161 0.67151 0.0
C177 C 0.73227 0.79789 0.69383 0.0
C178 C 0.70354 0.74835 0.78452 0.0
C179 C 0.68539 0.76829 0.77996 0.0
C180 C 0.75018 0.22911 0.35526 0.0
C181 C 0.72965 0.21146 0.35256 0.0
C182 C 0.71152 0.21672 0.33149 0.0
C183 C 0.71388 0.23883 0.31346 0.0
H184 H 0.68506 0.26644 0.24127 0.0
H185 H 0.65734 0.26699 0.20006 0.0
H186 H 0.68939 0.34206 0.17253 0.0
H187 H 0.71766 0.34161 0.21392 0.0
H188 H 0.77575 0.34902 0.23348 0.0
H189 H 0.81511 0.37351 0.22979 0.0
H190 H 0.83755 0.34425 0.31271 0.0
H191 H 0.79795 0.31926 0.31659 0.0
H192 H 0.76872 0.26435 0.33959 0.0
H193 H 0.76436 0.22582 0.37148 0.0
H194 H 0.69571 0.20336 0.32839 0.0
H195 H 0.69957 0.24186 0.29732 0.0
N196 N 0.71984 0.2824 0.27453 0.0
N197 N 0.74276 0.31816 0.2554 0.0
N198 N 0.75776 0.29539 0.29595 0.0
C199 C 0.72229 0.30193 0.25456 0.0
C200 C 0.76056 0.31513 0.27604 0.0
C201 C 0.73731 0.27896 0.29533 0.0
C202 C 0.70385 0.30386 0.23085 0.0
C203 C 0.68617 0.28327 0.22672 0.0
C204 C 0.67029 0.2835 0.20305 0.0
C205 C 0.67142 0.30445 0.18307 0.0
C206 C 0.68817 0.32571 0.18771 0.0
C207 C 0.7044 0.32534 0.21131 0.0
C208 C 0.78368 0.33188 0.27525 0.0
C209 C 0.78885 0.34787 0.25115 0.0
C210 C 0.81147 0.36188 0.24894 0.0
C211 C 0.82942 0.36056 0.27085 0.0
C212 C 0.82396 0.34561 0.29554 0.0
C213 C 0.80135 0.33123 0.29765 0.0
C214 C 0.73453 0.25634 0.3158 0.0
C215 C 0.75259 0.25131 0.33709 0.0
C216 C 0.30869 0.23307 0.67887 0.0
C217 C 0.28911 0.21549 0.67117 0.0
C218 C 0.26427 0.22257 0.67824 0.0
C219 C 0.25928 0.24628 0.69284 0.0
H220 H 0.22358 0.33147 0.68164 0.0
H221 H 0.1861 0.35792 0.67328 0.0
H222 H 0.18192 0.37502 0.76365 0.0
H223 H 0.2205 0.35008 0.7714 0.0
H224 H 0.2825 0.35457 0.79763 0.0
H225 H 0.31241 0.36443 0.83589 0.0
H226 H 0.36132 0.30246 0.80482 0.0
H227 H 0.33161 0.29231 0.76719 0.0
H228 H 0.3193 0.26916 0.70016 0.0
H229 H 0.32798 0.22896 0.67315 0.0
H230 H 0.24864 0.20952 0.67324 0.0
H231 H 0.24004 0.25093 0.69839 0.0
N232 N 0.25276 0.30136 0.71516 0.0
N233 N 0.26463 0.32967 0.7528 0.0
N234 N 0.29068 0.29424 0.73941 0.0
C235 C 0.24799 0.32285 0.73193 0.0
C236 C 0.28613 0.31546 0.75658 0.0
C237 C 0.27408 0.28697 0.71886 0.0
C238 C 0.22497 0.33873 0.72717 0.0
C239 C 0.21464 0.34098 0.69967 0.0
C240 C 0.19296 0.35604 0.69495 0.0
C241 C 0.18063 0.36872 0.71774 0.0
C242 C 0.191 0.36619 0.74535 0.0
C243 C 0.21307 0.35168 0.74992 0.0
C244 C 0.30446 0.32249 0.77935 0.0
C245 C 0.29966 0.34308 0.79894 0.0
C246 C 0.31684 0.34883 0.82081 0.0
C247 C 0.33914 0.33406 0.82359 0.0
C248 C 0.3441 0.31387 0.80369 0.0
C249 C 0.32703 0.30815 0.78193 0.0
C250 C 0.27902 0.26312 0.70135 0.0
C251 C 0.30374 0.25635 0.69413 0.0
C252 C 0.18247 0.69086 0.25523 0.0
C253 C 0.17293 0.68548 0.28274 0.0
C254 C 0.18431 0.69819 0.3062 0.0
C255 C 0.20451 0.71575 0.30231 0.0
H256 H 0.23123 0.80186 0.32176 0.0
H257 H 0.24248 0.83707 0.35523 0.0
H258 H 0.32124 0.82137 0.34003 0.0
H259 H 0.30977 0.78766 0.30524 0.0
H260 H 0.3155 0.77969 0.23366 0.0
H261 H 0.34506 0.7731 0.19498 0.0
H262 H 0.29724 0.7114 0.16017 0.0
H263 H 0.26773 0.71751 0.19939 0.0
H264 H 0.2099 0.71165 0.22996 0.0
H265 H 0.17399 0.68197 0.23652 0.0
H266 H 0.17797 0.69423 0.32777 0.0
H267 H 0.21288 0.72494 0.32093 0.0
N268 N 0.24217 0.75687 0.29146 0.0
N269 N 0.2779 0.76971 0.26552 0.0
N270 N 0.25133 0.73627 0.24771 0.0
C271 C 0.26297 0.77246 0.28874 0.0
C272 C 0.27221 0.75183 0.2448 0.0
C273 C 0.23628 0.73861 0.27107 0.0
C274 C 0.26962 0.79224 0.31077 0.0
C275 C 0.25092 0.80598 0.32574 0.0
C276 C 0.25744 0.82607 0.34507 0.0
C277 C 0.28286 0.8324 0.35035 0.0
C278 C 0.30149 0.81778 0.33603 0.0
C279 C 0.29494 0.79822 0.31622 0.0
C280 C 0.28925 0.74893 0.21991 0.0
C281 C 0.31109 0.76478 0.21773 0.0
C282 C 0.32803 0.76119 0.19534 0.0
C283 C 0.32359 0.74167 0.17449 0.0
C284 C 0.3014 0.72636 0.17613 0.0
C285 C 0.28442 0.72994 0.19857 0.0
C286 C 0.21423 0.72074 0.2749 0.0
C287 C 0.203 0.70807 0.2514 0.0
C288 C 0.98022 0.47439 0.26302 0.0
C289 C 0.04343 0.54454 0.27691 0.0
O290 O 0.98452 0.48724 0.28587 0.0
Zn291 Zn 0.01167 0.5096 0.27092 0.0
O292 O 0.99312 0.47973 0.2406 0.0
Zn293 Zn 0.02257 0.50602 0.22713 0.0
O294 O 0.04875 0.48094 0.21633 0.0
O295 O 0.041 0.48133 0.26259 0.0
O296 O 0.04312 0.5353 0.2514 0.0
O297 O 0.02819 0.53524 0.2954 0.0
O298 O 0.99243 0.53557 0.24203 0.0
O299 O 1.0055 0.52752 0.1982 0.0
C300 C 0.05339 0.47217 0.24132 0.0
C301 C 0.99154 0.54049 0.21519 0.0
C302 C 0.97784 0.45958 0.78713 0.0
C303 C 0.02683 0.54288 0.78064 0.0
O304 O 0.98887 0.47107 0.80784 0.0
Zn305 Zn 1.00186 0.50172 0.78594 0.0
O306 O 0.97805 0.47037 0.76231 0.0
Zn307 Zn 0.99201 0.50513 0.74138 0.0
O308 O 0.01322 0.48882 0.71254 0.0
O309 O 0.02723 0.48324 0.75663 0.0
O310 O 0.0158 0.53606 0.75744 0.0
O311 O 0.02412 0.52855 0.80298 0.0
O312 O 0.96845 0.5238 0.77728 0.0
O313 O 0.96168 0.52447 0.73082 0.0
C314 C 0.02965 0.47961 0.7297 0.0
C315 C 0.95504 0.53108 0.75589 0.0
C316 C 0.26457 0.97715 0.57128 0.0
C317 C 0.25001 0.03841 0.49093 0.0
O318 O 0.24357 0.98394 0.56062 0.0
Zn319 Zn 0.2568 0.00775 0.53112 0.0
O320 O 0.28495 0.98644 0.56048 0.0
Zn321 Zn 0.29601 0.01242 0.52602 0.0
O322 O 0.31427 0.03974 0.54578 0.0
O323 O 0.27354 0.04041 0.55475 0.0
O324 O 0.27342 0.03472 0.49609 0.0
O325 O 0.23365 0.0267 0.50636 0.0
O326 O 0.27418 0.9801 0.5021 0.0
O327 O 0.31471 0.98953 0.50116 0.0
C328 C 0.29565 0.0502 0.55835 0.0
C329 C 0.29633 0.97545 0.4926 0.0
C330 C 0.54109 0.72013 0.04991 0.0
C331 C 0.48271 0.69629 0.97245 0.0
O332 O 0.53795 0.69692 0.03952 0.0
Zn333 Zn 0.51226 0.70652 0.01119 0.0
O334 O 0.52833 0.73969 0.03989 0.0
Zn335 Zn 0.50083 0.74779 0.00806 0.0
O336 O 0.47219 0.75992 0.03056 0.0
O337 O 0.48064 0.71715 0.03646 0.0
O338 O 0.4831 0.72117 0.97867 0.0
O339 O 0.4966 0.68004 0.98622 0.0
O340 O 0.53308 0.73045 0.98164 0.0
O341 O 0.51887 0.77179 0.98238 0.0
C342 C 0.46696 0.73746 0.04199 0.0
C343 C 0.53409 0.75461 0.97252 0.0
C344 C 0.76323 0.96278 0.51691 0.0
C345 C 0.74739 0.04338 0.46045 0.0
O346 O 0.74194 0.971 0.50821 0.0
Zn347 Zn 0.75462 1.00248 0.48861 0.0
O348 O 0.78314 0.97624 0.51097 0.0
Zn349 Zn 0.79375 0.01208 0.48839 0.0
O350 O 0.80788 0.03414 0.5189 0.0
O351 O 0.76751 0.02522 0.52436 0.0
O352 O 0.77077 0.03995 0.46582 0.0
O353 O 0.73147 0.02641 0.46958 0.0
O354 O 0.77566 0.98447 0.45466 0.0
O355 O 0.81522 0.99711 0.45903 0.0
C356 C 0.78783 0.03602 0.53349 0.0
C357 C 0.79849 0.98361 0.44602 0.0
C358 C 0.54349 0.30939 0.03265 0.0
C359 C 0.472 0.32599 0.96903 0.0
O360 O 0.53315 0.2882 0.02274 0.0
Zn361 Zn 0.50273 0.27653 0.99573 0.0
O362 O 0.53445 0.33216 0.02631 0.0
Zn363 Zn 0.50754 0.31897 1.0017 0.0
O364 O 0.48352 0.29977 0.03183 0.0
O365 O 0.4803 0.25689 0.02186 0.0
O366 O 0.48497 0.34346 0.98215 0.0
O367 O 0.47706 0.30117 0.97251 0.0
O368 O 0.52142 0.25865 0.96531 0.0
O369 O 0.52819 0.30218 0.96703 0.0
C370 C 0.47451 0.2766 0.03757 0.0
C371 C 0.53224 0.27947 0.95543 0.0
H372 H 0.15125 0.3558 0.20288 0.0
H373 H 0.15923 0.34346 0.29424 0.0
H374 H 0.13041 0.38084 0.30314 0.0
H375 H 0.14787 0.4287 0.20518 0.0
H376 H 0.12467 0.43088 0.17722 0.0
H377 H 0.1467 0.40364 0.1777 0.0
H378 H 0.1098 0.36977 0.17693 0.0
H379 H 0.08768 0.39688 0.17647 0.0
H380 H 0.08577 0.37161 0.20394 0.0
H381 H 0.10026 0.41825 0.30261 0.0
H382 H 0.06975 0.4538 0.29284 0.0
H383 H 0.08048 0.443 0.20166 0.0
C384 C 0.14709 0.36118 0.22472 0.0
C385 C 0.15738 0.34657 0.24789 0.0
C386 C 0.15129 0.35406 0.27618 0.0
C387 C 0.13507 0.37539 0.28146 0.0
C388 C 0.12504 0.38915 0.25825 0.0
C389 C 0.13074 0.38245 0.23043 0.0
C390 C 0.11668 0.40022 0.20948 0.0
C391 C 0.13508 0.41685 0.19132 0.0
C392 C 0.09893 0.38362 0.1906 0.0
C393 C 0.10208 0.41775 0.22994 0.0
C394 C 0.10737 0.41099 0.25794 0.0
C395 C 0.09601 0.42381 0.28079 0.0
C396 C 0.07863 0.444 0.27496 0.0
C397 C 0.07263 0.45129 0.24647 0.0
C398 C 0.08471 0.43802 0.22367 0.0
H399 H 0.14925 0.63146 0.81302 0.0
H400 H 0.12645 0.68065 0.74084 0.0
H401 H 0.08729 0.65487 0.73699 0.0
H402 H 0.1269 0.57007 0.78378 0.0
H403 H 0.11664 0.55635 0.81748 0.0
H404 H 0.14213 0.58009 0.81644 0.0
H405 H 0.1183 0.61028 0.85198 0.0
H406 H 0.09264 0.58668 0.85299 0.0
H407 H 0.08686 0.62105 0.84355 0.0
H408 H 0.05191 0.62292 0.73869 0.0
H409 H 0.0228 0.58505 0.74457 0.0
H410 H 0.06795 0.55481 0.81478 0.0
C411 C 0.13605 0.63687 0.7964 0.0
C412 C 0.14096 0.65854 0.77754 0.0
C413 C 0.12301 0.66478 0.75614 0.0
C414 C 0.10069 0.65011 0.75362 0.0
C415 C 0.09647 0.62904 0.77253 0.0
C416 C 0.11363 0.62226 0.79342 0.0
C417 C 0.10491 0.59767 0.8099 0.0
C418 C 0.12377 0.57469 0.8067 0.0
C419 C 0.10041 0.60433 0.84148 0.0
C420 C 0.08036 0.59156 0.79466 0.0
C421 C 0.07588 0.61013 0.77335 0.0
C422 C 0.0551 0.60834 0.75543 0.0
C423 C 0.03868 0.5867 0.75893 0.0
C424 C 0.04302 0.56702 0.7802 0.0
C425 C 0.06393 0.56978 0.79866 0.0
H426 H 0.90517 0.6677 0.2335 0.0
H427 H 0.86076 0.6386 0.16203 0.0
H428 H 0.89232 0.60389 0.15338 0.0
H429 H 0.96718 0.65263 0.20633 0.0
H430 H 0.97857 0.64137 0.24056 0.0
H431 H 0.95443 0.66644 0.23867 0.0
H432 H 0.92549 0.63723 0.27068 0.0
H433 H 0.94959 0.61223 0.27285 0.0
H434 H 0.91865 0.60335 0.26031 0.0
H435 H 0.92844 0.57063 0.15367 0.0
H436 H 0.96266 0.53927 0.16664 0.0
H437 H 0.9798 0.58717 0.241 0.0
C438 C 0.90175 0.65411 0.21605 0.0
C439 C 0.88025 0.65646 0.19836 0.0
C440 C 0.87723 0.63809 0.17555 0.0
C441 C 0.89506 0.61805 0.1705 0.0
C442 C 0.91575 0.61622 0.18862 0.0
C443 C 0.91895 0.63358 0.21117 0.0
C444 C 0.94136 0.62588 0.2293 0.0
C445 C 0.96158 0.64789 0.22866 0.0
C446 C 0.93328 0.61927 0.2601 0.0
C447 C 0.95005 0.6012 0.21371 0.0
C448 C 0.93547 0.59626 0.18987 0.0
C449 C 0.93997 0.57435 0.17228 0.0
C450 C 0.95948 0.55673 0.17968 0.0
C451 C 0.97374 0.56086 0.20478 0.0
C452 C 0.96912 0.58358 0.22169 0.0
H453 H 0.86831 0.35555 0.82316 0.0
H454 H 0.89978 0.30699 0.75543 0.0
H455 H 0.93605 0.33715 0.75245 0.0
H456 H 0.88456 0.41756 0.79138 0.0
H457 H 0.89171 0.43417 0.82447 0.0
H458 H 0.86942 0.40704 0.824 0.0
H459 H 0.89538 0.38226 0.86263 0.0
H460 H 0.91787 0.40928 0.86306 0.0
H461 H 0.92818 0.37565 0.85637 0.0
H462 H 0.96687 0.37387 0.75309 0.0
H463 H 0.98977 0.41667 0.75607 0.0
H464 H 0.93922 0.44311 0.82259 0.0
C465 C 0.88286 0.35112 0.8078 0.0
C466 C 0.88118 0.32837 0.78994 0.0
C467 C 0.90077 0.3236 0.77008 0.0
C468 C 0.9215 0.34077 0.76806 0.0
C469 C 0.92253 0.36286 0.7859 0.0
C470 C 0.90374 0.36826 0.80531 0.0
C471 C 0.90873 0.3946 0.82035 0.0
C472 C 0.88734 0.41452 0.8147 0.0
C473 C 0.91278 0.39017 0.85252 0.0
C474 C 0.93292 0.4034 0.8058 0.0
C475 C 0.9406 0.38451 0.78625 0.0
C476 C 0.96133 0.38862 0.76864 0.0
C477 C 0.97423 0.41293 0.77051 0.0
C478 C 0.96654 0.43279 0.78994 0.0
C479 C 0.94591 0.42783 0.80823 0.0
H480 H 0.27024 0.12337 0.34797 0.0
H481 H 0.19698 0.15864 0.36319 0.0
H482 H 0.19132 0.12936 0.40494 0.0
H483 H 0.25568 0.05638 0.37104 0.0
H484 H 0.28554 0.0515 0.38844 0.0
H485 H 0.2832 0.07381 0.35827 0.0
H486 H 0.30221 0.11217 0.38841 0.0
H487 H 0.30469 0.08996 0.41862 0.0
H488 H 0.28774 0.12088 0.42186 0.0
H489 H 0.1935 0.09614 0.44562 0.0
H490 H 0.20502 0.06415 0.48387 0.0
H491 H 0.2781 0.05362 0.44462 0.0
C492 C 0.25302 0.12519 0.36004 0.0
C493 C 0.23394 0.14326 0.35163 0.0
C494 C 0.21167 0.14453 0.36829 0.0
C495 C 0.2083 0.12808 0.39234 0.0
C496 C 0.22747 0.1106 0.39991 0.0
C497 C 0.24951 0.10926 0.38444 0.0
C498 C 0.26774 0.08977 0.39799 0.0
C499 C 0.27336 0.06649 0.37772 0.0
C500 C 0.29203 0.10405 0.40727 0.0
C501 C 0.25254 0.08048 0.42356 0.0
C502 C 0.22922 0.09245 0.42409 0.0
C503 C 0.21175 0.08672 0.44548 0.0
C504 C 0.21842 0.06848 0.46707 0.0
C505 C 0.24248 0.05652 0.46733 0.0
C506 C 0.25963 0.0626 0.44515 0.0
H507 H 0.38681 0.72456 0.84752 0.0
H508 H 0.34429 0.65558 0.87734 0.0
H509 H 0.37944 0.64323 0.90886 0.0
H510 H 0.44997 0.69628 0.8529 0.0
H511 H 0.46321 0.72696 0.86627 0.0
H512 H 0.43661 0.72788 0.84246 0.0
H513 H 0.41154 0.75538 0.87947 0.0
H514 H 0.4381 0.75474 0.90318 0.0
H515 H 0.40799 0.74262 0.91531 0.0
H516 H 0.41836 0.64034 0.94043 0.0
H517 H 0.45467 0.65013 0.97204 0.0
H518 H 0.46911 0.72299 0.92443 0.0
C519 C 0.38468 0.7068 0.86056 0.0
C520 C 0.36253 0.69106 0.85952 0.0
C521 C 0.36111 0.66778 0.87693 0.0
C522 C 0.38102 0.6606 0.89512 0.0
C523 C 0.40229 0.67691 0.89592 0.0
C524 C 0.40408 0.69967 0.87922 0.0
C525 C 0.42755 0.71552 0.88619 0.0
C526 C 0.44539 0.71672 0.86042 0.0
C527 C 0.42088 0.74372 0.89667 0.0
C528 C 0.43836 0.69854 0.90998 0.0
C529 C 0.42394 0.67596 0.91486 0.0
C530 C 0.42989 0.65785 0.93661 0.0
C531 C 0.4506 0.66344 0.95434 0.0
C532 C 0.46467 0.68721 0.95053 0.0
C533 C 0.45874 0.70456 0.92766 0.0
H534 H 0.76911 0.87597 0.32565 0.0
H535 H 0.84605 0.8486 0.33572 0.0
H536 H 0.85455 0.88595 0.3682 0.0
H537 H 0.78079 0.94682 0.33047 0.0
H538 H 0.75311 0.95309 0.3515 0.0
H539 H 0.7535 0.92566 0.32675 0.0
H540 H 0.74179 0.89276 0.36756 0.0
H541 H 0.7411 0.9201 0.39233 0.0
H542 H 0.7609 0.8917 0.39935 0.0
H543 H 0.85465 0.92615 0.40072 0.0
H544 H 0.84486 0.96255 0.4344 0.0
H545 H 0.76717 0.9611 0.4063 0.0
C546 C 0.78775 0.87753 0.3347 0.0
C547 C 0.80694 0.85921 0.32743 0.0
C548 C 0.83109 0.86258 0.33993 0.0
C549 C 0.83613 0.88374 0.35868 0.0
C550 C 0.81681 0.90133 0.36521 0.0
C551 C 0.79301 0.89821 0.3539 0.0
C552 C 0.77506 0.91869 0.36594 0.0
C553 C 0.76503 0.93716 0.34225 0.0
C554 C 0.75344 0.90499 0.38227 0.0
C555 C 0.79243 0.93365 0.38599 0.0
C556 C 0.81655 0.92365 0.3849 0.0
C557 C 0.83581 0.93414 0.40173 0.0
C558 C 0.83012 0.95493 0.42069 0.0
C559 C 0.80528 0.96471 0.423 0.0
C560 C 0.78636 0.95411 0.40503 0.0
H561 H 0.65405 0.22892 0.87198 0.0
H562 H 0.65371 0.30565 0.82851 0.0
H563 H 0.61326 0.31648 0.85122 0.0
H564 H 0.58568 0.2168 0.86891 0.0
H565 H 0.58454 0.20206 0.90408 0.0
H566 H 0.61258 0.19921 0.88277 0.0
H567 H 0.63882 0.22029 0.92351 0.0
H568 H 0.61091 0.22309 0.94495 0.0
H569 H 0.62979 0.25229 0.93758 0.0
H570 H 0.57478 0.32048 0.88051 0.0
H571 H 0.54099 0.3183 0.91631 0.0
H572 H 0.56501 0.23885 0.94129 0.0
C573 C 0.64522 0.24781 0.86694 0.0
C574 C 0.65704 0.26648 0.84846 0.0
C575 C 0.64514 0.29118 0.84278 0.0
C576 C 0.62205 0.29741 0.8554 0.0
C577 C 0.61101 0.27873 0.87367 0.0
C578 C 0.62215 0.25445 0.87954 0.0
C579 C 0.60693 0.23874 0.90141 0.0
C580 C 0.59683 0.21265 0.88851 0.0
C581 C 0.62255 0.23329 0.92846 0.0
C582 C 0.58578 0.25823 0.90725 0.0
C583 C 0.58848 0.28103 0.89074 0.0
C584 C 0.57229 0.30262 0.89332 0.0
C585 C 0.55316 0.30119 0.91375 0.0
C586 C 0.55023 0.27833 0.93138 0.0
C587 C 0.56646 0.25632 0.92766 0.0
H588 H 0.23423 0.84684 0.66525 0.0
H589 H 0.29614 0.87082 0.72009 0.0
H590 H 0.30208 0.91143 0.69113 0.0
H591 H 0.25989 0.86981 0.59993 0.0
H592 H 0.23066 0.88195 0.58551 0.0
H593 H 0.23056 0.85488 0.61095 0.0
H594 H 0.20057 0.88146 0.64364 0.0
H595 H 0.20051 0.90861 0.61823 0.0
H596 H 0.20928 0.91463 0.65482 0.0
H597 H 0.30368 0.94757 0.6545 0.0
H598 H 0.29899 0.97875 0.6139 0.0
H599 H 0.23405 0.93408 0.58442 0.0
C600 C 0.24877 0.86081 0.67151 0.0
C601 C 0.26493 0.85524 0.69488 0.0
C602 C 0.28389 0.87409 0.70197 0.0
C603 C 0.28729 0.89742 0.68577 0.0
C604 C 0.27136 0.90202 0.66271 0.0
C605 C 0.25227 0.88446 0.65572 0.0
C606 C 0.23799 0.8942 0.62958 0.0
C607 C 0.2399 0.87401 0.60504 0.0
C608 C 0.21045 0.90008 0.63702 0.0
C609 C 0.25234 0.91972 0.62275 0.0
C610 C 0.27158 0.92371 0.64214 0.0
C611 C 0.28845 0.9449 0.63943 0.0
C612 C 0.28569 0.96245 0.61626 0.0
C613 C 0.26601 0.95899 0.59626 0.0
C614 C 0.24895 0.93749 0.59975 0.0
H615 H 0.66794 0.70282 0.14093 0.0
H616 H 0.65303 0.78203 0.17434 0.0
H617 H 0.61263 0.78262 0.14908 0.0
H618 H 0.64344 0.71599 0.07126 0.0
H619 H 0.63016 0.68313 0.06656 0.0
H620 H 0.65718 0.68765 0.0892 0.0
H621 H 0.63329 0.66523 0.13115 0.0
H622 H 0.60614 0.66073 0.10865 0.0
H623 H 0.60328 0.67827 0.14199 0.0
H624 H 0.57507 0.7762 0.11892 0.0
H625 H 0.54283 0.76386 0.08381 0.0
H626 H 0.58158 0.68928 0.06763 0.0
C627 C 0.65622 0.72031 0.14299 0.0
C628 C 0.66373 0.74223 0.16015 0.0
C629 C 0.64761 0.76463 0.16214 0.0
C630 C 0.6246 0.76527 0.14767 0.0
C631 C 0.61785 0.74343 0.13105 0.0
C632 C 0.63314 0.72139 0.12845 0.0
C633 C 0.62178 0.70123 0.10794 0.0
C634 C 0.63918 0.69675 0.08222 0.0
C635 C 0.61577 0.6748 0.12336 0.0
C636 C 0.5979 0.71562 0.09915 0.0
C637 C 0.59604 0.73983 0.11302 0.0
C638 C 0.57624 0.75725 0.108 0.0
C639 C 0.55802 0.75003 0.08792 0.0
C640 C 0.5596 0.72558 0.0729 0.0
C641 C 0.57968 0.70796 0.07896 0.0
H642 H 0.80475 0.15457 0.6461 0.0
H643 H 0.75814 0.10738 0.7035 0.0
H644 H 0.75751 0.07079 0.66864 0.0
H645 H 0.77538 0.13496 0.58193 0.0
H646 H 0.80382 0.1334 0.56115 0.0
H647 H 0.80199 0.15558 0.5912 0.0
H648 H 0.8415 0.13363 0.6133 0.0
H649 H 0.84349 0.11139 0.58325 0.0
H650 H 0.842 0.09801 0.61902 0.0
H651 H 0.75867 0.04103 0.62668 0.0
H652 H 0.76298 0.01867 0.58019 0.0
H653 H 0.81097 0.08309 0.55003 0.0
C654 C 0.7948 0.13636 0.65156 0.0
C655 C 0.78129 0.13403 0.67754 0.0
C656 C 0.76822 0.10994 0.6836 0.0
C657 C 0.76792 0.08891 0.66402 0.0
C658 C 0.78103 0.09203 0.63851 0.0
C659 C 0.79442 0.11499 0.63224 0.0
C660 C 0.80619 0.11335 0.60274 0.0
C661 C 0.79624 0.13565 0.5831 0.0
C662 C 0.83501 0.11414 0.60471 0.0
C663 C 0.79688 0.08608 0.59326 0.0
C664 C 0.78241 0.07422 0.61434 0.0
C665 C 0.77027 0.04988 0.61017 0.0
C666 C 0.77277 0.03739 0.58368 0.0
C667 C 0.78751 0.04902 0.56173 0.0
C668 C 0.80004 0.07352 0.56671 0.0
H669 H 0.35511 0.22528 0.12765 0.0
H670 H 0.36914 0.29257 0.18348 0.0
H671 H 0.40807 0.30295 0.15711 0.0
H672 H 0.42164 0.20606 0.11744 0.0
H673 H 0.41728 0.19792 0.08032 0.0
H674 H 0.39161 0.19399 0.10509 0.0
H675 H 0.36391 0.22446 0.07334 0.0
H676 H 0.38947 0.22849 0.04852 0.0
H677 H 0.37498 0.25746 0.06405 0.0
H678 H 0.44331 0.3082 0.12358 0.0
H679 H 0.47315 0.30893 0.08362 0.0
H680 H 0.43741 0.23846 0.04795 0.0
C681 C 0.36668 0.24188 0.13454 0.0
C682 C 0.35919 0.25814 0.15764 0.0
C683 C 0.3745 0.27999 0.16578 0.0
C684 C 0.3967 0.28594 0.15103 0.0
C685 C 0.40339 0.26986 0.12812 0.0
C686 C 0.38893 0.24829 0.11979 0.0
C687 C 0.39979 0.23545 0.09316 0.0
C688 C 0.40807 0.20664 0.09938 0.0
C689 C 0.38091 0.23654 0.0683 0.0
C690 C 0.4223 0.25354 0.08761 0.0
C691 C 0.42402 0.27305 0.1083 0.0
C692 C 0.44232 0.29291 0.10737 0.0
C693 C 0.45915 0.29318 0.08447 0.0
C694 C 0.45769 0.27373 0.06264 0.0
C695 C 0.43922 0.25335 0.06451 0.0
H696 H 0.84025 0.62779 0.71702 0.0
H697 H 0.82808 0.63553 0.80832 0.0
H698 H 0.86175 0.60303 0.81742 0.0
H699 H 0.85554 0.55703 0.71708 0.0
H700 H 0.87958 0.56057 0.69023 0.0
H701 H 0.85332 0.58316 0.69058 0.0
H702 H 0.88394 0.62345 0.69283 0.0
H703 H 0.91028 0.60101 0.69248 0.0
H704 H 0.90709 0.62488 0.72091 0.0
H705 H 0.89779 0.57164 0.81703 0.0
H706 H 0.93429 0.54319 0.80735 0.0
H707 H 0.9244 0.55617 0.71624 0.0
C708 C 0.84463 0.62268 0.73895 0.0
C709 C 0.83125 0.63416 0.76194 0.0
C710 C 0.83756 0.62667 0.79028 0.0
C711 C 0.85682 0.60833 0.7957 0.0
C712 C 0.86968 0.59762 0.7726 0.0
C713 C 0.8639 0.60446 0.74478 0.0
C714 C 0.88132 0.59068 0.72391 0.0
C715 C 0.86655 0.57173 0.70429 0.0
C716 C 0.89656 0.61123 0.70651 0.0
C717 C 0.89798 0.57528 0.74441 0.0
C718 C 0.89079 0.57952 0.77237 0.0
C719 C 0.90354 0.56805 0.79524 0.0
C720 C 0.92432 0.55193 0.78946 0.0
C721 C 0.93228 0.54737 0.76101 0.0
C722 C 0.91874 0.55911 0.7382 0.0
H723 H 0.8544 0.3951 0.30699 0.0
H724 H 0.8603 0.35526 0.22526 0.0
H725 H 0.90068 0.37807 0.21622 0.0
H726 H 0.8782 0.45769 0.28324 0.0
H727 H 0.89531 0.46509 0.31549 0.0
H728 H 0.86784 0.44403 0.31694 0.0
H729 H 0.89383 0.40666 0.34124 0.0
H730 H 0.92141 0.42764 0.33991 0.0
H731 H 0.92203 0.39485 0.32425 0.0
H732 H 0.93867 0.40632 0.21454 0.0
H733 H 0.97252 0.43941 0.21968 0.0
H734 H 0.94284 0.46232 0.30238 0.0
C735 C 0.86447 0.39094 0.28744 0.0
C736 C 0.8543 0.37344 0.26677 0.0
C737 C 0.86772 0.36874 0.24123 0.0
C738 C 0.89071 0.38148 0.23598 0.0
C739 C 0.90006 0.39892 0.25649 0.0
C740 C 0.88746 0.40375 0.28172 0.0
C741 C 0.9012 0.42462 0.29933 0.0
C742 C 0.88465 0.44932 0.30402 0.0
C743 C 0.91015 0.41273 0.32788 0.0
C744 C 0.92323 0.43098 0.27982 0.0
C745 C 0.92219 0.41568 0.25538 0.0
C746 C 0.93982 0.41832 0.23365 0.0
C747 C 0.95896 0.43728 0.23678 0.0
C748 C 0.96041 0.45353 0.26144 0.0
C749 C 0.94238 0.45008 0.28339 0.0
H750 H 0.16382 0.41315 0.74679 0.0
H751 H 0.14333 0.35958 0.67775 0.0
H752 H 0.10459 0.38521 0.66983 0.0
H753 H 0.1024 0.41627 0.77576 0.0
H754 H 0.10531 0.45064 0.7866 0.0
H755 H 0.13281 0.42998 0.78449 0.0
H756 H 0.1535 0.46436 0.75013 0.0
H757 H 0.12592 0.48502 0.75196 0.0
H758 H 0.13736 0.47393 0.71783 0.0
H759 H 0.0669 0.41626 0.67038 0.0
H760 H 0.03206 0.4468 0.68294 0.0
H761 H 0.07583 0.47671 0.75414 0.0
C762 C 0.15126 0.40655 0.73005 0.0
C763 C 0.15709 0.38433 0.71275 0.0
C764 C 0.13993 0.37689 0.6909 0.0
C765 C 0.11768 0.39126 0.68629 0.0
C766 C 0.11258 0.41292 0.70385 0.0
C767 C 0.12878 0.4203 0.72552 0.0
C768 C 0.1181 0.44294 0.74294 0.0
C769 C 0.11443 0.43444 0.77429 0.0
C770 C 0.13471 0.46805 0.74056 0.0
C771 C 0.09319 0.44689 0.72795 0.0
C772 C 0.0905 0.4298 0.70509 0.0
C773 C 0.06883 0.42975 0.68823 0.0
C774 C 0.04921 0.44722 0.6954 0.0
C775 C 0.0513 0.46399 0.7195 0.0
C776 C 0.07373 0.46402 0.73562 0.0
H777 H 0.1617 0.63989 0.25219 0.0
H778 H 0.13504 0.68802 0.32284 0.0
H779 H 0.1004 0.65605 0.33069 0.0
H780 H 0.10025 0.62472 0.22456 0.0
H781 H 0.10872 0.59149 0.21366 0.0
H782 H 0.13222 0.61744 0.21469 0.0
H783 H 0.15953 0.58815 0.24821 0.0
H784 H 0.13602 0.56219 0.24745 0.0
H785 H 0.14631 0.57565 0.28112 0.0
H786 H 0.06853 0.61829 0.33109 0.0
H787 H 0.04034 0.57992 0.32136 0.0
H788 H 0.08626 0.55879 0.24844 0.0
C789 C 0.14851 0.64402 0.26915 0.0
C790 C 0.15146 0.66653 0.28702 0.0
C791 C 0.13374 0.67068 0.3092 0.0
C792 C 0.11382 0.65269 0.31376 0.0
C793 C 0.11161 0.63073 0.2958 0.0
C794 C 0.12832 0.62652 0.27374 0.0
C795 C 0.12126 0.60196 0.25676 0.0
C796 C 0.11525 0.60935 0.22557 0.0
C797 C 0.14202 0.58074 0.2585 0.0
C798 C 0.09792 0.59305 0.27266 0.0
C799 C 0.0928 0.60969 0.29533 0.0
C800 C 0.07231 0.60519 0.31331 0.0
C801 C 0.05647 0.5833 0.30771 0.0
C802 C 0.06104 0.56645 0.2841 0.0
C803 C 0.08216 0.57141 0.26655 0.0
H804 H 0.72016 0.84484 0.62217 0.0
H805 H 0.79879 0.82221 0.62632 0.0
H806 H 0.8091 0.8569 0.59078 0.0
H807 H 0.71869 0.8612 0.5461 0.0
H808 H 0.69821 0.8894 0.55077 0.0
H809 H 0.69648 0.86148 0.57513 0.0
H810 H 0.70381 0.89335 0.61778 0.0
H811 H 0.70556 0.92134 0.59357 0.0
H812 H 0.73108 0.91483 0.61791 0.0
H813 H 0.8116 0.89528 0.55744 0.0
H814 H 0.80621 0.93536 0.52759 0.0
H815 H 0.72602 0.93419 0.54482 0.0
C816 C 0.73954 0.84712 0.61554 0.0
C817 C 0.75863 0.83056 0.62689 0.0
C818 C 0.78373 0.83419 0.61754 0.0
C819 C 0.78983 0.85396 0.59746 0.0
C820 C 0.77063 0.87 0.5869 0.0
C821 C 0.74599 0.86684 0.5955 0.0
C822 C 0.72916 0.8875 0.58151 0.0
C823 C 0.70947 0.87409 0.56223 0.0
C824 C 0.71667 0.90531 0.60404 0.0
C825 C 0.74832 0.903 0.56405 0.0
C826 C 0.77208 0.89241 0.56746 0.0
C827 C 0.79308 0.90367 0.55442 0.0
C828 C 0.7898 0.92651 0.53757 0.0
C829 C 0.76568 0.93792 0.53383 0.0
C830 C 0.74464 0.92579 0.54706 0.0
H831 H 0.63868 0.34176 0.16086 0.0
H832 H 0.66978 0.2631 0.14614 0.0
H833 H 0.64274 0.25794 0.10375 0.0
H834 H 0.57623 0.32486 0.14334 0.0
H835 H 0.56878 0.35601 0.12591 0.0
H836 H 0.59243 0.35509 0.15338 0.0
H837 H 0.62474 0.37619 0.11854 0.0
H838 H 0.60114 0.37726 0.09094 0.0
H839 H 0.63052 0.36054 0.08461 0.0
H840 H 0.61077 0.25935 0.06601 0.0
H841 H 0.57478 0.26696 0.03422 0.0
H842 H 0.56311 0.34485 0.07224 0.0
C843 C 0.64005 0.32373 0.1483 0.0
C844 C 0.65628 0.3028 0.15662 0.0
C845 C 0.65735 0.27926 0.1401 0.0
C846 C 0.64219 0.27621 0.11595 0.0
C847 C 0.62604 0.29691 0.10857 0.0
C848 C 0.62481 0.32025 0.12411 0.0
C849 C 0.60448 0.33851 0.11241 0.0
C850 C 0.58429 0.34392 0.13511 0.0
C851 C 0.61591 0.36468 0.10094 0.0
C852 C 0.59418 0.32147 0.08832 0.0
C853 C 0.60716 0.29769 0.08646 0.0
C854 C 0.60059 0.27798 0.06702 0.0
C855 C 0.58001 0.28247 0.04914 0.0
C856 C 0.56612 0.3065 0.05073 0.0
C857 C 0.57356 0.32645 0.07033 0.0
H858 H 0.25966 0.188 0.63213 0.0
H859 H 0.33105 0.18377 0.67717 0.0
H860 H 0.3408 0.14205 0.65226 0.0
H861 H 0.24654 0.11721 0.63782 0.0
H862 H 0.23152 0.11557 0.60337 0.0
H863 H 0.23063 0.14606 0.62356 0.0
H864 H 0.25014 0.17174 0.58076 0.0
H865 H 0.25118 0.14131 0.56048 0.0
H866 H 0.27947 0.16055 0.56588 0.0
H867 H 0.34359 0.10139 0.62127 0.0
H868 H 0.33737 0.06257 0.58955 0.0
H869 H 0.26248 0.09056 0.56889 0.0
C870 C 0.27725 0.17829 0.63715 0.0
C871 C 0.29469 0.18975 0.65645 0.0
C872 C 0.31759 0.17616 0.66188 0.0
C873 C 0.32326 0.15219 0.64802 0.0
C874 C 0.3057 0.14164 0.62914 0.0
C875 C 0.283 0.15403 0.624 0.0
C876 C 0.26698 0.13792 0.60354 0.0
C877 C 0.24247 0.12864 0.61794 0.0
C878 C 0.26164 0.15384 0.57604 0.0
C879 C 0.2843 0.11462 0.59788 0.0
C880 C 0.30668 0.11734 0.61258 0.0
C881 C 0.32605 0.09889 0.60988 0.0
C882 C 0.3224 0.07699 0.59177 0.0
C883 C 0.29939 0.07351 0.57705 0.0
C884 C 0.28012 0.09256 0.58025 0.0
H885 H 0.35246 0.77795 0.14411 0.0
H886 H 0.33891 0.69295 0.15532 0.0
H887 H 0.37283 0.68326 0.12125 0.0
H888 H 0.3683 0.77548 0.06806 0.0
H889 H 0.39248 0.80063 0.07094 0.0
H890 H 0.36594 0.80114 0.09478 0.0
H891 H 0.39611 0.80039 0.13819 0.0
H892 H 0.42273 0.79975 0.11452 0.0
H893 H 0.41897 0.77407 0.1413 0.0
H894 H 0.40962 0.68239 0.08909 0.0
H895 H 0.44639 0.69015 0.05855 0.0
H896 H 0.43699 0.77587 0.06736 0.0
C897 C 0.35654 0.7573 0.13928 0.0
C898 C 0.34285 0.7362 0.15231 0.0
C899 C 0.34874 0.70947 0.14526 0.0
C900 C 0.36811 0.70375 0.12607 0.0
C901 C 0.38141 0.72496 0.11398 0.0
C902 C 0.37584 0.75121 0.12008 0.0
C903 C 0.39361 0.77017 0.10461 0.0
C904 C 0.37922 0.7879 0.08333 0.0
C905 C 0.40875 0.78709 0.12593 0.0
C906 C 0.41029 0.7504 0.08925 0.0
C907 C 0.4028 0.72446 0.09503 0.0
C908 C 0.41557 0.7026 0.08422 0.0
C909 C 0.43656 0.70728 0.06697 0.0
C910 C 0.44466 0.73365 0.06051 0.0
C911 C 0.43121 0.75551 0.07176 0.0
H912 H 0.7672 0.17759 0.3705 0.0
H913 H 0.68671 0.19022 0.37618 0.0
H914 H 0.68228 0.14824 0.40354 0.0
H915 H 0.76524 0.10721 0.36214 0.0
H916 H 0.79258 0.10095 0.38387 0.0
H917 H 0.78957 0.13221 0.36504 0.0
H918 H 0.79496 0.15802 0.41249 0.0
H919 H 0.79823 0.12683 0.43143 0.0
H920 H 0.77457 0.15037 0.44217 0.0
H921 H 0.68643 0.1039 0.42897 0.0
H922 H 0.69936 0.06215 0.4532 0.0
H923 H 0.77719 0.07955 0.43225 0.0
C924 C 0.74868 0.17181 0.37786 0.0
C925 C 0.72729 0.18721 0.37096 0.0
C926 C 0.70335 0.17859 0.38073 0.0
C927 C 0.70063 0.15481 0.39641 0.0
C928 C 0.72204 0.13991 0.40239 0.0
C929 C 0.74563 0.14821 0.39367 0.0
C930 C 0.76563 0.12855 0.40293 0.0
C931 C 0.77904 0.11652 0.37694 0.0
C932 C 0.78445 0.14173 0.42348 0.0
C933 C 0.74958 0.10788 0.41811 0.0
C934 C 0.72448 0.1147 0.41746 0.0
C935 C 0.70606 0.09842 0.42975 0.0
C936 C 0.71357 0.0747 0.44336 0.0
C937 C 0.73928 0.06759 0.4447 0.0
C938 C 0.7574 0.08443 0.43172 0.0
H939 H 0.36396 0.29702 0.85602 0.0
H940 H 0.35526 0.38251 0.84466 0.0
H941 H 0.38712 0.39036 0.88233 0.0
H942 H 0.37355 0.29754 0.93265 0.0
H943 H 0.39639 0.2711 0.93154 0.0
H944 H 0.37188 0.27262 0.90506 0.0
H945 H 0.40537 0.27256 0.86488 0.0
H946 H 0.42997 0.27109 0.89122 0.0
H947 H 0.42987 0.29754 0.86497 0.0
H948 H 0.42215 0.38834 0.91994 0.0
H949 H 0.45606 0.37661 0.95405 0.0
H950 H 0.44119 0.2925 0.9393 0.0
C951 C 0.36872 0.31743 0.86139 0.0
C952 C 0.35718 0.33916 0.84728 0.0
C953 C 0.36369 0.36554 0.85535 0.0
C954 C 0.38185 0.37019 0.87663 0.0
C955 C 0.39317 0.34823 0.88974 0.0
C956 C 0.3867 0.32238 0.88246 0.0
C957 C 0.40194 0.30214 0.89901 0.0
C958 C 0.38492 0.28484 0.9182 0.0
C959 C 0.41772 0.28482 0.87881 0.0
C960 C 0.41833 0.32057 0.9165 0.0
C961 C 0.41301 0.34709 0.91107 0.0
C962 C 0.42632 0.36762 0.92445 0.0
C963 C 0.44556 0.36078 0.94377 0.0
C964 C 0.45132 0.33365 0.94942 0.0
C965 C 0.43731 0.31345 0.9356 0.0
H966 H 0.25829 0.84903 0.39917 0.0
H967 H 0.3233 0.86672 0.34607 0.0
H968 H 0.33527 0.90297 0.37857 0.0
H969 H 0.24291 0.91749 0.41154 0.0
H970 H 0.23218 0.91168 0.44754 0.0
H971 H 0.22986 0.88549 0.42148 0.0
H972 H 0.25529 0.85409 0.45474 0.0
H973 H 0.2578 0.88026 0.48086 0.0
H974 H 0.28576 0.86456 0.46738 0.0
H975 H 0.34017 0.93773 0.41663 0.0
H976 H 0.33548 0.97084 0.45519 0.0
H977 H 0.26544 0.93307 0.48082 0.0
C978 C 0.27497 0.86053 0.39413 0.0
C979 C 0.28998 0.8545 0.37009 0.0
C980 C 0.31179 0.87017 0.3647 0.0
C981 C 0.3187 0.89104 0.38296 0.0
C982 C 0.30348 0.89634 0.40636 0.0
C983 C 0.28191 0.88176 0.41181 0.0
C984 C 0.26803 0.89257 0.43745 0.0
C985 C 0.24169 0.90239 0.42899 0.0
C986 C 0.26665 0.87162 0.46153 0.0
C987 C 0.28511 0.9156 0.44545 0.0
C988 C 0.30565 0.91719 0.42751 0.0
C989 C 0.32413 0.93673 0.43079 0.0
C990 C 0.32136 0.95538 0.45279 0.0
C991 C 0.30007 0.95456 0.47089 0.0
C992 C 0.28185 0.93427 0.46721 0.0
H993 H 0.64115 0.72278 0.85957 0.0
H994 H 0.64736 0.80783 0.84248 0.0
H995 H 0.61373 0.81638 0.87759 0.0
H996 H 0.57478 0.72029 0.8683 0.0
H997 H 0.57577 0.69597 0.89678 0.0
H998 H 0.60025 0.69673 0.87028 0.0
H999 H 0.63381 0.70167 0.9101 0.0
H1000 H 0.60943 0.70079 0.93672 0.0
H1001 H 0.63116 0.72848 0.93544 0.0
H1002 H 0.57863 0.8153 0.91475 0.0
H1003 H 0.54628 0.80454 0.95117 0.0
H1004 H 0.56475 0.72048 0.94399 0.0
C1005 C 0.63573 0.74326 0.86341 0.0
C1006 C 0.64694 0.76461 0.84817 0.0
C1007 C 0.63884 0.79107 0.85357 0.0
C1008 C 0.61984 0.79616 0.8736 0.0
C1009 C 0.60915 0.77459 0.88814 0.0
C1010 C 0.61693 0.74869 0.88333 0.0
C1011 C 0.60256 0.72897 0.90167 0.0
C1012 C 0.58744 0.70934 0.88314 0.0
C1013 C 0.6203 0.71411 0.9222 0.0
C1014 C 0.58546 0.74778 0.91756 0.0
C1015 C 0.5894 0.77402 0.9095 0.0
C1016 C 0.57546 0.7948 0.92127 0.0
C1017 C 0.55711 0.78852 0.94189 0.0
C1018 C 0.55301 0.76171 0.95054 0.0
C1019 C 0.56743 0.74123 0.93804 0.0
loop_
_geom_bond_atom_site_label_1
_geom_bond_atom_site_label_2
_geom_bond_distance
_geom_bond_site_symmetry_2
_ccdc_geom_bond_type
C0 C1 1.384 . S
C0 H13 0.947 . S
C0 C35 1.382 . S
C1 C0 1.384 . S
C1 C2 1.378 . S
C2 C1 1.378 . S
C2 C3 1.378 . S
C2 H14 0.952 . S
C3 C2 1.378 . S
C3 H15 0.950 . S
C3 C34 1.383 . S
H4 C23 0.947 . S
H5 C24 0.946 . S
H6 C26 0.953 . S
H7 C27 0.945 . S
H8 C29 0.952 . S
H9 C30 0.949 . S
H10 C32 0.950 . S
H11 C33 0.948 . S
H12 C35 0.951 . S
H13 C0 0.947 . S
H14 C2 0.952 . S
H15 C3 0.950 . S
N16 C19 1.382 . S
N16 C21 1.363 . S
N17 C19 1.371 . S
N17 C20 1.372 . S
N18 C20 1.361 . S
N18 C21 1.377 . S
C19 N16 1.382 . S
C19 N17 1.371 . S
C19 C22 1.480 . S
C20 N17 1.372 . S
C20 N18 1.361 . S
C20 C28 1.457 . S
C21 N16 1.363 . S
C21 N18 1.377 . S
C21 C34 1.479 . S
C22 C19 1.480 . S
C22 C23 1.383 . S
C22 C27 1.385 . S
C23 H4 0.947 . S
C23 C22 1.383 . S
C23 C24 1.388 . S
C24 H5 0.946 . S
C24 C23 1.388 . S
C24 C25 1.384 . S
C25 C24 1.384 . S
C25 C26 1.377 . S
C26 H6 0.953 . S
C26 C25 1.377 . S
C26 C27 1.369 . S
C27 H7 0.945 . S
C27 C22 1.385 . S
C27 C26 1.369 . S
C28 C20 1.457 . S
C28 C29 1.372 . S
C28 C33 1.364 . S
C29 H8 0.952 . S
C29 C28 1.372 . S
C29 C30 1.389 . S
C30 H9 0.949 . S
C30 C29 1.389 . S
C30 C31 1.387 . S
C31 C30 1.387 . S
C31 C32 1.372 . S
C32 H10 0.950 . S
C32 C31 1.372 . S
C32 C33 1.379 . S
C33 H11 0.948 . S
C33 C28 1.364 . S
C33 C32 1.379 . S
C34 C3 1.383 . S
C34 C21 1.479 . S
C34 C35 1.398 . S
C35 C0 1.382 . S
C35 H12 0.951 . S
C35 C34 1.398 . S
C36 C37 1.384 . S
C36 H49 0.947 . S
C36 C71 1.382 . S
C37 C36 1.384 . S
C37 C38 1.378 . S
C38 C37 1.378 . S
C38 C39 1.378 . S
C38 H50 0.952 . S
C39 C38 1.378 . S
C39 H51 0.950 . S
C39 C70 1.383 . S
H40 C59 0.947 . S
H41 C60 0.946 . S
H42 C62 0.953 . S
H43 C63 0.945 . S
H44 C65 0.952 . S
H45 C66 0.949 . S
H46 C68 0.950 . S
H47 C69 0.948 . S
H48 C71 0.951 . S
H49 C36 0.947 . S
H50 C38 0.952 . S
H51 C39 0.950 . S
N52 C55 1.382 . S
N52 C57 1.363 . S
N53 C55 1.371 . S
N53 C56 1.372 . S
N54 C56 1.361 . S
N54 C57 1.377 . S
C55 N52 1.382 . S
C55 N53 1.371 . S
C55 C58 1.480 . S
C56 N53 1.372 . S
C56 N54 1.361 . S
C56 C64 1.457 . S
C57 N52 1.363 . S
C57 N54 1.377 . S
C57 C70 1.479 . S
C58 C55 1.480 . S
C58 C59 1.383 . S
C58 C63 1.385 . S
C59 H40 0.947 . S
C59 C58 1.383 . S
C59 C60 1.388 . S
C60 H41 0.946 . S
C60 C59 1.388 . S
C60 C61 1.384 . S
C61 C60 1.384 . S
C61 C62 1.377 . S
C62 H42 0.953 . S
C62 C61 1.377 . S
C62 C63 1.369 . S
C63 H43 0.945 . S
C63 C58 1.385 . S
C63 C62 1.369 . S
C64 C56 1.457 . S
C64 C65 1.372 . S
C64 C69 1.364 . S
C65 H44 0.952 . S
C65 C64 1.372 . S
C65 C66 1.389 . S
C66 H45 0.949 . S
C66 C65 1.389 . S
C66 C67 1.387 . S
C67 C66 1.387 . S
C67 C68 1.372 . S
C68 H46 0.950 . S
C68 C67 1.372 . S
C68 C69 1.379 . S
C69 H47 0.948 . S
C69 C64 1.364 . S
C69 C68 1.379 . S
C70 C39 1.383 . S
C70 C57 1.479 . S
C70 C71 1.398 . S
C71 C36 1.382 . S
C71 H48 0.951 . S
C71 C70 1.398 . S
C72 C73 1.384 . S
C72 H85 0.947 . S
C72 C107 1.382 . S
C73 C72 1.384 . S
C73 C74 1.378 . S
C74 C73 1.378 . S
C74 C75 1.378 . S
C74 H86 0.952 . S
C75 C74 1.378 . S
C75 H87 0.950 . S
C75 C106 1.383 . S
H76 C95 0.947 . S
H77 C96 0.946 . S
H78 C98 0.953 . S
H79 C99 0.945 . S
H80 C101 0.952 . S
H81 C102 0.949 . S
H82 C104 0.950 . S
H83 C105 0.948 . S
H84 C107 0.951 . S
H85 C72 0.947 . S
H86 C74 0.952 . S
H87 C75 0.950 . S
N88 C91 1.382 . S
N88 C93 1.363 . S
N89 C91 1.371 . S
N89 C92 1.372 . S
N90 C92 1.361 . S
N90 C93 1.377 . S
C91 N88 1.382 . S
C91 N89 1.371 . S
C91 C94 1.480 . S
C92 N89 1.372 . S
C92 N90 1.361 . S
C92 C100 1.457 . S
C93 N88 1.363 . S
C93 N90 1.377 . S
C93 C106 1.479 . S
C94 C91 1.480 . S
C94 C95 1.383 . S
C94 C99 1.385 . S
C95 H76 0.947 . S
C95 C94 1.383 . S
C95 C96 1.388 . S
C96 H77 0.946 . S
C96 C95 1.388 . S
C96 C97 1.384 . S
C97 C96 1.384 . S
C97 C98 1.377 . S
C98 H78 0.953 . S
C98 C97 1.377 . S
C98 C99 1.369 . S
C99 H79 0.945 . S
C99 C94 1.385 . S
C99 C98 1.369 . S
C100 C92 1.457 . S
C100 C101 1.372 . S
C100 C105 1.364 . S
C101 H80 0.952 . S
C101 C100 1.372 . S
C101 C102 1.389 . S
C102 H81 0.949 . S
C102 C101 1.389 . S
C102 C103 1.387 . S
C103 C102 1.387 . S
C103 C104 1.372 . S
C104 H82 0.950 . S
C104 C103 1.372 . S
C104 C105 1.379 . S
C105 H83 0.948 . S
C105 C100 1.364 . S
C105 C104 1.379 . S
C106 C75 1.383 . S
C106 C93 1.479 . S
C106 C107 1.398 . S
C107 C72 1.382 . S
C107 H84 0.951 . S
C107 C106 1.398 . S
C108 C109 1.384 . S
C108 H121 0.947 . S
C108 C143 1.382 . S
C109 C108 1.384 . S
C109 C110 1.378 . S
C110 C109 1.378 . S
C110 C111 1.378 . S
C110 H122 0.952 . S
C111 C110 1.378 . S
C111 H123 0.950 . S
C111 C142 1.383 . S
H112 C131 0.947 . S
H113 C132 0.946 . S
H114 C134 0.953 . S
H115 C135 0.945 . S
H116 C137 0.952 . S
H117 C138 0.949 . S
H118 C140 0.950 . S
H119 C141 0.948 . S
H120 C143 0.951 . S
H121 C108 0.947 . S
H122 C110 0.952 . S
H123 C111 0.950 . S
N124 C127 1.382 . S
N124 C129 1.363 . S
N125 C127 1.371 . S
N125 C128 1.372 . S
N126 C128 1.361 . S
N126 C129 1.377 . S
C127 N124 1.382 . S
C127 N125 1.371 . S
C127 C130 1.480 . S
C128 N125 1.372 . S
C128 N126 1.361 . S
C128 C136 1.457 . S
C129 N124 1.363 . S
C129 N126 1.377 . S
C129 C142 1.479 . S
C130 C127 1.480 . S
C130 C131 1.383 . S
C130 C135 1.385 . S
C131 H112 0.947 . S
C131 C130 1.383 . S
C131 C132 1.388 . S
C132 H113 0.946 . S
C132 C131 1.388 . S
C132 C133 1.384 . S
C133 C132 1.384 . S
C133 C134 1.377 . S
C134 H114 0.953 . S
C134 C133 1.377 . S
C134 C135 1.369 . S
C135 H115 0.945 . S
C135 C130 1.385 . S
C135 C134 1.369 . S
C136 C128 1.457 . S
C136 C137 1.372 . S
C136 C141 1.364 . S
C137 H116 0.952 . S
C137 C136 1.372 . S
C137 C138 1.389 . S
C138 H117 0.949 . S
C138 C137 1.389 . S
C138 C139 1.387 . S
C139 C138 1.387 . S
C139 C140 1.372 . S
C140 H118 0.950 . S
C140 C139 1.372 . S
C140 C141 1.379 . S
C141 H119 0.948 . S
C141 C136 1.364 . S
C141 C140 1.379 . S
C142 C111 1.383 . S
C142 C129 1.479 . S
C142 C143 1.398 . S
C143 C108 1.382 . S
C143 H120 0.951 . S
C143 C142 1.398 . S
C144 C145 1.384 . S
C144 H157 0.947 . S
C144 C179 1.382 . S
C145 C144 1.384 . S
C145 C146 1.378 . S
C146 C145 1.378 . S
C146 C147 1.378 . S
C146 H158 0.952 . S
C147 C146 1.378 . S
C147 H159 0.950 . S
C147 C178 1.383 . S
H148 C167 0.947 . S
H149 C168 0.946 . S
H150 C170 0.953 . S
H151 C171 0.945 . S
H152 C173 0.952 . S
H153 C174 0.949 . S
H154 C176 0.950 . S
H155 C177 0.948 . S
H156 C179 0.951 . S
H157 C144 0.947 . S
H158 C146 0.952 . S
H159 C147 0.950 . S
N160 C163 1.382 . S
N160 C165 1.363 . S
N161 C163 1.371 . S
N161 C164 1.372 . S
N162 C164 1.361 . S
N162 C165 1.377 . S
C163 N160 1.382 . S
C163 N161 1.371 . S
C163 C166 1.480 . S
C164 N161 1.372 . S
C164 N162 1.361 . S
C164 C172 1.457 . S
C165 N160 1.363 . S
C165 N162 1.377 . S
C165 C178 1.479 . S
C166 C163 1.480 . S
C166 C167 1.383 . S
C166 C171 1.385 . S
C167 H148 0.947 . S
C167 C166 1.383 . S
C167 C168 1.388 . S
C168 H149 0.946 . S
C168 C167 1.388 . S
C168 C169 1.384 . S
C169 C168 1.384 . S
C169 C170 1.377 . S
C170 H150 0.953 . S
C170 C169 1.377 . S
C170 C171 1.369 . S
C171 H151 0.945 . S
C171 C166 1.385 . S
C171 C170 1.369 . S
C172 C164 1.457 . S
C172 C173 1.372 . S
C172 C177 1.364 . S
C173 H152 0.952 . S
C173 C172 1.372 . S
C173 C174 1.389 . S
C174 H153 0.949 . S
C174 C173 1.389 . S
C174 C175 1.387 . S
C175 C174 1.387 . S
C175 C176 1.372 . S
C176 H154 0.950 . S
C176 C175 1.372 . S
C176 C177 1.379 . S
C177 H155 0.948 . S
C177 C172 1.364 . S
C177 C176 1.379 . S
C178 C147 1.383 . S
C178 C165 1.479 . S
C178 C179 1.398 . S
C179 C144 1.382 . S
C179 H156 0.951 . S
C179 C178 1.398 . S
C180 C181 1.384 . S
C180 H193 0.947 . S
C180 C215 1.382 . S
C181 C180 1.384 . S
C181 C182 1.378 . S
C182 C181 1.378 . S
C182 C183 1.378 . S
C182 H194 0.952 . S
C183 C182 1.378 . S
C183 H195 0.950 . S
C183 C214 1.383 . S
H184 C203 0.947 . S
H185 C204 0.946 . S
H186 C206 0.953 . S
H187 C207 0.945 . S
H188 C209 0.952 . S
H189 C210 0.949 . S
H190 C212 0.950 . S
H191 C213 0.948 . S
H192 C215 0.951 . S
H193 C180 0.947 . S
H194 C182 0.952 . S
H195 C183 0.950 . S
N196 C199 1.382 . S
N196 C201 1.363 . S
N197 C199 1.371 . S
N197 C200 1.372 . S
N198 C200 1.361 . S
N198 C201 1.377 . S
C199 N196 1.382 . S
C199 N197 1.371 . S
C199 C202 1.480 . S
C200 N197 1.372 . S
C200 N198 1.361 . S
C200 C208 1.457 . S
C201 N196 1.363 . S
C201 N198 1.377 . S
C201 C214 1.479 . S
C202 C199 1.480 . S
C202 C203 1.383 . S
C202 C207 1.385 . S
C203 H184 0.947 . S
C203 C202 1.383 . S
C203 C204 1.388 . S
C204 H185 0.946 . S
C204 C203 1.388 . S
C204 C205 1.384 . S
C205 C204 1.384 . S
C205 C206 1.377 . S
C206 H186 0.953 . S
C206 C205 1.377 . S
C206 C207 1.369 . S
C207 H187 0.945 . S
C207 C202 1.385 . S
C207 C206 1.369 . S
C208 C200 1.457 . S
C208 C209 1.372 . S
C208 C213 1.364 . S
C209 H188 0.952 . S
C209 C208 1.372 . S
C209 C210 1.389 . S
C210 H189 0.949 . S
C210 C209 1.389 . S
C210 C211 1.387 . S
C211 C210 1.387 . S
C211 C212 1.372 . S
C212 H190 0.950 . S
C212 C211 1.372 . S
C212 C213 1.379 . S
C213 H191 0.948 . S
C213 C208 1.364 . S
C213 C212 1.379 . S
C214 C183 1.383 . S
C214 C201 1.479 . S
C214 C215 1.398 . S
C215 C180 1.382 . S
C215 H192 0.951 . S
C215 C214 1.398 . S
C216 C217 1.384 . S
C216 H229 0.947 . S
C216 C251 1.382 . S
C217 C216 1.384 . S
C217 C218 1.378 . S
C218 C217 1.378 . S
C218 C219 1.378 . S
C218 H230 0.952 . S
C219 C218 1.378 . S
C219 H231 0.950 . S
C219 C250 1.383 . S
H220 C239 0.947 . S
H221 C240 0.946 . S
H222 C242 0.953 . S
H223 C243 0.945 . S
H224 C245 0.952 . S
H225 C246 0.949 . S
H226 C248 0.950 . S
H227 C249 0.948 . S
H228 C251 0.951 . S
H229 C216 0.947 . S
H230 C218 0.952 . S
H231 C219 0.950 . S
N232 C235 1.382 . S
N232 C237 1.363 . S
N233 C235 1.371 . S
N233 C236 1.372 . S
N234 C236 1.361 . S
N234 C237 1.377 . S
C235 N232 1.382 . S
C235 N233 1.371 . S
C235 C238 1.480 . S
C236 N233 1.372 . S
C236 N234 1.361 . S
C236 C244 1.457 . S
C237 N232 1.363 . S
C237 N234 1.377 . S
C237 C250 1.479 . S
C238 C235 1.480 . S
C238 C239 1.383 . S
C238 C243 1.385 . S
C239 H220 0.947 . S
C239 C238 1.383 . S
C239 C240 1.388 . S
C240 H221 0.946 . S
C240 C239 1.388 . S
C240 C241 1.384 . S
C241 C240 1.384 . S
C241 C242 1.377 . S
C242 H222 0.953 . S
C242 C241 1.377 . S
C242 C243 1.369 . S
C243 H223 0.945 . S
C243 C238 1.385 . S
C243 C242 1.369 . S
C244 C236 1.457 . S
C244 C245 1.372 . S
C244 C249 1.364 . S
C245 H224 0.952 . S
C245 C244 1.372 . S
C245 C246 1.389 . S
C246 H225 0.949 . S
C246 C245 1.389 . S
C246 C247 1.387 . S
C247 C246 1.387 . S
C247 C248 1.372 . S
C248 H226 0.950 . S
C248 C247 1.372 . S
C248 C249 1.379 . S
C249 H227 0.948 . S
C249 C244 1.364 . S
C249 C248 1.379 . S
C250 C219 1.383 . S
C250 C237 1.479 . S
C250 C251 1.398 . S
C251 C216 1.382 . S
C251 H228 0.951 . S
C251 C250 1.398 . S
C252 C253 1.384 . S
C252 H265 0.947 . S
C252 C287 1.382 . S
C253 C252 1.384 . S
C253 C254 1.378 . S
C254 C253 1.378 . S
C254 C255 1.378 . S
C254 H266 0.952 . S
C255 C254 1.378 . S
C255 H267 0.950 . S
C255 C286 1.383 . S
H256 C275 0.947 . S
H257 C276 0.946 . S
H258 C278 0.953 . S
H259 C279 0.945 . S
H260 C281 0.952 . S
H261 C282 0.949 . S
H262 C284 0.950 . S
H263 C285 0.948 . S
H264 C287 0.951 . S
H265 C252 0.947 . S
H266 C254 0.952 . S
H267 C255 0.950 . S
N268 C271 1.382 . S
N268 C273 1.363 . S
N269 C271 1.371 . S
N269 C272 1.372 . S
N270 C272 1.361 . S
N270 C273 1.377 . S
C271 N268 1.382 . S
C271 N269 1.371 . S
C271 C274 1.480 . S
C272 N269 1.372 . S
C272 N270 1.361 . S
C272 C280 1.457 . S
C273 N268 1.363 . S
C273 N270 1.377 . S
C273 C286 1.479 . S
C274 C271 1.480 . S
C274 C275 1.383 . S
C274 C279 1.385 . S
C275 H256 0.947 . S
C275 C274 1.383 . S
C275 C276 1.388 . S
C276 H257 0.946 . S
C276 C275 1.388 . S
C276 C277 1.384 . S
C277 C276 1.384 . S
C277 C278 1.377 . S
C278 H258 0.953 . S
C278 C277 1.377 . S
C278 C279 1.369 . S
C279 H259 0.945 . S
C279 C274 1.385 . S
C279 C278 1.369 . S
C280 C272 1.457 . S
C280 C281 1.372 . S
C280 C285 1.364 . S
C281 H260 0.952 . S
C281 C280 1.372 . S
C281 C282 1.389 . S
C282 H261 0.949 . S
C282 C281 1.389 . S
C282 C283 1.387 . S
C283 C282 1.387 . S
C283 C284 1.372 . S
C284 H262 0.950 . S
C284 C283 1.372 . S
C284 C285 1.379 . S
C285 H263 0.948 . S
C285 C280 1.364 . S
C285 C284 1.379 . S
C286 C255 1.383 . S
C286 C273 1.479 . S
C286 C287 1.398 . S
C287 C252 1.382 . S
C287 H264 0.951 . S
C287 C286 1.398 . S
C288 O290 1.247 . S
C288 O292 1.258 . S
C289 O296 1.247 . S
C289 O297 1.258 . S
O290 C288 1.247 . S
O290 Zn291 2.028 1_655 S
Zn291 O290 2.028 1_455 S
Zn291 O295 2.035 . S
Zn291 O297 2.035 . S
Zn291 O298 2.028 1_455 S
O292 C288 1.258 . S
O292 Zn293 2.035 1_655 S
Zn293 O292 2.035 1_455 S
Zn293 O294 2.028 . S
Zn293 O296 2.028 . S
Zn293 O299 2.035 1_455 S
O294 Zn293 2.028 . S
O294 C300 1.247 . S
O295 Zn291 2.035 . S
O295 C300 1.258 . S
O296 C289 1.247 . S
O296 Zn293 2.028 . S
O297 C289 1.258 . S
O297 Zn291 2.035 . S
O298 Zn291 2.028 1_655 S
O298 C301 1.247 . S
O299 Zn293 2.035 1_655 S
O299 C301 1.258 . S
C300 O294 1.247 . S
C300 O295 1.258 . S
C301 O298 1.247 . S
C301 O299 1.258 . S
C302 O304 1.247 . S
C302 O306 1.258 . S
C303 O310 1.247 . S
C303 O311 1.258 . S
O304 C302 1.247 . S
O304 Zn305 2.028 1_655 S
Zn305 O304 2.028 1_455 S
Zn305 O309 2.035 . S
Zn305 O311 2.035 . S
Zn305 O312 2.028 1_455 S
O306 C302 1.258 . S
O306 Zn307 2.035 1_655 S
Zn307 O306 2.035 1_455 S
Zn307 O308 2.028 . S
Zn307 O310 2.028 . S
Zn307 O313 2.035 1_455 S
O308 Zn307 2.028 . S
O308 C314 1.247 . S
O309 Zn305 2.035 . S
O309 C314 1.258 . S
O310 C303 1.247 . S
O310 Zn307 2.028 . S
O311 C303 1.258 . S
O311 Zn305 2.035 . S
O312 Zn305 2.028 1_655 S
O312 C315 1.247 . S
O313 Zn307 2.035 1_655 S
O313 C315 1.258 . S
C314 O308 1.247 . S
C314 O309 1.258 . S
C315 O312 1.247 . S
C315 O313 1.258 . S
C316 O318 1.247 . S
C316 O320 1.258 . S
C317 O324 1.247 . S
C317 O325 1.258 . S
O318 C316 1.247 . S
O318 Zn319 2.028 1_565 S
Zn319 O318 2.028 1_545 S
Zn319 O323 2.035 . S
Zn319 O325 2.035 . S
Zn319 O326 2.028 1_545 S
O320 C316 1.258 . S
O320 Zn321 2.035 1_565 S
Zn321 O320 2.035 1_545 S
Zn321 O322 2.028 . S
Zn321 O324 2.028 . S
Zn321 O327 2.035 1_545 S
O322 Zn321 2.028 . S
O322 C328 1.247 . S
O323 Zn319 2.035 . S
O323 C328 1.258 . S
O324 C317 1.247 . S
O324 Zn321 2.028 . S
O325 C317 1.258 . S
O325 Zn319 2.035 . S
O326 Zn319 2.028 1_565 S
O326 C329 1.247 . S
O327 Zn321 2.035 1_565 S
O327 C329 1.258 . S
C328 O322 1.247 . S
C328 O323 1.258 . S
C329 O326 1.247 . S
C329 O327 1.258 . S
C330 O332 1.247 . S
C330 O334 1.258 . S
C331 O338 1.247 . S
C331 O339 1.258 . S
O332 C330 1.247 . S
O332 Zn333 2.028 . S
Zn333 O332 2.028 . S
Zn333 O337 2.035 . S
Zn333 O339 2.035 1_554 S
Zn333 O340 2.028 1_554 S
O334 C330 1.258 . S
O334 Zn335 2.035 . S
Zn335 O334 2.035 . S
Zn335 O336 2.028 . S
Zn335 O338 2.028 1_554 S
Zn335 O341 2.035 1_554 S
O336 Zn335 2.028 . S
O336 C342 1.247 . S
O337 Zn333 2.035 . S
O337 C342 1.258 . S
O338 C331 1.247 . S
O338 Zn335 2.028 1_556 S
O339 C331 1.258 . S
O339 Zn333 2.035 1_556 S
O340 Zn333 2.028 1_556 S
O340 C343 1.247 . S
O341 Zn335 2.035 1_556 S
O341 C343 1.258 . S
C342 O336 1.247 . S
C342 O337 1.258 . S
C343 O340 1.247 . S
C343 O341 1.258 . S
C344 O346 1.247 . S
C344 O348 1.258 . S
C345 O352 1.247 . S
C345 O353 1.258 . S
O346 C344 1.247 . S
O346 Zn347 2.002 1_565 S
Zn347 O346 2.002 1_545 S
Zn347 O351 2.062 . S
Zn347 O353 2.062 . S
Zn347 O354 2.001 1_545 S
O348 C344 1.258 . S
O348 Zn349 2.035 1_565 S
Zn349 O348 2.035 1_545 S
Zn349 O350 2.028 . S
Zn349 O352 2.028 . S
Zn349 O355 2.035 1_545 S
O350 Zn349 2.028 . S
O350 C356 1.247 . S
O351 Zn347 2.062 . S
O351 C356 1.258 . S
O352 C345 1.247 . S
O352 Zn349 2.028 . S
O353 C345 1.258 . S
O353 Zn347 2.062 . S
O354 Zn347 2.001 1_565 S
O354 C357 1.247 . S
O355 Zn349 2.035 1_565 S
O355 C357 1.258 . S
C356 O350 1.247 . S
C356 O351 1.258 . S
C357 O354 1.247 . S
C357 O355 1.258 . S
C358 O360 1.247 . S
C358 O362 1.258 . S
C359 O366 1.247 . S
C359 O367 1.258 . S
O360 C358 1.247 . S
O360 Zn361 2.035 . S
Zn361 O360 2.035 . S
Zn361 O365 2.042 . S
Zn361 O367 2.029 1_554 S
Zn361 O368 2.021 1_554 S
O362 C358 1.258 . S
O362 Zn363 2.035 1_554 S
Zn363 O362 2.035 1_556 S
Zn363 O364 2.028 1_556 S
Zn363 O366 2.028 . S
Zn363 O369 2.035 . S
O364 Zn363 2.028 1_554 S
O364 C370 1.247 . S
O365 Zn361 2.042 . S
O365 C370 1.258 . S
O366 C359 1.247 . S
O366 Zn363 2.028 . S
O367 C359 1.258 . S
O367 Zn361 2.029 1_556 S
O368 Zn361 2.021 1_556 S
O368 C371 1.247 . S
O369 Zn363 2.035 . S
O369 C371 1.258 . S
C370 O364 1.247 . S
C370 O365 1.258 . S
C371 O368 1.247 . S
C371 O369 1.258 . S
H372 C384 0.930 . S
H373 C386 0.930 . S
H374 C387 0.930 . S
H375 C391 0.959 . S
H376 C391 0.959 . S
H377 C391 0.961 . S
H378 C392 0.960 . S
H379 C392 0.961 . S
H380 C392 0.959 . S
H381 C395 0.929 . S
H382 C396 0.931 . S
H383 C398 0.930 . S
C384 H372 0.930 . S
C384 C385 1.399 . S
C384 C389 1.399 . S
C385 C384 1.399 . S
C385 C386 1.376 . S
C386 H373 0.930 . S
C386 C385 1.376 . S
C386 C387 1.388 . S
C387 H374 0.930 . S
C387 C386 1.388 . S
C387 C388 1.390 . S
C388 C387 1.390 . S
C388 C389 1.394 . S
C388 C394 1.465 . S
C389 C384 1.399 . S
C389 C388 1.394 . S
C389 C390 1.516 . S
C390 C389 1.516 . S
C390 C391 1.502 . S
C390 C392 1.561 . S
C390 C393 1.526 . S
C391 H375 0.959 . S
C391 H376 0.959 . S
C391 H377 0.961 . S
C391 C390 1.502 . S
C392 H378 0.960 . S
C392 H379 0.961 . S
C392 H380 0.959 . S
C392 C390 1.561 . S
C393 C390 1.526 . S
C393 C394 1.396 . S
C393 C398 1.390 . S
C394 C388 1.465 . S
C394 C393 1.396 . S
C394 C395 1.399 . S
C395 H381 0.929 . S
C395 C394 1.399 . S
C395 C396 1.385 . S
C396 H382 0.931 . S
C396 C395 1.385 . S
C396 C397 1.389 . S
C397 C396 1.389 . S
C397 C398 1.387 . S
C398 H383 0.930 . S
C398 C393 1.390 . S
C398 C397 1.387 . S
H399 C411 0.930 . S
H400 C413 0.930 . S
H401 C414 0.930 . S
H402 C418 0.959 . S
H403 C418 0.959 . S
H404 C418 0.961 . S
H405 C419 0.960 . S
H406 C419 0.961 . S
H407 C419 0.959 . S
H408 C422 0.929 . S
H409 C423 0.931 . S
H410 C425 0.930 . S
C411 H399 0.930 . S
C411 C412 1.399 . S
C411 C416 1.399 . S
C412 C411 1.399 . S
C412 C413 1.376 . S
C413 H400 0.930 . S
C413 C412 1.376 . S
C413 C414 1.388 . S
C414 H401 0.930 . S
C414 C413 1.388 . S
C414 C415 1.390 . S
C415 C414 1.390 . S
C415 C416 1.394 . S
C415 C421 1.465 . S
C416 C411 1.399 . S
C416 C415 1.394 . S
C416 C417 1.516 . S
C417 C416 1.516 . S
C417 C418 1.502 . S
C417 C419 1.561 . S
C417 C420 1.526 . S
C418 H402 0.959 . S
C418 H403 0.959 . S
C418 H404 0.961 . S
C418 C417 1.502 . S
C419 H405 0.960 . S
C419 H406 0.961 . S
C419 H407 0.959 . S
C419 C417 1.561 . S
C420 C417 1.526 . S
C420 C421 1.396 . S
C420 C425 1.390 . S
C421 C415 1.465 . S
C421 C420 1.396 . S
C421 C422 1.399 . S
C422 H408 0.929 . S
C422 C421 1.399 . S
C422 C423 1.385 . S
C423 H409 0.931 . S
C423 C422 1.385 . S
C423 C424 1.389 . S
C424 C423 1.389 . S
C424 C425 1.387 . S
C425 H410 0.930 . S
C425 C420 1.390 . S
C425 C424 1.387 . S
H426 C438 0.930 . S
H427 C440 0.930 . S
H428 C441 0.930 . S
H429 C445 0.959 . S
H430 C445 0.959 . S
H431 C445 0.961 . S
H432 C446 0.960 . S
H433 C446 0.961 . S
H434 C446 0.959 . S
H435 C449 0.929 . S
H436 C450 0.931 . S
H437 C452 0.930 . S
C438 H426 0.930 . S
C438 C439 1.399 . S
C438 C443 1.399 . S
C439 C438 1.399 . S
C439 C440 1.376 . S
C440 H427 0.930 . S
C440 C439 1.376 . S
C440 C441 1.388 . S
C441 H428 0.930 . S
C441 C440 1.388 . S
C441 C442 1.390 . S
C442 C441 1.390 . S
C442 C443 1.394 . S
C442 C448 1.465 . S
C443 C438 1.399 . S
C443 C442 1.394 . S
C443 C444 1.516 . S
C444 C443 1.516 . S
C444 C445 1.502 . S
C444 C446 1.561 . S
C444 C447 1.526 . S
C445 H429 0.959 . S
C445 H430 0.959 . S
C445 H431 0.961 . S
C445 C444 1.502 . S
C446 H432 0.960 . S
C446 H433 0.961 . S
C446 H434 0.959 . S
C446 C444 1.561 . S
C447 C444 1.526 . S
C447 C448 1.396 . S
C447 C452 1.390 . S
C448 C442 1.465 . S
C448 C447 1.396 . S
C448 C449 1.399 . S
C449 H435 0.929 . S
C449 C448 1.399 . S
C449 C450 1.385 . S
C450 H436 0.931 . S
C450 C449 1.385 . S
C450 C451 1.389 . S
C451 C450 1.389 . S
C451 C452 1.387 . S
C452 H437 0.930 . S
C452 C447 1.390 . S
C452 C451 1.387 . S
H453 C465 0.930 . S
H454 C467 0.930 . S
H455 C468 0.930 . S
H456 C472 0.959 . S
H457 C472 0.959 . S
H458 C472 0.961 . S
H459 C473 0.960 . S
H460 C473 0.961 . S
H461 C473 0.959 . S
H462 C476 0.929 . S
H463 C477 0.931 . S
H464 C479 0.930 . S
C465 H453 0.930 . S
C465 C466 1.399 . S
C465 C470 1.399 . S
C466 C465 1.399 . S
C466 C467 1.376 . S
C467 H454 0.930 . S
C467 C466 1.376 . S
C467 C468 1.388 . S
C468 H455 0.930 . S
C468 C467 1.388 . S
C468 C469 1.390 . S
C469 C468 1.390 . S
C469 C470 1.394 . S
C469 C475 1.465 . S
C470 C465 1.399 . S
C470 C469 1.394 . S
C470 C471 1.516 . S
C471 C470 1.516 . S
C471 C472 1.502 . S
C471 C473 1.561 . S
C471 C474 1.526 . S
C472 H456 0.959 . S
C472 H457 0.959 . S
C472 H458 0.961 . S
C472 C471 1.502 . S
C473 H459 0.960 . S
C473 H460 0.961 . S
C473 H461 0.959 . S
C473 C471 1.561 . S
C474 C471 1.526 . S
C474 C475 1.396 . S
C474 C479 1.390 . S
C475 C469 1.465 . S
C475 C474 1.396 . S
C475 C476 1.399 . S
C476 H462 0.929 . S
C476 C475 1.399 . S
C476 C477 1.385 . S
C477 H463 0.931 . S
C477 C476 1.385 . S
C477 C478 1.389 . S
C478 C477 1.389 . S
C478 C479 1.387 . S
C479 H464 0.930 . S
C479 C474 1.390 . S
C479 C478 1.387 . S
H480 C492 0.930 . S
H481 C494 0.930 . S
H482 C495 0.930 . S
H483 C499 0.959 . S
H484 C499 0.959 . S
H485 C499 0.961 . S
H486 C500 0.960 . S
H487 C500 0.961 . S
H488 C500 0.959 . S
H489 C503 0.929 . S
H490 C504 0.931 . S
H491 C506 0.930 . S
C492 H480 0.930 . S
C492 C493 1.399 . S
C492 C497 1.399 . S
C493 C492 1.399 . S
C493 C494 1.376 . S
C494 H481 0.930 . S
C494 C493 1.376 . S
C494 C495 1.388 . S
C495 H482 0.930 . S
C495 C494 1.388 . S
C495 C496 1.390 . S
C496 C495 1.390 . S
C496 C497 1.394 . S
C496 C502 1.465 . S
C497 C492 1.399 . S
C497 C496 1.394 . S
C497 C498 1.516 . S
C498 C497 1.516 . S
C498 C499 1.502 . S
C498 C500 1.561 . S
C498 C501 1.526 . S
C499 H483 0.959 . S
C499 H484 0.959 . S
C499 H485 0.961 . S
C499 C498 1.502 . S
C500 H486 0.960 . S
C500 H487 0.961 . S
C500 H488 0.959 . S
C500 C498 1.561 . S
C501 C498 1.526 . S
C501 C502 1.396 . S
C501 C506 1.390 . S
C502 C496 1.465 . S
C502 C501 1.396 . S
C502 C503 1.399 . S
C503 H489 0.929 . S
C503 C502 1.399 . S
C503 C504 1.385 . S
C504 H490 0.931 . S
C504 C503 1.385 . S
C504 C505 1.389 . S
C505 C504 1.389 . S
C505 C506 1.387 . S
C506 H491 0.930 . S
C506 C501 1.390 . S
C506 C505 1.387 . S
H507 C519 0.930 . S
H508 C521 0.930 . S
H509 C522 0.930 . S
H510 C526 0.959 . S
H511 C526 0.959 . S
H512 C526 0.961 . S
H513 C527 0.960 . S
H514 C527 0.961 . S
H515 C527 0.959 . S
H516 C530 0.929 . S
H517 C531 0.931 . S
H518 C533 0.930 . S
C519 H507 0.930 . S
C519 C520 1.399 . S
C519 C524 1.399 . S
C520 C519 1.399 . S
C520 C521 1.376 . S
C521 H508 0.930 . S
C521 C520 1.376 . S
C521 C522 1.388 . S
C522 H509 0.930 . S
C522 C521 1.388 . S
C522 C523 1.390 . S
C523 C522 1.390 . S
C523 C524 1.394 . S
C523 C529 1.465 . S
C524 C519 1.399 . S
C524 C523 1.394 . S
C524 C525 1.516 . S
C525 C524 1.516 . S
C525 C526 1.502 . S
C525 C527 1.561 . S
C525 C528 1.526 . S
C526 H510 0.959 . S
C526 H511 0.959 . S
C526 H512 0.961 . S
C526 C525 1.502 . S
C527 H513 0.960 . S
C527 H514 0.961 . S
C527 H515 0.959 . S
C527 C525 1.561 . S
C528 C525 1.526 . S
C528 C529 1.396 . S
C528 C533 1.390 . S
C529 C523 1.465 . S
C529 C528 1.396 . S
C529 C530 1.399 . S
C530 H516 0.929 . S
C530 C529 1.399 . S
C530 C531 1.385 . S
C531 H517 0.931 . S
C531 C530 1.385 . S
C531 C532 1.389 . S
C532 C531 1.389 . S
C532 C533 1.387 . S
C533 H518 0.930 . S
C533 C528 1.390 . S
C533 C532 1.387 . S
H534 C546 0.930 . S
H535 C548 0.930 . S
H536 C549 0.930 . S
H537 C553 0.959 . S
H538 C553 0.959 . S
H539 C553 0.961 . S
H540 C554 0.960 . S
H541 C554 0.961 . S
H542 C554 0.959 . S
H543 C557 0.929 . S
H544 C558 0.931 . S
H545 C560 0.930 . S
C546 H534 0.930 . S
C546 C547 1.399 . S
C546 C551 1.399 . S
C547 C546 1.399 . S
C547 C548 1.376 . S
C548 H535 0.930 . S
C548 C547 1.376 . S
C548 C549 1.388 . S
C549 H536 0.930 . S
C549 C548 1.388 . S
C549 C550 1.390 . S
C550 C549 1.390 . S
C550 C551 1.394 . S
C550 C556 1.465 . S
C551 C546 1.399 . S
C551 C550 1.394 . S
C551 C552 1.516 . S
C552 C551 1.516 . S
C552 C553 1.502 . S
C552 C554 1.561 . S
C552 C555 1.526 . S
C553 H537 0.959 . S
C553 H538 0.959 . S
C553 H539 0.961 . S
C553 C552 1.502 . S
C554 H540 0.960 . S
C554 H541 0.961 . S
C554 H542 0.959 . S
C554 C552 1.561 . S
C555 C552 1.526 . S
C555 C556 1.396 . S
C555 C560 1.390 . S
C556 C550 1.465 . S
C556 C555 1.396 . S
C556 C557 1.399 . S
C557 H543 0.929 . S
C557 C556 1.399 . S
C557 C558 1.385 . S
C558 H544 0.931 . S
C558 C557 1.385 . S
C558 C559 1.389 . S
C559 C558 1.389 . S
C559 C560 1.387 . S
C560 H545 0.930 . S
C560 C555 1.390 . S
C560 C559 1.387 . S
H561 C573 0.930 . S
H562 C575 0.930 . S
H563 C576 0.930 . S
H564 C580 0.959 . S
H565 C580 0.959 . S
H566 C580 0.961 . S
H567 C581 0.960 . S
H568 C581 0.961 . S
H569 C581 0.959 . S
H570 C584 0.929 . S
H571 C585 0.931 . S
H572 C587 0.930 . S
C573 H561 0.930 . S
C573 C574 1.399 . S
C573 C578 1.399 . S
C574 C573 1.399 . S
C574 C575 1.376 . S
C575 H562 0.930 . S
C575 C574 1.376 . S
C575 C576 1.388 . S
C576 H563 0.930 . S
C576 C575 1.388 . S
C576 C577 1.390 . S
C577 C576 1.390 . S
C577 C578 1.394 . S
C577 C583 1.465 . S
C578 C573 1.399 . S
C578 C577 1.394 . S
C578 C579 1.516 . S
C579 C578 1.516 . S
C579 C580 1.502 . S
C579 C581 1.561 . S
C579 C582 1.526 . S
C580 H564 0.959 . S
C580 H565 0.959 . S
C580 H566 0.961 . S
C580 C579 1.502 . S
C581 H567 0.960 . S
C581 H568 0.961 . S
C581 H569 0.959 . S
C581 C579 1.561 . S
C582 C579 1.526 . S
C582 C583 1.396 . S
C582 C587 1.390 . S
C583 C577 1.465 . S
C583 C582 1.396 . S
C583 C584 1.399 . S
C584 H570 0.929 . S
C584 C583 1.399 . S
C584 C585 1.385 . S
C585 H571 0.931 . S
C585 C584 1.385 . S
C585 C586 1.389 . S
C586 C585 1.389 . S
C586 C587 1.387 . S
C587 H572 0.930 . S
C587 C582 1.390 . S
C587 C586 1.387 . S
H588 C600 0.930 . S
H589 C602 0.930 . S
H590 C603 0.930 . S
H591 C607 0.959 . S
H592 C607 0.959 . S
H593 C607 0.961 . S
H594 C608 0.960 . S
H595 C608 0.961 . S
H596 C608 0.959 . S
H597 C611 0.929 . S
H598 C612 0.931 . S
H599 C614 0.930 . S
C600 H588 0.930 . S
C600 C601 1.399 . S
C600 C605 1.399 . S
C601 C600 1.399 . S
C601 C602 1.376 . S
C602 H589 0.930 . S
C602 C601 1.376 . S
C602 C603 1.388 . S
C603 H590 0.930 . S
C603 C602 1.388 . S
C603 C604 1.390 . S
C604 C603 1.390 . S
C604 C605 1.394 . S
C604 C610 1.465 . S
C605 C600 1.399 . S
C605 C604 1.394 . S
C605 C606 1.516 . S
C606 C605 1.516 . S
C606 C607 1.502 . S
C606 C608 1.561 . S
C606 C609 1.526 . S
C607 H591 0.959 . S
C607 H592 0.959 . S
C607 H593 0.961 . S
C607 C606 1.502 . S
C608 H594 0.960 . S
C608 H595 0.961 . S
C608 H596 0.959 . S
C608 C606 1.561 . S
C609 C606 1.526 . S
C609 C610 1.396 . S
C609 C614 1.390 . S
C610 C604 1.465 . S
C610 C609 1.396 . S
C610 C611 1.399 . S
C611 H597 0.929 . S
C611 C610 1.399 . S
C611 C612 1.385 . S
C612 H598 0.931 . S
C612 C611 1.385 . S
C612 C613 1.389 . S
C613 C612 1.389 . S
C613 C614 1.387 . S
C614 H599 0.930 . S
C614 C609 1.390 . S
C614 C613 1.387 . S
H615 C627 0.930 . S
H616 C629 0.930 . S
H617 C630 0.930 . S
H618 C634 0.959 . S
H619 C634 0.959 . S
H620 C634 0.961 . S
H621 C635 0.960 . S
H622 C635 0.961 . S
H623 C635 0.959 . S
H624 C638 0.929 . S
H625 C639 0.931 . S
H626 C641 0.930 . S
C627 H615 0.930 . S
C627 C628 1.399 . S
C627 C632 1.399 . S
C628 C627 1.399 . S
C628 C629 1.376 . S
C629 H616 0.930 . S
C629 C628 1.376 . S
C629 C630 1.388 . S
C630 H617 0.930 . S
C630 C629 1.388 . S
C630 C631 1.390 . S
C631 C630 1.390 . S
C631 C632 1.394 . S
C631 C637 1.465 . S
C632 C627 1.399 . S
C632 C631 1.394 . S
C632 C633 1.516 . S
C633 C632 1.516 . S
C633 C634 1.502 . S
C633 C635 1.561 . S
C633 C636 1.526 . S
C634 H618 0.959 . S
C634 H619 0.959 . S
C634 H620 0.961 . S
C634 C633 1.502 . S
C635 H621 0.960 . S
C635 H622 0.961 . S
C635 H623 0.959 . S
C635 C633 1.561 . S
C636 C633 1.526 . S
C636 C637 1.396 . S
C636 C641 1.390 . S
C637 C631 1.465 . S
C637 C636 1.396 . S
C637 C638 1.399 . S
C638 H624 0.929 . S
C638 C637 1.399 . S
C638 C639 1.385 . S
C639 H625 0.931 . S
C639 C638 1.385 . S
C639 C640 1.389 . S
C640 C639 1.389 . S
C640 C641 1.387 . S
C641 H626 0.930 . S
C641 C636 1.390 . S
C641 C640 1.387 . S
H642 C654 0.930 . S
H643 C656 0.930 . S
H644 C657 0.930 . S
H645 C661 0.959 . S
H646 C661 0.959 . S
H647 C661 0.961 . S
H648 C662 0.960 . S
H649 C662 0.961 . S
H650 C662 0.959 . S
H651 C665 0.929 . S
H652 C666 0.931 . S
H653 C668 0.930 . S
C654 H642 0.930 . S
C654 C655 1.399 . S
C654 C659 1.399 . S
C655 C654 1.399 . S
C655 C656 1.376 . S
C656 H643 0.930 . S
C656 C655 1.376 . S
C656 C657 1.388 . S
C657 H644 0.930 . S
C657 C656 1.388 . S
C657 C658 1.390 . S
C658 C657 1.390 . S
C658 C659 1.394 . S
C658 C664 1.465 . S
C659 C654 1.399 . S
C659 C658 1.394 . S
C659 C660 1.516 . S
C660 C659 1.516 . S
C660 C661 1.502 . S
C660 C662 1.561 . S
C660 C663 1.526 . S
C661 H645 0.959 . S
C661 H646 0.959 . S
C661 H647 0.961 . S
C661 C660 1.502 . S
C662 H648 0.960 . S
C662 H649 0.961 . S
C662 H650 0.959 . S
C662 C660 1.561 . S
C663 C660 1.526 . S
C663 C664 1.396 . S
C663 C668 1.390 . S
C664 C658 1.465 . S
C664 C663 1.396 . S
C664 C665 1.399 . S
C665 H651 0.929 . S
C665 C664 1.399 . S
C665 C666 1.385 . S
C666 H652 0.931 . S
C666 C665 1.385 . S
C666 C667 1.389 . S
C667 C666 1.389 . S
C667 C668 1.387 . S
C668 H653 0.930 . S
C668 C663 1.390 . S
C668 C667 1.387 . S
H669 C681 0.930 . S
H670 C683 0.930 . S
H671 C684 0.930 . S
H672 C688 0.959 . S
H673 C688 0.959 . S
H674 C688 0.961 . S
H675 C689 0.960 . S
H676 C689 0.961 . S
H677 C689 0.959 . S
H678 C692 0.929 . S
H679 C693 0.931 . S
H680 C695 0.930 . S
C681 H669 0.930 . S
C681 C682 1.399 . S
C681 C686 1.399 . S
C682 C681 1.399 . S
C682 C683 1.376 . S
C683 H670 0.930 . S
C683 C682 1.376 . S
C683 C684 1.388 . S
C684 H671 0.930 . S
C684 C683 1.388 . S
C684 C685 1.390 . S
C685 C684 1.390 . S
C685 C686 1.394 . S
C685 C691 1.465 . S
C686 C681 1.399 . S
C686 C685 1.394 . S
C686 C687 1.516 . S
C687 C686 1.516 . S
C687 C688 1.502 . S
C687 C689 1.561 . S
C687 C690 1.526 . S
C688 H672 0.959 . S
C688 H673 0.959 . S
C688 H674 0.961 . S
C688 C687 1.502 . S
C689 H675 0.960 . S
C689 H676 0.961 . S
C689 H677 0.959 . S
C689 C687 1.561 . S
C690 C687 1.526 . S
C690 C691 1.396 . S
C690 C695 1.390 . S
C691 C685 1.465 . S
C691 C690 1.396 . S
C691 C692 1.399 . S
C692 H678 0.929 . S
C692 C691 1.399 . S
C692 C693 1.385 . S
C693 H679 0.931 . S
C693 C692 1.385 . S
C693 C694 1.389 . S
C694 C693 1.389 . S
C694 C695 1.387 . S
C695 H680 0.930 . S
C695 C690 1.390 . S
C695 C694 1.387 . S
H696 C708 0.930 . S
H697 C710 0.930 . S
H698 C711 0.930 . S
H699 C715 0.959 . S
H700 C715 0.959 . S
H701 C715 0.961 . S
H702 C716 0.960 . S
H703 C716 0.961 . S
H704 C716 0.959 . S
H705 C719 0.929 . S
H706 C720 0.931 . S
H707 C722 0.930 . S
C708 H696 0.930 . S
C708 C709 1.399 . S
C708 C713 1.399 . S
C709 C708 1.399 . S
C709 C710 1.376 . S
C710 H697 0.930 . S
C710 C709 1.376 . S
C710 C711 1.388 . S
C711 H698 0.930 . S
C711 C710 1.388 . S
C711 C712 1.390 . S
C712 C711 1.390 . S
C712 C713 1.394 . S
C712 C718 1.465 . S
C713 C708 1.399 . S
C713 C712 1.394 . S
C713 C714 1.516 . S
C714 C713 1.516 . S
C714 C715 1.502 . S
C714 C716 1.561 . S
C714 C717 1.526 . S
C715 H699 0.959 . S
C715 H700 0.959 . S
C715 H701 0.961 . S
C715 C714 1.502 . S
C716 H702 0.960 . S
C716 H703 0.961 . S
C716 H704 0.959 . S
C716 C714 1.561 . S
C717 C714 1.526 . S
C717 C718 1.396 . S
C717 C722 1.390 . S
C718 C712 1.465 . S
C718 C717 1.396 . S
C718 C719 1.399 . S
C719 H705 0.929 . S
C719 C718 1.399 . S
C719 C720 1.385 . S
C720 H706 0.931 . S
C720 C719 1.385 . S
C720 C721 1.389 . S
C721 C720 1.389 . S
C721 C722 1.387 . S
C722 H707 0.930 . S
C722 C717 1.390 . S
C722 C721 1.387 . S
H723 C735 0.930 . S
H724 C737 0.930 . S
H725 C738 0.930 . S
H726 C742 0.959 . S
H727 C742 0.959 . S
H728 C742 0.961 . S
H729 C743 0.960 . S
H730 C743 0.961 . S
H731 C743 0.959 . S
H732 C746 0.929 . S
H733 C747 0.931 . S
H734 C749 0.930 . S
C735 H723 0.930 . S
C735 C736 1.399 . S
C735 C740 1.399 . S
C736 C735 1.399 . S
C736 C737 1.376 . S
C737 H724 0.930 . S
C737 C736 1.376 . S
C737 C738 1.388 . S
C738 H725 0.930 . S
C738 C737 1.388 . S
C738 C739 1.390 . S
C739 C738 1.390 . S
C739 C740 1.394 . S
C739 C745 1.465 . S
C740 C735 1.399 . S
C740 C739 1.394 . S
C740 C741 1.516 . S
C741 C740 1.516 . S
C741 C742 1.502 . S
C741 C743 1.561 . S
C741 C744 1.526 . S
C742 H726 0.959 . S
C742 H727 0.959 . S
C742 H728 0.961 . S
C742 C741 1.502 . S
C743 H729 0.960 . S
C743 H730 0.961 . S
C743 H731 0.959 . S
C743 C741 1.561 . S
C744 C741 1.526 . S
C744 C745 1.396 . S
C744 C749 1.390 . S
C745 C739 1.465 . S
C745 C744 1.396 . S
C745 C746 1.399 . S
C746 H732 0.929 . S
C746 C745 1.399 . S
C746 C747 1.385 . S
C747 H733 0.931 . S
C747 C746 1.385 . S
C747 C748 1.389 . S
C748 C747 1.389 . S
C748 C749 1.387 . S
C749 H734 0.930 . S
C749 C744 1.390 . S
C749 C748 1.387 . S
H750 C762 0.930 . S
H751 C764 0.930 . S
H752 C765 0.930 . S
H753 C769 0.959 . S
H754 C769 0.959 . S
H755 C769 0.961 . S
H756 C770 0.960 . S
H757 C770 0.961 . S
H758 C770 0.959 . S
H759 C773 0.929 . S
H760 C774 0.931 . S
H761 C776 0.930 . S
C762 H750 0.930 . S
C762 C763 1.399 . S
C762 C767 1.399 . S
C763 C762 1.399 . S
C763 C764 1.376 . S
C764 H751 0.930 . S
C764 C763 1.376 . S
C764 C765 1.388 . S
C765 H752 0.930 . S
C765 C764 1.388 . S
C765 C766 1.390 . S
C766 C765 1.390 . S
C766 C767 1.394 . S
C766 C772 1.465 . S
C767 C762 1.399 . S
C767 C766 1.394 . S
C767 C768 1.516 . S
C768 C767 1.516 . S
C768 C769 1.502 . S
C768 C770 1.561 . S
C768 C771 1.526 . S
C769 H753 0.959 . S
C769 H754 0.959 . S
C769 H755 0.961 . S
C769 C768 1.502 . S
C770 H756 0.960 . S
C770 H757 0.961 . S
C770 H758 0.959 . S
C770 C768 1.561 . S
C771 C768 1.526 . S
C771 C772 1.396 . S
C771 C776 1.390 . S
C772 C766 1.465 . S
C772 C771 1.396 . S
C772 C773 1.399 . S
C773 H759 0.929 . S
C773 C772 1.399 . S
C773 C774 1.385 . S
C774 H760 0.931 . S
C774 C773 1.385 . S
C774 C775 1.389 . S
C775 C774 1.389 . S
C775 C776 1.387 . S
C776 H761 0.930 . S
C776 C771 1.390 . S
C776 C775 1.387 . S
H777 C789 0.930 . S
H778 C791 0.930 . S
H779 C792 0.930 . S
H780 C796 0.959 . S
H781 C796 0.959 . S
H782 C796 0.961 . S
H783 C797 0.960 . S
H784 C797 0.961 . S
H785 C797 0.959 . S
H786 C800 0.929 . S
H787 C801 0.931 . S
H788 C803 0.930 . S
C789 H777 0.930 . S
C789 C790 1.399 . S
C789 C794 1.399 . S
C790 C789 1.399 . S
C790 C791 1.376 . S
C791 H778 0.930 . S
C791 C790 1.376 . S
C791 C792 1.388 . S
C792 H779 0.930 . S
C792 C791 1.388 . S
C792 C793 1.390 . S
C793 C792 1.390 . S
C793 C794 1.394 . S
C793 C799 1.465 . S
C794 C789 1.399 . S
C794 C793 1.394 . S
C794 C795 1.516 . S
C795 C794 1.516 . S
C795 C796 1.502 . S
C795 C797 1.561 . S
C795 C798 1.526 . S
C796 H780 0.959 . S
C796 H781 0.959 . S
C796 H782 0.961 . S
C796 C795 1.502 . S
C797 H783 0.960 . S
C797 H784 0.961 . S
C797 H785 0.959 . S
C797 C795 1.561 . S
C798 C795 1.526 . S
C798 C799 1.396 . S
C798 C803 1.390 . S
C799 C793 1.465 . S
C799 C798 1.396 . S
C799 C800 1.399 . S
C800 H786 0.929 . S
C800 C799 1.399 . S
C800 C801 1.385 . S
C801 H787 0.931 . S
C801 C800 1.385 . S
C801 C802 1.389 . S
C802 C801 1.389 . S
C802 C803 1.387 . S
C803 H788 0.930 . S
C803 C798 1.390 . S
C803 C802 1.387 . S
H804 C816 0.930 . S
H805 C818 0.930 . S
H806 C819 0.930 . S
H807 C823 0.959 . S
H808 C823 0.959 . S
H809 C823 0.961 . S
H810 C824 0.960 . S
H811 C824 0.961 . S
H812 C824 0.959 . S
H813 C827 0.929 . S
H814 C828 0.931 . S
H815 C830 0.930 . S
C816 H804 0.930 . S
C816 C817 1.399 . S
C816 C821 1.399 . S
C817 C816 1.399 . S
C817 C818 1.376 . S
C818 H805 0.930 . S
C818 C817 1.376 . S
C818 C819 1.388 . S
C819 H806 0.930 . S
C819 C818 1.388 . S
C819 C820 1.390 . S
C820 C819 1.390 . S
C820 C821 1.394 . S
C820 C826 1.465 . S
C821 C816 1.399 . S
C821 C820 1.394 . S
C821 C822 1.516 . S
C822 C821 1.516 . S
C822 C823 1.502 . S
C822 C824 1.561 . S
C822 C825 1.526 . S
C823 H807 0.959 . S
C823 H808 0.959 . S
C823 H809 0.961 . S
C823 C822 1.502 . S
C824 H810 0.960 . S
C824 H811 0.961 . S
C824 H812 0.959 . S
C824 C822 1.561 . S
C825 C822 1.526 . S
C825 C826 1.396 . S
C825 C830 1.390 . S
C826 C820 1.465 . S
C826 C825 1.396 . S
C826 C827 1.399 . S
C827 H813 0.929 . S
C827 C826 1.399 . S
C827 C828 1.385 . S
C828 H814 0.931 . S
C828 C827 1.385 . S
C828 C829 1.389 . S
C829 C828 1.389 . S
C829 C830 1.387 . S
C830 H815 0.930 . S
C830 C825 1.390 . S
C830 C829 1.387 . S
H831 C843 0.930 . S
H832 C845 0.930 . S
H833 C846 0.930 . S
H834 C850 0.959 . S
H835 C850 0.959 . S
H836 C850 0.961 . S
H837 C851 0.960 . S
H838 C851 0.961 . S
H839 C851 0.959 . S
H840 C854 0.929 . S
H841 C855 0.931 . S
H842 C857 0.930 . S
C843 H831 0.930 . S
C843 C844 1.399 . S
C843 C848 1.399 . S
C844 C843 1.399 . S
C844 C845 1.376 . S
C845 H832 0.930 . S
C845 C844 1.376 . S
C845 C846 1.388 . S
C846 H833 0.930 . S
C846 C845 1.388 . S
C846 C847 1.390 . S
C847 C846 1.390 . S
C847 C848 1.394 . S
C847 C853 1.465 . S
C848 C843 1.399 . S
C848 C847 1.394 . S
C848 C849 1.516 . S
C849 C848 1.516 . S
C849 C850 1.502 . S
C849 C851 1.561 . S
C849 C852 1.526 . S
C850 H834 0.959 . S
C850 H835 0.959 . S
C850 H836 0.961 . S
C850 C849 1.502 . S
C851 H837 0.960 . S
C851 H838 0.961 . S
C851 H839 0.959 . S
C851 C849 1.561 . S
C852 C849 1.526 . S
C852 C853 1.396 . S
C852 C857 1.390 . S
C853 C847 1.465 . S
C853 C852 1.396 . S
C853 C854 1.399 . S
C854 H840 0.929 . S
C854 C853 1.399 . S
C854 C855 1.385 . S
C855 H841 0.931 . S
C855 C854 1.385 . S
C855 C856 1.389 . S
C856 C855 1.389 . S
C856 C857 1.387 . S
C857 H842 0.930 . S
C857 C852 1.390 . S
C857 C856 1.387 . S
H858 C870 0.930 . S
H859 C872 0.930 . S
H860 C873 0.930 . S
H861 C877 0.959 . S
H862 C877 0.959 . S
H863 C877 0.961 . S
H864 C878 0.960 . S
H865 C878 0.961 . S
H866 C878 0.959 . S
H867 C881 0.929 . S
H868 C882 0.931 . S
H869 C884 0.930 . S
C870 H858 0.930 . S
C870 C871 1.399 . S
C870 C875 1.399 . S
C871 C870 1.399 . S
C871 C872 1.376 . S
C872 H859 0.930 . S
C872 C871 1.376 . S
C872 C873 1.388 . S
C873 H860 0.930 . S
C873 C872 1.388 . S
C873 C874 1.390 . S
C874 C873 1.390 . S
C874 C875 1.394 . S
C874 C880 1.465 . S
C875 C870 1.399 . S
C875 C874 1.394 . S
C875 C876 1.516 . S
C876 C875 1.516 . S
C876 C877 1.502 . S
C876 C878 1.561 . S
C876 C879 1.526 . S
C877 H861 0.959 . S
C877 H862 0.959 . S
C877 H863 0.961 . S
C877 C876 1.502 . S
C878 H864 0.960 . S
C878 H865 0.961 . S
C878 H866 0.959 . S
C878 C876 1.561 . S
C879 C876 1.526 . S
C879 C880 1.396 . S
C879 C884 1.390 . S
C880 C874 1.465 . S
C880 C879 1.396 . S
C880 C881 1.399 . S
C881 H867 0.929 . S
C881 C880 1.399 . S
C881 C882 1.385 . S
C882 H868 0.931 . S
C882 C881 1.385 . S
C882 C883 1.389 . S
C883 C882 1.389 . S
C883 C884 1.387 . S
C884 H869 0.930 . S
C884 C879 1.390 . S
C884 C883 1.387 . S
H885 C897 0.930 . S
H886 C899 0.930 . S
H887 C900 0.930 . S
H888 C904 0.959 . S
H889 C904 0.959 . S
H890 C904 0.961 . S
H891 C905 0.960 . S
H892 C905 0.961 . S
H893 C905 0.959 . S
H894 C908 0.929 . S
H895 C909 0.931 . S
H896 C911 0.930 . S
C897 H885 0.930 . S
C897 C898 1.399 . S
C897 C902 1.399 . S
C898 C897 1.399 . S
C898 C899 1.376 . S
C899 H886 0.930 . S
C899 C898 1.376 . S
C899 C900 1.388 . S
C900 H887 0.930 . S
C900 C899 1.388 . S
C900 C901 1.390 . S
C901 C900 1.390 . S
C901 C902 1.394 . S
C901 C907 1.465 . S
C902 C897 1.399 . S
C902 C901 1.394 . S
C902 C903 1.516 . S
C903 C902 1.516 . S
C903 C904 1.502 . S
C903 C905 1.561 . S
C903 C906 1.526 . S
C904 H888 0.959 . S
C904 H889 0.959 . S
C904 H890 0.961 . S
C904 C903 1.502 . S
C905 H891 0.960 . S
C905 H892 0.961 . S
C905 H893 0.959 . S
C905 C903 1.561 . S
C906 C903 1.526 . S
C906 C907 1.396 . S
C906 C911 1.390 . S
C907 C901 1.465 . S
C907 C906 1.396 . S
C907 C908 1.399 . S
C908 H894 0.929 . S
C908 C907 1.399 . S
C908 C909 1.385 . S
C909 H895 0.931 . S
C909 C908 1.385 . S
C909 C910 1.389 . S
C910 C909 1.389 . S
C910 C911 1.387 . S
C911 H896 0.930 . S
C911 C906 1.390 . S
C911 C910 1.387 . S
H912 C924 0.930 . S
H913 C926 0.930 . S
H914 C927 0.930 . S
H915 C931 0.959 . S
H916 C931 0.959 . S
H917 C931 0.961 . S
H918 C932 0.960 . S
H919 C932 0.961 . S
H920 C932 0.959 . S
H921 C935 0.929 . S
H922 C936 0.931 . S
H923 C938 0.930 . S
C924 H912 0.930 . S
C924 C925 1.399 . S
C924 C929 1.399 . S
C925 C924 1.399 . S
C925 C926 1.376 . S
C926 H913 0.930 . S
C926 C925 1.376 . S
C926 C927 1.388 . S
C927 H914 0.930 . S
C927 C926 1.388 . S
C927 C928 1.390 . S
C928 C927 1.390 . S
C928 C929 1.394 . S
C928 C934 1.465 . S
C929 C924 1.399 . S
C929 C928 1.394 . S
C929 C930 1.516 . S
C930 C929 1.516 . S
C930 C931 1.502 . S
C930 C932 1.561 . S
C930 C933 1.526 . S
C931 H915 0.959 . S
C931 H916 0.959 . S
C931 H917 0.961 . S
C931 C930 1.502 . S
C932 H918 0.960 . S
C932 H919 0.961 . S
C932 H920 0.959 . S
C932 C930 1.561 . S
C933 C930 1.526 . S
C933 C934 1.396 . S
C933 C938 1.390 . S
C934 C928 1.465 . S
C934 C933 1.396 . S
C934 C935 1.399 . S
C935 H921 0.929 . S
C935 C934 1.399 . S
C935 C936 1.385 . S
C936 H922 0.931 . S
C936 C935 1.385 . S
C936 C937 1.389 . S
C937 C936 1.389 . S
C937 C938 1.387 . S
C938 H923 0.930 . S
C938 C933 1.390 . S
C938 C937 1.387 . S
H939 C951 0.930 . S
H940 C953 0.930 . S
H941 C954 0.930 . S
H942 C958 0.959 . S
H943 C958 0.959 . S
H944 C958 0.961 . S
H945 C959 0.960 . S
H946 C959 0.961 . S
H947 C959 0.959 . S
H948 C962 0.929 . S
H949 C963 0.931 . S
H950 C965 0.930 . S
C951 H939 0.930 . S
C951 C952 1.399 . S
C951 C956 1.399 . S
C952 C951 1.399 . S
C952 C953 1.376 . S
C953 H940 0.930 . S
C953 C952 1.376 . S
C953 C954 1.388 . S
C954 H941 0.930 . S
C954 C953 1.388 . S
C954 C955 1.390 . S
C955 C954 1.390 . S
C955 C956 1.394 . S
C955 C961 1.465 . S
C956 C951 1.399 . S
C956 C955 1.394 . S
C956 C957 1.516 . S
C957 C956 1.516 . S
C957 C958 1.502 . S
C957 C959 1.561 . S
C957 C960 1.526 . S
C958 H942 0.959 . S
C958 H943 0.959 . S
C958 H944 0.961 . S
C958 C957 1.502 . S
C959 H945 0.960 . S
C959 H946 0.961 . S
C959 H947 0.959 . S
C959 C957 1.561 . S
C960 C957 1.526 . S
C960 C961 1.396 . S
C960 C965 1.390 . S
C961 C955 1.465 . S
C961 C960 1.396 . S
C961 C962 1.399 . S
C962 H948 0.929 . S
C962 C961 1.399 . S
C962 C963 1.385 . S
C963 H949 0.931 . S
C963 C962 1.385 . S
C963 C964 1.389 . S
C964 C963 1.389 . S
C964 C965 1.387 . S
C965 H950 0.930 . S
C965 C960 1.390 . S
C965 C964 1.387 . S
H966 C978 0.930 . S
H967 C980 0.930 . S
H968 C981 0.930 . S
H969 C985 0.959 . S
H970 C985 0.959 . S
H971 C985 0.961 . S
H972 C986 0.960 . S
H973 C986 0.961 . S
H974 C986 0.959 . S
H975 C989 0.929 . S
H976 C990 0.931 . S
H977 C992 0.930 . S
C978 H966 0.930 . S
C978 C979 1.399 . S
C978 C983 1.399 . S
C979 C978 1.399 . S
C979 C980 1.376 . S
C980 H967 0.930 . S
C980 C979 1.376 . S
C980 C981 1.388 . S
C981 H968 0.930 . S
C981 C980 1.388 . S
C981 C982 1.390 . S
C982 C981 1.390 . S
C982 C983 1.394 . S
C982 C988 1.465 . S
C983 C978 1.399 . S
C983 C982 1.394 . S
C983 C984 1.516 . S
C984 C983 1.516 . S
C984 C985 1.502 . S
C984 C986 1.561 . S
C984 C987 1.526 . S
C985 H969 0.959 . S
C985 H970 0.959 . S
C985 H971 0.961 . S
C985 C984 1.502 . S
C986 H972 0.960 . S
C986 H973 0.961 . S
C986 H974 0.959 . S
C986 C984 1.561 . S
C987 C984 1.526 . S
C987 C988 1.396 . S
C987 C992 1.390 . S
C988 C982 1.465 . S
C988 C987 1.396 . S
C988 C989 1.399 . S
C989 H975 0.929 . S
C989 C988 1.399 . S
C989 C990 1.385 . S
C990 H976 0.931 . S
C990 C989 1.385 . S
C990 C991 1.389 . S
C991 C990 1.389 . S
C991 C992 1.387 . S
C992 H977 0.930 . S
C992 C987 1.390 . S
C992 C991 1.387 . S
H993 C1005 0.930 . S
H994 C1007 0.930 . S
H995 C1008 0.930 . S
H996 C1012 0.959 . S
H997 C1012 0.959 . S
H998 C1012 0.961 . S
H999 C1013 0.960 . S
H1000 C1013 0.961 . S
H1001 C1013 0.959 . S
H1002 C1016 0.929 . S
H1003 C1017 0.931 . S
H1004 C1019 0.930 . S
C1005 H993 0.930 . S
C1005 C1006 1.399 . S
C1005 C1010 1.399 . S
C1006 C1005 1.399 . S
C1006 C1007 1.376 . S
C1007 H994 0.930 . S
C1007 C1006 1.376 . S
C1007 C1008 1.388 . S
C1008 H995 0.930 . S
C1008 C1007 1.388 . S
C1008 C1009 1.390 . S
C1009 C1008 1.390 . S
C1009 C1010 1.394 . S
C1009 C1015 1.465 . S
C1010 C1005 1.399 . S
C1010 C1009 1.394 . S
C1010 C1011 1.516 . S
C1011 C1010 1.516 . S
C1011 C1012 1.502 . S
C1011 C1013 1.561 . S
C1011 C1014 1.526 . S
C1012 H996 0.959 . S
C1012 H997 0.959 . S
C1012 H998 0.961 . S
C1012 C1011 1.502 . S
C1013 H999 0.960 . S
C1013 H1000 0.961 . S
C1013 H1001 0.959 . S
C1013 C1011 1.561 . S
C1014 C1011 1.526 . S
C1014 C1015 1.396 . S
C1014 C1019 1.390 . S
C1015 C1009 1.465 . S
C1015 C1014 1.396 . S
C1015 C1016 1.399 . S
C1016 H1002 0.929 . S
C1016 C1015 1.399 . S
C1016 C1017 1.385 . S
C1017 H1003 0.931 . S
C1017 C1016 1.385 . S
C1017 C1018 1.389 . S
C1018 C1017 1.389 . S
C1018 C1019 1.387 . S
C1019 H1004 0.930 . S
C1019 C1014 1.390 . S
C1019 C1018 1.387 . S
C397 C300 1.496 . S
C385 C25 1.493 . S
C424 C303 1.491 . S
C412 C37 1.496 . S
C451 C301 1.518 . S
C439 C103 1.505 . S
C478 C302 1.493 . S
C466 C139 1.498 . S
C505 C317 1.498 . S
C493 C31 1.487 . S
C532 C331 1.508 . S
C520 C67 1.497 . S
C547 C97 1.511 . S
C559 C357 1.506 . S
C586 C371 1.501 . S
C574 C133 1.490 . S
C613 C316 1.488 . S
C601 C61 1.498 . S
C628 C73 1.501 . S
C640 C330 1.497 . S
C667 C356 1.492 . S
C655 C109 1.501 . S
C694 C370 1.503 . S
C682 C1 1.488 . S
C709 C169 1.478 . S
C721 C315 1.500 . S
C748 C288 1.500 . S
C736 C211 1.480 . S
C763 C241 1.499 . S
C775 C314 1.493 . S
C790 C253 1.486 . S
C802 C289 1.498 . S
C829 C344 1.506 . S
C817 C175 1.486 . S
C856 C358 1.500 . S
C844 C205 1.475 . S
C883 C328 1.488 . S
C871 C217 1.500 . S
C898 C283 1.512 . S
C910 C342 1.510 . S
C937 C345 1.507 . S
C925 C181 1.501 . S
C964 C359 1.497 . S
C952 C247 1.493 . S
C991 C329 1.492 . S
C979 C277 1.479 . S
C1006 C145 1.491 . S
C1018 C343 1.505 . S
