# Generated by pormake.
# Topology cml, (3,6)-cn, num edge types: 1
# Building blocks:
#     Node 0, Type 0, BuildingBlock: KAKCAD_clean_linker_0, # of connection points: 3
#     Node 1, Type 0, BuildingBlock: KAKCAD_clean_linker_0, # of connection points: 3
#     Node 2, Type 0, BuildingBlock: KAKCAD_clean_linker_0, # of connection points: 3
#     Node 3, Type 0, BuildingBlock: KAKCAD_clean_linker_0, # of connection points: 3
#     Node 4, Type 0, BuildingBlock: KAKCAD_clean_linker_0, # of connection points: 3
#     Node 5, Type 0, BuildingBlock: KAKCAD_clean_linker_0, # of connection points: 3
#     Node 6, Type 0, BuildingBlock: KAKCAD_clean_linker_0, # of connection points: 3
#     Node 7, Type 0, BuildingBlock: KAKCAD_clean_linker_0, # of connection points: 3
#     Node 8, Type 1, BuildingBlock: IZENUY_clean_sbu_0, # of connection points: 6
#     Node 9, Type 1, BuildingBlock: IZENUY_clean_sbu_0, # of connection points: 6
#     Node 10, Type 1, BuildingBlock: IZENUY_clean_sbu_0, # of connection points: 6
#     Node 11, Type 1, BuildingBlock: IZENUY_clean_sbu_0, # of connection points: 6
#     Edge 12, Type (0, 1), BuildingBlock: XIVTED_clean_linker_0, # of connection points: 2
#     Edge 13, Type (0, 1), BuildingBlock: XIVTED_clean_linker_0, # of connection points: 2
#     Edge 14, Type (0, 1), BuildingBlock: XIVTED_clean_linker_0, # of connection points: 2
#     Edge 15, Type (0, 1), BuildingBlock: XIVTED_clean_linker_0, # of connection points: 2
#     Edge 16, Type (0, 1), BuildingBlock: XIVTED_clean_linker_0, # of connection points: 2
#     Edge 17, Type (0, 1), BuildingBlock: XIVTED_clean_linker_0, # of connection points: 2
#     Edge 18, Type (0, 1), BuildingBlock: XIVTED_clean_linker_0, # of connection points: 2
#     Edge 19, Type (0, 1), BuildingBlock: XIVTED_clean_linker_0, # of connection points: 2
#     Edge 20, Type (0, 1), BuildingBlock: XIVTED_clean_linker_0, # of connection points: 2
#     Edge 21, Type (0, 1), BuildingBlock: XIVTED_clean_linker_0, # of connection points: 2
#     Edge 22, Type (0, 1), BuildingBlock: XIVTED_clean_linker_0, # of connection points: 2
#     Edge 23, Type (0, 1), BuildingBlock: XIVTED_clean_linker_0, # of connection points: 2
#     Edge 24, Type (0, 1), BuildingBlock: XIVTED_clean_linker_0, # of connection points: 2
#     Edge 25, Type (0, 1), BuildingBlock: XIVTED_clean_linker_0, # of connection points: 2
#     Edge 26, Type (0, 1), BuildingBlock: XIVTED_clean_linker_0, # of connection points: 2
#     Edge 27, Type (0, 1), BuildingBlock: XIVTED_clean_linker_0, # of connection points: 2
#     Edge 28, Type (0, 1), BuildingBlock: XIVTED_clean_linker_0, # of connection points: 2
#     Edge 29, Type (0, 1), BuildingBlock: XIVTED_clean_linker_0, # of connection points: 2
#     Edge 30, Type (0, 1), BuildingBlock: XIVTED_clean_linker_0, # of connection points: 2
#     Edge 31, Type (0, 1), BuildingBlock: XIVTED_clean_linker_0, # of connection points: 2
#     Edge 32, Type (0, 1), BuildingBlock: XIVTED_clean_linker_0, # of connection points: 2
#     Edge 33, Type (0, 1), BuildingBlock: XIVTED_clean_linker_0, # of connection points: 2
#     Edge 34, Type (0, 1), BuildingBlock: XIVTED_clean_linker_0, # of connection points: 2
#     Edge 35, Type (0, 1), BuildingBlock: XIVTED_clean_linker_0, # of connection points: 2
# Relax obj value: 0.055
# Max RMSD: 0.070
# Mean RMSD: 0.067
data_MOF--net-cml--node1-IZENUY_clean_sbu_0--node2-KAKCAD_clean_linker_0--edge1-XIVTED_clean_linker_0
_symmetry_space_group_name_H-M    P1
_symmetry_Int_Tables_number       1
_symmetry_cell_setting            triclinic
loop_
_symmetry_equiv_pos_as_xyz
'x, y, z'
_cell_length_a     43.700982
_cell_length_b     50.753872
_cell_length_c     47.081
_cell_angle_alpha  89.922467
_cell_angle_beta   89.988655
_cell_angle_gamma 89.947614
loop_
_atom_site_label
_atom_site_type_symbol
_atom_site_fract_x
_atom_site_fract_y
_atom_site_fract_z
_atom_type_partial_charge
C0 C 0.30212 0.46832 0.94278 0.0
C1 C 0.33361 0.46878 0.93686 0.0
C2 C 0.28965 0.44785 0.95896 0.0
C3 C 0.30866 0.42799 0.96995 0.0
C4 C 0.34012 0.42853 0.96408 0.0
C5 C 0.35245 0.44864 0.94747 0.0
C6 C 0.29593 0.4065 0.98743 0.0
C7 C 0.27263 0.39049 0.9767 0.0
C8 C 0.26203 0.36873 0.9923 0.0
C9 C 0.27486 0.36337 0.01913 0.0
C10 C 0.29815 0.37946 0.03029 0.0
C11 C 0.30834 0.4011 0.01422 0.0
C12 C 0.31238 0.3736 0.05834 0.0
C13 C 0.29477 0.36415 0.08125 0.0
C14 C 0.34385 0.37801 0.06256 0.0
C15 C 0.35709 0.37411 0.08916 0.0
C16 C 0.33938 0.36518 0.11206 0.0
C17 C 0.23867 0.351 0.97977 0.0
C18 C 0.21399 0.36142 0.9642 0.0
C19 C 0.24162 0.32351 0.98216 0.0
C20 C 0.22058 0.30682 0.96901 0.0
C21 C 0.19625 0.31728 0.95306 0.0
C22 C 0.19307 0.34474 0.95091 0.0
C23 C 0.30823 0.35978 0.10783 0.0
H24 H 0.28721 0.48371 0.93479 0.0
H25 H 0.2653 0.44773 0.9633 0.0
H26 H 0.35513 0.41328 0.97221 0.0
H27 H 0.37686 0.44877 0.9434 0.0
H28 H 0.26377 0.39435 0.95559 0.0
H29 H 0.32591 0.41403 0.02253 0.0
H30 H 0.26699 0.34646 0.03113 0.0
H31 H 0.27044 0.36076 0.07889 0.0
H32 H 0.35837 0.38452 0.0453 0.0
H33 H 0.38129 0.37799 0.09185 0.0
H34 H 0.21082 0.38252 0.96231 0.0
H35 H 0.26066 0.31483 0.99356 0.0
H36 H 0.29414 0.35295 0.12527 0.0
H37 H 0.17423 0.35333 0.93914 0.0
H38 H 0.22376 0.28572 0.97078 0.0
C39 C 0.70559 0.52794 0.44656 0.0
C40 C 0.67442 0.52209 0.45002 0.0
C41 C 0.71846 0.54972 0.46029 0.0
C42 C 0.70026 0.56617 0.47746 0.0
C43 C 0.66886 0.56065 0.48006 0.0
C44 C 0.65616 0.53879 0.46665 0.0
C45 C 0.71382 0.58881 0.493 0.0
C46 C 0.73612 0.60482 0.48019 0.0
C47 C 0.74824 0.62672 0.4946 0.0
C48 C 0.7379 0.6324 0.52224 0.0
C49 C 0.71529 0.61686 0.53507 0.0
C50 C 0.7037 0.59497 0.52052 0.0
C51 C 0.70226 0.62423 0.56297 0.0
C52 C 0.72121 0.62915 0.58647 0.0
C53 C 0.6704 0.62629 0.56611 0.0
C54 C 0.65766 0.63307 0.59225 0.0
C55 C 0.67648 0.63764 0.6159 0.0
C56 C 0.77055 0.64435 0.48025 0.0
C57 C 0.79399 0.63392 0.46312 0.0
C58 C 0.76815 0.67183 0.48314 0.0
C59 C 0.78883 0.68849 0.46945 0.0
C60 C 0.81229 0.67808 0.45242 0.0
C61 C 0.81459 0.65063 0.44928 0.0
C62 C 0.70839 0.63555 0.61285 0.0
H63 H 0.72015 0.51527 0.4339 0.0
H64 H 0.74276 0.5533 0.458 0.0
H65 H 0.65398 0.57327 0.49243 0.0
H66 H 0.63192 0.53499 0.4692 0.0
H67 H 0.74315 0.60086 0.45854 0.0
H68 H 0.68674 0.58266 0.53083 0.0
H69 H 0.74689 0.64929 0.53356 0.0
H70 H 0.74585 0.62761 0.58453 0.0
H71 H 0.65532 0.62279 0.54825 0.0
H72 H 0.63299 0.63427 0.59409 0.0
H73 H 0.79666 0.61283 0.4607 0.0
H74 H 0.74997 0.68055 0.49563 0.0
H75 H 0.72337 0.63905 0.63078 0.0
H76 H 0.83268 0.64205 0.43655 0.0
H77 H 0.7862 0.70959 0.47191 0.0
C78 C 0.67236 0.45298 0.9424 0.0
C79 C 0.67107 0.47711 0.95711 0.0
C80 C 0.68564 0.43074 0.9549 0.0
C81 C 0.69764 0.432 0.98252 0.0
C82 C 0.69665 0.45609 0.99717 0.0
C83 C 0.68367 0.47841 0.98457 0.0
C84 C 0.71058 0.40816 0.99632 0.0
C85 C 0.73111 0.39176 0.98167 0.0
C86 C 0.74385 0.36961 0.99506 0.0
C87 C 0.73559 0.3636 0.02314 0.0
C88 C 0.71425 0.37922 0.03781 0.0
C89 C 0.7021 0.40163 0.02424 0.0
C90 C 0.70374 0.37169 0.06681 0.0
C91 C 0.69885 0.34509 0.07393 0.0
C92 C 0.69728 0.39109 0.08723 0.0
C93 C 0.68525 0.38417 0.11369 0.0
C94 C 0.67971 0.35761 0.12062 0.0
C95 C 0.76564 0.35247 0.97974 0.0
C96 C 0.75734 0.34083 0.95382 0.0
C97 C 0.79456 0.34708 0.99136 0.0
C98 C 0.81492 0.33038 0.97725 0.0
C99 C 0.80643 0.31834 0.95159 0.0
C100 C 0.77746 0.32366 0.94 0.0
C101 C 0.68714 0.33813 0.10054 0.0
H102 H 0.66242 0.45103 0.92145 0.0
H103 H 0.68579 0.41235 0.94324 0.0
H104 H 0.70612 0.4577 0.01836 0.0
H105 H 0.68365 0.4967 0.99637 0.0
H106 H 0.73779 0.39658 0.9601 0.0
H107 H 0.68517 0.41361 0.035 0.0
H108 H 0.7456 0.34651 0.03338 0.0
H109 H 0.70325 0.32959 0.05868 0.0
H110 H 0.7012 0.41174 0.08271 0.0
H111 H 0.67947 0.39981 0.12835 0.0
H112 H 0.73506 0.34463 0.94457 0.0
H113 H 0.80142 0.3559 0.01132 0.0
H114 H 0.68364 0.31746 0.10522 0.0
H115 H 0.77052 0.31468 0.92016 0.0
H116 H 0.83709 0.32646 0.98665 0.0
C117 C 0.30467 0.64179 0.60521 0.0
C118 C 0.33631 0.63796 0.60848 0.0
C119 C 0.29058 0.63666 0.57906 0.0
C120 C 0.308 0.62777 0.55582 0.0
C121 C 0.33986 0.62533 0.55888 0.0
C122 C 0.35381 0.63025 0.58491 0.0
C123 C 0.29323 0.62003 0.5287 0.0
C124 C 0.27005 0.63551 0.5165 0.0
C125 C 0.25734 0.62875 0.49 0.0
C126 C 0.26776 0.60592 0.47602 0.0
C127 C 0.29109 0.59048 0.48792 0.0
C128 C 0.30338 0.59746 0.51431 0.0
C129 C 0.30469 0.56828 0.47201 0.0
C130 C 0.28668 0.54731 0.46211 0.0
C131 C 0.33638 0.5679 0.46721 0.0
C132 C 0.34992 0.54694 0.45284 0.0
C133 C 0.33212 0.52573 0.44325 0.0
C134 C 0.23484 0.64658 0.47615 0.0
C135 C 0.21166 0.65882 0.4921 0.0
C136 C 0.23725 0.65237 0.44702 0.0
C137 C 0.21715 0.67018 0.4342 0.0
C138 C 0.19423 0.68268 0.45022 0.0
C139 C 0.19159 0.6767 0.47928 0.0
C140 C 0.30037 0.52599 0.44808 0.0
H141 H 0.29071 0.6477 0.62312 0.0
H142 H 0.26598 0.63871 0.57734 0.0
H143 H 0.35405 0.61927 0.54119 0.0
H144 H 0.37835 0.62767 0.58673 0.0
H145 H 0.26297 0.6535 0.527 0.0
H146 H 0.32114 0.58524 0.52356 0.0
H147 H 0.25843 0.60057 0.45549 0.0
H148 H 0.26219 0.54721 0.46569 0.0
H149 H 0.35071 0.58392 0.47455 0.0
H150 H 0.37446 0.54712 0.4496 0.0
H151 H 0.20897 0.65454 0.5145 0.0
H152 H 0.25521 0.6437 0.43422 0.0
H153 H 0.2862 0.50986 0.44079 0.0
H154 H 0.17386 0.6857 0.4921 0.0
H155 H 0.22004 0.67464 0.41186 0.0
C156 C 0.80131 0.96739 0.94181 0.0
C157 C 0.83263 0.97233 0.94563 0.0
C158 C 0.78734 0.94623 0.95581 0.0
C159 C 0.80459 0.92953 0.97356 0.0
C160 C 0.83621 0.93398 0.97626 0.0
C161 C 0.85 0.95524 0.96264 0.0
C162 C 0.78983 0.90789 0.98984 0.0
C163 C 0.76682 0.89231 0.97756 0.0
C164 C 0.7537 0.87127 0.99275 0.0
C165 C 0.76369 0.86605 0.02059 0.0
C166 C 0.78696 0.88116 0.03291 0.0
C167 C 0.79954 0.90222 0.01763 0.0
C168 C 0.79973 0.87394 0.06095 0.0
C169 C 0.78059 0.86963 0.08448 0.0
C170 C 0.8315 0.87113 0.06412 0.0
C171 C 0.84398 0.86418 0.09031 0.0
C172 C 0.82498 0.86013 0.11397 0.0
C173 C 0.73077 0.85389 0.97904 0.0
C174 C 0.70766 0.86445 0.96162 0.0
C175 C 0.73218 0.82646 0.98299 0.0
C176 C 0.7108 0.80999 0.9701 0.0
C177 C 0.68765 0.82053 0.9528 0.0
C178 C 0.68635 0.84791 0.94856 0.0
C179 C 0.79316 0.86301 0.1109 0.0
H180 H 0.78748 0.98041 0.92882 0.0
H181 H 0.76292 0.94342 0.95338 0.0
H182 H 0.85038 0.92108 0.98905 0.0
H183 H 0.87432 0.95841 0.96548 0.0
H184 H 0.76003 0.89588 0.95576 0.0
H185 H 0.81702 0.91423 0.02756 0.0
H186 H 0.75394 0.84979 0.03247 0.0
H187 H 0.75601 0.87173 0.08252 0.0
H188 H 0.84671 0.87411 0.04623 0.0
H189 H 0.8686 0.86238 0.09216 0.0
H190 H 0.7058 0.88552 0.95838 0.0
H191 H 0.7501 0.81763 0.99573 0.0
H192 H 0.77806 0.85994 0.12884 0.0
H193 H 0.66855 0.85657 0.93554 0.0
H194 H 0.71266 0.78891 0.97335 0.0
C195 C 0.18888 0.0398 0.43487 0.0
C196 C 0.15769 0.0346 0.43983 0.0
C197 C 0.20447 0.0586 0.45109 0.0
C198 C 0.18917 0.07288 0.47241 0.0
C199 C 0.15794 0.06783 0.47708 0.0
C200 C 0.14259 0.04876 0.46134 0.0
C201 C 0.20531 0.0932 0.48963 0.0
C202 C 0.22757 0.1096 0.4773 0.0
C203 C 0.24133 0.12993 0.49305 0.0
C204 C 0.23256 0.1338 0.5215 0.0
C205 C 0.21003 0.1179 0.53392 0.0
C206 C 0.19712 0.09733 0.51815 0.0
C207 C 0.19762 0.12418 0.56236 0.0
C208 C 0.21688 0.12712 0.58605 0.0
C209 C 0.16594 0.12754 0.56571 0.0
C210 C 0.15366 0.13378 0.59217 0.0
C211 C 0.17274 0.13648 0.61596 0.0
C212 C 0.26336 0.14813 0.47917 0.0
C213 C 0.28576 0.1385 0.4604 0.0
C214 C 0.26161 0.17541 0.48405 0.0
C215 C 0.28185 0.19264 0.4706 0.0
C216 C 0.30428 0.18302 0.45189 0.0
C217 C 0.30598 0.15577 0.44687 0.0
C218 C 0.20446 0.13293 0.61277 0.0
H219 H 0.20128 0.02953 0.41834 0.0
H220 H 0.22858 0.06175 0.44703 0.0
H221 H 0.14507 0.07875 0.4928 0.0
H222 H 0.11882 0.04502 0.46639 0.0
H223 H 0.23317 0.10741 0.45501 0.0
H224 H 0.18026 0.08476 0.52821 0.0
H225 H 0.24252 0.14971 0.53373 0.0
H226 H 0.24138 0.12459 0.58392 0.0
H227 H 0.15065 0.12561 0.54772 0.0
H228 H 0.12911 0.13616 0.59411 0.0
H229 H 0.28787 0.11757 0.4564 0.0
H230 H 0.24421 0.18354 0.49789 0.0
H231 H 0.21962 0.13496 0.63084 0.0
H232 H 0.32328 0.14774 0.43286 0.0
H233 H 0.27964 0.21357 0.47456 0.0
C234 C 0.18224 0.95875 0.94015 0.0
C235 C 0.18203 0.98318 0.9543 0.0
C236 C 0.19573 0.93662 0.95265 0.0
C237 C 0.20904 0.93829 0.97971 0.0
C238 C 0.20961 0.96277 0.99359 0.0
C239 C 0.19642 0.985 0.98097 0.0
C240 C 0.22035 0.91419 0.99418 0.0
C241 C 0.23886 0.89594 0.97975 0.0
C242 C 0.24804 0.87233 0.99298 0.0
C243 C 0.23807 0.86704 0.02084 0.0
C244 C 0.21973 0.88517 0.03554 0.0
C245 C 0.21121 0.90878 0.02214 0.0
C246 C 0.20808 0.87912 0.0644 0.0
C247 C 0.19433 0.8547 0.07026 0.0
C248 C 0.20889 0.89838 0.08576 0.0
C249 C 0.19512 0.89374 0.11205 0.0
C250 C 0.17994 0.86982 0.11749 0.0
C251 C 0.26787 0.85312 0.97776 0.0
C252 C 0.26341 0.84786 0.94872 0.0
C253 C 0.2914 0.8398 0.99224 0.0
C254 C 0.30987 0.82156 0.97813 0.0
C255 C 0.30539 0.8163 0.94913 0.0
C256 C 0.28203 0.82971 0.93455 0.0
C257 C 0.18032 0.85011 0.09652 0.0
H258 H 0.17097 0.95638 0.91984 0.0
H259 H 0.19462 0.91792 0.94162 0.0
H260 H 0.22004 0.96466 0.01437 0.0
H261 H 0.19729 0.00355 0.99227 0.0
H262 H 0.24644 0.90037 0.95836 0.0
H263 H 0.19622 0.92245 0.03308 0.0
H264 H 0.24437 0.84869 0.03109 0.0
H265 H 0.19318 0.83957 0.05409 0.0
H266 H 0.21977 0.91723 0.08195 0.0
H267 H 0.19587 0.90913 0.12794 0.0
H268 H 0.24521 0.85746 0.93701 0.0
H269 H 0.29587 0.84372 0.01447 0.0
H270 H 0.16859 0.83158 0.09984 0.0
H271 H 0.27781 0.82586 0.91227 0.0
H272 H 0.32803 0.81188 0.98983 0.0
C273 C 0.80094 0.14088 0.61157 0.0
C274 C 0.83181 0.13472 0.61658 0.0
C275 C 0.78768 0.13545 0.58509 0.0
C276 C 0.80523 0.12403 0.56323 0.0
C277 C 0.83648 0.11917 0.56808 0.0
C278 C 0.84951 0.12426 0.59447 0.0
C279 C 0.79141 0.11654 0.53551 0.0
C280 C 0.77005 0.13287 0.52184 0.0
C281 C 0.75934 0.1266 0.49454 0.0
C282 C 0.77019 0.10387 0.48079 0.0
C283 C 0.79098 0.08693 0.49445 0.0
C284 C 0.80081 0.09323 0.52202 0.0
C285 C 0.80329 0.06306 0.47998 0.0
C286 C 0.78479 0.04758 0.46209 0.0
C287 C 0.83391 0.05541 0.48433 0.0
C288 C 0.84547 0.0326 0.47185 0.0
C289 C 0.82694 0.01708 0.45425 0.0
C290 C 0.73731 0.14418 0.4801 0.0
C291 C 0.70941 0.15057 0.49317 0.0
C292 C 0.74411 0.15475 0.45325 0.0
C293 C 0.72344 0.17172 0.43983 0.0
C294 C 0.6954 0.1779 0.45279 0.0
C295 C 0.68847 0.16707 0.47949 0.0
C296 C 0.7966 0.0249 0.44916 0.0
H297 H 0.78689 0.14896 0.6284 0.0
H298 H 0.76355 0.13942 0.58204 0.0
H299 H 0.85095 0.1112 0.5515 0.0
H300 H 0.87351 0.11978 0.59771 0.0
H301 H 0.76259 0.15098 0.53187 0.0
H302 H 0.81598 0.07986 0.53317 0.0
H303 H 0.76252 0.09956 0.45941 0.0
H304 H 0.76106 0.0527 0.45844 0.0
H305 H 0.84917 0.06718 0.49723 0.0
H306 H 0.86915 0.02729 0.47562 0.0
H307 H 0.70372 0.14255 0.51385 0.0
H308 H 0.76558 0.15016 0.44286 0.0
H309 H 0.78189 0.01321 0.43561 0.0
H310 H 0.66704 0.17171 0.48993 0.0
H311 H 0.72919 0.17979 0.4192 0.0
Fe312 Fe 0.00112 0.81307 0.3153 0.0
Fe313 Fe 0.00014 0.84357 0.37167 0.0
O314 O 0.99866 0.84327 0.33407 0.0
Fe315 Fe 0.99468 0.87322 0.3152 0.0
O316 O 0.95914 0.86239 0.29933 0.0
O317 O 0.97614 0.8236 0.286 0.0
O318 O 0.9671 0.80042 0.3328 0.0
C319 C 0.96376 0.79898 0.35938 0.0
C320 C 0.03705 0.84453 0.28197 0.0
O321 O 0.9811 0.81171 0.37595 0.0
C322 C 0.03492 0.88841 0.35614 0.0
O323 O 0.02647 0.79714 0.34123 0.0
O324 O 0.03773 0.82838 0.37179 0.0
O325 O 0.01708 0.86244 0.28449 0.0
O326 O 0.03537 0.8237 0.29655 0.0
C327 C 0.95541 0.88019 0.36247 0.0
O328 O 0.01928 0.87565 0.37412 0.0
O329 O 0.03007 0.886 0.3299 0.0
C330 C 0.04377 0.80655 0.36026 0.0
O331 O 0.96262 0.85872 0.37422 0.0
O332 O 0.97141 0.88952 0.34243 0.0
C333 C 0.95632 0.8418 0.28463 0.0
Fe334 Fe 0.00022 0.15692 0.87669 0.0
Fe335 Fe 0.00422 0.12604 0.82092 0.0
O336 O 0.00221 0.15646 0.83915 0.0
Fe337 Fe 0.00211 0.1865 0.81978 0.0
O338 O 0.03706 0.19731 0.83709 0.0
O339 O 0.02172 0.18764 0.88037 0.0
O340 O 0.03646 0.13968 0.88015 0.0
C341 C 0.04256 0.11786 0.86864 0.0
C342 C 0.95974 0.19618 0.86412 0.0
O343 O 0.02634 0.10908 0.84851 0.0
C344 C 0.96376 0.15645 0.78734 0.0
O345 O 0.97854 0.12626 0.87972 0.0
O346 O 0.96807 0.11505 0.83578 0.0
O347 O 0.9782 0.20443 0.84539 0.0
O348 O 0.96379 0.17413 0.8759 0.0
C349 C 0.04459 0.15495 0.78952 0.0
O350 O 0.98249 0.13757 0.79012 0.0
O351 O 0.96709 0.17751 0.80126 0.0
C352 C 0.96224 0.11395 0.86198 0.0
O353 O 0.04048 0.13483 0.80477 0.0
O354 O 0.02609 0.17415 0.79063 0.0
C355 C 0.04034 0.19885 0.86368 0.0
Fe356 Fe 0.50163 0.31143 0.32017 0.0
Fe357 Fe 0.50309 0.34144 0.37683 0.0
O358 O 0.50387 0.34158 0.33922 0.0
Fe359 Fe 0.50693 0.37195 0.32095 0.0
O360 O 0.4712 0.36647 0.3026 0.0
O361 O 0.48002 0.32537 0.29017 0.0
O362 O 0.46501 0.30324 0.3362 0.0
C363 C 0.46043 0.30178 0.36259 0.0
C364 C 0.54492 0.33789 0.28906 0.0
O365 O 0.47891 0.31219 0.37989 0.0
C366 C 0.54658 0.38101 0.36449 0.0
O367 O 0.52295 0.2923 0.34695 0.0
O368 O 0.53778 0.32194 0.3782 0.0
O369 O 0.52925 0.35871 0.29144 0.0
O370 O 0.53803 0.31726 0.30258 0.0
C371 C 0.46572 0.38331 0.36569 0.0
O372 O 0.52723 0.37064 0.38104 0.0
O373 O 0.54308 0.37965 0.33798 0.0
C374 C 0.54104 0.2998 0.36641 0.0
O375 O 0.46827 0.36108 0.37754 0.0
O376 O 0.48499 0.39071 0.34724 0.0
C377 C 0.46489 0.34658 0.28772 0.0
Fe378 Fe 0.49892 0.65428 0.8733 0.0
Fe379 Fe 0.50629 0.62491 0.81676 0.0
O380 O 0.50173 0.65475 0.83575 0.0
Fe381 Fe 0.49992 0.68507 0.81694 0.0
O382 O 0.5335 0.6974 0.8351 0.0
O383 O 0.51904 0.68564 0.87812 0.0
O384 O 0.53577 0.6381 0.87725 0.0
C385 C 0.54309 0.61668 0.86553 0.0
C386 C 0.45636 0.69215 0.86098 0.0
O387 O 0.52825 0.60809 0.84445 0.0
C388 C 0.46487 0.6539 0.78282 0.0
O389 O 0.47822 0.62293 0.87488 0.0
O390 O 0.4705 0.61204 0.8302 0.0
O391 O 0.47414 0.7014 0.84224 0.0
O392 O 0.46186 0.67026 0.87251 0.0
C393 C 0.54547 0.65633 0.78719 0.0
O394 O 0.48498 0.63612 0.78553 0.0
O395 O 0.46607 0.67461 0.79757 0.0
C396 C 0.46343 0.61043 0.85611 0.0
O397 O 0.54246 0.63581 0.80205 0.0
O398 O 0.52553 0.67445 0.78813 0.0
C399 C 0.53646 0.6986 0.86174 0.0
H400 H 0.17336 0.32113 0.89901 0.0
H401 H 0.05973 0.19949 0.91854 0.0
H402 H 0.16901 0.27316 0.97464 0.0
H403 H 0.07622 0.23611 0.83712 0.0
H404 H 0.0984 0.22775 0.93962 0.0
H405 H 0.13632 0.29178 0.87619 0.0
C406 C 0.16453 0.30446 0.91082 0.0
C407 C 0.1742 0.29956 0.93878 0.0
C408 C 0.09369 0.22961 0.91712 0.0
C409 C 0.13205 0.26595 0.91283 0.0
C410 C 0.07149 0.21352 0.90505 0.0
C411 C 0.06458 0.21555 0.87603 0.0
C412 C 0.10904 0.24809 0.90016 0.0
C413 C 0.08082 0.23392 0.85959 0.0
C414 C 0.14359 0.28764 0.89773 0.0
C415 C 0.16239 0.27752 0.95299 0.0
N416 N 0.10221 0.24964 0.87195 0.0
N417 N 0.14183 0.26161 0.9399 0.0
H418 H 0.84113 0.72071 0.47529 0.0
H419 H 0.92872 0.76138 0.33249 0.0
H420 H 0.83402 0.67593 0.39773 0.0
H421 H 0.9465 0.79552 0.41483 0.0
H422 H 0.89143 0.73163 0.35463 0.0
H423 H 0.87726 0.75026 0.45202 0.0
C424 C 0.84708 0.71719 0.45328 0.0
C425 C 0.83451 0.69589 0.43839 0.0
C426 C 0.90359 0.74563 0.36778 0.0
C427 C 0.87609 0.72955 0.4116 0.0
C428 C 0.92479 0.76265 0.35516 0.0
C429 C 0.94087 0.7809 0.37184 0.0
C430 C 0.8983 0.7471 0.39718 0.0
C431 C 0.93483 0.78168 0.40112 0.0
C432 C 0.86786 0.73397 0.44004 0.0
C433 C 0.8434 0.69201 0.41003 0.0
N434 N 0.91405 0.76508 0.41279 0.0
N435 N 0.8636 0.70876 0.39749 0.0
H436 H 0.79548 0.26797 0.9339 0.0
H437 H 0.95762 0.24976 0.85943 0.0
H438 H 0.86576 0.32748 0.93661 0.0
H439 H 0.90762 0.18365 0.89373 0.0
H440 H 0.9194 0.27957 0.87953 0.0
H441 H 0.83197 0.23768 0.9112 0.0
C442 C 0.81854 0.27466 0.92951 0.0
C443 C 0.82777 0.30015 0.93713 0.0
C444 C 0.91679 0.25853 0.88257 0.0
C445 C 0.86923 0.26594 0.91109 0.0
C446 C 0.93847 0.24149 0.87099 0.0
C447 C 0.93586 0.21417 0.87503 0.0
C448 C 0.89199 0.24821 0.89785 0.0
C449 C 0.9106 0.20459 0.89031 0.0
C450 C 0.83931 0.25739 0.91675 0.0
C451 C 0.85789 0.30789 0.9312 0.0
N452 N 0.88952 0.22161 0.90109 0.0
N453 N 0.87753 0.2909 0.91837 0.0
H454 H 0.17461 0.73018 0.47122 0.0
H455 H 0.06578 0.76039 0.33854 0.0
H456 H 0.16631 0.67929 0.39827 0.0
H457 H 0.07844 0.81452 0.40824 0.0
H458 H 0.10367 0.7311 0.35966 0.0
H459 H 0.13993 0.76161 0.44847 0.0
C460 C 0.16539 0.72556 0.45047 0.0
C461 C 0.17331 0.70202 0.43666 0.0
C462 C 0.09831 0.74944 0.3703 0.0
C463 C 0.13385 0.73803 0.41037 0.0
C464 C 0.07665 0.76621 0.35823 0.0
C465 C 0.06871 0.7899 0.37173 0.0
C466 C 0.11212 0.75625 0.39618 0.0
C467 C 0.08377 0.79644 0.39711 0.0
C468 C 0.14577 0.74361 0.4374 0.0
C469 C 0.16107 0.69728 0.40958 0.0
N470 N 0.10459 0.77961 0.40862 0.0
N471 N 0.14189 0.71507 0.39739 0.0
H472 H 0.65715 0.77949 0.9773 0.0
H473 H 0.57199 0.7356 0.83466 0.0
H474 H 0.66644 0.82146 0.898 0.0
H475 H 0.5524 0.70314 0.91755 0.0
H476 H 0.6087 0.76578 0.85658 0.0
H477 H 0.62063 0.74978 0.95482 0.0
C478 C 0.65154 0.78238 0.9551 0.0
C479 C 0.66488 0.80289 0.93945 0.0
C480 C 0.59629 0.75206 0.86992 0.0
C481 C 0.62297 0.76905 0.91358 0.0
C482 C 0.5754 0.73479 0.85743 0.0
C483 C 0.55901 0.71686 0.8743 0.0
C484 C 0.60096 0.75123 0.89943 0.0
C485 C 0.56438 0.71669 0.9037 0.0
C486 C 0.63058 0.76551 0.94231 0.0
C487 C 0.65647 0.806 0.91086 0.0
N488 N 0.58491 0.73357 0.91528 0.0
N489 N 0.63612 0.78917 0.89878 0.0
H490 H 0.3339 0.22483 0.47585 0.0
H491 H 0.42365 0.26634 0.33429 0.0
H492 H 0.32442 0.18304 0.39656 0.0
H493 H 0.4398 0.30008 0.41709 0.0
H494 H 0.38419 0.23794 0.35523 0.0
H495 H 0.36982 0.25489 0.45315 0.0
C496 C 0.33923 0.22209 0.45358 0.0
C497 C 0.32611 0.2014 0.43808 0.0
C498 C 0.39637 0.25163 0.36873 0.0
C499 C 0.36757 0.23567 0.41192 0.0
C500 C 0.41879 0.2679 0.35679 0.0
C501 C 0.43523 0.28547 0.374 0.0
C502 C 0.39025 0.25314 0.398 0.0
C503 C 0.42796 0.28667 0.40302 0.0
C504 C 0.3599 0.23918 0.44064 0.0
C505 C 0.33427 0.19857 0.40938 0.0
N506 N 0.40611 0.27072 0.41406 0.0
N507 N 0.35448 0.21553 0.39719 0.0
H508 H 0.33174 0.82088 0.89649 0.0
H509 H 0.41819 0.6819 0.90593 0.0
H510 H 0.32423 0.7678 0.96782 0.0
H511 H 0.43691 0.74024 0.84137 0.0
H512 H 0.37929 0.71101 0.92595 0.0
H513 H 0.36595 0.78944 0.87315 0.0
C514 C 0.33708 0.80251 0.90713 0.0
C515 C 0.32524 0.79701 0.93421 0.0
C516 C 0.39183 0.7174 0.90734 0.0
C517 C 0.36449 0.76102 0.90771 0.0
C518 C 0.41402 0.70075 0.89583 0.0
C519 C 0.43109 0.7087 0.87204 0.0
C520 C 0.38651 0.74217 0.89494 0.0
C521 C 0.4245 0.73334 0.85984 0.0
C522 C 0.35674 0.78464 0.89387 0.0
C523 C 0.33319 0.77301 0.94713 0.0
N524 N 0.40282 0.74922 0.87148 0.0
N525 N 0.35233 0.75593 0.93378 0.0
H526 H 0.70608 0.22734 0.43223 0.0
H527 H 0.54099 0.24595 0.3638 0.0
H528 H 0.6351 0.16897 0.44129 0.0
H529 H 0.59408 0.3118 0.39422 0.0
H530 H 0.57921 0.21582 0.38384 0.0
H531 H 0.6689 0.25717 0.40985 0.0
C532 C 0.68269 0.22081 0.42931 0.0
C533 C 0.67348 0.19579 0.43862 0.0
C534 C 0.58243 0.23687 0.38604 0.0
C535 C 0.6312 0.22948 0.41294 0.0
C536 C 0.56077 0.25406 0.37453 0.0
C537 C 0.56434 0.28139 0.37749 0.0
C538 C 0.60812 0.24713 0.40007 0.0
C539 C 0.59036 0.29084 0.39167 0.0
C540 C 0.66154 0.23781 0.41672 0.0
C541 C 0.64294 0.18822 0.43454 0.0
N542 N 0.61138 0.27373 0.40232 0.0
N543 N 0.62287 0.20496 0.42182 0.0
H544 H 0.37082 0.46565 0.89051 0.0
H545 H 0.43031 0.6113 0.90512 0.0
H546 H 0.32803 0.52144 0.94697 0.0
H547 H 0.44251 0.5669 0.8278 0.0
H548 H 0.3938 0.57821 0.92168 0.0
H549 H 0.39837 0.50193 0.86757 0.0
C550 C 0.36703 0.48562 0.89781 0.0
C551 C 0.34734 0.49069 0.92066 0.0
C552 C 0.40421 0.57587 0.90096 0.0
C553 C 0.37893 0.53203 0.89497 0.0
C554 C 0.42517 0.59463 0.89158 0.0
C555 C 0.43964 0.59165 0.86519 0.0
C556 C 0.39816 0.55372 0.88407 0.0
C557 C 0.43191 0.56988 0.84833 0.0
C558 C 0.38261 0.50627 0.8847 0.0
C559 C 0.34299 0.51683 0.92933 0.0
N560 N 0.41199 0.55149 0.85825 0.0
N561 N 0.35906 0.53655 0.91674 0.0
H562 H 0.67924 0.50503 0.39487 0.0
H563 H 0.56182 0.38645 0.42027 0.0
H564 H 0.63853 0.48536 0.4756 0.0
H565 H 0.58629 0.41436 0.33659 0.0
H566 H 0.59739 0.41785 0.4409 0.0
H567 H 0.6525 0.46743 0.37332 0.0
C568 C 0.66495 0.4926 0.40807 0.0
C569 C 0.66073 0.49839 0.43694 0.0
C570 C 0.59514 0.41706 0.41801 0.0
C571 C 0.63032 0.4556 0.41264 0.0
C572 C 0.57481 0.3991 0.40618 0.0
C573 C 0.57065 0.39807 0.37665 0.0
C574 C 0.6115 0.43425 0.40027 0.0
C575 C 0.58854 0.41468 0.35949 0.0
C576 C 0.64964 0.47128 0.39579 0.0
C577 C 0.64197 0.4818 0.45316 0.0
N578 N 0.60802 0.43231 0.37158 0.0
N579 N 0.6274 0.46124 0.44077 0.0
H580 H 0.63606 0.51505 0.98344 0.0
H581 H 0.57563 0.57775 0.83968 0.0
H582 H 0.67116 0.49279 0.90111 0.0
H583 H 0.5638 0.61613 0.92068 0.0
H584 H 0.61023 0.54612 0.86195 0.0
H585 H 0.60915 0.5519 0.96131 0.0
C586 C 0.6385 0.51803 0.96078 0.0
C587 C 0.65587 0.50053 0.94415 0.0
C588 C 0.60035 0.56161 0.87484 0.0
C589 C 0.62445 0.54252 0.91861 0.0
C590 C 0.58052 0.57964 0.86215 0.0
C591 C 0.56665 0.59949 0.87841 0.0
C592 C 0.606 0.5631 0.90413 0.0
C593 C 0.57401 0.60113 0.90737 0.0
C594 C 0.62297 0.53907 0.94815 0.0
C595 C 0.65757 0.5053 0.91478 0.0
N596 N 0.59289 0.58293 0.91942 0.0
N597 N 0.64186 0.52567 0.90295 0.0
H598 H 0.37158 0.52841 0.39875 0.0
H599 H 0.42288 0.37766 0.40842 0.0
H600 H 0.32725 0.47282 0.45448 0.0
H601 H 0.45474 0.43245 0.34469 0.0
H602 H 0.38644 0.41111 0.42503 0.0
H603 H 0.40093 0.49248 0.37782 0.0
C604 C 0.36792 0.50852 0.4064 0.0
C605 C 0.34718 0.50353 0.42845 0.0
C606 C 0.40131 0.41566 0.40729 0.0
C607 C 0.38091 0.46221 0.40483 0.0
C608 C 0.42214 0.39661 0.39784 0.0
C609 C 0.4422 0.40234 0.37534 0.0
C610 C 0.40066 0.44056 0.39419 0.0
C611 C 0.44004 0.42717 0.36231 0.0
C612 C 0.38462 0.48798 0.39445 0.0
C613 C 0.34302 0.4774 0.43744 0.0
N614 N 0.41987 0.44534 0.37203 0.0
N615 N 0.36004 0.45768 0.42582 0.0
H616 H 0.86682 0.00894 0.97282 0.0
H617 H 0.92639 0.07901 0.8319 0.0
H618 H 0.83181 0.9888 0.89004 0.0
H619 H 0.94394 0.10739 0.91681 0.0
H620 H 0.89066 0.04656 0.85173 0.0
H621 H 0.89453 0.04577 0.95188 0.0
C622 C 0.86495 0.01242 0.95017 0.0
C623 C 0.84732 0.99578 0.93304 0.0
C624 C 0.90217 0.06009 0.86591 0.0
C625 C 0.87908 0.03783 0.90877 0.0
C626 C 0.92259 0.07858 0.85463 0.0
C627 C 0.93855 0.0957 0.87276 0.0
C628 C 0.8979 0.05872 0.89545 0.0
C629 C 0.93253 0.09439 0.90201 0.0
C630 C 0.88065 0.0335 0.93821 0.0
C631 C 0.84525 0.00127 0.90389 0.0
N632 N 0.91294 0.0761 0.91241 0.0
N633 N 0.86129 0.02172 0.89254 0.0
H634 H 0.09731 0.03511 0.42349 0.0
H635 H 0.09032 0.90427 0.33475 0.0
H636 H 0.17933 0.98767 0.41764 0.0
H637 H 0.02409 0.92132 0.40017 0.0
H638 H 0.12228 0.94085 0.35255 0.0
H639 H 0.06853 0.99946 0.4015 0.0
C640 C 0.10938 0.01728 0.41768 0.0
C641 C 0.14081 0.01428 0.42322 0.0
C642 C 0.10073 0.93641 0.36286 0.0
C643 C 0.10798 0.97396 0.3968 0.0
C644 C 0.08257 0.91574 0.35276 0.0
C645 C 0.05477 0.90981 0.36623 0.0
C646 C 0.09027 0.95158 0.38577 0.0
C647 C 0.04556 0.92515 0.38944 0.0
C648 C 0.0929 0.99709 0.4049 0.0
C649 C 0.15523 0.99102 0.41385 0.0
N650 N 0.06311 0.94556 0.39829 0.0
N651 N 0.13865 0.97167 0.40111 0.0
H652 H 0.14865 0.02125 0.98216 0.0
H653 H 0.07226 0.07762 0.84214 0.0
H654 H 0.17722 0.99769 0.89808 0.0
H655 H 0.0682 0.11919 0.92196 0.0
H656 H 0.10964 0.04732 0.86263 0.0
H657 H 0.11847 0.05672 0.96111 0.0
C658 C 0.14903 0.02369 0.95931 0.0
C659 C 0.16548 0.00619 0.94191 0.0
C660 C 0.1008 0.06319 0.87562 0.0
C661 C 0.13021 0.04652 0.91768 0.0
C662 C 0.07935 0.08043 0.86397 0.0
C663 C 0.06692 0.10083 0.88045 0.0
C664 C 0.10958 0.06605 0.90412 0.0
C665 C 0.07718 0.1037 0.90853 0.0
C666 C 0.1316 0.04392 0.94732 0.0
C667 C 0.16444 0.01023 0.91238 0.0
N668 N 0.09766 0.08628 0.91961 0.0
N669 N 0.14688 0.02977 0.90122 0.0
H670 H 0.85785 0.97702 0.48013 0.0
H671 H 0.92443 0.92029 0.33672 0.0
H672 H 0.82582 0.0031 0.39817 0.0
H673 H 0.93057 0.87775 0.41596 0.0
H674 H 0.88791 0.95058 0.35857 0.0
H675 H 0.88432 0.94023 0.4572 0.0
C676 C 0.85619 0.97479 0.4573 0.0
C677 C 0.83986 0.99314 0.44094 0.0
C678 C 0.89694 0.93443 0.37109 0.0
C679 C 0.87028 0.95138 0.41456 0.0
C680 C 0.91788 0.9172 0.35867 0.0
C681 C 0.93079 0.89664 0.37464 0.0
C682 C 0.88924 0.93139 0.39984 0.0
C683 C 0.92125 0.89338 0.4029 0.0
C684 C 0.87117 0.95377 0.44425 0.0
C685 C 0.83815 0.98931 0.4115 0.0
N686 N 0.90138 0.91084 0.41474 0.0
N687 N 0.85358 0.96905 0.39916 0.0
H688 H 0.33955 0.32177 0.1467 0.0
H689 H 0.4386 0.39182 0.26759 0.0
H690 H 0.37148 0.40197 0.14139 0.0
H691 H 0.43916 0.3075 0.25529 0.0
H692 H 0.40432 0.39633 0.22698 0.0
H693 H 0.3668 0.31683 0.19216 0.0
C694 C 0.35202 0.33837 0.15532 0.0
C695 C 0.35357 0.36224 0.14035 0.0
C696 C 0.41183 0.37684 0.23329 0.0
C697 C 0.3843 0.35687 0.192 0.0
C698 C 0.43132 0.37421 0.25654 0.0
C699 C 0.44208 0.34924 0.26468 0.0
C700 C 0.40269 0.35435 0.21823 0.0
C701 C 0.43171 0.32715 0.24954 0.0
C702 C 0.36762 0.33553 0.18107 0.0
C703 C 0.37006 0.38318 0.15222 0.0
N704 N 0.41261 0.33022 0.22696 0.0
N705 N 0.38477 0.38002 0.17737 0.0
H706 H 0.68858 0.6153 0.66769 0.0
H707 H 0.55321 0.69332 0.74545 0.0
H708 H 0.63219 0.67408 0.6271 0.0
H709 H 0.59259 0.62139 0.77832 0.0
H710 H 0.58935 0.69191 0.706 0.0
H711 H 0.66077 0.62276 0.71227 0.0
C712 C 0.67067 0.63005 0.66832 0.0
C713 C 0.66242 0.64394 0.64369 0.0
C714 C 0.59023 0.67654 0.72197 0.0
C715 C 0.6306 0.65251 0.69435 0.0
C716 C 0.56964 0.67735 0.74457 0.0
C717 C 0.56953 0.65722 0.76506 0.0
C718 C 0.61102 0.65554 0.71984 0.0
C719 C 0.59158 0.63716 0.76284 0.0
C720 C 0.65471 0.63418 0.69366 0.0
C721 C 0.63894 0.66271 0.64554 0.0
N722 N 0.61131 0.63672 0.7405 0.0
N723 N 0.62377 0.66637 0.67039 0.0
H724 H 0.6377 0.31832 0.13105 0.0
H725 H 0.58287 0.37822 0.27589 0.0
H726 H 0.68725 0.38079 0.173 0.0
H727 H 0.56337 0.2974 0.25434 0.0
H728 H 0.62035 0.37998 0.23747 0.0
H729 H 0.60972 0.31009 0.17505 0.0
C730 C 0.64316 0.33004 0.14956 0.0
C731 C 0.66474 0.35054 0.14805 0.0
C732 C 0.60821 0.36173 0.24134 0.0
C733 C 0.63209 0.34154 0.19831 0.0
C734 C 0.58675 0.36075 0.26317 0.0
C735 C 0.56996 0.33768 0.2681 0.0
C736 C 0.6124 0.33967 0.22384 0.0
C737 C 0.57594 0.31553 0.25118 0.0
C738 C 0.62702 0.32536 0.17466 0.0
C739 C 0.67029 0.36527 0.17278 0.0
N740 N 0.59636 0.3172 0.22939 0.0
N741 N 0.65378 0.36072 0.19673 0.0
H742 H 0.33194 0.67837 0.64728 0.0
H743 H 0.45248 0.60998 0.75204 0.0
H744 H 0.3743 0.60267 0.6335 0.0
H745 H 0.42494 0.69125 0.76141 0.0
H746 H 0.41782 0.60565 0.71213 0.0
H747 H 0.36001 0.68218 0.69245 0.0
C748 C 0.34694 0.66251 0.65391 0.0
C749 C 0.35118 0.64033 0.63658 0.0
C750 C 0.41923 0.62447 0.72286 0.0
C751 C 0.38301 0.64444 0.68786 0.0
C752 C 0.43909 0.62698 0.74571 0.0
C753 C 0.44201 0.65115 0.75986 0.0
C754 C 0.40204 0.64628 0.71382 0.0
C755 C 0.42359 0.67231 0.75094 0.0
C756 C 0.36299 0.66473 0.67954 0.0
C757 C 0.37081 0.62031 0.64601 0.0
N758 N 0.4045 0.66946 0.72828 0.0
N759 N 0.386 0.62288 0.67092 0.0
H760 H 0.81323 0.88273 0.16559 0.0
H761 H 0.94886 0.80472 0.24303 0.0
H762 H 0.86837 0.82292 0.12538 0.0
H763 H 0.90891 0.87636 0.27587 0.0
H764 H 0.91233 0.80576 0.20386 0.0
H765 H 0.84098 0.8751 0.21014 0.0
C766 C 0.83084 0.8677 0.1663 0.0
C767 C 0.8388 0.85361 0.14179 0.0
C768 C 0.91142 0.82114 0.21976 0.0
C769 C 0.8706 0.84489 0.19238 0.0
C770 C 0.93224 0.82055 0.24219 0.0
C771 C 0.93228 0.84071 0.26256 0.0
C772 C 0.89038 0.84197 0.21772 0.0
C773 C 0.91 0.86059 0.26044 0.0
C774 C 0.84677 0.86348 0.19162 0.0
C775 C 0.86188 0.83448 0.14374 0.0
N776 N 0.89008 0.86083 0.23827 0.0
N777 N 0.87709 0.83077 0.16856 0.0
H778 H 0.13243 0.1757 0.62844 0.0
H779 H 0.08872 0.11732 0.77993 0.0
H780 H 0.18155 0.11107 0.66671 0.0
H781 H 0.05476 0.19159 0.74793 0.0
H782 H 0.12439 0.11527 0.73989 0.0
H783 H 0.10521 0.18263 0.6731 0.0
C784 C 0.13763 0.16312 0.64641 0.0
C785 C 0.15905 0.14268 0.64392 0.0
C786 C 0.10933 0.13213 0.74183 0.0
C787 C 0.1278 0.15026 0.69505 0.0
C788 C 0.08891 0.1333 0.76465 0.0
C789 C 0.0684 0.15451 0.76713 0.0
C790 C 0.10907 0.15219 0.72125 0.0
C791 C 0.0699 0.17473 0.7468 0.0
C792 C 0.12217 0.1671 0.67192 0.0
C793 C 0.16521 0.12708 0.66787 0.0
N794 N 0.08961 0.17293 0.7246 0.0
N795 N 0.14934 0.13096 0.69238 0.0
H796 H 0.14451 0.90644 0.14444 0.0
H797 H 0.07832 0.80761 0.26206 0.0
H798 H 0.17328 0.82522 0.15062 0.0
H799 H 0.05006 0.88858 0.25132 0.0
H800 H 0.11567 0.81364 0.22358 0.0
H801 H 0.11262 0.90036 0.18613 0.0
C802 C 0.14449 0.88737 0.15479 0.0
C803 C 0.16178 0.86634 0.14396 0.0
C804 C 0.10131 0.83005 0.22979 0.0
C805 C 0.12444 0.85901 0.19167 0.0
C806 C 0.08002 0.82664 0.25174 0.0
C807 C 0.06079 0.84754 0.25977 0.0
C808 C 0.10339 0.85456 0.21595 0.0
C809 C 0.0641 0.87178 0.24572 0.0
C810 C 0.12599 0.88383 0.17854 0.0
C811 C 0.16011 0.84192 0.15802 0.0
N812 N 0.08485 0.87456 0.22454 0.0
N813 N 0.14168 0.83888 0.18112 0.0
H814 H 0.86055 0.09703 0.64717 0.0
H815 H 0.92735 0.19552 0.764 0.0
H816 H 0.83478 0.17897 0.65021 0.0
H817 H 0.945 0.11185 0.76088 0.0
H818 H 0.89047 0.19035 0.72493 0.0
H819 H 0.88847 0.10231 0.69149 0.0
C820 C 0.86068 0.11615 0.6574 0.0
C821 C 0.84568 0.13766 0.64501 0.0
C822 C 0.9023 0.17316 0.73303 0.0
C823 C 0.87793 0.14408 0.69572 0.0
C824 C 0.92332 0.17609 0.75529 0.0
C825 C 0.93965 0.15415 0.76542 0.0
C826 C 0.89763 0.14813 0.72102 0.0
C827 C 0.9334 0.12942 0.75348 0.0
C828 C 0.87659 0.1192 0.68273 0.0
C829 C 0.84617 0.16194 0.6592 0.0
N830 N 0.9131 0.12716 0.7319 0.0
N831 N 0.86244 0.16463 0.68373 0.0
loop_
_geom_bond_atom_site_label_1
_geom_bond_atom_site_label_2
_geom_bond_distance
_geom_bond_site_symmetry_2
_ccdc_geom_bond_type
C0 C1 1.386 . S
C0 C2 1.397 . S
C0 H24 0.931 . S
C1 C0 1.386 . S
C1 C5 1.397 . S
C2 C0 1.397 . S
C2 C3 1.384 . S
C2 H25 0.930 . S
C3 C2 1.384 . S
C3 C4 1.377 . S
C3 C6 1.481 . S
C4 C3 1.377 . S
C4 C5 1.389 . S
C4 H26 0.929 . S
C5 C1 1.397 . S
C5 C4 1.389 . S
C5 H27 0.931 . S
C6 C3 1.481 . S
C6 C7 1.387 . S
C6 C11 1.390 1_556 S
C7 C6 1.387 . S
C7 C8 1.421 . S
C7 H28 0.930 . S
C8 C7 1.421 . S
C8 C9 1.341 1_556 S
C8 C17 1.526 . S
C9 C8 1.341 1_554 S
C9 C10 1.392 . S
C9 H30 0.931 . S
C10 C9 1.392 . S
C10 C11 1.361 . S
C10 C12 1.500 . S
C11 C6 1.390 1_554 S
C11 C10 1.361 . S
C11 H29 0.931 . S
C12 C10 1.500 . S
C12 C13 1.371 . S
C12 C14 1.365 . S
C13 C12 1.371 . S
C13 C23 1.386 . S
C13 H31 0.931 . S
C14 C12 1.365 . S
C14 C15 1.409 . S
C14 H32 0.929 . S
C15 C14 1.409 . S
C15 C16 1.380 . S
C15 H33 0.930 . S
C16 C15 1.380 . S
C16 C23 1.357 . S
C17 C8 1.526 . S
C17 C18 1.341 . S
C17 C19 1.371 . S
C18 C17 1.341 . S
C18 C22 1.394 . S
C18 H34 0.930 . S
C19 C17 1.371 . S
C19 C20 1.392 . S
C19 H35 0.931 1_556 S
C20 C19 1.392 . S
C20 C21 1.331 . S
C20 H38 0.932 . S
C21 C20 1.331 . S
C21 C22 1.336 . S
C22 C18 1.394 . S
C22 C21 1.336 . S
C22 H37 0.929 . S
C23 C13 1.386 . S
C23 C16 1.357 . S
C23 H36 0.928 . S
H24 C0 0.931 . S
H25 C2 0.930 . S
H26 C4 0.929 . S
H27 C5 0.931 . S
H28 C7 0.930 . S
H29 C11 0.931 . S
H30 C9 0.931 . S
H31 C13 0.931 . S
H32 C14 0.929 . S
H33 C15 0.930 . S
H34 C18 0.930 . S
H35 C19 0.931 1_554 S
H36 C23 0.928 . S
H37 C22 0.929 . S
H38 C20 0.932 . S
C39 C40 1.386 . S
C39 C41 1.397 . S
C39 H63 0.931 . S
C40 C39 1.386 . S
C40 C44 1.397 . S
C41 C39 1.397 . S
C41 C42 1.384 . S
C41 H64 0.930 . S
C42 C41 1.384 . S
C42 C43 1.377 . S
C42 C45 1.481 . S
C43 C42 1.377 . S
C43 C44 1.389 . S
C43 H65 0.929 . S
C44 C40 1.397 . S
C44 C43 1.389 . S
C44 H66 0.931 . S
C45 C42 1.481 . S
C45 C46 1.387 . S
C45 C50 1.390 . S
C46 C45 1.387 . S
C46 C47 1.401 . S
C46 H67 0.930 . S
C47 C46 1.401 . S
C47 C48 1.376 . S
C47 C56 1.511 . S
C48 C47 1.376 . S
C48 C49 1.392 . S
C48 H69 0.931 . S
C49 C48 1.392 . S
C49 C50 1.361 . S
C49 C51 1.500 . S
C50 C45 1.390 . S
C50 C49 1.361 . S
C50 H68 0.931 . S
C51 C49 1.500 . S
C51 C52 1.371 . S
C51 C53 1.365 . S
C52 C51 1.371 . S
C52 C62 1.386 . S
C52 H70 0.931 . S
C53 C51 1.365 . S
C53 C54 1.409 . S
C53 H71 0.929 . S
C54 C53 1.409 . S
C54 C55 1.380 . S
C54 H72 0.930 . S
C55 C54 1.380 . S
C55 C62 1.357 . S
C56 C47 1.511 . S
C56 C57 1.341 . S
C56 C58 1.371 . S
C57 C56 1.341 . S
C57 C61 1.394 . S
C57 H73 0.930 . S
C58 C56 1.371 . S
C58 C59 1.392 . S
C58 H74 0.931 . S
C59 C58 1.392 . S
C59 C60 1.331 . S
C59 H77 0.932 . S
C60 C59 1.331 . S
C60 C61 1.336 . S
C61 C57 1.394 . S
C61 C60 1.336 . S
C61 H76 0.929 . S
C62 C52 1.386 . S
C62 C55 1.357 . S
C62 H75 0.928 . S
H63 C39 0.931 . S
H64 C41 0.930 . S
H65 C43 0.929 . S
H66 C44 0.931 . S
H67 C46 0.930 . S
H68 C50 0.931 . S
H69 C48 0.931 . S
H70 C52 0.931 . S
H71 C53 0.929 . S
H72 C54 0.930 . S
H73 C57 0.930 . S
H74 C58 0.931 . S
H75 C62 0.928 . S
H76 C61 0.929 . S
H77 C59 0.932 . S
C78 C79 1.386 . S
C78 C80 1.397 . S
C78 H102 0.931 . S
C79 C78 1.386 . S
C79 C83 1.397 . S
C80 C78 1.397 . S
C80 C81 1.384 . S
C80 H103 0.930 . S
C81 C80 1.384 . S
C81 C82 1.377 . S
C81 C84 1.481 . S
C82 C81 1.377 . S
C82 C83 1.389 . S
C82 H104 0.929 1_556 S
C83 C79 1.397 . S
C83 C82 1.389 . S
C83 H105 0.931 . S
C84 C81 1.481 . S
C84 C85 1.387 . S
C84 C89 1.390 1_556 S
C85 C84 1.387 . S
C85 C86 1.401 . S
C85 H106 0.930 . S
C86 C85 1.401 . S
C86 C87 1.376 1_556 S
C86 C95 1.511 . S
C87 C86 1.376 1_554 S
C87 C88 1.392 . S
C87 H108 0.931 . S
C88 C87 1.392 . S
C88 C89 1.361 . S
C88 C90 1.500 . S
C89 C84 1.390 1_554 S
C89 C88 1.361 . S
C89 H107 0.931 . S
C90 C88 1.500 . S
C90 C91 1.371 . S
C90 C92 1.365 . S
C91 C90 1.371 . S
C91 C101 1.386 . S
C91 H109 0.931 . S
C92 C90 1.365 . S
C92 C93 1.409 . S
C92 H110 0.929 . S
C93 C92 1.409 . S
C93 C94 1.380 . S
C93 H111 0.930 . S
C94 C93 1.380 . S
C94 C101 1.357 . S
C95 C86 1.511 . S
C95 C96 1.341 . S
C95 C97 1.363 1_556 S
C96 C95 1.341 . S
C96 C100 1.394 . S
C96 H112 0.930 . S
C97 C95 1.363 1_554 S
C97 C98 1.387 1_554 S
C97 H113 0.945 . S
C98 C97 1.387 1_556 S
C98 C99 1.331 . S
C98 H116 0.921 1_556 S
C99 C98 1.331 . S
C99 C100 1.336 . S
C100 C96 1.394 . S
C100 C99 1.336 . S
C100 H115 0.929 . S
C101 C91 1.386 . S
C101 C94 1.357 . S
C101 H114 0.928 . S
H102 C78 0.931 . S
H103 C80 0.930 . S
H104 C82 0.929 1_554 S
H105 C83 0.931 . S
H106 C85 0.930 . S
H107 C89 0.931 . S
H108 C87 0.931 . S
H109 C91 0.931 . S
H110 C92 0.929 . S
H111 C93 0.930 . S
H112 C96 0.930 . S
H113 C97 0.945 . S
H114 C101 0.928 . S
H115 C100 0.929 . S
H116 C98 0.921 1_554 S
C117 C118 1.386 . S
C117 C119 1.397 . S
C117 H141 0.931 . S
C118 C117 1.386 . S
C118 C122 1.397 . S
C119 C117 1.397 . S
C119 C120 1.384 . S
C119 H142 0.930 . S
C120 C119 1.384 . S
C120 C121 1.377 . S
C120 C123 1.481 . S
C121 C120 1.377 . S
C121 C122 1.389 . S
C121 H143 0.929 . S
C122 C118 1.397 . S
C122 C121 1.389 . S
C122 H144 0.931 . S
C123 C120 1.481 . S
C123 C124 1.387 . S
C123 C128 1.390 . S
C124 C123 1.387 . S
C124 C125 1.401 . S
C124 H145 0.930 . S
C125 C124 1.401 . S
C125 C126 1.376 . S
C125 C134 1.511 . S
C126 C125 1.376 . S
C126 C127 1.392 . S
C126 H147 0.931 . S
C127 C126 1.392 . S
C127 C128 1.361 . S
C127 C129 1.500 . S
C128 C123 1.390 . S
C128 C127 1.361 . S
C128 H146 0.931 . S
C129 C127 1.500 . S
C129 C130 1.371 . S
C129 C131 1.365 . S
C130 C129 1.371 . S
C130 C140 1.386 . S
C130 H148 0.931 . S
C131 C129 1.365 . S
C131 C132 1.409 . S
C131 H149 0.929 . S
C132 C131 1.409 . S
C132 C133 1.380 . S
C132 H150 0.930 . S
C133 C132 1.380 . S
C133 C140 1.357 . S
C134 C125 1.511 . S
C134 C135 1.341 . S
C134 C136 1.371 . S
C135 C134 1.341 . S
C135 C139 1.394 . S
C135 H151 0.930 . S
C136 C134 1.371 . S
C136 C137 1.392 . S
C136 H152 0.931 . S
C137 C136 1.392 . S
C137 C138 1.331 . S
C137 H155 0.932 . S
C138 C137 1.331 . S
C138 C139 1.336 . S
C139 C135 1.394 . S
C139 C138 1.336 . S
C139 H154 0.929 . S
C140 C130 1.386 . S
C140 C133 1.357 . S
C140 H153 0.928 . S
H141 C117 0.931 . S
H142 C119 0.930 . S
H143 C121 0.929 . S
H144 C122 0.931 . S
H145 C124 0.930 . S
H146 C128 0.931 . S
H147 C126 0.931 . S
H148 C130 0.931 . S
H149 C131 0.929 . S
H150 C132 0.930 . S
H151 C135 0.930 . S
H152 C136 0.931 . S
H153 C140 0.928 . S
H154 C139 0.929 . S
H155 C137 0.932 . S
C156 C157 1.386 . S
C156 C158 1.397 . S
C156 H180 0.931 . S
C157 C156 1.386 . S
C157 C161 1.397 . S
C158 C156 1.397 . S
C158 C159 1.384 . S
C158 H181 0.930 . S
C159 C158 1.384 . S
C159 C160 1.377 . S
C159 C162 1.481 . S
C160 C159 1.377 . S
C160 C161 1.389 . S
C160 H182 0.929 . S
C161 C157 1.397 . S
C161 C160 1.389 . S
C161 H183 0.931 . S
C162 C159 1.481 . S
C162 C163 1.387 . S
C162 C167 1.390 1_556 S
C163 C162 1.387 . S
C163 C164 1.421 . S
C163 H184 0.930 . S
C164 C163 1.421 . S
C164 C165 1.341 1_556 S
C164 C173 1.526 . S
C165 C164 1.341 1_554 S
C165 C166 1.392 . S
C165 H186 0.931 . S
C166 C165 1.392 . S
C166 C167 1.361 . S
C166 C168 1.500 . S
C167 C162 1.390 1_554 S
C167 C166 1.361 . S
C167 H185 0.931 . S
C168 C166 1.500 . S
C168 C169 1.371 . S
C168 C170 1.365 . S
C169 C168 1.371 . S
C169 C179 1.386 . S
C169 H187 0.931 . S
C170 C168 1.365 . S
C170 C171 1.409 . S
C170 H188 0.929 . S
C171 C170 1.409 . S
C171 C172 1.380 . S
C171 H189 0.930 . S
C172 C171 1.380 . S
C172 C179 1.357 . S
C173 C164 1.526 . S
C173 C174 1.341 . S
C173 C175 1.371 . S
C174 C173 1.341 . S
C174 C178 1.394 . S
C174 H190 0.930 . S
C175 C173 1.371 . S
C175 C176 1.392 . S
C175 H191 0.931 1_556 S
C176 C175 1.392 . S
C176 C177 1.331 . S
C176 H194 0.932 . S
C177 C176 1.331 . S
C177 C178 1.336 . S
C178 C174 1.394 . S
C178 C177 1.336 . S
C178 H193 0.929 . S
C179 C169 1.386 . S
C179 C172 1.357 . S
C179 H192 0.928 . S
H180 C156 0.931 . S
H181 C158 0.930 . S
H182 C160 0.929 . S
H183 C161 0.931 . S
H184 C163 0.930 . S
H185 C167 0.931 . S
H186 C165 0.931 . S
H187 C169 0.931 . S
H188 C170 0.929 . S
H189 C171 0.930 . S
H190 C174 0.930 . S
H191 C175 0.931 1_554 S
H192 C179 0.928 . S
H193 C178 0.929 . S
H194 C176 0.932 . S
C195 C196 1.386 . S
C195 C197 1.397 . S
C195 H219 0.931 . S
C196 C195 1.386 . S
C196 C200 1.397 . S
C197 C195 1.397 . S
C197 C198 1.384 . S
C197 H220 0.930 . S
C198 C197 1.384 . S
C198 C199 1.377 . S
C198 C201 1.481 . S
C199 C198 1.377 . S
C199 C200 1.389 . S
C199 H221 0.929 . S
C200 C196 1.397 . S
C200 C199 1.389 . S
C200 H222 0.931 . S
C201 C198 1.481 . S
C201 C202 1.387 . S
C201 C206 1.390 . S
C202 C201 1.387 . S
C202 C203 1.401 . S
C202 H223 0.930 . S
C203 C202 1.401 . S
C203 C204 1.376 . S
C203 C212 1.511 . S
C204 C203 1.376 . S
C204 C205 1.392 . S
C204 H225 0.931 . S
C205 C204 1.392 . S
C205 C206 1.361 . S
C205 C207 1.500 . S
C206 C201 1.390 . S
C206 C205 1.361 . S
C206 H224 0.931 . S
C207 C205 1.500 . S
C207 C208 1.371 . S
C207 C209 1.365 . S
C208 C207 1.371 . S
C208 C218 1.386 . S
C208 H226 0.931 . S
C209 C207 1.365 . S
C209 C210 1.409 . S
C209 H227 0.929 . S
C210 C209 1.409 . S
C210 C211 1.380 . S
C210 H228 0.930 . S
C211 C210 1.380 . S
C211 C218 1.357 . S
C212 C203 1.511 . S
C212 C213 1.341 . S
C212 C214 1.371 . S
C213 C212 1.341 . S
C213 C217 1.394 . S
C213 H229 0.930 . S
C214 C212 1.371 . S
C214 C215 1.392 . S
C214 H230 0.931 . S
C215 C214 1.392 . S
C215 C216 1.331 . S
C215 H233 0.932 . S
C216 C215 1.331 . S
C216 C217 1.336 . S
C217 C213 1.394 . S
C217 C216 1.336 . S
C217 H232 0.929 . S
C218 C208 1.386 . S
C218 C211 1.357 . S
C218 H231 0.928 . S
H219 C195 0.931 . S
H220 C197 0.930 . S
H221 C199 0.929 . S
H222 C200 0.931 . S
H223 C202 0.930 . S
H224 C206 0.931 . S
H225 C204 0.931 . S
H226 C208 0.931 . S
H227 C209 0.929 . S
H228 C210 0.930 . S
H229 C213 0.930 . S
H230 C214 0.931 . S
H231 C218 0.928 . S
H232 C217 0.929 . S
H233 C215 0.932 . S
C234 C235 1.386 . S
C234 C236 1.397 . S
C234 H258 0.931 . S
C235 C234 1.386 . S
C235 C239 1.397 . S
C236 C234 1.397 . S
C236 C237 1.384 . S
C236 H259 0.930 . S
C237 C236 1.384 . S
C237 C238 1.377 . S
C237 C240 1.481 . S
C238 C237 1.377 . S
C238 C239 1.389 . S
C238 H260 0.929 1_556 S
C239 C235 1.397 . S
C239 C238 1.389 . S
C239 H261 0.931 1_565 S
C240 C237 1.481 . S
C240 C241 1.387 . S
C240 C245 1.390 1_556 S
C241 C240 1.387 . S
C241 C242 1.401 . S
C241 H262 0.930 . S
C242 C241 1.401 . S
C242 C243 1.376 1_556 S
C242 C251 1.511 . S
C243 C242 1.376 1_554 S
C243 C244 1.392 . S
C243 H264 0.931 . S
C244 C243 1.392 . S
C244 C245 1.361 . S
C244 C246 1.500 . S
C245 C240 1.390 1_554 S
C245 C244 1.361 . S
C245 H263 0.931 . S
C246 C244 1.500 . S
C246 C247 1.371 . S
C246 C248 1.365 . S
C247 C246 1.371 . S
C247 C257 1.386 . S
C247 H265 0.931 . S
C248 C246 1.365 . S
C248 C249 1.409 . S
C248 H266 0.929 . S
C249 C248 1.409 . S
C249 C250 1.380 . S
C249 H267 0.930 . S
C250 C249 1.380 . S
C250 C257 1.357 . S
C251 C242 1.511 . S
C251 C252 1.341 . S
C251 C253 1.363 1_556 S
C252 C251 1.341 . S
C252 C256 1.394 . S
C252 H268 0.930 . S
C253 C251 1.363 1_554 S
C253 C254 1.387 1_554 S
C253 H269 0.945 . S
C254 C253 1.387 1_556 S
C254 C255 1.331 . S
C254 H272 0.921 1_556 S
C255 C254 1.331 . S
C255 C256 1.336 . S
C256 C252 1.394 . S
C256 C255 1.336 . S
C256 H271 0.929 . S
C257 C247 1.386 . S
C257 C250 1.357 . S
C257 H270 0.928 . S
H258 C234 0.931 . S
H259 C236 0.930 . S
H260 C238 0.929 1_554 S
H261 C239 0.931 1_545 S
H262 C241 0.930 . S
H263 C245 0.931 . S
H264 C243 0.931 . S
H265 C247 0.931 . S
H266 C248 0.929 . S
H267 C249 0.930 . S
H268 C252 0.930 . S
H269 C253 0.945 . S
H270 C257 0.928 . S
H271 C256 0.929 . S
H272 C254 0.921 1_554 S
C273 C274 1.386 . S
C273 C275 1.397 . S
C273 H297 0.931 . S
C274 C273 1.386 . S
C274 C278 1.397 . S
C275 C273 1.397 . S
C275 C276 1.384 . S
C275 H298 0.930 . S
C276 C275 1.384 . S
C276 C277 1.377 . S
C276 C279 1.481 . S
C277 C276 1.377 . S
C277 C278 1.389 . S
C277 H299 0.929 . S
C278 C274 1.397 . S
C278 C277 1.389 . S
C278 H300 0.931 . S
C279 C276 1.481 . S
C279 C280 1.387 . S
C279 C284 1.390 . S
C280 C279 1.387 . S
C280 C281 1.401 . S
C280 H301 0.930 . S
C281 C280 1.401 . S
C281 C282 1.376 . S
C281 C290 1.511 . S
C282 C281 1.376 . S
C282 C283 1.392 . S
C282 H303 0.931 . S
C283 C282 1.392 . S
C283 C284 1.361 . S
C283 C285 1.500 . S
C284 C279 1.390 . S
C284 C283 1.361 . S
C284 H302 0.931 . S
C285 C283 1.500 . S
C285 C286 1.371 . S
C285 C287 1.365 . S
C286 C285 1.371 . S
C286 C296 1.386 . S
C286 H304 0.931 . S
C287 C285 1.365 . S
C287 C288 1.409 . S
C287 H305 0.929 . S
C288 C287 1.409 . S
C288 C289 1.380 . S
C288 H306 0.930 . S
C289 C288 1.380 . S
C289 C296 1.357 . S
C290 C281 1.511 . S
C290 C291 1.341 . S
C290 C292 1.371 . S
C291 C290 1.341 . S
C291 C295 1.394 . S
C291 H307 0.930 . S
C292 C290 1.371 . S
C292 C293 1.392 . S
C292 H308 0.931 . S
C293 C292 1.392 . S
C293 C294 1.331 . S
C293 H311 0.932 . S
C294 C293 1.331 . S
C294 C295 1.336 . S
C295 C291 1.394 . S
C295 C294 1.336 . S
C295 H310 0.929 . S
C296 C286 1.386 . S
C296 C289 1.357 . S
C296 H309 0.928 . S
H297 C273 0.931 . S
H298 C275 0.930 . S
H299 C277 0.929 . S
H300 C278 0.931 . S
H301 C280 0.930 . S
H302 C284 0.931 . S
H303 C282 0.931 . S
H304 C286 0.931 . S
H305 C287 0.929 . S
H306 C288 0.930 . S
H307 C291 0.930 . S
H308 C292 0.931 . S
H309 C296 0.928 . S
H310 C295 0.929 . S
H311 C293 0.932 . S
Fe312 O314 1.918 . S
Fe312 O317 1.997 1_455 S
Fe312 O318 2.002 1_455 S
Fe312 O323 1.976 . S
Fe312 O326 1.996 . S
Fe313 O314 1.918 . S
Fe313 O321 1.997 1_455 S
Fe313 O324 1.996 . S
Fe313 O328 1.976 . S
Fe313 O331 2.002 1_455 S
O314 Fe312 1.918 . S
O314 Fe313 1.918 . S
O314 Fe315 1.918 . S
Fe315 O314 1.918 . S
Fe315 O316 2.002 1_455 S
Fe315 O325 1.976 . S
Fe315 O329 1.996 . S
Fe315 O332 1.997 1_455 S
O316 Fe315 2.002 1_655 S
O316 C333 1.295 . S
O317 Fe312 1.997 1_655 S
O317 C333 1.235 . S
O318 Fe312 2.002 1_655 S
O318 C319 1.295 . S
C319 O318 1.295 . S
C319 O321 1.235 . S
C320 O325 1.287 . S
C320 O326 1.255 . S
O321 Fe313 1.997 1_655 S
O321 C319 1.235 . S
C322 O328 1.287 . S
C322 O329 1.255 . S
O323 Fe312 1.976 . S
O323 C330 1.287 . S
O324 Fe313 1.996 . S
O324 C330 1.255 . S
O325 Fe315 1.976 . S
O325 C320 1.287 . S
O326 Fe312 1.996 . S
O326 C320 1.255 . S
C327 O331 1.295 . S
C327 O332 1.235 . S
O328 Fe313 1.976 . S
O328 C322 1.287 . S
O329 Fe315 1.996 . S
O329 C322 1.255 . S
C330 O323 1.287 . S
C330 O324 1.255 . S
O331 Fe313 2.002 1_655 S
O331 C327 1.295 . S
O332 Fe315 1.997 1_655 S
O332 C327 1.235 . S
C333 O316 1.295 . S
C333 O317 1.235 . S
Fe334 O336 1.918 . S
Fe334 O339 1.995 1_655 S
Fe334 O340 2.001 1_655 S
Fe334 O345 1.977 . S
Fe334 O348 1.997 . S
Fe335 O336 1.918 . S
Fe335 O343 1.995 1_655 S
Fe335 O346 1.997 . S
Fe335 O350 1.977 . S
Fe335 O353 2.001 1_655 S
O336 Fe334 1.918 . S
O336 Fe335 1.918 . S
O336 Fe337 1.918 . S
Fe337 O336 1.918 . S
Fe337 O338 2.002 1_655 S
Fe337 O347 1.976 . S
Fe337 O351 1.996 . S
Fe337 O354 1.996 1_655 S
O338 Fe337 2.002 1_455 S
O338 C355 1.295 . S
O339 Fe334 1.995 1_455 S
O339 C355 1.235 . S
O340 Fe334 2.001 1_455 S
O340 C341 1.295 . S
C341 O340 1.295 . S
C341 O343 1.235 . S
C342 O347 1.287 . S
C342 O348 1.255 . S
O343 Fe335 1.995 1_455 S
O343 C341 1.235 . S
C344 O350 1.287 . S
C344 O351 1.255 . S
O345 Fe334 1.977 . S
O345 C352 1.287 . S
O346 Fe335 1.997 . S
O346 C352 1.255 . S
O347 Fe337 1.976 . S
O347 C342 1.287 . S
O348 Fe334 1.997 . S
O348 C342 1.255 . S
C349 O353 1.295 . S
C349 O354 1.235 . S
O350 Fe335 1.977 . S
O350 C344 1.287 . S
O351 Fe337 1.996 . S
O351 C344 1.255 . S
C352 O345 1.287 . S
C352 O346 1.255 . S
O353 Fe335 2.001 1_455 S
O353 C349 1.295 . S
O354 Fe337 1.996 1_455 S
O354 C349 1.235 . S
C355 O338 1.295 . S
C355 O339 1.235 . S
Fe356 O358 1.918 . S
Fe356 O361 1.997 . S
Fe356 O362 2.002 . S
Fe356 O367 1.976 . S
Fe356 O370 1.996 . S
Fe357 O358 1.918 . S
Fe357 O365 1.997 . S
Fe357 O368 1.996 . S
Fe357 O372 1.976 . S
Fe357 O375 2.002 . S
O358 Fe356 1.918 . S
O358 Fe357 1.918 . S
O358 Fe359 1.918 . S
Fe359 O358 1.918 . S
Fe359 O360 2.002 . S
Fe359 O369 1.976 . S
Fe359 O373 1.996 . S
Fe359 O376 1.997 . S
O360 Fe359 2.002 . S
O360 C377 1.295 . S
O361 Fe356 1.997 . S
O361 C377 1.235 . S
O362 Fe356 2.002 . S
O362 C363 1.295 . S
C363 O362 1.295 . S
C363 O365 1.235 . S
C364 O369 1.287 . S
C364 O370 1.255 . S
O365 Fe357 1.997 . S
O365 C363 1.235 . S
C366 O372 1.287 . S
C366 O373 1.255 . S
O367 Fe356 1.976 . S
O367 C374 1.287 . S
O368 Fe357 1.996 . S
O368 C374 1.255 . S
O369 Fe359 1.976 . S
O369 C364 1.287 . S
O370 Fe356 1.996 . S
O370 C364 1.255 . S
C371 O375 1.295 . S
C371 O376 1.235 . S
O372 Fe357 1.976 . S
O372 C366 1.287 . S
O373 Fe359 1.996 . S
O373 C366 1.255 . S
C374 O367 1.287 . S
C374 O368 1.255 . S
O375 Fe357 2.002 . S
O375 C371 1.295 . S
O376 Fe359 1.997 . S
O376 C371 1.235 . S
C377 O360 1.295 . S
C377 O361 1.235 . S
Fe378 O380 1.918 . S
Fe378 O383 1.997 . S
Fe378 O384 2.002 . S
Fe378 O389 1.976 . S
Fe378 O392 1.996 . S
Fe379 O380 1.918 . S
Fe379 O387 1.997 . S
Fe379 O390 1.996 . S
Fe379 O394 1.976 . S
Fe379 O397 2.002 . S
O380 Fe378 1.918 . S
O380 Fe379 1.918 . S
O380 Fe381 1.918 . S
Fe381 O380 1.918 . S
Fe381 O382 2.002 . S
Fe381 O391 1.976 . S
Fe381 O395 1.996 . S
Fe381 O398 1.997 . S
O382 Fe381 2.002 . S
O382 C399 1.295 . S
O383 Fe378 1.997 . S
O383 C399 1.235 . S
O384 Fe378 2.002 . S
O384 C385 1.295 . S
C385 O384 1.295 . S
C385 O387 1.235 . S
C386 O391 1.287 . S
C386 O392 1.255 . S
O387 Fe379 1.997 . S
O387 C385 1.235 . S
C388 O394 1.287 . S
C388 O395 1.255 . S
O389 Fe378 1.976 . S
O389 C396 1.287 . S
O390 Fe379 1.996 . S
O390 C396 1.255 . S
O391 Fe381 1.976 . S
O391 C386 1.287 . S
O392 Fe378 1.996 . S
O392 C386 1.255 . S
C393 O397 1.295 . S
C393 O398 1.235 . S
O394 Fe379 1.976 . S
O394 C388 1.287 . S
O395 Fe381 1.996 . S
O395 C388 1.255 . S
C396 O389 1.287 . S
C396 O390 1.255 . S
O397 Fe379 2.002 . S
O397 C393 1.295 . S
O398 Fe381 1.997 . S
O398 C393 1.235 . S
C399 O382 1.295 . S
C399 O383 1.235 . S
H400 C406 0.930 . S
H401 C410 0.930 . S
H402 C415 0.929 . S
H403 C413 0.929 . S
H404 C408 0.929 . S
H405 C414 0.929 . S
C406 H400 0.930 . S
C406 C407 1.367 . S
C406 C414 1.378 . S
C407 C406 1.367 . S
C407 C415 1.433 . S
C408 H404 0.929 . S
C408 C410 1.378 . S
C408 C412 1.350 . S
C409 C412 1.463 . S
C409 C414 1.350 . S
C409 N417 1.427 . S
C410 H401 0.930 . S
C410 C408 1.378 . S
C410 C411 1.367 . S
C411 C410 1.367 . S
C411 C413 1.433 . S
C412 C408 1.350 . S
C412 C409 1.463 . S
C412 N416 1.427 . S
C413 H403 0.929 . S
C413 C411 1.433 . S
C413 N416 1.384 . S
C414 H405 0.929 . S
C414 C406 1.378 . S
C414 C409 1.350 . S
C415 H402 0.929 . S
C415 C407 1.433 . S
C415 N417 1.384 . S
N416 C412 1.427 . S
N416 C413 1.384 . S
N417 C409 1.427 . S
N417 C415 1.384 . S
H418 C424 0.930 . S
H419 C428 0.930 . S
H420 C433 0.929 . S
H421 C431 0.929 . S
H422 C426 0.929 . S
H423 C432 0.929 . S
C424 H418 0.930 . S
C424 C425 1.367 . S
C424 C432 1.378 . S
C425 C424 1.367 . S
C425 C433 1.433 . S
C426 H422 0.929 . S
C426 C428 1.378 . S
C426 C430 1.350 . S
C427 C430 1.463 . S
C427 C432 1.350 . S
C427 N435 1.427 . S
C428 H419 0.930 . S
C428 C426 1.378 . S
C428 C429 1.367 . S
C429 C428 1.367 . S
C429 C431 1.433 . S
C430 C426 1.350 . S
C430 C427 1.463 . S
C430 N434 1.427 . S
C431 H421 0.929 . S
C431 C429 1.433 . S
C431 N434 1.384 . S
C432 H423 0.929 . S
C432 C424 1.378 . S
C432 C427 1.350 . S
C433 H420 0.929 . S
C433 C425 1.433 . S
C433 N435 1.384 . S
N434 C430 1.427 . S
N434 C431 1.384 . S
N435 C427 1.427 . S
N435 C433 1.384 . S
H436 C442 0.930 . S
H437 C446 0.930 . S
H438 C451 0.929 . S
H439 C449 0.929 . S
H440 C444 0.929 . S
H441 C450 0.929 . S
C442 H436 0.930 . S
C442 C443 1.367 . S
C442 C450 1.378 . S
C443 C442 1.367 . S
C443 C451 1.433 . S
C444 H440 0.929 . S
C444 C446 1.378 . S
C444 C448 1.350 . S
C445 C448 1.463 . S
C445 C450 1.350 . S
C445 N453 1.427 . S
C446 H437 0.930 . S
C446 C444 1.378 . S
C446 C447 1.367 . S
C447 C446 1.367 . S
C447 C449 1.433 . S
C448 C444 1.350 . S
C448 C445 1.463 . S
C448 N452 1.427 . S
C449 H439 0.929 . S
C449 C447 1.433 . S
C449 N452 1.384 . S
C450 H441 0.929 . S
C450 C442 1.378 . S
C450 C445 1.350 . S
C451 H438 0.929 . S
C451 C443 1.433 . S
C451 N453 1.384 . S
N452 C448 1.427 . S
N452 C449 1.384 . S
N453 C445 1.427 . S
N453 C451 1.384 . S
H454 C460 0.930 . S
H455 C464 0.930 . S
H456 C469 0.929 . S
H457 C467 0.929 . S
H458 C462 0.929 . S
H459 C468 0.929 . S
C460 H454 0.930 . S
C460 C461 1.367 . S
C460 C468 1.378 . S
C461 C460 1.367 . S
C461 C469 1.433 . S
C462 H458 0.929 . S
C462 C464 1.378 . S
C462 C466 1.350 . S
C463 C466 1.463 . S
C463 C468 1.350 . S
C463 N471 1.427 . S
C464 H455 0.930 . S
C464 C462 1.378 . S
C464 C465 1.367 . S
C465 C464 1.367 . S
C465 C467 1.433 . S
C466 C462 1.350 . S
C466 C463 1.463 . S
C466 N470 1.427 . S
C467 H457 0.929 . S
C467 C465 1.433 . S
C467 N470 1.384 . S
C468 H459 0.929 . S
C468 C460 1.378 . S
C468 C463 1.350 . S
C469 H456 0.929 . S
C469 C461 1.433 . S
C469 N471 1.384 . S
N470 C466 1.427 . S
N470 C467 1.384 . S
N471 C463 1.427 . S
N471 C469 1.384 . S
H472 C478 0.930 . S
H473 C482 0.930 . S
H474 C487 0.929 . S
H475 C485 0.929 . S
H476 C480 0.929 . S
H477 C486 0.929 . S
C478 H472 0.930 . S
C478 C479 1.367 . S
C478 C486 1.378 . S
C479 C478 1.367 . S
C479 C487 1.433 . S
C480 H476 0.929 . S
C480 C482 1.378 . S
C480 C484 1.350 . S
C481 C484 1.463 . S
C481 C486 1.350 . S
C481 N489 1.427 . S
C482 H473 0.930 . S
C482 C480 1.378 . S
C482 C483 1.367 . S
C483 C482 1.367 . S
C483 C485 1.433 . S
C484 C480 1.350 . S
C484 C481 1.463 . S
C484 N488 1.427 . S
C485 H475 0.929 . S
C485 C483 1.433 . S
C485 N488 1.384 . S
C486 H477 0.929 . S
C486 C478 1.378 . S
C486 C481 1.350 . S
C487 H474 0.929 . S
C487 C479 1.433 . S
C487 N489 1.384 . S
N488 C484 1.427 . S
N488 C485 1.384 . S
N489 C481 1.427 . S
N489 C487 1.384 . S
H490 C496 0.930 . S
H491 C500 0.930 . S
H492 C505 0.929 . S
H493 C503 0.929 . S
H494 C498 0.929 . S
H495 C504 0.929 . S
C496 H490 0.930 . S
C496 C497 1.367 . S
C496 C504 1.378 . S
C497 C496 1.367 . S
C497 C505 1.433 . S
C498 H494 0.929 . S
C498 C500 1.378 . S
C498 C502 1.350 . S
C499 C502 1.463 . S
C499 C504 1.350 . S
C499 N507 1.427 . S
C500 H491 0.930 . S
C500 C498 1.378 . S
C500 C501 1.367 . S
C501 C500 1.367 . S
C501 C503 1.433 . S
C502 C498 1.350 . S
C502 C499 1.463 . S
C502 N506 1.427 . S
C503 H493 0.929 . S
C503 C501 1.433 . S
C503 N506 1.384 . S
C504 H495 0.929 . S
C504 C496 1.378 . S
C504 C499 1.350 . S
C505 H492 0.929 . S
C505 C497 1.433 . S
C505 N507 1.384 . S
N506 C502 1.427 . S
N506 C503 1.384 . S
N507 C499 1.427 . S
N507 C505 1.384 . S
H508 C514 0.930 . S
H509 C518 0.930 . S
H510 C523 0.929 . S
H511 C521 0.929 . S
H512 C516 0.929 . S
H513 C522 0.929 . S
C514 H508 0.930 . S
C514 C515 1.367 . S
C514 C522 1.378 . S
C515 C514 1.367 . S
C515 C523 1.433 . S
C516 H512 0.929 . S
C516 C518 1.378 . S
C516 C520 1.350 . S
C517 C520 1.463 . S
C517 C522 1.350 . S
C517 N525 1.427 . S
C518 H509 0.930 . S
C518 C516 1.378 . S
C518 C519 1.367 . S
C519 C518 1.367 . S
C519 C521 1.433 . S
C520 C516 1.350 . S
C520 C517 1.463 . S
C520 N524 1.427 . S
C521 H511 0.929 . S
C521 C519 1.433 . S
C521 N524 1.384 . S
C522 H513 0.929 . S
C522 C514 1.378 . S
C522 C517 1.350 . S
C523 H510 0.929 . S
C523 C515 1.433 . S
C523 N525 1.384 . S
N524 C520 1.427 . S
N524 C521 1.384 . S
N525 C517 1.427 . S
N525 C523 1.384 . S
H526 C532 0.930 . S
H527 C536 0.930 . S
H528 C541 0.929 . S
H529 C539 0.929 . S
H530 C534 0.929 . S
H531 C540 0.929 . S
C532 H526 0.930 . S
C532 C533 1.367 . S
C532 C540 1.378 . S
C533 C532 1.367 . S
C533 C541 1.433 . S
C534 H530 0.929 . S
C534 C536 1.378 . S
C534 C538 1.350 . S
C535 C538 1.463 . S
C535 C540 1.350 . S
C535 N543 1.427 . S
C536 H527 0.930 . S
C536 C534 1.378 . S
C536 C537 1.367 . S
C537 C536 1.367 . S
C537 C539 1.433 . S
C538 C534 1.350 . S
C538 C535 1.463 . S
C538 N542 1.427 . S
C539 H529 0.929 . S
C539 C537 1.433 . S
C539 N542 1.384 . S
C540 H531 0.929 . S
C540 C532 1.378 . S
C540 C535 1.350 . S
C541 H528 0.929 . S
C541 C533 1.433 . S
C541 N543 1.384 . S
N542 C538 1.427 . S
N542 C539 1.384 . S
N543 C535 1.427 . S
N543 C541 1.384 . S
H544 C550 0.930 . S
H545 C554 0.930 . S
H546 C559 0.929 . S
H547 C557 0.929 . S
H548 C552 0.929 . S
H549 C558 0.929 . S
C550 H544 0.930 . S
C550 C551 1.367 . S
C550 C558 1.378 . S
C551 C550 1.367 . S
C551 C559 1.433 . S
C552 H548 0.929 . S
C552 C554 1.378 . S
C552 C556 1.350 . S
C553 C556 1.463 . S
C553 C558 1.350 . S
C553 N561 1.427 . S
C554 H545 0.930 . S
C554 C552 1.378 . S
C554 C555 1.367 . S
C555 C554 1.367 . S
C555 C557 1.433 . S
C556 C552 1.350 . S
C556 C553 1.463 . S
C556 N560 1.427 . S
C557 H547 0.929 . S
C557 C555 1.433 . S
C557 N560 1.384 . S
C558 H549 0.929 . S
C558 C550 1.378 . S
C558 C553 1.350 . S
C559 H546 0.929 . S
C559 C551 1.433 . S
C559 N561 1.384 . S
N560 C556 1.427 . S
N560 C557 1.384 . S
N561 C553 1.427 . S
N561 C559 1.384 . S
H562 C568 0.930 . S
H563 C572 0.930 . S
H564 C577 0.929 . S
H565 C575 0.929 . S
H566 C570 0.929 . S
H567 C576 0.929 . S
C568 H562 0.930 . S
C568 C569 1.367 . S
C568 C576 1.378 . S
C569 C568 1.367 . S
C569 C577 1.433 . S
C570 H566 0.929 . S
C570 C572 1.378 . S
C570 C574 1.350 . S
C571 C574 1.463 . S
C571 C576 1.350 . S
C571 N579 1.427 . S
C572 H563 0.930 . S
C572 C570 1.378 . S
C572 C573 1.367 . S
C573 C572 1.367 . S
C573 C575 1.433 . S
C574 C570 1.350 . S
C574 C571 1.463 . S
C574 N578 1.427 . S
C575 H565 0.929 . S
C575 C573 1.433 . S
C575 N578 1.384 . S
C576 H567 0.929 . S
C576 C568 1.378 . S
C576 C571 1.350 . S
C577 H564 0.929 . S
C577 C569 1.433 . S
C577 N579 1.384 . S
N578 C574 1.427 . S
N578 C575 1.384 . S
N579 C571 1.427 . S
N579 C577 1.384 . S
H580 C586 0.930 . S
H581 C590 0.930 . S
H582 C595 0.929 . S
H583 C593 0.929 . S
H584 C588 0.929 . S
H585 C594 0.929 . S
C586 H580 0.930 . S
C586 C587 1.367 . S
C586 C594 1.378 . S
C587 C586 1.367 . S
C587 C595 1.433 . S
C588 H584 0.929 . S
C588 C590 1.378 . S
C588 C592 1.350 . S
C589 C592 1.463 . S
C589 C594 1.350 . S
C589 N597 1.427 . S
C590 H581 0.930 . S
C590 C588 1.378 . S
C590 C591 1.367 . S
C591 C590 1.367 . S
C591 C593 1.433 . S
C592 C588 1.350 . S
C592 C589 1.463 . S
C592 N596 1.427 . S
C593 H583 0.929 . S
C593 C591 1.433 . S
C593 N596 1.384 . S
C594 H585 0.929 . S
C594 C586 1.378 . S
C594 C589 1.350 . S
C595 H582 0.929 . S
C595 C587 1.433 . S
C595 N597 1.384 . S
N596 C592 1.427 . S
N596 C593 1.384 . S
N597 C589 1.427 . S
N597 C595 1.384 . S
H598 C604 0.930 . S
H599 C608 0.930 . S
H600 C613 0.929 . S
H601 C611 0.929 . S
H602 C606 0.929 . S
H603 C612 0.929 . S
C604 H598 0.930 . S
C604 C605 1.367 . S
C604 C612 1.378 . S
C605 C604 1.367 . S
C605 C613 1.433 . S
C606 H602 0.929 . S
C606 C608 1.378 . S
C606 C610 1.350 . S
C607 C610 1.463 . S
C607 C612 1.350 . S
C607 N615 1.427 . S
C608 H599 0.930 . S
C608 C606 1.378 . S
C608 C609 1.367 . S
C609 C608 1.367 . S
C609 C611 1.433 . S
C610 C606 1.350 . S
C610 C607 1.463 . S
C610 N614 1.427 . S
C611 H601 0.929 . S
C611 C609 1.433 . S
C611 N614 1.384 . S
C612 H603 0.929 . S
C612 C604 1.378 . S
C612 C607 1.350 . S
C613 H600 0.929 . S
C613 C605 1.433 . S
C613 N615 1.384 . S
N614 C610 1.427 . S
N614 C611 1.384 . S
N615 C607 1.427 . S
N615 C613 1.384 . S
H616 C622 0.930 . S
H617 C626 0.930 . S
H618 C631 0.950 . S
H619 C629 0.929 . S
H620 C624 0.929 . S
H621 C630 0.929 . S
C622 H616 0.930 . S
C622 C623 1.367 . S
C622 C630 1.378 . S
C623 C622 1.367 . S
C623 C631 1.433 . S
C624 H620 0.929 . S
C624 C626 1.378 . S
C624 C628 1.350 . S
C625 C628 1.463 . S
C625 C630 1.350 . S
C625 N633 1.427 . S
C626 H617 0.930 . S
C626 C624 1.378 . S
C626 C627 1.367 . S
C627 C626 1.367 . S
C627 C629 1.433 . S
C628 C624 1.350 . S
C628 C625 1.463 . S
C628 N632 1.427 . S
C629 H619 0.929 . S
C629 C627 1.433 . S
C629 N632 1.384 . S
C630 H621 0.929 . S
C630 C622 1.378 . S
C630 C625 1.350 . S
C631 H618 0.950 . S
C631 C623 1.433 . S
C631 N633 1.384 . S
N632 C628 1.427 . S
N632 C629 1.384 . S
N633 C625 1.427 . S
N633 C631 1.384 . S
H634 C640 0.930 1_545 S
H635 C644 0.930 . S
H636 C649 0.929 . S
H637 C647 0.929 . S
H638 C642 0.929 . S
H639 C648 0.929 . S
C640 H634 0.930 1_565 S
C640 C641 1.367 . S
C640 C648 1.378 . S
C641 C640 1.367 . S
C641 C649 1.433 . S
C642 H638 0.929 . S
C642 C644 1.378 . S
C642 C646 1.350 . S
C643 C646 1.463 . S
C643 C648 1.350 . S
C643 N651 1.427 . S
C644 H635 0.930 . S
C644 C642 1.378 . S
C644 C645 1.367 . S
C645 C644 1.367 . S
C645 C647 1.433 . S
C646 C642 1.350 . S
C646 C643 1.463 . S
C646 N650 1.427 . S
C647 H637 0.929 . S
C647 C645 1.433 . S
C647 N650 1.384 . S
C648 H639 0.929 . S
C648 C640 1.378 . S
C648 C643 1.350 . S
C649 H636 0.929 . S
C649 C641 1.433 . S
C649 N651 1.384 . S
N650 C646 1.427 . S
N650 C647 1.384 . S
N651 C643 1.427 . S
N651 C649 1.384 . S
H652 C658 0.942 . S
H653 C662 0.930 . S
H654 C667 0.929 . S
H655 C665 0.929 . S
H656 C660 0.929 . S
H657 C666 0.929 . S
C658 H652 0.942 . S
C658 C659 1.367 . S
C658 C666 1.378 . S
C659 C658 1.367 . S
C659 C667 1.433 . S
C660 H656 0.929 . S
C660 C662 1.378 . S
C660 C664 1.350 . S
C661 C664 1.463 . S
C661 C666 1.350 . S
C661 N669 1.427 . S
C662 H653 0.930 . S
C662 C660 1.378 . S
C662 C663 1.367 . S
C663 C662 1.367 . S
C663 C665 1.433 . S
C664 C660 1.350 . S
C664 C661 1.463 . S
C664 N668 1.427 . S
C665 H655 0.929 . S
C665 C663 1.433 . S
C665 N668 1.384 . S
C666 H657 0.929 . S
C666 C658 1.378 . S
C666 C661 1.350 . S
C667 H654 0.929 . S
C667 C659 1.433 . S
C667 N669 1.384 . S
N668 C664 1.427 . S
N668 C665 1.384 . S
N669 C661 1.427 . S
N669 C667 1.384 . S
H670 C676 0.930 1_545 S
H671 C680 0.930 . S
H672 C685 0.929 . S
H673 C683 0.929 . S
H674 C678 0.929 . S
H675 C684 0.929 . S
C676 H670 0.930 1_565 S
C676 C677 1.367 . S
C676 C684 1.378 . S
C677 C676 1.367 . S
C677 C685 1.433 . S
C678 H674 0.929 . S
C678 C680 1.378 . S
C678 C682 1.350 . S
C679 C682 1.463 . S
C679 C684 1.350 . S
C679 N687 1.427 . S
C680 H671 0.930 . S
C680 C678 1.378 . S
C680 C681 1.367 . S
C681 C680 1.367 . S
C681 C683 1.433 . S
C682 C678 1.350 . S
C682 C679 1.463 . S
C682 N686 1.427 . S
C683 H673 0.929 . S
C683 C681 1.433 . S
C683 N686 1.384 . S
C684 H675 0.929 . S
C684 C676 1.378 . S
C684 C679 1.350 . S
C685 H672 0.929 . S
C685 C677 1.433 . S
C685 N687 1.384 . S
N686 C682 1.427 . S
N686 C683 1.384 . S
N687 C679 1.427 . S
N687 C685 1.384 . S
H688 C694 0.930 . S
H689 C698 0.930 . S
H690 C703 0.929 . S
H691 C701 0.929 . S
H692 C696 0.929 . S
H693 C702 0.929 . S
C694 H688 0.930 . S
C694 C695 1.367 . S
C694 C702 1.378 . S
C695 C694 1.367 . S
C695 C703 1.433 . S
C696 H692 0.929 . S
C696 C698 1.378 . S
C696 C700 1.350 . S
C697 C700 1.463 . S
C697 C702 1.350 . S
C697 N705 1.427 . S
C698 H689 0.930 . S
C698 C696 1.378 . S
C698 C699 1.367 . S
C699 C698 1.367 . S
C699 C701 1.433 . S
C700 C696 1.350 . S
C700 C697 1.463 . S
C700 N704 1.427 . S
C701 H691 0.929 . S
C701 C699 1.433 . S
C701 N704 1.384 . S
C702 H693 0.929 . S
C702 C694 1.378 . S
C702 C697 1.350 . S
C703 H690 0.929 . S
C703 C695 1.433 . S
C703 N705 1.384 . S
N704 C700 1.427 . S
N704 C701 1.384 . S
N705 C697 1.427 . S
N705 C703 1.384 . S
H706 C712 0.930 . S
H707 C716 0.930 . S
H708 C721 0.929 . S
H709 C719 0.929 . S
H710 C714 0.929 . S
H711 C720 0.929 . S
C712 H706 0.930 . S
C712 C713 1.367 . S
C712 C720 1.378 . S
C713 C712 1.367 . S
C713 C721 1.433 . S
C714 H710 0.929 . S
C714 C716 1.378 . S
C714 C718 1.350 . S
C715 C718 1.463 . S
C715 C720 1.350 . S
C715 N723 1.427 . S
C716 H707 0.930 . S
C716 C714 1.378 . S
C716 C717 1.367 . S
C717 C716 1.367 . S
C717 C719 1.433 . S
C718 C714 1.350 . S
C718 C715 1.463 . S
C718 N722 1.427 . S
C719 H709 0.929 . S
C719 C717 1.433 . S
C719 N722 1.384 . S
C720 H711 0.929 . S
C720 C712 1.378 . S
C720 C715 1.350 . S
C721 H708 0.929 . S
C721 C713 1.433 . S
C721 N723 1.384 . S
N722 C718 1.427 . S
N722 C719 1.384 . S
N723 C715 1.427 . S
N723 C721 1.384 . S
H724 C730 0.930 . S
H725 C734 0.930 . S
H726 C739 0.929 . S
H727 C737 0.929 . S
H728 C732 0.929 . S
H729 C738 0.929 . S
C730 H724 0.930 . S
C730 C731 1.367 . S
C730 C738 1.378 . S
C731 C730 1.367 . S
C731 C739 1.433 . S
C732 H728 0.929 . S
C732 C734 1.378 . S
C732 C736 1.350 . S
C733 C736 1.463 . S
C733 C738 1.350 . S
C733 N741 1.427 . S
C734 H725 0.930 . S
C734 C732 1.378 . S
C734 C735 1.367 . S
C735 C734 1.367 . S
C735 C737 1.433 . S
C736 C732 1.350 . S
C736 C733 1.463 . S
C736 N740 1.427 . S
C737 H727 0.929 . S
C737 C735 1.433 . S
C737 N740 1.384 . S
C738 H729 0.929 . S
C738 C730 1.378 . S
C738 C733 1.350 . S
C739 H726 0.929 . S
C739 C731 1.433 . S
C739 N741 1.384 . S
N740 C736 1.427 . S
N740 C737 1.384 . S
N741 C733 1.427 . S
N741 C739 1.384 . S
H742 C748 0.930 . S
H743 C752 0.930 . S
H744 C757 0.929 . S
H745 C755 0.929 . S
H746 C750 0.929 . S
H747 C756 0.929 . S
C748 H742 0.930 . S
C748 C749 1.367 . S
C748 C756 1.378 . S
C749 C748 1.367 . S
C749 C757 1.433 . S
C750 H746 0.929 . S
C750 C752 1.378 . S
C750 C754 1.350 . S
C751 C754 1.463 . S
C751 C756 1.350 . S
C751 N759 1.427 . S
C752 H743 0.930 . S
C752 C750 1.378 . S
C752 C753 1.367 . S
C753 C752 1.367 . S
C753 C755 1.433 . S
C754 C750 1.350 . S
C754 C751 1.463 . S
C754 N758 1.427 . S
C755 H745 0.929 . S
C755 C753 1.433 . S
C755 N758 1.384 . S
C756 H747 0.929 . S
C756 C748 1.378 . S
C756 C751 1.350 . S
C757 H744 0.929 . S
C757 C749 1.433 . S
C757 N759 1.384 . S
N758 C754 1.427 . S
N758 C755 1.384 . S
N759 C751 1.427 . S
N759 C757 1.384 . S
H760 C766 0.930 . S
H761 C770 0.930 . S
H762 C775 0.929 . S
H763 C773 0.929 . S
H764 C768 0.929 . S
H765 C774 0.929 . S
C766 H760 0.930 . S
C766 C767 1.367 . S
C766 C774 1.378 . S
C767 C766 1.367 . S
C767 C775 1.433 . S
C768 H764 0.929 . S
C768 C770 1.378 . S
C768 C772 1.350 . S
C769 C772 1.463 . S
C769 C774 1.350 . S
C769 N777 1.427 . S
C770 H761 0.930 . S
C770 C768 1.378 . S
C770 C771 1.367 . S
C771 C770 1.367 . S
C771 C773 1.433 . S
C772 C768 1.350 . S
C772 C769 1.463 . S
C772 N776 1.427 . S
C773 H763 0.929 . S
C773 C771 1.433 . S
C773 N776 1.384 . S
C774 H765 0.929 . S
C774 C766 1.378 . S
C774 C769 1.350 . S
C775 H762 0.929 . S
C775 C767 1.433 . S
C775 N777 1.384 . S
N776 C772 1.427 . S
N776 C773 1.384 . S
N777 C769 1.427 . S
N777 C775 1.384 . S
H778 C784 0.930 . S
H779 C788 0.930 . S
H780 C793 0.929 . S
H781 C791 0.929 . S
H782 C786 0.929 . S
H783 C792 0.929 . S
C784 H778 0.930 . S
C784 C785 1.367 . S
C784 C792 1.378 . S
C785 C784 1.367 . S
C785 C793 1.433 . S
C786 H782 0.929 . S
C786 C788 1.378 . S
C786 C790 1.350 . S
C787 C790 1.463 . S
C787 C792 1.350 . S
C787 N795 1.427 . S
C788 H779 0.930 . S
C788 C786 1.378 . S
C788 C789 1.367 . S
C789 C788 1.367 . S
C789 C791 1.433 . S
C790 C786 1.350 . S
C790 C787 1.463 . S
C790 N794 1.427 . S
C791 H781 0.929 . S
C791 C789 1.433 . S
C791 N794 1.384 . S
C792 H783 0.929 . S
C792 C784 1.378 . S
C792 C787 1.350 . S
C793 H780 0.929 . S
C793 C785 1.433 . S
C793 N795 1.384 . S
N794 C790 1.427 . S
N794 C791 1.384 . S
N795 C787 1.427 . S
N795 C793 1.384 . S
H796 C802 0.930 . S
H797 C806 0.930 . S
H798 C811 0.929 . S
H799 C809 0.929 . S
H800 C804 0.929 . S
H801 C810 0.929 . S
C802 H796 0.930 . S
C802 C803 1.367 . S
C802 C810 1.378 . S
C803 C802 1.367 . S
C803 C811 1.433 . S
C804 H800 0.929 . S
C804 C806 1.378 . S
C804 C808 1.350 . S
C805 C808 1.463 . S
C805 C810 1.350 . S
C805 N813 1.427 . S
C806 H797 0.930 . S
C806 C804 1.378 . S
C806 C807 1.367 . S
C807 C806 1.367 . S
C807 C809 1.433 . S
C808 C804 1.350 . S
C808 C805 1.463 . S
C808 N812 1.427 . S
C809 H799 0.929 . S
C809 C807 1.433 . S
C809 N812 1.384 . S
C810 H801 0.929 . S
C810 C802 1.378 . S
C810 C805 1.350 . S
C811 H798 0.929 . S
C811 C803 1.433 . S
C811 N813 1.384 . S
N812 C808 1.427 . S
N812 C809 1.384 . S
N813 C805 1.427 . S
N813 C811 1.384 . S
H814 C820 0.930 . S
H815 C824 0.930 . S
H816 C829 0.929 . S
H817 C827 0.929 . S
H818 C822 0.929 . S
H819 C828 0.929 . S
C820 H814 0.930 . S
C820 C821 1.367 . S
C820 C828 1.378 . S
C821 C820 1.367 . S
C821 C829 1.433 . S
C822 H818 0.929 . S
C822 C824 1.378 . S
C822 C826 1.350 . S
C823 C826 1.463 . S
C823 C828 1.350 . S
C823 N831 1.427 . S
C824 H815 0.930 . S
C824 C822 1.378 . S
C824 C825 1.367 . S
C825 C824 1.367 . S
C825 C827 1.433 . S
C826 C822 1.350 . S
C826 C823 1.463 . S
C826 N830 1.427 . S
C827 H817 0.929 . S
C827 C825 1.433 . S
C827 N830 1.384 . S
C828 H819 0.929 . S
C828 C820 1.378 . S
C828 C823 1.350 . S
C829 H816 0.929 . S
C829 C821 1.433 . S
C829 N831 1.384 . S
N830 C826 1.427 . S
N830 C827 1.384 . S
N831 C823 1.427 . S
N831 C829 1.384 . S
C407 C21 1.558 . S
C411 C355 1.540 . S
C429 C319 1.542 . S
C425 C60 1.559 . S
C447 C342 1.534 . S
C443 C99 1.530 . S
C465 C330 1.530 . S
C461 C138 1.533 . S
C483 C399 1.540 . S
C479 C177 1.558 . S
C501 C363 1.539 . S
C497 C216 1.557 . S
C515 C255 1.537 . S
C519 C386 1.538 . S
C537 C374 1.527 . S
C533 C294 1.530 . S
C551 C1 1.512 . S
C555 C396 1.534 . S
C573 C366 1.531 . S
C569 C40 1.518 . S
C587 C79 1.545 . S
C591 C385 1.567 . S
C605 C133 1.536 . S
C609 C371 1.555 . S
C627 C352 1.532 . S
C623 C157 1.513 1_545 S
C641 C196 1.510 1_565 S
C645 C322 1.532 . S
C663 C341 1.567 . S
C659 C235 1.544 1_545 S
C681 C327 1.557 . S
C677 C289 1.533 1_565 S
C699 C377 1.531 . S
C695 C16 1.524 . S
C717 C393 1.533 . S
C713 C55 1.525 . S
C731 C94 1.489 . S
C735 C364 1.507 . S
C753 C388 1.507 . S
C749 C118 1.494 . S
C771 C333 1.535 . S
C767 C172 1.524 . S
C785 C211 1.517 . S
C789 C349 1.536 . S
C803 C250 1.488 . S
C807 C320 1.510 . S
C821 C274 1.491 . S
C825 C344 1.510 . S
