# Generated by pormake.
# Topology nom, (4,4)-cn, num edge types: 1
# Building blocks:
#     Node 0, Type 0, BuildingBlock: MIFKUJ_clean_linker_1, # of connection points: 4
#     Node 1, Type 0, BuildingBlock: MIFKUJ_clean_linker_1, # of connection points: 4
#     Node 2, Type 0, BuildingBlock: MIFKUJ_clean_linker_1, # of connection points: 4
#     Node 3, Type 0, BuildingBlock: MIFKUJ_clean_linker_1, # of connection points: 4
#     Node 4, Type 0, BuildingBlock: MIFKUJ_clean_linker_1, # of connection points: 4
#     Node 5, Type 0, BuildingBlock: MIFKUJ_clean_linker_1, # of connection points: 4
#     Node 6, Type 1, BuildingBlock: AZAVOO_clean_sbu_0, # of connection points: 4
#     Node 7, Type 1, BuildingBlock: AZAVOO_clean_sbu_0, # of connection points: 4
#     Node 8, Type 1, BuildingBlock: AZAVOO_clean_sbu_0, # of connection points: 4
#     Node 9, Type 1, BuildingBlock: AZAVOO_clean_sbu_0, # of connection points: 4
#     Node 10, Type 1, BuildingBlock: AZAVOO_clean_sbu_0, # of connection points: 4
#     Node 11, Type 1, BuildingBlock: AZAVOO_clean_sbu_0, # of connection points: 4
#     Edge 12, Type (0, 1), BuildingBlock: EZIPEK_clean_linker_0, # of connection points: 2
#     Edge 13, Type (0, 1), BuildingBlock: EZIPEK_clean_linker_0, # of connection points: 2
#     Edge 14, Type (0, 1), BuildingBlock: EZIPEK_clean_linker_0, # of connection points: 2
#     Edge 15, Type (0, 1), BuildingBlock: EZIPEK_clean_linker_0, # of connection points: 2
#     Edge 16, Type (0, 1), BuildingBlock: EZIPEK_clean_linker_0, # of connection points: 2
#     Edge 17, Type (0, 1), BuildingBlock: EZIPEK_clean_linker_0, # of connection points: 2
#     Edge 18, Type (0, 1), BuildingBlock: EZIPEK_clean_linker_0, # of connection points: 2
#     Edge 19, Type (0, 1), BuildingBlock: EZIPEK_clean_linker_0, # of connection points: 2
#     Edge 20, Type (0, 1), BuildingBlock: EZIPEK_clean_linker_0, # of connection points: 2
#     Edge 21, Type (0, 1), BuildingBlock: EZIPEK_clean_linker_0, # of connection points: 2
#     Edge 22, Type (0, 1), BuildingBlock: EZIPEK_clean_linker_0, # of connection points: 2
#     Edge 23, Type (0, 1), BuildingBlock: EZIPEK_clean_linker_0, # of connection points: 2
#     Edge 24, Type (0, 1), BuildingBlock: EZIPEK_clean_linker_0, # of connection points: 2
#     Edge 25, Type (0, 1), BuildingBlock: EZIPEK_clean_linker_0, # of connection points: 2
#     Edge 26, Type (0, 1), BuildingBlock: EZIPEK_clean_linker_0, # of connection points: 2
#     Edge 27, Type (0, 1), BuildingBlock: EZIPEK_clean_linker_0, # of connection points: 2
#     Edge 28, Type (0, 1), BuildingBlock: EZIPEK_clean_linker_0, # of connection points: 2
#     Edge 29, Type (0, 1), BuildingBlock: EZIPEK_clean_linker_0, # of connection points: 2
#     Edge 30, Type (0, 1), BuildingBlock: EZIPEK_clean_linker_0, # of connection points: 2
#     Edge 31, Type (0, 1), BuildingBlock: EZIPEK_clean_linker_0, # of connection points: 2
#     Edge 32, Type (0, 1), BuildingBlock: EZIPEK_clean_linker_0, # of connection points: 2
#     Edge 33, Type (0, 1), BuildingBlock: EZIPEK_clean_linker_0, # of connection points: 2
#     Edge 34, Type (0, 1), BuildingBlock: EZIPEK_clean_linker_0, # of connection points: 2
#     Edge 35, Type (0, 1), BuildingBlock: EZIPEK_clean_linker_0, # of connection points: 2
# Relax obj value: 0.035
# Max RMSD: 0.157
# Mean RMSD: 0.124
data_MOF--net-nom--node1-AZAVOO_clean_sbu_0--node2-MIFKUJ_clean_linker_1--edge1-EZIPEK_clean_linker_0
_symmetry_space_group_name_H-M    P1
_symmetry_Int_Tables_number       1
_symmetry_cell_setting            triclinic
loop_
_symmetry_equiv_pos_as_xyz
'x, y, z'
_cell_length_a     41.704437
_cell_length_b     42.061437
_cell_length_c     42.203165
_cell_angle_alpha  91.330422
_cell_angle_beta   91.342102
_cell_angle_gamma 119.97864
loop_
_atom_site_label
_atom_site_type_symbol
_atom_site_fract_x
_atom_site_fract_y
_atom_site_fract_z
_atom_type_partial_charge
H0 H 0.95584 0.43469 0.27081 0.0
H1 H 0.91363 0.41769 0.22394 0.0
H2 H 0.87108 0.48515 0.26085 0.0
H3 H 0.9135 0.50245 0.30772 0.0
H4 H 0.01085 0.5085 0.29031 0.0
H5 H 0.89551 0.40601 0.33452 0.0
H6 H 0.82925 0.38434 0.34047 0.0
H7 H 0.85727 0.48508 0.39229 0.0
H8 H 0.92328 0.50654 0.38671 0.0
H9 H 0.02472 0.5429 0.42641 0.0
H10 H 0.07126 0.55986 0.46993 0.0
H11 H 0.12089 0.50666 0.41862 0.0
H12 H 0.07474 0.49013 0.37487 0.0
H13 H 0.97188 0.47931 0.40106 0.0
H14 H 0.06912 0.58346 0.36641 0.0
H15 H 0.12899 0.63342 0.35066 0.0
H16 H 0.13475 0.56112 0.2798 0.0
H17 H 0.07483 0.51066 0.29579 0.0
C18 C 0.93758 0.46954 0.29291 0.0
C19 C 0.93727 0.44565 0.26895 0.0
C20 C 0.9132 0.4359 0.2423 0.0
C21 C 0.88924 0.4501 0.23905 0.0
C22 C 0.88927 0.4738 0.26306 0.0
C23 C 0.91335 0.48354 0.28978 0.0
C24 C 0.96458 0.481 0.32034 0.0
C25 C 0.00244 0.50119 0.31444 0.0
C26 C 0.95348 0.47418 0.35208 0.0
C27 C 0.91416 0.45797 0.35996 0.0
C28 C 0.88735 0.423 0.34778 0.0
C29 C 0.84971 0.41065 0.35122 0.0
C30 C 0.83859 0.43331 0.36662 0.0
C31 C 0.86543 0.46728 0.38038 0.0
C32 C 0.90299 0.47944 0.37723 0.0
C33 C 0.04626 0.51528 0.39737 0.0
C34 C 0.04558 0.53486 0.42451 0.0
C35 C 0.0722 0.5447 0.4492 0.0
C36 C 0.09961 0.53467 0.44737 0.0
C37 C 0.10017 0.51489 0.42035 0.0
C38 C 0.07384 0.50545 0.39548 0.0
C39 C 0.01841 0.50521 0.3708 0.0
C40 C 0.98049 0.48559 0.37687 0.0
C41 C 0.02935 0.51477 0.33938 0.0
C42 C 0.06768 0.54316 0.33251 0.0
C43 C 0.08368 0.57792 0.34813 0.0
C44 C 0.11768 0.60649 0.33908 0.0
C45 C 0.13606 0.60077 0.31418 0.0
C46 C 0.12084 0.56582 0.29918 0.0
C47 C 0.08676 0.53717 0.30824 0.0
H48 H 0.43954 0.94627 0.5496 0.0
H49 H 0.40112 0.88222 0.56357 0.0
H50 H 0.46303 0.85094 0.50246 0.0
H51 H 0.50294 0.91561 0.48948 0.0
H52 H 0.51019 0.99571 0.55652 0.0
H53 H 0.42453 0.9268 0.46559 0.0
H54 H 0.40008 0.88089 0.42122 0.0
H55 H 0.50844 0.93138 0.38204 0.0
H56 H 0.53317 0.97669 0.42671 0.0
H57 H 0.59199 0.11258 0.50431 0.0
H58 H 0.60991 0.17376 0.48476 0.0
H59 H 0.50267 0.12938 0.43706 0.0
H60 H 0.48418 0.06899 0.45751 0.0
H61 H 0.51177 0.02702 0.4439 0.0
H62 H 0.58124 0.05171 0.56697 0.0
H63 H 0.60528 0.09532 0.61281 0.0
H64 H 0.5308 0.13466 0.58759 0.0
H65 H 0.50612 0.09049 0.54189 0.0
C66 C 0.47396 0.93575 0.51832 0.0
C67 C 0.44543 0.92584 0.53964 0.0
C68 C 0.42334 0.88933 0.54743 0.0
C69 C 0.4292 0.86201 0.5339 0.0
C70 C 0.45815 0.87177 0.51305 0.0
C71 C 0.48075 0.90854 0.50563 0.0
C72 C 0.49468 0.97426 0.5083 0.0
C73 C 0.51079 0.00266 0.53186 0.0
C74 C 0.4961 0.98325 0.47608 0.0
C75 C 0.48081 0.95498 0.44965 0.0
C76 C 0.44315 0.92771 0.44771 0.0
C77 C 0.42919 0.90158 0.42244 0.0
C78 C 0.45253 0.90276 0.39848 0.0
C79 C 0.49009 0.92997 0.40039 0.0
C80 C 0.50409 0.95587 0.42574 0.0
C81 C 0.5367 0.08617 0.48239 0.0
C82 C 0.57211 0.11617 0.49017 0.0
C83 C 0.58239 0.15095 0.47894 0.0
C84 C 0.55764 0.15584 0.45929 0.0
C85 C 0.52215 0.12606 0.45208 0.0
C86 C 0.51173 0.09162 0.46362 0.0
C87 C 0.52546 0.0485 0.49227 0.0
C88 C 0.51159 0.02023 0.46857 0.0
C89 C 0.5263 0.03973 0.52435 0.0
C90 C 0.54208 0.06799 0.55079 0.0
C91 C 0.57016 0.06981 0.57115 0.0
C92 C 0.58394 0.0947 0.59723 0.0
C93 C 0.56983 0.11816 0.6035 0.0
C94 C 0.5421 0.11682 0.58301 0.0
C95 C 0.52818 0.09177 0.55692 0.0
H96 H 0.53839 0.60733 0.66786 0.0
H97 H 0.52144 0.63656 0.71016 0.0
H98 H 0.46702 0.53415 0.75775 0.0
H99 H 0.48382 0.5047 0.7154 0.0
H100 H 0.54355 0.51149 0.69207 0.0
H101 H 0.51818 0.59113 0.58931 0.0
H102 H 0.47227 0.60982 0.5758 0.0
H103 H 0.39603 0.53071 0.63924 0.0
H104 H 0.44138 0.51187 0.65259 0.0
H105 H 0.49684 0.46011 0.56061 0.0
H106 H 0.51772 0.44213 0.51311 0.0
H107 H 0.62988 0.49883 0.55221 0.0
H108 H 0.60895 0.51645 0.60007 0.0
H109 H 0.514 0.52595 0.58065 0.0
H110 H 0.51223 0.42644 0.62168 0.0
H111 H 0.52245 0.3778 0.64141 0.0
H112 H 0.61139 0.45689 0.7039 0.0
H113 H 0.60169 0.50596 0.68385 0.0
C114 C 0.51213 0.55372 0.6883 0.0
C115 C 0.52301 0.59116 0.68746 0.0
C116 C 0.51355 0.6079 0.71162 0.0
C117 C 0.49304 0.58747 0.737 0.0
C118 C 0.48302 0.55034 0.73839 0.0
C119 C 0.49263 0.53362 0.71428 0.0
C120 C 0.52014 0.53551 0.66148 0.0
C121 C 0.53769 0.51512 0.66767 0.0
C122 C 0.5098 0.5377 0.62979 0.0
C123 C 0.48337 0.55053 0.62231 0.0
C124 C 0.49161 0.57791 0.60033 0.0
C125 C 0.46554 0.58847 0.59257 0.0
C126 C 0.4309 0.57138 0.60646 0.0
C127 C 0.42263 0.54399 0.62827 0.0
C128 C 0.44861 0.53357 0.63608 0.0
C129 C 0.55134 0.48967 0.58385 0.0
C130 C 0.52585 0.46834 0.55916 0.0
C131 C 0.53771 0.45802 0.53215 0.0
C132 C 0.57531 0.46923 0.5292 0.0
C133 C 0.60073 0.48982 0.55416 0.0
C134 C 0.58878 0.49977 0.5814 0.0
C135 C 0.53934 0.50356 0.6111 0.0
C136 C 0.52094 0.52316 0.60497 0.0
C137 C 0.54601 0.49781 0.64289 0.0
C138 C 0.55648 0.47 0.65103 0.0
C139 C 0.53479 0.43368 0.63882 0.0
C140 C 0.54036 0.40585 0.65021 0.0
C141 C 0.56758 0.41391 0.67405 0.0
C142 C 0.59032 0.45034 0.6854 0.0
C143 C 0.58477 0.47822 0.67399 0.0
H144 H 0.04482 0.58727 0.76514 0.0
H145 H 0.08843 0.60751 0.72203 0.0
H146 H 0.12453 0.53194 0.74983 0.0
H147 H 0.08118 0.51204 0.79344 0.0
H148 H 0.98792 0.51071 0.77746 0.0
H149 H 0.11013 0.6066 0.81705 0.0
H150 H 0.17464 0.62313 0.8265 0.0
H151 H 0.14273 0.54764 0.90254 0.0
H152 H 0.07769 0.52664 0.88977 0.0
H153 H 0.98341 0.4856 0.91265 0.0
H154 H 0.94057 0.47104 0.95597 0.0
H155 H 0.88431 0.51806 0.90528 0.0
H156 H 0.92732 0.53302 0.86194 0.0
H157 H 0.03199 0.54633 0.88964 0.0
H158 H 0.92428 0.44157 0.85102 0.0
H159 H 0.86276 0.39502 0.82996 0.0
H160 H 0.86968 0.46682 0.75587 0.0
H161 H 0.93027 0.51433 0.77788 0.0
C162 C 0.06029 0.54858 0.78256 0.0
C163 C 0.06194 0.57487 0.76178 0.0
C164 C 0.08665 0.58635 0.73727 0.0
C165 C 0.10954 0.57117 0.73291 0.0
C166 C 0.10695 0.54384 0.75295 0.0
C167 C 0.08243 0.53261 0.77773 0.0
C168 C 0.03541 0.53845 0.80936 0.0
C169 C -0.00267 0.51887 0.80204 0.0
C170 C 0.04845 0.54743 0.84148 0.0
C171 C 0.08841 0.56369 0.8513 0.0
C172 C 0.11663 0.59259 0.83507 0.0
C173 C 0.15368 0.60265 0.84091 0.0
C174 C 0.16352 0.58589 0.86468 0.0
C175 C 0.13577 0.56031 0.88355 0.0
C176 C 0.09856 0.5486 0.8764 0.0
C177 C 0.95833 0.51009 0.88394 0.0
C178 C 0.96209 0.4931 0.91094 0.0
C179 C 0.93781 0.48487 0.93563 0.0
C180 C 0.90959 0.49369 0.93372 0.0
C181 C 0.90613 0.51125 0.90708 0.0
C182 C 0.93039 0.51944 0.88233 0.0
C183 C 0.9841 0.51858 0.85775 0.0
C184 C 0.02238 0.53822 0.86511 0.0
C185 C 0.97137 0.50768 0.8258 0.0
C186 C 0.93191 0.48179 0.81632 0.0
C187 C 0.91211 0.44799 0.83099 0.0
C188 C 0.8772 0.4212 0.81876 0.0
C189 C 0.86186 0.42749 0.79131 0.0
C190 C 0.88109 0.46152 0.7771 0.0
C191 C 0.91562 0.48856 0.78968 0.0
H192 H 0.58634 0.08739 0.05659 0.0
H193 H 0.62928 0.15227 0.07076 0.0
H194 H 0.55928 0.18247 0.01814 0.0
H195 H 0.51608 0.11727 0.0038 0.0
H196 H 0.51081 0.04169 0.06614 0.0
H197 H 0.5912 0.10149 0.97584 0.0
H198 H 0.61186 0.14408 0.93204 0.0
H199 H 0.49994 0.09133 0.89267 0.0
H200 H 0.47899 0.0494 0.93672 0.0
H201 H 0.43876 0.93901 0.95418 0.0
H202 H 0.42756 0.87875 0.93447 0.0
H203 H 0.50101 0.87984 0.00863 0.0
H204 H 0.51254 0.94009 0.02824 0.0
H205 H 0.50071 -1e-05 0.95359 0.0
H206 H 0.41663 0.94306 0.03227 0.0
H207 H 0.38313 0.89923 0.07319 0.0
H208 H 0.48381 0.94423 0.13137 0.0
H209 H 0.51744 0.98839 0.09054 0.0
C210 C 0.54831 0.09765 0.02885 0.0
C211 C 0.57987 0.10789 0.04851 0.0
C212 C 0.60429 0.14478 0.05665 0.0
C213 C 0.59734 0.17195 0.04548 0.0
C214 C 0.5649 0.16172 0.02703 0.0
C215 C 0.54049 0.1247 0.01872 0.0
C216 C 0.52486 0.05865 0.01831 0.0
C217 C 0.5087 0.03253 0.04154 0.0
C218 C 0.52007 0.04677 0.986 0.0
C219 C 0.53344 0.07264 0.95979 0.0
C220 C 0.57105 0.0993 0.95798 0.0
C221 C 0.58288 0.12335 0.93296 0.0
C222 C 0.55733 0.12059 0.90927 0.0
C223 C 0.51994 0.09366 0.91077 0.0
C224 C 0.50808 0.06986 0.93584 0.0
C225 C 0.47637 0.94407 0.99278 0.0
C226 C 0.45191 0.92601 0.96658 0.0
C227 C 0.44546 0.89168 0.95539 0.0
C228 C 0.46352 0.87503 0.97014 0.0
C229 C 0.48668 0.89223 0.99712 0.0
C230 C 0.49306 0.92649 0.00836 0.0
C231 C 0.48812 0.98289 1.00164 0.0
C232 C 0.50216 0.00901 0.97815 0.0
C233 C 0.48951 0.99485 0.03346 0.0
C234 C 0.46957 0.96861 0.05827 0.0
C235 C 0.43152 0.9435 0.05382 0.0
C236 C 0.41237 0.91881 0.07717 0.0
C237 C 0.43111 0.91875 0.10516 0.0
C238 C 0.469 0.94417 0.10992 0.0
C239 C 0.4881 0.96915 0.08667 0.0
H240 H 0.43676 0.43071 0.19431 0.0
H241 H 0.45168 0.39923 0.23565 0.0
H242 H 0.56639 0.48462 0.23655 0.0
H243 H 0.55165 0.51567 0.19479 0.0
H244 H 0.45593 0.51102 0.19558 0.0
H245 H 0.48348 0.42323 0.13974 0.0
H246 H 0.52543 0.3994 0.12859 0.0
H247 H 0.60942 0.50723 0.10243 0.0
H248 H 0.56784 0.53119 0.11381 0.0
H249 H 0.51467 0.57745 0.07464 0.0
H250 H 0.49722 0.59739 0.02627 0.0
H251 H 0.38208 0.53381 0.04855 0.0
H252 H 0.39947 0.51404 0.0972 0.0
H253 H 0.49875 0.51103 0.08696 0.0
H254 H 0.48524 0.60172 0.13605 0.0
H255 H 0.4662 0.64364 0.15834 0.0
H256 H 0.37951 0.55466 0.20753 0.0
H257 H 0.39739 0.51199 0.18417 0.0
C258 C 0.49318 0.47532 0.19153 0.0
C259 C 0.46503 0.44277 0.20366 0.0
C260 C 0.47347 0.42489 0.22713 0.0
C261 C 0.51003 0.43983 0.23914 0.0
C262 C 0.538 0.47293 0.22764 0.0
C263 C 0.52964 0.49051 0.20387 0.0
C264 C 0.48458 0.49283 0.16527 0.0
C265 C 0.46428 0.51036 0.17153 0.0
C266 C 0.49815 0.49412 0.13474 0.0
C267 C 0.52265 0.47901 0.12766 0.0
C268 C 0.51102 0.44178 0.13185 0.0
C269 C 0.53483 0.4282 0.12554 0.0
C270 C 0.57044 0.4517 0.11492 0.0
C271 C 0.58206 0.48884 0.11078 0.0
C272 C 0.5583 0.50237 0.11704 0.0
C273 C 0.45839 0.54421 0.0896 0.0
C274 C 0.48569 0.56815 0.06939 0.0
C275 C 0.47579 0.57957 0.04184 0.0
C276 C 0.43837 0.56692 0.03378 0.0
C277 C 0.4111 0.5439 0.0544 0.0
C278 C 0.42105 0.53276 0.08218 0.0
C279 C 0.46864 0.5286 0.11671 0.0
C280 C 0.48942 0.51133 0.11069 0.0
C281 C 0.45715 0.52935 0.14794 0.0
C282 C 0.44236 0.55345 0.15791 0.0
C283 C 0.46136 0.59079 0.15075 0.0
C284 C 0.45094 0.61486 0.16384 0.0
C285 C 0.42175 0.60213 0.18468 0.0
C286 C 0.40226 0.56484 0.19159 0.0
C287 C 0.41238 0.5406 0.17815 0.0
Mg288 Mg 0.59952 0.35594 0.365 0.0
O289 O 0.59996 0.39428 0.40458 0.0
O290 O 0.6291 0.45157 0.38763 0.0
Mg291 Mg 0.64175 0.44858 0.33526 0.0
C292 C 0.61245 0.42866 0.40907 0.0
C293 C 0.58318 0.28193 0.38939 0.0
O294 O 0.58294 0.2771 0.3585 0.0
O295 O 0.66144 0.37832 0.37175 0.0
O296 O 0.68552 0.43292 0.34932 0.0
O297 O 0.54438 0.34607 0.34642 0.0
O298 O 0.59854 0.39004 0.33088 0.0
C299 C 0.68903 0.40776 0.36258 0.0
C300 C 0.56301 0.37426 0.32928 0.0
O301 O 0.58858 0.31249 0.40076 0.0
Mg302 Mg 0.26981 0.64639 0.59883 0.0
O303 O 0.22586 0.6104 0.56022 0.0
O304 O 0.20051 0.55247 0.5756 0.0
Mg305 Mg 0.2225 0.55275 0.62619 0.0
C306 C 0.20321 0.57603 0.55566 0.0
C307 C 0.32636 0.72099 0.58073 0.0
O308 O 0.33131 0.71953 0.61141 0.0
O309 O 0.30739 0.62398 0.58595 0.0
O310 O 0.28119 0.57031 0.61001 0.0
O311 O 0.2287 0.65694 0.62281 0.0
O312 O 0.2382 0.61077 0.63279 0.0
C313 C 0.30786 0.59566 0.59541 0.0
C314 C 0.22 0.62747 0.638 0.0
O315 O 0.3002 0.69314 0.56588 0.0
Mg316 Mg 0.63269 0.27349 0.76974 0.0
O317 O 0.61847 0.23276 0.72742 0.0
O318 O 0.64777 0.20135 0.7368 0.0
Mg319 Mg 0.67637 0.219 0.78654 0.0
C320 C 0.62712 0.20869 0.71927 0.0
C321 C 0.5832 0.30101 0.73575 0.0
O322 O 0.5557 0.27156 0.74737 0.0
O323 O 0.69148 0.30781 0.75471 0.0
O324 O 0.71895 0.27684 0.77012 0.0
O325 O 0.5828 0.2335 0.79509 0.0
O326 O 0.63798 0.23828 0.80024 0.0
C327 C 0.72047 0.30524 0.7582 0.0
C328 C 0.60383 0.22229 0.80771 0.0
O329 O 0.61626 0.30795 0.74043 0.0
Mg330 Mg 0.40407 0.66998 0.86734 0.0
O331 O 0.41179 0.63853 0.90759 0.0
O332 O 0.38189 0.5793 0.89121 0.0
Mg333 Mg 0.36247 0.57448 0.83871 0.0
C334 C 0.4004 0.60473 0.91237 0.0
C335 C 0.44963 0.74388 0.90887 0.0
O336 O 0.47823 0.74168 0.89932 0.0
O337 O 0.3429 0.64437 0.87775 0.0
O338 O 0.31853 0.5899 0.8518 0.0
O339 O 0.45759 0.68088 0.84575 0.0
O340 O 0.40285 0.63257 0.83382 0.0
C341 C 0.31496 0.61469 0.86672 0.0
C342 C 0.43786 0.65006 0.82983 0.0
O343 O 0.41705 0.71859 0.90082 0.0
Mg344 Mg 0.74647 0.40882 0.06458 0.0
O345 O 0.78196 0.41846 0.11032 0.0
O346 O 0.8173 0.39337 0.10057 0.0
Mg347 Mg 0.808 0.37221 0.04857 0.0
C348 C 0.8063 0.41014 0.11905 0.0
C349 C 0.67326 0.40391 0.07985 0.0
O350 O 0.6636 0.37798 0.05763 0.0
O351 O 0.71114 0.34769 0.07274 0.0
O352 O 0.74813 0.32673 0.05619 0.0
O353 O 0.78894 0.46201 0.04454 0.0
O354 O 0.78661 0.40881 0.03684 0.0
C355 C 0.7169 0.32142 0.06539 0.0
C356 C 0.80222 0.44315 0.0314 0.0
O357 O 0.70681 0.42193 0.09007 0.0
Mg358 Mg 0.34301 0.75173 0.23012 0.0
O359 O 0.37286 0.78695 0.27505 0.0
O360 O 0.43264 0.82143 0.26417 0.0
Mg361 Mg 0.44057 0.80977 0.21225 0.0
C362 C 0.40607 0.81139 0.28305 0.0
C363 C 0.26758 0.72033 0.26404 0.0
O364 O 0.26977 0.75104 0.25511 0.0
O365 O 0.3676 0.71494 0.23698 0.0
O366 O 0.4246 0.74952 0.219 0.0
O367 O 0.33279 0.79564 0.21091 0.0
O368 O 0.38178 0.79028 0.20161 0.0
C369 C 0.3985 0.71905 0.22833 0.0
C370 C 0.36404 0.8075 0.19726 0.0
O371 O 0.29346 0.71381 0.25818 0.0
C372 C 0.20411 0.64678 0.31913 0.0
C373 C 0.16968 0.63226 0.30202 0.0
C374 C 0.19956 0.67499 0.2597 0.0
C375 C 0.2335 0.6914 0.27784 0.0
N376 N 0.26707 0.6975 0.32702 0.0
N377 N 0.1328 0.63715 0.25954 0.0
C378 C 0.23551 0.67858 0.30823 0.0
C379 C 0.16685 0.64778 0.27335 0.0
N380 N 0.20698 0.62955 0.34522 0.0
N381 N 0.19884 0.6839 0.22882 0.0
H382 H 0.10807 0.61718 0.26874 0.0
H383 H 0.12885 0.65044 0.2406 0.0
H384 H 0.22226 0.7032 0.21755 0.0
H385 H 0.17573 0.66971 0.21344 0.0
H386 H 0.23211 0.63643 0.35672 0.0
H387 H 0.18445 0.60639 0.35402 0.0
H388 H 0.26903 0.69177 0.35062 0.0
H389 H 0.29045 0.72116 0.3199 0.0
C390 C 0.59451 0.20429 0.42055 0.0
C391 C 0.56865 0.19162 0.44498 0.0
C392 C 0.55277 0.23916 0.43394 0.0
C393 C 0.57991 0.25287 0.41052 0.0
N394 N 0.63409 0.2554 0.38867 0.0
N395 N 0.53032 0.20247 0.48038 0.0
C396 C 0.60313 0.23757 0.40603 0.0
C397 C 0.55016 0.21095 0.45348 0.0
N398 N 0.60946 0.18373 0.40999 0.0
N399 N 0.52805 0.25136 0.43634 0.0
H400 H 0.52822 0.18214 0.49533 0.0
H401 H 0.51915 0.21791 0.48945 0.0
H402 H 0.52822 0.27126 0.42197 0.0
H403 H 0.50525 0.2394 0.45066 0.0
H404 H 0.62514 0.18977 0.38984 0.0
H405 H 0.60365 0.15889 0.4196 0.0
H406 H 0.65386 0.24723 0.38719 0.0
H407 H 0.64216 0.28064 0.37868 0.0
C408 C 0.37525 0.56293 0.5752 0.0
C409 C 0.40314 0.58258 0.59926 0.0
C410 C 0.3729 0.61738 0.61467 0.0
C411 C 0.34248 0.59429 0.59354 0.0
N412 N 0.31382 0.54537 0.55358 0.0
N413 N 0.42875 0.6273 0.64285 0.0
C414 C 0.34356 0.56732 0.57353 0.0
C415 C 0.40235 0.60991 0.61894 0.0
N416 N 0.37931 0.54023 0.55399 0.0
N417 N 0.37344 0.64617 0.63097 0.0
H418 H 0.45155 0.62361 0.64595 0.0
H419 H 0.42714 0.64378 0.6608 0.0
H420 H 0.35158 0.65148 0.63018 0.0
H421 H 0.39664 0.6665 0.6437 0.0
H422 H 0.36181 0.52749 0.53413 0.0
H423 H 0.40205 0.5362 0.55493 0.0
H424 H 0.31069 0.52237 0.54098 0.0
H425 H 0.29118 0.54936 0.55055 0.0
C426 C 0.79482 0.40183 0.77481 0.0
C427 C 0.82652 0.39771 0.77647 0.0
C428 C 0.78987 0.33514 0.75296 0.0
C429 C 0.75771 0.33856 0.75412 0.0
N430 N 0.73613 0.3818 0.74726 0.0
N431 N 0.85709 0.36523 0.75823 0.0
C432 C 0.76208 0.37401 0.75903 0.0
C433 C 0.82498 0.36575 0.7627 0.0
N434 N 0.79529 0.43145 0.78929 0.0
N435 N 0.78664 0.30277 0.74214 0.0
H436 H 0.88318 0.38758 0.76437 0.0
H437 H 0.85835 0.34401 0.74626 0.0
H438 H 0.76239 0.28224 0.7306 0.0
H439 H 0.8076 0.2963 0.74438 0.0
H440 H 0.77153 0.43354 0.79124 0.0
H441 H 0.81845 0.45217 0.80186 0.0
H442 H 0.73944 0.40805 0.74881 0.0
H443 H 0.71467 0.36383 0.73151 0.0
C444 C 0.43998 0.80693 0.96936 0.0
C445 C 0.46108 0.84142 0.95542 0.0
C446 C 0.47362 0.81177 0.91056 0.0
C447 C 0.45496 0.77767 0.92559 0.0
N448 N 0.42576 0.74359 0.97167 0.0
N449 N 0.50466 0.87804 0.91655 0.0
C450 C 0.43962 0.77545 0.95571 0.0
C451 C 0.47995 0.84425 0.92716 0.0
N452 N 0.41944 0.80408 0.99503 0.0
N453 N 0.48352 0.813 0.87974 0.0
H454 H 0.51023 0.9026 0.92806 0.0
H455 H 0.52219 0.88176 0.89807 0.0
H456 H 0.47861 0.78981 0.86625 0.0
H457 H 0.49334 0.83646 0.86652 0.0
H458 H 0.40037 0.77911 0.0042 0.0
H459 H 0.41934 0.82662 0.00578 0.0
H460 H 0.41762 0.7413 0.99503 0.0
H461 H 0.42541 0.72015 0.96252 0.0
C462 C 0.61438 0.42953 0.1304 0.0
C463 C 0.59522 0.43733 0.10637 0.0
C464 C 0.62973 0.42646 0.06561 0.0
C465 C 0.64653 0.41545 0.08928 0.0
N466 N 0.65045 0.40053 0.14356 0.0
N467 N 0.57869 0.4358 0.05098 0.0
C468 C 0.63766 0.41533 0.12157 0.0
C469 C 0.60105 0.43347 0.07391 0.0
N470 N 0.61123 0.4368 0.16156 0.0
N471 N 0.64252 0.43224 0.03553 0.0
H472 H 0.55723 0.44082 0.05613 0.0
H473 H 0.57912 0.42931 0.02708 0.0
H474 H 0.66457 0.42898 0.02862 0.0
H475 H 0.63388 0.44399 0.01831 0.0
H476 H 0.62752 0.4354 0.17994 0.0
H477 H 0.59424 0.44697 0.16889 0.0
H478 H 0.64179 0.39615 0.16679 0.0
H479 H 0.66736 0.38967 0.13789 0.0
C480 C 0.41663 0.80444 0.56098 0.0
C481 C 0.40397 0.82312 0.54132 0.0
C482 C 0.3399 0.77325 0.54509 0.0
C483 C 0.3527 0.75403 0.56399 0.0
N484 N 0.40371 0.7461 0.58144 0.0
N485 N 0.35556 0.82103 0.50743 0.0
C486 C 0.39127 0.768 0.56926 0.0
C487 C 0.36619 0.80602 0.53095 0.0
N488 N 0.45231 0.82199 0.57306 0.0
N489 N 0.30293 0.7617 0.54223 0.0
H490 H 0.37431 0.84484 0.49635 0.0
H491 H 0.32903 0.80793 0.4968 0.0
H492 H 0.28264 0.73835 0.55276 0.0
H493 H 0.29258 0.77707 0.53169 0.0
H494 H 0.4617 0.81101 0.5904 0.0
H495 H 0.47182 0.84879 0.56773 0.0
H496 H 0.43163 0.75374 0.58305 0.0
H497 H 0.38593 0.71874 0.58667 0.0
C498 C 0.58743 0.3665 0.67342 0.0
C499 C 0.57008 0.3837 0.68911 0.0
C500 C 0.56131 0.34672 0.73553 0.0
C501 C 0.57646 0.32778 0.71907 0.0
N502 N 0.59762 0.31457 0.67049 0.0
N503 N 0.53366 0.38533 0.73206 0.0
C504 C 0.58773 0.33622 0.68743 0.0
C505 C 0.5549 0.3723 0.71926 0.0
N506 N 0.60456 0.37981 0.64562 0.0
N507 N 0.5549 0.34182 0.76717 0.0
H508 H 0.52846 0.40429 0.72097 0.0
H509 H 0.51851 0.37493 0.75228 0.0
H510 H 0.55964 0.32372 0.78022 0.0
H511 H 0.548 0.35806 0.78118 0.0
H512 H 0.62119 0.37109 0.63481 0.0
H513 H 0.6045 0.40168 0.63451 0.0
H514 H 0.60252 0.31699 0.64635 0.0
H515 H 0.59767 0.29187 0.67989 0.0
C516 C 0.2104 0.56452 0.86774 0.0
C517 C 0.2025 0.5937 0.86854 0.0
C518 C 0.26887 0.6377 0.86705 0.0
C519 C 0.27683 0.60865 0.87033 0.0
N520 N 0.25373 0.54588 0.88529 0.0
N521 N 0.22576 0.65843 0.87913 0.0
C522 C 0.24715 0.5725 0.8744 0.0
C523 C 0.23224 0.63046 0.87159 0.0
N524 N 0.18369 0.52953 0.85878 0.0
N525 N 0.29499 0.67138 0.85737 0.0
H526 H 0.19943 0.65397 0.88399 0.0
H527 H 0.24709 0.68531 0.88404 0.0
H528 H 0.32121 0.67748 0.85054 0.0
H529 H 0.28887 0.69196 0.85226 0.0
H530 H 0.1895 0.50829 0.85555 0.0
H531 H 0.15706 0.52266 0.85086 0.0
H532 H 0.2324 0.51984 0.8906 0.0
H533 H 0.28004 0.55128 0.89282 0.0
C534 C 0.64772 0.23055 0.02489 0.0
C535 C 0.62605 0.21116 0.05061 0.0
C536 C 0.66446 0.26407 0.08692 0.0
C537 C 0.68461 0.284 0.06079 0.0
N538 N 0.68912 0.28974 0.00398 0.0
N539 N 0.60917 0.21088 0.10487 0.0
C540 C 0.67435 0.26828 0.02948 0.0
C541 C 0.63303 0.22838 0.08133 0.0
N542 N 0.64404 0.21261 0.99639 0.0
N543 N 0.67613 0.27872 0.11705 0.0
H544 H 0.5859 0.18478 0.10144 0.0
H545 H 0.61061 0.22328 0.1269 0.0
H546 H 0.69883 0.30491 0.12182 0.0
H547 H 0.66508 0.26407 0.13733 0.0
H548 H 0.6621 0.22449 0.97805 0.0
H549 H 0.62508 0.18481 0.9919 0.0
H550 H 0.67964 0.28057 0.98066 0.0
H551 H 0.70818 0.31782 0.00617 0.0
C552 C 0.38429 0.63337 0.18373 0.0
C553 C 0.41184 0.62833 0.19911 0.0
C554 C 0.42468 0.67779 0.23827 0.0
C555 C 0.4005 0.68571 0.2205 0.0
N556 N 0.36038 0.67425 0.17412 0.0
N557 N 0.45917 0.64533 0.24037 0.0
C558 C 0.3807 0.66406 0.19287 0.0
C559 C 0.43214 0.65026 0.22641 0.0
N560 N 0.36164 0.60887 0.16026 0.0
N561 N 0.44001 0.69633 0.26661 0.0
H562 H 0.46415 0.62433 0.23316 0.0
H563 H 0.47786 0.66291 0.25806 0.0
H564 H 0.43496 0.71667 0.27562 0.0
H565 H 0.45531 0.68984 0.28228 0.0
H566 H 0.33824 0.60856 0.15069 0.0
H567 H 0.36434 0.58677 0.15206 0.0
H568 H 0.34931 0.66241 0.1517 0.0
H569 H 0.35683 0.69656 0.1796 0.0
C570 C 0.77913 0.41499 0.39378 0.0
C571 C 0.79912 0.42353 0.36552 0.0
C572 C 0.74438 0.41468 0.33519 0.0
C573 C 0.72615 0.41127 0.36393 0.0
N574 N 0.72718 0.41191 0.42112 0.0
N575 N 0.80292 0.43765 0.31004 0.0
C576 C 0.74365 0.41215 0.39344 0.0
C577 C 0.78231 0.42493 0.33636 0.0
N578 N 0.7938 0.40895 0.42072 0.0
N579 N 0.72512 0.4069 0.30671 0.0
H580 H 0.83102 0.44606 0.30984 0.0
H581 H 0.79298 0.44307 0.28918 0.0
H582 H 0.69693 0.39829 0.30479 0.0
H583 H 0.7361 0.40524 0.28522 0.0
H584 H 0.77909 0.39908 0.44122 0.0
H585 H 0.81967 0.41072 0.42166 0.0
H586 H 0.74035 0.4165 0.4434 0.0
H587 H 0.70132 0.41004 0.42177 0.0
C588 C 0.16492 0.56919 0.47118 0.0
C589 C 0.12674 0.54366 0.47443 0.0
C590 C 0.1383 0.54035 0.5311 0.0
C591 C 0.17706 0.56337 0.52739 0.0
N592 N 0.22766 0.5924 0.49201 0.0
N593 N 0.07889 0.4979 0.50558 0.0
C594 C 0.19052 0.5757 0.49684 0.0
C595 C 0.11401 0.52704 0.50381 0.0
N596 N 0.17663 0.58822 0.44405 0.0
N597 N 0.12411 0.53278 0.56063 0.0
H598 H 0.06037 0.4869 0.48601 0.0
H599 H 0.06951 0.48232 0.52567 0.0
H600 H 0.14023 0.5427 0.58157 0.0
H601 H 0.0958 0.5197 0.56439 0.0
H602 H 0.20348 0.60994 0.44171 0.0
H603 H 0.15873 0.58455 0.42485 0.0
H604 H 0.23869 0.59877 0.46962 0.0
H605 H 0.24714 0.59631 0.50988 0.0
C606 C 0.56123 0.13413 0.65933 0.0
C607 C 0.58342 0.14316 0.63233 0.0
C608 C 0.63442 0.19551 0.66233 0.0
C609 C 0.61159 0.18743 0.6888 0.0
N610 N 0.55132 0.15347 0.71101 0.0
N611 N 0.63824 0.18575 0.60589 0.0
C612 C 0.57431 0.15818 0.68676 0.0
C613 C 0.61924 0.17487 0.63319 0.0
N614 N 0.5284 0.10165 0.6593 0.0
N615 N 0.67077 0.22261 0.6652 0.0
H616 H 0.62785 0.17131 0.58418 0.0
H617 H 0.6628 0.21056 0.60405 0.0
H618 H 0.68234 0.23948 0.68562 0.0
H619 H 0.69006 0.22707 0.64814 0.0
H620 H 0.51306 0.09139 0.67943 0.0
H621 H 0.51774 0.08331 0.6397 0.0
H622 H 0.52287 0.13531 0.70949 0.0
H623 H 0.56008 0.16979 0.73187 0.0
C624 C 0.45108 0.61148 0.75223 0.0
C625 C 0.47989 0.60438 0.76096 0.0
C626 C 0.48085 0.62642 0.81562 0.0
C627 C 0.45404 0.63605 0.80618 0.0
N628 N 0.41969 0.64534 0.7641 0.0
N629 N 0.5266 0.61039 0.79927 0.0
C630 C 0.44086 0.63072 0.77407 0.0
C631 C 0.49609 0.6134 0.79221 0.0
N632 N 0.43257 0.59875 0.72343 0.0
N633 N 0.4906 0.62823 0.84703 0.0
H634 H 0.53834 0.6008 0.78276 0.0
H635 H 0.54203 0.62015 0.82059 0.0
H636 H 0.48009 0.63769 0.86478 0.0
H637 H 0.50678 0.61768 0.85579 0.0
H638 H 0.40868 0.59954 0.71718 0.0
H639 H 0.43903 0.58437 0.70671 0.0
H640 H 0.41263 0.64576 0.74034 0.0
H641 H 0.41226 0.66041 0.77915 0.0
C642 C 0.89149 0.50168 0.98848 0.0
C643 C 0.88201 0.48215 0.95869 0.0
C644 C 0.819 0.44183 0.97537 0.0
C645 C 0.82964 0.45833 0.00641 0.0
N646 N 0.87665 0.50164 0.04377 0.0
N647 N 0.83886 0.43005 0.92527 0.0
C648 C 0.86604 0.48784 0.01332 0.0
C649 C 0.84633 0.45122 0.95253 0.0
N650 N 0.92444 0.53382 0.99273 0.0
N651 N 0.78244 0.4183 0.96727 0.0
H652 H 0.85808 0.43597 0.90775 0.0
H653 H 0.81471 0.4048 0.92127 0.0
H654 H 0.76119 0.41156 0.98294 0.0
H655 H 0.77273 0.40849 0.94411 0.0
H656 H 0.93139 0.5513 0.01273 0.0
H657 H 0.94377 0.54454 0.97508 0.0
H658 H 0.9039 0.52034 0.05107 0.0
H659 H 0.85851 0.49237 0.06233 0.0
C660 C 0.40195 0.85349 0.12074 0.0
C661 C 0.41157 0.89024 0.1285 0.0
C662 C 0.38801 0.87289 0.18177 0.0
C663 C 0.37674 0.83588 0.17329 0.0
N664 N 0.3637 0.78948 0.13234 0.0
N665 N 0.4078 0.93413 0.16372 0.0
C666 C 0.38087 0.82575 0.14201 0.0
C667 C 0.40276 0.89974 0.15825 0.0
N668 N 0.41427 0.84527 0.0937 0.0
N669 N 0.38606 0.8826 0.21245 0.0
H670 H 0.41863 0.95443 0.14699 0.0
H671 H 0.39851 0.94162 0.18368 0.0
H672 H 0.37471 0.86343 0.22998 0.0
H673 H 0.39779 0.90971 0.22096 0.0
H674 H 0.41153 0.81963 0.08873 0.0
H675 H 0.43026 0.86485 0.07752 0.0
H676 H 0.36271 0.78064 0.10888 0.0
H677 H 0.34706 0.76825 0.147 0.0
C678 C 0.5136 0.42207 0.29507 0.0
C679 C 0.51972 0.41969 0.26234 0.0
C680 C 0.5468 0.38097 0.27368 0.0
C681 C 0.54453 0.38679 0.30659 0.0
N682 N 0.52593 0.4119 0.34946 0.0
N683 N 0.54223 0.39772 0.21983 0.0
C684 C 0.52749 0.40667 0.31756 0.0
C685 C 0.53617 0.39917 0.25144 0.0
N686 N 0.49464 0.43918 0.30451 0.0
N687 N 0.55804 0.35698 0.26378 0.0
H688 H 0.53262 0.40858 0.20251 0.0
H689 H 0.55829 0.38736 0.21071 0.0
H690 H 0.56566 0.34287 0.27948 0.0
H691 H 0.55693 0.34852 0.24023 0.0
H692 H 0.486 0.43904 0.32744 0.0
H693 H 0.48558 0.45213 0.28884 0.0
H694 H 0.51725 0.42902 0.35945 0.0
H695 H 0.53497 0.40013 0.36639 0.0
C696 C 0.41547 0.88115 0.3468 0.0
C697 C 0.4375 0.87666 0.37042 0.0
C698 C 0.43712 0.82744 0.33757 0.0
C699 C 0.41392 0.83105 0.3145 0.0
N700 N 0.37429 0.85563 0.30032 0.0
N701 N 0.46341 0.84128 0.39153 0.0
C702 C 0.40079 0.85594 0.32023 0.0
C703 C 0.4466 0.84848 0.36675 0.0
N704 N 0.41022 0.91073 0.34884 0.0
N705 N 0.45034 0.8041 0.33145 0.0
H706 H 0.4705 0.85606 0.41321 0.0
H707 H 0.46759 0.81886 0.39166 0.0
H708 H 0.44198 0.78647 0.31136 0.0
H709 H 0.47087 0.80341 0.3454 0.0
H710 H 0.39836 0.91806 0.3305 0.0
H711 H 0.42058 0.93001 0.36779 0.0
H712 H 0.3607 0.87016 0.3053 0.0
H713 H 0.3633 0.83839 0.28014 0.0
C714 C 0.58566 0.47811 0.47104 0.0
C715 C 0.5881 0.46126 0.49899 0.0
C716 C 0.61443 0.4299 0.46878 0.0
C717 C 0.60631 0.44201 0.44008 0.0
N718 N 0.57795 0.47314 0.41399 0.0
N719 N 0.60036 0.41722 0.52401 0.0
C720 C 0.59048 0.46515 0.44118 0.0
C721 C 0.60139 0.43614 0.4978 0.0
N722 N 0.57945 0.50707 0.47303 0.0
N723 N 0.63579 0.41366 0.46854 0.0
H724 H 0.59086 0.42089 0.54567 0.0
H725 H 0.60591 0.39566 0.52349 0.0
H726 H 0.64723 0.41007 0.448 0.0
H727 H 0.64547 0.40746 0.48912 0.0
H728 H 0.58125 0.52283 0.45374 0.0
H729 H 0.5763 0.51775 0.49454 0.0
H730 H 0.56237 0.48627 0.414 0.0
H731 H 0.57977 0.46368 0.39149 0.0
C732 C 0.17576 0.60738 0.71796 0.0
C733 C 0.13778 0.58564 0.70843 0.0
C734 C 0.15355 0.59622 0.65262 0.0
C735 C 0.1916 0.61435 0.66208 0.0
N736 N 0.23967 0.63447 0.70331 0.0
N737 N 0.09045 0.55463 0.66696 0.0
C738 C 0.20292 0.61899 0.69464 0.0
C739 C 0.12658 0.57884 0.67579 0.0
N740 N 0.18576 0.6184 0.74913 0.0
N741 N 0.1432 0.59592 0.6216 0.0
H742 H 0.07 0.54104 0.6833 0.0
H743 H 0.08132 0.54556 0.64357 0.0
H744 H 0.16224 0.60749 0.60383 0.0
H745 H 0.11595 0.58658 0.61382 0.0
H746 H 0.21264 0.63751 0.75707 0.0
H747 H 0.16664 0.61103 0.76691 0.0
H748 H 0.24918 0.63429 0.72631 0.0
H749 H 0.26076 0.64562 0.68718 0.0
C750 C 0.57812 0.13654 0.85366 0.0
C751 C 0.56938 0.14659 0.88317 0.0
C752 C 0.5845 0.20661 0.86342 0.0
C753 C 0.59061 0.19556 0.83315 0.0
N754 N 0.58878 0.14889 0.79782 0.0
N755 N 0.55918 0.18859 0.91536 0.0
C756 C 0.58627 0.1602 0.82781 0.0
C757 C 0.57109 0.1809 0.88782 0.0
N758 N 0.5794 0.10475 0.85063 0.0
N759 N 0.59314 0.24221 0.86929 0.0
H760 H 0.55029 0.17096 0.93424 0.0
H761 H 0.55552 0.21116 0.91872 0.0
H762 H 0.60289 0.26198 0.85209 0.0
H763 H 0.59352 0.25308 0.8918 0.0
H764 H 0.5894 0.09768 0.83092 0.0
H765 H 0.57289 0.08647 0.8689 0.0
H766 H 0.58219 0.12217 0.79153 0.0
H767 H 0.59467 0.16564 0.77849 0.0
C768 C 0.43326 0.56138 0.97417 0.0
C769 C 0.42778 0.57613 0.00279 0.0
C770 C 0.40009 0.60592 0.97216 0.0
C771 C 0.40957 0.59469 0.94353 0.0
N772 N 0.44234 0.56808 0.9178 0.0
N773 N 0.41162 0.61745 0.02901 0.0
C774 C 0.42807 0.57408 0.94465 0.0
C775 C 0.41277 0.59984 1.0018 0.0
N776 N 0.44235 0.53435 0.9751 0.0
N777 N 0.37764 0.62096 0.97116 0.0
H778 H 0.42073 0.61377 0.05113 0.0
H779 H 0.40473 0.63809 0.02924 0.0
H780 H 0.36678 0.62483 0.95004 0.0
H781 H 0.3668 0.62624 0.99129 0.0
H782 H 0.44283 0.5199 0.9549 0.0
H783 H 0.44587 0.52383 0.99621 0.0
H784 H 0.45951 0.55669 0.91797 0.0
H785 H 0.44024 0.57782 0.89581 0.0
C786 C 0.83327 0.40583 0.20523 0.0
C787 C 0.86523 0.44113 0.20974 0.0
C788 C 0.8527 0.45833 0.15765 0.0
C789 C 0.82389 0.42156 0.15141 0.0
N790 N 0.7871 0.35953 0.16827 0.0
N791 N 0.90795 0.50005 0.18928 0.0
C792 C 0.81417 0.39509 0.175 0.0
C793 C 0.87547 0.46729 0.1858 0.0
N794 N 0.82077 0.38299 0.23011 0.0
N795 N 0.85821 0.48472 0.13669 0.0
H796 H 0.92535 0.50781 0.20958 0.0
H797 H 0.9192 0.51842 0.17117 0.0
H798 H 0.84232 0.47908 0.11571 0.0
H799 H 0.87618 0.51267 0.14135 0.0
H800 H 0.79567 0.35836 0.22943 0.0
H801 H 0.83409 0.39016 0.25253 0.0
H802 H 0.78159 0.33795 0.18292 0.0
H803 H 0.77125 0.35118 0.14703 0.0
loop_
_geom_bond_atom_site_label_1
_geom_bond_atom_site_label_2
_geom_bond_distance
_geom_bond_site_symmetry_2
_ccdc_geom_bond_type
H0 C19 0.949 . S
H1 C20 0.950 . S
H2 C22 0.950 . S
H3 C23 0.950 . S
H4 C25 0.950 . S
H5 C28 0.950 . S
H6 C29 0.950 . S
H7 C31 0.951 . S
H8 C32 0.949 . S
H9 C34 0.949 . S
H10 C35 0.950 . S
H11 C37 0.950 . S
H12 C38 0.950 . S
H13 C40 0.950 . S
H14 C43 0.950 . S
H15 C44 0.950 . S
H16 C46 0.951 . S
H17 C47 0.949 . S
C18 C19 1.376 . S
C18 C23 1.386 . S
C18 C24 1.483 . S
C19 H0 0.949 . S
C19 C18 1.376 . S
C19 C20 1.397 . S
C20 H1 0.950 . S
C20 C19 1.397 . S
C20 C21 1.391 . S
C21 C20 1.391 . S
C21 C22 1.405 . S
C22 H2 0.950 . S
C22 C21 1.405 . S
C22 C23 1.367 . S
C23 H3 0.950 . S
C23 C18 1.386 . S
C23 C22 1.367 . S
C24 C18 1.483 . S
C24 C25 1.382 1_655 S
C24 C26 1.403 . S
C25 H4 0.950 . S
C25 C24 1.382 1_455 S
C25 C41 1.411 . S
C26 C24 1.403 . S
C26 C27 1.489 . S
C26 C40 1.411 . S
C27 C26 1.489 . S
C27 C28 1.383 . S
C27 C32 1.382 . S
C28 H5 0.950 . S
C28 C27 1.383 . S
C28 C29 1.395 . S
C29 H6 0.950 . S
C29 C28 1.395 . S
C29 C30 1.288 . S
C30 C29 1.288 . S
C30 C31 1.392 . S
C31 H7 0.951 . S
C31 C30 1.392 . S
C31 C32 1.392 . S
C32 H8 0.949 . S
C32 C27 1.382 . S
C32 C31 1.392 . S
C33 C34 1.376 . S
C33 C38 1.386 . S
C33 C39 1.483 . S
C34 H9 0.949 . S
C34 C33 1.376 . S
C34 C35 1.397 . S
C35 H10 0.950 . S
C35 C34 1.397 . S
C35 C36 1.391 . S
C36 C35 1.391 . S
C36 C37 1.405 . S
C37 H11 0.950 . S
C37 C36 1.405 . S
C37 C38 1.367 . S
C38 H12 0.950 . S
C38 C33 1.386 . S
C38 C37 1.367 . S
C39 C33 1.483 . S
C39 C40 1.382 1_455 S
C39 C41 1.403 . S
C40 H13 0.950 . S
C40 C26 1.411 . S
C40 C39 1.382 1_655 S
C41 C25 1.411 . S
C41 C39 1.403 . S
C41 C42 1.489 . S
C42 C41 1.489 . S
C42 C43 1.383 . S
C42 C47 1.382 . S
C43 H14 0.950 . S
C43 C42 1.383 . S
C43 C44 1.395 . S
C44 H15 0.950 . S
C44 C43 1.395 . S
C44 C45 1.288 . S
C45 C44 1.288 . S
C45 C46 1.392 . S
C46 H16 0.951 . S
C46 C45 1.392 . S
C46 C47 1.392 . S
C47 H17 0.949 . S
C47 C42 1.382 . S
C47 C46 1.392 . S
H48 C67 0.949 . S
H49 C68 0.950 . S
H50 C70 0.950 . S
H51 C71 0.950 . S
H52 C73 0.950 1_565 S
H53 C76 0.950 . S
H54 C77 0.950 . S
H55 C79 0.951 . S
H56 C80 0.949 . S
H57 C82 0.949 . S
H58 C83 0.950 . S
H59 C85 0.950 . S
H60 C86 0.950 . S
H61 C88 0.950 . S
H62 C91 0.950 . S
H63 C92 0.950 . S
H64 C94 0.951 . S
H65 C95 0.949 . S
C66 C67 1.376 . S
C66 C71 1.386 . S
C66 C72 1.483 . S
C67 H48 0.949 . S
C67 C66 1.376 . S
C67 C68 1.397 . S
C68 H49 0.950 . S
C68 C67 1.397 . S
C68 C69 1.391 . S
C69 C68 1.391 . S
C69 C70 1.405 . S
C70 H50 0.950 . S
C70 C69 1.405 . S
C70 C71 1.367 . S
C71 H51 0.950 . S
C71 C66 1.386 . S
C71 C70 1.367 . S
C72 C66 1.483 . S
C72 C73 1.382 1_565 S
C72 C74 1.403 . S
C73 H52 0.950 1_545 S
C73 C72 1.382 1_545 S
C73 C89 1.411 . S
C74 C72 1.403 . S
C74 C75 1.489 . S
C74 C88 1.411 1_565 S
C75 C74 1.489 . S
C75 C76 1.383 . S
C75 C80 1.382 . S
C76 H53 0.950 . S
C76 C75 1.383 . S
C76 C77 1.395 . S
C77 H54 0.950 . S
C77 C76 1.395 . S
C77 C78 1.288 . S
C78 C77 1.288 . S
C78 C79 1.392 . S
C79 H55 0.951 . S
C79 C78 1.392 . S
C79 C80 1.392 . S
C80 H56 0.949 . S
C80 C75 1.382 . S
C80 C79 1.392 . S
C81 C82 1.376 . S
C81 C86 1.386 . S
C81 C87 1.483 . S
C82 H57 0.949 . S
C82 C81 1.376 . S
C82 C83 1.397 . S
C83 H58 0.950 . S
C83 C82 1.397 . S
C83 C84 1.391 . S
C84 C83 1.391 . S
C84 C85 1.405 . S
C85 H59 0.950 . S
C85 C84 1.405 . S
C85 C86 1.367 . S
C86 H60 0.950 . S
C86 C81 1.386 . S
C86 C85 1.367 . S
C87 C81 1.483 . S
C87 C88 1.382 . S
C87 C89 1.403 . S
C88 H61 0.950 . S
C88 C74 1.411 1_545 S
C88 C87 1.382 . S
C89 C73 1.411 . S
C89 C87 1.403 . S
C89 C90 1.489 . S
C90 C89 1.489 . S
C90 C91 1.383 . S
C90 C95 1.382 . S
C91 H62 0.950 . S
C91 C90 1.383 . S
C91 C92 1.395 . S
C92 H63 0.950 . S
C92 C91 1.395 . S
C92 C93 1.288 . S
C93 C92 1.288 . S
C93 C94 1.392 . S
C94 H64 0.951 . S
C94 C93 1.392 . S
C94 C95 1.392 . S
C95 H65 0.949 . S
C95 C90 1.382 . S
C95 C94 1.392 . S
H96 C115 0.949 . S
H97 C116 0.950 . S
H98 C118 0.950 . S
H99 C119 0.950 . S
H100 C121 0.950 . S
H101 C124 0.950 . S
H102 C125 0.950 . S
H103 C127 0.951 . S
H104 C128 0.949 . S
H105 C130 0.949 . S
H106 C131 0.950 . S
H107 C133 0.950 . S
H108 C134 0.950 . S
H109 C136 0.950 . S
H110 C139 0.950 . S
H111 C140 0.950 . S
H112 C142 0.951 . S
H113 C143 0.949 . S
C114 C115 1.376 . S
C114 C119 1.386 . S
C114 C120 1.483 . S
C115 H96 0.949 . S
C115 C114 1.376 . S
C115 C116 1.397 . S
C116 H97 0.950 . S
C116 C115 1.397 . S
C116 C117 1.391 . S
C117 C116 1.391 . S
C117 C118 1.405 . S
C118 H98 0.950 . S
C118 C117 1.405 . S
C118 C119 1.367 . S
C119 H99 0.950 . S
C119 C114 1.386 . S
C119 C118 1.367 . S
C120 C114 1.483 . S
C120 C121 1.382 . S
C120 C122 1.403 . S
C121 H100 0.950 . S
C121 C120 1.382 . S
C121 C137 1.411 . S
C122 C120 1.403 . S
C122 C123 1.489 . S
C122 C136 1.411 . S
C123 C122 1.489 . S
C123 C124 1.383 . S
C123 C128 1.382 . S
C124 H101 0.950 . S
C124 C123 1.383 . S
C124 C125 1.395 . S
C125 H102 0.950 . S
C125 C124 1.395 . S
C125 C126 1.288 . S
C126 C125 1.288 . S
C126 C127 1.392 . S
C127 H103 0.951 . S
C127 C126 1.392 . S
C127 C128 1.392 . S
C128 H104 0.949 . S
C128 C123 1.382 . S
C128 C127 1.392 . S
C129 C130 1.376 . S
C129 C134 1.386 . S
C129 C135 1.483 . S
C130 H105 0.949 . S
C130 C129 1.376 . S
C130 C131 1.397 . S
C131 H106 0.950 . S
C131 C130 1.397 . S
C131 C132 1.391 . S
C132 C131 1.391 . S
C132 C133 1.405 . S
C133 H107 0.950 . S
C133 C132 1.405 . S
C133 C134 1.367 . S
C134 H108 0.950 . S
C134 C129 1.386 . S
C134 C133 1.367 . S
C135 C129 1.483 . S
C135 C136 1.382 . S
C135 C137 1.403 . S
C136 H109 0.950 . S
C136 C122 1.411 . S
C136 C135 1.382 . S
C137 C121 1.411 . S
C137 C135 1.403 . S
C137 C138 1.489 . S
C138 C137 1.489 . S
C138 C139 1.383 . S
C138 C143 1.382 . S
C139 H110 0.950 . S
C139 C138 1.383 . S
C139 C140 1.395 . S
C140 H111 0.950 . S
C140 C139 1.395 . S
C140 C141 1.288 . S
C141 C140 1.288 . S
C141 C142 1.392 . S
C142 H112 0.951 . S
C142 C141 1.392 . S
C142 C143 1.392 . S
C143 H113 0.949 . S
C143 C138 1.382 . S
C143 C142 1.392 . S
H144 C163 0.949 . S
H145 C164 0.950 . S
H146 C166 0.950 . S
H147 C167 0.950 . S
H148 C169 0.950 . S
H149 C172 0.950 . S
H150 C173 0.950 . S
H151 C175 0.951 . S
H152 C176 0.949 . S
H153 C178 0.949 . S
H154 C179 0.950 . S
H155 C181 0.950 . S
H156 C182 0.950 . S
H157 C184 0.950 . S
H158 C187 0.950 . S
H159 C188 0.950 . S
H160 C190 0.951 . S
H161 C191 0.949 . S
C162 C163 1.376 . S
C162 C167 1.386 . S
C162 C168 1.483 . S
C163 H144 0.949 . S
C163 C162 1.376 . S
C163 C164 1.397 . S
C164 H145 0.950 . S
C164 C163 1.397 . S
C164 C165 1.391 . S
C165 C164 1.391 . S
C165 C166 1.405 . S
C166 H146 0.950 . S
C166 C165 1.405 . S
C166 C167 1.367 . S
C167 H147 0.950 . S
C167 C162 1.386 . S
C167 C166 1.367 . S
C168 C162 1.483 . S
C168 C169 1.382 1_455 S
C168 C170 1.403 . S
C169 H148 0.950 . S
C169 C168 1.382 1_655 S
C169 C185 1.411 . S
C170 C168 1.403 . S
C170 C171 1.489 . S
C170 C184 1.411 . S
C171 C170 1.489 . S
C171 C172 1.383 . S
C171 C176 1.382 . S
C172 H149 0.950 . S
C172 C171 1.383 . S
C172 C173 1.395 . S
C173 H150 0.950 . S
C173 C172 1.395 . S
C173 C174 1.288 . S
C174 C173 1.288 . S
C174 C175 1.392 . S
C175 H151 0.951 . S
C175 C174 1.392 . S
C175 C176 1.392 . S
C176 H152 0.949 . S
C176 C171 1.382 . S
C176 C175 1.392 . S
C177 C178 1.376 . S
C177 C182 1.386 . S
C177 C183 1.483 . S
C178 H153 0.949 . S
C178 C177 1.376 . S
C178 C179 1.397 . S
C179 H154 0.950 . S
C179 C178 1.397 . S
C179 C180 1.391 . S
C180 C179 1.391 . S
C180 C181 1.405 . S
C181 H155 0.950 . S
C181 C180 1.405 . S
C181 C182 1.367 . S
C182 H156 0.950 . S
C182 C177 1.386 . S
C182 C181 1.367 . S
C183 C177 1.483 . S
C183 C184 1.382 1_655 S
C183 C185 1.403 . S
C184 H157 0.950 . S
C184 C170 1.411 . S
C184 C183 1.382 1_455 S
C185 C169 1.411 . S
C185 C183 1.403 . S
C185 C186 1.489 . S
C186 C185 1.489 . S
C186 C187 1.383 . S
C186 C191 1.382 . S
C187 H158 0.950 . S
C187 C186 1.383 . S
C187 C188 1.395 . S
C188 H159 0.950 . S
C188 C187 1.395 . S
C188 C189 1.288 . S
C189 C188 1.288 . S
C189 C190 1.392 . S
C190 H160 0.951 . S
C190 C189 1.392 . S
C190 C191 1.392 . S
C191 H161 0.949 . S
C191 C186 1.382 . S
C191 C190 1.392 . S
H192 C211 0.949 . S
H193 C212 0.950 . S
H194 C214 0.950 . S
H195 C215 0.948 1_556 S
H196 C217 0.950 . S
H197 C220 0.950 . S
H198 C221 0.950 . S
H199 C223 0.951 . S
H200 C224 0.949 . S
H201 C226 0.949 . S
H202 C227 0.950 . S
H203 C229 0.950 . S
H204 C230 0.950 . S
H205 C232 0.950 1_565 S
H206 C235 0.950 . S
H207 C236 0.950 . S
H208 C238 0.951 . S
H209 C239 0.949 . S
C210 C211 1.376 . S
C210 C215 1.387 . S
C210 C216 1.483 1_554 S
C211 H192 0.949 . S
C211 C210 1.376 . S
C211 C212 1.397 . S
C212 H193 0.950 . S
C212 C211 1.397 . S
C212 C213 1.391 . S
C213 C212 1.391 . S
C213 C214 1.405 . S
C214 H194 0.950 . S
C214 C213 1.405 . S
C214 C215 1.368 . S
C215 H195 0.948 1_554 S
C215 C210 1.387 . S
C215 C214 1.368 . S
C216 C210 1.483 1_556 S
C216 C217 1.382 1_556 S
C216 C218 1.403 . S
C217 H196 0.950 . S
C217 C216 1.382 1_554 S
C217 C233 1.411 1_545 S
C218 C216 1.403 . S
C218 C219 1.489 . S
C218 C232 1.411 . S
C219 C218 1.489 . S
C219 C220 1.383 . S
C219 C224 1.382 . S
C220 H197 0.950 . S
C220 C219 1.383 . S
C220 C221 1.395 . S
C221 H198 0.950 . S
C221 C220 1.395 . S
C221 C222 1.288 . S
C222 C221 1.288 . S
C222 C223 1.392 . S
C223 H199 0.951 . S
C223 C222 1.392 . S
C223 C224 1.392 . S
C224 H200 0.949 . S
C224 C219 1.382 . S
C224 C223 1.392 . S
C225 C226 1.376 . S
C225 C230 1.386 . S
C225 C231 1.483 . S
C226 H201 0.949 . S
C226 C225 1.376 . S
C226 C227 1.397 . S
C227 H202 0.950 . S
C227 C226 1.397 . S
C227 C228 1.391 . S
C228 C227 1.391 . S
C228 C229 1.405 . S
C229 H203 0.950 . S
C229 C228 1.405 . S
C229 C230 1.367 . S
C230 H204 0.950 . S
C230 C225 1.386 . S
C230 C229 1.367 . S
C231 C225 1.483 . S
C231 C232 1.382 1_565 S
C231 C233 1.403 1_556 S
C232 H205 0.950 1_545 S
C232 C218 1.411 . S
C232 C231 1.382 1_545 S
C233 C217 1.411 1_565 S
C233 C231 1.403 1_554 S
C233 C234 1.489 . S
C234 C233 1.489 . S
C234 C235 1.383 . S
C234 C239 1.382 . S
C235 H206 0.950 . S
C235 C234 1.383 . S
C235 C236 1.395 . S
C236 H207 0.950 . S
C236 C235 1.395 . S
C236 C237 1.288 . S
C237 C236 1.288 . S
C237 C238 1.392 . S
C238 H208 0.951 . S
C238 C237 1.392 . S
C238 C239 1.392 . S
C239 H209 0.949 . S
C239 C234 1.382 . S
C239 C238 1.392 . S
H240 C259 0.949 . S
H241 C260 0.950 . S
H242 C262 0.950 . S
H243 C263 0.950 . S
H244 C265 0.950 . S
H245 C268 0.950 . S
H246 C269 0.950 . S
H247 C271 0.951 . S
H248 C272 0.949 . S
H249 C274 0.949 . S
H250 C275 0.950 . S
H251 C277 0.950 . S
H252 C278 0.950 . S
H253 C280 0.950 . S
H254 C283 0.950 . S
H255 C284 0.950 . S
H256 C286 0.951 . S
H257 C287 0.949 . S
C258 C259 1.376 . S
C258 C263 1.386 . S
C258 C264 1.483 . S
C259 H240 0.949 . S
C259 C258 1.376 . S
C259 C260 1.397 . S
C260 H241 0.950 . S
C260 C259 1.397 . S
C260 C261 1.391 . S
C261 C260 1.391 . S
C261 C262 1.405 . S
C262 H242 0.950 . S
C262 C261 1.405 . S
C262 C263 1.367 . S
C263 H243 0.950 . S
C263 C258 1.386 . S
C263 C262 1.367 . S
C264 C258 1.483 . S
C264 C265 1.382 . S
C264 C266 1.403 . S
C265 H244 0.950 . S
C265 C264 1.382 . S
C265 C281 1.411 . S
C266 C264 1.403 . S
C266 C267 1.489 . S
C266 C280 1.411 . S
C267 C266 1.489 . S
C267 C268 1.383 . S
C267 C272 1.382 . S
C268 H245 0.950 . S
C268 C267 1.383 . S
C268 C269 1.395 . S
C269 H246 0.950 . S
C269 C268 1.395 . S
C269 C270 1.288 . S
C270 C269 1.288 . S
C270 C271 1.392 . S
C271 H247 0.951 . S
C271 C270 1.392 . S
C271 C272 1.392 . S
C272 H248 0.949 . S
C272 C267 1.382 . S
C272 C271 1.392 . S
C273 C274 1.376 . S
C273 C278 1.386 . S
C273 C279 1.483 . S
C274 H249 0.949 . S
C274 C273 1.376 . S
C274 C275 1.397 . S
C275 H250 0.950 . S
C275 C274 1.397 . S
C275 C276 1.391 . S
C276 C275 1.391 . S
C276 C277 1.405 . S
C277 H251 0.950 . S
C277 C276 1.405 . S
C277 C278 1.367 . S
C278 H252 0.950 . S
C278 C273 1.386 . S
C278 C277 1.367 . S
C279 C273 1.483 . S
C279 C280 1.382 . S
C279 C281 1.403 . S
C280 H253 0.950 . S
C280 C266 1.411 . S
C280 C279 1.382 . S
C281 C265 1.411 . S
C281 C279 1.403 . S
C281 C282 1.489 . S
C282 C281 1.489 . S
C282 C283 1.383 . S
C282 C287 1.382 . S
C283 H254 0.950 . S
C283 C282 1.383 . S
C283 C284 1.395 . S
C284 H255 0.950 . S
C284 C283 1.395 . S
C284 C285 1.288 . S
C285 C284 1.288 . S
C285 C286 1.392 . S
C286 H256 0.951 . S
C286 C285 1.392 . S
C286 C287 1.392 . S
C287 H257 0.949 . S
C287 C282 1.382 . S
C287 C286 1.392 . S
Mg288 O289 2.028 . S
Mg288 O295 1.986 . S
Mg288 O297 2.114 . S
Mg288 O298 2.251 . S
Mg288 O301 2.010 . S
O289 Mg288 2.028 . S
O289 C292 1.250 . S
O290 Mg291 2.028 . S
O290 C292 1.248 . S
Mg291 O290 2.028 . S
Mg291 O296 2.032 . S
Mg291 O298 2.079 . S
C292 O289 1.250 . S
C292 O290 1.248 . S
C293 O294 1.264 . S
C293 O301 1.249 . S
O294 C293 1.264 . S
O295 Mg288 1.986 . S
O295 C299 1.246 . S
O296 Mg291 2.032 . S
O296 C299 1.259 . S
O297 Mg288 2.114 . S
O297 C300 1.252 . S
O298 Mg288 2.251 . S
O298 Mg291 2.079 . S
O298 C300 1.273 . S
C299 O295 1.246 . S
C299 O296 1.259 . S
C300 O297 1.252 . S
C300 O298 1.273 . S
O301 Mg288 2.010 . S
O301 C293 1.249 . S
Mg302 O303 2.028 . S
Mg302 O309 1.986 . S
Mg302 O311 2.114 . S
Mg302 O312 2.251 . S
Mg302 O315 2.010 . S
O303 Mg302 2.028 . S
O303 C306 1.250 . S
O304 Mg305 2.028 . S
O304 C306 1.248 . S
Mg305 O304 2.028 . S
Mg305 O310 2.032 . S
Mg305 O312 2.079 . S
C306 O303 1.250 . S
C306 O304 1.248 . S
C307 O308 1.264 . S
C307 O315 1.249 . S
O308 C307 1.264 . S
O309 Mg302 1.986 . S
O309 C313 1.246 . S
O310 Mg305 2.032 . S
O310 C313 1.259 . S
O311 Mg302 2.114 . S
O311 C314 1.252 . S
O312 Mg302 2.251 . S
O312 Mg305 2.079 . S
O312 C314 1.273 . S
C313 O309 1.246 . S
C313 O310 1.259 . S
C314 O311 1.252 . S
C314 O312 1.273 . S
O315 Mg302 2.010 . S
O315 C307 1.249 . S
Mg316 O317 2.028 . S
Mg316 O323 1.986 . S
Mg316 O325 2.114 . S
Mg316 O326 2.251 . S
Mg316 O329 2.010 . S
O317 Mg316 2.028 . S
O317 C320 1.250 . S
O318 Mg319 2.028 . S
O318 C320 1.248 . S
Mg319 O318 2.028 . S
Mg319 O324 2.032 . S
Mg319 O326 2.079 . S
C320 O317 1.250 . S
C320 O318 1.248 . S
C321 O322 1.264 . S
C321 O329 1.249 . S
O322 C321 1.264 . S
O323 Mg316 1.986 . S
O323 C327 1.246 . S
O324 Mg319 2.032 . S
O324 C327 1.259 . S
O325 Mg316 2.114 . S
O325 C328 1.252 . S
O326 Mg316 2.251 . S
O326 Mg319 2.079 . S
O326 C328 1.273 . S
C327 O323 1.246 . S
C327 O324 1.259 . S
C328 O325 1.252 . S
C328 O326 1.273 . S
O329 Mg316 2.010 . S
O329 C321 1.249 . S
Mg330 O331 2.028 . S
Mg330 O337 1.986 . S
Mg330 O339 2.114 . S
Mg330 O340 2.251 . S
Mg330 O343 2.010 . S
O331 Mg330 2.028 . S
O331 C334 1.250 . S
O332 Mg333 2.028 . S
O332 C334 1.248 . S
Mg333 O332 2.028 . S
Mg333 O338 2.032 . S
Mg333 O340 2.079 . S
C334 O331 1.250 . S
C334 O332 1.248 . S
C335 O336 1.264 . S
C335 O343 1.249 . S
O336 C335 1.264 . S
O337 Mg330 1.986 . S
O337 C341 1.246 . S
O338 Mg333 2.032 . S
O338 C341 1.259 . S
O339 Mg330 2.114 . S
O339 C342 1.252 . S
O340 Mg330 2.251 . S
O340 Mg333 2.079 . S
O340 C342 1.273 . S
C341 O337 1.246 . S
C341 O338 1.259 . S
C342 O339 1.252 . S
C342 O340 1.273 . S
O343 Mg330 2.010 . S
O343 C335 1.249 . S
Mg344 O345 2.028 . S
Mg344 O351 1.986 . S
Mg344 O353 2.114 . S
Mg344 O354 2.251 . S
Mg344 O357 2.010 . S
O345 Mg344 2.028 . S
O345 C348 1.250 . S
O346 Mg347 2.028 . S
O346 C348 1.248 . S
Mg347 O346 2.028 . S
Mg347 O352 2.032 . S
Mg347 O354 2.079 . S
C348 O345 1.250 . S
C348 O346 1.248 . S
C349 O350 1.264 . S
C349 O357 1.249 . S
O350 C349 1.264 . S
O351 Mg344 1.986 . S
O351 C355 1.246 . S
O352 Mg347 2.032 . S
O352 C355 1.259 . S
O353 Mg344 2.114 . S
O353 C356 1.252 . S
O354 Mg344 2.251 . S
O354 Mg347 2.079 . S
O354 C356 1.273 . S
C355 O351 1.246 . S
C355 O352 1.259 . S
C356 O353 1.252 . S
C356 O354 1.273 . S
O357 Mg344 2.010 . S
O357 C349 1.249 . S
Mg358 O359 2.028 . S
Mg358 O365 1.986 . S
Mg358 O367 2.114 . S
Mg358 O368 2.251 . S
Mg358 O371 2.010 . S
O359 Mg358 2.028 . S
O359 C362 1.250 . S
O360 Mg361 2.028 . S
O360 C362 1.248 . S
Mg361 O360 2.028 . S
Mg361 O366 2.032 . S
Mg361 O368 2.079 . S
C362 O359 1.250 . S
C362 O360 1.248 . S
C363 O364 1.264 . S
C363 O371 1.249 . S
O364 C363 1.264 . S
O365 Mg358 1.986 . S
O365 C369 1.246 . S
O366 Mg361 2.032 . S
O366 C369 1.259 . S
O367 Mg358 2.114 . S
O367 C370 1.252 . S
O368 Mg358 2.251 . S
O368 Mg361 2.079 . S
O368 C370 1.273 . S
C369 O365 1.246 . S
C369 O366 1.259 . S
C370 O367 1.252 . S
C370 O368 1.273 . S
O371 Mg358 2.010 . S
O371 C363 1.249 . S
C372 C373 1.363 . S
C372 C378 1.379 . S
C372 N380 1.356 . S
C373 C372 1.363 . S
C373 C379 1.363 . S
C374 C375 1.363 . S
C374 C379 1.379 . S
C374 N381 1.356 . S
C375 C374 1.363 . S
C375 C378 1.363 . S
N376 C378 1.356 . S
N376 H388 0.984 . S
N376 H389 0.985 . S
N377 C379 1.356 . S
N377 H382 0.984 . S
N377 H383 0.985 . S
C378 C372 1.379 . S
C378 C375 1.363 . S
C378 N376 1.356 . S
C379 C373 1.363 . S
C379 C374 1.379 . S
C379 N377 1.356 . S
N380 C372 1.356 . S
N380 H386 0.984 . S
N380 H387 0.984 . S
N381 C374 1.356 . S
N381 H384 0.984 . S
N381 H385 0.985 . S
H382 N377 0.984 . S
H383 N377 0.985 . S
H384 N381 0.984 . S
H385 N381 0.985 . S
H386 N380 0.984 . S
H387 N380 0.984 . S
H388 N376 0.984 . S
H389 N376 0.985 . S
C390 C391 1.363 . S
C390 C396 1.379 . S
C390 N398 1.356 . S
C391 C390 1.363 . S
C391 C397 1.363 . S
C392 C393 1.363 . S
C392 C397 1.379 . S
C392 N399 1.356 . S
C393 C392 1.363 . S
C393 C396 1.363 . S
N394 C396 1.356 . S
N394 H406 0.984 . S
N394 H407 0.985 . S
N395 C397 1.356 . S
N395 H400 0.984 . S
N395 H401 0.985 . S
C396 C390 1.379 . S
C396 C393 1.363 . S
C396 N394 1.356 . S
C397 C391 1.363 . S
C397 C392 1.379 . S
C397 N395 1.356 . S
N398 C390 1.356 . S
N398 H404 0.984 . S
N398 H405 0.984 . S
N399 C392 1.356 . S
N399 H402 0.984 . S
N399 H403 0.985 . S
H400 N395 0.984 . S
H401 N395 0.985 . S
H402 N399 0.984 . S
H403 N399 0.985 . S
H404 N398 0.984 . S
H405 N398 0.984 . S
H406 N394 0.984 . S
H407 N394 0.985 . S
C408 C409 1.363 . S
C408 C414 1.379 . S
C408 N416 1.356 . S
C409 C408 1.363 . S
C409 C415 1.363 . S
C410 C411 1.363 . S
C410 C415 1.379 . S
C410 N417 1.356 . S
C411 C410 1.363 . S
C411 C414 1.363 . S
N412 C414 1.356 . S
N412 H424 0.984 . S
N412 H425 0.985 . S
N413 C415 1.356 . S
N413 H418 0.984 . S
N413 H419 0.985 . S
C414 C408 1.379 . S
C414 C411 1.363 . S
C414 N412 1.356 . S
C415 C409 1.363 . S
C415 C410 1.379 . S
C415 N413 1.356 . S
N416 C408 1.356 . S
N416 H422 0.984 . S
N416 H423 0.984 . S
N417 C410 1.356 . S
N417 H420 0.984 . S
N417 H421 0.985 . S
H418 N413 0.984 . S
H419 N413 0.985 . S
H420 N417 0.984 . S
H421 N417 0.985 . S
H422 N416 0.984 . S
H423 N416 0.984 . S
H424 N412 0.984 . S
H425 N412 0.985 . S
C426 C427 1.363 . S
C426 C432 1.379 . S
C426 N434 1.356 . S
C427 C426 1.363 . S
C427 C433 1.363 . S
C428 C429 1.363 . S
C428 C433 1.379 . S
C428 N435 1.356 . S
C429 C428 1.363 . S
C429 C432 1.363 . S
N430 C432 1.356 . S
N430 H442 0.984 . S
N430 H443 0.985 . S
N431 C433 1.356 . S
N431 H436 0.984 . S
N431 H437 0.985 . S
C432 C426 1.379 . S
C432 C429 1.363 . S
C432 N430 1.356 . S
C433 C427 1.363 . S
C433 C428 1.379 . S
C433 N431 1.356 . S
N434 C426 1.356 . S
N434 H440 0.984 . S
N434 H441 0.984 . S
N435 C428 1.356 . S
N435 H438 0.984 . S
N435 H439 0.985 . S
H436 N431 0.984 . S
H437 N431 0.985 . S
H438 N435 0.984 . S
H439 N435 0.985 . S
H440 N434 0.984 . S
H441 N434 0.984 . S
H442 N430 0.984 . S
H443 N430 0.985 . S
C444 C445 1.363 . S
C444 C450 1.379 . S
C444 N452 1.356 . S
C445 C444 1.363 . S
C445 C451 1.363 . S
C446 C447 1.363 . S
C446 C451 1.379 . S
C446 N453 1.356 . S
C447 C446 1.363 . S
C447 C450 1.363 . S
N448 C450 1.356 . S
N448 H460 0.984 . S
N448 H461 0.985 . S
N449 C451 1.356 . S
N449 H454 0.984 . S
N449 H455 0.985 . S
C450 C444 1.379 . S
C450 C447 1.363 . S
C450 N448 1.356 . S
C451 C445 1.363 . S
C451 C446 1.379 . S
C451 N449 1.356 . S
N452 C444 1.356 . S
N452 H458 0.981 1_556 S
N452 H459 0.984 . S
N453 C446 1.356 . S
N453 H456 0.984 . S
N453 H457 0.985 . S
H454 N449 0.984 . S
H455 N449 0.985 . S
H456 N453 0.984 . S
H457 N453 0.985 . S
H458 N452 0.981 1_554 S
H459 N452 0.984 . S
H460 N448 0.984 . S
H461 N448 0.985 . S
C462 C463 1.363 . S
C462 C468 1.379 . S
C462 N470 1.356 . S
C463 C462 1.363 . S
C463 C469 1.363 . S
C464 C465 1.363 . S
C464 C469 1.379 . S
C464 N471 1.356 . S
C465 C464 1.363 . S
C465 C468 1.363 . S
N466 C468 1.356 . S
N466 H478 0.984 . S
N466 H479 0.985 . S
N467 C469 1.356 . S
N467 H472 0.984 . S
N467 H473 0.985 . S
C468 C462 1.379 . S
C468 C465 1.363 . S
C468 N466 1.356 . S
C469 C463 1.363 . S
C469 C464 1.379 . S
C469 N467 1.356 . S
N470 C462 1.356 . S
N470 H476 0.984 . S
N470 H477 0.984 . S
N471 C464 1.356 . S
N471 H474 0.984 . S
N471 H475 0.985 . S
H472 N467 0.984 . S
H473 N467 0.985 . S
H474 N471 0.984 . S
H475 N471 0.985 . S
H476 N470 0.984 . S
H477 N470 0.984 . S
H478 N466 0.984 . S
H479 N466 0.985 . S
C480 C481 1.363 . S
C480 C486 1.379 . S
C480 N488 1.356 . S
C481 C480 1.363 . S
C481 C487 1.363 . S
C482 C483 1.363 . S
C482 C487 1.379 . S
C482 N489 1.356 . S
C483 C482 1.363 . S
C483 C486 1.363 . S
N484 C486 1.356 . S
N484 H496 0.984 . S
N484 H497 0.985 . S
N485 C487 1.356 . S
N485 H490 0.984 . S
N485 H491 0.985 . S
C486 C480 1.379 . S
C486 C483 1.363 . S
C486 N484 1.356 . S
C487 C481 1.363 . S
C487 C482 1.379 . S
C487 N485 1.356 . S
N488 C480 1.356 . S
N488 H494 0.984 . S
N488 H495 0.984 . S
N489 C482 1.356 . S
N489 H492 0.984 . S
N489 H493 0.985 . S
H490 N485 0.984 . S
H491 N485 0.985 . S
H492 N489 0.984 . S
H493 N489 0.985 . S
H494 N488 0.984 . S
H495 N488 0.984 . S
H496 N484 0.984 . S
H497 N484 0.985 . S
C498 C499 1.363 . S
C498 C504 1.379 . S
C498 N506 1.356 . S
C499 C498 1.363 . S
C499 C505 1.363 . S
C500 C501 1.363 . S
C500 C505 1.379 . S
C500 N507 1.356 . S
C501 C500 1.363 . S
C501 C504 1.363 . S
N502 C504 1.356 . S
N502 H514 0.984 . S
N502 H515 0.985 . S
N503 C505 1.356 . S
N503 H508 0.984 . S
N503 H509 0.985 . S
C504 C498 1.379 . S
C504 C501 1.363 . S
C504 N502 1.356 . S
C505 C499 1.363 . S
C505 C500 1.379 . S
C505 N503 1.356 . S
N506 C498 1.356 . S
N506 H512 0.984 . S
N506 H513 0.984 . S
N507 C500 1.356 . S
N507 H510 0.984 . S
N507 H511 0.985 . S
H508 N503 0.984 . S
H509 N503 0.985 . S
H510 N507 0.984 . S
H511 N507 0.985 . S
H512 N506 0.984 . S
H513 N506 0.984 . S
H514 N502 0.984 . S
H515 N502 0.985 . S
C516 C517 1.363 . S
C516 C522 1.379 . S
C516 N524 1.356 . S
C517 C516 1.363 . S
C517 C523 1.363 . S
C518 C519 1.363 . S
C518 C523 1.379 . S
C518 N525 1.356 . S
C519 C518 1.363 . S
C519 C522 1.363 . S
N520 C522 1.356 . S
N520 H532 0.984 . S
N520 H533 0.985 . S
N521 C523 1.356 . S
N521 H526 0.984 . S
N521 H527 0.985 . S
C522 C516 1.379 . S
C522 C519 1.363 . S
C522 N520 1.356 . S
C523 C517 1.363 . S
C523 C518 1.379 . S
C523 N521 1.356 . S
N524 C516 1.356 . S
N524 H530 0.984 . S
N524 H531 0.984 . S
N525 C518 1.356 . S
N525 H528 0.984 . S
N525 H529 0.985 . S
H526 N521 0.984 . S
H527 N521 0.985 . S
H528 N525 0.984 . S
H529 N525 0.985 . S
H530 N524 0.984 . S
H531 N524 0.984 . S
H532 N520 0.984 . S
H533 N520 0.985 . S
C534 C535 1.363 . S
C534 C540 1.379 . S
C534 N542 1.337 1_554 S
C535 C534 1.363 . S
C535 C541 1.363 . S
C536 C537 1.363 . S
C536 C541 1.379 . S
C536 N543 1.356 . S
C537 C536 1.363 . S
C537 C540 1.363 . S
N538 C540 1.356 . S
N538 H550 0.974 1_554 S
N538 H551 0.985 . S
N539 C541 1.356 . S
N539 H544 0.984 . S
N539 H545 0.985 . S
C540 C534 1.379 . S
C540 C537 1.363 . S
C540 N538 1.356 . S
C541 C535 1.363 . S
C541 C536 1.379 . S
C541 N539 1.356 . S
N542 C534 1.337 1_556 S
N542 H548 1.005 . S
N542 H549 0.984 . S
N543 C536 1.356 . S
N543 H546 0.984 . S
N543 H547 0.985 . S
H544 N539 0.984 . S
H545 N539 0.985 . S
H546 N543 0.984 . S
H547 N543 0.985 . S
H548 N542 1.005 . S
H549 N542 0.984 . S
H550 N538 0.974 1_556 S
H551 N538 0.985 . S
C552 C553 1.363 . S
C552 C558 1.379 . S
C552 N560 1.356 . S
C553 C552 1.363 . S
C553 C559 1.363 . S
C554 C555 1.363 . S
C554 C559 1.379 . S
C554 N561 1.356 . S
C555 C554 1.363 . S
C555 C558 1.363 . S
N556 C558 1.356 . S
N556 H568 0.984 . S
N556 H569 0.985 . S
N557 C559 1.356 . S
N557 H562 0.984 . S
N557 H563 0.985 . S
C558 C552 1.379 . S
C558 C555 1.363 . S
C558 N556 1.356 . S
C559 C553 1.363 . S
C559 C554 1.379 . S
C559 N557 1.356 . S
N560 C552 1.356 . S
N560 H566 0.984 . S
N560 H567 0.984 . S
N561 C554 1.356 . S
N561 H564 0.984 . S
N561 H565 0.985 . S
H562 N557 0.984 . S
H563 N557 0.985 . S
H564 N561 0.984 . S
H565 N561 0.985 . S
H566 N560 0.984 . S
H567 N560 0.984 . S
H568 N556 0.984 . S
H569 N556 0.985 . S
C570 C571 1.363 . S
C570 C576 1.379 . S
C570 N578 1.356 . S
C571 C570 1.363 . S
C571 C577 1.363 . S
C572 C573 1.363 . S
C572 C577 1.379 . S
C572 N579 1.356 . S
C573 C572 1.363 . S
C573 C576 1.363 . S
N574 C576 1.356 . S
N574 H586 0.984 . S
N574 H587 0.985 . S
N575 C577 1.356 . S
N575 H580 0.984 . S
N575 H581 0.985 . S
C576 C570 1.379 . S
C576 C573 1.363 . S
C576 N574 1.356 . S
C577 C571 1.363 . S
C577 C572 1.379 . S
C577 N575 1.356 . S
N578 C570 1.356 . S
N578 H584 0.984 . S
N578 H585 0.984 . S
N579 C572 1.356 . S
N579 H582 0.984 . S
N579 H583 0.985 . S
H580 N575 0.984 . S
H581 N575 0.985 . S
H582 N579 0.984 . S
H583 N579 0.985 . S
H584 N578 0.984 . S
H585 N578 0.984 . S
H586 N574 0.984 . S
H587 N574 0.985 . S
C588 C589 1.363 . S
C588 C594 1.379 . S
C588 N596 1.356 . S
C589 C588 1.363 . S
C589 C595 1.363 . S
C590 C591 1.363 . S
C590 C595 1.379 . S
C590 N597 1.356 . S
C591 C590 1.363 . S
C591 C594 1.363 . S
N592 C594 1.356 . S
N592 H604 0.984 . S
N592 H605 0.985 . S
N593 C595 1.356 . S
N593 H598 0.984 . S
N593 H599 0.985 . S
C594 C588 1.379 . S
C594 C591 1.363 . S
C594 N592 1.356 . S
C595 C589 1.363 . S
C595 C590 1.379 . S
C595 N593 1.356 . S
N596 C588 1.356 . S
N596 H602 0.984 . S
N596 H603 0.984 . S
N597 C590 1.356 . S
N597 H600 0.984 . S
N597 H601 0.985 . S
H598 N593 0.984 . S
H599 N593 0.985 . S
H600 N597 0.984 . S
H601 N597 0.985 . S
H602 N596 0.984 . S
H603 N596 0.984 . S
H604 N592 0.984 . S
H605 N592 0.985 . S
C606 C607 1.363 . S
C606 C612 1.379 . S
C606 N614 1.356 . S
C607 C606 1.363 . S
C607 C613 1.363 . S
C608 C609 1.363 . S
C608 C613 1.379 . S
C608 N615 1.356 . S
C609 C608 1.363 . S
C609 C612 1.363 . S
N610 C612 1.356 . S
N610 H622 0.984 . S
N610 H623 0.985 . S
N611 C613 1.356 . S
N611 H616 0.984 . S
N611 H617 0.985 . S
C612 C606 1.379 . S
C612 C609 1.363 . S
C612 N610 1.356 . S
C613 C607 1.363 . S
C613 C608 1.379 . S
C613 N611 1.356 . S
N614 C606 1.356 . S
N614 H620 0.984 . S
N614 H621 0.984 . S
N615 C608 1.356 . S
N615 H618 0.984 . S
N615 H619 0.985 . S
H616 N611 0.984 . S
H617 N611 0.985 . S
H618 N615 0.984 . S
H619 N615 0.985 . S
H620 N614 0.984 . S
H621 N614 0.984 . S
H622 N610 0.984 . S
H623 N610 0.985 . S
C624 C625 1.363 . S
C624 C630 1.379 . S
C624 N632 1.356 . S
C625 C624 1.363 . S
C625 C631 1.363 . S
C626 C627 1.363 . S
C626 C631 1.379 . S
C626 N633 1.356 . S
C627 C626 1.363 . S
C627 C630 1.363 . S
N628 C630 1.356 . S
N628 H640 0.984 . S
N628 H641 0.985 . S
N629 C631 1.356 . S
N629 H634 0.984 . S
N629 H635 0.985 . S
C630 C624 1.379 . S
C630 C627 1.363 . S
C630 N628 1.356 . S
C631 C625 1.363 . S
C631 C626 1.379 . S
C631 N629 1.356 . S
N632 C624 1.356 . S
N632 H638 0.984 . S
N632 H639 0.984 . S
N633 C626 1.356 . S
N633 H636 0.984 . S
N633 H637 0.985 . S
H634 N629 0.984 . S
H635 N629 0.985 . S
H636 N633 0.984 . S
H637 N633 0.985 . S
H638 N632 0.984 . S
H639 N632 0.984 . S
H640 N628 0.984 . S
H641 N628 0.985 . S
C642 C643 1.363 . S
C642 C648 1.379 1_556 S
C642 N650 1.356 . S
C643 C642 1.363 . S
C643 C649 1.363 . S
C644 C645 1.363 . S
C644 C649 1.379 . S
C644 N651 1.356 . S
C645 C644 1.363 . S
C645 C648 1.363 1_556 S
N646 C648 1.356 . S
N646 H658 0.984 . S
N646 H659 0.985 . S
N647 C649 1.356 . S
N647 H652 0.984 . S
N647 H653 0.985 . S
C648 C642 1.379 1_554 S
C648 C645 1.363 1_554 S
C648 N646 1.356 . S
C649 C643 1.363 . S
C649 C644 1.379 . S
C649 N647 1.356 . S
N650 C642 1.356 . S
N650 H656 0.964 1_556 S
N650 H657 0.984 . S
N651 C644 1.356 . S
N651 H654 0.984 . S
N651 H655 0.985 . S
H652 N647 0.984 . S
H653 N647 0.985 . S
H654 N651 0.984 . S
H655 N651 0.985 . S
H656 N650 0.964 1_554 S
H657 N650 0.984 . S
H658 N646 0.984 . S
H659 N646 0.985 . S
C660 C661 1.363 . S
C660 C666 1.379 . S
C660 N668 1.356 . S
C661 C660 1.363 . S
C661 C667 1.363 . S
C662 C663 1.363 . S
C662 C667 1.379 . S
C662 N669 1.356 . S
C663 C662 1.363 . S
C663 C666 1.363 . S
N664 C666 1.356 . S
N664 H676 0.984 . S
N664 H677 0.985 . S
N665 C667 1.356 . S
N665 H670 0.984 . S
N665 H671 0.985 . S
C666 C660 1.379 . S
C666 C663 1.363 . S
C666 N664 1.356 . S
C667 C661 1.363 . S
C667 C662 1.379 . S
C667 N665 1.356 . S
N668 C660 1.356 . S
N668 H674 0.984 . S
N668 H675 0.984 . S
N669 C662 1.356 . S
N669 H672 0.984 . S
N669 H673 0.985 . S
H670 N665 0.984 . S
H671 N665 0.985 . S
H672 N669 0.984 . S
H673 N669 0.985 . S
H674 N668 0.984 . S
H675 N668 0.984 . S
H676 N664 0.984 . S
H677 N664 0.985 . S
C678 C679 1.363 . S
C678 C684 1.379 . S
C678 N686 1.356 . S
C679 C678 1.363 . S
C679 C685 1.363 . S
C680 C681 1.363 . S
C680 C685 1.379 . S
C680 N687 1.356 . S
C681 C680 1.363 . S
C681 C684 1.363 . S
N682 C684 1.356 . S
N682 H694 0.984 . S
N682 H695 0.985 . S
N683 C685 1.356 . S
N683 H688 0.984 . S
N683 H689 0.985 . S
C684 C678 1.379 . S
C684 C681 1.363 . S
C684 N682 1.356 . S
C685 C679 1.363 . S
C685 C680 1.379 . S
C685 N683 1.356 . S
N686 C678 1.356 . S
N686 H692 0.984 . S
N686 H693 0.984 . S
N687 C680 1.356 . S
N687 H690 0.984 . S
N687 H691 0.985 . S
H688 N683 0.984 . S
H689 N683 0.985 . S
H690 N687 0.984 . S
H691 N687 0.985 . S
H692 N686 0.984 . S
H693 N686 0.984 . S
H694 N682 0.984 . S
H695 N682 0.985 . S
C696 C697 1.363 . S
C696 C702 1.379 . S
C696 N704 1.356 . S
C697 C696 1.363 . S
C697 C703 1.363 . S
C698 C699 1.363 . S
C698 C703 1.379 . S
C698 N705 1.356 . S
C699 C698 1.363 . S
C699 C702 1.363 . S
N700 C702 1.356 . S
N700 H712 0.984 . S
N700 H713 0.985 . S
N701 C703 1.356 . S
N701 H706 0.984 . S
N701 H707 0.985 . S
C702 C696 1.379 . S
C702 C699 1.363 . S
C702 N700 1.356 . S
C703 C697 1.363 . S
C703 C698 1.379 . S
C703 N701 1.356 . S
N704 C696 1.356 . S
N704 H710 0.984 . S
N704 H711 0.984 . S
N705 C698 1.356 . S
N705 H708 0.984 . S
N705 H709 0.985 . S
H706 N701 0.984 . S
H707 N701 0.985 . S
H708 N705 0.984 . S
H709 N705 0.985 . S
H710 N704 0.984 . S
H711 N704 0.984 . S
H712 N700 0.984 . S
H713 N700 0.985 . S
C714 C715 1.363 . S
C714 C720 1.379 . S
C714 N722 1.356 . S
C715 C714 1.363 . S
C715 C721 1.363 . S
C716 C717 1.363 . S
C716 C721 1.379 . S
C716 N723 1.356 . S
C717 C716 1.363 . S
C717 C720 1.363 . S
N718 C720 1.356 . S
N718 H730 0.984 . S
N718 H731 0.985 . S
N719 C721 1.356 . S
N719 H724 0.984 . S
N719 H725 0.985 . S
C720 C714 1.379 . S
C720 C717 1.363 . S
C720 N718 1.356 . S
C721 C715 1.363 . S
C721 C716 1.379 . S
C721 N719 1.356 . S
N722 C714 1.356 . S
N722 H728 0.984 . S
N722 H729 0.984 . S
N723 C716 1.356 . S
N723 H726 0.984 . S
N723 H727 0.985 . S
H724 N719 0.984 . S
H725 N719 0.985 . S
H726 N723 0.984 . S
H727 N723 0.985 . S
H728 N722 0.984 . S
H729 N722 0.984 . S
H730 N718 0.984 . S
H731 N718 0.985 . S
C732 C733 1.363 . S
C732 C738 1.379 . S
C732 N740 1.356 . S
C733 C732 1.363 . S
C733 C739 1.363 . S
C734 C735 1.363 . S
C734 C739 1.379 . S
C734 N741 1.356 . S
C735 C734 1.363 . S
C735 C738 1.363 . S
N736 C738 1.356 . S
N736 H748 0.984 . S
N736 H749 0.985 . S
N737 C739 1.356 . S
N737 H742 0.984 . S
N737 H743 0.985 . S
C738 C732 1.379 . S
C738 C735 1.363 . S
C738 N736 1.356 . S
C739 C733 1.363 . S
C739 C734 1.379 . S
C739 N737 1.356 . S
N740 C732 1.356 . S
N740 H746 0.984 . S
N740 H747 0.984 . S
N741 C734 1.356 . S
N741 H744 0.984 . S
N741 H745 0.985 . S
H742 N737 0.984 . S
H743 N737 0.985 . S
H744 N741 0.984 . S
H745 N741 0.985 . S
H746 N740 0.984 . S
H747 N740 0.984 . S
H748 N736 0.984 . S
H749 N736 0.985 . S
C750 C751 1.363 . S
C750 C756 1.379 . S
C750 N758 1.356 . S
C751 C750 1.363 . S
C751 C757 1.363 . S
C752 C753 1.363 . S
C752 C757 1.379 . S
C752 N759 1.356 . S
C753 C752 1.363 . S
C753 C756 1.363 . S
N754 C756 1.356 . S
N754 H766 0.984 . S
N754 H767 0.985 . S
N755 C757 1.356 . S
N755 H760 0.984 . S
N755 H761 0.985 . S
C756 C750 1.379 . S
C756 C753 1.363 . S
C756 N754 1.356 . S
C757 C751 1.363 . S
C757 C752 1.379 . S
C757 N755 1.356 . S
N758 C750 1.356 . S
N758 H764 0.984 . S
N758 H765 0.984 . S
N759 C752 1.356 . S
N759 H762 0.984 . S
N759 H763 0.985 . S
H760 N755 0.984 . S
H761 N755 0.985 . S
H762 N759 0.984 . S
H763 N759 0.985 . S
H764 N758 0.984 . S
H765 N758 0.984 . S
H766 N754 0.984 . S
H767 N754 0.985 . S
C768 C769 1.363 1_556 S
C768 C774 1.379 . S
C768 N776 1.356 1_556 S
C769 C768 1.363 1_554 S
C769 C775 1.363 . S
C770 C771 1.363 . S
C770 C775 1.379 1_556 S
C770 N777 1.356 . S
C771 C770 1.363 . S
C771 C774 1.363 . S
N772 C774 1.356 . S
N772 H784 0.984 . S
N772 H785 0.985 . S
N773 C775 1.356 . S
N773 H778 0.984 . S
N773 H779 0.985 . S
C774 C768 1.379 . S
C774 C771 1.363 . S
C774 N772 1.356 . S
C775 C769 1.363 . S
C775 C770 1.379 1_554 S
C775 N773 1.356 . S
N776 C768 1.356 1_554 S
N776 H782 0.984 1_554 S
N776 H783 0.984 . S
N777 C770 1.356 . S
N777 H780 0.984 . S
N777 H781 0.985 1_556 S
H778 N773 0.984 . S
H779 N773 0.985 . S
H780 N777 0.984 . S
H781 N777 0.985 1_554 S
H782 N776 0.984 1_556 S
H783 N776 0.984 . S
H784 N772 0.984 . S
H785 N772 0.985 . S
C786 C787 1.363 . S
C786 C792 1.379 . S
C786 N794 1.356 . S
C787 C786 1.363 . S
C787 C793 1.363 . S
C788 C789 1.363 . S
C788 C793 1.379 . S
C788 N795 1.356 . S
C789 C788 1.363 . S
C789 C792 1.363 . S
N790 C792 1.356 . S
N790 H802 0.984 . S
N790 H803 0.985 . S
N791 C793 1.356 . S
N791 H796 0.984 . S
N791 H797 0.985 . S
C792 C786 1.379 . S
C792 C789 1.363 . S
C792 N790 1.356 . S
C793 C787 1.363 . S
C793 C788 1.379 . S
C793 N791 1.356 . S
N794 C786 1.356 . S
N794 H800 0.984 . S
N794 H801 0.984 . S
N795 C788 1.356 . S
N795 H798 0.984 . S
N795 H799 0.985 . S
H796 N791 0.984 . S
H797 N791 0.985 . S
H798 N795 0.984 . S
H799 N795 0.985 . S
H800 N794 0.984 . S
H801 N794 0.984 . S
H802 N790 0.984 . S
H803 N790 0.985 . S
C375 C363 1.325 . S
C373 C45 1.602 . S
C391 C84 1.622 . S
C393 C293 1.354 . S
C409 C126 1.548 . S
C411 C313 1.630 . S
C427 C189 1.556 . S
C429 C327 1.567 . S
C447 C335 1.294 . S
C445 C228 1.568 . S
C463 C270 1.527 . S
C465 C349 1.294 . S
C481 C69 1.584 . S
C483 C307 1.334 . S
C499 C141 1.580 . S
C501 C321 1.303 . S
C517 C174 1.484 . S
C519 C341 1.557 . S
C537 C355 1.606 . S
C535 C213 1.547 . S
C555 C369 1.607 . S
C553 C285 1.595 . S
C573 C299 1.624 . S
C571 C30 1.545 . S
C589 C36 1.487 . S
C591 C306 1.462 . S
C607 C93 1.490 . S
C609 C320 1.461 . S
C627 C342 1.479 . S
C625 C117 1.477 . S
C643 C180 1.493 . S
C645 C356 1.490 1_556 S
C663 C370 1.454 . S
C661 C237 1.465 . S
C681 C300 1.449 . S
C679 C261 1.446 . S
C699 C362 1.448 . S
C697 C78 1.464 . S
C715 C132 1.484 . S
C717 C292 1.458 . S
C735 C314 1.478 . S
C733 C165 1.473 . S
C751 C222 1.465 . S
C753 C328 1.474 . S
C769 C276 1.521 . S
C771 C334 1.498 . S
C787 C21 1.502 . S
C789 C348 1.485 . S
