# Generated by pormake.
# Topology zzz, (3,6)-cn, num edge types: 1
# Building blocks:
#     Node 0, Type 0, BuildingBlock: VETTIZ_charged_linker_0, # of connection points: 3
#     Node 1, Type 0, BuildingBlock: VETTIZ_charged_linker_0, # of connection points: 3
#     Node 2, Type 0, BuildingBlock: VETTIZ_charged_linker_0, # of connection points: 3
#     Node 3, Type 0, BuildingBlock: VETTIZ_charged_linker_0, # of connection points: 3
#     Node 4, Type 0, BuildingBlock: VETTIZ_charged_linker_0, # of connection points: 3
#     Node 5, Type 0, BuildingBlock: VETTIZ_charged_linker_0, # of connection points: 3
#     Node 6, Type 0, BuildingBlock: VETTIZ_charged_linker_0, # of connection points: 3
#     Node 7, Type 0, BuildingBlock: VETTIZ_charged_linker_0, # of connection points: 3
#     Node 8, Type 1, BuildingBlock: BETDIP_clean_sbu_0, # of connection points: 6
#     Node 9, Type 1, BuildingBlock: BETDIP_clean_sbu_0, # of connection points: 6
#     Node 10, Type 1, BuildingBlock: BETDIP_clean_sbu_0, # of connection points: 6
#     Node 11, Type 1, BuildingBlock: BETDIP_clean_sbu_0, # of connection points: 6
#     Edge 12, Type (0, 1), BuildingBlock: ZUJKAS_clean_linker_0, # of connection points: 2
#     Edge 13, Type (0, 1), BuildingBlock: ZUJKAS_clean_linker_0, # of connection points: 2
#     Edge 14, Type (0, 1), BuildingBlock: ZUJKAS_clean_linker_0, # of connection points: 2
#     Edge 15, Type (0, 1), BuildingBlock: ZUJKAS_clean_linker_0, # of connection points: 2
#     Edge 16, Type (0, 1), BuildingBlock: ZUJKAS_clean_linker_0, # of connection points: 2
#     Edge 17, Type (0, 1), BuildingBlock: ZUJKAS_clean_linker_0, # of connection points: 2
#     Edge 18, Type (0, 1), BuildingBlock: ZUJKAS_clean_linker_0, # of connection points: 2
#     Edge 19, Type (0, 1), BuildingBlock: ZUJKAS_clean_linker_0, # of connection points: 2
#     Edge 20, Type (0, 1), BuildingBlock: ZUJKAS_clean_linker_0, # of connection points: 2
#     Edge 21, Type (0, 1), BuildingBlock: ZUJKAS_clean_linker_0, # of connection points: 2
#     Edge 22, Type (0, 1), BuildingBlock: ZUJKAS_clean_linker_0, # of connection points: 2
#     Edge 23, Type (0, 1), BuildingBlock: ZUJKAS_clean_linker_0, # of connection points: 2
#     Edge 24, Type (0, 1), BuildingBlock: ZUJKAS_clean_linker_0, # of connection points: 2
#     Edge 25, Type (0, 1), BuildingBlock: ZUJKAS_clean_linker_0, # of connection points: 2
#     Edge 26, Type (0, 1), BuildingBlock: ZUJKAS_clean_linker_0, # of connection points: 2
#     Edge 27, Type (0, 1), BuildingBlock: ZUJKAS_clean_linker_0, # of connection points: 2
#     Edge 28, Type (0, 1), BuildingBlock: ZUJKAS_clean_linker_0, # of connection points: 2
#     Edge 29, Type (0, 1), BuildingBlock: ZUJKAS_clean_linker_0, # of connection points: 2
#     Edge 30, Type (0, 1), BuildingBlock: ZUJKAS_clean_linker_0, # of connection points: 2
#     Edge 31, Type (0, 1), BuildingBlock: ZUJKAS_clean_linker_0, # of connection points: 2
#     Edge 32, Type (0, 1), BuildingBlock: ZUJKAS_clean_linker_0, # of connection points: 2
#     Edge 33, Type (0, 1), BuildingBlock: ZUJKAS_clean_linker_0, # of connection points: 2
#     Edge 34, Type (0, 1), BuildingBlock: ZUJKAS_clean_linker_0, # of connection points: 2
#     Edge 35, Type (0, 1), BuildingBlock: ZUJKAS_clean_linker_0, # of connection points: 2
# Relax obj value: 0.415
# Max RMSD: 0.270
# Mean RMSD: 0.243
data_MOF--net-zzz--node1-BETDIP_clean_sbu_0--node2-VETTIZ_charged_linker_0--edge1-ZUJKAS_clean_linker_0
_symmetry_space_group_name_H-M    P1
_symmetry_Int_Tables_number       1
_symmetry_cell_setting            triclinic
loop_
_symmetry_equiv_pos_as_xyz
'x, y, z'
_cell_length_a     73.910607
_cell_length_b     73.893182
_cell_length_c     23.001725
_cell_angle_alpha  89.862282
_cell_angle_beta   89.978812
_cell_angle_gamma 90.06908
loop_
_atom_site_label
_atom_site_type_symbol
_atom_site_fract_x
_atom_site_fract_y
_atom_site_fract_z
_atom_type_partial_charge
C0 C 0.78346 0.51068 0.29708 0.0
C1 C 0.80265 0.51165 0.2964 0.0
C2 C 0.81158 0.51272 0.24257 0.0
C3 C 0.78301 0.51255 0.19129 0.0
C4 C 0.77384 0.51134 0.24358 0.0
C5 C 0.75344 0.51112 0.23358 0.0
H6 H 0.68506 0.51593 0.02939 0.0
C7 C 0.76975 0.51363 0.1435 0.0
C8 C 0.75216 0.51311 0.16729 0.0
H9 H 0.67726 0.50691 0.21281 0.0
H10 H 0.7101 0.50942 0.22862 0.0
H11 H 0.71514 0.54678 0.04014 0.0
H12 H 0.71441 0.48944 0.01498 0.0
H13 H 0.73288 0.49674 0.97378 0.0
H14 H 0.71059 0.50502 0.95646 0.0
H15 H 0.70946 0.53641 0.97213 0.0
H16 H 0.73248 0.54254 0.98988 0.0
C17 C 0.74487 0.52733 0.26524 0.0
C18 C 0.74596 0.49275 0.25449 0.0
C19 C 0.79249 0.51346 0.93487 0.0
C20 C 0.78359 0.51453 0.88075 0.0
C21 C 0.76494 0.51837 0.87976 0.0
C22 C 0.75516 0.52005 0.93152 0.0
C23 C 0.76407 0.51786 0.98514 0.0
C24 C 0.78251 0.51529 0.98619 0.0
C25 C 0.78978 0.51411 0.04717 0.0
C26 C 0.7724 0.51521 0.08251 0.0
C27 C 0.7575 0.51718 0.04582 0.0
C28 C 0.80228 0.53074 0.05729 0.0
C29 C 0.7992 0.4955 0.05439 0.0
C30 C 0.69031 0.51457 0.0732 0.0
C31 C 0.67866 0.51102 0.11955 0.0
C32 C 0.68606 0.50956 0.17611 0.0
C33 C 0.70506 0.51089 0.18508 0.0
C34 C 0.71664 0.51374 0.13699 0.0
C35 C 0.70889 0.51568 0.0825 0.0
C36 C 0.72239 0.51776 0.03499 0.0
C37 C 0.73979 0.51666 0.06884 0.0
C38 C 0.73679 0.51447 0.1291 0.0
C39 C 0.71976 0.53677 0.00727 0.0
C40 C 0.72 0.50156 0.99243 0.0
H41 H 0.80982 0.51388 0.15158 0.0
H42 H 0.77621 0.50982 0.33791 0.0
H43 H 0.75415 0.48146 0.23645 0.0
H44 H 0.73192 0.49043 0.24015 0.0
H45 H 0.74641 0.4918 0.30269 0.0
H46 H 0.7521 0.54005 0.25372 0.0
H47 H 0.74566 0.5255 0.31314 0.0
H48 H 0.73055 0.52926 0.25324 0.0
H49 H 0.8068 0.51048 0.93762 0.0
H50 H 0.75781 0.51974 0.83888 0.0
H51 H 0.74093 0.52248 0.92752 0.0
H52 H 0.79953 0.54185 0.02577 0.0
H53 H 0.81678 0.52707 0.05266 0.0
H54 H 0.80012 0.53699 0.10048 0.0
H55 H 0.79121 0.48467 0.03275 0.0
H56 H 0.80042 0.49113 0.10014 0.0
H57 H 0.8129 0.49563 0.03452 0.0
H58 H 0.82623 0.51323 0.24072 0.0
C59 C 0.80197 0.51314 0.19055 0.0
C60 C 0.04925 0.76622 0.96473 0.0
C61 C 0.0464 0.78381 0.94339 0.0
C62 C 0.03649 0.79621 0.97723 0.0
C63 C 0.0327 0.77374 0.05265 0.0
C64 C 0.04189 0.76134 0.01888 0.0
C65 C 0.0429 0.74302 0.0476 0.0
H66 H 0.98866 0.68782 0.18262 0.0
C67 C 0.02707 0.76471 0.10681 0.0
C68 C 0.0324 0.74655 0.10383 0.0
H69 H 0.03625 0.67479 0.08112 0.0
H70 H 0.04775 0.70511 0.09604 0.0
H71 H 0.01647 0.72028 0.28906 0.0
H72 H 0.98112 0.73241 0.14269 0.0
H73 H 0.97687 0.74128 0.21426 0.0
H74 H 0.97263 0.71776 0.19933 0.0
H75 H 0.99734 0.70546 0.27957 0.0
H76 H 0.99349 0.7283 0.29923 0.0
C77 C 0.06302 0.73885 0.06004 0.0
C78 C 0.03375 0.72882 0.00745 0.0
C79 C 1.00184 0.80207 0.27024 0.0
C80 C 1.0012 0.79862 0.33031 0.0
C81 C 1.00227 0.78039 0.34929 0.0
C82 C 1.00468 0.76611 0.30896 0.0
C83 C 0.00545 0.77001 0.24917 0.0
C84 C 1.00487 0.7879 0.23124 0.0
C85 C 0.01179 0.79031 0.17025 0.0
C86 C 0.0175 0.77115 0.15593 0.0
C87 C 0.01231 0.75908 0.19994 0.0
C88 C 0.02817 0.80352 0.17173 0.0
C89 C 0.99579 0.79665 0.13172 0.0
C90 C 1.00145 0.69161 0.16312 0.0
C91 C 0.01118 0.67911 0.1283 0.0
C92 C 0.02824 0.68421 0.10632 0.0
C93 C 0.03468 0.70182 0.11321 0.0
C94 C 0.02387 0.71456 0.14127 0.0
C95 C 0.00858 0.70923 0.1711 0.0
C96 C 1.00138 0.72473 0.20797 0.0
C97 C 0.01444 0.74011 0.1912 0.0
C98 C 0.02601 0.73415 0.1466 0.0
C99 C 1.00234 0.7195 0.27268 0.0
C100 C 0.98185 0.7293 0.18996 0.0
H101 H 0.02239 0.80143 0.05515 0.0
H102 H 0.0568 0.75644 0.93949 0.0
H103 H 0.01923 0.72699 0.01865 0.0
H104 H 0.04063 0.71555 0.00907 0.0
H105 H 0.03429 0.73281 0.9609 0.0
H106 H 0.0701 0.75105 0.07696 0.0
H107 H 0.07005 0.73448 0.01975 0.0
H108 H 0.06473 0.72831 0.09367 0.0
H109 H 1.00144 0.81581 0.25383 0.0
H110 H 1.0025 0.77731 0.39533 0.0
H111 H 0.00759 0.75277 0.32523 0.0
H112 H 0.03631 0.80148 0.21191 0.0
H113 H 0.02362 0.81784 0.17101 0.0
H114 H 0.03789 0.80146 0.136 0.0
H115 H 0.98268 0.79121 0.14801 0.0
H116 H 0.99677 0.79164 0.08655 0.0
H117 H 0.99472 0.81164 0.13118 0.0
H118 H 0.03436 0.80995 0.96218 0.0
C119 C 0.02963 0.79128 0.03149 0.0
C120 C 0.81435 1.00503 0.1656 0.0
C121 C 0.82613 0.01362 0.12513 0.0
C122 C 0.81964 0.02846 0.09277 0.0
C123 C 0.78962 0.02327 0.12952 0.0
C124 C 0.79607 0.01081 0.16883 0.0
C125 C 0.7811 1.00524 0.21104 0.0
H126 H 0.68988 1.00335 0.26337 0.0
C127 C 0.77 0.0243 0.13441 0.0
C128 C 0.76476 0.01574 0.18638 0.0
H129 H 0.72988 0.00793 0.39898 0.0
H130 H 0.75335 0.01314 0.32495 0.0
H131 H 0.70183 0.03665 0.21201 0.0
H132 H 0.71506 0.98277 0.1561 0.0
H133 H 0.70871 0.99556 0.09473 0.0
H134 H 0.69277 0.99238 0.15301 0.0
H135 H 0.68688 0.02404 0.16593 0.0
H136 H 0.70462 0.03823 0.13663 0.0
C137 C 0.78644 0.01102 0.27307 0.0
C138 C 0.7779 0.98469 0.2076 0.0
C139 C 0.73667 0.03233 0.94286 0.0
C140 C 0.71833 0.03081 0.92731 0.0
C141 C 0.70552 0.02722 0.97151 0.0
C142 C 0.71087 0.0246 0.02916 0.0
C143 C 0.72924 0.02589 0.04373 0.0
C144 C 0.74177 0.03002 1.00117 0.0
C145 C 0.76062 0.03165 0.02518 0.0
C146 C 0.75723 0.02739 0.08943 0.0
C147 C 0.73893 0.02364 0.09936 0.0
C148 C 0.76758 0.05126 0.01506 0.0
C149 C 0.77252 0.01716 0.99533 0.0
C150 C 0.70384 1.0042 0.27752 0.0
C151 C 0.70806 1.00422 0.337 0.0
C152 C 0.72632 0.00706 0.35341 0.0
C153 C 0.74002 0.00942 0.3109 0.0
C154 C 0.73552 0.00868 0.25159 0.0
C155 C 0.71747 0.00709 0.23621 0.0
C156 C 0.71423 0.01204 0.17377 0.0
C157 C 0.73317 0.01715 0.15443 0.0
C158 C 0.74587 0.01398 0.19882 0.0
C159 C 0.70113 0.02849 0.17149 0.0
C160 C 0.70722 0.9949 0.14238 0.0
H161 H 0.7971 0.04483 0.0703 0.0
H162 H 0.8192 0.99419 0.1932 0.0
H163 H 0.77481 0.98055 0.16222 0.0
H164 H 0.76631 0.98069 0.2356 0.0
H165 H 0.79007 0.97717 0.22247 0.0
H166 H 0.78321 0.0255 0.28075 0.0
H167 H 0.80117 0.00912 0.28063 0.0
H168 H 0.77966 1.00249 0.30622 0.0
H169 H 0.74691 0.03519 0.91048 0.0
H170 H 0.69119 0.02665 0.96193 0.0
H171 H 0.70041 0.02173 0.06013 0.0
H172 H 0.75785 0.05976 0.99025 0.0
H173 H 0.78037 0.0514 0.98968 0.0
H174 H 0.76984 0.05843 0.05684 0.0
H175 H 0.77277 0.01921 0.94748 0.0
H176 H 0.76719 1.00335 0.00429 0.0
H177 H 0.78672 0.01759 0.00982 0.0
H178 H 0.82845 0.03568 0.063 0.0
C179 C 0.8015 0.03346 0.09548 0.0
C180 C 0.51602 0.71891 0.28423 0.0
C181 C 0.51707 0.69973 0.28395 0.0
C182 C 0.52207 0.69099 0.23213 0.0
C183 C 0.52383 0.71964 0.18127 0.0
C184 C 0.51942 0.72864 0.23196 0.0
C185 C 0.51845 0.74899 0.22146 0.0
H186 H 0.5259 0.81791 0.01988 0.0
C187 C 0.52627 0.733 0.13408 0.0
C188 C 0.52351 0.75048 0.15693 0.0
H189 H 0.50949 0.82431 0.19841 0.0
H190 H 0.51443 0.79187 0.21567 0.0
H191 H 0.55896 0.78983 0.04452 0.0
H192 H 0.50346 0.78752 0.99379 0.0
H193 H 0.51269 0.7685 0.96024 0.0
H194 H 0.52111 0.79067 0.94144 0.0
H195 H 0.55085 0.79582 0.97356 0.0
H196 H 0.55783 0.773 0.99081 0.0
C197 C 0.53243 0.75847 0.26066 0.0
C198 C 0.49888 0.75527 0.23279 0.0
C199 C 0.53248 0.71092 0.92591 0.0
C200 C 0.53385 0.72019 0.87239 0.0
C201 C 0.53785 0.73883 0.8729 0.0
C202 C 0.53874 0.74835 0.92533 0.0
C203 C 0.53552 0.73919 0.97804 0.0
C204 C 0.53342 0.72067 0.978 0.0
C205 C 0.53084 0.7132 0.03845 0.0
C206 C 0.53023 0.73055 0.07411 0.0
C207 C 0.53272 0.74562 0.03822 0.0
C208 C 0.5476 0.70142 0.05349 0.0
C209 C 0.51254 0.70292 0.04018 0.0
C210 C 0.52345 0.81243 0.06296 0.0
C211 C 0.5171 0.82357 0.10742 0.0
C212 C 0.51428 0.81591 0.16313 0.0
C213 C 0.51701 0.7971 0.17288 0.0
C214 C 0.5226 0.78595 0.12641 0.0
C215 C 0.52591 0.79398 0.07296 0.0
C216 C 0.53097 0.78078 0.02693 0.0
C217 C 0.53005 0.76323 0.06048 0.0
C218 C 0.52531 0.76596 0.1193 0.0
C219 C 0.55061 0.78505 0.00731 0.0
C220 C 0.51649 0.78188 0.97777 0.0
H221 H 0.52903 0.69305 0.14376 0.0
H222 H 0.51224 0.72603 0.32347 0.0
H223 H 0.4891 0.74622 0.2103 0.0
H224 H 0.4963 0.76903 0.21625 0.0
H225 H 0.49575 0.75497 0.28004 0.0
H226 H 0.5459 0.75191 0.25624 0.0
H227 H 0.5283 0.75765 0.30704 0.0
H228 H 0.53426 0.77285 0.24903 0.0
H229 H 0.52946 0.69659 0.92744 0.0
H230 H 0.53951 0.74623 0.83255 0.0
H231 H 0.54104 0.76264 0.92244 0.0
H232 H 0.55938 0.70459 0.02507 0.0
H233 H 0.54463 0.68677 0.04834 0.0
H234 H 0.55257 0.7039 0.09825 0.0
H235 H 0.50193 0.71067 0.01657 0.0
H236 H 0.5072 0.70097 0.08451 0.0
H237 H 0.51374 0.68944 0.01925 0.0
H238 H 0.52326 0.67637 0.23079 0.0
C239 C 0.52551 0.70075 0.1814 0.0
C240 C 0.32064 0.49256 0.16793 0.0
C241 C 0.33015 0.48317 0.21261 0.0
C242 C 0.32032 0.47165 0.2501 0.0
C243 C 0.29246 0.48306 0.21127 0.0
C244 C 0.30148 0.49142 0.16645 0.0
C245 C 0.28787 0.49975 0.12437 0.0
H246 H 0.19812 0.52247 0.08861 0.0
C247 C 0.27359 0.48867 0.21061 0.0
C248 C 0.26976 0.49553 0.15489 0.0
H249 H 0.22679 0.49026 0.96231 0.0
H250 H 0.25298 0.48851 0.02868 0.0
H251 H 0.20756 0.49684 0.19295 0.0
H252 H 0.23181 0.54696 0.13757 0.0
H253 H 0.23594 0.54531 0.21272 0.0
H254 H 0.21293 0.54664 0.18644 0.0
H255 H 0.19625 0.51838 0.19123 0.0
H256 H 0.20962 0.51192 0.25234 0.0
C257 C 0.28947 0.49069 0.06457 0.0
C258 C 0.29101 0.52031 0.1195 0.0
C259 C 0.25221 0.51035 0.40858 0.0
C260 C 0.23932 0.52329 0.42525 0.0
C261 C 0.2294 0.53241 0.38161 0.0
C262 C 0.23181 0.52824 0.32284 0.0
C263 C 0.24408 0.51465 0.3073 0.0
C264 C 0.25454 0.50643 0.34947 0.0
C265 C 0.26759 0.49297 0.32421 0.0
C266 C 0.26367 0.49518 0.25924 0.0
C267 C 0.2494 0.50735 0.2504 0.0
C268 C 0.26216 0.47395 0.34616 0.0
C269 C 0.28712 0.49835 0.34203 0.0
C270 C 0.21021 0.51559 0.07389 0.0
C271 C 0.21037 0.50673 0.01981 0.0
C272 C 0.22642 0.49765 1.00287 0.0
C273 C 0.24165 0.49693 0.04029 0.0
C274 C 0.24106 0.50589 0.09405 0.0
C275 C 0.22531 0.51461 0.11069 0.0
C276 C 0.2256 0.51983 0.17402 0.0
C277 C 0.24314 0.51099 0.19341 0.0
C278 C 0.2529 0.5044 0.1458 0.0
C279 C 0.20889 0.51139 0.20456 0.0
C280 C 0.22651 0.54074 0.17828 0.0
H281 H 0.29435 0.46306 0.27975 0.0
H282 H 0.32783 0.50088 0.1368 0.0
H283 H 0.29034 0.52676 0.16309 0.0
H284 H 0.28052 0.52662 0.09142 0.0
H285 H 0.30448 0.52325 0.10018 0.0
H286 H 0.28471 0.47642 0.06647 0.0
H287 H 0.30377 0.49074 0.04961 0.0
H288 H 0.28152 0.49819 0.03154 0.0
H289 H 0.26005 0.50315 0.44096 0.0
H290 H 0.21907 0.54217 0.3929 0.0
H291 H 0.22363 0.53532 0.2918 0.0
H292 H 0.24728 0.47189 0.34244 0.0
H293 H 0.26601 0.47216 0.39252 0.0
H294 H 0.2685 0.46307 0.32054 0.0
H295 H 0.28756 0.5053 0.38474 0.0
H296 H 0.29329 0.50772 0.30972 0.0
H297 H 0.29592 0.48639 0.34782 0.0
H298 H 0.32713 0.46384 0.28347 0.0
C299 C 0.30146 0.47146 0.24918 0.0
C300 C 0.03879 0.23112 0.42492 0.0
C301 C 0.03753 0.2123 0.43355 0.0
C302 C 0.03801 0.20091 0.38429 0.0
C303 C 0.03676 0.22691 0.32056 0.0
C304 C 0.03801 0.2381 0.36825 0.0
C305 C 0.03639 0.25772 0.35176 0.0
H306 H 1.0046 0.32126 0.16986 0.0
C307 C 0.0325 0.23818 0.26926 0.0
C308 C 0.03219 0.25622 0.28697 0.0
H309 H 0.03221 0.32734 0.33457 0.0
H310 H 0.03887 0.2958 0.33623 0.0
H311 H 0.03787 0.29032 0.11804 0.0
H312 H 0.98479 0.27992 0.19291 0.0
H313 H 0.98854 0.26916 0.1249 0.0
H314 H 0.98722 0.2934 0.12808 0.0
H315 H 0.01773 0.29935 0.08504 0.0
H316 H 0.0239 0.27606 0.07515 0.0
C317 C 0.05497 0.26691 0.36335 0.0
C318 C 0.0204 0.26591 0.3866 0.0
C319 C 0.01756 0.20585 0.08291 0.0
C320 C 0.00992 0.21076 0.02961 0.0
C321 C 1.00478 0.22902 0.02109 0.0
C322 C 0.00779 0.24217 0.06504 0.0
C323 C 0.01573 0.23691 0.11829 0.0
C324 C 0.02012 0.21884 0.12612 0.0
C325 C 0.02672 0.21473 0.18597 0.0
C326 C 0.02692 0.23342 0.21241 0.0
C327 C 0.02049 0.24669 0.17329 0.0
C328 C 0.04608 0.20678 0.18125 0.0
C329 C 0.01262 0.20201 0.21559 0.0
C330 C 0.012 0.31559 0.20618 0.0
C331 C 0.01764 0.32677 0.25293 0.0
C332 C 0.02765 0.31907 0.29852 0.0
C333 C 0.03145 0.30067 0.29965 0.0
C334 C 0.02506 0.28949 0.25512 0.0
C335 C 0.01629 0.29685 0.20767 0.0
C336 C 0.01272 0.28239 0.16186 0.0
C337 C 0.02007 0.26529 0.19161 0.0
C338 C 0.02667 0.26984 0.24719 0.0
C339 C 0.02357 0.28724 0.10675 0.0
C340 C 0.9922 0.28112 0.15097 0.0
H341 H 0.03767 0.19866 0.29291 0.0
H342 H 0.03912 0.24029 0.46153 0.0
H343 H 0.00841 0.25682 0.38464 0.0
H344 H 0.01578 0.2791 0.37001 0.0
H345 H 0.02409 0.26771 0.43304 0.0
H346 H 0.06597 0.25692 0.37101 0.0
H347 H 0.05444 0.27577 0.40228 0.0
H348 H 0.05961 0.27501 0.32546 0.0
H349 H 0.0211 0.19187 0.0916 0.0
H350 H 0.99864 0.23312 0.98041 0.0
H351 H 1.00367 0.25585 0.05644 0.0
H352 H 0.05399 0.21395 0.14705 0.0
H353 H 0.04566 0.19221 0.16965 0.0
H354 H 0.05404 0.20842 0.22157 0.0
H355 H 0.99924 0.2024 0.19345 0.0
H356 H 0.00956 0.20603 0.26086 0.0
H357 H 0.01721 0.18771 0.21523 0.0
H358 H 0.03705 0.18636 0.38847 0.0
C359 C 0.03789 0.20811 0.32813 0.0
C360 C 0.2818 0.00811 0.05809 0.0
C361 C 0.30097 0.00683 0.05853 0.0
C362 C 0.30992 1.00509 0.11204 0.0
C363 C 0.28143 0.00636 0.16392 0.0
C364 C 0.27225 0.00794 0.11178 0.0
C365 C 0.2519 0.0094 0.12218 0.0
H366 H 0.18445 0.01829 0.32847 0.0
C367 C 0.26827 0.00717 0.21218 0.0
C368 C 0.25074 0.0092 0.1888 0.0
H369 H 0.17567 0.01438 0.14376 0.0
H370 H 0.20847 0.01152 0.12806 0.0
H371 H 0.20963 0.98635 0.33425 0.0
H372 H 0.21878 0.04353 0.3261 0.0
H373 H 0.23494 0.03527 0.37523 0.0
H374 H 0.21119 0.03213 0.3906 0.0
H375 H 0.20789 1.00049 0.39719 0.0
H376 H 0.22888 0.98973 0.37707 0.0
C377 C 0.24265 0.99269 0.09538 0.0
C378 C 0.24501 0.02737 0.09639 0.0
C379 C 0.29131 1.00096 0.41973 0.0
C380 C 0.2827 1.00187 0.47433 0.0
C381 C 0.26416 0.00614 0.47662 0.0
C382 C 0.25428 0.00896 0.42556 0.0
C383 C 0.26296 0.0075 0.3713 0.0
C384 C 0.28123 1.00391 0.36912 0.0
C385 C 0.28829 1.00349 0.30779 0.0
C386 C 0.27101 0.00667 0.27331 0.0
C387 C 0.25633 0.00888 0.3108 0.0
C388 C 0.29621 0.98439 0.29654 0.0
C389 C 0.30203 0.01929 0.30063 0.0
C390 C 0.18949 0.01707 0.28438 0.0
C391 C 0.17753 0.01691 0.23747 0.0
C392 C 0.18469 0.01468 0.18082 0.0
C393 C 0.20367 0.01302 0.17184 0.0
C394 C 0.21548 0.01324 0.22011 0.0
C395 C 0.20801 0.01504 0.27505 0.0
C396 C 0.22158 0.01373 0.32261 0.0
C397 C 0.23871 0.0111 0.28818 0.0
C398 C 0.23555 0.01102 0.22762 0.0
C399 C 0.21681 0.99683 0.36019 0.0
C400 C 0.22164 0.032 0.35591 0.0
H401 H 0.30821 1.00338 0.20302 0.0
H402 H 0.27457 0.00943 0.0174 0.0
H403 H 0.25325 0.03888 0.1127 0.0
H404 H 0.23083 0.0301 0.10848 0.0
H405 H 0.24594 0.02723 0.04818 0.0
H406 H 0.24974 0.9801 0.10895 0.0
H407 H 0.24295 0.99342 0.04713 0.0
H408 H 0.22848 0.99124 0.10959 0.0
H409 H 0.30551 0.99758 0.41612 0.0
H410 H 0.25726 0.00728 0.51799 0.0
H411 H 0.2402 0.01201 0.43059 0.0
H412 H 0.28762 0.97379 0.31717 0.0
H413 H 0.31004 0.98314 0.31497 0.0
H414 H 0.29664 0.98078 0.25001 0.0
H415 H 0.30064 0.02631 0.25829 0.0
H416 H 0.31618 0.0145 0.30565 0.0
H417 H 0.29983 0.03011 0.33346 0.0
H418 H 0.32454 1.00399 0.11343 0.0
C419 C 0.30035 1.0048 0.16425 0.0
C420 C 0.49049 0.28942 0.07446 0.0
C421 C 0.48857 0.30856 0.07496 0.0
C422 C 0.48179 0.3168 0.12563 0.0
C423 C 0.48059 0.28799 0.17549 0.0
C424 C 0.48635 0.27934 0.12559 0.0
C425 C 0.48772 0.25898 0.13574 0.0
H426 H 0.47289 0.18867 0.32858 0.0
C427 C 0.47776 0.27444 0.22182 0.0
C428 C 0.48135 0.25712 0.19904 0.0
H429 H 0.49639 0.18343 0.15805 0.0
H430 H 0.49326 0.21619 0.14255 0.0
H431 H 0.49682 0.21716 0.36342 0.0
H432 H 0.44247 0.21932 0.30121 0.0
H433 H 0.44375 0.23459 0.35971 0.0
H434 H 0.44915 0.21105 0.37143 0.0
H435 H 0.4781 0.2159 0.41256 0.0
H436 H 0.48873 0.23717 0.39415 0.0
C437 C 0.50767 0.25334 0.12865 0.0
C438 C 0.47494 0.24921 0.09325 0.0
C439 C 0.46917 0.29564 0.42969 0.0
C440 C 0.46747 0.28617 0.48269 0.0
C441 C 0.4635 0.26753 0.48119 0.0
C442 C 0.46291 0.25823 0.42827 0.0
C443 C 0.46652 0.26759 0.37619 0.0
C444 C 0.46864 0.28611 0.37718 0.0
C445 C 0.47161 0.29386 0.31731 0.0
C446 C 0.47285 0.27664 0.28114 0.0
C447 C 0.46996 0.26142 0.31605 0.0
C448 C 0.4897 0.30451 0.3175 0.0
C449 C 0.45476 0.3054 0.3013 0.0
C450 C 0.47701 0.19444 0.28726 0.0
C451 C 0.48446 0.18347 0.24417 0.0
C452 C 0.4904 0.19166 0.19185 0.0
C453 C 0.48863 0.21062 0.18306 0.0
C454 C 0.48132 0.22148 0.22772 0.0
C455 C 0.47592 0.21311 0.27885 0.0
C456 C 0.47058 0.22615 0.32505 0.0
C457 C 0.47287 0.2439 0.29333 0.0
C458 C 0.47892 0.24147 0.23561 0.0
C459 C 0.48408 0.22403 0.37669 0.0
C460 C 0.45048 0.22262 0.34078 0.0
H461 H 0.47308 0.31409 0.21209 0.0
H462 H 0.49546 0.28259 0.03606 0.0
H463 H 0.4611 0.25505 0.09579 0.0
H464 H 0.4737 0.23464 0.10315 0.0
H465 H 0.47983 0.25067 0.04779 0.0
H466 H 0.51667 0.26269 0.15309 0.0
H467 H 0.51175 0.25372 0.08216 0.0
H468 H 0.51033 0.23967 0.14591 0.0
H469 H 0.47214 0.30999 0.42897 0.0
H470 H 0.46161 0.25998 0.52115 0.0
H471 H 0.46041 0.24396 0.43031 0.0
H472 H 0.50041 0.29663 0.34019 0.0
H473 H 0.48818 0.31765 0.34034 0.0
H474 H 0.49503 0.30728 0.27362 0.0
H475 H 0.44304 0.3026 0.33035 0.0
H476 H 0.44973 0.30237 0.25694 0.0
H477 H 0.4577 0.32011 0.30451 0.0
H478 H 0.47959 0.33129 0.12712 0.0
C479 C 0.47783 0.30672 0.17524 0.0
Tb480 Tb 0.01337 1.00088 0.71464 0.0
Tb481 Tb 0.98549 0.00984 0.63575 0.0
C482 C 0.03362 0.98424 0.78363 0.0
C483 C 0.0434 0.96707 0.77421 0.0
C484 C 0.0379 0.95148 0.80432 0.0
C485 C 0.04477 0.93457 0.78903 0.0
C486 C 0.05742 0.93294 0.74368 0.0
C487 C 0.06363 0.94859 0.71544 0.0
C488 C 0.05661 0.96551 0.73029 0.0
C489 C 0.0261 0.01394 0.61486 0.0
C490 C 0.99842 0.97034 0.62808 0.0
C491 C 0.96559 0.02515 0.5622 0.0
C492 C 0.95602 0.04257 0.56391 0.0
C493 C 0.95952 0.05535 0.52038 0.0
C494 C 0.95458 0.07337 0.52823 0.0
C495 C 0.94584 0.07893 0.57968 0.0
C496 C 0.94058 0.06565 0.62023 0.0
C497 C 0.9458 0.04765 0.61278 0.0
C498 C 0.97287 0.9963 0.73485 0.0
C499 C 1.00007 0.04022 0.72494 0.0
O500 O 0.01597 0.98289 0.78489 0.0
O501 O 0.03898 0.99813 0.75283 0.0
O502 O 0.01322 1.00286 0.62094 0.0
O503 O 0.03216 0.01796 0.66587 0.0
O504 O 0.0065 0.97404 0.67796 0.0
O505 O 0.99092 0.98349 0.59779 0.0
O506 O 0.98325 0.02645 0.56213 0.0
O507 O 0.95985 0.01258 0.59774 0.0
O508 O 0.98557 0.00763 0.72935 0.0
O509 O 0.9669 0.99234 0.68362 0.0
O510 O 0.99138 0.03667 0.67573 0.0
O511 O 0.00827 0.02711 0.75353 0.0
H512 H 0.02775 0.95229 0.83822 0.0
H513 H 0.04001 0.92271 0.81223 0.0
H514 H 0.07339 0.94766 0.68043 0.0
H515 H 0.06108 0.97725 0.70589 0.0
H516 H 0.96738 0.0517 0.48239 0.0
H517 H 0.9591 0.0831 0.49608 0.0
H518 H 0.93349 0.06934 0.65967 0.0
H519 H 0.94284 0.03802 0.64708 0.0
Tb520 Tb 0.50628 0.01773 0.72421 0.0
Tb521 Tb 0.49628 0.99176 0.64199 0.0
C522 C 0.52425 0.0365 0.79338 0.0
C523 C 0.5413 0.04582 0.77936 0.0
C524 C 0.55638 0.0433 0.81516 0.0
C525 C 0.57355 0.04844 0.79593 0.0
C526 C 0.57595 0.05634 0.74057 0.0
C527 C 0.56066 0.05959 0.7059 0.0
C528 C 0.54352 0.05429 0.72494 0.0
C529 C 0.49319 0.03276 0.62766 0.0
C530 C 0.53576 1.00404 0.63209 0.0
C531 C 0.47896 0.97228 0.57305 0.0
C532 C 0.46296 0.96149 0.58857 0.0
C533 C 0.44762 0.96202 0.55303 0.0
C534 C 0.43096 0.95607 0.57442 0.0
C535 C 0.42938 0.94949 0.63182 0.0
C536 C 0.44506 0.94773 0.6657 0.0
C537 C 0.46168 0.95376 0.64441 0.0
C538 C 0.50951 0.9769 0.73843 0.0
C539 C 0.46672 0.00563 0.73442 0.0
O540 O 0.52528 0.01885 0.79186 0.0
O541 O 0.5098 0.04254 0.76705 0.0
O542 O 0.50386 0.01947 0.63046 0.0
O543 O 0.48959 0.03787 0.68004 0.0
O544 O 0.53265 0.01034 0.68491 0.0
O545 O 0.52206 0.99815 0.60065 0.0
O546 O 0.47655 0.98977 0.57669 0.0
O547 O 0.49415 0.96718 0.59698 0.0
O548 O 0.49869 0.99005 0.73563 0.0
O549 O 0.51309 0.97174 0.68616 0.0
O550 O 0.46983 0.99894 0.68197 0.0
O551 O 0.48039 0.01188 0.76528 0.0
H552 H 0.55503 0.0364 0.85658 0.0
H553 H 0.58503 0.04535 0.82341 0.0
H554 H 0.56198 0.0658 0.66341 0.0
H555 H 0.53215 0.05607 0.69577 0.0
H556 H 0.44826 0.96823 0.51034 0.0
H557 H 0.41912 0.95791 0.54736 0.0
H558 H 0.44434 0.94257 0.70976 0.0
H559 H 0.47328 0.95345 0.67319 0.0
Tb560 Tb 0.48953 0.50924 0.71491 0.0
Tb561 Tb 0.51544 0.4973 0.63263 0.0
C562 C 0.47178 0.52738 0.78692 0.0
C563 C 0.46324 0.5452 0.77909 0.0
C564 C 0.46808 0.55938 0.81619 0.0
C565 C 0.46387 0.5772 0.80151 0.0
C566 C 0.45455 0.58118 0.74956 0.0
C567 C 0.44839 0.56678 0.715 0.0
C568 C 0.45281 0.54896 0.72935 0.0
C569 C 0.47448 0.49669 0.61806 0.0
C570 C 0.50586 0.53778 0.62293 0.0
C571 C 0.53292 0.47882 0.56084 0.0
C572 C 0.54094 0.46076 0.56913 0.0
C573 C 0.53566 0.44662 0.5325 0.0
C574 C 0.53933 0.42871 0.54776 0.0
C575 C 0.54853 0.4246 0.59982 0.0
C576 C 0.55512 0.43891 0.63392 0.0
C577 C 0.55125 0.45682 0.61899 0.0
C578 C 0.53056 0.50994 0.72924 0.0
C579 C 0.49944 0.4689 0.72562 0.0
O580 O 0.48946 0.52756 0.78441 0.0
O581 O 0.46485 0.51401 0.75722 0.0
O582 O 0.48832 0.50664 0.62141 0.0
O583 O 0.46861 0.4937 0.67011 0.0
O584 O 0.49819 0.53514 0.67435 0.0
O585 O 0.51177 0.5238 0.59284 0.0
O586 O 0.51523 0.47914 0.56264 0.0
O587 O 0.5401 0.49202 0.59076 0.0
O588 O 0.5167 0.50001 0.72608 0.0
O589 O 0.53649 0.5127 0.67711 0.0
O590 O 0.50678 0.47143 0.67366 0.0
O591 O 0.4937 0.48296 0.75559 0.0
H592 H 0.47625 0.55679 0.85442 0.0
H593 H 0.46913 0.58788 0.82889 0.0
H594 H 0.44094 0.56932 0.67529 0.0
H595 H 0.44895 0.53829 0.69963 0.0
H596 H 0.52756 0.44933 0.49421 0.0
H597 H 0.53375 0.41811 0.52072 0.0
H598 H 0.5625 0.43628 0.6737 0.0
H599 H 0.55545 0.46746 0.64837 0.0
Tb600 Tb 0.99505 0.49137 0.72369 0.0
Tb601 Tb 0.00553 0.51754 0.64115 0.0
C602 C 0.97734 0.47211 0.79263 0.0
C603 C 0.96092 0.46191 0.77757 0.0
C604 C 0.94553 0.46344 0.81259 0.0
C605 C 0.92863 0.45831 0.79109 0.0
C606 C 0.92684 0.45153 0.73412 0.0
C607 C 0.94252 0.44866 0.70096 0.0
C608 C 0.95939 0.45389 0.72233 0.0
C609 C 0.00794 0.47664 0.62667 0.0
C610 C 0.96566 0.50613 0.63171 0.0
C611 C 0.02318 0.53564 0.56849 0.0
C612 C 0.04216 0.54147 0.57282 0.0
C613 C 0.05448 0.53553 0.53072 0.0
C614 C 0.07298 0.53573 0.54247 0.0
C615 C 0.07937 0.5421 0.59616 0.0
C616 C 0.06725 0.5498 0.63577 0.0
C617 C 0.0487 0.54936 0.62442 0.0
C618 C 0.99175 0.53212 0.73676 0.0
C619 C 0.03468 0.50315 0.73405 0.0
O620 O 0.97547 0.48969 0.78962 0.0
O621 O 0.9923 0.46665 0.76801 0.0
O622 O 0.99744 0.49001 0.63033 0.0
O623 O 0.01152 0.4712 0.67875 0.0
O624 O 0.9687 0.49873 0.68334 0.0
O625 O 0.97928 0.51283 0.60156 0.0
O626 O 0.02107 0.5181 0.56496 0.0
O627 O 0.01186 0.54292 0.6052 0.0
O628 O 1.00272 0.51906 0.73447 0.0
O629 O 0.98818 0.53729 0.68423 0.0
O630 O 0.03178 0.50961 0.68104 0.0
O631 O 0.02085 0.49733 0.76512 0.0
H632 H 0.94637 0.46987 0.85481 0.0
H633 H 0.91684 0.46101 0.81764 0.0
H634 H 0.94165 0.44329 0.65727 0.0
H635 H 0.97103 0.45279 0.69392 0.0
H636 H 0.04974 0.52934 0.49086 0.0
H637 H 0.08221 0.52992 0.51108 0.0
H638 H 0.07195 0.55472 0.67746 0.0
H639 H 0.03951 0.5539 0.65801 0.0
H640 H 0.15003 0.99272 0.21559 0.0
H641 H 0.11995 0.99235 0.26169 0.0
H642 H 0.13152 0.04376 0.34196 0.0
H643 H 0.16108 0.04432 0.29504 0.0
H644 H 0.11369 0.99066 0.37537 0.0
H645 H 0.08047 0.05267 0.29584 0.0
H646 H 0.10043 0.04359 0.26146 0.0
H647 H 0.10237 0.05789 0.32458 0.0
C648 C 0.14578 1.00428 0.24099 0.0
C649 C 0.15783 0.01868 0.25093 0.0
C650 C 0.12866 1.00398 0.268 0.0
C651 C 0.1232 0.01813 0.30511 0.0
C652 C 0.13499 0.03289 0.31256 0.0
H653 H 0.05418 0.03711 0.5969 0.0
H654 H 0.07582 0.03745 0.51621 0.0
C655 C 0.15198 0.0332 0.28567 0.0
C656 C 0.10628 0.01676 0.34107 0.0
H657 H 0.06976 0.04116 0.38855 0.0
C658 C 0.10389 1.00155 0.37722 0.0
C659 C 0.09336 0.03092 0.34401 0.0
C660 C 0.09419 0.04708 0.30389 0.0
C661 C 0.08963 1.00056 0.41793 0.0
C662 C 0.07728 0.01512 0.42272 0.0
C663 C 0.07926 0.03003 0.38527 0.0
C664 C 0.06307 0.01561 0.46906 0.0
C665 C 0.08835 0.98431 0.45758 0.0
C666 C 0.04833 1.00353 0.46894 0.0
C667 C 0.03577 1.00344 0.51494 0.0
C668 C 0.03779 0.01534 0.56221 0.0
C669 C 0.05223 0.02776 0.56122 0.0
C670 C 0.06464 0.02797 0.51508 0.0
H671 H 0.10035 0.97536 0.45392 0.0
H672 H 0.08694 0.98869 0.50351 0.0
H673 H 0.07613 0.97632 0.44621 0.0
H674 H 0.04671 0.99397 0.43369 0.0
H675 H 0.02484 0.99366 0.51444 0.0
H676 H 0.51597 0.1644 0.2568 0.0
H677 H 0.51955 0.1352 0.30711 0.0
H678 H 0.46155 0.13011 0.31928 0.0
H679 H 0.45803 0.15909 0.26903 0.0
H680 H 0.50812 0.12964 0.41895 0.0
H681 H 0.47565 0.07868 0.27751 0.0
H682 H 0.48247 0.10069 0.25108 0.0
H683 H 0.46145 0.09798 0.28965 0.0
C684 C 0.50402 0.15663 0.26795 0.0
C685 C 0.48672 0.16388 0.25804 0.0
C686 C 0.50606 0.14003 0.29733 0.0
C687 C 0.49082 0.13025 0.31677 0.0
C688 C 0.47354 0.13706 0.30382 0.0
H689 H 0.47598 0.06531 0.62356 0.0
H690 H 0.47644 0.08781 0.54543 0.0
C691 C 0.47152 0.15365 0.27492 0.0
C692 C 0.49283 0.11427 0.35649 0.0
H693 H 0.47886 0.07054 0.37852 0.0
C694 C 0.50193 0.11665 0.40959 0.0
C695 C 0.48488 0.0972 0.34458 0.0
C696 C 0.47572 0.09339 0.28735 0.0
C697 C 0.50262 0.10282 0.45177 0.0
C698 C 0.49382 0.08611 0.44118 0.0
C699 C 0.48542 0.0834 0.3871 0.0
C700 C 0.49266 0.07171 0.48687 0.0
C701 C 0.51266 0.10628 0.50777 0.0
C702 C 0.5011 0.05481 0.47948 0.0
C703 C 0.50086 0.04183 0.52438 0.0
C704 C 0.49202 0.04545 0.57733 0.0
C705 C 0.48299 0.06209 0.58354 0.0
C706 C 0.48332 0.07503 0.53894 0.0
H707 H 0.52246 0.11761 0.50326 0.0
H708 H 0.50281 0.10993 0.5422 0.0
H709 H 0.52006 0.09399 0.5222 0.0
H710 H 0.50831 0.05186 0.43961 0.0
H711 H 0.50794 0.02915 0.51818 0.0
H712 H 0.35693 0.45825 0.23056 0.0
H713 H 0.38467 0.46291 0.28659 0.0
H714 H 0.3748 0.52038 0.28778 0.0
H715 H 0.34673 0.51569 0.23269 0.0
H716 H 0.41668 0.48255 0.28125 0.0
H717 H 0.37276 0.50742 0.46009 0.0
H718 H 0.36368 0.49708 0.39544 0.0
H719 H 0.37133 0.52018 0.39372 0.0
C720 C 0.36098 0.47195 0.2411 0.0
C721 C 0.34954 0.48659 0.22732 0.0
C722 C 0.37683 0.4746 0.27345 0.0
C723 C 0.38164 0.49195 0.29301 0.0
C724 C 0.3712 0.50681 0.27445 0.0
H725 H 0.47918 0.51177 0.50934 0.0
H726 H 0.45779 0.51129 0.42749 0.0
C727 C 0.35529 0.50416 0.242 0.0
C728 C 0.3964 0.49404 0.3372 0.0
H729 H 0.40396 0.50606 0.47881 0.0
C730 C 0.41394 0.48785 0.32429 0.0
C731 C 0.39283 0.50063 0.39392 0.0
C732 C 0.37412 0.50657 0.41206 0.0
C733 C 0.42787 0.48798 0.36634 0.0
C734 C 0.42429 0.49467 0.4229 0.0
C735 C 0.40681 0.50102 0.43551 0.0
C736 C 0.43803 0.49431 0.47085 0.0
C737 C 0.44612 0.48032 0.35045 0.0
C738 C 0.43415 0.48506 0.52287 0.0
C739 C 0.44628 0.48542 0.56966 0.0
C740 C 0.46263 0.4951 0.5659 0.0
C741 C 0.46676 0.50408 0.51349 0.0
C742 C 0.45455 0.50375 0.46654 0.0
H743 H 0.44545 0.47189 0.31059 0.0
H744 H 0.45569 0.49162 0.34215 0.0
H745 H 0.45164 0.47197 0.3865 0.0
H746 H 0.42156 0.47767 0.52755 0.0
H747 H 0.44266 0.47836 0.60933 0.0
H748 H 0.98465 0.34166 0.27584 0.0
H749 H 0.97961 0.3711 0.32242 0.0
H750 H 0.03598 0.38431 0.29872 0.0
H751 H 0.04083 0.35522 0.25125 0.0
H752 H 0.99458 0.37912 0.42292 0.0
H753 H 0.0145 0.43306 0.26955 0.0
H754 H 0.01004 0.41019 0.24604 0.0
H755 H 0.03186 0.41624 0.2751 0.0
C756 C 0.99568 0.35131 0.27761 0.0
C757 C 0.01305 0.34628 0.25883 0.0
C758 C 0.99288 0.36805 0.30508 0.0
C759 C 0.00738 0.38013 0.31416 0.0
C760 C 0.02443 0.37561 0.29131 0.0
H761 H 0.02673 0.4451 0.61793 0.0
H762 H 0.02568 0.42282 0.53952 0.0
C763 C 0.0272 0.35893 0.26385 0.0
C764 C 0.00548 0.3959 0.35463 0.0
H765 H 0.0161 0.44074 0.37187 0.0
C766 C 0.99903 0.39263 0.41122 0.0
C767 C 0.01112 0.41369 0.33988 0.0
C768 C 0.01708 0.41855 0.27912 0.0
C769 C 0.9988 0.4063 0.45376 0.0
C770 C 0.00556 0.42375 0.44012 0.0
C771 C 0.01122 0.42731 0.38285 0.0
C772 C 0.00729 0.43816 0.48539 0.0
C773 C 0.99132 0.40184 0.51317 0.0
C774 C 0.99798 0.45469 0.48022 0.0
C775 C 0.99868 0.46759 0.52505 0.0
C776 C 0.00878 0.46423 0.57583 0.0
C777 C 0.01871 0.44805 0.57965 0.0
C778 C 0.01802 0.43523 0.53495 0.0
H779 H 0.98196 0.39008 0.51162 0.0
H780 H 1.00266 0.3983 0.5427 0.0
H781 H 0.98399 0.41357 0.53194 0.0
H782 H 0.98971 0.45737 0.4423 0.0
H783 H 0.99088 0.47992 0.52074 0.0
H784 H 0.85795 0.03229 0.13049 0.0
H785 H 0.88567 0.02531 0.07655 0.0
H786 H 0.86339 0.97358 0.0282 0.0
H787 H 0.83558 0.98056 0.08223 0.0
H788 H 0.91207 0.99508 0.07067 0.0
H789 H 0.86946 1.00283 0.87289 0.0
H790 H 0.86205 0.01028 0.94368 0.0
H791 H 0.86172 0.98664 0.92585 0.0
C792 C 0.85927 0.01912 0.11035 0.0
C793 C 0.84461 0.00692 0.11089 0.0
C794 C 0.87509 0.01519 0.07919 0.0
C795 C 0.87653 0.99906 0.0474 0.0
C796 C 0.86254 0.98619 0.05192 0.0
H797 H 0.94566 0.97216 0.75258 0.0
H798 H 0.92376 0.97134 0.83228 0.0
C799 C 0.84673 0.99008 0.08347 0.0
C800 C 0.89156 0.99677 0.00456 0.0
H801 H 0.90018 0.99638 0.85851 0.0
C802 C 0.90949 0.99525 0.02426 0.0
C803 C 0.88825 0.99713 0.94394 0.0
C804 C 0.86937 0.99944 0.91998 0.0
C805 C 0.92413 0.99381 0.98502 0.0
C806 C 0.92082 0.99439 0.92426 0.0
C807 C 0.90284 0.99585 0.90485 0.0
C808 C 0.93561 0.99368 0.87962 0.0
C809 C 0.94293 0.99131 0.00919 0.0
C810 C 0.94992 0.00631 0.8796 0.0
C811 C 0.96267 0.00662 0.83419 0.0
C812 C 0.9612 0.99452 0.78729 0.0
C813 C 0.94718 0.98165 0.78809 0.0
C814 C 0.9346 0.98121 0.83365 0.0
H815 H 0.94257 0.98542 0.05367 0.0
H816 H 0.95119 0.9824 0.98092 0.0
H817 H 0.9497 1.00469 0.01197 0.0
H818 H 0.95085 0.01641 0.91346 0.0
H819 H 0.97318 0.01684 0.83452 0.0
H820 H 0.53206 0.85503 0.15033 0.0
H821 H 0.52969 0.88544 0.10668 0.0
H822 H 0.4914 0.86489 0.98162 0.0
H823 H 0.49338 0.83499 0.02589 0.0
H824 H 0.53974 0.89477 1.00074 0.0
H825 H 0.46742 0.91156 0.0181 0.0
H826 H 0.47742 0.89333 0.0593 0.0
H827 H 0.46995 0.88972 0.98557 0.0
C828 C 0.52261 0.85726 0.11507 0.0
C829 C 0.51274 0.84269 0.092 0.0
C830 C 0.52139 0.87459 0.08965 0.0
C831 C 0.51017 0.87768 0.04102 0.0
C832 C 0.49975 0.8632 0.01988 0.0
H833 H 0.52682 0.94445 0.74211 0.0
H834 H 0.5276 0.9225 0.82135 0.0
C835 C 0.50095 0.84602 0.04518 0.0
C836 C 0.51069 0.89522 0.00807 0.0
H837 H 0.48359 0.92587 0.9381 0.0
C838 C 0.52745 0.90174 0.98803 0.0
C839 C 0.49477 0.9047 0.99188 0.0
C840 C 0.47642 0.89956 0.01545 0.0
C841 C 0.52865 0.91665 0.94986 0.0
C842 C 0.51261 0.92509 0.92959 0.0
C843 C 0.49593 0.9193 0.95244 0.0
C844 C 0.51276 0.93912 0.88232 0.0
C845 C 0.54717 0.92311 0.93153 0.0
C846 C 0.50377 0.95579 0.88899 0.0
C847 C 0.5031 0.96838 0.84303 0.0
C848 C 0.51134 0.96452 0.7893 0.0
C849 C 0.52047 0.94795 0.78301 0.0
C850 C 0.52105 0.93539 0.82865 0.0
H851 H 0.55743 0.92011 0.9655 0.0
H852 H 0.55129 0.91588 0.89143 0.0
H853 H 0.54729 0.93788 0.92263 0.0
H854 H 0.49713 0.95901 0.92965 0.0
H855 H 0.49586 0.98097 0.84917 0.0
H856 H 0.66482 0.48518 0.04957 0.0
H857 H 0.63558 0.48554 1.00062 0.0
H858 H 0.6191 0.53095 0.10552 0.0
H859 H 0.64897 0.53106 0.15305 0.0
H860 H 0.60114 0.48248 0.02286 0.0
H861 H 0.61394 0.55283 0.94779 0.0
H862 H 0.63075 0.53984 0.98612 0.0
H863 H 0.61248 0.55035 0.02524 0.0
C864 C 0.65477 0.49495 0.06336 0.0
C865 C 0.65921 0.50811 0.10511 0.0
C866 C 0.63803 0.4952 0.03509 0.0
C867 C 0.62517 0.50861 0.04781 0.0
C868 C 0.62893 0.5208 0.09339 0.0
H869 H 0.52298 0.50082 0.84294 0.0
H870 H 0.54377 0.50149 0.92635 0.0
C871 C 0.64588 0.52065 0.12147 0.0
C872 C 0.6087 0.51033 0.01 0.0
H873 H 0.58749 0.53883 0.91425 0.0
C874 C 0.59806 0.49487 0.99954 0.0
C875 C 0.60472 0.5264 0.97861 0.0
C876 C 0.61614 0.54326 0.98444 0.0
C877 C 0.58411 0.49481 0.95764 0.0
C878 C 0.58016 0.51088 0.92629 0.0
C879 C 0.59037 0.52651 0.93826 0.0
C880 C 0.56677 0.51143 0.87721 0.0
C881 C 0.57449 0.47721 0.94523 0.0
C882 C 0.57232 0.51759 0.82212 0.0
C883 C 0.56036 0.5176 0.77494 0.0
C884 C 0.54249 0.51132 0.78122 0.0
C885 C 0.53669 0.50561 0.83658 0.0
C886 C 0.54866 0.50582 0.88419 0.0
H887 H 0.58219 0.46537 0.96181 0.0
H888 H 0.56111 0.47726 0.96709 0.0
H889 H 0.57229 0.47541 0.89784 0.0
H890 H 0.58612 0.52207 0.81518 0.0
H891 H 0.56529 0.52215 0.73301 0.0
H892 H 0.97978 0.67294 0.06916 0.0
H893 H 0.97214 0.6457 0.01316 0.0
H894 H 0.01879 0.61852 0.08393 0.0
H895 H 0.02643 0.64565 0.13969 0.0
H896 H 0.9969 0.63247 0.92904 0.0
H897 H 0.97973 0.57859 0.08806 0.0
H898 H 0.97871 0.60238 0.10579 0.0
H899 H 1.00011 0.59089 0.10414 0.0
C900 C 0.98794 0.66088 0.07465 0.0
C901 C 1.00361 0.66138 0.10926 0.0
C902 C 0.98368 0.64537 0.04217 0.0
C903 C 0.99483 0.62996 0.04439 0.0
C904 C 0.00979 0.63005 0.08206 0.0
H905 H 0.01114 0.53234 0.83881 0.0
H906 H 0.01075 0.55569 0.91464 0.0
C907 C 0.01414 0.64559 0.11402 0.0
C908 C 0.99233 0.61483 1.00211 0.0
H909 H 0.98598 0.56906 0.99113 0.0
C910 C 0.99427 0.61864 0.94259 0.0
C911 C 0.98923 0.59672 0.01972 0.0
C912 C 0.98667 0.59184 0.08287 0.0
C913 C 0.99367 0.60487 0.90044 0.0
C914 C 0.99044 0.58672 0.91787 0.0
C915 C 0.98838 0.58291 0.97748 0.0
C916 C 0.98949 0.57158 0.87476 0.0
C917 C 0.99724 0.60989 0.83781 0.0
C918 C 0.97724 0.57225 0.82804 0.0
C919 C 0.97759 0.55904 0.78446 0.0
C920 C 0.98994 0.54461 0.78704 0.0
C921 C 1.00146 0.54329 0.83554 0.0
C922 C 1.00126 0.55666 0.8789 0.0
H923 H 1.00465 0.62294 0.83414 0.0
H924 H 0.00525 0.59928 0.81546 0.0
H925 H 0.98416 0.61145 0.81473 0.0
H926 H 0.96764 0.58325 0.82455 0.0
H927 H 0.96841 0.56033 0.74797 0.0
H928 H 0.01665 0.22813 0.51866 0.0
H929 H 1.00018 0.21242 0.59459 0.0
H930 H 0.02763 0.16283 0.54931 0.0
H931 H 0.04594 0.17896 0.4797 0.0
H932 H 0.97631 0.19189 0.56942 0.0
H933 H 0.01836 0.14926 0.70685 0.0
H934 H 0.02827 0.1679 0.66718 0.0
H935 H 0.02707 0.14547 0.63564 0.0
C936 C 0.02009 0.21414 0.52718 0.0
C937 C 0.03225 0.20467 0.49116 0.0
C938 C 0.01038 0.20506 0.57047 0.0
C939 C 0.01226 0.18628 0.57754 0.0
C940 C 0.02592 0.17733 0.54621 0.0
H941 H 0.94095 0.10833 0.50771 0.0
H942 H 0.95264 0.13846 0.52616 0.0
C943 C 0.03616 0.18655 0.50479 0.0
C944 C 0.99775 0.17547 0.60618 0.0
H945 H 0.99149 0.13319 0.6609 0.0
C946 C 0.97962 0.17945 0.59207 0.0
C947 C 1.00155 0.1594 0.63731 0.0
C948 C 0.0199 0.15549 0.6631 0.0
C949 C 0.96574 0.16685 0.60189 0.0
C950 C 0.97024 0.14956 0.62362 0.0
C951 C 0.98795 0.14633 0.64323 0.0
C952 C 0.95797 0.1338 0.61768 0.0
C953 C 0.94662 0.17191 0.58587 0.0
C954 C 0.95621 0.12133 0.66336 0.0
C955 C 0.95016 0.10378 0.65228 0.0
C956 C 0.94567 0.09846 0.59531 0.0
C957 C 0.94491 0.11178 0.55164 0.0
C958 C 0.95131 0.1292 0.56246 0.0
H959 H 0.94405 0.1864 0.59571 0.0
H960 H 0.94469 0.17009 0.5384 0.0
H961 H 0.93652 0.16352 0.60944 0.0
H962 H 0.96104 0.12466 0.70649 0.0
H963 H 0.95077 0.09402 0.68733 0.0
H964 H 0.27109 0.9829 0.57019 0.0
H965 H 0.28916 0.97319 0.65356 0.0
H966 H 0.33569 1.00045 0.58083 0.0
H967 H 0.31751 0.01122 0.50035 0.0
H968 H 0.31474 0.95083 0.6518 0.0
H969 H 0.34445 0.01132 0.74482 0.0
H970 H 0.3256 0.013 0.69555 0.0
H971 H 0.34866 0.01376 0.66883 0.0
C972 C 0.28501 0.98739 0.57316 0.0
C973 C 0.29291 0.99772 0.52828 0.0
C974 C 0.29534 0.98174 0.62078 0.0
C975 C 0.31375 0.9863 0.6243 0.0
C976 C 0.3214 0.9972 0.58053 0.0
H977 H 0.3993 0.9347 0.58185 0.0
H978 H 0.36836 0.93931 0.61261 0.0
C979 C 0.31107 1.00303 0.53355 0.0
C980 C 0.32586 0.97747 0.66719 0.0
H981 H 0.36715 0.9856 0.72644 0.0
C982 C 0.32587 0.95847 0.67023 0.0
C983 C 0.33993 0.98717 0.69475 0.0
C984 C 0.33945 0.00745 0.70121 0.0
C985 C 0.34114 0.9491 0.69013 0.0
C986 C 0.35686 0.95901 0.70476 0.0
C987 C 0.35547 0.97783 0.71252 0.0
C988 C 0.37521 0.95134 0.69584 0.0
C989 C 0.34078 0.92871 0.69051 0.0
C990 C 0.3896 0.9561 0.73258 0.0
C991 C 0.40748 0.95396 0.71389 0.0
C992 C 0.41121 0.94702 0.65816 0.0
C993 C 0.39686 0.94043 0.62444 0.0
C994 C 0.37906 0.94274 0.64276 0.0
H995 H 0.32781 0.92382 0.70927 0.0
H996 H 0.34146 0.92363 0.64519 0.0
H997 H 0.35216 0.92291 0.71598 0.0
H998 H 0.38704 0.96281 0.7736 0.0
H999 H 0.41822 0.95919 0.74109 0.0
H1000 H 0.48695 0.27195 0.57316 0.0
H1001 H 0.5022 0.28878 0.6497 0.0
H1002 H 0.47626 0.33783 0.59082 0.0
H1003 H 0.46006 0.32089 0.51714 0.0
H1004 H 0.5266 0.31061 0.6222 0.0
H1005 H 0.48098 0.35069 0.75573 0.0
H1006 H 0.47282 0.33125 0.71605 0.0
H1007 H 0.47286 0.35352 0.68313 0.0
C1008 C 0.48373 0.28615 0.57838 0.0
C1009 C 0.47253 0.29516 0.53813 0.0
C1010 C 0.49258 0.29579 0.62216 0.0
C1011 C 0.49051 0.31463 0.62628 0.0
C1012 C 0.47793 0.32328 0.58975 0.0
H1013 H 0.55264 0.3933 0.53737 0.0
H1014 H 0.5437 0.36324 0.56841 0.0
C1015 C 0.46888 0.31361 0.5466 0.0
C1016 C 0.50412 0.32577 0.65747 0.0
H1017 H 0.50755 0.36815 0.71361 0.0
C1018 C 0.52248 0.32288 0.64428 0.0
C1019 C 0.49922 0.34142 0.68893 0.0
C1020 C 0.48038 0.34419 0.71228 0.0
C1021 C 0.53536 0.33654 0.65282 0.0
C1022 C 0.52957 0.35361 0.67302 0.0
C1023 C 0.51196 0.35534 0.69556 0.0
C1024 C 0.53969 0.37041 0.65894 0.0
C1025 C 0.55475 0.33292 0.63615 0.0
C1026 C 0.54089 0.38453 0.69935 0.0
C1027 C 0.54537 0.40202 0.68104 0.0
C1028 C 0.54881 0.40566 0.6219 0.0
C1029 C 0.54959 0.39109 0.5829 0.0
C1030 C 0.54483 0.37372 0.60101 0.0
H1031 H 0.55874 0.31907 0.64997 0.0
H1032 H 0.55611 0.33351 0.58812 0.0
H1033 H 0.56418 0.34284 0.65601 0.0
H1034 H 0.53701 0.38227 0.74414 0.0
H1035 H 0.54459 0.41288 0.71242 0.0
H1036 H 0.23616 0.49677 0.50784 0.0
H1037 H 0.21547 0.49802 0.58967 0.0
H1038 H 0.2089 0.55538 0.56381 0.0
H1039 H 0.23022 0.55447 0.483 0.0
H1040 H 0.19616 0.53644 0.68534 0.0
H1041 H 0.17078 0.51056 0.4721 0.0
H1042 H 0.19021 0.49975 0.50347 0.0
H1043 H 0.19186 0.52261 0.47729 0.0
C1044 C 0.23132 0.5099 0.5217 0.0
C1045 C 0.23406 0.5254 0.48713 0.0
C1046 C 0.21955 0.51058 0.56909 0.0
C1047 C 0.21024 0.52665 0.58123 0.0
C1048 C 0.21581 0.54278 0.55447 0.0
H1049 H 0.10492 0.56608 0.63465 0.0
H1050 H 0.13713 0.55976 0.65088 0.0
C1051 C 0.22775 0.54217 0.50751 0.0
C1052 C 0.19125 0.52544 0.60015 0.0
H1053 H 0.14971 0.51703 0.54272 0.0
C1054 C 0.18593 0.5319 0.65487 0.0
C1055 C 0.17802 0.51955 0.55991 0.0
C1056 C 0.18288 0.5128 0.49981 0.0
C1057 C 0.16748 0.53292 0.66989 0.0
C1058 C 0.15432 0.52781 0.62839 0.0
C1059 C 0.15982 0.52081 0.5747 0.0
C1060 C 0.13471 0.53092 0.63577 0.0
C1061 C 0.16224 0.53949 0.72954 0.0
C1062 C 0.12267 0.51684 0.62238 0.0
C1063 C 0.10463 0.52057 0.61044 0.0
C1064 C 0.09816 0.53837 0.61347 0.0
C1065 C 0.10975 0.55228 0.63177 0.0
C1066 C 0.12803 0.54861 0.64212 0.0
H1067 H 0.17324 0.53707 0.76151 0.0
H1068 H 0.15971 0.55428 0.72769 0.0
H1069 H 0.14971 0.53271 0.74514 0.0
H1070 H 0.12754 0.50311 0.61711 0.0
H1071 H 0.09576 0.50957 0.59781 0.0
H1072 H 0.081 0.77922 0.90286 0.0
H1073 H 0.09521 0.79635 0.8234 0.0
H1074 H 0.04342 0.81983 0.78084 0.0
H1075 H 0.0292 0.80222 0.85761 0.0
H1076 H 0.06558 0.81775 0.68458 0.0
H1077 H 0.10265 0.84806 0.87254 0.0
H1078 H 0.10647 0.82476 0.8544 0.0
H1079 H 0.08512 0.83157 0.88477 0.0
C1080 C 0.0726 0.7875 0.87492 0.0
C1081 C 0.05412 0.78989 0.88731 0.0
C1082 C 0.08074 0.79737 0.82986 0.0
C1083 C 0.07049 0.80984 0.79753 0.0
C1084 C 0.05167 0.81044 0.80549 0.0
H1085 H 0.03673 0.90349 0.72086 0.0
H1086 H 0.04685 0.87246 0.7081 0.0
C1087 C 0.04355 0.80052 0.84985 0.0
C1088 C 0.079 0.82485 0.76452 0.0
H1089 H 0.09574 0.86672 0.79508 0.0
C1090 C 0.07283 0.82826 0.70779 0.0
C1091 C 0.08885 0.83848 0.79416 0.0
C1092 C 0.09618 0.83567 0.85482 0.0
C1093 C 0.0738 0.8457 0.6837 0.0
C1094 C 0.08103 0.85994 0.71742 0.0
C1095 C 0.08989 0.85583 0.76971 0.0
C1096 C 0.07546 0.879 0.70841 0.0
C1097 C 0.06566 0.84901 0.62462 0.0
C1098 C 0.08812 0.89316 0.71223 0.0
C1099 C 0.08227 0.91099 0.72041 0.0
C1100 C 0.06372 0.91481 0.72566 0.0
C1101 C 0.05111 0.90083 0.71777 0.0
C1102 C 0.05691 0.88311 0.70931 0.0
H1103 H 0.06834 0.83737 0.59537 0.0
H1104 H 0.05075 0.85028 0.62897 0.0
H1105 H 0.07108 0.86154 0.60429 0.0
H1106 H 0.10248 0.89028 0.71244 0.0
H1107 H 0.09225 0.92158 0.72629 0.0
H1108 H 0.73284 0.05315 0.84208 0.0
H1109 H 0.7198 0.06019 0.74734 0.0
H1110 H 0.67619 0.02269 0.78188 0.0
H1111 H 0.69038 0.01385 0.87176 0.0
H1112 H 0.68032 0.02432 0.6723 0.0
H1113 H 0.68235 0.09653 0.74308 0.0
H1114 H 0.70297 0.08506 0.72543 0.0
H1115 H 0.69091 0.07939 0.79119 0.0
C1116 C 0.7208 0.04595 0.82865 0.0
C1117 C 0.71224 0.03345 0.86609 0.0
C1118 C 0.71316 0.05026 0.7746 0.0
C1119 C 0.69645 0.04274 0.75825 0.0
C1120 C 0.68893 0.02903 0.79325 0.0
H1121 H 0.60482 0.0692 0.80135 0.0
H1122 H 0.63612 0.06975 0.7712 0.0
C1123 C 0.69687 0.02424 0.84581 0.0
C1124 C 0.68504 0.05041 0.7108 0.0
H1125 H 0.65675 0.0865 0.69601 0.0
C1126 C 0.67535 0.03808 0.67621 0.0
C1127 C 0.6792 0.06869 0.71229 0.0
C1128 C 0.68935 0.08324 0.7448 0.0
C1129 C 0.65781 0.04213 0.65679 0.0
C1130 C 0.65049 0.05939 0.66931 0.0
C1131 C 0.66215 0.07301 0.68941 0.0
C1132 C 0.6309 0.06167 0.68201 0.0
C1133 C 0.64661 0.02718 0.63041 0.0
C1134 C 0.61724 0.05748 0.64181 0.0
C1135 C 0.59916 0.05648 0.65997 0.0
C1136 C 0.59446 0.06004 0.71828 0.0
C1137 C 0.60799 0.0658 0.75672 0.0
C1138 C 0.62595 0.06641 0.73904 0.0
H1139 H 0.65445 0.01449 0.62469 0.0
H1140 H 0.63472 0.02416 0.65832 0.0
H1141 H 0.64165 0.03151 0.58712 0.0
H1142 H 0.62055 0.05429 0.59717 0.0
H1143 H 0.58906 0.05206 0.62902 0.0
H1144 H 0.54083 0.68525 0.83889 0.0
H1145 H 0.5248 0.66835 0.7646 0.0
H1146 H 0.49911 0.71745 0.70516 0.0
H1147 H 0.5142 0.73425 0.78201 0.0
H1148 H 0.47462 0.69539 0.73187 0.0
H1149 H 0.52098 0.65607 0.59814 0.0
H1150 H 0.52882 0.65315 0.67108 0.0
H1151 H 0.52881 0.67549 0.63873 0.0
C1152 C 0.53208 0.69255 0.80926 0.0
C1153 C 0.52852 0.71103 0.81746 0.0
C1154 C 0.52315 0.6829 0.76578 0.0
C1155 C 0.51073 0.6916 0.72878 0.0
C1156 C 0.50863 0.71042 0.73299 0.0
H1157 H 0.45823 0.59332 0.6372 0.0
H1158 H 0.46483 0.62417 0.60652 0.0
C1159 C 0.51739 0.72005 0.77699 0.0
C1160 C 0.49729 0.68051 0.69665 0.0
H1161 H 0.49429 0.63841 0.63822 0.0
C1162 C 0.47888 0.68324 0.70931 0.0
C1163 C 0.50239 0.66504 0.66453 0.0
C1164 C 0.52134 0.66247 0.64182 0.0
C1165 C 0.46611 0.66956 0.69964 0.0
C1166 C 0.47206 0.65263 0.67876 0.0
C1167 C 0.48975 0.65111 0.65669 0.0
C1168 C 0.46207 0.63569 0.69211 0.0
C1169 C 0.44665 0.67297 0.71595 0.0
C1170 C 0.45698 0.63211 0.7499 0.0
C1171 C 0.45258 0.61459 0.76744 0.0
C1172 C 0.45376 0.60015 0.72801 0.0
C1173 C 0.45713 0.60404 0.66899 0.0
C1174 C 0.46112 0.62169 0.65125 0.0
H1175 H 0.4426 0.68685 0.7026 0.0
H1176 H 0.43734 0.66306 0.69544 0.0
H1177 H 0.44517 0.67218 0.76392 0.0
H1178 H 0.45789 0.6425 0.78285 0.0
H1179 H 0.44956 0.61218 0.81288 0.0
H1180 H 0.81857 0.52303 0.85275 0.0
H1181 H 0.8364 0.51056 0.77429 0.0
H1182 H 0.7888 0.48476 0.70366 0.0
H1183 H 0.77112 0.4959 0.78562 0.0
H1184 H 0.81262 0.4612 0.70878 0.0
H1185 H 0.84672 0.51844 0.61064 0.0
H1186 H 0.85149 0.52129 0.68602 0.0
H1187 H 0.82832 0.52208 0.66021 0.0
C1188 C 0.81181 0.51482 0.8204 0.0
C1189 C 0.79347 0.51023 0.82627 0.0
C1190 C 0.82197 0.50801 0.77447 0.0
C1191 C 0.81394 0.49694 0.73204 0.0
C1192 C 0.79531 0.49337 0.73549 0.0
H1193 H 0.91676 0.46098 0.62329 0.0
H1194 H 0.88604 0.46659 0.58933 0.0
C1195 C 0.78518 0.49989 0.78229 0.0
C1196 C 0.82573 0.48682 0.69123 0.0
H1197 H 0.86782 0.49134 0.63368 0.0
C1198 C 0.82438 0.46785 0.69027 0.0
C1199 C 0.84063 0.4952 0.66359 0.0
C1200 C 0.84166 0.5154 0.65483 0.0
C1201 C 0.83902 0.4572 0.67228 0.0
C1202 C 0.85549 0.46579 0.6575 0.0
C1203 C 0.85553 0.48459 0.64776 0.0
C1204 C 0.87317 0.45682 0.66787 0.0
C1205 C 0.83714 0.43689 0.67397 0.0
C1206 C 0.8762 0.4484 0.72192 0.0
C1207 C 0.89371 0.44487 0.74104 0.0
C1208 C 0.90863 0.45009 0.70723 0.0
C1209 C 0.90559 0.45679 0.65065 0.0
C1210 C 0.88798 0.4601 0.63113 0.0
H1211 H 0.82391 0.43281 0.65519 0.0
H1212 H 0.84814 0.43006 0.64957 0.0
H1213 H 0.83729 0.43217 0.71981 0.0
H1214 H 0.86518 0.44605 0.75201 0.0
H1215 H 0.89558 0.43931 0.78425 0.0
H1216 H 0.03562 0.18872 0.98391 0.0
H1217 H 0.03116 0.16107 0.9272 0.0
H1218 H 0.97374 0.17109 0.92295 0.0
H1219 H 0.97826 0.19911 0.97893 0.0
H1220 H 0.00762 0.13148 0.96823 0.0
H1221 H 0.98372 0.15699 0.75403 0.0
H1222 H 1.00139 0.1693 0.79118 0.0
H1223 H 0.97883 0.16886 0.8197 0.0
C1224 C 0.0221 0.18531 0.96939 0.0
C1225 C 0.00732 0.19626 0.9852 0.0
C1226 C 0.01955 0.16943 0.93728 0.0
C1227 C 1.00215 0.16398 0.92014 0.0
C1228 C 0.98736 0.17515 0.93443 0.0
H1229 H 0.97379 0.06657 0.71572 0.0
H1230 H 0.97293 0.09608 0.76503 0.0
C1231 C 0.98994 0.19121 0.96626 0.0
C1232 C 0.99963 0.14599 0.89133 0.0
H1233 H 0.99028 0.12583 0.76108 0.0
C1234 C 1.00372 0.13024 0.92295 0.0
C1235 C 0.99407 0.14425 0.83279 0.0
C1236 C 0.98922 0.16068 0.79713 0.0
C1237 C 1.00272 0.11291 0.89761 0.0
C1238 C 0.99844 0.11117 0.83763 0.0
C1239 C 0.99378 0.12696 0.80657 0.0
C1240 C 0.99904 0.09323 0.80645 0.0
C1241 C 0.00582 0.09668 0.9363 0.0
C1242 C 0.01413 0.08173 0.81187 0.0
C1243 C 0.01438 0.06466 0.7853 0.0
C1244 C 0.99989 0.05881 0.75043 0.0
C1245 C 0.98518 0.07063 0.74229 0.0
C1246 C 0.9847 0.08756 0.77042 0.0
H1247 H 1.00204 0.09966 0.98204 0.0
H1248 H 0.99789 0.08477 0.92163 0.0
H1249 H 0.02041 0.09317 0.93597 0.0
H1250 H 0.02579 0.08589 0.83695 0.0
H1251 H 0.02607 0.05604 0.79172 0.0
H1252 H 0.30807 0.97962 0.98109 0.0
H1253 H 0.33377 0.97823 0.91313 0.0
H1254 H 0.34726 0.03354 0.95373 0.0
H1255 H 0.32151 0.03496 0.02076 0.0
H1256 H 0.35322 0.02585 0.83742 0.0
H1257 H 0.38494 0.97352 0.97774 0.0
H1258 H 0.36308 0.96759 0.94946 0.0
H1259 H 0.36517 0.98603 0.99988 0.0
C1260 C 0.31611 0.99167 0.97366 0.0
C1261 C 0.31255 0.00752 0.00541 0.0
C1262 C 0.33102 0.99079 0.9356 0.0
C1263 C 0.34281 0.00566 0.92904 0.0
C1264 C 0.3385 0.02184 0.95791 0.0
H1265 H 0.45636 0.01361 0.84599 0.0
H1266 H 0.42596 0.01275 0.88806 0.0
C1267 C 0.32365 0.02272 0.99589 0.0
C1268 C 0.36024 1.00417 0.89567 0.0
H1269 H 0.40131 0.98264 0.89487 0.0
C1270 C 0.36363 0.01622 0.8495 0.0
C1271 C 0.37408 0.99186 0.91195 0.0
C1272 C 0.37179 0.9791 0.96274 0.0
C1273 C 0.38025 0.01622 0.81913 0.0
C1274 C 0.39411 1.00402 0.83578 0.0
C1275 C 0.39072 0.99194 0.88179 0.0
C1276 C 0.41261 1.00443 0.80889 0.0
C1277 C 0.38308 0.02962 0.77043 0.0
C1278 C 0.41542 0.99989 0.7502 0.0
C1279 C 0.43292 1.00017 0.726 0.0
C1280 C 0.44804 1.00523 0.75973 0.0
C1281 C 0.44513 0.00975 0.81844 0.0
C1282 C 0.4277 0.00923 0.84271 0.0
H1283 H 0.37232 0.0401 0.76927 0.0
H1284 H 0.39642 0.0364 0.77474 0.0
H1285 H 0.38292 0.02233 0.7283 0.0
H1286 H 0.40409 0.99593 0.7232 0.0
H1287 H 0.43459 0.99645 0.68079 0.0
H1288 H 0.50837 0.33955 0.07966 0.0
H1289 H 0.51098 0.36318 0.00661 0.0
H1290 H 0.48369 0.32909 0.88234 0.0
H1291 H 0.47998 0.30558 0.95764 0.0
H1292 H 0.52591 0.36854 0.90911 0.0
H1293 H 0.45183 0.37194 0.86962 0.0
H1294 H 0.46139 0.35812 0.92642 0.0
H1295 H 0.46183 0.35054 0.85214 0.0
C1296 C 0.50293 0.33697 0.03672 0.0
C1297 C 0.49359 0.32075 0.02512 0.0
C1298 C 0.50451 0.35056 0.99461 0.0
C1299 C 0.49704 0.34837 0.93892 0.0
C1300 C 0.48899 0.33154 0.92545 0.0
H1301 H 0.50854 0.43621 0.67561 0.0
H1302 H 0.50764 0.406 0.7205 0.0
C1303 C 0.48717 0.31791 0.96824 0.0
C1304 C 0.49731 0.36413 0.89716 0.0
H1305 H 0.46999 0.393 0.81985 0.0
C1306 C 0.51366 0.37365 0.88899 0.0
C1307 C 0.48135 0.37124 0.87135 0.0
C1308 C 0.46307 0.36257 0.8806 0.0
C1309 C 0.51439 0.39011 0.85791 0.0
C1310 C 0.49846 0.39718 0.83265 0.0
C1311 C 0.48223 0.38747 0.83879 0.0
C1312 C 0.49816 0.41537 0.80401 0.0
C1313 C 0.53193 0.40054 0.85639 0.0
C1314 C 0.49273 0.43066 0.83555 0.0
C1315 C 0.49297 0.44792 0.8099 0.0
C1316 C 0.49874 0.45036 0.752 0.0
C1317 C 0.50404 0.43494 0.72026 0.0
C1318 C 0.50361 0.41763 0.74589 0.0
H1319 H 0.54374 0.39172 0.86579 0.0
H1320 H 0.53402 0.40722 0.81373 0.0
H1321 H 0.53142 0.41134 0.88984 0.0
H1322 H 0.48845 0.42927 0.88039 0.0
H1323 H 0.48881 0.45939 0.83584 0.0
H1324 H 0.20522 0.51195 0.90147 0.0
H1325 H 0.17634 0.51221 0.8479 0.0
H1326 H 0.14794 0.49866 0.00586 0.0
H1327 H 0.17642 0.49876 0.05919 0.0
H1328 H 0.1502 0.48763 0.82642 0.0
H1329 H 0.11964 0.54214 0.95729 0.0
H1330 H 0.14334 0.53655 0.96205 0.0
H1331 H 0.12681 0.52373 1.00254 0.0
C1332 C 0.1928 0.50901 0.92464 0.0
C1333 C 0.19318 0.50569 0.98498 0.0
C1334 C 0.17625 0.5092 0.89401 0.0
C1335 C 0.15972 0.50602 0.92295 0.0
C1336 C 0.16027 0.50187 0.98259 0.0
H1337 H 0.04512 0.49407 0.84517 0.0
H1338 H 0.07554 0.49495 0.88743 0.0
C1339 C 0.17668 0.50185 0.01314 0.0
C1340 C 0.14187 0.50677 0.89148 0.0
H1341 H 0.0991 0.52453 0.89998 0.0
C1342 C 0.13911 0.49585 0.84221 0.0
C1343 C 0.12726 0.5176 0.91134 0.0
C1344 C 0.12946 0.53081 0.96079 0.0
C1345 C 0.12209 0.49485 0.81427 0.0
C1346 C 0.10734 0.50515 0.83565 0.0
C1347 C 0.11024 0.51641 0.88389 0.0
C1348 C 0.08877 0.50436 0.8091 0.0
C1349 C 0.11991 0.48227 0.76323 0.0
C1350 C 0.08583 0.50953 0.75103 0.0
C1351 C 0.06841 0.50894 0.72646 0.0
C1352 C 0.05335 0.50338 0.75964 0.0
C1353 C 0.05631 0.49835 0.81802 0.0
C1354 C 0.07375 0.49889 0.84241 0.0
H1355 H 0.13102 0.47219 0.76092 0.0
H1356 H 0.10679 0.47495 0.76552 0.0
H1357 H 0.1201 0.4903 0.72244 0.0
H1358 H 0.09705 0.51424 0.72499 0.0
H1359 H 0.06674 0.51288 0.68145 0.0
H1360 H 0.02086 0.82986 0.32041 0.0
H1361 H 0.02 0.85662 0.38127 0.0
H1362 H 0.98264 0.83004 0.49746 0.0
H1363 H 0.98273 0.80316 0.4343 0.0
H1364 H 0.97183 0.8642 0.47429 0.0
H1365 H 0.04437 0.86729 0.53167 0.0
H1366 H 0.04106 0.86535 0.45492 0.0
H1367 H 0.03405 0.84714 0.50213 0.0
C1368 C 0.01232 0.82961 0.35867 0.0
C1369 C 1.00162 0.81431 0.37171 0.0
C1370 C 0.01212 0.84493 0.39422 0.0
C1371 C 1.00155 0.84539 0.44488 0.0
C1372 C 0.99104 0.83005 0.45887 0.0
H1373 H 0.013 0.93967 0.6777 0.0
H1374 H 0.01289 0.90879 0.63902 0.0
C1375 C 0.99116 0.81462 0.42289 0.0
C1376 C 1.00082 0.86231 0.48068 0.0
H1377 H 0.0276 0.89466 0.54363 0.0
C1378 C 0.98402 0.87071 0.49007 0.0
C1379 C 0.01665 0.87084 0.50238 0.0
C1380 C 0.03502 0.86209 0.49785 0.0
C1381 C 0.9827 0.88765 0.51788 0.0
C1382 C 0.99865 0.89676 0.53586 0.0
C1383 C 0.01536 0.88795 0.52905 0.0
C1384 C 0.99837 0.91556 0.56023 0.0
C1385 C 0.96416 0.89557 0.52785 0.0
C1386 C 0.99052 0.92986 0.5287 0.0
C1387 C 0.99048 0.94753 0.55083 0.0
C1388 C 0.99847 0.95146 0.6049 0.0
C1389 C 0.00659 0.93719 0.63611 0.0
C1390 C 0.00657 0.91948 0.61397 0.0
H1391 H 0.95365 0.88482 0.52993 0.0
H1392 H 0.96367 0.90351 0.56874 0.0
H1393 H 0.96071 0.90467 0.49108 0.0
H1394 H 0.98459 0.92742 0.4864 0.0
H1395 H 0.98425 0.95814 0.5252 0.0
H1396 H 0.68028 0.9798 0.33973 0.0
H1397 H 0.65289 0.98059 0.3997 0.0
H1398 H 0.67348 0.02718 0.49056 0.0
H1399 H 0.70107 0.02643 0.43051 0.0
H1400 H 0.64834 0.98136 0.53128 0.0
H1401 H 0.62288 0.04229 0.41424 0.0
H1402 H 0.64014 0.02785 0.38373 0.0
H1403 H 0.64562 0.04284 0.44236 0.0
C1404 C 0.67913 0.99006 0.37309 0.0
C1405 C 0.69291 1.00306 0.3802 0.0
C1406 C 0.66344 0.9905 0.40737 0.0
C1407 C 0.66099 1.00406 0.44925 0.0
C1408 C 0.675 0.01666 0.45823 0.0
H1409 H 0.56743 0.01358 0.68716 0.0
H1410 H 0.59816 0.01414 0.64674 0.0
C1411 C 0.69084 0.01611 0.42424 0.0
C1412 C 0.64337 0.00542 0.48097 0.0
H1413 H 0.60382 0.02953 0.48535 0.0
C1414 C 0.63867 0.99198 0.52164 0.0
C1415 C 0.63068 0.01922 0.46825 0.0
C1416 C 0.63491 0.03388 0.42459 0.0
C1417 C 0.62166 0.99195 0.5495 0.0
C1418 C 0.60886 0.00555 0.53593 0.0
C1419 C 0.6136 0.01909 0.49572 0.0
C1420 C 0.59017 0.00539 0.56086 0.0
C1421 C 0.61723 0.97713 0.59238 0.0
C1422 C 0.57537 1.00041 0.52606 0.0
C1423 C 0.55778 0.99988 0.54915 0.0
C1424 C 0.55451 1.00453 0.60756 0.0
C1425 C 0.56938 0.00978 0.64213 0.0
C1426 C 0.587 0.01012 0.61911 0.0
H1427 H 0.61583 0.98306 0.63645 0.0
H1428 H 0.60412 0.97071 0.58102 0.0
H1429 H 0.62787 0.96653 0.59387 0.0
H1430 H 0.57745 0.99675 0.48098 0.0
H1431 H 0.54673 0.99588 0.52106 0.0
H1432 H 0.49245 0.67256 0.28906 0.0
H1433 H 0.48999 0.64867 0.36175 0.0
H1434 H 0.52999 0.67555 0.46734 0.0
H1435 H 0.53282 0.69948 0.39291 0.0
H1436 H 0.53841 0.6408 0.45592 0.0
H1437 H 0.46647 0.64326 0.51637 0.0
H1438 H 0.46844 0.64186 0.43892 0.0
H1439 H 0.47724 0.66137 0.47663 0.0
C1440 C 0.50037 0.67368 0.32854 0.0
C1441 C 0.51273 0.68803 0.33532 0.0
C1442 C 0.49889 0.65999 0.37042 0.0
C1443 C 0.5096 0.66024 0.42089 0.0
C1444 C 0.52146 0.675 0.42909 0.0
H1445 H 0.49388 0.56995 0.66997 0.0
H1446 H 0.4959 0.6004 0.6277 0.0
C1447 C 0.52295 0.68881 0.38685 0.0
C1448 C 0.50952 0.64421 0.46127 0.0
H1449 H 0.48111 0.61379 0.5271 0.0
C1450 C 0.52589 0.63517 0.47263 0.0
C1451 C 0.4933 0.63679 0.48426 0.0
C1452 C 0.47543 0.64647 0.47893 0.0
C1453 C 0.52634 0.61859 0.50324 0.0
C1454 C 0.50995 0.61044 0.52184 0.0
C1455 C 0.4937 0.61989 0.51293 0.0
C1456 C 0.50928 0.5919 0.54873 0.0
C1457 C 0.54443 0.60989 0.51491 0.0
C1458 C 0.51602 0.5768 0.51858 0.0
C1459 C 0.51499 0.55937 0.54277 0.0
C1460 C 0.50706 0.55646 0.59771 0.0
C1461 C 0.50017 0.57158 0.62774 0.0
C1462 C 0.50125 0.58906 0.60349 0.0
H1463 H 0.5555 0.62008 0.51493 0.0
H1464 H 0.54447 0.60268 0.55731 0.0
H1465 H 0.54737 0.59995 0.4801 0.0
H1466 H 0.52188 0.57845 0.47574 0.0
H1467 H 0.52033 0.54812 0.51804 0.0
H1468 H 0.82588 0.53805 0.32967 0.0
H1469 H 0.85077 0.53557 0.39905 0.0
H1470 H 0.8314 0.48295 0.45166 0.0
H1471 H 0.80657 0.48528 0.38054 0.0
H1472 H 0.85518 0.53116 0.5137 0.0
H1473 H 0.88215 0.47078 0.39963 0.0
H1474 H 0.86383 0.48411 0.3706 0.0
H1475 H 0.85969 0.46812 0.42815 0.0
C1476 C 0.82665 0.52614 0.35711 0.0
C1477 C 0.81421 0.51188 0.34967 0.0
C1478 C 0.84098 0.52467 0.39665 0.0
C1479 C 0.84338 0.50886 0.42979 0.0
C1480 C 0.8302 0.4951 0.42561 0.0
H1481 H 0.93309 0.49884 0.68574 0.0
H1482 H 0.90271 0.49893 0.6422 0.0
C1483 C 0.81579 0.49657 0.38571 0.0
C1484 C 0.86021 0.50671 0.46578 0.0
H1485 H 0.89895 0.48154 0.4793 0.0
C1486 C 0.86459 0.52014 0.50671 0.0
C1487 C 0.8728 0.49253 0.45616 0.0
C1488 C 0.86954 0.47813 0.41094 0.0
C1489 C 0.88096 0.51973 0.53825 0.0
C1490 C 0.89357 0.50571 0.52807 0.0
C1491 C 0.88923 0.49222 0.48745 0.0
C1492 C 0.91192 0.50565 0.55552 0.0
C1493 C 0.88495 0.5346 0.58117 0.0
C1494 C 0.92726 0.50942 0.52154 0.0
C1495 C 0.94458 0.50972 0.54644 0.0
C1496 C 0.94708 0.50596 0.60595 0.0
C1497 C 0.9317 0.5019 0.63988 0.0
C1498 C 0.9143 0.50194 0.61503 0.0
H1499 H 0.87466 0.54553 0.57976 0.0
H1500 H 0.88519 0.52883 0.62578 0.0
H1501 H 0.89849 0.54055 0.57241 0.0
H1502 H 0.92581 0.51233 0.47558 0.0
H1503 H 0.95604 0.51277 0.51876 0.0
loop_
_geom_bond_atom_site_label_1
_geom_bond_atom_site_label_2
_geom_bond_distance
_geom_bond_site_symmetry_2
_ccdc_geom_bond_type
C0 C1 1.391 . S
C0 C4 1.391 . S
C0 H42 0.948 . S
C1 C0 1.391 . S
C1 C2 1.391 . S
C2 C1 1.391 . S
C2 H58 0.947 . S
C2 C59 1.392 . S
C3 C4 1.391 . S
C3 C7 1.397 . S
C3 C59 1.419 . S
C4 C0 1.391 . S
C4 C3 1.391 . S
C4 C5 1.399 . S
C5 C4 1.399 . S
C5 C8 1.396 . S
C5 C17 1.453 . S
C5 C18 1.684 . S
H6 C30 0.948 . S
C7 C3 1.397 . S
C7 C8 1.394 . S
C7 C26 1.723 . S
C8 C5 1.396 . S
C8 C7 1.394 . S
C8 C38 1.723 . S
H9 C32 0.947 . S
H10 C33 0.948 . S
H11 C39 0.982 . S
H12 C40 0.979 . S
H13 C40 0.980 . S
H14 C40 0.983 . S
H15 C39 0.979 . S
H16 C39 0.977 . S
C17 C5 1.453 . S
C17 H46 0.982 . S
C17 H47 0.979 . S
C17 H48 0.977 . S
C18 C5 1.684 . S
C18 H43 0.979 . S
C18 H44 0.980 . S
C18 H45 0.983 . S
C19 C20 1.391 . S
C19 C24 1.391 . S
C19 H49 0.948 . S
C20 C19 1.391 . S
C20 C21 1.391 . S
C21 C20 1.391 . S
C21 C22 1.392 . S
C21 H50 0.947 . S
C22 C21 1.392 . S
C22 C23 1.419 . S
C22 H51 0.948 . S
C23 C22 1.419 . S
C23 C24 1.391 . S
C23 C27 1.397 . S
C24 C19 1.391 . S
C24 C23 1.391 . S
C24 C25 1.399 . S
C25 C24 1.399 . S
C25 C26 1.396 . S
C25 C28 1.453 . S
C25 C29 1.684 . S
C26 C7 1.723 . S
C26 C25 1.396 . S
C26 C27 1.394 . S
C27 C23 1.397 . S
C27 C26 1.394 . S
C27 C37 1.723 . S
C28 C25 1.453 . S
C28 H52 0.982 . S
C28 H53 0.979 . S
C28 H54 0.977 . S
C29 C25 1.684 . S
C29 H55 0.979 . S
C29 H56 0.980 . S
C29 H57 0.983 . S
C30 H6 0.948 . S
C30 C31 1.391 . S
C30 C35 1.391 . S
C31 C30 1.391 . S
C31 C32 1.391 . S
C32 H9 0.947 . S
C32 C31 1.391 . S
C32 C33 1.392 . S
C33 H10 0.948 . S
C33 C32 1.392 . S
C33 C34 1.419 . S
C34 C33 1.419 . S
C34 C35 1.391 . S
C34 C38 1.397 . S
C35 C30 1.391 . S
C35 C34 1.391 . S
C35 C36 1.399 . S
C36 C35 1.399 . S
C36 C37 1.396 . S
C36 C39 1.453 . S
C36 C40 1.684 . S
C37 C27 1.723 . S
C37 C36 1.396 . S
C37 C38 1.394 . S
C38 C8 1.723 . S
C38 C34 1.397 . S
C38 C37 1.394 . S
C39 H11 0.982 . S
C39 H15 0.979 . S
C39 H16 0.977 . S
C39 C36 1.453 . S
C40 H12 0.979 . S
C40 H13 0.980 . S
C40 H14 0.983 . S
C40 C36 1.684 . S
H41 C59 0.948 . S
H42 C0 0.948 . S
H43 C18 0.979 . S
H44 C18 0.980 . S
H45 C18 0.983 . S
H46 C17 0.982 . S
H47 C17 0.979 . S
H48 C17 0.977 . S
H49 C19 0.948 . S
H50 C21 0.947 . S
H51 C22 0.948 . S
H52 C28 0.982 . S
H53 C28 0.979 . S
H54 C28 0.977 . S
H55 C29 0.979 . S
H56 C29 0.980 . S
H57 C29 0.983 . S
H58 C2 0.947 . S
C59 C2 1.392 . S
C59 C3 1.419 . S
C59 H41 0.948 . S
C60 C61 1.391 . S
C60 C64 1.391 . S
C60 H102 0.948 . S
C61 C60 1.391 . S
C61 C62 1.391 . S
C62 C61 1.391 . S
C62 H118 0.947 . S
C62 C119 1.392 . S
C63 C64 1.400 . S
C63 C67 1.395 1_655 S
C63 C119 1.426 . S
C64 C60 1.391 . S
C64 C63 1.400 . S
C64 C65 1.399 . S
C65 C64 1.399 . S
C65 C68 1.388 1_655 S
C65 C77 1.453 1_655 S
C65 C78 1.684 . S
H66 C90 0.948 . S
C67 C63 1.395 1_455 S
C67 C68 1.393 . S
C67 C86 1.722 . S
C68 C65 1.388 1_455 S
C68 C67 1.393 . S
C68 C98 1.722 . S
H69 C92 0.947 . S
H70 C93 0.948 . S
H71 C99 0.982 . S
H72 C100 0.979 . S
H73 C100 0.980 . S
H74 C100 0.983 . S
H75 C99 0.979 . S
H76 C99 0.977 . S
C77 C65 1.453 1_455 S
C77 H106 0.982 . S
C77 H107 0.979 . S
C77 H108 0.977 . S
C78 C65 1.684 . S
C78 H103 0.979 . S
C78 H104 0.980 . S
C78 H105 0.983 . S
C79 C80 1.391 . S
C79 C84 1.391 . S
C79 H109 0.948 . S
C80 C79 1.391 . S
C80 C81 1.391 . S
C81 C80 1.391 . S
C81 C82 1.392 . S
C81 H110 0.947 . S
C82 C81 1.392 . S
C82 C83 1.425 . S
C82 H111 0.948 . S
C83 C82 1.425 . S
C83 C84 1.400 . S
C83 C87 1.395 1_655 S
C84 C79 1.391 . S
C84 C83 1.400 . S
C84 C85 1.399 . S
C85 C84 1.399 . S
C85 C86 1.388 1_655 S
C85 C88 1.453 1_655 S
C85 C89 1.684 . S
C86 C67 1.722 . S
C86 C85 1.388 1_455 S
C86 C87 1.393 . S
C87 C83 1.395 1_455 S
C87 C86 1.393 . S
C87 C97 1.722 . S
C88 C85 1.453 1_455 S
C88 H112 0.982 . S
C88 H113 0.979 . S
C88 H114 0.977 . S
C89 C85 1.684 . S
C89 H115 0.979 . S
C89 H116 0.980 . S
C89 H117 0.983 . S
C90 H66 0.948 . S
C90 C91 1.391 . S
C90 C95 1.391 . S
C91 C90 1.391 . S
C91 C92 1.391 . S
C92 H69 0.947 . S
C92 C91 1.391 . S
C92 C93 1.392 . S
C93 H70 0.948 . S
C93 C92 1.392 . S
C93 C94 1.426 . S
C94 C93 1.426 . S
C94 C95 1.400 . S
C94 C98 1.395 1_655 S
C95 C90 1.391 . S
C95 C94 1.400 . S
C95 C96 1.399 . S
C96 C95 1.399 . S
C96 C97 1.388 1_655 S
C96 C99 1.453 1_655 S
C96 C100 1.684 . S
C97 C87 1.722 . S
C97 C96 1.388 1_455 S
C97 C98 1.393 . S
C98 C68 1.722 . S
C98 C94 1.395 1_455 S
C98 C97 1.393 . S
C99 H71 0.982 . S
C99 H75 0.979 . S
C99 H76 0.977 . S
C99 C96 1.453 1_455 S
C100 H72 0.979 . S
C100 H73 0.980 . S
C100 H74 0.983 . S
C100 C96 1.684 . S
H101 C119 0.948 . S
H102 C60 0.948 . S
H103 C78 0.979 . S
H104 C78 0.980 . S
H105 C78 0.983 . S
H106 C77 0.982 . S
H107 C77 0.979 . S
H108 C77 0.977 . S
H109 C79 0.948 . S
H110 C81 0.947 . S
H111 C82 0.948 . S
H112 C88 0.982 . S
H113 C88 0.979 . S
H114 C88 0.977 . S
H115 C89 0.979 . S
H116 C89 0.980 . S
H117 C89 0.983 . S
H118 C62 0.947 . S
C119 C62 1.392 . S
C119 C63 1.426 . S
C119 H101 0.948 . S
C120 C121 1.391 . S
C120 C124 1.391 . S
C120 H162 0.948 . S
C121 C120 1.391 . S
C121 C122 1.391 . S
C122 C121 1.391 . S
C122 H178 0.947 . S
C122 C179 1.392 . S
C123 C124 1.400 . S
C123 C127 1.395 1_565 S
C123 C179 1.426 . S
C124 C120 1.391 . S
C124 C123 1.400 . S
C124 C125 1.399 . S
C125 C124 1.399 . S
C125 C128 1.388 1_565 S
C125 C137 1.453 1_565 S
C125 C138 1.684 . S
H126 C150 0.948 . S
C127 C123 1.395 1_545 S
C127 C128 1.393 . S
C127 C146 1.722 . S
C128 C125 1.388 1_545 S
C128 C127 1.393 . S
C128 C158 1.722 . S
H129 C152 0.947 . S
H130 C153 0.948 . S
H131 C159 0.982 . S
H132 C160 0.979 . S
H133 C160 0.980 . S
H134 C160 0.983 . S
H135 C159 0.979 . S
H136 C159 0.977 . S
C137 C125 1.453 1_545 S
C137 H166 0.982 . S
C137 H167 0.979 . S
C137 H168 0.977 . S
C138 C125 1.684 . S
C138 H163 0.979 . S
C138 H164 0.980 . S
C138 H165 0.983 . S
C139 C140 1.391 . S
C139 C144 1.391 . S
C139 H169 0.948 . S
C140 C139 1.391 . S
C140 C141 1.391 . S
C141 C140 1.391 . S
C141 C142 1.392 . S
C141 H170 0.947 . S
C142 C141 1.392 . S
C142 C143 1.425 . S
C142 H171 0.948 . S
C143 C142 1.425 . S
C143 C144 1.400 . S
C143 C147 1.395 1_565 S
C144 C139 1.391 . S
C144 C143 1.400 . S
C144 C145 1.399 . S
C145 C144 1.399 . S
C145 C146 1.388 1_565 S
C145 C148 1.453 1_565 S
C145 C149 1.684 . S
C146 C127 1.722 . S
C146 C145 1.388 1_545 S
C146 C147 1.393 . S
C147 C143 1.395 1_545 S
C147 C146 1.393 . S
C147 C157 1.722 . S
C148 C145 1.453 1_545 S
C148 H172 0.982 . S
C148 H173 0.979 . S
C148 H174 0.977 . S
C149 C145 1.684 . S
C149 H175 0.979 . S
C149 H176 0.980 . S
C149 H177 0.983 . S
C150 H126 0.948 . S
C150 C151 1.391 . S
C150 C155 1.391 . S
C151 C150 1.391 . S
C151 C152 1.391 . S
C152 H129 0.947 . S
C152 C151 1.391 . S
C152 C153 1.392 . S
C153 H130 0.948 . S
C153 C152 1.392 . S
C153 C154 1.425 . S
C154 C153 1.425 . S
C154 C155 1.400 . S
C154 C158 1.395 1_565 S
C155 C150 1.391 . S
C155 C154 1.400 . S
C155 C156 1.399 . S
C156 C155 1.399 . S
C156 C157 1.388 1_565 S
C156 C159 1.453 1_565 S
C156 C160 1.684 . S
C157 C147 1.722 . S
C157 C156 1.388 1_545 S
C157 C158 1.393 . S
C158 C128 1.722 . S
C158 C154 1.395 1_545 S
C158 C157 1.393 . S
C159 H131 0.982 . S
C159 H135 0.979 . S
C159 H136 0.977 . S
C159 C156 1.453 1_545 S
C160 H132 0.979 . S
C160 H133 0.980 . S
C160 H134 0.983 . S
C160 C156 1.684 . S
H161 C179 0.948 . S
H162 C120 0.948 . S
H163 C138 0.979 . S
H164 C138 0.980 . S
H165 C138 0.983 . S
H166 C137 0.982 . S
H167 C137 0.979 . S
H168 C137 0.977 . S
H169 C139 0.948 . S
H170 C141 0.947 . S
H171 C142 0.948 . S
H172 C148 0.982 . S
H173 C148 0.979 . S
H174 C148 0.977 . S
H175 C149 0.979 . S
H176 C149 0.980 . S
H177 C149 0.983 . S
H178 C122 0.947 . S
C179 C122 1.392 . S
C179 C123 1.426 . S
C179 H161 0.948 . S
C180 C181 1.391 . S
C180 C184 1.391 . S
C180 H222 0.948 . S
C181 C180 1.391 . S
C181 C182 1.391 . S
C182 C181 1.391 . S
C182 H238 0.947 . S
C182 C239 1.392 . S
C183 C184 1.391 . S
C183 C187 1.397 . S
C183 C239 1.419 . S
C184 C180 1.391 . S
C184 C183 1.391 . S
C184 C185 1.399 . S
C185 C184 1.399 . S
C185 C188 1.396 . S
C185 C197 1.453 . S
C185 C198 1.684 . S
H186 C210 0.948 . S
C187 C183 1.397 . S
C187 C188 1.394 . S
C187 C206 1.723 . S
C188 C185 1.396 . S
C188 C187 1.394 . S
C188 C218 1.723 . S
H189 C212 0.947 . S
H190 C213 0.948 . S
H191 C219 0.982 . S
H192 C220 0.979 . S
H193 C220 0.980 . S
H194 C220 0.983 . S
H195 C219 0.979 . S
H196 C219 0.977 . S
C197 C185 1.453 . S
C197 H226 0.982 . S
C197 H227 0.979 . S
C197 H228 0.977 . S
C198 C185 1.684 . S
C198 H223 0.979 . S
C198 H224 0.980 . S
C198 H225 0.983 . S
C199 C200 1.391 . S
C199 C204 1.391 . S
C199 H229 0.948 . S
C200 C199 1.391 . S
C200 C201 1.391 . S
C201 C200 1.391 . S
C201 C202 1.392 . S
C201 H230 0.947 . S
C202 C201 1.392 . S
C202 C203 1.419 . S
C202 H231 0.948 . S
C203 C202 1.419 . S
C203 C204 1.391 . S
C203 C207 1.397 . S
C204 C199 1.391 . S
C204 C203 1.391 . S
C204 C205 1.399 . S
C205 C204 1.399 . S
C205 C206 1.396 . S
C205 C208 1.453 . S
C205 C209 1.684 . S
C206 C187 1.723 . S
C206 C205 1.396 . S
C206 C207 1.394 . S
C207 C203 1.397 . S
C207 C206 1.394 . S
C207 C217 1.723 . S
C208 C205 1.453 . S
C208 H232 0.982 . S
C208 H233 0.979 . S
C208 H234 0.977 . S
C209 C205 1.684 . S
C209 H235 0.979 . S
C209 H236 0.980 . S
C209 H237 0.983 . S
C210 H186 0.948 . S
C210 C211 1.391 . S
C210 C215 1.391 . S
C211 C210 1.391 . S
C211 C212 1.391 . S
C212 H189 0.947 . S
C212 C211 1.391 . S
C212 C213 1.392 . S
C213 H190 0.948 . S
C213 C212 1.392 . S
C213 C214 1.419 . S
C214 C213 1.419 . S
C214 C215 1.391 . S
C214 C218 1.397 . S
C215 C210 1.391 . S
C215 C214 1.391 . S
C215 C216 1.399 . S
C216 C215 1.399 . S
C216 C217 1.396 . S
C216 C219 1.453 . S
C216 C220 1.684 . S
C217 C207 1.723 . S
C217 C216 1.396 . S
C217 C218 1.394 . S
C218 C188 1.723 . S
C218 C214 1.397 . S
C218 C217 1.394 . S
C219 H191 0.982 . S
C219 H195 0.979 . S
C219 H196 0.977 . S
C219 C216 1.453 . S
C220 H192 0.979 . S
C220 H193 0.980 . S
C220 H194 0.983 . S
C220 C216 1.684 . S
H221 C239 0.948 . S
H222 C180 0.948 . S
H223 C198 0.979 . S
H224 C198 0.980 . S
H225 C198 0.983 . S
H226 C197 0.982 . S
H227 C197 0.979 . S
H228 C197 0.977 . S
H229 C199 0.948 . S
H230 C201 0.947 . S
H231 C202 0.948 . S
H232 C208 0.982 . S
H233 C208 0.979 . S
H234 C208 0.977 . S
H235 C209 0.979 . S
H236 C209 0.980 . S
H237 C209 0.983 . S
H238 C182 0.947 . S
C239 C182 1.392 . S
C239 C183 1.419 . S
C239 H221 0.948 . S
C240 C241 1.391 . S
C240 C244 1.391 . S
C240 H282 0.948 . S
C241 C240 1.391 . S
C241 C242 1.391 . S
C242 C241 1.391 . S
C242 H298 0.947 . S
C242 C299 1.392 . S
C243 C244 1.391 . S
C243 C247 1.397 . S
C243 C299 1.419 . S
C244 C240 1.391 . S
C244 C243 1.391 . S
C244 C245 1.399 1_554 S
C245 C244 1.399 1_556 S
C245 C248 1.396 1_556 S
C245 C257 1.453 . S
C245 C258 1.684 . S
H246 C270 0.948 . S
C247 C243 1.397 . S
C247 C248 1.394 . S
C247 C266 1.723 . S
C248 C245 1.396 1_554 S
C248 C247 1.394 . S
C248 C278 1.723 1_554 S
H249 C272 0.947 . S
H250 C273 0.948 . S
H251 C279 0.982 . S
H252 C280 0.979 . S
H253 C280 0.980 1_554 S
H254 C280 0.983 . S
H255 C279 0.979 . S
H256 C279 0.977 1_554 S
C257 C245 1.453 . S
C257 H286 0.982 . S
C257 H287 0.979 . S
C257 H288 0.977 . S
C258 C245 1.684 . S
C258 H283 0.979 . S
C258 H284 0.980 . S
C258 H285 0.983 . S
C259 C260 1.391 . S
C259 C264 1.391 . S
C259 H289 0.948 . S
C260 C259 1.391 . S
C260 C261 1.391 . S
C261 C260 1.391 . S
C261 C262 1.392 . S
C261 H290 0.947 . S
C262 C261 1.392 . S
C262 C263 1.419 . S
C262 H291 0.948 . S
C263 C262 1.419 . S
C263 C264 1.391 . S
C263 C267 1.397 . S
C264 C259 1.391 . S
C264 C263 1.391 . S
C264 C265 1.399 . S
C265 C264 1.399 . S
C265 C266 1.396 . S
C265 C268 1.453 . S
C265 C269 1.684 . S
C266 C247 1.723 . S
C266 C265 1.396 . S
C266 C267 1.394 . S
C267 C263 1.397 . S
C267 C266 1.394 . S
C267 C277 1.723 . S
C268 C265 1.453 . S
C268 H292 0.982 . S
C268 H293 0.979 . S
C268 H294 0.977 . S
C269 C265 1.684 . S
C269 H295 0.979 . S
C269 H296 0.980 . S
C269 H297 0.983 . S
C270 H246 0.948 . S
C270 C271 1.391 . S
C270 C275 1.391 . S
C271 C270 1.391 . S
C271 C272 1.391 . S
C272 H249 0.947 . S
C272 C271 1.391 . S
C272 C273 1.392 . S
C273 H250 0.948 . S
C273 C272 1.392 . S
C273 C274 1.419 . S
C274 C273 1.419 . S
C274 C275 1.391 . S
C274 C278 1.397 . S
C275 C270 1.391 . S
C275 C274 1.391 . S
C275 C276 1.399 . S
C276 C275 1.399 . S
C276 C277 1.396 1_556 S
C276 C279 1.453 . S
C276 C280 1.684 . S
C277 C267 1.723 . S
C277 C276 1.396 1_554 S
C277 C278 1.394 1_554 S
C278 C248 1.723 1_556 S
C278 C274 1.397 . S
C278 C277 1.394 1_556 S
C279 H251 0.982 . S
C279 H255 0.979 . S
C279 H256 0.977 1_556 S
C279 C276 1.453 . S
C280 H252 0.979 . S
C280 H253 0.980 1_556 S
C280 H254 0.983 . S
C280 C276 1.684 . S
H281 C299 0.948 . S
H282 C240 0.948 . S
H283 C258 0.979 . S
H284 C258 0.980 . S
H285 C258 0.983 . S
H286 C257 0.982 . S
H287 C257 0.979 . S
H288 C257 0.977 . S
H289 C259 0.948 . S
H290 C261 0.947 . S
H291 C262 0.948 . S
H292 C268 0.982 . S
H293 C268 0.979 . S
H294 C268 0.977 . S
H295 C269 0.979 . S
H296 C269 0.980 . S
H297 C269 0.983 . S
H298 C242 0.947 . S
C299 C242 1.392 . S
C299 C243 1.419 . S
C299 H281 0.948 . S
C300 C301 1.391 . S
C300 C304 1.391 . S
C300 H342 0.948 . S
C301 C300 1.391 . S
C301 C302 1.391 . S
C302 C301 1.391 . S
C302 H358 0.947 . S
C302 C359 1.392 . S
C303 C304 1.398 . S
C303 C307 1.395 1_655 S
C303 C359 1.424 . S
C304 C300 1.391 . S
C304 C303 1.398 . S
C304 C305 1.399 . S
C305 C304 1.399 . S
C305 C308 1.396 1_655 S
C305 C317 1.453 1_655 S
C305 C318 1.684 . S
H306 C330 0.948 . S
C307 C303 1.395 1_455 S
C307 C308 1.395 . S
C307 C326 1.723 . S
C308 C305 1.396 1_455 S
C308 C307 1.395 . S
C308 C338 1.723 . S
H309 C332 0.947 . S
H310 C333 0.948 . S
H311 C339 0.982 . S
H312 C340 0.979 . S
H313 C340 0.980 . S
H314 C340 0.983 . S
H315 C339 0.979 . S
H316 C339 0.977 . S
C317 C305 1.453 1_455 S
C317 H346 0.982 . S
C317 H347 0.979 . S
C317 H348 0.977 . S
C318 C305 1.684 . S
C318 H343 0.979 . S
C318 H344 0.980 . S
C318 H345 0.983 . S
C319 C320 1.391 . S
C319 C324 1.391 . S
C319 H349 0.948 . S
C320 C319 1.391 . S
C320 C321 1.391 . S
C321 C320 1.391 . S
C321 C322 1.392 . S
C321 H350 0.947 . S
C322 C321 1.392 . S
C322 C323 1.424 . S
C322 H351 0.948 . S
C323 C322 1.424 . S
C323 C324 1.398 . S
C323 C327 1.395 1_655 S
C324 C319 1.391 . S
C324 C323 1.398 . S
C324 C325 1.399 . S
C325 C324 1.399 . S
C325 C326 1.396 1_656 S
C325 C328 1.453 1_655 S
C325 C329 1.684 . S
C326 C307 1.723 . S
C326 C325 1.396 1_454 S
C326 C327 1.395 1_554 S
C327 C323 1.395 1_455 S
C327 C326 1.395 1_556 S
C327 C337 1.723 1_556 S
C328 C325 1.453 1_455 S
C328 H352 0.982 . S
C328 H353 0.979 . S
C328 H354 0.977 1_556 S
C329 C325 1.684 . S
C329 H355 0.979 . S
C329 H356 0.980 1_556 S
C329 H357 0.983 . S
C330 H306 0.948 . S
C330 C331 1.391 . S
C330 C335 1.391 . S
C331 C330 1.391 . S
C331 C332 1.391 . S
C332 H309 0.947 . S
C332 C331 1.391 . S
C332 C333 1.392 . S
C333 H310 0.948 . S
C333 C332 1.392 . S
C333 C334 1.424 . S
C334 C333 1.424 . S
C334 C335 1.398 . S
C334 C338 1.395 1_655 S
C335 C330 1.391 . S
C335 C334 1.398 . S
C335 C336 1.399 1_554 S
C336 C335 1.399 1_556 S
C336 C337 1.396 1_656 S
C336 C339 1.453 1_655 S
C336 C340 1.684 . S
C337 C327 1.723 1_554 S
C337 C336 1.396 1_454 S
C337 C338 1.395 . S
C338 C308 1.723 . S
C338 C334 1.395 1_455 S
C338 C337 1.395 . S
C339 H311 0.982 . S
C339 H315 0.979 . S
C339 H316 0.977 . S
C339 C336 1.453 1_455 S
C340 H312 0.979 . S
C340 H313 0.980 . S
C340 H314 0.983 . S
C340 C336 1.684 . S
H341 C359 0.948 . S
H342 C300 0.948 . S
H343 C318 0.979 . S
H344 C318 0.980 . S
H345 C318 0.983 . S
H346 C317 0.982 . S
H347 C317 0.979 . S
H348 C317 0.977 . S
H349 C319 0.948 . S
H350 C321 0.947 . S
H351 C322 0.948 . S
H352 C328 0.982 . S
H353 C328 0.979 . S
H354 C328 0.977 1_554 S
H355 C329 0.979 . S
H356 C329 0.980 1_554 S
H357 C329 0.983 . S
H358 C302 0.947 . S
C359 C302 1.392 . S
C359 C303 1.424 . S
C359 H341 0.948 . S
C360 C361 1.391 . S
C360 C364 1.391 . S
C360 H402 0.948 . S
C361 C360 1.391 . S
C361 C362 1.391 . S
C362 C361 1.391 . S
C362 H418 0.947 . S
C362 C419 1.392 . S
C363 C364 1.400 . S
C363 C367 1.395 1_545 S
C363 C419 1.425 . S
C364 C360 1.391 . S
C364 C363 1.400 . S
C364 C365 1.399 . S
C365 C364 1.399 . S
C365 C368 1.388 1_545 S
C365 C377 1.453 1_545 S
C365 C378 1.684 . S
H366 C390 0.948 . S
C367 C363 1.395 1_565 S
C367 C368 1.393 . S
C367 C386 1.722 1_556 S
C368 C365 1.388 1_565 S
C368 C367 1.393 . S
C368 C398 1.722 1_556 S
H369 C392 0.947 . S
H370 C393 0.948 1_556 S
H371 C399 0.982 . S
H372 C400 0.979 . S
H373 C400 0.980 . S
H374 C400 0.983 . S
H375 C399 0.979 . S
H376 C399 0.977 . S
C377 C365 1.453 1_565 S
C377 H406 0.982 . S
C377 H407 0.979 . S
C377 H408 0.977 . S
C378 C365 1.684 . S
C378 H403 0.979 . S
C378 H404 0.980 . S
C378 H405 0.983 . S
C379 C380 1.391 . S
C379 C384 1.391 . S
C379 H409 0.948 . S
C380 C379 1.391 . S
C380 C381 1.391 . S
C381 C380 1.391 . S
C381 C382 1.392 . S
C381 H410 0.947 . S
C382 C381 1.392 . S
C382 C383 1.426 . S
C382 H411 0.948 . S
C383 C382 1.426 . S
C383 C384 1.400 . S
C383 C387 1.395 1_545 S
C384 C379 1.391 . S
C384 C383 1.400 . S
C384 C385 1.399 . S
C385 C384 1.399 . S
C385 C386 1.388 1_545 S
C385 C388 1.453 1_545 S
C385 C389 1.684 . S
C386 C367 1.722 1_554 S
C386 C385 1.388 1_565 S
C386 C387 1.393 . S
C387 C383 1.395 1_565 S
C387 C386 1.393 . S
C387 C397 1.722 . S
C388 C385 1.453 1_565 S
C388 H412 0.982 . S
C388 H413 0.979 . S
C388 H414 0.977 . S
C389 C385 1.684 . S
C389 H415 0.979 . S
C389 H416 0.985 . S
C389 H417 0.983 . S
C390 H366 0.948 . S
C390 C391 1.391 . S
C390 C395 1.391 . S
C391 C390 1.391 . S
C391 C392 1.391 . S
C392 H369 0.947 . S
C392 C391 1.391 . S
C392 C393 1.392 . S
C393 H370 0.948 1_554 S
C393 C392 1.392 . S
C393 C394 1.425 . S
C394 C393 1.425 . S
C394 C395 1.400 . S
C394 C398 1.395 1_545 S
C395 C390 1.391 . S
C395 C394 1.400 . S
C395 C396 1.399 . S
C396 C395 1.399 . S
C396 C397 1.388 1_545 S
C396 C399 1.453 1_545 S
C396 C400 1.684 . S
C397 C387 1.722 . S
C397 C396 1.388 1_565 S
C397 C398 1.393 . S
C398 C368 1.722 1_554 S
C398 C394 1.395 1_565 S
C398 C397 1.393 . S
C399 H371 0.982 . S
C399 H375 0.979 . S
C399 H376 0.977 . S
C399 C396 1.453 1_565 S
C400 H372 0.979 . S
C400 H373 0.980 . S
C400 H374 0.983 . S
C400 C396 1.684 . S
H401 C419 0.948 . S
H402 C360 0.948 . S
H403 C378 0.979 . S
H404 C378 0.980 . S
H405 C378 0.983 . S
H406 C377 0.982 . S
H407 C377 0.979 . S
H408 C377 0.977 . S
H409 C379 0.948 . S
H410 C381 0.947 . S
H411 C382 0.948 . S
H412 C388 0.982 . S
H413 C388 0.979 . S
H414 C388 0.977 . S
H415 C389 0.979 . S
H416 C389 0.985 . S
H417 C389 0.983 . S
H418 C362 0.947 . S
C419 C362 1.392 . S
C419 C363 1.425 . S
C419 H401 0.948 . S
C420 C421 1.391 . S
C420 C424 1.391 . S
C420 H462 0.948 . S
C421 C420 1.391 . S
C421 C422 1.391 . S
C422 C421 1.391 . S
C422 H478 0.947 . S
C422 C479 1.392 . S
C423 C424 1.391 . S
C423 C427 1.397 . S
C423 C479 1.419 . S
C424 C420 1.391 . S
C424 C423 1.391 . S
C424 C425 1.399 . S
C425 C424 1.399 . S
C425 C428 1.396 . S
C425 C437 1.453 . S
C425 C438 1.684 . S
H426 C450 0.948 . S
C427 C423 1.397 . S
C427 C428 1.394 . S
C427 C446 1.723 1_556 S
C428 C425 1.396 . S
C428 C427 1.394 . S
C428 C458 1.723 1_556 S
H429 C452 0.947 . S
H430 C453 0.948 1_556 S
H431 C459 0.982 . S
H432 C460 0.979 . S
H433 C460 0.980 . S
H434 C460 0.983 . S
H435 C459 0.979 . S
H436 C459 0.977 . S
C437 C425 1.453 . S
C437 H466 0.982 . S
C437 H467 0.979 . S
C437 H468 0.977 . S
C438 C425 1.684 . S
C438 H463 0.979 . S
C438 H464 0.980 . S
C438 H465 0.983 . S
C439 C440 1.391 . S
C439 C444 1.391 . S
C439 H469 0.948 . S
C440 C439 1.391 . S
C440 C441 1.391 . S
C441 C440 1.391 . S
C441 C442 1.392 . S
C441 H470 0.947 . S
C442 C441 1.392 . S
C442 C443 1.419 . S
C442 H471 0.948 . S
C443 C442 1.419 . S
C443 C444 1.391 . S
C443 C447 1.397 . S
C444 C439 1.391 . S
C444 C443 1.391 . S
C444 C445 1.399 . S
C445 C444 1.399 . S
C445 C446 1.396 . S
C445 C448 1.453 . S
C445 C449 1.684 . S
C446 C427 1.723 1_554 S
C446 C445 1.396 . S
C446 C447 1.394 . S
C447 C443 1.397 . S
C447 C446 1.394 . S
C447 C457 1.723 . S
C448 C445 1.453 . S
C448 H472 0.982 . S
C448 H473 0.979 . S
C448 H474 0.977 . S
C449 C445 1.684 . S
C449 H475 0.979 . S
C449 H476 0.980 1_554 S
C449 H477 0.983 . S
C450 H426 0.948 . S
C450 C451 1.391 . S
C450 C455 1.391 . S
C451 C450 1.391 . S
C451 C452 1.391 . S
C452 H429 0.947 . S
C452 C451 1.391 . S
C452 C453 1.392 . S
C453 H430 0.948 1_554 S
C453 C452 1.392 . S
C453 C454 1.419 . S
C454 C453 1.419 . S
C454 C455 1.391 . S
C454 C458 1.397 . S
C455 C450 1.391 . S
C455 C454 1.391 . S
C455 C456 1.399 . S
C456 C455 1.399 . S
C456 C457 1.396 . S
C456 C459 1.453 . S
C456 C460 1.684 . S
C457 C447 1.723 . S
C457 C456 1.396 . S
C457 C458 1.394 . S
C458 C428 1.723 1_554 S
C458 C454 1.397 . S
C458 C457 1.394 . S
C459 H431 0.982 . S
C459 H435 0.979 . S
C459 H436 0.977 . S
C459 C456 1.453 . S
C460 H432 0.979 . S
C460 H433 0.980 . S
C460 H434 0.983 . S
C460 C456 1.684 . S
H461 C479 0.948 . S
H462 C420 0.948 . S
H463 C438 0.979 . S
H464 C438 0.980 . S
H465 C438 0.983 . S
H466 C437 0.982 . S
H467 C437 0.979 . S
H468 C437 0.977 . S
H469 C439 0.948 . S
H470 C441 0.947 . S
H471 C442 0.948 . S
H472 C448 0.982 . S
H473 C448 0.979 . S
H474 C448 0.977 . S
H475 C449 0.979 . S
H476 C449 0.980 1_556 S
H477 C449 0.983 . S
H478 C422 0.947 . S
C479 C422 1.392 . S
C479 C423 1.419 . S
C479 H461 0.948 . S
Tb480 C482 2.809 . S
Tb480 O500 2.484 . S
Tb480 O501 2.440 . S
Tb480 O502 2.658 1_565 S
Tb480 O503 2.409 . S
Tb480 O504 2.378 . S
Tb480 O508 2.325 1_455 S
Tb480 O511 2.341 1_565 S
Tb481 C491 2.809 . S
Tb481 O502 2.325 1_655 S
Tb481 O505 2.341 1_545 S
Tb481 O506 2.484 . S
Tb481 O507 2.440 . S
Tb481 O508 2.658 1_545 S
Tb481 O509 2.409 . S
Tb481 O510 2.378 . S
C482 Tb480 2.809 . S
C482 C483 1.514 . S
C482 O500 1.248 . S
C482 O501 1.266 . S
C483 C482 1.514 . S
C483 C484 1.359 . S
C483 C488 1.348 . S
C484 C483 1.359 . S
C484 C485 1.380 . S
C484 H512 0.929 1_455 S
C485 C484 1.380 . S
C485 C486 1.347 . S
C485 H513 0.931 1_455 S
C486 C485 1.347 . S
C486 C487 1.369 . S
C487 C486 1.369 . S
C487 C488 1.408 . S
C487 H514 0.930 . S
C488 C483 1.348 . S
C488 C487 1.408 . S
C488 H515 0.930 . S
C489 O502 1.263 1_565 S
C489 O503 1.280 . S
C490 O504 1.236 1_655 S
C490 O505 1.266 . S
C491 Tb481 2.809 . S
C491 C492 1.514 . S
C491 O506 1.248 . S
C491 O507 1.266 . S
C492 C491 1.514 . S
C492 C493 1.359 . S
C492 C497 1.348 . S
C493 C492 1.359 . S
C493 C494 1.380 . S
C493 H516 0.929 1_655 S
C494 C493 1.380 . S
C494 C495 1.347 . S
C494 H517 0.931 1_655 S
C495 C494 1.347 . S
C495 C496 1.369 . S
C496 C495 1.369 . S
C496 C497 1.408 . S
C496 H518 0.930 . S
C497 C492 1.348 . S
C497 C496 1.408 . S
C497 H519 0.930 . S
C498 O508 1.281 1_545 S
C498 O509 1.254 . S
C499 O510 1.236 1_455 S
C499 O511 1.266 . S
O500 Tb480 2.484 . S
O500 C482 1.248 . S
O501 Tb480 2.440 . S
O501 C482 1.266 . S
O502 Tb480 2.658 1_545 S
O502 Tb481 2.325 1_455 S
O502 C489 1.263 1_545 S
O503 Tb480 2.409 . S
O503 C489 1.280 . S
O504 Tb480 2.378 . S
O504 C490 1.236 1_455 S
O505 Tb481 2.341 1_565 S
O505 C490 1.266 . S
O506 Tb481 2.484 . S
O506 C491 1.248 . S
O507 Tb481 2.440 . S
O507 C491 1.266 . S
O508 Tb480 2.325 1_655 S
O508 Tb481 2.658 1_565 S
O508 C498 1.281 1_565 S
O509 Tb481 2.409 . S
O509 C498 1.254 . S
O510 Tb481 2.378 . S
O510 C499 1.236 1_655 S
O511 Tb480 2.341 1_545 S
O511 C499 1.266 . S
H512 C484 0.929 1_655 S
H513 C485 0.931 1_655 S
H514 C487 0.930 . S
H515 C488 0.930 . S
H516 C493 0.929 1_455 S
H517 C494 0.931 1_455 S
H518 C496 0.930 . S
H519 C497 0.930 . S
Tb520 C522 2.809 . S
Tb520 O540 2.484 . S
Tb520 O541 2.440 . S
Tb520 O542 2.658 . S
Tb520 O543 2.409 . S
Tb520 O544 2.378 . S
Tb520 O548 2.325 1_545 S
Tb520 O551 2.341 . S
Tb521 C531 2.809 . S
Tb521 O542 2.325 1_565 S
Tb521 O545 2.341 . S
Tb521 O546 2.511 . S
Tb521 O547 2.440 . S
Tb521 O548 2.658 . S
Tb521 O549 2.409 . S
Tb521 O550 2.378 . S
C522 Tb520 2.809 . S
C522 C523 1.514 . S
C522 O540 1.248 . S
C522 O541 1.266 . S
C523 C522 1.514 . S
C523 C524 1.359 . S
C523 C528 1.348 . S
C524 C523 1.359 . S
C524 C525 1.380 . S
C524 H552 0.929 1_545 S
C525 C524 1.380 . S
C525 C526 1.347 . S
C525 H553 0.931 1_545 S
C526 C525 1.347 . S
C526 C527 1.369 . S
C527 C526 1.369 . S
C527 C528 1.408 . S
C527 H554 0.930 . S
C528 C523 1.348 . S
C528 C527 1.408 . S
C528 H555 0.930 . S
C529 O542 1.281 . S
C529 O543 1.254 . S
C530 O544 1.236 1_565 S
C530 O545 1.266 . S
C531 Tb521 2.809 . S
C531 C532 1.514 . S
C531 O546 1.308 . S
C531 O547 1.266 . S
C532 C531 1.514 . S
C532 C533 1.359 . S
C532 C537 1.348 . S
C533 C532 1.359 . S
C533 C534 1.380 . S
C533 H556 0.929 1_565 S
C534 C533 1.380 . S
C534 C535 1.347 . S
C534 H557 0.931 1_565 S
C535 C534 1.347 . S
C535 C536 1.369 . S
C536 C535 1.369 . S
C536 C537 1.408 . S
C536 H558 0.930 . S
C537 C532 1.348 . S
C537 C536 1.408 . S
C537 H559 0.930 . S
C538 O548 1.281 . S
C538 O549 1.254 . S
C539 O550 1.236 1_545 S
C539 O551 1.266 . S
O540 Tb520 2.484 . S
O540 C522 1.248 . S
O541 Tb520 2.440 . S
O541 C522 1.266 . S
O542 Tb520 2.658 . S
O542 Tb521 2.325 1_545 S
O542 C529 1.281 . S
O543 Tb520 2.409 . S
O543 C529 1.254 . S
O544 Tb520 2.378 . S
O544 C530 1.236 1_545 S
O545 Tb521 2.341 . S
O545 C530 1.266 . S
O546 Tb521 2.511 . S
O546 C531 1.308 . S
O547 Tb521 2.440 . S
O547 C531 1.266 . S
O548 Tb520 2.325 1_565 S
O548 Tb521 2.658 . S
O548 C538 1.281 . S
O549 Tb521 2.409 . S
O549 C538 1.254 . S
O550 Tb521 2.378 . S
O550 C539 1.236 1_565 S
O551 Tb520 2.341 . S
O551 C539 1.266 . S
H552 C524 0.929 1_565 S
H553 C525 0.931 1_565 S
H554 C527 0.930 . S
H555 C528 0.930 . S
H556 C533 0.929 1_545 S
H557 C534 0.931 1_545 S
H558 C536 0.930 . S
H559 C537 0.930 . S
Tb560 C562 2.809 . S
Tb560 O580 2.484 . S
Tb560 O581 2.440 . S
Tb560 O582 2.658 . S
Tb560 O583 2.409 . S
Tb560 O584 2.378 . S
Tb560 O588 2.325 . S
Tb560 O591 2.341 . S
Tb561 C571 2.809 . S
Tb561 O582 2.325 . S
Tb561 O585 2.341 . S
Tb561 O586 2.484 . S
Tb561 O587 2.440 . S
Tb561 O588 2.658 . S
Tb561 O589 2.409 . S
Tb561 O590 2.378 . S
C562 Tb560 2.809 . S
C562 C563 1.514 . S
C562 O580 1.248 . S
C562 O581 1.266 . S
C563 C562 1.514 . S
C563 C564 1.359 . S
C563 C568 1.348 . S
C564 C563 1.359 . S
C564 C565 1.380 . S
C564 H592 0.929 . S
C565 C564 1.380 . S
C565 C566 1.347 . S
C565 H593 0.931 . S
C566 C565 1.347 . S
C566 C567 1.369 . S
C567 C566 1.369 . S
C567 C568 1.408 . S
C567 H594 0.930 . S
C568 C563 1.348 . S
C568 C567 1.408 . S
C568 H595 0.930 . S
C569 O582 1.281 . S
C569 O583 1.254 . S
C570 O584 1.236 . S
C570 O585 1.266 . S
C571 Tb561 2.809 . S
C571 C572 1.514 . S
C571 O586 1.248 . S
C571 O587 1.266 . S
C572 C571 1.514 . S
C572 C573 1.359 . S
C572 C577 1.348 . S
C573 C572 1.359 . S
C573 C574 1.380 . S
C573 H596 0.929 . S
C574 C573 1.380 . S
C574 C575 1.347 . S
C574 H597 0.931 . S
C575 C574 1.347 . S
C575 C576 1.369 . S
C576 C575 1.369 . S
C576 C577 1.408 . S
C576 H598 0.930 . S
C577 C572 1.348 . S
C577 C576 1.408 . S
C577 H599 0.930 . S
C578 O588 1.281 . S
C578 O589 1.254 . S
C579 O590 1.236 . S
C579 O591 1.266 . S
O580 Tb560 2.484 . S
O580 C562 1.248 . S
O581 Tb560 2.440 . S
O581 C562 1.266 . S
O582 Tb560 2.658 . S
O582 Tb561 2.325 . S
O582 C569 1.281 . S
O583 Tb560 2.409 . S
O583 C569 1.254 . S
O584 Tb560 2.378 . S
O584 C570 1.236 . S
O585 Tb561 2.341 . S
O585 C570 1.266 . S
O586 Tb561 2.484 . S
O586 C571 1.248 . S
O587 Tb561 2.440 . S
O587 C571 1.266 . S
O588 Tb560 2.325 . S
O588 Tb561 2.658 . S
O588 C578 1.281 . S
O589 Tb561 2.409 . S
O589 C578 1.254 . S
O590 Tb561 2.378 . S
O590 C579 1.236 . S
O591 Tb560 2.341 . S
O591 C579 1.266 . S
H592 C564 0.929 . S
H593 C565 0.931 . S
H594 C567 0.930 . S
H595 C568 0.930 . S
H596 C573 0.929 . S
H597 C574 0.931 . S
H598 C576 0.930 . S
H599 C577 0.930 . S
Tb600 C602 2.809 . S
Tb600 O620 2.484 . S
Tb600 O621 2.440 . S
Tb600 O622 2.658 1_655 S
Tb600 O623 2.409 . S
Tb600 O624 2.378 . S
Tb600 O628 2.325 . S
Tb600 O631 2.341 1_655 S
Tb601 C611 2.809 . S
Tb601 O622 2.325 . S
Tb601 O625 2.341 1_455 S
Tb601 O626 2.484 . S
Tb601 O627 2.440 . S
Tb601 O628 2.658 1_455 S
Tb601 O629 2.409 . S
Tb601 O630 2.378 . S
C602 Tb600 2.809 . S
C602 C603 1.514 . S
C602 O620 1.248 . S
C602 O621 1.266 . S
C603 C602 1.514 . S
C603 C604 1.359 . S
C603 C608 1.348 . S
C604 C603 1.359 . S
C604 C605 1.380 . S
C604 H632 0.929 . S
C605 C604 1.380 . S
C605 C606 1.347 . S
C605 H633 0.931 . S
C606 C605 1.347 . S
C606 C607 1.369 . S
C607 C606 1.369 . S
C607 C608 1.408 . S
C607 H634 0.930 . S
C608 C603 1.348 . S
C608 C607 1.408 . S
C608 H635 0.930 . S
C609 O622 1.271 1_655 S
C609 O623 1.269 . S
C610 O624 1.236 . S
C610 O625 1.266 . S
C611 Tb601 2.809 . S
C611 C612 1.514 . S
C611 O626 1.248 . S
C611 O627 1.266 . S
C612 C611 1.514 . S
C612 C613 1.359 . S
C612 C617 1.348 . S
C613 C612 1.359 . S
C613 C614 1.380 . S
C613 H636 0.929 . S
C614 C613 1.380 . S
C614 C615 1.347 . S
C614 H637 0.931 . S
C615 C614 1.347 . S
C615 C616 1.369 . S
C616 C615 1.369 . S
C616 C617 1.408 . S
C616 H638 0.930 . S
C617 C612 1.348 . S
C617 C616 1.408 . S
C617 H639 0.930 . S
C618 O628 1.266 1_455 S
C618 O629 1.276 . S
C619 O630 1.236 . S
C619 O631 1.266 . S
O620 Tb600 2.484 . S
O620 C602 1.248 . S
O621 Tb600 2.440 . S
O621 C602 1.266 . S
O622 Tb600 2.658 1_455 S
O622 Tb601 2.325 . S
O622 C609 1.271 1_455 S
O623 Tb600 2.409 . S
O623 C609 1.269 . S
O624 Tb600 2.378 . S
O624 C610 1.236 . S
O625 Tb601 2.341 1_655 S
O625 C610 1.266 . S
O626 Tb601 2.484 . S
O626 C611 1.248 . S
O627 Tb601 2.440 . S
O627 C611 1.266 . S
O628 Tb600 2.325 . S
O628 Tb601 2.658 1_655 S
O628 C618 1.266 1_655 S
O629 Tb601 2.409 . S
O629 C618 1.276 . S
O630 Tb601 2.378 . S
O630 C619 1.236 . S
O631 Tb600 2.341 1_455 S
O631 C619 1.266 . S
H632 C604 0.929 . S
H633 C605 0.931 . S
H634 C607 0.930 . S
H635 C608 0.930 . S
H636 C613 0.929 . S
H637 C614 0.931 . S
H638 C616 0.930 . S
H639 C617 0.930 . S
H640 C648 0.929 . S
H641 C650 0.930 . S
H642 C652 0.930 . S
H643 C655 0.929 . S
H644 C658 0.930 . S
H645 C660 0.960 . S
H646 C660 0.960 . S
H647 C660 0.960 . S
C648 H640 0.929 . S
C648 C649 1.379 1_565 S
C648 C650 1.384 . S
C649 C648 1.379 1_545 S
C649 C655 1.388 . S
C650 H641 0.930 . S
C650 C648 1.384 . S
C650 C651 1.402 . S
C651 C650 1.402 . S
C651 C652 1.369 1_565 S
C651 C656 1.491 . S
C652 H642 0.930 . S
C652 C651 1.369 1_545 S
C652 C655 1.386 . S
H653 C669 0.930 . S
H654 C670 0.931 . S
C655 H643 0.929 . S
C655 C649 1.388 . S
C655 C652 1.386 . S
C656 C651 1.491 . S
C656 C658 1.395 . S
C656 C659 1.403 1_565 S
H657 C663 0.930 . S
C658 H644 0.930 . S
C658 C656 1.395 . S
C658 C661 1.403 . S
C659 C656 1.403 1_545 S
C659 C660 1.524 . S
C659 C663 1.400 . S
C660 H645 0.960 . S
C660 H646 0.960 . S
C660 H647 0.960 . S
C660 C659 1.524 . S
C661 C658 1.403 . S
C661 C662 1.392 . S
C661 C665 1.495 . S
C662 C661 1.392 . S
C662 C663 1.385 1_565 S
C662 C664 1.478 . S
C663 H657 0.930 . S
C663 C659 1.400 . S
C663 C662 1.385 1_545 S
C664 C662 1.478 . S
C664 C666 1.381 . S
C664 C670 1.383 1_565 S
C665 C661 1.495 . S
C665 H671 0.959 . S
C665 H672 0.961 . S
C665 H673 0.960 . S
C666 C664 1.381 . S
C666 C667 1.394 . S
C666 H674 0.930 . S
C667 C666 1.394 . S
C667 C668 1.402 . S
C667 H675 0.929 . S
C668 C667 1.402 . S
C668 C669 1.359 1_565 S
C669 H653 0.930 . S
C669 C668 1.359 1_545 S
C669 C670 1.379 . S
C670 H654 0.931 . S
C670 C664 1.383 1_545 S
C670 C669 1.379 . S
H671 C665 0.959 . S
H672 C665 0.961 . S
H673 C665 0.960 . S
H674 C666 0.930 . S
H675 C667 0.929 . S
H676 C684 0.929 . S
H677 C686 0.930 . S
H678 C688 0.930 . S
H679 C691 0.929 . S
H680 C694 0.930 . S
H681 C696 0.960 . S
H682 C696 0.960 . S
H683 C696 0.960 . S
C684 H676 0.929 . S
C684 C685 1.377 . S
C684 C686 1.384 . S
C685 C684 1.377 . S
C685 C691 1.390 . S
C686 H677 0.930 . S
C686 C684 1.384 . S
C686 C687 1.372 . S
C687 C686 1.372 . S
C687 C688 1.400 . S
C687 C692 1.490 . S
C688 H678 0.930 . S
C688 C687 1.400 . S
C688 C691 1.386 . S
H689 C705 0.930 . S
H690 C706 0.931 . S
C691 H679 0.929 . S
C691 C685 1.390 . S
C691 C688 1.386 . S
C692 C687 1.490 . S
C692 C694 1.395 . S
C692 C695 1.403 . S
H693 C699 0.930 . S
C694 H680 0.930 . S
C694 C692 1.395 . S
C694 C697 1.403 . S
C695 C692 1.403 . S
C695 C696 1.524 . S
C695 C699 1.400 . S
C696 H681 0.960 . S
C696 H682 0.960 . S
C696 H683 0.960 . S
C696 C695 1.524 . S
C697 C694 1.403 . S
C697 C698 1.392 . S
C697 C701 1.495 . S
C698 C697 1.392 . S
C698 C699 1.385 . S
C698 C700 1.478 . S
C699 H693 0.930 . S
C699 C695 1.400 . S
C699 C698 1.385 . S
C700 C698 1.478 . S
C700 C702 1.381 . S
C700 C706 1.383 . S
C701 C697 1.495 . S
C701 H707 0.959 . S
C701 H708 0.961 . S
C701 H709 0.960 . S
C702 C700 1.381 . S
C702 C703 1.394 . S
C702 H710 0.930 . S
C703 C702 1.394 . S
C703 C704 1.383 . S
C703 H711 0.929 . S
C704 C703 1.383 . S
C704 C705 1.377 . S
C705 H689 0.930 . S
C705 C704 1.377 . S
C705 C706 1.379 . S
C706 H690 0.931 . S
C706 C700 1.383 . S
C706 C705 1.379 . S
H707 C701 0.959 . S
H708 C701 0.961 . S
H709 C701 0.960 . S
H710 C702 0.930 . S
H711 C703 0.929 . S
H712 C720 0.929 . S
H713 C722 0.930 . S
H714 C724 0.930 . S
H715 C727 0.929 . S
H716 C730 0.930 . S
H717 C732 0.960 . S
H718 C732 0.960 . S
H719 C732 0.960 . S
C720 H712 0.929 . S
C720 C721 1.377 . S
C720 C722 1.384 . S
C721 C720 1.377 . S
C721 C727 1.390 . S
C722 H713 0.930 . S
C722 C720 1.384 . S
C722 C723 1.372 . S
C723 C722 1.372 . S
C723 C724 1.400 . S
C723 C728 1.490 . S
C724 H714 0.930 . S
C724 C723 1.400 . S
C724 C727 1.386 . S
H725 C741 0.930 . S
H726 C742 0.931 . S
C727 H715 0.929 . S
C727 C721 1.390 . S
C727 C724 1.386 . S
C728 C723 1.490 . S
C728 C730 1.395 . S
C728 C731 1.403 . S
H729 C735 0.930 . S
C730 H716 0.930 . S
C730 C728 1.395 . S
C730 C733 1.403 . S
C731 C728 1.403 . S
C731 C732 1.524 . S
C731 C735 1.400 . S
C732 H717 0.960 . S
C732 H718 0.960 . S
C732 H719 0.960 . S
C732 C731 1.524 . S
C733 C730 1.403 . S
C733 C734 1.392 . S
C733 C737 1.495 . S
C734 C733 1.392 . S
C734 C735 1.385 . S
C734 C736 1.478 . S
C735 H729 0.930 . S
C735 C731 1.400 . S
C735 C734 1.385 . S
C736 C734 1.478 . S
C736 C738 1.381 . S
C736 C742 1.383 . S
C737 C733 1.495 . S
C737 H743 0.959 . S
C737 H744 0.961 . S
C737 H745 0.960 . S
C738 C736 1.381 . S
C738 C739 1.394 . S
C738 H746 0.930 . S
C739 C738 1.394 . S
C739 C740 1.383 . S
C739 H747 0.929 . S
C740 C739 1.383 . S
C740 C741 1.377 . S
C741 H725 0.930 . S
C741 C740 1.377 . S
C741 C742 1.379 . S
C742 H726 0.931 . S
C742 C736 1.383 . S
C742 C741 1.379 . S
H743 C737 0.959 . S
H744 C737 0.961 . S
H745 C737 0.960 . S
H746 C738 0.930 . S
H747 C739 0.929 . S
H748 C756 0.929 . S
H749 C758 0.930 . S
H750 C760 0.930 . S
H751 C763 0.929 . S
H752 C766 0.930 . S
H753 C768 0.960 . S
H754 C768 0.960 . S
H755 C768 0.960 . S
C756 H748 0.929 . S
C756 C757 1.380 1_655 S
C756 C758 1.384 . S
C757 C756 1.380 1_455 S
C757 C763 1.388 . S
C758 H749 0.930 . S
C758 C756 1.384 . S
C758 C759 1.400 . S
C759 C758 1.400 . S
C759 C760 1.371 1_655 S
C759 C764 1.490 . S
C760 H750 0.930 . S
C760 C759 1.371 1_455 S
C760 C763 1.386 . S
H761 C777 0.930 . S
H762 C778 0.931 . S
C763 H751 0.929 . S
C763 C757 1.388 . S
C763 C760 1.386 . S
C764 C759 1.490 . S
C764 C766 1.437 . S
C764 C767 1.364 1_655 S
H765 C771 0.930 . S
C766 H752 0.930 . S
C766 C764 1.437 . S
C766 C769 1.403 . S
C767 C764 1.364 1_455 S
C767 C768 1.524 . S
C767 C771 1.400 . S
C768 H753 0.960 . S
C768 H754 0.960 . S
C768 H755 0.960 . S
C768 C767 1.524 . S
C769 C766 1.403 . S
C769 C770 1.392 . S
C769 C773 1.495 . S
C770 C769 1.392 . S
C770 C771 1.385 1_655 S
C770 C772 1.478 . S
C771 H765 0.930 . S
C771 C767 1.400 . S
C771 C770 1.385 1_455 S
C772 C770 1.478 . S
C772 C774 1.381 . S
C772 C778 1.383 1_655 S
C773 C769 1.495 . S
C773 H779 0.959 . S
C773 H780 0.961 . S
C773 H781 0.960 . S
C774 C772 1.381 . S
C774 C775 1.394 . S
C774 H782 0.930 . S
C775 C774 1.394 . S
C775 C776 1.382 . S
C775 H783 0.929 . S
C776 C775 1.382 . S
C776 C777 1.378 1_655 S
C777 H761 0.930 . S
C777 C776 1.378 1_455 S
C777 C778 1.379 . S
C778 H762 0.931 . S
C778 C772 1.383 1_455 S
C778 C777 1.379 . S
H779 C773 0.959 . S
H780 C773 0.961 . S
H781 C773 0.960 . S
H782 C774 0.930 . S
H783 C775 0.929 . S
H784 C792 0.929 . S
H785 C794 0.930 . S
H786 C796 0.930 . S
H787 C799 0.929 . S
H788 C802 0.930 . S
H789 C804 0.960 . S
H790 C804 0.960 . S
H791 C804 0.960 1_554 S
C792 H784 0.929 . S
C792 C793 1.385 . S
C792 C794 1.384 . S
C793 C792 1.385 . S
C793 C799 1.383 1_545 S
C794 H785 0.930 . S
C794 C792 1.384 . S
C794 C795 1.425 . S
C795 C794 1.425 . S
C795 C796 1.346 1_545 S
C795 C800 1.492 . S
C796 H786 0.930 . S
C796 C795 1.346 1_565 S
C796 C799 1.386 . S
H797 C813 0.930 . S
H798 C814 0.931 . S
C799 H787 0.929 . S
C799 C793 1.383 1_565 S
C799 C796 1.386 . S
C800 C795 1.492 . S
C800 C802 1.395 . S
C800 C803 1.403 1_544 S
H801 C807 0.930 . S
C802 H788 0.930 . S
C802 C800 1.395 . S
C802 C805 1.403 1_554 S
C803 C800 1.403 1_566 S
C803 C804 1.524 . S
C803 C807 1.400 . S
C804 H789 0.960 . S
C804 H790 0.960 . S
C804 H791 0.960 1_556 S
C804 C803 1.524 . S
C805 C802 1.403 1_556 S
C805 C806 1.392 . S
C805 C809 1.495 1_556 S
C806 C805 1.392 . S
C806 C807 1.385 1_545 S
C806 C808 1.478 . S
C807 H801 0.930 . S
C807 C803 1.400 . S
C807 C806 1.385 1_565 S
C808 C806 1.478 . S
C808 C810 1.381 . S
C808 C814 1.383 1_545 S
C809 C805 1.495 1_554 S
C809 H815 0.959 . S
C809 H816 0.961 1_554 S
C809 H817 0.960 1_554 S
C810 C808 1.381 . S
C810 C811 1.394 . S
C810 H818 0.930 . S
C811 C810 1.394 . S
C811 C812 1.392 . S
C811 H819 0.929 . S
C812 C811 1.392 . S
C812 C813 1.368 1_545 S
C813 H797 0.930 . S
C813 C812 1.368 1_565 S
C813 C814 1.379 . S
C814 H798 0.931 . S
C814 C808 1.383 1_565 S
C814 C813 1.379 . S
H815 C809 0.959 . S
H816 C809 0.961 1_556 S
H817 C809 0.960 1_556 S
H818 C810 0.930 . S
H819 C811 0.929 . S
H820 C828 0.929 . S
H821 C830 0.930 . S
H822 C832 0.930 . S
H823 C835 0.929 . S
H824 C838 0.930 . S
H825 C840 0.960 1_556 S
H826 C840 0.960 . S
H827 C840 0.960 . S
C828 H820 0.929 . S
C828 C829 1.377 . S
C828 C830 1.384 . S
C829 C828 1.377 . S
C829 C835 1.390 . S
C830 H821 0.930 . S
C830 C828 1.384 . S
C830 C831 1.372 . S
C831 C830 1.372 . S
C831 C832 1.400 . S
C831 C836 1.490 . S
C832 H822 0.930 . S
C832 C831 1.400 . S
C832 C835 1.386 . S
H833 C849 0.930 . S
H834 C850 0.931 . S
C835 H823 0.929 . S
C835 C829 1.390 . S
C835 C832 1.386 . S
C836 C831 1.490 . S
C836 C838 1.395 . S
C836 C839 1.403 . S
H837 C843 0.930 . S
C838 H824 0.930 . S
C838 C836 1.395 . S
C838 C841 1.403 1_554 S
C839 C836 1.403 . S
C839 C840 1.524 . S
C839 C843 1.400 1_554 S
C840 H825 0.960 1_554 S
C840 H826 0.960 . S
C840 H827 0.960 . S
C840 C839 1.524 . S
C841 C838 1.403 1_556 S
C841 C842 1.392 . S
C841 C845 1.495 . S
C842 C841 1.392 . S
C842 C843 1.385 . S
C842 C844 1.478 . S
C843 H837 0.930 . S
C843 C839 1.400 1_556 S
C843 C842 1.385 . S
C844 C842 1.478 . S
C844 C846 1.381 . S
C844 C850 1.383 . S
C845 C841 1.495 . S
C845 H851 0.959 . S
C845 H852 0.961 . S
C845 H853 0.960 . S
C846 C844 1.381 . S
C846 C847 1.394 . S
C846 H854 0.930 . S
C847 C846 1.394 . S
C847 C848 1.383 . S
C847 H855 0.929 . S
C848 C847 1.383 . S
C848 C849 1.377 . S
C849 H833 0.930 . S
C849 C848 1.377 . S
C849 C850 1.379 . S
C850 H834 0.931 . S
C850 C844 1.383 . S
C850 C849 1.379 . S
H851 C845 0.959 . S
H852 C845 0.961 . S
H853 C845 0.960 . S
H854 C846 0.930 . S
H855 C847 0.929 . S
H856 C864 0.929 . S
H857 C866 0.930 . S
H858 C868 0.930 . S
H859 C871 0.929 . S
H860 C874 0.930 . S
H861 C876 0.960 . S
H862 C876 0.960 . S
H863 C876 0.960 . S
C864 H856 0.929 . S
C864 C865 1.377 . S
C864 C866 1.384 . S
C865 C864 1.377 . S
C865 C871 1.390 . S
C866 H857 0.930 . S
C866 C864 1.384 . S
C866 C867 1.372 . S
C867 C866 1.372 . S
C867 C868 1.400 . S
C867 C872 1.490 . S
C868 H858 0.930 . S
C868 C867 1.400 . S
C868 C871 1.386 . S
H869 C885 0.930 . S
H870 C886 0.931 . S
C871 H859 0.929 . S
C871 C865 1.390 . S
C871 C868 1.386 . S
C872 C867 1.490 . S
C872 C874 1.395 . S
C872 C875 1.403 . S
H873 C879 0.930 . S
C874 H860 0.930 . S
C874 C872 1.395 . S
C874 C877 1.403 1_554 S
C875 C872 1.403 . S
C875 C876 1.524 . S
C875 C879 1.400 1_554 S
C876 H861 0.960 . S
C876 H862 0.960 . S
C876 H863 0.960 . S
C876 C875 1.524 . S
C877 C874 1.403 1_556 S
C877 C878 1.392 . S
C877 C881 1.495 . S
C878 C877 1.392 . S
C878 C879 1.385 . S
C878 C880 1.478 . S
C879 H873 0.930 . S
C879 C875 1.400 1_556 S
C879 C878 1.385 . S
C880 C878 1.478 . S
C880 C882 1.381 . S
C880 C886 1.383 . S
C881 C877 1.495 . S
C881 H887 0.959 . S
C881 H888 0.961 . S
C881 H889 0.960 . S
C882 C880 1.381 . S
C882 C883 1.394 . S
C882 H890 0.930 . S
C883 C882 1.394 . S
C883 C884 1.383 . S
C883 H891 0.929 . S
C884 C883 1.383 . S
C884 C885 1.377 . S
C885 H869 0.930 . S
C885 C884 1.377 . S
C885 C886 1.379 . S
C886 H870 0.931 . S
C886 C880 1.383 . S
C886 C885 1.379 . S
H887 C881 0.959 . S
H888 C881 0.961 . S
H889 C881 0.960 . S
H890 C882 0.930 . S
H891 C883 0.929 . S
H892 C900 0.929 . S
H893 C902 0.930 . S
H894 C904 0.930 . S
H895 C907 0.929 . S
H896 C910 0.930 . S
H897 C912 0.960 . S
H898 C912 0.960 . S
H899 C912 0.960 . S
C900 H892 0.929 . S
C900 C901 1.392 . S
C900 C902 1.384 . S
C901 C900 1.392 . S
C901 C907 1.376 1_655 S
C902 H893 0.930 . S
C902 C900 1.384 . S
C902 C903 1.372 . S
C903 C902 1.372 . S
C903 C904 1.400 1_655 S
C903 C908 1.492 . S
C904 H894 0.930 . S
C904 C903 1.400 1_455 S
C904 C907 1.386 . S
H905 C921 0.930 . S
H906 C922 0.931 . S
C907 H895 0.929 . S
C907 C901 1.376 1_455 S
C907 C904 1.386 . S
C908 C903 1.492 . S
C908 C910 1.375 1_654 S
C908 C911 1.424 . S
H909 C915 0.930 . S
C910 H896 0.930 . S
C910 C908 1.375 1_456 S
C910 C913 1.403 . S
C911 C908 1.424 . S
C911 C912 1.524 . S
C911 C915 1.400 1_554 S
C912 H897 0.960 . S
C912 H898 0.960 . S
C912 H899 0.960 . S
C912 C911 1.524 . S
C913 C910 1.403 . S
C913 C914 1.400 . S
C913 C917 1.495 . S
C914 C913 1.400 . S
C914 C915 1.377 1_455 S
C914 C916 1.477 . S
C915 H909 0.930 . S
C915 C911 1.400 1_556 S
C915 C914 1.377 1_655 S
C916 C914 1.477 . S
C916 C918 1.351 1_455 S
C916 C922 1.413 . S
C917 C913 1.495 . S
C917 H923 0.959 . S
C917 H924 0.961 . S
C917 H925 0.960 . S
C918 C916 1.351 1_655 S
C918 C919 1.394 . S
C918 H926 0.930 . S
C919 C918 1.394 . S
C919 C920 1.386 . S
C919 H927 0.929 . S
C920 C919 1.386 . S
C920 C921 1.374 1_655 S
C921 H905 0.930 . S
C921 C920 1.374 1_455 S
C921 C922 1.379 . S
C922 H906 0.931 . S
C922 C916 1.413 . S
C922 C921 1.379 . S
H923 C917 0.959 . S
H924 C917 0.961 . S
H925 C917 0.960 . S
H926 C918 0.930 . S
H927 C919 0.929 . S
H928 C936 0.929 . S
H929 C938 0.930 . S
H930 C940 0.930 . S
H931 C943 0.929 . S
H932 C946 0.930 . S
H933 C948 0.960 . S
H934 C948 0.960 . S
H935 C948 0.960 . S
C936 H928 0.929 . S
C936 C937 1.377 1_655 S
C936 C938 1.384 . S
C937 C936 1.377 1_455 S
C937 C943 1.390 . S
C938 H929 0.930 . S
C938 C936 1.384 . S
C938 C939 1.372 . S
C939 C938 1.372 . S
C939 C940 1.400 1_655 S
C939 C944 1.490 . S
C940 H930 0.930 . S
C940 C939 1.400 1_455 S
C940 C943 1.386 . S
H941 C957 0.930 . S
H942 C958 0.931 . S
C943 H931 0.929 . S
C943 C937 1.390 . S
C943 C940 1.386 . S
C944 C939 1.490 . S
C944 C946 1.395 . S
C944 C947 1.403 1_655 S
H945 C951 0.930 1_455 S
C946 H932 0.930 . S
C946 C944 1.395 . S
C946 C949 1.403 . S
C947 C944 1.403 1_455 S
C947 C948 1.524 . S
C947 C951 1.400 1_455 S
C948 H933 0.960 . S
C948 H934 0.960 . S
C948 H935 0.960 . S
C948 C947 1.524 . S
C949 C946 1.403 . S
C949 C950 1.392 . S
C949 C953 1.495 . S
C950 C949 1.392 . S
C950 C951 1.385 . S
C950 C952 1.478 . S
C951 H945 0.930 1_655 S
C951 C947 1.400 1_655 S
C951 C950 1.385 . S
C952 C950 1.478 . S
C952 C954 1.381 . S
C952 C958 1.383 . S
C953 C949 1.495 . S
C953 H959 0.959 . S
C953 H960 0.961 . S
C953 H961 0.960 . S
C954 C952 1.381 . S
C954 C955 1.394 . S
C954 H962 0.930 . S
C955 C954 1.394 . S
C955 C956 1.383 . S
C955 H963 0.929 . S
C956 C955 1.383 . S
C956 C957 1.377 . S
C957 H941 0.930 . S
C957 C956 1.377 . S
C957 C958 1.379 . S
C958 H942 0.931 . S
C958 C952 1.383 . S
C958 C957 1.379 . S
H959 C953 0.959 . S
H960 C953 0.961 . S
H961 C953 0.960 . S
H962 C954 0.930 . S
H963 C955 0.929 . S
H964 C972 0.929 . S
H965 C974 0.930 . S
H966 C976 0.930 . S
H967 C979 0.929 . S
H968 C982 0.930 . S
H969 C984 0.960 . S
H970 C984 0.960 . S
H971 C984 0.960 . S
C972 H964 0.929 . S
C972 C973 1.377 1_565 S
C972 C974 1.384 . S
C973 C972 1.377 1_545 S
C973 C979 1.390 . S
C974 H965 0.930 . S
C974 C972 1.384 . S
C974 C975 1.372 . S
C975 C974 1.372 . S
C975 C976 1.400 1_565 S
C975 C980 1.490 . S
C976 H966 0.930 . S
C976 C975 1.400 1_545 S
C976 C979 1.386 . S
H977 C993 0.930 . S
H978 C994 0.931 . S
C979 H967 0.929 . S
C979 C973 1.390 . S
C979 C976 1.386 . S
C980 C975 1.490 . S
C980 C982 1.395 . S
C980 C983 1.403 1_565 S
H981 C987 0.930 1_545 S
C982 H968 0.930 . S
C982 C980 1.395 . S
C982 C985 1.403 . S
C983 C980 1.403 1_545 S
C983 C984 1.524 . S
C983 C987 1.400 1_545 S
C984 H969 0.960 . S
C984 H970 0.960 . S
C984 H971 0.960 . S
C984 C983 1.524 . S
C985 C982 1.403 . S
C985 C986 1.392 . S
C985 C989 1.495 . S
C986 C985 1.392 . S
C986 C987 1.385 . S
C986 C988 1.478 . S
C987 H981 0.930 1_565 S
C987 C983 1.400 1_565 S
C987 C986 1.385 . S
C988 C986 1.478 . S
C988 C990 1.381 . S
C988 C994 1.383 . S
C989 C985 1.495 . S
C989 H995 0.959 . S
C989 H996 0.961 . S
C989 H997 0.960 . S
C990 C988 1.381 . S
C990 C991 1.394 . S
C990 H998 0.930 . S
C991 C990 1.394 . S
C991 C992 1.383 . S
C991 H999 0.929 . S
C992 C991 1.383 . S
C992 C993 1.377 . S
C993 H977 0.930 . S
C993 C992 1.377 . S
C993 C994 1.379 . S
C994 H978 0.931 . S
C994 C988 1.383 . S
C994 C993 1.379 . S
H995 C989 0.959 . S
H996 C989 0.961 . S
H997 C989 0.960 . S
H998 C990 0.930 . S
H999 C991 0.929 . S
H1000 C1008 0.929 . S
H1001 C1010 0.930 . S
H1002 C1012 0.930 . S
H1003 C1015 0.929 . S
H1004 C1018 0.930 . S
H1005 C1020 0.960 . S
H1006 C1020 0.960 . S
H1007 C1020 0.960 . S
C1008 H1000 0.929 . S
C1008 C1009 1.377 . S
C1008 C1010 1.384 . S
C1009 C1008 1.377 . S
C1009 C1015 1.390 . S
C1010 H1001 0.930 . S
C1010 C1008 1.384 . S
C1010 C1011 1.372 . S
C1011 C1010 1.372 . S
C1011 C1012 1.400 . S
C1011 C1016 1.490 . S
C1012 H1002 0.930 . S
C1012 C1011 1.400 . S
C1012 C1015 1.386 . S
H1013 C1029 0.930 . S
H1014 C1030 0.931 . S
C1015 H1003 0.929 . S
C1015 C1009 1.390 . S
C1015 C1012 1.386 . S
C1016 C1011 1.490 . S
C1016 C1018 1.395 . S
C1016 C1019 1.403 . S
H1017 C1023 0.930 . S
C1018 H1004 0.930 . S
C1018 C1016 1.395 . S
C1018 C1021 1.403 . S
C1019 C1016 1.403 . S
C1019 C1020 1.524 . S
C1019 C1023 1.400 . S
C1020 H1005 0.960 . S
C1020 H1006 0.960 . S
C1020 H1007 0.960 . S
C1020 C1019 1.524 . S
C1021 C1018 1.403 . S
C1021 C1022 1.392 . S
C1021 C1025 1.495 . S
C1022 C1021 1.392 . S
C1022 C1023 1.385 . S
C1022 C1024 1.478 . S
C1023 H1017 0.930 . S
C1023 C1019 1.400 . S
C1023 C1022 1.385 . S
C1024 C1022 1.478 . S
C1024 C1026 1.381 . S
C1024 C1030 1.383 . S
C1025 C1021 1.495 . S
C1025 H1031 0.959 . S
C1025 H1032 0.961 . S
C1025 H1033 0.960 . S
C1026 C1024 1.381 . S
C1026 C1027 1.394 . S
C1026 H1034 0.930 . S
C1027 C1026 1.394 . S
C1027 C1028 1.383 . S
C1027 H1035 0.929 . S
C1028 C1027 1.383 . S
C1028 C1029 1.377 . S
C1029 H1013 0.930 . S
C1029 C1028 1.377 . S
C1029 C1030 1.379 . S
C1030 H1014 0.931 . S
C1030 C1024 1.383 . S
C1030 C1029 1.379 . S
H1031 C1025 0.959 . S
H1032 C1025 0.961 . S
H1033 C1025 0.960 . S
H1034 C1026 0.930 . S
H1035 C1027 0.929 . S
H1036 C1044 0.929 . S
H1037 C1046 0.930 . S
H1038 C1048 0.930 . S
H1039 C1051 0.929 . S
H1040 C1054 0.930 . S
H1041 C1056 0.960 . S
H1042 C1056 0.960 . S
H1043 C1056 0.960 . S
C1044 H1036 0.929 . S
C1044 C1045 1.377 . S
C1044 C1046 1.384 . S
C1045 C1044 1.377 . S
C1045 C1051 1.390 . S
C1046 H1037 0.930 . S
C1046 C1044 1.384 . S
C1046 C1047 1.372 . S
C1047 C1046 1.372 . S
C1047 C1048 1.400 . S
C1047 C1052 1.490 . S
C1048 H1038 0.930 . S
C1048 C1047 1.400 . S
C1048 C1051 1.386 . S
H1049 C1065 0.930 . S
H1050 C1066 0.931 . S
C1051 H1039 0.929 . S
C1051 C1045 1.390 . S
C1051 C1048 1.386 . S
C1052 C1047 1.490 . S
C1052 C1054 1.395 . S
C1052 C1055 1.403 . S
H1053 C1059 0.930 . S
C1054 H1040 0.930 . S
C1054 C1052 1.395 . S
C1054 C1057 1.403 . S
C1055 C1052 1.403 . S
C1055 C1056 1.524 . S
C1055 C1059 1.400 . S
C1056 H1041 0.960 . S
C1056 H1042 0.960 . S
C1056 H1043 0.960 . S
C1056 C1055 1.524 . S
C1057 C1054 1.403 . S
C1057 C1058 1.392 . S
C1057 C1061 1.495 . S
C1058 C1057 1.392 . S
C1058 C1059 1.385 . S
C1058 C1060 1.478 . S
C1059 H1053 0.930 . S
C1059 C1055 1.400 . S
C1059 C1058 1.385 . S
C1060 C1058 1.478 . S
C1060 C1062 1.381 . S
C1060 C1066 1.383 . S
C1061 C1057 1.495 . S
C1061 H1067 0.959 . S
C1061 H1068 0.961 . S
C1061 H1069 0.960 . S
C1062 C1060 1.381 . S
C1062 C1063 1.394 . S
C1062 H1070 0.930 . S
C1063 C1062 1.394 . S
C1063 C1064 1.383 . S
C1063 H1071 0.929 . S
C1064 C1063 1.383 . S
C1064 C1065 1.377 . S
C1065 H1049 0.930 . S
C1065 C1064 1.377 . S
C1065 C1066 1.379 . S
C1066 H1050 0.931 . S
C1066 C1060 1.383 . S
C1066 C1065 1.379 . S
H1067 C1061 0.959 . S
H1068 C1061 0.961 . S
H1069 C1061 0.960 . S
H1070 C1062 0.930 . S
H1071 C1063 0.929 . S
H1072 C1080 0.929 . S
H1073 C1082 0.930 . S
H1074 C1084 0.930 . S
H1075 C1087 0.929 . S
H1076 C1090 0.930 . S
H1077 C1092 0.960 . S
H1078 C1092 0.960 . S
H1079 C1092 0.960 . S
C1080 H1072 0.929 . S
C1080 C1081 1.377 1_455 S
C1080 C1082 1.384 . S
C1081 C1080 1.377 1_655 S
C1081 C1087 1.390 . S
C1082 H1073 0.930 . S
C1082 C1080 1.384 . S
C1082 C1083 1.372 . S
C1083 C1082 1.372 . S
C1083 C1084 1.400 1_455 S
C1083 C1088 1.490 . S
C1084 H1074 0.930 . S
C1084 C1083 1.400 1_655 S
C1084 C1087 1.386 . S
H1085 C1101 0.930 . S
H1086 C1102 0.931 . S
C1087 H1075 0.929 . S
C1087 C1081 1.390 . S
C1087 C1084 1.386 . S
C1088 C1083 1.490 . S
C1088 C1090 1.395 1_554 S
C1088 C1091 1.403 1_455 S
H1089 C1095 0.930 1_655 S
C1090 H1076 0.930 . S
C1090 C1088 1.395 1_556 S
C1090 C1093 1.403 . S
C1091 C1088 1.403 1_655 S
C1091 C1092 1.524 . S
C1091 C1095 1.400 1_654 S
C1092 H1077 0.960 . S
C1092 H1078 0.960 . S
C1092 H1079 0.960 . S
C1092 C1091 1.524 . S
C1093 C1090 1.403 . S
C1093 C1094 1.392 . S
C1093 C1097 1.495 . S
C1094 C1093 1.392 . S
C1094 C1095 1.385 . S
C1094 C1096 1.478 . S
C1095 H1089 0.930 1_455 S
C1095 C1091 1.400 1_456 S
C1095 C1094 1.385 . S
C1096 C1094 1.478 . S
C1096 C1098 1.381 . S
C1096 C1102 1.383 . S
C1097 C1093 1.495 . S
C1097 H1103 0.959 . S
C1097 H1104 0.961 . S
C1097 H1105 0.960 . S
C1098 C1096 1.381 . S
C1098 C1099 1.394 . S
C1098 H1106 0.930 . S
C1099 C1098 1.394 . S
C1099 C1100 1.383 . S
C1099 H1107 0.929 . S
C1100 C1099 1.383 . S
C1100 C1101 1.377 . S
C1101 H1085 0.930 . S
C1101 C1100 1.377 . S
C1101 C1102 1.379 . S
C1102 H1086 0.931 . S
C1102 C1096 1.383 . S
C1102 C1101 1.379 . S
H1103 C1097 0.959 . S
H1104 C1097 0.961 . S
H1105 C1097 0.960 . S
H1106 C1098 0.930 . S
H1107 C1099 0.929 . S
H1108 C1116 0.929 . S
H1109 C1118 0.930 . S
H1110 C1120 0.930 . S
H1111 C1123 0.929 . S
H1112 C1126 0.930 . S
H1113 C1128 0.960 . S
H1114 C1128 0.960 . S
H1115 C1128 0.960 . S
C1116 H1108 0.929 . S
C1116 C1117 1.377 1_545 S
C1116 C1118 1.384 . S
C1117 C1116 1.377 1_565 S
C1117 C1123 1.390 . S
C1118 H1109 0.930 . S
C1118 C1116 1.384 . S
C1118 C1119 1.372 . S
C1119 C1118 1.372 . S
C1119 C1120 1.400 1_545 S
C1119 C1124 1.490 . S
C1120 H1110 0.930 . S
C1120 C1119 1.400 1_565 S
C1120 C1123 1.386 . S
H1121 C1137 0.930 . S
H1122 C1138 0.931 1_565 S
C1123 H1111 0.929 . S
C1123 C1117 1.390 . S
C1123 C1120 1.386 . S
C1124 C1119 1.490 . S
C1124 C1126 1.395 1_554 S
C1124 C1127 1.403 . S
H1125 C1131 0.930 . S
C1126 H1112 0.930 . S
C1126 C1124 1.395 1_556 S
C1126 C1129 1.403 . S
C1127 C1124 1.403 . S
C1127 C1128 1.524 . S
C1127 C1131 1.400 . S
C1128 H1113 0.960 . S
C1128 H1114 0.960 . S
C1128 H1115 0.960 . S
C1128 C1127 1.524 . S
C1129 C1126 1.403 . S
C1129 C1130 1.392 . S
C1129 C1133 1.495 . S
C1130 C1129 1.392 . S
C1130 C1131 1.385 1_556 S
C1130 C1132 1.478 . S
C1131 H1125 0.930 . S
C1131 C1127 1.400 . S
C1131 C1130 1.385 1_554 S
C1132 C1130 1.478 . S
C1132 C1134 1.381 . S
C1132 C1138 1.383 . S
C1133 C1129 1.495 . S
C1133 H1139 0.959 . S
C1133 H1140 0.961 1_545 S
C1133 H1141 0.960 . S
C1134 C1132 1.381 . S
C1134 C1135 1.394 . S
C1134 H1142 0.930 . S
C1135 C1134 1.394 . S
C1135 C1136 1.383 . S
C1135 H1143 0.929 . S
C1136 C1135 1.383 . S
C1136 C1137 1.377 . S
C1137 H1121 0.930 . S
C1137 C1136 1.377 . S
C1137 C1138 1.379 . S
C1138 H1122 0.931 1_545 S
C1138 C1132 1.383 . S
C1138 C1137 1.379 . S
H1139 C1133 0.959 . S
H1140 C1133 0.961 1_565 S
H1141 C1133 0.960 . S
H1142 C1134 0.930 . S
H1143 C1135 0.929 . S
H1144 C1152 0.929 . S
H1145 C1154 0.930 . S
H1146 C1156 0.930 1_556 S
H1147 C1159 0.929 . S
H1148 C1162 0.930 . S
H1149 C1164 0.960 . S
H1150 C1164 0.960 . S
H1151 C1164 0.960 . S
C1152 H1144 0.929 . S
C1152 C1153 1.377 . S
C1152 C1154 1.384 . S
C1153 C1152 1.377 . S
C1153 C1159 1.390 . S
C1154 H1145 0.930 . S
C1154 C1152 1.384 . S
C1154 C1155 1.372 . S
C1155 C1154 1.372 . S
C1155 C1156 1.400 . S
C1155 C1160 1.490 . S
C1156 H1146 0.930 1_554 S
C1156 C1155 1.400 . S
C1156 C1159 1.386 . S
H1157 C1173 0.930 . S
H1158 C1174 0.931 . S
C1159 H1147 0.929 . S
C1159 C1153 1.390 . S
C1159 C1156 1.386 . S
C1160 C1155 1.490 . S
C1160 C1162 1.395 . S
C1160 C1163 1.403 1_554 S
H1161 C1167 0.930 . S
C1162 H1148 0.930 . S
C1162 C1160 1.395 . S
C1162 C1165 1.403 . S
C1163 C1160 1.403 1_556 S
C1163 C1164 1.524 . S
C1163 C1167 1.400 . S
C1164 H1149 0.960 . S
C1164 H1150 0.960 . S
C1164 H1151 0.960 . S
C1164 C1163 1.524 . S
C1165 C1162 1.403 . S
C1165 C1166 1.392 1_554 S
C1165 C1169 1.495 . S
C1166 C1165 1.392 1_556 S
C1166 C1167 1.385 . S
C1166 C1168 1.478 . S
C1167 H1161 0.930 . S
C1167 C1163 1.400 . S
C1167 C1166 1.385 . S
C1168 C1166 1.478 . S
C1168 C1170 1.381 . S
C1168 C1174 1.383 . S
C1169 C1165 1.495 . S
C1169 H1175 0.959 . S
C1169 H1176 0.961 . S
C1169 H1177 0.960 . S
C1170 C1168 1.381 . S
C1170 C1171 1.394 . S
C1170 H1178 0.930 . S
C1171 C1170 1.394 . S
C1171 C1172 1.383 . S
C1171 H1179 0.929 . S
C1172 C1171 1.383 . S
C1172 C1173 1.377 . S
C1173 H1157 0.930 . S
C1173 C1172 1.377 . S
C1173 C1174 1.379 . S
C1174 H1158 0.931 . S
C1174 C1168 1.383 . S
C1174 C1173 1.379 . S
H1175 C1169 0.959 . S
H1176 C1169 0.961 . S
H1177 C1169 0.960 . S
H1178 C1170 0.930 . S
H1179 C1171 0.929 . S
H1180 C1188 0.929 . S
H1181 C1190 0.930 . S
H1182 C1192 0.930 1_556 S
H1183 C1195 0.929 . S
H1184 C1198 0.930 . S
H1185 C1200 0.960 . S
H1186 C1200 0.960 . S
H1187 C1200 0.960 . S
C1188 H1180 0.929 . S
C1188 C1189 1.377 . S
C1188 C1190 1.384 . S
C1189 C1188 1.377 . S
C1189 C1195 1.390 . S
C1190 H1181 0.930 . S
C1190 C1188 1.384 . S
C1190 C1191 1.372 . S
C1191 C1190 1.372 . S
C1191 C1192 1.400 . S
C1191 C1196 1.490 . S
C1192 H1182 0.930 1_554 S
C1192 C1191 1.400 . S
C1192 C1195 1.386 . S
H1193 C1209 0.930 . S
H1194 C1210 0.931 . S
C1195 H1183 0.929 . S
C1195 C1189 1.390 . S
C1195 C1192 1.386 . S
C1196 C1191 1.490 . S
C1196 C1198 1.395 . S
C1196 C1199 1.403 1_554 S
H1197 C1203 0.930 . S
C1198 H1184 0.930 . S
C1198 C1196 1.395 . S
C1198 C1201 1.403 . S
C1199 C1196 1.403 1_556 S
C1199 C1200 1.524 . S
C1199 C1203 1.400 . S
C1200 H1185 0.960 . S
C1200 H1186 0.960 . S
C1200 H1187 0.960 . S
C1200 C1199 1.524 . S
C1201 C1198 1.403 . S
C1201 C1202 1.392 1_554 S
C1201 C1205 1.495 . S
C1202 C1201 1.392 1_556 S
C1202 C1203 1.385 . S
C1202 C1204 1.478 . S
C1203 H1197 0.930 . S
C1203 C1199 1.400 . S
C1203 C1202 1.385 . S
C1204 C1202 1.478 . S
C1204 C1206 1.381 . S
C1204 C1210 1.383 . S
C1205 C1201 1.495 . S
C1205 H1211 0.959 . S
C1205 H1212 0.961 . S
C1205 H1213 0.960 . S
C1206 C1204 1.381 . S
C1206 C1207 1.394 . S
C1206 H1214 0.930 . S
C1207 C1206 1.394 . S
C1207 C1208 1.383 . S
C1207 H1215 0.929 . S
C1208 C1207 1.383 . S
C1208 C1209 1.377 . S
C1209 H1193 0.930 . S
C1209 C1208 1.377 . S
C1209 C1210 1.379 . S
C1210 H1194 0.931 . S
C1210 C1204 1.383 . S
C1210 C1209 1.379 . S
H1211 C1205 0.959 . S
H1212 C1205 0.961 . S
H1213 C1205 0.960 . S
H1214 C1206 0.930 . S
H1215 C1207 0.929 . S
H1216 C1224 0.929 . S
H1217 C1226 0.930 . S
H1218 C1228 0.930 . S
H1219 C1231 0.929 . S
H1220 C1234 0.930 . S
H1221 C1236 0.960 . S
H1222 C1236 0.960 . S
H1223 C1236 0.960 . S
C1224 H1216 0.929 . S
C1224 C1225 1.377 . S
C1224 C1226 1.384 . S
C1225 C1224 1.377 . S
C1225 C1231 1.390 1_455 S
C1226 H1217 0.930 . S
C1226 C1224 1.384 . S
C1226 C1227 1.372 . S
C1227 C1226 1.372 . S
C1227 C1228 1.400 1_455 S
C1227 C1232 1.490 . S
C1228 H1218 0.930 . S
C1228 C1227 1.400 1_655 S
C1228 C1231 1.386 . S
H1229 C1245 0.930 . S
H1230 C1246 0.931 . S
C1231 H1219 0.929 . S
C1231 C1225 1.390 1_655 S
C1231 C1228 1.386 . S
C1232 C1227 1.490 . S
C1232 C1234 1.395 . S
C1232 C1235 1.403 1_455 S
H1233 C1239 0.930 . S
C1234 H1220 0.930 . S
C1234 C1232 1.395 . S
C1234 C1237 1.403 . S
C1235 C1232 1.403 1_655 S
C1235 C1236 1.524 . S
C1235 C1239 1.400 . S
C1236 H1221 0.960 . S
C1236 H1222 0.960 . S
C1236 H1223 0.960 . S
C1236 C1235 1.524 . S
C1237 C1234 1.403 . S
C1237 C1238 1.392 . S
C1237 C1241 1.495 . S
C1238 C1237 1.392 . S
C1238 C1239 1.385 1_455 S
C1238 C1240 1.478 . S
C1239 H1233 0.930 . S
C1239 C1235 1.400 . S
C1239 C1238 1.385 1_655 S
C1240 C1238 1.478 . S
C1240 C1242 1.381 . S
C1240 C1246 1.383 1_455 S
C1241 C1237 1.495 . S
C1241 H1247 0.959 . S
C1241 H1248 0.961 . S
C1241 H1249 0.960 . S
C1242 C1240 1.381 . S
C1242 C1243 1.394 . S
C1242 H1250 0.930 . S
C1243 C1242 1.394 . S
C1243 C1244 1.383 . S
C1243 H1251 0.929 . S
C1244 C1243 1.383 . S
C1244 C1245 1.377 1_455 S
C1245 H1229 0.930 . S
C1245 C1244 1.377 1_655 S
C1245 C1246 1.379 . S
C1246 H1230 0.931 . S
C1246 C1240 1.383 1_655 S
C1246 C1245 1.379 . S
H1247 C1241 0.959 . S
H1248 C1241 0.961 . S
H1249 C1241 0.960 . S
H1250 C1242 0.930 . S
H1251 C1243 0.929 . S
H1252 C1260 0.929 . S
H1253 C1262 0.930 . S
H1254 C1264 0.930 . S
H1255 C1267 0.929 . S
H1256 C1270 0.930 . S
H1257 C1272 0.960 . S
H1258 C1272 0.960 . S
H1259 C1272 0.960 . S
C1260 H1252 0.929 . S
C1260 C1261 1.350 1_565 S
C1260 C1262 1.384 . S
C1261 C1260 1.350 1_545 S
C1261 C1267 1.421 . S
C1262 H1253 0.930 . S
C1262 C1260 1.384 . S
C1262 C1263 1.372 1_565 S
C1263 C1262 1.372 1_545 S
C1263 C1264 1.400 . S
C1263 C1268 1.490 . S
C1264 H1254 0.930 . S
C1264 C1263 1.400 . S
C1264 C1267 1.386 . S
H1265 C1281 0.930 . S
H1266 C1282 0.931 . S
C1267 H1255 0.929 . S
C1267 C1261 1.421 . S
C1267 C1264 1.386 . S
C1268 C1263 1.490 . S
C1268 C1270 1.395 . S
C1268 C1271 1.403 1_545 S
H1269 C1275 0.930 . S
C1270 H1256 0.930 . S
C1270 C1268 1.395 . S
C1270 C1273 1.403 . S
C1271 C1268 1.403 1_565 S
C1271 C1272 1.524 . S
C1271 C1275 1.400 . S
C1272 H1257 0.960 . S
C1272 H1258 0.960 . S
C1272 H1259 0.960 . S
C1272 C1271 1.524 . S
C1273 C1270 1.403 . S
C1273 C1274 1.392 . S
C1273 C1277 1.495 . S
C1274 C1273 1.392 . S
C1274 C1275 1.385 1_545 S
C1274 C1276 1.478 . S
C1275 H1269 0.930 . S
C1275 C1271 1.400 . S
C1275 C1274 1.385 1_565 S
C1276 C1274 1.478 . S
C1276 C1278 1.381 1_545 S
C1276 C1282 1.383 . S
C1277 C1273 1.495 . S
C1277 H1283 0.959 . S
C1277 H1284 0.961 . S
C1277 H1285 0.960 . S
C1278 C1276 1.381 1_565 S
C1278 C1279 1.394 . S
C1278 H1286 0.930 . S
C1279 C1278 1.394 . S
C1279 C1280 1.383 1_565 S
C1279 H1287 0.929 . S
C1280 C1279 1.383 1_545 S
C1280 C1281 1.377 . S
C1281 H1265 0.930 . S
C1281 C1280 1.377 . S
C1281 C1282 1.379 . S
C1282 H1266 0.931 . S
C1282 C1276 1.383 . S
C1282 C1281 1.379 . S
H1283 C1277 0.959 . S
H1284 C1277 0.961 . S
H1285 C1277 0.960 . S
H1286 C1278 0.930 . S
H1287 C1279 0.929 . S
H1288 C1296 0.929 . S
H1289 C1298 0.930 . S
H1290 C1300 0.930 . S
H1291 C1303 0.929 . S
H1292 C1306 0.930 . S
H1293 C1308 0.960 . S
H1294 C1308 0.960 . S
H1295 C1308 0.960 . S
C1296 H1288 0.929 . S
C1296 C1297 1.377 . S
C1296 C1298 1.384 . S
C1297 C1296 1.377 . S
C1297 C1303 1.390 . S
C1298 H1289 0.930 . S
C1298 C1296 1.384 . S
C1298 C1299 1.372 . S
C1299 C1298 1.372 . S
C1299 C1300 1.400 . S
C1299 C1304 1.490 . S
C1300 H1290 0.930 . S
C1300 C1299 1.400 . S
C1300 C1303 1.386 . S
H1301 C1317 0.930 . S
H1302 C1318 0.931 . S
C1303 H1291 0.929 . S
C1303 C1297 1.390 . S
C1303 C1300 1.386 . S
C1304 C1299 1.490 . S
C1304 C1306 1.395 . S
C1304 C1307 1.403 . S
H1305 C1311 0.930 . S
C1306 H1292 0.930 . S
C1306 C1304 1.395 . S
C1306 C1309 1.403 . S
C1307 C1304 1.403 . S
C1307 C1308 1.524 . S
C1307 C1311 1.400 . S
C1308 H1293 0.960 . S
C1308 H1294 0.960 . S
C1308 H1295 0.960 . S
C1308 C1307 1.524 . S
C1309 C1306 1.403 . S
C1309 C1310 1.392 . S
C1309 C1313 1.495 . S
C1310 C1309 1.392 . S
C1310 C1311 1.385 . S
C1310 C1312 1.478 . S
C1311 H1305 0.930 . S
C1311 C1307 1.400 . S
C1311 C1310 1.385 . S
C1312 C1310 1.478 . S
C1312 C1314 1.381 . S
C1312 C1318 1.383 . S
C1313 C1309 1.495 . S
C1313 H1319 0.959 . S
C1313 H1320 0.961 . S
C1313 H1321 0.960 . S
C1314 C1312 1.381 . S
C1314 C1315 1.394 . S
C1314 H1322 0.930 . S
C1315 C1314 1.394 . S
C1315 C1316 1.383 . S
C1315 H1323 0.929 . S
C1316 C1315 1.383 . S
C1316 C1317 1.377 . S
C1317 H1301 0.930 . S
C1317 C1316 1.377 . S
C1317 C1318 1.379 . S
C1318 H1302 0.931 . S
C1318 C1312 1.383 . S
C1318 C1317 1.379 . S
H1319 C1313 0.959 . S
H1320 C1313 0.961 . S
H1321 C1313 0.960 . S
H1322 C1314 0.930 . S
H1323 C1315 0.929 . S
H1324 C1332 0.929 . S
H1325 C1334 0.930 . S
H1326 C1336 0.930 . S
H1327 C1339 0.929 . S
H1328 C1342 0.930 . S
H1329 C1344 0.960 . S
H1330 C1344 0.960 . S
H1331 C1344 0.960 . S
C1332 H1324 0.929 . S
C1332 C1333 1.377 . S
C1332 C1334 1.384 . S
C1333 C1332 1.377 . S
C1333 C1339 1.390 . S
C1334 H1325 0.930 . S
C1334 C1332 1.384 . S
C1334 C1335 1.372 . S
C1335 C1334 1.372 . S
C1335 C1336 1.400 . S
C1335 C1340 1.490 . S
C1336 H1326 0.930 . S
C1336 C1335 1.400 . S
C1336 C1339 1.386 . S
H1337 C1353 0.930 . S
H1338 C1354 0.931 . S
C1339 H1327 0.929 . S
C1339 C1333 1.390 . S
C1339 C1336 1.386 . S
C1340 C1335 1.490 . S
C1340 C1342 1.395 . S
C1340 C1343 1.403 . S
H1341 C1347 0.930 . S
C1342 H1328 0.930 . S
C1342 C1340 1.395 . S
C1342 C1345 1.403 . S
C1343 C1340 1.403 . S
C1343 C1344 1.524 . S
C1343 C1347 1.400 . S
C1344 H1329 0.960 . S
C1344 H1330 0.960 . S
C1344 H1331 0.960 . S
C1344 C1343 1.524 . S
C1345 C1342 1.403 . S
C1345 C1346 1.392 . S
C1345 C1349 1.495 . S
C1346 C1345 1.392 . S
C1346 C1347 1.385 . S
C1346 C1348 1.478 . S
C1347 H1341 0.930 . S
C1347 C1343 1.400 . S
C1347 C1346 1.385 . S
C1348 C1346 1.478 . S
C1348 C1350 1.381 . S
C1348 C1354 1.383 . S
C1349 C1345 1.495 . S
C1349 H1355 0.959 . S
C1349 H1356 0.961 . S
C1349 H1357 0.960 . S
C1350 C1348 1.381 . S
C1350 C1351 1.394 . S
C1350 H1358 0.930 . S
C1351 C1350 1.394 . S
C1351 C1352 1.383 . S
C1351 H1359 0.929 . S
C1352 C1351 1.383 . S
C1352 C1353 1.377 . S
C1353 H1337 0.930 . S
C1353 C1352 1.377 . S
C1353 C1354 1.379 . S
C1354 H1338 0.931 . S
C1354 C1348 1.383 . S
C1354 C1353 1.379 . S
H1355 C1349 0.959 . S
H1356 C1349 0.961 . S
H1357 C1349 0.960 . S
H1358 C1350 0.930 . S
H1359 C1351 0.929 . S
H1360 C1368 0.929 . S
H1361 C1370 0.930 . S
H1362 C1372 0.930 . S
H1363 C1375 0.929 . S
H1364 C1378 0.930 . S
H1365 C1380 0.960 . S
H1366 C1380 0.960 . S
H1367 C1380 0.960 . S
C1368 H1360 0.929 . S
C1368 C1369 1.345 1_455 S
C1368 C1370 1.384 . S
C1369 C1368 1.345 1_655 S
C1369 C1375 1.425 . S
C1370 H1361 0.930 . S
C1370 C1368 1.384 . S
C1370 C1371 1.372 1_455 S
C1371 C1370 1.372 1_655 S
C1371 C1372 1.400 . S
C1371 C1376 1.490 . S
C1372 H1362 0.930 . S
C1372 C1371 1.400 . S
C1372 C1375 1.386 . S
H1373 C1389 0.930 . S
H1374 C1390 0.931 . S
C1375 H1363 0.929 . S
C1375 C1369 1.425 . S
C1375 C1372 1.386 . S
C1376 C1371 1.490 . S
C1376 C1378 1.395 . S
C1376 C1379 1.403 1_655 S
H1377 C1383 0.938 . S
C1378 H1364 0.930 . S
C1378 C1376 1.395 . S
C1378 C1381 1.403 . S
C1379 C1376 1.403 1_455 S
C1379 C1380 1.524 . S
C1379 C1383 1.403 . S
C1380 H1365 0.960 . S
C1380 H1366 0.960 . S
C1380 H1367 0.960 . S
C1380 C1379 1.524 . S
C1381 C1378 1.403 . S
C1381 C1382 1.392 . S
C1381 C1385 1.495 . S
C1382 C1381 1.392 . S
C1382 C1383 1.376 1_655 S
C1382 C1384 1.478 . S
C1383 H1377 0.938 . S
C1383 C1379 1.403 . S
C1383 C1382 1.376 1_455 S
C1384 C1382 1.478 . S
C1384 C1386 1.381 1_655 S
C1384 C1390 1.383 . S
C1385 C1381 1.495 . S
C1385 H1391 0.959 . S
C1385 H1392 0.961 . S
C1385 H1393 0.960 . S
C1386 C1384 1.381 1_455 S
C1386 C1387 1.394 . S
C1386 H1394 0.930 . S
C1387 C1386 1.394 . S
C1387 C1388 1.383 1_455 S
C1387 H1395 0.929 . S
C1388 C1387 1.383 1_655 S
C1388 C1389 1.377 . S
C1389 H1373 0.930 . S
C1389 C1388 1.377 . S
C1389 C1390 1.379 . S
C1390 H1374 0.931 . S
C1390 C1384 1.383 . S
C1390 C1389 1.379 . S
H1391 C1385 0.959 . S
H1392 C1385 0.961 . S
H1393 C1385 0.960 . S
H1394 C1386 0.930 . S
H1395 C1387 0.929 . S
H1396 C1404 0.929 . S
H1397 C1406 0.930 . S
H1398 C1408 0.930 . S
H1399 C1411 0.929 . S
H1400 C1414 0.930 . S
H1401 C1416 0.960 . S
H1402 C1416 0.960 . S
H1403 C1416 0.960 1_545 S
C1404 H1396 0.929 . S
C1404 C1405 1.377 . S
C1404 C1406 1.384 . S
C1405 C1404 1.377 . S
C1405 C1411 1.390 1_565 S
C1406 H1397 0.930 . S
C1406 C1404 1.384 . S
C1406 C1407 1.372 . S
C1407 C1406 1.372 . S
C1407 C1408 1.400 1_565 S
C1407 C1412 1.490 . S
C1408 H1398 0.930 . S
C1408 C1407 1.400 1_545 S
C1408 C1411 1.386 . S
H1409 C1425 0.930 . S
H1410 C1426 0.931 . S
C1411 H1399 0.929 . S
C1411 C1405 1.390 1_545 S
C1411 C1408 1.386 . S
C1412 C1407 1.490 . S
C1412 C1414 1.395 . S
C1412 C1415 1.403 . S
H1413 C1419 0.930 . S
C1414 H1400 0.930 . S
C1414 C1412 1.395 . S
C1414 C1417 1.403 . S
C1415 C1412 1.403 . S
C1415 C1416 1.524 . S
C1415 C1419 1.400 . S
C1416 H1401 0.960 . S
C1416 H1402 0.960 . S
C1416 H1403 0.960 1_565 S
C1416 C1415 1.524 . S
C1417 C1414 1.403 . S
C1417 C1418 1.392 . S
C1417 C1421 1.495 . S
C1418 C1417 1.392 . S
C1418 C1419 1.385 . S
C1418 C1420 1.478 . S
C1419 H1413 0.930 . S
C1419 C1415 1.400 . S
C1419 C1418 1.385 . S
C1420 C1418 1.478 . S
C1420 C1422 1.381 . S
C1420 C1426 1.383 1_565 S
C1421 C1417 1.495 . S
C1421 H1427 0.959 . S
C1421 H1428 0.961 1_565 S
C1421 H1429 0.960 . S
C1422 C1420 1.381 . S
C1422 C1423 1.394 . S
C1422 H1430 0.930 . S
C1423 C1422 1.394 . S
C1423 C1424 1.383 . S
C1423 H1431 0.929 . S
C1424 C1423 1.383 . S
C1424 C1425 1.377 1_565 S
C1425 H1409 0.930 . S
C1425 C1424 1.377 1_545 S
C1425 C1426 1.379 . S
C1426 H1410 0.931 . S
C1426 C1420 1.383 1_545 S
C1426 C1425 1.379 . S
H1427 C1421 0.959 . S
H1428 C1421 0.961 1_545 S
H1429 C1421 0.960 . S
H1430 C1422 0.930 . S
H1431 C1423 0.929 . S
H1432 C1440 0.929 . S
H1433 C1442 0.930 . S
H1434 C1444 0.930 . S
H1435 C1447 0.929 . S
H1436 C1450 0.930 . S
H1437 C1452 0.960 . S
H1438 C1452 0.960 . S
H1439 C1452 0.960 . S
C1440 H1432 0.929 . S
C1440 C1441 1.377 . S
C1440 C1442 1.384 . S
C1441 C1440 1.377 . S
C1441 C1447 1.390 . S
C1442 H1433 0.930 . S
C1442 C1440 1.384 . S
C1442 C1443 1.372 . S
C1443 C1442 1.372 . S
C1443 C1444 1.400 . S
C1443 C1448 1.490 . S
C1444 H1434 0.930 . S
C1444 C1443 1.400 . S
C1444 C1447 1.386 . S
H1445 C1461 0.930 . S
H1446 C1462 0.931 . S
C1447 H1435 0.929 . S
C1447 C1441 1.390 . S
C1447 C1444 1.386 . S
C1448 C1443 1.490 . S
C1448 C1450 1.395 . S
C1448 C1451 1.403 . S
H1449 C1455 0.930 . S
C1450 H1436 0.930 . S
C1450 C1448 1.395 . S
C1450 C1453 1.403 . S
C1451 C1448 1.403 . S
C1451 C1452 1.524 . S
C1451 C1455 1.400 . S
C1452 H1437 0.960 . S
C1452 H1438 0.960 . S
C1452 H1439 0.960 . S
C1452 C1451 1.524 . S
C1453 C1450 1.403 . S
C1453 C1454 1.392 . S
C1453 C1457 1.495 . S
C1454 C1453 1.392 . S
C1454 C1455 1.385 . S
C1454 C1456 1.478 . S
C1455 H1449 0.930 . S
C1455 C1451 1.400 . S
C1455 C1454 1.385 . S
C1456 C1454 1.478 . S
C1456 C1458 1.381 . S
C1456 C1462 1.383 . S
C1457 C1453 1.495 . S
C1457 H1463 0.959 . S
C1457 H1464 0.961 . S
C1457 H1465 0.960 . S
C1458 C1456 1.381 . S
C1458 C1459 1.394 . S
C1458 H1466 0.930 . S
C1459 C1458 1.394 . S
C1459 C1460 1.383 . S
C1459 H1467 0.929 . S
C1460 C1459 1.383 . S
C1460 C1461 1.377 . S
C1461 H1445 0.930 . S
C1461 C1460 1.377 . S
C1461 C1462 1.379 . S
C1462 H1446 0.931 . S
C1462 C1456 1.383 . S
C1462 C1461 1.379 . S
H1463 C1457 0.959 . S
H1464 C1457 0.961 . S
H1465 C1457 0.960 . S
H1466 C1458 0.930 . S
H1467 C1459 0.929 . S
H1468 C1476 0.929 . S
H1469 C1478 0.930 . S
H1470 C1480 0.930 . S
H1471 C1483 0.929 . S
H1472 C1486 0.930 . S
H1473 C1488 0.960 . S
H1474 C1488 0.960 . S
H1475 C1488 0.960 . S
C1476 H1468 0.929 . S
C1476 C1477 1.377 . S
C1476 C1478 1.384 . S
C1477 C1476 1.377 . S
C1477 C1483 1.390 . S
C1478 H1469 0.930 . S
C1478 C1476 1.384 . S
C1478 C1479 1.372 . S
C1479 C1478 1.372 . S
C1479 C1480 1.400 . S
C1479 C1484 1.490 . S
C1480 H1470 0.930 . S
C1480 C1479 1.400 . S
C1480 C1483 1.386 . S
H1481 C1497 0.930 . S
H1482 C1498 0.931 . S
C1483 H1471 0.929 . S
C1483 C1477 1.390 . S
C1483 C1480 1.386 . S
C1484 C1479 1.490 . S
C1484 C1486 1.395 . S
C1484 C1487 1.403 . S
H1485 C1491 0.930 . S
C1486 H1472 0.930 . S
C1486 C1484 1.395 . S
C1486 C1489 1.403 . S
C1487 C1484 1.403 . S
C1487 C1488 1.524 . S
C1487 C1491 1.400 . S
C1488 H1473 0.960 . S
C1488 H1474 0.960 . S
C1488 H1475 0.960 . S
C1488 C1487 1.524 . S
C1489 C1486 1.403 . S
C1489 C1490 1.392 . S
C1489 C1493 1.495 . S
C1490 C1489 1.392 . S
C1490 C1491 1.385 . S
C1490 C1492 1.478 . S
C1491 H1485 0.930 . S
C1491 C1487 1.400 . S
C1491 C1490 1.385 . S
C1492 C1490 1.478 . S
C1492 C1494 1.381 . S
C1492 C1498 1.383 . S
C1493 C1489 1.495 . S
C1493 H1499 0.959 . S
C1493 H1500 0.961 . S
C1493 H1501 0.960 . S
C1494 C1492 1.381 . S
C1494 C1495 1.394 . S
C1494 H1502 0.930 . S
C1495 C1494 1.394 . S
C1495 C1496 1.383 . S
C1495 H1503 0.929 . S
C1496 C1495 1.383 . S
C1496 C1497 1.377 . S
C1497 H1481 0.930 . S
C1497 C1496 1.377 . S
C1497 C1498 1.379 . S
C1498 H1482 0.931 . S
C1498 C1492 1.383 . S
C1498 C1497 1.379 . S
H1499 C1493 0.959 . S
H1500 C1493 0.961 . S
H1501 C1493 0.960 . S
H1502 C1494 0.930 . S
H1503 C1495 0.929 . S
C649 C391 1.988 . S
C668 C489 2.021 . S
C704 C529 2.032 . S
C685 C451 1.990 . S
C740 C569 2.043 . S
C721 C241 1.782 . S
C776 C609 2.026 . S
C757 C331 1.782 1_455 S
C812 C498 2.029 . S
C793 C121 1.772 1_545 S
C829 C211 1.997 . S
C848 C538 2.047 . S
C865 C31 1.997 . S
C884 C578 2.034 . S
C901 C91 1.774 . S
C920 C618 2.026 1_655 S
C956 C495 0.330 . S
C937 C301 0.511 1_455 S
C992 C535 0.332 . S
C973 C380 0.110 . S
C1028 C575 0.335 . S
C1009 C440 0.117 . S
C1045 C260 0.492 . S
C1064 C615 0.303 . S
C1081 C61 0.402 . S
C1100 C486 0.328 . S
C1136 C526 0.245 . S
C1117 C140 0.422 . S
C1172 C566 0.298 . S
C1153 C200 0.276 . S
C1189 C20 0.274 . S
C1208 C606 0.296 . S
C1225 C320 2.690 1_455 S
C1244 C499 2.836 . S
C1261 C361 2.311 . S
C1280 C539 2.820 . S
C1316 C579 2.794 . S
C1297 C421 2.287 . S
C1352 C619 2.831 . S
C1333 C271 2.670 . S
C1369 C80 2.681 . S
C1388 C490 2.849 . S
C1424 C530 2.813 . S
C1405 C151 2.654 . S
C1460 C570 2.812 . S
C1441 C181 2.303 . S
C1477 C1 2.325 . S
C1496 C610 2.831 . S
