# Generated by pormake.
# Topology apo, (3,6)-cn, num edge types: 1
# Building blocks:
#     Node 0, Type 0, BuildingBlock: VETTIZ_charged_linker_0, # of connection points: 3
#     Node 1, Type 0, BuildingBlock: VETTIZ_charged_linker_0, # of connection points: 3
#     Node 2, Type 0, BuildingBlock: VETTIZ_charged_linker_0, # of connection points: 3
#     Node 3, Type 0, BuildingBlock: VETTIZ_charged_linker_0, # of connection points: 3
#     Node 4, Type 0, BuildingBlock: VETTIZ_charged_linker_0, # of connection points: 3
#     Node 5, Type 0, BuildingBlock: VETTIZ_charged_linker_0, # of connection points: 3
#     Node 6, Type 0, BuildingBlock: VETTIZ_charged_linker_0, # of connection points: 3
#     Node 7, Type 0, BuildingBlock: VETTIZ_charged_linker_0, # of connection points: 3
#     Node 8, Type 1, BuildingBlock: KUMBUR_clean_sbu_1, # of connection points: 6
#     Node 9, Type 1, BuildingBlock: KUMBUR_clean_sbu_1, # of connection points: 6
#     Node 10, Type 1, BuildingBlock: KUMBUR_clean_sbu_1, # of connection points: 6
#     Node 11, Type 1, BuildingBlock: KUMBUR_clean_sbu_1, # of connection points: 6
#     Edge 12, Type (0, 1), BuildingBlock: OJICUG_clean_linker_0, # of connection points: 2
#     Edge 13, Type (0, 1), BuildingBlock: OJICUG_clean_linker_0, # of connection points: 2
#     Edge 14, Type (0, 1), BuildingBlock: OJICUG_clean_linker_0, # of connection points: 2
#     Edge 15, Type (0, 1), BuildingBlock: OJICUG_clean_linker_0, # of connection points: 2
#     Edge 16, Type (0, 1), BuildingBlock: OJICUG_clean_linker_0, # of connection points: 2
#     Edge 17, Type (0, 1), BuildingBlock: OJICUG_clean_linker_0, # of connection points: 2
#     Edge 18, Type (0, 1), BuildingBlock: OJICUG_clean_linker_0, # of connection points: 2
#     Edge 19, Type (0, 1), BuildingBlock: OJICUG_clean_linker_0, # of connection points: 2
#     Edge 20, Type (0, 1), BuildingBlock: OJICUG_clean_linker_0, # of connection points: 2
#     Edge 21, Type (0, 1), BuildingBlock: OJICUG_clean_linker_0, # of connection points: 2
#     Edge 22, Type (0, 1), BuildingBlock: OJICUG_clean_linker_0, # of connection points: 2
#     Edge 23, Type (0, 1), BuildingBlock: OJICUG_clean_linker_0, # of connection points: 2
#     Edge 24, Type (0, 1), BuildingBlock: OJICUG_clean_linker_0, # of connection points: 2
#     Edge 25, Type (0, 1), BuildingBlock: OJICUG_clean_linker_0, # of connection points: 2
#     Edge 26, Type (0, 1), BuildingBlock: OJICUG_clean_linker_0, # of connection points: 2
#     Edge 27, Type (0, 1), BuildingBlock: OJICUG_clean_linker_0, # of connection points: 2
#     Edge 28, Type (0, 1), BuildingBlock: OJICUG_clean_linker_0, # of connection points: 2
#     Edge 29, Type (0, 1), BuildingBlock: OJICUG_clean_linker_0, # of connection points: 2
#     Edge 30, Type (0, 1), BuildingBlock: OJICUG_clean_linker_0, # of connection points: 2
#     Edge 31, Type (0, 1), BuildingBlock: OJICUG_clean_linker_0, # of connection points: 2
#     Edge 32, Type (0, 1), BuildingBlock: OJICUG_clean_linker_0, # of connection points: 2
#     Edge 33, Type (0, 1), BuildingBlock: OJICUG_clean_linker_0, # of connection points: 2
#     Edge 34, Type (0, 1), BuildingBlock: OJICUG_clean_linker_0, # of connection points: 2
#     Edge 35, Type (0, 1), BuildingBlock: OJICUG_clean_linker_0, # of connection points: 2
# Relax obj value: 0.009
# Max RMSD: 0.111
# Mean RMSD: 0.086
data_MOF--net-apo--node1-KUMBUR_clean_sbu_1--node2-VETTIZ_charged_linker_0--edge1-OJICUG_clean_linker_0
_symmetry_space_group_name_H-M    P1
_symmetry_Int_Tables_number       1
_symmetry_cell_setting            triclinic
loop_
_symmetry_equiv_pos_as_xyz
'x, y, z'
_cell_length_a     22.667065
_cell_length_b     40.363419
_cell_length_c     50.908724
_cell_angle_alpha  90.07018
_cell_angle_beta   89.886685
_cell_angle_gamma 91.01558
loop_
_atom_site_label
_atom_site_type_symbol
_atom_site_fract_x
_atom_site_fract_y
_atom_site_fract_z
_atom_type_partial_charge
C0 C 0.29803 0.35489 0.5014 0.0
C1 C 0.32934 0.3778 0.51726 0.0
C2 C 0.35565 0.40587 0.50515 0.0
C3 C 0.31722 0.38858 0.46274 0.0
C4 C 0.29293 0.36061 0.47439 0.0
C5 C 0.26193 0.33834 0.45489 0.0
H6 H 0.16376 0.31249 0.33079 0.0
C7 C 0.30172 0.38774 0.43453 0.0
C8 C 0.26939 0.35828 0.42983 0.0
H9 H 0.15386 0.24482 0.39629 0.0
H10 H 0.2041 0.28515 0.42408 0.0
H11 H 0.13646 0.37988 0.36281 0.0
H12 H 0.29573 0.33153 0.33982 0.0
H13 H 0.31046 0.37408 0.33662 0.0
H14 H 0.25285 0.35496 0.3171 0.0
H15 H 0.16302 0.37963 0.32959 0.0
H16 H 0.18613 0.41124 0.35268 0.0
C17 C 0.19632 0.33483 0.46309 0.0
C18 C 0.29506 0.30507 0.45362 0.0
C19 C 0.36607 0.48201 0.3738 0.0
C20 C 0.35691 0.48773 0.34685 0.0
C21 C 0.32019 0.46568 0.33259 0.0
C22 C 0.29482 0.43776 0.34461 0.0
C23 C 0.30612 0.43164 0.37125 0.0
C24 C 0.34031 0.45384 0.38556 0.0
C25 C 0.34649 0.4433 0.4138 0.0
C26 C 0.31185 0.41068 0.41376 0.0
C27 C 0.28855 0.40407 0.38874 0.0
C28 C 0.31701 0.46976 0.43127 0.0
C29 C 0.41278 0.43822 0.41957 0.0
C30 C 0.17193 0.30664 0.35122 0.0
C31 C 0.15451 0.27583 0.36161 0.0
C32 C 0.16697 0.26856 0.38804 0.0
C33 C 0.19613 0.29195 0.40405 0.0
C34 C 0.21378 0.32268 0.39335 0.0
C35 C 0.20209 0.3294 0.36727 0.0
C36 C 0.22764 0.36222 0.35868 0.0
C37 C 0.25621 0.37427 0.38395 0.0
C38 C 0.24731 0.35129 0.40428 0.0
C39 C 0.17602 0.38453 0.35028 0.0
C40 C 0.27382 0.35569 0.3368 0.0
H41 H 0.37043 0.43329 0.47016 0.0
H42 H 0.27667 0.33318 0.50982 0.0
H43 H 0.34234 0.30837 0.45904 0.0
H44 H 0.29607 0.29452 0.43356 0.0
H45 H 0.2753 0.28651 0.46728 0.0
H46 H 0.17852 0.35936 0.46872 0.0
H47 H 0.19112 0.31802 0.48023 0.0
H48 H 0.16768 0.32553 0.44712 0.0
H49 H 0.39406 0.4985 0.38529 0.0
H50 H 0.31132 0.46994 0.31198 0.0
H51 H 0.26793 0.42183 0.33255 0.0
H52 H 0.27655 0.47926 0.42173 0.0
H53 H 0.34738 0.49122 0.4347 0.0
H54 H 0.30183 0.45992 0.45037 0.0
H55 H 0.43539 0.42737 0.40224 0.0
H56 H 0.42032 0.42056 0.43571 0.0
H57 H 0.43539 0.46213 0.42428 0.0
H58 H 0.38121 0.42362 0.51656 0.0
C59 C 0.34961 0.41141 0.47809 0.0
C60 C 0.32763 0.19924 0.85325 0.0
C61 C 0.35371 0.22741 0.86476 0.0
C62 C 0.35347 0.23079 0.89227 0.0
C63 C 0.29871 0.1787 0.89633 0.0
C64 C 0.301 0.17517 0.86933 0.0
C65 C 0.27262 0.14337 0.8601 0.0
H66 H 0.11359 0.00422 0.88594 0.0
C67 C 0.26561 0.1497 0.90706 0.0
C68 C 0.25071 0.12888 0.8859 0.0
H69 H 0.18995 0.03676 0.81211 0.0
H70 H 0.23151 0.08479 0.83313 0.0
H71 H 0.23282 0.02281 0.92102 0.0
H72 H 0.07248 0.07546 0.90583 0.0
H73 H 0.09106 0.08151 0.93901 0.0
H74 H 0.07399 0.04023 0.92729 0.0
H75 H 0.16227 0.00929 0.93352 0.0
H76 H 0.20696 0.03952 0.95076 0.0
C77 C 0.32102 0.12186 0.84726 0.0
C78 C 0.221 0.15215 0.84159 0.0
C79 C 0.21976 0.14306 1.00477 0.0
C80 C 0.18621 0.12078 0.02032 0.0
C81 C 0.15846 0.09338 1.00785 0.0
C82 C 0.16439 0.08819 0.98068 0.0
C83 C 0.19812 0.1107 0.96556 0.0
C84 C 0.2246 0.13776 0.97765 0.0
C85 C 0.25697 0.15985 0.95843 0.0
C86 C 0.24638 0.14134 0.93286 0.0
C87 C 0.21213 0.11239 0.93713 0.0
C88 C 0.32315 0.16093 0.96594 0.0
C89 C 0.2271 0.19407 0.95861 0.0
C90 C 0.13973 0.02156 0.87437 0.0
C91 C 0.14741 0.0168 0.84712 0.0
C92 C 0.18178 0.04011 0.83291 0.0
C93 C 0.20651 0.06798 0.84523 0.0
C94 C 0.19752 0.07279 0.87223 0.0
C95 C 0.16535 0.04963 0.88649 0.0
C96 C 0.16213 0.05876 0.91521 0.0
C97 C 0.19783 0.09108 0.91568 0.0
C98 C 0.21773 0.0992 0.89033 0.0
C99 C 0.19219 0.03119 0.93118 0.0
C100 C 0.0966 0.0641 0.92247 0.0
H101 H 0.32652 0.21059 0.92901 0.0
H102 H 0.32812 0.196 0.83212 0.0
H103 H 0.19598 0.17341 0.84956 0.0
H104 H 0.18813 0.13187 0.83937 0.0
H105 H 0.23761 0.15926 0.8218 0.0
H106 H 0.36586 0.12878 0.85451 0.0
H107 H 0.3215 0.12472 0.82557 0.0
H108 H 0.31583 0.09526 0.85221 0.0
H109 H 0.24257 0.16414 0.01347 0.0
H110 H 0.13146 0.07604 0.01902 0.0
H111 H 0.14218 0.06691 0.97246 0.0
H112 H 0.33733 0.13645 0.97345 0.0
H113 H 0.33201 0.17961 0.98155 0.0
H114 H 0.35235 0.16617 0.949 0.0
H115 H 0.17834 0.19113 0.96033 0.0
H116 H 0.23433 0.20818 0.94032 0.0
H117 H 0.24261 0.20934 0.97549 0.0
H118 H 0.37372 0.25241 0.90139 0.0
C119 C 0.32589 0.20659 0.90816 0.0
C120 C 0.79833 0.14581 0.52687 0.0
C121 C 0.82467 0.12105 0.5115 0.0
C122 C 0.84984 0.0937 0.52421 0.0
C123 C 0.8199 0.11504 0.56665 0.0
C124 C 0.79618 0.14224 0.5543 0.0
C125 C 0.76699 0.16525 0.57351 0.0
H126 H 0.70134 0.20161 0.70035 0.0
C127 C 0.80807 0.11789 0.59515 0.0
C128 C 0.77708 0.14737 0.59934 0.0
H129 H 0.65136 0.2566 0.63113 0.0
H130 H 0.7015 0.21711 0.60369 0.0
H131 H 0.6593 0.13595 0.67834 0.0
H132 H 0.83159 0.18096 0.68272 0.0
H133 H 0.83844 0.13929 0.69219 0.0
H134 H 0.79048 0.16585 0.71055 0.0
H135 H 0.70417 0.13175 0.70702 0.0
H136 H 0.70696 0.10233 0.68026 0.0
C137 C 0.70059 0.16694 0.56663 0.0
C138 C 0.79997 0.19909 0.57252 0.0
C139 C 0.87373 0.02752 0.65828 0.0
C140 C 0.86531 0.02287 0.68554 0.0
C141 C 0.83441 0.04707 0.69977 0.0
C142 C 0.81353 0.0754 0.68746 0.0
C143 C 0.82228 0.07967 0.66038 0.0
C144 C 0.85135 0.05586 0.64613 0.0
C145 C 0.85367 0.06412 0.61724 0.0
C146 C 0.82142 0.0969 0.61671 0.0
C147 C 0.80387 0.10583 0.64211 0.0
C148 C 0.81968 0.03648 0.6021 0.0
C149 C 0.91922 0.06842 0.60914 0.0
C150 C 0.70015 0.20527 0.6793 0.0
C151 C 0.67187 0.23259 0.66819 0.0
C152 C 0.67338 0.23623 0.64054 0.0
C153 C 0.7021 0.21304 0.62452 0.0
C154 C 0.72897 0.18555 0.63613 0.0
C155 C 0.72695 0.18203 0.6631 0.0
C156 C 0.75351 0.15039 0.67227 0.0
C157 C 0.77387 0.13582 0.64646 0.0
C158 C 0.75999 0.15647 0.62525 0.0
C159 C 0.70388 0.12894 0.68531 0.0
C160 C 0.80611 0.1593 0.69054 0.0
H161 H 0.86747 0.06914 0.56003 0.0
H162 H 0.77795 0.16691 0.51767 0.0
H163 H 0.84853 0.19554 0.5721 0.0
H164 H 0.79155 0.21465 0.5899 0.0
H165 H 0.78783 0.21311 0.55462 0.0
H166 H 0.68369 0.14256 0.55937 0.0
H167 H 0.69277 0.18557 0.55103 0.0
H168 H 0.67275 0.17262 0.58382 0.0
H169 H 0.89738 0.00968 0.64659 0.0
H170 H 0.8254 0.044 0.72052 0.0
H171 H 0.79105 0.0928 0.69962 0.0
H172 H 0.78164 0.02683 0.61383 0.0
H173 H 0.84867 0.01527 0.5977 0.0
H174 H 0.7999 0.0453 0.58364 0.0
H175 H 0.94479 0.08135 0.62485 0.0
H176 H 0.92538 0.08395 0.59148 0.0
H177 H 0.93981 0.04402 0.60571 0.0
H178 H 0.87087 0.07449 0.51286 0.0
C179 C 0.84782 0.09064 0.55162 0.0
C180 C 0.83869 0.3076 0.17492 0.0
C181 C 0.84581 0.27452 0.16696 0.0
C182 C 0.825 0.26497 0.14184 0.0
C183 C 0.78919 0.32043 0.13403 0.0
C184 C 0.80934 0.32963 0.15859 0.0
C185 C 0.79214 0.36413 0.16591 0.0
H186 H 0.62448 0.49643 0.14335 0.0
C187 C 0.75806 0.34904 0.1227 0.0
C188 C 0.75876 0.37438 0.14155 0.0
H189 H 0.73467 0.47563 0.21061 0.0
H190 H 0.77116 0.42745 0.18912 0.0
H191 H 0.7317 0.48082 0.10217 0.0
H192 H 0.5819 0.42159 0.12751 0.0
H193 H 0.58763 0.42137 0.09278 0.0
H194 H 0.57608 0.45979 0.10964 0.0
H195 H 0.65987 0.48615 0.08825 0.0
H196 H 0.71009 0.4557 0.07558 0.0
C197 C 0.84938 0.38522 0.16966 0.0
C198 C 0.75173 0.36181 0.19058 0.0
C199 C 0.6826 0.34427 0.02896 0.0
C200 C 0.65422 0.36717 1.01265 0.0
C201 C 0.63857 0.3981 0.02328 0.0
C202 C 0.65103 0.40601 0.04965 0.0
C203 C 0.68002 0.3829 0.06553 0.0
C204 C 0.69529 0.35262 0.05505 0.0
C205 C 0.72678 0.33123 0.07452 0.0
C206 C 0.73026 0.35417 0.09808 0.0
C207 C 0.702 0.38426 0.09292 0.0
C208 C 0.78869 0.32353 0.06343 0.0
C209 C 0.68773 0.30008 0.08007 0.0
C210 C 0.65679 0.48166 0.1534 0.0
C211 C 0.67469 0.48936 0.17932 0.0
C212 C 0.71783 0.46966 0.19125 0.0
C213 C 0.73952 0.44171 0.17862 0.0
C214 C 0.71851 0.4332 0.15357 0.0
C215 C 0.67976 0.45366 0.14083 0.0
C216 C 0.66677 0.44168 0.11325 0.0
C217 C 0.7001 0.40924 0.11267 0.0
C218 C 0.72965 0.40448 0.13652 0.0
C219 C 0.69295 0.46737 0.09365 0.0
C220 C 0.59949 0.43587 0.11044 0.0
H221 H 0.78213 0.27894 0.10655 0.0
H222 H 0.85466 0.31636 0.19375 0.0
H223 H 0.7262 0.338 0.19098 0.0
H224 H 0.71756 0.38094 0.19113 0.0
H225 H 0.77797 0.36324 0.20896 0.0
H226 H 0.88457 0.37717 0.1559 0.0
H227 H 0.86675 0.38285 0.18994 0.0
H228 H 0.84332 0.41173 0.16514 0.0
H229 H 0.69614 0.32049 0.02138 0.0
H230 H 0.61638 0.41611 1.01123 0.0
H231 H 0.6377 0.4298 0.05671 0.0
H232 H 0.80988 0.34634 0.05521 0.0
H233 H 0.78571 0.30483 0.04744 0.0
H234 H 0.81931 0.31445 0.07849 0.0
H235 H 0.64011 0.30526 0.07719 0.0
H236 H 0.69081 0.29165 0.10067 0.0
H237 H 0.69919 0.27934 0.06674 0.0
H238 H 0.82867 0.23965 0.13511 0.0
C239 C 0.79722 0.28777 0.12531 0.0
C240 C 0.67546 0.52971 0.67377 0.0
C241 C 0.63936 0.50412 0.66371 0.0
C242 C 0.62283 0.50497 0.63703 0.0
C243 C 0.67832 0.55647 0.63102 0.0
C244 C 0.69373 0.55565 0.65726 0.0
C245 C 0.72901 0.58571 0.66547 0.0
H246 H 0.84838 0.73611 0.63741 0.0
C247 C 0.70381 0.58733 0.61956 0.0
C248 C 0.73293 0.60466 0.63979 0.0
H249 H 0.84784 0.68336 0.71118 0.0
H250 H 0.79664 0.63715 0.69112 0.0
H251 H 0.88537 0.67254 0.60369 0.0
H252 H 0.71337 0.71357 0.61698 0.0
H253 H 0.72359 0.70571 0.58311 0.0
H254 H 0.77147 0.73504 0.59954 0.0
H255 H 0.8615 0.70865 0.58647 0.0
H256 H 0.84457 0.66735 0.57469 0.0
C257 C 0.79042 0.57413 0.67478 0.0
C258 C 0.6929 0.60447 0.68655 0.0
C259 C 0.68616 0.60905 0.5215 0.0
C260 C 0.70943 0.63388 0.50488 0.0
C261 C 0.74022 0.661 0.51622 0.0
C262 C 0.74854 0.66308 0.54354 0.0
C263 C 0.72665 0.63752 0.55981 0.0
C264 C 0.69576 0.61117 0.54869 0.0
C265 C 0.67754 0.58563 0.56879 0.0
C266 C 0.70375 0.60052 0.59366 0.0
C267 C 0.73202 0.63115 0.58841 0.0
C268 C 0.70663 0.55243 0.56144 0.0
C269 C 0.60923 0.584 0.56986 0.0
C270 C 0.83662 0.71457 0.64909 0.0
C271 C 0.85143 0.71326 0.67593 0.0
C272 C 0.83673 0.68474 0.69051 0.0
C273 C 0.80686 0.65799 0.67881 0.0
C274 C 0.79177 0.65953 0.65207 0.0
C275 C 0.80736 0.68721 0.63749 0.0
C276 C 0.79072 0.68309 0.60891 0.0
C277 C 0.76011 0.64915 0.60918 0.0
C278 C 0.76084 0.63572 0.6346 0.0
C279 C 0.84821 0.68311 0.59239 0.0
C280 C 0.7477 0.71086 0.60152 0.0
H281 H 0.62845 0.53014 0.60047 0.0
H282 H 0.68777 0.53011 0.69433 0.0
H283 H 0.64468 0.60181 0.68283 0.0
H284 H 0.70143 0.63148 0.68646 0.0
H285 H 0.70147 0.59468 0.70654 0.0
H286 H 0.80482 0.55209 0.66345 0.0
H287 H 0.78956 0.56717 0.69588 0.0
H288 H 0.82573 0.59292 0.6715 0.0
H289 H 0.66309 0.58765 0.51341 0.0
H290 H 0.7583 0.68053 0.50387 0.0
H291 H 0.77242 0.68428 0.55094 0.0
H292 H 0.75286 0.55676 0.55471 0.0
H293 H 0.68222 0.53979 0.54528 0.0
H294 H 0.70984 0.53521 0.57815 0.0
H295 H 0.59015 0.60869 0.56584 0.0
H296 H 0.59212 0.57709 0.58948 0.0
H297 H 0.59117 0.56638 0.55502 0.0
H298 H 0.59491 0.48549 0.62889 0.0
C299 C 0.64236 0.5309 0.6206 0.0
C300 C 0.67764 0.80486 0.17314 0.0
C301 C 0.6616 0.77368 0.16305 0.0
C302 C 0.673 0.76651 0.13645 0.0
C303 C 0.71414 0.82197 0.13026 0.0
C304 C 0.70437 0.82831 0.15659 0.0
C305 C 0.72689 0.86189 0.16481 0.0
H306 H 0.87655 0.00333 0.13641 0.0
C307 C 0.7426 0.85192 0.11866 0.0
C308 C 0.75089 0.87509 0.13898 0.0
H309 H 0.80149 0.97227 0.21063 0.0
H310 H 0.76104 0.92288 0.19047 0.0
H311 H 0.91913 0.9299 0.11456 0.0
H312 H 0.76257 0.98698 0.1045 0.0
H313 H 0.76817 0.96261 0.07606 0.0
H314 H 0.82541 0.99289 0.08351 0.0
H315 H 0.91645 0.96914 0.098 0.0
H316 H 0.90012 0.93111 0.08088 0.0
C317 C 0.77635 0.85692 0.1854 0.0
C318 C 0.67377 0.88219 0.17473 0.0
C319 C 0.77651 0.86019 0.01989 0.0
C320 C 0.79782 0.88597 1.00354 0.0
C321 C 0.81951 0.91538 0.01545 0.0
C322 C 0.8193 0.91923 0.04282 0.0
C323 C 0.79658 0.89363 0.05872 0.0
C324 C 0.77585 0.86464 0.04726 0.0
C325 C 0.75204 0.84044 0.06735 0.0
C326 C 0.75978 0.86026 0.09256 0.0
C327 C 0.78664 0.89126 0.08738 0.0
C328 C 0.7911 0.80935 0.067 0.0
C329 C 0.68625 0.83327 0.06113 0.0
C330 C 0.85154 0.98565 0.14815 0.0
C331 C 0.84255 0.9912 0.17513 0.0
C332 C 0.80881 0.96828 0.18983 0.0
C333 C 0.78567 0.93957 0.17809 0.0
C334 C 0.7959 0.93381 0.15125 0.0
C335 C 0.82706 0.95698 0.13654 0.0
C336 C 0.82924 0.9476 0.10787 0.0
C337 C 0.79735 0.91408 0.10823 0.0
C338 C 0.77861 0.90615 0.13375 0.0
C339 C 0.89463 0.94437 0.09967 0.0
C340 C 0.79502 0.97384 0.092 0.0
H341 H 0.70608 0.78393 0.09977 0.0
H342 H 0.67035 0.81069 0.19367 0.0
H343 H 0.63272 0.87524 0.16394 0.0
H344 H 0.67947 0.90909 0.1713 0.0
H345 H 0.6654 0.87779 0.19596 0.0
H346 H 0.80183 0.83424 0.18103 0.0
H347 H 0.75768 0.85413 0.20548 0.0
H348 H 0.80977 0.87714 0.18549 0.0
H349 H 0.76038 0.83703 1.01164 0.0
H350 H 0.83536 0.93594 1.0036 0.0
H351 H 0.83619 0.94222 0.05055 0.0
H352 H 0.8377 0.81603 0.06216 0.0
H353 H 0.77534 0.79113 0.0521 0.0
H354 H 0.79328 0.79709 0.08636 0.0
H355 H 0.66331 0.85664 0.05636 0.0
H356 H 0.66172 0.82231 0.07779 0.0
H357 H 0.68161 0.8164 0.04396 0.0
H358 H 0.66104 0.74246 0.12842 0.0
C359 C 0.69894 0.7906 0.11993 0.0
C360 C 0.1666 0.96699 0.35173 0.0
C361 C 0.13083 0.99175 0.36233 0.0
C362 C 0.11491 0.98967 0.38916 0.0
C363 C 0.16689 0.93778 0.39341 0.0
C364 C 0.18294 0.94025 0.36728 0.0
C365 C 0.21547 0.91059 0.35769 0.0
H366 H 0.33844 0.76315 0.38135 0.0
C367 C 0.1893 0.90591 0.40348 0.0
C368 C 0.2174 0.88996 0.38247 0.0
H369 H 0.32048 0.81463 0.30714 0.0
H370 H 0.27196 0.85888 0.32885 0.0
H371 H 0.3634 0.82866 0.41918 0.0
H372 H 0.20879 0.77223 0.39709 0.0
H373 H 0.19467 0.78686 0.42888 0.0
H374 H 0.25536 0.75924 0.42342 0.0
H375 H 0.3491 0.7865 0.42888 0.0
H376 H 0.32098 0.82063 0.44763 0.0
C377 C 0.2779 0.92232 0.34889 0.0
C378 C 0.17798 0.89355 0.3358 0.0
C379 C 0.15589 0.87127 0.49884 0.0
C380 C 0.16894 0.84208 0.51257 0.0
C381 C 0.19981 0.81682 0.49972 0.0
C382 C 0.2175 0.8204 0.47351 0.0
C383 C 0.2034 0.84937 0.45979 0.0
C384 C 0.17297 0.87423 0.47238 0.0
C385 C 0.15925 0.90242 0.45406 0.0
C386 C 0.18691 0.89043 0.42859 0.0
C387 C 0.21298 0.85939 0.4322 0.0
C388 C 0.19033 0.93416 0.46452 0.0
C389 C 0.09135 0.90501 0.45187 0.0
C390 C 0.32371 0.78373 0.36961 0.0
C391 C 0.33494 0.78524 0.34233 0.0
C392 C 0.31473 0.81289 0.3282 0.0
C393 C 0.28547 0.83859 0.34083 0.0
C394 C 0.27461 0.83662 0.36792 0.0
C395 C 0.29287 0.80936 0.38183 0.0
C396 C 0.27352 0.81061 0.41015 0.0
C397 C 0.24157 0.84344 0.41089 0.0
C398 C 0.24317 0.8586 0.38617 0.0
C399 C 0.32942 0.81145 0.42757 0.0
C400 C 0.2312 0.78067 0.4154 0.0
H401 H 0.11909 0.96258 0.42493 0.0
H402 H 0.18093 0.96785 0.33144 0.0
H403 H 0.13046 0.89974 0.33744 0.0
H404 H 0.17842 0.86618 0.33706 0.0
H405 H 0.19311 0.90135 0.31594 0.0
H406 H 0.29644 0.9409 0.36292 0.0
H407 H 0.2765 0.93411 0.3292 0.0
H408 H 0.31017 0.90218 0.34839 0.0
H409 H 0.13157 0.89086 0.50828 0.0
H410 H 0.21036 0.79425 0.51008 0.0
H411 H 0.241 0.8003 0.46487 0.0
H412 H 0.23615 0.92875 0.47081 0.0
H413 H 0.16643 0.94423 0.48177 0.0
H414 H 0.19464 0.95377 0.44954 0.0
H415 H 0.06976 0.88006 0.45284 0.0
H416 H 0.07706 0.91539 0.43292 0.0
H417 H 0.0732 0.92016 0.46812 0.0
H418 H 0.08697 0.00813 0.39796 0.0
C419 C 0.13307 0.96296 0.40477 0.0
C420 C 0.19479 0.69661 0.84715 0.0
C421 C 0.19059 0.73025 0.85418 0.0
C422 C 0.21424 0.74055 0.87863 0.0
C423 C 0.24277 0.68437 0.88857 0.0
C424 C 0.22175 0.67445 0.86432 0.0
C425 C 0.23391 0.63866 0.85873 0.0
H426 H 0.38578 0.50253 0.88892 0.0
C427 C 0.26837 0.65522 0.90157 0.0
C428 C 0.26395 0.62846 0.88405 0.0
H429 H 0.2805 0.52166 0.81991 0.0
H430 H 0.24416 0.57127 0.83968 0.0
H431 H 0.43237 0.57656 0.90336 0.0
H432 H 0.2786 0.52091 0.92802 0.0
H433 H 0.29247 0.55011 0.95301 0.0
H434 H 0.34648 0.51894 0.94584 0.0
H435 H 0.433 0.53868 0.92193 0.0
H436 H 0.42436 0.57777 0.93805 0.0
C437 C 0.27617 0.63762 0.83475 0.0
C438 C 0.17419 0.62001 0.85472 0.0
C439 C 0.34196 0.66393 0.99561 0.0
C440 C 0.36372 0.64047 1.01334 0.0
C441 C 0.37221 0.60771 1.00468 0.0
C442 C 0.35946 0.59849 0.97867 0.0
C443 C 0.3372 0.62215 0.96124 0.0
C444 C 0.32819 0.65416 0.96989 0.0
C445 C 0.30118 0.67548 0.94906 0.0
C446 C 0.29391 0.65075 0.92676 0.0
C447 C 0.31622 0.61973 0.93381 0.0
C448 C 0.34571 0.70375 0.94211 0.0
C449 C 0.24091 0.68755 0.95933 0.0
C450 C 0.35459 0.5173 0.87818 0.0
C451 C 0.33842 0.50897 0.85222 0.0
C452 C 0.29606 0.52831 0.83936 0.0
C453 C 0.27487 0.55715 0.85086 0.0
C454 C 0.29592 0.56693 0.87559 0.0
C455 C 0.33232 0.54629 0.88956 0.0
C456 C 0.34474 0.55962 0.91676 0.0
C457 C 0.31514 0.59318 0.91542 0.0
C458 C 0.28745 0.59733 0.89105 0.0
C459 C 0.41224 0.56332 0.9204 0.0
C460 C 0.31446 0.53624 0.93707 0.0
H461 H 0.2563 0.72726 0.91417 0.0
H462 H 0.17717 0.68738 0.82876 0.0
H463 H 0.13836 0.63165 0.8663 0.0
H464 H 0.17511 0.59411 0.8618 0.0
H465 H 0.1607 0.62016 0.83376 0.0
H466 H 0.30986 0.65797 0.83589 0.0
H467 H 0.25153 0.6407 0.81609 0.0
H468 H 0.30192 0.61481 0.83349 0.0
H469 H 0.33427 0.68915 1.00188 0.0
H470 H 0.38905 0.5893 0.01805 0.0
H471 H 0.36728 0.57331 0.97309 0.0
H472 H 0.39197 0.69629 0.94584 0.0
H473 H 0.33749 0.72631 0.95399 0.0
H474 H 0.34495 0.71027 0.92101 0.0
H475 H 0.21593 0.66685 0.96888 0.0
H476 H 0.21197 0.69663 0.94362 0.0
H477 H 0.24699 0.70758 0.97412 0.0
H478 H 0.21374 0.76631 0.8845 0.0
C479 C 0.23966 0.71783 0.89587 0.0
Tb480 Tb 0.06743 0.13335 0.24263 0.0
C481 C 0.79858 0.11422 0.27375 0.0
N482 N 0.83041 0.14303 0.27449 0.0
C483 C 0.74842 0.17228 0.25673 0.0
C484 C 0.74034 0.11324 0.2641 0.0
C485 C 0.80601 0.17198 0.26652 0.0
C486 C 0.71549 0.14275 0.25539 0.0
C487 C 0.79317 0.05522 0.28245 0.0
C488 C 0.82479 0.08561 0.2827 0.0
C489 C 0.73528 0.054 0.27264 0.0
C490 C 0.70893 0.08293 0.26348 0.0
Tb491 Tb 0.92407 0.13958 0.29043 0.0
N492 N 0.88148 0.08765 0.29146 0.0
C493 C 0.82051 0.02707 0.29231 0.0
C494 C 0.90659 0.06069 0.30274 0.0
C495 C 0.87715 0.02994 0.30284 0.0
H496 H 0.83032 0.19499 0.26844 0.0
H497 H 0.89781 0.00859 0.31148 0.0
H498 H 0.15421 0.07464 0.26531 0.0
H499 H 0.10254 0.26499 0.22755 0.0
H500 H 0.94822 0.0627 0.31255 0.0
H501 H 0.79774 0.00324 0.2925 0.0
H502 H 0.04798 0.21209 0.22425 0.0
H503 H 0.72931 0.19533 0.25044 0.0
H504 H 0.71039 0.03084 0.2722 0.0
H505 H 0.66417 0.08163 0.25608 0.0
H506 H 0.2536 0.07137 0.28483 0.0
H507 H 0.67083 0.14306 0.24785 0.0
H508 H 0.20197 0.26696 0.24749 0.0
N509 N 0.15926 0.12683 0.25981 0.0
C510 C 0.19286 0.15492 0.26201 0.0
C511 C 0.23694 0.09504 0.27857 0.0
C512 C 0.25 0.15419 0.27279 0.0
C513 C 0.18045 0.09702 0.26774 0.0
C514 C 0.27185 0.12375 0.28116 0.0
N515 N 0.11343 0.18428 0.24385 0.0
C516 C 0.09015 0.21251 0.23381 0.0
C517 C 0.2027 0.21431 0.25551 0.0
C518 C 0.16938 0.18462 0.25361 0.0
C519 C 0.17781 0.2436 0.24641 0.0
C520 C 0.12155 0.24261 0.23526 0.0
H521 H 0.31558 0.12212 0.28956 0.0
H522 H 0.32728 0.18374 0.28318 0.0
H523 H 0.28595 0.23634 0.26799 0.0
O524 O 0.06164 0.13921 0.20165 0.0
O525 O 0.07646 0.15923 0.28054 0.0
O526 O 0.98568 0.18169 0.28845 0.0
O527 O 0.12536 0.10673 0.21832 0.0
O528 O 0.98995 0.15947 0.22798 0.0
O529 O 0.93865 0.18132 0.26345 0.0
O530 O 0.92791 0.13355 0.33152 0.0
O531 O 0.91281 0.11398 0.25234 0.0
O532 O 0.0039 0.09227 0.24424 0.0
O533 O 0.86846 0.1681 0.31432 0.0
O534 O 0.00405 0.11516 0.30489 0.0
O535 O 0.04826 0.09146 0.26859 0.0
C536 C 0.04255 0.18035 0.29275 0.0
C537 C 0.15067 0.13356 0.17832 0.0
C538 C 0.18468 0.14209 0.13315 0.0
C539 C 0.23137 0.16206 0.14265 0.0
C540 C 0.19826 0.15312 0.18731 0.0
C541 C 0.23823 0.16731 0.16957 0.0
C542 C 0.14441 0.12774 0.15116 0.0
C543 C 0.95127 0.17993 0.23809 0.0
C544 C 0.10614 0.12018 0.19686 0.0
C545 C 0.28326 0.18378 0.27492 0.0
C546 C 0.25969 0.21375 0.26629 0.0
C547 C 0.94748 0.09426 0.23898 0.0
C548 C 0.83768 0.14152 0.35372 0.0
C549 C 0.80416 0.12743 0.39813 0.0
C550 C 0.74986 0.11651 0.38767 0.0
C551 C 0.78264 0.13096 0.34387 0.0
C552 C 0.84801 0.14005 0.38099 0.0
C553 C 0.7392 0.11845 0.36075 0.0
C554 C 0.04027 0.09378 0.29418 0.0
C555 C 0.88478 0.1537 0.33587 0.0
H556 H 0.2631 0.17321 0.12924 0.0
H557 H 0.20462 0.15749 0.20798 0.0
H558 H 0.27467 0.18248 0.17672 0.0
H559 H 0.10776 0.11265 0.14403 0.0
H560 H 0.71524 0.10692 0.40041 0.0
H561 H 0.7729 0.13248 0.32319 0.0
H562 H 0.89031 0.14822 0.38878 0.0
H563 H 0.69699 0.1103 0.35294 0.0
Tb564 Tb 0.43062 0.36625 0.73989 0.0
C565 C 0.69599 0.39176 0.77468 0.0
N566 N 0.66502 0.36278 0.77242 0.0
C567 C 0.74741 0.33765 0.75108 0.0
C568 C 0.75397 0.39495 0.76483 0.0
C569 C 0.68994 0.33572 0.76107 0.0
C570 C 0.77957 0.36741 0.75293 0.0
C571 C 0.69855 0.44942 0.78812 0.0
C572 C 0.66831 0.41871 0.78596 0.0
C573 C 0.75649 0.4527 0.77848 0.0
C574 C 0.7841 0.42555 0.76685 0.0
Tb575 Tb 0.57208 0.36256 0.7896 0.0
N576 N 0.61152 0.41487 0.79443 0.0
C577 C 0.66979 0.47587 0.80005 0.0
C578 C 0.5848 0.44009 0.80751 0.0
C579 C 0.61296 0.47104 0.81006 0.0
H580 H 0.66611 0.31236 0.76025 0.0
H581 H 0.59112 0.49102 0.82016 0.0
H582 H 0.33737 0.42125 0.76321 0.0
H583 H 0.41012 0.23423 0.72197 0.0
H584 H 0.54278 0.43655 0.81689 0.0
H585 H 0.69151 0.49986 0.80213 0.0
H586 H 0.46053 0.28841 0.72131 0.0
H587 H 0.76698 0.31614 0.7421 0.0
H588 H 0.78033 0.47613 0.77992 0.0
H589 H 0.82868 0.42851 0.75938 0.0
H590 H 0.23525 0.42114 0.78033 0.0
H591 H 0.82403 0.36885 0.74511 0.0
H592 H 0.30784 0.22909 0.73867 0.0
N593 N 0.33686 0.3695 0.7556 0.0
C594 C 0.30532 0.34055 0.75599 0.0
C595 C 0.25451 0.39829 0.77361 0.0
C596 C 0.24675 0.33935 0.76528 0.0
C597 C 0.31251 0.39824 0.76418 0.0
C598 C 0.22146 0.36873 0.77416 0.0
N599 N 0.38994 0.31395 0.73946 0.0
C600 C 0.41712 0.28668 0.72965 0.0
C601 C 0.30147 0.28133 0.74773 0.0
C602 C 0.33256 0.31186 0.74746 0.0
C603 C 0.33019 0.25305 0.73881 0.0
C604 C 0.38806 0.25582 0.72952 0.0
H605 H 0.17654 0.36886 0.78148 0.0
H606 H 0.17058 0.30749 0.77268 0.0
H607 H 0.21836 0.25675 0.75723 0.0
O608 O 0.43811 0.36177 0.69887 0.0
O609 O 0.41771 0.34079 0.77784 0.0
O610 O 0.5095 0.32118 0.7861 0.0
O611 O 0.37314 0.39338 0.71589 0.0
O612 O 0.51092 0.34279 0.7253 0.0
O613 O 0.55618 0.32154 0.76208 0.0
O614 O 0.57277 0.36426 0.83166 0.0
O615 O 0.58535 0.38933 0.75209 0.0
O616 O 0.49257 0.408 0.74338 0.0
O617 O 0.62978 0.33166 0.80944 0.0
O618 O 0.49121 0.38674 0.80391 0.0
O619 O 0.44712 0.4079 0.76653 0.0
C620 C 0.45331 0.32252 0.79179 0.0
C621 C 0.34983 0.36733 0.67532 0.0
C622 C 0.32026 0.3579 0.6298 0.0
C623 C 0.27225 0.33842 0.63862 0.0
C624 C 0.30083 0.34839 0.6837 0.0
C625 C 0.26244 0.33395 0.66544 0.0
C626 C 0.35895 0.3724 0.64828 0.0
C627 C 0.55109 0.32439 0.73641 0.0
C628 C 0.39329 0.38059 0.69429 0.0
C629 C 0.21567 0.30893 0.76561 0.0
C630 C 0.24292 0.28002 0.75684 0.0
C631 C 0.54915 0.40725 0.73802 0.0
C632 C 0.63904 0.32771 0.85658 0.0
C633 C 0.65117 0.32585 0.90434 0.0
C634 C 0.68628 0.2977 0.90141 0.0
C635 C 0.67446 0.29957 0.85438 0.0
C636 C 0.62783 0.34106 0.88174 0.0
C637 C 0.6979 0.28479 0.87662 0.0
C638 C 0.4533 0.40645 0.7923 0.0
C639 C 0.61319 0.34174 0.83242 0.0
H640 H 0.24178 0.32714 0.62474 0.0
H641 H 0.29214 0.34466 0.70426 0.0
H642 H 0.22496 0.31922 0.67212 0.0
H643 H 0.39663 0.38706 0.64161 0.0
H644 H 0.7054 0.28583 0.91839 0.0
H645 H 0.68379 0.28868 0.83539 0.0
H646 H 0.60052 0.36268 0.88377 0.0
H647 H 0.72508 0.26314 0.87465 0.0
Tb648 Tb 0.07049 0.86643 0.73514 0.0
C649 C 0.82502 0.81995 0.77068 0.0
N650 N 0.84776 0.85131 0.77019 0.0
C651 C 0.76035 0.87052 0.74908 0.0
C652 C 0.76959 0.81241 0.75949 0.0
C653 C 0.81587 0.87672 0.76017 0.0
C654 C 0.73727 0.8382 0.74856 0.0
C655 C 0.83728 0.76222 0.78206 0.0
C656 C 0.85862 0.79524 0.78174 0.0
C657 C 0.78234 0.75444 0.77064 0.0
C658 C 0.74854 0.77948 0.75943 0.0
Tb659 Tb 0.93835 0.85859 0.78879 0.0
N660 N 0.912 0.80366 0.79228 0.0
C661 C 0.87148 0.7381 0.7941 0.0
C662 C 0.94359 0.78052 0.80551 0.0
C663 C 0.92445 0.74739 0.8062 0.0
H664 H 0.83262 0.90189 0.76099 0.0
H665 H 0.95017 0.72913 0.81642 0.0
H666 H 0.17403 0.81151 0.75044 0.0
H667 H 0.09717 0.99622 0.71241 0.0
H668 H 0.98253 0.7874 0.81634 0.0
H669 H 0.85667 0.71244 0.79477 0.0
H670 H 0.049 0.94066 0.71044 0.0
H671 H 0.73532 0.89069 0.74102 0.0
H672 H 0.76539 0.72917 0.77057 0.0
H673 H 0.70616 0.77314 0.7508 0.0
H674 H 0.27074 0.81237 0.77253 0.0
H675 H 0.69438 0.83346 0.73983 0.0
H676 H 0.19039 0.00411 0.73717 0.0
N677 N 0.16366 0.86372 0.75252 0.0
C678 C 0.19192 0.89328 0.7564 0.0
C679 C 0.24855 0.83536 0.7686 0.0
C680 C 0.2484 0.89517 0.76788 0.0
C681 C 0.19294 0.8349 0.7567 0.0
C682 C 0.27587 0.86566 0.77478 0.0
N683 N 0.11285 0.91818 0.73482 0.0
C684 C 0.08939 0.94411 0.72139 0.0
C685 C 0.19536 0.95248 0.74836 0.0
C686 C 0.16617 0.92148 0.74672 0.0
C687 C 0.16937 0.97982 0.73638 0.0
C688 C 0.11672 0.97546 0.72239 0.0
H689 H 0.31929 0.86598 0.78365 0.0
H690 H 0.31966 0.92827 0.78006 0.0
H691 H 0.273 0.97855 0.76302 0.0
O692 O 0.04658 0.86837 0.69522 0.0
O693 O 0.05552 0.90663 0.7633 0.0
O694 O 0.0232 0.88075 0.80074 0.0
O695 O 0.13374 0.85467 0.70648 0.0
O696 O 0.98378 0.88713 0.72589 0.0
O697 O 0.9409 0.90406 0.7652 0.0
O698 O 0.91138 0.84803 0.82741 0.0
O699 O 0.9288 0.83932 0.74845 0.0
O700 O 0.0203 0.81989 0.73825 0.0
O701 O 0.89379 0.89546 0.81007 0.0
O702 O 0.02419 0.8387 0.7997 0.0
O703 O 0.07278 0.82288 0.76153 0.0
C704 C 0.05151 0.90508 0.78893 0.0
C705 C 0.09655 0.83189 0.66721 0.0
C706 C 0.10821 0.81517 0.62128 0.0
C707 C 0.09942 0.78191 0.62906 0.0
C708 C 0.08746 0.79872 0.67443 0.0
C709 C 0.08866 0.77388 0.65537 0.0
C710 C 0.10616 0.84006 0.64072 0.0
C711 C 0.95076 0.9074 0.73972 0.0
C712 C 0.0975 0.8583 0.68706 0.0
C713 C 0.27655 0.92625 0.77098 0.0
C714 C 0.25006 0.95488 0.76122 0.0
C715 C 0.96259 0.81777 0.73664 0.0
C716 C 0.83292 0.87767 0.84595 0.0
C717 C 0.78503 0.87899 0.88916 0.0
C718 C 0.72996 0.88034 0.87645 0.0
C719 C 0.77769 0.8788 0.83375 0.0
C720 C 0.8363 0.87742 0.87352 0.0
C721 C 0.72647 0.88008 0.849 0.0
C722 C 0.06437 0.82137 0.78723 0.0
C723 C 0.88832 0.8769 0.83089 0.0
H724 H 0.10194 0.76188 0.61498 0.0
H725 H 0.08013 0.79206 0.69479 0.0
H726 H 0.08204 0.74825 0.66104 0.0
H727 H 0.11191 0.8659 0.63539 0.0
H728 H 0.6895 0.88217 0.88765 0.0
H729 H 0.77411 0.87883 0.81257 0.0
H730 H 0.87923 0.87579 0.88272 0.0
H731 H 0.68386 0.88118 0.83952 0.0
Tb732 Tb 0.44291 0.63468 0.23667 0.0
C733 C 0.67655 0.69314 0.27203 0.0
N734 N 0.66258 0.66044 0.26975 0.0
C735 C 0.75166 0.65146 0.24551 0.0
C736 C 0.72739 0.70672 0.25998 0.0
C737 C 0.70037 0.63921 0.2577 0.0
C738 C 0.76482 0.68544 0.24632 0.0
C739 C 0.65304 0.74666 0.29025 0.0
C740 C 0.63957 0.71272 0.28674 0.0
C741 C 0.70234 0.7608 0.27741 0.0
C742 C 0.73948 0.74085 0.26229 0.0
Tb743 Tb 0.57693 0.64292 0.28922 0.0
N744 N 0.59261 0.69799 0.29893 0.0
C745 C 0.61786 0.76501 0.30733 0.0
C746 C 0.56201 0.71508 0.31757 0.0
C747 C 0.57296 0.74896 0.32148 0.0
H748 H 0.6902 0.61296 0.25706 0.0
H749 H 0.54733 0.76254 0.33572 0.0
H750 H 0.34893 0.69407 0.25456 0.0
H751 H 0.39863 0.50516 0.21859 0.0
H752 H 0.52957 0.70271 0.32982 0.0
H753 H 0.62665 0.79116 0.31059 0.0
H754 H 0.45273 0.55883 0.21375 0.0
H755 H 0.7809 0.63473 0.23545 0.0
H756 H 0.71303 0.78692 0.27962 0.0
H757 H 0.77801 0.75191 0.25294 0.0
H758 H 0.2564 0.69731 0.27979 0.0
H759 H 0.80443 0.69488 0.23678 0.0
H760 H 0.30945 0.50158 0.24675 0.0
N761 N 0.3536 0.64144 0.25721 0.0
C762 C 0.32324 0.61308 0.26302 0.0
C763 C 0.27518 0.67341 0.27557 0.0
C764 C 0.26899 0.61365 0.27656 0.0
C765 C 0.32832 0.67146 0.26167 0.0
C766 C 0.24597 0.64437 0.28357 0.0
N767 N 0.39525 0.58457 0.23937 0.0
C768 C 0.41358 0.55729 0.2259 0.0
C769 C 0.31219 0.55375 0.25681 0.0
C770 C 0.34425 0.58361 0.25331 0.0
C771 C 0.33283 0.52507 0.24458 0.0
C772 C 0.38314 0.527 0.22864 0.0
H773 H 0.20443 0.64594 0.29403 0.0
H774 H 0.19698 0.58357 0.29228 0.0
H775 H 0.23499 0.53101 0.27499 0.0
O776 O 0.46138 0.62985 0.19633 0.0
O777 O 0.46309 0.59471 0.26427 0.0
O778 O 0.49291 0.62077 0.30205 0.0
O779 O 0.37762 0.64739 0.20931 0.0
O780 O 0.52644 0.61212 0.22522 0.0
O781 O 0.5784 0.5989 0.26347 0.0
O782 O 0.61748 0.64908 0.32655 0.0
O783 O 0.58698 0.65987 0.24817 0.0
O784 O 0.49639 0.68013 0.23764 0.0
O785 O 0.62032 0.60209 0.30564 0.0
O786 O 0.48957 0.66136 0.30047 0.0
O787 O 0.45036 0.67942 0.26125 0.0
C788 C 0.46516 0.59642 0.28996 0.0
C789 C 0.41286 0.6667 0.16836 0.0
C790 C 0.40516 0.6802 0.12162 0.0
C791 C 0.4134 0.71395 0.12809 0.0
C792 C 0.42167 0.70032 0.17429 0.0
C793 C 0.42205 0.72379 0.15418 0.0
C794 C 0.40547 0.65673 0.14213 0.0
C795 C 0.56591 0.59488 0.2382 0.0
C796 C 0.41096 0.64149 0.18914 0.0
C797 C 0.23837 0.58371 0.28159 0.0
C798 C 0.25993 0.55378 0.2717 0.0
C799 C 0.554 0.68078 0.23533 0.0
C800 C 0.66978 0.60407 0.34813 0.0
C801 C 0.70305 0.60323 0.3939 0.0
C802 C 0.73977 0.57663 0.38776 0.0
C803 C 0.70627 0.57715 0.34269 0.0
C804 C 0.66785 0.61693 0.37396 0.0
C805 C 0.74105 0.56361 0.36238 0.0
C806 C 0.45487 0.68086 0.28701 0.0
C807 C 0.63519 0.6187 0.32657 0.0
H808 H 0.41228 0.73293 0.11312 0.0
H809 H 0.42783 0.70837 0.19442 0.0
H810 H 0.42846 0.74978 0.15884 0.0
H811 H 0.40038 0.63054 0.13783 0.0
H812 H 0.767 0.56561 0.40276 0.0
H813 H 0.70855 0.56682 0.32307 0.0
H814 H 0.63962 0.63757 0.37849 0.0
H815 H 0.76926 0.54298 0.35793 0.0
C816 C 0.0953 0.01165 0.3184 0.0
C817 C 0.10846 0.01848 0.34494 0.0
H818 H 0.06469 0.03013 0.2816 0.0
C819 C 0.09984 0.0508 0.35444 0.0
H820 H 0.09947 0.98693 0.31042 0.0
C821 C 0.07828 0.07545 0.33788 0.0
C822 C 0.06592 0.06844 0.3114 0.0
H823 H 0.1101 0.05718 0.3746 0.0
H824 H 0.07156 0.10006 0.34574 0.0
C825 C 0.07502 0.03639 0.3018 0.0
C826 C 0.38246 0.48698 0.81084 0.0
C827 C 0.36827 0.48214 0.83749 0.0
H828 H 0.42009 0.46711 0.77593 0.0
C829 C 0.38376 0.45214 0.84951 0.0
H830 H 0.37312 0.51012 0.80108 0.0
C831 C 0.41182 0.42739 0.83497 0.0
C832 C 0.42442 0.4322 0.80818 0.0
H833 H 0.37347 0.4476 0.86999 0.0
H834 H 0.42289 0.40437 0.84455 0.0
C835 C 0.40979 0.46233 0.79639 0.0
C836 C 0.55652 0.46976 0.68253 0.0
C837 C 0.61705 0.47758 0.68144 0.0
H838 H 0.48769 0.44171 0.7014 0.0
C839 C 0.65566 0.46112 0.69837 0.0
H840 H 0.52575 0.48221 0.6698 0.0
C841 C 0.63403 0.43761 0.71629 0.0
C842 C 0.57318 0.43067 0.71812 0.0
H843 H 0.70264 0.46651 0.69777 0.0
H844 H 0.66498 0.42537 0.72893 0.0
C845 C 0.53477 0.44673 0.70078 0.0
C846 C 0.83379 0.04296 0.20153 0.0
C847 C 0.86949 0.02008 0.18857 0.0
H848 H 0.83044 0.0854 0.22644 0.0
C849 C 0.931 0.02306 0.1907 0.0
H850 H 0.78617 0.04112 0.20002 0.0
C851 C 0.95641 0.04762 0.20668 0.0
C852 C 0.92068 0.06991 0.22051 0.0
H853 H 0.95926 0.0055 0.18093 0.0
H854 H 0.00399 0.04866 0.20859 0.0
C855 C 0.85921 0.06802 0.21695 0.0
C856 C 0.90641 0.99511 0.72566 0.0
C857 C 0.8877 0.99303 0.6993 0.0
H858 H 0.93961 0.96948 0.75921 0.0
C859 C 0.88952 0.96209 0.68654 0.0
H860 H 0.90743 0.01854 0.73602 0.0
C861 C 0.90972 0.93417 0.69975 0.0
C862 C 0.92715 0.93641 0.72613 0.0
H863 H 0.87464 0.95924 0.66646 0.0
H864 H 0.91108 0.9107 0.68942 0.0
C865 C 0.92509 0.96703 0.73902 0.0
C866 C 0.63046 0.54622 0.18183 0.0
C867 C 0.64788 0.51699 0.19441 0.0
H868 H 0.59105 0.59379 0.18589 0.0
C869 C 0.63904 0.51414 0.22176 0.0
H870 H 0.63731 0.54963 0.16095 0.0
C871 C 0.61406 0.53984 0.23613 0.0
C872 C 0.596 0.56867 0.22342 0.0
H873 H 0.65031 0.49174 0.23214 0.0
H874 H 0.60724 0.53669 0.25706 0.0
C875 C 0.60436 0.57165 0.19615 0.0
C876 C 0.41225 0.51054 0.30826 0.0
C877 C 0.38696 0.51568 0.33312 0.0
H878 H 0.45827 0.53189 0.2756 0.0
C879 C 0.39022 0.54751 0.34436 0.0
H880 H 0.41177 0.48616 0.29934 0.0
C881 C 0.41679 0.57385 0.33059 0.0
C882 C 0.44034 0.56869 0.30541 0.0
H883 H 0.37097 0.55221 0.36346 0.0
H884 H 0.41756 0.59835 0.3393 0.0
C885 C 0.43879 0.53672 0.29462 0.0
C886 C 0.09702 0.99226 0.80766 0.0
C887 C 0.11972 0.98809 0.83312 0.0
H888 H 0.05719 0.96946 0.77405 0.0
C889 C 0.11719 0.95631 0.84448 0.0
H890 H 0.09662 0.01647 0.79851 0.0
C891 C 0.09396 0.92925 0.83036 0.0
C892 C 0.0734 0.93349 0.8046 0.0
H893 H 0.13458 0.95216 0.86397 0.0
H894 H 0.09353 0.90491 0.83931 0.0
C895 C 0.07439 0.9653 0.79357 0.0
C896 C 0.17825 0.09901 0.06686 0.0
C897 C 0.18085 0.12604 0.04934 0.0
H898 H 0.17665 0.08293 0.10709 0.0
C899 C 0.18026 0.15832 0.0599 0.0
H900 H 0.17931 0.07379 0.05964 0.0
C901 C 0.17994 0.16341 0.08707 0.0
C902 C 0.179 0.13642 0.10444 0.0
H903 H 0.18048 0.17981 0.04721 0.0
H904 H 0.18093 0.18855 0.09456 0.0
C905 C 0.17688 0.10417 0.0941 0.0
C906 C 0.33172 0.40013 0.56361 0.0
C907 C 0.33278 0.37287 0.54629 0.0
H908 H 0.32774 0.41666 0.60368 0.0
C909 C 0.33425 0.34075 0.55703 0.0
H910 H 0.32972 0.42522 0.55623 0.0
C911 C 0.33165 0.33597 0.58419 0.0
C912 C 0.32889 0.36318 0.60128 0.0
H913 H 0.33672 0.31915 0.54448 0.0
H914 H 0.33121 0.31094 0.59186 0.0
C915 C 0.33031 0.39531 0.59083 0.0
C916 C 0.62457 0.32654 0.97757 0.0
C917 C 0.64327 0.35875 0.98454 0.0
H918 H 0.61129 0.29121 0.94668 0.0
C919 C 0.65639 0.38161 0.96438 0.0
H920 H 0.61282 0.30854 0.99255 0.0
C921 C 0.65498 0.37168 0.93794 0.0
C922 C 0.64057 0.33873 0.93127 0.0
H923 H 0.67108 0.40659 0.96908 0.0
H924 H 0.66871 0.38914 0.92289 0.0
C925 C 0.62336 0.31665 0.9513 0.0
C926 C 0.80534 0.09446 0.46779 0.0
C927 C 0.82299 0.12256 0.48231 0.0
H928 H 0.78581 0.07405 0.42987 0.0
C929 C 0.83735 0.15199 0.46877 0.0
H930 H 0.79353 0.07151 0.47764 0.0
C931 C 0.83347 0.15333 0.44129 0.0
C932 C 0.81411 0.12544 0.42692 0.0
H933 H 0.85144 0.17397 0.47945 0.0
H934 H 0.8438 0.17643 0.43135 0.0
C935 C 0.80062 0.09595 0.44046 0.0
C936 C 0.74879 0.86601 0.96173 0.0
C937 C 0.79585 0.88285 0.97426 0.0
H938 H 0.70901 0.85091 0.92546 0.0
C939 C 0.84001 0.89765 0.95848 0.0
H940 H 0.71348 0.8546 0.97308 0.0
C941 C 0.83653 0.89635 0.93106 0.0
C942 C 0.7892 0.87979 0.9185 0.0
H943 H 0.8775 0.91039 0.96727 0.0
H944 H 0.87062 0.90894 0.91975 0.0
C945 C 0.74567 0.86436 0.93428 0.0
C946 C 0.65226 0.62025 0.46361 0.0
C947 C 0.70549 0.63008 0.47579 0.0
H948 H 0.60942 0.60491 0.42781 0.0
C949 C 0.75638 0.63396 0.46018 0.0
H950 H 0.61229 0.61717 0.47511 0.0
C951 C 0.7548 0.62661 0.43332 0.0
C952 C 0.70208 0.61584 0.42132 0.0
H953 H 0.79815 0.64117 0.46898 0.0
H954 H 0.79526 0.62842 0.422 0.0
C955 C 0.65046 0.61349 0.43656 0.0
C956 C 0.34967 0.63217 0.06169 0.0
C957 C 0.37582 0.65 0.04096 0.0
H958 H 0.33615 0.62832 0.10308 0.0
C959 C 0.4122 0.67753 0.04674 0.0
H960 H 0.3208 0.61109 0.0577 0.0
C961 C 0.42249 0.687 0.07281 0.0
C962 C 0.39556 0.66957 0.09375 0.0
H963 H 0.43319 0.69155 0.03105 0.0
H964 H 0.45199 0.70786 0.07647 0.0
C965 C 0.35888 0.64202 0.08774 0.0
C966 C 0.17274 0.85726 0.56023 0.0
C967 C 0.14975 0.83719 0.54009 0.0
H968 H 0.17966 0.86548 0.60159 0.0
C969 C 0.11111 0.8109 0.54649 0.0
H970 H 0.20312 0.87748 0.55569 0.0
C971 C 0.09623 0.80444 0.57267 0.0
C972 C 0.12082 0.82365 0.59318 0.0
H973 H 0.09264 0.79522 0.53118 0.0
H974 H 0.0656 0.78422 0.57676 0.0
C975 C 0.15891 0.85039 0.58652 0.0
C976 C 0.15111 0.2204 0.33988 0.0
C977 C 0.12496 0.25108 0.34457 0.0
H978 H 0.14579 0.17409 0.31938 0.0
C979 C 0.07152 0.25847 0.33219 0.0
H980 H 0.19266 0.2144 0.34906 0.0
C981 C 0.04417 0.2353 0.31557 0.0
C982 C 0.07062 0.2047 0.31061 0.0
H983 H 0.05084 0.28211 0.3355 0.0
H984 H 0.00288 0.24155 0.30629 0.0
C985 C 0.12448 0.19752 0.32282 0.0
C986 C 0.44095 0.2572 0.84528 0.0
C987 C 0.37959 0.25341 0.84776 0.0
H988 H 0.51255 0.28188 0.8254 0.0
C989 C 0.34259 0.27319 0.83261 0.0
H990 H 0.47014 0.24201 0.85679 0.0
C991 C 0.36655 0.29629 0.815 0.0
C992 C 0.428 0.29936 0.8116 0.0
H993 H 0.29507 0.27061 0.83431 0.0
H994 H 0.33669 0.31139 0.80389 0.0
C995 C 0.46501 0.27986 0.82723 0.0
C996 C 0.61427 0.24559 0.70931 0.0
C997 C 0.64027 0.25643 0.68553 0.0
H998 H 0.56726 0.25875 0.74427 0.0
C999 C 0.63629 0.29018 0.67885 0.0
H1000 H 0.61426 0.21975 0.71493 0.0
C1001 C 0.60705 0.31225 0.69539 0.0
C1002 C 0.58267 0.30127 0.71926 0.0
H1003 H 0.65634 0.29975 0.66104 0.0
H1004 H 0.60434 0.33807 0.68977 0.0
C1005 C 0.58681 0.26786 0.72617 0.0
C1006 C 0.86675 0.25348 0.21261 0.0
C1007 C 0.87302 0.25015 0.18517 0.0
H1008 H 0.88912 0.23547 0.25066 0.0
C1009 C 0.90576 0.22348 0.17547 0.0
H1010 H 0.84107 0.27316 0.22108 0.0
C1011 C 0.93068 0.20066 0.19264 0.0
C1012 C 0.92446 0.20418 0.22001 0.0
H1013 H 0.91287 0.22031 0.1546 0.0
H1014 H 0.95508 0.18029 0.18437 0.0
C1015 C 0.89314 0.23123 0.22975 0.0
C1016 C 0.93771 0.73664 0.70059 0.0
C1017 C 0.88203 0.74122 0.68926 0.0
H1018 H 0.00703 0.75743 0.72434 0.0
C1019 C 0.85353 0.77145 0.69297 0.0
H1020 H 0.96018 0.71336 0.69815 0.0
C1021 C 0.87979 0.79645 0.70832 0.0
C1022 C 0.93533 0.79177 0.71989 0.0
H1023 H 0.81019 0.7753 0.6847 0.0
H1024 H 0.85656 0.8194 0.71118 0.0
C1025 C 0.96438 0.7618 0.71556 0.0
C1026 C 0.58062 0.75694 0.19372 0.0
C1027 C 0.63295 0.74903 0.18053 0.0
H1028 H 0.51442 0.74129 0.22132 0.0
C1029 C 0.65913 0.71836 0.18524 0.0
H1030 H 0.5598 0.78052 0.19038 0.0
C1031 C 0.63376 0.69614 0.20327 0.0
C1032 C 0.58139 0.7041 0.21648 0.0
H1033 H 0.6998 0.71192 0.17542 0.0
H1034 H 0.65476 0.67265 0.20669 0.0
C1035 C 0.55475 0.73454 0.21135 0.0
C1036 C 0.36231 0.72511 0.33718 0.0
C1037 C 0.3666 0.7582 0.32843 0.0
H1038 H 0.38786 0.6747 0.331 0.0
C1039 C 0.40078 0.76518 0.30586 0.0
H1040 H 0.33562 0.7184 0.35406 0.0
C1041 C 0.42819 0.73984 0.29206 0.0
C1042 C 0.42412 0.70716 0.3011 0.0
H1043 H 0.40708 0.79028 0.29883 0.0
H1044 H 0.45403 0.74589 0.27473 0.0
C1045 C 0.39164 0.69994 0.32387 0.0
C1046 C 0.16049 0.75011 0.80894 0.0
C1047 C 0.16077 0.75429 0.83648 0.0
H1048 H 0.12813 0.76701 0.77182 0.0
C1049 C 0.13056 0.7813 0.84715 0.0
H1050 H 0.18387 0.73001 0.79976 0.0
C1051 C 0.10133 0.80341 0.83095 0.0
C1052 C 0.09981 0.79878 0.80358 0.0
H1053 H 0.12803 0.78517 0.86815 0.0
H1054 H 0.07871 0.82386 0.84009 0.0
C1055 C 0.12957 0.7718 0.79273 0.0
loop_
_geom_bond_atom_site_label_1
_geom_bond_atom_site_label_2
_geom_bond_distance
_geom_bond_site_symmetry_2
_ccdc_geom_bond_type
C0 C1 1.391 . S
C0 C4 1.391 . S
C0 H42 0.948 . S
C1 C0 1.391 . S
C1 C2 1.391 . S
C2 C1 1.391 . S
C2 H58 0.947 . S
C2 C59 1.392 . S
C3 C4 1.391 . S
C3 C7 1.397 . S
C3 C59 1.419 . S
C4 C0 1.391 . S
C4 C3 1.391 . S
C4 C5 1.399 . S
C5 C4 1.399 . S
C5 C8 1.396 . S
C5 C17 1.453 . S
C5 C18 1.684 . S
H6 C30 0.948 . S
C7 C3 1.397 . S
C7 C8 1.394 . S
C7 C26 1.723 . S
C8 C5 1.396 . S
C8 C7 1.394 . S
C8 C38 1.723 . S
H9 C32 0.947 . S
H10 C33 0.948 . S
H11 C39 0.982 . S
H12 C40 0.979 . S
H13 C40 0.980 . S
H14 C40 0.983 . S
H15 C39 0.979 . S
H16 C39 0.977 . S
C17 C5 1.453 . S
C17 H46 0.982 . S
C17 H47 0.979 . S
C17 H48 0.977 . S
C18 C5 1.684 . S
C18 H43 0.979 . S
C18 H44 0.980 . S
C18 H45 0.983 . S
C19 C20 1.391 . S
C19 C24 1.391 . S
C19 H49 0.948 . S
C20 C19 1.391 . S
C20 C21 1.391 . S
C21 C20 1.391 . S
C21 C22 1.392 . S
C21 H50 0.947 . S
C22 C21 1.392 . S
C22 C23 1.419 . S
C22 H51 0.948 . S
C23 C22 1.419 . S
C23 C24 1.391 . S
C23 C27 1.397 . S
C24 C19 1.391 . S
C24 C23 1.391 . S
C24 C25 1.399 . S
C25 C24 1.399 . S
C25 C26 1.396 . S
C25 C28 1.453 . S
C25 C29 1.684 . S
C26 C7 1.723 . S
C26 C25 1.396 . S
C26 C27 1.394 . S
C27 C23 1.397 . S
C27 C26 1.394 . S
C27 C37 1.723 . S
C28 C25 1.453 . S
C28 H52 0.982 . S
C28 H53 0.979 . S
C28 H54 0.977 . S
C29 C25 1.684 . S
C29 H55 0.979 . S
C29 H56 0.980 . S
C29 H57 0.983 . S
C30 H6 0.948 . S
C30 C31 1.391 . S
C30 C35 1.391 . S
C31 C30 1.391 . S
C31 C32 1.391 . S
C32 H9 0.947 . S
C32 C31 1.391 . S
C32 C33 1.392 . S
C33 H10 0.948 . S
C33 C32 1.392 . S
C33 C34 1.419 . S
C34 C33 1.419 . S
C34 C35 1.391 . S
C34 C38 1.397 . S
C35 C30 1.391 . S
C35 C34 1.391 . S
C35 C36 1.399 . S
C36 C35 1.399 . S
C36 C37 1.396 . S
C36 C39 1.453 . S
C36 C40 1.684 . S
C37 C27 1.723 . S
C37 C36 1.396 . S
C37 C38 1.394 . S
C38 C8 1.723 . S
C38 C34 1.397 . S
C38 C37 1.394 . S
C39 H11 0.982 . S
C39 H15 0.979 . S
C39 H16 0.977 . S
C39 C36 1.453 . S
C40 H12 0.979 . S
C40 H13 0.980 . S
C40 H14 0.983 . S
C40 C36 1.684 . S
H41 C59 0.948 . S
H42 C0 0.948 . S
H43 C18 0.979 . S
H44 C18 0.980 . S
H45 C18 0.983 . S
H46 C17 0.982 . S
H47 C17 0.979 . S
H48 C17 0.977 . S
H49 C19 0.948 . S
H50 C21 0.947 . S
H51 C22 0.948 . S
H52 C28 0.982 . S
H53 C28 0.979 . S
H54 C28 0.977 . S
H55 C29 0.979 . S
H56 C29 0.980 . S
H57 C29 0.983 . S
H58 C2 0.947 . S
C59 C2 1.392 . S
C59 C3 1.419 . S
C59 H41 0.948 . S
C60 C61 1.391 . S
C60 C64 1.391 . S
C60 H102 0.948 . S
C61 C60 1.391 . S
C61 C62 1.391 . S
C62 C61 1.391 . S
C62 H118 0.947 . S
C62 C119 1.392 . S
C63 C64 1.391 . S
C63 C67 1.397 . S
C63 C119 1.419 . S
C64 C60 1.391 . S
C64 C63 1.391 . S
C64 C65 1.399 . S
C65 C64 1.399 . S
C65 C68 1.396 . S
C65 C77 1.453 . S
C65 C78 1.684 . S
H66 C90 0.948 1_565 S
C67 C63 1.397 . S
C67 C68 1.394 . S
C67 C86 1.723 . S
C68 C65 1.396 . S
C68 C67 1.394 . S
C68 C98 1.723 . S
H69 C92 0.947 . S
H70 C93 0.948 . S
H71 C99 0.982 . S
H72 C100 0.979 . S
H73 C100 0.980 . S
H74 C100 0.983 . S
H75 C99 0.979 . S
H76 C99 0.977 . S
C77 C65 1.453 . S
C77 H106 0.982 . S
C77 H107 0.979 . S
C77 H108 0.977 . S
C78 C65 1.684 . S
C78 H103 0.979 . S
C78 H104 0.980 . S
C78 H105 0.983 . S
C79 C80 1.391 1_556 S
C79 C84 1.391 . S
C79 H109 0.948 . S
C80 C79 1.391 1_554 S
C80 C81 1.391 1_554 S
C81 C80 1.391 1_556 S
C81 C82 1.392 . S
C81 H110 0.947 1_556 S
C82 C81 1.392 . S
C82 C83 1.419 . S
C82 H111 0.948 . S
C83 C82 1.419 . S
C83 C84 1.391 . S
C83 C87 1.397 . S
C84 C79 1.391 . S
C84 C83 1.391 . S
C84 C85 1.399 . S
C85 C84 1.399 . S
C85 C86 1.396 . S
C85 C88 1.453 . S
C85 C89 1.684 . S
C86 C67 1.723 . S
C86 C85 1.396 . S
C86 C87 1.394 . S
C87 C83 1.397 . S
C87 C86 1.394 . S
C87 C97 1.723 . S
C88 C85 1.453 . S
C88 H112 0.982 . S
C88 H113 0.979 . S
C88 H114 0.977 . S
C89 C85 1.684 . S
C89 H115 0.979 . S
C89 H116 0.980 . S
C89 H117 0.983 . S
C90 H66 0.948 1_545 S
C90 C91 1.391 . S
C90 C95 1.391 . S
C91 C90 1.391 . S
C91 C92 1.391 . S
C92 H69 0.947 . S
C92 C91 1.391 . S
C92 C93 1.392 . S
C93 H70 0.948 . S
C93 C92 1.392 . S
C93 C94 1.419 . S
C94 C93 1.419 . S
C94 C95 1.391 . S
C94 C98 1.397 . S
C95 C90 1.391 . S
C95 C94 1.391 . S
C95 C96 1.399 . S
C96 C95 1.399 . S
C96 C97 1.396 . S
C96 C99 1.453 . S
C96 C100 1.684 . S
C97 C87 1.723 . S
C97 C96 1.396 . S
C97 C98 1.394 . S
C98 C68 1.723 . S
C98 C94 1.397 . S
C98 C97 1.394 . S
C99 H71 0.982 . S
C99 H75 0.979 . S
C99 H76 0.977 . S
C99 C96 1.453 . S
C100 H72 0.979 . S
C100 H73 0.980 . S
C100 H74 0.983 . S
C100 C96 1.684 . S
H101 C119 0.948 . S
H102 C60 0.948 . S
H103 C78 0.979 . S
H104 C78 0.980 . S
H105 C78 0.983 . S
H106 C77 0.982 . S
H107 C77 0.979 . S
H108 C77 0.977 . S
H109 C79 0.948 . S
H110 C81 0.947 1_554 S
H111 C82 0.948 . S
H112 C88 0.982 . S
H113 C88 0.979 . S
H114 C88 0.977 . S
H115 C89 0.979 . S
H116 C89 0.980 . S
H117 C89 0.983 . S
H118 C62 0.947 . S
C119 C62 1.392 . S
C119 C63 1.419 . S
C119 H101 0.948 . S
C120 C121 1.391 . S
C120 C124 1.391 . S
C120 H162 0.948 . S
C121 C120 1.391 . S
C121 C122 1.391 . S
C122 C121 1.391 . S
C122 H178 0.947 . S
C122 C179 1.392 . S
C123 C124 1.391 . S
C123 C127 1.397 . S
C123 C179 1.419 . S
C124 C120 1.391 . S
C124 C123 1.391 . S
C124 C125 1.399 . S
C125 C124 1.399 . S
C125 C128 1.396 . S
C125 C137 1.453 . S
C125 C138 1.684 . S
H126 C150 0.948 . S
C127 C123 1.397 . S
C127 C128 1.394 . S
C127 C146 1.723 . S
C128 C125 1.396 . S
C128 C127 1.394 . S
C128 C158 1.723 . S
H129 C152 0.947 . S
H130 C153 0.948 . S
H131 C159 0.982 . S
H132 C160 0.979 . S
H133 C160 0.980 . S
H134 C160 0.983 . S
H135 C159 0.979 . S
H136 C159 0.977 . S
C137 C125 1.453 . S
C137 H166 0.982 . S
C137 H167 0.979 . S
C137 H168 0.977 . S
C138 C125 1.684 . S
C138 H163 0.979 . S
C138 H164 0.980 . S
C138 H165 0.983 . S
C139 C140 1.391 . S
C139 C144 1.391 . S
C139 H169 0.948 1_545 S
C140 C139 1.391 . S
C140 C141 1.391 . S
C141 C140 1.391 . S
C141 C142 1.392 . S
C141 H170 0.947 . S
C142 C141 1.392 . S
C142 C143 1.419 . S
C142 H171 0.948 . S
C143 C142 1.419 . S
C143 C144 1.391 . S
C143 C147 1.397 . S
C144 C139 1.391 . S
C144 C143 1.391 . S
C144 C145 1.399 . S
C145 C144 1.399 . S
C145 C146 1.396 . S
C145 C148 1.453 . S
C145 C149 1.684 . S
C146 C127 1.723 . S
C146 C145 1.396 . S
C146 C147 1.394 . S
C147 C143 1.397 . S
C147 C146 1.394 . S
C147 C157 1.723 . S
C148 C145 1.453 . S
C148 H172 0.982 . S
C148 H173 0.979 . S
C148 H174 0.977 . S
C149 C145 1.684 . S
C149 H175 0.979 . S
C149 H176 0.980 . S
C149 H177 0.983 . S
C150 H126 0.948 . S
C150 C151 1.391 . S
C150 C155 1.391 . S
C151 C150 1.391 . S
C151 C152 1.391 . S
C152 H129 0.947 . S
C152 C151 1.391 . S
C152 C153 1.392 . S
C153 H130 0.948 . S
C153 C152 1.392 . S
C153 C154 1.419 . S
C154 C153 1.419 . S
C154 C155 1.391 . S
C154 C158 1.397 . S
C155 C150 1.391 . S
C155 C154 1.391 . S
C155 C156 1.399 . S
C156 C155 1.399 . S
C156 C157 1.396 . S
C156 C159 1.453 . S
C156 C160 1.684 . S
C157 C147 1.723 . S
C157 C156 1.396 . S
C157 C158 1.394 . S
C158 C128 1.723 . S
C158 C154 1.397 . S
C158 C157 1.394 . S
C159 H131 0.982 . S
C159 H135 0.979 . S
C159 H136 0.977 . S
C159 C156 1.453 . S
C160 H132 0.979 . S
C160 H133 0.980 . S
C160 H134 0.983 . S
C160 C156 1.684 . S
H161 C179 0.948 . S
H162 C120 0.948 . S
H163 C138 0.979 . S
H164 C138 0.980 . S
H165 C138 0.983 . S
H166 C137 0.982 . S
H167 C137 0.979 . S
H168 C137 0.977 . S
H169 C139 0.948 1_565 S
H170 C141 0.947 . S
H171 C142 0.948 . S
H172 C148 0.982 . S
H173 C148 0.979 . S
H174 C148 0.977 . S
H175 C149 0.979 . S
H176 C149 0.980 . S
H177 C149 0.983 . S
H178 C122 0.947 . S
C179 C122 1.392 . S
C179 C123 1.419 . S
C179 H161 0.948 . S
C180 C181 1.391 . S
C180 C184 1.391 . S
C180 H222 0.948 . S
C181 C180 1.391 . S
C181 C182 1.391 . S
C182 C181 1.391 . S
C182 H238 0.947 . S
C182 C239 1.392 . S
C183 C184 1.391 . S
C183 C187 1.397 . S
C183 C239 1.419 . S
C184 C180 1.391 . S
C184 C183 1.391 . S
C184 C185 1.399 . S
C185 C184 1.399 . S
C185 C188 1.396 . S
C185 C197 1.453 . S
C185 C198 1.684 . S
H186 C210 0.948 . S
C187 C183 1.397 . S
C187 C188 1.394 . S
C187 C206 1.723 . S
C188 C185 1.396 . S
C188 C187 1.394 . S
C188 C218 1.723 . S
H189 C212 0.947 . S
H190 C213 0.948 . S
H191 C219 0.982 . S
H192 C220 0.979 . S
H193 C220 0.980 . S
H194 C220 0.983 . S
H195 C219 0.979 . S
H196 C219 0.977 . S
C197 C185 1.453 . S
C197 H226 0.982 . S
C197 H227 0.979 . S
C197 H228 0.977 . S
C198 C185 1.684 . S
C198 H223 0.979 . S
C198 H224 0.980 . S
C198 H225 0.983 . S
C199 C200 1.374 1_554 S
C199 C204 1.391 . S
C199 H229 0.948 . S
C200 C199 1.374 1_556 S
C200 C201 1.377 1_556 S
C201 C200 1.377 1_554 S
C201 C202 1.392 . S
C201 H230 0.947 . S
C202 C201 1.392 . S
C202 C203 1.419 . S
C202 H231 0.948 . S
C203 C202 1.419 . S
C203 C204 1.391 . S
C203 C207 1.397 . S
C204 C199 1.391 . S
C204 C203 1.391 . S
C204 C205 1.399 . S
C205 C204 1.399 . S
C205 C206 1.396 . S
C205 C208 1.453 . S
C205 C209 1.684 . S
C206 C187 1.723 . S
C206 C205 1.396 . S
C206 C207 1.394 . S
C207 C203 1.397 . S
C207 C206 1.394 . S
C207 C217 1.723 . S
C208 C205 1.453 . S
C208 H232 0.982 . S
C208 H233 0.979 . S
C208 H234 0.977 . S
C209 C205 1.684 . S
C209 H235 0.979 . S
C209 H236 0.980 . S
C209 H237 0.983 . S
C210 H186 0.948 . S
C210 C211 1.391 . S
C210 C215 1.391 . S
C211 C210 1.391 . S
C211 C212 1.391 . S
C212 H189 0.947 . S
C212 C211 1.391 . S
C212 C213 1.392 . S
C213 H190 0.948 . S
C213 C212 1.392 . S
C213 C214 1.419 . S
C214 C213 1.419 . S
C214 C215 1.391 . S
C214 C218 1.397 . S
C215 C210 1.391 . S
C215 C214 1.391 . S
C215 C216 1.399 . S
C216 C215 1.399 . S
C216 C217 1.396 . S
C216 C219 1.453 . S
C216 C220 1.684 . S
C217 C207 1.723 . S
C217 C216 1.396 . S
C217 C218 1.394 . S
C218 C188 1.723 . S
C218 C214 1.397 . S
C218 C217 1.394 . S
C219 H191 0.982 . S
C219 H195 0.979 . S
C219 H196 0.977 . S
C219 C216 1.453 . S
C220 H192 0.979 . S
C220 H193 0.980 . S
C220 H194 0.983 . S
C220 C216 1.684 . S
H221 C239 0.948 . S
H222 C180 0.948 . S
H223 C198 0.979 . S
H224 C198 0.980 . S
H225 C198 0.983 . S
H226 C197 0.982 . S
H227 C197 0.979 . S
H228 C197 0.977 . S
H229 C199 0.948 . S
H230 C201 0.947 . S
H231 C202 0.948 . S
H232 C208 0.982 . S
H233 C208 0.979 . S
H234 C208 0.977 . S
H235 C209 0.979 . S
H236 C209 0.980 . S
H237 C209 0.983 . S
H238 C182 0.947 . S
C239 C182 1.392 . S
C239 C183 1.419 . S
C239 H221 0.948 . S
C240 C241 1.391 . S
C240 C244 1.391 . S
C240 H282 0.948 . S
C241 C240 1.391 . S
C241 C242 1.391 . S
C242 C241 1.391 . S
C242 H298 0.947 . S
C242 C299 1.392 . S
C243 C244 1.391 . S
C243 C247 1.397 . S
C243 C299 1.419 . S
C244 C240 1.391 . S
C244 C243 1.391 . S
C244 C245 1.399 . S
C245 C244 1.399 . S
C245 C248 1.396 . S
C245 C257 1.453 . S
C245 C258 1.684 . S
H246 C270 0.948 . S
C247 C243 1.397 . S
C247 C248 1.394 . S
C247 C266 1.723 . S
C248 C245 1.396 . S
C248 C247 1.394 . S
C248 C278 1.723 . S
H249 C272 0.947 . S
H250 C273 0.948 . S
H251 C279 0.982 . S
H252 C280 0.979 . S
H253 C280 0.980 . S
H254 C280 0.983 . S
H255 C279 0.979 . S
H256 C279 0.977 . S
C257 C245 1.453 . S
C257 H286 0.982 . S
C257 H287 0.979 . S
C257 H288 0.977 . S
C258 C245 1.684 . S
C258 H283 0.979 . S
C258 H284 0.980 . S
C258 H285 0.983 . S
C259 C260 1.391 . S
C259 C264 1.391 . S
C259 H289 0.948 . S
C260 C259 1.391 . S
C260 C261 1.391 . S
C261 C260 1.391 . S
C261 C262 1.392 . S
C261 H290 0.947 . S
C262 C261 1.392 . S
C262 C263 1.419 . S
C262 H291 0.948 . S
C263 C262 1.419 . S
C263 C264 1.391 . S
C263 C267 1.397 . S
C264 C259 1.391 . S
C264 C263 1.391 . S
C264 C265 1.399 . S
C265 C264 1.399 . S
C265 C266 1.396 . S
C265 C268 1.453 . S
C265 C269 1.684 . S
C266 C247 1.723 . S
C266 C265 1.396 . S
C266 C267 1.394 . S
C267 C263 1.397 . S
C267 C266 1.394 . S
C267 C277 1.723 . S
C268 C265 1.453 . S
C268 H292 0.982 . S
C268 H293 0.979 . S
C268 H294 0.977 . S
C269 C265 1.684 . S
C269 H295 0.979 . S
C269 H296 0.980 . S
C269 H297 0.983 . S
C270 H246 0.948 . S
C270 C271 1.391 . S
C270 C275 1.391 . S
C271 C270 1.391 . S
C271 C272 1.391 . S
C272 H249 0.947 . S
C272 C271 1.391 . S
C272 C273 1.392 . S
C273 H250 0.948 . S
C273 C272 1.392 . S
C273 C274 1.419 . S
C274 C273 1.419 . S
C274 C275 1.391 . S
C274 C278 1.397 . S
C275 C270 1.391 . S
C275 C274 1.391 . S
C275 C276 1.399 . S
C276 C275 1.399 . S
C276 C277 1.396 . S
C276 C279 1.453 . S
C276 C280 1.684 . S
C277 C267 1.723 . S
C277 C276 1.396 . S
C277 C278 1.394 . S
C278 C248 1.723 . S
C278 C274 1.397 . S
C278 C277 1.394 . S
C279 H251 0.982 . S
C279 H255 0.979 . S
C279 H256 0.977 . S
C279 C276 1.453 . S
C280 H252 0.979 . S
C280 H253 0.980 . S
C280 H254 0.983 . S
C280 C276 1.684 . S
H281 C299 0.948 . S
H282 C240 0.948 . S
H283 C258 0.979 . S
H284 C258 0.980 . S
H285 C258 0.983 . S
H286 C257 0.982 . S
H287 C257 0.979 . S
H288 C257 0.977 . S
H289 C259 0.948 . S
H290 C261 0.947 . S
H291 C262 0.948 . S
H292 C268 0.982 . S
H293 C268 0.979 . S
H294 C268 0.977 . S
H295 C269 0.979 . S
H296 C269 0.980 . S
H297 C269 0.983 . S
H298 C242 0.947 . S
C299 C242 1.392 . S
C299 C243 1.419 . S
C299 H281 0.948 . S
C300 C301 1.391 . S
C300 C304 1.391 . S
C300 H342 0.948 . S
C301 C300 1.391 . S
C301 C302 1.391 . S
C302 C301 1.391 . S
C302 H358 0.947 . S
C302 C359 1.392 . S
C303 C304 1.391 . S
C303 C307 1.397 . S
C303 C359 1.419 . S
C304 C300 1.391 . S
C304 C303 1.391 . S
C304 C305 1.399 . S
C305 C304 1.399 . S
C305 C308 1.396 . S
C305 C317 1.453 . S
C305 C318 1.684 . S
H306 C330 0.948 1_545 S
C307 C303 1.397 . S
C307 C308 1.394 . S
C307 C326 1.723 . S
C308 C305 1.396 . S
C308 C307 1.394 . S
C308 C338 1.723 . S
H309 C332 0.947 . S
H310 C333 0.948 . S
H311 C339 0.982 . S
H312 C340 0.979 . S
H313 C340 0.980 . S
H314 C340 0.967 1_545 S
H315 C339 0.979 . S
H316 C339 0.977 . S
C317 C305 1.453 . S
C317 H346 0.982 . S
C317 H347 0.979 . S
C317 H348 0.977 . S
C318 C305 1.684 . S
C318 H343 0.979 . S
C318 H344 0.980 . S
C318 H345 0.983 . S
C319 C320 1.391 1_554 S
C319 C324 1.391 . S
C319 H349 0.957 . S
C320 C319 1.391 1_556 S
C320 C321 1.391 1_556 S
C321 C320 1.391 1_554 S
C321 C322 1.392 . S
C321 H350 0.947 1_554 S
C322 C321 1.392 . S
C322 C323 1.419 . S
C322 H351 0.948 . S
C323 C322 1.419 . S
C323 C324 1.391 . S
C323 C327 1.397 . S
C324 C319 1.391 . S
C324 C323 1.391 . S
C324 C325 1.399 . S
C325 C324 1.399 . S
C325 C326 1.396 . S
C325 C328 1.453 . S
C325 C329 1.684 . S
C326 C307 1.723 . S
C326 C325 1.396 . S
C326 C327 1.394 . S
C327 C323 1.397 . S
C327 C326 1.394 . S
C327 C337 1.723 . S
C328 C325 1.453 . S
C328 H352 0.982 . S
C328 H353 0.979 . S
C328 H354 0.977 . S
C329 C325 1.684 . S
C329 H355 0.979 . S
C329 H356 0.980 . S
C329 H357 0.983 . S
C330 H306 0.948 1_565 S
C330 C331 1.391 . S
C330 C335 1.391 . S
C331 C330 1.391 . S
C331 C332 1.391 . S
C332 H309 0.947 . S
C332 C331 1.391 . S
C332 C333 1.392 . S
C333 H310 0.948 . S
C333 C332 1.392 . S
C333 C334 1.419 . S
C334 C333 1.419 . S
C334 C335 1.391 . S
C334 C338 1.397 . S
C335 C330 1.391 . S
C335 C334 1.391 . S
C335 C336 1.399 . S
C336 C335 1.399 . S
C336 C337 1.396 . S
C336 C339 1.453 . S
C336 C340 1.684 . S
C337 C327 1.723 . S
C337 C336 1.396 . S
C337 C338 1.394 . S
C338 C308 1.723 . S
C338 C334 1.397 . S
C338 C337 1.394 . S
C339 H311 0.982 . S
C339 H315 0.979 . S
C339 H316 0.977 . S
C339 C336 1.453 . S
C340 H312 0.979 . S
C340 H313 0.980 . S
C340 H314 0.967 1_565 S
C340 C336 1.684 . S
H341 C359 0.948 . S
H342 C300 0.948 . S
H343 C318 0.979 . S
H344 C318 0.980 . S
H345 C318 0.983 . S
H346 C317 0.982 . S
H347 C317 0.979 . S
H348 C317 0.977 . S
H349 C319 0.957 . S
H350 C321 0.947 1_556 S
H351 C322 0.948 . S
H352 C328 0.982 . S
H353 C328 0.979 . S
H354 C328 0.977 . S
H355 C329 0.979 . S
H356 C329 0.980 . S
H357 C329 0.983 . S
H358 C302 0.947 . S
C359 C302 1.392 . S
C359 C303 1.419 . S
C359 H341 0.948 . S
C360 C361 1.391 . S
C360 C364 1.391 . S
C360 H402 0.948 . S
C361 C360 1.391 . S
C361 C362 1.391 . S
C362 C361 1.391 . S
C362 H418 0.947 1_565 S
C362 C419 1.392 . S
C363 C364 1.391 . S
C363 C367 1.397 . S
C363 C419 1.419 . S
C364 C360 1.391 . S
C364 C363 1.391 . S
C364 C365 1.399 . S
C365 C364 1.399 . S
C365 C368 1.396 . S
C365 C377 1.453 . S
C365 C378 1.684 . S
H366 C390 0.948 . S
C367 C363 1.397 . S
C367 C368 1.394 . S
C367 C386 1.723 . S
C368 C365 1.396 . S
C368 C367 1.394 . S
C368 C398 1.723 . S
H369 C392 0.947 . S
H370 C393 0.948 . S
H371 C399 0.982 . S
H372 C400 0.979 . S
H373 C400 0.980 . S
H374 C400 0.983 . S
H375 C399 0.979 . S
H376 C399 0.977 . S
C377 C365 1.453 . S
C377 H406 0.982 . S
C377 H407 0.979 . S
C377 H408 0.977 . S
C378 C365 1.684 . S
C378 H403 0.979 . S
C378 H404 0.980 . S
C378 H405 0.983 . S
C379 C380 1.391 . S
C379 C384 1.391 . S
C379 H409 0.948 . S
C380 C379 1.391 . S
C380 C381 1.391 . S
C381 C380 1.391 . S
C381 C382 1.392 . S
C381 H410 0.947 . S
C382 C381 1.392 . S
C382 C383 1.419 . S
C382 H411 0.948 . S
C383 C382 1.419 . S
C383 C384 1.391 . S
C383 C387 1.397 . S
C384 C379 1.391 . S
C384 C383 1.391 . S
C384 C385 1.399 . S
C385 C384 1.399 . S
C385 C386 1.396 . S
C385 C388 1.453 . S
C385 C389 1.684 . S
C386 C367 1.723 . S
C386 C385 1.396 . S
C386 C387 1.394 . S
C387 C383 1.397 . S
C387 C386 1.394 . S
C387 C397 1.723 . S
C388 C385 1.453 . S
C388 H412 0.982 . S
C388 H413 0.979 . S
C388 H414 0.977 . S
C389 C385 1.684 . S
C389 H415 0.979 . S
C389 H416 0.980 . S
C389 H417 0.983 . S
C390 H366 0.948 . S
C390 C391 1.391 . S
C390 C395 1.391 . S
C391 C390 1.391 . S
C391 C392 1.391 . S
C392 H369 0.947 . S
C392 C391 1.391 . S
C392 C393 1.392 . S
C393 H370 0.948 . S
C393 C392 1.392 . S
C393 C394 1.419 . S
C394 C393 1.419 . S
C394 C395 1.391 . S
C394 C398 1.397 . S
C395 C390 1.391 . S
C395 C394 1.391 . S
C395 C396 1.399 . S
C396 C395 1.399 . S
C396 C397 1.396 . S
C396 C399 1.453 . S
C396 C400 1.684 . S
C397 C387 1.723 . S
C397 C396 1.396 . S
C397 C398 1.394 . S
C398 C368 1.723 . S
C398 C394 1.397 . S
C398 C397 1.394 . S
C399 H371 0.982 . S
C399 H375 0.979 . S
C399 H376 0.977 . S
C399 C396 1.453 . S
C400 H372 0.979 . S
C400 H373 0.980 . S
C400 H374 0.983 . S
C400 C396 1.684 . S
H401 C419 0.948 . S
H402 C360 0.948 . S
H403 C378 0.979 . S
H404 C378 0.980 . S
H405 C378 0.983 . S
H406 C377 0.982 . S
H407 C377 0.979 . S
H408 C377 0.977 . S
H409 C379 0.948 . S
H410 C381 0.947 . S
H411 C382 0.948 . S
H412 C388 0.982 . S
H413 C388 0.979 . S
H414 C388 0.977 . S
H415 C389 0.979 . S
H416 C389 0.980 . S
H417 C389 0.983 . S
H418 C362 0.947 1_545 S
C419 C362 1.392 . S
C419 C363 1.419 . S
C419 H401 0.948 . S
C420 C421 1.391 . S
C420 C424 1.391 . S
C420 H462 0.948 . S
C421 C420 1.391 . S
C421 C422 1.391 . S
C422 C421 1.391 . S
C422 H478 0.947 . S
C422 C479 1.392 . S
C423 C424 1.391 . S
C423 C427 1.397 . S
C423 C479 1.419 . S
C424 C420 1.391 . S
C424 C423 1.391 . S
C424 C425 1.399 . S
C425 C424 1.399 . S
C425 C428 1.396 . S
C425 C437 1.453 . S
C425 C438 1.684 . S
H426 C450 0.948 . S
C427 C423 1.397 . S
C427 C428 1.394 . S
C427 C446 1.723 . S
C428 C425 1.396 . S
C428 C427 1.394 . S
C428 C458 1.723 . S
H429 C452 0.947 . S
H430 C453 0.948 . S
H431 C459 0.982 . S
H432 C460 0.979 . S
H433 C460 0.980 . S
H434 C460 0.983 . S
H435 C459 0.979 . S
H436 C459 0.977 . S
C437 C425 1.453 . S
C437 H466 0.982 . S
C437 H467 0.979 . S
C437 H468 0.977 . S
C438 C425 1.684 . S
C438 H463 0.979 . S
C438 H464 0.980 . S
C438 H465 0.983 . S
C439 C440 1.391 1_556 S
C439 C444 1.391 . S
C439 H469 0.948 . S
C440 C439 1.391 1_554 S
C440 C441 1.391 1_554 S
C441 C440 1.391 1_556 S
C441 C442 1.392 . S
C441 H470 0.963 . S
C442 C441 1.392 . S
C442 C443 1.419 . S
C442 H471 0.948 . S
C443 C442 1.419 . S
C443 C444 1.391 . S
C443 C447 1.397 . S
C444 C439 1.391 . S
C444 C443 1.391 . S
C444 C445 1.399 . S
C445 C444 1.399 . S
C445 C446 1.396 . S
C445 C448 1.453 . S
C445 C449 1.684 . S
C446 C427 1.723 . S
C446 C445 1.396 . S
C446 C447 1.394 . S
C447 C443 1.397 . S
C447 C446 1.394 . S
C447 C457 1.723 . S
C448 C445 1.453 . S
C448 H472 0.982 . S
C448 H473 0.979 . S
C448 H474 0.977 . S
C449 C445 1.684 . S
C449 H475 0.979 . S
C449 H476 0.980 . S
C449 H477 0.983 . S
C450 H426 0.948 . S
C450 C451 1.391 . S
C450 C455 1.391 . S
C451 C450 1.391 . S
C451 C452 1.391 . S
C452 H429 0.947 . S
C452 C451 1.391 . S
C452 C453 1.392 . S
C453 H430 0.948 . S
C453 C452 1.392 . S
C453 C454 1.419 . S
C454 C453 1.419 . S
C454 C455 1.391 . S
C454 C458 1.397 . S
C455 C450 1.391 . S
C455 C454 1.391 . S
C455 C456 1.399 . S
C456 C455 1.399 . S
C456 C457 1.396 . S
C456 C459 1.453 . S
C456 C460 1.684 . S
C457 C447 1.723 . S
C457 C456 1.396 . S
C457 C458 1.394 . S
C458 C428 1.723 . S
C458 C454 1.397 . S
C458 C457 1.394 . S
C459 H431 0.982 . S
C459 H435 0.979 . S
C459 H436 0.977 . S
C459 C456 1.453 . S
C460 H432 0.979 . S
C460 H433 0.980 . S
C460 H434 0.983 . S
C460 C456 1.684 . S
H461 C479 0.948 . S
H462 C420 0.948 . S
H463 C438 0.979 . S
H464 C438 0.980 . S
H465 C438 0.983 . S
H466 C437 0.982 . S
H467 C437 0.979 . S
H468 C437 0.977 . S
H469 C439 0.948 . S
H470 C441 0.963 . S
H471 C442 0.948 . S
H472 C448 0.982 . S
H473 C448 0.979 . S
H474 C448 0.977 . S
H475 C449 0.979 . S
H476 C449 0.980 . S
H477 C449 0.983 . S
H478 C422 0.947 . S
C479 C422 1.392 . S
C479 C423 1.419 . S
C479 H461 0.948 . S
Tb480 N509 2.617 . S
Tb480 N515 2.572 . S
Tb480 O524 2.465 . S
Tb480 O525 2.387 . S
Tb480 O527 2.428 . S
Tb480 O528 2.301 1_455 S
Tb480 O532 2.362 . S
Tb480 O535 2.393 . S
Tb480 C544 2.802 . S
C481 N482 1.379 . S
C481 C484 1.416 . S
C481 C488 1.424 . S
N482 C481 1.379 . S
N482 C485 1.334 . S
N482 Tb491 2.617 . S
C483 C485 1.390 . S
C483 C486 1.339 . S
C483 H503 0.930 . S
C484 C481 1.416 . S
C484 C486 1.416 . S
C484 C490 1.448 . S
C485 N482 1.334 . S
C485 C483 1.390 . S
C485 H496 0.930 . S
C486 C483 1.339 . S
C486 C484 1.416 . S
C486 H507 0.930 . S
C487 C488 1.413 . S
C487 C489 1.427 . S
C487 C493 1.416 . S
C488 C481 1.424 . S
C488 C487 1.413 . S
C488 N492 1.361 . S
C489 C487 1.427 . S
C489 C490 1.328 . S
C489 H504 0.929 . S
C490 C484 1.448 . S
C490 C489 1.328 . S
C490 H505 0.930 . S
Tb491 N482 2.617 . S
Tb491 N492 2.572 . S
Tb491 O526 2.334 1_655 S
Tb491 O529 2.393 . S
Tb491 O530 2.465 . S
Tb491 O531 2.387 . S
Tb491 O533 2.428 . S
Tb491 O534 2.308 1_655 S
Tb491 C555 2.802 . S
N492 C488 1.361 . S
N492 Tb491 2.572 . S
N492 C494 1.340 . S
C493 C487 1.416 . S
C493 C495 1.332 . S
C493 H501 0.931 . S
C494 N492 1.340 . S
C494 C495 1.407 . S
C494 H500 0.930 . S
C495 C493 1.332 . S
C495 C494 1.407 . S
C495 H497 0.929 . S
H496 C485 0.930 . S
H497 C495 0.929 . S
H498 C513 0.930 . S
H499 C520 0.929 . S
H500 C494 0.930 . S
H501 C493 0.931 . S
H502 C516 0.930 . S
H503 C483 0.930 . S
H504 C489 0.929 . S
H505 C490 0.930 . S
H506 C511 0.930 . S
H507 C486 0.930 . S
H508 C519 0.931 . S
N509 Tb480 2.617 . S
N509 C510 1.379 . S
N509 C513 1.334 . S
C510 N509 1.379 . S
C510 C512 1.416 . S
C510 C518 1.424 . S
C511 H506 0.930 . S
C511 C513 1.390 . S
C511 C514 1.339 . S
C512 C510 1.416 . S
C512 C514 1.416 . S
C512 C545 1.448 . S
C513 H498 0.930 . S
C513 N509 1.334 . S
C513 C511 1.390 . S
C514 C511 1.339 . S
C514 C512 1.416 . S
C514 H521 0.930 . S
N515 Tb480 2.572 . S
N515 C516 1.340 . S
N515 C518 1.361 . S
C516 H502 0.930 . S
C516 N515 1.340 . S
C516 C520 1.407 . S
C517 C518 1.413 . S
C517 C519 1.416 . S
C517 C546 1.427 . S
C518 C510 1.424 . S
C518 N515 1.361 . S
C518 C517 1.413 . S
C519 H508 0.931 . S
C519 C517 1.416 . S
C519 C520 1.332 . S
C520 H499 0.929 . S
C520 C516 1.407 . S
C520 C519 1.332 . S
H521 C514 0.930 . S
H522 C545 0.930 . S
H523 C546 0.929 . S
O524 Tb480 2.465 . S
O524 C544 1.264 . S
O525 Tb480 2.387 . S
O525 C536 1.264 . S
O526 Tb491 2.334 1_455 S
O526 C536 1.262 . S
O527 Tb480 2.428 . S
O527 C544 1.256 . S
O528 Tb480 2.301 1_655 S
O528 C543 1.274 . S
O529 Tb491 2.393 . S
O529 C543 1.248 . S
O530 Tb491 2.465 . S
O530 C555 1.264 . S
O531 Tb491 2.387 . S
O531 C547 1.264 . S
O532 Tb480 2.362 . S
O532 C547 1.227 1_455 S
O533 Tb491 2.428 . S
O533 C555 1.256 . S
O534 Tb491 2.308 1_455 S
O534 C554 1.266 . S
O535 Tb480 2.393 . S
O535 C554 1.248 . S
C536 O525 1.264 . S
C536 O526 1.262 . S
C537 C540 1.399 . S
C537 C542 1.383 . S
C537 C544 1.496 . S
C538 C539 1.399 . S
C538 C542 1.389 . S
C539 C538 1.399 . S
C539 C541 1.380 . S
C539 H556 0.929 . S
C540 C537 1.399 . S
C540 C541 1.392 . S
C540 H557 0.929 . S
C541 C539 1.380 . S
C541 C540 1.392 . S
C541 H558 0.929 . S
C542 C537 1.383 . S
C542 C538 1.389 . S
C542 H559 0.931 . S
C543 O528 1.274 . S
C543 O529 1.248 . S
C544 Tb480 2.802 . S
C544 O524 1.264 . S
C544 O527 1.256 . S
C544 C537 1.496 . S
C545 C512 1.448 . S
C545 H522 0.930 . S
C545 C546 1.328 . S
C546 C517 1.427 . S
C546 H523 0.929 . S
C546 C545 1.328 . S
C547 O531 1.264 . S
C547 O532 1.227 1_655 S
C548 C551 1.399 . S
C548 C552 1.383 . S
C548 C555 1.496 . S
C549 C550 1.399 . S
C549 C552 1.389 . S
C550 C549 1.399 . S
C550 C553 1.380 . S
C550 H560 0.929 . S
C551 C548 1.399 . S
C551 C553 1.392 . S
C551 H561 0.929 . S
C552 C548 1.383 . S
C552 C549 1.389 . S
C552 H562 0.931 . S
C553 C550 1.380 . S
C553 C551 1.392 . S
C553 H563 0.929 . S
C554 O534 1.266 . S
C554 O535 1.248 . S
C555 Tb491 2.802 . S
C555 O530 1.264 . S
C555 O533 1.256 . S
C555 C548 1.496 . S
H556 C539 0.929 . S
H557 C540 0.929 . S
H558 C541 0.929 . S
H559 C542 0.931 . S
H560 C550 0.929 . S
H561 C551 0.929 . S
H562 C552 0.931 . S
H563 C553 0.929 . S
Tb564 N593 2.617 . S
Tb564 N599 2.572 . S
Tb564 O608 2.465 . S
Tb564 O609 2.387 . S
Tb564 O611 2.428 . S
Tb564 O612 2.308 . S
Tb564 O616 2.349 . S
Tb564 O619 2.393 . S
Tb564 C628 2.802 . S
C565 N566 1.379 . S
C565 C568 1.416 . S
C565 C572 1.424 . S
N566 C565 1.379 . S
N566 C569 1.334 . S
N566 Tb575 2.617 . S
C567 C569 1.390 . S
C567 C570 1.339 . S
C567 H587 0.930 . S
C568 C565 1.416 . S
C568 C570 1.416 . S
C568 C574 1.448 . S
C569 N566 1.334 . S
C569 C567 1.390 . S
C569 H580 0.930 . S
C570 C567 1.339 . S
C570 C568 1.416 . S
C570 H591 0.930 . S
C571 C572 1.413 . S
C571 C573 1.427 . S
C571 C577 1.416 . S
C572 C565 1.424 . S
C572 C571 1.413 . S
C572 N576 1.361 . S
C573 C571 1.427 . S
C573 C574 1.328 . S
C573 H588 0.929 . S
C574 C568 1.448 . S
C574 C573 1.328 . S
C574 H589 0.930 . S
Tb575 N566 2.617 . S
Tb575 N576 2.572 . S
Tb575 O610 2.349 . S
Tb575 O613 2.393 . S
Tb575 O614 2.465 . S
Tb575 O615 2.387 . S
Tb575 O617 2.428 . S
Tb575 O618 2.308 . S
Tb575 C639 2.802 . S
N576 C572 1.361 . S
N576 Tb575 2.572 . S
N576 C578 1.340 . S
C577 C571 1.416 . S
C577 C579 1.332 . S
C577 H585 0.931 . S
C578 N576 1.340 . S
C578 C579 1.407 . S
C578 H584 0.930 . S
C579 C577 1.332 . S
C579 C578 1.407 . S
C579 H581 0.929 . S
H580 C569 0.930 . S
H581 C579 0.929 . S
H582 C597 0.930 . S
H583 C604 0.929 . S
H584 C578 0.930 . S
H585 C577 0.931 . S
H586 C600 0.930 . S
H587 C567 0.930 . S
H588 C573 0.929 . S
H589 C574 0.930 . S
H590 C595 0.930 . S
H591 C570 0.930 . S
H592 C603 0.931 . S
N593 Tb564 2.617 . S
N593 C594 1.379 . S
N593 C597 1.334 . S
C594 N593 1.379 . S
C594 C596 1.416 . S
C594 C602 1.424 . S
C595 H590 0.930 . S
C595 C597 1.390 . S
C595 C598 1.339 . S
C596 C594 1.416 . S
C596 C598 1.416 . S
C596 C629 1.448 . S
C597 H582 0.930 . S
C597 N593 1.334 . S
C597 C595 1.390 . S
C598 C595 1.339 . S
C598 C596 1.416 . S
C598 H605 0.930 . S
N599 Tb564 2.572 . S
N599 C600 1.340 . S
N599 C602 1.361 . S
C600 H586 0.930 . S
C600 N599 1.340 . S
C600 C604 1.407 . S
C601 C602 1.413 . S
C601 C603 1.416 . S
C601 C630 1.427 . S
C602 C594 1.424 . S
C602 N599 1.361 . S
C602 C601 1.413 . S
C603 H592 0.931 . S
C603 C601 1.416 . S
C603 C604 1.332 . S
C604 H583 0.929 . S
C604 C600 1.407 . S
C604 C603 1.332 . S
H605 C598 0.930 . S
H606 C629 0.930 . S
H607 C630 0.929 . S
O608 Tb564 2.465 . S
O608 C628 1.264 . S
O609 Tb564 2.387 . S
O609 C620 1.264 . S
O610 Tb575 2.349 . S
O610 C620 1.243 . S
O611 Tb564 2.428 . S
O611 C628 1.256 . S
O612 Tb564 2.308 . S
O612 C627 1.266 . S
O613 Tb575 2.393 . S
O613 C627 1.248 . S
O614 Tb575 2.465 . S
O614 C639 1.264 . S
O615 Tb575 2.387 . S
O615 C631 1.264 . S
O616 Tb564 2.349 . S
O616 C631 1.243 . S
O617 Tb575 2.428 . S
O617 C639 1.256 . S
O618 Tb575 2.308 . S
O618 C638 1.266 . S
O619 Tb564 2.393 . S
O619 C638 1.248 . S
C620 O609 1.264 . S
C620 O610 1.243 . S
C621 C624 1.399 . S
C621 C626 1.383 . S
C621 C628 1.496 . S
C622 C623 1.399 . S
C622 C626 1.389 . S
C623 C622 1.399 . S
C623 C625 1.380 . S
C623 H640 0.929 . S
C624 C621 1.399 . S
C624 C625 1.392 . S
C624 H641 0.929 . S
C625 C623 1.380 . S
C625 C624 1.392 . S
C625 H642 0.929 . S
C626 C621 1.383 . S
C626 C622 1.389 . S
C626 H643 0.931 . S
C627 O612 1.266 . S
C627 O613 1.248 . S
C628 Tb564 2.802 . S
C628 O608 1.264 . S
C628 O611 1.256 . S
C628 C621 1.496 . S
C629 C596 1.448 . S
C629 H606 0.930 . S
C629 C630 1.328 . S
C630 C601 1.427 . S
C630 H607 0.929 . S
C630 C629 1.328 . S
C631 O615 1.264 . S
C631 O616 1.243 . S
C632 C635 1.399 . S
C632 C636 1.383 . S
C632 C639 1.496 . S
C633 C634 1.399 . S
C633 C636 1.389 . S
C634 C633 1.399 . S
C634 C637 1.380 . S
C634 H644 0.929 . S
C635 C632 1.399 . S
C635 C637 1.392 . S
C635 H645 0.929 . S
C636 C632 1.383 . S
C636 C633 1.389 . S
C636 H646 0.931 . S
C637 C634 1.380 . S
C637 C635 1.392 . S
C637 H647 0.929 . S
C638 O618 1.266 . S
C638 O619 1.248 . S
C639 Tb575 2.802 . S
C639 O614 1.264 . S
C639 O617 1.256 . S
C639 C632 1.496 . S
H640 C623 0.929 . S
H641 C624 0.929 . S
H642 C625 0.929 . S
H643 C626 0.931 . S
H644 C634 0.929 . S
H645 C635 0.929 . S
H646 C636 0.931 . S
H647 C637 0.929 . S
Tb648 N677 2.617 . S
Tb648 N683 2.572 . S
Tb648 O692 2.465 . S
Tb648 O693 2.387 . S
Tb648 O695 2.428 . S
Tb648 O696 2.308 . S
Tb648 O700 2.349 . S
Tb648 O703 2.393 . S
Tb648 C712 2.802 . S
C649 N650 1.379 . S
C649 C652 1.416 . S
C649 C656 1.424 . S
N650 C649 1.379 . S
N650 C653 1.334 . S
N650 Tb659 2.617 . S
C651 C653 1.390 . S
C651 C654 1.339 . S
C651 H671 0.930 . S
C652 C649 1.416 . S
C652 C654 1.416 . S
C652 C658 1.448 . S
C653 N650 1.334 . S
C653 C651 1.390 . S
C653 H664 0.930 . S
C654 C651 1.339 . S
C654 C652 1.416 . S
C654 H675 0.930 . S
C655 C656 1.413 . S
C655 C657 1.427 . S
C655 C661 1.416 . S
C656 C649 1.424 . S
C656 C655 1.413 . S
C656 N660 1.361 . S
C657 C655 1.427 . S
C657 C658 1.328 . S
C657 H672 0.929 . S
C658 C652 1.448 . S
C658 C657 1.328 . S
C658 H673 0.930 . S
Tb659 N650 2.617 . S
Tb659 N660 2.572 . S
Tb659 O694 2.349 1_655 S
Tb659 O697 2.393 . S
Tb659 O698 2.465 . S
Tb659 O699 2.387 . S
Tb659 O701 2.428 . S
Tb659 O702 2.308 1_655 S
Tb659 C723 2.802 . S
N660 C656 1.361 . S
N660 Tb659 2.572 . S
N660 C662 1.340 . S
C661 C655 1.416 . S
C661 C663 1.332 . S
C661 H669 0.931 . S
C662 N660 1.340 . S
C662 C663 1.407 . S
C662 H668 0.930 . S
C663 C661 1.332 . S
C663 C662 1.407 . S
C663 H665 0.929 . S
H664 C653 0.930 . S
H665 C663 0.929 . S
H666 C681 0.930 . S
H667 C688 0.929 . S
H668 C662 0.930 . S
H669 C661 0.931 . S
H670 C684 0.930 . S
H671 C651 0.930 . S
H672 C657 0.929 . S
H673 C658 0.930 . S
H674 C679 0.930 . S
H675 C654 0.930 . S
H676 C687 0.931 . S
N677 Tb648 2.617 . S
N677 C678 1.379 . S
N677 C681 1.334 . S
C678 N677 1.379 . S
C678 C680 1.416 . S
C678 C686 1.424 . S
C679 H674 0.930 . S
C679 C681 1.390 . S
C679 C682 1.339 . S
C680 C678 1.416 . S
C680 C682 1.416 . S
C680 C713 1.448 . S
C681 H666 0.930 . S
C681 N677 1.334 . S
C681 C679 1.390 . S
C682 C679 1.339 . S
C682 C680 1.416 . S
C682 H689 0.930 . S
N683 Tb648 2.572 . S
N683 C684 1.340 . S
N683 C686 1.361 . S
C684 H670 0.930 . S
C684 N683 1.340 . S
C684 C688 1.407 . S
C685 C686 1.413 . S
C685 C687 1.416 . S
C685 C714 1.427 . S
C686 C678 1.424 . S
C686 N683 1.361 . S
C686 C685 1.413 . S
C687 H676 0.931 . S
C687 C685 1.416 . S
C687 C688 1.332 . S
C688 H667 0.929 . S
C688 C684 1.407 . S
C688 C687 1.332 . S
H689 C682 0.930 . S
H690 C713 0.930 . S
H691 C714 0.929 . S
O692 Tb648 2.465 . S
O692 C712 1.264 . S
O693 Tb648 2.387 . S
O693 C704 1.264 . S
O694 Tb659 2.349 1_455 S
O694 C704 1.243 . S
O695 Tb648 2.428 . S
O695 C712 1.256 . S
O696 Tb648 2.308 . S
O696 C711 1.266 1_455 S
O697 Tb659 2.393 . S
O697 C711 1.248 . S
O698 Tb659 2.465 . S
O698 C723 1.264 . S
O699 Tb659 2.387 . S
O699 C715 1.264 . S
O700 Tb648 2.349 . S
O700 C715 1.243 1_455 S
O701 Tb659 2.428 . S
O701 C723 1.256 . S
O702 Tb659 2.308 1_455 S
O702 C722 1.266 . S
O703 Tb648 2.393 . S
O703 C722 1.248 . S
C704 O693 1.264 . S
C704 O694 1.243 . S
C705 C708 1.399 . S
C705 C710 1.383 . S
C705 C712 1.496 . S
C706 C707 1.399 . S
C706 C710 1.389 . S
C707 C706 1.399 . S
C707 C709 1.380 . S
C707 H724 0.929 . S
C708 C705 1.399 . S
C708 C709 1.392 . S
C708 H725 0.929 . S
C709 C707 1.380 . S
C709 C708 1.392 . S
C709 H726 0.929 . S
C710 C705 1.383 . S
C710 C706 1.389 . S
C710 H727 0.931 . S
C711 O696 1.266 1_655 S
C711 O697 1.248 . S
C712 Tb648 2.802 . S
C712 O692 1.264 . S
C712 O695 1.256 . S
C712 C705 1.496 . S
C713 C680 1.448 . S
C713 H690 0.930 . S
C713 C714 1.328 . S
C714 C685 1.427 . S
C714 H691 0.929 . S
C714 C713 1.328 . S
C715 O699 1.264 . S
C715 O700 1.243 1_655 S
C716 C719 1.399 . S
C716 C720 1.383 . S
C716 C723 1.496 . S
C717 C718 1.399 . S
C717 C720 1.389 . S
C718 C717 1.399 . S
C718 C721 1.380 . S
C718 H728 0.929 . S
C719 C716 1.399 . S
C719 C721 1.392 . S
C719 H729 0.929 . S
C720 C716 1.383 . S
C720 C717 1.389 . S
C720 H730 0.931 . S
C721 C718 1.380 . S
C721 C719 1.392 . S
C721 H731 0.929 . S
C722 O702 1.266 . S
C722 O703 1.248 . S
C723 Tb659 2.802 . S
C723 O698 1.264 . S
C723 O701 1.256 . S
C723 C716 1.496 . S
H724 C707 0.929 . S
H725 C708 0.929 . S
H726 C709 0.929 . S
H727 C710 0.931 . S
H728 C718 0.929 . S
H729 C719 0.929 . S
H730 C720 0.931 . S
H731 C721 0.929 . S
Tb732 N761 2.617 . S
Tb732 N767 2.572 . S
Tb732 O776 2.465 . S
Tb732 O777 2.387 . S
Tb732 O779 2.428 . S
Tb732 O780 2.308 . S
Tb732 O784 2.349 . S
Tb732 O787 2.393 . S
Tb732 C796 2.802 . S
C733 N734 1.379 . S
C733 C736 1.416 . S
C733 C740 1.424 . S
N734 C733 1.379 . S
N734 C737 1.334 . S
N734 Tb743 2.617 . S
C735 C737 1.390 . S
C735 C738 1.339 . S
C735 H755 0.930 . S
C736 C733 1.416 . S
C736 C738 1.416 . S
C736 C742 1.448 . S
C737 N734 1.334 . S
C737 C735 1.390 . S
C737 H748 0.930 . S
C738 C735 1.339 . S
C738 C736 1.416 . S
C738 H759 0.930 . S
C739 C740 1.413 . S
C739 C741 1.427 . S
C739 C745 1.416 . S
C740 C733 1.424 . S
C740 C739 1.413 . S
C740 N744 1.361 . S
C741 C739 1.427 . S
C741 C742 1.328 . S
C741 H756 0.929 . S
C742 C736 1.448 . S
C742 C741 1.328 . S
C742 H757 0.930 . S
Tb743 N734 2.617 . S
Tb743 N744 2.572 . S
Tb743 O778 2.349 . S
Tb743 O781 2.393 . S
Tb743 O782 2.465 . S
Tb743 O783 2.387 . S
Tb743 O785 2.428 . S
Tb743 O786 2.308 . S
Tb743 C807 2.802 . S
N744 C740 1.361 . S
N744 Tb743 2.572 . S
N744 C746 1.340 . S
C745 C739 1.416 . S
C745 C747 1.332 . S
C745 H753 0.931 . S
C746 N744 1.340 . S
C746 C747 1.407 . S
C746 H752 0.930 . S
C747 C745 1.332 . S
C747 C746 1.407 . S
C747 H749 0.929 . S
H748 C737 0.930 . S
H749 C747 0.929 . S
H750 C765 0.930 . S
H751 C772 0.929 . S
H752 C746 0.930 . S
H753 C745 0.931 . S
H754 C768 0.930 . S
H755 C735 0.930 . S
H756 C741 0.929 . S
H757 C742 0.930 . S
H758 C763 0.930 . S
H759 C738 0.930 . S
H760 C771 0.931 . S
N761 Tb732 2.617 . S
N761 C762 1.379 . S
N761 C765 1.334 . S
C762 N761 1.379 . S
C762 C764 1.416 . S
C762 C770 1.424 . S
C763 H758 0.930 . S
C763 C765 1.390 . S
C763 C766 1.339 . S
C764 C762 1.416 . S
C764 C766 1.416 . S
C764 C797 1.448 . S
C765 H750 0.930 . S
C765 N761 1.334 . S
C765 C763 1.390 . S
C766 C763 1.339 . S
C766 C764 1.416 . S
C766 H773 0.930 . S
N767 Tb732 2.572 . S
N767 C768 1.340 . S
N767 C770 1.361 . S
C768 H754 0.930 . S
C768 N767 1.340 . S
C768 C772 1.407 . S
C769 C770 1.413 . S
C769 C771 1.416 . S
C769 C798 1.427 . S
C770 C762 1.424 . S
C770 N767 1.361 . S
C770 C769 1.413 . S
C771 H760 0.931 . S
C771 C769 1.416 . S
C771 C772 1.332 . S
C772 H751 0.929 . S
C772 C768 1.407 . S
C772 C771 1.332 . S
H773 C766 0.930 . S
H774 C797 0.930 . S
H775 C798 0.929 . S
O776 Tb732 2.465 . S
O776 C796 1.264 . S
O777 Tb732 2.387 . S
O777 C788 1.264 . S
O778 Tb743 2.349 . S
O778 C788 1.243 . S
O779 Tb732 2.428 . S
O779 C796 1.256 . S
O780 Tb732 2.308 . S
O780 C795 1.266 . S
O781 Tb743 2.393 . S
O781 C795 1.248 . S
O782 Tb743 2.465 . S
O782 C807 1.264 . S
O783 Tb743 2.387 . S
O783 C799 1.264 . S
O784 Tb732 2.349 . S
O784 C799 1.243 . S
O785 Tb743 2.428 . S
O785 C807 1.256 . S
O786 Tb743 2.308 . S
O786 C806 1.266 . S
O787 Tb732 2.393 . S
O787 C806 1.248 . S
C788 O777 1.264 . S
C788 O778 1.243 . S
C789 C792 1.399 . S
C789 C794 1.383 . S
C789 C796 1.496 . S
C790 C791 1.399 . S
C790 C794 1.389 . S
C791 C790 1.399 . S
C791 C793 1.380 . S
C791 H808 0.929 . S
C792 C789 1.399 . S
C792 C793 1.392 . S
C792 H809 0.929 . S
C793 C791 1.380 . S
C793 C792 1.392 . S
C793 H810 0.929 . S
C794 C789 1.383 . S
C794 C790 1.389 . S
C794 H811 0.931 . S
C795 O780 1.266 . S
C795 O781 1.248 . S
C796 Tb732 2.802 . S
C796 O776 1.264 . S
C796 O779 1.256 . S
C796 C789 1.496 . S
C797 C764 1.448 . S
C797 H774 0.930 . S
C797 C798 1.328 . S
C798 C769 1.427 . S
C798 H775 0.929 . S
C798 C797 1.328 . S
C799 O783 1.264 . S
C799 O784 1.243 . S
C800 C803 1.399 . S
C800 C804 1.383 . S
C800 C807 1.496 . S
C801 C802 1.399 . S
C801 C804 1.389 . S
C802 C801 1.399 . S
C802 C805 1.380 . S
C802 H812 0.929 . S
C803 C800 1.399 . S
C803 C805 1.392 . S
C803 H813 0.929 . S
C804 C800 1.383 . S
C804 C801 1.389 . S
C804 H814 0.931 . S
C805 C802 1.380 . S
C805 C803 1.392 . S
C805 H815 0.929 . S
C806 O786 1.266 . S
C806 O787 1.248 . S
C807 Tb743 2.802 . S
C807 O782 1.264 . S
C807 O785 1.256 . S
C807 C800 1.496 . S
H808 C791 0.929 . S
H809 C792 0.929 . S
H810 C793 0.929 . S
H811 C794 0.931 . S
H812 C802 0.929 . S
H813 C803 0.929 . S
H814 C804 0.931 . S
H815 C805 0.929 . S
C816 C817 1.387 . S
C816 H820 0.929 1_545 S
C816 C825 1.390 . S
C817 C816 1.387 . S
C817 C819 1.387 . S
H818 C825 0.950 . S
C819 C817 1.387 . S
C819 C821 1.390 . S
C819 H823 0.950 . S
H820 C816 0.929 1_565 S
C821 C819 1.390 . S
C821 C822 1.387 . S
C821 H824 0.950 . S
C822 C821 1.387 . S
C822 C825 1.387 . S
H823 C819 0.950 . S
H824 C821 0.950 . S
C825 C816 1.390 . S
C825 H818 0.950 . S
C825 C822 1.387 . S
C826 C827 1.387 . S
C826 H830 0.950 . S
C826 C835 1.390 . S
C827 C826 1.387 . S
C827 C829 1.387 . S
H828 C835 0.950 . S
C829 C827 1.387 . S
C829 C831 1.390 . S
C829 H833 0.950 . S
H830 C826 0.950 . S
C831 C829 1.390 . S
C831 C832 1.387 . S
C831 H834 0.950 . S
C832 C831 1.387 . S
C832 C835 1.387 . S
H833 C829 0.950 . S
H834 C831 0.950 . S
C835 C826 1.390 . S
C835 H828 0.950 . S
C835 C832 1.387 . S
C836 C837 1.387 . S
C836 H840 0.950 . S
C836 C845 1.390 . S
C837 C836 1.387 . S
C837 C839 1.387 . S
H838 C845 0.950 . S
C839 C837 1.387 . S
C839 C841 1.390 . S
C839 H843 0.950 . S
H840 C836 0.950 . S
C841 C839 1.390 . S
C841 C842 1.387 . S
C841 H844 0.950 . S
C842 C841 1.387 . S
C842 C845 1.387 . S
H843 C839 0.950 . S
H844 C841 0.950 . S
C845 C836 1.390 . S
C845 H838 0.950 . S
C845 C842 1.387 . S
C846 C847 1.387 . S
C846 H850 0.950 . S
C846 C855 1.390 . S
C847 C846 1.387 . S
C847 C849 1.387 . S
H848 C855 0.950 . S
C849 C847 1.387 . S
C849 C851 1.390 . S
C849 H853 0.950 . S
H850 C846 0.950 . S
C851 C849 1.390 . S
C851 C852 1.387 . S
C851 H854 0.950 . S
C852 C851 1.387 . S
C852 C855 1.387 . S
H853 C849 0.950 . S
H854 C851 0.950 . S
C855 C846 1.390 . S
C855 H848 0.950 . S
C855 C852 1.387 . S
C856 C857 1.387 . S
C856 H860 0.950 . S
C856 C865 1.390 . S
C857 C856 1.387 . S
C857 C859 1.387 . S
H858 C865 0.950 . S
C859 C857 1.387 . S
C859 C861 1.390 . S
C859 H863 0.950 . S
H860 C856 0.950 . S
C861 C859 1.390 . S
C861 C862 1.387 . S
C861 H864 0.950 . S
C862 C861 1.387 . S
C862 C865 1.387 . S
H863 C859 0.950 . S
H864 C861 0.950 . S
C865 C856 1.390 . S
C865 H858 0.950 . S
C865 C862 1.387 . S
C866 C867 1.387 . S
C866 H870 0.950 . S
C866 C875 1.390 . S
C867 C866 1.387 . S
C867 C869 1.387 . S
H868 C875 0.950 . S
C869 C867 1.387 . S
C869 C871 1.390 . S
C869 H873 0.950 . S
H870 C866 0.950 . S
C871 C869 1.390 . S
C871 C872 1.387 . S
C871 H874 0.950 . S
C872 C871 1.387 . S
C872 C875 1.387 . S
H873 C869 0.950 . S
H874 C871 0.950 . S
C875 C866 1.390 . S
C875 H868 0.950 . S
C875 C872 1.387 . S
C876 C877 1.387 . S
C876 H880 0.950 . S
C876 C885 1.390 . S
C877 C876 1.387 . S
C877 C879 1.387 . S
H878 C885 0.950 . S
C879 C877 1.387 . S
C879 C881 1.390 . S
C879 H883 0.950 . S
H880 C876 0.950 . S
C881 C879 1.390 . S
C881 C882 1.387 . S
C881 H884 0.950 . S
C882 C881 1.387 . S
C882 C885 1.387 . S
H883 C879 0.950 . S
H884 C881 0.950 . S
C885 C876 1.390 . S
C885 H878 0.950 . S
C885 C882 1.387 . S
C886 C887 1.387 . S
C886 H890 0.950 1_565 S
C886 C895 1.390 . S
C887 C886 1.387 . S
C887 C889 1.387 . S
H888 C895 0.950 . S
C889 C887 1.387 . S
C889 C891 1.390 . S
C889 H893 0.950 . S
H890 C886 0.950 1_545 S
C891 C889 1.390 . S
C891 C892 1.387 . S
C891 H894 0.950 . S
C892 C891 1.387 . S
C892 C895 1.387 . S
H893 C889 0.950 . S
H894 C891 0.950 . S
C895 C886 1.390 . S
C895 H888 0.950 . S
C895 C892 1.387 . S
C896 C897 1.387 . S
C896 H900 0.950 . S
C896 C905 1.390 . S
C897 C896 1.387 . S
C897 C899 1.387 . S
H898 C905 0.950 . S
C899 C897 1.387 . S
C899 C901 1.390 . S
C899 H903 0.950 . S
H900 C896 0.950 . S
C901 C899 1.390 . S
C901 C902 1.387 . S
C901 H904 0.950 . S
C902 C901 1.387 . S
C902 C905 1.387 . S
H903 C899 0.950 . S
H904 C901 0.950 . S
C905 C896 1.390 . S
C905 H898 0.950 . S
C905 C902 1.387 . S
C906 C907 1.387 . S
C906 H910 0.950 . S
C906 C915 1.390 . S
C907 C906 1.387 . S
C907 C909 1.387 . S
H908 C915 0.950 . S
C909 C907 1.387 . S
C909 C911 1.390 . S
C909 H913 0.950 . S
H910 C906 0.950 . S
C911 C909 1.390 . S
C911 C912 1.387 . S
C911 H914 0.950 . S
C912 C911 1.387 . S
C912 C915 1.387 . S
H913 C909 0.950 . S
H914 C911 0.950 . S
C915 C906 1.390 . S
C915 H908 0.950 . S
C915 C912 1.387 . S
C916 C917 1.387 . S
C916 H920 0.950 . S
C916 C925 1.390 . S
C917 C916 1.387 . S
C917 C919 1.387 . S
H918 C925 0.950 . S
C919 C917 1.387 . S
C919 C921 1.390 . S
C919 H923 0.950 . S
H920 C916 0.950 . S
C921 C919 1.390 . S
C921 C922 1.387 . S
C921 H924 0.950 . S
C922 C921 1.387 . S
C922 C925 1.387 . S
H923 C919 0.950 . S
H924 C921 0.950 . S
C925 C916 1.390 . S
C925 H918 0.950 . S
C925 C922 1.387 . S
C926 C927 1.387 . S
C926 H930 0.950 . S
C926 C935 1.390 . S
C927 C926 1.387 . S
C927 C929 1.387 . S
H928 C935 0.950 . S
C929 C927 1.387 . S
C929 C931 1.390 . S
C929 H933 0.950 . S
H930 C926 0.950 . S
C931 C929 1.390 . S
C931 C932 1.387 . S
C931 H934 0.950 . S
C932 C931 1.387 . S
C932 C935 1.387 . S
H933 C929 0.950 . S
H934 C931 0.950 . S
C935 C926 1.390 . S
C935 H928 0.950 . S
C935 C932 1.387 . S
C936 C937 1.387 . S
C936 H940 0.950 . S
C936 C945 1.390 . S
C937 C936 1.387 . S
C937 C939 1.387 . S
H938 C945 0.950 . S
C939 C937 1.387 . S
C939 C941 1.390 . S
C939 H943 0.950 . S
H940 C936 0.950 . S
C941 C939 1.390 . S
C941 C942 1.387 . S
C941 H944 0.950 . S
C942 C941 1.387 . S
C942 C945 1.387 . S
H943 C939 0.950 . S
H944 C941 0.950 . S
C945 C936 1.390 . S
C945 H938 0.950 . S
C945 C942 1.387 . S
C946 C947 1.387 . S
C946 H950 0.950 . S
C946 C955 1.390 . S
C947 C946 1.387 . S
C947 C949 1.387 . S
H948 C955 0.950 . S
C949 C947 1.387 . S
C949 C951 1.390 . S
C949 H953 0.950 . S
H950 C946 0.950 . S
C951 C949 1.390 . S
C951 C952 1.387 . S
C951 H954 0.950 . S
C952 C951 1.387 . S
C952 C955 1.387 . S
H953 C949 0.950 . S
H954 C951 0.950 . S
C955 C946 1.390 . S
C955 H948 0.950 . S
C955 C952 1.387 . S
C956 C957 1.387 . S
C956 H960 0.950 . S
C956 C965 1.390 . S
C957 C956 1.387 . S
C957 C959 1.387 . S
H958 C965 0.950 . S
C959 C957 1.387 . S
C959 C961 1.390 . S
C959 H963 0.950 . S
H960 C956 0.950 . S
C961 C959 1.390 . S
C961 C962 1.387 . S
C961 H964 0.950 . S
C962 C961 1.387 . S
C962 C965 1.387 . S
H963 C959 0.950 . S
H964 C961 0.950 . S
C965 C956 1.390 . S
C965 H958 0.950 . S
C965 C962 1.387 . S
C966 C967 1.387 . S
C966 H970 0.950 . S
C966 C975 1.390 . S
C967 C966 1.387 . S
C967 C969 1.387 . S
H968 C975 0.950 . S
C969 C967 1.387 . S
C969 C971 1.390 . S
C969 H973 0.950 . S
H970 C966 0.950 . S
C971 C969 1.390 . S
C971 C972 1.387 . S
C971 H974 0.950 . S
C972 C971 1.387 . S
C972 C975 1.387 . S
H973 C969 0.950 . S
H974 C971 0.950 . S
C975 C966 1.390 . S
C975 H968 0.950 . S
C975 C972 1.387 . S
C976 C977 1.387 . S
C976 H980 0.950 . S
C976 C985 1.390 . S
C977 C976 1.387 . S
C977 C979 1.387 . S
H978 C985 0.950 . S
C979 C977 1.387 . S
C979 C981 1.390 . S
C979 H983 0.950 . S
H980 C976 0.950 . S
C981 C979 1.390 . S
C981 C982 1.387 . S
C981 H984 0.950 1_455 S
C982 C981 1.387 . S
C982 C985 1.387 . S
H983 C979 0.950 . S
H984 C981 0.950 1_655 S
C985 C976 1.390 . S
C985 H978 0.950 . S
C985 C982 1.387 . S
C986 C987 1.387 . S
C986 H990 0.950 . S
C986 C995 1.390 . S
C987 C986 1.387 . S
C987 C989 1.387 . S
H988 C995 0.950 . S
C989 C987 1.387 . S
C989 C991 1.390 . S
C989 H993 0.950 . S
H990 C986 0.950 . S
C991 C989 1.390 . S
C991 C992 1.387 . S
C991 H994 0.950 . S
C992 C991 1.387 . S
C992 C995 1.387 . S
H993 C989 0.950 . S
H994 C991 0.950 . S
C995 C986 1.390 . S
C995 H988 0.950 . S
C995 C992 1.387 . S
C996 C997 1.387 . S
C996 H1000 0.950 . S
C996 C1005 1.390 . S
C997 C996 1.387 . S
C997 C999 1.387 . S
H998 C1005 0.950 . S
C999 C997 1.387 . S
C999 C1001 1.390 . S
C999 H1003 0.950 . S
H1000 C996 0.950 . S
C1001 C999 1.390 . S
C1001 C1002 1.387 . S
C1001 H1004 0.950 . S
C1002 C1001 1.387 . S
C1002 C1005 1.387 . S
H1003 C999 0.950 . S
H1004 C1001 0.950 . S
C1005 C996 1.390 . S
C1005 H998 0.950 . S
C1005 C1002 1.387 . S
C1006 C1007 1.387 . S
C1006 H1010 0.950 . S
C1006 C1015 1.390 . S
C1007 C1006 1.387 . S
C1007 C1009 1.387 . S
H1008 C1015 0.950 . S
C1009 C1007 1.387 . S
C1009 C1011 1.390 . S
C1009 H1013 0.950 . S
H1010 C1006 0.950 . S
C1011 C1009 1.390 . S
C1011 C1012 1.387 . S
C1011 H1014 0.950 . S
C1012 C1011 1.387 . S
C1012 C1015 1.387 . S
H1013 C1009 0.950 . S
H1014 C1011 0.950 . S
C1015 C1006 1.390 . S
C1015 H1008 0.950 . S
C1015 C1012 1.387 . S
C1016 C1017 1.387 . S
C1016 H1020 0.950 . S
C1016 C1025 1.390 . S
C1017 C1016 1.387 . S
C1017 C1019 1.387 . S
H1018 C1025 0.950 1_455 S
C1019 C1017 1.387 . S
C1019 C1021 1.390 . S
C1019 H1023 0.950 . S
H1020 C1016 0.950 . S
C1021 C1019 1.390 . S
C1021 C1022 1.387 . S
C1021 H1024 0.950 . S
C1022 C1021 1.387 . S
C1022 C1025 1.387 . S
H1023 C1019 0.950 . S
H1024 C1021 0.950 . S
C1025 C1016 1.390 . S
C1025 H1018 0.950 1_655 S
C1025 C1022 1.387 . S
C1026 C1027 1.387 . S
C1026 H1030 0.950 . S
C1026 C1035 1.390 . S
C1027 C1026 1.387 . S
C1027 C1029 1.387 . S
H1028 C1035 0.950 . S
C1029 C1027 1.387 . S
C1029 C1031 1.390 . S
C1029 H1033 0.950 . S
H1030 C1026 0.950 . S
C1031 C1029 1.390 . S
C1031 C1032 1.387 . S
C1031 H1034 0.950 . S
C1032 C1031 1.387 . S
C1032 C1035 1.387 . S
H1033 C1029 0.950 . S
H1034 C1031 0.950 . S
C1035 C1026 1.390 . S
C1035 H1028 0.950 . S
C1035 C1032 1.387 . S
C1036 C1037 1.387 . S
C1036 H1040 0.950 . S
C1036 C1045 1.390 . S
C1037 C1036 1.387 . S
C1037 C1039 1.387 . S
H1038 C1045 0.950 . S
C1039 C1037 1.387 . S
C1039 C1041 1.390 . S
C1039 H1043 0.950 . S
H1040 C1036 0.950 . S
C1041 C1039 1.390 . S
C1041 C1042 1.387 . S
C1041 H1044 0.950 . S
C1042 C1041 1.387 . S
C1042 C1045 1.387 . S
H1043 C1039 0.950 . S
H1044 C1041 0.950 . S
C1045 C1036 1.390 . S
C1045 H1038 0.950 . S
C1045 C1042 1.387 . S
C1046 C1047 1.387 . S
C1046 H1050 0.950 . S
C1046 C1055 1.390 . S
C1047 C1046 1.387 . S
C1047 C1049 1.387 . S
H1048 C1055 0.950 . S
C1049 C1047 1.387 . S
C1049 C1051 1.390 . S
C1049 H1053 0.950 . S
H1050 C1046 0.950 . S
C1051 C1049 1.390 . S
C1051 C1052 1.387 . S
C1051 H1054 0.950 . S
C1052 C1051 1.387 . S
C1052 C1055 1.387 . S
H1053 C1049 0.950 . S
H1054 C1051 0.950 . S
C1055 C1046 1.390 . S
C1055 H1048 0.950 . S
C1055 C1052 1.387 . S
C817 C361 1.448 1_545 S
C822 C554 1.464 . S
C832 C638 1.465 . S
C827 C451 1.461 . S
C842 C631 1.473 . S
C837 C241 1.443 . S
C847 C331 1.459 1_545 S
C852 C547 1.475 . S
C862 C711 1.465 . S
C857 C140 1.438 1_565 S
C872 C795 1.466 . S
C867 C211 1.438 . S
C877 C20 1.429 . S
C882 C788 1.473 . S
C887 C91 1.429 1_565 S
C892 C704 1.473 . S
C902 C538 1.318 . S
C897 C80 1.475 . S
C912 C622 1.318 . S
C907 C1 1.475 . S
C922 C633 1.406 . S
C917 C200 1.529 . S
C932 C549 1.403 . S
C927 C121 1.496 . S
C942 C717 1.318 . S
C937 C320 1.507 . S
C947 C260 1.487 . S
C952 C801 1.323 . S
C962 C790 1.407 . S
C957 C440 1.525 . S
C967 C380 1.502 . S
C972 C706 1.406 . S
C982 C536 1.577 . S
C977 C31 1.552 . S
C992 C620 1.579 . S
C987 C61 1.551 . S
C997 C151 1.545 . S
C1002 C627 1.563 . S
C1012 C543 1.565 . S
C1007 C181 1.545 . S
C1022 C715 1.578 . S
C1017 C271 1.499 . S
C1027 C301 1.586 . S
C1032 C799 1.578 . S
C1037 C391 1.495 . S
C1042 C806 1.563 . S
C1047 C421 1.572 . S
C1052 C722 1.564 . S
