# Generated by pormake.
# Topology pth, (4,4)-cn, num edge types: 1
# Building blocks:
#     Node 0, Type 0, BuildingBlock: KUFVIS_clean_sbu_0, # of connection points: 4
#     Node 1, Type 0, BuildingBlock: KUFVIS_clean_sbu_0, # of connection points: 4
#     Node 2, Type 0, BuildingBlock: KUFVIS_clean_sbu_0, # of connection points: 4
#     Node 3, Type 1, BuildingBlock: AZAVOO_clean_linker_0, # of connection points: 4
#     Node 4, Type 1, BuildingBlock: AZAVOO_clean_linker_0, # of connection points: 4
#     Node 5, Type 1, BuildingBlock: AZAVOO_clean_linker_0, # of connection points: 4
#     Edge 6, Type (0, 1), BuildingBlock: FUNLAD_clean_linker_1, # of connection points: 2
#     Edge 7, Type (0, 1), BuildingBlock: FUNLAD_clean_linker_1, # of connection points: 2
#     Edge 8, Type (0, 1), BuildingBlock: FUNLAD_clean_linker_1, # of connection points: 2
#     Edge 9, Type (0, 1), BuildingBlock: FUNLAD_clean_linker_1, # of connection points: 2
#     Edge 10, Type (0, 1), BuildingBlock: FUNLAD_clean_linker_1, # of connection points: 2
#     Edge 11, Type (0, 1), BuildingBlock: FUNLAD_clean_linker_1, # of connection points: 2
#     Edge 12, Type (0, 1), BuildingBlock: FUNLAD_clean_linker_1, # of connection points: 2
#     Edge 13, Type (0, 1), BuildingBlock: FUNLAD_clean_linker_1, # of connection points: 2
#     Edge 14, Type (0, 1), BuildingBlock: FUNLAD_clean_linker_1, # of connection points: 2
#     Edge 15, Type (0, 1), BuildingBlock: FUNLAD_clean_linker_1, # of connection points: 2
#     Edge 16, Type (0, 1), BuildingBlock: FUNLAD_clean_linker_1, # of connection points: 2
#     Edge 17, Type (0, 1), BuildingBlock: FUNLAD_clean_linker_1, # of connection points: 2
# Relax obj value: 0.111
# Max RMSD: 0.225
# Mean RMSD: 0.161
data_MOF--net-pth--node1-KUFVIS_clean_sbu_0--node2-AZAVOO_clean_linker_0--edge1-FUNLAD_clean_linker_1
_symmetry_space_group_name_H-M    P1
_symmetry_Int_Tables_number       1
_symmetry_cell_setting            triclinic
loop_
_symmetry_equiv_pos_as_xyz
'x, y, z'
_cell_length_a     26.897892
_cell_length_b     27.179112
_cell_length_c     73.829402
_cell_angle_alpha  92.631095
_cell_angle_beta   91.016244
_cell_angle_gamma 120.20271
loop_
_atom_site_label
_atom_site_type_symbol
_atom_site_fract_x
_atom_site_fract_y
_atom_site_fract_z
_atom_type_partial_charge
Mn0 Mn 0.08981 0.06729 0.08269 0.0
Mn1 Mn 0.02573 0.13829 0.06726 0.0
C2 C 0.03832 0.03693 0.05525 0.0
C3 C 0.08837 0.00063 0.1016 0.0
C4 C 0.15322 0.1808 0.06478 0.0
O5 O 0.09283 0.11665 0.10468 0.0
O6 O 0.04018 0.15321 0.09399 0.0
C7 C 0.9148 0.07238 0.08483 0.0
N8 N 0.94449 0.09132 0.06951 0.0
C9 C 0.85723 0.04142 0.05065 0.0
C10 C 0.8257 0.02159 0.06624 0.0
C11 C 0.85463 0.03708 0.0834 0.0
C12 C 0.91712 0.07622 0.05292 0.0
H13 H 0.93689 0.08394 0.09805 0.0
C14 C 0.06788 0.1456 0.10679 0.0
O15 O 0.13648 0.04237 0.09651 0.0
O16 O 0.04099 0.99737 0.09569 0.0
N17 N 0.00843 0.12853 0.04165 0.0
C18 C 0.0449 0.15337 0.02802 0.0
C19 C 0.02276 0.14227 0.00998 0.0
C20 C 0.96331 0.10672 0.00617 0.0
C21 C 0.92638 0.0836 0.02048 0.0
C22 C 0.95088 0.09642 0.03819 0.0
H23 H 0.09061 0.18051 0.03084 0.0
O24 O 0.07355 0.01948 0.05962 0.0
O25 O 0.03218 0.06937 0.06747 0.0
O26 O 0.15253 0.13721 0.07086 0.0
O27 O 0.10925 0.18729 0.06392 0.0
C28 C 0.8662 0.04865 0.01787 0.0
C29 C 0.83164 0.02769 0.03295 0.0
H30 H 0.7793 0.99429 0.06519 0.0
H31 H 0.83061 0.02178 0.09549 0.0
H32 H 0.05147 0.16094 0.99905 0.0
H33 H 0.94643 0.09796 0.99224 0.0
H34 H 0.84604 0.03762 0.00432 0.0
H35 H 0.78543 0.00076 0.03077 0.0
Mn36 Mn 0.00451 0.04091 0.41571 0.0
Mn37 Mn 0.09213 0.1746 0.43459 0.0
C38 C 0.07082 0.05569 0.43853 0.0
C39 C 0.98453 0.96995 0.39313 0.0
C40 C 0.96841 0.09992 0.44472 0.0
O41 O 0.99508 0.09094 0.39794 0.0
O42 O 0.05801 0.17787 0.41084 0.0
C43 C 0.1816 0.21113 0.40734 0.0
N44 N 0.16639 0.20196 0.42489 0.0
C45 C 0.26379 0.23241 0.43496 0.0
C46 C 0.28052 0.24238 0.417 0.0
C47 C 0.23919 0.23152 0.40312 0.0
C48 C 0.20567 0.21142 0.4383 0.0
H49 H 0.15002 0.20286 0.39662 0.0
C50 C 0.02158 0.14517 0.39816 0.0
O51 O 0.94366 0.97047 0.40206 0.0
O52 O 0.03661 0.01176 0.39679 0.0
N53 N 0.12928 0.17971 0.45752 0.0
C54 C 0.10707 0.17211 0.47429 0.0
C55 C 0.1427 0.18079 0.48968 0.0
C56 C 0.20124 0.19915 0.48771 0.0
C57 C 0.22385 0.2099 0.47043 0.0
C58 C 0.18611 0.2 0.45559 0.0
H59 H 0.06231 0.15842 0.47587 0.0
O60 O 0.02802 0.00485 0.43434 0.0
O61 O 0.07495 0.09622 0.4288 0.0
O62 O 0.95715 0.05666 0.43414 0.0
O63 O 0.0167 0.1469 0.44561 0.0
C64 C 0.28254 0.23106 0.46739 0.0
C65 C 0.30254 0.24255 0.44968 0.0
H66 H 0.32493 0.2583 0.41371 0.0
H67 H 0.25173 0.23897 0.38922 0.0
H68 H 0.12511 0.17347 0.503 0.0
H69 H 0.22864 0.20587 0.4996 0.0
H70 H 0.31273 0.2389 0.47858 0.0
H71 H 0.3478 0.25897 0.44752 0.0
Mn72 Mn 0.07016 0.08598 0.75634 0.0
Mn73 Mn 0.02131 0.17375 0.77001 0.0
C74 C 0.11673 0.15132 0.78067 0.0
C75 C 0.12748 0.06598 0.73766 0.0
C76 C 0.96574 0.05044 0.7796 0.0
O77 O 0.01704 0.07782 0.73503 0.0
O78 O 0.99094 0.14063 0.74496 0.0
C79 C 0.08442 0.26297 0.74429 0.0
N80 N 0.07068 0.24771 0.76161 0.0
C81 C 0.12636 0.34534 0.77339 0.0
C82 C 0.14102 0.36221 0.75568 0.0
C83 C 0.12018 0.32079 0.74108 0.0
C84 C 0.09138 0.28704 0.77578 0.0
H85 H 0.06815 0.23125 0.73304 0.0
C86 C 0.98984 0.10445 0.733 0.0
O87 O 0.08333 0.02553 0.7451 0.0
O88 O 0.13743 0.11759 0.74068 0.0
N89 N 0.04562 0.20992 0.79391 0.0
C90 C 0.02564 0.18669 0.81006 0.0
C91 C 0.03877 0.22259 0.82587 0.0
C92 C 0.07254 0.28202 0.82495 0.0
C93 C 0.09298 0.30495 0.80822 0.0
C94 C 0.07701 0.26713 0.79285 0.0
H95 H 0.99857 0.14116 0.81081 0.0
O96 O 0.12213 0.10681 0.7782 0.0
O97 O 0.08477 0.15749 0.7685 0.0
O98 O 0.00049 0.03872 0.77154 0.0
O99 O 0.96904 0.09898 0.77961 0.0
C100 C 0.12768 0.36392 0.80614 0.0
C101 C 0.14496 0.38405 0.78876 0.0
H102 H 0.16822 0.4068 0.75313 0.0
H103 H 0.13136 0.33345 0.72737 0.0
H104 H 0.02289 0.20453 0.83873 0.0
H105 H 0.08301 0.30955 0.83719 0.0
H106 H 0.14128 0.39415 0.81782 0.0
H107 H 0.17193 0.42944 0.78734 0.0
H108 H 0.93774 0.36119 0.13889 0.0
H109 H 0.0754 0.90533 0.2608 0.0
H110 H 0.93683 0.39326 0.23268 0.0
H111 H 0.95399 0.32497 0.2156 0.0
H112 H 0.13698 0.43263 0.22761 0.0
H113 H 0.11902 0.50097 0.24473 0.0
H114 H 0.91821 0.46926 0.20666 0.0
H115 H 0.90927 0.41913 0.17729 0.0
H116 H 0.0932 0.48595 0.17957 0.0
H117 H 0.10152 0.53636 0.20881 0.0
H118 H 0.92282 0.59312 0.2204 0.0
H119 H 0.92048 0.65078 0.19616 0.0
H120 H 0.09387 0.69488 0.18341 0.0
H121 H 0.09617 0.63876 0.2079 0.0
H122 H 0.93118 0.62126 0.26163 0.0
H123 H 0.93445 0.71243 0.2671 0.0
H124 H 0.10885 0.80098 0.24914 0.0
H125 H 0.10522 0.70962 0.24399 0.0
H126 H 0.93451 0.54496 0.28807 0.0
H127 H 0.93551 0.6024 0.31472 0.0
H128 H 0.11589 0.72197 0.30816 0.0
H129 H 0.11441 0.66363 0.2817 0.0
H130 H 0.9372 0.41976 0.27101 0.0
H131 H 0.94019 0.36533 0.29591 0.0
H132 H 0.11255 0.50128 0.31184 0.0
H133 H 0.10884 0.55571 0.28677 0.0
O134 O 0.94252 0.38313 0.15015 0.0
O135 O 0.03692 0.41684 0.15235 0.0
O136 O 0.9819 0.82093 0.2667 0.0
O137 O 0.07301 0.86872 0.25886 0.0
C138 C 0.01901 0.50187 0.24357 0.0
C139 C 0.01442 0.53044 0.22862 0.0
C140 C 0.01295 0.5812 0.23156 0.0
C141 C 0.01642 0.60376 0.24943 0.0
C142 C 0.02015 0.57486 0.26441 0.0
C143 C 0.02086 0.52343 0.2615 0.0
C144 C 0.02667 0.45205 0.23988 0.0
C145 C 0.98028 0.40053 0.23245 0.0
C146 C 0.99037 0.36149 0.22262 0.0
C147 C 0.04717 0.37353 0.22018 0.0
C148 C 0.0929 0.42233 0.22929 0.0
C149 C 0.08269 0.46112 0.23922 0.0
C150 C 0.01044 0.50625 0.20983 0.0
C151 C 0.95659 0.47374 0.20063 0.0
C152 C 0.9516 0.44488 0.18392 0.0
C153 C 0.00047 0.44814 0.17615 0.0
C154 C 0.05467 0.48231 0.1852 0.0
C155 C 0.05959 0.51129 0.20186 0.0
C156 C 0.00976 0.61209 0.21593 0.0
C157 C 0.96016 0.61527 0.21231 0.0
C158 C 0.95893 0.64814 0.1985 0.0
C159 C 0.00737 0.67868 0.18817 0.0
C160 C 0.05635 0.67365 0.19144 0.0
C161 C 0.05754 0.64085 0.20527 0.0
C162 C 0.01798 0.65896 0.25246 0.0
C163 C 0.97006 0.66044 0.25895 0.0
C164 C 0.97202 0.71253 0.26201 0.0
C165 C 0.02193 0.76401 0.25853 0.0
C166 C 0.06978 0.76219 0.25197 0.0
C167 C 0.0678 0.7101 0.24897 0.0
C168 C 0.02431 0.6003 0.28296 0.0
C169 C 0.97456 0.58267 0.29276 0.0
C170 C 0.97505 0.61627 0.30778 0.0
C171 C 0.02546 0.66811 0.31314 0.0
C172 C 0.0763 0.68273 0.30421 0.0
C173 C 0.07569 0.6493 0.28919 0.0
C174 C 0.02281 0.49161 0.27705 0.0
C175 C 0.9757 0.43765 0.27984 0.0
C176 C 0.97779 0.40633 0.29403 0.0
C177 C 0.02739 0.42841 0.30567 0.0
C178 C 0.07401 0.48302 0.30302 0.0
C179 C 0.07191 0.51424 0.28878 0.0
C180 C 0.99467 0.41529 0.15883 0.0
C181 C 0.02419 0.81945 0.26165 0.0
H182 H 0.57725 0.05005 0.46673 0.0
H183 H 0.24036 0.12933 0.62111 0.0
H184 H 0.60059 0.00664 0.56753 0.0
H185 H 0.68147 0.01569 0.55057 0.0
H186 H 0.77098 0.19853 0.56184 0.0
H187 H 0.68987 0.18859 0.57922 0.0
H188 H 0.50833 0.00098 0.54147 0.0
H189 H 0.5283 0.00416 0.50918 0.0
H190 H 0.6357 0.18774 0.51604 0.0
H191 H 0.61507 0.18384 0.54829 0.0
H192 H 0.40168 0.9892 0.55682 0.0
H193 H 0.33468 0.97894 0.53211 0.0
H194 H 0.42943 0.16193 0.52791 0.0
H195 H 0.49496 0.17134 0.55284 0.0
H196 H 0.37322 0.99231 0.59073 0.0
H197 H 0.28527 0.98967 0.60032 0.0
H198 H 0.37982 0.17346 0.60921 0.0
H199 H 0.46733 0.17537 0.59952 0.0
H200 H 0.44665 0.98816 0.61812 0.0
H201 H 0.38377 0.9783 0.64297 0.0
H202 H 0.48094 0.1601 0.65523 0.0
H203 H 0.54185 0.1703 0.62966 0.0
H204 H 0.59619 0.00846 0.60608 0.0
H205 H 0.66598 0.01368 0.62883 0.0
H206 H 0.70812 0.18525 0.64587 0.0
H207 H 0.638 0.17939 0.62297 0.0
O208 O 0.57108 0.04965 0.47961 0.0
O209 O 0.62355 0.14417 0.48371 0.0
O210 O 0.22755 0.03477 0.61217 0.0
O211 O 0.27426 0.12917 0.61701 0.0
C212 C 0.58496 0.09279 0.58018 0.0
C213 C 0.54617 0.09028 0.56651 0.0
C214 C 0.49387 0.08627 0.57118 0.0
C215 C 0.48037 0.08546 0.5895 0.0
C216 C 0.51849 0.08693 0.60327 0.0
C217 C 0.57122 0.09101 0.59864 0.0
C218 C 0.63947 0.09694 0.57458 0.0
C219 C 0.63847 0.04842 0.5668 0.0
C220 C 0.68434 0.05392 0.55677 0.0
C221 C 0.73172 0.10831 0.5542 0.0
C222 C 0.73467 0.15625 0.56337 0.0
C223 C 0.68873 0.15065 0.57343 0.0
C224 C 0.56031 0.09216 0.54713 0.0
C225 C 0.5363 0.04176 0.53595 0.0
C226 C 0.54779 0.04373 0.51753 0.0
C227 C 0.58341 0.09624 0.51002 0.0
C228 C 0.60796 0.14663 0.52138 0.0
C229 C 0.5964 0.14455 0.53979 0.0
C230 C 0.45239 0.08103 0.55673 0.0
C231 C 0.40721 0.02699 0.55069 0.0
C232 C 0.36932 0.02127 0.53653 0.0
C233 C 0.37588 0.06944 0.52816 0.0
C234 C 0.42176 0.12376 0.53421 0.0
C235 C 0.45962 0.12939 0.54844 0.0
C236 C 0.42639 0.08403 0.59438 0.0
C237 C 0.37461 0.03194 0.59458 0.0
C238 C 0.32456 0.03057 0.60014 0.0
C239 C 0.32554 0.08139 0.60557 0.0
C240 C 0.37755 0.13357 0.60514 0.0
C241 C 0.42753 0.13483 0.59956 0.0
C242 C 0.49926 0.07988 0.62217 0.0
C243 C 0.45632 0.02557 0.62673 0.0
C244 C 0.42013 0.01999 0.64079 0.0
C245 C 0.42796 0.0684 0.65094 0.0
C246 C 0.47488 0.12215 0.64771 0.0
C247 C 0.51005 0.12794 0.63325 0.0
C248 C 0.61194 0.09346 0.61292 0.0
C249 C 0.62065 0.04717 0.61472 0.0
C250 C 0.6611 0.05055 0.62765 0.0
C251 C 0.69369 0.10058 0.63897 0.0
C252 C 0.68392 0.14636 0.63729 0.0
C253 C 0.64371 0.143 0.62431 0.0
C254 C 0.59411 0.09837 0.49035 0.0
C255 C 0.27273 0.08013 0.61175 0.0
H256 H 0.63491 0.74257 0.03309 0.0
H257 H 0.31828 0.21881 0.90129 0.0
H258 H 0.62446 0.74286 0.9365 0.0
H259 H 0.7063 0.8232 0.95273 0.0
H260 H 0.81429 0.75423 0.93674 0.0
H261 H 0.731 0.67305 0.92073 0.0
H262 H 0.53162 0.6464 0.96038 0.0
H263 H 0.56104 0.68894 0.99144 0.0
H264 H 0.71422 0.67547 0.98847 0.0
H265 H 0.68373 0.63195 0.95758 0.0
H266 H 0.42797 0.51727 0.94007 0.0
H267 H 0.37353 0.46398 0.96558 0.0
H268 H 0.52574 0.4703 0.98821 0.0
H269 H 0.57921 0.51985 0.96193 0.0
H270 H 0.41742 0.49859 0.90038 0.0
H271 H 0.33948 0.4002 0.89363 0.0
H272 H 0.44689 0.33889 0.91571 0.0
H273 H 0.52451 0.43738 0.92226 0.0
H274 H 0.50153 0.60581 0.87869 0.0
H275 H 0.44723 0.55804 0.85013 0.0
H276 H 0.50467 0.43575 0.85281 0.0
H277 H 0.55805 0.48334 0.88144 0.0
H278 H 0.60973 0.72141 0.89425 0.0
H279 H 0.66577 0.77988 0.87018 0.0
H280 H 0.72687 0.66245 0.85808 0.0
H281 H 0.66924 0.6036 0.8822 0.0
O282 O 0.62396 0.72547 0.02083 0.0
O283 O 0.70433 0.72197 0.01804 0.0
O284 O 0.29346 0.29159 0.89361 0.0
O285 O 0.34834 0.25813 0.90377 0.0
C286 C 0.61965 0.64547 0.92323 0.0
C287 C 0.58852 0.61228 0.93763 0.0
C288 C 0.54104 0.55673 0.93388 0.0
C289 C 0.52446 0.53467 0.91568 0.0
C290 C 0.55447 0.56869 0.90127 0.0
C291 C 0.60256 0.62381 0.90505 0.0
C292 C 0.67174 0.70196 0.92762 0.0
C293 C 0.66635 0.74639 0.93591 0.0
C294 C 0.71363 0.79252 0.94525 0.0
C295 C 0.76728 0.79505 0.94625 0.0
C296 C 0.77355 0.75331 0.9363 0.0
C297 C 0.72617 0.70713 0.92702 0.0
C298 C 0.60562 0.6363 0.95672 0.0
C299 C 0.57129 0.65233 0.96652 0.0
C300 C 0.58831 0.67677 0.98423 0.0
C301 C 0.64008 0.68577 0.99242 0.0
C302 C 0.67419 0.66928 0.98256 0.0
C303 C 0.65693 0.64451 0.96491 0.0
C304 C 0.50762 0.52242 0.94905 0.0
C305 C 0.44931 0.50598 0.95026 0.0
C306 C 0.41836 0.47584 0.96484 0.0
C307 C 0.44572 0.46311 0.9787 0.0
C308 C 0.504 0.47977 0.97761 0.0
C309 C 0.53445 0.50816 0.96269 0.0
C310 C 0.47665 0.47507 0.91175 0.0
C311 C 0.42406 0.46383 0.90367 0.0
C312 C 0.3796 0.40761 0.89987 0.0
C313 C 0.387 0.36165 0.90411 0.0
C314 C 0.43976 0.37322 0.91225 0.0
C315 C 0.48413 0.42942 0.91604 0.0
C316 C 0.53284 0.54739 0.88225 0.0
C317 C 0.50342 0.56949 0.87286 0.0
C318 C 0.47237 0.54211 0.85659 0.0
C319 C 0.46989 0.492 0.84957 0.0
C320 C 0.50374 0.47297 0.8582 0.0
C321 C 0.53487 0.50045 0.87445 0.0
C322 C 0.63571 0.65853 0.89003 0.0
C323 C 0.63532 0.70847 0.88639 0.0
C324 C 0.66795 0.74212 0.87259 0.0
C325 C 0.70217 0.72658 0.86227 0.0
C326 C 0.70136 0.6758 0.86582 0.0
C327 C 0.66849 0.6421 0.87956 0.0
C328 C 0.65827 0.71215 0.01118 0.0
C329 C 0.34001 0.30181 0.90014 0.0
H330 H 0.07247 0.14677 0.13669 0.0
C331 C 0.06776 0.16831 0.1253 0.0
H332 H 0.05605 0.23476 0.11683 0.0
H333 H 0.93353 0.27272 0.18183 0.0
H334 H 0.86371 0.24618 0.15685 0.0
H335 H 0.87717 0.21003 0.12719 0.0
H336 H 0.96118 0.20145 0.12225 0.0
C337 C 0.06053 0.21342 0.12832 0.0
C338 C 0.05148 0.2315 0.14678 0.0
C339 C 0.00057 0.23373 0.14969 0.0
C340 C 0.99157 0.2523 0.16701 0.0
C341 C 0.94192 0.25722 0.16918 0.0
C342 C 0.9014 0.24226 0.1549 0.0
C343 C 0.90908 0.22211 0.1382 0.0
C344 C 0.95784 0.2177 0.13554 0.0
H345 H 0.1011 0.36673 0.19923 0.0
C346 C 0.06061 0.34251 0.20583 0.0
H347 H 0.98306 0.2635 0.20583 0.0
H348 H 0.15873 0.24251 0.14545 0.0
H349 H 0.22524 0.26244 0.17101 0.0
H350 H 0.20244 0.28039 0.20197 0.0
H351 H 0.11379 0.28052 0.20739 0.0
C352 C 0.02355 0.28876 0.19942 0.0
C353 C 0.03223 0.26626 0.18167 0.0
C354 C 0.08199 0.26187 0.17897 0.0
C355 C 0.09296 0.24706 0.16134 0.0
C356 C 0.14612 0.24937 0.15872 0.0
C357 C 0.18509 0.26145 0.17326 0.0
C358 C 0.17242 0.27188 0.19067 0.0
C359 C 0.12158 0.27223 0.19357 0.0
H360 H 0.88288 0.05356 0.45638 0.0
C361 C 0.924 0.09328 0.45746 0.0
H362 H 0.97595 0.17101 0.47292 0.0
H363 H 0.71119 0.08821 0.50009 0.0
H364 H 0.68997 0.10266 0.46938 0.0
H365 H 0.76134 0.1276 0.44595 0.0
H366 H 0.85435 0.13743 0.45291 0.0
C367 C 0.93423 0.13221 0.47111 0.0
C368 C 0.89198 0.12027 0.48544 0.0
C369 C 0.83814 0.11574 0.48125 0.0
C370 C 0.79731 0.10227 0.49491 0.0
C371 C 0.7438 0.09794 0.49028 0.0
C372 C 0.73107 0.10646 0.47274 0.0
C373 C 0.77125 0.12038 0.45951 0.0
C374 C 0.82435 0.12542 0.46366 0.0
H375 H 0.81776 0.157 0.54273 0.0
C376 C 0.77693 0.117 0.54132 0.0
H377 H 0.72577 0.0424 0.52431 0.0
H378 H 0.99152 0.12667 0.49811 0.0
H379 H 0.01282 0.11102 0.5286 0.0
H380 H 0.94134 0.08576 0.55213 0.0
H381 H 0.8485 0.07647 0.54531 0.0
C382 C 0.76762 0.08043 0.52698 0.0
C383 C 0.81081 0.09439 0.51283 0.0
C384 C 0.86474 0.09901 0.51703 0.0
C385 C 0.90558 0.11258 0.50337 0.0
C386 C 0.95901 0.11675 0.50793 0.0
C387 C 0.97173 0.10764 0.52539 0.0
C388 C 0.93154 0.0935 0.53864 0.0
C389 C 0.8785 0.08881 0.53456 0.0
H390 H 0.89317 0.01947 0.7977 0.0
C391 C 0.92101 0.00755 0.79058 0.0
H392 H 0.94284 0.94324 0.7863 0.0
H393 H 0.83103 0.88828 0.86691 0.0
H394 H 0.92195 0.97104 0.87736 0.0
H395 H 0.99295 0.03028 0.85555 0.0
H396 H 0.97341 0.0071 0.82317 0.0
C397 C 0.91613 0.9568 0.79328 0.0
C398 C 0.87506 0.91875 0.80643 0.0
C399 C 0.88743 0.93262 0.82534 0.0
C400 C 0.84663 0.89828 0.8379 0.0
C401 C 0.86019 0.91308 0.85673 0.0
C402 C 0.91236 0.9604 0.86293 0.0
C403 C 0.95231 0.99376 0.85066 0.0
C404 C 0.94036 0.98013 0.83208 0.0
H405 H 0.76074 0.74403 0.83965 0.0
C406 C 0.73965 0.7618 0.84787 0.0
H407 H 0.73414 0.83621 0.85333 0.0
H408 H 0.83983 0.87905 0.77117 0.0
H409 H 0.74867 0.79639 0.76057 0.0
H410 H 0.67663 0.73811 0.78228 0.0
H411 H 0.69534 0.76176 0.81468 0.0
C412 C 0.75116 0.81496 0.84491 0.0
C413 C 0.79381 0.84977 0.83155 0.0
C414 C 0.78178 0.8355 0.81263 0.0
C415 C 0.82283 0.86973 0.80007 0.0
C416 C 0.80997 0.8546 0.78126 0.0
C417 C 0.75783 0.80733 0.775 0.0
C418 C 0.71731 0.77446 0.78723 0.0
C419 C 0.72878 0.78831 0.80582 0.0
H420 H 0.12967 0.96585 0.1188 0.0
C421 C 0.08837 0.95961 0.11394 0.0
H422 H 0.99782 0.90799 0.11441 0.0
H423 H 0.01656 0.69562 0.13851 0.0
H424 H 0.98198 0.66561 0.10715 0.0
H425 H 0.97363 0.73105 0.08689 0.0
H426 H 1.00019 0.82709 0.09786 0.0
C427 C 0.0395 0.91591 0.11953 0.0
C428 C 0.04107 0.87554 0.13214 0.0
C429 C 0.02407 0.81915 0.12564 0.0
C430 C 0.02804 0.78113 0.1374 0.0
C431 C 0.01302 0.72581 0.13033 0.0
C432 C 0.99343 0.70812 0.11231 0.0
C433 C 0.98879 0.74498 0.10089 0.0
C434 C 0.00409 0.79997 0.10737 0.0
H435 H 0.96322 0.70774 0.16956 0.0
C436 C 0.00527 0.7155 0.17426 0.0
H437 H 0.09516 0.77227 0.17364 0.0
H438 H 0.07139 0.97891 0.14943 0.0
H439 H 0.10479 0.00861 0.18088 0.0
H440 H 0.11258 0.94304 0.20123 0.0
H441 H 0.08681 0.84733 0.19024 0.0
C442 C 0.05253 0.7602 0.1682 0.0
C443 C 0.04795 0.79936 0.15574 0.0
C444 C 0.06411 0.8555 0.16232 0.0
C445 C 0.06024 0.89352 0.15055 0.0
C446 C 0.07486 0.94873 0.15764 0.0
C447 C 0.09374 0.96623 0.17571 0.0
C448 C 0.09807 0.9293 0.18717 0.0
C449 C 0.0833 0.8745 0.18066 0.0
H450 H 0.11281 0.08197 0.46584 0.0
C451 C 0.11375 0.0641 0.45259 0.0
H452 H 0.15102 0.0263 0.4366 0.0
H453 H 0.3909 0.15029 0.48036 0.0
H454 H 0.41731 0.17893 0.44972 0.0
H455 H 0.34271 0.15237 0.42533 0.0
H456 H 0.24149 0.09736 0.43139 0.0
C457 C 0.15083 0.04558 0.44981 0.0
C458 C 0.19564 0.05623 0.46405 0.0
C459 C 0.25472 0.08895 0.46022 0.0
C460 C 0.29777 0.10469 0.4743 0.0
C461 C 0.35647 0.13727 0.47016 0.0
C462 C 0.37223 0.15396 0.45264 0.0
C463 C 0.33024 0.13888 0.43889 0.0
C464 C 0.27215 0.1071 0.44258 0.0
H465 H 0.30599 0.01689 0.5076 0.0
C466 C 0.33419 0.06047 0.51313 0.0
H467 H 0.35315 0.1461 0.51146 0.0
H468 H 0.08736 0.98185 0.47509 0.0
H469 H 0.06094 0.95557 0.50587 0.0
H470 H 0.13497 0.99193 0.53094 0.0
H471 H 0.23588 0.05332 0.52523 0.0
C472 C 0.32679 0.10182 0.50658 0.0
C473 C 0.28166 0.08762 0.49211 0.0
C474 C 0.22264 0.05467 0.49592 0.0
C475 C 0.17971 0.03702 0.48173 0.0
C476 C 0.12145 0.99968 0.48558 0.0
C477 C 0.10574 0.98367 0.50316 0.0
C478 C 0.14742 0.00389 0.51725 0.0
C479 C 0.20526 0.03885 0.51375 0.0
H480 H 0.16954 0.18166 0.80593 0.0
C481 C 0.15644 0.19602 0.79422 0.0
H482 H 0.17859 0.26411 0.77778 0.0
H483 H 0.33073 0.37931 0.85767 0.0
H484 H 0.2402 0.33354 0.87261 0.0
H485 H 0.14977 0.26628 0.85541 0.0
H486 H 0.14945 0.24612 0.82323 0.0
C487 C 0.18752 0.2511 0.79053 0.0
C488 C 0.24172 0.2919 0.80139 0.0
C489 C 0.24161 0.30197 0.82049 0.0
C490 C 0.29393 0.33966 0.83052 0.0
C491 C 0.29237 0.35035 0.84944 0.0
C492 C 0.24074 0.3244 0.85822 0.0
C493 C 0.18985 0.28677 0.84853 0.0
C494 C 0.19018 0.2756 0.82995 0.0
H495 H 0.41093 0.4792 0.82615 0.0
C496 C 0.42737 0.45795 0.83444 0.0
H497 H 0.41278 0.37776 0.84195 0.0
H498 H 0.25936 0.28198 0.76504 0.0
H499 H 0.34997 0.33004 0.75045 0.0
H500 H 0.44022 0.39522 0.76812 0.0
H501 H 0.44005 0.41256 0.80065 0.0
C502 C 0.40113 0.40073 0.83274 0.0
C503 C 0.34655 0.36634 0.82164 0.0
C504 C 0.34698 0.35746 0.80263 0.0
C505 C 0.29461 0.32026 0.79246 0.0
C506 C 0.29707 0.31077 0.77352 0.0
C507 C 0.34908 0.33785 0.76492 0.0
C508 C 0.3999 0.37447 0.77487 0.0
C509 C 0.39917 0.38412 0.79352 0.0
H510 H 0.95252 0.06092 0.70594 0.0
C511 C 0.95391 0.09182 0.71613 0.0
H512 H 0.92372 0.14814 0.72327 0.0
H513 H 0.85009 0.17256 0.64456 0.0
H514 H 0.94093 0.2616 0.64904 0.0
H515 H 0.00674 0.27911 0.67538 0.0
H516 H 0.9823 0.20746 0.69733 0.0
C517 C 0.92165 0.11612 0.71342 0.0
C518 C 0.88407 0.10297 0.69677 0.0
C519 C 0.89867 0.14547 0.68417 0.0
C520 C 0.8603 0.13576 0.66915 0.0
C521 C 0.87684 0.17834 0.6565 0.0
C522 C 0.92907 0.2295 0.65883 0.0
C523 C 0.96615 0.23933 0.67365 0.0
C524 C 0.95147 0.19792 0.68619 0.0
H525 H 0.74991 0.13934 0.66385 0.0
C526 C 0.7373 0.10651 0.65291 0.0
H527 H 0.75344 0.04292 0.64162 0.0
H528 H 0.84238 0.01233 0.71844 0.0
H529 H 0.75249 0.92278 0.7136 0.0
H530 H 0.6866 0.90556 0.68732 0.0
H531 H 0.71014 0.97807 0.66577 0.0
C532 C 0.76379 0.07563 0.65237 0.0
C533 C 0.80678 0.08394 0.66697 0.0
C534 C 0.79323 0.04049 0.67913 0.0
C535 C 0.83165 0.05015 0.69415 0.0
C536 C 0.81561 0.00696 0.70657 0.0
C537 C 0.76391 0.95537 0.704 0.0
C538 C 0.72678 0.94569 0.68922 0.0
C539 C 0.74089 0.98766 0.67693 0.0
H540 H 0.01344 0.04553 0.02746 0.0
C541 C 0.00484 0.01634 0.03794 0.0
H542 H 0.95728 0.93112 0.04488 0.0
H543 H 0.74126 0.8571 0.99286 0.0
H544 H 0.70175 0.84747 0.02253 0.0
H545 H 0.76504 0.88048 0.05031 0.0
H546 H 0.86831 0.92389 0.04855 0.0
C547 C 0.9659 0.96109 0.03446 0.0
C548 C 0.92835 0.94121 0.01753 0.0
C549 C 0.86796 0.91645 0.01882 0.0
C550 C 0.83151 0.89814 0.0028 0.0
C551 C 0.77122 0.87254 0.00452 0.0
C552 C 0.74782 0.86649 0.02151 0.0
C553 C 0.78344 0.88499 0.03714 0.0
C554 C 0.84277 0.90972 0.03591 0.0
H555 H 0.84679 0.82293 0.96293 0.0
C556 C 0.81446 0.83432 0.95955 0.0
H557 H 0.78551 0.89222 0.9662 0.0
H558 H 0.04155 0.98074 0.00999 0.0
H559 H 0.08171 0.99763 0.98028 0.0
H560 H 0.01926 0.97499 0.95264 0.0
H561 H 0.91595 0.9339 0.9546 0.0
C562 C 0.8165 0.87888 0.969 0.0
C563 C 0.85556 0.90496 0.98551 0.0
C564 C 0.91609 0.93204 0.98421 0.0
C565 C 0.95241 0.94839 1.00021 0.0
C566 C 0.01222 0.97068 0.99839 0.0
C567 C 0.03582 0.98004 0.98138 0.0
C568 C 0.00065 0.96704 0.96582 0.0
C569 C 0.94143 0.94316 0.96713 0.0
H570 H 0.92775 0.88853 0.37737 0.0
C571 C 0.97236 0.92148 0.38034 0.0
H572 H 0.05959 0.94619 0.37724 0.0
H573 H 0.00932 0.69427 0.36288 0.0
H574 H 0.04815 0.71481 0.39396 0.0
H575 H 0.06696 0.80286 0.41121 0.0
H576 H 0.04652 0.8706 0.39755 0.0
C577 C 0.01487 0.91497 0.37356 0.0
C578 C 0.00275 0.86177 0.36301 0.0
C579 C 0.01611 0.82318 0.37107 0.0
C580 C 0.00642 0.77299 0.36099 0.0
C581 C 0.01776 0.73401 0.36967 0.0
C582 C 0.0396 0.74503 0.38757 0.0
C583 C 0.0501 0.79455 0.39729 0.0
C584 C 0.03834 0.83319 0.38925 0.0
H585 H 0.06815 0.74335 0.33269 0.0
C586 C 0.02635 0.70983 0.32708 0.0
H587 H 0.93748 0.68254 0.32511 0.0
H588 H 0.97313 0.92717 0.34345 0.0
H589 H 0.93291 0.90601 0.31255 0.0
H590 H 0.91601 0.81909 0.29505 0.0
H591 H 0.94016 0.7533 0.30817 0.0
C592 C 0.97938 0.71261 0.33145 0.0
C593 C 0.98488 0.76227 0.34269 0.0
C594 C 0.97015 0.80017 0.33478 0.0
C595 C 0.9793 0.85008 0.34493 0.0
C596 C 0.96597 0.88808 0.33651 0.0
C597 C 0.94315 0.87663 0.31873 0.0
C598 C 0.93379 0.82776 0.30886 0.0
C599 C 0.94753 0.79012 0.31663 0.0
H600 H 0.16978 0.01679 0.73029 0.0
C601 C 0.16735 0.05438 0.72739 0.0
H602 H 0.19881 0.1278 0.71269 0.0
H603 H 0.44395 0.18202 0.69444 0.0
H604 H 0.46121 0.26707 0.71184 0.0
H605 H 0.3831 0.26956 0.72806 0.0
H606 H 0.28694 0.18748 0.72656 0.0
C607 C 0.20198 0.09044 0.71535 0.0
C608 C 0.2497 0.0855 0.70701 0.0
C609 C 0.30666 0.13311 0.70879 0.0
C610 C 0.35241 0.1308 0.70012 0.0
C611 C 0.40786 0.18039 0.70117 0.0
C612 C 0.41846 0.2298 0.7111 0.0
C613 C 0.37447 0.23126 0.72019 0.0
C614 C 0.31924 0.18373 0.7191 0.0
H615 H 0.33915 0.04726 0.65543 0.0
C616 C 0.38125 0.06375 0.6622 0.0
H617 H 0.43127 0.09586 0.6866 0.0
H618 H 0.14504 0.98942 0.69775 0.0
H619 H 0.12988 0.90029 0.68377 0.0
H620 H 0.21219 0.89028 0.67448 0.0
H621 H 0.30982 0.97049 0.67827 0.0
C622 C 0.38898 0.07948 0.68 0.0
C623 C 0.34196 0.0798 0.6905 0.0
C624 C 0.28597 0.03071 0.69007 0.0
C625 C 0.23921 0.03466 0.69723 0.0
C626 C 0.18273 0.98746 0.69408 0.0
C627 C 0.17331 0.93615 0.68583 0.0
C628 C 0.21957 0.93063 0.68048 0.0
C629 C 0.27532 0.9772 0.68255 0.0
H630 H 0.23276 0.20649 0.05046 0.0
C631 C 0.20529 0.22183 0.05583 0.0
H632 H 0.18746 0.28879 0.05751 0.0
H633 H 0.43229 0.36417 0.01304 0.0
H634 H 0.47017 0.34609 0.04034 0.0
H635 H 0.41198 0.31422 0.06737 0.0
H636 H 0.31461 0.29805 0.06692 0.0
C637 C 0.21509 0.27382 0.05205 0.0
C638 C 0.25542 0.30666 0.03782 0.0
C639 C 0.3139 0.32069 0.03888 0.0
C640 C 0.34916 0.34382 0.02386 0.0
C641 C 0.40503 0.35079 0.0245 0.0
C642 C 0.42713 0.33991 0.04004 0.0
C643 C 0.39426 0.32163 0.05521 0.0
C644 C 0.33827 0.31202 0.05471 0.0
H645 H 0.43227 0.45454 0.00809 0.0
C646 C 0.41413 0.43446 0.99468 0.0
H647 H 0.34712 0.36498 0.97932 0.0
H648 H 0.14527 0.2862 0.03119 0.0
H649 H 0.11017 0.31163 0.00503 0.0
H650 H 0.1744 0.36132 0.98049 0.0
H651 H 0.27376 0.38447 0.98184 0.0
C652 C 0.36419 0.38465 0.99285 0.0
C653 C 0.32765 0.35834 0.00852 0.0
C654 C 0.27014 0.34733 0.00792 0.0
C655 C 0.2337 0.32056 0.0224 0.0
C656 C 0.17558 0.30751 0.02089 0.0
C657 C 0.15464 0.32188 0.00588 0.0
C658 C 0.19072 0.3497 0.99205 0.0
C659 C 0.24777 0.36249 0.99299 0.0
H660 H 0.97836 0.14367 0.37218 0.0
C661 C 0.01016 0.17148 0.38274 0.0
H662 H 0.06946 0.25678 0.39188 0.0
H663 H 0.04356 0.28788 0.30439 0.0
H664 H 0.08908 0.23112 0.29936 0.0
H665 H 0.10804 0.18578 0.32468 0.0
H666 H 0.08124 0.19652 0.35513 0.0
C667 C 0.03858 0.22828 0.38124 0.0
C668 C 0.0267 0.25471 0.36575 0.0
C669 C 0.04318 0.24833 0.34804 0.0
C670 C 0.03314 0.2753 0.33348 0.0
C671 C 0.05008 0.26831 0.31593 0.0
C672 C 0.0764 0.23596 0.31286 0.0
C673 C 0.08701 0.21038 0.32711 0.0
C674 C 0.071 0.21658 0.34453 0.0
H675 H 0.0641 0.42048 0.33173 0.0
C676 C 0.03171 0.39643 0.32087 0.0
H677 H 0.96984 0.3132 0.31036 0.0
H678 H 0.98946 0.27512 0.39798 0.0
H679 H 0.94373 0.33173 0.40296 0.0
H680 H 0.9256 0.37773 0.37766 0.0
H681 H 0.95333 0.36768 0.34726 0.0
C682 C 0.99957 0.33938 0.32154 0.0
C683 C 0.00788 0.3096 0.33673 0.0
C684 C 0.99086 0.31548 0.35439 0.0
C685 C 0.00069 0.28836 0.36894 0.0
C686 C 0.98328 0.29498 0.38645 0.0
C687 C 0.95681 0.3272 0.38949 0.0
C688 C 0.94664 0.35314 0.37525 0.0
C689 C 0.96314 0.34732 0.35788 0.0
loop_
_geom_bond_atom_site_label_1
_geom_bond_atom_site_label_2
_geom_bond_distance
_geom_bond_site_symmetry_2
_ccdc_geom_bond_type
Mn0 O5 2.095 . S
Mn0 O15 2.162 . S
Mn0 O16 2.297 . S
Mn0 O24 2.396 . S
Mn0 O25 2.209 . S
Mn0 O26 2.094 . S
Mn1 O6 2.121 . S
Mn1 N8 2.257 1_455 S
Mn1 N17 2.282 . S
Mn1 O25 2.215 . S
Mn1 O27 2.117 . S
C2 O24 1.247 . S
C2 O25 1.283 . S
C3 O15 1.281 . S
C3 O16 1.236 . S
C4 O26 1.240 . S
C4 O27 1.264 . S
O5 Mn0 2.095 . S
O5 C14 1.250 . S
O6 Mn1 2.121 . S
O6 C14 1.258 . S
C7 N8 1.326 . S
C7 C11 1.460 . S
C7 H13 0.929 . S
N8 Mn1 2.257 1_655 S
N8 C7 1.326 . S
N8 C12 1.362 . S
C9 C10 1.258 . S
C9 C12 1.431 . S
C9 C29 1.449 . S
C10 C9 1.258 . S
C10 C11 1.477 . S
C10 H30 0.931 . S
C11 C7 1.460 . S
C11 C10 1.477 . S
C11 H31 0.930 . S
C12 N8 1.362 . S
C12 C9 1.431 . S
C12 C22 1.476 . S
H13 C7 0.929 . S
C14 O5 1.250 . S
C14 O6 1.258 . S
O15 Mn0 2.162 . S
O15 C3 1.281 . S
O16 Mn0 2.297 . S
O16 C3 1.236 . S
N17 Mn1 2.282 . S
N17 C18 1.328 . S
N17 C22 1.318 1_455 S
C18 N17 1.328 . S
C18 C19 1.457 . S
C18 H23 0.929 . S
C19 C18 1.457 . S
C19 C20 1.292 1_455 S
C19 H32 0.931 1_554 S
C20 C19 1.292 1_655 S
C20 C21 1.374 . S
C20 H33 0.927 1_554 S
C21 C20 1.374 . S
C21 C22 1.396 . S
C21 C28 1.403 . S
C22 C12 1.476 . S
C22 N17 1.318 1_655 S
C22 C21 1.396 . S
H23 C18 0.929 . S
O24 Mn0 2.396 . S
O24 C2 1.247 . S
O25 Mn0 2.209 . S
O25 Mn1 2.215 . S
O25 C2 1.283 . S
O26 Mn0 2.094 . S
O26 C4 1.240 . S
O27 Mn1 2.117 . S
O27 C4 1.264 . S
C28 C21 1.403 . S
C28 C29 1.399 . S
C28 H34 0.929 1_554 S
C29 C9 1.449 . S
C29 C28 1.399 . S
C29 H35 0.930 . S
H30 C10 0.931 . S
H31 C11 0.930 . S
H32 C19 0.931 1_556 S
H33 C20 0.927 1_556 S
H34 C28 0.929 1_556 S
H35 C29 0.930 . S
Mn36 O41 2.095 . S
Mn36 O51 2.162 1_545 S
Mn36 O52 2.297 1_645 S
Mn36 O60 2.385 1_645 S
Mn36 O61 2.209 1_655 S
Mn36 O62 2.094 1_545 S
Mn37 O42 2.121 . S
Mn37 N44 2.257 . S
Mn37 N53 2.282 . S
Mn37 O61 2.215 . S
Mn37 O63 2.117 1_455 S
C38 O60 1.234 1_545 S
C38 O61 1.283 . S
C39 O51 1.281 . S
C39 O52 1.236 1_655 S
C40 O62 1.240 1_545 S
C40 O63 1.264 . S
O41 Mn36 2.095 . S
O41 C50 1.250 1_655 S
O42 Mn37 2.121 . S
O42 C50 1.258 . S
C43 N44 1.326 . S
C43 C47 1.460 . S
C43 H49 0.929 . S
N44 Mn37 2.257 . S
N44 C43 1.326 . S
N44 C48 1.362 . S
C45 C46 1.258 . S
C45 C48 1.431 . S
C45 C65 1.449 . S
C46 C45 1.258 . S
C46 C47 1.477 . S
C46 H66 0.931 . S
C47 C43 1.460 . S
C47 C46 1.477 . S
C47 H67 0.930 . S
C48 N44 1.362 . S
C48 C45 1.431 . S
C48 C58 1.476 . S
H49 C43 0.929 . S
C50 O41 1.250 1_455 S
C50 O42 1.258 . S
O51 Mn36 2.162 1_565 S
O51 C39 1.281 . S
O52 Mn36 2.297 1_465 S
O52 C39 1.236 1_455 S
N53 Mn37 2.282 . S
N53 C54 1.328 . S
N53 C58 1.318 . S
C54 N53 1.328 . S
C54 C55 1.457 . S
C54 H59 0.929 . S
C55 C54 1.457 . S
C55 C56 1.291 . S
C55 H68 0.931 . S
C56 C55 1.291 . S
C56 C57 1.373 . S
C56 H69 0.929 . S
C57 C56 1.373 . S
C57 C58 1.396 . S
C57 C64 1.403 . S
C58 C48 1.476 . S
C58 N53 1.318 . S
C58 C57 1.396 . S
H59 C54 0.929 . S
O60 Mn36 2.385 1_465 S
O60 C38 1.234 1_565 S
O61 Mn36 2.209 1_455 S
O61 Mn37 2.215 . S
O61 C38 1.283 . S
O62 Mn36 2.094 1_565 S
O62 C40 1.240 1_565 S
O63 Mn37 2.117 1_655 S
O63 C40 1.264 . S
C64 C57 1.403 . S
C64 C65 1.399 . S
C64 H70 0.929 . S
C65 C45 1.449 . S
C65 C64 1.399 . S
C65 H71 0.930 . S
H66 C46 0.931 . S
H67 C47 0.930 . S
H68 C55 0.931 . S
H69 C56 0.929 . S
H70 C64 0.929 . S
H71 C65 0.930 . S
Mn72 O77 2.095 . S
Mn72 O87 2.162 . S
Mn72 O88 2.297 . S
Mn72 O96 2.385 . S
Mn72 O97 2.209 . S
Mn72 O98 2.094 . S
Mn73 O78 2.121 . S
Mn73 N80 2.257 . S
Mn73 N89 2.282 . S
Mn73 O97 2.215 . S
Mn73 O99 2.117 . S
C74 O96 1.234 . S
C74 O97 1.283 . S
C75 O87 1.281 . S
C75 O88 1.236 . S
C76 O98 1.240 . S
C76 O99 1.264 . S
O77 Mn72 2.095 . S
O77 C86 1.250 . S
O78 Mn73 2.121 . S
O78 C86 1.258 . S
C79 N80 1.326 . S
C79 C83 1.460 . S
C79 H85 0.929 . S
N80 Mn73 2.257 . S
N80 C79 1.326 . S
N80 C84 1.362 . S
C81 C82 1.258 . S
C81 C84 1.431 . S
C81 C101 1.449 . S
C82 C81 1.258 . S
C82 C83 1.477 . S
C82 H102 0.931 . S
C83 C79 1.460 . S
C83 C82 1.477 . S
C83 H103 0.930 . S
C84 N80 1.362 . S
C84 C81 1.431 . S
C84 C94 1.476 . S
H85 C79 0.929 . S
C86 O77 1.250 . S
C86 O78 1.258 . S
O87 Mn72 2.162 . S
O87 C75 1.281 . S
O88 Mn72 2.297 . S
O88 C75 1.236 . S
N89 Mn73 2.282 . S
N89 C90 1.328 . S
N89 C94 1.318 . S
C90 N89 1.328 . S
C90 C91 1.457 . S
C90 H95 0.929 . S
C91 C90 1.457 . S
C91 C92 1.291 . S
C91 H104 0.931 . S
C92 C91 1.291 . S
C92 C93 1.373 . S
C92 H105 0.929 . S
C93 C92 1.373 . S
C93 C94 1.396 . S
C93 C100 1.403 . S
C94 C84 1.476 . S
C94 N89 1.318 . S
C94 C93 1.396 . S
H95 C90 0.929 . S
O96 Mn72 2.385 . S
O96 C74 1.234 . S
O97 Mn72 2.209 . S
O97 Mn73 2.215 . S
O97 C74 1.283 . S
O98 Mn72 2.094 . S
O98 C76 1.240 . S
O99 Mn73 2.117 . S
O99 C76 1.264 . S
C100 C93 1.403 . S
C100 C101 1.399 . S
C100 H106 0.929 . S
C101 C81 1.449 . S
C101 C100 1.399 . S
C101 H107 0.930 . S
H102 C82 0.931 . S
H103 C83 0.930 . S
H104 C91 0.931 . S
H105 C92 0.929 . S
H106 C100 0.929 . S
H107 C101 0.930 . S
H108 O134 0.856 . S
H109 O137 0.854 . S
H110 C145 0.930 . S
H111 C146 0.930 . S
H112 C148 0.930 . S
H113 C149 0.930 . S
H114 C151 0.931 1_655 S
H115 C152 0.930 1_655 S
H116 C154 0.930 . S
H117 C155 0.929 . S
H118 C157 0.930 1_655 S
H119 C158 0.931 1_655 S
H120 C160 0.930 . S
H121 C161 0.929 . S
H122 C163 0.931 . S
H123 C164 0.930 . S
H124 C166 0.930 . S
H125 C167 0.932 . S
H126 C169 0.930 . S
H127 C170 0.929 . S
H128 C172 0.931 . S
H129 C173 0.930 . S
H130 C175 0.929 . S
H131 C176 0.931 . S
H132 C178 0.930 . S
H133 C179 0.929 . S
O134 H108 0.856 . S
O134 C180 1.300 . S
O135 C180 1.209 . S
O136 C181 1.199 1_655 S
O137 H109 0.854 . S
O137 C181 1.297 . S
C138 C139 1.404 . S
C138 C143 1.397 . S
C138 C144 1.492 . S
C139 C138 1.404 . S
C139 C140 1.396 . S
C139 C150 1.492 . S
C140 C139 1.396 . S
C140 C141 1.397 . S
C140 C156 1.509 . S
C141 C140 1.397 . S
C141 C142 1.412 . S
C141 C162 1.485 . S
C142 C141 1.412 . S
C142 C143 1.388 . S
C142 C168 1.490 . S
C143 C138 1.397 . S
C143 C142 1.388 . S
C143 C174 1.519 . S
C144 C138 1.492 . S
C144 C145 1.363 1_455 S
C144 C149 1.390 . S
C145 H110 0.930 . S
C145 C144 1.363 1_655 S
C145 C146 1.372 . S
C146 H111 0.930 . S
C146 C145 1.372 . S
C146 C147 1.383 1_655 S
C147 C146 1.383 1_455 S
C147 C148 1.395 . S
C148 H112 0.930 . S
C148 C147 1.395 . S
C148 C149 1.362 . S
C149 H113 0.930 . S
C149 C144 1.390 . S
C149 C148 1.362 . S
C150 C139 1.492 . S
C150 C151 1.377 . S
C150 C155 1.397 . S
C151 H114 0.931 1_455 S
C151 C150 1.377 . S
C151 C152 1.376 . S
C152 H115 0.930 1_455 S
C152 C151 1.376 . S
C152 C153 1.376 . S
C153 C152 1.376 . S
C153 C154 1.378 . S
C153 C180 1.486 . S
C154 H116 0.930 . S
C154 C153 1.378 . S
C154 C155 1.376 . S
C155 H117 0.929 . S
C155 C150 1.397 . S
C155 C154 1.376 . S
C156 C140 1.509 . S
C156 C157 1.391 . S
C156 C161 1.386 . S
C157 H118 0.930 1_455 S
C157 C156 1.391 . S
C157 C158 1.375 . S
C158 H119 0.931 1_455 S
C158 C157 1.375 . S
C158 C159 1.375 . S
C159 C158 1.375 . S
C159 C160 1.361 . S
C160 H120 0.930 . S
C160 C159 1.361 . S
C160 C161 1.399 . S
C161 H121 0.929 . S
C161 C156 1.386 . S
C161 C160 1.399 . S
C162 C141 1.485 . S
C162 C163 1.394 1_455 S
C162 C167 1.360 . S
C163 H122 0.931 . S
C163 C162 1.394 1_655 S
C163 C164 1.372 . S
C164 H123 0.930 . S
C164 C163 1.372 . S
C164 C165 1.397 1_655 S
C165 C164 1.397 1_455 S
C165 C166 1.390 . S
C165 C181 1.476 . S
C166 H124 0.930 . S
C166 C165 1.390 . S
C166 C167 1.366 . S
C167 H125 0.932 . S
C167 C162 1.360 . S
C167 C166 1.366 . S
C168 C142 1.490 . S
C168 C169 1.380 1_455 S
C168 C173 1.386 . S
C169 H126 0.930 . S
C169 C168 1.380 1_655 S
C169 C170 1.381 . S
C170 H127 0.929 . S
C170 C169 1.381 . S
C170 C171 1.371 . S
C171 C170 1.371 . S
C171 C172 1.380 1_655 S
C172 H128 0.931 . S
C172 C171 1.380 1_455 S
C172 C173 1.387 . S
C173 H129 0.930 . S
C173 C168 1.386 . S
C173 C172 1.387 . S
C174 C143 1.519 . S
C174 C175 1.377 1_455 S
C174 C179 1.361 . S
C175 H130 0.929 . S
C175 C174 1.377 1_655 S
C175 C176 1.386 . S
C176 H131 0.931 . S
C176 C175 1.386 . S
C176 C177 1.363 1_655 S
C177 C176 1.363 1_455 S
C177 C178 1.385 . S
C178 H132 0.930 . S
C178 C177 1.385 . S
C178 C179 1.396 . S
C179 H133 0.929 . S
C179 C174 1.361 . S
C179 C178 1.396 . S
C180 O134 1.300 . S
C180 O135 1.209 . S
C180 C153 1.486 . S
C181 O136 1.199 1_455 S
C181 O137 1.297 . S
C181 C165 1.476 . S
H182 O208 0.856 . S
H183 O211 0.854 . S
H184 C219 0.930 . S
H185 C220 0.930 . S
H186 C222 0.930 . S
H187 C223 0.930 . S
H188 C225 0.931 . S
H189 C226 0.930 . S
H190 C228 0.930 . S
H191 C229 0.929 . S
H192 C231 0.930 . S
H193 C232 0.931 . S
H194 C234 0.930 . S
H195 C235 0.929 . S
H196 C237 0.931 . S
H197 C238 0.930 . S
H198 C240 0.930 . S
H199 C241 0.932 . S
H200 C243 0.930 . S
H201 C244 0.929 . S
H202 C246 0.931 . S
H203 C247 0.930 . S
H204 C249 0.929 . S
H205 C250 0.931 . S
H206 C252 0.930 . S
H207 C253 0.929 . S
O208 H182 0.856 . S
O208 C254 1.300 . S
O209 C254 1.209 . S
O210 C255 1.199 . S
O211 H183 0.854 . S
O211 C255 1.297 . S
C212 C213 1.404 . S
C212 C217 1.397 . S
C212 C218 1.492 . S
C213 C212 1.404 . S
C213 C214 1.396 . S
C213 C224 1.492 . S
C214 C213 1.396 . S
C214 C215 1.397 . S
C214 C230 1.509 . S
C215 C214 1.397 . S
C215 C216 1.412 . S
C215 C236 1.485 . S
C216 C215 1.412 . S
C216 C217 1.388 . S
C216 C242 1.490 . S
C217 C212 1.397 . S
C217 C216 1.388 . S
C217 C248 1.519 . S
C218 C212 1.492 . S
C218 C219 1.363 . S
C218 C223 1.390 . S
C219 H184 0.930 . S
C219 C218 1.363 . S
C219 C220 1.372 . S
C220 H185 0.930 . S
C220 C219 1.372 . S
C220 C221 1.383 . S
C221 C220 1.383 . S
C221 C222 1.395 . S
C222 H186 0.930 . S
C222 C221 1.395 . S
C222 C223 1.362 . S
C223 H187 0.930 . S
C223 C218 1.390 . S
C223 C222 1.362 . S
C224 C213 1.492 . S
C224 C225 1.377 . S
C224 C229 1.397 . S
C225 H188 0.931 . S
C225 C224 1.377 . S
C225 C226 1.376 . S
C226 H189 0.930 . S
C226 C225 1.376 . S
C226 C227 1.376 . S
C227 C226 1.376 . S
C227 C228 1.378 . S
C227 C254 1.486 . S
C228 H190 0.930 . S
C228 C227 1.378 . S
C228 C229 1.376 . S
C229 H191 0.929 . S
C229 C224 1.397 . S
C229 C228 1.376 . S
C230 C214 1.509 . S
C230 C231 1.391 . S
C230 C235 1.386 . S
C231 H192 0.930 . S
C231 C230 1.391 . S
C231 C232 1.375 . S
C232 H193 0.931 . S
C232 C231 1.375 . S
C232 C233 1.375 . S
C233 C232 1.375 . S
C233 C234 1.361 . S
C234 H194 0.930 . S
C234 C233 1.361 . S
C234 C235 1.399 . S
C235 H195 0.929 . S
C235 C230 1.386 . S
C235 C234 1.399 . S
C236 C215 1.485 . S
C236 C237 1.394 . S
C236 C241 1.360 . S
C237 H196 0.931 . S
C237 C236 1.394 . S
C237 C238 1.372 . S
C238 H197 0.930 . S
C238 C237 1.372 . S
C238 C239 1.397 . S
C239 C238 1.397 . S
C239 C240 1.390 . S
C239 C255 1.476 . S
C240 H198 0.930 . S
C240 C239 1.390 . S
C240 C241 1.366 . S
C241 H199 0.932 . S
C241 C236 1.360 . S
C241 C240 1.366 . S
C242 C216 1.490 . S
C242 C243 1.380 . S
C242 C247 1.386 . S
C243 H200 0.930 . S
C243 C242 1.380 . S
C243 C244 1.381 . S
C244 H201 0.929 . S
C244 C243 1.381 . S
C244 C245 1.371 . S
C245 C244 1.371 . S
C245 C246 1.380 . S
C246 H202 0.931 . S
C246 C245 1.380 . S
C246 C247 1.387 . S
C247 H203 0.930 . S
C247 C242 1.386 . S
C247 C246 1.387 . S
C248 C217 1.519 . S
C248 C249 1.377 . S
C248 C253 1.361 . S
C249 H204 0.929 . S
C249 C248 1.377 . S
C249 C250 1.386 . S
C250 H205 0.931 . S
C250 C249 1.386 . S
C250 C251 1.363 . S
C251 C250 1.363 . S
C251 C252 1.385 . S
C252 H206 0.930 . S
C252 C251 1.385 . S
C252 C253 1.396 . S
C253 H207 0.929 . S
C253 C248 1.361 . S
C253 C252 1.396 . S
C254 O208 1.300 . S
C254 O209 1.209 . S
C254 C227 1.486 . S
C255 O210 1.199 . S
C255 O211 1.297 . S
C255 C239 1.476 . S
H256 O282 0.856 . S
H257 O285 0.854 . S
H258 C293 0.930 . S
H259 C294 0.930 . S
H260 C296 0.930 . S
H261 C297 0.930 . S
H262 C299 0.931 . S
H263 C300 0.930 1_554 S
H264 C302 0.930 . S
H265 C303 0.929 . S
H266 C305 0.930 . S
H267 C306 0.931 . S
H268 C308 0.930 . S
H269 C309 0.929 . S
H270 C311 0.931 . S
H271 C312 0.930 . S
H272 C314 0.930 . S
H273 C315 0.932 . S
H274 C317 0.930 . S
H275 C318 0.929 . S
H276 C320 0.931 . S
H277 C321 0.930 . S
H278 C323 0.929 . S
H279 C324 0.931 . S
H280 C326 0.930 . S
H281 C327 0.929 . S
O282 H256 0.856 . S
O282 C328 1.300 . S
O283 C328 1.209 . S
O284 C329 1.199 . S
O285 H257 0.854 . S
O285 C329 1.297 . S
C286 C287 1.404 . S
C286 C291 1.397 . S
C286 C292 1.492 . S
C287 C286 1.404 . S
C287 C288 1.396 . S
C287 C298 1.492 . S
C288 C287 1.396 . S
C288 C289 1.397 . S
C288 C304 1.509 . S
C289 C288 1.397 . S
C289 C290 1.412 . S
C289 C310 1.485 . S
C290 C289 1.412 . S
C290 C291 1.388 . S
C290 C316 1.490 . S
C291 C286 1.397 . S
C291 C290 1.388 . S
C291 C322 1.519 . S
C292 C286 1.492 . S
C292 C293 1.363 . S
C292 C297 1.390 . S
C293 H258 0.930 . S
C293 C292 1.363 . S
C293 C294 1.372 . S
C294 H259 0.930 . S
C294 C293 1.372 . S
C294 C295 1.383 . S
C295 C294 1.383 . S
C295 C296 1.395 . S
C296 H260 0.930 . S
C296 C295 1.395 . S
C296 C297 1.362 . S
C297 H261 0.930 . S
C297 C292 1.390 . S
C297 C296 1.362 . S
C298 C287 1.492 . S
C298 C299 1.377 . S
C298 C303 1.397 . S
C299 H262 0.931 . S
C299 C298 1.377 . S
C299 C300 1.376 . S
C300 H263 0.930 1_556 S
C300 C299 1.376 . S
C300 C301 1.376 1_556 S
C301 C300 1.376 1_554 S
C301 C302 1.378 1_554 S
C301 C328 1.486 . S
C302 H264 0.930 . S
C302 C301 1.378 1_556 S
C302 C303 1.376 . S
C303 H265 0.929 . S
C303 C298 1.397 . S
C303 C302 1.376 . S
C304 C288 1.509 . S
C304 C305 1.391 . S
C304 C309 1.386 . S
C305 H266 0.930 . S
C305 C304 1.391 . S
C305 C306 1.375 . S
C306 H267 0.931 . S
C306 C305 1.375 . S
C306 C307 1.375 . S
C307 C306 1.375 . S
C307 C308 1.361 . S
C308 H268 0.930 . S
C308 C307 1.361 . S
C308 C309 1.399 . S
C309 H269 0.929 . S
C309 C304 1.386 . S
C309 C308 1.399 . S
C310 C289 1.485 . S
C310 C311 1.394 . S
C310 C315 1.360 . S
C311 H270 0.931 . S
C311 C310 1.394 . S
C311 C312 1.372 . S
C312 H271 0.930 . S
C312 C311 1.372 . S
C312 C313 1.397 . S
C313 C312 1.397 . S
C313 C314 1.390 . S
C313 C329 1.476 . S
C314 H272 0.930 . S
C314 C313 1.390 . S
C314 C315 1.366 . S
C315 H273 0.932 . S
C315 C310 1.360 . S
C315 C314 1.366 . S
C316 C290 1.490 . S
C316 C317 1.380 . S
C316 C321 1.386 . S
C317 H274 0.930 . S
C317 C316 1.380 . S
C317 C318 1.381 . S
C318 H275 0.929 . S
C318 C317 1.381 . S
C318 C319 1.371 . S
C319 C318 1.371 . S
C319 C320 1.380 . S
C320 H276 0.931 . S
C320 C319 1.380 . S
C320 C321 1.387 . S
C321 H277 0.930 . S
C321 C316 1.386 . S
C321 C320 1.387 . S
C322 C291 1.519 . S
C322 C323 1.377 . S
C322 C327 1.361 . S
C323 H278 0.929 . S
C323 C322 1.377 . S
C323 C324 1.386 . S
C324 H279 0.931 . S
C324 C323 1.386 . S
C324 C325 1.363 . S
C325 C324 1.363 . S
C325 C326 1.385 . S
C326 H280 0.930 . S
C326 C325 1.385 . S
C326 C327 1.396 . S
C327 H281 0.929 . S
C327 C322 1.361 . S
C327 C326 1.396 . S
C328 O282 1.300 . S
C328 O283 1.209 . S
C328 C301 1.486 . S
C329 O284 1.199 . S
C329 O285 1.297 . S
C329 C313 1.476 . S
H330 C331 0.951 . S
C331 H330 0.951 . S
C331 C337 1.265 . S
H332 C337 0.950 . S
H333 C341 0.949 . S
H334 C342 0.950 . S
H335 C343 0.951 . S
H336 C344 0.951 1_455 S
C337 C331 1.265 . S
C337 H332 0.950 . S
C337 C338 1.478 . S
C338 C337 1.478 . S
C338 C339 1.397 . S
C338 C355 1.394 . S
C339 C338 1.397 . S
C339 C340 1.438 . S
C339 C344 1.429 1_455 S
C340 C339 1.438 . S
C340 C341 1.428 1_455 S
C340 C353 1.394 . S
C341 H333 0.949 . S
C341 C340 1.428 1_655 S
C341 C342 1.345 . S
C342 H334 0.950 . S
C342 C341 1.345 . S
C342 C343 1.424 . S
C343 H335 0.951 . S
C343 C342 1.424 . S
C343 C344 1.347 . S
C344 H336 0.951 1_655 S
C344 C339 1.429 1_655 S
C344 C343 1.347 . S
H345 C346 0.951 . S
C346 H345 0.951 . S
C346 C352 1.265 . S
H347 C352 0.950 1_655 S
H348 C356 0.949 . S
H349 C357 0.950 . S
H350 C358 0.951 . S
H351 C359 0.951 . S
C352 C346 1.265 . S
C352 H347 0.950 1_455 S
C352 C353 1.478 . S
C353 C340 1.394 . S
C353 C352 1.478 . S
C353 C354 1.397 . S
C354 C353 1.397 . S
C354 C355 1.438 . S
C354 C359 1.429 . S
C355 C338 1.394 . S
C355 C354 1.438 . S
C355 C356 1.428 . S
C356 H348 0.949 . S
C356 C355 1.428 . S
C356 C357 1.345 . S
C357 H349 0.950 . S
C357 C356 1.345 . S
C357 C358 1.424 . S
C358 H350 0.951 . S
C358 C357 1.424 . S
C358 C359 1.347 . S
C359 H351 0.951 . S
C359 C354 1.429 . S
C359 C358 1.347 . S
H360 C361 0.951 . S
C361 H360 0.951 . S
C361 C367 1.265 . S
H362 C367 0.950 . S
H363 C371 0.949 . S
H364 C372 0.950 . S
H365 C373 0.951 . S
H366 C374 0.951 . S
C367 C361 1.265 . S
C367 H362 0.950 . S
C367 C368 1.478 . S
C368 C367 1.478 . S
C368 C369 1.397 . S
C368 C385 1.394 . S
C369 C368 1.397 . S
C369 C370 1.438 . S
C369 C374 1.429 1_545 S
C370 C369 1.438 . S
C370 C371 1.428 1_545 S
C370 C383 1.394 . S
C371 H363 0.949 . S
C371 C370 1.428 1_565 S
C371 C372 1.345 . S
C372 H364 0.950 . S
C372 C371 1.345 . S
C372 C373 1.424 . S
C373 H365 0.951 . S
C373 C372 1.424 . S
C373 C374 1.347 . S
C374 H366 0.951 . S
C374 C369 1.429 1_565 S
C374 C373 1.347 . S
H375 C376 0.951 . S
C376 H375 0.951 . S
C376 C382 1.265 . S
H377 C382 0.950 . S
H378 C386 0.949 . S
H379 C387 0.950 . S
H380 C388 0.951 . S
H381 C389 0.951 . S
C382 C376 1.265 . S
C382 H377 0.950 . S
C382 C383 1.478 . S
C383 C370 1.394 . S
C383 C382 1.478 . S
C383 C384 1.397 . S
C384 C383 1.397 . S
C384 C385 1.438 . S
C384 C389 1.429 . S
C385 C368 1.394 . S
C385 C384 1.438 . S
C385 C386 1.428 . S
C386 H378 0.949 . S
C386 C385 1.428 . S
C386 C387 1.345 . S
C387 H379 0.950 . S
C387 C386 1.345 . S
C387 C388 1.424 . S
C388 H380 0.951 . S
C388 C387 1.424 . S
C388 C389 1.347 . S
C389 H381 0.951 . S
C389 C384 1.429 . S
C389 C388 1.347 . S
H390 C391 0.951 . S
C391 H390 0.951 . S
C391 C397 1.265 . S
H392 C397 0.950 . S
H393 C401 0.949 . S
H394 C402 0.950 . S
H395 C403 0.951 . S
H396 C404 0.951 . S
C397 C391 1.265 . S
C397 H392 0.950 . S
C397 C398 1.478 . S
C398 C397 1.478 . S
C398 C399 1.397 . S
C398 C415 1.394 . S
C399 C398 1.397 . S
C399 C400 1.438 . S
C399 C404 1.429 . S
C400 C399 1.438 . S
C400 C401 1.428 . S
C400 C413 1.394 . S
C401 H393 0.949 . S
C401 C400 1.428 . S
C401 C402 1.345 . S
C402 H394 0.950 . S
C402 C401 1.345 . S
C402 C403 1.424 . S
C403 H395 0.951 . S
C403 C402 1.424 . S
C403 C404 1.347 . S
C404 H396 0.951 . S
C404 C399 1.429 . S
C404 C403 1.347 . S
H405 C406 0.951 . S
C406 H405 0.951 . S
C406 C412 1.265 . S
H407 C412 0.950 . S
H408 C416 0.949 . S
H409 C417 0.950 . S
H410 C418 0.951 . S
H411 C419 0.951 . S
C412 C406 1.265 . S
C412 H407 0.950 . S
C412 C413 1.478 . S
C413 C400 1.394 . S
C413 C412 1.478 . S
C413 C414 1.397 . S
C414 C413 1.397 . S
C414 C415 1.438 . S
C414 C419 1.429 . S
C415 C398 1.394 . S
C415 C414 1.438 . S
C415 C416 1.428 . S
C416 H408 0.949 . S
C416 C415 1.428 . S
C416 C417 1.345 . S
C417 H409 0.950 . S
C417 C416 1.345 . S
C417 C418 1.424 . S
C418 H410 0.951 . S
C418 C417 1.424 . S
C418 C419 1.347 . S
C419 H411 0.951 . S
C419 C414 1.429 . S
C419 C418 1.347 . S
H420 C421 0.951 . S
C421 H420 0.951 . S
C421 C427 1.265 . S
H422 C427 0.950 . S
H423 C431 0.949 . S
H424 C432 0.950 1_655 S
H425 C433 0.951 1_655 S
H426 C434 0.951 . S
C427 C421 1.265 . S
C427 H422 0.950 . S
C427 C428 1.478 . S
C428 C427 1.478 . S
C428 C429 1.397 . S
C428 C445 1.394 . S
C429 C428 1.397 . S
C429 C430 1.438 . S
C429 C434 1.429 . S
C430 C429 1.438 . S
C430 C431 1.428 . S
C430 C443 1.394 . S
C431 H423 0.949 . S
C431 C430 1.428 . S
C431 C432 1.345 . S
C432 H424 0.950 1_455 S
C432 C431 1.345 . S
C432 C433 1.424 . S
C433 H425 0.951 1_455 S
C433 C432 1.424 . S
C433 C434 1.347 . S
C434 H426 0.951 . S
C434 C429 1.429 . S
C434 C433 1.347 . S
H435 C436 0.951 . S
C436 H435 0.951 . S
C436 C442 1.265 . S
H437 C442 0.950 . S
H438 C446 0.949 1_545 S
H439 C447 0.950 . S
H440 C448 0.951 . S
H441 C449 0.951 . S
C442 C436 1.265 . S
C442 H437 0.950 . S
C442 C443 1.478 . S
C443 C430 1.394 . S
C443 C442 1.478 . S
C443 C444 1.397 . S
C444 C443 1.397 . S
C444 C445 1.438 . S
C444 C449 1.429 . S
C445 C428 1.394 . S
C445 C444 1.438 . S
C445 C446 1.428 . S
C446 H438 0.949 1_565 S
C446 C445 1.428 . S
C446 C447 1.345 1_565 S
C447 H439 0.950 . S
C447 C446 1.345 1_545 S
C447 C448 1.424 1_545 S
C448 H440 0.951 . S
C448 C447 1.424 1_565 S
C448 C449 1.347 . S
C449 H441 0.951 . S
C449 C444 1.429 . S
C449 C448 1.347 . S
H450 C451 0.951 . S
C451 H450 0.951 . S
C451 C457 1.265 . S
H452 C457 0.950 . S
H453 C461 0.949 . S
H454 C462 0.950 . S
H455 C463 0.951 . S
H456 C464 0.951 . S
C457 C451 1.265 . S
C457 H452 0.950 . S
C457 C458 1.478 . S
C458 C457 1.478 . S
C458 C459 1.397 . S
C458 C475 1.394 . S
C459 C458 1.397 . S
C459 C460 1.438 . S
C459 C464 1.429 . S
C460 C459 1.438 . S
C460 C461 1.428 . S
C460 C473 1.394 . S
C461 H453 0.949 . S
C461 C460 1.428 . S
C461 C462 1.345 . S
C462 H454 0.950 . S
C462 C461 1.345 . S
C462 C463 1.424 . S
C463 H455 0.951 . S
C463 C462 1.424 . S
C463 C464 1.347 . S
C464 H456 0.951 . S
C464 C459 1.429 . S
C464 C463 1.347 . S
H465 C466 0.951 . S
C466 H465 0.951 . S
C466 C472 1.265 . S
H467 C472 0.950 . S
H468 C476 0.949 . S
H469 C477 0.950 . S
H470 C478 0.951 . S
H471 C479 0.951 . S
C472 C466 1.265 . S
C472 H467 0.950 . S
C472 C473 1.478 . S
C473 C460 1.394 . S
C473 C472 1.478 . S
C473 C474 1.397 . S
C474 C473 1.397 . S
C474 C475 1.438 . S
C474 C479 1.429 . S
C475 C458 1.394 . S
C475 C474 1.438 . S
C475 C476 1.428 1_545 S
C476 H468 0.949 . S
C476 C475 1.428 1_565 S
C476 C477 1.345 . S
C477 H469 0.950 . S
C477 C476 1.345 . S
C477 C478 1.424 . S
C478 H470 0.951 . S
C478 C477 1.424 . S
C478 C479 1.347 1_565 S
C479 H471 0.951 . S
C479 C474 1.429 . S
C479 C478 1.347 1_545 S
H480 C481 0.951 . S
C481 H480 0.951 . S
C481 C487 1.265 . S
H482 C487 0.950 . S
H483 C491 0.949 . S
H484 C492 0.950 . S
H485 C493 0.951 . S
H486 C494 0.951 . S
C487 C481 1.265 . S
C487 H482 0.950 . S
C487 C488 1.478 . S
C488 C487 1.478 . S
C488 C489 1.397 . S
C488 C505 1.394 . S
C489 C488 1.397 . S
C489 C490 1.438 . S
C489 C494 1.429 . S
C490 C489 1.438 . S
C490 C491 1.428 . S
C490 C503 1.394 . S
C491 H483 0.949 . S
C491 C490 1.428 . S
C491 C492 1.345 . S
C492 H484 0.950 . S
C492 C491 1.345 . S
C492 C493 1.424 . S
C493 H485 0.951 . S
C493 C492 1.424 . S
C493 C494 1.347 . S
C494 H486 0.951 . S
C494 C489 1.429 . S
C494 C493 1.347 . S
H495 C496 0.951 . S
C496 H495 0.951 . S
C496 C502 1.265 . S
H497 C502 0.950 . S
H498 C506 0.949 . S
H499 C507 0.950 . S
H500 C508 0.951 . S
H501 C509 0.951 . S
C502 C496 1.265 . S
C502 H497 0.950 . S
C502 C503 1.478 . S
C503 C490 1.394 . S
C503 C502 1.478 . S
C503 C504 1.397 . S
C504 C503 1.397 . S
C504 C505 1.438 . S
C504 C509 1.429 . S
C505 C488 1.394 . S
C505 C504 1.438 . S
C505 C506 1.428 . S
C506 H498 0.949 . S
C506 C505 1.428 . S
C506 C507 1.345 . S
C507 H499 0.950 . S
C507 C506 1.345 . S
C507 C508 1.424 . S
C508 H500 0.951 . S
C508 C507 1.424 . S
C508 C509 1.347 . S
C509 H501 0.951 . S
C509 C504 1.429 . S
C509 C508 1.347 . S
H510 C511 0.951 . S
C511 H510 0.951 . S
C511 C517 1.265 . S
H512 C517 0.950 . S
H513 C521 0.949 . S
H514 C522 0.950 . S
H515 C523 0.951 . S
H516 C524 0.951 . S
C517 C511 1.265 . S
C517 H512 0.950 . S
C517 C518 1.478 . S
C518 C517 1.478 . S
C518 C519 1.397 . S
C518 C535 1.394 . S
C519 C518 1.397 . S
C519 C520 1.438 . S
C519 C524 1.429 . S
C520 C519 1.438 . S
C520 C521 1.428 . S
C520 C533 1.394 . S
C521 H513 0.949 . S
C521 C520 1.428 . S
C521 C522 1.345 . S
C522 H514 0.950 . S
C522 C521 1.345 . S
C522 C523 1.424 . S
C523 H515 0.951 . S
C523 C522 1.424 . S
C523 C524 1.347 . S
C524 H516 0.951 . S
C524 C519 1.429 . S
C524 C523 1.347 . S
H525 C526 0.951 . S
C526 H525 0.951 . S
C526 C532 1.265 . S
H527 C532 0.950 . S
H528 C536 0.949 . S
H529 C537 0.950 . S
H530 C538 0.951 . S
H531 C539 0.951 . S
C532 C526 1.265 . S
C532 H527 0.950 . S
C532 C533 1.478 . S
C533 C520 1.394 . S
C533 C532 1.478 . S
C533 C534 1.397 . S
C534 C533 1.397 . S
C534 C535 1.438 . S
C534 C539 1.429 . S
C535 C518 1.394 . S
C535 C534 1.438 . S
C535 C536 1.428 . S
C536 H528 0.949 . S
C536 C535 1.428 . S
C536 C537 1.345 1_545 S
C537 H529 0.950 . S
C537 C536 1.345 1_565 S
C537 C538 1.424 . S
C538 H530 0.951 . S
C538 C537 1.424 . S
C538 C539 1.347 1_565 S
C539 H531 0.951 . S
C539 C534 1.429 . S
C539 C538 1.347 1_545 S
H540 C541 0.951 1_545 S
C541 H540 0.951 1_565 S
C541 C547 1.265 . S
H542 C547 0.950 . S
H543 C551 0.949 . S
H544 C552 0.950 . S
H545 C553 0.951 . S
H546 C554 0.951 . S
C547 C541 1.265 . S
C547 H542 0.950 . S
C547 C548 1.478 . S
C548 C547 1.478 . S
C548 C549 1.397 . S
C548 C565 1.394 . S
C549 C548 1.397 . S
C549 C550 1.434 . S
C549 C554 1.429 . S
C550 C549 1.434 . S
C550 C551 1.429 1_554 S
C550 C563 1.397 1_554 S
C551 H543 0.949 . S
C551 C550 1.429 1_556 S
C551 C552 1.345 1_556 S
C552 H544 0.950 . S
C552 C551 1.345 1_554 S
C552 C553 1.424 . S
C553 H545 0.951 . S
C553 C552 1.424 . S
C553 C554 1.347 . S
C554 H546 0.951 . S
C554 C549 1.429 . S
C554 C553 1.347 . S
H555 C556 0.951 . S
C556 H555 0.951 . S
C556 C562 1.265 . S
H557 C562 0.950 . S
H558 C566 0.949 . S
H559 C567 0.950 1_455 S
H560 C568 0.951 . S
H561 C569 0.951 . S
C562 C556 1.265 . S
C562 H557 0.950 . S
C562 C563 1.478 . S
C563 C550 1.397 1_556 S
C563 C562 1.478 . S
C563 C564 1.397 . S
C564 C563 1.397 . S
C564 C565 1.438 1_556 S
C564 C569 1.429 . S
C565 C548 1.394 . S
C565 C564 1.438 1_554 S
C565 C566 1.428 . S
C566 H558 0.949 . S
C566 C565 1.428 . S
C566 C567 1.345 . S
C567 H559 0.950 1_655 S
C567 C566 1.345 . S
C567 C568 1.424 1_554 S
C568 H560 0.951 . S
C568 C567 1.424 1_556 S
C568 C569 1.347 . S
C569 H561 0.951 . S
C569 C564 1.429 . S
C569 C568 1.347 . S
H570 C571 0.951 . S
C571 H570 0.951 . S
C571 C577 1.265 1_655 S
H572 C577 0.950 . S
H573 C581 0.949 . S
H574 C582 0.950 . S
H575 C583 0.954 . S
H576 C584 0.951 . S
C577 C571 1.265 1_455 S
C577 H572 0.950 . S
C577 C578 1.478 . S
C578 C577 1.478 . S
C578 C579 1.397 1_455 S
C578 C595 1.394 1_455 S
C579 C578 1.397 1_655 S
C579 C580 1.438 . S
C579 C584 1.429 1_655 S
C580 C579 1.438 . S
C580 C581 1.428 . S
C580 C593 1.394 . S
C581 H573 0.949 . S
C581 C580 1.428 . S
C581 C582 1.345 . S
C582 H574 0.950 . S
C582 C581 1.345 . S
C582 C583 1.429 1_655 S
C583 H575 0.954 . S
C583 C582 1.429 1_455 S
C583 C584 1.339 . S
C584 H576 0.951 . S
C584 C579 1.429 1_455 S
C584 C583 1.339 . S
H585 C586 0.951 1_455 S
C586 H585 0.951 1_655 S
C586 C592 1.265 . S
H587 C592 0.950 . S
H588 C596 0.947 . S
H589 C597 0.950 . S
H590 C598 0.951 . S
H591 C599 0.951 . S
C592 C586 1.265 . S
C592 H587 0.950 . S
C592 C593 1.478 . S
C593 C580 1.394 . S
C593 C592 1.478 . S
C593 C594 1.397 . S
C594 C593 1.397 . S
C594 C595 1.438 . S
C594 C599 1.429 . S
C595 C578 1.394 1_655 S
C595 C594 1.438 . S
C595 C596 1.431 1_655 S
C596 H588 0.947 . S
C596 C595 1.431 1_455 S
C596 C597 1.344 1_455 S
C597 H589 0.950 . S
C597 C596 1.344 1_655 S
C597 C598 1.424 . S
C598 H590 0.951 . S
C598 C597 1.424 . S
C598 C599 1.347 . S
C599 H591 0.951 . S
C599 C594 1.429 . S
C599 C598 1.347 . S
H600 C601 0.951 . S
C601 H600 0.951 . S
C601 C607 1.265 . S
H602 C607 0.950 . S
H603 C611 0.949 . S
H604 C612 0.950 . S
H605 C613 0.951 . S
H606 C614 0.951 . S
C607 C601 1.265 . S
C607 H602 0.950 . S
C607 C608 1.478 . S
C608 C607 1.478 . S
C608 C609 1.397 . S
C608 C625 1.394 . S
C609 C608 1.397 . S
C609 C610 1.438 . S
C609 C614 1.429 . S
C610 C609 1.438 . S
C610 C611 1.428 . S
C610 C623 1.394 . S
C611 H603 0.949 . S
C611 C610 1.428 . S
C611 C612 1.345 . S
C612 H604 0.950 . S
C612 C611 1.345 . S
C612 C613 1.424 . S
C613 H605 0.951 . S
C613 C612 1.424 . S
C613 C614 1.347 . S
C614 H606 0.951 . S
C614 C609 1.429 . S
C614 C613 1.347 . S
H615 C616 0.951 . S
C616 H615 0.951 . S
C616 C622 1.265 . S
H617 C622 0.950 . S
H618 C626 0.949 . S
H619 C627 0.950 . S
H620 C628 0.951 . S
H621 C629 0.951 . S
C622 C616 1.265 . S
C622 H617 0.950 . S
C622 C623 1.478 . S
C623 C610 1.394 . S
C623 C622 1.478 . S
C623 C624 1.397 . S
C624 C623 1.397 . S
C624 C625 1.438 . S
C624 C629 1.429 1_545 S
C625 C608 1.394 . S
C625 C624 1.438 . S
C625 C626 1.428 1_545 S
C626 H618 0.949 . S
C626 C625 1.428 1_565 S
C626 C627 1.345 . S
C627 H619 0.950 . S
C627 C626 1.345 . S
C627 C628 1.424 . S
C628 H620 0.951 . S
C628 C627 1.424 . S
C628 C629 1.347 . S
C629 H621 0.951 . S
C629 C624 1.429 1_565 S
C629 C628 1.347 . S
H630 C631 0.951 . S
C631 H630 0.951 . S
C631 C637 1.265 . S
H632 C637 0.950 . S
H633 C641 0.949 . S
H634 C642 0.950 . S
H635 C643 0.951 . S
H636 C644 0.951 . S
C637 C631 1.265 . S
C637 H632 0.950 . S
C637 C638 1.478 . S
C638 C637 1.478 . S
C638 C639 1.397 . S
C638 C655 1.394 . S
C639 C638 1.397 . S
C639 C640 1.438 . S
C639 C644 1.429 . S
C640 C639 1.438 . S
C640 C641 1.428 . S
C640 C653 1.394 . S
C641 H633 0.949 . S
C641 C640 1.428 . S
C641 C642 1.345 . S
C642 H634 0.950 . S
C642 C641 1.345 . S
C642 C643 1.424 . S
C643 H635 0.951 . S
C643 C642 1.424 . S
C643 C644 1.347 . S
C644 H636 0.951 . S
C644 C639 1.429 . S
C644 C643 1.347 . S
H645 C646 0.951 1_554 S
C646 H645 0.951 1_556 S
C646 C652 1.265 . S
H647 C652 0.950 . S
H648 C656 0.949 . S
H649 C657 0.950 . S
H650 C658 0.951 . S
H651 C659 0.951 1_556 S
C652 C646 1.265 . S
C652 H647 0.950 . S
C652 C653 1.478 1_556 S
C653 C640 1.394 . S
C653 C652 1.478 1_554 S
C653 C654 1.397 . S
C654 C653 1.397 . S
C654 C655 1.438 . S
C654 C659 1.429 . S
C655 C638 1.394 . S
C655 C654 1.438 . S
C655 C656 1.428 . S
C656 H648 0.949 . S
C656 C655 1.428 . S
C656 C657 1.345 . S
C657 H649 0.950 . S
C657 C656 1.345 . S
C657 C658 1.424 . S
C658 H650 0.951 . S
C658 C657 1.424 . S
C658 C659 1.347 . S
C659 H651 0.951 1_554 S
C659 C654 1.429 . S
C659 C658 1.347 . S
H660 C661 0.951 1_655 S
C661 H660 0.951 1_455 S
C661 C667 1.265 . S
H662 C667 0.950 . S
H663 C671 0.949 . S
H664 C672 0.950 . S
H665 C673 0.951 . S
H666 C674 0.951 . S
C667 C661 1.265 . S
C667 H662 0.950 . S
C667 C668 1.478 . S
C668 C667 1.478 . S
C668 C669 1.397 . S
C668 C685 1.394 . S
C669 C668 1.397 . S
C669 C670 1.438 . S
C669 C674 1.429 . S
C670 C669 1.438 . S
C670 C671 1.428 1_455 S
C670 C683 1.394 . S
C671 H663 0.949 . S
C671 C670 1.428 1_655 S
C671 C672 1.345 . S
C672 H664 0.950 . S
C672 C671 1.345 . S
C672 C673 1.424 . S
C673 H665 0.951 . S
C673 C672 1.424 . S
C673 C674 1.347 1_655 S
C674 H666 0.951 . S
C674 C669 1.429 . S
C674 C673 1.347 1_455 S
H675 C676 0.951 . S
C676 H675 0.951 . S
C676 C682 1.265 . S
H677 C682 0.950 1_655 S
H678 C686 0.949 . S
H679 C687 0.950 . S
H680 C688 0.951 . S
H681 C689 0.951 . S
C682 C676 1.265 . S
C682 H677 0.950 1_455 S
C682 C683 1.478 . S
C683 C670 1.394 . S
C683 C682 1.478 . S
C683 C684 1.397 . S
C684 C683 1.397 . S
C684 C685 1.438 . S
C684 C689 1.429 . S
C685 C668 1.394 . S
C685 C684 1.438 . S
C685 C686 1.428 . S
C686 H678 0.949 . S
C686 C685 1.428 . S
C686 C687 1.345 . S
C687 H679 0.950 . S
C687 C686 1.345 . S
C687 C688 1.424 . S
C688 H680 0.951 . S
C688 C687 1.424 . S
C688 C689 1.347 . S
C689 H681 0.951 . S
C689 C684 1.429 . S
C689 C688 1.347 . S
C346 C147 1.358 . S
C331 C14 1.515 . S
C361 C40 1.367 . S
C376 C221 1.301 . S
C391 C76 2.065 1_665 S
C406 C325 2.098 . S
C421 C3 0.790 1_565 S
C436 C159 0.765 . S
C466 C233 0.860 . S
C451 C38 0.823 . S
C481 C74 1.514 . S
C496 C319 1.434 . S
C526 C251 2.092 . S
C511 C86 2.088 1_655 S
C541 C2 1.458 1_665 S
C556 C295 1.360 . S
C586 C171 1.415 . S
C571 C39 1.522 . S
C616 C245 1.290 . S
C601 C75 1.442 . S
C646 C307 0.817 . S
C631 C4 0.765 . S
C661 C50 2.107 . S
C676 C177 2.176 . S
