# Generated by pormake.
# Topology nom, (4,4)-cn, num edge types: 1
# Building blocks:
#     Node 0, Type 0, BuildingBlock: AZAVOO_clean_linker_0, # of connection points: 4
#     Node 1, Type 0, BuildingBlock: AZAVOO_clean_linker_0, # of connection points: 4
#     Node 2, Type 0, BuildingBlock: AZAVOO_clean_linker_0, # of connection points: 4
#     Node 3, Type 0, BuildingBlock: AZAVOO_clean_linker_0, # of connection points: 4
#     Node 4, Type 0, BuildingBlock: AZAVOO_clean_linker_0, # of connection points: 4
#     Node 5, Type 0, BuildingBlock: AZAVOO_clean_linker_0, # of connection points: 4
#     Node 6, Type 1, BuildingBlock: GALJAG_clean_sbu_0, # of connection points: 4
#     Node 7, Type 1, BuildingBlock: GALJAG_clean_sbu_0, # of connection points: 4
#     Node 8, Type 1, BuildingBlock: GALJAG_clean_sbu_0, # of connection points: 4
#     Node 9, Type 1, BuildingBlock: GALJAG_clean_sbu_0, # of connection points: 4
#     Node 10, Type 1, BuildingBlock: GALJAG_clean_sbu_0, # of connection points: 4
#     Node 11, Type 1, BuildingBlock: GALJAG_clean_sbu_0, # of connection points: 4
#     Edge 12, Type (0, 1), BuildingBlock: XUDNAN_clean_linker_2, # of connection points: 2
#     Edge 13, Type (0, 1), BuildingBlock: XUDNAN_clean_linker_2, # of connection points: 2
#     Edge 14, Type (0, 1), BuildingBlock: XUDNAN_clean_linker_2, # of connection points: 2
#     Edge 15, Type (0, 1), BuildingBlock: XUDNAN_clean_linker_2, # of connection points: 2
#     Edge 16, Type (0, 1), BuildingBlock: XUDNAN_clean_linker_2, # of connection points: 2
#     Edge 17, Type (0, 1), BuildingBlock: XUDNAN_clean_linker_2, # of connection points: 2
#     Edge 18, Type (0, 1), BuildingBlock: XUDNAN_clean_linker_2, # of connection points: 2
#     Edge 19, Type (0, 1), BuildingBlock: XUDNAN_clean_linker_2, # of connection points: 2
#     Edge 20, Type (0, 1), BuildingBlock: XUDNAN_clean_linker_2, # of connection points: 2
#     Edge 21, Type (0, 1), BuildingBlock: XUDNAN_clean_linker_2, # of connection points: 2
#     Edge 22, Type (0, 1), BuildingBlock: XUDNAN_clean_linker_2, # of connection points: 2
#     Edge 23, Type (0, 1), BuildingBlock: XUDNAN_clean_linker_2, # of connection points: 2
#     Edge 24, Type (0, 1), BuildingBlock: XUDNAN_clean_linker_2, # of connection points: 2
#     Edge 25, Type (0, 1), BuildingBlock: XUDNAN_clean_linker_2, # of connection points: 2
#     Edge 26, Type (0, 1), BuildingBlock: XUDNAN_clean_linker_2, # of connection points: 2
#     Edge 27, Type (0, 1), BuildingBlock: XUDNAN_clean_linker_2, # of connection points: 2
#     Edge 28, Type (0, 1), BuildingBlock: XUDNAN_clean_linker_2, # of connection points: 2
#     Edge 29, Type (0, 1), BuildingBlock: XUDNAN_clean_linker_2, # of connection points: 2
#     Edge 30, Type (0, 1), BuildingBlock: XUDNAN_clean_linker_2, # of connection points: 2
#     Edge 31, Type (0, 1), BuildingBlock: XUDNAN_clean_linker_2, # of connection points: 2
#     Edge 32, Type (0, 1), BuildingBlock: XUDNAN_clean_linker_2, # of connection points: 2
#     Edge 33, Type (0, 1), BuildingBlock: XUDNAN_clean_linker_2, # of connection points: 2
#     Edge 34, Type (0, 1), BuildingBlock: XUDNAN_clean_linker_2, # of connection points: 2
#     Edge 35, Type (0, 1), BuildingBlock: XUDNAN_clean_linker_2, # of connection points: 2
# Relax obj value: 0.113
# Max RMSD: 0.223
# Mean RMSD: 0.142
data_MOF--net-nom--node1-GALJAG_clean_sbu_0--node2-AZAVOO_clean_linker_0--edge1-XUDNAN_clean_linker_2
_symmetry_space_group_name_H-M    P1
_symmetry_Int_Tables_number       1
_symmetry_cell_setting            triclinic
loop_
_symmetry_equiv_pos_as_xyz
'x, y, z'
_cell_length_a     47.894296
_cell_length_b     49.191598
_cell_length_c     61.295
_cell_angle_alpha  90.173631
_cell_angle_beta   89.839742
_cell_angle_gamma 121.57442
loop_
_atom_site_label
_atom_site_type_symbol
_atom_site_fract_x
_atom_site_fract_y
_atom_site_fract_z
_atom_type_partial_charge
H0 H 0.06484 0.57043 0.17313 0.0
H1 H 0.23245 0.73959 0.39547 0.0
H2 H 0.01756 0.52902 0.29397 0.0
H3 H 0.98473 0.49416 0.26426 0.0
H4 H 0.94922 0.557 0.25027 0.0
H5 H 0.98326 0.59241 0.27995 0.0
H6 H 0.07955 0.5727 0.26798 0.0
H7 H 0.0784 0.56687 0.22824 0.0
H8 H 0.04419 0.63228 0.22213 0.0
H9 H 0.04548 0.63784 0.26189 0.0
H10 H 0.13588 0.61081 0.30221 0.0
H11 H 0.18882 0.63994 0.28352 0.0
H12 H 0.16651 0.71011 0.262 0.0
H13 H 0.11375 0.681 0.28118 0.0
H14 H 0.12007 0.60226 0.34918 0.0
H15 H 0.16744 0.63182 0.37324 0.0
H16 H 0.16972 0.71893 0.35863 0.0
H17 H 0.12201 0.68894 0.33484 0.0
H18 H 0.04797 0.55396 0.3576 0.0
H19 H 0.06109 0.54948 0.39509 0.0
H20 H 0.07635 0.64268 0.4091 0.0
H21 H 0.06516 0.64756 0.37084 0.0
H22 H 0.97893 0.52537 0.3285 0.0
H23 H 0.92492 0.50341 0.34507 0.0
H24 H 0.95137 0.59832 0.36533 0.0
H25 H 0.00418 0.62014 0.34723 0.0
O26 O 0.06605 0.57377 0.18875 0.0
O27 O 0.05156 0.60985 0.18636 0.0
O28 O 0.21157 0.68191 0.3929 0.0
O29 O 0.2141 0.72744 0.38573 0.0
C30 C 0.03004 0.58776 0.30234 0.0
C31 C 0.06059 0.60698 0.29184 0.0
C32 C 0.08911 0.62591 0.30425 0.0
C33 C 0.08728 0.62509 0.32721 0.0
C34 C 0.05661 0.60637 0.3377 0.0
C35 C 0.02772 0.58882 0.32525 0.0
C36 C 0.00251 0.56302 0.28921 0.0
C37 C 0.00169 0.53459 0.28504 0.0
C38 C 0.98292 0.51472 0.26796 0.0
C39 C 0.96453 0.52289 0.2547 0.0
C40 C 0.96353 0.55029 0.25997 0.0
C41 C 0.98248 0.57028 0.27711 0.0
C42 C 0.06271 0.60576 0.26772 0.0
C43 C 0.07221 0.58602 0.25798 0.0
C44 C 0.07135 0.58262 0.23531 0.0
C45 C 0.06107 0.59902 0.22201 0.0
C46 C 0.05221 0.6193 0.23189 0.0
C47 C 0.05302 0.62261 0.25456 0.0
C48 C 0.12127 0.64404 0.29318 0.0
C49 C 0.14257 0.63257 0.29354 0.0
C50 C 0.17257 0.64903 0.28266 0.0
C51 C 0.18173 0.67723 0.2712 0.0
C52 C 0.1602 0.68859 0.27084 0.0
C53 C 0.13013 0.67204 0.28171 0.0
C54 C 0.11756 0.64347 0.3404 0.0
C55 C 0.13092 0.62775 0.35116 0.0
C56 C 0.15795 0.64468 0.36489 0.0
C57 C 0.17227 0.67774 0.36795 0.0
C58 C 0.15923 0.6935 0.3567 0.0
C59 C 0.13208 0.67648 0.34304 0.0
C60 C 0.05576 0.6011 0.36153 0.0
C61 C 0.05325 0.57302 0.36894 0.0
C62 C 0.06075 0.57053 0.39052 0.0
C63 C 0.0703 0.59591 0.40528 0.0
C64 C 0.07002 0.623 0.39813 0.0
C65 C 0.06311 0.62569 0.37637 0.0
C66 C 0.99531 0.57446 0.33619 0.0
C67 C 0.97282 0.54145 0.33614 0.0
C68 C 0.94209 0.5289 0.34601 0.0
C69 C 0.93353 0.54907 0.35652 0.0
C70 C 0.95664 0.58206 0.35701 0.0
C71 C 0.98705 0.59458 0.34685 0.0
C72 C 0.05929 0.59467 0.19797 0.0
C73 C 0.20051 0.6957 0.38293 0.0
H74 H 0.53723 0.09988 0.35095 0.0
H75 H 0.4759 0.21517 0.57479 0.0
H76 H 0.503 0.03061 0.4587 0.0
H77 H 0.50007 0.99409 0.43039 0.0
H78 H 0.39476 0.94872 0.42871 0.0
H79 H 0.39791 0.98601 0.45688 0.0
H80 H 0.52935 0.09856 0.44622 0.0
H81 H 0.54259 0.10465 0.40728 0.0
H82 H 0.43921 0.05493 0.39199 0.0
H83 H 0.42635 0.04937 0.431 0.0
H84 H 0.54049 0.13825 0.4823 0.0
H85 H 0.56815 0.19517 0.47389 0.0
H86 H 0.47749 0.18135 0.44857 0.0
H87 H 0.44988 0.12413 0.45712 0.0
H88 H 0.52385 0.12552 0.52489 0.0
H89 H 0.53506 0.16825 0.5506 0.0
H90 H 0.44049 0.15522 0.53597 0.0
H91 H 0.4296 0.11244 0.51037 0.0
H92 H 0.49996 0.06123 0.53601 0.0
H93 H 0.50656 0.07418 0.57443 0.0
H94 H 0.40849 0.05803 0.57638 0.0
H95 H 0.40385 0.04828 0.53708 0.0
H96 H 0.46505 0.98948 0.5038 0.0
H97 H 0.43288 0.93661 0.52091 0.0
H98 H 0.34956 0.94816 0.52519 0.0
H99 H 0.38177 0.00066 0.5083 0.0
O100 O 0.53148 0.09782 0.36626 0.0
O101 O 0.47804 0.07207 0.35929 0.0
O102 O 0.52063 0.20436 0.57148 0.0
O103 O 0.4723 0.19867 0.56451 0.0
C104 C 0.45388 0.03708 0.47371 0.0
C105 C 0.4688 0.06834 0.46501 0.0
C106 C 0.47594 0.09418 0.47878 0.0
C107 C 0.46838 0.08889 0.50117 0.0
C108 C 0.45351 0.05779 0.50981 0.0
C109 C 0.44509 0.03166 0.49599 0.0
C110 C 0.45069 0.01104 0.45969 0.0
C111 C 0.47923 0.01245 0.45248 0.0
C112 C 0.47757 0.99176 0.43628 0.0
C113 C 0.44724 0.96894 0.42727 0.0
C114 C 0.4184 0.96614 0.43548 0.0
C115 C 0.42014 0.98726 0.45155 0.0
C116 C 0.47692 0.0738 0.44141 0.0
C117 C 0.50964 0.08946 0.43443 0.0
C118 C 0.51711 0.0927 0.41218 0.0
C119 C 0.49195 0.08023 0.39651 0.0
C120 C 0.45917 0.06481 0.40361 0.0
C121 C 0.45176 0.06166 0.42587 0.0
C122 C 0.49324 0.12725 0.47037 0.0
C123 C 0.52676 0.14744 0.4746 0.0
C124 C 0.54242 0.17989 0.46992 0.0
C125 C 0.52483 0.19267 0.46083 0.0
C126 C 0.49161 0.17206 0.4555 0.0
C127 C 0.47585 0.13949 0.46035 0.0
C128 C 0.47597 0.11602 0.5158 0.0
C129 C 0.50571 0.1321 0.52719 0.0
C130 C 0.51199 0.15643 0.54188 0.0
C131 C 0.48862 0.16511 0.54538 0.0
C132 C 0.45899 0.14912 0.53369 0.0
C133 C 0.45274 0.12477 0.51902 0.0
C134 C 0.45156 0.05403 0.5338 0.0
C135 C 0.47952 0.05951 0.54493 0.0
C136 C 0.48313 0.06687 0.5671 0.0
C137 C 0.45834 0.06797 0.57878 0.0
C138 C 0.42868 0.05868 0.56792 0.0
C139 C 0.42558 0.05236 0.5455 0.0
C140 C 0.42572 0.99887 0.5049 0.0
C141 C 0.43976 0.98036 0.50829 0.0
C142 C 0.42137 0.95023 0.51802 0.0
C143 C 0.38878 0.93837 0.52461 0.0
C144 C 0.37476 0.95684 0.52071 0.0
C145 C 0.39304 0.98675 0.51094 0.0
C146 C 0.49993 0.08309 0.37289 0.0
C147 C 0.49495 0.19058 0.56124 0.0
H148 H 0.52346 0.5069 0.78693 0.0
H149 H 0.5612 0.43705 0.53067 0.0
H150 H 0.52297 0.58631 0.6764 0.0
H151 H 0.51117 0.59815 0.71278 0.0
H152 H 0.42354 0.50427 0.71555 0.0
H153 H 0.43575 0.49261 0.67915 0.0
H154 H 0.54917 0.55044 0.69638 0.0
H155 H 0.54702 0.54071 0.73565 0.0
H156 H 0.46659 0.44385 0.72549 0.0
H157 H 0.46872 0.45411 0.68626 0.0
H158 H 0.58144 0.52221 0.66773 0.0
H159 H 0.60569 0.4921 0.68094 0.0
H160 H 0.51876 0.40415 0.66106 0.0
H161 H 0.49475 0.43456 0.64776 0.0
H162 H 0.58512 0.52277 0.62094 0.0
H163 H 0.60718 0.50535 0.59173 0.0
H164 H 0.50926 0.44414 0.56636 0.0
H165 H 0.48746 0.46129 0.59589 0.0
H166 H 0.56561 0.56404 0.59964 0.0
H167 H 0.57492 0.56508 0.56105 0.0
H168 H 0.46981 0.51281 0.55023 0.0
H169 H 0.46133 0.50769 0.5894 0.0
H170 H 0.52 0.59882 0.63329 0.0
H171 H 0.49045 0.62623 0.6256 0.0
H172 H 0.40105 0.535 0.61653 0.0
H173 H 0.43056 0.5079 0.62466 0.0
O174 O 0.52451 0.50994 0.77129 0.0
O175 O 0.48469 0.45974 0.7651 0.0
O176 O 0.60272 0.47427 0.55704 0.0
O177 O 0.55302 0.44352 0.54282 0.0
C178 C 0.49412 0.52742 0.65832 0.0
C179 C 0.50843 0.50995 0.66503 0.0
C180 C 0.52172 0.49879 0.64946 0.0
C181 C 0.52156 0.50576 0.6272 0.0
C182 C 0.50878 0.52476 0.62056 0.0
C183 C 0.49407 0.53469 0.63609 0.0
C184 C 0.48029 0.53858 0.67524 0.0
C185 C 0.50034 0.56896 0.68439 0.0
C186 C 0.49367 0.57557 0.70527 0.0
C187 C 0.46684 0.55182 0.71719 0.0
C188 C 0.44475 0.52276 0.70689 0.0
C189 C 0.45138 0.51623 0.68599 0.0
C190 C 0.50904 0.50301 0.68855 0.0
C191 C 0.53125 0.52709 0.70268 0.0
C192 C 0.52993 0.52148 0.72509 0.0
C193 C 0.50654 0.49153 0.73372 0.0
C194 C 0.48487 0.46719 0.71938 0.0
C195 C 0.48612 0.47291 0.69698 0.0
C196 C 0.53652 0.48048 0.65671 0.0
C197 C 0.56778 0.49646 0.66615 0.0
C198 C 0.58154 0.47929 0.67363 0.0
C199 C 0.56404 0.44585 0.67202 0.0
C200 C 0.53261 0.4299 0.66265 0.0
C201 C 0.519 0.44715 0.65493 0.0
C202 C 0.53467 0.4931 0.61064 0.0
C203 C 0.56841 0.50512 0.60932 0.0
C204 C 0.58097 0.49533 0.59251 0.0
C205 C 0.55998 0.47342 0.57665 0.0
C206 C 0.52611 0.46105 0.57827 0.0
C207 C 0.51358 0.47074 0.59515 0.0
C208 C 0.51286 0.53517 0.59744 0.0
C209 C 0.54459 0.55328 0.58885 0.0
C210 C 0.5498 0.55397 0.56643 0.0
C211 C 0.52317 0.53786 0.55189 0.0
C212 C 0.4912 0.52392 0.56061 0.0
C213 C 0.48609 0.5218 0.58318 0.0
C214 C 0.47742 0.55146 0.62928 0.0
C215 C 0.49414 0.58487 0.62936 0.0
C216 C 0.47726 0.6004 0.62507 0.0
C217 C 0.44353 0.58268 0.62038 0.0
C218 C 0.42711 0.54922 0.61978 0.0
C219 C 0.44387 0.53375 0.62444 0.0
C220 C 0.50454 0.48596 0.75761 0.0
C221 C 0.57331 0.46381 0.55831 0.0
H222 H 0.02167 0.5052 0.96124 0.0
H223 H 0.22099 0.53321 0.74649 0.0
H224 H 0.9773 0.49328 0.83857 0.0
H225 H 0.94707 0.49087 0.8712 0.0
H226 H 0.94557 0.40602 0.89161 0.0
H227 H 0.97318 0.40716 0.8579 0.0
H228 H 0.0408 0.52171 0.86689 0.0
H229 H 0.03552 0.52443 0.90644 0.0
H230 H 0.0317 0.43508 0.91346 0.0
H231 H 0.03665 0.43254 0.87386 0.0
H232 H 0.11628 0.54658 0.83682 0.0
H233 H 0.16886 0.56598 0.85528 0.0
H234 H 0.13998 0.46875 0.86985 0.0
H235 H 0.08777 0.44963 0.85117 0.0
H236 H 0.09661 0.54231 0.78701 0.0
H237 H 0.14659 0.56537 0.76498 0.0
H238 H 0.15491 0.48393 0.77963 0.0
H239 H 0.10457 0.4609 0.80132 0.0
H240 H 0.02411 0.5134 0.77554 0.0
H241 H 0.03636 0.52871 0.7371 0.0
H242 H 0.06043 0.45624 0.72758 0.0
H243 H 0.04808 0.44107 0.76604 0.0
H244 H 0.95982 0.47416 0.80117 0.0
H245 H 0.90694 0.44069 0.78284 0.0
H246 H 0.92965 0.3672 0.7735 0.0
H247 H 0.98214 0.40064 0.79193 0.0
O248 O 0.02547 0.50449 0.94579 0.0
O249 O 0.0252 0.4593 0.94869 0.0
O250 O 0.19541 0.56568 0.74773 0.0
O251 O 0.20123 0.52468 0.75516 0.0
C252 C 0.00734 0.46023 0.83259 0.0
C253 C 0.03783 0.47345 0.84344 0.0
C254 C 0.06687 0.48486 0.83135 0.0
C255 C 0.06599 0.4855 0.80838 0.0
C256 C 0.03562 0.47271 0.79751 0.0
C257 C 0.00618 0.45882 0.80959 0.0
C258 C 0.97767 0.45053 0.84591 0.0
C259 C 0.96847 0.47295 0.84933 0.0
C260 C 0.95196 0.47201 0.86838 0.0
C261 C 0.94522 0.44912 0.88458 0.0
C262 C 0.95048 0.42416 0.87966 0.0
C263 C 0.96619 0.42464 0.86026 0.0
C264 C 0.03931 0.47705 0.86757 0.0
C265 C 0.03941 0.50305 0.87706 0.0
C266 C 0.03619 0.50444 0.89963 0.0
C267 C 0.03298 0.47987 0.91311 0.0
C268 C 0.03407 0.45438 0.90356 0.0
C269 C 0.0372 0.45299 0.88097 0.0
C270 C 0.09831 0.49677 0.84282 0.0
C271 C 0.12139 0.52957 0.84405 0.0
C272 C 0.1513 0.54054 0.85453 0.0
C273 C 0.15833 0.51882 0.86406 0.0
C274 C 0.13495 0.486 0.86294 0.0
C275 C 0.10524 0.47506 0.85227 0.0
C276 C 0.09697 0.49992 0.79568 0.0
C277 C 0.10926 0.52949 0.7854 0.0
C278 C 0.13782 0.54261 0.77286 0.0
C279 C 0.15474 0.52647 0.77053 0.0
C280 C 0.14248 0.49698 0.78108 0.0
C281 C 0.11381 0.4838 0.79352 0.0
C282 C 0.03527 0.47618 0.77352 0.0
C283 C 0.03102 0.50018 0.76496 0.0
C284 C 0.03835 0.5091 0.74311 0.0
C285 C 0.04966 0.49388 0.72945 0.0
C286 C 0.05156 0.46825 0.7377 0.0
C287 C 0.0445 0.45952 0.75962 0.0
C288 C 0.97447 0.43954 0.79819 0.0
C289 C 0.95318 0.45073 0.79534 0.0
C290 C 0.92311 0.43165 0.78481 0.0
C291 C 0.91416 0.4013 0.77677 0.0
C292 C 0.93598 0.39058 0.77929 0.0
C293 C 0.96584 0.40953 0.78993 0.0
C294 C 0.02775 0.48054 0.93694 0.0
C295 C 0.185 0.54023 0.75711 0.0
H296 H 0.50462 0.00713 0.84555 0.0
H297 H 0.50957 0.87856 0.08375 0.0
H298 H 0.51845 0.08008 0.95761 0.0
H299 H 0.53038 0.10883 0.92287 0.0
H300 H 0.62382 0.11549 0.91992 0.0
H301 H 0.61171 0.08668 0.95438 0.0
H302 H 0.48871 0.01169 0.93991 0.0
H303 H 0.48573 0.00733 0.90006 0.0
H304 H 0.58227 0.02028 0.89859 0.0
H305 H 0.58491 0.02471 0.93841 0.0
H306 H 0.47148 0.94476 0.97018 0.0
H307 H 0.46272 0.89581 0.95257 0.0
H308 H 0.56728 0.93509 0.95285 0.0
H309 H 0.57567 0.98347 0.97042 0.0
H310 H 0.47215 0.96701 0.02242 0.0
H311 H 0.45599 0.92496 0.04964 0.0
H312 H 0.55199 0.93703 0.04485 0.0
H313 H 0.56783 0.9792 0.01777 0.0
H314 H 0.49864 0.03128 0.03922 0.0
H315 H 0.4988 0.02792 0.07906 0.0
H316 H 0.59568 0.04185 0.07653 0.0
H317 H 0.5955 0.04593 0.03673 0.0
H318 H 0.53363 0.09223 0.02114 0.0
H319 H 0.56716 0.1454 0.03788 0.0
H320 H 0.65388 0.15459 0.00875 0.0
H321 H 0.62077 0.10125 0.99307 0.0
O322 O 0.50592 0.00804 0.86131 0.0
O323 O 0.5555 0.01455 0.86146 0.0
O324 O 0.46617 0.88951 0.07464 0.0
O325 O 0.5151 0.89467 0.07273 0.0
C326 C 0.55257 0.05487 0.97424 0.0
C327 C 0.53967 0.02373 0.96592 0.0
C328 C 0.53046 0.99811 0.98026 0.0
C329 C 0.53146 0.003 0.00294 0.0
C330 C 0.544 0.03407 0.01131 0.0
C331 C 0.55568 0.06024 0.99696 0.0
C332 C 0.56431 0.08151 0.95855 0.0
C333 C 0.54217 0.08921 0.95 0.0
C334 C 0.54893 0.10546 0.93015 0.0
C335 C 0.5778 0.1139 0.91869 0.0
C336 C 0.60131 0.10901 0.92843 0.0
C337 C 0.59462 0.09294 0.94824 0.0
C338 C 0.5369 0.01829 0.94198 0.0
C339 C 0.50899 0.01318 0.93093 0.0
C340 C 0.50743 0.01085 0.90819 0.0
C341 C 0.5338 0.01353 0.89613 0.0
C342 C 0.56152 0.01807 0.90737 0.0
C343 C 0.56304 0.02044 0.9301 0.0
C344 C 0.52417 0.96746 0.97145 0.0
C345 C 0.49233 0.94249 0.9666 0.0
C346 C 0.48743 0.91472 0.95658 0.0
C347 C 0.5144 0.91195 0.95113 0.0
C348 C 0.54614 0.93685 0.95652 0.0
C349 C 0.55094 0.96431 0.96667 0.0
C350 C 0.52104 0.97591 0.0181 0.0
C351 C 0.4895 0.96028 0.02715 0.0
C352 C 0.4804 0.93638 0.04273 0.0
C353 C 0.50274 0.92767 0.04946 0.0
C354 C 0.5342 0.94315 0.04005 0.0
C355 C 0.54328 0.96711 0.02452 0.0
C356 C 0.54707 0.03889 0.03522 0.0
C357 C 0.52026 0.03461 0.04738 0.0
C358 C 0.52032 0.03243 0.07007 0.0
C359 C 0.54711 0.03426 0.08091 0.0
C360 C 0.57482 0.04066 0.0687 0.0
C361 C 0.57477 0.04294 0.04599 0.0
C362 C 0.57475 0.09316 0.00561 0.0
C363 C 0.55983 0.10587 0.01831 0.0
C364 C 0.57889 0.13607 0.02782 0.0
C365 C 0.61292 0.154 0.02434 0.0
C366 C 0.6276 0.14139 0.01132 0.0
C367 C 0.60872 0.11107 0.00226 0.0
C368 C 0.5325 0.01203 0.87194 0.0
C369 C 0.49343 0.90278 0.06635 0.0
H370 H 0.60572 0.61703 0.00499 0.0
H371 H 0.73297 0.56278 0.23488 0.0
H372 H 0.57415 0.64096 0.13571 0.0
H373 H 0.54156 0.63934 0.10487 0.0
H374 H 0.63023 0.70557 0.07014 0.0
H375 H 0.66253 0.70914 0.10192 0.0
H376 H 0.59709 0.60734 0.10001 0.0
H377 H 0.59133 0.60315 0.06032 0.0
H378 H 0.69521 0.6714 0.0535 0.0
H379 H 0.70056 0.67557 0.09331 0.0
H380 H 0.62571 0.57324 0.11831 0.0
H381 H 0.64174 0.53626 0.10537 0.0
H382 H 0.74328 0.60741 0.11809 0.0
H383 H 0.72697 0.64456 0.13053 0.0
H384 H 0.62561 0.56927 0.1693 0.0
H385 H 0.63946 0.53866 0.1936 0.0
H386 H 0.73668 0.62167 0.20197 0.0
H387 H 0.72241 0.65199 0.17765 0.0
H388 H 0.59113 0.60275 0.18568 0.0
H389 H 0.5823 0.5754 0.22021 0.0
H390 H 0.6818 0.64469 0.23916 0.0
H391 H 0.68954 0.67353 0.20502 0.0
H392 H 0.58171 0.64453 0.18022 0.0
H393 H 0.56605 0.67763 0.20028 0.0
H394 H 0.6529 0.76243 0.17681 0.0
H395 H 0.66968 0.72913 0.1578 0.0
O396 O 0.60884 0.61813 0.02064 0.0
O397 O 0.66288 0.65053 0.01785 0.0
O398 O 0.67681 0.53215 0.21994 0.0
O399 O 0.72721 0.57401 0.22465 0.0
C400 C 0.63913 0.66362 0.13409 0.0
C401 C 0.65187 0.64663 0.12353 0.0
C402 C 0.66478 0.63173 0.13594 0.0
C403 C 0.66331 0.63205 0.15885 0.0
C404 C 0.64932 0.6477 0.16949 0.0
C405 C 0.63849 0.66468 0.15715 0.0
C406 C 0.62081 0.67445 0.12083 0.0
C407 C 0.5865 0.65677 0.12207 0.0
C408 C 0.5679 0.65532 0.10416 0.0
C409 C 0.5834 0.67099 0.08463 0.0
C410 C 0.61746 0.69282 0.08479 0.0
C411 C 0.63604 0.69494 0.10301 0.0
C412 C 0.64917 0.64204 0.09948 0.0
C413 C 0.61859 0.62124 0.08991 0.0
C414 C 0.61536 0.61894 0.06724 0.0
C415 C 0.64274 0.6372 0.05374 0.0
C416 C 0.6736 0.65716 0.06344 0.0
C417 C 0.67677 0.65951 0.08614 0.0
C418 C 0.67524 0.61153 0.12521 0.0
C419 C 0.65147 0.58108 0.11775 0.0
C420 C 0.66063 0.55994 0.11057 0.0
C421 C 0.69372 0.56889 0.11089 0.0
C422 C 0.71764 0.59999 0.11746 0.0
C423 C 0.70842 0.62116 0.12462 0.0
C424 C 0.67301 0.61279 0.1718 0.0
C425 C 0.65 0.58064 0.17621 0.0
C426 C 0.65794 0.56329 0.19016 0.0
C427 C 0.68912 0.5778 0.19986 0.0
C428 C 0.71242 0.60981 0.19485 0.0
C429 C 0.70442 0.62715 0.1809 0.0
C430 C 0.64082 0.64047 0.19289 0.0
C431 C 0.61026 0.61344 0.19789 0.0
C432 C 0.60557 0.59727 0.21744 0.0
C433 C 0.6317 0.60724 0.23208 0.0
C434 C 0.66117 0.63635 0.22821 0.0
C435 C 0.6656 0.65303 0.20875 0.0
C436 C 0.6275 0.68435 0.16822 0.0
C437 C 0.59791 0.67015 0.17989 0.0
C438 C 0.58877 0.68904 0.19111 0.0
C439 C 0.60857 0.72241 0.19022 0.0
C440 C 0.63745 0.73668 0.17779 0.0
C441 C 0.64697 0.71775 0.16698 0.0
C442 C 0.63892 0.6357 0.02966 0.0
C443 C 0.69723 0.55983 0.21537 0.0
In444 In 0.64878 0.47476 0.40014 0.0
O445 O 0.70408 0.50829 0.40641 0.0
O446 O 0.68706 0.46287 0.39176 0.0
C447 C 0.61508 0.49298 0.42505 0.0
C448 C 0.64254 0.4939 0.36037 0.0
C449 C 0.62214 0.4169 0.41832 0.0
O450 O 0.64576 0.50563 0.42718 0.0
O451 O 0.60221 0.47211 0.41027 0.0
O452 O 0.61649 0.42042 0.39867 0.0
O453 O 0.64096 0.44249 0.42852 0.0
C454 C 0.71108 0.48866 0.39871 0.0
O455 O 0.62935 0.46472 0.3652 0.0
O456 O 0.659 0.5131 0.37547 0.0
In457 In 0.23322 0.6506 0.57579 0.0
O458 O 0.27072 0.63583 0.56935 0.0
O459 O 0.27095 0.65532 0.60036 0.0
C460 C 0.19925 0.63209 0.53815 0.0
C461 C 0.1844 0.61272 0.60383 0.0
C462 C 0.26437 0.71439 0.5716 0.0
O463 O 0.2128 0.61809 0.54592 0.0
O464 O 0.20334 0.65567 0.54906 0.0
O465 O 0.24111 0.69909 0.58501 0.0
O466 O 0.27177 0.69743 0.5604 0.0
C467 C 0.28356 0.64406 0.58804 0.0
O468 O 0.20164 0.64261 0.60637 0.0
O469 O 0.19184 0.60242 0.58739 0.0
In470 In 0.61635 0.23752 0.73572 0.0
O471 O 0.66573 0.24708 0.72307 0.0
O472 O 0.66456 0.26946 0.75265 0.0
C473 C 0.57249 0.19724 0.7063 0.0
C474 C 0.59943 0.2013 0.7718 0.0
C475 C 0.61587 0.29009 0.72515 0.0
O476 O 0.6013 0.20248 0.70714 0.0
O477 O 0.56609 0.21213 0.72023 0.0
O478 O 0.59871 0.27228 0.74075 0.0
O479 O 0.63285 0.28124 0.71517 0.0
C480 C 0.68169 0.26572 0.73868 0.0
O481 O 0.59833 0.22643 0.77117 0.0
O482 O 0.60826 0.19452 0.75426 0.0
In483 In 0.4548 0.64096 0.90425 0.0
O484 O 0.40386 0.60945 0.91916 0.0
O485 O 0.4072 0.62753 0.88723 0.0
C486 C 0.48565 0.63529 0.93909 0.0
C487 C 0.46882 0.61827 0.86834 0.0
C488 C 0.4717 0.70214 0.9076 0.0
O489 O 0.45789 0.61313 0.93276 0.0
O490 O 0.49853 0.65993 0.92734 0.0
O491 O 0.4868 0.69341 0.8953 0.0
O492 O 0.44829 0.68002 0.91829 0.0
C493 C 0.38894 0.61095 0.90273 0.0
O494 O 0.47197 0.64532 0.86904 0.0
O495 O 0.45996 0.60312 0.88608 0.0
In496 In 0.84006 0.42623 0.07348 0.0
O497 O 0.86707 0.415 0.09926 0.0
O498 O 0.87483 0.46152 0.09899 0.0
C499 C 0.79058 0.36572 0.06821 0.0
C500 C 0.80067 0.44926 0.08092 0.0
C501 C 0.87688 0.44161 0.03689 0.0
O502 O 0.80727 0.37544 0.08551 0.0
O503 O 0.79938 0.38635 0.0533 0.0
O504 O 0.87294 0.46149 0.04732 0.0
O505 O 0.86327 0.41423 0.04533 0.0
C506 C 0.88038 0.44202 0.10826 0.0
O507 O 0.8227 0.46091 0.06647 0.0
O508 O 0.7989 0.42656 0.0915 0.0
In509 In 0.4748 0.86908 0.2464 0.0
O510 O 0.50834 0.85278 0.25965 0.0
O511 O 0.50068 0.8504 0.22548 0.0
C512 C 0.47018 0.88297 0.2884 0.0
C513 C 0.49653 0.91824 0.21829 0.0
C514 C 0.41156 0.8251 0.23802 0.0
O515 O 0.45817 0.85492 0.2814 0.0
O516 O 0.48565 0.9045 0.27431 0.0
O517 O 0.42087 0.85288 0.24465 0.0
O518 O 0.43431 0.81971 0.23501 0.0
C519 C 0.51421 0.8454 0.24123 0.0
O520 O 0.46852 0.89328 0.21707 0.0
O521 O 0.51368 0.91893 0.23415 0.0
H522 H 0.22516 0.74169 0.27189 0.0
H523 H 0.2118 0.6532 0.24653 0.0
H524 H 0.26798 0.68276 0.23144 0.0
H525 H 0.27679 0.7936 0.22629 0.0
H526 H 0.3019 0.82628 0.24451 0.0
H527 H 0.25938 0.79867 0.25095 0.0
H528 H 0.27619 0.78721 0.28838 0.0
H529 H 0.31865 0.81465 0.28205 0.0
H530 H 0.30491 0.77402 0.28926 0.0
H531 H 0.32733 0.72092 0.22282 0.0
H532 H 0.38538 0.76486 0.2214 0.0
H533 H 0.35919 0.82844 0.25151 0.0
C534 C 0.2337 0.72866 0.26262 0.0
C535 C 0.21413 0.69519 0.26032 0.0
C536 C 0.22652 0.67885 0.24861 0.0
C537 C 0.25826 0.69545 0.23983 0.0
C538 C 0.27716 0.72839 0.24276 0.0
C539 C 0.26526 0.74485 0.25376 0.0
C540 C 0.29132 0.7798 0.25619 0.0
C541 C 0.28177 0.80082 0.24374 0.0
C542 C 0.29816 0.78946 0.2804 0.0
C543 C 0.32003 0.78025 0.24546 0.0
C544 C 0.31131 0.75045 0.2376 0.0
C545 C 0.33433 0.7445 0.22854 0.0
C546 C 0.36721 0.76954 0.22783 0.0
C547 C 0.37664 0.80004 0.23617 0.0
C548 C 0.35258 0.80551 0.24466 0.0
H549 H 0.52374 0.22623 0.4253 0.0
H550 H 0.5615 0.23788 0.49116 0.0
H551 H 0.58897 0.29631 0.48763 0.0
H552 H 0.59543 0.29332 0.40241 0.0
H553 H 0.5733 0.30461 0.3846 0.0
H554 H 0.55541 0.26352 0.39248 0.0
H555 H 0.50417 0.26261 0.40723 0.0
H556 H 0.5219 0.30372 0.39938 0.0
H557 H 0.50914 0.29181 0.42719 0.0
H558 H 0.61292 0.35291 0.47707 0.0
H559 H 0.63336 0.40511 0.45969 0.0
H560 H 0.58085 0.3576 0.40035 0.0
C561 C 0.53759 0.24115 0.43899 0.0
C562 C 0.5407 0.22764 0.45846 0.0
C563 C 0.55923 0.24783 0.476 0.0
C564 C 0.57472 0.281 0.47421 0.0
C565 C 0.57145 0.2936 0.45477 0.0
C566 C 0.55344 0.27442 0.43743 0.0
C567 C 0.55478 0.29431 0.41815 0.0
C568 C 0.57068 0.2886 0.39824 0.0
C569 C 0.52045 0.28772 0.41267 0.0
C570 C 0.57653 0.32761 0.42735 0.0
C571 C 0.58564 0.32655 0.44855 0.0
C572 C 0.60592 0.35411 0.46049 0.0
C573 C 0.6174 0.38364 0.45047 0.0
C574 C 0.60869 0.38539 0.42868 0.0
C575 C 0.58785 0.35697 0.41703 0.0
H576 H 0.39967 0.57263 0.58801 0.0
H577 H 0.44481 0.62826 0.64652 0.0
H578 H 0.41036 0.65187 0.64365 0.0
H579 H 0.39216 0.63427 0.55953 0.0
H580 H 0.35337 0.60559 0.54742 0.0
H581 H 0.38295 0.59454 0.55341 0.0
H582 H 0.33955 0.54695 0.57652 0.0
H583 H 0.30991 0.55793 0.57071 0.0
H584 H 0.31931 0.55422 0.59859 0.0
H585 H 0.36786 0.66568 0.63628 0.0
H586 H 0.32257 0.67173 0.62351 0.0
H587 H 0.3063 0.60875 0.5689 0.0
C588 C 0.40248 0.59004 0.60006 0.0
C589 C 0.42492 0.59877 0.61746 0.0
C590 C 0.42804 0.62162 0.63293 0.0
C591 C 0.4085 0.63502 0.63148 0.0
C592 C 0.38629 0.62559 0.6143 0.0
C593 C 0.38346 0.60395 0.5987 0.0
C594 C 0.35729 0.59751 0.58209 0.0
C595 C 0.37235 0.60865 0.55926 0.0
C596 C 0.3299 0.56205 0.58199 0.0
C597 C 0.34525 0.61827 0.59112 0.0
C598 C 0.36233 0.63426 0.60971 0.0
C599 C 0.35461 0.65365 0.62158 0.0
C600 C 0.32879 0.65683 0.61425 0.0
C601 C 0.31113 0.64088 0.59515 0.0
C602 C 0.31966 0.62153 0.5834 0.0
H603 H 0.85471 0.38964 0.79095 0.0
H604 H 0.90036 0.36506 0.73969 0.0
H605 H 0.84576 0.3276 0.72394 0.0
H606 H 0.7857 0.31187 0.79866 0.0
H607 H 0.75749 0.32505 0.80354 0.0
H608 H 0.8002 0.35083 0.81014 0.0
H609 H 0.80331 0.39527 0.78569 0.0
H610 H 0.76053 0.3697 0.77914 0.0
H611 H 0.79057 0.38656 0.75759 0.0
H612 H 0.7856 0.29192 0.7143 0.0
H613 H 0.725 0.26139 0.71154 0.0
H614 H 0.71978 0.30959 0.76941 0.0
C615 C 0.85328 0.37678 0.7762 0.0
C616 C 0.88173 0.38031 0.76649 0.0
C617 C 0.87879 0.36253 0.74746 0.0
C618 C 0.84794 0.34131 0.73837 0.0
C619 C 0.82031 0.33813 0.74853 0.0
C620 C 0.82275 0.35546 0.767 0.0
C621 C 0.78937 0.34716 0.77515 0.0
C622 C 0.78282 0.33288 0.79824 0.0
C623 C 0.78574 0.37641 0.77433 0.0
C624 C 0.76774 0.32236 0.75844 0.0
C625 C 0.78594 0.31749 0.74316 0.0
C626 C 0.7711 0.29557 0.72617 0.0
C627 C 0.73673 0.27832 0.72474 0.0
C628 C 0.71776 0.28308 0.74028 0.0
C629 C 0.7336 0.30534 0.75732 0.0
H630 H 0.471 0.84934 0.96124 0.0
H631 H 0.54806 0.91036 0.91569 0.0
H632 H 0.54373 0.86289 0.89835 0.0
H633 H 0.49645 0.79479 0.96938 0.0
H634 H 0.45571 0.76003 0.97111 0.0
H635 H 0.46293 0.79853 0.97882 0.0
H636 H 0.41886 0.79205 0.95126 0.0
H637 H 0.41135 0.7534 0.94356 0.0
H638 H 0.42205 0.78351 0.92305 0.0
H639 H 0.53362 0.80938 0.88762 0.0
H640 H 0.51751 0.75295 0.88371 0.0
H641 H 0.44679 0.7269 0.93611 0.0
C642 C 0.48646 0.85259 0.94734 0.0
C643 C 0.50984 0.88338 0.93976 0.0
C644 C 0.53016 0.88688 0.92181 0.0
C645 C 0.52778 0.86012 0.91182 0.0
C646 C 0.50491 0.83009 0.91995 0.0
C647 C 0.48449 0.82614 0.93723 0.0
C648 C 0.46316 0.79137 0.9435 0.0
C649 C 0.46999 0.78587 0.9671 0.0
C650 C 0.42669 0.77938 0.94013 0.0
C651 C 0.47506 0.77647 0.92722 0.0
C652 C 0.49906 0.79919 0.91373 0.0
C653 C 0.51464 0.7913 0.89794 0.0
C654 C 0.50541 0.75926 0.89588 0.0
C655 C 0.48087 0.73566 0.90956 0.0
C656 C 0.46546 0.74444 0.92532 0.0
H657 H 0.74574 0.57669 0.08652 0.0
H658 H 0.66291 0.50756 0.1254 0.0
H659 H 0.6796 0.46842 0.11985 0.0
H660 H 0.7446 0.51941 0.04743 0.0
H661 H 0.78866 0.54005 0.04577 0.0
H662 H 0.7689 0.56201 0.05139 0.0
H663 H 0.80339 0.58487 0.08663 0.0
H664 H 0.82319 0.56295 0.08115 0.0
H665 H 0.80252 0.55785 0.10681 0.0
H666 H 0.7073 0.43856 0.11289 0.0
H667 H 0.74363 0.41867 0.10369 0.0
H668 H 0.80831 0.50643 0.06871 0.0
C669 C 0.731 0.55321 0.09368 0.0
C670 C 0.70286 0.54502 0.1062 0.0
C671 C 0.68417 0.5141 0.11537 0.0
C672 C 0.69354 0.49177 0.11242 0.0
C673 C 0.72154 0.50067 0.10016 0.0
C674 C 0.73992 0.53052 0.0908 0.0
C675 C 0.76961 0.53428 0.07904 0.0
C676 C 0.76782 0.53922 0.05445 0.0
C677 C 0.80156 0.5616 0.08901 0.0
C678 C 0.76535 0.50209 0.08366 0.0
C679 C 0.7374 0.48311 0.09584 0.0
C680 C 0.72903 0.45299 0.10313 0.0
C681 C 0.74986 0.44198 0.09789 0.0
C682 C 0.77859 0.46098 0.08541 0.0
C683 C 0.78625 0.49129 0.07804 0.0
H684 H 0.38459 0.88185 0.51431 0.0
H685 H 0.34897 0.92423 0.56022 0.0
H686 H 0.31436 0.87186 0.57787 0.0
H687 H 0.30924 0.80854 0.50749 0.0
H688 H 0.3274 0.78444 0.50591 0.0
H689 H 0.35052 0.82554 0.49744 0.0
H690 H 0.39688 0.83649 0.52442 0.0
H691 H 0.37394 0.79536 0.53291 0.0
H692 H 0.38727 0.82676 0.55286 0.0
H693 H 0.282 0.81455 0.58964 0.0
H694 H 0.25466 0.75626 0.59495 0.0
H695 H 0.31191 0.75136 0.54176 0.0
C696 C 0.36988 0.8802 0.52828 0.0
C697 C 0.36938 0.90711 0.53583 0.0
C698 C 0.34941 0.90385 0.55396 0.0
C699 C 0.32981 0.87425 0.56418 0.0
C700 C 0.33053 0.84812 0.55615 0.0
C701 C 0.35013 0.8508 0.53867 0.0
C702 C 0.34569 0.8188 0.53289 0.0
C703 C 0.33242 0.80875 0.50955 0.0
C704 C 0.37786 0.8194 0.53596 0.0
C705 C 0.32033 0.79771 0.54972 0.0
C706 C 0.31198 0.8151 0.56301 0.0
C707 C 0.28848 0.80069 0.57942 0.0
C708 C 0.27306 0.7676 0.5823 0.0
C709 C 0.28122 0.74933 0.56882 0.0
C710 C 0.30528 0.76472 0.5524 0.0
H711 H 0.53561 0.39265 0.69794 0.0
H712 H 0.62551 0.45816 0.66357 0.0
H713 H 0.6499 0.42725 0.67573 0.0
H714 H 0.57471 0.37944 0.74455 0.0
H715 H 0.54318 0.33788 0.74694 0.0
H716 H 0.5333 0.36602 0.73643 0.0
H717 H 0.5096 0.33189 0.70138 0.0
H718 H 0.51931 0.30363 0.7118 0.0
H719 H 0.53484 0.32193 0.68557 0.0
H720 H 0.66275 0.38721 0.68892 0.0
H721 H 0.66412 0.34117 0.70343 0.0
H722 H 0.56684 0.30262 0.73071 0.0
C723 C 0.56046 0.40047 0.69306 0.0
C724 C 0.57877 0.42773 0.67984 0.0
C725 C 0.61127 0.43749 0.67387 0.0
C726 C 0.62526 0.42008 0.68066 0.0
C727 C 0.60654 0.39324 0.69361 0.0
C728 C 0.57494 0.38357 0.6999 0.0
C729 C 0.5599 0.35343 0.71347 0.0
C730 C 0.55234 0.35958 0.73673 0.0
C731 C 0.5291 0.32611 0.70239 0.0
C732 C 0.58772 0.34724 0.71338 0.0
C733 C 0.61439 0.37056 0.70184 0.0
C734 C 0.64225 0.36905 0.69827 0.0
C735 C 0.64277 0.34282 0.70651 0.0
C736 C 0.61573 0.31866 0.71833 0.0
C737 C 0.58807 0.32115 0.72209 0.0
H738 H 0.21871 0.56232 0.84794 0.0
H739 H 0.17016 0.50053 0.90339 0.0
H740 H 0.22414 0.51828 0.92001 0.0
H741 H 0.28423 0.54852 0.84452 0.0
H742 H 0.3144 0.58889 0.83686 0.0
H743 H 0.27199 0.57238 0.82994 0.0
H744 H 0.27257 0.61929 0.84981 0.0
H745 H 0.31504 0.63602 0.85673 0.0
H746 H 0.28541 0.62761 0.87791 0.0
H747 H 0.28361 0.54238 0.93016 0.0
H748 H 0.34404 0.57012 0.93267 0.0
H749 H 0.35283 0.61523 0.87018 0.0
C750 C 0.21945 0.55291 0.86374 0.0
C751 C 0.1904 0.53025 0.87449 0.0
C752 C 0.19226 0.51786 0.8949 0.0
C753 C 0.22273 0.52788 0.90448 0.0
C754 C 0.25096 0.55016 0.89336 0.0
C755 C 0.24956 0.56246 0.87342 0.0
C756 C 0.28342 0.58525 0.86444 0.0
C757 C 0.28881 0.57301 0.84266 0.0
C758 C 0.28945 0.61904 0.86209 0.0
C759 C 0.30413 0.58379 0.88241 0.0
C760 C 0.28503 0.56357 0.89901 0.0
C761 C 0.29882 0.55831 0.91728 0.0
C762 C 0.3331 0.57413 0.91857 0.0
C763 C 0.35299 0.59473 0.90161 0.0
C764 C 0.33822 0.59958 0.88338 0.0
H765 H 0.65726 0.21005 0.00486 0.0
H766 H 0.6161 0.16759 0.06772 0.0
H767 H 0.6564 0.21815 0.08604 0.0
H768 H 0.73948 0.25284 0.02044 0.0
H769 H 0.75088 0.28748 0.00401 0.0
H770 H 0.71725 0.24899 0.99578 0.0
H771 H 0.67864 0.27113 0.99478 0.0
H772 H 0.71228 0.30985 0.00273 0.0
H773 H 0.67503 0.29073 0.01857 0.0
H774 H 0.70504 0.271 0.0974 0.0
H775 H 0.7546 0.32487 0.101 0.0
H776 H 0.76198 0.33354 0.03051 0.0
C777 C 0.65645 0.21169 0.02246 0.0
C778 C 0.63373 0.18521 0.03498 0.0
C779 C 0.63321 0.18791 0.05793 0.0
C780 C 0.65606 0.21638 0.06843 0.0
C781 C 0.67876 0.24188 0.05563 0.0
C782 C 0.67871 0.24 0.03312 0.0
C783 C 0.70604 0.27058 0.02315 0.0
C784 C 0.72981 0.2646 0.01008 0.0
C785 C 0.69216 0.28651 0.00897 0.0
C786 C 0.72198 0.28972 0.04358 0.0
C787 C 0.70602 0.2727 0.06216 0.0
C788 C 0.71742 0.28476 0.08299 0.0
C789 C 0.74566 0.31521 0.08486 0.0
C790 C 0.76184 0.33326 0.06602 0.0
C791 C 0.7498 0.32032 0.04516 0.0
H792 H 0.59358 0.76437 0.17327 0.0
H793 H 0.60084 0.72381 0.23407 0.0
H794 H 0.58219 0.75514 0.25436 0.0
H795 H 0.61785 0.84396 0.19412 0.0
H796 H 0.58838 0.84658 0.17747 0.0
H797 H 0.6058 0.82383 0.16811 0.0
H798 H 0.5475 0.77399 0.1635 0.0
H799 H 0.52993 0.79656 0.17282 0.0
H800 H 0.51971 0.76002 0.1864 0.0
H801 H 0.5607 0.78913 0.26768 0.0
H802 H 0.53355 0.81976 0.27291 0.0
H803 H 0.5374 0.83566 0.20308 0.0
C804 C 0.59176 0.76264 0.19089 0.0
C805 C 0.59892 0.74217 0.20228 0.0
C806 C 0.59556 0.73965 0.22522 0.0
C807 C 0.58517 0.7574 0.23682 0.0
C808 C 0.57797 0.77725 0.22513 0.0
C809 C 0.58087 0.77977 0.20266 0.0
C810 C 0.56889 0.80059 0.19384 0.0
C811 C 0.59691 0.83052 0.18273 0.0
C812 C 0.53978 0.78165 0.17823 0.0
C813 C 0.55833 0.80898 0.21481 0.0
C814 C 0.56432 0.79577 0.23271 0.0
C815 C 0.55602 0.79971 0.2538 0.0
C816 C 0.54067 0.81717 0.25662 0.0
C817 C 0.53338 0.82999 0.2384 0.0
C818 C 0.54273 0.82614 0.2173 0.0
H819 H 0.89572 0.57628 0.35808 0.0
H820 H 0.89641 0.49194 0.37806 0.0
H821 H 0.84086 0.4691 0.39324 0.0
H822 H 0.85197 0.57943 0.40663 0.0
H823 H 0.82962 0.59307 0.39122 0.0
H824 H 0.87 0.60339 0.38255 0.0
H825 H 0.84709 0.57893 0.34448 0.0
H826 H 0.8067 0.56853 0.35301 0.0
H827 H 0.81343 0.53814 0.34252 0.0
H828 H 0.78368 0.45329 0.40305 0.0
H829 H 0.72927 0.44663 0.40843 0.0
H830 H 0.76722 0.54306 0.3855 0.0
C831 C 0.88462 0.55332 0.36607 0.0
C832 C 0.9006 0.53591 0.36671 0.0
C833 C 0.8846 0.50557 0.37691 0.0
C834 C 0.85313 0.4925 0.38581 0.0
C835 C 0.83813 0.51024 0.38474 0.0
C836 C 0.85344 0.54013 0.37535 0.0
C837 C 0.83154 0.55388 0.37582 0.0
C838 C 0.84669 0.58425 0.3899 0.0
C839 C 0.82426 0.56023 0.35258 0.0
C840 C 0.80119 0.52669 0.38651 0.0
C841 C 0.80556 0.50173 0.39148 0.0
C842 C 0.78018 0.47289 0.39968 0.0
C843 C 0.74942 0.46931 0.40266 0.0
C844 C 0.74448 0.49457 0.39778 0.0
C845 C 0.77079 0.5238 0.38995 0.0
H846 H 0.11937 0.64642 0.42856 0.0
H847 H 0.0515 0.54379 0.43183 0.0
H848 H 0.07866 0.54185 0.46532 0.0
H849 H 0.1895 0.64929 0.44783 0.0
H850 H 0.20385 0.68471 0.46416 0.0
H851 H 0.17918 0.6784 0.44036 0.0
H852 H 0.13721 0.68388 0.46373 0.0
H853 H 0.16203 0.69081 0.48756 0.0
H854 H 0.11952 0.65917 0.48754 0.0
H855 H 0.1165 0.55046 0.49658 0.0
H856 H 0.15618 0.5703 0.52713 0.0
H857 H 0.19432 0.66761 0.50604 0.0
C858 C 0.10945 0.62355 0.4365 0.0
C859 C 0.08342 0.59519 0.42718 0.0
C860 C 0.07193 0.56581 0.43817 0.0
C861 C 0.08708 0.56444 0.45731 0.0
C862 C 0.11321 0.59272 0.46562 0.0
C863 C 0.12372 0.62182 0.4559 0.0
C864 C 0.15174 0.64884 0.46848 0.0
C865 C 0.1829 0.66633 0.45436 0.0
C866 C 0.14203 0.67204 0.47736 0.0
C867 C 0.15555 0.63031 0.48668 0.0
C868 C 0.13349 0.59791 0.48451 0.0
C869 C 0.13353 0.5758 0.49867 0.0
C870 C 0.15624 0.58722 0.51582 0.0
C871 C 0.17795 0.62037 0.51886 0.0
C872 C 0.17766 0.64214 0.50409 0.0
H873 H 0.50024 0.06913 0.6105 0.0
H874 H 0.43384 0.10246 0.59728 0.0
H875 H 0.45118 0.13339 0.63117 0.0
H876 H 0.49801 0.07022 0.67076 0.0
H877 H 0.54143 0.08618 0.67288 0.0
H878 H 0.51867 0.06077 0.65022 0.0
H879 H 0.55851 0.10466 0.6233 0.0
H880 H 0.58121 0.13028 0.6458 0.0
H881 H 0.56467 0.14402 0.62521 0.0
H882 H 0.47939 0.16523 0.66435 0.0
H883 H 0.51863 0.19782 0.69326 0.0
H884 H 0.57187 0.1498 0.68219 0.0
C885 C 0.48895 0.08258 0.61468 0.0
C886 C 0.46521 0.08271 0.601 0.0
C887 C 0.45116 0.10072 0.60755 0.0
C888 C 0.46111 0.11878 0.6268 0.0
C889 C 0.48548 0.11907 0.63928 0.0
C890 C 0.49936 0.10159 0.63345 0.0
C891 C 0.52809 0.10931 0.64807 0.0
C892 C 0.52112 0.07986 0.66127 0.0
C893 C 0.55999 0.12288 0.6348 0.0
C894 C 0.52871 0.13452 0.66265 0.0
C895 C 0.50338 0.13917 0.65764 0.0
C896 C 0.49919 0.16166 0.66853 0.0
C897 C 0.52161 0.18006 0.68489 0.0
C898 C 0.54827 0.17634 0.68984 0.0
C899 C 0.55172 0.15314 0.67866 0.0
H900 H 0.47584 0.60459 0.73927 0.0
H901 H 0.45426 0.50806 0.74891 0.0
H902 H 0.45513 0.51539 0.78876 0.0
H903 H 0.53153 0.63994 0.7843 0.0
H904 H 0.51788 0.66669 0.79151 0.0
H905 H 0.51522 0.65382 0.76363 0.0
H906 H 0.45298 0.63271 0.76323 0.0
H907 H 0.45554 0.64586 0.791 0.0
H908 H 0.42687 0.60481 0.78386 0.0
H909 H 0.45853 0.53327 0.82758 0.0
H910 H 0.46097 0.55949 0.86261 0.0
H911 H 0.48115 0.64452 0.82761 0.0
C912 C 0.47118 0.58499 0.74979 0.0
C913 C 0.46466 0.55567 0.741 0.0
C914 C 0.45864 0.53052 0.75528 0.0
C915 C 0.45941 0.53456 0.77794 0.0
C916 C 0.46623 0.56386 0.78607 0.0
C917 C 0.47177 0.58857 0.77245 0.0
C918 C 0.4781 0.61752 0.78537 0.0
C919 C 0.51274 0.64618 0.78094 0.0
C920 C 0.4518 0.62569 0.78058 0.0
C921 C 0.47507 0.60516 0.80838 0.0
C922 C 0.46842 0.57424 0.80844 0.0
C923 C 0.46383 0.55753 0.82776 0.0
C924 C 0.46537 0.57263 0.84756 0.0
C925 C 0.47139 0.60404 0.8478 0.0
C926 C 0.47681 0.62059 0.82795 0.0
H927 H 0.9057 0.40362 0.91525 0.0
H928 H 0.96914 0.50601 0.90607 0.0
H929 H 0.95979 0.51492 0.94409 0.0
H930 H 0.84762 0.40535 0.95121 0.0
H931 H 0.84297 0.37343 0.96825 0.0
H932 H 0.85382 0.375 0.93993 0.0
H933 H 0.90524 0.37365 0.95106 0.0
H934 H 0.89472 0.37235 0.97944 0.0
H935 H 0.93438 0.40327 0.96973 0.0
H936 H 0.9428 0.51323 0.98284 0.0
H937 H 0.91926 0.50052 0.02002 0.0
H938 H 0.87043 0.39944 0.00517 0.0
C939 C 0.91767 0.42793 0.92118 0.0
C940 C 0.93762 0.45407 0.90733 0.0
C941 C 0.95277 0.4855 0.91594 0.0
C942 C 0.94801 0.49088 0.93768 0.0
C943 C 0.92839 0.46463 0.95083 0.0
C944 C 0.91354 0.43377 0.94298 0.0
C945 C 0.89396 0.40979 0.96072 0.0
C946 C 0.85743 0.38972 0.95466 0.0
C947 C 0.90792 0.38851 0.96552 0.0
C948 C 0.89978 0.43207 0.97964 0.0
C949 C 0.91972 0.46361 0.97356 0.0
C950 C 0.92742 0.48862 0.98789 0.0
C951 C 0.91398 0.4812 0.00894 0.0
C952 C 0.89338 0.44906 0.01548 0.0
C953 C 0.88661 0.42423 0.00071 0.0
H954 H 0.49458 0.98499 0.10146 0.0
H955 H 0.59426 0.06294 0.11287 0.0
H956 H 0.59095 0.04424 0.15081 0.0
H957 H 0.46224 0.98396 0.15627 0.0
H958 H 0.43661 0.94105 0.15626 0.0
H959 H 0.44611 0.96271 0.13095 0.0
H960 H 0.46864 0.92893 0.11521 0.0
H961 H 0.4595 0.90732 0.14045 0.0
H962 H 0.50058 0.92747 0.12963 0.0
H963 H 0.57781 0.01385 0.18659 0.0
H964 H 0.55608 0.97463 0.2168 0.0
H965 H 0.46498 0.91778 0.18134 0.0
C966 C 0.51539 0.9988 0.11211 0.0
C967 C 0.54453 0.02568 0.10432 0.0
C968 C 0.57167 0.0423 0.11855 0.0
C969 C 0.56994 0.03194 0.14012 0.0
C970 C 0.54091 0.00502 0.14716 0.0
C971 C 0.51408 0.98882 0.13356 0.0
C972 C 0.48651 0.95934 0.14439 0.0
C973 C 0.45607 0.96194 0.14713 0.0
C974 C 0.47836 0.92899 0.13167 0.0
C975 C 0.50214 0.96108 0.16614 0.0
C976 C 0.53343 0.98766 0.16756 0.0
C977 C 0.55318 0.99321 0.18576 0.0
C978 C 0.54067 0.97084 0.20281 0.0
C979 C 0.50881 0.94332 0.20145 0.0
C980 C 0.48929 0.93877 0.18298 0.0
H981 H 0.65546 0.62141 0.27426 0.0
H982 H 0.60447 0.5429 0.22843 0.0
H983 H 0.60181 0.50557 0.25611 0.0
H984 H 0.70477 0.59344 0.29802 0.0
H985 H 0.70295 0.6065 0.32521 0.0
H986 H 0.70024 0.62727 0.30193 0.0
H987 H 0.64513 0.61832 0.31639 0.0
H988 H 0.6477 0.5976 0.33974 0.0
H989 H 0.61204 0.57837 0.32244 0.0
H990 H 0.60408 0.47641 0.2887 0.0
H991 H 0.6121 0.45772 0.3242 0.0
H992 H 0.66329 0.55512 0.34842 0.0
C993 C 0.64372 0.59638 0.27007 0.0
C994 C 0.62959 0.58506 0.2493 0.0
C995 C 0.61459 0.55208 0.24444 0.0
C996 C 0.61322 0.53066 0.25998 0.0
C997 C 0.62717 0.54253 0.28031 0.0
C998 C 0.64223 0.57459 0.2854 0.0
C999 C 0.65563 0.58109 0.30842 0.0
C1000 C 0.69312 0.60339 0.30838 0.0
C1001 C 0.63913 0.59464 0.32258 0.0
C1002 C 0.64553 0.54765 0.31544 0.0
C1003 C 0.62914 0.52577 0.29898 0.0
C1004 C 0.61699 0.49332 0.30172 0.0
C1005 C 0.62164 0.48292 0.3219 0.0
C1006 C 0.63838 0.50497 0.33898 0.0
C1007 C 0.65055 0.53773 0.33561 0.0
H1008 H 0.48241 0.99086 0.38969 0.0
H1009 H 0.40949 0.90408 0.42224 0.0
H1010 H 0.40887 0.8723 0.39054 0.0
H1011 H 0.44847 0.96711 0.33605 0.0
H1012 H 0.48779 0.98645 0.32263 0.0
H1013 H 0.48305 0.0019 0.34812 0.0
H1014 H 0.53016 0.9975 0.36481 0.0
H1015 H 0.535 0.9819 0.33941 0.0
H1016 H 0.52775 0.95968 0.36428 0.0
H1017 H 0.4171 0.85036 0.35562 0.0
H1018 H 0.43017 0.83963 0.31883 0.0
H1019 H 0.49649 0.94123 0.30864 0.0
C1020 C 0.46653 0.96512 0.39018 0.0
C1021 C 0.44623 0.94972 0.40839 0.0
C1022 C 0.4252 0.91615 0.40836 0.0
C1023 C 0.42482 0.89801 0.39052 0.0
C1024 C 0.44537 0.91394 0.37286 0.0
C1025 C 0.46558 0.94677 0.37246 0.0
C1026 C 0.48438 0.9582 0.35121 0.0
C1027 C 0.47537 0.97967 0.33877 0.0
C1028 C 0.52153 0.97532 0.35517 0.0
C1029 C 0.47169 0.92663 0.33966 0.0
C1030 C 0.44942 0.90139 0.35251 0.0
C1031 C 0.43444 0.86991 0.34541 0.0
C1032 C 0.44211 0.86407 0.32451 0.0
C1033 C 0.46435 0.88961 0.31091 0.0
C1034 C 0.47944 0.92125 0.31869 0.0
H1035 H 0.57957 0.57198 0.52617 0.0
H1036 H 0.48016 0.48886 0.52431 0.0
H1037 H 0.49155 0.47456 0.48881 0.0
H1038 H 0.5938 0.58717 0.46704 0.0
H1039 H 0.63502 0.59525 0.46892 0.0
H1040 H 0.61721 0.60431 0.49162 0.0
H1041 H 0.62943 0.56963 0.51686 0.0
H1042 H 0.64706 0.56027 0.4943 0.0
H1043 H 0.61392 0.52857 0.50969 0.0
H1044 H 0.51458 0.46479 0.45568 0.0
H1045 H 0.54886 0.45811 0.42887 0.0
H1046 H 0.63551 0.54211 0.45473 0.0
C1047 C 0.55984 0.55081 0.51853 0.0
C1048 C 0.52867 0.53202 0.52862 0.0
C1049 C 0.50394 0.50479 0.51719 0.0
C1050 C 0.51023 0.49608 0.49685 0.0
C1051 C 0.54154 0.5143 0.48809 0.0
C1052 C 0.56607 0.54094 0.49863 0.0
C1053 C 0.59888 0.55345 0.48743 0.0
C1054 C 0.61199 0.58704 0.4782 0.0
C1055 C 0.62377 0.55293 0.503 0.0
C1056 C 0.58902 0.52909 0.4693 0.0
C1057 C 0.55564 0.5073 0.46967 0.0
C1058 C 0.5407 0.48186 0.4551 0.0
C1059 C 0.56043 0.47827 0.43994 0.0
C1060 C 0.59485 0.49959 0.43975 0.0
C1061 C 0.60925 0.52555 0.45447 0.0
H1062 H 0.09185 0.55606 0.71812 0.0
H1063 H 0.0375 0.46026 0.69133 0.0
H1064 H 0.06316 0.48128 0.6553 0.0
H1065 H 0.08989 0.59835 0.669 0.0
H1066 H 0.13105 0.63148 0.67334 0.0
H1067 H 0.10587 0.60931 0.69632 0.0
H1068 H 0.15073 0.5986 0.70921 0.0
H1069 H 0.17596 0.62056 0.68626 0.0
H1070 H 0.16517 0.57998 0.69076 0.0
H1071 H 0.09776 0.51191 0.6233 0.0
H1072 H 0.13914 0.54988 0.5973 0.0
H1073 H 0.17114 0.62609 0.64484 0.0
C1074 C 0.08467 0.53965 0.70451 0.0
C1075 C 0.06241 0.50658 0.70737 0.0
C1076 C 0.05445 0.48567 0.6894 0.0
C1077 C 0.06879 0.49741 0.6689 0.0
C1078 C 0.09102 0.5301 0.66671 0.0
C1079 C 0.09888 0.55095 0.684 0.0
C1080 C 0.12523 0.58464 0.67773 0.0
C1081 C 0.11222 0.60728 0.67918 0.0
C1082 C 0.15609 0.59663 0.69182 0.0
C1083 C 0.13138 0.57941 0.65428 0.0
C1084 C 0.11121 0.54781 0.64823 0.0
C1085 C 0.11343 0.53677 0.62776 0.0
C1086 C 0.13707 0.55851 0.61314 0.0
C1087 C 0.15822 0.59093 0.61904 0.0
C1088 C 0.15502 0.60154 0.6398 0.0
H1089 H 0.57216 0.16143 0.89946 0.0
H1090 H 0.5899 0.08521 0.88548 0.0
H1091 H 0.59386 0.09745 0.84625 0.0
H1092 H 0.52388 0.1513 0.85092 0.0
H1093 H 0.54142 0.19349 0.84692 0.0
H1094 H 0.53842 0.17801 0.87401 0.0
H1095 H 0.60087 0.21654 0.87943 0.0
H1096 H 0.60402 0.23224 0.85243 0.0
H1097 H 0.62902 0.21631 0.85995 0.0
H1098 H 0.59677 0.11787 0.8091 0.0
H1099 H 0.60192 0.14766 0.77565 0.0
H1100 H 0.58386 0.21216 0.81297 0.0
C1101 C 0.57681 0.1474 0.88805 0.0
C1102 C 0.58099 0.12257 0.89539 0.0
C1103 C 0.58711 0.10463 0.88013 0.0
C1104 C 0.58914 0.11123 0.85783 0.0
C1105 C 0.58513 0.13594 0.85108 0.0
C1106 C 0.57934 0.15395 0.86565 0.0
C1107 C 0.5774 0.18005 0.85396 0.0
C1108 C 0.54324 0.17542 0.85661 0.0
C1109 C 0.60445 0.21325 0.86192 0.0
C1110 C 0.58335 0.17401 0.83061 0.0
C1111 C 0.58734 0.14818 0.8294 0.0
C1112 C 0.59363 0.1381 0.80978 0.0
C1113 C 0.59648 0.15518 0.79087 0.0
C1114 C 0.59327 0.1822 0.79172 0.0
C1115 C 0.58624 0.19149 0.81184 0.0
H1116 H 0.58928 0.70683 0.04818 0.0
H1117 H 0.53775 0.60983 0.07311 0.0
H1118 H 0.50988 0.59012 0.03794 0.0
H1119 H 0.52368 0.69991 0.01608 0.0
H1120 H 0.54965 0.72381 0.99389 0.0
H1121 H 0.56578 0.73048 0.02117 0.0
H1122 H 0.61217 0.72224 0.00766 0.0
H1123 H 0.59595 0.71515 0.98034 0.0
H1124 H 0.60178 0.68585 0.99364 0.0
H1125 H 0.48627 0.5806 0.00073 0.0
H1126 H 0.46717 0.58245 0.9637 0.0
H1127 H 0.53552 0.68486 0.96186 0.0
C1128 C 0.57211 0.68147 0.04625 0.0
C1129 C 0.56526 0.66006 0.06366 0.0
C1130 C 0.54267 0.62697 0.06036 0.0
C1131 C 0.52702 0.61539 0.04029 0.0
C1132 C 0.53438 0.63706 0.02352 0.0
C1133 C 0.55632 0.66939 0.02621 0.0
C1134 C 0.55943 0.68749 0.00548 0.0
C1135 C 0.549 0.71185 0.0094 0.0
C1136 C 0.59442 0.70363 0.99624 0.0
C1137 C 0.53526 0.66031 0.99095 0.0
C1138 C 0.5213 0.63141 0.00167 0.0
C1139 C 0.49721 0.60303 0.99205 0.0
C1140 C 0.48654 0.6043 0.97104 0.0
C1141 C 0.50006 0.63372 0.95991 0.0
C1142 C 0.52515 0.66196 0.96986 0.0
H1143 H 0.9622 0.54645 0.21462 0.0
H1144 H 0.93313 0.458 0.24848 0.0
H1145 H 0.91343 0.42854 0.21373 0.0
H1146 H 0.89192 0.51302 0.17919 0.0
H1147 H 0.91495 0.53794 0.15644 0.0
H1148 H 0.92783 0.55186 0.1839 0.0
H1149 H 0.98512 0.56137 0.17499 0.0
H1150 H 0.97232 0.5467 0.14763 0.0
H1151 H 0.98868 0.52882 0.16497 0.0
H1152 H 0.89748 0.40879 0.17523 0.0
H1153 H 0.87946 0.39904 0.13676 0.0
H1154 H 0.91615 0.49989 0.12861 0.0
C1155 C 0.95117 0.52081 0.21488 0.0
C1156 C 0.94936 0.5046 0.23434 0.0
C1157 C 0.93526 0.47106 0.23375 0.0
C1158 C 0.924 0.4541 0.21409 0.0
C1159 C 0.92679 0.47096 0.19517 0.0
C1160 C 0.93951 0.50347 0.19547 0.0
C1161 C 0.93846 0.5157 0.17305 0.0
C1162 C 0.917 0.53049 0.17316 0.0
C1163 C 0.97322 0.53955 0.16467 0.0
C1164 C 0.9227 0.48488 0.16014 0.0
C1165 C 0.91673 0.45945 0.17312 0.0
C1166 C 0.90199 0.4285 0.1649 0.0
C1167 C 0.89204 0.42323 0.14301 0.0
C1168 C 0.89645 0.44872 0.12976 0.0
C1169 C 0.91262 0.47999 0.13835 0.0
loop_
_geom_bond_atom_site_label_1
_geom_bond_atom_site_label_2
_geom_bond_distance
_geom_bond_site_symmetry_2
_ccdc_geom_bond_type
H0 O26 0.856 . S
H1 O29 0.854 . S
H2 C37 0.930 . S
H3 C38 0.930 . S
H4 C40 0.930 . S
H5 C41 0.930 . S
H6 C43 0.931 . S
H7 C44 0.930 . S
H8 C46 0.930 . S
H9 C47 0.929 . S
H10 C49 0.930 . S
H11 C50 0.931 . S
H12 C52 0.930 . S
H13 C53 0.929 . S
H14 C55 0.931 . S
H15 C56 0.930 . S
H16 C58 0.930 . S
H17 C59 0.932 . S
H18 C61 0.930 . S
H19 C62 0.929 . S
H20 C64 0.931 . S
H21 C65 0.930 . S
H22 C67 0.929 . S
H23 C68 0.931 . S
H24 C70 0.930 . S
H25 C71 0.929 1_455 S
O26 H0 0.856 . S
O26 C72 1.300 . S
O27 C72 1.209 . S
O28 C73 1.199 . S
O29 H1 0.854 . S
O29 C73 1.297 . S
C30 C31 1.404 . S
C30 C35 1.397 . S
C30 C36 1.492 . S
C31 C30 1.404 . S
C31 C32 1.396 . S
C31 C42 1.492 . S
C32 C31 1.396 . S
C32 C33 1.397 . S
C32 C48 1.509 . S
C33 C32 1.397 . S
C33 C34 1.412 . S
C33 C54 1.485 . S
C34 C33 1.412 . S
C34 C35 1.388 . S
C34 C60 1.490 . S
C35 C30 1.397 . S
C35 C34 1.388 . S
C35 C66 1.519 . S
C36 C30 1.492 . S
C36 C37 1.363 . S
C36 C41 1.390 1_455 S
C37 H2 0.930 . S
C37 C36 1.363 . S
C37 C38 1.372 1_455 S
C38 H3 0.930 . S
C38 C37 1.372 1_655 S
C38 C39 1.383 . S
C39 C38 1.383 . S
C39 C40 1.395 . S
C40 H4 0.930 . S
C40 C39 1.395 . S
C40 C41 1.362 . S
C41 H5 0.930 . S
C41 C36 1.390 1_655 S
C41 C40 1.362 . S
C42 C31 1.492 . S
C42 C43 1.377 . S
C42 C47 1.397 . S
C43 H6 0.931 . S
C43 C42 1.377 . S
C43 C44 1.376 . S
C44 H7 0.930 . S
C44 C43 1.376 . S
C44 C45 1.376 . S
C45 C44 1.376 . S
C45 C46 1.378 . S
C45 C72 1.486 . S
C46 H8 0.930 . S
C46 C45 1.378 . S
C46 C47 1.376 . S
C47 H9 0.929 . S
C47 C42 1.397 . S
C47 C46 1.376 . S
C48 C32 1.509 . S
C48 C49 1.391 . S
C48 C53 1.386 . S
C49 H10 0.930 . S
C49 C48 1.391 . S
C49 C50 1.375 . S
C50 H11 0.931 . S
C50 C49 1.375 . S
C50 C51 1.375 . S
C51 C50 1.375 . S
C51 C52 1.361 . S
C52 H12 0.930 . S
C52 C51 1.361 . S
C52 C53 1.399 . S
C53 H13 0.929 . S
C53 C48 1.386 . S
C53 C52 1.399 . S
C54 C33 1.485 . S
C54 C55 1.394 . S
C54 C59 1.360 . S
C55 H14 0.931 . S
C55 C54 1.394 . S
C55 C56 1.372 . S
C56 H15 0.930 . S
C56 C55 1.372 . S
C56 C57 1.397 . S
C57 C56 1.397 . S
C57 C58 1.390 . S
C57 C73 1.476 . S
C58 H16 0.930 . S
C58 C57 1.390 . S
C58 C59 1.366 . S
C59 H17 0.932 . S
C59 C54 1.360 . S
C59 C58 1.366 . S
C60 C34 1.490 . S
C60 C61 1.380 . S
C60 C65 1.386 . S
C61 H18 0.930 . S
C61 C60 1.380 . S
C61 C62 1.381 . S
C62 H19 0.929 . S
C62 C61 1.381 . S
C62 C63 1.371 . S
C63 C62 1.371 . S
C63 C64 1.380 . S
C64 H20 0.931 . S
C64 C63 1.380 . S
C64 C65 1.387 . S
C65 H21 0.930 . S
C65 C60 1.386 . S
C65 C64 1.387 . S
C66 C35 1.519 . S
C66 C67 1.377 1_455 S
C66 C71 1.361 1_455 S
C67 H22 0.929 . S
C67 C66 1.377 1_655 S
C67 C68 1.386 . S
C68 H23 0.931 . S
C68 C67 1.386 . S
C68 C69 1.363 . S
C69 C68 1.363 . S
C69 C70 1.385 . S
C70 H24 0.930 . S
C70 C69 1.385 . S
C70 C71 1.396 . S
C71 H25 0.929 1_655 S
C71 C66 1.361 1_655 S
C71 C70 1.396 . S
C72 O26 1.300 . S
C72 O27 1.209 . S
C72 C45 1.486 . S
C73 O28 1.199 . S
C73 O29 1.297 . S
C73 C57 1.476 . S
H74 O100 0.856 . S
H75 O103 0.854 . S
H76 C111 0.930 . S
H77 C112 0.930 . S
H78 C114 0.930 . S
H79 C115 0.930 . S
H80 C117 0.931 . S
H81 C118 0.930 . S
H82 C120 0.930 . S
H83 C121 0.929 . S
H84 C123 0.930 . S
H85 C124 0.931 . S
H86 C126 0.930 . S
H87 C127 0.929 . S
H88 C129 0.931 . S
H89 C130 0.930 . S
H90 C132 0.930 . S
H91 C133 0.932 . S
H92 C135 0.930 . S
H93 C136 0.929 . S
H94 C138 0.931 . S
H95 C139 0.930 . S
H96 C141 0.929 . S
H97 C142 0.931 . S
H98 C144 0.930 . S
H99 C145 0.929 . S
O100 H74 0.856 . S
O100 C146 1.300 . S
O101 C146 1.209 . S
O102 C147 1.199 . S
O103 H75 0.854 . S
O103 C147 1.297 . S
C104 C105 1.404 . S
C104 C109 1.397 . S
C104 C110 1.492 . S
C105 C104 1.404 . S
C105 C106 1.396 . S
C105 C116 1.492 . S
C106 C105 1.396 . S
C106 C107 1.397 . S
C106 C122 1.509 . S
C107 C106 1.397 . S
C107 C108 1.412 . S
C107 C128 1.485 . S
C108 C107 1.412 . S
C108 C109 1.388 . S
C108 C134 1.490 . S
C109 C104 1.397 . S
C109 C108 1.388 . S
C109 C140 1.519 . S
C110 C104 1.492 . S
C110 C111 1.363 . S
C110 C115 1.390 . S
C111 H76 0.930 . S
C111 C110 1.363 . S
C111 C112 1.372 . S
C112 H77 0.930 . S
C112 C111 1.372 . S
C112 C113 1.383 1_545 S
C113 C112 1.383 1_565 S
C113 C114 1.395 . S
C114 H78 0.930 . S
C114 C113 1.395 . S
C114 C115 1.362 1_565 S
C115 H79 0.930 . S
C115 C110 1.390 . S
C115 C114 1.362 1_545 S
C116 C105 1.492 . S
C116 C117 1.377 . S
C116 C121 1.397 . S
C117 H80 0.931 . S
C117 C116 1.377 . S
C117 C118 1.376 . S
C118 H81 0.930 . S
C118 C117 1.376 . S
C118 C119 1.376 . S
C119 C118 1.376 . S
C119 C120 1.378 . S
C119 C146 1.486 . S
C120 H82 0.930 . S
C120 C119 1.378 . S
C120 C121 1.376 . S
C121 H83 0.929 . S
C121 C116 1.397 . S
C121 C120 1.376 . S
C122 C106 1.509 . S
C122 C123 1.391 . S
C122 C127 1.386 . S
C123 H84 0.930 . S
C123 C122 1.391 . S
C123 C124 1.375 . S
C124 H85 0.931 . S
C124 C123 1.375 . S
C124 C125 1.375 . S
C125 C124 1.375 . S
C125 C126 1.361 . S
C126 H86 0.930 . S
C126 C125 1.361 . S
C126 C127 1.399 . S
C127 H87 0.929 . S
C127 C122 1.386 . S
C127 C126 1.399 . S
C128 C107 1.485 . S
C128 C129 1.394 . S
C128 C133 1.360 . S
C129 H88 0.931 . S
C129 C128 1.394 . S
C129 C130 1.372 . S
C130 H89 0.930 . S
C130 C129 1.372 . S
C130 C131 1.397 . S
C131 C130 1.397 . S
C131 C132 1.390 . S
C131 C147 1.476 . S
C132 H90 0.930 . S
C132 C131 1.390 . S
C132 C133 1.366 . S
C133 H91 0.932 . S
C133 C128 1.360 . S
C133 C132 1.366 . S
C134 C108 1.490 . S
C134 C135 1.380 . S
C134 C139 1.386 . S
C135 H92 0.930 . S
C135 C134 1.380 . S
C135 C136 1.381 . S
C136 H93 0.929 . S
C136 C135 1.381 . S
C136 C137 1.371 . S
C137 C136 1.371 . S
C137 C138 1.380 . S
C138 H94 0.931 . S
C138 C137 1.380 . S
C138 C139 1.387 . S
C139 H95 0.930 . S
C139 C134 1.386 . S
C139 C138 1.387 . S
C140 C109 1.519 . S
C140 C141 1.377 . S
C140 C145 1.361 . S
C141 H96 0.929 . S
C141 C140 1.377 . S
C141 C142 1.386 1_545 S
C142 H97 0.931 . S
C142 C141 1.386 1_565 S
C142 C143 1.363 . S
C143 C142 1.363 . S
C143 C144 1.385 . S
C144 H98 0.930 . S
C144 C143 1.385 . S
C144 C145 1.396 1_565 S
C145 H99 0.929 . S
C145 C140 1.361 . S
C145 C144 1.396 1_545 S
C146 O100 1.300 . S
C146 O101 1.209 . S
C146 C119 1.486 . S
C147 O102 1.199 . S
C147 O103 1.297 . S
C147 C131 1.476 . S
H148 O174 0.856 . S
H149 O177 0.854 . S
H150 C185 0.930 . S
H151 C186 0.930 . S
H152 C188 0.930 . S
H153 C189 0.930 . S
H154 C191 0.931 . S
H155 C192 0.930 . S
H156 C194 0.930 . S
H157 C195 0.929 . S
H158 C197 0.930 . S
H159 C198 0.931 . S
H160 C200 0.930 . S
H161 C201 0.929 . S
H162 C203 0.931 . S
H163 C204 0.930 . S
H164 C206 0.930 . S
H165 C207 0.932 . S
H166 C209 0.930 . S
H167 C210 0.929 . S
H168 C212 0.931 . S
H169 C213 0.930 . S
H170 C215 0.929 . S
H171 C216 0.931 . S
H172 C218 0.930 . S
H173 C219 0.929 . S
O174 H148 0.856 . S
O174 C220 1.300 . S
O175 C220 1.209 . S
O176 C221 1.199 . S
O177 H149 0.854 . S
O177 C221 1.297 . S
C178 C179 1.404 . S
C178 C183 1.397 . S
C178 C184 1.492 . S
C179 C178 1.404 . S
C179 C180 1.396 . S
C179 C190 1.492 . S
C180 C179 1.396 . S
C180 C181 1.397 . S
C180 C196 1.509 . S
C181 C180 1.397 . S
C181 C182 1.412 . S
C181 C202 1.485 . S
C182 C181 1.412 . S
C182 C183 1.388 . S
C182 C208 1.490 . S
C183 C178 1.397 . S
C183 C182 1.388 . S
C183 C214 1.519 . S
C184 C178 1.492 . S
C184 C185 1.363 . S
C184 C189 1.390 . S
C185 H150 0.930 . S
C185 C184 1.363 . S
C185 C186 1.372 . S
C186 H151 0.930 . S
C186 C185 1.372 . S
C186 C187 1.383 . S
C187 C186 1.383 . S
C187 C188 1.395 . S
C188 H152 0.930 . S
C188 C187 1.395 . S
C188 C189 1.362 . S
C189 H153 0.930 . S
C189 C184 1.390 . S
C189 C188 1.362 . S
C190 C179 1.492 . S
C190 C191 1.377 . S
C190 C195 1.397 . S
C191 H154 0.931 . S
C191 C190 1.377 . S
C191 C192 1.376 . S
C192 H155 0.930 . S
C192 C191 1.376 . S
C192 C193 1.376 . S
C193 C192 1.376 . S
C193 C194 1.378 . S
C193 C220 1.486 . S
C194 H156 0.930 . S
C194 C193 1.378 . S
C194 C195 1.376 . S
C195 H157 0.929 . S
C195 C190 1.397 . S
C195 C194 1.376 . S
C196 C180 1.509 . S
C196 C197 1.391 . S
C196 C201 1.386 . S
C197 H158 0.930 . S
C197 C196 1.391 . S
C197 C198 1.375 . S
C198 H159 0.931 . S
C198 C197 1.375 . S
C198 C199 1.375 . S
C199 C198 1.375 . S
C199 C200 1.361 . S
C200 H160 0.930 . S
C200 C199 1.361 . S
C200 C201 1.399 . S
C201 H161 0.929 . S
C201 C196 1.386 . S
C201 C200 1.399 . S
C202 C181 1.485 . S
C202 C203 1.394 . S
C202 C207 1.360 . S
C203 H162 0.931 . S
C203 C202 1.394 . S
C203 C204 1.372 . S
C204 H163 0.930 . S
C204 C203 1.372 . S
C204 C205 1.397 . S
C205 C204 1.397 . S
C205 C206 1.390 . S
C205 C221 1.476 . S
C206 H164 0.930 . S
C206 C205 1.390 . S
C206 C207 1.366 . S
C207 H165 0.932 . S
C207 C202 1.360 . S
C207 C206 1.366 . S
C208 C182 1.490 . S
C208 C209 1.380 . S
C208 C213 1.386 . S
C209 H166 0.930 . S
C209 C208 1.380 . S
C209 C210 1.381 . S
C210 H167 0.929 . S
C210 C209 1.381 . S
C210 C211 1.371 . S
C211 C210 1.371 . S
C211 C212 1.380 . S
C212 H168 0.931 . S
C212 C211 1.380 . S
C212 C213 1.387 . S
C213 H169 0.930 . S
C213 C208 1.386 . S
C213 C212 1.387 . S
C214 C183 1.519 . S
C214 C215 1.377 . S
C214 C219 1.361 . S
C215 H170 0.929 . S
C215 C214 1.377 . S
C215 C216 1.386 . S
C216 H171 0.931 . S
C216 C215 1.386 . S
C216 C217 1.363 . S
C217 C216 1.363 . S
C217 C218 1.385 . S
C218 H172 0.930 . S
C218 C217 1.385 . S
C218 C219 1.396 . S
C219 H173 0.929 . S
C219 C214 1.361 . S
C219 C218 1.396 . S
C220 O174 1.300 . S
C220 O175 1.209 . S
C220 C193 1.486 . S
C221 O176 1.199 . S
C221 O177 1.297 . S
C221 C205 1.476 . S
H222 O248 0.856 . S
H223 O251 0.854 . S
H224 C259 0.929 1_455 S
H225 C260 0.930 . S
H226 C262 0.930 . S
H227 C263 0.930 . S
H228 C265 0.931 . S
H229 C266 0.930 . S
H230 C268 0.930 . S
H231 C269 0.929 . S
H232 C271 0.930 . S
H233 C272 0.931 . S
H234 C274 0.930 . S
H235 C275 0.929 . S
H236 C277 0.931 . S
H237 C278 0.930 . S
H238 C280 0.930 . S
H239 C281 0.932 . S
H240 C283 0.930 . S
H241 C284 0.929 . S
H242 C286 0.931 . S
H243 C287 0.930 . S
H244 C289 0.929 . S
H245 C290 0.931 . S
H246 C292 0.930 . S
H247 C293 0.929 . S
O248 H222 0.856 . S
O248 C294 1.300 . S
O249 C294 1.209 . S
O250 C295 1.199 . S
O251 H223 0.854 . S
O251 C295 1.297 . S
C252 C253 1.404 . S
C252 C257 1.397 . S
C252 C258 1.492 . S
C253 C252 1.404 . S
C253 C254 1.396 . S
C253 C264 1.492 . S
C254 C253 1.396 . S
C254 C255 1.397 . S
C254 C270 1.509 . S
C255 C254 1.397 . S
C255 C256 1.412 . S
C255 C276 1.485 . S
C256 C255 1.412 . S
C256 C257 1.388 . S
C256 C282 1.490 . S
C257 C252 1.397 . S
C257 C256 1.388 . S
C257 C288 1.519 1_455 S
C258 C252 1.492 . S
C258 C259 1.362 1_455 S
C258 C263 1.390 1_455 S
C259 H224 0.929 1_655 S
C259 C258 1.362 1_655 S
C259 C260 1.374 . S
C260 H225 0.930 . S
C260 C259 1.374 . S
C260 C261 1.383 . S
C261 C260 1.383 . S
C261 C262 1.395 . S
C262 H226 0.930 . S
C262 C261 1.395 . S
C262 C263 1.362 . S
C263 H227 0.930 . S
C263 C258 1.390 1_655 S
C263 C262 1.362 . S
C264 C253 1.492 . S
C264 C265 1.377 . S
C264 C269 1.397 . S
C265 H228 0.931 . S
C265 C264 1.377 . S
C265 C266 1.376 . S
C266 H229 0.930 . S
C266 C265 1.376 . S
C266 C267 1.376 . S
C267 C266 1.376 . S
C267 C268 1.378 . S
C267 C294 1.486 . S
C268 H230 0.930 . S
C268 C267 1.378 . S
C268 C269 1.376 . S
C269 H231 0.929 . S
C269 C264 1.397 . S
C269 C268 1.376 . S
C270 C254 1.509 . S
C270 C271 1.391 . S
C270 C275 1.386 . S
C271 H232 0.930 . S
C271 C270 1.391 . S
C271 C272 1.375 . S
C272 H233 0.931 . S
C272 C271 1.375 . S
C272 C273 1.375 . S
C273 C272 1.375 . S
C273 C274 1.361 . S
C274 H234 0.930 . S
C274 C273 1.361 . S
C274 C275 1.399 . S
C275 H235 0.929 . S
C275 C270 1.386 . S
C275 C274 1.399 . S
C276 C255 1.485 . S
C276 C277 1.394 . S
C276 C281 1.360 . S
C277 H236 0.931 . S
C277 C276 1.394 . S
C277 C278 1.372 . S
C278 H237 0.930 . S
C278 C277 1.372 . S
C278 C279 1.397 . S
C279 C278 1.397 . S
C279 C280 1.390 . S
C279 C295 1.476 . S
C280 H238 0.930 . S
C280 C279 1.390 . S
C280 C281 1.366 . S
C281 H239 0.932 . S
C281 C276 1.360 . S
C281 C280 1.366 . S
C282 C256 1.490 . S
C282 C283 1.380 . S
C282 C287 1.386 . S
C283 H240 0.930 . S
C283 C282 1.380 . S
C283 C284 1.381 . S
C284 H241 0.929 . S
C284 C283 1.381 . S
C284 C285 1.371 . S
C285 C284 1.371 . S
C285 C286 1.380 . S
C286 H242 0.931 . S
C286 C285 1.380 . S
C286 C287 1.387 . S
C287 H243 0.930 . S
C287 C282 1.386 . S
C287 C286 1.387 . S
C288 C257 1.519 1_655 S
C288 C289 1.377 . S
C288 C293 1.361 . S
C289 H244 0.929 . S
C289 C288 1.377 . S
C289 C290 1.386 . S
C290 H245 0.931 . S
C290 C289 1.386 . S
C290 C291 1.363 . S
C291 C290 1.363 . S
C291 C292 1.385 . S
C292 H246 0.930 . S
C292 C291 1.385 . S
C292 C293 1.396 . S
C293 H247 0.929 . S
C293 C288 1.361 . S
C293 C292 1.396 . S
C294 O248 1.300 . S
C294 O249 1.209 . S
C294 C267 1.486 . S
C295 O250 1.199 . S
C295 O251 1.297 . S
C295 C279 1.476 . S
H296 O322 0.856 . S
H297 O325 0.854 . S
H298 C333 0.930 . S
H299 C334 0.930 . S
H300 C336 0.930 . S
H301 C337 0.930 . S
H302 C339 0.931 . S
H303 C340 0.930 . S
H304 C342 0.930 . S
H305 C343 0.929 . S
H306 C345 0.930 . S
H307 C346 0.931 . S
H308 C348 0.930 . S
H309 C349 0.929 . S
H310 C351 0.931 . S
H311 C352 0.930 . S
H312 C354 0.930 . S
H313 C355 0.932 . S
H314 C357 0.930 . S
H315 C358 0.929 . S
H316 C360 0.931 . S
H317 C361 0.930 . S
H318 C363 0.943 . S
H319 C364 0.931 . S
H320 C366 0.930 . S
H321 C367 0.929 . S
O322 H296 0.856 . S
O322 C368 1.300 . S
O323 C368 1.209 1_545 S
O324 C369 1.199 . S
O325 H297 0.854 . S
O325 C369 1.297 . S
C326 C327 1.404 . S
C326 C331 1.397 . S
C326 C332 1.492 . S
C327 C326 1.404 . S
C327 C328 1.396 1_545 S
C327 C338 1.493 . S
C328 C327 1.396 1_565 S
C328 C329 1.397 . S
C328 C344 1.509 . S
C329 C328 1.397 . S
C329 C330 1.412 1_566 S
C329 C350 1.485 1_556 S
C330 C329 1.412 1_544 S
C330 C331 1.388 1_554 S
C330 C356 1.490 . S
C331 C326 1.397 . S
C331 C330 1.388 1_556 S
C331 C362 1.504 1_556 S
C332 C326 1.492 . S
C332 C333 1.363 . S
C332 C337 1.390 . S
C333 H298 0.930 . S
C333 C332 1.363 . S
C333 C334 1.372 . S
C334 H299 0.930 . S
C334 C333 1.372 . S
C334 C335 1.383 . S
C335 C334 1.383 . S
C335 C336 1.395 . S
C336 H300 0.930 . S
C336 C335 1.395 . S
C336 C337 1.362 . S
C337 H301 0.930 . S
C337 C332 1.390 . S
C337 C336 1.362 . S
C338 C327 1.493 . S
C338 C339 1.376 1_545 S
C338 C343 1.397 . S
C339 H302 0.931 . S
C339 C338 1.376 1_565 S
C339 C340 1.376 . S
C340 H303 0.930 . S
C340 C339 1.376 . S
C340 C341 1.376 . S
C341 C340 1.376 . S
C341 C342 1.378 1_565 S
C341 C368 1.486 . S
C342 H304 0.930 . S
C342 C341 1.378 1_545 S
C342 C343 1.376 . S
C343 H305 0.929 . S
C343 C338 1.397 . S
C343 C342 1.376 . S
C344 C328 1.509 . S
C344 C345 1.391 . S
C344 C349 1.386 . S
C345 H306 0.930 . S
C345 C344 1.391 . S
C345 C346 1.375 . S
C346 H307 0.931 . S
C346 C345 1.375 . S
C346 C347 1.375 . S
C347 C346 1.375 . S
C347 C348 1.361 . S
C348 H308 0.930 . S
C348 C347 1.361 . S
C348 C349 1.399 . S
C349 H309 0.929 . S
C349 C344 1.386 . S
C349 C348 1.399 . S
C350 C329 1.485 1_554 S
C350 C351 1.394 . S
C350 C355 1.360 . S
C351 H310 0.931 . S
C351 C350 1.394 . S
C351 C352 1.372 . S
C352 H311 0.930 . S
C352 C351 1.372 . S
C352 C353 1.397 . S
C353 C352 1.397 . S
C353 C354 1.390 . S
C353 C369 1.476 . S
C354 H312 0.930 . S
C354 C353 1.390 . S
C354 C355 1.366 . S
C355 H313 0.932 . S
C355 C350 1.360 . S
C355 C354 1.366 . S
C356 C330 1.490 . S
C356 C357 1.380 . S
C356 C361 1.386 . S
C357 H314 0.930 . S
C357 C356 1.380 . S
C357 C358 1.381 . S
C358 H315 0.929 . S
C358 C357 1.381 . S
C358 C359 1.371 . S
C359 C358 1.371 . S
C359 C360 1.380 . S
C360 H316 0.931 . S
C360 C359 1.380 . S
C360 C361 1.387 . S
C361 H317 0.930 . S
C361 C356 1.386 . S
C361 C360 1.387 . S
C362 C331 1.504 1_554 S
C362 C363 1.374 1_554 S
C362 C367 1.379 . S
C363 H318 0.943 . S
C363 C362 1.374 1_556 S
C363 C364 1.375 1_556 S
C364 H319 0.931 . S
C364 C363 1.375 1_554 S
C364 C365 1.363 . S
C365 C364 1.363 . S
C365 C366 1.385 . S
C366 H320 0.930 . S
C366 C365 1.385 . S
C366 C367 1.396 . S
C367 H321 0.929 . S
C367 C362 1.379 . S
C367 C366 1.396 . S
C368 O322 1.300 . S
C368 O323 1.209 1_565 S
C368 C341 1.486 . S
C369 O324 1.199 . S
C369 O325 1.297 . S
C369 C353 1.476 . S
H370 O396 0.856 . S
H371 O399 0.854 . S
H372 C407 0.930 . S
H373 C408 0.930 . S
H374 C410 0.930 . S
H375 C411 0.930 . S
H376 C413 0.931 . S
H377 C414 0.930 . S
H378 C416 0.930 . S
H379 C417 0.929 . S
H380 C419 0.930 . S
H381 C420 0.931 . S
H382 C422 0.930 . S
H383 C423 0.929 . S
H384 C425 0.931 . S
H385 C426 0.930 . S
H386 C428 0.930 . S
H387 C429 0.932 . S
H388 C431 0.930 . S
H389 C432 0.929 . S
H390 C434 0.931 . S
H391 C435 0.930 . S
H392 C437 0.929 . S
H393 C438 0.931 . S
H394 C440 0.930 . S
H395 C441 0.929 . S
O396 H370 0.856 . S
O396 C442 1.300 . S
O397 C442 1.209 . S
O398 C443 1.199 . S
O399 H371 0.854 . S
O399 C443 1.297 . S
C400 C401 1.404 . S
C400 C405 1.397 . S
C400 C406 1.492 . S
C401 C400 1.404 . S
C401 C402 1.396 . S
C401 C412 1.492 . S
C402 C401 1.396 . S
C402 C403 1.397 . S
C402 C418 1.509 . S
C403 C402 1.397 . S
C403 C404 1.412 . S
C403 C424 1.485 . S
C404 C403 1.412 . S
C404 C405 1.388 . S
C404 C430 1.490 . S
C405 C400 1.397 . S
C405 C404 1.388 . S
C405 C436 1.519 . S
C406 C400 1.492 . S
C406 C407 1.363 . S
C406 C411 1.390 . S
C407 H372 0.930 . S
C407 C406 1.363 . S
C407 C408 1.372 . S
C408 H373 0.930 . S
C408 C407 1.372 . S
C408 C409 1.383 . S
C409 C408 1.383 . S
C409 C410 1.395 . S
C410 H374 0.930 . S
C410 C409 1.395 . S
C410 C411 1.362 . S
C411 H375 0.930 . S
C411 C406 1.390 . S
C411 C410 1.362 . S
C412 C401 1.492 . S
C412 C413 1.377 . S
C412 C417 1.397 . S
C413 H376 0.931 . S
C413 C412 1.377 . S
C413 C414 1.376 . S
C414 H377 0.930 . S
C414 C413 1.376 . S
C414 C415 1.376 . S
C415 C414 1.376 . S
C415 C416 1.378 . S
C415 C442 1.486 . S
C416 H378 0.930 . S
C416 C415 1.378 . S
C416 C417 1.376 . S
C417 H379 0.929 . S
C417 C412 1.397 . S
C417 C416 1.376 . S
C418 C402 1.509 . S
C418 C419 1.391 . S
C418 C423 1.386 . S
C419 H380 0.930 . S
C419 C418 1.391 . S
C419 C420 1.375 . S
C420 H381 0.931 . S
C420 C419 1.375 . S
C420 C421 1.375 . S
C421 C420 1.375 . S
C421 C422 1.361 . S
C422 H382 0.930 . S
C422 C421 1.361 . S
C422 C423 1.399 . S
C423 H383 0.929 . S
C423 C418 1.386 . S
C423 C422 1.399 . S
C424 C403 1.485 . S
C424 C425 1.394 . S
C424 C429 1.360 . S
C425 H384 0.931 . S
C425 C424 1.394 . S
C425 C426 1.372 . S
C426 H385 0.930 . S
C426 C425 1.372 . S
C426 C427 1.397 . S
C427 C426 1.397 . S
C427 C428 1.390 . S
C427 C443 1.476 . S
C428 H386 0.930 . S
C428 C427 1.390 . S
C428 C429 1.366 . S
C429 H387 0.932 . S
C429 C424 1.360 . S
C429 C428 1.366 . S
C430 C404 1.490 . S
C430 C431 1.380 . S
C430 C435 1.386 . S
C431 H388 0.930 . S
C431 C430 1.380 . S
C431 C432 1.381 . S
C432 H389 0.929 . S
C432 C431 1.381 . S
C432 C433 1.371 . S
C433 C432 1.371 . S
C433 C434 1.380 . S
C434 H390 0.931 . S
C434 C433 1.380 . S
C434 C435 1.387 . S
C435 H391 0.930 . S
C435 C430 1.386 . S
C435 C434 1.387 . S
C436 C405 1.519 . S
C436 C437 1.377 . S
C436 C441 1.361 . S
C437 H392 0.929 . S
C437 C436 1.377 . S
C437 C438 1.386 . S
C438 H393 0.931 . S
C438 C437 1.386 . S
C438 C439 1.363 . S
C439 C438 1.363 . S
C439 C440 1.385 . S
C440 H394 0.930 . S
C440 C439 1.385 . S
C440 C441 1.396 . S
C441 H395 0.929 . S
C441 C436 1.361 . S
C441 C440 1.396 . S
C442 O396 1.300 . S
C442 O397 1.209 . S
C442 C415 1.486 . S
C443 O398 1.199 . S
C443 O399 1.297 . S
C443 C427 1.476 . S
In444 O445 2.294 . S
In444 O446 2.326 . S
In444 O450 2.266 . S
In444 O451 2.326 . S
In444 O452 2.266 . S
In444 O453 2.326 . S
In444 O455 2.294 . S
In444 O456 2.326 . S
O445 In444 2.294 . S
O445 C454 1.240 . S
O446 In444 2.326 . S
O446 C454 1.252 . S
C447 O450 1.252 . S
C447 O451 1.260 . S
C448 O455 1.240 . S
C448 O456 1.252 . S
C449 O452 1.252 . S
C449 O453 1.260 . S
O450 In444 2.266 . S
O450 C447 1.252 . S
O451 In444 2.326 . S
O451 C447 1.260 . S
O452 In444 2.266 . S
O452 C449 1.252 . S
O453 In444 2.326 . S
O453 C449 1.260 . S
C454 O445 1.240 . S
C454 O446 1.252 . S
O455 In444 2.294 . S
O455 C448 1.240 . S
O456 In444 2.326 . S
O456 C448 1.252 . S
In457 O458 2.294 . S
In457 O459 2.326 . S
In457 O463 2.266 . S
In457 O464 2.326 . S
In457 O465 2.266 . S
In457 O466 2.326 . S
In457 O468 2.294 . S
In457 O469 2.326 . S
O458 In457 2.294 . S
O458 C467 1.240 . S
O459 In457 2.326 . S
O459 C467 1.252 . S
C460 O463 1.252 . S
C460 O464 1.260 . S
C461 O468 1.240 . S
C461 O469 1.252 . S
C462 O465 1.252 . S
C462 O466 1.260 . S
O463 In457 2.266 . S
O463 C460 1.252 . S
O464 In457 2.326 . S
O464 C460 1.260 . S
O465 In457 2.266 . S
O465 C462 1.252 . S
O466 In457 2.326 . S
O466 C462 1.260 . S
C467 O458 1.240 . S
C467 O459 1.252 . S
O468 In457 2.294 . S
O468 C461 1.240 . S
O469 In457 2.326 . S
O469 C461 1.252 . S
In470 O471 2.294 . S
In470 O472 2.326 . S
In470 O476 2.266 . S
In470 O477 2.326 . S
In470 O478 2.266 . S
In470 O479 2.326 . S
In470 O481 2.294 . S
In470 O482 2.326 . S
O471 In470 2.294 . S
O471 C480 1.240 . S
O472 In470 2.326 . S
O472 C480 1.252 . S
C473 O476 1.252 . S
C473 O477 1.260 . S
C474 O481 1.240 . S
C474 O482 1.252 . S
C475 O478 1.252 . S
C475 O479 1.260 . S
O476 In470 2.266 . S
O476 C473 1.252 . S
O477 In470 2.326 . S
O477 C473 1.260 . S
O478 In470 2.266 . S
O478 C475 1.252 . S
O479 In470 2.326 . S
O479 C475 1.260 . S
C480 O471 1.240 . S
C480 O472 1.252 . S
O481 In470 2.294 . S
O481 C474 1.240 . S
O482 In470 2.326 . S
O482 C474 1.252 . S
In483 O484 2.294 . S
In483 O485 2.326 . S
In483 O489 2.266 . S
In483 O490 2.326 . S
In483 O491 2.266 . S
In483 O492 2.326 . S
In483 O494 2.294 . S
In483 O495 2.326 . S
O484 In483 2.294 . S
O484 C493 1.240 . S
O485 In483 2.326 . S
O485 C493 1.252 . S
C486 O489 1.252 . S
C486 O490 1.260 . S
C487 O494 1.240 . S
C487 O495 1.252 . S
C488 O491 1.252 . S
C488 O492 1.260 . S
O489 In483 2.266 . S
O489 C486 1.252 . S
O490 In483 2.326 . S
O490 C486 1.260 . S
O491 In483 2.266 . S
O491 C488 1.252 . S
O492 In483 2.326 . S
O492 C488 1.260 . S
C493 O484 1.240 . S
C493 O485 1.252 . S
O494 In483 2.294 . S
O494 C487 1.240 . S
O495 In483 2.326 . S
O495 C487 1.252 . S
In496 O497 2.294 . S
In496 O498 2.326 . S
In496 O502 2.266 . S
In496 O503 2.326 . S
In496 O504 2.266 . S
In496 O505 2.326 . S
In496 O507 2.294 . S
In496 O508 2.326 . S
O497 In496 2.294 . S
O497 C506 1.240 . S
O498 In496 2.326 . S
O498 C506 1.252 . S
C499 O502 1.252 . S
C499 O503 1.260 . S
C500 O507 1.240 . S
C500 O508 1.252 . S
C501 O504 1.252 . S
C501 O505 1.260 . S
O502 In496 2.266 . S
O502 C499 1.252 . S
O503 In496 2.326 . S
O503 C499 1.260 . S
O504 In496 2.266 . S
O504 C501 1.252 . S
O505 In496 2.326 . S
O505 C501 1.260 . S
C506 O497 1.240 . S
C506 O498 1.252 . S
O507 In496 2.294 . S
O507 C500 1.240 . S
O508 In496 2.326 . S
O508 C500 1.252 . S
In509 O510 2.294 . S
In509 O511 2.326 . S
In509 O515 2.266 . S
In509 O516 2.326 . S
In509 O517 2.266 . S
In509 O518 2.326 . S
In509 O520 2.294 . S
In509 O521 2.326 . S
O510 In509 2.294 . S
O510 C519 1.240 . S
O511 In509 2.326 . S
O511 C519 1.252 . S
C512 O515 1.252 . S
C512 O516 1.260 . S
C513 O520 1.240 . S
C513 O521 1.252 . S
C514 O517 1.252 . S
C514 O518 1.260 . S
O515 In509 2.266 . S
O515 C512 1.252 . S
O516 In509 2.326 . S
O516 C512 1.260 . S
O517 In509 2.266 . S
O517 C514 1.252 . S
O518 In509 2.326 . S
O518 C514 1.260 . S
C519 O510 1.240 . S
C519 O511 1.252 . S
O520 In509 2.294 . S
O520 C513 1.240 . S
O521 In509 2.326 . S
O521 C513 1.252 . S
H522 C534 0.930 . S
H523 C536 0.930 . S
H524 C537 0.930 . S
H525 C541 0.959 . S
H526 C541 0.959 . S
H527 C541 0.961 . S
H528 C542 0.960 . S
H529 C542 0.961 . S
H530 C542 0.959 . S
H531 C545 0.929 . S
H532 C546 0.931 . S
H533 C548 0.930 . S
C534 H522 0.930 . S
C534 C535 1.399 . S
C534 C539 1.399 . S
C535 C534 1.399 . S
C535 C536 1.376 . S
C536 H523 0.930 . S
C536 C535 1.376 . S
C536 C537 1.388 . S
C537 H524 0.930 . S
C537 C536 1.388 . S
C537 C538 1.390 . S
C538 C537 1.390 . S
C538 C539 1.394 . S
C538 C544 1.465 . S
C539 C534 1.399 . S
C539 C538 1.394 . S
C539 C540 1.516 . S
C540 C539 1.516 . S
C540 C541 1.502 . S
C540 C542 1.561 . S
C540 C543 1.526 . S
C541 H525 0.959 . S
C541 H526 0.959 . S
C541 H527 0.961 . S
C541 C540 1.502 . S
C542 H528 0.960 . S
C542 H529 0.961 . S
C542 H530 0.959 . S
C542 C540 1.561 . S
C543 C540 1.526 . S
C543 C544 1.396 . S
C543 C548 1.390 . S
C544 C538 1.465 . S
C544 C543 1.396 . S
C544 C545 1.399 . S
C545 H531 0.929 . S
C545 C544 1.399 . S
C545 C546 1.385 . S
C546 H532 0.931 . S
C546 C545 1.385 . S
C546 C547 1.389 . S
C547 C546 1.389 . S
C547 C548 1.387 . S
C548 H533 0.930 . S
C548 C543 1.390 . S
C548 C547 1.387 . S
H549 C561 0.930 . S
H550 C563 0.930 . S
H551 C564 0.930 . S
H552 C568 0.959 . S
H553 C568 0.959 . S
H554 C568 0.961 . S
H555 C569 0.960 . S
H556 C569 0.961 . S
H557 C569 0.959 . S
H558 C572 0.929 . S
H559 C573 0.931 . S
H560 C575 0.930 . S
C561 H549 0.930 . S
C561 C562 1.399 . S
C561 C566 1.399 . S
C562 C561 1.399 . S
C562 C563 1.376 . S
C563 H550 0.930 . S
C563 C562 1.376 . S
C563 C564 1.388 . S
C564 H551 0.930 . S
C564 C563 1.388 . S
C564 C565 1.390 . S
C565 C564 1.390 . S
C565 C566 1.394 . S
C565 C571 1.465 . S
C566 C561 1.399 . S
C566 C565 1.394 . S
C566 C567 1.516 . S
C567 C566 1.516 . S
C567 C568 1.502 . S
C567 C569 1.561 . S
C567 C570 1.526 . S
C568 H552 0.959 . S
C568 H553 0.959 . S
C568 H554 0.961 . S
C568 C567 1.502 . S
C569 H555 0.960 . S
C569 H556 0.961 . S
C569 H557 0.959 . S
C569 C567 1.561 . S
C570 C567 1.526 . S
C570 C571 1.396 . S
C570 C575 1.390 . S
C571 C565 1.465 . S
C571 C570 1.396 . S
C571 C572 1.399 . S
C572 H558 0.929 . S
C572 C571 1.399 . S
C572 C573 1.385 . S
C573 H559 0.931 . S
C573 C572 1.385 . S
C573 C574 1.389 . S
C574 C573 1.389 . S
C574 C575 1.387 . S
C575 H560 0.930 . S
C575 C570 1.390 . S
C575 C574 1.387 . S
H576 C588 0.930 . S
H577 C590 0.930 . S
H578 C591 0.930 . S
H579 C595 0.959 . S
H580 C595 0.959 . S
H581 C595 0.961 . S
H582 C596 0.960 . S
H583 C596 0.961 . S
H584 C596 0.959 . S
H585 C599 0.929 . S
H586 C600 0.931 . S
H587 C602 0.930 . S
C588 H576 0.930 . S
C588 C589 1.399 . S
C588 C593 1.399 . S
C589 C588 1.399 . S
C589 C590 1.376 . S
C590 H577 0.930 . S
C590 C589 1.376 . S
C590 C591 1.388 . S
C591 H578 0.930 . S
C591 C590 1.388 . S
C591 C592 1.390 . S
C592 C591 1.390 . S
C592 C593 1.394 . S
C592 C598 1.465 . S
C593 C588 1.399 . S
C593 C592 1.394 . S
C593 C594 1.516 . S
C594 C593 1.516 . S
C594 C595 1.502 . S
C594 C596 1.561 . S
C594 C597 1.526 . S
C595 H579 0.959 . S
C595 H580 0.959 . S
C595 H581 0.961 . S
C595 C594 1.502 . S
C596 H582 0.960 . S
C596 H583 0.961 . S
C596 H584 0.959 . S
C596 C594 1.561 . S
C597 C594 1.526 . S
C597 C598 1.396 . S
C597 C602 1.390 . S
C598 C592 1.465 . S
C598 C597 1.396 . S
C598 C599 1.399 . S
C599 H585 0.929 . S
C599 C598 1.399 . S
C599 C600 1.385 . S
C600 H586 0.931 . S
C600 C599 1.385 . S
C600 C601 1.389 . S
C601 C600 1.389 . S
C601 C602 1.387 . S
C602 H587 0.930 . S
C602 C597 1.390 . S
C602 C601 1.387 . S
H603 C615 0.930 . S
H604 C617 0.930 . S
H605 C618 0.930 . S
H606 C622 0.959 . S
H607 C622 0.959 . S
H608 C622 0.961 . S
H609 C623 0.960 . S
H610 C623 0.961 . S
H611 C623 0.959 . S
H612 C626 0.929 . S
H613 C627 0.931 . S
H614 C629 0.930 . S
C615 H603 0.930 . S
C615 C616 1.399 . S
C615 C620 1.399 . S
C616 C615 1.399 . S
C616 C617 1.376 . S
C617 H604 0.930 . S
C617 C616 1.376 . S
C617 C618 1.388 . S
C618 H605 0.930 . S
C618 C617 1.388 . S
C618 C619 1.390 . S
C619 C618 1.390 . S
C619 C620 1.394 . S
C619 C625 1.465 . S
C620 C615 1.399 . S
C620 C619 1.394 . S
C620 C621 1.516 . S
C621 C620 1.516 . S
C621 C622 1.502 . S
C621 C623 1.561 . S
C621 C624 1.526 . S
C622 H606 0.959 . S
C622 H607 0.959 . S
C622 H608 0.961 . S
C622 C621 1.502 . S
C623 H609 0.960 . S
C623 H610 0.961 . S
C623 H611 0.959 . S
C623 C621 1.561 . S
C624 C621 1.526 . S
C624 C625 1.396 . S
C624 C629 1.390 . S
C625 C619 1.465 . S
C625 C624 1.396 . S
C625 C626 1.399 . S
C626 H612 0.929 . S
C626 C625 1.399 . S
C626 C627 1.385 . S
C627 H613 0.931 . S
C627 C626 1.385 . S
C627 C628 1.389 . S
C628 C627 1.389 . S
C628 C629 1.387 . S
C629 H614 0.930 . S
C629 C624 1.390 . S
C629 C628 1.387 . S
H630 C642 0.930 . S
H631 C644 0.930 . S
H632 C645 0.930 . S
H633 C649 0.959 . S
H634 C649 0.959 . S
H635 C649 0.961 . S
H636 C650 0.960 . S
H637 C650 0.961 . S
H638 C650 0.959 . S
H639 C653 0.929 . S
H640 C654 0.931 . S
H641 C656 0.930 . S
C642 H630 0.930 . S
C642 C643 1.399 . S
C642 C647 1.399 . S
C643 C642 1.399 . S
C643 C644 1.376 . S
C644 H631 0.930 . S
C644 C643 1.376 . S
C644 C645 1.388 . S
C645 H632 0.930 . S
C645 C644 1.388 . S
C645 C646 1.390 . S
C646 C645 1.390 . S
C646 C647 1.394 . S
C646 C652 1.465 . S
C647 C642 1.399 . S
C647 C646 1.394 . S
C647 C648 1.516 . S
C648 C647 1.516 . S
C648 C649 1.502 . S
C648 C650 1.561 . S
C648 C651 1.526 . S
C649 H633 0.959 . S
C649 H634 0.959 . S
C649 H635 0.961 . S
C649 C648 1.502 . S
C650 H636 0.960 . S
C650 H637 0.961 . S
C650 H638 0.959 . S
C650 C648 1.561 . S
C651 C648 1.526 . S
C651 C652 1.396 . S
C651 C656 1.390 . S
C652 C646 1.465 . S
C652 C651 1.396 . S
C652 C653 1.399 . S
C653 H639 0.929 . S
C653 C652 1.399 . S
C653 C654 1.385 . S
C654 H640 0.931 . S
C654 C653 1.385 . S
C654 C655 1.389 . S
C655 C654 1.389 . S
C655 C656 1.387 . S
C656 H641 0.930 . S
C656 C651 1.390 . S
C656 C655 1.387 . S
H657 C669 0.930 . S
H658 C671 0.930 . S
H659 C672 0.930 . S
H660 C676 0.959 . S
H661 C676 0.959 . S
H662 C676 0.961 . S
H663 C677 0.960 . S
H664 C677 0.961 . S
H665 C677 0.959 . S
H666 C680 0.929 . S
H667 C681 0.931 . S
H668 C683 0.930 . S
C669 H657 0.930 . S
C669 C670 1.399 . S
C669 C674 1.399 . S
C670 C669 1.399 . S
C670 C671 1.376 . S
C671 H658 0.930 . S
C671 C670 1.376 . S
C671 C672 1.388 . S
C672 H659 0.930 . S
C672 C671 1.388 . S
C672 C673 1.390 . S
C673 C672 1.390 . S
C673 C674 1.394 . S
C673 C679 1.465 . S
C674 C669 1.399 . S
C674 C673 1.394 . S
C674 C675 1.516 . S
C675 C674 1.516 . S
C675 C676 1.502 . S
C675 C677 1.561 . S
C675 C678 1.526 . S
C676 H660 0.959 . S
C676 H661 0.959 . S
C676 H662 0.961 . S
C676 C675 1.502 . S
C677 H663 0.960 . S
C677 H664 0.961 . S
C677 H665 0.959 . S
C677 C675 1.561 . S
C678 C675 1.526 . S
C678 C679 1.396 . S
C678 C683 1.390 . S
C679 C673 1.465 . S
C679 C678 1.396 . S
C679 C680 1.399 . S
C680 H666 0.929 . S
C680 C679 1.399 . S
C680 C681 1.385 . S
C681 H667 0.931 . S
C681 C680 1.385 . S
C681 C682 1.389 . S
C682 C681 1.389 . S
C682 C683 1.387 . S
C683 H668 0.930 . S
C683 C678 1.390 . S
C683 C682 1.387 . S
H684 C696 0.930 . S
H685 C698 0.930 . S
H686 C699 0.930 . S
H687 C703 0.959 . S
H688 C703 0.959 . S
H689 C703 0.961 . S
H690 C704 0.960 . S
H691 C704 0.961 . S
H692 C704 0.959 . S
H693 C707 0.929 . S
H694 C708 0.931 . S
H695 C710 0.930 . S
C696 H684 0.930 . S
C696 C697 1.399 . S
C696 C701 1.399 . S
C697 C696 1.399 . S
C697 C698 1.376 . S
C698 H685 0.930 . S
C698 C697 1.376 . S
C698 C699 1.388 . S
C699 H686 0.930 . S
C699 C698 1.388 . S
C699 C700 1.390 . S
C700 C699 1.390 . S
C700 C701 1.394 . S
C700 C706 1.465 . S
C701 C696 1.399 . S
C701 C700 1.394 . S
C701 C702 1.516 . S
C702 C701 1.516 . S
C702 C703 1.502 . S
C702 C704 1.561 . S
C702 C705 1.526 . S
C703 H687 0.959 . S
C703 H688 0.959 . S
C703 H689 0.961 . S
C703 C702 1.502 . S
C704 H690 0.960 . S
C704 H691 0.961 . S
C704 H692 0.959 . S
C704 C702 1.561 . S
C705 C702 1.526 . S
C705 C706 1.396 . S
C705 C710 1.390 . S
C706 C700 1.465 . S
C706 C705 1.396 . S
C706 C707 1.399 . S
C707 H693 0.929 . S
C707 C706 1.399 . S
C707 C708 1.385 . S
C708 H694 0.931 . S
C708 C707 1.385 . S
C708 C709 1.389 . S
C709 C708 1.389 . S
C709 C710 1.387 . S
C710 H695 0.930 . S
C710 C705 1.390 . S
C710 C709 1.387 . S
H711 C723 0.930 . S
H712 C725 0.930 . S
H713 C726 0.930 . S
H714 C730 0.959 . S
H715 C730 0.959 . S
H716 C730 0.961 . S
H717 C731 0.960 . S
H718 C731 0.961 . S
H719 C731 0.959 . S
H720 C734 0.929 . S
H721 C735 0.931 . S
H722 C737 0.930 . S
C723 H711 0.930 . S
C723 C724 1.399 . S
C723 C728 1.399 . S
C724 C723 1.399 . S
C724 C725 1.376 . S
C725 H712 0.930 . S
C725 C724 1.376 . S
C725 C726 1.388 . S
C726 H713 0.930 . S
C726 C725 1.388 . S
C726 C727 1.390 . S
C727 C726 1.390 . S
C727 C728 1.394 . S
C727 C733 1.465 . S
C728 C723 1.399 . S
C728 C727 1.394 . S
C728 C729 1.516 . S
C729 C728 1.516 . S
C729 C730 1.502 . S
C729 C731 1.561 . S
C729 C732 1.526 . S
C730 H714 0.959 . S
C730 H715 0.959 . S
C730 H716 0.961 . S
C730 C729 1.502 . S
C731 H717 0.960 . S
C731 H718 0.961 . S
C731 H719 0.959 . S
C731 C729 1.561 . S
C732 C729 1.526 . S
C732 C733 1.396 . S
C732 C737 1.390 . S
C733 C727 1.465 . S
C733 C732 1.396 . S
C733 C734 1.399 . S
C734 H720 0.929 . S
C734 C733 1.399 . S
C734 C735 1.385 . S
C735 H721 0.931 . S
C735 C734 1.385 . S
C735 C736 1.389 . S
C736 C735 1.389 . S
C736 C737 1.387 . S
C737 H722 0.930 . S
C737 C732 1.390 . S
C737 C736 1.387 . S
H738 C750 0.930 . S
H739 C752 0.930 . S
H740 C753 0.930 . S
H741 C757 0.959 . S
H742 C757 0.959 . S
H743 C757 0.961 . S
H744 C758 0.960 . S
H745 C758 0.961 . S
H746 C758 0.959 . S
H747 C761 0.929 . S
H748 C762 0.931 . S
H749 C764 0.930 . S
C750 H738 0.930 . S
C750 C751 1.399 . S
C750 C755 1.399 . S
C751 C750 1.399 . S
C751 C752 1.376 . S
C752 H739 0.930 . S
C752 C751 1.376 . S
C752 C753 1.388 . S
C753 H740 0.930 . S
C753 C752 1.388 . S
C753 C754 1.390 . S
C754 C753 1.390 . S
C754 C755 1.394 . S
C754 C760 1.465 . S
C755 C750 1.399 . S
C755 C754 1.394 . S
C755 C756 1.516 . S
C756 C755 1.516 . S
C756 C757 1.502 . S
C756 C758 1.561 . S
C756 C759 1.526 . S
C757 H741 0.959 . S
C757 H742 0.959 . S
C757 H743 0.961 . S
C757 C756 1.502 . S
C758 H744 0.960 . S
C758 H745 0.961 . S
C758 H746 0.959 . S
C758 C756 1.561 . S
C759 C756 1.526 . S
C759 C760 1.396 . S
C759 C764 1.390 . S
C760 C754 1.465 . S
C760 C759 1.396 . S
C760 C761 1.399 . S
C761 H747 0.929 . S
C761 C760 1.399 . S
C761 C762 1.385 . S
C762 H748 0.931 . S
C762 C761 1.385 . S
C762 C763 1.389 . S
C763 C762 1.389 . S
C763 C764 1.387 . S
C764 H749 0.930 . S
C764 C759 1.390 . S
C764 C763 1.387 . S
H765 C777 0.926 1_556 S
H766 C779 0.930 . S
H767 C780 0.930 . S
H768 C784 0.959 . S
H769 C784 0.956 1_556 S
H770 C784 0.961 1_556 S
H771 C785 0.960 . S
H772 C785 0.961 . S
H773 C785 0.959 . S
H774 C788 0.929 . S
H775 C789 0.931 . S
H776 C791 0.930 . S
C777 H765 0.926 1_554 S
C777 C778 1.399 . S
C777 C782 1.399 . S
C778 C777 1.399 . S
C778 C779 1.376 . S
C779 H766 0.930 . S
C779 C778 1.376 . S
C779 C780 1.388 . S
C780 H767 0.930 . S
C780 C779 1.388 . S
C780 C781 1.390 . S
C781 C780 1.390 . S
C781 C782 1.394 . S
C781 C787 1.465 . S
C782 C777 1.399 . S
C782 C781 1.394 . S
C782 C783 1.516 . S
C783 C782 1.516 . S
C783 C784 1.502 . S
C783 C785 1.561 1_554 S
C783 C786 1.526 . S
C784 H768 0.959 . S
C784 H769 0.956 1_554 S
C784 H770 0.961 1_554 S
C784 C783 1.502 . S
C785 H771 0.960 . S
C785 H772 0.961 . S
C785 H773 0.959 . S
C785 C783 1.561 1_556 S
C786 C783 1.526 . S
C786 C787 1.396 . S
C786 C791 1.390 . S
C787 C781 1.465 . S
C787 C786 1.396 . S
C787 C788 1.399 . S
C788 H774 0.929 . S
C788 C787 1.399 . S
C788 C789 1.385 . S
C789 H775 0.931 . S
C789 C788 1.385 . S
C789 C790 1.389 . S
C790 C789 1.389 . S
C790 C791 1.387 . S
C791 H776 0.930 . S
C791 C786 1.390 . S
C791 C790 1.387 . S
H792 C804 0.930 . S
H793 C806 0.930 . S
H794 C807 0.930 . S
H795 C811 0.959 . S
H796 C811 0.959 . S
H797 C811 0.961 . S
H798 C812 0.960 . S
H799 C812 0.961 . S
H800 C812 0.959 . S
H801 C815 0.929 . S
H802 C816 0.931 . S
H803 C818 0.930 . S
C804 H792 0.930 . S
C804 C805 1.399 . S
C804 C809 1.399 . S
C805 C804 1.399 . S
C805 C806 1.376 . S
C806 H793 0.930 . S
C806 C805 1.376 . S
C806 C807 1.388 . S
C807 H794 0.930 . S
C807 C806 1.388 . S
C807 C808 1.390 . S
C808 C807 1.390 . S
C808 C809 1.394 . S
C808 C814 1.465 . S
C809 C804 1.399 . S
C809 C808 1.394 . S
C809 C810 1.516 . S
C810 C809 1.516 . S
C810 C811 1.502 . S
C810 C812 1.561 . S
C810 C813 1.526 . S
C811 H795 0.959 . S
C811 H796 0.959 . S
C811 H797 0.961 . S
C811 C810 1.502 . S
C812 H798 0.960 . S
C812 H799 0.961 . S
C812 H800 0.959 . S
C812 C810 1.561 . S
C813 C810 1.526 . S
C813 C814 1.396 . S
C813 C818 1.390 . S
C814 C808 1.465 . S
C814 C813 1.396 . S
C814 C815 1.399 . S
C815 H801 0.929 . S
C815 C814 1.399 . S
C815 C816 1.385 . S
C816 H802 0.931 . S
C816 C815 1.385 . S
C816 C817 1.389 . S
C817 C816 1.389 . S
C817 C818 1.387 . S
C818 H803 0.930 . S
C818 C813 1.390 . S
C818 C817 1.387 . S
H819 C831 0.930 . S
H820 C833 0.930 . S
H821 C834 0.930 . S
H822 C838 0.959 . S
H823 C838 0.959 . S
H824 C838 0.961 . S
H825 C839 0.960 . S
H826 C839 0.961 . S
H827 C839 0.959 . S
H828 C842 0.929 . S
H829 C843 0.931 . S
H830 C845 0.930 . S
C831 H819 0.930 . S
C831 C832 1.399 . S
C831 C836 1.399 . S
C832 C831 1.399 . S
C832 C833 1.376 . S
C833 H820 0.930 . S
C833 C832 1.376 . S
C833 C834 1.388 . S
C834 H821 0.930 . S
C834 C833 1.388 . S
C834 C835 1.390 . S
C835 C834 1.390 . S
C835 C836 1.394 . S
C835 C841 1.465 . S
C836 C831 1.399 . S
C836 C835 1.394 . S
C836 C837 1.516 . S
C837 C836 1.516 . S
C837 C838 1.502 . S
C837 C839 1.561 . S
C837 C840 1.526 . S
C838 H822 0.959 . S
C838 H823 0.959 . S
C838 H824 0.961 . S
C838 C837 1.502 . S
C839 H825 0.960 . S
C839 H826 0.961 . S
C839 H827 0.959 . S
C839 C837 1.561 . S
C840 C837 1.526 . S
C840 C841 1.396 . S
C840 C845 1.390 . S
C841 C835 1.465 . S
C841 C840 1.396 . S
C841 C842 1.399 . S
C842 H828 0.929 . S
C842 C841 1.399 . S
C842 C843 1.385 . S
C843 H829 0.931 . S
C843 C842 1.385 . S
C843 C844 1.389 . S
C844 C843 1.389 . S
C844 C845 1.387 . S
C845 H830 0.930 . S
C845 C840 1.390 . S
C845 C844 1.387 . S
H846 C858 0.930 . S
H847 C860 0.930 . S
H848 C861 0.930 . S
H849 C865 0.959 . S
H850 C865 0.959 . S
H851 C865 0.961 . S
H852 C866 0.960 . S
H853 C866 0.961 . S
H854 C866 0.959 . S
H855 C869 0.929 . S
H856 C870 0.931 . S
H857 C872 0.930 . S
C858 H846 0.930 . S
C858 C859 1.399 . S
C858 C863 1.399 . S
C859 C858 1.399 . S
C859 C860 1.376 . S
C860 H847 0.930 . S
C860 C859 1.376 . S
C860 C861 1.388 . S
C861 H848 0.930 . S
C861 C860 1.388 . S
C861 C862 1.390 . S
C862 C861 1.390 . S
C862 C863 1.394 . S
C862 C868 1.465 . S
C863 C858 1.399 . S
C863 C862 1.394 . S
C863 C864 1.516 . S
C864 C863 1.516 . S
C864 C865 1.502 . S
C864 C866 1.561 . S
C864 C867 1.526 . S
C865 H849 0.959 . S
C865 H850 0.959 . S
C865 H851 0.961 . S
C865 C864 1.502 . S
C866 H852 0.960 . S
C866 H853 0.961 . S
C866 H854 0.959 . S
C866 C864 1.561 . S
C867 C864 1.526 . S
C867 C868 1.396 . S
C867 C872 1.390 . S
C868 C862 1.465 . S
C868 C867 1.396 . S
C868 C869 1.399 . S
C869 H855 0.929 . S
C869 C868 1.399 . S
C869 C870 1.385 . S
C870 H856 0.931 . S
C870 C869 1.385 . S
C870 C871 1.389 . S
C871 C870 1.389 . S
C871 C872 1.387 . S
C872 H857 0.930 . S
C872 C867 1.390 . S
C872 C871 1.387 . S
H873 C885 0.930 . S
H874 C887 0.930 . S
H875 C888 0.930 . S
H876 C892 0.959 . S
H877 C892 0.959 . S
H878 C892 0.961 . S
H879 C893 0.960 . S
H880 C893 0.961 . S
H881 C893 0.959 . S
H882 C896 0.929 . S
H883 C897 0.931 . S
H884 C899 0.930 . S
C885 H873 0.930 . S
C885 C886 1.399 . S
C885 C890 1.399 . S
C886 C885 1.399 . S
C886 C887 1.376 . S
C887 H874 0.930 . S
C887 C886 1.376 . S
C887 C888 1.388 . S
C888 H875 0.930 . S
C888 C887 1.388 . S
C888 C889 1.390 . S
C889 C888 1.390 . S
C889 C890 1.394 . S
C889 C895 1.465 . S
C890 C885 1.399 . S
C890 C889 1.394 . S
C890 C891 1.516 . S
C891 C890 1.516 . S
C891 C892 1.502 . S
C891 C893 1.561 . S
C891 C894 1.526 . S
C892 H876 0.959 . S
C892 H877 0.959 . S
C892 H878 0.961 . S
C892 C891 1.502 . S
C893 H879 0.960 . S
C893 H880 0.961 . S
C893 H881 0.959 . S
C893 C891 1.561 . S
C894 C891 1.526 . S
C894 C895 1.396 . S
C894 C899 1.390 . S
C895 C889 1.465 . S
C895 C894 1.396 . S
C895 C896 1.399 . S
C896 H882 0.929 . S
C896 C895 1.399 . S
C896 C897 1.385 . S
C897 H883 0.931 . S
C897 C896 1.385 . S
C897 C898 1.389 . S
C898 C897 1.389 . S
C898 C899 1.387 . S
C899 H884 0.930 . S
C899 C894 1.390 . S
C899 C898 1.387 . S
H900 C912 0.930 . S
H901 C914 0.930 . S
H902 C915 0.930 . S
H903 C919 0.959 . S
H904 C919 0.959 . S
H905 C919 0.961 . S
H906 C920 0.960 . S
H907 C920 0.961 . S
H908 C920 0.959 . S
H909 C923 0.929 . S
H910 C924 0.931 . S
H911 C926 0.930 . S
C912 H900 0.930 . S
C912 C913 1.399 . S
C912 C917 1.399 . S
C913 C912 1.399 . S
C913 C914 1.376 . S
C914 H901 0.930 . S
C914 C913 1.376 . S
C914 C915 1.388 . S
C915 H902 0.930 . S
C915 C914 1.388 . S
C915 C916 1.390 . S
C916 C915 1.390 . S
C916 C917 1.394 . S
C916 C922 1.465 . S
C917 C912 1.399 . S
C917 C916 1.394 . S
C917 C918 1.516 . S
C918 C917 1.516 . S
C918 C919 1.502 . S
C918 C920 1.561 . S
C918 C921 1.526 . S
C919 H903 0.959 . S
C919 H904 0.959 . S
C919 H905 0.961 . S
C919 C918 1.502 . S
C920 H906 0.960 . S
C920 H907 0.961 . S
C920 H908 0.959 . S
C920 C918 1.561 . S
C921 C918 1.526 . S
C921 C922 1.396 . S
C921 C926 1.390 . S
C922 C916 1.465 . S
C922 C921 1.396 . S
C922 C923 1.399 . S
C923 H909 0.929 . S
C923 C922 1.399 . S
C923 C924 1.385 . S
C924 H910 0.931 . S
C924 C923 1.385 . S
C924 C925 1.389 . S
C925 C924 1.389 . S
C925 C926 1.387 . S
C926 H911 0.930 . S
C926 C921 1.390 . S
C926 C925 1.387 . S
H927 C939 0.930 . S
H928 C941 0.930 . S
H929 C942 0.930 . S
H930 C946 0.959 . S
H931 C946 0.959 . S
H932 C946 0.961 . S
H933 C947 0.960 . S
H934 C947 0.961 . S
H935 C947 0.959 . S
H936 C950 0.929 . S
H937 C951 0.931 . S
H938 C953 0.930 1_554 S
C939 H927 0.930 . S
C939 C940 1.399 . S
C939 C944 1.399 . S
C940 C939 1.399 . S
C940 C941 1.376 . S
C941 H928 0.930 . S
C941 C940 1.376 . S
C941 C942 1.388 . S
C942 H929 0.930 . S
C942 C941 1.388 . S
C942 C943 1.390 . S
C943 C942 1.390 . S
C943 C944 1.394 . S
C943 C949 1.465 . S
C944 C939 1.399 . S
C944 C943 1.394 . S
C944 C945 1.516 . S
C945 C944 1.516 . S
C945 C946 1.502 . S
C945 C947 1.561 . S
C945 C948 1.526 . S
C946 H930 0.959 . S
C946 H931 0.959 . S
C946 H932 0.961 . S
C946 C945 1.502 . S
C947 H933 0.960 . S
C947 H934 0.961 . S
C947 H935 0.959 . S
C947 C945 1.561 . S
C948 C945 1.526 . S
C948 C949 1.396 . S
C948 C953 1.390 . S
C949 C943 1.465 . S
C949 C948 1.396 . S
C949 C950 1.399 . S
C950 H936 0.929 . S
C950 C949 1.399 . S
C950 C951 1.385 1_556 S
C951 H937 0.931 . S
C951 C950 1.385 1_554 S
C951 C952 1.389 . S
C952 C951 1.389 . S
C952 C953 1.387 1_554 S
C953 H938 0.930 1_556 S
C953 C948 1.390 . S
C953 C952 1.387 1_556 S
H954 C966 0.930 . S
H955 C968 0.930 . S
H956 C969 0.930 . S
H957 C973 0.959 . S
H958 C973 0.959 . S
H959 C973 0.961 . S
H960 C974 0.960 . S
H961 C974 0.961 . S
H962 C974 0.959 . S
H963 C977 0.929 1_545 S
H964 C978 0.931 . S
H965 C980 0.930 . S
C966 H954 0.930 . S
C966 C967 1.399 1_565 S
C966 C971 1.399 . S
C967 C966 1.399 1_545 S
C967 C968 1.376 . S
C968 H955 0.930 . S
C968 C967 1.376 . S
C968 C969 1.388 . S
C969 H956 0.930 . S
C969 C968 1.388 . S
C969 C970 1.413 . S
C970 C969 1.413 . S
C970 C971 1.387 1_545 S
C970 C976 1.447 1_545 S
C971 C966 1.399 . S
C971 C970 1.387 1_565 S
C971 C972 1.516 . S
C972 C971 1.516 . S
C972 C973 1.502 . S
C972 C974 1.561 . S
C972 C975 1.526 . S
C973 H957 0.959 . S
C973 H958 0.959 . S
C973 H959 0.961 . S
C973 C972 1.502 . S
C974 H960 0.960 . S
C974 H961 0.961 . S
C974 H962 0.959 . S
C974 C972 1.561 . S
C975 C972 1.526 . S
C975 C976 1.396 . S
C975 C980 1.390 . S
C976 C970 1.447 1_565 S
C976 C975 1.396 . S
C976 C977 1.399 . S
C977 H963 0.929 1_565 S
C977 C976 1.399 . S
C977 C978 1.385 . S
C978 H964 0.931 . S
C978 C977 1.385 . S
C978 C979 1.389 . S
C979 C978 1.389 . S
C979 C980 1.387 . S
C980 H965 0.930 . S
C980 C975 1.390 . S
C980 C979 1.387 . S
H981 C993 0.930 . S
H982 C995 0.930 . S
H983 C996 0.930 . S
H984 C1000 0.959 . S
H985 C1000 0.959 . S
H986 C1000 0.961 . S
H987 C1001 0.960 . S
H988 C1001 0.961 . S
H989 C1001 0.959 . S
H990 C1004 0.929 . S
H991 C1005 0.931 . S
H992 C1007 0.930 . S
C993 H981 0.930 . S
C993 C994 1.399 . S
C993 C998 1.399 . S
C994 C993 1.399 . S
C994 C995 1.376 . S
C995 H982 0.930 . S
C995 C994 1.376 . S
C995 C996 1.388 . S
C996 H983 0.930 . S
C996 C995 1.388 . S
C996 C997 1.390 . S
C997 C996 1.390 . S
C997 C998 1.394 . S
C997 C1003 1.465 . S
C998 C993 1.399 . S
C998 C997 1.394 . S
C998 C999 1.516 . S
C999 C998 1.516 . S
C999 C1000 1.502 . S
C999 C1001 1.561 . S
C999 C1002 1.526 . S
C1000 H984 0.959 . S
C1000 H985 0.959 . S
C1000 H986 0.961 . S
C1000 C999 1.502 . S
C1001 H987 0.960 . S
C1001 H988 0.961 . S
C1001 H989 0.959 . S
C1001 C999 1.561 . S
C1002 C999 1.526 . S
C1002 C1003 1.396 . S
C1002 C1007 1.390 . S
C1003 C997 1.465 . S
C1003 C1002 1.396 . S
C1003 C1004 1.399 . S
C1004 H990 0.929 . S
C1004 C1003 1.399 . S
C1004 C1005 1.385 . S
C1005 H991 0.931 . S
C1005 C1004 1.385 . S
C1005 C1006 1.389 . S
C1006 C1005 1.389 . S
C1006 C1007 1.387 . S
C1007 H992 0.930 . S
C1007 C1002 1.390 . S
C1007 C1006 1.387 . S
H1008 C1020 0.930 1_545 S
H1009 C1022 0.930 . S
H1010 C1023 0.930 . S
H1011 C1027 0.959 . S
H1012 C1027 0.959 . S
H1013 C1027 0.961 . S
H1014 C1028 0.960 . S
H1015 C1028 0.961 . S
H1016 C1028 0.959 1_565 S
H1017 C1031 0.929 . S
H1018 C1032 0.931 . S
H1019 C1034 0.930 . S
C1020 H1008 0.930 1_565 S
C1020 C1021 1.399 . S
C1020 C1025 1.399 . S
C1021 C1020 1.399 . S
C1021 C1022 1.376 . S
C1022 H1009 0.930 . S
C1022 C1021 1.376 . S
C1022 C1023 1.388 . S
C1023 H1010 0.930 . S
C1023 C1022 1.388 . S
C1023 C1024 1.390 . S
C1024 C1023 1.390 . S
C1024 C1025 1.394 . S
C1024 C1030 1.465 . S
C1025 C1020 1.399 . S
C1025 C1024 1.394 . S
C1025 C1026 1.516 . S
C1026 C1025 1.516 . S
C1026 C1027 1.502 1_565 S
C1026 C1028 1.561 1_565 S
C1026 C1029 1.526 . S
C1027 H1011 0.959 . S
C1027 H1012 0.959 . S
C1027 H1013 0.961 . S
C1027 C1026 1.502 1_545 S
C1028 H1014 0.960 . S
C1028 H1015 0.961 . S
C1028 H1016 0.959 1_545 S
C1028 C1026 1.561 1_545 S
C1029 C1026 1.526 . S
C1029 C1030 1.396 . S
C1029 C1034 1.390 . S
C1030 C1024 1.465 . S
C1030 C1029 1.396 . S
C1030 C1031 1.399 . S
C1031 H1017 0.929 . S
C1031 C1030 1.399 . S
C1031 C1032 1.385 . S
C1032 H1018 0.931 . S
C1032 C1031 1.385 . S
C1032 C1033 1.389 . S
C1033 C1032 1.389 . S
C1033 C1034 1.387 . S
C1034 H1019 0.930 . S
C1034 C1029 1.390 . S
C1034 C1033 1.387 . S
H1035 C1047 0.930 . S
H1036 C1049 0.930 . S
H1037 C1050 0.930 . S
H1038 C1054 0.959 . S
H1039 C1054 0.959 . S
H1040 C1054 0.961 . S
H1041 C1055 0.960 . S
H1042 C1055 0.961 . S
H1043 C1055 0.959 . S
H1044 C1058 0.929 . S
H1045 C1059 0.931 . S
H1046 C1061 0.930 . S
C1047 H1035 0.930 . S
C1047 C1048 1.399 . S
C1047 C1052 1.399 . S
C1048 C1047 1.399 . S
C1048 C1049 1.376 . S
C1049 H1036 0.930 . S
C1049 C1048 1.376 . S
C1049 C1050 1.388 . S
C1050 H1037 0.930 . S
C1050 C1049 1.388 . S
C1050 C1051 1.390 . S
C1051 C1050 1.390 . S
C1051 C1052 1.394 . S
C1051 C1057 1.465 . S
C1052 C1047 1.399 . S
C1052 C1051 1.394 . S
C1052 C1053 1.516 . S
C1053 C1052 1.516 . S
C1053 C1054 1.502 . S
C1053 C1055 1.561 . S
C1053 C1056 1.526 . S
C1054 H1038 0.959 . S
C1054 H1039 0.959 . S
C1054 H1040 0.961 . S
C1054 C1053 1.502 . S
C1055 H1041 0.960 . S
C1055 H1042 0.961 . S
C1055 H1043 0.959 . S
C1055 C1053 1.561 . S
C1056 C1053 1.526 . S
C1056 C1057 1.396 . S
C1056 C1061 1.390 . S
C1057 C1051 1.465 . S
C1057 C1056 1.396 . S
C1057 C1058 1.399 . S
C1058 H1044 0.929 . S
C1058 C1057 1.399 . S
C1058 C1059 1.385 . S
C1059 H1045 0.931 . S
C1059 C1058 1.385 . S
C1059 C1060 1.389 . S
C1060 C1059 1.389 . S
C1060 C1061 1.387 . S
C1061 H1046 0.930 . S
C1061 C1056 1.390 . S
C1061 C1060 1.387 . S
H1062 C1074 0.930 . S
H1063 C1076 0.930 . S
H1064 C1077 0.930 . S
H1065 C1081 0.959 . S
H1066 C1081 0.959 . S
H1067 C1081 0.961 . S
H1068 C1082 0.960 . S
H1069 C1082 0.961 . S
H1070 C1082 0.959 . S
H1071 C1085 0.929 . S
H1072 C1086 0.931 . S
H1073 C1088 0.930 . S
C1074 H1062 0.930 . S
C1074 C1075 1.399 . S
C1074 C1079 1.399 . S
C1075 C1074 1.399 . S
C1075 C1076 1.376 . S
C1076 H1063 0.930 . S
C1076 C1075 1.376 . S
C1076 C1077 1.388 . S
C1077 H1064 0.930 . S
C1077 C1076 1.388 . S
C1077 C1078 1.390 . S
C1078 C1077 1.390 . S
C1078 C1079 1.394 . S
C1078 C1084 1.465 . S
C1079 C1074 1.399 . S
C1079 C1078 1.394 . S
C1079 C1080 1.516 . S
C1080 C1079 1.516 . S
C1080 C1081 1.502 . S
C1080 C1082 1.561 . S
C1080 C1083 1.526 . S
C1081 H1065 0.959 . S
C1081 H1066 0.959 . S
C1081 H1067 0.961 . S
C1081 C1080 1.502 . S
C1082 H1068 0.960 . S
C1082 H1069 0.961 . S
C1082 H1070 0.959 . S
C1082 C1080 1.561 . S
C1083 C1080 1.526 . S
C1083 C1084 1.396 . S
C1083 C1088 1.390 . S
C1084 C1078 1.465 . S
C1084 C1083 1.396 . S
C1084 C1085 1.399 . S
C1085 H1071 0.929 . S
C1085 C1084 1.399 . S
C1085 C1086 1.385 . S
C1086 H1072 0.931 . S
C1086 C1085 1.385 . S
C1086 C1087 1.389 . S
C1087 C1086 1.389 . S
C1087 C1088 1.387 . S
C1088 H1073 0.930 . S
C1088 C1083 1.390 . S
C1088 C1087 1.387 . S
H1089 C1101 0.930 . S
H1090 C1103 0.930 . S
H1091 C1104 0.930 . S
H1092 C1108 0.959 . S
H1093 C1108 0.959 . S
H1094 C1108 0.961 . S
H1095 C1109 0.960 . S
H1096 C1109 0.961 . S
H1097 C1109 0.959 . S
H1098 C1112 0.929 . S
H1099 C1113 0.931 . S
H1100 C1115 0.930 . S
C1101 H1089 0.930 . S
C1101 C1102 1.399 . S
C1101 C1106 1.399 . S
C1102 C1101 1.399 . S
C1102 C1103 1.376 . S
C1103 H1090 0.930 . S
C1103 C1102 1.376 . S
C1103 C1104 1.388 . S
C1104 H1091 0.930 . S
C1104 C1103 1.388 . S
C1104 C1105 1.390 . S
C1105 C1104 1.390 . S
C1105 C1106 1.394 . S
C1105 C1111 1.465 . S
C1106 C1101 1.399 . S
C1106 C1105 1.394 . S
C1106 C1107 1.516 . S
C1107 C1106 1.516 . S
C1107 C1108 1.502 . S
C1107 C1109 1.561 . S
C1107 C1110 1.526 . S
C1108 H1092 0.959 . S
C1108 H1093 0.959 . S
C1108 H1094 0.961 . S
C1108 C1107 1.502 . S
C1109 H1095 0.960 . S
C1109 H1096 0.961 . S
C1109 H1097 0.959 . S
C1109 C1107 1.561 . S
C1110 C1107 1.526 . S
C1110 C1111 1.396 . S
C1110 C1115 1.390 . S
C1111 C1105 1.465 . S
C1111 C1110 1.396 . S
C1111 C1112 1.399 . S
C1112 H1098 0.929 . S
C1112 C1111 1.399 . S
C1112 C1113 1.385 . S
C1113 H1099 0.931 . S
C1113 C1112 1.385 . S
C1113 C1114 1.389 . S
C1114 C1113 1.389 . S
C1114 C1115 1.387 . S
C1115 H1100 0.930 . S
C1115 C1110 1.390 . S
C1115 C1114 1.387 . S
H1116 C1128 0.930 . S
H1117 C1130 0.930 . S
H1118 C1131 0.930 . S
H1119 C1135 0.959 . S
H1120 C1135 0.959 . S
H1121 C1135 0.961 . S
H1122 C1136 0.960 . S
H1123 C1136 0.961 1_556 S
H1124 C1136 0.959 1_556 S
H1125 C1139 0.929 . S
H1126 C1140 0.931 . S
H1127 C1142 0.930 . S
C1128 H1116 0.930 . S
C1128 C1129 1.399 . S
C1128 C1133 1.399 . S
C1129 C1128 1.399 . S
C1129 C1130 1.376 . S
C1130 H1117 0.930 . S
C1130 C1129 1.376 . S
C1130 C1131 1.388 . S
C1131 H1118 0.930 . S
C1131 C1130 1.388 . S
C1131 C1132 1.390 . S
C1132 C1131 1.390 . S
C1132 C1133 1.394 . S
C1132 C1138 1.487 . S
C1133 C1128 1.399 . S
C1133 C1132 1.394 . S
C1133 C1134 1.516 . S
C1134 C1133 1.516 . S
C1134 C1135 1.502 . S
C1134 C1136 1.561 . S
C1134 C1137 1.526 1_554 S
C1135 H1119 0.959 . S
C1135 H1120 0.959 . S
C1135 H1121 0.961 . S
C1135 C1134 1.502 . S
C1136 H1122 0.960 . S
C1136 H1123 0.961 1_554 S
C1136 H1124 0.959 1_554 S
C1136 C1134 1.561 . S
C1137 C1134 1.526 1_556 S
C1137 C1138 1.389 1_556 S
C1137 C1142 1.390 . S
C1138 C1132 1.487 . S
C1138 C1137 1.389 1_554 S
C1138 C1139 1.385 1_554 S
C1139 H1125 0.929 . S
C1139 C1138 1.385 1_556 S
C1139 C1140 1.385 . S
C1140 H1126 0.931 . S
C1140 C1139 1.385 . S
C1140 C1141 1.389 . S
C1141 C1140 1.389 . S
C1141 C1142 1.387 . S
C1142 H1127 0.930 . S
C1142 C1137 1.390 . S
C1142 C1141 1.387 . S
H1143 C1155 0.930 . S
H1144 C1157 0.930 . S
H1145 C1158 0.930 . S
H1146 C1162 0.959 . S
H1147 C1162 0.959 . S
H1148 C1162 0.961 . S
H1149 C1163 0.960 . S
H1150 C1163 0.961 . S
H1151 C1163 0.959 . S
H1152 C1166 0.929 . S
H1153 C1167 0.931 . S
H1154 C1169 0.930 . S
C1155 H1143 0.930 . S
C1155 C1156 1.399 . S
C1155 C1160 1.399 . S
C1156 C1155 1.399 . S
C1156 C1157 1.376 . S
C1157 H1144 0.930 . S
C1157 C1156 1.376 . S
C1157 C1158 1.388 . S
C1158 H1145 0.930 . S
C1158 C1157 1.388 . S
C1158 C1159 1.390 . S
C1159 C1158 1.390 . S
C1159 C1160 1.394 . S
C1159 C1165 1.465 . S
C1160 C1155 1.399 . S
C1160 C1159 1.394 . S
C1160 C1161 1.516 . S
C1161 C1160 1.516 . S
C1161 C1162 1.502 . S
C1161 C1163 1.561 . S
C1161 C1164 1.526 . S
C1162 H1146 0.959 . S
C1162 H1147 0.959 . S
C1162 H1148 0.961 . S
C1162 C1161 1.502 . S
C1163 H1149 0.960 . S
C1163 H1150 0.961 . S
C1163 H1151 0.959 . S
C1163 C1161 1.561 . S
C1164 C1161 1.526 . S
C1164 C1165 1.396 . S
C1164 C1169 1.390 . S
C1165 C1159 1.465 . S
C1165 C1164 1.396 . S
C1165 C1166 1.399 . S
C1166 H1152 0.929 . S
C1166 C1165 1.399 . S
C1166 C1167 1.385 . S
C1167 H1153 0.931 . S
C1167 C1166 1.385 . S
C1167 C1168 1.389 . S
C1168 C1167 1.389 . S
C1168 C1169 1.387 . S
C1169 H1154 0.930 . S
C1169 C1164 1.390 . S
C1169 C1168 1.387 . S
C547 C514 1.244 . S
C535 C51 1.247 . S
C562 C125 1.510 . S
C574 C449 1.532 . S
C589 C217 2.475 . S
C601 C467 2.503 . S
C616 C291 1.650 . S
C628 C480 1.640 . S
C655 C488 0.690 . S
C643 C347 0.753 . S
C670 C421 0.968 . S
C682 C500 0.986 . S
C697 C143 2.375 . S
C709 C462 2.369 . S
C724 C199 1.355 . S
C736 C475 1.380 . S
C751 C273 0.665 . S
C763 C493 0.639 . S
C790 C499 1.486 . S
C778 C365 1.497 . S
C817 C519 1.871 . S
C805 C439 1.871 . S
C844 C454 2.328 . S
C832 C69 2.338 . S
C859 C63 1.484 . S
C871 C460 1.527 . S
C886 C137 1.576 . S
C898 C473 1.692 . S
C925 C487 1.423 . S
C913 C187 1.388 . S
C940 C261 1.561 . S
C952 C501 1.656 . S
C979 C513 1.371 . S
C967 C359 1.294 . S
C1006 C448 1.263 . S
C994 C433 1.184 . S
C1033 C512 1.758 . S
C1021 C113 1.775 . S
C1048 C211 1.279 . S
C1060 C447 1.371 . S
C1087 C461 1.641 . S
C1075 C285 1.573 . S
C1102 C335 1.250 . S
C1114 C474 1.350 . S
C1129 C409 1.434 . S
C1141 C486 1.552 . S
C1156 C39 1.655 . S
C1168 C506 1.717 . S
