# Generated by pormake.
# Topology dag, (6,3)-cn, num edge types: 1
# Building blocks:
#     Node 0, Type 0, BuildingBlock: MIDCAF_clean_sbu_0, # of connection points: 6
#     Node 1, Type 0, BuildingBlock: MIDCAF_clean_sbu_0, # of connection points: 6
#     Node 2, Type 0, BuildingBlock: MIDCAF_clean_sbu_0, # of connection points: 6
#     Node 3, Type 0, BuildingBlock: MIDCAF_clean_sbu_0, # of connection points: 6
#     Node 4, Type 1, BuildingBlock: BELTOD_clean_linker_0, # of connection points: 3
#     Node 5, Type 1, BuildingBlock: BELTOD_clean_linker_0, # of connection points: 3
#     Node 6, Type 1, BuildingBlock: BELTOD_clean_linker_0, # of connection points: 3
#     Node 7, Type 1, BuildingBlock: BELTOD_clean_linker_0, # of connection points: 3
#     Node 8, Type 1, BuildingBlock: BELTOD_clean_linker_0, # of connection points: 3
#     Node 9, Type 1, BuildingBlock: BELTOD_clean_linker_0, # of connection points: 3
#     Node 10, Type 1, BuildingBlock: BELTOD_clean_linker_0, # of connection points: 3
#     Node 11, Type 1, BuildingBlock: BELTOD_clean_linker_0, # of connection points: 3
#     Edge 12, Type (0, 1), BuildingBlock: XUDNAN_clean_linker_2, # of connection points: 2
#     Edge 13, Type (0, 1), BuildingBlock: XUDNAN_clean_linker_2, # of connection points: 2
#     Edge 14, Type (0, 1), BuildingBlock: XUDNAN_clean_linker_2, # of connection points: 2
#     Edge 15, Type (0, 1), BuildingBlock: XUDNAN_clean_linker_2, # of connection points: 2
#     Edge 16, Type (0, 1), BuildingBlock: XUDNAN_clean_linker_2, # of connection points: 2
#     Edge 17, Type (0, 1), BuildingBlock: XUDNAN_clean_linker_2, # of connection points: 2
#     Edge 18, Type (0, 1), BuildingBlock: XUDNAN_clean_linker_2, # of connection points: 2
#     Edge 19, Type (0, 1), BuildingBlock: XUDNAN_clean_linker_2, # of connection points: 2
#     Edge 20, Type (0, 1), BuildingBlock: XUDNAN_clean_linker_2, # of connection points: 2
#     Edge 21, Type (0, 1), BuildingBlock: XUDNAN_clean_linker_2, # of connection points: 2
#     Edge 22, Type (0, 1), BuildingBlock: XUDNAN_clean_linker_2, # of connection points: 2
#     Edge 23, Type (0, 1), BuildingBlock: XUDNAN_clean_linker_2, # of connection points: 2
#     Edge 24, Type (0, 1), BuildingBlock: XUDNAN_clean_linker_2, # of connection points: 2
#     Edge 25, Type (0, 1), BuildingBlock: XUDNAN_clean_linker_2, # of connection points: 2
#     Edge 26, Type (0, 1), BuildingBlock: XUDNAN_clean_linker_2, # of connection points: 2
#     Edge 27, Type (0, 1), BuildingBlock: XUDNAN_clean_linker_2, # of connection points: 2
#     Edge 28, Type (0, 1), BuildingBlock: XUDNAN_clean_linker_2, # of connection points: 2
#     Edge 29, Type (0, 1), BuildingBlock: XUDNAN_clean_linker_2, # of connection points: 2
#     Edge 30, Type (0, 1), BuildingBlock: XUDNAN_clean_linker_2, # of connection points: 2
#     Edge 31, Type (0, 1), BuildingBlock: XUDNAN_clean_linker_2, # of connection points: 2
#     Edge 32, Type (0, 1), BuildingBlock: XUDNAN_clean_linker_2, # of connection points: 2
#     Edge 33, Type (0, 1), BuildingBlock: XUDNAN_clean_linker_2, # of connection points: 2
#     Edge 34, Type (0, 1), BuildingBlock: XUDNAN_clean_linker_2, # of connection points: 2
#     Edge 35, Type (0, 1), BuildingBlock: XUDNAN_clean_linker_2, # of connection points: 2
# Relax obj value: 0.289
# Max RMSD: 0.187
# Mean RMSD: 0.175
data_MOF--net-dag--node1-MIDCAF_clean_sbu_0--node2-BELTOD_clean_linker_0--edge1-XUDNAN_clean_linker_2
_symmetry_space_group_name_H-M    P1
_symmetry_Int_Tables_number       1
_symmetry_cell_setting            triclinic
loop_
_symmetry_equiv_pos_as_xyz
'x, y, z'
_cell_length_a     44.298268
_cell_length_b     46.386332
_cell_length_c     34.226072
_cell_angle_alpha  94.005888
_cell_angle_beta   90.614251
_cell_angle_gamma 89.980142
loop_
_atom_site_label
_atom_site_type_symbol
_atom_site_fract_x
_atom_site_fract_y
_atom_site_fract_z
_atom_type_partial_charge
Zn0 Zn 0.15314 0.884 0.06959 0.0
Zn1 Zn 0.20553 0.83721 0.96655 0.0
Zn2 Zn 0.17896 0.85309 0.02836 0.0
C3 C 0.20539 0.89843 0.97598 0.0
C4 C 0.14682 0.81305 0.96365 0.0
O5 O 0.19011 0.83801 0.08668 0.0
O6 O 0.14691 0.85381 0.11064 0.0
C7 C 0.21253 0.89117 0.08798 0.0
O8 O 0.18766 0.89253 0.00328 0.0
O9 O 0.21826 0.87812 0.95587 0.0
O10 O 0.16779 0.8191 0.94075 0.0
O11 O 0.14782 0.82265 0.99965 0.0
O12 O 0.19166 0.90782 0.07739 0.0
O13 O 0.2102 0.86391 0.07787 0.0
O14 O 0.13056 0.84446 0.02741 0.0
O15 O 0.11719 0.89013 0.03441 0.0
C16 C 0.10996 0.86391 0.02659 0.0
O17 O 0.21456 0.83086 0.05736 0.0
O18 O 0.23193 0.81284 1.00022 0.0
C19 C 0.16953 0.83728 0.11308 0.0
C20 C 0.23268 0.81419 0.03736 0.0
Zn21 Zn 0.64224 0.65088 0.41669 0.0
Zn22 Zn 0.68585 0.64861 0.55875 0.0
Zn23 Zn 0.66292 0.64842 0.4871 0.0
C24 C 0.69495 0.59315 0.52392 0.0
C25 C 0.62494 0.66143 0.56757 0.0
O26 O 0.68766 0.68172 0.45521 0.0
O27 O 0.66297 0.68483 0.39913 0.0
C28 C 0.66418 0.59539 0.42133 0.0
O29 O 0.682 0.60469 0.49487 0.0
O30 O 0.69884 0.60769 0.55615 0.0
O31 O 0.64878 0.65934 0.5877 0.0
O32 O 0.62584 0.658 0.52983 0.0
O33 O 0.65546 0.61223 0.3961 0.0
O34 O 0.66773 0.60482 0.45741 0.0
O35 O 0.61402 0.65909 0.49156 0.0
O36 O 0.59939 0.6553 0.42936 0.0
C37 C 0.59314 0.65983 0.4651 0.0
O38 O 0.69953 0.68106 0.49282 0.0
O39 O 0.71669 0.67858 0.55355 0.0
C40 C 0.68386 0.6934 0.42234 0.0
C41 C 0.7178 0.68946 0.52085 0.0
Zn42 Zn 0.87445 0.17763 0.88879 0.0
Zn43 Zn 0.82293 0.14254 0.06185 0.0
Zn44 Zn 0.84595 0.15808 0.99851 0.0
C45 C 0.88483 0.15125 0.07785 0.0
C46 C 0.81936 0.09655 0.0014 0.0
O47 O 0.81837 0.19256 0.97822 0.0
O48 O 0.8557 0.1938 0.93903 0.0
C49 C 0.90304 0.17999 0.97696 0.0
O50 O 0.88389 0.15839 0.04208 0.0
O51 O 0.86082 0.14408 0.09431 0.0
O52 O 0.81064 0.10438 0.03557 0.0
O53 O 0.83448 0.11384 0.98153 0.0
O54 O 0.88524 0.17685 0.94768 0.0
O55 O 0.89234 0.17276 0.00926 0.0
O56 O 0.84281 0.12881 0.94294 0.0
O57 O 0.85677 0.13688 0.88066 0.0
C58 C 0.84528 0.12097 0.90585 0.0
O59 O 0.80736 0.18699 0.01436 0.0
O60 O 0.79121 0.17256 0.07056 0.0
C61 C 0.82866 0.20067 0.94616 0.0
C62 C 0.78895 0.18944 0.04327 0.0
Zn63 Zn 0.3495 0.33913 0.62077 0.0
Zn64 Zn 0.28949 0.34659 0.49329 0.0
Zn65 Zn 0.31916 0.34657 0.55843 0.0
C66 C 0.34858 0.34341 0.47156 0.0
C67 C 0.27783 0.39969 0.53559 0.0
O68 O 0.29833 0.31135 0.59063 0.0
O69 O 0.32662 0.30907 0.64396 0.0
C70 C 0.39093 0.32974 0.56322 0.0
O71 O 0.35141 0.34409 0.50917 0.0
O72 O 0.32282 0.34353 0.45562 0.0
O73 O 0.27113 0.38486 0.50438 0.0
O74 O 0.29639 0.38951 0.56048 0.0
O75 O 0.38863 0.32734 0.5995 0.0
O76 O 0.36794 0.33788 0.54319 0.0
O77 O 0.31564 0.38835 0.59381 0.0
O78 O 0.34482 0.37886 0.64418 0.0
C79 C 0.32848 0.39633 0.62679 0.0
O80 O 0.28536 0.30999 0.55319 0.0
O81 O 0.263 0.3134 0.49565 0.0
C82 C 0.30417 0.3004 0.62355 0.0
C83 C 0.26601 0.30061 0.52673 0.0
P84 P 0.10046 0.06379 0.36219 0.0
H85 H 0.10485 0.00098 0.34753 0.0
H86 H 0.14275 0.96962 0.31553 0.0
H87 H 0.19646 0.04454 0.2938 0.0
H88 H 0.15791 0.07579 0.32488 0.0
H89 H 0.08146 0.12111 0.39427 0.0
H90 H 0.10522 0.15689 0.44055 0.0
H91 H 0.18266 0.10065 0.44925 0.0
H92 H 0.15773 0.06447 0.40576 0.0
H93 H 0.03681 0.05773 0.33887 0.0
H94 H 0.11468 0.10455 0.30304 0.0
O95 O 0.07826 0.044 0.38894 0.0
H96 H 0.00694 0.0768 0.2862 0.0
H97 H 0.08483 0.12375 0.24997 0.0
C98 C 0.12865 0.04069 0.33879 0.0
C99 C 0.12485 0.01065 0.33606 0.0
C100 C 0.14677 0.9927 0.31813 0.0
C101 C 0.17292 0.00449 0.30248 0.0
C102 C 0.17659 0.0347 0.30537 0.0
C103 C 0.15454 0.05262 0.3231 0.0
C104 C 0.11834 0.09063 0.39529 0.0
C105 C 0.10358 0.11661 0.40619 0.0
C106 C 0.1173 0.13709 0.43264 0.0
C107 C 0.14618 0.13201 0.44851 0.0
C108 C 0.16035 0.10543 0.43824 0.0
C109 C 0.14633 0.08482 0.41251 0.0
C110 C 0.07802 0.07971 0.32494 0.0
C111 C 0.04746 0.07234 0.3199 0.0
C112 C 0.03033 0.08337 0.28979 0.0
C113 C 0.04347 0.10183 0.26383 0.0
C114 C 0.07409 0.10937 0.26921 0.0
C115 C 0.09116 0.09849 0.2996 0.0
P116 P 0.43246 0.62513 0.87957 0.0
H117 H 0.49591 0.62796 0.85708 0.0
H118 H 0.51998 0.64436 0.79878 0.0
H119 H 0.43476 0.67837 0.76048 0.0
H120 H 0.41087 0.66269 0.81965 0.0
H121 H 0.3877 0.61281 0.93726 0.0
H122 H 0.36145 0.64298 0.98749 0.0
H123 H 0.40683 0.71841 0.94925 0.0
H124 H 0.43364 0.68786 0.89992 0.0
H125 H 0.43803 0.5637 0.85607 0.0
H126 H 0.37284 0.63155 0.84309 0.0
O127 O 0.45763 0.60688 0.90479 0.0
H128 H 0.40835 0.53133 0.81125 0.0
H129 H 0.34364 0.59945 0.79677 0.0
C130 C 0.45152 0.64388 0.84261 0.0
C131 C 0.48253 0.6397 0.83684 0.0
C132 C 0.49629 0.6491 0.80346 0.0
C133 C 0.47914 0.66242 0.77499 0.0
C134 C 0.44841 0.66794 0.78184 0.0
C135 C 0.43478 0.65899 0.81564 0.0
C136 C 0.412 0.64822 0.91432 0.0
C137 C 0.39183 0.63588 0.93961 0.0
C138 C 0.37691 0.65315 0.96836 0.0
C139 C 0.38198 0.68315 0.97245 0.0
C140 C 0.40268 0.69535 0.94733 0.0
C141 C 0.4177 0.67798 0.91866 0.0
C142 C 0.40751 0.59994 0.85316 0.0
C143 C 0.41702 0.57146 0.84423 0.0
C144 C 0.4001 0.55302 0.81852 0.0
C145 C 0.37378 0.563 0.80059 0.0
C146 C 0.3639 0.59134 0.81018 0.0
C147 C 0.38052 0.6096 0.83664 0.0
P148 P 0.81256 0.88254 0.1585 0.0
H149 H 0.77166 0.93123 0.15147 0.0
H150 H 0.75539 0.95289 0.09252 0.0
H151 H 0.77827 0.87439 0.02367 0.0
H152 H 0.79407 0.85251 0.08368 0.0
H153 H 0.77761 0.89124 0.2293 0.0
H154 H 0.76167 0.85889 0.27857 0.0
H155 H 0.799 0.78628 0.20952 0.0
H156 H 0.81388 0.8187 0.15923 0.0
H157 H 0.8402 0.9019 0.08825 0.0
H158 H 0.86261 0.84256 0.17579 0.0
O159 O 0.82094 0.91302 0.18523 0.0
H160 H 0.88573 0.88839 0.05285 0.0
H161 H 0.90905 0.82953 0.14086 0.0
C162 C 0.78525 0.89079 0.12161 0.0
C163 C 0.77169 0.91807 0.12407 0.0
C164 C 0.76224 0.93042 0.09004 0.0
C165 C 0.76648 0.91566 0.05311 0.0
C166 C 0.77526 0.88646 0.05161 0.0
C167 C 0.78415 0.8739 0.08594 0.0
C168 C 0.79793 0.8575 0.19138 0.0
C169 C 0.78219 0.86834 0.22454 0.0
C170 C 0.77306 0.84988 0.25264 0.0
C171 C 0.77971 0.82027 0.24811 0.0
C172 C 0.79423 0.80918 0.21397 0.0
C173 C 0.80277 0.82765 0.18535 0.0
C174 C 0.84685 0.87187 0.13342 0.0
C175 C 0.85453 0.88541 0.09948 0.0
C176 C 0.88089 0.87797 0.07943 0.0
C177 C 0.90078 0.8575 0.09361 0.0
C178 C 0.89366 0.84467 0.12847 0.0
C179 C 0.86705 0.85207 0.14846 0.0
P180 P 0.70601 0.29216 0.58292 0.0
H181 H 0.75159 0.31953 0.53568 0.0
H182 H 0.75972 0.36975 0.52138 0.0
H183 H 0.68916 0.39623 0.60274 0.0
H184 H 0.68295 0.34648 0.61871 0.0
H185 H 0.67373 0.25721 0.63816 0.0
H186 H 0.68688 0.24128 0.70184 0.0
H187 H 0.77504 0.28077 0.69387 0.0
H188 H 0.75977 0.2998 0.63225 0.0
H189 H 0.67449 0.28056 0.5082 0.0
H190 H 0.65057 0.30322 0.62826 0.0
O191 O 0.72506 0.27074 0.55065 0.0
H192 H 0.62126 0.28419 0.48855 0.0
H193 H 0.59746 0.30573 0.60898 0.0
C194 C 0.71644 0.32924 0.57798 0.0
C195 C 0.73841 0.33628 0.55108 0.0
C196 C 0.74275 0.36506 0.54255 0.0
C197 C 0.72481 0.38728 0.56032 0.0
C198 C 0.70378 0.38004 0.58867 0.0
C199 C 0.69993 0.35139 0.59767 0.0
C200 C 0.71516 0.28095 0.63115 0.0
C201 C 0.69539 0.26353 0.65081 0.0
C202 C 0.70345 0.25363 0.68714 0.0
C203 C 0.73229 0.25941 0.70381 0.0
C204 C 0.75233 0.27635 0.68322 0.0
C205 C 0.74373 0.28716 0.64755 0.0
C206 C 0.66641 0.29032 0.56999 0.0
C207 C 0.65774 0.28544 0.53051 0.0
C208 C 0.62742 0.28775 0.51922 0.0
C209 C 0.60531 0.29481 0.54735 0.0
C210 C 0.61402 0.29962 0.58686 0.0
C211 C 0.64436 0.29792 0.59794 0.0
P212 P 0.55276 0.38218 0.1648 0.0
H213 H 0.61559 0.4022 0.16799 0.0
H214 H 0.64662 0.42599 0.22053 0.0
H215 H 0.56963 0.42833 0.29715 0.0
H216 H 0.53923 0.40452 0.24558 0.0
H217 H 0.55888 0.36123 0.08249 0.0
H218 H 0.59438 0.32741 0.04946 0.0
H219 H 0.6323 0.30884 0.16193 0.0
H220 H 0.59651 0.34196 0.19446 0.0
H221 H 0.49149 0.40386 0.1737 0.0
H222 H 0.54312 0.33104 0.20902 0.0
O223 O 0.54226 0.40571 0.13253 0.0
H224 H 0.45505 0.3965 0.22502 0.0
H225 H 0.50656 0.32358 0.26029 0.0
C226 C 0.57521 0.40093 0.20287 0.0
C227 C 0.60551 0.40766 0.19624 0.0
C228 C 0.62322 0.42123 0.22625 0.0
C229 C 0.61076 0.42848 0.26328 0.0
C230 C 0.58023 0.42219 0.26944 0.0
C231 C 0.56264 0.4087 0.23956 0.0
C232 C 0.57535 0.35425 0.14083 0.0
C233 C 0.57456 0.34949 0.09996 0.0
C234 C 0.59495 0.33032 0.08113 0.0
C235 C 0.61629 0.31559 0.10303 0.0
C236 C 0.61594 0.31951 0.14415 0.0
C237 C 0.59556 0.33858 0.16284 0.0
C238 C 0.52004 0.368 0.18745 0.0
C239 C 0.4942 0.38537 0.19106 0.0
C240 C 0.47352 0.38134 0.22064 0.0
C241 C 0.47838 0.35978 0.24683 0.0
C242 C 0.50233 0.34029 0.24033 0.0
C243 C 0.52319 0.3445 0.21088 0.0
P244 P 0.21339 0.20793 0.97639 0.0
H245 H 0.26395 0.17101 0.99661 0.0
H246 H 0.26979 0.11829 0.99452 0.0
H247 H 0.17617 0.10802 0.95995 0.0
H248 H 0.17065 0.16034 0.96119 0.0
H249 H 0.26297 0.23058 0.93118 0.0
H250 H 0.26853 0.23704 0.86132 0.0
H251 H 0.17963 0.20077 0.83887 0.0
H252 H 0.17405 0.19494 0.9088 0.0
H253 H 0.16705 0.18906 0.03042 0.0
H254 H 0.17945 0.25822 0.95424 0.0
O255 O 0.24001 0.22571 0.00319 0.0
H256 H 0.11308 0.19937 0.03306 0.0
H257 H 0.12568 0.26942 0.95791 0.0
C258 C 0.21658 0.16962 0.98054 0.0
C259 C 0.24456 0.15739 0.98937 0.0
C260 C 0.24794 0.12734 0.98784 0.0
C261 C 0.22332 0.10919 0.97749 0.0
C262 C 0.19533 0.12155 0.96879 0.0
C263 C 0.19213 0.15148 0.96972 0.0
C264 C 0.21797 0.21269 0.92514 0.0
C265 C 0.2447 0.22409 0.91122 0.0
C266 C 0.24791 0.22749 0.87123 0.0
C267 C 0.22449 0.21934 0.84455 0.0
C268 C 0.19791 0.20751 0.85869 0.0
C269 C 0.19477 0.20409 0.89863 0.0
C270 C 0.17678 0.22177 0.99024 0.0
C271 C 0.15828 0.20692 0.01503 0.0
C272 C 0.12743 0.2131 0.0169 0.0
C273 C 0.11498 0.23464 0.99462 0.0
C274 C 0.1345 0.25212 0.9744 0.0
C275 C 0.16524 0.24576 0.97234 0.0
P276 P 0.27718 0.64778 0.39867 0.0
H277 H 0.21741 0.62185 0.39922 0.0
H278 H 0.19714 0.58857 0.44454 0.0
H279 H 0.26678 0.61495 0.52887 0.0
H280 H 0.28562 0.64925 0.48466 0.0
H281 H 0.28101 0.65746 0.31631 0.0
H282 H 0.25882 0.69288 0.27574 0.0
H283 H 0.21924 0.73673 0.37855 0.0
H284 H 0.24064 0.69987 0.41893 0.0
H285 H 0.32314 0.61071 0.42745 0.0
H286 H 0.31325 0.70163 0.41147 0.0
O287 O 0.28014 0.61833 0.368 0.0
H288 H 0.37408 0.61902 0.4529 0.0
H289 H 0.36515 0.7101 0.43576 0.0
C290 C 0.25372 0.63715 0.43787 0.0
C291 C 0.22726 0.62163 0.42831 0.0
C292 C 0.21586 0.60241 0.45418 0.0
C293 C 0.23119 0.59816 0.4896 0.0
C294 C 0.25462 0.6173 0.50166 0.0
C295 C 0.26568 0.63683 0.476 0.0
C296 C 0.26189 0.67572 0.37044 0.0
C297 C 0.26746 0.67463 0.33018 0.0
C298 C 0.25502 0.69522 0.30699 0.0
C299 C 0.23713 0.7178 0.3237 0.0
C300 C 0.23243 0.71938 0.36452 0.0
C301 C 0.24475 0.69845 0.38772 0.0
C302 C 0.31475 0.65543 0.41682 0.0
C303 C 0.33214 0.63248 0.42906 0.0
C304 C 0.36128 0.63728 0.44361 0.0
C305 C 0.37387 0.66516 0.4458 0.0
C306 C 0.35604 0.68839 0.43455 0.0
C307 C 0.32655 0.68355 0.42026 0.0
P308 P 0.84659 0.81734 0.81266 0.0
H309 H 0.79181 0.85196 0.81042 0.0
H310 H 0.7819 0.90344 0.82489 0.0
H311 H 0.87433 0.9154 0.86482 0.0
H312 H 0.88437 0.86463 0.84818 0.0
H313 H 0.85754 0.76631 0.7609 0.0
H314 H 0.85139 0.75602 0.69023 0.0
H315 H 0.82664 0.84499 0.67788 0.0
H316 H 0.83345 0.85537 0.74833 0.0
H317 H 0.86583 0.79497 0.88665 0.0
H318 H 0.90725 0.81852 0.77997 0.0
O319 O 0.82011 0.79668 0.83086 0.0
H320 H 0.91571 0.78508 0.91425 0.0
H321 H 0.95699 0.80807 0.80684 0.0
C322 C 0.8388 0.85447 0.82801 0.0
C323 C 0.80982 0.86574 0.82253 0.0
C324 C 0.80418 0.89515 0.83101 0.0
C325 C 0.82739 0.91373 0.84564 0.0
C326 C 0.85609 0.90197 0.8526 0.0
C327 C 0.86182 0.87272 0.84346 0.0
C328 C 0.84551 0.81142 0.76006 0.0
C329 C 0.85133 0.78372 0.74289 0.0
C330 C 0.84808 0.77795 0.70248 0.0
C331 C 0.83862 0.79977 0.67859 0.0
C332 C 0.83393 0.8278 0.69567 0.0
C333 C 0.83759 0.83365 0.73607 0.0
C334 C 0.88287 0.8069 0.83104 0.0
C335 C 0.88563 0.79742 0.86889 0.0
C336 C 0.91413 0.79172 0.88458 0.0
C337 C 0.9403 0.79576 0.86271 0.0
C338 C 0.93729 0.80499 0.82457 0.0
C339 C 0.90884 0.81068 0.80899 0.0
H340 H 0.23225 0.94567 0.10286 0.0
H341 H 0.2317 0.86179 0.15037 0.0
H342 H 0.23619 0.88497 0.21704 0.0
H343 H 0.2772 0.98748 0.19061 0.0
H344 H 0.25295 0.01817 0.18509 0.0
H345 H 0.26435 0.99583 0.14254 0.0
H346 H 0.20825 0.98844 0.123 0.0
H347 H 0.19659 0.01004 0.16534 0.0
H348 H 0.18267 0.97356 0.15693 0.0
H349 H 0.22094 0.9157 0.27551 0.0
H350 H 0.19316 0.95051 0.31947 0.0
H351 H 0.20079 0.01483 0.23421 0.0
C352 C 0.23528 0.93227 0.12728 0.0
C353 C 0.23125 0.90211 0.12173 0.0
C354 C 0.23481 0.88496 0.154 0.0
C355 C 0.23721 0.89808 0.19213 0.0
C356 C 0.23682 0.92825 0.19716 0.0
C357 C 0.23698 0.9452 0.16538 0.0
C358 C 0.22981 0.97647 0.17766 0.0
C359 C 0.25775 0.99562 0.17376 0.0
C360 C 0.2027 0.98772 0.15441 0.0
C361 C 0.22218 0.9739 0.22021 0.0
C362 C 0.22748 0.94624 0.23141 0.0
C363 C 0.2177 0.93765 0.26746 0.0
C364 C 0.20154 0.95747 0.29205 0.0
C365 C 0.19481 0.98547 0.28029 0.0
C366 C 0.20632 0.99394 0.24456 0.0
H367 H 0.61741 0.68984 0.63881 0.0
H368 H 0.56873 0.64066 0.54624 0.0
H369 H 0.52237 0.64393 0.58582 0.0
H370 H 0.58898 0.65229 0.71229 0.0
H371 H 0.58749 0.68232 0.74861 0.0
H372 H 0.6143 0.68251 0.70962 0.0
H373 H 0.59313 0.73155 0.6897 0.0
H374 H 0.56624 0.73159 0.72887 0.0
H375 H 0.55337 0.73501 0.67927 0.0
H376 H 0.48346 0.64693 0.63916 0.0
H377 H 0.45693 0.64583 0.70224 0.0
H378 H 0.53272 0.68928 0.76187 0.0
C379 C 0.59671 0.68058 0.62637 0.0
C380 C 0.59622 0.66622 0.58861 0.0
C381 C 0.5691 0.6533 0.574 0.0
C382 C 0.54276 0.65476 0.59658 0.0
C383 C 0.54415 0.66877 0.634 0.0
C384 C 0.57055 0.68133 0.64883 0.0
C385 C 0.56763 0.69127 0.69171 0.0
C386 C 0.59097 0.67618 0.71702 0.0
C387 C 0.57024 0.72432 0.69773 0.0
C388 C 0.53588 0.68127 0.69925 0.0
C389 C 0.52237 0.66908 0.66539 0.0
C390 C 0.49365 0.65682 0.66568 0.0
C391 C 0.47871 0.65638 0.70159 0.0
C392 C 0.49277 0.66763 0.73677 0.0
C393 C 0.52143 0.68074 0.73532 0.0
H394 H 0.76521 0.07085 0.00395 0.0
H395 H 0.8573 0.05577 0.96724 0.0
H396 H 0.84631 0.00345 0.95579 0.0
H397 H 0.76 0.01826 0.06058 0.0
H398 H 0.72138 0.00784 0.05007 0.0
H399 H 0.73345 0.04374 0.04235 0.0
H400 H 0.71531 0.03704 0.96997 0.0
H401 H 0.70333 0.0007 0.97762 0.0
H402 H 0.72917 0.0071 0.93884 0.0
H403 H 0.82964 0.95363 0.96445 0.0
H404 H 0.81236 0.91295 1.00051 0.0
H405 H 0.72987 0.95903 0.03037 0.0
C406 C 0.78257 0.05656 0.99176 0.0
C407 C 0.81187 0.06707 0.9859 0.0
C408 C 0.83455 0.04801 0.97117 0.0
C409 C 0.82841 0.01835 0.96442 0.0
C410 C 0.79937 0.00837 0.97176 0.0
C411 C 0.77669 0.02708 0.98474 0.0
C412 C 0.74937 0.01086 0.99779 0.0
C413 C 0.74061 0.02074 0.04019 0.0
C414 C 0.72272 0.01411 0.96935 0.0
C415 C 0.76144 0.98027 0.99455 0.0
C416 C 0.78967 0.97907 0.97743 0.0
C417 C 0.80729 0.95414 0.97694 0.0
C418 C 0.79711 0.93091 0.99735 0.0
C419 C 0.76975 0.93296 0.01847 0.0
C420 C 0.75072 0.95694 0.01421 0.0
H421 H 0.42992 0.28851 0.58365 0.0
H422 H 0.42011 0.35807 0.50697 0.0
H423 H 0.47278 0.35071 0.48498 0.0
H424 H 0.49855 0.31029 0.61961 0.0
H425 H 0.51376 0.27472 0.62499 0.0
H426 H 0.47367 0.28038 0.62669 0.0
H427 H 0.46575 0.2408 0.57023 0.0
H428 H 0.50594 0.23477 0.56858 0.0
H429 H 0.48565 0.24325 0.52491 0.0
H430 H 0.52887 0.34003 0.47919 0.0
H431 H 0.5827 0.32911 0.49216 0.0
H432 H 0.55607 0.26959 0.57757 0.0
C433 C 0.43857 0.30151 0.56117 0.0
C434 C 0.42053 0.323 0.54535 0.0
C435 C 0.4329 0.3403 0.51721 0.0
C436 C 0.463 0.33651 0.5052 0.0
C437 C 0.48044 0.31549 0.52214 0.0
C438 C 0.46856 0.29829 0.54959 0.0
C439 C 0.49268 0.28018 0.56768 0.0
C440 C 0.49478 0.28681 0.61237 0.0
C441 C 0.48717 0.24783 0.55721 0.0
C442 C 0.52029 0.29069 0.54741 0.0
C443 C 0.51279 0.3105 0.5205 0.0
C444 C 0.53489 0.32425 0.49977 0.0
C445 C 0.56535 0.31791 0.50725 0.0
C446 C 0.57334 0.2985 0.53576 0.0
C447 C 0.55047 0.28443 0.55552 0.0
H448 H 0.68203 0.57261 0.35049 0.0
H449 H 0.64958 0.54921 0.46287 0.0
H450 H 0.64409 0.49849 0.43652 0.0
H451 H 0.62931 0.53747 0.29774 0.0
H452 H 0.65199 0.52587 0.25613 0.0
H453 H 0.6627 0.55736 0.28641 0.0
H454 H 0.71535 0.53507 0.29852 0.0
H455 H 0.70482 0.50336 0.26791 0.0
H456 H 0.71807 0.49981 0.31732 0.0
H457 H 0.63157 0.45398 0.39492 0.0
H458 H 0.61122 0.42047 0.34198 0.0
H459 H 0.64887 0.47389 0.25559 0.0
C460 C 0.67504 0.55648 0.36994 0.0
C461 C 0.66704 0.5645 0.40894 0.0
C462 C 0.65677 0.54322 0.43326 0.0
C463 C 0.65358 0.51439 0.41848 0.0
C464 C 0.66056 0.50735 0.37928 0.0
C465 C 0.67128 0.52784 0.35539 0.0
C466 C 0.67186 0.51637 0.31291 0.0
C467 C 0.65282 0.53538 0.28682 0.0
C468 C 0.70447 0.51348 0.29831 0.0
C469 C 0.65764 0.48704 0.31613 0.0
C470 C 0.65227 0.4818 0.35476 0.0
C471 C 0.63625 0.45757 0.36467 0.0
C472 C 0.62454 0.4388 0.3344 0.0
C473 C 0.62844 0.44464 0.29467 0.0
C474 C 0.64617 0.46848 0.28562 0.0
H475 H 0.9443 0.19491 0.0358 0.0
H476 H 0.93035 0.19345 0.9099 0.0
H477 H 0.98094 0.21413 0.90266 0.0
H478 H 0.99023 0.26239 0.04451 0.0
H479 H 0.01468 0.24901 0.08159 0.0
H480 H 0.97584 0.23744 0.07786 0.0
H481 H 0.99358 0.18504 0.07273 0.0
H482 H 0.03264 0.19519 0.0744 0.0
H483 H 0.01834 0.17204 0.03383 0.0
H484 H 0.03364 0.23102 0.90775 0.0
H485 H 0.08718 0.23919 0.92411 0.0
H486 H 0.06847 0.22951 0.04679 0.0
C487 C 0.95192 0.19896 0.00677 0.0
C488 C 0.93349 0.19236 0.97338 0.0
C489 C 0.94409 0.19828 0.93589 0.0
C490 C 0.97272 0.21023 0.93147 0.0
C491 C 0.99042 0.21632 0.96485 0.0
C492 C 0.98058 0.21086 0.00179 0.0
C493 C 0.0051 0.21757 0.03236 0.0
C494 C 0.99591 0.24313 0.06075 0.0
C495 C 0.01292 0.19082 0.05456 0.0
C496 C 0.03073 0.22589 0.00643 0.0
C497 C 0.02139 0.22591 0.96779 0.0
C498 C 0.04116 0.23154 0.93797 0.0
C499 C 0.07156 0.23638 0.94767 0.0
C500 C 0.08201 0.23527 0.98683 0.0
C501 C 0.0611 0.23064 0.01667 0.0
H502 H 0.25767 0.43149 0.47768 0.0
H503 H 0.26888 0.4347 0.60379 0.0
H504 H 0.25261 0.48618 0.60806 0.0
H505 H 0.28449 0.49899 0.46211 0.0
H506 H 0.25763 0.50557 0.42382 0.0
H507 H 0.26817 0.46918 0.4325 0.0
H508 H 0.21179 0.45622 0.44153 0.0
H509 H 0.20109 0.49279 0.43321 0.0
H510 H 0.18971 0.47698 0.47739 0.0
H511 H 0.24043 0.53961 0.59552 0.0
H512 H 0.23304 0.58741 0.56848 0.0
H513 H 0.22632 0.54523 0.4516 0.0
C514 C 0.2563 0.44273 0.50643 0.0
C515 C 0.26565 0.42945 0.54038 0.0
C516 C 0.26322 0.44497 0.57728 0.0
C517 C 0.25346 0.474 0.57995 0.0
C518 C 0.24522 0.48665 0.54548 0.0
C519 C 0.24612 0.47114 0.50955 0.0
C520 C 0.23749 0.48935 0.47639 0.0
C521 C 0.26349 0.49087 0.44702 0.0
C522 C 0.20828 0.47816 0.45594 0.0
C523 C 0.23248 0.51802 0.49888 0.0
C524 C 0.23681 0.51628 0.53872 0.0
C525 C 0.23633 0.54099 0.56448 0.0
C526 C 0.23213 0.56806 0.54889 0.0
C527 C 0.22844 0.57012 0.50794 0.0
C528 C 0.22781 0.54454 0.48312 0.0
H529 H 0.11109 0.83827 0.91219 0.0
H530 H 0.11718 0.76408 0.98186 0.0
H531 H 0.0648 0.75001 0.96186 0.0
H532 H 0.03585 0.85583 0.93868 0.0
H533 H 0.02604 0.86869 0.89178 0.0
H534 H 0.06457 0.87068 0.90904 0.0
H535 H 0.0815 0.84142 0.84527 0.0
H536 H 0.04287 0.83931 0.82834 0.0
H537 H 0.06454 0.8067 0.83215 0.0
H538 H 0.01045 0.74628 0.93681 0.0
H539 H 0.95957 0.75227 0.90778 0.0
H540 H 0.98961 0.83055 0.85763 0.0
C541 C 0.10165 0.81855 0.92214 0.0
C542 C 0.11809 0.80169 0.94754 0.0
C543 C 0.10488 0.77674 0.96155 0.0
C544 C 0.07521 0.76877 0.95054 0.0
C545 C 0.05921 0.7863 0.92604 0.0
C546 C 0.07205 0.81068 0.91205 0.0
C547 C 0.04966 0.82707 0.88845 0.0
C548 C 0.0437 0.85736 0.90816 0.0
C549 C 0.06028 0.8287 0.84604 0.0
C550 C 0.02231 0.80787 0.89059 0.0
C551 C 0.02808 0.78455 0.91255 0.0
C552 C 0.00576 0.76437 0.91938 0.0
C553 C 0.97691 0.76804 0.90298 0.0
C554 C 0.97072 0.79171 0.8801 0.0
C555 C 0.99379 0.81186 0.87418 0.0
H556 H 0.87748 0.07844 0.86752 0.0
H557 H 0.78867 0.09924 0.9129 0.0
H558 H 0.77207 0.04879 0.89595 0.0
H559 H 0.85156 0.02473 0.78663 0.0
H560 H 0.88414 0.00222 0.79327 0.0
H561 H 0.88693 0.04082 0.80304 0.0
H562 H 0.9069 0.03307 0.87288 0.0
H563 H 0.90353 0.99456 0.86388 0.0
H564 H 0.88463 0.01267 0.90498 0.0
H565 H 0.76854 0.99454 0.88485 0.0
H566 H 0.77638 0.94189 0.87397 0.0
H567 H 0.86691 0.95745 0.83264 0.0
C568 C 0.85434 0.07242 0.87288 0.0
C569 C 0.83432 0.09225 0.89172 0.0
C570 C 0.80425 0.08398 0.89864 0.0
C571 C 0.79464 0.05553 0.8889 0.0
C572 C 0.81543 0.03592 0.87209 0.0
C573 C 0.84451 0.04416 0.86349 0.0
C574 C 0.86313 0.01864 0.848 0.0
C575 C 0.87195 0.02179 0.80519 0.0
C576 C 0.89118 0.0145 0.874 0.0
C577 C 0.84054 0.99454 0.85114 0.0
C578 C 0.81309 0.00486 0.86479 0.0
C579 C 0.78963 0.98627 0.87298 0.0
C580 C 0.7943 0.95638 0.86668 0.0
C581 C 0.8222 0.94538 0.85218 0.0
C582 C 0.84539 0.96495 0.84407 0.0
H583 H 0.37198 0.30609 0.41438 0.0
H584 H 0.38095 0.39219 0.47087 0.0
H585 H 0.41835 0.40443 0.42161 0.0
H586 H 0.45308 0.2984 0.38296 0.0
H587 H 0.44259 0.27917 0.33724 0.0
H588 H 0.41992 0.27581 0.38012 0.0
H589 H 0.37279 0.29184 0.34182 0.0
H590 H 0.39527 0.2957 0.29903 0.0
H591 H 0.37342 0.32583 0.3193 0.0
H592 H 0.44866 0.40951 0.36253 0.0
H593 H 0.47403 0.4062 0.29862 0.0
H594 H 0.447 0.3164 0.27978 0.0
C595 C 0.38279 0.32709 0.41699 0.0
C596 C 0.37466 0.34798 0.44692 0.0
C597 C 0.38786 0.37575 0.44872 0.0
C598 C 0.40897 0.38286 0.42087 0.0
C599 C 0.41636 0.36196 0.39135 0.0
C600 C 0.40408 0.33449 0.38941 0.0
C601 C 0.41437 0.31686 0.35297 0.0
C602 C 0.43364 0.29103 0.36399 0.0
C603 C 0.38735 0.30699 0.32674 0.0
C604 C 0.43331 0.33912 0.33401 0.0
C605 C 0.43421 0.3649 0.35686 0.0
C606 C 0.44853 0.38933 0.34463 0.0
C607 C 0.46256 0.38734 0.30816 0.0
C608 C 0.4622 0.36112 0.28438 0.0
C609 C 0.44763 0.33662 0.29761 0.0
H610 H 0.17588 0.9466 0.00635 0.0
H611 H 0.25076 0.91913 0.93183 0.0
H612 H 0.26432 0.97021 0.92519 0.0
H613 H 0.15481 0.00835 0.95357 0.0
H614 H 0.14506 0.03014 0.99728 0.0
H615 H 0.14139 0.99142 0.99594 0.0
H616 H 0.17599 0.99038 0.05757 0.0
H617 H 0.17961 0.02912 0.05901 0.0
H618 H 0.21291 0.00675 0.05707 0.0
H619 H 0.27091 0.02439 0.92912 0.0
H620 H 0.26716 0.07769 0.93845 0.0
H621 H 0.18711 0.06924 0.0086 0.0
C622 C 0.19503 0.95129 0.98843 0.0
C623 C 0.21229 0.92889 0.96962 0.0
C624 C 0.23713 0.93595 0.94637 0.0
C625 C 0.2451 0.96488 0.94257 0.0
C626 C 0.22782 0.98642 0.96194 0.0
C627 C 0.2031 0.97997 0.98402 0.0
C628 C 0.18801 0.00708 0.00144 0.0
C629 C 0.15538 0.00938 0.98613 0.0
C630 C 0.1892 0.0084 0.04645 0.0
C631 C 0.2081 0.02983 0.98573 0.0
C632 C 0.23114 0.01752 0.96335 0.0
C633 C 0.25288 0.03428 0.94644 0.0
C634 C 0.25071 0.06446 0.95209 0.0
C635 C 0.22683 0.07743 0.97413 0.0
C636 C 0.20544 0.05982 0.99133 0.0
H637 H 0.5476 0.62596 0.43813 0.0
H638 H 0.56702 0.70319 0.51252 0.0
H639 H 0.51187 0.71232 0.51975 0.0
H640 H 0.489 0.65372 0.38556 0.0
H641 H 0.46692 0.621 0.38172 0.0
H642 H 0.50727 0.61906 0.38695 0.0
H643 H 0.50158 0.58991 0.44842 0.0
H644 H 0.46111 0.59146 0.44317 0.0
H645 H 0.47895 0.60434 0.48866 0.0
H646 H 0.45386 0.71492 0.51193 0.0
H647 H 0.39968 0.70922 0.49365 0.0
H648 H 0.42095 0.63047 0.42354 0.0
C649 C 0.54018 0.64446 0.45664 0.0
C650 C 0.56119 0.66377 0.4751 0.0
C651 C 0.55098 0.688 0.49865 0.0
C652 C 0.51981 0.69332 0.50276 0.0
C653 C 0.49953 0.67408 0.4832 0.0
C654 C 0.50949 0.64993 0.46104 0.0
C655 C 0.48376 0.63328 0.44105 0.0
C656 C 0.48694 0.6317 0.39618 0.0
C657 C 0.4812 0.60296 0.45625 0.0
C658 C 0.45763 0.65217 0.45437 0.0
C659 C 0.46689 0.67553 0.47886 0.0
C660 C 0.44641 0.69648 0.49318 0.0
C661 C 0.41577 0.69322 0.48241 0.0
C662 C 0.40603 0.66921 0.45755 0.0
C663 C 0.42745 0.64866 0.4434 0.0
H664 H 0.32516 0.41087 0.70416 0.0
H665 H 0.32818 0.4479 0.59159 0.0
H666 H 0.33144 0.49698 0.62526 0.0
H667 H 0.28531 0.47133 0.7604 0.0
H668 H 0.30858 0.46704 0.80312 0.0
H669 H 0.29952 0.43611 0.77025 0.0
H670 H 0.35657 0.42504 0.76214 0.0
H671 H 0.36581 0.4559 0.79466 0.0
H672 H 0.3813 0.45261 0.74607 0.0
H673 H 0.34131 0.54115 0.67183 0.0
H674 H 0.35988 0.57536 0.72562 0.0
H675 H 0.35382 0.50802 0.8067 0.0
C676 C 0.3255 0.42941 0.6866 0.0
C677 C 0.32542 0.42582 0.64535 0.0
C678 C 0.32706 0.45039 0.62325 0.0
C679 C 0.32905 0.47827 0.64216 0.0
C680 C 0.32974 0.48099 0.6831 0.0
C681 C 0.32801 0.45709 0.70497 0.0
C682 C 0.33345 0.46497 0.74809 0.0
C683 C 0.30501 0.45955 0.77186 0.0
C684 C 0.36091 0.44867 0.76361 0.0
C685 C 0.33975 0.49689 0.74711 0.0
C686 C 0.33675 0.50598 0.7096 0.0
C687 C 0.34325 0.53433 0.70135 0.0
C688 C 0.3537 0.55361 0.73203 0.0
C689 C 0.35807 0.54421 0.77016 0.0
C690 C 0.35042 0.5157 0.77781 0.0
H691 H 0.0613 0.89945 0.01907 0.0
H692 H 0.0862 0.80975 0.02786 0.0
H693 H 0.03269 0.79669 0.03293 0.0
H694 H 0.01173 0.9026 0.09141 0.0
H695 H 0.98434 0.92586 0.07025 0.0
H696 H 0.02308 0.92715 0.05568 0.0
H697 H 0.00731 0.91642 0.98293 0.0
H698 H 0.96827 0.9155 0.99724 0.0
H699 H 0.98446 0.88515 0.96908 0.0
H700 H 0.97876 0.79502 0.05201 0.0
H701 H 0.92836 0.8047 0.08031 0.0
H702 H 0.93892 0.89578 0.0623 0.0
C703 C 0.05537 0.87692 0.02057 0.0
C704 C 0.07789 0.85551 0.02212 0.0
C705 C 0.06932 0.82636 0.02519 0.0
C706 C 0.03891 0.81875 0.02836 0.0
C707 C 0.01732 0.84058 0.02859 0.0
C708 C 0.02513 0.86906 0.02428 0.0
C709 C -0.00165 0.88896 0.03097 0.0
C710 C 0.00477 0.9125 0.06405 0.0
C711 C 0.98904 0.90229 0.99278 0.0
C712 C 0.97496 0.86757 0.04279 0.0
C713 C 0.98604 0.83966 0.04019 0.0
C714 C 0.96956 0.81667 0.05329 0.0
C715 C 0.94114 0.82242 0.06975 0.0
C716 C 0.92966 0.85096 0.07333 0.0
C717 C 0.9467 0.87363 0.05902 0.0
H718 H 0.69505 0.55676 0.58262 0.0
H719 H 0.71725 0.56082 0.46016 0.0
H720 H 0.72948 0.50849 0.45606 0.0
H721 H 0.75576 0.50682 0.60497 0.0
H722 H 0.73308 0.48879 0.63926 0.0
H723 H 0.72667 0.52641 0.63201 0.0
H724 H 0.67045 0.51533 0.61536 0.0
H725 H 0.67668 0.47771 0.62239 0.0
H726 H 0.66113 0.48831 0.57668 0.0
H727 H 0.73514 0.45465 0.46514 0.0
H728 H 0.73642 0.40506 0.48662 0.0
H729 H 0.71605 0.43832 0.60528 0.0
C730 C 0.70274 0.5467 0.55498 0.0
C731 C 0.70418 0.56247 0.52124 0.0
C732 C 0.71478 0.54872 0.48584 0.0
C733 C 0.72213 0.51916 0.48345 0.0
C734 C 0.71962 0.50402 0.51712 0.0
C735 C 0.71064 0.51751 0.55235 0.0
C736 C 0.70968 0.49662 0.58432 0.0
C737 C 0.73267 0.50517 0.61707 0.0
C738 C 0.67758 0.49436 0.60062 0.0
C739 C 0.71885 0.46901 0.56145 0.0
C740 C 0.72447 0.47364 0.52275 0.0
C741 C 0.7314 0.45091 0.49557 0.0
C742 C 0.73231 0.42275 0.50822 0.0
C743 C 0.72655 0.41748 0.54786 0.0
C744 C 0.7203 0.44124 0.57473 0.0
H745 H 0.89353 0.15249 0.15709 0.0
H746 H 0.94131 0.14188 0.04709 0.0
H747 H 0.98819 0.13092 0.08313 0.0
H748 H 0.95586 0.18476 0.21712 0.0
H749 H 0.94581 0.16553 0.25908 0.0
H750 H 0.91702 0.17529 0.22483 0.0
H751 H 0.90046 0.12167 0.21505 0.0
H752 H 0.92928 0.11171 0.249 0.0
H753 H 0.92793 0.09451 0.20013 0.0
H754 H 0.02955 0.1192 0.13154 0.0
H755 H 0.06068 0.10478 0.18736 0.0
H756 H 0.9852 0.12224 0.2652 0.0
C757 C 0.91404 0.14862 0.1406 0.0
C758 C 0.9139 0.14873 0.09928 0.0
C759 C 0.94105 0.1428 0.07878 0.0
C760 C 0.96775 0.13636 0.09902 0.0
C761 C 0.96705 0.13638 0.13977 0.0
C762 C 0.94084 0.14236 0.1603 0.0
C763 C 0.94537 0.1389 0.20367 0.0
C764 C 0.94074 0.16785 0.22758 0.0
C765 C 0.92453 0.11529 0.21777 0.0
C766 C 0.97813 0.12964 0.20437 0.0
C767 C 0.99039 0.12864 0.16733 0.0
C768 C 0.02019 0.12009 0.16068 0.0
C769 C 0.03775 0.11206 0.19261 0.0
C770 C 0.02542 0.11236 0.2307 0.0
C771 C 0.99525 0.12157 0.23646 0.0
H772 H 0.21978 0.8067 0.13303 0.0
H773 H 0.12975 0.83059 0.17242 0.0
H774 H 0.13784 0.80404 0.23171 0.0
H775 H 0.22057 0.73544 0.16624 0.0
H776 H 0.25967 0.73699 0.1814 0.0
H777 H 0.24672 0.75792 0.14215 0.0
H778 H 0.2673 0.80449 0.17899 0.0
H779 H 0.28033 0.78389 0.21859 0.0
H780 H 0.25526 0.81411 0.22834 0.0
H781 H 0.15533 0.77396 0.28595 0.0
H782 H 0.18068 0.74217 0.33088 0.0
H783 H 0.26039 0.74041 0.25783 0.0
C784 C 0.20171 0.80631 0.15403 0.0
C785 C 0.17411 0.82073 0.14806 0.0
C786 C 0.1511 0.81975 0.17639 0.0
C787 C 0.15549 0.80476 0.21019 0.0
C788 C 0.18307 0.79102 0.21534 0.0
C789 C 0.20581 0.79171 0.18808 0.0
C790 C 0.23339 0.77533 0.20068 0.0
C791 C 0.24049 0.74991 0.17085 0.0
C792 C 0.26068 0.79567 0.20704 0.0
C793 C 0.22243 0.76491 0.23907 0.0
C794 C 0.19339 0.77425 0.24702 0.0
C795 C 0.17819 0.76672 0.28026 0.0
C796 C 0.19292 0.74883 0.30583 0.0
C797 C 0.22263 0.73872 0.29816 0.0
C798 C 0.23758 0.74737 0.26449 0.0
H799 H 0.71062 0.74534 0.54351 0.0
H800 H 0.77498 0.68336 0.49469 0.0
H801 H 0.81676 0.71624 0.51535 0.0
H802 H 0.76153 0.81546 0.53309 0.0
H803 H 0.74726 0.83018 0.57942 0.0
H804 H 0.72294 0.80889 0.54607 0.0
H805 H 0.7113 0.77528 0.60119 0.0
H806 H 0.73578 0.79582 0.63428 0.0
H807 H 0.74204 0.75756 0.6249 0.0
H808 H 0.84967 0.74475 0.56082 0.0
H809 H 0.87036 0.76774 0.62257 0.0
H810 H 0.78573 0.81248 0.64345 0.0
C811 C 0.73346 0.73994 0.53471 0.0
C812 C 0.73982 0.71248 0.51668 0.0
C813 C 0.76983 0.70483 0.50737 0.0
C814 C 0.79367 0.7234 0.51918 0.0
C815 C 0.78698 0.74949 0.54017 0.0
C816 C 0.75742 0.75819 0.54692 0.0
C817 C 0.75607 0.78369 0.57708 0.0
C818 C 0.74639 0.81119 0.55775 0.0
C819 C 0.73511 0.77767 0.61135 0.0
C820 C 0.78887 0.78552 0.58987 0.0
C821 C 0.80658 0.76646 0.56716 0.0
C822 C 0.83636 0.76058 0.57778 0.0
C823 C 0.8479 0.77354 0.61305 0.0
C824 C 0.82968 0.7921 0.63736 0.0
C825 C 0.80038 0.79913 0.62463 0.0
H826 H 0.74106 0.19292 0.09275 0.0
H827 H 0.78041 0.23416 0.99516 0.0
H828 H 0.73806 0.26872 0.9962 0.0
H829 H 0.66288 0.2004 0.06269 0.0
H830 H 0.64995 0.20729 0.11222 0.0
H831 H 0.68274 0.18505 0.10253 0.0
H832 H 0.71436 0.21843 0.15121 0.0
H833 H 0.68167 0.24065 0.16122 0.0
H834 H 0.71593 0.25664 0.14473 0.0
H835 H 0.69252 0.30038 0.0105 0.0
H836 H 0.64867 0.32732 0.03811 0.0
H837 H 0.63868 0.2639 0.12454 0.0
C838 C 0.74086 0.20918 0.07148 0.0
C839 C 0.76412 0.21075 0.04384 0.0
C840 C 0.76285 0.23233 0.0165 0.0
C841 C 0.73882 0.25206 0.01683 0.0
C842 C 0.71622 0.24977 0.04446 0.0
C843 C 0.71707 0.22884 0.07125 0.0
C844 C 0.69058 0.23139 0.09871 0.0
C845 C 0.67034 0.20443 0.09372 0.0
C846 C 0.70128 0.23713 0.14149 0.0
C847 C 0.67499 0.25748 0.0838 0.0
C848 C 0.68992 0.26767 0.0523 0.0
C849 C 0.68042 0.2924 0.03484 0.0
C850 C 0.65536 0.30743 0.05055 0.0
C851 C 0.64019 0.29767 0.08343 0.0
C852 C 0.64987 0.27201 0.09956 0.0
H853 H 0.32086 0.25591 0.66525 0.0
H854 H 0.24235 0.29983 0.62215 0.0
H855 H 0.21006 0.2743 0.66719 0.0
H856 H 0.2801 0.18597 0.69073 0.0
H857 H 0.30392 0.18422 0.73354 0.0
H858 H 0.31863 0.19839 0.68983 0.0
H859 H 0.33423 0.24529 0.73051 0.0
H860 H 0.31905 0.23177 0.77397 0.0
H861 H 0.30595 0.26582 0.75787 0.0
H862 H 0.18953 0.25475 0.72788 0.0
H863 H 0.18203 0.24089 0.79543 0.0
H864 H 0.27414 0.20947 0.79892 0.0
C865 C 0.29663 0.25899 0.66402 0.0
C866 C 0.28391 0.27951 0.64025 0.0
C867 C 0.25233 0.28373 0.63976 0.0
C868 C 0.23389 0.26935 0.66531 0.0
C869 C 0.24748 0.25063 0.69051 0.0
C870 C 0.27814 0.24491 0.68933 0.0
C871 C 0.28823 0.22779 0.72315 0.0
C872 C 0.2983 0.19727 0.70843 0.0
C873 C 0.31331 0.24363 0.7478 0.0
C874 C 0.25907 0.22684 0.74546 0.0
C875 C 0.2356 0.23938 0.72573 0.0
C876 C 0.20747 0.24405 0.74296 0.0
C877 C 0.20343 0.23614 0.78139 0.0
C878 C 0.22753 0.22406 0.80236 0.0
C879 C 0.25533 0.21866 0.78359 0.0
H880 H 0.66879 0.74137 0.38616 0.0
H881 H 0.74545 0.69331 0.42658 0.0
H882 H 0.7798 0.72371 0.39014 0.0
H883 H 0.69124 0.746 0.29273 0.0
H884 H 0.678 0.78218 0.28669 0.0
H885 H 0.66015 0.76056 0.32141 0.0
H886 H 0.67047 0.80005 0.37727 0.0
H887 H 0.68776 0.82223 0.34253 0.0
H888 H 0.70835 0.81339 0.3858 0.0
H889 H 0.80396 0.75304 0.33904 0.0
H890 H 0.81709 0.78393 0.28541 0.0
H891 H 0.72454 0.81383 0.28084 0.0
C892 C 0.69293 0.73804 0.38848 0.0
C893 C 0.7047 0.71541 0.40949 0.0
C894 C 0.73624 0.7111 0.41142 0.0
C895 C 0.7558 0.72807 0.3905 0.0
C896 C 0.74332 0.74944 0.36849 0.0
C897 C 0.71264 0.75496 0.36826 0.0
C898 C 0.70451 0.77774 0.3404 0.0
C899 C 0.68217 0.76589 0.30843 0.0
C900 C 0.69205 0.80497 0.36285 0.0
C901 C 0.73518 0.7833 0.32357 0.0
C902 C 0.75733 0.76683 0.34009 0.0
C903 C 0.78694 0.76654 0.32662 0.0
C904 C 0.79413 0.78386 0.29597 0.0
C905 C 0.77183 0.8013 0.27941 0.0
C906 C 0.74207 0.80102 0.29353 0.0
H907 H 0.83283 0.24488 0.89811 0.0
H908 H 0.77888 0.17018 0.92118 0.0
H909 H 0.74751 0.17751 0.86232 0.0
H910 H 0.76852 0.28792 0.86421 0.0
H911 H 0.79087 0.30456 0.82826 0.0
H912 H 0.80837 0.29368 0.87266 0.0
H913 H 0.84688 0.26283 0.83148 0.0
H914 H 0.82931 0.27332 0.78698 0.0
H915 H 0.83335 0.23557 0.79538 0.0
H916 H 0.72638 0.18977 0.79692 0.0
H917 H 0.71196 0.20935 0.7348 0.0
H918 H 0.77485 0.28063 0.75918 0.0
C919 C 0.81408 0.23042 0.89096 0.0
C920 C 0.80802 0.20706 0.91395 0.0
C921 C 0.7835 0.18839 0.90398 0.0
C922 C 0.76574 0.19231 0.87056 0.0
C923 C 0.77244 0.2154 0.84811 0.0
C924 C 0.79555 0.23456 0.85838 0.0
C925 C 0.79765 0.25788 0.82961 0.0
C926 C 0.79094 0.28778 0.8499 0.0
C927 C 0.82864 0.25735 0.80969 0.0
C928 C 0.77273 0.24832 0.80088 0.0
C929 C 0.75869 0.22365 0.81192 0.0
C930 C 0.73657 0.2096 0.78858 0.0
C931 C 0.7283 0.22122 0.75326 0.0
C932 C 0.74155 0.24718 0.74167 0.0
C933 C 0.76409 0.26078 0.76633 0.0
H934 H 0.21135 0.28941 0.49351 0.0
H935 H 0.28008 0.25205 0.56543 0.0
H936 H 0.25134 0.20616 0.56266 0.0
H937 H 0.14459 0.24863 0.52632 0.0
H938 H 0.12942 0.24481 0.47715 0.0
H939 H 0.15138 0.27628 0.49298 0.0
H940 H 0.18745 0.26582 0.43451 0.0
H941 H 0.16577 0.23438 0.41865 0.0
H942 H 0.20567 0.23106 0.42826 0.0
H943 H 0.21808 0.16253 0.54432 0.0
H944 H 0.18614 0.1251 0.50997 0.0
H945 H 0.14343 0.19085 0.44384 0.0
C946 C 0.21992 0.27187 0.50974 0.0
C947 C 0.24743 0.27457 0.53084 0.0
C948 C 0.25836 0.25087 0.55066 0.0
C949 C 0.24228 0.22465 0.54888 0.0
C950 C 0.21556 0.22251 0.52678 0.0
C951 C 0.20456 0.24559 0.50753 0.0
C952 C 0.17803 0.23694 0.48111 0.0
C953 C 0.14914 0.25259 0.49525 0.0
C954 C 0.18465 0.24236 0.43812 0.0
C955 C 0.17644 0.20506 0.48718 0.0
C956 C 0.19768 0.19721 0.51435 0.0
C957 C 0.2013 0.16853 0.52315 0.0
C958 C 0.18323 0.14735 0.50307 0.0
C959 C 0.16228 0.1548 0.47371 0.0
C960 C 0.15861 0.18423 0.46651 0.0
H961 H 0.23132 0.75666 0.03438 0.0
H962 H 0.28423 0.83073 0.07665 0.0
H963 H 0.32951 0.79974 0.07996 0.0
H964 H 0.27975 0.69809 0.08536 0.0
H965 H 0.27385 0.67357 0.04274 0.0
H966 H 0.24441 0.69839 0.05882 0.0
H967 H 0.24243 0.7175 0.98963 0.0
H968 H 0.27219 0.69363 0.97351 0.0
H969 H 0.27624 0.73198 0.96952 0.0
H970 H 0.37018 0.76556 0.05785 0.0
H971 H 0.40163 0.73057 0.01881 0.0
H972 H 0.32215 0.67878 0.98913 0.0
C973 C 0.25206 0.76573 0.04697 0.0
C974 C 0.25449 0.79569 0.05599 0.0
C975 C 0.28198 0.80758 0.0707 0.0
C976 C 0.30779 0.7901 0.07242 0.0
C977 C 0.30538 0.76084 0.05984 0.0
C978 C 0.27787 0.74854 0.04853 0.0
C979 C 0.28184 0.71836 0.02941 0.0
C980 C 0.26922 0.69576 0.05566 0.0
C981 C 0.26735 0.71525 0.9881 0.0
C982 C 0.31588 0.71678 0.02776 0.0
C983 C 0.32914 0.741 0.04662 0.0
C984 C 0.36009 0.7461 0.04415 0.0
C985 C 0.37773 0.7263 0.02144 0.0
C986 C 0.36436 0.70184 0.001 0.0
C987 C 0.3332 0.69677 0.00529 0.0
loop_
_geom_bond_atom_site_label_1
_geom_bond_atom_site_label_2
_geom_bond_distance
_geom_bond_site_symmetry_2
_ccdc_geom_bond_type
Zn0 O6 1.920 . S
Zn0 O12 1.898 . S
Zn0 O15 1.905 . S
Zn1 O9 1.905 . S
Zn1 O10 1.898 . S
Zn1 O18 1.920 . S
Zn2 O5 2.080 . S
Zn2 O8 2.114 . S
Zn2 O11 2.120 . S
Zn2 O13 2.120 . S
Zn2 O14 2.114 . S
Zn2 O17 2.080 . S
C3 O8 1.153 1_556 S
C3 O9 1.200 . S
C4 O10 1.167 . S
C4 O11 1.299 1_556 S
O5 Zn2 2.080 . S
O5 C19 1.305 . S
O6 Zn0 1.920 . S
O6 C19 1.234 . S
C7 O12 1.167 . S
C7 O13 1.299 . S
O8 Zn2 2.114 . S
O8 C3 1.153 1_554 S
O9 Zn1 1.905 . S
O9 C3 1.200 . S
O10 Zn1 1.898 . S
O10 C4 1.167 . S
O11 Zn2 2.120 . S
O11 C4 1.299 1_554 S
O12 Zn0 1.898 . S
O12 C7 1.167 . S
O13 Zn2 2.120 . S
O13 C7 1.299 . S
O14 Zn2 2.114 . S
O14 C16 1.166 . S
O15 Zn0 1.905 . S
O15 C16 1.182 . S
C16 O14 1.166 . S
C16 O15 1.182 . S
O17 Zn2 2.080 . S
O17 C20 1.305 . S
O18 Zn1 1.920 . S
O18 C20 1.234 1_556 S
C19 O5 1.305 . S
C19 O6 1.234 . S
C20 O17 1.305 . S
C20 O18 1.234 1_554 S
Zn21 O27 1.920 . S
Zn21 O33 1.898 . S
Zn21 O36 1.905 . S
Zn22 O30 1.905 . S
Zn22 O31 1.898 . S
Zn22 O39 1.920 . S
Zn23 O26 2.080 . S
Zn23 O29 2.114 . S
Zn23 O32 2.120 . S
Zn23 O34 2.120 . S
Zn23 O35 2.114 . S
Zn23 O38 2.080 . S
C24 O29 1.166 . S
C24 O30 1.182 . S
C25 O31 1.167 . S
C25 O32 1.299 . S
O26 Zn23 2.080 . S
O26 C40 1.305 . S
O27 Zn21 1.920 . S
O27 C40 1.234 . S
C28 O33 1.167 . S
C28 O34 1.299 . S
O29 Zn23 2.114 . S
O29 C24 1.166 . S
O30 Zn22 1.905 . S
O30 C24 1.182 . S
O31 Zn22 1.898 . S
O31 C25 1.167 . S
O32 Zn23 2.120 . S
O32 C25 1.299 . S
O33 Zn21 1.898 . S
O33 C28 1.167 . S
O34 Zn23 2.120 . S
O34 C28 1.299 . S
O35 Zn23 2.114 . S
O35 C37 1.166 . S
O36 Zn21 1.905 . S
O36 C37 1.182 . S
C37 O35 1.166 . S
C37 O36 1.182 . S
O38 Zn23 2.080 . S
O38 C41 1.305 . S
O39 Zn22 1.920 . S
O39 C41 1.234 . S
C40 O26 1.305 . S
C40 O27 1.234 . S
C41 O38 1.305 . S
C41 O39 1.234 . S
Zn42 O48 1.920 . S
Zn42 O54 1.898 . S
Zn42 O57 1.905 . S
Zn43 O51 1.905 . S
Zn43 O52 1.898 . S
Zn43 O60 1.920 . S
Zn44 O47 2.073 1_554 S
Zn44 O50 2.121 . S
Zn44 O53 2.123 . S
Zn44 O55 2.117 1_554 S
Zn44 O56 2.109 1_554 S
Zn44 O59 2.085 . S
C45 O50 1.166 . S
C45 O51 1.182 . S
C46 O52 1.167 . S
C46 O53 1.299 . S
O47 Zn44 2.073 1_556 S
O47 C61 1.305 . S
O48 Zn42 1.920 . S
O48 C61 1.234 . S
C49 O54 1.167 . S
C49 O55 1.299 . S
O50 Zn44 2.121 . S
O50 C45 1.166 . S
O51 Zn43 1.905 . S
O51 C45 1.182 . S
O52 Zn43 1.898 . S
O52 C46 1.167 . S
O53 Zn44 2.123 . S
O53 C46 1.299 . S
O54 Zn42 1.898 . S
O54 C49 1.167 . S
O55 Zn44 2.117 1_556 S
O55 C49 1.299 . S
O56 Zn44 2.109 1_556 S
O56 C58 1.166 . S
O57 Zn42 1.905 . S
O57 C58 1.182 . S
C58 O56 1.166 . S
C58 O57 1.182 . S
O59 Zn44 2.085 . S
O59 C62 1.305 . S
O60 Zn43 1.920 . S
O60 C62 1.234 . S
C61 O47 1.305 . S
C61 O48 1.234 . S
C62 O59 1.305 . S
C62 O60 1.234 . S
Zn63 O69 1.920 . S
Zn63 O75 1.898 . S
Zn63 O78 1.905 . S
Zn64 O72 1.905 . S
Zn64 O73 1.898 . S
Zn64 O81 1.920 . S
Zn65 O68 2.080 . S
Zn65 O71 2.114 . S
Zn65 O74 2.120 . S
Zn65 O76 2.120 . S
Zn65 O77 2.114 . S
Zn65 O80 2.080 . S
C66 O71 1.166 . S
C66 O72 1.182 . S
C67 O73 1.167 . S
C67 O74 1.299 . S
O68 Zn65 2.080 . S
O68 C82 1.305 . S
O69 Zn63 1.920 . S
O69 C82 1.234 . S
C70 O75 1.167 . S
C70 O76 1.299 . S
O71 Zn65 2.114 . S
O71 C66 1.166 . S
O72 Zn64 1.905 . S
O72 C66 1.182 . S
O73 Zn64 1.898 . S
O73 C67 1.167 . S
O74 Zn65 2.120 . S
O74 C67 1.299 . S
O75 Zn63 1.898 . S
O75 C70 1.167 . S
O76 Zn65 2.120 . S
O76 C70 1.299 . S
O77 Zn65 2.114 . S
O77 C79 1.166 . S
O78 Zn63 1.905 . S
O78 C79 1.182 . S
C79 O77 1.166 . S
C79 O78 1.182 . S
O80 Zn65 2.080 . S
O80 C83 1.305 . S
O81 Zn64 1.920 . S
O81 C83 1.234 . S
C82 O68 1.305 . S
C82 O69 1.234 . S
C83 O80 1.305 . S
C83 O81 1.234 . S
P84 O95 1.490 . S
P84 C98 1.812 . S
P84 C104 1.803 . S
P84 C110 1.819 . S
H85 C99 0.941 . S
H86 C100 0.948 . S
H87 C102 0.940 . S
H88 C103 0.940 . S
H89 C105 0.939 . S
H90 C106 0.942 . S
H91 C108 0.940 . S
H92 C109 0.939 . S
H93 C111 0.941 . S
H94 C115 0.939 . S
O95 P84 1.490 . S
H96 C112 0.939 . S
H97 C114 0.940 . S
C98 P84 1.812 . S
C98 C99 1.389 . S
C98 C103 1.391 . S
C99 H85 0.941 . S
C99 C98 1.389 . S
C99 C100 1.397 . S
C100 H86 0.948 . S
C100 C99 1.397 . S
C100 C101 1.378 . S
C101 C100 1.378 . S
C101 C102 1.378 . S
C102 H87 0.940 . S
C102 C101 1.378 . S
C102 C103 1.396 . S
C103 H88 0.940 . S
C103 C98 1.391 . S
C103 C102 1.396 . S
C104 P84 1.803 . S
C104 C105 1.378 . S
C104 C109 1.400 . S
C105 H89 0.939 . S
C105 C104 1.378 . S
C105 C106 1.361 . S
C106 H90 0.942 . S
C106 C105 1.361 . S
C106 C107 1.369 . S
C107 C106 1.369 . S
C107 C108 1.404 . S
C108 H91 0.940 . S
C108 C107 1.404 . S
C108 C109 1.389 . S
C109 H92 0.939 . S
C109 C104 1.400 . S
C109 C108 1.389 . S
C110 P84 1.819 . S
C110 C111 1.391 . S
C110 C115 1.391 . S
C111 H93 0.941 . S
C111 C110 1.391 . S
C111 C112 1.396 . S
C112 H96 0.939 . S
C112 C111 1.396 . S
C112 C113 1.397 . S
C113 C112 1.397 . S
C113 C114 1.385 . S
C114 H97 0.940 . S
C114 C113 1.385 . S
C114 C115 1.388 . S
C115 H94 0.939 . S
C115 C110 1.391 . S
C115 C114 1.388 . S
P116 O127 1.490 . S
P116 C130 1.812 . S
P116 C136 1.803 . S
P116 C142 1.819 . S
H117 C131 0.941 . S
H118 C132 0.939 . S
H119 C134 0.940 . S
H120 C135 0.940 . S
H121 C137 0.939 . S
H122 C138 0.942 . S
H123 C140 0.940 . S
H124 C141 0.939 . S
H125 C143 0.941 . S
H126 C147 0.939 . S
O127 P116 1.490 . S
H128 C144 0.939 . S
H129 C146 0.940 . S
C130 P116 1.812 . S
C130 C131 1.389 . S
C130 C135 1.391 . S
C131 H117 0.941 . S
C131 C130 1.389 . S
C131 C132 1.397 . S
C132 H118 0.939 . S
C132 C131 1.397 . S
C132 C133 1.378 . S
C133 C132 1.378 . S
C133 C134 1.378 . S
C134 H119 0.940 . S
C134 C133 1.378 . S
C134 C135 1.396 . S
C135 H120 0.940 . S
C135 C130 1.391 . S
C135 C134 1.396 . S
C136 P116 1.803 . S
C136 C137 1.378 . S
C136 C141 1.400 . S
C137 H121 0.939 . S
C137 C136 1.378 . S
C137 C138 1.361 . S
C138 H122 0.942 . S
C138 C137 1.361 . S
C138 C139 1.369 . S
C139 C138 1.369 . S
C139 C140 1.404 . S
C140 H123 0.940 . S
C140 C139 1.404 . S
C140 C141 1.389 . S
C141 H124 0.939 . S
C141 C136 1.400 . S
C141 C140 1.389 . S
C142 P116 1.819 . S
C142 C143 1.391 . S
C142 C147 1.391 . S
C143 H125 0.941 . S
C143 C142 1.391 . S
C143 C144 1.396 . S
C144 H128 0.939 . S
C144 C143 1.396 . S
C144 C145 1.397 . S
C145 C144 1.397 . S
C145 C146 1.385 . S
C146 H129 0.940 . S
C146 C145 1.385 . S
C146 C147 1.388 . S
C147 H126 0.939 . S
C147 C142 1.391 . S
C147 C146 1.388 . S
P148 O159 1.490 . S
P148 C162 1.812 . S
P148 C168 1.803 . S
P148 C174 1.819 . S
H149 C163 0.941 . S
H150 C164 0.939 . S
H151 C166 0.940 . S
H152 C167 0.940 . S
H153 C169 0.939 . S
H154 C170 0.942 . S
H155 C172 0.940 . S
H156 C173 0.939 . S
H157 C175 0.941 . S
H158 C179 0.939 . S
O159 P148 1.490 . S
H160 C176 0.939 . S
H161 C178 0.940 . S
C162 P148 1.812 . S
C162 C163 1.389 . S
C162 C167 1.391 . S
C163 H149 0.941 . S
C163 C162 1.389 . S
C163 C164 1.397 . S
C164 H150 0.939 . S
C164 C163 1.397 . S
C164 C165 1.378 . S
C165 C164 1.378 . S
C165 C166 1.378 . S
C166 H151 0.940 . S
C166 C165 1.378 . S
C166 C167 1.396 . S
C167 H152 0.940 . S
C167 C162 1.391 . S
C167 C166 1.396 . S
C168 P148 1.803 . S
C168 C169 1.378 . S
C168 C173 1.400 . S
C169 H153 0.939 . S
C169 C168 1.378 . S
C169 C170 1.361 . S
C170 H154 0.942 . S
C170 C169 1.361 . S
C170 C171 1.369 . S
C171 C170 1.369 . S
C171 C172 1.404 . S
C172 H155 0.940 . S
C172 C171 1.404 . S
C172 C173 1.389 . S
C173 H156 0.939 . S
C173 C168 1.400 . S
C173 C172 1.389 . S
C174 P148 1.819 . S
C174 C175 1.391 . S
C174 C179 1.391 . S
C175 H157 0.941 . S
C175 C174 1.391 . S
C175 C176 1.396 . S
C176 H160 0.939 . S
C176 C175 1.396 . S
C176 C177 1.397 . S
C177 C176 1.397 . S
C177 C178 1.385 . S
C178 H161 0.940 . S
C178 C177 1.385 . S
C178 C179 1.388 . S
C179 H158 0.939 . S
C179 C174 1.391 . S
C179 C178 1.388 . S
P180 O191 1.490 . S
P180 C194 1.812 . S
P180 C200 1.803 . S
P180 C206 1.819 . S
H181 C195 0.941 . S
H182 C196 0.939 . S
H183 C198 0.940 . S
H184 C199 0.940 . S
H185 C201 0.939 . S
H186 C202 0.942 . S
H187 C204 0.940 . S
H188 C205 0.939 . S
H189 C207 0.941 . S
H190 C211 0.939 . S
O191 P180 1.490 . S
H192 C208 0.939 . S
H193 C210 0.940 . S
C194 P180 1.812 . S
C194 C195 1.389 . S
C194 C199 1.391 . S
C195 H181 0.941 . S
C195 C194 1.389 . S
C195 C196 1.397 . S
C196 H182 0.939 . S
C196 C195 1.397 . S
C196 C197 1.378 . S
C197 C196 1.378 . S
C197 C198 1.378 . S
C198 H183 0.940 . S
C198 C197 1.378 . S
C198 C199 1.396 . S
C199 H184 0.940 . S
C199 C194 1.391 . S
C199 C198 1.396 . S
C200 P180 1.803 . S
C200 C201 1.378 . S
C200 C205 1.400 . S
C201 H185 0.939 . S
C201 C200 1.378 . S
C201 C202 1.361 . S
C202 H186 0.942 . S
C202 C201 1.361 . S
C202 C203 1.369 . S
C203 C202 1.369 . S
C203 C204 1.404 . S
C204 H187 0.940 . S
C204 C203 1.404 . S
C204 C205 1.389 . S
C205 H188 0.939 . S
C205 C200 1.400 . S
C205 C204 1.389 . S
C206 P180 1.819 . S
C206 C207 1.391 . S
C206 C211 1.391 . S
C207 H189 0.941 . S
C207 C206 1.391 . S
C207 C208 1.396 . S
C208 H192 0.939 . S
C208 C207 1.396 . S
C208 C209 1.397 . S
C209 C208 1.397 . S
C209 C210 1.385 . S
C210 H193 0.940 . S
C210 C209 1.385 . S
C210 C211 1.388 . S
C211 H190 0.939 . S
C211 C206 1.391 . S
C211 C210 1.388 . S
P212 O223 1.490 . S
P212 C226 1.812 . S
P212 C232 1.803 . S
P212 C238 1.819 . S
H213 C227 0.941 . S
H214 C228 0.939 . S
H215 C230 0.940 . S
H216 C231 0.940 . S
H217 C233 0.939 . S
H218 C234 0.942 . S
H219 C236 0.940 . S
H220 C237 0.939 . S
H221 C239 0.941 . S
H222 C243 0.939 . S
O223 P212 1.490 . S
H224 C240 0.939 . S
H225 C242 0.940 . S
C226 P212 1.812 . S
C226 C227 1.389 . S
C226 C231 1.391 . S
C227 H213 0.941 . S
C227 C226 1.389 . S
C227 C228 1.397 . S
C228 H214 0.939 . S
C228 C227 1.397 . S
C228 C229 1.378 . S
C229 C228 1.378 . S
C229 C230 1.378 . S
C230 H215 0.940 . S
C230 C229 1.378 . S
C230 C231 1.396 . S
C231 H216 0.940 . S
C231 C226 1.391 . S
C231 C230 1.396 . S
C232 P212 1.803 . S
C232 C233 1.378 . S
C232 C237 1.400 . S
C233 H217 0.939 . S
C233 C232 1.378 . S
C233 C234 1.361 . S
C234 H218 0.942 . S
C234 C233 1.361 . S
C234 C235 1.369 . S
C235 C234 1.369 . S
C235 C236 1.404 . S
C236 H219 0.940 . S
C236 C235 1.404 . S
C236 C237 1.389 . S
C237 H220 0.939 . S
C237 C232 1.400 . S
C237 C236 1.389 . S
C238 P212 1.819 . S
C238 C239 1.391 . S
C238 C243 1.391 . S
C239 H221 0.941 . S
C239 C238 1.391 . S
C239 C240 1.396 . S
C240 H224 0.939 . S
C240 C239 1.396 . S
C240 C241 1.397 . S
C241 C240 1.397 . S
C241 C242 1.385 . S
C242 H225 0.940 . S
C242 C241 1.385 . S
C242 C243 1.388 . S
C243 H222 0.939 . S
C243 C238 1.391 . S
C243 C242 1.388 . S
P244 O255 1.490 . S
P244 C258 1.812 . S
P244 C264 1.803 . S
P244 C270 1.819 . S
H245 C259 0.941 . S
H246 C260 0.939 . S
H247 C262 0.940 . S
H248 C263 0.940 . S
H249 C265 0.939 . S
H250 C266 0.942 . S
H251 C268 0.940 . S
H252 C269 0.939 . S
H253 C271 0.941 1_554 S
H254 C275 0.939 . S
O255 P244 1.490 . S
H256 C272 0.939 1_554 S
H257 C274 0.940 . S
C258 P244 1.812 . S
C258 C259 1.389 . S
C258 C263 1.391 . S
C259 H245 0.941 . S
C259 C258 1.389 . S
C259 C260 1.397 . S
C260 H246 0.939 . S
C260 C259 1.397 . S
C260 C261 1.378 . S
C261 C260 1.378 . S
C261 C262 1.378 . S
C262 H247 0.940 . S
C262 C261 1.378 . S
C262 C263 1.396 . S
C263 H248 0.940 . S
C263 C258 1.391 . S
C263 C262 1.396 . S
C264 P244 1.803 . S
C264 C265 1.378 . S
C264 C269 1.400 . S
C265 H249 0.939 . S
C265 C264 1.378 . S
C265 C266 1.361 . S
C266 H250 0.942 . S
C266 C265 1.361 . S
C266 C267 1.369 . S
C267 C266 1.369 . S
C267 C268 1.404 . S
C268 H251 0.940 . S
C268 C267 1.404 . S
C268 C269 1.389 . S
C269 H252 0.939 . S
C269 C264 1.400 . S
C269 C268 1.389 . S
C270 P244 1.819 . S
C270 C271 1.391 . S
C270 C275 1.391 . S
C271 H253 0.941 1_556 S
C271 C270 1.391 . S
C271 C272 1.396 . S
C272 H256 0.939 1_556 S
C272 C271 1.396 . S
C272 C273 1.397 . S
C273 C272 1.397 . S
C273 C274 1.385 . S
C274 H257 0.940 . S
C274 C273 1.385 . S
C274 C275 1.388 . S
C275 H254 0.939 . S
C275 C270 1.391 . S
C275 C274 1.388 . S
P276 O287 1.490 . S
P276 C290 1.812 . S
P276 C296 1.803 . S
P276 C302 1.819 . S
H277 C291 0.941 . S
H278 C292 0.939 . S
H279 C294 0.940 . S
H280 C295 0.940 . S
H281 C297 0.939 . S
H282 C298 0.942 . S
H283 C300 0.940 . S
H284 C301 0.939 . S
H285 C303 0.941 . S
H286 C307 0.939 . S
O287 P276 1.490 . S
H288 C304 0.939 . S
H289 C306 0.940 . S
C290 P276 1.812 . S
C290 C291 1.389 . S
C290 C295 1.391 . S
C291 H277 0.941 . S
C291 C290 1.389 . S
C291 C292 1.397 . S
C292 H278 0.939 . S
C292 C291 1.397 . S
C292 C293 1.378 . S
C293 C292 1.378 . S
C293 C294 1.378 . S
C294 H279 0.940 . S
C294 C293 1.378 . S
C294 C295 1.396 . S
C295 H280 0.940 . S
C295 C290 1.391 . S
C295 C294 1.396 . S
C296 P276 1.803 . S
C296 C297 1.378 . S
C296 C301 1.400 . S
C297 H281 0.939 . S
C297 C296 1.378 . S
C297 C298 1.361 . S
C298 H282 0.942 . S
C298 C297 1.361 . S
C298 C299 1.369 . S
C299 C298 1.369 . S
C299 C300 1.404 . S
C300 H283 0.940 . S
C300 C299 1.404 . S
C300 C301 1.389 . S
C301 H284 0.939 . S
C301 C296 1.400 . S
C301 C300 1.389 . S
C302 P276 1.819 . S
C302 C303 1.391 . S
C302 C307 1.391 . S
C303 H285 0.941 . S
C303 C302 1.391 . S
C303 C304 1.396 . S
C304 H288 0.939 . S
C304 C303 1.396 . S
C304 C305 1.397 . S
C305 C304 1.397 . S
C305 C306 1.385 . S
C306 H289 0.940 . S
C306 C305 1.385 . S
C306 C307 1.388 . S
C307 H286 0.939 . S
C307 C302 1.391 . S
C307 C306 1.388 . S
P308 O319 1.490 . S
P308 C322 1.812 . S
P308 C328 1.803 . S
P308 C334 1.819 . S
H309 C323 0.941 . S
H310 C324 0.939 . S
H311 C326 0.940 . S
H312 C327 0.940 . S
H313 C329 0.939 . S
H314 C330 0.942 . S
H315 C332 0.940 . S
H316 C333 0.939 . S
H317 C335 0.941 . S
H318 C339 0.939 . S
O319 P308 1.490 . S
H320 C336 0.939 . S
H321 C338 0.940 1_455 S
C322 P308 1.812 . S
C322 C323 1.389 . S
C322 C327 1.391 . S
C323 H309 0.941 . S
C323 C322 1.389 . S
C323 C324 1.397 . S
C324 H310 0.939 . S
C324 C323 1.397 . S
C324 C325 1.378 . S
C325 C324 1.378 . S
C325 C326 1.378 . S
C326 H311 0.940 . S
C326 C325 1.378 . S
C326 C327 1.396 . S
C327 H312 0.940 . S
C327 C322 1.391 . S
C327 C326 1.396 . S
C328 P308 1.803 . S
C328 C329 1.378 . S
C328 C333 1.400 . S
C329 H313 0.939 . S
C329 C328 1.378 . S
C329 C330 1.361 . S
C330 H314 0.942 . S
C330 C329 1.361 . S
C330 C331 1.369 . S
C331 C330 1.369 . S
C331 C332 1.404 . S
C332 H315 0.940 . S
C332 C331 1.404 . S
C332 C333 1.389 . S
C333 H316 0.939 . S
C333 C328 1.400 . S
C333 C332 1.389 . S
C334 P308 1.819 . S
C334 C335 1.391 . S
C334 C339 1.391 . S
C335 H317 0.941 . S
C335 C334 1.391 . S
C335 C336 1.396 . S
C336 H320 0.939 . S
C336 C335 1.396 . S
C336 C337 1.397 1_655 S
C337 C336 1.397 1_455 S
C337 C338 1.385 1_455 S
C338 H321 0.940 1_655 S
C338 C337 1.385 1_655 S
C338 C339 1.388 . S
C339 H318 0.939 . S
C339 C334 1.391 . S
C339 C338 1.388 . S
H340 C352 0.930 . S
H341 C354 0.930 . S
H342 C355 0.930 . S
H343 C359 0.959 . S
H344 C359 0.959 1_545 S
H345 C359 0.961 . S
H346 C360 0.960 . S
H347 C360 0.961 . S
H348 C360 0.959 . S
H349 C363 0.929 . S
H350 C364 0.931 . S
H351 C366 0.930 . S
C352 H340 0.930 . S
C352 C353 1.399 . S
C352 C357 1.399 . S
C353 C352 1.399 . S
C353 C354 1.376 . S
C354 H341 0.930 . S
C354 C353 1.376 . S
C354 C355 1.388 . S
C355 H342 0.930 . S
C355 C354 1.388 . S
C355 C356 1.390 . S
C356 C355 1.390 . S
C356 C357 1.394 . S
C356 C362 1.465 . S
C357 C352 1.399 . S
C357 C356 1.394 . S
C357 C358 1.516 . S
C358 C357 1.516 . S
C358 C359 1.502 . S
C358 C360 1.561 . S
C358 C361 1.526 . S
C359 H343 0.959 . S
C359 H344 0.959 1_565 S
C359 H345 0.961 . S
C359 C358 1.502 . S
C360 H346 0.960 . S
C360 H347 0.961 . S
C360 H348 0.959 . S
C360 C358 1.561 . S
C361 C358 1.526 . S
C361 C362 1.396 . S
C361 C366 1.390 1_565 S
C362 C356 1.465 . S
C362 C361 1.396 . S
C362 C363 1.399 . S
C363 H349 0.929 . S
C363 C362 1.399 . S
C363 C364 1.385 . S
C364 H350 0.931 . S
C364 C363 1.385 . S
C364 C365 1.389 1_565 S
C365 C364 1.389 1_545 S
C365 C366 1.387 . S
C366 H351 0.930 . S
C366 C361 1.390 1_545 S
C366 C365 1.387 . S
H367 C379 0.930 . S
H368 C381 0.930 . S
H369 C382 0.930 . S
H370 C386 0.959 . S
H371 C386 0.959 . S
H372 C386 0.961 . S
H373 C387 0.960 . S
H374 C387 0.961 . S
H375 C387 0.959 . S
H376 C390 0.929 . S
H377 C391 0.931 . S
H378 C393 0.930 . S
C379 H367 0.930 . S
C379 C380 1.399 . S
C379 C384 1.399 . S
C380 C379 1.399 . S
C380 C381 1.376 . S
C381 H368 0.930 . S
C381 C380 1.376 . S
C381 C382 1.388 . S
C382 H369 0.930 . S
C382 C381 1.388 . S
C382 C383 1.390 . S
C383 C382 1.390 . S
C383 C384 1.394 . S
C383 C389 1.465 . S
C384 C379 1.399 . S
C384 C383 1.394 . S
C384 C385 1.516 . S
C385 C384 1.516 . S
C385 C386 1.502 . S
C385 C387 1.561 . S
C385 C388 1.526 . S
C386 H370 0.959 . S
C386 H371 0.959 . S
C386 H372 0.961 . S
C386 C385 1.502 . S
C387 H373 0.960 . S
C387 H374 0.961 . S
C387 H375 0.959 . S
C387 C385 1.561 . S
C388 C385 1.526 . S
C388 C389 1.396 . S
C388 C393 1.390 . S
C389 C383 1.465 . S
C389 C388 1.396 . S
C389 C390 1.399 . S
C390 H376 0.929 . S
C390 C389 1.399 . S
C390 C391 1.385 . S
C391 H377 0.931 . S
C391 C390 1.385 . S
C391 C392 1.389 . S
C392 C391 1.389 . S
C392 C393 1.387 . S
C393 H378 0.930 . S
C393 C388 1.390 . S
C393 C392 1.387 . S
H394 C406 0.930 1_556 S
H395 C408 0.930 . S
H396 C409 0.930 . S
H397 C413 0.959 . S
H398 C413 0.959 . S
H399 C413 0.961 1_556 S
H400 C414 0.960 . S
H401 C414 0.961 1_565 S
H402 C414 0.959 1_565 S
H403 C417 0.929 1_545 S
H404 C418 0.931 . S
H405 C420 0.930 . S
C406 H394 0.930 1_554 S
C406 C407 1.399 . S
C406 C411 1.399 . S
C407 C406 1.399 . S
C407 C408 1.376 . S
C408 H395 0.930 . S
C408 C407 1.376 . S
C408 C409 1.388 . S
C409 H396 0.930 . S
C409 C408 1.388 . S
C409 C410 1.390 . S
C410 C409 1.390 . S
C410 C411 1.394 . S
C410 C416 1.465 . S
C411 C406 1.399 . S
C411 C410 1.394 . S
C411 C412 1.516 . S
C412 C411 1.516 . S
C412 C413 1.502 . S
C412 C414 1.561 1_554 S
C412 C415 1.526 . S
C413 H397 0.959 . S
C413 H398 0.959 . S
C413 H399 0.961 1_554 S
C413 C412 1.502 . S
C414 H400 0.960 . S
C414 H401 0.961 1_545 S
C414 H402 0.959 1_545 S
C414 C412 1.561 1_556 S
C415 C412 1.526 . S
C415 C416 1.396 . S
C415 C420 1.390 1_545 S
C416 C410 1.465 . S
C416 C415 1.396 . S
C416 C417 1.399 1_545 S
C417 H403 0.929 1_565 S
C417 C416 1.399 1_565 S
C417 C418 1.385 . S
C418 H404 0.931 . S
C418 C417 1.385 . S
C418 C419 1.389 . S
C419 C418 1.389 . S
C419 C420 1.387 . S
C420 H405 0.930 . S
C420 C415 1.390 1_565 S
C420 C419 1.387 . S
H421 C433 0.930 . S
H422 C435 0.930 . S
H423 C436 0.930 . S
H424 C440 0.959 . S
H425 C440 0.959 . S
H426 C440 0.961 . S
H427 C441 0.960 . S
H428 C441 0.961 . S
H429 C441 0.959 . S
H430 C444 0.929 . S
H431 C445 0.931 . S
H432 C447 0.930 . S
C433 H421 0.930 . S
C433 C434 1.399 . S
C433 C438 1.399 . S
C434 C433 1.399 . S
C434 C435 1.376 . S
C435 H422 0.930 . S
C435 C434 1.376 . S
C435 C436 1.388 . S
C436 H423 0.930 . S
C436 C435 1.388 . S
C436 C437 1.390 . S
C437 C436 1.390 . S
C437 C438 1.394 . S
C437 C443 1.465 . S
C438 C433 1.399 . S
C438 C437 1.394 . S
C438 C439 1.516 . S
C439 C438 1.516 . S
C439 C440 1.502 . S
C439 C441 1.561 . S
C439 C442 1.526 . S
C440 H424 0.959 . S
C440 H425 0.959 . S
C440 H426 0.961 . S
C440 C439 1.502 . S
C441 H427 0.960 . S
C441 H428 0.961 . S
C441 H429 0.959 . S
C441 C439 1.561 . S
C442 C439 1.526 . S
C442 C443 1.396 . S
C442 C447 1.390 . S
C443 C437 1.465 . S
C443 C442 1.396 . S
C443 C444 1.399 . S
C444 H430 0.929 . S
C444 C443 1.399 . S
C444 C445 1.385 . S
C445 H431 0.931 . S
C445 C444 1.385 . S
C445 C446 1.389 . S
C446 C445 1.389 . S
C446 C447 1.387 . S
C447 H432 0.930 . S
C447 C442 1.390 . S
C447 C446 1.387 . S
H448 C460 0.930 . S
H449 C462 0.930 . S
H450 C463 0.930 . S
H451 C467 0.959 . S
H452 C467 0.959 . S
H453 C467 0.961 . S
H454 C468 0.960 . S
H455 C468 0.961 . S
H456 C468 0.959 . S
H457 C471 0.929 . S
H458 C472 0.931 . S
H459 C474 0.930 . S
C460 H448 0.930 . S
C460 C461 1.399 . S
C460 C465 1.399 . S
C461 C460 1.399 . S
C461 C462 1.376 . S
C462 H449 0.930 . S
C462 C461 1.376 . S
C462 C463 1.388 . S
C463 H450 0.930 . S
C463 C462 1.388 . S
C463 C464 1.390 . S
C464 C463 1.390 . S
C464 C465 1.394 . S
C464 C470 1.465 . S
C465 C460 1.399 . S
C465 C464 1.394 . S
C465 C466 1.516 . S
C466 C465 1.516 . S
C466 C467 1.502 . S
C466 C468 1.561 . S
C466 C469 1.526 . S
C467 H451 0.959 . S
C467 H452 0.959 . S
C467 H453 0.961 . S
C467 C466 1.502 . S
C468 H454 0.960 . S
C468 H455 0.961 . S
C468 H456 0.959 . S
C468 C466 1.561 . S
C469 C466 1.526 . S
C469 C470 1.396 . S
C469 C474 1.390 . S
C470 C464 1.465 . S
C470 C469 1.396 . S
C470 C471 1.399 . S
C471 H457 0.929 . S
C471 C470 1.399 . S
C471 C472 1.385 . S
C472 H458 0.931 . S
C472 C471 1.385 . S
C472 C473 1.389 . S
C473 C472 1.389 . S
C473 C474 1.387 . S
C474 H459 0.930 . S
C474 C469 1.390 . S
C474 C473 1.387 . S
H475 C487 0.930 1_554 S
H476 C489 0.930 . S
H477 C490 0.930 . S
H478 C494 0.959 . S
H479 C494 0.959 1_455 S
H480 C494 0.961 . S
H481 C495 0.960 1_655 S
H482 C495 0.961 . S
H483 C495 0.959 . S
H484 C498 0.929 . S
H485 C499 0.931 . S
H486 C501 0.930 1_554 S
C487 H475 0.930 1_556 S
C487 C488 1.399 . S
C487 C492 1.399 . S
C488 C487 1.399 . S
C488 C489 1.376 . S
C489 H476 0.930 . S
C489 C488 1.376 . S
C489 C490 1.388 . S
C490 H477 0.930 . S
C490 C489 1.388 . S
C490 C491 1.390 . S
C491 C490 1.390 . S
C491 C492 1.394 . S
C491 C497 1.465 1_655 S
C492 C487 1.399 . S
C492 C491 1.394 . S
C492 C493 1.516 1_656 S
C493 C492 1.516 1_454 S
C493 C494 1.502 1_455 S
C493 C495 1.561 . S
C493 C496 1.526 1_554 S
C494 H478 0.959 . S
C494 H479 0.959 1_655 S
C494 H480 0.961 . S
C494 C493 1.502 1_655 S
C495 H481 0.960 1_455 S
C495 H482 0.961 . S
C495 H483 0.959 . S
C495 C493 1.561 . S
C496 C493 1.526 1_556 S
C496 C497 1.396 . S
C496 C501 1.390 . S
C497 C491 1.465 1_455 S
C497 C496 1.396 . S
C497 C498 1.399 . S
C498 H484 0.929 . S
C498 C497 1.399 . S
C498 C499 1.385 . S
C499 H485 0.931 . S
C499 C498 1.385 . S
C499 C500 1.389 . S
C500 C499 1.389 . S
C500 C501 1.387 . S
C501 H486 0.930 1_556 S
C501 C496 1.390 . S
C501 C500 1.387 . S
H502 C514 0.930 . S
H503 C516 0.930 . S
H504 C517 0.930 . S
H505 C521 0.959 . S
H506 C521 0.959 . S
H507 C521 0.961 . S
H508 C522 0.960 . S
H509 C522 0.961 . S
H510 C522 0.959 . S
H511 C525 0.929 . S
H512 C526 0.931 . S
H513 C528 0.930 . S
C514 H502 0.930 . S
C514 C515 1.399 . S
C514 C519 1.399 . S
C515 C514 1.399 . S
C515 C516 1.376 . S
C516 H503 0.930 . S
C516 C515 1.376 . S
C516 C517 1.388 . S
C517 H504 0.930 . S
C517 C516 1.388 . S
C517 C518 1.390 . S
C518 C517 1.390 . S
C518 C519 1.394 . S
C518 C524 1.465 . S
C519 C514 1.399 . S
C519 C518 1.394 . S
C519 C520 1.516 . S
C520 C519 1.516 . S
C520 C521 1.502 . S
C520 C522 1.561 . S
C520 C523 1.526 . S
C521 H505 0.959 . S
C521 H506 0.959 . S
C521 H507 0.961 . S
C521 C520 1.502 . S
C522 H508 0.960 . S
C522 H509 0.961 . S
C522 H510 0.959 . S
C522 C520 1.561 . S
C523 C520 1.526 . S
C523 C524 1.396 . S
C523 C528 1.390 . S
C524 C518 1.465 . S
C524 C523 1.396 . S
C524 C525 1.399 . S
C525 H511 0.929 . S
C525 C524 1.399 . S
C525 C526 1.385 . S
C526 H512 0.931 . S
C526 C525 1.385 . S
C526 C527 1.389 . S
C527 C526 1.389 . S
C527 C528 1.387 . S
C528 H513 0.930 . S
C528 C523 1.390 . S
C528 C527 1.387 . S
H529 C541 0.930 . S
H530 C543 0.930 . S
H531 C544 0.930 . S
H532 C548 0.959 . S
H533 C548 0.959 . S
H534 C548 0.961 . S
H535 C549 0.960 . S
H536 C549 0.961 . S
H537 C549 0.959 . S
H538 C552 0.929 . S
H539 C553 0.931 . S
H540 C555 0.930 . S
C541 H529 0.930 . S
C541 C542 1.399 . S
C541 C546 1.399 . S
C542 C541 1.399 . S
C542 C543 1.376 . S
C543 H530 0.930 . S
C543 C542 1.376 . S
C543 C544 1.388 . S
C544 H531 0.930 . S
C544 C543 1.388 . S
C544 C545 1.390 . S
C545 C544 1.390 . S
C545 C546 1.394 . S
C545 C551 1.465 . S
C546 C541 1.399 . S
C546 C545 1.394 . S
C546 C547 1.516 . S
C547 C546 1.516 . S
C547 C548 1.502 . S
C547 C549 1.561 . S
C547 C550 1.526 . S
C548 H532 0.959 . S
C548 H533 0.959 . S
C548 H534 0.961 . S
C548 C547 1.502 . S
C549 H535 0.960 . S
C549 H536 0.961 . S
C549 H537 0.959 . S
C549 C547 1.561 . S
C550 C547 1.526 . S
C550 C551 1.396 . S
C550 C555 1.390 . S
C551 C545 1.465 . S
C551 C550 1.396 . S
C551 C552 1.399 . S
C552 H538 0.929 . S
C552 C551 1.399 . S
C552 C553 1.385 . S
C553 H539 0.931 . S
C553 C552 1.385 . S
C553 C554 1.389 . S
C554 C553 1.389 . S
C554 C555 1.387 . S
C555 H540 0.930 . S
C555 C550 1.390 . S
C555 C554 1.387 . S
H556 C568 0.930 . S
H557 C570 0.930 . S
H558 C571 0.930 . S
H559 C575 0.959 . S
H560 C575 0.959 . S
H561 C575 0.961 . S
H562 C576 0.960 . S
H563 C576 0.961 . S
H564 C576 0.959 . S
H565 C579 0.929 . S
H566 C580 0.931 . S
H567 C582 0.930 . S
C568 H556 0.930 . S
C568 C569 1.399 . S
C568 C573 1.399 . S
C569 C568 1.399 . S
C569 C570 1.376 . S
C570 H557 0.930 . S
C570 C569 1.376 . S
C570 C571 1.388 . S
C571 H558 0.930 . S
C571 C570 1.388 . S
C571 C572 1.390 . S
C572 C571 1.390 . S
C572 C573 1.394 . S
C572 C578 1.465 1_545 S
C573 C568 1.399 . S
C573 C572 1.394 . S
C573 C574 1.516 . S
C574 C573 1.516 . S
C574 C575 1.502 . S
C574 C576 1.561 . S
C574 C577 1.526 1_545 S
C575 H559 0.959 . S
C575 H560 0.959 . S
C575 H561 0.961 . S
C575 C574 1.502 . S
C576 H562 0.960 . S
C576 H563 0.961 . S
C576 H564 0.959 . S
C576 C574 1.561 . S
C577 C574 1.526 1_565 S
C577 C578 1.396 . S
C577 C582 1.390 . S
C578 C572 1.465 1_565 S
C578 C577 1.396 . S
C578 C579 1.399 . S
C579 H565 0.929 . S
C579 C578 1.399 . S
C579 C580 1.385 . S
C580 H566 0.931 . S
C580 C579 1.385 . S
C580 C581 1.389 . S
C581 C580 1.389 . S
C581 C582 1.387 . S
C582 H567 0.930 . S
C582 C577 1.390 . S
C582 C581 1.387 . S
H583 C595 0.930 . S
H584 C597 0.930 . S
H585 C598 0.930 . S
H586 C602 0.959 . S
H587 C602 0.959 . S
H588 C602 0.961 . S
H589 C603 0.960 . S
H590 C603 0.961 . S
H591 C603 0.959 . S
H592 C606 0.929 . S
H593 C607 0.931 . S
H594 C609 0.930 . S
C595 H583 0.930 . S
C595 C596 1.399 . S
C595 C600 1.399 . S
C596 C595 1.399 . S
C596 C597 1.376 . S
C597 H584 0.930 . S
C597 C596 1.376 . S
C597 C598 1.388 . S
C598 H585 0.930 . S
C598 C597 1.388 . S
C598 C599 1.390 . S
C599 C598 1.390 . S
C599 C600 1.394 . S
C599 C605 1.465 . S
C600 C595 1.399 . S
C600 C599 1.394 . S
C600 C601 1.516 . S
C601 C600 1.516 . S
C601 C602 1.502 . S
C601 C603 1.561 . S
C601 C604 1.526 . S
C602 H586 0.959 . S
C602 H587 0.959 . S
C602 H588 0.961 . S
C602 C601 1.502 . S
C603 H589 0.960 . S
C603 H590 0.961 . S
C603 H591 0.959 . S
C603 C601 1.561 . S
C604 C601 1.526 . S
C604 C605 1.396 . S
C604 C609 1.390 . S
C605 C599 1.465 . S
C605 C604 1.396 . S
C605 C606 1.399 . S
C606 H592 0.929 . S
C606 C605 1.399 . S
C606 C607 1.385 . S
C607 H593 0.931 . S
C607 C606 1.385 . S
C607 C608 1.389 . S
C608 C607 1.389 . S
C608 C609 1.387 . S
C609 H594 0.930 . S
C609 C604 1.390 . S
C609 C608 1.387 . S
H610 C622 0.930 . S
H611 C624 0.930 . S
H612 C625 0.930 . S
H613 C629 0.959 1_556 S
H614 C629 0.959 . S
H615 C629 0.961 . S
H616 C630 0.960 . S
H617 C630 0.961 . S
H618 C630 0.959 . S
H619 C633 0.929 . S
H620 C634 0.931 . S
H621 C636 0.930 1_554 S
C622 H610 0.930 . S
C622 C623 1.399 . S
C622 C627 1.399 . S
C623 C622 1.399 . S
C623 C624 1.376 1_554 S
C624 H611 0.930 . S
C624 C623 1.376 1_556 S
C624 C625 1.388 . S
C625 H612 0.930 . S
C625 C624 1.388 . S
C625 C626 1.390 . S
C626 C625 1.390 . S
C626 C627 1.394 1_556 S
C626 C632 1.465 1_565 S
C627 C622 1.399 . S
C627 C626 1.394 1_554 S
C627 C628 1.516 1_565 S
C628 C627 1.516 1_545 S
C628 C629 1.502 . S
C628 C630 1.561 . S
C628 C631 1.526 1_554 S
C629 H613 0.959 1_554 S
C629 H614 0.959 . S
C629 H615 0.961 . S
C629 C628 1.502 . S
C630 H616 0.960 . S
C630 H617 0.961 . S
C630 H618 0.959 . S
C630 C628 1.561 . S
C631 C628 1.526 1_556 S
C631 C632 1.396 . S
C631 C636 1.390 . S
C632 C626 1.465 1_545 S
C632 C631 1.396 . S
C632 C633 1.399 . S
C633 H619 0.929 . S
C633 C632 1.399 . S
C633 C634 1.385 . S
C634 H620 0.931 . S
C634 C633 1.385 . S
C634 C635 1.389 . S
C635 C634 1.389 . S
C635 C636 1.387 . S
C636 H621 0.930 1_556 S
C636 C631 1.390 . S
C636 C635 1.387 . S
H637 C649 0.930 . S
H638 C651 0.930 . S
H639 C652 0.930 . S
H640 C656 0.959 . S
H641 C656 0.959 . S
H642 C656 0.961 . S
H643 C657 0.960 . S
H644 C657 0.961 . S
H645 C657 0.959 . S
H646 C660 0.929 . S
H647 C661 0.931 . S
H648 C663 0.930 . S
C649 H637 0.930 . S
C649 C650 1.399 . S
C649 C654 1.399 . S
C650 C649 1.399 . S
C650 C651 1.376 . S
C651 H638 0.930 . S
C651 C650 1.376 . S
C651 C652 1.388 . S
C652 H639 0.930 . S
C652 C651 1.388 . S
C652 C653 1.390 . S
C653 C652 1.390 . S
C653 C654 1.394 . S
C653 C659 1.465 . S
C654 C649 1.399 . S
C654 C653 1.394 . S
C654 C655 1.516 . S
C655 C654 1.516 . S
C655 C656 1.502 . S
C655 C657 1.561 . S
C655 C658 1.526 . S
C656 H640 0.959 . S
C656 H641 0.959 . S
C656 H642 0.961 . S
C656 C655 1.502 . S
C657 H643 0.960 . S
C657 H644 0.961 . S
C657 H645 0.959 . S
C657 C655 1.561 . S
C658 C655 1.526 . S
C658 C659 1.396 . S
C658 C663 1.390 . S
C659 C653 1.465 . S
C659 C658 1.396 . S
C659 C660 1.399 . S
C660 H646 0.929 . S
C660 C659 1.399 . S
C660 C661 1.385 . S
C661 H647 0.931 . S
C661 C660 1.385 . S
C661 C662 1.389 . S
C662 C661 1.389 . S
C662 C663 1.387 . S
C663 H648 0.930 . S
C663 C658 1.390 . S
C663 C662 1.387 . S
H664 C676 0.930 . S
H665 C678 0.930 . S
H666 C679 0.930 . S
H667 C683 0.959 . S
H668 C683 0.959 . S
H669 C683 0.961 . S
H670 C684 0.960 . S
H671 C684 0.961 . S
H672 C684 0.959 . S
H673 C687 0.929 . S
H674 C688 0.931 . S
H675 C690 0.930 . S
C676 H664 0.930 . S
C676 C677 1.399 . S
C676 C681 1.399 . S
C677 C676 1.399 . S
C677 C678 1.376 . S
C678 H665 0.930 . S
C678 C677 1.376 . S
C678 C679 1.388 . S
C679 H666 0.930 . S
C679 C678 1.388 . S
C679 C680 1.390 . S
C680 C679 1.390 . S
C680 C681 1.394 . S
C680 C686 1.465 . S
C681 C676 1.399 . S
C681 C680 1.394 . S
C681 C682 1.516 . S
C682 C681 1.516 . S
C682 C683 1.502 . S
C682 C684 1.561 . S
C682 C685 1.526 . S
C683 H667 0.959 . S
C683 H668 0.959 . S
C683 H669 0.961 . S
C683 C682 1.502 . S
C684 H670 0.960 . S
C684 H671 0.961 . S
C684 H672 0.959 . S
C684 C682 1.561 . S
C685 C682 1.526 . S
C685 C686 1.396 . S
C685 C690 1.390 . S
C686 C680 1.465 . S
C686 C685 1.396 . S
C686 C687 1.399 . S
C687 H673 0.929 . S
C687 C686 1.399 . S
C687 C688 1.385 . S
C688 H674 0.931 . S
C688 C687 1.385 . S
C688 C689 1.389 . S
C689 C688 1.389 . S
C689 C690 1.387 . S
C690 H675 0.930 . S
C690 C685 1.390 . S
C690 C689 1.387 . S
H691 C703 0.930 . S
H692 C705 0.930 . S
H693 C706 0.930 . S
H694 C710 0.959 . S
H695 C710 0.959 . S
H696 C710 0.961 . S
H697 C711 0.960 . S
H698 C711 0.961 . S
H699 C711 0.959 . S
H700 C714 0.929 . S
H701 C715 0.931 . S
H702 C717 0.930 . S
C703 H691 0.930 . S
C703 C704 1.399 . S
C703 C708 1.399 1_455 S
C704 C703 1.399 . S
C704 C705 1.376 . S
C705 H692 0.930 . S
C705 C704 1.376 . S
C705 C706 1.388 1_455 S
C706 H693 0.930 . S
C706 C705 1.388 1_655 S
C706 C707 1.390 . S
C707 C706 1.390 . S
C707 C708 1.394 . S
C707 C713 1.465 . S
C708 C703 1.399 1_655 S
C708 C707 1.394 . S
C708 C709 1.516 . S
C709 C708 1.516 . S
C709 C710 1.502 . S
C709 C711 1.561 . S
C709 C712 1.526 . S
C710 H694 0.959 . S
C710 H695 0.959 . S
C710 H696 0.961 . S
C710 C709 1.502 . S
C711 H697 0.960 . S
C711 H698 0.961 . S
C711 H699 0.959 . S
C711 C709 1.561 . S
C712 C709 1.526 . S
C712 C713 1.396 . S
C712 C717 1.390 . S
C713 C707 1.465 . S
C713 C712 1.396 . S
C713 C714 1.399 . S
C714 H700 0.929 . S
C714 C713 1.399 . S
C714 C715 1.385 . S
C715 H701 0.931 . S
C715 C714 1.385 . S
C715 C716 1.389 . S
C716 C715 1.389 . S
C716 C717 1.387 . S
C717 H702 0.930 . S
C717 C712 1.390 . S
C717 C716 1.387 . S
H718 C730 0.930 . S
H719 C732 0.930 . S
H720 C733 0.930 . S
H721 C737 0.959 . S
H722 C737 0.959 . S
H723 C737 0.961 . S
H724 C738 0.960 . S
H725 C738 0.961 . S
H726 C738 0.959 . S
H727 C741 0.929 . S
H728 C742 0.931 . S
H729 C744 0.930 . S
C730 H718 0.930 . S
C730 C731 1.399 . S
C730 C735 1.399 . S
C731 C730 1.399 . S
C731 C732 1.376 . S
C732 H719 0.930 . S
C732 C731 1.376 . S
C732 C733 1.388 . S
C733 H720 0.930 . S
C733 C732 1.388 . S
C733 C734 1.390 . S
C734 C733 1.390 . S
C734 C735 1.394 . S
C734 C740 1.465 . S
C735 C730 1.399 . S
C735 C734 1.394 . S
C735 C736 1.516 . S
C736 C735 1.516 . S
C736 C737 1.502 . S
C736 C738 1.561 . S
C736 C739 1.526 . S
C737 H721 0.959 . S
C737 H722 0.959 . S
C737 H723 0.961 . S
C737 C736 1.502 . S
C738 H724 0.960 . S
C738 H725 0.961 . S
C738 H726 0.959 . S
C738 C736 1.561 . S
C739 C736 1.526 . S
C739 C740 1.396 . S
C739 C744 1.390 . S
C740 C734 1.465 . S
C740 C739 1.396 . S
C740 C741 1.399 . S
C741 H727 0.929 . S
C741 C740 1.399 . S
C741 C742 1.385 . S
C742 H728 0.931 . S
C742 C741 1.385 . S
C742 C743 1.389 . S
C743 C742 1.389 . S
C743 C744 1.387 . S
C744 H729 0.930 . S
C744 C739 1.390 . S
C744 C743 1.387 . S
H745 C757 0.930 . S
H746 C759 0.930 . S
H747 C760 0.930 . S
H748 C764 0.959 . S
H749 C764 0.959 . S
H750 C764 0.961 1_655 S
H751 C765 0.960 . S
H752 C765 0.961 . S
H753 C765 0.959 . S
H754 C768 0.929 . S
H755 C769 0.931 . S
H756 C771 0.930 . S
C757 H745 0.930 . S
C757 C758 1.399 . S
C757 C762 1.399 . S
C758 C757 1.399 . S
C758 C759 1.376 . S
C759 H746 0.930 . S
C759 C758 1.376 . S
C759 C760 1.388 . S
C760 H747 0.930 . S
C760 C759 1.388 . S
C760 C761 1.390 . S
C761 C760 1.390 . S
C761 C762 1.394 . S
C761 C767 1.465 . S
C762 C757 1.399 . S
C762 C761 1.394 . S
C762 C763 1.516 . S
C763 C762 1.516 . S
C763 C764 1.502 1_655 S
C763 C765 1.561 . S
C763 C766 1.526 . S
C764 H748 0.959 . S
C764 H749 0.959 . S
C764 H750 0.961 1_455 S
C764 C763 1.502 1_455 S
C765 H751 0.960 . S
C765 H752 0.961 . S
C765 H753 0.959 . S
C765 C763 1.561 . S
C766 C763 1.526 . S
C766 C767 1.396 . S
C766 C771 1.390 1_655 S
C767 C761 1.465 . S
C767 C766 1.396 . S
C767 C768 1.399 . S
C768 H754 0.929 . S
C768 C767 1.399 . S
C768 C769 1.385 1_655 S
C769 H755 0.931 . S
C769 C768 1.385 1_455 S
C769 C770 1.389 . S
C770 C769 1.389 . S
C770 C771 1.387 . S
C771 H756 0.930 . S
C771 C766 1.390 1_455 S
C771 C770 1.387 . S
H772 C784 0.930 . S
H773 C786 0.930 . S
H774 C787 0.930 . S
H775 C791 0.959 . S
H776 C791 0.959 . S
H777 C791 0.961 . S
H778 C792 0.960 . S
H779 C792 0.961 . S
H780 C792 0.959 . S
H781 C795 0.929 . S
H782 C796 0.931 . S
H783 C798 0.930 . S
C784 H772 0.930 . S
C784 C785 1.399 . S
C784 C789 1.399 . S
C785 C784 1.399 . S
C785 C786 1.376 . S
C786 H773 0.930 . S
C786 C785 1.376 . S
C786 C787 1.388 . S
C787 H774 0.930 . S
C787 C786 1.388 . S
C787 C788 1.390 . S
C788 C787 1.390 . S
C788 C789 1.394 . S
C788 C794 1.465 . S
C789 C784 1.399 . S
C789 C788 1.394 . S
C789 C790 1.516 . S
C790 C789 1.516 . S
C790 C791 1.502 . S
C790 C792 1.561 . S
C790 C793 1.526 . S
C791 H775 0.959 . S
C791 H776 0.959 . S
C791 H777 0.961 . S
C791 C790 1.502 . S
C792 H778 0.960 . S
C792 H779 0.961 . S
C792 H780 0.959 . S
C792 C790 1.561 . S
C793 C790 1.526 . S
C793 C794 1.396 . S
C793 C798 1.390 . S
C794 C788 1.465 . S
C794 C793 1.396 . S
C794 C795 1.399 . S
C795 H781 0.929 . S
C795 C794 1.399 . S
C795 C796 1.385 . S
C796 H782 0.931 . S
C796 C795 1.385 . S
C796 C797 1.389 . S
C797 C796 1.389 . S
C797 C798 1.387 . S
C798 H783 0.930 . S
C798 C793 1.390 . S
C798 C797 1.387 . S
H799 C811 0.930 . S
H800 C813 0.930 . S
H801 C814 0.930 . S
H802 C818 0.959 . S
H803 C818 0.959 . S
H804 C818 0.961 . S
H805 C819 0.960 . S
H806 C819 0.961 . S
H807 C819 0.959 . S
H808 C822 0.929 . S
H809 C823 0.931 . S
H810 C825 0.930 . S
C811 H799 0.930 . S
C811 C812 1.399 . S
C811 C816 1.399 . S
C812 C811 1.399 . S
C812 C813 1.376 . S
C813 H800 0.930 . S
C813 C812 1.376 . S
C813 C814 1.388 . S
C814 H801 0.930 . S
C814 C813 1.388 . S
C814 C815 1.390 . S
C815 C814 1.390 . S
C815 C816 1.394 . S
C815 C821 1.465 . S
C816 C811 1.399 . S
C816 C815 1.394 . S
C816 C817 1.516 . S
C817 C816 1.516 . S
C817 C818 1.502 . S
C817 C819 1.561 . S
C817 C820 1.526 . S
C818 H802 0.959 . S
C818 H803 0.959 . S
C818 H804 0.961 . S
C818 C817 1.502 . S
C819 H805 0.960 . S
C819 H806 0.961 . S
C819 H807 0.959 . S
C819 C817 1.561 . S
C820 C817 1.526 . S
C820 C821 1.396 . S
C820 C825 1.390 . S
C821 C815 1.465 . S
C821 C820 1.396 . S
C821 C822 1.399 . S
C822 H808 0.929 . S
C822 C821 1.399 . S
C822 C823 1.385 . S
C823 H809 0.931 . S
C823 C822 1.385 . S
C823 C824 1.389 . S
C824 C823 1.389 . S
C824 C825 1.387 . S
C825 H810 0.930 . S
C825 C820 1.390 . S
C825 C824 1.387 . S
H826 C838 0.930 . S
H827 C840 0.930 . S
H828 C841 0.930 . S
H829 C845 0.959 . S
H830 C845 0.959 . S
H831 C845 0.961 . S
H832 C846 0.960 . S
H833 C846 0.961 . S
H834 C846 0.959 . S
H835 C849 0.929 . S
H836 C850 0.931 . S
H837 C852 0.930 . S
C838 H826 0.930 . S
C838 C839 1.399 . S
C838 C843 1.399 . S
C839 C838 1.399 . S
C839 C840 1.376 . S
C840 H827 0.930 . S
C840 C839 1.376 . S
C840 C841 1.388 . S
C841 H828 0.930 . S
C841 C840 1.388 . S
C841 C842 1.390 . S
C842 C841 1.390 . S
C842 C843 1.394 . S
C842 C848 1.465 . S
C843 C838 1.399 . S
C843 C842 1.394 . S
C843 C844 1.516 . S
C844 C843 1.516 . S
C844 C845 1.502 . S
C844 C846 1.561 . S
C844 C847 1.526 . S
C845 H829 0.959 . S
C845 H830 0.959 . S
C845 H831 0.961 . S
C845 C844 1.502 . S
C846 H832 0.960 . S
C846 H833 0.961 . S
C846 H834 0.959 . S
C846 C844 1.561 . S
C847 C844 1.526 . S
C847 C848 1.396 . S
C847 C852 1.390 . S
C848 C842 1.465 . S
C848 C847 1.396 . S
C848 C849 1.399 . S
C849 H835 0.929 . S
C849 C848 1.399 . S
C849 C850 1.385 . S
C850 H836 0.931 . S
C850 C849 1.385 . S
C850 C851 1.389 . S
C851 C850 1.389 . S
C851 C852 1.387 . S
C852 H837 0.930 . S
C852 C847 1.390 . S
C852 C851 1.387 . S
H853 C865 0.930 . S
H854 C867 0.930 . S
H855 C868 0.930 . S
H856 C872 0.959 . S
H857 C872 0.959 . S
H858 C872 0.961 . S
H859 C873 0.960 . S
H860 C873 0.961 . S
H861 C873 0.959 . S
H862 C876 0.929 . S
H863 C877 0.931 . S
H864 C879 0.930 . S
C865 H853 0.930 . S
C865 C866 1.399 . S
C865 C870 1.399 . S
C866 C865 1.399 . S
C866 C867 1.376 . S
C867 H854 0.930 . S
C867 C866 1.376 . S
C867 C868 1.388 . S
C868 H855 0.930 . S
C868 C867 1.388 . S
C868 C869 1.390 . S
C869 C868 1.390 . S
C869 C870 1.394 . S
C869 C875 1.465 . S
C870 C865 1.399 . S
C870 C869 1.394 . S
C870 C871 1.516 . S
C871 C870 1.516 . S
C871 C872 1.502 . S
C871 C873 1.561 . S
C871 C874 1.526 . S
C872 H856 0.959 . S
C872 H857 0.959 . S
C872 H858 0.961 . S
C872 C871 1.502 . S
C873 H859 0.960 . S
C873 H860 0.961 . S
C873 H861 0.959 . S
C873 C871 1.561 . S
C874 C871 1.526 . S
C874 C875 1.396 . S
C874 C879 1.390 . S
C875 C869 1.465 . S
C875 C874 1.396 . S
C875 C876 1.399 . S
C876 H862 0.929 . S
C876 C875 1.399 . S
C876 C877 1.385 . S
C877 H863 0.931 . S
C877 C876 1.385 . S
C877 C878 1.389 . S
C878 C877 1.389 . S
C878 C879 1.387 . S
C879 H864 0.930 . S
C879 C874 1.390 . S
C879 C878 1.387 . S
H880 C892 0.930 . S
H881 C894 0.930 . S
H882 C895 0.930 . S
H883 C899 0.959 . S
H884 C899 0.959 . S
H885 C899 0.961 . S
H886 C900 0.960 . S
H887 C900 0.961 . S
H888 C900 0.959 . S
H889 C903 0.929 . S
H890 C904 0.931 . S
H891 C906 0.930 . S
C892 H880 0.930 . S
C892 C893 1.399 . S
C892 C897 1.399 . S
C893 C892 1.399 . S
C893 C894 1.376 . S
C894 H881 0.930 . S
C894 C893 1.376 . S
C894 C895 1.388 . S
C895 H882 0.930 . S
C895 C894 1.388 . S
C895 C896 1.390 . S
C896 C895 1.390 . S
C896 C897 1.394 . S
C896 C902 1.465 . S
C897 C892 1.399 . S
C897 C896 1.394 . S
C897 C898 1.516 . S
C898 C897 1.516 . S
C898 C899 1.502 . S
C898 C900 1.561 . S
C898 C901 1.526 . S
C899 H883 0.959 . S
C899 H884 0.959 . S
C899 H885 0.961 . S
C899 C898 1.502 . S
C900 H886 0.960 . S
C900 H887 0.961 . S
C900 H888 0.959 . S
C900 C898 1.561 . S
C901 C898 1.526 . S
C901 C902 1.396 . S
C901 C906 1.390 . S
C902 C896 1.465 . S
C902 C901 1.396 . S
C902 C903 1.399 . S
C903 H889 0.929 . S
C903 C902 1.399 . S
C903 C904 1.385 . S
C904 H890 0.931 . S
C904 C903 1.385 . S
C904 C905 1.389 . S
C905 C904 1.389 . S
C905 C906 1.387 . S
C906 H891 0.930 . S
C906 C901 1.390 . S
C906 C905 1.387 . S
H907 C919 0.930 . S
H908 C921 0.930 . S
H909 C922 0.930 . S
H910 C926 0.959 . S
H911 C926 0.959 . S
H912 C926 0.961 . S
H913 C927 0.960 . S
H914 C927 0.961 . S
H915 C927 0.959 . S
H916 C930 0.929 . S
H917 C931 0.931 . S
H918 C933 0.930 . S
C919 H907 0.930 . S
C919 C920 1.399 . S
C919 C924 1.399 . S
C920 C919 1.399 . S
C920 C921 1.376 . S
C921 H908 0.930 . S
C921 C920 1.376 . S
C921 C922 1.388 . S
C922 H909 0.930 . S
C922 C921 1.388 . S
C922 C923 1.390 . S
C923 C922 1.390 . S
C923 C924 1.394 . S
C923 C929 1.465 . S
C924 C919 1.399 . S
C924 C923 1.394 . S
C924 C925 1.516 . S
C925 C924 1.516 . S
C925 C926 1.502 . S
C925 C927 1.561 . S
C925 C928 1.526 . S
C926 H910 0.959 . S
C926 H911 0.959 . S
C926 H912 0.961 . S
C926 C925 1.502 . S
C927 H913 0.960 . S
C927 H914 0.961 . S
C927 H915 0.959 . S
C927 C925 1.561 . S
C928 C925 1.526 . S
C928 C929 1.396 . S
C928 C933 1.390 . S
C929 C923 1.465 . S
C929 C928 1.396 . S
C929 C930 1.399 . S
C930 H916 0.929 . S
C930 C929 1.399 . S
C930 C931 1.385 . S
C931 H917 0.931 . S
C931 C930 1.385 . S
C931 C932 1.389 . S
C932 C931 1.389 . S
C932 C933 1.387 . S
C933 H918 0.930 . S
C933 C928 1.390 . S
C933 C932 1.387 . S
H934 C946 0.930 . S
H935 C948 0.930 . S
H936 C949 0.930 . S
H937 C953 0.959 . S
H938 C953 0.959 . S
H939 C953 0.961 . S
H940 C954 0.960 . S
H941 C954 0.961 . S
H942 C954 0.959 . S
H943 C957 0.929 . S
H944 C958 0.931 . S
H945 C960 0.930 . S
C946 H934 0.930 . S
C946 C947 1.399 . S
C946 C951 1.399 . S
C947 C946 1.399 . S
C947 C948 1.376 . S
C948 H935 0.930 . S
C948 C947 1.376 . S
C948 C949 1.388 . S
C949 H936 0.930 . S
C949 C948 1.388 . S
C949 C950 1.390 . S
C950 C949 1.390 . S
C950 C951 1.394 . S
C950 C956 1.465 . S
C951 C946 1.399 . S
C951 C950 1.394 . S
C951 C952 1.516 . S
C952 C951 1.516 . S
C952 C953 1.502 . S
C952 C954 1.561 . S
C952 C955 1.526 . S
C953 H937 0.959 . S
C953 H938 0.959 . S
C953 H939 0.961 . S
C953 C952 1.502 . S
C954 H940 0.960 . S
C954 H941 0.961 . S
C954 H942 0.959 . S
C954 C952 1.561 . S
C955 C952 1.526 . S
C955 C956 1.396 . S
C955 C960 1.390 . S
C956 C950 1.465 . S
C956 C955 1.396 . S
C956 C957 1.399 . S
C957 H943 0.929 . S
C957 C956 1.399 . S
C957 C958 1.385 . S
C958 H944 0.931 . S
C958 C957 1.385 . S
C958 C959 1.389 . S
C959 C958 1.389 . S
C959 C960 1.387 . S
C960 H945 0.930 . S
C960 C955 1.390 . S
C960 C959 1.387 . S
H961 C973 0.929 . S
H962 C975 0.930 . S
H963 C976 0.930 . S
H964 C980 0.959 . S
H965 C980 0.959 1_556 S
H966 C980 0.961 . S
H967 C981 0.960 . S
H968 C981 0.961 . S
H969 C981 0.959 . S
H970 C984 0.929 . S
H971 C985 0.931 . S
H972 C987 0.930 . S
C973 H961 0.929 . S
C973 C974 1.399 . S
C973 C978 1.399 1_554 S
C974 C973 1.399 . S
C974 C975 1.376 1_554 S
C975 H962 0.930 . S
C975 C974 1.376 1_556 S
C975 C976 1.388 . S
C976 H963 0.930 . S
C976 C975 1.388 . S
C976 C977 1.390 . S
C977 C976 1.390 . S
C977 C978 1.394 . S
C977 C983 1.465 . S
C978 C973 1.399 1_556 S
C978 C977 1.394 . S
C978 C979 1.516 . S
C979 C978 1.516 . S
C979 C980 1.502 1_556 S
C979 C981 1.561 . S
C979 C982 1.526 . S
C980 H964 0.959 . S
C980 H965 0.959 1_554 S
C980 H966 0.961 . S
C980 C979 1.502 1_554 S
C981 H967 0.960 . S
C981 H968 0.961 . S
C981 H969 0.959 . S
C981 C979 1.561 . S
C982 C979 1.526 . S
C982 C983 1.396 . S
C982 C987 1.390 . S
C983 C977 1.465 . S
C983 C982 1.396 . S
C983 C984 1.399 . S
C984 H970 0.929 . S
C984 C983 1.399 . S
C984 C985 1.385 . S
C985 H971 0.931 . S
C985 C984 1.385 . S
C985 C986 1.389 . S
C986 C985 1.389 . S
C986 C987 1.387 . S
C987 H972 0.930 . S
C987 C982 1.390 . S
C987 C986 1.387 . S
C353 C7 0.716 . S
C365 C101 0.856 . S
C380 C25 0.825 . S
C392 C133 0.856 . S
C407 C46 0.984 . S
C419 C165 0.918 . S
C446 C209 0.869 . S
C434 C70 0.882 . S
C473 C229 0.761 . S
C461 C28 0.867 . S
C488 C49 0.827 . S
C500 C273 0.914 . S
C515 C67 1.044 . S
C527 C293 1.059 . S
C542 C4 0.820 . S
C554 C337 0.944 . S
C569 C58 1.727 . S
C581 C325 1.707 . S
C608 C241 1.605 . S
C596 C66 1.511 . S
C635 C261 1.927 . S
C623 C3 1.828 1_554 S
C650 C37 1.778 . S
C662 C305 1.786 . S
C689 C145 1.856 . S
C677 C79 1.721 . S
C704 C16 1.790 . S
C716 C177 1.777 . S
C743 C197 1.877 . S
C731 C24 1.839 . S
C770 C113 1.595 . S
C758 C45 1.480 . S
C797 C299 1.389 . S
C785 C19 1.277 . S
C824 C331 1.321 . S
C812 C41 1.276 . S
C839 C62 1.130 . S
C851 C235 1.153 . S
C878 C267 1.387 . S
C866 C82 1.092 . S
C905 C171 1.429 . S
C893 C40 1.247 . S
C920 C61 1.061 . S
C932 C203 1.350 . S
C959 C107 1.192 . S
C947 C83 1.136 . S
C986 C139 1.353 . S
C974 C20 1.169 . S
