# Generated by pormake.
# Topology zzz, (3,6)-cn, num edge types: 1
# Building blocks:
#     Node 0, Type 0, BuildingBlock: KAKCAD_clean_linker_0, # of connection points: 3
#     Node 1, Type 0, BuildingBlock: KAKCAD_clean_linker_0, # of connection points: 3
#     Node 2, Type 0, BuildingBlock: KAKCAD_clean_linker_0, # of connection points: 3
#     Node 3, Type 0, BuildingBlock: KAKCAD_clean_linker_0, # of connection points: 3
#     Node 4, Type 0, BuildingBlock: KAKCAD_clean_linker_0, # of connection points: 3
#     Node 5, Type 0, BuildingBlock: KAKCAD_clean_linker_0, # of connection points: 3
#     Node 6, Type 0, BuildingBlock: KAKCAD_clean_linker_0, # of connection points: 3
#     Node 7, Type 0, BuildingBlock: KAKCAD_clean_linker_0, # of connection points: 3
#     Node 8, Type 1, BuildingBlock: BETDEL_clean_sbu_0, # of connection points: 6
#     Node 9, Type 1, BuildingBlock: BETDEL_clean_sbu_0, # of connection points: 6
#     Node 10, Type 1, BuildingBlock: BETDEL_clean_sbu_0, # of connection points: 6
#     Node 11, Type 1, BuildingBlock: BETDEL_clean_sbu_0, # of connection points: 6
#     Edge 12, Type (0, 1), BuildingBlock: OJICUG_clean_linker_0, # of connection points: 2
#     Edge 13, Type (0, 1), BuildingBlock: OJICUG_clean_linker_0, # of connection points: 2
#     Edge 14, Type (0, 1), BuildingBlock: OJICUG_clean_linker_0, # of connection points: 2
#     Edge 15, Type (0, 1), BuildingBlock: OJICUG_clean_linker_0, # of connection points: 2
#     Edge 16, Type (0, 1), BuildingBlock: OJICUG_clean_linker_0, # of connection points: 2
#     Edge 17, Type (0, 1), BuildingBlock: OJICUG_clean_linker_0, # of connection points: 2
#     Edge 18, Type (0, 1), BuildingBlock: OJICUG_clean_linker_0, # of connection points: 2
#     Edge 19, Type (0, 1), BuildingBlock: OJICUG_clean_linker_0, # of connection points: 2
#     Edge 20, Type (0, 1), BuildingBlock: OJICUG_clean_linker_0, # of connection points: 2
#     Edge 21, Type (0, 1), BuildingBlock: OJICUG_clean_linker_0, # of connection points: 2
#     Edge 22, Type (0, 1), BuildingBlock: OJICUG_clean_linker_0, # of connection points: 2
#     Edge 23, Type (0, 1), BuildingBlock: OJICUG_clean_linker_0, # of connection points: 2
#     Edge 24, Type (0, 1), BuildingBlock: OJICUG_clean_linker_0, # of connection points: 2
#     Edge 25, Type (0, 1), BuildingBlock: OJICUG_clean_linker_0, # of connection points: 2
#     Edge 26, Type (0, 1), BuildingBlock: OJICUG_clean_linker_0, # of connection points: 2
#     Edge 27, Type (0, 1), BuildingBlock: OJICUG_clean_linker_0, # of connection points: 2
#     Edge 28, Type (0, 1), BuildingBlock: OJICUG_clean_linker_0, # of connection points: 2
#     Edge 29, Type (0, 1), BuildingBlock: OJICUG_clean_linker_0, # of connection points: 2
#     Edge 30, Type (0, 1), BuildingBlock: OJICUG_clean_linker_0, # of connection points: 2
#     Edge 31, Type (0, 1), BuildingBlock: OJICUG_clean_linker_0, # of connection points: 2
#     Edge 32, Type (0, 1), BuildingBlock: OJICUG_clean_linker_0, # of connection points: 2
#     Edge 33, Type (0, 1), BuildingBlock: OJICUG_clean_linker_0, # of connection points: 2
#     Edge 34, Type (0, 1), BuildingBlock: OJICUG_clean_linker_0, # of connection points: 2
#     Edge 35, Type (0, 1), BuildingBlock: OJICUG_clean_linker_0, # of connection points: 2
# Relax obj value: 0.347
# Max RMSD: 0.229
# Mean RMSD: 0.212
data_MOF--net-zzz--node1-BETDEL_clean_sbu_0--node2-KAKCAD_clean_linker_0--edge1-OJICUG_clean_linker_0
_symmetry_space_group_name_H-M    P1
_symmetry_Int_Tables_number       1
_symmetry_cell_setting            triclinic
loop_
_symmetry_equiv_pos_as_xyz
'x, y, z'
_cell_length_a     43.943034
_cell_length_b     43.95378
_cell_length_c     15.480023
_cell_angle_alpha  90.673596
_cell_angle_beta   89.292961
_cell_angle_gamma 95.667624
loop_
_atom_site_label
_atom_site_type_symbol
_atom_site_fract_x
_atom_site_fract_y
_atom_site_fract_z
_atom_type_partial_charge
C0 C 0.82158 0.41775 0.83105 0.0
C1 C 0.84404 0.4043 0.87711 0.0
C2 C 0.79581 0.42688 0.87377 0.0
C3 C 0.79198 0.42245 0.96313 0.0
C4 C 0.81225 0.40505 0.00618 0.0
C5 C 0.83828 0.39633 0.96369 0.0
C6 C 0.77159 0.44133 0.01316 0.0
C7 C 0.74322 0.44767 0.98133 0.0
C8 C 0.72671 0.47019 0.02044 0.0
C9 C 0.73927 0.48669 0.093 0.0
C10 C 0.76736 0.47958 0.12696 0.0
C11 C 0.783 0.45698 0.08684 0.0
C12 C 0.7831 0.49598 0.20051 0.0
C13 C 0.80264 0.5226 0.18449 0.0
C14 C 0.78721 0.47955 0.27603 0.0
C15 C 0.81212 0.48774 0.32985 0.0
C16 C 0.83359 0.51265 0.30947 0.0
C17 C 0.69746 0.47679 0.97984 0.0
C18 C 0.69225 0.50665 0.95625 0.0
C19 C 0.67666 0.45231 0.95223 0.0
C20 C 0.65293 0.45716 0.89638 0.0
C21 C 0.64907 0.48666 0.86739 0.0
C22 C 0.66816 0.51156 0.90058 0.0
C23 C 0.82756 0.53094 0.2386 0.0
H24 H 0.82546 0.42429 0.76425 0.0
H25 H 0.78075 0.44021 0.8385 0.0
H26 H 0.80943 0.40056 0.07462 0.0
H27 H 0.85508 0.38558 1.00023 0.0
H28 H 0.73453 0.43584 0.92353 0.0
H29 H 0.8054 0.45305 0.11058 0.0
H30 H 0.72732 0.50457 0.12282 0.0
H31 H 0.80041 0.53527 0.12567 0.0
H32 H 0.77297 0.45847 0.28859 0.0
H33 H 0.81587 0.47285 0.38306 0.0
H34 H 0.70796 0.52595 0.97601 0.0
H35 H 0.67974 0.42908 0.97024 0.0
H36 H 0.84312 0.55068 0.22177 0.0
H37 H 0.66569 0.53455 0.87916 0.0
H38 H 0.63831 0.43759 0.87287 0.0
C39 C 0.06853 0.82204 0.86788 0.0
C40 C 0.08357 0.84727 0.91173 0.0
C41 C 0.05866 0.79535 0.91242 0.0
C42 C 0.06389 0.79338 1.00145 0.0
C43 C 0.0821 0.81732 0.04262 0.0
C44 C 0.09153 0.84419 0.99841 0.0
C45 C 0.04545 0.76994 0.05358 0.0
C46 C 0.03882 0.73976 0.02385 0.0
C47 C 0.0169 0.71949 0.06666 0.0
C48 C 1.00148 0.72978 0.14042 0.0
C49 C 0.00885 0.75971 0.17184 0.0
C50 C 0.03073 0.77932 0.12843 0.0
C51 C 0.99319 0.77305 0.24592 0.0
C52 C 0.96758 0.78876 0.22989 0.0
C53 C 0.01004 0.78004 0.32117 0.0
C54 C 1.00373 0.80475 0.37382 0.0
C55 C 0.98041 0.82299 0.35201 0.0
C56 C 0.0092 0.68849 0.02907 0.0
C57 C 0.97907 0.67862 0.00514 0.0
C58 C 0.03269 0.67031 0.00645 0.0
C59 C 0.02652 0.64373 0.95669 0.0
C60 C 0.99674 0.63487 0.92752 0.0
C61 C 0.97292 0.65215 0.95433 0.0
C62 C 0.96118 0.81349 0.28265 0.0
H63 H 0.06197 0.82388 0.80105 0.0
H64 H 0.04458 0.7775 0.87875 0.0
H65 H 0.0871 0.81619 0.1108 0.0
H66 H 0.10347 0.86319 0.03325 0.0
H67 H 0.04984 0.73237 0.96529 0.0
H68 H 0.03483 0.80285 0.15078 0.0
H69 H 0.98405 0.71473 0.17283 0.0
H70 H 0.95461 0.78414 0.17133 0.0
H71 H 0.03032 0.76868 0.33368 0.0
H72 H 0.01915 0.81131 0.42626 0.0
H73 H 0.96058 0.69233 0.02128 0.0
H74 H 0.05611 0.67741 0.02421 0.0
H75 H 0.9426 0.82659 0.26509 0.0
H76 H 0.94971 0.6458 0.93341 0.0
H77 H 0.04545 0.63117 0.93665 0.0
C78 C 0.7125 0.07716 0.81562 0.0
C79 C 0.69301 0.09793 0.8498 0.0
C80 C 0.73468 0.06608 0.86702 0.0
C81 C 0.73789 0.07557 0.95366 0.0
C82 C 0.7209 0.099 0.98463 0.0
C83 C 0.6986 0.11005 0.93316 0.0
C84 C 0.75423 0.0571 0.01428 0.0
C85 C 0.78127 0.04495 0.9893 0.0
C86 C 0.79331 0.02238 0.03849 0.0
C87 C 0.77811 0.0123 0.11587 0.0
C88 C 0.75122 0.02521 0.14319 0.0
C89 C 0.73984 0.04753 0.09177 0.0
C90 C 0.73211 0.01452 0.21958 0.0
C91 C 0.71913 0.98408 0.22519 0.0
C92 C 0.72093 0.03639 0.27553 0.0
C93 C 0.69561 0.0288 0.32948 0.0
C94 C 0.68081 0.99886 0.33063 0.0
C95 C 0.82016 0.0084 1.00129 0.0
C96 C 0.81738 0.99425 0.9196 0.0
C97 C 0.8495 0.01456 0.03636 0.0
C98 C 0.87561 0.00811 0.98836 0.0
C99 C 0.87292 0.99548 0.90408 0.0
C100 C 0.84324 0.98796 0.87174 0.0
C101 C 0.69389 0.9763 0.28038 0.0
H102 H 0.70875 0.06711 0.75196 0.0
H103 H 0.74721 0.04794 0.84114 0.0
H104 H 0.72336 0.10723 0.05066 0.0
H105 H 0.68432 0.1265 0.96068 0.0
H106 H 0.79247 0.05224 0.92913 0.0
H107 H 0.71815 0.05586 0.10927 0.0
H108 H 0.78667 0.99431 0.15307 0.0
H109 H 0.72701 0.96673 0.1825 0.0
H110 H 0.73034 0.0601 0.27252 0.0
H111 H 0.68655 0.04714 0.36568 0.0
H112 H 0.79508 0.98976 0.89033 0.0
H113 H 0.85235 0.02595 0.09858 0.0
H114 H 0.68395 0.95278 0.28079 0.0
H115 H 0.8398 0.97885 0.80698 0.0
H116 H 0.89791 0.01388 0.01637 0.0
C117 C 0.52933 0.70926 0.35735 0.0
C118 C 0.55377 0.69446 0.38879 0.0
C119 C 0.53487 0.73639 0.31062 0.0
C120 C 0.56498 0.74872 0.2923 0.0
C121 C 0.58919 0.73572 0.33204 0.0
C122 C 0.58361 0.70886 0.38034 0.0
C123 C 0.5707 0.7632 0.20691 0.0
C124 C 0.56809 0.79436 0.18938 0.0
C125 C 0.56893 0.80437 0.10253 0.0
C126 C 0.56996 0.7828 0.03513 0.0
C127 C 0.57143 0.75196 0.05296 0.0
C128 C 0.57354 0.74273 0.13819 0.0
C129 C 0.5625 0.72814 0.98833 0.0
C130 C 0.53235 0.72566 0.95864 0.0
C131 C 0.58037 0.70376 0.97525 0.0
C132 C 0.56752 0.67643 0.93836 0.0
C133 C 0.53639 0.67284 0.91601 0.0
C134 C 0.56554 0.83626 0.07715 0.0
C135 C 0.53637 0.84669 0.0763 0.0
C136 C 0.58948 0.85264 0.03118 0.0
C137 C 0.58395 0.87764 0.98044 0.0
C138 C 0.55421 0.8866 0.97358 0.0
C139 C 0.53075 0.87161 0.02504 0.0
C140 C 0.51929 0.69818 0.92358 0.0
H141 H 0.50611 0.69856 0.36303 0.0
H142 H 0.51583 0.74536 0.27899 0.0
H143 H 0.61264 0.74416 0.31704 0.0
H144 H 0.60284 0.69779 0.40367 0.0
H145 H 0.56493 0.81032 0.24183 0.0
H146 H 0.57358 0.71851 0.15158 0.0
H147 H 0.56777 0.78976 0.96864 0.0
H148 H 0.51796 0.744 0.97003 0.0
H149 H 0.60361 0.70522 0.99868 0.0
H150 H 0.58168 0.65775 0.93067 0.0
H151 H 0.5174 0.83405 0.1096 0.0
H152 H 0.612 0.84459 0.02921 0.0
H153 H 0.49525 0.69635 0.90781 0.0
H154 H 0.50767 0.87817 0.02232 0.0
H155 H 0.60253 0.8884 0.94145 0.0
C156 C 0.18076 0.6118 0.15221 0.0
C157 C 0.1742 0.60325 0.23797 0.0
C158 C 0.20671 0.6026 0.11034 0.0
C159 C 0.226 0.58406 0.15305 0.0
C160 C 0.22154 0.57911 0.24202 0.0
C161 C 0.1959 0.58876 0.28422 0.0
C162 C 0.24547 0.56434 0.10254 0.0
C163 C 0.27311 0.55604 0.1349 0.0
C164 C 0.28789 0.53231 0.09594 0.0
C165 C 0.27471 0.51679 0.02282 0.0
C166 C 0.24767 0.52604 0.98772 0.0
C167 C 0.23349 0.54966 0.02792 0.0
C168 C 0.23149 0.51078 0.91315 0.0
C169 C 0.22755 0.52813 0.83924 0.0
C170 C 0.21207 0.48387 0.92624 0.0
C171 C 0.18744 0.47604 0.87072 0.0
C172 C 0.18161 0.49512 0.80141 0.0
C173 C 0.31614 0.52351 0.13666 0.0
C174 C 0.34075 0.54584 0.15091 0.0
C175 C 0.31692 0.49451 0.1733 0.0
C176 C 0.34114 0.48854 0.22698 0.0
C177 C 0.36523 0.51135 0.24404 0.0
C178 C 0.36507 0.5398 0.2034 0.0
C179 C 0.20296 0.52043 0.78402 0.0
H180 H 0.16456 0.62336 0.11561 0.0
H181 H 0.21005 0.60754 0.0423 0.0
H182 H 0.23586 0.56494 0.27708 0.0
H183 H 0.19138 0.5818 0.35043 0.0
H184 H 0.28252 0.56719 0.19288 0.0
H185 H 0.21165 0.55512 0.00359 0.0
H186 H 0.28546 0.49802 0.99336 0.0
H187 H 0.24178 0.54939 0.82888 0.0
H188 H 0.21423 0.47046 0.9837 0.0
H189 H 0.17195 0.45599 0.8852 0.0
H190 H 0.34055 0.56848 0.12406 0.0
H191 H 0.29802 0.47704 0.16424 0.0
H192 H 0.19933 0.53591 0.73213 0.0
H193 H 0.38299 0.55802 0.21569 0.0
H194 H 0.34068 0.46632 0.25673 0.0
C195 C 0.94046 0.16173 0.11669 0.0
C196 C 0.94839 0.15946 0.2037 0.0
C197 C 0.94888 0.18861 0.07147 0.0
C198 C 0.96597 0.21343 0.11205 0.0
C199 C 0.97108 0.21219 0.20129 0.0
C200 C 0.96226 0.18545 0.24678 0.0
C201 C 0.9836 0.23725 0.05932 0.0
C202 C 0.98862 0.26776 0.08752 0.0
C203 C 0.00982 0.2887 0.04444 0.0
C204 C 0.02619 0.27872 0.97203 0.0
C205 C 0.02046 0.24838 0.94221 0.0
C206 C 0.99923 0.22812 0.98577 0.0
C207 C 0.03719 0.23539 0.86962 0.0
C208 C 0.0212 0.22786 0.79324 0.0
C209 C 0.06312 0.22046 0.88792 0.0
C210 C 0.07074 0.19594 0.83608 0.0
C211 C 0.05241 0.18588 0.76533 0.0
C212 C 0.01588 0.32011 0.08067 0.0
C213 C 0.99132 0.33716 0.10141 0.0
C214 C 0.0455 0.33147 0.10564 0.0
C215 C 0.05012 0.35825 0.15586 0.0
C216 C 0.02524 0.37434 0.18105 0.0
C217 C 0.99596 0.36405 0.15059 0.0
C218 C 0.02873 0.20336 0.74146 0.0
H219 H 0.92938 0.14212 0.0824 0.0
H220 H 0.94402 0.18914 0.0031 0.0
H221 H 0.98433 0.23077 0.23447 0.0
H222 H 0.96878 0.18428 0.31384 0.0
H223 H 0.97691 0.27496 0.14517 0.0
H224 H 0.99635 0.20439 0.96467 0.0
H225 H 0.0431 0.29431 0.9395 0.0
H226 H 1.00068 0.23858 0.77898 0.0
H227 H 0.07543 0.22549 0.94742 0.0
H228 H 0.08953 0.18342 0.85529 0.0
H229 H 0.96826 0.3289 0.08281 0.0
H230 H 0.06479 0.31866 0.09095 0.0
H231 H 0.01397 0.19634 0.68789 0.0
H232 H 0.97626 0.37568 0.16936 0.0
H233 H 0.07298 0.36573 0.17779 0.0
C234 C 0.31856 0.91604 0.24462 0.0
C235 C 0.34998 0.92494 0.23423 0.0
C236 C 0.29738 0.92719 0.18883 0.0
C237 C 0.30731 0.94804 0.12339 0.0
C238 C 0.33894 0.95644 0.11359 0.0
C239 C 0.35987 0.94472 0.16714 0.0
C240 C 0.2855 0.96322 0.06905 0.0
C241 C 0.25744 0.97122 0.10219 0.0
C242 C 0.24003 0.99088 0.05661 0.0
C243 C 0.25197 1.00402 0.9785 0.0
C244 C 0.27949 0.99488 0.94308 0.0
C245 C 0.29478 0.97335 0.98659 0.0
C246 C 0.29606 0.00929 0.8674 0.0
C247 C 0.30176 0.99077 0.79548 0.0
C248 C 0.31538 0.03634 0.88073 0.0
C249 C 0.34166 0.04296 0.82905 0.0
C250 C 0.34921 0.02258 0.76303 0.0
C251 C 0.21021 0.99792 0.09519 0.0
C252 C 0.18825 0.97377 0.11784 0.0
C253 C 0.20518 0.02779 0.12095 0.0
C254 C 0.17959 0.03308 0.17253 0.0
C255 C 0.15829 0.00867 0.19853 0.0
C256 C 0.16257 0.97907 0.16823 0.0
C257 C 0.32798 0.99734 0.74388 0.0
H258 H 0.31041 0.90109 0.29685 0.0
H259 H 0.27331 0.91999 0.19824 0.0
H260 H 0.34783 0.97339 0.06725 0.0
H261 H 0.38384 0.95284 0.15943 0.0
H262 H 0.24966 0.96347 0.16561 0.0
H263 H 0.3156 0.96618 0.95801 0.0
H264 H 0.2399 0.02069 0.94541 0.0
H265 H 0.28766 0.96946 0.78467 0.0
H266 H 0.31207 0.0506 0.93699 0.0
H267 H 0.35741 0.06258 0.84601 0.0
H268 H 0.19163 0.95048 0.09932 0.0
H269 H 0.22186 0.04679 0.10522 0.0
H270 H 0.33266 0.98147 0.69249 0.0
H271 H 0.14696 0.95965 0.18743 0.0
H272 H 0.17692 0.05621 0.19404 0.0
C273 C 0.45522 0.30455 0.72171 0.0
C274 C 0.48386 0.32186 0.72526 0.0
C275 C 0.44982 0.27726 0.76817 0.0
C276 C 0.47309 0.26652 0.81775 0.0
C277 C 0.50267 0.28188 0.81209 0.0
C278 C 0.50791 0.30947 0.76729 0.0
C279 C 0.46459 0.25037 0.89949 0.0
C280 C 0.47308 0.22106 0.92005 0.0
C281 C 0.47151 0.21128 0.0071 0.0
C282 C 0.46343 0.23162 0.07216 0.0
C283 C 0.45648 0.26094 0.0518 0.0
C284 C 0.45458 0.26909 0.96555 0.0
C285 C 0.46287 0.28611 0.11412 0.0
C286 C 0.49339 0.29313 0.1385 0.0
C287 C 0.44183 0.30763 0.12825 0.0
C288 C 0.4517 0.33656 0.16151 0.0
C289 C 0.48298 0.34476 0.17785 0.0
C290 C 0.48256 0.18229 0.03618 0.0
C291 C 0.46395 0.15452 0.02977 0.0
C292 C 0.50812 0.18395 0.09009 0.0
C293 C 0.51369 0.15929 0.14171 0.0
C294 C 0.49406 0.13191 0.14026 0.0
C295 C 0.46977 0.12949 0.08079 0.0
C296 C 0.50346 0.32225 0.16865 0.0
H297 H 0.43625 0.31353 0.68984 0.0
H298 H 0.42663 0.26645 0.77324 0.0
H299 H 0.52085 0.27467 0.85135 0.0
H300 H 0.5303 0.32216 0.77037 0.0
H301 H 0.48222 0.20689 0.87031 0.0
H302 H 0.45045 0.29243 0.9507 0.0
H303 H 0.46532 0.22568 0.13961 0.0
H304 H 0.51018 0.27709 0.12587 0.0
H305 H 0.41827 0.3027 0.10861 0.0
H306 H 0.43495 0.3528 0.17087 0.0
H307 H 0.4438 0.15281 0.98972 0.0
H308 H 0.52249 0.20531 0.09747 0.0
H309 H 0.52772 0.32741 0.17899 0.0
H310 H 0.45447 0.1087 0.07588 0.0
H311 H 0.53231 0.16273 0.18695 0.0
Dy312 Dy 0.03868 0.99195 0.61847 0.0
C313 C 0.96873 0.05239 0.39029 0.0
C314 C 0.06733 0.95601 0.72843 0.0
Dy315 Dy 0.99798 0.01682 0.49979 0.0
O316 O 0.07277 0.95868 0.64646 0.0
O317 O 0.04646 0.97357 0.75133 0.0
O318 O 0.07917 0.01684 0.55288 0.0
O319 O 0.04226 0.99875 0.47731 0.0
C320 C 0.06842 0.01377 0.47525 0.0
C321 C 0.96851 0.99453 0.64276 0.0
O322 O 0.99309 0.96965 0.44435 0.0
O323 O 0.0107 0.94972 0.56881 0.0
O324 O 0.96358 0.04984 0.47244 0.0
O325 O 0.9897 0.03499 0.36703 0.0
O326 O 0.95781 0.99131 0.56515 0.0
O327 O 0.99442 0.01003 0.64096 0.0
O328 O 0.04367 0.03924 0.67336 0.0
O329 O 0.02603 0.05904 0.54871 0.0
C330 C 0.99761 0.94591 0.4924 0.0
C331 C 0.0391 0.06293 0.62511 0.0
Dy332 Dy 0.4984 0.98153 0.51635 0.0
C333 C 0.5805 0.07423 0.67755 0.0
C334 C 0.45034 0.94435 0.45199 0.0
Dy335 Dy 0.53559 0.03508 0.6049 0.0
O336 O 0.47831 0.94541 0.42301 0.0
O337 O 0.44883 0.96363 0.51544 0.0
O338 O 0.54057 0.95786 0.48714 0.0
O339 O 0.54374 1.00569 0.49454 0.0
C340 C 0.55911 0.98288 0.48833 0.0
C341 C 0.47473 0.03262 0.632 0.0
O342 O 0.52899 0.05674 0.4776 0.0
O343 O 0.49074 0.02074 0.42783 0.0
O344 O 0.55607 0.06244 0.71759 0.0
O345 O 0.58012 0.06482 0.59791 0.0
O346 O 0.49241 0.05812 0.62792 0.0
O347 O 0.49085 0.01042 0.62806 0.0
O348 O 0.50668 0.95947 0.64199 0.0
O349 O 0.54669 0.99471 0.68425 0.0
C350 C 0.50776 0.04734 0.42062 0.0
C351 C 0.52959 0.96827 0.69441 0.0
Dy352 Dy 0.49711 0.52035 0.63542 0.0
C353 C 0.51742 0.46476 0.30626 0.0
C354 C 0.49029 0.557 0.77531 0.0
Dy355 Dy 0.52313 0.49541 0.45904 0.0
O356 O 0.47358 0.55586 0.70664 0.0
O357 O 0.50941 0.53626 0.76991 0.0
O358 O 0.44978 0.50305 0.59092 0.0
O359 O 0.48377 0.51838 0.50079 0.0
C360 C 0.45665 0.50637 0.50917 0.0
C361 C 0.56558 0.49752 0.58439 0.0
O362 O 0.5308 0.54539 0.43101 0.0
O363 O 0.52225 0.56211 0.57256 0.0
O364 O 0.54334 0.47603 0.33914 0.0
O365 O 0.49497 0.47156 0.35557 0.0
O366 O 0.57071 0.48809 0.50593 0.0
O367 O 0.53881 0.50522 0.5873 0.0
O368 O 0.49755 0.47107 0.67029 0.0
O369 O 0.50234 0.45322 0.52856 0.0
C370 C 0.53071 0.56744 0.49069 0.0
C371 C 0.49755 0.44841 0.61254 0.0
Dy372 Dy 0.99357 0.48012 0.60725 0.0
C373 C 0.06086 0.56735 0.40109 0.0
C374 C 0.95576 0.44171 0.70745 0.0
Dy375 Dy 0.02255 0.52885 0.49989 0.0
O376 O 0.95994 0.43874 0.62502 0.0
O377 O 0.97246 0.46571 0.73571 0.0
O378 O 0.02143 0.44647 0.54258 0.0
O379 O 1.00595 0.4815 0.46905 0.0
C380 C 0.02153 0.4588 0.46686 0.0
C381 C 0.99491 0.55006 0.6413 0.0
O382 O 0.97727 0.52495 0.43474 0.0
O383 O 0.95289 0.50017 0.55043 0.0
O384 O 0.05622 0.57026 0.48333 0.0
O385 O 0.04422 0.54341 0.37211 0.0
O386 O 0.99469 0.56239 0.56559 0.0
O387 O 0.01049 0.52738 0.63813 0.0
O388 O 0.0387 0.48405 0.67266 0.0
O389 O 0.06321 0.50879 0.55713 0.0
C390 C 0.95186 0.51426 0.47542 0.0
C391 C 0.06414 0.49468 0.63216 0.0
C392 C 0.13971 0.03173 0.33699 0.0
C393 C 0.13342 0.01328 0.26322 0.0
H394 H 0.12411 0.04635 0.46109 0.0
C395 C 0.1041 0.99724 0.25624 0.0
H396 H 0.16203 0.04416 0.34531 0.0
C397 C 0.08219 0.99866 0.3228 0.0
C398 C 0.08923 0.01583 0.39842 0.0
H399 H 0.09832 0.98302 0.20006 0.0
H400 H 0.06026 0.98525 0.31665 0.0
C401 C 0.11798 0.03286 0.40375 0.0
C402 C 0.47212 0.08941 0.23992 0.0
C403 C 0.49771 0.10745 0.20554 0.0
H404 H 0.45519 0.05605 0.33401 0.0
C405 C 0.52669 0.10362 0.23959 0.0
H406 H 0.44932 0.09175 0.21694 0.0
C407 C 0.52975 0.08402 0.30885 0.0
C408 C 0.50412 0.06684 0.34451 0.0
H409 H 0.54719 0.11607 0.21372 0.0
H410 H 0.55234 0.08229 0.33452 0.0
C411 C 0.47536 0.06908 0.30785 0.0
C412 C 0.38153 0.49324 0.38888 0.0
C413 C 0.38935 0.50664 0.30839 0.0
H414 H 0.39665 0.48271 0.51558 0.0
C415 C 0.42002 0.5178 0.29282 0.0
H416 H 0.35809 0.48469 0.40342 0.0
C417 C 0.44203 0.51668 0.35704 0.0
C418 C 0.43394 0.50446 0.43862 0.0
H419 H 0.42692 0.52797 0.23135 0.0
H420 H 0.46525 0.52627 0.34357 0.0
C421 C 0.40357 0.49227 0.45338 0.0
C422 C 0.04535 0.39526 0.3228 0.0
C423 C 0.02883 0.39928 0.24725 0.0
H424 H 0.05601 0.41113 0.4513 0.0
C425 C 0.01296 0.42546 0.24072 0.0
H426 H 0.05756 0.37524 0.3304 0.0
C427 C 0.01223 0.44618 0.31013 0.0
C428 C 0.02699 0.44084 0.38772 0.0
H429 H 1.00023 0.42933 0.18307 0.0
H430 H 0.99874 0.46539 0.30469 0.0
C431 C 0.04432 0.41573 0.39234 0.0
C432 C 0.89966 0.96918 0.78253 0.0
C433 C 0.90039 0.9923 0.84667 0.0
H434 H 0.92049 0.95199 0.66828 0.0
C435 C 0.92637 0.01395 0.84927 0.0
H436 H 0.88075 0.95147 0.77937 0.0
C437 C 0.9498 0.01355 0.78654 0.0
C438 C 0.94758 0.9918 0.71902 0.0
H439 H 0.92791 0.03228 0.89678 0.0
H440 H 0.96865 0.03139 0.78786 0.0
C441 C 0.92267 0.96922 0.71909 0.0
C442 C 0.56734 0.93504 0.88809 0.0
C443 C 0.54717 0.90889 0.90608 0.0
H444 H 0.57768 0.97431 0.80791 0.0
C445 C 0.52106 0.90288 0.85458 0.0
H446 H 0.58761 0.94045 0.92655 0.0
C447 C 0.51547 0.92212 0.78634 0.0
C448 C 0.53575 0.94808 0.76765 0.0
H449 H 0.50528 0.88271 0.86528 0.0
H450 H 0.49523 0.91644 0.74789 0.0
C451 C 0.56162 0.95447 0.82001 0.0
C452 C 0.62961 0.47296 0.71972 0.0
C453 C 0.62754 0.4905 0.79566 0.0
H454 H 0.61196 0.46187 0.59384 0.0
C455 C 0.60504 0.51113 0.80152 0.0
H456 H 0.64693 0.45715 0.71289 0.0
C457 C 0.58454 0.51348 0.7333 0.0
C458 C 0.58672 0.49577 0.65762 0.0
H459 H 0.60302 0.525 0.85921 0.0
H460 H 0.56735 0.5294 0.73919 0.0
C461 C 0.60967 0.47577 0.65137 0.0
C462 C 1.0062 0.58305 0.86699 0.0
C463 C 0.99158 0.61005 0.86139 0.0
H464 H 0.01817 0.54238 0.80223 0.0
C465 C 0.9748 0.61483 0.78681 0.0
H466 H 0.01906 0.57857 0.92393 0.0
C467 C 0.97444 0.59424 0.71717 0.0
C468 C 0.99061 0.56828 0.72075 0.0
H469 H 0.9635 0.63547 0.77996 0.0
H470 H 0.96263 0.59939 0.65889 0.0
C471 C 1.00555 0.56226 0.79753 0.0
C472 C 0.96053 0.10519 0.204 0.0
C473 C 0.94712 0.12927 0.24562 0.0
H474 H 0.97798 0.06166 0.21772 0.0
C475 C 0.93693 0.12567 0.33148 0.0
H476 H 0.96888 0.10751 0.13804 0.0
C477 C 0.94192 0.09934 0.37668 0.0
C478 C 0.9576 0.07644 0.33713 0.0
H479 H 0.92644 0.14385 0.3648 0.0
H480 H 0.9352 0.09784 0.44419 0.0
C481 C 0.96589 0.07904 0.2496 0.0
C482 C 0.36866 0.92829 0.38501 0.0
C483 C 0.37261 0.91837 0.29949 0.0
H484 H 0.39081 0.94426 0.50164 0.0
C485 C 0.40138 0.91014 0.27249 0.0
H486 H 0.34676 0.93491 0.40725 0.0
C487 C 0.42666 0.91572 0.32619 0.0
C488 C 0.42337 0.92956 0.40738 0.0
H489 H 0.40488 0.90227 0.20685 0.0
H490 H 0.44908 0.91181 0.30106 0.0
C491 C 0.39395 0.93392 0.43868 0.0
C492 C 0.47948 0.40162 0.17168 0.0
C493 C 0.4945 0.3768 0.20077 0.0
H494 H 0.47538 0.44976 0.18234 0.0
C495 C 0.52065 0.38295 0.25221 0.0
H496 H 0.45997 0.39813 0.12949 0.0
C497 C 0.53063 0.41278 0.27692 0.0
C498 C 0.51404 0.43696 0.25363 0.0
H499 H 0.53265 0.36473 0.27759 0.0
H500 H 0.5496 0.4165 0.32115 0.0
C501 C 0.48879 0.43136 0.19953 0.0
C502 C 0.11847 0.58778 0.22493 0.0
C503 C 0.14267 0.60264 0.2729 0.0
H504 H 0.07318 0.56476 0.22863 0.0
C505 C 0.13745 0.61072 0.35939 0.0
H506 H 0.12195 0.58099 0.15831 0.0
C507 C 0.10941 0.60161 0.39934 0.0
C508 C 0.08646 0.58386 0.35366 0.0
H509 H 0.15573 0.6222 0.39758 0.0
H510 H 0.10666 0.60636 0.46767 0.0
C511 C 0.09061 0.57827 0.26522 0.0
C512 C 0.09663 0.88137 0.78555 0.0
C513 C 0.08608 0.87771 0.87105 0.0
H514 H 0.09963 0.90974 0.67386 0.0
C515 C 0.07344 0.90212 0.91328 0.0
H516 H 0.10653 0.86292 0.75178 0.0
C517 C 0.06909 0.92873 0.86848 0.0
C518 C 0.07769 0.93146 0.7812 0.0
H519 H 0.06484 0.89976 0.97901 0.0
H520 H 0.05749 0.9464 0.90068 0.0
C521 C 0.09271 0.90816 0.74119 0.0
C522 C 0.63621 0.09815 0.85289 0.0
C523 C 0.66386 0.10162 0.8055 0.0
H524 H 0.58772 0.08699 0.84877 0.0
C525 C 0.66276 0.10231 0.71482 0.0
H526 H 0.63617 0.0973 0.92278 0.0
C527 C 0.63492 0.09606 0.6725 0.0
C528 C 0.6078 0.0892 0.72027 0.0
H529 H 0.68363 0.10545 0.6766 0.0
H530 H 0.63499 0.09436 0.60262 0.0
C531 C 0.60839 0.092 0.81053 0.0
C532 C 0.53059 0.61543 0.92303 0.0
C533 C 0.52151 0.64257 0.88834 0.0
H534 H 0.52722 0.56649 0.91515 0.0
C535 C 0.49817 0.64051 0.82668 0.0
H536 H 0.54772 0.61609 0.97286 0.0
C537 C 0.48548 0.6121 0.79695 0.0
C538 C 0.49642 0.58518 0.82644 0.0
H539 H 0.49066 0.66078 0.79797 0.0
H540 H 0.46877 0.61141 0.7459 0.0
C541 C 0.51837 0.58697 0.89164 0.0
C542 C 0.89965 0.42084 0.88688 0.0
C543 C 0.87536 0.40539 0.84052 0.0
H544 H 0.94454 0.44465 0.88033 0.0
C545 C 0.88016 0.39711 0.75394 0.0
H546 H 0.89651 0.42779 0.95352 0.0
C547 C 0.90777 0.40665 0.71228 0.0
C548 C 0.93072 0.42495 0.75639 0.0
H549 H 0.86182 0.38514 0.71699 0.0
H550 H 0.91015 0.40173 0.64393 0.0
C551 C 0.92708 0.43072 0.84492 0.0
C552 C 0.05882 0.12986 0.77803 0.0
C553 C 0.05448 0.15502 0.72556 0.0
H554 H 0.05752 0.08117 0.7877 0.0
C555 C 0.0482 0.14961 0.63754 0.0
H556 H 0.06321 0.13296 0.8464 0.0
C557 C 0.04451 0.11976 0.60419 0.0
C558 C 0.04714 0.09456 0.65787 0.0
H559 H 0.04514 0.1684 0.59492 0.0
H560 H 0.03861 0.11646 0.53674 0.0
C561 C 0.05529 0.10001 0.74454 0.0
C562 C 0.39585 0.05395 0.70074 0.0
C563 C 0.38054 0.02534 0.72246 0.0
H564 H 0.43737 0.07867 0.65408 0.0
C565 C 0.39636 0.99918 0.7112 0.0
H566 H 0.38445 0.07458 0.70837 0.0
C567 C 0.42666 1.00157 0.68086 0.0
C568 C 0.44202 0.03013 0.65994 0.0
H569 H 0.38572 0.97682 0.72902 0.0
H570 H 0.43832 0.98103 0.67604 0.0
C571 C 0.42617 0.05629 0.6695 0.0
C572 C 0.47921 0.3618 0.61148 0.0
C573 C 0.48757 0.35415 0.69518 0.0
H574 H 0.47613 0.39747 0.51942 0.0
C575 C 0.49843 0.37784 0.75223 0.0
H576 H 0.47064 0.34407 0.56633 0.0
C577 C 0.50086 0.40846 0.72631 0.0
C578 C 0.49306 0.41612 0.64208 0.0
H579 H 0.50465 0.37269 0.81758 0.0
H580 H 0.50943 0.42609 0.77178 0.0
C581 C 0.48232 0.39239 0.58484 0.0
C582 C 0.12434 0.48213 0.79907 0.0
C583 C 0.15183 0.49114 0.75435 0.0
H584 H 0.0754 0.47607 0.79603 0.0
C585 C 0.15009 0.49921 0.66686 0.0
H586 H 0.1245 0.47626 0.86677 0.0
C587 C 0.12173 0.49961 0.62662 0.0
C588 C 0.09429 0.49169 0.67245 0.0
H589 H 0.17066 0.50581 0.62967 0.0
H590 H 0.12134 0.50667 0.55985 0.0
C591 C 0.09601 0.48228 0.7586 0.0
C592 C 0.98697 0.85922 0.47962 0.0
C593 C 0.97966 0.85398 0.39214 0.0
H594 H 0.99824 0.89219 0.57993 0.0
C595 C 0.97546 0.87932 0.34025 0.0
H596 H 0.98999 0.8403 0.52182 0.0
C597 C 0.98 0.90913 0.37369 0.0
C598 C 0.98903 0.91437 0.45975 0.0
H599 H 0.97032 0.87635 0.27226 0.0
H600 H 0.97772 0.92806 0.33094 0.0
C601 C 0.99167 0.88903 0.51292 0.0
C602 C 0.62793 0.97001 0.34609 0.0
C603 C 0.65063 0.9922 0.37773 0.0
H604 H 0.58161 0.94945 0.35678 0.0
C605 C 0.64312 0.00963 0.45085 0.0
H606 H 0.63219 0.95633 0.28947 0.0
C607 C 0.61362 0.00624 0.48751 0.0
C608 C 0.59095 0.98482 0.45385 0.0
H609 H 0.65988 0.02627 0.47966 0.0
H610 H 0.60858 0.02032 0.54256 0.0
C611 C 0.59866 0.96616 0.38427 0.0
C612 C 0.53948 0.63927 0.35481 0.0
C613 C 0.5486 0.66206 0.41621 0.0
H614 H 0.52736 0.59159 0.32958 0.0
C615 C 0.55308 0.6535 0.50181 0.0
H616 H 0.53612 0.64533 0.28818 0.0
C617 C 0.54763 0.6227 0.52601 0.0
C618 C 0.53839 0.59982 0.4645 0.0
H619 H 0.56026 0.67065 0.55013 0.0
H620 H 0.55063 0.61682 0.59292 0.0
C621 C 0.53472 0.60849 0.37842 0.0
C622 C 0.86578 0.50983 0.44331 0.0
C623 C 0.86365 0.51698 0.35526 0.0
H624 H 0.89497 0.50335 0.55004 0.0
C625 C 0.89098 0.52545 0.30909 0.0
H626 H 0.84537 0.5037 0.48165 0.0
C627 C 0.91951 0.52564 0.3488 0.0
C628 C 0.92158 0.51709 0.4356 0.0
H629 H 0.89054 0.53062 0.24095 0.0
H630 H 0.93999 0.53137 0.31035 0.0
C631 C 0.89432 0.50973 0.48276 0.0
loop_
_geom_bond_atom_site_label_1
_geom_bond_atom_site_label_2
_geom_bond_distance
_geom_bond_site_symmetry_2
_ccdc_geom_bond_type
C0 C1 1.386 . S
C0 C2 1.397 . S
C0 H24 0.931 . S
C1 C0 1.386 . S
C1 C5 1.397 . S
C2 C0 1.397 . S
C2 C3 1.384 . S
C2 H25 0.930 . S
C3 C2 1.384 . S
C3 C4 1.377 . S
C3 C6 1.481 . S
C4 C3 1.377 . S
C4 C5 1.389 . S
C4 H26 0.929 . S
C5 C1 1.397 . S
C5 C4 1.389 . S
C5 H27 0.931 . S
C6 C3 1.481 . S
C6 C7 1.387 . S
C6 C11 1.390 1_556 S
C7 C6 1.387 . S
C7 C8 1.401 1_556 S
C7 H28 0.930 . S
C8 C7 1.401 1_554 S
C8 C9 1.376 . S
C8 C17 1.508 1_554 S
C9 C8 1.376 . S
C9 C10 1.392 . S
C9 H30 0.931 . S
C10 C9 1.392 . S
C10 C11 1.361 . S
C10 C12 1.500 . S
C11 C6 1.390 1_554 S
C11 C10 1.361 . S
C11 H29 0.931 . S
C12 C10 1.500 . S
C12 C13 1.371 . S
C12 C14 1.365 . S
C13 C12 1.371 . S
C13 C23 1.386 . S
C13 H31 0.931 . S
C14 C12 1.365 . S
C14 C15 1.409 . S
C14 H32 0.929 . S
C15 C14 1.409 . S
C15 C16 1.380 . S
C15 H33 0.930 . S
C16 C15 1.380 . S
C16 C23 1.357 . S
C17 C8 1.508 1_556 S
C17 C18 1.353 . S
C17 C19 1.363 1_556 S
C18 C17 1.353 . S
C18 C22 1.394 . S
C18 H34 0.930 . S
C19 C17 1.363 1_554 S
C19 C20 1.392 . S
C19 H35 0.931 . S
C20 C19 1.392 . S
C20 C21 1.331 1_554 S
C20 H38 0.932 . S
C21 C20 1.331 1_556 S
C21 C22 1.336 . S
C22 C18 1.394 . S
C22 C21 1.336 . S
C22 H37 0.929 . S
C23 C13 1.386 . S
C23 C16 1.357 . S
C23 H36 0.928 . S
H24 C0 0.931 . S
H25 C2 0.930 . S
H26 C4 0.929 . S
H27 C5 0.931 . S
H28 C7 0.930 . S
H29 C11 0.931 . S
H30 C9 0.931 . S
H31 C13 0.931 . S
H32 C14 0.929 . S
H33 C15 0.930 . S
H34 C18 0.930 . S
H35 C19 0.931 . S
H36 C23 0.928 . S
H37 C22 0.929 . S
H38 C20 0.932 . S
C39 C40 1.386 . S
C39 C41 1.397 . S
C39 H63 0.931 . S
C40 C39 1.386 . S
C40 C44 1.397 . S
C41 C39 1.397 . S
C41 C42 1.384 . S
C41 H64 0.930 . S
C42 C41 1.384 . S
C42 C43 1.377 . S
C42 C45 1.481 . S
C43 C42 1.377 . S
C43 C44 1.389 . S
C43 H65 0.929 . S
C44 C40 1.397 . S
C44 C43 1.389 . S
C44 H66 0.931 . S
C45 C42 1.481 . S
C45 C46 1.387 . S
C45 C50 1.390 1_556 S
C46 C45 1.387 . S
C46 C47 1.401 1_556 S
C46 H67 0.930 . S
C47 C46 1.401 1_554 S
C47 C48 1.376 . S
C47 C56 1.511 1_554 S
C48 C47 1.376 . S
C48 C49 1.392 . S
C48 H69 0.931 . S
C49 C48 1.392 . S
C49 C50 1.361 . S
C49 C51 1.500 . S
C50 C45 1.390 1_554 S
C50 C49 1.361 . S
C50 H68 0.931 . S
C51 C49 1.500 . S
C51 C52 1.371 . S
C51 C53 1.365 . S
C52 C51 1.371 . S
C52 C62 1.386 . S
C52 H70 0.931 . S
C53 C51 1.365 . S
C53 C54 1.409 . S
C53 H71 0.929 . S
C54 C53 1.409 . S
C54 C55 1.380 . S
C54 H72 0.930 . S
C55 C54 1.380 . S
C55 C62 1.357 . S
C56 C47 1.511 1_556 S
C56 C57 1.341 . S
C56 C58 1.371 1_556 S
C57 C56 1.341 . S
C57 C61 1.394 . S
C57 H73 0.930 . S
C58 C56 1.371 1_554 S
C58 C59 1.392 . S
C58 H74 0.931 . S
C59 C58 1.392 . S
C59 C60 1.331 1_554 S
C59 H77 0.932 . S
C60 C59 1.331 1_556 S
C60 C61 1.336 . S
C61 C57 1.394 . S
C61 C60 1.336 . S
C61 H76 0.929 . S
C62 C52 1.386 . S
C62 C55 1.357 . S
C62 H75 0.928 . S
H63 C39 0.931 . S
H64 C41 0.930 . S
H65 C43 0.929 . S
H66 C44 0.931 . S
H67 C46 0.930 . S
H68 C50 0.931 . S
H69 C48 0.931 . S
H70 C52 0.931 . S
H71 C53 0.929 . S
H72 C54 0.930 . S
H73 C57 0.930 . S
H74 C58 0.931 . S
H75 C62 0.928 . S
H76 C61 0.929 . S
H77 C59 0.932 . S
C78 C79 1.395 . S
C78 C80 1.397 . S
C78 H102 0.931 . S
C79 C78 1.395 . S
C79 C83 1.389 1_565 S
C80 C78 1.397 . S
C80 C81 1.389 . S
C80 H103 0.930 . S
C81 C80 1.389 . S
C81 C82 1.372 1_565 S
C81 C84 1.478 . S
C82 C81 1.372 1_545 S
C82 C83 1.389 . S
C82 H104 0.929 . S
C83 C79 1.389 1_545 S
C83 C82 1.389 . S
C83 H105 0.931 . S
C84 C81 1.478 . S
C84 C85 1.392 . S
C84 C89 1.390 1_556 S
C85 C84 1.392 . S
C85 C86 1.399 1_556 S
C85 H106 0.930 . S
C86 C85 1.399 1_554 S
C86 C87 1.376 . S
C86 C95 1.516 . S
C87 C86 1.376 . S
C87 C88 1.393 . S
C87 H108 0.931 . S
C88 C87 1.393 . S
C88 C89 1.362 . S
C88 C90 1.499 1_565 S
C89 C84 1.390 1_554 S
C89 C88 1.362 . S
C89 H107 0.930 . S
C90 C88 1.499 1_545 S
C90 C91 1.359 1_545 S
C90 C92 1.378 . S
C91 C90 1.359 1_565 S
C91 C101 1.386 . S
C91 H109 0.931 . S
C92 C90 1.378 . S
C92 C93 1.409 . S
C92 H110 0.929 . S
C93 C92 1.409 . S
C93 C94 1.380 . S
C93 H111 0.930 . S
C94 C93 1.380 . S
C94 C101 1.357 1_545 S
C95 C86 1.516 . S
C95 C96 1.341 1_554 S
C95 C97 1.371 1_565 S
C96 C95 1.341 1_556 S
C96 C100 1.394 . S
C96 H112 0.930 . S
C97 C95 1.371 1_545 S
C97 C98 1.392 . S
C97 H113 0.931 . S
C98 C97 1.392 . S
C98 C99 1.322 1_544 S
C98 H116 0.932 . S
C99 C98 1.322 1_566 S
C99 C100 1.343 . S
C100 C96 1.394 . S
C100 C99 1.343 . S
C100 H115 0.929 . S
C101 C91 1.386 . S
C101 C94 1.357 1_565 S
C101 H114 0.928 . S
H102 C78 0.931 . S
H103 C80 0.930 . S
H104 C82 0.929 . S
H105 C83 0.931 . S
H106 C85 0.930 . S
H107 C89 0.930 . S
H108 C87 0.931 . S
H109 C91 0.931 . S
H110 C92 0.929 . S
H111 C93 0.930 . S
H112 C96 0.930 . S
H113 C97 0.931 . S
H114 C101 0.928 . S
H115 C100 0.929 . S
H116 C98 0.932 . S
C117 C118 1.386 . S
C117 C119 1.397 . S
C117 H141 0.931 . S
C118 C117 1.386 . S
C118 C122 1.397 . S
C119 C117 1.397 . S
C119 C120 1.384 . S
C119 H142 0.930 . S
C120 C119 1.384 . S
C120 C121 1.377 . S
C120 C123 1.481 . S
C121 C120 1.377 . S
C121 C122 1.389 . S
C121 H143 0.929 . S
C122 C118 1.397 . S
C122 C121 1.389 . S
C122 H144 0.931 . S
C123 C120 1.481 . S
C123 C124 1.387 . S
C123 C128 1.390 . S
C124 C123 1.387 . S
C124 C125 1.401 . S
C124 H145 0.930 . S
C125 C124 1.401 . S
C125 C126 1.376 1_554 S
C125 C134 1.511 . S
C126 C125 1.376 1_556 S
C126 C127 1.392 1_556 S
C126 H147 0.931 . S
C127 C126 1.392 1_554 S
C127 C128 1.361 . S
C127 C129 1.500 1_554 S
C128 C123 1.390 . S
C128 C127 1.361 . S
C128 H146 0.931 . S
C129 C127 1.500 1_556 S
C129 C130 1.371 . S
C129 C131 1.365 . S
C130 C129 1.371 . S
C130 C140 1.386 . S
C130 H148 0.931 . S
C131 C129 1.365 . S
C131 C132 1.409 . S
C131 H149 0.929 . S
C132 C131 1.409 . S
C132 C133 1.380 . S
C132 H150 0.930 . S
C133 C132 1.380 . S
C133 C140 1.357 . S
C134 C125 1.511 . S
C134 C135 1.341 . S
C134 C136 1.371 1_554 S
C135 C134 1.341 . S
C135 C139 1.394 . S
C135 H151 0.930 . S
C136 C134 1.371 1_556 S
C136 C137 1.392 . S
C136 H152 0.931 . S
C137 C136 1.392 . S
C137 C138 1.331 . S
C137 H155 0.932 . S
C138 C137 1.331 . S
C138 C139 1.336 1_556 S
C139 C135 1.394 . S
C139 C138 1.336 1_554 S
C139 H154 0.929 . S
C140 C130 1.386 . S
C140 C133 1.357 . S
C140 H153 0.928 . S
H141 C117 0.931 . S
H142 C119 0.930 . S
H143 C121 0.929 . S
H144 C122 0.931 . S
H145 C124 0.930 . S
H146 C128 0.931 . S
H147 C126 0.931 . S
H148 C130 0.931 . S
H149 C131 0.929 . S
H150 C132 0.930 . S
H151 C135 0.930 . S
H152 C136 0.931 . S
H153 C140 0.928 . S
H154 C139 0.929 . S
H155 C137 0.932 . S
C156 C157 1.386 . S
C156 C158 1.397 . S
C156 H180 0.931 . S
C157 C156 1.386 . S
C157 C161 1.397 . S
C158 C156 1.397 . S
C158 C159 1.384 . S
C158 H181 0.930 . S
C159 C158 1.384 . S
C159 C160 1.377 . S
C159 C162 1.481 . S
C160 C159 1.377 . S
C160 C161 1.389 . S
C160 H182 0.929 . S
C161 C157 1.397 . S
C161 C160 1.389 . S
C161 H183 0.931 . S
C162 C159 1.481 . S
C162 C163 1.387 . S
C162 C167 1.390 . S
C163 C162 1.387 . S
C163 C164 1.401 . S
C163 H184 0.930 . S
C164 C163 1.401 . S
C164 C165 1.376 1_554 S
C164 C173 1.511 . S
C165 C164 1.376 1_556 S
C165 C166 1.392 . S
C165 H186 0.931 . S
C166 C165 1.392 . S
C166 C167 1.361 1_556 S
C166 C168 1.500 . S
C167 C162 1.390 . S
C167 C166 1.361 1_554 S
C167 H185 0.931 . S
C168 C166 1.500 . S
C168 C169 1.371 . S
C168 C170 1.365 . S
C169 C168 1.371 . S
C169 C179 1.386 . S
C169 H187 0.931 . S
C170 C168 1.365 . S
C170 C171 1.409 . S
C170 H188 0.929 . S
C171 C170 1.409 . S
C171 C172 1.380 . S
C171 H189 0.930 . S
C172 C171 1.380 . S
C172 C179 1.357 . S
C173 C164 1.511 . S
C173 C174 1.341 . S
C173 C175 1.371 . S
C174 C173 1.341 . S
C174 C178 1.394 . S
C174 H190 0.930 . S
C175 C173 1.371 . S
C175 C176 1.392 . S
C175 H191 0.931 1_554 S
C176 C175 1.392 . S
C176 C177 1.331 . S
C176 H194 0.932 . S
C177 C176 1.331 . S
C177 C178 1.336 . S
C178 C174 1.394 . S
C178 C177 1.336 . S
C178 H193 0.929 . S
C179 C169 1.386 . S
C179 C172 1.357 . S
C179 H192 0.928 . S
H180 C156 0.931 . S
H181 C158 0.930 . S
H182 C160 0.929 . S
H183 C161 0.931 . S
H184 C163 0.930 . S
H185 C167 0.931 . S
H186 C165 0.931 . S
H187 C169 0.931 . S
H188 C170 0.929 . S
H189 C171 0.930 . S
H190 C174 0.930 . S
H191 C175 0.931 1_556 S
H192 C179 0.928 . S
H193 C178 0.929 . S
H194 C176 0.932 . S
C195 C196 1.386 . S
C195 C197 1.397 . S
C195 H219 0.931 . S
C196 C195 1.386 . S
C196 C200 1.397 . S
C197 C195 1.397 . S
C197 C198 1.384 . S
C197 H220 0.930 . S
C198 C197 1.384 . S
C198 C199 1.377 . S
C198 C201 1.481 . S
C199 C198 1.377 . S
C199 C200 1.389 . S
C199 H221 0.929 . S
C200 C196 1.397 . S
C200 C199 1.389 . S
C200 H222 0.931 . S
C201 C198 1.481 . S
C201 C202 1.387 . S
C201 C206 1.390 . S
C202 C201 1.387 . S
C202 C203 1.401 . S
C202 H223 0.930 . S
C203 C202 1.401 . S
C203 C204 1.376 . S
C203 C212 1.511 . S
C204 C203 1.376 . S
C204 C205 1.392 1_554 S
C204 H225 0.931 1_554 S
C205 C204 1.392 1_556 S
C205 C206 1.361 1_556 S
C205 C207 1.500 . S
C206 C201 1.390 . S
C206 C205 1.361 1_554 S
C206 H224 0.931 . S
C207 C205 1.500 . S
C207 C208 1.371 . S
C207 C209 1.365 . S
C208 C207 1.371 . S
C208 C218 1.386 . S
C208 H226 0.931 . S
C209 C207 1.365 . S
C209 C210 1.409 . S
C209 H227 0.929 . S
C210 C209 1.409 . S
C210 C211 1.380 . S
C210 H228 0.930 . S
C211 C210 1.380 . S
C211 C218 1.357 . S
C212 C203 1.511 . S
C212 C213 1.341 . S
C212 C214 1.371 . S
C213 C212 1.341 . S
C213 C217 1.394 . S
C213 H229 0.930 . S
C214 C212 1.371 . S
C214 C215 1.392 . S
C214 H230 0.931 . S
C215 C214 1.392 . S
C215 C216 1.331 . S
C215 H233 0.932 . S
C216 C215 1.331 . S
C216 C217 1.336 . S
C217 C213 1.394 . S
C217 C216 1.336 . S
C217 H232 0.929 . S
C218 C208 1.386 . S
C218 C211 1.357 . S
C218 H231 0.928 . S
H219 C195 0.931 . S
H220 C197 0.930 . S
H221 C199 0.929 . S
H222 C200 0.931 . S
H223 C202 0.930 . S
H224 C206 0.931 . S
H225 C204 0.931 1_556 S
H226 C208 0.931 . S
H227 C209 0.929 . S
H228 C210 0.930 . S
H229 C213 0.930 . S
H230 C214 0.931 . S
H231 C218 0.928 . S
H232 C217 0.929 . S
H233 C215 0.932 . S
C234 C235 1.389 . S
C234 C236 1.397 . S
C234 H258 0.931 . S
C235 C234 1.389 . S
C235 C239 1.394 1_565 S
C236 C234 1.397 . S
C236 C237 1.383 . S
C236 H259 0.930 . S
C237 C236 1.383 . S
C237 C238 1.378 1_565 S
C237 C240 1.483 . S
C238 C237 1.378 1_545 S
C238 C239 1.389 . S
C238 H260 0.929 . S
C239 C235 1.394 1_545 S
C239 C238 1.389 . S
C239 H261 0.931 . S
C240 C237 1.483 . S
C240 C241 1.386 . S
C240 C245 1.390 . S
C241 C240 1.386 . S
C241 C242 1.404 . S
C241 H262 0.930 . S
C242 C241 1.404 . S
C242 C243 1.376 1_554 S
C242 C251 1.510 . S
C243 C242 1.376 1_556 S
C243 C244 1.395 . S
C243 H264 0.930 . S
C244 C243 1.395 . S
C244 C245 1.360 1_556 S
C244 C246 1.499 1_565 S
C245 C240 1.390 . S
C245 C244 1.360 1_554 S
C245 H263 0.932 . S
C246 C244 1.499 1_545 S
C246 C247 1.359 1_545 S
C246 C248 1.378 . S
C247 C246 1.359 1_565 S
C247 C257 1.386 . S
C247 H265 0.931 . S
C248 C246 1.378 . S
C248 C249 1.409 . S
C248 H266 0.929 . S
C249 C248 1.409 . S
C249 C250 1.384 . S
C249 H267 0.930 . S
C250 C249 1.384 . S
C250 C257 1.354 1_545 S
C251 C242 1.510 . S
C251 C252 1.341 . S
C251 C253 1.371 1_565 S
C252 C251 1.341 . S
C252 C256 1.394 . S
C252 H268 0.930 . S
C253 C251 1.371 1_545 S
C253 C254 1.392 . S
C253 H269 0.931 1_554 S
C254 C253 1.392 . S
C254 C255 1.325 1_545 S
C254 H272 0.932 . S
C255 C254 1.325 1_565 S
C255 C256 1.344 . S
C256 C252 1.394 . S
C256 C255 1.344 . S
C256 H271 0.929 . S
C257 C247 1.386 . S
C257 C250 1.354 1_565 S
C257 H270 0.928 . S
H258 C234 0.931 . S
H259 C236 0.930 . S
H260 C238 0.929 . S
H261 C239 0.931 . S
H262 C241 0.930 . S
H263 C245 0.932 . S
H264 C243 0.930 . S
H265 C247 0.931 . S
H266 C248 0.929 . S
H267 C249 0.930 . S
H268 C252 0.930 . S
H269 C253 0.931 1_556 S
H270 C257 0.928 . S
H271 C256 0.929 . S
H272 C254 0.932 . S
C273 C274 1.386 . S
C273 C275 1.397 . S
C273 H297 0.931 . S
C274 C273 1.386 . S
C274 C278 1.397 . S
C275 C273 1.397 . S
C275 C276 1.384 . S
C275 H298 0.930 . S
C276 C275 1.384 . S
C276 C277 1.377 . S
C276 C279 1.481 . S
C277 C276 1.377 . S
C277 C278 1.389 . S
C277 H299 0.929 . S
C278 C274 1.397 . S
C278 C277 1.389 . S
C278 H300 0.931 . S
C279 C276 1.481 . S
C279 C280 1.387 . S
C279 C284 1.390 1_556 S
C280 C279 1.387 . S
C280 C281 1.401 1_556 S
C280 H301 0.930 . S
C281 C280 1.401 1_554 S
C281 C282 1.376 . S
C281 C290 1.511 . S
C282 C281 1.376 . S
C282 C283 1.392 . S
C282 H303 0.931 . S
C283 C282 1.392 . S
C283 C284 1.361 . S
C283 C285 1.500 . S
C284 C279 1.390 1_554 S
C284 C283 1.361 . S
C284 H302 0.931 1_554 S
C285 C283 1.500 . S
C285 C286 1.371 . S
C285 C287 1.365 . S
C286 C285 1.371 . S
C286 C296 1.386 . S
C286 H304 0.931 . S
C287 C285 1.365 . S
C287 C288 1.409 . S
C287 H305 0.929 . S
C288 C287 1.409 . S
C288 C289 1.380 . S
C288 H306 0.930 . S
C289 C288 1.380 . S
C289 C296 1.357 . S
C290 C281 1.511 . S
C290 C291 1.341 . S
C290 C292 1.371 . S
C291 C290 1.341 . S
C291 C295 1.394 . S
C291 H307 0.930 1_554 S
C292 C290 1.371 . S
C292 C293 1.392 . S
C292 H308 0.931 . S
C293 C292 1.392 . S
C293 C294 1.331 . S
C293 H311 0.932 . S
C294 C293 1.331 . S
C294 C295 1.336 . S
C295 C291 1.394 . S
C295 C294 1.336 . S
C295 H310 0.929 1_554 S
C296 C286 1.386 . S
C296 C289 1.357 . S
C296 H309 0.928 . S
H297 C273 0.931 . S
H298 C275 0.930 . S
H299 C277 0.929 . S
H300 C278 0.931 . S
H301 C280 0.930 . S
H302 C284 0.931 1_556 S
H303 C282 0.931 . S
H304 C286 0.931 . S
H305 C287 0.929 . S
H306 C288 0.930 . S
H307 C291 0.930 1_556 S
H308 C292 0.931 . S
H309 C296 0.928 . S
H310 C295 0.929 1_556 S
H311 C293 0.932 . S
Dy312 O316 2.398 . S
Dy312 O317 2.491 1_455 S
Dy312 O318 2.403 . S
Dy312 O319 2.664 1_565 S
Dy312 O323 2.326 . S
Dy312 O327 2.310 1_455 S
Dy312 O328 2.351 1_565 S
C313 O324 1.185 1_455 S
C313 O325 1.355 . S
C314 O316 1.185 . S
C314 O317 1.355 1_455 S
Dy315 O319 2.310 1_655 S
Dy315 O322 2.351 1_545 S
Dy315 O324 2.398 . S
Dy315 O325 2.491 1_655 S
Dy315 O326 2.403 . S
Dy315 O327 2.664 1_545 S
Dy315 O329 2.326 1_655 S
O316 Dy312 2.398 . S
O316 C314 1.185 . S
O317 Dy312 2.491 1_655 S
O317 C314 1.355 1_655 S
O318 Dy312 2.403 . S
O318 C320 1.254 . S
O319 Dy312 2.664 1_545 S
O319 Dy315 2.310 1_455 S
O319 C320 1.268 1_545 S
C320 O318 1.254 . S
C320 O319 1.268 1_565 S
C321 O326 1.254 . S
C321 O327 1.268 1_545 S
O322 Dy315 2.351 1_565 S
O322 C330 1.249 . S
O323 Dy312 2.326 . S
O323 C330 1.267 1_455 S
O324 C313 1.185 1_655 S
O324 Dy315 2.398 . S
O325 C313 1.355 . S
O325 Dy315 2.491 1_455 S
O326 Dy315 2.403 . S
O326 C321 1.254 . S
O327 Dy312 2.310 1_655 S
O327 Dy315 2.664 1_565 S
O327 C321 1.268 1_565 S
O328 Dy312 2.351 1_545 S
O328 C331 1.249 . S
O329 Dy315 2.326 1_455 S
O329 C331 1.267 . S
C330 O322 1.249 . S
C330 O323 1.267 1_655 S
C331 O328 1.249 . S
C331 O329 1.267 . S
Dy332 O336 2.398 . S
Dy332 O337 2.491 . S
Dy332 O338 2.403 . S
Dy332 O339 2.664 . S
Dy332 O343 2.326 1_565 S
Dy332 O347 2.310 1_565 S
Dy332 O348 2.351 . S
C333 O344 1.185 . S
C333 O345 1.355 . S
C334 O336 1.185 . S
C334 O337 1.355 . S
Dy335 O339 2.310 1_545 S
Dy335 O342 2.351 . S
Dy335 O344 2.398 . S
Dy335 O345 2.491 . S
Dy335 O346 2.403 . S
Dy335 O347 2.664 . S
Dy335 O349 2.326 1_545 S
O336 Dy332 2.398 . S
O336 C334 1.185 . S
O337 Dy332 2.491 . S
O337 C334 1.355 . S
O338 Dy332 2.403 . S
O338 C340 1.254 . S
O339 Dy332 2.664 . S
O339 Dy335 2.310 1_565 S
O339 C340 1.268 . S
C340 O338 1.254 . S
C340 O339 1.268 . S
C341 O346 1.254 . S
C341 O347 1.268 . S
O342 Dy335 2.351 . S
O342 C350 1.249 . S
O343 Dy332 2.326 1_545 S
O343 C350 1.267 . S
O344 C333 1.185 . S
O344 Dy335 2.398 . S
O345 C333 1.355 . S
O345 Dy335 2.491 . S
O346 Dy335 2.403 . S
O346 C341 1.254 . S
O347 Dy332 2.310 1_545 S
O347 Dy335 2.664 . S
O347 C341 1.268 . S
O348 Dy332 2.351 . S
O348 C351 1.249 . S
O349 Dy335 2.326 1_565 S
O349 C351 1.267 . S
C350 O342 1.249 . S
C350 O343 1.267 . S
C351 O348 1.249 . S
C351 O349 1.267 . S
Dy352 O356 2.398 . S
Dy352 O357 2.491 . S
Dy352 O358 2.403 . S
Dy352 O359 2.664 . S
Dy352 O363 2.326 . S
Dy352 O367 2.310 . S
Dy352 O368 2.351 . S
C353 O364 1.185 . S
C353 O365 1.355 . S
C354 O356 1.185 . S
C354 O357 1.355 . S
Dy355 O359 2.310 . S
Dy355 O362 2.351 . S
Dy355 O364 2.398 . S
Dy355 O365 2.491 . S
Dy355 O366 2.403 . S
Dy355 O367 2.664 . S
Dy355 O369 2.326 . S
O356 Dy352 2.398 . S
O356 C354 1.185 . S
O357 Dy352 2.491 . S
O357 C354 1.355 . S
O358 Dy352 2.403 . S
O358 C360 1.254 . S
O359 Dy352 2.664 . S
O359 Dy355 2.310 . S
O359 C360 1.268 . S
C360 O358 1.254 . S
C360 O359 1.268 . S
C361 O366 1.254 . S
C361 O367 1.268 . S
O362 Dy355 2.351 . S
O362 C370 1.249 . S
O363 Dy352 2.326 . S
O363 C370 1.267 . S
O364 C353 1.185 . S
O364 Dy355 2.398 . S
O365 C353 1.355 . S
O365 Dy355 2.491 . S
O366 Dy355 2.403 . S
O366 C361 1.254 . S
O367 Dy352 2.310 . S
O367 Dy355 2.664 . S
O367 C361 1.268 . S
O368 Dy352 2.351 . S
O368 C371 1.249 . S
O369 Dy355 2.326 . S
O369 C371 1.267 . S
C370 O362 1.249 . S
C370 O363 1.267 . S
C371 O368 1.249 . S
C371 O369 1.267 . S
Dy372 O376 2.398 . S
Dy372 O377 2.491 . S
Dy372 O378 2.410 . S
Dy372 O379 2.664 1_655 S
Dy372 O383 2.326 . S
Dy372 O387 2.310 . S
Dy372 O388 2.351 1_655 S
C373 O384 1.185 . S
C373 O385 1.355 . S
C374 O376 1.185 . S
C374 O377 1.355 . S
Dy375 O379 2.310 . S
Dy375 O382 2.351 1_455 S
Dy375 O384 2.398 . S
Dy375 O385 2.491 . S
Dy375 O386 2.403 . S
Dy375 O387 2.664 1_455 S
Dy375 O389 2.326 . S
O376 Dy372 2.398 . S
O376 C374 1.185 . S
O377 Dy372 2.491 . S
O377 C374 1.355 . S
O378 Dy372 2.410 . S
O378 C380 1.243 1_655 S
O379 Dy372 2.664 1_455 S
O379 Dy375 2.310 . S
O379 C380 1.268 . S
C380 O378 1.243 1_455 S
C380 O379 1.268 . S
C381 O386 1.254 1_655 S
C381 O387 1.268 . S
O382 Dy375 2.351 1_655 S
O382 C390 1.249 . S
O383 Dy372 2.326 . S
O383 C390 1.267 . S
O384 C373 1.185 . S
O384 Dy375 2.398 . S
O385 C373 1.355 . S
O385 Dy375 2.491 . S
O386 Dy375 2.403 . S
O386 C381 1.254 1_455 S
O387 Dy372 2.310 . S
O387 Dy375 2.664 1_655 S
O387 C381 1.268 . S
O388 Dy372 2.351 1_455 S
O388 C391 1.249 . S
O389 Dy375 2.326 . S
O389 C391 1.267 . S
C390 O382 1.249 . S
C390 O383 1.267 . S
C391 O388 1.249 . S
C391 O389 1.267 . S
C392 C393 1.357 1_545 S
C392 H396 0.950 . S
C392 C401 1.390 . S
C393 C392 1.357 1_565 S
C393 C395 1.419 . S
H394 C401 0.950 . S
C395 C393 1.419 . S
C395 C397 1.390 . S
C395 H399 0.950 . S
H396 C392 0.950 . S
C397 C395 1.390 . S
C397 C398 1.387 . S
C397 H400 0.950 . S
C398 C397 1.387 . S
C398 C401 1.387 1_565 S
H399 C395 0.950 . S
H400 C397 0.950 . S
C401 C392 1.390 . S
C401 H394 0.950 . S
C401 C398 1.387 1_545 S
C402 C403 1.387 . S
C402 H406 0.950 . S
C402 C411 1.390 . S
C403 C402 1.387 . S
C403 C405 1.387 . S
H404 C411 0.950 . S
C405 C403 1.387 . S
C405 C407 1.390 . S
C405 H409 0.950 . S
H406 C402 0.950 . S
C407 C405 1.390 . S
C407 C408 1.387 . S
C407 H410 0.950 . S
C408 C407 1.387 . S
C408 C411 1.387 . S
H409 C405 0.950 . S
H410 C407 0.950 . S
C411 C402 1.390 . S
C411 H404 0.950 . S
C411 C408 1.387 . S
C412 C413 1.387 . S
C412 H416 0.950 . S
C412 C421 1.390 . S
C413 C412 1.387 . S
C413 C415 1.387 . S
H414 C421 0.950 . S
C415 C413 1.387 . S
C415 C417 1.390 . S
C415 H419 0.950 . S
H416 C412 0.950 . S
C417 C415 1.390 . S
C417 C418 1.387 . S
C417 H420 0.950 . S
C418 C417 1.387 . S
C418 C421 1.387 . S
H419 C415 0.950 . S
H420 C417 0.950 . S
C421 C412 1.390 . S
C421 H414 0.950 . S
C421 C418 1.387 . S
C422 C423 1.387 . S
C422 H426 0.950 . S
C422 C431 1.390 . S
C423 C422 1.387 . S
C423 C425 1.387 . S
H424 C431 0.950 . S
C425 C423 1.387 . S
C425 C427 1.390 . S
C425 H429 0.950 . S
H426 C422 0.950 . S
C427 C425 1.390 . S
C427 C428 1.387 . S
C427 H430 0.950 . S
C428 C427 1.387 . S
C428 C431 1.387 . S
H429 C425 0.950 . S
H430 C427 0.950 . S
C431 C422 1.390 . S
C431 H424 0.950 . S
C431 C428 1.387 . S
C432 C433 1.387 1_565 S
C432 H436 0.950 . S
C432 C441 1.390 . S
C433 C432 1.387 1_545 S
C433 C435 1.387 . S
H434 C441 0.950 . S
C435 C433 1.387 . S
C435 C437 1.390 . S
C435 H439 0.950 . S
H436 C432 0.950 . S
C437 C435 1.390 . S
C437 C438 1.387 . S
C437 H440 0.950 . S
C438 C437 1.387 . S
C438 C441 1.387 1_545 S
H439 C435 0.950 . S
H440 C437 0.950 . S
C441 C432 1.390 . S
C441 H434 0.950 . S
C441 C438 1.387 1_565 S
C442 C443 1.387 . S
C442 H446 0.950 . S
C442 C451 1.390 . S
C443 C442 1.387 . S
C443 C445 1.387 . S
H444 C451 0.950 . S
C445 C443 1.387 . S
C445 C447 1.390 . S
C445 H449 0.950 . S
H446 C442 0.950 . S
C447 C445 1.390 . S
C447 C448 1.387 . S
C447 H450 0.950 . S
C448 C447 1.387 . S
C448 C451 1.387 . S
H449 C445 0.950 . S
H450 C447 0.950 . S
C451 C442 1.390 . S
C451 H444 0.950 . S
C451 C448 1.387 . S
C452 C453 1.387 . S
C452 H456 0.950 . S
C452 C461 1.390 . S
C453 C452 1.387 . S
C453 C455 1.387 . S
H454 C461 0.950 . S
C455 C453 1.387 . S
C455 C457 1.390 . S
C455 H459 0.950 . S
H456 C452 0.950 . S
C457 C455 1.390 . S
C457 C458 1.387 . S
C457 H460 0.950 . S
C458 C457 1.387 . S
C458 C461 1.387 . S
H459 C455 0.950 . S
H460 C457 0.950 . S
C461 C452 1.390 . S
C461 H454 0.950 . S
C461 C458 1.387 . S
C462 C463 1.387 . S
C462 H466 0.950 . S
C462 C471 1.390 . S
C463 C462 1.387 . S
C463 C465 1.387 . S
H464 C471 0.950 . S
C465 C463 1.387 . S
C465 C467 1.390 . S
C465 H469 0.950 . S
H466 C462 0.950 . S
C467 C465 1.390 . S
C467 C468 1.387 . S
C467 H470 0.950 . S
C468 C467 1.387 . S
C468 C471 1.387 . S
H469 C465 0.950 . S
H470 C467 0.950 . S
C471 C462 1.390 . S
C471 H464 0.950 . S
C471 C468 1.387 . S
C472 C473 1.387 . S
C472 H476 0.950 . S
C472 C481 1.390 . S
C473 C472 1.387 . S
C473 C475 1.387 . S
H474 C481 0.950 . S
C475 C473 1.387 . S
C475 C477 1.390 . S
C475 H479 0.950 . S
H476 C472 0.950 . S
C477 C475 1.390 . S
C477 C478 1.387 . S
C477 H480 0.950 . S
C478 C477 1.387 . S
C478 C481 1.387 . S
H479 C475 0.950 . S
H480 C477 0.950 . S
C481 C472 1.390 . S
C481 H474 0.950 . S
C481 C478 1.387 . S
C482 C483 1.380 1_565 S
C482 H486 0.950 . S
C482 C491 1.390 . S
C483 C482 1.380 1_545 S
C483 C485 1.392 . S
H484 C491 0.950 . S
C485 C483 1.392 . S
C485 C487 1.390 . S
C485 H489 0.950 . S
H486 C482 0.950 . S
C487 C485 1.390 . S
C487 C488 1.387 1_545 S
C487 H490 0.950 . S
C488 C487 1.387 1_565 S
C488 C491 1.387 . S
H489 C485 0.950 . S
H490 C487 0.950 . S
C491 C482 1.390 . S
C491 H484 0.950 . S
C491 C488 1.387 . S
C492 C493 1.387 . S
C492 H496 0.950 . S
C492 C501 1.390 . S
C493 C492 1.387 . S
C493 C495 1.387 . S
H494 C501 0.950 . S
C495 C493 1.387 . S
C495 C497 1.390 . S
C495 H499 0.950 . S
H496 C492 0.950 . S
C497 C495 1.390 . S
C497 C498 1.387 . S
C497 H500 0.950 . S
C498 C497 1.387 . S
C498 C501 1.387 . S
H499 C495 0.950 . S
H500 C497 0.950 . S
C501 C492 1.390 . S
C501 H494 0.950 . S
C501 C498 1.387 . S
C502 C503 1.387 . S
C502 H506 0.950 . S
C502 C511 1.390 . S
C503 C502 1.387 . S
C503 C505 1.387 . S
H504 C511 0.950 . S
C505 C503 1.387 . S
C505 C507 1.390 . S
C505 H509 0.950 . S
H506 C502 0.950 . S
C507 C505 1.390 . S
C507 C508 1.387 . S
C507 H510 0.950 . S
C508 C507 1.387 . S
C508 C511 1.387 . S
H509 C505 0.950 . S
H510 C507 0.950 . S
C511 C502 1.390 . S
C511 H504 0.950 . S
C511 C508 1.387 . S
C512 C513 1.387 . S
C512 H516 0.950 . S
C512 C521 1.390 . S
C513 C512 1.387 . S
C513 C515 1.387 . S
H514 C521 0.950 1_455 S
C515 C513 1.387 . S
C515 C517 1.390 . S
C515 H519 0.950 . S
H516 C512 0.950 . S
C517 C515 1.390 . S
C517 C518 1.387 . S
C517 H520 0.950 . S
C518 C517 1.387 . S
C518 C521 1.387 . S
H519 C515 0.950 . S
H520 C517 0.950 . S
C521 C512 1.390 . S
C521 H514 0.950 1_655 S
C521 C518 1.387 . S
C522 C523 1.388 . S
C522 H526 0.950 . S
C522 C531 1.390 . S
C523 C522 1.388 . S
C523 C525 1.387 1_565 S
H524 C531 0.950 . S
C525 C523 1.387 1_545 S
C525 C527 1.390 . S
C525 H529 0.950 . S
H526 C522 0.950 . S
C527 C525 1.390 . S
C527 C528 1.387 . S
C527 H530 0.950 . S
C528 C527 1.387 . S
C528 C531 1.387 1_545 S
H529 C525 0.950 . S
H530 C527 0.950 . S
C531 C522 1.390 . S
C531 H524 0.950 . S
C531 C528 1.387 1_565 S
C532 C533 1.387 . S
C532 H536 0.950 . S
C532 C541 1.390 . S
C533 C532 1.387 . S
C533 C535 1.387 . S
H534 C541 0.950 . S
C535 C533 1.387 . S
C535 C537 1.390 . S
C535 H539 0.950 . S
H536 C532 0.950 . S
C537 C535 1.390 . S
C537 C538 1.387 . S
C537 H540 0.950 . S
C538 C537 1.387 . S
C538 C541 1.387 . S
H539 C535 0.950 . S
H540 C537 0.950 . S
C541 C532 1.390 . S
C541 H534 0.950 . S
C541 C538 1.387 . S
C542 C543 1.387 . S
C542 H546 0.950 . S
C542 C551 1.390 . S
C543 C542 1.387 . S
C543 C545 1.387 . S
H544 C551 0.950 . S
C545 C543 1.387 . S
C545 C547 1.390 . S
C545 H549 0.950 . S
H546 C542 0.950 . S
C547 C545 1.390 . S
C547 C548 1.387 . S
C547 H550 0.950 . S
C548 C547 1.387 . S
C548 C551 1.387 . S
H549 C545 0.950 . S
H550 C547 0.950 . S
C551 C542 1.390 . S
C551 H544 0.950 . S
C551 C548 1.387 . S
C552 C553 1.387 . S
C552 H556 0.950 . S
C552 C561 1.390 . S
C553 C552 1.387 . S
C553 C555 1.387 . S
H554 C561 0.950 . S
C555 C553 1.387 . S
C555 C557 1.390 . S
C555 H559 0.950 . S
H556 C552 0.950 . S
C557 C555 1.390 . S
C557 C558 1.387 . S
C557 H560 0.950 . S
C558 C557 1.387 . S
C558 C561 1.387 . S
H559 C555 0.950 . S
H560 C557 0.950 . S
C561 C552 1.390 . S
C561 H554 0.950 . S
C561 C558 1.387 . S
C562 C563 1.387 . S
C562 H566 0.950 . S
C562 C571 1.390 . S
C563 C562 1.387 . S
C563 C565 1.387 1_545 S
H564 C571 0.950 . S
C565 C563 1.387 1_565 S
C565 C567 1.390 . S
C565 H569 0.950 . S
H566 C562 0.950 . S
C567 C565 1.390 . S
C567 C568 1.387 1_565 S
C567 H570 0.950 . S
C568 C567 1.387 1_545 S
C568 C571 1.387 . S
H569 C565 0.950 . S
H570 C567 0.950 . S
C571 C562 1.390 . S
C571 H564 0.950 . S
C571 C568 1.387 . S
C572 C573 1.387 . S
C572 H576 0.950 . S
C572 C581 1.390 . S
C573 C572 1.387 . S
C573 C575 1.387 . S
H574 C581 0.950 . S
C575 C573 1.387 . S
C575 C577 1.390 . S
C575 H579 0.950 . S
H576 C572 0.950 . S
C577 C575 1.390 . S
C577 C578 1.387 . S
C577 H580 0.950 . S
C578 C577 1.387 . S
C578 C581 1.387 . S
H579 C575 0.950 . S
H580 C577 0.950 . S
C581 C572 1.390 . S
C581 H574 0.950 . S
C581 C578 1.387 . S
C582 C583 1.387 . S
C582 H586 0.950 . S
C582 C591 1.390 . S
C583 C582 1.387 . S
C583 C585 1.387 . S
H584 C591 0.950 . S
C585 C583 1.387 . S
C585 C587 1.390 . S
C585 H589 0.950 . S
H586 C582 0.950 . S
C587 C585 1.390 . S
C587 C588 1.387 . S
C587 H590 0.950 . S
C588 C587 1.387 . S
C588 C591 1.387 . S
H589 C585 0.950 . S
H590 C587 0.950 . S
C591 C582 1.390 . S
C591 H584 0.950 . S
C591 C588 1.387 . S
C592 C593 1.387 . S
C592 H596 0.950 . S
C592 C601 1.390 . S
C593 C592 1.387 . S
C593 C595 1.387 . S
H594 C601 0.950 . S
C595 C593 1.387 . S
C595 C597 1.390 . S
C595 H599 0.950 . S
H596 C592 0.950 . S
C597 C595 1.390 . S
C597 C598 1.387 . S
C597 H600 0.950 . S
C598 C597 1.387 . S
C598 C601 1.387 . S
H599 C595 0.950 . S
H600 C597 0.950 . S
C601 C592 1.390 . S
C601 H594 0.950 . S
C601 C598 1.387 . S
C602 C603 1.387 . S
C602 H606 0.950 . S
C602 C611 1.390 . S
C603 C602 1.387 . S
C603 C605 1.387 1_565 S
H604 C611 0.950 . S
C605 C603 1.387 1_545 S
C605 C607 1.390 . S
C605 H609 0.950 . S
H606 C602 0.950 . S
C607 C605 1.390 . S
C607 C608 1.387 1_545 S
C607 H610 0.950 . S
C608 C607 1.387 1_565 S
C608 C611 1.387 . S
H609 C605 0.950 . S
H610 C607 0.950 . S
C611 C602 1.390 . S
C611 H604 0.950 . S
C611 C608 1.387 . S
C612 C613 1.387 . S
C612 H616 0.950 . S
C612 C621 1.390 . S
C613 C612 1.387 . S
C613 C615 1.387 . S
H614 C621 0.950 . S
C615 C613 1.387 . S
C615 C617 1.390 . S
C615 H619 0.950 . S
H616 C612 0.950 . S
C617 C615 1.390 . S
C617 C618 1.387 . S
C617 H620 0.950 . S
C618 C617 1.387 . S
C618 C621 1.387 . S
H619 C615 0.950 . S
H620 C617 0.950 . S
C621 C612 1.390 . S
C621 H614 0.950 . S
C621 C618 1.387 . S
C622 C623 1.387 . S
C622 H626 0.950 . S
C622 C631 1.390 . S
C623 C622 1.387 . S
C623 C625 1.387 . S
H624 C631 0.950 . S
C625 C623 1.387 . S
C625 C627 1.390 . S
C625 H629 0.950 . S
H626 C622 0.950 . S
C627 C625 1.390 . S
C627 C628 1.387 . S
C627 H630 0.950 . S
C628 C627 1.387 . S
C628 C631 1.387 . S
H629 C625 0.950 . S
H630 C627 0.950 . S
C631 C622 1.390 . S
C631 H624 0.950 . S
C631 C628 1.387 . S
C393 C255 1.888 . S
C398 C320 2.042 . S
C408 C350 2.521 . S
C403 C294 2.347 . S
C418 C360 2.147 . S
C413 C177 1.995 . S
C428 C380 2.080 . S
C423 C216 1.845 . S
C438 C321 2.043 . S
C433 C99 1.892 1_545 S
C443 C138 2.325 . S
C448 C351 2.523 . S
C453 C21 1.977 . S
C458 C361 2.147 . S
C463 C60 1.865 . S
C468 C381 2.081 . S
C478 C313 1.187 . S
C473 C196 1.089 . S
C488 C334 0.735 . S
C483 C235 0.740 1_545 S
C498 C353 1.414 . S
C493 C289 1.284 . S
C503 C157 0.815 . S
C508 C373 0.826 . S
C513 C40 1.102 . S
C518 C314 1.191 1_655 S
C528 C333 0.736 . S
C523 C79 0.739 . S
C538 C354 1.417 . S
C533 C133 1.297 . S
C543 C1 0.813 . S
C548 C374 0.827 . S
C553 C211 2.369 . S
C558 C331 2.695 . S
C563 C250 2.072 . S
C568 C341 2.450 . S
C578 C371 2.933 . S
C573 C274 2.566 . S
C588 C391 2.791 . S
C583 C172 2.470 . S
C593 C55 2.365 . S
C598 C330 2.703 . S
C608 C340 2.449 . S
C603 C94 2.069 1_565 S
C618 C370 2.933 . S
C613 C118 2.557 . S
C623 C16 2.476 . S
C628 C390 2.791 . S
