# Generated by pormake.
# Topology zzz, (3,6)-cn, num edge types: 1
# Building blocks:
#     Node 0, Type 0, BuildingBlock: KAKCAD_clean_linker_0, # of connection points: 3
#     Node 1, Type 0, BuildingBlock: KAKCAD_clean_linker_0, # of connection points: 3
#     Node 2, Type 0, BuildingBlock: KAKCAD_clean_linker_0, # of connection points: 3
#     Node 3, Type 0, BuildingBlock: KAKCAD_clean_linker_0, # of connection points: 3
#     Node 4, Type 0, BuildingBlock: KAKCAD_clean_linker_0, # of connection points: 3
#     Node 5, Type 0, BuildingBlock: KAKCAD_clean_linker_0, # of connection points: 3
#     Node 6, Type 0, BuildingBlock: KAKCAD_clean_linker_0, # of connection points: 3
#     Node 7, Type 0, BuildingBlock: KAKCAD_clean_linker_0, # of connection points: 3
#     Node 8, Type 1, BuildingBlock: BETDIP_clean_sbu_0, # of connection points: 6
#     Node 9, Type 1, BuildingBlock: BETDIP_clean_sbu_0, # of connection points: 6
#     Node 10, Type 1, BuildingBlock: BETDIP_clean_sbu_0, # of connection points: 6
#     Node 11, Type 1, BuildingBlock: BETDIP_clean_sbu_0, # of connection points: 6
#     Edge 12, Type (0, 1), BuildingBlock: ZUJKAS_clean_linker_0, # of connection points: 2
#     Edge 13, Type (0, 1), BuildingBlock: ZUJKAS_clean_linker_0, # of connection points: 2
#     Edge 14, Type (0, 1), BuildingBlock: ZUJKAS_clean_linker_0, # of connection points: 2
#     Edge 15, Type (0, 1), BuildingBlock: ZUJKAS_clean_linker_0, # of connection points: 2
#     Edge 16, Type (0, 1), BuildingBlock: ZUJKAS_clean_linker_0, # of connection points: 2
#     Edge 17, Type (0, 1), BuildingBlock: ZUJKAS_clean_linker_0, # of connection points: 2
#     Edge 18, Type (0, 1), BuildingBlock: ZUJKAS_clean_linker_0, # of connection points: 2
#     Edge 19, Type (0, 1), BuildingBlock: ZUJKAS_clean_linker_0, # of connection points: 2
#     Edge 20, Type (0, 1), BuildingBlock: ZUJKAS_clean_linker_0, # of connection points: 2
#     Edge 21, Type (0, 1), BuildingBlock: ZUJKAS_clean_linker_0, # of connection points: 2
#     Edge 22, Type (0, 1), BuildingBlock: ZUJKAS_clean_linker_0, # of connection points: 2
#     Edge 23, Type (0, 1), BuildingBlock: ZUJKAS_clean_linker_0, # of connection points: 2
#     Edge 24, Type (0, 1), BuildingBlock: ZUJKAS_clean_linker_0, # of connection points: 2
#     Edge 25, Type (0, 1), BuildingBlock: ZUJKAS_clean_linker_0, # of connection points: 2
#     Edge 26, Type (0, 1), BuildingBlock: ZUJKAS_clean_linker_0, # of connection points: 2
#     Edge 27, Type (0, 1), BuildingBlock: ZUJKAS_clean_linker_0, # of connection points: 2
#     Edge 28, Type (0, 1), BuildingBlock: ZUJKAS_clean_linker_0, # of connection points: 2
#     Edge 29, Type (0, 1), BuildingBlock: ZUJKAS_clean_linker_0, # of connection points: 2
#     Edge 30, Type (0, 1), BuildingBlock: ZUJKAS_clean_linker_0, # of connection points: 2
#     Edge 31, Type (0, 1), BuildingBlock: ZUJKAS_clean_linker_0, # of connection points: 2
#     Edge 32, Type (0, 1), BuildingBlock: ZUJKAS_clean_linker_0, # of connection points: 2
#     Edge 33, Type (0, 1), BuildingBlock: ZUJKAS_clean_linker_0, # of connection points: 2
#     Edge 34, Type (0, 1), BuildingBlock: ZUJKAS_clean_linker_0, # of connection points: 2
#     Edge 35, Type (0, 1), BuildingBlock: ZUJKAS_clean_linker_0, # of connection points: 2
# Relax obj value: 0.404
# Max RMSD: 0.266
# Mean RMSD: 0.239
data_MOF--net-zzz--node1-BETDIP_clean_sbu_0--node2-KAKCAD_clean_linker_0--edge1-ZUJKAS_clean_linker_0
_symmetry_space_group_name_H-M    P1
_symmetry_Int_Tables_number       1
_symmetry_cell_setting            triclinic
loop_
_symmetry_equiv_pos_as_xyz
'x, y, z'
_cell_length_a     74.586092
_cell_length_b     74.571711
_cell_length_c     22.993483
_cell_angle_alpha  89.843314
_cell_angle_beta   89.961571
_cell_angle_gamma 90.007489
loop_
_atom_site_label
_atom_site_type_symbol
_atom_site_fract_x
_atom_site_fract_y
_atom_site_fract_z
_atom_type_partial_charge
C0 C 0.76641 0.45758 0.05027 0.0
C1 C 0.77806 0.44448 0.07296 0.0
C2 C 0.75616 0.46826 0.08738 0.0
C3 C 0.7572 0.46595 0.148 0.0
C4 C 0.76751 0.45172 0.17025 0.0
C5 C 0.77789 0.44114 0.13317 0.0
C6 C 0.74934 0.47957 0.18764 0.0
C7 C 0.73285 0.48771 0.17507 0.0
C8 C 0.72647 0.50204 0.20865 0.0
C9 C 0.73672 0.50834 0.25593 0.0
C10 C 0.75314 0.49998 0.26983 0.0
C11 C 0.75923 0.48568 0.23552 0.0
C12 C 0.76496 0.50626 0.31757 0.0
C13 C 0.77301 0.52327 0.31497 0.0
C14 C 0.77094 0.49394 0.35962 0.0
C15 C 0.78534 0.49809 0.39608 0.0
C16 C 0.79426 0.51464 0.39105 0.0
C17 C 0.70926 0.5103 0.19135 0.0
C18 C 0.70881 0.52213 0.14382 0.0
C19 C 0.6931 0.50342 0.2132 0.0
C20 C 0.67679 0.50757 0.18602 0.0
C21 C 0.67637 0.5186 0.1362 0.0
C22 C 0.69253 0.52633 0.1167 0.0
C23 C 0.78758 0.5274 0.35122 0.0
H24 H 0.76598 0.46026 1.00397 0.0
H25 H 0.74838 0.47908 0.06863 0.0
H26 H 0.76828 0.44933 0.21666 0.0
H27 H 0.78671 0.43122 0.15226 0.0
H28 H 0.72497 0.48304 0.13848 0.0
H29 H 0.77228 0.47991 0.24463 0.0
H30 H 0.73198 0.51958 0.28148 0.0
H31 H 0.76882 0.53291 0.2824 0.0
H32 H 0.76507 0.48066 0.36204 0.0
H33 H 0.79016 0.48787 0.42572 0.0
H34 H 0.72118 0.52724 0.12544 0.0
H35 H 0.69319 0.49399 0.24913 0.0
H36 H 0.794 0.54035 0.34667 0.0
H37 H 0.69279 0.53469 0.07813 0.0
H38 H 0.6646 0.50156 0.20266 0.0
C39 C 0.06701 0.7691 0.08574 0.0
C40 C 0.07822 0.78232 0.1097 0.0
C41 C 0.05588 0.75879 0.12146 0.0
C42 C 0.05592 0.76128 0.18207 0.0
C43 C 0.06841 0.77324 0.20633 0.0
C44 C 0.07936 0.78372 0.17056 0.0
C45 C 0.04167 0.75305 0.21875 0.0
C46 C 0.0352 0.73579 0.20712 0.0
C47 C 0.02025 0.72886 0.23689 0.0
C48 C 0.01171 0.7394 0.27969 0.0
C49 C 0.01862 0.75648 0.29348 0.0
C50 C 0.03341 0.76314 0.26258 0.0
C51 C 0.01081 0.76819 0.33895 0.0
C52 C 0.99491 0.7777 0.32829 0.0
C53 C 0.02145 0.77306 0.38671 0.0
C54 C 0.0169 0.78782 0.42112 0.0
C55 C 1.00164 0.7982 0.40831 0.0
C56 C 0.01382 0.71075 0.22023 0.0
C57 C 0.99712 0.70849 0.19298 0.0
C58 C 0.02588 0.6963 0.22122 0.0
C59 C 0.02193 0.68037 0.19208 0.0
C60 C 0.00585 0.67853 0.16074 0.0
C61 C 0.99316 0.6925 0.16347 0.0
C62 C 0.99036 0.79257 0.36265 0.0
H63 H 0.06609 0.76739 0.03908 0.0
H64 H 0.04646 0.74973 0.10109 0.0
H65 H 0.06912 0.77515 0.25295 0.0
H66 H 0.08778 0.79376 0.1907 0.0
H67 H 0.04159 0.72778 0.17371 0.0
H68 H 0.03802 0.77665 0.27146 0.0
H69 H 1.00011 0.73425 0.30269 0.0
H70 H 0.98666 0.77441 0.29105 0.0
H71 H 0.03397 0.76614 0.39507 0.0
H72 H 0.02605 0.79177 0.4553 0.0
H73 H 0.98769 0.71953 0.19095 0.0
H74 H 0.03885 0.69771 0.24192 0.0
H75 H 0.97838 0.80009 0.35198 0.0
H76 H 0.98066 0.69155 0.13973 0.0
H77 H 0.03184 0.66975 0.19207 0.0
C78 C 0.75413 0.02452 0.02745 0.0
C79 C 0.74298 0.03969 0.02764 0.0
C80 C 0.76275 0.01905 0.07833 0.0
C81 C 0.7602 0.02854 0.13039 0.0
C82 C 0.74966 0.04413 0.13001 0.0
C83 C 0.7412 0.04972 0.07895 0.0
C84 C 0.76777 0.0216 0.18542 0.0
C85 C 0.78558 0.01585 0.18772 0.0
C86 C 0.79272 0.00839 0.23868 0.0
C87 C 0.78173 0.00648 0.28838 0.0
C88 C 0.76368 0.01223 0.28627 0.0
C89 C 0.75696 0.01989 0.23492 0.0
C90 C 0.75098 0.00993 0.33534 0.0
C91 C 0.74069 0.99422 0.33933 0.0
C92 C 0.74596 0.02488 0.36852 0.0
C93 C 0.73043 0.02443 0.40282 0.0
C94 C 0.71936 0.00911 0.40401 0.0
C95 C 0.81179 1.00296 0.23677 0.0
C96 C 0.81668 0.98807 0.20305 0.0
C97 C 0.82505 0.01535 0.25267 0.0
C98 C 0.84258 0.01365 0.23132 0.0
C99 C 0.84715 0.99956 0.19337 0.0
C100 C 0.83419 0.98632 0.18181 0.0
C101 C 0.72507 0.99378 0.37337 0.0
H102 H 0.75569 0.01657 0.98841 0.0
H103 H 0.77075 0.00693 0.07755 0.0
H104 H 0.74764 0.05176 0.16951 0.0
H105 H 0.7325 0.06135 0.08039 0.0
H106 H 0.79404 0.01729 0.14956 0.0
H107 H 0.74301 0.02399 0.233 0.0
H108 H 0.78707 1.00054 0.32776 0.0
H109 H 0.74402 0.98269 0.31287 0.0
H110 H 0.75349 0.03726 0.36521 0.0
H111 H 0.72671 0.03639 0.42659 0.0
H112 H 0.80657 0.97859 0.18897 0.0
H113 H 0.82151 0.02716 0.27751 0.0
H114 H 0.71689 0.98179 0.3725 0.0
H115 H 0.83712 0.97538 0.15243 0.0
H116 H 0.85229 0.02394 0.24186 0.0
C117 C 0.50047 0.74189 0.38382 0.0
C118 C 0.51065 0.72725 0.36358 0.0
C119 C 0.49741 0.75688 0.34815 0.0
C120 C 0.50449 0.75755 0.29164 0.0
C121 C 0.51554 0.74349 0.27265 0.0
C122 C 0.51868 0.72856 0.30829 0.0
C123 C 0.49681 0.77011 0.24828 0.0
C124 C 0.50249 0.78808 0.24238 0.0
C125 C 0.49456 0.7992 0.19974 0.0
C126 C 0.48118 0.79219 0.16333 0.0
C127 C 0.47568 0.77431 0.16841 0.0
C128 C 0.48349 0.76344 0.21121 0.0
C129 C 0.46277 0.76648 0.12655 0.0
C130 C 0.44944 0.75454 0.14574 0.0
C131 C 0.46481 0.76953 0.06656 0.0
C132 C 0.45464 0.75982 0.02651 0.0
C133 C 0.44224 0.7469 0.0457 0.0
C134 C 0.50025 0.81798 0.18944 0.0
C135 C 0.48761 0.83182 0.19495 0.0
C136 C 0.51665 0.82163 0.16183 0.0
C137 C 0.51977 0.83847 0.13627 0.0
C138 C 0.50651 0.85193 0.13787 0.0
C139 C 0.49075 0.84863 0.16986 0.0
C140 C 0.43926 0.74486 0.10573 0.0
H141 H 0.49426 0.74145 0.42639 0.0
H142 H 0.48853 0.76738 0.36327 0.0
H143 H 0.52078 0.74352 0.22868 0.0
H144 H 0.52642 0.71753 0.29086 0.0
H145 H 0.51294 0.7933 0.27033 0.0
H146 H 0.47955 0.74948 0.2149 0.0
H147 H 0.47524 0.80066 0.13012 0.0
H148 H 0.4474 0.75213 0.19175 0.0
H149 H 0.475 0.77862 0.05043 0.0
H150 H 0.45711 0.76179 0.9805 0.0
H151 H 0.4748 0.82926 0.21565 0.0
H152 H 0.52645 0.81107 0.15611 0.0
H153 H 0.42992 0.73491 0.12198 0.0
H154 H 0.48042 0.85878 0.17318 0.0
H155 H 0.53202 0.84047 0.1118 0.0
C156 C 0.25613 0.46636 0.32478 0.0
C157 C 0.24236 0.45359 0.31975 0.0
C158 C 0.2658 0.47181 0.27583 0.0
C159 C 0.26202 0.46445 0.22093 0.0
C160 C 0.24952 0.4504 0.2171 0.0
C161 C 0.23975 0.44506 0.26596 0.0
C162 C 0.26949 0.47285 0.16748 0.0
C163 C 0.28707 0.47934 0.16632 0.0
C164 C 0.29346 0.48928 0.1188 0.0
C165 C 0.2821 0.49263 0.07086 0.0
C166 C 0.26446 0.48571 0.07078 0.0
C167 C 0.25839 0.47594 0.1193 0.0
C168 C 0.25144 0.48903 0.02286 0.0
C169 C 0.24627 0.50655 0.00759 0.0
C170 C 0.24164 0.47454 1.00021 0.0
C171 C 0.22624 0.47745 0.96691 0.0
C172 C 0.22019 0.49494 0.95528 0.0
C173 C 0.31194 0.49636 0.12315 0.0
C174 C 0.31529 0.51075 0.16081 0.0
C175 C 0.32639 0.48586 0.10412 0.0
C176 C 0.34371 0.48891 0.1257 0.0
C177 C 0.34686 0.50241 0.16726 0.0
C178 C 0.33254 0.51379 0.1825 0.0
C179 C 0.23078 0.50948 0.97398 0.0
H180 H 0.25867 0.47297 0.36585 0.0
H181 H 0.27534 0.48266 0.28048 0.0
H182 H 0.2466 0.44419 0.17565 0.0
H183 H 0.22921 0.43523 0.2604 0.0
H184 H 0.29584 0.47691 0.20313 0.0
H185 H 0.24455 0.47149 0.12061 0.0
H186 H 0.2869 0.50049 0.03433 0.0
H187 H 0.25344 0.51797 0.02499 0.0
H188 H 0.24535 0.46089 0.0111 0.0
H189 H 0.21866 0.46594 0.95213 0.0
H190 H 0.30426 0.51872 0.17726 0.0
H191 H 0.32406 0.47444 0.07608 0.0
H192 H 0.2265 0.52314 0.9658 0.0
H193 H 0.3343 0.52419 0.21477 0.0
H194 H 0.35443 0.48007 0.11215 0.0
C195 C 0.95779 0.25692 0.30628 0.0
C196 C 0.96433 0.24031 0.32595 0.0
C197 C 0.96661 0.26613 0.26147 0.0
C198 C 0.98194 0.25873 0.2352 0.0
C199 C 0.98849 0.2422 0.25523 0.0
C200 C 0.9798 0.23311 0.30002 0.0
C201 C 0.99126 0.26806 0.18699 0.0
C202 C 0.99547 0.28627 0.19112 0.0
C203 C 0.00561 0.29489 0.14772 0.0
C204 C 0.0116 0.28494 0.09912 0.0
C205 C 0.00681 0.26669 0.09377 0.0
C206 C 0.99674 0.25847 0.13787 0.0
C207 C 0.012 0.25536 0.04363 0.0
C208 C 0.99861 0.24927 0.00561 0.0
C209 C 0.02881 0.2469 0.04288 0.0
C210 C 0.03177 0.23189 0.00741 0.0
C211 C 0.01794 0.22499 0.97214 0.0
C212 C 0.00993 0.31414 0.15642 0.0
C213 C 0.99594 0.32624 0.16797 0.0
C214 C 0.02769 0.31977 0.16503 0.0
C215 C 0.03129 0.33672 0.1889 0.0
C216 C 0.01718 0.34837 0.20446 0.0
C217 C 0.9995 0.34311 0.19159 0.0
C218 C 1.00155 0.23434 0.97007 0.0
H219 H 0.94589 0.26276 0.3255 0.0
H220 H 0.96127 0.27885 0.24664 0.0
H221 H 1.00039 0.23629 0.23628 0.0
H222 H 0.98499 0.22018 0.31345 0.0
H223 H 0.99141 0.29367 0.22949 0.0
H224 H 0.99324 0.2444 0.13399 0.0
H225 H 0.01953 0.29138 0.06555 0.0
H226 H 0.98539 0.2553 0.0065 0.0
H227 H 0.03922 0.25109 0.07275 0.0
H228 H 0.04465 0.22522 0.00955 0.0
H229 H 0.98211 0.32216 0.16215 0.0
H230 H 0.03871 0.31063 0.15707 0.0
H231 H 0.99051 0.22939 0.94413 0.0
H232 H 0.98823 0.3515 0.20336 0.0
H233 H 0.04508 0.3404 0.19732 0.0
C234 C 0.25451 0.96888 0.31461 0.0
C235 C 0.27211 0.9744 0.32695 0.0
C236 C 0.24589 0.97478 0.26402 0.0
C237 C 0.2547 0.98635 0.22484 0.0
C238 C 0.27223 0.99194 0.23753 0.0
C239 C 0.28086 0.98594 0.2876 0.0
C240 C 0.24565 0.99289 0.1713 0.0
C241 C 0.22758 0.99786 0.17265 0.0
C242 C 0.2191 1.00496 0.12328 0.0
C243 C 0.22903 0.00748 0.07154 0.0
C244 C 0.24719 1.00209 0.06927 0.0
C245 C 0.25523 0.99476 0.11915 0.0
C246 C 0.25855 1.00405 0.01648 0.0
C247 C 0.26679 0.98879 0.99271 0.0
C248 C 0.26423 0.02106 0.99777 0.0
C249 C 0.27867 0.02276 0.95886 0.0
C250 C 0.28767 0.00747 0.93769 0.0
C251 C 0.19981 0.00939 0.12892 0.0
C252 C 0.18763 0.99542 0.13983 0.0
C253 C 0.19441 0.02711 0.13927 0.0
C254 C 0.17759 0.03067 0.16421 0.0
C255 C 0.16592 0.01654 0.17967 0.0
C256 C 0.1709 0.99893 0.16477 0.0
C257 C 0.28109 0.99046 0.95361 0.0
H258 H 0.24737 0.96004 0.34403 0.0
H259 H 0.23242 0.9701 0.25528 0.0
H260 H 0.27932 1.00106 0.20889 0.0
H261 H 0.29457 0.99016 0.29479 0.0
H262 H 0.22006 0.99661 0.21285 0.0
H263 H 0.26916 0.99064 0.11731 0.0
H264 H 0.22264 0.01314 0.03339 0.0
H265 H 0.26284 0.97551 0.00713 0.0
H266 H 0.25829 0.03303 0.01615 0.0
H267 H 0.28322 0.03607 0.94701 0.0
H268 H 0.19166 0.9816 0.13337 0.0
H269 H 0.20369 0.03808 0.13225 0.0
H270 H 0.28772 0.97838 0.93884 0.0
H271 H 0.16251 0.98763 0.17642 0.0
H272 H 0.17412 0.04444 0.17403 0.0
C273 C 0.48535 0.28827 0.93488 0.0
C274 C 0.50079 0.29798 0.9184 0.0
C275 C 0.4867 0.27296 0.97043 0.0
C276 C 0.5035 0.26714 0.99057 0.0
C277 C 0.51894 0.27629 0.97186 0.0
C278 C 0.51762 0.29143 0.93604 0.0
C279 C 0.50498 0.25394 0.03894 0.0
C280 C 0.49963 0.23582 0.03366 0.0
C281 C 0.50228 0.22389 0.08068 0.0
C282 C 0.50975 0.23024 0.13257 0.0
C283 C 0.51414 0.24833 0.13959 0.0
C284 C 0.51192 0.26002 0.09218 0.0
C285 C 0.5201 0.25513 0.1973 0.0
C286 C 0.51283 0.24797 0.24894 0.0
C287 C 0.5324 0.26933 0.20137 0.0
C288 C 0.53651 0.27686 0.25524 0.0
C289 C 0.52871 0.27015 0.3067 0.0
C290 C 0.49683 0.20479 0.08011 0.0
C291 C 0.47903 0.20028 0.09348 0.0
C292 C 0.51016 0.1916 0.0859 0.0
C293 C 0.5061 0.17483 0.11008 0.0
C294 C 0.48861 0.1709 0.12926 0.0
C295 C 0.47494 0.18348 0.11766 0.0
C296 C 0.51726 0.25523 0.30291 0.0
H297 H 0.47217 0.29281 0.92165 0.0
H298 H 0.47458 0.2663 0.98489 0.0
H299 H 0.53204 0.27221 0.98736 0.0
H300 H 0.52979 0.29859 0.92496 0.0
H301 H 0.49386 0.23102 0.99338 0.0
H302 H 0.51506 0.27414 0.09691 0.0
H303 H 0.51181 0.22093 0.16824 0.0
H304 H 0.50315 0.23716 0.24785 0.0
H305 H 0.53859 0.27495 0.16281 0.0
H306 H 0.5452 0.28848 0.25591 0.0
H307 H 0.46858 0.21032 0.0905 0.0
H308 H 0.52405 0.19489 0.07713 0.0
H309 H 0.51124 0.24946 0.34151 0.0
H310 H 0.46125 0.1808 0.13073 0.0
H311 H 0.51704 0.16564 0.11849 0.0
Tb312 Tb 0.0206 1.00404 0.74007 0.0
Tb313 Tb 0.99646 0.01759 0.649 0.0
C314 C 0.03764 0.99485 0.8295 0.0
C315 C 0.04828 0.97884 0.8427 0.0
C316 C 0.05086 0.96571 0.79994 0.0
C317 C 0.06064 0.95025 0.81253 0.0
C318 C 0.06795 0.94759 0.86825 0.0
C319 C 0.06557 0.96095 0.91071 0.0
C320 C 0.05578 0.97647 0.89796 0.0
C321 C 0.03562 0.0066 0.63629 0.0
C322 C 1.00418 0.97558 0.65804 0.0
C323 C 0.97939 0.02757 0.56084 0.0
C324 C 0.96977 0.04451 0.54852 0.0
C325 C 0.97824 0.05804 0.51605 0.0
C326 C 0.97051 0.07501 0.51137 0.0
C327 C 0.95405 0.07874 0.53851 0.0
C328 C 0.94501 0.06495 0.568 0.0
C329 C 0.95282 0.04797 0.57311 0.0
C330 C 0.98155 0.01492 0.75305 0.0
C331 C 0.01281 0.0461 0.73065 0.0
O332 O 0.02043 0.99211 0.82277 0.0
O333 O 0.04426 1.00522 0.78889 0.0
O334 O 0.02487 0.01771 0.65857 0.0
O335 O 0.03895 0.99408 0.67371 0.0
O336 O 0.01092 0.97817 0.71043 0.0
O337 O 0.99966 0.98928 0.62432 0.0
O338 O 0.99686 0.02886 0.5654 0.0
O339 O 0.97253 0.01727 0.6013 0.0
O340 O 0.99223 1.00388 0.73027 0.0
O341 O 0.9782 0.02754 0.71597 0.0
O342 O 0.00621 0.04344 0.67815 0.0
O343 O 0.01719 0.0324 0.76464 0.0
H344 H 0.04518 0.96737 0.75691 0.0
H345 H 0.0624 0.94032 0.7787 0.0
H346 H 0.07081 0.95919 0.95426 0.0
H347 H 0.05388 0.9865 0.93141 0.0
H348 H 0.99118 0.05572 0.49596 0.0
H349 H 0.97757 0.08534 0.48728 0.0
H350 H 0.93228 0.06748 0.58911 0.0
H351 H 0.94584 0.0378 0.59805 0.0
Tb352 Tb 0.50421 0.02652 0.6865 0.0
Tb353 Tb 0.49447 1.00068 0.58615 0.0
C354 C 0.51951 0.04249 0.76827 0.0
C355 C 0.53853 0.04331 0.78423 0.0
C356 C 0.54992 0.0288 0.77224 0.0
C357 C 0.56844 0.0307 0.77741 0.0
C358 C 0.57594 0.04708 0.79535 0.0
C359 C 0.56439 0.06132 0.80989 0.0
C360 C 0.54584 0.05947 0.804 0.0
C361 C 0.49097 0.04114 0.59102 0.0
C362 C 0.53487 0.01122 0.60095 0.0
C363 C 0.48065 0.98936 0.49476 0.0
C364 C 0.46527 0.97725 0.48747 0.0
C365 C 0.45174 0.98176 0.44792 0.0
C366 C 0.43547 0.97251 0.44855 0.0
C367 C 0.43246 0.95853 0.48872 0.0
C368 C 0.44641 0.95346 0.52632 0.0
C369 C 0.46264 0.96279 0.52592 0.0
C370 C 0.50106 0.98207 0.68274 0.0
C371 C 0.4649 0.01238 0.68135 0.0
O372 O 0.51159 0.0269 0.77447 0.0
O373 O 0.51576 0.0501 0.7184 0.0
O374 O 0.5018 0.0282 0.59386 0.0
O375 O 0.48762 0.04674 0.64327 0.0
O376 O 0.53053 0.01879 0.65121 0.0
O377 O 0.52265 1.00461 0.56511 0.0
O378 O 0.47654 1.00495 0.51761 0.0
O379 O 0.4952 0.98229 0.51749 0.0
O380 O 0.50154 0.99875 0.67477 0.0
O381 O 0.49665 0.97501 0.63339 0.0
O382 O 0.46847 0.00597 0.62864 0.0
O383 O 0.4774 0.01956 0.71491 0.0
H384 H 0.54458 0.0162 0.75659 0.0
H385 H 0.57687 0.0195 0.76517 0.0
H386 H 0.56968 0.07398 0.82517 0.0
H387 H 0.53725 0.07083 0.81314 0.0
H388 H 0.45341 0.99304 0.41862 0.0
H389 H 0.42493 0.977 0.4196 0.0
H390 H 0.44462 0.94262 0.55723 0.0
H391 H 0.4728 0.95915 0.5574 0.0
Tb392 Tb 0.4979 0.52112 0.71325 0.0
Tb393 Tb 0.52186 0.50911 0.61004 0.0
C394 C 0.48833 0.53454 0.80779 0.0
C395 C 0.4766 0.54969 0.82165 0.0
C396 C 0.47045 0.56104 0.77722 0.0
C397 C 0.45987 0.57592 0.79056 0.0
C398 C 0.45523 0.57963 0.84858 0.0
C399 C 0.46103 0.56786 0.89274 0.0
C400 C 0.47167 0.55301 0.87932 0.0
C401 C 0.478 0.51578 0.61863 0.0
C402 C 0.51063 0.54931 0.61519 0.0
C403 C 0.53595 0.49172 0.52944 0.0
C404 C 0.53561 0.47222 0.51973 0.0
C405 C 0.51937 0.46267 0.52214 0.0
C406 C 0.51941 0.44398 0.52442 0.0
C407 C 0.53567 0.43445 0.52493 0.0
C408 C 0.55187 0.44401 0.52037 0.0
C409 C 0.55182 0.46272 0.51763 0.0
C410 C 0.53838 0.52191 0.70256 0.0
C411 C 0.50577 0.47993 0.69918 0.0
O412 O 0.50336 0.53882 0.78133 0.0
O413 O 0.48032 0.52069 0.78421 0.0
O414 O 0.49457 0.5138 0.6256 0.0
O415 O 0.47174 0.52124 0.66809 0.0
O416 O 0.50521 0.54648 0.66965 0.0
O417 O 0.51594 0.53612 0.58066 0.0
O418 O 0.52073 0.50034 0.52349 0.0
O419 O 0.54466 0.49654 0.57624 0.0
O420 O 0.52476 0.5119 0.70222 0.0
O421 O 0.54352 0.52463 0.64934 0.0
O422 O 0.51313 0.48347 0.6479 0.0
O423 O 0.50021 0.49274 0.73465 0.0
H424 H 0.47411 0.55858 0.73233 0.0
H425 H 0.45585 0.58482 0.75564 0.0
H426 H 0.45748 0.57023 0.93775 0.0
H427 H 0.47621 0.54426 0.914 0.0
H428 H 0.50664 0.46961 0.52453 0.0
H429 H 0.50668 0.43702 0.52661 0.0
H430 H 0.56463 0.4371 0.52108 0.0
H431 H 0.5645 0.46982 0.51667 0.0
Tb432 Tb 0.99918 0.50236 0.73671 0.0
Tb433 Tb 0.01289 0.52349 0.62728 0.0
C434 C 0.99005 0.48937 0.83283 0.0
C435 C 0.97555 0.47716 0.84965 0.0
C436 C 0.97362 0.47175 0.90765 0.0
C437 C 0.95933 0.46068 0.92393 0.0
C438 C 0.94679 0.45486 0.88231 0.0
C439 C 0.94907 0.46002 0.82391 0.0
C440 C 0.96332 0.4711 0.80776 0.0
C441 C 1.00362 0.48386 0.64019 0.0
C442 C 0.97106 0.51687 0.64489 0.0
C443 C 0.02735 0.52788 0.53079 0.0
C444 C 0.04497 0.52083 0.51223 0.0
C445 C 0.04595 0.50634 0.47346 0.0
C446 C 0.06212 0.49715 0.46557 0.0
C447 C 0.07759 0.50235 0.49617 0.0
C448 C 0.07677 0.51745 0.53243 0.0
C449 C 0.06071 0.52663 0.54011 0.0
C450 C 1.00378 0.54563 0.71332 0.0
C451 C 0.0406 0.5127 0.72526 0.0
O452 O 0.98484 0.50521 0.81439 0.0
O453 O 1.00249 0.48232 0.79969 0.0
O454 O 0.01342 0.49643 0.65824 0.0
O455 O 0.99137 0.48055 0.67862 0.0
O456 O 0.97384 0.51154 0.69937 0.0
O457 O 0.98433 0.52061 0.60816 0.0
O458 O 0.01486 0.51575 0.53978 0.0
O459 O 0.02777 0.54005 0.57193 0.0
O460 O 1.00334 0.52886 0.71128 0.0
O461 O 0.00919 0.55096 0.66242 0.0
O462 O 0.03814 0.51714 0.67006 0.0
O463 O 0.02709 0.50839 0.76029 0.0
H464 H 0.98301 0.47627 0.94041 0.0
H465 H 0.95797 0.45682 0.96916 0.0
H466 H 0.9395 0.45602 0.79101 0.0
H467 H 0.9646 0.47523 0.76274 0.0
H468 H 0.03403 0.50157 0.45147 0.0
H469 H 0.06241 0.48575 0.43651 0.0
H470 H 0.08836 0.52173 0.55715 0.0
H471 H 0.06052 0.53772 0.57042 0.0
H472 H 0.13317 0.9993 0.17697 0.0
H473 H 0.10912 1.00103 0.24881 0.0
H474 H 0.13764 0.04286 0.3389 0.0
H475 H 0.16217 0.04056 0.26921 0.0
H476 H 0.12802 0.01746 0.41216 0.0
H477 H 0.06863 0.03509 0.28011 0.0
H478 H 0.07985 0.01558 0.25281 0.0
H479 H 0.0912 0.03689 0.25227 0.0
C480 C 0.1343 0.00899 0.21175 0.0
C481 C 0.14977 0.01972 0.21709 0.0
C482 C 0.12036 0.01014 0.2525 0.0
C483 C 0.12138 0.02222 0.29917 0.0
C484 C 0.13644 0.03348 0.30321 0.0
H485 H 0.03701 0.03639 0.56519 0.0
H486 H 0.05729 0.04134 0.48207 0.0
C487 C 0.15043 0.03226 0.26277 0.0
C488 C 0.10777 0.02186 0.34688 0.0
H489 H 0.06273 0.02306 0.37549 0.0
C490 C 0.11377 0.01889 0.40402 0.0
C491 C 0.08913 0.02392 0.33679 0.0
C492 C 0.08183 0.02823 0.27725 0.0
C493 C 0.10172 0.01737 0.45077 0.0
C494 C 0.08305 0.01841 0.44022 0.0
C495 C 0.07702 0.02202 0.38351 0.0
C496 C 0.06973 0.01516 0.48746 0.0
C497 C 0.10917 0.01468 0.5112 0.0
C498 C 0.06956 0.99864 0.51691 0.0
C499 C 0.05812 0.99585 0.56421 0.0
C500 C 0.04642 0.00944 0.58292 0.0
C501 C 0.04595 0.02571 0.55188 0.0
C502 C 0.05751 0.02853 0.50444 0.0
H503 H 0.12324 0.01947 0.51442 0.0
H504 H 0.10096 0.02183 0.54412 0.0
H505 H 0.10905 1.00017 0.52193 0.0
H506 H 0.07853 0.98796 0.50384 0.0
H507 H 0.05864 0.98309 0.58679 0.0
H508 H 0.46712 0.16928 0.2259 0.0
H509 H 0.46501 0.14522 0.29756 0.0
H510 H 0.50124 0.11297 0.19603 0.0
H511 H 0.50301 0.13682 0.1226 0.0
H512 H 0.47205 0.0932 0.24762 0.0
H513 H 0.50738 0.1359 0.4083 0.0
H514 H 0.4877 0.146 0.37744 0.0
H515 H 0.50668 0.14126 0.33176 0.0
C516 C 0.47429 0.15692 0.21767 0.0
C517 C 0.48532 0.15511 0.16824 0.0
C518 C 0.47323 0.14323 0.25928 0.0
C519 C 0.48326 0.12743 0.25285 0.0
C520 C 0.49351 0.12511 0.20219 0.0
H521 H 0.50369 0.03534 0.48087 0.0
H522 H 0.50089 0.05526 0.39631 0.0
C523 C 0.49457 0.13882 0.16038 0.0
C524 C 0.48377 0.11387 0.30053 0.0
H525 H 0.49561 0.10844 0.44305 0.0
C526 C 0.47725 0.09648 0.29032 0.0
C527 C 0.49064 0.11813 0.35619 0.0
C528 C 0.49866 0.13627 0.36916 0.0
C529 C 0.47697 0.08341 0.33477 0.0
C530 C 0.48367 0.08777 0.39062 0.0
C531 C 0.49035 0.10511 0.40046 0.0
C532 C 0.484 0.07468 0.43979 0.0
C533 C 0.46909 0.06522 0.32194 0.0
C534 C 0.47551 0.0789 0.49258 0.0
C535 C 0.47721 0.06761 0.541 0.0
C536 C 0.48752 0.05187 0.53782 0.0
C537 C 0.49558 0.04734 0.48454 0.0
C538 C 0.49391 0.05868 0.43606 0.0
H539 H 0.46028 0.06556 0.28302 0.0
H540 H 0.48012 0.05561 0.31327 0.0
H541 H 0.46123 0.06013 0.35954 0.0
H542 H 0.46784 0.09117 0.49667 0.0
H543 H 0.47084 0.07147 0.58143 0.0
H544 H 0.36506 0.53229 0.20609 0.0
H545 H 0.39057 0.53315 0.27269 0.0
H546 H 0.39364 0.47543 0.26928 0.0
H547 H 0.3677 0.47439 0.20491 0.0
H548 H 0.39289 0.48759 0.37818 0.0
H549 H 0.44402 0.52596 0.25563 0.0
H550 H 0.42296 0.53753 0.25965 0.0
H551 H 0.42439 0.51657 0.22129 0.0
C552 C 0.37125 0.51977 0.21899 0.0
C553 C 0.36419 0.50327 0.19995 0.0
C554 C 0.38603 0.5203 0.25661 0.0
C555 C 0.39423 0.50436 0.27566 0.0
C556 C 0.38765 0.48793 0.255 0.0
H557 H 0.48753 0.50076 0.51319 0.0
H558 H 0.46839 0.49711 0.42685 0.0
C559 C 0.37286 0.48738 0.21759 0.0
C560 C 0.40836 0.5047 0.32158 0.0
H561 H 0.44865 0.52339 0.3589 0.0
C562 C 0.40517 0.49526 0.37352 0.0
C563 C 0.42453 0.51451 0.31558 0.0
C564 C 0.42929 0.52407 0.25979 0.0
C565 C 0.41729 0.4959 0.4202 0.0
C566 C 0.43294 0.50653 0.41546 0.0
C567 C 0.43655 0.5154 0.36276 0.0
C568 C 0.44504 0.50935 0.46609 0.0
C569 C 0.41314 0.48526 0.47449 0.0
C570 C 0.43842 0.51772 0.51626 0.0
C571 C 0.44932 0.51984 0.56513 0.0
C572 C 0.46717 0.51379 0.56497 0.0
C573 C 0.47395 0.50572 0.51438 0.0
C574 C 0.46299 0.50359 0.46515 0.0
H575 H 0.40374 0.47405 0.46541 0.0
H576 H 0.42555 0.47968 0.49408 0.0
H577 H 0.4067 0.49419 0.50689 0.0
H578 H 0.42473 0.52255 0.51775 0.0
H579 H 0.44369 0.5262 0.6033 0.0
H580 H 0.99986 0.38096 0.1975 0.0
H581 H 1.00169 0.40588 0.26581 0.0
H582 H 0.04393 0.37869 0.35875 0.0
H583 H 0.04157 0.35331 0.2924 0.0
H584 H 0.01852 0.38891 0.43108 0.0
H585 H 0.03547 0.44698 0.29176 0.0
H586 H 0.01608 0.43532 0.26547 0.0
H587 H 0.03749 0.42414 0.26674 0.0
C588 C 0.00967 0.38031 0.23211 0.0
C589 C 0.02048 0.36497 0.23939 0.0
C590 C 0.01088 0.39475 0.27081 0.0
C591 C 0.02309 0.39435 0.3173 0.0
C592 C 0.03445 0.37941 0.32313 0.0
H593 H 0.03398 0.48232 0.57237 0.0
H594 H 0.04019 0.46115 0.49281 0.0
C595 C 0.03319 0.36493 0.28467 0.0
C596 C 0.02264 0.40847 0.36323 0.0
H597 H 0.02281 0.45384 0.3857 0.0
C598 C 0.0197 0.40309 0.42105 0.0
C599 C 0.02438 0.42702 0.35071 0.0
C600 C 0.02872 0.4337 0.29037 0.0
C601 C 0.01775 0.41564 0.46603 0.0
C602 C 0.01834 0.4342 0.45293 0.0
C603 C 0.02206 0.43964 0.39564 0.0
C604 C 0.01437 0.44798 0.49795 0.0
C605 C 0.01503 0.40887 0.52733 0.0
C606 C 0.99765 0.44797 0.52607 0.0
C607 C 0.99414 0.45995 0.57128 0.0
C608 C 0.00717 0.47238 0.58898 0.0
C609 C 0.02367 0.47293 0.55939 0.0
C610 C 0.02723 0.46083 0.51408 0.0
H611 H 0.02025 0.39502 0.53278 0.0
H612 H 0.02175 0.41771 0.55942 0.0
H613 H 1.00047 0.40863 0.53728 0.0
H614 H 0.98737 0.43847 0.51359 0.0
H615 H 0.98125 0.45932 0.59295 0.0
H616 H 0.86925 0.97122 0.16509 0.0
H617 H 0.89554 0.97168 0.10099 0.0
H618 H 0.88979 0.02886 0.08005 0.0
H619 H 0.86373 0.02853 0.14388 0.0
H620 H 0.89682 0.98119 0.98826 0.0
H621 H 0.94268 0.02547 0.11007 0.0
H622 H 0.92293 0.01576 0.14283 0.0
H623 H 0.92125 0.03582 0.09932 0.0
C624 C 0.87374 0.98392 0.14744 0.0
C625 C 0.86441 0.99986 0.16023 0.0
C626 C 0.8888 0.98417 0.11083 0.0
C627 C 0.89491 1.00035 0.08631 0.0
C628 C 0.88576 0.01628 0.09969 0.0
H629 H 0.95893 0.0384 0.80498 0.0
H630 H 0.93953 0.03326 0.88924 0.0
C631 C 0.87079 0.01606 0.13639 0.0
C632 C 0.90989 1.00052 0.04323 0.0
H633 H 0.94886 0.02215 0.0077 0.0
C634 C 0.90837 0.9899 0.99305 0.0
C635 C 0.92503 0.01185 0.04932 0.0
C636 C 0.92818 0.02272 0.10361 0.0
C637 C 0.92102 0.99099 0.94772 0.0
C638 C 0.93569 1.0029 0.95279 0.0
C639 C 0.93757 0.01307 1.00373 0.0
C640 C 0.9484 0.00602 0.90388 0.0
C641 C 0.91817 0.98 0.89349 0.0
C642 C 0.96015 0.99251 0.88472 0.0
C643 C 0.97136 0.99546 0.83654 0.0
C644 C 0.97092 0.01193 0.80666 0.0
C645 C 0.95949 0.02554 0.82693 0.0
C646 C 0.94842 0.02264 0.87515 0.0
H647 H 0.90477 0.9735 0.89276 0.0
H648 H 0.91957 0.98855 0.85411 0.0
H649 H 0.92853 0.96935 0.89122 0.0
H650 H 0.9605 0.97965 0.90668 0.0
H651 H 0.98007 0.98475 0.82194 0.0
H652 H 0.48033 0.86823 0.07357 0.0
H653 H 0.48308 0.89374 0.00788 0.0
H654 H 0.53907 0.89867 0.05153 0.0
H655 H 0.53643 0.87296 0.11791 0.0
H656 H 0.49318 0.92902 0.02285 0.0
H657 H 0.54047 0.89363 0.87527 0.0
H658 H 0.52841 0.88215 0.93227 0.0
H659 H 0.54759 0.8957 0.94957 0.0
C660 C 0.49319 0.87488 0.07026 0.0
C661 C 0.50816 0.86847 0.10132 0.0
C662 C 0.49476 0.88947 0.0323 0.0
C663 C 0.51132 0.89803 0.02407 0.0
C664 C 0.52621 0.89208 0.05625 0.0
H665 H 0.51312 0.99363 0.79038 0.0
H666 H 0.51761 0.97519 0.87816 0.0
C667 C 0.52468 0.87738 0.09426 0.0
C668 C 0.51286 0.91262 0.97986 0.0
H669 H 0.53121 0.92244 0.84727 0.0
C670 C 0.50167 0.92772 0.98479 0.0
C671 C 0.52385 0.91086 0.92997 0.0
C672 C 0.53568 0.89468 0.9209 0.0
C673 C 0.50071 0.94074 0.94041 0.0
C674 C 0.51141 0.93874 0.88999 0.0
C675 C 0.52309 0.92401 0.88609 0.0
C676 C 0.50909 0.9504 0.83778 0.0
C677 C 0.48756 0.95599 0.9464 0.0
C678 C 0.50313 0.94264 0.78579 0.0
C679 C 0.50063 0.95311 0.73609 0.0
C680 C 0.50402 0.97165 0.73688 0.0
C681 C 0.51016 0.97948 0.78869 0.0
C682 C 0.5127 0.96893 0.83883 0.0
H683 H 0.47822 0.95397 0.98351 0.0
H684 H 0.49501 0.96866 0.95366 0.0
H685 H 0.47957 0.95756 0.90597 0.0
H686 H 0.50024 0.92841 0.78376 0.0
H687 H 0.49591 0.94661 0.69688 0.0
H688 H 0.66336 0.5488 0.08133 0.0
H689 H 0.63771 0.55087 0.0151 0.0
H690 H 0.62587 0.49502 0.04503 0.0
H691 H 0.65165 0.49272 0.11008 0.0
H692 H 0.62831 0.50427 0.92745 0.0
H693 H 0.58311 0.55096 0.04493 0.0
H694 H 0.6058 0.55871 0.03669 0.0
H695 H 0.60128 0.53923 0.08044 0.0
C696 C 0.65521 0.537 0.07425 0.0
C697 C 0.6596 0.5206 0.10128 0.0
C698 C 0.64043 0.53824 0.03676 0.0
C699 C 0.62973 0.52314 0.02553 0.0
C700 C 0.63384 0.50689 0.05337 0.0
H701 H 0.53259 0.51152 0.81552 0.0
H702 H 0.55411 0.51268 0.89642 0.0
C703 C 0.64854 0.50564 0.09097 0.0
C704 C 0.61517 0.52385 0.98131 0.0
H705 H 0.57536 0.54408 0.94701 0.0
C706 C 0.61671 0.51292 0.93191 0.0
C707 C 0.59996 0.53505 0.98728 0.0
C708 C 0.59728 0.54656 0.04039 0.0
C709 C 0.60366 0.51314 0.8879 0.0
C710 C 0.5887 0.52468 0.89309 0.0
C711 C 0.58692 0.53535 0.94296 0.0
C712 C 0.57494 0.52579 0.8465 0.0
C713 C 0.60592 0.50096 0.83611 0.0
C714 C 0.57935 0.53324 0.79224 0.0
C715 C 0.56711 0.53267 0.74623 0.0
C716 C 0.55023 0.52457 0.75352 0.0
C717 C 0.54552 0.51782 0.80862 0.0
C718 C 0.55778 0.51847 0.85483 0.0
H719 H 0.61622 0.49047 0.8439 0.0
H720 H 0.59302 0.49434 0.82514 0.0
H721 H 0.61014 0.50905 0.79789 0.0
H722 H 0.59247 0.53908 0.78507 0.0
H723 H 0.5711 0.53805 0.70438 0.0
H724 H 0.9752 0.65859 0.14173 0.0
H725 H 0.97139 0.63334 0.07435 0.0
H726 H 0.02662 0.6385 0.0214 0.0
H727 H 0.03054 0.6634 0.0884 0.0
H728 H 0.97451 0.63168 0.95805 0.0
H729 H 0.02429 0.58567 0.05451 0.0
H730 H 0.01654 0.60547 0.09178 0.0
H731 H 0.03421 0.60701 0.03848 0.0
C732 C 0.98654 0.65425 0.11594 0.0
C733 C 1.00325 0.66286 0.12127 0.0
C734 C 0.98436 0.63979 0.07753 0.0
C735 C 0.99884 0.63367 0.04372 0.0
C736 C 0.0154 0.64248 0.04836 0.0
H737 H 1.00229 0.5819 0.71308 0.0
H738 H 0.9988 0.60198 0.79595 0.0
C739 C 0.01762 0.65679 0.08679 0.0
C740 C 0.99661 0.61872 1.00134 0.0
H741 H 0.01633 0.57997 0.95455 0.0
C742 C 0.98349 0.62023 0.95783 0.0
C743 C 0.00802 0.60352 1.0015 0.0
C744 C 0.02141 0.60021 0.0495 0.0
C745 C 0.98213 0.60755 0.91284 0.0
C746 C 0.99453 0.59317 0.91032 0.0
C747 C 0.00698 0.59111 0.95568 0.0
C748 C 0.99556 0.58076 0.85958 0.0
C749 C 0.96742 0.60976 0.8684 0.0
C750 C 0.99541 0.56204 0.86748 0.0
C751 C 0.99768 0.55049 0.81993 0.0
C752 C 1.00012 0.55744 0.76366 0.0
C753 C 1.00019 0.57613 0.75583 0.0
C754 C 0.99804 0.58765 0.80322 0.0
H755 H 0.9557 0.6169 0.88716 0.0
H756 H 0.97249 0.61792 0.83149 0.0
H757 H 0.96285 0.5966 0.85141 0.0
H758 H 0.99378 0.55636 0.91056 0.0
H759 H 0.99804 0.5362 0.82748 0.0
H760 H 0.97891 0.22259 0.41808 0.0
H761 H 0.96464 0.19933 0.4764 0.0
H762 H 0.91372 0.21123 0.39618 0.0
H763 H 0.9282 0.2341 0.33534 0.0
H764 H 0.93613 0.19445 0.55238 0.0
H765 H 0.92374 0.1608 0.33936 0.0
H766 H 0.93712 0.18085 0.34416 0.0
H767 H 0.91318 0.18208 0.35203 0.0
C768 C 0.96462 0.22044 0.41344 0.0
C769 C 0.95477 0.22976 0.371 0.0
C770 C 0.95642 0.20727 0.44724 0.0
C771 C 0.93821 0.20324 0.43951 0.0
C772 C 0.92788 0.21388 0.40181 0.0
H773 H 0.91985 0.08966 0.51293 0.0
H774 H 0.90916 0.12068 0.50236 0.0
C775 C 0.93614 0.22703 0.36746 0.0
C776 C 0.9313 0.18621 0.46402 0.0
H777 H 0.92387 0.14301 0.42208 0.0
C778 C 0.93289 0.18327 0.52415 0.0
C779 C 0.92689 0.17165 0.42718 0.0
C780 C 0.92518 0.17386 0.36208 0.0
C781 C 0.93196 0.16591 0.54758 0.0
C782 C 0.92953 0.1512 0.50977 0.0
C783 C 0.92585 0.15435 0.45085 0.0
C784 C 0.93444 0.13272 0.52701 0.0
C785 C 0.9347 0.16338 0.61203 0.0
C786 C 0.95212 0.12925 0.54458 0.0
C787 C 0.95824 0.11169 0.55002 0.0
C788 C 0.94684 0.09722 0.53774 0.0
C789 C 0.92889 0.10062 0.5227 0.0
C790 C 0.92277 0.11828 0.51686 0.0
H791 H 0.92934 0.17501 0.63663 0.0
H792 H 0.92812 0.15094 0.62799 0.0
H793 H 0.94928 0.16247 0.62126 0.0
H794 H 0.96151 0.14014 0.5511 0.0
H795 H 0.97207 0.10943 0.56243 0.0
H796 H 0.27122 0.94053 0.37472 0.0
H797 H 0.29186 0.92818 0.44682 0.0
H798 H 0.31684 0.98018 0.46345 0.0
H799 H 0.29533 0.99279 0.39646 0.0
H800 H 0.32366 0.92342 0.42755 0.0
H801 H 0.32552 0.96469 0.62156 0.0
H802 H 0.30664 0.96591 0.57256 0.0
H803 H 0.32573 0.98069 0.56369 0.0
C804 C 0.28058 0.94949 0.39586 0.0
C805 C 0.28191 0.96758 0.37875 0.0
C806 C 0.29247 0.94237 0.43694 0.0
C807 C 0.306 0.95316 0.46111 0.0
C808 C 0.30634 0.97152 0.44721 0.0
H809 H 0.40912 0.95 0.40152 0.0
H810 H 0.37775 0.94205 0.41115 0.0
C811 C 0.29425 0.97869 0.4074 0.0
C812 C 0.32189 0.94501 0.48998 0.0
H813 H 0.35633 0.95845 0.57649 0.0
C814 C 0.33049 0.93067 0.46183 0.0
C815 C 0.33076 0.95356 0.53672 0.0
C816 C 0.32146 0.9669 0.57561 0.0
C817 C 0.34856 0.92678 0.47258 0.0
C818 C 0.3584 0.93803 0.51025 0.0
C819 C 0.34908 0.9503 0.54537 0.0
C820 C 0.37817 0.93985 0.50528 0.0
C821 C 0.35712 0.91137 0.44061 0.0
C822 C 0.38899 0.9416 0.55487 0.0
C823 C 0.40692 0.94684 0.54944 0.0
C824 C 0.41437 0.95036 0.49425 0.0
C825 C 0.40377 0.94762 0.44466 0.0
C826 C 0.38585 0.94267 0.45015 0.0
H827 H 0.34775 0.8998 0.43876 0.0
H828 H 0.35996 0.91545 0.39507 0.0
H829 H 0.36978 0.90695 0.46159 0.0
H830 H 0.38337 0.9397 0.5979 0.0
H831 H 0.41463 0.94906 0.58867 0.0
H832 H 0.55846 0.28811 0.34665 0.0
H833 H 0.55906 0.31051 0.42294 0.0
H834 H 0.50524 0.29596 0.47343 0.0
H835 H 0.50387 0.27476 0.3937 0.0
H836 H 0.50579 0.32873 0.44769 0.0
H837 H 0.56364 0.31876 0.59123 0.0
H838 H 0.57147 0.31747 0.51781 0.0
H839 H 0.55557 0.3011 0.54439 0.0
C840 C 0.54679 0.2895 0.3743 0.0
C841 C 0.53095 0.27994 0.36259 0.0
C842 C 0.54732 0.30207 0.41909 0.0
C843 C 0.5322 0.30494 0.45434 0.0
C844 C 0.51708 0.294 0.44684 0.0
H845 H 0.51391 0.41344 0.59314 0.0
H846 H 0.51249 0.38067 0.5959 0.0
C847 C 0.51638 0.28174 0.40116 0.0
C848 C 0.53083 0.32168 0.48878 0.0
H849 H 0.55606 0.35062 0.56922 0.0
C850 C 0.51647 0.33324 0.47608 0.0
C851 C 0.54467 0.32765 0.52608 0.0
C852 C 0.55956 0.31544 0.54605 0.0
C853 C 0.5165 0.35109 0.49457 0.0
C854 C 0.53127 0.35752 0.52675 0.0
C855 C 0.54487 0.34564 0.54387 0.0
C856 C 0.53404 0.37695 0.5342 0.0
C857 C 0.50149 0.36334 0.47532 0.0
C858 C 0.54696 0.38558 0.49981 0.0
C859 C 0.54778 0.40425 0.49785 0.0
C860 C 0.53568 0.41461 0.5304 0.0
C861 C 0.52327 0.40586 0.56693 0.0
C862 C 0.5225 0.38715 0.56897 0.0
H863 H 0.49184 0.35653 0.44595 0.0
H864 H 0.49403 0.36816 0.51402 0.0
H865 H 0.50701 0.37525 0.45241 0.0
H866 H 0.55585 0.37787 0.47221 0.0
H867 H 0.55737 0.41052 0.46887 0.0
H868 H 0.22544 0.42285 0.35797 0.0
H869 H 0.19786 0.42152 0.41612 0.0
H870 H 0.20062 0.47869 0.44264 0.0
H871 H 0.2279 0.48014 0.38555 0.0
H872 H 0.18607 0.46067 0.53776 0.0
H873 H 0.15406 0.44001 0.32887 0.0
H874 H 0.17086 0.42549 0.35924 0.0
H875 H 0.17711 0.44719 0.33182 0.0
C876 C 0.22036 0.43505 0.37746 0.0
C877 C 0.22872 0.45163 0.36638 0.0
C878 C 0.20463 0.43426 0.4106 0.0
C879 C 0.197 0.45008 0.43243 0.0
C880 C 0.20627 0.46632 0.42614 0.0
H881 H 0.11186 0.51513 0.4907 0.0
H882 H 0.13962 0.49795 0.48845 0.0
C883 C 0.22197 0.4671 0.39349 0.0
C884 C 0.17828 0.45068 0.45364 0.0
H885 H 0.13552 0.45154 0.40087 0.0
C886 C 0.17494 0.45819 0.50852 0.0
C887 C 0.16375 0.44739 0.41543 0.0
C888 C 0.1665 0.43966 0.35542 0.0
C889 C 0.15768 0.46386 0.52423 0.0
C890 C 0.14354 0.46205 0.48381 0.0
C891 C 0.14649 0.45296 0.43147 0.0
C892 C 0.12656 0.47203 0.49036 0.0
C893 C 0.15488 0.4726 0.58261 0.0
C894 C 0.11001 0.46313 0.49054 0.0
C895 C 0.09404 0.47294 0.49195 0.0
C896 C 0.09442 0.49182 0.4924 0.0
C897 C 0.11108 0.50063 0.49148 0.0
C898 C 0.12697 0.49083 0.4905 0.0
H899 H 0.16482 0.46771 0.61495 0.0
H900 H 0.15667 0.48732 0.57804 0.0
H901 H 0.14116 0.47002 0.59945 0.0
H902 H 0.10947 0.44861 0.48956 0.0
H903 H 0.08142 0.46576 0.49341 0.0
H904 H 0.11109 0.79894 0.12131 0.0
H905 H 0.12101 0.82631 0.07127 0.0
H906 H 0.07371 0.82482 0.96372 0.0
H907 H 0.06357 0.79796 0.01356 0.0
H908 H 0.10604 0.83673 0.90483 0.0
H909 H 0.0923 0.87221 0.11369 0.0
H910 H 0.10821 0.85408 0.11392 0.0
H911 H 0.0849 0.84949 0.10171 0.0
C912 C 0.10296 0.8043 0.08637 0.0
C913 C 0.08642 0.79633 0.072 0.0
C914 C 0.10868 0.81988 0.05775 0.0
C915 C 0.09795 0.82767 0.01443 0.0
C916 C 0.08221 0.81896 0.99693 0.0
H917 H 0.05783 0.91381 0.83748 0.0
H918 H 0.07107 0.88552 0.86803 0.0
C919 C 0.07647 0.8035 0.02546 0.0
C920 C 0.10143 0.84596 0.99224 0.0
H921 H 0.09459 0.88962 0.02983 0.0
C922 C 0.10403 0.84837 0.93229 0.0
C923 C 0.0989 0.8611 0.02829 0.0
C924 C 0.09584 0.85924 0.09297 0.0
C925 C 0.10292 0.86546 0.90686 0.0
C926 C 0.09874 0.88037 0.94224 0.0
C927 C 0.09771 0.87815 1.00276 0.0
C928 C 0.0926 0.89764 0.91731 0.0
C929 C 0.10552 0.86725 0.84207 0.0
C930 C 0.10013 0.91394 0.93552 0.0
C931 C 0.09248 0.93024 0.91831 0.0
C932 C 0.0771 0.93049 0.88291 0.0
C933 C 0.06988 0.91413 0.86375 0.0
C934 C 0.0775 0.8979 0.88097 0.0
H935 H 0.11505 0.85698 0.8257 0.0
H936 H 0.09249 0.86504 0.81991 0.0
H937 H 0.11058 0.88076 0.83004 0.0
H938 H 0.11166 0.91403 0.96414 0.0
H939 H 0.09844 0.94263 0.93336 0.0
H940 H 0.73733 0.07205 0.97385 0.0
H941 H 0.71371 0.07905 0.90295 0.0
H942 H 0.69814 0.02331 0.90089 0.0
H943 H 0.72199 0.01623 0.96936 0.0
H944 H 0.69342 0.03843 0.79548 0.0
H945 H 0.66395 0.08181 0.96829 0.0
H946 H 0.68553 0.08841 0.94113 0.0
H947 H 0.68323 0.06787 0.98165 0.0
C948 C 0.72908 0.06129 0.95702 0.0
C949 C 0.73131 0.04365 0.97735 0.0
C950 C 0.71559 0.06529 0.91683 0.0
C951 C 0.70387 0.05177 0.8979 0.0
C952 C 0.70699 0.03397 0.91495 0.0
H953 H 0.60091 0.02236 0.82999 0.0
H954 H 0.63324 0.02628 0.83722 0.0
C955 C 0.72064 0.02992 0.95414 0.0
C956 C 0.68703 0.05605 0.86674 0.0
H957 H 0.64582 0.07464 0.8896 0.0
C958 C 0.68313 0.04668 0.81532 0.0
C959 C 0.6736 0.06684 0.89273 0.0
C960 C 0.67665 0.07673 0.94915 0.0
C961 C 0.66581 0.04678 0.79165 0.0
C962 C 0.6522 0.05657 0.81998 0.0
C963 C 0.65642 0.06717 0.86822 0.0
C964 C 0.63308 0.05375 0.80674 0.0
C965 C 0.66192 0.03568 0.73838 0.0
C966 C 0.62233 0.06797 0.78747 0.0
C967 C 0.60379 0.06572 0.78263 0.0
C968 C 0.5957 0.04932 0.79814 0.0
C969 C 0.60665 0.03506 0.81675 0.0
C970 C 0.62516 0.03726 0.82081 0.0
H971 H 0.67429 0.03311 0.71274 0.0
H972 H 0.65631 0.02255 0.75208 0.0
H973 H 0.6519 0.04241 0.71005 0.0
H974 H 0.62826 0.08085 0.77709 0.0
H975 H 0.59582 0.07687 0.76706 0.0
H976 H 0.45972 0.72969 0.95868 0.0
H977 H 0.44992 0.70323 0.90689 0.0
H978 H 0.3979 0.70692 0.98836 0.0
H979 H 0.40789 0.73353 0.0417 0.0
H980 H 0.4114 0.67586 0.0085 0.0
H981 H 0.4202 0.68713 0.77468 0.0
H982 H 0.44027 0.69449 0.80982 0.0
H983 H 0.41928 0.70557 0.82542 0.0
C984 C 0.44594 0.72538 0.96387 0.0
C985 C 0.4346 0.73367 0.00451 0.0
C986 C 0.44028 0.71021 0.93381 0.0
C987 C 0.42306 0.70314 0.94296 0.0
C988 C 0.41122 0.71217 0.98035 0.0
H989 H 0.4268 0.59507 0.79106 0.0
H990 H 0.41277 0.62415 0.81152 0.0
C991 C 0.41695 0.72732 0.01094 0.0
C992 C 0.41906 0.68471 0.9225 0.0
H993 H 0.4288 0.65662 0.81009 0.0
C994 C 0.4146 0.67174 0.9645 0.0
C995 C 0.42272 0.67918 0.86487 0.0
C996 C 0.42567 0.69243 0.81617 0.0
C997 C 0.41584 0.65339 0.95218 0.0
C998 C 0.42214 0.64794 0.89702 0.0
C999 C 0.42445 0.66081 0.85298 0.0
C1000 C 0.42907 0.62959 0.88722 0.0
C1001 C 0.41133 0.64007 0.99944 0.0
C1002 C 0.44294 0.6231 0.92275 0.0
C1003 C 0.45099 0.60665 0.91112 0.0
C1004 C 0.44547 0.59636 0.8633 0.0
C1005 C 0.43141 0.60275 0.82805 0.0
C1006 C 0.42332 0.61929 0.83982 0.0
H1007 H 0.40051 0.6453 0.02799 0.0
H1008 H 0.40701 0.627 0.98111 0.0
H1009 H 0.42334 0.63783 0.027 0.0
H1010 H 0.44802 0.63109 0.95839 0.0
H1011 H 0.46205 0.60236 0.93829 0.0
H1012 H 0.79776 0.46133 0.98973 0.0
H1013 H 0.82486 0.45073 0.94337 0.0
H1014 H 0.81871 0.39925 0.02712 0.0
H1015 H 0.79122 0.40991 0.07439 0.0
H1016 H 0.85037 0.4126 0.04943 0.0
H1017 H 0.84064 0.41918 0.81404 0.0
H1018 H 0.83321 0.43956 0.8471 0.0
H1019 H 0.82192 0.41876 0.86396 0.0
C1020 C 0.80166 0.4475 0.9966 0.0
C1021 C 0.79227 0.43648 0.03587 0.0
C1022 C 0.81722 0.4414 0.96973 0.0
C1023 C 0.82373 0.42407 0.98089 0.0
C1024 C 0.81387 0.41263 0.01752 0.0
H1025 H 0.93129 0.42601 0.82793 0.0
H1026 H 0.90255 0.41179 0.8518 0.0
C1027 C 0.79823 0.41877 0.04469 0.0
C1028 C 0.84219 0.41946 0.96214 0.0
H1029 H 0.871 0.42742 0.84997 0.0
C1030 C 0.85483 0.41524 0.00532 0.0
C1031 C 0.8481 0.42233 0.9044 0.0
C1032 C 0.83515 0.42499 0.85477 0.0
C1033 C 0.87327 0.41601 0.99372 0.0
C1034 C 0.87915 0.42159 0.93806 0.0
C1035 C 0.86654 0.42362 0.89319 0.0
C1036 C 0.89768 0.4281 0.9279 0.0
C1037 C 0.88623 0.41167 0.04208 0.0
C1038 C 0.90452 0.44191 0.96284 0.0
C1039 C 0.92086 0.45001 0.94939 0.0
C1040 C 0.93061 0.44465 0.90016 0.0
C1041 C 0.924 0.4305 0.86595 0.0
C1042 C 0.90765 0.42231 0.87967 0.0
H1043 H 0.88073 0.401 0.07079 0.0
H1044 H 0.89941 0.40722 0.02494 0.0
H1045 H 0.88827 0.42378 0.06923 0.0
H1046 H 0.89682 0.44708 0.99905 0.0
H1047 H 0.92537 0.46111 0.9759 0.0
H1048 H 1.00553 0.21491 0.86407 0.0
H1049 H 0.00575 0.18484 0.82124 0.0
H1050 H 0.03488 0.16476 0.9695 0.0
H1051 H 0.0343 0.19455 0.01337 0.0
H1052 H 0.03422 0.1612 0.79181 0.0
H1053 H 0.99061 0.13208 0.96343 0.0
H1054 H 0.9933 0.15596 0.95365 0.0
H1055 H 0.0103 0.14315 0.99034 0.0
C1056 C 0.012 0.20411 0.88763 0.0
C1057 C 0.01982 0.20723 0.94245 0.0
C1058 C 0.01218 0.18692 0.86291 0.0
C1059 C 0.02004 0.17244 0.89258 0.0
C1060 C 0.02845 0.17563 0.9462 0.0
H1061 H 0.02729 0.05725 0.83419 0.0
H1062 H 0.02964 0.08791 0.87113 0.0
C1063 C 0.02831 0.19279 0.97089 0.0
C1064 C 0.01916 0.15394 0.86815 0.0
H1065 H 1.00321 0.11177 0.89589 0.0
C1066 C 0.02739 0.1504 0.81443 0.0
C1067 C 0.01024 0.13982 0.89762 0.0
C1068 C 1.00046 0.1429 0.9542 0.0
C1069 C 0.02729 0.13307 0.79008 0.0
C1070 C 0.01838 0.11894 0.81962 0.0
C1071 C 0.0101 0.12253 0.87325 0.0
C1072 C 0.0174 0.10033 0.79584 0.0
C1073 C 0.03714 0.13 0.73365 0.0
C1074 C 0.0096 0.09698 0.74132 0.0
C1075 C 0.00831 0.07944 0.71991 0.0
C1076 C 0.01462 0.06478 0.75279 0.0
C1077 C 0.02232 0.06817 0.80754 0.0
C1078 C 0.02367 0.08572 0.8288 0.0
H1079 H 0.04737 0.14055 0.72556 0.0
H1080 H 0.04387 0.11672 0.73343 0.0
H1081 H 0.02741 0.13039 0.69717 0.0
H1082 H 1.00423 0.10791 0.7156 0.0
H1083 H 1.00213 0.07738 0.67783 0.0
H1084 H 0.29887 0.98747 0.84378 0.0
H1085 H 0.32829 0.98805 0.79604 0.0
H1086 H 0.34465 0.03156 0.90694 0.0
H1087 H 0.31548 0.03087 0.95555 0.0
H1088 H 0.34753 0.0169 0.73758 0.0
H1089 H 0.38307 0.99212 0.934 0.0
H1090 H 0.35907 0.99039 0.92554 0.0
H1091 H 0.36908 0.01139 0.94571 0.0
C1092 C 0.30871 0.9972 0.85795 0.0
C1093 C 0.30475 0.00908 0.90381 0.0
C1094 C 0.3255 0.99756 0.83041 0.0
C1095 C 0.3388 0.00966 0.84847 0.0
C1096 C 0.3347 0.02193 0.89277 0.0
H1097 H 0.45085 0.02968 0.77586 0.0
H1098 H 0.42015 0.02869 0.81248 0.0
C1099 C 0.3179 0.02165 0.92011 0.0
C1100 C 0.35709 0.0092 0.82224 0.0
H1101 H 0.40115 1.00177 0.85535 0.0
C1102 C 0.35927 0.01352 0.76316 0.0
C1103 C 0.3724 1.00471 0.85558 0.0
C1104 C 0.37087 0.99923 0.91861 0.0
C1105 C 0.37638 0.01409 0.73707 0.0
C1106 C 0.39175 0.00978 0.77063 0.0
C1107 C 0.38947 1.00515 0.8295 0.0
C1108 C 0.41039 0.0105 0.74651 0.0
C1109 C 0.37782 0.01992 0.67436 0.0
C1110 C 0.41535 1.00049 0.69726 0.0
C1111 C 0.43297 1.00118 0.6757 0.0
C1112 C 0.44612 0.01165 0.70353 0.0
C1113 C 0.44115 0.02144 0.75326 0.0
C1114 C 0.42354 0.02089 0.77434 0.0
H1115 H 0.36578 0.02754 0.66017 0.0
H1116 H 0.38985 0.02842 0.6672 0.0
H1117 H 0.37896 0.00788 0.64635 0.0
H1118 H 0.40568 0.99195 0.67581 0.0
H1119 H 0.43632 0.99331 0.63769 0.0
H1120 H 0.47666 0.32515 0.93696 0.0
H1121 H 0.47645 0.35516 0.89365 0.0
H1122 H 0.52218 0.34127 0.78829 0.0
H1123 H 0.52225 0.31108 0.83049 0.0
H1124 H 0.50459 0.37979 0.90126 0.0
H1125 H 0.48885 0.3655 0.67016 0.0
H1126 H 0.48551 0.34915 0.72724 0.0
H1127 H 0.50758 0.35316 0.69856 0.0
C1128 C 0.48641 0.32829 0.90352 0.0
C1129 C 0.49945 0.3156 0.88723 0.0
C1130 C 0.48636 0.34554 0.87908 0.0
C1131 C 0.4992 0.3505 0.83727 0.0
C1132 C 0.51195 0.33774 0.81975 0.0
H1133 H 0.52483 0.45103 0.65916 0.0
H1134 H 0.52357 0.41998 0.69384 0.0
C1135 C 0.51207 0.3205 0.84437 0.0
C1136 C 0.50002 0.36936 0.81539 0.0
H1137 H 0.49771 0.39529 0.6926 0.0
C1138 C 0.50297 0.38318 0.85566 0.0
C1139 C 0.49818 0.37381 0.75576 0.0
C1140 C 0.49471 0.35966 0.7104 0.0
C1141 C 0.50433 0.40122 0.83811 0.0
C1142 C 0.50212 0.40576 0.77862 0.0
C1143 C 0.4993 0.39191 0.73821 0.0
C1144 C 0.50276 0.42476 0.75751 0.0
C1145 C 0.50871 0.41514 0.88349 0.0
C1146 C 0.49143 0.43791 0.78139 0.0
C1147 C 0.49242 0.45579 0.76261 0.0
C1148 C 0.50443 0.46088 0.71835 0.0
C1149 C 0.51538 0.4476 0.6932 0.0
C1150 C 0.51463 0.4298 0.71287 0.0
H1151 H 0.5155 0.40907 0.92177 0.0
H1152 H 0.51748 0.42584 0.8655 0.0
H1153 H 0.49609 0.42139 0.89902 0.0
H1154 H 0.48177 0.43436 0.81464 0.0
H1155 H 0.48365 0.4656 0.78243 0.0
H1156 H 0.21043 0.51901 0.8695 0.0
H1157 H 0.18042 0.5235 0.82725 0.0
H1158 H 0.15929 0.48204 0.93869 0.0
H1159 H 0.189 0.47749 0.98094 0.0
H1160 H 0.15593 0.49229 0.77577 0.0
H1161 H 0.12815 0.53063 0.96251 0.0
H1162 H 0.15185 0.53014 0.94611 0.0
H1163 H 0.1413 0.51099 0.9788 0.0
C1164 C 0.19937 0.51088 0.885 0.0
C1165 C 0.20218 0.4978 0.92833 0.0
C1166 C 0.18227 0.51341 0.8607 0.0
C1167 C 0.16763 0.50312 0.87998 0.0
C1168 C 0.17038 0.49013 0.92322 0.0
H1169 H 0.05255 0.49905 0.82949 0.0
H1170 H 0.0835 0.49694 0.8641 0.0
C1171 C 0.18743 0.48747 0.94703 0.0
C1172 C 0.14938 0.50582 0.85542 0.0
H1173 H 0.10776 0.52178 0.88959 0.0
C1174 C 0.1454 0.49888 0.80027 0.0
C1175 C 0.13566 0.51423 0.88782 0.0
C1176 C 0.13935 0.52205 0.94703 0.0
C1177 C 0.12791 0.49971 0.77723 0.0
C1178 C 0.1141 0.50816 0.80968 0.0
C1179 C 0.11824 0.5153 0.86461 0.0
C1180 C 0.09524 0.50951 0.78811 0.0
C1181 C 0.12432 0.49088 0.71938 0.0
C1182 C 0.09136 0.51755 0.73423 0.0
C1183 C 0.07366 0.51864 0.71411 0.0
C1184 C 0.05933 0.51198 0.74776 0.0
C1185 C 0.06319 0.50432 0.80234 0.0
C1186 C 0.08093 0.5031 0.82221 0.0
H1187 H 0.13456 0.48052 0.70926 0.0
H1188 H 0.11088 0.48449 0.71856 0.0
H1189 H 0.12486 0.50116 0.68443 0.0
H1190 H 0.10201 0.5231 0.70771 0.0
H1191 H 0.07125 0.5248 0.67215 0.0
H1192 H 0.99031 0.83014 0.36141 0.0
H1193 H 0.98888 0.85946 0.40858 0.0
H1194 H 1.00528 0.83551 0.5708 0.0
H1195 H 0.00656 0.80606 0.5242 0.0
H1196 H 0.96972 0.8724 0.50654 0.0
H1197 H 0.04332 0.87453 0.54282 0.0
H1198 H 0.03291 0.85852 0.49477 0.0
H1199 H 0.03222 0.85513 0.57214 0.0
C1200 C 0.99326 0.83099 0.40742 0.0
C1201 C 0.99866 0.81566 0.4388 0.0
C1202 C 0.99256 0.84783 0.43425 0.0
C1203 C 0.99732 0.84978 0.49295 0.0
C1204 C 1.00195 0.83442 0.52511 0.0
H1205 H 0.01251 0.94396 0.71335 0.0
H1206 H 0.00985 0.91345 0.67534 0.0
C1207 C 1.00265 0.81757 0.49835 0.0
C1208 C 0.99792 0.86793 0.51992 0.0
H1209 H 0.02637 0.89844 0.58139 0.0
C1210 C 0.9821 0.8781 0.52291 0.0
C1211 C 0.01408 0.87539 0.54134 0.0
C1212 C 0.03165 0.86543 0.53729 0.0
C1213 C 0.98196 0.89541 0.5473 0.0
C1214 C 0.99816 0.90295 0.56816 0.0
C1215 C 0.01394 0.8927 0.56554 0.0
C1216 C 0.99915 0.92154 0.59184 0.0
C1217 C 0.96437 0.90531 0.55144 0.0
C1218 C 0.9942 0.93634 0.5575 0.0
C1219 C 0.99565 0.95382 0.57918 0.0
C1220 C 1.00224 0.95695 0.63561 0.0
C1221 C 0.00729 0.9421 0.66983 0.0
C1222 C 0.00581 0.92461 0.64811 0.0
H1223 H 0.95277 0.89596 0.54999 0.0
H1224 H 0.96357 0.91326 0.59212 0.0
H1225 H 0.96316 0.91465 0.51399 0.0
H1226 H 0.98947 0.93441 0.51346 0.0
H1227 H 0.99176 0.9649 0.55134 0.0
H1228 H 0.6955 0.03712 0.40681 0.0
H1229 H 0.66523 0.0376 0.44685 0.0
H1230 H 0.67102 0.98261 0.50187 0.0
H1231 H 0.7017 0.98221 0.46399 0.0
H1232 H 0.63709 0.01772 0.41303 0.0
H1233 H 0.64993 1.00518 0.647 0.0
H1234 H 0.66744 0.01163 0.59691 0.0
H1235 H 0.65986 0.98875 0.60003 0.0
C1236 C 0.6906 0.02523 0.42877 0.0
C1237 C 0.70125 0.00965 0.43238 0.0
C1238 C 0.67314 0.02549 0.45121 0.0
C1239 C 0.66581 0.01022 0.47806 0.0
C1240 C 0.67642 0.99469 0.48243 0.0
H1241 H 0.55053 0.9915 0.51391 0.0
H1242 H 0.58213 0.99091 0.48543 0.0
C1243 C 0.69394 0.99442 0.46005 0.0
C1244 C 0.64672 0.01031 0.49799 0.0
H1245 H 0.61957 1.00333 0.61593 0.0
C1246 C 0.63329 0.01461 0.45747 0.0
C1247 C 0.64169 0.00654 0.55619 0.0
C1248 C 0.65548 1.00294 0.60275 0.0
C1249 C 0.61505 0.01502 0.47313 0.0
C1250 C 0.60994 0.01053 0.53073 0.0
C1251 C 0.62339 0.00652 0.57158 0.0
C1252 C 0.59075 0.01028 0.5496 0.0
C1253 C 0.60151 0.02072 0.42796 0.0
C1254 C 0.58503 0.02084 0.59663 0.0
C1255 C 0.56696 0.02104 0.61346 0.0
C1256 C 0.55414 0.01064 0.58379 0.0
C1257 C 0.55995 0.99983 0.53737 0.0
C1258 C 0.57805 0.99955 0.5208 0.0
H1259 H 0.60785 0.02872 0.39266 0.0
H1260 H 0.59549 0.00862 0.40792 0.0
H1261 H 0.59059 0.02881 0.44764 0.0
H1262 H 0.59451 0.02919 0.61978 0.0
H1263 H 0.56301 0.02962 0.6491 0.0
H1264 H 0.53946 0.70457 0.37839 0.0
H1265 H 0.53966 0.67489 0.4246 0.0
H1266 H 0.48402 0.68122 0.47092 0.0
H1267 H 0.48357 0.71064 0.42384 0.0
H1268 H 0.53108 0.6636 0.54085 0.0
H1269 H 0.48518 0.634 0.37702 0.0
H1270 H 0.49647 0.65514 0.36567 0.0
H1271 H 0.47697 0.65398 0.41148 0.0
C1272 C 0.52726 0.69967 0.39848 0.0
C1273 C 0.51148 0.71004 0.39709 0.0
C1274 C 0.52743 0.68273 0.42513 0.0
C1275 C 0.51178 0.6757 0.45049 0.0
C1276 C 0.49619 0.68624 0.45093 0.0
H1277 H 0.50154 0.58047 0.67187 0.0
H1278 H 0.50204 0.6111 0.63339 0.0
C1279 C 0.49603 0.70319 0.42453 0.0
C1280 C 0.51163 0.65718 0.47506 0.0
H1281 H 0.49268 0.61577 0.45781 0.0
C1282 C 0.52269 0.65314 0.52275 0.0
C1283 C 0.50084 0.64345 0.45096 0.0
C1284 C 0.48929 0.64674 0.39814 0.0
C1285 C 0.52305 0.63583 0.54745 0.0
C1286 C 0.51194 0.62221 0.52419 0.0
C1287 C 0.50107 0.62622 0.47601 0.0
C1288 C 0.51171 0.6036 0.54811 0.0
C1289 C 0.5356 0.63216 0.59752 0.0
C1290 C 0.51659 0.58908 0.51272 0.0
C1291 C 0.51626 0.57152 0.53449 0.0
C1292 C 0.51091 0.56802 0.59217 0.0
C1293 C 0.50584 0.5826 0.62739 0.0
C1294 C 0.50622 0.60018 0.60555 0.0
H1295 H 0.54619 0.64258 0.60105 0.0
H1296 H 0.52784 0.63209 0.63872 0.0
H1297 H 0.54211 0.61885 0.59277 0.0
H1298 H 0.52078 0.59135 0.46818 0.0
H1299 H 0.5202 0.5607 0.50591 0.0
H1300 H 0.82528 0.53 0.35057 0.0
H1301 H 0.85429 0.53191 0.39969 0.0
H1302 H 0.83124 0.50804 0.55349 0.0
H1303 H 0.80216 0.50603 0.50458 0.0
H1304 H 0.86591 0.54836 0.50039 0.0
H1305 H 0.87285 0.47446 0.51973 0.0
H1306 H 0.8559 0.48486 0.475 0.0
H1307 H 0.85286 0.48329 0.55244 0.0
C1308 C 0.82627 0.52543 0.3952 0.0
C1309 C 0.81136 0.51775 0.42343 0.0
C1310 C 0.84293 0.52643 0.42314 0.0
C1311 C 0.8451 0.51975 0.47989 0.0
C1312 C 0.83006 0.51284 0.50916 0.0
H1313 H 0.93992 0.50724 0.70104 0.0
H1314 H 0.9092 0.50886 0.66378 0.0
C1315 C 0.81341 0.51176 0.48118 0.0
C1316 C 0.86316 0.5197 0.50771 0.0
H1317 H 0.89529 0.49201 0.56462 0.0
C1318 C 0.87232 0.53603 0.51442 0.0
C1319 C 0.8716 0.50362 0.52604 0.0
C1320 C 0.8629 0.48554 0.51754 0.0
C1321 C 0.88955 0.53673 0.5393 0.0
C1322 C 0.89801 0.52064 0.55721 0.0
C1323 C 0.88879 0.50434 0.5511 0.0
C1324 C 0.91664 0.52033 0.58068 0.0
C1325 C 0.89846 0.55474 0.54685 0.0
C1326 C 0.9311 0.5261 0.54628 0.0
C1327 C 0.94869 0.52517 0.56737 0.0
C1328 C 0.95226 0.51839 0.62341 0.0
C1329 C 0.93772 0.51264 0.65785 0.0
C1330 C 0.92012 0.51352 0.63658 0.0
H1331 H 0.88855 0.56585 0.54617 0.0
H1332 H 0.90605 0.5553 0.58835 0.0
H1333 H 0.90804 0.55697 0.51058 0.0
H1334 H 0.92882 0.53105 0.50258 0.0
H1335 H 0.95949 0.52965 0.53938 0.0
loop_
_geom_bond_atom_site_label_1
_geom_bond_atom_site_label_2
_geom_bond_distance
_geom_bond_site_symmetry_2
_ccdc_geom_bond_type
C0 C1 1.386 . S
C0 C2 1.397 . S
C0 H24 0.931 . S
C1 C0 1.386 . S
C1 C5 1.397 . S
C2 C0 1.397 . S
C2 C3 1.384 . S
C2 H25 0.930 . S
C3 C2 1.384 . S
C3 C4 1.377 . S
C3 C6 1.481 . S
C4 C3 1.377 . S
C4 C5 1.389 . S
C4 H26 0.929 . S
C5 C1 1.397 . S
C5 C4 1.389 . S
C5 H27 0.931 . S
C6 C3 1.481 . S
C6 C7 1.387 . S
C6 C11 1.390 . S
C7 C6 1.387 . S
C7 C8 1.401 . S
C7 H28 0.930 . S
C8 C7 1.401 . S
C8 C9 1.376 . S
C8 C17 1.511 . S
C9 C8 1.376 . S
C9 C10 1.392 . S
C9 H30 0.931 . S
C10 C9 1.392 . S
C10 C11 1.361 . S
C10 C12 1.500 . S
C11 C6 1.390 . S
C11 C10 1.361 . S
C11 H29 0.931 . S
C12 C10 1.500 . S
C12 C13 1.371 . S
C12 C14 1.365 . S
C13 C12 1.371 . S
C13 C23 1.386 . S
C13 H31 0.931 . S
C14 C12 1.365 . S
C14 C15 1.409 . S
C14 H32 0.929 . S
C15 C14 1.409 . S
C15 C16 1.380 . S
C15 H33 0.930 . S
C16 C15 1.380 . S
C16 C23 1.357 . S
C17 C8 1.511 . S
C17 C18 1.341 . S
C17 C19 1.371 . S
C18 C17 1.341 . S
C18 C22 1.394 . S
C18 H34 0.930 . S
C19 C17 1.371 . S
C19 C20 1.392 . S
C19 H35 0.931 . S
C20 C19 1.392 . S
C20 C21 1.331 . S
C20 H38 0.932 . S
C21 C20 1.331 . S
C21 C22 1.336 . S
C22 C18 1.394 . S
C22 C21 1.336 . S
C22 H37 0.929 . S
C23 C13 1.386 . S
C23 C16 1.357 . S
C23 H36 0.928 . S
H24 C0 0.931 . S
H25 C2 0.930 . S
H26 C4 0.929 . S
H27 C5 0.931 . S
H28 C7 0.930 . S
H29 C11 0.931 . S
H30 C9 0.931 . S
H31 C13 0.931 . S
H32 C14 0.929 . S
H33 C15 0.930 . S
H34 C18 0.930 . S
H35 C19 0.931 . S
H36 C23 0.928 . S
H37 C22 0.929 . S
H38 C20 0.932 . S
C39 C40 1.394 . S
C39 C41 1.397 . S
C39 H63 0.931 . S
C40 C39 1.394 . S
C40 C44 1.389 1_655 S
C41 C39 1.397 . S
C41 C42 1.389 . S
C41 H64 0.930 . S
C42 C41 1.389 . S
C42 C43 1.373 1_655 S
C42 C45 1.480 . S
C43 C42 1.373 1_455 S
C43 C44 1.389 . S
C43 H65 0.929 . S
C44 C40 1.389 1_455 S
C44 C43 1.389 . S
C44 H66 0.931 . S
C45 C42 1.480 . S
C45 C46 1.388 . S
C45 C50 1.390 . S
C46 C45 1.388 . S
C46 C47 1.402 . S
C46 H67 0.930 . S
C47 C46 1.402 . S
C47 C48 1.376 . S
C47 C56 1.513 . S
C48 C47 1.376 . S
C48 C49 1.392 . S
C48 H69 0.934 . S
C49 C48 1.392 . S
C49 C50 1.361 . S
C49 C51 1.499 1_655 S
C50 C45 1.390 . S
C50 C49 1.361 . S
C50 H68 0.931 . S
C51 C49 1.499 1_455 S
C51 C52 1.364 1_455 S
C51 C53 1.373 . S
C52 C51 1.364 1_655 S
C52 C62 1.386 . S
C52 H70 0.931 . S
C53 C51 1.373 . S
C53 C54 1.409 . S
C53 H71 0.929 . S
C54 C53 1.409 . S
C54 C55 1.378 . S
C54 H72 0.930 . S
C55 C54 1.378 . S
C55 C62 1.360 1_455 S
C56 C47 1.513 . S
C56 C57 1.341 . S
C56 C58 1.371 1_655 S
C57 C56 1.341 . S
C57 C61 1.394 . S
C57 H73 0.930 . S
C58 C56 1.371 1_455 S
C58 C59 1.392 . S
C58 H74 0.931 . S
C59 C58 1.392 . S
C59 C60 1.322 1_455 S
C59 H77 0.932 . S
C60 C59 1.322 1_655 S
C60 C61 1.345 . S
C61 C57 1.394 . S
C61 C60 1.345 . S
C61 H76 0.929 . S
C62 C52 1.386 . S
C62 C55 1.360 1_655 S
C62 H75 0.928 . S
H63 C39 0.931 . S
H64 C41 0.930 . S
H65 C43 0.929 . S
H66 C44 0.931 . S
H67 C46 0.930 . S
H68 C50 0.931 . S
H69 C48 0.934 . S
H70 C52 0.931 . S
H71 C53 0.929 . S
H72 C54 0.930 . S
H73 C57 0.930 . S
H74 C58 0.931 . S
H75 C62 0.928 . S
H76 C61 0.929 . S
H77 C59 0.932 . S
C78 C79 1.394 . S
C78 C80 1.397 . S
C78 H102 0.931 . S
C79 C78 1.394 . S
C79 C83 1.389 1_565 S
C80 C78 1.397 . S
C80 C81 1.389 . S
C80 H103 0.930 . S
C81 C80 1.389 . S
C81 C82 1.373 1_565 S
C81 C84 1.480 . S
C82 C81 1.373 1_545 S
C82 C83 1.389 . S
C82 H104 0.929 . S
C83 C79 1.389 1_545 S
C83 C82 1.389 . S
C83 H105 0.931 . S
C84 C81 1.480 . S
C84 C85 1.388 . S
C84 C89 1.390 . S
C85 C84 1.388 . S
C85 C86 1.402 . S
C85 H106 0.930 . S
C86 C85 1.402 . S
C86 C87 1.376 . S
C86 C95 1.513 . S
C87 C86 1.376 . S
C87 C88 1.392 . S
C87 H108 0.934 . S
C88 C87 1.392 . S
C88 C89 1.361 . S
C88 C90 1.499 1_565 S
C89 C84 1.390 . S
C89 C88 1.361 . S
C89 H107 0.931 . S
C90 C88 1.499 1_545 S
C90 C91 1.364 1_545 S
C90 C92 1.373 . S
C91 C90 1.364 1_565 S
C91 C101 1.386 . S
C91 H109 0.931 . S
C92 C90 1.373 . S
C92 C93 1.409 . S
C92 H110 0.929 . S
C93 C92 1.409 . S
C93 C94 1.378 . S
C93 H111 0.930 . S
C94 C93 1.378 . S
C94 C101 1.360 1_545 S
C95 C86 1.513 . S
C95 C96 1.341 . S
C95 C97 1.371 1_565 S
C96 C95 1.341 . S
C96 C100 1.394 . S
C96 H112 0.930 . S
C97 C95 1.371 1_545 S
C97 C98 1.392 . S
C97 H113 0.931 . S
C98 C97 1.392 . S
C98 C99 1.322 1_545 S
C98 H116 0.932 . S
C99 C98 1.322 1_565 S
C99 C100 1.345 . S
C100 C96 1.394 . S
C100 C99 1.345 . S
C100 H115 0.929 . S
C101 C91 1.386 . S
C101 C94 1.360 1_565 S
C101 H114 0.928 . S
H102 C78 0.931 . S
H103 C80 0.930 . S
H104 C82 0.929 . S
H105 C83 0.931 . S
H106 C85 0.930 . S
H107 C89 0.931 . S
H108 C87 0.934 . S
H109 C91 0.931 . S
H110 C92 0.929 . S
H111 C93 0.930 . S
H112 C96 0.930 . S
H113 C97 0.931 . S
H114 C101 0.928 . S
H115 C100 0.929 . S
H116 C98 0.932 . S
C117 C118 1.386 . S
C117 C119 1.397 . S
C117 H141 0.931 . S
C118 C117 1.386 . S
C118 C122 1.397 . S
C119 C117 1.397 . S
C119 C120 1.384 . S
C119 H142 0.930 . S
C120 C119 1.384 . S
C120 C121 1.377 . S
C120 C123 1.481 . S
C121 C120 1.377 . S
C121 C122 1.389 . S
C121 H143 0.929 . S
C122 C118 1.397 . S
C122 C121 1.389 . S
C122 H144 0.931 . S
C123 C120 1.481 . S
C123 C124 1.387 . S
C123 C128 1.390 . S
C124 C123 1.387 . S
C124 C125 1.401 . S
C124 H145 0.930 . S
C125 C124 1.401 . S
C125 C126 1.376 . S
C125 C134 1.511 . S
C126 C125 1.376 . S
C126 C127 1.392 . S
C126 H147 0.931 . S
C127 C126 1.392 . S
C127 C128 1.361 . S
C127 C129 1.500 . S
C128 C123 1.390 . S
C128 C127 1.361 . S
C128 H146 0.931 . S
C129 C127 1.500 . S
C129 C130 1.371 . S
C129 C131 1.365 . S
C130 C129 1.371 . S
C130 C140 1.386 . S
C130 H148 0.931 . S
C131 C129 1.365 . S
C131 C132 1.409 . S
C131 H149 0.929 . S
C132 C131 1.409 . S
C132 C133 1.380 . S
C132 H150 0.930 . S
C133 C132 1.380 . S
C133 C140 1.357 . S
C134 C125 1.511 . S
C134 C135 1.341 . S
C134 C136 1.371 . S
C135 C134 1.341 . S
C135 C139 1.394 . S
C135 H151 0.930 . S
C136 C134 1.371 . S
C136 C137 1.392 . S
C136 H152 0.931 . S
C137 C136 1.392 . S
C137 C138 1.331 . S
C137 H155 0.932 . S
C138 C137 1.331 . S
C138 C139 1.336 . S
C139 C135 1.394 . S
C139 C138 1.336 . S
C139 H154 0.929 . S
C140 C130 1.386 . S
C140 C133 1.357 . S
C140 H153 0.928 . S
H141 C117 0.931 . S
H142 C119 0.930 . S
H143 C121 0.929 . S
H144 C122 0.931 . S
H145 C124 0.930 . S
H146 C128 0.931 . S
H147 C126 0.931 . S
H148 C130 0.931 . S
H149 C131 0.929 . S
H150 C132 0.930 . S
H151 C135 0.930 . S
H152 C136 0.931 . S
H153 C140 0.928 . S
H154 C139 0.929 . S
H155 C137 0.932 . S
C156 C157 1.386 . S
C156 C158 1.397 . S
C156 H180 0.931 . S
C157 C156 1.386 . S
C157 C161 1.397 . S
C158 C156 1.397 . S
C158 C159 1.384 . S
C158 H181 0.930 . S
C159 C158 1.384 . S
C159 C160 1.377 . S
C159 C162 1.481 . S
C160 C159 1.377 . S
C160 C161 1.389 . S
C160 H182 0.929 . S
C161 C157 1.397 . S
C161 C160 1.389 . S
C161 H183 0.931 . S
C162 C159 1.481 . S
C162 C163 1.387 . S
C162 C167 1.390 . S
C163 C162 1.387 . S
C163 C164 1.401 . S
C163 H184 0.930 . S
C164 C163 1.401 . S
C164 C165 1.376 . S
C164 C173 1.511 . S
C165 C164 1.376 . S
C165 C166 1.392 1_554 S
C165 H186 0.931 1_554 S
C166 C165 1.392 1_556 S
C166 C167 1.361 1_556 S
C166 C168 1.500 . S
C167 C162 1.390 . S
C167 C166 1.361 1_554 S
C167 H185 0.931 . S
C168 C166 1.500 . S
C168 C169 1.371 . S
C168 C170 1.365 . S
C169 C168 1.371 . S
C169 C179 1.386 . S
C169 H187 0.931 . S
C170 C168 1.365 . S
C170 C171 1.409 . S
C170 H188 0.929 . S
C171 C170 1.409 . S
C171 C172 1.380 . S
C171 H189 0.930 . S
C172 C171 1.380 . S
C172 C179 1.357 . S
C173 C164 1.511 . S
C173 C174 1.341 . S
C173 C175 1.371 . S
C174 C173 1.341 . S
C174 C178 1.394 . S
C174 H190 0.930 . S
C175 C173 1.371 . S
C175 C176 1.392 . S
C175 H191 0.931 1_554 S
C176 C175 1.392 . S
C176 C177 1.331 . S
C176 H194 0.932 . S
C177 C176 1.331 . S
C177 C178 1.336 . S
C178 C174 1.394 . S
C178 C177 1.336 . S
C178 H193 0.929 . S
C179 C169 1.386 . S
C179 C172 1.357 . S
C179 H192 0.928 . S
H180 C156 0.931 . S
H181 C158 0.930 . S
H182 C160 0.929 . S
H183 C161 0.931 . S
H184 C163 0.930 . S
H185 C167 0.931 . S
H186 C165 0.931 1_556 S
H187 C169 0.931 . S
H188 C170 0.929 . S
H189 C171 0.930 . S
H190 C174 0.930 . S
H191 C175 0.931 1_556 S
H192 C179 0.928 . S
H193 C178 0.929 . S
H194 C176 0.932 . S
C195 C196 1.386 . S
C195 C197 1.397 . S
C195 H219 0.931 . S
C196 C195 1.386 . S
C196 C200 1.398 1_655 S
C197 C195 1.397 . S
C197 C198 1.389 1_655 S
C197 H220 0.930 . S
C198 C197 1.389 1_455 S
C198 C199 1.373 . S
C198 C201 1.480 1_455 S
C199 C198 1.373 . S
C199 C200 1.389 . S
C199 H221 0.929 . S
C200 C196 1.398 1_455 S
C200 C199 1.389 . S
C200 H222 0.931 . S
C201 C198 1.480 1_655 S
C201 C202 1.386 . S
C201 C206 1.390 . S
C202 C201 1.386 . S
C202 C203 1.400 . S
C202 H223 0.935 . S
C203 C202 1.400 . S
C203 C204 1.376 . S
C203 C212 1.512 . S
C204 C203 1.376 . S
C204 C205 1.392 1_654 S
C204 H225 0.933 1_554 S
C205 C204 1.392 1_456 S
C205 C206 1.361 1_456 S
C205 C207 1.499 . S
C206 C201 1.390 . S
C206 C205 1.361 1_654 S
C206 H224 0.931 1_655 S
C207 C205 1.499 . S
C207 C208 1.357 1_455 S
C207 C209 1.380 . S
C208 C207 1.357 1_655 S
C208 C218 1.386 . S
C208 H226 0.931 . S
C209 C207 1.380 . S
C209 C210 1.409 . S
C209 H227 0.929 . S
C210 C209 1.409 . S
C210 C211 1.384 . S
C210 H228 0.930 . S
C211 C210 1.384 . S
C211 C218 1.353 1_455 S
C212 C203 1.512 . S
C212 C213 1.341 . S
C212 C214 1.371 1_655 S
C213 C212 1.341 . S
C213 C217 1.394 . S
C213 H229 0.930 . S
C214 C212 1.371 1_455 S
C214 C215 1.392 . S
C214 H230 0.931 1_554 S
C215 C214 1.392 . S
C215 C216 1.326 1_455 S
C215 H233 0.932 . S
C216 C215 1.326 1_655 S
C216 C217 1.341 . S
C217 C213 1.394 . S
C217 C216 1.341 . S
C217 H232 0.929 . S
C218 C208 1.386 . S
C218 C211 1.353 1_655 S
C218 H231 0.928 . S
H219 C195 0.931 . S
H220 C197 0.930 . S
H221 C199 0.929 . S
H222 C200 0.931 . S
H223 C202 0.935 . S
H224 C206 0.931 1_455 S
H225 C204 0.933 1_556 S
H226 C208 0.931 . S
H227 C209 0.929 . S
H228 C210 0.930 . S
H229 C213 0.930 . S
H230 C214 0.931 1_556 S
H231 C218 0.928 . S
H232 C217 0.929 . S
H233 C215 0.932 . S
C234 C235 1.386 . S
C234 C236 1.397 . S
C234 H258 0.931 . S
C235 C234 1.386 . S
C235 C239 1.398 1_565 S
C236 C234 1.397 . S
C236 C237 1.389 1_565 S
C236 H259 0.930 . S
C237 C236 1.389 1_545 S
C237 C238 1.373 . S
C237 C240 1.480 1_545 S
C238 C237 1.373 . S
C238 C239 1.389 . S
C238 H260 0.929 . S
C239 C235 1.398 1_545 S
C239 C238 1.389 . S
C239 H261 0.931 . S
C240 C237 1.480 1_565 S
C240 C241 1.386 . S
C240 C245 1.390 . S
C241 C240 1.386 . S
C241 C242 1.400 . S
C241 H262 0.935 . S
C242 C241 1.400 . S
C242 C243 1.376 . S
C242 C251 1.512 . S
C243 C242 1.376 . S
C243 C244 1.392 1_564 S
C243 H264 0.933 1_554 S
C244 C243 1.392 1_546 S
C244 C245 1.361 1_546 S
C244 C246 1.499 . S
C245 C240 1.390 . S
C245 C244 1.361 1_564 S
C245 H263 0.931 1_565 S
C246 C244 1.499 . S
C246 C247 1.357 1_545 S
C246 C248 1.380 . S
C247 C246 1.357 1_565 S
C247 C257 1.386 . S
C247 H265 0.931 . S
C248 C246 1.380 . S
C248 C249 1.409 . S
C248 H266 0.929 . S
C249 C248 1.409 . S
C249 C250 1.384 . S
C249 H267 0.930 . S
C250 C249 1.384 . S
C250 C257 1.353 1_545 S
C251 C242 1.512 . S
C251 C252 1.341 . S
C251 C253 1.371 1_565 S
C252 C251 1.341 . S
C252 C256 1.394 . S
C252 H268 0.930 . S
C253 C251 1.371 1_545 S
C253 C254 1.392 . S
C253 H269 0.931 1_554 S
C254 C253 1.392 . S
C254 C255 1.327 1_545 S
C254 H272 0.932 . S
C255 C254 1.327 1_565 S
C255 C256 1.341 . S
C256 C252 1.394 . S
C256 C255 1.341 . S
C256 H271 0.929 . S
C257 C247 1.386 . S
C257 C250 1.353 1_565 S
C257 H270 0.928 . S
H258 C234 0.931 . S
H259 C236 0.930 . S
H260 C238 0.929 . S
H261 C239 0.931 . S
H262 C241 0.935 . S
H263 C245 0.931 1_545 S
H264 C243 0.933 1_556 S
H265 C247 0.931 . S
H266 C248 0.929 . S
H267 C249 0.930 . S
H268 C252 0.930 . S
H269 C253 0.931 1_556 S
H270 C257 0.928 . S
H271 C256 0.929 . S
H272 C254 0.932 . S
C273 C274 1.386 . S
C273 C275 1.397 . S
C273 H297 0.931 . S
C274 C273 1.386 . S
C274 C278 1.397 . S
C275 C273 1.397 . S
C275 C276 1.384 . S
C275 H298 0.930 . S
C276 C275 1.384 . S
C276 C277 1.377 . S
C276 C279 1.481 . S
C277 C276 1.377 . S
C277 C278 1.389 . S
C277 H299 0.929 . S
C278 C274 1.397 . S
C278 C277 1.389 . S
C278 H300 0.931 . S
C279 C276 1.481 . S
C279 C280 1.387 1_556 S
C279 C284 1.390 1_556 S
C280 C279 1.387 1_554 S
C280 C281 1.401 . S
C280 H301 0.930 1_554 S
C281 C280 1.401 . S
C281 C282 1.376 . S
C281 C290 1.511 . S
C282 C281 1.376 . S
C282 C283 1.392 . S
C282 H303 0.931 . S
C283 C282 1.392 . S
C283 C284 1.361 . S
C283 C285 1.500 . S
C284 C279 1.390 1_554 S
C284 C283 1.361 . S
C284 H302 0.931 . S
C285 C283 1.500 . S
C285 C286 1.371 . S
C285 C287 1.365 . S
C286 C285 1.371 . S
C286 C296 1.386 . S
C286 H304 0.931 . S
C287 C285 1.365 . S
C287 C288 1.409 . S
C287 H305 0.929 . S
C288 C287 1.409 . S
C288 C289 1.380 . S
C288 H306 0.930 . S
C289 C288 1.380 . S
C289 C296 1.357 . S
C290 C281 1.511 . S
C290 C291 1.341 . S
C290 C292 1.371 . S
C291 C290 1.341 . S
C291 C295 1.394 . S
C291 H307 0.931 . S
C292 C290 1.371 . S
C292 C293 1.392 . S
C292 H308 0.931 . S
C293 C292 1.392 . S
C293 C294 1.331 . S
C293 H311 0.932 . S
C294 C293 1.331 . S
C294 C295 1.336 . S
C295 C291 1.394 . S
C295 C294 1.336 . S
C295 H310 0.929 . S
C296 C286 1.386 . S
C296 C289 1.357 . S
C296 H309 0.928 . S
H297 C273 0.931 . S
H298 C275 0.930 . S
H299 C277 0.929 . S
H300 C278 0.931 . S
H301 C280 0.930 1_556 S
H302 C284 0.931 . S
H303 C282 0.931 . S
H304 C286 0.931 . S
H305 C287 0.929 . S
H306 C288 0.930 . S
H307 C291 0.931 . S
H308 C292 0.931 . S
H309 C296 0.928 . S
H310 C295 0.929 . S
H311 C293 0.932 . S
Tb312 C314 2.809 . S
Tb312 O332 2.484 . S
Tb312 O333 2.440 . S
Tb312 O334 2.658 1_565 S
Tb312 O335 2.409 . S
Tb312 O336 2.378 . S
Tb312 O340 2.325 1_455 S
Tb312 O343 2.341 1_565 S
Tb313 C323 2.809 . S
Tb313 O334 2.325 1_655 S
Tb313 O337 2.341 1_545 S
Tb313 O338 2.510 . S
Tb313 O339 2.440 . S
Tb313 O340 2.658 1_545 S
Tb313 O341 2.409 . S
Tb313 O342 2.378 . S
C314 Tb312 2.809 . S
C314 C315 1.514 . S
C314 O332 1.248 . S
C314 O333 1.266 . S
C315 C314 1.514 . S
C315 C316 1.359 . S
C315 C320 1.348 . S
C316 C315 1.359 . S
C316 C317 1.380 . S
C316 H344 0.929 1_455 S
C317 C316 1.380 . S
C317 C318 1.347 . S
C317 H345 0.931 1_455 S
C318 C317 1.347 . S
C318 C319 1.369 . S
C319 C318 1.369 . S
C319 C320 1.408 . S
C319 H346 0.930 . S
C320 C315 1.348 . S
C320 C319 1.408 . S
C320 H347 0.930 . S
C321 O334 1.263 1_565 S
C321 O335 1.280 . S
C322 O336 1.236 1_655 S
C322 O337 1.266 . S
C323 Tb313 2.809 . S
C323 C324 1.514 . S
C323 O338 1.307 . S
C323 O339 1.266 . S
C324 C323 1.514 . S
C324 C325 1.359 . S
C324 C329 1.348 . S
C325 C324 1.359 . S
C325 C326 1.380 . S
C325 H348 0.929 1_655 S
C326 C325 1.380 . S
C326 C327 1.347 . S
C326 H349 0.931 1_655 S
C327 C326 1.347 . S
C327 C328 1.369 . S
C328 C327 1.369 . S
C328 C329 1.408 . S
C328 H350 0.930 . S
C329 C324 1.348 . S
C329 C328 1.408 . S
C329 H351 0.930 . S
C330 O340 1.258 1_545 S
C330 O341 1.288 . S
C331 O342 1.236 1_455 S
C331 O343 1.266 . S
O332 Tb312 2.484 . S
O332 C314 1.248 . S
O333 Tb312 2.440 . S
O333 C314 1.266 . S
O334 Tb312 2.658 1_545 S
O334 Tb313 2.325 1_455 S
O334 C321 1.263 1_545 S
O335 Tb312 2.409 . S
O335 C321 1.280 . S
O336 Tb312 2.378 . S
O336 C322 1.236 1_455 S
O337 Tb313 2.341 1_565 S
O337 C322 1.266 . S
O338 Tb313 2.510 . S
O338 C323 1.307 . S
O339 Tb313 2.440 . S
O339 C323 1.266 . S
O340 Tb312 2.325 1_655 S
O340 Tb313 2.658 1_565 S
O340 C330 1.258 1_565 S
O341 Tb313 2.409 . S
O341 C330 1.288 . S
O342 Tb313 2.378 . S
O342 C331 1.236 1_655 S
O343 Tb312 2.341 1_545 S
O343 C331 1.266 . S
H344 C316 0.929 1_655 S
H345 C317 0.931 1_655 S
H346 C319 0.930 . S
H347 C320 0.930 . S
H348 C325 0.929 1_455 S
H349 C326 0.931 1_455 S
H350 C328 0.930 . S
H351 C329 0.930 . S
Tb352 C354 2.809 . S
Tb352 O372 2.484 . S
Tb352 O373 2.440 . S
Tb352 O374 2.658 . S
Tb352 O375 2.409 . S
Tb352 O376 2.378 . S
Tb352 O380 2.325 1_545 S
Tb352 O383 2.341 . S
Tb353 C363 2.809 . S
Tb353 O374 2.325 1_565 S
Tb353 O377 2.341 . S
Tb353 O378 2.506 . S
Tb353 O379 2.440 . S
Tb353 O380 2.658 . S
Tb353 O381 2.409 . S
Tb353 O382 2.378 . S
C354 Tb352 2.809 . S
C354 C355 1.514 . S
C354 O372 1.248 . S
C354 O373 1.266 . S
C355 C354 1.514 . S
C355 C356 1.359 . S
C355 C360 1.348 . S
C356 C355 1.359 . S
C356 C357 1.380 . S
C356 H384 0.929 1_545 S
C357 C356 1.380 . S
C357 C358 1.347 . S
C357 H385 0.931 1_545 S
C358 C357 1.347 . S
C358 C359 1.369 . S
C359 C358 1.369 . S
C359 C360 1.408 . S
C359 H386 0.930 . S
C360 C355 1.348 . S
C360 C359 1.408 . S
C360 H387 0.930 . S
C361 O374 1.281 . S
C361 O375 1.254 . S
C362 O376 1.236 1_565 S
C362 O377 1.266 . S
C363 Tb353 2.809 . S
C363 C364 1.514 . S
C363 O378 1.297 . S
C363 O379 1.266 . S
C364 C363 1.514 . S
C364 C365 1.359 . S
C364 C369 1.348 . S
C365 C364 1.359 . S
C365 C366 1.380 . S
C365 H388 0.929 1_565 S
C366 C365 1.380 . S
C366 C367 1.347 . S
C366 H389 0.931 1_565 S
C367 C366 1.347 . S
C367 C368 1.369 . S
C368 C367 1.369 . S
C368 C369 1.408 . S
C368 H390 0.930 . S
C369 C364 1.348 . S
C369 C368 1.408 . S
C369 H391 0.930 . S
C370 O380 1.281 . S
C370 O381 1.254 . S
C371 O382 1.236 1_545 S
C371 O383 1.266 . S
O372 Tb352 2.484 . S
O372 C354 1.248 . S
O373 Tb352 2.440 . S
O373 C354 1.266 . S
O374 Tb352 2.658 . S
O374 Tb353 2.325 1_545 S
O374 C361 1.281 . S
O375 Tb352 2.409 . S
O375 C361 1.254 . S
O376 Tb352 2.378 . S
O376 C362 1.236 1_545 S
O377 Tb353 2.341 . S
O377 C362 1.266 . S
O378 Tb353 2.506 . S
O378 C363 1.297 . S
O379 Tb353 2.440 . S
O379 C363 1.266 . S
O380 Tb352 2.325 1_565 S
O380 Tb353 2.658 . S
O380 C370 1.281 . S
O381 Tb353 2.409 . S
O381 C370 1.254 . S
O382 Tb353 2.378 . S
O382 C371 1.236 1_565 S
O383 Tb352 2.341 . S
O383 C371 1.266 . S
H384 C356 0.929 1_565 S
H385 C357 0.931 1_565 S
H386 C359 0.930 . S
H387 C360 0.930 . S
H388 C365 0.929 1_545 S
H389 C366 0.931 1_545 S
H390 C368 0.930 . S
H391 C369 0.930 . S
Tb392 C394 2.809 . S
Tb392 O412 2.484 . S
Tb392 O413 2.440 . S
Tb392 O414 2.658 . S
Tb392 O415 2.409 . S
Tb392 O416 2.378 . S
Tb392 O420 2.325 . S
Tb392 O423 2.341 . S
Tb393 C403 2.809 . S
Tb393 O414 2.325 . S
Tb393 O417 2.341 . S
Tb393 O418 2.484 . S
Tb393 O419 2.440 . S
Tb393 O420 2.658 . S
Tb393 O421 2.409 . S
Tb393 O422 2.378 . S
C394 Tb392 2.809 . S
C394 C395 1.514 . S
C394 O412 1.248 . S
C394 O413 1.266 . S
C395 C394 1.514 . S
C395 C396 1.359 . S
C395 C400 1.348 . S
C396 C395 1.359 . S
C396 C397 1.380 . S
C396 H424 0.929 . S
C397 C396 1.380 . S
C397 C398 1.347 . S
C397 H425 0.931 . S
C398 C397 1.347 . S
C398 C399 1.369 . S
C399 C398 1.369 . S
C399 C400 1.408 . S
C399 H426 0.930 . S
C400 C395 1.348 . S
C400 C399 1.408 . S
C400 H427 0.930 . S
C401 O414 1.281 . S
C401 O415 1.254 . S
C402 O416 1.236 . S
C402 O417 1.266 . S
C403 Tb393 2.809 . S
C403 C404 1.514 . S
C403 O418 1.248 . S
C403 O419 1.266 . S
C404 C403 1.514 . S
C404 C405 1.359 . S
C404 C409 1.348 . S
C405 C404 1.359 . S
C405 C406 1.380 . S
C405 H428 0.929 . S
C406 C405 1.380 . S
C406 C407 1.347 . S
C406 H429 0.931 . S
C407 C406 1.347 . S
C407 C408 1.369 . S
C408 C407 1.369 . S
C408 C409 1.408 . S
C408 H430 0.930 . S
C409 C404 1.348 . S
C409 C408 1.408 . S
C409 H431 0.930 . S
C410 O420 1.281 . S
C410 O421 1.254 . S
C411 O422 1.236 . S
C411 O423 1.266 . S
O412 Tb392 2.484 . S
O412 C394 1.248 . S
O413 Tb392 2.440 . S
O413 C394 1.266 . S
O414 Tb392 2.658 . S
O414 Tb393 2.325 . S
O414 C401 1.281 . S
O415 Tb392 2.409 . S
O415 C401 1.254 . S
O416 Tb392 2.378 . S
O416 C402 1.236 . S
O417 Tb393 2.341 . S
O417 C402 1.266 . S
O418 Tb393 2.484 . S
O418 C403 1.248 . S
O419 Tb393 2.440 . S
O419 C403 1.266 . S
O420 Tb392 2.325 . S
O420 Tb393 2.658 . S
O420 C410 1.281 . S
O421 Tb393 2.409 . S
O421 C410 1.254 . S
O422 Tb393 2.378 . S
O422 C411 1.236 . S
O423 Tb392 2.341 . S
O423 C411 1.266 . S
H424 C396 0.929 . S
H425 C397 0.931 . S
H426 C399 0.930 . S
H427 C400 0.930 . S
H428 C405 0.929 . S
H429 C406 0.931 . S
H430 C408 0.930 . S
H431 C409 0.930 . S
Tb432 C434 2.809 . S
Tb432 O452 2.484 . S
Tb432 O453 2.440 . S
Tb432 O454 2.658 1_655 S
Tb432 O455 2.409 . S
Tb432 O456 2.378 . S
Tb432 O460 2.325 . S
Tb432 O463 2.341 1_655 S
Tb433 C443 2.809 . S
Tb433 O454 2.325 . S
Tb433 O457 2.341 1_455 S
Tb433 O458 2.484 . S
Tb433 O459 2.440 . S
Tb433 O460 2.658 1_455 S
Tb433 O461 2.409 . S
Tb433 O462 2.378 . S
C434 Tb432 2.809 . S
C434 C435 1.514 . S
C434 O452 1.248 . S
C434 O453 1.266 . S
C435 C434 1.514 . S
C435 C436 1.359 . S
C435 C440 1.348 . S
C436 C435 1.359 . S
C436 C437 1.380 . S
C436 H464 0.929 . S
C437 C436 1.380 . S
C437 C438 1.347 . S
C437 H465 0.931 . S
C438 C437 1.347 . S
C438 C439 1.369 . S
C439 C438 1.369 . S
C439 C440 1.408 . S
C439 H466 0.930 . S
C440 C435 1.348 . S
C440 C439 1.408 . S
C440 H467 0.930 . S
C441 O454 1.271 1_655 S
C441 O455 1.269 . S
C442 O456 1.236 . S
C442 O457 1.266 . S
C443 Tb433 2.809 . S
C443 C444 1.514 . S
C443 O458 1.248 . S
C443 O459 1.266 . S
C444 C443 1.514 . S
C444 C445 1.359 . S
C444 C449 1.348 . S
C445 C444 1.359 . S
C445 C446 1.380 . S
C445 H468 0.929 . S
C446 C445 1.380 . S
C446 C447 1.347 . S
C446 H469 0.931 . S
C447 C446 1.347 . S
C447 C448 1.369 . S
C448 C447 1.369 . S
C448 C449 1.408 . S
C448 H470 0.930 . S
C449 C444 1.348 . S
C449 C448 1.408 . S
C449 H471 0.930 . S
C450 O460 1.266 1_455 S
C450 O461 1.276 . S
C451 O462 1.236 . S
C451 O463 1.266 . S
O452 Tb432 2.484 . S
O452 C434 1.248 . S
O453 Tb432 2.440 . S
O453 C434 1.266 . S
O454 Tb432 2.658 1_455 S
O454 Tb433 2.325 . S
O454 C441 1.271 1_455 S
O455 Tb432 2.409 . S
O455 C441 1.269 . S
O456 Tb432 2.378 . S
O456 C442 1.236 . S
O457 Tb433 2.341 1_655 S
O457 C442 1.266 . S
O458 Tb433 2.484 . S
O458 C443 1.248 . S
O459 Tb433 2.440 . S
O459 C443 1.266 . S
O460 Tb432 2.325 . S
O460 Tb433 2.658 1_655 S
O460 C450 1.266 1_655 S
O461 Tb433 2.409 . S
O461 C450 1.276 . S
O462 Tb433 2.378 . S
O462 C451 1.236 . S
O463 Tb432 2.341 1_455 S
O463 C451 1.266 . S
H464 C436 0.929 . S
H465 C437 0.931 . S
H466 C439 0.930 . S
H467 C440 0.930 . S
H468 C445 0.929 . S
H469 C446 0.931 . S
H470 C448 0.930 . S
H471 C449 0.930 . S
H472 C480 0.929 . S
H473 C482 0.930 . S
H474 C484 0.930 . S
H475 C487 0.929 . S
H476 C490 0.930 . S
H477 C492 0.960 . S
H478 C492 0.960 . S
H479 C492 0.960 . S
C480 H472 0.929 . S
C480 C481 1.374 . S
C480 C482 1.384 . S
C481 C480 1.374 . S
C481 C487 1.393 1_565 S
C482 H473 0.930 . S
C482 C480 1.384 . S
C482 C483 1.413 . S
C483 C482 1.413 . S
C483 C484 1.358 1_565 S
C483 C488 1.490 . S
C484 H474 0.930 . S
C484 C483 1.358 1_545 S
C484 C487 1.386 . S
H485 C501 0.930 . S
H486 C502 0.931 . S
C487 H475 0.929 . S
C487 C481 1.393 1_545 S
C487 C484 1.386 . S
C488 C483 1.490 . S
C488 C490 1.419 . S
C488 C491 1.383 1_565 S
H489 C495 0.930 . S
C490 H476 0.930 . S
C490 C488 1.419 . S
C490 C493 1.403 . S
C491 C488 1.383 1_545 S
C491 C492 1.524 . S
C491 C495 1.400 . S
C492 H477 0.960 . S
C492 H478 0.960 . S
C492 H479 0.960 . S
C492 C491 1.524 . S
C493 C490 1.403 . S
C493 C494 1.392 . S
C493 C497 1.495 . S
C494 C493 1.392 . S
C494 C495 1.385 1_565 S
C494 C496 1.478 . S
C495 H489 0.930 . S
C495 C491 1.400 . S
C495 C494 1.385 1_545 S
C496 C494 1.478 . S
C496 C498 1.381 . S
C496 C502 1.383 1_565 S
C497 C493 1.495 . S
C497 H503 0.959 . S
C497 H504 0.961 . S
C497 H505 0.960 . S
C498 C496 1.381 . S
C498 C499 1.394 . S
C498 H506 0.930 . S
C499 C498 1.394 . S
C499 C500 1.381 1_565 S
C499 H507 0.929 . S
C500 C499 1.381 1_545 S
C500 C501 1.379 . S
C501 H485 0.930 . S
C501 C500 1.379 . S
C501 C502 1.379 . S
C502 H486 0.931 . S
C502 C496 1.383 1_545 S
C502 C501 1.379 . S
H503 C497 0.959 . S
H504 C497 0.961 . S
H505 C497 0.960 . S
H506 C498 0.930 . S
H507 C499 0.929 . S
H508 C516 0.929 . S
H509 C518 0.930 . S
H510 C520 0.930 . S
H511 C523 0.929 . S
H512 C526 0.930 . S
H513 C528 0.960 . S
H514 C528 0.960 . S
H515 C528 0.960 . S
C516 H508 0.929 . S
C516 C517 1.377 . S
C516 C518 1.384 . S
C517 C516 1.377 . S
C517 C523 1.390 . S
C518 H509 0.930 . S
C518 C516 1.384 . S
C518 C519 1.372 . S
C519 C518 1.372 . S
C519 C520 1.400 . S
C519 C524 1.490 . S
C520 H510 0.930 . S
C520 C519 1.400 . S
C520 C523 1.386 . S
H521 C537 0.930 . S
H522 C538 0.931 . S
C523 H511 0.929 . S
C523 C517 1.390 . S
C523 C520 1.386 . S
C524 C519 1.490 . S
C524 C526 1.395 . S
C524 C527 1.403 . S
H525 C531 0.930 . S
C526 H512 0.930 . S
C526 C524 1.395 . S
C526 C529 1.403 . S
C527 C524 1.403 . S
C527 C528 1.524 . S
C527 C531 1.400 . S
C528 H513 0.960 . S
C528 H514 0.960 . S
C528 H515 0.960 . S
C528 C527 1.524 . S
C529 C526 1.403 . S
C529 C530 1.392 . S
C529 C533 1.495 . S
C530 C529 1.392 . S
C530 C531 1.385 . S
C530 C532 1.478 . S
C531 H525 0.930 . S
C531 C527 1.400 . S
C531 C530 1.385 . S
C532 C530 1.478 . S
C532 C534 1.381 . S
C532 C538 1.383 . S
C533 C529 1.495 . S
C533 H539 0.959 . S
C533 H540 0.961 . S
C533 H541 0.960 . S
C534 C532 1.381 . S
C534 C535 1.394 . S
C534 H542 0.930 . S
C535 C534 1.394 . S
C535 C536 1.383 . S
C535 H543 0.929 . S
C536 C535 1.383 . S
C536 C537 1.377 . S
C537 H521 0.930 . S
C537 C536 1.377 . S
C537 C538 1.379 . S
C538 H522 0.931 . S
C538 C532 1.383 . S
C538 C537 1.379 . S
H539 C533 0.959 . S
H540 C533 0.961 . S
H541 C533 0.960 . S
H542 C534 0.930 . S
H543 C535 0.929 . S
H544 C552 0.929 . S
H545 C554 0.930 . S
H546 C556 0.930 . S
H547 C559 0.929 . S
H548 C562 0.930 . S
H549 C564 0.960 . S
H550 C564 0.960 . S
H551 C564 0.960 . S
C552 H544 0.929 . S
C552 C553 1.377 . S
C552 C554 1.384 . S
C553 C552 1.377 . S
C553 C559 1.390 . S
C554 H545 0.930 . S
C554 C552 1.384 . S
C554 C555 1.372 . S
C555 C554 1.372 . S
C555 C556 1.400 . S
C555 C560 1.490 . S
C556 H546 0.930 . S
C556 C555 1.400 . S
C556 C559 1.386 . S
H557 C573 0.930 . S
H558 C574 0.931 . S
C559 H547 0.929 . S
C559 C553 1.390 . S
C559 C556 1.386 . S
C560 C555 1.490 . S
C560 C562 1.395 . S
C560 C563 1.403 . S
H561 C567 0.930 . S
C562 H548 0.930 . S
C562 C560 1.395 . S
C562 C565 1.403 . S
C563 C560 1.403 . S
C563 C564 1.524 . S
C563 C567 1.400 . S
C564 H549 0.960 . S
C564 H550 0.960 . S
C564 H551 0.960 . S
C564 C563 1.524 . S
C565 C562 1.403 . S
C565 C566 1.392 . S
C565 C569 1.495 . S
C566 C565 1.392 . S
C566 C567 1.385 . S
C566 C568 1.478 . S
C567 H561 0.930 . S
C567 C563 1.400 . S
C567 C566 1.385 . S
C568 C566 1.478 . S
C568 C570 1.381 . S
C568 C574 1.383 . S
C569 C565 1.495 . S
C569 H575 0.959 . S
C569 H576 0.961 . S
C569 H577 0.960 . S
C570 C568 1.381 . S
C570 C571 1.394 . S
C570 H578 0.930 . S
C571 C570 1.394 . S
C571 C572 1.383 . S
C571 H579 0.929 . S
C572 C571 1.383 . S
C572 C573 1.377 . S
C573 H557 0.930 . S
C573 C572 1.377 . S
C573 C574 1.379 . S
C574 H558 0.931 . S
C574 C568 1.383 . S
C574 C573 1.379 . S
H575 C569 0.959 . S
H576 C569 0.961 . S
H577 C569 0.960 . S
H578 C570 0.930 . S
H579 C571 0.929 . S
H580 C588 0.929 . S
H581 C590 0.930 . S
H582 C592 0.930 . S
H583 C595 0.929 . S
H584 C598 0.934 . S
H585 C600 0.960 . S
H586 C600 1.015 . S
H587 C600 0.911 1_455 S
C588 H580 0.929 . S
C588 C589 1.376 . S
C588 C590 1.384 . S
C589 C588 1.376 . S
C589 C595 1.391 1_655 S
C590 H581 0.930 . S
C590 C588 1.384 . S
C590 C591 1.401 . S
C591 C590 1.401 . S
C591 C592 1.371 1_655 S
C591 C596 1.490 . S
C592 H582 0.930 . S
C592 C591 1.371 1_455 S
C592 C595 1.386 . S
H593 C609 0.930 . S
H594 C610 0.931 . S
C595 H583 0.929 . S
C595 C589 1.391 1_455 S
C595 C592 1.386 . S
C596 C591 1.490 . S
C596 C598 1.394 . S
C596 C599 1.403 . S
H597 C603 0.930 . S
C598 H584 0.934 . S
C598 C596 1.394 . S
C598 C601 1.403 . S
C599 C596 1.403 . S
C599 C600 1.523 . S
C599 C603 1.400 1_655 S
C600 H585 0.960 . S
C600 H586 1.015 . S
C600 H587 0.911 1_655 S
C600 C599 1.523 . S
C601 C598 1.403 . S
C601 C602 1.392 . S
C601 C605 1.495 . S
C602 C601 1.392 . S
C602 C603 1.385 1_655 S
C602 C604 1.477 1_655 S
C603 H597 0.930 . S
C603 C599 1.400 1_455 S
C603 C602 1.385 1_455 S
C604 C602 1.477 1_455 S
C604 C606 1.355 1_455 S
C604 C610 1.410 . S
C605 C601 1.495 . S
C605 H611 0.959 . S
C605 H612 0.932 1_655 S
C605 H613 0.987 . S
C606 C604 1.355 1_655 S
C606 C607 1.394 . S
C606 H614 0.930 . S
C607 C606 1.394 . S
C607 C608 1.334 1_655 S
C607 H615 0.929 . S
C608 C607 1.334 1_455 S
C608 C609 1.426 . S
C609 H593 0.930 . S
C609 C608 1.426 . S
C609 C610 1.379 . S
C610 H594 0.931 . S
C610 C604 1.410 . S
C610 C609 1.379 . S
H611 C605 0.959 . S
H612 C605 0.932 1_455 S
H613 C605 0.987 . S
H614 C606 0.930 . S
H615 C607 0.929 . S
H616 C624 0.929 . S
H617 C626 0.930 . S
H618 C628 0.930 . S
H619 C631 0.929 . S
H620 C634 0.930 . S
H621 C636 0.960 . S
H622 C636 0.960 . S
H623 C636 0.960 . S
C624 H616 0.929 . S
C624 C625 1.379 1_565 S
C624 C626 1.384 . S
C625 C624 1.379 1_545 S
C625 C631 1.389 . S
C626 H617 0.930 . S
C626 C624 1.384 . S
C626 C627 1.398 . S
C627 C626 1.398 . S
C627 C628 1.373 1_565 S
C627 C632 1.492 . S
C628 H618 0.930 . S
C628 C627 1.373 1_545 S
C628 C631 1.386 . S
H629 C645 0.930 . S
H630 C646 0.931 . S
C631 H619 0.929 . S
C631 C625 1.389 . S
C631 C628 1.386 . S
C632 C627 1.492 . S
C632 C634 1.395 . S
C632 C635 1.403 1_565 S
H633 C639 0.930 . S
C634 H620 0.930 . S
C634 C632 1.395 . S
C634 C637 1.403 1_554 S
C635 C632 1.403 1_545 S
C635 C636 1.524 . S
C635 C639 1.400 1_554 S
C636 H621 0.960 . S
C636 H622 0.960 . S
C636 H623 0.960 . S
C636 C635 1.524 . S
C637 C634 1.403 1_556 S
C637 C638 1.392 . S
C637 C641 1.495 . S
C638 C637 1.392 . S
C638 C639 1.385 1_565 S
C638 C640 1.478 . S
C639 H633 0.930 . S
C639 C635 1.400 1_556 S
C639 C638 1.385 1_545 S
C640 C638 1.478 . S
C640 C642 1.381 . S
C640 C646 1.383 1_565 S
C641 C637 1.495 . S
C641 H647 0.959 . S
C641 H648 0.961 . S
C641 H649 0.960 . S
C642 C640 1.381 . S
C642 C643 1.394 . S
C642 H650 0.930 . S
C643 C642 1.394 . S
C643 C644 1.383 . S
C643 H651 0.929 . S
C644 C643 1.383 . S
C644 C645 1.377 1_565 S
C645 H629 0.930 . S
C645 C644 1.377 1_545 S
C645 C646 1.379 . S
C646 H630 0.931 . S
C646 C640 1.383 1_545 S
C646 C645 1.379 . S
H647 C641 0.959 . S
H648 C641 0.961 . S
H649 C641 0.960 . S
H650 C642 0.930 . S
H651 C643 0.929 . S
H652 C660 0.929 . S
H653 C662 0.930 . S
H654 C664 0.930 . S
H655 C667 0.929 . S
H656 C670 0.930 . S
H657 C672 0.960 1_556 S
H658 C672 0.960 . S
H659 C672 0.960 . S
C660 H652 0.929 . S
C660 C661 1.377 . S
C660 C662 1.384 . S
C661 C660 1.377 . S
C661 C667 1.390 . S
C662 H653 0.930 . S
C662 C660 1.384 . S
C662 C663 1.372 . S
C663 C662 1.372 . S
C663 C664 1.400 . S
C663 C668 1.490 . S
C664 H654 0.930 . S
C664 C663 1.400 . S
C664 C667 1.386 . S
H665 C681 0.930 . S
H666 C682 0.931 . S
C667 H655 0.929 . S
C667 C661 1.390 . S
C667 C664 1.386 . S
C668 C663 1.490 . S
C668 C670 1.395 . S
C668 C671 1.403 . S
H669 C675 0.930 . S
C670 H656 0.930 . S
C670 C668 1.395 . S
C670 C673 1.403 1_554 S
C671 C668 1.403 . S
C671 C672 1.524 . S
C671 C675 1.400 1_554 S
C672 H657 0.960 1_554 S
C672 H658 0.960 . S
C672 H659 0.960 . S
C672 C671 1.524 . S
C673 C670 1.403 1_556 S
C673 C674 1.392 . S
C673 C677 1.495 . S
C674 C673 1.392 . S
C674 C675 1.385 . S
C674 C676 1.478 . S
C675 H669 0.930 . S
C675 C671 1.400 1_556 S
C675 C674 1.385 . S
C676 C674 1.478 . S
C676 C678 1.381 . S
C676 C682 1.383 . S
C677 C673 1.495 . S
C677 H683 0.959 . S
C677 H684 0.961 . S
C677 H685 0.960 . S
C678 C676 1.381 . S
C678 C679 1.394 . S
C678 H686 0.930 . S
C679 C678 1.394 . S
C679 C680 1.383 . S
C679 H687 0.929 . S
C680 C679 1.383 . S
C680 C681 1.377 . S
C681 H665 0.930 . S
C681 C680 1.377 . S
C681 C682 1.379 . S
C682 H666 0.931 . S
C682 C676 1.383 . S
C682 C681 1.379 . S
H683 C677 0.959 . S
H684 C677 0.961 . S
H685 C677 0.960 . S
H686 C678 0.930 . S
H687 C679 0.929 . S
H688 C696 0.929 . S
H689 C698 0.930 . S
H690 C700 0.930 . S
H691 C703 0.929 . S
H692 C706 0.930 . S
H693 C708 0.960 . S
H694 C708 0.960 . S
H695 C708 0.960 . S
C696 H688 0.929 . S
C696 C697 1.377 . S
C696 C698 1.384 . S
C697 C696 1.377 . S
C697 C703 1.390 . S
C698 H689 0.930 . S
C698 C696 1.384 . S
C698 C699 1.372 . S
C699 C698 1.372 . S
C699 C700 1.400 . S
C699 C704 1.490 . S
C700 H690 0.930 . S
C700 C699 1.400 . S
C700 C703 1.386 . S
H701 C717 0.930 . S
H702 C718 0.931 . S
C703 H691 0.929 . S
C703 C697 1.390 . S
C703 C700 1.386 . S
C704 C699 1.490 . S
C704 C706 1.395 1_554 S
C704 C707 1.403 . S
H705 C711 0.930 . S
C706 H692 0.930 . S
C706 C704 1.395 1_556 S
C706 C709 1.403 . S
C707 C704 1.403 . S
C707 C708 1.524 . S
C707 C711 1.400 1_554 S
C708 H693 0.960 . S
C708 H694 0.960 . S
C708 H695 0.960 . S
C708 C707 1.524 . S
C709 C706 1.403 . S
C709 C710 1.392 . S
C709 C713 1.495 . S
C710 C709 1.392 . S
C710 C711 1.385 . S
C710 C712 1.478 . S
C711 H705 0.930 . S
C711 C707 1.400 1_556 S
C711 C710 1.385 . S
C712 C710 1.478 . S
C712 C714 1.381 . S
C712 C718 1.383 . S
C713 C709 1.495 . S
C713 H719 0.959 . S
C713 H720 0.961 . S
C713 H721 0.960 . S
C714 C712 1.381 . S
C714 C715 1.394 . S
C714 H722 0.930 . S
C715 C714 1.394 . S
C715 C716 1.383 . S
C715 H723 0.929 . S
C716 C715 1.383 . S
C716 C717 1.377 . S
C717 H701 0.930 . S
C717 C716 1.377 . S
C717 C718 1.379 . S
C718 H702 0.931 . S
C718 C712 1.383 . S
C718 C717 1.379 . S
H719 C713 0.959 . S
H720 C713 0.961 . S
H721 C713 0.960 . S
H722 C714 0.930 . S
H723 C715 0.929 . S
H724 C732 0.929 . S
H725 C734 0.930 . S
H726 C736 0.930 . S
H727 C739 0.929 . S
H728 C742 0.930 . S
H729 C744 0.960 1_556 S
H730 C744 0.960 . S
H731 C744 0.960 . S
C732 H724 0.929 . S
C732 C733 1.376 . S
C732 C734 1.384 . S
C733 C732 1.376 . S
C733 C739 1.391 1_655 S
C734 H725 0.930 . S
C734 C732 1.384 . S
C734 C735 1.378 . S
C735 C734 1.378 . S
C735 C736 1.393 1_655 S
C735 C740 1.491 . S
C736 H726 0.930 . S
C736 C735 1.393 1_455 S
C736 C739 1.386 . S
H737 C753 0.930 . S
H738 C754 0.924 1_455 S
C739 H727 0.929 . S
C739 C733 1.391 1_455 S
C739 C736 1.386 . S
C740 C735 1.491 . S
C740 C742 1.395 . S
C740 C743 1.403 1_655 S
H741 C747 0.930 . S
C742 H728 0.930 . S
C742 C740 1.395 . S
C742 C745 1.403 1_554 S
C743 C740 1.403 1_455 S
C743 C744 1.524 . S
C743 C747 1.400 1_554 S
C744 H729 0.960 1_554 S
C744 H730 0.960 . S
C744 H731 0.960 . S
C744 C743 1.524 . S
C745 C742 1.403 1_556 S
C745 C746 1.392 . S
C745 C749 1.495 . S
C746 C745 1.392 . S
C746 C747 1.385 1_655 S
C746 C748 1.478 . S
C747 H741 0.930 . S
C747 C743 1.400 1_556 S
C747 C746 1.385 1_455 S
C748 C746 1.478 . S
C748 C750 1.381 . S
C748 C754 1.396 . S
C749 C745 1.495 . S
C749 H755 0.959 . S
C749 H756 0.961 . S
C749 H757 0.960 . S
C750 C748 1.381 . S
C750 C751 1.394 . S
C750 H758 0.930 . S
C751 C750 1.394 . S
C751 C752 1.383 . S
C751 H759 0.929 . S
C752 C751 1.383 . S
C752 C753 1.377 1_655 S
C753 H737 0.930 . S
C753 C752 1.377 1_455 S
C753 C754 1.377 1_455 S
C754 H738 0.924 1_655 S
C754 C748 1.396 . S
C754 C753 1.377 1_655 S
H755 C749 0.959 . S
H756 C749 0.961 . S
H757 C749 0.960 . S
H758 C750 0.930 . S
H759 C751 0.929 . S
H760 C768 0.929 . S
H761 C770 0.930 . S
H762 C772 0.930 . S
H763 C775 0.929 . S
H764 C778 0.930 1_455 S
H765 C780 0.960 . S
H766 C780 0.960 . S
H767 C780 0.960 . S
C768 H760 0.929 . S
C768 C769 1.377 . S
C768 C770 1.384 . S
C769 C768 1.377 . S
C769 C775 1.390 1_455 S
C770 H761 0.930 . S
C770 C768 1.384 . S
C770 C771 1.372 1_455 S
C771 C770 1.372 1_655 S
C771 C772 1.400 . S
C771 C776 1.490 . S
C772 H762 0.930 . S
C772 C771 1.400 . S
C772 C775 1.386 . S
H773 C789 0.930 . S
H774 C790 0.931 . S
C775 H763 0.929 . S
C775 C769 1.390 1_655 S
C775 C772 1.386 . S
C776 C771 1.490 . S
C776 C778 1.395 . S
C776 C779 1.403 . S
H777 C783 0.930 . S
C778 H764 0.930 1_655 S
C778 C776 1.395 . S
C778 C781 1.403 . S
C779 C776 1.403 . S
C779 C780 1.524 . S
C779 C783 1.400 . S
C780 H765 0.960 . S
C780 H766 0.960 . S
C780 H767 0.960 . S
C780 C779 1.524 . S
C781 C778 1.403 . S
C781 C782 1.392 . S
C781 C785 1.495 . S
C782 C781 1.392 . S
C782 C783 1.385 . S
C782 C784 1.478 . S
C783 H777 0.930 . S
C783 C779 1.400 . S
C783 C782 1.385 . S
C784 C782 1.478 . S
C784 C786 1.381 . S
C784 C790 1.383 . S
C785 C781 1.495 . S
C785 H791 0.959 1_655 S
C785 H792 0.961 . S
C785 H793 0.960 1_655 S
C786 C784 1.381 . S
C786 C787 1.394 . S
C786 H794 0.930 1_655 S
C787 C786 1.394 . S
C787 C788 1.383 . S
C787 H795 0.929 1_655 S
C788 C787 1.383 . S
C788 C789 1.377 . S
C789 H773 0.930 . S
C789 C788 1.377 . S
C789 C790 1.379 . S
C790 H774 0.931 . S
C790 C784 1.383 . S
C790 C789 1.379 . S
H791 C785 0.959 1_455 S
H792 C785 0.961 . S
H793 C785 0.960 1_455 S
H794 C786 0.930 1_455 S
H795 C787 0.929 1_455 S
H796 C804 0.929 . S
H797 C806 0.930 . S
H798 C808 0.930 . S
H799 C811 0.929 . S
H800 C814 0.930 . S
H801 C816 0.960 . S
H802 C816 0.960 . S
H803 C816 0.960 . S
C804 H796 0.929 . S
C804 C805 1.377 1_565 S
C804 C806 1.384 . S
C805 C804 1.377 1_545 S
C805 C811 1.390 . S
C806 H797 0.930 . S
C806 C804 1.384 . S
C806 C807 1.372 . S
C807 C806 1.372 . S
C807 C808 1.400 1_565 S
C807 C812 1.490 . S
C808 H798 0.930 . S
C808 C807 1.400 1_545 S
C808 C811 1.386 . S
H809 C825 0.930 . S
H810 C826 0.931 . S
C811 H799 0.929 . S
C811 C805 1.390 . S
C811 C808 1.386 . S
C812 C807 1.490 . S
C812 C814 1.395 . S
C812 C815 1.403 1_565 S
H813 C819 0.930 1_545 S
C814 H800 0.930 . S
C814 C812 1.395 . S
C814 C817 1.403 . S
C815 C812 1.403 1_545 S
C815 C816 1.524 . S
C815 C819 1.400 1_545 S
C816 H801 0.960 . S
C816 H802 0.960 . S
C816 H803 0.960 . S
C816 C815 1.524 . S
C817 C814 1.403 . S
C817 C818 1.392 . S
C817 C821 1.495 . S
C818 C817 1.392 . S
C818 C819 1.385 . S
C818 C820 1.478 . S
C819 H813 0.930 1_565 S
C819 C815 1.400 1_565 S
C819 C818 1.385 . S
C820 C818 1.478 . S
C820 C822 1.381 . S
C820 C826 1.383 . S
C821 C817 1.495 . S
C821 H827 0.959 . S
C821 H828 0.961 . S
C821 H829 0.960 . S
C822 C820 1.381 . S
C822 C823 1.394 . S
C822 H830 0.930 . S
C823 C822 1.394 . S
C823 C824 1.383 . S
C823 H831 0.929 . S
C824 C823 1.383 . S
C824 C825 1.377 . S
C825 H809 0.930 . S
C825 C824 1.377 . S
C825 C826 1.379 . S
C826 H810 0.931 . S
C826 C820 1.383 . S
C826 C825 1.379 . S
H827 C821 0.959 . S
H828 C821 0.961 . S
H829 C821 0.960 . S
H830 C822 0.930 . S
H831 C823 0.929 . S
H832 C840 0.929 . S
H833 C842 0.930 . S
H834 C844 0.930 . S
H835 C847 0.929 . S
H836 C850 0.930 . S
H837 C852 0.960 . S
H838 C852 0.960 . S
H839 C852 0.960 . S
C840 H832 0.929 . S
C840 C841 1.377 . S
C840 C842 1.384 . S
C841 C840 1.377 . S
C841 C847 1.390 . S
C842 H833 0.930 . S
C842 C840 1.384 . S
C842 C843 1.372 . S
C843 C842 1.372 . S
C843 C844 1.400 . S
C843 C848 1.490 . S
C844 H834 0.930 . S
C844 C843 1.400 . S
C844 C847 1.386 . S
H845 C861 0.930 . S
H846 C862 0.931 . S
C847 H835 0.929 . S
C847 C841 1.390 . S
C847 C844 1.386 . S
C848 C843 1.490 . S
C848 C850 1.395 . S
C848 C851 1.403 . S
H849 C855 0.930 . S
C850 H836 0.930 . S
C850 C848 1.395 . S
C850 C853 1.403 . S
C851 C848 1.403 . S
C851 C852 1.524 . S
C851 C855 1.400 . S
C852 H837 0.960 . S
C852 H838 0.960 . S
C852 H839 0.960 . S
C852 C851 1.524 . S
C853 C850 1.403 . S
C853 C854 1.392 . S
C853 C857 1.495 . S
C854 C853 1.392 . S
C854 C855 1.385 . S
C854 C856 1.478 . S
C855 H849 0.930 . S
C855 C851 1.400 . S
C855 C854 1.385 . S
C856 C854 1.478 . S
C856 C858 1.381 . S
C856 C862 1.383 . S
C857 C853 1.495 . S
C857 H863 0.959 . S
C857 H864 0.961 . S
C857 H865 0.960 . S
C858 C856 1.381 . S
C858 C859 1.394 . S
C858 H866 0.930 . S
C859 C858 1.394 . S
C859 C860 1.383 . S
C859 H867 0.929 . S
C860 C859 1.383 . S
C860 C861 1.377 . S
C861 H845 0.930 . S
C861 C860 1.377 . S
C861 C862 1.379 . S
C862 H846 0.931 . S
C862 C856 1.383 . S
C862 C861 1.379 . S
H863 C857 0.959 . S
H864 C857 0.961 . S
H865 C857 0.960 . S
H866 C858 0.930 . S
H867 C859 0.929 . S
H868 C876 0.929 . S
H869 C878 0.930 . S
H870 C880 0.930 . S
H871 C883 0.929 . S
H872 C886 0.930 . S
H873 C888 0.960 . S
H874 C888 0.960 . S
H875 C888 0.960 . S
C876 H868 0.929 . S
C876 C877 1.377 . S
C876 C878 1.384 . S
C877 C876 1.377 . S
C877 C883 1.390 . S
C878 H869 0.930 . S
C878 C876 1.384 . S
C878 C879 1.372 . S
C879 C878 1.372 . S
C879 C880 1.400 . S
C879 C884 1.490 . S
C880 H870 0.930 . S
C880 C879 1.400 . S
C880 C883 1.386 . S
H881 C897 0.930 . S
H882 C898 0.931 . S
C883 H871 0.929 . S
C883 C877 1.390 . S
C883 C880 1.386 . S
C884 C879 1.490 . S
C884 C886 1.395 . S
C884 C887 1.403 . S
H885 C891 0.930 . S
C886 H872 0.930 . S
C886 C884 1.395 . S
C886 C889 1.403 . S
C887 C884 1.403 . S
C887 C888 1.524 . S
C887 C891 1.400 . S
C888 H873 0.960 . S
C888 H874 0.960 . S
C888 H875 0.960 . S
C888 C887 1.524 . S
C889 C886 1.403 . S
C889 C890 1.392 . S
C889 C893 1.495 . S
C890 C889 1.392 . S
C890 C891 1.385 . S
C890 C892 1.478 . S
C891 H885 0.930 . S
C891 C887 1.400 . S
C891 C890 1.385 . S
C892 C890 1.478 . S
C892 C894 1.381 . S
C892 C898 1.383 . S
C893 C889 1.495 . S
C893 H899 0.959 . S
C893 H900 0.961 . S
C893 H901 0.960 . S
C894 C892 1.381 . S
C894 C895 1.394 . S
C894 H902 0.930 . S
C895 C894 1.394 . S
C895 C896 1.383 . S
C895 H903 0.929 . S
C896 C895 1.383 . S
C896 C897 1.377 . S
C897 H881 0.930 . S
C897 C896 1.377 . S
C897 C898 1.379 . S
C898 H882 0.931 . S
C898 C892 1.383 . S
C898 C897 1.379 . S
H899 C893 0.959 . S
H900 C893 0.961 . S
H901 C893 0.960 . S
H902 C894 0.930 . S
H903 C895 0.929 . S
H904 C912 0.929 . S
H905 C914 0.930 1_556 S
H906 C916 0.930 . S
H907 C919 0.929 . S
H908 C922 0.930 1_655 S
H909 C924 0.960 . S
H910 C924 0.960 . S
H911 C924 0.960 . S
C912 H904 0.929 . S
C912 C913 1.377 1_455 S
C912 C914 1.384 . S
C913 C912 1.377 1_655 S
C913 C919 1.390 . S
C914 H905 0.930 1_554 S
C914 C912 1.384 . S
C914 C915 1.372 . S
C915 C914 1.372 . S
C915 C916 1.400 1_455 S
C915 C920 1.490 . S
C916 H906 0.930 . S
C916 C915 1.400 1_655 S
C916 C919 1.386 . S
H917 C933 0.930 . S
H918 C934 0.973 . S
C919 H907 0.929 . S
C919 C913 1.390 . S
C919 C916 1.386 . S
C920 C915 1.490 . S
C920 C922 1.395 1_554 S
C920 C923 1.403 . S
H921 C927 0.930 1_554 S
C922 H908 0.930 1_455 S
C922 C920 1.395 1_556 S
C922 C925 1.403 . S
C923 C920 1.403 . S
C923 C924 1.524 . S
C923 C927 1.400 1_554 S
C924 H909 0.960 . S
C924 H910 0.960 . S
C924 H911 0.960 . S
C924 C923 1.524 . S
C925 C922 1.403 . S
C925 C926 1.392 . S
C925 C929 1.495 1_455 S
C926 C925 1.392 . S
C926 C927 1.385 . S
C926 C928 1.478 . S
C927 H921 0.930 1_556 S
C927 C923 1.400 1_556 S
C927 C926 1.385 . S
C928 C926 1.478 . S
C928 C930 1.381 . S
C928 C934 1.383 . S
C929 C925 1.495 1_655 S
C929 H935 0.959 . S
C929 H936 0.961 . S
C929 H937 0.960 1_655 S
C930 C928 1.381 . S
C930 C931 1.394 . S
C930 H938 0.930 . S
C931 C930 1.394 . S
C931 C932 1.383 . S
C931 H939 0.929 . S
C932 C931 1.383 . S
C932 C933 1.377 . S
C933 H917 0.930 . S
C933 C932 1.377 . S
C933 C934 1.379 . S
C934 H918 0.973 . S
C934 C928 1.383 . S
C934 C933 1.379 . S
H935 C929 0.959 . S
H936 C929 0.961 . S
H937 C929 0.960 1_455 S
H938 C930 0.930 . S
H939 C931 0.929 . S
H940 C948 0.929 . S
H941 C950 0.930 . S
H942 C952 0.930 . S
H943 C955 0.929 . S
H944 C958 0.930 . S
H945 C960 0.960 . S
H946 C960 0.960 . S
H947 C960 0.960 1_565 S
C948 H940 0.929 . S
C948 C949 1.377 1_545 S
C948 C950 1.384 . S
C949 C948 1.377 1_565 S
C949 C955 1.390 . S
C950 H941 0.930 . S
C950 C948 1.384 . S
C950 C951 1.372 . S
C951 C950 1.372 . S
C951 C952 1.400 1_545 S
C951 C956 1.490 . S
C952 H942 0.930 . S
C952 C951 1.400 1_565 S
C952 C955 1.386 . S
H953 C969 0.930 1_565 S
H954 C970 0.931 1_565 S
C955 H943 0.929 . S
C955 C949 1.390 . S
C955 C952 1.386 . S
C956 C951 1.490 . S
C956 C958 1.395 1_554 S
C956 C959 1.403 . S
H957 C963 0.930 . S
C958 H944 0.930 . S
C958 C956 1.395 1_556 S
C958 C961 1.403 . S
C959 C956 1.403 . S
C959 C960 1.524 . S
C959 C963 1.400 . S
C960 H945 0.960 . S
C960 H946 0.960 . S
C960 H947 0.960 1_545 S
C960 C959 1.524 . S
C961 C958 1.403 . S
C961 C962 1.392 . S
C961 C965 1.495 . S
C962 C961 1.392 . S
C962 C963 1.385 1_556 S
C962 C964 1.478 . S
C963 H957 0.930 . S
C963 C959 1.400 . S
C963 C962 1.385 1_554 S
C964 C962 1.478 . S
C964 C966 1.381 . S
C964 C970 1.383 . S
C965 C961 1.495 . S
C965 H971 0.959 . S
C965 H972 0.961 . S
C965 H973 0.960 . S
C966 C964 1.381 . S
C966 C967 1.394 . S
C966 H974 0.930 . S
C967 C966 1.394 . S
C967 C968 1.383 . S
C967 H975 0.929 . S
C968 C967 1.383 . S
C968 C969 1.377 . S
C969 H953 0.930 1_545 S
C969 C968 1.377 . S
C969 C970 1.379 . S
C970 H954 0.931 1_545 S
C970 C964 1.383 . S
C970 C969 1.379 . S
H971 C965 0.959 . S
H972 C965 0.961 . S
H973 C965 0.960 . S
H974 C966 0.930 . S
H975 C967 0.929 . S
H976 C984 0.929 . S
H977 C986 0.930 . S
H978 C988 0.930 1_556 S
H979 C991 0.929 . S
H980 C994 0.930 . S
H981 C996 0.955 1_556 S
H982 C996 0.970 . S
H983 C996 0.956 1_556 S
C984 H976 0.929 . S
C984 C985 1.377 . S
C984 C986 1.384 . S
C985 C984 1.377 . S
C985 C991 1.390 . S
C986 H977 0.930 . S
C986 C984 1.384 . S
C986 C987 1.372 . S
C987 C986 1.372 . S
C987 C988 1.400 . S
C987 C992 1.490 . S
C988 H978 0.930 1_554 S
C988 C987 1.400 . S
C988 C991 1.386 . S
H989 C1005 0.930 . S
H990 C1006 0.931 . S
C991 H979 0.929 . S
C991 C985 1.390 . S
C991 C988 1.386 . S
C992 C987 1.490 . S
C992 C994 1.395 . S
C992 C995 1.403 1_554 S
H993 C999 0.930 . S
C994 H980 0.930 . S
C994 C992 1.395 . S
C994 C997 1.403 1_554 S
C995 C992 1.403 1_556 S
C995 C996 1.523 1_556 S
C995 C999 1.400 . S
C996 H981 0.955 1_554 S
C996 H982 0.970 . S
C996 H983 0.956 1_554 S
C996 C995 1.523 1_554 S
C997 C994 1.403 1_556 S
C997 C998 1.392 . S
C997 C1001 1.495 . S
C998 C997 1.392 . S
C998 C999 1.385 . S
C998 C1000 1.478 . S
C999 H993 0.930 . S
C999 C995 1.400 . S
C999 C998 1.385 . S
C1000 C998 1.478 . S
C1000 C1002 1.381 . S
C1000 C1006 1.383 . S
C1001 C997 1.495 . S
C1001 H1007 0.959 1_556 S
C1001 H1008 0.961 . S
C1001 H1009 0.960 . S
C1002 C1000 1.381 . S
C1002 C1003 1.394 . S
C1002 H1010 0.930 . S
C1003 C1002 1.394 . S
C1003 C1004 1.383 . S
C1003 H1011 0.929 . S
C1004 C1003 1.383 . S
C1004 C1005 1.377 . S
C1005 H989 0.930 . S
C1005 C1004 1.377 . S
C1005 C1006 1.379 . S
C1006 H990 0.931 . S
C1006 C1000 1.383 . S
C1006 C1005 1.379 . S
H1007 C1001 0.959 1_554 S
H1008 C1001 0.961 . S
H1009 C1001 0.960 . S
H1010 C1002 0.930 . S
H1011 C1003 0.929 . S
H1012 C1020 0.929 . S
H1013 C1022 0.930 . S
H1014 C1024 0.930 . S
H1015 C1027 0.929 . S
H1016 C1030 0.930 . S
H1017 C1032 0.960 . S
H1018 C1032 0.960 . S
H1019 C1032 0.960 . S
C1020 H1012 0.929 . S
C1020 C1021 1.377 . S
C1020 C1022 1.384 . S
C1021 C1020 1.377 . S
C1021 C1027 1.390 . S
C1022 H1013 0.930 . S
C1022 C1020 1.384 . S
C1022 C1023 1.372 . S
C1023 C1022 1.372 . S
C1023 C1024 1.400 . S
C1023 C1028 1.490 . S
C1024 H1014 0.930 . S
C1024 C1023 1.400 . S
C1024 C1027 1.386 . S
H1025 C1041 0.930 . S
H1026 C1042 0.931 . S
C1027 H1015 0.929 . S
C1027 C1021 1.390 . S
C1027 C1024 1.386 . S
C1028 C1023 1.490 . S
C1028 C1030 1.395 . S
C1028 C1031 1.403 1_554 S
H1029 C1035 0.930 . S
C1030 H1016 0.930 . S
C1030 C1028 1.395 . S
C1030 C1033 1.403 . S
C1031 C1028 1.403 1_556 S
C1031 C1032 1.524 . S
C1031 C1035 1.400 . S
C1032 H1017 0.960 . S
C1032 H1018 0.960 . S
C1032 H1019 0.960 . S
C1032 C1031 1.524 . S
C1033 C1030 1.403 . S
C1033 C1034 1.392 1_554 S
C1033 C1037 1.495 . S
C1034 C1033 1.392 1_556 S
C1034 C1035 1.385 . S
C1034 C1036 1.478 . S
C1035 H1029 0.930 . S
C1035 C1031 1.400 . S
C1035 C1034 1.385 . S
C1036 C1034 1.478 . S
C1036 C1038 1.381 . S
C1036 C1042 1.383 . S
C1037 C1033 1.495 . S
C1037 H1043 0.959 . S
C1037 H1044 0.961 . S
C1037 H1045 0.960 . S
C1038 C1036 1.381 . S
C1038 C1039 1.394 . S
C1038 H1046 0.930 . S
C1039 C1038 1.394 . S
C1039 C1040 1.383 . S
C1039 H1047 0.929 . S
C1040 C1039 1.383 . S
C1040 C1041 1.377 . S
C1041 H1025 0.930 . S
C1041 C1040 1.377 . S
C1041 C1042 1.379 . S
C1042 H1026 0.931 . S
C1042 C1036 1.383 . S
C1042 C1041 1.379 . S
H1043 C1037 0.959 . S
H1044 C1037 0.961 . S
H1045 C1037 0.960 . S
H1046 C1038 0.930 . S
H1047 C1039 0.929 . S
H1048 C1056 0.929 . S
H1049 C1058 0.933 . S
H1050 C1060 0.930 . S
H1051 C1063 0.929 . S
H1052 C1066 0.930 . S
H1053 C1068 0.960 . S
H1054 C1068 0.960 . S
H1055 C1068 0.960 . S
C1056 H1048 0.929 . S
C1056 C1057 1.371 1_655 S
C1056 C1058 1.385 . S
C1057 C1056 1.371 1_455 S
C1057 C1063 1.400 . S
C1058 H1049 0.933 . S
C1058 C1056 1.385 . S
C1058 C1059 1.368 1_655 S
C1059 C1058 1.368 1_455 S
C1059 C1060 1.400 . S
C1059 C1064 1.490 . S
C1060 H1050 0.930 . S
C1060 C1059 1.400 . S
C1060 C1063 1.386 . S
H1061 C1077 0.930 . S
H1062 C1078 0.931 . S
C1063 H1051 0.929 . S
C1063 C1057 1.400 . S
C1063 C1060 1.386 . S
C1064 C1059 1.490 . S
C1064 C1066 1.395 . S
C1064 C1067 1.403 1_455 S
H1065 C1071 0.930 . S
C1066 H1052 0.930 . S
C1066 C1064 1.395 . S
C1066 C1069 1.403 . S
C1067 C1064 1.403 1_655 S
C1067 C1068 1.524 . S
C1067 C1071 1.400 . S
C1068 H1053 0.960 . S
C1068 H1054 0.960 . S
C1068 H1055 0.960 . S
C1068 C1067 1.524 . S
C1069 C1066 1.403 . S
C1069 C1070 1.392 . S
C1069 C1073 1.495 . S
C1070 C1069 1.392 . S
C1070 C1071 1.385 1_455 S
C1070 C1072 1.478 . S
C1071 H1065 0.930 . S
C1071 C1067 1.400 . S
C1071 C1070 1.385 1_655 S
C1072 C1070 1.478 . S
C1072 C1074 1.381 . S
C1072 C1078 1.383 . S
C1073 C1069 1.495 . S
C1073 H1079 0.959 . S
C1073 H1080 0.961 . S
C1073 H1081 0.960 . S
C1074 C1072 1.381 . S
C1074 C1075 1.394 . S
C1074 H1082 0.930 . S
C1075 C1074 1.394 . S
C1075 C1076 1.383 . S
C1075 H1083 0.929 . S
C1076 C1075 1.383 . S
C1076 C1077 1.377 . S
C1077 H1061 0.930 . S
C1077 C1076 1.377 . S
C1077 C1078 1.379 . S
C1078 H1062 0.931 . S
C1078 C1072 1.383 . S
C1078 C1077 1.379 . S
H1079 C1073 0.959 . S
H1080 C1073 0.961 . S
H1081 C1073 0.960 . S
H1082 C1074 0.930 . S
H1083 C1075 0.929 . S
H1084 C1092 0.929 . S
H1085 C1094 0.935 . S
H1086 C1096 0.930 . S
H1087 C1099 0.929 . S
H1088 C1102 0.930 . S
H1089 C1104 0.960 . S
H1090 C1104 0.960 . S
H1091 C1104 0.960 . S
C1092 H1084 0.929 . S
C1092 C1093 1.371 1_565 S
C1092 C1094 1.386 . S
C1093 C1092 1.371 1_545 S
C1093 C1099 1.401 . S
C1094 H1085 0.935 . S
C1094 C1092 1.386 . S
C1094 C1095 1.367 1_565 S
C1095 C1094 1.367 1_545 S
C1095 C1096 1.400 . S
C1095 C1100 1.490 . S
C1096 H1086 0.930 . S
C1096 C1095 1.400 . S
C1096 C1099 1.386 . S
H1097 C1113 0.930 . S
H1098 C1114 0.931 . S
C1099 H1087 0.929 . S
C1099 C1093 1.401 . S
C1099 C1096 1.386 . S
C1100 C1095 1.490 . S
C1100 C1102 1.395 . S
C1100 C1103 1.403 1_545 S
H1101 C1107 0.930 . S
C1102 H1088 0.930 . S
C1102 C1100 1.395 . S
C1102 C1105 1.403 . S
C1103 C1100 1.403 1_565 S
C1103 C1104 1.524 . S
C1103 C1107 1.400 . S
C1104 H1089 0.960 . S
C1104 H1090 0.960 . S
C1104 H1091 0.960 . S
C1104 C1103 1.524 . S
C1105 C1102 1.403 . S
C1105 C1106 1.392 . S
C1105 C1109 1.495 . S
C1106 C1105 1.392 . S
C1106 C1107 1.385 1_545 S
C1106 C1108 1.478 . S
C1107 H1101 0.930 . S
C1107 C1103 1.400 . S
C1107 C1106 1.385 1_565 S
C1108 C1106 1.478 . S
C1108 C1110 1.381 . S
C1108 C1114 1.383 . S
C1109 C1105 1.495 . S
C1109 H1115 0.959 . S
C1109 H1116 0.961 . S
C1109 H1117 0.960 . S
C1110 C1108 1.381 . S
C1110 C1111 1.394 . S
C1110 H1118 0.930 . S
C1111 C1110 1.394 . S
C1111 C1112 1.383 . S
C1111 H1119 0.946 . S
C1112 C1111 1.383 . S
C1112 C1113 1.377 . S
C1113 H1097 0.930 . S
C1113 C1112 1.377 . S
C1113 C1114 1.379 . S
C1114 H1098 0.931 . S
C1114 C1108 1.383 . S
C1114 C1113 1.379 . S
H1115 C1109 0.959 . S
H1116 C1109 0.961 . S
H1117 C1109 0.960 . S
H1118 C1110 0.930 . S
H1119 C1111 0.946 . S
H1120 C1128 0.929 . S
H1121 C1130 0.930 . S
H1122 C1132 0.930 . S
H1123 C1135 0.929 . S
H1124 C1138 0.930 . S
H1125 C1140 0.960 . S
H1126 C1140 0.960 . S
H1127 C1140 0.960 . S
C1128 H1120 0.929 . S
C1128 C1129 1.377 . S
C1128 C1130 1.384 . S
C1129 C1128 1.377 . S
C1129 C1135 1.390 . S
C1130 H1121 0.930 . S
C1130 C1128 1.384 . S
C1130 C1131 1.372 . S
C1131 C1130 1.372 . S
C1131 C1132 1.400 . S
C1131 C1136 1.490 . S
C1132 H1122 0.930 . S
C1132 C1131 1.400 . S
C1132 C1135 1.386 . S
H1133 C1149 0.930 . S
H1134 C1150 0.931 . S
C1135 H1123 0.929 . S
C1135 C1129 1.390 . S
C1135 C1132 1.386 . S
C1136 C1131 1.490 . S
C1136 C1138 1.395 . S
C1136 C1139 1.403 . S
H1137 C1143 0.930 . S
C1138 H1124 0.930 . S
C1138 C1136 1.395 . S
C1138 C1141 1.403 . S
C1139 C1136 1.403 . S
C1139 C1140 1.524 . S
C1139 C1143 1.400 . S
C1140 H1125 0.960 . S
C1140 H1126 0.960 . S
C1140 H1127 0.960 . S
C1140 C1139 1.524 . S
C1141 C1138 1.403 . S
C1141 C1142 1.392 . S
C1141 C1145 1.495 . S
C1142 C1141 1.392 . S
C1142 C1143 1.385 . S
C1142 C1144 1.478 . S
C1143 H1137 0.930 . S
C1143 C1139 1.400 . S
C1143 C1142 1.385 . S
C1144 C1142 1.478 . S
C1144 C1146 1.381 . S
C1144 C1150 1.383 . S
C1145 C1141 1.495 . S
C1145 H1151 0.959 . S
C1145 H1152 0.961 . S
C1145 H1153 0.960 . S
C1146 C1144 1.381 . S
C1146 C1147 1.394 . S
C1146 H1154 0.930 . S
C1147 C1146 1.394 . S
C1147 C1148 1.383 . S
C1147 H1155 0.929 . S
C1148 C1147 1.383 . S
C1148 C1149 1.377 . S
C1149 H1133 0.930 . S
C1149 C1148 1.377 . S
C1149 C1150 1.379 . S
C1150 H1134 0.931 . S
C1150 C1144 1.383 . S
C1150 C1149 1.379 . S
H1151 C1145 0.959 . S
H1152 C1145 0.961 . S
H1153 C1145 0.960 . S
H1154 C1146 0.930 . S
H1155 C1147 0.929 . S
H1156 C1164 0.929 . S
H1157 C1166 0.930 . S
H1158 C1168 0.930 . S
H1159 C1171 0.929 . S
H1160 C1174 0.930 . S
H1161 C1176 0.960 . S
H1162 C1176 0.960 . S
H1163 C1176 0.960 . S
C1164 H1156 0.929 . S
C1164 C1165 1.377 . S
C1164 C1166 1.384 . S
C1165 C1164 1.377 . S
C1165 C1171 1.390 . S
C1166 H1157 0.930 . S
C1166 C1164 1.384 . S
C1166 C1167 1.372 . S
C1167 C1166 1.372 . S
C1167 C1168 1.400 . S
C1167 C1172 1.490 . S
C1168 H1158 0.930 . S
C1168 C1167 1.400 . S
C1168 C1171 1.386 . S
H1169 C1185 0.930 . S
H1170 C1186 0.931 . S
C1171 H1159 0.929 . S
C1171 C1165 1.390 . S
C1171 C1168 1.386 . S
C1172 C1167 1.490 . S
C1172 C1174 1.395 . S
C1172 C1175 1.403 . S
H1173 C1179 0.930 . S
C1174 H1160 0.930 . S
C1174 C1172 1.395 . S
C1174 C1177 1.403 . S
C1175 C1172 1.403 . S
C1175 C1176 1.524 . S
C1175 C1179 1.400 . S
C1176 H1161 0.960 . S
C1176 H1162 0.960 . S
C1176 H1163 0.960 . S
C1176 C1175 1.524 . S
C1177 C1174 1.403 . S
C1177 C1178 1.392 . S
C1177 C1181 1.495 . S
C1178 C1177 1.392 . S
C1178 C1179 1.385 . S
C1178 C1180 1.478 . S
C1179 H1173 0.930 . S
C1179 C1175 1.400 . S
C1179 C1178 1.385 . S
C1180 C1178 1.478 . S
C1180 C1182 1.381 . S
C1180 C1186 1.383 . S
C1181 C1177 1.495 . S
C1181 H1187 0.959 . S
C1181 H1188 0.961 . S
C1181 H1189 0.960 . S
C1182 C1180 1.381 . S
C1182 C1183 1.394 . S
C1182 H1190 0.930 . S
C1183 C1182 1.394 . S
C1183 C1184 1.383 . S
C1183 H1191 0.929 . S
C1184 C1183 1.383 . S
C1184 C1185 1.377 . S
C1185 H1169 0.930 . S
C1185 C1184 1.377 . S
C1185 C1186 1.379 . S
C1186 H1170 0.931 . S
C1186 C1180 1.383 . S
C1186 C1185 1.379 . S
H1187 C1181 0.959 . S
H1188 C1181 0.961 . S
H1189 C1181 0.960 . S
H1190 C1182 0.930 . S
H1191 C1183 0.929 . S
H1192 C1200 0.929 . S
H1193 C1202 0.930 . S
H1194 C1204 0.928 . S
H1195 C1207 0.927 1_455 S
H1196 C1210 0.930 . S
H1197 C1212 0.960 . S
H1198 C1212 0.960 . S
H1199 C1212 0.960 . S
C1200 H1192 0.929 . S
C1200 C1201 1.384 . S
C1200 C1202 1.384 . S
C1201 C1200 1.384 . S
C1201 C1207 1.389 . S
C1202 H1193 0.930 . S
C1202 C1200 1.384 . S
C1202 C1203 1.372 . S
C1203 C1202 1.372 . S
C1203 C1204 1.406 . S
C1203 C1208 1.490 . S
C1204 H1194 0.928 . S
C1204 C1203 1.406 . S
C1204 C1207 1.385 . S
H1205 C1221 0.930 . S
H1206 C1222 0.931 . S
C1207 H1195 0.927 1_655 S
C1207 C1201 1.389 . S
C1207 C1204 1.385 . S
C1208 C1203 1.490 . S
C1208 C1210 1.395 . S
C1208 C1211 1.403 1_655 S
H1209 C1215 0.930 . S
C1210 H1196 0.930 . S
C1210 C1208 1.395 . S
C1210 C1213 1.403 . S
C1211 C1208 1.403 1_455 S
C1211 C1212 1.524 . S
C1211 C1215 1.400 . S
C1212 H1197 0.960 . S
C1212 H1198 0.960 . S
C1212 H1199 0.960 . S
C1212 C1211 1.524 . S
C1213 C1210 1.403 . S
C1213 C1214 1.392 . S
C1213 C1217 1.495 . S
C1214 C1213 1.392 . S
C1214 C1215 1.385 1_655 S
C1214 C1216 1.478 . S
C1215 H1209 0.930 . S
C1215 C1211 1.400 . S
C1215 C1214 1.385 1_455 S
C1216 C1214 1.478 . S
C1216 C1218 1.381 . S
C1216 C1222 1.383 . S
C1217 C1213 1.495 . S
C1217 H1223 0.959 . S
C1217 H1224 0.961 . S
C1217 H1225 0.960 . S
C1218 C1216 1.381 . S
C1218 C1219 1.394 . S
C1218 H1226 0.930 . S
C1219 C1218 1.394 . S
C1219 C1220 1.383 . S
C1219 H1227 0.929 . S
C1220 C1219 1.383 . S
C1220 C1221 1.377 . S
C1221 H1205 0.930 . S
C1221 C1220 1.377 . S
C1221 C1222 1.379 . S
C1222 H1206 0.931 . S
C1222 C1216 1.383 . S
C1222 C1221 1.379 . S
H1223 C1217 0.959 . S
H1224 C1217 0.961 . S
H1225 C1217 0.960 . S
H1226 C1218 0.930 . S
H1227 C1219 0.929 . S
H1228 C1236 0.929 . S
H1229 C1238 0.930 . S
H1230 C1240 0.930 . S
H1231 C1243 0.929 . S
H1232 C1246 0.930 . S
H1233 C1248 0.960 . S
H1234 C1248 0.960 . S
H1235 C1248 0.960 1_565 S
C1236 H1228 0.929 . S
C1236 C1237 1.347 1_545 S
C1236 C1238 1.384 . S
C1237 C1236 1.347 1_565 S
C1237 C1243 1.422 . S
C1238 H1229 0.930 . S
C1238 C1236 1.384 . S
C1238 C1239 1.372 1_545 S
C1239 C1238 1.372 1_565 S
C1239 C1240 1.400 . S
C1239 C1244 1.490 . S
C1240 H1230 0.930 . S
C1240 C1239 1.400 . S
C1240 C1243 1.386 . S
H1241 C1257 0.930 . S
H1242 C1258 0.931 . S
C1243 H1231 0.929 . S
C1243 C1237 1.422 . S
C1243 C1240 1.386 . S
C1244 C1239 1.490 . S
C1244 C1246 1.395 . S
C1244 C1247 1.405 . S
H1245 C1251 0.935 . S
C1246 H1232 0.930 . S
C1246 C1244 1.395 . S
C1246 C1249 1.403 . S
C1247 C1244 1.405 . S
C1247 C1248 1.520 1_565 S
C1247 C1251 1.402 . S
C1248 H1233 0.960 . S
C1248 H1234 0.960 . S
C1248 H1235 0.960 1_545 S
C1248 C1247 1.520 1_545 S
C1249 C1246 1.403 . S
C1249 C1250 1.392 . S
C1249 C1253 1.495 . S
C1250 C1249 1.392 . S
C1250 C1251 1.385 . S
C1250 C1252 1.478 . S
C1251 H1245 0.935 . S
C1251 C1247 1.402 . S
C1251 C1250 1.385 . S
C1252 C1250 1.478 . S
C1252 C1254 1.381 1_565 S
C1252 C1258 1.383 . S
C1253 C1249 1.495 . S
C1253 H1259 0.959 . S
C1253 H1260 0.961 . S
C1253 H1261 0.965 . S
C1254 C1252 1.381 1_545 S
C1254 C1255 1.394 . S
C1254 H1262 0.930 . S
C1255 C1254 1.394 . S
C1255 C1256 1.383 1_545 S
C1255 H1263 0.929 . S
C1256 C1255 1.383 1_565 S
C1256 C1257 1.377 . S
C1257 H1241 0.930 . S
C1257 C1256 1.377 . S
C1257 C1258 1.379 . S
C1258 H1242 0.931 . S
C1258 C1252 1.383 . S
C1258 C1257 1.379 . S
H1259 C1253 0.959 . S
H1260 C1253 0.961 . S
H1261 C1253 0.965 . S
H1262 C1254 0.930 . S
H1263 C1255 0.929 . S
H1264 C1272 0.929 . S
H1265 C1274 0.930 . S
H1266 C1276 0.930 . S
H1267 C1279 0.929 . S
H1268 C1282 0.930 . S
H1269 C1284 0.960 . S
H1270 C1284 0.960 . S
H1271 C1284 0.960 . S
C1272 H1264 0.929 . S
C1272 C1273 1.377 . S
C1272 C1274 1.384 . S
C1273 C1272 1.377 . S
C1273 C1279 1.390 . S
C1274 H1265 0.930 . S
C1274 C1272 1.384 . S
C1274 C1275 1.372 . S
C1275 C1274 1.372 . S
C1275 C1276 1.400 . S
C1275 C1280 1.490 . S
C1276 H1266 0.930 . S
C1276 C1275 1.400 . S
C1276 C1279 1.386 . S
H1277 C1293 0.930 . S
H1278 C1294 0.931 . S
C1279 H1267 0.929 . S
C1279 C1273 1.390 . S
C1279 C1276 1.386 . S
C1280 C1275 1.490 . S
C1280 C1282 1.395 . S
C1280 C1283 1.403 . S
H1281 C1287 0.930 . S
C1282 H1268 0.930 . S
C1282 C1280 1.395 . S
C1282 C1285 1.403 . S
C1283 C1280 1.403 . S
C1283 C1284 1.524 . S
C1283 C1287 1.400 . S
C1284 H1269 0.960 . S
C1284 H1270 0.960 . S
C1284 H1271 0.960 . S
C1284 C1283 1.524 . S
C1285 C1282 1.403 . S
C1285 C1286 1.392 . S
C1285 C1289 1.495 . S
C1286 C1285 1.392 . S
C1286 C1287 1.385 . S
C1286 C1288 1.478 . S
C1287 H1281 0.930 . S
C1287 C1283 1.400 . S
C1287 C1286 1.385 . S
C1288 C1286 1.478 . S
C1288 C1290 1.381 . S
C1288 C1294 1.383 . S
C1289 C1285 1.495 . S
C1289 H1295 0.959 . S
C1289 H1296 0.961 . S
C1289 H1297 0.960 . S
C1290 C1288 1.381 . S
C1290 C1291 1.394 . S
C1290 H1298 0.930 . S
C1291 C1290 1.394 . S
C1291 C1292 1.383 . S
C1291 H1299 0.929 . S
C1292 C1291 1.383 . S
C1292 C1293 1.377 . S
C1293 H1277 0.930 . S
C1293 C1292 1.377 . S
C1293 C1294 1.379 . S
C1294 H1278 0.931 . S
C1294 C1288 1.383 . S
C1294 C1293 1.379 . S
H1295 C1289 0.959 . S
H1296 C1289 0.961 . S
H1297 C1289 0.960 . S
H1298 C1290 0.930 . S
H1299 C1291 0.929 . S
H1300 C1308 0.929 . S
H1301 C1310 0.930 . S
H1302 C1312 0.930 . S
H1303 C1315 0.929 . S
H1304 C1318 0.930 . S
H1305 C1320 0.960 . S
H1306 C1320 0.960 . S
H1307 C1320 0.960 . S
C1308 H1300 0.929 . S
C1308 C1309 1.377 . S
C1308 C1310 1.384 . S
C1309 C1308 1.377 . S
C1309 C1315 1.390 . S
C1310 H1301 0.930 . S
C1310 C1308 1.384 . S
C1310 C1311 1.372 . S
C1311 C1310 1.372 . S
C1311 C1312 1.400 . S
C1311 C1316 1.490 . S
C1312 H1302 0.930 . S
C1312 C1311 1.400 . S
C1312 C1315 1.386 . S
H1313 C1329 0.930 . S
H1314 C1330 0.931 . S
C1315 H1303 0.929 . S
C1315 C1309 1.390 . S
C1315 C1312 1.386 . S
C1316 C1311 1.490 . S
C1316 C1318 1.395 . S
C1316 C1319 1.403 . S
H1317 C1323 0.930 . S
C1318 H1304 0.930 . S
C1318 C1316 1.395 . S
C1318 C1321 1.403 . S
C1319 C1316 1.403 . S
C1319 C1320 1.524 . S
C1319 C1323 1.400 . S
C1320 H1305 0.960 . S
C1320 H1306 0.960 . S
C1320 H1307 0.960 . S
C1320 C1319 1.524 . S
C1321 C1318 1.403 . S
C1321 C1322 1.392 . S
C1321 C1325 1.495 . S
C1322 C1321 1.392 . S
C1322 C1323 1.385 . S
C1322 C1324 1.478 . S
C1323 H1317 0.930 . S
C1323 C1319 1.400 . S
C1323 C1322 1.385 . S
C1324 C1322 1.478 . S
C1324 C1326 1.381 . S
C1324 C1330 1.383 . S
C1325 C1321 1.495 . S
C1325 H1331 0.959 . S
C1325 H1332 0.961 . S
C1325 H1333 0.960 . S
C1326 C1324 1.381 . S
C1326 C1327 1.394 . S
C1326 H1334 0.930 . S
C1327 C1326 1.394 . S
C1327 C1328 1.383 . S
C1327 H1335 0.929 . S
C1328 C1327 1.383 . S
C1328 C1329 1.377 . S
C1329 H1313 0.930 . S
C1329 C1328 1.377 . S
C1329 C1330 1.379 . S
C1330 H1314 0.931 . S
C1330 C1324 1.383 . S
C1330 C1329 1.379 . S
H1331 C1325 0.959 . S
H1332 C1325 0.961 . S
H1333 C1325 0.960 . S
H1334 C1326 0.930 . S
H1335 C1327 0.929 . S
C481 C255 1.926 . S
C500 C321 2.026 1_545 S
C536 C361 2.054 . S
C517 C294 1.904 . S
C572 C401 2.043 . S
C553 C177 1.935 . S
C608 C441 2.040 1_455 S
C589 C216 1.933 . S
C644 C330 2.035 1_565 S
C625 C99 1.934 1_545 S
C661 C138 1.910 . S
C680 C370 2.050 . S
C697 C21 1.934 . S
C716 C410 2.043 . S
C733 C60 1.935 . S
C752 C450 2.047 1_655 S
C788 C327 0.250 . S
C769 C196 0.249 1_455 S
C824 C367 0.328 . S
C805 C235 0.270 1_545 S
C860 C407 0.195 . S
C841 C289 0.238 . S
C877 C157 0.256 . S
C896 C447 0.301 . S
C913 C40 0.235 . S
C932 C318 0.207 . S
C968 C358 0.280 . S
C949 C79 0.222 . S
C1004 C398 0.331 . S
C985 C133 0.230 . S
C1021 C1 0.253 . S
C1040 C438 0.205 . S
C1057 C211 2.547 . S
C1076 C331 2.844 . S
C1093 C250 2.521 . S
C1112 C371 2.825 . S
C1148 C411 2.806 . S
C1129 C274 2.517 . S
C1184 C451 2.832 . S
C1165 C172 2.522 . S
C1201 C55 2.541 1_655 S
C1220 C322 2.863 . S
C1256 C362 2.822 . S
C1237 C94 2.520 1_565 S
C1292 C402 2.814 . S
C1273 C118 2.517 . S
C1309 C16 2.522 . S
C1328 C442 2.841 . S
