# Generated by pormake.
# Topology rtl, (3,6)-cn, num edge types: 1
# Building blocks:
#     Node 0, Type 0, BuildingBlock: KAKCAD_clean_linker_0, # of connection points: 3
#     Node 1, Type 0, BuildingBlock: KAKCAD_clean_linker_0, # of connection points: 3
#     Node 2, Type 0, BuildingBlock: KAKCAD_clean_linker_0, # of connection points: 3
#     Node 3, Type 0, BuildingBlock: KAKCAD_clean_linker_0, # of connection points: 3
#     Node 4, Type 1, BuildingBlock: LEVNOQ01_clean_sbu_1, # of connection points: 6
#     Node 5, Type 1, BuildingBlock: LEVNOQ01_clean_sbu_1, # of connection points: 6
#     Edge 6, Type (0, 1), BuildingBlock: CIFDUS_clean_linker_0, # of connection points: 2
#     Edge 7, Type (0, 1), BuildingBlock: CIFDUS_clean_linker_0, # of connection points: 2
#     Edge 8, Type (0, 1), BuildingBlock: CIFDUS_clean_linker_0, # of connection points: 2
#     Edge 9, Type (0, 1), BuildingBlock: CIFDUS_clean_linker_0, # of connection points: 2
#     Edge 10, Type (0, 1), BuildingBlock: CIFDUS_clean_linker_0, # of connection points: 2
#     Edge 11, Type (0, 1), BuildingBlock: CIFDUS_clean_linker_0, # of connection points: 2
#     Edge 12, Type (0, 1), BuildingBlock: CIFDUS_clean_linker_0, # of connection points: 2
#     Edge 13, Type (0, 1), BuildingBlock: CIFDUS_clean_linker_0, # of connection points: 2
#     Edge 14, Type (0, 1), BuildingBlock: CIFDUS_clean_linker_0, # of connection points: 2
#     Edge 15, Type (0, 1), BuildingBlock: CIFDUS_clean_linker_0, # of connection points: 2
#     Edge 16, Type (0, 1), BuildingBlock: CIFDUS_clean_linker_0, # of connection points: 2
#     Edge 17, Type (0, 1), BuildingBlock: CIFDUS_clean_linker_0, # of connection points: 2
# Relax obj value: 0.026
# Max RMSD: 0.060
# Mean RMSD: 0.046
data_MOF--net-rtl--node1-LEVNOQ01_clean_sbu_1--node2-KAKCAD_clean_linker_0--edge1-CIFDUS_clean_linker_0
_symmetry_space_group_name_H-M    P1
_symmetry_Int_Tables_number       1
_symmetry_cell_setting            triclinic
loop_
_symmetry_equiv_pos_as_xyz
'x, y, z'
_cell_length_a     34.07286
_cell_length_b     38.401208
_cell_length_c     26.757136
_cell_angle_alpha  89.91212
_cell_angle_beta   98.438284
_cell_angle_gamma 89.844103
loop_
_atom_site_label
_atom_site_type_symbol
_atom_site_fract_x
_atom_site_fract_y
_atom_site_fract_z
_atom_type_partial_charge
C0 C 0.20084 0.91812 0.93407 0.0
C1 C 0.19096 0.95373 0.93171 0.0
C2 C 0.21758 0.90272 0.97964 0.0
C3 C 0.22588 0.92257 0.02417 0.0
C4 C 0.21645 0.95827 0.02172 0.0
C5 C 0.19891 0.97353 0.97633 0.0
C6 C 0.24364 0.90581 0.07284 0.0
C7 C 0.27009 0.87761 0.07273 0.0
C8 C 0.2841 0.85914 0.11727 0.0
C9 C 0.27311 0.87056 0.16311 0.0
C10 C 0.2481 0.8996 0.1646 0.0
C11 C 0.23322 0.91685 0.11935 0.0
C12 C 0.23624 0.91093 0.21332 0.0
C13 C 0.22369 0.88631 0.24638 0.0
C14 C 0.23747 0.94624 0.22721 0.0
C15 C 0.22663 0.95666 0.27347 0.0
C16 C 0.21401 0.93198 0.30664 0.0
C17 C 0.30875 0.82714 0.11516 0.0
C18 C 0.30114 0.80457 0.07349 0.0
C19 C 0.33966 0.8186 0.15437 0.0
C20 C 0.36264 0.78851 0.15145 0.0
C21 C 0.35544 0.76685 0.10899 0.0
C22 C 0.32445 0.77502 0.07026 0.0
C23 C 0.21254 0.89669 0.29226 0.0
H24 H 0.19587 0.90196 0.90065 0.0
H25 H 0.22351 0.87501 0.97984 0.0
H26 H 0.22272 0.97464 0.05482 0.0
H27 H 0.19117 0.00088 0.97661 0.0
H28 H 0.27992 0.86995 0.03766 0.0
H29 H 0.21228 0.93802 0.12039 0.0
H30 H 0.28355 0.8566 0.19774 0.0
H31 H 0.22179 0.85898 0.23633 0.0
H32 H 0.24734 0.96575 0.20258 0.0
H33 H 0.22849 0.98399 0.28338 0.0
H34 H 0.27697 0.80956 0.04326 0.0
H35 H 0.34664 0.83544 0.18683 0.0
H36 H 0.20196 0.877 0.31599 0.0
H37 H 0.31821 0.75839 0.03738 0.0
H38 H 0.3866 0.78265 0.18161 0.0
C39 C 0.69549 0.61019 0.75162 0.0
C40 C 0.68933 0.574 0.75003 0.0
C41 C 0.71321 0.6267 0.71395 0.0
C42 C 0.72509 0.60716 0.67438 0.0
C43 C 0.72249 0.57063 0.67593 0.0
C44 C 0.70455 0.55424 0.7132 0.0
C45 C 0.73448 0.62458 0.62803 0.0
C46 C 0.75943 0.65382 0.63014 0.0
C47 C 0.7669 0.66999 0.5853 0.0
C48 C 0.74835 0.65736 0.53838 0.0
C49 C 0.72281 0.62868 0.53583 0.0
C50 C 0.71623 0.61246 0.58078 0.0
C51 C 0.70175 0.61596 0.48673 0.0
C52 C 0.68267 0.63933 0.4505 0.0
C53 C 0.6983 0.58003 0.47736 0.0
C54 C 0.6748 0.56767 0.43395 0.0
C55 C 0.65415 0.59093 0.39884 0.0
C56 C 0.7943 0.69991 0.5864 0.0
C57 C 0.78863 0.7302 0.61396 0.0
C58 C 0.8246 0.69918 0.55619 0.0
C59 C 0.84731 0.72872 0.55119 0.0
C60 C 0.83995 0.75991 0.57575 0.0
C61 C 0.81127 0.76009 0.60858 0.0
C62 C 0.65908 0.62693 0.40692 0.0
H63 H 0.68379 0.626 0.77955 0.0
H64 H 0.71477 0.65486 0.71368 0.0
H65 H 0.7322 0.55486 0.64648 0.0
H66 H 0.7005 0.52626 0.71156 0.0
H67 H 0.77367 0.66345 0.66635 0.0
H68 H 0.69548 0.59099 0.57906 0.0
H69 H 0.75377 0.66998 0.50377 0.0
H70 H 0.68457 0.66716 0.45686 0.0
H71 H 0.71327 0.56139 0.5041 0.0
H72 H 0.67234 0.5398 0.42823 0.0
H73 H 0.76539 0.7313 0.63754 0.0
H74 H 0.82999 0.67594 0.53528 0.0
H75 H 0.6434 0.64548 0.38066 0.0
H76 H 0.80497 0.78372 0.628 0.0
H77 H 0.86991 0.72746 0.52668 0.0
C78 C 0.79784 0.10588 0.19178 0.0
C79 C 0.83851 0.09784 0.19764 0.0
C80 C 0.77781 0.11695 0.14508 0.0
C81 C 0.798 0.12054 0.10308 0.0
C82 C 0.83857 0.11192 0.10876 0.0
C83 C 0.85855 0.10065 0.15545 0.0
C84 C 0.77733 0.13505 0.05448 0.0
C85 C 0.7506 0.16294 0.05501 0.0
C86 C 0.73235 0.1784 0.00993 0.0
C87 C 0.74125 0.16601 0.96364 0.0
C88 C 0.7674 0.13777 0.96209 0.0
C89 C 0.78517 0.1223 0.0076 0.0
C90 C 0.77715 0.1254 0.91286 0.0
C91 C 0.78853 0.14938 0.87816 0.0
C92 C 0.77543 0.08987 0.90028 0.0
C93 C 0.78486 0.07858 0.85367 0.0
C94 C 0.79676 0.10257 0.81897 0.0
C95 C 0.70424 0.20767 0.01198 0.0
C96 C 0.67369 0.2046 0.04155 0.0
C97 C 0.70898 0.23933 0.98714 0.0
C98 C 0.68489 0.26805 0.99417 0.0
C99 C 0.65555 0.26542 0.02589 0.0
C100 C 0.64946 0.23301 0.04811 0.0
C101 C 0.79852 0.13812 0.8321 0.0
H102 H 0.78138 0.10338 0.22329 0.0
H103 H 0.74642 0.12276 0.14192 0.0
H104 H 0.85523 0.11488 0.07753 0.0
H105 H 0.88999 0.09498 0.15882 0.0
H106 H 0.74485 0.17358 0.09075 0.0
H107 H 0.80557 0.10071 0.00644 0.0
H108 H 0.72721 0.17791 0.92875 0.0
H109 H 0.79065 0.17687 0.8872 0.0
H110 H 0.7664 0.07088 0.9263 0.0
H111 H 0.78271 0.05108 0.84487 0.0
H112 H 0.66898 0.18027 0.06036 0.0
H113 H 0.73241 0.24231 0.96415 0.0
H114 H 0.80868 0.1574 0.8074 0.0
H115 H 0.62641 0.22978 0.07163 0.0
H116 H 0.69042 0.29264 0.97664 0.0
C117 C 0.2488 0.42986 0.30199 0.0
C118 C 0.28685 0.44197 0.29706 0.0
C119 C 0.24165 0.41393 0.34675 0.0
C120 C 0.27259 0.40915 0.38729 0.0
C121 C 0.31014 0.42308 0.38326 0.0
C122 C 0.31714 0.43946 0.33866 0.0
C123 C 0.26634 0.38747 0.43172 0.0
C124 C 0.24269 0.35743 0.4245 0.0
C125 C 0.23636 0.33633 0.46537 0.0
C126 C 0.25482 0.3451 0.51417 0.0
C127 C 0.27903 0.37476 0.52244 0.0
C128 C 0.28451 0.39587 0.48091 0.0
C129 C 0.29821 0.38374 0.57453 0.0
C130 C 0.27734 0.38021 0.6159 0.0
C131 C 0.33759 0.39566 0.58339 0.0
C132 C 0.35558 0.404 0.63232 0.0
C133 C 0.33462 0.40068 0.67365 0.0
C134 C 0.20929 0.30586 0.45724 0.0
C135 C 0.1732 0.30844 0.42432 0.0
C136 C 0.21833 0.27458 0.48388 0.0
C137 C 0.19105 0.24723 0.47969 0.0
C138 C 0.1541 0.25054 0.44877 0.0
C139 C 0.14598 0.28109 0.42007 0.0
C140 C 0.29531 0.38855 0.6648 0.0
H141 H 0.22486 0.43177 0.27062 0.0
H142 H 0.21206 0.40442 0.34899 0.0
H143 H 0.33474 0.41972 0.41347 0.0
H144 H 0.34689 0.44825 0.33565 0.0
H145 H 0.2297 0.34995 0.38666 0.0
H146 H 0.30221 0.41929 0.48707 0.0
H147 H 0.25011 0.32889 0.54591 0.0
H148 H 0.24683 0.37145 0.61045 0.0
H149 H 0.35468 0.39834 0.55251 0.0
H150 H 0.38571 0.41371 0.63759 0.0
H151 H 0.16516 0.3322 0.40339 0.0
H152 H 0.24616 0.27152 0.50887 0.0
H153 H 0.27838 0.38543 0.69574 0.0
H154 H 0.11792 0.28435 0.39562 0.0
H155 H 0.19811 0.22422 0.50275 0.0
O156 O 0.95328 0.07805 0.63534 0.0
Mg157 Mg 0.01361 0.08023 0.62923 0.0
O158 O 0.94918 0.02489 0.60325 0.0
Mg159 Mg 0.00403 0.01553 0.55956 0.0
O160 O 0.02438 0.07309 0.55722 0.0
O161 O 0.0329 0.124 0.5979 0.0
O162 O 0.06066 0.01131 0.51553 0.0
O163 O 0.96344 0.02761 0.48367 0.0
Mg164 Mg 0.01602 0.96436 0.51255 0.0
O165 O 0.97841 0.95656 0.56396 0.0
O166 O 0.07783 0.95781 0.53276 0.0
O167 O 0.99383 0.98917 0.44253 0.0
O168 O 0.99195 0.91704 0.50681 0.0
C169 C 0.0611 0.01905 0.67507 0.0
C170 C 0.93437 0.05001 0.62574 0.0
C171 C 0.03527 0.10552 0.55819 0.0
C172 C 0.08623 0.98701 0.51579 0.0
C173 C 0.96931 0.01406 0.44195 0.0
C174 C 0.97341 0.92575 0.54351 0.0
O175 O 0.05402 0.05113 0.68085 0.0
O176 O 0.04544 0.00275 0.63549 0.0
O177 O 0.50157 0.50502 0.14957 0.0
Mg178 Mg 0.47838 0.47223 0.0878 0.0
O179 O 0.52431 0.54011 0.09597 0.0
Mg180 Mg 0.48368 0.51856 0.02614 0.0
O181 O 0.51326 0.46085 0.03441 0.0
O182 O 0.50637 0.42666 0.10081 0.0
O183 O 0.44265 0.49053 0.95631 0.0
O184 O 0.53676 0.52684 0.98225 0.0
Mg185 Mg 0.45473 0.55392 0.9499 0.0
O186 O 0.46239 0.57831 0.0189 0.0
O187 O 0.39961 0.53069 0.92848 0.0
O188 O 0.50209 0.541 0.90964 0.0
O189 O 0.44839 0.6057 0.94403 0.0
C190 C 0.40557 0.49147 0.07969 0.0
C191 C 0.52284 0.53081 0.14131 0.0
C192 C 0.52148 0.43218 0.06015 0.0
C193 C 0.40994 0.49922 0.9294 0.0
C194 C 0.53502 0.53315 0.93539 0.0
C195 C 0.45377 0.60668 0.99266 0.0
O196 O 0.41731 0.46119 0.07191 0.0
O197 O 0.42835 0.51664 0.07238 0.0
H198 H 0.16025 0.17927 0.45051 0.0
H199 H 0.07664 0.26347 0.45562 0.0
H200 H 0.02777 0.2229 0.47877 0.0
H201 H 0.01396 0.16638 0.5141 0.0
H202 H 0.09753 0.08215 0.514 0.0
H203 H 0.14083 0.11938 0.47133 0.0
C204 C 0.13107 0.18856 0.45582 0.0
C205 C 0.12241 0.22447 0.45206 0.0
C206 C 0.10315 0.16507 0.47029 0.0
C207 C 0.08418 0.23604 0.45805 0.0
C208 C 0.05621 0.21287 0.47172 0.0
C209 C 0.04096 0.15587 0.50286 0.0
C210 C 0.05283 0.12186 0.51709 0.0
C211 C 0.06605 0.17772 0.48017 0.0
C212 C 0.08774 0.10824 0.50274 0.0
C213 C 0.11274 0.12972 0.47915 0.0
H214 H 0.40288 0.75819 0.03865 0.0
H215 H 0.36322 0.70714 0.16543 0.0
H216 H 0.39557 0.65275 0.14486 0.0
H217 H 0.4275 0.61817 0.08331 0.0
H218 H 0.46499 0.67066 0.95566 0.0
H219 H 0.44197 0.72609 0.98447 0.0
C220 C 0.4021 0.73526 0.06226 0.0
C221 C 0.38068 0.73627 0.10309 0.0
C222 C 0.42019 0.70432 0.04981 0.0
C223 C 0.37975 0.70671 0.1338 0.0
C224 C 0.39801 0.67567 0.12184 0.0
C225 C 0.43147 0.64192 0.06265 0.0
C226 C 0.44737 0.64028 0.01704 0.0
C227 C 0.41727 0.67387 0.0789 0.0
C228 C 0.4523 0.6712 0.99049 0.0
C229 C 0.43909 0.70293 0.00685 0.0
H230 H 0.87365 0.81147 0.63974 0.0
H231 H 0.85007 0.78183 0.48254 0.0
H232 H 0.88716 0.8317 0.45936 0.0
H233 H 0.92959 0.88109 0.48329 0.0
H234 H 0.95382 0.91364 0.63876 0.0
H235 H 0.91247 0.86572 0.66312 0.0
C236 C 0.87636 0.81623 0.60045 0.0
C237 C 0.85998 0.79239 0.56307 0.0
C238 C 0.89781 0.84536 0.5871 0.0
C239 C 0.8634 0.79908 0.51222 0.0
C240 C 0.88438 0.82775 0.49882 0.0
C241 C 0.92574 0.87783 0.52259 0.0
C242 C 0.94516 0.90036 0.55934 0.0
C243 C 0.90234 0.85053 0.53596 0.0
C244 C 0.93919 0.89643 0.60986 0.0
C245 C 0.91576 0.86896 0.62372 0.0
H246 H 0.62319 0.31874 0.96388 0.0
H247 H 0.63855 0.28264 0.11858 0.0
H248 H 0.59957 0.3313 0.14204 0.0
H249 H 0.55977 0.38266 0.11922 0.0
H250 H 0.54416 0.42158 0.96628 0.0
H251 H 0.58539 0.37366 0.94173 0.0
C252 C 0.61824 0.32175 0.00275 0.0
C253 C 0.63313 0.29654 0.03915 0.0
C254 C 0.5959 0.35027 0.01635 0.0
C255 C 0.62653 0.30094 0.08943 0.0
C256 C 0.60449 0.32897 0.10306 0.0
C257 C 0.56528 0.3808 0.08039 0.0
C258 C 0.54851 0.40538 0.04447 0.0
C259 C 0.58869 0.35346 0.0668 0.0
C260 C 0.55666 0.4029 0.99462 0.0
C261 C 0.5801 0.37544 0.9806 0.0
H262 H 0.17228 0.99039 0.32573 0.0
H263 H 0.22663 0.89782 0.39753 0.0
H264 H 0.19642 0.90989 0.47273 0.0
H265 H 0.14771 0.94228 0.51337 0.0
H266 H 0.09376 0.0351 0.44227 0.0
H267 H 0.13222 0.02824 0.3728 0.0
C268 C 0.17843 0.97329 0.35822 0.0
C269 C 0.20091 0.94269 0.35519 0.0
C270 C 0.16111 0.98048 0.40171 0.0
C271 C 0.20838 0.92093 0.39794 0.0
C272 C 0.19137 0.92794 0.44124 0.0
C273 C 0.14512 0.96153 0.48333 0.0
C274 C 0.11746 0.98884 0.48272 0.0
C275 C 0.16658 0.95696 0.44284 0.0
C276 C 0.11479 0.01378 0.44379 0.0
C277 C 0.13646 0.00965 0.40364 0.0
H278 H 0.69076 0.57713 0.85238 0.0
H279 H 0.62485 0.53561 0.71561 0.0
H280 H 0.57268 0.51591 0.76219 0.0
H281 H 0.54244 0.51626 0.83965 0.0
H282 H 0.60829 0.55555 0.97775 0.0
H283 H 0.66413 0.56986 0.93323 0.0
C284 C 0.66522 0.56327 0.83318 0.0
C285 C 0.66146 0.55794 0.78073 0.0
C286 C 0.63531 0.5518 0.86032 0.0
C287 C 0.62846 0.53977 0.75607 0.0
C288 C 0.59851 0.52869 0.78258 0.0
C289 C 0.56934 0.52738 0.8601 0.0
C290 C 0.57124 0.53526 0.91155 0.0
C291 C 0.60115 0.53538 0.83438 0.0
C292 C 0.6063 0.54924 0.93801 0.0
C293 C 0.63806 0.55767 0.91251 0.0
H294 H 0.89208 0.04519 0.217 0.0
H295 H 0.83301 0.1255 0.29068 0.0
H296 H 0.868 0.10697 0.37286 0.0
H297 H 0.91568 0.06772 0.42398 0.0
H298 H 0.97455 0.98779 0.34879 0.0
H299 H 0.93968 0.00662 0.26742 0.0
C300 C 0.88711 0.05884 0.25099 0.0
C301 C 0.85995 0.08666 0.24762 0.0
C302 C 0.90734 0.04811 0.29804 0.0
C303 C 0.85341 0.10372 0.29221 0.0
C304 C 0.87357 0.09325 0.33922 0.0
C305 C 0.92088 0.05446 0.3898 0.0
C306 C 0.94777 0.02637 0.39277 0.0
C307 C 0.90059 0.0654 0.34266 0.0
C308 C 0.95411 0.00951 0.34792 0.0
C309 C 0.93415 0.02023 0.30117 0.0
H310 H 0.30037 0.43657 0.74364 0.0
H311 H 0.41084 0.38873 0.71988 0.0
H312 H 0.44287 0.41086 0.80134 0.0
H313 H 0.44099 0.44874 0.87551 0.0
H314 H 0.33093 0.49835 0.89645 0.0
H315 H 0.29693 0.46956 0.82103 0.0
C316 C 0.33123 0.43031 0.75667 0.0
C317 C 0.35319 0.41124 0.72534 0.0
C318 C 0.34953 0.44334 0.80334 0.0
C319 C 0.39336 0.40388 0.74273 0.0
C320 C 0.41167 0.41635 0.7895 0.0
C321 C 0.40934 0.45238 0.86429 0.0
C322 C 0.38842 0.47553 0.89149 0.0
C323 C 0.39027 0.43677 0.81966 0.0
C324 C 0.34758 0.48059 0.87608 0.0
C325 C 0.3282 0.46434 0.83277 0.0
H326 H 0.64419 0.6128 0.30035 0.0
H327 H 0.60048 0.53887 0.40052 0.0
H328 H 0.55515 0.51492 0.3302 0.0
H329 H 0.52911 0.51375 0.24044 0.0
H330 H 0.57237 0.58689 0.13879 0.0
H331 H 0.61617 0.61273 0.20967 0.0
C332 C 0.62449 0.59164 0.30676 0.0
C333 C 0.62606 0.5774 0.35554 0.0
C334 C 0.59836 0.5779 0.26598 0.0
C335 C 0.60048 0.54986 0.36321 0.0
C336 C 0.57433 0.53628 0.32308 0.0
C337 C 0.5479 0.53549 0.23364 0.0
C338 C 0.54749 0.54826 0.18427 0.0
C339 C 0.57325 0.54989 0.27431 0.0
C340 C 0.5721 0.57648 0.17638 0.0
C341 C 0.59723 0.59123 0.21689 0.0
H342 H 0.83602 0.04239 0.80032 0.0
H343 H 0.78576 0.1362 0.72743 0.0
H344 H 0.81893 0.12431 0.65474 0.0
H345 H 0.8715 0.09308 0.61936 0.0
H346 H 0.91975 -0.00174 0.68962 0.0
H347 H 0.87651 0.00382 0.7547 0.0
C348 C 0.83116 0.05974 0.76802 0.0
C349 C 0.80958 0.09095 0.77056 0.0
C350 C 0.84991 0.0525 0.72568 0.0
C351 C 0.80363 0.11282 0.72778 0.0
C352 C 0.82229 0.10589 0.68583 0.0
C353 C 0.87119 0.07288 0.64771 0.0
C354 C 0.8987 0.04543 0.65004 0.0
C355 C 0.84693 0.07669 0.68542 0.0
C356 C 0.89842 0.01942 0.6869 0.0
C357 C 0.87418 0.02294 0.72457 0.0
H358 H 0.32598 0.50041 0.27375 0.0
H359 H 0.2696 0.40729 0.20851 0.0
H360 H 0.29553 0.41838 0.12973 0.0
H361 H 0.34322 0.44898 0.08526 0.0
H362 H 0.40002 0.5421 0.14983 0.0
H363 H 0.36408 0.53727 0.22212 0.0
C364 C 0.31881 0.48301 0.24184 0.0
C365 C 0.29639 0.45287 0.24705 0.0
C366 C 0.33396 0.4895 0.19658 0.0
C367 C 0.28677 0.43069 0.20535 0.0
C368 C 0.30176 0.4369 0.16038 0.0
C369 C 0.34671 0.46883 0.11439 0.0
C370 C 0.37464 0.4955 0.11262 0.0
C371 C 0.32662 0.46547 0.1563 0.0
C372 C 0.37868 0.52127 0.15028 0.0
C373 C 0.35852 0.51827 0.19202 0.0
H374 H 0.13886 0.92423 0.85534 0.0
H375 H 0.2008 0.02026 0.89779 0.0
H376 H 0.16696 0.04829 0.82188 0.0
H377 H 0.11809 0.04645 0.74499 0.0
H378 H 0.05968 0.94976 0.69883 0.0
H379 H 0.09514 0.92077 0.77381 0.0
C380 C 0.14573 0.95108 0.84777 0.0
C381 C 0.17209 0.97008 0.88324 0.0
C382 C 0.12695 0.96694 0.80311 0.0
C383 C 0.17988 0.00507 0.8724 0.0
C384 C 0.16081 0.02114 0.82857 0.0
C385 C 0.11335 0.01894 0.75112 0.0
C386 C 0.08603 0.00035 0.71667 0.0
C387 C 0.13394 0.00247 0.79404 0.0
C388 C 0.08061 0.96464 0.72473 0.0
C389 C 0.10069 0.94812 0.76777 0.0
loop_
_geom_bond_atom_site_label_1
_geom_bond_atom_site_label_2
_geom_bond_distance
_geom_bond_site_symmetry_2
_ccdc_geom_bond_type
C0 C1 1.386 . S
C0 C2 1.397 . S
C0 H24 0.931 . S
C1 C0 1.386 . S
C1 C5 1.397 . S
C2 C0 1.397 . S
C2 C3 1.384 . S
C2 H25 0.930 . S
C3 C2 1.384 . S
C3 C4 1.377 . S
C3 C6 1.481 1_556 S
C4 C3 1.377 . S
C4 C5 1.389 . S
C4 H26 0.929 1_556 S
C5 C1 1.397 . S
C5 C4 1.389 . S
C5 H27 0.931 . S
C6 C3 1.481 1_554 S
C6 C7 1.387 . S
C6 C11 1.390 . S
C7 C6 1.387 . S
C7 C8 1.401 . S
C7 H28 0.930 . S
C8 C7 1.401 . S
C8 C9 1.376 . S
C8 C17 1.511 . S
C9 C8 1.376 . S
C9 C10 1.392 . S
C9 H30 0.931 . S
C10 C9 1.392 . S
C10 C11 1.361 . S
C10 C12 1.500 . S
C11 C6 1.390 . S
C11 C10 1.361 . S
C11 H29 0.931 . S
C12 C10 1.500 . S
C12 C13 1.371 . S
C12 C14 1.365 . S
C13 C12 1.371 . S
C13 C23 1.386 . S
C13 H31 0.931 . S
C14 C12 1.365 . S
C14 C15 1.409 . S
C14 H32 0.929 . S
C15 C14 1.409 . S
C15 C16 1.380 . S
C15 H33 0.930 . S
C16 C15 1.380 . S
C16 C23 1.357 . S
C17 C8 1.511 . S
C17 C18 1.341 . S
C17 C19 1.371 . S
C18 C17 1.341 . S
C18 C22 1.394 . S
C18 H34 0.930 . S
C19 C17 1.371 . S
C19 C20 1.392 . S
C19 H35 0.931 . S
C20 C19 1.392 . S
C20 C21 1.331 . S
C20 H38 0.932 . S
C21 C20 1.331 . S
C21 C22 1.336 . S
C22 C18 1.394 . S
C22 C21 1.336 . S
C22 H37 0.929 . S
C23 C13 1.386 . S
C23 C16 1.357 . S
C23 H36 0.928 . S
H24 C0 0.931 . S
H25 C2 0.930 . S
H26 C4 0.929 1_554 S
H27 C5 0.931 . S
H28 C7 0.930 . S
H29 C11 0.931 . S
H30 C9 0.931 . S
H31 C13 0.931 . S
H32 C14 0.929 . S
H33 C15 0.930 . S
H34 C18 0.930 . S
H35 C19 0.931 . S
H36 C23 0.928 . S
H37 C22 0.929 . S
H38 C20 0.932 . S
C39 C40 1.386 . S
C39 C41 1.397 . S
C39 H63 0.931 . S
C40 C39 1.386 . S
C40 C44 1.397 . S
C41 C39 1.397 . S
C41 C42 1.384 . S
C41 H64 0.930 . S
C42 C41 1.384 . S
C42 C43 1.377 . S
C42 C45 1.481 . S
C43 C42 1.377 . S
C43 C44 1.389 . S
C43 H65 0.929 . S
C44 C40 1.397 . S
C44 C43 1.389 . S
C44 H66 0.931 . S
C45 C42 1.481 . S
C45 C46 1.387 . S
C45 C50 1.390 . S
C46 C45 1.387 . S
C46 C47 1.401 . S
C46 H67 0.930 . S
C47 C46 1.401 . S
C47 C48 1.376 . S
C47 C56 1.511 . S
C48 C47 1.376 . S
C48 C49 1.392 . S
C48 H69 0.931 . S
C49 C48 1.392 . S
C49 C50 1.361 . S
C49 C51 1.500 . S
C50 C45 1.390 . S
C50 C49 1.361 . S
C50 H68 0.931 . S
C51 C49 1.500 . S
C51 C52 1.371 . S
C51 C53 1.365 . S
C52 C51 1.371 . S
C52 C62 1.386 . S
C52 H70 0.931 . S
C53 C51 1.365 . S
C53 C54 1.409 . S
C53 H71 0.929 . S
C54 C53 1.409 . S
C54 C55 1.380 . S
C54 H72 0.930 . S
C55 C54 1.380 . S
C55 C62 1.357 . S
C56 C47 1.511 . S
C56 C57 1.341 . S
C56 C58 1.371 . S
C57 C56 1.341 . S
C57 C61 1.394 . S
C57 H73 0.930 . S
C58 C56 1.371 . S
C58 C59 1.392 . S
C58 H74 0.931 . S
C59 C58 1.392 . S
C59 C60 1.331 . S
C59 H77 0.932 . S
C60 C59 1.331 . S
C60 C61 1.336 . S
C61 C57 1.394 . S
C61 C60 1.336 . S
C61 H76 0.929 . S
C62 C52 1.386 . S
C62 C55 1.357 . S
C62 H75 0.928 . S
H63 C39 0.931 . S
H64 C41 0.930 . S
H65 C43 0.929 . S
H66 C44 0.931 . S
H67 C46 0.930 . S
H68 C50 0.931 . S
H69 C48 0.931 . S
H70 C52 0.931 . S
H71 C53 0.929 . S
H72 C54 0.930 . S
H73 C57 0.930 . S
H74 C58 0.931 . S
H75 C62 0.928 . S
H76 C61 0.929 . S
H77 C59 0.932 . S
C78 C79 1.386 . S
C78 C80 1.397 . S
C78 H102 0.931 . S
C79 C78 1.386 . S
C79 C83 1.397 . S
C80 C78 1.397 . S
C80 C81 1.384 . S
C80 H103 0.930 . S
C81 C80 1.384 . S
C81 C82 1.377 . S
C81 C84 1.481 . S
C82 C81 1.377 . S
C82 C83 1.389 . S
C82 H104 0.929 . S
C83 C79 1.397 . S
C83 C82 1.389 . S
C83 H105 0.931 . S
C84 C81 1.481 . S
C84 C85 1.387 . S
C84 C89 1.390 . S
C85 C84 1.387 . S
C85 C86 1.401 1_554 S
C85 H106 0.930 . S
C86 C85 1.401 1_556 S
C86 C87 1.376 . S
C86 C95 1.511 . S
C87 C86 1.376 . S
C87 C88 1.392 . S
C87 H108 0.931 . S
C88 C87 1.392 . S
C88 C89 1.361 1_556 S
C88 C90 1.500 . S
C89 C84 1.390 . S
C89 C88 1.361 1_554 S
C89 H107 0.931 . S
C90 C88 1.500 . S
C90 C91 1.371 . S
C90 C92 1.365 . S
C91 C90 1.371 . S
C91 C101 1.386 . S
C91 H109 0.931 . S
C92 C90 1.365 . S
C92 C93 1.409 . S
C92 H110 0.929 . S
C93 C92 1.409 . S
C93 C94 1.380 . S
C93 H111 0.930 . S
C94 C93 1.380 . S
C94 C101 1.357 . S
C95 C86 1.511 . S
C95 C96 1.341 1_556 S
C95 C97 1.371 . S
C96 C95 1.341 1_554 S
C96 C100 1.394 . S
C96 H112 0.930 . S
C97 C95 1.371 . S
C97 C98 1.392 . S
C97 H113 0.931 . S
C98 C97 1.392 . S
C98 C99 1.331 . S
C98 H116 0.932 . S
C99 C98 1.331 . S
C99 C100 1.336 1_556 S
C100 C96 1.394 . S
C100 C99 1.336 1_554 S
C100 H115 0.929 . S
C101 C91 1.386 . S
C101 C94 1.357 . S
C101 H114 0.928 . S
H102 C78 0.931 . S
H103 C80 0.930 . S
H104 C82 0.929 . S
H105 C83 0.931 . S
H106 C85 0.930 . S
H107 C89 0.931 . S
H108 C87 0.931 . S
H109 C91 0.931 . S
H110 C92 0.929 . S
H111 C93 0.930 . S
H112 C96 0.930 . S
H113 C97 0.931 . S
H114 C101 0.928 . S
H115 C100 0.929 . S
H116 C98 0.932 . S
C117 C118 1.386 . S
C117 C119 1.397 . S
C117 H141 0.931 . S
C118 C117 1.386 . S
C118 C122 1.397 . S
C119 C117 1.397 . S
C119 C120 1.384 . S
C119 H142 0.930 . S
C120 C119 1.384 . S
C120 C121 1.377 . S
C120 C123 1.481 . S
C121 C120 1.377 . S
C121 C122 1.389 . S
C121 H143 0.929 . S
C122 C118 1.397 . S
C122 C121 1.389 . S
C122 H144 0.931 . S
C123 C120 1.481 . S
C123 C124 1.387 . S
C123 C128 1.390 . S
C124 C123 1.387 . S
C124 C125 1.401 . S
C124 H145 0.930 . S
C125 C124 1.401 . S
C125 C126 1.376 . S
C125 C134 1.511 . S
C126 C125 1.376 . S
C126 C127 1.392 . S
C126 H147 0.931 . S
C127 C126 1.392 . S
C127 C128 1.361 . S
C127 C129 1.500 . S
C128 C123 1.390 . S
C128 C127 1.361 . S
C128 H146 0.931 . S
C129 C127 1.500 . S
C129 C130 1.371 . S
C129 C131 1.365 . S
C130 C129 1.371 . S
C130 C140 1.386 . S
C130 H148 0.931 . S
C131 C129 1.365 . S
C131 C132 1.409 . S
C131 H149 0.929 . S
C132 C131 1.409 . S
C132 C133 1.380 . S
C132 H150 0.930 . S
C133 C132 1.380 . S
C133 C140 1.357 . S
C134 C125 1.511 . S
C134 C135 1.341 . S
C134 C136 1.371 . S
C135 C134 1.341 . S
C135 C139 1.394 . S
C135 H151 0.930 . S
C136 C134 1.371 . S
C136 C137 1.392 . S
C136 H152 0.931 . S
C137 C136 1.392 . S
C137 C138 1.331 . S
C137 H155 0.932 . S
C138 C137 1.331 . S
C138 C139 1.336 . S
C139 C135 1.394 . S
C139 C138 1.336 . S
C139 H154 0.929 . S
C140 C130 1.386 . S
C140 C133 1.357 . S
C140 H153 0.928 . S
H141 C117 0.931 . S
H142 C119 0.930 . S
H143 C121 0.929 . S
H144 C122 0.931 . S
H145 C124 0.930 . S
H146 C128 0.931 . S
H147 C126 0.931 . S
H148 C130 0.931 . S
H149 C131 0.929 . S
H150 C132 0.930 . S
H151 C135 0.930 . S
H152 C136 0.931 . S
H153 C140 0.928 . S
H154 C139 0.929 . S
H155 C137 0.932 . S
O156 Mg157 1.990 1_655 S
O156 C170 1.253 . S
Mg157 O156 1.990 1_455 S
Mg157 O160 2.180 . S
Mg157 O161 2.117 . S
Mg157 O175 2.030 . S
O158 Mg159 2.072 1_655 S
O158 C170 1.260 . S
Mg159 O158 2.072 1_455 S
Mg159 O160 2.099 . S
Mg159 O162 2.079 1_545 S
Mg159 O163 2.072 1_455 S
Mg159 O165 2.099 1_445 S
Mg159 O176 2.079 1_545 S
O160 Mg157 2.180 . S
O160 Mg159 2.099 . S
O160 C171 1.279 . S
O161 Mg157 2.117 . S
O161 C171 1.250 . S
O162 Mg159 2.079 1_565 S
O162 C172 1.264 . S
O163 Mg159 2.072 1_655 S
O163 C173 1.260 . S
Mg164 O165 2.180 . S
Mg164 O166 2.030 1_655 S
Mg164 O167 1.969 1_565 S
Mg164 O168 2.117 . S
O165 Mg159 2.099 1_665 S
O165 Mg164 2.180 . S
O165 C174 1.279 . S
O166 Mg164 2.030 1_455 S
O166 C172 1.248 . S
O167 Mg164 1.969 1_545 S
O167 C173 1.275 . S
O168 Mg164 2.117 . S
O168 C174 1.250 . S
C169 O175 1.248 1_565 S
C169 O176 1.264 . S
C170 O156 1.253 . S
C170 O158 1.260 . S
C171 O160 1.279 . S
C171 O161 1.250 . S
C172 O162 1.264 . S
C172 O166 1.248 . S
C173 O163 1.260 . S
C173 O167 1.275 . S
C174 O165 1.279 . S
C174 O168 1.250 . S
O175 Mg157 2.030 . S
O175 C169 1.248 1_545 S
O176 Mg159 2.079 1_565 S
O176 C169 1.264 . S
O177 Mg178 1.990 . S
O177 C191 1.253 . S
Mg178 O177 1.990 . S
Mg178 O181 2.180 . S
Mg178 O182 2.117 . S
Mg178 O196 2.030 . S
O179 Mg180 2.072 . S
O179 C191 1.260 . S
Mg180 O179 2.072 . S
Mg180 O181 2.099 . S
Mg180 O183 2.079 1_554 S
Mg180 O184 2.072 1_554 S
Mg180 O186 2.099 . S
Mg180 O197 2.079 . S
O181 Mg178 2.180 . S
O181 Mg180 2.099 . S
O181 C192 1.279 . S
O182 Mg178 2.117 . S
O182 C192 1.250 . S
O183 Mg180 2.079 1_556 S
O183 C193 1.264 . S
O184 Mg180 2.072 1_556 S
O184 C194 1.260 . S
Mg185 O186 2.180 1_556 S
Mg185 O187 2.030 . S
Mg185 O188 1.990 . S
Mg185 O189 2.117 . S
O186 Mg180 2.099 . S
O186 Mg185 2.180 1_554 S
O186 C195 1.279 . S
O187 Mg185 2.030 . S
O187 C193 1.248 . S
O188 Mg185 1.990 . S
O188 C194 1.253 . S
O189 Mg185 2.117 . S
O189 C195 1.250 1_556 S
C190 O196 1.248 . S
C190 O197 1.264 . S
C191 O177 1.253 . S
C191 O179 1.260 . S
C192 O181 1.279 . S
C192 O182 1.250 . S
C193 O183 1.264 . S
C193 O187 1.248 . S
C194 O184 1.260 . S
C194 O188 1.253 . S
C195 O186 1.279 . S
C195 O189 1.250 1_554 S
O196 Mg178 2.030 . S
O196 C190 1.248 . S
O197 Mg180 2.079 . S
O197 C190 1.264 . S
H198 C204 0.930 . S
H199 C207 0.930 . S
H200 C208 0.930 . S
H201 C209 0.930 . S
H202 C212 0.930 . S
H203 C213 0.930 . S
C204 H198 0.930 . S
C204 C205 1.355 . S
C204 C206 1.415 . S
C205 C204 1.355 . S
C205 C207 1.419 . S
C206 C204 1.415 . S
C206 C211 1.425 . S
C206 C213 1.409 . S
C207 H199 0.930 . S
C207 C205 1.419 . S
C207 C208 1.362 . S
C208 H200 0.930 . S
C208 C207 1.362 . S
C208 C211 1.409 . S
C209 H201 0.930 . S
C209 C210 1.355 . S
C209 C211 1.415 . S
C210 C209 1.355 . S
C210 C212 1.419 . S
C211 C206 1.425 . S
C211 C208 1.409 . S
C211 C209 1.415 . S
C212 H202 0.930 . S
C212 C210 1.419 . S
C212 C213 1.362 . S
C213 H203 0.930 . S
C213 C206 1.409 . S
C213 C212 1.362 . S
H214 C220 0.930 . S
H215 C223 0.930 . S
H216 C224 0.930 . S
H217 C225 0.930 . S
H218 C228 0.930 1_556 S
H219 C229 0.930 1_556 S
C220 H214 0.930 . S
C220 C221 1.355 . S
C220 C222 1.415 . S
C221 C220 1.355 . S
C221 C223 1.419 . S
C222 C220 1.415 . S
C222 C227 1.425 . S
C222 C229 1.409 . S
C223 H215 0.930 . S
C223 C221 1.419 . S
C223 C224 1.362 . S
C224 H216 0.930 . S
C224 C223 1.362 . S
C224 C227 1.409 . S
C225 H217 0.930 . S
C225 C226 1.355 . S
C225 C227 1.415 . S
C226 C225 1.355 . S
C226 C228 1.419 . S
C227 C222 1.425 . S
C227 C224 1.409 . S
C227 C225 1.415 . S
C228 H218 0.930 1_554 S
C228 C226 1.419 . S
C228 C229 1.362 . S
C229 H219 0.930 1_554 S
C229 C222 1.409 . S
C229 C228 1.362 . S
H230 C236 0.930 . S
H231 C239 0.930 . S
H232 C240 0.930 . S
H233 C241 0.930 . S
H234 C244 0.930 . S
H235 C245 0.930 . S
C236 H230 0.930 . S
C236 C237 1.355 . S
C236 C238 1.415 . S
C237 C236 1.355 . S
C237 C239 1.419 . S
C238 C236 1.415 . S
C238 C243 1.425 . S
C238 C245 1.409 . S
C239 H231 0.930 . S
C239 C237 1.419 . S
C239 C240 1.362 . S
C240 H232 0.930 . S
C240 C239 1.362 . S
C240 C243 1.409 . S
C241 H233 0.930 . S
C241 C242 1.355 . S
C241 C243 1.415 . S
C242 C241 1.355 . S
C242 C244 1.419 . S
C243 C238 1.425 . S
C243 C240 1.409 . S
C243 C241 1.415 . S
C244 H234 0.930 . S
C244 C242 1.419 . S
C244 C245 1.362 . S
C245 H235 0.930 . S
C245 C238 1.409 . S
C245 C244 1.362 . S
H246 C252 0.930 . S
H247 C255 0.930 . S
H248 C256 0.930 . S
H249 C257 0.930 . S
H250 C260 0.930 . S
H251 C261 0.930 . S
C252 H246 0.930 . S
C252 C253 1.359 . S
C252 C254 1.415 . S
C253 C252 1.359 . S
C253 C255 1.412 1_556 S
C254 C252 1.415 . S
C254 C259 1.425 1_556 S
C254 C261 1.409 . S
C255 H247 0.930 . S
C255 C253 1.412 1_554 S
C255 C256 1.362 . S
C256 H248 0.930 . S
C256 C255 1.362 . S
C256 C259 1.409 . S
C257 H249 0.930 . S
C257 C258 1.355 . S
C257 C259 1.415 . S
C258 C257 1.355 . S
C258 C260 1.419 1_554 S
C259 C254 1.425 1_554 S
C259 C256 1.409 . S
C259 C257 1.415 . S
C260 H250 0.930 . S
C260 C258 1.419 1_556 S
C260 C261 1.362 . S
C261 H251 0.930 . S
C261 C254 1.409 . S
C261 C260 1.362 . S
H262 C268 0.930 . S
H263 C271 0.930 . S
H264 C272 0.930 . S
H265 C273 0.930 . S
H266 C276 0.930 1_545 S
H267 C277 0.930 1_545 S
C268 H262 0.930 . S
C268 C269 1.355 . S
C268 C270 1.415 . S
C269 C268 1.355 . S
C269 C271 1.419 . S
C270 C268 1.415 . S
C270 C275 1.425 . S
C270 C277 1.409 . S
C271 H263 0.930 . S
C271 C269 1.419 . S
C271 C272 1.362 . S
C272 H264 0.930 . S
C272 C271 1.362 . S
C272 C275 1.409 . S
C273 H265 0.930 . S
C273 C274 1.355 . S
C273 C275 1.415 . S
C274 C273 1.355 . S
C274 C276 1.419 . S
C275 C270 1.425 . S
C275 C272 1.409 . S
C275 C273 1.415 . S
C276 H266 0.930 1_565 S
C276 C274 1.419 . S
C276 C277 1.362 . S
C277 H267 0.930 1_565 S
C277 C270 1.409 . S
C277 C276 1.362 . S
H278 C284 0.930 . S
H279 C287 0.930 . S
H280 C288 0.930 . S
H281 C289 0.930 . S
H282 C292 0.930 . S
H283 C293 0.930 . S
C284 H278 0.930 . S
C284 C285 1.355 . S
C284 C286 1.415 . S
C285 C284 1.355 . S
C285 C287 1.419 . S
C286 C284 1.415 . S
C286 C291 1.425 . S
C286 C293 1.409 . S
C287 H279 0.930 . S
C287 C285 1.419 . S
C287 C288 1.362 . S
C288 H280 0.930 . S
C288 C287 1.362 . S
C288 C291 1.409 . S
C289 H281 0.930 . S
C289 C290 1.355 . S
C289 C291 1.415 . S
C290 C289 1.355 . S
C290 C292 1.419 . S
C291 C286 1.425 . S
C291 C288 1.409 . S
C291 C289 1.415 . S
C292 H282 0.930 . S
C292 C290 1.419 . S
C292 C293 1.362 . S
C293 H283 0.930 . S
C293 C286 1.409 . S
C293 C292 1.362 . S
H294 C300 0.930 . S
H295 C303 0.930 . S
H296 C304 0.930 . S
H297 C305 0.930 . S
H298 C308 0.930 . S
H299 C309 0.930 . S
C300 H294 0.930 . S
C300 C301 1.355 . S
C300 C302 1.415 . S
C301 C300 1.355 . S
C301 C303 1.419 . S
C302 C300 1.415 . S
C302 C307 1.425 . S
C302 C309 1.409 . S
C303 H295 0.930 . S
C303 C301 1.419 . S
C303 C304 1.362 . S
C304 H296 0.930 . S
C304 C303 1.362 . S
C304 C307 1.409 . S
C305 H297 0.930 . S
C305 C306 1.355 . S
C305 C307 1.415 . S
C306 C305 1.355 . S
C306 C308 1.419 . S
C307 C302 1.425 . S
C307 C304 1.409 . S
C307 C305 1.415 . S
C308 H298 0.930 . S
C308 C306 1.419 . S
C308 C309 1.362 . S
C309 H299 0.930 . S
C309 C302 1.409 . S
C309 C308 1.362 . S
H310 C316 0.930 . S
H311 C319 0.930 . S
H312 C320 0.930 . S
H313 C321 0.930 . S
H314 C324 0.930 . S
H315 C325 0.930 . S
C316 H310 0.930 . S
C316 C317 1.355 . S
C316 C318 1.415 . S
C317 C316 1.355 . S
C317 C319 1.419 . S
C318 C316 1.415 . S
C318 C323 1.425 . S
C318 C325 1.409 . S
C319 H311 0.930 . S
C319 C317 1.419 . S
C319 C320 1.362 . S
C320 H312 0.930 . S
C320 C319 1.362 . S
C320 C323 1.409 . S
C321 H313 0.930 . S
C321 C322 1.355 . S
C321 C323 1.415 . S
C322 C321 1.355 . S
C322 C324 1.419 . S
C323 C318 1.425 . S
C323 C320 1.409 . S
C323 C321 1.415 . S
C324 H314 0.930 . S
C324 C322 1.419 . S
C324 C325 1.362 . S
C325 H315 0.930 . S
C325 C318 1.409 . S
C325 C324 1.362 . S
H326 C332 0.930 . S
H327 C335 0.930 . S
H328 C336 0.930 . S
H329 C337 0.930 . S
H330 C340 0.930 . S
H331 C341 0.930 . S
C332 H326 0.930 . S
C332 C333 1.355 . S
C332 C334 1.415 . S
C333 C332 1.355 . S
C333 C335 1.419 . S
C334 C332 1.415 . S
C334 C339 1.425 . S
C334 C341 1.409 . S
C335 H327 0.930 . S
C335 C333 1.419 . S
C335 C336 1.362 . S
C336 H328 0.930 . S
C336 C335 1.362 . S
C336 C339 1.409 . S
C337 H329 0.930 . S
C337 C338 1.355 . S
C337 C339 1.415 . S
C338 C337 1.355 . S
C338 C340 1.419 . S
C339 C334 1.425 . S
C339 C336 1.409 . S
C339 C337 1.415 . S
C340 H330 0.930 . S
C340 C338 1.419 . S
C340 C341 1.362 . S
C341 H331 0.930 . S
C341 C334 1.409 . S
C341 C340 1.362 . S
H342 C348 0.930 . S
H343 C351 0.930 . S
H344 C352 0.930 . S
H345 C353 0.930 . S
H346 C356 0.930 . S
H347 C357 0.930 . S
C348 H342 0.930 . S
C348 C349 1.355 . S
C348 C350 1.415 . S
C349 C348 1.355 . S
C349 C351 1.419 . S
C350 C348 1.415 . S
C350 C355 1.425 . S
C350 C357 1.409 . S
C351 H343 0.930 . S
C351 C349 1.419 . S
C351 C352 1.362 . S
C352 H344 0.930 . S
C352 C351 1.362 . S
C352 C355 1.409 . S
C353 H345 0.930 . S
C353 C354 1.355 . S
C353 C355 1.415 . S
C354 C353 1.355 . S
C354 C356 1.419 . S
C355 C350 1.425 . S
C355 C352 1.409 . S
C355 C353 1.415 . S
C356 H346 0.930 . S
C356 C354 1.419 . S
C356 C357 1.362 . S
C357 H347 0.930 . S
C357 C350 1.409 . S
C357 C356 1.362 . S
H358 C364 0.930 . S
H359 C367 0.930 . S
H360 C368 0.930 . S
H361 C369 0.930 . S
H362 C372 0.930 . S
H363 C373 0.930 . S
C364 H358 0.930 . S
C364 C365 1.355 . S
C364 C366 1.415 . S
C365 C364 1.355 . S
C365 C367 1.419 . S
C366 C364 1.415 . S
C366 C371 1.425 . S
C366 C373 1.409 . S
C367 H359 0.930 . S
C367 C365 1.419 . S
C367 C368 1.362 . S
C368 H360 0.930 . S
C368 C367 1.362 . S
C368 C371 1.409 . S
C369 H361 0.930 . S
C369 C370 1.355 . S
C369 C371 1.415 . S
C370 C369 1.355 . S
C370 C372 1.419 . S
C371 C366 1.425 . S
C371 C368 1.409 . S
C371 C369 1.415 . S
C372 H362 0.930 . S
C372 C370 1.419 . S
C372 C373 1.362 . S
C373 H363 0.930 . S
C373 C366 1.409 . S
C373 C372 1.362 . S
H374 C380 0.930 . S
H375 C383 0.930 1_545 S
H376 C384 0.953 . S
H377 C385 0.930 1_545 S
H378 C388 0.930 . S
H379 C389 0.930 . S
C380 H374 0.930 . S
C380 C381 1.355 . S
C380 C382 1.415 . S
C381 C380 1.355 . S
C381 C383 1.419 . S
C382 C380 1.415 . S
C382 C387 1.425 . S
C382 C389 1.409 . S
C383 H375 0.930 1_565 S
C383 C381 1.419 . S
C383 C384 1.355 1_565 S
C384 H376 0.953 . S
C384 C383 1.355 1_545 S
C384 C387 1.395 1_545 S
C385 H377 0.930 1_565 S
C385 C386 1.355 . S
C385 C387 1.415 . S
C386 C385 1.355 . S
C386 C388 1.419 . S
C387 C382 1.425 . S
C387 C384 1.395 1_565 S
C387 C385 1.415 . S
C388 H378 0.930 . S
C388 C386 1.419 . S
C388 C389 1.362 . S
C389 H379 0.930 . S
C389 C382 1.409 . S
C389 C388 1.362 . S
C210 C171 1.328 . S
C205 C138 1.564 . S
C221 C21 1.531 . S
C226 C195 1.316 . S
C237 C60 1.628 . S
C242 C174 1.514 . S
C253 C99 1.648 . S
C258 C192 1.505 . S
C274 C172 1.618 . S
C269 C16 1.633 . S
C290 C194 1.586 . S
C285 C40 1.594 . S
C301 C79 1.574 . S
C306 C173 1.470 . S
C317 C133 1.570 . S
C322 C193 1.515 . S
C338 C191 1.482 . S
C333 C55 1.571 . S
C354 C170 1.577 . S
C349 C94 1.628 . S
C370 C190 1.641 . S
C365 C118 1.607 . S
C381 C1 1.619 . S
C386 C169 1.552 . S
