# Generated by pormake.
# Topology dag, (6,3)-cn, num edge types: 1
# Building blocks:
#     Node 0, Type 0, BuildingBlock: MIDCAF_clean_sbu_0, # of connection points: 6
#     Node 1, Type 0, BuildingBlock: MIDCAF_clean_sbu_0, # of connection points: 6
#     Node 2, Type 0, BuildingBlock: MIDCAF_clean_sbu_0, # of connection points: 6
#     Node 3, Type 0, BuildingBlock: MIDCAF_clean_sbu_0, # of connection points: 6
#     Node 4, Type 1, BuildingBlock: BETDAH_clean_linker_0, # of connection points: 3
#     Node 5, Type 1, BuildingBlock: BETDAH_clean_linker_0, # of connection points: 3
#     Node 6, Type 1, BuildingBlock: BETDAH_clean_linker_0, # of connection points: 3
#     Node 7, Type 1, BuildingBlock: BETDAH_clean_linker_0, # of connection points: 3
#     Node 8, Type 1, BuildingBlock: BETDAH_clean_linker_0, # of connection points: 3
#     Node 9, Type 1, BuildingBlock: BETDAH_clean_linker_0, # of connection points: 3
#     Node 10, Type 1, BuildingBlock: BETDAH_clean_linker_0, # of connection points: 3
#     Node 11, Type 1, BuildingBlock: BETDAH_clean_linker_0, # of connection points: 3
#     Edge 12, Type (0, 1), BuildingBlock: UVAHIK_clean_linker_0, # of connection points: 2
#     Edge 13, Type (0, 1), BuildingBlock: UVAHIK_clean_linker_0, # of connection points: 2
#     Edge 14, Type (0, 1), BuildingBlock: UVAHIK_clean_linker_0, # of connection points: 2
#     Edge 15, Type (0, 1), BuildingBlock: UVAHIK_clean_linker_0, # of connection points: 2
#     Edge 16, Type (0, 1), BuildingBlock: UVAHIK_clean_linker_0, # of connection points: 2
#     Edge 17, Type (0, 1), BuildingBlock: UVAHIK_clean_linker_0, # of connection points: 2
#     Edge 18, Type (0, 1), BuildingBlock: UVAHIK_clean_linker_0, # of connection points: 2
#     Edge 19, Type (0, 1), BuildingBlock: UVAHIK_clean_linker_0, # of connection points: 2
#     Edge 20, Type (0, 1), BuildingBlock: UVAHIK_clean_linker_0, # of connection points: 2
#     Edge 21, Type (0, 1), BuildingBlock: UVAHIK_clean_linker_0, # of connection points: 2
#     Edge 22, Type (0, 1), BuildingBlock: UVAHIK_clean_linker_0, # of connection points: 2
#     Edge 23, Type (0, 1), BuildingBlock: UVAHIK_clean_linker_0, # of connection points: 2
#     Edge 24, Type (0, 1), BuildingBlock: UVAHIK_clean_linker_0, # of connection points: 2
#     Edge 25, Type (0, 1), BuildingBlock: UVAHIK_clean_linker_0, # of connection points: 2
#     Edge 26, Type (0, 1), BuildingBlock: UVAHIK_clean_linker_0, # of connection points: 2
#     Edge 27, Type (0, 1), BuildingBlock: UVAHIK_clean_linker_0, # of connection points: 2
#     Edge 28, Type (0, 1), BuildingBlock: UVAHIK_clean_linker_0, # of connection points: 2
#     Edge 29, Type (0, 1), BuildingBlock: UVAHIK_clean_linker_0, # of connection points: 2
#     Edge 30, Type (0, 1), BuildingBlock: UVAHIK_clean_linker_0, # of connection points: 2
#     Edge 31, Type (0, 1), BuildingBlock: UVAHIK_clean_linker_0, # of connection points: 2
#     Edge 32, Type (0, 1), BuildingBlock: UVAHIK_clean_linker_0, # of connection points: 2
#     Edge 33, Type (0, 1), BuildingBlock: UVAHIK_clean_linker_0, # of connection points: 2
#     Edge 34, Type (0, 1), BuildingBlock: UVAHIK_clean_linker_0, # of connection points: 2
#     Edge 35, Type (0, 1), BuildingBlock: UVAHIK_clean_linker_0, # of connection points: 2
# Relax obj value: 0.136
# Max RMSD: 0.140
# Mean RMSD: 0.107
data_MOF--net-dag--node1-MIDCAF_clean_sbu_0--node2-BETDAH_clean_linker_0--edge1-UVAHIK_clean_linker_0
_symmetry_space_group_name_H-M    P1
_symmetry_Int_Tables_number       1
_symmetry_cell_setting            triclinic
loop_
_symmetry_equiv_pos_as_xyz
'x, y, z'
_cell_length_a     51.513209
_cell_length_b     53.828243
_cell_length_c     40.961437
_cell_angle_alpha  92.816976
_cell_angle_beta   90.586292
_cell_angle_gamma 89.956992
loop_
_atom_site_label
_atom_site_type_symbol
_atom_site_fract_x
_atom_site_fract_y
_atom_site_fract_z
_atom_type_partial_charge
Zn0 Zn 0.12775 0.82763 0.11912 0.0
Zn1 Zn 0.10826 0.85197 0.01517 0.0
Zn2 Zn 0.12521 0.83982 0.06263 0.0
C3 C 0.12521 0.89359 0.03918 0.0
C4 C 0.09394 0.80408 0.02035 0.0
O5 O 0.14318 0.80242 0.05666 0.0
O6 O 0.14261 0.79402 0.10905 0.0
C7 C 0.16115 0.86951 0.11199 0.0
O8 O 0.14018 0.8766 0.05001 0.0
O9 O 0.10257 0.8877 0.02938 0.0
O10 O 0.08173 0.82423 0.01673 0.0
O11 O 0.1171 0.80524 0.03255 0.0
O12 O 0.15273 0.85509 0.13297 0.0
O13 O 0.15315 0.86701 0.08223 0.0
O14 O 0.08543 0.84371 0.07773 0.0
O15 O 0.08942 0.83068 0.12749 0.0
C16 C 0.0752 0.8384 0.10475 0.0
O17 O 0.14455 0.81515 0.02557 0.0
O18 O 0.14197 0.84359 0.98907 0.0
C19 C 0.14823 0.78773 0.07986 0.0
C20 C 0.15273 0.82407 0.99879 0.0
Zn21 Zn 0.64356 0.65528 0.44465 0.0
Zn22 Zn 0.65395 0.66072 0.57283 0.0
Zn23 Zn 0.64814 0.65701 0.50939 0.0
C24 C 0.65458 0.60995 0.55426 0.0
C25 C 0.60577 0.68121 0.56 0.0
O26 O 0.67777 0.68199 0.48878 0.0
O27 O 0.6728 0.67716 0.43507 0.0
C28 C 0.65477 0.60717 0.46259 0.0
O29 O 0.65499 0.61884 0.52562 0.0
O30 O 0.65271 0.62439 0.57938 0.0
O31 O 0.62238 0.68035 0.58276 0.0
O32 O 0.61123 0.67215 0.53106 0.0
O33 O 0.64947 0.61914 0.43769 0.0
O34 O 0.65517 0.61805 0.49134 0.0
O35 O 0.60777 0.6678 0.49636 0.0
O36 O 0.60751 0.66783 0.4422 0.0
C37 C 0.59584 0.67099 0.46901 0.0
O38 O 0.68188 0.68164 0.52234 0.0
O39 O 0.68755 0.67836 0.57564 0.0
C40 C 0.68463 0.68691 0.45958 0.0
C41 C 0.69479 0.68669 0.54899 0.0
Zn42 Zn 0.82746 0.1268 0.94284 0.0
Zn43 Zn 0.83095 0.14497 0.05311 0.0
Zn44 Zn 0.83798 0.14167 0.99518 0.0
C45 C 0.88148 0.12563 0.04356 0.0
C46 C 0.79056 0.11567 0.02437 0.0
O47 O 0.82018 0.17288 0.9693 0.0
O48 O 0.79349 0.14611 0.94434 0.0
C49 C 0.86373 0.16628 0.94074 0.0
O50 O 0.87531 0.12939 0.0138 0.0
O51 O 0.86483 0.12916 0.06582 0.0
O52 O 0.79748 0.12525 0.05191 0.0
O53 O 0.80383 0.11972 0.99916 0.0
O54 O 0.85908 0.14546 0.92606 0.0
O55 O 0.85066 0.17252 0.96657 0.0
O56 O 0.86669 0.11322 0.98163 0.0
O57 O 0.83457 0.0923 0.95758 0.0
C58 C 0.85718 0.0925 0.9701 0.0
O59 O 0.83573 0.1825 0.99983 0.0
O60 O 0.83015 0.18227 0.05334 0.0
C61 C 0.79905 0.16848 0.9528 0.0
C62 C 0.83266 0.19424 0.02772 0.0
Zn63 Zn 0.32568 0.36777 0.58547 0.0
Zn64 Zn 0.33456 0.34304 0.47777 0.0
Zn65 Zn 0.33737 0.34998 0.53615 0.0
C66 C 0.38627 0.35771 0.49402 0.0
C67 C 0.2972 0.37952 0.49674 0.0
O68 O 0.31532 0.32223 0.56375 0.0
O69 O 0.29007 0.35141 0.5855 0.0
C70 C 0.35884 0.32634 0.59377 0.0
O71 O 0.37721 0.35771 0.52304 0.0
O72 O 0.37145 0.35325 0.46963 0.0
O73 O 0.30534 0.36754 0.47152 0.0
O74 O 0.30654 0.37488 0.52472 0.0
O75 O 0.35565 0.34822 0.60597 0.0
O76 O 0.34532 0.31957 0.56815 0.0
O77 O 0.36758 0.37644 0.55203 0.0
O78 O 0.33591 0.40101 0.5694 0.0
C79 C 0.35934 0.39827 0.5608 0.0
O80 O 0.33078 0.30972 0.53551 0.0
O81 O 0.32776 0.30648 0.48149 0.0
C82 C 0.29448 0.32847 0.57941 0.0
C83 C 0.32754 0.29641 0.50876 0.0
H84 H 0.13263 0.08675 0.20105 0.0
H85 H 0.18478 0.11909 0.27351 0.0
H86 H 0.12227 0.16288 0.23592 0.0
C87 C 0.13871 0.10279 0.21625 0.0
C88 C 0.12474 0.12514 0.21536 0.0
C89 C 0.16041 0.10065 0.23685 0.0
C90 C 0.1681 0.12092 0.25748 0.0
C91 C 0.15392 0.1433 0.25754 0.0
C92 C 0.13267 0.14538 0.23613 0.0
N93 N 0.16028 0.16407 0.27882 0.0
C94 C 0.17768 0.16341 0.30493 0.0
H95 H 0.39296 0.64505 0.68251 0.0
H96 H 0.37099 0.6947 0.76301 0.0
H97 H 0.35848 0.61574 0.7674 0.0
C98 C 0.38388 0.64811 0.70616 0.0
C99 C 0.37533 0.62761 0.72276 0.0
C100 C 0.38261 0.67228 0.72044 0.0
C101 C 0.37169 0.67613 0.75161 0.0
C102 C 0.36255 0.65564 0.76837 0.0
C103 C 0.36507 0.63147 0.75418 0.0
N104 N 0.35177 0.65847 0.80007 0.0
C105 C 0.33715 0.67885 0.81113 0.0
H106 H 0.79854 0.90529 0.14631 0.0
H107 H 0.8168 0.87938 0.24198 0.0
H108 H 0.75056 0.92613 0.22816 0.0
C109 C 0.79402 0.90391 0.17194 0.0
C110 C 0.77252 0.91692 0.18468 0.0
C111 C 0.81072 0.89078 0.19242 0.0
C112 C 0.80409 0.88899 0.22558 0.0
C113 C 0.78209 0.90145 0.23828 0.0
C114 C 0.76685 0.91574 0.21793 0.0
N115 N 0.77585 0.90163 0.27192 0.0
C116 C 0.78087 0.88203 0.29187 0.0
H117 H 0.60219 0.353 0.63227 0.0
H118 H 0.63777 0.28658 0.66646 0.0
H119 H 0.68545 0.34715 0.63802 0.0
C120 C 0.6195 0.34267 0.63844 0.0
C121 C 0.64407 0.3532 0.63398 0.0
C122 C 0.61704 0.31856 0.64969 0.0
C123 C 0.63945 0.30514 0.65757 0.0
C124 C 0.6641 0.31563 0.65351 0.0
C125 C 0.66631 0.33928 0.64101 0.0
N126 N 0.68698 0.30249 0.66119 0.0
C127 C 0.69171 0.29402 0.69217 0.0
H128 H 0.64294 0.37306 0.36595 0.0
H129 H 0.68953 0.35792 0.28111 0.0
H130 H 0.62522 0.31 0.30109 0.0
C131 C 0.64765 0.3609 0.34496 0.0
C132 C 0.63163 0.3405 0.33659 0.0
C133 C 0.66863 0.36712 0.32543 0.0
C134 C 0.6737 0.35277 0.29661 0.0
C135 C 0.65803 0.33195 0.28797 0.0
C136 C 0.63721 0.32596 0.30806 0.0
N137 N 0.66201 0.31685 0.25901 0.0
C138 C 0.68159 0.31994 0.23641 0.0
H139 H 0.11145 0.12485 0.90234 0.0
H140 H 0.14215 0.18689 0.85232 0.0
H141 H 0.19382 0.13392 0.89419 0.0
C142 C 0.1278 0.13508 0.89332 0.0
C143 C 0.15298 0.12659 0.8996 0.0
C144 C 0.12356 0.15701 0.87673 0.0
C145 C 0.14509 0.1701 0.86543 0.0
C146 C 0.17048 0.16164 0.8716 0.0
C147 C 0.17425 0.14032 0.8894 0.0
N148 N 0.19268 0.17437 0.86088 0.0
C149 C 0.19379 0.18641 0.83166 0.0
H150 H 0.33434 0.60767 0.38289 0.0
H151 H 0.35655 0.64022 0.29319 0.0
H152 H 0.29612 0.58567 0.29218 0.0
C153 C 0.33121 0.61027 0.35708 0.0
C154 C 0.31259 0.59552 0.33987 0.0
C155 C 0.3475 0.62637 0.34057 0.0
C156 C 0.34412 0.6282 0.30662 0.0
C157 C 0.32542 0.61389 0.28934 0.0
C158 C 0.3097 0.59757 0.30594 0.0
N159 N 0.32548 0.61307 0.25478 0.0
C160 C 0.30662 0.62469 0.23652 0.0
H161 H 0.95689 0.85095 0.84065 0.0
H162 H 0.92356 0.80508 0.76176 0.0
H163 H 0.89027 0.87653 0.78837 0.0
C164 C 0.94272 0.84821 0.82105 0.0
C165 C 0.92372 0.86638 0.81681 0.0
C166 C 0.94281 0.82598 0.80144 0.0
C167 C 0.92363 0.82215 0.77691 0.0
C168 C 0.90481 0.84069 0.77199 0.0
C169 C 0.90494 0.86247 0.79214 0.0
N170 N 0.8853 0.83848 0.7473 0.0
C171 C 0.88148 0.81845 0.72508 0.0
C172 C 0.19211 0.88956 0.15269 0.0
C173 C 0.1777 0.89071 0.12346 0.0
C174 C 0.20326 0.91104 0.16742 0.0
C175 C 0.21309 0.97934 0.15682 0.0
H176 H 0.1935 0.98441 0.24803 0.0
C177 C 0.19936 0.07485 0.22256 0.0
C178 C 0.17453 0.07681 0.2362 0.0
C179 C 0.20999 0.05139 0.2146 0.0
C180 C 0.19938 0.98328 0.22268 0.0
H181 H 0.16517 0.91491 0.08608 0.0
H182 H 0.18382 0.95234 0.1115 0.0
H183 H 0.19427 0.94395 0.21925 0.0
H184 H 0.14206 0.05639 0.25442 0.0
H185 H 0.16042 0.0156 0.24091 0.0
H186 H 0.21583 0.01903 0.15965 0.0
C187 C 0.18721 0.93489 0.12292 0.0
C188 C 0.20012 0.95999 0.20617 0.0
C189 C 0.17637 0.91335 0.10812 0.0
C190 C 0.16133 0.05521 0.24409 0.0
C191 C 0.17197 0.03187 0.23645 0.0
C192 C 0.21214 0.00269 0.1733 0.0
C193 C 0.19989 0.93421 0.15347 0.0
C194 C 0.20574 0.95784 0.17259 0.0
C195 C 0.19596 0.02964 0.22045 0.0
C196 C 0.20398 0.005 0.20597 0.0
H197 H 0.19374 0.87225 0.16499 0.0
H198 H 0.21339 0.90968 0.19055 0.0
H199 H 0.2181 0.97833 0.13118 0.0
H200 H 0.20973 0.09137 0.21606 0.0
H201 H 0.22858 0.05027 0.20251 0.0
C202 C 0.5768 0.70773 0.59584 0.0
C203 C 0.57978 0.69143 0.56824 0.0
C204 C 0.55211 0.71445 0.60703 0.0
C205 C 0.48434 0.69059 0.60153 0.0
H206 H 0.47155 0.74761 0.66082 0.0
C207 C 0.41898 0.70237 0.71702 0.0
C208 C 0.396 0.69214 0.70343 0.0
C209 C 0.43779 0.71207 0.69674 0.0
C210 C 0.47478 0.7318 0.64397 0.0
H211 H 0.55917 0.66942 0.53135 0.0
H212 H 0.5162 0.68322 0.54785 0.0
H213 H 0.51168 0.74542 0.6294 0.0
H214 H 0.37295 0.6872 0.65912 0.0
H215 H 0.40571 0.70417 0.62377 0.0
H216 H 0.44749 0.67706 0.61607 0.0
C217 C 0.5328 0.69031 0.56176 0.0
C218 C 0.49789 0.73032 0.62617 0.0
C219 C 0.55753 0.68299 0.5513 0.0
C220 C 0.39055 0.69497 0.67013 0.0
C221 C 0.40935 0.70451 0.64989 0.0
C222 C 0.4611 0.69239 0.61862 0.0
C223 C 0.52964 0.70539 0.59059 0.0
C224 C 0.50341 0.70926 0.60547 0.0
C225 C 0.43379 0.71155 0.6627 0.0
C226 C 0.45636 0.71264 0.64066 0.0
H227 H 0.5936 0.71448 0.60971 0.0
H228 H 0.55085 0.7257 0.62958 0.0
H229 H 0.48775 0.67376 0.58668 0.0
H230 H 0.42371 0.70019 0.74256 0.0
H231 H 0.4565 0.71735 0.70723 0.0
C232 C 0.77806 0.07218 0.01024 0.0
C233 C 0.77112 0.0957 0.02346 0.0
C234 C 0.7646 0.05108 0.01904 0.0
C235 C 0.7249 0.03359 0.09011 0.0
H236 H 0.74521 0.96843 0.05522 0.0
C237 C 0.74873 0.92706 0.13314 0.0
C238 C 0.7584 0.9345 0.16426 0.0
C239 C 0.73854 0.94467 0.11244 0.0
C240 C 0.73867 0.98628 0.06531 0.0
H241 H 0.74263 0.11633 0.0521 0.0
H242 H 0.71725 0.07994 0.0646 0.0
H243 H 0.74502 0.00306 0.02002 0.0
H244 H 0.76458 0.96587 0.1985 0.0
H245 H 0.74833 -0.00345 0.16243 0.0
H246 H 0.717 0.01649 0.13478 0.0
C247 C 0.73427 0.07721 0.0496 0.0
C248 C 0.73914 0.00648 0.04511 0.0
C249 C 0.74847 0.09824 0.04195 0.0
C250 C 0.75688 0.9596 0.17479 0.0
C251 C 0.74729 0.97722 0.15398 0.0
C252 C 0.72342 0.01326 0.10984 0.0
C253 C 0.74336 0.05311 0.04054 0.0
C254 C 0.73433 0.03082 0.05793 0.0
C255 C 0.73844 0.97016 0.12218 0.0
C256 C 0.73228 0.9897 0.09856 0.0
H257 H 0.7956 0.06977 0.99608 0.0
H258 H 0.77264 0.03324 0.01123 0.0
H259 H 0.72054 0.05165 0.10142 0.0
H260 H 0.74959 0.90771 0.1246 0.0
H261 H 0.73146 0.93832 0.0885 0.0
C262 C 0.39144 0.2919 0.58658 0.0
C263 C 0.37994 0.31075 0.6065 0.0
C264 C 0.41565 0.28206 0.59516 0.0
C265 C 0.47422 0.28435 0.60341 0.0
H266 H 0.50077 0.28533 0.69241 0.0
C267 C 0.58419 0.28624 0.63221 0.0
C268 C 0.59088 0.30748 0.65176 0.0
C269 C 0.5583 0.27836 0.62977 0.0
C270 C 0.4936 0.28471 0.66743 0.0
H271 H 0.38343 0.33224 0.6525 0.0
H272 H 0.42528 0.31556 0.66718 0.0
H273 H 0.45396 0.28425 0.68242 0.0
H274 H 0.57636 0.33631 0.68545 0.0
H275 H 0.53126 0.32221 0.68195 0.0
H276 H 0.51394 0.28542 0.58859 0.0
C277 C 0.41592 0.30807 0.64506 0.0
C278 C 0.46679 0.28421 0.66165 0.0
C279 C 0.39185 0.31783 0.63652 0.0
C280 C 0.57162 0.31982 0.67033 0.0
C281 C 0.54589 0.31168 0.6684 0.0
C282 C 0.50103 0.28447 0.6092 0.0
C283 C 0.42873 0.29088 0.62383 0.0
C284 C 0.45672 0.28519 0.62963 0.0
C285 C 0.53883 0.29131 0.64738 0.0
C286 C 0.51095 0.2857 0.6413 0.0
H287 H 0.38271 0.28606 0.56328 0.0
H288 H 0.42469 0.26848 0.57853 0.0
H289 H 0.46734 0.28539 0.57845 0.0
H290 H 0.59873 0.27658 0.61747 0.0
H291 H 0.55336 0.26261 0.61341 0.0
C292 C 0.68753 0.57423 0.45162 0.0
C293 C 0.66159 0.58088 0.4574 0.0
C294 C 0.69367 0.55045 0.43866 0.0
C295 C 0.66372 0.50171 0.38557 0.0
H296 H 0.72258 0.46121 0.40937 0.0
C297 C 0.6919 0.39435 0.36687 0.0
C298 C 0.68286 0.39032 0.33457 0.0
C299 C 0.69654 0.41845 0.37971 0.0
C300 C 0.70616 0.47241 0.40233 0.0
H301 H 0.6218 0.5682 0.45544 0.0
H302 H 0.63242 0.52638 0.43332 0.0
H303 H 0.714 0.50046 0.44021 0.0
H304 H 0.67451 0.40781 0.28921 0.0
H305 H 0.68329 0.45005 0.31134 0.0
H306 H 0.65522 0.47359 0.34852 0.0
C307 C 0.64805 0.53947 0.43856 0.0
C308 C 0.70128 0.49487 0.41996 0.0
C309 C 0.64195 0.56322 0.45155 0.0
C310 C 0.68154 0.41045 0.31416 0.0
C311 C 0.68621 0.43463 0.32701 0.0
C312 C 0.66862 0.47941 0.36796 0.0
C313 C 0.67387 0.53314 0.43085 0.0
C314 C 0.6797 0.50951 0.41211 0.0
C315 C 0.69221 0.43896 0.36044 0.0
C316 C 0.68967 0.46428 0.37636 0.0
H317 H 0.70286 0.58786 0.45544 0.0
H318 H 0.7137 0.54619 0.43285 0.0
H319 H 0.64726 0.51282 0.37845 0.0
H320 H 0.69304 0.37904 0.38305 0.0
H321 H 0.70112 0.42103 0.40552 0.0
C322 C 0.90545 0.18798 0.95284 0.0
C323 C 0.88587 0.18105 0.93019 0.0
C324 C 0.9302 0.19425 0.94205 0.0
C325 C 0.97051 0.18038 0.8688 0.0
H326 H 0.02337 0.2134 0.92302 0.0
C327 C 0.07643 0.14947 0.86453 0.0
C328 C 0.09656 0.16629 0.87274 0.0
C329 C 0.05055 0.15705 0.86588 0.0
C330 C 0.00887 0.20449 0.90713 0.0
H331 H 0.87559 0.17783 0.87886 0.0
H332 H 0.91796 0.19074 0.85992 0.0
H333 H 0.9778 0.21945 0.93631 0.0
H334 H 0.10533 0.2047 0.88696 0.0
H335 H 0.05996 0.21822 0.88842 0.0
H336 H 0.00145 0.16576 0.83935 0.0
C337 C 0.91494 0.19006 0.88597 0.0
C338 C 0.98263 0.20766 0.91507 0.0
C339 C 0.89048 0.18307 0.89676 0.0
C340 C 0.09025 0.1913 0.8804 0.0
C341 C 0.06423 0.19897 0.88164 0.0
C342 C 0.99662 0.17756 0.8606 0.0
C343 C 0.93564 0.19421 0.90835 0.0
C344 C 0.96309 0.19489 0.89673 0.0
C345 C 0.04401 0.18177 0.87516 0.0
C346 C 0.01623 0.18871 0.88039 0.0
H347 H 0.90243 0.18617 0.97876 0.0
H348 H 0.94545 0.19711 0.96021 0.0
H349 H 0.95636 0.16994 0.85406 0.0
H350 H 0.08065 0.13013 0.85812 0.0
H351 H 0.03567 0.14311 0.86111 0.0
C352 C 0.29112 0.42488 0.50719 0.0
C353 C 0.28225 0.40248 0.49211 0.0
C354 C 0.28395 0.44763 0.49476 0.0
C355 C 0.26137 0.47057 0.41481 0.0
H356 H 0.27775 0.53386 0.45918 0.0
C357 C 0.30132 0.5508 0.34436 0.0
C358 C 0.29913 0.57548 0.35662 0.0
C359 C 0.29162 0.53131 0.36188 0.0
C360 C 0.27253 0.51653 0.44627 0.0
H361 H 0.2564 0.38622 0.45506 0.0
H362 H 0.24173 0.42587 0.43534 0.0
H363 H 0.27092 0.49772 0.4909 0.0
H364 H 0.28415 0.59934 0.3961 0.0
H365 H 0.26589 0.5654 0.42612 0.0
H366 H 0.26165 0.48959 0.37037 0.0
C367 C 0.25566 0.4261 0.45531 0.0
C368 C 0.26908 0.49551 0.46458 0.0
C369 C 0.26361 0.40329 0.467 0.0
C370 C 0.28611 0.58041 0.38618 0.0
C371 C 0.27587 0.5609 0.40348 0.0
C372 C 0.26403 0.49169 0.39665 0.0
C373 C 0.2671 0.44855 0.46745 0.0
C374 C 0.26475 0.4719 0.44904 0.0
C375 C 0.27897 0.53597 0.39192 0.0
C376 C 0.27099 0.51474 0.41189 0.0
H377 H 0.30577 0.4248 0.52633 0.0
H378 H 0.29349 0.46416 0.505 0.0
H379 H 0.25816 0.453 0.40143 0.0
H380 H 0.31169 0.54644 0.32192 0.0
H381 H 0.29517 0.51253 0.35235 0.0
C382 C 0.05647 0.77826 1.00283 0.0
C383 C 0.08343 0.78167 1.00296 0.0
C384 C 0.04417 0.76542 0.97668 0.0
C385 C 0.05706 0.75914 0.88896 0.0
H386 H 0.983 0.747 0.88966 0.0
C387 C 0.98848 0.81396 0.81362 0.0
C388 C 0.96253 0.80679 0.80847 0.0
C389 C 0.00602 0.7982 0.82843 0.0
C390 C 0.00376 0.74974 0.88836 0.0
H391 H 0.11918 0.77113 0.97874 0.0
H392 H 0.09782 0.74776 0.93333 0.0
H393 H 0.00926 0.73723 0.93666 0.0
H394 H 0.93521 0.77648 0.81149 0.0
H395 H 0.96613 0.74841 0.83665 0.0
H396 H 0.0516 0.77144 0.84057 0.0
C397 C 0.08596 0.75576 0.95282 0.0
C398 C 0.01887 0.74446 0.91575 0.0
C399 C 0.09831 0.76877 0.97914 0.0
C400 C 0.95511 0.7825 0.81531 0.0
C401 C 0.97279 0.76655 0.83008 0.0
C402 C 0.04208 0.76375 0.86125 0.0
C403 C 0.05862 0.75567 0.94997 0.0
C404 C 0.04529 0.7512 0.91754 0.0
C405 C -0.00185 0.77469 0.83833 0.0
C406 C 0.0149 0.76118 0.86168 0.0
H407 H 0.04462 0.78801 0.02105 0.0
H408 H 0.02318 0.7659 0.97593 0.0
H409 H 0.07736 0.76427 0.88879 0.0
H410 H 0.99477 0.83251 0.80824 0.0
H411 H 0.02514 0.80549 0.83444 0.0
C412 C 0.89881 0.06848 0.96305 0.0
C413 C 0.87202 0.06902 0.96904 0.0
C414 C 0.91118 0.0458 0.95477 0.0
C415 C 0.90089 0.97681 0.95058 0.0
H416 H 0.93849 0.97837 0.86918 0.0
C417 C 0.89956 0.89622 0.85411 0.0
C418 C 0.92289 0.88902 0.83897 0.0
C419 C 0.89863 0.91731 0.8753 0.0
C420 C 0.92844 0.97763 0.89221 0.0
H421 H 0.83766 0.04639 0.97403 0.0
H422 H 0.85891 0.00728 0.96002 0.0
H423 H 0.92857 0.01729 0.89972 0.0
H424 H 0.96355 0.89824 0.83398 0.0
H425 H 0.96177 0.93568 0.87065 0.0
H426 H 0.89935 0.93727 0.94193 0.0
C427 C 0.87061 0.02401 0.96149 0.0
C428 C 0.92287 -8e-05 0.90983 0.0
C429 C 0.85832 0.04652 0.96932 0.0
C430 C 0.94532 0.90337 0.84543 0.0
C431 C 0.9443 0.92477 0.86628 0.0
C432 C 0.90622 0.95462 0.93282 0.0
C433 C 0.89696 0.02338 0.95295 0.0
C434 C 0.90814 -0.00017 0.93858 0.0
C435 C 0.92095 0.93187 0.88153 0.0
C436 C 0.91924 0.95488 0.90289 0.0
H437 H 0.90978 0.08562 0.96266 0.0
H438 H 0.93157 0.04589 0.94863 0.0
H439 H 0.88998 0.97603 0.97298 0.0
H440 H 0.88204 0.88537 0.84978 0.0
H441 H 0.88028 0.92252 0.88638 0.0
C442 C 0.4224 0.37627 0.46403 0.0
C443 C 0.41418 0.36051 0.48809 0.0
C444 C 0.44758 0.37446 0.45187 0.0
C445 C 0.49134 0.35421 0.41127 0.0
H446 H 0.55132 0.33022 0.45799 0.0
C447 C 0.58436 0.32926 0.34128 0.0
C448 C 0.60805 0.33615 0.35644 0.0
C449 C 0.5614 0.32937 0.35926 0.0
C450 C 0.53488 0.33717 0.44453 0.0
H451 H 0.42582 0.33125 0.51948 0.0
H452 H 0.46951 0.32714 0.49733 0.0
H453 H 0.51163 0.33993 0.48757 0.0
H454 H 0.62636 0.34627 0.40319 0.0
H455 H 0.58644 0.34804 0.43387 0.0
H456 H 0.51478 0.35294 0.36871 0.0
C457 C 0.457 0.34152 0.4884 0.0
C458 C 0.5119 0.34246 0.46152 0.0
C459 C 0.43195 0.34386 0.50123 0.0
C460 C 0.60839 0.34154 0.39043 0.0
C461 C 0.58539 0.34217 0.40824 0.0
C462 C 0.51437 0.3494 0.39448 0.0
C463 C 0.46482 0.35616 0.46261 0.0
C464 C 0.48977 0.35113 0.44514 0.0
C465 C 0.56141 0.33683 0.39274 0.0
C466 C 0.53652 0.34076 0.41076 0.0
H467 H 0.40894 0.38925 0.45358 0.0
H468 H 0.45309 0.38678 0.43302 0.0
H469 H 0.47466 0.36016 0.39739 0.0
H470 H 0.58322 0.32498 0.31521 0.0
H471 H 0.5435 0.32431 0.34655 0.0
C472 C 0.15971 0.92252 0.0214 0.0
C473 C 0.13472 0.91889 0.03371 0.0
C474 C 0.16717 0.94592 0.01129 0.0
C475 C 0.16523 0.99006 0.96667 0.0
H476 H 0.14859 0.05254 0.01305 0.0
C477 C 0.14491 0.08115 0.90328 0.0
C478 C 0.15672 0.10302 0.91621 0.0
C479 C 0.14717 0.05901 0.91946 0.0
C480 C 0.15365 0.03525 1.0 0.0
H481 H 0.09829 0.93686 0.04623 0.0
H482 H 0.11144 0.97782 0.02912 0.0
H483 H 0.14383 0.01336 0.0405 0.0
H484 H 0.18025 0.11904 0.95595 0.0
H485 H 0.18361 0.0802 0.98499 0.0
H486 H 0.17385 0.01182 0.92568 0.0
C487 C 0.12531 0.96268 0.02738 0.0
C488 C 0.1508 0.01287 0.01561 0.0
C489 C 0.11773 0.93925 0.03702 0.0
C490 C 0.17108 0.10234 0.94549 0.0
C491 C 0.1729 0.08023 0.96209 0.0
C492 C 0.16768 0.01238 0.95092 0.0
C493 C 0.14985 0.96612 0.01362 0.0
C494 C 0.15612 0.99002 0.99889 0.0
C495 C 0.1609 0.05838 0.94922 0.0
C496 C 0.16146 0.03514 0.96722 0.0
H497 H 0.17305 0.90703 0.01829 0.0
H498 H 0.18622 0.94808 1.00084 0.0
H499 H 0.16925 0.97274 0.95308 0.0
H500 H 0.13379 0.08124 0.88069 0.0
H501 H 0.13751 0.04251 0.90917 0.0
C502 C 0.55177 0.65313 0.47099 0.0
C503 C 0.56754 0.67403 0.46756 0.0
C504 C 0.52522 0.6542 0.46409 0.0
C505 C 0.48074 0.68566 0.41014 0.0
H506 H 0.42899 0.6472 0.45371 0.0
C507 C 0.39407 0.64018 0.34251 0.0
C508 C 0.36987 0.6389 0.35795 0.0
C509 C 0.41569 0.65009 0.35927 0.0
C510 C 0.44303 0.6584 0.44152 0.0
H511 H 0.56841 0.71229 0.4539 0.0
H512 H 0.52169 0.71434 0.44173 0.0
H513 H 0.47127 0.65487 0.47981 0.0
H514 H 0.34945 0.64781 0.4031 0.0
H515 H 0.38755 0.66476 0.43264 0.0
H516 H 0.45281 0.6886 0.37146 0.0
C517 C 0.52977 0.69722 0.45027 0.0
C518 C 0.46734 0.6626 0.45635 0.0
C519 C 0.55639 0.69615 0.4574 0.0
C520 C 0.36783 0.64825 0.39054 0.0
C521 C 0.38961 0.65801 0.40745 0.0
C522 C 0.45649 0.68141 0.39531 0.0
C523 C 0.51398 0.67606 0.45285 0.0
C524 C 0.48676 0.67559 0.44033 0.0
C525 C 0.41385 0.65883 0.39204 0.0
C526 C 0.43768 0.66702 0.41032 0.0
H527 H 0.5602 0.63569 0.47797 0.0
H528 H 0.51381 0.63742 0.46572 0.0
H529 H 0.49525 0.69561 0.397 0.0
H530 H 0.39668 0.63262 0.31778 0.0
H531 H 0.43417 0.64993 0.34687 0.0
C532 C 0.39557 0.41893 0.59165 0.0
C533 C 0.37674 0.41958 0.56671 0.0
C534 C 0.40477 0.44116 0.6068 0.0
C535 C 0.40405 0.51005 0.60342 0.0
H536 H 0.38615 0.5091 0.69512 0.0
C537 C 0.37045 0.59807 0.67421 0.0
C538 C 0.37816 0.60238 0.70698 0.0
C539 C 0.3757 0.5754 0.65769 0.0
C540 C 0.39178 0.50971 0.66977 0.0
H541 H 0.35459 0.44338 0.5358 0.0
H542 H 0.37131 0.48206 0.56116 0.0
H543 H 0.38984 0.47008 0.66273 0.0
H544 H 0.3969 0.58616 0.74843 0.0
H545 H 0.4062 0.54627 0.71946 0.0
H546 H 0.40529 0.54967 0.61015 0.0
C547 C 0.37894 0.46464 0.56933 0.0
C548 C 0.39399 0.48731 0.65121 0.0
C549 C 0.36942 0.44251 0.55468 0.0
C550 C 0.39053 0.58321 0.72325 0.0
C551 C 0.39594 0.56045 0.70661 0.0
C552 C 0.40203 0.53242 0.62201 0.0
C553 C 0.39554 0.46421 0.59675 0.0
C554 C 0.39926 0.4873 0.61758 0.0
C555 C 0.38896 0.55645 0.67343 0.0
C556 C 0.39489 0.53257 0.65511 0.0
H557 H 0.40108 0.40141 0.60168 0.0
H558 H 0.41769 0.44031 0.62775 0.0
H559 H 0.40838 0.51059 0.57763 0.0
H560 H 0.36061 0.61244 0.6612 0.0
H561 H 0.36931 0.57274 0.63249 0.0
C562 C 0.03145 0.85632 0.0913 0.0
C563 C 0.0469 0.84076 0.11 0.0
C564 C 0.00498 0.85935 0.09808 0.0
C565 C 0.95768 0.85061 0.16491 0.0
H566 H 0.90677 0.86307 0.09734 0.0
C567 C 0.84772 0.85979 0.19133 0.0
C568 C 0.83626 0.8815 0.17989 0.0
C569 C 0.87252 0.85237 0.18101 0.0
C570 C 0.92082 0.85957 0.11643 0.0
H571 H 0.04648 0.81513 0.14923 0.0
H572 H 0.0005 0.81956 0.16012 0.0
H573 H 0.95182 0.8547 0.08231 0.0
H574 H 0.84244 0.91249 0.14868 0.0
H575 H 0.88491 0.89901 0.13002 0.0
H576 H 0.92654 0.85526 0.19892 0.0
C577 C 0.00878 0.83029 0.14112 0.0
C578 C 0.94668 0.85495 0.10788 0.0
C579 C 0.0352 0.82761 0.13473 0.0
C580 C 0.85009 0.89526 0.15739 0.0
C581 C 0.8746 0.88765 0.14674 0.0
C582 C 0.9318 0.85487 0.17336 0.0
C583 C 0.99335 0.84656 0.12337 0.0
C584 C 0.96554 0.85064 0.13205 0.0
C585 C 0.88623 0.86632 0.15872 0.0
C586 C 0.91316 0.85966 0.14927 0.0
H587 H 0.03996 0.8667 0.07209 0.0
H588 H 0.99384 0.87224 0.08406 0.0
H589 H 0.97164 0.84793 0.18436 0.0
H590 H 0.83762 0.84856 0.20837 0.0
H591 H 0.88103 0.83576 0.19051 0.0
C592 C 0.63958 0.57347 0.58357 0.0
C593 C 0.6545 0.58288 0.55853 0.0
C594 C 0.63987 0.54819 0.5893 0.0
C595 C 0.65623 0.48587 0.55358 0.0
H596 H 0.6557 0.46929 0.64469 0.0
C597 C 0.66428 0.38481 0.59873 0.0
C598 C 0.6464 0.37895 0.62291 0.0
C599 C 0.66664 0.40928 0.58895 0.0
C600 C 0.6557 0.47361 0.61913 0.0
H601 H 0.6818 0.57338 0.52022 0.0
H602 H 0.68227 0.52872 0.52994 0.0
H603 H 0.65777 0.51263 0.63083 0.0
H604 H 0.61707 0.3941 0.65584 0.0
H605 H 0.62119 0.43667 0.63888 0.0
H606 H 0.65427 0.44654 0.54215 0.0
C607 C 0.66996 0.54094 0.54479 0.0
C608 C 0.65683 0.49846 0.61115 0.0
C609 C 0.66957 0.56642 0.539 0.0
C610 C 0.63087 0.39799 0.63698 0.0
C611 C 0.6334 0.4224 0.62747 0.0
C612 C 0.65526 0.46087 0.56163 0.0
C613 C 0.65538 0.53163 0.5704 0.0
C614 C 0.6565 0.50496 0.57831 0.0
C615 C 0.6514 0.42835 0.60352 0.0
C616 C 0.65444 0.45456 0.59452 0.0
H617 H 0.62757 0.58572 0.59882 0.0
H618 H 0.6279 0.54162 0.60868 0.0
H619 H 0.65588 0.49026 0.52805 0.0
H620 H 0.67636 0.37046 0.58728 0.0
H621 H 0.68073 0.41336 0.57052 0.0
C622 C 0.92947 0.13053 0.03832 0.0
C623 C 0.90828 0.11928 0.053 0.0
C624 C 0.95429 0.12933 0.05251 0.0
C625 C 0.98379 0.11969 0.13402 0.0
H626 H 0.04864 0.12386 0.08757 0.0
C627 C 0.10088 0.11418 0.16261 0.0
C628 C 0.10148 0.12676 0.19357 0.0
C629 C 0.07824 0.11359 0.14347 0.0
C630 C 0.03074 0.12246 0.10097 0.0
H631 H 0.89662 0.09596 0.09183 0.0
H632 H 0.93994 0.09251 0.11537 0.0
H633 H 0.00807 0.1187 0.05686 0.0
H634 H 0.07878 0.14954 0.22788 0.0
H635 H 0.03986 0.14962 0.19391 0.0
H636 H 0.0063 0.1224 0.17803 0.0
C637 C 0.93744 0.10336 0.09399 0.0
C638 C 0.00739 0.11978 0.0833 0.0
C639 C 0.91263 0.10504 0.08029 0.0
C640 C 0.07918 0.13975 0.20416 0.0
C641 C 0.05664 0.13944 0.18483 0.0
C642 C 0.00707 0.12205 0.15161 0.0
C643 C 0.95838 0.11648 0.0813 0.0
C644 C 0.98357 0.11837 0.09961 0.0
C645 C 0.05565 0.12586 0.15455 0.0
C646 C 0.03088 0.12362 0.1354 0.0
H647 H 0.92655 0.14178 0.01737 0.0
H648 H 0.96984 0.13973 0.04201 0.0
H649 H 0.9659 0.11927 0.14762 0.0
H650 H 0.11783 0.1044 0.15326 0.0
H651 H 0.07829 0.10282 0.12045 0.0
C652 C 0.18869 0.76395 0.07028 0.0
C653 C 0.1617 0.76393 0.0742 0.0
C654 C 0.20343 0.74337 0.07886 0.0
C655 C 0.19793 0.69574 0.13927 0.0
H656 H 0.26649 0.67657 0.10922 0.0
C657 C 0.2633 0.62988 0.21134 0.0
C658 C 0.28931 0.63716 0.21482 0.0
C659 C 0.24691 0.6417 0.18946 0.0
C660 C 0.24738 0.6818 0.11795 0.0
H661 H 0.12854 0.7419 0.08678 0.0
H662 H 0.154 0.70546 0.10017 0.0
H663 H 0.23896 0.70221 0.07545 0.0
H664 H 0.31899 0.66195 0.19857 0.0
H665 H 0.29037 0.68298 0.1607 0.0
H666 H 0.20655 0.67606 0.18214 0.0
C667 C 0.16401 0.72149 0.09144 0.0
C668 C 0.23159 0.69643 0.09855 0.0
C669 C 0.14936 0.74216 0.08325 0.0
C670 C 0.29887 0.65618 0.19619 0.0
C671 C 0.28256 0.66799 0.17431 0.0
C672 C 0.21367 0.68112 0.15858 0.0
C673 C 0.1913 0.72247 0.09144 0.0
C674 C 0.20683 0.70397 0.10925 0.0
C675 C 0.25635 0.66093 0.17069 0.0
C676 C 0.23878 0.67438 0.1485 0.0
H677 H 0.1986 0.78078 0.06395 0.0
H678 H 0.22439 0.74486 0.07857 0.0
H679 H 0.17926 0.7016 0.14878 0.0
H680 H 0.2557 0.61503 0.22541 0.0
H681 H 0.2269 0.63568 0.18708 0.0
C682 C 0.71752 0.72643 0.56217 0.0
C683 C 0.71845 0.70185 0.54934 0.0
C684 C 0.74038 0.73885 0.57176 0.0
C685 C 0.80357 0.72342 0.60585 0.0
H686 H 0.81454 0.79461 0.60513 0.0
C687 C 0.85817 0.77999 0.70799 0.0
C688 C 0.87233 0.80094 0.69978 0.0
C689 C 0.84455 0.76595 0.6838 0.0
C690 C 0.8121 0.77463 0.60518 0.0
H691 H 0.74359 0.67118 0.53484 0.0
H692 H 0.7838 0.69292 0.55143 0.0
H693 H 0.78107 0.77516 0.56996 0.0
H694 H 0.8844 0.82339 0.66032 0.0
H695 H 0.86088 0.7987 0.61778 0.0
H696 H 0.83408 0.723 0.64177 0.0
C697 C 0.76548 0.70265 0.55409 0.0
C698 C 0.79275 0.76353 0.5852 0.0
C699 C 0.74258 0.69032 0.54426 0.0
C700 C 0.87376 0.80707 0.66701 0.0
C701 C 0.86011 0.7931 0.64279 0.0
C702 C 0.82285 0.73454 0.62593 0.0
C703 C 0.76453 0.72671 0.56914 0.0
C704 C 0.78781 0.73789 0.58591 0.0
C705 C 0.84471 0.7728 0.65104 0.0
C706 C 0.82691 0.76037 0.62645 0.0
H707 H 0.69901 0.73543 0.5668 0.0
H708 H 0.73888 0.75725 0.58352 0.0
H709 H 0.80012 0.70366 0.60727 0.0
H710 H 0.85652 0.77525 0.7333 0.0
H711 H 0.83266 0.75063 0.6911 0.0
C712 C 0.8415 0.23583 0.05324 0.0
C713 C 0.82685 0.22096 0.03084 0.0
C714 C 0.83036 0.25667 0.0693 0.0
C715 C 0.76877 0.29376 0.07867 0.0
H716 H 0.78221 0.28475 0.17064 0.0
C717 C 0.69229 0.31208 0.17857 0.0
C718 C 0.70034 0.31922 0.21041 0.0
C719 C 0.71055 0.30772 0.15391 0.0
C720 C 0.7785 0.2881 0.14517 0.0
H721 H 0.79001 0.21737 0.00536 0.0
H722 H 0.7704 0.25354 0.03326 0.0
H723 H 0.81023 0.26499 0.13014 0.0
H724 H 0.73332 0.32851 0.24167 0.0
H725 H 0.76549 0.32132 0.19846 0.0
H726 H 0.73616 0.31602 0.09407 0.0
C727 C 0.79063 0.24959 0.03824 0.0
C728 C 0.79471 0.27674 0.12174 0.0
C729 C 0.80195 0.22891 0.02187 0.0
C730 C 0.72678 0.32304 0.21714 0.0
C731 C 0.74512 0.31875 0.19244 0.0
C732 C 0.7525 0.30518 0.10221 0.0
C733 C 0.80413 0.26267 0.06376 0.0
C734 C 0.78969 0.27881 0.08812 0.0
C735 C 0.73728 0.31039 0.16068 0.0
C736 C 0.75673 0.30188 0.13575 0.0
H737 H 0.86063 0.22986 0.06086 0.0
H738 H 0.84158 0.26673 0.08814 0.0
H739 H 0.76448 0.29602 0.05305 0.0
H740 H 0.67191 0.30885 0.17304 0.0
H741 H 0.70373 0.30097 0.13001 0.0
C742 C 0.28824 0.28537 0.59877 0.0
C743 C 0.27894 0.30973 0.596 0.0
C744 C 0.27598 0.26907 0.6193 0.0
C745 C 0.21673 0.26067 0.66988 0.0
H746 H 0.2643 0.22413 0.72361 0.0
C747 C 0.18864 0.22069 0.79395 0.0
C748 C 0.19913 0.19754 0.8011 0.0
C749 C 0.19606 0.23227 0.76557 0.0
C750 C 0.25067 0.2339 0.70854 0.0
H751 H 0.24862 0.33561 0.61133 0.0
H752 H 0.22765 0.30752 0.64749 0.0
H753 H 0.28106 0.24738 0.67906 0.0
H754 H 0.22488 0.16788 0.78457 0.0
H755 H 0.23778 0.18791 0.73491 0.0
H756 H 0.18644 0.24769 0.70031 0.0
C757 C 0.24416 0.30075 0.63354 0.0
C758 C 0.26029 0.2472 0.68283 0.0
C759 C 0.25632 0.31697 0.61288 0.0
C760 C 0.21656 0.18578 0.77935 0.0
C761 C 0.22405 0.19732 0.75111 0.0
C762 C 0.20712 0.24745 0.69578 0.0
C763 C 0.25426 0.27683 0.63777 0.0
C764 C 0.24351 0.26097 0.6633 0.0
C765 C 0.21422 0.22089 0.74412 0.0
C766 C 0.22402 0.23406 0.71557 0.0
H767 H 0.3057 0.27921 0.58629 0.0
H768 H 0.28401 0.25062 0.62143 0.0
H769 H 0.20317 0.27077 0.65512 0.0
H770 H 0.17526 0.23008 0.81066 0.0
H771 H 0.18832 0.25051 0.76107 0.0
C772 C 0.70684 0.72805 0.46855 0.0
C773 C 0.70609 0.70405 0.45359 0.0
C774 C 0.72295 0.74625 0.45607 0.0
C775 C 0.75001 0.75922 0.37602 0.0
H776 H 0.77942 0.81752 0.42167 0.0
C777 C 0.79067 0.83853 0.3037 0.0
C778 C 0.78196 0.86219 0.31416 0.0
C779 C 0.78804 0.81853 0.32399 0.0
C780 C 0.7713 0.80131 0.4086 0.0
H781 H 0.72342 0.67925 0.41677 0.0
H782 H 0.75233 0.71043 0.3961 0.0
H783 H 0.76332 0.7832 0.45295 0.0
H784 H 0.76464 0.88419 0.3538 0.0
H785 H 0.75965 0.84931 0.3892 0.0
H786 H 0.75701 0.7774 0.33186 0.0
C787 C 0.73984 0.71571 0.4164 0.0
C788 C 0.76207 0.78168 0.42652 0.0
C789 C 0.72347 0.69778 0.4284 0.0
C790 C 0.77164 0.86599 0.34551 0.0
C791 C 0.76894 0.84604 0.36578 0.0
C792 C 0.75921 0.77872 0.35821 0.0
C793 C 0.73869 0.7405 0.42876 0.0
C794 C 0.75101 0.76051 0.41041 0.0
C795 C 0.77645 0.82192 0.35493 0.0
C796 C 0.76963 0.80018 0.37421 0.0
H797 H 0.6935 0.73326 0.48799 0.0
H798 H 0.72158 0.76515 0.46625 0.0
H799 H 0.74102 0.74357 0.36269 0.0
H800 H 0.79863 0.83533 0.27947 0.0
H801 H 0.79435 0.80026 0.31506 0.0
C802 C 0.79551 0.21176 0.93304 0.0
C803 C 0.78405 0.18861 0.93809 0.0
C804 C 0.78333 0.22855 0.91275 0.0
C805 C 0.72165 0.24087 0.86719 0.0
H806 H 0.76823 0.26469 0.80191 0.0
C807 C 0.68732 0.26649 0.73829 0.0
C808 C 0.69943 0.28654 0.72415 0.0
C809 C 0.69611 0.25847 0.76849 0.0
C810 C 0.75494 0.2586 0.82021 0.0
H811 H 0.74998 0.16575 0.92816 0.0
H812 H 0.72894 0.19473 0.89286 0.0
H813 H 0.78598 0.24499 0.84939 0.0
H814 H 0.7295 0.31444 0.73002 0.0
H815 H 0.74487 0.30063 0.7829 0.0
H816 H 0.69055 0.25373 0.83722 0.0
C817 C 0.7472 0.20014 0.90446 0.0
C818 C 0.76515 0.24735 0.84757 0.0
C819 C 0.75936 0.18341 0.92459 0.0
C820 C 0.71999 0.29886 0.74065 0.0
C821 C 0.72882 0.29087 0.77077 0.0
C822 C 0.71142 0.25207 0.83975 0.0
C823 C 0.75945 0.22252 0.89728 0.0
C824 C 0.74863 0.23786 0.87107 0.0
C825 C 0.7172 0.27038 0.78489 0.0
C826 C 0.72794 0.26061 0.8156 0.0
H827 H 0.81454 0.21629 0.94313 0.0
H828 H 0.79309 0.24583 0.90815 0.0
H829 H 0.70837 0.2341 0.88506 0.0
H830 H 0.67144 0.25674 0.72574 0.0
H831 H 0.68694 0.24246 0.77846 0.0
C832 C 0.33376 0.25225 0.4915 0.0
C833 C 0.31902 0.27042 0.50856 0.0
C834 C 0.32193 0.23058 0.47835 0.0
C835 C 0.2579 0.19747 0.46807 0.0
H836 H 0.27782 0.19431 0.37693 0.0
C837 C 0.186 0.17716 0.36207 0.0
C838 C 0.1948 0.16546 0.33298 0.0
C839 C 0.20317 0.18199 0.38824 0.0
C840 C 0.27225 0.19434 0.40236 0.0
H841 H 0.28101 0.27964 0.52741 0.0
H842 H 0.26021 0.24211 0.5045 0.0
H843 H 0.30539 0.21587 0.4171 0.0
H844 H 0.22772 0.14852 0.3083 0.0
H845 H 0.25797 0.15674 0.35423 0.0
H846 H 0.22388 0.17699 0.4526 0.0
C847 C 0.28098 0.24401 0.50174 0.0
C848 C 0.28819 0.20673 0.42559 0.0
C849 C 0.29293 0.26552 0.51519 0.0
C850 C 0.22066 0.15763 0.33067 0.0
C851 C 0.23791 0.16244 0.35687 0.0
C852 C 0.24188 0.18507 0.44472 0.0
C853 C 0.29499 0.22708 0.48135 0.0
C854 C 0.28083 0.20921 0.4586 0.0
C855 C 0.22951 0.17524 0.3857 0.0
C856 C 0.24845 0.18412 0.41141 0.0
H857 H 0.35385 0.25585 0.48572 0.0
H858 H 0.33344 0.21765 0.46347 0.0
H859 H 0.25181 0.19869 0.49332 0.0
H860 H 0.16605 0.18341 0.36415 0.0
H861 H 0.19607 0.1922 0.40978 0.0
C862 C 0.18377 0.8216 0.95186 0.0
C863 C 0.17204 0.81034 0.97823 0.0
C864 C 0.20197 0.80857 0.93247 0.0
C865 C 0.22315 0.74482 0.90824 0.0
H866 H 0.28617 0.77701 0.88116 0.0
C867 C 0.29309 0.69587 0.81708 0.0
C868 C 0.31951 0.69712 0.82534 0.0
C869 C 0.2752 0.71119 0.83383 0.0
C870 C 0.2687 0.76775 0.8886 0.0
H871 H 0.16997 0.77645 0.00458 0.0
H872 H 0.20183 0.75386 0.97105 0.0
H873 H 0.25488 0.80042 0.91504 0.0
H874 H 0.3484 0.71533 0.85678 0.0
H875 H 0.31715 0.74234 0.8862 0.0
H876 H 0.23706 0.71207 0.88235 0.0
C877 C 0.19692 0.77271 0.96523 0.0
C878 C 0.25066 0.78121 0.90776 0.0
C879 C 0.17884 0.78577 0.98468 0.0
C880 C 0.32805 0.71435 0.84986 0.0
C881 C 0.31017 0.72977 0.8666 0.0
C882 C 0.24108 0.73143 0.88896 0.0
C883 C 0.2087 0.78394 0.93885 0.0
C884 C 0.22773 0.76986 0.91797 0.0
C885 C 0.28345 0.72801 0.85923 0.0
C886 C 0.26412 0.74268 0.87896 0.0
H887 H 0.17895 0.84049 0.94623 0.0
H888 H 0.21048 0.81767 0.91213 0.0
H889 H 0.20558 0.73558 0.91538 0.0
H890 H 0.28615 0.68253 0.79832 0.0
H891 H 0.25483 0.7096 0.82722 0.0
loop_
_geom_bond_atom_site_label_1
_geom_bond_atom_site_label_2
_geom_bond_distance
_geom_bond_site_symmetry_2
_ccdc_geom_bond_type
Zn0 O6 1.920 . S
Zn0 O12 1.898 . S
Zn0 O15 1.905 . S
Zn1 O9 1.905 . S
Zn1 O10 1.898 . S
Zn1 O18 1.920 . S
Zn2 O5 2.080 . S
Zn2 O8 2.114 . S
Zn2 O11 2.120 1_554 S
Zn2 O13 2.120 . S
Zn2 O14 2.114 . S
Zn2 O17 2.080 . S
C3 O8 1.166 1_556 S
C3 O9 1.182 . S
C4 O10 1.167 . S
C4 O11 1.299 . S
O5 Zn2 2.080 . S
O5 C19 1.305 . S
O6 Zn0 1.920 . S
O6 C19 1.234 . S
C7 O12 1.167 . S
C7 O13 1.299 . S
O8 Zn2 2.114 . S
O8 C3 1.166 1_554 S
O9 Zn1 1.905 . S
O9 C3 1.182 . S
O10 Zn1 1.898 . S
O10 C4 1.167 . S
O11 Zn2 2.120 1_556 S
O11 C4 1.299 . S
O12 Zn0 1.898 . S
O12 C7 1.167 . S
O13 Zn2 2.120 . S
O13 C7 1.299 . S
O14 Zn2 2.114 . S
O14 C16 1.166 . S
O15 Zn0 1.905 . S
O15 C16 1.182 . S
C16 O14 1.166 . S
C16 O15 1.182 . S
O17 Zn2 2.080 . S
O17 C20 1.305 1_554 S
O18 Zn1 1.920 . S
O18 C20 1.234 . S
C19 O5 1.305 . S
C19 O6 1.234 . S
C20 O17 1.305 1_556 S
C20 O18 1.234 . S
Zn21 O27 1.920 . S
Zn21 O33 1.898 . S
Zn21 O36 1.905 . S
Zn22 O30 1.905 . S
Zn22 O31 1.898 . S
Zn22 O39 1.920 . S
Zn23 O26 2.080 . S
Zn23 O29 2.114 . S
Zn23 O32 2.120 . S
Zn23 O34 2.120 . S
Zn23 O35 2.114 . S
Zn23 O38 2.080 . S
C24 O29 1.166 . S
C24 O30 1.182 . S
C25 O31 1.167 . S
C25 O32 1.299 . S
O26 Zn23 2.080 . S
O26 C40 1.305 . S
O27 Zn21 1.920 . S
O27 C40 1.234 . S
C28 O33 1.167 . S
C28 O34 1.299 . S
O29 Zn23 2.114 . S
O29 C24 1.166 . S
O30 Zn22 1.905 . S
O30 C24 1.182 . S
O31 Zn22 1.898 . S
O31 C25 1.167 . S
O32 Zn23 2.120 . S
O32 C25 1.299 . S
O33 Zn21 1.898 . S
O33 C28 1.167 . S
O34 Zn23 2.120 . S
O34 C28 1.299 . S
O35 Zn23 2.114 . S
O35 C37 1.166 . S
O36 Zn21 1.905 . S
O36 C37 1.182 . S
C37 O35 1.166 . S
C37 O36 1.182 . S
O38 Zn23 2.080 . S
O38 C41 1.305 . S
O39 Zn22 1.920 . S
O39 C41 1.234 . S
C40 O26 1.305 . S
C40 O27 1.234 . S
C41 O38 1.305 . S
C41 O39 1.234 . S
Zn42 O48 1.920 . S
Zn42 O54 1.898 . S
Zn42 O57 1.905 . S
Zn43 O51 1.905 . S
Zn43 O52 1.898 . S
Zn43 O60 1.920 . S
Zn44 O47 2.080 1_554 S
Zn44 O50 2.114 . S
Zn44 O53 2.120 . S
Zn44 O55 2.120 1_554 S
Zn44 O56 2.113 1_554 S
Zn44 O59 2.081 . S
C45 O50 1.166 . S
C45 O51 1.182 . S
C46 O52 1.167 . S
C46 O53 1.299 . S
O47 Zn44 2.080 1_556 S
O47 C61 1.305 . S
O48 Zn42 1.920 . S
O48 C61 1.234 . S
C49 O54 1.167 . S
C49 O55 1.299 . S
O50 Zn44 2.114 . S
O50 C45 1.166 . S
O51 Zn43 1.905 . S
O51 C45 1.182 . S
O52 Zn43 1.898 . S
O52 C46 1.167 . S
O53 Zn44 2.120 . S
O53 C46 1.299 . S
O54 Zn42 1.898 . S
O54 C49 1.167 . S
O55 Zn44 2.120 1_556 S
O55 C49 1.299 . S
O56 Zn44 2.113 1_556 S
O56 C58 1.166 . S
O57 Zn42 1.905 . S
O57 C58 1.182 . S
C58 O56 1.166 . S
C58 O57 1.182 . S
O59 Zn44 2.081 . S
O59 C62 1.305 . S
O60 Zn43 1.920 . S
O60 C62 1.234 . S
C61 O47 1.305 . S
C61 O48 1.234 . S
C62 O59 1.305 . S
C62 O60 1.234 . S
Zn63 O69 1.920 . S
Zn63 O75 1.898 . S
Zn63 O78 1.905 . S
Zn64 O72 1.905 . S
Zn64 O73 1.898 . S
Zn64 O81 1.920 . S
Zn65 O68 2.080 . S
Zn65 O71 2.114 . S
Zn65 O74 2.120 . S
Zn65 O76 2.120 . S
Zn65 O77 2.114 . S
Zn65 O80 2.080 . S
C66 O71 1.166 . S
C66 O72 1.182 . S
C67 O73 1.167 . S
C67 O74 1.299 . S
O68 Zn65 2.080 . S
O68 C82 1.305 . S
O69 Zn63 1.920 . S
O69 C82 1.234 . S
C70 O75 1.167 . S
C70 O76 1.299 . S
O71 Zn65 2.114 . S
O71 C66 1.166 . S
O72 Zn64 1.905 . S
O72 C66 1.182 . S
O73 Zn64 1.898 . S
O73 C67 1.167 . S
O74 Zn65 2.120 . S
O74 C67 1.299 . S
O75 Zn63 1.898 . S
O75 C70 1.167 . S
O76 Zn65 2.120 . S
O76 C70 1.299 . S
O77 Zn65 2.114 . S
O77 C79 1.166 . S
O78 Zn63 1.905 . S
O78 C79 1.182 . S
C79 O77 1.166 . S
C79 O78 1.182 . S
O80 Zn65 2.080 . S
O80 C83 1.305 . S
O81 Zn64 1.920 . S
O81 C83 1.234 . S
C82 O68 1.305 . S
C82 O69 1.234 . S
C83 O80 1.305 . S
C83 O81 1.234 . S
H84 C87 0.929 . S
H85 C90 0.929 . S
H86 C92 0.930 . S
C87 H84 0.929 . S
C87 C88 1.398 . S
C87 C89 1.396 . S
C88 C87 1.398 . S
C88 C92 1.407 . S
C89 C87 1.396 . S
C89 C90 1.394 . S
C90 H85 0.929 . S
C90 C89 1.394 . S
C90 C91 1.382 . S
C91 C90 1.382 . S
C91 C92 1.392 . S
C91 N93 1.420 . S
C92 H86 0.930 . S
C92 C88 1.407 . S
C92 C91 1.392 . S
N93 C91 1.420 . S
N93 C94 1.244 . S
C94 N93 1.244 . S
H95 C98 0.929 . S
H96 C101 0.929 . S
H97 C103 0.930 . S
C98 H95 0.929 . S
C98 C99 1.398 . S
C98 C100 1.396 . S
C99 C98 1.398 . S
C99 C103 1.407 . S
C100 C98 1.396 . S
C100 C101 1.394 . S
C101 H96 0.929 . S
C101 C100 1.394 . S
C101 C102 1.382 . S
C102 C101 1.382 . S
C102 C103 1.392 . S
C102 N104 1.420 . S
C103 H97 0.930 . S
C103 C99 1.407 . S
C103 C102 1.392 . S
N104 C102 1.420 . S
N104 C105 1.244 . S
C105 N104 1.244 . S
H106 C109 0.929 . S
H107 C112 0.929 . S
H108 C114 0.930 . S
C109 H106 0.929 . S
C109 C110 1.398 . S
C109 C111 1.396 . S
C110 C109 1.398 . S
C110 C114 1.407 . S
C111 C109 1.396 . S
C111 C112 1.394 . S
C112 H107 0.929 . S
C112 C111 1.394 . S
C112 C113 1.382 . S
C113 C112 1.382 . S
C113 C114 1.392 . S
C113 N115 1.420 . S
C114 H108 0.930 . S
C114 C110 1.407 . S
C114 C113 1.392 . S
N115 C113 1.420 . S
N115 C116 1.244 . S
C116 N115 1.244 . S
H117 C120 0.929 . S
H118 C123 0.929 . S
H119 C125 0.930 . S
C120 H117 0.929 . S
C120 C121 1.398 . S
C120 C122 1.396 . S
C121 C120 1.398 . S
C121 C125 1.407 . S
C122 C120 1.396 . S
C122 C123 1.394 . S
C123 H118 0.929 . S
C123 C122 1.394 . S
C123 C124 1.382 . S
C124 C123 1.382 . S
C124 C125 1.392 . S
C124 N126 1.420 . S
C125 H119 0.930 . S
C125 C121 1.407 . S
C125 C124 1.392 . S
N126 C124 1.420 . S
N126 C127 1.244 . S
C127 N126 1.244 . S
H128 C131 0.929 . S
H129 C134 0.929 . S
H130 C136 0.930 . S
C131 H128 0.929 . S
C131 C132 1.398 . S
C131 C133 1.396 . S
C132 C131 1.398 . S
C132 C136 1.407 . S
C133 C131 1.396 . S
C133 C134 1.394 . S
C134 H129 0.929 . S
C134 C133 1.394 . S
C134 C135 1.382 . S
C135 C134 1.382 . S
C135 C136 1.392 . S
C135 N137 1.420 . S
C136 H130 0.930 . S
C136 C132 1.407 . S
C136 C135 1.392 . S
N137 C135 1.420 . S
N137 C138 1.244 . S
C138 N137 1.244 . S
H139 C142 0.929 . S
H140 C145 0.929 . S
H141 C147 0.930 . S
C142 H139 0.929 . S
C142 C143 1.398 . S
C142 C144 1.396 . S
C143 C142 1.398 . S
C143 C147 1.407 . S
C144 C142 1.396 . S
C144 C145 1.394 . S
C145 H140 0.929 . S
C145 C144 1.394 . S
C145 C146 1.382 . S
C146 C145 1.382 . S
C146 C147 1.392 . S
C146 N148 1.420 . S
C147 H141 0.930 . S
C147 C143 1.407 . S
C147 C146 1.392 . S
N148 C146 1.420 . S
N148 C149 1.244 . S
C149 N148 1.244 . S
H150 C153 0.929 . S
H151 C156 0.929 . S
H152 C158 0.930 . S
C153 H150 0.929 . S
C153 C154 1.398 . S
C153 C155 1.396 . S
C154 C153 1.398 . S
C154 C158 1.407 . S
C155 C153 1.396 . S
C155 C156 1.394 . S
C156 H151 0.929 . S
C156 C155 1.394 . S
C156 C157 1.382 . S
C157 C156 1.382 . S
C157 C158 1.392 . S
C157 N159 1.420 . S
C158 H152 0.930 . S
C158 C154 1.407 . S
C158 C157 1.392 . S
N159 C157 1.420 . S
N159 C160 1.244 . S
C160 N159 1.244 . S
H161 C164 0.929 . S
H162 C167 0.929 . S
H163 C169 0.930 . S
C164 H161 0.929 . S
C164 C165 1.398 . S
C164 C166 1.396 . S
C165 C164 1.398 . S
C165 C169 1.407 . S
C166 C164 1.396 . S
C166 C167 1.394 . S
C167 H162 0.929 . S
C167 C166 1.394 . S
C167 C168 1.382 . S
C168 C167 1.382 . S
C168 C169 1.392 . S
C168 N170 1.420 . S
C169 H163 0.930 . S
C169 C165 1.407 . S
C169 C168 1.392 . S
N170 C168 1.420 . S
N170 C171 1.244 . S
C171 N170 1.244 . S
C172 C173 1.349 . S
C172 C174 1.327 . S
C172 H197 0.950 . S
C173 C172 1.349 . S
C173 C189 1.349 . S
C174 C172 1.327 . S
C174 C193 1.429 . S
C174 H198 0.950 . S
C175 C192 1.574 1_565 S
C175 C194 1.368 . S
C175 H199 0.949 . S
H176 C180 0.949 . S
C177 C178 1.349 . S
C177 C179 1.327 . S
C177 H200 0.950 . S
C178 C177 1.349 . S
C178 C190 1.349 . S
C179 C177 1.327 . S
C179 C195 1.429 . S
C179 H201 0.950 . S
C180 H176 0.949 . S
C180 C188 1.574 . S
C180 C196 1.368 1_565 S
H181 C189 0.950 . S
H182 C187 0.950 . S
H183 C188 0.949 . S
H184 C190 0.950 . S
H185 C191 0.950 . S
H186 C192 0.949 . S
C187 H182 0.950 . S
C187 C189 1.327 . S
C187 C193 1.429 . S
C188 C180 1.574 . S
C188 H183 0.949 . S
C188 C194 1.368 . S
C189 C173 1.349 . S
C189 H181 0.950 . S
C189 C187 1.327 . S
C190 C178 1.349 . S
C190 H184 0.950 . S
C190 C191 1.327 . S
C191 H185 0.950 . S
C191 C190 1.327 . S
C191 C195 1.429 . S
C192 C175 1.574 1_545 S
C192 H186 0.949 . S
C192 C196 1.368 . S
C193 C174 1.429 . S
C193 C187 1.429 . S
C193 C194 1.523 . S
C194 C175 1.368 . S
C194 C188 1.368 . S
C194 C193 1.523 . S
C195 C179 1.429 . S
C195 C191 1.429 . S
C195 C196 1.523 . S
C196 C180 1.368 1_545 S
C196 C192 1.368 . S
C196 C195 1.523 . S
H197 C172 0.950 . S
H198 C174 0.950 . S
H199 C175 0.949 . S
H200 C177 0.950 . S
H201 C179 0.950 . S
C202 C203 1.349 . S
C202 C204 1.327 . S
C202 H227 0.950 . S
C203 C202 1.349 . S
C203 C219 1.349 . S
C204 C202 1.327 . S
C204 C223 1.429 . S
C204 H228 0.950 . S
C205 C222 1.574 . S
C205 C224 1.368 . S
C205 H229 0.949 . S
H206 C210 0.949 . S
C207 C208 1.349 . S
C207 C209 1.327 . S
C207 H230 0.950 . S
C208 C207 1.349 . S
C208 C220 1.349 . S
C209 C207 1.327 . S
C209 C225 1.429 . S
C209 H231 0.950 . S
C210 H206 0.949 . S
C210 C218 1.574 . S
C210 C226 1.368 . S
H211 C219 0.950 . S
H212 C217 0.950 . S
H213 C218 0.949 . S
H214 C220 0.950 . S
H215 C221 0.950 . S
H216 C222 0.949 . S
C217 H212 0.950 . S
C217 C219 1.327 . S
C217 C223 1.429 . S
C218 C210 1.574 . S
C218 H213 0.949 . S
C218 C224 1.368 . S
C219 C203 1.349 . S
C219 H211 0.950 . S
C219 C217 1.327 . S
C220 C208 1.349 . S
C220 H214 0.950 . S
C220 C221 1.327 . S
C221 H215 0.950 . S
C221 C220 1.327 . S
C221 C225 1.429 . S
C222 C205 1.574 . S
C222 H216 0.949 . S
C222 C226 1.368 . S
C223 C204 1.429 . S
C223 C217 1.429 . S
C223 C224 1.523 . S
C224 C205 1.368 . S
C224 C218 1.368 . S
C224 C223 1.523 . S
C225 C209 1.429 . S
C225 C221 1.429 . S
C225 C226 1.523 . S
C226 C210 1.368 . S
C226 C222 1.368 . S
C226 C225 1.523 . S
H227 C202 0.950 . S
H228 C204 0.950 . S
H229 C205 0.949 . S
H230 C207 0.950 . S
H231 C209 0.950 . S
C232 C233 1.349 . S
C232 C234 1.327 . S
C232 H257 0.950 . S
C233 C232 1.349 . S
C233 C249 1.349 . S
C234 C232 1.327 . S
C234 C253 1.429 . S
C234 H258 0.950 . S
C235 C252 1.574 1_545 S
C235 C254 1.368 . S
C235 H259 0.949 . S
H236 C240 0.949 . S
C237 C238 1.349 . S
C237 C239 1.327 . S
C237 H260 0.950 . S
C238 C237 1.349 . S
C238 C250 1.349 . S
C239 C237 1.327 . S
C239 C255 1.429 . S
C239 H261 0.950 . S
C240 H236 0.949 . S
C240 C248 1.574 1_565 S
C240 C256 1.368 . S
H241 C249 0.950 . S
H242 C247 0.950 . S
H243 C248 0.949 . S
H244 C250 0.950 . S
H245 C251 0.950 . S
H246 C252 0.949 . S
C247 H242 0.950 . S
C247 C249 1.327 . S
C247 C253 1.429 . S
C248 C240 1.574 1_545 S
C248 H243 0.949 . S
C248 C254 1.368 . S
C249 C233 1.349 . S
C249 H241 0.950 . S
C249 C247 1.327 . S
C250 C238 1.349 . S
C250 H244 0.950 . S
C250 C251 1.327 . S
C251 H245 0.950 . S
C251 C250 1.327 . S
C251 C255 1.429 . S
C252 C235 1.574 1_565 S
C252 H246 0.949 . S
C252 C256 1.368 . S
C253 C234 1.429 . S
C253 C247 1.429 . S
C253 C254 1.523 . S
C254 C235 1.368 . S
C254 C248 1.368 . S
C254 C253 1.523 . S
C255 C239 1.429 . S
C255 C251 1.429 . S
C255 C256 1.523 . S
C256 C240 1.368 . S
C256 C252 1.368 . S
C256 C255 1.523 . S
H257 C232 0.950 . S
H258 C234 0.950 . S
H259 C235 0.949 . S
H260 C237 0.950 . S
H261 C239 0.950 . S
C262 C263 1.349 . S
C262 C264 1.327 . S
C262 H287 0.950 . S
C263 C262 1.349 . S
C263 C279 1.349 . S
C264 C262 1.327 . S
C264 C283 1.429 . S
C264 H288 0.950 . S
C265 C282 1.574 . S
C265 C284 1.368 . S
C265 H289 0.949 . S
H266 C270 0.949 . S
C267 C268 1.349 . S
C267 C269 1.327 . S
C267 H290 0.950 . S
C268 C267 1.349 . S
C268 C280 1.349 . S
C269 C267 1.327 . S
C269 C285 1.429 . S
C269 H291 0.950 . S
C270 H266 0.949 . S
C270 C278 1.574 . S
C270 C286 1.368 . S
H271 C279 0.950 . S
H272 C277 0.950 . S
H273 C278 0.949 . S
H274 C280 0.950 . S
H275 C281 0.950 . S
H276 C282 0.949 . S
C277 H272 0.950 . S
C277 C279 1.327 . S
C277 C283 1.429 . S
C278 C270 1.574 . S
C278 H273 0.949 . S
C278 C284 1.368 . S
C279 C263 1.349 . S
C279 H271 0.950 . S
C279 C277 1.327 . S
C280 C268 1.349 . S
C280 H274 0.950 . S
C280 C281 1.327 . S
C281 H275 0.950 . S
C281 C280 1.327 . S
C281 C285 1.429 . S
C282 C265 1.574 . S
C282 H276 0.949 . S
C282 C286 1.368 . S
C283 C264 1.429 . S
C283 C277 1.429 . S
C283 C284 1.523 . S
C284 C265 1.368 . S
C284 C278 1.368 . S
C284 C283 1.523 . S
C285 C269 1.429 . S
C285 C281 1.429 . S
C285 C286 1.523 . S
C286 C270 1.368 . S
C286 C282 1.368 . S
C286 C285 1.523 . S
H287 C262 0.950 . S
H288 C264 0.950 . S
H289 C265 0.949 . S
H290 C267 0.950 . S
H291 C269 0.950 . S
C292 C293 1.349 . S
C292 C294 1.327 . S
C292 H317 0.950 . S
C293 C292 1.349 . S
C293 C309 1.349 . S
C294 C292 1.327 . S
C294 C313 1.429 . S
C294 H318 0.950 . S
C295 C312 1.574 . S
C295 C314 1.368 . S
C295 H319 0.949 . S
H296 C300 0.949 . S
C297 C298 1.349 . S
C297 C299 1.327 . S
C297 H320 0.950 . S
C298 C297 1.349 . S
C298 C310 1.349 . S
C299 C297 1.327 . S
C299 C315 1.429 . S
C299 H321 0.950 . S
C300 H296 0.949 . S
C300 C308 1.574 . S
C300 C316 1.368 . S
H301 C309 0.950 . S
H302 C307 0.950 . S
H303 C308 0.949 . S
H304 C310 0.950 . S
H305 C311 0.950 . S
H306 C312 0.949 . S
C307 H302 0.950 . S
C307 C309 1.327 . S
C307 C313 1.429 . S
C308 C300 1.574 . S
C308 H303 0.949 . S
C308 C314 1.368 . S
C309 C293 1.349 . S
C309 H301 0.950 . S
C309 C307 1.327 . S
C310 C298 1.349 . S
C310 H304 0.950 . S
C310 C311 1.327 . S
C311 H305 0.950 . S
C311 C310 1.327 . S
C311 C315 1.429 . S
C312 C295 1.574 . S
C312 H306 0.949 . S
C312 C316 1.368 . S
C313 C294 1.429 . S
C313 C307 1.429 . S
C313 C314 1.523 . S
C314 C295 1.368 . S
C314 C308 1.368 . S
C314 C313 1.523 . S
C315 C299 1.429 . S
C315 C311 1.429 . S
C315 C316 1.523 . S
C316 C300 1.368 . S
C316 C312 1.368 . S
C316 C315 1.523 . S
H317 C292 0.950 . S
H318 C294 0.950 . S
H319 C295 0.949 . S
H320 C297 0.950 . S
H321 C299 0.950 . S
C322 C323 1.349 . S
C322 C324 1.327 . S
C322 H347 0.950 1_556 S
C323 C322 1.349 . S
C323 C339 1.349 . S
C324 C322 1.327 . S
C324 C343 1.429 . S
C324 H348 0.950 . S
C325 C342 1.574 . S
C325 C344 1.368 . S
C325 H349 0.949 1_455 S
H326 C330 0.949 . S
C327 C328 1.349 . S
C327 C329 1.327 . S
C327 H350 0.950 . S
C328 C327 1.349 . S
C328 C340 1.349 . S
C329 C327 1.327 . S
C329 C345 1.429 . S
C329 H351 0.950 . S
C330 H326 0.949 . S
C330 C338 1.574 . S
C330 C346 1.368 . S
H331 C339 0.950 . S
H332 C337 0.950 . S
H333 C338 0.949 . S
H334 C340 0.950 . S
H335 C341 0.950 . S
H336 C342 0.949 . S
C337 H332 0.950 . S
C337 C339 1.327 . S
C337 C343 1.429 . S
C338 C330 1.574 . S
C338 H333 0.949 . S
C338 C344 1.368 . S
C339 C323 1.349 . S
C339 H331 0.950 . S
C339 C337 1.327 . S
C340 C328 1.349 . S
C340 H334 0.950 . S
C340 C341 1.327 . S
C341 H335 0.950 . S
C341 C340 1.327 . S
C341 C345 1.429 . S
C342 C325 1.574 . S
C342 H336 0.949 . S
C342 C346 1.368 . S
C343 C324 1.429 . S
C343 C337 1.429 . S
C343 C344 1.523 1_655 S
C344 C325 1.368 . S
C344 C338 1.368 . S
C344 C343 1.523 1_455 S
C345 C329 1.429 . S
C345 C341 1.429 . S
C345 C346 1.523 . S
C346 C330 1.368 . S
C346 C342 1.368 . S
C346 C345 1.523 . S
H347 C322 0.950 1_554 S
H348 C324 0.950 . S
H349 C325 0.949 1_655 S
H350 C327 0.950 . S
H351 C329 0.950 . S
C352 C353 1.349 . S
C352 C354 1.327 . S
C352 H377 0.950 . S
C353 C352 1.349 . S
C353 C369 1.349 . S
C354 C352 1.327 . S
C354 C373 1.429 . S
C354 H378 0.950 . S
C355 C372 1.574 . S
C355 C374 1.368 . S
C355 H379 0.949 . S
H356 C360 0.949 . S
C357 C358 1.349 . S
C357 C359 1.327 . S
C357 H380 0.950 . S
C358 C357 1.349 . S
C358 C370 1.349 . S
C359 C357 1.327 . S
C359 C375 1.429 . S
C359 H381 0.950 . S
C360 H356 0.949 . S
C360 C368 1.574 . S
C360 C376 1.368 . S
H361 C369 0.950 . S
H362 C367 0.950 . S
H363 C368 0.949 . S
H364 C370 0.950 . S
H365 C371 0.950 . S
H366 C372 0.949 . S
C367 H362 0.950 . S
C367 C369 1.327 . S
C367 C373 1.429 . S
C368 C360 1.574 . S
C368 H363 0.949 . S
C368 C374 1.368 . S
C369 C353 1.349 . S
C369 H361 0.950 . S
C369 C367 1.327 . S
C370 C358 1.349 . S
C370 H364 0.950 . S
C370 C371 1.327 . S
C371 H365 0.950 . S
C371 C370 1.327 . S
C371 C375 1.429 . S
C372 C355 1.574 . S
C372 H366 0.949 . S
C372 C376 1.368 . S
C373 C354 1.429 . S
C373 C367 1.429 . S
C373 C374 1.523 . S
C374 C355 1.368 . S
C374 C368 1.368 . S
C374 C373 1.523 . S
C375 C359 1.429 . S
C375 C371 1.429 . S
C375 C376 1.523 . S
C376 C360 1.368 . S
C376 C372 1.368 . S
C376 C375 1.523 . S
H377 C352 0.950 . S
H378 C354 0.950 . S
H379 C355 0.949 . S
H380 C357 0.950 . S
H381 C359 0.950 . S
C382 C383 1.349 . S
C382 C384 1.327 . S
C382 H407 0.950 1_556 S
C383 C382 1.349 . S
C383 C399 1.349 . S
C384 C382 1.327 . S
C384 C403 1.429 . S
C384 H408 0.950 . S
C385 C402 1.574 . S
C385 C404 1.368 . S
C385 H409 0.949 . S
H386 C390 0.949 . S
C387 C388 1.349 . S
C387 C389 1.327 . S
C387 H410 0.950 . S
C388 C387 1.349 . S
C388 C400 1.349 . S
C389 C387 1.327 . S
C389 C405 1.429 . S
C389 H411 0.950 . S
C390 H386 0.949 . S
C390 C398 1.574 1_655 S
C390 C406 1.368 . S
H391 C399 0.950 . S
H392 C397 0.950 . S
H393 C398 0.949 1_655 S
H394 C400 0.950 . S
H395 C401 0.950 . S
H396 C402 0.949 . S
C397 H392 0.950 . S
C397 C399 1.327 . S
C397 C403 1.429 . S
C398 C390 1.574 1_455 S
C398 H393 0.949 1_455 S
C398 C404 1.368 . S
C399 C383 1.349 . S
C399 H391 0.950 . S
C399 C397 1.327 . S
C400 C388 1.349 . S
C400 H394 0.950 . S
C400 C401 1.327 . S
C401 H395 0.950 . S
C401 C400 1.327 . S
C401 C405 1.429 . S
C402 C385 1.574 . S
C402 H396 0.949 . S
C402 C406 1.368 1_455 S
C403 C384 1.429 . S
C403 C397 1.429 . S
C403 C404 1.523 . S
C404 C385 1.368 . S
C404 C398 1.368 . S
C404 C403 1.523 . S
C405 C389 1.429 . S
C405 C401 1.429 . S
C405 C406 1.523 . S
C406 C390 1.368 . S
C406 C402 1.368 1_655 S
C406 C405 1.523 . S
H407 C382 0.950 1_554 S
H408 C384 0.950 . S
H409 C385 0.949 . S
H410 C387 0.950 . S
H411 C389 0.950 . S
C412 C413 1.349 . S
C412 C414 1.327 . S
C412 H437 0.950 . S
C413 C412 1.349 . S
C413 C429 1.349 . S
C414 C412 1.327 . S
C414 C433 1.429 . S
C414 H438 0.950 . S
C415 C432 1.574 . S
C415 C434 1.368 . S
C415 H439 0.949 . S
H416 C420 0.949 . S
C417 C418 1.349 . S
C417 C419 1.327 . S
C417 H440 0.950 . S
C418 C417 1.349 . S
C418 C430 1.349 . S
C419 C417 1.327 . S
C419 C435 1.429 . S
C419 H441 0.950 . S
C420 H416 0.949 . S
C420 C428 1.574 . S
C420 C436 1.368 . S
H421 C429 0.950 . S
H422 C427 0.950 . S
H423 C428 0.949 1_545 S
H424 C430 0.950 . S
H425 C431 0.950 . S
H426 C432 0.949 . S
C427 H422 0.950 . S
C427 C429 1.327 . S
C427 C433 1.429 . S
C428 C420 1.574 . S
C428 H423 0.949 1_565 S
C428 C434 1.368 . S
C429 C413 1.349 . S
C429 H421 0.950 . S
C429 C427 1.327 . S
C430 C418 1.349 . S
C430 H424 0.950 . S
C430 C431 1.327 . S
C431 H425 0.950 . S
C431 C430 1.327 . S
C431 C435 1.429 . S
C432 C415 1.574 . S
C432 H426 0.949 . S
C432 C436 1.368 . S
C433 C414 1.429 . S
C433 C427 1.429 . S
C433 C434 1.523 1_545 S
C434 C415 1.368 . S
C434 C428 1.368 . S
C434 C433 1.523 1_565 S
C435 C419 1.429 . S
C435 C431 1.429 . S
C435 C436 1.523 . S
C436 C420 1.368 . S
C436 C432 1.368 . S
C436 C435 1.523 . S
H437 C412 0.950 . S
H438 C414 0.950 . S
H439 C415 0.949 . S
H440 C417 0.950 . S
H441 C419 0.950 . S
C442 C443 1.349 . S
C442 C444 1.327 . S
C442 H467 0.950 . S
C443 C442 1.349 . S
C443 C459 1.349 . S
C444 C442 1.327 . S
C444 C463 1.429 . S
C444 H468 0.950 . S
C445 C462 1.574 . S
C445 C464 1.368 . S
C445 H469 0.949 . S
H446 C450 0.949 . S
C447 C448 1.349 . S
C447 C449 1.327 . S
C447 H470 0.950 . S
C448 C447 1.349 . S
C448 C460 1.349 . S
C449 C447 1.327 . S
C449 C465 1.429 . S
C449 H471 0.950 . S
C450 H446 0.949 . S
C450 C458 1.574 . S
C450 C466 1.368 . S
H451 C459 0.950 . S
H452 C457 0.950 . S
H453 C458 0.949 . S
H454 C460 0.950 . S
H455 C461 0.950 . S
H456 C462 0.949 . S
C457 H452 0.950 . S
C457 C459 1.327 . S
C457 C463 1.429 . S
C458 C450 1.574 . S
C458 H453 0.949 . S
C458 C464 1.368 . S
C459 C443 1.349 . S
C459 H451 0.950 . S
C459 C457 1.327 . S
C460 C448 1.349 . S
C460 H454 0.950 . S
C460 C461 1.327 . S
C461 H455 0.950 . S
C461 C460 1.327 . S
C461 C465 1.429 . S
C462 C445 1.574 . S
C462 H456 0.949 . S
C462 C466 1.368 . S
C463 C444 1.429 . S
C463 C457 1.429 . S
C463 C464 1.523 . S
C464 C445 1.368 . S
C464 C458 1.368 . S
C464 C463 1.523 . S
C465 C449 1.429 . S
C465 C461 1.429 . S
C465 C466 1.523 . S
C466 C450 1.368 . S
C466 C462 1.368 . S
C466 C465 1.523 . S
H467 C442 0.950 . S
H468 C444 0.950 . S
H469 C445 0.949 . S
H470 C447 0.950 . S
H471 C449 0.950 . S
C472 C473 1.349 1_554 S
C472 C474 1.327 1_554 S
C472 H497 0.950 . S
C473 C472 1.349 1_556 S
C473 C489 1.349 . S
C474 C472 1.327 1_556 S
C474 C493 1.429 . S
C474 H498 0.950 1_556 S
C475 C492 1.574 . S
C475 C494 1.368 . S
C475 H499 0.949 . S
H476 C480 0.949 . S
C477 C478 1.349 . S
C477 C479 1.327 . S
C477 H500 0.950 . S
C478 C477 1.349 . S
C478 C490 1.349 . S
C479 C477 1.327 . S
C479 C495 1.429 . S
C479 H501 0.950 . S
C480 H476 0.949 . S
C480 C488 1.574 . S
C480 C496 1.368 . S
H481 C489 0.950 . S
H482 C487 0.950 . S
H483 C488 0.949 . S
H484 C490 0.950 . S
H485 C491 0.950 . S
H486 C492 0.949 . S
C487 H482 0.950 . S
C487 C489 1.327 . S
C487 C493 1.429 . S
C488 C480 1.574 . S
C488 H483 0.949 . S
C488 C494 1.368 . S
C489 C473 1.349 . S
C489 H481 0.950 . S
C489 C487 1.327 . S
C490 C478 1.349 . S
C490 H484 0.950 . S
C490 C491 1.327 . S
C491 H485 0.950 . S
C491 C490 1.327 . S
C491 C495 1.429 . S
C492 C475 1.574 . S
C492 H486 0.949 . S
C492 C496 1.368 . S
C493 C474 1.429 . S
C493 C487 1.429 . S
C493 C494 1.523 1_565 S
C494 C475 1.368 . S
C494 C488 1.368 . S
C494 C493 1.523 1_545 S
C495 C479 1.429 . S
C495 C491 1.429 . S
C495 C496 1.523 . S
C496 C480 1.368 . S
C496 C492 1.368 . S
C496 C495 1.523 . S
H497 C472 0.950 . S
H498 C474 0.950 1_554 S
H499 C475 0.949 . S
H500 C477 0.950 . S
H501 C479 0.950 . S
C502 C503 1.349 . S
C502 C504 1.327 . S
C502 H527 0.950 . S
C503 C502 1.349 . S
C503 C519 1.349 . S
C504 C502 1.327 . S
C504 C523 1.429 . S
C504 H528 0.950 . S
C505 C522 1.574 . S
C505 C524 1.368 . S
C505 H529 0.949 . S
H506 C510 0.949 . S
C507 C508 1.349 . S
C507 C509 1.327 . S
C507 H530 0.950 . S
C508 C507 1.349 . S
C508 C520 1.349 . S
C509 C507 1.327 . S
C509 C525 1.429 . S
C509 H531 0.950 . S
C510 H506 0.949 . S
C510 C518 1.574 . S
C510 C526 1.368 . S
H511 C519 0.950 . S
H512 C517 0.950 . S
H513 C518 0.949 . S
H514 C520 0.950 . S
H515 C521 0.950 . S
H516 C522 0.949 . S
C517 H512 0.950 . S
C517 C519 1.327 . S
C517 C523 1.429 . S
C518 C510 1.574 . S
C518 H513 0.949 . S
C518 C524 1.368 . S
C519 C503 1.349 . S
C519 H511 0.950 . S
C519 C517 1.327 . S
C520 C508 1.349 . S
C520 H514 0.950 . S
C520 C521 1.327 . S
C521 H515 0.950 . S
C521 C520 1.327 . S
C521 C525 1.429 . S
C522 C505 1.574 . S
C522 H516 0.949 . S
C522 C526 1.368 . S
C523 C504 1.429 . S
C523 C517 1.429 . S
C523 C524 1.523 . S
C524 C505 1.368 . S
C524 C518 1.368 . S
C524 C523 1.523 . S
C525 C509 1.429 . S
C525 C521 1.429 . S
C525 C526 1.523 . S
C526 C510 1.368 . S
C526 C522 1.368 . S
C526 C525 1.523 . S
H527 C502 0.950 . S
H528 C504 0.950 . S
H529 C505 0.949 . S
H530 C507 0.950 . S
H531 C509 0.950 . S
C532 C533 1.349 . S
C532 C534 1.327 . S
C532 H557 0.950 . S
C533 C532 1.349 . S
C533 C549 1.349 . S
C534 C532 1.327 . S
C534 C553 1.429 . S
C534 H558 0.950 . S
C535 C552 1.574 . S
C535 C554 1.368 . S
C535 H559 0.949 . S
H536 C540 0.949 . S
C537 C538 1.349 . S
C537 C539 1.327 . S
C537 H560 0.950 . S
C538 C537 1.349 . S
C538 C550 1.349 . S
C539 C537 1.327 . S
C539 C555 1.429 . S
C539 H561 0.950 . S
C540 H536 0.949 . S
C540 C548 1.574 . S
C540 C556 1.368 . S
H541 C549 0.950 . S
H542 C547 0.950 . S
H543 C548 0.949 . S
H544 C550 0.950 . S
H545 C551 0.950 . S
H546 C552 0.949 . S
C547 H542 0.950 . S
C547 C549 1.327 . S
C547 C553 1.429 . S
C548 C540 1.574 . S
C548 H543 0.949 . S
C548 C554 1.368 . S
C549 C533 1.349 . S
C549 H541 0.950 . S
C549 C547 1.327 . S
C550 C538 1.349 . S
C550 H544 0.950 . S
C550 C551 1.327 . S
C551 H545 0.950 . S
C551 C550 1.327 . S
C551 C555 1.429 . S
C552 C535 1.574 . S
C552 H546 0.949 . S
C552 C556 1.368 . S
C553 C534 1.429 . S
C553 C547 1.429 . S
C553 C554 1.523 . S
C554 C535 1.368 . S
C554 C548 1.368 . S
C554 C553 1.523 . S
C555 C539 1.429 . S
C555 C551 1.429 . S
C555 C556 1.523 . S
C556 C540 1.368 . S
C556 C552 1.368 . S
C556 C555 1.523 . S
H557 C532 0.950 . S
H558 C534 0.950 . S
H559 C535 0.949 . S
H560 C537 0.950 . S
H561 C539 0.950 . S
C562 C563 1.349 . S
C562 C564 1.327 1_455 S
C562 H587 0.950 . S
C563 C562 1.349 . S
C563 C579 1.349 . S
C564 C562 1.327 1_655 S
C564 C583 1.429 . S
C564 H588 0.950 . S
C565 C582 1.574 . S
C565 C584 1.368 . S
C565 H589 0.949 . S
H566 C570 0.949 . S
C567 C568 1.349 . S
C567 C569 1.327 . S
C567 H590 0.950 . S
C568 C567 1.349 . S
C568 C580 1.349 . S
C569 C567 1.327 . S
C569 C585 1.429 . S
C569 H591 0.950 . S
C570 H566 0.949 . S
C570 C578 1.574 . S
C570 C586 1.368 . S
H571 C579 0.950 . S
H572 C577 0.950 . S
H573 C578 0.949 . S
H574 C580 0.950 . S
H575 C581 0.950 . S
H576 C582 0.949 . S
C577 H572 0.950 . S
C577 C579 1.327 . S
C577 C583 1.429 1_455 S
C578 C570 1.574 . S
C578 H573 0.949 . S
C578 C584 1.368 . S
C579 C563 1.349 . S
C579 H571 0.950 . S
C579 C577 1.327 . S
C580 C568 1.349 . S
C580 H574 0.950 . S
C580 C581 1.327 . S
C581 H575 0.950 . S
C581 C580 1.327 . S
C581 C585 1.429 . S
C582 C565 1.574 . S
C582 H576 0.949 . S
C582 C586 1.368 . S
C583 C564 1.429 . S
C583 C577 1.429 1_655 S
C583 C584 1.523 . S
C584 C565 1.368 . S
C584 C578 1.368 . S
C584 C583 1.523 . S
C585 C569 1.429 . S
C585 C581 1.429 . S
C585 C586 1.523 . S
C586 C570 1.368 . S
C586 C582 1.368 . S
C586 C585 1.523 . S
H587 C562 0.950 . S
H588 C564 0.950 . S
H589 C565 0.949 . S
H590 C567 0.950 . S
H591 C569 0.950 . S
C592 C593 1.349 . S
C592 C594 1.327 . S
C592 H617 0.950 . S
C593 C592 1.349 . S
C593 C609 1.349 . S
C594 C592 1.327 . S
C594 C613 1.429 . S
C594 H618 0.950 . S
C595 C612 1.574 . S
C595 C614 1.368 . S
C595 H619 0.949 . S
H596 C600 0.949 . S
C597 C598 1.349 . S
C597 C599 1.327 . S
C597 H620 0.950 . S
C598 C597 1.349 . S
C598 C610 1.349 . S
C599 C597 1.327 . S
C599 C615 1.429 . S
C599 H621 0.950 . S
C600 H596 0.949 . S
C600 C608 1.574 . S
C600 C616 1.368 . S
H601 C609 0.950 . S
H602 C607 0.950 . S
H603 C608 0.949 . S
H604 C610 0.950 . S
H605 C611 0.950 . S
H606 C612 0.949 . S
C607 H602 0.950 . S
C607 C609 1.327 . S
C607 C613 1.429 . S
C608 C600 1.574 . S
C608 H603 0.949 . S
C608 C614 1.368 . S
C609 C593 1.349 . S
C609 H601 0.950 . S
C609 C607 1.327 . S
C610 C598 1.349 . S
C610 H604 0.950 . S
C610 C611 1.327 . S
C611 H605 0.950 . S
C611 C610 1.327 . S
C611 C615 1.429 . S
C612 C595 1.574 . S
C612 H606 0.949 . S
C612 C616 1.368 . S
C613 C594 1.429 . S
C613 C607 1.429 . S
C613 C614 1.523 . S
C614 C595 1.368 . S
C614 C608 1.368 . S
C614 C613 1.523 . S
C615 C599 1.429 . S
C615 C611 1.429 . S
C615 C616 1.523 . S
C616 C600 1.368 . S
C616 C612 1.368 . S
C616 C615 1.523 . S
H617 C592 0.950 . S
H618 C594 0.950 . S
H619 C595 0.949 . S
H620 C597 0.950 . S
H621 C599 0.950 . S
C622 C623 1.349 . S
C622 C624 1.327 . S
C622 H647 0.950 . S
C623 C622 1.349 . S
C623 C639 1.349 . S
C624 C622 1.327 . S
C624 C643 1.429 . S
C624 H648 0.950 . S
C625 C642 1.574 . S
C625 C644 1.368 . S
C625 H649 0.949 . S
H626 C630 0.949 . S
C627 C628 1.349 . S
C627 C629 1.327 . S
C627 H650 0.950 . S
C628 C627 1.349 . S
C628 C640 1.349 . S
C629 C627 1.327 . S
C629 C645 1.429 . S
C629 H651 0.950 . S
C630 H626 0.949 . S
C630 C638 1.574 . S
C630 C646 1.368 . S
H631 C639 0.950 . S
H632 C637 0.950 . S
H633 C638 0.949 . S
H634 C640 0.950 . S
H635 C641 0.950 . S
H636 C642 0.949 . S
C637 H632 0.950 . S
C637 C639 1.327 . S
C637 C643 1.429 . S
C638 C630 1.574 . S
C638 H633 0.949 . S
C638 C644 1.368 . S
C639 C623 1.349 . S
C639 H631 0.950 . S
C639 C637 1.327 . S
C640 C628 1.349 . S
C640 H634 0.950 . S
C640 C641 1.327 . S
C641 H635 0.950 . S
C641 C640 1.327 . S
C641 C645 1.429 . S
C642 C625 1.574 . S
C642 H636 0.949 . S
C642 C646 1.368 . S
C643 C624 1.429 . S
C643 C637 1.429 . S
C643 C644 1.523 1_655 S
C644 C625 1.368 . S
C644 C638 1.368 . S
C644 C643 1.523 1_455 S
C645 C629 1.429 . S
C645 C641 1.429 . S
C645 C646 1.523 . S
C646 C630 1.368 . S
C646 C642 1.368 . S
C646 C645 1.523 . S
H647 C622 0.950 . S
H648 C624 0.950 . S
H649 C625 0.949 . S
H650 C627 0.950 . S
H651 C629 0.950 . S
C652 C653 1.349 . S
C652 C654 1.327 . S
C652 H677 0.950 . S
C653 C652 1.349 . S
C653 C669 1.349 . S
C654 C652 1.327 . S
C654 C673 1.429 . S
C654 H678 0.950 . S
C655 C672 1.574 . S
C655 C674 1.368 . S
C655 H679 0.949 . S
H656 C660 0.949 . S
C657 C658 1.349 . S
C657 C659 1.327 . S
C657 H680 0.950 . S
C658 C657 1.349 . S
C658 C670 1.349 . S
C659 C657 1.327 . S
C659 C675 1.429 . S
C659 H681 0.950 . S
C660 H656 0.949 . S
C660 C668 1.574 . S
C660 C676 1.368 . S
H661 C669 0.950 . S
H662 C667 0.950 . S
H663 C668 0.949 . S
H664 C670 0.950 . S
H665 C671 0.950 . S
H666 C672 0.949 . S
C667 H662 0.950 . S
C667 C669 1.327 . S
C667 C673 1.429 . S
C668 C660 1.574 . S
C668 H663 0.949 . S
C668 C674 1.368 . S
C669 C653 1.349 . S
C669 H661 0.950 . S
C669 C667 1.327 . S
C670 C658 1.349 . S
C670 H664 0.950 . S
C670 C671 1.327 . S
C671 H665 0.950 . S
C671 C670 1.327 . S
C671 C675 1.429 . S
C672 C655 1.574 . S
C672 H666 0.949 . S
C672 C676 1.368 . S
C673 C654 1.429 . S
C673 C667 1.429 . S
C673 C674 1.523 . S
C674 C655 1.368 . S
C674 C668 1.368 . S
C674 C673 1.523 . S
C675 C659 1.429 . S
C675 C671 1.429 . S
C675 C676 1.523 . S
C676 C660 1.368 . S
C676 C672 1.368 . S
C676 C675 1.523 . S
H677 C652 0.950 . S
H678 C654 0.950 . S
H679 C655 0.949 . S
H680 C657 0.950 . S
H681 C659 0.950 . S
C682 C683 1.349 . S
C682 C684 1.327 . S
C682 H707 0.950 . S
C683 C682 1.349 . S
C683 C699 1.349 . S
C684 C682 1.327 . S
C684 C703 1.429 . S
C684 H708 0.950 . S
C685 C702 1.574 . S
C685 C704 1.368 . S
C685 H709 0.949 . S
H686 C690 0.949 . S
C687 C688 1.349 . S
C687 C689 1.327 . S
C687 H710 0.950 . S
C688 C687 1.349 . S
C688 C700 1.349 . S
C689 C687 1.327 . S
C689 C705 1.429 . S
C689 H711 0.950 . S
C690 H686 0.949 . S
C690 C698 1.574 . S
C690 C706 1.368 . S
H691 C699 0.950 . S
H692 C697 0.950 . S
H693 C698 0.949 . S
H694 C700 0.950 . S
H695 C701 0.950 . S
H696 C702 0.949 . S
C697 H692 0.950 . S
C697 C699 1.327 . S
C697 C703 1.429 . S
C698 C690 1.574 . S
C698 H693 0.949 . S
C698 C704 1.368 . S
C699 C683 1.349 . S
C699 H691 0.950 . S
C699 C697 1.327 . S
C700 C688 1.349 . S
C700 H694 0.950 . S
C700 C701 1.327 . S
C701 H695 0.950 . S
C701 C700 1.327 . S
C701 C705 1.429 . S
C702 C685 1.574 . S
C702 H696 0.949 . S
C702 C706 1.368 . S
C703 C684 1.429 . S
C703 C697 1.429 . S
C703 C704 1.523 . S
C704 C685 1.368 . S
C704 C698 1.368 . S
C704 C703 1.523 . S
C705 C689 1.429 . S
C705 C701 1.429 . S
C705 C706 1.523 . S
C706 C690 1.368 . S
C706 C702 1.368 . S
C706 C705 1.523 . S
H707 C682 0.950 . S
H708 C684 0.950 . S
H709 C685 0.949 . S
H710 C687 0.950 . S
H711 C689 0.950 . S
C712 C713 1.349 . S
C712 C714 1.327 . S
C712 H737 0.950 . S
C713 C712 1.349 . S
C713 C729 1.349 . S
C714 C712 1.327 . S
C714 C733 1.429 . S
C714 H738 0.950 . S
C715 C732 1.574 . S
C715 C734 1.368 . S
C715 H739 0.949 . S
H716 C720 0.949 . S
C717 C718 1.349 . S
C717 C719 1.327 . S
C717 H740 0.950 . S
C718 C717 1.349 . S
C718 C730 1.349 . S
C719 C717 1.327 . S
C719 C735 1.429 . S
C719 H741 0.950 . S
C720 H716 0.949 . S
C720 C728 1.574 . S
C720 C736 1.368 . S
H721 C729 0.950 . S
H722 C727 0.950 . S
H723 C728 0.949 . S
H724 C730 0.950 . S
H725 C731 0.950 . S
H726 C732 0.949 . S
C727 H722 0.950 . S
C727 C729 1.327 . S
C727 C733 1.429 . S
C728 C720 1.574 . S
C728 H723 0.949 . S
C728 C734 1.368 . S
C729 C713 1.349 . S
C729 H721 0.950 . S
C729 C727 1.327 . S
C730 C718 1.349 . S
C730 H724 0.950 . S
C730 C731 1.327 . S
C731 H725 0.950 . S
C731 C730 1.327 . S
C731 C735 1.429 . S
C732 C715 1.574 . S
C732 H726 0.949 . S
C732 C736 1.368 . S
C733 C714 1.429 . S
C733 C727 1.429 . S
C733 C734 1.523 . S
C734 C715 1.368 . S
C734 C728 1.368 . S
C734 C733 1.523 . S
C735 C719 1.429 . S
C735 C731 1.429 . S
C735 C736 1.523 . S
C736 C720 1.368 . S
C736 C732 1.368 . S
C736 C735 1.523 . S
H737 C712 0.950 . S
H738 C714 0.950 . S
H739 C715 0.949 . S
H740 C717 0.950 . S
H741 C719 0.950 . S
C742 C743 1.349 . S
C742 C744 1.327 . S
C742 H767 0.950 . S
C743 C742 1.349 . S
C743 C759 1.349 . S
C744 C742 1.327 . S
C744 C763 1.429 . S
C744 H768 0.950 . S
C745 C762 1.574 . S
C745 C764 1.368 . S
C745 H769 0.949 . S
H746 C750 0.949 . S
C747 C748 1.349 . S
C747 C749 1.327 . S
C747 H770 0.950 . S
C748 C747 1.349 . S
C748 C760 1.349 . S
C749 C747 1.327 . S
C749 C765 1.429 . S
C749 H771 0.950 . S
C750 H746 0.949 . S
C750 C758 1.574 . S
C750 C766 1.368 . S
H751 C759 0.950 . S
H752 C757 0.950 . S
H753 C758 0.949 . S
H754 C760 0.950 . S
H755 C761 0.950 . S
H756 C762 0.949 . S
C757 H752 0.950 . S
C757 C759 1.327 . S
C757 C763 1.429 . S
C758 C750 1.574 . S
C758 H753 0.949 . S
C758 C764 1.368 . S
C759 C743 1.349 . S
C759 H751 0.950 . S
C759 C757 1.327 . S
C760 C748 1.349 . S
C760 H754 0.950 . S
C760 C761 1.327 . S
C761 H755 0.950 . S
C761 C760 1.327 . S
C761 C765 1.429 . S
C762 C745 1.574 . S
C762 H756 0.949 . S
C762 C766 1.368 . S
C763 C744 1.429 . S
C763 C757 1.429 . S
C763 C764 1.523 . S
C764 C745 1.368 . S
C764 C758 1.368 . S
C764 C763 1.523 . S
C765 C749 1.429 . S
C765 C761 1.429 . S
C765 C766 1.523 . S
C766 C750 1.368 . S
C766 C762 1.368 . S
C766 C765 1.523 . S
H767 C742 0.950 . S
H768 C744 0.950 . S
H769 C745 0.949 . S
H770 C747 0.950 . S
H771 C749 0.950 . S
C772 C773 1.349 . S
C772 C774 1.327 . S
C772 H797 0.950 . S
C773 C772 1.349 . S
C773 C789 1.349 . S
C774 C772 1.327 . S
C774 C793 1.429 . S
C774 H798 0.950 . S
C775 C792 1.574 . S
C775 C794 1.368 . S
C775 H799 0.949 . S
H776 C780 0.949 . S
C777 C778 1.349 . S
C777 C779 1.327 . S
C777 H800 0.950 . S
C778 C777 1.349 . S
C778 C790 1.349 . S
C779 C777 1.327 . S
C779 C795 1.429 . S
C779 H801 0.950 . S
C780 H776 0.949 . S
C780 C788 1.574 . S
C780 C796 1.368 . S
H781 C789 0.950 . S
H782 C787 0.950 . S
H783 C788 0.949 . S
H784 C790 0.950 . S
H785 C791 0.950 . S
H786 C792 0.949 . S
C787 H782 0.950 . S
C787 C789 1.327 . S
C787 C793 1.429 . S
C788 C780 1.574 . S
C788 H783 0.949 . S
C788 C794 1.368 . S
C789 C773 1.349 . S
C789 H781 0.950 . S
C789 C787 1.327 . S
C790 C778 1.349 . S
C790 H784 0.950 . S
C790 C791 1.327 . S
C791 H785 0.950 . S
C791 C790 1.327 . S
C791 C795 1.429 . S
C792 C775 1.574 . S
C792 H786 0.949 . S
C792 C796 1.368 . S
C793 C774 1.429 . S
C793 C787 1.429 . S
C793 C794 1.523 . S
C794 C775 1.368 . S
C794 C788 1.368 . S
C794 C793 1.523 . S
C795 C779 1.429 . S
C795 C791 1.429 . S
C795 C796 1.523 . S
C796 C780 1.368 . S
C796 C792 1.368 . S
C796 C795 1.523 . S
H797 C772 0.950 . S
H798 C774 0.950 . S
H799 C775 0.949 . S
H800 C777 0.950 . S
H801 C779 0.950 . S
C802 C803 1.349 . S
C802 C804 1.327 . S
C802 H827 0.950 . S
C803 C802 1.349 . S
C803 C819 1.349 . S
C804 C802 1.327 . S
C804 C823 1.429 . S
C804 H828 0.950 . S
C805 C822 1.574 . S
C805 C824 1.368 . S
C805 H829 0.949 . S
H806 C810 0.949 . S
C807 C808 1.349 . S
C807 C809 1.327 . S
C807 H830 0.950 . S
C808 C807 1.349 . S
C808 C820 1.349 . S
C809 C807 1.327 . S
C809 C825 1.429 . S
C809 H831 0.950 . S
C810 H806 0.949 . S
C810 C818 1.574 . S
C810 C826 1.368 . S
H811 C819 0.950 . S
H812 C817 0.950 . S
H813 C818 0.949 . S
H814 C820 0.950 . S
H815 C821 0.950 . S
H816 C822 0.949 . S
C817 H812 0.950 . S
C817 C819 1.327 . S
C817 C823 1.429 . S
C818 C810 1.574 . S
C818 H813 0.949 . S
C818 C824 1.368 . S
C819 C803 1.349 . S
C819 H811 0.950 . S
C819 C817 1.327 . S
C820 C808 1.349 . S
C820 H814 0.950 . S
C820 C821 1.327 . S
C821 H815 0.950 . S
C821 C820 1.327 . S
C821 C825 1.429 . S
C822 C805 1.574 . S
C822 H816 0.949 . S
C822 C826 1.368 . S
C823 C804 1.429 . S
C823 C817 1.429 . S
C823 C824 1.523 . S
C824 C805 1.368 . S
C824 C818 1.368 . S
C824 C823 1.523 . S
C825 C809 1.429 . S
C825 C821 1.429 . S
C825 C826 1.523 . S
C826 C810 1.368 . S
C826 C822 1.368 . S
C826 C825 1.523 . S
H827 C802 0.950 . S
H828 C804 0.950 . S
H829 C805 0.949 . S
H830 C807 0.950 . S
H831 C809 0.950 . S
C832 C833 1.349 . S
C832 C834 1.327 . S
C832 H857 0.950 . S
C833 C832 1.349 . S
C833 C849 1.349 . S
C834 C832 1.327 . S
C834 C853 1.429 . S
C834 H858 0.950 . S
C835 C852 1.574 . S
C835 C854 1.368 . S
C835 H859 0.949 . S
H836 C840 0.949 . S
C837 C838 1.349 . S
C837 C839 1.327 . S
C837 H860 0.950 . S
C838 C837 1.349 . S
C838 C850 1.349 . S
C839 C837 1.327 . S
C839 C855 1.429 . S
C839 H861 0.950 . S
C840 H836 0.949 . S
C840 C848 1.574 . S
C840 C856 1.368 . S
H841 C849 0.950 . S
H842 C847 0.950 . S
H843 C848 0.949 . S
H844 C850 0.950 . S
H845 C851 0.950 . S
H846 C852 0.949 . S
C847 H842 0.950 . S
C847 C849 1.327 . S
C847 C853 1.429 . S
C848 C840 1.574 . S
C848 H843 0.949 . S
C848 C854 1.368 . S
C849 C833 1.349 . S
C849 H841 0.950 . S
C849 C847 1.327 . S
C850 C838 1.349 . S
C850 H844 0.950 . S
C850 C851 1.327 . S
C851 H845 0.950 . S
C851 C850 1.327 . S
C851 C855 1.429 . S
C852 C835 1.574 . S
C852 H846 0.949 . S
C852 C856 1.368 . S
C853 C834 1.429 . S
C853 C847 1.429 . S
C853 C854 1.523 . S
C854 C835 1.368 . S
C854 C848 1.368 . S
C854 C853 1.523 . S
C855 C839 1.429 . S
C855 C851 1.429 . S
C855 C856 1.523 . S
C856 C840 1.368 . S
C856 C852 1.368 . S
C856 C855 1.523 . S
H857 C832 0.950 . S
H858 C834 0.950 . S
H859 C835 0.949 . S
H860 C837 0.950 . S
H861 C839 0.950 . S
C862 C863 1.349 . S
C862 C864 1.327 . S
C862 H887 0.950 1_556 S
C863 C862 1.349 . S
C863 C879 1.349 . S
C864 C862 1.327 . S
C864 C883 1.429 . S
C864 H888 0.950 . S
C865 C882 1.574 . S
C865 C884 1.368 . S
C865 H889 0.949 . S
H866 C870 0.949 . S
C867 C868 1.349 . S
C867 C869 1.327 . S
C867 H890 0.950 . S
C868 C867 1.349 . S
C868 C880 1.349 . S
C869 C867 1.327 . S
C869 C885 1.429 . S
C869 H891 0.950 . S
C870 H866 0.949 . S
C870 C878 1.574 . S
C870 C886 1.368 . S
H871 C879 0.950 . S
H872 C877 0.950 . S
H873 C878 0.949 . S
H874 C880 0.950 . S
H875 C881 0.950 . S
H876 C882 0.949 . S
C877 H872 0.950 . S
C877 C879 1.327 . S
C877 C883 1.429 . S
C878 C870 1.574 . S
C878 H873 0.949 . S
C878 C884 1.368 . S
C879 C863 1.349 . S
C879 H871 0.950 . S
C879 C877 1.327 . S
C880 C868 1.349 . S
C880 H874 0.950 . S
C880 C881 1.327 . S
C881 H875 0.950 . S
C881 C880 1.327 . S
C881 C885 1.429 . S
C882 C865 1.574 . S
C882 H876 0.949 . S
C882 C886 1.368 . S
C883 C864 1.429 . S
C883 C877 1.429 . S
C883 C884 1.523 . S
C884 C865 1.368 . S
C884 C878 1.368 . S
C884 C883 1.523 . S
C885 C869 1.429 . S
C885 C881 1.429 . S
C885 C886 1.523 . S
C886 C870 1.368 . S
C886 C882 1.368 . S
C886 C885 1.523 . S
H887 C862 0.950 1_554 S
H888 C864 0.950 . S
H889 C865 0.949 . S
H890 C867 0.950 . S
H891 C869 0.950 . S
C173 C7 0.660 . S
C178 C89 0.644 . S
C203 C25 0.715 . S
C208 C100 0.709 . S
C233 C46 0.717 . S
C238 C110 0.709 . S
C268 C122 0.587 . S
C263 C70 0.614 . S
C298 C133 0.644 . S
C293 C28 0.660 . S
C323 C49 0.614 . S
C328 C144 0.587 . S
C353 C67 0.717 . S
C358 C154 0.709 . S
C383 C4 0.715 . S
C388 C166 0.708 . S
C413 C58 1.627 . S
C418 C165 1.732 . S
C448 C132 1.605 . S
C443 C66 1.517 . S
C478 C143 1.706 . S
C473 C3 1.635 . S
C503 C37 1.771 . S
C508 C155 1.847 . S
C538 C99 1.732 . S
C533 C79 1.627 . S
C563 C16 1.771 . S
C568 C111 1.847 . S
C598 C121 1.706 . S
C593 C24 1.635 . S
C628 C88 1.605 . S
C623 C45 1.517 . S
C658 C160 1.433 . S
C653 C19 1.293 . S
C688 C171 1.419 . S
C683 C41 1.282 . S
C713 C62 1.177 . S
C718 C138 1.288 . S
C748 C149 1.265 . S
C743 C82 1.140 . S
C778 C116 1.433 . S
C773 C40 1.293 . S
C803 C61 1.140 . S
C808 C127 1.265 . S
C838 C94 1.288 . S
C833 C83 1.177 . S
C868 C105 1.419 . S
C863 C20 1.282 . S
