# Generated by pormake.
# Topology dag, (6,3)-cn, num edge types: 1
# Building blocks:
#     Node 0, Type 0, BuildingBlock: OJICUG_clean_sbu_0, # of connection points: 6
#     Node 1, Type 0, BuildingBlock: OJICUG_clean_sbu_0, # of connection points: 6
#     Node 2, Type 0, BuildingBlock: OJICUG_clean_sbu_0, # of connection points: 6
#     Node 3, Type 0, BuildingBlock: OJICUG_clean_sbu_0, # of connection points: 6
#     Node 4, Type 1, BuildingBlock: ESEHIV_clean_linker_0, # of connection points: 3
#     Node 5, Type 1, BuildingBlock: ESEHIV_clean_linker_0, # of connection points: 3
#     Node 6, Type 1, BuildingBlock: ESEHIV_clean_linker_0, # of connection points: 3
#     Node 7, Type 1, BuildingBlock: ESEHIV_clean_linker_0, # of connection points: 3
#     Node 8, Type 1, BuildingBlock: ESEHIV_clean_linker_0, # of connection points: 3
#     Node 9, Type 1, BuildingBlock: ESEHIV_clean_linker_0, # of connection points: 3
#     Node 10, Type 1, BuildingBlock: ESEHIV_clean_linker_0, # of connection points: 3
#     Node 11, Type 1, BuildingBlock: ESEHIV_clean_linker_0, # of connection points: 3
#     Edge 12, Type (0, 1), BuildingBlock: EZIPEK_clean_linker_0, # of connection points: 2
#     Edge 13, Type (0, 1), BuildingBlock: EZIPEK_clean_linker_0, # of connection points: 2
#     Edge 14, Type (0, 1), BuildingBlock: EZIPEK_clean_linker_0, # of connection points: 2
#     Edge 15, Type (0, 1), BuildingBlock: EZIPEK_clean_linker_0, # of connection points: 2
#     Edge 16, Type (0, 1), BuildingBlock: EZIPEK_clean_linker_0, # of connection points: 2
#     Edge 17, Type (0, 1), BuildingBlock: EZIPEK_clean_linker_0, # of connection points: 2
#     Edge 18, Type (0, 1), BuildingBlock: EZIPEK_clean_linker_0, # of connection points: 2
#     Edge 19, Type (0, 1), BuildingBlock: EZIPEK_clean_linker_0, # of connection points: 2
#     Edge 20, Type (0, 1), BuildingBlock: EZIPEK_clean_linker_0, # of connection points: 2
#     Edge 21, Type (0, 1), BuildingBlock: EZIPEK_clean_linker_0, # of connection points: 2
#     Edge 22, Type (0, 1), BuildingBlock: EZIPEK_clean_linker_0, # of connection points: 2
#     Edge 23, Type (0, 1), BuildingBlock: EZIPEK_clean_linker_0, # of connection points: 2
#     Edge 24, Type (0, 1), BuildingBlock: EZIPEK_clean_linker_0, # of connection points: 2
#     Edge 25, Type (0, 1), BuildingBlock: EZIPEK_clean_linker_0, # of connection points: 2
#     Edge 26, Type (0, 1), BuildingBlock: EZIPEK_clean_linker_0, # of connection points: 2
#     Edge 27, Type (0, 1), BuildingBlock: EZIPEK_clean_linker_0, # of connection points: 2
#     Edge 28, Type (0, 1), BuildingBlock: EZIPEK_clean_linker_0, # of connection points: 2
#     Edge 29, Type (0, 1), BuildingBlock: EZIPEK_clean_linker_0, # of connection points: 2
#     Edge 30, Type (0, 1), BuildingBlock: EZIPEK_clean_linker_0, # of connection points: 2
#     Edge 31, Type (0, 1), BuildingBlock: EZIPEK_clean_linker_0, # of connection points: 2
#     Edge 32, Type (0, 1), BuildingBlock: EZIPEK_clean_linker_0, # of connection points: 2
#     Edge 33, Type (0, 1), BuildingBlock: EZIPEK_clean_linker_0, # of connection points: 2
#     Edge 34, Type (0, 1), BuildingBlock: EZIPEK_clean_linker_0, # of connection points: 2
#     Edge 35, Type (0, 1), BuildingBlock: EZIPEK_clean_linker_0, # of connection points: 2
# Relax obj value: 0.253
# Max RMSD: 0.198
# Mean RMSD: 0.164
data_MOF--net-dag--node1-OJICUG_clean_sbu_0--node2-ESEHIV_clean_linker_0--edge1-EZIPEK_clean_linker_0
_symmetry_space_group_name_H-M    P1
_symmetry_Int_Tables_number       1
_symmetry_cell_setting            triclinic
loop_
_symmetry_equiv_pos_as_xyz
'x, y, z'
_cell_length_a     24.610712
_cell_length_b     25.72243
_cell_length_c     25.294472
_cell_angle_alpha  95.387495
_cell_angle_beta   89.991338
_cell_angle_gamma 90.005813
loop_
_atom_site_label
_atom_site_type_symbol
_atom_site_fract_x
_atom_site_fract_y
_atom_site_fract_z
_atom_type_partial_charge
Sc0 Sc 0.10721 0.87142 0.03154 0.0
Sc1 Sc 0.13163 0.73654 0.02881 0.0
Sc2 Sc 0.22312 0.8267 0.09464 0.0
O3 O 0.15391 0.81152 0.05169 0.0
C4 C 0.2254 0.9172 0.01658 0.0
C5 C 0.10104 0.79192 0.92628 0.0
C6 C 0.26032 0.73406 0.01187 0.0
C7 C 0.01691 0.79026 0.05782 0.0
C8 C 0.14297 0.91048 0.15056 0.0
C9 C 0.17437 0.72741 0.14511 0.0
O10 O 0.17586 0.91192 0.00308 0.0
O11 O 0.11884 0.75239 0.94747 0.0
O12 O 0.2703 0.77646 0.03998 0.0
O13 O 0.03349 0.83695 0.05724 0.0
O14 O 0.18183 0.87837 0.15325 0.0
O15 O 0.14166 0.71321 0.10772 0.0
O16 O 0.11446 0.91346 0.10903 0.0
O17 O 0.04689 0.75048 0.04684 0.0
O18 O 0.20747 0.76509 0.14399 0.0
O19 O 0.09389 0.83631 0.95192 0.0
O20 O 0.24787 0.89094 0.05065 0.0
O21 O 0.21327 0.71387 0.00672 0.0
Sc22 Sc 0.71177 0.66555 0.45891 0.0
Sc23 Sc 0.62884 0.7715 0.50949 0.0
Sc24 Sc 0.58506 0.64144 0.5147 0.0
O25 O 0.6419 0.69298 0.49429 0.0
C26 C 0.6211 0.58894 0.40271 0.0
C27 C 0.68113 0.76202 0.39424 0.0
C28 C 0.50962 0.73293 0.47874 0.0
C29 C 0.75532 0.76217 0.53516 0.0
C30 C 0.69476 0.58043 0.53907 0.0
C31 C 0.58846 0.72515 0.61593 0.0
O32 O 0.66896 0.60801 0.4061 0.0
O33 O 0.65193 0.78598 0.43016 0.0
O34 O 0.51819 0.68666 0.48991 0.0
O35 O 0.76209 0.71829 0.5086 0.0
O36 O 0.64359 0.5871 0.5406 0.0
O37 O 0.6043 0.76315 0.59082 0.0
O38 O 0.72632 0.60938 0.51522 0.0
O39 O 0.71027 0.78634 0.53777 0.0
O40 O 0.58121 0.67907 0.59407 0.0
O41 O 0.70519 0.71906 0.39917 0.0
O42 O 0.58448 0.59973 0.43734 0.0
O43 O 0.54571 0.76825 0.4823 0.0
Sc44 Sc 0.86185 0.25683 0.01184 0.0
Sc45 Sc 0.77007 0.1631 0.9505 0.0
Sc46 Sc 0.88535 0.1229 0.01808 0.0
O47 O 0.83895 0.18099 0.99347 0.0
C48 C 0.97456 0.2019 0.98207 0.0
C49 C 0.81698 0.25961 0.89456 0.0
C50 C 0.85272 0.07705 0.90109 0.0
C51 C 0.73373 0.25953 0.03101 0.0
C52 C 0.89316 0.2065 0.11847 0.0
C53 C 0.76667 0.0771 0.033 0.0
O54 O 0.9445 0.24227 0.98558 0.0
O55 O 0.78822 0.21873 0.89492 0.0
O56 O 0.88286 0.07947 0.94189 0.0
O57 O 0.78141 0.27756 0.03932 0.0
O58 O 0.89417 0.15992 0.09696 0.0
O59 O 0.74324 0.10437 0.00042 0.0
O60 O 0.88217 0.24529 0.09288 0.0
O61 O 0.72308 0.21907 -6e-05 0.0
O62 O 0.81681 0.08115 0.04438 0.0
O63 O 0.84489 0.27868 0.93378 0.0
O64 O 0.95874 0.15737 0.99331 0.0
O65 O 0.8102 0.10456 0.89749 0.0
Sc66 Sc 0.41122 0.35144 0.52507 0.0
Sc67 Sc 0.2889 0.33364 0.58914 0.0
Sc68 Sc 0.36243 0.22504 0.52964 0.0
O69 O 0.35415 0.30301 0.5483 0.0
C70 C 0.40734 0.26598 0.42552 0.0
C71 C 0.30821 0.41484 0.5024 0.0
C72 C 0.23588 0.24613 0.51056 0.0
C73 C 0.37901 0.40696 0.6396 0.0
C74 C 0.48225 0.26195 0.56416 0.0
C75 C 0.31551 0.23068 0.64572 0.0
O76 O 0.42574 0.30702 0.45079 0.0
O77 O 0.28301 0.40061 0.54265 0.0
O78 O 0.2776 0.21675 0.5086 0.0
O79 O 0.40538 0.40483 0.59626 0.0
O80 O 0.44856 0.22594 0.54908 0.0
O81 O 0.28854 0.27223 0.64144 0.0
O82 O 0.4728 0.31031 0.56268 0.0
O83 O 0.33812 0.3784 0.64658 0.0
O84 O 0.34722 0.21012 0.61015 0.0
O85 O 0.35156 0.39292 0.48489 0.0
O86 O 0.37848 0.23278 0.44678 0.0
O87 O 0.23417 0.29145 0.53519 0.0
H88 H 0.01356 0.09405 0.23069 0.0
H89 H 0.12942 0.08521 0.35641 0.0
H90 H 0.02811 0.22135 0.35281 0.0
C91 C 0.03102 0.11043 0.26798 0.0
C92 C 0.01468 0.16002 0.28997 0.0
C93 C 0.07196 0.08314 0.29202 0.0
C94 C 0.09594 0.10516 0.3391 0.0
C95 C 0.08073 0.15524 0.36064 0.0
C96 C 0.03895 0.1821 0.33694 0.0
H97 H 0.4894 0.60764 0.72459 0.0
H98 H 0.37772 0.5768 0.84824 0.0
H99 H 0.46168 0.72425 0.85493 0.0
C100 C 0.4709 0.61925 0.76283 0.0
C101 C 0.48141 0.66902 0.78832 0.0
C102 C 0.43426 0.58555 0.78461 0.0
C103 C 0.40857 0.60148 0.8329 0.0
C104 C 0.41778 0.6518 0.85784 0.0
C105 C 0.45567 0.68488 0.83651 0.0
H106 H 0.80641 0.87609 0.06898 0.0
H107 H 0.78832 0.76619 0.18672 0.0
H108 H 0.6846 0.89864 0.18951 0.0
C109 C 0.78477 0.86065 0.10134 0.0
C110 C 0.74299 0.89135 0.12579 0.0
C111 C 0.80042 0.81252 0.11968 0.0
C112 C 0.7753 0.79889 0.16661 0.0
C113 C 0.73399 0.82975 0.19144 0.0
C114 C 0.7162 0.87467 0.16979 0.0
H115 H 0.66853 0.36361 0.58182 0.0
H116 H 0.71468 0.26233 0.69963 0.0
H117 H 0.79917 0.40764 0.68945 0.0
C118 C 0.69642 0.35372 0.61257 0.0
C119 C 0.73655 0.38951 0.63091 0.0
C120 C 0.68824 0.30801 0.63747 0.0
C121 C 0.72233 0.29678 0.67909 0.0
C122 C 0.76179 0.33303 0.69842 0.0
C123 C 0.77015 0.37869 0.67323 0.0
H124 H 0.50751 0.39042 0.31862 0.0
H125 H 0.62033 0.41732 0.19466 0.0
H126 H 0.53036 0.27321 0.18774 0.0
C127 C 0.52546 0.37816 0.28029 0.0
C128 C 0.51312 0.3287 0.25488 0.0
C129 C 0.56324 0.41067 0.25824 0.0
C130 C 0.58851 0.39377 0.21005 0.0
C131 C 0.57719 0.34394 0.18497 0.0
C132 C 0.53798 0.31223 0.20635 0.0
H133 H 0.18553 0.10419 0.96176 0.0
H134 H 0.20059 0.21122 0.84259 0.0
H135 H 0.32188 0.09216 0.85463 0.0
C136 C 0.20902 0.11937 0.93031 0.0
C137 C 0.25675 0.0938 0.91205 0.0
C138 C 0.18926 0.16212 0.90598 0.0
C139 C 0.21758 0.18 0.86342 0.0
C140 C 0.26505 0.15451 0.84456 0.0
C141 C 0.28578 0.11248 0.86995 0.0
H142 H 0.31798 0.64032 0.4666 0.0
H143 H 0.27231 0.73478 0.34313 0.0
H144 H 0.1995 0.58353 0.35045 0.0
C145 C 0.29116 0.64737 0.43395 0.0
C146 C 0.25639 0.60734 0.41304 0.0
C147 C 0.29913 0.69195 0.40735 0.0
C148 C 0.26554 0.7007 0.36447 0.0
C149 C 0.22893 0.66183 0.34432 0.0
C150 C 0.22427 0.61515 0.36869 0.0
H151 H 0.99335 0.89913 0.80968 0.0
H152 H 0.97755 0.7795 0.67976 0.0
H153 H 0.8705 0.9125 0.692 0.0
C154 C 0.97556 0.88516 0.77172 0.0
C155 C 0.93216 0.91258 0.75207 0.0
C156 C 0.99212 0.83705 0.74612 0.0
C157 C 0.96679 0.81777 0.6984 0.0
C158 C 0.92267 0.8451 0.67887 0.0
C159 C 0.9065 0.89305 0.70514 0.0
C160 C 0.16653 0.9891 0.21178 0.0
C161 C 0.13018 0.94752 0.19721 0.0
C162 C 0.06151 0.98894 0.25755 0.0
C163 C 0.0941 0.0346 0.26375 0.0
N164 N 0.17494 0.08088 0.24039 0.0
N165 N 0.04373 0.90558 0.20716 0.0
C166 C 0.14625 0.03529 0.23979 0.0
C167 C 0.07788 0.94659 0.22076 0.0
N168 N 0.22029 0.98487 0.19869 0.0
N169 N 0.01543 0.98607 0.2873 0.0
H170 H 0.05607 0.87226 0.18344 0.0
H171 H 0.00284 0.90526 0.21766 0.0
H172 H 0.00277 0.01649 0.31476 0.0
H173 H 0.99226 0.95231 0.28816 0.0
H174 H 0.24932 0.01226 0.21275 0.0
H175 H 0.23712 0.95147 0.17878 0.0
H176 H 0.21005 0.08473 0.21808 0.0
H177 H 0.16118 0.1163 0.25891 0.0
C178 C 0.60053 0.70584 0.71024 0.0
C179 C 0.57328 0.73414 0.67271 0.0
C180 C 0.492 0.74033 0.72798 0.0
C181 C 0.51623 0.70489 0.7607 0.0
N182 N 0.59691 0.66856 0.79532 0.0
N183 N 0.50401 0.79679 0.65716 0.0
C184 C 0.57226 0.69345 0.75638 0.0
C185 C 0.52276 0.7581 0.68576 0.0
N186 N 0.65232 0.68899 0.70009 0.0
N187 N 0.43866 0.75384 0.73481 0.0
H188 H 0.52656 0.81089 0.6267 0.0
H189 H 0.46913 0.81848 0.66698 0.0
H190 H 0.41605 0.74407 0.76717 0.0
H191 H 0.41643 0.7734 0.7078 0.0
H192 H 0.67448 0.66611 0.72411 0.0
H193 H 0.67281 0.69705 0.66583 0.0
H194 H 0.63818 0.66009 0.79632 0.0
H195 H 0.57591 0.65964 0.8292 0.0
C196 C 0.71975 0.99001 0.02722 0.0
C197 C 0.73628 0.03628 0.05793 0.0
C198 C 0.74298 0.98993 0.13726 0.0
C199 C 0.73038 0.94258 0.10609 0.0
N200 N 0.68887 0.9003 0.02723 0.0
N201 N 0.7395 0.08444 0.1435 0.0
C202 C 0.71233 0.94371 0.05294 0.0
C203 C 0.73912 0.03749 0.11365 0.0
N204 N 0.71464 0.98937 0.97342 0.0
N205 N 0.76312 0.98957 0.18755 0.0
H206 H 0.7362 0.11945 0.12596 0.0
H207 H 0.73676 0.08809 0.1848 0.0
H208 H 0.76877 0.95568 0.20626 0.0
H209 H 0.7785 0.0228 0.2092 0.0
H210 H 0.70991 0.95526 0.94823 0.0
H211 H 0.7175 0.02292 0.95352 0.0
H212 H 0.67096 0.89977 0.98989 0.0
H213 H 0.68277 0.86612 0.04566 0.0
C214 C 0.58011 0.23973 0.55265 0.0
C215 C 0.53488 0.24876 0.58672 0.0
C216 C 0.59313 0.28218 0.65981 0.0
C217 C 0.63841 0.27711 0.62469 0.0
N218 N 0.67845 0.2371 0.54414 0.0
N219 N 0.49913 0.25902 0.67513 0.0
C220 C 0.63301 0.25056 0.57326 0.0
C221 C 0.5421 0.26256 0.64149 0.0
N222 N 0.57192 0.2243 0.50013 0.0
N223 N 0.59742 0.30981 0.70854 0.0
H224 H 0.46136 0.24493 0.66147 0.0
H225 H 0.50236 0.26488 0.71632 0.0
H226 H 0.63347 0.32646 0.72349 0.0
H227 H 0.56417 0.31956 0.73291 0.0
H228 H 0.60249 0.22292 0.47158 0.0
H229 H 0.53345 0.21443 0.485 0.0
H230 H 0.67762 0.21457 0.50774 0.0
H231 H 0.71752 0.24483 0.55894 0.0
C232 C 0.56795 0.55064 0.32352 0.0
C233 C 0.60974 0.54572 0.3614 0.0
C234 C 0.62721 0.45599 0.32417 0.0
C235 C 0.58179 0.45886 0.29005 0.0
N236 N 0.50589 0.5068 0.25916 0.0
N237 N 0.67097 0.49034 0.40537 0.0
C238 C 0.55136 0.50574 0.29008 0.0
C239 C 0.63763 0.49768 0.36344 0.0
N240 N 0.54484 0.59837 0.31915 0.0
N241 N 0.6603 0.41316 0.3195 0.0
H242 H 0.67781 0.51894 0.43655 0.0
H243 H 0.68736 0.45427 0.4123 0.0
H244 H 0.65284 0.38055 0.29305 0.0
H245 H 0.69763 0.41175 0.33874 0.0
H246 H 0.51783 0.60595 0.28917 0.0
H247 H 0.55583 0.63167 0.34352 0.0
H248 H 0.47828 0.53759 0.26178 0.0
H249 H 0.49404 0.4753 0.23267 0.0
C250 C 0.03595 0.17497 0.90719 0.0
C251 C 0.02851 0.20373 0.95724 0.0
C252 C 0.12663 0.21766 0.96543 0.0
C253 C 0.13421 0.182 0.91978 0.0
N254 N 0.09702 0.12398 0.84816 0.0
N255 N 0.06507 0.25228 0.03521 0.0
C256 C 0.08912 0.16058 0.89031 0.0
C257 C 0.07333 0.22593 0.98638 0.0
N258 N 0.99185 0.16111 0.87611 0.0
N259 N 0.17047 0.24325 0.98856 0.0
H260 H 0.02638 0.25996 0.0509 0.0
H261 H 0.09629 0.26425 0.06131 0.0
H262 H 0.20993 0.23741 0.97408 0.0
H263 H 0.16745 0.27309 0.01919 0.0
H264 H 0.99466 0.14512 0.83685 0.0
H265 H 0.95209 0.16974 0.8882 0.0
H266 H 0.06581 0.10202 0.82942 0.0
H267 H 0.13534 0.1127 0.83389 0.0
C268 C 0.2361 0.47584 0.47035 0.0
C269 C 0.29158 0.46298 0.47848 0.0
C270 C 0.31894 0.53467 0.42825 0.0
C271 C 0.26519 0.55418 0.42989 0.0
N272 N 0.17228 0.54576 0.45856 0.0
N273 N 0.38485 0.49444 0.48062 0.0
C274 C 0.22335 0.52542 0.45252 0.0
C275 C 0.33292 0.49632 0.46172 0.0
N276 N 0.19595 0.44055 0.47748 0.0
N277 N 0.35688 0.55305 0.39524 0.0
H278 H 0.39597 0.47203 0.51115 0.0
H279 H 0.41473 0.5209 0.47135 0.0
H280 H 0.34733 0.57961 0.3679 0.0
H281 H 0.39583 0.53715 0.39106 0.0
H282 H 0.15549 0.44683 0.46773 0.0
H283 H 0.20378 0.4029 0.48753 0.0
H284 H 0.14183 0.52843 0.47954 0.0
H285 H 0.16178 0.58203 0.44631 0.0
C286 C 0.10926 0.8184 0.83382 0.0
C287 C 0.08438 0.78644 0.86972 0.0
C288 C 0.00855 0.76821 0.80806 0.0
C289 C 0.03019 0.80536 0.77563 0.0
N290 N 0.10738 0.85168 0.7468 0.0
N291 N 0.01912 0.71911 0.88469 0.0
C292 C 0.08326 0.82509 0.78474 0.0
C293 C 0.03731 0.75683 0.85434 0.0
N294 N 0.15626 0.84424 0.84809 0.0
N295 N 0.95852 0.74703 0.79688 0.0
H296 H 0.03711 0.7112 0.92027 0.0
H297 H 0.98851 0.69263 0.87282 0.0
H298 H 0.93891 0.75023 0.76096 0.0
H299 H 0.93595 0.72694 0.82318 0.0
H300 H 0.17373 0.87257 0.82672 0.0
H301 H 0.177 0.83824 0.88291 0.0
H302 H 0.14737 0.86483 0.74876 0.0
H303 H 0.08805 0.85654 0.71082 0.0
C304 C 0.88935 0.04841 0.81064 0.0
C305 C 0.8653 0.0356 0.85868 0.0
C306 C 0.87612 0.94245 0.83135 0.0
C307 C 0.90655 0.95533 0.78669 0.0
N308 N 0.94538 0.01954 0.73438 0.0
N309 N 0.83776 0.97136 0.91712 0.0
C310 C 0.91359 0.00808 0.77607 0.0
C311 C 0.85891 0.98283 0.86952 0.0
N312 N 0.88918 0.09905 0.79838 0.0
N313 N 0.86279 0.89156 0.83671 0.0
H314 H 0.82161 -0.00042 0.94501 0.0
H315 H 0.83891 0.93433 0.93054 0.0
H316 H 0.87564 0.86053 0.81032 0.0
H317 H 0.83546 0.8802 0.86485 0.0
H318 H 0.90155 0.11053 0.76189 0.0
H319 H 0.87275 0.12947 0.82352 0.0
H320 H 0.9572 0.05723 0.72777 0.0
H321 H 0.96307 0.99081 0.70799 0.0
C322 C 0.46933 0.2347 0.353 0.0
C323 C 0.41999 0.25939 0.36841 0.0
C324 C 0.42202 0.30773 0.28976 0.0
C325 C 0.47731 0.2936 0.28272 0.0
N326 N 0.55302 0.23917 0.3034 0.0
N327 N 0.34423 0.31312 0.3492 0.0
C328 C 0.50037 0.25443 0.31197 0.0
C329 C 0.39398 0.29289 0.33503 0.0
N330 N 0.48696 0.19386 0.37924 0.0
N331 N 0.3975 0.33664 0.25393 0.0
H332 H 0.32279 0.30092 0.38141 0.0
H333 H 0.32506 0.3424 0.33041 0.0
H334 H 0.41799 0.34758 0.22055 0.0
H335 H 0.35635 0.34596 0.2547 0.0
H336 H 0.52092 0.17136 0.36805 0.0
H337 H 0.46413 0.17969 0.4096 0.0
H338 H 0.57435 0.21607 0.32793 0.0
H339 H 0.57623 0.25096 0.27236 0.0
C340 C 0.27016 0.00526 0.01971 0.0
C341 C 0.25707 0.95687 0.99112 0.0
C342 C 0.26386 0.99557 0.90706 0.0
C343 C 0.27211 0.04519 0.93571 0.0
N344 N 0.30245 0.09411 0.01588 0.0
N345 N 0.26484 0.90159 0.9099 0.0
C346 C 0.28246 0.04868 0.99104 0.0
C347 C 0.26223 0.95065 0.93538 0.0
N348 N 0.26721 0.01058 0.0738 0.0
N349 N 0.25305 0.99145 0.85388 0.0
H350 H 0.26454 0.86856 0.93091 0.0
H351 H 0.27314 0.89413 0.86951 0.0
H352 H 0.25413 0.02296 0.83106 0.0
H353 H 0.23991 0.95695 0.83289 0.0
H354 H 0.26946 0.04636 0.09666 0.0
H355 H 0.26041 0.97894 0.09571 0.0
H356 H 0.31456 0.09826 0.05549 0.0
H357 H 0.31165 0.12618 0.99503 0.0
C358 C 0.44806 0.72835 0.40144 0.0
C359 C 0.45605 0.74351 0.45591 0.0
C360 C 0.35767 0.74873 0.46918 0.0
C361 C 0.35038 0.72162 0.41825 0.0
N362 N 0.38986 0.68329 0.33562 0.0
N363 N 0.4201 0.77249 0.5419 0.0
C364 C 0.39566 0.71208 0.38354 0.0
C365 C 0.41121 0.75611 0.48972 0.0
N366 N 0.49112 0.72805 0.36734 0.0
N367 N 0.31318 0.76597 0.49795 0.0
H368 H 0.45908 0.7802 0.55679 0.0
H369 H 0.38953 0.77672 0.57042 0.0
H370 H 0.27378 0.76078 0.48306 0.0
H371 H 0.31542 0.78904 0.53396 0.0
H372 H 0.48727 0.72151 0.32624 0.0
H373 H 0.52991 0.73978 0.38012 0.0
H374 H 0.42266 0.66927 0.31246 0.0
H375 H 0.35272 0.66997 0.32021 0.0
C376 C 0.35806 0.49569 0.68271 0.0
C377 C 0.39101 0.45031 0.68032 0.0
C378 C 0.45162 0.49248 0.74837 0.0
C379 C 0.41729 0.53708 0.75227 0.0
N380 N 0.33347 0.57851 0.72934 0.0
N381 N 0.46424 0.40151 0.71476 0.0
C382 C 0.36901 0.53768 0.72155 0.0
C383 C 0.43644 0.4475 0.71437 0.0
N384 N 0.31801 0.49987 0.64583 0.0
N385 N 0.49926 0.49375 0.77628 0.0
H386 H 0.45432 0.36822 0.68981 0.0
H387 H 0.49447 0.395 0.74212 0.0
H388 H 0.51019 0.52502 0.80347 0.0
H389 H 0.52924 0.46524 0.77068 0.0
H390 H 0.2976 0.53448 0.64067 0.0
H391 H 0.30773 0.46973 0.61725 0.0
H392 H 0.29436 0.57792 0.71361 0.0
H393 H 0.34127 0.61182 0.75464 0.0
C394 C 0.9413 0.76085 0.1144 0.0
C395 C 0.9586 0.78191 0.06743 0.0
C396 C 0.86359 0.79175 0.04128 0.0
C397 C 0.84796 0.78257 0.09347 0.0
N398 N 0.86695 0.71594 0.15158 0.0
N399 N 0.93688 0.80898 0.98095 0.0
C400 C 0.88499 0.75487 0.12313 0.0
C401 C 0.91984 0.79397 0.02867 0.0
N402 N 0.97807 0.74739 0.15113 0.0
N403 N 0.82419 0.79581 0.00392 0.0
H404 H 0.97762 0.80822 0.9695 0.0
H405 H 0.91107 0.82362 0.95333 0.0
H406 H 0.78316 0.79107 0.013 0.0
H407 H 0.83192 0.79917 0.96394 0.0
H408 H 0.9663 0.73646 0.18813 0.0
H409 H 0.01995 0.75049 0.14596 0.0
H410 H 0.89305 0.69221 0.17116 0.0
H411 H 0.8274 0.7016 0.14686 0.0
C412 C 0.75372 0.49924 0.54243 0.0
C413 C 0.71718 0.53703 0.56749 0.0
C414 C 0.69846 0.47973 0.63718 0.0
C415 C 0.73507 0.4424 0.61268 0.0
N416 N 0.80724 0.4209 0.55041 0.0
N417 N 0.67082 0.57002 0.64761 0.0
C418 C 0.7662 0.45381 0.56821 0.0
C419 C 0.6949 0.52937 0.61788 0.0
N420 N 0.77374 0.50447 0.4928 0.0
N421 N 0.66502 0.46707 0.67722 0.0
H422 H 0.66921 0.60731 0.63491 0.0
H423 H 0.65816 0.56812 0.6867 0.0
H424 H 0.6658 0.43089 0.69257 0.0
H425 H 0.63319 0.49085 0.69207 0.0
H426 H 0.79428 0.47474 0.47023 0.0
H427 H 0.76699 0.5368 0.47197 0.0
H428 H 0.83519 0.42969 0.52164 0.0
H429 H 0.8163 0.38677 0.56789 0.0
C430 C 0.88957 0.18079 0.21116 0.0
C431 C 0.91048 0.21461 0.17486 0.0
C432 C 0.99329 0.22762 0.22736 0.0
C433 C 0.97499 0.18929 0.26015 0.0
N434 N 0.90046 0.143 0.29514 0.0
N435 N 0.96992 0.28731 0.16249 0.0
C436 C 0.92087 0.17091 0.25628 0.0
C437 C 0.958 0.24417 0.18793 0.0
N438 N 0.84108 0.15626 0.20061 0.0
N439 N 0.04551 0.24546 0.23116 0.0
H440 H 0.94395 0.30213 0.13517 0.0
H441 H 0.0021 0.31233 0.17343 0.0
H442 H 0.07201 0.23602 0.26073 0.0
H443 H 0.06345 0.26738 0.20327 0.0
H444 H 0.82612 0.12646 0.22165 0.0
H445 H 0.81656 0.16519 0.16913 0.0
H446 H 0.86011 0.13118 0.29688 0.0
H447 H 0.9233 0.13563 0.32842 0.0
C448 C 0.14814 0.72187 0.23949 0.0
C449 C 0.17481 0.69949 0.19316 0.0
C450 C 0.2285 0.6431 0.2453 0.0
C451 C 0.20355 0.66707 0.29211 0.0
N452 N 0.13082 0.71825 0.33365 0.0
N453 N 0.22823 0.63023 0.14896 0.0
C454 C 0.16007 0.70269 0.28902 0.0
C455 C 0.21061 0.65678 0.19514 0.0
N456 N 0.11358 0.76307 0.23624 0.0
N457 N 0.27175 0.61021 0.24887 0.0
H458 H 0.21623 0.64023 0.11166 0.0
H459 H 0.25055 0.59575 0.14751 0.0
H460 H 0.28591 0.59846 0.28468 0.0
H461 H 0.29595 0.59692 0.21666 0.0
H462 H 0.09762 0.78525 0.26915 0.0
H463 H 0.10267 0.77664 0.20011 0.0
H464 H 0.09585 0.74098 0.33355 0.0
H465 H 0.13908 0.70448 0.37034 0.0
C466 C 0.79221 0.78375 0.62647 0.0
C467 C 0.79977 0.78256 0.57071 0.0
C468 C 0.89106 0.82014 0.58499 0.0
C469 C 0.88403 0.81845 0.64041 0.0
N470 N 0.83347 0.788 0.71321 0.0
N471 N 0.85759 0.7946 0.49582 0.0
C472 C 0.8363 0.79693 0.66082 0.0
C473 C 0.84984 0.79889 0.54957 0.0
N474 N 0.74244 0.77348 0.64708 0.0
N475 N 0.93617 0.84366 0.5666 0.0
H476 H 0.82707 0.7825 0.46881 0.0
H477 H 0.89485 0.8006 0.47791 0.0
H478 H 0.96755 0.858 0.59162 0.0
H479 H 0.94144 0.85142 0.52729 0.0
H480 H 0.73269 0.78142 0.68711 0.0
H481 H 0.70931 0.76067 0.62403 0.0
H482 H 0.80265 0.76641 0.729 0.0
H483 H 0.86453 0.79783 0.74015 0.0
C484 C 0.69524 0.26702 0.12168 0.0
C485 C 0.69105 0.27927 0.06842 0.0
C486 C 0.60729 0.32845 0.08972 0.0
C487 C 0.61503 0.32062 0.14397 0.0
N488 N 0.66986 0.28831 0.21316 0.0
N489 N 0.64546 0.32239 0.00059 0.0
C490 C 0.65989 0.29142 0.16036 0.0
C491 C 0.64747 0.30999 0.05191 0.0
N492 N 0.73182 0.23037 0.135 0.0
N493 N 0.5612 0.35272 0.07456 0.0
H494 H 0.67327 0.30774 0.97185 0.0
H495 H 0.61818 0.34899 0.98695 0.0
H496 H 0.53168 0.36725 0.10166 0.0
H497 H 0.55035 0.35561 0.0352 0.0
H498 H 0.73197 0.21511 0.17169 0.0
H499 H 0.75872 0.21126 0.10786 0.0
H500 H 0.70591 0.27392 0.22765 0.0
H501 H 0.64392 0.30364 0.24312 0.0
C502 C 0.3344 0.22972 0.74253 0.0
C503 C 0.31022 0.20575 0.69541 0.0
C504 C 0.26384 0.14234 0.74554 0.0
C505 C 0.28698 0.16698 0.79291 0.0
N506 N 0.35178 0.2262 0.83679 0.0
N507 N 0.26159 0.13377 0.64928 0.0
C508 C 0.32494 0.20814 0.79141 0.0
C509 C 0.27834 0.15999 0.69602 0.0
N510 N 0.36524 0.27376 0.74049 0.0
N511 N 0.2258 0.10391 0.7483 0.0
H512 H 0.26938 0.14683 0.61222 0.0
H513 H 0.24334 0.09713 0.64665 0.0
H514 H 0.21559 0.08844 0.78357 0.0
H515 H 0.20202 0.08915 0.71634 0.0
H516 H 0.37923 0.29661 0.77382 0.0
H517 H 0.37526 0.28901 0.70496 0.0
H518 H 0.38337 0.25316 0.83803 0.0
H519 H 0.34513 0.21106 0.8731 0.0
C520 C 0.6605 0.7631 0.29781 0.0
C521 C 0.68827 0.78509 0.34374 0.0
C522 C 0.74322 0.83928 0.29017 0.0
C523 C 0.71468 0.81811 0.24431 0.0
N524 N 0.64031 0.76785 0.20442 0.0
N525 N 0.74834 0.85026 0.3863 0.0
C526 C 0.67123 0.7826 0.24818 0.0
C527 C 0.72691 0.82551 0.34077 0.0
N528 N 0.62526 0.72248 0.30153 0.0
N529 N 0.78767 0.87036 0.285 0.0
H530 H 0.73893 0.83977 0.42408 0.0
H531 H 0.77221 0.88373 0.38711 0.0
H532 H 0.80077 0.88177 0.24864 0.0
H533 H 0.81407 0.88193 0.31604 0.0
H534 H 0.6083 0.70072 0.26887 0.0
H535 H 0.61518 0.70842 0.33761 0.0
H536 H 0.60482 0.74599 0.20553 0.0
H537 H 0.64789 0.78098 0.16731 0.0
C538 C 0.77548 0.32923 0.84608 0.0
C539 C 0.81394 0.28849 0.84723 0.0
C540 C 0.82902 0.2873 0.75165 0.0
C541 C 0.78785 0.32558 0.74979 0.0
N542 N 0.73116 0.39225 0.79534 0.0
N543 N 0.88768 0.23847 0.80634 0.0
C544 C 0.76445 0.34992 0.7972 0.0
C545 C 0.84427 0.27076 0.80153 0.0
N546 N 0.74747 0.34601 0.89122 0.0
N547 N 0.85176 0.26554 0.70545 0.0
H548 H 0.89973 0.22687 0.84295 0.0
H549 H 0.91426 0.22675 0.77552 0.0
H550 H 0.84335 0.27907 0.66868 0.0
H551 H 0.87732 0.23319 0.70308 0.0
H552 H 0.71361 0.37029 0.89199 0.0
H553 H 0.75675 0.33373 0.92831 0.0
H554 H 0.71714 0.41492 0.82878 0.0
H555 H 0.72076 0.40767 0.76022 0.0
C556 C 0.1529 0.19104 0.49181 0.0
C557 C 0.18979 0.22912 0.47631 0.0
C558 C 0.15466 0.21914 0.38599 0.0
C559 C 0.1157 0.1829 0.40165 0.0
N560 N 0.07107 0.1404 0.47058 0.0
N561 N 0.21629 0.28955 0.41351 0.0
C562 C 0.11264 0.17077 0.4551 0.0
C563 C 0.1872 0.24677 0.42509 0.0
N564 N 0.1572 0.1737 0.54108 0.0
N565 N 0.16349 0.22443 0.3334 0.0
H566 H 0.24177 0.31037 0.4408 0.0
H567 H 0.21123 0.30726 0.37844 0.0
H568 H 0.14285 0.20259 0.30303 0.0
H569 H 0.1954 0.24616 0.3197 0.0
H570 H 0.13564 0.14192 0.55285 0.0
H571 H 0.18456 0.18981 0.56959 0.0
H572 H 0.06366 0.13387 0.50993 0.0
H573 H 0.0413 0.12486 0.44428 0.0
C574 C 0.29735 0.72552 0.92059 0.0
C575 C 0.30214 0.71367 0.97396 0.0
C576 C 0.38645 0.66553 0.95279 0.0
C577 C 0.37902 0.67386 0.89862 0.0
N578 N 0.32397 0.70546 0.82921 0.0
N579 N 0.3471 0.66943 0.04135 0.0
C580 C 0.33356 0.70219 0.88206 0.0
C581 C 0.34571 0.68297 0.99038 0.0
N582 N 0.25907 0.76052 0.90701 0.0
N583 N 0.43282 0.64186 0.96814 0.0
H584 H 0.31816 0.68241 0.06975 0.0
H585 H 0.37465 0.64295 0.05477 0.0
H586 H 0.46282 0.62806 0.94122 0.0
H587 H 0.4434 0.63888 0.00756 0.0
H588 H 0.258 0.77574 0.87031 0.0
H589 H 0.23097 0.77814 0.93386 0.0
H590 H 0.28774 0.7191 0.81437 0.0
H591 H 0.35057 0.69105 0.79943 0.0
loop_
_geom_bond_atom_site_label_1
_geom_bond_atom_site_label_2
_geom_bond_distance
_geom_bond_site_symmetry_2
_ccdc_geom_bond_type
Sc0 O3 2.025 . S
Sc0 O10 2.099 1_554 S
Sc0 O13 2.105 . S
Sc0 O16 2.105 . S
Sc0 O19 2.105 1_554 S
Sc1 O3 2.025 . S
Sc1 O11 2.105 1_554 S
Sc1 O15 2.105 . S
Sc1 O17 2.105 . S
Sc1 O21 2.105 1_554 S
Sc2 O3 2.025 . S
Sc2 O12 2.105 . S
Sc2 O14 2.105 . S
Sc2 O18 2.105 . S
Sc2 O20 2.105 . S
O3 Sc0 2.025 . S
O3 Sc1 2.025 . S
O3 Sc2 2.025 . S
C4 O10 1.269 . S
C4 O20 1.268 1_556 S
C5 O11 1.268 . S
C5 O19 1.268 . S
C6 O12 1.268 1_556 S
C6 O21 1.268 . S
C7 O13 1.268 . S
C7 O17 1.268 . S
C8 O14 1.268 . S
C8 O16 1.268 . S
C9 O15 1.268 . S
C9 O18 1.268 . S
O10 Sc0 2.099 1_556 S
O10 C4 1.269 . S
O11 Sc1 2.105 1_556 S
O11 C5 1.268 . S
O12 Sc2 2.105 . S
O12 C6 1.268 1_554 S
O13 Sc0 2.105 . S
O13 C7 1.268 . S
O14 Sc2 2.105 . S
O14 C8 1.268 . S
O15 Sc1 2.105 . S
O15 C9 1.268 . S
O16 Sc0 2.105 . S
O16 C8 1.268 . S
O17 Sc1 2.105 . S
O17 C7 1.268 . S
O18 Sc2 2.105 . S
O18 C9 1.268 . S
O19 Sc0 2.105 1_556 S
O19 C5 1.268 . S
O20 Sc2 2.105 . S
O20 C4 1.268 1_554 S
O21 Sc1 2.105 1_556 S
O21 C6 1.268 . S
Sc22 O25 2.025 . S
Sc22 O32 2.105 . S
Sc22 O35 2.105 . S
Sc22 O38 2.105 . S
Sc22 O41 2.105 . S
Sc23 O25 2.025 . S
Sc23 O33 2.105 . S
Sc23 O37 2.105 . S
Sc23 O39 2.105 . S
Sc23 O43 2.105 . S
Sc24 O25 2.025 . S
Sc24 O34 2.105 . S
Sc24 O36 2.105 . S
Sc24 O40 2.105 . S
Sc24 O42 2.105 . S
O25 Sc22 2.025 . S
O25 Sc23 2.025 . S
O25 Sc24 2.025 . S
C26 O32 1.268 . S
C26 O42 1.268 . S
C27 O33 1.268 . S
C27 O41 1.268 . S
C28 O34 1.268 . S
C28 O43 1.268 . S
C29 O35 1.268 . S
C29 O39 1.268 . S
C30 O36 1.268 . S
C30 O38 1.268 . S
C31 O37 1.268 . S
C31 O40 1.268 . S
O32 Sc22 2.105 . S
O32 C26 1.268 . S
O33 Sc23 2.105 . S
O33 C27 1.268 . S
O34 Sc24 2.105 . S
O34 C28 1.268 . S
O35 Sc22 2.105 . S
O35 C29 1.268 . S
O36 Sc24 2.105 . S
O36 C30 1.268 . S
O37 Sc23 2.105 . S
O37 C31 1.268 . S
O38 Sc22 2.105 . S
O38 C30 1.268 . S
O39 Sc23 2.105 . S
O39 C29 1.268 . S
O40 Sc24 2.105 . S
O40 C31 1.268 . S
O41 Sc22 2.105 . S
O41 C27 1.268 . S
O42 Sc24 2.105 . S
O42 C26 1.268 . S
O43 Sc23 2.105 . S
O43 C28 1.268 . S
Sc44 O47 2.026 . S
Sc44 O54 2.105 1_554 S
Sc44 O57 2.105 . S
Sc44 O60 2.105 . S
Sc44 O63 2.105 1_554 S
Sc45 O47 2.023 1_556 S
Sc45 O55 2.105 . S
Sc45 O59 2.105 1_556 S
Sc45 O61 2.105 1_556 S
Sc45 O65 2.105 . S
Sc46 O47 2.027 . S
Sc46 O56 2.105 1_554 S
Sc46 O58 2.105 . S
Sc46 O62 2.105 . S
Sc46 O64 2.105 1_554 S
O47 Sc44 2.026 . S
O47 Sc45 2.023 1_554 S
O47 Sc46 2.027 . S
C48 O54 1.268 . S
C48 O64 1.268 . S
C49 O55 1.268 . S
C49 O63 1.268 . S
C50 O56 1.268 . S
C50 O65 1.268 . S
C51 O57 1.268 . S
C51 O61 1.268 . S
C52 O58 1.268 . S
C52 O60 1.268 . S
C53 O59 1.268 . S
C53 O62 1.268 . S
O54 Sc44 2.105 1_556 S
O54 C48 1.268 . S
O55 Sc45 2.105 . S
O55 C49 1.268 . S
O56 Sc46 2.105 1_556 S
O56 C50 1.268 . S
O57 Sc44 2.105 . S
O57 C51 1.268 . S
O58 Sc46 2.105 . S
O58 C52 1.268 . S
O59 Sc45 2.105 1_554 S
O59 C53 1.268 . S
O60 Sc44 2.105 . S
O60 C52 1.268 . S
O61 Sc45 2.105 1_554 S
O61 C51 1.268 . S
O62 Sc46 2.105 . S
O62 C53 1.268 . S
O63 Sc44 2.105 1_556 S
O63 C49 1.268 . S
O64 Sc46 2.105 1_556 S
O64 C48 1.268 . S
O65 Sc45 2.105 . S
O65 C50 1.268 . S
Sc66 O69 2.025 . S
Sc66 O76 2.105 . S
Sc66 O79 2.105 . S
Sc66 O82 2.105 . S
Sc66 O85 2.105 . S
Sc67 O69 2.025 . S
Sc67 O77 2.105 . S
Sc67 O81 2.105 . S
Sc67 O83 2.105 . S
Sc67 O87 2.105 . S
Sc68 O69 2.025 . S
Sc68 O78 2.105 . S
Sc68 O80 2.105 . S
Sc68 O84 2.105 . S
Sc68 O86 2.105 . S
O69 Sc66 2.025 . S
O69 Sc67 2.025 . S
O69 Sc68 2.025 . S
C70 O76 1.268 . S
C70 O86 1.268 . S
C71 O77 1.268 . S
C71 O85 1.268 . S
C72 O78 1.268 . S
C72 O87 1.268 . S
C73 O79 1.268 . S
C73 O83 1.268 . S
C74 O80 1.268 . S
C74 O82 1.268 . S
C75 O81 1.268 . S
C75 O84 1.268 . S
O76 Sc66 2.105 . S
O76 C70 1.268 . S
O77 Sc67 2.105 . S
O77 C71 1.268 . S
O78 Sc68 2.105 . S
O78 C72 1.268 . S
O79 Sc66 2.105 . S
O79 C73 1.268 . S
O80 Sc68 2.105 . S
O80 C74 1.268 . S
O81 Sc67 2.105 . S
O81 C75 1.268 . S
O82 Sc66 2.105 . S
O82 C74 1.268 . S
O83 Sc67 2.105 . S
O83 C73 1.268 . S
O84 Sc68 2.105 . S
O84 C75 1.268 . S
O85 Sc66 2.105 . S
O85 C71 1.268 . S
O86 Sc68 2.105 . S
O86 C70 1.268 . S
O87 Sc67 2.105 . S
O87 C72 1.268 . S
H88 C91 0.931 . S
H89 C94 0.928 . S
H90 C96 0.930 . S
C91 H88 0.931 . S
C91 C92 1.413 . S
C91 C93 1.360 . S
C92 C91 1.413 . S
C92 C96 1.429 . S
C93 C91 1.360 . S
C93 C94 1.372 . S
C94 H89 0.928 . S
C94 C93 1.372 . S
C94 C95 1.404 . S
C95 C94 1.404 . S
C95 C96 1.391 . S
C96 H90 0.930 . S
C96 C92 1.429 . S
C96 C95 1.391 . S
H97 C100 0.931 . S
H98 C103 0.928 . S
H99 C105 0.930 . S
C100 H97 0.931 . S
C100 C101 1.413 . S
C100 C102 1.360 . S
C101 C100 1.413 . S
C101 C105 1.429 . S
C102 C100 1.360 . S
C102 C103 1.372 . S
C103 H98 0.928 . S
C103 C102 1.372 . S
C103 C104 1.404 . S
C104 C103 1.404 . S
C104 C105 1.391 . S
C105 H99 0.930 . S
C105 C101 1.429 . S
C105 C104 1.391 . S
H106 C109 0.931 . S
H107 C112 0.928 . S
H108 C114 0.930 . S
C109 H106 0.931 . S
C109 C110 1.413 . S
C109 C111 1.360 . S
C110 C109 1.413 . S
C110 C114 1.429 . S
C111 C109 1.360 . S
C111 C112 1.372 . S
C112 H107 0.928 . S
C112 C111 1.372 . S
C112 C113 1.404 . S
C113 C112 1.404 . S
C113 C114 1.391 . S
C114 H108 0.930 . S
C114 C110 1.429 . S
C114 C113 1.391 . S
H115 C118 0.931 . S
H116 C121 0.928 . S
H117 C123 0.930 . S
C118 H115 0.931 . S
C118 C119 1.413 . S
C118 C120 1.360 . S
C119 C118 1.413 . S
C119 C123 1.429 . S
C120 C118 1.360 . S
C120 C121 1.372 . S
C121 H116 0.928 . S
C121 C120 1.372 . S
C121 C122 1.404 . S
C122 C121 1.404 . S
C122 C123 1.391 . S
C123 H117 0.930 . S
C123 C119 1.429 . S
C123 C122 1.391 . S
H124 C127 0.931 . S
H125 C130 0.928 . S
H126 C132 0.930 . S
C127 H124 0.931 . S
C127 C128 1.413 . S
C127 C129 1.360 . S
C128 C127 1.413 . S
C128 C132 1.429 . S
C129 C127 1.360 . S
C129 C130 1.372 . S
C130 H125 0.928 . S
C130 C129 1.372 . S
C130 C131 1.404 . S
C131 C130 1.404 . S
C131 C132 1.391 . S
C132 H126 0.930 . S
C132 C128 1.429 . S
C132 C131 1.391 . S
H133 C136 0.931 . S
H134 C139 0.928 . S
H135 C141 0.930 . S
C136 H133 0.931 . S
C136 C137 1.413 . S
C136 C138 1.360 . S
C137 C136 1.413 . S
C137 C141 1.429 . S
C138 C136 1.360 . S
C138 C139 1.372 . S
C139 H134 0.928 . S
C139 C138 1.372 . S
C139 C140 1.404 . S
C140 C139 1.404 . S
C140 C141 1.391 . S
C141 H135 0.930 . S
C141 C137 1.429 . S
C141 C140 1.391 . S
H142 C145 0.931 . S
H143 C148 0.928 . S
H144 C150 0.930 . S
C145 H142 0.931 . S
C145 C146 1.413 . S
C145 C147 1.360 . S
C146 C145 1.413 . S
C146 C150 1.429 . S
C147 C145 1.360 . S
C147 C148 1.372 . S
C148 H143 0.928 . S
C148 C147 1.372 . S
C148 C149 1.404 . S
C149 C148 1.404 . S
C149 C150 1.391 . S
C150 H144 0.930 . S
C150 C146 1.429 . S
C150 C149 1.391 . S
H151 C154 0.931 . S
H152 C157 0.928 . S
H153 C159 0.930 . S
C154 H151 0.931 . S
C154 C155 1.413 . S
C154 C156 1.360 . S
C155 C154 1.413 . S
C155 C159 1.429 . S
C156 C154 1.360 . S
C156 C157 1.372 . S
C157 H152 0.928 . S
C157 C156 1.372 . S
C157 C158 1.404 . S
C158 C157 1.404 . S
C158 C159 1.391 . S
C159 H153 0.930 . S
C159 C155 1.429 . S
C159 C158 1.391 . S
C160 C161 1.370 . S
C160 C166 1.374 1_565 S
C160 N168 1.356 . S
C161 C160 1.370 . S
C161 C167 1.363 . S
C162 C163 1.363 1_565 S
C162 C167 1.379 . S
C162 N169 1.356 . S
C163 C162 1.363 1_545 S
C163 C166 1.363 . S
N164 C166 1.356 . S
N164 H176 0.984 . S
N164 H177 0.985 . S
N165 C167 1.356 . S
N165 H170 0.984 . S
N165 H171 0.985 . S
C166 C160 1.374 1_545 S
C166 C163 1.363 . S
C166 N164 1.356 . S
C167 C161 1.363 . S
C167 C162 1.379 . S
C167 N165 1.356 . S
N168 C160 1.356 . S
N168 H174 0.984 1_565 S
N168 H175 0.984 . S
N169 C162 1.356 . S
N169 H172 0.984 1_565 S
N169 H173 0.985 . S
H170 N165 0.984 . S
H171 N165 0.985 . S
H172 N169 0.984 1_545 S
H173 N169 0.985 . S
H174 N168 0.984 1_545 S
H175 N168 0.984 . S
H176 N164 0.984 . S
H177 N164 0.985 . S
C178 C179 1.363 . S
C178 C184 1.379 . S
C178 N186 1.356 . S
C179 C178 1.363 . S
C179 C185 1.363 . S
C180 C181 1.363 . S
C180 C185 1.379 . S
C180 N187 1.356 . S
C181 C180 1.363 . S
C181 C184 1.363 . S
N182 C184 1.356 . S
N182 H194 0.984 . S
N182 H195 0.985 . S
N183 C185 1.356 . S
N183 H188 0.984 . S
N183 H189 0.985 . S
C184 C178 1.379 . S
C184 C181 1.363 . S
C184 N182 1.356 . S
C185 C179 1.363 . S
C185 C180 1.379 . S
C185 N183 1.356 . S
N186 C178 1.356 . S
N186 H192 0.984 . S
N186 H193 0.984 . S
N187 C180 1.356 . S
N187 H190 0.984 . S
N187 H191 0.985 . S
H188 N183 0.984 . S
H189 N183 0.985 . S
H190 N187 0.984 . S
H191 N187 0.985 . S
H192 N186 0.984 . S
H193 N186 0.984 . S
H194 N182 0.984 . S
H195 N182 0.985 . S
C196 C197 1.363 . S
C196 C202 1.379 1_545 S
C196 N204 1.356 . S
C197 C196 1.363 . S
C197 C203 1.363 . S
C198 C199 1.363 . S
C198 C203 1.379 1_565 S
C198 N205 1.356 . S
C199 C198 1.363 . S
C199 C202 1.363 . S
N200 C202 1.356 . S
N200 H212 0.984 . S
N200 H213 0.985 . S
N201 C203 1.356 . S
N201 H206 0.984 . S
N201 H207 0.985 . S
C202 C196 1.379 1_565 S
C202 C199 1.363 . S
C202 N200 1.356 . S
C203 C197 1.363 . S
C203 C198 1.379 1_545 S
C203 N201 1.356 . S
N204 C196 1.356 . S
N204 H210 0.984 1_554 S
N204 H211 0.984 . S
N205 C198 1.356 . S
N205 H208 0.984 . S
N205 H209 0.985 . S
H206 N201 0.984 . S
H207 N201 0.985 . S
H208 N205 0.984 . S
H209 N205 0.985 . S
H210 N204 0.984 1_556 S
H211 N204 0.984 . S
H212 N200 0.984 . S
H213 N200 0.985 . S
C214 C215 1.363 . S
C214 C220 1.379 . S
C214 N222 1.356 . S
C215 C214 1.363 . S
C215 C221 1.363 . S
C216 C217 1.363 . S
C216 C221 1.379 . S
C216 N223 1.356 . S
C217 C216 1.363 . S
C217 C220 1.363 . S
N218 C220 1.356 . S
N218 H230 0.984 . S
N218 H231 0.985 . S
N219 C221 1.356 . S
N219 H224 0.984 . S
N219 H225 0.985 . S
C220 C214 1.379 . S
C220 C217 1.363 . S
C220 N218 1.356 . S
C221 C215 1.363 . S
C221 C216 1.379 . S
C221 N219 1.356 . S
N222 C214 1.356 . S
N222 H228 0.984 . S
N222 H229 0.984 . S
N223 C216 1.356 . S
N223 H226 0.984 . S
N223 H227 0.985 . S
H224 N219 0.984 . S
H225 N219 0.985 . S
H226 N223 0.984 . S
H227 N223 0.985 . S
H228 N222 0.984 . S
H229 N222 0.984 . S
H230 N218 0.984 . S
H231 N218 0.985 . S
C232 C233 1.363 . S
C232 C238 1.379 . S
C232 N240 1.356 . S
C233 C232 1.363 . S
C233 C239 1.363 . S
C234 C235 1.363 . S
C234 C239 1.379 . S
C234 N241 1.356 . S
C235 C234 1.363 . S
C235 C238 1.363 . S
N236 C238 1.356 . S
N236 H248 0.984 . S
N236 H249 0.985 . S
N237 C239 1.356 . S
N237 H242 0.984 . S
N237 H243 0.985 . S
C238 C232 1.379 . S
C238 C235 1.363 . S
C238 N236 1.356 . S
C239 C233 1.363 . S
C239 C234 1.379 . S
C239 N237 1.356 . S
N240 C232 1.356 . S
N240 H246 0.984 . S
N240 H247 0.984 . S
N241 C234 1.356 . S
N241 H244 0.984 . S
N241 H245 0.985 . S
H242 N237 0.984 . S
H243 N237 0.985 . S
H244 N241 0.984 . S
H245 N241 0.985 . S
H246 N240 0.984 . S
H247 N240 0.984 . S
H248 N236 0.984 . S
H249 N236 0.985 . S
C250 C251 1.363 . S
C250 C256 1.379 . S
C250 N258 1.356 . S
C251 C250 1.363 . S
C251 C257 1.363 . S
C252 C253 1.363 . S
C252 C257 1.379 . S
C252 N259 1.356 . S
C253 C252 1.363 . S
C253 C256 1.363 . S
N254 C256 1.356 . S
N254 H266 0.984 . S
N254 H267 0.985 . S
N255 C257 1.356 . S
N255 H260 0.984 1_455 S
N255 H261 0.985 . S
C256 C250 1.379 . S
C256 C253 1.363 . S
C256 N254 1.356 . S
C257 C251 1.363 . S
C257 C252 1.379 . S
C257 N255 1.356 . S
N258 C250 1.356 . S
N258 H264 0.984 . S
N258 H265 0.984 1_455 S
N259 C252 1.356 . S
N259 H262 0.984 . S
N259 H263 0.985 . S
H260 N255 0.984 1_655 S
H261 N255 0.985 . S
H262 N259 0.984 . S
H263 N259 0.985 . S
H264 N258 0.984 . S
H265 N258 0.984 1_655 S
H266 N254 0.984 . S
H267 N254 0.985 . S
C268 C269 1.363 . S
C268 C274 1.379 . S
C268 N276 1.356 . S
C269 C268 1.363 . S
C269 C275 1.363 . S
C270 C271 1.363 . S
C270 C275 1.379 . S
C270 N277 1.356 . S
C271 C270 1.363 . S
C271 C274 1.363 . S
N272 C274 1.356 . S
N272 H284 0.984 . S
N272 H285 0.985 . S
N273 C275 1.356 . S
N273 H278 0.984 . S
N273 H279 0.985 . S
C274 C268 1.379 . S
C274 C271 1.363 . S
C274 N272 1.356 . S
C275 C269 1.363 . S
C275 C270 1.379 . S
C275 N273 1.356 . S
N276 C268 1.356 . S
N276 H282 0.984 . S
N276 H283 0.984 . S
N277 C270 1.356 . S
N277 H280 0.984 . S
N277 H281 0.985 . S
H278 N273 0.984 . S
H279 N273 0.985 . S
H280 N277 0.984 . S
H281 N277 0.985 . S
H282 N276 0.984 . S
H283 N276 0.984 . S
H284 N272 0.984 . S
H285 N272 0.985 . S
C286 C287 1.363 . S
C286 C292 1.379 . S
C286 N294 1.356 . S
C287 C286 1.363 . S
C287 C293 1.363 . S
C288 C289 1.363 . S
C288 C293 1.379 . S
C288 N295 1.356 1_455 S
C289 C288 1.363 . S
C289 C292 1.363 . S
N290 C292 1.356 . S
N290 H302 0.984 . S
N290 H303 0.985 . S
N291 C293 1.356 . S
N291 H296 0.984 . S
N291 H297 0.985 . S
C292 C286 1.379 . S
C292 C289 1.363 . S
C292 N290 1.356 . S
C293 C287 1.363 . S
C293 C288 1.379 . S
C293 N291 1.356 . S
N294 C286 1.356 . S
N294 H300 0.984 . S
N294 H301 0.984 . S
N295 C288 1.356 1_655 S
N295 H298 0.984 . S
N295 H299 0.985 . S
H296 N291 0.984 . S
H297 N291 0.985 . S
H298 N295 0.984 . S
H299 N295 0.985 . S
H300 N294 0.984 . S
H301 N294 0.984 . S
H302 N290 0.984 . S
H303 N290 0.985 . S
C304 C305 1.363 . S
C304 C310 1.379 . S
C304 N312 1.356 . S
C305 C304 1.363 . S
C305 C311 1.363 . S
C306 C307 1.363 . S
C306 C311 1.379 1_565 S
C306 N313 1.356 . S
C307 C306 1.363 . S
C307 C310 1.363 1_565 S
N308 C310 1.356 1_565 S
N308 H320 0.984 1_665 S
N308 H321 0.985 . S
N309 C311 1.356 . S
N309 H314 0.984 . S
N309 H315 0.985 . S
C310 C304 1.379 . S
C310 C307 1.363 1_545 S
C310 N308 1.356 1_545 S
C311 C305 1.363 . S
C311 C306 1.379 1_545 S
C311 N309 1.356 . S
N312 C304 1.356 . S
N312 H318 0.984 . S
N312 H319 0.984 . S
N313 C306 1.356 . S
N313 H316 0.984 . S
N313 H317 0.985 . S
H314 N309 0.984 . S
H315 N309 0.985 . S
H316 N313 0.984 . S
H317 N313 0.985 . S
H318 N312 0.984 . S
H319 N312 0.984 . S
H320 N308 0.984 1_445 S
H321 N308 0.985 . S
C322 C323 1.363 . S
C322 C328 1.379 . S
C322 N330 1.356 . S
C323 C322 1.363 . S
C323 C329 1.363 . S
C324 C325 1.363 . S
C324 C329 1.379 . S
C324 N331 1.356 . S
C325 C324 1.363 . S
C325 C328 1.363 . S
N326 C328 1.356 . S
N326 H338 0.984 . S
N326 H339 0.985 . S
N327 C329 1.356 . S
N327 H332 0.984 . S
N327 H333 0.985 . S
C328 C322 1.379 . S
C328 C325 1.363 . S
C328 N326 1.356 . S
C329 C323 1.363 . S
C329 C324 1.379 . S
C329 N327 1.356 . S
N330 C322 1.356 . S
N330 H336 0.984 . S
N330 H337 0.984 . S
N331 C324 1.356 . S
N331 H334 0.984 . S
N331 H335 0.985 . S
H332 N327 0.984 . S
H333 N327 0.985 . S
H334 N331 0.984 . S
H335 N331 0.985 . S
H336 N330 0.984 . S
H337 N330 0.984 . S
H338 N326 0.984 . S
H339 N326 0.985 . S
C340 C341 1.363 1_545 S
C340 C346 1.379 . S
C340 N348 1.356 1_546 S
C341 C340 1.363 1_565 S
C341 C347 1.363 . S
C342 C343 1.363 . S
C342 C347 1.379 1_545 S
C342 N349 1.356 . S
C343 C342 1.363 . S
C343 C346 1.363 . S
N344 C346 1.357 1_554 S
N344 H356 0.983 . S
N344 H357 0.985 1_554 S
N345 C347 1.356 . S
N345 H350 0.984 . S
N345 H351 0.985 . S
C346 C340 1.379 . S
C346 C343 1.363 . S
C346 N344 1.357 1_556 S
C347 C341 1.363 . S
C347 C342 1.379 1_565 S
C347 N345 1.356 . S
N348 C340 1.356 1_564 S
N348 H354 0.984 . S
N348 H355 0.984 . S
N349 C342 1.356 . S
N349 H352 0.984 . S
N349 H353 0.985 . S
H350 N345 0.984 . S
H351 N345 0.985 . S
H352 N349 0.984 . S
H353 N349 0.985 . S
H354 N348 0.984 . S
H355 N348 0.984 . S
H356 N344 0.983 . S
H357 N344 0.985 1_556 S
C358 C359 1.363 . S
C358 C364 1.379 . S
C358 N366 1.356 . S
C359 C358 1.363 . S
C359 C365 1.363 . S
C360 C361 1.363 . S
C360 C365 1.379 . S
C360 N367 1.356 . S
C361 C360 1.363 . S
C361 C364 1.363 . S
N362 C364 1.356 . S
N362 H374 0.984 . S
N362 H375 0.985 . S
N363 C365 1.356 . S
N363 H368 0.984 . S
N363 H369 0.985 . S
C364 C358 1.379 . S
C364 C361 1.363 . S
C364 N362 1.356 . S
C365 C359 1.363 . S
C365 C360 1.379 . S
C365 N363 1.356 . S
N366 C358 1.356 . S
N366 H372 0.984 . S
N366 H373 0.984 . S
N367 C360 1.356 . S
N367 H370 0.984 . S
N367 H371 0.985 . S
H368 N363 0.984 . S
H369 N363 0.985 . S
H370 N367 0.984 . S
H371 N367 0.985 . S
H372 N366 0.984 . S
H373 N366 0.984 . S
H374 N362 0.984 . S
H375 N362 0.985 . S
C376 C377 1.363 . S
C376 C382 1.379 . S
C376 N384 1.356 . S
C377 C376 1.363 . S
C377 C383 1.363 . S
C378 C379 1.363 . S
C378 C383 1.379 . S
C378 N385 1.356 . S
C379 C378 1.363 . S
C379 C382 1.363 . S
N380 C382 1.356 . S
N380 H392 0.984 . S
N380 H393 0.985 . S
N381 C383 1.356 . S
N381 H386 0.984 . S
N381 H387 0.985 . S
C382 C376 1.379 . S
C382 C379 1.363 . S
C382 N380 1.356 . S
C383 C377 1.363 . S
C383 C378 1.379 . S
C383 N381 1.356 . S
N384 C376 1.356 . S
N384 H390 0.984 . S
N384 H391 0.984 . S
N385 C378 1.356 . S
N385 H388 0.984 . S
N385 H389 0.985 . S
H386 N381 0.984 . S
H387 N381 0.985 . S
H388 N385 0.984 . S
H389 N385 0.985 . S
H390 N384 0.984 . S
H391 N384 0.984 . S
H392 N380 0.984 . S
H393 N380 0.985 . S
C394 C395 1.363 . S
C394 C400 1.379 . S
C394 N402 1.356 . S
C395 C394 1.363 . S
C395 C401 1.363 . S
C396 C397 1.363 . S
C396 C401 1.379 . S
C396 N403 1.356 . S
C397 C396 1.363 . S
C397 C400 1.363 . S
N398 C400 1.356 . S
N398 H410 0.984 . S
N398 H411 0.985 . S
N399 C401 1.356 . S
N399 H404 0.984 1_655 S
N399 H405 0.985 . S
C400 C394 1.379 . S
C400 C397 1.363 . S
C400 N398 1.356 . S
C401 C395 1.363 . S
C401 C396 1.379 . S
C401 N399 1.356 . S
N402 C394 1.356 . S
N402 H408 0.984 . S
N402 H409 0.984 1_655 S
N403 C396 1.356 . S
N403 H406 0.984 . S
N403 H407 0.985 . S
H404 N399 0.984 1_455 S
H405 N399 0.985 . S
H406 N403 0.984 . S
H407 N403 0.985 . S
H408 N402 0.984 . S
H409 N402 0.984 1_455 S
H410 N398 0.984 . S
H411 N398 0.985 . S
C412 C413 1.363 . S
C412 C418 1.379 . S
C412 N420 1.356 . S
C413 C412 1.363 . S
C413 C419 1.363 . S
C414 C415 1.363 . S
C414 C419 1.379 . S
C414 N421 1.356 . S
C415 C414 1.363 . S
C415 C418 1.363 . S
N416 C418 1.356 . S
N416 H428 0.984 . S
N416 H429 0.985 . S
N417 C419 1.356 . S
N417 H422 0.984 . S
N417 H423 0.985 . S
C418 C412 1.379 . S
C418 C415 1.363 . S
C418 N416 1.356 . S
C419 C413 1.363 . S
C419 C414 1.379 . S
C419 N417 1.356 . S
N420 C412 1.356 . S
N420 H426 0.984 . S
N420 H427 0.984 . S
N421 C414 1.356 . S
N421 H424 0.984 . S
N421 H425 0.985 . S
H422 N417 0.984 . S
H423 N417 0.985 . S
H424 N421 0.984 . S
H425 N421 0.985 . S
H426 N420 0.984 . S
H427 N420 0.984 . S
H428 N416 0.984 . S
H429 N416 0.985 . S
C430 C431 1.363 . S
C430 C436 1.379 . S
C430 N438 1.356 . S
C431 C430 1.363 . S
C431 C437 1.363 . S
C432 C433 1.363 . S
C432 C437 1.379 . S
C432 N439 1.356 1_655 S
C433 C432 1.363 . S
C433 C436 1.363 . S
N434 C436 1.356 . S
N434 H446 0.984 . S
N434 H447 0.985 . S
N435 C437 1.356 . S
N435 H440 0.984 . S
N435 H441 0.985 . S
C436 C430 1.379 . S
C436 C433 1.363 . S
C436 N434 1.356 . S
C437 C431 1.363 . S
C437 C432 1.379 . S
C437 N435 1.356 . S
N438 C430 1.356 . S
N438 H444 0.984 . S
N438 H445 0.984 . S
N439 C432 1.356 1_455 S
N439 H442 0.984 . S
N439 H443 0.985 . S
H440 N435 0.984 . S
H441 N435 0.985 . S
H442 N439 0.984 . S
H443 N439 0.985 . S
H444 N438 0.984 . S
H445 N438 0.984 . S
H446 N434 0.984 . S
H447 N434 0.985 . S
C448 C449 1.363 . S
C448 C454 1.379 . S
C448 N456 1.356 . S
C449 C448 1.363 . S
C449 C455 1.363 . S
C450 C451 1.363 . S
C450 C455 1.379 . S
C450 N457 1.356 . S
C451 C450 1.363 . S
C451 C454 1.363 . S
N452 C454 1.356 . S
N452 H464 0.984 . S
N452 H465 0.985 . S
N453 C455 1.356 . S
N453 H458 0.984 . S
N453 H459 0.985 . S
C454 C448 1.379 . S
C454 C451 1.363 . S
C454 N452 1.356 . S
C455 C449 1.363 . S
C455 C450 1.379 . S
C455 N453 1.356 . S
N456 C448 1.356 . S
N456 H462 0.984 . S
N456 H463 0.984 . S
N457 C450 1.356 . S
N457 H460 0.984 . S
N457 H461 0.985 . S
H458 N453 0.984 . S
H459 N453 0.985 . S
H460 N457 0.984 . S
H461 N457 0.985 . S
H462 N456 0.984 . S
H463 N456 0.984 . S
H464 N452 0.984 . S
H465 N452 0.985 . S
C466 C467 1.363 . S
C466 C472 1.379 . S
C466 N474 1.356 . S
C467 C466 1.363 . S
C467 C473 1.363 . S
C468 C469 1.363 . S
C468 C473 1.379 . S
C468 N475 1.356 . S
C469 C468 1.363 . S
C469 C472 1.363 . S
N470 C472 1.356 . S
N470 H482 0.984 . S
N470 H483 0.985 . S
N471 C473 1.356 . S
N471 H476 0.984 . S
N471 H477 0.985 . S
C472 C466 1.379 . S
C472 C469 1.363 . S
C472 N470 1.356 . S
C473 C467 1.363 . S
C473 C468 1.379 . S
C473 N471 1.356 . S
N474 C466 1.356 . S
N474 H480 0.984 . S
N474 H481 0.984 . S
N475 C468 1.356 . S
N475 H478 0.984 . S
N475 H479 0.985 . S
H476 N471 0.984 . S
H477 N471 0.985 . S
H478 N475 0.984 . S
H479 N475 0.985 . S
H480 N474 0.984 . S
H481 N474 0.984 . S
H482 N470 0.984 . S
H483 N470 0.985 . S
C484 C485 1.363 . S
C484 C490 1.379 . S
C484 N492 1.356 . S
C485 C484 1.363 . S
C485 C491 1.363 . S
C486 C487 1.363 . S
C486 C491 1.379 . S
C486 N493 1.356 . S
C487 C486 1.363 . S
C487 C490 1.363 . S
N488 C490 1.356 . S
N488 H500 0.984 . S
N488 H501 0.985 . S
N489 C491 1.356 . S
N489 H494 0.984 . S
N489 H495 0.985 . S
C490 C484 1.379 . S
C490 C487 1.363 . S
C490 N488 1.356 . S
C491 C485 1.363 . S
C491 C486 1.379 . S
C491 N489 1.356 . S
N492 C484 1.356 . S
N492 H498 0.984 . S
N492 H499 0.984 . S
N493 C486 1.356 . S
N493 H496 0.984 . S
N493 H497 0.985 . S
H494 N489 0.984 . S
H495 N489 0.985 . S
H496 N493 0.984 . S
H497 N493 0.985 . S
H498 N492 0.984 . S
H499 N492 0.984 . S
H500 N488 0.984 . S
H501 N488 0.985 . S
C502 C503 1.363 . S
C502 C508 1.379 . S
C502 N510 1.356 . S
C503 C502 1.363 . S
C503 C509 1.363 . S
C504 C505 1.363 . S
C504 C509 1.379 . S
C504 N511 1.356 . S
C505 C504 1.363 . S
C505 C508 1.363 . S
N506 C508 1.356 . S
N506 H518 0.984 . S
N506 H519 0.985 . S
N507 C509 1.356 . S
N507 H512 0.984 . S
N507 H513 0.985 . S
C508 C502 1.379 . S
C508 C505 1.363 . S
C508 N506 1.356 . S
C509 C503 1.363 . S
C509 C504 1.379 . S
C509 N507 1.356 . S
N510 C502 1.356 . S
N510 H516 0.984 . S
N510 H517 0.984 . S
N511 C504 1.356 . S
N511 H514 0.984 . S
N511 H515 0.985 . S
H512 N507 0.984 . S
H513 N507 0.985 . S
H514 N511 0.984 . S
H515 N511 0.985 . S
H516 N510 0.984 . S
H517 N510 0.984 . S
H518 N506 0.984 . S
H519 N506 0.985 . S
C520 C521 1.363 . S
C520 C526 1.379 . S
C520 N528 1.356 . S
C521 C520 1.363 . S
C521 C527 1.363 . S
C522 C523 1.363 . S
C522 C527 1.379 . S
C522 N529 1.356 . S
C523 C522 1.363 . S
C523 C526 1.363 . S
N524 C526 1.356 . S
N524 H536 0.984 . S
N524 H537 0.985 . S
N525 C527 1.356 . S
N525 H530 0.984 . S
N525 H531 0.985 . S
C526 C520 1.379 . S
C526 C523 1.363 . S
C526 N524 1.356 . S
C527 C521 1.363 . S
C527 C522 1.379 . S
C527 N525 1.356 . S
N528 C520 1.356 . S
N528 H534 0.984 . S
N528 H535 0.984 . S
N529 C522 1.356 . S
N529 H532 0.984 . S
N529 H533 0.985 . S
H530 N525 0.984 . S
H531 N525 0.985 . S
H532 N529 0.984 . S
H533 N529 0.985 . S
H534 N528 0.984 . S
H535 N528 0.984 . S
H536 N524 0.984 . S
H537 N524 0.985 . S
C538 C539 1.363 . S
C538 C544 1.379 . S
C538 N546 1.356 . S
C539 C538 1.363 . S
C539 C545 1.363 . S
C540 C541 1.363 . S
C540 C545 1.379 . S
C540 N547 1.356 . S
C541 C540 1.363 . S
C541 C544 1.363 . S
N542 C544 1.356 . S
N542 H554 0.984 . S
N542 H555 0.985 . S
N543 C545 1.356 . S
N543 H548 0.984 . S
N543 H549 0.985 . S
C544 C538 1.379 . S
C544 C541 1.363 . S
C544 N542 1.356 . S
C545 C539 1.363 . S
C545 C540 1.379 . S
C545 N543 1.356 . S
N546 C538 1.356 . S
N546 H552 0.984 . S
N546 H553 0.984 . S
N547 C540 1.356 . S
N547 H550 0.984 . S
N547 H551 0.985 . S
H548 N543 0.984 . S
H549 N543 0.985 . S
H550 N547 0.984 . S
H551 N547 0.985 . S
H552 N546 0.984 . S
H553 N546 0.984 . S
H554 N542 0.984 . S
H555 N542 0.985 . S
C556 C557 1.363 . S
C556 C562 1.379 . S
C556 N564 1.356 . S
C557 C556 1.363 . S
C557 C563 1.363 . S
C558 C559 1.363 . S
C558 C563 1.379 . S
C558 N565 1.356 . S
C559 C558 1.363 . S
C559 C562 1.363 . S
N560 C562 1.356 . S
N560 H572 0.984 . S
N560 H573 0.985 . S
N561 C563 1.356 . S
N561 H566 0.984 . S
N561 H567 0.985 . S
C562 C556 1.379 . S
C562 C559 1.363 . S
C562 N560 1.356 . S
C563 C557 1.363 . S
C563 C558 1.379 . S
C563 N561 1.356 . S
N564 C556 1.356 . S
N564 H570 0.984 . S
N564 H571 0.984 . S
N565 C558 1.356 . S
N565 H568 0.984 . S
N565 H569 0.985 . S
H566 N561 0.984 . S
H567 N561 0.985 . S
H568 N565 0.984 . S
H569 N565 0.985 . S
H570 N564 0.984 . S
H571 N564 0.984 . S
H572 N560 0.984 . S
H573 N560 0.985 . S
C574 C575 1.363 . S
C574 C580 1.379 . S
C574 N582 1.356 . S
C575 C574 1.363 . S
C575 C581 1.363 . S
C576 C577 1.363 . S
C576 C581 1.379 . S
C576 N583 1.356 . S
C577 C576 1.363 . S
C577 C580 1.363 . S
N578 C580 1.356 . S
N578 H590 0.984 . S
N578 H591 0.985 . S
N579 C581 1.356 1_554 S
N579 H584 0.984 . S
N579 H585 0.985 . S
C580 C574 1.379 . S
C580 C577 1.363 . S
C580 N578 1.356 . S
C581 C575 1.363 . S
C581 C576 1.379 . S
C581 N579 1.356 1_556 S
N582 C574 1.356 . S
N582 H588 0.984 . S
N582 H589 0.984 . S
N583 C576 1.356 . S
N583 H586 0.984 . S
N583 H587 0.985 . S
H584 N579 0.984 . S
H585 N579 0.985 . S
H586 N583 0.984 . S
H587 N583 0.985 . S
H588 N582 0.984 . S
H589 N582 0.984 . S
H590 N578 0.984 . S
H591 N578 0.985 . S
C161 C8 1.461 . S
C163 C93 1.453 . S
C179 C31 1.375 . S
C181 C101 1.361 . S
C197 C53 1.467 . S
C199 C110 1.454 . S
C217 C120 1.439 . S
C215 C74 1.402 . S
C235 C129 1.451 . S
C233 C26 1.458 . S
C251 C48 1.402 1_455 S
C253 C138 1.439 . S
C269 C71 1.466 . S
C271 C146 1.452 . S
C287 C5 1.377 . S
C289 C156 1.369 1_455 S
C305 C50 1.457 . S
C307 C155 1.448 . S
C325 C128 1.365 . S
C323 C70 1.375 . S
C343 C137 1.450 . S
C341 C4 1.467 . S
C359 C28 1.402 . S
C361 C147 1.445 . S
C379 C102 1.443 . S
C377 C73 1.459 . S
C395 C7 1.402 1_655 S
C397 C111 1.445 . S
C415 C119 1.448 . S
C413 C30 1.465 . S
C433 C92 1.364 1_655 S
C431 C52 1.374 . S
C451 C149 1.447 . S
C449 C9 1.492 . S
C469 C158 1.365 . S
C467 C29 1.372 . S
C485 C51 1.370 . S
C487 C131 1.361 . S
C505 C140 1.440 . S
C503 C75 1.494 . S
C523 C113 1.448 . S
C521 C27 1.494 . S
C539 C49 1.492 . S
C541 C122 1.439 . S
C559 C95 1.363 . S
C557 C72 1.371 . S
C577 C104 1.358 . S
C575 C6 1.371 . S
