# Generated by pormake.
# Topology pto, (3,4)-cn, num edge types: 1
# Building blocks:
#     Node 0, Type 0, BuildingBlock: MIDCAF_clean_linker_0, # of connection points: 3
#     Node 1, Type 0, BuildingBlock: MIDCAF_clean_linker_0, # of connection points: 3
#     Node 2, Type 0, BuildingBlock: MIDCAF_clean_linker_0, # of connection points: 3
#     Node 3, Type 0, BuildingBlock: MIDCAF_clean_linker_0, # of connection points: 3
#     Node 4, Type 0, BuildingBlock: MIDCAF_clean_linker_0, # of connection points: 3
#     Node 5, Type 0, BuildingBlock: MIDCAF_clean_linker_0, # of connection points: 3
#     Node 6, Type 0, BuildingBlock: MIDCAF_clean_linker_0, # of connection points: 3
#     Node 7, Type 0, BuildingBlock: MIDCAF_clean_linker_0, # of connection points: 3
#     Node 8, Type 1, BuildingBlock: NAWXER_clean_sbu_0, # of connection points: 4
#     Node 9, Type 1, BuildingBlock: NAWXER_clean_sbu_0, # of connection points: 4
#     Node 10, Type 1, BuildingBlock: NAWXER_clean_sbu_0, # of connection points: 4
#     Node 11, Type 1, BuildingBlock: NAWXER_clean_sbu_0, # of connection points: 4
#     Node 12, Type 1, BuildingBlock: NAWXER_clean_sbu_0, # of connection points: 4
#     Node 13, Type 1, BuildingBlock: NAWXER_clean_sbu_0, # of connection points: 4
#     Edge 14, Type (0, 1), BuildingBlock: KIFKEQ_clean_linker_1, # of connection points: 2
#     Edge 15, Type (0, 1), BuildingBlock: KIFKEQ_clean_linker_1, # of connection points: 2
#     Edge 16, Type (0, 1), BuildingBlock: KIFKEQ_clean_linker_1, # of connection points: 2
#     Edge 17, Type (0, 1), BuildingBlock: KIFKEQ_clean_linker_1, # of connection points: 2
#     Edge 18, Type (0, 1), BuildingBlock: KIFKEQ_clean_linker_1, # of connection points: 2
#     Edge 19, Type (0, 1), BuildingBlock: KIFKEQ_clean_linker_1, # of connection points: 2
#     Edge 20, Type (0, 1), BuildingBlock: KIFKEQ_clean_linker_1, # of connection points: 2
#     Edge 21, Type (0, 1), BuildingBlock: KIFKEQ_clean_linker_1, # of connection points: 2
#     Edge 22, Type (0, 1), BuildingBlock: KIFKEQ_clean_linker_1, # of connection points: 2
#     Edge 23, Type (0, 1), BuildingBlock: KIFKEQ_clean_linker_1, # of connection points: 2
#     Edge 24, Type (0, 1), BuildingBlock: KIFKEQ_clean_linker_1, # of connection points: 2
#     Edge 25, Type (0, 1), BuildingBlock: KIFKEQ_clean_linker_1, # of connection points: 2
#     Edge 26, Type (0, 1), BuildingBlock: KIFKEQ_clean_linker_1, # of connection points: 2
#     Edge 27, Type (0, 1), BuildingBlock: KIFKEQ_clean_linker_1, # of connection points: 2
#     Edge 28, Type (0, 1), BuildingBlock: KIFKEQ_clean_linker_1, # of connection points: 2
#     Edge 29, Type (0, 1), BuildingBlock: KIFKEQ_clean_linker_1, # of connection points: 2
#     Edge 30, Type (0, 1), BuildingBlock: KIFKEQ_clean_linker_1, # of connection points: 2
#     Edge 31, Type (0, 1), BuildingBlock: KIFKEQ_clean_linker_1, # of connection points: 2
#     Edge 32, Type (0, 1), BuildingBlock: KIFKEQ_clean_linker_1, # of connection points: 2
#     Edge 33, Type (0, 1), BuildingBlock: KIFKEQ_clean_linker_1, # of connection points: 2
#     Edge 34, Type (0, 1), BuildingBlock: KIFKEQ_clean_linker_1, # of connection points: 2
#     Edge 35, Type (0, 1), BuildingBlock: KIFKEQ_clean_linker_1, # of connection points: 2
#     Edge 36, Type (0, 1), BuildingBlock: KIFKEQ_clean_linker_1, # of connection points: 2
#     Edge 37, Type (0, 1), BuildingBlock: KIFKEQ_clean_linker_1, # of connection points: 2
# Relax obj value: 0.000
# Max RMSD: 0.002
# Mean RMSD: 0.001
data_MOF--net-pto--node1-NAWXER_clean_sbu_0--node2-MIDCAF_clean_linker_0--edge1-KIFKEQ_clean_linker_1
_symmetry_space_group_name_H-M    P1
_symmetry_Int_Tables_number       1
_symmetry_cell_setting            triclinic
loop_
_symmetry_equiv_pos_as_xyz
'x, y, z'
_cell_length_a     54.428509
_cell_length_b     51.148279
_cell_length_c     47.842049
_cell_angle_alpha  89.776921
_cell_angle_beta   90.045406
_cell_angle_gamma 90.18718
loop_
_atom_site_label
_atom_site_type_symbol
_atom_site_fract_x
_atom_site_fract_y
_atom_site_fract_z
_atom_type_partial_charge
C0 C 0.32558 0.24233 0.18914 0.0
C1 C 0.32379 0.2541 0.16273 0.0
C2 C 0.30213 0.26743 0.15547 0.0
C3 C 0.28282 0.26948 0.17473 0.0
H4 H 0.21664 0.3082 0.19287 0.0
H5 H 0.18343 0.33975 0.18773 0.0
H6 H 0.15783 0.32069 0.27076 0.0
H7 H 0.1911 0.28942 0.27617 0.0
H8 H 0.2152 0.23614 0.30739 0.0
H9 H 0.21993 0.20589 0.34681 0.0
H10 H 0.29489 0.19109 0.32194 0.0
H11 H 0.29048 0.22142 0.2834 0.0
H12 H 0.30869 0.23495 0.22841 0.0
H13 H 0.34196 0.2317 0.19515 0.0
H14 H 0.30039 0.27678 0.13522 0.0
H15 H 0.26645 0.28013 0.16878 0.0
N16 N 0.24539 0.27612 0.21873 0.0
N17 N 0.22982 0.26344 0.26269 0.0
N18 N 0.26671 0.24595 0.24632 0.0
C19 C 0.22771 0.27798 0.23881 0.0
C20 C 0.24942 0.24738 0.26653 0.0
C21 C 0.26497 0.26005 0.22244 0.0
C22 C 0.20674 0.29628 0.23504 0.0
C23 C 0.20391 0.31063 0.21005 0.0
C24 C 0.18476 0.32865 0.20699 0.0
C25 C 0.16806 0.33288 0.22888 0.0
C26 C 0.17061 0.31821 0.25364 0.0
C27 C 0.18965 0.30013 0.25667 0.0
C28 C 0.25232 0.23104 0.292 0.0
C29 C 0.23276 0.22668 0.3106 0.0
C30 C 0.23544 0.20923 0.33307 0.0
C31 C 0.25777 0.19595 0.33744 0.0
C32 C 0.27753 0.20114 0.31944 0.0
C33 C 0.27486 0.21843 0.29708 0.0
C34 C 0.28482 0.25796 0.20138 0.0
C35 C 0.30638 0.24417 0.20817 0.0
C36 C 0.19303 0.67599 0.79417 0.0
C37 C 0.17113 0.67832 0.77888 0.0
C38 C 0.16862 0.6992 0.7599 0.0
C39 C 0.18794 0.717 0.75577 0.0
H40 H 0.217 0.77488 0.69819 0.0
H41 H 0.22112 0.80487 0.65841 0.0
H42 H 0.29604 0.82141 0.68261 0.0
H43 H 0.29227 0.7914 0.72146 0.0
H44 H 0.3152 0.76932 0.77179 0.0
H45 H 0.34947 0.77132 0.80419 0.0
H46 H 0.30565 0.73293 0.86743 0.0
H47 H 0.27092 0.73085 0.83486 0.0
H48 H 0.22883 0.69129 0.80241 0.0
H49 H 0.1954 0.66018 0.80907 0.0
H50 H 0.15198 0.70134 0.74769 0.0
H51 H 0.18561 0.73264 0.74069 0.0
N52 N 0.2321 0.74811 0.74289 0.0
N53 N 0.27042 0.76406 0.75739 0.0
N54 N 0.24975 0.73337 0.78504 0.0
C55 C 0.25197 0.76384 0.73838 0.0
C56 C 0.26952 0.74909 0.78072 0.0
C57 C 0.23096 0.73269 0.76624 0.0
C58 C 0.25418 0.78079 0.71322 0.0
C59 C 0.23439 0.78474 0.69482 0.0
C60 C 0.23673 0.80202 0.67213 0.0
C61 C 0.25893 0.81557 0.66733 0.0
C62 C 0.2788 0.81108 0.68537 0.0
C63 C 0.27648 0.79396 0.70793 0.0
C64 C 0.29026 0.74989 0.80072 0.0
C65 C 0.31271 0.76131 0.79259 0.0
C66 C 0.33245 0.76237 0.81109 0.0
C67 C 0.3302 0.75225 0.83825 0.0
C68 C 0.30776 0.74103 0.84662 0.0
C69 C 0.28798 0.73969 0.82793 0.0
C70 C 0.21 0.71449 0.77089 0.0
C71 C 0.21215 0.69393 0.79038 0.0
C72 C 0.70908 0.74289 0.15666 0.0
C73 C 0.69383 0.7651 0.15644 0.0
C74 C 0.6983 0.78502 0.17594 0.0
C75 C 0.71677 0.78233 0.19593 0.0
H76 H 0.71903 0.78746 0.28259 0.0
H77 H 0.71179 0.81657 0.32156 0.0
H78 H 0.78822 0.81083 0.34519 0.0
H79 H 0.79544 0.78095 0.30618 0.0
H80 H 0.82029 0.72344 0.27726 0.0
H81 H 0.85425 0.69293 0.27179 0.0
H82 H 0.83226 0.67884 0.18638 0.0
H83 H 0.79806 0.70875 0.19194 0.0
H84 H 0.73881 0.72272 0.17666 0.0
H85 H 0.70601 0.72702 0.14215 0.0
H86 H 0.68735 0.80266 0.17598 0.0
H87 H 0.71937 0.79789 0.21095 0.0
N88 N 0.74645 0.76963 0.24365 0.0
N89 N 0.78188 0.75052 0.26251 0.0
N90 N 0.76881 0.73978 0.21704 0.0
C91 C 0.76232 0.76686 0.26525 0.0
C92 C 0.78519 0.7368 0.23836 0.0
C93 C 0.7495 0.75633 0.21954 0.0
C94 C 0.75794 0.78215 0.29102 0.0
C95 C 0.73435 0.79221 0.29616 0.0
C96 C 0.73016 0.80903 0.31848 0.0
C97 C 0.74948 0.81642 0.33624 0.0
C98 C 0.77289 0.80544 0.33196 0.0
C99 C 0.77707 0.78837 0.30959 0.0
C100 C 0.80629 0.71861 0.23511 0.0
C101 C 0.82268 0.71388 0.25729 0.0
C102 C 0.84228 0.69647 0.25409 0.0
C103 C 0.84604 0.68337 0.22862 0.0
C104 C 0.82975 0.68825 0.20641 0.0
C105 C 0.81016 0.70559 0.20961 0.0
C106 C 0.73148 0.75979 0.19672 0.0
C107 C 0.72783 0.74034 0.1765 0.0
C108 C 0.77031 0.20485 0.6766 0.0
C109 C 0.75584 0.18238 0.68117 0.0
C110 C 0.74476 0.1787 0.70733 0.0
C111 C 0.74807 0.19691 0.72854 0.0
H112 H 0.72024 0.21355 0.803 0.0
H113 H 0.68668 0.21253 0.83651 0.0
H114 H 0.70439 0.29134 0.86176 0.0
H115 H 0.7381 0.29252 0.828 0.0
H116 H 0.79653 0.30718 0.81228 0.0
H117 H 0.82915 0.33967 0.81443 0.0
H118 H 0.85205 0.31892 0.73105 0.0
H119 H 0.81916 0.28641 0.72864 0.0
H120 H 0.7851 0.24023 0.69409 0.0
H121 H 0.77919 0.20803 0.65662 0.0
H122 H 0.73335 0.16171 0.71139 0.0
H123 H 0.73916 0.19322 0.74842 0.0
N124 N 0.74902 0.23756 0.76869 0.0
N125 N 0.76841 0.2729 0.79035 0.0
N126 N 0.7833 0.25707 0.74745 0.0
C127 C 0.75036 0.25454 0.79022 0.0
C128 C 0.78507 0.27424 0.76916 0.0
C129 C 0.76521 0.23859 0.74723 0.0
C130 C 0.73171 0.25324 0.81264 0.0
C131 C 0.71717 0.23063 0.81583 0.0
C132 C 0.69803 0.22993 0.83518 0.0
C133 C 0.69287 0.25189 0.8516 0.0
C134 C 0.70787 0.27422 0.84912 0.0
C135 C 0.72723 0.27484 0.82993 0.0
C136 C 0.80509 0.29409 0.77023 0.0
C137 C 0.80844 0.30946 0.79431 0.0
C138 C 0.82729 0.32802 0.79568 0.0
C139 C 0.84324 0.33187 0.77296 0.0
C140 C 0.83992 0.3166 0.74883 0.0
C141 C 0.82113 0.29786 0.74751 0.0
C142 C 0.76267 0.21933 0.72429 0.0
C143 C 0.77386 0.22311 0.69808 0.0
C144 C 0.67615 0.74294 0.80503 0.0
C145 C 0.67347 0.71907 0.81946 0.0
C146 C 0.69115 0.69949 0.81519 0.0
C147 C 0.711 0.70371 0.79707 0.0
H148 H 0.77389 0.66706 0.76332 0.0
H149 H 0.80762 0.63575 0.75813 0.0
H150 H 0.84897 0.69313 0.71123 0.0
H151 H 0.81586 0.7242 0.71632 0.0
H152 H 0.79666 0.77507 0.70159 0.0
H153 H 0.80168 0.81421 0.67367 0.0
H154 H 0.73048 0.84137 0.70054 0.0
H155 H 0.72506 0.80151 0.72835 0.0
H156 H 0.69741 0.76589 0.77639 0.0
H157 H 0.66315 0.75865 0.80809 0.0
H158 H 0.68956 0.68076 0.82568 0.0
H159 H 0.72421 0.68813 0.79439 0.0
N160 N 0.75267 0.71363 0.7607 0.0
N161 N 0.77434 0.74111 0.73021 0.0
N162 N 0.73744 0.75551 0.74979 0.0
C163 C 0.77239 0.71796 0.74384 0.0
C164 C 0.75714 0.75998 0.7329 0.0
C165 C 0.73508 0.73234 0.76383 0.0
C166 C 0.79213 0.69826 0.74043 0.0
C167 C 0.79015 0.67295 0.75185 0.0
C168 C 0.80937 0.65497 0.74874 0.0
C169 C 0.83095 0.66211 0.73442 0.0
C170 C 0.8327 0.6872 0.72267 0.0
C171 C 0.81357 0.70499 0.72556 0.0
C172 C 0.7603 0.78491 0.71718 0.0
C173 C 0.78198 0.78931 0.70176 0.0
C174 C 0.78503 0.81198 0.68584 0.0
C175 C 0.76654 0.831 0.68484 0.0
C176 C 0.745 0.82695 0.70063 0.0
C177 C 0.74193 0.80416 0.71668 0.0
C178 C 0.71373 0.72764 0.78273 0.0
C179 C 0.69597 0.74716 0.78691 0.0
C180 C 0.78141 0.20768 0.327 0.0
C181 C 0.76788 0.18467 0.32274 0.0
C182 C 0.75074 0.1838 0.30073 0.0
C183 C 0.74679 0.20588 0.28377 0.0
H184 H 0.69695 0.24268 0.22654 0.0
H185 H 0.66188 0.24849 0.19543 0.0
H186 H 0.68514 0.32776 0.17826 0.0
H187 H 0.72042 0.32186 0.20876 0.0
H188 H 0.76756 0.3461 0.23943 0.0
H189 H 0.79856 0.38037 0.24458 0.0
H190 H 0.84574 0.32604 0.2883 0.0
H191 H 0.81473 0.29231 0.28401 0.0
H192 H 0.78847 0.24688 0.31427 0.0
H193 H 0.79487 0.20885 0.34365 0.0
H194 H 0.73996 0.16629 0.29712 0.0
H195 H 0.73326 0.20481 0.2672 0.0
N196 N 0.73659 0.25572 0.25383 0.0
N197 N 0.75013 0.29799 0.24149 0.0
N198 N 0.77283 0.27279 0.27306 0.0
C199 C 0.73333 0.27831 0.23897 0.0
C200 C 0.76998 0.29529 0.25847 0.0
C201 C 0.75639 0.25293 0.27105 0.0
C202 C 0.71167 0.28174 0.22024 0.0
C203 C 0.69462 0.26137 0.21616 0.0
C204 C 0.67438 0.26477 0.19841 0.0
C205 C 0.6706 0.28863 0.18428 0.0
C206 C 0.68759 0.309 0.18844 0.0
C207 C 0.70783 0.30561 0.20613 0.0
C208 C 0.78857 0.31641 0.26129 0.0
C209 C 0.78452 0.34153 0.25022 0.0
C210 C 0.80234 0.36116 0.25311 0.0
C211 C 0.82466 0.35605 0.26698 0.0
C212 C 0.8286 0.33093 0.27805 0.0
C213 C 0.8108 0.31144 0.27534 0.0
C214 C 0.7602 0.22905 0.28832 0.0
C215 C 0.77772 0.22949 0.31 0.0
C216 C 0.26017 0.17931 0.70316 0.0
C217 C 0.2446 0.18044 0.67969 0.0
C218 C 0.23258 0.20395 0.67347 0.0
C219 C 0.23604 0.22591 0.69017 0.0
H220 H 0.19544 0.28537 0.71819 0.0
H221 H 0.16288 0.3174 0.71443 0.0
H222 H 0.20696 0.37316 0.75993 0.0
H223 H 0.24004 0.3409 0.76383 0.0
H224 H 0.28814 0.31747 0.79549 0.0
H225 H 0.32238 0.32312 0.82774 0.0
H226 H 0.34823 0.24569 0.80779 0.0
H227 H 0.31382 0.23977 0.77586 0.0
H228 H 0.27612 0.20022 0.73765 0.0
H229 H 0.2698 0.16141 0.70827 0.0
H230 H 0.22038 0.20535 0.65562 0.0
H231 H 0.22642 0.24368 0.68453 0.0
N232 N 0.23792 0.26807 0.7289 0.0
N233 N 0.25943 0.29348 0.76132 0.0
N234 N 0.27432 0.25202 0.74854 0.0
C235 C 0.23989 0.29034 0.74393 0.0
C236 C 0.27676 0.27441 0.76378 0.0
C237 C 0.25489 0.24885 0.7309 0.0
C238 C 0.22043 0.31047 0.74145 0.0
C239 C 0.19841 0.30444 0.72738 0.0
C240 C 0.17962 0.32276 0.72528 0.0
C241 C 0.18235 0.34769 0.73699 0.0
C242 C 0.20447 0.35408 0.75059 0.0
C243 C 0.22331 0.33556 0.75296 0.0
C244 C 0.29803 0.27807 0.78305 0.0
C245 C 0.30109 0.30159 0.79791 0.0
C246 C 0.32086 0.30495 0.81632 0.0
C247 C 0.33806 0.28486 0.82047 0.0
C248 C 0.33514 0.26145 0.80543 0.0
C249 C 0.31543 0.25811 0.78696 0.0
C250 C 0.25184 0.2251 0.71346 0.0
C251 C 0.26394 0.20154 0.71979 0.0
C252 C 0.20785 0.65404 0.25652 0.0
C253 C 0.18594 0.66112 0.27006 0.0
C254 C 0.18399 0.68623 0.2815 0.0
C255 C 0.20329 0.70406 0.27915 0.0
H256 H 0.22267 0.77209 0.30757 0.0
H257 H 0.2169 0.81185 0.33379 0.0
H258 H 0.28586 0.8419 0.30244 0.0
H259 H 0.29204 0.80143 0.27621 0.0
H260 H 0.32763 0.75603 0.24161 0.0
H261 H 0.36157 0.74881 0.20897 0.0
H262 H 0.31905 0.68932 0.16715 0.0
H263 H 0.2853 0.69617 0.19978 0.0
H264 H 0.24374 0.66616 0.24306 0.0
H265 H 0.20976 0.63482 0.24735 0.0
H266 H 0.16743 0.69213 0.29231 0.0
H267 H 0.2009 0.72328 0.28812 0.0
N268 N 0.24353 0.73977 0.27632 0.0
N269 N 0.28078 0.75417 0.25712 0.0
N270 N 0.26472 0.71283 0.24528 0.0
C271 C 0.26107 0.7585 0.27404 0.0
C272 C 0.28268 0.73131 0.24262 0.0
C273 C 0.2451 0.71694 0.26224 0.0
C274 C 0.25793 0.78336 0.28969 0.0
C275 C 0.23672 0.78706 0.30606 0.0
C276 C 0.23323 0.81009 0.32102 0.0
C277 C 0.25079 0.83021 0.32013 0.0
C278 C 0.27203 0.82668 0.30374 0.0
C279 C 0.27554 0.80352 0.28862 0.0
C280 C 0.30367 0.72674 0.22334 0.0
C281 C 0.32554 0.74134 0.22554 0.0
C282 C 0.34505 0.7371 0.20698 0.0
C283 C 0.34295 0.71851 0.18551 0.0
C284 C 0.32116 0.70386 0.18339 0.0
C285 C 0.30185 0.70776 0.20219 0.0
C286 C 0.22508 0.69733 0.26509 0.0
C287 C 0.22721 0.67204 0.25391 0.0
C288 C 0.97138 0.47728 0.266 0.0
C289 C 0.04117 0.53789 0.26698 0.0
O290 O 0.98186 0.48662 0.28757 0.0
Zn291 Zn 0.00645 0.50735 0.26792 0.0
O292 O 0.97916 0.48371 0.24164 0.0
Zn293 Zn 0.00663 0.50789 0.22286 0.0
O294 O 0.0271 0.48261 0.20299 0.0
O295 O 0.02868 0.47821 0.24884 0.0
O296 O 0.03361 0.53202 0.24242 0.0
O297 O 0.03083 0.52769 0.28826 0.0
O298 O 0.98432 0.53696 0.24901 0.0
O299 O 0.98647 0.53362 0.20311 0.0
C300 C 0.03528 0.4707 0.22447 0.0
C301 C 0.97801 0.54503 0.22466 0.0
C302 C 0.97636 0.47054 0.77595 0.0
C303 C 0.03795 0.54104 0.77841 0.0
O304 O 0.9845 0.4818 0.79778 0.0
Zn305 Zn 0.00658 0.50636 0.77884 0.0
O306 O 0.98387 0.47809 0.75186 0.0
Zn307 Zn 0.00793 0.50646 0.7338 0.0
O308 O 0.03148 0.48465 0.71443 0.0
O309 O 0.03308 0.48081 0.76045 0.0
O310 O 0.03209 0.53353 0.75377 0.0
O311 O 0.02731 0.53088 0.79953 0.0
O312 O 0.98142 0.53202 0.75899 0.0
O313 O 0.98514 0.52875 0.71321 0.0
C314 C 0.04092 0.47433 0.73617 0.0
C315 C 0.97475 0.53885 0.73437 0.0
C316 C 0.27016 0.96419 0.52923 0.0
C317 C 0.2697 0.04338 0.47053 0.0
O318 O 0.24894 0.97307 0.5229 0.0
Zn319 Zn 0.23204 0.00367 0.5007 0.0
O320 O 0.28934 0.9762 0.52082 0.0
Zn321 Zn 0.27232 0.00386 0.49971 0.0
O322 O 0.2562 0.02641 0.53177 0.0
O323 O 0.21575 0.02349 0.53062 0.0
O324 O 0.28909 0.03138 0.47824 0.0
O325 O 0.24858 0.03446 0.47757 0.0
O326 O 0.21465 0.98389 0.47154 0.0
O327 O 0.25504 0.98266 0.46721 0.0
C328 C 0.23523 0.03281 0.54164 0.0
C329 C 0.23367 0.97624 0.45839 0.0
C330 C 0.54344 0.75552 0.03467 0.0
C331 C 0.475 0.75217 0.96906 0.0
O332 O 0.53679 0.73223 0.02841 0.0
Zn333 Zn 0.50967 0.71289 0.00406 0.0
O334 O 0.53149 0.77486 0.025 0.0
Zn335 Zn 0.50839 0.75488 0.00262 0.0
O336 O 0.48454 0.73748 0.03265 0.0
O337 O 0.48947 0.69473 0.03218 0.0
O338 O 0.48485 0.77267 0.97916 0.0
O339 O 0.48269 0.72954 0.97663 0.0
O340 O 0.53059 0.69404 0.97769 0.0
O341 O 0.53179 0.7369 0.97219 0.0
C342 C 0.4788 0.71479 0.04202 0.0
C343 C 0.53884 0.71406 0.96477 0.0
C344 C 0.7791 0.97482 0.54122 0.0
C345 C 0.77756 0.03715 0.46246 0.0
O346 O 0.75773 0.9819 0.53301 0.0
Zn347 Zn 0.74041 0.00537 0.502 0.0
O348 O 0.79812 0.98302 0.52828 0.0
Zn349 Zn 0.78057 0.00483 0.50096 0.0
O350 O 0.76442 0.03295 0.52784 0.0
O351 O 0.72385 0.03111 0.52554 0.0
O352 O 0.79689 0.02682 0.4726 0.0
O353 O 0.75651 0.03029 0.47188 0.0
O354 O 0.72298 0.97913 0.47945 0.0
O355 O 0.76328 0.97571 0.47691 0.0
C356 C 0.74334 0.04125 0.53566 0.0
C357 C 0.7419 0.9674 0.47022 0.0
C358 C 0.53323 0.2949 0.04215 0.0
C359 C 0.47596 0.2946 0.96201 0.0
O360 O 0.52687 0.27212 0.03362 0.0
Zn361 Zn 0.50466 0.25434 0.00195 0.0
O362 O 0.52468 0.31509 0.02989 0.0
Zn363 Zn 0.50461 0.29661 0.00221 0.0
O364 O 0.47765 0.27833 0.02783 0.0
O365 O 0.48021 0.23541 0.02368 0.0
O366 O 0.48418 0.31484 0.97437 0.0
O367 O 0.48258 0.27194 0.97053 0.0
O368 O 0.52914 0.23595 0.98007 0.0
O369 O 0.53261 0.27895 0.97778 0.0
C370 C 0.46996 0.25539 0.03425 0.0
C371 C 0.54034 0.25619 0.97108 0.0
H372 H 0.15393 0.3683 0.26812 0.0
H373 H 0.13811 0.34339 0.18385 0.0
H374 H 0.1215 0.4007 0.26498 0.0
H375 H 0.10524 0.37586 0.18075 0.0
H376 H 0.06428 0.45659 0.17968 0.0
H377 H 0.09639 0.42301 0.17918 0.0
H378 H 0.07757 0.40152 0.26394 0.0
H379 H 0.04629 0.4351 0.26465 0.0
C380 C 0.14334 0.36956 0.24899 0.0
C381 C 0.14845 0.35302 0.22637 0.0
C382 C 0.12469 0.38816 0.24717 0.0
C383 C 0.11048 0.3907 0.22273 0.0
C384 C 0.1159 0.37455 0.19982 0.0
C385 C 0.13471 0.35592 0.20162 0.0
C386 C 0.06692 0.44449 0.19805 0.0
C387 C 0.05294 0.44875 0.2223 0.0
C388 C 0.08528 0.42523 0.19778 0.0
C389 C 0.08989 0.40986 0.22172 0.0
C390 C 0.07506 0.41345 0.2454 0.0
C391 C 0.05695 0.43265 0.24573 0.0
H392 H 0.17632 0.62547 0.77733 0.0
H393 H 0.12176 0.68584 0.78696 0.0
H394 H 0.14417 0.5921 0.78021 0.0
H395 H 0.08949 0.65223 0.79015 0.0
H396 H 0.04508 0.57668 0.82079 0.0
H397 H 0.07733 0.61053 0.82334 0.0
H398 H 0.10755 0.58314 0.74545 0.0
H399 H 0.07543 0.55004 0.74256 0.0
C400 C 0.15748 0.63157 0.78042 0.0
C401 C 0.15151 0.65824 0.78185 0.0
C402 C 0.13911 0.61249 0.78199 0.0
C403 C 0.1144 0.61963 0.78546 0.0
C404 C 0.10844 0.64625 0.7877 0.0
C405 C 0.12682 0.66542 0.78563 0.0
C406 C 0.05871 0.57791 0.80435 0.0
C407 C 0.05771 0.56079 0.78145 0.0
C408 C 0.07701 0.59729 0.80572 0.0
C409 C 0.0949 0.59934 0.7846 0.0
C410 C 0.09409 0.58188 0.76209 0.0
C411 C 0.07562 0.56301 0.7604 0.0
H412 H 0.89317 0.68767 0.24846 0.0
H413 H 0.84578 0.63629 0.20118 0.0
H414 H 0.92635 0.65596 0.24486 0.0
H415 H 0.87909 0.6047 0.1974 0.0
H416 H 0.95146 0.56169 0.1788 0.0
H417 H 0.92065 0.59662 0.17735 0.0
H418 H 0.93416 0.61269 0.26459 0.0
H419 H 0.96477 0.57837 0.26598 0.0
C420 C 0.88978 0.6696 0.23736 0.0
C421 C 0.86669 0.6645 0.22532 0.0
C422 C 0.90885 0.65145 0.23521 0.0
C423 C 0.90536 0.62774 0.22092 0.0
C424 C 0.8825 0.62291 0.20823 0.0
C425 C 0.86339 0.64104 0.21045 0.0
C426 C 0.94799 0.57291 0.19753 0.0
C427 C 0.96053 0.56717 0.2225 0.0
C428 C 0.93025 0.59278 0.19677 0.0
C429 C 0.92496 0.60747 0.22086 0.0
C430 C 0.93797 0.60204 0.24555 0.0
C431 C 0.95544 0.58217 0.24638 0.0
H432 H 0.8567 0.36703 0.73262 0.0
H433 H 0.8744 0.34234 0.81663 0.0
H434 H 0.88888 0.40011 0.73479 0.0
H435 H 0.90697 0.37526 0.81874 0.0
H436 H 0.94739 0.45543 0.82052 0.0
H437 H 0.91514 0.42187 0.82067 0.0
H438 H 0.93245 0.40323 0.7349 0.0
H439 H 0.96384 0.43691 0.73453 0.0
C440 C 0.86766 0.36848 0.75145 0.0
C441 C 0.86306 0.35195 0.77437 0.0
C442 C 0.88616 0.38745 0.75273 0.0
C443 C 0.90071 0.39028 0.77689 0.0
C444 C 0.89597 0.37387 0.79993 0.0
C445 C 0.87734 0.35495 0.79869 0.0
C446 C 0.94433 0.44403 0.8018 0.0
C447 C 0.95802 0.44905 0.77746 0.0
C448 C 0.92591 0.42475 0.80187 0.0
C449 C 0.92093 0.41003 0.77765 0.0
C450 C 0.93526 0.41459 0.7537 0.0
C451 C 0.95343 0.43386 0.75357 0.0
H452 H 0.29712 0.18631 0.37202 0.0
H453 H 0.22412 0.15869 0.35199 0.0
H454 H 0.30189 0.15045 0.40554 0.0
H455 H 0.22883 0.12316 0.38542 0.0
H456 H 0.23349 0.07908 0.46576 0.0
H457 H 0.23178 0.11716 0.43568 0.0
H458 H 0.30547 0.10158 0.40689 0.0
H459 H 0.30739 0.06311 0.43781 0.0
C460 C 0.28209 0.17262 0.37478 0.0
C461 C 0.26016 0.17546 0.35942 0.0
C462 C 0.28488 0.15206 0.39391 0.0
C463 C 0.26574 0.13401 0.39819 0.0
C464 C 0.24378 0.137 0.38299 0.0
C465 C 0.24102 0.15746 0.36388 0.0
C466 C 0.24945 0.0837 0.45313 0.0
C467 C 0.27047 0.06779 0.45384 0.0
C468 C 0.24839 0.10555 0.43579 0.0
C469 C 0.26827 0.11212 0.4185 0.0
C470 C 0.28983 0.09698 0.42002 0.0
C471 C 0.29094 0.07496 0.43763 0.0
H472 H 0.37717 0.73794 0.82694 0.0
H473 H 0.33125 0.76858 0.89261 0.0
H474 H 0.41271 0.73978 0.85802 0.0
H475 H 0.36695 0.77029 0.92389 0.0
H476 H 0.44429 0.79364 0.959 0.0
H477 H 0.40894 0.79468 0.92713 0.0
H478 H 0.42422 0.71531 0.90233 0.0
H479 H 0.4592 0.71415 0.93396 0.0
C480 C 0.37474 0.74517 0.84801 0.0
C481 C 0.3515 0.75309 0.85743 0.0
C482 C 0.39502 0.74611 0.8658 0.0
C483 C 0.39252 0.75522 0.89329 0.0
C484 C 0.36935 0.76341 0.90269 0.0
C485 C 0.34895 0.76217 0.88495 0.0
C486 C 0.44015 0.77653 0.94658 0.0
C487 C 0.45447 0.75382 0.94897 0.0
C488 C 0.41987 0.77706 0.92855 0.0
C489 C 0.41393 0.75507 0.91234 0.0
C490 C 0.42852 0.73259 0.91443 0.0
C491 C 0.44848 0.73193 0.93264 0.0
H492 H 0.7674 0.81751 0.38986 0.0
H493 H 0.72227 0.86115 0.33195 0.0
H494 H 0.76256 0.85212 0.42441 0.0
H495 H 0.71739 0.8956 0.36646 0.0
H496 H 0.70133 0.94651 0.44334 0.0
H497 H 0.70046 0.90784 0.41299 0.0
H498 H 0.77814 0.89672 0.42704 0.0
H499 H 0.779 0.93452 0.45712 0.0
C500 C 0.75642 0.83443 0.38452 0.0
C501 C 0.74536 0.83658 0.35808 0.0
C502 C 0.75356 0.85422 0.40432 0.0
C503 C 0.73964 0.87666 0.39813 0.0
C504 C 0.72792 0.87842 0.37205 0.0
C505 C 0.73079 0.85865 0.35224 0.0
C506 C 0.71811 0.93563 0.44004 0.0
C507 C 0.74022 0.94373 0.45252 0.0
C508 C 0.71765 0.91357 0.42263 0.0
C509 C 0.73923 0.89913 0.41774 0.0
C510 C 0.76112 0.90707 0.4307 0.0
C511 C 0.76162 0.92902 0.44777 0.0
H512 H 0.65833 0.28989 0.85576 0.0
H513 H 0.67767 0.21376 0.88809 0.0
H514 H 0.62126 0.28963 0.88407 0.0
H515 H 0.64072 0.21367 0.91714 0.0
H516 H 0.5591 0.21304 0.9443 0.0
H517 H 0.59617 0.21127 0.91532 0.0
H518 H 0.60969 0.29312 0.93165 0.0
H519 H 0.57268 0.29508 0.95946 0.0
C520 C 0.65482 0.27328 0.86931 0.0
C521 C 0.67097 0.25197 0.86994 0.0
C522 C 0.63356 0.27308 0.88554 0.0
C523 C 0.62807 0.25168 0.90305 0.0
C524 C 0.64424 0.23031 0.90364 0.0
C525 C 0.66545 0.23042 0.88716 0.0
C526 C 0.57003 0.2306 0.94157 0.0
C527 C 0.56281 0.25423 0.9539 0.0
C528 C 0.59131 0.22958 0.92513 0.0
C529 C 0.60578 0.25214 0.92094 0.0
C530 C 0.5987 0.27554 0.93382 0.0
C531 C 0.57747 0.27661 0.94992 0.0
H532 H 0.29823 0.8245 0.63251 0.0
H533 H 0.22507 0.8519 0.65117 0.0
H534 H 0.30288 0.85918 0.59757 0.0
H535 H 0.22966 0.88627 0.61627 0.0
H536 H 0.23435 0.92787 0.53446 0.0
H537 H 0.23276 0.89061 0.56576 0.0
H538 H 0.30628 0.908 0.59439 0.0
H539 H 0.30806 0.94562 0.56228 0.0
C540 C 0.28314 0.83791 0.62917 0.0
C541 C 0.26121 0.83536 0.6446 0.0
C542 C 0.28586 0.85778 0.6092 0.0
C543 C 0.26665 0.87543 0.60411 0.0
C544 C 0.24468 0.87271 0.61935 0.0
C545 C 0.24198 0.85293 0.63931 0.0
C546 C 0.25031 0.92378 0.54728 0.0
C547 C 0.27123 0.93997 0.54621 0.0
C548 C 0.24932 0.90241 0.56532 0.0
C549 C 0.26917 0.89664 0.58297 0.0
C550 C 0.29067 0.91199 0.58101 0.0
C551 C 0.29171 0.93351 0.56269 0.0
H552 H 0.69139 0.74945 0.10169 0.0
H553 H 0.64804 0.78481 0.16707 0.0
H554 H 0.65548 0.74951 0.0711 0.0
H555 H 0.6125 0.78551 0.13612 0.0
H556 H 0.55934 0.80002 0.06143 0.0
H557 H 0.5968 0.80506 0.08959 0.0
H558 H 0.61527 0.72439 0.07406 0.0
H559 H 0.57822 0.71926 0.04634 0.0
C560 C 0.67429 0.75732 0.10953 0.0
C561 C 0.67263 0.76697 0.13693 0.0
C562 C 0.65379 0.75748 0.09195 0.0
C563 C 0.63126 0.7675 0.10131 0.0
C564 C 0.62975 0.77799 0.12828 0.0
C565 C 0.65016 0.7776 0.14596 0.0
C566 C 0.57145 0.78344 0.06405 0.0
C567 C 0.56577 0.75924 0.05179 0.0
C568 C 0.59281 0.7863 0.08015 0.0
C569 C 0.60896 0.76514 0.08377 0.0
C570 C 0.60333 0.74111 0.07129 0.0
C571 C 0.58195 0.73815 0.05562 0.0
H572 H 0.7433 0.18912 0.62599 0.0
H573 H 0.76109 0.12995 0.6873 0.0
H574 H 0.7375 0.15487 0.59059 0.0
H575 H 0.75523 0.09605 0.65226 0.0
H576 H 0.77859 0.0515 0.5737 0.0
H577 H 0.77994 0.0861 0.60814 0.0
H578 H 0.7086 0.11291 0.58121 0.0
H579 H 0.70708 0.07762 0.54624 0.0
C580 C 0.74599 0.16885 0.63184 0.0
C581 C 0.75271 0.16216 0.65933 0.0
C582 C 0.74239 0.14931 0.61175 0.0
C583 C 0.74585 0.12287 0.61879 0.0
C584 C 0.75248 0.11629 0.64628 0.0
C585 C 0.75579 0.13567 0.66632 0.0
C586 C 0.76309 0.06467 0.57503 0.0
C587 C 0.7427 0.06185 0.55723 0.0
C588 C 0.76386 0.08443 0.59488 0.0
C589 C 0.74439 0.10212 0.59734 0.0
C590 C 0.7239 0.09951 0.57958 0.0
C591 C 0.72294 0.07929 0.5598 0.0
H592 H 0.32425 0.241 0.10721 0.0
H593 H 0.37132 0.26498 0.17521 0.0
H594 H 0.36016 0.23897 0.07617 0.0
H595 H 0.40693 0.26281 0.14447 0.0
H596 H 0.4549 0.29155 0.07151 0.0
H597 H 0.41935 0.28982 0.1021 0.0
H598 H 0.40168 0.21262 0.07178 0.0
H599 H 0.43774 0.21424 0.04084 0.0
C600 C 0.34223 0.24585 0.11544 0.0
C601 C 0.34507 0.25317 0.14354 0.0
C602 C 0.36273 0.24441 0.09784 0.0
C603 C 0.38624 0.25068 0.10802 0.0
C604 C 0.38899 0.25797 0.1361 0.0
C605 C 0.36865 0.25912 0.15368 0.0
C606 C 0.44355 0.2741 0.07138 0.0
C607 C 0.4491 0.253 0.05379 0.0
C608 C 0.42324 0.27311 0.08898 0.0
C609 C 0.40782 0.2511 0.08926 0.0
C610 C 0.41328 0.22987 0.07177 0.0
C611 C 0.43394 0.23071 0.05431 0.0
H612 H 0.87887 0.67341 0.74487 0.0
H613 H 0.83094 0.6103 0.7197 0.0
H614 H 0.91418 0.64438 0.7418 0.0
H615 H 0.86652 0.581 0.71679 0.0
H616 H 0.94289 0.54595 0.69029 0.0
H617 H 0.90769 0.57597 0.68844 0.0
H618 H 0.92654 0.60475 0.77044 0.0
H619 H 0.96122 0.575 0.77241 0.0
C620 C 0.87593 0.65335 0.73849 0.0
C621 C 0.85217 0.64409 0.73254 0.0
C622 C 0.89612 0.63672 0.73684 0.0
C623 C 0.89306 0.61049 0.72902 0.0
C624 C 0.86938 0.60123 0.72262 0.0
C625 C 0.84904 0.61786 0.72458 0.0
C626 C 0.93958 0.55892 0.70772 0.0
C627 C 0.95476 0.55815 0.73148 0.0
C628 C 0.91938 0.57588 0.70676 0.0
C629 C 0.91444 0.59263 0.72931 0.0
C630 C 0.93001 0.59221 0.75268 0.0
C631 C 0.94983 0.57509 0.75382 0.0
H632 H 0.83822 0.39221 0.22745 0.0
H633 H 0.85576 0.3658 0.31102 0.0
H634 H 0.8724 0.42284 0.22917 0.0
H635 H 0.89093 0.39535 0.31204 0.0
H636 H 0.94213 0.46736 0.3118 0.0
H637 H 0.9051 0.44005 0.31346 0.0
H638 H 0.91585 0.41948 0.22679 0.0
H639 H 0.95203 0.4471 0.22495 0.0
C640 C 0.8492 0.39307 0.24631 0.0
C641 C 0.8443 0.37631 0.26899 0.0
C642 C 0.86907 0.4104 0.24715 0.0
C643 C 0.88472 0.41127 0.27057 0.0
C644 C 0.87927 0.39526 0.29369 0.0
C645 C 0.85926 0.37805 0.29294 0.0
C646 C 0.93656 0.4569 0.29319 0.0
C647 C 0.94992 0.45954 0.26821 0.0
C648 C 0.91537 0.44123 0.29412 0.0
C649 C 0.90727 0.42783 0.27013 0.0
C650 C 0.92109 0.43005 0.24545 0.0
C651 C 0.94203 0.44576 0.24447 0.0
H652 H 0.18359 0.39938 0.7216 0.0
H653 H 0.13444 0.33815 0.74936 0.0
H654 H 0.14888 0.42988 0.71926 0.0
H655 H 0.09997 0.36842 0.74694 0.0
H656 H 0.05469 0.43932 0.7758 0.0
H657 H 0.08896 0.40898 0.77461 0.0
H658 H 0.10759 0.43558 0.69152 0.0
H659 H 0.07287 0.46616 0.69257 0.0
C660 C 0.1654 0.3925 0.72722 0.0
C661 C 0.16167 0.36644 0.73568 0.0
C662 C 0.14556 0.40982 0.72561 0.0
C663 C 0.12178 0.40145 0.73287 0.0
C664 C 0.11812 0.37541 0.74132 0.0
C665 C 0.13782 0.35808 0.74259 0.0
C666 C 0.06598 0.43869 0.75717 0.0
C667 C 0.06107 0.45512 0.73424 0.0
C668 C 0.08556 0.42122 0.75649 0.0
C669 C 0.1009 0.41995 0.73299 0.0
C670 C 0.09608 0.43632 0.70996 0.0
C671 C 0.07615 0.45363 0.71047 0.0
H672 H 0.13828 0.67202 0.25789 0.0
H673 H 0.18562 0.60935 0.28529 0.0
H674 H 0.10299 0.64257 0.25972 0.0
H675 H 0.15007 0.57967 0.28701 0.0
H676 H 0.07261 0.54461 0.31153 0.0
H677 H 0.10808 0.57443 0.31397 0.0
H678 H 0.09161 0.60262 0.23091 0.0
H679 H 0.05665 0.57307 0.22833 0.0
C680 C 0.14109 0.65197 0.26451 0.0
C681 C 0.16469 0.64295 0.27142 0.0
C682 C 0.12092 0.63511 0.26544 0.0
C683 C 0.12383 0.60888 0.27352 0.0
C684 C 0.14733 0.59988 0.28093 0.0
C685 C 0.16765 0.61673 0.27967 0.0
C686 C 0.07655 0.55732 0.29393 0.0
C687 C 0.06187 0.5565 0.26976 0.0
C688 C 0.09689 0.57419 0.29524 0.0
C689 C 0.10251 0.59081 0.27263 0.0
C690 C 0.08759 0.59019 0.24873 0.0
C691 C 0.06762 0.57316 0.24724 0.0
H692 H 0.73182 0.85357 0.65134 0.0
H693 H 0.80795 0.86079 0.67582 0.0
H694 H 0.73696 0.88978 0.61879 0.0
H695 H 0.81313 0.89714 0.643 0.0
H696 H 0.81569 0.93979 0.55516 0.0
H697 H 0.8138 0.90617 0.59194 0.0
H698 H 0.74375 0.93649 0.61886 0.0
H699 H 0.74541 0.96932 0.58223 0.0
C700 C 0.74956 0.86316 0.65014 0.0
C701 C 0.76942 0.85428 0.6663 0.0
C702 C 0.75255 0.88392 0.63139 0.0
C703 C 0.77547 0.89644 0.62832 0.0
C704 C 0.79533 0.88773 0.64462 0.0
C705 C 0.79232 0.86694 0.66345 0.0
C706 C 0.80013 0.93942 0.56926 0.0
C707 C 0.78055 0.95691 0.56554 0.0
C708 C 0.79902 0.92022 0.59031 0.0
C709 C 0.77836 0.91834 0.60799 0.0
C710 C 0.75958 0.9369 0.60516 0.0
C711 C 0.76062 0.95583 0.5842 0.0
H712 H 0.62327 0.27114 0.19137 0.0
H713 H 0.66922 0.31429 0.1337 0.0
H714 H 0.58875 0.27528 0.1592 0.0
H715 H 0.63458 0.31857 0.10162 0.0
H716 H 0.5612 0.33734 0.05842 0.0
H717 H 0.59332 0.33815 0.09447 0.0
H718 H 0.57816 0.25715 0.11384 0.0
H719 H 0.54624 0.25642 0.07846 0.0
C720 C 0.62607 0.28144 0.17181 0.0
C721 C 0.64916 0.29217 0.16511 0.0
C722 C 0.60622 0.2839 0.15338 0.0
C723 C 0.60888 0.29719 0.12774 0.0
C724 C 0.63177 0.30853 0.12134 0.0
C725 C 0.65167 0.30601 0.13975 0.0
C726 C 0.56455 0.31986 0.07067 0.0
C727 C 0.55119 0.29681 0.06547 0.0
C728 C 0.58306 0.32025 0.09116 0.0
C729 C 0.58835 0.29769 0.10706 0.0
C730 C 0.57443 0.27497 0.10231 0.0
C731 C 0.55619 0.27452 0.0818 0.0
H732 H 0.24909 0.18009 0.62324 0.0
H733 H 0.23296 0.12969 0.69351 0.0
H734 H 0.24424 0.14313 0.59151 0.0
H735 H 0.22778 0.09251 0.66138 0.0
H736 H 0.1964 0.04753 0.57566 0.0
H737 H 0.1968 0.08238 0.61124 0.0
H738 H 0.27305 0.09788 0.59306 0.0
H739 H 0.27303 0.06341 0.55848 0.0
C740 C 0.24426 0.16114 0.63185 0.0
C741 C 0.24148 0.15771 0.66082 0.0
C742 C 0.24145 0.14006 0.61371 0.0
C743 C 0.23543 0.11515 0.62407 0.0
C744 C 0.23215 0.11166 0.65296 0.0
C745 C 0.23537 0.13277 0.67127 0.0
C746 C 0.21324 0.05825 0.57951 0.0
C747 C 0.23464 0.05265 0.56419 0.0
C748 C 0.21349 0.07804 0.59987 0.0
C749 C 0.23497 0.09271 0.60468 0.0
C750 C 0.25628 0.08685 0.58965 0.0
C751 C 0.25618 0.06701 0.56986 0.0
H752 H 0.33882 0.71784 0.12877 0.0
H753 H 0.39221 0.71162 0.19519 0.0
H754 H 0.37168 0.71431 0.09415 0.0
H755 H 0.42516 0.7077 0.16036 0.0
H756 H 0.47115 0.67649 0.082 0.0
H757 H 0.4383 0.67516 0.11745 0.0
H758 H 0.40856 0.74688 0.08413 0.0
H759 H 0.44128 0.74861 0.04951 0.0
C760 C 0.35755 0.71538 0.13595 0.0
C761 C 0.36296 0.7151 0.16468 0.0
C762 C 0.37634 0.71342 0.11615 0.0
C763 C 0.40093 0.71067 0.1246 0.0
C764 C 0.40633 0.70959 0.15331 0.0
C765 C 0.38754 0.71206 0.17318 0.0
C766 C 0.45753 0.69188 0.08229 0.0
C767 C 0.45886 0.71269 0.06305 0.0
C768 C 0.43886 0.69119 0.1026 0.0
C769 C 0.42089 0.7109 0.10343 0.0
C770 C 0.42206 0.73136 0.08387 0.0
C771 C 0.4409 0.73238 0.06413 0.0
H772 H 0.76729 0.18625 0.37939 0.0
H773 H 0.77564 0.1329 0.31037 0.0
H774 H 0.77226 0.1501 0.41232 0.0
H775 H 0.78087 0.09648 0.34367 0.0
H776 H 0.81362 0.04804 0.42323 0.0
H777 H 0.81293 0.08323 0.38776 0.0
H778 H 0.74277 0.10889 0.41909 0.0
H779 H 0.74313 0.0741 0.4537 0.0
C780 C 0.77042 0.16679 0.37129 0.0
C781 C 0.77101 0.16235 0.34233 0.0
C782 C 0.77326 0.14614 0.39012 0.0
C783 C 0.77708 0.1206 0.38048 0.0
C784 C 0.77819 0.11608 0.35155 0.0
C785 C 0.77494 0.13679 0.33259 0.0
C786 C 0.79813 0.06125 0.42244 0.0
C787 C 0.77843 0.05826 0.4412 0.0
C788 C 0.79766 0.0812 0.40212 0.0
C789 C 0.77779 0.0987 0.40082 0.0
C790 C 0.75833 0.09574 0.41972 0.0
C791 C 0.75856 0.07571 0.43949 0.0
H792 H 0.36716 0.32817 0.82962 0.0
H793 H 0.35542 0.24878 0.85776 0.0
H794 H 0.40138 0.3326 0.86251 0.0
H795 H 0.38931 0.2532 0.8905 0.0
H796 H 0.46567 0.25699 0.92401 0.0
H797 H 0.43326 0.2563 0.88924 0.0
H798 H 0.41217 0.33457 0.91258 0.0
H799 H 0.44537 0.33547 0.94737 0.0
C800 C 0.37174 0.31173 0.84294 0.0
C801 C 0.35867 0.288 0.8408 0.0
C802 C 0.39135 0.31429 0.86182 0.0
C803 C 0.39834 0.29318 0.87896 0.0
C804 C 0.3849 0.26968 0.87715 0.0
C805 C 0.36541 0.26712 0.85833 0.0
C806 C 0.45429 0.2742 0.92166 0.0
C807 C 0.45797 0.2962 0.93872 0.0
C808 C 0.43554 0.27372 0.90179 0.0
C809 C 0.41971 0.29515 0.89846 0.0
C810 C 0.42403 0.31772 0.91459 0.0
C811 C 0.44303 0.31826 0.93452 0.0
H812 H 0.20815 0.85775 0.32828 0.0
H813 H 0.285 0.85686 0.35087 0.0
H814 H 0.20165 0.89521 0.3589 0.0
H815 H 0.27854 0.89418 0.38131 0.0
H816 H 0.26654 0.97324 0.41627 0.0
H817 H 0.26924 0.94017 0.38014 0.0
H818 H 0.20112 0.90596 0.40903 0.0
H819 H 0.19815 0.93978 0.44513 0.0
C820 C 0.22367 0.86554 0.33977 0.0
C821 C 0.24713 0.85425 0.33711 0.0
C822 C 0.21991 0.887 0.35733 0.0
C823 C 0.23954 0.89777 0.37255 0.0
C824 C 0.26306 0.88672 0.36952 0.0
C825 C 0.26681 0.86529 0.35201 0.0
C826 C 0.2519 0.95891 0.41467 0.0
C827 C 0.23224 0.95892 0.43373 0.0
C828 C 0.25355 0.93982 0.39406 0.0
C829 C 0.23571 0.92004 0.39205 0.0
C830 C 0.21518 0.92095 0.40999 0.0
C831 C 0.21343 0.94031 0.43064 0.0
H832 H 0.67373 0.69423 0.87059 0.0
H833 H 0.62555 0.73432 0.81296 0.0
H834 H 0.63997 0.69007 0.90394 0.0
H835 H 0.59196 0.73034 0.84636 0.0
H836 H 0.55168 0.7518 0.92741 0.0
H837 H 0.58302 0.7503 0.89146 0.0
H838 H 0.59873 0.67007 0.91324 0.0
H839 H 0.56713 0.67162 0.94982 0.0
C840 C 0.65587 0.70181 0.86482 0.0
C841 C 0.6525 0.71489 0.83914 0.0
C842 C 0.6365 0.69939 0.88396 0.0
C843 C 0.6133 0.71005 0.87794 0.0
C844 C 0.60972 0.72232 0.85189 0.0
C845 C 0.62902 0.72468 0.83276 0.0
C846 C 0.56165 0.73371 0.92453 0.0
C847 C 0.55689 0.71183 0.94161 0.0
C848 C 0.57955 0.73282 0.9037 0.0
C849 C 0.59338 0.71005 0.89936 0.0
C850 C 0.58849 0.68796 0.91617 0.0
C851 C 0.5703 0.68879 0.93699 0.0
loop_
_geom_bond_atom_site_label_1
_geom_bond_atom_site_label_2
_geom_bond_distance
_geom_bond_site_symmetry_2
_ccdc_geom_bond_type
C0 C1 1.384 . S
C0 H13 0.947 . S
C0 C35 1.382 . S
C1 C0 1.384 . S
C1 C2 1.378 . S
C2 C1 1.378 . S
C2 C3 1.378 . S
C2 H14 0.952 . S
C3 C2 1.378 . S
C3 H15 0.950 . S
C3 C34 1.383 . S
H4 C23 0.947 . S
H5 C24 0.946 . S
H6 C26 0.953 . S
H7 C27 0.945 . S
H8 C29 0.952 . S
H9 C30 0.949 . S
H10 C32 0.950 . S
H11 C33 0.948 . S
H12 C35 0.951 . S
H13 C0 0.947 . S
H14 C2 0.952 . S
H15 C3 0.950 . S
N16 C19 1.382 . S
N16 C21 1.363 . S
N17 C19 1.371 . S
N17 C20 1.372 . S
N18 C20 1.361 . S
N18 C21 1.377 . S
C19 N16 1.382 . S
C19 N17 1.371 . S
C19 C22 1.480 . S
C20 N17 1.372 . S
C20 N18 1.361 . S
C20 C28 1.457 . S
C21 N16 1.363 . S
C21 N18 1.377 . S
C21 C34 1.479 . S
C22 C19 1.480 . S
C22 C23 1.383 . S
C22 C27 1.385 . S
C23 H4 0.947 . S
C23 C22 1.383 . S
C23 C24 1.388 . S
C24 H5 0.946 . S
C24 C23 1.388 . S
C24 C25 1.384 . S
C25 C24 1.384 . S
C25 C26 1.377 . S
C26 H6 0.953 . S
C26 C25 1.377 . S
C26 C27 1.369 . S
C27 H7 0.945 . S
C27 C22 1.385 . S
C27 C26 1.369 . S
C28 C20 1.457 . S
C28 C29 1.372 . S
C28 C33 1.364 . S
C29 H8 0.952 . S
C29 C28 1.372 . S
C29 C30 1.389 . S
C30 H9 0.949 . S
C30 C29 1.389 . S
C30 C31 1.387 . S
C31 C30 1.387 . S
C31 C32 1.372 . S
C32 H10 0.950 . S
C32 C31 1.372 . S
C32 C33 1.379 . S
C33 H11 0.948 . S
C33 C28 1.364 . S
C33 C32 1.379 . S
C34 C3 1.383 . S
C34 C21 1.479 . S
C34 C35 1.398 . S
C35 C0 1.382 . S
C35 H12 0.951 . S
C35 C34 1.398 . S
C36 C37 1.384 . S
C36 H49 0.947 . S
C36 C71 1.382 . S
C37 C36 1.384 . S
C37 C38 1.378 . S
C38 C37 1.378 . S
C38 C39 1.378 . S
C38 H50 0.952 . S
C39 C38 1.378 . S
C39 H51 0.950 . S
C39 C70 1.383 . S
H40 C59 0.947 . S
H41 C60 0.946 . S
H42 C62 0.953 . S
H43 C63 0.945 . S
H44 C65 0.952 . S
H45 C66 0.949 . S
H46 C68 0.950 . S
H47 C69 0.948 . S
H48 C71 0.951 . S
H49 C36 0.947 . S
H50 C38 0.952 . S
H51 C39 0.950 . S
N52 C55 1.382 . S
N52 C57 1.363 . S
N53 C55 1.371 . S
N53 C56 1.372 . S
N54 C56 1.361 . S
N54 C57 1.377 . S
C55 N52 1.382 . S
C55 N53 1.371 . S
C55 C58 1.480 . S
C56 N53 1.372 . S
C56 N54 1.361 . S
C56 C64 1.457 . S
C57 N52 1.363 . S
C57 N54 1.377 . S
C57 C70 1.479 . S
C58 C55 1.480 . S
C58 C59 1.383 . S
C58 C63 1.385 . S
C59 H40 0.947 . S
C59 C58 1.383 . S
C59 C60 1.388 . S
C60 H41 0.946 . S
C60 C59 1.388 . S
C60 C61 1.384 . S
C61 C60 1.384 . S
C61 C62 1.377 . S
C62 H42 0.953 . S
C62 C61 1.377 . S
C62 C63 1.369 . S
C63 H43 0.945 . S
C63 C58 1.385 . S
C63 C62 1.369 . S
C64 C56 1.457 . S
C64 C65 1.372 . S
C64 C69 1.364 . S
C65 H44 0.952 . S
C65 C64 1.372 . S
C65 C66 1.389 . S
C66 H45 0.949 . S
C66 C65 1.389 . S
C66 C67 1.387 . S
C67 C66 1.387 . S
C67 C68 1.372 . S
C68 H46 0.950 . S
C68 C67 1.372 . S
C68 C69 1.379 . S
C69 H47 0.948 . S
C69 C64 1.364 . S
C69 C68 1.379 . S
C70 C39 1.383 . S
C70 C57 1.479 . S
C70 C71 1.398 . S
C71 C36 1.382 . S
C71 H48 0.951 . S
C71 C70 1.398 . S
C72 C73 1.384 . S
C72 H85 0.947 . S
C72 C107 1.382 . S
C73 C72 1.384 . S
C73 C74 1.378 . S
C74 C73 1.378 . S
C74 C75 1.378 . S
C74 H86 0.952 . S
C75 C74 1.378 . S
C75 H87 0.950 . S
C75 C106 1.383 . S
H76 C95 0.947 . S
H77 C96 0.946 . S
H78 C98 0.953 . S
H79 C99 0.945 . S
H80 C101 0.952 . S
H81 C102 0.949 . S
H82 C104 0.950 . S
H83 C105 0.948 . S
H84 C107 0.951 . S
H85 C72 0.947 . S
H86 C74 0.952 . S
H87 C75 0.950 . S
N88 C91 1.382 . S
N88 C93 1.363 . S
N89 C91 1.371 . S
N89 C92 1.372 . S
N90 C92 1.361 . S
N90 C93 1.377 . S
C91 N88 1.382 . S
C91 N89 1.371 . S
C91 C94 1.480 . S
C92 N89 1.372 . S
C92 N90 1.361 . S
C92 C100 1.457 . S
C93 N88 1.363 . S
C93 N90 1.377 . S
C93 C106 1.479 . S
C94 C91 1.480 . S
C94 C95 1.383 . S
C94 C99 1.385 . S
C95 H76 0.947 . S
C95 C94 1.383 . S
C95 C96 1.388 . S
C96 H77 0.946 . S
C96 C95 1.388 . S
C96 C97 1.384 . S
C97 C96 1.384 . S
C97 C98 1.377 . S
C98 H78 0.953 . S
C98 C97 1.377 . S
C98 C99 1.369 . S
C99 H79 0.945 . S
C99 C94 1.385 . S
C99 C98 1.369 . S
C100 C92 1.457 . S
C100 C101 1.372 . S
C100 C105 1.364 . S
C101 H80 0.952 . S
C101 C100 1.372 . S
C101 C102 1.389 . S
C102 H81 0.949 . S
C102 C101 1.389 . S
C102 C103 1.387 . S
C103 C102 1.387 . S
C103 C104 1.372 . S
C104 H82 0.950 . S
C104 C103 1.372 . S
C104 C105 1.379 . S
C105 H83 0.948 . S
C105 C100 1.364 . S
C105 C104 1.379 . S
C106 C75 1.383 . S
C106 C93 1.479 . S
C106 C107 1.398 . S
C107 C72 1.382 . S
C107 H84 0.951 . S
C107 C106 1.398 . S
C108 C109 1.384 . S
C108 H121 0.947 . S
C108 C143 1.382 . S
C109 C108 1.384 . S
C109 C110 1.378 . S
C110 C109 1.378 . S
C110 C111 1.378 . S
C110 H122 0.952 . S
C111 C110 1.378 . S
C111 H123 0.950 . S
C111 C142 1.383 . S
H112 C131 0.947 . S
H113 C132 0.946 . S
H114 C134 0.953 . S
H115 C135 0.945 . S
H116 C137 0.952 . S
H117 C138 0.949 . S
H118 C140 0.950 . S
H119 C141 0.948 . S
H120 C143 0.951 . S
H121 C108 0.947 . S
H122 C110 0.952 . S
H123 C111 0.950 . S
N124 C127 1.382 . S
N124 C129 1.363 . S
N125 C127 1.371 . S
N125 C128 1.372 . S
N126 C128 1.361 . S
N126 C129 1.377 . S
C127 N124 1.382 . S
C127 N125 1.371 . S
C127 C130 1.480 . S
C128 N125 1.372 . S
C128 N126 1.361 . S
C128 C136 1.457 . S
C129 N124 1.363 . S
C129 N126 1.377 . S
C129 C142 1.479 . S
C130 C127 1.480 . S
C130 C131 1.383 . S
C130 C135 1.385 . S
C131 H112 0.947 . S
C131 C130 1.383 . S
C131 C132 1.388 . S
C132 H113 0.946 . S
C132 C131 1.388 . S
C132 C133 1.384 . S
C133 C132 1.384 . S
C133 C134 1.377 . S
C134 H114 0.953 . S
C134 C133 1.377 . S
C134 C135 1.369 . S
C135 H115 0.945 . S
C135 C130 1.385 . S
C135 C134 1.369 . S
C136 C128 1.457 . S
C136 C137 1.372 . S
C136 C141 1.364 . S
C137 H116 0.952 . S
C137 C136 1.372 . S
C137 C138 1.389 . S
C138 H117 0.949 . S
C138 C137 1.389 . S
C138 C139 1.387 . S
C139 C138 1.387 . S
C139 C140 1.372 . S
C140 H118 0.950 . S
C140 C139 1.372 . S
C140 C141 1.379 . S
C141 H119 0.948 . S
C141 C136 1.364 . S
C141 C140 1.379 . S
C142 C111 1.383 . S
C142 C129 1.479 . S
C142 C143 1.398 . S
C143 C108 1.382 . S
C143 H120 0.951 . S
C143 C142 1.398 . S
C144 C145 1.384 . S
C144 H157 0.947 . S
C144 C179 1.382 . S
C145 C144 1.384 . S
C145 C146 1.378 . S
C146 C145 1.378 . S
C146 C147 1.378 . S
C146 H158 0.952 . S
C147 C146 1.378 . S
C147 H159 0.950 . S
C147 C178 1.383 . S
H148 C167 0.947 . S
H149 C168 0.946 . S
H150 C170 0.953 . S
H151 C171 0.945 . S
H152 C173 0.952 . S
H153 C174 0.949 . S
H154 C176 0.950 . S
H155 C177 0.948 . S
H156 C179 0.951 . S
H157 C144 0.947 . S
H158 C146 0.952 . S
H159 C147 0.950 . S
N160 C163 1.382 . S
N160 C165 1.363 . S
N161 C163 1.371 . S
N161 C164 1.372 . S
N162 C164 1.361 . S
N162 C165 1.377 . S
C163 N160 1.382 . S
C163 N161 1.371 . S
C163 C166 1.480 . S
C164 N161 1.372 . S
C164 N162 1.361 . S
C164 C172 1.457 . S
C165 N160 1.363 . S
C165 N162 1.377 . S
C165 C178 1.479 . S
C166 C163 1.480 . S
C166 C167 1.383 . S
C166 C171 1.385 . S
C167 H148 0.947 . S
C167 C166 1.383 . S
C167 C168 1.388 . S
C168 H149 0.946 . S
C168 C167 1.388 . S
C168 C169 1.384 . S
C169 C168 1.384 . S
C169 C170 1.377 . S
C170 H150 0.953 . S
C170 C169 1.377 . S
C170 C171 1.369 . S
C171 H151 0.945 . S
C171 C166 1.385 . S
C171 C170 1.369 . S
C172 C164 1.457 . S
C172 C173 1.372 . S
C172 C177 1.364 . S
C173 H152 0.952 . S
C173 C172 1.372 . S
C173 C174 1.389 . S
C174 H153 0.949 . S
C174 C173 1.389 . S
C174 C175 1.387 . S
C175 C174 1.387 . S
C175 C176 1.372 . S
C176 H154 0.950 . S
C176 C175 1.372 . S
C176 C177 1.379 . S
C177 H155 0.948 . S
C177 C172 1.364 . S
C177 C176 1.379 . S
C178 C147 1.383 . S
C178 C165 1.479 . S
C178 C179 1.398 . S
C179 C144 1.382 . S
C179 H156 0.951 . S
C179 C178 1.398 . S
C180 C181 1.384 . S
C180 H193 0.947 . S
C180 C215 1.382 . S
C181 C180 1.384 . S
C181 C182 1.378 . S
C182 C181 1.378 . S
C182 C183 1.378 . S
C182 H194 0.952 . S
C183 C182 1.378 . S
C183 H195 0.950 . S
C183 C214 1.383 . S
H184 C203 0.947 . S
H185 C204 0.946 . S
H186 C206 0.953 . S
H187 C207 0.945 . S
H188 C209 0.952 . S
H189 C210 0.949 . S
H190 C212 0.950 . S
H191 C213 0.948 . S
H192 C215 0.951 . S
H193 C180 0.947 . S
H194 C182 0.952 . S
H195 C183 0.950 . S
N196 C199 1.382 . S
N196 C201 1.363 . S
N197 C199 1.371 . S
N197 C200 1.372 . S
N198 C200 1.361 . S
N198 C201 1.377 . S
C199 N196 1.382 . S
C199 N197 1.371 . S
C199 C202 1.480 . S
C200 N197 1.372 . S
C200 N198 1.361 . S
C200 C208 1.457 . S
C201 N196 1.363 . S
C201 N198 1.377 . S
C201 C214 1.479 . S
C202 C199 1.480 . S
C202 C203 1.383 . S
C202 C207 1.385 . S
C203 H184 0.947 . S
C203 C202 1.383 . S
C203 C204 1.388 . S
C204 H185 0.946 . S
C204 C203 1.388 . S
C204 C205 1.384 . S
C205 C204 1.384 . S
C205 C206 1.377 . S
C206 H186 0.953 . S
C206 C205 1.377 . S
C206 C207 1.369 . S
C207 H187 0.945 . S
C207 C202 1.385 . S
C207 C206 1.369 . S
C208 C200 1.457 . S
C208 C209 1.372 . S
C208 C213 1.364 . S
C209 H188 0.952 . S
C209 C208 1.372 . S
C209 C210 1.389 . S
C210 H189 0.949 . S
C210 C209 1.389 . S
C210 C211 1.387 . S
C211 C210 1.387 . S
C211 C212 1.372 . S
C212 H190 0.950 . S
C212 C211 1.372 . S
C212 C213 1.379 . S
C213 H191 0.948 . S
C213 C208 1.364 . S
C213 C212 1.379 . S
C214 C183 1.383 . S
C214 C201 1.479 . S
C214 C215 1.398 . S
C215 C180 1.382 . S
C215 H192 0.951 . S
C215 C214 1.398 . S
C216 C217 1.384 . S
C216 H229 0.947 . S
C216 C251 1.382 . S
C217 C216 1.384 . S
C217 C218 1.378 . S
C218 C217 1.378 . S
C218 C219 1.378 . S
C218 H230 0.952 . S
C219 C218 1.378 . S
C219 H231 0.950 . S
C219 C250 1.383 . S
H220 C239 0.947 . S
H221 C240 0.946 . S
H222 C242 0.953 . S
H223 C243 0.945 . S
H224 C245 0.952 . S
H225 C246 0.949 . S
H226 C248 0.950 . S
H227 C249 0.948 . S
H228 C251 0.951 . S
H229 C216 0.947 . S
H230 C218 0.952 . S
H231 C219 0.950 . S
N232 C235 1.382 . S
N232 C237 1.363 . S
N233 C235 1.371 . S
N233 C236 1.372 . S
N234 C236 1.361 . S
N234 C237 1.377 . S
C235 N232 1.382 . S
C235 N233 1.371 . S
C235 C238 1.480 . S
C236 N233 1.372 . S
C236 N234 1.361 . S
C236 C244 1.457 . S
C237 N232 1.363 . S
C237 N234 1.377 . S
C237 C250 1.479 . S
C238 C235 1.480 . S
C238 C239 1.383 . S
C238 C243 1.385 . S
C239 H220 0.947 . S
C239 C238 1.383 . S
C239 C240 1.388 . S
C240 H221 0.946 . S
C240 C239 1.388 . S
C240 C241 1.384 . S
C241 C240 1.384 . S
C241 C242 1.377 . S
C242 H222 0.953 . S
C242 C241 1.377 . S
C242 C243 1.369 . S
C243 H223 0.945 . S
C243 C238 1.385 . S
C243 C242 1.369 . S
C244 C236 1.457 . S
C244 C245 1.372 . S
C244 C249 1.364 . S
C245 H224 0.952 . S
C245 C244 1.372 . S
C245 C246 1.389 . S
C246 H225 0.949 . S
C246 C245 1.389 . S
C246 C247 1.387 . S
C247 C246 1.387 . S
C247 C248 1.372 . S
C248 H226 0.950 . S
C248 C247 1.372 . S
C248 C249 1.379 . S
C249 H227 0.948 . S
C249 C244 1.364 . S
C249 C248 1.379 . S
C250 C219 1.383 . S
C250 C237 1.479 . S
C250 C251 1.398 . S
C251 C216 1.382 . S
C251 H228 0.951 . S
C251 C250 1.398 . S
C252 C253 1.384 . S
C252 H265 0.947 . S
C252 C287 1.382 . S
C253 C252 1.384 . S
C253 C254 1.378 . S
C254 C253 1.378 . S
C254 C255 1.378 . S
C254 H266 0.952 . S
C255 C254 1.378 . S
C255 H267 0.950 . S
C255 C286 1.383 . S
H256 C275 0.947 . S
H257 C276 0.946 . S
H258 C278 0.953 . S
H259 C279 0.945 . S
H260 C281 0.952 . S
H261 C282 0.949 . S
H262 C284 0.950 . S
H263 C285 0.948 . S
H264 C287 0.951 . S
H265 C252 0.947 . S
H266 C254 0.952 . S
H267 C255 0.950 . S
N268 C271 1.382 . S
N268 C273 1.363 . S
N269 C271 1.371 . S
N269 C272 1.372 . S
N270 C272 1.361 . S
N270 C273 1.377 . S
C271 N268 1.382 . S
C271 N269 1.371 . S
C271 C274 1.480 . S
C272 N269 1.372 . S
C272 N270 1.361 . S
C272 C280 1.457 . S
C273 N268 1.363 . S
C273 N270 1.377 . S
C273 C286 1.479 . S
C274 C271 1.480 . S
C274 C275 1.383 . S
C274 C279 1.385 . S
C275 H256 0.947 . S
C275 C274 1.383 . S
C275 C276 1.388 . S
C276 H257 0.946 . S
C276 C275 1.388 . S
C276 C277 1.384 . S
C277 C276 1.384 . S
C277 C278 1.377 . S
C278 H258 0.953 . S
C278 C277 1.377 . S
C278 C279 1.369 . S
C279 H259 0.945 . S
C279 C274 1.385 . S
C279 C278 1.369 . S
C280 C272 1.457 . S
C280 C281 1.372 . S
C280 C285 1.364 . S
C281 H260 0.952 . S
C281 C280 1.372 . S
C281 C282 1.389 . S
C282 H261 0.949 . S
C282 C281 1.389 . S
C282 C283 1.387 . S
C283 C282 1.387 . S
C283 C284 1.372 . S
C284 H262 0.950 . S
C284 C283 1.372 . S
C284 C285 1.379 . S
C285 H263 0.948 . S
C285 C280 1.364 . S
C285 C284 1.379 . S
C286 C255 1.383 . S
C286 C273 1.479 . S
C286 C287 1.398 . S
C287 C252 1.382 . S
C287 H264 0.951 . S
C287 C286 1.398 . S
C288 O290 1.247 . S
C288 O292 1.258 . S
C289 O296 1.247 . S
C289 O297 1.258 . S
O290 C288 1.247 . S
O290 Zn291 2.028 1_655 S
Zn291 O290 2.028 1_455 S
Zn291 O295 2.035 . S
Zn291 O297 2.035 . S
Zn291 O298 2.028 1_455 S
O292 C288 1.258 . S
O292 Zn293 2.035 1_655 S
Zn293 O292 2.035 1_455 S
Zn293 O294 2.028 . S
Zn293 O296 2.028 . S
Zn293 O299 2.035 1_455 S
O294 Zn293 2.028 . S
O294 C300 1.247 . S
O295 Zn291 2.035 . S
O295 C300 1.258 . S
O296 C289 1.247 . S
O296 Zn293 2.028 . S
O297 C289 1.258 . S
O297 Zn291 2.035 . S
O298 Zn291 2.028 1_655 S
O298 C301 1.247 . S
O299 Zn293 2.035 1_655 S
O299 C301 1.258 . S
C300 O294 1.247 . S
C300 O295 1.258 . S
C301 O298 1.247 . S
C301 O299 1.258 . S
C302 O304 1.247 . S
C302 O306 1.258 . S
C303 O310 1.247 . S
C303 O311 1.258 . S
O304 C302 1.247 . S
O304 Zn305 2.028 1_655 S
Zn305 O304 2.028 1_455 S
Zn305 O309 2.035 . S
Zn305 O311 2.035 . S
Zn305 O312 2.028 1_455 S
O306 C302 1.258 . S
O306 Zn307 2.035 1_655 S
Zn307 O306 2.035 1_455 S
Zn307 O308 2.028 . S
Zn307 O310 2.028 . S
Zn307 O313 2.035 1_455 S
O308 Zn307 2.028 . S
O308 C314 1.247 . S
O309 Zn305 2.035 . S
O309 C314 1.258 . S
O310 C303 1.247 . S
O310 Zn307 2.028 . S
O311 C303 1.258 . S
O311 Zn305 2.035 . S
O312 Zn305 2.028 1_655 S
O312 C315 1.247 . S
O313 Zn307 2.035 1_655 S
O313 C315 1.258 . S
C314 O308 1.247 . S
C314 O309 1.258 . S
C315 O312 1.247 . S
C315 O313 1.258 . S
C316 O318 1.247 . S
C316 O320 1.258 . S
C317 O324 1.247 . S
C317 O325 1.258 . S
O318 C316 1.247 . S
O318 Zn319 2.028 1_565 S
Zn319 O318 2.028 1_545 S
Zn319 O323 2.035 . S
Zn319 O325 2.035 . S
Zn319 O326 2.028 1_545 S
O320 C316 1.258 . S
O320 Zn321 2.035 1_565 S
Zn321 O320 2.035 1_545 S
Zn321 O322 2.028 . S
Zn321 O324 2.028 . S
Zn321 O327 2.035 1_545 S
O322 Zn321 2.028 . S
O322 C328 1.247 . S
O323 Zn319 2.035 . S
O323 C328 1.258 . S
O324 C317 1.247 . S
O324 Zn321 2.028 . S
O325 C317 1.258 . S
O325 Zn319 2.035 . S
O326 Zn319 2.028 1_565 S
O326 C329 1.247 . S
O327 Zn321 2.035 1_565 S
O327 C329 1.258 . S
C328 O322 1.247 . S
C328 O323 1.258 . S
C329 O326 1.247 . S
C329 O327 1.258 . S
C330 O332 1.247 . S
C330 O334 1.258 . S
C331 O338 1.247 . S
C331 O339 1.258 . S
O332 C330 1.247 . S
O332 Zn333 2.028 . S
Zn333 O332 2.028 . S
Zn333 O337 2.035 . S
Zn333 O339 2.035 1_554 S
Zn333 O340 2.028 1_554 S
O334 C330 1.258 . S
O334 Zn335 2.035 . S
Zn335 O334 2.035 . S
Zn335 O336 2.028 . S
Zn335 O338 2.028 1_554 S
Zn335 O341 2.035 1_554 S
O336 Zn335 2.028 . S
O336 C342 1.247 . S
O337 Zn333 2.035 . S
O337 C342 1.258 . S
O338 C331 1.247 . S
O338 Zn335 2.028 1_556 S
O339 C331 1.258 . S
O339 Zn333 2.035 1_556 S
O340 Zn333 2.028 1_556 S
O340 C343 1.247 . S
O341 Zn335 2.035 1_556 S
O341 C343 1.258 . S
C342 O336 1.247 . S
C342 O337 1.258 . S
C343 O340 1.247 . S
C343 O341 1.258 . S
C344 O346 1.247 . S
C344 O348 1.258 . S
C345 O352 1.247 . S
C345 O353 1.258 . S
O346 C344 1.247 . S
O346 Zn347 2.002 1_565 S
Zn347 O346 2.002 1_545 S
Zn347 O351 2.062 . S
Zn347 O353 2.062 . S
Zn347 O354 2.001 1_545 S
O348 C344 1.258 . S
O348 Zn349 2.035 1_565 S
Zn349 O348 2.035 1_545 S
Zn349 O350 2.028 . S
Zn349 O352 2.028 . S
Zn349 O355 2.035 1_545 S
O350 Zn349 2.028 . S
O350 C356 1.247 . S
O351 Zn347 2.062 . S
O351 C356 1.258 . S
O352 C345 1.247 . S
O352 Zn349 2.028 . S
O353 C345 1.258 . S
O353 Zn347 2.062 . S
O354 Zn347 2.001 1_565 S
O354 C357 1.247 . S
O355 Zn349 2.035 1_565 S
O355 C357 1.258 . S
C356 O350 1.247 . S
C356 O351 1.258 . S
C357 O354 1.247 . S
C357 O355 1.258 . S
C358 O360 1.247 . S
C358 O362 1.258 . S
C359 O366 1.247 . S
C359 O367 1.258 . S
O360 C358 1.247 . S
O360 Zn361 2.035 . S
Zn361 O360 2.035 . S
Zn361 O365 2.042 . S
Zn361 O367 2.029 1_554 S
Zn361 O368 2.021 1_554 S
O362 C358 1.258 . S
O362 Zn363 2.035 1_554 S
Zn363 O362 2.035 1_556 S
Zn363 O364 2.028 1_556 S
Zn363 O366 2.028 . S
Zn363 O369 2.035 . S
O364 Zn363 2.028 1_554 S
O364 C370 1.247 . S
O365 Zn361 2.042 . S
O365 C370 1.258 . S
O366 C359 1.247 . S
O366 Zn363 2.028 . S
O367 C359 1.258 . S
O367 Zn361 2.029 1_556 S
O368 Zn361 2.021 1_556 S
O368 C371 1.247 . S
O369 Zn363 2.035 . S
O369 C371 1.258 . S
C370 O364 1.247 . S
C370 O365 1.258 . S
C371 O368 1.247 . S
C371 O369 1.258 . S
H372 C380 0.950 . S
H373 C385 0.950 . S
H374 C382 0.950 . S
H375 C384 0.950 . S
H376 C386 0.950 . S
H377 C388 0.950 . S
H378 C390 0.950 . S
H379 C391 0.950 . S
C380 H372 0.950 . S
C380 C381 1.386 . S
C380 C382 1.391 . S
C381 C380 1.386 . S
C381 C385 1.393 . S
C382 H374 0.950 . S
C382 C380 1.391 . S
C382 C383 1.400 . S
C383 C382 1.400 . S
C383 C384 1.398 . S
C383 C389 1.491 . S
C384 H375 0.950 . S
C384 C383 1.398 . S
C384 C385 1.391 . S
C385 H373 0.950 . S
C385 C381 1.393 . S
C385 C384 1.391 . S
C386 H376 0.950 . S
C386 C387 1.386 . S
C386 C388 1.391 . S
C387 C386 1.386 . S
C387 C391 1.393 . S
C388 H377 0.950 . S
C388 C386 1.391 . S
C388 C389 1.400 . S
C389 C383 1.491 . S
C389 C388 1.400 . S
C389 C390 1.398 . S
C390 H378 0.950 . S
C390 C389 1.398 . S
C390 C391 1.391 . S
C391 H379 0.950 . S
C391 C387 1.393 . S
C391 C390 1.391 . S
H392 C400 0.950 . S
H393 C405 0.950 . S
H394 C402 0.950 . S
H395 C404 0.950 . S
H396 C406 0.950 . S
H397 C408 0.950 . S
H398 C410 0.950 . S
H399 C411 0.950 . S
C400 H392 0.950 . S
C400 C401 1.386 . S
C400 C402 1.391 . S
C401 C400 1.386 . S
C401 C405 1.393 . S
C402 H394 0.950 . S
C402 C400 1.391 . S
C402 C403 1.400 . S
C403 C402 1.400 . S
C403 C404 1.398 . S
C403 C409 1.491 . S
C404 H395 0.950 . S
C404 C403 1.398 . S
C404 C405 1.391 . S
C405 H393 0.950 . S
C405 C401 1.393 . S
C405 C404 1.391 . S
C406 H396 0.950 . S
C406 C407 1.386 . S
C406 C408 1.391 . S
C407 C406 1.386 . S
C407 C411 1.393 . S
C408 H397 0.950 . S
C408 C406 1.391 . S
C408 C409 1.400 . S
C409 C403 1.491 . S
C409 C408 1.400 . S
C409 C410 1.398 . S
C410 H398 0.950 . S
C410 C409 1.398 . S
C410 C411 1.391 . S
C411 H399 0.950 . S
C411 C407 1.393 . S
C411 C410 1.391 . S
H412 C420 0.950 . S
H413 C425 0.950 . S
H414 C422 0.950 . S
H415 C424 0.950 . S
H416 C426 0.950 . S
H417 C428 0.950 . S
H418 C430 0.950 . S
H419 C431 0.950 . S
C420 H412 0.950 . S
C420 C421 1.386 . S
C420 C422 1.391 . S
C421 C420 1.386 . S
C421 C425 1.393 . S
C422 H414 0.950 . S
C422 C420 1.391 . S
C422 C423 1.400 . S
C423 C422 1.400 . S
C423 C424 1.398 . S
C423 C429 1.491 . S
C424 H415 0.950 . S
C424 C423 1.398 . S
C424 C425 1.391 . S
C425 H413 0.950 . S
C425 C421 1.393 . S
C425 C424 1.391 . S
C426 H416 0.950 . S
C426 C427 1.386 . S
C426 C428 1.391 . S
C427 C426 1.386 . S
C427 C431 1.393 . S
C428 H417 0.950 . S
C428 C426 1.391 . S
C428 C429 1.400 . S
C429 C423 1.491 . S
C429 C428 1.400 . S
C429 C430 1.398 . S
C430 H418 0.950 . S
C430 C429 1.398 . S
C430 C431 1.391 . S
C431 H419 0.950 . S
C431 C427 1.393 . S
C431 C430 1.391 . S
H432 C440 0.950 . S
H433 C445 0.950 . S
H434 C442 0.950 . S
H435 C444 0.950 . S
H436 C446 0.950 . S
H437 C448 0.950 . S
H438 C450 0.950 . S
H439 C451 0.950 . S
C440 H432 0.950 . S
C440 C441 1.386 . S
C440 C442 1.391 . S
C441 C440 1.386 . S
C441 C445 1.393 . S
C442 H434 0.950 . S
C442 C440 1.391 . S
C442 C443 1.400 . S
C443 C442 1.400 . S
C443 C444 1.398 . S
C443 C449 1.491 . S
C444 H435 0.950 . S
C444 C443 1.398 . S
C444 C445 1.391 . S
C445 H433 0.950 . S
C445 C441 1.393 . S
C445 C444 1.391 . S
C446 H436 0.950 . S
C446 C447 1.386 . S
C446 C448 1.391 . S
C447 C446 1.386 . S
C447 C451 1.393 . S
C448 H437 0.950 . S
C448 C446 1.391 . S
C448 C449 1.400 . S
C449 C443 1.491 . S
C449 C448 1.400 . S
C449 C450 1.398 . S
C450 H438 0.950 . S
C450 C449 1.398 . S
C450 C451 1.391 . S
C451 H439 0.950 . S
C451 C447 1.393 . S
C451 C450 1.391 . S
H452 C460 0.950 . S
H453 C465 0.950 . S
H454 C462 0.950 . S
H455 C464 0.950 . S
H456 C466 0.950 . S
H457 C468 0.950 . S
H458 C470 0.950 . S
H459 C471 0.950 . S
C460 H452 0.950 . S
C460 C461 1.386 . S
C460 C462 1.391 . S
C461 C460 1.386 . S
C461 C465 1.393 . S
C462 H454 0.950 . S
C462 C460 1.391 . S
C462 C463 1.400 . S
C463 C462 1.400 . S
C463 C464 1.398 . S
C463 C469 1.491 . S
C464 H455 0.950 . S
C464 C463 1.398 . S
C464 C465 1.391 . S
C465 H453 0.950 . S
C465 C461 1.393 . S
C465 C464 1.391 . S
C466 H456 0.950 . S
C466 C467 1.386 . S
C466 C468 1.391 . S
C467 C466 1.386 . S
C467 C471 1.393 . S
C468 H457 0.950 . S
C468 C466 1.391 . S
C468 C469 1.400 . S
C469 C463 1.491 . S
C469 C468 1.400 . S
C469 C470 1.398 . S
C470 H458 0.950 . S
C470 C469 1.398 . S
C470 C471 1.391 . S
C471 H459 0.950 . S
C471 C467 1.393 . S
C471 C470 1.391 . S
H472 C480 0.950 . S
H473 C485 0.950 . S
H474 C482 0.950 . S
H475 C484 0.950 . S
H476 C486 0.950 . S
H477 C488 0.950 . S
H478 C490 0.950 . S
H479 C491 0.950 . S
C480 H472 0.950 . S
C480 C481 1.386 . S
C480 C482 1.391 . S
C481 C480 1.386 . S
C481 C485 1.393 . S
C482 H474 0.950 . S
C482 C480 1.391 . S
C482 C483 1.400 . S
C483 C482 1.400 . S
C483 C484 1.398 . S
C483 C489 1.491 . S
C484 H475 0.950 . S
C484 C483 1.398 . S
C484 C485 1.391 . S
C485 H473 0.950 . S
C485 C481 1.393 . S
C485 C484 1.391 . S
C486 H476 0.950 . S
C486 C487 1.386 . S
C486 C488 1.391 . S
C487 C486 1.386 . S
C487 C491 1.393 . S
C488 H477 0.950 . S
C488 C486 1.391 . S
C488 C489 1.400 . S
C489 C483 1.491 . S
C489 C488 1.400 . S
C489 C490 1.398 . S
C490 H478 0.950 . S
C490 C489 1.398 . S
C490 C491 1.391 . S
C491 H479 0.950 . S
C491 C487 1.393 . S
C491 C490 1.391 . S
H492 C500 0.950 . S
H493 C505 0.950 . S
H494 C502 0.950 . S
H495 C504 0.950 . S
H496 C506 0.950 . S
H497 C508 0.950 . S
H498 C510 0.950 . S
H499 C511 0.950 . S
C500 H492 0.950 . S
C500 C501 1.386 . S
C500 C502 1.391 . S
C501 C500 1.386 . S
C501 C505 1.393 . S
C502 H494 0.950 . S
C502 C500 1.391 . S
C502 C503 1.400 . S
C503 C502 1.400 . S
C503 C504 1.398 . S
C503 C509 1.491 . S
C504 H495 0.950 . S
C504 C503 1.398 . S
C504 C505 1.391 . S
C505 H493 0.950 . S
C505 C501 1.393 . S
C505 C504 1.391 . S
C506 H496 0.950 . S
C506 C507 1.386 . S
C506 C508 1.391 . S
C507 C506 1.386 . S
C507 C511 1.393 . S
C508 H497 0.950 . S
C508 C506 1.391 . S
C508 C509 1.400 . S
C509 C503 1.491 . S
C509 C508 1.400 . S
C509 C510 1.398 . S
C510 H498 0.950 . S
C510 C509 1.398 . S
C510 C511 1.391 . S
C511 H499 0.950 . S
C511 C507 1.393 . S
C511 C510 1.391 . S
H512 C520 0.950 . S
H513 C525 0.950 . S
H514 C522 0.950 . S
H515 C524 0.950 . S
H516 C526 0.950 . S
H517 C528 0.950 . S
H518 C530 0.950 . S
H519 C531 0.950 . S
C520 H512 0.950 . S
C520 C521 1.386 . S
C520 C522 1.391 . S
C521 C520 1.386 . S
C521 C525 1.393 . S
C522 H514 0.950 . S
C522 C520 1.391 . S
C522 C523 1.400 . S
C523 C522 1.400 . S
C523 C524 1.398 . S
C523 C529 1.491 . S
C524 H515 0.950 . S
C524 C523 1.398 . S
C524 C525 1.391 . S
C525 H513 0.950 . S
C525 C521 1.393 . S
C525 C524 1.391 . S
C526 H516 0.950 . S
C526 C527 1.386 . S
C526 C528 1.391 . S
C527 C526 1.386 . S
C527 C531 1.393 . S
C528 H517 0.950 . S
C528 C526 1.391 . S
C528 C529 1.400 . S
C529 C523 1.491 . S
C529 C528 1.400 . S
C529 C530 1.398 . S
C530 H518 0.950 . S
C530 C529 1.398 . S
C530 C531 1.391 . S
C531 H519 0.950 . S
C531 C527 1.393 . S
C531 C530 1.391 . S
H532 C540 0.950 . S
H533 C545 0.950 . S
H534 C542 0.950 . S
H535 C544 0.950 . S
H536 C546 0.950 . S
H537 C548 0.950 . S
H538 C550 0.950 . S
H539 C551 0.950 . S
C540 H532 0.950 . S
C540 C541 1.386 . S
C540 C542 1.391 . S
C541 C540 1.386 . S
C541 C545 1.393 . S
C542 H534 0.950 . S
C542 C540 1.391 . S
C542 C543 1.400 . S
C543 C542 1.400 . S
C543 C544 1.398 . S
C543 C549 1.491 . S
C544 H535 0.950 . S
C544 C543 1.398 . S
C544 C545 1.391 . S
C545 H533 0.950 . S
C545 C541 1.393 . S
C545 C544 1.391 . S
C546 H536 0.950 . S
C546 C547 1.386 . S
C546 C548 1.391 . S
C547 C546 1.386 . S
C547 C551 1.393 . S
C548 H537 0.950 . S
C548 C546 1.391 . S
C548 C549 1.400 . S
C549 C543 1.491 . S
C549 C548 1.400 . S
C549 C550 1.398 . S
C550 H538 0.950 . S
C550 C549 1.398 . S
C550 C551 1.391 . S
C551 H539 0.950 . S
C551 C547 1.393 . S
C551 C550 1.391 . S
H552 C560 0.950 . S
H553 C565 0.950 . S
H554 C562 0.950 . S
H555 C564 0.950 . S
H556 C566 0.950 . S
H557 C568 0.950 . S
H558 C570 0.950 . S
H559 C571 0.950 . S
C560 H552 0.950 . S
C560 C561 1.386 . S
C560 C562 1.391 . S
C561 C560 1.386 . S
C561 C565 1.393 . S
C562 H554 0.950 . S
C562 C560 1.391 . S
C562 C563 1.400 . S
C563 C562 1.400 . S
C563 C564 1.398 . S
C563 C569 1.491 . S
C564 H555 0.950 . S
C564 C563 1.398 . S
C564 C565 1.391 . S
C565 H553 0.950 . S
C565 C561 1.393 . S
C565 C564 1.391 . S
C566 H556 0.950 . S
C566 C567 1.386 . S
C566 C568 1.391 . S
C567 C566 1.386 . S
C567 C571 1.393 . S
C568 H557 0.950 . S
C568 C566 1.391 . S
C568 C569 1.400 . S
C569 C563 1.491 . S
C569 C568 1.400 . S
C569 C570 1.398 . S
C570 H558 0.950 . S
C570 C569 1.398 . S
C570 C571 1.391 . S
C571 H559 0.950 . S
C571 C567 1.393 . S
C571 C570 1.391 . S
H572 C580 0.950 . S
H573 C585 0.950 . S
H574 C582 0.950 . S
H575 C584 0.950 . S
H576 C586 0.950 . S
H577 C588 0.950 . S
H578 C590 0.950 . S
H579 C591 0.950 . S
C580 H572 0.950 . S
C580 C581 1.386 . S
C580 C582 1.391 . S
C581 C580 1.386 . S
C581 C585 1.393 . S
C582 H574 0.950 . S
C582 C580 1.391 . S
C582 C583 1.400 . S
C583 C582 1.400 . S
C583 C584 1.398 . S
C583 C589 1.491 . S
C584 H575 0.950 . S
C584 C583 1.398 . S
C584 C585 1.391 . S
C585 H573 0.950 . S
C585 C581 1.393 . S
C585 C584 1.391 . S
C586 H576 0.950 . S
C586 C587 1.386 . S
C586 C588 1.391 . S
C587 C586 1.386 . S
C587 C591 1.393 . S
C588 H577 0.950 . S
C588 C586 1.391 . S
C588 C589 1.400 . S
C589 C583 1.491 . S
C589 C588 1.400 . S
C589 C590 1.398 . S
C590 H578 0.950 . S
C590 C589 1.398 . S
C590 C591 1.391 . S
C591 H579 0.950 . S
C591 C587 1.393 . S
C591 C590 1.391 . S
H592 C600 0.950 . S
H593 C605 0.950 . S
H594 C602 0.950 . S
H595 C604 0.950 . S
H596 C606 0.950 . S
H597 C608 0.950 . S
H598 C610 0.950 . S
H599 C611 0.950 . S
C600 H592 0.950 . S
C600 C601 1.386 . S
C600 C602 1.391 . S
C601 C600 1.386 . S
C601 C605 1.393 . S
C602 H594 0.950 . S
C602 C600 1.391 . S
C602 C603 1.400 . S
C603 C602 1.400 . S
C603 C604 1.398 . S
C603 C609 1.491 . S
C604 H595 0.950 . S
C604 C603 1.398 . S
C604 C605 1.391 . S
C605 H593 0.950 . S
C605 C601 1.393 . S
C605 C604 1.391 . S
C606 H596 0.950 . S
C606 C607 1.386 . S
C606 C608 1.391 . S
C607 C606 1.386 . S
C607 C611 1.393 . S
C608 H597 0.950 . S
C608 C606 1.391 . S
C608 C609 1.400 . S
C609 C603 1.491 . S
C609 C608 1.400 . S
C609 C610 1.398 . S
C610 H598 0.950 . S
C610 C609 1.398 . S
C610 C611 1.391 . S
C611 H599 0.950 . S
C611 C607 1.393 . S
C611 C610 1.391 . S
H612 C620 0.950 . S
H613 C625 0.950 . S
H614 C622 0.950 . S
H615 C624 0.950 . S
H616 C626 0.950 . S
H617 C628 0.950 . S
H618 C630 0.950 . S
H619 C631 0.950 . S
C620 H612 0.950 . S
C620 C621 1.386 . S
C620 C622 1.391 . S
C621 C620 1.386 . S
C621 C625 1.393 . S
C622 H614 0.950 . S
C622 C620 1.391 . S
C622 C623 1.400 . S
C623 C622 1.400 . S
C623 C624 1.398 . S
C623 C629 1.491 . S
C624 H615 0.950 . S
C624 C623 1.398 . S
C624 C625 1.391 . S
C625 H613 0.950 . S
C625 C621 1.393 . S
C625 C624 1.391 . S
C626 H616 0.950 . S
C626 C627 1.386 . S
C626 C628 1.391 . S
C627 C626 1.386 . S
C627 C631 1.393 . S
C628 H617 0.950 . S
C628 C626 1.391 . S
C628 C629 1.400 . S
C629 C623 1.491 . S
C629 C628 1.400 . S
C629 C630 1.398 . S
C630 H618 0.950 . S
C630 C629 1.398 . S
C630 C631 1.391 . S
C631 H619 0.950 . S
C631 C627 1.393 . S
C631 C630 1.391 . S
H632 C640 0.950 . S
H633 C645 0.950 . S
H634 C642 0.950 . S
H635 C644 0.950 . S
H636 C646 0.950 . S
H637 C648 0.950 . S
H638 C650 0.950 . S
H639 C651 0.950 . S
C640 H632 0.950 . S
C640 C641 1.386 . S
C640 C642 1.391 . S
C641 C640 1.386 . S
C641 C645 1.393 . S
C642 H634 0.950 . S
C642 C640 1.391 . S
C642 C643 1.400 . S
C643 C642 1.400 . S
C643 C644 1.398 . S
C643 C649 1.491 . S
C644 H635 0.950 . S
C644 C643 1.398 . S
C644 C645 1.391 . S
C645 H633 0.950 . S
C645 C641 1.393 . S
C645 C644 1.391 . S
C646 H636 0.950 . S
C646 C647 1.386 . S
C646 C648 1.391 . S
C647 C646 1.386 . S
C647 C651 1.393 . S
C648 H637 0.950 . S
C648 C646 1.391 . S
C648 C649 1.400 . S
C649 C643 1.491 . S
C649 C648 1.400 . S
C649 C650 1.398 . S
C650 H638 0.950 . S
C650 C649 1.398 . S
C650 C651 1.391 . S
C651 H639 0.950 . S
C651 C647 1.393 . S
C651 C650 1.391 . S
H652 C660 0.950 . S
H653 C665 0.950 . S
H654 C662 0.950 . S
H655 C664 0.950 . S
H656 C666 0.950 . S
H657 C668 0.950 . S
H658 C670 0.950 . S
H659 C671 0.950 . S
C660 H652 0.950 . S
C660 C661 1.386 . S
C660 C662 1.391 . S
C661 C660 1.386 . S
C661 C665 1.393 . S
C662 H654 0.950 . S
C662 C660 1.391 . S
C662 C663 1.400 . S
C663 C662 1.400 . S
C663 C664 1.398 . S
C663 C669 1.491 . S
C664 H655 0.950 . S
C664 C663 1.398 . S
C664 C665 1.391 . S
C665 H653 0.950 . S
C665 C661 1.393 . S
C665 C664 1.391 . S
C666 H656 0.950 . S
C666 C667 1.386 . S
C666 C668 1.391 . S
C667 C666 1.386 . S
C667 C671 1.393 . S
C668 H657 0.950 . S
C668 C666 1.391 . S
C668 C669 1.400 . S
C669 C663 1.491 . S
C669 C668 1.400 . S
C669 C670 1.398 . S
C670 H658 0.950 . S
C670 C669 1.398 . S
C670 C671 1.391 . S
C671 H659 0.950 . S
C671 C667 1.393 . S
C671 C670 1.391 . S
H672 C680 0.950 . S
H673 C685 0.950 . S
H674 C682 0.950 . S
H675 C684 0.950 . S
H676 C686 0.950 . S
H677 C688 0.950 . S
H678 C690 0.950 . S
H679 C691 0.950 . S
C680 H672 0.950 . S
C680 C681 1.386 . S
C680 C682 1.391 . S
C681 C680 1.386 . S
C681 C685 1.393 . S
C682 H674 0.950 . S
C682 C680 1.391 . S
C682 C683 1.400 . S
C683 C682 1.400 . S
C683 C684 1.398 . S
C683 C689 1.491 . S
C684 H675 0.950 . S
C684 C683 1.398 . S
C684 C685 1.391 . S
C685 H673 0.950 . S
C685 C681 1.393 . S
C685 C684 1.391 . S
C686 H676 0.950 . S
C686 C687 1.386 . S
C686 C688 1.391 . S
C687 C686 1.386 . S
C687 C691 1.393 . S
C688 H677 0.950 . S
C688 C686 1.391 . S
C688 C689 1.400 . S
C689 C683 1.491 . S
C689 C688 1.400 . S
C689 C690 1.398 . S
C690 H678 0.950 . S
C690 C689 1.398 . S
C690 C691 1.391 . S
C691 H679 0.950 . S
C691 C687 1.393 . S
C691 C690 1.391 . S
H692 C700 0.950 . S
H693 C705 0.950 . S
H694 C702 0.950 . S
H695 C704 0.950 . S
H696 C706 0.950 . S
H697 C708 0.950 . S
H698 C710 0.950 . S
H699 C711 0.950 . S
C700 H692 0.950 . S
C700 C701 1.386 . S
C700 C702 1.391 . S
C701 C700 1.386 . S
C701 C705 1.393 . S
C702 H694 0.950 . S
C702 C700 1.391 . S
C702 C703 1.400 . S
C703 C702 1.400 . S
C703 C704 1.398 . S
C703 C709 1.491 . S
C704 H695 0.950 . S
C704 C703 1.398 . S
C704 C705 1.391 . S
C705 H693 0.950 . S
C705 C701 1.393 . S
C705 C704 1.391 . S
C706 H696 0.950 . S
C706 C707 1.386 . S
C706 C708 1.391 . S
C707 C706 1.386 . S
C707 C711 1.393 . S
C708 H697 0.950 . S
C708 C706 1.391 . S
C708 C709 1.400 . S
C709 C703 1.491 . S
C709 C708 1.400 . S
C709 C710 1.398 . S
C710 H698 0.950 . S
C710 C709 1.398 . S
C710 C711 1.391 . S
C711 H699 0.950 . S
C711 C707 1.393 . S
C711 C710 1.391 . S
H712 C720 0.950 . S
H713 C725 0.950 . S
H714 C722 0.950 . S
H715 C724 0.950 . S
H716 C726 0.950 . S
H717 C728 0.950 . S
H718 C730 0.950 . S
H719 C731 0.950 . S
C720 H712 0.950 . S
C720 C721 1.386 . S
C720 C722 1.391 . S
C721 C720 1.386 . S
C721 C725 1.393 . S
C722 H714 0.950 . S
C722 C720 1.391 . S
C722 C723 1.400 . S
C723 C722 1.400 . S
C723 C724 1.398 . S
C723 C729 1.491 . S
C724 H715 0.950 . S
C724 C723 1.398 . S
C724 C725 1.391 . S
C725 H713 0.950 . S
C725 C721 1.393 . S
C725 C724 1.391 . S
C726 H716 0.950 . S
C726 C727 1.386 . S
C726 C728 1.391 . S
C727 C726 1.386 . S
C727 C731 1.393 . S
C728 H717 0.950 . S
C728 C726 1.391 . S
C728 C729 1.400 . S
C729 C723 1.491 . S
C729 C728 1.400 . S
C729 C730 1.398 . S
C730 H718 0.950 . S
C730 C729 1.398 . S
C730 C731 1.391 . S
C731 H719 0.950 . S
C731 C727 1.393 . S
C731 C730 1.391 . S
H732 C740 0.950 . S
H733 C745 0.950 . S
H734 C742 0.950 . S
H735 C744 0.950 . S
H736 C746 0.950 . S
H737 C748 0.950 . S
H738 C750 0.950 . S
H739 C751 0.950 . S
C740 H732 0.950 . S
C740 C741 1.386 . S
C740 C742 1.391 . S
C741 C740 1.386 . S
C741 C745 1.393 . S
C742 H734 0.950 . S
C742 C740 1.391 . S
C742 C743 1.400 . S
C743 C742 1.400 . S
C743 C744 1.398 . S
C743 C749 1.491 . S
C744 H735 0.950 . S
C744 C743 1.398 . S
C744 C745 1.391 . S
C745 H733 0.950 . S
C745 C741 1.393 . S
C745 C744 1.391 . S
C746 H736 0.950 . S
C746 C747 1.386 . S
C746 C748 1.391 . S
C747 C746 1.386 . S
C747 C751 1.393 . S
C748 H737 0.950 . S
C748 C746 1.391 . S
C748 C749 1.400 . S
C749 C743 1.491 . S
C749 C748 1.400 . S
C749 C750 1.398 . S
C750 H738 0.950 . S
C750 C749 1.398 . S
C750 C751 1.391 . S
C751 H739 0.950 . S
C751 C747 1.393 . S
C751 C750 1.391 . S
H752 C760 0.950 . S
H753 C765 0.950 . S
H754 C762 0.950 . S
H755 C764 0.950 . S
H756 C766 0.950 . S
H757 C768 0.950 . S
H758 C770 0.950 . S
H759 C771 0.950 . S
C760 H752 0.950 . S
C760 C761 1.386 . S
C760 C762 1.391 . S
C761 C760 1.386 . S
C761 C765 1.393 . S
C762 H754 0.950 . S
C762 C760 1.391 . S
C762 C763 1.400 . S
C763 C762 1.400 . S
C763 C764 1.398 . S
C763 C769 1.491 . S
C764 H755 0.950 . S
C764 C763 1.398 . S
C764 C765 1.391 . S
C765 H753 0.950 . S
C765 C761 1.393 . S
C765 C764 1.391 . S
C766 H756 0.950 . S
C766 C767 1.386 . S
C766 C768 1.391 . S
C767 C766 1.386 . S
C767 C771 1.393 . S
C768 H757 0.950 . S
C768 C766 1.391 . S
C768 C769 1.400 . S
C769 C763 1.491 . S
C769 C768 1.400 . S
C769 C770 1.398 . S
C770 H758 0.950 . S
C770 C769 1.398 . S
C770 C771 1.391 . S
C771 H759 0.950 . S
C771 C767 1.393 . S
C771 C770 1.391 . S
H772 C780 0.950 . S
H773 C785 0.950 . S
H774 C782 0.950 . S
H775 C784 0.950 . S
H776 C786 0.950 . S
H777 C788 0.950 . S
H778 C790 0.950 . S
H779 C791 0.950 . S
C780 H772 0.950 . S
C780 C781 1.386 . S
C780 C782 1.391 . S
C781 C780 1.386 . S
C781 C785 1.393 . S
C782 H774 0.950 . S
C782 C780 1.391 . S
C782 C783 1.400 . S
C783 C782 1.400 . S
C783 C784 1.398 . S
C783 C789 1.491 . S
C784 H775 0.950 . S
C784 C783 1.398 . S
C784 C785 1.391 . S
C785 H773 0.950 . S
C785 C781 1.393 . S
C785 C784 1.391 . S
C786 H776 0.950 . S
C786 C787 1.386 . S
C786 C788 1.391 . S
C787 C786 1.386 . S
C787 C791 1.393 . S
C788 H777 0.950 . S
C788 C786 1.391 . S
C788 C789 1.400 . S
C789 C783 1.491 . S
C789 C788 1.400 . S
C789 C790 1.398 . S
C790 H778 0.950 . S
C790 C789 1.398 . S
C790 C791 1.391 . S
C791 H779 0.950 . S
C791 C787 1.393 . S
C791 C790 1.391 . S
H792 C800 0.950 . S
H793 C805 0.950 . S
H794 C802 0.950 . S
H795 C804 0.950 . S
H796 C806 0.950 . S
H797 C808 0.950 . S
H798 C810 0.950 . S
H799 C811 0.950 . S
C800 H792 0.950 . S
C800 C801 1.386 . S
C800 C802 1.391 . S
C801 C800 1.386 . S
C801 C805 1.393 . S
C802 H794 0.950 . S
C802 C800 1.391 . S
C802 C803 1.400 . S
C803 C802 1.400 . S
C803 C804 1.398 . S
C803 C809 1.491 . S
C804 H795 0.950 . S
C804 C803 1.398 . S
C804 C805 1.391 . S
C805 H793 0.950 . S
C805 C801 1.393 . S
C805 C804 1.391 . S
C806 H796 0.950 . S
C806 C807 1.386 . S
C806 C808 1.391 . S
C807 C806 1.386 . S
C807 C811 1.393 . S
C808 H797 0.950 . S
C808 C806 1.391 . S
C808 C809 1.400 . S
C809 C803 1.491 . S
C809 C808 1.400 . S
C809 C810 1.398 . S
C810 H798 0.950 . S
C810 C809 1.398 . S
C810 C811 1.391 . S
C811 H799 0.950 . S
C811 C807 1.393 . S
C811 C810 1.391 . S
H812 C820 0.950 . S
H813 C825 0.950 . S
H814 C822 0.950 . S
H815 C824 0.950 . S
H816 C826 0.950 . S
H817 C828 0.950 . S
H818 C830 0.950 . S
H819 C831 0.950 . S
C820 H812 0.950 . S
C820 C821 1.386 . S
C820 C822 1.391 . S
C821 C820 1.386 . S
C821 C825 1.393 . S
C822 H814 0.950 . S
C822 C820 1.391 . S
C822 C823 1.400 . S
C823 C822 1.400 . S
C823 C824 1.398 . S
C823 C829 1.491 . S
C824 H815 0.950 . S
C824 C823 1.398 . S
C824 C825 1.391 . S
C825 H813 0.950 . S
C825 C821 1.393 . S
C825 C824 1.391 . S
C826 H816 0.950 . S
C826 C827 1.386 . S
C826 C828 1.391 . S
C827 C826 1.386 . S
C827 C831 1.393 . S
C828 H817 0.950 . S
C828 C826 1.391 . S
C828 C829 1.400 . S
C829 C823 1.491 . S
C829 C828 1.400 . S
C829 C830 1.398 . S
C830 H818 0.950 . S
C830 C829 1.398 . S
C830 C831 1.391 . S
C831 H819 0.950 . S
C831 C827 1.393 . S
C831 C830 1.391 . S
H832 C840 0.950 . S
H833 C845 0.950 . S
H834 C842 0.950 . S
H835 C844 0.950 . S
H836 C846 0.950 . S
H837 C848 0.950 . S
H838 C850 0.950 . S
H839 C851 0.950 . S
C840 H832 0.950 . S
C840 C841 1.386 . S
C840 C842 1.391 . S
C841 C840 1.386 . S
C841 C845 1.393 . S
C842 H834 0.950 . S
C842 C840 1.391 . S
C842 C843 1.400 . S
C843 C842 1.400 . S
C843 C844 1.398 . S
C843 C849 1.491 . S
C844 H835 0.950 . S
C844 C843 1.398 . S
C844 C845 1.391 . S
C845 H833 0.950 . S
C845 C841 1.393 . S
C845 C844 1.391 . S
C846 H836 0.950 . S
C846 C847 1.386 . S
C846 C848 1.391 . S
C847 C846 1.386 . S
C847 C851 1.393 . S
C848 H837 0.950 . S
C848 C846 1.391 . S
C848 C849 1.400 . S
C849 C843 1.491 . S
C849 C848 1.400 . S
C849 C850 1.398 . S
C850 H838 0.950 . S
C850 C849 1.398 . S
C850 C851 1.391 . S
C851 H839 0.950 . S
C851 C847 1.393 . S
C851 C850 1.391 . S
C387 C300 1.505 . S
C381 C25 1.505 . S
C407 C303 1.503 . S
C401 C37 1.508 . S
C427 C301 1.516 . S
C421 C103 1.515 . S
C447 C302 1.505 . S
C441 C139 1.506 . S
C467 C317 1.499 . S
C461 C31 1.501 . S
C487 C331 1.507 . S
C481 C67 1.509 . S
C501 C97 1.497 . S
C507 C357 1.508 . S
C527 C371 1.502 . S
C521 C133 1.501 . S
C547 C316 1.498 . S
C541 C61 1.497 . S
C561 C73 1.513 . S
C567 C330 1.512 . S
C587 C356 1.501 . S
C581 C109 1.505 . S
C607 C370 1.500 . S
C601 C1 1.496 . S
C621 C169 1.499 . S
C627 C315 1.503 . S
C647 C288 1.503 . S
C641 C211 1.504 . S
C661 C241 1.500 . S
C667 C314 1.501 . S
C681 C253 1.505 . S
C687 C289 1.505 . S
C707 C344 1.508 . S
C701 C175 1.499 . S
C727 C358 1.502 . S
C721 C205 1.497 . S
C747 C328 1.502 . S
C741 C217 1.501 . S
C761 C283 1.511 . S
C767 C342 1.515 . S
C787 C345 1.509 . S
C781 C181 1.500 . S
C807 C359 1.502 . S
C801 C247 1.511 . S
C827 C329 1.502 . S
C821 C277 1.502 . S
C841 C145 1.507 . S
C847 C343 1.511 . S
