# Generated by pormake.
# Topology anh, (6,3)-cn, num edge types: 1
# Building blocks:
#     Node 0, Type 0, BuildingBlock: MIFKUJ_clean_sbu_0, # of connection points: 6
#     Node 1, Type 0, BuildingBlock: MIFKUJ_clean_sbu_0, # of connection points: 6
#     Node 2, Type 0, BuildingBlock: MIFKUJ_clean_sbu_0, # of connection points: 6
#     Node 3, Type 1, BuildingBlock: BELTOD_clean_linker_0, # of connection points: 3
#     Node 4, Type 1, BuildingBlock: BELTOD_clean_linker_0, # of connection points: 3
#     Node 5, Type 1, BuildingBlock: BELTOD_clean_linker_0, # of connection points: 3
#     Node 6, Type 1, BuildingBlock: BELTOD_clean_linker_0, # of connection points: 3
#     Node 7, Type 1, BuildingBlock: BELTOD_clean_linker_0, # of connection points: 3
#     Node 8, Type 1, BuildingBlock: BELTOD_clean_linker_0, # of connection points: 3
#     Edge 9, Type (0, 1), BuildingBlock: EZIPEK_clean_linker_0, # of connection points: 2
#     Edge 10, Type (0, 1), BuildingBlock: EZIPEK_clean_linker_0, # of connection points: 2
#     Edge 11, Type (0, 1), BuildingBlock: EZIPEK_clean_linker_0, # of connection points: 2
#     Edge 12, Type (0, 1), BuildingBlock: EZIPEK_clean_linker_0, # of connection points: 2
#     Edge 13, Type (0, 1), BuildingBlock: EZIPEK_clean_linker_0, # of connection points: 2
#     Edge 14, Type (0, 1), BuildingBlock: EZIPEK_clean_linker_0, # of connection points: 2
#     Edge 15, Type (0, 1), BuildingBlock: EZIPEK_clean_linker_0, # of connection points: 2
#     Edge 16, Type (0, 1), BuildingBlock: EZIPEK_clean_linker_0, # of connection points: 2
#     Edge 17, Type (0, 1), BuildingBlock: EZIPEK_clean_linker_0, # of connection points: 2
#     Edge 18, Type (0, 1), BuildingBlock: EZIPEK_clean_linker_0, # of connection points: 2
#     Edge 19, Type (0, 1), BuildingBlock: EZIPEK_clean_linker_0, # of connection points: 2
#     Edge 20, Type (0, 1), BuildingBlock: EZIPEK_clean_linker_0, # of connection points: 2
#     Edge 21, Type (0, 1), BuildingBlock: EZIPEK_clean_linker_0, # of connection points: 2
#     Edge 22, Type (0, 1), BuildingBlock: EZIPEK_clean_linker_0, # of connection points: 2
#     Edge 23, Type (0, 1), BuildingBlock: EZIPEK_clean_linker_0, # of connection points: 2
#     Edge 24, Type (0, 1), BuildingBlock: EZIPEK_clean_linker_0, # of connection points: 2
#     Edge 25, Type (0, 1), BuildingBlock: EZIPEK_clean_linker_0, # of connection points: 2
#     Edge 26, Type (0, 1), BuildingBlock: EZIPEK_clean_linker_0, # of connection points: 2
# Relax obj value: 0.123
# Max RMSD: 0.180
# Mean RMSD: 0.143
data_MOF--net-anh--node1-MIFKUJ_clean_sbu_0--node2-BELTOD_clean_linker_0--edge1-EZIPEK_clean_linker_0
_symmetry_space_group_name_H-M    P1
_symmetry_Int_Tables_number       1
_symmetry_cell_setting            triclinic
loop_
_symmetry_equiv_pos_as_xyz
'x, y, z'
_cell_length_a     28.093215
_cell_length_b     27.585829
_cell_length_c     44.379424
_cell_angle_alpha  93.838305
_cell_angle_beta   91.187233
_cell_angle_gamma 120.03303
loop_
_atom_site_label
_atom_site_type_symbol
_atom_site_fract_x
_atom_site_fract_y
_atom_site_fract_z
_atom_type_partial_charge
Zn0 Zn 0.06239 0.56877 0.16309 0.0
Zn1 Zn 0.8841 0.47763 0.15757 0.0
C2 C 0.15057 0.54766 0.16549 0.0
O3 O 0.1662 0.58643 0.18826 0.0
C4 C 0.79455 0.4897 0.14592 0.0
O5 O 0.79343 0.45613 0.12312 0.0
O6 O 0.11536 0.65155 0.16325 0.0
O7 O -0.00707 0.5381 0.13779 0.0
O8 O 0.91135 0.49932 0.11563 0.0
C9 C 0.12324 0.68301 0.14208 0.0
O10 O 0.08973 0.6639 0.11764 0.0
O11 O 0.105 0.53078 0.15069 0.0
C12 C 0.80669 0.37269 0.17836 0.0
O13 O 0.81047 0.40641 0.20178 0.0
O14 O 0.83611 0.39309 0.15615 0.0
O15 O 0.94867 0.50593 0.18961 0.0
O16 O 0.03711 0.54992 0.20487 0.0
O17 O 0.83397 0.50924 0.16612 0.0
C18 C 0.96309 0.52772 0.11387 0.0
C19 C -0.01351 0.52198 0.21066 0.0
Zn20 Zn 0.54023 0.09205 0.49753 0.0
Zn21 Zn 0.46694 0.91842 0.50034 0.0
C22 C 0.64118 0.19888 0.50996 0.0
O23 O 0.61192 0.2107 0.52857 0.0
C24 C 0.36511 0.8234 0.48084 0.0
O25 O 0.39818 0.81927 0.46168 0.0
O26 O 0.49854 0.13325 0.49783 0.0
O27 O 0.52041 0.04286 0.4587 0.0
O28 O 0.48109 0.95041 0.46014 0.0
C29 C 0.49406 0.1553 0.4745 0.0
O30 O 0.51552 0.14786 0.44983 0.0
O31 O 0.61948 0.15115 0.4949 0.0
C32 C 0.48646 0.83005 0.51563 0.0
O33 O 0.44322 0.81649 0.53143 0.0
O34 O 0.50479 0.87275 0.50059 0.0
O35 O 0.49445 0.96845 0.53928 0.0
O36 O 0.53376 0.0611 0.5379 0.0
O37 O 0.38471 0.86543 0.5005 0.0
C38 C 0.49984 -0.00631 0.44558 0.0
C39 C 0.51776 0.01793 0.55239 0.0
Zn40 Zn 0.55206 0.48419 0.8254 0.0
Zn41 Zn 0.453 0.54658 0.81722 0.0
C42 C 0.51527 0.37625 0.84832 0.0
O43 O 0.54889 0.40898 0.87126 0.0
C44 C 0.4934 0.66142 0.80969 0.0
O45 O 0.47442 0.63835 0.78203 0.0
O46 O 0.63156 0.50589 0.83177 0.0
O47 O 0.54216 0.50224 0.78371 0.0
O48 O 0.48355 0.53396 0.77837 0.0
C49 C 0.65038 0.47882 0.81693 0.0
O50 O 0.61822 0.43729 0.79675 0.0
O51 O 0.50889 0.39979 0.82617 0.0
C52 C 0.35116 0.53464 0.83054 0.0
O53 O 0.37692 0.54824 0.85745 0.0
O54 O 0.37472 0.52815 0.80775 0.0
O55 O 0.44942 0.50281 0.85286 0.0
O56 O 0.53574 0.52335 0.85992 0.0
O57 O 0.49263 0.63069 0.83006 0.0
C58 C 0.51627 0.51891 0.76756 0.0
C59 C 0.48734 0.50261 0.86883 0.0
P60 P 0.51933 0.96316 0.21185 0.0
H61 H 0.44718 0.84468 0.19356 0.0
H62 H 0.35162 0.79023 0.17294 0.0
H63 H 0.3465 0.94317 0.16801 0.0
H64 H 0.44273 -0.00188 0.1891 0.0
H65 H 0.59097 0.00575 0.16182 0.0
H66 H 0.65728 0.10162 0.14985 0.0
H67 H 0.60529 0.1693 0.22416 0.0
H68 H 0.53814 0.0737 0.23567 0.0
H69 H 0.42416 0.91664 0.25038 0.0
H70 H 0.60145 0.01789 0.2622 0.0
O71 O 0.55217 0.92776 0.20444 0.0
H72 H 0.41806 0.92261 0.30532 0.0
H73 H 0.59499 0.02448 0.31727 0.0
C74 C 0.4523 0.92544 0.19227 0.0
C75 C 0.42604 0.86675 0.18751 0.0
C76 C 0.37149 0.83567 0.17591 0.0
C77 C 0.34214 0.86274 0.16908 0.0
C78 C 0.36866 0.92168 0.17315 0.0
C79 C 0.42345 0.95289 0.185 0.0
C80 C 0.5607 0.03277 0.20006 0.0
C81 C 0.59328 0.0412 0.17526 0.0
C82 C 0.63107 0.09571 0.16846 0.0
C83 C 0.63675 0.1423 0.1865 0.0
C84 C 0.60187 0.13377 0.21023 0.0
C85 C 0.5637 0.07929 0.2168 0.0
C86 C 0.5134 0.96719 0.25216 0.0
C87 C 0.46177 0.94032 0.26464 0.0
C88 C 0.45815 0.9437 0.296 0.0
C89 C 0.50605 0.97418 0.31521 0.0
C90 C 0.55762 0.00094 0.30273 0.0
C91 C 0.56125 -0.00284 0.27141 0.0
P92 P 0.62836 0.55747 0.54549 0.0
H93 H 0.66718 0.48843 0.51401 0.0
H94 H 0.6196 0.38951 0.49399 0.0
H95 H 0.46334 0.37465 0.5135 0.0
H96 H 0.5109 0.47278 0.53489 0.0
H97 H 0.68511 0.6786 0.5553 0.0
H98 H 0.65707 0.74727 0.54516 0.0
H99 H 0.51036 0.61658 0.49512 0.0
H100 H 0.53933 0.54843 0.50408 0.0
H101 H 0.67749 0.54688 0.60176 0.0
H102 H 0.53211 0.55146 0.57308 0.0
O103 O 0.6962 0.58268 0.54587 0.0
H104 H 0.64801 0.53704 0.65387 0.0
H105 H 0.50233 0.54043 0.62494 0.0
C106 C 0.59262 0.48833 0.52567 0.0
C107 C 0.62266 0.46435 0.51362 0.0
C108 C 0.5956 0.40794 0.5022 0.0
C109 C 0.53811 0.37499 0.50244 0.0
C110 C 0.50776 0.3996 0.51314 0.0
C111 C 0.53496 0.45567 0.52517 0.0
C112 C 0.61432 0.60833 0.53056 0.0
C113 C 0.64787 0.66503 0.54124 0.0
C114 C 0.63182 0.70412 0.53563 0.0
C115 C 0.5814 0.68666 0.51973 0.0
C116 C 0.54932 0.63063 0.50754 0.0
C117 C 0.56583 0.59169 0.5128 0.0
C118 C 0.60739 0.5507 0.58369 0.0
C119 C 0.63943 0.5459 0.60664 0.0
C120 C 0.62261 0.54011 0.63625 0.0
C121 C 0.57317 0.53819 0.64303 0.0
C122 C 0.54062 0.54194 0.61999 0.0
C123 C 0.55772 0.54831 0.59049 0.0
P124 P 0.05244 0.61827 0.89282 0.0
H125 H 0.06714 0.58992 0.83011 0.0
H126 H 0.12936 0.56045 0.80809 0.0
H127 H 0.18764 0.55515 0.89778 0.0
H128 H 0.12494 0.58277 0.91969 0.0
H129 H -0.01951 0.66506 0.89164 0.0
H130 H 0.88571 0.62809 0.87126 0.0
H131 H 0.88103 0.47712 0.83414 0.0
H132 H 0.97559 0.5135 0.85532 0.0
H133 H 0.11925 0.68117 0.94827 0.0
H134 H 0.96632 0.52695 0.92377 0.0
O135 O 0.08941 0.68744 0.8902 0.0
H136 H 0.10613 0.66456 0.00205 0.0
H137 H 0.95282 0.5112 0.9774 0.0
C138 C 0.09051 0.58752 0.87654 0.0
C139 C 0.09215 0.58085 0.845 0.0
C140 C 0.12771 0.56431 0.83245 0.0
C141 C 0.1632 0.55598 0.85138 0.0
C142 C 0.1605 0.56133 0.88284 0.0
C143 C 0.12455 0.57706 0.89532 0.0
C144 C -0.01445 0.59272 0.87426 0.0
C145 C 0.95946 0.62439 0.87871 0.0
C146 C 0.90542 0.60328 0.86724 0.0
C147 C 0.87661 0.55005 0.85116 0.0
C148 C 0.90284 0.51843 0.84638 0.0
C149 C 0.95683 0.53938 0.85823 0.0
C150 C 0.04309 0.60598 0.93214 0.0
C151 C 0.08277 0.64406 0.95445 0.0
C152 C 0.07551 0.63456 0.98501 0.0
C153 C 0.02829 0.587 -0.0065 0.0
C154 C -0.01074 0.54832 0.97115 0.0
C155 C -0.00313 0.55749 0.94063 0.0
P156 P 0.02314 0.44029 0.42881 0.0
H157 H 0.13165 0.48581 0.45999 0.0
H158 H 0.20508 0.58231 0.47493 0.0
H159 H 0.09743 0.64402 0.44945 0.0
H160 H 0.0238 0.54719 0.434 0.0
H161 H 0.93832 0.32345 0.42496 0.0
H162 H 0.84988 0.27278 0.44811 0.0
H163 H 0.88312 0.42629 0.49905 0.0
H164 H 0.97203 0.47729 0.47593 0.0
H165 H 0.07435 0.44661 0.37184 0.0
H166 H 0.93336 0.4536 0.40325 0.0
O167 O 0.05283 0.40085 0.4265 0.0
H168 H 0.05385 0.46341 0.32087 0.0
H169 H 0.913 0.47057 0.35212 0.0
C170 C 0.07246 0.50943 0.44564 0.0
C171 C 0.12334 0.51983 0.45803 0.0
C172 C 0.16526 0.57483 0.46656 0.0
C173 C 0.15672 0.62008 0.46292 0.0
C174 C 0.10471 0.60951 0.45224 0.0
C175 C 0.06285 0.5544 0.44349 0.0
C176 C 0.96192 0.40387 0.449 0.0
C177 C 0.92711 0.34609 0.4415 0.0
C178 C 0.87675 0.31723 0.45462 0.0
C179 C 0.86044 0.34589 0.47532 0.0
C180 C 0.89552 0.40361 0.48327 0.0
C181 C 0.94609 0.43257 0.47007 0.0
C182 C 0.00472 0.44768 0.39109 0.0
C183 C 0.03857 0.4509 0.36767 0.0
C184 C 0.02702 0.46062 0.33869 0.0
C185 C -0.01814 0.46792 0.33289 0.0
C186 C 0.94781 0.46465 0.35627 0.0
C187 C 0.95936 0.45481 0.38531 0.0
P188 P 0.59776 0.06846 0.78589 0.0
H189 H 0.65284 0.18711 0.80778 0.0
H190 H 0.61839 0.2491 0.82535 0.0
H191 H 0.45295 0.10744 0.82025 0.0
H192 H 0.4875 0.04486 0.80232 0.0
H193 H 0.6479 0.02871 0.82904 0.0
H194 H 0.62403 0.93377 0.84069 0.0
H195 H 0.47059 0.86504 0.78732 0.0
H196 H 0.49418 0.9602 0.77581 0.0
H197 H 0.57083 0.13157 0.74448 0.0
H198 H 0.58932 0.985 0.73841 0.0
O199 O 0.66645 0.10361 0.79003 0.0
H200 H 0.55143 0.11987 0.68955 0.0
H201 H 0.56857 0.97279 0.68355 0.0
C202 C 0.57285 0.1111 0.80426 0.0
C203 C 0.6093 0.16889 0.81106 0.0
C204 C 0.58969 0.20442 0.82093 0.0
C205 C 0.53323 0.18283 0.82403 0.0
C206 C 0.49673 0.12475 0.81807 0.0
C207 C 0.51644 0.0891 0.80803 0.0
C208 C 0.57326 0.00139 0.80108 0.0
C209 C 0.60848 -0.00651 0.82043 0.0
C210 C 0.59494 0.93937 0.82711 0.0
C211 C 0.54595 0.89248 0.81451 0.0
C212 C 0.50868 0.90075 0.79713 0.0
C213 C 0.52212 0.95499 0.79062 0.0
C214 C 0.57985 0.0581 0.74578 0.0
C215 C 0.5698 0.09635 0.73155 0.0
C216 C 0.55891 0.08989 0.7002 0.0
C217 C 0.55806 0.04517 0.68269 0.0
C218 C 0.56848 0.00716 0.69683 0.0
C219 C 0.58 0.01401 0.72811 0.0
P220 P 0.40935 0.40322 0.09104 0.0
H221 H 0.46646 0.34998 0.11639 0.0
H222 H 0.5623 0.3868 0.13404 0.0
H223 H 0.59655 0.55585 0.12519 0.0
H224 H 0.50022 0.51866 0.10655 0.0
H225 H 0.30163 0.3819 0.07084 0.0
H226 H 0.2415 0.41641 0.08962 0.0
H227 H 0.3612 0.51463 0.16333 0.0
H228 H 0.42141 0.47976 0.14473 0.0
H229 H 0.44362 0.35493 0.04172 0.0
H230 H 0.40585 0.48808 0.05571 0.0
O231 O 0.3747 0.33348 0.09181 0.0
H232 H 0.46354 0.37735 0.98911 0.0
H233 H 0.42399 0.50913 0.00303 0.0
C234 C 0.476 0.43165 0.11054 0.0
C235 C 0.494 0.39504 0.11884 0.0
C236 C 0.54876 0.41601 0.12886 0.0
C237 C 0.58648 0.47393 0.13069 0.0
C238 C 0.56796 0.51099 0.12389 0.0
C239 C 0.51311 0.48983 0.11343 0.0
C240 C 0.36628 0.42892 0.10611 0.0
C241 C 0.31499 0.41084 0.09106 0.0
C242 C 0.28073 0.43041 0.10172 0.0
C243 C 0.29719 0.46815 0.1277 0.0
C244 C 0.34812 0.48568 0.14313 0.0
C245 C 0.38247 0.46596 0.13244 0.0
C246 C 0.42175 0.41874 0.05231 0.0
C247 C 0.43886 0.38837 0.03337 0.0
C248 C 0.4503 0.40115 0.00347 0.0
C249 C 0.44454 0.4444 0.99219 0.0
C250 C 0.42808 0.47524 0.0113 0.0
C251 C 0.41741 0.46295 0.04128 0.0
C252 C 0.17632 0.47274 0.16207 0.0
C253 C 0.18798 0.52725 0.15581 0.0
C254 C 0.27064 0.54264 0.13047 0.0
C255 C 0.26082 0.48953 0.13839 0.0
N256 N 0.20964 0.4071 0.16511 0.0
N257 N 0.24819 0.61686 0.13691 0.0
C258 C 0.21504 0.45535 0.15512 0.0
C259 C 0.23589 0.56312 0.14094 0.0
N260 N 0.12794 0.43746 0.17439 0.0
N261 N 0.31196 0.57245 0.11197 0.0
H262 H 0.22207 0.63233 0.14249 0.0
H263 H 0.28561 0.64736 0.12962 0.0
H264 H 0.33887 0.55929 0.1043 0.0
H265 H 0.31751 0.60826 0.10245 0.0
H266 H 0.1139 0.39509 0.17636 0.0
H267 H 0.09971 0.44958 0.18098 0.0
H268 H 0.18067 0.38321 0.18009 0.0
H269 H 0.23706 0.39295 0.16026 0.0
C270 C 0.74255 0.25571 0.52362 0.0
C271 C 0.69709 0.24301 0.50355 0.0
C272 C 0.75911 0.30825 0.46871 0.0
C273 C 0.80469 0.31539 0.48687 0.0
N274 N 0.84166 0.29618 0.531 0.0
N275 N 0.6602 0.25634 0.45734 0.0
C276 C 0.79698 0.28973 0.5144 0.0
C277 C 0.70484 0.26942 0.47627 0.0
N278 N 0.73347 0.23515 0.55142 0.0
N279 N 0.768 0.33931 0.44448 0.0
H280 H 0.61973 0.23134 0.46318 0.0
H281 H 0.66284 0.26818 0.43539 0.0
H282 H 0.8073 0.3677 0.43814 0.0
H283 H 0.73694 0.34039 0.4319 0.0
H284 H 0.76437 0.24699 0.56837 0.0
H285 H 0.69408 0.20893 0.55846 0.0
H286 H 0.83897 0.27377 0.54945 0.0
H287 H 0.8821 0.32225 0.52535 0.0
C288 C 0.55816 0.76133 0.80082 0.0
C289 C 0.51334 0.72235 0.81645 0.0
C290 C 0.49731 0.79822 0.83597 0.0
C291 C 0.53656 0.8347 0.81659 0.0
N292 N 0.60031 0.84936 0.77775 0.0
N293 N 0.43802 0.7023 0.84819 0.0
C294 C 0.56624 0.81597 0.7984 0.0
C295 C 0.48267 0.74052 0.8342 0.0
N296 N 0.59388 0.74631 0.78894 0.0
N297 N 0.47465 0.81899 0.85631 0.0
H298 H 0.42726 0.66031 0.84838 0.0
H299 H 0.40973 0.7113 0.85809 0.0
H300 H 0.48421 0.86085 0.85791 0.0
H301 H 0.45 0.79617 0.87317 0.0
H302 H 0.63028 0.77428 0.77958 0.0
H303 H 0.5901 0.70733 0.79168 0.0
H304 H 0.61802 0.83538 0.76152 0.0
H305 H 0.60736 0.88964 0.77503 0.0
C306 C 0.71371 0.48856 0.17072 0.0
C307 C 0.74995 0.50366 0.14677 0.0
C308 C 0.683 0.51113 0.11416 0.0
C309 C 0.64583 0.49407 0.13764 0.0
N310 N 0.63125 0.48295 0.19054 0.0
N311 N 0.77743 0.54838 0.10054 0.0
C312 C 0.66326 0.48852 0.16678 0.0
C313 C 0.73729 0.52157 0.12014 0.0
N314 N 0.7255 0.47075 0.19634 0.0
N315 N 0.66556 0.51351 0.08559 0.0
H316 H 0.81784 0.55726 0.1048 0.0
H317 H 0.77224 0.56691 0.08201 0.0
H318 H 0.62601 0.50568 0.07994 0.0
H319 H 0.68906 0.51911 0.06691 0.0
H320 H 0.69731 0.4521 0.21269 0.0
H321 H 0.76253 0.47173 0.20062 0.0
H322 H 0.64375 0.48374 0.21291 0.0
H323 H 0.59422 0.48297 0.18811 0.0
C324 C 0.27929 0.74901 0.50334 0.0
C325 C 0.30579 0.77958 0.47835 0.0
C326 C 0.23015 0.70922 0.4436 0.0
C327 C 0.20392 0.67839 0.46843 0.0
N328 N 0.19499 0.67588 0.52217 0.0
N329 N 0.29744 0.79899 0.427 0.0
C330 C 0.22574 0.70076 0.49843 0.0
C331 C 0.27813 0.76292 0.4492 0.0
N332 N 0.30614 0.76366 0.53135 0.0
N333 N 0.21125 0.68607 0.41459 0.0
H334 H 0.33158 0.83944 0.43078 0.0
H335 H 0.27626 0.79129 0.40608 0.0
H336 H 0.17633 0.6467 0.4093 0.0
H337 H 0.23271 0.704 0.39574 0.0
H338 H 0.29183 0.73841 0.54924 0.0
H339 H 0.34431 0.79956 0.53653 0.0
H340 H 0.2061 0.69325 0.54452 0.0
H341 H 0.15564 0.64047 0.51915 0.0
C342 C 0.50913 0.29033 0.86913 0.0
C343 C 0.49772 0.31486 0.84499 0.0
C344 C 0.4912 0.24027 0.80898 0.0
C345 C 0.51289 0.22224 0.83212 0.0
N346 N 0.53825 0.2259 0.88477 0.0
N347 N 0.44633 0.29282 0.79707 0.0
C348 C 0.51965 0.2454 0.86253 0.0
C349 C 0.47888 0.28357 0.81635 0.0
N350 N 0.50637 0.30787 0.89822 0.0
N351 N 0.48536 0.21841 0.77968 0.0
H352 H 0.43088 0.31904 0.80363 0.0
H353 H 0.42811 0.26863 0.77667 0.0
H354 H 0.49311 0.18605 0.77332 0.0
H355 H 0.4764 0.23498 0.76142 0.0
H356 H 0.51065 0.28963 0.9171 0.0
H357 H 0.49287 0.33641 0.90313 0.0
H358 H 0.55052 0.24524 0.9067 0.0
H359 H 0.54357 0.19123 0.88088 0.0
C360 C 0.52777 0.78403 0.54463 0.0
C361 C 0.51437 0.79658 0.51631 0.0
C362 C 0.55361 0.74445 0.49046 0.0
C363 C 0.55961 0.72562 0.51846 0.0
N364 N 0.54194 0.71858 0.57154 0.0
N365 N 0.50642 0.78098 0.46165 0.0
C366 C 0.54381 0.74292 0.54541 0.0
C367 C 0.52536 0.77502 0.48897 0.0
N368 N 0.5274 0.81293 0.5708 0.0
N369 N 0.57578 0.73406 0.46544 0.0
H370 H 0.48425 0.80165 0.45938 0.0
H371 H 0.50818 0.76083 0.44135 0.0
H372 H 0.59683 0.71186 0.46577 0.0
H373 H 0.57769 0.75182 0.44518 0.0
H374 H 0.54199 0.80907 0.59176 0.0
H375 H 0.51847 0.84539 0.57116 0.0
H376 H 0.52514 0.72559 0.59092 0.0
H377 H 0.552 0.68716 0.57305 0.0
C378 C 0.7511 0.53882 0.80986 0.0
C379 C 0.70797 0.49311 0.82319 0.0
C380 C 0.77511 0.48316 0.85427 0.0
C381 C 0.81842 0.52745 0.84005 0.0
N382 N 0.84808 0.58935 0.80001 0.0
N383 N 0.67769 0.41403 0.85304 0.0
C384 C 0.8065 0.55288 0.81651 0.0
C385 C 0.71963 0.46264 0.84372 0.0
N386 N 0.73913 0.56942 0.7913 0.0
N387 N 0.78676 0.46277 0.87891 0.0
H388 H 0.63644 0.39831 0.8462 0.0
H389 H 0.68404 0.38676 0.86541 0.0
H390 H 0.82676 0.477 0.88763 0.0
H391 H 0.75674 0.43506 0.89228 0.0
H392 H 0.7689 0.6072 0.78374 0.0
H393 H 0.69889 0.55883 0.78489 0.0
H394 H 0.84154 0.60514 0.78068 0.0
H395 H 0.88904 0.6 0.80407 0.0
C396 C 0.18611 0.77571 0.17043 0.0
C397 C 0.1747 0.7384 0.14422 0.0
C398 C 0.26913 0.79796 0.12962 0.0
C399 C 0.28305 0.82784 0.15863 0.0
N400 N 0.25549 0.8444 0.20763 0.0
N401 N 0.20695 0.71145 0.09948 0.0
C402 C 0.24156 0.81731 0.17916 0.0
C403 C 0.21623 0.74939 0.12354 0.0
N404 N 0.14373 0.77102 0.18696 0.0
N405 N 0.30693 0.8158 0.10808 0.0
H406 H 0.16933 0.67481 0.09414 0.0
H407 H 0.23799 0.71407 0.08605 0.0
H408 H 0.34606 0.85131 0.11209 0.0
H409 H 0.29767 0.79896 0.08559 0.0
H410 H 0.14866 0.79995 0.20483 0.0
H411 H 0.10267 0.74115 0.18077 0.0
H412 H 0.22806 0.83346 0.22475 0.0
H413 H 0.29553 0.87552 0.21486 0.0
C414 C 0.47042 0.2173 0.50703 0.0
C415 C 0.48066 0.20142 0.47803 0.0
C416 C 0.50729 0.29461 0.46234 0.0
C417 C 0.51049 0.31381 0.49326 0.0
N418 N 0.49526 0.29336 0.54558 0.0
N419 N 0.47876 0.21448 0.42519 0.0
C420 C 0.49079 0.27496 0.51572 0.0
C421 C 0.48989 0.23694 0.45458 0.0
N422 N 0.43952 0.17694 0.52566 0.0
N423 N 0.52273 0.33195 0.44076 0.0
H424 H 0.45992 0.17119 0.41961 0.0
H425 H 0.48174 0.23698 0.40673 0.0
H426 H 0.5325 0.37357 0.44562 0.0
H427 H 0.52759 0.3225 0.41835 0.0
H428 H 0.42706 0.18561 0.54628 0.0
H429 H 0.4203 0.13419 0.51841 0.0
H430 H 0.4875 0.26735 0.56301 0.0
H431 H 0.51087 0.3354 0.55327 0.0
C432 C 0.25044 0.48806 0.83882 0.0
C433 C 0.29762 0.53249 0.82727 0.0
C434 C 0.25324 0.58938 0.82695 0.0
C435 C 0.20608 0.54525 0.83889 0.0
N436 N 0.15374 0.44789 0.84872 0.0
N437 N 0.33765 0.61733 0.80171 0.0
C438 C 0.2027 0.49286 0.8423 0.0
C439 C 0.29667 0.58027 0.81823 0.0
N440 N 0.25206 0.44217 0.84731 0.0
N441 N 0.25853 0.6413 0.82599 0.0
H442 H 0.37017 0.6119 0.79511 0.0
H443 H 0.33661 0.65025 0.79212 0.0
H444 H 0.22823 0.65039 0.83252 0.0
H445 H 0.29489 0.67673 0.82108 0.0
H446 H 0.22169 0.4114 0.85927 0.0
H447 H 0.28535 0.43616 0.84342 0.0
H448 H 0.14712 0.40727 0.84901 0.0
H449 H 0.1181 0.45034 0.85111 0.0
C450 C 0.77875 0.2722 0.18351 0.0
C451 C 0.76391 0.31248 0.17667 0.0
C452 C 0.66658 0.23859 0.17052 0.0
C453 C 0.68085 0.20015 0.18156 0.0
N454 N 0.7498 0.18204 0.2027 0.0
N455 N 0.69391 0.33579 0.16499 0.0
C456 C 0.73682 0.21724 0.18898 0.0
C457 C 0.70781 0.29614 0.17049 0.0
N458 N 0.83285 0.28633 0.18452 0.0
N459 N 0.61394 0.21966 0.15927 0.0
H460 H 0.72315 0.37765 0.16292 0.0
H461 H 0.65357 0.32796 0.16408 0.0
H462 H 0.58289 0.17763 0.15871 0.0
H463 H 0.60211 0.24433 0.14812 0.0
H464 H 0.84588 0.25731 0.18657 0.0
H465 H 0.8644 0.32609 0.18026 0.0
H466 H 0.7892 0.19453 0.21168 0.0
H467 H 0.72037 0.14172 0.20758 0.0
C468 C 0.01788 0.52784 0.0698 0.0
C469 C -0.0133 0.54868 0.0848 0.0
C470 C -0.00745 0.60319 0.04207 0.0
C471 C 0.01858 0.57775 0.02588 0.0
N472 N 0.05661 0.5165 0.02315 0.0
N473 N 0.94492 0.60675 0.08646 0.0
C474 C 0.03206 0.54077 0.03958 0.0
C475 C 0.97452 0.58685 0.07133 0.0
N476 N 0.03328 0.49518 0.08434 0.0
N477 N -0.01435 0.64339 0.02948 0.0
H478 H 0.93522 0.59984 0.10891 0.0
H479 H 0.92818 0.6286 0.07672 0.0
H480 H -0.00337 0.65502 0.0077 0.0
H481 H 0.97228 0.66802 0.04101 0.0
H482 H 0.06116 0.48382 0.0763 0.0
H483 H 0.02029 0.48136 0.10553 0.0
H484 H 0.06208 0.4843 0.03015 0.0
H485 H 0.06979 0.52705 0.0015 0.0
C486 C 0.52515 0.95859 0.39835 0.0
C487 C 0.49952 0.98688 0.41215 0.0
C488 C 0.48147 0.0102 0.36243 0.0
C489 C 0.50244 0.97751 0.34853 0.0
N490 N 0.53358 0.91093 0.35272 0.0
N491 N 0.44284 0.02917 0.40688 0.0
C492 C 0.52104 0.94872 0.36635 0.0
C493 C 0.4747 0.00981 0.39406 0.0
N494 N 0.55587 0.94371 0.41562 0.0
N495 N 0.46971 0.04307 0.34561 0.0
H496 H 0.43542 0.02798 0.42983 0.0
H497 H 0.41937 0.04123 0.39432 0.0
H498 H 0.47428 0.04467 0.32238 0.0
H499 H 0.46009 0.07243 0.35512 0.0
H500 H 0.58011 0.92837 0.40644 0.0
H501 H 0.56177 0.95184 0.43908 0.0
H502 H 0.54168 0.88435 0.36467 0.0
H503 H 0.53079 0.90229 0.32929 0.0
C504 C 0.50867 0.47426 0.71538 0.0
C505 C 0.52728 0.52369 0.73518 0.0
C506 C 0.56993 0.58219 0.69356 0.0
C507 C 0.5558 0.53294 0.67449 0.0
N508 N 0.5159 0.43236 0.66708 0.0
N509 N 0.58205 0.62446 0.74483 0.0
C510 C 0.52622 0.47895 0.68535 0.0
C511 C 0.55929 0.57767 0.72469 0.0
N512 N 0.47301 0.42303 0.72514 0.0
N513 N 0.59327 0.63324 0.68185 0.0
H514 H 0.57573 0.62265 0.76788 0.0
H515 H 0.61078 0.66449 0.73928 0.0
H516 H 0.60383 0.63862 0.65943 0.0
H517 H 0.59855 0.66966 0.69367 0.0
H518 H 0.45341 0.38577 0.71107 0.0
H519 H 0.45945 0.4182 0.74704 0.0
H520 H 0.50029 0.39256 0.67461 0.0
H521 H 0.5261 0.43397 0.64455 0.0
C522 C 0.48268 0.00318 0.60455 0.0
C523 C 0.52801 0.02564 0.58578 0.0
C524 C 0.59294 0.05993 0.63059 0.0
C525 C 0.54766 0.03894 0.64931 0.0
N526 N 0.45012 -0.00481 0.65535 0.0
N527 N 0.62609 0.07837 0.58018 0.0
C528 C 0.49266 0.01173 0.63661 0.0
C529 C 0.58312 0.05506 0.59862 0.0
N530 N 0.43007 0.97355 0.59164 0.0
N531 N 0.64532 0.08325 0.64347 0.0
H532 H 0.62127 0.07153 0.55665 0.0
H533 H 0.66667 0.10652 0.58789 0.0
H534 H 0.65435 0.09004 0.66681 0.0
H535 H 0.67992 0.09349 0.63136 0.0
H536 H 0.39538 0.95009 0.60349 0.0
H537 H 0.42074 0.97038 0.56847 0.0
H538 H 0.40946 0.98071 0.64802 0.0
H539 H 0.45572 -0.00139 0.67886 0.0
C540 C 0.50866 0.52754 0.92484 0.0
C541 C 0.47697 0.48731 0.90034 0.0
C542 C 0.4213 0.41999 0.93613 0.0
C543 C 0.45655 0.45822 0.96045 0.0
N544 N 0.54081 0.54348 0.97754 0.0
N545 N 0.40979 0.39169 0.8824 0.0
C546 C 0.5024 0.51057 0.95468 0.0
C547 C 0.43514 0.43245 0.9059 0.0
N548 N 0.54265 0.58261 0.91989 0.0
N549 N 0.37348 0.37289 0.94185 0.0
H550 H 0.41878 0.39909 0.85991 0.0
H551 H 0.38356 0.34944 0.88545 0.0
H552 H 0.36146 0.36254 0.96368 0.0
H553 H 0.34339 0.34673 0.92501 0.0
H554 H 0.56227 0.6146 0.93733 0.0
H555 H 0.54682 0.59745 0.89855 0.0
H556 H 0.57794 0.57927 0.97395 0.0
H557 H 0.53812 0.5321 -0.00034 0.0
C558 C 0.95103 0.44951 0.24829 0.0
C559 C 0.97302 0.50628 0.24185 0.0
C560 C -0.00629 0.5375 0.29591 0.0
C561 C 0.97195 0.48076 0.30229 0.0
N562 N 0.9174 0.38208 0.28607 0.0
N563 N 0.0022 0.6022 0.25909 0.0
C564 C 0.94623 0.4365 0.27891 0.0
C565 C -0.00996 0.54962 0.26561 0.0
N566 N 0.93842 0.40861 0.22534 0.0
N567 N 0.02015 0.57985 0.31855 0.0
H568 H -0.00069 0.61196 0.23704 0.0
H569 H 0.01006 0.63451 0.27551 0.0
H570 H 0.02242 0.57255 0.34115 0.0
H571 H 0.04269 0.6222 0.31477 0.0
H572 H 0.92894 0.36789 0.22891 0.0
H573 H 0.94132 0.41628 0.20258 0.0
H574 H 0.89312 0.34822 0.27026 0.0
H575 H 0.91369 0.37136 0.30836 0.0
loop_
_geom_bond_atom_site_label_1
_geom_bond_atom_site_label_2
_geom_bond_distance
_geom_bond_site_symmetry_2
_ccdc_geom_bond_type
Zn0 O6 1.969 . S
Zn0 O7 1.965 . S
Zn0 O11 2.024 . S
Zn0 O16 1.969 . S
Zn1 O8 1.969 . S
Zn1 O14 1.969 . S
Zn1 O15 1.965 . S
Zn1 O17 2.024 . S
C2 O3 1.229 . S
C2 O11 1.058 . S
O3 C2 1.229 . S
C4 O5 1.229 . S
C4 O17 1.058 . S
O5 C4 1.229 . S
O6 Zn0 1.969 . S
O6 C9 1.267 . S
O7 Zn0 1.965 . S
O7 C18 1.260 1_455 S
O8 Zn1 1.969 . S
O8 C18 1.258 . S
C9 O6 1.267 . S
C9 O10 1.228 . S
O10 C9 1.228 . S
O11 Zn0 2.024 . S
O11 C2 1.058 . S
C12 O13 1.228 . S
C12 O14 1.267 . S
O13 C12 1.228 . S
O14 Zn1 1.969 . S
O14 C12 1.267 . S
O15 Zn1 1.965 . S
O15 C19 1.260 1_655 S
O16 Zn0 1.969 . S
O16 C19 1.258 . S
O17 Zn1 2.024 . S
O17 C4 1.058 . S
C18 O7 1.260 1_655 S
C18 O8 1.258 . S
C19 O15 1.260 1_455 S
C19 O16 1.258 . S
Zn20 O26 1.969 . S
Zn20 O27 1.965 . S
Zn20 O31 2.024 . S
Zn20 O36 1.969 . S
Zn21 O28 1.969 . S
Zn21 O34 1.969 . S
Zn21 O35 1.965 . S
Zn21 O37 2.024 . S
C22 O23 1.229 . S
C22 O31 1.058 . S
O23 C22 1.229 . S
C24 O25 1.229 . S
C24 O37 1.058 . S
O25 C24 1.229 . S
O26 Zn20 1.969 . S
O26 C29 1.267 . S
O27 Zn20 1.965 . S
O27 C38 1.260 . S
O28 Zn21 1.969 . S
O28 C38 1.258 1_565 S
C29 O26 1.267 . S
C29 O30 1.228 . S
O30 C29 1.228 . S
O31 Zn20 2.024 . S
O31 C22 1.058 . S
C32 O33 1.228 . S
C32 O34 1.267 . S
O33 C32 1.228 . S
O34 Zn21 1.969 . S
O34 C32 1.267 . S
O35 Zn21 1.965 . S
O35 C39 1.260 1_565 S
O36 Zn20 1.969 . S
O36 C39 1.258 . S
O37 Zn21 2.024 . S
O37 C24 1.058 . S
C38 O27 1.260 . S
C38 O28 1.258 1_545 S
C39 O35 1.260 1_545 S
C39 O36 1.258 . S
Zn40 O46 1.969 . S
Zn40 O47 1.965 . S
Zn40 O51 2.024 . S
Zn40 O56 1.969 . S
Zn41 O48 1.969 . S
Zn41 O54 1.969 . S
Zn41 O55 1.965 . S
Zn41 O57 2.024 . S
C42 O43 1.229 . S
C42 O51 1.058 . S
O43 C42 1.229 . S
C44 O45 1.229 . S
C44 O57 1.058 . S
O45 C44 1.229 . S
O46 Zn40 1.969 . S
O46 C49 1.267 . S
O47 Zn40 1.965 . S
O47 C58 1.260 . S
O48 Zn41 1.969 . S
O48 C58 1.258 . S
C49 O46 1.267 . S
C49 O50 1.228 . S
O50 C49 1.228 . S
O51 Zn40 2.024 . S
O51 C42 1.058 . S
C52 O53 1.228 . S
C52 O54 1.267 . S
O53 C52 1.228 . S
O54 Zn41 1.969 . S
O54 C52 1.267 . S
O55 Zn41 1.965 . S
O55 C59 1.260 . S
O56 Zn40 1.969 . S
O56 C59 1.258 . S
O57 Zn41 2.024 . S
O57 C44 1.058 . S
C58 O47 1.260 . S
C58 O48 1.258 . S
C59 O55 1.260 . S
C59 O56 1.258 . S
P60 O71 1.490 . S
P60 C74 1.812 . S
P60 C80 1.803 1_565 S
P60 C86 1.819 1_565 S
H61 C75 0.941 . S
H62 C76 0.939 . S
H63 C78 0.940 . S
H64 C79 0.940 . S
H65 C81 0.939 . S
H66 C82 0.942 . S
H67 C84 0.940 . S
H68 C85 0.939 . S
H69 C87 0.941 . S
H70 C91 0.939 . S
O71 P60 1.490 . S
H72 C88 0.939 . S
H73 C90 0.940 . S
C74 P60 1.812 . S
C74 C75 1.389 . S
C74 C79 1.391 . S
C75 H61 0.941 . S
C75 C74 1.389 . S
C75 C76 1.397 . S
C76 H62 0.939 . S
C76 C75 1.397 . S
C76 C77 1.378 . S
C77 C76 1.378 . S
C77 C78 1.378 . S
C78 H63 0.940 . S
C78 C77 1.378 . S
C78 C79 1.396 . S
C79 H64 0.940 . S
C79 C74 1.391 . S
C79 C78 1.396 . S
C80 P60 1.803 1_545 S
C80 C81 1.378 . S
C80 C85 1.400 . S
C81 H65 0.939 . S
C81 C80 1.378 . S
C81 C82 1.361 . S
C82 H66 0.942 . S
C82 C81 1.361 . S
C82 C83 1.369 . S
C83 C82 1.369 . S
C83 C84 1.404 . S
C84 H67 0.940 . S
C84 C83 1.404 . S
C84 C85 1.389 . S
C85 H68 0.939 . S
C85 C80 1.400 . S
C85 C84 1.389 . S
C86 P60 1.819 1_545 S
C86 C87 1.391 1_545 S
C86 C91 1.391 . S
C87 H69 0.941 . S
C87 C86 1.391 1_565 S
C87 C88 1.396 . S
C88 H72 0.939 . S
C88 C87 1.396 . S
C88 C89 1.397 1_565 S
C89 C88 1.397 1_545 S
C89 C90 1.385 . S
C90 H73 0.940 . S
C90 C89 1.385 . S
C90 C91 1.388 . S
C91 H70 0.939 . S
C91 C86 1.391 . S
C91 C90 1.388 . S
P92 O103 1.490 . S
P92 C106 1.812 . S
P92 C112 1.803 . S
P92 C118 1.819 . S
H93 C107 0.941 . S
H94 C108 0.939 . S
H95 C110 0.940 . S
H96 C111 0.940 . S
H97 C113 0.939 . S
H98 C114 0.942 . S
H99 C116 0.940 . S
H100 C117 0.939 . S
H101 C119 0.941 . S
H102 C123 0.939 . S
O103 P92 1.490 . S
H104 C120 0.939 . S
H105 C122 0.940 . S
C106 P92 1.812 . S
C106 C107 1.389 . S
C106 C111 1.391 . S
C107 H93 0.941 . S
C107 C106 1.389 . S
C107 C108 1.397 . S
C108 H94 0.939 . S
C108 C107 1.397 . S
C108 C109 1.378 . S
C109 C108 1.378 . S
C109 C110 1.378 . S
C110 H95 0.940 . S
C110 C109 1.378 . S
C110 C111 1.396 . S
C111 H96 0.940 . S
C111 C106 1.391 . S
C111 C110 1.396 . S
C112 P92 1.803 . S
C112 C113 1.378 . S
C112 C117 1.400 . S
C113 H97 0.939 . S
C113 C112 1.378 . S
C113 C114 1.361 . S
C114 H98 0.942 . S
C114 C113 1.361 . S
C114 C115 1.369 . S
C115 C114 1.369 . S
C115 C116 1.404 . S
C116 H99 0.940 . S
C116 C115 1.404 . S
C116 C117 1.389 . S
C117 H100 0.939 . S
C117 C112 1.400 . S
C117 C116 1.389 . S
C118 P92 1.819 . S
C118 C119 1.391 . S
C118 C123 1.391 . S
C119 H101 0.941 . S
C119 C118 1.391 . S
C119 C120 1.396 . S
C120 H104 0.939 . S
C120 C119 1.396 . S
C120 C121 1.397 . S
C121 C120 1.397 . S
C121 C122 1.385 . S
C122 H105 0.940 . S
C122 C121 1.385 . S
C122 C123 1.388 . S
C123 H102 0.939 . S
C123 C118 1.391 . S
C123 C122 1.388 . S
P124 O135 1.490 . S
P124 C138 1.812 . S
P124 C144 1.803 . S
P124 C150 1.819 . S
H125 C139 0.941 . S
H126 C140 0.939 . S
H127 C142 0.940 . S
H128 C143 0.940 . S
H129 C145 0.939 . S
H130 C146 0.942 . S
H131 C148 0.940 . S
H132 C149 0.939 . S
H133 C151 0.941 . S
H134 C155 0.939 1_655 S
O135 P124 1.490 . S
H136 C152 0.939 1_554 S
H137 C154 0.940 . S
C138 P124 1.812 . S
C138 C139 1.389 . S
C138 C143 1.391 . S
C139 H125 0.941 . S
C139 C138 1.389 . S
C139 C140 1.397 . S
C140 H126 0.939 . S
C140 C139 1.397 . S
C140 C141 1.378 . S
C141 C140 1.378 . S
C141 C142 1.378 . S
C142 H127 0.940 . S
C142 C141 1.378 . S
C142 C143 1.396 . S
C143 H128 0.940 . S
C143 C138 1.391 . S
C143 C142 1.396 . S
C144 P124 1.803 . S
C144 C145 1.378 1_455 S
C144 C149 1.400 1_455 S
C145 H129 0.939 . S
C145 C144 1.378 1_655 S
C145 C146 1.361 . S
C146 H130 0.942 . S
C146 C145 1.361 . S
C146 C147 1.369 . S
C147 C146 1.369 . S
C147 C148 1.404 . S
C148 H131 0.940 . S
C148 C147 1.404 . S
C148 C149 1.389 . S
C149 H132 0.939 . S
C149 C144 1.400 1_655 S
C149 C148 1.389 . S
C150 P124 1.819 . S
C150 C151 1.391 . S
C150 C155 1.392 . S
C151 H133 0.941 . S
C151 C150 1.391 . S
C151 C152 1.396 . S
C152 H136 0.939 1_556 S
C152 C151 1.396 . S
C152 C153 1.397 . S
C153 C152 1.397 . S
C153 C154 1.385 1_455 S
C154 H137 0.940 . S
C154 C153 1.385 1_655 S
C154 C155 1.388 1_655 S
C155 H134 0.939 1_455 S
C155 C150 1.392 . S
C155 C154 1.388 1_455 S
P156 O167 1.490 . S
P156 C170 1.812 . S
P156 C176 1.803 1_455 S
P156 C182 1.819 . S
H157 C171 0.941 . S
H158 C172 0.939 . S
H159 C174 0.940 . S
H160 C175 0.940 . S
H161 C177 0.939 . S
H162 C178 0.942 . S
H163 C180 0.940 . S
H164 C181 0.939 . S
H165 C183 0.941 . S
H166 C187 0.939 . S
O167 P156 1.490 . S
H168 C184 0.939 . S
H169 C186 0.940 . S
C170 P156 1.812 . S
C170 C171 1.389 . S
C170 C175 1.391 . S
C171 H157 0.941 . S
C171 C170 1.389 . S
C171 C172 1.397 . S
C172 H158 0.939 . S
C172 C171 1.397 . S
C172 C173 1.378 . S
C173 C172 1.378 . S
C173 C174 1.378 . S
C174 H159 0.940 . S
C174 C173 1.378 . S
C174 C175 1.396 . S
C175 H160 0.940 . S
C175 C170 1.391 . S
C175 C174 1.396 . S
C176 P156 1.803 1_655 S
C176 C177 1.378 . S
C176 C181 1.400 . S
C177 H161 0.939 . S
C177 C176 1.378 . S
C177 C178 1.361 . S
C178 H162 0.942 . S
C178 C177 1.361 . S
C178 C179 1.369 . S
C179 C178 1.369 . S
C179 C180 1.404 . S
C180 H163 0.940 . S
C180 C179 1.404 . S
C180 C181 1.389 . S
C181 H164 0.939 . S
C181 C176 1.400 . S
C181 C180 1.389 . S
C182 P156 1.819 . S
C182 C183 1.391 . S
C182 C187 1.391 1_455 S
C183 H165 0.941 . S
C183 C182 1.391 . S
C183 C184 1.396 . S
C184 H168 0.939 . S
C184 C183 1.396 . S
C184 C185 1.397 . S
C185 C184 1.397 . S
C185 C186 1.385 1_455 S
C186 H169 0.940 . S
C186 C185 1.385 1_655 S
C186 C187 1.388 . S
C187 H166 0.939 . S
C187 C182 1.391 1_655 S
C187 C186 1.388 . S
P188 O199 1.490 . S
P188 C202 1.812 . S
P188 C208 1.803 1_545 S
P188 C214 1.819 . S
H189 C203 0.941 . S
H190 C204 0.939 . S
H191 C206 0.940 . S
H192 C207 0.940 . S
H193 C209 0.939 . S
H194 C210 0.942 . S
H195 C212 0.940 . S
H196 C213 0.939 . S
H197 C215 0.941 . S
H198 C219 0.939 . S
O199 P188 1.490 . S
H200 C216 0.939 . S
H201 C218 0.940 . S
C202 P188 1.812 . S
C202 C203 1.389 . S
C202 C207 1.391 . S
C203 H189 0.941 . S
C203 C202 1.389 . S
C203 C204 1.397 . S
C204 H190 0.939 . S
C204 C203 1.397 . S
C204 C205 1.378 . S
C205 C204 1.378 . S
C205 C206 1.378 . S
C206 H191 0.940 . S
C206 C205 1.378 . S
C206 C207 1.396 . S
C207 H192 0.940 . S
C207 C202 1.391 . S
C207 C206 1.396 . S
C208 P188 1.803 1_565 S
C208 C209 1.378 . S
C208 C213 1.400 . S
C209 H193 0.939 . S
C209 C208 1.378 . S
C209 C210 1.361 . S
C210 H194 0.942 . S
C210 C209 1.361 . S
C210 C211 1.369 . S
C211 C210 1.369 . S
C211 C212 1.404 . S
C212 H195 0.940 . S
C212 C211 1.404 . S
C212 C213 1.389 . S
C213 H196 0.939 . S
C213 C208 1.400 . S
C213 C212 1.389 . S
C214 P188 1.819 . S
C214 C215 1.391 . S
C214 C219 1.391 1_545 S
C215 H197 0.941 . S
C215 C214 1.391 . S
C215 C216 1.396 . S
C216 H200 0.939 . S
C216 C215 1.396 . S
C216 C217 1.397 . S
C217 C216 1.397 . S
C217 C218 1.385 1_545 S
C218 H201 0.940 . S
C218 C217 1.385 1_565 S
C218 C219 1.388 . S
C219 H198 0.939 . S
C219 C214 1.391 1_565 S
C219 C218 1.388 . S
P220 O231 1.490 . S
P220 C234 1.812 . S
P220 C240 1.803 . S
P220 C246 1.819 . S
H221 C235 0.941 . S
H222 C236 0.939 . S
H223 C238 0.940 . S
H224 C239 0.940 . S
H225 C241 0.939 . S
H226 C242 0.942 . S
H227 C244 0.940 . S
H228 C245 0.939 . S
H229 C247 0.941 . S
H230 C251 0.939 . S
O231 P220 1.490 . S
H232 C248 0.939 . S
H233 C250 0.940 . S
C234 P220 1.812 . S
C234 C235 1.389 . S
C234 C239 1.391 . S
C235 H221 0.941 . S
C235 C234 1.389 . S
C235 C236 1.397 . S
C236 H222 0.939 . S
C236 C235 1.397 . S
C236 C237 1.378 . S
C237 C236 1.378 . S
C237 C238 1.378 . S
C238 H223 0.940 . S
C238 C237 1.378 . S
C238 C239 1.396 . S
C239 H224 0.940 . S
C239 C234 1.391 . S
C239 C238 1.396 . S
C240 P220 1.803 . S
C240 C241 1.378 . S
C240 C245 1.400 . S
C241 H225 0.939 . S
C241 C240 1.378 . S
C241 C242 1.361 . S
C242 H226 0.942 . S
C242 C241 1.361 . S
C242 C243 1.369 . S
C243 C242 1.369 . S
C243 C244 1.404 . S
C244 H227 0.940 . S
C244 C243 1.404 . S
C244 C245 1.389 . S
C245 H228 0.939 . S
C245 C240 1.400 . S
C245 C244 1.389 . S
C246 P220 1.819 . S
C246 C247 1.391 . S
C246 C251 1.391 . S
C247 H229 0.941 . S
C247 C246 1.391 . S
C247 C248 1.396 . S
C248 H232 0.939 . S
C248 C247 1.396 . S
C248 C249 1.397 . S
C249 C248 1.397 . S
C249 C250 1.385 . S
C250 H233 0.940 . S
C250 C249 1.385 . S
C250 C251 1.388 . S
C251 H230 0.939 . S
C251 C246 1.391 . S
C251 C250 1.388 . S
C252 C253 1.363 . S
C252 C258 1.379 . S
C252 N260 1.356 . S
C253 C252 1.363 . S
C253 C259 1.363 . S
C254 C255 1.363 . S
C254 C259 1.379 . S
C254 N261 1.356 . S
C255 C254 1.363 . S
C255 C258 1.363 . S
N256 C258 1.356 . S
N256 H268 0.984 . S
N256 H269 0.985 . S
N257 C259 1.356 . S
N257 H262 0.984 . S
N257 H263 0.985 . S
C258 C252 1.379 . S
C258 C255 1.363 . S
C258 N256 1.356 . S
C259 C253 1.363 . S
C259 C254 1.379 . S
C259 N257 1.356 . S
N260 C252 1.356 . S
N260 H266 0.984 . S
N260 H267 0.984 . S
N261 C254 1.356 . S
N261 H264 0.984 . S
N261 H265 0.985 . S
H262 N257 0.984 . S
H263 N257 0.985 . S
H264 N261 0.984 . S
H265 N261 0.985 . S
H266 N260 0.984 . S
H267 N260 0.984 . S
H268 N256 0.984 . S
H269 N256 0.985 . S
C270 C271 1.363 . S
C270 C276 1.379 . S
C270 N278 1.356 . S
C271 C270 1.363 . S
C271 C277 1.363 . S
C272 C273 1.363 . S
C272 C277 1.379 . S
C272 N279 1.356 . S
C273 C272 1.363 . S
C273 C276 1.363 . S
N274 C276 1.356 . S
N274 H286 0.984 . S
N274 H287 0.985 . S
N275 C277 1.356 . S
N275 H280 0.984 . S
N275 H281 0.985 . S
C276 C270 1.379 . S
C276 C273 1.363 . S
C276 N274 1.356 . S
C277 C271 1.363 . S
C277 C272 1.379 . S
C277 N275 1.356 . S
N278 C270 1.356 . S
N278 H284 0.984 . S
N278 H285 0.984 . S
N279 C272 1.356 . S
N279 H282 0.984 . S
N279 H283 0.985 . S
H280 N275 0.984 . S
H281 N275 0.985 . S
H282 N279 0.984 . S
H283 N279 0.985 . S
H284 N278 0.984 . S
H285 N278 0.984 . S
H286 N274 0.984 . S
H287 N274 0.985 . S
C288 C289 1.363 . S
C288 C294 1.379 . S
C288 N296 1.356 . S
C289 C288 1.363 . S
C289 C295 1.363 . S
C290 C291 1.363 . S
C290 C295 1.379 . S
C290 N297 1.356 . S
C291 C290 1.363 . S
C291 C294 1.363 . S
N292 C294 1.356 . S
N292 H304 0.984 . S
N292 H305 0.985 . S
N293 C295 1.356 . S
N293 H298 0.984 . S
N293 H299 0.985 . S
C294 C288 1.379 . S
C294 C291 1.363 . S
C294 N292 1.356 . S
C295 C289 1.363 . S
C295 C290 1.379 . S
C295 N293 1.356 . S
N296 C288 1.356 . S
N296 H302 0.984 . S
N296 H303 0.984 . S
N297 C290 1.356 . S
N297 H300 0.984 . S
N297 H301 0.985 . S
H298 N293 0.984 . S
H299 N293 0.985 . S
H300 N297 0.984 . S
H301 N297 0.985 . S
H302 N296 0.984 . S
H303 N296 0.984 . S
H304 N292 0.984 . S
H305 N292 0.985 . S
C306 C307 1.363 . S
C306 C312 1.379 . S
C306 N314 1.356 . S
C307 C306 1.363 . S
C307 C313 1.363 . S
C308 C309 1.363 . S
C308 C313 1.379 . S
C308 N315 1.356 . S
C309 C308 1.363 . S
C309 C312 1.363 . S
N310 C312 1.356 . S
N310 H322 0.984 . S
N310 H323 0.985 . S
N311 C313 1.356 . S
N311 H316 0.984 . S
N311 H317 0.985 . S
C312 C306 1.379 . S
C312 C309 1.363 . S
C312 N310 1.356 . S
C313 C307 1.363 . S
C313 C308 1.379 . S
C313 N311 1.356 . S
N314 C306 1.356 . S
N314 H320 0.984 . S
N314 H321 0.984 . S
N315 C308 1.356 . S
N315 H318 0.984 . S
N315 H319 0.985 . S
H316 N311 0.984 . S
H317 N311 0.985 . S
H318 N315 0.984 . S
H319 N315 0.985 . S
H320 N314 0.984 . S
H321 N314 0.984 . S
H322 N310 0.984 . S
H323 N310 0.985 . S
C324 C325 1.363 . S
C324 C330 1.379 . S
C324 N332 1.356 . S
C325 C324 1.363 . S
C325 C331 1.363 . S
C326 C327 1.363 . S
C326 C331 1.379 . S
C326 N333 1.356 . S
C327 C326 1.363 . S
C327 C330 1.363 . S
N328 C330 1.356 . S
N328 H340 0.984 . S
N328 H341 0.985 . S
N329 C331 1.356 . S
N329 H334 0.984 . S
N329 H335 0.985 . S
C330 C324 1.379 . S
C330 C327 1.363 . S
C330 N328 1.356 . S
C331 C325 1.363 . S
C331 C326 1.379 . S
C331 N329 1.356 . S
N332 C324 1.356 . S
N332 H338 0.984 . S
N332 H339 0.984 . S
N333 C326 1.356 . S
N333 H336 0.984 . S
N333 H337 0.985 . S
H334 N329 0.984 . S
H335 N329 0.985 . S
H336 N333 0.984 . S
H337 N333 0.985 . S
H338 N332 0.984 . S
H339 N332 0.984 . S
H340 N328 0.984 . S
H341 N328 0.985 . S
C342 C343 1.363 . S
C342 C348 1.379 . S
C342 N350 1.356 . S
C343 C342 1.363 . S
C343 C349 1.363 . S
C344 C345 1.363 . S
C344 C349 1.379 . S
C344 N351 1.356 . S
C345 C344 1.363 . S
C345 C348 1.363 . S
N346 C348 1.356 . S
N346 H358 0.984 . S
N346 H359 0.985 . S
N347 C349 1.356 . S
N347 H352 0.984 . S
N347 H353 0.985 . S
C348 C342 1.379 . S
C348 C345 1.363 . S
C348 N346 1.356 . S
C349 C343 1.363 . S
C349 C344 1.379 . S
C349 N347 1.356 . S
N350 C342 1.356 . S
N350 H356 0.984 . S
N350 H357 0.984 . S
N351 C344 1.356 . S
N351 H354 0.984 . S
N351 H355 0.985 . S
H352 N347 0.984 . S
H353 N347 0.985 . S
H354 N351 0.984 . S
H355 N351 0.985 . S
H356 N350 0.984 . S
H357 N350 0.984 . S
H358 N346 0.984 . S
H359 N346 0.985 . S
C360 C361 1.363 . S
C360 C366 1.379 . S
C360 N368 1.356 . S
C361 C360 1.363 . S
C361 C367 1.363 . S
C362 C363 1.363 . S
C362 C367 1.379 . S
C362 N369 1.356 . S
C363 C362 1.363 . S
C363 C366 1.363 . S
N364 C366 1.356 . S
N364 H376 0.984 . S
N364 H377 0.985 . S
N365 C367 1.356 . S
N365 H370 0.984 . S
N365 H371 0.985 . S
C366 C360 1.379 . S
C366 C363 1.363 . S
C366 N364 1.356 . S
C367 C361 1.363 . S
C367 C362 1.379 . S
C367 N365 1.356 . S
N368 C360 1.356 . S
N368 H374 0.984 . S
N368 H375 0.984 . S
N369 C362 1.356 . S
N369 H372 0.984 . S
N369 H373 0.985 . S
H370 N365 0.984 . S
H371 N365 0.985 . S
H372 N369 0.984 . S
H373 N369 0.985 . S
H374 N368 0.984 . S
H375 N368 0.984 . S
H376 N364 0.984 . S
H377 N364 0.985 . S
C378 C379 1.363 . S
C378 C384 1.379 . S
C378 N386 1.356 . S
C379 C378 1.363 . S
C379 C385 1.363 . S
C380 C381 1.363 . S
C380 C385 1.379 . S
C380 N387 1.356 . S
C381 C380 1.363 . S
C381 C384 1.363 . S
N382 C384 1.356 . S
N382 H394 0.984 . S
N382 H395 0.985 . S
N383 C385 1.356 . S
N383 H388 0.984 . S
N383 H389 0.985 . S
C384 C378 1.379 . S
C384 C381 1.363 . S
C384 N382 1.356 . S
C385 C379 1.363 . S
C385 C380 1.379 . S
C385 N383 1.356 . S
N386 C378 1.356 . S
N386 H392 0.984 . S
N386 H393 0.984 . S
N387 C380 1.356 . S
N387 H390 0.984 . S
N387 H391 0.985 . S
H388 N383 0.984 . S
H389 N383 0.985 . S
H390 N387 0.984 . S
H391 N387 0.985 . S
H392 N386 0.984 . S
H393 N386 0.984 . S
H394 N382 0.984 . S
H395 N382 0.985 . S
C396 C397 1.363 . S
C396 C402 1.379 . S
C396 N404 1.356 . S
C397 C396 1.363 . S
C397 C403 1.363 . S
C398 C399 1.363 . S
C398 C403 1.379 . S
C398 N405 1.356 . S
C399 C398 1.363 . S
C399 C402 1.363 . S
N400 C402 1.356 . S
N400 H412 0.984 . S
N400 H413 0.985 . S
N401 C403 1.356 . S
N401 H406 0.984 . S
N401 H407 0.985 . S
C402 C396 1.379 . S
C402 C399 1.363 . S
C402 N400 1.356 . S
C403 C397 1.363 . S
C403 C398 1.379 . S
C403 N401 1.356 . S
N404 C396 1.356 . S
N404 H410 0.984 . S
N404 H411 0.984 . S
N405 C398 1.356 . S
N405 H408 0.984 . S
N405 H409 0.985 . S
H406 N401 0.984 . S
H407 N401 0.985 . S
H408 N405 0.984 . S
H409 N405 0.985 . S
H410 N404 0.984 . S
H411 N404 0.984 . S
H412 N400 0.984 . S
H413 N400 0.985 . S
C414 C415 1.363 . S
C414 C420 1.379 . S
C414 N422 1.356 . S
C415 C414 1.363 . S
C415 C421 1.363 . S
C416 C417 1.363 . S
C416 C421 1.379 . S
C416 N423 1.356 . S
C417 C416 1.363 . S
C417 C420 1.363 . S
N418 C420 1.356 . S
N418 H430 0.984 . S
N418 H431 0.985 . S
N419 C421 1.356 . S
N419 H424 0.984 . S
N419 H425 0.985 . S
C420 C414 1.379 . S
C420 C417 1.363 . S
C420 N418 1.356 . S
C421 C415 1.363 . S
C421 C416 1.379 . S
C421 N419 1.356 . S
N422 C414 1.356 . S
N422 H428 0.984 . S
N422 H429 0.984 . S
N423 C416 1.356 . S
N423 H426 0.984 . S
N423 H427 0.985 . S
H424 N419 0.984 . S
H425 N419 0.985 . S
H426 N423 0.984 . S
H427 N423 0.985 . S
H428 N422 0.984 . S
H429 N422 0.984 . S
H430 N418 0.984 . S
H431 N418 0.985 . S
C432 C433 1.363 . S
C432 C438 1.379 . S
C432 N440 1.356 . S
C433 C432 1.363 . S
C433 C439 1.363 . S
C434 C435 1.363 . S
C434 C439 1.379 . S
C434 N441 1.356 . S
C435 C434 1.363 . S
C435 C438 1.363 . S
N436 C438 1.356 . S
N436 H448 0.984 . S
N436 H449 0.985 . S
N437 C439 1.356 . S
N437 H442 0.984 . S
N437 H443 0.985 . S
C438 C432 1.379 . S
C438 C435 1.363 . S
C438 N436 1.356 . S
C439 C433 1.363 . S
C439 C434 1.379 . S
C439 N437 1.356 . S
N440 C432 1.356 . S
N440 H446 0.984 . S
N440 H447 0.984 . S
N441 C434 1.356 . S
N441 H444 0.984 . S
N441 H445 0.985 . S
H442 N437 0.984 . S
H443 N437 0.985 . S
H444 N441 0.984 . S
H445 N441 0.985 . S
H446 N440 0.984 . S
H447 N440 0.984 . S
H448 N436 0.984 . S
H449 N436 0.985 . S
C450 C451 1.363 . S
C450 C456 1.379 . S
C450 N458 1.356 . S
C451 C450 1.363 . S
C451 C457 1.363 . S
C452 C453 1.363 . S
C452 C457 1.379 . S
C452 N459 1.356 . S
C453 C452 1.363 . S
C453 C456 1.363 . S
N454 C456 1.356 . S
N454 H466 0.984 . S
N454 H467 0.985 . S
N455 C457 1.356 . S
N455 H460 0.984 . S
N455 H461 0.985 . S
C456 C450 1.379 . S
C456 C453 1.363 . S
C456 N454 1.356 . S
C457 C451 1.363 . S
C457 C452 1.379 . S
C457 N455 1.356 . S
N458 C450 1.356 . S
N458 H464 0.984 . S
N458 H465 0.984 . S
N459 C452 1.356 . S
N459 H462 0.984 . S
N459 H463 0.985 . S
H460 N455 0.984 . S
H461 N455 0.985 . S
H462 N459 0.984 . S
H463 N459 0.985 . S
H464 N458 0.984 . S
H465 N458 0.984 . S
H466 N454 0.984 . S
H467 N454 0.985 . S
C468 C469 1.363 . S
C468 C474 1.379 . S
C468 N476 1.356 . S
C469 C468 1.363 . S
C469 C475 1.363 . S
C470 C471 1.363 . S
C470 C475 1.379 . S
C470 N477 1.356 . S
C471 C470 1.363 . S
C471 C474 1.363 . S
N472 C474 1.356 . S
N472 H484 0.984 . S
N472 H485 0.985 1_554 S
N473 C475 1.356 . S
N473 H478 0.984 . S
N473 H479 0.985 . S
C474 C468 1.379 . S
C474 C471 1.363 . S
C474 N472 1.356 . S
C475 C469 1.363 . S
C475 C470 1.379 . S
C475 N473 1.356 . S
N476 C468 1.356 . S
N476 H482 0.984 . S
N476 H483 0.984 . S
N477 C470 1.356 . S
N477 H480 1.000 . S
N477 H481 0.985 . S
H478 N473 0.984 . S
H479 N473 0.985 . S
H480 N477 1.000 . S
H481 N477 0.985 . S
H482 N476 0.984 . S
H483 N476 0.984 . S
H484 N472 0.984 . S
H485 N472 0.985 1_556 S
C486 C487 1.363 1_565 S
C486 C492 1.379 . S
C486 N494 1.356 . S
C487 C486 1.363 1_545 S
C487 C493 1.363 . S
C488 C489 1.363 . S
C488 C493 1.379 . S
C488 N495 1.356 . S
C489 C488 1.363 . S
C489 C492 1.363 1_545 S
N490 C492 1.356 . S
N490 H502 0.984 . S
N490 H503 0.985 . S
N491 C493 1.356 . S
N491 H496 0.984 . S
N491 H497 0.985 . S
C492 C486 1.379 . S
C492 C489 1.363 1_565 S
C492 N490 1.356 . S
C493 C487 1.363 . S
C493 C488 1.379 . S
C493 N491 1.356 . S
N494 C486 1.356 . S
N494 H500 0.984 . S
N494 H501 0.984 . S
N495 C488 1.356 . S
N495 H498 0.984 . S
N495 H499 0.985 . S
H496 N491 0.984 . S
H497 N491 0.985 . S
H498 N495 0.984 . S
H499 N495 0.985 . S
H500 N494 0.984 . S
H501 N494 0.984 . S
H502 N490 0.984 . S
H503 N490 0.985 . S
C504 C505 1.363 . S
C504 C510 1.379 . S
C504 N512 1.356 . S
C505 C504 1.363 . S
C505 C511 1.363 . S
C506 C507 1.363 . S
C506 C511 1.379 . S
C506 N513 1.356 . S
C507 C506 1.363 . S
C507 C510 1.363 . S
N508 C510 1.356 . S
N508 H520 0.984 . S
N508 H521 0.985 . S
N509 C511 1.356 . S
N509 H514 0.984 . S
N509 H515 0.985 . S
C510 C504 1.379 . S
C510 C507 1.363 . S
C510 N508 1.356 . S
C511 C505 1.363 . S
C511 C506 1.379 . S
C511 N509 1.356 . S
N512 C504 1.356 . S
N512 H518 0.984 . S
N512 H519 0.984 . S
N513 C506 1.356 . S
N513 H516 0.984 . S
N513 H517 0.985 . S
H514 N509 0.984 . S
H515 N509 0.985 . S
H516 N513 0.984 . S
H517 N513 0.985 . S
H518 N512 0.984 . S
H519 N512 0.984 . S
H520 N508 0.984 . S
H521 N508 0.985 . S
C522 C523 1.363 1_565 S
C522 C528 1.379 . S
C522 N530 1.356 . S
C523 C522 1.363 1_545 S
C523 C529 1.363 . S
C524 C525 1.363 . S
C524 C529 1.379 . S
C524 N531 1.356 . S
C525 C524 1.363 . S
C525 C528 1.363 1_545 S
N526 C528 1.356 . S
N526 H538 0.984 . S
N526 H539 0.985 . S
N527 C529 1.356 . S
N527 H532 0.984 . S
N527 H533 0.985 . S
C528 C522 1.379 . S
C528 C525 1.363 1_565 S
C528 N526 1.356 . S
C529 C523 1.363 . S
C529 C524 1.379 . S
C529 N527 1.356 . S
N530 C522 1.356 . S
N530 H536 0.984 . S
N530 H537 0.984 . S
N531 C524 1.356 . S
N531 H534 0.984 . S
N531 H535 0.985 . S
H532 N527 0.984 . S
H533 N527 0.985 . S
H534 N531 0.984 . S
H535 N531 0.985 . S
H536 N530 0.984 . S
H537 N530 0.984 . S
H538 N526 0.984 . S
H539 N526 0.985 . S
C540 C541 1.363 . S
C540 C546 1.379 . S
C540 N548 1.356 . S
C541 C540 1.363 . S
C541 C547 1.363 . S
C542 C543 1.363 . S
C542 C547 1.379 . S
C542 N549 1.356 . S
C543 C542 1.363 . S
C543 C546 1.363 . S
N544 C546 1.356 . S
N544 H556 0.984 . S
N544 H557 0.985 1_556 S
N545 C547 1.356 . S
N545 H550 0.984 . S
N545 H551 0.985 . S
C546 C540 1.379 . S
C546 C543 1.363 . S
C546 N544 1.356 . S
C547 C541 1.363 . S
C547 C542 1.379 . S
C547 N545 1.356 . S
N548 C540 1.356 . S
N548 H554 0.984 . S
N548 H555 0.984 . S
N549 C542 1.356 . S
N549 H552 0.995 . S
N549 H553 0.985 . S
H550 N545 0.984 . S
H551 N545 0.985 . S
H552 N549 0.995 . S
H553 N549 0.985 . S
H554 N548 0.984 . S
H555 N548 0.984 . S
H556 N544 0.984 . S
H557 N544 0.985 1_554 S
C558 C559 1.363 . S
C558 C564 1.379 . S
C558 N566 1.356 . S
C559 C558 1.363 . S
C559 C565 1.363 1_655 S
C560 C561 1.363 . S
C560 C565 1.379 . S
C560 N567 1.356 . S
C561 C560 1.363 . S
C561 C564 1.363 1_455 S
N562 C564 1.356 . S
N562 H574 0.984 . S
N562 H575 0.985 . S
N563 C565 1.356 . S
N563 H568 0.984 . S
N563 H569 0.985 . S
C564 C558 1.379 . S
C564 C561 1.363 1_655 S
C564 N562 1.356 . S
C565 C559 1.363 1_455 S
C565 C560 1.379 . S
C565 N563 1.356 . S
N566 C558 1.356 . S
N566 H572 0.984 . S
N566 H573 0.984 . S
N567 C560 1.356 . S
N567 H570 0.984 . S
N567 H571 0.985 . S
H568 N563 0.984 . S
H569 N563 0.985 . S
H570 N567 0.984 . S
H571 N567 0.985 . S
H572 N566 0.984 . S
H573 N566 0.984 . S
H574 N562 0.984 . S
H575 N562 0.985 . S
C253 C2 1.417 . S
C255 C243 1.469 . S
C271 C22 1.426 . S
C273 C179 1.490 . S
C289 C44 1.464 . S
C291 C211 1.519 . S
C307 C4 1.572 . S
C309 C237 1.646 . S
C327 C173 1.632 . S
C325 C24 1.580 . S
C345 C205 1.601 . S
C343 C42 1.519 . S
C361 C32 1.381 . S
C363 C115 1.373 . S
C379 C49 1.326 . S
C381 C147 1.320 . S
C397 C9 1.309 . S
C399 C77 1.303 . S
C417 C109 1.351 . S
C415 C29 1.281 . S
C435 C141 1.374 . S
C433 C52 1.307 . S
C451 C12 1.304 . S
C453 C83 1.312 . S
C471 C153 1.430 1_554 S
C469 C18 1.448 1_455 S
C487 C38 1.429 . S
C489 C89 1.402 . S
C505 C58 1.426 . S
C507 C121 1.437 . S
C525 C217 1.475 . S
C523 C39 1.496 . S
C543 C249 1.472 1_556 S
C541 C59 1.476 . S
C559 C19 1.478 1_655 S
C561 C185 1.474 . S
