# Generated by pormake.
# Topology ptr, (4,4)-cn, num edge types: 1
# Building blocks:
#     Node 0, Type 0, BuildingBlock: CEKHIL_clean_sbu_0, # of connection points: 4
#     Node 1, Type 0, BuildingBlock: CEKHIL_clean_sbu_0, # of connection points: 4
#     Node 2, Type 0, BuildingBlock: CEKHIL_clean_sbu_0, # of connection points: 4
#     Node 3, Type 0, BuildingBlock: CEKHIL_clean_sbu_0, # of connection points: 4
#     Node 4, Type 0, BuildingBlock: CEKHIL_clean_sbu_0, # of connection points: 4
#     Node 5, Type 0, BuildingBlock: CEKHIL_clean_sbu_0, # of connection points: 4
#     Node 6, Type 0, BuildingBlock: CEKHIL_clean_sbu_0, # of connection points: 4
#     Node 7, Type 0, BuildingBlock: CEKHIL_clean_sbu_0, # of connection points: 4
#     Node 8, Type 0, BuildingBlock: CEKHIL_clean_sbu_0, # of connection points: 4
#     Node 9, Type 0, BuildingBlock: CEKHIL_clean_sbu_0, # of connection points: 4
#     Node 10, Type 0, BuildingBlock: CEKHIL_clean_sbu_0, # of connection points: 4
#     Node 11, Type 0, BuildingBlock: CEKHIL_clean_sbu_0, # of connection points: 4
#     Node 12, Type 0, BuildingBlock: CEKHIL_clean_sbu_0, # of connection points: 4
#     Node 13, Type 0, BuildingBlock: CEKHIL_clean_sbu_0, # of connection points: 4
#     Node 14, Type 0, BuildingBlock: CEKHIL_clean_sbu_0, # of connection points: 4
#     Node 15, Type 0, BuildingBlock: CEKHIL_clean_sbu_0, # of connection points: 4
#     Node 16, Type 0, BuildingBlock: CEKHIL_clean_sbu_0, # of connection points: 4
#     Node 17, Type 0, BuildingBlock: CEKHIL_clean_sbu_0, # of connection points: 4
#     Node 18, Type 1, BuildingBlock: AZAVOO_clean_linker_0, # of connection points: 4
#     Node 19, Type 1, BuildingBlock: AZAVOO_clean_linker_0, # of connection points: 4
#     Node 20, Type 1, BuildingBlock: AZAVOO_clean_linker_0, # of connection points: 4
#     Node 21, Type 1, BuildingBlock: AZAVOO_clean_linker_0, # of connection points: 4
#     Node 22, Type 1, BuildingBlock: AZAVOO_clean_linker_0, # of connection points: 4
#     Node 23, Type 1, BuildingBlock: AZAVOO_clean_linker_0, # of connection points: 4
#     Node 24, Type 1, BuildingBlock: AZAVOO_clean_linker_0, # of connection points: 4
#     Node 25, Type 1, BuildingBlock: AZAVOO_clean_linker_0, # of connection points: 4
#     Node 26, Type 1, BuildingBlock: AZAVOO_clean_linker_0, # of connection points: 4
#     Node 27, Type 1, BuildingBlock: AZAVOO_clean_linker_0, # of connection points: 4
#     Node 28, Type 1, BuildingBlock: AZAVOO_clean_linker_0, # of connection points: 4
#     Node 29, Type 1, BuildingBlock: AZAVOO_clean_linker_0, # of connection points: 4
#     Node 30, Type 1, BuildingBlock: AZAVOO_clean_linker_0, # of connection points: 4
#     Node 31, Type 1, BuildingBlock: AZAVOO_clean_linker_0, # of connection points: 4
#     Node 32, Type 1, BuildingBlock: AZAVOO_clean_linker_0, # of connection points: 4
#     Node 33, Type 1, BuildingBlock: AZAVOO_clean_linker_0, # of connection points: 4
#     Node 34, Type 1, BuildingBlock: AZAVOO_clean_linker_0, # of connection points: 4
#     Node 35, Type 1, BuildingBlock: AZAVOO_clean_linker_0, # of connection points: 4
#     Edge 36, Type (0, 1), BuildingBlock: XUDNAN_clean_linker_2, # of connection points: 2
#     Edge 37, Type (0, 1), BuildingBlock: XUDNAN_clean_linker_2, # of connection points: 2
#     Edge 38, Type (0, 1), BuildingBlock: XUDNAN_clean_linker_2, # of connection points: 2
#     Edge 39, Type (0, 1), BuildingBlock: XUDNAN_clean_linker_2, # of connection points: 2
#     Edge 40, Type (0, 1), BuildingBlock: XUDNAN_clean_linker_2, # of connection points: 2
#     Edge 41, Type (0, 1), BuildingBlock: XUDNAN_clean_linker_2, # of connection points: 2
#     Edge 42, Type (0, 1), BuildingBlock: XUDNAN_clean_linker_2, # of connection points: 2
#     Edge 43, Type (0, 1), BuildingBlock: XUDNAN_clean_linker_2, # of connection points: 2
#     Edge 44, Type (0, 1), BuildingBlock: XUDNAN_clean_linker_2, # of connection points: 2
#     Edge 45, Type (0, 1), BuildingBlock: XUDNAN_clean_linker_2, # of connection points: 2
#     Edge 46, Type (0, 1), BuildingBlock: XUDNAN_clean_linker_2, # of connection points: 2
#     Edge 47, Type (0, 1), BuildingBlock: XUDNAN_clean_linker_2, # of connection points: 2
#     Edge 48, Type (0, 1), BuildingBlock: XUDNAN_clean_linker_2, # of connection points: 2
#     Edge 49, Type (0, 1), BuildingBlock: XUDNAN_clean_linker_2, # of connection points: 2
#     Edge 50, Type (0, 1), BuildingBlock: XUDNAN_clean_linker_2, # of connection points: 2
#     Edge 51, Type (0, 1), BuildingBlock: XUDNAN_clean_linker_2, # of connection points: 2
#     Edge 52, Type (0, 1), BuildingBlock: XUDNAN_clean_linker_2, # of connection points: 2
#     Edge 53, Type (0, 1), BuildingBlock: XUDNAN_clean_linker_2, # of connection points: 2
#     Edge 54, Type (0, 1), BuildingBlock: XUDNAN_clean_linker_2, # of connection points: 2
#     Edge 55, Type (0, 1), BuildingBlock: XUDNAN_clean_linker_2, # of connection points: 2
#     Edge 56, Type (0, 1), BuildingBlock: XUDNAN_clean_linker_2, # of connection points: 2
#     Edge 57, Type (0, 1), BuildingBlock: XUDNAN_clean_linker_2, # of connection points: 2
#     Edge 58, Type (0, 1), BuildingBlock: XUDNAN_clean_linker_2, # of connection points: 2
#     Edge 59, Type (0, 1), BuildingBlock: XUDNAN_clean_linker_2, # of connection points: 2
#     Edge 60, Type (0, 1), BuildingBlock: XUDNAN_clean_linker_2, # of connection points: 2
#     Edge 61, Type (0, 1), BuildingBlock: XUDNAN_clean_linker_2, # of connection points: 2
#     Edge 62, Type (0, 1), BuildingBlock: XUDNAN_clean_linker_2, # of connection points: 2
#     Edge 63, Type (0, 1), BuildingBlock: XUDNAN_clean_linker_2, # of connection points: 2
#     Edge 64, Type (0, 1), BuildingBlock: XUDNAN_clean_linker_2, # of connection points: 2
#     Edge 65, Type (0, 1), BuildingBlock: XUDNAN_clean_linker_2, # of connection points: 2
#     Edge 66, Type (0, 1), BuildingBlock: XUDNAN_clean_linker_2, # of connection points: 2
#     Edge 67, Type (0, 1), BuildingBlock: XUDNAN_clean_linker_2, # of connection points: 2
#     Edge 68, Type (0, 1), BuildingBlock: XUDNAN_clean_linker_2, # of connection points: 2
#     Edge 69, Type (0, 1), BuildingBlock: XUDNAN_clean_linker_2, # of connection points: 2
#     Edge 70, Type (0, 1), BuildingBlock: XUDNAN_clean_linker_2, # of connection points: 2
#     Edge 71, Type (0, 1), BuildingBlock: XUDNAN_clean_linker_2, # of connection points: 2
#     Edge 72, Type (0, 1), BuildingBlock: XUDNAN_clean_linker_2, # of connection points: 2
#     Edge 73, Type (0, 1), BuildingBlock: XUDNAN_clean_linker_2, # of connection points: 2
#     Edge 74, Type (0, 1), BuildingBlock: XUDNAN_clean_linker_2, # of connection points: 2
#     Edge 75, Type (0, 1), BuildingBlock: XUDNAN_clean_linker_2, # of connection points: 2
#     Edge 76, Type (0, 1), BuildingBlock: XUDNAN_clean_linker_2, # of connection points: 2
#     Edge 77, Type (0, 1), BuildingBlock: XUDNAN_clean_linker_2, # of connection points: 2
#     Edge 78, Type (0, 1), BuildingBlock: XUDNAN_clean_linker_2, # of connection points: 2
#     Edge 79, Type (0, 1), BuildingBlock: XUDNAN_clean_linker_2, # of connection points: 2
#     Edge 80, Type (0, 1), BuildingBlock: XUDNAN_clean_linker_2, # of connection points: 2
#     Edge 81, Type (0, 1), BuildingBlock: XUDNAN_clean_linker_2, # of connection points: 2
#     Edge 82, Type (0, 1), BuildingBlock: XUDNAN_clean_linker_2, # of connection points: 2
#     Edge 83, Type (0, 1), BuildingBlock: XUDNAN_clean_linker_2, # of connection points: 2
#     Edge 84, Type (0, 1), BuildingBlock: XUDNAN_clean_linker_2, # of connection points: 2
#     Edge 85, Type (0, 1), BuildingBlock: XUDNAN_clean_linker_2, # of connection points: 2
#     Edge 86, Type (0, 1), BuildingBlock: XUDNAN_clean_linker_2, # of connection points: 2
#     Edge 87, Type (0, 1), BuildingBlock: XUDNAN_clean_linker_2, # of connection points: 2
#     Edge 88, Type (0, 1), BuildingBlock: XUDNAN_clean_linker_2, # of connection points: 2
#     Edge 89, Type (0, 1), BuildingBlock: XUDNAN_clean_linker_2, # of connection points: 2
#     Edge 90, Type (0, 1), BuildingBlock: XUDNAN_clean_linker_2, # of connection points: 2
#     Edge 91, Type (0, 1), BuildingBlock: XUDNAN_clean_linker_2, # of connection points: 2
#     Edge 92, Type (0, 1), BuildingBlock: XUDNAN_clean_linker_2, # of connection points: 2
#     Edge 93, Type (0, 1), BuildingBlock: XUDNAN_clean_linker_2, # of connection points: 2
#     Edge 94, Type (0, 1), BuildingBlock: XUDNAN_clean_linker_2, # of connection points: 2
#     Edge 95, Type (0, 1), BuildingBlock: XUDNAN_clean_linker_2, # of connection points: 2
#     Edge 96, Type (0, 1), BuildingBlock: XUDNAN_clean_linker_2, # of connection points: 2
#     Edge 97, Type (0, 1), BuildingBlock: XUDNAN_clean_linker_2, # of connection points: 2
#     Edge 98, Type (0, 1), BuildingBlock: XUDNAN_clean_linker_2, # of connection points: 2
#     Edge 99, Type (0, 1), BuildingBlock: XUDNAN_clean_linker_2, # of connection points: 2
#     Edge 100, Type (0, 1), BuildingBlock: XUDNAN_clean_linker_2, # of connection points: 2
#     Edge 101, Type (0, 1), BuildingBlock: XUDNAN_clean_linker_2, # of connection points: 2
#     Edge 102, Type (0, 1), BuildingBlock: XUDNAN_clean_linker_2, # of connection points: 2
#     Edge 103, Type (0, 1), BuildingBlock: XUDNAN_clean_linker_2, # of connection points: 2
#     Edge 104, Type (0, 1), BuildingBlock: XUDNAN_clean_linker_2, # of connection points: 2
#     Edge 105, Type (0, 1), BuildingBlock: XUDNAN_clean_linker_2, # of connection points: 2
#     Edge 106, Type (0, 1), BuildingBlock: XUDNAN_clean_linker_2, # of connection points: 2
#     Edge 107, Type (0, 1), BuildingBlock: XUDNAN_clean_linker_2, # of connection points: 2
# Relax obj value: 0.051
# Max RMSD: 0.177
# Mean RMSD: 0.117
data_MOF--net-ptr--node1-CEKHIL_clean_sbu_0--node2-AZAVOO_clean_linker_0--edge1-XUDNAN_clean_linker_2
_symmetry_space_group_name_H-M    P1
_symmetry_Int_Tables_number       1
_symmetry_cell_setting            triclinic
loop_
_symmetry_equiv_pos_as_xyz
'x, y, z'
_cell_length_a     82.470838
_cell_length_b     79.989539
_cell_length_c     69.379076
_cell_angle_alpha  93.621384
_cell_angle_beta   91.769244
_cell_angle_gamma 121.23612
loop_
_atom_site_label
_atom_site_type_symbol
_atom_site_fract_x
_atom_site_fract_y
_atom_site_fract_z
_atom_type_partial_charge
Co0 Co 0.0116 0.3514 0.0192 0.0
O1 O 0.01296 0.33997 0.04209 0.0
O2 O 0.03796 0.36399 0.02969 0.0
C3 C 0.99198 0.32283 0.00128 0.0
O4 O 0.01476 0.36634 0.9954 0.0
Co5 Co 0.97195 0.34427 0.00575 0.0
O6 O 0.98533 0.35621 0.98249 0.0
C7 C 0.99467 0.37401 0.03795 0.0
C8 C 0.03117 0.35208 0.04327 0.0
C9 C 0.00339 0.36613 0.98204 0.0
O10 O 0.00851 0.37133 0.03503 0.0
O11 O 0.97816 0.36349 0.02904 0.0
O12 O 0.01017 0.32985 0.00286 0.0
O13 O 0.98619 0.33213 0.01214 0.0
Co14 Co 0.64261 0.63907 0.06056 0.0
O15 O 0.66053 0.65741 0.04443 0.0
O16 O 0.65625 0.62808 0.04803 0.0
C17 C 0.65084 0.66168 0.08587 0.0
O18 O 0.62601 0.6169 0.07705 0.0
Co19 Co 0.61058 0.64502 0.07542 0.0
O20 O 0.60834 0.62595 0.09365 0.0
C21 C 0.60842 0.63046 0.03472 0.0
C22 C 0.66569 0.64486 0.04064 0.0
C23 C 0.61477 0.61465 0.09048 0.0
O24 O 0.62219 0.62768 0.03853 0.0
O25 O 0.60297 0.63887 0.04695 0.0
O26 O 0.66056 0.65324 0.0832 0.0
O27 O 0.63747 0.65706 0.07268 0.0
Co28 Co 0.37599 0.01222 0.02272 0.0
O29 O 0.3606 0.01798 0.0063 0.0
O30 O 0.39006 0.03958 0.01822 0.0
C31 C 0.35397 0.99519 0.04328 0.0
O32 O 0.3959 0.01244 0.04099 0.0
Co33 Co 0.3671 0.9702 0.02483 0.0
O34 O 0.38634 0.98155 0.04717 0.0
C35 C 0.38488 0.99033 0.9909 0.0
C36 C 0.37499 0.03594 0.00785 0.0
C37 C 0.39763 3e-05 0.0504 0.0
O38 O 0.38603 0.00578 0.99914 0.0
O39 O 0.37702 0.9739 0.99831 0.0
O40 O 0.36371 0.01425 0.04511 0.0
O41 O 0.35621 0.98682 0.02778 0.0
Co42 Co 0.99941 0.64835 0.04339 0.0
O43 O 0.98941 0.65619 0.02282 0.0
O44 O 0.97196 0.63492 0.04343 0.0
C45 C 0.0235 0.67868 0.05424 0.0
O46 O 0.00509 0.63742 0.06678 0.0
Co47 Co 0.04057 0.6561 0.04252 0.0
O48 O 0.03676 0.65026 0.06997 0.0
C49 C 0.00952 0.62399 0.01673 0.0
C50 C 0.9727 0.64441 0.02857 0.0
C51 C 0.0203 0.64076 0.07634 0.0
O52 O 0.99719 0.62625 0.02555 0.0
O53 O 0.02751 0.63551 0.02016 0.0
O54 O 0.00647 0.6725 0.05962 0.0
O55 O 0.02478 0.66729 0.04121 0.0
Co56 Co 0.35908 0.36401 0.00412 0.0
O57 O 0.34096 0.34476 0.01957 0.0
O58 O 0.34094 0.37123 0.01199 0.0
C59 C 0.35834 0.34263 0.98094 0.0
O60 O 0.37525 0.38649 0.98764 0.0
Co61 Co 0.3974 0.3658 0.99894 0.0
O62 O 0.40123 0.38534 0.98067 0.0
C63 C 0.39135 0.3809 0.03594 0.0
C64 C 0.33317 0.35527 0.02088 0.0
C65 C 0.39073 0.39261 0.97901 0.0
O66 O 0.37609 0.37915 0.02822 0.0
O67 O 0.40103 0.37486 0.02715 0.0
O68 O 0.34526 0.34709 0.98045 0.0
O69 O 0.36995 0.34953 0.99624 0.0
Co70 Co 0.62949 0.00252 0.05461 0.0
O71 O 0.64457 0.00133 0.0753 0.0
O72 O 0.61581 0.9768 0.06442 0.0
C73 C 0.65244 0.01543 0.03392 0.0
O74 O 0.61044 0.99905 0.03277 0.0
Co75 Co 0.64034 0.04379 0.04378 0.0
O76 O 0.62366 0.02826 0.02027 0.0
C77 C 0.6203 0.02957 0.07884 0.0
C78 C 0.63075 0.9835 0.07647 0.0
C79 C 0.61118 0.00997 0.01948 0.0
O80 O 0.6182 0.01277 0.07385 0.0
O81 O 0.62995 0.0446 0.06947 0.0
O82 O 0.64294 0.99668 0.03554 0.0
O83 O 0.64948 0.02602 0.04655 0.0
Co84 Co 0.67453 0.68654 0.35869 0.0
O85 O 0.68033 0.6749 0.37919 0.0
O86 O 0.69993 0.70468 0.3703 0.0
C87 C 0.66178 0.65985 0.33721 0.0
O88 O 0.67415 0.70308 0.33778 0.0
Co89 Co 0.63305 0.67021 0.34263 0.0
O90 O 0.64479 0.68953 0.32316 0.0
C91 C 0.64674 0.69336 0.38051 0.0
C92 C 0.69681 0.69107 0.38157 0.0
C93 C 0.66245 0.70261 0.32474 0.0
O94 O 0.66384 0.698 0.37746 0.0
O95 O 0.63223 0.68093 0.36927 0.0
O96 O 0.68012 0.67171 0.33934 0.0
O97 O 0.65201 0.66362 0.34895 0.0
Co98 Co 0.30867 0.97108 0.39475 0.0
O99 O 0.32501 0.98469 0.37502 0.0
O100 O 0.31704 0.95479 0.38188 0.0
C101 C 0.32269 0.99665 0.41755 0.0
O102 O 0.29232 0.95286 0.41463 0.0
Co103 Co 0.28309 0.98577 0.41074 0.0
O104 O 0.27693 0.96591 0.42941 0.0
C105 C 0.27386 0.96515 0.37173 0.0
C106 C 0.32621 0.96932 0.37125 0.0
C107 C 0.28136 0.95284 0.42751 0.0
O108 O 0.28604 0.96008 0.37529 0.0
O109 O 0.27184 0.97695 0.3833 0.0
O110 O 0.32961 0.98542 0.41481 0.0
O111 O 0.30876 0.9931 0.4056 0.0
Co112 Co 0.03461 0.3264 0.34787 0.0
O113 O 0.01603 0.32576 0.33022 0.0
O114 O 0.04481 0.35181 0.33751 0.0
C115 C 0.01458 0.31273 0.37133 0.0
O116 O 0.05692 0.33225 0.36664 0.0
Co117 Co 0.02859 0.28685 0.35891 0.0
O118 O 0.04987 0.30381 0.37846 0.0
C119 C 0.04408 0.3008 0.32161 0.0
C120 C 0.02806 0.3441 0.32843 0.0
C121 C 0.06047 0.32236 0.37823 0.0
O122 O 0.04465 0.31697 0.32618 0.0
O123 O 0.03682 0.28637 0.3321 0.0
O124 O 0.02295 0.33139 0.36957 0.0
O125 O 0.017 0.30253 0.35775 0.0
Co126 Co 0.65053 0.97574 0.3893 0.0
O127 O 0.6433 0.98488 0.36764 0.0
O128 O 0.62346 0.95904 0.38268 0.0
C129 C 0.66894 0.00534 0.40595 0.0
O130 O 0.65289 0.9624 0.41235 0.0
Co131 Co 0.69314 0.98928 0.39751 0.0
O132 O 0.68382 0.97361 0.4201 0.0
C133 C 0.67042 0.95926 0.36556 0.0
C134 C 0.62608 0.97041 0.36898 0.0
C135 C 0.66624 0.96282 0.42292 0.0
O136 O 0.65532 0.95827 0.37135 0.0
O137 O 0.68721 0.97211 0.37273 0.0
O138 O 0.6506 0.99582 0.40693 0.0
O139 O 0.67516 0.99762 0.39362 0.0
Co140 Co 0.02792 0.70523 0.34027 0.0
O141 O 0.00977 0.69177 0.359 0.0
O142 O 0.0101 0.71399 0.34121 0.0
C143 C 0.02661 0.67842 0.32598 0.0
O144 O 0.04382 0.72186 0.31927 0.0
Co145 Co 0.0659 0.70572 0.33914 0.0
O146 O 0.06809 0.71727 0.31424 0.0
C147 C 0.06115 0.72996 0.3699 0.0
C148 C 0.00217 0.7018 0.3543 0.0
C149 C 0.05804 0.72452 0.30979 0.0
O150 O 0.04541 0.72621 0.36126 0.0
O151 O 0.0704 0.72199 0.36413 0.0
O152 O 0.01378 0.68248 0.32104 0.0
O153 O 0.03866 0.68967 0.34011 0.0
Co154 Co 0.30564 0.34047 0.37871 0.0
O155 O 0.31912 0.33135 0.39356 0.0
O156 O 0.29085 0.31205 0.37785 0.0
C157 C 0.33099 0.36209 0.36351 0.0
O158 O 0.2879 0.34461 0.36115 0.0
Co159 Co 0.31712 0.38426 0.3849 0.0
O160 O 0.29724 0.37666 0.36365 0.0
C161 C 0.29775 0.35761 0.41468 0.0
C162 C 0.30487 0.31372 0.38869 0.0
C163 C 0.28629 0.35901 0.35634 0.0
O164 O 0.29311 0.34273 0.4025 0.0
O165 O 0.30922 0.37539 0.41122 0.0
O166 O 0.32139 0.34363 0.35699 0.0
O167 O 0.32587 0.36636 0.37951 0.0
Co168 Co 0.34562 0.02121 0.6817 0.0
O169 O 0.34547 0.0038 0.69951 0.0
O170 O 0.37013 0.03349 0.69649 0.0
C171 C 0.33218 0.99805 0.65648 0.0
O172 O 0.35094 0.04278 0.66391 0.0
Co173 Co 0.30748 0.01377 0.66304 0.0
O174 O 0.32426 0.03198 0.64475 0.0
C175 C 0.31994 0.03181 0.70315 0.0
C176 C 0.36298 0.01716 0.70472 0.0
C177 C 0.34191 0.04413 0.64913 0.0
O178 O 0.33573 0.03237 0.70176 0.0
O179 O 0.3065 0.02432 0.68969 0.0
O180 O 0.35037 0.00703 0.66089 0.0
O181 O 0.32267 0.0023 0.66816 0.0
Co182 Co 0.98207 0.28889 0.72975 0.0
O183 O 1.0007 0.30071 0.71126 0.0
O184 O 0.99327 0.27318 0.7243 0.0
C185 C 0.99138 0.31671 0.74851 0.0
O186 O 0.96432 0.27305 0.74992 0.0
Co187 Co 0.95161 0.30034 0.73412 0.0
O188 O 0.94501 0.2844 0.7566 0.0
C189 C 0.94799 0.27412 0.70055 0.0
C190 C 0.00346 0.28626 0.71263 0.0
C191 C 0.95137 0.27321 0.75968 0.0
O192 O 0.9617 0.27298 0.7083 0.0
O193 O 0.94288 0.28571 0.70763 0.0
O194 O 1.00027 0.30737 0.75046 0.0
O195 O 0.97857 0.31003 0.7342 0.0
Co196 Co 0.70467 0.6575 0.68275 0.0
O197 O 0.68969 0.65994 0.6628 0.0
O198 O 0.71901 0.68336 0.67347 0.0
C199 C 0.68195 0.64496 0.70382 0.0
O200 O 0.72399 0.66006 0.70372 0.0
Co201 Co 0.69282 0.61588 0.69327 0.0
O202 O 0.71274 0.63038 0.71474 0.0
C203 C 0.7122 0.62966 0.65771 0.0
C204 C 0.70398 0.6776 0.66187 0.0
C205 C 0.72495 0.64873 0.71552 0.0
O206 O 0.7148 0.64669 0.66263 0.0
O207 O 0.70258 0.61483 0.66733 0.0
O208 O 0.69218 0.66376 0.70264 0.0
O209 O 0.68427 0.63418 0.69081 0.0
Co210 Co 0.3259 0.31518 0.70909 0.0
O211 O 0.32525 0.32665 0.68584 0.0
O212 O 0.30015 0.30162 0.69731 0.0
C213 C 0.34345 0.3435 0.72799 0.0
O214 O 0.32145 0.29977 0.73261 0.0
Co215 Co 0.36493 0.32355 0.72649 0.0
O216 O 0.34973 0.30918 0.74795 0.0
C217 C 0.34622 0.29558 0.69205 0.0
C218 C 0.30716 0.31381 0.68403 0.0
C219 C 0.33159 0.29911 0.7467 0.0
O220 O 0.33126 0.29653 0.69399 0.0
O221 O 0.36192 0.30663 0.70228 0.0
O222 O 0.32523 0.33579 0.72492 0.0
O223 O 0.35061 0.33503 0.718 0.0
Co224 Co 0.68986 0.03733 0.6693 0.0
O225 O 0.67284 0.02816 0.68953 0.0
O226 O 0.6799 0.0544 0.67438 0.0
C227 C 0.67794 0.00778 0.65266 0.0
O228 O 0.70645 0.0503 0.64709 0.0
Co229 Co 0.71787 0.02243 0.66501 0.0
O230 O 0.72036 0.03306 0.63943 0.0
C231 C 0.72515 0.05212 0.6967 0.0
C232 C 0.67042 0.04272 0.68745 0.0
C233 C 0.71604 0.04578 0.63584 0.0
O234 O 0.71189 0.05404 0.689 0.0
O235 O 0.72868 0.03903 0.69042 0.0
O236 O 0.66978 0.01781 0.65045 0.0
O237 O 0.69159 0.01499 0.66614 0.0
Co238 Co 0.96177 0.66291 0.71 0.0
O239 O 0.975 0.65392 0.72542 0.0
O240 O 0.94845 0.63455 0.70685 0.0
C241 C 0.98764 0.68676 0.69728 0.0
O242 O 0.94443 0.66676 0.69158 0.0
Co243 Co 0.96962 0.70507 0.71852 0.0
O244 O 0.9515 0.69805 0.69572 0.0
C245 C 0.94703 0.67506 0.74464 0.0
C246 C 0.96174 0.63625 0.7189 0.0
C247 C 0.94201 0.68075 0.68718 0.0
O248 O 0.94657 0.66189 0.73259 0.0
O249 O 0.95677 0.69342 0.74247 0.0
O250 O 0.9794 0.66866 0.68981 0.0
O251 O 0.98107 0.68953 0.71305 0.0
H252 H 0.17681 0.36981 0.04141 0.0
H253 H 0.27761 0.31934 0.19436 0.0
H254 H 0.16917 0.37348 0.14676 0.0
H255 H 0.1433 0.37605 0.13179 0.0
H256 H 0.10478 0.31386 0.1346 0.0
H257 H 0.13079 0.3113 0.149 0.0
H258 H 0.20174 0.3739 0.12236 0.0
H259 H 0.19595 0.37774 0.08857 0.0
H260 H 0.14707 0.31852 0.08229 0.0
H261 H 0.15317 0.3148 0.11601 0.0
H262 H 0.23417 0.36973 0.14386 0.0
H263 H 0.25549 0.36848 0.1207 0.0
H264 H 0.20997 0.31123 0.09656 0.0
H265 H 0.18903 0.31238 0.12007 0.0
H266 H 0.23266 0.36854 0.18923 0.0
H267 H 0.26029 0.36717 0.2007 0.0
H268 H 0.23456 0.30837 0.17237 0.0
H269 H 0.20693 0.30987 0.1612 0.0
H270 H 0.20015 0.36815 0.20974 0.0
H271 H 0.21114 0.36953 0.24316 0.0
H272 H 0.19708 0.3094 0.23345 0.0
H273 H 0.18614 0.30826 0.19978 0.0
H274 H 0.16665 0.36188 0.20209 0.0
H275 H 0.14288 0.35167 0.22615 0.0
H276 H 0.11667 0.29146 0.20141 0.0
H277 H 0.14134 0.30169 0.17877 0.0
O278 O 0.17894 0.36793 0.05469 0.0
O279 O 0.15386 0.33745 0.05227 0.0
O280 O 0.27946 0.35052 0.20436 0.0
O281 O 0.26691 0.32032 0.18993 0.0
C282 C 0.1681 0.34047 0.15581 0.0
C283 C 0.18118 0.34199 0.14226 0.0
C284 C 0.19731 0.34127 0.14826 0.0
C285 C 0.20083 0.33993 0.16799 0.0
C286 C 0.18778 0.33844 0.18156 0.0
C287 C 0.17104 0.33796 0.17533 0.0
C288 C 0.15178 0.34228 0.14938 0.0
C289 C 0.15506 0.36048 0.14443 0.0
C290 C 0.14036 0.3619 0.13573 0.0
C291 C 0.12206 0.34517 0.13207 0.0
C292 C 0.1187 0.32704 0.1375 0.0
C293 C 0.13348 0.32558 0.14592 0.0
C294 C 0.17784 0.34411 0.12163 0.0
C295 C 0.18985 0.36176 0.11362 0.0
C296 C 0.18648 0.36392 0.09434 0.0
C297 C 0.17101 0.34846 0.08274 0.0
C298 C 0.15908 0.33074 0.09083 0.0
C299 C 0.1625 0.32858 0.11009 0.0
C300 C 0.21009 0.3411 0.1337 0.0
C301 C 0.22885 0.35695 0.13354 0.0
C302 C 0.24094 0.35628 0.1202 0.0
C303 C 0.23445 0.33971 0.10684 0.0
C304 C 0.2155 0.32407 0.10684 0.0
C305 C 0.20347 0.32475 0.12016 0.0
C306 C 0.21783 0.33931 0.1744 0.0
C307 C 0.23304 0.35539 0.18553 0.0
C308 C 0.24879 0.35456 0.19204 0.0
C309 C 0.24962 0.33764 0.18746 0.0
C310 C 0.23438 0.32162 0.17616 0.0
C311 C 0.21861 0.32244 0.16972 0.0
C312 C 0.19211 0.33805 0.20242 0.0
C313 C 0.19901 0.35513 0.21496 0.0
C314 C 0.20531 0.35587 0.23406 0.0
C315 C 0.20493 0.33953 0.24105 0.0
C316 C 0.19768 0.32227 0.2285 0.0
C317 C 0.19128 0.32152 0.20934 0.0
C318 C 0.15574 0.33251 0.18874 0.0
C319 C 0.15575 0.34651 0.20198 0.0
C320 C 0.14201 0.34062 0.2156 0.0
C321 C 0.12784 0.32064 0.21599 0.0
C322 C 0.12758 0.30687 0.20207 0.0
C323 C 0.14154 0.31271 0.18886 0.0
C324 C 0.16736 0.35086 0.06232 0.0
C325 C 0.26626 0.33663 0.19445 0.0
H326 H 0.66364 0.81497 0.05797 0.0
H327 H 0.69659 0.96644 0.23559 0.0
H328 H 0.65207 0.80323 0.16659 0.0
H329 H 0.64919 0.77202 0.15657 0.0
H330 H 0.71052 0.80046 0.16129 0.0
H331 H 0.7131 0.83159 0.1723 0.0
H332 H 0.65199 0.82443 0.13973 0.0
H333 H 0.65114 0.8165 0.10492 0.0
H334 H 0.71174 0.85786 0.10631 0.0
H335 H 0.71236 0.86558 0.14117 0.0
H336 H 0.64939 0.85563 0.15048 0.0
H337 H 0.64085 0.8769 0.13491 0.0
H338 H 0.69856 0.92571 0.14694 0.0
H339 H 0.70701 0.90427 0.16239 0.0
H340 H 0.6528 0.87546 0.19159 0.0
H341 H 0.65148 0.90394 0.20439 0.0
H342 H 0.71182 0.93503 0.22086 0.0
H343 H 0.71297 0.90655 0.20775 0.0
H344 H 0.65171 0.84627 0.22075 0.0
H345 H 0.6471 0.85683 0.25271 0.0
H346 H 0.70806 0.89051 0.26599 0.0
H347 H 0.71244 0.88037 0.23344 0.0
H348 H 0.65573 0.80648 0.20428 0.0
H349 H 0.65651 0.78362 0.22531 0.0
H350 H 0.71512 0.82698 0.24412 0.0
H351 H 0.71454 0.849 0.22163 0.0
O352 O 0.66429 0.81834 0.07173 0.0
O353 O 0.69546 0.83976 0.07323 0.0
O354 O 0.6659 0.93876 0.22075 0.0
O355 O 0.69674 0.95507 0.23021 0.0
C356 C 0.68402 0.83799 0.17719 0.0
C357 C 0.68283 0.85014 0.16401 0.0
C358 C 0.68248 0.86687 0.17099 0.0
C359 C 0.68375 0.87166 0.19115 0.0
C360 C 0.68473 0.85936 0.20426 0.0
C361 C 0.68492 0.84256 0.19734 0.0
C362 C 0.68277 0.81959 0.16994 0.0
C363 C 0.66486 0.8027 0.16534 0.0
C364 C 0.66328 0.78491 0.15958 0.0
C365 C 0.67964 0.78375 0.15796 0.0
C366 C 0.69764 0.8008 0.16259 0.0
C367 C 0.69918 0.81861 0.16864 0.0
C368 C 0.68224 0.8455 0.14291 0.0
C369 C 0.66506 0.83171 0.13248 0.0
C370 C 0.66462 0.82724 0.1126 0.0
C371 C 0.68138 0.83653 0.10283 0.0
C372 C 0.69858 0.85043 0.11339 0.0
C373 C 0.69898 0.85488 0.13327 0.0
C374 C 0.67883 0.87841 0.15752 0.0
C375 C 0.66036 0.87072 0.14907 0.0
C376 C 0.65548 0.8829 0.14027 0.0
C377 C 0.66898 0.90299 0.13998 0.0
C378 C 0.68781 0.91032 0.14723 0.0
C379 C 0.69271 0.8981 0.15588 0.0
C380 C 0.68299 0.88902 0.19869 0.0
C381 C 0.66573 0.8885 0.19786 0.0
C382 C 0.66501 0.90475 0.20522 0.0
C383 C 0.68156 0.92176 0.21367 0.0
C384 C 0.69883 0.92218 0.21446 0.0
C385 C 0.69953 0.90595 0.207 0.0
C386 C 0.68237 0.86256 0.22491 0.0
C387 C 0.66402 0.85552 0.23078 0.0
C388 C 0.66144 0.86154 0.2491 0.0
C389 C 0.67722 0.87462 0.26192 0.0
C390 C 0.69562 0.88067 0.25635 0.0
C391 C 0.69817 0.87474 0.2379 0.0
C392 C 0.68517 0.82924 0.21117 0.0
C393 C 0.6688 0.81089 0.21275 0.0
C394 C 0.66923 0.79796 0.22506 0.0
C395 C 0.68591 0.80333 0.23653 0.0
C396 C 0.70214 0.82206 0.23526 0.0
C397 C 0.7018 0.83481 0.22259 0.0
C398 C 0.68088 0.8317 0.08172 0.0
C399 C 0.68085 0.939 0.22172 0.0
H400 H 0.15717 0.83908 0.03872 0.0
H401 H 0.30118 0.97262 0.20215 0.0
H402 H 0.13763 0.84301 0.13852 0.0
H403 H 0.11258 0.81134 0.12217 0.0
H404 H 0.13914 0.78283 0.14789 0.0
H405 H 0.164 0.81443 0.1643 0.0
H406 H 0.17326 0.87728 0.11751 0.0
H407 H 0.16577 0.86572 0.08305 0.0
H408 H 0.17562 0.81885 0.09352 0.0
H409 H 0.18333 0.83074 0.12789 0.0
H410 H 0.21013 0.91558 0.14242 0.0
H411 H 0.23747 0.93681 0.12442 0.0
H412 H 0.24847 0.88988 0.11428 0.0
H413 H 0.22131 0.86882 0.13269 0.0
H414 H 0.20651 0.9196 0.18793 0.0
H415 H 0.23565 0.95059 0.19917 0.0
H416 H 0.26889 0.92466 0.18412 0.0
H417 H 0.23964 0.89368 0.17323 0.0
H418 H 0.17074 0.88525 0.20988 0.0
H419 H 0.17994 0.89953 0.24347 0.0
H420 H 0.22952 0.89418 0.24229 0.0
H421 H 0.21928 0.87847 0.20942 0.0
H422 H 0.13661 0.84785 0.18125 0.0
H423 H 0.1129 0.8261 0.20235 0.0
H424 H 0.155 0.81709 0.23041 0.0
H425 H 0.17824 0.83795 0.20844 0.0
O426 O 0.16038 0.84352 0.05236 0.0
O427 O 0.16557 0.81967 0.05852 0.0
O428 O 0.27169 0.97306 0.20569 0.0
O429 O 0.28943 0.9605 0.19793 0.0
C430 C 0.1695 0.85024 0.15947 0.0
C431 C 0.18268 0.86153 0.14616 0.0
C432 C 0.19954 0.87922 0.15279 0.0
C433 C 0.20323 0.88566 0.17278 0.0
C434 C 0.19008 0.8743 0.18614 0.0
C435 C 0.1731 0.85662 0.17945 0.0
C436 C 0.15262 0.83094 0.15246 0.0
C437 C 0.13772 0.82982 0.14099 0.0
C438 C 0.12344 0.81179 0.13176 0.0
C439 C 0.12409 0.79479 0.13374 0.0
C440 C 0.13844 0.7958 0.14612 0.0
C441 C 0.15255 0.81376 0.15551 0.0
C442 C 0.17876 0.85481 0.12517 0.0
C443 C 0.17389 0.8646 0.11229 0.0
C444 C 0.16957 0.85792 0.09263 0.0
C445 C 0.17004 0.84132 0.08553 0.0
C446 C 0.17509 0.83165 0.09851 0.0
C447 C 0.17947 0.83839 0.11814 0.0
C448 C 0.21385 0.89074 0.13901 0.0
C449 C 0.21824 0.90978 0.13604 0.0
C450 C 0.23385 0.92186 0.12582 0.0
C451 C 0.24514 0.91499 0.11815 0.0
C452 C 0.23993 0.89547 0.11998 0.0
C453 C 0.22444 0.88345 0.13045 0.0
C454 C 0.22097 0.90442 0.17973 0.0
C455 C 0.2201 0.92063 0.18716 0.0
C456 C 0.23676 0.93832 0.19352 0.0
C457 C 0.25461 0.94012 0.1925 0.0
C458 C 0.2554 0.9238 0.18508 0.0
C459 C 0.23872 0.9061 0.1788 0.0
C460 C 0.19444 0.881 0.20714 0.0
C461 C 0.18333 0.88675 0.21709 0.0
C462 C 0.18879 0.89517 0.23622 0.0
C463 C 0.20568 0.89835 0.24563 0.0
C464 C 0.21633 0.89182 0.23576 0.0
C465 C 0.21062 0.88301 0.21682 0.0
C466 C 0.15915 0.84446 0.19326 0.0
C467 C 0.14067 0.84112 0.19193 0.0
C468 C 0.12718 0.82881 0.20414 0.0
C469 C 0.13197 0.81974 0.21809 0.0
C470 C 0.15067 0.82349 0.21962 0.0
C471 C 0.16407 0.83562 0.20724 0.0
C472 C 0.16522 0.83413 0.06468 0.0
C473 C 0.27237 0.95891 0.19912 0.0
H474 H 0.34623 0.20291 0.00287 0.0
H475 H 0.32583 0.04652 0.84309 0.0
H476 H 0.30105 0.18167 0.90611 0.0
H477 H 0.31101 0.21569 0.91644 0.0
H478 H 0.3584 0.23603 0.88039 0.0
H479 H 0.34889 0.20206 0.87102 0.0
H480 H 0.30618 0.1521 0.93189 0.0
H481 H 0.31811 0.16968 0.96417 0.0
H482 H 0.37166 0.21043 0.94164 0.0
H483 H 0.3596 0.19257 0.9095 0.0
H484 H 0.30287 0.11458 0.91974 0.0
H485 H 0.31539 0.10097 0.94249 0.0
H486 H 0.37195 0.139 0.92446 0.0
H487 H 0.35932 0.15264 0.90209 0.0
H488 H 0.2885 0.09559 0.88391 0.0
H489 H 0.28681 0.06447 0.8757 0.0
H490 H 0.34072 0.09577 0.85005 0.0
H491 H 0.34229 0.12677 0.85854 0.0
H492 H 0.27819 0.10743 0.84814 0.0
H493 H 0.27405 0.08474 0.82022 0.0
H494 H 0.32913 0.12766 0.80273 0.0
H495 H 0.33378 0.14965 0.83119 0.0
H496 H 0.28171 0.16103 0.85981 0.0
H497 H 0.27748 0.18245 0.83906 0.0
H498 H 0.33194 0.2007 0.8165 0.0
H499 H 0.33628 0.17993 0.83766 0.0
O500 O 0.34184 0.19611 0.99001 0.0
O501 O 0.36907 0.21672 0.9777 0.0
O502 O 0.29912 0.04332 0.86111 0.0
O503 O 0.32631 0.05863 0.84686 0.0
C504 C 0.32013 0.16912 0.88399 0.0
C505 C 0.32458 0.16051 0.89882 0.0
C506 C 0.32276 0.14211 0.89483 0.0
C507 C 0.31617 0.13213 0.87618 0.0
C508 C 0.31148 0.14059 0.86134 0.0
C509 C 0.31346 0.15912 0.86525 0.0
C510 C 0.3242 0.18944 0.88777 0.0
C511 C 0.31337 0.19351 0.90021 0.0
C512 C 0.31903 0.21294 0.90598 0.0
C513 C 0.33557 0.22857 0.8993 0.0
C514 C 0.34575 0.22434 0.88599 0.0
C515 C 0.3402 0.20494 0.88041 0.0
C516 C 0.332 0.17114 0.91839 0.0
C517 C 0.3205 0.16479 0.93399 0.0
C518 C 0.32734 0.17488 0.95239 0.0
C519 C 0.34583 0.1915 0.95548 0.0
C520 C 0.35735 0.19773 0.93976 0.0
C521 C 0.3505 0.18759 0.92139 0.0
C522 C 0.33023 0.13454 0.90936 0.0
C523 C 0.31796 0.12 0.92087 0.0
C524 C 0.32513 0.11221 0.93373 0.0
C525 C 0.34467 0.1189 0.93525 0.0
C526 C 0.3569 0.13374 0.92385 0.0
C527 C 0.34972 0.14147 0.91101 0.0
C528 C 0.31551 0.11336 0.87181 0.0
C529 C 0.29998 0.09567 0.87666 0.0
C530 C 0.29904 0.07794 0.87191 0.0
C531 C 0.31363 0.07763 0.86219 0.0
C532 C 0.32926 0.09547 0.85753 0.0
C533 C 0.3302 0.11319 0.86235 0.0
C534 C 0.30613 0.1304 0.84152 0.0
C535 C 0.28898 0.11228 0.83781 0.0
C536 C 0.28666 0.09933 0.82197 0.0
C537 C 0.30123 0.10466 0.80941 0.0
C538 C 0.31759 0.12348 0.81209 0.0
C539 C 0.32014 0.13618 0.8282 0.0
C540 C 0.30912 0.1686 0.84993 0.0
C541 C 0.29244 0.16926 0.84996 0.0
C542 C 0.29009 0.18152 0.83816 0.0
C543 C 0.30447 0.1934 0.82631 0.0
C544 C 0.32072 0.19192 0.82566 0.0
C545 C 0.32306 0.17973 0.83745 0.0
C546 C 0.35301 0.20225 0.97502 0.0
C547 C 0.31253 0.0588 0.85675 0.0
H548 H 0.83408 0.17353 0.02927 0.0
H549 H 0.7127 0.02576 0.84804 0.0
H550 H 0.83965 0.18755 0.92135 0.0
H551 H 0.86988 0.21677 0.93355 0.0
H552 H 0.89689 0.18264 0.93066 0.0
H553 H 0.86658 0.15363 0.91785 0.0
H554 H 0.81355 0.16487 0.94621 0.0
H555 H 0.82038 0.17243 0.98133 0.0
H556 H 0.8399 0.13164 0.98253 0.0
H557 H 0.83299 0.12426 0.94738 0.0
H558 H 0.77812 0.13283 0.93385 0.0
H559 H 0.75113 0.11156 0.95223 0.0
H560 H 0.76409 0.06582 0.94368 0.0
H561 H 0.79077 0.08709 0.92499 0.0
H562 H 0.76323 0.11609 0.89343 0.0
H563 H 0.73265 0.08828 0.87957 0.0
H564 H 0.76019 0.05635 0.86371 0.0
H565 H 0.79061 0.08418 0.87782 0.0
H566 H 0.79082 0.14221 0.86301 0.0
H567 H 0.77979 0.1346 0.82879 0.0
H568 H 0.81054 0.10463 0.82051 0.0
H569 H 0.82073 0.1116 0.85513 0.0
H570 H 0.8386 0.18292 0.88103 0.0
H571 H 0.86358 0.20414 0.86072 0.0
H572 H 0.87704 0.15896 0.8498 0.0
H573 H 0.85282 0.13846 0.8712 0.0
O574 O 0.83146 0.17031 0.01541 0.0
O575 O 0.84143 0.14926 0.01522 0.0
O576 O 0.71107 0.05389 0.86232 0.0
O577 O 0.72458 0.03693 0.85371 0.0
C578 C 0.83281 0.15122 0.91069 0.0
C579 C 0.81881 0.13962 0.92311 0.0
C580 C 0.80123 0.12348 0.91527 0.0
C581 C 0.79762 0.11898 0.89501 0.0
C582 C 0.81157 0.13074 0.88259 0.0
C583 C 0.82926 0.14671 0.89044 0.0
C584 C 0.85101 0.16856 0.91884 0.0
C585 C 0.85211 0.18643 0.92346 0.0
C586 C 0.86937 0.20306 0.93049 0.0
C587 C 0.88582 0.20205 0.93314 0.0
C588 C 0.88457 0.184 0.92856 0.0
C589 C 0.86728 0.16738 0.92141 0.0
C590 C 0.8228 0.14405 0.94436 0.0
C591 C 0.8193 0.15761 0.95412 0.0
C592 C 0.82321 0.16188 0.97416 0.0
C593 C 0.83069 0.15264 0.98475 0.0
C594 C 0.83414 0.13901 0.97483 0.0
C595 C 0.83021 0.13476 0.95478 0.0
C596 C 0.78633 0.11144 0.92816 0.0
C597 C 0.77526 0.11831 0.93624 0.0
C598 C 0.75989 0.10617 0.94674 0.0
C599 C 0.75538 0.08695 0.94929 0.0
C600 C 0.76698 0.08041 0.94168 0.0
C601 C 0.7823 0.09255 0.93116 0.0
C602 C 0.77907 0.10208 0.88669 0.0
C603 C 0.76258 0.10302 0.88705 0.0
C604 C 0.74516 0.08715 0.87908 0.0
C605 C 0.74397 0.07008 0.87053 0.0
C606 C 0.76059 0.06925 0.87018 0.0
C607 C 0.77798 0.08512 0.8782 0.0
C608 C 0.80667 0.12759 0.86144 0.0
C609 C 0.79532 0.13419 0.85372 0.0
C610 C 0.78915 0.12992 0.83412 0.0
C611 C 0.79434 0.11907 0.82181 0.0
C612 C 0.80611 0.11285 0.82959 0.0
C613 C 0.81214 0.11699 0.84929 0.0
C614 C 0.84389 0.15916 0.87746 0.0
C615 C 0.84703 0.1777 0.87428 0.0
C616 C 0.86122 0.18971 0.86253 0.0
C617 C 0.87233 0.18326 0.85349 0.0
C618 C 0.869 0.16456 0.85671 0.0
C619 C 0.85499 0.15269 0.86872 0.0
C620 C 0.83487 0.15724 0.00603 0.0
C621 C 0.72552 0.0532 0.86197 0.0
H622 H 0.8522 0.67992 0.03764 0.0
H623 H 0.71635 0.66021 0.87265 0.0
H624 H 0.87117 0.68751 0.93657 0.0
H625 H 0.89264 0.68057 0.95473 0.0
H626 H 0.85858 0.61957 0.93235 0.0
H627 H 0.83715 0.62667 0.91426 0.0
H628 H 0.83939 0.69294 0.95803 0.0
H629 H 0.84645 0.69325 0.99261 0.0
H630 H 0.82737 0.63153 0.98432 0.0
H631 H 0.82011 0.63137 0.94982 0.0
H632 H 0.80452 0.69422 0.93315 0.0
H633 H 0.78179 0.69444 0.95458 0.0
H634 H 0.76494 0.63583 0.96852 0.0
H635 H 0.7866 0.63522 0.9457 0.0
H636 H 0.80948 0.69698 0.88914 0.0
H637 H 0.7834 0.70075 0.87733 0.0
H638 H 0.74287 0.64209 0.89166 0.0
H639 H 0.76911 0.63842 0.90318 0.0
H640 H 0.84001 0.69317 0.86762 0.0
H641 H 0.83084 0.69619 0.83462 0.0
H642 H 0.77944 0.63915 0.83432 0.0
H643 H 0.78911 0.63603 0.86674 0.0
H644 H 0.87147 0.68756 0.89269 0.0
H645 H 0.89128 0.6852 0.86838 0.0
H646 H 0.8435 0.62903 0.84484 0.0
H647 H 0.82403 0.63129 0.86955 0.0
O648 O 0.84917 0.67943 0.02395 0.0
O649 O 0.83929 0.64773 0.01889 0.0
O650 O 0.74836 0.68911 0.86995 0.0
O651 O 0.72693 0.65909 0.87718 0.0
C652 C 0.8374 0.66079 0.91696 0.0
C653 C 0.82552 0.66226 0.93037 0.0
C654 C 0.81023 0.66416 0.92383 0.0
C655 C 0.8071 0.66512 0.90391 0.0
C656 C 0.81903 0.66377 0.89048 0.0
C657 C 0.83412 0.66147 0.89699 0.0
C658 C 0.85265 0.65759 0.9241 0.0
C659 C 0.8687 0.67278 0.93515 0.0
C660 C 0.8809 0.66877 0.94553 0.0
C661 C 0.87714 0.64948 0.94512 0.0
C662 C 0.86167 0.63452 0.93312 0.0
C663 C 0.84957 0.63858 0.92261 0.0
C664 C 0.82934 0.66217 0.95143 0.0
C665 C 0.83667 0.6795 0.96374 0.0
C666 C 0.84073 0.67963 0.98347 0.0
C667 C 0.83753 0.66243 0.99123 0.0
C668 C 0.83004 0.64505 0.97882 0.0
C669 C 0.82593 0.64492 0.95911 0.0
C670 C 0.7972 0.6647 0.93782 0.0
C671 C 0.7958 0.68139 0.94074 0.0
C672 C 0.78293 0.68154 0.95322 0.0
C673 C 0.77151 0.66517 0.96345 0.0
C674 C 0.77321 0.64858 0.96069 0.0
C675 C 0.7858 0.6483 0.94786 0.0
C676 C 0.79117 0.66743 0.897 0.0
C677 C 0.79496 0.68494 0.88965 0.0
C678 C 0.78003 0.68707 0.88296 0.0
C679 C 0.76103 0.67171 0.88356 0.0
C680 C 0.75732 0.6542 0.891 0.0
C681 C 0.77227 0.65207 0.89763 0.0
C682 C 0.8152 0.66439 0.86955 0.0
C683 C 0.82703 0.68115 0.86015 0.0
C684 C 0.82165 0.68294 0.84141 0.0
C685 C 0.80434 0.66798 0.8318 0.0
C686 C 0.793 0.65085 0.84106 0.0
C687 C 0.79844 0.64905 0.85967 0.0
C688 C 0.84634 0.65961 0.88284 0.0
C689 C 0.86539 0.67467 0.8824 0.0
C690 C 0.87661 0.67335 0.86842 0.0
C691 C 0.86895 0.65694 0.85463 0.0
C692 C 0.84991 0.64174 0.85537 0.0
C693 C 0.83873 0.64306 0.86937 0.0
C694 C 0.84201 0.66267 0.01216 0.0
C695 C 0.74512 0.6739 0.87647 0.0
H696 H 0.84357 0.7089 0.37672 0.0
H697 H 0.93218 0.6335 0.51445 0.0
H698 H 0.83523 0.70268 0.4801 0.0
H699 H 0.81272 0.71081 0.46724 0.0
H700 H 0.76696 0.65071 0.47024 0.0
H701 H 0.79011 0.64245 0.48156 0.0
H702 H 0.86523 0.70246 0.45572 0.0
H703 H 0.86108 0.71052 0.42321 0.0
H704 H 0.80857 0.6543 0.41262 0.0
H705 H 0.81303 0.64631 0.44506 0.0
H706 H 0.89507 0.69428 0.47945 0.0
H707 H 0.91782 0.69959 0.45511 0.0
H708 H 0.87329 0.65083 0.41805 0.0
H709 H 0.85073 0.64475 0.44292 0.0
H710 H 0.89143 0.687 0.52066 0.0
H711 H 0.91763 0.68244 0.53009 0.0
H712 H 0.89067 0.62763 0.49362 0.0
H713 H 0.86443 0.63225 0.48452 0.0
H714 H 0.85844 0.68909 0.53947 0.0
H715 H 0.86832 0.68929 0.57295 0.0
H716 H 0.85596 0.62994 0.56122 0.0
H717 H 0.8459 0.62987 0.52742 0.0
H718 H 0.82642 0.68627 0.53084 0.0
H719 H 0.80388 0.67649 0.55608 0.0
H720 H 0.77867 0.61563 0.53399 0.0
H721 H 0.80209 0.62557 0.50986 0.0
O722 O 0.84497 0.70538 0.38949 0.0
O723 O 0.81798 0.67638 0.38485 0.0
O724 O 0.93521 0.66388 0.52961 0.0
O725 O 0.92201 0.63568 0.51095 0.0
C726 C 0.82893 0.6669 0.48638 0.0
C727 C 0.84195 0.66891 0.47252 0.0
C728 C 0.85729 0.6664 0.47752 0.0
C729 C 0.85988 0.66243 0.49658 0.0
C730 C 0.84693 0.66054 0.51042 0.0
C731 C 0.83101 0.6619 0.50505 0.0
C732 C 0.81436 0.67197 0.4817 0.0
C733 C 0.8203 0.69131 0.47813 0.0
C734 C 0.80729 0.69596 0.47093 0.0
C735 C 0.78786 0.68145 0.46757 0.0
C736 C 0.78181 0.66224 0.47221 0.0
C737 C 0.79498 0.6575 0.47902 0.0
C738 C 0.83948 0.67377 0.45271 0.0
C739 C 0.85291 0.69186 0.44631 0.0
C740 C 0.85047 0.69644 0.42776 0.0
C741 C 0.8345 0.68305 0.41531 0.0
C742 C 0.82104 0.66495 0.42183 0.0
C743 C 0.82353 0.66035 0.44036 0.0
C744 C 0.87123 0.66903 0.46306 0.0
C745 C 0.89029 0.68443 0.4663 0.0
C746 C 0.90323 0.68753 0.4524 0.0
C747 C 0.89719 0.67561 0.43482 0.0
C748 C 0.87817 0.6602 0.43153 0.0
C749 C 0.86534 0.65677 0.44567 0.0
C750 C 0.876 0.65989 0.502 0.0
C751 C 0.89118 0.67398 0.5148 0.0
C752 C 0.90614 0.67136 0.52012 0.0
C753 C 0.90622 0.65464 0.51263 0.0
C754 C 0.89104 0.64065 0.49967 0.0
C755 C 0.87606 0.64326 0.49442 0.0
C756 C 0.85119 0.65939 0.53109 0.0
C757 C 0.85743 0.67595 0.54421 0.0
C758 C 0.86309 0.67604 0.56335 0.0
C759 C 0.86278 0.65957 0.5698 0.0
C760 C 0.85639 0.64286 0.55665 0.0
C761 C 0.85056 0.64274 0.53742 0.0
C762 C 0.81595 0.6566 0.51868 0.0
C763 C 0.81593 0.67086 0.53148 0.0
C764 C 0.80293 0.66521 0.54581 0.0
C765 C 0.78952 0.64519 0.54732 0.0
C766 C 0.78908 0.63111 0.53372 0.0
C767 C 0.8023 0.63675 0.51973 0.0
C768 C 0.83192 0.68799 0.39563 0.0
C769 C 0.92205 0.65176 0.51828 0.0
H770 H 0.33785 0.13161 0.38775 0.0
H771 H 0.35057 0.29484 0.54531 0.0
H772 H 0.33275 0.13596 0.51149 0.0
H773 H 0.33339 0.1061 0.50364 0.0
H774 H 0.38514 0.13951 0.47513 0.0
H775 H 0.38504 0.16973 0.48398 0.0
H776 H 0.32818 0.147 0.46879 0.0
H777 H 0.32734 0.13528 0.43515 0.0
H778 H 0.37853 0.19043 0.42734 0.0
H779 H 0.37934 0.20188 0.46112 0.0
H780 H 0.3205 0.17935 0.46673 0.0
H781 H 0.30947 0.19403 0.44414 0.0
H782 H 0.35864 0.25128 0.46285 0.0
H783 H 0.3705 0.23602 0.48365 0.0
H784 H 0.319 0.20365 0.5067 0.0
H785 H 0.31307 0.23006 0.51531 0.0
H786 H 0.37158 0.26732 0.53823 0.0
H787 H 0.37738 0.24089 0.5293 0.0
H788 H 0.32349 0.1876 0.54329 0.0
H789 H 0.3203 0.19883 0.57558 0.0
H790 H 0.3807 0.22518 0.58927 0.0
H791 H 0.3838 0.21442 0.55636 0.0
H792 H 0.33317 0.15601 0.54698 0.0
H793 H 0.33717 0.13686 0.57073 0.0
H794 H 0.3955 0.16109 0.55698 0.0
H795 H 0.3914 0.18038 0.5332 0.0
O796 O 0.33844 0.13656 0.40101 0.0
O797 O 0.36461 0.16528 0.39765 0.0
O798 O 0.32266 0.26454 0.52943 0.0
O799 O 0.35254 0.28419 0.54164 0.0
C800 C 0.35804 0.17297 0.50307 0.0
C801 C 0.35464 0.18219 0.48799 0.0
C802 C 0.35167 0.19788 0.49252 0.0
C803 C 0.35224 0.20432 0.51216 0.0
C804 C 0.35564 0.19508 0.52714 0.0
C805 C 0.35887 0.17966 0.52265 0.0
C806 C 0.35896 0.15508 0.4985 0.0
C807 C 0.34451 0.13697 0.504 0.0
C808 C 0.34488 0.11995 0.49953 0.0
C809 C 0.35942 0.12064 0.48899 0.0
C810 C 0.37388 0.13872 0.48341 0.0
C811 C 0.37378 0.15589 0.48834 0.0
C812 C 0.35389 0.17524 0.46743 0.0
C813 C 0.33925 0.15649 0.45982 0.0
C814 C 0.33878 0.14985 0.44058 0.0
C815 C 0.35289 0.1619 0.42856 0.0
C816 C 0.36745 0.18077 0.43621 0.0
C817 C 0.36793 0.18736 0.45548 0.0
C818 C 0.34633 0.20656 0.47692 0.0
C819 C 0.32922 0.19497 0.46542 0.0
C820 C 0.32271 0.20353 0.45278 0.0
C821 C 0.33285 0.22402 0.45178 0.0
C822 C 0.35041 0.23547 0.46284 0.0
C823 C 0.35719 0.22678 0.47498 0.0
C824 C 0.34865 0.22041 0.51725 0.0
C825 C 0.33054 0.21757 0.51345 0.0
C826 C 0.32719 0.23266 0.51845 0.0
C827 C 0.34187 0.25082 0.52745 0.0
C828 C 0.35997 0.25354 0.5313 0.0
C829 C 0.36332 0.23847 0.52624 0.0
C830 C 0.35388 0.20037 0.54749 0.0
C831 C 0.336 0.19569 0.55332 0.0
C832 C 0.33421 0.20196 0.57186 0.0
C833 C 0.35025 0.21287 0.58506 0.0
C834 C 0.36811 0.21698 0.57937 0.0
C835 C 0.3699 0.21076 0.56068 0.0
C836 C 0.36201 0.16964 0.53842 0.0
C837 C 0.34691 0.15747 0.54933 0.0
C838 C 0.34917 0.14641 0.56274 0.0
C839 C 0.36662 0.14739 0.56558 0.0
C840 C 0.38195 0.16014 0.55515 0.0
C841 C 0.37962 0.1711 0.54157 0.0
C842 C 0.3524 0.15477 0.40814 0.0
C843 C 0.33837 0.26687 0.53286 0.0
H844 H 0.8138 0.18929 0.37306 0.0
H845 H 0.96842 0.28525 0.53519 0.0
H846 H 0.79781 0.17851 0.47792 0.0
H847 H 0.76682 0.14987 0.46581 0.0
H848 H 0.78873 0.11197 0.47473 0.0
H849 H 0.81959 0.1406 0.48643 0.0
H850 H 0.83524 0.2139 0.45572 0.0
H851 H 0.82604 0.20857 0.42096 0.0
H852 H 0.82788 0.1554 0.41764 0.0
H853 H 0.83726 0.16103 0.45236 0.0
H854 H 0.87474 0.24497 0.47874 0.0
H855 H 0.90209 0.26575 0.46057 0.0
H856 H 0.90664 0.21554 0.44319 0.0
H857 H 0.87901 0.19487 0.46097 0.0
H858 H 0.87402 0.24313 0.5264 0.0
H859 H 0.90529 0.27067 0.53899 0.0
H860 H 0.93174 0.24112 0.51276 0.0
H861 H 0.90038 0.21357 0.50052 0.0
H862 H 0.84132 0.20902 0.54911 0.0
H863 H 0.85435 0.21534 0.58284 0.0
H864 H 0.89335 0.19725 0.56558 0.0
H865 H 0.87969 0.19023 0.53229 0.0
H866 H 0.80292 0.17863 0.52423 0.0
H867 H 0.77951 0.15282 0.54305 0.0
H868 H 0.81418 0.12689 0.54455 0.0
H869 H 0.8375 0.15274 0.52597 0.0
O870 O 0.81749 0.19114 0.38677 0.0
O871 O 0.8186 0.1639 0.38585 0.0
O872 O 0.94156 0.28897 0.54391 0.0
O873 O 0.95587 0.27452 0.53048 0.0
C874 C 0.82951 0.17865 0.49055 0.0
C875 C 0.84234 0.19111 0.47761 0.0
C876 C 0.86061 0.2066 0.48473 0.0
C877 C 0.86591 0.20984 0.50481 0.0
C878 C 0.85318 0.19713 0.51767 0.0
C879 C 0.83493 0.18163 0.51058 0.0
C880 C 0.81085 0.16154 0.48302 0.0
C881 C 0.79584 0.16399 0.47718 0.0
C882 C 0.77818 0.14766 0.47042 0.0
C883 C 0.77539 0.12871 0.46932 0.0
C884 C 0.79052 0.1264 0.47521 0.0
C885 C 0.8081 0.14269 0.48198 0.0
C886 C 0.83678 0.18778 0.45654 0.0
C887 C 0.83366 0.20112 0.44743 0.0
C888 C 0.82839 0.19803 0.4276 0.0
C889 C 0.82618 0.18153 0.41653 0.0
C890 C 0.82941 0.16823 0.42574 0.0
C891 C 0.83471 0.17137 0.44557 0.0
C892 C 0.87494 0.21846 0.47116 0.0
C893 C 0.88142 0.23843 0.47063 0.0
C894 C 0.89716 0.25028 0.46042 0.0
C895 C 0.90675 0.24237 0.45066 0.0
C896 C 0.89954 0.2221 0.4504 0.0
C897 C 0.88374 0.21025 0.46055 0.0
C898 C 0.88496 0.22645 0.51244 0.0
C899 C 0.8866 0.24264 0.52343 0.0
C900 C 0.90446 0.25834 0.53057 0.0
C901 C 0.92103 0.25812 0.52682 0.0
C902 C 0.91929 0.24179 0.51587 0.0
C903 C 0.90141 0.22607 0.5088 0.0
C904 C 0.85967 0.1993 0.53832 0.0
C905 C 0.85244 0.20612 0.55277 0.0
C906 C 0.86002 0.20987 0.57195 0.0
C907 C 0.87496 0.20689 0.57691 0.0
C908 C 0.88168 0.19944 0.56238 0.0
C909 C 0.87402 0.19558 0.54331 0.0
C910 C 0.82189 0.16753 0.5238 0.0
C911 C 0.80557 0.16755 0.52894 0.0
C912 C 0.79227 0.15286 0.53966 0.0
C913 C 0.79501 0.13782 0.54509 0.0
C914 C 0.81166 0.13822 0.54037 0.0
C915 C 0.82503 0.15301 0.52991 0.0
C916 C 0.82054 0.17826 0.39546 0.0
C917 C 0.94006 0.27482 0.53429 0.0
H918 H 0.98545 0.49574 0.34217 0.0
H919 H 0.01815 0.39632 0.16385 0.0
H920 H 0.97853 0.51524 0.24325 0.0
H921 H 0.98547 0.54628 0.26058 0.0
H922 H 0.04285 0.5747 0.24259 0.0
H923 H 0.03598 0.54368 0.22592 0.0
H924 H 0.97315 0.47361 0.25865 0.0
H925 H 0.9728 0.47839 0.29379 0.0
H926 H 0.03142 0.52621 0.29677 0.0
H927 H 0.03164 0.52112 0.26166 0.0
H928 H 0.97408 0.43874 0.22888 0.0
H929 H 0.97538 0.41429 0.24694 0.0
H930 H 0.03066 0.45907 0.27357 0.0
H931 H 0.0298 0.48308 0.25414 0.0
H932 H 0.97261 0.44311 0.18531 0.0
H933 H 0.97283 0.41544 0.16843 0.0
H934 H 0.03031 0.43874 0.19258 0.0
H935 H 0.03001 0.46653 0.20911 0.0
H936 H 0.97468 0.47532 0.16646 0.0
H937 H 0.97587 0.46364 0.13325 0.0
H938 H 0.03519 0.48347 0.1456 0.0
H939 H 0.03389 0.49535 0.17836 0.0
H940 H 0.97607 0.51378 0.19474 0.0
H941 H 0.97962 0.54076 0.17654 0.0
H942 H 0.03786 0.55832 0.16824 0.0
H943 H 0.03418 0.53137 0.1863 0.0
O944 O 0.98591 0.49407 0.3283 0.0
O945 O 0.01603 0.5186 0.32903 0.0
O946 O 0.98816 0.39583 0.15826 0.0
O947 O 0.0176 0.40698 0.17056 0.0
C948 C 0.00345 0.50835 0.22439 0.0
C949 C 0.00243 0.49413 0.23628 0.0
C950 C 0.00162 0.47713 0.22783 0.0
C951 C 0.00154 0.47429 0.20751 0.0
C952 C 0.0025 0.48852 0.19571 0.0
C953 C 0.00327 0.50542 0.20408 0.0
C954 C 0.00676 0.52727 0.23336 0.0
C955 C 0.99251 0.52826 0.24294 0.0
C956 C 0.99647 0.54596 0.25271 0.0
C957 C 0.01474 0.56284 0.25303 0.0
C958 C 0.02872 0.56187 0.24281 0.0
C959 C 0.02479 0.54423 0.23314 0.0
C960 C 0.00236 0.4971 0.25761 0.0
C961 C 0.9859 0.48509 0.26694 0.0
C962 C 0.98574 0.48787 0.287 0.0
C963 C 0.00207 0.50272 0.29809 0.0
C964 C 0.01859 0.51468 0.28867 0.0
C965 C 0.01873 0.51185 0.26861 0.0
C966 C 0.0018 0.46271 0.24021 0.0
C967 C 0.98648 0.44325 0.2386 0.0
C968 C 0.9872 0.42933 0.24913 0.0
C969 C 0.0031 0.43465 0.2619 0.0
C970 C 0.01831 0.45431 0.26372 0.0
C971 C 0.01772 0.46815 0.25285 0.0
C972 C 0.00128 0.4568 0.19842 0.0
C973 C 0.98521 0.44217 0.18697 0.0
C974 C 0.98538 0.42639 0.17735 0.0
C975 C 0.00161 0.4249 0.17913 0.0
C976 C 0.01759 0.43945 0.19089 0.0
C977 C 0.01743 0.45528 0.20042 0.0
C978 C 0.00419 0.48609 0.17471 0.0
C979 C 0.98806 0.47773 0.16168 0.0
C980 C 0.98872 0.4709 0.14284 0.0
C981 C 0.00557 0.47245 0.13686 0.0
C982 C 0.02205 0.48224 0.14961 0.0
C983 C 0.02136 0.48902 0.16836 0.0
C984 C 0.00485 0.52062 0.19174 0.0
C985 C 0.98949 0.52334 0.18876 0.0
C986 C 0.99153 0.53869 0.17839 0.0
C987 C 0.00905 0.55169 0.17113 0.0
C988 C 0.02427 0.54865 0.17387 0.0
C989 C 0.02216 0.5332 0.18401 0.0
C990 C 0.00184 0.50567 0.3194 0.0
C991 C 0.00197 0.40833 0.16867 0.0
H992 H 0.54656 0.5388 0.35345 0.0
H993 H 0.38459 0.3642 0.20867 0.0
H994 H 0.53111 0.52585 0.23187 0.0
H995 H 0.56222 0.55507 0.24197 0.0
H996 H 0.57833 0.51949 0.27165 0.0
H997 H 0.54755 0.48997 0.26056 0.0
H998 H 0.51529 0.51627 0.27287 0.0
H999 H 0.52849 0.53078 0.30589 0.0
H1000 H 0.5257 0.47725 0.31906 0.0
H1001 H 0.5128 0.46303 0.28585 0.0
H1002 H 0.47182 0.48286 0.27209 0.0
H1003 H 0.44681 0.46926 0.29455 0.0
H1004 H 0.44771 0.41556 0.29106 0.0
H1005 H 0.47245 0.42922 0.26808 0.0
H1006 H 0.44759 0.45891 0.23507 0.0
H1007 H 0.41451 0.43207 0.22816 0.0
H1008 H 0.43369 0.39174 0.21543 0.0
H1009 H 0.46668 0.4187 0.22254 0.0
H1010 H 0.47005 0.47849 0.20078 0.0
H1011 H 0.45113 0.46579 0.16983 0.0
H1012 H 0.47076 0.42536 0.16064 0.0
H1013 H 0.49038 0.43893 0.19137 0.0
H1014 H 0.50568 0.5047 0.19818 0.0
H1015 H 0.5263 0.52329 0.1734 0.0
H1016 H 0.56176 0.49944 0.18503 0.0
H1017 H 0.54053 0.48027 0.20957 0.0
O1018 O 0.54119 0.53271 0.34051 0.0
O1019 O 0.53876 0.50461 0.3468 0.0
O1020 O 0.3884 0.39638 0.21833 0.0
O1021 O 0.39753 0.37507 0.21153 0.0
C1022 C 0.51748 0.48847 0.24113 0.0
C1023 C 0.50587 0.48019 0.25665 0.0
C1024 C 0.48693 0.4644 0.25279 0.0
C1025 C 0.47952 0.45698 0.23352 0.0
C1026 C 0.4908 0.46572 0.21805 0.0
C1027 C 0.50985 0.48128 0.22178 0.0
C1028 C 0.53711 0.50571 0.24527 0.0
C1029 C 0.5416 0.52418 0.23987 0.0
C1030 C 0.55928 0.54085 0.24569 0.0
C1031 C 0.57254 0.53933 0.25738 0.0
C1032 C 0.5683 0.52085 0.26244 0.0
C1033 C 0.55078 0.50409 0.25619 0.0
C1034 C 0.51323 0.48866 0.27694 0.0
C1035 C 0.5176 0.50773 0.28289 0.0
C1036 C 0.5251 0.51596 0.30178 0.0
C1037 C 0.5282 0.5052 0.3151 0.0
C1038 C 0.52352 0.48596 0.30915 0.0
C1039 C 0.5161 0.47777 0.29022 0.0
C1040 C 0.47398 0.45706 0.2686 0.0
C1041 C 0.46686 0.46831 0.27651 0.0
C1042 C 0.45257 0.46049 0.28934 0.0
C1043 C 0.44519 0.44127 0.29458 0.0
C1044 C 0.45286 0.43028 0.2871 0.0
C1045 C 0.46712 0.43811 0.27416 0.0
C1046 C 0.45946 0.44068 0.22939 0.0
C1047 C 0.44458 0.44424 0.23088 0.0
C1048 C 0.42572 0.4289 0.22688 0.0
C1049 C 0.42145 0.40974 0.22126 0.0
C1050 C 0.43647 0.4063 0.21974 0.0
C1051 C 0.45531 0.42165 0.22378 0.0
C1052 C 0.48169 0.45975 0.19812 0.0
C1053 C 0.4706 0.46723 0.19181 0.0
C1054 C 0.4596 0.45975 0.17427 0.0
C1055 C 0.45922 0.44437 0.16286 0.0
C1056 C 0.47088 0.43733 0.16897 0.0
C1057 C 0.48208 0.44503 0.18649 0.0
C1058 C 0.52146 0.49095 0.2055 0.0
C1059 C 0.51758 0.50305 0.19504 0.0
C1060 C 0.52955 0.51389 0.18109 0.0
C1061 C 0.54576 0.51297 0.17743 0.0
C1062 C 0.54931 0.50034 0.18748 0.0
C1063 C 0.53726 0.48945 0.20149 0.0
C1064 C 0.53634 0.51407 0.3351 0.0
C1065 C 0.40145 0.39339 0.21698 0.0
H1066 H 0.50184 0.98045 0.36651 0.0
H1067 H 0.37455 0.97884 0.19997 0.0
H1068 H 0.53017 0.01462 0.27227 0.0
H1069 H 0.55143 0.00701 0.28979 0.0
H1070 H 0.52465 0.95037 0.25669 0.0
H1071 H 0.50341 0.95815 0.23923 0.0
H1072 H 0.49489 0.01011 0.2937 0.0
H1073 H 0.49897 0.00301 0.3267 0.0
H1074 H 0.48348 0.94431 0.30501 0.0
H1075 H 0.47921 0.95154 0.27213 0.0
H1076 H 0.46421 0.01605 0.26978 0.0
H1077 H 0.43765 0.01197 0.28797 0.0
H1078 H 0.41572 0.94976 0.28705 0.0
H1079 H 0.44241 0.95396 0.26862 0.0
H1080 H 0.46712 0.02436 0.22746 0.0
H1081 H 0.43967 0.02592 0.21579 0.0
H1082 H 0.40393 0.9629 0.21614 0.0
H1083 H 0.43155 0.96155 0.22762 0.0
H1084 H 0.50138 0.03058 0.20733 0.0
H1085 H 0.49408 0.03862 0.17591 0.0
H1086 H 0.45023 0.97764 0.16194 0.0
H1087 H 0.45797 0.96979 0.19299 0.0
H1088 H 0.53383 0.02642 0.23243 0.0
H1089 H 0.55818 0.03669 0.20906 0.0
H1090 H 0.52112 0.98351 0.17203 0.0
H1091 H 0.49708 0.97318 0.19575 0.0
O1092 O 0.49988 0.98285 0.35339 0.0
O1093 O 0.49188 0.95286 0.34149 0.0
O1094 O 0.40458 0.01104 0.20491 0.0
O1095 O 0.38564 0.97866 0.20463 0.0
C1096 C 0.49947 0.98933 0.24778 0.0
C1097 C 0.48519 0.98604 0.26051 0.0
C1098 C 0.46964 0.98759 0.25426 0.0
C1099 C 0.46805 0.99188 0.23512 0.0
C1100 C 0.48229 0.99521 0.22241 0.0
C1101 C 0.49819 0.99421 0.2288 0.0
C1102 C 0.51531 0.98694 0.2545 0.0
C1103 C 0.52936 0.00086 0.26835 0.0
C1104 C 0.54144 0.99646 0.27836 0.0
C1105 C 0.53953 0.978 0.27474 0.0
C1106 C 0.52627 0.96461 0.25992 0.0
C1107 C 0.5143 0.96911 0.24979 0.0
C1108 C 0.48678 0.98134 0.28058 0.0
C1109 C 0.49223 0.99568 0.29615 0.0
C1110 C 0.49462 0.9916 0.31496 0.0
C1111 C 0.4916 0.9731 0.31849 0.0
C1112 C 0.48594 0.95871 0.3028 0.0
C1113 C 0.4835 0.96279 0.28402 0.0
C1114 C 0.45513 0.98529 0.26776 0.0
C1115 C 0.45383 0.00159 0.27374 0.0
C1116 C 0.43864 0.99921 0.28404 0.0
C1117 C 0.42452 0.9805 0.28868 0.0
C1118 C 0.42644 0.96434 0.28369 0.0
C1119 C 0.44163 0.96671 0.2732 0.0
C1120 C 0.45131 0.99284 0.22831 0.0
C1121 C 0.45336 0.01091 0.22494 0.0
C1122 C 0.43765 0.01176 0.21832 0.0
C1123 C 0.4196 0.99452 0.21501 0.0
C1124 C 0.41762 0.97645 0.21852 0.0
C1125 C 0.43335 0.97563 0.22511 0.0
C1126 C 0.4802 0.99961 0.20236 0.0
C1127 C 0.49055 0.01894 0.19721 0.0
C1128 C 0.48623 0.02351 0.17937 0.0
C1129 C 0.47151 0.0088 0.16644 0.0
C1130 C 0.46183 0.9893 0.17138 0.0
C1131 C 0.46616 0.98476 0.18915 0.0
C1132 C 0.51371 0.99906 0.21579 0.0
C1133 C 0.53115 0.01683 0.21945 0.0
C1134 C 0.54495 0.02276 0.20598 0.0
C1135 C 0.54154 0.01101 0.18859 0.0
C1136 C 0.52429 0.99283 0.18534 0.0
C1137 C 0.5105 0.98692 0.19883 0.0
C1138 C 0.49443 0.96891 0.33844 0.0
C1139 C 0.40287 0.99532 0.20789 0.0
H1140 H 0.5165 0.04697 0.71003 0.0
H1141 H 0.61133 0.99246 0.86557 0.0
H1142 H 0.50024 0.04233 0.80761 0.0
H1143 H 0.47335 0.03985 0.78937 0.0
H1144 H 0.43732 0.98094 0.80617 0.0
H1145 H 0.46493 0.98274 0.82193 0.0
H1146 H 0.53616 0.04949 0.7923 0.0
H1147 H 0.53224 0.05417 0.75836 0.0
H1148 H 0.48678 0.99335 0.74823 0.0
H1149 H 0.49105 0.98879 0.78217 0.0
H1150 H 0.5667 0.05038 0.81829 0.0
H1151 H 0.59164 0.05979 0.79559 0.0
H1152 H 0.55829 0.0025 0.76394 0.0
H1153 H 0.53349 0.99323 0.78675 0.0
H1154 H 0.56367 0.0389 0.86109 0.0
H1155 H 0.59081 0.03755 0.87423 0.0
H1156 H 0.57021 0.98244 0.8397 0.0
H1157 H 0.54299 0.98386 0.82689 0.0
H1158 H 0.53201 0.03161 0.88204 0.0
H1159 H 0.54131 0.02505 0.91329 0.0
H1160 H 0.52133 0.96552 0.89053 0.0
H1161 H 0.51237 0.9723 0.85917 0.0
H1162 H 0.4981 0.03708 0.85708 0.0
H1163 H 0.47496 0.03428 0.87978 0.0
H1164 H 0.45439 0.97247 0.88116 0.0
H1165 H 0.47803 0.97561 0.85874 0.0
O1166 O 0.51788 0.04476 0.72337 0.0
O1167 O 0.49454 0.01341 0.71895 0.0
O1168 O 0.61062 0.02164 0.87817 0.0
O1169 O 0.60086 0.99347 0.86044 0.0
C1170 C 0.50197 0.01258 0.82303 0.0
C1171 C 0.5163 0.01594 0.81031 0.0
C1172 C 0.53272 0.01609 0.81706 0.0
C1173 C 0.53434 0.01173 0.83612 0.0
C1174 C 0.51972 0.00756 0.84862 0.0
C1175 C 0.50383 0.00858 0.84233 0.0
C1176 C 0.48475 0.01256 0.81572 0.0
C1177 C 0.48652 0.02885 0.80724 0.0
C1178 C 0.47094 0.02746 0.79699 0.0
C1179 C 0.45298 0.00997 0.7957 0.0
C1180 C 0.45096 0.99438 0.80595 0.0
C1181 C 0.46672 0.99551 0.81545 0.0
C1182 C 0.51395 0.01879 0.78966 0.0
C1183 C 0.52547 0.03716 0.78269 0.0
C1184 C 0.52314 0.03981 0.76331 0.0
C1185 C 0.50919 0.02414 0.75057 0.0
C1186 C 0.49766 0.00573 0.75765 0.0
C1187 C 0.50005 0.00309 0.77702 0.0
C1188 C 0.54835 0.02113 0.80415 0.0
C1189 C 0.5649 0.03984 0.80654 0.0
C1190 C 0.57902 0.04523 0.79349 0.0
C1191 C 0.57687 0.03192 0.77795 0.0
C1192 C 0.56041 0.01302 0.77586 0.0
C1193 C 0.54624 0.0077 0.78882 0.0
C1194 C 0.55138 0.01145 0.84311 0.0
C1195 C 0.56509 0.02658 0.85637 0.0
C1196 C 0.58056 0.02576 0.86384 0.0
C1197 C 0.58266 0.00985 0.85805 0.0
C1198 C 0.56902 0.99488 0.84449 0.0
C1199 C 0.5535 0.99568 0.83709 0.0
C1200 C 0.52154 0.00243 0.86841 0.0
C1201 C 0.52919 0.01703 0.88397 0.0
C1202 C 0.53457 0.01329 0.90171 0.0
C1203 C 0.5321 0.99481 0.9042 0.0
C1204 C 0.52325 0.97982 0.88899 0.0
C1205 C 0.51814 0.98366 0.87114 0.0
C1206 C 0.48971 0.00656 0.85623 0.0
C1207 C 0.48859 0.02294 0.8623 0.0
C1208 C 0.47526 0.02126 0.87518 0.0
C1209 C 0.46265 0.00309 0.88219 0.0
C1210 C 0.46397 0.98671 0.87621 0.0
C1211 C 0.47741 0.98845 0.86336 0.0
C1212 C 0.50671 0.02703 0.73001 0.0
C1213 C 0.59891 0.00876 0.86618 0.0
H1214 H 0.97505 0.45329 0.71396 0.0
H1215 H 0.99732 0.60481 0.89105 0.0
H1216 H 0.97263 0.44647 0.83122 0.0
H1217 H 0.97519 0.41817 0.82059 0.0
H1218 H 0.03337 0.4574 0.80776 0.0
H1219 H 0.03061 0.48572 0.81824 0.0
H1220 H 0.96701 0.46333 0.79667 0.0
H1221 H 0.96515 0.45411 0.76199 0.0
H1222 H 0.02094 0.50539 0.75806 0.0
H1223 H 0.02261 0.51436 0.79279 0.0
H1224 H 0.95912 0.49783 0.80524 0.0
H1225 H 0.95113 0.51544 0.78301 0.0
H1226 H 0.00983 0.56337 0.78868 0.0
H1227 H 0.01735 0.54592 0.81165 0.0
H1228 H 0.96133 0.5167 0.84239 0.0
H1229 H 0.95708 0.5432 0.85552 0.0
H1230 H 0.01665 0.57736 0.87553 0.0
H1231 H 0.02076 0.55091 0.86202 0.0
H1232 H 0.96492 0.49624 0.87565 0.0
H1233 H 0.96311 0.50983 0.90738 0.0
H1234 H 0.02376 0.53613 0.91896 0.0
H1235 H 0.02547 0.52308 0.88668 0.0
H1236 H 0.97631 0.46355 0.87583 0.0
H1237 H 0.98318 0.44494 0.89791 0.0
H1238 H 0.04103 0.47368 0.88121 0.0
H1239 H 0.03415 0.49268 0.8597 0.0
O1240 O 0.97611 0.45717 0.72766 0.0
O1241 O 0.00491 0.48361 0.72645 0.0
O1242 O 0.96846 0.57679 0.87355 0.0
O1243 O 0.99871 0.59435 0.8852 0.0
C1244 C 0.99963 0.48488 0.83191 0.0
C1245 C 0.99598 0.49503 0.81816 0.0
C1246 C 0.99316 0.51038 0.8244 0.0
C1247 C 0.99373 0.51539 0.84437 0.0
C1248 C 0.99677 0.50475 0.8581 0.0
C1249 C 1.00032 0.48991 0.85192 0.0
C1250 C 0.00142 0.46801 0.82539 0.0
C1251 C 0.9859 0.4489 0.82608 0.0
C1252 C 0.98737 0.43284 0.82001 0.0
C1253 C 0.00448 0.43569 0.8134 0.0
C1254 C 0.0201 0.45488 0.81295 0.0
C1255 C 0.01852 0.47098 0.81878 0.0
C1256 C 0.99496 0.48946 0.79718 0.0
C1257 C 0.97882 0.47249 0.78828 0.0
C1258 C 0.9778 0.4673 0.76848 0.0
C1259 C 0.9929 0.47901 0.75724 0.0
C1260 C 0.00906 0.49604 0.76628 0.0
C1261 C 0.01006 0.50121 0.78609 0.0
C1262 C 0.98877 0.52068 0.81004 0.0
C1263 C 0.97022 0.51212 0.80157 0.0
C1264 C 0.96574 0.52217 0.78877 0.0
C1265 C 0.97982 0.54089 0.78401 0.0
C1266 C 0.99854 0.54917 0.79226 0.0
C1267 C 0.00293 0.53919 0.80526 0.0
C1268 C 0.99138 0.53197 0.8511 0.0
C1269 C 0.9735 0.53006 0.84931 0.0
C1270 C 0.97109 0.54516 0.85695 0.0
C1271 C 0.98653 0.56239 0.86662 0.0
C1272 C 0.00447 0.56431 0.86819 0.0
C1273 C 0.00687 0.54924 0.86045 0.0
C1274 C 0.99535 0.5089 0.87886 0.0
C1275 C 0.97773 0.50454 0.88526 0.0
C1276 C 0.97672 0.51225 0.90345 0.0
C1277 C 0.99334 0.5243 0.91561 0.0
C1278 C 0.01076 0.52722 0.90975 0.0
C1279 C 0.01177 0.51962 0.89145 0.0
C1280 C 0.00473 0.47948 0.86622 0.0
C1281 C 0.99051 0.46598 0.87716 0.0
C1282 C 0.99443 0.45521 0.88958 0.0
C1283 C 0.01264 0.45769 0.89123 0.0
C1284 C 0.02693 0.47152 0.88045 0.0
C1285 C 0.023 0.48232 0.86808 0.0
C1286 C 0.99175 0.47348 0.7362 0.0
C1287 C 0.98395 0.57824 0.87527 0.0
H1288 H 0.48293 0.50225 0.70409 0.0
H1289 H 0.63273 0.62987 0.86453 0.0
H1290 H 0.46633 0.51167 0.80747 0.0
H1291 H 0.43594 0.48244 0.7952 0.0
H1292 H 0.45538 0.4455 0.81595 0.0
H1293 H 0.48577 0.47483 0.82805 0.0
H1294 H 0.50218 0.5406 0.78304 0.0
H1295 H 0.49372 0.52921 0.7486 0.0
H1296 H 0.49803 0.47875 0.7585 0.0
H1297 H 0.50667 0.49044 0.79287 0.0
H1298 H 0.53779 0.57565 0.80548 0.0
H1299 H 0.56456 0.59596 0.78648 0.0
H1300 H 0.57627 0.54922 0.77945 0.0
H1301 H 0.5492 0.5289 0.79823 0.0
H1302 H 0.53801 0.58181 0.85197 0.0
H1303 H 0.56826 0.61192 0.86246 0.0
H1304 H 0.59822 0.58236 0.84731 0.0
H1305 H 0.56786 0.55227 0.83716 0.0
H1306 H 0.50288 0.55018 0.87536 0.0
H1307 H 0.51433 0.56582 0.90826 0.0
H1308 H 0.56055 0.55501 0.90578 0.0
H1309 H 0.54792 0.53789 0.87363 0.0
H1310 H 0.46946 0.51931 0.85325 0.0
H1311 H 0.44654 0.50047 0.87654 0.0
H1312 H 0.47958 0.47445 0.89099 0.0
H1313 H 0.50276 0.49411 0.86844 0.0
O1314 O 0.48639 0.50653 0.71775 0.0
O1315 O 0.48872 0.48082 0.72362 0.0
O1316 O 0.60448 0.63261 0.86831 0.0
O1317 O 0.62057 0.61814 0.86056 0.0
C1318 C 0.49682 0.51291 0.82507 0.0
C1319 C 0.50993 0.52319 0.81132 0.0
C1320 C 0.52766 0.54008 0.81749 0.0
C1321 C 0.53233 0.54665 0.83739 0.0
C1322 C 0.51935 0.53611 0.85119 0.0
C1323 C 0.50151 0.51932 0.84499 0.0
C1324 C 0.47816 0.49527 0.81857 0.0
C1325 C 0.46392 0.49724 0.80946 0.0
C1326 C 0.44659 0.48058 0.80259 0.0
C1327 C 0.44335 0.46174 0.80464 0.0
C1328 C 0.45758 0.45986 0.81406 0.0
C1329 C 0.47485 0.47653 0.82104 0.0
C1330 C 0.50501 0.51633 0.79041 0.0
C1331 C 0.50136 0.52714 0.77771 0.0
C1332 C 0.49649 0.52057 0.75806 0.0
C1333 C 0.49517 0.50305 0.75079 0.0
C1334 C 0.4989 0.49229 0.76362 0.0
C1335 C 0.50381 0.49891 0.78325 0.0
C1336 C 0.54167 0.5509 0.80328 0.0
C1337 C 0.54591 0.56969 0.79948 0.0
C1338 C 0.56129 0.58129 0.78878 0.0
C1339 C 0.57272 0.5743 0.78173 0.0
C1340 C 0.5677 0.55499 0.7846 0.0
C1341 C 0.55227 0.54337 0.79531 0.0
C1342 C 0.55076 0.56489 0.84376 0.0
C1343 C 0.55113 0.58186 0.85099 0.0
C1344 C 0.56842 0.59904 0.85694 0.0
C1345 C 0.58567 0.59956 0.85569 0.0
C1346 C 0.58521 0.58248 0.84844 0.0
C1347 C 0.5679 0.56529 0.84257 0.0
C1348 C 0.52461 0.54297 0.87207 0.0
C1349 C 0.5151 0.55063 0.88221 0.0
C1350 C 0.52191 0.55989 0.9009 0.0
C1351 C 0.53865 0.56211 0.90963 0.0
C1352 C 0.54756 0.5535 0.89972 0.0
C1353 C 0.54045 0.54383 0.88122 0.0
C1354 C 0.4878 0.50815 0.85932 0.0
C1355 C 0.47175 0.50964 0.86163 0.0
C1356 C 0.45861 0.49873 0.87483 0.0
C1357 C 0.46117 0.48593 0.88578 0.0
C1358 C 0.4773 0.48446 0.88323 0.0
C1359 C 0.49053 0.49557 0.87024 0.0
C1360 C 0.48991 0.49607 0.72993 0.0
C1361 C 0.60409 0.61779 0.86192 0.0
H1362 H 0.65613 0.84107 0.68963 0.0
H1363 H 0.67283 0.71468 0.53177 0.0
H1364 H 0.62971 0.83622 0.57896 0.0
H1365 H 0.62901 0.86566 0.58966 0.0
H1366 H 0.68969 0.90131 0.58508 0.0
H1367 H 0.69022 0.87179 0.57459 0.0
H1368 H 0.63626 0.80654 0.60922 0.0
H1369 H 0.63921 0.81661 0.64385 0.0
H1370 H 0.69707 0.86367 0.63869 0.0
H1371 H 0.69394 0.85331 0.60412 0.0
H1372 H 0.63683 0.77051 0.58805 0.0
H1373 H 0.64385 0.74754 0.60232 0.0
H1374 H 0.70335 0.79285 0.61031 0.0
H1375 H 0.6962 0.81576 0.59593 0.0
H1376 H 0.62925 0.7651 0.54247 0.0
H1377 H 0.62783 0.73444 0.53249 0.0
H1378 H 0.68831 0.76298 0.5471 0.0
H1379 H 0.68959 0.79364 0.55661 0.0
H1380 H 0.62593 0.79504 0.5188 0.0
H1381 H 0.62014 0.77646 0.48752 0.0
H1382 H 0.6787 0.79127 0.49102 0.0
H1383 H 0.68462 0.81123 0.52129 0.0
H1384 H 0.62545 0.82411 0.53347 0.0
H1385 H 0.62248 0.84579 0.51224 0.0
H1386 H 0.68385 0.88286 0.51503 0.0
H1387 H 0.68648 0.86027 0.53504 0.0
O1388 O 0.6553 0.83727 0.67594 0.0
O1389 O 0.68495 0.86127 0.67251 0.0
O1390 O 0.64214 0.71293 0.52718 0.0
O1391 O 0.67304 0.7267 0.5353 0.0
C1392 C 0.66038 0.83424 0.56955 0.0
C1393 C 0.66284 0.82324 0.58323 0.0
C1394 C 0.66279 0.80615 0.57687 0.0
C1395 C 0.66015 0.79998 0.55688 0.0
C1396 C 0.65792 0.81113 0.54318 0.0
C1397 C 0.65799 0.82826 0.54954 0.0
C1398 C 0.66003 0.85197 0.57617 0.0
C1399 C 0.64281 0.85042 0.58033 0.0
C1400 C 0.64243 0.86721 0.58628 0.0
C1401 C 0.6593 0.88576 0.58822 0.0
C1402 C 0.67651 0.88719 0.58394 0.0
C1403 C 0.67685 0.87041 0.57792 0.0
C1404 C 0.66485 0.82926 0.60422 0.0
C1405 C 0.64956 0.81899 0.61564 0.0
C1406 C 0.65129 0.82479 0.63539 0.0
C1407 C 0.66837 0.84098 0.64404 0.0
C1408 C 0.68371 0.85117 0.63249 0.0
C1409 C 0.68196 0.84532 0.61275 0.0
C1410 C 0.66603 0.7947 0.59082 0.0
C1411 C 0.65126 0.77567 0.59354 0.0
C1412 C 0.65532 0.76255 0.60149 0.0
C1413 C 0.67419 0.76836 0.60701 0.0
C1414 C 0.68869 0.78803 0.60615 0.0
C1415 C 0.68462 0.80113 0.59805 0.0
C1416 C 0.6595 0.78155 0.5503 0.0
C1417 C 0.64219 0.76472 0.54335 0.0
C1418 C 0.64141 0.74723 0.53773 0.0
C1419 C 0.65796 0.74624 0.53907 0.0
C1420 C 0.67531 0.76321 0.54592 0.0
C1421 C 0.67608 0.78073 0.5514 0.0
C1422 C 0.65571 0.80455 0.52229 0.0
C1423 C 0.63771 0.79509 0.51229 0.0
C1424 C 0.63435 0.78406 0.4946 0.0
C1425 C 0.64879 0.78182 0.48688 0.0
C1426 C 0.6672 0.79265 0.49628 0.0
C1427 C 0.67065 0.80409 0.51369 0.0
C1428 C 0.65617 0.84044 0.53543 0.0
C1429 C 0.6382 0.83666 0.52903 0.0
C1430 C 0.63657 0.84929 0.51717 0.0
C1431 C 0.65292 0.86621 0.51186 0.0
C1432 C 0.67092 0.86982 0.51837 0.0
C1433 C 0.6725 0.85698 0.5299 0.0
C1434 C 0.67012 0.84717 0.665 0.0
C1435 C 0.65716 0.7276 0.53346 0.0
H1436 H 0.188 0.83708 0.70146 0.0
H1437 H 0.03703 0.71046 0.5421 0.0
H1438 H 0.18419 0.85806 0.60392 0.0
H1439 H 0.21583 0.88616 0.61269 0.0
H1440 H 0.23971 0.8589 0.57728 0.0
H1441 H 0.20788 0.82981 0.57018 0.0
H1442 H 0.15322 0.83164 0.62477 0.0
H1443 H 0.16479 0.8364 0.65873 0.0
H1444 H 0.19734 0.80971 0.64354 0.0
H1445 H 0.18545 0.8048 0.60963 0.0
H1446 H 0.11765 0.81183 0.60033 0.0
H1447 H 0.09292 0.79619 0.62292 0.0
H1448 H 0.1098 0.7541 0.63138 0.0
H1449 H 0.13468 0.77 0.60867 0.0
H1450 H 0.10801 0.80412 0.55605 0.0
H1451 H 0.07466 0.77979 0.54604 0.0
H1452 H 0.08452 0.73326 0.55813 0.0
H1453 H 0.11788 0.75774 0.56788 0.0
H1454 H 0.1408 0.83137 0.53437 0.0
H1455 H 0.12581 0.82414 0.50132 0.0
H1456 H 0.12416 0.76913 0.49647 0.0
H1457 H 0.13916 0.77652 0.52937 0.0
H1458 H 0.18312 0.86109 0.55692 0.0
H1459 H 0.20549 0.8809 0.53382 0.0
H1460 H 0.2026 0.82899 0.50709 0.0
H1461 H 0.18092 0.80949 0.53099 0.0
O1462 O 0.18352 0.83497 0.68795 0.0
O1463 O 0.20004 0.8212 0.67937 0.0
O1464 O 0.04586 0.74484 0.53978 0.0
O1465 O 0.05016 0.72039 0.54592 0.0
C1466 C 0.17404 0.8255 0.58017 0.0
C1467 C 0.16134 0.81474 0.59412 0.0
C1468 C 0.14201 0.80113 0.58834 0.0
C1469 C 0.13559 0.79741 0.5686 0.0
C1470 C 0.14829 0.80787 0.55464 0.0
C1471 C 0.16747 0.82208 0.56037 0.0
C1472 C 0.19368 0.8418 0.5865 0.0
C1473 C 0.19629 0.85789 0.59848 0.0
C1474 C 0.21443 0.87419 0.60311 0.0
C1475 C 0.23041 0.87511 0.59532 0.0
C1476 C 0.2278 0.85873 0.58363 0.0
C1477 C 0.20961 0.84213 0.57944 0.0
C1478 C 0.16833 0.81767 0.61477 0.0
C1479 C 0.16269 0.82664 0.62883 0.0
C1480 C 0.1694 0.82944 0.64821 0.0
C1481 C 0.18196 0.82339 0.65387 0.0
C1482 C 0.18766 0.8145 0.63969 0.0
C1483 C 0.1809 0.81169 0.62032 0.0
C1484 C 0.12795 0.79206 0.60298 0.0
C1485 C 0.11612 0.79935 0.60722 0.0
C1486 C 0.10208 0.79046 0.62015 0.0
C1487 C 0.09949 0.77397 0.62893 0.0
C1488 C 0.11145 0.76674 0.62473 0.0
C1489 C 0.12568 0.77582 0.6119 0.0
C1490 C 0.11534 0.78266 0.56257 0.0
C1491 C 0.10294 0.78866 0.55642 0.0
C1492 C 0.08391 0.77474 0.55076 0.0
C1493 C 0.07693 0.75456 0.55127 0.0
C1494 C 0.08942 0.74865 0.55755 0.0
C1495 C 0.10847 0.76259 0.56314 0.0
C1496 C 0.14108 0.80447 0.53412 0.0
C1497 C 0.13743 0.81792 0.52599 0.0
C1498 C 0.12878 0.81371 0.50726 0.0
C1499 C 0.12385 0.7961 0.49638 0.0
C1500 C 0.12802 0.78293 0.50444 0.0
C1501 C 0.13652 0.78707 0.5232 0.0
C1502 C 0.18044 0.83387 0.54569 0.0
C1503 C 0.18738 0.85403 0.54611 0.0
C1504 C 0.20006 0.86529 0.53277 0.0
C1505 C 0.20585 0.85656 0.5185 0.0
C1506 C 0.19868 0.83626 0.51802 0.0
C1507 C 0.18613 0.82504 0.53152 0.0
C1508 C 0.18909 0.82642 0.67446 0.0
C1509 C 0.05671 0.73971 0.5453 0.0
H1510 H 0.18774 0.33442 0.69477 0.0
H1511 H 0.04206 0.30796 0.53586 0.0
H1512 H 0.20493 0.36067 0.60123 0.0
H1513 H 0.23074 0.35726 0.61503 0.0
H1514 H 0.21242 0.30599 0.57521 0.0
H1515 H 0.18605 0.30878 0.56217 0.0
H1516 H 0.16738 0.35351 0.62135 0.0
H1517 H 0.17568 0.3502 0.65447 0.0
H1518 H 0.17449 0.29725 0.63439 0.0
H1519 H 0.16587 0.30055 0.6014 0.0
H1520 H 0.12748 0.34723 0.59816 0.0
H1521 H 0.1017 0.33495 0.61968 0.0
H1522 H 0.10329 0.28183 0.62216 0.0
H1523 H 0.12743 0.29336 0.59892 0.0
H1524 H 0.1361 0.36165 0.55592 0.0
H1525 H 0.10633 0.35962 0.54609 0.0
H1526 H 0.07582 0.29685 0.54977 0.0
H1527 H 0.10572 0.29906 0.55937 0.0
H1528 H 0.17209 0.37059 0.53282 0.0
H1529 H 0.16315 0.37583 0.50069 0.0
H1530 H 0.1193 0.31427 0.49187 0.0
H1531 H 0.12886 0.30915 0.52344 0.0
H1532 H 0.20666 0.37078 0.55337 0.0
H1533 H 0.23108 0.37526 0.53158 0.0
H1534 H 0.19382 0.31594 0.50525 0.0
H1535 H 0.16926 0.31207 0.52651 0.0
O1536 O 0.18408 0.33522 0.68163 0.0
O1537 O 0.18365 0.3083 0.67049 0.0
O1538 O 0.07043 0.34147 0.53786 0.0
O1539 O 0.05404 0.30917 0.53967 0.0
C1540 C 0.1759 0.33466 0.57507 0.0
C1541 C 0.16212 0.33009 0.58872 0.0
C1542 C 0.14457 0.3282 0.58315 0.0
C1543 C 0.14121 0.33186 0.5642 0.0
C1544 C 0.15508 0.33658 0.55059 0.0
C1545 C 0.17228 0.33769 0.55596 0.0
C1546 C 0.19361 0.33498 0.58069 0.0
C1547 C 0.20667 0.34889 0.59528 0.0
C1548 C 0.2213 0.34691 0.60317 0.0
C1549 C 0.22338 0.33133 0.59616 0.0
C1550 C 0.21108 0.31816 0.58073 0.0
C1551 C 0.19615 0.31984 0.57319 0.0
C1552 C 0.16613 0.32735 0.60896 0.0
C1553 C 0.16875 0.34112 0.62417 0.0
C1554 C 0.17356 0.33923 0.64306 0.0
C1555 C 0.17585 0.32352 0.64707 0.0
C1556 C 0.17291 0.30956 0.6318 0.0
C1557 C 0.16801 0.31142 0.61295 0.0
C1558 C 0.12935 0.3212 0.59691 0.0
C1559 C 0.12202 0.33282 0.60316 0.0
C1560 C 0.10744 0.32584 0.61576 0.0
C1561 C 0.10029 0.30732 0.62288 0.0
C1562 C 0.10798 0.29592 0.61677 0.0
C1563 C 0.12209 0.30264 0.60369 0.0
C1564 C 0.12304 0.33052 0.55841 0.0
C1565 C 0.12297 0.34748 0.55455 0.0
C1566 C 0.10595 0.34628 0.54897 0.0
C1567 C 0.08868 0.32807 0.54717 0.0
C1568 C 0.08884 0.3111 0.55104 0.0
C1569 C 0.10589 0.31232 0.55657 0.0
C1570 C 0.15108 0.3395 0.53045 0.0
C1571 C 0.16081 0.35822 0.52372 0.0
C1572 C 0.15555 0.36121 0.50546 0.0
C1573 C 0.14048 0.3455 0.49366 0.0
C1574 C 0.13118 0.32667 0.50034 0.0
C1575 C 0.13651 0.3237 0.51847 0.0
C1576 C 0.18624 0.34113 0.54145 0.0
C1577 C 0.20373 0.35892 0.54265 0.0
C1578 C 0.21772 0.36132 0.53033 0.0
C1579 C 0.21456 0.34586 0.51678 0.0
C1580 C 0.19673 0.32824 0.51531 0.0
C1581 C 0.18266 0.32596 0.52747 0.0
C1582 C 0.1814 0.32181 0.66707 0.0
C1583 C 0.07055 0.32672 0.54128 0.0
H1584 H 0.97179 0.37734 0.06397 0.0
H1585 H 0.027 0.40974 0.04061 0.0
H1586 H 0.03428 0.43957 0.06098 0.0
H1587 H 0.96238 0.41704 0.06964 0.0
H1588 H 0.95215 0.41029 0.09256 0.0
H1589 H 0.95042 0.39174 0.07498 0.0
H1590 H 0.96628 0.38113 0.10035 0.0
H1591 H 0.96783 0.39946 0.11802 0.0
H1592 H 0.98896 0.39927 0.11255 0.0
H1593 H 0.03585 0.46563 0.08391 0.0
H1594 H 0.03337 0.48533 0.1112 0.0
H1595 H 0.97818 0.4355 0.12149 0.0
C1596 C 0.98532 0.39079 0.06309 0.0
C1597 C 0.99881 0.39137 0.0507 0.0
C1598 C 0.01653 0.40906 0.05011 0.0
C1599 C 0.02072 0.42609 0.06147 0.0
C1600 C 0.00714 0.42511 0.07354 0.0
C1601 C 0.98994 0.40786 0.07471 0.0
C1602 C 0.97862 0.41043 0.09016 0.0
C1603 C 0.95978 0.40718 0.0813 0.0
C1604 C 0.97523 0.39676 0.10622 0.0
C1605 C 0.99218 0.43176 0.09745 0.0
C1606 C 0.00839 0.44002 0.08744 0.0
C1607 C 0.02323 0.45936 0.09189 0.0
C1608 C 0.02171 0.4704 0.10743 0.0
C1609 C 0.00559 0.46198 0.11847 0.0
C1610 C 0.99049 0.44252 0.11309 0.0
H1611 H 0.59864 0.61052 0.12485 0.0
H1612 H 0.61603 0.58101 0.08332 0.0
H1613 H 0.60241 0.55219 0.10253 0.0
H1614 H 0.60725 0.59124 0.16816 0.0
H1615 H 0.58689 0.58935 0.17909 0.0
H1616 H 0.59971 0.6081 0.16304 0.0
H1617 H 0.56845 0.59557 0.14178 0.0
H1618 H 0.55557 0.57674 0.15765 0.0
H1619 H 0.55476 0.57017 0.13215 0.0
H1620 H 0.58402 0.52539 0.12517 0.0
H1621 H 0.56314 0.50365 0.14901 0.0
H1622 H 0.55881 0.55172 0.17526 0.0
C1623 C 0.59982 0.59812 0.11984 0.0
C1624 C 0.60832 0.59798 0.10252 0.0
C1625 C 0.60963 0.58147 0.09658 0.0
C1626 C 0.60193 0.56504 0.10739 0.0
C1627 C 0.59325 0.56554 0.1242 0.0
C1628 C 0.59237 0.58179 0.13044 0.0
C1629 C 0.58156 0.57853 0.14838 0.0
C1630 C 0.59464 0.59264 0.16569 0.0
C1631 C 0.56405 0.58036 0.14476 0.0
C1632 C 0.57588 0.55764 0.15096 0.0
C1633 C 0.58288 0.55037 0.13707 0.0
C1634 C 0.57866 0.53103 0.13623 0.0
C1635 C 0.56684 0.51881 0.14982 0.0
C1636 C 0.55927 0.52599 0.16386 0.0
C1637 C 0.56419 0.54574 0.16454 0.0
H1638 H 0.41586 0.98206 0.06336 0.0
H1639 H 0.41268 0.03428 0.07378 0.0
H1640 H 0.43461 0.04445 0.10314 0.0
H1641 H 0.415 0.97088 0.11021 0.0
H1642 H 0.43194 0.9631 0.10875 0.0
H1643 H 0.41815 0.96134 0.08731 0.0
H1644 H 0.44906 0.98237 0.07023 0.0
H1645 H 0.463 0.98411 0.09165 0.0
H1646 H 0.46714 0.0061 0.08156 0.0
H1647 H 0.45306 0.04629 0.13367 0.0
H1648 H 0.46752 0.04036 0.16209 0.0
H1649 H 0.46024 0.98798 0.13064 0.0
C1650 C 0.42012 0.99585 0.07161 0.0
C1651 C 0.41265 0.00743 0.06634 0.0
C1652 C 0.41845 0.02534 0.07748 0.0
C1653 C 0.43087 0.03121 0.09417 0.0
C1654 C 0.43768 0.01922 0.09922 0.0
C1655 C 0.43276 0.00209 0.08806 0.0
C1656 C 0.44122 0.99132 0.09711 0.0
C1657 C 0.42565 0.97044 0.10109 0.0
C1658 C 0.45599 0.99096 0.08438 0.0
C1659 C 0.45068 0.0044 0.1157 0.0
C1660 C 0.44875 0.02059 0.11654 0.0
C1661 C 0.45508 0.03394 0.13297 0.0
C1662 C 0.46337 0.03049 0.14902 0.0
C1663 C 0.46517 0.01378 0.14856 0.0
C1664 C 0.45908 0.00088 0.13147 0.0
H1665 H 0.40407 0.97295 0.97697 0.0
H1666 H 0.38487 0.01222 0.96261 0.0
H1667 H 0.40055 0.01749 0.93197 0.0
H1668 H 0.44979 0.00165 0.96041 0.0
H1669 H 0.45169 0.98122 0.95109 0.0
H1670 H 0.43702 0.97848 0.97077 0.0
H1671 H 0.40807 0.94884 0.95104 0.0
H1672 H 0.42268 0.95148 0.93129 0.0
H1673 H 0.40111 0.9517 0.92717 0.0
H1674 H 0.41938 0.01988 0.90389 0.0
H1675 H 0.44169 0.02066 0.88067 0.0
H1676 H 0.45076 0.98164 0.914 0.0
C1677 C 0.40284 0.98229 0.96713 0.0
C1678 C 0.39309 0.99201 0.97199 0.0
C1679 C 0.39222 0.00459 0.95908 0.0
C1680 C 0.40101 0.00761 0.94163 0.0
C1681 C 0.41079 0.99811 0.93737 0.0
C1682 C 0.41188 0.98578 0.94975 0.0
C1683 C 0.4247 0.97877 0.94242 0.0
C1684 C 0.44181 0.98544 0.95704 0.0
C1685 C 0.41346 0.95637 0.9377 0.0
C1686 C 0.43082 0.98931 0.92417 0.0
C1687 C 0.42239 0.00014 0.92143 0.0
C1688 C 0.42609 0.01147 0.90587 0.0
C1689 C 0.43893 0.01195 0.89285 0.0
C1690 C 0.44817 0.00138 0.89555 0.0
C1691 C 0.44381 0.98972 0.91135 0.0
H1692 H 0.98472 0.36462 0.9482 0.0
H1693 H 0.03909 0.39909 0.98168 0.0
H1694 H 0.04896 0.42535 0.95965 0.0
H1695 H 0.00256 0.38137 0.89971 0.0
H1696 H 0.98133 0.38134 0.89264 0.0
H1697 H 0.9802 0.36401 0.90877 0.0
H1698 H 0.96505 0.37629 0.93373 0.0
H1699 H 0.96646 0.39388 0.91793 0.0
H1700 H 0.97741 0.40199 0.94227 0.0
H1701 H 0.05064 0.44992 0.93713 0.0
H1702 H 0.04478 0.46963 0.91507 0.0
H1703 H 0.98935 0.41867 0.89641 0.0
C1704 C 0.99895 0.37742 0.95059 0.0
C1705 C 0.01114 0.37976 0.96667 0.0
C1706 C 0.02957 0.39683 0.96935 0.0
C1707 C 0.03527 0.41187 0.95694 0.0
C1708 C 0.02248 0.40947 0.9418 0.0
C1709 C 0.00482 0.39247 0.93839 0.0
C1710 C 0.993 0.39406 0.9223 0.0
C1711 C 0.98905 0.37932 0.90482 0.0
C1712 C 0.97439 0.39141 0.9295 0.0
C1713 C 0.00641 0.41492 0.91772 0.0
C1714 C 0.02345 0.42353 0.9289 0.0
C1715 C 0.03751 0.44317 0.92803 0.0
C1716 C 0.03406 0.45426 0.91543 0.0
C1717 C 0.01661 0.44572 0.90396 0.0
C1718 C 0.00278 0.42571 0.90506 0.0
H1719 H 0.60189 0.59862 0.01063 0.0
H1720 H 0.59109 0.64632 0.01561 0.0
H1721 H 0.57217 0.634 0.98419 0.0
H1722 H 0.60528 0.59644 0.95858 0.0
H1723 H 0.59304 0.57002 0.95556 0.0
H1724 H 0.60661 0.58314 0.97799 0.0
H1725 H 0.57683 0.56266 0.99682 0.0
H1726 H 0.56315 0.54954 0.97444 0.0
H1727 H 0.55519 0.56208 0.99038 0.0
H1728 H 0.55482 0.61695 0.95239 0.0
H1729 H 0.53925 0.59566 0.92227 0.0
H1730 H 0.55884 0.5572 0.93906 0.0
C1731 C 0.59573 0.60658 0.00496 0.0
C1732 C 0.59802 0.62348 0.01544 0.0
C1733 C 0.58947 0.63332 0.00778 0.0
C1734 C 0.57874 0.62647 0.98995 0.0
C1735 C 0.57651 0.60964 0.98009 0.0
C1736 C 0.58466 0.59973 0.9873 0.0
C1737 C 0.57935 0.58153 0.9741 0.0
C1738 C 0.59713 0.58287 0.96608 0.0
C1739 C 0.56795 0.56285 0.98456 0.0
C1740 C 0.56704 0.58285 0.95834 0.0
C1741 C 0.56572 0.59925 0.96205 0.0
C1742 C 0.55555 0.60392 0.9494 0.0
C1743 C 0.54655 0.59155 0.9324 0.0
C1744 C 0.54752 0.5745 0.92826 0.0
C1745 C 0.55786 0.57013 0.94159 0.0
H1746 H 0.02791 0.62075 0.98612 0.0
H1747 H 0.97613 0.58841 0.01549 0.0
H1748 H 0.96652 0.55874 0.99335 0.0
H1749 H 0.00627 0.59808 0.93773 0.0
H1750 H 0.02717 0.59844 0.93027 0.0
H1751 H 0.02948 0.61694 0.94824 0.0
H1752 H 0.04806 0.60776 0.97184 0.0
H1753 H 0.04553 0.58901 0.95406 0.0
H1754 H 0.03733 0.58274 0.97782 0.0
H1755 H 0.96362 0.53219 0.96891 0.0
H1756 H 0.96603 0.51187 0.94209 0.0
H1757 H 0.01905 0.56259 0.92825 0.0
C1758 C 0.0145 0.60746 0.98784 0.0
C1759 C 0.0028 0.60679 0.00256 0.0
C1760 C 0.98525 0.58921 0.00423 0.0
C1761 C 0.97974 0.57229 0.99182 0.0
C1762 C 0.99184 0.57336 0.9777 0.0
C1763 C 0.00868 0.5906 0.97545 0.0
C1764 C 0.01898 0.5881 0.95893 0.0
C1765 C 0.02056 0.60116 0.94284 0.0
C1766 C 0.03864 0.59214 0.9661 0.0
C1767 C 0.0055 0.56663 0.95245 0.0
C1768 C 0.98995 0.55832 0.96344 0.0
C1769 C 0.97566 0.53859 0.9601 0.0
C1770 C 0.97715 0.52718 0.94485 0.0
C1771 C 0.99276 0.53559 0.9331 0.0
C1772 C 0.00714 0.55555 0.93717 0.0
H1773 H 0.42706 0.42111 0.97467 0.0
H1774 H 0.36878 0.4 0.9545 0.0
H1775 H 0.38038 0.42403 0.92975 0.0
H1776 H 0.4464 0.4736 0.96659 0.0
H1777 H 0.46851 0.47658 0.95942 0.0
H1778 H 0.45535 0.45951 0.9768 0.0
H1779 H 0.45512 0.43169 0.95525 0.0
H1780 H 0.46801 0.44855 0.93771 0.0
H1781 H 0.44554 0.42644 0.93041 0.0
H1782 H 0.39886 0.44705 0.90423 0.0
H1783 H 0.42212 0.46846 0.88202 0.0
H1784 H 0.46813 0.47577 0.92084 0.0
C1785 C 0.41673 0.42185 0.96531 0.0
C1786 C 0.39705 0.40875 0.9664 0.0
C1787 C 0.38392 0.41008 0.95396 0.0
C1788 C 0.3904 0.42362 0.93986 0.0
C1789 C 0.40999 0.43592 0.93877 0.0
C1790 C 0.42293 0.43539 0.95148 0.0
C1791 C 0.44319 0.44937 0.94685 0.0
C1792 C 0.45399 0.46574 0.9634 0.0
C1793 C 0.45356 0.43835 0.94228 0.0
C1794 C 0.43971 0.45729 0.92902 0.0
C1795 C 0.42052 0.4495 0.92459 0.0
C1796 C 0.41393 0.45359 0.90785 0.0
C1797 C 0.4273 0.46586 0.89534 0.0
C1798 C 0.44706 0.47395 0.89963 0.0
C1799 C 0.45319 0.46977 0.91693 0.0
H1800 H 0.61483 0.0251 0.98486 0.0
H1801 H 0.57529 0.9764 0.01607 0.0
H1802 H 0.55073 0.96551 0.98879 0.0
H1803 H 0.58326 0.03741 0.96725 0.0
H1804 H 0.5931 0.04358 0.94409 0.0
H1805 H 0.608 0.04589 0.96481 0.0
H1806 H 0.61706 0.02301 0.9464 0.0
H1807 H 0.60233 0.02078 0.92549 0.0
H1808 H 0.59855 0.99907 0.93592 0.0
H1809 H 0.52975 0.96183 0.95857 0.0
H1810 H 0.51489 0.96567 0.92878 0.0
H1811 H 0.56865 0.01739 0.91892 0.0
C1812 C 0.60109 0.01197 0.98594 0.0
C1813 C 0.59693 0.00165 0.00265 0.0
C1814 C 0.57881 0.98448 0.00336 0.0
C1815 C 0.56478 0.97823 0.98795 0.0
C1816 C 0.56925 0.98918 0.97192 0.0
C1817 C 0.58709 0.00558 0.97081 0.0
C1818 C 0.58829 0.01553 0.95265 0.0
C1819 C 0.59346 0.03686 0.95751 0.0
C1820 C 0.60239 0.01453 0.93933 0.0
C1821 C 0.5681 0.00269 0.94401 0.0
C1822 C 0.55733 0.98733 0.95504 0.0
C1823 C 0.53812 0.97376 0.94982 0.0
C1824 C 0.52979 0.97604 0.93295 0.0
C1825 C 0.54062 0.99197 0.92182 0.0
C1826 C 0.56 0.00528 0.92739 0.0
H1827 H 0.59813 0.00065 0.10198 0.0
H1828 H 0.62058 0.06223 0.09455 0.0
H1829 H 0.60383 0.0645 0.12259 0.0
H1830 H 0.55226 0.98921 0.1143 0.0
H1831 H 0.55011 0.97258 0.13181 0.0
H1832 H 0.56453 0.97607 0.11173 0.0
H1833 H 0.59349 0.98566 0.13552 0.0
H1834 H 0.57915 0.98217 0.1557 0.0
H1835 H 0.60098 0.0053 0.15441 0.0
H1836 H 0.58376 0.05969 0.1509 0.0
H1837 H 0.56166 0.04815 0.17689 0.0
H1838 H 0.55266 0.9898 0.1658 0.0
C1839 C 0.59966 0.01469 0.10625 0.0
C1840 C 0.61073 0.03128 0.09599 0.0
C1841 C 0.61223 0.04931 0.10213 0.0
C1842 C 0.60278 0.05075 0.11807 0.0
C1843 C 0.59192 0.03406 0.12774 0.0
C1844 C 0.59034 0.01638 0.12206 0.0
C1845 C 0.57743 0.00049 0.13456 0.0
C1846 C 0.56005 0.98359 0.12237 0.0
C1847 C 0.58843 0.99297 0.14571 0.0
C1848 C 0.57179 0.01193 0.14806 0.0
C1849 C 0.58038 0.03129 0.14397 0.0
C1850 C 0.57707 0.0446 0.15432 0.0
C1851 C 0.56458 0.03793 0.16914 0.0
C1852 C 0.55548 0.01809 0.17349 0.0
C1853 C 0.55928 0.00502 0.16279 0.0
H1854 H 0.99213 0.60497 0.0864 0.0
H1855 H 0.04598 0.65684 0.10751 0.0
H1856 H 0.04681 0.64069 0.13634 0.0
H1857 H 0.97328 0.58978 0.13518 0.0
H1858 H 0.9629 0.56411 0.12737 0.0
H1859 H 0.96468 0.58092 0.11023 0.0
H1860 H 0.98294 0.56991 0.08829 0.0
H1861 H 0.98141 0.55326 0.1054 0.0
H1862 H 0.00429 0.57162 0.09816 0.0
H1863 H 0.04431 0.61784 0.16013 0.0
H1864 H 0.03822 0.58967 0.17802 0.0
H1865 H 0.98622 0.55202 0.14162 0.0
C1866 C 0.0037 0.61314 0.09748 0.0
C1867 C 0.0189 0.63221 0.0949 0.0
C1868 C 0.03417 0.64224 0.10931 0.0
C1869 C 0.03473 0.63322 0.12575 0.0
C1870 C 0.01991 0.61414 0.12756 0.0
C1871 C 0.00459 0.60421 0.11392 0.0
C1872 C 0.99162 0.58309 0.11833 0.0
C1873 C 0.97196 0.57926 0.12306 0.0
C1874 C 0.98999 0.56863 0.10155 0.0
C1875 C 0.00242 0.58255 0.13614 0.0
C1876 C 0.01856 0.60071 0.14133 0.0
C1877 C 0.03157 0.60362 0.15641 0.0
C1878 C 0.02808 0.58752 0.16638 0.0
C1879 C 0.01177 0.56873 0.16119 0.0
C1880 C 0.99864 0.56631 0.14607 0.0
H1881 H 0.42608 0.39374 0.05472 0.0
H1882 H 0.37219 0.38995 0.0622 0.0
H1883 H 0.38374 0.40585 0.0955 0.0
H1884 H 0.43338 0.38371 0.10272 0.0
H1885 H 0.4587 0.40082 0.10437 0.0
H1886 H 0.44618 0.38913 0.08114 0.0
H1887 H 0.45933 0.42323 0.0682 0.0
H1888 H 0.47192 0.43502 0.09138 0.0
H1889 H 0.45555 0.44112 0.08097 0.0
H1890 H 0.4009 0.4214 0.12816 0.0
H1891 H 0.42273 0.43643 0.15759 0.0
H1892 H 0.46584 0.43123 0.1281 0.0
C1893 C 0.41665 0.39619 0.06333 0.0
C1894 C 0.3982 0.39054 0.05584 0.0
C1895 C 0.3864 0.39418 0.06759 0.0
C1896 C 0.39281 0.40316 0.08653 0.0
C1897 C 0.41106 0.40849 0.09343 0.0
C1898 C 0.42284 0.40523 0.08216 0.0
C1899 C 0.4419 0.41253 0.09293 0.0
C1900 C 0.44522 0.39553 0.09544 0.0
C1901 C 0.45813 0.42895 0.08276 0.0
C1902 C 0.43899 0.42036 0.11208 0.0
C1903 C 0.42109 0.41784 0.11209 0.0
C1904 C 0.41501 0.42363 0.12826 0.0
C1905 C 0.42759 0.43229 0.14486 0.0
C1906 C 0.44611 0.43522 0.14512 0.0
C1907 C 0.45177 0.42911 0.12845 0.0
H1908 H 0.67183 0.72991 0.39869 0.0
H1909 H 0.61441 0.67987 0.39965 0.0
H1910 H 0.60845 0.69742 0.42639 0.0
H1911 H 0.68082 0.74373 0.45018 0.0
H1912 H 0.69376 0.76971 0.4476 0.0
H1913 H 0.69369 0.75291 0.429 0.0
H1914 H 0.68113 0.76663 0.40348 0.0
H1915 H 0.68103 0.78336 0.42203 0.0
H1916 H 0.65958 0.76662 0.40712 0.0
H1917 H 0.609 0.71994 0.45341 0.0
H1918 H 0.61573 0.74603 0.47874 0.0
H1919 H 0.67187 0.78276 0.45824 0.0
C1920 C 0.65808 0.72257 0.40468 0.0
C1921 C 0.64361 0.70347 0.39722 0.0
C1922 C 0.62569 0.69449 0.40518 0.0
C1923 C 0.62217 0.70433 0.42035 0.0
C1924 C 0.63664 0.72323 0.4272 0.0
C1925 C 0.65421 0.73231 0.4196 0.0
C1926 C 0.66712 0.75291 0.42927 0.0
C1927 C 0.68489 0.75492 0.43963 0.0
C1928 C 0.67253 0.76828 0.4146 0.0
C1929 C 0.6541 0.7539 0.44362 0.0
C1930 C 0.63664 0.7366 0.44222 0.0
C1931 C 0.62253 0.73369 0.45446 0.0
C1932 C 0.62645 0.74877 0.4687 0.0
C1933 C 0.64427 0.76673 0.47047 0.0
C1934 C 0.65813 0.76928 0.45748 0.0
H1935 H 0.25115 0.94293 0.44926 0.0
H1936 H 0.29171 0.92589 0.43456 0.0
H1937 H 0.27675 0.89898 0.45607 0.0
H1938 H 0.24913 0.93387 0.49899 0.0
H1939 H 0.22401 0.92455 0.49912 0.0
H1940 H 0.23802 0.94229 0.48265 0.0
H1941 H 0.21539 0.91865 0.45368 0.0
H1942 H 0.20129 0.90084 0.47006 0.0
H1943 H 0.21102 0.89409 0.45025 0.0
H1944 H 0.25733 0.87425 0.48013 0.0
H1945 H 0.23512 0.85379 0.50368 0.0
H1946 H 0.20683 0.88675 0.50078 0.0
C1947 C 0.25703 0.93365 0.45057 0.0
C1948 C 0.27273 0.93664 0.4403 0.0
C1949 C 0.27972 0.92391 0.44229 0.0
C1950 C 0.27132 0.90861 0.45449 0.0
C1951 C 0.25586 0.90615 0.46441 0.0
C1952 C 0.24876 0.9183 0.46245 0.0
C1953 C 0.23189 0.91256 0.47436 0.0
C1954 C 0.23602 0.92931 0.48969 0.0
C1955 C 0.21383 0.90615 0.46131 0.0
C1956 C 0.23067 0.89538 0.48359 0.0
C1957 C 0.24458 0.89185 0.47774 0.0
C1958 C 0.24632 0.87683 0.48468 0.0
C1959 C 0.23354 0.8652 0.49797 0.0
C1960 C 0.21918 0.86861 0.50415 0.0
C1961 C 0.21778 0.88387 0.49666 0.0
H1962 H 0.0806 0.30737 0.39294 0.0
H1963 H 0.07734 0.35983 0.39627 0.0
H1964 H 0.10146 0.37397 0.42425 0.0
H1965 H 0.08206 0.30298 0.44113 0.0
H1966 H 0.09846 0.29447 0.44127 0.0
H1967 H 0.08374 0.29018 0.41968 0.0
H1968 H 0.11362 0.30768 0.40021 0.0
H1969 H 0.12849 0.31187 0.42177 0.0
H1970 H 0.13254 0.33224 0.40856 0.0
H1971 H 0.12171 0.37953 0.45521 0.0
H1972 H 0.13695 0.37666 0.485 0.0
H1973 H 0.12791 0.32109 0.46 0.0
C1974 C 0.08533 0.32207 0.39922 0.0
C1975 C 0.07715 0.33254 0.39248 0.0
C1976 C 0.08361 0.35167 0.40111 0.0
C1977 C 0.09726 0.35977 0.41701 0.0
C1978 C 0.10453 0.34868 0.42377 0.0
C1979 C 0.09899 0.33036 0.41486 0.0
C1980 C 0.10759 0.32061 0.42567 0.0
C1981 C 0.09203 0.30091 0.43233 0.0
C1982 C 0.12138 0.31795 0.41332 0.0
C1983 C 0.1181 0.33584 0.44263 0.0
C1984 C 0.11641 0.35205 0.44123 0.0
C1985 C 0.12351 0.36713 0.45618 0.0
C1986 C 0.13223 0.3654 0.47305 0.0
C1987 C 0.13369 0.34866 0.47488 0.0
C1988 C 0.12696 0.33403 0.45916 0.0
H1989 H 0.06252 0.32832 0.29538 0.0
H1990 H 0.04781 0.26995 0.30893 0.0
H1991 H 0.06664 0.26853 0.28284 0.0
H1992 H 0.06161 0.31882 0.24238 0.0
H1993 H 0.08145 0.34314 0.23993 0.0
H1994 H 0.06572 0.33919 0.2589 0.0
H1995 H 0.09453 0.35512 0.28437 0.0
H1996 H 0.11033 0.35893 0.26552 0.0
H1997 H 0.10994 0.34541 0.2855 0.0
H1998 H 0.0895 0.2745 0.25794 0.0
H1999 H 0.11284 0.28625 0.23343 0.0
H2000 H 0.11149 0.33991 0.23382 0.0
C2001 C 0.06298 0.3151 0.29267 0.0
C2002 C 0.05363 0.29926 0.30433 0.0
C2003 C 0.05476 0.2823 0.30029 0.0
C2004 C 0.06547 0.28133 0.28548 0.0
C2005 C 0.07486 0.29733 0.27462 0.0
C2006 C 0.07353 0.31379 0.27778 0.0
C2007 C 0.08544 0.32908 0.26418 0.0
C2008 C 0.0728 0.33277 0.25054 0.0
C2009 C 0.10098 0.34826 0.27558 0.0
C2010 C 0.09395 0.31877 0.25324 0.0
C2011 C 0.08764 0.3005 0.25957 0.0
C2012 C 0.0942 0.28859 0.2525 0.0
C2013 C 0.10741 0.29539 0.2384 0.0
C2014 C 0.11385 0.31389 0.23119 0.0
C2015 C 0.10696 0.32571 0.23888 0.0
H2016 H 0.64267 0.71649 0.30615 0.0
H2017 H 0.6987 0.72428 0.31345 0.0
H2018 H 0.71087 0.75071 0.29139 0.0
H2019 H 0.64357 0.72545 0.25591 0.0
H2020 H 0.63148 0.73876 0.25866 0.0
H2021 H 0.6271 0.72002 0.27443 0.0
H2022 H 0.63638 0.74515 0.30439 0.0
H2023 H 0.64077 0.76395 0.28871 0.0
H2024 H 0.65918 0.76775 0.30631 0.0
H2025 H 0.71657 0.77572 0.26777 0.0
H2026 H 0.71594 0.79858 0.246 0.0
H2027 H 0.65677 0.77622 0.25672 0.0
C2028 C 0.65746 0.72364 0.30298 0.0
C2029 C 0.66972 0.71823 0.31136 0.0
C2030 C 0.68907 0.7282 0.30715 0.0
C2031 C 0.69609 0.74318 0.29462 0.0
C2032 C 0.68363 0.74819 0.28665 0.0
C2033 C 0.66477 0.73884 0.29081 0.0
C2034 C 0.65451 0.74749 0.28098 0.0
C2035 C 0.6382 0.73201 0.26665 0.0
C2036 C 0.6473 0.75663 0.296 0.0
C2037 C 0.6705 0.76308 0.27052 0.0
C2038 C 0.68714 0.76316 0.27382 0.0
C2039 C 0.70368 0.77595 0.26526 0.0
C2040 C 0.7032 0.78903 0.25303 0.0
C2041 C 0.68635 0.78944 0.24963 0.0
C2042 C 0.66986 0.77625 0.25867 0.0
H2043 H 0.26709 0.93342 0.34728 0.0
H2044 H 0.25282 0.97852 0.35481 0.0
H2045 H 0.23275 0.96545 0.3241 0.0
H2046 H 0.27002 0.93342 0.29624 0.0
H2047 H 0.25942 0.90722 0.29195 0.0
H2048 H 0.27235 0.91983 0.31478 0.0
H2049 H 0.24287 0.89676 0.33288 0.0
H2050 H 0.22984 0.88407 0.3101 0.0
H2051 H 0.22041 0.89457 0.32671 0.0
H2052 H 0.21584 0.94881 0.29174 0.0
H2053 H 0.20246 0.92917 0.26037 0.0
H2054 H 0.22571 0.89328 0.27503 0.0
C2055 C 0.25972 0.94053 0.34251 0.0
C2056 C 0.26156 0.95702 0.35346 0.0
C2057 C 0.25158 0.96583 0.34673 0.0
C2058 C 0.24016 0.95853 0.32929 0.0
C2059 C 0.23867 0.94229 0.31885 0.0
C2060 C 0.24806 0.9333 0.32525 0.0
C2061 C 0.24411 0.9161 0.31123 0.0
C2062 C 0.26257 0.91935 0.30307 0.0
C2063 C 0.23368 0.89673 0.32081 0.0
C2064 C 0.23127 0.91702 0.29581 0.0
C2065 C 0.22834 0.93225 0.30048 0.0
C2066 C 0.21775 0.93662 0.28806 0.0
C2067 C 0.21004 0.92521 0.27029 0.0
C2068 C 0.21279 0.90944 0.26514 0.0
C2069 C 0.22339 0.90525 0.27831 0.0
H2070 H 0.69467 0.96241 0.33794 0.0
H2071 H 0.64116 0.92123 0.36072 0.0
H2072 H 0.63825 0.89452 0.33815 0.0
H2073 H 0.67954 0.94203 0.28813 0.0
H2074 H 0.7026 0.94659 0.28251 0.0
H2075 H 0.70072 0.96222 0.30098 0.0
H2076 H 0.7202 0.95503 0.32553 0.0
H2077 H 0.72188 0.93913 0.30719 0.0
H2078 H 0.7121 0.92996 0.32976 0.0
H2079 H 0.6417 0.87217 0.31402 0.0
H2080 H 0.64893 0.85642 0.28669 0.0
H2081 H 0.69886 0.91275 0.27796 0.0
C2082 C 0.68236 0.94776 0.33814 0.0
C2083 C 0.66818 0.9438 0.35108 0.0
C2084 C 0.65212 0.92454 0.35081 0.0
C2085 C 0.65042 0.90927 0.33818 0.0
C2086 C 0.66477 0.91359 0.32576 0.0
C2087 C 0.68023 0.93242 0.32535 0.0
C2088 C 0.69305 0.93331 0.30978 0.0
C2089 C 0.69402 0.94683 0.29444 0.0
C2090 C 0.71299 0.93973 0.3186 0.0
C2091 C 0.68243 0.91201 0.30163 0.0
C2092 C 0.6663 0.90085 0.31122 0.0
C2093 C 0.6542 0.88079 0.30626 0.0
C2094 C 0.6584 0.872 0.29069 0.0
C2095 C 0.67441 0.88333 0.28008 0.0
C2096 C 0.6867 0.90355 0.28592 0.0
H2097 H 0.08421 0.73015 0.28354 0.0
H2098 H 0.04635 0.7499 0.30124 0.0
H2099 H 0.05986 0.77536 0.27824 0.0
H2100 H 0.1241 0.77622 0.28016 0.0
H2101 H 0.13231 0.76922 0.25914 0.0
H2102 H 0.11831 0.75123 0.27538 0.0
H2103 H 0.09379 0.72906 0.24695 0.0
H2104 H 0.10785 0.74689 0.23053 0.0
H2105 H 0.08314 0.73901 0.23202 0.0
H2106 H 0.08006 0.80096 0.25592 0.0
H2107 H 0.1038 0.82324 0.23461 0.0
H2108 H 0.12742 0.78573 0.23068 0.0
C2109 C 0.07848 0.73958 0.28238 0.0
C2110 C 0.06421 0.73801 0.29425 0.0
C2111 C 0.05719 0.75071 0.29224 0.0
C2112 C 0.06482 0.76527 0.27925 0.0
C2113 C 0.07927 0.76676 0.26819 0.0
C2114 C 0.08583 0.75406 0.26943 0.0
C2115 C 0.10198 0.75921 0.25658 0.0
C2116 C 0.12025 0.76427 0.26854 0.0
C2117 C 0.09635 0.74255 0.24057 0.0
C2118 C 0.10388 0.77715 0.24833 0.0
C2119 C 0.09062 0.78124 0.25512 0.0
C2120 C 0.09028 0.79769 0.25023 0.0
C2121 C 0.1038 0.81023 0.23804 0.0
C2122 C 0.11749 0.80626 0.23083 0.0
C2123 C 0.11733 0.78937 0.23603 0.0
H2124 H 0.27474 0.33629 0.32145 0.0
H2125 H 0.2633 0.3737 0.35921 0.0
H2126 H 0.23859 0.36957 0.33504 0.0
H2127 H 0.27182 0.35624 0.27865 0.0
H2128 H 0.26098 0.3335 0.26331 0.0
H2129 H 0.27583 0.33698 0.28458 0.0
H2130 H 0.24835 0.30537 0.29693 0.0
H2131 H 0.2334 0.30182 0.27566 0.0
H2132 H 0.22556 0.30298 0.29941 0.0
H2133 H 0.21674 0.36327 0.30638 0.0
H2134 H 0.20062 0.35718 0.27395 0.0
H2135 H 0.22749 0.32561 0.25346 0.0
C2136 C 0.26668 0.34319 0.32473 0.0
C2137 C 0.27068 0.35511 0.34224 0.0
C2138 C 0.26033 0.36445 0.34589 0.0
C2139 C 0.24622 0.3621 0.3323 0.0
C2140 C 0.24278 0.35055 0.31502 0.0
C2141 C 0.25277 0.34134 0.31108 0.0
C2142 C 0.24758 0.33142 0.29057 0.0
C2143 C 0.26509 0.34006 0.27858 0.0
C2144 C 0.23816 0.30907 0.29066 0.0
C2145 C 0.23341 0.33682 0.28355 0.0
C2146 C 0.23063 0.34755 0.29803 0.0
C2147 C 0.21875 0.35483 0.29492 0.0
C2148 C 0.20975 0.35141 0.2764 0.0
C2149 C 0.21284 0.34101 0.2611 0.0
C2150 C 0.22458 0.33334 0.2649 0.0
H2151 H 0.2599 0.33546 0.4199 0.0
H2152 H 0.31518 0.37404 0.45041 0.0
H2153 H 0.29979 0.37282 0.48077 0.0
H2154 H 0.23831 0.35849 0.44181 0.0
H2155 H 0.21537 0.33655 0.44294 0.0
H2156 H 0.23059 0.33756 0.42445 0.0
H2157 H 0.229 0.30644 0.43555 0.0
H2158 H 0.2136 0.30522 0.454 0.0
H2159 H 0.23529 0.30595 0.46053 0.0
H2160 H 0.27851 0.36941 0.50698 0.0
H2161 H 0.25285 0.36505 0.52726 0.0
H2162 H 0.21128 0.33118 0.47884 0.0
C2163 C 0.2687 0.34307 0.43316 0.0
C2164 C 0.28868 0.3545 0.43307 0.0
C2165 C 0.29984 0.365 0.45039 0.0
C2166 C 0.29123 0.36436 0.46765 0.0
C2167 C 0.27145 0.35339 0.4672 0.0
C2168 C 0.2603 0.34296 0.45041 0.0
C2169 C 0.23937 0.33415 0.45338 0.0
C2170 C 0.23039 0.34218 0.43984 0.0
C2171 C 0.22869 0.3116 0.45071 0.0
C2172 C 0.24055 0.34152 0.47433 0.0
C2173 C 0.25915 0.35231 0.4821 0.0
C2174 C 0.26387 0.36098 0.50107 0.0
C2175 C 0.24918 0.35861 0.5124 0.0
C2176 C 0.22997 0.34792 0.50466 0.0
C2177 C 0.22572 0.33921 0.48535 0.0
H2178 H 0.68547 0.94574 0.43494 0.0
H2179 H 0.63496 0.94817 0.44435 0.0
H2180 H 0.62604 0.92394 0.46866 0.0
H2181 H 0.66298 0.894 0.43719 0.0
H2182 H 0.68364 0.89552 0.44876 0.0
H2183 H 0.68646 0.91384 0.43312 0.0
H2184 H 0.70622 0.94123 0.46083 0.0
H2185 H 0.70349 0.923 0.47655 0.0
H2186 H 0.69628 0.94008 0.48384 0.0
H2187 H 0.62325 0.89974 0.49244 0.0
H2188 H 0.62571 0.87649 0.51223 0.0
H2189 H 0.67658 0.88802 0.48441 0.0
C2190 C 0.67267 0.94141 0.44232 0.0
C2191 C 0.66104 0.94903 0.43803 0.0
C2192 C 0.64411 0.94257 0.44756 0.0
C2193 C 0.63897 0.92886 0.46137 0.0
C2194 C 0.65075 0.92155 0.46517 0.0
C2195 C 0.66715 0.92749 0.45576 0.0
C2196 C 0.67688 0.91673 0.46159 0.0
C2197 C 0.67752 0.90428 0.44413 0.0
C2198 C 0.6969 0.93112 0.47128 0.0
C2199 C 0.66353 0.90393 0.47598 0.0
C2200 C 0.64862 0.90699 0.47798 0.0
C2201 C 0.63476 0.89709 0.49082 0.0
C2202 C 0.6362 0.88374 0.50189 0.0
C2203 C 0.65128 0.8802 0.49989 0.0
C2204 C 0.665 0.89046 0.48661 0.0
H2205 H 0.09485 0.74271 0.39051 0.0
H2206 H 0.04499 0.74797 0.38987 0.0
H2207 H 0.05741 0.76876 0.42102 0.0
H2208 H 0.09691 0.73689 0.43927 0.0
H2209 H 0.12251 0.75053 0.44259 0.0
H2210 H 0.11087 0.73831 0.41925 0.0
H2211 H 0.12996 0.77118 0.4037 0.0
H2212 H 0.14173 0.78354 0.42705 0.0
H2213 H 0.1292 0.79226 0.4132 0.0
H2214 H 0.07414 0.7865 0.45378 0.0
H2215 H 0.0931 0.7987 0.48536 0.0
H2216 H 0.13151 0.7813 0.46383 0.0
C2217 C 0.08659 0.74844 0.39667 0.0
C2218 C 0.06893 0.74371 0.38768 0.0
C2219 C 0.05861 0.75147 0.39642 0.0
C2220 C 0.06557 0.76332 0.41409 0.0
C2221 C 0.0829 0.76735 0.42269 0.0
C2222 C 0.09327 0.76017 0.41418 0.0
C2223 C 0.11073 0.76528 0.42687 0.0
C2224 C 0.11021 0.74664 0.43232 0.0
C2225 C 0.12898 0.77888 0.41712 0.0
C2226 C 0.10832 0.77599 0.44418 0.0
C2227 C 0.09237 0.77733 0.44145 0.0
C2228 C 0.0868 0.78577 0.45596 0.0
C2229 C 0.09767 0.79271 0.47379 0.0
C2230 C 0.11375 0.79094 0.47695 0.0
C2231 C 0.11926 0.7828 0.4618 0.0
H2232 H 0.30947 0.05891 0.70744 0.0
H2233 H 0.3241 0.0232 0.73952 0.0
H2234 H 0.318 0.03601 0.77016 0.0
H2235 H 0.33333 0.10099 0.74233 0.0
H2236 H 0.31624 0.1083 0.7385 0.0
H2237 H 0.32019 0.09505 0.71913 0.0
H2238 H 0.28421 0.06861 0.71583 0.0
H2239 H 0.28018 0.08169 0.73534 0.0
H2240 H 0.27281 0.0563 0.73669 0.0
H2241 H 0.30971 0.05217 0.79697 0.0
H2242 H 0.3047 0.07445 0.81892 0.0
H2243 H 0.29866 0.1021 0.76976 0.0
C2244 C 0.31124 0.05374 0.72095 0.0
C2245 C 0.31699 0.03995 0.72131 0.0
C2246 C 0.31963 0.03375 0.73914 0.0
C2247 C 0.31608 0.04083 0.75651 0.0
C2248 C 0.3103 0.05437 0.75571 0.0
C2249 C 0.3083 0.06109 0.73845 0.0
C2250 C 0.30357 0.07694 0.74177 0.0
C2251 C 0.31927 0.09647 0.73504 0.0
C2252 C 0.28403 0.07049 0.73182 0.0
C2253 C 0.30317 0.07805 0.76359 0.0
C2254 C 0.30669 0.0646 0.7713 0.0
C2255 C 0.30697 0.06277 0.79112 0.0
C2256 C 0.30402 0.07535 0.80343 0.0
C2257 C 0.30119 0.08973 0.79588 0.0
C2258 C 0.30062 0.09103 0.77574 0.0
H2259 H 0.91727 0.2608 0.77508 0.0
H2260 H 0.96624 0.2541 0.778 0.0
H2261 H 0.95165 0.23064 0.8028 0.0
H2262 H 0.90874 0.25807 0.82559 0.0
H2263 H 0.88324 0.2442 0.82108 0.0
H2264 H 0.89787 0.26087 0.80408 0.0
H2265 H 0.88231 0.23257 0.77649 0.0
H2266 H 0.86762 0.21582 0.7934 0.0
H2267 H 0.88255 0.21042 0.77916 0.0
H2268 H 0.93164 0.20817 0.82766 0.0
H2269 H 0.90741 0.18755 0.84949 0.0
H2270 H 0.87094 0.20774 0.82833 0.0
C2271 C 0.92504 0.25456 0.78102 0.0
C2272 C 0.94296 0.25939 0.77471 0.0
C2273 C 0.95249 0.25061 0.78264 0.0
C2274 C 0.94434 0.23732 0.79675 0.0
C2275 C 0.92661 0.23286 0.8026 0.0
C2276 C 0.91704 0.24113 0.79488 0.0
C2277 C 0.8979 0.23345 0.80309 0.0
C2278 C 0.89689 0.25014 0.81412 0.0
C2279 C 0.88164 0.2224 0.78708 0.0
C2280 C 0.8982 0.2196 0.81672 0.0
C2281 C 0.91491 0.21952 0.81636 0.0
C2282 C 0.91845 0.208 0.82795 0.0
C2283 C 0.90451 0.19622 0.84021 0.0
C2284 C 0.88717 0.1959 0.84064 0.0
C2285 C 0.8841 0.20779 0.82864 0.0
H2286 H 0.73788 0.6287 0.7346 0.0
H2287 H 0.7475 0.68712 0.73126 0.0
H2288 H 0.77175 0.69956 0.75901 0.0
H2289 H 0.74015 0.62953 0.78451 0.0
H2290 H 0.75207 0.61602 0.78576 0.0
H2291 H 0.73722 0.61245 0.76449 0.0
H2292 H 0.76535 0.62123 0.74314 0.0
H2293 H 0.78032 0.62478 0.76438 0.0
H2294 H 0.78754 0.64419 0.74866 0.0
H2295 H 0.7922 0.7044 0.78966 0.0
H2296 H 0.80721 0.70144 0.81958 0.0
H2297 H 0.78501 0.64004 0.80123 0.0
C2298 C 0.74524 0.64419 0.73949 0.0
C2299 C 0.74076 0.65695 0.73081 0.0
C2300 C 0.75078 0.67711 0.73764 0.0
C2301 C 0.76456 0.68428 0.75338 0.0
C2302 C 0.76832 0.67114 0.76186 0.0
C2303 C 0.75906 0.65156 0.75495 0.0
C2304 C 0.76482 0.64014 0.76704 0.0
C2305 C 0.74754 0.62357 0.77598 0.0
C2306 C 0.77513 0.63212 0.75509 0.0
C2307 C 0.7783 0.65618 0.78232 0.0
C2308 C 0.7803 0.67401 0.77906 0.0
C2309 C 0.79102 0.6906 0.79212 0.0
C2310 C 0.7996 0.68879 0.80904 0.0
C2311 C 0.79738 0.67051 0.81279 0.0
C2312 C 0.78694 0.6542 0.79892 0.0
H2313 H 0.72813 0.65502 0.62951 0.0
H2314 H 0.71776 0.59943 0.64748 0.0
H2315 H 0.73544 0.59692 0.62055 0.0
H2316 H 0.72369 0.64142 0.57735 0.0
H2317 H 0.74219 0.66564 0.57242 0.0
H2318 H 0.72794 0.66262 0.59258 0.0
H2319 H 0.75851 0.68168 0.61571 0.0
H2320 H 0.77285 0.68465 0.59567 0.0
H2321 H 0.77507 0.67337 0.61648 0.0
H2322 H 0.75641 0.60175 0.59356 0.0
H2323 H 0.77751 0.61238 0.56689 0.0
H2324 H 0.77268 0.66386 0.56496 0.0
C2325 C 0.72942 0.64222 0.62771 0.0
C2326 C 0.72156 0.62743 0.64068 0.0
C2327 C 0.72356 0.61091 0.63773 0.0
C2328 C 0.73362 0.60937 0.62249 0.0
C2329 C 0.74142 0.62434 0.61019 0.0
C2330 C 0.73925 0.64033 0.61246 0.0
C2331 C 0.74926 0.65449 0.59734 0.0
C2332 C 0.73491 0.65613 0.58414 0.0
C2333 C 0.76484 0.67474 0.60688 0.0
C2334 C 0.75772 0.64414 0.58646 0.0
C2335 C 0.75303 0.62679 0.59414 0.0
C2336 C 0.75988 0.61511 0.58716 0.0
C2337 C 0.77178 0.62125 0.57185 0.0
C2338 C 0.77661 0.63885 0.56345 0.0
C2339 C 0.76938 0.65037 0.57096 0.0
H2340 H 0.32842 0.04818 0.61452 0.0
H2341 H 0.37679 0.07861 0.65706 0.0
H2342 H 0.39016 0.10807 0.63872 0.0
H2343 H 0.35396 0.07037 0.57179 0.0
H2344 H 0.33417 0.07128 0.56137 0.0
H2345 H 0.33001 0.05213 0.57651 0.0
H2346 H 0.31099 0.06204 0.59861 0.0
H2347 H 0.31522 0.0813 0.58369 0.0
H2348 H 0.3221 0.08701 0.60928 0.0
H2349 H 0.3965 0.13529 0.61681 0.0
H2350 H 0.39504 0.15715 0.59386 0.0
H2351 H 0.34199 0.10821 0.56684 0.0
C2352 C 0.34201 0.06087 0.61992 0.0
C2353 C 0.35154 0.06105 0.63729 0.0
C2354 C 0.36927 0.07806 0.64373 0.0
C2355 C 0.37695 0.09486 0.63342 0.0
C2356 C 0.36679 0.09431 0.61664 0.0
C2357 C 0.34976 0.07762 0.60991 0.0
C2358 C 0.34082 0.08093 0.59235 0.0
C2359 C 0.33968 0.06791 0.57445 0.0
C2360 C 0.32113 0.07763 0.59623 0.0
C2361 C 0.35515 0.1023 0.59052 0.0
C2362 C 0.37021 0.10979 0.60442 0.0
C2363 C 0.38484 0.12948 0.60578 0.0
C2364 C 0.38392 0.14178 0.59271 0.0
C2365 C 0.36834 0.13436 0.57871 0.0
C2366 C 0.35397 0.11432 0.57754 0.0
H2367 H 0.92618 0.27865 0.67313 0.0
H2368 H 0.9456 0.23972 0.68835 0.0
H2369 H 0.92722 0.21718 0.65947 0.0
H2370 H 0.87869 0.24118 0.65379 0.0
H2371 H 0.87846 0.25497 0.63432 0.0
H2372 H 0.89234 0.26764 0.65675 0.0
H2373 H 0.9226 0.2865 0.63808 0.0
H2374 H 0.90878 0.27401 0.61561 0.0
H2375 H 0.9295 0.2729 0.6222 0.0
H2376 H 0.90682 0.19889 0.62907 0.0
H2377 H 0.88805 0.18751 0.59756 0.0
H2378 H 0.88346 0.2393 0.60121 0.0
C2379 C 0.92645 0.26531 0.67046 0.0
C2380 C 0.93722 0.26087 0.68305 0.0
C2381 C 0.93747 0.24343 0.67889 0.0
C2382 C 0.92699 0.23047 0.66259 0.0
C2383 C 0.91647 0.23525 0.65053 0.0
C2384 C 0.91628 0.25234 0.65412 0.0
C2385 C 0.90468 0.25454 0.63825 0.0
C2386 C 0.88752 0.25458 0.64626 0.0
C2387 C 0.91714 0.27308 0.62792 0.0
C2388 C 0.89844 0.23604 0.62515 0.0
C2389 C 0.90521 0.22502 0.63262 0.0
C2390 C 0.9015 0.20744 0.62302 0.0
C2391 C 0.89091 0.20115 0.60508 0.0
C2392 C 0.88435 0.21254 0.59682 0.0
C2393 C 0.88799 0.23008 0.60721 0.0
H2394 H 0.37222 0.29797 0.66694 0.0
H2395 H 0.31643 0.25814 0.68615 0.0
H2396 H 0.3132 0.23146 0.66328 0.0
H2397 H 0.35904 0.28107 0.61725 0.0
H2398 H 0.38159 0.28402 0.61188 0.0
H2399 H 0.3805 0.29929 0.63135 0.0
H2400 H 0.39713 0.28809 0.6551 0.0
H2401 H 0.3981 0.27262 0.63569 0.0
H2402 H 0.38695 0.26225 0.65738 0.0
H2403 H 0.31554 0.20951 0.63805 0.0
H2404 H 0.32138 0.19457 0.60903 0.0
H2405 H 0.37447 0.24935 0.60413 0.0
C2406 C 0.35948 0.28353 0.66646 0.0
C2407 C 0.34463 0.27994 0.67833 0.0
C2408 C 0.32793 0.26108 0.67709 0.0
C2409 C 0.32604 0.24583 0.6643 0.0
C2410 C 0.34089 0.2498 0.6527 0.0
C2411 C 0.35717 0.26824 0.65341 0.0
C2412 C 0.37008 0.26905 0.63795 0.0
C2413 C 0.37296 0.28425 0.62377 0.0
C2414 C 0.3892 0.27325 0.64708 0.0
C2415 C 0.35838 0.24828 0.62832 0.0
C2416 C 0.3418 0.23734 0.63734 0.0
C2417 C 0.32845 0.21792 0.63082 0.0
C2418 C 0.33184 0.20962 0.61425 0.0
C2419 C 0.34829 0.22083 0.60417 0.0
C2420 C 0.36191 0.24028 0.61163 0.0
H2421 H 0.72963 0.08464 0.63072 0.0
H2422 H 0.71949 0.03008 0.60164 0.0
H2423 H 0.73581 0.04751 0.5737 0.0
H2424 H 0.72595 0.10706 0.58596 0.0
H2425 H 0.74501 0.13122 0.59524 0.0
H2426 H 0.72985 0.11407 0.61167 0.0
H2427 H 0.75949 0.11813 0.63048 0.0
H2428 H 0.7747 0.13511 0.61404 0.0
H2429 H 0.77569 0.11354 0.61768 0.0
H2430 H 0.75642 0.07084 0.55107 0.0
H2431 H 0.7797 0.09901 0.53435 0.0
H2432 H 0.77721 0.13904 0.57762 0.0
C2433 C 0.73032 0.07633 0.61817 0.0
C2434 C 0.72318 0.056 0.61822 0.0
C2435 C 0.72484 0.04565 0.60184 0.0
C2436 C 0.73402 0.0554 0.58588 0.0
C2437 C 0.7415 0.07554 0.5865 0.0
C2438 C 0.73967 0.08593 0.60212 0.0
C2439 C 0.75062 0.10779 0.59977 0.0
C2440 C 0.73704 0.11549 0.59805 0.0
C2441 C 0.76603 0.11931 0.61649 0.0
C2442 C 0.75933 0.10804 0.58076 0.0
C2443 C 0.75367 0.08922 0.5733 0.0
C2444 C 0.76075 0.08563 0.55659 0.0
C2445 C 0.77405 0.1017 0.54729 0.0
C2446 C 0.78019 0.12113 0.55471 0.0
C2447 C 0.77252 0.12431 0.57151 0.0
H2448 H 0.93297 0.65936 0.65169 0.0
H2449 H 0.91725 0.69326 0.68931 0.0
H2450 H 0.89249 0.68786 0.66452 0.0
H2451 H 0.9294 0.67933 0.60904 0.0
H2452 H 0.92029 0.65702 0.59332 0.0
H2453 H 0.935 0.66116 0.61493 0.0
H2454 H 0.9086 0.62824 0.62628 0.0
H2455 H 0.89376 0.62406 0.6047 0.0
H2456 H 0.885 0.62392 0.62821 0.0
H2457 H 0.87087 0.68057 0.63551 0.0
H2458 H 0.85556 0.67451 0.60266 0.0
H2459 H 0.88642 0.64711 0.58254 0.0
C2460 C 0.92401 0.66527 0.65477 0.0
C2461 C 0.9268 0.67655 0.67242 0.0
C2462 C 0.91525 0.68455 0.67585 0.0
C2463 C 0.90109 0.68145 0.66193 0.0
C2464 C 0.89879 0.67048 0.64456 0.0
C2465 C 0.91002 0.66266 0.64079 0.0
C2466 C 0.90586 0.65322 0.62015 0.0
C2467 C 0.9237 0.66329 0.60869 0.0
C2468 C 0.89783 0.63104 0.61983 0.0
C2469 C 0.89083 0.65731 0.61286 0.0
C2470 C 0.88674 0.66694 0.62734 0.0
C2471 C 0.8739 0.67299 0.62404 0.0
C2472 C 0.86535 0.66957 0.60532 0.0
C2473 C 0.86986 0.66044 0.59001 0.0
C2474 C 0.88246 0.65385 0.59399 0.0
H2475 H 0.93907 0.69725 0.76991 0.0
H2476 H 0.92839 0.6383 0.75758 0.0
H2477 H 0.90824 0.62751 0.7852 0.0
H2478 H 0.94095 0.69803 0.82225 0.0
H2479 H 0.92904 0.71152 0.82501 0.0
H2480 H 0.9433 0.71479 0.8048 0.0
H2481 H 0.91447 0.70577 0.78103 0.0
H2482 H 0.90015 0.70249 0.80115 0.0
H2483 H 0.89241 0.68283 0.78224 0.0
H2484 H 0.88851 0.62295 0.81367 0.0
H2485 H 0.87039 0.62491 0.84052 0.0
H2486 H 0.89355 0.68665 0.83355 0.0
C2487 C 0.93267 0.6821 0.77308 0.0
C2488 C 0.93538 0.66864 0.76156 0.0
C2489 C 0.92653 0.6489 0.76615 0.0
C2490 C 0.91509 0.64263 0.78185 0.0
C2491 C 0.91263 0.65626 0.79279 0.0
C2492 C 0.92116 0.67558 0.7886 0.0
C2493 C 0.91573 0.68715 0.80218 0.0
C2494 C 0.9333 0.70386 0.81428 0.0
C2495 C 0.90505 0.69501 0.79098 0.0
C2496 C 0.90271 0.6713 0.81462 0.0
C2497 C 0.90116 0.65361 0.80904 0.0
C2498 C 0.88963 0.63674 0.81817 0.0
C2499 C 0.87931 0.63797 0.83333 0.0
C2500 C 0.88055 0.65593 0.83916 0.0
C2501 C 0.89252 0.67279 0.82967 0.0
H2502 H 0.3482 0.2937 0.77849 0.0
H2503 H 0.29372 0.27026 0.74613 0.0
H2504 H 0.27959 0.2419 0.76573 0.0
H2505 H 0.34655 0.25047 0.77924 0.0
H2506 H 0.3578 0.25511 0.80328 0.0
H2507 H 0.36276 0.27532 0.78949 0.0
H2508 H 0.35228 0.29028 0.81705 0.0
H2509 H 0.34756 0.27024 0.83113 0.0
H2510 H 0.32918 0.2755 0.82606 0.0
H2511 H 0.27274 0.2137 0.78564 0.0
H2512 H 0.27369 0.18905 0.80477 0.0
H2513 H 0.33269 0.23133 0.82367 0.0
C2514 C 0.33315 0.28295 0.77586 0.0
C2515 C 0.32209 0.28428 0.76075 0.0
C2516 C 0.30249 0.26969 0.7577 0.0
C2517 C 0.29433 0.25349 0.76876 0.0
C2518 C 0.3059 0.25221 0.78294 0.0
C2519 C 0.32484 0.26674 0.78668 0.0
C2520 C 0.33474 0.26115 0.80135 0.0
C2521 C 0.35143 0.26047 0.79282 0.0
C2522 C 0.34132 0.27512 0.82001 0.0
C2523 C 0.31864 0.24087 0.8047 0.0
C2524 C 0.30202 0.23602 0.79421 0.0
C2525 C 0.2856 0.21749 0.79417 0.0
C2526 C 0.28626 0.20358 0.80505 0.0
C2527 C 0.30329 0.20825 0.81559 0.0
C2528 C 0.31952 0.22725 0.81558 0.0
H2529 H 0.74231 0.04519 0.72697 0.0
H2530 H 0.73424 0.08998 0.70448 0.0
H2531 H 0.75345 0.11296 0.7329 0.0
H2532 H 0.73691 0.05587 0.77587 0.0
H2533 H 0.75423 0.05086 0.78587 0.0
H2534 H 0.74145 0.03862 0.7629 0.0
H2535 H 0.77338 0.05147 0.74701 0.0
H2536 H 0.78626 0.06384 0.76995 0.0
H2537 H 0.79061 0.07748 0.74904 0.0
H2538 H 0.77288 0.13077 0.76394 0.0
H2539 H 0.78883 0.14132 0.79687 0.0
H2540 H 0.78214 0.08404 0.80018 0.0
C2541 C 0.74484 0.05993 0.72791 0.0
C2542 C 0.73698 0.06592 0.71348 0.0
C2543 C 0.74018 0.08515 0.7154 0.0
C2544 C 0.75115 0.09832 0.73141 0.0
C2545 C 0.75862 0.09195 0.74544 0.0
C2546 C 0.75545 0.07315 0.74397 0.0
C2547 C 0.76379 0.06948 0.76181 0.0
C2548 C 0.74816 0.05272 0.77222 0.0
C2549 C 0.77944 0.06533 0.75663 0.0
C2550 C 0.77202 0.08911 0.77359 0.0
C2551 C 0.76913 0.10194 0.76376 0.0
C2552 C 0.77518 0.12083 0.77182 0.0
C2553 C 0.78411 0.12663 0.79059 0.0
C2554 C 0.78665 0.11349 0.80123 0.0
C2555 C 0.78072 0.09458 0.7924 0.0
H2556 H 0.07012 0.36733 0.04661 0.0
H2557 H 0.01871 0.33598 0.07688 0.0
H2558 H 0.03686 0.33276 0.10358 0.0
H2559 H 0.08901 0.33816 0.05886 0.0
H2560 H 0.11347 0.35805 0.06213 0.0
H2561 H 0.09696 0.35962 0.04588 0.0
H2562 H 0.10512 0.39245 0.06456 0.0
H2563 H 0.12172 0.391 0.08085 0.0
H2564 H 0.10289 0.39349 0.09031 0.0
H2565 H 0.05943 0.33048 0.12581 0.0
H2566 H 0.0859 0.33002 0.14286 0.0
H2567 H 0.12318 0.36278 0.09895 0.0
C2568 C 0.06282 0.36012 0.05903 0.0
C2569 C 0.043 0.35193 0.05965 0.0
C2570 C 0.03386 0.34232 0.07601 0.0
C2571 C 0.04405 0.34045 0.09133 0.0
C2572 C 0.06343 0.34829 0.09016 0.0
C2573 C 0.07282 0.35801 0.07453 0.0
C2574 C 0.09361 0.36413 0.07665 0.0
C2575 C 0.09854 0.35441 0.05989 0.0
C2576 C 0.1066 0.38661 0.07819 0.0
C2577 C 0.09424 0.35603 0.09569 0.0
C2578 C 0.07666 0.34704 0.10323 0.0
C2579 C 0.07334 0.33765 0.12019 0.0
C2580 C 0.0884 0.33736 0.12971 0.0
C2581 C 0.10655 0.34643 0.12228 0.0
C2582 C 0.10951 0.35602 0.10513 0.0
H2583 H 0.63587 0.68474 0.08984 0.0
H2584 H 0.67837 0.67495 0.11599 0.0
H2585 H 0.68952 0.70442 0.13908 0.0
H2586 H 0.66521 0.73527 0.09041 0.0
H2587 H 0.64685 0.7405 0.09523 0.0
H2588 H 0.64072 0.71736 0.08273 0.0
H2589 H 0.61715 0.69878 0.10846 0.0
H2590 H 0.62307 0.72189 0.12097 0.0
H2591 H 0.62543 0.70423 0.13372 0.0
H2592 H 0.69727 0.73659 0.15771 0.0
H2593 H 0.70074 0.76807 0.17018 0.0
H2594 H 0.65433 0.75679 0.12953 0.0
C2595 C 0.64725 0.68849 0.10069 0.0
C2596 C 0.65619 0.67754 0.10126 0.0
C2597 C 0.67126 0.68313 0.11544 0.0
C2598 C 0.67767 0.69982 0.12857 0.0
C2599 C 0.66885 0.71064 0.12721 0.0
C2600 C 0.65392 0.7051 0.11362 0.0
C2601 C 0.64773 0.71986 0.11395 0.0
C2602 C 0.65029 0.72877 0.09443 0.0
C2603 C 0.62712 0.71063 0.11962 0.0
C2604 C 0.66165 0.73476 0.1297 0.0
C2605 C 0.67362 0.72919 0.13737 0.0
C2606 C 0.68791 0.74103 0.15186 0.0
C2607 C 0.68988 0.75895 0.15871 0.0
C2608 C 0.67774 0.76487 0.15091 0.0
C2609 C 0.66356 0.75255 0.13616 0.0
H2610 H 0.32307 0.95703 0.03961 0.0
H2611 H 0.35474 0.00923 0.07995 0.0
H2612 H 0.33115 0.99349 0.10382 0.0
H2613 H 0.2776 0.94713 0.04998 0.0
H2614 H 0.26625 0.92077 0.0483 0.0
H2615 H 0.28657 0.93507 0.03478 0.0
H2616 H 0.30408 0.91974 0.05065 0.0
H2617 H 0.28372 0.90525 0.0641 0.0
H2618 H 0.30682 0.92103 0.07668 0.0
H2619 H 0.30325 0.97404 0.12211 0.0
H2620 H 0.27276 0.95061 0.13485 0.0
H2621 H 0.25846 0.91033 0.08345 0.0
C2622 C 0.3252 0.9649 0.05363 0.0
C2623 C 0.34073 0.98434 0.05795 0.0
C2624 C 0.34291 0.99435 0.07631 0.0
C2625 C 0.32961 0.98554 0.09001 0.0
C2626 C 0.31419 0.96664 0.08518 0.0
C2627 C 0.31192 0.95629 0.06756 0.0
C2628 C 0.2934 0.93651 0.06587 0.0
C2629 C 0.28018 0.93478 0.04872 0.0
C2630 C 0.29724 0.91963 0.06423 0.0
C2631 C 0.28556 0.93765 0.0851 0.0
C2632 C 0.29787 0.95517 0.09597 0.0
C2633 C 0.29354 0.96017 0.11384 0.0
C2634 C 0.27614 0.94687 0.12087 0.0
C2635 C 0.26329 0.92877 0.11008 0.0
C2636 C 0.26814 0.92404 0.09202 0.0
H2637 H 0.34661 0.03167 0.98271 0.0
H2638 H 0.40129 0.07537 0.01189 0.0
H2639 H 0.39929 0.10151 0.99688 0.0
H2640 H 0.35381 0.05448 0.93802 0.0
H2641 H 0.32937 0.04781 0.93426 0.0
H2642 H 0.33518 0.03264 0.94734 0.0
H2643 H 0.31773 0.03595 0.97642 0.0
H2644 H 0.31197 0.05124 0.96347 0.0
H2645 H 0.32455 0.06005 0.9871 0.0
H2646 H 0.39106 0.12286 0.97906 0.0
H2647 H 0.37772 0.13782 0.95878 0.0
H2648 H 0.32883 0.07996 0.94074 0.0
C2649 C 0.35818 0.04673 0.98594 0.0
C2650 C 0.37409 0.05152 0.9985 0.0
C2651 C 0.38897 0.07139 0.0023 0.0
C2652 C 0.38795 0.08633 0.99388 0.0
C2653 C 0.37199 0.08111 0.98166 0.0
C2654 C 0.35743 0.06179 0.9776 0.0
C2655 C 0.34195 0.06007 0.9638 0.0
C2656 C 0.33997 0.04804 0.94473 0.0
C2657 C 0.32293 0.05131 0.97327 0.0
C2658 C 0.35003 0.08147 0.96083 0.0
C2659 C 0.36735 0.09338 0.97126 0.0
C2660 C 0.37754 0.11369 0.97077 0.0
C2661 C 0.36989 0.12203 0.95915 0.0
C2662 C 0.35224 0.11006 0.94818 0.0
C2663 C 0.34221 0.08953 0.94917 0.0
H2664 H 0.95317 0.30138 0.00031 0.0
H2665 H 0.0012 0.30443 0.97309 0.0
H2666 H 0.97922 0.27419 0.95204 0.0
H2667 H 0.92665 0.24944 0.00146 0.0
H2668 H 0.90387 0.24698 0.99666 0.0
H2669 H 0.9233 0.26941 0.00881 0.0
H2670 H 0.91961 0.28924 0.98269 0.0
H2671 H 0.90013 0.26686 0.97047 0.0
H2672 H 0.92036 0.28278 0.9575 0.0
H2673 H 0.95198 0.24332 0.93436 0.0
H2674 H 0.92152 0.21389 0.92163 0.0
H2675 H 0.89164 0.23042 0.96164 0.0
C2676 C 0.95905 0.29579 0.98979 0.0
C2677 C 0.97884 0.30524 0.98824 0.0
C2678 C 0.98604 0.29738 0.97448 0.0
C2679 C 0.97369 0.28025 0.96246 0.0
C2680 C 0.95422 0.27115 0.96449 0.0
C2681 C 0.94695 0.27862 0.97783 0.0
C2682 C 0.92555 0.26568 0.97762 0.0
C2683 C 0.91949 0.25739 0.9973 0.0
C2684 C 0.91584 0.27681 0.97171 0.0
C2685 C 0.92192 0.24974 0.96209 0.0
C2686 C 0.93861 0.25319 0.95462 0.0
C2687 C 0.93881 0.24043 0.94014 0.0
C2688 C 0.92146 0.22367 0.93311 0.0
C2689 C 0.90417 0.21979 0.94065 0.0
C2690 C 0.90454 0.23306 0.95535 0.0
H2691 H 0.67451 0.62179 0.01718 0.0
H2692 H 0.69595 0.68162 0.04121 0.0
H2693 H 0.72559 0.69286 0.02513 0.0
H2694 H 0.71942 0.62364 0.0195 0.0
H2695 H 0.7147 0.60958 0.99648 0.0
H2696 H 0.69528 0.60571 0.01063 0.0
H2697 H 0.67981 0.61269 0.9816 0.0
H2698 H 0.69914 0.61647 0.96735 0.0
H2699 H 0.69344 0.63534 0.97055 0.0
H2700 H 0.75308 0.69773 0.0076 0.0
H2701 H 0.77608 0.69661 0.98672 0.0
H2702 H 0.73609 0.63437 0.97099 0.0
C2703 C 0.68553 0.6372 0.01907 0.0
C2704 C 0.68302 0.65084 0.03046 0.0
C2705 C 0.69757 0.67095 0.03245 0.0
C2706 C 0.71451 0.67748 0.02348 0.0
C2707 C 0.71659 0.66377 0.01231 0.0
C2708 C 0.70247 0.64411 0.00979 0.0
C2709 C 0.70813 0.63279 0.99606 0.0
C2710 C 0.70946 0.617 0.00629 0.0
C2711 C 0.69431 0.6238 0.97781 0.0
C2712 C 0.72761 0.64918 0.99144 0.0
C2713 C 0.73224 0.66684 0.00119 0.0
C2714 C 0.74956 0.68405 0.99965 0.0
C2715 C 0.76247 0.68328 0.98758 0.0
C2716 C 0.7579 0.66548 0.97688 0.0
C2717 C 0.7402 0.6482 0.97902 0.0
H2718 H 0.97124 0.66659 0.00107 0.0
H2719 H 0.93534 0.61647 0.03263 0.0
H2720 H 0.90686 0.61179 0.01417 0.0
H2721 H 0.93997 0.68539 0.9995 0.0
H2722 H 0.94566 0.69333 0.97558 0.0
H2723 H 0.96301 0.69249 0.99122 0.0
H2724 H 0.96586 0.66995 0.96478 0.0
H2725 H 0.94845 0.67064 0.94909 0.0
H2726 H 0.9448 0.64738 0.95508 0.0
H2727 H 0.88242 0.61235 0.99159 0.0
H2728 H 0.86382 0.61924 0.96825 0.0
H2729 H 0.91597 0.66935 0.95203 0.0
C2730 C 0.95739 0.65462 0.00414 0.0
C2731 C 0.95548 0.64183 0.01825 0.0
C2732 C 0.93711 0.62644 0.02191 0.0
C2733 C 0.92089 0.62365 0.01145 0.0
C2734 C 0.92332 0.63645 0.99752 0.0
C2735 C 0.94112 0.65173 0.99399 0.0
C2736 C 0.93993 0.66366 0.97851 0.0
C2737 C 0.94759 0.68498 0.9867 0.0
C2738 C 0.95038 0.66285 0.96082 0.0
C2739 C 0.91866 0.65269 0.97379 0.0
C2740 C 0.90931 0.63697 0.98481 0.0
C2741 C 0.8896 0.62461 0.98289 0.0
C2742 C 0.87918 0.62855 0.9695 0.0
C2743 C 0.88847 0.64477 0.95827 0.0
C2744 C 0.90848 0.65691 0.96047 0.0
H2745 H 0.32943 0.31438 0.95593 0.0
H2746 H 0.38964 0.34146 0.97212 0.0
H2747 H 0.39102 0.31755 0.94907 0.0
H2748 H 0.31905 0.26675 0.95498 0.0
H2749 H 0.30145 0.25689 0.93473 0.0
H2750 H 0.30573 0.27822 0.94959 0.0
H2751 H 0.31267 0.29764 0.91932 0.0
H2752 H 0.30829 0.27627 0.9043 0.0
H2753 H 0.3305 0.29922 0.90386 0.0
H2754 H 0.38526 0.28874 0.9278 0.0
H2755 H 0.37262 0.25613 0.91046 0.0
H2756 H 0.31584 0.24691 0.90808 0.0
C2757 C 0.34299 0.3156 0.95413 0.0
C2758 C 0.35948 0.32983 0.96558 0.0
C2759 C 0.37688 0.33069 0.96338 0.0
C2760 C 0.37782 0.31725 0.95025 0.0
C2761 C 0.3612 0.30302 0.93952 0.0
C2762 C 0.3441 0.30208 0.94128 0.0
C2763 C 0.32794 0.28395 0.9298 0.0
C2764 C 0.31265 0.27067 0.94307 0.0
C2765 C 0.31934 0.28962 0.91334 0.0
C2766 C 0.33854 0.27451 0.92194 0.0
C2767 C 0.35777 0.28598 0.9274 0.0
C2768 C 0.37031 0.2798 0.92306 0.0
C2769 C 0.36298 0.26126 0.91311 0.0
C2770 C 0.34326 0.24903 0.9077 0.0
C2771 C 0.33098 0.25595 0.91194 0.0
H2772 H 0.68081 0.05383 0.03106 0.0
H2773 H 0.65311 0.9951 0.00154 0.0
H2774 H 0.67552 0.00745 0.97602 0.0
H2775 H 0.6921 0.08033 0.98717 0.0
H2776 H 0.71491 0.10004 0.99766 0.0
H2777 H 0.6957 0.087 0.01293 0.0
H2778 H 0.71697 0.079 0.03384 0.0
H2779 H 0.73619 0.09193 0.01861 0.0
H2780 H 0.72778 0.0667 0.02238 0.0
H2781 H 0.70151 0.02536 0.95467 0.0
H2782 H 0.7299 0.04814 0.93844 0.0
H2783 H 0.74183 0.09527 0.98206 0.0
C2784 C 0.67933 0.04369 0.01905 0.0
C2785 C 0.66525 0.02353 0.01823 0.0
C2786 C 0.66386 0.0106 0.00247 0.0
C2787 C 0.67647 0.01747 0.98786 0.0
C2788 C 0.69042 0.03731 0.98924 0.0
C2789 C 0.69197 0.05029 0.00436 0.0
C2790 C 0.70893 0.0707 0.00276 0.0
C2791 C 0.70252 0.08539 0.99996 0.0
C2792 C 0.72332 0.07747 0.02045 0.0
C2793 C 0.71679 0.06701 0.98458 0.0
C2794 C 0.70577 0.04768 0.97696 0.0
C2795 C 0.71027 0.04057 0.96046 0.0
C2796 C 0.72653 0.05357 0.95145 0.0
C2797 C 0.73818 0.07345 0.95905 0.0
C2798 C 0.73313 0.08022 0.9758 0.0
H2799 H 0.62129 0.94505 0.07137 0.0
H2800 H 0.64635 0.99635 0.113 0.0
H2801 H 0.6565 0.97991 0.13499 0.0
H2802 H 0.60646 0.90729 0.10775 0.0
H2803 H 0.61272 0.89258 0.0927 0.0
H2804 H 0.60432 0.90683 0.08175 0.0
H2805 H 0.63475 0.9237 0.06307 0.0
H2806 H 0.6434 0.9098 0.07419 0.0
H2807 H 0.65773 0.93624 0.07636 0.0
H2808 H 0.66776 0.96043 0.15027 0.0
H2809 H 0.67786 0.93769 0.15925 0.0
H2810 H 0.64638 0.89884 0.1077 0.0
C2811 C 0.6282 0.95239 0.08547 0.0
C2812 C 0.63281 0.97179 0.09073 0.0
C2813 C 0.64255 0.98138 0.1089 0.0
C2814 C 0.64837 0.97218 0.12146 0.0
C2815 C 0.64438 0.95339 0.11559 0.0
C2816 C 0.63434 0.94344 0.09815 0.0
C2817 C 0.63361 0.92414 0.09463 0.0
C2818 C 0.61305 0.90667 0.09419 0.0
C2819 C 0.64293 0.92345 0.07596 0.0
C2820 C 0.64532 0.92517 0.11247 0.0
C2821 C 0.65122 0.94211 0.12441 0.0
C2822 C 0.66305 0.94698 0.14119 0.0
C2823 C 0.6689 0.93411 0.14604 0.0
C2824 C 0.66301 0.9166 0.1341 0.0
C2825 C 0.65097 0.91206 0.11715 0.0
H2826 H 0.02581 0.70613 0.08218 0.0
H2827 H 0.06015 0.69018 0.04855 0.0
H2828 H 0.08916 0.71752 0.06592 0.0
H2829 H 0.05818 0.75882 0.08266 0.0
H2830 H 0.05394 0.7641 0.10699 0.0
H2831 H 0.03556 0.74294 0.09215 0.0
H2832 H 0.03341 0.7206 0.11864 0.0
H2833 H 0.05187 0.74167 0.13352 0.0
H2834 H 0.05453 0.72106 0.12715 0.0
H2835 H 0.11431 0.74542 0.08727 0.0
H2836 H 0.1348 0.77476 0.1099 0.0
H2837 H 0.085 0.7744 0.12891 0.0
C2838 C 0.03945 0.70846 0.07847 0.0
C2839 C 0.0407 0.69589 0.06415 0.0
C2840 C 0.05879 0.69949 0.05957 0.0
C2841 C 0.0754 0.71499 0.06936 0.0
C2842 C 0.07371 0.72695 0.08354 0.0
C2843 C 0.05628 0.72412 0.08797 0.0
C2844 C 0.05869 0.73959 0.10354 0.0
C2845 C 0.05114 0.75211 0.09587 0.0
C2846 C 0.04906 0.73016 0.12179 0.0
C2847 C 0.08016 0.75143 0.10715 0.0
C2848 C 0.08846 0.74369 0.09556 0.0
C2849 C 0.10803 0.7517 0.09641 0.0
C2850 C 0.11952 0.76824 0.10936 0.0
C2851 C 0.1114 0.77666 0.12113 0.0
C2852 C 0.09148 0.76818 0.12 0.0
H2853 H 0.31857 0.37753 0.03488 0.0
H2854 H 0.31039 0.31927 0.03325 0.0
H2855 H 0.28377 0.30891 0.05407 0.0
H2856 H 0.30966 0.38055 0.08451 0.0
H2857 H 0.29728 0.39337 0.08121 0.0
H2858 H 0.31501 0.39613 0.06504 0.0
H2859 H 0.29041 0.38499 0.03563 0.0
H2860 H 0.27262 0.3823 0.05172 0.0
H2861 H 0.26818 0.36189 0.03507 0.0
H2862 H 0.25907 0.30499 0.07593 0.0
H2863 H 0.23747 0.30776 0.09783 0.0
H2864 H 0.26121 0.36849 0.08588 0.0
C2865 C 0.31098 0.36254 0.03871 0.0
C2866 C 0.31651 0.34918 0.03238 0.0
C2867 C 0.30643 0.32976 0.03792 0.0
C2868 C 0.29125 0.32371 0.04973 0.0
C2869 C 0.28631 0.33724 0.05595 0.0
C2870 C 0.29581 0.35625 0.05067 0.0
C2871 C 0.28798 0.36799 0.06009 0.0
C2872 C 0.3034 0.38555 0.07351 0.0
C2873 C 0.27928 0.37468 0.04471 0.0
C2874 C 0.27276 0.35264 0.07157 0.0
C2875 C 0.27201 0.335 0.06884 0.0
C2876 C 0.25937 0.31867 0.07806 0.0
C2877 C 0.24709 0.32037 0.0904 0.0
C2878 C 0.24751 0.33828 0.09347 0.0
C2879 C 0.26059 0.35463 0.0839 0.0
H2880 H 0.70311 0.66287 0.39293 0.0
H2881 H 0.72338 0.7249 0.40299 0.0
H2882 H 0.74743 0.72872 0.4281 0.0
H2883 H 0.71011 0.65387 0.44206 0.0
H2884 H 0.71845 0.63773 0.43486 0.0
H2885 H 0.70195 0.63961 0.41886 0.0
H2886 H 0.7252 0.64879 0.39162 0.0
H2887 H 0.74165 0.64674 0.40748 0.0
H2888 H 0.74932 0.66918 0.39632 0.0
H2889 H 0.7687 0.72532 0.45258 0.0
H2890 H 0.78849 0.7164 0.47131 0.0
H2891 H 0.75647 0.65733 0.44218 0.0
C2892 C 0.71251 0.67721 0.40058 0.0
C2893 C 0.71134 0.69357 0.3963 0.0
C2894 C 0.72411 0.71221 0.40618 0.0
C2895 C 0.73769 0.71446 0.4205 0.0
C2896 C 0.73847 0.69799 0.42444 0.0
C2897 C 0.72643 0.6798 0.41451 0.0
C2898 C 0.73118 0.6648 0.42031 0.0
C2899 C 0.71442 0.64801 0.42958 0.0
C2900 C 0.7372 0.65692 0.4029 0.0
C2901 C 0.74776 0.67737 0.4351 0.0
C2902 C 0.75151 0.69636 0.43753 0.0
C2903 C 0.76604 0.71055 0.45059 0.0
C2904 C 0.77733 0.70534 0.46106 0.0
C2905 C 0.77437 0.68618 0.45814 0.0
C2906 C 0.75912 0.67202 0.44511 0.0
H2907 H 0.33453 0.03375 0.41017 0.0
H2908 H 0.33032 0.99817 0.45649 0.0
H2909 H 0.34246 0.02734 0.48041 0.0
H2910 H 0.379 0.07872 0.43141 0.0
H2911 H 0.37165 0.09461 0.42241 0.0
H2912 H 0.3641 0.0713 0.40919 0.0
H2913 H 0.3289 0.06161 0.41039 0.0
H2914 H 0.33632 0.08481 0.42359 0.0
H2915 H 0.31971 0.06228 0.43349 0.0
H2916 H 0.35063 0.05941 0.49918 0.0
H2917 H 0.35669 0.09222 0.51104 0.0
H2918 H 0.35826 0.10711 0.4519 0.0
C2919 C 0.33647 0.03225 0.42535 0.0
C2920 C 0.33151 0.01393 0.43169 0.0
C2921 C 0.3342 0.01227 0.45152 0.0
C2922 C 0.34106 0.0287 0.46512 0.0
C2923 C 0.34563 0.04664 0.45842 0.0
C2924 C 0.34379 0.04855 0.43893 0.0
C2925 C 0.34922 0.06921 0.43538 0.0
C2926 C 0.36705 0.07904 0.42392 0.0
C2927 C 0.33254 0.06948 0.42512 0.0
C2928 C 0.35346 0.07846 0.45598 0.0
C2929 C 0.3514 0.06528 0.46911 0.0
C2930 C 0.35279 0.07 0.48903 0.0
C2931 C 0.35618 0.08858 0.49564 0.0
C2932 C 0.35832 0.10218 0.48234 0.0
C2933 C 0.35727 0.09714 0.46233 0.0
H2934 H 0.98353 0.27534 0.37106 0.0
H2935 H 0.01661 0.33082 0.40643 0.0
H2936 H 0.99338 0.31813 0.4313 0.0
H2937 H 0.93897 0.26853 0.38007 0.0
H2938 H 0.92682 0.24227 0.3807 0.0
H2939 H 0.94715 0.25459 0.36666 0.0
H2940 H 0.9638 0.23978 0.38521 0.0
H2941 H 0.94341 0.22723 0.39919 0.0
H2942 H 0.9667 0.24328 0.41129 0.0
H2943 H 0.96581 0.30055 0.45121 0.0
H2944 H 0.93557 0.27888 0.46531 0.0
H2945 H 0.9192 0.23524 0.41636 0.0
C2946 C 0.98609 0.28457 0.38428 0.0
C2947 C 0.0019 0.30397 0.38697 0.0
C2948 C 0.00458 0.31588 0.40418 0.0
C2949 C 0.9915 0.3088 0.41838 0.0
C2950 C 0.97575 0.28982 0.4151 0.0
C2951 C 0.97297 0.27781 0.39853 0.0
C2952 C 0.95411 0.25854 0.39801 0.0
C2953 C 0.94099 0.25584 0.38031 0.0
C2954 C 0.9572 0.24118 0.39846 0.0
C2955 C 0.94666 0.26175 0.41671 0.0
C2956 C 0.95946 0.27983 0.42639 0.0
C2957 C 0.95566 0.28634 0.44378 0.0
C2958 C 0.93833 0.27399 0.45157 0.0
C2959 C 0.92488 0.2554 0.44188 0.0
C2960 C 0.92921 0.24926 0.42422 0.0
H2961 H 0.04946 0.37942 0.31206 0.0
H2962 H 0.99177 0.33491 0.32293 0.0
H2963 H 0.97968 0.35381 0.30825 0.0
H2964 H 0.04453 0.4216 0.32052 0.0
H2965 H 0.05838 0.43424 0.30092 0.0
H2966 H 0.06307 0.41765 0.31285 0.0
H2967 H 0.05824 0.39789 0.27991 0.0
H2968 H 0.05368 0.41451 0.26788 0.0
H2969 H 0.03647 0.38851 0.26497 0.0
H2970 H 0.97359 0.37756 0.294 0.0
H2971 H 0.97333 0.4036 0.27735 0.0
H2972 H 0.03428 0.4318 0.27234 0.0
C2973 C 0.03432 0.37373 0.31129 0.0
C2974 C 0.02157 0.35571 0.31866 0.0
C2975 C 0.00182 0.34861 0.31728 0.0
C2976 C 0.99477 0.35928 0.30907 0.0
C2977 C 0.0076 0.37696 0.30201 0.0
C2978 C 0.02691 0.38407 0.3027 0.0
C2979 C 0.03729 0.40313 0.29313 0.0
C2980 C 0.05167 0.42016 0.30773 0.0
C2981 C 0.04699 0.40087 0.27542 0.0
C2982 C 0.02078 0.40553 0.28715 0.0
C2983 C 0.00387 0.39035 0.29268 0.0
C2984 C 0.98669 0.3894 0.28928 0.0
C2985 C 0.98668 0.40423 0.27964 0.0
C2986 C 0.0037 0.41967 0.27313 0.0
C2987 C 0.02101 0.42033 0.27716 0.0
H2988 H 0.6296 0.62506 0.34079 0.0
H2989 H 0.67286 0.65627 0.3011 0.0
H2990 H 0.65555 0.62784 0.27624 0.0
H2991 H 0.62253 0.57667 0.3265 0.0
H2992 H 0.59742 0.56412 0.32975 0.0
H2993 H 0.61361 0.5867 0.34429 0.0
H2994 H 0.5941 0.6018 0.33295 0.0
H2995 H 0.5779 0.5793 0.31841 0.0
H2996 H 0.58976 0.60215 0.30739 0.0
H2997 H 0.63137 0.59705 0.25483 0.0
H2998 H 0.60398 0.56545 0.23976 0.0
H2999 H 0.57856 0.55384 0.29476 0.0
C3000 C 0.63547 0.62584 0.32688 0.0
C3001 C 0.65241 0.64278 0.32268 0.0
C3002 C 0.65987 0.6433 0.3045 0.0
C3003 C 0.65013 0.62728 0.29034 0.0
C3004 C 0.63329 0.61078 0.2949 0.0
C3005 C 0.62624 0.60986 0.31288 0.0
C3006 C 0.60798 0.59051 0.31432 0.0
C3007 C 0.61055 0.57881 0.32962 0.0
C3008 C 0.59146 0.59364 0.3185 0.0
C3009 C 0.60545 0.58088 0.29413 0.0
C3010 C 0.62013 0.59275 0.28306 0.0
C3011 C 0.62004 0.58746 0.26348 0.0
C3012 C 0.60451 0.56958 0.25504 0.0
C3013 C 0.58958 0.55726 0.26631 0.0
C3014 C 0.59015 0.5629 0.28606 0.0
H3015 H 0.34847 0.9528 0.36857 0.0
H3016 H 0.32901 0.98547 0.33775 0.0
H3017 H 0.34997 0.98895 0.31184 0.0
H3018 H 0.39621 0.98226 0.3595 0.0
H3019 H 0.40111 0.9628 0.35632 0.0
H3020 H 0.38254 0.96004 0.37121 0.0
H3021 H 0.35823 0.92784 0.35055 0.0
H3022 H 0.3768 0.93043 0.33564 0.0
H3023 H 0.35546 0.92795 0.32468 0.0
H3024 H 0.37488 0.99215 0.29126 0.0
H3025 H 0.40274 0.99462 0.2765 0.0
H3026 H 0.40738 0.96057 0.32025 0.0
C3027 C 0.34828 0.96015 0.35606 0.0
C3028 C 0.33705 0.96873 0.355 0.0
C3029 C 0.33751 0.97877 0.33876 0.0
C3030 C 0.3493 0.98076 0.32394 0.0
C3031 C 0.36064 0.97269 0.32559 0.0
C3032 C 0.36025 0.96251 0.34114 0.0
C3033 C 0.37521 0.95687 0.34001 0.0
C3034 C 0.38962 0.96604 0.35782 0.0
C3035 C 0.36586 0.93444 0.33757 0.0
C3036 C 0.38432 0.96598 0.32175 0.0
C3037 C 0.37548 0.97481 0.31362 0.0
C3038 C 0.38183 0.98512 0.29734 0.0
C3039 C 0.39774 0.98659 0.28916 0.0
C3040 C 0.40722 0.97787 0.29729 0.0
C3041 C 0.40025 0.96719 0.31365 0.0
H3042 H 0.62726 0.99509 0.34293 0.0
H3043 H 0.58955 0.93857 0.3642 0.0
H3044 H 0.56365 0.93344 0.34091 0.0
H3045 H 0.59289 0.00888 0.33726 0.0
H3046 H 0.60211 0.02102 0.31569 0.0
H3047 H 0.61774 0.01965 0.33333 0.0
H3048 H 0.62777 0.00327 0.30672 0.0
H3049 H 0.61209 0.00452 0.28899 0.0
H3050 H 0.60979 0.98127 0.29252 0.0
H3051 H 0.54182 0.9349 0.31554 0.0
H3052 H 0.52521 0.94361 0.29164 0.0
H3053 H 0.57732 0.99941 0.2875 0.0
C3054 C 0.61359 0.98157 0.34264 0.0
C3055 C 0.6104 0.96717 0.35531 0.0
C3056 C 0.59227 0.94978 0.35461 0.0
C3057 C 0.57752 0.94672 0.34139 0.0
C3058 C 0.58118 0.96123 0.32907 0.0
C3059 C 0.59874 0.97836 0.32968 0.0
C3060 C 0.59885 0.99202 0.31549 0.0
C3061 C 0.60315 0.01154 0.32608 0.0
C3062 C 0.61296 0.99547 0.30002 0.0
C3063 C 0.57852 0.98001 0.30689 0.0
C3064 C 0.5686 0.9622 0.31474 0.0
C3065 C 0.54949 0.94875 0.30922 0.0
C3066 C 0.54022 0.95376 0.29554 0.0
C3067 C 0.55003 0.97212 0.28763 0.0
C3068 C 0.56947 0.98529 0.29331 0.0
H3069 H 0.00129 0.64923 0.29834 0.0
H3070 H 0.05551 0.67181 0.33099 0.0
H3071 H 0.0584 0.64518 0.31529 0.0
H3072 H 0.98485 0.59837 0.30122 0.0
H3073 H 0.97339 0.59051 0.27707 0.0
H3074 H 0.97573 0.61194 0.29012 0.0
H3075 H 0.99291 0.63271 0.26199 0.0
H3076 H 0.99055 0.61132 0.24882 0.0
H3077 H 0.0137 0.63325 0.25378 0.0
H3078 H 0.05542 0.61615 0.29714 0.0
H3079 H 0.04654 0.58566 0.27717 0.0
H3080 H 0.99411 0.58104 0.25606 0.0
C3081 C 0.01382 0.64862 0.30202 0.0
C3082 C 0.02822 0.66265 0.31581 0.0
C3083 C 0.04432 0.66128 0.32043 0.0
C3084 C 0.04612 0.6462 0.31159 0.0
C3085 C 0.03166 0.63253 0.29821 0.0
C3086 C 0.0158 0.63351 0.29339 0.0
C3087 C 0.00215 0.61649 0.27889 0.0
C3088 C 0.98289 0.60357 0.28733 0.0
C3089 C 0.99969 0.62389 0.25973 0.0
C3090 C 0.01282 0.60583 0.27646 0.0
C3091 C 0.02984 0.61545 0.28771 0.0
C3092 C 0.0422 0.60851 0.28814 0.0
C3093 C 0.03707 0.59125 0.27668 0.0
C3094 C 0.01974 0.58111 0.26494 0.0
C3095 C 0.00742 0.58848 0.26493 0.0
H3096 H 0.34711 0.35719 0.3311 0.0
H3097 H 0.35279 0.40097 0.37562 0.0
H3098 H 0.38234 0.42591 0.36259 0.0
H3099 H 0.39601 0.37331 0.3313 0.0
H3100 H 0.39602 0.36897 0.30549 0.0
H3101 H 0.37461 0.35454 0.3175 0.0
H3102 H 0.35639 0.36468 0.29462 0.0
H3103 H 0.3777 0.37897 0.28239 0.0
H3104 H 0.3655 0.39036 0.29251 0.0
H3105 H 0.41218 0.44555 0.34637 0.0
H3106 H 0.43965 0.45941 0.32635 0.0
H3107 H 0.41428 0.40345 0.29145 0.0
C3108 C 0.35445 0.37209 0.33792 0.0
C3109 C 0.34767 0.37714 0.35438 0.0
C3110 C 0.35772 0.39675 0.36299 0.0
C3111 C 0.37454 0.41104 0.35572 0.0
C3112 C 0.38107 0.40552 0.33976 0.0
C3113 C 0.37128 0.38661 0.33079 0.0
C3114 C 0.38165 0.38458 0.314 0.0
C3115 C 0.38741 0.36945 0.31728 0.0
C3116 C 0.36959 0.37934 0.29474 0.0
C3117 C 0.39889 0.40523 0.31516 0.0
C3118 C 0.39825 0.41704 0.33013 0.0
C3119 C 0.41276 0.43654 0.33442 0.0
C3120 C 0.42827 0.44429 0.32292 0.0
C3121 C 0.42911 0.43259 0.30724 0.0
C3122 C 0.4142 0.41276 0.30343 0.0
H3123 H 0.33566 0.31137 0.39918 0.0
H3124 H 0.274 0.27758 0.39388 0.0
H3125 H 0.27428 0.25001 0.40802 0.0
H3126 H 0.34164 0.26961 0.3868 0.0
H3127 H 0.36235 0.27926 0.40349 0.0
H3128 H 0.35709 0.29577 0.39223 0.0
H3129 H 0.35768 0.31184 0.42609 0.0
H3130 H 0.36281 0.29531 0.43744 0.0
H3131 H 0.34245 0.29666 0.44373 0.0
H3132 H 0.28162 0.22783 0.42603 0.0
H3133 H 0.29498 0.21157 0.4438 0.0
H3134 H 0.35202 0.25858 0.43388 0.0
C3135 C 0.32221 0.29809 0.40083 0.0
C3136 C 0.30479 0.29657 0.39556 0.0
C3137 C 0.28749 0.27895 0.39778 0.0
C3138 C 0.28753 0.26328 0.40583 0.0
C3139 C 0.305 0.26536 0.41114 0.0
C3140 C 0.32202 0.28221 0.40841 0.0
C3141 C 0.33885 0.28085 0.41538 0.0
C3142 C 0.35068 0.2814 0.39846 0.0
C3143 C 0.35116 0.29713 0.43163 0.0
C3144 C 0.32867 0.26082 0.42299 0.0
C3145 C 0.30917 0.25215 0.42049 0.0
C3146 C 0.29686 0.23426 0.42763 0.0
C3147 C 0.30468 0.22503 0.4376 0.0
C3148 C 0.32469 0.23349 0.44018 0.0
C3149 C 0.33671 0.25158 0.43245 0.0
H3150 H 0.70766 0.02646 0.40742 0.0
H3151 H 0.65945 0.02618 0.43115 0.0
H3152 H 0.68142 0.05798 0.45009 0.0
H3153 H 0.73904 0.04732 0.45086 0.0
H3154 H 0.75989 0.06163 0.43797 0.0
H3155 H 0.7403 0.03884 0.42657 0.0
H3156 H 0.73825 0.05696 0.39776 0.0
H3157 H 0.75779 0.07982 0.40909 0.0
H3158 H 0.73549 0.07776 0.40236 0.0
H3159 H 0.7089 0.09031 0.46583 0.0
H3160 H 0.73968 0.11985 0.478 0.0
H3161 H 0.76938 0.09839 0.44366 0.0
C3162 C 0.7017 0.03303 0.41665 0.0
C3163 C 0.68188 0.02391 0.41783 0.0
C3164 C 0.67463 0.03295 0.43007 0.0
C3165 C 0.68697 0.051 0.44085 0.0
C3166 C 0.70647 0.05968 0.43922 0.0
C3167 C 0.71377 0.05093 0.42749 0.0
C3168 C 0.73523 0.0632 0.42822 0.0
C3169 C 0.74413 0.05208 0.4364 0.0
C3170 C 0.74208 0.06983 0.40816 0.0
C3171 C 0.7389 0.0803 0.44215 0.0
C3172 C 0.72218 0.07808 0.44832 0.0
C3173 C 0.72209 0.09219 0.46111 0.0
C3174 C 0.7396 0.10894 0.46785 0.0
C3175 C 0.75688 0.11134 0.46182 0.0
C3176 C 0.75641 0.09683 0.44873 0.0
H3177 H 0.99058 0.68901 0.38974 0.0
H3178 H 0.97557 0.70899 0.33932 0.0
H3179 H 0.94647 0.7036 0.35409 0.0
H3180 H 0.9435 0.65159 0.39944 0.0
H3181 H 0.94781 0.6567 0.42537 0.0
H3182 H 0.96713 0.66162 0.41061 0.0
H3183 H 0.98607 0.69781 0.42549 0.0
H3184 H 0.96685 0.69297 0.44037 0.0
H3185 H 0.97532 0.71247 0.4246 0.0
H3186 H 0.91831 0.6946 0.37387 0.0
H3187 H 0.89492 0.68607 0.39875 0.0
H3188 H 0.92966 0.67443 0.43713 0.0
C3189 C 0.98112 0.6922 0.38181 0.0
C3190 C 0.98517 0.69925 0.36335 0.0
C3191 C 0.97268 0.70357 0.3535 0.0
C3192 C 0.9561 0.70048 0.36173 0.0
C3193 C 0.95245 0.69338 0.37993 0.0
C3194 C 0.96476 0.68959 0.38998 0.0
C3195 C 0.95799 0.68287 0.40966 0.0
C3196 C 0.95386 0.66195 0.41136 0.0
C3197 C 0.97242 0.6974 0.42599 0.0
C3198 C 0.93987 0.68332 0.40907 0.0
C3199 C 0.93679 0.68918 0.3917 0.0
C3200 C 0.92065 0.69015 0.38758 0.0
C3201 C 0.90745 0.68523 0.40169 0.0
C3202 C 0.91066 0.67973 0.41973 0.0
C3203 C 0.92704 0.67875 0.42344 0.0
H3204 H 0.39473 0.04319 0.72916 0.0
H3205 H 0.35652 0.98128 0.71079 0.0
H3206 H 0.37485 0.97292 0.73253 0.0
H3207 H 0.43776 0.04243 0.73405 0.0
H3208 H 0.44735 0.05916 0.75571 0.0
H3209 H 0.43133 0.06062 0.73862 0.0
H3210 H 0.40913 0.05673 0.76584 0.0
H3211 H 0.42511 0.05529 0.78302 0.0
H3212 H 0.40043 0.03592 0.77992 0.0
H3213 H 0.39821 0.97117 0.75399 0.0
H3214 H 0.42406 0.9757 0.77615 0.0
H3215 H 0.44551 0.03838 0.7844 0.0
C3216 C 0.39029 0.02792 0.72978 0.0
C3217 C 0.37425 0.01287 0.71825 0.0
C3218 C 0.36871 0.99302 0.71955 0.0
C3219 C 0.37905 0.98811 0.73182 0.0
C3220 C 0.39474 0.00318 0.743 0.0
C3221 C 0.40026 0.02266 0.74236 0.0
C3222 C 0.41751 0.03581 0.75636 0.0
C3223 C 0.43449 0.05037 0.74553 0.0
C3224 C 0.41275 0.04657 0.77223 0.0
C3225 C 0.42094 0.02066 0.76458 0.0
C3226 C 0.40768 0.00199 0.75651 0.0
C3227 C 0.40844 0.98566 0.76081 0.0
C3228 C 0.42317 0.98843 0.77371 0.0
C3229 C 0.43687 0.00738 0.78265 0.0
C3230 C 0.4355 0.02366 0.77797 0.0
H3231 H 0.97213 0.33596 0.74966 0.0
H3232 H 0.02103 0.33697 0.77614 0.0
H3233 H 0.02962 0.36746 0.79628 0.0
H3234 H 0.99408 0.38717 0.74696 0.0
H3235 H 0.97328 0.38797 0.75256 0.0
H3236 H 0.97068 0.36591 0.74082 0.0
H3237 H 0.95056 0.34603 0.76817 0.0
H3238 H 0.95302 0.36803 0.77996 0.0
H3239 H 0.96013 0.3538 0.79301 0.0
H3240 H 0.03378 0.39894 0.81207 0.0
H3241 H 0.032 0.42786 0.82373 0.0
H3242 H 0.9799 0.40531 0.78736 0.0
C3243 C 0.98457 0.34251 0.75979 0.0
C3244 C 0.99596 0.33419 0.76135 0.0
C3245 C 0.01211 0.34314 0.77478 0.0
C3246 C 0.0171 0.36045 0.78624 0.0
C3247 C 0.00568 0.36843 0.78416 0.0
C3248 C 0.98965 0.35964 0.7714 0.0
C3249 C 0.97983 0.37118 0.77175 0.0
C3250 C 0.97946 0.37849 0.75184 0.0
C3251 C 0.95969 0.35903 0.77864 0.0
C3252 C 0.99294 0.38798 0.78657 0.0
C3253 C 0.00782 0.38621 0.79353 0.0
C3254 C 0.0221 0.4004 0.80685 0.0
C3255 C 0.02105 0.41676 0.81331 0.0
C3256 C 0.00575 0.41862 0.8065 0.0
C3257 C 0.99158 0.40404 0.79299 0.0
H3258 H 0.65201 0.60695 0.70481 0.0
H3259 H 0.68051 0.66489 0.73616 0.0
H3260 H 0.65626 0.65267 0.75996 0.0
H3261 H 0.6051 0.59624 0.71039 0.0
H3262 H 0.59514 0.57059 0.71346 0.0
H3263 H 0.61556 0.58328 0.69958 0.0
H3264 H 0.63431 0.57304 0.72158 0.0
H3265 H 0.61389 0.5602 0.73545 0.0
H3266 H 0.63649 0.57881 0.74742 0.0
H3267 H 0.6285 0.63503 0.77936 0.0
H3268 H 0.59871 0.6126 0.7938 0.0
H3269 H 0.58724 0.56604 0.74966 0.0
C3270 C 0.65327 0.61693 0.71687 0.0
C3271 C 0.66814 0.63684 0.7187 0.0
C3272 C 0.66921 0.64958 0.73448 0.0
C3273 C 0.65554 0.64278 0.7481 0.0
C3274 C 0.64084 0.62321 0.74571 0.0
C3275 C 0.6396 0.6104 0.73057 0.0
C3276 C 0.62181 0.5903 0.73099 0.0
C3277 C 0.60862 0.58479 0.71251 0.0
C3278 C 0.62694 0.57467 0.73405 0.0
C3279 C 0.61321 0.59394 0.74858 0.0
C3280 C 0.62451 0.61301 0.75687 0.0
C3281 C 0.6195 0.62005 0.77303 0.0
C3282 C 0.60246 0.60724 0.781 0.0
C3283 C 0.59054 0.58762 0.77275 0.0
C3284 C 0.59609 0.58092 0.75636 0.0
H3285 H 0.71689 0.71686 0.66857 0.0
H3286 H 0.68611 0.66652 0.62606 0.0
H3287 H 0.67777 0.68568 0.60592 0.0
H3288 H 0.68364 0.73062 0.66705 0.0
H3289 H 0.70008 0.7568 0.66977 0.0
H3290 H 0.70686 0.74072 0.67931 0.0
H3291 H 0.73652 0.75542 0.65938 0.0
H3292 H 0.72999 0.7718 0.64997 0.0
H3293 H 0.73367 0.75586 0.63358 0.0
H3294 H 0.66928 0.7082 0.59259 0.0
H3295 H 0.66195 0.73359 0.586 0.0
H3296 H 0.69729 0.76956 0.63736 0.0
C3297 C 0.70904 0.71022 0.65465 0.0
C3298 C 0.70235 0.69038 0.64863 0.0
C3299 C 0.69147 0.6818 0.63075 0.0
C3300 C 0.68669 0.69255 0.61923 0.0
C3301 C 0.69284 0.71185 0.62586 0.0
C3302 C 0.7039 0.72073 0.64306 0.0
C3303 C 0.7069 0.74099 0.64771 0.0
C3304 C 0.69889 0.74235 0.6671 0.0
C3305 C 0.72803 0.75696 0.64765 0.0
C3306 C 0.69532 0.74179 0.63077 0.0
C3307 C 0.68753 0.72488 0.61827 0.0
C3308 C 0.67544 0.7216 0.60214 0.0
C3309 C 0.67119 0.73599 0.59865 0.0
C3310 C 0.67891 0.75341 0.61129 0.0
C3311 C 0.6913 0.75642 0.62743 0.0
H3312 H 0.29833 0.98527 0.63667 0.0
H3313 H 0.34351 0.97309 0.64342 0.0
H3314 H 0.3236 0.94121 0.62386 0.0
H3315 H 0.26177 0.94057 0.64289 0.0
H3316 H 0.24495 0.93964 0.62498 0.0
H3317 H 0.26391 0.96295 0.63594 0.0
H3318 H 0.27525 0.9743 0.60216 0.0
H3319 H 0.25605 0.95108 0.59098 0.0
H3320 H 0.28022 0.9594 0.58573 0.0
H3321 H 0.29629 0.90814 0.61022 0.0
H3322 H 0.26522 0.87815 0.60057 0.0
H3323 H 0.239 0.91325 0.59968 0.0
C3324 C 0.30425 0.97618 0.63339 0.0
C3325 C 0.32237 0.98151 0.64143 0.0
C3326 C 0.3297 0.96927 0.63713 0.0
C3327 C 0.31848 0.95115 0.62609 0.0
C3328 C 0.30026 0.94586 0.61906 0.0
C3329 C 0.29341 0.9583 0.62209 0.0
C3330 C 0.27288 0.94862 0.61439 0.0
C3331 C 0.26014 0.9479 0.63051 0.0
C3332 C 0.271 0.95896 0.59729 0.0
C3333 C 0.26885 0.92837 0.60775 0.0
C3334 C 0.2848 0.92705 0.61037 0.0
C3335 C 0.28385 0.90914 0.60748 0.0
C3336 C 0.2661 0.89216 0.60196 0.0
C3337 C 0.24954 0.89321 0.59935 0.0
C3338 C 0.25123 0.91175 0.60175 0.0
H3339 H 0.03627 0.31652 0.70157 0.0
H3340 H 0.00165 0.25295 0.69715 0.0
H3341 H 0.02342 0.25115 0.67437 0.0
H3342 H 0.04719 0.32223 0.6534 0.0
H3343 H 0.07141 0.34225 0.65854 0.0
H3344 H 0.05382 0.33845 0.67528 0.0
H3345 H 0.07445 0.33652 0.70299 0.0
H3346 H 0.09225 0.34057 0.68638 0.0
H3347 H 0.08226 0.3193 0.69989 0.0
H3348 H 0.04678 0.2568 0.64908 0.0
H3349 H 0.07188 0.26891 0.62628 0.0
H3350 H 0.09323 0.32882 0.65042 0.0
C3351 C 0.03344 0.30222 0.69599 0.0
C3352 C 0.01734 0.28485 0.70095 0.0
C3353 C 0.01404 0.26639 0.69353 0.0
C3354 C 0.02626 0.26526 0.68057 0.0
C3355 C 0.04185 0.28273 0.67564 0.0
C3356 C 0.04569 0.30085 0.68347 0.0
C3357 C 0.06331 0.31743 0.67584 0.0
C3358 C 0.05864 0.33087 0.66513 0.0
C3359 C 0.079 0.32914 0.69225 0.0
C3360 C 0.06848 0.30585 0.66201 0.0
C3361 C 0.0559 0.28589 0.66199 0.0
C3362 C 0.05703 0.27238 0.64935 0.0
C3363 C 0.07149 0.27946 0.6365 0.0
C3364 C 0.0849 0.2999 0.63656 0.0
C3365 C 0.08328 0.31314 0.64969 0.0
H3366 H 0.27315 0.31184 0.68504 0.0
H3367 H 0.31539 0.31654 0.6465 0.0
H3368 H 0.29749 0.31972 0.61913 0.0
H3369 H 0.23109 0.28582 0.65019 0.0
H3370 H 0.22105 0.29979 0.65945 0.0
H3371 H 0.23578 0.29526 0.67533 0.0
H3372 H 0.25772 0.33271 0.68452 0.0
H3373 H 0.24315 0.33733 0.66853 0.0
H3374 H 0.26827 0.34883 0.66566 0.0
H3375 H 0.2756 0.32341 0.59629 0.0
H3376 H 0.25212 0.32936 0.57993 0.0
H3377 H 0.22586 0.32527 0.63398 0.0
C3378 C 0.27827 0.31301 0.67071 0.0
C3379 C 0.29535 0.31355 0.66763 0.0
C3380 C 0.30216 0.31587 0.64894 0.0
C3381 C 0.29211 0.31766 0.63337 0.0
C3382 C 0.27548 0.31748 0.63688 0.0
C3383 C 0.26867 0.31536 0.65511 0.0
C3384 C 0.25148 0.31752 0.65536 0.0
C3385 C 0.2338 0.29846 0.66037 0.0
C3386 C 0.2554 0.33515 0.66934 0.0
C3387 C 0.24977 0.32125 0.63449 0.0
C3388 C 0.26357 0.32087 0.624 0.0
C3389 C 0.26475 0.32378 0.60435 0.0
C3390 C 0.25144 0.32716 0.5952 0.0
C3391 C 0.23747 0.32797 0.60582 0.0
C3392 C 0.23664 0.32497 0.62568 0.0
H3393 H 0.69505 0.98632 0.65255 0.0
H3394 H 0.64821 0.98834 0.62501 0.0
H3395 H 0.63847 0.95746 0.60496 0.0
H3396 H 0.7065 0.96742 0.60975 0.0
H3397 H 0.71228 0.95224 0.62289 0.0
H3398 H 0.71565 0.97463 0.63474 0.0
H3399 H 0.69434 0.95514 0.66162 0.0
H3400 H 0.6909 0.9327 0.64986 0.0
H3401 H 0.67061 0.93464 0.65499 0.0
H3402 H 0.63337 0.92576 0.58869 0.0
H3403 H 0.63383 0.89618 0.57684 0.0
H3404 H 0.68415 0.91538 0.61513 0.0
C3405 C 0.68278 0.98031 0.64226 0.0
C3406 C 0.67235 0.98966 0.64033 0.0
C3407 C 0.6564 0.98138 0.62669 0.0
C3408 C 0.65077 0.96387 0.61525 0.0
C3409 C 0.66132 0.95495 0.6176 0.0
C3410 C 0.67704 0.96295 0.63071 0.0
C3411 C 0.68591 0.95048 0.63056 0.0
C3412 C 0.70629 0.96187 0.6241 0.0
C3413 C 0.6854 0.94278 0.65044 0.0
C3414 C 0.6726 0.93408 0.61546 0.0
C3415 C 0.65851 0.9369 0.60814 0.0
C3416 C 0.64437 0.92343 0.59427 0.0
C3417 C 0.64468 0.90665 0.58772 0.0
C3418 C 0.65906 0.90355 0.59503 0.0
C3419 C 0.67316 0.9175 0.60906 0.0
H3420 H 0.00734 0.68393 0.66749 0.0
H3421 H 0.00558 0.72602 0.70868 0.0
H3422 H 0.0343 0.75292 0.69593 0.0
H3423 H 0.05792 0.7066 0.67064 0.0
H3424 H 0.05917 0.70128 0.64528 0.0
H3425 H 0.03813 0.68537 0.65719 0.0
H3426 H 0.01746 0.69011 0.63182 0.0
H3427 H 0.03841 0.70591 0.61975 0.0
H3428 H 0.02326 0.7146 0.62777 0.0
H3429 H 0.06326 0.77516 0.67885 0.0
H3430 H 0.09031 0.79127 0.65832 0.0
H3431 H 0.07346 0.73459 0.62869 0.0
C3432 C 0.01292 0.69882 0.67373 0.0
C3433 C 0.00423 0.70292 0.68903 0.0
C3434 C 0.01202 0.72257 0.69693 0.0
C3435 C 0.02832 0.73793 0.6898 0.0
C3436 C 0.03668 0.73337 0.67485 0.0
C3437 C 0.02924 0.7143 0.66688 0.0
C3438 C 0.04107 0.71333 0.65108 0.0
C3439 C 0.04958 0.70091 0.65638 0.0
C3440 C 0.02935 0.70553 0.63145 0.0
C3441 C 0.05634 0.73483 0.65142 0.0
C3442 C 0.05352 0.74614 0.6652 0.0
C3443 C 0.06561 0.76645 0.66801 0.0
C3444 C 0.08089 0.77546 0.65628 0.0
C3445 C 0.08397 0.76416 0.64199 0.0
C3446 C 0.0716 0.74356 0.63969 0.0
H3447 H 0.98393 0.63583 0.74858 0.0
H3448 H 0.93945 0.59776 0.70397 0.0
H3449 H 0.93972 0.56909 0.71515 0.0
H3450 H 0.00998 0.6111 0.74663 0.0
H3451 H 0.01557 0.61467 0.77244 0.0
H3452 H 0.01219 0.6321 0.7605 0.0
H3453 H 0.98617 0.62715 0.78352 0.0
H3454 H 0.98951 0.60976 0.79557 0.0
H3455 H 0.96622 0.60275 0.78543 0.0
H3456 H 0.94525 0.54469 0.73127 0.0
H3457 H 0.95439 0.52635 0.75179 0.0
H3458 H 0.99394 0.58061 0.78679 0.0
C3459 C 0.9743 0.62149 0.74106 0.0
C3460 C 0.96174 0.619 0.72533 0.0
C3461 C 0.94921 0.59996 0.71604 0.0
C3462 C 0.9493 0.58363 0.72226 0.0
C3463 C 0.9619 0.58662 0.73784 0.0
C3464 C 0.97408 0.60508 0.74718 0.0
C3465 C 0.98582 0.60436 0.76392 0.0
C3466 C 0.00715 0.61626 0.76067 0.0
C3467 C 0.98167 0.61142 0.78325 0.0
C3468 C 0.97837 0.58258 0.76259 0.0
C3469 C 0.96469 0.5726 0.74739 0.0
C3470 C 0.95586 0.55235 0.74329 0.0
C3471 C 0.96107 0.54204 0.75512 0.0
C3472 C 0.97487 0.55196 0.77101 0.0
C3473 C 0.98358 0.57254 0.77464 0.0
H3474 H 0.38159 0.36151 0.73775 0.0
H3475 H 0.33177 0.36458 0.74957 0.0
H3476 H 0.35169 0.39441 0.77191 0.0
H3477 H 0.40474 0.3784 0.78661 0.0
H3478 H 0.42821 0.3922 0.77812 0.0
H3479 H 0.40983 0.37052 0.76388 0.0
H3480 H 0.41514 0.39078 0.73445 0.0
H3481 H 0.43351 0.41249 0.74859 0.0
H3482 H 0.41361 0.41248 0.73707 0.0
H3483 H 0.37737 0.42499 0.7914 0.0
H3484 H 0.40694 0.45373 0.80712 0.0
H3485 H 0.43968 0.43029 0.78264 0.0
C3486 C 0.37484 0.36835 0.74517 0.0
C3487 C 0.35516 0.36078 0.74196 0.0
C3488 C 0.34684 0.37016 0.75187 0.0
C3489 C 0.35802 0.38708 0.76459 0.0
C3490 C 0.37743 0.3943 0.7673 0.0
C3491 C 0.38575 0.38518 0.75794 0.0
C3492 C 0.407 0.39622 0.76289 0.0
C3493 C 0.41278 0.38358 0.77351 0.0
C3494 C 0.41795 0.40342 0.74467 0.0
C3495 C 0.40938 0.41314 0.77625 0.0
C3496 C 0.39216 0.41176 0.77867 0.0
C3497 C 0.39092 0.42615 0.78976 0.0
C3498 C 0.40775 0.44243 0.79853 0.0
C3499 C 0.42552 0.44411 0.79617 0.0
C3500 C 0.42625 0.42918 0.78499 0.0
H3501 H 0.64589 0.01699 0.71124 0.0
H3502 H 0.66529 0.07424 0.6911 0.0
H3503 H 0.64351 0.07809 0.71233 0.0
H3504 H 0.59693 0.00221 0.71336 0.0
H3505 H 0.59398 0.98945 0.73471 0.0
H3506 H 0.61113 0.99154 0.71805 0.0
H3507 H 0.63768 0.00741 0.74605 0.0
H3508 H 0.62063 0.00539 0.76279 0.0
H3509 H 0.64165 0.02894 0.76047 0.0
H3510 H 0.61974 0.07551 0.73665 0.0
H3511 H 0.59537 0.06629 0.76048 0.0
H3512 H 0.59185 0.01054 0.76372 0.0
C3513 C 0.64562 0.03039 0.71124 0.0
C3514 C 0.65733 0.04537 0.69957 0.0
C3515 C 0.65642 0.06258 0.69993 0.0
C3516 C 0.64413 0.06489 0.71196 0.0
C3517 C 0.63284 0.04979 0.72338 0.0
C3518 C 0.63345 0.03284 0.72298 0.0
C3519 C 0.61985 0.01864 0.73635 0.0
C3520 C 0.60457 0.99932 0.72493 0.0
C3521 C 0.6306 0.01488 0.75237 0.0
C3522 C 0.61143 0.03021 0.74447 0.0
C3523 C 0.61912 0.04818 0.73693 0.0
C3524 C 0.61363 0.06146 0.74259 0.0
C3525 C 0.59987 0.05614 0.75619 0.0
C3526 C 0.59169 0.03768 0.76389 0.0
C3527 C 0.59765 0.02464 0.75791 0.0
loop_
_geom_bond_atom_site_label_1
_geom_bond_atom_site_label_2
_geom_bond_distance
_geom_bond_site_symmetry_2
_ccdc_geom_bond_type
Co0 O1 2.216 . S
Co0 O2 2.091 . S
Co0 O4 2.004 . S
Co0 O10 2.021 . S
Co0 O12 2.137 1_455 S
Co0 O13 2.244 1_455 S
O1 Co0 2.216 . S
O1 C8 1.247 . S
O2 Co0 2.091 . S
O2 C8 1.261 . S
C3 O12 1.247 . S
C3 O13 1.272 . S
O4 Co0 2.004 . S
O4 C9 1.259 1_554 S
Co5 O6 2.096 . S
Co5 O11 2.052 . S
Co5 O13 2.135 . S
O6 Co5 2.096 . S
O6 C9 1.217 1_654 S
C7 O10 1.238 1_655 S
C7 O11 1.241 . S
C8 O1 1.247 . S
C8 O2 1.261 . S
C9 O4 1.259 1_556 S
C9 O6 1.217 1_456 S
O10 Co0 2.021 . S
O10 C7 1.238 1_455 S
O11 Co5 2.052 . S
O11 C7 1.241 . S
O12 Co0 2.137 1_655 S
O12 C3 1.247 . S
O13 Co0 2.244 1_655 S
O13 C3 1.272 . S
O13 Co5 2.135 . S
Co14 O15 2.216 . S
Co14 O16 2.091 . S
Co14 O18 2.004 . S
Co14 O24 2.021 . S
Co14 O26 2.137 . S
Co14 O27 2.244 . S
O15 Co14 2.216 . S
O15 C22 1.247 . S
O16 Co14 2.091 . S
O16 C22 1.261 . S
C17 O26 1.247 . S
C17 O27 1.272 . S
O18 Co14 2.004 . S
O18 C23 1.259 . S
Co19 O20 2.061 . S
Co19 O25 2.052 . S
Co19 O27 2.135 . S
O20 Co19 2.061 . S
O20 C23 1.235 . S
C21 O24 1.238 . S
C21 O25 1.241 . S
C22 O15 1.247 . S
C22 O16 1.261 . S
C23 O18 1.259 . S
C23 O20 1.235 . S
O24 Co14 2.021 . S
O24 C21 1.238 . S
O25 Co19 2.052 . S
O25 C21 1.241 . S
O26 Co14 2.137 . S
O26 C17 1.247 . S
O27 Co14 2.244 . S
O27 C17 1.272 . S
O27 Co19 2.135 . S
Co28 O29 2.216 . S
Co28 O30 2.091 . S
Co28 O32 2.004 . S
Co28 O38 2.021 . S
Co28 O40 2.139 1_545 S
Co28 O41 2.244 1_545 S
O29 Co28 2.216 . S
O29 C36 1.247 . S
O30 Co28 2.091 . S
O30 C36 1.261 . S
C31 O40 1.262 . S
C31 O41 1.272 . S
O32 Co28 2.004 . S
O32 C37 1.259 . S
Co33 O34 2.061 . S
Co33 O39 2.052 . S
Co33 O41 2.135 . S
O34 Co33 2.061 . S
O34 C37 1.235 1_565 S
C35 O38 1.239 1_566 S
C35 O39 1.243 1_556 S
C36 O29 1.247 . S
C36 O30 1.261 . S
C37 O32 1.259 . S
C37 O34 1.235 1_545 S
O38 Co28 2.021 . S
O38 C35 1.239 1_544 S
O39 Co33 2.052 . S
O39 C35 1.243 1_554 S
O40 Co28 2.139 1_565 S
O40 C31 1.262 . S
O41 Co28 2.244 1_565 S
O41 C31 1.272 . S
O41 Co33 2.135 . S
Co42 O43 2.216 . S
Co42 O44 2.091 . S
Co42 O46 2.004 . S
Co42 O52 2.021 . S
Co42 O54 2.137 1_655 S
Co42 O55 2.244 1_655 S
O43 Co42 2.216 . S
O43 C50 1.247 . S
O44 Co42 2.091 . S
O44 C50 1.261 . S
C45 O54 1.247 . S
C45 O55 1.272 . S
O46 Co42 2.004 . S
O46 C51 1.310 . S
Co47 O48 2.061 . S
Co47 O53 2.052 . S
Co47 O55 2.135 . S
O48 Co47 2.061 . S
O48 C51 1.182 1_455 S
C49 O52 1.238 1_455 S
C49 O53 1.241 . S
C50 O43 1.247 . S
C50 O44 1.261 . S
C51 O46 1.310 . S
C51 O48 1.182 1_655 S
O52 Co42 2.021 . S
O52 C49 1.238 1_655 S
O53 Co47 2.052 . S
O53 C49 1.241 . S
O54 Co42 2.137 1_455 S
O54 C45 1.247 . S
O55 Co42 2.244 1_455 S
O55 C45 1.272 . S
O55 Co47 2.135 . S
Co56 O57 2.216 . S
Co56 O58 2.091 . S
Co56 O60 2.004 1_554 S
Co56 O66 2.021 . S
Co56 O68 2.137 1_554 S
Co56 O69 2.244 1_554 S
O57 Co56 2.216 . S
O57 C64 1.247 . S
O58 Co56 2.091 . S
O58 C64 1.261 . S
C59 O68 1.247 . S
C59 O69 1.272 . S
O60 Co56 2.004 1_556 S
O60 C65 1.259 . S
Co61 O62 2.061 . S
Co61 O67 2.052 1_556 S
Co61 O69 2.135 . S
O62 Co61 2.061 . S
O62 C65 1.235 . S
C63 O66 1.238 . S
C63 O67 1.241 . S
C64 O57 1.247 . S
C64 O58 1.261 . S
C65 O60 1.259 . S
C65 O62 1.235 . S
O66 Co56 2.021 . S
O66 C63 1.238 . S
O67 Co61 2.052 1_554 S
O67 C63 1.241 . S
O68 Co56 2.137 1_556 S
O68 C59 1.247 . S
O69 Co56 2.244 1_556 S
O69 C59 1.272 . S
O69 Co61 2.135 . S
Co70 O71 2.216 . S
Co70 O72 2.091 . S
Co70 O74 2.004 . S
Co70 O80 2.021 . S
Co70 O82 2.137 1_565 S
Co70 O83 2.244 1_565 S
O71 Co70 2.216 . S
O71 C78 1.247 . S
O72 Co70 2.091 . S
O72 C78 1.261 . S
C73 O82 1.247 . S
C73 O83 1.272 . S
O74 Co70 2.004 . S
O74 C79 1.259 . S
Co75 O76 2.061 . S
Co75 O81 2.052 . S
Co75 O83 2.135 . S
O76 Co75 2.061 . S
O76 C79 1.235 1_545 S
C77 O80 1.238 1_545 S
C77 O81 1.241 . S
C78 O71 1.247 . S
C78 O72 1.261 . S
C79 O74 1.259 . S
C79 O76 1.235 1_565 S
O80 Co70 2.021 . S
O80 C77 1.238 1_565 S
O81 Co75 2.052 . S
O81 C77 1.241 . S
O82 Co70 2.137 1_545 S
O82 C73 1.247 . S
O83 Co70 2.244 1_545 S
O83 C73 1.272 . S
O83 Co75 2.135 . S
Co84 O85 2.216 . S
Co84 O86 2.091 . S
Co84 O88 2.004 . S
Co84 O94 2.021 . S
Co84 O96 2.137 . S
Co84 O97 2.244 . S
O85 Co84 2.216 . S
O85 C92 1.247 . S
O86 Co84 2.091 . S
O86 C92 1.261 . S
C87 O96 1.247 . S
C87 O97 1.272 . S
O88 Co84 2.004 . S
O88 C93 1.259 . S
Co89 O90 2.061 . S
Co89 O95 2.052 . S
Co89 O97 2.135 . S
O90 Co89 2.061 . S
O90 C93 1.235 . S
C91 O94 1.238 . S
C91 O95 1.241 . S
C92 O85 1.247 . S
C92 O86 1.261 . S
C93 O88 1.259 . S
C93 O90 1.235 . S
O94 Co84 2.021 . S
O94 C91 1.238 . S
O95 Co89 2.052 . S
O95 C91 1.241 . S
O96 Co84 2.137 . S
O96 C87 1.247 . S
O97 Co84 2.244 . S
O97 C87 1.272 . S
O97 Co89 2.135 . S
Co98 O99 2.216 . S
Co98 O100 2.091 . S
Co98 O102 2.004 . S
Co98 O108 2.021 . S
Co98 O110 2.137 . S
Co98 O111 2.244 . S
O99 Co98 2.216 . S
O99 C106 1.247 . S
O100 Co98 2.091 . S
O100 C106 1.261 . S
C101 O110 1.247 . S
C101 O111 1.272 . S
O102 Co98 2.004 . S
O102 C107 1.259 . S
Co103 O104 2.061 . S
Co103 O109 2.052 . S
Co103 O111 2.135 . S
O104 Co103 2.061 . S
O104 C107 1.235 . S
C105 O108 1.238 . S
C105 O109 1.241 . S
C106 O99 1.247 . S
C106 O100 1.261 . S
C107 O102 1.259 . S
C107 O104 1.235 . S
O108 Co98 2.021 . S
O108 C105 1.238 . S
O109 Co103 2.052 . S
O109 C105 1.241 . S
O110 Co98 2.137 . S
O110 C101 1.247 . S
O111 Co98 2.244 . S
O111 C101 1.272 . S
O111 Co103 2.135 . S
Co112 O113 2.216 . S
Co112 O114 2.091 . S
Co112 O116 2.004 . S
Co112 O122 2.021 . S
Co112 O124 2.137 . S
Co112 O125 2.244 . S
O113 Co112 2.216 . S
O113 C120 1.247 . S
O114 Co112 2.091 . S
O114 C120 1.261 . S
C115 O124 1.247 . S
C115 O125 1.272 . S
O116 Co112 2.004 . S
O116 C121 1.259 . S
Co117 O118 2.061 . S
Co117 O123 2.052 . S
Co117 O125 2.135 . S
O118 Co117 2.061 . S
O118 C121 1.235 . S
C119 O122 1.238 . S
C119 O123 1.241 . S
C120 O113 1.247 . S
C120 O114 1.261 . S
C121 O116 1.259 . S
C121 O118 1.235 . S
O122 Co112 2.021 . S
O122 C119 1.238 . S
O123 Co117 2.052 . S
O123 C119 1.241 . S
O124 Co112 2.137 . S
O124 C115 1.247 . S
O125 Co112 2.244 . S
O125 C115 1.272 . S
O125 Co117 2.135 . S
Co126 O127 2.216 . S
Co126 O128 2.091 . S
Co126 O130 2.004 . S
Co126 O136 2.021 . S
Co126 O138 2.137 . S
Co126 O139 2.244 . S
O127 Co126 2.216 . S
O127 C134 1.247 . S
O128 Co126 2.091 . S
O128 C134 1.261 . S
C129 O138 1.247 . S
C129 O139 1.272 . S
O130 Co126 2.004 . S
O130 C135 1.259 . S
Co131 O132 2.061 . S
Co131 O137 2.052 . S
Co131 O139 2.135 . S
O132 Co131 2.061 . S
O132 C135 1.235 . S
C133 O136 1.238 . S
C133 O137 1.241 . S
C134 O127 1.247 . S
C134 O128 1.261 . S
C135 O130 1.259 . S
C135 O132 1.235 . S
O136 Co126 2.021 . S
O136 C133 1.238 . S
O137 Co131 2.052 . S
O137 C133 1.241 . S
O138 Co126 2.137 . S
O138 C129 1.247 . S
O139 Co126 2.244 . S
O139 C129 1.272 . S
O139 Co131 2.135 . S
Co140 O141 2.216 . S
Co140 O142 2.091 . S
Co140 O144 2.004 . S
Co140 O150 2.021 . S
Co140 O152 2.137 . S
Co140 O153 2.244 . S
O141 Co140 2.216 . S
O141 C148 1.247 . S
O142 Co140 2.091 . S
O142 C148 1.261 . S
C143 O152 1.247 . S
C143 O153 1.272 . S
O144 Co140 2.004 . S
O144 C149 1.259 . S
Co145 O146 2.061 . S
Co145 O151 2.052 . S
Co145 O153 2.135 . S
O146 Co145 2.061 . S
O146 C149 1.235 . S
C147 O150 1.238 . S
C147 O151 1.241 . S
C148 O141 1.247 . S
C148 O142 1.261 . S
C149 O144 1.259 . S
C149 O146 1.235 . S
O150 Co140 2.021 . S
O150 C147 1.238 . S
O151 Co145 2.052 . S
O151 C147 1.241 . S
O152 Co140 2.137 . S
O152 C143 1.247 . S
O153 Co140 2.244 . S
O153 C143 1.272 . S
O153 Co145 2.135 . S
Co154 O155 2.216 . S
Co154 O156 2.091 . S
Co154 O158 2.004 . S
Co154 O164 2.021 . S
Co154 O166 2.137 . S
Co154 O167 2.244 . S
O155 Co154 2.216 . S
O155 C162 1.247 . S
O156 Co154 2.091 . S
O156 C162 1.261 . S
C157 O166 1.247 . S
C157 O167 1.272 . S
O158 Co154 2.004 . S
O158 C163 1.259 . S
Co159 O160 2.061 . S
Co159 O165 2.052 . S
Co159 O167 2.135 . S
O160 Co159 2.061 . S
O160 C163 1.235 . S
C161 O164 1.238 . S
C161 O165 1.241 . S
C162 O155 1.247 . S
C162 O156 1.261 . S
C163 O158 1.259 . S
C163 O160 1.235 . S
O164 Co154 2.021 . S
O164 C161 1.238 . S
O165 Co159 2.052 . S
O165 C161 1.241 . S
O166 Co154 2.137 . S
O166 C157 1.247 . S
O167 Co154 2.244 . S
O167 C157 1.272 . S
O167 Co159 2.135 . S
Co168 O169 2.216 . S
Co168 O170 2.091 . S
Co168 O172 2.004 . S
Co168 O178 2.021 . S
Co168 O180 2.137 . S
Co168 O181 2.244 . S
O169 Co168 2.216 . S
O169 C176 1.247 . S
O170 Co168 2.091 . S
O170 C176 1.261 . S
C171 O180 1.247 . S
C171 O181 1.272 . S
O172 Co168 2.004 . S
O172 C177 1.259 . S
Co173 O174 2.061 . S
Co173 O179 2.052 . S
Co173 O181 2.135 . S
O174 Co173 2.061 . S
O174 C177 1.235 . S
C175 O178 1.238 . S
C175 O179 1.241 . S
C176 O169 1.247 . S
C176 O170 1.261 . S
C177 O172 1.259 . S
C177 O174 1.235 . S
O178 Co168 2.021 . S
O178 C175 1.238 . S
O179 Co173 2.052 . S
O179 C175 1.241 . S
O180 Co168 2.137 . S
O180 C171 1.247 . S
O181 Co168 2.244 . S
O181 C171 1.272 . S
O181 Co173 2.135 . S
Co182 O183 2.216 . S
Co182 O184 2.091 . S
Co182 O186 2.004 . S
Co182 O192 2.021 . S
Co182 O194 2.137 . S
Co182 O195 2.244 . S
O183 Co182 2.216 . S
O183 C190 1.231 1_655 S
O184 Co182 2.091 . S
O184 C190 1.263 1_655 S
C185 O194 1.247 . S
C185 O195 1.272 . S
O186 Co182 2.004 . S
O186 C191 1.259 . S
Co187 O188 2.061 . S
Co187 O193 2.052 . S
Co187 O195 2.135 . S
O188 Co187 2.061 . S
O188 C191 1.235 . S
C189 O192 1.238 . S
C189 O193 1.241 . S
C190 O183 1.231 1_455 S
C190 O184 1.263 1_455 S
C191 O186 1.259 . S
C191 O188 1.235 . S
O192 Co182 2.021 . S
O192 C189 1.238 . S
O193 Co187 2.052 . S
O193 C189 1.241 . S
O194 Co182 2.137 . S
O194 C185 1.247 . S
O195 Co182 2.244 . S
O195 C185 1.272 . S
O195 Co187 2.135 . S
Co196 O197 2.216 . S
Co196 O198 2.091 . S
Co196 O200 2.004 . S
Co196 O206 2.021 . S
Co196 O208 2.137 . S
Co196 O209 2.244 . S
O197 Co196 2.216 . S
O197 C204 1.247 . S
O198 Co196 2.091 . S
O198 C204 1.261 . S
C199 O208 1.247 . S
C199 O209 1.272 . S
O200 Co196 2.004 . S
O200 C205 1.259 . S
Co201 O202 2.061 . S
Co201 O207 2.052 . S
Co201 O209 2.135 . S
O202 Co201 2.061 . S
O202 C205 1.235 . S
C203 O206 1.238 . S
C203 O207 1.241 . S
C204 O197 1.247 . S
C204 O198 1.261 . S
C205 O200 1.259 . S
C205 O202 1.235 . S
O206 Co196 2.021 . S
O206 C203 1.238 . S
O207 Co201 2.052 . S
O207 C203 1.241 . S
O208 Co196 2.137 . S
O208 C199 1.247 . S
O209 Co196 2.244 . S
O209 C199 1.272 . S
O209 Co201 2.135 . S
Co210 O211 2.216 . S
Co210 O212 2.091 . S
Co210 O214 2.004 . S
Co210 O220 2.021 . S
Co210 O222 2.137 . S
Co210 O223 2.244 . S
O211 Co210 2.216 . S
O211 C218 1.247 . S
O212 Co210 2.091 . S
O212 C218 1.261 . S
C213 O222 1.247 . S
C213 O223 1.272 . S
O214 Co210 2.004 . S
O214 C219 1.259 . S
Co215 O216 2.061 . S
Co215 O221 2.052 . S
Co215 O223 2.135 . S
O216 Co215 2.061 . S
O216 C219 1.235 . S
C217 O220 1.238 . S
C217 O221 1.241 . S
C218 O211 1.247 . S
C218 O212 1.261 . S
C219 O214 1.259 . S
C219 O216 1.235 . S
O220 Co210 2.021 . S
O220 C217 1.238 . S
O221 Co215 2.052 . S
O221 C217 1.241 . S
O222 Co210 2.137 . S
O222 C213 1.247 . S
O223 Co210 2.244 . S
O223 C213 1.272 . S
O223 Co215 2.135 . S
Co224 O225 2.216 . S
Co224 O226 2.091 . S
Co224 O228 2.004 . S
Co224 O234 2.021 . S
Co224 O236 2.137 . S
Co224 O237 2.244 . S
O225 Co224 2.216 . S
O225 C232 1.247 . S
O226 Co224 2.091 . S
O226 C232 1.261 . S
C227 O236 1.247 . S
C227 O237 1.272 . S
O228 Co224 2.004 . S
O228 C233 1.259 . S
Co229 O230 2.061 . S
Co229 O235 2.052 . S
Co229 O237 2.135 . S
O230 Co229 2.061 . S
O230 C233 1.235 . S
C231 O234 1.238 . S
C231 O235 1.241 . S
C232 O225 1.247 . S
C232 O226 1.261 . S
C233 O228 1.259 . S
C233 O230 1.235 . S
O234 Co224 2.021 . S
O234 C231 1.238 . S
O235 Co229 2.052 . S
O235 C231 1.241 . S
O236 Co224 2.137 . S
O236 C227 1.247 . S
O237 Co224 2.244 . S
O237 C227 1.272 . S
O237 Co229 2.135 . S
Co238 O239 2.216 . S
Co238 O240 2.091 . S
Co238 O242 2.004 . S
Co238 O248 2.021 . S
Co238 O250 2.137 . S
Co238 O251 2.244 . S
O239 Co238 2.216 . S
O239 C246 1.247 . S
O240 Co238 2.091 . S
O240 C246 1.261 . S
C241 O250 1.247 . S
C241 O251 1.272 . S
O242 Co238 2.004 . S
O242 C247 1.259 . S
Co243 O244 2.061 . S
Co243 O249 2.052 . S
Co243 O251 2.135 . S
O244 Co243 2.061 . S
O244 C247 1.235 . S
C245 O248 1.238 . S
C245 O249 1.241 . S
C246 O239 1.247 . S
C246 O240 1.261 . S
C247 O242 1.259 . S
C247 O244 1.235 . S
O248 Co238 2.021 . S
O248 C245 1.238 . S
O249 Co243 2.052 . S
O249 C245 1.241 . S
O250 Co238 2.137 . S
O250 C241 1.247 . S
O251 Co238 2.244 . S
O251 C241 1.272 . S
O251 Co243 2.135 . S
H252 O278 0.856 . S
H253 O281 0.854 . S
H254 C289 0.930 . S
H255 C290 0.930 . S
H256 C292 0.930 . S
H257 C293 0.930 . S
H258 C295 0.931 . S
H259 C296 0.930 . S
H260 C298 0.930 . S
H261 C299 0.929 . S
H262 C301 0.930 . S
H263 C302 0.931 . S
H264 C304 0.930 . S
H265 C305 0.929 . S
H266 C307 0.931 . S
H267 C308 0.930 . S
H268 C310 0.930 . S
H269 C311 0.932 . S
H270 C313 0.930 . S
H271 C314 0.929 . S
H272 C316 0.931 . S
H273 C317 0.930 . S
H274 C319 0.929 . S
H275 C320 0.931 . S
H276 C322 0.930 . S
H277 C323 0.929 . S
O278 H252 0.856 . S
O278 C324 1.300 . S
O279 C324 1.209 . S
O280 C325 1.199 . S
O281 H253 0.854 . S
O281 C325 1.297 . S
C282 C283 1.404 . S
C282 C287 1.397 . S
C282 C288 1.492 . S
C283 C282 1.404 . S
C283 C284 1.396 . S
C283 C294 1.492 . S
C284 C283 1.396 . S
C284 C285 1.397 . S
C284 C300 1.509 . S
C285 C284 1.397 . S
C285 C286 1.412 . S
C285 C306 1.485 . S
C286 C285 1.412 . S
C286 C287 1.388 . S
C286 C312 1.490 . S
C287 C282 1.397 . S
C287 C286 1.388 . S
C287 C318 1.519 . S
C288 C282 1.492 . S
C288 C289 1.363 . S
C288 C293 1.390 . S
C289 H254 0.930 . S
C289 C288 1.363 . S
C289 C290 1.372 . S
C290 H255 0.930 . S
C290 C289 1.372 . S
C290 C291 1.383 . S
C291 C290 1.383 . S
C291 C292 1.395 . S
C292 H256 0.930 . S
C292 C291 1.395 . S
C292 C293 1.362 . S
C293 H257 0.930 . S
C293 C288 1.390 . S
C293 C292 1.362 . S
C294 C283 1.492 . S
C294 C295 1.377 . S
C294 C299 1.397 . S
C295 H258 0.931 . S
C295 C294 1.377 . S
C295 C296 1.376 . S
C296 H259 0.930 . S
C296 C295 1.376 . S
C296 C297 1.376 . S
C297 C296 1.376 . S
C297 C298 1.378 . S
C297 C324 1.486 . S
C298 H260 0.930 . S
C298 C297 1.378 . S
C298 C299 1.376 . S
C299 H261 0.929 . S
C299 C294 1.397 . S
C299 C298 1.376 . S
C300 C284 1.509 . S
C300 C301 1.391 . S
C300 C305 1.386 . S
C301 H262 0.930 . S
C301 C300 1.391 . S
C301 C302 1.375 . S
C302 H263 0.931 . S
C302 C301 1.375 . S
C302 C303 1.375 . S
C303 C302 1.375 . S
C303 C304 1.361 . S
C304 H264 0.930 . S
C304 C303 1.361 . S
C304 C305 1.399 . S
C305 H265 0.929 . S
C305 C300 1.386 . S
C305 C304 1.399 . S
C306 C285 1.485 . S
C306 C307 1.394 . S
C306 C311 1.360 . S
C307 H266 0.931 . S
C307 C306 1.394 . S
C307 C308 1.372 . S
C308 H267 0.930 . S
C308 C307 1.372 . S
C308 C309 1.397 . S
C309 C308 1.397 . S
C309 C310 1.390 . S
C309 C325 1.476 . S
C310 H268 0.930 . S
C310 C309 1.390 . S
C310 C311 1.366 . S
C311 H269 0.932 . S
C311 C306 1.360 . S
C311 C310 1.366 . S
C312 C286 1.490 . S
C312 C313 1.380 . S
C312 C317 1.386 . S
C313 H270 0.930 . S
C313 C312 1.380 . S
C313 C314 1.381 . S
C314 H271 0.929 . S
C314 C313 1.381 . S
C314 C315 1.371 . S
C315 C314 1.371 . S
C315 C316 1.380 . S
C316 H272 0.931 . S
C316 C315 1.380 . S
C316 C317 1.387 . S
C317 H273 0.930 . S
C317 C312 1.386 . S
C317 C316 1.387 . S
C318 C287 1.519 . S
C318 C319 1.377 . S
C318 C323 1.361 . S
C319 H274 0.929 . S
C319 C318 1.377 . S
C319 C320 1.386 . S
C320 H275 0.931 . S
C320 C319 1.386 . S
C320 C321 1.363 . S
C321 C320 1.363 . S
C321 C322 1.385 . S
C322 H276 0.930 . S
C322 C321 1.385 . S
C322 C323 1.396 . S
C323 H277 0.929 . S
C323 C318 1.361 . S
C323 C322 1.396 . S
C324 O278 1.300 . S
C324 O279 1.209 . S
C324 C297 1.486 . S
C325 O280 1.199 . S
C325 O281 1.297 . S
C325 C309 1.476 . S
H326 O352 0.856 . S
H327 O355 0.854 . S
H328 C363 0.930 . S
H329 C364 0.930 . S
H330 C366 0.930 . S
H331 C367 0.930 . S
H332 C369 0.931 . S
H333 C370 0.930 . S
H334 C372 0.930 . S
H335 C373 0.929 . S
H336 C375 0.930 . S
H337 C376 0.931 . S
H338 C378 0.930 . S
H339 C379 0.929 . S
H340 C381 0.931 . S
H341 C382 0.930 . S
H342 C384 0.930 . S
H343 C385 0.932 . S
H344 C387 0.930 . S
H345 C388 0.929 . S
H346 C390 0.931 . S
H347 C391 0.930 . S
H348 C393 0.929 . S
H349 C394 0.931 . S
H350 C396 0.930 . S
H351 C397 0.929 . S
O352 H326 0.856 . S
O352 C398 1.300 . S
O353 C398 1.209 . S
O354 C399 1.199 . S
O355 H327 0.854 . S
O355 C399 1.297 . S
C356 C357 1.404 . S
C356 C361 1.397 . S
C356 C362 1.492 . S
C357 C356 1.404 . S
C357 C358 1.396 . S
C357 C368 1.492 . S
C358 C357 1.396 . S
C358 C359 1.397 . S
C358 C374 1.509 . S
C359 C358 1.397 . S
C359 C360 1.412 . S
C359 C380 1.485 . S
C360 C359 1.412 . S
C360 C361 1.388 . S
C360 C386 1.490 . S
C361 C356 1.397 . S
C361 C360 1.388 . S
C361 C392 1.519 . S
C362 C356 1.492 . S
C362 C363 1.363 . S
C362 C367 1.390 . S
C363 H328 0.930 . S
C363 C362 1.363 . S
C363 C364 1.372 . S
C364 H329 0.930 . S
C364 C363 1.372 . S
C364 C365 1.383 . S
C365 C364 1.383 . S
C365 C366 1.395 . S
C366 H330 0.930 . S
C366 C365 1.395 . S
C366 C367 1.362 . S
C367 H331 0.930 . S
C367 C362 1.390 . S
C367 C366 1.362 . S
C368 C357 1.492 . S
C368 C369 1.377 . S
C368 C373 1.397 . S
C369 H332 0.931 . S
C369 C368 1.377 . S
C369 C370 1.376 . S
C370 H333 0.930 . S
C370 C369 1.376 . S
C370 C371 1.376 . S
C371 C370 1.376 . S
C371 C372 1.378 . S
C371 C398 1.486 . S
C372 H334 0.930 . S
C372 C371 1.378 . S
C372 C373 1.376 . S
C373 H335 0.929 . S
C373 C368 1.397 . S
C373 C372 1.376 . S
C374 C358 1.509 . S
C374 C375 1.391 . S
C374 C379 1.386 . S
C375 H336 0.930 . S
C375 C374 1.391 . S
C375 C376 1.375 . S
C376 H337 0.931 . S
C376 C375 1.375 . S
C376 C377 1.375 . S
C377 C376 1.375 . S
C377 C378 1.361 . S
C378 H338 0.930 . S
C378 C377 1.361 . S
C378 C379 1.399 . S
C379 H339 0.929 . S
C379 C374 1.386 . S
C379 C378 1.399 . S
C380 C359 1.485 . S
C380 C381 1.394 . S
C380 C385 1.360 . S
C381 H340 0.931 . S
C381 C380 1.394 . S
C381 C382 1.372 . S
C382 H341 0.930 . S
C382 C381 1.372 . S
C382 C383 1.397 . S
C383 C382 1.397 . S
C383 C384 1.390 . S
C383 C399 1.476 . S
C384 H342 0.930 . S
C384 C383 1.390 . S
C384 C385 1.366 . S
C385 H343 0.932 . S
C385 C380 1.360 . S
C385 C384 1.366 . S
C386 C360 1.490 . S
C386 C387 1.380 . S
C386 C391 1.386 . S
C387 H344 0.930 . S
C387 C386 1.380 . S
C387 C388 1.381 . S
C388 H345 0.929 . S
C388 C387 1.381 . S
C388 C389 1.371 . S
C389 C388 1.371 . S
C389 C390 1.380 . S
C390 H346 0.931 . S
C390 C389 1.380 . S
C390 C391 1.387 . S
C391 H347 0.930 . S
C391 C386 1.386 . S
C391 C390 1.387 . S
C392 C361 1.519 . S
C392 C393 1.377 . S
C392 C397 1.361 . S
C393 H348 0.929 . S
C393 C392 1.377 . S
C393 C394 1.386 . S
C394 H349 0.931 . S
C394 C393 1.386 . S
C394 C395 1.363 . S
C395 C394 1.363 . S
C395 C396 1.385 . S
C396 H350 0.930 . S
C396 C395 1.385 . S
C396 C397 1.396 . S
C397 H351 0.929 . S
C397 C392 1.361 . S
C397 C396 1.396 . S
C398 O352 1.300 . S
C398 O353 1.209 . S
C398 C371 1.486 . S
C399 O354 1.199 . S
C399 O355 1.297 . S
C399 C383 1.476 . S
H400 O426 0.856 . S
H401 O429 0.854 . S
H402 C437 0.930 . S
H403 C438 0.930 . S
H404 C440 0.930 . S
H405 C441 0.930 . S
H406 C443 0.931 . S
H407 C444 0.930 . S
H408 C446 0.930 . S
H409 C447 0.929 . S
H410 C449 0.930 . S
H411 C450 0.931 . S
H412 C452 0.930 . S
H413 C453 0.929 . S
H414 C455 0.931 . S
H415 C456 0.930 . S
H416 C458 0.930 . S
H417 C459 0.932 . S
H418 C461 0.930 . S
H419 C462 0.929 . S
H420 C464 0.931 . S
H421 C465 0.930 . S
H422 C467 0.929 . S
H423 C468 0.931 . S
H424 C470 0.930 . S
H425 C471 0.929 . S
O426 H400 0.856 . S
O426 C472 1.300 . S
O427 C472 1.209 . S
O428 C473 1.199 . S
O429 H401 0.854 . S
O429 C473 1.297 . S
C430 C431 1.404 . S
C430 C435 1.397 . S
C430 C436 1.492 . S
C431 C430 1.404 . S
C431 C432 1.396 . S
C431 C442 1.492 . S
C432 C431 1.396 . S
C432 C433 1.397 . S
C432 C448 1.509 . S
C433 C432 1.397 . S
C433 C434 1.412 . S
C433 C454 1.485 . S
C434 C433 1.412 . S
C434 C435 1.388 . S
C434 C460 1.490 . S
C435 C430 1.397 . S
C435 C434 1.388 . S
C435 C466 1.519 . S
C436 C430 1.492 . S
C436 C437 1.363 . S
C436 C441 1.390 . S
C437 H402 0.930 . S
C437 C436 1.363 . S
C437 C438 1.372 . S
C438 H403 0.930 . S
C438 C437 1.372 . S
C438 C439 1.383 . S
C439 C438 1.383 . S
C439 C440 1.395 . S
C440 H404 0.930 . S
C440 C439 1.395 . S
C440 C441 1.362 . S
C441 H405 0.930 . S
C441 C436 1.390 . S
C441 C440 1.362 . S
C442 C431 1.492 . S
C442 C443 1.377 . S
C442 C447 1.397 . S
C443 H406 0.931 . S
C443 C442 1.377 . S
C443 C444 1.376 . S
C444 H407 0.930 . S
C444 C443 1.376 . S
C444 C445 1.376 . S
C445 C444 1.376 . S
C445 C446 1.378 . S
C445 C472 1.486 . S
C446 H408 0.930 . S
C446 C445 1.378 . S
C446 C447 1.376 . S
C447 H409 0.929 . S
C447 C442 1.397 . S
C447 C446 1.376 . S
C448 C432 1.509 . S
C448 C449 1.391 . S
C448 C453 1.386 . S
C449 H410 0.930 . S
C449 C448 1.391 . S
C449 C450 1.375 . S
C450 H411 0.931 . S
C450 C449 1.375 . S
C450 C451 1.375 . S
C451 C450 1.375 . S
C451 C452 1.361 . S
C452 H412 0.930 . S
C452 C451 1.361 . S
C452 C453 1.399 . S
C453 H413 0.929 . S
C453 C448 1.386 . S
C453 C452 1.399 . S
C454 C433 1.485 . S
C454 C455 1.394 . S
C454 C459 1.360 . S
C455 H414 0.931 . S
C455 C454 1.394 . S
C455 C456 1.372 . S
C456 H415 0.930 . S
C456 C455 1.372 . S
C456 C457 1.397 . S
C457 C456 1.397 . S
C457 C458 1.390 . S
C457 C473 1.476 . S
C458 H416 0.930 . S
C458 C457 1.390 . S
C458 C459 1.366 . S
C459 H417 0.932 . S
C459 C454 1.360 . S
C459 C458 1.366 . S
C460 C434 1.490 . S
C460 C461 1.380 . S
C460 C465 1.386 . S
C461 H418 0.930 . S
C461 C460 1.380 . S
C461 C462 1.381 . S
C462 H419 0.929 . S
C462 C461 1.381 . S
C462 C463 1.371 . S
C463 C462 1.371 . S
C463 C464 1.380 . S
C464 H420 0.931 . S
C464 C463 1.380 . S
C464 C465 1.387 . S
C465 H421 0.930 . S
C465 C460 1.386 . S
C465 C464 1.387 . S
C466 C435 1.519 . S
C466 C467 1.377 . S
C466 C471 1.361 . S
C467 H422 0.929 . S
C467 C466 1.377 . S
C467 C468 1.386 . S
C468 H423 0.931 . S
C468 C467 1.386 . S
C468 C469 1.363 . S
C469 C468 1.363 . S
C469 C470 1.385 . S
C470 H424 0.930 . S
C470 C469 1.385 . S
C470 C471 1.396 . S
C471 H425 0.929 . S
C471 C466 1.361 . S
C471 C470 1.396 . S
C472 O426 1.300 . S
C472 O427 1.209 . S
C472 C445 1.486 . S
C473 O428 1.199 . S
C473 O429 1.297 . S
C473 C457 1.476 . S
H474 O500 0.856 . S
H475 O503 0.854 . S
H476 C511 0.930 . S
H477 C512 0.930 . S
H478 C514 0.930 . S
H479 C515 0.930 . S
H480 C517 0.931 . S
H481 C518 0.930 . S
H482 C520 0.930 . S
H483 C521 0.929 . S
H484 C523 0.930 . S
H485 C524 0.931 . S
H486 C526 0.930 . S
H487 C527 0.929 . S
H488 C529 0.931 . S
H489 C530 0.930 . S
H490 C532 0.930 . S
H491 C533 0.932 . S
H492 C535 0.930 . S
H493 C536 0.929 . S
H494 C538 0.931 . S
H495 C539 0.930 . S
H496 C541 0.929 . S
H497 C542 0.931 . S
H498 C544 0.930 . S
H499 C545 0.929 . S
O500 H474 0.856 . S
O500 C546 1.300 1_554 S
O501 C546 1.208 . S
O502 C547 1.199 . S
O503 H475 0.854 . S
O503 C547 1.297 . S
C504 C505 1.404 . S
C504 C509 1.397 . S
C504 C510 1.492 . S
C505 C504 1.404 . S
C505 C506 1.396 . S
C505 C516 1.492 . S
C506 C505 1.396 . S
C506 C507 1.397 . S
C506 C522 1.509 . S
C507 C506 1.397 . S
C507 C508 1.412 . S
C507 C528 1.485 . S
C508 C507 1.412 . S
C508 C509 1.388 . S
C508 C534 1.490 . S
C509 C504 1.397 . S
C509 C508 1.388 . S
C509 C540 1.519 . S
C510 C504 1.492 . S
C510 C511 1.363 . S
C510 C515 1.390 . S
C511 H476 0.930 . S
C511 C510 1.363 . S
C511 C512 1.372 . S
C512 H477 0.930 . S
C512 C511 1.372 . S
C512 C513 1.383 . S
C513 C512 1.383 . S
C513 C514 1.395 . S
C514 H478 0.930 . S
C514 C513 1.395 . S
C514 C515 1.362 . S
C515 H479 0.930 . S
C515 C510 1.390 . S
C515 C514 1.362 . S
C516 C505 1.492 . S
C516 C517 1.377 . S
C516 C521 1.397 . S
C517 H480 0.931 . S
C517 C516 1.377 . S
C517 C518 1.376 . S
C518 H481 0.930 . S
C518 C517 1.376 . S
C518 C519 1.376 . S
C519 C518 1.376 . S
C519 C520 1.378 . S
C519 C546 1.486 . S
C520 H482 0.930 . S
C520 C519 1.378 . S
C520 C521 1.376 . S
C521 H483 0.929 . S
C521 C516 1.397 . S
C521 C520 1.376 . S
C522 C506 1.509 . S
C522 C523 1.391 . S
C522 C527 1.386 . S
C523 H484 0.930 . S
C523 C522 1.391 . S
C523 C524 1.375 . S
C524 H485 0.931 . S
C524 C523 1.375 . S
C524 C525 1.375 . S
C525 C524 1.375 . S
C525 C526 1.361 . S
C526 H486 0.930 . S
C526 C525 1.361 . S
C526 C527 1.399 . S
C527 H487 0.929 . S
C527 C522 1.386 . S
C527 C526 1.399 . S
C528 C507 1.485 . S
C528 C529 1.394 . S
C528 C533 1.360 . S
C529 H488 0.931 . S
C529 C528 1.394 . S
C529 C530 1.372 . S
C530 H489 0.930 . S
C530 C529 1.372 . S
C530 C531 1.397 . S
C531 C530 1.397 . S
C531 C532 1.390 . S
C531 C547 1.476 . S
C532 H490 0.930 . S
C532 C531 1.390 . S
C532 C533 1.366 . S
C533 H491 0.932 . S
C533 C528 1.360 . S
C533 C532 1.366 . S
C534 C508 1.490 . S
C534 C535 1.380 . S
C534 C539 1.386 . S
C535 H492 0.930 . S
C535 C534 1.380 . S
C535 C536 1.381 . S
C536 H493 0.929 . S
C536 C535 1.381 . S
C536 C537 1.371 . S
C537 C536 1.371 . S
C537 C538 1.380 . S
C538 H494 0.931 . S
C538 C537 1.380 . S
C538 C539 1.387 . S
C539 H495 0.930 . S
C539 C534 1.386 . S
C539 C538 1.387 . S
C540 C509 1.519 . S
C540 C541 1.377 . S
C540 C545 1.361 . S
C541 H496 0.929 . S
C541 C540 1.377 . S
C541 C542 1.386 . S
C542 H497 0.931 . S
C542 C541 1.386 . S
C542 C543 1.363 . S
C543 C542 1.363 . S
C543 C544 1.385 . S
C544 H498 0.930 . S
C544 C543 1.385 . S
C544 C545 1.396 . S
C545 H499 0.929 . S
C545 C540 1.361 . S
C545 C544 1.396 . S
C546 O500 1.300 1_556 S
C546 O501 1.208 . S
C546 C519 1.486 . S
C547 O502 1.199 . S
C547 O503 1.297 . S
C547 C531 1.476 . S
H548 O574 0.856 . S
H549 O577 0.854 . S
H550 C585 0.930 . S
H551 C586 0.930 . S
H552 C588 0.930 . S
H553 C589 0.930 . S
H554 C591 0.931 . S
H555 C592 0.930 . S
H556 C594 0.930 . S
H557 C595 0.929 . S
H558 C597 0.930 . S
H559 C598 0.931 . S
H560 C600 0.930 . S
H561 C601 0.929 . S
H562 C603 0.931 . S
H563 C604 0.930 . S
H564 C606 0.930 . S
H565 C607 0.932 . S
H566 C609 0.930 . S
H567 C610 0.929 . S
H568 C612 0.931 . S
H569 C613 0.930 . S
H570 C615 0.929 . S
H571 C616 0.931 . S
H572 C618 0.930 . S
H573 C619 0.929 . S
O574 H548 0.856 . S
O574 C620 1.300 . S
O575 C620 1.209 . S
O576 C621 1.199 . S
O577 H549 0.854 . S
O577 C621 1.297 . S
C578 C579 1.404 . S
C578 C583 1.397 . S
C578 C584 1.492 . S
C579 C578 1.404 . S
C579 C580 1.396 . S
C579 C590 1.492 . S
C580 C579 1.396 . S
C580 C581 1.397 . S
C580 C596 1.509 . S
C581 C580 1.397 . S
C581 C582 1.412 . S
C581 C602 1.485 . S
C582 C581 1.412 . S
C582 C583 1.388 . S
C582 C608 1.490 . S
C583 C578 1.397 . S
C583 C582 1.388 . S
C583 C614 1.519 . S
C584 C578 1.492 . S
C584 C585 1.363 . S
C584 C589 1.390 . S
C585 H550 0.930 . S
C585 C584 1.363 . S
C585 C586 1.372 . S
C586 H551 0.930 . S
C586 C585 1.372 . S
C586 C587 1.383 . S
C587 C586 1.383 . S
C587 C588 1.395 . S
C588 H552 0.930 . S
C588 C587 1.395 . S
C588 C589 1.362 . S
C589 H553 0.930 . S
C589 C584 1.390 . S
C589 C588 1.362 . S
C590 C579 1.492 . S
C590 C591 1.377 . S
C590 C595 1.397 . S
C591 H554 0.931 . S
C591 C590 1.377 . S
C591 C592 1.376 . S
C592 H555 0.930 . S
C592 C591 1.376 . S
C592 C593 1.376 . S
C593 C592 1.376 . S
C593 C594 1.378 . S
C593 C620 1.486 1_556 S
C594 H556 0.930 . S
C594 C593 1.378 . S
C594 C595 1.376 . S
C595 H557 0.929 . S
C595 C590 1.397 . S
C595 C594 1.376 . S
C596 C580 1.509 . S
C596 C597 1.391 . S
C596 C601 1.386 . S
C597 H558 0.930 . S
C597 C596 1.391 . S
C597 C598 1.375 . S
C598 H559 0.931 . S
C598 C597 1.375 . S
C598 C599 1.375 . S
C599 C598 1.375 . S
C599 C600 1.361 . S
C600 H560 0.930 . S
C600 C599 1.361 . S
C600 C601 1.399 . S
C601 H561 0.929 . S
C601 C596 1.386 . S
C601 C600 1.399 . S
C602 C581 1.485 . S
C602 C603 1.394 . S
C602 C607 1.360 . S
C603 H562 0.931 . S
C603 C602 1.394 . S
C603 C604 1.372 . S
C604 H563 0.930 . S
C604 C603 1.372 . S
C604 C605 1.397 . S
C605 C604 1.397 . S
C605 C606 1.390 . S
C605 C621 1.476 . S
C606 H564 0.930 . S
C606 C605 1.390 . S
C606 C607 1.366 . S
C607 H565 0.932 . S
C607 C602 1.360 . S
C607 C606 1.366 . S
C608 C582 1.490 . S
C608 C609 1.380 . S
C608 C613 1.386 . S
C609 H566 0.930 . S
C609 C608 1.380 . S
C609 C610 1.381 . S
C610 H567 0.929 . S
C610 C609 1.381 . S
C610 C611 1.371 . S
C611 C610 1.371 . S
C611 C612 1.380 . S
C612 H568 0.931 . S
C612 C611 1.380 . S
C612 C613 1.387 . S
C613 H569 0.930 . S
C613 C608 1.386 . S
C613 C612 1.387 . S
C614 C583 1.519 . S
C614 C615 1.377 . S
C614 C619 1.361 . S
C615 H570 0.929 . S
C615 C614 1.377 . S
C615 C616 1.386 . S
C616 H571 0.931 . S
C616 C615 1.386 . S
C616 C617 1.363 . S
C617 C616 1.363 . S
C617 C618 1.385 . S
C618 H572 0.930 . S
C618 C617 1.385 . S
C618 C619 1.396 . S
C619 H573 0.929 . S
C619 C614 1.361 . S
C619 C618 1.396 . S
C620 O574 1.300 . S
C620 O575 1.209 . S
C620 C593 1.486 1_554 S
C621 O576 1.199 . S
C621 O577 1.297 . S
C621 C605 1.476 . S
H622 O648 0.856 . S
H623 O651 0.854 . S
H624 C659 0.930 . S
H625 C660 0.930 . S
H626 C662 0.930 . S
H627 C663 0.930 . S
H628 C665 0.931 . S
H629 C666 0.959 . S
H630 C668 0.930 . S
H631 C669 0.929 . S
H632 C671 0.930 . S
H633 C672 0.931 . S
H634 C674 0.930 . S
H635 C675 0.929 . S
H636 C677 0.931 . S
H637 C678 0.930 . S
H638 C680 0.930 . S
H639 C681 0.932 . S
H640 C683 0.930 . S
H641 C684 0.929 . S
H642 C686 0.931 . S
H643 C687 0.930 . S
H644 C689 0.929 . S
H645 C690 0.931 . S
H646 C692 0.930 . S
H647 C693 0.929 . S
O648 H622 0.856 . S
O648 C694 1.300 . S
O649 C694 1.209 . S
O650 C695 1.199 . S
O651 H623 0.854 . S
O651 C695 1.297 . S
C652 C653 1.404 . S
C652 C657 1.397 . S
C652 C658 1.492 . S
C653 C652 1.404 . S
C653 C654 1.396 . S
C653 C664 1.492 . S
C654 C653 1.396 . S
C654 C655 1.397 . S
C654 C670 1.509 . S
C655 C654 1.397 . S
C655 C656 1.412 . S
C655 C676 1.485 . S
C656 C655 1.412 . S
C656 C657 1.388 . S
C656 C682 1.490 . S
C657 C652 1.397 . S
C657 C656 1.388 . S
C657 C688 1.519 . S
C658 C652 1.492 . S
C658 C659 1.363 . S
C658 C663 1.390 . S
C659 H624 0.930 . S
C659 C658 1.363 . S
C659 C660 1.372 . S
C660 H625 0.930 . S
C660 C659 1.372 . S
C660 C661 1.383 . S
C661 C660 1.383 . S
C661 C662 1.395 . S
C662 H626 0.930 . S
C662 C661 1.395 . S
C662 C663 1.362 . S
C663 H627 0.930 . S
C663 C658 1.390 . S
C663 C662 1.362 . S
C664 C653 1.492 . S
C664 C665 1.377 . S
C664 C669 1.397 . S
C665 H628 0.931 . S
C665 C664 1.377 . S
C665 C666 1.376 . S
C666 H629 0.959 . S
C666 C665 1.376 . S
C666 C667 1.376 . S
C667 C666 1.376 . S
C667 C668 1.378 . S
C667 C694 1.486 1_556 S
C668 H630 0.930 . S
C668 C667 1.378 . S
C668 C669 1.376 . S
C669 H631 0.929 . S
C669 C664 1.397 . S
C669 C668 1.376 . S
C670 C654 1.509 . S
C670 C671 1.391 . S
C670 C675 1.386 . S
C671 H632 0.930 . S
C671 C670 1.391 . S
C671 C672 1.375 . S
C672 H633 0.931 . S
C672 C671 1.375 . S
C672 C673 1.375 . S
C673 C672 1.375 . S
C673 C674 1.361 . S
C674 H634 0.930 . S
C674 C673 1.361 . S
C674 C675 1.399 . S
C675 H635 0.929 . S
C675 C670 1.386 . S
C675 C674 1.399 . S
C676 C655 1.485 . S
C676 C677 1.394 . S
C676 C681 1.360 . S
C677 H636 0.931 . S
C677 C676 1.394 . S
C677 C678 1.372 . S
C678 H637 0.930 . S
C678 C677 1.372 . S
C678 C679 1.397 . S
C679 C678 1.397 . S
C679 C680 1.390 . S
C679 C695 1.476 . S
C680 H638 0.930 . S
C680 C679 1.390 . S
C680 C681 1.366 . S
C681 H639 0.932 . S
C681 C676 1.360 . S
C681 C680 1.366 . S
C682 C656 1.490 . S
C682 C683 1.380 . S
C682 C687 1.386 . S
C683 H640 0.930 . S
C683 C682 1.380 . S
C683 C684 1.381 . S
C684 H641 0.929 . S
C684 C683 1.381 . S
C684 C685 1.371 . S
C685 C684 1.371 . S
C685 C686 1.380 . S
C686 H642 0.931 . S
C686 C685 1.380 . S
C686 C687 1.387 . S
C687 H643 0.930 . S
C687 C682 1.386 . S
C687 C686 1.387 . S
C688 C657 1.519 . S
C688 C689 1.377 . S
C688 C693 1.361 . S
C689 H644 0.929 . S
C689 C688 1.377 . S
C689 C690 1.386 . S
C690 H645 0.931 . S
C690 C689 1.386 . S
C690 C691 1.363 . S
C691 C690 1.363 . S
C691 C692 1.385 . S
C692 H646 0.930 . S
C692 C691 1.385 . S
C692 C693 1.396 . S
C693 H647 0.929 . S
C693 C688 1.361 . S
C693 C692 1.396 . S
C694 O648 1.300 . S
C694 O649 1.209 . S
C694 C667 1.486 1_554 S
C695 O650 1.199 . S
C695 O651 1.297 . S
C695 C679 1.476 . S
H696 O722 0.856 . S
H697 O725 0.854 . S
H698 C733 0.930 . S
H699 C734 0.930 . S
H700 C736 0.930 . S
H701 C737 0.930 . S
H702 C739 0.931 . S
H703 C740 0.930 . S
H704 C742 0.930 . S
H705 C743 0.929 . S
H706 C745 0.930 . S
H707 C746 0.931 . S
H708 C748 0.930 . S
H709 C749 0.929 . S
H710 C751 0.931 . S
H711 C752 0.930 . S
H712 C754 0.930 . S
H713 C755 0.932 . S
H714 C757 0.930 . S
H715 C758 0.929 . S
H716 C760 0.931 . S
H717 C761 0.930 . S
H718 C763 0.929 . S
H719 C764 0.931 . S
H720 C766 0.930 . S
H721 C767 0.929 . S
O722 H696 0.856 . S
O722 C768 1.300 . S
O723 C768 1.209 . S
O724 C769 1.199 . S
O725 H697 0.854 . S
O725 C769 1.297 . S
C726 C727 1.404 . S
C726 C731 1.397 . S
C726 C732 1.492 . S
C727 C726 1.404 . S
C727 C728 1.396 . S
C727 C738 1.492 . S
C728 C727 1.396 . S
C728 C729 1.397 . S
C728 C744 1.509 . S
C729 C728 1.397 . S
C729 C730 1.412 . S
C729 C750 1.485 . S
C730 C729 1.412 . S
C730 C731 1.388 . S
C730 C756 1.490 . S
C731 C726 1.397 . S
C731 C730 1.388 . S
C731 C762 1.519 . S
C732 C726 1.492 . S
C732 C733 1.363 . S
C732 C737 1.390 . S
C733 H698 0.930 . S
C733 C732 1.363 . S
C733 C734 1.372 . S
C734 H699 0.930 . S
C734 C733 1.372 . S
C734 C735 1.383 . S
C735 C734 1.383 . S
C735 C736 1.395 . S
C736 H700 0.930 . S
C736 C735 1.395 . S
C736 C737 1.362 . S
C737 H701 0.930 . S
C737 C732 1.390 . S
C737 C736 1.362 . S
C738 C727 1.492 . S
C738 C739 1.377 . S
C738 C743 1.397 . S
C739 H702 0.931 . S
C739 C738 1.377 . S
C739 C740 1.376 . S
C740 H703 0.930 . S
C740 C739 1.376 . S
C740 C741 1.376 . S
C741 C740 1.376 . S
C741 C742 1.378 . S
C741 C768 1.486 . S
C742 H704 0.930 . S
C742 C741 1.378 . S
C742 C743 1.376 . S
C743 H705 0.929 . S
C743 C738 1.397 . S
C743 C742 1.376 . S
C744 C728 1.509 . S
C744 C745 1.391 . S
C744 C749 1.386 . S
C745 H706 0.930 . S
C745 C744 1.391 . S
C745 C746 1.375 . S
C746 H707 0.931 . S
C746 C745 1.375 . S
C746 C747 1.375 . S
C747 C746 1.375 . S
C747 C748 1.361 . S
C748 H708 0.930 . S
C748 C747 1.361 . S
C748 C749 1.399 . S
C749 H709 0.929 . S
C749 C744 1.386 . S
C749 C748 1.399 . S
C750 C729 1.485 . S
C750 C751 1.394 . S
C750 C755 1.360 . S
C751 H710 0.931 . S
C751 C750 1.394 . S
C751 C752 1.372 . S
C752 H711 0.930 . S
C752 C751 1.372 . S
C752 C753 1.397 . S
C753 C752 1.397 . S
C753 C754 1.390 . S
C753 C769 1.476 . S
C754 H712 0.930 . S
C754 C753 1.390 . S
C754 C755 1.366 . S
C755 H713 0.932 . S
C755 C750 1.360 . S
C755 C754 1.366 . S
C756 C730 1.490 . S
C756 C757 1.380 . S
C756 C761 1.386 . S
C757 H714 0.930 . S
C757 C756 1.380 . S
C757 C758 1.381 . S
C758 H715 0.929 . S
C758 C757 1.381 . S
C758 C759 1.371 . S
C759 C758 1.371 . S
C759 C760 1.380 . S
C760 H716 0.931 . S
C760 C759 1.380 . S
C760 C761 1.387 . S
C761 H717 0.930 . S
C761 C756 1.386 . S
C761 C760 1.387 . S
C762 C731 1.519 . S
C762 C763 1.377 . S
C762 C767 1.361 . S
C763 H718 0.929 . S
C763 C762 1.377 . S
C763 C764 1.386 . S
C764 H719 0.931 . S
C764 C763 1.386 . S
C764 C765 1.363 . S
C765 C764 1.363 . S
C765 C766 1.385 . S
C766 H720 0.930 . S
C766 C765 1.385 . S
C766 C767 1.396 . S
C767 H721 0.929 . S
C767 C762 1.361 . S
C767 C766 1.396 . S
C768 O722 1.300 . S
C768 O723 1.209 . S
C768 C741 1.486 . S
C769 O724 1.199 . S
C769 O725 1.297 . S
C769 C753 1.476 . S
H770 O796 0.856 . S
H771 O799 0.854 . S
H772 C807 0.930 . S
H773 C808 0.930 . S
H774 C810 0.930 . S
H775 C811 0.930 . S
H776 C813 0.931 . S
H777 C814 0.930 . S
H778 C816 0.930 . S
H779 C817 0.929 . S
H780 C819 0.930 . S
H781 C820 0.931 . S
H782 C822 0.930 . S
H783 C823 0.929 . S
H784 C825 0.931 . S
H785 C826 0.930 . S
H786 C828 0.930 . S
H787 C829 0.932 . S
H788 C831 0.930 . S
H789 C832 0.929 . S
H790 C834 0.931 . S
H791 C835 0.930 . S
H792 C837 0.929 . S
H793 C838 0.931 . S
H794 C840 0.930 . S
H795 C841 0.929 . S
O796 H770 0.856 . S
O796 C842 1.300 . S
O797 C842 1.209 . S
O798 C843 1.199 . S
O799 H771 0.854 . S
O799 C843 1.297 . S
C800 C801 1.404 . S
C800 C805 1.397 . S
C800 C806 1.492 . S
C801 C800 1.404 . S
C801 C802 1.396 . S
C801 C812 1.492 . S
C802 C801 1.396 . S
C802 C803 1.397 . S
C802 C818 1.509 . S
C803 C802 1.397 . S
C803 C804 1.412 . S
C803 C824 1.485 . S
C804 C803 1.412 . S
C804 C805 1.388 . S
C804 C830 1.490 . S
C805 C800 1.397 . S
C805 C804 1.388 . S
C805 C836 1.519 . S
C806 C800 1.492 . S
C806 C807 1.363 . S
C806 C811 1.390 . S
C807 H772 0.930 . S
C807 C806 1.363 . S
C807 C808 1.372 . S
C808 H773 0.930 . S
C808 C807 1.372 . S
C808 C809 1.383 . S
C809 C808 1.383 . S
C809 C810 1.395 . S
C810 H774 0.930 . S
C810 C809 1.395 . S
C810 C811 1.362 . S
C811 H775 0.930 . S
C811 C806 1.390 . S
C811 C810 1.362 . S
C812 C801 1.492 . S
C812 C813 1.377 . S
C812 C817 1.397 . S
C813 H776 0.931 . S
C813 C812 1.377 . S
C813 C814 1.376 . S
C814 H777 0.930 . S
C814 C813 1.376 . S
C814 C815 1.376 . S
C815 C814 1.376 . S
C815 C816 1.378 . S
C815 C842 1.486 . S
C816 H778 0.930 . S
C816 C815 1.378 . S
C816 C817 1.376 . S
C817 H779 0.929 . S
C817 C812 1.397 . S
C817 C816 1.376 . S
C818 C802 1.509 . S
C818 C819 1.391 . S
C818 C823 1.386 . S
C819 H780 0.930 . S
C819 C818 1.391 . S
C819 C820 1.375 . S
C820 H781 0.931 . S
C820 C819 1.375 . S
C820 C821 1.375 . S
C821 C820 1.375 . S
C821 C822 1.361 . S
C822 H782 0.930 . S
C822 C821 1.361 . S
C822 C823 1.399 . S
C823 H783 0.929 . S
C823 C818 1.386 . S
C823 C822 1.399 . S
C824 C803 1.485 . S
C824 C825 1.394 . S
C824 C829 1.360 . S
C825 H784 0.931 . S
C825 C824 1.394 . S
C825 C826 1.372 . S
C826 H785 0.930 . S
C826 C825 1.372 . S
C826 C827 1.397 . S
C827 C826 1.397 . S
C827 C828 1.390 . S
C827 C843 1.476 . S
C828 H786 0.930 . S
C828 C827 1.390 . S
C828 C829 1.366 . S
C829 H787 0.932 . S
C829 C824 1.360 . S
C829 C828 1.366 . S
C830 C804 1.490 . S
C830 C831 1.380 . S
C830 C835 1.386 . S
C831 H788 0.930 . S
C831 C830 1.380 . S
C831 C832 1.381 . S
C832 H789 0.929 . S
C832 C831 1.381 . S
C832 C833 1.371 . S
C833 C832 1.371 . S
C833 C834 1.380 . S
C834 H790 0.931 . S
C834 C833 1.380 . S
C834 C835 1.387 . S
C835 H791 0.930 . S
C835 C830 1.386 . S
C835 C834 1.387 . S
C836 C805 1.519 . S
C836 C837 1.377 . S
C836 C841 1.361 . S
C837 H792 0.929 . S
C837 C836 1.377 . S
C837 C838 1.386 . S
C838 H793 0.931 . S
C838 C837 1.386 . S
C838 C839 1.363 . S
C839 C838 1.363 . S
C839 C840 1.385 . S
C840 H794 0.930 . S
C840 C839 1.385 . S
C840 C841 1.396 . S
C841 H795 0.929 . S
C841 C836 1.361 . S
C841 C840 1.396 . S
C842 O796 1.300 . S
C842 O797 1.209 . S
C842 C815 1.486 . S
C843 O798 1.199 . S
C843 O799 1.297 . S
C843 C827 1.476 . S
H844 O870 0.856 . S
H845 O873 0.854 . S
H846 C881 0.930 . S
H847 C882 0.930 . S
H848 C884 0.930 . S
H849 C885 0.930 . S
H850 C887 0.931 . S
H851 C888 0.930 . S
H852 C890 0.930 . S
H853 C891 0.929 . S
H854 C893 0.930 . S
H855 C894 0.931 . S
H856 C896 0.930 . S
H857 C897 0.929 . S
H858 C899 0.931 . S
H859 C900 0.930 . S
H860 C902 0.930 . S
H861 C903 0.932 . S
H862 C905 0.930 . S
H863 C906 0.929 . S
H864 C908 0.931 . S
H865 C909 0.930 . S
H866 C911 0.929 . S
H867 C912 0.931 . S
H868 C914 0.930 . S
H869 C915 0.929 . S
O870 H844 0.856 . S
O870 C916 1.300 . S
O871 C916 1.209 . S
O872 C917 1.199 . S
O873 H845 0.854 . S
O873 C917 1.297 . S
C874 C875 1.404 . S
C874 C879 1.397 . S
C874 C880 1.492 . S
C875 C874 1.404 . S
C875 C876 1.396 . S
C875 C886 1.492 . S
C876 C875 1.396 . S
C876 C877 1.397 . S
C876 C892 1.509 . S
C877 C876 1.397 . S
C877 C878 1.412 . S
C877 C898 1.485 . S
C878 C877 1.412 . S
C878 C879 1.388 . S
C878 C904 1.490 . S
C879 C874 1.397 . S
C879 C878 1.388 . S
C879 C910 1.519 . S
C880 C874 1.492 . S
C880 C881 1.363 . S
C880 C885 1.390 . S
C881 H846 0.930 . S
C881 C880 1.363 . S
C881 C882 1.372 . S
C882 H847 0.930 . S
C882 C881 1.372 . S
C882 C883 1.383 . S
C883 C882 1.383 . S
C883 C884 1.395 . S
C884 H848 0.930 . S
C884 C883 1.395 . S
C884 C885 1.362 . S
C885 H849 0.930 . S
C885 C880 1.390 . S
C885 C884 1.362 . S
C886 C875 1.492 . S
C886 C887 1.377 . S
C886 C891 1.397 . S
C887 H850 0.931 . S
C887 C886 1.377 . S
C887 C888 1.376 . S
C888 H851 0.930 . S
C888 C887 1.376 . S
C888 C889 1.376 . S
C889 C888 1.376 . S
C889 C890 1.378 . S
C889 C916 1.486 . S
C890 H852 0.930 . S
C890 C889 1.378 . S
C890 C891 1.376 . S
C891 H853 0.929 . S
C891 C886 1.397 . S
C891 C890 1.376 . S
C892 C876 1.509 . S
C892 C893 1.391 . S
C892 C897 1.386 . S
C893 H854 0.930 . S
C893 C892 1.391 . S
C893 C894 1.375 . S
C894 H855 0.931 . S
C894 C893 1.375 . S
C894 C895 1.375 . S
C895 C894 1.375 . S
C895 C896 1.361 . S
C896 H856 0.930 . S
C896 C895 1.361 . S
C896 C897 1.399 . S
C897 H857 0.929 . S
C897 C892 1.386 . S
C897 C896 1.399 . S
C898 C877 1.485 . S
C898 C899 1.394 . S
C898 C903 1.360 . S
C899 H858 0.931 . S
C899 C898 1.394 . S
C899 C900 1.372 . S
C900 H859 0.930 . S
C900 C899 1.372 . S
C900 C901 1.397 . S
C901 C900 1.397 . S
C901 C902 1.390 . S
C901 C917 1.476 . S
C902 H860 0.930 . S
C902 C901 1.390 . S
C902 C903 1.366 . S
C903 H861 0.932 . S
C903 C898 1.360 . S
C903 C902 1.366 . S
C904 C878 1.490 . S
C904 C905 1.380 . S
C904 C909 1.386 . S
C905 H862 0.930 . S
C905 C904 1.380 . S
C905 C906 1.381 . S
C906 H863 0.929 . S
C906 C905 1.381 . S
C906 C907 1.371 . S
C907 C906 1.371 . S
C907 C908 1.380 . S
C908 H864 0.931 . S
C908 C907 1.380 . S
C908 C909 1.387 . S
C909 H865 0.930 . S
C909 C904 1.386 . S
C909 C908 1.387 . S
C910 C879 1.519 . S
C910 C911 1.377 . S
C910 C915 1.361 . S
C911 H866 0.929 . S
C911 C910 1.377 . S
C911 C912 1.386 . S
C912 H867 0.931 . S
C912 C911 1.386 . S
C912 C913 1.363 . S
C913 C912 1.363 . S
C913 C914 1.385 . S
C914 H868 0.930 . S
C914 C913 1.385 . S
C914 C915 1.396 . S
C915 H869 0.929 . S
C915 C910 1.361 . S
C915 C914 1.396 . S
C916 O870 1.300 . S
C916 O871 1.209 . S
C916 C889 1.486 . S
C917 O872 1.199 . S
C917 O873 1.297 . S
C917 C901 1.476 . S
H918 O944 0.856 . S
H919 O947 0.854 . S
H920 C955 0.930 . S
H921 C956 0.930 . S
H922 C958 0.930 . S
H923 C959 0.930 . S
H924 C961 0.931 . S
H925 C962 0.930 1_655 S
H926 C964 0.930 . S
H927 C965 0.929 . S
H928 C967 0.930 . S
H929 C968 0.931 1_655 S
H930 C970 0.930 . S
H931 C971 0.929 . S
H932 C973 0.931 . S
H933 C974 0.930 . S
H934 C976 0.930 . S
H935 C977 0.932 . S
H936 C979 0.930 . S
H937 C980 0.929 . S
H938 C982 0.931 . S
H939 C983 0.930 . S
H940 C985 0.929 . S
H941 C986 0.931 . S
H942 C988 0.930 . S
H943 C989 0.929 . S
O944 H918 0.856 . S
O944 C990 1.300 . S
O945 C990 1.209 . S
O946 C991 1.199 1_655 S
O947 H919 0.854 . S
O947 C991 1.297 . S
C948 C949 1.404 . S
C948 C953 1.394 . S
C948 C954 1.492 . S
C949 C948 1.404 . S
C949 C950 1.396 . S
C949 C960 1.492 . S
C950 C949 1.396 . S
C950 C951 1.397 . S
C950 C966 1.509 . S
C951 C950 1.397 . S
C951 C952 1.430 . S
C951 C972 1.485 . S
C952 C951 1.430 . S
C952 C953 1.399 . S
C952 C978 1.491 1_455 S
C953 C948 1.394 . S
C953 C952 1.399 . S
C953 C984 1.483 1_455 S
C954 C948 1.492 . S
C954 C955 1.363 1_455 S
C954 C959 1.390 . S
C955 H920 0.930 . S
C955 C954 1.363 1_655 S
C955 C956 1.372 . S
C956 H921 0.930 . S
C956 C955 1.372 . S
C956 C957 1.383 . S
C957 C956 1.383 . S
C957 C958 1.395 1_655 S
C958 H922 0.930 . S
C958 C957 1.395 1_455 S
C958 C959 1.362 . S
C959 H923 0.930 . S
C959 C954 1.390 . S
C959 C958 1.362 . S
C960 C949 1.492 . S
C960 C961 1.377 1_455 S
C960 C965 1.397 . S
C961 H924 0.931 . S
C961 C960 1.377 1_655 S
C961 C962 1.376 1_655 S
C962 H925 0.930 1_455 S
C962 C961 1.376 1_455 S
C962 C963 1.376 . S
C963 C962 1.376 . S
C963 C964 1.378 . S
C963 C990 1.486 . S
C964 H926 0.930 . S
C964 C963 1.378 . S
C964 C965 1.376 . S
C965 H927 0.929 . S
C965 C960 1.397 . S
C965 C964 1.376 . S
C966 C950 1.509 . S
C966 C967 1.391 1_455 S
C966 C971 1.386 . S
C967 H928 0.930 . S
C967 C966 1.391 1_655 S
C967 C968 1.375 1_655 S
C968 H929 0.931 1_455 S
C968 C967 1.375 1_455 S
C968 C969 1.375 . S
C969 C968 1.375 . S
C969 C970 1.361 . S
C970 H930 0.930 . S
C970 C969 1.361 . S
C970 C971 1.399 . S
C971 H931 0.929 . S
C971 C966 1.386 . S
C971 C970 1.399 . S
C972 C951 1.485 . S
C972 C973 1.394 1_455 S
C972 C977 1.360 . S
C973 H932 0.931 . S
C973 C972 1.394 1_655 S
C973 C974 1.372 . S
C974 H933 0.930 . S
C974 C973 1.372 . S
C974 C975 1.397 1_655 S
C975 C974 1.397 1_455 S
C975 C976 1.390 . S
C975 C991 1.476 . S
C976 H934 0.930 . S
C976 C975 1.390 . S
C976 C977 1.366 . S
C977 H935 0.932 . S
C977 C972 1.360 . S
C977 C976 1.366 . S
C978 C952 1.491 1_655 S
C978 C979 1.380 . S
C978 C983 1.386 1_655 S
C979 H936 0.930 . S
C979 C978 1.380 . S
C979 C980 1.381 . S
C980 H937 0.929 . S
C980 C979 1.381 . S
C980 C981 1.371 . S
C981 C980 1.371 . S
C981 C982 1.380 1_655 S
C982 H938 0.931 . S
C982 C981 1.380 1_455 S
C982 C983 1.387 . S
C983 H939 0.930 . S
C983 C978 1.386 1_455 S
C983 C982 1.387 . S
C984 C953 1.483 1_655 S
C984 C985 1.417 . S
C984 C989 1.335 1_655 S
C985 H940 0.929 . S
C985 C984 1.417 . S
C985 C986 1.386 . S
C986 H941 0.931 . S
C986 C985 1.386 . S
C986 C987 1.397 . S
C987 C986 1.397 . S
C987 C988 1.333 1_655 S
C988 H942 0.930 . S
C988 C987 1.333 1_455 S
C988 C989 1.396 . S
C989 H943 0.929 . S
C989 C984 1.335 1_455 S
C989 C988 1.396 . S
C990 O944 1.300 . S
C990 O945 1.209 . S
C990 C963 1.486 . S
C991 O946 1.199 1_455 S
C991 O947 1.297 . S
C991 C975 1.476 . S
H992 O1018 0.856 . S
H993 O1021 0.854 . S
H994 C1029 0.930 . S
H995 C1030 0.930 . S
H996 C1032 0.930 . S
H997 C1033 0.930 . S
H998 C1035 0.931 . S
H999 C1036 0.930 . S
H1000 C1038 0.930 . S
H1001 C1039 0.929 . S
H1002 C1041 0.930 . S
H1003 C1042 0.931 . S
H1004 C1044 0.930 . S
H1005 C1045 0.929 . S
H1006 C1047 0.931 . S
H1007 C1048 0.930 . S
H1008 C1050 0.930 . S
H1009 C1051 0.932 . S
H1010 C1053 0.930 . S
H1011 C1054 0.929 . S
H1012 C1056 0.931 . S
H1013 C1057 0.930 . S
H1014 C1059 0.929 . S
H1015 C1060 0.931 . S
H1016 C1062 0.930 . S
H1017 C1063 0.929 . S
O1018 H992 0.856 . S
O1018 C1064 1.300 . S
O1019 C1064 1.209 . S
O1020 C1065 1.199 . S
O1021 H993 0.854 . S
O1021 C1065 1.297 . S
C1022 C1023 1.404 . S
C1022 C1027 1.397 . S
C1022 C1028 1.492 . S
C1023 C1022 1.404 . S
C1023 C1024 1.396 . S
C1023 C1034 1.492 . S
C1024 C1023 1.396 . S
C1024 C1025 1.397 . S
C1024 C1040 1.509 . S
C1025 C1024 1.397 . S
C1025 C1026 1.412 . S
C1025 C1046 1.485 . S
C1026 C1025 1.412 . S
C1026 C1027 1.388 . S
C1026 C1052 1.490 . S
C1027 C1022 1.397 . S
C1027 C1026 1.388 . S
C1027 C1058 1.519 . S
C1028 C1022 1.492 . S
C1028 C1029 1.363 . S
C1028 C1033 1.390 . S
C1029 H994 0.930 . S
C1029 C1028 1.363 . S
C1029 C1030 1.372 . S
C1030 H995 0.930 . S
C1030 C1029 1.372 . S
C1030 C1031 1.383 . S
C1031 C1030 1.383 . S
C1031 C1032 1.395 . S
C1032 H996 0.930 . S
C1032 C1031 1.395 . S
C1032 C1033 1.362 . S
C1033 H997 0.930 . S
C1033 C1028 1.390 . S
C1033 C1032 1.362 . S
C1034 C1023 1.492 . S
C1034 C1035 1.377 . S
C1034 C1039 1.397 . S
C1035 H998 0.931 . S
C1035 C1034 1.377 . S
C1035 C1036 1.376 . S
C1036 H999 0.930 . S
C1036 C1035 1.376 . S
C1036 C1037 1.376 . S
C1037 C1036 1.376 . S
C1037 C1038 1.378 . S
C1037 C1064 1.486 . S
C1038 H1000 0.930 . S
C1038 C1037 1.378 . S
C1038 C1039 1.376 . S
C1039 H1001 0.929 . S
C1039 C1034 1.397 . S
C1039 C1038 1.376 . S
C1040 C1024 1.509 . S
C1040 C1041 1.391 . S
C1040 C1045 1.386 . S
C1041 H1002 0.930 . S
C1041 C1040 1.391 . S
C1041 C1042 1.375 . S
C1042 H1003 0.931 . S
C1042 C1041 1.375 . S
C1042 C1043 1.375 . S
C1043 C1042 1.375 . S
C1043 C1044 1.361 . S
C1044 H1004 0.930 . S
C1044 C1043 1.361 . S
C1044 C1045 1.399 . S
C1045 H1005 0.929 . S
C1045 C1040 1.386 . S
C1045 C1044 1.399 . S
C1046 C1025 1.485 . S
C1046 C1047 1.394 . S
C1046 C1051 1.360 . S
C1047 H1006 0.931 . S
C1047 C1046 1.394 . S
C1047 C1048 1.372 . S
C1048 H1007 0.930 . S
C1048 C1047 1.372 . S
C1048 C1049 1.397 . S
C1049 C1048 1.397 . S
C1049 C1050 1.390 . S
C1049 C1065 1.476 . S
C1050 H1008 0.930 . S
C1050 C1049 1.390 . S
C1050 C1051 1.366 . S
C1051 H1009 0.932 . S
C1051 C1046 1.360 . S
C1051 C1050 1.366 . S
C1052 C1026 1.490 . S
C1052 C1053 1.380 . S
C1052 C1057 1.386 . S
C1053 H1010 0.930 . S
C1053 C1052 1.380 . S
C1053 C1054 1.381 . S
C1054 H1011 0.929 . S
C1054 C1053 1.381 . S
C1054 C1055 1.371 . S
C1055 C1054 1.371 . S
C1055 C1056 1.380 . S
C1056 H1012 0.931 . S
C1056 C1055 1.380 . S
C1056 C1057 1.387 . S
C1057 H1013 0.930 . S
C1057 C1052 1.386 . S
C1057 C1056 1.387 . S
C1058 C1027 1.519 . S
C1058 C1059 1.377 . S
C1058 C1063 1.361 . S
C1059 H1014 0.929 . S
C1059 C1058 1.377 . S
C1059 C1060 1.386 . S
C1060 H1015 0.931 . S
C1060 C1059 1.386 . S
C1060 C1061 1.363 . S
C1061 C1060 1.363 . S
C1061 C1062 1.385 . S
C1062 H1016 0.930 . S
C1062 C1061 1.385 . S
C1062 C1063 1.396 . S
C1063 H1017 0.929 . S
C1063 C1058 1.361 . S
C1063 C1062 1.396 . S
C1064 O1018 1.300 . S
C1064 O1019 1.209 . S
C1064 C1037 1.486 . S
C1065 O1020 1.199 . S
C1065 O1021 1.297 . S
C1065 C1049 1.476 . S
H1066 O1092 0.856 . S
H1067 O1095 0.854 . S
H1068 C1103 0.930 . S
H1069 C1104 0.930 . S
H1070 C1106 0.930 . S
H1071 C1107 0.930 . S
H1072 C1109 0.931 . S
H1073 C1110 0.950 . S
H1074 C1112 0.930 . S
H1075 C1113 0.929 . S
H1076 C1115 0.930 . S
H1077 C1116 0.931 . S
H1078 C1118 0.930 . S
H1079 C1119 0.929 . S
H1080 C1121 0.931 . S
H1081 C1122 0.930 . S
H1082 C1124 0.930 . S
H1083 C1125 0.932 . S
H1084 C1127 0.930 . S
H1085 C1128 0.929 . S
H1086 C1130 0.931 . S
H1087 C1131 0.930 . S
H1088 C1133 0.929 . S
H1089 C1134 0.931 . S
H1090 C1136 0.930 . S
H1091 C1137 0.929 . S
O1092 H1066 0.856 . S
O1092 C1138 1.300 . S
O1093 C1138 1.209 . S
O1094 C1139 1.199 1_545 S
O1095 H1067 0.854 . S
O1095 C1139 1.297 . S
C1096 C1097 1.404 . S
C1096 C1101 1.414 . S
C1096 C1102 1.492 . S
C1097 C1096 1.404 . S
C1097 C1098 1.396 . S
C1097 C1108 1.492 . S
C1098 C1097 1.396 . S
C1098 C1099 1.397 . S
C1098 C1114 1.509 . S
C1099 C1098 1.397 . S
C1099 C1100 1.412 . S
C1099 C1120 1.485 . S
C1100 C1099 1.412 . S
C1100 C1101 1.364 . S
C1100 C1126 1.489 1_565 S
C1101 C1096 1.414 . S
C1101 C1100 1.364 . S
C1101 C1132 1.532 1_565 S
C1102 C1096 1.492 . S
C1102 C1103 1.363 1_565 S
C1102 C1107 1.390 . S
C1103 H1068 0.930 . S
C1103 C1102 1.363 1_545 S
C1103 C1104 1.372 . S
C1104 H1069 0.930 . S
C1104 C1103 1.372 . S
C1104 C1105 1.383 . S
C1105 C1104 1.383 . S
C1105 C1106 1.395 1_545 S
C1106 H1070 0.930 . S
C1106 C1105 1.395 1_565 S
C1106 C1107 1.362 . S
C1107 H1071 0.930 . S
C1107 C1102 1.390 . S
C1107 C1106 1.362 . S
C1108 C1097 1.492 . S
C1108 C1109 1.377 1_565 S
C1108 C1113 1.397 . S
C1109 H1072 0.931 . S
C1109 C1108 1.377 1_545 S
C1109 C1110 1.387 . S
C1110 H1073 0.950 . S
C1110 C1109 1.387 . S
C1110 C1111 1.345 1_545 S
C1111 C1110 1.345 1_565 S
C1111 C1112 1.378 . S
C1111 C1138 1.486 . S
C1112 H1074 0.930 . S
C1112 C1111 1.378 . S
C1112 C1113 1.376 . S
C1113 H1075 0.929 . S
C1113 C1108 1.397 . S
C1113 C1112 1.376 . S
C1114 C1098 1.509 . S
C1114 C1115 1.391 1_565 S
C1114 C1119 1.386 . S
C1115 H1076 0.930 . S
C1115 C1114 1.391 1_545 S
C1115 C1116 1.375 . S
C1116 H1077 0.931 . S
C1116 C1115 1.375 . S
C1116 C1117 1.375 1_545 S
C1117 C1116 1.375 1_565 S
C1117 C1118 1.361 . S
C1118 H1078 0.930 . S
C1118 C1117 1.361 . S
C1118 C1119 1.399 . S
C1119 H1079 0.929 . S
C1119 C1114 1.386 . S
C1119 C1118 1.399 . S
C1120 C1099 1.485 . S
C1120 C1121 1.394 1_565 S
C1120 C1125 1.360 . S
C1121 H1080 0.931 . S
C1121 C1120 1.394 1_545 S
C1121 C1122 1.372 . S
C1122 H1081 0.930 . S
C1122 C1121 1.372 . S
C1122 C1123 1.397 1_545 S
C1123 C1122 1.397 1_565 S
C1123 C1124 1.390 . S
C1123 C1139 1.476 . S
C1124 H1082 0.930 . S
C1124 C1123 1.390 . S
C1124 C1125 1.366 . S
C1125 H1083 0.932 . S
C1125 C1120 1.360 . S
C1125 C1124 1.366 . S
C1126 C1100 1.489 1_545 S
C1126 C1127 1.380 . S
C1126 C1131 1.386 1_545 S
C1127 H1084 0.930 . S
C1127 C1126 1.380 . S
C1127 C1128 1.381 . S
C1128 H1085 0.929 . S
C1128 C1127 1.381 . S
C1128 C1129 1.371 . S
C1129 C1128 1.371 . S
C1129 C1130 1.380 1_545 S
C1130 H1086 0.931 . S
C1130 C1129 1.380 1_565 S
C1130 C1131 1.387 . S
C1131 H1087 0.930 . S
C1131 C1126 1.386 1_565 S
C1131 C1130 1.387 . S
C1132 C1101 1.532 1_545 S
C1132 C1133 1.375 . S
C1132 C1137 1.364 1_545 S
C1133 H1088 0.929 . S
C1133 C1132 1.375 . S
C1133 C1134 1.386 . S
C1134 H1089 0.931 . S
C1134 C1133 1.386 . S
C1134 C1135 1.363 1_545 S
C1135 C1134 1.363 1_565 S
C1135 C1136 1.385 . S
C1136 H1090 0.930 . S
C1136 C1135 1.385 . S
C1136 C1137 1.396 . S
C1137 H1091 0.929 . S
C1137 C1132 1.364 1_565 S
C1137 C1136 1.396 . S
C1138 O1092 1.300 . S
C1138 O1093 1.209 . S
C1138 C1111 1.486 . S
C1139 O1094 1.199 1_565 S
C1139 O1095 1.297 . S
C1139 C1123 1.476 . S
H1140 O1166 0.856 . S
H1141 O1169 0.854 . S
H1142 C1177 0.930 . S
H1143 C1178 0.930 . S
H1144 C1180 0.930 . S
H1145 C1181 0.930 . S
H1146 C1183 0.931 . S
H1147 C1184 0.930 . S
H1148 C1186 0.930 . S
H1149 C1187 0.929 . S
H1150 C1189 0.930 . S
H1151 C1190 0.931 . S
H1152 C1192 0.930 . S
H1153 C1193 0.929 . S
H1154 C1195 0.931 . S
H1155 C1196 0.930 . S
H1156 C1198 0.930 . S
H1157 C1199 0.932 . S
H1158 C1201 0.930 . S
H1159 C1202 0.929 . S
H1160 C1204 0.931 . S
H1161 C1205 0.930 . S
H1162 C1207 0.929 . S
H1163 C1208 0.931 . S
H1164 C1210 0.930 . S
H1165 C1211 0.929 . S
O1166 H1140 0.856 . S
O1166 C1212 1.300 . S
O1167 C1212 1.209 1_565 S
O1168 C1213 1.199 1_545 S
O1169 H1141 0.854 . S
O1169 C1213 1.297 . S
C1170 C1171 1.404 . S
C1170 C1175 1.397 1_545 S
C1170 C1176 1.492 . S
C1171 C1170 1.404 . S
C1171 C1172 1.426 . S
C1171 C1182 1.492 . S
C1172 C1171 1.426 . S
C1172 C1173 1.376 1_545 S
C1172 C1188 1.503 . S
C1173 C1172 1.376 1_565 S
C1173 C1174 1.415 . S
C1173 C1194 1.507 . S
C1174 C1173 1.415 . S
C1174 C1175 1.363 . S
C1174 C1200 1.488 . S
C1175 C1170 1.397 1_565 S
C1175 C1174 1.363 . S
C1175 C1206 1.519 . S
C1176 C1170 1.492 . S
C1176 C1177 1.363 . S
C1176 C1181 1.390 1_545 S
C1177 H1142 0.930 . S
C1177 C1176 1.363 . S
C1177 C1178 1.372 . S
C1178 H1143 0.930 . S
C1178 C1177 1.372 . S
C1178 C1179 1.383 . S
C1179 C1178 1.383 . S
C1179 C1180 1.395 1_545 S
C1180 H1144 0.930 . S
C1180 C1179 1.395 1_565 S
C1180 C1181 1.362 . S
C1181 H1145 0.930 . S
C1181 C1176 1.390 1_565 S
C1181 C1180 1.362 . S
C1182 C1171 1.492 . S
C1182 C1183 1.377 . S
C1182 C1187 1.397 1_545 S
C1183 H1146 0.931 . S
C1183 C1182 1.377 . S
C1183 C1184 1.376 . S
C1184 H1147 0.930 . S
C1184 C1183 1.376 . S
C1184 C1185 1.376 . S
C1185 C1184 1.376 . S
C1185 C1186 1.378 1_545 S
C1185 C1212 1.486 . S
C1186 H1148 0.930 . S
C1186 C1185 1.378 1_565 S
C1186 C1187 1.376 . S
C1187 H1149 0.929 . S
C1187 C1182 1.397 1_565 S
C1187 C1186 1.376 . S
C1188 C1172 1.503 . S
C1188 C1189 1.405 . S
C1188 C1193 1.362 1_545 S
C1189 H1150 0.930 . S
C1189 C1188 1.405 . S
C1189 C1190 1.375 . S
C1190 H1151 0.931 . S
C1190 C1189 1.375 . S
C1190 C1191 1.370 . S
C1191 C1190 1.370 . S
C1191 C1192 1.364 1_545 S
C1192 H1152 0.930 . S
C1192 C1191 1.364 1_565 S
C1192 C1193 1.399 . S
C1193 H1153 0.929 . S
C1193 C1188 1.362 1_565 S
C1193 C1192 1.399 . S
C1194 C1173 1.507 . S
C1194 C1195 1.394 1_565 S
C1194 C1199 1.360 . S
C1195 H1154 0.931 . S
C1195 C1194 1.394 1_545 S
C1195 C1196 1.372 . S
C1196 H1155 0.930 . S
C1196 C1195 1.372 . S
C1196 C1197 1.397 1_545 S
C1197 C1196 1.397 1_565 S
C1197 C1198 1.390 . S
C1197 C1213 1.476 . S
C1198 H1156 0.930 . S
C1198 C1197 1.390 . S
C1198 C1199 1.366 . S
C1199 H1157 0.932 . S
C1199 C1194 1.360 . S
C1199 C1198 1.366 . S
C1200 C1174 1.488 . S
C1200 C1201 1.336 1_565 S
C1200 C1205 1.443 . S
C1201 H1158 0.930 . S
C1201 C1200 1.336 1_545 S
C1201 C1202 1.381 . S
C1202 H1159 0.929 . S
C1202 C1201 1.381 . S
C1202 C1203 1.375 . S
C1203 C1202 1.375 . S
C1203 C1204 1.376 1_545 S
C1204 H1160 0.931 . S
C1204 C1203 1.376 1_565 S
C1204 C1205 1.387 . S
C1205 H1161 0.930 . S
C1205 C1200 1.443 . S
C1205 C1204 1.387 . S
C1206 C1175 1.519 . S
C1206 C1207 1.377 1_565 S
C1206 C1211 1.361 . S
C1207 H1162 0.929 . S
C1207 C1206 1.377 1_545 S
C1207 C1208 1.386 . S
C1208 H1163 0.931 . S
C1208 C1207 1.386 . S
C1208 C1209 1.363 1_545 S
C1209 C1208 1.363 1_565 S
C1209 C1210 1.385 . S
C1210 H1164 0.930 . S
C1210 C1209 1.385 . S
C1210 C1211 1.396 . S
C1211 H1165 0.929 . S
C1211 C1206 1.361 . S
C1211 C1210 1.396 . S
C1212 O1166 1.300 . S
C1212 O1167 1.209 1_545 S
C1212 C1185 1.486 . S
C1213 O1168 1.199 1_565 S
C1213 O1169 1.297 . S
C1213 C1197 1.476 . S
H1214 O1240 0.856 . S
H1215 O1243 0.854 . S
H1216 C1251 0.930 . S
H1217 C1252 0.930 . S
H1218 C1254 0.930 . S
H1219 C1255 0.930 . S
H1220 C1257 0.931 . S
H1221 C1258 0.930 . S
H1222 C1260 0.930 . S
H1223 C1261 0.929 . S
H1224 C1263 0.930 . S
H1225 C1264 0.931 . S
H1226 C1266 0.930 . S
H1227 C1267 0.929 . S
H1228 C1269 0.931 . S
H1229 C1270 0.930 . S
H1230 C1272 0.930 . S
H1231 C1273 0.932 . S
H1232 C1275 0.930 . S
H1233 C1276 0.929 . S
H1234 C1278 0.931 . S
H1235 C1279 0.930 . S
H1236 C1281 0.929 . S
H1237 C1282 0.931 . S
H1238 C1284 0.930 . S
H1239 C1285 0.929 . S
O1240 H1214 0.856 . S
O1240 C1286 1.300 . S
O1241 C1286 1.209 1_455 S
O1242 C1287 1.199 1_655 S
O1243 H1215 0.854 . S
O1243 C1287 1.297 . S
C1244 C1245 1.404 . S
C1244 C1249 1.398 . S
C1244 C1250 1.492 . S
C1245 C1244 1.404 . S
C1245 C1246 1.396 . S
C1245 C1256 1.492 . S
C1246 C1245 1.396 . S
C1246 C1247 1.395 . S
C1246 C1262 1.509 . S
C1247 C1246 1.395 . S
C1247 C1248 1.393 1_655 S
C1247 C1268 1.521 1_655 S
C1248 C1247 1.393 1_455 S
C1248 C1249 1.400 1_455 S
C1248 C1274 1.487 . S
C1249 C1244 1.398 . S
C1249 C1248 1.400 1_655 S
C1249 C1280 1.522 1_655 S
C1250 C1244 1.492 . S
C1250 C1251 1.363 . S
C1250 C1255 1.390 1_655 S
C1251 H1216 0.930 . S
C1251 C1250 1.363 . S
C1251 C1252 1.372 . S
C1252 H1217 0.930 . S
C1252 C1251 1.372 . S
C1252 C1253 1.383 . S
C1253 C1252 1.383 . S
C1253 C1254 1.395 1_655 S
C1254 H1218 0.930 . S
C1254 C1253 1.395 1_455 S
C1254 C1255 1.362 . S
C1255 H1219 0.930 . S
C1255 C1250 1.390 1_455 S
C1255 C1254 1.362 . S
C1256 C1245 1.492 . S
C1256 C1257 1.377 . S
C1256 C1261 1.397 1_655 S
C1257 H1220 0.931 . S
C1257 C1256 1.377 . S
C1257 C1258 1.376 . S
C1258 H1221 0.930 . S
C1258 C1257 1.376 . S
C1258 C1259 1.376 . S
C1259 C1258 1.376 . S
C1259 C1260 1.378 1_655 S
C1259 C1286 1.486 . S
C1260 H1222 0.930 . S
C1260 C1259 1.378 1_455 S
C1260 C1261 1.376 . S
C1261 H1223 0.929 . S
C1261 C1256 1.397 1_455 S
C1261 C1260 1.376 . S
C1262 C1246 1.509 . S
C1262 C1263 1.391 . S
C1262 C1267 1.386 1_655 S
C1263 H1224 0.930 . S
C1263 C1262 1.391 . S
C1263 C1264 1.375 . S
C1264 H1225 0.931 . S
C1264 C1263 1.375 . S
C1264 C1265 1.375 . S
C1265 C1264 1.375 . S
C1265 C1266 1.361 1_655 S
C1266 H1226 0.930 . S
C1266 C1265 1.361 1_455 S
C1266 C1267 1.399 . S
C1267 H1227 0.929 . S
C1267 C1262 1.386 1_455 S
C1267 C1266 1.399 . S
C1268 C1247 1.521 1_455 S
C1268 C1269 1.353 1_455 S
C1268 C1273 1.378 . S
C1269 H1228 0.931 . S
C1269 C1268 1.353 1_655 S
C1269 C1270 1.372 . S
C1270 H1229 0.930 . S
C1270 C1269 1.372 . S
C1270 C1271 1.397 1_655 S
C1271 C1270 1.397 1_455 S
C1271 C1272 1.390 . S
C1271 C1287 1.476 . S
C1272 H1230 0.930 . S
C1272 C1271 1.390 . S
C1272 C1273 1.366 . S
C1273 H1231 0.932 . S
C1273 C1268 1.378 . S
C1273 C1272 1.366 . S
C1274 C1248 1.487 . S
C1274 C1275 1.380 1_455 S
C1274 C1279 1.386 . S
C1275 H1232 0.930 . S
C1275 C1274 1.380 1_655 S
C1275 C1276 1.381 . S
C1276 H1233 0.929 . S
C1276 C1275 1.381 . S
C1276 C1277 1.371 1_655 S
C1277 C1276 1.371 1_455 S
C1277 C1278 1.380 . S
C1278 H1234 0.931 . S
C1278 C1277 1.380 . S
C1278 C1279 1.387 . S
C1279 H1235 0.930 . S
C1279 C1274 1.386 . S
C1279 C1278 1.387 . S
C1280 C1249 1.522 1_455 S
C1280 C1281 1.377 1_455 S
C1280 C1285 1.361 . S
C1281 H1236 0.929 . S
C1281 C1280 1.377 1_655 S
C1281 C1282 1.386 . S
C1282 H1237 0.931 . S
C1282 C1281 1.386 . S
C1282 C1283 1.363 1_655 S
C1283 C1282 1.363 1_455 S
C1283 C1284 1.385 . S
C1284 H1238 0.930 . S
C1284 C1283 1.385 . S
C1284 C1285 1.396 . S
C1285 H1239 0.929 . S
C1285 C1280 1.361 . S
C1285 C1284 1.396 . S
C1286 O1240 1.300 . S
C1286 O1241 1.209 1_655 S
C1286 C1259 1.486 . S
C1287 O1242 1.199 1_455 S
C1287 O1243 1.297 . S
C1287 C1271 1.476 . S
H1288 O1314 0.856 . S
H1289 O1317 0.854 . S
H1290 C1325 0.930 . S
H1291 C1326 0.930 . S
H1292 C1328 0.930 . S
H1293 C1329 0.930 . S
H1294 C1331 0.931 . S
H1295 C1332 0.930 . S
H1296 C1334 0.930 . S
H1297 C1335 0.929 . S
H1298 C1337 0.930 . S
H1299 C1338 0.931 . S
H1300 C1340 0.930 . S
H1301 C1341 0.929 . S
H1302 C1343 0.931 . S
H1303 C1344 0.930 . S
H1304 C1346 0.930 . S
H1305 C1347 0.932 . S
H1306 C1349 0.930 . S
H1307 C1350 0.929 . S
H1308 C1352 0.931 . S
H1309 C1353 0.930 . S
H1310 C1355 0.929 . S
H1311 C1356 0.931 . S
H1312 C1358 0.930 . S
H1313 C1359 0.929 . S
O1314 H1288 0.856 . S
O1314 C1360 1.300 . S
O1315 C1360 1.209 . S
O1316 C1361 1.199 . S
O1317 H1289 0.854 . S
O1317 C1361 1.297 . S
C1318 C1319 1.404 . S
C1318 C1323 1.397 . S
C1318 C1324 1.492 . S
C1319 C1318 1.404 . S
C1319 C1320 1.396 . S
C1319 C1330 1.492 . S
C1320 C1319 1.396 . S
C1320 C1321 1.397 . S
C1320 C1336 1.509 . S
C1321 C1320 1.397 . S
C1321 C1322 1.412 . S
C1321 C1342 1.485 . S
C1322 C1321 1.412 . S
C1322 C1323 1.388 . S
C1322 C1348 1.490 . S
C1323 C1318 1.397 . S
C1323 C1322 1.388 . S
C1323 C1354 1.519 . S
C1324 C1318 1.492 . S
C1324 C1325 1.363 . S
C1324 C1329 1.390 . S
C1325 H1290 0.930 . S
C1325 C1324 1.363 . S
C1325 C1326 1.372 . S
C1326 H1291 0.930 . S
C1326 C1325 1.372 . S
C1326 C1327 1.383 . S
C1327 C1326 1.383 . S
C1327 C1328 1.395 . S
C1328 H1292 0.930 . S
C1328 C1327 1.395 . S
C1328 C1329 1.362 . S
C1329 H1293 0.930 . S
C1329 C1324 1.390 . S
C1329 C1328 1.362 . S
C1330 C1319 1.492 . S
C1330 C1331 1.377 . S
C1330 C1335 1.397 . S
C1331 H1294 0.931 . S
C1331 C1330 1.377 . S
C1331 C1332 1.376 . S
C1332 H1295 0.930 . S
C1332 C1331 1.376 . S
C1332 C1333 1.376 . S
C1333 C1332 1.376 . S
C1333 C1334 1.378 . S
C1333 C1360 1.486 . S
C1334 H1296 0.930 . S
C1334 C1333 1.378 . S
C1334 C1335 1.376 . S
C1335 H1297 0.929 . S
C1335 C1330 1.397 . S
C1335 C1334 1.376 . S
C1336 C1320 1.509 . S
C1336 C1337 1.391 . S
C1336 C1341 1.386 . S
C1337 H1298 0.930 . S
C1337 C1336 1.391 . S
C1337 C1338 1.375 . S
C1338 H1299 0.931 . S
C1338 C1337 1.375 . S
C1338 C1339 1.375 . S
C1339 C1338 1.375 . S
C1339 C1340 1.361 . S
C1340 H1300 0.930 . S
C1340 C1339 1.361 . S
C1340 C1341 1.399 . S
C1341 H1301 0.929 . S
C1341 C1336 1.386 . S
C1341 C1340 1.399 . S
C1342 C1321 1.485 . S
C1342 C1343 1.394 . S
C1342 C1347 1.360 . S
C1343 H1302 0.931 . S
C1343 C1342 1.394 . S
C1343 C1344 1.372 . S
C1344 H1303 0.930 . S
C1344 C1343 1.372 . S
C1344 C1345 1.397 . S
C1345 C1344 1.397 . S
C1345 C1346 1.390 . S
C1345 C1361 1.476 . S
C1346 H1304 0.930 . S
C1346 C1345 1.390 . S
C1346 C1347 1.366 . S
C1347 H1305 0.932 . S
C1347 C1342 1.360 . S
C1347 C1346 1.366 . S
C1348 C1322 1.490 . S
C1348 C1349 1.380 . S
C1348 C1353 1.386 . S
C1349 H1306 0.930 . S
C1349 C1348 1.380 . S
C1349 C1350 1.381 . S
C1350 H1307 0.929 . S
C1350 C1349 1.381 . S
C1350 C1351 1.371 . S
C1351 C1350 1.371 . S
C1351 C1352 1.380 . S
C1352 H1308 0.931 . S
C1352 C1351 1.380 . S
C1352 C1353 1.387 . S
C1353 H1309 0.930 . S
C1353 C1348 1.386 . S
C1353 C1352 1.387 . S
C1354 C1323 1.519 . S
C1354 C1355 1.377 . S
C1354 C1359 1.361 . S
C1355 H1310 0.929 . S
C1355 C1354 1.377 . S
C1355 C1356 1.386 . S
C1356 H1311 0.931 . S
C1356 C1355 1.386 . S
C1356 C1357 1.363 . S
C1357 C1356 1.363 . S
C1357 C1358 1.385 . S
C1358 H1312 0.930 . S
C1358 C1357 1.385 . S
C1358 C1359 1.396 . S
C1359 H1313 0.929 . S
C1359 C1354 1.361 . S
C1359 C1358 1.396 . S
C1360 O1314 1.300 . S
C1360 O1315 1.209 . S
C1360 C1333 1.486 . S
C1361 O1316 1.199 . S
C1361 O1317 1.297 . S
C1361 C1345 1.476 . S
H1362 O1388 0.856 . S
H1363 O1391 0.854 . S
H1364 C1399 0.930 . S
H1365 C1400 0.930 . S
H1366 C1402 0.930 . S
H1367 C1403 0.930 . S
H1368 C1405 0.931 . S
H1369 C1406 0.930 . S
H1370 C1408 0.930 . S
H1371 C1409 0.929 . S
H1372 C1411 0.930 . S
H1373 C1412 0.931 . S
H1374 C1414 0.930 . S
H1375 C1415 0.929 . S
H1376 C1417 0.931 . S
H1377 C1418 0.930 . S
H1378 C1420 0.930 . S
H1379 C1421 0.932 . S
H1380 C1423 0.930 . S
H1381 C1424 0.929 . S
H1382 C1426 0.931 . S
H1383 C1427 0.930 . S
H1384 C1429 0.929 . S
H1385 C1430 0.931 . S
H1386 C1432 0.930 . S
H1387 C1433 0.929 . S
O1388 H1362 0.856 . S
O1388 C1434 1.300 . S
O1389 C1434 1.209 . S
O1390 C1435 1.199 . S
O1391 H1363 0.854 . S
O1391 C1435 1.297 . S
C1392 C1393 1.404 . S
C1392 C1397 1.397 . S
C1392 C1398 1.492 . S
C1393 C1392 1.404 . S
C1393 C1394 1.396 . S
C1393 C1404 1.492 . S
C1394 C1393 1.396 . S
C1394 C1395 1.397 . S
C1394 C1410 1.509 . S
C1395 C1394 1.397 . S
C1395 C1396 1.412 . S
C1395 C1416 1.485 . S
C1396 C1395 1.412 . S
C1396 C1397 1.388 . S
C1396 C1422 1.490 . S
C1397 C1392 1.397 . S
C1397 C1396 1.388 . S
C1397 C1428 1.519 . S
C1398 C1392 1.492 . S
C1398 C1399 1.363 . S
C1398 C1403 1.390 . S
C1399 H1364 0.930 . S
C1399 C1398 1.363 . S
C1399 C1400 1.372 . S
C1400 H1365 0.930 . S
C1400 C1399 1.372 . S
C1400 C1401 1.383 . S
C1401 C1400 1.383 . S
C1401 C1402 1.395 . S
C1402 H1366 0.930 . S
C1402 C1401 1.395 . S
C1402 C1403 1.362 . S
C1403 H1367 0.930 . S
C1403 C1398 1.390 . S
C1403 C1402 1.362 . S
C1404 C1393 1.492 . S
C1404 C1405 1.377 . S
C1404 C1409 1.397 . S
C1405 H1368 0.931 . S
C1405 C1404 1.377 . S
C1405 C1406 1.376 . S
C1406 H1369 0.930 . S
C1406 C1405 1.376 . S
C1406 C1407 1.376 . S
C1407 C1406 1.376 . S
C1407 C1408 1.378 . S
C1407 C1434 1.486 . S
C1408 H1370 0.930 . S
C1408 C1407 1.378 . S
C1408 C1409 1.376 . S
C1409 H1371 0.929 . S
C1409 C1404 1.397 . S
C1409 C1408 1.376 . S
C1410 C1394 1.509 . S
C1410 C1411 1.391 . S
C1410 C1415 1.386 . S
C1411 H1372 0.930 . S
C1411 C1410 1.391 . S
C1411 C1412 1.375 . S
C1412 H1373 0.931 . S
C1412 C1411 1.375 . S
C1412 C1413 1.375 . S
C1413 C1412 1.375 . S
C1413 C1414 1.361 . S
C1414 H1374 0.930 . S
C1414 C1413 1.361 . S
C1414 C1415 1.399 . S
C1415 H1375 0.929 . S
C1415 C1410 1.386 . S
C1415 C1414 1.399 . S
C1416 C1395 1.485 . S
C1416 C1417 1.394 . S
C1416 C1421 1.360 . S
C1417 H1376 0.931 . S
C1417 C1416 1.394 . S
C1417 C1418 1.372 . S
C1418 H1377 0.930 . S
C1418 C1417 1.372 . S
C1418 C1419 1.397 . S
C1419 C1418 1.397 . S
C1419 C1420 1.390 . S
C1419 C1435 1.476 . S
C1420 H1378 0.930 . S
C1420 C1419 1.390 . S
C1420 C1421 1.366 . S
C1421 H1379 0.932 . S
C1421 C1416 1.360 . S
C1421 C1420 1.366 . S
C1422 C1396 1.490 . S
C1422 C1423 1.380 . S
C1422 C1427 1.386 . S
C1423 H1380 0.930 . S
C1423 C1422 1.380 . S
C1423 C1424 1.381 . S
C1424 H1381 0.929 . S
C1424 C1423 1.381 . S
C1424 C1425 1.371 . S
C1425 C1424 1.371 . S
C1425 C1426 1.380 . S
C1426 H1382 0.931 . S
C1426 C1425 1.380 . S
C1426 C1427 1.387 . S
C1427 H1383 0.930 . S
C1427 C1422 1.386 . S
C1427 C1426 1.387 . S
C1428 C1397 1.519 . S
C1428 C1429 1.377 . S
C1428 C1433 1.361 . S
C1429 H1384 0.929 . S
C1429 C1428 1.377 . S
C1429 C1430 1.386 . S
C1430 H1385 0.931 . S
C1430 C1429 1.386 . S
C1430 C1431 1.363 . S
C1431 C1430 1.363 . S
C1431 C1432 1.385 . S
C1432 H1386 0.930 . S
C1432 C1431 1.385 . S
C1432 C1433 1.396 . S
C1433 H1387 0.929 . S
C1433 C1428 1.361 . S
C1433 C1432 1.396 . S
C1434 O1388 1.300 . S
C1434 O1389 1.209 . S
C1434 C1407 1.486 . S
C1435 O1390 1.199 . S
C1435 O1391 1.297 . S
C1435 C1419 1.476 . S
H1436 O1462 0.856 . S
H1437 O1465 0.854 . S
H1438 C1473 0.930 . S
H1439 C1474 0.930 . S
H1440 C1476 0.930 . S
H1441 C1477 0.930 . S
H1442 C1479 0.931 . S
H1443 C1480 0.930 . S
H1444 C1482 0.930 . S
H1445 C1483 0.929 . S
H1446 C1485 0.930 . S
H1447 C1486 0.931 . S
H1448 C1488 0.930 . S
H1449 C1489 0.929 . S
H1450 C1491 0.931 . S
H1451 C1492 0.930 . S
H1452 C1494 0.930 . S
H1453 C1495 0.932 . S
H1454 C1497 0.930 . S
H1455 C1498 0.929 . S
H1456 C1500 0.931 . S
H1457 C1501 0.930 . S
H1458 C1503 0.929 . S
H1459 C1504 0.931 . S
H1460 C1506 0.930 . S
H1461 C1507 0.929 . S
O1462 H1436 0.856 . S
O1462 C1508 1.300 . S
O1463 C1508 1.209 . S
O1464 C1509 1.199 . S
O1465 H1437 0.854 . S
O1465 C1509 1.297 . S
C1466 C1467 1.404 . S
C1466 C1471 1.397 . S
C1466 C1472 1.492 . S
C1467 C1466 1.404 . S
C1467 C1468 1.396 . S
C1467 C1478 1.492 . S
C1468 C1467 1.396 . S
C1468 C1469 1.397 . S
C1468 C1484 1.509 . S
C1469 C1468 1.397 . S
C1469 C1470 1.412 . S
C1469 C1490 1.485 . S
C1470 C1469 1.412 . S
C1470 C1471 1.388 . S
C1470 C1496 1.490 . S
C1471 C1466 1.397 . S
C1471 C1470 1.388 . S
C1471 C1502 1.519 . S
C1472 C1466 1.492 . S
C1472 C1473 1.363 . S
C1472 C1477 1.390 . S
C1473 H1438 0.930 . S
C1473 C1472 1.363 . S
C1473 C1474 1.372 . S
C1474 H1439 0.930 . S
C1474 C1473 1.372 . S
C1474 C1475 1.383 . S
C1475 C1474 1.383 . S
C1475 C1476 1.395 . S
C1476 H1440 0.930 . S
C1476 C1475 1.395 . S
C1476 C1477 1.362 . S
C1477 H1441 0.930 . S
C1477 C1472 1.390 . S
C1477 C1476 1.362 . S
C1478 C1467 1.492 . S
C1478 C1479 1.377 . S
C1478 C1483 1.397 . S
C1479 H1442 0.931 . S
C1479 C1478 1.377 . S
C1479 C1480 1.376 . S
C1480 H1443 0.930 . S
C1480 C1479 1.376 . S
C1480 C1481 1.376 . S
C1481 C1480 1.376 . S
C1481 C1482 1.378 . S
C1481 C1508 1.486 . S
C1482 H1444 0.930 . S
C1482 C1481 1.378 . S
C1482 C1483 1.376 . S
C1483 H1445 0.929 . S
C1483 C1478 1.397 . S
C1483 C1482 1.376 . S
C1484 C1468 1.509 . S
C1484 C1485 1.391 . S
C1484 C1489 1.386 . S
C1485 H1446 0.930 . S
C1485 C1484 1.391 . S
C1485 C1486 1.375 . S
C1486 H1447 0.931 . S
C1486 C1485 1.375 . S
C1486 C1487 1.375 . S
C1487 C1486 1.375 . S
C1487 C1488 1.361 . S
C1488 H1448 0.930 . S
C1488 C1487 1.361 . S
C1488 C1489 1.399 . S
C1489 H1449 0.929 . S
C1489 C1484 1.386 . S
C1489 C1488 1.399 . S
C1490 C1469 1.485 . S
C1490 C1491 1.394 . S
C1490 C1495 1.360 . S
C1491 H1450 0.931 . S
C1491 C1490 1.394 . S
C1491 C1492 1.372 . S
C1492 H1451 0.930 . S
C1492 C1491 1.372 . S
C1492 C1493 1.397 . S
C1493 C1492 1.397 . S
C1493 C1494 1.390 . S
C1493 C1509 1.476 . S
C1494 H1452 0.930 . S
C1494 C1493 1.390 . S
C1494 C1495 1.366 . S
C1495 H1453 0.932 . S
C1495 C1490 1.360 . S
C1495 C1494 1.366 . S
C1496 C1470 1.490 . S
C1496 C1497 1.380 . S
C1496 C1501 1.386 . S
C1497 H1454 0.930 . S
C1497 C1496 1.380 . S
C1497 C1498 1.381 . S
C1498 H1455 0.929 . S
C1498 C1497 1.381 . S
C1498 C1499 1.371 . S
C1499 C1498 1.371 . S
C1499 C1500 1.380 . S
C1500 H1456 0.931 . S
C1500 C1499 1.380 . S
C1500 C1501 1.387 . S
C1501 H1457 0.930 . S
C1501 C1496 1.386 . S
C1501 C1500 1.387 . S
C1502 C1471 1.519 . S
C1502 C1503 1.377 . S
C1502 C1507 1.361 . S
C1503 H1458 0.929 . S
C1503 C1502 1.377 . S
C1503 C1504 1.386 . S
C1504 H1459 0.931 . S
C1504 C1503 1.386 . S
C1504 C1505 1.363 . S
C1505 C1504 1.363 . S
C1505 C1506 1.385 . S
C1506 H1460 0.930 . S
C1506 C1505 1.385 . S
C1506 C1507 1.396 . S
C1507 H1461 0.929 . S
C1507 C1502 1.361 . S
C1507 C1506 1.396 . S
C1508 O1462 1.300 . S
C1508 O1463 1.209 . S
C1508 C1481 1.486 . S
C1509 O1464 1.199 . S
C1509 O1465 1.297 . S
C1509 C1493 1.476 . S
H1510 O1536 0.856 . S
H1511 O1539 0.854 . S
H1512 C1547 0.930 . S
H1513 C1548 0.930 . S
H1514 C1550 0.930 . S
H1515 C1551 0.930 . S
H1516 C1553 0.931 . S
H1517 C1554 0.930 . S
H1518 C1556 0.930 . S
H1519 C1557 0.929 . S
H1520 C1559 0.930 . S
H1521 C1560 0.931 . S
H1522 C1562 0.930 . S
H1523 C1563 0.929 . S
H1524 C1565 0.931 . S
H1525 C1566 0.930 . S
H1526 C1568 0.930 . S
H1527 C1569 0.932 . S
H1528 C1571 0.930 . S
H1529 C1572 0.929 . S
H1530 C1574 0.931 . S
H1531 C1575 0.930 . S
H1532 C1577 0.929 . S
H1533 C1578 0.931 . S
H1534 C1580 0.930 . S
H1535 C1581 0.929 . S
O1536 H1510 0.856 . S
O1536 C1582 1.300 . S
O1537 C1582 1.209 . S
O1538 C1583 1.199 . S
O1539 H1511 0.854 . S
O1539 C1583 1.297 . S
C1540 C1541 1.404 . S
C1540 C1545 1.397 . S
C1540 C1546 1.492 . S
C1541 C1540 1.404 . S
C1541 C1542 1.396 . S
C1541 C1552 1.492 . S
C1542 C1541 1.396 . S
C1542 C1543 1.397 . S
C1542 C1558 1.509 . S
C1543 C1542 1.397 . S
C1543 C1544 1.412 . S
C1543 C1564 1.485 . S
C1544 C1543 1.412 . S
C1544 C1545 1.388 . S
C1544 C1570 1.490 . S
C1545 C1540 1.397 . S
C1545 C1544 1.388 . S
C1545 C1576 1.519 . S
C1546 C1540 1.492 . S
C1546 C1547 1.363 . S
C1546 C1551 1.390 . S
C1547 H1512 0.930 . S
C1547 C1546 1.363 . S
C1547 C1548 1.372 . S
C1548 H1513 0.930 . S
C1548 C1547 1.372 . S
C1548 C1549 1.383 . S
C1549 C1548 1.383 . S
C1549 C1550 1.395 . S
C1550 H1514 0.930 . S
C1550 C1549 1.395 . S
C1550 C1551 1.362 . S
C1551 H1515 0.930 . S
C1551 C1546 1.390 . S
C1551 C1550 1.362 . S
C1552 C1541 1.492 . S
C1552 C1553 1.377 . S
C1552 C1557 1.397 . S
C1553 H1516 0.931 . S
C1553 C1552 1.377 . S
C1553 C1554 1.376 . S
C1554 H1517 0.930 . S
C1554 C1553 1.376 . S
C1554 C1555 1.376 . S
C1555 C1554 1.376 . S
C1555 C1556 1.378 . S
C1555 C1582 1.486 . S
C1556 H1518 0.930 . S
C1556 C1555 1.378 . S
C1556 C1557 1.376 . S
C1557 H1519 0.929 . S
C1557 C1552 1.397 . S
C1557 C1556 1.376 . S
C1558 C1542 1.509 . S
C1558 C1559 1.391 . S
C1558 C1563 1.386 . S
C1559 H1520 0.930 . S
C1559 C1558 1.391 . S
C1559 C1560 1.375 . S
C1560 H1521 0.931 . S
C1560 C1559 1.375 . S
C1560 C1561 1.375 . S
C1561 C1560 1.375 . S
C1561 C1562 1.361 . S
C1562 H1522 0.930 . S
C1562 C1561 1.361 . S
C1562 C1563 1.399 . S
C1563 H1523 0.929 . S
C1563 C1558 1.386 . S
C1563 C1562 1.399 . S
C1564 C1543 1.485 . S
C1564 C1565 1.394 . S
C1564 C1569 1.360 . S
C1565 H1524 0.931 . S
C1565 C1564 1.394 . S
C1565 C1566 1.372 . S
C1566 H1525 0.930 . S
C1566 C1565 1.372 . S
C1566 C1567 1.397 . S
C1567 C1566 1.397 . S
C1567 C1568 1.390 . S
C1567 C1583 1.476 . S
C1568 H1526 0.930 . S
C1568 C1567 1.390 . S
C1568 C1569 1.366 . S
C1569 H1527 0.932 . S
C1569 C1564 1.360 . S
C1569 C1568 1.366 . S
C1570 C1544 1.490 . S
C1570 C1571 1.380 . S
C1570 C1575 1.386 . S
C1571 H1528 0.930 . S
C1571 C1570 1.380 . S
C1571 C1572 1.381 . S
C1572 H1529 0.929 . S
C1572 C1571 1.381 . S
C1572 C1573 1.371 . S
C1573 C1572 1.371 . S
C1573 C1574 1.380 . S
C1574 H1530 0.931 . S
C1574 C1573 1.380 . S
C1574 C1575 1.387 . S
C1575 H1531 0.930 . S
C1575 C1570 1.386 . S
C1575 C1574 1.387 . S
C1576 C1545 1.519 . S
C1576 C1577 1.377 . S
C1576 C1581 1.361 . S
C1577 H1532 0.929 . S
C1577 C1576 1.377 . S
C1577 C1578 1.386 . S
C1578 H1533 0.931 . S
C1578 C1577 1.386 . S
C1578 C1579 1.363 . S
C1579 C1578 1.363 . S
C1579 C1580 1.385 . S
C1580 H1534 0.930 . S
C1580 C1579 1.385 . S
C1580 C1581 1.396 . S
C1581 H1535 0.929 . S
C1581 C1576 1.361 . S
C1581 C1580 1.396 . S
C1582 O1536 1.300 . S
C1582 O1537 1.209 . S
C1582 C1555 1.486 . S
C1583 O1538 1.199 . S
C1583 O1539 1.297 . S
C1583 C1567 1.476 . S
H1584 C1596 0.930 . S
H1585 C1598 0.930 . S
H1586 C1599 0.930 . S
H1587 C1603 0.959 . S
H1588 C1603 0.959 . S
H1589 C1603 0.961 . S
H1590 C1604 0.960 . S
H1591 C1604 0.961 . S
H1592 C1604 0.959 . S
H1593 C1607 0.929 . S
H1594 C1608 0.931 . S
H1595 C1610 0.930 . S
C1596 H1584 0.930 . S
C1596 C1597 1.394 . S
C1596 C1601 1.399 . S
C1597 C1596 1.394 . S
C1597 C1598 1.378 1_655 S
C1598 H1585 0.930 . S
C1598 C1597 1.378 1_455 S
C1598 C1599 1.388 . S
C1599 H1586 0.930 . S
C1599 C1598 1.388 . S
C1599 C1600 1.390 . S
C1600 C1599 1.390 . S
C1600 C1601 1.394 1_455 S
C1600 C1606 1.465 1_455 S
C1601 C1596 1.399 . S
C1601 C1600 1.394 1_655 S
C1601 C1602 1.516 . S
C1602 C1601 1.516 . S
C1602 C1603 1.502 . S
C1602 C1604 1.561 . S
C1602 C1605 1.526 . S
C1603 H1587 0.959 . S
C1603 H1588 0.959 . S
C1603 H1589 0.961 . S
C1603 C1602 1.502 . S
C1604 H1590 0.960 . S
C1604 H1591 0.961 . S
C1604 H1592 0.959 . S
C1604 C1602 1.561 . S
C1605 C1602 1.526 . S
C1605 C1606 1.396 . S
C1605 C1610 1.390 . S
C1606 C1600 1.465 1_655 S
C1606 C1605 1.396 . S
C1606 C1607 1.399 1_655 S
C1607 H1593 0.929 . S
C1607 C1606 1.399 1_455 S
C1607 C1608 1.385 . S
C1608 H1594 0.931 . S
C1608 C1607 1.385 . S
C1608 C1609 1.389 1_455 S
C1609 C1608 1.389 1_655 S
C1609 C1610 1.387 . S
C1610 H1595 0.930 . S
C1610 C1605 1.390 . S
C1610 C1609 1.387 . S
H1611 C1623 0.930 . S
H1612 C1625 0.930 . S
H1613 C1626 0.930 . S
H1614 C1630 0.959 . S
H1615 C1630 0.959 . S
H1616 C1630 0.961 . S
H1617 C1631 0.960 . S
H1618 C1631 0.961 . S
H1619 C1631 0.959 . S
H1620 C1634 0.929 . S
H1621 C1635 0.931 . S
H1622 C1637 0.930 . S
C1623 H1611 0.930 . S
C1623 C1624 1.399 . S
C1623 C1628 1.399 . S
C1624 C1623 1.399 . S
C1624 C1625 1.376 . S
C1625 H1612 0.930 . S
C1625 C1624 1.376 . S
C1625 C1626 1.388 . S
C1626 H1613 0.930 . S
C1626 C1625 1.388 . S
C1626 C1627 1.390 . S
C1627 C1626 1.390 . S
C1627 C1628 1.394 . S
C1627 C1633 1.465 . S
C1628 C1623 1.399 . S
C1628 C1627 1.394 . S
C1628 C1629 1.516 . S
C1629 C1628 1.516 . S
C1629 C1630 1.502 . S
C1629 C1631 1.561 . S
C1629 C1632 1.526 . S
C1630 H1614 0.959 . S
C1630 H1615 0.959 . S
C1630 H1616 0.961 . S
C1630 C1629 1.502 . S
C1631 H1617 0.960 . S
C1631 H1618 0.961 . S
C1631 H1619 0.959 . S
C1631 C1629 1.561 . S
C1632 C1629 1.526 . S
C1632 C1633 1.396 . S
C1632 C1637 1.390 . S
C1633 C1627 1.465 . S
C1633 C1632 1.396 . S
C1633 C1634 1.399 . S
C1634 H1620 0.929 . S
C1634 C1633 1.399 . S
C1634 C1635 1.385 . S
C1635 H1621 0.931 . S
C1635 C1634 1.385 . S
C1635 C1636 1.389 . S
C1636 C1635 1.389 . S
C1636 C1637 1.387 . S
C1637 H1622 0.930 . S
C1637 C1632 1.390 . S
C1637 C1636 1.387 . S
H1638 C1650 0.930 . S
H1639 C1652 0.930 . S
H1640 C1653 0.930 . S
H1641 C1657 0.959 . S
H1642 C1657 0.959 . S
H1643 C1657 0.961 . S
H1644 C1658 0.960 . S
H1645 C1658 0.961 . S
H1646 C1658 0.959 . S
H1647 C1661 0.929 . S
H1648 C1662 0.931 . S
H1649 C1664 0.930 . S
C1650 H1638 0.930 . S
C1650 C1651 1.399 . S
C1650 C1655 1.399 . S
C1651 C1650 1.399 . S
C1651 C1652 1.376 1_545 S
C1652 H1639 0.930 . S
C1652 C1651 1.376 1_565 S
C1652 C1653 1.388 . S
C1653 H1640 0.930 . S
C1653 C1652 1.388 . S
C1653 C1654 1.390 1_565 S
C1654 C1653 1.390 1_545 S
C1654 C1655 1.394 . S
C1654 C1660 1.465 . S
C1655 C1650 1.399 . S
C1655 C1654 1.394 . S
C1655 C1656 1.516 . S
C1656 C1655 1.516 . S
C1656 C1657 1.502 . S
C1656 C1658 1.561 . S
C1656 C1659 1.526 . S
C1657 H1641 0.959 . S
C1657 H1642 0.959 . S
C1657 H1643 0.961 . S
C1657 C1656 1.502 . S
C1658 H1644 0.960 . S
C1658 H1645 0.961 . S
C1658 H1646 0.959 . S
C1658 C1656 1.561 . S
C1659 C1656 1.526 . S
C1659 C1660 1.396 . S
C1659 C1664 1.390 . S
C1660 C1654 1.465 . S
C1660 C1659 1.396 . S
C1660 C1661 1.399 1_545 S
C1661 H1647 0.929 . S
C1661 C1660 1.399 1_565 S
C1661 C1662 1.385 . S
C1662 H1648 0.931 . S
C1662 C1661 1.385 . S
C1662 C1663 1.389 1_565 S
C1663 C1662 1.389 1_545 S
C1663 C1664 1.387 . S
C1664 H1649 0.930 . S
C1664 C1659 1.390 . S
C1664 C1663 1.387 . S
H1665 C1677 0.930 . S
H1666 C1679 0.930 . S
H1667 C1680 0.930 . S
H1668 C1684 0.959 . S
H1669 C1684 0.959 . S
H1670 C1684 0.961 . S
H1671 C1685 0.960 . S
H1672 C1685 0.961 . S
H1673 C1685 0.959 . S
H1674 C1688 0.929 . S
H1675 C1689 0.931 . S
H1676 C1691 0.930 . S
C1677 H1665 0.930 . S
C1677 C1678 1.399 . S
C1677 C1682 1.399 . S
C1678 C1677 1.399 . S
C1678 C1679 1.376 1_565 S
C1679 H1666 0.930 . S
C1679 C1678 1.376 1_545 S
C1679 C1680 1.388 . S
C1680 H1667 0.930 . S
C1680 C1679 1.388 . S
C1680 C1681 1.356 1_545 S
C1681 C1680 1.356 1_565 S
C1681 C1682 1.425 . S
C1681 C1687 1.476 . S
C1682 C1677 1.399 . S
C1682 C1681 1.425 . S
C1682 C1683 1.516 . S
C1683 C1682 1.516 . S
C1683 C1684 1.502 . S
C1683 C1685 1.561 . S
C1683 C1686 1.526 . S
C1684 H1668 0.959 . S
C1684 H1669 0.959 . S
C1684 H1670 0.961 . S
C1684 C1683 1.502 . S
C1685 H1671 0.960 . S
C1685 H1672 0.961 . S
C1685 H1673 0.959 . S
C1685 C1683 1.561 . S
C1686 C1683 1.526 . S
C1686 C1687 1.396 . S
C1686 C1691 1.390 . S
C1687 C1681 1.476 . S
C1687 C1686 1.396 . S
C1687 C1688 1.399 1_565 S
C1688 H1674 0.929 . S
C1688 C1687 1.399 1_545 S
C1688 C1689 1.385 . S
C1689 H1675 0.931 . S
C1689 C1688 1.385 . S
C1689 C1690 1.389 1_545 S
C1690 C1689 1.389 1_565 S
C1690 C1691 1.387 . S
C1691 H1676 0.930 . S
C1691 C1686 1.390 . S
C1691 C1690 1.387 . S
H1692 C1704 0.930 . S
H1693 C1706 0.930 . S
H1694 C1707 0.930 . S
H1695 C1711 0.959 1_455 S
H1696 C1711 0.959 . S
H1697 C1711 0.961 . S
H1698 C1712 0.960 . S
H1699 C1712 0.961 . S
H1700 C1712 0.959 . S
H1701 C1715 0.929 . S
H1702 C1716 0.931 . S
H1703 C1718 0.930 1_655 S
C1704 H1692 0.930 . S
C1704 C1705 1.399 1_655 S
C1704 C1709 1.399 1_655 S
C1705 C1704 1.399 1_455 S
C1705 C1706 1.376 . S
C1706 H1693 0.930 . S
C1706 C1705 1.376 . S
C1706 C1707 1.388 . S
C1707 H1694 0.930 . S
C1707 C1706 1.388 . S
C1707 C1708 1.390 . S
C1708 C1707 1.390 . S
C1708 C1709 1.394 . S
C1708 C1714 1.465 . S
C1709 C1704 1.399 1_455 S
C1709 C1708 1.394 . S
C1709 C1710 1.516 1_455 S
C1710 C1709 1.516 1_655 S
C1710 C1711 1.502 . S
C1710 C1712 1.561 . S
C1710 C1713 1.526 1_655 S
C1711 H1695 0.959 1_655 S
C1711 H1696 0.959 . S
C1711 H1697 0.961 . S
C1711 C1710 1.502 . S
C1712 H1698 0.960 . S
C1712 H1699 0.961 . S
C1712 H1700 0.959 . S
C1712 C1710 1.561 . S
C1713 C1710 1.526 1_455 S
C1713 C1714 1.396 . S
C1713 C1718 1.390 . S
C1714 C1708 1.465 . S
C1714 C1713 1.396 . S
C1714 C1715 1.399 . S
C1715 H1701 0.929 . S
C1715 C1714 1.399 . S
C1715 C1716 1.385 . S
C1716 H1702 0.931 . S
C1716 C1715 1.385 . S
C1716 C1717 1.389 . S
C1717 C1716 1.389 . S
C1717 C1718 1.387 . S
C1718 H1703 0.930 1_455 S
C1718 C1713 1.390 . S
C1718 C1717 1.387 . S
H1719 C1731 0.935 . S
H1720 C1733 0.930 . S
H1721 C1734 0.930 . S
H1722 C1738 0.959 . S
H1723 C1738 0.959 . S
H1724 C1738 0.961 . S
H1725 C1739 0.960 . S
H1726 C1739 0.961 . S
H1727 C1739 0.959 . S
H1728 C1742 0.929 . S
H1729 C1743 0.931 . S
H1730 C1745 0.930 . S
C1731 H1719 0.935 . S
C1731 C1732 1.427 . S
C1731 C1736 1.368 1_554 S
C1732 C1731 1.427 . S
C1732 C1733 1.376 . S
C1733 H1720 0.930 . S
C1733 C1732 1.376 . S
C1733 C1734 1.388 1_554 S
C1734 H1721 0.930 . S
C1734 C1733 1.388 1_556 S
C1734 C1735 1.390 . S
C1735 C1734 1.390 . S
C1735 C1736 1.394 . S
C1735 C1741 1.465 . S
C1736 C1731 1.368 1_556 S
C1736 C1735 1.394 . S
C1736 C1737 1.516 . S
C1737 C1736 1.516 . S
C1737 C1738 1.502 . S
C1737 C1739 1.561 . S
C1737 C1740 1.526 . S
C1738 H1722 0.959 . S
C1738 H1723 0.959 . S
C1738 H1724 0.961 . S
C1738 C1737 1.502 . S
C1739 H1725 0.960 . S
C1739 H1726 0.961 . S
C1739 H1727 0.959 . S
C1739 C1737 1.561 . S
C1740 C1737 1.526 . S
C1740 C1741 1.396 . S
C1740 C1745 1.390 . S
C1741 C1735 1.465 . S
C1741 C1740 1.396 . S
C1741 C1742 1.399 . S
C1742 H1728 0.929 . S
C1742 C1741 1.399 . S
C1742 C1743 1.385 . S
C1743 H1729 0.931 . S
C1743 C1742 1.385 . S
C1743 C1744 1.389 . S
C1744 C1743 1.389 . S
C1744 C1745 1.387 . S
C1745 H1730 0.930 . S
C1745 C1740 1.390 . S
C1745 C1744 1.387 . S
H1746 C1758 0.930 . S
H1747 C1760 0.930 . S
H1748 C1761 0.930 . S
H1749 C1765 0.959 . S
H1750 C1765 0.959 . S
H1751 C1765 0.961 . S
H1752 C1766 0.960 . S
H1753 C1766 0.961 . S
H1754 C1766 0.959 . S
H1755 C1769 0.929 . S
H1756 C1770 0.975 1_655 S
H1757 C1772 0.930 . S
C1758 H1746 0.930 . S
C1758 C1759 1.399 1_556 S
C1758 C1763 1.399 . S
C1759 C1758 1.399 1_554 S
C1759 C1760 1.376 . S
C1760 H1747 0.930 . S
C1760 C1759 1.376 . S
C1760 C1761 1.388 . S
C1761 H1748 0.930 . S
C1761 C1760 1.388 . S
C1761 C1762 1.390 1_554 S
C1762 C1761 1.390 1_556 S
C1762 C1763 1.394 . S
C1762 C1768 1.465 . S
C1763 C1758 1.399 . S
C1763 C1762 1.394 . S
C1763 C1764 1.516 . S
C1764 C1763 1.516 . S
C1764 C1765 1.502 1_455 S
C1764 C1766 1.561 . S
C1764 C1767 1.526 . S
C1765 H1749 0.959 . S
C1765 H1750 0.959 . S
C1765 H1751 0.961 . S
C1765 C1764 1.502 1_655 S
C1766 H1752 0.960 . S
C1766 H1753 0.961 . S
C1766 H1754 0.959 . S
C1766 C1764 1.561 . S
C1767 C1764 1.526 . S
C1767 C1768 1.396 . S
C1767 C1772 1.390 . S
C1768 C1762 1.465 . S
C1768 C1767 1.396 . S
C1768 C1769 1.399 . S
C1769 H1755 0.929 . S
C1769 C1768 1.399 . S
C1769 C1770 1.370 . S
C1770 H1756 0.975 1_455 S
C1770 C1769 1.370 . S
C1770 C1771 1.384 . S
C1771 C1770 1.384 . S
C1771 C1772 1.387 . S
C1772 H1757 0.930 . S
C1772 C1767 1.390 . S
C1772 C1771 1.387 . S
H1773 C1785 0.930 . S
H1774 C1787 0.930 . S
H1775 C1788 0.930 . S
H1776 C1792 0.959 . S
H1777 C1792 0.959 . S
H1778 C1792 0.961 . S
H1779 C1793 0.960 . S
H1780 C1793 0.961 . S
H1781 C1793 0.959 . S
H1782 C1796 0.929 . S
H1783 C1797 0.931 . S
H1784 C1799 0.930 . S
C1785 H1773 0.930 . S
C1785 C1786 1.399 . S
C1785 C1790 1.399 . S
C1786 C1785 1.399 . S
C1786 C1787 1.376 . S
C1787 H1774 0.930 . S
C1787 C1786 1.376 . S
C1787 C1788 1.388 . S
C1788 H1775 0.930 . S
C1788 C1787 1.388 . S
C1788 C1789 1.390 . S
C1789 C1788 1.390 . S
C1789 C1790 1.394 . S
C1789 C1795 1.465 . S
C1790 C1785 1.399 . S
C1790 C1789 1.394 . S
C1790 C1791 1.516 . S
C1791 C1790 1.516 . S
C1791 C1792 1.502 . S
C1791 C1793 1.561 . S
C1791 C1794 1.526 . S
C1792 H1776 0.959 . S
C1792 H1777 0.959 . S
C1792 H1778 0.961 . S
C1792 C1791 1.502 . S
C1793 H1779 0.960 . S
C1793 H1780 0.961 . S
C1793 H1781 0.959 . S
C1793 C1791 1.561 . S
C1794 C1791 1.526 . S
C1794 C1795 1.396 . S
C1794 C1799 1.390 . S
C1795 C1789 1.465 . S
C1795 C1794 1.396 . S
C1795 C1796 1.399 . S
C1796 H1782 0.929 . S
C1796 C1795 1.399 . S
C1796 C1797 1.385 . S
C1797 H1783 0.931 . S
C1797 C1796 1.385 . S
C1797 C1798 1.389 . S
C1798 C1797 1.389 . S
C1798 C1799 1.387 . S
C1799 H1784 0.930 . S
C1799 C1794 1.390 . S
C1799 C1798 1.387 . S
H1800 C1812 0.930 . S
H1801 C1814 0.924 1_554 S
H1802 C1815 0.930 . S
H1803 C1819 0.959 . S
H1804 C1819 0.959 . S
H1805 C1819 0.961 . S
H1806 C1820 0.960 . S
H1807 C1820 0.961 . S
H1808 C1820 0.959 . S
H1809 C1823 0.929 . S
H1810 C1824 0.931 . S
H1811 C1826 0.930 . S
C1812 H1800 0.930 . S
C1812 C1813 1.399 . S
C1812 C1817 1.399 . S
C1813 C1812 1.399 . S
C1813 C1814 1.376 1_565 S
C1814 H1801 0.924 1_556 S
C1814 C1813 1.376 1_545 S
C1814 C1815 1.395 . S
C1815 H1802 0.930 . S
C1815 C1814 1.395 . S
C1815 C1816 1.390 . S
C1816 C1815 1.390 . S
C1816 C1817 1.394 1_545 S
C1816 C1822 1.465 . S
C1817 C1812 1.399 . S
C1817 C1816 1.394 1_565 S
C1817 C1818 1.516 . S
C1818 C1817 1.516 . S
C1818 C1819 1.502 . S
C1818 C1820 1.561 . S
C1818 C1821 1.526 . S
C1819 H1803 0.959 . S
C1819 H1804 0.959 . S
C1819 H1805 0.961 . S
C1819 C1818 1.502 . S
C1820 H1806 0.960 . S
C1820 H1807 0.961 . S
C1820 H1808 0.959 . S
C1820 C1818 1.561 . S
C1821 C1818 1.526 . S
C1821 C1822 1.396 1_565 S
C1821 C1826 1.390 . S
C1822 C1816 1.465 . S
C1822 C1821 1.396 1_545 S
C1822 C1823 1.399 . S
C1823 H1809 0.929 . S
C1823 C1822 1.399 . S
C1823 C1824 1.385 . S
C1824 H1810 0.931 . S
C1824 C1823 1.385 . S
C1824 C1825 1.389 . S
C1825 C1824 1.389 . S
C1825 C1826 1.387 1_545 S
C1826 H1811 0.930 . S
C1826 C1821 1.390 . S
C1826 C1825 1.387 1_565 S
H1827 C1839 0.930 . S
H1828 C1841 0.930 . S
H1829 C1842 0.930 . S
H1830 C1846 0.959 . S
H1831 C1846 0.959 . S
H1832 C1846 0.961 . S
H1833 C1847 0.960 . S
H1834 C1847 0.961 . S
H1835 C1847 0.959 . S
H1836 C1850 0.929 . S
H1837 C1851 0.931 . S
H1838 C1853 0.930 . S
C1839 H1827 0.930 . S
C1839 C1840 1.399 1_565 S
C1839 C1844 1.399 . S
C1840 C1839 1.399 1_545 S
C1840 C1841 1.376 . S
C1841 H1828 0.930 . S
C1841 C1840 1.376 . S
C1841 C1842 1.388 . S
C1842 H1829 0.930 . S
C1842 C1841 1.388 . S
C1842 C1843 1.390 . S
C1843 C1842 1.390 . S
C1843 C1844 1.394 1_545 S
C1843 C1849 1.465 . S
C1844 C1839 1.399 . S
C1844 C1843 1.394 1_565 S
C1844 C1845 1.516 . S
C1845 C1844 1.516 . S
C1845 C1846 1.502 . S
C1845 C1847 1.561 . S
C1845 C1848 1.526 . S
C1846 H1830 0.959 . S
C1846 H1831 0.959 . S
C1846 H1832 0.961 . S
C1846 C1845 1.502 . S
C1847 H1833 0.960 . S
C1847 H1834 0.961 . S
C1847 H1835 0.959 . S
C1847 C1845 1.561 . S
C1848 C1845 1.526 . S
C1848 C1849 1.396 1_565 S
C1848 C1853 1.390 . S
C1849 C1843 1.465 . S
C1849 C1848 1.396 1_545 S
C1849 C1850 1.399 . S
C1850 H1836 0.929 . S
C1850 C1849 1.399 . S
C1850 C1851 1.385 . S
C1851 H1837 0.931 . S
C1851 C1850 1.385 . S
C1851 C1852 1.389 . S
C1852 C1851 1.389 . S
C1852 C1853 1.387 1_545 S
C1853 H1838 0.930 . S
C1853 C1848 1.390 . S
C1853 C1852 1.387 1_565 S
H1854 C1866 0.930 . S
H1855 C1868 0.930 . S
H1856 C1869 0.930 . S
H1857 C1873 0.959 . S
H1858 C1873 0.959 . S
H1859 C1873 0.961 . S
H1860 C1874 0.960 . S
H1861 C1874 0.961 . S
H1862 C1874 0.959 . S
H1863 C1877 0.929 . S
H1864 C1878 0.931 . S
H1865 C1880 0.930 . S
C1866 H1854 0.930 . S
C1866 C1867 1.399 . S
C1866 C1871 1.399 . S
C1867 C1866 1.399 . S
C1867 C1868 1.376 1_655 S
C1868 H1855 0.930 . S
C1868 C1867 1.376 1_455 S
C1868 C1869 1.388 . S
C1869 H1856 0.930 . S
C1869 C1868 1.388 . S
C1869 C1870 1.390 . S
C1870 C1869 1.390 . S
C1870 C1871 1.394 1_455 S
C1870 C1876 1.465 . S
C1871 C1866 1.399 . S
C1871 C1870 1.394 1_655 S
C1871 C1872 1.516 . S
C1872 C1871 1.516 . S
C1872 C1873 1.502 . S
C1872 C1874 1.561 . S
C1872 C1875 1.526 . S
C1873 H1857 0.959 . S
C1873 H1858 0.959 . S
C1873 H1859 0.961 . S
C1873 C1872 1.502 . S
C1874 H1860 0.960 . S
C1874 H1861 0.961 . S
C1874 H1862 0.959 . S
C1874 C1872 1.561 . S
C1875 C1872 1.526 . S
C1875 C1876 1.396 1_655 S
C1875 C1880 1.390 . S
C1876 C1870 1.465 . S
C1876 C1875 1.396 1_455 S
C1876 C1877 1.399 . S
C1877 H1863 0.929 . S
C1877 C1876 1.399 . S
C1877 C1878 1.385 . S
C1878 H1864 0.931 . S
C1878 C1877 1.385 . S
C1878 C1879 1.389 . S
C1879 C1878 1.389 . S
C1879 C1880 1.387 1_455 S
C1880 H1865 0.930 . S
C1880 C1875 1.390 . S
C1880 C1879 1.387 1_655 S
H1881 C1893 0.930 . S
H1882 C1895 0.930 . S
H1883 C1896 0.930 . S
H1884 C1900 0.959 . S
H1885 C1900 0.959 . S
H1886 C1900 0.961 . S
H1887 C1901 0.960 . S
H1888 C1901 0.961 . S
H1889 C1901 0.959 . S
H1890 C1904 0.929 . S
H1891 C1905 0.931 . S
H1892 C1907 0.930 . S
C1893 H1881 0.930 . S
C1893 C1894 1.399 . S
C1893 C1898 1.399 . S
C1894 C1893 1.399 . S
C1894 C1895 1.376 . S
C1895 H1882 0.930 . S
C1895 C1894 1.376 . S
C1895 C1896 1.388 . S
C1896 H1883 0.930 . S
C1896 C1895 1.388 . S
C1896 C1897 1.390 . S
C1897 C1896 1.390 . S
C1897 C1898 1.394 . S
C1897 C1903 1.465 . S
C1898 C1893 1.399 . S
C1898 C1897 1.394 . S
C1898 C1899 1.516 . S
C1899 C1898 1.516 . S
C1899 C1900 1.502 . S
C1899 C1901 1.561 . S
C1899 C1902 1.526 . S
C1900 H1884 0.959 . S
C1900 H1885 0.959 . S
C1900 H1886 0.961 . S
C1900 C1899 1.502 . S
C1901 H1887 0.960 . S
C1901 H1888 0.961 . S
C1901 H1889 0.959 . S
C1901 C1899 1.561 . S
C1902 C1899 1.526 . S
C1902 C1903 1.396 . S
C1902 C1907 1.390 . S
C1903 C1897 1.465 . S
C1903 C1902 1.396 . S
C1903 C1904 1.399 . S
C1904 H1890 0.929 . S
C1904 C1903 1.399 . S
C1904 C1905 1.385 . S
C1905 H1891 0.931 . S
C1905 C1904 1.385 . S
C1905 C1906 1.389 . S
C1906 C1905 1.389 . S
C1906 C1907 1.387 . S
C1907 H1892 0.930 . S
C1907 C1902 1.390 . S
C1907 C1906 1.387 . S
H1908 C1920 0.930 . S
H1909 C1922 0.930 . S
H1910 C1923 0.930 . S
H1911 C1927 0.959 . S
H1912 C1927 0.959 . S
H1913 C1927 0.961 . S
H1914 C1928 0.960 . S
H1915 C1928 0.961 . S
H1916 C1928 0.959 . S
H1917 C1931 0.929 . S
H1918 C1932 0.931 . S
H1919 C1934 0.930 . S
C1920 H1908 0.930 . S
C1920 C1921 1.399 . S
C1920 C1925 1.399 . S
C1921 C1920 1.399 . S
C1921 C1922 1.376 . S
C1922 H1909 0.930 . S
C1922 C1921 1.376 . S
C1922 C1923 1.388 . S
C1923 H1910 0.930 . S
C1923 C1922 1.388 . S
C1923 C1924 1.390 . S
C1924 C1923 1.390 . S
C1924 C1925 1.394 . S
C1924 C1930 1.465 . S
C1925 C1920 1.399 . S
C1925 C1924 1.394 . S
C1925 C1926 1.516 . S
C1926 C1925 1.516 . S
C1926 C1927 1.502 . S
C1926 C1928 1.561 . S
C1926 C1929 1.526 . S
C1927 H1911 0.959 . S
C1927 H1912 0.959 . S
C1927 H1913 0.961 . S
C1927 C1926 1.502 . S
C1928 H1914 0.960 . S
C1928 H1915 0.961 . S
C1928 H1916 0.959 . S
C1928 C1926 1.561 . S
C1929 C1926 1.526 . S
C1929 C1930 1.396 . S
C1929 C1934 1.390 . S
C1930 C1924 1.465 . S
C1930 C1929 1.396 . S
C1930 C1931 1.399 . S
C1931 H1917 0.929 . S
C1931 C1930 1.399 . S
C1931 C1932 1.385 . S
C1932 H1918 0.931 . S
C1932 C1931 1.385 . S
C1932 C1933 1.389 . S
C1933 C1932 1.389 . S
C1933 C1934 1.387 . S
C1934 H1919 0.930 . S
C1934 C1929 1.390 . S
C1934 C1933 1.387 . S
H1935 C1947 0.930 . S
H1936 C1949 0.930 . S
H1937 C1950 0.930 . S
H1938 C1954 0.959 . S
H1939 C1954 0.959 . S
H1940 C1954 0.961 . S
H1941 C1955 0.960 . S
H1942 C1955 0.961 . S
H1943 C1955 0.959 . S
H1944 C1958 0.929 . S
H1945 C1959 0.931 . S
H1946 C1961 0.930 . S
C1947 H1935 0.930 . S
C1947 C1948 1.399 . S
C1947 C1952 1.399 . S
C1948 C1947 1.399 . S
C1948 C1949 1.376 . S
C1949 H1936 0.930 . S
C1949 C1948 1.376 . S
C1949 C1950 1.388 . S
C1950 H1937 0.930 . S
C1950 C1949 1.388 . S
C1950 C1951 1.390 . S
C1951 C1950 1.390 . S
C1951 C1952 1.394 . S
C1951 C1957 1.465 . S
C1952 C1947 1.399 . S
C1952 C1951 1.394 . S
C1952 C1953 1.516 . S
C1953 C1952 1.516 . S
C1953 C1954 1.502 . S
C1953 C1955 1.561 . S
C1953 C1956 1.526 . S
C1954 H1938 0.959 . S
C1954 H1939 0.959 . S
C1954 H1940 0.961 . S
C1954 C1953 1.502 . S
C1955 H1941 0.960 . S
C1955 H1942 0.961 . S
C1955 H1943 0.959 . S
C1955 C1953 1.561 . S
C1956 C1953 1.526 . S
C1956 C1957 1.396 . S
C1956 C1961 1.390 . S
C1957 C1951 1.465 . S
C1957 C1956 1.396 . S
C1957 C1958 1.399 . S
C1958 H1944 0.929 . S
C1958 C1957 1.399 . S
C1958 C1959 1.385 . S
C1959 H1945 0.931 . S
C1959 C1958 1.385 . S
C1959 C1960 1.389 . S
C1960 C1959 1.389 . S
C1960 C1961 1.387 . S
C1961 H1946 0.930 . S
C1961 C1956 1.390 . S
C1961 C1960 1.387 . S
H1962 C1974 0.930 . S
H1963 C1976 0.930 . S
H1964 C1977 0.930 . S
H1965 C1981 0.959 . S
H1966 C1981 0.959 . S
H1967 C1981 0.961 . S
H1968 C1982 0.960 . S
H1969 C1982 0.961 . S
H1970 C1982 0.959 . S
H1971 C1985 0.929 . S
H1972 C1986 0.931 . S
H1973 C1988 0.930 . S
C1974 H1962 0.930 . S
C1974 C1975 1.399 . S
C1974 C1979 1.399 . S
C1975 C1974 1.399 . S
C1975 C1976 1.376 . S
C1976 H1963 0.930 . S
C1976 C1975 1.376 . S
C1976 C1977 1.388 . S
C1977 H1964 0.930 . S
C1977 C1976 1.388 . S
C1977 C1978 1.390 . S
C1978 C1977 1.390 . S
C1978 C1979 1.394 . S
C1978 C1984 1.465 . S
C1979 C1974 1.399 . S
C1979 C1978 1.394 . S
C1979 C1980 1.516 . S
C1980 C1979 1.516 . S
C1980 C1981 1.502 . S
C1980 C1982 1.561 . S
C1980 C1983 1.526 . S
C1981 H1965 0.959 . S
C1981 H1966 0.959 . S
C1981 H1967 0.961 . S
C1981 C1980 1.502 . S
C1982 H1968 0.960 . S
C1982 H1969 0.961 . S
C1982 H1970 0.959 . S
C1982 C1980 1.561 . S
C1983 C1980 1.526 . S
C1983 C1984 1.396 . S
C1983 C1988 1.390 . S
C1984 C1978 1.465 . S
C1984 C1983 1.396 . S
C1984 C1985 1.399 . S
C1985 H1971 0.929 . S
C1985 C1984 1.399 . S
C1985 C1986 1.385 . S
C1986 H1972 0.931 . S
C1986 C1985 1.385 . S
C1986 C1987 1.389 . S
C1987 C1986 1.389 . S
C1987 C1988 1.387 . S
C1988 H1973 0.930 . S
C1988 C1983 1.390 . S
C1988 C1987 1.387 . S
H1989 C2001 0.930 . S
H1990 C2003 0.930 . S
H1991 C2004 0.930 . S
H1992 C2008 0.959 . S
H1993 C2008 0.959 . S
H1994 C2008 0.961 . S
H1995 C2009 0.960 . S
H1996 C2009 0.961 . S
H1997 C2009 0.959 . S
H1998 C2012 0.929 . S
H1999 C2013 0.931 . S
H2000 C2015 0.930 . S
C2001 H1989 0.930 . S
C2001 C2002 1.399 . S
C2001 C2006 1.399 . S
C2002 C2001 1.399 . S
C2002 C2003 1.376 . S
C2003 H1990 0.930 . S
C2003 C2002 1.376 . S
C2003 C2004 1.388 . S
C2004 H1991 0.930 . S
C2004 C2003 1.388 . S
C2004 C2005 1.390 . S
C2005 C2004 1.390 . S
C2005 C2006 1.394 . S
C2005 C2011 1.465 . S
C2006 C2001 1.399 . S
C2006 C2005 1.394 . S
C2006 C2007 1.516 . S
C2007 C2006 1.516 . S
C2007 C2008 1.502 . S
C2007 C2009 1.561 . S
C2007 C2010 1.526 . S
C2008 H1992 0.959 . S
C2008 H1993 0.959 . S
C2008 H1994 0.961 . S
C2008 C2007 1.502 . S
C2009 H1995 0.960 . S
C2009 H1996 0.961 . S
C2009 H1997 0.959 . S
C2009 C2007 1.561 . S
C2010 C2007 1.526 . S
C2010 C2011 1.396 . S
C2010 C2015 1.390 . S
C2011 C2005 1.465 . S
C2011 C2010 1.396 . S
C2011 C2012 1.399 . S
C2012 H1998 0.929 . S
C2012 C2011 1.399 . S
C2012 C2013 1.385 . S
C2013 H1999 0.931 . S
C2013 C2012 1.385 . S
C2013 C2014 1.389 . S
C2014 C2013 1.389 . S
C2014 C2015 1.387 . S
C2015 H2000 0.930 . S
C2015 C2010 1.390 . S
C2015 C2014 1.387 . S
H2016 C2028 0.930 . S
H2017 C2030 0.930 . S
H2018 C2031 0.930 . S
H2019 C2035 0.959 . S
H2020 C2035 0.959 . S
H2021 C2035 0.961 . S
H2022 C2036 0.960 . S
H2023 C2036 0.961 . S
H2024 C2036 0.959 . S
H2025 C2039 0.929 . S
H2026 C2040 0.931 . S
H2027 C2042 0.930 . S
C2028 H2016 0.930 . S
C2028 C2029 1.399 . S
C2028 C2033 1.399 . S
C2029 C2028 1.399 . S
C2029 C2030 1.376 . S
C2030 H2017 0.930 . S
C2030 C2029 1.376 . S
C2030 C2031 1.388 . S
C2031 H2018 0.930 . S
C2031 C2030 1.388 . S
C2031 C2032 1.390 . S
C2032 C2031 1.390 . S
C2032 C2033 1.394 . S
C2032 C2038 1.465 . S
C2033 C2028 1.399 . S
C2033 C2032 1.394 . S
C2033 C2034 1.516 . S
C2034 C2033 1.516 . S
C2034 C2035 1.502 . S
C2034 C2036 1.561 . S
C2034 C2037 1.526 . S
C2035 H2019 0.959 . S
C2035 H2020 0.959 . S
C2035 H2021 0.961 . S
C2035 C2034 1.502 . S
C2036 H2022 0.960 . S
C2036 H2023 0.961 . S
C2036 H2024 0.959 . S
C2036 C2034 1.561 . S
C2037 C2034 1.526 . S
C2037 C2038 1.396 . S
C2037 C2042 1.390 . S
C2038 C2032 1.465 . S
C2038 C2037 1.396 . S
C2038 C2039 1.399 . S
C2039 H2025 0.929 . S
C2039 C2038 1.399 . S
C2039 C2040 1.385 . S
C2040 H2026 0.931 . S
C2040 C2039 1.385 . S
C2040 C2041 1.389 . S
C2041 C2040 1.389 . S
C2041 C2042 1.387 . S
C2042 H2027 0.930 . S
C2042 C2037 1.390 . S
C2042 C2041 1.387 . S
H2043 C2055 0.930 . S
H2044 C2057 0.930 . S
H2045 C2058 0.930 . S
H2046 C2062 0.959 . S
H2047 C2062 0.959 . S
H2048 C2062 0.961 . S
H2049 C2063 0.960 . S
H2050 C2063 0.961 . S
H2051 C2063 0.959 . S
H2052 C2066 0.929 . S
H2053 C2067 0.931 . S
H2054 C2069 0.930 . S
C2055 H2043 0.930 . S
C2055 C2056 1.399 . S
C2055 C2060 1.399 . S
C2056 C2055 1.399 . S
C2056 C2057 1.376 . S
C2057 H2044 0.930 . S
C2057 C2056 1.376 . S
C2057 C2058 1.388 . S
C2058 H2045 0.930 . S
C2058 C2057 1.388 . S
C2058 C2059 1.390 . S
C2059 C2058 1.390 . S
C2059 C2060 1.394 . S
C2059 C2065 1.465 . S
C2060 C2055 1.399 . S
C2060 C2059 1.394 . S
C2060 C2061 1.516 . S
C2061 C2060 1.516 . S
C2061 C2062 1.502 . S
C2061 C2063 1.561 . S
C2061 C2064 1.526 . S
C2062 H2046 0.959 . S
C2062 H2047 0.959 . S
C2062 H2048 0.961 . S
C2062 C2061 1.502 . S
C2063 H2049 0.960 . S
C2063 H2050 0.961 . S
C2063 H2051 0.959 . S
C2063 C2061 1.561 . S
C2064 C2061 1.526 . S
C2064 C2065 1.396 . S
C2064 C2069 1.390 . S
C2065 C2059 1.465 . S
C2065 C2064 1.396 . S
C2065 C2066 1.399 . S
C2066 H2052 0.929 . S
C2066 C2065 1.399 . S
C2066 C2067 1.385 . S
C2067 H2053 0.931 . S
C2067 C2066 1.385 . S
C2067 C2068 1.389 . S
C2068 C2067 1.389 . S
C2068 C2069 1.387 . S
C2069 H2054 0.930 . S
C2069 C2064 1.390 . S
C2069 C2068 1.387 . S
H2070 C2082 0.930 . S
H2071 C2084 0.930 . S
H2072 C2085 0.930 . S
H2073 C2089 0.959 . S
H2074 C2089 0.959 . S
H2075 C2089 0.961 . S
H2076 C2090 0.960 . S
H2077 C2090 0.961 . S
H2078 C2090 0.959 . S
H2079 C2093 0.929 . S
H2080 C2094 0.931 . S
H2081 C2096 0.930 . S
C2082 H2070 0.930 . S
C2082 C2083 1.399 . S
C2082 C2087 1.399 . S
C2083 C2082 1.399 . S
C2083 C2084 1.376 . S
C2084 H2071 0.930 . S
C2084 C2083 1.376 . S
C2084 C2085 1.388 . S
C2085 H2072 0.930 . S
C2085 C2084 1.388 . S
C2085 C2086 1.390 . S
C2086 C2085 1.390 . S
C2086 C2087 1.394 . S
C2086 C2092 1.465 . S
C2087 C2082 1.399 . S
C2087 C2086 1.394 . S
C2087 C2088 1.516 . S
C2088 C2087 1.516 . S
C2088 C2089 1.502 . S
C2088 C2090 1.561 . S
C2088 C2091 1.526 . S
C2089 H2073 0.959 . S
C2089 H2074 0.959 . S
C2089 H2075 0.961 . S
C2089 C2088 1.502 . S
C2090 H2076 0.960 . S
C2090 H2077 0.961 . S
C2090 H2078 0.959 . S
C2090 C2088 1.561 . S
C2091 C2088 1.526 . S
C2091 C2092 1.396 . S
C2091 C2096 1.390 . S
C2092 C2086 1.465 . S
C2092 C2091 1.396 . S
C2092 C2093 1.399 . S
C2093 H2079 0.929 . S
C2093 C2092 1.399 . S
C2093 C2094 1.385 . S
C2094 H2080 0.931 . S
C2094 C2093 1.385 . S
C2094 C2095 1.389 . S
C2095 C2094 1.389 . S
C2095 C2096 1.387 . S
C2096 H2081 0.930 . S
C2096 C2091 1.390 . S
C2096 C2095 1.387 . S
H2097 C2109 0.930 . S
H2098 C2111 0.930 . S
H2099 C2112 0.930 . S
H2100 C2116 0.959 . S
H2101 C2116 0.959 . S
H2102 C2116 0.961 . S
H2103 C2117 0.960 . S
H2104 C2117 0.961 . S
H2105 C2117 0.959 . S
H2106 C2120 0.929 . S
H2107 C2121 0.931 . S
H2108 C2123 0.930 . S
C2109 H2097 0.930 . S
C2109 C2110 1.399 . S
C2109 C2114 1.399 . S
C2110 C2109 1.399 . S
C2110 C2111 1.376 . S
C2111 H2098 0.930 . S
C2111 C2110 1.376 . S
C2111 C2112 1.388 . S
C2112 H2099 0.930 . S
C2112 C2111 1.388 . S
C2112 C2113 1.390 . S
C2113 C2112 1.390 . S
C2113 C2114 1.394 . S
C2113 C2119 1.465 . S
C2114 C2109 1.399 . S
C2114 C2113 1.394 . S
C2114 C2115 1.516 . S
C2115 C2114 1.516 . S
C2115 C2116 1.502 . S
C2115 C2117 1.561 . S
C2115 C2118 1.526 . S
C2116 H2100 0.959 . S
C2116 H2101 0.959 . S
C2116 H2102 0.961 . S
C2116 C2115 1.502 . S
C2117 H2103 0.960 . S
C2117 H2104 0.961 . S
C2117 H2105 0.959 . S
C2117 C2115 1.561 . S
C2118 C2115 1.526 . S
C2118 C2119 1.396 . S
C2118 C2123 1.390 . S
C2119 C2113 1.465 . S
C2119 C2118 1.396 . S
C2119 C2120 1.399 . S
C2120 H2106 0.929 . S
C2120 C2119 1.399 . S
C2120 C2121 1.385 . S
C2121 H2107 0.931 . S
C2121 C2120 1.385 . S
C2121 C2122 1.389 . S
C2122 C2121 1.389 . S
C2122 C2123 1.387 . S
C2123 H2108 0.930 . S
C2123 C2118 1.390 . S
C2123 C2122 1.387 . S
H2124 C2136 0.930 . S
H2125 C2138 0.930 . S
H2126 C2139 0.930 . S
H2127 C2143 0.959 . S
H2128 C2143 0.959 . S
H2129 C2143 0.961 . S
H2130 C2144 0.960 . S
H2131 C2144 0.961 . S
H2132 C2144 0.959 . S
H2133 C2147 0.929 . S
H2134 C2148 0.931 . S
H2135 C2150 0.930 . S
C2136 H2124 0.930 . S
C2136 C2137 1.399 . S
C2136 C2141 1.399 . S
C2137 C2136 1.399 . S
C2137 C2138 1.376 . S
C2138 H2125 0.930 . S
C2138 C2137 1.376 . S
C2138 C2139 1.388 . S
C2139 H2126 0.930 . S
C2139 C2138 1.388 . S
C2139 C2140 1.390 . S
C2140 C2139 1.390 . S
C2140 C2141 1.394 . S
C2140 C2146 1.465 . S
C2141 C2136 1.399 . S
C2141 C2140 1.394 . S
C2141 C2142 1.516 . S
C2142 C2141 1.516 . S
C2142 C2143 1.502 . S
C2142 C2144 1.561 . S
C2142 C2145 1.526 . S
C2143 H2127 0.959 . S
C2143 H2128 0.959 . S
C2143 H2129 0.961 . S
C2143 C2142 1.502 . S
C2144 H2130 0.960 . S
C2144 H2131 0.961 . S
C2144 H2132 0.959 . S
C2144 C2142 1.561 . S
C2145 C2142 1.526 . S
C2145 C2146 1.396 . S
C2145 C2150 1.390 . S
C2146 C2140 1.465 . S
C2146 C2145 1.396 . S
C2146 C2147 1.399 . S
C2147 H2133 0.929 . S
C2147 C2146 1.399 . S
C2147 C2148 1.385 . S
C2148 H2134 0.931 . S
C2148 C2147 1.385 . S
C2148 C2149 1.389 . S
C2149 C2148 1.389 . S
C2149 C2150 1.387 . S
C2150 H2135 0.930 . S
C2150 C2145 1.390 . S
C2150 C2149 1.387 . S
H2151 C2163 0.930 . S
H2152 C2165 0.930 . S
H2153 C2166 0.930 . S
H2154 C2170 0.959 . S
H2155 C2170 0.959 . S
H2156 C2170 0.961 . S
H2157 C2171 0.960 . S
H2158 C2171 0.961 . S
H2159 C2171 0.959 . S
H2160 C2174 0.929 . S
H2161 C2175 0.931 . S
H2162 C2177 0.930 . S
C2163 H2151 0.930 . S
C2163 C2164 1.399 . S
C2163 C2168 1.399 . S
C2164 C2163 1.399 . S
C2164 C2165 1.376 . S
C2165 H2152 0.930 . S
C2165 C2164 1.376 . S
C2165 C2166 1.388 . S
C2166 H2153 0.930 . S
C2166 C2165 1.388 . S
C2166 C2167 1.390 . S
C2167 C2166 1.390 . S
C2167 C2168 1.394 . S
C2167 C2173 1.465 . S
C2168 C2163 1.399 . S
C2168 C2167 1.394 . S
C2168 C2169 1.516 . S
C2169 C2168 1.516 . S
C2169 C2170 1.502 . S
C2169 C2171 1.561 . S
C2169 C2172 1.526 . S
C2170 H2154 0.959 . S
C2170 H2155 0.959 . S
C2170 H2156 0.961 . S
C2170 C2169 1.502 . S
C2171 H2157 0.960 . S
C2171 H2158 0.961 . S
C2171 H2159 0.959 . S
C2171 C2169 1.561 . S
C2172 C2169 1.526 . S
C2172 C2173 1.396 . S
C2172 C2177 1.390 . S
C2173 C2167 1.465 . S
C2173 C2172 1.396 . S
C2173 C2174 1.399 . S
C2174 H2160 0.929 . S
C2174 C2173 1.399 . S
C2174 C2175 1.385 . S
C2175 H2161 0.931 . S
C2175 C2174 1.385 . S
C2175 C2176 1.389 . S
C2176 C2175 1.389 . S
C2176 C2177 1.387 . S
C2177 H2162 0.930 . S
C2177 C2172 1.390 . S
C2177 C2176 1.387 . S
H2178 C2190 0.930 . S
H2179 C2192 0.930 . S
H2180 C2193 0.930 . S
H2181 C2197 0.959 . S
H2182 C2197 0.959 . S
H2183 C2197 0.961 . S
H2184 C2198 0.960 . S
H2185 C2198 0.961 . S
H2186 C2198 0.959 . S
H2187 C2201 0.929 . S
H2188 C2202 0.931 . S
H2189 C2204 0.930 . S
C2190 H2178 0.930 . S
C2190 C2191 1.399 . S
C2190 C2195 1.399 . S
C2191 C2190 1.399 . S
C2191 C2192 1.376 . S
C2192 H2179 0.930 . S
C2192 C2191 1.376 . S
C2192 C2193 1.388 . S
C2193 H2180 0.930 . S
C2193 C2192 1.388 . S
C2193 C2194 1.390 . S
C2194 C2193 1.390 . S
C2194 C2195 1.394 . S
C2194 C2200 1.465 . S
C2195 C2190 1.399 . S
C2195 C2194 1.394 . S
C2195 C2196 1.516 . S
C2196 C2195 1.516 . S
C2196 C2197 1.502 . S
C2196 C2198 1.561 . S
C2196 C2199 1.526 . S
C2197 H2181 0.959 . S
C2197 H2182 0.959 . S
C2197 H2183 0.961 . S
C2197 C2196 1.502 . S
C2198 H2184 0.960 . S
C2198 H2185 0.961 . S
C2198 H2186 0.959 . S
C2198 C2196 1.561 . S
C2199 C2196 1.526 . S
C2199 C2200 1.396 . S
C2199 C2204 1.390 . S
C2200 C2194 1.465 . S
C2200 C2199 1.396 . S
C2200 C2201 1.399 . S
C2201 H2187 0.929 . S
C2201 C2200 1.399 . S
C2201 C2202 1.385 . S
C2202 H2188 0.931 . S
C2202 C2201 1.385 . S
C2202 C2203 1.389 . S
C2203 C2202 1.389 . S
C2203 C2204 1.387 . S
C2204 H2189 0.930 . S
C2204 C2199 1.390 . S
C2204 C2203 1.387 . S
H2205 C2217 0.930 . S
H2206 C2219 0.930 . S
H2207 C2220 0.930 . S
H2208 C2224 0.959 . S
H2209 C2224 0.959 . S
H2210 C2224 0.961 . S
H2211 C2225 0.960 . S
H2212 C2225 0.961 . S
H2213 C2225 0.959 . S
H2214 C2228 0.929 . S
H2215 C2229 0.931 . S
H2216 C2231 0.930 . S
C2217 H2205 0.930 . S
C2217 C2218 1.399 . S
C2217 C2222 1.399 . S
C2218 C2217 1.399 . S
C2218 C2219 1.376 . S
C2219 H2206 0.930 . S
C2219 C2218 1.376 . S
C2219 C2220 1.388 . S
C2220 H2207 0.930 . S
C2220 C2219 1.388 . S
C2220 C2221 1.390 . S
C2221 C2220 1.390 . S
C2221 C2222 1.394 . S
C2221 C2227 1.465 . S
C2222 C2217 1.399 . S
C2222 C2221 1.394 . S
C2222 C2223 1.516 . S
C2223 C2222 1.516 . S
C2223 C2224 1.502 . S
C2223 C2225 1.561 . S
C2223 C2226 1.526 . S
C2224 H2208 0.959 . S
C2224 H2209 0.959 . S
C2224 H2210 0.961 . S
C2224 C2223 1.502 . S
C2225 H2211 0.960 . S
C2225 H2212 0.961 . S
C2225 H2213 0.959 . S
C2225 C2223 1.561 . S
C2226 C2223 1.526 . S
C2226 C2227 1.396 . S
C2226 C2231 1.390 . S
C2227 C2221 1.465 . S
C2227 C2226 1.396 . S
C2227 C2228 1.399 . S
C2228 H2214 0.929 . S
C2228 C2227 1.399 . S
C2228 C2229 1.385 . S
C2229 H2215 0.931 . S
C2229 C2228 1.385 . S
C2229 C2230 1.389 . S
C2230 C2229 1.389 . S
C2230 C2231 1.387 . S
C2231 H2216 0.930 . S
C2231 C2226 1.390 . S
C2231 C2230 1.387 . S
H2232 C2244 0.930 . S
H2233 C2246 0.930 . S
H2234 C2247 0.930 . S
H2235 C2251 0.959 . S
H2236 C2251 0.959 . S
H2237 C2251 0.961 . S
H2238 C2252 0.960 . S
H2239 C2252 0.961 . S
H2240 C2252 0.959 . S
H2241 C2255 0.929 . S
H2242 C2256 0.931 . S
H2243 C2258 0.930 . S
C2244 H2232 0.930 . S
C2244 C2245 1.399 . S
C2244 C2249 1.399 . S
C2245 C2244 1.399 . S
C2245 C2246 1.376 . S
C2246 H2233 0.930 . S
C2246 C2245 1.376 . S
C2246 C2247 1.388 . S
C2247 H2234 0.930 . S
C2247 C2246 1.388 . S
C2247 C2248 1.390 . S
C2248 C2247 1.390 . S
C2248 C2249 1.394 . S
C2248 C2254 1.465 . S
C2249 C2244 1.399 . S
C2249 C2248 1.394 . S
C2249 C2250 1.516 . S
C2250 C2249 1.516 . S
C2250 C2251 1.502 . S
C2250 C2252 1.561 . S
C2250 C2253 1.526 . S
C2251 H2235 0.959 . S
C2251 H2236 0.959 . S
C2251 H2237 0.961 . S
C2251 C2250 1.502 . S
C2252 H2238 0.960 . S
C2252 H2239 0.961 . S
C2252 H2240 0.959 . S
C2252 C2250 1.561 . S
C2253 C2250 1.526 . S
C2253 C2254 1.396 . S
C2253 C2258 1.390 . S
C2254 C2248 1.465 . S
C2254 C2253 1.396 . S
C2254 C2255 1.399 . S
C2255 H2241 0.929 . S
C2255 C2254 1.399 . S
C2255 C2256 1.385 . S
C2256 H2242 0.931 . S
C2256 C2255 1.385 . S
C2256 C2257 1.389 . S
C2257 C2256 1.389 . S
C2257 C2258 1.387 . S
C2258 H2243 0.930 . S
C2258 C2253 1.390 . S
C2258 C2257 1.387 . S
H2259 C2271 0.930 . S
H2260 C2273 0.930 . S
H2261 C2274 0.930 . S
H2262 C2278 0.959 . S
H2263 C2278 0.959 . S
H2264 C2278 0.961 . S
H2265 C2279 0.960 . S
H2266 C2279 0.961 . S
H2267 C2279 0.959 . S
H2268 C2282 0.929 . S
H2269 C2283 0.931 . S
H2270 C2285 0.930 . S
C2271 H2259 0.930 . S
C2271 C2272 1.399 . S
C2271 C2276 1.399 . S
C2272 C2271 1.399 . S
C2272 C2273 1.376 . S
C2273 H2260 0.930 . S
C2273 C2272 1.376 . S
C2273 C2274 1.388 . S
C2274 H2261 0.930 . S
C2274 C2273 1.388 . S
C2274 C2275 1.390 . S
C2275 C2274 1.390 . S
C2275 C2276 1.394 . S
C2275 C2281 1.465 . S
C2276 C2271 1.399 . S
C2276 C2275 1.394 . S
C2276 C2277 1.516 . S
C2277 C2276 1.516 . S
C2277 C2278 1.502 . S
C2277 C2279 1.561 . S
C2277 C2280 1.526 . S
C2278 H2262 0.959 . S
C2278 H2263 0.959 . S
C2278 H2264 0.961 . S
C2278 C2277 1.502 . S
C2279 H2265 0.960 . S
C2279 H2266 0.961 . S
C2279 H2267 0.959 . S
C2279 C2277 1.561 . S
C2280 C2277 1.526 . S
C2280 C2281 1.396 . S
C2280 C2285 1.390 . S
C2281 C2275 1.465 . S
C2281 C2280 1.396 . S
C2281 C2282 1.399 . S
C2282 H2268 0.929 . S
C2282 C2281 1.399 . S
C2282 C2283 1.385 . S
C2283 H2269 0.931 . S
C2283 C2282 1.385 . S
C2283 C2284 1.389 . S
C2284 C2283 1.389 . S
C2284 C2285 1.387 . S
C2285 H2270 0.930 . S
C2285 C2280 1.390 . S
C2285 C2284 1.387 . S
H2286 C2298 0.930 . S
H2287 C2300 0.930 . S
H2288 C2301 0.930 . S
H2289 C2305 0.959 . S
H2290 C2305 0.959 . S
H2291 C2305 0.961 . S
H2292 C2306 0.960 . S
H2293 C2306 0.961 . S
H2294 C2306 0.959 . S
H2295 C2309 0.929 . S
H2296 C2310 0.931 . S
H2297 C2312 0.930 . S
C2298 H2286 0.930 . S
C2298 C2299 1.399 . S
C2298 C2303 1.399 . S
C2299 C2298 1.399 . S
C2299 C2300 1.376 . S
C2300 H2287 0.930 . S
C2300 C2299 1.376 . S
C2300 C2301 1.388 . S
C2301 H2288 0.930 . S
C2301 C2300 1.388 . S
C2301 C2302 1.390 . S
C2302 C2301 1.390 . S
C2302 C2303 1.394 . S
C2302 C2308 1.465 . S
C2303 C2298 1.399 . S
C2303 C2302 1.394 . S
C2303 C2304 1.516 . S
C2304 C2303 1.516 . S
C2304 C2305 1.502 . S
C2304 C2306 1.561 . S
C2304 C2307 1.526 . S
C2305 H2289 0.959 . S
C2305 H2290 0.959 . S
C2305 H2291 0.961 . S
C2305 C2304 1.502 . S
C2306 H2292 0.960 . S
C2306 H2293 0.961 . S
C2306 H2294 0.959 . S
C2306 C2304 1.561 . S
C2307 C2304 1.526 . S
C2307 C2308 1.396 . S
C2307 C2312 1.390 . S
C2308 C2302 1.465 . S
C2308 C2307 1.396 . S
C2308 C2309 1.399 . S
C2309 H2295 0.929 . S
C2309 C2308 1.399 . S
C2309 C2310 1.385 . S
C2310 H2296 0.931 . S
C2310 C2309 1.385 . S
C2310 C2311 1.389 . S
C2311 C2310 1.389 . S
C2311 C2312 1.387 . S
C2312 H2297 0.930 . S
C2312 C2307 1.390 . S
C2312 C2311 1.387 . S
H2313 C2325 0.930 . S
H2314 C2327 0.930 . S
H2315 C2328 0.930 . S
H2316 C2332 0.959 . S
H2317 C2332 0.959 . S
H2318 C2332 0.961 . S
H2319 C2333 0.960 . S
H2320 C2333 0.961 . S
H2321 C2333 0.959 . S
H2322 C2336 0.929 . S
H2323 C2337 0.931 . S
H2324 C2339 0.930 . S
C2325 H2313 0.930 . S
C2325 C2326 1.399 . S
C2325 C2330 1.399 . S
C2326 C2325 1.399 . S
C2326 C2327 1.376 . S
C2327 H2314 0.930 . S
C2327 C2326 1.376 . S
C2327 C2328 1.388 . S
C2328 H2315 0.930 . S
C2328 C2327 1.388 . S
C2328 C2329 1.390 . S
C2329 C2328 1.390 . S
C2329 C2330 1.394 . S
C2329 C2335 1.465 . S
C2330 C2325 1.399 . S
C2330 C2329 1.394 . S
C2330 C2331 1.516 . S
C2331 C2330 1.516 . S
C2331 C2332 1.502 . S
C2331 C2333 1.561 . S
C2331 C2334 1.526 . S
C2332 H2316 0.959 . S
C2332 H2317 0.959 . S
C2332 H2318 0.961 . S
C2332 C2331 1.502 . S
C2333 H2319 0.960 . S
C2333 H2320 0.961 . S
C2333 H2321 0.959 . S
C2333 C2331 1.561 . S
C2334 C2331 1.526 . S
C2334 C2335 1.396 . S
C2334 C2339 1.390 . S
C2335 C2329 1.465 . S
C2335 C2334 1.396 . S
C2335 C2336 1.399 . S
C2336 H2322 0.929 . S
C2336 C2335 1.399 . S
C2336 C2337 1.385 . S
C2337 H2323 0.931 . S
C2337 C2336 1.385 . S
C2337 C2338 1.389 . S
C2338 C2337 1.389 . S
C2338 C2339 1.387 . S
C2339 H2324 0.930 . S
C2339 C2334 1.390 . S
C2339 C2338 1.387 . S
H2340 C2352 0.930 . S
H2341 C2354 0.930 . S
H2342 C2355 0.930 . S
H2343 C2359 0.959 . S
H2344 C2359 0.959 . S
H2345 C2359 0.961 . S
H2346 C2360 0.960 . S
H2347 C2360 0.961 . S
H2348 C2360 0.959 . S
H2349 C2363 0.929 . S
H2350 C2364 0.931 . S
H2351 C2366 0.930 . S
C2352 H2340 0.930 . S
C2352 C2353 1.399 . S
C2352 C2357 1.399 . S
C2353 C2352 1.399 . S
C2353 C2354 1.376 . S
C2354 H2341 0.930 . S
C2354 C2353 1.376 . S
C2354 C2355 1.388 . S
C2355 H2342 0.930 . S
C2355 C2354 1.388 . S
C2355 C2356 1.390 . S
C2356 C2355 1.390 . S
C2356 C2357 1.394 . S
C2356 C2362 1.465 . S
C2357 C2352 1.399 . S
C2357 C2356 1.394 . S
C2357 C2358 1.516 . S
C2358 C2357 1.516 . S
C2358 C2359 1.502 . S
C2358 C2360 1.561 . S
C2358 C2361 1.526 . S
C2359 H2343 0.959 . S
C2359 H2344 0.959 . S
C2359 H2345 0.961 . S
C2359 C2358 1.502 . S
C2360 H2346 0.960 . S
C2360 H2347 0.961 . S
C2360 H2348 0.959 . S
C2360 C2358 1.561 . S
C2361 C2358 1.526 . S
C2361 C2362 1.396 . S
C2361 C2366 1.390 . S
C2362 C2356 1.465 . S
C2362 C2361 1.396 . S
C2362 C2363 1.399 . S
C2363 H2349 0.929 . S
C2363 C2362 1.399 . S
C2363 C2364 1.385 . S
C2364 H2350 0.931 . S
C2364 C2363 1.385 . S
C2364 C2365 1.389 . S
C2365 C2364 1.389 . S
C2365 C2366 1.387 . S
C2366 H2351 0.930 . S
C2366 C2361 1.390 . S
C2366 C2365 1.387 . S
H2367 C2379 0.930 . S
H2368 C2381 0.930 . S
H2369 C2382 0.930 . S
H2370 C2386 0.959 . S
H2371 C2386 0.959 . S
H2372 C2386 0.961 . S
H2373 C2387 0.960 . S
H2374 C2387 0.961 . S
H2375 C2387 0.959 . S
H2376 C2390 0.929 . S
H2377 C2391 0.931 . S
H2378 C2393 0.930 . S
C2379 H2367 0.930 . S
C2379 C2380 1.399 . S
C2379 C2384 1.399 . S
C2380 C2379 1.399 . S
C2380 C2381 1.376 . S
C2381 H2368 0.930 . S
C2381 C2380 1.376 . S
C2381 C2382 1.388 . S
C2382 H2369 0.930 . S
C2382 C2381 1.388 . S
C2382 C2383 1.390 . S
C2383 C2382 1.390 . S
C2383 C2384 1.394 . S
C2383 C2389 1.465 . S
C2384 C2379 1.399 . S
C2384 C2383 1.394 . S
C2384 C2385 1.516 . S
C2385 C2384 1.516 . S
C2385 C2386 1.502 . S
C2385 C2387 1.561 . S
C2385 C2388 1.526 . S
C2386 H2370 0.959 . S
C2386 H2371 0.959 . S
C2386 H2372 0.961 . S
C2386 C2385 1.502 . S
C2387 H2373 0.960 . S
C2387 H2374 0.961 . S
C2387 H2375 0.959 . S
C2387 C2385 1.561 . S
C2388 C2385 1.526 . S
C2388 C2389 1.396 . S
C2388 C2393 1.390 . S
C2389 C2383 1.465 . S
C2389 C2388 1.396 . S
C2389 C2390 1.399 . S
C2390 H2376 0.929 . S
C2390 C2389 1.399 . S
C2390 C2391 1.385 . S
C2391 H2377 0.931 . S
C2391 C2390 1.385 . S
C2391 C2392 1.389 . S
C2392 C2391 1.389 . S
C2392 C2393 1.387 . S
C2393 H2378 0.930 . S
C2393 C2388 1.390 . S
C2393 C2392 1.387 . S
H2394 C2406 0.930 . S
H2395 C2408 0.930 . S
H2396 C2409 0.930 . S
H2397 C2413 0.959 . S
H2398 C2413 0.959 . S
H2399 C2413 0.961 . S
H2400 C2414 0.960 . S
H2401 C2414 0.961 . S
H2402 C2414 0.959 . S
H2403 C2417 0.929 . S
H2404 C2418 0.931 . S
H2405 C2420 0.930 . S
C2406 H2394 0.930 . S
C2406 C2407 1.399 . S
C2406 C2411 1.399 . S
C2407 C2406 1.399 . S
C2407 C2408 1.376 . S
C2408 H2395 0.930 . S
C2408 C2407 1.376 . S
C2408 C2409 1.388 . S
C2409 H2396 0.930 . S
C2409 C2408 1.388 . S
C2409 C2410 1.390 . S
C2410 C2409 1.390 . S
C2410 C2411 1.394 . S
C2410 C2416 1.465 . S
C2411 C2406 1.399 . S
C2411 C2410 1.394 . S
C2411 C2412 1.516 . S
C2412 C2411 1.516 . S
C2412 C2413 1.502 . S
C2412 C2414 1.561 . S
C2412 C2415 1.526 . S
C2413 H2397 0.959 . S
C2413 H2398 0.959 . S
C2413 H2399 0.961 . S
C2413 C2412 1.502 . S
C2414 H2400 0.960 . S
C2414 H2401 0.961 . S
C2414 H2402 0.959 . S
C2414 C2412 1.561 . S
C2415 C2412 1.526 . S
C2415 C2416 1.396 . S
C2415 C2420 1.390 . S
C2416 C2410 1.465 . S
C2416 C2415 1.396 . S
C2416 C2417 1.399 . S
C2417 H2403 0.929 . S
C2417 C2416 1.399 . S
C2417 C2418 1.385 . S
C2418 H2404 0.931 . S
C2418 C2417 1.385 . S
C2418 C2419 1.389 . S
C2419 C2418 1.389 . S
C2419 C2420 1.387 . S
C2420 H2405 0.930 . S
C2420 C2415 1.390 . S
C2420 C2419 1.387 . S
H2421 C2433 0.930 . S
H2422 C2435 0.930 . S
H2423 C2436 0.930 . S
H2424 C2440 0.959 . S
H2425 C2440 0.959 . S
H2426 C2440 0.961 . S
H2427 C2441 0.960 . S
H2428 C2441 0.961 . S
H2429 C2441 0.959 . S
H2430 C2444 0.929 . S
H2431 C2445 0.931 . S
H2432 C2447 0.930 . S
C2433 H2421 0.930 . S
C2433 C2434 1.399 . S
C2433 C2438 1.399 . S
C2434 C2433 1.399 . S
C2434 C2435 1.376 . S
C2435 H2422 0.930 . S
C2435 C2434 1.376 . S
C2435 C2436 1.388 . S
C2436 H2423 0.930 . S
C2436 C2435 1.388 . S
C2436 C2437 1.390 . S
C2437 C2436 1.390 . S
C2437 C2438 1.394 . S
C2437 C2443 1.465 . S
C2438 C2433 1.399 . S
C2438 C2437 1.394 . S
C2438 C2439 1.516 . S
C2439 C2438 1.516 . S
C2439 C2440 1.502 . S
C2439 C2441 1.561 . S
C2439 C2442 1.526 . S
C2440 H2424 0.959 . S
C2440 H2425 0.959 . S
C2440 H2426 0.961 . S
C2440 C2439 1.502 . S
C2441 H2427 0.960 . S
C2441 H2428 0.961 . S
C2441 H2429 0.959 . S
C2441 C2439 1.561 . S
C2442 C2439 1.526 . S
C2442 C2443 1.396 . S
C2442 C2447 1.390 . S
C2443 C2437 1.465 . S
C2443 C2442 1.396 . S
C2443 C2444 1.399 . S
C2444 H2430 0.929 . S
C2444 C2443 1.399 . S
C2444 C2445 1.385 . S
C2445 H2431 0.931 . S
C2445 C2444 1.385 . S
C2445 C2446 1.389 . S
C2446 C2445 1.389 . S
C2446 C2447 1.387 . S
C2447 H2432 0.930 . S
C2447 C2442 1.390 . S
C2447 C2446 1.387 . S
H2448 C2460 0.930 . S
H2449 C2462 0.930 . S
H2450 C2463 0.930 . S
H2451 C2467 0.959 . S
H2452 C2467 0.959 . S
H2453 C2467 0.961 . S
H2454 C2468 0.960 . S
H2455 C2468 0.961 . S
H2456 C2468 0.959 . S
H2457 C2471 0.929 . S
H2458 C2472 0.931 . S
H2459 C2474 0.930 . S
C2460 H2448 0.930 . S
C2460 C2461 1.399 . S
C2460 C2465 1.399 . S
C2461 C2460 1.399 . S
C2461 C2462 1.376 . S
C2462 H2449 0.930 . S
C2462 C2461 1.376 . S
C2462 C2463 1.388 . S
C2463 H2450 0.930 . S
C2463 C2462 1.388 . S
C2463 C2464 1.390 . S
C2464 C2463 1.390 . S
C2464 C2465 1.394 . S
C2464 C2470 1.465 . S
C2465 C2460 1.399 . S
C2465 C2464 1.394 . S
C2465 C2466 1.516 . S
C2466 C2465 1.516 . S
C2466 C2467 1.502 . S
C2466 C2468 1.561 . S
C2466 C2469 1.526 . S
C2467 H2451 0.959 . S
C2467 H2452 0.959 . S
C2467 H2453 0.961 . S
C2467 C2466 1.502 . S
C2468 H2454 0.960 . S
C2468 H2455 0.961 . S
C2468 H2456 0.959 . S
C2468 C2466 1.561 . S
C2469 C2466 1.526 . S
C2469 C2470 1.396 . S
C2469 C2474 1.390 . S
C2470 C2464 1.465 . S
C2470 C2469 1.396 . S
C2470 C2471 1.399 . S
C2471 H2457 0.929 . S
C2471 C2470 1.399 . S
C2471 C2472 1.385 . S
C2472 H2458 0.931 . S
C2472 C2471 1.385 . S
C2472 C2473 1.389 . S
C2473 C2472 1.389 . S
C2473 C2474 1.387 . S
C2474 H2459 0.930 . S
C2474 C2469 1.390 . S
C2474 C2473 1.387 . S
H2475 C2487 0.930 . S
H2476 C2489 0.930 . S
H2477 C2490 0.930 . S
H2478 C2494 0.959 . S
H2479 C2494 0.959 . S
H2480 C2494 0.961 . S
H2481 C2495 0.960 . S
H2482 C2495 0.961 . S
H2483 C2495 0.959 . S
H2484 C2498 0.929 . S
H2485 C2499 0.931 . S
H2486 C2501 0.930 . S
C2487 H2475 0.930 . S
C2487 C2488 1.399 . S
C2487 C2492 1.399 . S
C2488 C2487 1.399 . S
C2488 C2489 1.376 . S
C2489 H2476 0.930 . S
C2489 C2488 1.376 . S
C2489 C2490 1.388 . S
C2490 H2477 0.930 . S
C2490 C2489 1.388 . S
C2490 C2491 1.390 . S
C2491 C2490 1.390 . S
C2491 C2492 1.394 . S
C2491 C2497 1.465 . S
C2492 C2487 1.399 . S
C2492 C2491 1.394 . S
C2492 C2493 1.516 . S
C2493 C2492 1.516 . S
C2493 C2494 1.502 . S
C2493 C2495 1.561 . S
C2493 C2496 1.526 . S
C2494 H2478 0.959 . S
C2494 H2479 0.959 . S
C2494 H2480 0.961 . S
C2494 C2493 1.502 . S
C2495 H2481 0.960 . S
C2495 H2482 0.961 . S
C2495 H2483 0.959 . S
C2495 C2493 1.561 . S
C2496 C2493 1.526 . S
C2496 C2497 1.396 . S
C2496 C2501 1.390 . S
C2497 C2491 1.465 . S
C2497 C2496 1.396 . S
C2497 C2498 1.399 . S
C2498 H2484 0.929 . S
C2498 C2497 1.399 . S
C2498 C2499 1.385 . S
C2499 H2485 0.931 . S
C2499 C2498 1.385 . S
C2499 C2500 1.389 . S
C2500 C2499 1.389 . S
C2500 C2501 1.387 . S
C2501 H2486 0.930 . S
C2501 C2496 1.390 . S
C2501 C2500 1.387 . S
H2502 C2514 0.930 . S
H2503 C2516 0.930 . S
H2504 C2517 0.930 . S
H2505 C2521 0.959 . S
H2506 C2521 0.959 . S
H2507 C2521 0.961 . S
H2508 C2522 0.960 . S
H2509 C2522 0.961 . S
H2510 C2522 0.959 . S
H2511 C2525 0.929 . S
H2512 C2526 0.931 . S
H2513 C2528 0.930 . S
C2514 H2502 0.930 . S
C2514 C2515 1.399 . S
C2514 C2519 1.399 . S
C2515 C2514 1.399 . S
C2515 C2516 1.376 . S
C2516 H2503 0.930 . S
C2516 C2515 1.376 . S
C2516 C2517 1.388 . S
C2517 H2504 0.930 . S
C2517 C2516 1.388 . S
C2517 C2518 1.390 . S
C2518 C2517 1.390 . S
C2518 C2519 1.394 . S
C2518 C2524 1.465 . S
C2519 C2514 1.399 . S
C2519 C2518 1.394 . S
C2519 C2520 1.516 . S
C2520 C2519 1.516 . S
C2520 C2521 1.502 . S
C2520 C2522 1.561 . S
C2520 C2523 1.526 . S
C2521 H2505 0.959 . S
C2521 H2506 0.959 . S
C2521 H2507 0.961 . S
C2521 C2520 1.502 . S
C2522 H2508 0.960 . S
C2522 H2509 0.961 . S
C2522 H2510 0.959 . S
C2522 C2520 1.561 . S
C2523 C2520 1.526 . S
C2523 C2524 1.396 . S
C2523 C2528 1.390 . S
C2524 C2518 1.465 . S
C2524 C2523 1.396 . S
C2524 C2525 1.399 . S
C2525 H2511 0.929 . S
C2525 C2524 1.399 . S
C2525 C2526 1.385 . S
C2526 H2512 0.931 . S
C2526 C2525 1.385 . S
C2526 C2527 1.389 . S
C2527 C2526 1.389 . S
C2527 C2528 1.387 . S
C2528 H2513 0.930 . S
C2528 C2523 1.390 . S
C2528 C2527 1.387 . S
H2529 C2541 0.930 . S
H2530 C2543 0.930 . S
H2531 C2544 0.930 . S
H2532 C2548 0.959 . S
H2533 C2548 0.959 . S
H2534 C2548 0.961 . S
H2535 C2549 0.960 . S
H2536 C2549 0.961 . S
H2537 C2549 0.959 . S
H2538 C2552 0.929 . S
H2539 C2553 0.931 . S
H2540 C2555 0.930 . S
C2541 H2529 0.930 . S
C2541 C2542 1.399 . S
C2541 C2546 1.399 . S
C2542 C2541 1.399 . S
C2542 C2543 1.376 . S
C2543 H2530 0.930 . S
C2543 C2542 1.376 . S
C2543 C2544 1.388 . S
C2544 H2531 0.930 . S
C2544 C2543 1.388 . S
C2544 C2545 1.390 . S
C2545 C2544 1.390 . S
C2545 C2546 1.394 . S
C2545 C2551 1.465 . S
C2546 C2541 1.399 . S
C2546 C2545 1.394 . S
C2546 C2547 1.516 . S
C2547 C2546 1.516 . S
C2547 C2548 1.502 . S
C2547 C2549 1.561 . S
C2547 C2550 1.526 . S
C2548 H2532 0.959 . S
C2548 H2533 0.959 . S
C2548 H2534 0.961 . S
C2548 C2547 1.502 . S
C2549 H2535 0.960 . S
C2549 H2536 0.961 . S
C2549 H2537 0.959 . S
C2549 C2547 1.561 . S
C2550 C2547 1.526 . S
C2550 C2551 1.396 . S
C2550 C2555 1.390 . S
C2551 C2545 1.465 . S
C2551 C2550 1.396 . S
C2551 C2552 1.399 . S
C2552 H2538 0.929 . S
C2552 C2551 1.399 . S
C2552 C2553 1.385 . S
C2553 H2539 0.931 . S
C2553 C2552 1.385 . S
C2553 C2554 1.389 . S
C2554 C2553 1.389 . S
C2554 C2555 1.387 . S
C2555 H2540 0.930 . S
C2555 C2550 1.390 . S
C2555 C2554 1.387 . S
H2556 C2568 0.930 . S
H2557 C2570 0.930 . S
H2558 C2571 0.930 . S
H2559 C2575 0.959 . S
H2560 C2575 0.959 . S
H2561 C2575 0.961 . S
H2562 C2576 0.960 . S
H2563 C2576 0.961 . S
H2564 C2576 0.959 . S
H2565 C2579 0.929 . S
H2566 C2580 0.931 . S
H2567 C2582 0.930 . S
C2568 H2556 0.930 . S
C2568 C2569 1.399 . S
C2568 C2573 1.399 . S
C2569 C2568 1.399 . S
C2569 C2570 1.376 . S
C2570 H2557 0.930 . S
C2570 C2569 1.376 . S
C2570 C2571 1.388 . S
C2571 H2558 0.930 . S
C2571 C2570 1.388 . S
C2571 C2572 1.390 . S
C2572 C2571 1.390 . S
C2572 C2573 1.394 . S
C2572 C2578 1.465 . S
C2573 C2568 1.399 . S
C2573 C2572 1.394 . S
C2573 C2574 1.516 . S
C2574 C2573 1.516 . S
C2574 C2575 1.502 . S
C2574 C2576 1.561 . S
C2574 C2577 1.526 . S
C2575 H2559 0.959 . S
C2575 H2560 0.959 . S
C2575 H2561 0.961 . S
C2575 C2574 1.502 . S
C2576 H2562 0.960 . S
C2576 H2563 0.961 . S
C2576 H2564 0.959 . S
C2576 C2574 1.561 . S
C2577 C2574 1.526 . S
C2577 C2578 1.396 . S
C2577 C2582 1.390 . S
C2578 C2572 1.465 . S
C2578 C2577 1.396 . S
C2578 C2579 1.399 . S
C2579 H2565 0.929 . S
C2579 C2578 1.399 . S
C2579 C2580 1.385 . S
C2580 H2566 0.931 . S
C2580 C2579 1.385 . S
C2580 C2581 1.389 . S
C2581 C2580 1.389 . S
C2581 C2582 1.387 . S
C2582 H2567 0.930 . S
C2582 C2577 1.390 . S
C2582 C2581 1.387 . S
H2583 C2595 0.930 . S
H2584 C2597 0.930 . S
H2585 C2598 0.930 . S
H2586 C2602 0.959 . S
H2587 C2602 0.959 . S
H2588 C2602 0.961 . S
H2589 C2603 0.960 . S
H2590 C2603 0.961 . S
H2591 C2603 0.959 . S
H2592 C2606 0.929 . S
H2593 C2607 0.931 . S
H2594 C2609 0.930 . S
C2595 H2583 0.930 . S
C2595 C2596 1.399 . S
C2595 C2600 1.399 . S
C2596 C2595 1.399 . S
C2596 C2597 1.376 . S
C2597 H2584 0.930 . S
C2597 C2596 1.376 . S
C2597 C2598 1.388 . S
C2598 H2585 0.930 . S
C2598 C2597 1.388 . S
C2598 C2599 1.390 . S
C2599 C2598 1.390 . S
C2599 C2600 1.394 . S
C2599 C2605 1.465 . S
C2600 C2595 1.399 . S
C2600 C2599 1.394 . S
C2600 C2601 1.516 . S
C2601 C2600 1.516 . S
C2601 C2602 1.502 . S
C2601 C2603 1.561 . S
C2601 C2604 1.526 . S
C2602 H2586 0.959 . S
C2602 H2587 0.959 . S
C2602 H2588 0.961 . S
C2602 C2601 1.502 . S
C2603 H2589 0.960 . S
C2603 H2590 0.961 . S
C2603 H2591 0.959 . S
C2603 C2601 1.561 . S
C2604 C2601 1.526 . S
C2604 C2605 1.396 . S
C2604 C2609 1.390 . S
C2605 C2599 1.465 . S
C2605 C2604 1.396 . S
C2605 C2606 1.399 . S
C2606 H2592 0.929 . S
C2606 C2605 1.399 . S
C2606 C2607 1.385 . S
C2607 H2593 0.931 . S
C2607 C2606 1.385 . S
C2607 C2608 1.389 . S
C2608 C2607 1.389 . S
C2608 C2609 1.387 . S
C2609 H2594 0.930 . S
C2609 C2604 1.390 . S
C2609 C2608 1.387 . S
H2610 C2622 0.930 . S
H2611 C2624 0.930 . S
H2612 C2625 0.930 . S
H2613 C2629 0.959 . S
H2614 C2629 0.959 . S
H2615 C2629 0.961 . S
H2616 C2630 0.960 . S
H2617 C2630 0.961 . S
H2618 C2630 0.959 . S
H2619 C2633 0.929 . S
H2620 C2634 0.931 . S
H2621 C2636 0.930 . S
C2622 H2610 0.930 . S
C2622 C2623 1.399 . S
C2622 C2627 1.399 . S
C2623 C2622 1.399 . S
C2623 C2624 1.376 . S
C2624 H2611 0.930 . S
C2624 C2623 1.376 . S
C2624 C2625 1.388 . S
C2625 H2612 0.930 . S
C2625 C2624 1.388 . S
C2625 C2626 1.390 . S
C2626 C2625 1.390 . S
C2626 C2627 1.394 . S
C2626 C2632 1.465 . S
C2627 C2622 1.399 . S
C2627 C2626 1.394 . S
C2627 C2628 1.516 . S
C2628 C2627 1.516 . S
C2628 C2629 1.502 . S
C2628 C2630 1.561 . S
C2628 C2631 1.526 . S
C2629 H2613 0.959 . S
C2629 H2614 0.959 . S
C2629 H2615 0.961 . S
C2629 C2628 1.502 . S
C2630 H2616 0.960 . S
C2630 H2617 0.961 . S
C2630 H2618 0.959 . S
C2630 C2628 1.561 . S
C2631 C2628 1.526 . S
C2631 C2632 1.396 . S
C2631 C2636 1.390 . S
C2632 C2626 1.465 . S
C2632 C2631 1.396 . S
C2632 C2633 1.399 . S
C2633 H2619 0.929 . S
C2633 C2632 1.399 . S
C2633 C2634 1.385 . S
C2634 H2620 0.931 . S
C2634 C2633 1.385 . S
C2634 C2635 1.389 . S
C2635 C2634 1.389 . S
C2635 C2636 1.387 . S
C2636 H2621 0.930 . S
C2636 C2631 1.390 . S
C2636 C2635 1.387 . S
H2637 C2649 0.930 . S
H2638 C2651 0.930 . S
H2639 C2652 0.930 . S
H2640 C2656 0.959 . S
H2641 C2656 0.959 . S
H2642 C2656 0.961 . S
H2643 C2657 0.960 . S
H2644 C2657 0.961 . S
H2645 C2657 0.959 . S
H2646 C2660 0.929 1_554 S
H2647 C2661 0.931 . S
H2648 C2663 0.930 . S
C2649 H2637 0.930 . S
C2649 C2650 1.399 1_556 S
C2649 C2654 1.399 . S
C2650 C2649 1.399 1_554 S
C2650 C2651 1.376 . S
C2651 H2638 0.930 . S
C2651 C2650 1.376 . S
C2651 C2652 1.388 . S
C2652 H2639 0.930 . S
C2652 C2651 1.388 . S
C2652 C2653 1.390 1_554 S
C2653 C2652 1.390 1_556 S
C2653 C2654 1.394 . S
C2653 C2659 1.465 . S
C2654 C2649 1.399 . S
C2654 C2653 1.394 . S
C2654 C2655 1.516 . S
C2655 C2654 1.516 . S
C2655 C2656 1.502 . S
C2655 C2657 1.561 . S
C2655 C2658 1.526 . S
C2656 H2640 0.959 . S
C2656 H2641 0.959 . S
C2656 H2642 0.961 . S
C2656 C2655 1.502 . S
C2657 H2643 0.960 . S
C2657 H2644 0.961 . S
C2657 H2645 0.959 . S
C2657 C2655 1.561 . S
C2658 C2655 1.526 . S
C2658 C2659 1.396 . S
C2658 C2663 1.390 . S
C2659 C2653 1.465 . S
C2659 C2658 1.396 . S
C2659 C2660 1.399 . S
C2660 H2646 0.929 1_556 S
C2660 C2659 1.399 . S
C2660 C2661 1.385 . S
C2661 H2647 0.931 . S
C2661 C2660 1.385 . S
C2661 C2662 1.389 . S
C2662 C2661 1.389 . S
C2662 C2663 1.387 . S
C2663 H2648 0.930 . S
C2663 C2658 1.390 . S
C2663 C2662 1.387 . S
H2664 C2676 0.930 1_554 S
H2665 C2678 0.930 . S
H2666 C2679 0.930 . S
H2667 C2683 0.959 . S
H2668 C2683 0.959 . S
H2669 C2683 0.961 1_554 S
H2670 C2684 0.956 1_554 S
H2671 C2684 0.960 1_554 S
H2672 C2684 0.961 . S
H2673 C2687 0.929 . S
H2674 C2688 0.931 . S
H2675 C2690 0.930 . S
C2676 H2664 0.930 1_556 S
C2676 C2677 1.399 . S
C2676 C2681 1.399 . S
C2677 C2676 1.399 . S
C2677 C2678 1.376 . S
C2678 H2665 0.930 . S
C2678 C2677 1.376 . S
C2678 C2679 1.388 . S
C2679 H2666 0.930 . S
C2679 C2678 1.388 . S
C2679 C2680 1.390 . S
C2680 C2679 1.390 . S
C2680 C2681 1.394 . S
C2680 C2686 1.465 . S
C2681 C2676 1.399 . S
C2681 C2680 1.394 . S
C2681 C2682 1.516 . S
C2682 C2681 1.516 . S
C2682 C2683 1.502 . S
C2682 C2684 1.564 . S
C2682 C2685 1.526 . S
C2683 H2667 0.959 . S
C2683 H2668 0.959 . S
C2683 H2669 0.961 1_556 S
C2683 C2682 1.502 . S
C2684 H2670 0.956 1_556 S
C2684 H2671 0.960 1_556 S
C2684 H2672 0.961 . S
C2684 C2682 1.564 . S
C2685 C2682 1.526 . S
C2685 C2686 1.396 . S
C2685 C2690 1.390 . S
C2686 C2680 1.465 . S
C2686 C2685 1.396 . S
C2686 C2687 1.399 . S
C2687 H2673 0.929 . S
C2687 C2686 1.399 . S
C2687 C2688 1.385 . S
C2688 H2674 0.931 . S
C2688 C2687 1.385 . S
C2688 C2689 1.389 . S
C2689 C2688 1.389 . S
C2689 C2690 1.387 . S
C2690 H2675 0.930 . S
C2690 C2685 1.390 . S
C2690 C2689 1.387 . S
H2691 C2703 0.930 . S
H2692 C2705 0.930 . S
H2693 C2706 0.930 . S
H2694 C2710 0.959 1_554 S
H2695 C2710 0.959 . S
H2696 C2710 0.961 . S
H2697 C2711 0.960 . S
H2698 C2711 0.961 . S
H2699 C2711 0.959 . S
H2700 C2714 0.929 . S
H2701 C2715 0.930 1_554 S
H2702 C2717 0.930 . S
C2703 H2691 0.930 . S
C2703 C2704 1.399 . S
C2703 C2708 1.399 . S
C2704 C2703 1.399 . S
C2704 C2705 1.376 . S
C2705 H2692 0.930 . S
C2705 C2704 1.376 . S
C2705 C2706 1.388 . S
C2706 H2693 0.930 . S
C2706 C2705 1.388 . S
C2706 C2707 1.390 . S
C2707 C2706 1.390 . S
C2707 C2708 1.394 . S
C2707 C2713 1.465 . S
C2708 C2703 1.399 . S
C2708 C2707 1.394 . S
C2708 C2709 1.516 1_554 S
C2709 C2708 1.516 1_556 S
C2709 C2710 1.502 . S
C2709 C2711 1.561 . S
C2709 C2712 1.526 . S
C2710 H2694 0.959 1_556 S
C2710 H2695 0.959 . S
C2710 H2696 0.961 . S
C2710 C2709 1.502 . S
C2711 H2697 0.960 . S
C2711 H2698 0.961 . S
C2711 H2699 0.959 . S
C2711 C2709 1.561 . S
C2712 C2709 1.526 . S
C2712 C2713 1.396 1_556 S
C2712 C2717 1.390 . S
C2713 C2707 1.465 . S
C2713 C2712 1.396 1_554 S
C2713 C2714 1.399 . S
C2714 H2700 0.929 . S
C2714 C2713 1.399 . S
C2714 C2715 1.376 1_554 S
C2715 H2701 0.930 1_556 S
C2715 C2714 1.376 1_556 S
C2715 C2716 1.399 . S
C2716 C2715 1.399 . S
C2716 C2717 1.387 . S
C2717 H2702 0.930 . S
C2717 C2712 1.390 . S
C2717 C2716 1.387 . S
H2718 C2730 0.930 . S
H2719 C2732 0.930 . S
H2720 C2733 0.930 . S
H2721 C2737 0.959 . S
H2722 C2737 0.959 . S
H2723 C2737 0.961 . S
H2724 C2738 0.960 . S
H2725 C2738 0.961 . S
H2726 C2738 0.959 . S
H2727 C2741 0.878 1_554 S
H2728 C2742 0.931 . S
H2729 C2744 0.930 . S
C2730 H2718 0.930 . S
C2730 C2731 1.399 1_556 S
C2730 C2735 1.399 . S
C2731 C2730 1.399 1_554 S
C2731 C2732 1.376 . S
C2732 H2719 0.930 . S
C2732 C2731 1.376 . S
C2732 C2733 1.388 . S
C2733 H2720 0.930 . S
C2733 C2732 1.388 . S
C2733 C2734 1.390 1_554 S
C2734 C2733 1.390 1_556 S
C2734 C2735 1.394 . S
C2734 C2740 1.465 . S
C2735 C2730 1.399 . S
C2735 C2734 1.394 . S
C2735 C2736 1.516 . S
C2736 C2735 1.516 . S
C2736 C2737 1.502 . S
C2736 C2738 1.561 . S
C2736 C2739 1.526 . S
C2737 H2721 0.959 . S
C2737 H2722 0.959 . S
C2737 H2723 0.961 . S
C2737 C2736 1.502 . S
C2738 H2724 0.960 . S
C2738 H2725 0.961 . S
C2738 H2726 0.959 . S
C2738 C2736 1.561 . S
C2739 C2736 1.526 . S
C2739 C2740 1.396 . S
C2739 C2744 1.390 . S
C2740 C2734 1.465 . S
C2740 C2739 1.396 . S
C2740 C2741 1.399 . S
C2741 H2727 0.878 1_556 S
C2741 C2740 1.399 . S
C2741 C2742 1.385 . S
C2742 H2728 0.931 . S
C2742 C2741 1.385 . S
C2742 C2743 1.389 . S
C2743 C2742 1.389 . S
C2743 C2744 1.387 . S
C2744 H2729 0.930 . S
C2744 C2739 1.390 . S
C2744 C2743 1.387 . S
H2745 C2757 0.930 . S
H2746 C2759 0.930 . S
H2747 C2760 0.930 . S
H2748 C2764 0.959 . S
H2749 C2764 0.959 . S
H2750 C2764 0.961 . S
H2751 C2765 0.960 . S
H2752 C2765 0.961 . S
H2753 C2765 0.959 . S
H2754 C2768 0.929 . S
H2755 C2769 0.931 . S
H2756 C2771 0.930 . S
C2757 H2745 0.930 . S
C2757 C2758 1.399 . S
C2757 C2762 1.399 . S
C2758 C2757 1.399 . S
C2758 C2759 1.376 . S
C2759 H2746 0.930 . S
C2759 C2758 1.376 . S
C2759 C2760 1.388 . S
C2760 H2747 0.930 . S
C2760 C2759 1.388 . S
C2760 C2761 1.390 . S
C2761 C2760 1.390 . S
C2761 C2762 1.394 . S
C2761 C2767 1.465 . S
C2762 C2757 1.399 . S
C2762 C2761 1.394 . S
C2762 C2763 1.516 . S
C2763 C2762 1.516 . S
C2763 C2764 1.502 . S
C2763 C2765 1.561 . S
C2763 C2766 1.526 . S
C2764 H2748 0.959 . S
C2764 H2749 0.959 . S
C2764 H2750 0.961 . S
C2764 C2763 1.502 . S
C2765 H2751 0.960 . S
C2765 H2752 0.961 . S
C2765 H2753 0.959 . S
C2765 C2763 1.561 . S
C2766 C2763 1.526 . S
C2766 C2767 1.396 . S
C2766 C2771 1.390 . S
C2767 C2761 1.465 . S
C2767 C2766 1.396 . S
C2767 C2768 1.399 . S
C2768 H2754 0.929 . S
C2768 C2767 1.399 . S
C2768 C2769 1.385 . S
C2769 H2755 0.931 . S
C2769 C2768 1.385 . S
C2769 C2770 1.389 . S
C2770 C2769 1.389 . S
C2770 C2771 1.387 . S
C2771 H2756 0.930 . S
C2771 C2766 1.390 . S
C2771 C2770 1.387 . S
H2772 C2784 0.930 . S
H2773 C2786 0.930 . S
H2774 C2787 0.920 1_556 S
H2775 C2791 0.959 . S
H2776 C2791 0.959 . S
H2777 C2791 0.961 1_554 S
H2778 C2792 0.960 . S
H2779 C2792 0.961 . S
H2780 C2792 0.959 . S
H2781 C2795 0.929 . S
H2782 C2796 0.931 . S
H2783 C2798 0.930 . S
C2784 H2772 0.930 . S
C2784 C2785 1.399 . S
C2784 C2789 1.399 . S
C2785 C2784 1.399 . S
C2785 C2786 1.376 . S
C2786 H2773 0.930 . S
C2786 C2785 1.376 . S
C2786 C2787 1.405 . S
C2787 H2774 0.920 1_554 S
C2787 C2786 1.405 . S
C2787 C2788 1.384 1_554 S
C2788 C2787 1.384 1_556 S
C2788 C2789 1.394 1_556 S
C2788 C2794 1.465 . S
C2789 C2784 1.399 . S
C2789 C2788 1.394 1_554 S
C2789 C2790 1.516 . S
C2790 C2789 1.516 . S
C2790 C2791 1.502 1_554 S
C2790 C2792 1.561 . S
C2790 C2793 1.526 1_554 S
C2791 H2775 0.959 . S
C2791 H2776 0.959 . S
C2791 H2777 0.961 1_556 S
C2791 C2790 1.502 1_556 S
C2792 H2778 0.960 . S
C2792 H2779 0.961 . S
C2792 H2780 0.959 . S
C2792 C2790 1.561 . S
C2793 C2790 1.526 1_556 S
C2793 C2794 1.396 . S
C2793 C2798 1.390 . S
C2794 C2788 1.465 . S
C2794 C2793 1.396 . S
C2794 C2795 1.399 . S
C2795 H2781 0.929 . S
C2795 C2794 1.399 . S
C2795 C2796 1.385 . S
C2796 H2782 0.931 . S
C2796 C2795 1.385 . S
C2796 C2797 1.389 . S
C2797 C2796 1.389 . S
C2797 C2798 1.387 . S
C2798 H2783 0.930 . S
C2798 C2793 1.390 . S
C2798 C2797 1.387 . S
H2799 C2811 0.930 . S
H2800 C2813 0.930 . S
H2801 C2814 0.930 . S
H2802 C2818 0.959 . S
H2803 C2818 0.959 . S
H2804 C2818 0.961 . S
H2805 C2819 0.960 . S
H2806 C2819 0.961 . S
H2807 C2819 0.959 . S
H2808 C2822 0.929 . S
H2809 C2823 0.931 . S
H2810 C2825 0.930 . S
C2811 H2799 0.930 . S
C2811 C2812 1.399 . S
C2811 C2816 1.399 . S
C2812 C2811 1.399 . S
C2812 C2813 1.376 . S
C2813 H2800 0.930 . S
C2813 C2812 1.376 . S
C2813 C2814 1.388 . S
C2814 H2801 0.930 . S
C2814 C2813 1.388 . S
C2814 C2815 1.390 . S
C2815 C2814 1.390 . S
C2815 C2816 1.394 . S
C2815 C2821 1.465 . S
C2816 C2811 1.399 . S
C2816 C2815 1.394 . S
C2816 C2817 1.516 . S
C2817 C2816 1.516 . S
C2817 C2818 1.502 . S
C2817 C2819 1.561 . S
C2817 C2820 1.526 . S
C2818 H2802 0.959 . S
C2818 H2803 0.959 . S
C2818 H2804 0.961 . S
C2818 C2817 1.502 . S
C2819 H2805 0.960 . S
C2819 H2806 0.961 . S
C2819 H2807 0.959 . S
C2819 C2817 1.561 . S
C2820 C2817 1.526 . S
C2820 C2821 1.396 . S
C2820 C2825 1.390 . S
C2821 C2815 1.465 . S
C2821 C2820 1.396 . S
C2821 C2822 1.399 . S
C2822 H2808 0.929 . S
C2822 C2821 1.399 . S
C2822 C2823 1.385 . S
C2823 H2809 0.931 . S
C2823 C2822 1.385 . S
C2823 C2824 1.389 . S
C2824 C2823 1.389 . S
C2824 C2825 1.387 . S
C2825 H2810 0.930 . S
C2825 C2820 1.390 . S
C2825 C2824 1.387 . S
H2826 C2838 0.930 . S
H2827 C2840 0.930 . S
H2828 C2841 0.930 . S
H2829 C2845 0.959 . S
H2830 C2845 0.959 . S
H2831 C2845 0.961 . S
H2832 C2846 0.960 . S
H2833 C2846 0.961 . S
H2834 C2846 0.959 . S
H2835 C2849 0.929 . S
H2836 C2850 0.931 . S
H2837 C2852 0.930 . S
C2838 H2826 0.930 . S
C2838 C2839 1.399 . S
C2838 C2843 1.399 . S
C2839 C2838 1.399 . S
C2839 C2840 1.376 . S
C2840 H2827 0.930 . S
C2840 C2839 1.376 . S
C2840 C2841 1.388 . S
C2841 H2828 0.930 . S
C2841 C2840 1.388 . S
C2841 C2842 1.390 . S
C2842 C2841 1.390 . S
C2842 C2843 1.394 . S
C2842 C2848 1.465 . S
C2843 C2838 1.399 . S
C2843 C2842 1.394 . S
C2843 C2844 1.516 . S
C2844 C2843 1.516 . S
C2844 C2845 1.502 . S
C2844 C2846 1.561 . S
C2844 C2847 1.526 . S
C2845 H2829 0.959 . S
C2845 H2830 0.959 . S
C2845 H2831 0.961 . S
C2845 C2844 1.502 . S
C2846 H2832 0.960 . S
C2846 H2833 0.961 . S
C2846 H2834 0.959 . S
C2846 C2844 1.561 . S
C2847 C2844 1.526 . S
C2847 C2848 1.396 . S
C2847 C2852 1.390 . S
C2848 C2842 1.465 . S
C2848 C2847 1.396 . S
C2848 C2849 1.399 . S
C2849 H2835 0.929 . S
C2849 C2848 1.399 . S
C2849 C2850 1.385 . S
C2850 H2836 0.931 . S
C2850 C2849 1.385 . S
C2850 C2851 1.389 . S
C2851 C2850 1.389 . S
C2851 C2852 1.387 . S
C2852 H2837 0.930 . S
C2852 C2847 1.390 . S
C2852 C2851 1.387 . S
H2853 C2865 0.930 . S
H2854 C2867 0.930 . S
H2855 C2868 0.930 . S
H2856 C2872 0.959 . S
H2857 C2872 0.959 . S
H2858 C2872 0.961 . S
H2859 C2873 0.960 . S
H2860 C2873 0.961 . S
H2861 C2873 0.959 . S
H2862 C2876 0.929 . S
H2863 C2877 0.931 . S
H2864 C2879 0.930 . S
C2865 H2853 0.930 . S
C2865 C2866 1.399 . S
C2865 C2870 1.399 . S
C2866 C2865 1.399 . S
C2866 C2867 1.376 . S
C2867 H2854 0.930 . S
C2867 C2866 1.376 . S
C2867 C2868 1.388 . S
C2868 H2855 0.930 . S
C2868 C2867 1.388 . S
C2868 C2869 1.390 . S
C2869 C2868 1.390 . S
C2869 C2870 1.394 . S
C2869 C2875 1.465 . S
C2870 C2865 1.399 . S
C2870 C2869 1.394 . S
C2870 C2871 1.516 . S
C2871 C2870 1.516 . S
C2871 C2872 1.502 . S
C2871 C2873 1.561 . S
C2871 C2874 1.526 . S
C2872 H2856 0.959 . S
C2872 H2857 0.959 . S
C2872 H2858 0.961 . S
C2872 C2871 1.502 . S
C2873 H2859 0.960 . S
C2873 H2860 0.961 . S
C2873 H2861 0.959 . S
C2873 C2871 1.561 . S
C2874 C2871 1.526 . S
C2874 C2875 1.396 . S
C2874 C2879 1.390 . S
C2875 C2869 1.465 . S
C2875 C2874 1.396 . S
C2875 C2876 1.399 . S
C2876 H2862 0.929 . S
C2876 C2875 1.399 . S
C2876 C2877 1.385 . S
C2877 H2863 0.931 . S
C2877 C2876 1.385 . S
C2877 C2878 1.389 . S
C2878 C2877 1.389 . S
C2878 C2879 1.387 . S
C2879 H2864 0.930 . S
C2879 C2874 1.390 . S
C2879 C2878 1.387 . S
H2880 C2892 0.930 . S
H2881 C2894 0.930 . S
H2882 C2895 0.930 . S
H2883 C2899 0.959 . S
H2884 C2899 0.959 . S
H2885 C2899 0.961 . S
H2886 C2900 0.960 . S
H2887 C2900 0.961 . S
H2888 C2900 0.959 . S
H2889 C2903 0.929 . S
H2890 C2904 0.931 . S
H2891 C2906 0.930 . S
C2892 H2880 0.930 . S
C2892 C2893 1.399 . S
C2892 C2897 1.399 . S
C2893 C2892 1.399 . S
C2893 C2894 1.376 . S
C2894 H2881 0.930 . S
C2894 C2893 1.376 . S
C2894 C2895 1.388 . S
C2895 H2882 0.930 . S
C2895 C2894 1.388 . S
C2895 C2896 1.390 . S
C2896 C2895 1.390 . S
C2896 C2897 1.394 . S
C2896 C2902 1.465 . S
C2897 C2892 1.399 . S
C2897 C2896 1.394 . S
C2897 C2898 1.516 . S
C2898 C2897 1.516 . S
C2898 C2899 1.502 . S
C2898 C2900 1.561 . S
C2898 C2901 1.526 . S
C2899 H2883 0.959 . S
C2899 H2884 0.959 . S
C2899 H2885 0.961 . S
C2899 C2898 1.502 . S
C2900 H2886 0.960 . S
C2900 H2887 0.961 . S
C2900 H2888 0.959 . S
C2900 C2898 1.561 . S
C2901 C2898 1.526 . S
C2901 C2902 1.396 . S
C2901 C2906 1.390 . S
C2902 C2896 1.465 . S
C2902 C2901 1.396 . S
C2902 C2903 1.399 . S
C2903 H2889 0.929 . S
C2903 C2902 1.399 . S
C2903 C2904 1.385 . S
C2904 H2890 0.931 . S
C2904 C2903 1.385 . S
C2904 C2905 1.389 . S
C2905 C2904 1.389 . S
C2905 C2906 1.387 . S
C2906 H2891 0.930 . S
C2906 C2901 1.390 . S
C2906 C2905 1.387 . S
H2907 C2919 0.930 . S
H2908 C2921 0.955 . S
H2909 C2922 0.930 . S
H2910 C2926 0.959 . S
H2911 C2926 0.959 . S
H2912 C2926 0.961 . S
H2913 C2927 0.960 . S
H2914 C2927 0.961 . S
H2915 C2927 0.959 . S
H2916 C2930 0.929 . S
H2917 C2931 0.931 . S
H2918 C2933 0.930 . S
C2919 H2907 0.930 . S
C2919 C2920 1.399 . S
C2919 C2924 1.399 . S
C2920 C2919 1.399 . S
C2920 C2921 1.376 . S
C2921 H2908 0.955 . S
C2921 C2920 1.376 . S
C2921 C2922 1.388 . S
C2922 H2909 0.930 . S
C2922 C2921 1.388 . S
C2922 C2923 1.390 . S
C2923 C2922 1.390 . S
C2923 C2924 1.394 . S
C2923 C2929 1.465 . S
C2924 C2919 1.399 . S
C2924 C2923 1.394 . S
C2924 C2925 1.516 . S
C2925 C2924 1.516 . S
C2925 C2926 1.502 . S
C2925 C2927 1.561 . S
C2925 C2928 1.526 . S
C2926 H2910 0.959 . S
C2926 H2911 0.959 . S
C2926 H2912 0.961 . S
C2926 C2925 1.502 . S
C2927 H2913 0.960 . S
C2927 H2914 0.961 . S
C2927 H2915 0.959 . S
C2927 C2925 1.561 . S
C2928 C2925 1.526 . S
C2928 C2929 1.396 . S
C2928 C2933 1.390 . S
C2929 C2923 1.465 . S
C2929 C2928 1.396 . S
C2929 C2930 1.399 . S
C2930 H2916 0.929 . S
C2930 C2929 1.399 . S
C2930 C2931 1.385 . S
C2931 H2917 0.931 . S
C2931 C2930 1.385 . S
C2931 C2932 1.389 . S
C2932 C2931 1.389 . S
C2932 C2933 1.387 . S
C2933 H2918 0.930 . S
C2933 C2928 1.390 . S
C2933 C2932 1.387 . S
H2934 C2946 0.930 . S
H2935 C2948 0.930 . S
H2936 C2949 0.930 . S
H2937 C2953 0.959 . S
H2938 C2953 0.959 . S
H2939 C2953 0.961 . S
H2940 C2954 0.960 . S
H2941 C2954 0.961 . S
H2942 C2954 0.959 . S
H2943 C2957 0.929 . S
H2944 C2958 0.931 . S
H2945 C2960 0.930 . S
C2946 H2934 0.930 . S
C2946 C2947 1.399 1_655 S
C2946 C2951 1.399 . S
C2947 C2946 1.399 1_455 S
C2947 C2948 1.376 . S
C2948 H2935 0.930 . S
C2948 C2947 1.376 . S
C2948 C2949 1.388 1_455 S
C2949 H2936 0.930 . S
C2949 C2948 1.388 1_655 S
C2949 C2950 1.390 . S
C2950 C2949 1.390 . S
C2950 C2951 1.394 . S
C2950 C2956 1.465 . S
C2951 C2946 1.399 . S
C2951 C2950 1.394 . S
C2951 C2952 1.516 . S
C2952 C2951 1.516 . S
C2952 C2953 1.502 . S
C2952 C2954 1.561 . S
C2952 C2955 1.526 . S
C2953 H2937 0.959 . S
C2953 H2938 0.959 . S
C2953 H2939 0.961 . S
C2953 C2952 1.502 . S
C2954 H2940 0.960 . S
C2954 H2941 0.961 . S
C2954 H2942 0.959 . S
C2954 C2952 1.561 . S
C2955 C2952 1.526 . S
C2955 C2956 1.396 . S
C2955 C2960 1.390 . S
C2956 C2950 1.465 . S
C2956 C2955 1.396 . S
C2956 C2957 1.399 . S
C2957 H2943 0.929 . S
C2957 C2956 1.399 . S
C2957 C2958 1.385 . S
C2958 H2944 0.931 . S
C2958 C2957 1.385 . S
C2958 C2959 1.389 . S
C2959 C2958 1.389 . S
C2959 C2960 1.387 . S
C2960 H2945 0.930 . S
C2960 C2955 1.390 . S
C2960 C2959 1.387 . S
H2961 C2973 0.930 . S
H2962 C2975 0.930 . S
H2963 C2976 0.930 1_655 S
H2964 C2980 0.959 . S
H2965 C2980 0.959 . S
H2966 C2980 0.961 . S
H2967 C2981 0.960 . S
H2968 C2981 0.961 . S
H2969 C2981 0.959 . S
H2970 C2984 0.929 1_655 S
H2971 C2985 0.931 1_655 S
H2972 C2987 0.930 . S
C2973 H2961 0.930 . S
C2973 C2974 1.399 . S
C2973 C2978 1.399 . S
C2974 C2973 1.399 . S
C2974 C2975 1.376 . S
C2975 H2962 0.930 . S
C2975 C2974 1.376 . S
C2975 C2976 1.388 . S
C2976 H2963 0.930 1_455 S
C2976 C2975 1.388 . S
C2976 C2977 1.390 . S
C2977 C2976 1.390 . S
C2977 C2978 1.394 . S
C2977 C2983 1.465 . S
C2978 C2973 1.399 . S
C2978 C2977 1.394 . S
C2978 C2979 1.516 . S
C2979 C2978 1.516 . S
C2979 C2980 1.502 . S
C2979 C2981 1.561 . S
C2979 C2982 1.526 . S
C2980 H2964 0.959 . S
C2980 H2965 0.959 . S
C2980 H2966 0.961 . S
C2980 C2979 1.502 . S
C2981 H2967 0.960 . S
C2981 H2968 0.961 . S
C2981 H2969 0.959 . S
C2981 C2979 1.561 . S
C2982 C2979 1.526 . S
C2982 C2983 1.396 . S
C2982 C2987 1.390 . S
C2983 C2977 1.465 . S
C2983 C2982 1.396 . S
C2983 C2984 1.399 . S
C2984 H2970 0.929 1_455 S
C2984 C2983 1.399 . S
C2984 C2985 1.385 . S
C2985 H2971 0.931 1_455 S
C2985 C2984 1.385 . S
C2985 C2986 1.389 . S
C2986 C2985 1.389 . S
C2986 C2987 1.387 . S
C2987 H2972 0.930 . S
C2987 C2982 1.390 . S
C2987 C2986 1.387 . S
H2988 C3000 0.930 . S
H2989 C3002 0.930 . S
H2990 C3003 0.930 . S
H2991 C3007 0.959 . S
H2992 C3007 0.959 . S
H2993 C3007 0.961 . S
H2994 C3008 0.960 . S
H2995 C3008 0.961 . S
H2996 C3008 0.959 . S
H2997 C3011 0.929 . S
H2998 C3012 0.931 . S
H2999 C3014 0.930 . S
C3000 H2988 0.930 . S
C3000 C3001 1.399 . S
C3000 C3005 1.399 . S
C3001 C3000 1.399 . S
C3001 C3002 1.376 . S
C3002 H2989 0.930 . S
C3002 C3001 1.376 . S
C3002 C3003 1.388 . S
C3003 H2990 0.930 . S
C3003 C3002 1.388 . S
C3003 C3004 1.390 . S
C3004 C3003 1.390 . S
C3004 C3005 1.394 . S
C3004 C3010 1.465 . S
C3005 C3000 1.399 . S
C3005 C3004 1.394 . S
C3005 C3006 1.516 . S
C3006 C3005 1.516 . S
C3006 C3007 1.502 . S
C3006 C3008 1.561 . S
C3006 C3009 1.526 . S
C3007 H2991 0.959 . S
C3007 H2992 0.959 . S
C3007 H2993 0.961 . S
C3007 C3006 1.502 . S
C3008 H2994 0.960 . S
C3008 H2995 0.961 . S
C3008 H2996 0.959 . S
C3008 C3006 1.561 . S
C3009 C3006 1.526 . S
C3009 C3010 1.396 . S
C3009 C3014 1.390 . S
C3010 C3004 1.465 . S
C3010 C3009 1.396 . S
C3010 C3011 1.399 . S
C3011 H2997 0.929 . S
C3011 C3010 1.399 . S
C3011 C3012 1.385 . S
C3012 H2998 0.931 . S
C3012 C3011 1.385 . S
C3012 C3013 1.389 . S
C3013 C3012 1.389 . S
C3013 C3014 1.387 . S
C3014 H2999 0.930 . S
C3014 C3009 1.390 . S
C3014 C3013 1.387 . S
H3015 C3027 0.930 . S
H3016 C3029 0.930 . S
H3017 C3030 0.882 1_545 S
H3018 C3034 0.959 . S
H3019 C3034 0.959 . S
H3020 C3034 0.961 . S
H3021 C3035 0.960 . S
H3022 C3035 0.961 . S
H3023 C3035 0.959 . S
H3024 C3038 0.929 1_545 S
H3025 C3039 0.931 1_545 S
H3026 C3041 0.930 . S
C3027 H3015 0.930 . S
C3027 C3028 1.399 . S
C3027 C3032 1.399 . S
C3028 C3027 1.399 . S
C3028 C3029 1.376 . S
C3029 H3016 0.930 . S
C3029 C3028 1.376 . S
C3029 C3030 1.388 . S
C3030 H3017 0.882 1_565 S
C3030 C3029 1.388 . S
C3030 C3031 1.390 . S
C3031 C3030 1.390 . S
C3031 C3032 1.394 . S
C3031 C3037 1.465 . S
C3032 C3027 1.399 . S
C3032 C3031 1.394 . S
C3032 C3033 1.516 . S
C3033 C3032 1.516 . S
C3033 C3034 1.502 . S
C3033 C3035 1.561 . S
C3033 C3036 1.526 . S
C3034 H3018 0.959 . S
C3034 H3019 0.959 . S
C3034 H3020 0.961 . S
C3034 C3033 1.502 . S
C3035 H3021 0.960 . S
C3035 H3022 0.961 . S
C3035 H3023 0.959 . S
C3035 C3033 1.561 . S
C3036 C3033 1.526 . S
C3036 C3037 1.396 . S
C3036 C3041 1.390 . S
C3037 C3031 1.465 . S
C3037 C3036 1.396 . S
C3037 C3038 1.399 . S
C3038 H3024 0.929 1_565 S
C3038 C3037 1.399 . S
C3038 C3039 1.385 . S
C3039 H3025 0.931 1_565 S
C3039 C3038 1.385 . S
C3039 C3040 1.389 . S
C3040 C3039 1.389 . S
C3040 C3041 1.387 . S
C3041 H3026 0.930 . S
C3041 C3036 1.390 . S
C3041 C3040 1.387 . S
H3042 C3054 0.930 . S
H3043 C3056 0.930 . S
H3044 C3057 0.930 1_545 S
H3045 C3061 0.959 . S
H3046 C3061 0.959 . S
H3047 C3061 0.961 . S
H3048 C3062 0.960 . S
H3049 C3062 0.961 . S
H3050 C3062 0.959 . S
H3051 C3065 0.929 . S
H3052 C3066 0.931 . S
H3053 C3068 0.930 . S
C3054 H3042 0.930 . S
C3054 C3055 1.399 . S
C3054 C3059 1.399 . S
C3055 C3054 1.399 . S
C3055 C3056 1.376 . S
C3056 H3043 0.930 . S
C3056 C3055 1.376 . S
C3056 C3057 1.388 . S
C3057 H3044 0.930 1_565 S
C3057 C3056 1.388 . S
C3057 C3058 1.390 . S
C3058 C3057 1.390 . S
C3058 C3059 1.394 . S
C3058 C3064 1.465 . S
C3059 C3054 1.399 . S
C3059 C3058 1.394 . S
C3059 C3060 1.516 . S
C3060 C3059 1.516 . S
C3060 C3061 1.502 . S
C3060 C3062 1.561 . S
C3060 C3063 1.526 . S
C3061 H3045 0.959 . S
C3061 H3046 0.959 . S
C3061 H3047 0.961 . S
C3061 C3060 1.502 . S
C3062 H3048 0.960 . S
C3062 H3049 0.961 . S
C3062 H3050 0.959 . S
C3062 C3060 1.561 . S
C3063 C3060 1.526 . S
C3063 C3064 1.396 . S
C3063 C3068 1.390 . S
C3064 C3058 1.465 . S
C3064 C3063 1.396 . S
C3064 C3065 1.399 1_565 S
C3065 H3051 0.929 . S
C3065 C3064 1.399 1_545 S
C3065 C3066 1.385 . S
C3066 H3052 0.931 . S
C3066 C3065 1.385 . S
C3066 C3067 1.412 . S
C3067 C3066 1.412 . S
C3067 C3068 1.337 1_545 S
C3068 H3053 0.930 . S
C3068 C3063 1.390 . S
C3068 C3067 1.337 1_565 S
H3069 C3081 0.930 . S
H3070 C3083 0.930 . S
H3071 C3084 0.930 . S
H3072 C3088 0.959 . S
H3073 C3088 0.959 . S
H3074 C3088 0.961 . S
H3075 C3089 0.960 . S
H3076 C3089 0.961 . S
H3077 C3089 0.959 . S
H3078 C3092 0.929 . S
H3079 C3093 0.931 . S
H3080 C3095 0.947 . S
C3081 H3069 0.930 . S
C3081 C3082 1.399 . S
C3081 C3086 1.399 . S
C3082 C3081 1.399 . S
C3082 C3083 1.376 . S
C3083 H3070 0.930 . S
C3083 C3082 1.376 . S
C3083 C3084 1.388 . S
C3084 H3071 0.930 . S
C3084 C3083 1.388 . S
C3084 C3085 1.390 . S
C3085 C3084 1.390 . S
C3085 C3086 1.394 . S
C3085 C3091 1.465 . S
C3086 C3081 1.399 . S
C3086 C3085 1.394 . S
C3086 C3087 1.516 . S
C3087 C3086 1.516 . S
C3087 C3088 1.502 1_455 S
C3087 C3089 1.561 . S
C3087 C3090 1.526 . S
C3088 H3072 0.959 . S
C3088 H3073 0.959 . S
C3088 H3074 0.961 . S
C3088 C3087 1.502 1_655 S
C3089 H3075 0.960 . S
C3089 H3076 0.961 . S
C3089 H3077 0.959 . S
C3089 C3087 1.561 . S
C3090 C3087 1.526 . S
C3090 C3091 1.396 . S
C3090 C3095 1.395 1_455 S
C3091 C3085 1.465 . S
C3091 C3090 1.396 . S
C3091 C3092 1.399 . S
C3092 H3078 0.929 . S
C3092 C3091 1.399 . S
C3092 C3093 1.385 . S
C3093 H3079 0.931 . S
C3093 C3092 1.385 . S
C3093 C3094 1.375 1_455 S
C3094 C3093 1.375 1_655 S
C3094 C3095 1.384 . S
C3095 H3080 0.947 . S
C3095 C3090 1.395 1_655 S
C3095 C3094 1.384 . S
H3096 C3108 0.930 . S
H3097 C3110 0.930 . S
H3098 C3111 0.930 . S
H3099 C3115 0.959 . S
H3100 C3115 0.959 . S
H3101 C3115 0.961 . S
H3102 C3116 0.960 . S
H3103 C3116 0.961 . S
H3104 C3116 0.959 . S
H3105 C3119 0.929 . S
H3106 C3120 0.931 . S
H3107 C3122 0.930 . S
C3108 H3096 0.930 . S
C3108 C3109 1.399 . S
C3108 C3113 1.399 . S
C3109 C3108 1.399 . S
C3109 C3110 1.376 . S
C3110 H3097 0.930 . S
C3110 C3109 1.376 . S
C3110 C3111 1.388 . S
C3111 H3098 0.930 . S
C3111 C3110 1.388 . S
C3111 C3112 1.390 . S
C3112 C3111 1.390 . S
C3112 C3113 1.394 . S
C3112 C3118 1.465 . S
C3113 C3108 1.399 . S
C3113 C3112 1.394 . S
C3113 C3114 1.516 . S
C3114 C3113 1.516 . S
C3114 C3115 1.502 . S
C3114 C3116 1.561 . S
C3114 C3117 1.526 . S
C3115 H3099 0.959 . S
C3115 H3100 0.959 . S
C3115 H3101 0.961 . S
C3115 C3114 1.502 . S
C3116 H3102 0.960 . S
C3116 H3103 0.961 . S
C3116 H3104 0.959 . S
C3116 C3114 1.561 . S
C3117 C3114 1.526 . S
C3117 C3118 1.396 . S
C3117 C3122 1.390 . S
C3118 C3112 1.465 . S
C3118 C3117 1.396 . S
C3118 C3119 1.399 . S
C3119 H3105 0.929 . S
C3119 C3118 1.399 . S
C3119 C3120 1.385 . S
C3120 H3106 0.931 . S
C3120 C3119 1.385 . S
C3120 C3121 1.389 . S
C3121 C3120 1.389 . S
C3121 C3122 1.387 . S
C3122 H3107 0.930 . S
C3122 C3117 1.390 . S
C3122 C3121 1.387 . S
H3123 C3135 0.930 . S
H3124 C3137 0.930 . S
H3125 C3138 0.930 . S
H3126 C3142 0.959 . S
H3127 C3142 0.959 . S
H3128 C3142 0.961 . S
H3129 C3143 0.960 . S
H3130 C3143 0.961 . S
H3131 C3143 0.959 . S
H3132 C3146 0.929 . S
H3133 C3147 0.931 . S
H3134 C3149 0.930 . S
C3135 H3123 0.930 . S
C3135 C3136 1.399 . S
C3135 C3140 1.399 . S
C3136 C3135 1.399 . S
C3136 C3137 1.376 . S
C3137 H3124 0.930 . S
C3137 C3136 1.376 . S
C3137 C3138 1.388 . S
C3138 H3125 0.930 . S
C3138 C3137 1.388 . S
C3138 C3139 1.390 . S
C3139 C3138 1.390 . S
C3139 C3140 1.394 . S
C3139 C3145 1.465 . S
C3140 C3135 1.399 . S
C3140 C3139 1.394 . S
C3140 C3141 1.516 . S
C3141 C3140 1.516 . S
C3141 C3142 1.502 . S
C3141 C3143 1.561 . S
C3141 C3144 1.526 . S
C3142 H3126 0.959 . S
C3142 H3127 0.959 . S
C3142 H3128 0.961 . S
C3142 C3141 1.502 . S
C3143 H3129 0.960 . S
C3143 H3130 0.961 . S
C3143 H3131 0.959 . S
C3143 C3141 1.561 . S
C3144 C3141 1.526 . S
C3144 C3145 1.396 . S
C3144 C3149 1.390 . S
C3145 C3139 1.465 . S
C3145 C3144 1.396 . S
C3145 C3146 1.399 . S
C3146 H3132 0.929 . S
C3146 C3145 1.399 . S
C3146 C3147 1.385 . S
C3147 H3133 0.931 . S
C3147 C3146 1.385 . S
C3147 C3148 1.389 . S
C3148 C3147 1.389 . S
C3148 C3149 1.387 . S
C3149 H3134 0.930 . S
C3149 C3144 1.390 . S
C3149 C3148 1.387 . S
H3150 C3162 0.930 . S
H3151 C3164 0.930 . S
H3152 C3165 0.930 . S
H3153 C3169 0.959 . S
H3154 C3169 0.959 . S
H3155 C3169 0.961 . S
H3156 C3170 0.960 . S
H3157 C3170 0.961 . S
H3158 C3170 0.959 . S
H3159 C3173 0.929 . S
H3160 C3174 0.931 . S
H3161 C3176 0.930 . S
C3162 H3150 0.930 . S
C3162 C3163 1.399 . S
C3162 C3167 1.399 . S
C3163 C3162 1.399 . S
C3163 C3164 1.376 . S
C3164 H3151 0.930 . S
C3164 C3163 1.376 . S
C3164 C3165 1.388 . S
C3165 H3152 0.930 . S
C3165 C3164 1.388 . S
C3165 C3166 1.390 . S
C3166 C3165 1.390 . S
C3166 C3167 1.394 . S
C3166 C3172 1.465 . S
C3167 C3162 1.399 . S
C3167 C3166 1.394 . S
C3167 C3168 1.516 . S
C3168 C3167 1.516 . S
C3168 C3169 1.502 . S
C3168 C3170 1.561 . S
C3168 C3171 1.526 . S
C3169 H3153 0.959 . S
C3169 H3154 0.959 . S
C3169 H3155 0.961 . S
C3169 C3168 1.502 . S
C3170 H3156 0.960 . S
C3170 H3157 0.961 . S
C3170 H3158 0.959 . S
C3170 C3168 1.561 . S
C3171 C3168 1.526 . S
C3171 C3172 1.396 . S
C3171 C3176 1.390 . S
C3172 C3166 1.465 . S
C3172 C3171 1.396 . S
C3172 C3173 1.399 . S
C3173 H3159 0.929 . S
C3173 C3172 1.399 . S
C3173 C3174 1.385 . S
C3174 H3160 0.931 . S
C3174 C3173 1.385 . S
C3174 C3175 1.389 . S
C3175 C3174 1.389 . S
C3175 C3176 1.387 . S
C3176 H3161 0.930 . S
C3176 C3171 1.390 . S
C3176 C3175 1.387 . S
H3177 C3189 0.930 . S
H3178 C3191 0.930 . S
H3179 C3192 0.930 . S
H3180 C3196 0.959 . S
H3181 C3196 0.959 . S
H3182 C3196 0.961 . S
H3183 C3197 0.960 . S
H3184 C3197 0.961 . S
H3185 C3197 0.959 . S
H3186 C3200 0.929 . S
H3187 C3201 0.931 . S
H3188 C3203 0.930 . S
C3189 H3177 0.930 . S
C3189 C3190 1.399 . S
C3189 C3194 1.399 . S
C3190 C3189 1.399 . S
C3190 C3191 1.376 . S
C3191 H3178 0.930 . S
C3191 C3190 1.376 . S
C3191 C3192 1.388 . S
C3192 H3179 0.930 . S
C3192 C3191 1.388 . S
C3192 C3193 1.390 . S
C3193 C3192 1.390 . S
C3193 C3194 1.394 . S
C3193 C3199 1.465 . S
C3194 C3189 1.399 . S
C3194 C3193 1.394 . S
C3194 C3195 1.516 . S
C3195 C3194 1.516 . S
C3195 C3196 1.502 . S
C3195 C3197 1.561 . S
C3195 C3198 1.526 . S
C3196 H3180 0.959 . S
C3196 H3181 0.959 . S
C3196 H3182 0.961 . S
C3196 C3195 1.502 . S
C3197 H3183 0.960 . S
C3197 H3184 0.961 . S
C3197 H3185 0.959 . S
C3197 C3195 1.561 . S
C3198 C3195 1.526 . S
C3198 C3199 1.396 . S
C3198 C3203 1.390 . S
C3199 C3193 1.465 . S
C3199 C3198 1.396 . S
C3199 C3200 1.399 . S
C3200 H3186 0.929 . S
C3200 C3199 1.399 . S
C3200 C3201 1.385 . S
C3201 H3187 0.931 . S
C3201 C3200 1.385 . S
C3201 C3202 1.389 . S
C3202 C3201 1.389 . S
C3202 C3203 1.387 . S
C3203 H3188 0.930 . S
C3203 C3198 1.390 . S
C3203 C3202 1.387 . S
H3204 C3216 0.930 . S
H3205 C3218 0.930 1_565 S
H3206 C3219 0.930 . S
H3207 C3223 0.959 . S
H3208 C3223 0.959 . S
H3209 C3223 0.961 . S
H3210 C3224 0.960 . S
H3211 C3224 0.961 . S
H3212 C3224 0.959 . S
H3213 C3227 0.929 . S
H3214 C3228 0.931 . S
H3215 C3230 0.930 . S
C3216 H3204 0.930 . S
C3216 C3217 1.399 . S
C3216 C3221 1.399 . S
C3217 C3216 1.399 . S
C3217 C3218 1.376 . S
C3218 H3205 0.930 1_545 S
C3218 C3217 1.376 . S
C3218 C3219 1.388 1_545 S
C3219 H3206 0.930 . S
C3219 C3218 1.388 1_565 S
C3219 C3220 1.390 1_565 S
C3220 C3219 1.390 1_545 S
C3220 C3221 1.394 . S
C3220 C3226 1.465 . S
C3221 C3216 1.399 . S
C3221 C3220 1.394 . S
C3221 C3222 1.516 . S
C3222 C3221 1.516 . S
C3222 C3223 1.502 . S
C3222 C3224 1.561 . S
C3222 C3225 1.526 . S
C3223 H3207 0.959 . S
C3223 H3208 0.959 . S
C3223 H3209 0.961 . S
C3223 C3222 1.502 . S
C3224 H3210 0.960 . S
C3224 H3211 0.961 . S
C3224 H3212 0.959 . S
C3224 C3222 1.561 . S
C3225 C3222 1.526 . S
C3225 C3226 1.396 . S
C3225 C3230 1.390 . S
C3226 C3220 1.465 . S
C3226 C3225 1.396 . S
C3226 C3227 1.399 1_545 S
C3227 H3213 0.929 . S
C3227 C3226 1.399 1_565 S
C3227 C3228 1.385 . S
C3228 H3214 0.931 . S
C3228 C3227 1.385 . S
C3228 C3229 1.389 1_565 S
C3229 C3228 1.389 1_545 S
C3229 C3230 1.387 . S
C3230 H3215 0.930 . S
C3230 C3225 1.390 . S
C3230 C3229 1.387 . S
H3231 C3243 0.930 . S
H3232 C3245 0.930 . S
H3233 C3246 0.930 . S
H3234 C3250 0.959 1_455 S
H3235 C3250 0.959 . S
H3236 C3250 0.961 . S
H3237 C3251 0.960 . S
H3238 C3251 0.961 . S
H3239 C3251 0.959 . S
H3240 C3254 0.929 . S
H3241 C3255 0.931 . S
H3242 C3257 0.930 . S
C3243 H3231 0.930 . S
C3243 C3244 1.399 . S
C3243 C3248 1.399 . S
C3244 C3243 1.399 . S
C3244 C3245 1.376 . S
C3245 H3232 0.930 . S
C3245 C3244 1.376 . S
C3245 C3246 1.388 . S
C3246 H3233 0.930 . S
C3246 C3245 1.388 . S
C3246 C3247 1.390 . S
C3247 C3246 1.390 . S
C3247 C3248 1.394 . S
C3247 C3253 1.465 . S
C3248 C3243 1.399 . S
C3248 C3247 1.394 . S
C3248 C3249 1.516 . S
C3249 C3248 1.516 . S
C3249 C3250 1.502 . S
C3249 C3251 1.561 . S
C3249 C3252 1.526 . S
C3250 H3234 0.959 1_655 S
C3250 H3235 0.959 . S
C3250 H3236 0.961 . S
C3250 C3249 1.502 . S
C3251 H3237 0.960 . S
C3251 H3238 0.961 . S
C3251 H3239 0.959 . S
C3251 C3249 1.561 . S
C3252 C3249 1.526 . S
C3252 C3253 1.396 . S
C3252 C3257 1.390 . S
C3253 C3247 1.465 . S
C3253 C3252 1.396 . S
C3253 C3254 1.399 . S
C3254 H3240 0.929 . S
C3254 C3253 1.399 . S
C3254 C3255 1.385 . S
C3255 H3241 0.931 . S
C3255 C3254 1.385 . S
C3255 C3256 1.389 . S
C3256 C3255 1.389 . S
C3256 C3257 1.387 . S
C3257 H3242 0.930 . S
C3257 C3252 1.390 . S
C3257 C3256 1.387 . S
H3258 C3270 0.930 . S
H3259 C3272 0.930 . S
H3260 C3273 0.930 . S
H3261 C3277 0.959 . S
H3262 C3277 0.959 . S
H3263 C3277 0.961 . S
H3264 C3278 0.960 . S
H3265 C3278 0.961 . S
H3266 C3278 0.959 . S
H3267 C3281 0.929 . S
H3268 C3282 0.931 . S
H3269 C3284 0.930 . S
C3270 H3258 0.930 . S
C3270 C3271 1.399 . S
C3270 C3275 1.399 . S
C3271 C3270 1.399 . S
C3271 C3272 1.376 . S
C3272 H3259 0.930 . S
C3272 C3271 1.376 . S
C3272 C3273 1.388 . S
C3273 H3260 0.930 . S
C3273 C3272 1.388 . S
C3273 C3274 1.390 . S
C3274 C3273 1.390 . S
C3274 C3275 1.394 . S
C3274 C3280 1.465 . S
C3275 C3270 1.399 . S
C3275 C3274 1.394 . S
C3275 C3276 1.516 . S
C3276 C3275 1.516 . S
C3276 C3277 1.502 . S
C3276 C3278 1.561 . S
C3276 C3279 1.526 . S
C3277 H3261 0.959 . S
C3277 H3262 0.959 . S
C3277 H3263 0.961 . S
C3277 C3276 1.502 . S
C3278 H3264 0.960 . S
C3278 H3265 0.961 . S
C3278 H3266 0.959 . S
C3278 C3276 1.561 . S
C3279 C3276 1.526 . S
C3279 C3280 1.396 . S
C3279 C3284 1.390 . S
C3280 C3274 1.465 . S
C3280 C3279 1.396 . S
C3280 C3281 1.399 . S
C3281 H3267 0.929 . S
C3281 C3280 1.399 . S
C3281 C3282 1.385 . S
C3282 H3268 0.931 . S
C3282 C3281 1.385 . S
C3282 C3283 1.389 . S
C3283 C3282 1.389 . S
C3283 C3284 1.387 . S
C3284 H3269 0.930 . S
C3284 C3279 1.390 . S
C3284 C3283 1.387 . S
H3285 C3297 0.930 . S
H3286 C3299 0.930 . S
H3287 C3300 0.930 . S
H3288 C3304 0.959 . S
H3289 C3304 0.959 . S
H3290 C3304 0.961 . S
H3291 C3305 0.960 . S
H3292 C3305 0.961 . S
H3293 C3305 0.959 . S
H3294 C3308 0.929 . S
H3295 C3309 0.931 . S
H3296 C3311 0.930 . S
C3297 H3285 0.930 . S
C3297 C3298 1.399 . S
C3297 C3302 1.399 . S
C3298 C3297 1.399 . S
C3298 C3299 1.376 . S
C3299 H3286 0.930 . S
C3299 C3298 1.376 . S
C3299 C3300 1.388 . S
C3300 H3287 0.930 . S
C3300 C3299 1.388 . S
C3300 C3301 1.390 . S
C3301 C3300 1.390 . S
C3301 C3302 1.394 . S
C3301 C3307 1.465 . S
C3302 C3297 1.399 . S
C3302 C3301 1.394 . S
C3302 C3303 1.516 . S
C3303 C3302 1.516 . S
C3303 C3304 1.502 . S
C3303 C3305 1.561 . S
C3303 C3306 1.526 . S
C3304 H3288 0.959 . S
C3304 H3289 0.959 . S
C3304 H3290 0.961 . S
C3304 C3303 1.502 . S
C3305 H3291 0.960 . S
C3305 H3292 0.961 . S
C3305 H3293 0.959 . S
C3305 C3303 1.561 . S
C3306 C3303 1.526 . S
C3306 C3307 1.396 . S
C3306 C3311 1.390 . S
C3307 C3301 1.465 . S
C3307 C3306 1.396 . S
C3307 C3308 1.399 . S
C3308 H3294 0.929 . S
C3308 C3307 1.399 . S
C3308 C3309 1.385 . S
C3309 H3295 0.931 . S
C3309 C3308 1.385 . S
C3309 C3310 1.389 . S
C3310 C3309 1.389 . S
C3310 C3311 1.387 . S
C3311 H3296 0.930 . S
C3311 C3306 1.390 . S
C3311 C3310 1.387 . S
H3312 C3324 0.930 . S
H3313 C3326 0.930 . S
H3314 C3327 0.930 . S
H3315 C3331 0.959 . S
H3316 C3331 0.959 . S
H3317 C3331 0.961 . S
H3318 C3332 0.960 . S
H3319 C3332 0.961 . S
H3320 C3332 0.959 . S
H3321 C3335 0.929 . S
H3322 C3336 0.931 . S
H3323 C3338 0.930 . S
C3324 H3312 0.930 . S
C3324 C3325 1.399 . S
C3324 C3329 1.399 . S
C3325 C3324 1.399 . S
C3325 C3326 1.376 . S
C3326 H3313 0.930 . S
C3326 C3325 1.376 . S
C3326 C3327 1.388 . S
C3327 H3314 0.930 . S
C3327 C3326 1.388 . S
C3327 C3328 1.390 . S
C3328 C3327 1.390 . S
C3328 C3329 1.394 . S
C3328 C3334 1.465 . S
C3329 C3324 1.399 . S
C3329 C3328 1.394 . S
C3329 C3330 1.516 . S
C3330 C3329 1.516 . S
C3330 C3331 1.502 . S
C3330 C3332 1.561 . S
C3330 C3333 1.526 . S
C3331 H3315 0.959 . S
C3331 H3316 0.959 . S
C3331 H3317 0.961 . S
C3331 C3330 1.502 . S
C3332 H3318 0.960 . S
C3332 H3319 0.961 . S
C3332 H3320 0.959 . S
C3332 C3330 1.561 . S
C3333 C3330 1.526 . S
C3333 C3334 1.396 . S
C3333 C3338 1.390 . S
C3334 C3328 1.465 . S
C3334 C3333 1.396 . S
C3334 C3335 1.399 . S
C3335 H3321 0.929 . S
C3335 C3334 1.399 . S
C3335 C3336 1.385 . S
C3336 H3322 0.931 . S
C3336 C3335 1.385 . S
C3336 C3337 1.389 . S
C3337 C3336 1.389 . S
C3337 C3338 1.387 . S
C3338 H3323 0.930 . S
C3338 C3333 1.390 . S
C3338 C3337 1.387 . S
H3339 C3351 0.930 . S
H3340 C3353 0.930 . S
H3341 C3354 0.930 . S
H3342 C3358 0.959 . S
H3343 C3358 0.959 . S
H3344 C3358 0.961 . S
H3345 C3359 0.960 . S
H3346 C3359 0.961 . S
H3347 C3359 0.959 . S
H3348 C3362 0.929 . S
H3349 C3363 0.931 . S
H3350 C3365 0.930 . S
C3351 H3339 0.930 . S
C3351 C3352 1.399 . S
C3351 C3356 1.399 . S
C3352 C3351 1.399 . S
C3352 C3353 1.376 . S
C3353 H3340 0.930 . S
C3353 C3352 1.376 . S
C3353 C3354 1.388 . S
C3354 H3341 0.930 . S
C3354 C3353 1.388 . S
C3354 C3355 1.390 . S
C3355 C3354 1.390 . S
C3355 C3356 1.394 . S
C3355 C3361 1.465 . S
C3356 C3351 1.399 . S
C3356 C3355 1.394 . S
C3356 C3357 1.516 . S
C3357 C3356 1.516 . S
C3357 C3358 1.502 . S
C3357 C3359 1.561 . S
C3357 C3360 1.526 . S
C3358 H3342 0.959 . S
C3358 H3343 0.959 . S
C3358 H3344 0.961 . S
C3358 C3357 1.502 . S
C3359 H3345 0.960 . S
C3359 H3346 0.961 . S
C3359 H3347 0.959 . S
C3359 C3357 1.561 . S
C3360 C3357 1.526 . S
C3360 C3361 1.396 . S
C3360 C3365 1.390 . S
C3361 C3355 1.465 . S
C3361 C3360 1.396 . S
C3361 C3362 1.399 . S
C3362 H3348 0.929 . S
C3362 C3361 1.399 . S
C3362 C3363 1.385 . S
C3363 H3349 0.931 . S
C3363 C3362 1.385 . S
C3363 C3364 1.389 . S
C3364 C3363 1.389 . S
C3364 C3365 1.387 . S
C3365 H3350 0.930 . S
C3365 C3360 1.390 . S
C3365 C3364 1.387 . S
H3366 C3378 0.930 . S
H3367 C3380 0.930 . S
H3368 C3381 0.930 . S
H3369 C3385 0.959 . S
H3370 C3385 0.959 . S
H3371 C3385 0.961 . S
H3372 C3386 0.960 . S
H3373 C3386 0.961 . S
H3374 C3386 0.959 . S
H3375 C3389 0.929 . S
H3376 C3390 0.931 . S
H3377 C3392 0.930 . S
C3378 H3366 0.930 . S
C3378 C3379 1.399 . S
C3378 C3383 1.399 . S
C3379 C3378 1.399 . S
C3379 C3380 1.376 . S
C3380 H3367 0.930 . S
C3380 C3379 1.376 . S
C3380 C3381 1.388 . S
C3381 H3368 0.930 . S
C3381 C3380 1.388 . S
C3381 C3382 1.390 . S
C3382 C3381 1.390 . S
C3382 C3383 1.394 . S
C3382 C3388 1.465 . S
C3383 C3378 1.399 . S
C3383 C3382 1.394 . S
C3383 C3384 1.516 . S
C3384 C3383 1.516 . S
C3384 C3385 1.502 . S
C3384 C3386 1.561 . S
C3384 C3387 1.526 . S
C3385 H3369 0.959 . S
C3385 H3370 0.959 . S
C3385 H3371 0.961 . S
C3385 C3384 1.502 . S
C3386 H3372 0.960 . S
C3386 H3373 0.961 . S
C3386 H3374 0.959 . S
C3386 C3384 1.561 . S
C3387 C3384 1.526 . S
C3387 C3388 1.396 . S
C3387 C3392 1.390 . S
C3388 C3382 1.465 . S
C3388 C3387 1.396 . S
C3388 C3389 1.399 . S
C3389 H3375 0.929 . S
C3389 C3388 1.399 . S
C3389 C3390 1.385 . S
C3390 H3376 0.931 . S
C3390 C3389 1.385 . S
C3390 C3391 1.389 . S
C3391 C3390 1.389 . S
C3391 C3392 1.387 . S
C3392 H3377 0.930 . S
C3392 C3387 1.390 . S
C3392 C3391 1.387 . S
H3393 C3405 0.930 . S
H3394 C3407 0.930 . S
H3395 C3408 0.930 . S
H3396 C3412 0.959 . S
H3397 C3412 0.959 . S
H3398 C3412 0.961 . S
H3399 C3413 0.960 . S
H3400 C3413 0.961 . S
H3401 C3413 0.959 . S
H3402 C3416 0.929 . S
H3403 C3417 0.931 . S
H3404 C3419 0.930 . S
C3405 H3393 0.930 . S
C3405 C3406 1.399 . S
C3405 C3410 1.399 . S
C3406 C3405 1.399 . S
C3406 C3407 1.376 . S
C3407 H3394 0.930 . S
C3407 C3406 1.376 . S
C3407 C3408 1.388 . S
C3408 H3395 0.930 . S
C3408 C3407 1.388 . S
C3408 C3409 1.390 . S
C3409 C3408 1.390 . S
C3409 C3410 1.394 . S
C3409 C3415 1.465 . S
C3410 C3405 1.399 . S
C3410 C3409 1.394 . S
C3410 C3411 1.516 . S
C3411 C3410 1.516 . S
C3411 C3412 1.502 . S
C3411 C3413 1.561 . S
C3411 C3414 1.526 . S
C3412 H3396 0.959 . S
C3412 H3397 0.959 . S
C3412 H3398 0.961 . S
C3412 C3411 1.502 . S
C3413 H3399 0.960 . S
C3413 H3400 0.961 . S
C3413 H3401 0.959 . S
C3413 C3411 1.561 . S
C3414 C3411 1.526 . S
C3414 C3415 1.396 . S
C3414 C3419 1.390 . S
C3415 C3409 1.465 . S
C3415 C3414 1.396 . S
C3415 C3416 1.399 . S
C3416 H3402 0.929 . S
C3416 C3415 1.399 . S
C3416 C3417 1.385 . S
C3417 H3403 0.931 . S
C3417 C3416 1.385 . S
C3417 C3418 1.389 . S
C3418 C3417 1.389 . S
C3418 C3419 1.387 . S
C3419 H3404 0.930 . S
C3419 C3414 1.390 . S
C3419 C3418 1.387 . S
H3420 C3432 0.930 . S
H3421 C3434 0.930 . S
H3422 C3435 0.930 . S
H3423 C3439 0.959 . S
H3424 C3439 0.959 . S
H3425 C3439 0.961 . S
H3426 C3440 0.960 . S
H3427 C3440 0.961 . S
H3428 C3440 0.959 . S
H3429 C3443 0.929 . S
H3430 C3444 0.931 . S
H3431 C3446 0.930 . S
C3432 H3420 0.930 . S
C3432 C3433 1.399 . S
C3432 C3437 1.399 . S
C3433 C3432 1.399 . S
C3433 C3434 1.376 . S
C3434 H3421 0.930 . S
C3434 C3433 1.376 . S
C3434 C3435 1.388 . S
C3435 H3422 0.930 . S
C3435 C3434 1.388 . S
C3435 C3436 1.390 . S
C3436 C3435 1.390 . S
C3436 C3437 1.394 . S
C3436 C3442 1.465 . S
C3437 C3432 1.399 . S
C3437 C3436 1.394 . S
C3437 C3438 1.516 . S
C3438 C3437 1.516 . S
C3438 C3439 1.502 . S
C3438 C3440 1.561 . S
C3438 C3441 1.526 . S
C3439 H3423 0.959 . S
C3439 H3424 0.959 . S
C3439 H3425 0.961 . S
C3439 C3438 1.502 . S
C3440 H3426 0.960 . S
C3440 H3427 0.961 . S
C3440 H3428 0.959 . S
C3440 C3438 1.561 . S
C3441 C3438 1.526 . S
C3441 C3442 1.396 . S
C3441 C3446 1.390 . S
C3442 C3436 1.465 . S
C3442 C3441 1.396 . S
C3442 C3443 1.399 . S
C3443 H3429 0.929 . S
C3443 C3442 1.399 . S
C3443 C3444 1.385 . S
C3444 H3430 0.931 . S
C3444 C3443 1.385 . S
C3444 C3445 1.389 . S
C3445 C3444 1.389 . S
C3445 C3446 1.387 . S
C3446 H3431 0.930 . S
C3446 C3441 1.390 . S
C3446 C3445 1.387 . S
H3447 C3459 0.930 . S
H3448 C3461 0.930 . S
H3449 C3462 0.930 . S
H3450 C3466 0.959 . S
H3451 C3466 0.959 . S
H3452 C3466 0.961 . S
H3453 C3467 0.960 . S
H3454 C3467 0.961 . S
H3455 C3467 0.959 . S
H3456 C3470 0.929 . S
H3457 C3471 0.918 1_455 S
H3458 C3473 0.930 . S
C3459 H3447 0.930 . S
C3459 C3460 1.399 . S
C3459 C3464 1.399 . S
C3460 C3459 1.399 . S
C3460 C3461 1.376 . S
C3461 H3448 0.930 . S
C3461 C3460 1.376 . S
C3461 C3462 1.388 . S
C3462 H3449 0.930 . S
C3462 C3461 1.388 . S
C3462 C3463 1.390 . S
C3463 C3462 1.390 . S
C3463 C3464 1.394 . S
C3463 C3469 1.465 . S
C3464 C3459 1.399 . S
C3464 C3463 1.394 . S
C3464 C3465 1.516 . S
C3465 C3464 1.516 . S
C3465 C3466 1.502 . S
C3465 C3467 1.561 . S
C3465 C3468 1.526 . S
C3466 H3450 0.959 . S
C3466 H3451 0.959 . S
C3466 H3452 0.961 . S
C3466 C3465 1.502 . S
C3467 H3453 0.960 . S
C3467 H3454 0.961 . S
C3467 H3455 0.959 . S
C3467 C3465 1.561 . S
C3468 C3465 1.526 . S
C3468 C3469 1.396 . S
C3468 C3473 1.390 . S
C3469 C3463 1.465 . S
C3469 C3468 1.396 . S
C3469 C3470 1.399 . S
C3470 H3456 0.929 . S
C3470 C3469 1.399 . S
C3470 C3471 1.394 . S
C3471 H3457 0.918 1_655 S
C3471 C3470 1.394 . S
C3471 C3472 1.393 . S
C3472 C3471 1.393 . S
C3472 C3473 1.387 . S
C3473 H3458 0.930 . S
C3473 C3468 1.390 . S
C3473 C3472 1.387 . S
H3474 C3486 0.930 . S
H3475 C3488 0.930 . S
H3476 C3489 0.930 . S
H3477 C3493 0.959 . S
H3478 C3493 0.959 . S
H3479 C3493 0.961 . S
H3480 C3494 0.960 . S
H3481 C3494 0.961 . S
H3482 C3494 0.959 . S
H3483 C3497 0.929 . S
H3484 C3498 0.931 . S
H3485 C3500 0.930 . S
C3486 H3474 0.930 . S
C3486 C3487 1.399 . S
C3486 C3491 1.399 . S
C3487 C3486 1.399 . S
C3487 C3488 1.376 . S
C3488 H3475 0.930 . S
C3488 C3487 1.376 . S
C3488 C3489 1.388 . S
C3489 H3476 0.930 . S
C3489 C3488 1.388 . S
C3489 C3490 1.390 . S
C3490 C3489 1.390 . S
C3490 C3491 1.394 . S
C3490 C3496 1.465 . S
C3491 C3486 1.399 . S
C3491 C3490 1.394 . S
C3491 C3492 1.516 . S
C3492 C3491 1.516 . S
C3492 C3493 1.502 . S
C3492 C3494 1.561 . S
C3492 C3495 1.526 . S
C3493 H3477 0.959 . S
C3493 H3478 0.959 . S
C3493 H3479 0.961 . S
C3493 C3492 1.502 . S
C3494 H3480 0.960 . S
C3494 H3481 0.961 . S
C3494 H3482 0.959 . S
C3494 C3492 1.561 . S
C3495 C3492 1.526 . S
C3495 C3496 1.396 . S
C3495 C3500 1.390 . S
C3496 C3490 1.465 . S
C3496 C3495 1.396 . S
C3496 C3497 1.399 . S
C3497 H3483 0.929 . S
C3497 C3496 1.399 . S
C3497 C3498 1.385 . S
C3498 H3484 0.931 . S
C3498 C3497 1.385 . S
C3498 C3499 1.389 . S
C3499 C3498 1.389 . S
C3499 C3500 1.387 . S
C3500 H3485 0.930 . S
C3500 C3495 1.390 . S
C3500 C3499 1.387 . S
H3501 C3513 0.930 . S
H3502 C3515 0.930 . S
H3503 C3516 0.930 . S
H3504 C3520 0.959 . S
H3505 C3520 0.959 . S
H3506 C3520 0.961 . S
H3507 C3521 0.960 . S
H3508 C3521 0.961 . S
H3509 C3521 0.959 . S
H3510 C3524 0.929 . S
H3511 C3525 0.931 . S
H3512 C3527 0.930 . S
C3513 H3501 0.930 . S
C3513 C3514 1.399 . S
C3513 C3518 1.399 . S
C3514 C3513 1.399 . S
C3514 C3515 1.376 . S
C3515 H3502 0.930 . S
C3515 C3514 1.376 . S
C3515 C3516 1.388 . S
C3516 H3503 0.930 . S
C3516 C3515 1.388 . S
C3516 C3517 1.390 . S
C3517 C3516 1.390 . S
C3517 C3518 1.394 . S
C3517 C3523 1.465 . S
C3518 C3513 1.399 . S
C3518 C3517 1.394 . S
C3518 C3519 1.516 1_545 S
C3519 C3518 1.516 1_565 S
C3519 C3520 1.502 . S
C3519 C3521 1.561 . S
C3519 C3522 1.526 1_565 S
C3520 H3504 0.959 . S
C3520 H3505 0.959 . S
C3520 H3506 0.961 . S
C3520 C3519 1.502 . S
C3521 H3507 0.960 . S
C3521 H3508 0.961 . S
C3521 H3509 0.959 . S
C3521 C3519 1.561 . S
C3522 C3519 1.526 1_545 S
C3522 C3523 1.396 . S
C3522 C3527 1.390 1_545 S
C3523 C3517 1.465 . S
C3523 C3522 1.396 . S
C3523 C3524 1.399 . S
C3524 H3510 0.929 . S
C3524 C3523 1.399 . S
C3524 C3525 1.385 . S
C3525 H3511 0.931 . S
C3525 C3524 1.385 . S
C3525 C3526 1.389 . S
C3526 C3525 1.389 . S
C3526 C3527 1.387 1_545 S
C3527 H3512 0.930 . S
C3527 C3522 1.390 1_565 S
C3527 C3526 1.387 1_565 S
C1597 C7 1.201 . S
C1609 C981 1.139 . S
C1624 C23 1.614 . S
C1636 C1061 1.555 . S
C1663 C1129 1.285 . S
C1651 C37 1.325 . S
C1678 C35 1.731 . S
C1690 C1209 1.699 . S
C1705 C9 1.518 . S
C1717 C1283 1.527 . S
C1732 C21 1.624 . S
C1744 C1351 1.639 . S
C1759 C49 1.058 . S
C1771 C1277 1.131 . S
C1798 C1357 1.483 . S
C1786 C65 1.456 . S
C1825 C1203 1.329 . S
C1813 C79 1.265 1_556 S
C1840 C77 1.678 . S
C1852 C1135 1.656 1_545 S
C1879 C987 1.508 1_455 S
C1867 C51 1.416 . S
C1894 C63 1.491 . S
C1906 C1055 1.456 . S
C1921 C91 1.431 . S
C1933 C1425 1.447 . S
C1948 C107 1.675 . S
C1960 C1505 1.624 . S
C1987 C1573 1.529 . S
C1975 C121 1.623 . S
C2002 C119 1.937 . S
C2014 C321 1.898 . S
C2029 C93 1.807 . S
C2041 C395 1.764 . S
C2056 C105 1.659 . S
C2068 C463 1.663 . S
C2083 C133 1.111 . S
C2095 C389 1.187 . S
C2110 C149 1.530 . S
C2122 C469 1.532 . S
C2149 C315 1.425 . S
C2137 C163 1.417 . S
C2176 C1579 1.908 . S
C2164 C161 1.894 . S
C2203 C1431 1.579 . S
C2191 C135 1.576 . S
C2230 C1499 1.507 . S
C2218 C147 1.539 . S
C2245 C175 1.355 . S
C2257 C537 1.286 . S
C2272 C191 1.690 . S
C2284 C617 1.651 . S
C2299 C205 1.657 . S
C2311 C685 1.598 . S
C2326 C203 2.032 . S
C2338 C765 2.003 . S
C2365 C839 1.689 . S
C2353 C177 1.781 . S
C2392 C907 1.637 . S
C2380 C189 1.742 . S
C2419 C833 1.306 . S
C2407 C217 1.231 . S
C2446 C913 1.492 . S
C2434 C233 1.485 . S
C2461 C247 1.400 . S
C2473 C759 1.401 . S
C2500 C691 1.767 . S
C2488 C245 1.798 . S
C2515 C219 1.632 . S
C2527 C543 1.628 . S
C2554 C611 1.520 . S
C2542 C231 1.486 . S
C2581 C291 1.968 . S
C2569 C8 1.980 . S
C2596 C17 1.475 . S
C2608 C365 1.460 . S
C2635 C451 1.539 . S
C2623 C31 1.534 . S
C2662 C525 1.324 . S
C2650 C36 1.290 . S
C2689 C587 1.637 . S
C2677 C3 1.646 1_556 S
C2716 C673 1.548 . S
C2704 C22 1.532 . S
C2731 C50 2.167 . S
C2743 C661 2.044 . S
C2758 C59 1.673 . S
C2770 C513 1.560 . S
C2785 C73 1.723 . S
C2797 C599 1.750 . S
C2812 C78 1.548 . S
C2824 C377 1.546 . S
C2851 C439 1.725 . S
C2839 C45 1.852 . S
C2866 C64 1.755 . S
C2878 C303 1.744 . S
C2905 C735 1.884 . S
C2893 C92 1.941 . S
C2920 C101 1.635 1_545 S
C2932 C809 1.601 . S
C2947 C115 1.619 . S
C2959 C895 1.586 . S
C2986 C969 1.090 . S
C2974 C120 1.104 . S
C3001 C87 1.588 . S
C3013 C1031 1.554 . S
C3028 C106 1.399 . S
C3040 C1117 1.381 . S
C3055 C134 1.838 . S
C3067 C1105 1.785 . S
C3082 C143 1.411 . S
C3094 C957 1.327 . S
C3121 C1043 1.651 . S
C3109 C157 1.731 . S
C3136 C162 1.563 . S
C3148 C821 1.448 . S
C3163 C129 1.857 1_545 S
C3175 C883 1.818 . S
C3202 C747 1.838 . S
C3190 C148 1.866 1_655 S
C3229 C1179 1.756 . S
C3217 C176 1.794 . S
C3244 C185 1.313 . S
C3256 C1253 1.329 . S
C3271 C199 1.513 . S
C3283 C1339 1.491 . S
C3310 C1413 1.232 . S
C3298 C204 1.315 . S
C3337 C1475 1.674 . S
C3325 C171 1.680 1_565 S
C3352 C190 1.672 . S
C3364 C1561 1.618 . S
C3379 C218 2.107 . S
C3391 C1549 2.007 . S
C3406 C227 1.793 1_565 S
C3418 C1401 1.771 . S
C3445 C1487 1.741 . S
C3433 C241 1.828 1_455 S
C3472 C1265 1.206 . S
C3460 C246 1.164 . S
C3499 C1327 1.712 . S
C3487 C213 1.749 . S
C3514 C232 1.490 . S
C3526 C1191 1.440 . S
