# Generated by pormake.
# Topology anh, (6,3)-cn, num edge types: 1
# Building blocks:
#     Node 0, Type 0, BuildingBlock: PAMTOO_clean_sbu_0, # of connection points: 6
#     Node 1, Type 0, BuildingBlock: PAMTOO_clean_sbu_0, # of connection points: 6
#     Node 2, Type 0, BuildingBlock: PAMTOO_clean_sbu_0, # of connection points: 6
#     Node 3, Type 1, BuildingBlock: MIDCAF_clean_linker_0, # of connection points: 3
#     Node 4, Type 1, BuildingBlock: MIDCAF_clean_linker_0, # of connection points: 3
#     Node 5, Type 1, BuildingBlock: MIDCAF_clean_linker_0, # of connection points: 3
#     Node 6, Type 1, BuildingBlock: MIDCAF_clean_linker_0, # of connection points: 3
#     Node 7, Type 1, BuildingBlock: MIDCAF_clean_linker_0, # of connection points: 3
#     Node 8, Type 1, BuildingBlock: MIDCAF_clean_linker_0, # of connection points: 3
#     Edge 9, Type (0, 1), BuildingBlock: MIFKUJ_clean_linker_0, # of connection points: 2
#     Edge 10, Type (0, 1), BuildingBlock: MIFKUJ_clean_linker_0, # of connection points: 2
#     Edge 11, Type (0, 1), BuildingBlock: MIFKUJ_clean_linker_0, # of connection points: 2
#     Edge 12, Type (0, 1), BuildingBlock: MIFKUJ_clean_linker_0, # of connection points: 2
#     Edge 13, Type (0, 1), BuildingBlock: MIFKUJ_clean_linker_0, # of connection points: 2
#     Edge 14, Type (0, 1), BuildingBlock: MIFKUJ_clean_linker_0, # of connection points: 2
#     Edge 15, Type (0, 1), BuildingBlock: MIFKUJ_clean_linker_0, # of connection points: 2
#     Edge 16, Type (0, 1), BuildingBlock: MIFKUJ_clean_linker_0, # of connection points: 2
#     Edge 17, Type (0, 1), BuildingBlock: MIFKUJ_clean_linker_0, # of connection points: 2
#     Edge 18, Type (0, 1), BuildingBlock: MIFKUJ_clean_linker_0, # of connection points: 2
#     Edge 19, Type (0, 1), BuildingBlock: MIFKUJ_clean_linker_0, # of connection points: 2
#     Edge 20, Type (0, 1), BuildingBlock: MIFKUJ_clean_linker_0, # of connection points: 2
#     Edge 21, Type (0, 1), BuildingBlock: MIFKUJ_clean_linker_0, # of connection points: 2
#     Edge 22, Type (0, 1), BuildingBlock: MIFKUJ_clean_linker_0, # of connection points: 2
#     Edge 23, Type (0, 1), BuildingBlock: MIFKUJ_clean_linker_0, # of connection points: 2
#     Edge 24, Type (0, 1), BuildingBlock: MIFKUJ_clean_linker_0, # of connection points: 2
#     Edge 25, Type (0, 1), BuildingBlock: MIFKUJ_clean_linker_0, # of connection points: 2
#     Edge 26, Type (0, 1), BuildingBlock: MIFKUJ_clean_linker_0, # of connection points: 2
# Relax obj value: 0.161
# Max RMSD: 0.187
# Mean RMSD: 0.150
data_MOF--net-anh--node1-PAMTOO_clean_sbu_0--node2-MIDCAF_clean_linker_0--edge1-MIFKUJ_clean_linker_0
_symmetry_space_group_name_H-M    P1
_symmetry_Int_Tables_number       1
_symmetry_cell_setting            triclinic
loop_
_symmetry_equiv_pos_as_xyz
'x, y, z'
_cell_length_a     45.17585
_cell_length_b     43.8614
_cell_length_c     84.352621
_cell_angle_alpha  90.980795
_cell_angle_beta   95.098761
_cell_angle_gamma 107.93439
loop_
_atom_site_label
_atom_site_type_symbol
_atom_site_fract_x
_atom_site_fract_y
_atom_site_fract_z
_atom_type_partial_charge
Dy0 Dy 0.05539 0.58485 0.13982 0.0
Dy1 Dy 1.0303 0.50602 0.13588 0.0
C2 C 0.04102 0.54907 0.10605 0.0
O3 O 1.00394 0.57223 0.14285 0.0
O4 O 0.98676 0.52062 0.13188 0.0
O5 O 0.07408 0.63041 0.12938 0.0
O6 O 0.06501 0.62891 0.1542 0.0
O7 O 1.02427 0.52032 0.1606 0.0
O8 O 0.06634 0.56539 0.16309 0.0
O9 O 0.08269 0.51808 0.14045 0.0
O10 O 0.09806 0.57156 0.13485 0.0
O11 O 1.02813 0.45996 0.14529 0.0
O12 O 1.00393 0.46261 0.12223 0.0
C13 C 0.98109 0.54648 0.13723 0.0
O14 O 1.03507 0.57114 0.11473 0.0
O15 O 0.04645 0.5242 0.1126 0.0
C16 C 0.10886 0.67088 0.14717 0.0
C17 C 0.16709 0.7188 0.15506 0.0
C18 C 0.1618 0.69913 0.14109 0.0
C19 C 0.13309 0.67543 0.1372 0.0
C20 C 0.11411 0.69037 0.16116 0.0
C21 C 0.14292 0.71396 0.16511 0.0
C22 C 0.07789 0.64674 0.14288 0.0
C23 C 0.04596 0.54216 0.16957 0.0
C24 C 0.10457 0.54469 0.13755 0.0
C25 C 0.98017 0.41997 0.138 0.0
C26 C 0.9261 0.3733 0.1465 0.0
C27 C 0.92937 0.40618 0.14828 0.0
C28 C 0.95621 0.42932 0.14409 0.0
C29 C 0.97706 0.38731 0.13618 0.0
C30 C 0.95028 0.36415 0.1404 0.0
C31 C 1.0084 0.44406 0.13352 0.0
H32 H 0.17963 0.70243 0.13294 0.0
H33 H 0.12986 0.66094 0.12628 0.0
H34 H 0.09584 0.68743 0.16903 0.0
H35 H 0.14628 0.7283 0.17608 0.0
H36 H 0.91138 0.41404 0.15313 0.0
H37 H 0.95832 0.45451 0.14562 0.0
H38 H 0.99533 0.37972 0.13145 0.0
H39 H 0.94833 0.33905 0.13869 0.0
Dy40 Dy 0.54351 0.01982 0.49917 0.0
Dy41 Dy 0.62013 0.04909 0.50738 0.0
C42 C 0.57451 0.02484 0.53461 0.0
O43 O 0.55389 0.07138 0.50726 0.0
O44 O 0.60385 0.09048 0.50017 0.0
O45 O 0.49646 0.01119 0.50562 0.0
O46 O 0.50421 0.99675 0.48203 0.0
O47 O 0.61141 0.03879 0.48106 0.0
O48 O 0.56242 0.04388 0.47755 0.0
O49 O 0.60834 0.99665 0.51156 0.0
O50 O 0.56226 0.97885 0.49531 0.0
O51 O 0.66702 0.04916 0.50402 0.0
O52 O 0.65968 0.08336 0.52082 0.0
C53 C 0.57811 0.09538 0.50405 0.0
O54 O 0.55336 0.00642 0.52397 0.0
O55 O 0.59885 0.04743 0.53043 0.0
C56 C 0.45865 0.96562 0.49255 0.0
C57 C 0.41051 0.90645 0.49203 0.0
C58 C 0.43828 0.912 0.50223 0.0
C59 C 0.46221 0.94135 0.50246 0.0
C60 C 0.43109 0.96025 0.48243 0.0
C61 C 0.4073 0.93099 0.48213 0.0
C62 C 0.48367 0.99623 0.49202 0.0
C63 C 0.58816 0.04289 0.47181 0.0
C64 C 0.58609 0.97338 0.50355 0.0
C65 C 0.70394 0.1009 0.50677 0.0
C66 C 0.74913 0.15328 0.49507 0.0
C67 C 0.72007 0.13886 0.48616 0.0
C68 C 0.69765 0.11298 0.49199 0.0
C69 C 0.73286 0.11494 0.51564 0.0
C70 C 0.75526 0.14089 0.50986 0.0
C71 C 0.68005 0.0747 0.51336 0.0
H72 H 0.44148 0.89376 0.51009 0.0
H73 H 0.4835 0.94504 0.51028 0.0
H74 H 0.42811 0.97861 0.47457 0.0
H75 H 0.38663 0.9274 0.47387 0.0
H76 H 0.71469 0.14747 0.47465 0.0
H77 H 0.67532 0.10251 0.48501 0.0
H78 H 0.73796 0.10609 0.52715 0.0
H79 H 0.77714 0.15167 0.51715 0.0
Dy80 Dy 0.5586 0.49961 0.83191 0.0
Dy81 Dy 0.48287 0.48205 0.82436 0.0
C82 C 0.52784 0.49559 0.79712 0.0
O83 O 0.55069 0.54678 0.8273 0.0
O84 O 0.49904 0.534 0.83176 0.0
O85 O 0.60486 0.52684 0.82672 0.0
O86 O 0.5989 0.4928 0.84542 0.0
O87 O 0.492 0.47108 0.84985 0.0
O88 O 0.54012 0.50879 0.85448 0.0
O89 O 0.49214 0.4358 0.81951 0.0
O90 O 0.5397 0.44659 0.83431 0.0
O91 O 0.43748 0.48038 0.83119 0.0
O92 O 0.44216 0.46511 0.80725 0.0
C93 C 0.52585 0.55524 0.8296 0.0
O94 O 0.54654 0.48422 0.80625 0.0
O95 O 0.50587 0.50434 0.80321 0.0
C96 C 0.64061 0.49798 0.82979 0.0
C97 C 0.68496 0.47585 0.81587 0.0
C98 C 0.65433 0.46852 0.80845 0.0
C99 C 0.63225 0.47939 0.81541 0.0
C100 C 0.67083 0.50469 0.8374 0.0
C101 C 0.69283 0.49371 0.83052 0.0
C102 C 0.6184 0.51153 0.83658 0.0
C103 C 0.51477 0.48973 0.85975 0.0
C104 C 0.51477 0.42637 0.82648 0.0
C105 C 0.41074 0.49803 0.81021 0.0
C106 C 0.38606 0.54765 0.80172 0.0
C107 C 0.41843 0.55297 0.80275 0.0
C108 C 0.43063 0.52827 0.80682 0.0
C109 C 0.37836 0.49222 0.80866 0.0
C110 C 0.36604 0.51685 0.80432 0.0
C111 C 0.42448 0.47399 0.81657 0.0
H112 H 0.64759 0.45472 0.79722 0.0
H113 H 0.60886 0.47388 0.80942 0.0
H114 H 0.67761 0.51906 0.84848 0.0
H115 H 0.71639 0.50028 0.83639 0.0
H116 H 0.43434 0.57642 0.80081 0.0
H117 H 0.45573 0.53311 0.80784 0.0
H118 H 0.36274 0.46905 0.81129 0.0
H119 H 0.34099 0.51228 0.80379 0.0
C120 C 0.45671 0.97838 0.2182 0.0
C121 C 0.45486 0.969 0.20206 0.0
C122 C 0.48096 0.9819 0.19355 0.0
C123 C 0.50844 0.00362 0.20111 0.0
H124 H 0.58741 0.08777 0.19438 0.0
H125 H 0.62899 0.12421 0.18081 0.0
H126 H 0.69079 0.14086 0.22434 0.0
H127 H 0.64972 0.10457 0.23785 0.0
H128 H 0.62019 0.0904 0.27049 0.0
H129 H 0.6261 0.09132 0.29952 0.0
H130 H 0.53654 0.018 0.29894 0.0
H131 H 0.53022 0.01746 0.27003 0.0
H132 H 0.48475 0.00603 0.2383 0.0
H133 H 0.43714 0.96859 0.22512 0.0
H134 H 0.4801 0.97519 0.18106 0.0
H135 H 0.52826 0.01294 0.19431 0.0
N136 N 0.56297 0.05275 0.21778 0.0
N137 N 0.59347 0.07226 0.242 0.0
N138 N 0.54395 0.03455 0.24203 0.0
C139 C 0.58989 0.07209 0.22582 0.0
C140 C 0.57064 0.05357 0.2502 0.0
C141 C 0.53986 0.03389 0.22587 0.0
C142 C 0.61513 0.09322 0.21723 0.0
C143 C 0.60993 0.09905 0.20103 0.0
C144 C 0.63366 0.12006 0.19327 0.0
C145 C 0.66317 0.13535 0.2015 0.0
C146 C 0.66844 0.12917 0.21761 0.0
C147 C 0.64474 0.10847 0.22538 0.0
C148 C 0.57466 0.05394 0.26786 0.0
C149 C 0.60172 0.07447 0.27653 0.0
C150 C 0.60522 0.07489 0.29319 0.0
C151 C 0.58175 0.05482 0.30155 0.0
C152 C 0.55484 0.03416 0.29288 0.0
C153 C 0.55131 0.03374 0.27626 0.0
C154 C 0.51045 0.01245 0.21738 0.0
C155 C 0.48416 -0.0003 0.22578 0.0
C156 C 0.55099 0.41613 0.54613 0.0
C157 C 0.5639 0.41483 0.53169 0.0
C158 C 0.57726 0.44378 0.5243 0.0
C159 C 0.57804 0.47333 0.53137 0.0
H160 H 0.56674 0.57281 0.5239 0.0
H161 H 0.57191 0.62487 0.51221 0.0
H162 H 0.6051 0.67238 0.55858 0.0
H163 H 0.60035 0.62111 0.57012 0.0
H164 H 0.57651 0.58332 0.60033 0.0
H165 H 0.57134 0.58165 0.62887 0.0
H166 H 0.55137 0.47877 0.62608 0.0
H167 H 0.556 0.4802 0.5976 0.0
H168 H 0.54215 0.44521 0.56447 0.0
H169 H 0.54093 0.39447 0.55231 0.0
H170 H 0.58725 0.44359 0.51311 0.0
H171 H 0.58895 0.49523 0.52557 0.0
N172 N 0.57448 0.53362 0.54718 0.0
N173 N 0.57511 0.56056 0.57164 0.0
N174 N 0.56642 0.50527 0.57063 0.0
C175 C 0.57758 0.56142 0.55569 0.0
C176 C 0.56951 0.53264 0.5792 0.0
C177 C 0.5689 0.50535 0.55469 0.0
C178 C 0.58297 0.59267 0.54797 0.0
C179 C 0.57552 0.59444 0.53153 0.0
C180 C 0.57827 0.62422 0.52486 0.0
C181 C 0.58896 0.65283 0.53446 0.0
C182 C 0.5972 0.65097 0.55078 0.0
C183 C 0.5942 0.62139 0.55743 0.0
C184 C 0.56663 0.53189 0.5966 0.0
C185 C 0.57097 0.56031 0.60578 0.0
C186 C 0.56817 0.55941 0.62216 0.0
C187 C 0.56085 0.53007 0.62973 0.0
C188 C 0.55656 0.50171 0.62057 0.0
C189 C 0.55943 0.50259 0.60423 0.0
C190 C 0.56584 0.47448 0.54606 0.0
C191 C 0.55196 0.44543 0.5532 0.0
C192 C 0.97608 0.56178 0.84894 0.0
C193 C 0.97772 0.56194 0.8324 0.0
C194 C 1.00639 0.577 0.82644 0.0
C195 C 1.03277 0.59268 0.83688 0.0
H196 H 0.11863 0.65702 0.83777 0.0
H197 H 0.16746 0.6811 0.82675 0.0
H198 H 0.21406 0.70911 0.87418 0.0
H199 H 0.1649 0.68372 0.88539 0.0
H200 H 0.12412 0.65694 0.91563 0.0
H201 H 0.12246 0.647 0.94404 0.0
H202 H 1.03939 0.56583 0.93327 0.0
H203 H 0.04094 0.57546 0.90505 0.0
H204 H 1.00014 0.57687 0.87204 0.0
H205 H 0.95425 0.55001 0.85383 0.0
H206 H 1.00815 0.57751 0.81372 0.0
H207 H 0.05446 0.60462 0.83194 0.0
N208 N 0.08406 0.63112 0.85898 0.0
N209 N 0.1088 0.64315 0.885 0.0
N210 N 0.05817 0.60675 0.88046 0.0
C211 C 0.10932 0.64749 0.86908 0.0
C212 C 0.0832 0.62275 0.89077 0.0
C213 C 0.05839 0.61081 0.86457 0.0
C214 C 0.13792 0.66762 0.86251 0.0
C215 C 0.13906 0.66878 0.84593 0.0
C216 C 0.16717 0.6831 0.83954 0.0
C217 C 0.19489 0.69689 0.84956 0.0
C218 C 0.19323 0.69825 0.86613 0.0
C219 C 0.16504 0.68366 0.87255 0.0
C220 C 0.08264 0.61706 0.90803 0.0
C221 C 0.10555 0.63693 0.91932 0.0
C222 C 0.10455 0.63135 0.93558 0.0
C223 C 0.08086 0.60558 0.94084 0.0
C224 C 0.05815 0.58563 0.92956 0.0
C225 C 0.05894 0.59136 0.91337 0.0
C226 C 1.03094 0.59321 0.85346 0.0
C227 C 1.00241 0.57711 0.85937 0.0
C228 C 0.14434 0.63158 0.42969 0.0
C229 C 0.156 0.62601 0.44498 0.0
C230 C 0.14344 0.59582 0.45132 0.0
C231 C 0.11959 0.57167 0.44249 0.0
H232 H 0.04502 0.48458 0.44592 0.0
H233 H 1.00736 0.44045 0.4578 0.0
H234 H 0.95118 0.41645 0.41252 0.0
H235 H 0.98846 0.46027 0.40063 0.0
H236 H 1.02872 0.48173 0.36955 0.0
H237 H 1.0269 0.48369 0.3407 0.0
H238 H 0.08363 0.58333 0.34531 0.0
H239 H 0.08642 0.58103 0.37417 0.0
H240 H 0.11278 0.61246 0.40897 0.0
H241 H 0.1538 0.65452 0.42446 0.0
H242 H 0.15198 0.59097 0.46311 0.0
H243 H 0.11042 0.54859 0.44763 0.0
N244 N 0.06453 0.52624 0.4241 0.0
N245 N 0.04022 0.50484 0.39883 0.0
N246 N 0.0816 0.55293 0.40111 0.0
C247 C 0.04226 0.50296 0.41494 0.0
C248 C 0.05983 0.52967 0.39182 0.0
C249 C 0.08421 0.5514 0.41723 0.0
C250 C 1.01984 0.47605 0.42231 0.0
C251 C 1.02464 0.46991 0.4385 0.0
C252 C 1.00316 0.44455 0.44529 0.0
C253 C 0.97627 0.4251 0.4361 0.0
C254 C 0.97149 0.43127 0.41995 0.0
C255 C 0.99304 0.4563 0.41312 0.0
C256 C 0.0578 0.53119 0.37422 0.0
C257 C 0.04076 0.5041 0.36442 0.0
C258 C 1.03958 0.50527 0.34784 0.0
C259 C 0.05515 0.53367 0.34061 0.0
C260 C 0.07185 0.56087 0.35042 0.0
C261 C 0.07329 0.5596 0.36701 0.0
C262 C 0.10835 0.57711 0.42705 0.0
C263 C 0.12097 0.60738 0.42079 0.0
C264 C 0.49021 0.08379 0.78338 0.0
C265 C 0.51045 0.10115 0.79639 0.0
C266 C 0.53232 0.08768 0.80394 0.0
C267 C 0.53483 0.0585 0.79813 0.0
H268 H 0.51165 0.94345 0.80541 0.0
H269 H 0.51347 0.89341 0.8174 0.0
H270 H 0.56166 0.87351 0.77844 0.0
H271 H 0.5601 0.92307 0.76661 0.0
H272 H 0.53187 0.94315 0.73212 0.0
H273 H 0.53649 0.9449 0.70362 0.0
H274 H 0.53975 0.04444 0.70504 0.0
H275 H 0.53406 0.04242 0.73343 0.0
H276 H 0.47827 0.04321 0.7669 0.0
H277 H 0.47232 0.09257 0.77755 0.0
H278 H 0.5485 0.1003 0.81389 0.0
H279 H 0.55271 0.04937 0.80372 0.0
N280 N 0.52627 0.99026 0.7846 0.0
N281 N 0.53396 0.96668 0.7607 0.0
N282 N 0.52388 0.01582 0.76043 0.0
C283 C 0.53209 0.96564 0.77669 0.0
C284 C 0.52997 0.99164 0.75249 0.0
C285 C 0.52207 0.01538 0.77641 0.0
C286 C 0.53557 0.93721 0.78501 0.0
C287 C 0.52301 0.92858 0.79955 0.0
C288 C 0.52385 0.89984 0.80635 0.0
C289 C 0.53768 0.87948 0.79885 0.0
C290 C 0.55114 0.88876 0.78462 0.0
C291 C 0.55001 0.91715 0.77777 0.0
C292 C 0.53257 0.99264 0.7351 0.0
C293 C 0.53351 0.96542 0.72636 0.0
C294 C 0.53636 0.96647 0.71001 0.0
C295 C 0.53859 0.99484 0.702 0.0
C296 C 0.5376 0.02204 0.71075 0.0
C297 C 0.5345 0.02092 0.72708 0.0
C298 C 0.51597 0.04262 0.78449 0.0
C299 C 0.49329 0.05521 0.77737 0.0
C300 C 0.63492 0.51067 0.11152 0.0
C301 C 0.65305 0.53273 0.12364 0.0
C302 C 0.63862 0.55277 0.13112 0.0
C303 C 0.6074 0.55135 0.12625 0.0
H304 H 0.48264 0.51375 0.13254 0.0
H305 H 0.43264 0.51619 0.14115 0.0
H306 H 0.42582 0.57936 0.10326 0.0
H307 H 0.47514 0.57704 0.09491 0.0
H308 H 0.47843 0.53069 0.06066 0.0
H309 H 0.47239 0.52368 0.03166 0.0
H310 H 0.56352 0.51071 0.03296 0.0
H311 H 0.56989 0.51816 0.0618 0.0
H312 H 0.59162 0.49276 0.09689 0.0
H313 H 0.64491 0.49513 0.10521 0.0
H314 H 0.65159 0.56991 0.1406 0.0
H315 H 0.59749 0.56792 0.13179 0.0
N316 N 0.5366 0.53784 0.11383 0.0
N317 N 0.50628 0.53555 0.08929 0.0
N318 N 0.55515 0.52792 0.08963 0.0
C319 C 0.50963 0.53953 0.10545 0.0
C320 C 0.52877 0.52965 0.08129 0.0
C321 C 0.55962 0.53204 0.10576 0.0
C322 C 0.4831 0.54538 0.1131 0.0
C323 C 0.47081 0.52882 0.12638 0.0
C324 C 0.4419 0.52989 0.13115 0.0
C325 C 0.42487 0.54793 0.1229 0.0
C326 C 0.43812 0.56553 0.11009 0.0
C327 C 0.46656 0.56414 0.10526 0.0
C328 C 0.52471 0.52511 0.06364 0.0
C329 C 0.49722 0.52637 0.05478 0.0
C330 C 0.49365 0.52218 0.03815 0.0
C331 C 0.51751 0.51676 0.02999 0.0
C332 C 0.54488 0.51535 0.03884 0.0
C333 C 0.54844 0.51945 0.05544 0.0
C334 C 0.59001 0.5301 0.11366 0.0
C335 C 0.60413 0.50941 0.10666 0.0
H336 H 0.12818 0.49394 0.14158 0.0
H337 H 0.18202 0.49368 0.14027 0.0
H338 H 0.2103 0.59456 0.13132 0.0
H339 H 0.15651 0.5949 0.13235 0.0
H340 H 0.23643 0.56526 0.11204 0.0
H341 H 0.22719 0.56387 0.16839 0.0
H342 H 0.20396 0.54332 0.19298 0.0
H343 H 0.2206 0.45361 0.18407 0.0
H344 H 0.24351 0.47344 0.1593 0.0
H345 H 0.40029 0.59811 0.12331 0.0
H346 H 0.34682 0.59657 0.12688 0.0
H347 H 0.32258 0.49546 0.13494 0.0
H348 H 0.37629 0.49685 0.13138 0.0
H349 H 0.29402 0.52314 0.1546 0.0
H350 H 0.30288 0.52378 0.09852 0.0
H351 H 0.32578 0.54337 0.07373 0.0
H352 H 0.30912 0.63336 0.08183 0.0
H353 H 0.28652 0.61445 0.10681 0.0
C354 C 0.14582 0.51615 0.13938 0.0
C355 C 0.13769 0.54445 0.1371 0.0
C356 C 0.1768 0.516 0.13871 0.0
C357 C 0.20069 0.54419 0.13587 0.0
C358 C 0.19257 0.57242 0.13354 0.0
C359 C 0.16162 0.57259 0.13418 0.0
C360 C 0.2339 0.54428 0.13496 0.0
C361 C 0.24907 0.55645 0.12149 0.0
C362 C 0.2505 0.53196 0.14699 0.0
C363 C 0.23679 0.52004 0.1619 0.0
C364 C 0.22567 0.53967 0.17161 0.0
C365 C 0.2126 0.52817 0.18559 0.0
C366 C 0.21075 0.49715 0.19006 0.0
C367 C 0.22202 0.47761 0.18058 0.0
C368 C 0.23506 0.48897 0.16657 0.0
C369 C 0.38368 0.57546 0.12584 0.0
C370 C 0.39284 0.54753 0.12686 0.0
C371 C 0.35292 0.57461 0.12787 0.0
C372 C 0.33012 0.54575 0.13086 0.0
C373 C 0.33947 0.51807 0.13258 0.0
C374 C 0.37037 0.51892 0.1306 0.0
C375 C 0.29657 0.54445 0.13176 0.0
C376 C 0.28134 0.53198 0.14517 0.0
C377 C 0.27981 0.55639 0.11965 0.0
C378 C 0.29328 0.5678 0.10461 0.0
C379 C 0.30431 0.54783 0.09508 0.0
C380 C 0.31721 0.5588 0.08098 0.0
C381 C 0.31898 0.58962 0.07623 0.0
C382 C 0.30778 0.60951 0.08554 0.0
C383 C 0.2949 0.59867 0.09966 0.0
H384 H 0.32897 0.59807 0.06531 0.0
H385 H 0.20067 0.48828 0.20089 0.0
H386 H 0.73903 0.20421 0.4796 0.0
H387 H 0.77784 0.25033 0.46986 0.0
H388 H 0.85151 0.21277 0.48755 0.0
H389 H 0.81281 0.16621 0.49709 0.0
H390 H 0.8653 0.2772 0.49528 0.0
H391 H 0.82843 0.20659 0.44849 0.0
H392 H 0.78845 0.17237 0.42842 0.0
H393 H 0.75869 0.25317 0.41507 0.0
H394 H 0.79822 0.28779 0.43523 0.0
H395 H 0.9877 0.37947 0.45528 0.0
H396 H 0.94936 0.33385 0.4658 0.0
H397 H 0.87443 0.36493 0.44358 0.0
H398 H 0.91268 0.41014 0.43278 0.0
H399 H 0.86115 0.30343 0.43832 0.0
H400 H 0.89654 0.37425 0.4847 0.0
H401 H 0.93512 0.40929 0.50507 0.0
H402 H 0.96599 0.3298 0.51959 0.0
H403 H 0.92785 0.29435 0.49915 0.0
C404 C 0.76344 0.20549 0.48125 0.0
C405 C 0.77274 0.18137 0.48908 0.0
C406 C 0.78561 0.23197 0.47573 0.0
C407 C 0.81755 0.23486 0.47788 0.0
C408 C 0.82699 0.21104 0.48581 0.0
C409 C 0.80482 0.1845 0.49129 0.0
C410 C 0.84112 0.2628 0.47189 0.0
C411 C 0.86469 0.28274 0.48279 0.0
C412 C 0.83976 0.27046 0.45568 0.0
C413 C 0.8161 0.24971 0.44348 0.0
C414 C 0.8132 0.21701 0.44136 0.0
C415 C 0.79064 0.19754 0.42995 0.0
C416 C 0.77099 0.21056 0.4205 0.0
C417 C 0.7739 0.2431 0.42241 0.0
C418 C 0.7964 0.26266 0.43382 0.0
C419 C 0.96305 0.37673 0.45279 0.0
C420 C 0.95318 0.39835 0.4432 0.0
C421 C 0.94114 0.35067 0.45882 0.0
C422 C 0.90894 0.34606 0.45563 0.0
C423 C 0.8991 0.36787 0.44618 0.0
C424 C 0.92097 0.39369 0.44001 0.0
C425 C 0.88544 0.31805 0.46171 0.0
C426 C 0.86184 0.29801 0.45082 0.0
C427 C 0.88662 0.31048 0.47797 0.0
C428 C 0.90955 0.33172 0.49029 0.0
C429 C 0.91172 0.36429 0.49215 0.0
C430 C 0.93348 0.38422 0.50373 0.0
C431 C 0.95305 0.3718 0.51359 0.0
C432 C 0.95084 0.3394 0.51193 0.0
C433 C 0.92914 0.31937 0.50036 0.0
H434 H 0.96988 0.38726 0.52255 0.0
H435 H 0.75354 0.19546 0.41168 0.0
H436 H 0.478 0.58087 0.83126 0.0
H437 H 0.47957 0.63647 0.82798 0.0
H438 H 0.57816 0.6628 0.82247 0.0
H439 H 0.57689 0.60714 0.8258 0.0
H440 H 0.56543 0.70652 0.84131 0.0
H441 H 0.52552 0.65243 0.79071 0.0
H442 H 0.49061 0.61127 0.77145 0.0
H443 H 0.41243 0.64087 0.78249 0.0
H444 H 0.4465 0.68103 0.80254 0.0
H445 H 0.58503 0.85263 0.80155 0.0
H446 H 0.58206 0.79829 0.80919 0.0
H447 H 0.48604 0.78046 0.81836 0.0
H448 H 0.48848 0.8346 0.81033 0.0
H449 H 0.49547 0.7325 0.79857 0.0
H450 H 0.53783 0.78859 0.84877 0.0
H451 H 0.57468 0.8308 0.86685 0.0
H452 H 0.65077 0.79865 0.8546 0.0
H453 H 0.61443 0.75651 0.83626 0.0
C454 C 0.50013 0.59845 0.82946 0.0
C455 C 0.52734 0.58944 0.82874 0.0
C456 C 0.50092 0.63026 0.82752 0.0
C457 C 0.52891 0.65374 0.82481 0.0
C458 C 0.55629 0.64505 0.82453 0.0
C459 C 0.55551 0.61319 0.82641 0.0
C460 C 0.52952 0.68727 0.82199 0.0
C461 C 0.55035 0.71222 0.83186 0.0
C462 C 0.5094 0.69464 0.80984 0.0
C463 C 0.48858 0.66972 0.7982 0.0
C464 C 0.5008 0.64988 0.78923 0.0
C465 C 0.48115 0.62669 0.77819 0.0
C466 C 0.44934 0.6235 0.77576 0.0
C467 C 0.43706 0.64334 0.78445 0.0
C468 C 0.45649 0.66622 0.79571 0.0
C469 C 0.56328 0.83718 0.80524 0.0
C470 C 0.53694 0.84788 0.80525 0.0
C471 C 0.56167 0.8062 0.80968 0.0
C472 C 0.53372 0.78529 0.81424 0.0
C473 C 0.50765 0.79615 0.8147 0.0
C474 C 0.50924 0.8272 0.81031 0.0
C475 C 0.53143 0.75168 0.81785 0.0
C476 C 0.51032 0.72672 0.8081 0.0
C477 C 0.55151 0.74431 0.82998 0.0
C478 C 0.57343 0.76957 0.84103 0.0
C479 C 0.56246 0.79069 0.84983 0.0
C480 C 0.58325 0.81457 0.86014 0.0
C481 C 0.61506 0.81746 0.86184 0.0
C482 C 0.62613 0.79641 0.85326 0.0
C483 C 0.60544 0.7725 0.84291 0.0
H484 H 0.63112 0.83596 0.86984 0.0
H485 H 0.43418 0.60563 0.76716 0.0
H486 H 0.95847 0.59661 0.14393 0.0
H487 H 0.90394 0.59605 0.14273 0.0
H488 H 0.87319 0.49534 0.12871 0.0
H489 H 0.92752 0.49592 0.12951 0.0
H490 H 0.8395 0.52252 0.11139 0.0
H491 H 0.86855 0.52611 0.16759 0.0
H492 H 0.90028 0.54726 0.19301 0.0
H493 H 0.88048 0.63648 0.18798 0.0
H494 H 0.84895 0.616 0.16241 0.0
H495 H 0.68005 0.4842 0.1247 0.0
H496 H 0.73543 0.48864 0.12789 0.0
H497 H 0.75943 0.59114 0.13521 0.0
H498 H 0.70379 0.58704 0.13164 0.0
H499 H 0.79666 0.56552 0.15577 0.0
H500 H 0.7661 0.56008 0.09961 0.0
H501 H 0.73359 0.53738 0.07459 0.0
H502 H 0.75583 0.44953 0.08015 0.0
H503 H 0.78812 0.47155 0.10534 0.0
C504 C 0.94014 0.57429 0.14062 0.0
C505 C 0.94771 0.54633 0.13682 0.0
C506 C 0.90878 0.57394 0.14002 0.0
C507 C 0.88399 0.54554 0.1358 0.0
C508 C 0.89157 0.51765 0.13199 0.0
C509 C 0.92286 0.51802 0.13249 0.0
C510 C 0.85027 0.54482 0.13504 0.0
C511 C 0.83019 0.53158 0.12123 0.0
C512 C 0.83777 0.55727 0.14763 0.0
C513 C 0.85667 0.56964 0.163 0.0
C514 C 0.87116 0.55033 0.17184 0.0
C515 C 0.88908 0.56218 0.18629 0.0
C516 C 0.89247 0.59323 0.19209 0.0
C517 C 0.87788 0.61246 0.18346 0.0
C518 C 0.85997 0.60073 0.169 0.0
C519 C 0.69695 0.50782 0.12691 0.0
C520 C 0.68703 0.53531 0.12764 0.0
C521 C 0.72881 0.51029 0.1288 0.0
C522 C 0.75193 0.54029 0.13153 0.0
C523 C 0.7422 0.56768 0.13306 0.0
C524 C 0.71022 0.56525 0.13109 0.0
C525 C 0.78605 0.54291 0.13222 0.0
C526 C 0.80611 0.55653 0.14597 0.0
C527 C 0.79855 0.53061 0.11963 0.0
C528 C 0.7793 0.51737 0.10444 0.0
C529 C 0.76387 0.53584 0.09556 0.0
C530 C 0.74551 0.5231 0.08134 0.0
C531 C 0.74258 0.49201 0.0758 0.0
C532 C 0.75808 0.4736 0.08446 0.0
C533 C 0.77644 0.48621 0.0987 0.0
H534 H 0.72836 0.48219 0.06478 0.0
H535 H 0.90634 0.60236 0.20328 0.0
H536 H 0.41629 0.84592 0.49358 0.0
H537 H 0.37453 0.79458 0.49024 0.0
H538 H 0.30583 0.84452 0.48463 0.0
H539 H 0.3472 0.89576 0.48884 0.0
H540 H 0.28416 0.79373 0.50098 0.0
H541 H 0.33391 0.81488 0.4522 0.0
H542 H 0.37827 0.8264 0.43577 0.0
H543 H 0.39516 0.7388 0.44926 0.0
H544 H 0.35111 0.72697 0.46594 0.0
H545 H 0.15968 0.68862 0.45018 0.0
H546 H 0.20422 0.73206 0.46273 0.0
H547 H 0.25534 0.66489 0.47228 0.0
H548 H 0.21065 0.6212 0.45975 0.0
H549 H 0.28848 0.71927 0.45693 0.0
H550 H 0.23195 0.69529 0.50269 0.0
H551 H 0.18589 0.68466 0.51784 0.0
H552 H 0.1798 0.77865 0.50869 0.0
H553 H 0.22557 0.78969 0.49327 0.0
C554 C 0.39227 0.846 0.49197 0.0
C555 C 0.38519 0.87507 0.49128 0.0
C556 C 0.36841 0.81659 0.48989 0.0
C557 C 0.33703 0.81564 0.48685 0.0
C558 C 0.32984 0.84457 0.48685 0.0
C559 C 0.3536 0.87392 0.48908 0.0
C560 C 0.31169 0.7848 0.48289 0.0
C561 C 0.28506 0.77754 0.4913 0.0
C562 C 0.31307 0.76321 0.4705 0.0
C563 C 0.33948 0.77024 0.46046 0.0
C564 C 0.34724 0.7982 0.45175 0.0
C565 C 0.3723 0.80477 0.44238 0.0
C566 C 0.38959 0.7834 0.44152 0.0
C567 C 0.38179 0.75537 0.44998 0.0
C568 C 0.35678 0.74871 0.45938 0.0
C569 C 0.18031 0.68308 0.45511 0.0
C570 C 0.18177 0.65159 0.45398 0.0
C571 C 0.20564 0.70785 0.46235 0.0
C572 C 0.23301 0.70166 0.4685 0.0
C573 C 0.23437 0.67012 0.46766 0.0
C574 C 0.20882 0.64521 0.46059 0.0
C575 C 0.26079 0.72861 0.4748 0.0
C576 C 0.28783 0.73517 0.4668 0.0
C577 C 0.25959 0.74973 0.48741 0.0
C578 C 0.23208 0.74323 0.49672 0.0
C579 C 0.22065 0.71361 0.50379 0.0
C580 C 0.19461 0.70752 0.51245 0.0
C581 C 0.17989 0.73094 0.5142 0.0
C582 C 0.19122 0.76052 0.50732 0.0
C583 C 0.21724 0.76673 0.49863 0.0
H584 H 0.15974 0.72619 0.52091 0.0
H585 H 0.40898 0.78852 0.43426 0.0
H586 H 0.48323 0.38231 0.80277 0.0
H587 H 0.48165 0.32636 0.79992 0.0
H588 H 0.53873 0.3365 0.84474 0.0
H589 H 0.54187 0.39311 0.84712 0.0
H590 H 0.55845 0.30408 0.82594 0.0
H591 H 0.45586 0.29392 0.83922 0.0
H592 H 0.40459 0.30326 0.83751 0.0
H593 H 0.38344 0.26183 0.78975 0.0
H594 H 0.43477 0.25263 0.79109 0.0
H595 H 0.52233 0.1307 0.82657 0.0
H596 H 0.52268 0.18508 0.834 0.0
H597 H 0.49633 0.19972 0.78507 0.0
H598 H 0.4977 0.14657 0.77731 0.0
H599 H 0.45983 0.21724 0.80913 0.0
H600 H 0.56664 0.23188 0.79682 0.0
H601 H 0.61735 0.2214 0.80036 0.0
H602 H 0.62865 0.25266 0.84968 0.0
H603 H 0.57774 0.26288 0.84646 0.0
C604 C 0.49526 0.37253 0.81206 0.0
C605 C 0.51254 0.39203 0.8252 0.0
C606 C 0.49419 0.34042 0.81049 0.0
C607 C 0.50949 0.32676 0.82229 0.0
C608 C 0.52666 0.34629 0.83547 0.0
C609 C 0.52837 0.37865 0.83685 0.0
C610 C 0.5085 0.29253 0.82055 0.0
C611 C 0.53672 0.2851 0.82258 0.0
C612 C 0.48027 0.26748 0.81606 0.0
C613 C 0.44928 0.2728 0.81522 0.0
C614 C 0.44036 0.28698 0.82831 0.0
C615 C 0.41128 0.29223 0.82742 0.0
C616 C 0.3908 0.2832 0.81352 0.0
C617 C 0.39933 0.26882 0.80051 0.0
C618 C 0.42841 0.26355 0.80134 0.0
C619 C 0.51694 0.14552 0.81733 0.0
C620 C 0.50975 0.13384 0.80132 0.0
C621 C 0.51693 0.17653 0.82164 0.0
C622 C 0.50937 0.19627 0.81008 0.0
C623 C 0.5019 0.18469 0.79419 0.0
C624 C 0.50245 0.15405 0.78982 0.0
C625 C 0.50966 0.22929 0.81433 0.0
C626 C 0.48135 0.23636 0.81274 0.0
C627 C 0.53762 0.25383 0.81955 0.0
C628 C 0.56822 0.24775 0.82145 0.0
C629 C 0.57979 0.23621 0.80845 0.0
C630 C 0.6086 0.23039 0.81039 0.0
C631 C 0.62617 0.23626 0.82525 0.0
C632 C 0.61499 0.24805 0.83818 0.0
C633 C 0.58617 0.25388 0.83631 0.0
H634 H 0.64848 0.23175 0.82672 0.0
H635 H 0.36829 0.28729 0.81285 0.0
H636 H 0.63202 0.95231 0.5186 0.0
H637 H 0.63255 0.89705 0.52093 0.0
H638 H 0.5432 0.86307 0.49286 0.0
H639 H 0.54226 0.91827 0.49062 0.0
H640 H 0.54376 0.82851 0.51865 0.0
H641 H 0.6104 0.86268 0.47716 0.0
H642 H 0.65446 0.89802 0.46432 0.0
H643 H 0.71933 0.88247 0.50125 0.0
H644 H 0.67561 0.84739 0.51445 0.0
H645 H 0.54579 0.66739 0.51345 0.0
H646 H 0.54563 0.72061 0.50516 0.0
H647 H 0.6345 0.76331 0.53274 0.0
H648 H 0.63521 0.71021 0.54071 0.0
H649 H 0.63253 0.79225 0.50502 0.0
H650 H 0.56602 0.76169 0.54744 0.0
H651 H 0.52219 0.7269 0.56066 0.0
H652 H 0.45727 0.73626 0.52209 0.0
H653 H 0.50081 0.77076 0.50854 0.0
C654 C 0.61254 0.93315 0.51283 0.0
C655 C 0.58714 0.93987 0.50438 0.0
C656 C 0.61295 0.9015 0.51411 0.0
C657 C 0.58807 0.87582 0.50693 0.0
C658 C 0.5627 0.88244 0.49848 0.0
C659 C 0.56228 0.91409 0.49716 0.0
C660 C 0.58805 0.84206 0.50873 0.0
C661 C 0.56292 0.82045 0.51539 0.0
C662 C 0.61332 0.83161 0.5048 0.0
C663 C 0.63969 0.85262 0.49687 0.0
C664 C 0.63404 0.86699 0.48262 0.0
C665 C 0.65896 0.88694 0.47526 0.0
C666 C 0.68967 0.89255 0.48198 0.0
C667 C 0.69552 0.87814 0.49606 0.0
C668 C 0.67068 0.85819 0.50348 0.0
C669 C 0.5656 0.68804 0.51749 0.0
C670 C 0.59038 0.68454 0.52787 0.0
C671 C 0.56534 0.71851 0.51286 0.0
C672 C 0.58981 0.74609 0.51855 0.0
C673 C 0.61527 0.74247 0.52827 0.0
C674 C 0.61553 0.71208 0.53291 0.0
C675 C 0.58836 0.77883 0.51504 0.0
C676 C 0.61323 0.80026 0.50811 0.0
C677 C 0.56289 0.78916 0.51875 0.0
C678 C 0.53669 0.76848 0.52689 0.0
C679 C 0.54242 0.75611 0.54172 0.0
C680 C 0.51763 0.73648 0.54928 0.0
C681 C 0.48697 0.72929 0.54219 0.0
C682 C 0.48104 0.74179 0.52755 0.0
C683 C 0.50576 0.76139 0.51993 0.0
H684 H 0.4678 0.7141 0.54807 0.0
H685 H 0.70893 0.908 0.47627 0.0
H686 H 0.69615 0.48121 0.7845 0.0
H687 H 0.74355 0.47925 0.77317 0.0
H688 H 0.77741 0.45163 0.81845 0.0
H689 H 0.72972 0.45203 0.82945 0.0
H690 H 0.79499 0.51983 0.78185 0.0
H691 H 0.83252 0.42122 0.8185 0.0
H692 H 0.80982 0.36369 0.82288 0.0
H693 H 0.74664 0.3527 0.78052 0.0
H694 H 0.76927 0.41006 0.77568 0.0
H695 H 0.92253 0.57335 0.83357 0.0
H696 H 0.8736 0.54809 0.81724 0.0
H697 H 0.9186 0.49371 0.79023 0.0
H698 H 0.9682 0.51915 0.80686 0.0
H699 H 0.86379 0.45583 0.80012 0.0
H700 H 0.89181 0.54591 0.77 0.0
H701 H 0.91466 0.60267 0.76398 0.0
H702 H 0.84651 0.62767 0.78934 0.0
H703 H 0.82352 0.57121 0.79575 0.0
C704 C 0.71314 0.47336 0.7918 0.0
C705 C 0.70956 0.46737 0.80796 0.0
C706 C 0.74028 0.47234 0.78532 0.0
C707 C 0.76423 0.46535 0.7949 0.0
C708 C 0.75923 0.45652 0.81062 0.0
C709 C 0.73211 0.45731 0.81704 0.0
C710 C 0.79654 0.474 0.79009 0.0
C711 C 0.80993 0.50549 0.78545 0.0
C712 C 0.81609 0.45483 0.79387 0.0
C713 C 0.80274 0.4201 0.79669 0.0
C714 C 0.81405 0.40654 0.80999 0.0
C715 C 0.8011 0.37392 0.81259 0.0
C716 C 0.77682 0.35455 0.80199 0.0
C717 C 0.76543 0.36774 0.78874 0.0
C718 C 0.77829 0.40033 0.78607 0.0
C719 C 0.92209 0.55619 0.82409 0.0
C720 C 0.94897 0.54797 0.82153 0.0
C721 C 0.89422 0.54203 0.81463 0.0
C722 C 0.89258 0.51938 0.80235 0.0
C723 C 0.91952 0.51138 0.79955 0.0
C724 C 0.94771 0.5259 0.809 0.0
C725 C 0.86164 0.50246 0.79379 0.0
C726 C 0.84866 0.4695 0.79579 0.0
C727 C 0.84241 0.51999 0.78719 0.0
C728 C 0.85581 0.55415 0.78328 0.0
C729 C 0.88172 0.5635 0.77433 0.0
C730 C 0.89472 0.59565 0.77086 0.0
C731 C 0.88201 0.61875 0.77625 0.0
C732 C 0.85626 0.60973 0.78513 0.0
C733 C 0.84317 0.57761 0.78864 0.0
H734 H 0.89212 0.64363 0.77356 0.0
H735 H 0.76681 0.32932 0.80404 0.0
H736 H 0.22607 0.71696 0.15068 0.0
H737 H 0.2756 0.75976 0.15642 0.0
H738 H 0.22691 0.82129 0.17469 0.0
H739 H 0.1771 0.77924 0.16817 0.0
H740 H 0.26947 0.85406 0.15692 0.0
H741 H 0.26828 0.78233 0.19951 0.0
H742 H 0.2641 0.73031 0.21133 0.0
H743 H 0.34344 0.7245 0.18838 0.0
H744 H 0.34784 0.77632 0.17625 0.0
H745 H 0.39442 0.96742 0.20407 0.0
H746 H 0.34676 0.9252 0.19376 0.0
H747 H 0.40217 0.87398 0.17264 0.0
H748 H 0.45008 0.91609 0.18312 0.0
H749 H 0.35799 0.83545 0.19015 0.0
H750 H 0.36088 0.90998 0.14913 0.0
H751 H 0.36488 0.96264 0.1381 0.0
H752 H 0.28203 0.9639 0.15906 0.0
H753 H 0.27777 0.91144 0.17042 0.0
C754 C 0.2258 0.7397 0.15576 0.0
C755 C 0.19749 0.74454 0.15899 0.0
C756 C 0.25424 0.76406 0.15921 0.0
C757 C 0.25508 0.79366 0.16619 0.0
C758 C 0.22689 0.79865 0.16935 0.0
C759 C 0.19842 0.77439 0.16578 0.0
C760 C 0.28528 0.81949 0.17018 0.0
C761 C 0.28869 0.85006 0.16434 0.0
C762 C 0.31072 0.81413 0.17951 0.0
C763 C 0.30818 0.78303 0.18684 0.0
C764 C 0.28469 0.76984 0.19689 0.0
C765 C 0.2823 0.74041 0.20366 0.0
C766 C 0.30343 0.72407 0.20057 0.0
C767 C 0.32706 0.73717 0.19074 0.0
C768 C 0.32952 0.76657 0.18392 0.0
C769 C 0.39644 0.94726 0.19714 0.0
C770 C 0.42597 0.94502 0.19443 0.0
C771 C 0.36919 0.92326 0.19117 0.0
C772 C 0.37091 0.89652 0.18237 0.0
C773 C 0.40034 0.89446 0.17938 0.0
C774 C 0.42765 0.91862 0.18526 0.0
C775 C 0.34199 0.87002 0.17703 0.0
C776 C 0.33883 0.83935 0.18264 0.0
C777 C 0.31672 0.87535 0.16759 0.0
C778 C 0.31916 0.90688 0.16074 0.0
C779 C 0.34365 0.9216 0.1515 0.0
C780 C 0.34594 0.95139 0.14517 0.0
C781 C 0.32377 0.96664 0.1479 0.0
C782 C 0.29921 0.95208 0.15695 0.0
C783 C 0.29683 0.92229 0.16333 0.0
H784 H 0.32558 0.9897 0.14299 0.0
H785 H 0.30155 0.70129 0.20583 0.0
H786 H 0.52902 0.11561 0.51147 0.0
H787 H 0.52714 0.17065 0.5134 0.0
H788 H 0.62148 0.20582 0.50034 0.0
H789 H 0.62373 0.15093 0.49858 0.0
H790 H 0.6142 0.24056 0.52511 0.0
H791 H 0.55873 0.20423 0.47386 0.0
H792 H 0.51871 0.16783 0.45455 0.0
H793 H 0.44609 0.18327 0.48009 0.0
H794 H 0.48569 0.21944 0.49968 0.0
H795 H 0.61193 0.4008 0.51849 0.0
H796 H 0.6147 0.34776 0.5107 0.0
H797 H 0.52046 0.30438 0.52266 0.0
H798 H 0.51715 0.35728 0.5299 0.0
H799 H 0.52974 0.27486 0.49666 0.0
H800 H 0.58471 0.30749 0.54886 0.0
H801 H 0.62432 0.34321 0.5686 0.0
H802 H 0.69749 0.33399 0.54152 0.0
H803 H 0.65825 0.29854 0.5215 0.0
C804 C 0.54935 0.13501 0.50894 0.0
C805 C 0.57651 0.12873 0.50484 0.0
C806 C 0.54818 0.16651 0.50997 0.0
C807 C 0.57405 0.19245 0.50685 0.0
C808 C 0.6012 0.18626 0.50278 0.0
C809 C 0.6024 0.15478 0.50174 0.0
C810 C 0.57313 0.22606 0.50827 0.0
C811 C 0.59603 0.24819 0.51867 0.0
C812 C 0.54909 0.23595 0.50013 0.0
C813 C 0.5252 0.21434 0.48832 0.0
C814 C 0.53423 0.19969 0.47542 0.0
C815 C 0.51162 0.17912 0.46442 0.0
C816 C 0.47988 0.17318 0.46611 0.0
C817 C 0.47068 0.18787 0.4788 0.0
C818 C 0.4932 0.20843 0.48985 0.0
C819 C 0.59156 0.38005 0.51913 0.0
C820 C 0.56444 0.38331 0.525 0.0
C821 C 0.59328 0.34967 0.51483 0.0
C822 C 0.56801 0.32193 0.51639 0.0
C823 C 0.54036 0.32532 0.52144 0.0
C824 C 0.5386 0.35562 0.5257 0.0
C825 C 0.57068 0.28926 0.51358 0.0
C826 C 0.54808 0.2673 0.50297 0.0
C827 C 0.59494 0.27945 0.52156 0.0
C828 C 0.61854 0.30067 0.5336 0.0
C829 C 0.60924 0.31328 0.54706 0.0
C830 C 0.63162 0.33345 0.5583 0.0
C831 C 0.6634 0.34095 0.55629 0.0
C832 C 0.67286 0.32822 0.54305 0.0
C833 C 0.65057 0.30808 0.53175 0.0
H834 H 0.68069 0.35655 0.56501 0.0
H835 H 0.46241 0.15725 0.45758 0.0
H836 H 0.33665 0.55042 0.78125 0.0
H837 H 0.31068 0.59192 0.7812 0.0
H838 H 0.38046 0.64672 0.81788 0.0
H839 H 0.40661 0.60571 0.81775 0.0
H840 H 0.28431 0.60139 0.80564 0.0
H841 H 0.38317 0.72496 0.82006 0.0
H842 H 0.43278 0.75593 0.81028 0.0
H843 H 0.40743 0.70043 0.76597 0.0
H844 H 0.35713 0.66959 0.77529 0.0
H845 H 0.24702 0.684 0.86242 0.0
H846 H 0.28836 0.6768 0.84778 0.0
H847 H 0.25298 0.71565 0.80636 0.0
H848 H 0.21174 0.72419 0.82116 0.0
H849 H 0.32722 0.72 0.81262 0.0
H850 H 0.21918 0.64985 0.80217 0.0
H851 H 0.168 0.62249 0.81171 0.0
H852 H 0.21129 0.57179 0.84471 0.0
H853 H 0.26283 0.59937 0.83556 0.0
C854 C 0.34677 0.57174 0.78901 0.0
C855 C 0.37339 0.57479 0.79961 0.0
C856 C 0.33208 0.59549 0.7889 0.0
C857 C 0.34363 0.62252 0.7995 0.0
C858 C 0.37138 0.62647 0.80938 0.0
C859 C 0.38618 0.60286 0.8094 0.0
C860 C 0.32381 0.64293 0.80258 0.0
C861 C 0.29359 0.62737 0.8067 0.0
C862 C 0.3357 0.6769 0.80399 0.0
C863 C 0.36632 0.69481 0.79844 0.0
C864 C 0.38805 0.7194 0.80819 0.0
C865 C 0.41636 0.73696 0.80273 0.0
C866 C 0.42335 0.73016 0.78752 0.0
C867 C 0.402 0.70571 0.77775 0.0
C868 C 0.37358 0.68812 0.78314 0.0
C869 C 0.24888 0.69284 0.85053 0.0
C870 C 0.22546 0.70385 0.84282 0.0
C871 C 0.27266 0.68866 0.84215 0.0
C872 C 0.27327 0.6952 0.82596 0.0
C873 C 0.25276 0.71045 0.81886 0.0
C874 C 0.22899 0.71489 0.82729 0.0
C875 C 0.28884 0.67808 0.816 0.0
C876 C 0.31799 0.69413 0.81086 0.0
C877 C 0.27592 0.64455 0.81326 0.0
C878 C 0.24481 0.62677 0.81824 0.0
C879 C 0.21776 0.63294 0.81149 0.0
C880 C 0.18871 0.61743 0.81684 0.0
C881 C 0.1864 0.59546 0.82883 0.0
C882 C 0.21312 0.58883 0.83543 0.0
C883 C 0.24225 0.60437 0.83016 0.0
H884 H 0.1639 0.58354 0.83298 0.0
H885 H 0.44532 0.74378 0.78334 0.0
H886 H 0.865 0.37203 0.14096 0.0
H887 H 0.81845 0.33135 0.14855 0.0
H888 H 0.87635 0.27807 0.16988 0.0
H889 H 0.92295 0.31863 0.16235 0.0
H890 H 0.8262 0.23885 0.15254 0.0
H891 H 0.84556 0.32392 0.19265 0.0
H892 H 0.85425 0.37948 0.20262 0.0
H893 H 0.76434 0.37695 0.1802 0.0
H894 H 0.75529 0.32148 0.16991 0.0
H895 H 0.72488 0.13923 0.20319 0.0
H896 H 0.76712 0.17917 0.19174 0.0
H897 H 0.70092 0.22305 0.17036 0.0
H898 H 0.65849 0.18334 0.18204 0.0
H899 H 0.75251 0.26727 0.18583 0.0
H900 H 0.73189 0.18038 0.14729 0.0
H901 H 0.72345 0.12461 0.13777 0.0
H902 H 0.81595 0.13029 0.15765 0.0
H903 H 0.8248 0.18597 0.16749 0.0
C904 C 0.86784 0.35178 0.14738 0.0
C905 C 0.89771 0.34862 0.15107 0.0
C906 C 0.8412 0.32852 0.15169 0.0
C907 C 0.84392 0.30178 0.15991 0.0
C908 C 0.87367 0.29843 0.16349 0.0
C909 C 0.90029 0.32161 0.15915 0.0
C910 C 0.81584 0.27724 0.16482 0.0
C911 C 0.81026 0.24503 0.15995 0.0
C912 C 0.79455 0.28539 0.17414 0.0
C913 C 0.7999 0.31869 0.18036 0.0
C914 C 0.82775 0.33531 0.18973 0.0
C915 C 0.83272 0.36676 0.19547 0.0
C916 C 0.8099 0.38177 0.192 0.0
C917 C 0.78202 0.36531 0.18285 0.0
C918 C 0.77695 0.33386 0.17707 0.0
C919 C 0.71929 0.15734 0.19603 0.0
C920 C 0.68837 0.15818 0.19354 0.0
C921 C 0.74342 0.18001 0.18939 0.0
C922 C 0.73714 0.20396 0.1801 0.0
C923 C 0.70625 0.20471 0.17745 0.0
C924 C 0.68203 0.18189 0.18403 0.0
C925 C 0.76311 0.22886 0.17371 0.0
C926 C 0.7683 0.26113 0.1783 0.0
C927 C 0.7841 0.22075 0.16419 0.0
C928 C 0.77891 0.18728 0.15825 0.0
C929 C 0.75035 0.16966 0.14975 0.0
C930 C 0.7455 0.13807 0.14427 0.0
C931 C 0.76912 0.12389 0.14714 0.0
C932 C 0.79767 0.1413 0.15545 0.0
C933 C 0.80262 0.17289 0.16097 0.0
H934 H 0.76533 0.09943 0.14289 0.0
H935 H 0.81379 0.40612 0.19645 0.0
H936 H 0.04514 0.6034 0.08998 0.0
H937 H 0.05182 0.61159 0.06186 0.0
H938 H 0.04833 0.51279 0.05485 0.0
H939 H 0.0427 0.5047 0.0832 0.0
H940 H 0.09358 0.5494 0.04021 0.0
H941 H 0.98587 0.5404 0.04173 0.0
H942 H 0.94037 0.55226 0.05126 0.0
H943 H 0.97708 0.65022 0.03859 0.0
H944 H 1.02304 0.63906 0.02917 0.0
H945 H 0.07076 0.54838 0.95515 0.0
H946 H 0.06454 0.53811 0.98329 0.0
H947 H 0.08091 0.63899 -0.00654 0.0
H948 H 0.08685 0.64939 0.96528 0.0
H949 H 1.02822 0.59974 0.00606 0.0
H950 H 0.13654 0.60684 0.00455 0.0
H951 H 0.18057 0.5928 -0.00544 0.0
H952 H 0.13996 0.49494 0.00655 0.0
H953 H 0.09544 0.50831 0.01641 0.0
C954 C 0.04551 0.5833 0.08245 0.0
C955 C 0.04323 0.55334 0.0888 0.0
C956 C 0.04923 0.588 0.06634 0.0
C957 C 0.0501 0.56269 0.05616 0.0
C958 C 0.04768 0.53267 0.06246 0.0
C959 C 0.04436 0.52805 0.07865 0.0
C960 C 0.05444 0.56789 0.03906 0.0
C961 C 0.07894 0.55993 0.03269 0.0
C962 C 1.03572 0.58217 0.02928 0.0
C963 C 1.00804 0.58895 0.03487 0.0
C964 C 0.98436 0.56453 0.04108 0.0
C965 C 0.95846 0.57112 0.04644 0.0
C966 C 0.95587 0.60199 0.04556 0.0
C967 C 0.97913 0.62632 0.03928 0.0
C968 C 1.00509 0.61987 0.03391 0.0
C969 C 0.07311 0.56837 0.9634 0.0
C970 C 0.07925 0.59969 0.95804 0.0
C971 C 0.06974 0.56249 0.97947 0.0
C972 C 0.0724 0.58782 -0.00956 0.0
C973 C 0.07882 0.61915 0.98516 0.0
C974 C 0.08244 0.62508 0.96911 0.0
C975 C 0.0674 0.58145 0.00733 0.0
C976 C 0.04275 0.58914 0.01362 0.0
C977 C 0.0857 0.56656 0.01696 0.0
C978 C 0.1125 0.55852 0.01107 0.0
C979 C 0.13686 0.58227 0.00493 0.0
C980 C 0.16194 0.57444 -0.00068 0.0
C981 C 0.16302 0.54298 -0.00012 0.0
C982 C 0.13907 0.5193 0.0061 0.0
C983 C 0.11393 0.52699 0.01171 0.0
H984 H 0.18246 0.53697 -0.00447 0.0
H985 H 0.93581 0.60704 0.04973 0.0
H986 H 0.54272 0.04607 0.44892 0.0
H987 H 0.54567 0.04884 0.42026 0.0
H988 H 0.64165 0.0495 0.4266 0.0
H989 H 0.63904 0.0469 0.45548 0.0
H990 H 0.63192 0.09357 0.40492 0.0
H991 H 0.58797 0.98217 0.41395 0.0
H992 H 0.55171 0.93478 0.42481 0.0
H993 H 0.47383 0.95348 0.39848 0.0
H994 H 0.5096 0.0013 0.38764 0.0
H995 H 0.63411 0.05825 0.32157 0.0
H996 H 0.6388 0.05766 0.3507 0.0
H997 H 0.54172 0.05185 0.35061 0.0
H998 H 0.53691 0.05275 0.32158 0.0
H999 H 0.55594 0.00835 0.36938 0.0
H1000 H 0.59978 0.12115 0.36131 0.0
H1001 H 0.63594 0.16917 0.35089 0.0
H1002 H 0.71417 0.14808 0.37554 0.0
H1003 H 0.67847 0.0996 0.3859 0.0
C1004 C 0.56456 0.04696 0.44429 0.0
C1005 C 0.59059 0.04604 0.4545 0.0
C1006 C 0.56614 0.04843 0.42788 0.0
C1007 C 0.59374 0.04894 0.42131 0.0
C1008 C 0.6201 0.04899 0.43146 0.0
C1009 C 0.61851 0.04739 0.44793 0.0
C1010 C 0.59458 0.04881 0.4038 0.0
C1011 C 0.6157 0.07469 0.39712 0.0
C1012 C 0.57306 0.02438 0.39368 0.0
C1013 C 0.55146 0.99549 0.40008 0.0
C1014 C 0.56309 0.97632 0.41056 0.0
C1015 C 0.54263 0.94936 0.4167 0.0
C1016 C 0.51048 0.94117 0.41236 0.0
C1017 C 0.49874 0.95988 0.40184 0.0
C1018 C 0.5191 0.9869 0.39568 0.0
C1019 C 0.61387 0.05725 0.32777 0.0
C1020 C 0.5851 0.05543 0.31925 0.0
C1021 C 0.61658 0.05686 0.34441 0.0
C1022 C 0.59063 0.05483 0.35282 0.0
C1023 C 0.56199 0.05326 0.34435 0.0
C1024 C 0.55926 0.05365 0.32775 0.0
C1025 C 0.59287 0.05346 0.37042 0.0
C1026 C 0.57235 0.02716 0.37714 0.0
C1027 C 0.61497 0.0775 0.38053 0.0
C1028 C 0.63647 0.10651 0.37422 0.0
C1029 C 0.62471 0.12655 0.36437 0.0
C1030 C 0.64512 0.1539 0.3585 0.0
C1031 C 0.67734 0.16161 0.3625 0.0
C1032 C 0.68921 0.14203 0.37241 0.0
C1033 C 0.6689 0.11462 0.37829 0.0
H1034 H 0.6931 0.18281 0.35796 0.0
H1035 H 0.49467 0.92028 0.41713 0.0
H1036 H 0.57466 0.48611 0.78116 0.0
H1037 H 0.58266 0.49469 0.75309 0.0
H1038 H 0.4991 0.52288 0.74638 0.0
H1039 H 0.49129 0.51505 0.77447 0.0
H1040 H 0.54925 0.46719 0.72669 0.0
H1041 H 0.50695 0.5787 0.71867 0.0
H1042 H 0.50522 0.62556 0.73475 0.0
H1043 H 0.58408 0.62054 0.76576 0.0
H1044 H 0.58654 0.57393 0.74978 0.0
H1045 H 0.51648 0.48706 0.6451 0.0
H1046 H 0.51291 0.48345 0.67377 0.0
H1047 H 0.59449 0.56677 0.68244 0.0
H1048 H 0.59826 0.5705 0.65371 0.0
H1049 H 0.5506 0.56912 0.70164 0.0
H1050 H 0.60103 0.49299 0.68733 0.0
H1051 H 0.60762 0.44765 0.67191 0.0
H1052 H 0.52218 0.38522 0.68678 0.0
H1053 H 0.51485 0.43032 0.70211 0.0
C1054 C 0.55799 0.49416 0.77372 0.0
C1055 C 0.53238 0.49998 0.78006 0.0
C1056 C 0.56258 0.49902 0.75767 0.0
C1057 C 0.5417 0.5098 0.74767 0.0
C1058 C 0.51586 0.51515 0.75393 0.0
C1059 C 0.51134 0.51049 0.76999 0.0
C1060 C 0.54665 0.51492 0.73063 0.0
C1061 C 0.54957 0.48949 0.72123 0.0
C1062 C 0.54768 0.54424 0.72356 0.0
C1063 C 0.54676 0.57266 0.73308 0.0
C1064 C 0.52403 0.58771 0.72887 0.0
C1065 C 0.52291 0.61421 0.73797 0.0
C1066 C 0.54452 0.62601 0.75126 0.0
C1067 C 0.56732 0.61135 0.75547 0.0
C1068 C 0.56856 0.58486 0.74641 0.0
C1069 C 0.53375 0.50454 0.6531 0.0
C1070 C 0.55783 0.52889 0.64713 0.0
C1071 C 0.53163 0.5025 0.66948 0.0
C1072 C 0.55368 0.52458 0.68025 0.0
C1073 C 0.57723 0.54948 0.67433 0.0
C1074 C 0.57932 0.5516 0.65792 0.0
C1075 C 0.55253 0.52115 0.69768 0.0
C1076 C 0.55031 0.54685 0.70713 0.0
C1077 C 0.55285 0.49233 0.7049 0.0
C1078 C 0.55726 0.4651 0.69576 0.0
C1079 C 0.58353 0.46965 0.68722 0.0
C1080 C 0.58742 0.44398 0.67851 0.0
C1081 C 0.5653 0.41359 0.67834 0.0
C1082 C 0.53928 0.40878 0.68691 0.0
C1083 C 0.53526 0.43438 0.69563 0.0
H1084 H 0.56835 0.39375 0.67159 0.0
H1085 H 0.5436 0.64651 0.7583 0.0
H1086 H 0.60246 0.06706 0.55969 0.0
H1087 H 0.59604 0.0594 0.58792 0.0
H1088 H 0.53285 0.96389 0.5765 0.0
H1089 H 0.53821 0.97194 0.54816 0.0
H1090 H 0.51057 0.99031 0.59774 0.0
H1091 H 0.6109 0.97874 0.59271 0.0
H1092 H 0.66478 0.99369 0.58506 0.0
H1093 H 0.69026 0.07853 0.61589 0.0
H1094 H 0.6364 0.06432 0.62357 0.0
H1095 H 0.57319 0.96691 0.68499 0.0
H1096 H 0.57827 0.96838 0.65642 0.0
H1097 H 0.51877 0.02866 0.65125 0.0
H1098 H 0.51213 0.02583 0.67962 0.0
H1099 H 0.6024 0.01453 0.63816 0.0
H1100 H 0.47725 0.01511 0.6153 0.0
H1101 H 0.42331 0.99348 0.62265 0.0
H1102 H 0.44742 0.91806 0.64711 0.0
H1103 H 0.50135 0.93896 0.63972 0.0
C1104 C 0.58725 0.0444 0.56319 0.0
C1105 C 0.57091 0.02006 0.55171 0.0
C1106 C 0.58371 0.03998 0.57936 0.0
C1107 C 0.56436 0.01085 0.5844 0.0
C1108 C 0.54792 0.98657 0.57292 0.0
C1109 C 0.55105 0.99117 0.55673 0.0
C1110 C 0.5609 0.00592 0.6016 0.0
C1111 C 0.53067 0.99555 0.60656 0.0
C1112 C 0.58707 0.01203 0.61313 0.0
C1113 C 0.61954 0.02058 0.60861 0.0
C1114 C 0.62794 0.00069 0.59778 0.0
C1115 C 0.65848 0.00902 0.59345 0.0
C1116 C 0.68091 0.03708 0.59996 0.0
C1117 C 0.67285 0.05682 0.61085 0.0
C1118 C 0.64233 0.04862 0.61521 0.0
C1119 C 0.56074 0.98004 0.67774 0.0
C1120 C 0.54208 0.99608 0.68463 0.0
C1121 C 0.56395 0.98114 0.66143 0.0
C1122 C 0.54865 -0.00166 0.65164 0.0
C1123 C 0.53039 0.01477 0.6585 0.0
C1124 C 0.52693 0.01346 0.67479 0.0
C1125 C 0.55211 -0.00054 0.6343 0.0
C1126 C 0.58232 0.00917 0.62932 0.0
C1127 C 0.52592 0.99176 0.62272 0.0
C1128 C 0.49343 0.97881 0.62708 0.0
C1129 C 0.47101 0.99384 0.6222 0.0
C1130 C 0.44044 0.98172 0.62638 0.0
C1131 C 0.43197 0.95447 0.63539 0.0
C1132 C 0.45403 0.93923 0.64019 0.0
C1133 C 0.48461 0.95123 0.63602 0.0
H1134 H 0.4083 0.94514 0.63862 0.0
H1135 H 0.70454 0.04349 0.59659 0.0
H1136 H 0.46415 0.45851 0.87562 0.0
H1137 H 0.46061 0.45951 0.90448 0.0
H1138 H 0.55581 0.522 0.91194 0.0
H1139 H 0.55964 0.521 0.88334 0.0
H1140 H 0.54498 0.47379 0.93238 0.0
H1141 H 0.49514 0.55132 0.91376 0.0
H1142 H 0.45622 0.56937 0.89743 0.0
H1143 H 0.38185 0.49993 0.91786 0.0
H1144 H 0.42037 0.48116 0.93416 0.0
H1145 H 0.56155 0.54221 0.00961 0.0
H1146 H 0.55699 0.53382 0.98071 0.0
H1147 H 0.46134 0.4741 0.98129 0.0
H1148 H 0.46577 0.48236 0.01033 0.0
H1149 H 0.46772 0.51453 0.95682 0.0
H1150 H 0.51773 0.43993 0.97707 0.0
H1151 H 0.55669 0.42217 -0.00648 0.0
H1152 H 0.63052 0.48543 0.96997 0.0
H1153 H 0.59203 0.50395 0.95354 0.0
C1154 C 0.48433 0.47241 0.88342 0.0
C1155 C 0.51215 0.48971 0.87715 0.0
C1156 C 0.48223 0.47305 0.89989 0.0
C1157 C 0.50791 0.49099 0.91035 0.0
C1158 C 0.53573 0.50796 0.9041 0.0
C1159 C 0.53781 0.50744 0.88771 0.0
C1160 C 0.50621 0.49227 0.92783 0.0
C1161 C 0.52822 0.48291 0.93772 0.0
C1162 C 0.48376 0.50327 0.9348 0.0
C1163 C 0.46061 0.51458 0.92503 0.0
C1164 C 0.47048 0.53971 0.91467 0.0
C1165 C 0.4485 0.55011 0.90543 0.0
C1166 C 0.41658 0.53573 0.90656 0.0
C1167 C 0.40658 0.51099 0.91697 0.0
C1168 C 0.42848 0.50048 0.92621 0.0
C1169 C 0.53959 0.52711 0.00362 0.0
C1170 C 0.51413 0.51268 0.0123 0.0
C1171 C 0.53699 0.52238 -0.01291 0.0
C1172 C 0.50898 0.50289 0.97886 0.0
C1173 C 0.4832 0.48915 -0.0126 0.0
C1174 C 0.48576 0.49396 0.00399 0.0
C1175 C 0.50697 0.49674 0.96136 0.0
C1176 C 0.48425 0.50508 0.95148 0.0
C1177 C 0.52875 0.48474 0.95437 0.0
C1178 C 0.55199 0.4735 0.96415 0.0
C1179 C 0.54229 0.45022 0.97548 0.0
C1180 C 0.56429 0.44 0.98479 0.0
C1181 C 0.59607 0.45271 0.98281 0.0
C1182 C 0.6059 0.47562 0.97149 0.0
C1183 C 0.58399 0.48597 0.96216 0.0
H1184 H 0.61307 0.44476 -0.00996 0.0
H1185 H 0.3996 0.54382 0.89941 0.0
H1186 H 0.09207 0.5779 0.19171 0.0
H1187 H 0.09361 0.57614 0.22072 0.0
H1188 H 1.00411 0.50232 0.21622 0.0
H1189 H 1.00236 0.50381 0.18717 0.0
H1190 H 1.0085 0.55185 0.23866 0.0
H1191 H 0.06747 0.48173 0.22534 0.0
H1192 H 0.10917 0.46792 0.21274 0.0
H1193 H 0.17871 0.54408 0.24039 0.0
H1194 H 0.13738 0.55865 0.253 0.0
H1195 H 1.00591 0.50458 0.31828 0.0
H1196 H 1.00483 0.50567 0.28935 0.0
H1197 H 0.10036 0.5677 0.29383 0.0
H1198 H 0.10228 0.56515 0.32276 0.0
H1199 H 0.09314 0.52461 0.27114 0.0
H1200 H 1.03679 0.596 0.28437 0.0
H1201 H 0.99662 0.61323 0.29661 0.0
H1202 H 0.92423 0.53947 0.26906 0.0
H1203 H 0.96398 0.5215 0.25681 0.0
C1204 C 0.07272 0.56125 0.19687 0.0
C1205 C 0.04712 0.54093 0.18713 0.0
C1206 C 0.07369 0.56022 0.21345 0.0
C1207 C 0.04906 0.53896 0.22059 0.0
C1208 C 1.02336 0.51887 0.21092 0.0
C1209 C 1.02247 0.51968 0.19433 0.0
C1210 C 0.05005 0.5378 0.23817 0.0
C1211 C 1.02673 0.54547 0.24578 0.0
C1212 C 0.07443 0.53046 0.24743 0.0
C1213 C 0.09931 0.52146 0.24 0.0
C1214 C 0.09164 0.49568 0.22865 0.0
C1215 C 0.11521 0.48769 0.22152 0.0
C1216 C 0.14656 0.50516 0.22573 0.0
C1217 C 0.15441 0.53059 0.23712 0.0
C1218 C 0.13093 0.53871 0.24428 0.0
C1219 C 1.02685 0.51816 0.31315 0.0
C1220 C 0.05417 0.53484 0.32293 0.0
C1221 C 1.02606 0.51911 0.29657 0.0
C1222 C 0.05235 0.5372 0.28938 0.0
C1223 C 0.07972 0.5537 0.29908 0.0
C1224 C 0.08065 0.5525 0.31566 0.0
C1225 C 0.05148 0.53861 0.27175 0.0
C1226 C 0.07484 0.531 0.26409 0.0
C1227 C 1.02736 0.54646 0.26245 0.0
C1228 C 1.00338 0.5572 0.2698 0.0
C1229 C 1.0123 0.58328 0.28102 0.0
C1230 C 0.98961 0.59321 0.28794 0.0
C1231 C 0.9579 0.5774 0.28365 0.0
C1232 C 0.94881 0.55167 0.27239 0.0
C1233 C 0.97141 0.54161 0.26545 0.0
H1234 H 0.94036 0.58513 0.28901 0.0
H1235 H 0.16477 0.49895 0.22021 0.0
loop_
_geom_bond_atom_site_label_1
_geom_bond_atom_site_label_2
_geom_bond_distance
_geom_bond_site_symmetry_2
_ccdc_geom_bond_type
Dy0 O3 2.307 1_455 S
Dy0 O5 2.395 . S
Dy0 O6 2.379 . S
Dy0 O8 2.339 . S
Dy0 O10 2.298 . S
Dy0 O14 2.275 . S
Dy0 C22 2.738 . S
Dy1 O4 2.298 . S
Dy1 O7 2.275 1_655 S
Dy1 O9 2.307 1_655 S
Dy1 O11 2.395 . S
Dy1 O12 2.379 . S
Dy1 O15 2.339 . S
Dy1 C31 2.738 . S
C2 O14 1.254 . S
C2 O15 1.257 1_455 S
O3 Dy0 2.307 1_655 S
O3 C13 1.266 . S
O4 Dy1 2.298 . S
O4 C13 1.236 . S
O5 Dy0 2.395 . S
O5 C22 1.255 . S
O6 Dy0 2.379 . S
O6 C22 1.249 . S
O7 Dy1 2.275 1_455 S
O7 C23 1.254 . S
O8 Dy0 2.339 . S
O8 C23 1.257 . S
O9 Dy1 2.307 1_455 S
O9 C24 1.266 . S
O10 Dy0 2.298 . S
O10 C24 1.236 . S
O11 Dy1 2.395 . S
O11 C31 1.255 . S
O12 Dy1 2.379 . S
O12 C31 1.249 . S
C13 O3 1.266 . S
C13 O4 1.236 . S
O14 Dy0 2.275 . S
O14 C2 1.254 . S
O15 Dy1 2.339 . S
O15 C2 1.257 1_655 S
C16 C19 1.344 . S
C16 C20 1.328 . S
C16 C22 1.516 . S
C17 C18 1.304 . S
C17 C21 1.323 . S
C18 C17 1.304 . S
C18 C19 1.371 . S
C18 H32 0.930 . S
C19 C16 1.344 . S
C19 C18 1.371 . S
C19 H33 0.931 . S
C20 C16 1.328 . S
C20 C21 1.433 . S
C20 H34 0.931 . S
C21 C17 1.323 . S
C21 C20 1.433 . S
C21 H35 0.933 . S
C22 Dy0 2.738 . S
C22 O5 1.255 . S
C22 O6 1.249 . S
C22 C16 1.516 . S
C23 O7 1.254 . S
C23 O8 1.257 . S
C24 O9 1.266 . S
C24 O10 1.236 . S
C25 C28 1.344 . S
C25 C29 1.328 . S
C25 C31 1.516 . S
C26 C27 1.304 . S
C26 C30 1.323 . S
C27 C26 1.304 . S
C27 C28 1.371 . S
C27 H36 0.930 . S
C28 C25 1.344 . S
C28 C27 1.371 . S
C28 H37 0.931 . S
C29 C25 1.328 . S
C29 C30 1.433 . S
C29 H38 0.931 . S
C30 C26 1.323 . S
C30 C29 1.433 . S
C30 H39 0.933 . S
C31 Dy1 2.738 . S
C31 O11 1.255 . S
C31 O12 1.249 . S
C31 C25 1.516 . S
H32 C18 0.930 . S
H33 C19 0.931 . S
H34 C20 0.931 . S
H35 C21 0.933 . S
H36 C27 0.930 . S
H37 C28 0.931 . S
H38 C29 0.931 . S
H39 C30 0.933 . S
Dy40 O43 2.307 . S
Dy40 O45 2.395 1_545 S
Dy40 O46 2.379 1_545 S
Dy40 O48 2.339 . S
Dy40 O50 2.298 1_545 S
Dy40 O54 2.275 . S
Dy40 C62 2.738 1_545 S
Dy41 O44 2.298 . S
Dy41 O47 2.275 . S
Dy41 O49 2.307 1_545 S
Dy41 O51 2.395 . S
Dy41 O52 2.379 . S
Dy41 O55 2.339 . S
Dy41 C71 2.738 . S
C42 O54 1.254 . S
C42 O55 1.257 . S
O43 Dy40 2.307 . S
O43 C53 1.266 . S
O44 Dy41 2.298 . S
O44 C53 1.236 . S
O45 Dy40 2.395 1_565 S
O45 C62 1.255 . S
O46 Dy40 2.379 1_565 S
O46 C62 1.249 . S
O47 Dy41 2.275 . S
O47 C63 1.254 . S
O48 Dy40 2.339 . S
O48 C63 1.257 . S
O49 Dy41 2.307 1_565 S
O49 C64 1.266 . S
O50 Dy40 2.298 1_565 S
O50 C64 1.236 . S
O51 Dy41 2.395 . S
O51 C71 1.255 . S
O52 Dy41 2.379 . S
O52 C71 1.249 . S
C53 O43 1.266 . S
C53 O44 1.236 . S
O54 Dy40 2.275 . S
O54 C42 1.254 . S
O55 Dy41 2.339 . S
O55 C42 1.257 . S
C56 C59 1.344 . S
C56 C60 1.328 . S
C56 C62 1.516 . S
C57 C58 1.304 . S
C57 C61 1.323 . S
C58 C57 1.304 . S
C58 C59 1.371 . S
C58 H72 0.930 . S
C59 C56 1.344 . S
C59 C58 1.371 . S
C59 H73 0.931 . S
C60 C56 1.328 . S
C60 C61 1.433 . S
C60 H74 0.931 . S
C61 C57 1.323 . S
C61 C60 1.433 . S
C61 H75 0.933 . S
C62 Dy40 2.738 1_565 S
C62 O45 1.255 . S
C62 O46 1.249 . S
C62 C56 1.516 . S
C63 O47 1.254 . S
C63 O48 1.257 . S
C64 O49 1.266 . S
C64 O50 1.236 . S
C65 C68 1.344 . S
C65 C69 1.328 . S
C65 C71 1.516 . S
C66 C67 1.304 . S
C66 C70 1.323 . S
C67 C66 1.304 . S
C67 C68 1.371 . S
C67 H76 0.930 . S
C68 C65 1.344 . S
C68 C67 1.371 . S
C68 H77 0.931 . S
C69 C65 1.328 . S
C69 C70 1.433 . S
C69 H78 0.931 . S
C70 C66 1.323 . S
C70 C69 1.433 . S
C70 H79 0.933 . S
C71 Dy41 2.738 . S
C71 O51 1.255 . S
C71 O52 1.249 . S
C71 C65 1.516 . S
H72 C58 0.930 . S
H73 C59 0.931 . S
H74 C60 0.931 . S
H75 C61 0.933 . S
H76 C67 0.930 . S
H77 C68 0.931 . S
H78 C69 0.931 . S
H79 C70 0.933 . S
Dy80 O83 2.307 . S
Dy80 O85 2.395 . S
Dy80 O86 2.379 . S
Dy80 O88 2.339 . S
Dy80 O90 2.298 . S
Dy80 O94 2.275 . S
Dy80 C102 2.738 . S
Dy81 O84 2.298 . S
Dy81 O87 2.275 . S
Dy81 O89 2.307 . S
Dy81 O91 2.395 . S
Dy81 O92 2.379 . S
Dy81 O95 2.339 . S
Dy81 C111 2.738 . S
C82 O94 1.254 . S
C82 O95 1.257 . S
O83 Dy80 2.307 . S
O83 C93 1.266 . S
O84 Dy81 2.298 . S
O84 C93 1.236 . S
O85 Dy80 2.395 . S
O85 C102 1.255 . S
O86 Dy80 2.379 . S
O86 C102 1.249 . S
O87 Dy81 2.275 . S
O87 C103 1.254 . S
O88 Dy80 2.339 . S
O88 C103 1.257 . S
O89 Dy81 2.307 . S
O89 C104 1.266 . S
O90 Dy80 2.298 . S
O90 C104 1.236 . S
O91 Dy81 2.395 . S
O91 C111 1.255 . S
O92 Dy81 2.379 . S
O92 C111 1.249 . S
C93 O83 1.266 . S
C93 O84 1.236 . S
O94 Dy80 2.275 . S
O94 C82 1.254 . S
O95 Dy81 2.339 . S
O95 C82 1.257 . S
C96 C99 1.344 . S
C96 C100 1.328 . S
C96 C102 1.516 . S
C97 C98 1.304 . S
C97 C101 1.323 . S
C98 C97 1.304 . S
C98 C99 1.371 . S
C98 H112 0.930 . S
C99 C96 1.344 . S
C99 C98 1.371 . S
C99 H113 0.931 . S
C100 C96 1.328 . S
C100 C101 1.433 . S
C100 H114 0.931 . S
C101 C97 1.323 . S
C101 C100 1.433 . S
C101 H115 0.933 . S
C102 Dy80 2.738 . S
C102 O85 1.255 . S
C102 O86 1.249 . S
C102 C96 1.516 . S
C103 O87 1.254 . S
C103 O88 1.257 . S
C104 O89 1.266 . S
C104 O90 1.236 . S
C105 C108 1.344 . S
C105 C109 1.328 . S
C105 C111 1.516 . S
C106 C107 1.304 . S
C106 C110 1.323 . S
C107 C106 1.304 . S
C107 C108 1.371 . S
C107 H116 0.930 . S
C108 C105 1.344 . S
C108 C107 1.371 . S
C108 H117 0.931 . S
C109 C105 1.328 . S
C109 C110 1.433 . S
C109 H118 0.931 . S
C110 C106 1.323 . S
C110 C109 1.433 . S
C110 H119 0.933 . S
C111 Dy81 2.738 . S
C111 O91 1.255 . S
C111 O92 1.249 . S
C111 C105 1.516 . S
H112 C98 0.930 . S
H113 C99 0.931 . S
H114 C100 0.931 . S
H115 C101 0.933 . S
H116 C107 0.930 . S
H117 C108 0.931 . S
H118 C109 0.931 . S
H119 C110 0.933 . S
C120 C121 1.384 . S
C120 H133 0.947 . S
C120 C155 1.382 . S
C121 C120 1.384 . S
C121 C122 1.378 . S
C122 C121 1.378 . S
C122 C123 1.378 1_565 S
C122 H134 0.952 . S
C123 C122 1.378 1_545 S
C123 H135 0.950 . S
C123 C154 1.383 . S
H124 C143 0.947 . S
H125 C144 0.946 . S
H126 C146 0.953 . S
H127 C147 0.945 . S
H128 C149 0.952 . S
H129 C150 0.949 . S
H130 C152 0.950 . S
H131 C153 0.948 . S
H132 C155 0.951 . S
H133 C120 0.947 . S
H134 C122 0.952 . S
H135 C123 0.950 . S
N136 C139 1.382 . S
N136 C141 1.363 . S
N137 C139 1.371 . S
N137 C140 1.372 . S
N138 C140 1.361 . S
N138 C141 1.377 . S
C139 N136 1.382 . S
C139 N137 1.371 . S
C139 C142 1.480 . S
C140 N137 1.372 . S
C140 N138 1.361 . S
C140 C148 1.457 . S
C141 N136 1.363 . S
C141 N138 1.377 . S
C141 C154 1.479 . S
C142 C139 1.480 . S
C142 C143 1.383 . S
C142 C147 1.385 . S
C143 H124 0.947 . S
C143 C142 1.383 . S
C143 C144 1.388 . S
C144 H125 0.946 . S
C144 C143 1.388 . S
C144 C145 1.384 . S
C145 C144 1.384 . S
C145 C146 1.377 . S
C146 H126 0.953 . S
C146 C145 1.377 . S
C146 C147 1.369 . S
C147 H127 0.945 . S
C147 C142 1.385 . S
C147 C146 1.369 . S
C148 C140 1.457 . S
C148 C149 1.372 . S
C148 C153 1.364 . S
C149 H128 0.952 . S
C149 C148 1.372 . S
C149 C150 1.389 . S
C150 H129 0.949 . S
C150 C149 1.389 . S
C150 C151 1.387 . S
C151 C150 1.387 . S
C151 C152 1.372 . S
C152 H130 0.950 . S
C152 C151 1.372 . S
C152 C153 1.379 . S
C153 H131 0.948 . S
C153 C148 1.364 . S
C153 C152 1.379 . S
C154 C123 1.383 . S
C154 C141 1.479 . S
C154 C155 1.398 1_545 S
C155 C120 1.382 . S
C155 H132 0.951 . S
C155 C154 1.398 1_565 S
C156 C157 1.384 . S
C156 H169 0.947 . S
C156 C191 1.382 . S
C157 C156 1.384 . S
C157 C158 1.378 . S
C158 C157 1.378 . S
C158 C159 1.378 . S
C158 H170 0.952 . S
C159 C158 1.378 . S
C159 H171 0.950 . S
C159 C190 1.383 . S
H160 C179 0.947 . S
H161 C180 0.946 . S
H162 C182 0.953 . S
H163 C183 0.945 . S
H164 C185 0.952 . S
H165 C186 0.949 . S
H166 C188 0.950 . S
H167 C189 0.948 . S
H168 C191 0.951 . S
H169 C156 0.947 . S
H170 C158 0.952 . S
H171 C159 0.950 . S
N172 C175 1.382 . S
N172 C177 1.363 . S
N173 C175 1.371 . S
N173 C176 1.372 . S
N174 C176 1.361 . S
N174 C177 1.377 . S
C175 N172 1.382 . S
C175 N173 1.371 . S
C175 C178 1.480 . S
C176 N173 1.372 . S
C176 N174 1.361 . S
C176 C184 1.457 . S
C177 N172 1.363 . S
C177 N174 1.377 . S
C177 C190 1.479 . S
C178 C175 1.480 . S
C178 C179 1.383 . S
C178 C183 1.385 . S
C179 H160 0.947 . S
C179 C178 1.383 . S
C179 C180 1.388 . S
C180 H161 0.946 . S
C180 C179 1.388 . S
C180 C181 1.384 . S
C181 C180 1.384 . S
C181 C182 1.377 . S
C182 H162 0.953 . S
C182 C181 1.377 . S
C182 C183 1.369 . S
C183 H163 0.945 . S
C183 C178 1.385 . S
C183 C182 1.369 . S
C184 C176 1.457 . S
C184 C185 1.372 . S
C184 C189 1.364 . S
C185 H164 0.952 . S
C185 C184 1.372 . S
C185 C186 1.389 . S
C186 H165 0.949 . S
C186 C185 1.389 . S
C186 C187 1.387 . S
C187 C186 1.387 . S
C187 C188 1.372 . S
C188 H166 0.950 . S
C188 C187 1.372 . S
C188 C189 1.379 . S
C189 H167 0.948 . S
C189 C184 1.364 . S
C189 C188 1.379 . S
C190 C159 1.383 . S
C190 C177 1.479 . S
C190 C191 1.398 . S
C191 C156 1.382 . S
C191 H168 0.951 . S
C191 C190 1.398 . S
C192 C193 1.384 . S
C192 H205 0.947 . S
C192 C227 1.382 . S
C193 C192 1.384 . S
C193 C194 1.378 . S
C194 C193 1.378 . S
C194 C195 1.378 . S
C194 H206 0.952 . S
C195 C194 1.378 . S
C195 H207 0.950 . S
C195 C226 1.383 . S
H196 C215 0.947 . S
H197 C216 0.946 . S
H198 C218 0.953 . S
H199 C219 0.945 . S
H200 C221 0.952 . S
H201 C222 0.949 . S
H202 C224 0.951 . S
H203 C225 0.948 . S
H204 C227 0.951 . S
H205 C192 0.947 . S
H206 C194 0.952 . S
H207 C195 0.950 . S
N208 C211 1.382 . S
N208 C213 1.363 1_455 S
N209 C211 1.371 . S
N209 C212 1.372 . S
N210 C212 1.361 1_655 S
N210 C213 1.377 . S
C211 N208 1.382 . S
C211 N209 1.371 . S
C211 C214 1.480 . S
C212 N209 1.372 . S
C212 N210 1.361 1_455 S
C212 C220 1.457 . S
C213 N208 1.363 1_655 S
C213 N210 1.377 . S
C213 C226 1.479 . S
C214 C211 1.480 . S
C214 C215 1.383 . S
C214 C219 1.385 . S
C215 H196 0.947 . S
C215 C214 1.383 . S
C215 C216 1.388 . S
C216 H197 0.946 . S
C216 C215 1.388 . S
C216 C217 1.384 . S
C217 C216 1.384 . S
C217 C218 1.377 . S
C218 H198 0.953 . S
C218 C217 1.377 . S
C218 C219 1.369 . S
C219 H199 0.945 . S
C219 C214 1.385 . S
C219 C218 1.369 . S
C220 C212 1.457 . S
C220 C221 1.372 . S
C220 C225 1.364 1_455 S
C221 H200 0.952 . S
C221 C220 1.372 . S
C221 C222 1.389 . S
C222 H201 0.949 . S
C222 C221 1.389 . S
C222 C223 1.387 . S
C223 C222 1.387 . S
C223 C224 1.371 1_455 S
C224 H202 0.951 . S
C224 C223 1.371 1_655 S
C224 C225 1.379 . S
C225 H203 0.948 . S
C225 C220 1.364 1_655 S
C225 C224 1.379 . S
C226 C195 1.383 . S
C226 C213 1.479 . S
C226 C227 1.398 . S
C227 C192 1.382 . S
C227 H204 0.951 . S
C227 C226 1.398 . S
C228 C229 1.384 . S
C228 H241 0.947 . S
C228 C263 1.382 . S
C229 C228 1.384 . S
C229 C230 1.378 . S
C230 C229 1.378 . S
C230 C231 1.378 . S
C230 H242 0.952 . S
C231 C230 1.378 . S
C231 H243 0.950 . S
C231 C262 1.383 . S
H232 C251 0.947 . S
H233 C252 0.946 . S
H234 C254 0.953 . S
H235 C255 0.945 . S
H236 C257 0.952 . S
H237 C258 0.949 . S
H238 C260 0.950 . S
H239 C261 0.948 . S
H240 C263 0.951 . S
H241 C228 0.947 . S
H242 C230 0.952 . S
H243 C231 0.950 . S
N244 C247 1.382 1_455 S
N244 C249 1.363 . S
N245 C247 1.371 . S
N245 C248 1.372 1_655 S
N246 C248 1.361 . S
N246 C249 1.377 . S
C247 N244 1.382 1_655 S
C247 N245 1.371 . S
C247 C250 1.480 . S
C248 N245 1.372 1_455 S
C248 N246 1.361 . S
C248 C256 1.457 . S
C249 N244 1.363 . S
C249 N246 1.377 . S
C249 C262 1.479 . S
C250 C247 1.480 . S
C250 C251 1.383 . S
C250 C255 1.385 . S
C251 H232 0.947 . S
C251 C250 1.383 . S
C251 C252 1.388 . S
C252 H233 0.946 . S
C252 C251 1.388 . S
C252 C253 1.384 . S
C253 C252 1.384 . S
C253 C254 1.377 . S
C254 H234 0.953 . S
C254 C253 1.377 . S
C254 C255 1.369 . S
C255 H235 0.945 . S
C255 C250 1.385 . S
C255 C254 1.369 . S
C256 C248 1.457 . S
C256 C257 1.372 1_455 S
C256 C261 1.364 . S
C257 H236 0.952 . S
C257 C256 1.372 1_655 S
C257 C258 1.389 . S
C258 H237 0.949 . S
C258 C257 1.389 . S
C258 C259 1.387 1_655 S
C259 C258 1.387 1_455 S
C259 C260 1.372 . S
C260 H238 0.950 . S
C260 C259 1.372 . S
C260 C261 1.379 . S
C261 H239 0.948 . S
C261 C256 1.364 . S
C261 C260 1.379 . S
C262 C231 1.383 . S
C262 C249 1.479 . S
C262 C263 1.398 . S
C263 C228 1.382 . S
C263 H240 0.951 . S
C263 C262 1.398 . S
C264 C265 1.384 . S
C264 H277 0.947 . S
C264 C299 1.382 . S
C265 C264 1.384 . S
C265 C266 1.378 . S
C266 C265 1.378 . S
C266 C267 1.378 . S
C266 H278 0.952 . S
C267 C266 1.378 . S
C267 H279 0.950 . S
C267 C298 1.383 . S
H268 C287 0.947 . S
H269 C288 0.946 . S
H270 C290 0.953 . S
H271 C291 0.945 . S
H272 C293 0.952 . S
H273 C294 0.949 . S
H274 C296 0.950 . S
H275 C297 0.948 . S
H276 C299 0.951 . S
H277 C264 0.947 . S
H278 C266 0.952 . S
H279 C267 0.950 . S
N280 C283 1.382 1_545 S
N280 C285 1.363 . S
N281 C283 1.371 . S
N281 C284 1.372 1_565 S
N282 C284 1.361 . S
N282 C285 1.377 . S
C283 N280 1.382 1_565 S
C283 N281 1.371 . S
C283 C286 1.480 . S
C284 N281 1.372 1_545 S
C284 N282 1.361 . S
C284 C292 1.457 . S
C285 N280 1.363 . S
C285 N282 1.377 . S
C285 C298 1.479 . S
C286 C283 1.480 . S
C286 C287 1.383 . S
C286 C291 1.385 . S
C287 H268 0.947 . S
C287 C286 1.383 . S
C287 C288 1.388 . S
C288 H269 0.946 . S
C288 C287 1.388 . S
C288 C289 1.384 . S
C289 C288 1.384 . S
C289 C290 1.377 . S
C290 H270 0.953 . S
C290 C289 1.377 . S
C290 C291 1.369 . S
C291 H271 0.945 . S
C291 C286 1.385 . S
C291 C290 1.369 . S
C292 C284 1.457 . S
C292 C293 1.372 1_545 S
C292 C297 1.364 . S
C293 H272 0.952 . S
C293 C292 1.372 1_565 S
C293 C294 1.389 . S
C294 H273 0.949 . S
C294 C293 1.389 . S
C294 C295 1.387 1_565 S
C295 C294 1.387 1_545 S
C295 C296 1.372 . S
C296 H274 0.950 . S
C296 C295 1.372 . S
C296 C297 1.379 . S
C297 H275 0.948 . S
C297 C292 1.364 . S
C297 C296 1.379 . S
C298 C267 1.383 . S
C298 C285 1.479 . S
C298 C299 1.398 . S
C299 C264 1.382 . S
C299 H276 0.951 . S
C299 C298 1.398 . S
C300 C301 1.384 . S
C300 H313 0.947 . S
C300 C335 1.382 . S
C301 C300 1.384 . S
C301 C302 1.378 . S
C302 C301 1.378 . S
C302 C303 1.378 . S
C302 H314 0.952 . S
C303 C302 1.378 . S
C303 H315 0.950 . S
C303 C334 1.383 . S
H304 C323 0.947 . S
H305 C324 0.946 . S
H306 C326 0.953 . S
H307 C327 0.945 . S
H308 C329 0.952 . S
H309 C330 0.949 . S
H310 C332 0.950 . S
H311 C333 0.948 . S
H312 C335 0.951 . S
H313 C300 0.947 . S
H314 C302 0.952 . S
H315 C303 0.950 . S
N316 C319 1.382 . S
N316 C321 1.363 . S
N317 C319 1.371 . S
N317 C320 1.372 . S
N318 C320 1.361 . S
N318 C321 1.377 . S
C319 N316 1.382 . S
C319 N317 1.371 . S
C319 C322 1.480 . S
C320 N317 1.372 . S
C320 N318 1.361 . S
C320 C328 1.457 . S
C321 N316 1.363 . S
C321 N318 1.377 . S
C321 C334 1.479 . S
C322 C319 1.480 . S
C322 C323 1.383 . S
C322 C327 1.385 . S
C323 H304 0.947 . S
C323 C322 1.383 . S
C323 C324 1.388 . S
C324 H305 0.946 . S
C324 C323 1.388 . S
C324 C325 1.384 . S
C325 C324 1.384 . S
C325 C326 1.377 . S
C326 H306 0.953 . S
C326 C325 1.377 . S
C326 C327 1.369 . S
C327 H307 0.945 . S
C327 C322 1.385 . S
C327 C326 1.369 . S
C328 C320 1.457 . S
C328 C329 1.372 . S
C328 C333 1.364 . S
C329 H308 0.952 . S
C329 C328 1.372 . S
C329 C330 1.389 . S
C330 H309 0.949 . S
C330 C329 1.389 . S
C330 C331 1.387 . S
C331 C330 1.387 . S
C331 C332 1.372 . S
C332 H310 0.950 . S
C332 C331 1.372 . S
C332 C333 1.379 . S
C333 H311 0.948 . S
C333 C328 1.364 . S
C333 C332 1.379 . S
C334 C303 1.383 . S
C334 C321 1.479 . S
C334 C335 1.398 . S
C335 C300 1.382 . S
C335 H312 0.951 . S
C335 C334 1.398 . S
H336 C354 0.951 . S
H337 C356 0.951 . S
H338 C358 0.950 . S
H339 C359 0.950 . S
H340 C361 0.950 . S
H341 C364 0.950 . S
H342 C365 0.950 . S
H343 C367 0.950 . S
H344 C368 0.950 . S
H345 C369 0.951 . S
H346 C371 0.951 . S
H347 C373 0.950 . S
H348 C374 0.950 . S
H349 C376 0.950 . S
H350 C379 0.950 . S
H351 C380 0.950 . S
H352 C382 0.950 . S
H353 C383 0.950 . S
C354 H336 0.951 . S
C354 C355 1.366 . S
C354 C356 1.388 . S
C355 C354 1.366 . S
C355 C359 1.385 . S
C356 H337 0.951 . S
C356 C354 1.388 . S
C356 C357 1.366 . S
C357 C356 1.366 . S
C357 C358 1.414 . S
C357 C360 1.499 . S
C358 H338 0.950 . S
C358 C357 1.414 . S
C358 C359 1.374 . S
C359 H339 0.950 . S
C359 C355 1.385 . S
C359 C358 1.374 . S
C360 C357 1.499 . S
C360 C361 1.373 . S
C360 C362 1.389 . S
C361 H340 0.950 . S
C361 C360 1.373 . S
C361 C377 1.377 . S
C362 C360 1.389 . S
C362 C363 1.524 . S
C362 C376 1.377 . S
C363 C362 1.524 . S
C363 C364 1.397 . S
C363 C368 1.363 . S
C364 H341 0.950 . S
C364 C363 1.397 . S
C364 C365 1.334 . S
C365 H342 0.950 . S
C365 C364 1.334 . S
C365 C366 1.287 . S
C366 C365 1.287 . S
C366 C367 1.524 . S
C366 H385 0.913 . S
C367 H343 0.950 . S
C367 C366 1.524 . S
C367 C368 1.415 . S
C368 H344 0.950 . S
C368 C363 1.363 . S
C368 C367 1.415 . S
C369 H345 0.951 . S
C369 C370 1.366 . S
C369 C371 1.388 . S
C370 C369 1.366 . S
C370 C374 1.385 . S
C371 H346 0.951 . S
C371 C369 1.388 . S
C371 C372 1.366 . S
C372 C371 1.366 . S
C372 C373 1.414 . S
C372 C375 1.499 . S
C373 H347 0.950 . S
C373 C372 1.414 . S
C373 C374 1.374 . S
C374 H348 0.950 . S
C374 C370 1.385 . S
C374 C373 1.374 . S
C375 C372 1.499 . S
C375 C376 1.373 . S
C375 C377 1.389 . S
C376 H349 0.950 . S
C376 C362 1.377 . S
C376 C375 1.373 . S
C377 C361 1.377 . S
C377 C375 1.389 . S
C377 C378 1.524 . S
C378 C377 1.524 . S
C378 C379 1.397 . S
C378 C383 1.363 . S
C379 H350 0.950 . S
C379 C378 1.397 . S
C379 C380 1.334 . S
C380 H351 0.950 . S
C380 C379 1.334 . S
C380 C381 1.287 . S
C381 C380 1.287 . S
C381 C382 1.524 . S
C381 H384 0.999 . S
C382 H352 0.950 . S
C382 C381 1.524 . S
C382 C383 1.415 . S
C383 H353 0.950 . S
C383 C378 1.363 . S
C383 C382 1.415 . S
H384 C381 0.999 . S
H385 C366 0.913 . S
H386 C404 0.951 . S
H387 C406 0.951 . S
H388 C408 0.950 . S
H389 C409 0.950 . S
H390 C411 0.950 . S
H391 C414 0.950 . S
H392 C415 0.950 . S
H393 C417 0.950 . S
H394 C418 0.950 . S
H395 C419 0.951 . S
H396 C421 0.951 . S
H397 C423 0.950 . S
H398 C424 0.950 . S
H399 C426 0.950 . S
H400 C429 0.950 . S
H401 C430 0.950 . S
H402 C432 0.950 . S
H403 C433 0.950 . S
C404 H386 0.951 . S
C404 C405 1.366 . S
C404 C406 1.388 . S
C405 C404 1.366 . S
C405 C409 1.385 . S
C406 H387 0.951 . S
C406 C404 1.388 . S
C406 C407 1.366 . S
C407 C406 1.366 . S
C407 C408 1.414 . S
C407 C410 1.499 . S
C408 H388 0.950 . S
C408 C407 1.414 . S
C408 C409 1.374 . S
C409 H389 0.950 . S
C409 C405 1.385 . S
C409 C408 1.374 . S
C410 C407 1.499 . S
C410 C411 1.373 . S
C410 C412 1.389 . S
C411 H390 0.950 . S
C411 C410 1.373 . S
C411 C427 1.377 . S
C412 C410 1.389 . S
C412 C413 1.524 . S
C412 C426 1.377 . S
C413 C412 1.524 . S
C413 C414 1.397 . S
C413 C418 1.363 . S
C414 H391 0.950 . S
C414 C413 1.397 . S
C414 C415 1.334 . S
C415 H392 0.950 . S
C415 C414 1.334 . S
C415 C416 1.287 . S
C416 C415 1.287 . S
C416 C417 1.524 . S
C416 H435 0.913 . S
C417 H393 0.950 . S
C417 C416 1.524 . S
C417 C418 1.415 . S
C418 H394 0.950 . S
C418 C413 1.363 . S
C418 C417 1.415 . S
C419 H395 0.951 . S
C419 C420 1.366 . S
C419 C421 1.388 . S
C420 C419 1.366 . S
C420 C424 1.385 . S
C421 H396 0.951 . S
C421 C419 1.388 . S
C421 C422 1.366 . S
C422 C421 1.366 . S
C422 C423 1.414 . S
C422 C425 1.499 . S
C423 H397 0.950 . S
C423 C422 1.414 . S
C423 C424 1.374 . S
C424 H398 0.950 . S
C424 C420 1.385 . S
C424 C423 1.374 . S
C425 C422 1.499 . S
C425 C426 1.373 . S
C425 C427 1.389 . S
C426 H399 0.950 . S
C426 C412 1.377 . S
C426 C425 1.373 . S
C427 C411 1.377 . S
C427 C425 1.389 . S
C427 C428 1.524 . S
C428 C427 1.524 . S
C428 C429 1.397 . S
C428 C433 1.363 . S
C429 H400 0.950 . S
C429 C428 1.397 . S
C429 C430 1.334 . S
C430 H401 0.950 . S
C430 C429 1.334 . S
C430 C431 1.287 . S
C431 C430 1.287 . S
C431 C432 1.524 . S
C431 H434 0.999 . S
C432 H402 0.950 . S
C432 C431 1.524 . S
C432 C433 1.415 . S
C433 H403 0.950 . S
C433 C428 1.363 . S
C433 C432 1.415 . S
H434 C431 0.999 . S
H435 C416 0.913 . S
H436 C454 0.951 . S
H437 C456 0.951 . S
H438 C458 0.950 . S
H439 C459 0.950 . S
H440 C461 0.950 . S
H441 C464 0.950 . S
H442 C465 0.950 . S
H443 C467 0.950 . S
H444 C468 0.950 . S
H445 C469 0.951 . S
H446 C471 0.951 . S
H447 C473 0.950 . S
H448 C474 0.950 . S
H449 C476 0.950 . S
H450 C479 0.950 . S
H451 C480 0.950 . S
H452 C482 0.950 . S
H453 C483 0.950 . S
C454 H436 0.951 . S
C454 C455 1.366 . S
C454 C456 1.388 . S
C455 C454 1.366 . S
C455 C459 1.385 . S
C456 H437 0.951 . S
C456 C454 1.388 . S
C456 C457 1.366 . S
C457 C456 1.366 . S
C457 C458 1.414 . S
C457 C460 1.499 . S
C458 H438 0.950 . S
C458 C457 1.414 . S
C458 C459 1.374 . S
C459 H439 0.950 . S
C459 C455 1.385 . S
C459 C458 1.374 . S
C460 C457 1.499 . S
C460 C461 1.373 . S
C460 C462 1.389 . S
C461 H440 0.950 . S
C461 C460 1.373 . S
C461 C477 1.377 . S
C462 C460 1.389 . S
C462 C463 1.524 . S
C462 C476 1.377 . S
C463 C462 1.524 . S
C463 C464 1.397 . S
C463 C468 1.363 . S
C464 H441 0.950 . S
C464 C463 1.397 . S
C464 C465 1.334 . S
C465 H442 0.950 . S
C465 C464 1.334 . S
C465 C466 1.287 . S
C466 C465 1.287 . S
C466 C467 1.524 . S
C466 H485 0.913 . S
C467 H443 0.950 . S
C467 C466 1.524 . S
C467 C468 1.415 . S
C468 H444 0.950 . S
C468 C463 1.363 . S
C468 C467 1.415 . S
C469 H445 0.951 . S
C469 C470 1.366 . S
C469 C471 1.388 . S
C470 C469 1.366 . S
C470 C474 1.385 . S
C471 H446 0.951 . S
C471 C469 1.388 . S
C471 C472 1.366 . S
C472 C471 1.366 . S
C472 C473 1.414 . S
C472 C475 1.499 . S
C473 H447 0.950 . S
C473 C472 1.414 . S
C473 C474 1.374 . S
C474 H448 0.950 . S
C474 C470 1.385 . S
C474 C473 1.374 . S
C475 C472 1.499 . S
C475 C476 1.373 . S
C475 C477 1.389 . S
C476 H449 0.950 . S
C476 C462 1.377 . S
C476 C475 1.373 . S
C477 C461 1.377 . S
C477 C475 1.389 . S
C477 C478 1.524 . S
C478 C477 1.524 . S
C478 C479 1.397 . S
C478 C483 1.363 . S
C479 H450 0.950 . S
C479 C478 1.397 . S
C479 C480 1.334 . S
C480 H451 0.950 . S
C480 C479 1.334 . S
C480 C481 1.287 . S
C481 C480 1.287 . S
C481 C482 1.524 . S
C481 H484 0.999 . S
C482 H452 0.950 . S
C482 C481 1.524 . S
C482 C483 1.415 . S
C483 H453 0.950 . S
C483 C478 1.363 . S
C483 C482 1.415 . S
H484 C481 0.999 . S
H485 C466 0.913 . S
H486 C504 0.951 . S
H487 C506 0.951 . S
H488 C508 0.950 . S
H489 C509 0.950 . S
H490 C511 0.950 . S
H491 C514 0.950 . S
H492 C515 0.950 . S
H493 C517 0.950 . S
H494 C518 0.950 . S
H495 C519 0.951 . S
H496 C521 0.951 . S
H497 C523 0.950 . S
H498 C524 0.950 . S
H499 C526 0.950 . S
H500 C529 0.950 . S
H501 C530 0.950 . S
H502 C532 0.950 . S
H503 C533 0.950 . S
C504 H486 0.951 . S
C504 C505 1.366 . S
C504 C506 1.388 . S
C505 C504 1.366 . S
C505 C509 1.385 . S
C506 H487 0.951 . S
C506 C504 1.388 . S
C506 C507 1.366 . S
C507 C506 1.366 . S
C507 C508 1.414 . S
C507 C510 1.499 . S
C508 H488 0.950 . S
C508 C507 1.414 . S
C508 C509 1.374 . S
C509 H489 0.950 . S
C509 C505 1.385 . S
C509 C508 1.374 . S
C510 C507 1.499 . S
C510 C511 1.373 . S
C510 C512 1.389 . S
C511 H490 0.950 . S
C511 C510 1.373 . S
C511 C527 1.377 . S
C512 C510 1.389 . S
C512 C513 1.524 . S
C512 C526 1.377 . S
C513 C512 1.524 . S
C513 C514 1.397 . S
C513 C518 1.363 . S
C514 H491 0.950 . S
C514 C513 1.397 . S
C514 C515 1.334 . S
C515 H492 0.950 . S
C515 C514 1.334 . S
C515 C516 1.287 . S
C516 C515 1.287 . S
C516 C517 1.524 . S
C516 H535 0.913 . S
C517 H493 0.950 . S
C517 C516 1.524 . S
C517 C518 1.415 . S
C518 H494 0.950 . S
C518 C513 1.363 . S
C518 C517 1.415 . S
C519 H495 0.951 . S
C519 C520 1.366 . S
C519 C521 1.388 . S
C520 C519 1.366 . S
C520 C524 1.385 . S
C521 H496 0.951 . S
C521 C519 1.388 . S
C521 C522 1.366 . S
C522 C521 1.366 . S
C522 C523 1.414 . S
C522 C525 1.499 . S
C523 H497 0.950 . S
C523 C522 1.414 . S
C523 C524 1.374 . S
C524 H498 0.950 . S
C524 C520 1.385 . S
C524 C523 1.374 . S
C525 C522 1.499 . S
C525 C526 1.373 . S
C525 C527 1.389 . S
C526 H499 0.950 . S
C526 C512 1.377 . S
C526 C525 1.373 . S
C527 C511 1.377 . S
C527 C525 1.389 . S
C527 C528 1.524 . S
C528 C527 1.524 . S
C528 C529 1.397 . S
C528 C533 1.363 . S
C529 H500 0.950 . S
C529 C528 1.397 . S
C529 C530 1.334 . S
C530 H501 0.950 . S
C530 C529 1.334 . S
C530 C531 1.287 . S
C531 C530 1.287 . S
C531 C532 1.524 . S
C531 H534 0.999 . S
C532 H502 0.950 . S
C532 C531 1.524 . S
C532 C533 1.415 . S
C533 H503 0.950 . S
C533 C528 1.363 . S
C533 C532 1.415 . S
H534 C531 0.999 . S
H535 C516 0.913 . S
H536 C554 0.951 . S
H537 C556 0.951 . S
H538 C558 0.950 . S
H539 C559 0.950 . S
H540 C561 0.950 . S
H541 C564 0.950 . S
H542 C565 0.950 . S
H543 C567 0.950 . S
H544 C568 0.950 . S
H545 C569 0.951 . S
H546 C571 0.951 . S
H547 C573 0.950 . S
H548 C574 0.950 . S
H549 C576 0.950 . S
H550 C579 0.950 . S
H551 C580 0.950 . S
H552 C582 0.950 . S
H553 C583 0.950 . S
C554 H536 0.951 . S
C554 C555 1.366 . S
C554 C556 1.388 . S
C555 C554 1.366 . S
C555 C559 1.385 . S
C556 H537 0.951 . S
C556 C554 1.388 . S
C556 C557 1.366 . S
C557 C556 1.366 . S
C557 C558 1.414 . S
C557 C560 1.499 . S
C558 H538 0.950 . S
C558 C557 1.414 . S
C558 C559 1.374 . S
C559 H539 0.950 . S
C559 C555 1.385 . S
C559 C558 1.374 . S
C560 C557 1.499 . S
C560 C561 1.373 . S
C560 C562 1.389 . S
C561 H540 0.950 . S
C561 C560 1.373 . S
C561 C577 1.377 . S
C562 C560 1.389 . S
C562 C563 1.524 . S
C562 C576 1.377 . S
C563 C562 1.524 . S
C563 C564 1.397 . S
C563 C568 1.363 . S
C564 H541 0.950 . S
C564 C563 1.397 . S
C564 C565 1.334 . S
C565 H542 0.950 . S
C565 C564 1.334 . S
C565 C566 1.287 . S
C566 C565 1.287 . S
C566 C567 1.524 . S
C566 H585 0.913 . S
C567 H543 0.950 . S
C567 C566 1.524 . S
C567 C568 1.415 . S
C568 H544 0.950 . S
C568 C563 1.363 . S
C568 C567 1.415 . S
C569 H545 0.951 . S
C569 C570 1.366 . S
C569 C571 1.388 . S
C570 C569 1.366 . S
C570 C574 1.385 . S
C571 H546 0.951 . S
C571 C569 1.388 . S
C571 C572 1.366 . S
C572 C571 1.366 . S
C572 C573 1.414 . S
C572 C575 1.499 . S
C573 H547 0.950 . S
C573 C572 1.414 . S
C573 C574 1.374 . S
C574 H548 0.950 . S
C574 C570 1.385 . S
C574 C573 1.374 . S
C575 C572 1.499 . S
C575 C576 1.373 . S
C575 C577 1.389 . S
C576 H549 0.950 . S
C576 C562 1.377 . S
C576 C575 1.373 . S
C577 C561 1.377 . S
C577 C575 1.389 . S
C577 C578 1.524 . S
C578 C577 1.524 . S
C578 C579 1.397 . S
C578 C583 1.363 . S
C579 H550 0.950 . S
C579 C578 1.397 . S
C579 C580 1.334 . S
C580 H551 0.950 . S
C580 C579 1.334 . S
C580 C581 1.287 . S
C581 C580 1.287 . S
C581 C582 1.524 . S
C581 H584 0.999 . S
C582 H552 0.950 . S
C582 C581 1.524 . S
C582 C583 1.415 . S
C583 H553 0.950 . S
C583 C578 1.363 . S
C583 C582 1.415 . S
H584 C581 0.999 . S
H585 C566 0.913 . S
H586 C604 0.951 . S
H587 C606 0.951 . S
H588 C608 0.950 . S
H589 C609 0.950 . S
H590 C611 0.950 . S
H591 C614 0.950 . S
H592 C615 0.950 . S
H593 C617 0.950 . S
H594 C618 0.950 . S
H595 C619 0.951 . S
H596 C621 0.951 . S
H597 C623 0.950 . S
H598 C624 0.950 . S
H599 C626 0.950 . S
H600 C629 0.950 . S
H601 C630 0.950 . S
H602 C632 0.950 . S
H603 C633 0.950 . S
C604 H586 0.951 . S
C604 C605 1.366 . S
C604 C606 1.388 . S
C605 C604 1.366 . S
C605 C609 1.385 . S
C606 H587 0.951 . S
C606 C604 1.388 . S
C606 C607 1.366 . S
C607 C606 1.366 . S
C607 C608 1.414 . S
C607 C610 1.499 . S
C608 H588 0.950 . S
C608 C607 1.414 . S
C608 C609 1.374 . S
C609 H589 0.950 . S
C609 C605 1.385 . S
C609 C608 1.374 . S
C610 C607 1.499 . S
C610 C611 1.373 . S
C610 C612 1.389 . S
C611 H590 0.950 . S
C611 C610 1.373 . S
C611 C627 1.377 . S
C612 C610 1.389 . S
C612 C613 1.524 . S
C612 C626 1.377 . S
C613 C612 1.524 . S
C613 C614 1.397 . S
C613 C618 1.363 . S
C614 H591 0.950 . S
C614 C613 1.397 . S
C614 C615 1.334 . S
C615 H592 0.950 . S
C615 C614 1.334 . S
C615 C616 1.287 . S
C616 C615 1.287 . S
C616 C617 1.524 . S
C616 H635 0.913 . S
C617 H593 0.950 . S
C617 C616 1.524 . S
C617 C618 1.415 . S
C618 H594 0.950 . S
C618 C613 1.363 . S
C618 C617 1.415 . S
C619 H595 0.951 . S
C619 C620 1.366 . S
C619 C621 1.388 . S
C620 C619 1.366 . S
C620 C624 1.385 . S
C621 H596 0.951 . S
C621 C619 1.388 . S
C621 C622 1.366 . S
C622 C621 1.366 . S
C622 C623 1.414 . S
C622 C625 1.499 . S
C623 H597 0.950 . S
C623 C622 1.414 . S
C623 C624 1.374 . S
C624 H598 0.950 . S
C624 C620 1.385 . S
C624 C623 1.374 . S
C625 C622 1.499 . S
C625 C626 1.373 . S
C625 C627 1.389 . S
C626 H599 0.950 . S
C626 C612 1.377 . S
C626 C625 1.373 . S
C627 C611 1.377 . S
C627 C625 1.389 . S
C627 C628 1.524 . S
C628 C627 1.524 . S
C628 C629 1.397 . S
C628 C633 1.363 . S
C629 H600 0.950 . S
C629 C628 1.397 . S
C629 C630 1.334 . S
C630 H601 0.950 . S
C630 C629 1.334 . S
C630 C631 1.287 . S
C631 C630 1.287 . S
C631 C632 1.524 . S
C631 H634 0.999 . S
C632 H602 0.950 . S
C632 C631 1.524 . S
C632 C633 1.415 . S
C633 H603 0.950 . S
C633 C628 1.363 . S
C633 C632 1.415 . S
H634 C631 0.999 . S
H635 C616 0.913 . S
H636 C654 0.951 . S
H637 C656 0.951 . S
H638 C658 0.950 . S
H639 C659 0.950 . S
H640 C661 0.950 . S
H641 C664 0.950 . S
H642 C665 0.950 . S
H643 C667 0.950 . S
H644 C668 0.950 . S
H645 C669 0.951 . S
H646 C671 0.951 . S
H647 C673 0.950 . S
H648 C674 0.950 . S
H649 C676 0.950 . S
H650 C679 0.950 . S
H651 C680 0.950 . S
H652 C682 0.950 . S
H653 C683 0.950 . S
C654 H636 0.951 . S
C654 C655 1.366 . S
C654 C656 1.388 . S
C655 C654 1.366 . S
C655 C659 1.385 . S
C656 H637 0.951 . S
C656 C654 1.388 . S
C656 C657 1.366 . S
C657 C656 1.366 . S
C657 C658 1.414 . S
C657 C660 1.499 . S
C658 H638 0.950 . S
C658 C657 1.414 . S
C658 C659 1.374 . S
C659 H639 0.950 . S
C659 C655 1.385 . S
C659 C658 1.374 . S
C660 C657 1.499 . S
C660 C661 1.373 . S
C660 C662 1.389 . S
C661 H640 0.950 . S
C661 C660 1.373 . S
C661 C677 1.377 . S
C662 C660 1.389 . S
C662 C663 1.524 . S
C662 C676 1.377 . S
C663 C662 1.524 . S
C663 C664 1.397 . S
C663 C668 1.363 . S
C664 H641 0.950 . S
C664 C663 1.397 . S
C664 C665 1.334 . S
C665 H642 0.950 . S
C665 C664 1.334 . S
C665 C666 1.287 . S
C666 C665 1.287 . S
C666 C667 1.524 . S
C666 H685 0.913 . S
C667 H643 0.950 . S
C667 C666 1.524 . S
C667 C668 1.415 . S
C668 H644 0.950 . S
C668 C663 1.363 . S
C668 C667 1.415 . S
C669 H645 0.951 . S
C669 C670 1.366 . S
C669 C671 1.388 . S
C670 C669 1.366 . S
C670 C674 1.385 . S
C671 H646 0.951 . S
C671 C669 1.388 . S
C671 C672 1.366 . S
C672 C671 1.366 . S
C672 C673 1.414 . S
C672 C675 1.499 . S
C673 H647 0.950 . S
C673 C672 1.414 . S
C673 C674 1.374 . S
C674 H648 0.950 . S
C674 C670 1.385 . S
C674 C673 1.374 . S
C675 C672 1.499 . S
C675 C676 1.373 . S
C675 C677 1.389 . S
C676 H649 0.950 . S
C676 C662 1.377 . S
C676 C675 1.373 . S
C677 C661 1.377 . S
C677 C675 1.389 . S
C677 C678 1.524 . S
C678 C677 1.524 . S
C678 C679 1.397 . S
C678 C683 1.363 . S
C679 H650 0.950 . S
C679 C678 1.397 . S
C679 C680 1.334 . S
C680 H651 0.950 . S
C680 C679 1.334 . S
C680 C681 1.287 . S
C681 C680 1.287 . S
C681 C682 1.524 . S
C681 H684 0.999 . S
C682 H652 0.950 . S
C682 C681 1.524 . S
C682 C683 1.415 . S
C683 H653 0.950 . S
C683 C678 1.363 . S
C683 C682 1.415 . S
H684 C681 0.999 . S
H685 C666 0.913 . S
H686 C704 0.951 . S
H687 C706 0.951 . S
H688 C708 0.950 . S
H689 C709 0.950 . S
H690 C711 0.950 . S
H691 C714 0.950 . S
H692 C715 0.950 . S
H693 C717 0.950 . S
H694 C718 0.950 . S
H695 C719 0.951 . S
H696 C721 0.951 . S
H697 C723 0.950 . S
H698 C724 0.950 . S
H699 C726 0.950 . S
H700 C729 0.950 . S
H701 C730 0.950 . S
H702 C732 0.950 . S
H703 C733 0.950 . S
C704 H686 0.951 . S
C704 C705 1.366 . S
C704 C706 1.388 . S
C705 C704 1.366 . S
C705 C709 1.385 . S
C706 H687 0.951 . S
C706 C704 1.388 . S
C706 C707 1.366 . S
C707 C706 1.366 . S
C707 C708 1.414 . S
C707 C710 1.499 . S
C708 H688 0.950 . S
C708 C707 1.414 . S
C708 C709 1.374 . S
C709 H689 0.950 . S
C709 C705 1.385 . S
C709 C708 1.374 . S
C710 C707 1.499 . S
C710 C711 1.373 . S
C710 C712 1.389 . S
C711 H690 0.950 . S
C711 C710 1.373 . S
C711 C727 1.377 . S
C712 C710 1.389 . S
C712 C713 1.524 . S
C712 C726 1.377 . S
C713 C712 1.524 . S
C713 C714 1.397 . S
C713 C718 1.363 . S
C714 H691 0.950 . S
C714 C713 1.397 . S
C714 C715 1.334 . S
C715 H692 0.950 . S
C715 C714 1.334 . S
C715 C716 1.287 . S
C716 C715 1.287 . S
C716 C717 1.524 . S
C716 H735 0.913 . S
C717 H693 0.950 . S
C717 C716 1.524 . S
C717 C718 1.415 . S
C718 H694 0.950 . S
C718 C713 1.363 . S
C718 C717 1.415 . S
C719 H695 0.951 . S
C719 C720 1.366 . S
C719 C721 1.388 . S
C720 C719 1.366 . S
C720 C724 1.385 . S
C721 H696 0.951 . S
C721 C719 1.388 . S
C721 C722 1.366 . S
C722 C721 1.366 . S
C722 C723 1.414 . S
C722 C725 1.499 . S
C723 H697 0.950 . S
C723 C722 1.414 . S
C723 C724 1.374 . S
C724 H698 0.950 . S
C724 C720 1.385 . S
C724 C723 1.374 . S
C725 C722 1.499 . S
C725 C726 1.373 . S
C725 C727 1.389 . S
C726 H699 0.950 . S
C726 C712 1.377 . S
C726 C725 1.373 . S
C727 C711 1.377 . S
C727 C725 1.389 . S
C727 C728 1.524 . S
C728 C727 1.524 . S
C728 C729 1.397 . S
C728 C733 1.363 . S
C729 H700 0.950 . S
C729 C728 1.397 . S
C729 C730 1.334 . S
C730 H701 0.950 . S
C730 C729 1.334 . S
C730 C731 1.287 . S
C731 C730 1.287 . S
C731 C732 1.524 . S
C731 H734 0.999 . S
C732 H702 0.950 . S
C732 C731 1.524 . S
C732 C733 1.415 . S
C733 H703 0.950 . S
C733 C728 1.363 . S
C733 C732 1.415 . S
H734 C731 0.999 . S
H735 C716 0.913 . S
H736 C754 0.951 . S
H737 C756 0.951 . S
H738 C758 0.950 . S
H739 C759 0.950 . S
H740 C761 0.950 . S
H741 C764 0.950 . S
H742 C765 0.950 . S
H743 C767 0.950 . S
H744 C768 0.950 . S
H745 C769 0.951 . S
H746 C771 0.951 . S
H747 C773 0.950 . S
H748 C774 0.950 . S
H749 C776 0.950 . S
H750 C779 0.950 . S
H751 C780 0.950 . S
H752 C782 0.950 . S
H753 C783 0.950 . S
C754 H736 0.951 . S
C754 C755 1.366 . S
C754 C756 1.388 . S
C755 C754 1.366 . S
C755 C759 1.385 . S
C756 H737 0.951 . S
C756 C754 1.388 . S
C756 C757 1.366 . S
C757 C756 1.366 . S
C757 C758 1.414 . S
C757 C760 1.499 . S
C758 H738 0.950 . S
C758 C757 1.414 . S
C758 C759 1.374 . S
C759 H739 0.950 . S
C759 C755 1.385 . S
C759 C758 1.374 . S
C760 C757 1.499 . S
C760 C761 1.373 . S
C760 C762 1.389 . S
C761 H740 0.950 . S
C761 C760 1.373 . S
C761 C777 1.377 . S
C762 C760 1.389 . S
C762 C763 1.524 . S
C762 C776 1.377 . S
C763 C762 1.524 . S
C763 C764 1.397 . S
C763 C768 1.363 . S
C764 H741 0.950 . S
C764 C763 1.397 . S
C764 C765 1.334 . S
C765 H742 0.950 . S
C765 C764 1.334 . S
C765 C766 1.287 . S
C766 C765 1.287 . S
C766 C767 1.524 . S
C766 H785 0.913 . S
C767 H743 0.950 . S
C767 C766 1.524 . S
C767 C768 1.415 . S
C768 H744 0.950 . S
C768 C763 1.363 . S
C768 C767 1.415 . S
C769 H745 0.951 . S
C769 C770 1.366 . S
C769 C771 1.388 . S
C770 C769 1.366 . S
C770 C774 1.385 . S
C771 H746 0.951 . S
C771 C769 1.388 . S
C771 C772 1.366 . S
C772 C771 1.366 . S
C772 C773 1.414 . S
C772 C775 1.499 . S
C773 H747 0.950 . S
C773 C772 1.414 . S
C773 C774 1.374 . S
C774 H748 0.950 . S
C774 C770 1.385 . S
C774 C773 1.374 . S
C775 C772 1.499 . S
C775 C776 1.373 . S
C775 C777 1.389 . S
C776 H749 0.950 . S
C776 C762 1.377 . S
C776 C775 1.373 . S
C777 C761 1.377 . S
C777 C775 1.389 . S
C777 C778 1.524 . S
C778 C777 1.524 . S
C778 C779 1.397 . S
C778 C783 1.363 . S
C779 H750 0.950 . S
C779 C778 1.397 . S
C779 C780 1.334 . S
C780 H751 0.950 . S
C780 C779 1.334 . S
C780 C781 1.287 . S
C781 C780 1.287 . S
C781 C782 1.524 . S
C781 H784 0.999 . S
C782 H752 0.950 . S
C782 C781 1.524 . S
C782 C783 1.415 . S
C783 H753 0.950 . S
C783 C778 1.363 . S
C783 C782 1.415 . S
H784 C781 0.999 . S
H785 C766 0.913 . S
H786 C804 0.951 . S
H787 C806 0.951 . S
H788 C808 0.950 . S
H789 C809 0.950 . S
H790 C811 0.950 . S
H791 C814 0.950 . S
H792 C815 0.950 . S
H793 C817 0.950 . S
H794 C818 0.950 . S
H795 C819 0.951 . S
H796 C821 0.951 . S
H797 C823 0.950 . S
H798 C824 0.950 . S
H799 C826 0.950 . S
H800 C829 0.950 . S
H801 C830 0.950 . S
H802 C832 0.950 . S
H803 C833 0.950 . S
C804 H786 0.951 . S
C804 C805 1.366 . S
C804 C806 1.388 . S
C805 C804 1.366 . S
C805 C809 1.385 . S
C806 H787 0.951 . S
C806 C804 1.388 . S
C806 C807 1.366 . S
C807 C806 1.366 . S
C807 C808 1.414 . S
C807 C810 1.499 . S
C808 H788 0.950 . S
C808 C807 1.414 . S
C808 C809 1.374 . S
C809 H789 0.950 . S
C809 C805 1.385 . S
C809 C808 1.374 . S
C810 C807 1.499 . S
C810 C811 1.373 . S
C810 C812 1.389 . S
C811 H790 0.950 . S
C811 C810 1.373 . S
C811 C827 1.377 . S
C812 C810 1.389 . S
C812 C813 1.524 . S
C812 C826 1.377 . S
C813 C812 1.524 . S
C813 C814 1.397 . S
C813 C818 1.363 . S
C814 H791 0.950 . S
C814 C813 1.397 . S
C814 C815 1.334 . S
C815 H792 0.950 . S
C815 C814 1.334 . S
C815 C816 1.287 . S
C816 C815 1.287 . S
C816 C817 1.524 . S
C816 H835 0.913 . S
C817 H793 0.950 . S
C817 C816 1.524 . S
C817 C818 1.415 . S
C818 H794 0.950 . S
C818 C813 1.363 . S
C818 C817 1.415 . S
C819 H795 0.951 . S
C819 C820 1.366 . S
C819 C821 1.388 . S
C820 C819 1.366 . S
C820 C824 1.385 . S
C821 H796 0.951 . S
C821 C819 1.388 . S
C821 C822 1.366 . S
C822 C821 1.366 . S
C822 C823 1.414 . S
C822 C825 1.499 . S
C823 H797 0.950 . S
C823 C822 1.414 . S
C823 C824 1.374 . S
C824 H798 0.950 . S
C824 C820 1.385 . S
C824 C823 1.374 . S
C825 C822 1.499 . S
C825 C826 1.373 . S
C825 C827 1.389 . S
C826 H799 0.950 . S
C826 C812 1.377 . S
C826 C825 1.373 . S
C827 C811 1.377 . S
C827 C825 1.389 . S
C827 C828 1.524 . S
C828 C827 1.524 . S
C828 C829 1.397 . S
C828 C833 1.363 . S
C829 H800 0.950 . S
C829 C828 1.397 . S
C829 C830 1.334 . S
C830 H801 0.950 . S
C830 C829 1.334 . S
C830 C831 1.287 . S
C831 C830 1.287 . S
C831 C832 1.524 . S
C831 H834 0.999 . S
C832 H802 0.950 . S
C832 C831 1.524 . S
C832 C833 1.415 . S
C833 H803 0.950 . S
C833 C828 1.363 . S
C833 C832 1.415 . S
H834 C831 0.999 . S
H835 C816 0.913 . S
H836 C854 0.951 . S
H837 C856 0.951 . S
H838 C858 0.950 . S
H839 C859 0.950 . S
H840 C861 0.950 . S
H841 C864 0.950 . S
H842 C865 0.950 . S
H843 C867 0.950 . S
H844 C868 0.950 . S
H845 C869 0.951 . S
H846 C871 0.951 . S
H847 C873 0.950 . S
H848 C874 0.950 . S
H849 C876 0.950 . S
H850 C879 0.950 . S
H851 C880 0.950 . S
H852 C882 0.950 . S
H853 C883 0.950 . S
C854 H836 0.951 . S
C854 C855 1.366 . S
C854 C856 1.388 . S
C855 C854 1.366 . S
C855 C859 1.385 . S
C856 H837 0.951 . S
C856 C854 1.388 . S
C856 C857 1.366 . S
C857 C856 1.366 . S
C857 C858 1.414 . S
C857 C860 1.499 . S
C858 H838 0.950 . S
C858 C857 1.414 . S
C858 C859 1.374 . S
C859 H839 0.950 . S
C859 C855 1.385 . S
C859 C858 1.374 . S
C860 C857 1.499 . S
C860 C861 1.373 . S
C860 C862 1.389 . S
C861 H840 0.950 . S
C861 C860 1.373 . S
C861 C877 1.377 . S
C862 C860 1.389 . S
C862 C863 1.524 . S
C862 C876 1.377 . S
C863 C862 1.524 . S
C863 C864 1.397 . S
C863 C868 1.363 . S
C864 H841 0.950 . S
C864 C863 1.397 . S
C864 C865 1.334 . S
C865 H842 0.950 . S
C865 C864 1.334 . S
C865 C866 1.287 . S
C866 C865 1.287 . S
C866 C867 1.524 . S
C866 H885 0.913 . S
C867 H843 0.950 . S
C867 C866 1.524 . S
C867 C868 1.415 . S
C868 H844 0.950 . S
C868 C863 1.363 . S
C868 C867 1.415 . S
C869 H845 0.951 . S
C869 C870 1.366 . S
C869 C871 1.388 . S
C870 C869 1.366 . S
C870 C874 1.385 . S
C871 H846 0.951 . S
C871 C869 1.388 . S
C871 C872 1.366 . S
C872 C871 1.366 . S
C872 C873 1.414 . S
C872 C875 1.499 . S
C873 H847 0.950 . S
C873 C872 1.414 . S
C873 C874 1.374 . S
C874 H848 0.950 . S
C874 C870 1.385 . S
C874 C873 1.374 . S
C875 C872 1.499 . S
C875 C876 1.373 . S
C875 C877 1.389 . S
C876 H849 0.950 . S
C876 C862 1.377 . S
C876 C875 1.373 . S
C877 C861 1.377 . S
C877 C875 1.389 . S
C877 C878 1.524 . S
C878 C877 1.524 . S
C878 C879 1.397 . S
C878 C883 1.363 . S
C879 H850 0.950 . S
C879 C878 1.397 . S
C879 C880 1.334 . S
C880 H851 0.950 . S
C880 C879 1.334 . S
C880 C881 1.287 . S
C881 C880 1.287 . S
C881 C882 1.524 . S
C881 H884 0.999 . S
C882 H852 0.950 . S
C882 C881 1.524 . S
C882 C883 1.415 . S
C883 H853 0.950 . S
C883 C878 1.363 . S
C883 C882 1.415 . S
H884 C881 0.999 . S
H885 C866 0.913 . S
H886 C904 0.951 . S
H887 C906 0.951 . S
H888 C908 0.950 . S
H889 C909 0.950 . S
H890 C911 0.950 . S
H891 C914 0.950 . S
H892 C915 0.950 . S
H893 C917 0.950 . S
H894 C918 0.950 . S
H895 C919 0.951 . S
H896 C921 0.951 . S
H897 C923 0.950 . S
H898 C924 0.950 . S
H899 C926 0.950 . S
H900 C929 0.950 . S
H901 C930 0.950 . S
H902 C932 0.950 . S
H903 C933 0.950 . S
C904 H886 0.951 . S
C904 C905 1.366 . S
C904 C906 1.388 . S
C905 C904 1.366 . S
C905 C909 1.385 . S
C906 H887 0.951 . S
C906 C904 1.388 . S
C906 C907 1.366 . S
C907 C906 1.366 . S
C907 C908 1.414 . S
C907 C910 1.499 . S
C908 H888 0.950 . S
C908 C907 1.414 . S
C908 C909 1.374 . S
C909 H889 0.950 . S
C909 C905 1.385 . S
C909 C908 1.374 . S
C910 C907 1.499 . S
C910 C911 1.373 . S
C910 C912 1.389 . S
C911 H890 0.950 . S
C911 C910 1.373 . S
C911 C927 1.377 . S
C912 C910 1.389 . S
C912 C913 1.524 . S
C912 C926 1.377 . S
C913 C912 1.524 . S
C913 C914 1.397 . S
C913 C918 1.363 . S
C914 H891 0.950 . S
C914 C913 1.397 . S
C914 C915 1.334 . S
C915 H892 0.950 . S
C915 C914 1.334 . S
C915 C916 1.287 . S
C916 C915 1.287 . S
C916 C917 1.524 . S
C916 H935 0.913 . S
C917 H893 0.950 . S
C917 C916 1.524 . S
C917 C918 1.415 . S
C918 H894 0.950 . S
C918 C913 1.363 . S
C918 C917 1.415 . S
C919 H895 0.951 . S
C919 C920 1.366 . S
C919 C921 1.388 . S
C920 C919 1.366 . S
C920 C924 1.385 . S
C921 H896 0.951 . S
C921 C919 1.388 . S
C921 C922 1.366 . S
C922 C921 1.366 . S
C922 C923 1.414 . S
C922 C925 1.499 . S
C923 H897 0.950 . S
C923 C922 1.414 . S
C923 C924 1.374 . S
C924 H898 0.950 . S
C924 C920 1.385 . S
C924 C923 1.374 . S
C925 C922 1.499 . S
C925 C926 1.373 . S
C925 C927 1.389 . S
C926 H899 0.950 . S
C926 C912 1.377 . S
C926 C925 1.373 . S
C927 C911 1.377 . S
C927 C925 1.389 . S
C927 C928 1.524 . S
C928 C927 1.524 . S
C928 C929 1.397 . S
C928 C933 1.363 . S
C929 H900 0.950 . S
C929 C928 1.397 . S
C929 C930 1.334 . S
C930 H901 0.950 . S
C930 C929 1.334 . S
C930 C931 1.287 . S
C931 C930 1.287 . S
C931 C932 1.524 . S
C931 H934 0.999 . S
C932 H902 0.950 . S
C932 C931 1.524 . S
C932 C933 1.415 . S
C933 H903 0.950 . S
C933 C928 1.363 . S
C933 C932 1.415 . S
H934 C931 0.999 . S
H935 C916 0.913 . S
H936 C954 0.951 . S
H937 C956 0.951 . S
H938 C958 0.950 1_655 S
H939 C959 0.950 1_655 S
H940 C961 0.950 . S
H941 C964 0.950 . S
H942 C965 0.950 . S
H943 C967 0.950 . S
H944 C968 0.950 . S
H945 C969 0.951 . S
H946 C971 0.951 . S
H947 C973 0.950 . S
H948 C974 0.950 . S
H949 C976 0.950 . S
H950 C979 0.950 . S
H951 C980 0.950 . S
H952 C982 0.950 . S
H953 C983 0.950 . S
C954 H936 0.951 . S
C954 C955 1.366 . S
C954 C956 1.388 . S
C955 C954 1.366 . S
C955 C959 1.385 . S
C956 H937 0.951 . S
C956 C954 1.388 . S
C956 C957 1.366 . S
C957 C956 1.366 . S
C957 C958 1.414 . S
C957 C960 1.499 . S
C958 H938 0.950 1_455 S
C958 C957 1.414 . S
C958 C959 1.374 . S
C959 H939 0.950 1_455 S
C959 C955 1.385 . S
C959 C958 1.374 . S
C960 C957 1.499 . S
C960 C961 1.373 . S
C960 C962 1.389 . S
C961 H940 0.950 . S
C961 C960 1.373 . S
C961 C977 1.377 . S
C962 C960 1.389 . S
C962 C963 1.524 1_455 S
C962 C976 1.377 . S
C963 C962 1.524 1_655 S
C963 C964 1.397 . S
C963 C968 1.363 1_655 S
C964 H941 0.950 . S
C964 C963 1.397 . S
C964 C965 1.334 . S
C965 H942 0.950 . S
C965 C964 1.334 . S
C965 C966 1.287 . S
C966 C965 1.287 . S
C966 C967 1.524 . S
C966 H985 0.913 . S
C967 H943 0.950 . S
C967 C966 1.524 . S
C967 C968 1.415 1_655 S
C968 H944 0.950 . S
C968 C963 1.363 1_455 S
C968 C967 1.415 1_455 S
C969 H945 0.951 . S
C969 C970 1.366 . S
C969 C971 1.388 1_556 S
C970 C969 1.366 . S
C970 C974 1.385 . S
C971 H946 0.951 . S
C971 C969 1.388 1_554 S
C971 C972 1.366 . S
C972 C971 1.366 . S
C972 C973 1.414 . S
C972 C975 1.499 . S
C973 H947 0.950 . S
C973 C972 1.414 . S
C973 C974 1.374 1_554 S
C974 H948 0.950 . S
C974 C970 1.385 . S
C974 C973 1.374 1_556 S
C975 C972 1.499 . S
C975 C976 1.373 . S
C975 C977 1.389 . S
C976 H949 0.950 . S
C976 C962 1.377 . S
C976 C975 1.373 . S
C977 C961 1.377 . S
C977 C975 1.389 . S
C977 C978 1.524 . S
C978 C977 1.524 . S
C978 C979 1.397 . S
C978 C983 1.363 . S
C979 H950 0.950 . S
C979 C978 1.397 . S
C979 C980 1.334 . S
C980 H951 0.950 . S
C980 C979 1.334 . S
C980 C981 1.287 . S
C981 C980 1.287 . S
C981 C982 1.524 . S
C981 H984 0.999 . S
C982 H952 0.950 . S
C982 C981 1.524 . S
C982 C983 1.415 . S
C983 H953 0.950 . S
C983 C978 1.363 . S
C983 C982 1.415 . S
H984 C981 0.999 . S
H985 C966 0.913 . S
H986 C1004 0.951 . S
H987 C1006 0.951 . S
H988 C1008 0.950 . S
H989 C1009 0.950 . S
H990 C1011 0.950 . S
H991 C1014 0.950 1_545 S
H992 C1015 0.950 . S
H993 C1017 0.950 . S
H994 C1018 0.950 . S
H995 C1019 0.951 . S
H996 C1021 0.951 . S
H997 C1023 0.950 . S
H998 C1024 0.950 . S
H999 C1026 0.950 . S
H1000 C1029 0.950 . S
H1001 C1030 0.950 . S
H1002 C1032 0.950 . S
H1003 C1033 0.950 . S
C1004 H986 0.951 . S
C1004 C1005 1.366 . S
C1004 C1006 1.388 . S
C1005 C1004 1.366 . S
C1005 C1009 1.385 . S
C1006 H987 0.951 . S
C1006 C1004 1.388 . S
C1006 C1007 1.366 . S
C1007 C1006 1.366 . S
C1007 C1008 1.414 . S
C1007 C1010 1.499 . S
C1008 H988 0.950 . S
C1008 C1007 1.414 . S
C1008 C1009 1.374 . S
C1009 H989 0.950 . S
C1009 C1005 1.385 . S
C1009 C1008 1.374 . S
C1010 C1007 1.499 . S
C1010 C1011 1.373 . S
C1010 C1012 1.389 . S
C1011 H990 0.950 . S
C1011 C1010 1.373 . S
C1011 C1027 1.377 . S
C1012 C1010 1.389 . S
C1012 C1013 1.524 1_545 S
C1012 C1026 1.377 . S
C1013 C1012 1.524 1_565 S
C1013 C1014 1.397 . S
C1013 C1018 1.363 . S
C1014 H991 0.950 1_565 S
C1014 C1013 1.397 . S
C1014 C1015 1.334 . S
C1015 H992 0.950 . S
C1015 C1014 1.334 . S
C1015 C1016 1.287 . S
C1016 C1015 1.287 . S
C1016 C1017 1.524 . S
C1016 H1035 0.913 . S
C1017 H993 0.950 . S
C1017 C1016 1.524 . S
C1017 C1018 1.415 . S
C1018 H994 0.950 . S
C1018 C1013 1.363 . S
C1018 C1017 1.415 . S
C1019 H995 0.951 . S
C1019 C1020 1.366 . S
C1019 C1021 1.388 . S
C1020 C1019 1.366 . S
C1020 C1024 1.385 . S
C1021 H996 0.951 . S
C1021 C1019 1.388 . S
C1021 C1022 1.366 . S
C1022 C1021 1.366 . S
C1022 C1023 1.414 . S
C1022 C1025 1.499 . S
C1023 H997 0.950 . S
C1023 C1022 1.414 . S
C1023 C1024 1.374 . S
C1024 H998 0.950 . S
C1024 C1020 1.385 . S
C1024 C1023 1.374 . S
C1025 C1022 1.499 . S
C1025 C1026 1.373 . S
C1025 C1027 1.389 . S
C1026 H999 0.950 . S
C1026 C1012 1.377 . S
C1026 C1025 1.373 . S
C1027 C1011 1.377 . S
C1027 C1025 1.389 . S
C1027 C1028 1.524 . S
C1028 C1027 1.524 . S
C1028 C1029 1.397 . S
C1028 C1033 1.363 . S
C1029 H1000 0.950 . S
C1029 C1028 1.397 . S
C1029 C1030 1.334 . S
C1030 H1001 0.950 . S
C1030 C1029 1.334 . S
C1030 C1031 1.287 . S
C1031 C1030 1.287 . S
C1031 C1032 1.524 . S
C1031 H1034 0.999 . S
C1032 H1002 0.950 . S
C1032 C1031 1.524 . S
C1032 C1033 1.415 . S
C1033 H1003 0.950 . S
C1033 C1028 1.363 . S
C1033 C1032 1.415 . S
H1034 C1031 0.999 . S
H1035 C1016 0.913 . S
H1036 C1054 0.951 . S
H1037 C1056 0.951 . S
H1038 C1058 0.950 . S
H1039 C1059 0.950 . S
H1040 C1061 0.950 . S
H1041 C1064 0.950 . S
H1042 C1065 0.950 . S
H1043 C1067 0.950 . S
H1044 C1068 0.950 . S
H1045 C1069 0.951 . S
H1046 C1071 0.951 . S
H1047 C1073 0.950 . S
H1048 C1074 0.950 . S
H1049 C1076 0.950 . S
H1050 C1079 0.950 . S
H1051 C1080 0.950 . S
H1052 C1082 0.950 . S
H1053 C1083 0.950 . S
C1054 H1036 0.951 . S
C1054 C1055 1.366 . S
C1054 C1056 1.388 . S
C1055 C1054 1.366 . S
C1055 C1059 1.385 . S
C1056 H1037 0.951 . S
C1056 C1054 1.388 . S
C1056 C1057 1.366 . S
C1057 C1056 1.366 . S
C1057 C1058 1.414 . S
C1057 C1060 1.499 . S
C1058 H1038 0.950 . S
C1058 C1057 1.414 . S
C1058 C1059 1.374 . S
C1059 H1039 0.950 . S
C1059 C1055 1.385 . S
C1059 C1058 1.374 . S
C1060 C1057 1.499 . S
C1060 C1061 1.373 . S
C1060 C1062 1.389 . S
C1061 H1040 0.950 . S
C1061 C1060 1.373 . S
C1061 C1077 1.377 . S
C1062 C1060 1.389 . S
C1062 C1063 1.524 . S
C1062 C1076 1.377 . S
C1063 C1062 1.524 . S
C1063 C1064 1.397 . S
C1063 C1068 1.363 . S
C1064 H1041 0.950 . S
C1064 C1063 1.397 . S
C1064 C1065 1.334 . S
C1065 H1042 0.950 . S
C1065 C1064 1.334 . S
C1065 C1066 1.287 . S
C1066 C1065 1.287 . S
C1066 C1067 1.524 . S
C1066 H1085 0.913 . S
C1067 H1043 0.950 . S
C1067 C1066 1.524 . S
C1067 C1068 1.415 . S
C1068 H1044 0.950 . S
C1068 C1063 1.363 . S
C1068 C1067 1.415 . S
C1069 H1045 0.951 . S
C1069 C1070 1.366 . S
C1069 C1071 1.388 . S
C1070 C1069 1.366 . S
C1070 C1074 1.385 . S
C1071 H1046 0.951 . S
C1071 C1069 1.388 . S
C1071 C1072 1.366 . S
C1072 C1071 1.366 . S
C1072 C1073 1.414 . S
C1072 C1075 1.499 . S
C1073 H1047 0.950 . S
C1073 C1072 1.414 . S
C1073 C1074 1.374 . S
C1074 H1048 0.950 . S
C1074 C1070 1.385 . S
C1074 C1073 1.374 . S
C1075 C1072 1.499 . S
C1075 C1076 1.373 . S
C1075 C1077 1.389 . S
C1076 H1049 0.950 . S
C1076 C1062 1.377 . S
C1076 C1075 1.373 . S
C1077 C1061 1.377 . S
C1077 C1075 1.389 . S
C1077 C1078 1.524 . S
C1078 C1077 1.524 . S
C1078 C1079 1.397 . S
C1078 C1083 1.363 . S
C1079 H1050 0.950 . S
C1079 C1078 1.397 . S
C1079 C1080 1.334 . S
C1080 H1051 0.950 . S
C1080 C1079 1.334 . S
C1080 C1081 1.287 . S
C1081 C1080 1.287 . S
C1081 C1082 1.524 . S
C1081 H1084 0.999 . S
C1082 H1052 0.950 . S
C1082 C1081 1.524 . S
C1082 C1083 1.415 . S
C1083 H1053 0.950 . S
C1083 C1078 1.363 . S
C1083 C1082 1.415 . S
H1084 C1081 0.999 . S
H1085 C1066 0.913 . S
H1086 C1104 0.951 . S
H1087 C1106 0.951 . S
H1088 C1108 0.950 . S
H1089 C1109 0.950 . S
H1090 C1111 0.950 . S
H1091 C1114 0.950 . S
H1092 C1115 0.950 . S
H1093 C1117 0.950 . S
H1094 C1118 0.950 . S
H1095 C1119 0.951 . S
H1096 C1121 0.951 . S
H1097 C1123 0.950 . S
H1098 C1124 0.950 . S
H1099 C1126 0.950 . S
H1100 C1129 0.950 1_545 S
H1101 C1130 0.950 . S
H1102 C1132 0.950 . S
H1103 C1133 0.950 . S
C1104 H1086 0.951 . S
C1104 C1105 1.366 . S
C1104 C1106 1.388 . S
C1105 C1104 1.366 . S
C1105 C1109 1.385 1_545 S
C1106 H1087 0.951 . S
C1106 C1104 1.388 . S
C1106 C1107 1.366 . S
C1107 C1106 1.366 . S
C1107 C1108 1.414 1_545 S
C1107 C1110 1.499 . S
C1108 H1088 0.950 . S
C1108 C1107 1.414 1_565 S
C1108 C1109 1.374 . S
C1109 H1089 0.950 . S
C1109 C1105 1.385 1_565 S
C1109 C1108 1.374 . S
C1110 C1107 1.499 . S
C1110 C1111 1.373 1_545 S
C1110 C1112 1.389 . S
C1111 H1090 0.950 . S
C1111 C1110 1.373 1_565 S
C1111 C1127 1.377 . S
C1112 C1110 1.389 . S
C1112 C1113 1.524 . S
C1112 C1126 1.377 . S
C1113 C1112 1.524 . S
C1113 C1114 1.397 . S
C1113 C1118 1.363 . S
C1114 H1091 0.950 . S
C1114 C1113 1.397 . S
C1114 C1115 1.334 . S
C1115 H1092 0.950 . S
C1115 C1114 1.334 . S
C1115 C1116 1.287 . S
C1116 C1115 1.287 . S
C1116 C1117 1.524 . S
C1116 H1135 0.913 . S
C1117 H1093 0.950 . S
C1117 C1116 1.524 . S
C1117 C1118 1.415 . S
C1118 H1094 0.950 . S
C1118 C1113 1.363 . S
C1118 C1117 1.415 . S
C1119 H1095 0.951 . S
C1119 C1120 1.366 1_565 S
C1119 C1121 1.388 . S
C1120 C1119 1.366 1_545 S
C1120 C1124 1.385 . S
C1121 H1096 0.951 . S
C1121 C1119 1.388 . S
C1121 C1122 1.366 1_565 S
C1122 C1121 1.366 1_545 S
C1122 C1123 1.414 . S
C1122 C1125 1.499 . S
C1123 H1097 0.950 . S
C1123 C1122 1.414 . S
C1123 C1124 1.374 . S
C1124 H1098 0.950 . S
C1124 C1120 1.385 . S
C1124 C1123 1.374 . S
C1125 C1122 1.499 . S
C1125 C1126 1.373 . S
C1125 C1127 1.389 1_545 S
C1126 H1099 0.950 . S
C1126 C1112 1.377 . S
C1126 C1125 1.373 . S
C1127 C1111 1.377 . S
C1127 C1125 1.389 1_565 S
C1127 C1128 1.524 . S
C1128 C1127 1.524 . S
C1128 C1129 1.397 . S
C1128 C1133 1.363 . S
C1129 H1100 0.950 1_565 S
C1129 C1128 1.397 . S
C1129 C1130 1.334 . S
C1130 H1101 0.950 . S
C1130 C1129 1.334 . S
C1130 C1131 1.287 . S
C1131 C1130 1.287 . S
C1131 C1132 1.524 . S
C1131 H1134 0.999 . S
C1132 H1102 0.950 . S
C1132 C1131 1.524 . S
C1132 C1133 1.415 . S
C1133 H1103 0.950 . S
C1133 C1128 1.363 . S
C1133 C1132 1.415 . S
H1134 C1131 0.999 . S
H1135 C1116 0.913 . S
H1136 C1154 0.951 . S
H1137 C1156 0.951 . S
H1138 C1158 0.950 . S
H1139 C1159 0.950 . S
H1140 C1161 0.950 . S
H1141 C1164 0.950 . S
H1142 C1165 0.950 . S
H1143 C1167 0.950 . S
H1144 C1168 0.950 . S
H1145 C1169 0.951 . S
H1146 C1171 0.951 . S
H1147 C1173 0.950 . S
H1148 C1174 0.950 . S
H1149 C1176 0.950 . S
H1150 C1179 0.950 . S
H1151 C1180 0.950 . S
H1152 C1182 0.950 . S
H1153 C1183 0.950 . S
C1154 H1136 0.951 . S
C1154 C1155 1.366 . S
C1154 C1156 1.388 . S
C1155 C1154 1.366 . S
C1155 C1159 1.385 . S
C1156 H1137 0.951 . S
C1156 C1154 1.388 . S
C1156 C1157 1.366 . S
C1157 C1156 1.366 . S
C1157 C1158 1.414 . S
C1157 C1160 1.499 . S
C1158 H1138 0.950 . S
C1158 C1157 1.414 . S
C1158 C1159 1.374 . S
C1159 H1139 0.950 . S
C1159 C1155 1.385 . S
C1159 C1158 1.374 . S
C1160 C1157 1.499 . S
C1160 C1161 1.373 . S
C1160 C1162 1.389 . S
C1161 H1140 0.950 . S
C1161 C1160 1.373 . S
C1161 C1177 1.377 . S
C1162 C1160 1.389 . S
C1162 C1163 1.524 . S
C1162 C1176 1.377 . S
C1163 C1162 1.524 . S
C1163 C1164 1.397 . S
C1163 C1168 1.363 . S
C1164 H1141 0.950 . S
C1164 C1163 1.397 . S
C1164 C1165 1.334 . S
C1165 H1142 0.950 . S
C1165 C1164 1.334 . S
C1165 C1166 1.287 . S
C1166 C1165 1.287 . S
C1166 C1167 1.524 . S
C1166 H1185 0.913 . S
C1167 H1143 0.950 . S
C1167 C1166 1.524 . S
C1167 C1168 1.415 . S
C1168 H1144 0.950 . S
C1168 C1163 1.363 . S
C1168 C1167 1.415 . S
C1169 H1145 0.951 . S
C1169 C1170 1.366 . S
C1169 C1171 1.388 1_554 S
C1170 C1169 1.366 . S
C1170 C1174 1.385 . S
C1171 H1146 0.951 . S
C1171 C1169 1.388 1_556 S
C1171 C1172 1.366 . S
C1172 C1171 1.366 . S
C1172 C1173 1.414 . S
C1172 C1175 1.499 . S
C1173 H1147 0.950 . S
C1173 C1172 1.414 . S
C1173 C1174 1.374 1_556 S
C1174 H1148 0.950 . S
C1174 C1170 1.385 . S
C1174 C1173 1.374 1_554 S
C1175 C1172 1.499 . S
C1175 C1176 1.373 . S
C1175 C1177 1.389 . S
C1176 H1149 0.950 . S
C1176 C1162 1.377 . S
C1176 C1175 1.373 . S
C1177 C1161 1.377 . S
C1177 C1175 1.389 . S
C1177 C1178 1.524 . S
C1178 C1177 1.524 . S
C1178 C1179 1.397 . S
C1178 C1183 1.363 . S
C1179 H1150 0.950 . S
C1179 C1178 1.397 . S
C1179 C1180 1.334 . S
C1180 H1151 0.950 . S
C1180 C1179 1.334 . S
C1180 C1181 1.287 . S
C1181 C1180 1.287 . S
C1181 C1182 1.524 . S
C1181 H1184 0.999 . S
C1182 H1152 0.950 . S
C1182 C1181 1.524 . S
C1182 C1183 1.415 . S
C1183 H1153 0.950 . S
C1183 C1178 1.363 . S
C1183 C1182 1.415 . S
H1184 C1181 0.999 . S
H1185 C1166 0.913 . S
H1186 C1204 0.951 . S
H1187 C1206 0.951 . S
H1188 C1208 0.950 . S
H1189 C1209 0.950 . S
H1190 C1211 0.950 . S
H1191 C1214 0.950 1_655 S
H1192 C1215 0.950 . S
H1193 C1217 0.950 . S
H1194 C1218 0.950 . S
H1195 C1219 0.951 . S
H1196 C1221 0.951 . S
H1197 C1223 0.950 . S
H1198 C1224 0.950 . S
H1199 C1226 0.950 . S
H1200 C1229 0.950 1_455 S
H1201 C1230 0.950 1_455 S
H1202 C1232 0.950 . S
H1203 C1233 0.950 . S
C1204 H1186 0.951 . S
C1204 C1205 1.366 . S
C1204 C1206 1.388 . S
C1205 C1204 1.366 . S
C1205 C1209 1.385 1_455 S
C1206 H1187 0.951 . S
C1206 C1204 1.388 . S
C1206 C1207 1.366 . S
C1207 C1206 1.366 . S
C1207 C1208 1.414 1_455 S
C1207 C1210 1.499 . S
C1208 H1188 0.950 . S
C1208 C1207 1.414 1_655 S
C1208 C1209 1.374 . S
C1209 H1189 0.950 . S
C1209 C1205 1.385 1_655 S
C1209 C1208 1.374 . S
C1210 C1207 1.499 . S
C1210 C1211 1.373 1_455 S
C1210 C1212 1.389 . S
C1211 H1190 0.950 . S
C1211 C1210 1.373 1_655 S
C1211 C1227 1.377 . S
C1212 C1210 1.389 . S
C1212 C1213 1.524 . S
C1212 C1226 1.377 . S
C1213 C1212 1.524 . S
C1213 C1214 1.397 . S
C1213 C1218 1.363 . S
C1214 H1191 0.950 1_455 S
C1214 C1213 1.397 . S
C1214 C1215 1.334 . S
C1215 H1192 0.950 . S
C1215 C1214 1.334 . S
C1215 C1216 1.287 . S
C1216 C1215 1.287 . S
C1216 C1217 1.524 . S
C1216 H1235 0.913 . S
C1217 H1193 0.950 . S
C1217 C1216 1.524 . S
C1217 C1218 1.415 . S
C1218 H1194 0.950 . S
C1218 C1213 1.363 . S
C1218 C1217 1.415 . S
C1219 H1195 0.951 . S
C1219 C1220 1.370 1_655 S
C1219 C1221 1.388 . S
C1220 C1219 1.370 1_455 S
C1220 C1224 1.380 . S
C1221 H1196 0.951 . S
C1221 C1219 1.388 . S
C1221 C1222 1.366 1_655 S
C1222 C1221 1.366 1_455 S
C1222 C1223 1.414 . S
C1222 C1225 1.499 . S
C1223 H1197 0.950 . S
C1223 C1222 1.414 . S
C1223 C1224 1.374 . S
C1224 H1198 0.950 . S
C1224 C1220 1.380 . S
C1224 C1223 1.374 . S
C1225 C1222 1.499 . S
C1225 C1226 1.373 . S
C1225 C1227 1.389 1_455 S
C1226 H1199 0.950 . S
C1226 C1212 1.377 . S
C1226 C1225 1.373 . S
C1227 C1211 1.377 . S
C1227 C1225 1.389 1_655 S
C1227 C1228 1.524 . S
C1228 C1227 1.524 . S
C1228 C1229 1.397 . S
C1228 C1233 1.363 . S
C1229 H1200 0.950 1_655 S
C1229 C1228 1.397 . S
C1229 C1230 1.334 . S
C1230 H1201 0.950 1_655 S
C1230 C1229 1.334 . S
C1230 C1231 1.287 . S
C1231 C1230 1.287 . S
C1231 C1232 1.524 . S
C1231 H1234 0.999 . S
C1232 H1202 0.950 . S
C1232 C1231 1.524 . S
C1232 C1233 1.415 . S
C1233 H1203 0.950 . S
C1233 C1228 1.363 . S
C1233 C1232 1.415 . S
H1234 C1231 0.999 . S
H1235 C1216 0.913 . S
C355 C24 2.844 . S
C370 C325 2.780 . S
C405 C66 1.033 . S
C420 C253 1.037 . S
C455 C93 1.724 . S
C470 C289 1.675 . S
C505 C13 2.999 . S
C520 C301 2.967 . S
C570 C229 1.231 . S
C555 C57 1.239 . S
C620 C265 1.868 . S
C605 C104 1.903 . S
C655 C64 1.889 . S
C670 C181 1.824 . S
C705 C97 0.370 . S
C720 C193 0.395 . S
C755 C17 1.210 . S
C770 C121 1.214 . S
C820 C157 1.717 . S
C805 C53 1.735 . S
C870 C217 0.254 . S
C855 C106 0.307 . S
C905 C26 1.049 . S
C920 C145 1.050 . S
C970 C223 1.089 . S
C955 C2 1.081 . S
C1005 C63 1.463 . S
C1020 C151 1.499 . S
C1055 C82 1.371 . S
C1070 C187 1.390 . S
C1120 C295 1.402 . S
C1105 C42 1.387 . S
C1170 C331 1.772 . S
C1155 C103 1.730 . S
C1205 C23 1.471 . S
C1220 C259 1.495 . S
