# Generated by pormake.
# Topology ssa, (4,4)-cn, num edge types: 1
# Building blocks:
#     Node 0, Type 0, BuildingBlock: KOZSID_clean_sbu_0, # of connection points: 4
#     Node 1, Type 0, BuildingBlock: KOZSID_clean_sbu_0, # of connection points: 4
#     Node 2, Type 0, BuildingBlock: KOZSID_clean_sbu_0, # of connection points: 4
#     Node 3, Type 0, BuildingBlock: KOZSID_clean_sbu_0, # of connection points: 4
#     Node 4, Type 0, BuildingBlock: KOZSID_clean_sbu_0, # of connection points: 4
#     Node 5, Type 0, BuildingBlock: KOZSID_clean_sbu_0, # of connection points: 4
#     Node 6, Type 1, BuildingBlock: GIZVER_clean_linker_0, # of connection points: 4
#     Node 7, Type 1, BuildingBlock: GIZVER_clean_linker_0, # of connection points: 4
#     Node 8, Type 1, BuildingBlock: GIZVER_clean_linker_0, # of connection points: 4
#     Node 9, Type 1, BuildingBlock: GIZVER_clean_linker_0, # of connection points: 4
#     Node 10, Type 1, BuildingBlock: GIZVER_clean_linker_0, # of connection points: 4
#     Node 11, Type 1, BuildingBlock: GIZVER_clean_linker_0, # of connection points: 4
#     Edge 12, Type (0, 1), BuildingBlock: AJUNOK_clean_linker_0, # of connection points: 2
#     Edge 13, Type (0, 1), BuildingBlock: AJUNOK_clean_linker_0, # of connection points: 2
#     Edge 14, Type (0, 1), BuildingBlock: AJUNOK_clean_linker_0, # of connection points: 2
#     Edge 15, Type (0, 1), BuildingBlock: AJUNOK_clean_linker_0, # of connection points: 2
#     Edge 16, Type (0, 1), BuildingBlock: AJUNOK_clean_linker_0, # of connection points: 2
#     Edge 17, Type (0, 1), BuildingBlock: AJUNOK_clean_linker_0, # of connection points: 2
#     Edge 18, Type (0, 1), BuildingBlock: AJUNOK_clean_linker_0, # of connection points: 2
#     Edge 19, Type (0, 1), BuildingBlock: AJUNOK_clean_linker_0, # of connection points: 2
#     Edge 20, Type (0, 1), BuildingBlock: AJUNOK_clean_linker_0, # of connection points: 2
#     Edge 21, Type (0, 1), BuildingBlock: AJUNOK_clean_linker_0, # of connection points: 2
#     Edge 22, Type (0, 1), BuildingBlock: AJUNOK_clean_linker_0, # of connection points: 2
#     Edge 23, Type (0, 1), BuildingBlock: AJUNOK_clean_linker_0, # of connection points: 2
#     Edge 24, Type (0, 1), BuildingBlock: AJUNOK_clean_linker_0, # of connection points: 2
#     Edge 25, Type (0, 1), BuildingBlock: AJUNOK_clean_linker_0, # of connection points: 2
#     Edge 26, Type (0, 1), BuildingBlock: AJUNOK_clean_linker_0, # of connection points: 2
#     Edge 27, Type (0, 1), BuildingBlock: AJUNOK_clean_linker_0, # of connection points: 2
#     Edge 28, Type (0, 1), BuildingBlock: AJUNOK_clean_linker_0, # of connection points: 2
#     Edge 29, Type (0, 1), BuildingBlock: AJUNOK_clean_linker_0, # of connection points: 2
#     Edge 30, Type (0, 1), BuildingBlock: AJUNOK_clean_linker_0, # of connection points: 2
#     Edge 31, Type (0, 1), BuildingBlock: AJUNOK_clean_linker_0, # of connection points: 2
#     Edge 32, Type (0, 1), BuildingBlock: AJUNOK_clean_linker_0, # of connection points: 2
#     Edge 33, Type (0, 1), BuildingBlock: AJUNOK_clean_linker_0, # of connection points: 2
#     Edge 34, Type (0, 1), BuildingBlock: AJUNOK_clean_linker_0, # of connection points: 2
#     Edge 35, Type (0, 1), BuildingBlock: AJUNOK_clean_linker_0, # of connection points: 2
# Relax obj value: 0.006
# Max RMSD: 0.036
# Mean RMSD: 0.020
data_MOF--net-ssa--node1-KOZSID_clean_sbu_0--node2-GIZVER_clean_linker_0--edge1-AJUNOK_clean_linker_0
_symmetry_space_group_name_H-M    P1
_symmetry_Int_Tables_number       1
_symmetry_cell_setting            triclinic
loop_
_symmetry_equiv_pos_as_xyz
'x, y, z'
_cell_length_a     45.38206
_cell_length_b     46.770312
_cell_length_c     24.918207
_cell_angle_alpha  85.887173
_cell_angle_beta   89.807756
_cell_angle_gamma 122.97942
loop_
_atom_site_label
_atom_site_type_symbol
_atom_site_fract_x
_atom_site_fract_y
_atom_site_fract_z
_atom_type_partial_charge
C0 C 0.94648 0.51588 0.01782 0.0
C1 C 0.92057 0.50946 0.05556 0.0
C2 C 0.92495 0.49418 0.10079 0.0
C3 C 0.95317 0.49221 0.08807 0.0
N4 N 0.96756 0.50588 0.03777 0.0
Co5 Co 0.00769 0.50662 0.00163 0.0
N6 N 0.01214 0.48137 0.06633 0.0
C7 C 0.99218 0.47002 0.11292 0.0
C8 C 1.00294 0.45572 0.15147 0.0
C9 C 0.03183 0.45853 0.12855 0.0
C10 C 0.03696 0.47428 0.07687 0.0
N11 N 0.04765 0.50718 0.96533 0.0
C12 C 0.06872 0.49715 0.9852 0.0
C13 C 0.09414 0.50293 0.94703 0.0
C14 C 0.08958 0.51798 0.90169 0.0
C15 C 0.06167 0.52037 0.91471 0.0
N16 N 0.00344 0.53209 0.93709 0.0
C17 C 0.02368 0.54387 0.89076 0.0
C18 C 0.01362 0.55921 0.85289 0.0
C19 C 0.98493 0.5567 0.87604 0.0
C20 C 0.97915 0.53993 0.92701 0.0
N21 N 0.04221 0.55077 0.03136 0.0
C22 C 0.09431 0.61025 0.07722 0.0
C23 C 0.09811 0.60554 0.02366 0.0
C24 C 0.07165 0.57605 0.00142 0.0
C25 C 0.06364 0.58543 0.10695 0.0
C26 C 0.03827 0.55604 0.08359 0.0
N27 N 0.9732 0.46244 0.97194 0.0
C28 C 0.95146 0.42792 0.89625 0.0
C29 C 0.92179 0.40218 0.92698 0.0
C30 C 0.91844 0.40662 0.98086 0.0
C31 C 0.9446 0.43651 0.00264 0.0
C32 C 0.97647 0.45765 0.91918 0.0
H33 H 0.94083 0.43824 0.04418 0.0
H34 H 0.99786 0.47664 0.89304 0.0
H35 H 0.07591 0.57405 0.9602 0.0
H36 H 0.01608 0.53766 0.10903 0.0
C37 C 0.96544 0.47582 0.12103 0.0
C38 C 0.94894 0.53006 0.96287 0.0
C39 C 0.06699 0.48393 0.0406 0.0
C40 C 0.04995 0.53747 0.88218 0.0
H41 H 0.90015 0.51459 0.05035 0.0
H42 H 0.90881 0.48467 0.13792 0.0
H43 H 0.99196 0.44573 0.1922 0.0
H44 H 0.04787 0.45083 0.14851 0.0
H45 H 0.11452 0.49773 0.9521 0.0
H46 H 0.10553 0.52724 0.86439 0.0
H47 H 0.02496 0.56979 0.81247 0.0
H48 H 0.96941 0.56533 0.85686 0.0
H49 H 0.12144 0.62443 -0.00083 0.0
H50 H 0.05977 0.58814 0.14877 0.0
H51 H 0.95483 0.42556 0.85406 0.0
H52 H 0.89579 0.38714 0.00601 0.0
C53 C 0.56294 0.0381 0.58807 0.0
C54 C 0.56712 0.033 0.64239 0.0
C55 C 0.53643 0.00417 0.66237 0.0
C56 C 0.51526 0.99339 0.61948 0.0
N57 N 0.53079 0.01321 0.57293 0.0
Co58 Co 0.50853 0.00846 0.50195 0.0
N59 N 0.46197 0.96844 0.53299 0.0
C60 C 0.45419 0.95428 0.5845 0.0
C61 C 0.42062 0.92601 0.59315 0.0
C62 C 0.40626 0.92138 0.544 0.0
C63 C 0.43206 0.94717 0.50817 0.0
N64 N 0.48622 0.00391 0.43106 0.0
C65 C 0.45386 0.97941 0.41608 0.0
C66 C 0.4495 0.98491 0.36199 0.0
C67 C 0.48028 0.01363 0.342 0.0
C68 C 0.50167 0.02398 0.38468 0.0
N69 N 0.55517 0.04834 0.47082 0.0
C70 C 0.56313 0.06212 0.4191 0.0
C71 C 0.59677 0.09027 0.41036 0.0
C72 C 0.61099 0.09522 0.45965 0.0
C73 C 0.58502 0.06975 0.49566 0.0
N74 N 0.52154 0.97597 0.48228 0.0
C75 C 0.53313 0.92615 0.44943 0.0
C76 C 0.5422 0.95504 0.4152 0.0
C77 C 0.53621 0.97935 0.4322 0.0
C78 C 0.51904 0.92302 0.501 0.0
C79 C 0.51404 0.94833 0.51679 0.0
N80 N 0.49552 0.04091 0.52165 0.0
C81 C 0.50045 0.0951 0.50465 0.0
C82 C 0.48521 0.09121 0.55551 0.0
C83 C 0.47368 0.06114 0.58814 0.0
C84 C 0.47921 0.0366 0.57072 0.0
C85 C 0.50476 0.06952 0.48826 0.0
H86 H 0.47097 0.01486 0.59834 0.0
H87 H 0.51642 0.07389 0.44891 0.0
H88 H 0.54285 1.00018 0.40352 0.0
H89 H 0.50343 0.9446 0.55673 0.0
C90 C 0.47982 0.96668 0.62278 0.0
C91 C 0.58931 0.0681 0.55343 0.0
C92 C 0.4275 0.9493 0.45053 0.0
C93 C 0.53731 0.05023 0.38109 0.0
H94 H 0.58955 0.04903 0.66567 0.0
H95 H 0.52981 0.99319 0.70374 0.0
H96 H 0.40847 0.90999 0.63034 0.0
H97 H 0.38012 0.90082 0.53509 0.0
H98 H 0.4269 0.9692 0.33881 0.0
H99 H 0.48682 0.02477 0.3007 0.0
H100 H 0.60898 0.10617 0.37309 0.0
H101 H 0.6371 0.11586 0.46853 0.0
H102 H 0.55269 0.9583 0.3745 0.0
H103 H 0.51171 0.90104 0.52888 0.0
H104 H 0.50945 0.11798 0.47799 0.0
H105 H 0.46177 0.05722 0.628 0.0
C106 C 0.57546 0.54465 0.93216 0.0
C107 C 0.58964 0.56368 0.88291 0.0
C108 C 0.56368 0.56575 0.8593 0.0
C109 C 0.53521 0.54794 0.89524 0.0
N110 N 0.54161 0.53503 0.94073 0.0
Co111 Co 0.5073 0.50662 0.00277 0.0
N112 N 0.46745 0.50402 0.96365 0.0
C113 C 0.4687 0.51649 0.91244 0.0
C114 C 0.43716 0.51087 0.8967 0.0
C115 C 0.41456 0.4943 0.94079 0.0
C116 C 0.43381 0.49103 0.98107 0.0
N117 N 0.47334 0.47964 0.06588 0.0
C118 C 0.43973 0.47082 0.07472 0.0
C119 C 0.42688 0.45549 0.12661 0.0
C120 C 0.45326 0.45483 0.15139 0.0
C121 C 0.48075 0.46998 0.11374 0.0
N122 N 0.54682 0.50761 0.04063 0.0
C123 C 0.54509 0.49295 0.09031 0.0
C124 C 0.57559 0.49536 0.10375 0.0
C125 C 0.59792 0.51176 0.05937 0.0
C126 C 0.57961 0.51843 0.02151 0.0
N127 N 0.51827 0.54943 0.03346 0.0
C128 C 0.52996 0.60786 0.0799 0.0
C129 C 0.53741 0.58559 0.10729 0.0
C130 C 0.53124 0.55671 0.08374 0.0
C131 C 0.51696 0.60074 0.02865 0.0
C132 C 0.51187 0.57191 0.00598 0.0
N133 N 0.4965 0.46401 0.97209 0.0
C134 C 0.48748 0.40776 0.98269 0.0
C135 C 0.48965 0.40734 0.92698 0.0
C136 C 0.4937 0.43481 0.89425 0.0
C137 C 0.49668 0.46248 0.91739 0.0
C138 C 0.49102 0.43629 0.00435 0.0
H139 H 0.49988 0.48267 0.8901 0.0
H140 H 0.48998 0.43566 0.04722 0.0
H141 H 0.53665 0.5404 0.1075 0.0
H142 H 0.50233 0.56821 0.96643 0.0
C143 C 0.50089 0.53775 0.88344 0.0
C144 C 0.59394 0.53372 0.96717 0.0
C145 C 0.41998 0.4785 0.0365 0.0
C146 C 0.5141 0.47639 0.12266 0.0
H147 H 0.61552 0.57373 0.86474 0.0
H148 H 0.56477 0.57699 0.81923 0.0
H149 H 0.43174 0.51948 0.85875 0.0
H150 H 0.38744 0.4869 0.94392 0.0
H151 H 0.4015 0.44651 0.14555 0.0
H152 H 0.4528 0.44538 0.19254 0.0
H153 H 0.58066 0.48556 0.14081 0.0
H154 H 0.6244 0.51752 0.05478 0.0
H155 H 0.54702 0.5899 0.14758 0.0
H156 H 0.51077 0.61736 0.00615 0.0
H157 H 0.48404 0.38668 0.00929 0.0
H158 H 0.49499 0.43509 0.85075 0.0
C159 C 0.94544 0.4376 0.48845 0.0
C160 C 0.91995 0.41806 0.45301 0.0
C161 C 0.92645 0.43914 0.40762 0.0
C162 C 0.95539 0.47016 0.41801 0.0
N163 N 0.96835 0.47004 0.46676 0.0
Co164 Co 0.00848 0.51022 0.49985 0.0
N165 N 0.01641 0.54196 0.43484 0.0
C166 C 0.99877 0.53338 0.38894 0.0
C167 C 0.0118 0.55984 0.34953 0.0
C168 C 0.03979 0.5869 0.37108 0.0
C169 C 0.04208 0.57546 0.42303 0.0
N170 N 0.04761 0.5506 0.53388 0.0
C171 C 0.06891 0.58372 0.51394 0.0
C172 C 0.09219 0.60378 0.55148 0.0
C173 C 0.08605 0.5824 0.59634 0.0
C174 C 0.05928 0.55071 0.5838 0.0
N175 N 1.00136 0.47831 0.56408 0.0
C176 C 0.0209 0.48624 0.60805 0.0
C177 C 0.00895 0.45929 0.6464 0.0
C178 C 0.97984 0.43263 0.62603 0.0
C179 C 0.97574 0.44485 0.57599 0.0
N180 N 0.04277 0.50158 0.46724 0.0
C181 C 0.09179 0.49052 0.4193 0.0
C182 C 0.09647 0.50204 0.47061 0.0
C183 C 0.07168 0.50713 0.49383 0.0
C184 C 0.06214 0.48439 0.39264 0.0
C185 C 0.03835 0.49021 0.4169 0.0
N186 N 0.97416 0.51863 0.53252 0.0
C187 C 0.94685 0.5231 0.61202 0.0
C188 C 0.92155 0.52378 0.58152 0.0
C189 C 0.92349 0.52311 0.52589 0.0
C190 C 0.94996 0.52056 0.50225 0.0
C191 C 0.97284 0.52078 0.58692 0.0
H192 H 0.94993 0.51957 0.45965 0.0
H193 H 0.99117 0.52008 0.61257 0.0
H194 H 0.07667 0.5158 0.53314 0.0
H195 H 0.01683 0.48571 0.39372 0.0
C196 C 0.97063 0.50002 0.38342 0.0
C197 C 0.94576 0.42459 0.54309 0.0
C198 C 0.07011 0.59675 0.45854 0.0
C199 C 0.04682 0.52016 0.61577 0.0
H200 H 0.89847 0.39151 0.45986 0.0
H201 H 0.9114 0.43283 0.37181 0.0
H202 H 1.00259 0.5593 0.30936 0.0
H203 H 0.05687 0.61189 0.34997 0.0
H204 H 0.11239 0.63084 0.54611 0.0
H205 H 0.10028 0.58894 0.63295 0.0
H206 H 0.019 0.45949 0.6858 0.0
H207 H 0.96288 0.4075 0.64687 0.0
H208 H 0.11909 0.50706 0.49274 0.0
H209 H 0.05775 0.47594 0.35238 0.0
H210 H 0.94624 0.52388 0.65537 0.0
H211 H 0.90431 0.52378 0.50102 0.0
C212 C 0.45337 0.98106 0.09113 0.0
C213 C 0.44749 0.98581 0.14354 0.0
C214 C 0.47848 0.01291 0.15873 0.0
C215 C 0.50148 0.0231 0.11507 0.0
N216 N 0.48692 0.00441 0.07256 0.0
Co217 Co 0.51108 0.00962 0.00165 0.0
N218 N 0.55766 0.04693 0.02632 0.0
C219 C 0.56453 0.05929 0.07536 0.0
C220 C 0.59885 0.08538 0.07985 0.0
C221 C 0.6148 0.09038 0.03046 0.0
C222 C 0.5891 0.06702 0.99868 0.0
N223 N 0.53514 0.01514 0.93049 0.0
C224 C 0.56864 0.03863 0.91183 0.0
C225 C 0.57411 0.03474 0.85865 0.0
C226 C 0.54299 0.008 0.84318 0.0
C227 C 0.52028 0.99722 0.88733 0.0
N228 N 0.46458 0.97194 0.97731 0.0
C229 C 0.4578 0.9591 0.92865 0.0
C230 C 0.4237 0.93241 0.92468 0.0
C231 C 0.40783 0.92744 0.97411 0.0
C232 C 0.43334 0.95149 0.00533 0.0
N233 N 0.50128 0.04446 0.97411 0.0
C234 C 0.49125 0.09567 0.93136 0.0
C235 C 0.48024 0.06664 0.90439 0.0
C236 C 0.4857 0.04166 0.92608 0.0
C237 C 0.5068 0.09864 0.98042 0.0
C238 C 0.51104 0.0726 0.00138 0.0
N239 N 0.52095 0.97486 0.02914 0.0
C240 C 0.51957 0.92292 0.01976 0.0
C241 C 0.53257 0.92444 0.07078 0.0
C242 C 0.53975 0.95151 0.1005 0.0
C243 C 0.53364 0.97609 0.07927 0.0
C244 C 0.51444 0.94852 -0.00049 0.0
H245 H 0.53882 0.9955 0.10462 0.0
H246 H 0.50481 0.94623 0.96012 0.0
H247 H 0.47766 0.0207 0.90268 0.0
H248 H 0.52271 0.07612 0.03929 0.0
C249 C 0.53752 0.04782 0.11471 0.0
C250 C 0.42712 0.95258 0.06216 0.0
C251 C 0.59536 0.0663 0.9417 0.0
C252 C 0.48448 0.97168 0.88842 0.0
H253 H 0.42363 0.97067 0.1689 0.0
H254 H 0.48397 0.02309 0.1977 0.0
H255 H 0.61057 0.09984 0.11429 0.0
H256 H 0.642 0.10966 0.01857 0.0
H257 H 0.5978 0.05011 0.833 0.0
H258 H 0.5373 0.99826 0.80388 0.0
H259 H 0.41203 0.91773 0.89043 0.0
H260 H 0.3808 0.90783 0.98638 0.0
H261 H 0.4684 0.06371 0.86579 0.0
H262 H 0.51571 0.12094 0.00236 0.0
H263 H 0.51338 0.9021 0.99569 0.0
H264 H 0.54908 0.95317 0.14086 0.0
C265 C 0.53008 0.58174 0.51594 0.0
C266 C 0.52718 0.60038 0.55406 0.0
C267 C 0.50965 0.57806 0.59832 0.0
C268 C 0.50309 0.54726 0.58478 0.0
N269 N 0.51587 0.54871 0.53485 0.0
Co270 Co 0.51212 0.50995 0.49876 0.0
N271 N 0.48211 0.47623 0.56054 0.0
C272 C 0.46915 0.48236 0.60409 0.0
C273 C 0.4499 0.45422 0.64022 0.0
C274 C 0.45103 0.42876 0.61883 0.0
C275 C 0.47103 0.44291 0.57064 0.0
N276 N 0.50997 0.47145 0.46406 0.0
C277 C 0.49781 0.43911 0.48477 0.0
C278 C 0.50409 0.42123 0.44937 0.0
C279 C 0.52162 0.44335 0.40494 0.0
C280 C 0.52505 0.47331 0.41595 0.0
N281 N 0.54067 0.54342 0.43576 0.0
C282 C 0.5504 0.53646 0.38958 0.0
C283 C 0.56675 0.5637 0.35134 0.0
C284 C 0.56685 0.58946 0.37389 0.0
C285 C 0.55076 0.57649 0.42515 0.0
N286 N 0.55528 0.51871 0.53348 0.0
C287 C 0.61209 0.5222 0.58461 0.0
C288 C 0.61218 0.52557 0.52861 0.0
C289 C 0.58353 0.52365 0.5039 0.0
C290 C 0.58422 0.51879 0.61459 0.0
C291 C 0.55651 0.51749 0.58846 0.0
N292 N 0.46871 0.50088 0.46411 0.0
C293 C 0.4313 0.4831 0.38838 0.0
C294 C 0.40829 0.48964 0.41346 0.0
C295 C 0.41584 0.50187 0.46425 0.0
C296 C 0.44574 0.50685 0.48901 0.0
C297 C 0.4612 0.48905 0.41399 0.0
H298 H 0.44975 0.51579 0.52811 0.0
H299 H 0.47802 0.48428 0.39203 0.0
H300 H 0.58448 0.52551 0.46095 0.0
H301 H 0.536 0.51476 0.6137 0.0
C302 C 0.48055 0.51579 0.61425 0.0
C303 C 0.54354 0.59571 0.46085 0.0
C304 C 0.48171 0.42484 0.53858 0.0
C305 C 0.54294 0.50383 0.38275 0.0
H306 H 0.53552 0.627 0.5493 0.0
H307 H 0.501 0.58323 0.6348 0.0
H308 H 0.43829 0.45292 0.67908 0.0
H309 H 0.43977 0.40316 0.63783 0.0
H310 H 0.49735 0.39515 0.45568 0.0
H311 H 0.53151 0.43847 0.36948 0.0
H312 H 0.57648 0.56445 0.31121 0.0
H313 H 0.57678 0.61457 0.35394 0.0
H314 H 0.6337 0.52872 0.50414 0.0
H315 H 0.58369 0.51681 0.65824 0.0
H316 H 0.4267 0.47421 0.3484 0.0
H317 H 0.39868 0.50742 0.48485 0.0
H318 H 0.22341 0.51086 0.11639 0.0
H319 H 0.23214 0.5066 0.28873 0.0
H320 H 0.13159 0.46882 0.22122 0.0
H321 H 0.2801 0.54443 0.15373 0.0
H322 H 0.28313 0.54912 0.22404 0.0
H323 H 0.29458 0.50758 0.11459 0.0
H324 H 0.34055 0.4655 0.21566 0.0
H325 H 0.28865 0.50849 0.28729 0.0
C326 C 0.21121 0.50255 0.15675 0.0
C327 C 0.17481 0.48741 0.16404 0.0
C328 C 0.2321 0.50878 0.20171 0.0
C329 C 0.21606 0.50022 0.25404 0.0
C330 C 0.17967 0.4857 0.26146 0.0
C331 C 0.15935 0.47847 0.21615 0.0
C332 C 0.2718 0.52973 0.19401 0.0
C333 C 0.28749 0.50831 0.20043 0.0
C334 C 0.29869 0.49999 0.15454 0.0
C335 C 0.31749 0.48411 0.16018 0.0
C336 C 0.32411 0.47575 0.21174 0.0
C337 C 0.31395 0.4844 0.2578 0.0
C338 C 0.29534 0.50047 0.25202 0.0
H339 H 0.71181 0.22024 0.64248 0.0
H340 H 0.71753 0.21915 0.81534 0.0
H341 H 0.66537 0.12494 0.74017 0.0
H342 H 0.72836 0.27114 0.68714 0.0
H343 H 0.72472 0.26899 0.75869 0.0
H344 H 0.78441 0.29265 0.64049 0.0
H345 H 0.87681 0.34225 0.73146 0.0
H346 H 0.77517 0.28055 0.81439 0.0
C347 C 0.70748 0.20641 0.68153 0.0
C348 C 0.68863 0.17043 0.68571 0.0
C349 C 0.71913 0.22436 0.72821 0.0
C350 C 0.71086 0.20582 0.77905 0.0
C351 C 0.69193 0.16997 0.78331 0.0
C352 C 0.68182 0.1527 0.73655 0.0
C353 C 0.73558 0.26261 0.72481 0.0
C354 C 0.77522 0.2825 0.72716 0.0
C355 C 0.79643 0.29671 0.67907 0.0
C356 C 0.83309 0.31785 0.6809 0.0
C357 C 0.84859 0.32425 0.73061 0.0
C358 C 0.82814 0.31107 0.77902 0.0
C359 C 0.7913 0.28997 0.7772 0.0
H360 H 0.50783 0.72148 0.19418 0.0
H361 H 0.51063 0.71511 0.3675 0.0
H362 H 0.55523 0.67298 0.27437 0.0
H363 H 0.46717 0.72752 0.25228 0.0
H364 H 0.47041 0.72711 0.32348 0.0
H365 H 0.50926 0.77958 0.19236 0.0
H366 H 0.55122 0.87389 0.26492 0.0
H367 H 0.50765 0.78006 0.36559 0.0
C368 C 0.51675 0.71513 0.2307 0.0
C369 C 0.53411 0.69782 0.22792 0.0
C370 C 0.50905 0.72243 0.28099 0.0
C371 C 0.51836 0.71164 0.32852 0.0
C372 C 0.53563 0.69439 0.32586 0.0
C373 C 0.54401 0.68835 0.2757 0.0
C374 C 0.48632 0.73681 0.28466 0.0
C375 C 0.50763 0.77551 0.27957 0.0
C376 C 0.51654 0.79347 0.22809 0.0
C377 C 0.53297 0.82912 0.22276 0.0
C378 C 0.54081 0.84671 0.26912 0.0
C379 C 0.53212 0.82953 0.32073 0.0
C380 C 0.51556 0.79376 0.32589 0.0
H381 H 0.75787 0.55451 0.70855 0.0
H382 H 0.74927 0.56003 0.87958 0.0
H383 H 0.65703 0.5142 0.78724 0.0
H384 H 0.80875 0.59867 0.7615 0.0
H385 H 0.80601 0.59301 0.83311 0.0
H386 H 0.81183 0.55657 0.70664 0.0
H387 H 0.86619 0.51448 0.78302 0.0
H388 H 0.82449 0.55866 0.8783 0.0
C389 C 0.74193 0.54793 0.74538 0.0
C390 C 0.70534 0.53146 0.74285 0.0
C391 C 0.75806 0.55747 0.79497 0.0
C392 C 0.73703 0.55125 0.84179 0.0
C393 C 0.70043 0.53541 0.83917 0.0
C394 C 0.68499 0.52492 0.78993 0.0
C395 C 0.7978 0.57887 0.7963 0.0
C396 C 0.81411 0.55803 0.79339 0.0
C397 C 0.81996 0.54931 0.74314 0.0
C398 C 0.83798 0.53278 0.73963 0.0
C399 C 0.85036 0.52528 0.78637 0.0
C400 C 0.84612 0.53484 0.83627 0.0
C401 C 0.82736 0.55069 0.83991 0.0
H402 H 0.30156 0.7991 0.18685 0.0
H403 H 0.3032 0.7973 0.36008 0.0
H404 H 0.3549 0.8931 0.26274 0.0
H405 H 0.29133 0.7485 0.24414 0.0
H406 H 0.28722 0.74648 0.31556 0.0
H407 H 0.24118 0.73392 0.18833 0.0
H408 H 0.13941 0.67572 0.27127 0.0
H409 H 0.23178 0.73029 0.36144 0.0
C410 C 0.30782 0.81238 0.22316 0.0
C411 C 0.32819 0.84827 0.21916 0.0
C412 C 0.29778 0.79364 0.27401 0.0
C413 C 0.30884 0.81138 0.32091 0.0
C414 C 0.32911 0.84738 0.3169 0.0
C415 C 0.33758 0.86539 0.26605 0.0
C416 C 0.28054 0.75529 0.27758 0.0
C417 C 0.24098 0.73604 0.27489 0.0
C418 C 0.22497 0.72615 0.22521 0.0
C419 C 0.18816 0.70453 0.22363 0.0
C420 C 0.16762 0.69391 0.27182 0.0
C421 C 0.18302 0.70283 0.32146 0.0
C422 C 0.21972 0.72433 0.3229 0.0
H423 H 0.4536 0.26384 0.81633 0.0
H424 H 0.45251 0.27375 0.64289 0.0
H425 H 0.49784 0.36279 0.73105 0.0
H426 H 0.41157 0.21447 0.7643 0.0
H427 H 0.41442 0.21856 0.69256 0.0
H428 H 0.45492 0.20853 0.81656 0.0
H429 H 0.50051 0.16258 0.73566 0.0
H430 H 0.45112 0.20504 0.64395 0.0
C431 C 0.46121 0.27973 0.77858 0.0
C432 C 0.47847 0.31539 0.77914 0.0
C433 C 0.45249 0.2645 0.72926 0.0
C434 C 0.46049 0.28533 0.68072 0.0
C435 C 0.47695 0.32086 0.68126 0.0
C436 C 0.48655 0.33555 0.73035 0.0
C437 C 0.43052 0.22598 0.7287 0.0
C438 C 0.4527 0.21085 0.7297 0.0
C439 C 0.46255 0.203 0.77938 0.0
C440 C 0.48 0.18578 0.78144 0.0
C441 C 0.48863 0.17744 0.73363 0.0
C442 C 0.47812 0.18395 0.68406 0.0
C443 C 0.46032 0.20093 0.68201 0.0
C444 C 0.12842 0.51572 0.07186 0.0
C445 C 0.09777 0.48437 0.06212 0.0
C446 C 0.15561 0.51665 0.10007 0.0
C447 C 0.15285 0.48624 0.1195 0.0
H448 H 0.13044 0.53954 0.06033 0.0
H449 H 0.17758 0.54114 0.11044 0.0
S450 S 0.07985 0.398 0.09858 0.0
N451 N 0.06791 0.42256 0.06851 0.0
N452 N 0.11853 0.42423 0.12314 0.0
C453 C 0.12342 0.45492 0.1067 0.0
C454 C 0.09599 0.454 0.07748 0.0
C455 C 0.61786 0.12637 0.58669 0.0
C456 C 0.61927 0.09779 0.57777 0.0
C457 C 0.64298 0.15216 0.61729 0.0
C458 C 0.67017 0.15003 0.63996 0.0
H459 H 0.59612 0.12781 0.57247 0.0
H460 H 0.63951 0.17245 0.62669 0.0
S461 S 0.68751 0.08233 0.62233 0.0
N462 N 0.65174 0.07051 0.58894 0.0
N463 N 0.69876 0.11866 0.64693 0.0
C464 C 0.67314 0.12275 0.62788 0.0
C465 C 0.64771 0.09667 0.59664 0.0
C466 C 0.50425 0.63856 0.11673 0.0
C467 C 0.53383 0.63698 0.10671 0.0
C468 C 0.50544 0.66128 0.15197 0.0
C469 C 0.53639 0.68334 0.17799 0.0
H470 H 0.47937 0.62041 0.10044 0.0
H471 H 0.48124 0.65948 0.16233 0.0
S472 S 0.62279 0.69384 0.15639 0.0
N473 N 0.59609 0.66264 0.11928 0.0
N474 N 0.59865 0.70584 0.18454 0.0
C475 C 0.56702 0.68435 0.1638 0.0
C476 C 0.56565 0.66098 0.12855 0.0
C477 C 0.89593 0.55509 0.61523 0.0
C478 C 0.89291 0.52396 0.6093 0.0
C479 C 0.87455 0.5571 0.65369 0.0
C480 C 0.84978 0.52806 0.68741 0.0
H481 H 0.91673 0.57841 0.59312 0.0
H482 H 0.87975 0.58203 0.66055 0.0
S483 S 0.82868 0.43985 0.68181 0.0
N484 N 0.86089 0.46301 0.63546 0.0
N485 N 0.82067 0.46667 0.70766 0.0
C486 C 0.84445 0.49631 0.67814 0.0
C487 C 0.86615 0.4943 0.63917 0.0
C488 C 0.36875 0.92266 0.11313 0.0
C489 C 0.39725 0.92197 0.0929 0.0
C490 C 0.34383 0.8965 0.15051 0.0
C491 C 0.34646 0.86871 0.16798 0.0
H492 H 0.36705 0.94458 0.10261 0.0
H493 H 0.32378 0.89914 0.16862 0.0
S494 S 0.41463 0.85396 0.12266 0.0
N495 N 0.42545 0.8905 0.08943 0.0
N496 N 0.37839 0.84103 0.15923 0.0
C497 C 0.37337 0.86658 0.14468 0.0
C498 C 0.39888 0.89335 0.10717 0.0
C499 C 0.51231 0.4006 0.58699 0.0
C500 C 0.48157 0.39523 0.56447 0.0
C501 C 0.51142 0.37483 0.62075 0.0
C502 C 0.47971 0.34294 0.63314 0.0
H503 H 0.53669 0.42553 0.58104 0.0
H504 H 0.53515 0.38065 0.64025 0.0
S505 S 0.39293 0.31555 0.57905 0.0
N506 N 0.41957 0.35521 0.55204 0.0
N507 N 0.41748 0.30674 0.61641 0.0
C508 C 0.44939 0.33654 0.60738 0.0
C509 C 0.45041 0.36278 0.57285 0.0
C510 C 0.50596 0.86518 0.42901 0.0
C511 C 0.53602 0.89859 0.42912 0.0
C512 C 0.50579 0.84106 0.39813 0.0
C513 C 0.53586 0.84949 0.36703 0.0
H514 H 0.48168 0.8585 0.4495 0.0
H515 H 0.48118 0.81681 0.39499 0.0
S516 S 0.62339 0.93077 0.36396 0.0
N517 N 0.59806 0.93688 0.40278 0.0
N518 N 0.59803 0.89144 0.3459 0.0
C519 C 0.56711 0.88145 0.372 0.0
C520 C 0.56712 0.90606 0.40267 0.0
C521 C 0.61862 0.50313 0.92729 0.0
C522 C 0.6242 0.53354 0.9446 0.0
C523 C 0.64503 0.50327 0.89763 0.0
C524 C 0.67789 0.53387 0.88421 0.0
H525 H 0.59304 0.47947 0.93416 0.0
H526 H 0.63892 0.4797 0.88198 0.0
S527 S 0.70634 0.61955 0.92559 0.0
N528 N 0.6656 0.59421 0.95127 0.0
N529 N 0.7152 0.59483 0.89452 0.0
C530 C 0.68452 0.56396 0.90486 0.0
C531 C 0.65761 0.56372 0.93523 0.0
C532 C 0.10174 0.65669 0.41369 0.0
C533 C 0.10274 0.62867 0.43537 0.0
C534 C 0.12994 0.68335 0.38091 0.0
C535 C 0.16038 0.68327 0.3704 0.0
H536 H 0.07796 0.65661 0.41857 0.0
H537 H 0.12688 0.70274 0.3604 0.0
S538 S 0.1785 0.6193 0.42715 0.0
N539 N 0.13819 0.6047 0.45039 0.0
N540 N 0.19178 0.65552 0.39062 0.0
C541 C 0.16318 0.65744 0.3971 0.0
C542 C 0.1342 0.62994 0.42931 0.0
C543 C 0.51872 0.15352 0.88281 0.0
C544 C 0.48837 0.12341 0.90572 0.0
C545 C 0.51609 0.17622 0.84631 0.0
C546 C 0.48305 0.16968 0.83248 0.0
H547 H 0.54446 0.1581 0.88971 0.0
H548 H 0.53984 0.19755 0.82567 0.0
S549 S 0.39608 0.09637 0.88673 0.0
N550 N 0.42468 0.08973 0.91611 0.0
N551 N 0.41966 0.13267 0.84823 0.0
C552 C 0.45272 0.14121 0.85886 0.0
C553 C 0.4554 0.11791 0.89529 0.0
C554 C 0.37576 0.51405 0.37148 0.0
C555 C 0.37787 0.4855 0.3847 0.0
C556 C 0.3519 0.51253 0.33421 0.0
C557 C 0.32933 0.48235 0.30931 0.0
H558 H 0.39444 0.53837 0.38685 0.0
H559 H 0.35329 0.53589 0.32144 0.0
S560 S 0.32004 0.39889 0.33872 0.0
N561 N 0.3522 0.42508 0.37619 0.0
N562 N 0.30697 0.42201 0.30687 0.0
C563 C 0.32885 0.45279 0.32653 0.0
C564 C 0.35331 0.45444 0.36393 0.0
C565 C 0.86093 0.36736 0.89409 0.0
C566 C 0.89397 0.372 0.90116 0.0
C567 C 0.83739 0.34424 0.85861 0.0
C568 C 0.84615 0.32497 0.82939 0.0
H569 H 0.85444 0.38361 0.91276 0.0
H570 H 0.81369 0.34375 0.85045 0.0
S571 S 0.9266 0.32326 0.84188 0.0
N572 N 0.93221 0.35231 0.88199 0.0
N573 N 0.88779 0.30838 0.81631 0.0
C574 C 0.87755 0.32693 0.84061 0.0
C575 C 0.90158 0.35067 0.87609 0.0
C576 C 0.88999 0.50056 0.92324 0.0
C577 C 0.91879 0.53058 0.94096 0.0
C578 C 0.86419 0.50148 0.89379 0.0
C579 C 0.86638 0.53246 0.88113 0.0
H580 H 0.88851 0.47663 0.92955 0.0
H581 H 0.84366 0.47822 0.87769 0.0
S582 S 0.93515 0.61739 0.92339 0.0
N583 N 0.94666 0.59134 0.94838 0.0
N584 N 0.89845 0.59335 0.89236 0.0
C585 C 0.89379 0.56216 0.90214 0.0
C586 C 0.92002 0.56116 0.93215 0.0
C587 C 0.36978 0.92035 0.40599 0.0
C588 C 0.39817 0.91934 0.42578 0.0
C589 C 0.34504 0.8948 0.37478 0.0
C590 C 0.34768 0.86724 0.363 0.0
H591 H 0.36787 0.942 0.41213 0.0
H592 H 0.32499 0.89772 0.3569 0.0
S593 S 0.41583 0.8519 0.40928 0.0
N594 N 0.42642 0.88781 0.43471 0.0
N595 N 0.37981 0.83961 0.37639 0.0
C596 C 0.37464 0.86487 0.38579 0.0
C597 C 0.39996 0.89101 0.41712 0.0
C598 C 0.45663 0.34825 0.89646 0.0
C599 C 0.4888 0.37926 0.90174 0.0
C600 C 0.4541 0.32508 0.86082 0.0
C601 C 0.48367 0.33238 0.82948 0.0
H602 H 0.43287 0.34314 0.91677 0.0
H603 H 0.42834 0.30295 0.85417 0.0
S604 S 0.57475 0.40771 0.83547 0.0
N605 N 0.55137 0.41416 0.87802 0.0
N606 N 0.54676 0.3707 0.81137 0.0
C607 C 0.51649 0.36182 0.83842 0.0
C608 C 0.51899 0.38532 0.87438 0.0
C609 C 0.10693 0.45627 0.36682 0.0
C610 C 0.11813 0.48649 0.39143 0.0
C611 C 0.12895 0.45469 0.32927 0.0
C612 C 0.1628 0.48349 0.31425 0.0
H613 H 0.08017 0.43437 0.37413 0.0
H614 H 0.11834 0.43171 0.30847 0.0
S615 S 0.20626 0.56703 0.37302 0.0
N616 N 0.16673 0.54428 0.4036 0.0
N617 N 0.20785 0.54174 0.33184 0.0
C618 C 0.17548 0.51272 0.34248 0.0
C619 C 0.15314 0.51416 0.38126 0.0
C620 C 0.62546 0.12608 0.89939 0.0
C621 C 0.62602 0.09662 0.91174 0.0
C622 C 0.65007 0.15225 0.86179 0.0
C623 C 0.67571 0.14949 0.83525 0.0
H624 H 0.60444 0.12779 0.9161 0.0
H625 H 0.647 0.1732 0.84989 0.0
S626 S 0.69121 0.07976 0.86017 0.0
N627 N 0.65677 0.0681 0.90047 0.0
N628 N 0.70269 0.11698 0.82865 0.0
C629 C 0.67833 0.12153 0.85096 0.0
C630 C 0.65352 0.09511 0.88959 0.0
C631 C 0.51002 0.62106 0.42812 0.0
C632 C 0.54265 0.62539 0.43776 0.0
C633 C 0.50809 0.64603 0.39674 0.0
C634 C 0.53873 0.6759 0.37379 0.0
H635 H 0.48583 0.59724 0.44187 0.0
H636 H 0.48243 0.64054 0.38638 0.0
S637 S 0.63048 0.70132 0.394 0.0
N638 N 0.6062 0.66352 0.42845 0.0
N639 N 0.60257 0.71 0.36752 0.0
C640 C 0.57151 0.68169 0.38694 0.0
C641 C 0.57348 0.65652 0.41955 0.0
C642 C 0.45117 0.11373 0.59306 0.0
C643 C 0.48369 0.11918 0.57686 0.0
C644 C 0.44954 0.13731 0.62274 0.0
C645 C 0.48038 0.16676 0.63798 0.0
H646 H 0.42691 0.09027 0.58506 0.0
H647 H 0.42405 0.13104 0.63765 0.0
S648 S 0.57188 0.19353 0.60294 0.0
N649 N 0.54729 0.15714 0.57513 0.0
N650 N 0.54422 0.20097 0.63212 0.0
C651 C 0.51297 0.17336 0.61941 0.0
C652 C 0.51463 0.14966 0.58856 0.0
C653 C 0.35831 0.4492 0.07697 0.0
C654 C 0.3895 0.4794 0.05643 0.0
C655 C 0.33258 0.4505 0.10608 0.0
C656 C 0.33682 0.48199 0.11421 0.0
H657 H 0.35502 0.42464 0.07389 0.0
H658 H 0.3105 0.42695 0.12569 0.0
S659 S 0.41098 0.56777 0.06034 0.0
N660 N 0.42132 0.54123 0.04046 0.0
N661 N 0.37249 0.54363 0.09376 0.0
C662 C 0.36617 0.51202 0.08898 0.0
C663 C 0.39264 0.51074 0.0603 0.0
C664 C 0.88432 0.39493 0.58222 0.0
C665 C 0.91341 0.3934 0.56813 0.0
C666 C 0.85585 0.36801 0.61412 0.0
C667 C 0.85581 0.33893 0.63302 0.0
H668 H 0.8846 0.41793 0.57126 0.0
H669 H 0.8352 0.37121 0.62777 0.0
S670 S 0.92371 0.32101 0.60136 0.0
N671 N 0.93867 0.35907 0.56972 0.0
N672 N 0.88567 0.30889 0.63151 0.0
C673 C 0.88356 0.33613 0.61587 0.0
C674 C 0.91227 0.36329 0.58281 0.0
C675 C 0.50625 0.86346 0.10524 0.0
C676 C 0.53617 0.89689 0.09573 0.0
C677 C 0.50648 0.83951 0.1423 0.0
C678 C 0.53675 0.84831 0.17045 0.0
H679 H 0.48172 0.85677 0.08767 0.0
H680 H 0.48195 0.81527 0.15273 0.0
S681 S 0.62391 0.92984 0.15008 0.0
N682 N 0.59826 0.93562 0.11017 0.0
N683 N 0.59891 0.89047 0.17905 0.0
C684 C 0.5679 0.8802 0.15611 0.0
C685 C 0.56754 0.9046 0.11899 0.0
C686 C 0.67321 0.55242 0.61665 0.0
C687 C 0.64037 0.52183 0.61307 0.0
C688 C 0.69668 0.55446 0.65517 0.0
C689 C 0.68784 0.52595 0.69105 0.0
H690 H 0.6795 0.57551 0.5927 0.0
H691 H 0.72026 0.57921 0.66023 0.0
S692 S 0.60766 0.43867 0.69086 0.0
N693 N 0.6022 0.46154 0.64312 0.0
N694 N 0.64633 0.4652 0.71516 0.0
C695 C 0.65665 0.49446 0.68385 0.0
C696 C 0.63282 0.49246 0.645 0.0
C697 C 0.11546 0.6621 0.12688 0.0
C698 C 0.12254 0.63983 0.10367 0.0
C699 C 0.13901 0.68592 0.16131 0.0
C700 C 0.17024 0.68796 0.17451 0.0
H701 H 0.09071 0.65989 0.12051 0.0
H702 H 0.13154 0.70121 0.18081 0.0
S703 S 0.20163 0.63645 0.12139 0.0
N704 N 0.16386 0.62272 0.09295 0.0
N705 N 0.20779 0.66685 0.15884 0.0
C706 C 0.17864 0.66731 0.14869 0.0
C707 C 0.15479 0.64329 0.11311 0.0
loop_
_geom_bond_atom_site_label_1
_geom_bond_atom_site_label_2
_geom_bond_distance
_geom_bond_site_symmetry_2
_ccdc_geom_bond_type
C0 C1 1.449 . S
C0 N4 1.382 . S
C0 C38 1.379 1_554 S
C1 C0 1.449 . S
C1 C2 1.340 . S
C1 H41 0.951 . S
C2 C1 1.340 . S
C2 C3 1.439 . S
C2 H42 0.950 . S
C3 C2 1.439 . S
C3 N4 1.374 . S
C3 C37 1.395 . S
N4 C0 1.382 . S
N4 C3 1.374 . S
N4 Co5 2.008 1_655 S
Co5 N4 2.008 1_455 S
Co5 N6 1.995 . S
Co5 N11 2.008 1_554 S
Co5 N16 1.995 1_554 S
Co5 N21 2.282 . S
Co5 N27 2.282 1_454 S
N6 Co5 1.995 . S
N6 C7 1.376 1_455 S
N6 C10 1.383 . S
C7 N6 1.376 1_655 S
C7 C8 1.446 . S
C7 C37 1.391 . S
C8 C7 1.446 . S
C8 C9 1.339 1_655 S
C8 H43 0.949 . S
C9 C8 1.339 1_455 S
C9 C10 1.439 . S
C9 H44 0.950 . S
C10 N6 1.383 . S
C10 C9 1.439 . S
C10 C39 1.392 . S
N11 Co5 2.008 1_556 S
N11 C12 1.376 1_556 S
N11 C15 1.374 . S
C12 N11 1.376 1_554 S
C12 C13 1.443 1_554 S
C12 C39 1.389 . S
C13 C12 1.443 1_556 S
C13 C14 1.340 . S
C13 H45 0.951 . S
C14 C13 1.340 . S
C14 C15 1.439 . S
C14 H46 0.950 . S
C15 N11 1.374 . S
C15 C14 1.439 . S
C15 C40 1.395 . S
N16 Co5 1.995 1_556 S
N16 C17 1.376 . S
N16 C20 1.383 1_455 S
C17 N16 1.376 . S
C17 C18 1.446 . S
C17 C40 1.391 . S
C18 C17 1.446 . S
C18 C19 1.339 1_455 S
C18 H47 0.949 . S
C19 C18 1.339 1_655 S
C19 C20 1.439 . S
C19 H48 0.950 . S
C20 N16 1.383 1_655 S
C20 C19 1.439 . S
C20 C38 1.392 . S
N21 Co5 2.282 . S
N21 C24 1.332 . S
N21 C26 1.332 . S
C22 C23 1.386 . S
C22 C25 1.388 . S
C23 C22 1.386 . S
C23 C24 1.382 . S
C23 H49 0.950 . S
C24 N21 1.332 . S
C24 C23 1.382 . S
C24 H35 0.952 1_554 S
C25 C22 1.388 . S
C25 C26 1.382 . S
C25 H50 0.950 . S
C26 N21 1.332 . S
C26 C25 1.382 . S
C26 H36 0.948 . S
N27 Co5 2.282 1_656 S
N27 C31 1.332 . S
N27 C32 1.332 . S
C28 C29 1.388 . S
C28 C32 1.382 . S
C28 H51 0.950 . S
C29 C28 1.388 . S
C29 C30 1.386 . S
C30 C29 1.386 . S
C30 C31 1.382 . S
C30 H52 0.950 . S
C31 N27 1.332 . S
C31 C30 1.382 . S
C31 H33 0.952 1_556 S
C32 N27 1.332 . S
C32 C28 1.382 . S
C32 H34 0.948 . S
H33 C31 0.952 1_554 S
H34 C32 0.948 . S
H35 C24 0.952 1_556 S
H36 C26 0.948 . S
C37 C3 1.395 . S
C37 C7 1.391 . S
C38 C0 1.379 1_556 S
C38 C20 1.392 . S
C39 C10 1.392 . S
C39 C12 1.389 . S
C40 C15 1.395 . S
C40 C17 1.391 . S
H41 C1 0.951 . S
H42 C2 0.950 . S
H43 C8 0.949 . S
H44 C9 0.950 . S
H45 C13 0.951 . S
H46 C14 0.950 . S
H47 C18 0.949 . S
H48 C19 0.950 . S
H49 C23 0.950 . S
H50 C25 0.950 . S
H51 C28 0.950 . S
H52 C30 0.950 . S
C53 C54 1.443 . S
C53 N57 1.376 . S
C53 C91 1.389 . S
C54 C53 1.443 . S
C54 C55 1.331 1_545 S
C54 H94 0.951 . S
C55 C54 1.331 1_565 S
C55 C56 1.442 . S
C55 H95 0.955 . S
C56 C55 1.442 . S
C56 N57 1.374 1_565 S
C56 C90 1.395 . S
N57 C53 1.376 . S
N57 C56 1.374 1_545 S
N57 Co58 2.008 . S
Co58 N57 2.008 . S
Co58 N59 1.995 1_545 S
Co58 N64 2.008 . S
Co58 N69 1.995 . S
Co58 N74 2.282 1_545 S
Co58 N80 2.282 . S
N59 Co58 1.995 1_565 S
N59 C60 1.376 . S
N59 C63 1.383 . S
C60 N59 1.376 . S
C60 C61 1.446 . S
C60 C90 1.391 . S
C61 C60 1.446 . S
C61 C62 1.339 . S
C61 H96 0.949 . S
C62 C61 1.339 . S
C62 C63 1.439 . S
C62 H97 0.950 . S
C63 N59 1.383 . S
C63 C62 1.439 . S
C63 C92 1.392 . S
N64 Co58 2.008 . S
N64 C65 1.376 1_545 S
N64 C68 1.374 . S
C65 N64 1.376 1_565 S
C65 C66 1.443 . S
C65 C92 1.389 . S
C66 C65 1.443 . S
C66 C67 1.340 1_565 S
C66 H98 0.951 . S
C67 C66 1.340 1_545 S
C67 C68 1.439 . S
C67 H99 0.950 . S
C68 N64 1.374 . S
C68 C67 1.439 . S
C68 C93 1.395 . S
N69 Co58 1.995 . S
N69 C70 1.376 . S
N69 C73 1.383 . S
C70 N69 1.376 . S
C70 C71 1.446 . S
C70 C93 1.391 . S
C71 C70 1.446 . S
C71 C72 1.339 . S
C71 H100 0.949 . S
C72 C71 1.339 . S
C72 C73 1.439 . S
C72 H101 0.950 . S
C73 N69 1.383 . S
C73 C72 1.439 . S
C73 C91 1.392 . S
N74 Co58 2.282 1_565 S
N74 C77 1.332 . S
N74 C79 1.332 . S
C75 C76 1.386 . S
C75 C78 1.388 . S
C76 C75 1.386 . S
C76 C77 1.382 . S
C76 H102 0.950 . S
C77 N74 1.332 . S
C77 C76 1.382 . S
C77 H88 0.952 1_565 S
C78 C75 1.388 . S
C78 C79 1.382 . S
C78 H103 0.950 . S
C79 N74 1.332 . S
C79 C78 1.382 . S
C79 H89 0.948 . S
N80 Co58 2.282 . S
N80 C84 1.332 . S
N80 C85 1.332 . S
C81 C82 1.388 . S
C81 C85 1.382 . S
C81 H104 0.950 . S
C82 C81 1.388 . S
C82 C83 1.386 . S
C83 C82 1.386 . S
C83 C84 1.382 . S
C83 H105 0.950 . S
C84 N80 1.332 . S
C84 C83 1.382 . S
C84 H86 0.952 . S
C85 N80 1.332 . S
C85 C81 1.382 . S
C85 H87 0.948 . S
H86 C84 0.952 . S
H87 C85 0.948 . S
H88 C77 0.952 1_545 S
H89 C79 0.948 . S
C90 C56 1.395 . S
C90 C60 1.391 . S
C91 C53 1.389 . S
C91 C73 1.392 . S
C92 C63 1.392 . S
C92 C65 1.389 . S
C93 C68 1.395 . S
C93 C70 1.391 . S
H94 C54 0.951 . S
H95 C55 0.955 . S
H96 C61 0.949 . S
H97 C62 0.950 . S
H98 C66 0.951 . S
H99 C67 0.950 . S
H100 C71 0.949 . S
H101 C72 0.950 . S
H102 C76 0.950 . S
H103 C78 0.950 . S
H104 C81 0.950 . S
H105 C83 0.950 . S
C106 C107 1.443 . S
C106 N110 1.376 . S
C106 C144 1.389 . S
C107 C106 1.443 . S
C107 C108 1.340 . S
C107 H147 0.951 . S
C108 C107 1.340 . S
C108 C109 1.439 . S
C108 H148 0.950 . S
C109 C108 1.439 . S
C109 N110 1.374 . S
C109 C143 1.395 . S
N110 C106 1.376 . S
N110 C109 1.374 . S
N110 Co111 2.008 1_556 S
Co111 N110 2.008 1_554 S
Co111 N112 1.995 1_554 S
Co111 N117 2.008 . S
Co111 N122 1.995 . S
Co111 N127 2.282 . S
Co111 N133 2.282 1_554 S
N112 Co111 1.995 1_556 S
N112 C113 1.376 . S
N112 C116 1.383 1_556 S
C113 N112 1.376 . S
C113 C114 1.446 . S
C113 C143 1.391 . S
C114 C113 1.446 . S
C114 C115 1.339 . S
C114 H149 0.949 . S
C115 C114 1.339 . S
C115 C116 1.439 1_556 S
C115 H150 0.950 . S
C116 N112 1.383 1_554 S
C116 C115 1.439 1_554 S
C116 C145 1.392 . S
N117 Co111 2.008 . S
N117 C118 1.376 . S
N117 C121 1.374 . S
C118 N117 1.376 . S
C118 C119 1.443 . S
C118 C145 1.389 . S
C119 C118 1.443 . S
C119 C120 1.340 . S
C119 H151 0.951 . S
C120 C119 1.340 . S
C120 C121 1.439 . S
C120 H152 0.950 . S
C121 N117 1.374 . S
C121 C120 1.439 . S
C121 C146 1.395 . S
N122 Co111 1.995 . S
N122 C123 1.376 . S
N122 C126 1.383 . S
C123 N122 1.376 . S
C123 C124 1.446 . S
C123 C146 1.391 . S
C124 C123 1.446 . S
C124 C125 1.339 . S
C124 H153 0.949 . S
C125 C124 1.339 . S
C125 C126 1.439 . S
C125 H154 0.950 . S
C126 N122 1.383 . S
C126 C125 1.439 . S
C126 C144 1.392 1_554 S
N127 Co111 2.282 . S
N127 C130 1.332 . S
N127 C132 1.332 . S
C128 C129 1.386 . S
C128 C131 1.388 . S
C129 C128 1.386 . S
C129 C130 1.382 . S
C129 H155 0.950 . S
C130 N127 1.332 . S
C130 C129 1.382 . S
C130 H141 0.952 . S
C131 C128 1.388 . S
C131 C132 1.382 . S
C131 H156 0.950 . S
C132 N127 1.332 . S
C132 C131 1.382 . S
C132 H142 0.948 1_554 S
N133 Co111 2.282 1_556 S
N133 C137 1.332 . S
N133 C138 1.332 . S
C134 C135 1.388 . S
C134 C138 1.382 . S
C134 H157 0.950 . S
C135 C134 1.388 . S
C135 C136 1.386 . S
C136 C135 1.386 . S
C136 C137 1.382 . S
C136 H158 0.950 . S
C137 N133 1.332 . S
C137 C136 1.382 . S
C137 H139 0.952 . S
C138 N133 1.332 . S
C138 C134 1.382 . S
C138 H140 0.948 1_556 S
H139 C137 0.952 . S
H140 C138 0.948 1_554 S
H141 C130 0.952 . S
H142 C132 0.948 1_556 S
C143 C109 1.395 . S
C143 C113 1.391 . S
C144 C106 1.389 . S
C144 C126 1.392 1_556 S
C145 C116 1.392 . S
C145 C118 1.389 . S
C146 C121 1.395 . S
C146 C123 1.391 . S
H147 C107 0.951 . S
H148 C108 0.950 . S
H149 C114 0.949 . S
H150 C115 0.950 . S
H151 C119 0.951 . S
H152 C120 0.950 . S
H153 C124 0.949 . S
H154 C125 0.950 . S
H155 C129 0.950 . S
H156 C131 0.950 . S
H157 C134 0.950 . S
H158 C136 0.950 . S
C159 C160 1.443 . S
C159 N163 1.376 . S
C159 C197 1.389 . S
C160 C159 1.443 . S
C160 C161 1.340 . S
C160 H200 0.951 . S
C161 C160 1.340 . S
C161 C162 1.439 . S
C161 H201 0.950 . S
C162 C161 1.439 . S
C162 N163 1.374 . S
C162 C196 1.395 . S
N163 C159 1.376 . S
N163 C162 1.374 . S
N163 Co164 2.008 1_655 S
Co164 N163 2.008 1_455 S
Co164 N165 1.995 . S
Co164 N170 2.008 . S
Co164 N175 1.995 . S
Co164 N180 2.282 . S
Co164 N186 2.282 1_455 S
N165 Co164 1.995 . S
N165 C166 1.376 1_455 S
N165 C169 1.383 . S
C166 N165 1.376 1_655 S
C166 C167 1.446 . S
C166 C196 1.391 . S
C167 C166 1.446 . S
C167 C168 1.339 1_655 S
C167 H202 0.949 . S
C168 C167 1.339 1_455 S
C168 C169 1.439 . S
C168 H203 0.950 . S
C169 N165 1.383 . S
C169 C168 1.439 . S
C169 C198 1.392 . S
N170 Co164 2.008 . S
N170 C171 1.376 . S
N170 C174 1.374 . S
C171 N170 1.376 . S
C171 C172 1.443 . S
C171 C198 1.389 . S
C172 C171 1.443 . S
C172 C173 1.340 . S
C172 H204 0.951 . S
C173 C172 1.340 . S
C173 C174 1.439 . S
C173 H205 0.950 . S
C174 N170 1.374 . S
C174 C173 1.439 . S
C174 C199 1.395 . S
N175 Co164 1.995 . S
N175 C176 1.376 . S
N175 C179 1.383 1_455 S
C176 N175 1.376 . S
C176 C177 1.446 . S
C176 C199 1.391 . S
C177 C176 1.446 . S
C177 C178 1.339 1_455 S
C177 H206 0.949 . S
C178 C177 1.339 1_655 S
C178 C179 1.439 . S
C178 H207 0.950 . S
C179 N175 1.383 1_655 S
C179 C178 1.439 . S
C179 C197 1.392 . S
N180 Co164 2.282 . S
N180 C183 1.332 . S
N180 C185 1.332 . S
C181 C182 1.386 . S
C181 C184 1.388 . S
C182 C181 1.386 . S
C182 C183 1.382 . S
C182 H208 0.950 . S
C183 N180 1.332 . S
C183 C182 1.382 . S
C183 H194 0.952 . S
C184 C181 1.388 . S
C184 C185 1.382 . S
C184 H209 0.950 . S
C185 N180 1.332 . S
C185 C184 1.382 . S
C185 H195 0.948 . S
N186 Co164 2.282 1_655 S
N186 C190 1.332 . S
N186 C191 1.332 . S
C187 C188 1.388 . S
C187 C191 1.382 . S
C187 H210 0.950 . S
C188 C187 1.388 . S
C188 C189 1.386 . S
C189 C188 1.386 . S
C189 C190 1.382 . S
C189 H211 0.950 . S
C190 N186 1.332 . S
C190 C189 1.382 . S
C190 H192 0.952 . S
C191 N186 1.332 . S
C191 C187 1.382 . S
C191 H193 0.948 . S
H192 C190 0.952 . S
H193 C191 0.948 . S
H194 C183 0.952 . S
H195 C185 0.948 . S
C196 C162 1.395 . S
C196 C166 1.391 . S
C197 C159 1.389 . S
C197 C179 1.392 . S
C198 C169 1.392 . S
C198 C171 1.389 . S
C199 C174 1.395 . S
C199 C176 1.391 . S
H200 C160 0.951 . S
H201 C161 0.950 . S
H202 C167 0.949 . S
H203 C168 0.950 . S
H204 C172 0.951 . S
H205 C173 0.950 . S
H206 C177 0.949 . S
H207 C178 0.950 . S
H208 C182 0.950 . S
H209 C184 0.950 . S
H210 C187 0.950 . S
H211 C189 0.950 . S
C212 C213 1.443 . S
C212 N216 1.376 1_565 S
C212 C250 1.389 . S
C213 C212 1.443 . S
C213 C214 1.340 1_565 S
C213 H253 0.951 . S
C214 C213 1.340 1_545 S
C214 C215 1.439 . S
C214 H254 0.950 . S
C215 C214 1.439 . S
C215 N216 1.374 . S
C215 C249 1.395 . S
N216 C212 1.376 1_545 S
N216 C215 1.374 . S
N216 Co217 2.027 . S
Co217 N216 2.027 . S
Co217 N218 2.001 . S
Co217 N223 1.989 1_554 S
Co217 N228 1.989 1_544 S
Co217 N233 2.275 1_554 S
Co217 N239 2.290 1_545 S
N218 Co217 2.001 . S
N218 C219 1.376 . S
N218 C222 1.383 1_554 S
C219 N218 1.376 . S
C219 C220 1.446 . S
C219 C249 1.391 . S
C220 C219 1.446 . S
C220 C221 1.339 . S
C220 H255 0.949 . S
C221 C220 1.339 . S
C221 C222 1.439 1_554 S
C221 H256 0.950 1_554 S
C222 N218 1.383 1_556 S
C222 C221 1.439 1_556 S
C222 C251 1.392 . S
N223 Co217 1.989 1_556 S
N223 C224 1.376 . S
N223 C227 1.374 1_545 S
C224 N223 1.376 . S
C224 C225 1.443 . S
C224 C251 1.389 . S
C225 C224 1.443 . S
C225 C226 1.340 . S
C225 H257 0.951 . S
C226 C225 1.340 . S
C226 C227 1.439 1_545 S
C226 H258 0.950 1_545 S
C227 N223 1.374 1_565 S
C227 C226 1.439 1_565 S
C227 C252 1.395 . S
N228 Co217 1.989 1_566 S
N228 C229 1.376 . S
N228 C232 1.383 1_556 S
C229 N228 1.376 . S
C229 C230 1.446 . S
C229 C252 1.391 . S
C230 C229 1.446 . S
C230 C231 1.339 . S
C230 H259 0.949 . S
C231 C230 1.339 . S
C231 C232 1.439 1_556 S
C231 H260 0.950 1_556 S
C232 N228 1.383 1_554 S
C232 C231 1.439 1_554 S
C232 C250 1.392 . S
N233 Co217 2.275 1_556 S
N233 C236 1.332 . S
N233 C238 1.332 . S
C234 C235 1.386 . S
C234 C237 1.388 . S
C235 C234 1.386 . S
C235 C236 1.382 . S
C235 H261 0.950 . S
C236 N233 1.332 . S
C236 C235 1.382 . S
C236 H247 0.952 . S
C237 C234 1.388 . S
C237 C238 1.382 . S
C237 H262 0.950 . S
C238 N233 1.332 . S
C238 C237 1.382 . S
C238 H248 0.948 1_556 S
N239 Co217 2.290 1_565 S
N239 C243 1.332 . S
N239 C244 1.332 . S
C240 C241 1.388 . S
C240 C244 1.382 . S
C240 H263 0.950 . S
C241 C240 1.388 . S
C241 C242 1.386 . S
C242 C241 1.386 . S
C242 C243 1.382 . S
C242 H264 0.950 . S
C243 N239 1.332 . S
C243 C242 1.382 . S
C243 H245 0.952 1_565 S
C244 N239 1.332 . S
C244 C240 1.382 . S
C244 H246 0.948 1_554 S
H245 C243 0.952 1_545 S
H246 C244 0.948 1_556 S
H247 C236 0.952 . S
H248 C238 0.948 1_554 S
C249 C215 1.395 . S
C249 C219 1.391 . S
C250 C212 1.389 . S
C250 C232 1.392 . S
C251 C222 1.392 . S
C251 C224 1.389 . S
C252 C227 1.395 . S
C252 C229 1.391 . S
H253 C213 0.951 . S
H254 C214 0.950 . S
H255 C220 0.949 . S
H256 C221 0.950 1_556 S
H257 C225 0.951 . S
H258 C226 0.950 1_565 S
H259 C230 0.949 . S
H260 C231 0.950 1_554 S
H261 C235 0.950 . S
H262 C237 0.950 . S
H263 C240 0.950 . S
H264 C242 0.950 . S
C265 C266 1.443 . S
C265 N269 1.376 . S
C265 C303 1.389 . S
C266 C265 1.443 . S
C266 C267 1.340 . S
C266 H306 0.951 . S
C267 C266 1.340 . S
C267 C268 1.439 . S
C267 H307 0.950 . S
C268 C267 1.439 . S
C268 N269 1.374 . S
C268 C302 1.395 . S
N269 C265 1.376 . S
N269 C268 1.374 . S
N269 Co270 2.008 . S
Co270 N269 2.008 . S
Co270 N271 1.995 . S
Co270 N276 2.008 . S
Co270 N281 1.995 . S
Co270 N286 2.282 . S
Co270 N292 2.282 . S
N271 Co270 1.995 . S
N271 C272 1.376 . S
N271 C275 1.383 . S
C272 N271 1.376 . S
C272 C273 1.446 . S
C272 C302 1.391 . S
C273 C272 1.446 . S
C273 C274 1.339 . S
C273 H308 0.949 . S
C274 C273 1.339 . S
C274 C275 1.439 . S
C274 H309 0.950 . S
C275 N271 1.383 . S
C275 C274 1.439 . S
C275 C304 1.392 . S
N276 Co270 2.008 . S
N276 C277 1.376 . S
N276 C280 1.374 . S
C277 N276 1.376 . S
C277 C278 1.443 . S
C277 C304 1.389 . S
C278 C277 1.443 . S
C278 C279 1.340 . S
C278 H310 0.951 . S
C279 C278 1.340 . S
C279 C280 1.439 . S
C279 H311 0.950 . S
C280 N276 1.374 . S
C280 C279 1.439 . S
C280 C305 1.395 . S
N281 Co270 1.995 . S
N281 C282 1.376 . S
N281 C285 1.383 . S
C282 N281 1.376 . S
C282 C283 1.446 . S
C282 C305 1.391 . S
C283 C282 1.446 . S
C283 C284 1.339 . S
C283 H312 0.949 . S
C284 C283 1.339 . S
C284 C285 1.439 . S
C284 H313 0.950 . S
C285 N281 1.383 . S
C285 C284 1.439 . S
C285 C303 1.392 . S
N286 Co270 2.282 . S
N286 C289 1.332 . S
N286 C291 1.332 . S
C287 C288 1.386 . S
C287 C290 1.388 . S
C288 C287 1.386 . S
C288 C289 1.382 . S
C288 H314 0.950 . S
C289 N286 1.332 . S
C289 C288 1.382 . S
C289 H300 0.952 . S
C290 C287 1.388 . S
C290 C291 1.382 . S
C290 H315 0.950 . S
C291 N286 1.332 . S
C291 C290 1.382 . S
C291 H301 0.948 . S
N292 Co270 2.282 . S
N292 C296 1.332 . S
N292 C297 1.332 . S
C293 C294 1.388 . S
C293 C297 1.382 . S
C293 H316 0.950 . S
C294 C293 1.388 . S
C294 C295 1.386 . S
C295 C294 1.386 . S
C295 C296 1.382 . S
C295 H317 0.950 . S
C296 N292 1.332 . S
C296 C295 1.382 . S
C296 H298 0.952 . S
C297 N292 1.332 . S
C297 C293 1.382 . S
C297 H299 0.948 . S
H298 C296 0.952 . S
H299 C297 0.948 . S
H300 C289 0.952 . S
H301 C291 0.948 . S
C302 C268 1.395 . S
C302 C272 1.391 . S
C303 C265 1.389 . S
C303 C285 1.392 . S
C304 C275 1.392 . S
C304 C277 1.389 . S
C305 C280 1.395 . S
C305 C282 1.391 . S
H306 C266 0.951 . S
H307 C267 0.950 . S
H308 C273 0.949 . S
H309 C274 0.950 . S
H310 C278 0.951 . S
H311 C279 0.950 . S
H312 C283 0.949 . S
H313 C284 0.950 . S
H314 C288 0.950 . S
H315 C290 0.950 . S
H316 C293 0.950 . S
H317 C295 0.950 . S
H318 C326 0.930 . S
H319 C329 0.930 . S
H320 C331 0.930 . S
H321 C332 0.970 . S
H322 C332 0.970 . S
H323 C334 0.930 . S
H324 C336 0.930 . S
H325 C338 0.930 . S
C326 H318 0.930 . S
C326 C327 1.382 . S
C326 C328 1.426 . S
C327 C326 1.382 . S
C327 C331 1.389 . S
C328 C326 1.426 . S
C328 C329 1.375 . S
C328 C332 1.532 . S
C329 H319 0.930 . S
C329 C328 1.375 . S
C329 C330 1.416 . S
C330 C329 1.416 . S
C330 C331 1.371 . S
C331 H320 0.930 . S
C331 C327 1.389 . S
C331 C330 1.371 . S
C332 H321 0.970 . S
C332 H322 0.970 . S
C332 C328 1.532 . S
C332 C333 1.499 . S
C333 C332 1.499 . S
C333 C334 1.370 . S
C333 C338 1.415 . S
C334 H323 0.930 . S
C334 C333 1.370 . S
C334 C335 1.407 . S
C335 C334 1.407 . S
C335 C336 1.365 . S
C336 H324 0.930 . S
C336 C335 1.365 . S
C336 C337 1.393 . S
C337 C336 1.393 . S
C337 C338 1.387 . S
C338 H325 0.930 . S
C338 C333 1.415 . S
C338 C337 1.387 . S
H339 C347 0.930 . S
H340 C350 0.930 . S
H341 C352 0.930 . S
H342 C353 0.970 . S
H343 C353 0.970 . S
H344 C355 0.930 . S
H345 C357 0.930 . S
H346 C359 0.930 . S
C347 H339 0.930 . S
C347 C348 1.382 . S
C347 C349 1.426 . S
C348 C347 1.382 . S
C348 C352 1.389 . S
C349 C347 1.426 . S
C349 C350 1.375 . S
C349 C353 1.532 . S
C350 H340 0.930 . S
C350 C349 1.375 . S
C350 C351 1.416 . S
C351 C350 1.416 . S
C351 C352 1.371 . S
C352 H341 0.930 . S
C352 C348 1.389 . S
C352 C351 1.371 . S
C353 H342 0.970 . S
C353 H343 0.970 . S
C353 C349 1.532 . S
C353 C354 1.499 . S
C354 C353 1.499 . S
C354 C355 1.370 . S
C354 C359 1.415 . S
C355 H344 0.930 . S
C355 C354 1.370 . S
C355 C356 1.407 . S
C356 C355 1.407 . S
C356 C357 1.365 . S
C357 H345 0.930 . S
C357 C356 1.365 . S
C357 C358 1.393 . S
C358 C357 1.393 . S
C358 C359 1.387 . S
C359 H346 0.930 . S
C359 C354 1.415 . S
C359 C358 1.387 . S
H360 C368 0.930 . S
H361 C371 0.930 . S
H362 C373 0.930 . S
H363 C374 0.970 . S
H364 C374 0.970 . S
H365 C376 0.930 . S
H366 C378 0.930 . S
H367 C380 0.930 . S
C368 H360 0.930 . S
C368 C369 1.382 . S
C368 C370 1.426 . S
C369 C368 1.382 . S
C369 C373 1.389 . S
C370 C368 1.426 . S
C370 C371 1.375 . S
C370 C374 1.532 . S
C371 H361 0.930 . S
C371 C370 1.375 . S
C371 C372 1.416 . S
C372 C371 1.416 . S
C372 C373 1.371 . S
C373 H362 0.930 . S
C373 C369 1.389 . S
C373 C372 1.371 . S
C374 H363 0.970 . S
C374 H364 0.970 . S
C374 C370 1.532 . S
C374 C375 1.499 . S
C375 C374 1.499 . S
C375 C376 1.370 . S
C375 C380 1.415 . S
C376 H365 0.930 . S
C376 C375 1.370 . S
C376 C377 1.407 . S
C377 C376 1.407 . S
C377 C378 1.365 . S
C378 H366 0.930 . S
C378 C377 1.365 . S
C378 C379 1.393 . S
C379 C378 1.393 . S
C379 C380 1.387 . S
C380 H367 0.930 . S
C380 C375 1.415 . S
C380 C379 1.387 . S
H381 C389 0.930 . S
H382 C392 0.930 . S
H383 C394 0.930 . S
H384 C395 0.970 . S
H385 C395 0.970 . S
H386 C397 0.930 . S
H387 C399 0.930 . S
H388 C401 0.930 . S
C389 H381 0.930 . S
C389 C390 1.382 . S
C389 C391 1.426 . S
C390 C389 1.382 . S
C390 C394 1.389 . S
C391 C389 1.426 . S
C391 C392 1.375 . S
C391 C395 1.532 . S
C392 H382 0.930 . S
C392 C391 1.375 . S
C392 C393 1.416 . S
C393 C392 1.416 . S
C393 C394 1.371 . S
C394 H383 0.930 . S
C394 C390 1.389 . S
C394 C393 1.371 . S
C395 H384 0.970 . S
C395 H385 0.970 . S
C395 C391 1.532 . S
C395 C396 1.499 . S
C396 C395 1.499 . S
C396 C397 1.370 . S
C396 C401 1.415 . S
C397 H386 0.930 . S
C397 C396 1.370 . S
C397 C398 1.407 . S
C398 C397 1.407 . S
C398 C399 1.365 . S
C399 H387 0.930 . S
C399 C398 1.365 . S
C399 C400 1.393 . S
C400 C399 1.393 . S
C400 C401 1.387 . S
C401 H388 0.930 . S
C401 C396 1.415 . S
C401 C400 1.387 . S
H402 C410 0.930 . S
H403 C413 0.930 . S
H404 C415 0.930 . S
H405 C416 0.970 . S
H406 C416 0.970 . S
H407 C418 0.930 . S
H408 C420 0.930 . S
H409 C422 0.930 . S
C410 H402 0.930 . S
C410 C411 1.382 . S
C410 C412 1.426 . S
C411 C410 1.382 . S
C411 C415 1.389 . S
C412 C410 1.426 . S
C412 C413 1.375 . S
C412 C416 1.532 . S
C413 H403 0.930 . S
C413 C412 1.375 . S
C413 C414 1.416 . S
C414 C413 1.416 . S
C414 C415 1.371 . S
C415 H404 0.930 . S
C415 C411 1.389 . S
C415 C414 1.371 . S
C416 H405 0.970 . S
C416 H406 0.970 . S
C416 C412 1.532 . S
C416 C417 1.499 . S
C417 C416 1.499 . S
C417 C418 1.370 . S
C417 C422 1.415 . S
C418 H407 0.930 . S
C418 C417 1.370 . S
C418 C419 1.407 . S
C419 C418 1.407 . S
C419 C420 1.365 . S
C420 H408 0.930 . S
C420 C419 1.365 . S
C420 C421 1.393 . S
C421 C420 1.393 . S
C421 C422 1.387 . S
C422 H409 0.930 . S
C422 C417 1.415 . S
C422 C421 1.387 . S
H423 C431 0.930 . S
H424 C434 0.930 . S
H425 C436 0.930 . S
H426 C437 0.970 . S
H427 C437 0.970 . S
H428 C439 0.930 . S
H429 C441 0.930 . S
H430 C443 0.930 . S
C431 H423 0.930 . S
C431 C432 1.382 . S
C431 C433 1.426 . S
C432 C431 1.382 . S
C432 C436 1.389 . S
C433 C431 1.426 . S
C433 C434 1.375 . S
C433 C437 1.532 . S
C434 H424 0.930 . S
C434 C433 1.375 . S
C434 C435 1.416 . S
C435 C434 1.416 . S
C435 C436 1.371 . S
C436 H425 0.930 . S
C436 C432 1.389 . S
C436 C435 1.371 . S
C437 H426 0.970 . S
C437 H427 0.970 . S
C437 C433 1.532 . S
C437 C438 1.499 . S
C438 C437 1.499 . S
C438 C439 1.370 . S
C438 C443 1.415 . S
C439 H428 0.930 . S
C439 C438 1.370 . S
C439 C440 1.407 . S
C440 C439 1.407 . S
C440 C441 1.365 . S
C441 H429 0.930 . S
C441 C440 1.365 . S
C441 C442 1.393 . S
C442 C441 1.393 . S
C442 C443 1.387 . S
C443 H430 0.930 . S
C443 C438 1.415 . S
C443 C442 1.387 . S
C444 C445 1.369 . S
C444 C446 1.419 . S
C444 H448 0.930 . S
C445 C444 1.369 . S
C445 C454 1.429 . S
C446 C444 1.419 . S
C446 C447 1.363 . S
C446 H449 0.929 . S
C447 C446 1.363 . S
C447 C453 1.428 . S
H448 C444 0.930 . S
H449 C446 0.929 . S
S450 N451 1.613 . S
S450 N452 1.610 1_556 S
N451 S450 1.613 . S
N451 C454 1.350 1_556 S
N452 S450 1.610 1_554 S
N452 C453 1.351 . S
C453 C447 1.428 . S
C453 N452 1.351 . S
C453 C454 1.434 . S
C454 C445 1.429 . S
C454 N451 1.350 1_554 S
C454 C453 1.434 . S
C455 C456 1.369 . S
C455 C457 1.419 . S
C455 H459 0.930 . S
C456 C455 1.369 . S
C456 C465 1.429 . S
C457 C455 1.419 . S
C457 C458 1.363 . S
C457 H460 0.929 . S
C458 C457 1.363 . S
C458 C464 1.428 . S
H459 C455 0.930 . S
H460 C457 0.929 . S
S461 N462 1.613 . S
S461 N463 1.610 . S
N462 S461 1.613 . S
N462 C465 1.350 . S
N463 S461 1.610 . S
N463 C464 1.351 . S
C464 C458 1.428 . S
C464 N463 1.351 . S
C464 C465 1.434 . S
C465 C456 1.429 . S
C465 N462 1.350 . S
C465 C464 1.434 . S
C466 C467 1.369 . S
C466 C468 1.419 . S
C466 H470 0.930 . S
C467 C466 1.369 . S
C467 C476 1.429 . S
C468 C466 1.419 . S
C468 C469 1.363 . S
C468 H471 0.929 . S
C469 C468 1.363 . S
C469 C475 1.428 . S
H470 C466 0.930 . S
H471 C468 0.929 . S
S472 N473 1.613 . S
S472 N474 1.610 . S
N473 S472 1.613 . S
N473 C476 1.350 . S
N474 S472 1.610 . S
N474 C475 1.351 . S
C475 C469 1.428 . S
C475 N474 1.351 . S
C475 C476 1.434 . S
C476 C467 1.429 . S
C476 N473 1.350 . S
C476 C475 1.434 . S
C477 C478 1.369 . S
C477 C479 1.419 . S
C477 H481 0.930 . S
C478 C477 1.369 . S
C478 C487 1.429 . S
C479 C477 1.419 . S
C479 C480 1.363 . S
C479 H482 0.929 . S
C480 C479 1.363 . S
C480 C486 1.428 . S
H481 C477 0.930 . S
H482 C479 0.929 . S
S483 N484 1.613 . S
S483 N485 1.610 . S
N484 S483 1.613 . S
N484 C487 1.350 . S
N485 S483 1.610 . S
N485 C486 1.351 . S
C486 C480 1.428 . S
C486 N485 1.351 . S
C486 C487 1.434 . S
C487 C478 1.429 . S
C487 N484 1.350 . S
C487 C486 1.434 . S
C488 C489 1.369 . S
C488 C490 1.419 . S
C488 H492 0.930 . S
C489 C488 1.369 . S
C489 C498 1.429 . S
C490 C488 1.419 . S
C490 C491 1.363 . S
C490 H493 0.929 . S
C491 C490 1.363 . S
C491 C497 1.428 . S
H492 C488 0.930 . S
H493 C490 0.929 . S
S494 N495 1.613 . S
S494 N496 1.610 . S
N495 S494 1.613 . S
N495 C498 1.350 . S
N496 S494 1.610 . S
N496 C497 1.351 . S
C497 C491 1.428 . S
C497 N496 1.351 . S
C497 C498 1.434 . S
C498 C489 1.429 . S
C498 N495 1.350 . S
C498 C497 1.434 . S
C499 C500 1.369 . S
C499 C501 1.419 . S
C499 H503 0.930 . S
C500 C499 1.369 . S
C500 C509 1.429 . S
C501 C499 1.419 . S
C501 C502 1.363 . S
C501 H504 0.929 . S
C502 C501 1.363 . S
C502 C508 1.428 . S
H503 C499 0.930 . S
H504 C501 0.929 . S
S505 N506 1.613 . S
S505 N507 1.610 . S
N506 S505 1.613 . S
N506 C509 1.350 . S
N507 S505 1.610 . S
N507 C508 1.351 . S
C508 C502 1.428 . S
C508 N507 1.351 . S
C508 C509 1.434 . S
C509 C500 1.429 . S
C509 N506 1.350 . S
C509 C508 1.434 . S
C510 C511 1.369 . S
C510 C512 1.419 . S
C510 H514 0.930 . S
C511 C510 1.369 . S
C511 C520 1.429 . S
C512 C510 1.419 . S
C512 C513 1.363 . S
C512 H515 0.929 . S
C513 C512 1.363 . S
C513 C519 1.428 . S
H514 C510 0.930 . S
H515 C512 0.929 . S
S516 N517 1.613 . S
S516 N518 1.610 . S
N517 S516 1.613 . S
N517 C520 1.350 . S
N518 S516 1.610 . S
N518 C519 1.351 . S
C519 C513 1.428 . S
C519 N518 1.351 . S
C519 C520 1.434 . S
C520 C511 1.429 . S
C520 N517 1.350 . S
C520 C519 1.434 . S
C521 C522 1.369 . S
C521 C523 1.419 . S
C521 H525 0.930 . S
C522 C521 1.369 . S
C522 C531 1.429 . S
C523 C521 1.419 . S
C523 C524 1.363 . S
C523 H526 0.929 . S
C524 C523 1.363 . S
C524 C530 1.428 . S
H525 C521 0.930 . S
H526 C523 0.929 . S
S527 N528 1.613 . S
S527 N529 1.610 . S
N528 S527 1.613 . S
N528 C531 1.350 . S
N529 S527 1.610 . S
N529 C530 1.351 . S
C530 C524 1.428 . S
C530 N529 1.351 . S
C530 C531 1.434 . S
C531 C522 1.429 . S
C531 N528 1.350 . S
C531 C530 1.434 . S
C532 C533 1.369 . S
C532 C534 1.419 . S
C532 H536 0.930 . S
C533 C532 1.369 . S
C533 C542 1.429 . S
C534 C532 1.419 . S
C534 C535 1.363 . S
C534 H537 0.929 . S
C535 C534 1.363 . S
C535 C541 1.428 . S
H536 C532 0.930 . S
H537 C534 0.929 . S
S538 N539 1.613 . S
S538 N540 1.610 . S
N539 S538 1.613 . S
N539 C542 1.350 . S
N540 S538 1.610 . S
N540 C541 1.351 . S
C541 C535 1.428 . S
C541 N540 1.351 . S
C541 C542 1.434 . S
C542 C533 1.429 . S
C542 N539 1.350 . S
C542 C541 1.434 . S
C543 C544 1.369 . S
C543 C545 1.419 . S
C543 H547 0.930 . S
C544 C543 1.369 . S
C544 C553 1.429 . S
C545 C543 1.419 . S
C545 C546 1.363 . S
C545 H548 0.929 . S
C546 C545 1.363 . S
C546 C552 1.428 . S
H547 C543 0.930 . S
H548 C545 0.929 . S
S549 N550 1.613 . S
S549 N551 1.610 . S
N550 S549 1.613 . S
N550 C553 1.350 . S
N551 S549 1.610 . S
N551 C552 1.351 . S
C552 C546 1.428 . S
C552 N551 1.351 . S
C552 C553 1.434 . S
C553 C544 1.429 . S
C553 N550 1.350 . S
C553 C552 1.434 . S
C554 C555 1.369 . S
C554 C556 1.419 . S
C554 H558 0.930 . S
C555 C554 1.369 . S
C555 C564 1.429 . S
C556 C554 1.419 . S
C556 C557 1.363 . S
C556 H559 0.929 . S
C557 C556 1.363 . S
C557 C563 1.428 . S
H558 C554 0.930 . S
H559 C556 0.929 . S
S560 N561 1.613 . S
S560 N562 1.610 . S
N561 S560 1.613 . S
N561 C564 1.350 . S
N562 S560 1.610 . S
N562 C563 1.351 . S
C563 C557 1.428 . S
C563 N562 1.351 . S
C563 C564 1.434 . S
C564 C555 1.429 . S
C564 N561 1.350 . S
C564 C563 1.434 . S
C565 C566 1.369 . S
C565 C567 1.419 . S
C565 H569 0.930 . S
C566 C565 1.369 . S
C566 C575 1.429 . S
C567 C565 1.419 . S
C567 C568 1.363 . S
C567 H570 0.929 . S
C568 C567 1.363 . S
C568 C574 1.428 . S
H569 C565 0.930 . S
H570 C567 0.929 . S
S571 N572 1.613 . S
S571 N573 1.610 . S
N572 S571 1.613 . S
N572 C575 1.350 . S
N573 S571 1.610 . S
N573 C574 1.351 . S
C574 C568 1.428 . S
C574 N573 1.351 . S
C574 C575 1.434 . S
C575 C566 1.429 . S
C575 N572 1.350 . S
C575 C574 1.434 . S
C576 C577 1.369 . S
C576 C578 1.419 . S
C576 H580 0.930 . S
C577 C576 1.369 . S
C577 C586 1.429 . S
C578 C576 1.419 . S
C578 C579 1.363 . S
C578 H581 0.929 . S
C579 C578 1.363 . S
C579 C585 1.428 . S
H580 C576 0.930 . S
H581 C578 0.929 . S
S582 N583 1.613 . S
S582 N584 1.610 . S
N583 S582 1.613 . S
N583 C586 1.350 . S
N584 S582 1.610 . S
N584 C585 1.351 . S
C585 C579 1.428 . S
C585 N584 1.351 . S
C585 C586 1.434 . S
C586 C577 1.429 . S
C586 N583 1.350 . S
C586 C585 1.434 . S
C587 C588 1.369 . S
C587 C589 1.419 . S
C587 H591 0.930 . S
C588 C587 1.369 . S
C588 C597 1.429 . S
C589 C587 1.419 . S
C589 C590 1.363 . S
C589 H592 0.929 . S
C590 C589 1.363 . S
C590 C596 1.428 . S
H591 C587 0.930 . S
H592 C589 0.929 . S
S593 N594 1.613 . S
S593 N595 1.610 . S
N594 S593 1.613 . S
N594 C597 1.350 . S
N595 S593 1.610 . S
N595 C596 1.351 . S
C596 C590 1.428 . S
C596 N595 1.351 . S
C596 C597 1.434 . S
C597 C588 1.429 . S
C597 N594 1.350 . S
C597 C596 1.434 . S
C598 C599 1.369 . S
C598 C600 1.419 . S
C598 H602 0.930 . S
C599 C598 1.369 . S
C599 C608 1.429 . S
C600 C598 1.419 . S
C600 C601 1.363 . S
C600 H603 0.929 . S
C601 C600 1.363 . S
C601 C607 1.428 . S
H602 C598 0.930 . S
H603 C600 0.929 . S
S604 N605 1.613 . S
S604 N606 1.610 . S
N605 S604 1.613 . S
N605 C608 1.350 . S
N606 S604 1.610 . S
N606 C607 1.351 . S
C607 C601 1.428 . S
C607 N606 1.351 . S
C607 C608 1.434 . S
C608 C599 1.429 . S
C608 N605 1.350 . S
C608 C607 1.434 . S
C609 C610 1.369 . S
C609 C611 1.419 . S
C609 H613 0.930 . S
C610 C609 1.369 . S
C610 C619 1.429 . S
C611 C609 1.419 . S
C611 C612 1.363 . S
C611 H614 0.929 . S
C612 C611 1.363 . S
C612 C618 1.428 . S
H613 C609 0.930 . S
H614 C611 0.929 . S
S615 N616 1.613 . S
S615 N617 1.610 . S
N616 S615 1.613 . S
N616 C619 1.350 . S
N617 S615 1.610 . S
N617 C618 1.351 . S
C618 C612 1.428 . S
C618 N617 1.351 . S
C618 C619 1.434 . S
C619 C610 1.429 . S
C619 N616 1.350 . S
C619 C618 1.434 . S
C620 C621 1.369 . S
C620 C622 1.419 . S
C620 H624 0.930 . S
C621 C620 1.369 . S
C621 C630 1.429 . S
C622 C620 1.419 . S
C622 C623 1.363 . S
C622 H625 0.929 . S
C623 C622 1.363 . S
C623 C629 1.428 . S
H624 C620 0.930 . S
H625 C622 0.929 . S
S626 N627 1.613 . S
S626 N628 1.610 . S
N627 S626 1.613 . S
N627 C630 1.350 . S
N628 S626 1.610 . S
N628 C629 1.351 . S
C629 C623 1.428 . S
C629 N628 1.351 . S
C629 C630 1.434 . S
C630 C621 1.429 . S
C630 N627 1.350 . S
C630 C629 1.434 . S
C631 C632 1.369 . S
C631 C633 1.419 . S
C631 H635 0.930 . S
C632 C631 1.369 . S
C632 C641 1.429 . S
C633 C631 1.419 . S
C633 C634 1.363 . S
C633 H636 0.929 . S
C634 C633 1.363 . S
C634 C640 1.428 . S
H635 C631 0.930 . S
H636 C633 0.929 . S
S637 N638 1.613 . S
S637 N639 1.610 . S
N638 S637 1.613 . S
N638 C641 1.350 . S
N639 S637 1.610 . S
N639 C640 1.351 . S
C640 C634 1.428 . S
C640 N639 1.351 . S
C640 C641 1.434 . S
C641 C632 1.429 . S
C641 N638 1.350 . S
C641 C640 1.434 . S
C642 C643 1.369 . S
C642 C644 1.419 . S
C642 H646 0.930 . S
C643 C642 1.369 . S
C643 C652 1.429 . S
C644 C642 1.419 . S
C644 C645 1.363 . S
C644 H647 0.929 . S
C645 C644 1.363 . S
C645 C651 1.428 . S
H646 C642 0.930 . S
H647 C644 0.929 . S
S648 N649 1.613 . S
S648 N650 1.610 . S
N649 S648 1.613 . S
N649 C652 1.350 . S
N650 S648 1.610 . S
N650 C651 1.351 . S
C651 C645 1.428 . S
C651 N650 1.351 . S
C651 C652 1.434 . S
C652 C643 1.429 . S
C652 N649 1.350 . S
C652 C651 1.434 . S
C653 C654 1.369 . S
C653 C655 1.419 . S
C653 H657 0.930 . S
C654 C653 1.369 . S
C654 C663 1.429 . S
C655 C653 1.419 . S
C655 C656 1.363 . S
C655 H658 0.929 . S
C656 C655 1.363 . S
C656 C662 1.428 . S
H657 C653 0.930 . S
H658 C655 0.929 . S
S659 N660 1.613 1_556 S
S659 N661 1.610 1_556 S
N660 S659 1.613 1_554 S
N660 C663 1.350 . S
N661 S659 1.610 1_554 S
N661 C662 1.351 . S
C662 C656 1.428 . S
C662 N661 1.351 . S
C662 C663 1.434 . S
C663 C654 1.429 . S
C663 N660 1.350 . S
C663 C662 1.434 . S
C664 C665 1.369 . S
C664 C666 1.419 . S
C664 H668 0.930 . S
C665 C664 1.369 . S
C665 C674 1.429 . S
C666 C664 1.419 . S
C666 C667 1.363 . S
C666 H669 0.929 . S
C667 C666 1.363 . S
C667 C673 1.428 . S
H668 C664 0.930 . S
H669 C666 0.929 . S
S670 N671 1.613 . S
S670 N672 1.610 . S
N671 S670 1.613 . S
N671 C674 1.350 . S
N672 S670 1.610 . S
N672 C673 1.351 . S
C673 C667 1.428 . S
C673 N672 1.351 . S
C673 C674 1.434 . S
C674 C665 1.429 . S
C674 N671 1.350 . S
C674 C673 1.434 . S
C675 C676 1.369 . S
C675 C677 1.419 . S
C675 H679 0.930 . S
C676 C675 1.369 . S
C676 C685 1.429 . S
C677 C675 1.419 . S
C677 C678 1.363 . S
C677 H680 0.929 . S
C678 C677 1.363 . S
C678 C684 1.428 . S
H679 C675 0.930 . S
H680 C677 0.929 . S
S681 N682 1.613 . S
S681 N683 1.610 . S
N682 S681 1.613 . S
N682 C685 1.350 . S
N683 S681 1.610 . S
N683 C684 1.351 . S
C684 C678 1.428 . S
C684 N683 1.351 . S
C684 C685 1.434 . S
C685 C676 1.429 . S
C685 N682 1.350 . S
C685 C684 1.434 . S
C686 C687 1.369 . S
C686 C688 1.419 . S
C686 H690 0.930 . S
C687 C686 1.369 . S
C687 C696 1.429 . S
C688 C686 1.419 . S
C688 C689 1.363 . S
C688 H691 0.929 . S
C689 C688 1.363 . S
C689 C695 1.428 . S
H690 C686 0.930 . S
H691 C688 0.929 . S
S692 N693 1.613 . S
S692 N694 1.610 . S
N693 S692 1.613 . S
N693 C696 1.350 . S
N694 S692 1.610 . S
N694 C695 1.351 . S
C695 C689 1.428 . S
C695 N694 1.351 . S
C695 C696 1.434 . S
C696 C687 1.429 . S
C696 N693 1.350 . S
C696 C695 1.434 . S
C697 C698 1.369 . S
C697 C699 1.419 . S
C697 H701 0.930 . S
C698 C697 1.369 . S
C698 C707 1.429 . S
C699 C697 1.419 . S
C699 C700 1.363 . S
C699 H702 0.929 . S
C700 C699 1.363 . S
C700 C706 1.428 . S
H701 C697 0.930 . S
H702 C699 0.929 . S
S703 N704 1.613 . S
S703 N705 1.610 . S
N704 S703 1.613 . S
N704 C707 1.350 . S
N705 S703 1.610 . S
N705 C706 1.351 . S
C706 C700 1.428 . S
C706 N705 1.351 . S
C706 C707 1.434 . S
C707 C698 1.429 . S
C707 N704 1.350 . S
C707 C706 1.434 . S
C445 C39 1.671 . S
C447 C327 1.485 . S
C456 C91 1.648 . S
C458 C348 1.510 . S
C469 C369 1.365 . S
C467 C128 1.484 . S
C480 C398 1.446 . S
C478 C188 1.485 . S
C491 C411 1.418 . S
C489 C250 1.523 . S
C502 C435 1.580 . S
C500 C304 1.669 . S
C511 C75 1.556 . S
C513 C379 1.403 . S
C522 C144 1.707 . S
C524 C393 1.578 . S
C535 C421 1.457 . S
C533 C198 1.596 . S
C546 C440 1.447 . S
C544 C234 1.514 . S
C555 C294 1.421 . S
C557 C337 1.348 . S
C568 C358 1.399 . S
C566 C29 1.492 . S
C579 C400 1.587 . S
C577 C38 1.693 . S
C588 C92 1.684 . S
C590 C414 1.494 . S
C601 C432 1.473 . S
C599 C135 1.520 . S
C610 C181 1.506 . S
C612 C330 1.370 . S
C621 C251 1.552 . S
C623 C351 1.412 . S
C632 C303 1.706 . S
C634 C372 1.476 . S
C643 C82 1.589 . S
C645 C442 1.495 . S
C656 C335 1.520 . S
C654 C145 1.737 . S
C665 C197 1.630 . S
C667 C356 1.448 . S
C676 C241 1.546 . S
C678 C377 1.388 . S
C687 C287 1.453 . S
C689 C390 1.422 . S
C698 C22 1.526 . S
C700 C419 1.389 . S
