# Generated by pormake.
# Topology eea, (3,6)-cn, num edge types: 1
# Building blocks:
#     Node 0, Type 0, BuildingBlock: QEWDON_clean_linker_0, # of connection points: 3
#     Node 1, Type 0, BuildingBlock: QEWDON_clean_linker_0, # of connection points: 3
#     Node 2, Type 0, BuildingBlock: QEWDON_clean_linker_0, # of connection points: 3
#     Node 3, Type 0, BuildingBlock: QEWDON_clean_linker_0, # of connection points: 3
#     Node 4, Type 0, BuildingBlock: QEWDON_clean_linker_0, # of connection points: 3
#     Node 5, Type 0, BuildingBlock: QEWDON_clean_linker_0, # of connection points: 3
#     Node 6, Type 0, BuildingBlock: QEWDON_clean_linker_0, # of connection points: 3
#     Node 7, Type 0, BuildingBlock: QEWDON_clean_linker_0, # of connection points: 3
#     Node 8, Type 0, BuildingBlock: QEWDON_clean_linker_0, # of connection points: 3
#     Node 9, Type 0, BuildingBlock: QEWDON_clean_linker_0, # of connection points: 3
#     Node 10, Type 0, BuildingBlock: QEWDON_clean_linker_0, # of connection points: 3
#     Node 11, Type 0, BuildingBlock: QEWDON_clean_linker_0, # of connection points: 3
#     Node 12, Type 0, BuildingBlock: QEWDON_clean_linker_0, # of connection points: 3
#     Node 13, Type 0, BuildingBlock: QEWDON_clean_linker_0, # of connection points: 3
#     Node 14, Type 0, BuildingBlock: QEWDON_clean_linker_0, # of connection points: 3
#     Node 15, Type 0, BuildingBlock: QEWDON_clean_linker_0, # of connection points: 3
#     Node 16, Type 0, BuildingBlock: QEWDON_clean_linker_0, # of connection points: 3
#     Node 17, Type 0, BuildingBlock: QEWDON_clean_linker_0, # of connection points: 3
#     Node 18, Type 1, BuildingBlock: KUMJIN_clean_sbu_0, # of connection points: 6
#     Node 19, Type 1, BuildingBlock: KUMJIN_clean_sbu_0, # of connection points: 6
#     Node 20, Type 1, BuildingBlock: KUMJIN_clean_sbu_0, # of connection points: 6
#     Node 21, Type 1, BuildingBlock: KUMJIN_clean_sbu_0, # of connection points: 6
#     Node 22, Type 1, BuildingBlock: KUMJIN_clean_sbu_0, # of connection points: 6
#     Node 23, Type 1, BuildingBlock: KUMJIN_clean_sbu_0, # of connection points: 6
#     Node 24, Type 1, BuildingBlock: KUMJIN_clean_sbu_0, # of connection points: 6
#     Node 25, Type 1, BuildingBlock: KUMJIN_clean_sbu_0, # of connection points: 6
#     Node 26, Type 1, BuildingBlock: KUMJIN_clean_sbu_0, # of connection points: 6
#     Edge 27, Type (0, 1), None
#     Edge 28, Type (0, 1), None
#     Edge 29, Type (0, 1), None
#     Edge 30, Type (0, 1), None
#     Edge 31, Type (0, 1), None
#     Edge 32, Type (0, 1), None
#     Edge 33, Type (0, 1), None
#     Edge 34, Type (0, 1), None
#     Edge 35, Type (0, 1), None
#     Edge 36, Type (0, 1), None
#     Edge 37, Type (0, 1), None
#     Edge 38, Type (0, 1), None
#     Edge 39, Type (0, 1), None
#     Edge 40, Type (0, 1), None
#     Edge 41, Type (0, 1), None
#     Edge 42, Type (0, 1), None
#     Edge 43, Type (0, 1), None
#     Edge 44, Type (0, 1), None
#     Edge 45, Type (0, 1), None
#     Edge 46, Type (0, 1), None
#     Edge 47, Type (0, 1), None
#     Edge 48, Type (0, 1), None
#     Edge 49, Type (0, 1), None
#     Edge 50, Type (0, 1), None
#     Edge 51, Type (0, 1), None
#     Edge 52, Type (0, 1), None
#     Edge 53, Type (0, 1), None
#     Edge 54, Type (0, 1), None
#     Edge 55, Type (0, 1), None
#     Edge 56, Type (0, 1), None
#     Edge 57, Type (0, 1), None
#     Edge 58, Type (0, 1), None
#     Edge 59, Type (0, 1), None
#     Edge 60, Type (0, 1), None
#     Edge 61, Type (0, 1), None
#     Edge 62, Type (0, 1), None
#     Edge 63, Type (0, 1), None
#     Edge 64, Type (0, 1), None
#     Edge 65, Type (0, 1), None
#     Edge 66, Type (0, 1), None
#     Edge 67, Type (0, 1), None
#     Edge 68, Type (0, 1), None
#     Edge 69, Type (0, 1), None
#     Edge 70, Type (0, 1), None
#     Edge 71, Type (0, 1), None
#     Edge 72, Type (0, 1), None
#     Edge 73, Type (0, 1), None
#     Edge 74, Type (0, 1), None
#     Edge 75, Type (0, 1), None
#     Edge 76, Type (0, 1), None
#     Edge 77, Type (0, 1), None
#     Edge 78, Type (0, 1), None
#     Edge 79, Type (0, 1), None
#     Edge 80, Type (0, 1), None
# Relax obj value: 0.051
# Max RMSD: 0.262
# Mean RMSD: 0.188
data_MOF--net-eea--node1-KUMJIN_clean_sbu_0--node2-QEWDON_clean_linker_0--edge1-none
_symmetry_space_group_name_H-M    P1
_symmetry_Int_Tables_number       1
_symmetry_cell_setting            triclinic
loop_
_symmetry_equiv_pos_as_xyz
'x, y, z'
_cell_length_a     26.090482
_cell_length_b     27.096004
_cell_length_c     36.07201
_cell_angle_alpha  90.562372
_cell_angle_beta   89.923026
_cell_angle_gamma 119.76009
loop_
_atom_site_label
_atom_site_type_symbol
_atom_site_fract_x
_atom_site_fract_y
_atom_site_fract_z
_atom_type_partial_charge
H0 H 0.28749 0.18053 0.43657 0.0
C1 C 0.28526 0.1447 0.42145 0.0
C2 C 0.31996 0.12139 0.43286 0.0
C3 C 0.24456 0.11936 0.3926 0.0
H4 H 0.33979 0.05365 0.42511 0.0
C5 C 0.31421 0.07243 0.41513 0.0
C6 C 0.27378 0.04664 0.38564 0.0
C7 C 0.2407 0.0717 0.37389 0.0
C8 C 0.19694 0.13335 0.38776 0.0
H9 H 0.20778 0.05123 0.35228 0.0
C10 C 0.20734 0.18931 0.38248 0.0
C11 C 0.15892 0.1982 0.37736 0.0
C12 C 0.13879 0.08824 0.38973 0.0
H13 H 0.13014 0.04593 0.39623 0.0
C14 C 0.0916 0.09698 0.38353 0.0
H15 H 0.25205 0.22477 0.38119 0.0
C16 C 0.10154 0.15143 0.37721 0.0
H17 H 0.06422 0.15712 0.37191 0.0
H18 H 0.04732 0.06123 0.38329 0.0
H19 H 0.85008 0.11112 0.43106 0.0
C20 C 0.88547 0.14654 0.4165 0.0
C21 C 0.90203 0.2017 0.42792 0.0
C22 C 0.91773 0.13636 0.38936 0.0
H23 H 0.95958 0.28989 0.41984 0.0
C24 C 0.94869 0.24772 0.41029 0.0
C25 C 0.98433 0.2403 0.38361 0.0
C26 C 0.9682 0.18358 0.37329 0.0
C27 C 0.90579 0.07655 0.38642 0.0
H28 H 0.99505 0.17604 0.35382 0.0
C29 C 0.84949 0.03069 0.37579 0.0
C30 C 0.83433 0.97367 0.3832 0.0
C31 C 0.94595 0.06407 0.40383 0.0
H32 H 0.98728 0.09804 0.41463 0.0
C33 C 0.93148 0.00799 0.4104 0.0
H34 H 0.81694 0.03946 0.36363 0.0
C35 C 0.87616 0.96325 0.40041 0.0
H36 H 0.86604 0.92012 0.40608 0.0
H37 H 0.96278 0.99917 0.42428 0.0
H38 H 0.92623 0.76358 0.43437 0.0
C39 C 0.89062 0.76513 0.41998 0.0
C40 C 0.83315 0.73282 0.43324 0.0
C41 C 0.90254 0.80057 0.38911 0.0
H42 H 0.74295 0.70739 0.42608 0.0
C43 C 0.7868 0.73429 0.41507 0.0
C44 C 0.79567 0.76982 0.38446 0.0
C45 C 0.85456 0.80356 0.37165 0.0
C46 C 0.9661 0.83922 0.37895 0.0
H47 H 0.86301 0.83166 0.34847 0.0
C48 C 1.00969 0.82159 0.37869 0.0
C49 C 0.07036 0.86131 0.37194 0.0
C50 C 0.98458 0.89659 0.37294 0.0
H51 H 0.9533 0.91185 0.37309 0.0
C52 C 0.04382 0.93562 0.3676 0.0
H53 H 0.9964 0.77735 0.38304 0.0
C54 C 0.0863 0.91872 0.36804 0.0
H55 H 0.13175 0.95088 0.36419 0.0
H56 H 0.05647 0.97915 0.36199 0.0
H57 H 0.18265 0.26062 0.61206 0.0
C58 C 0.14523 0.26112 0.62477 0.0
C59 C 0.12313 0.29267 0.60789 0.0
C60 C 0.11745 0.22668 0.6553 0.0
H61 H 0.05806 0.31765 0.60863 0.0
C62 C 0.07319 0.2919 0.6225 0.0
C63 C 0.04249 0.25808 0.65353 0.0
C64 C 0.0648 0.22445 0.66955 0.0
C65 C 0.14017 0.18762 0.66674 0.0
H66 H 0.04138 0.19663 0.69235 0.0
C67 C 0.20171 0.20433 0.66521 0.0
C68 C 0.22102 0.16389 0.6688 0.0
C69 C 0.09935 0.13027 0.67253 0.0
H70 H 0.05267 0.11573 0.67391 0.0
C71 C 0.11775 0.09018 0.67442 0.0
H72 H 0.23442 0.24853 0.66111 0.0
C73 C 0.1775 0.10648 0.67214 0.0
H74 H 0.18944 0.0738 0.6736 0.0
H75 H 0.08505 0.046 0.67757 0.0
H76 H 0.75366 0.91228 0.59781 0.0
C77 C 0.7538 0.87991 0.61519 0.0
C78 C 0.71524 0.82246 0.60699 0.0
C79 C 0.79551 0.89563 0.64387 0.0
H80 H 0.68832 0.73614 0.62056 0.0
C81 C 0.71735 0.7804 0.62804 0.0
C82 C 0.75947 0.7948 0.65644 0.0
C83 C 0.79791 0.85284 0.66467 0.0
C84 C 0.84375 0.95564 0.6463 0.0
H85 H 0.83226 0.86495 0.68534 0.0
C86 C 0.83262 1.0009 0.65354 0.0
C87 C 0.8791 0.05769 0.6518 0.0
C88 C 0.90136 0.96795 0.63755 0.0
H89 H 0.91078 0.934 0.6315 0.0
C90 C 0.94683 0.0241 0.635 0.0
H91 H 0.7886 0.99197 0.661 0.0
C92 C 0.93576 0.06867 0.64192 0.0
H93 H 0.97182 0.11203 0.6403 0.0
H94 H 0.99085 0.03309 0.62765 0.0
H95 H 0.09347 0.84051 0.6077 0.0
C96 C 0.12887 0.87884 0.62012 0.0
C97 C 0.18416 0.90529 0.60262 0.0
C98 C 0.11872 0.90253 0.65217 0.0
H99 H 0.27184 0.97788 0.60228 0.0
C100 C 0.22974 0.95718 0.61644 0.0
C101 C 0.22149 0.98129 0.64904 0.0
C102 C 0.16662 0.9528 0.6671 0.0
C103 C 0.05737 0.87847 0.66769 0.0
H104 H 0.16081 0.97152 0.69203 0.0
C105 C 0.013 0.82046 0.66278 0.0
C106 C 0.95422 0.80109 0.67433 0.0
C107 C 0.04138 0.91546 0.68531 0.0
H108 H 0.07258 0.95988 0.68939 0.0
C109 C 0.98381 0.89665 0.69649 0.0
H110 H 0.02365 0.79035 0.65006 0.0
C111 C 0.94065 0.84055 0.69035 0.0
H112 H 0.8966 0.82869 0.69829 0.0
H113 H 0.97224 0.92611 0.70928 0.0
H114 H 0.95419 0.51387 0.7699 0.0
C115 C 0.95195 0.47804 0.75478 0.0
C116 C 0.98665 0.45473 0.76618 0.0
C117 C 0.91124 0.4527 0.72594 0.0
H118 H 1.00647 0.38698 0.75843 0.0
C119 C 0.98089 0.40576 0.74846 0.0
C120 C 0.94045 0.37998 0.71897 0.0
C121 C 0.90738 0.40504 0.70723 0.0
C122 C 0.86362 0.46669 0.7211 0.0
H123 H 0.87445 0.38457 0.68562 0.0
C124 C 0.87402 0.52265 0.71581 0.0
C125 C 0.8256 0.53154 0.71072 0.0
C126 C 0.80547 0.42159 0.72311 0.0
H127 H 0.79682 0.37928 0.72962 0.0
C128 C 0.75827 0.43033 0.71695 0.0
H129 H 0.91873 0.5581 0.71449 0.0
C130 C 0.76822 0.48478 0.71062 0.0
H131 H 0.73089 0.49048 0.70535 0.0
H132 H 0.714 0.39458 0.71675 0.0
H133 H 0.51675 0.44446 0.7644 0.0
C134 C 0.55214 0.47988 0.74984 0.0
C135 C 0.56871 0.53504 0.76126 0.0
C136 C 0.5844 0.46969 0.72271 0.0
H137 H 0.62625 0.62324 0.75317 0.0
C138 C 0.61536 0.58106 0.74362 0.0
C139 C 0.651 0.57364 0.71695 0.0
C140 C 0.63487 0.51691 0.70664 0.0
C141 C 0.57246 0.40989 0.71977 0.0
H142 H 0.66173 0.50937 0.68717 0.0
C143 C 0.51617 0.36403 0.70913 0.0
C144 C 0.501 0.30701 0.71654 0.0
C145 C 0.61259 0.3974 0.73721 0.0
H146 H 0.65392 0.43137 0.74802 0.0
C147 C 0.59812 0.34132 0.74378 0.0
H148 H 0.48363 0.3728 0.69695 0.0
C149 C 0.54281 0.29659 0.73378 0.0
H150 H 0.53268 0.25346 0.73946 0.0
H151 H 0.6294 0.3325 0.75769 0.0
H152 H 0.59291 0.09694 0.76771 0.0
C153 C 0.55729 0.09848 0.75332 0.0
C154 C 0.49983 0.06617 0.76657 0.0
C155 C 0.56921 0.13393 0.72245 0.0
H156 H 0.40962 0.04073 0.75941 0.0
C157 C 0.45347 0.06764 0.7484 0.0
C158 C 0.46234 0.10317 0.71779 0.0
C159 C 0.52124 0.13692 0.70499 0.0
C160 C 0.63278 0.17258 0.71229 0.0
H161 H 0.52968 0.16502 0.68181 0.0
C162 C 0.67636 0.15494 0.71202 0.0
C163 C 0.73703 0.19466 0.70527 0.0
C164 C 0.65126 0.22995 0.70628 0.0
H165 H 0.61998 0.24522 0.70643 0.0
C166 C 0.7105 0.26898 0.70095 0.0
H167 H 0.66307 0.11071 0.71637 0.0
C168 C 0.75298 0.25207 0.70138 0.0
H169 H 0.79842 0.28423 0.69753 0.0
H170 H 0.72316 0.31252 0.69534 0.0
H171 H 0.84932 0.59396 0.9454 0.0
C172 C 0.8119 0.59446 0.95811 0.0
C173 C 0.7898 0.62601 0.94123 0.0
C174 C 0.78412 0.56001 0.98863 0.0
H175 H 0.72474 0.65099 0.94198 0.0
C176 C 0.73986 0.62524 0.95584 0.0
C177 C 0.70916 0.59141 0.98687 0.0
C178 C 0.73146 0.55779 1.00289 0.0
C179 C 0.80684 0.52096 1.00008 0.0
H180 H 0.70804 0.52997 0.02568 0.0
C181 C 0.86837 0.53767 0.99855 0.0
C182 C 0.88768 0.49722 1.00213 0.0
C183 C 0.76602 0.46361 1.00587 0.0
H184 H 0.71934 0.44907 1.00725 0.0
C185 C 0.78442 0.42351 1.00775 0.0
H186 H 0.90108 0.58186 0.99444 0.0
C187 C 0.84417 0.43981 1.00547 0.0
H188 H 0.85611 0.40713 1.00694 0.0
H189 H 0.75172 0.37933 0.0109 0.0
H190 H 0.42032 0.24562 0.93114 0.0
C191 C 0.42046 0.21324 0.94852 0.0
C192 C 0.3819 0.1558 0.94032 0.0
C193 C 0.46217 0.22897 0.9772 0.0
H194 H 0.35498 0.06948 0.9539 0.0
C195 C 0.38401 0.11373 0.96138 0.0
C196 C 0.42613 0.12814 0.98978 0.0
C197 C 0.46457 0.18617 0.998 0.0
C198 C 0.51042 0.28898 0.97963 0.0
H199 H 0.49893 0.19828 0.01868 0.0
C200 C 0.49929 0.33424 0.98687 0.0
C201 C 0.54576 0.39102 0.98513 0.0
C202 C 0.56802 0.30129 0.97089 0.0
H203 H 0.57744 0.26733 0.96483 0.0
C204 C 0.6135 0.35744 0.96834 0.0
H205 H 0.45527 0.3253 0.99433 0.0
C206 C 0.60243 0.40201 0.97526 0.0
H207 H 0.63849 0.44537 0.97364 0.0
H208 H 0.65751 0.36642 0.96098 0.0
H209 H 0.76013 0.17385 0.94103 0.0
C210 C 0.79553 0.21218 0.95345 0.0
C211 C 0.85082 0.23863 0.93595 0.0
C212 C 0.78538 0.23587 0.9855 0.0
H213 H 0.9385 0.31122 0.93561 0.0
C214 C 0.8964 0.29052 0.94977 0.0
C215 C 0.88816 0.31463 0.98237 0.0
C216 C 0.83329 0.28613 1.00043 0.0
C217 C 0.72403 0.21181 1.00102 0.0
H218 H 0.82748 0.30485 0.02537 0.0
C219 C 0.67966 0.1538 0.99611 0.0
C220 C 0.62089 0.13442 1.00766 0.0
C221 C 0.70805 0.2488 0.01865 0.0
H222 H 0.73925 0.29322 0.02273 0.0
C223 C 0.65048 0.22998 0.02983 0.0
H224 H 0.69031 0.12369 0.98339 0.0
C225 C 0.60731 0.17389 0.02369 0.0
H226 H 0.56326 0.16203 0.03162 0.0
H227 H 0.63891 0.25945 0.04262 0.0
H228 H 0.62084 0.84721 0.10324 0.0
C229 C 0.61861 0.81137 0.08812 0.0
C230 C 0.65331 0.78806 0.09952 0.0
C231 C 0.5779 0.78603 0.05927 0.0
H232 H 0.67313 0.72031 0.09177 0.0
C233 C 0.64755 0.7391 0.0818 0.0
C234 C 0.60712 0.71331 0.05231 0.0
C235 C 0.57404 0.73837 0.04056 0.0
C236 C 0.53028 0.80003 0.05443 0.0
H237 H 0.54112 0.7179 0.01896 0.0
C238 C 0.54069 0.85599 0.04915 0.0
C239 C 0.49226 0.86488 0.04404 0.0
C240 C 0.47213 0.75492 0.05642 0.0
H241 H 0.46349 0.71261 0.06293 0.0
C242 C 0.42494 0.76366 0.05024 0.0
H243 H 0.58539 0.89144 0.04784 0.0
C244 C 0.43488 0.81811 0.04391 0.0
H245 H 0.39756 0.8238 0.03863 0.0
H246 H 0.38067 0.72791 0.05002 0.0
H247 H 0.18342 0.77779 0.09773 0.0
C248 C 0.21881 0.81321 0.08317 0.0
C249 C 0.23538 0.86837 0.09459 0.0
C250 C 0.25106 0.80303 0.05603 0.0
H251 H 0.29292 0.95656 0.08651 0.0
C252 C 0.28203 0.91439 0.07696 0.0
C253 C 0.31767 0.90697 0.05028 0.0
C254 C 0.30154 0.85025 0.03996 0.0
C255 C 0.23913 0.74322 0.05309 0.0
H256 H 0.32839 0.84271 0.02049 0.0
C257 C 0.18283 0.69736 0.04246 0.0
C258 C 0.16767 0.64034 0.04986 0.0
C259 C 0.27927 0.73073 0.07051 0.0
H260 H 0.32061 0.76471 0.08132 0.0
C261 C 0.2648 0.67465 0.07708 0.0
H262 H 0.15029 0.70613 0.03029 0.0
C263 C 0.20948 0.62992 0.06708 0.0
H264 H 0.19936 0.58679 0.07276 0.0
H265 H 0.29609 0.66583 0.09097 0.0
H266 H 0.25956 0.43025 0.10104 0.0
C267 C 0.22395 0.4318 0.08665 0.0
C268 C 0.16648 0.39949 0.0999 0.0
C269 C 0.23587 0.46725 0.05578 0.0
H270 H 0.07628 0.37405 0.09273 0.0
C271 C 0.12013 0.40096 0.08173 0.0
C272 C 0.129 0.43649 0.05112 0.0
C273 C 0.1879 0.47024 0.03832 0.0
C274 C 0.29944 0.5059 0.04562 0.0
H275 H 0.19635 0.49834 0.01514 0.0
C276 C 0.34302 0.48826 0.04536 0.0
C277 C 0.40369 0.52798 0.03861 0.0
C278 C 0.31792 0.56327 0.03962 0.0
H279 H 0.28663 0.57853 0.03977 0.0
C280 C 0.37716 0.60229 0.03428 0.0
H281 H 0.32973 0.44402 0.0497 0.0
C282 C 0.41964 0.5854 0.03472 0.0
H283 H 0.46508 0.61755 0.03087 0.0
H284 H 0.38981 0.64584 0.02868 0.0
H285 H 0.51599 0.92728 0.27873 0.0
C286 C 0.47856 0.92778 0.29144 0.0
C287 C 0.45646 0.95933 0.27456 0.0
C288 C 0.45079 0.89334 0.32197 0.0
H289 H 0.3914 0.98431 0.2753 0.0
C290 C 0.40653 0.95856 0.28916 0.0
C291 C 0.37583 0.92475 0.3202 0.0
C292 C 0.39813 0.89112 0.33622 0.0
C293 C 0.4735 0.85429 0.33341 0.0
H294 H 0.37471 0.8633 0.35902 0.0
C295 C 0.53504 0.871 0.33188 0.0
C296 C 0.55435 0.83055 0.33547 0.0
C297 C 0.43269 0.79694 0.33921 0.0
H298 H 0.386 0.7824 0.34059 0.0
C299 C 0.45108 0.75684 0.34109 0.0
H300 H 0.56775 0.91519 0.32778 0.0
C301 C 0.51083 0.77314 0.33881 0.0
H302 H 0.52277 0.74046 0.34028 0.0
H303 H 0.41838 0.71266 0.34425 0.0
H304 H 0.087 0.57896 0.26447 0.0
C305 C 0.08713 0.54658 0.28185 0.0
C306 C 0.04857 0.48914 0.27365 0.0
C307 C 0.12884 0.5623 0.31053 0.0
H308 H 0.02164 0.40281 0.28723 0.0
C309 C 0.05067 0.44707 0.29471 0.0
C310 C 0.09279 0.46147 0.32311 0.0
C311 C 0.13123 0.51951 0.33133 0.0
C312 C 0.17708 0.62231 0.31296 0.0
H313 H 0.16559 0.53161 0.35201 0.0
C314 C 0.16595 0.66757 0.32021 0.0
C315 C 0.21243 0.72436 0.31846 0.0
C316 C 0.23469 0.63462 0.30422 0.0
H317 H 0.24411 0.60066 0.29816 0.0
C318 C 0.28016 0.69077 0.30168 0.0
H319 H 0.12193 0.65864 0.32766 0.0
C320 C 0.2691 0.73534 0.3086 0.0
H321 H 0.30516 0.7787 0.30697 0.0
H322 H 0.32418 0.69975 0.29432 0.0
H323 H 0.4268 0.50718 0.27437 0.0
C324 C 0.4622 0.54551 0.28679 0.0
C325 C 0.51749 0.57196 0.26929 0.0
C326 C 0.45204 0.5692 0.31884 0.0
H327 H 0.60517 0.64455 0.26895 0.0
C328 C 0.56306 0.62384 0.28311 0.0
C329 C 0.55482 0.64795 0.31571 0.0
C330 C 0.49995 0.61946 0.33377 0.0
C331 C 0.3907 0.54514 0.33436 0.0
H332 H 0.49414 0.63818 0.3587 0.0
C333 C 0.34632 0.48713 0.32944 0.0
C334 C 0.28755 0.46776 0.34099 0.0
C335 C 0.37471 0.58213 0.35198 0.0
H336 H 0.40591 0.62655 0.35606 0.0
C337 C 0.31714 0.56332 0.36316 0.0
H338 H 0.35697 0.45702 0.31672 0.0
C339 C 0.27397 0.50723 0.35702 0.0
H340 H 0.22992 0.49536 0.36495 0.0
H341 H 0.30557 0.59278 0.37596 0.0
Eu342 Eu 0.46733 0.98784 0.97147 0.0
C343 C 0.5751 0.14653 0.11127 0.0
C344 C 0.6702 0.15169 0.11565 0.0
C345 C 0.65334 0.22089 0.14862 0.0
C346 C 0.61174 0.12508 0.102 0.0
C347 C 0.59596 0.19548 0.13399 0.0
C348 C 0.69011 0.19861 0.13982 0.0
C349 C 0.50043 0.18854 0.12827 0.0
N350 N 0.51877 0.11912 0.09852 0.0
C351 C 0.48119 0.13917 0.10684 0.0
C352 C 0.55797 0.21653 0.14223 0.0
Eu353 Eu 0.48552 0.02945 0.06946 0.0
N354 N 0.58957 0.07695 0.08086 0.0
C355 C 0.62509 0.05514 0.07091 0.0
C356 C 0.70646 0.12949 0.10544 0.0
C357 C 0.68398 0.08145 0.08256 0.0
H358 H 0.43565 0.116 0.09774 0.0
H359 H 0.7118 0.06412 0.07426 0.0
H360 H 0.73382 0.2179 0.15202 0.0
H361 H 0.4704 0.20405 0.13484 0.0
H362 H 0.60914 0.01812 0.05326 0.0
H363 H 0.23232 0.86119 0.94386 0.0
H364 H 0.75176 0.14907 0.11506 0.0
H365 H 0.57888 0.96423 0.94951 0.0
H366 H 0.32299 0.94166 0.97022 0.0
H367 H 0.59293 0.89247 0.91533 0.0
H368 H 0.66965 0.25765 0.16688 0.0
H369 H 0.23805 0.7852 0.90906 0.0
H370 H 0.30165 0.74862 0.88133 0.0
H371 H 0.57246 0.2538 0.15978 0.0
H372 H 0.39784 0.7539 0.87637 0.0
N373 N 0.37751 0.90711 0.95502 0.0
C374 C 0.32505 0.9065 0.9574 0.0
C375 C 0.27729 0.81845 0.92252 0.0
C376 C 0.33163 0.82003 0.91945 0.0
C377 C 0.27389 0.86152 0.94196 0.0
C378 C 0.38148 0.86475 0.93711 0.0
H379 H 0.50662 0.80722 0.88903 0.0
N380 N 0.48512 0.91721 0.94567 0.0
C381 C 0.54889 0.88564 0.91992 0.0
C382 C 0.43692 0.87001 0.93215 0.0
C383 C 0.54076 0.92607 0.93937 0.0
C384 C 0.5 0.83737 0.90533 0.0
C385 C 0.44331 0.8295 0.91083 0.0
O386 O 0.51861 0.03074 0.92209 0.0
O387 O 0.52099 0.05344 0.01332 0.0
O388 O 0.46546 0.09068 0.03664 0.0
O389 O 0.42014 0.03746 0.9834 0.0
O390 O 0.56875 0.04618 0.97123 0.0
O391 O 0.42647 0.00649 0.92441 0.0
O392 O 0.44314 0.02393 0.12324 0.0
O393 O 0.42253 0.96231 0.02875 0.0
O394 O 0.47791 0.92122 1.00103 0.0
O395 O 0.50748 0.95752 0.06106 0.0
O396 O 0.39027 1.00248 0.06262 0.0
O397 O 0.47744 0.96804 0.11118 0.0
C398 C 0.57245 0.07471 1.00077 0.0
C399 C 0.46733 0.00793 0.86472 0.0
C400 C 0.48548 0.02732 0.7983 0.0
C401 C 0.49184 0.04704 0.83539 0.0
C402 C 0.45613 0.9687 0.79094 0.0
C403 C 0.43648 0.94971 0.85612 0.0
C404 C 0.43183 0.93017 0.81975 0.0
C405 C 0.43664 0.08291 1.00475 0.0
C406 C 0.47396 0.02771 0.90395 0.0
C407 C 0.39361 0.78457 0.89371 0.0
C408 C 0.33839 0.78081 0.8972 0.0
C409 C 0.3748 0.96001 0.04006 0.0
C410 C 0.48625 1.00067 0.17305 0.0
C411 C 0.45491 0.97931 0.20637 0.0
C412 C 0.48575 0.99105 0.24046 0.0
C413 C 0.54726 0.02711 0.24102 0.0
C414 C 0.54803 0.03333 0.17446 0.0
C415 C 0.57813 0.04798 0.20815 0.0
C416 C 0.49811 0.92001 0.0342 0.0
C417 C 0.45569 0.98675 0.13663 0.0
H418 H 0.51382 0.09231 0.84122 0.0
H419 H 0.45003 0.95282 0.76266 0.0
H420 H 0.41494 0.91914 0.87727 0.0
H421 H 0.40792 0.88496 0.81381 0.0
H422 H 0.40749 0.95128 0.20556 0.0
H423 H 0.57175 0.03685 0.26684 0.0
H424 H 0.57336 0.04596 0.14947 0.0
H425 H 0.62579 0.07378 0.20865 0.0
Eu426 Eu 0.04389 0.50011 0.97113 0.0
C427 C 0.86447 0.43244 0.08928 0.0
C428 C 0.8596 0.51928 0.0898 0.0
C429 C 0.77027 0.42839 0.09836 0.0
C430 C 0.89234 0.49099 0.08624 0.0
C431 C 0.80356 0.40077 0.09696 0.0
C432 C 0.79827 0.48735 0.09399 0.0
C433 C 0.81299 0.31678 0.10049 0.0
N434 N 0.89681 0.40632 0.08476 0.0
C435 C 0.87306 0.34994 0.0929 0.0
C436 C 0.77767 0.34207 0.10175 0.0
Eu437 Eu 0.99602 0.46416 0.06615 0.0
N438 N 0.95075 0.52002 0.07806 0.0
C439 C 0.98024 0.57805 0.07688 0.0
C440 C 0.88905 0.57856 0.08725 0.0
C441 C 0.9499 0.60814 0.08144 0.0
H442 H 0.89999 0.32987 0.09148 0.0
H443 H 0.97332 0.65406 0.07982 0.0
H444 H 0.77208 0.50772 0.09207 0.0
H445 H 0.79408 0.27158 0.10405 0.0
H446 H 0.02688 0.6016 0.07185 0.0
H447 H 0.07722 0.317 0.94696 0.0
H448 H 0.86529 0.60178 0.08973 0.0
H449 H 0.14012 0.64075 0.95484 0.0
H450 H 0.03202 0.36692 0.97647 0.0
H451 H 0.23315 0.69767 0.92451 0.0
H452 H 0.72284 0.40438 0.10179 0.0
H453 H 0.16343 0.36832 0.90609 0.0
H454 H 0.23527 0.4589 0.87561 0.0
H455 H 0.73075 0.31622 0.10659 0.0
H456 H 0.27752 0.56206 0.86934 0.0
N457 N 0.09378 0.44876 0.95519 0.0
C458 C 0.07047 0.39138 0.9598 0.0
C459 C 0.14471 0.39133 0.92 0.0
C460 C 0.16859 0.44974 0.91519 0.0
C461 C 0.09608 0.36227 0.94295 0.0
C462 C 0.14315 0.47803 0.9344 0.0
H463 H 0.28169 0.65174 0.89068 0.0
N464 N 0.14128 0.56235 0.9492 0.0
C465 C 0.21603 0.65262 0.92615 0.0
C466 C 0.16779 0.53636 0.93158 0.0
C467 C 0.16378 0.61978 0.94526 0.0
C468 C 0.24272 0.62645 0.90719 0.0
C469 C 0.2177 0.56751 0.9088 0.0
O470 O 0.03745 0.54533 0.92313 0.0
O471 O 0.9715 0.48093 0.01096 0.0
O472 O 0.93638 0.38437 0.03174 0.0
O473 O 0.97085 0.40745 0.97108 0.0
O474 O 0.98638 0.54311 0.97424 0.0
O475 O 1.0039 0.45467 0.91911 0.0
O476 O 0.99991 0.41813 0.11479 0.0
O477 O 0.0717 0.48062 0.02747 0.0
O478 O 0.09558 0.58213 1.00414 0.0
O479 O 0.08231 0.55014 0.06459 0.0
O480 O 0.02611 0.40227 0.05284 0.0
O481 O 0.03593 0.50884 0.11822 0.0
C482 C 0.95193 0.51287 1.00053 0.0
C483 C 0.03996 0.50747 0.86362 0.0
C484 C 0.02667 0.48108 0.79797 0.0
C485 C 1.00385 0.47399 0.83415 0.0
C486 C 0.08624 0.52012 0.79155 0.0
C487 C 0.09856 0.54875 0.85605 0.0
C488 C 0.12201 0.55393 0.82058 0.0
C489 C 0.93506 0.37127 0.99606 0.0
C490 C 0.01496 0.50065 0.90138 0.0
C491 C 0.24021 0.53889 0.88759 0.0
C492 C 0.21619 0.4802 0.89116 0.0
C493 C 0.07453 0.4362 0.03582 0.0
C494 C 0.99719 0.4577 0.17355 0.0
C495 C 0.03421 0.47732 0.20493 0.0
C496 C 1.01015 0.47234 0.24059 0.0
C497 C 0.94896 0.44789 0.24476 0.0
C498 C 0.93604 0.43407 0.17833 0.0
C499 C 0.91216 0.42924 0.21367 0.0
C500 C 0.10991 0.59024 0.03946 0.0
C501 C 0.02326 0.46291 0.13634 0.0
H502 H 0.9576 0.44401 0.83904 0.0
H503 H 0.10418 0.52642 0.76379 0.0
H504 H 0.12592 0.57806 0.87715 0.0
H505 H 0.16749 0.58561 0.81536 0.0
H506 H 0.08151 0.49549 0.20172 0.0
H507 H 0.92977 0.44317 0.27206 0.0
H508 H 0.90645 0.4191 0.15504 0.0
H509 H 0.86491 0.41061 0.21695 0.0
Eu510 Eu 0.55832 0.52839 0.06497 0.0
C511 C 0.44916 0.60036 0.94969 0.0
C512 C 0.35144 0.51791 0.95273 0.0
C513 C 0.36293 0.61198 0.9458 0.0
C514 C 0.41329 0.54225 0.95345 0.0
C515 C 0.42433 0.6355 0.94402 0.0
C516 C 0.3268 0.55346 0.95114 0.0
C517 C 0.5229 0.71469 0.93627 0.0
N518 N 0.50838 0.62252 0.95142 0.0
C519 C 0.54547 0.6783 0.94279 0.0
C520 C 0.46204 0.69343 0.93783 0.0
Eu521 Eu 0.54252 0.56004 0.96975 0.0
N522 N 0.43873 0.50981 0.95935 0.0
C523 C 0.40473 0.45188 0.96064 0.0
C524 C 0.3163 0.45889 0.95542 0.0
C525 C 0.34316 0.42564 0.95857 0.0
H526 H 0.59276 0.6953 0.9429 0.0
H527 H 0.31644 0.37988 0.96041 0.0
H528 H 0.28001 0.53611 0.95527 0.0
H529 H 0.55252 0.75927 0.93093 0.0
H530 H 0.42415 0.42535 0.96444 0.0
H531 H 0.785 0.65157 0.11361 0.0
H532 H 0.26858 0.43866 0.95519 0.0
H533 H 0.46023 0.38822 0.07166 0.0
H534 H 0.70074 0.63225 0.07333 0.0
H535 H 0.45267 0.3049 0.10418 0.0
H536 H 0.34328 0.63888 0.94408 0.0
H537 H 0.77965 0.57617 0.15421 0.0
H538 H 0.72487 0.47407 0.17385 0.0
H539 H 0.44451 0.72176 0.93388 0.0
H540 H 0.63747 0.37879 0.16837 0.0
N541 N 0.64937 0.54577 0.08944 0.0
C542 C 0.69875 0.59827 0.08971 0.0
C543 C 0.74298 0.56704 0.13595 0.0
C544 C 0.6934 0.51246 0.13405 0.0
C545 C 0.74633 0.60963 0.1129 0.0
C546 C 0.64693 0.50277 0.1098 0.0
H547 H 0.53636 0.31538 0.14199 0.0
N548 N 0.54991 0.44292 0.08724 0.0
C549 C 0.49345 0.34519 0.10519 0.0
C550 C 0.59672 0.44939 0.1076 0.0
C551 C 0.49798 0.39221 0.08664 0.0
C552 C 0.54103 0.35115 0.12632 0.0
C553 C 0.593 0.40387 0.12836 0.0
O554 O 0.49583 0.51043 0.10989 0.0
O555 O 0.50367 0.54604 0.02591 0.0
O556 O 0.56321 0.6379 1.0058 0.0
O557 O 0.6059 0.62441 0.05851 0.0
O558 O 0.45652 0.48059 0.06117 0.0
O559 O 0.58525 0.57989 0.1164 0.0
O560 O 0.58961 0.6015 0.91875 0.0
O561 O 0.60453 0.54916 1.00833 0.0
O562 O 0.56122 0.45943 0.03144 0.0
O563 O 0.52628 0.46805 0.97383 0.0
O564 O 0.63898 0.62162 0.97728 0.0
O565 O 0.53535 0.51036 0.91991 0.0
C566 C 0.45165 0.51209 0.0365 0.0
C567 C 0.53373 0.53041 0.17087 0.0
C568 C 0.52714 0.54277 0.23756 0.0
C569 C 0.53449 0.56396 0.20121 0.0
C570 C 0.52222 0.4895 0.24349 0.0
C571 C 0.52598 0.47616 0.17763 0.0
C572 C 0.52195 0.45654 0.21362 0.0
C573 C 0.5928 0.65637 0.03756 0.0
C574 C 0.53417 0.54907 0.13235 0.0
C575 C 0.63975 0.41312 0.15198 0.0
C576 C 0.68939 0.46746 0.15525 0.0
C577 C 0.65331 0.59212 0.99844 0.0
C578 C 0.54214 0.55462 0.86257 0.0
C579 C 0.5673 0.54646 0.83019 0.0
C580 C 0.54254 0.54454 0.79508 0.0
C581 C 0.49275 0.55118 0.79254 0.0
C582 C 0.49204 0.56084 0.85941 0.0
C583 C 0.46769 0.55934 0.82462 0.0
C584 C 0.53937 0.43941 0.99822 0.0
C585 C 0.56706 0.5545 0.89939 0.0
H586 H 0.53737 0.60471 0.19645 0.0
H587 H 0.51651 0.4726 0.27124 0.0
H588 H 0.52038 0.4477 0.15521 0.0
H589 H 0.51623 0.41469 0.21827 0.0
H590 H 0.60575 0.54115 0.83226 0.0
H591 H 0.47321 0.54979 0.76579 0.0
H592 H 0.47139 0.56639 0.88373 0.0
H593 H 0.42902 0.56416 0.82257 0.0
Eu594 Eu 0.13398 0.32117 0.3048 0.0
C595 C 0.24177 0.47986 0.44459 0.0
C596 C 0.33687 0.48501 0.44898 0.0
C597 C 0.32002 0.55421 0.48195 0.0
C598 C 0.27841 0.4584 0.43532 0.0
C599 C 0.26264 0.52881 0.46732 0.0
C600 C 0.35678 0.53193 0.47315 0.0
C601 C 0.16712 0.52187 0.4616 0.0
N602 N 0.18545 0.45245 0.43185 0.0
C603 C 0.14787 0.47251 0.44017 0.0
C604 C 0.22465 0.54986 0.47556 0.0
Eu605 Eu 0.15218 0.36278 0.40279 0.0
N606 N 0.25623 0.41027 0.41419 0.0
C607 C 0.29175 0.38846 0.40423 0.0
C608 C 0.37312 0.4628 0.43876 0.0
C609 C 0.35064 0.41476 0.41588 0.0
H610 H 0.10232 0.44934 0.43107 0.0
H611 H 0.37845 0.39743 0.40758 0.0
H612 H 0.40049 0.5512 0.48535 0.0
H613 H 0.13708 0.53739 0.46817 0.0
H614 H 0.27579 0.35143 0.38658 0.0
H615 H 0.89898 0.19451 0.2772 0.0
H616 H 0.41842 0.48237 0.44839 0.0
H617 H 0.24555 0.29757 0.28282 0.0
H618 H 0.98965 0.27498 0.30355 0.0
H619 H 0.2596 0.22582 0.24864 0.0
H620 H 0.33634 0.59097 0.50021 0.0
H621 H 0.90471 0.11851 0.2424 0.0
H622 H 0.96831 0.08194 0.21467 0.0
H623 H 0.23915 0.58714 0.49311 0.0
H624 H 0.0645 0.08723 0.2097 0.0
N625 N 0.04416 0.24044 0.28836 0.0
C626 C 0.99171 0.23983 0.29074 0.0
C627 C 0.94395 0.15177 0.25586 0.0
C628 C 0.99829 0.15336 0.25279 0.0
C629 C 0.94055 0.19484 0.2753 0.0
C630 C 0.04814 0.19808 0.27044 0.0
H631 H 0.17329 0.14056 0.22235 0.0
N632 N 0.15178 0.25055 0.279 0.0
C633 C 0.21555 0.21899 0.25324 0.0
C634 C 0.10359 0.20335 0.26547 0.0
C635 C 0.20743 0.25941 0.27269 0.0
C636 C 0.16666 0.17071 0.23865 0.0
C637 C 0.10997 0.16283 0.24416 0.0
O638 O 0.18526 0.36408 0.25542 0.0
O639 O 0.18765 0.38677 0.34665 0.0
O640 O 0.13212 0.42401 0.36997 0.0
O641 O 0.0868 0.37079 0.31673 0.0
O642 O 0.23541 0.37952 0.30455 0.0
O643 O 0.09312 0.33982 0.25774 0.0
O644 O 0.1098 0.35726 0.45657 0.0
O645 O 0.08919 0.29564 0.36208 0.0
O646 O 0.14458 0.25456 0.33435 0.0
O647 O 0.17413 0.29084 0.39438 0.0
O648 O 0.05694 0.33581 0.39595 0.0
O649 O 0.14411 0.30137 0.44451 0.0
C650 C 0.23911 0.40805 0.3341 0.0
C651 C 0.13397 0.34126 0.19805 0.0
C652 C 0.15213 0.36063 0.13163 0.0
C653 C 0.1585 0.38036 0.16872 0.0
C654 C 0.12276 0.30201 0.12427 0.0
C655 C 0.10311 0.28304 0.18945 0.0
C656 C 0.09844 0.26349 0.15308 0.0
C657 C 0.1033 0.41624 0.33808 0.0
C658 C 0.14061 0.36104 0.23728 0.0
C659 C 0.06027 0.1179 0.22703 0.0
C660 C 1.00505 0.11414 0.23053 0.0
C661 C 0.04146 0.29334 0.37339 0.0
C662 C 0.15291 0.33401 0.50638 0.0
C663 C 0.12158 0.31265 0.5397 0.0
C664 C 0.15241 0.32439 0.57379 0.0
C665 C 0.21393 0.36045 0.57435 0.0
C666 C 0.21469 0.36667 0.50779 0.0
C667 C 0.2448 0.38132 0.54148 0.0
C668 C 0.16477 0.25334 0.36752 0.0
C669 C 0.12235 0.32008 0.46997 0.0
H670 H 0.18049 0.42563 0.17455 0.0
H671 H 0.11665 0.28613 0.09599 0.0
H672 H 0.08155 0.25247 0.21061 0.0
H673 H 0.07452 0.21828 0.14714 0.0
H674 H 0.07416 0.28461 0.53889 0.0
H675 H 0.23841 0.37019 0.60017 0.0
H676 H 0.24002 0.3793 0.4828 0.0
H677 H 0.29246 0.40712 0.54198 0.0
Eu678 Eu 0.71056 0.83344 0.30447 0.0
C679 C 0.53114 0.76578 0.42262 0.0
C680 C 0.52628 0.85262 0.42314 0.0
C681 C 0.43695 0.76173 0.43169 0.0
C682 C 0.55901 0.82433 0.41958 0.0
C683 C 0.47023 0.73411 0.4303 0.0
C684 C 0.46495 0.8207 0.42733 0.0
C685 C 0.47965 0.65012 0.43383 0.0
N686 N 0.56348 0.73966 0.4181 0.0
C687 C 0.53973 0.68328 0.42623 0.0
C688 C 0.44434 0.67542 0.43509 0.0
Eu689 Eu 0.66269 0.79749 0.39949 0.0
N690 N 0.61743 0.85335 0.4114 0.0
C691 C 0.64691 0.91138 0.41022 0.0
C692 C 0.55574 0.9119 0.42059 0.0
C693 C 0.61658 0.94148 0.41478 0.0
H694 H 0.56665 0.6632 0.42482 0.0
H695 H 0.64 0.98739 0.41316 0.0
H696 H 0.43876 0.84107 0.42541 0.0
H697 H 0.46074 0.60491 0.43739 0.0
H698 H 0.69356 0.93494 0.40519 0.0
H699 H 0.74388 0.65032 0.2803 0.0
H700 H 0.53197 0.93513 0.42307 0.0
H701 H 0.8068 0.97408 0.28818 0.0
H702 H 0.69868 0.70025 0.30981 0.0
H703 H 0.89982 0.031 0.25785 0.0
H704 H 0.38951 0.73773 0.43513 0.0
H705 H 0.83008 0.70164 0.23942 0.0
H706 H 0.90192 0.79222 0.20894 0.0
H707 H 0.39742 0.64956 0.43993 0.0
H708 H 0.94417 0.89538 0.20267 0.0
N709 N 0.76044 0.78209 0.28853 0.0
C710 C 0.73713 0.7247 0.29314 0.0
C711 C 0.81136 0.72466 0.25333 0.0
C712 C 0.83524 0.78306 0.24853 0.0
C713 C 0.76273 0.69559 0.27629 0.0
C714 C 0.8098 0.81136 0.26774 0.0
H715 H 0.94835 0.98507 0.22401 0.0
N716 N 0.80794 0.89568 0.28254 0.0
C717 C 0.8827 0.98594 0.25949 0.0
C718 C 0.83445 0.86969 0.26491 0.0
C719 C 0.83044 0.9531 0.2786 0.0
C720 C 0.90939 0.95977 0.24052 0.0
C721 C 0.88436 0.90083 0.24213 0.0
O722 O 0.70412 0.87867 0.25647 0.0
O723 O 0.63816 0.81426 0.3443 0.0
O724 O 0.60305 0.7177 0.36508 0.0
O725 O 0.63752 0.74078 0.30441 0.0
O726 O 0.65304 0.87644 0.30758 0.0
O727 O 0.67056 0.78801 0.25245 0.0
O728 O 0.66657 0.75146 0.44813 0.0
O729 O 0.73836 0.81395 0.36081 0.0
O730 O 0.76224 0.91545 0.33748 0.0
O731 O 0.74898 0.88346 0.39793 0.0
O732 O 0.69278 0.7356 0.38617 0.0
O733 O 0.7026 0.84217 0.45156 0.0
C734 C 0.61859 0.84619 0.33387 0.0
C735 C 0.70662 0.8408 0.19696 0.0
C736 C 0.69333 0.81442 0.13131 0.0
C737 C 0.67051 0.80733 0.16749 0.0
C738 C 0.7529 0.85346 0.12489 0.0
C739 C 0.76522 0.88208 0.18939 0.0
C740 C 0.78867 0.88727 0.15392 0.0
C741 C 0.60172 0.70459 0.32939 0.0
C742 C 0.68162 0.83398 0.23472 0.0
C743 C 0.90686 0.87221 0.22092 0.0
C744 C 0.88284 0.81352 0.22449 0.0
C745 C 0.74119 0.76953 0.36916 0.0
C746 C 0.66386 0.79103 0.50689 0.0
C747 C 0.70087 0.81064 0.53827 0.0
C748 C 0.67682 0.80567 0.57393 0.0
C749 C 0.61563 0.78122 0.5781 0.0
C750 C 0.60271 0.7674 0.51167 0.0
C751 C 0.57883 0.76257 0.547 0.0
C752 C 0.77658 0.92356 0.3728 0.0
C753 C 0.68992 0.79624 0.46968 0.0
H754 H 0.62426 0.77734 0.17238 0.0
H755 H 0.77084 0.85976 0.09713 0.0
H756 H 0.79258 0.9114 0.21049 0.0
H757 H 0.83415 0.91895 0.1487 0.0
H758 H 0.74818 0.82882 0.53506 0.0
H759 H 0.59644 0.7765 0.6054 0.0
H760 H 0.57311 0.75243 0.48838 0.0
H761 H 0.53157 0.74394 0.55029 0.0
Eu762 Eu 0.22499 0.86173 0.3983 0.0
C763 C 0.11584 0.93369 0.28302 0.0
C764 C 0.01812 0.85125 0.28605 0.0
C765 C 0.02961 0.94532 0.27912 0.0
C766 C 0.07996 0.87558 0.28678 0.0
C767 C 0.09101 0.96884 0.27734 0.0
C768 C 0.99348 0.8868 0.28446 0.0
C769 C 0.18958 0.04803 0.2696 0.0
N770 N 0.17505 0.95586 0.28475 0.0
C771 C 0.21214 0.01163 0.27612 0.0
C772 C 0.12872 0.02677 0.27116 0.0
Eu773 Eu 0.20919 0.89338 0.30308 0.0
N774 N 0.1054 0.84315 0.29268 0.0
C775 C 0.07139 0.78522 0.29397 0.0
C776 C 0.98297 0.79223 0.28875 0.0
C777 C 1.00983 0.75898 0.2919 0.0
H778 H 0.25944 0.02863 0.27623 0.0
H779 H 0.9831 0.71322 0.29374 0.0
H780 H 0.94669 0.86946 0.2886 0.0
H781 H 0.2192 0.09261 0.26425 0.0
H782 H 0.09082 0.75868 0.29777 0.0
H783 H 0.45167 0.98492 0.44694 0.0
H784 H 0.93525 0.772 0.28852 0.0
H785 H 0.12691 0.72155 0.40499 0.0
H786 H 0.36741 0.96559 0.40666 0.0
H787 H 0.11936 0.63824 0.43751 0.0
H788 H 1.00996 0.97223 0.2774 0.0
H789 H 0.44632 0.90952 0.48755 0.0
H790 H 0.39155 0.80742 0.50719 0.0
H791 H 0.11119 0.0551 0.2672 0.0
H792 H 0.30415 0.71214 0.50171 0.0
N793 N 0.31604 0.87911 0.42277 0.0
C794 C 0.36542 0.93161 0.42305 0.0
C795 C 0.40965 0.90039 0.46929 0.0
C796 C 0.36007 0.84581 0.46739 0.0
C797 C 0.413 0.94297 0.44623 0.0
C798 C 0.3136 0.83611 0.44314 0.0
H799 H 0.20304 0.64872 0.47533 0.0
N800 N 0.21659 0.77626 0.42057 0.0
C801 C 0.16014 0.67853 0.43852 0.0
C802 C 0.2634 0.78273 0.44093 0.0
C803 C 0.16466 0.72554 0.41997 0.0
C804 C 0.20771 0.68449 0.45965 0.0
C805 C 0.25968 0.73721 0.46169 0.0
O806 O 0.1625 0.84376 0.44322 0.0
O807 O 0.17034 0.87937 0.35924 0.0
O808 O 0.22987 0.97123 0.33914 0.0
O809 O 0.27256 0.95774 0.39184 0.0
O810 O 0.1232 0.81392 0.39451 0.0
O811 O 0.25191 0.91322 0.44973 0.0
O812 O 0.25628 0.93482 0.25208 0.0
O813 O 0.2712 0.88249 0.34166 0.0
O814 O 0.22789 0.79277 0.36477 0.0
O815 O 0.19294 0.80138 0.30717 0.0
O816 O 0.30565 0.95496 0.31061 0.0
O817 O 0.20202 0.84369 0.25324 0.0
C818 C 0.11832 0.84542 0.36983 0.0
C819 C 0.2004 0.86374 0.5042 0.0
C820 C 0.19382 0.8761 0.57089 0.0
C821 C 0.20116 0.89729 0.53454 0.0
C822 C 0.1889 0.82284 0.57682 0.0
C823 C 0.19266 0.8095 0.51097 0.0
C824 C 0.18863 0.78988 0.54696 0.0
C825 C 0.25946 0.98971 0.37089 0.0
C826 C 0.20084 0.8824 0.46568 0.0
C827 C 0.30643 0.74647 0.48531 0.0
C828 C 0.35607 0.80081 0.48858 0.0
C829 C 0.31998 0.92545 0.33178 0.0
C830 C 0.2088 0.88794 0.1959 0.0
C831 C 0.23397 0.87979 0.16352 0.0
C832 C 0.2092 0.87786 0.12842 0.0
C833 C 0.1594 0.88448 0.12587 0.0
C834 C 0.15869 0.89415 0.19274 0.0
C835 C 0.13435 0.89264 0.15796 0.0
C836 C 0.20604 0.77274 0.33155 0.0
C837 C 0.23373 0.88782 0.23272 0.0
H838 H 0.20404 0.93804 0.52979 0.0
H839 H 0.18319 0.80594 0.60457 0.0
H840 H 0.18706 0.78103 0.48854 0.0
H841 H 0.18291 0.74802 0.5516 0.0
H842 H 0.27242 0.87449 0.16559 0.0
H843 H 0.13987 0.88309 0.09912 0.0
H844 H 0.13805 0.89969 0.21707 0.0
H845 H 0.09567 0.89746 0.15591 0.0
Eu846 Eu 0.80066 0.6545 0.63814 0.0
C847 C 0.90843 0.81321 0.77794 0.0
C848 C 1.00353 0.81837 0.78233 0.0
C849 C 0.98667 0.88756 0.81529 0.0
C850 C 0.94507 0.79175 0.76867 0.0
C851 C 0.92928 0.86215 0.80066 0.0
C852 C 0.02343 0.86529 0.80649 0.0
C853 C 0.83376 0.8552 0.79494 0.0
N854 N 0.8521 0.78579 0.76518 0.0
C855 C 0.81452 0.80584 0.7735 0.0
C856 C 0.89129 0.8832 0.8089 0.0
Eu857 Eu 0.81885 0.69612 0.73613 0.0
N858 N 0.9229 0.74362 0.74753 0.0
C859 C 0.95843 0.72182 0.73758 0.0
C860 C 0.03979 0.79617 0.77211 0.0
C861 C 0.01732 0.74812 0.74924 0.0
H862 H 0.76897 0.78267 0.76441 0.0
H863 H 0.04514 0.7308 0.74094 0.0
H864 H 0.06714 0.88457 0.81869 0.0
H865 H 0.80372 0.87071 0.8015 0.0
H866 H 0.94248 0.68479 0.71994 0.0
H867 H 0.56566 0.52786 0.61053 0.0
H868 H 0.08509 0.81574 0.78174 0.0
H869 H 0.91221 0.63087 0.61619 0.0
H870 H 0.65633 0.60832 0.63689 0.0
H871 H 0.92626 0.55911 0.58201 0.0
H872 H 1.00297 0.92433 0.83355 0.0
H873 H 0.57138 0.45187 0.57572 0.0
H874 H 0.63497 0.41529 0.548 0.0
H875 H 0.90578 0.92047 0.82645 0.0
H876 H 0.73116 0.42056 0.54304 0.0
N877 N 0.71084 0.57377 0.6217 0.0
C878 C 0.65838 0.57317 0.62407 0.0
C879 C 0.61062 0.48512 0.58919 0.0
C880 C 0.66496 0.4867 0.58612 0.0
C881 C 0.60723 0.52819 0.60863 0.0
C882 C 0.71481 0.53141 0.60378 0.0
H883 H 0.83994 0.47386 0.5557 0.0
N884 N 0.81844 0.58386 0.61235 0.0
C885 C 0.88221 0.55229 0.5866 0.0
C886 C 0.77025 0.53667 0.59882 0.0
C887 C 0.87409 0.59271 0.60605 0.0
C888 C 0.83332 0.50402 0.57201 0.0
C889 C 0.77663 0.49615 0.57751 0.0
O890 O 0.85194 0.69739 0.58876 0.0
O891 O 0.85432 0.7201 0.67999 0.0
O892 O 0.7988 0.75734 0.70331 0.0
O893 O 0.75348 0.70412 0.65007 0.0
O894 O 0.90208 0.71284 0.6379 0.0
O895 O 0.75981 0.67315 0.59108 0.0
O896 O 0.77647 0.69059 0.78991 0.0
O897 O 0.75587 0.62897 0.69542 0.0
O898 O 0.81124 0.58787 0.6677 0.0
O899 O 0.84082 0.62419 0.72773 0.0
O900 O 0.72361 0.66915 0.72929 0.0
O901 O 0.81078 0.63471 0.77785 0.0
C902 C 0.90579 0.74137 0.66744 0.0
C903 C 0.80066 0.67459 0.53139 0.0
C904 C 0.81881 0.69397 0.46497 0.0
C905 C 0.82517 0.71369 0.50206 0.0
C906 C 0.78946 0.63535 0.45761 0.0
C907 C 0.76982 0.61636 0.52279 0.0
C908 C 0.76516 0.59682 0.48642 0.0
C909 C 0.76998 0.74958 0.67142 0.0
C910 C 0.8073 0.69436 0.57062 0.0
C911 C 0.72694 0.45123 0.56038 0.0
C912 C 0.67172 0.44748 0.56386 0.0
C913 C 0.70814 0.62667 0.70673 0.0
C914 C 0.81958 0.66735 0.83972 0.0
C915 C 0.78825 0.64599 0.87304 0.0
C916 C 0.81908 0.65773 0.90713 0.0
C917 C 0.8806 0.69379 0.90769 0.0
C918 C 0.88136 0.70001 0.84113 0.0
C919 C 0.91147 0.71466 0.87482 0.0
C920 C 0.83144 0.58667 0.70087 0.0
C921 C 0.78902 0.65342 0.80331 0.0
H922 H 0.84715 0.75896 0.50789 0.0
H923 H 0.78335 0.61947 0.42933 0.0
H924 H 0.74828 0.58579 0.54395 0.0
H925 H 0.74124 0.55161 0.48048 0.0
H926 H 0.74083 0.61795 0.87223 0.0
H927 H 0.90508 0.70353 0.93351 0.0
H928 H 0.90669 0.71264 0.81614 0.0
H929 H 0.95913 0.74047 0.87532 0.0
Eu930 Eu 0.37723 0.16678 0.6378 0.0
C931 C 0.19779 0.0991 0.75595 0.0
C932 C 0.19292 0.18594 0.75646 0.0
C933 C 0.1036 0.09504 0.76502 0.0
C934 C 0.22566 0.15765 0.75291 0.0
C935 C 0.13688 0.06742 0.76363 0.0
C936 C 0.13159 0.15401 0.76065 0.0
C937 C 0.14632 0.98344 0.76716 0.0
N938 N 0.23014 0.07298 0.75143 0.0
C939 C 0.20639 0.0166 0.75957 0.0
C940 C 0.111 0.00873 0.76841 0.0
Eu941 Eu 0.32935 0.13082 0.73282 0.0
N942 N 0.28408 0.18668 0.74473 0.0
C943 C 0.31356 0.24471 0.74355 0.0
C944 C 0.22237 0.24522 0.75392 0.0
C945 C 0.28322 0.2748 0.74811 0.0
H946 H 0.23332 0.99653 0.75815 0.0
H947 H 0.30663 0.32071 0.74648 0.0
H948 H 0.1054 0.17437 0.75873 0.0
H949 H 0.12741 0.93824 0.77072 0.0
H950 H 0.36021 0.26827 0.73852 0.0
H951 H 0.41056 0.98367 0.61363 0.0
H952 H 0.1986 0.26844 0.7564 0.0
H953 H 0.47344 0.30742 0.6215 0.0
H954 H 0.36536 0.03359 0.64314 0.0
H955 H 0.56646 0.36434 0.59116 0.0
H956 H 0.05616 0.07104 0.76846 0.0
H957 H 0.49676 0.03499 0.57276 0.0
H958 H 0.5686 0.12557 0.54227 0.0
H959 H 0.06408 0.98288 0.77326 0.0
H960 H 0.61084 0.22873 0.536 0.0
N961 N 0.42711 0.11543 0.62186 0.0
C962 C 0.40381 0.05805 0.62647 0.0
C963 C 0.47804 0.058 0.58666 0.0
C964 C 0.50191 0.11641 0.58186 0.0
C965 C 0.42942 0.02894 0.60962 0.0
C966 C 0.47648 0.1447 0.60107 0.0
H967 H 0.61501 0.31841 0.55733 0.0
N968 N 0.4746 0.22902 0.61586 0.0
C969 C 0.54935 0.31928 0.59281 0.0
C970 C 0.50112 0.20303 0.59824 0.0
C971 C 0.4971 0.28644 0.61192 0.0
C972 C 0.57604 0.29312 0.57384 0.0
C973 C 0.55103 0.23417 0.57546 0.0
O974 O 0.37077 0.212 0.58981 0.0
O975 O 0.30483 0.1476 0.67763 0.0
O976 O 0.26971 0.05104 0.69841 0.0
O977 O 0.30419 0.07411 0.63775 0.0
O978 O 0.31972 0.20978 0.64091 0.0
O979 O 0.33723 0.12134 0.58578 0.0
O980 O 0.33323 0.08479 0.78146 0.0
O981 O 0.40503 0.14729 0.69414 0.0
O982 O 0.42894 0.24879 0.67082 0.0
O983 O 0.41563 0.21681 0.73127 0.0
O984 O 0.35944 0.06894 0.71951 0.0
O985 O 0.36926 0.17551 0.78489 0.0
C986 C 0.28526 0.17953 0.6672 0.0
C987 C 0.37327 0.17414 0.5303 0.0
C988 C 0.35998 0.14775 0.46464 0.0
C989 C 0.33717 0.14066 0.50083 0.0
C990 C 0.41955 0.1868 0.45822 0.0
C991 C 0.43188 0.21542 0.52272 0.0
C992 C 0.45532 0.22061 0.48725 0.0
C993 C 0.26839 0.03793 0.66273 0.0
C994 C 0.34828 0.16731 0.56806 0.0
C995 C 0.57353 0.20556 0.55425 0.0
C996 C 0.54951 0.14687 0.55782 0.0
C997 C 0.40786 0.10287 0.70249 0.0
C998 C 0.33052 0.12437 0.84023 0.0
C999 C 0.36754 0.14398 0.8716 0.0
C1000 C 0.34348 0.13901 0.90726 0.0
C1001 C 0.28229 0.11455 0.91144 0.0
C1002 C 0.26937 0.10074 0.845 0.0
C1003 C 0.24549 0.0959 0.88034 0.0
C1004 C 0.44324 0.2569 0.70614 0.0
C1005 C 0.35659 0.12957 0.80301 0.0
H1006 H 0.29092 0.11066 0.50572 0.0
H1007 H 0.43749 0.1931 0.43046 0.0
H1008 H 0.45924 0.24474 0.54382 0.0
H1009 H 0.5008 0.2523 0.48202 0.0
H1010 H 0.41484 0.16215 0.86839 0.0
H1011 H 0.26311 0.10983 0.93873 0.0
H1012 H 0.23978 0.08576 0.82171 0.0
H1013 H 0.19824 0.07728 0.88362 0.0
Eu1014 Eu 0.89165 0.19506 0.73163 0.0
C1015 C 0.78248 0.267 0.61635 0.0
C1016 C 0.68476 0.18454 0.61939 0.0
C1017 C 0.69624 0.2786 0.61246 0.0
C1018 C 0.74661 0.20889 0.62011 0.0
C1019 C 0.75763 0.30213 0.61068 0.0
C1020 C 0.66011 0.22008 0.6178 0.0
C1021 C 0.8562 0.38133 0.60293 0.0
N1022 N 0.84169 0.28917 0.61808 0.0
C1023 C 0.87877 0.34495 0.60945 0.0
C1024 C 0.79534 0.36006 0.60449 0.0
Eu1025 Eu 0.87585 0.22671 0.63641 0.0
N1026 N 0.77205 0.17646 0.62602 0.0
C1027 C 0.73806 0.11853 0.62731 0.0
C1028 C 0.64963 0.12552 0.62209 0.0
C1029 C 0.6765 0.09228 0.62524 0.0
H1030 H 0.92607 0.36195 0.60956 0.0
H1031 H 0.64978 0.04652 0.62709 0.0
H1032 H 0.61332 0.20273 0.62194 0.0
H1033 H 0.88581 0.42592 0.59759 0.0
H1034 H 0.75749 0.092 0.63111 0.0
H1035 H 0.11833 0.31823 0.78027 0.0
H1036 H 0.6019 0.10528 0.62186 0.0
H1037 H 0.79356 0.05489 0.73832 0.0
H1038 H 0.03407 0.29891 0.73999 0.0
H1039 H 0.78599 0.97157 0.77085 0.0
H1040 H 0.67657 0.3055 0.61074 0.0
H1041 H 0.11298 0.24282 0.82088 0.0
H1042 H 0.05819 0.14072 0.84052 0.0
H1043 H 0.77779 0.38839 0.60054 0.0
H1044 H 0.97078 0.04545 0.83503 0.0
N1045 N 0.9827 0.21243 0.7561 0.0
C1046 C 0.03208 0.26493 0.75638 0.0
C1047 C 0.0763 0.2337 0.80262 0.0
C1048 C 0.02672 0.17912 0.80072 0.0
C1049 C 0.07966 0.27629 0.77956 0.0
C1050 C 0.98026 0.16943 0.77647 0.0
H1051 H 0.86968 0.98204 0.80866 0.0
N1052 N 0.88323 0.10959 0.75391 0.0
C1053 C 0.82677 0.01186 0.77185 0.0
C1054 C 0.93005 0.11605 0.77426 0.0
C1055 C 0.8313 0.05887 0.7533 0.0
C1056 C 0.87434 0.01782 0.79298 0.0
C1057 C 0.92632 0.07053 0.79502 0.0
O1058 O 0.82916 0.1771 0.77655 0.0
O1059 O 0.83701 0.21271 0.69258 0.0
O1060 O 0.89654 0.30457 0.67246 0.0
O1061 O 0.93923 0.29107 0.72517 0.0
O1062 O 0.78986 0.14726 0.72784 0.0
O1063 O 0.91858 0.24655 0.78306 0.0
O1064 O 0.92293 0.26816 0.58541 0.0
O1065 O 0.93786 0.21582 0.67499 0.0
O1066 O 0.89454 0.12609 0.6981 0.0
O1067 O 0.85962 0.13471 0.64049 0.0
O1068 O 0.97231 0.28829 0.64394 0.0
O1069 O 0.8687 0.17703 0.58657 0.0
C1070 C 0.78499 0.17877 0.70316 0.0
C1071 C 0.86706 0.19708 0.83753 0.0
C1072 C 0.86048 0.20944 0.90422 0.0
C1073 C 0.86782 0.23063 0.86787 0.0
C1074 C 0.85555 0.15617 0.91015 0.0
C1075 C 0.85931 0.14283 0.8443 0.0
C1076 C 0.85528 0.12321 0.88029 0.0
C1077 C 0.92613 0.32304 0.70422 0.0
C1078 C 0.86751 0.21574 0.79901 0.0
C1079 C 0.97307 0.07978 0.81864 0.0
C1080 C 0.02271 0.13412 0.82191 0.0
C1081 C 0.98664 0.25878 0.66511 0.0
C1082 C 0.87546 0.22127 0.52923 0.0
C1083 C 0.90064 0.21313 0.49685 0.0
C1084 C 0.87586 0.21118 0.46175 0.0
C1085 C 0.82604 0.21778 0.4592 0.0
C1086 C 0.82533 0.22745 0.52607 0.0
C1087 C 0.80097 0.22592 0.49129 0.0
C1088 C 0.87271 0.10607 0.66488 0.0
C1089 C 0.90039 0.22117 0.56605 0.0
H1090 H 0.87071 0.27138 0.86312 0.0
H1091 H 0.84984 0.13927 0.9379 0.0
H1092 H 0.85371 0.11437 0.82187 0.0
H1093 H 0.84955 0.08135 0.88493 0.0
H1094 H 0.9391 0.20785 0.49892 0.0
H1095 H 0.80649 0.21637 0.43245 0.0
H1096 H 0.80468 0.23298 0.5504 0.0
H1097 H 0.76229 0.23072 0.48924 0.0
loop_
_geom_bond_atom_site_label_1
_geom_bond_atom_site_label_2
_geom_bond_distance
_geom_bond_site_symmetry_2
_ccdc_geom_bond_type
H0 C1 0.949 . S
C1 H0 0.949 . S
C1 C2 1.395 . S
C1 C3 1.391 . S
C2 C1 1.395 . S
C2 C5 1.390 . S
C3 C1 1.391 . S
C3 C7 1.387 . S
C3 C8 1.491 . S
H4 C5 0.950 . S
C5 C2 1.390 . S
C5 H4 0.950 . S
C5 C6 1.378 . S
C6 C5 1.378 . S
C6 C7 1.409 . S
C7 C3 1.387 . S
C7 C6 1.409 . S
C7 H9 0.951 . S
C8 C3 1.491 . S
C8 C10 1.382 . S
C8 C12 1.404 . S
H9 C7 0.951 . S
C10 C8 1.382 . S
C10 C11 1.390 . S
C10 H15 0.949 . S
C11 C10 1.390 . S
C11 C16 1.399 . S
C12 C8 1.404 . S
C12 H13 0.950 . S
C12 C14 1.375 . S
H13 C12 0.950 . S
C14 C12 1.375 . S
C14 C16 1.382 . S
C14 H18 0.950 . S
H15 C10 0.949 . S
C16 C11 1.399 . S
C16 C14 1.382 . S
C16 H17 0.952 . S
H17 C16 0.952 . S
H18 C14 0.950 . S
H19 C20 0.949 . S
C20 H19 0.949 . S
C20 C21 1.395 . S
C20 C22 1.391 . S
C21 C20 1.395 . S
C21 C24 1.390 . S
C22 C20 1.391 . S
C22 C26 1.387 . S
C22 C27 1.491 . S
H23 C24 0.950 . S
C24 C21 1.390 . S
C24 H23 0.950 . S
C24 C25 1.378 . S
C25 C24 1.378 . S
C25 C26 1.409 . S
C26 C22 1.387 . S
C26 C25 1.409 . S
C26 H28 0.951 . S
C27 C22 1.491 . S
C27 C29 1.382 1_545 S
C27 C31 1.404 . S
H28 C26 0.951 . S
C29 C27 1.382 1_565 S
C29 C30 1.390 . S
C29 H34 0.949 . S
C30 C29 1.390 . S
C30 C35 1.399 . S
C31 C27 1.404 . S
C31 H32 0.950 . S
C31 C33 1.375 1_545 S
H32 C31 0.950 . S
C33 C31 1.375 1_565 S
C33 C35 1.382 . S
C33 H37 0.950 . S
H34 C29 0.949 . S
C35 C30 1.399 . S
C35 C33 1.382 . S
C35 H36 0.952 . S
H36 C35 0.952 . S
H37 C33 0.950 . S
H38 C39 0.949 . S
C39 H38 0.949 . S
C39 C40 1.395 . S
C39 C41 1.391 . S
C40 C39 1.395 . S
C40 C43 1.390 . S
C41 C39 1.391 . S
C41 C45 1.387 . S
C41 C46 1.491 . S
H42 C43 0.950 . S
C43 C40 1.390 . S
C43 H42 0.950 . S
C43 C44 1.378 . S
C44 C43 1.378 . S
C44 C45 1.409 . S
C45 C41 1.387 . S
C45 C44 1.409 . S
C45 H47 0.951 . S
C46 C41 1.491 . S
C46 C48 1.382 1_655 S
C46 C50 1.405 1_655 S
H47 C45 0.951 . S
C48 C46 1.382 1_455 S
C48 C49 1.390 . S
C48 H53 0.949 . S
C49 C48 1.390 . S
C49 C54 1.399 . S
C50 C46 1.405 1_455 S
C50 H51 0.941 1_455 S
C50 C52 1.382 . S
H51 C50 0.941 1_655 S
C52 C50 1.382 . S
C52 C54 1.382 . S
C52 H56 0.950 . S
H53 C48 0.949 . S
C54 C49 1.399 . S
C54 C52 1.382 . S
C54 H55 0.952 . S
H55 C54 0.952 . S
H56 C52 0.950 . S
H57 C58 0.949 . S
C58 H57 0.949 . S
C58 C59 1.395 . S
C58 C60 1.391 . S
C59 C58 1.395 . S
C59 C62 1.390 . S
C60 C58 1.391 . S
C60 C64 1.387 . S
C60 C65 1.491 . S
H61 C62 0.950 . S
C62 C59 1.390 . S
C62 H61 0.950 . S
C62 C63 1.378 . S
C63 C62 1.378 . S
C63 C64 1.409 . S
C64 C60 1.387 . S
C64 C63 1.409 . S
C64 H66 0.951 . S
C65 C60 1.491 . S
C65 C67 1.382 . S
C65 C69 1.404 . S
H66 C64 0.951 . S
C67 C65 1.382 . S
C67 C68 1.390 . S
C67 H72 0.949 . S
C68 C67 1.390 . S
C68 C73 1.399 . S
C69 C65 1.404 . S
C69 H70 0.950 . S
C69 C71 1.375 . S
H70 C69 0.950 . S
C71 C69 1.375 . S
C71 C73 1.382 . S
C71 H75 0.950 . S
H72 C67 0.949 . S
C73 C68 1.399 . S
C73 C71 1.382 . S
C73 H74 0.952 . S
H74 C73 0.952 . S
H75 C71 0.950 . S
H76 C77 0.949 . S
C77 H76 0.949 . S
C77 C78 1.395 . S
C77 C79 1.391 . S
C78 C77 1.395 . S
C78 C81 1.390 . S
C79 C77 1.391 . S
C79 C83 1.387 . S
C79 C84 1.491 . S
H80 C81 0.950 . S
C81 C78 1.390 . S
C81 H80 0.950 . S
C81 C82 1.378 . S
C82 C81 1.378 . S
C82 C83 1.409 . S
C83 C79 1.387 . S
C83 C82 1.409 . S
C83 H85 0.951 . S
C84 C79 1.491 . S
C84 C86 1.382 1_565 S
C84 C88 1.404 . S
H85 C83 0.951 . S
C86 C84 1.382 1_545 S
C86 C87 1.390 . S
C86 H91 0.949 . S
C87 C86 1.390 . S
C87 C92 1.399 . S
C88 C84 1.404 . S
C88 H89 0.950 . S
C88 C90 1.375 1_565 S
H89 C88 0.950 . S
C90 C88 1.375 1_545 S
C90 C92 1.382 . S
C90 H94 0.950 . S
H91 C86 0.949 . S
C92 C87 1.399 . S
C92 C90 1.382 . S
C92 H93 0.952 . S
H93 C92 0.952 . S
H94 C90 0.950 . S
H95 C96 0.949 . S
C96 H95 0.949 . S
C96 C97 1.395 . S
C96 C98 1.391 . S
C97 C96 1.395 . S
C97 C100 1.390 . S
C98 C96 1.391 . S
C98 C102 1.387 . S
C98 C103 1.491 . S
H99 C100 0.950 . S
C100 C97 1.390 . S
C100 H99 0.950 . S
C100 C101 1.378 . S
C101 C100 1.378 . S
C101 C102 1.409 . S
C102 C98 1.387 . S
C102 C101 1.409 . S
C102 H104 0.951 . S
C103 C98 1.491 . S
C103 C105 1.382 1_455 S
C103 C107 1.404 . S
H104 C102 0.951 . S
C105 C103 1.382 1_655 S
C105 C106 1.390 . S
C105 H110 0.949 . S
C106 C105 1.390 . S
C106 C111 1.399 . S
C107 C103 1.404 . S
C107 H108 0.950 . S
C107 C109 1.375 1_455 S
H108 C107 0.950 . S
C109 C107 1.375 1_655 S
C109 C111 1.382 . S
C109 H113 0.950 . S
H110 C105 0.949 . S
C111 C106 1.399 . S
C111 C109 1.382 . S
C111 H112 0.952 . S
H112 C111 0.952 . S
H113 C109 0.950 . S
H114 C115 0.949 . S
C115 H114 0.949 . S
C115 C116 1.395 . S
C115 C117 1.391 . S
C116 C115 1.395 . S
C116 C119 1.390 . S
C117 C115 1.391 . S
C117 C121 1.387 . S
C117 C122 1.491 . S
H118 C119 0.950 . S
C119 C116 1.390 . S
C119 H118 0.950 . S
C119 C120 1.378 . S
C120 C119 1.378 . S
C120 C121 1.409 . S
C121 C117 1.387 . S
C121 C120 1.409 . S
C121 H123 0.951 . S
C122 C117 1.491 . S
C122 C124 1.382 . S
C122 C126 1.404 . S
H123 C121 0.951 . S
C124 C122 1.382 . S
C124 C125 1.390 . S
C124 H129 0.949 . S
C125 C124 1.390 . S
C125 C130 1.399 . S
C126 C122 1.404 . S
C126 H127 0.950 . S
C126 C128 1.375 . S
H127 C126 0.950 . S
C128 C126 1.375 . S
C128 C130 1.382 . S
C128 H132 0.950 . S
H129 C124 0.949 . S
C130 C125 1.399 . S
C130 C128 1.382 . S
C130 H131 0.952 . S
H131 C130 0.952 . S
H132 C128 0.950 . S
H133 C134 0.949 . S
C134 H133 0.949 . S
C134 C135 1.395 . S
C134 C136 1.391 . S
C135 C134 1.395 . S
C135 C138 1.390 . S
C136 C134 1.391 . S
C136 C140 1.387 . S
C136 C141 1.491 . S
H137 C138 0.950 . S
C138 C135 1.390 . S
C138 H137 0.950 . S
C138 C139 1.378 . S
C139 C138 1.378 . S
C139 C140 1.409 . S
C140 C136 1.387 . S
C140 C139 1.409 . S
C140 H142 0.951 . S
C141 C136 1.491 . S
C141 C143 1.382 . S
C141 C145 1.404 . S
H142 C140 0.951 . S
C143 C141 1.382 . S
C143 C144 1.390 . S
C143 H148 0.949 . S
C144 C143 1.390 . S
C144 C149 1.399 . S
C145 C141 1.404 . S
C145 H146 0.950 . S
C145 C147 1.375 . S
H146 C145 0.950 . S
C147 C145 1.375 . S
C147 C149 1.382 . S
C147 H151 0.950 . S
H148 C143 0.949 . S
C149 C144 1.399 . S
C149 C147 1.382 . S
C149 H150 0.952 . S
H150 C149 0.952 . S
H151 C147 0.950 . S
H152 C153 0.949 . S
C153 H152 0.949 . S
C153 C154 1.395 . S
C153 C155 1.391 . S
C154 C153 1.395 . S
C154 C157 1.390 . S
C155 C153 1.391 . S
C155 C159 1.387 . S
C155 C160 1.491 . S
H156 C157 0.950 . S
C157 C154 1.390 . S
C157 H156 0.950 . S
C157 C158 1.378 . S
C158 C157 1.378 . S
C158 C159 1.409 . S
C159 C155 1.387 . S
C159 C158 1.409 . S
C159 H161 0.951 . S
C160 C155 1.491 . S
C160 C162 1.382 . S
C160 C164 1.404 . S
H161 C159 0.951 . S
C162 C160 1.382 . S
C162 C163 1.390 . S
C162 H167 0.949 . S
C163 C162 1.390 . S
C163 C168 1.399 . S
C164 C160 1.404 . S
C164 H165 0.950 . S
C164 C166 1.375 . S
H165 C164 0.950 . S
C166 C164 1.375 . S
C166 C168 1.382 . S
C166 H170 0.950 . S
H167 C162 0.949 . S
C168 C163 1.399 . S
C168 C166 1.382 . S
C168 H169 0.952 . S
H169 C168 0.952 . S
H170 C166 0.950 . S
H171 C172 0.949 . S
C172 H171 0.949 . S
C172 C173 1.395 . S
C172 C174 1.391 . S
C173 C172 1.395 . S
C173 C176 1.390 . S
C174 C172 1.391 . S
C174 C178 1.387 . S
C174 C179 1.491 . S
H175 C176 0.950 . S
C176 C173 1.390 . S
C176 H175 0.950 . S
C176 C177 1.378 . S
C177 C176 1.378 . S
C177 C178 1.409 . S
C178 C174 1.387 . S
C178 C177 1.409 . S
C178 H180 0.951 1_556 S
C179 C174 1.491 . S
C179 C181 1.382 . S
C179 C183 1.404 1_556 S
H180 C178 0.951 1_554 S
C181 C179 1.382 . S
C181 C182 1.390 . S
C181 H186 0.949 . S
C182 C181 1.390 . S
C182 C187 1.399 1_556 S
C183 C179 1.404 1_554 S
C183 H184 0.950 . S
C183 C185 1.375 . S
H184 C183 0.950 . S
C185 C183 1.375 . S
C185 C187 1.382 . S
C185 H189 0.950 . S
H186 C181 0.949 . S
C187 C182 1.399 1_554 S
C187 C185 1.382 . S
C187 H188 0.952 . S
H188 C187 0.952 . S
H189 C185 0.950 . S
H190 C191 0.949 . S
C191 H190 0.949 . S
C191 C192 1.395 . S
C191 C193 1.391 . S
C192 C191 1.395 . S
C192 C195 1.390 . S
C193 C191 1.391 . S
C193 C197 1.387 . S
C193 C198 1.491 . S
H194 C195 0.950 . S
C195 C192 1.390 . S
C195 H194 0.950 . S
C195 C196 1.378 . S
C196 C195 1.378 . S
C196 C197 1.409 . S
C197 C193 1.387 . S
C197 C196 1.409 . S
C197 H199 0.951 1_556 S
C198 C193 1.491 . S
C198 C200 1.382 . S
C198 C202 1.404 1_556 S
H199 C197 0.951 1_554 S
C200 C198 1.382 . S
C200 C201 1.390 1_556 S
C200 H205 0.949 . S
C201 C200 1.390 1_554 S
C201 C206 1.399 . S
C202 C198 1.404 1_554 S
C202 H203 0.950 . S
C202 C204 1.375 . S
H203 C202 0.950 . S
C204 C202 1.375 . S
C204 C206 1.382 . S
C204 H208 0.950 . S
H205 C200 0.949 . S
C206 C201 1.399 . S
C206 C204 1.382 . S
C206 H207 0.952 . S
H207 C206 0.952 . S
H208 C204 0.950 . S
H209 C210 0.949 . S
C210 H209 0.949 . S
C210 C211 1.395 . S
C210 C212 1.391 . S
C211 C210 1.395 . S
C211 C214 1.390 . S
C212 C210 1.391 . S
C212 C216 1.387 . S
C212 C217 1.491 . S
H213 C214 0.950 . S
C214 C211 1.390 . S
C214 H213 0.950 . S
C214 C215 1.378 . S
C215 C214 1.378 . S
C215 C216 1.409 . S
C216 C212 1.387 . S
C216 C215 1.409 . S
C216 H218 0.951 1_556 S
C217 C212 1.491 . S
C217 C219 1.382 . S
C217 C221 1.404 1_556 S
H218 C216 0.951 1_554 S
C219 C217 1.382 . S
C219 C220 1.390 1_556 S
C219 H224 0.949 . S
C220 C219 1.390 1_554 S
C220 C225 1.399 . S
C221 C217 1.404 1_554 S
C221 H222 0.950 . S
C221 C223 1.375 . S
H222 C221 0.950 . S
C223 C221 1.375 . S
C223 C225 1.382 . S
C223 H227 0.950 . S
H224 C219 0.949 . S
C225 C220 1.399 . S
C225 C223 1.382 . S
C225 H226 0.952 . S
H226 C225 0.952 . S
H227 C223 0.950 . S
H228 C229 0.949 . S
C229 H228 0.949 . S
C229 C230 1.395 . S
C229 C231 1.391 . S
C230 C229 1.395 . S
C230 C233 1.390 . S
C231 C229 1.391 . S
C231 C235 1.387 . S
C231 C236 1.491 . S
H232 C233 0.950 . S
C233 C230 1.390 . S
C233 H232 0.950 . S
C233 C234 1.378 . S
C234 C233 1.378 . S
C234 C235 1.409 . S
C235 C231 1.387 . S
C235 C234 1.409 . S
C235 H237 0.975 . S
C236 C231 1.491 . S
C236 C238 1.382 . S
C236 C240 1.404 . S
H237 C235 0.975 . S
C238 C236 1.382 . S
C238 C239 1.390 . S
C238 H243 0.949 . S
C239 C238 1.390 . S
C239 C244 1.399 1_554 S
C240 C236 1.404 . S
C240 H241 0.947 1_554 S
C240 C242 1.375 1_554 S
H241 C240 0.947 1_556 S
C242 C240 1.375 1_556 S
C242 C244 1.382 . S
C242 H246 0.950 . S
H243 C238 0.949 . S
C244 C239 1.399 1_556 S
C244 C242 1.382 . S
C244 H245 0.952 . S
H245 C244 0.952 . S
H246 C242 0.950 . S
H247 C248 0.949 . S
C248 H247 0.949 . S
C248 C249 1.395 . S
C248 C250 1.391 . S
C249 C248 1.395 . S
C249 C252 1.390 . S
C250 C248 1.391 . S
C250 C254 1.387 . S
C250 C255 1.491 . S
H251 C252 0.950 . S
C252 C249 1.390 . S
C252 H251 0.950 . S
C252 C253 1.378 . S
C253 C252 1.378 . S
C253 C254 1.409 . S
C254 C250 1.387 . S
C254 C253 1.409 . S
C254 H256 0.951 . S
C255 C250 1.491 . S
C255 C257 1.382 . S
C255 C259 1.404 . S
H256 C254 0.951 . S
C257 C255 1.382 . S
C257 C258 1.390 . S
C257 H262 0.949 . S
C258 C257 1.390 . S
C258 C263 1.399 1_554 S
C259 C255 1.404 . S
C259 H260 0.950 . S
C259 C261 1.375 1_554 S
H260 C259 0.950 . S
C261 C259 1.375 1_556 S
C261 C263 1.382 . S
C261 H265 0.950 . S
H262 C257 0.949 . S
C263 C258 1.399 1_556 S
C263 C261 1.382 . S
C263 H264 0.952 . S
H264 C263 0.952 . S
H265 C261 0.950 . S
H266 C267 0.949 . S
C267 H266 0.949 . S
C267 C268 1.395 . S
C267 C269 1.391 . S
C268 C267 1.395 . S
C268 C271 1.390 . S
C269 C267 1.391 . S
C269 C273 1.387 . S
C269 C274 1.491 . S
H270 C271 0.950 . S
C271 C268 1.390 . S
C271 H270 0.950 . S
C271 C272 1.378 . S
C272 C271 1.378 . S
C272 C273 1.409 . S
C273 C269 1.387 . S
C273 C272 1.409 . S
C273 H275 0.951 . S
C274 C269 1.491 . S
C274 C276 1.382 . S
C274 C278 1.404 . S
H275 C273 0.951 . S
C276 C274 1.382 . S
C276 C277 1.390 . S
C276 H281 0.949 . S
C277 C276 1.390 . S
C277 C282 1.417 . S
C278 C274 1.404 . S
C278 H279 0.950 . S
C278 C280 1.375 1_554 S
H279 C278 0.950 . S
C280 C278 1.375 1_556 S
C280 C282 1.379 1_556 S
C280 H284 0.950 . S
H281 C276 0.949 . S
C282 C277 1.417 . S
C282 C280 1.379 1_554 S
C282 H283 0.939 1_554 S
H283 C282 0.939 1_556 S
H284 C280 0.950 . S
H285 C286 0.949 . S
C286 H285 0.949 . S
C286 C287 1.395 . S
C286 C288 1.391 . S
C287 C286 1.395 . S
C287 C290 1.390 . S
C288 C286 1.391 . S
C288 C292 1.387 . S
C288 C293 1.491 . S
H289 C290 0.950 . S
C290 C287 1.390 . S
C290 H289 0.950 . S
C290 C291 1.378 . S
C291 C290 1.378 . S
C291 C292 1.409 . S
C292 C288 1.387 . S
C292 C291 1.409 . S
C292 H294 0.951 . S
C293 C288 1.491 . S
C293 C295 1.382 . S
C293 C297 1.404 . S
H294 C292 0.951 . S
C295 C293 1.382 . S
C295 C296 1.390 . S
C295 H300 0.949 . S
C296 C295 1.390 . S
C296 C301 1.399 . S
C297 C293 1.404 . S
C297 H298 0.950 . S
C297 C299 1.375 . S
H298 C297 0.950 . S
C299 C297 1.375 . S
C299 C301 1.382 . S
C299 H303 0.950 . S
H300 C295 0.949 . S
C301 C296 1.399 . S
C301 C299 1.382 . S
C301 H302 0.952 . S
H302 C301 0.952 . S
H303 C299 0.950 . S
H304 C305 0.949 . S
C305 H304 0.949 . S
C305 C306 1.395 . S
C305 C307 1.391 . S
C306 C305 1.395 . S
C306 C309 1.390 . S
C307 C305 1.391 . S
C307 C311 1.387 . S
C307 C312 1.491 . S
H308 C309 0.950 . S
C309 C306 1.390 . S
C309 H308 0.950 . S
C309 C310 1.378 . S
C310 C309 1.378 . S
C310 C311 1.409 . S
C311 C307 1.387 . S
C311 C310 1.409 . S
C311 H313 0.951 . S
C312 C307 1.491 . S
C312 C314 1.382 . S
C312 C316 1.404 . S
H313 C311 0.951 . S
C314 C312 1.382 . S
C314 C315 1.390 . S
C314 H319 0.949 . S
C315 C314 1.390 . S
C315 C320 1.399 . S
C316 C312 1.404 . S
C316 H317 0.950 . S
C316 C318 1.375 . S
H317 C316 0.950 . S
C318 C316 1.375 . S
C318 C320 1.382 . S
C318 H322 0.950 . S
H319 C314 0.949 . S
C320 C315 1.399 . S
C320 C318 1.382 . S
C320 H321 0.952 . S
H321 C320 0.952 . S
H322 C318 0.950 . S
H323 C324 0.949 . S
C324 H323 0.949 . S
C324 C325 1.395 . S
C324 C326 1.391 . S
C325 C324 1.395 . S
C325 C328 1.390 . S
C326 C324 1.391 . S
C326 C330 1.387 . S
C326 C331 1.491 . S
H327 C328 0.950 . S
C328 C325 1.390 . S
C328 H327 0.950 . S
C328 C329 1.378 . S
C329 C328 1.378 . S
C329 C330 1.409 . S
C330 C326 1.387 . S
C330 C329 1.409 . S
C330 H332 0.951 . S
C331 C326 1.491 . S
C331 C333 1.382 . S
C331 C335 1.404 . S
H332 C330 0.951 . S
C333 C331 1.382 . S
C333 C334 1.390 . S
C333 H338 0.949 . S
C334 C333 1.390 . S
C334 C339 1.399 . S
C335 C331 1.404 . S
C335 H336 0.950 . S
C335 C337 1.375 . S
H336 C335 0.950 . S
C337 C335 1.375 . S
C337 C339 1.382 . S
C337 H341 0.950 . S
H338 C333 0.949 . S
C339 C334 1.399 . S
C339 C337 1.382 . S
C339 H340 0.952 . S
H340 C339 0.952 . S
H341 C337 0.950 . S
Eu342 N373 2.657 . S
Eu342 N380 2.609 . S
Eu342 O386 2.558 . S
Eu342 O387 2.612 1_566 S
Eu342 O389 2.339 1_565 S
Eu342 O390 2.563 1_565 S
Eu342 O391 2.419 1_565 S
Eu342 O393 2.380 1_556 S
Eu342 O394 2.432 . S
Eu342 C406 2.846 1_565 S
C343 C346 1.429 . S
C343 C347 1.411 . S
C343 N350 1.377 . S
C344 C346 1.420 . S
C344 C348 1.423 . S
C344 C356 1.392 . S
C345 C347 1.420 . S
C345 C348 1.351 . S
C345 H368 0.931 . S
C346 C343 1.429 . S
C346 C344 1.420 . S
C346 N354 1.362 . S
C347 C343 1.411 . S
C347 C345 1.420 . S
C347 C352 1.395 . S
C348 C344 1.423 . S
C348 C345 1.351 . S
C348 H360 0.930 . S
C349 C351 1.400 . S
C349 C352 1.386 . S
C349 H361 0.930 . S
N350 C343 1.377 . S
N350 C351 1.321 . S
N350 Eu353 2.609 . S
C351 C349 1.400 . S
C351 N350 1.321 . S
C351 H358 0.930 . S
C352 C347 1.395 . S
C352 C349 1.386 . S
C352 H371 0.930 . S
Eu353 N350 2.609 . S
Eu353 N354 2.657 . S
Eu353 O387 2.380 . S
Eu353 O388 2.432 . S
Eu353 O392 2.558 . S
Eu353 O393 2.612 1_545 S
Eu353 O395 2.339 1_545 S
Eu353 O396 2.563 1_545 S
Eu353 O397 2.419 1_545 S
Eu353 C417 2.848 . S
N354 C346 1.362 . S
N354 Eu353 2.657 . S
N354 C355 1.334 . S
C355 N354 1.334 . S
C355 C357 1.413 . S
C355 H362 0.929 . S
C356 C344 1.392 . S
C356 C357 1.367 . S
C356 H364 0.930 . S
C357 C355 1.413 . S
C357 C356 1.367 . S
C357 H359 0.930 . S
H358 C351 0.930 . S
H359 C357 0.930 . S
H360 C348 0.930 . S
H361 C349 0.930 . S
H362 C355 0.929 . S
H363 C377 0.930 . S
H364 C356 0.930 . S
H365 C383 0.930 . S
H366 C374 0.929 . S
H367 C381 0.930 . S
H368 C345 0.931 . S
H369 C375 0.930 . S
H370 C408 0.930 . S
H371 C352 0.930 . S
H372 C407 0.931 . S
N373 Eu342 2.657 . S
N373 C374 1.334 . S
N373 C378 1.362 . S
C374 H366 0.929 . S
C374 N373 1.334 . S
C374 C377 1.413 . S
C375 H369 0.930 . S
C375 C376 1.392 . S
C375 C377 1.367 . S
C376 C375 1.392 . S
C376 C378 1.420 . S
C376 C408 1.423 . S
C377 H363 0.930 . S
C377 C374 1.413 . S
C377 C375 1.367 . S
C378 N373 1.362 . S
C378 C376 1.420 . S
C378 C382 1.429 . S
H379 C384 0.930 . S
N380 Eu342 2.609 . S
N380 C382 1.377 . S
N380 C383 1.321 . S
C381 H367 0.930 . S
C381 C383 1.400 . S
C381 C384 1.386 . S
C382 C378 1.429 . S
C382 N380 1.377 . S
C382 C385 1.411 . S
C383 H365 0.930 . S
C383 N380 1.321 . S
C383 C381 1.400 . S
C384 H379 0.930 . S
C384 C381 1.386 . S
C384 C385 1.395 . S
C385 C382 1.411 . S
C385 C384 1.395 . S
C385 C407 1.420 . S
O386 Eu342 2.558 . S
O386 C406 1.241 1_565 S
O387 Eu342 2.612 1_544 S
O387 Eu353 2.380 . S
O387 C398 1.276 1_554 S
O388 Eu353 2.432 . S
O388 C405 1.264 1_554 S
O389 Eu342 2.339 1_545 S
O389 C405 1.254 . S
O390 Eu342 2.563 1_545 S
O390 C398 1.235 . S
O391 Eu342 2.419 1_545 S
O391 C406 1.262 . S
O392 Eu353 2.558 . S
O392 C417 1.257 . S
O393 Eu342 2.380 1_554 S
O393 Eu353 2.612 1_565 S
O393 C409 1.276 . S
O394 Eu342 2.432 . S
O394 C416 1.264 1_556 S
O395 Eu353 2.339 1_565 S
O395 C416 1.254 . S
O396 Eu353 2.563 1_565 S
O396 C409 1.235 . S
O397 Eu353 2.419 1_565 S
O397 C417 1.249 1_565 S
C398 O387 1.276 1_556 S
C398 O390 1.235 . S
C399 C401 1.393 . S
C399 C403 1.395 1_545 S
C399 C406 1.495 . S
C400 C401 1.392 . S
C400 C402 1.386 . S
C401 C399 1.393 . S
C401 C400 1.392 . S
C401 H418 0.930 . S
C402 C400 1.386 . S
C402 C404 1.395 1_545 S
C402 H419 0.930 . S
C403 C399 1.395 1_565 S
C403 C404 1.379 . S
C403 H420 0.930 . S
C404 C402 1.395 1_565 S
C404 C403 1.379 . S
C404 H421 0.930 . S
C405 O388 1.264 1_556 S
C405 O389 1.254 . S
C406 Eu342 2.846 1_545 S
C406 O386 1.241 1_545 S
C406 O391 1.262 . S
C406 C399 1.495 . S
C407 H372 0.931 . S
C407 C385 1.420 . S
C407 C408 1.351 . S
C408 H370 0.930 . S
C408 C376 1.423 . S
C408 C407 1.351 . S
C409 O393 1.276 . S
C409 O396 1.235 . S
C410 C411 1.393 . S
C410 C414 1.395 1_565 S
C410 C417 1.492 1_565 S
C411 C410 1.393 . S
C411 C412 1.392 . S
C411 H422 0.930 . S
C412 C411 1.392 . S
C412 C413 1.386 . S
C413 C412 1.386 . S
C413 C415 1.395 1_565 S
C413 H423 0.930 . S
C414 C410 1.395 1_545 S
C414 C415 1.379 . S
C414 H424 0.930 . S
C415 C413 1.395 1_545 S
C415 C414 1.379 . S
C415 H425 0.930 . S
C416 O394 1.264 1_554 S
C416 O395 1.254 . S
C417 Eu353 2.848 . S
C417 O392 1.257 . S
C417 O397 1.249 1_545 S
C417 C410 1.492 1_545 S
H418 C401 0.930 . S
H419 C402 0.930 . S
H420 C403 0.930 . S
H421 C404 0.930 . S
H422 C411 0.930 . S
H423 C413 0.930 . S
H424 C414 0.930 . S
H425 C415 0.930 . S
Eu426 N457 2.657 . S
Eu426 N464 2.609 . S
Eu426 O470 2.558 . S
Eu426 O471 2.612 1_456 S
Eu426 O473 2.339 1_455 S
Eu426 O474 2.563 1_455 S
Eu426 O475 2.419 1_455 S
Eu426 O477 2.380 1_556 S
Eu426 O478 2.432 . S
Eu426 C490 2.848 . S
C427 C430 1.429 . S
C427 C431 1.411 . S
C427 N434 1.377 . S
C428 C430 1.420 . S
C428 C432 1.423 . S
C428 C440 1.392 . S
C429 C431 1.420 . S
C429 C432 1.351 . S
C429 H452 0.931 . S
C430 C427 1.429 . S
C430 C428 1.420 . S
C430 N438 1.362 . S
C431 C427 1.411 . S
C431 C429 1.420 . S
C431 C436 1.395 . S
C432 C428 1.423 . S
C432 C429 1.351 . S
C432 H444 0.930 . S
C433 C435 1.400 . S
C433 C436 1.386 . S
C433 H445 0.930 . S
N434 C427 1.377 . S
N434 C435 1.321 . S
N434 Eu437 2.609 . S
C435 C433 1.400 . S
C435 N434 1.321 . S
C435 H442 0.930 . S
C436 C431 1.395 . S
C436 C433 1.386 . S
C436 H455 0.930 . S
Eu437 N434 2.609 . S
Eu437 N438 2.657 . S
Eu437 O471 2.380 . S
Eu437 O472 2.432 . S
Eu437 O476 2.558 . S
Eu437 O477 2.612 1_655 S
Eu437 O479 2.339 1_655 S
Eu437 O480 2.563 1_655 S
Eu437 O481 2.419 1_655 S
Eu437 C501 2.848 . S
N438 C430 1.362 . S
N438 Eu437 2.657 . S
N438 C439 1.334 . S
C439 N438 1.334 . S
C439 C441 1.413 . S
C439 H446 0.929 . S
C440 C428 1.392 . S
C440 C441 1.367 . S
C440 H448 0.930 . S
C441 C439 1.413 . S
C441 C440 1.367 . S
C441 H443 0.930 . S
H442 C435 0.930 . S
H443 C441 0.930 . S
H444 C432 0.930 . S
H445 C433 0.930 . S
H446 C439 0.929 . S
H447 C461 0.930 . S
H448 C440 0.930 . S
H449 C467 0.930 . S
H450 C458 0.929 . S
H451 C465 0.930 . S
H452 C429 0.931 . S
H453 C459 0.930 . S
H454 C492 0.930 . S
H455 C436 0.930 . S
H456 C491 0.931 . S
N457 Eu426 2.657 . S
N457 C458 1.334 . S
N457 C462 1.362 . S
C458 H450 0.929 . S
C458 N457 1.334 . S
C458 C461 1.413 . S
C459 H453 0.930 . S
C459 C460 1.392 . S
C459 C461 1.367 . S
C460 C459 1.392 . S
C460 C462 1.420 . S
C460 C492 1.423 . S
C461 H447 0.930 . S
C461 C458 1.413 . S
C461 C459 1.367 . S
C462 N457 1.362 . S
C462 C460 1.420 . S
C462 C466 1.429 . S
H463 C468 0.930 . S
N464 Eu426 2.609 . S
N464 C466 1.377 . S
N464 C467 1.321 . S
C465 H451 0.930 . S
C465 C467 1.400 . S
C465 C468 1.386 . S
C466 C462 1.429 . S
C466 N464 1.377 . S
C466 C469 1.411 . S
C467 H449 0.930 . S
C467 N464 1.321 . S
C467 C465 1.400 . S
C468 H463 0.930 . S
C468 C465 1.386 . S
C468 C469 1.395 . S
C469 C466 1.411 . S
C469 C468 1.395 . S
C469 C491 1.420 . S
O470 Eu426 2.558 . S
O470 C490 1.257 . S
O471 Eu426 2.612 1_654 S
O471 Eu437 2.380 . S
O471 C482 1.276 1_554 S
O472 Eu437 2.432 . S
O472 C489 1.264 1_554 S
O473 Eu426 2.339 1_655 S
O473 C489 1.254 . S
O474 Eu426 2.563 1_655 S
O474 C482 1.235 . S
O475 Eu426 2.419 1_655 S
O475 C490 1.249 1_655 S
O476 Eu437 2.558 . S
O476 C501 1.257 . S
O477 Eu426 2.380 1_554 S
O477 Eu437 2.612 1_455 S
O477 C493 1.276 . S
O478 Eu426 2.432 . S
O478 C500 1.264 1_556 S
O479 Eu437 2.339 1_455 S
O479 C500 1.254 . S
O480 Eu437 2.563 1_455 S
O480 C493 1.235 . S
O481 Eu437 2.419 1_455 S
O481 C501 1.249 1_455 S
C482 O471 1.276 1_556 S
C482 O474 1.235 . S
C483 C485 1.393 . S
C483 C487 1.395 1_655 S
C483 C490 1.492 1_655 S
C484 C485 1.392 . S
C484 C486 1.386 . S
C485 C483 1.393 . S
C485 C484 1.392 . S
C485 H502 0.930 . S
C486 C484 1.386 . S
C486 C488 1.395 1_655 S
C486 H503 0.930 . S
C487 C483 1.395 1_455 S
C487 C488 1.379 . S
C487 H504 0.930 . S
C488 C486 1.395 1_455 S
C488 C487 1.379 . S
C488 H505 0.930 . S
C489 O472 1.264 1_556 S
C489 O473 1.254 . S
C490 Eu426 2.848 . S
C490 O470 1.257 . S
C490 O475 1.249 1_455 S
C490 C483 1.492 1_455 S
C491 H456 0.931 . S
C491 C469 1.420 . S
C491 C492 1.351 . S
C492 H454 0.930 . S
C492 C460 1.423 . S
C492 C491 1.351 . S
C493 O477 1.276 . S
C493 O480 1.235 . S
C494 C495 1.393 . S
C494 C498 1.395 1_455 S
C494 C501 1.492 1_455 S
C495 C494 1.393 . S
C495 C496 1.392 . S
C495 H506 0.930 . S
C496 C495 1.392 . S
C496 C497 1.386 . S
C497 C496 1.386 . S
C497 C499 1.395 1_455 S
C497 H507 0.930 . S
C498 C494 1.395 1_655 S
C498 C499 1.379 . S
C498 H508 0.930 . S
C499 C497 1.395 1_655 S
C499 C498 1.379 . S
C499 H509 0.930 . S
C500 O478 1.264 1_554 S
C500 O479 1.254 . S
C501 Eu437 2.848 . S
C501 O476 1.257 . S
C501 O481 1.249 1_655 S
C501 C494 1.492 1_655 S
H502 C485 0.930 . S
H503 C486 0.930 . S
H504 C487 0.930 . S
H505 C488 0.930 . S
H506 C495 0.930 . S
H507 C497 0.930 . S
H508 C498 0.930 . S
H509 C499 0.930 . S
Eu510 N541 2.657 . S
Eu510 N548 2.609 . S
Eu510 O554 2.558 . S
Eu510 O555 2.612 . S
Eu510 O557 2.339 . S
Eu510 O558 2.563 . S
Eu510 O559 2.419 . S
Eu510 O561 2.380 . S
Eu510 O562 2.432 . S
Eu510 C574 2.848 . S
C511 C514 1.429 . S
C511 C515 1.411 . S
C511 N518 1.377 . S
C512 C514 1.420 . S
C512 C516 1.423 . S
C512 C524 1.392 . S
C513 C515 1.420 . S
C513 C516 1.351 . S
C513 H536 0.931 . S
C514 C511 1.429 . S
C514 C512 1.420 . S
C514 N522 1.362 . S
C515 C511 1.411 . S
C515 C513 1.420 . S
C515 C520 1.395 . S
C516 C512 1.423 . S
C516 C513 1.351 . S
C516 H528 0.930 . S
C517 C519 1.400 . S
C517 C520 1.386 . S
C517 H529 0.930 . S
N518 C511 1.377 . S
N518 C519 1.321 . S
N518 Eu521 2.609 . S
C519 C517 1.400 . S
C519 N518 1.321 . S
C519 H526 0.930 . S
C520 C515 1.395 . S
C520 C517 1.386 . S
C520 H539 0.930 . S
Eu521 N518 2.609 . S
Eu521 N522 2.657 . S
Eu521 O555 2.380 1_556 S
Eu521 O556 2.432 . S
Eu521 O560 2.558 . S
Eu521 O561 2.612 1_556 S
Eu521 O563 2.339 . S
Eu521 O564 2.563 . S
Eu521 O565 2.419 . S
Eu521 C585 2.848 . S
N522 C514 1.362 . S
N522 Eu521 2.657 . S
N522 C523 1.334 . S
C523 N522 1.334 . S
C523 C525 1.413 . S
C523 H530 0.929 . S
C524 C512 1.392 . S
C524 C525 1.367 . S
C524 H532 0.930 . S
C525 C523 1.413 . S
C525 C524 1.367 . S
C525 H527 0.930 . S
H526 C519 0.930 . S
H527 C525 0.930 . S
H528 C516 0.930 . S
H529 C517 0.930 . S
H530 C523 0.929 . S
H531 C545 0.930 . S
H532 C524 0.930 . S
H533 C551 0.930 . S
H534 C542 0.929 . S
H535 C549 0.930 . S
H536 C513 0.931 . S
H537 C543 0.930 . S
H538 C576 0.930 . S
H539 C520 0.930 . S
H540 C575 0.931 . S
N541 Eu510 2.657 . S
N541 C542 1.334 . S
N541 C546 1.362 . S
C542 H534 0.929 . S
C542 N541 1.334 . S
C542 C545 1.413 . S
C543 H537 0.930 . S
C543 C544 1.392 . S
C543 C545 1.367 . S
C544 C543 1.392 . S
C544 C546 1.420 . S
C544 C576 1.423 . S
C545 H531 0.930 . S
C545 C542 1.413 . S
C545 C543 1.367 . S
C546 N541 1.362 . S
C546 C544 1.420 . S
C546 C550 1.429 . S
H547 C552 0.930 . S
N548 Eu510 2.609 . S
N548 C550 1.377 . S
N548 C551 1.321 . S
C549 H535 0.930 . S
C549 C551 1.400 . S
C549 C552 1.386 . S
C550 C546 1.429 . S
C550 N548 1.377 . S
C550 C553 1.411 . S
C551 H533 0.930 . S
C551 N548 1.321 . S
C551 C549 1.400 . S
C552 H547 0.930 . S
C552 C549 1.386 . S
C552 C553 1.395 . S
C553 C550 1.411 . S
C553 C552 1.395 . S
C553 C575 1.420 . S
O554 Eu510 2.558 . S
O554 C574 1.257 . S
O555 Eu510 2.612 . S
O555 Eu521 2.380 1_554 S
O555 C566 1.276 . S
O556 Eu521 2.432 . S
O556 C573 1.264 1_556 S
O557 Eu510 2.339 . S
O557 C573 1.254 . S
O558 Eu510 2.563 . S
O558 C566 1.235 . S
O559 Eu510 2.419 . S
O559 C574 1.249 . S
O560 Eu521 2.558 . S
O560 C585 1.257 . S
O561 Eu510 2.380 . S
O561 Eu521 2.612 1_554 S
O561 C577 1.276 1_554 S
O562 Eu510 2.432 . S
O562 C584 1.264 1_554 S
O563 Eu521 2.339 . S
O563 C584 1.254 . S
O564 Eu521 2.563 . S
O564 C577 1.235 . S
O565 Eu521 2.419 . S
O565 C585 1.249 . S
C566 O555 1.276 . S
C566 O558 1.235 . S
C567 C569 1.393 . S
C567 C571 1.395 . S
C567 C574 1.492 . S
C568 C569 1.392 . S
C568 C570 1.386 . S
C569 C567 1.393 . S
C569 C568 1.392 . S
C569 H586 0.930 . S
C570 C568 1.386 . S
C570 C572 1.395 . S
C570 H587 0.930 . S
C571 C567 1.395 . S
C571 C572 1.379 . S
C571 H588 0.930 . S
C572 C570 1.395 . S
C572 C571 1.379 . S
C572 H589 0.930 . S
C573 O556 1.264 1_554 S
C573 O557 1.254 . S
C574 Eu510 2.848 . S
C574 O554 1.257 . S
C574 O559 1.249 . S
C574 C567 1.492 . S
C575 H540 0.931 . S
C575 C553 1.420 . S
C575 C576 1.351 . S
C576 H538 0.930 . S
C576 C544 1.423 . S
C576 C575 1.351 . S
C577 O561 1.276 1_556 S
C577 O564 1.235 . S
C578 C579 1.393 . S
C578 C582 1.395 . S
C578 C585 1.492 . S
C579 C578 1.393 . S
C579 C580 1.392 . S
C579 H590 0.930 . S
C580 C579 1.392 . S
C580 C581 1.386 . S
C581 C580 1.386 . S
C581 C583 1.395 . S
C581 H591 0.930 . S
C582 C578 1.395 . S
C582 C583 1.379 . S
C582 H592 0.930 . S
C583 C581 1.395 . S
C583 C582 1.379 . S
C583 H593 0.930 . S
C584 O562 1.264 1_556 S
C584 O563 1.254 . S
C585 Eu521 2.848 . S
C585 O560 1.257 . S
C585 O565 1.249 . S
C585 C578 1.492 . S
H586 C569 0.930 . S
H587 C570 0.930 . S
H588 C571 0.930 . S
H589 C572 0.930 . S
H590 C579 0.930 . S
H591 C581 0.930 . S
H592 C582 0.930 . S
H593 C583 0.930 . S
Eu594 N625 2.657 1_455 S
Eu594 N632 2.609 . S
Eu594 O638 2.558 . S
Eu594 O639 2.612 . S
Eu594 O641 2.339 . S
Eu594 O642 2.563 . S
Eu594 O643 2.419 . S
Eu594 O645 2.380 . S
Eu594 O646 2.432 . S
Eu594 C658 2.848 . S
C595 C598 1.429 . S
C595 C599 1.411 . S
C595 N602 1.377 . S
C596 C598 1.420 . S
C596 C600 1.423 . S
C596 C608 1.392 . S
C597 C599 1.420 . S
C597 C600 1.351 . S
C597 H620 0.931 . S
C598 C595 1.429 . S
C598 C596 1.420 . S
C598 N606 1.362 . S
C599 C595 1.411 . S
C599 C597 1.420 . S
C599 C604 1.395 . S
C600 C596 1.423 . S
C600 C597 1.351 . S
C600 H612 0.930 . S
C601 C603 1.400 . S
C601 C604 1.386 . S
C601 H613 0.930 . S
N602 C595 1.377 . S
N602 C603 1.321 . S
N602 Eu605 2.609 . S
C603 C601 1.400 . S
C603 N602 1.321 . S
C603 H610 0.930 . S
C604 C599 1.395 . S
C604 C601 1.386 . S
C604 H623 0.930 . S
Eu605 N602 2.609 . S
Eu605 N606 2.657 . S
Eu605 O639 2.380 . S
Eu605 O640 2.432 . S
Eu605 O644 2.558 . S
Eu605 O645 2.612 . S
Eu605 O647 2.339 . S
Eu605 O648 2.563 . S
Eu605 O649 2.419 . S
Eu605 C669 2.848 . S
N606 C598 1.362 . S
N606 Eu605 2.657 . S
N606 C607 1.334 . S
C607 N606 1.334 . S
C607 C609 1.413 . S
C607 H614 0.929 . S
C608 C596 1.392 . S
C608 C609 1.367 . S
C608 H616 0.930 . S
C609 C607 1.413 . S
C609 C608 1.367 . S
C609 H611 0.930 . S
H610 C603 0.930 . S
H611 C609 0.930 . S
H612 C600 0.930 . S
H613 C601 0.930 . S
H614 C607 0.929 . S
H615 C629 0.930 . S
H616 C608 0.930 . S
H617 C635 0.930 . S
H618 C626 0.929 . S
H619 C633 0.930 . S
H620 C597 0.931 . S
H621 C627 0.930 . S
H622 C660 0.930 . S
H623 C604 0.930 . S
H624 C659 0.931 . S
N625 Eu594 2.657 1_655 S
N625 C626 1.334 . S
N625 C630 1.362 . S
C626 H618 0.929 . S
C626 N625 1.334 . S
C626 C629 1.413 . S
C627 H621 0.930 . S
C627 C628 1.392 . S
C627 C629 1.367 . S
C628 C627 1.392 . S
C628 C630 1.420 . S
C628 C660 1.423 . S
C629 H615 0.930 . S
C629 C626 1.413 . S
C629 C627 1.367 . S
C630 N625 1.362 . S
C630 C628 1.420 . S
C630 C634 1.429 . S
H631 C636 0.930 . S
N632 Eu594 2.609 . S
N632 C634 1.377 1_455 S
N632 C635 1.321 . S
C633 H619 0.930 . S
C633 C635 1.400 . S
C633 C636 1.386 1_455 S
C634 C630 1.429 . S
C634 N632 1.377 1_655 S
C634 C637 1.411 . S
C635 H617 0.930 . S
C635 N632 1.321 . S
C635 C633 1.400 . S
C636 H631 0.930 . S
C636 C633 1.386 1_655 S
C636 C637 1.395 . S
C637 C634 1.411 . S
C637 C636 1.395 . S
C637 C659 1.420 . S
O638 Eu594 2.558 . S
O638 C658 1.257 . S
O639 Eu594 2.612 . S
O639 Eu605 2.380 . S
O639 C650 1.276 . S
O640 Eu605 2.432 . S
O640 C657 1.264 . S
O641 Eu594 2.339 . S
O641 C657 1.254 . S
O642 Eu594 2.563 . S
O642 C650 1.235 . S
O643 Eu594 2.419 . S
O643 C658 1.249 . S
O644 Eu605 2.558 . S
O644 C669 1.257 . S
O645 Eu594 2.380 . S
O645 Eu605 2.612 . S
O645 C661 1.276 . S
O646 Eu594 2.432 . S
O646 C668 1.264 . S
O647 Eu605 2.339 . S
O647 C668 1.254 . S
O648 Eu605 2.563 . S
O648 C661 1.235 . S
O649 Eu605 2.419 . S
O649 C669 1.249 . S
C650 O639 1.276 . S
C650 O642 1.235 . S
C651 C653 1.393 . S
C651 C655 1.395 . S
C651 C658 1.492 . S
C652 C653 1.392 . S
C652 C654 1.386 . S
C653 C651 1.393 . S
C653 C652 1.392 . S
C653 H670 0.930 . S
C654 C652 1.386 . S
C654 C656 1.395 . S
C654 H671 0.930 . S
C655 C651 1.395 . S
C655 C656 1.379 . S
C655 H672 0.930 . S
C656 C654 1.395 . S
C656 C655 1.379 . S
C656 H673 0.930 . S
C657 O640 1.264 . S
C657 O641 1.254 . S
C658 Eu594 2.848 . S
C658 O638 1.257 . S
C658 O643 1.249 . S
C658 C651 1.492 . S
C659 H624 0.931 . S
C659 C637 1.420 . S
C659 C660 1.351 . S
C660 H622 0.930 . S
C660 C628 1.423 . S
C660 C659 1.351 . S
C661 O645 1.276 . S
C661 O648 1.235 . S
C662 C663 1.393 . S
C662 C666 1.395 . S
C662 C669 1.492 . S
C663 C662 1.393 . S
C663 C664 1.392 . S
C663 H674 0.930 . S
C664 C663 1.392 . S
C664 C665 1.386 . S
C665 C664 1.386 . S
C665 C667 1.395 . S
C665 H675 0.930 . S
C666 C662 1.395 . S
C666 C667 1.379 . S
C666 H676 0.930 . S
C667 C665 1.395 . S
C667 C666 1.379 . S
C667 H677 0.930 . S
C668 O646 1.264 . S
C668 O647 1.254 . S
C669 Eu605 2.848 . S
C669 O644 1.257 . S
C669 O649 1.249 . S
C669 C662 1.492 . S
H670 C653 0.930 . S
H671 C654 0.930 . S
H672 C655 0.930 . S
H673 C656 0.930 . S
H674 C663 0.930 . S
H675 C665 0.930 . S
H676 C666 0.930 . S
H677 C667 0.930 . S
Eu678 N709 2.657 . S
Eu678 N716 2.609 . S
Eu678 O722 2.558 . S
Eu678 O723 2.612 . S
Eu678 O725 2.339 . S
Eu678 O726 2.563 . S
Eu678 O727 2.419 . S
Eu678 O729 2.380 . S
Eu678 O730 2.432 . S
Eu678 C742 2.848 . S
C679 C682 1.429 . S
C679 C683 1.411 . S
C679 N686 1.377 . S
C680 C682 1.420 . S
C680 C684 1.423 . S
C680 C692 1.392 . S
C681 C683 1.420 . S
C681 C684 1.351 . S
C681 H704 0.931 . S
C682 C679 1.429 . S
C682 C680 1.420 . S
C682 N690 1.362 . S
C683 C679 1.411 . S
C683 C681 1.420 . S
C683 C688 1.395 . S
C684 C680 1.423 . S
C684 C681 1.351 . S
C684 H696 0.930 . S
C685 C687 1.400 . S
C685 C688 1.386 . S
C685 H697 0.930 . S
N686 C679 1.377 . S
N686 C687 1.321 . S
N686 Eu689 2.609 . S
C687 C685 1.400 . S
C687 N686 1.321 . S
C687 H694 0.930 . S
C688 C683 1.395 . S
C688 C685 1.386 . S
C688 H707 0.930 . S
Eu689 N686 2.609 . S
Eu689 N690 2.657 . S
Eu689 O723 2.380 . S
Eu689 O724 2.432 . S
Eu689 O728 2.558 . S
Eu689 O729 2.612 . S
Eu689 O731 2.339 . S
Eu689 O732 2.563 . S
Eu689 O733 2.419 . S
Eu689 C753 2.848 . S
N690 C682 1.362 . S
N690 Eu689 2.657 . S
N690 C691 1.334 . S
C691 N690 1.334 . S
C691 C693 1.413 . S
C691 H698 0.929 . S
C692 C680 1.392 . S
C692 C693 1.367 . S
C692 H700 0.930 . S
C693 C691 1.413 . S
C693 C692 1.367 . S
C693 H695 0.930 . S
H694 C687 0.930 . S
H695 C693 0.930 . S
H696 C684 0.930 . S
H697 C685 0.930 . S
H698 C691 0.929 . S
H699 C713 0.930 . S
H700 C692 0.930 . S
H701 C719 0.930 . S
H702 C710 0.929 . S
H703 C717 0.930 . S
H704 C681 0.931 . S
H705 C711 0.930 . S
H706 C744 0.930 . S
H707 C688 0.930 . S
H708 C743 0.931 . S
N709 Eu678 2.657 . S
N709 C710 1.334 . S
N709 C714 1.362 . S
C710 H702 0.929 . S
C710 N709 1.334 . S
C710 C713 1.413 . S
C711 H705 0.930 . S
C711 C712 1.392 . S
C711 C713 1.367 . S
C712 C711 1.392 . S
C712 C714 1.420 . S
C712 C744 1.423 . S
C713 H699 0.930 . S
C713 C710 1.413 . S
C713 C711 1.367 . S
C714 N709 1.362 . S
C714 C712 1.420 . S
C714 C718 1.429 . S
H715 C720 0.930 . S
N716 Eu678 2.609 . S
N716 C718 1.377 . S
N716 C719 1.321 . S
C717 H703 0.930 . S
C717 C719 1.400 . S
C717 C720 1.386 . S
C718 C714 1.429 . S
C718 N716 1.377 . S
C718 C721 1.411 . S
C719 H701 0.930 . S
C719 N716 1.321 . S
C719 C717 1.400 . S
C720 H715 0.930 . S
C720 C717 1.386 . S
C720 C721 1.395 . S
C721 C718 1.411 . S
C721 C720 1.395 . S
C721 C743 1.420 . S
O722 Eu678 2.558 . S
O722 C742 1.257 . S
O723 Eu678 2.612 . S
O723 Eu689 2.380 . S
O723 C734 1.276 . S
O724 Eu689 2.432 . S
O724 C741 1.264 . S
O725 Eu678 2.339 . S
O725 C741 1.254 . S
O726 Eu678 2.563 . S
O726 C734 1.235 . S
O727 Eu678 2.419 . S
O727 C742 1.249 . S
O728 Eu689 2.558 . S
O728 C753 1.257 . S
O729 Eu678 2.380 . S
O729 Eu689 2.612 . S
O729 C745 1.276 . S
O730 Eu678 2.432 . S
O730 C752 1.264 . S
O731 Eu689 2.339 . S
O731 C752 1.254 . S
O732 Eu689 2.563 . S
O732 C745 1.235 . S
O733 Eu689 2.419 . S
O733 C753 1.249 . S
C734 O723 1.276 . S
C734 O726 1.235 . S
C735 C737 1.393 . S
C735 C739 1.395 . S
C735 C742 1.492 . S
C736 C737 1.392 . S
C736 C738 1.386 . S
C737 C735 1.393 . S
C737 C736 1.392 . S
C737 H754 0.930 . S
C738 C736 1.386 . S
C738 C740 1.395 . S
C738 H755 0.930 . S
C739 C735 1.395 . S
C739 C740 1.379 . S
C739 H756 0.930 . S
C740 C738 1.395 . S
C740 C739 1.379 . S
C740 H757 0.930 . S
C741 O724 1.264 . S
C741 O725 1.254 . S
C742 Eu678 2.848 . S
C742 O722 1.257 . S
C742 O727 1.249 . S
C742 C735 1.492 . S
C743 H708 0.931 . S
C743 C721 1.420 . S
C743 C744 1.351 . S
C744 H706 0.930 . S
C744 C712 1.423 . S
C744 C743 1.351 . S
C745 O729 1.276 . S
C745 O732 1.235 . S
C746 C747 1.393 . S
C746 C750 1.395 . S
C746 C753 1.492 . S
C747 C746 1.393 . S
C747 C748 1.392 . S
C747 H758 0.930 . S
C748 C747 1.392 . S
C748 C749 1.386 . S
C749 C748 1.386 . S
C749 C751 1.395 . S
C749 H759 0.930 . S
C750 C746 1.395 . S
C750 C751 1.379 . S
C750 H760 0.930 . S
C751 C749 1.395 . S
C751 C750 1.379 . S
C751 H761 0.930 . S
C752 O730 1.264 . S
C752 O731 1.254 . S
C753 Eu689 2.848 . S
C753 O728 1.257 . S
C753 O733 1.249 . S
C753 C746 1.492 . S
H754 C737 0.930 . S
H755 C738 0.930 . S
H756 C739 0.930 . S
H757 C740 0.930 . S
H758 C747 0.930 . S
H759 C749 0.930 . S
H760 C750 0.930 . S
H761 C751 0.930 . S
Eu762 N793 2.657 . S
Eu762 N800 2.609 . S
Eu762 O806 2.558 . S
Eu762 O807 2.612 . S
Eu762 O809 2.339 . S
Eu762 O810 2.563 . S
Eu762 O811 2.419 . S
Eu762 O813 2.380 . S
Eu762 O814 2.432 . S
Eu762 C826 2.848 . S
C763 C766 1.429 . S
C763 C767 1.411 . S
C763 N770 1.377 . S
C764 C766 1.420 . S
C764 C768 1.423 1_455 S
C764 C776 1.392 1_455 S
C765 C767 1.420 . S
C765 C768 1.351 1_455 S
C765 H788 0.931 . S
C766 C763 1.429 . S
C766 C764 1.420 . S
C766 N774 1.362 . S
C767 C763 1.411 . S
C767 C765 1.420 . S
C767 C772 1.395 1_565 S
C768 C764 1.423 1_655 S
C768 C765 1.351 1_655 S
C768 H780 0.930 . S
C769 C771 1.400 . S
C769 C772 1.386 . S
C769 H781 0.930 . S
N770 C763 1.377 . S
N770 C771 1.321 1_565 S
N770 Eu773 2.609 . S
C771 C769 1.400 . S
C771 N770 1.321 1_545 S
C771 H778 0.930 . S
C772 C767 1.395 1_545 S
C772 C769 1.386 . S
C772 H791 0.930 . S
Eu773 N770 2.609 . S
Eu773 N774 2.657 . S
Eu773 O807 2.380 . S
Eu773 O808 2.432 1_565 S
Eu773 O812 2.558 . S
Eu773 O813 2.612 . S
Eu773 O815 2.339 . S
Eu773 O816 2.563 . S
Eu773 O817 2.419 . S
Eu773 C837 2.848 . S
N774 C766 1.362 . S
N774 Eu773 2.657 . S
N774 C775 1.334 . S
C775 N774 1.334 . S
C775 C777 1.413 . S
C775 H782 0.929 . S
C776 C764 1.392 1_655 S
C776 C777 1.367 1_655 S
C776 H784 0.930 . S
C777 C775 1.413 . S
C777 C776 1.367 1_455 S
C777 H779 0.930 1_455 S
H778 C771 0.930 . S
H779 C777 0.930 1_655 S
H780 C768 0.930 . S
H781 C769 0.930 . S
H782 C775 0.929 . S
H783 C797 0.930 . S
H784 C776 0.930 . S
H785 C803 0.930 . S
H786 C794 0.929 . S
H787 C801 0.930 . S
H788 C765 0.931 . S
H789 C795 0.930 . S
H790 C828 0.930 . S
H791 C772 0.930 . S
H792 C827 0.931 . S
N793 Eu762 2.657 . S
N793 C794 1.334 1_565 S
N793 C798 1.362 . S
C794 H786 0.929 . S
C794 N793 1.334 1_545 S
C794 C797 1.413 . S
C795 H789 0.930 . S
C795 C796 1.392 1_545 S
C795 C797 1.367 . S
C796 C795 1.392 1_565 S
C796 C798 1.420 . S
C796 C828 1.423 . S
C797 H783 0.930 . S
C797 C794 1.413 . S
C797 C795 1.367 . S
C798 N793 1.362 . S
C798 C796 1.420 . S
C798 C802 1.429 . S
H799 C804 0.930 . S
N800 Eu762 2.609 . S
N800 C802 1.377 . S
N800 C803 1.321 . S
C801 H787 0.930 . S
C801 C803 1.400 . S
C801 C804 1.386 . S
C802 C798 1.429 . S
C802 N800 1.377 . S
C802 C805 1.411 . S
C803 H785 0.930 . S
C803 N800 1.321 . S
C803 C801 1.400 . S
C804 H799 0.930 . S
C804 C801 1.386 . S
C804 C805 1.395 . S
C805 C802 1.411 . S
C805 C804 1.395 . S
C805 C827 1.420 . S
O806 Eu762 2.558 . S
O806 C826 1.257 . S
O807 Eu762 2.612 . S
O807 Eu773 2.380 . S
O807 C818 1.276 . S
O808 Eu773 2.432 1_545 S
O808 C825 1.264 . S
O809 Eu762 2.339 . S
O809 C825 1.254 1_565 S
O810 Eu762 2.563 . S
O810 C818 1.235 . S
O811 Eu762 2.419 . S
O811 C826 1.249 . S
O812 Eu773 2.558 . S
O812 C837 1.257 . S
O813 Eu762 2.380 . S
O813 Eu773 2.612 . S
O813 C829 1.276 . S
O814 Eu762 2.432 . S
O814 C836 1.264 . S
O815 Eu773 2.339 . S
O815 C836 1.254 . S
O816 Eu773 2.563 . S
O816 C829 1.235 . S
O817 Eu773 2.419 . S
O817 C837 1.249 . S
C818 O807 1.276 . S
C818 O810 1.235 . S
C819 C821 1.393 . S
C819 C823 1.395 . S
C819 C826 1.492 . S
C820 C821 1.392 . S
C820 C822 1.386 . S
C821 C819 1.393 . S
C821 C820 1.392 . S
C821 H838 0.930 . S
C822 C820 1.386 . S
C822 C824 1.395 . S
C822 H839 0.930 . S
C823 C819 1.395 . S
C823 C824 1.379 . S
C823 H840 0.930 . S
C824 C822 1.395 . S
C824 C823 1.379 . S
C824 H841 0.930 . S
C825 O808 1.264 . S
C825 O809 1.254 1_545 S
C826 Eu762 2.848 . S
C826 O806 1.257 . S
C826 O811 1.249 . S
C826 C819 1.492 . S
C827 H792 0.931 . S
C827 C805 1.420 . S
C827 C828 1.351 . S
C828 H790 0.930 . S
C828 C796 1.423 . S
C828 C827 1.351 . S
C829 O813 1.276 . S
C829 O816 1.235 . S
C830 C831 1.393 . S
C830 C834 1.395 . S
C830 C837 1.492 . S
C831 C830 1.393 . S
C831 C832 1.392 . S
C831 H842 0.930 . S
C832 C831 1.392 . S
C832 C833 1.386 . S
C833 C832 1.386 . S
C833 C835 1.395 . S
C833 H843 0.930 . S
C834 C830 1.395 . S
C834 C835 1.379 . S
C834 H844 0.930 . S
C835 C833 1.395 . S
C835 C834 1.379 . S
C835 H845 0.930 . S
C836 O814 1.264 . S
C836 O815 1.254 . S
C837 Eu773 2.848 . S
C837 O812 1.257 . S
C837 O817 1.249 . S
C837 C830 1.492 . S
H838 C821 0.930 . S
H839 C822 0.930 . S
H840 C823 0.930 . S
H841 C824 0.930 . S
H842 C831 0.930 . S
H843 C833 0.930 . S
H844 C834 0.930 . S
H845 C835 0.930 . S
Eu846 N877 2.657 . S
Eu846 N884 2.609 . S
Eu846 O890 2.558 . S
Eu846 O891 2.612 . S
Eu846 O893 2.339 . S
Eu846 O894 2.563 . S
Eu846 O895 2.419 . S
Eu846 O897 2.380 . S
Eu846 O898 2.432 . S
Eu846 C910 2.848 . S
C847 C850 1.429 . S
C847 C851 1.411 . S
C847 N854 1.377 . S
C848 C850 1.420 . S
C848 C852 1.423 1_655 S
C848 C860 1.392 1_655 S
C849 C851 1.420 . S
C849 C852 1.351 1_655 S
C849 H872 0.931 . S
C850 C847 1.429 . S
C850 C848 1.420 . S
C850 N858 1.362 . S
C851 C847 1.411 . S
C851 C849 1.420 . S
C851 C856 1.395 . S
C852 C848 1.423 1_455 S
C852 C849 1.351 1_455 S
C852 H864 0.930 . S
C853 C855 1.400 . S
C853 C856 1.386 . S
C853 H865 0.930 . S
N854 C847 1.377 . S
N854 C855 1.321 . S
N854 Eu857 2.609 . S
C855 C853 1.400 . S
C855 N854 1.321 . S
C855 H862 0.930 . S
C856 C851 1.395 . S
C856 C853 1.386 . S
C856 H875 0.930 . S
Eu857 N854 2.609 . S
Eu857 N858 2.657 . S
Eu857 O891 2.380 . S
Eu857 O892 2.432 . S
Eu857 O896 2.558 . S
Eu857 O897 2.612 . S
Eu857 O899 2.339 . S
Eu857 O900 2.563 . S
Eu857 O901 2.419 . S
Eu857 C921 2.848 . S
N858 C850 1.362 . S
N858 Eu857 2.657 . S
N858 C859 1.334 . S
C859 N858 1.334 . S
C859 C861 1.413 . S
C859 H866 0.929 . S
C860 C848 1.392 1_455 S
C860 C861 1.367 1_455 S
C860 H868 0.930 . S
C861 C859 1.413 . S
C861 C860 1.367 1_655 S
C861 H863 0.930 1_655 S
H862 C855 0.930 . S
H863 C861 0.930 1_455 S
H864 C852 0.930 . S
H865 C853 0.930 . S
H866 C859 0.929 . S
H867 C881 0.930 . S
H868 C860 0.930 . S
H869 C887 0.930 . S
H870 C878 0.929 . S
H871 C885 0.930 . S
H872 C849 0.931 . S
H873 C879 0.930 . S
H874 C912 0.930 . S
H875 C856 0.930 . S
H876 C911 0.931 . S
N877 Eu846 2.657 . S
N877 C878 1.334 . S
N877 C882 1.362 . S
C878 H870 0.929 . S
C878 N877 1.334 . S
C878 C881 1.413 . S
C879 H873 0.930 . S
C879 C880 1.392 . S
C879 C881 1.367 . S
C880 C879 1.392 . S
C880 C882 1.420 . S
C880 C912 1.423 . S
C881 H867 0.930 . S
C881 C878 1.413 . S
C881 C879 1.367 . S
C882 N877 1.362 . S
C882 C880 1.420 . S
C882 C886 1.429 . S
H883 C888 0.930 . S
N884 Eu846 2.609 . S
N884 C886 1.377 . S
N884 C887 1.321 . S
C885 H871 0.930 . S
C885 C887 1.400 . S
C885 C888 1.386 . S
C886 C882 1.429 . S
C886 N884 1.377 . S
C886 C889 1.411 . S
C887 H869 0.930 . S
C887 N884 1.321 . S
C887 C885 1.400 . S
C888 H883 0.930 . S
C888 C885 1.386 . S
C888 C889 1.395 . S
C889 C886 1.411 . S
C889 C888 1.395 . S
C889 C911 1.420 . S
O890 Eu846 2.558 . S
O890 C910 1.257 . S
O891 Eu846 2.612 . S
O891 Eu857 2.380 . S
O891 C902 1.276 . S
O892 Eu857 2.432 . S
O892 C909 1.264 . S
O893 Eu846 2.339 . S
O893 C909 1.254 . S
O894 Eu846 2.563 . S
O894 C902 1.235 . S
O895 Eu846 2.419 . S
O895 C910 1.249 . S
O896 Eu857 2.558 . S
O896 C921 1.257 . S
O897 Eu846 2.380 . S
O897 Eu857 2.612 . S
O897 C913 1.276 . S
O898 Eu846 2.432 . S
O898 C920 1.264 . S
O899 Eu857 2.339 . S
O899 C920 1.254 . S
O900 Eu857 2.563 . S
O900 C913 1.235 . S
O901 Eu857 2.419 . S
O901 C921 1.249 . S
C902 O891 1.276 . S
C902 O894 1.235 . S
C903 C905 1.393 . S
C903 C907 1.395 . S
C903 C910 1.492 . S
C904 C905 1.392 . S
C904 C906 1.386 . S
C905 C903 1.393 . S
C905 C904 1.392 . S
C905 H922 0.930 . S
C906 C904 1.386 . S
C906 C908 1.395 . S
C906 H923 0.930 . S
C907 C903 1.395 . S
C907 C908 1.379 . S
C907 H924 0.930 . S
C908 C906 1.395 . S
C908 C907 1.379 . S
C908 H925 0.930 . S
C909 O892 1.264 . S
C909 O893 1.254 . S
C910 Eu846 2.848 . S
C910 O890 1.257 . S
C910 O895 1.249 . S
C910 C903 1.492 . S
C911 H876 0.931 . S
C911 C889 1.420 . S
C911 C912 1.351 . S
C912 H874 0.930 . S
C912 C880 1.423 . S
C912 C911 1.351 . S
C913 O897 1.276 . S
C913 O900 1.235 . S
C914 C915 1.393 . S
C914 C918 1.395 . S
C914 C921 1.492 . S
C915 C914 1.393 . S
C915 C916 1.392 . S
C915 H926 0.930 . S
C916 C915 1.392 . S
C916 C917 1.386 . S
C917 C916 1.386 . S
C917 C919 1.395 . S
C917 H927 0.930 . S
C918 C914 1.395 . S
C918 C919 1.379 . S
C918 H928 0.930 . S
C919 C917 1.395 . S
C919 C918 1.379 . S
C919 H929 0.930 . S
C920 O898 1.264 . S
C920 O899 1.254 . S
C921 Eu857 2.848 . S
C921 O896 1.257 . S
C921 O901 1.249 . S
C921 C914 1.492 . S
H922 C905 0.930 . S
H923 C906 0.930 . S
H924 C907 0.930 . S
H925 C908 0.930 . S
H926 C915 0.930 . S
H927 C917 0.930 . S
H928 C918 0.930 . S
H929 C919 0.930 . S
Eu930 N961 2.657 . S
Eu930 N968 2.609 . S
Eu930 O974 2.558 . S
Eu930 O975 2.612 . S
Eu930 O977 2.339 . S
Eu930 O978 2.563 . S
Eu930 O979 2.419 . S
Eu930 O981 2.380 . S
Eu930 O982 2.432 . S
Eu930 C994 2.848 . S
C931 C934 1.429 . S
C931 C935 1.411 . S
C931 N938 1.377 . S
C932 C934 1.420 . S
C932 C936 1.423 . S
C932 C944 1.392 . S
C933 C935 1.420 . S
C933 C936 1.351 . S
C933 H956 0.931 . S
C934 C931 1.429 . S
C934 C932 1.420 . S
C934 N942 1.362 . S
C935 C931 1.411 . S
C935 C933 1.420 . S
C935 C940 1.395 1_545 S
C936 C932 1.423 . S
C936 C933 1.351 . S
C936 H948 0.930 . S
C937 C939 1.400 . S
C937 C940 1.386 . S
C937 H949 0.930 . S
N938 C931 1.377 . S
N938 C939 1.321 1_545 S
N938 Eu941 2.609 . S
C939 C937 1.400 . S
C939 N938 1.321 1_565 S
C939 H946 0.930 . S
C940 C935 1.395 1_565 S
C940 C937 1.386 . S
C940 H959 0.930 . S
Eu941 N938 2.609 . S
Eu941 N942 2.657 . S
Eu941 O975 2.380 . S
Eu941 O976 2.432 . S
Eu941 O980 2.558 . S
Eu941 O981 2.612 . S
Eu941 O983 2.339 . S
Eu941 O984 2.563 . S
Eu941 O985 2.419 . S
Eu941 C1005 2.848 . S
N942 C934 1.362 . S
N942 Eu941 2.657 . S
N942 C943 1.334 . S
C943 N942 1.334 . S
C943 C945 1.413 . S
C943 H950 0.929 . S
C944 C932 1.392 . S
C944 C945 1.367 . S
C944 H952 0.930 . S
C945 C943 1.413 . S
C945 C944 1.367 . S
C945 H947 0.930 . S
H946 C939 0.930 . S
H947 C945 0.930 . S
H948 C936 0.930 . S
H949 C937 0.930 . S
H950 C943 0.929 . S
H951 C965 0.930 . S
H952 C944 0.930 . S
H953 C971 0.930 . S
H954 C962 0.929 1_565 S
H955 C969 0.930 . S
H956 C933 0.931 . S
H957 C963 0.930 . S
H958 C996 0.930 . S
H959 C940 0.930 . S
H960 C995 0.931 . S
N961 Eu930 2.657 . S
N961 C962 1.334 . S
N961 C966 1.362 . S
C962 H954 0.929 1_545 S
C962 N961 1.334 . S
C962 C965 1.413 1_545 S
C963 H957 0.930 . S
C963 C964 1.392 1_565 S
C963 C965 1.367 . S
C964 C963 1.392 1_545 S
C964 C966 1.420 . S
C964 C996 1.423 . S
C965 H951 0.930 . S
C965 C962 1.413 1_565 S
C965 C963 1.367 . S
C966 N961 1.362 . S
C966 C964 1.420 . S
C966 C970 1.429 . S
H967 C972 0.930 . S
N968 Eu930 2.609 . S
N968 C970 1.377 . S
N968 C971 1.321 . S
C969 H955 0.930 . S
C969 C971 1.400 . S
C969 C972 1.386 . S
C970 C966 1.429 . S
C970 N968 1.377 . S
C970 C973 1.411 . S
C971 H953 0.930 . S
C971 N968 1.321 . S
C971 C969 1.400 . S
C972 H967 0.930 . S
C972 C969 1.386 . S
C972 C973 1.395 . S
C973 C970 1.411 . S
C973 C972 1.395 . S
C973 C995 1.420 . S
O974 Eu930 2.558 . S
O974 C994 1.257 . S
O975 Eu930 2.612 . S
O975 Eu941 2.380 . S
O975 C986 1.276 . S
O976 Eu941 2.432 . S
O976 C993 1.264 1_545 S
O977 Eu930 2.339 . S
O977 C993 1.254 1_545 S
O978 Eu930 2.563 . S
O978 C986 1.235 . S
O979 Eu930 2.419 . S
O979 C994 1.249 . S
O980 Eu941 2.558 . S
O980 C1005 1.257 . S
O981 Eu930 2.380 . S
O981 Eu941 2.612 . S
O981 C997 1.276 . S
O982 Eu930 2.432 . S
O982 C1004 1.264 . S
O983 Eu941 2.339 . S
O983 C1004 1.254 . S
O984 Eu941 2.563 . S
O984 C997 1.235 . S
O985 Eu941 2.419 . S
O985 C1005 1.249 . S
C986 O975 1.276 . S
C986 O978 1.235 . S
C987 C989 1.393 . S
C987 C991 1.395 . S
C987 C994 1.492 . S
C988 C989 1.392 . S
C988 C990 1.386 . S
C989 C987 1.393 . S
C989 C988 1.392 . S
C989 H1006 0.930 . S
C990 C988 1.386 . S
C990 C992 1.395 . S
C990 H1007 0.930 . S
C991 C987 1.395 . S
C991 C992 1.379 . S
C991 H1008 0.930 . S
C992 C990 1.395 . S
C992 C991 1.379 . S
C992 H1009 0.930 . S
C993 O976 1.264 1_565 S
C993 O977 1.254 1_565 S
C994 Eu930 2.848 . S
C994 O974 1.257 . S
C994 O979 1.249 . S
C994 C987 1.492 . S
C995 H960 0.931 . S
C995 C973 1.420 . S
C995 C996 1.351 . S
C996 H958 0.930 . S
C996 C964 1.423 . S
C996 C995 1.351 . S
C997 O981 1.276 . S
C997 O984 1.235 . S
C998 C999 1.393 . S
C998 C1002 1.395 . S
C998 C1005 1.492 . S
C999 C998 1.393 . S
C999 C1000 1.392 . S
C999 H1010 0.930 . S
C1000 C999 1.392 . S
C1000 C1001 1.386 . S
C1001 C1000 1.386 . S
C1001 C1003 1.395 . S
C1001 H1011 0.930 . S
C1002 C998 1.395 . S
C1002 C1003 1.379 . S
C1002 H1012 0.930 . S
C1003 C1001 1.395 . S
C1003 C1002 1.379 . S
C1003 H1013 0.930 . S
C1004 O982 1.264 . S
C1004 O983 1.254 . S
C1005 Eu941 2.848 . S
C1005 O980 1.257 . S
C1005 O985 1.249 . S
C1005 C998 1.492 . S
H1006 C989 0.930 . S
H1007 C990 0.930 . S
H1008 C991 0.930 . S
H1009 C992 0.930 . S
H1010 C999 0.930 . S
H1011 C1001 0.930 . S
H1012 C1002 0.930 . S
H1013 C1003 0.930 . S
Eu1014 N1045 2.657 1_655 S
Eu1014 N1052 2.609 . S
Eu1014 O1058 2.558 . S
Eu1014 O1059 2.612 . S
Eu1014 O1061 2.339 . S
Eu1014 O1062 2.563 . S
Eu1014 O1063 2.419 . S
Eu1014 O1065 2.380 . S
Eu1014 O1066 2.432 . S
Eu1014 C1078 2.848 . S
C1015 C1018 1.429 . S
C1015 C1019 1.411 . S
C1015 N1022 1.377 . S
C1016 C1018 1.420 . S
C1016 C1020 1.423 . S
C1016 C1028 1.392 . S
C1017 C1019 1.420 . S
C1017 C1020 1.351 . S
C1017 H1040 0.931 . S
C1018 C1015 1.429 . S
C1018 C1016 1.420 . S
C1018 N1026 1.362 . S
C1019 C1015 1.411 . S
C1019 C1017 1.420 . S
C1019 C1024 1.395 . S
C1020 C1016 1.423 . S
C1020 C1017 1.351 . S
C1020 H1032 0.930 . S
C1021 C1023 1.400 . S
C1021 C1024 1.386 . S
C1021 H1033 0.930 . S
N1022 C1015 1.377 . S
N1022 C1023 1.321 . S
N1022 Eu1025 2.609 . S
C1023 C1021 1.400 . S
C1023 N1022 1.321 . S
C1023 H1030 0.930 . S
C1024 C1019 1.395 . S
C1024 C1021 1.386 . S
C1024 H1043 0.930 . S
Eu1025 N1022 2.609 . S
Eu1025 N1026 2.657 . S
Eu1025 O1059 2.380 . S
Eu1025 O1060 2.432 . S
Eu1025 O1064 2.558 . S
Eu1025 O1065 2.612 . S
Eu1025 O1067 2.339 . S
Eu1025 O1068 2.563 . S
Eu1025 O1069 2.419 . S
Eu1025 C1089 2.848 . S
N1026 C1018 1.362 . S
N1026 Eu1025 2.657 . S
N1026 C1027 1.334 . S
C1027 N1026 1.334 . S
C1027 C1029 1.413 . S
C1027 H1034 0.929 . S
C1028 C1016 1.392 . S
C1028 C1029 1.367 . S
C1028 H1036 0.930 . S
C1029 C1027 1.413 . S
C1029 C1028 1.367 . S
C1029 H1031 0.930 . S
H1030 C1023 0.930 . S
H1031 C1029 0.930 . S
H1032 C1020 0.930 . S
H1033 C1021 0.930 . S
H1034 C1027 0.929 . S
H1035 C1049 0.930 . S
H1036 C1028 0.930 . S
H1037 C1055 0.930 . S
H1038 C1046 0.929 . S
H1039 C1053 0.930 . S
H1040 C1017 0.931 . S
H1041 C1047 0.930 . S
H1042 C1080 0.930 . S
H1043 C1024 0.930 . S
H1044 C1079 0.931 . S
N1045 Eu1014 2.657 1_455 S
N1045 C1046 1.334 . S
N1045 C1050 1.362 . S
C1046 H1038 0.929 . S
C1046 N1045 1.334 . S
C1046 C1049 1.413 . S
C1047 H1041 0.930 . S
C1047 C1048 1.392 . S
C1047 C1049 1.367 . S
C1048 C1047 1.392 . S
C1048 C1050 1.420 . S
C1048 C1080 1.423 . S
C1049 H1035 0.930 . S
C1049 C1046 1.413 . S
C1049 C1047 1.367 . S
C1050 N1045 1.362 . S
C1050 C1048 1.420 . S
C1050 C1054 1.429 . S
H1051 C1056 0.930 . S
N1052 Eu1014 2.609 . S
N1052 C1054 1.377 1_655 S
N1052 C1055 1.321 . S
C1053 H1039 0.930 . S
C1053 C1055 1.400 . S
C1053 C1056 1.386 1_655 S
C1054 C1050 1.429 . S
C1054 N1052 1.377 1_455 S
C1054 C1057 1.411 . S
C1055 H1037 0.930 . S
C1055 N1052 1.321 . S
C1055 C1053 1.400 . S
C1056 H1051 0.930 . S
C1056 C1053 1.386 1_455 S
C1056 C1057 1.395 . S
C1057 C1054 1.411 . S
C1057 C1056 1.395 . S
C1057 C1079 1.420 . S
O1058 Eu1014 2.558 . S
O1058 C1078 1.257 . S
O1059 Eu1014 2.612 . S
O1059 Eu1025 2.380 . S
O1059 C1070 1.276 . S
O1060 Eu1025 2.432 . S
O1060 C1077 1.264 . S
O1061 Eu1014 2.339 . S
O1061 C1077 1.254 . S
O1062 Eu1014 2.563 . S
O1062 C1070 1.235 . S
O1063 Eu1014 2.419 . S
O1063 C1078 1.249 . S
O1064 Eu1025 2.558 . S
O1064 C1089 1.257 . S
O1065 Eu1014 2.380 . S
O1065 Eu1025 2.612 . S
O1065 C1081 1.276 . S
O1066 Eu1014 2.432 . S
O1066 C1088 1.264 . S
O1067 Eu1025 2.339 . S
O1067 C1088 1.254 . S
O1068 Eu1025 2.563 . S
O1068 C1081 1.235 . S
O1069 Eu1025 2.419 . S
O1069 C1089 1.249 . S
C1070 O1059 1.276 . S
C1070 O1062 1.235 . S
C1071 C1073 1.393 . S
C1071 C1075 1.395 . S
C1071 C1078 1.492 . S
C1072 C1073 1.392 . S
C1072 C1074 1.386 . S
C1073 C1071 1.393 . S
C1073 C1072 1.392 . S
C1073 H1090 0.930 . S
C1074 C1072 1.386 . S
C1074 C1076 1.395 . S
C1074 H1091 0.930 . S
C1075 C1071 1.395 . S
C1075 C1076 1.379 . S
C1075 H1092 0.930 . S
C1076 C1074 1.395 . S
C1076 C1075 1.379 . S
C1076 H1093 0.930 . S
C1077 O1060 1.264 . S
C1077 O1061 1.254 . S
C1078 Eu1014 2.848 . S
C1078 O1058 1.257 . S
C1078 O1063 1.249 . S
C1078 C1071 1.492 . S
C1079 H1044 0.931 . S
C1079 C1057 1.420 . S
C1079 C1080 1.351 . S
C1080 H1042 0.930 . S
C1080 C1048 1.423 . S
C1080 C1079 1.351 . S
C1081 O1065 1.276 . S
C1081 O1068 1.235 . S
C1082 C1083 1.393 . S
C1082 C1086 1.395 . S
C1082 C1089 1.492 . S
C1083 C1082 1.393 . S
C1083 C1084 1.392 . S
C1083 H1094 0.930 . S
C1084 C1083 1.392 . S
C1084 C1085 1.386 . S
C1085 C1084 1.386 . S
C1085 C1087 1.395 . S
C1085 H1095 0.930 . S
C1086 C1082 1.395 . S
C1086 C1087 1.379 . S
C1086 H1096 0.930 . S
C1087 C1085 1.395 . S
C1087 C1086 1.379 . S
C1087 H1097 0.930 . S
C1088 O1066 1.264 . S
C1088 O1067 1.254 . S
C1089 Eu1025 2.848 . S
C1089 O1064 1.257 . S
C1089 O1069 1.249 . S
C1089 C1082 1.492 . S
H1090 C1073 0.930 . S
H1091 C1074 0.930 . S
H1092 C1075 0.930 . S
H1093 C1076 0.930 . S
H1094 C1083 0.930 . S
H1095 C1085 0.930 . S
H1096 C1086 0.930 . S
H1097 C1087 0.930 . S
C253 C409 1.674 . S
C272 C493 1.772 . S
C234 C573 1.847 . S
C215 C489 1.921 . S
C577 C177 1.733 . S
C196 C405 1.832 . S
C398 C220 1.710 1_556 S
C482 C182 1.759 . S
C201 C584 1.523 1_554 S
C258 C500 1.504 . S
C277 C566 1.679 . S
C416 C239 1.451 . S
C661 C25 1.674 1_455 S
C44 C745 1.771 . S
C6 C825 1.847 . S
C329 C741 1.920 . S
C291 C829 1.732 . S
C310 C657 1.832 . S
C334 C650 1.710 . S
C296 C734 1.759 . S
C836 C315 1.523 . S
C30 C752 1.504 . S
C818 C49 1.679 . S
C11 C668 1.450 . S
C913 C139 1.674 . S
C158 C997 1.771 . S
C1077 C120 1.847 . S
C993 C101 1.921 . S
C1081 C63 1.733 1_655 S
C82 C909 1.832 . S
C106 C902 1.710 . S
C68 C986 1.759 . S
C1088 C87 1.523 . S
C144 C1004 1.504 . S
C163 C1070 1.679 . S
C125 C920 1.451 . S
C287 C412 1.862 . S
C496 C306 1.850 . S
C325 C568 1.561 . S
C116 C484 1.488 . S
C135 C580 1.770 . S
C400 C154 1.521 . S
C59 C664 1.862 . S
C78 C748 1.850 . S
C97 C820 1.561 . S
C230 C736 1.488 . S
C832 C249 1.770 . S
C268 C652 1.521 . S
C173 C916 1.862 . S
C192 C1000 1.850 . S
C1072 C211 1.561 . S
C2 C988 1.488 . S
C21 C1084 1.769 . S
C40 C904 1.521 . S
