# Generated by pormake.
# Topology zzz, (3,6)-cn, num edge types: 1
# Building blocks:
#     Node 0, Type 0, BuildingBlock: BELTOD_clean_linker_0, # of connection points: 3
#     Node 1, Type 0, BuildingBlock: BELTOD_clean_linker_0, # of connection points: 3
#     Node 2, Type 0, BuildingBlock: BELTOD_clean_linker_0, # of connection points: 3
#     Node 3, Type 0, BuildingBlock: BELTOD_clean_linker_0, # of connection points: 3
#     Node 4, Type 0, BuildingBlock: BELTOD_clean_linker_0, # of connection points: 3
#     Node 5, Type 0, BuildingBlock: BELTOD_clean_linker_0, # of connection points: 3
#     Node 6, Type 0, BuildingBlock: BELTOD_clean_linker_0, # of connection points: 3
#     Node 7, Type 0, BuildingBlock: BELTOD_clean_linker_0, # of connection points: 3
#     Node 8, Type 1, BuildingBlock: VOLQOD_clean_sbu_1, # of connection points: 6
#     Node 9, Type 1, BuildingBlock: VOLQOD_clean_sbu_1, # of connection points: 6
#     Node 10, Type 1, BuildingBlock: VOLQOD_clean_sbu_1, # of connection points: 6
#     Node 11, Type 1, BuildingBlock: VOLQOD_clean_sbu_1, # of connection points: 6
#     Edge 12, Type (0, 1), BuildingBlock: TEMPAE_clean_linker_10, # of connection points: 2
#     Edge 13, Type (0, 1), BuildingBlock: TEMPAE_clean_linker_10, # of connection points: 2
#     Edge 14, Type (0, 1), BuildingBlock: TEMPAE_clean_linker_10, # of connection points: 2
#     Edge 15, Type (0, 1), BuildingBlock: TEMPAE_clean_linker_10, # of connection points: 2
#     Edge 16, Type (0, 1), BuildingBlock: TEMPAE_clean_linker_10, # of connection points: 2
#     Edge 17, Type (0, 1), BuildingBlock: TEMPAE_clean_linker_10, # of connection points: 2
#     Edge 18, Type (0, 1), BuildingBlock: TEMPAE_clean_linker_10, # of connection points: 2
#     Edge 19, Type (0, 1), BuildingBlock: TEMPAE_clean_linker_10, # of connection points: 2
#     Edge 20, Type (0, 1), BuildingBlock: TEMPAE_clean_linker_10, # of connection points: 2
#     Edge 21, Type (0, 1), BuildingBlock: TEMPAE_clean_linker_10, # of connection points: 2
#     Edge 22, Type (0, 1), BuildingBlock: TEMPAE_clean_linker_10, # of connection points: 2
#     Edge 23, Type (0, 1), BuildingBlock: TEMPAE_clean_linker_10, # of connection points: 2
#     Edge 24, Type (0, 1), BuildingBlock: TEMPAE_clean_linker_10, # of connection points: 2
#     Edge 25, Type (0, 1), BuildingBlock: TEMPAE_clean_linker_10, # of connection points: 2
#     Edge 26, Type (0, 1), BuildingBlock: TEMPAE_clean_linker_10, # of connection points: 2
#     Edge 27, Type (0, 1), BuildingBlock: TEMPAE_clean_linker_10, # of connection points: 2
#     Edge 28, Type (0, 1), BuildingBlock: TEMPAE_clean_linker_10, # of connection points: 2
#     Edge 29, Type (0, 1), BuildingBlock: TEMPAE_clean_linker_10, # of connection points: 2
#     Edge 30, Type (0, 1), BuildingBlock: TEMPAE_clean_linker_10, # of connection points: 2
#     Edge 31, Type (0, 1), BuildingBlock: TEMPAE_clean_linker_10, # of connection points: 2
#     Edge 32, Type (0, 1), BuildingBlock: TEMPAE_clean_linker_10, # of connection points: 2
#     Edge 33, Type (0, 1), BuildingBlock: TEMPAE_clean_linker_10, # of connection points: 2
#     Edge 34, Type (0, 1), BuildingBlock: TEMPAE_clean_linker_10, # of connection points: 2
#     Edge 35, Type (0, 1), BuildingBlock: TEMPAE_clean_linker_10, # of connection points: 2
# Relax obj value: 0.335
# Max RMSD: 0.254
# Mean RMSD: 0.197
data_MOF--net-zzz--node1-VOLQOD_clean_sbu_1--node2-BELTOD_clean_linker_0--edge1-TEMPAE_clean_linker_10
_symmetry_space_group_name_H-M    P1
_symmetry_Int_Tables_number       1
_symmetry_cell_setting            triclinic
loop_
_symmetry_equiv_pos_as_xyz
'x, y, z'
_cell_length_a     54.661403
_cell_length_b     53.795993
_cell_length_c     21.256541
_cell_angle_alpha  90.136702
_cell_angle_beta   90.071328
_cell_angle_gamma 92.119202
loop_
_atom_site_label
_atom_site_type_symbol
_atom_site_fract_x
_atom_site_fract_y
_atom_site_fract_z
_atom_type_partial_charge
P0 P 0.77306 0.41629 0.19567 0.0
H1 H 0.78323 0.41712 0.33081 0.0
H2 H 0.80295 0.44857 0.39828 0.0
H3 H 0.8027 0.50127 0.24512 0.0
H4 H 0.78325 0.46942 0.17741 0.0
H5 H 0.75139 0.39259 0.08556 0.0
H6 H 0.71882 0.40455 0.01407 0.0
H7 H 0.70263 0.46596 0.13653 0.0
H8 H 0.73521 0.45387 0.20814 0.0
H9 H 0.81795 0.38796 0.19795 0.0
H10 H 0.78417 0.44094 0.07654 0.0
O11 O 0.76854 0.38947 0.23392 0.0
H12 H 0.85374 0.38797 0.12827 0.0
H13 H 0.81903 0.44028 0.00604 0.0
C14 C 0.78181 0.44095 0.24919 0.0
C15 C 0.78677 0.43563 0.31221 0.0
C16 C 0.7979 0.45375 0.35093 0.0
C17 C 0.80442 0.47746 0.32703 0.0
C18 C 0.79803 0.48316 0.26477 0.0
C19 C 0.78688 0.46499 0.22612 0.0
C20 C 0.74607 0.4227 0.15118 0.0
C21 C 0.74062 0.40844 0.09743 0.0
C22 C 0.72217 0.41537 0.05647 0.0
C23 C 0.70861 0.43645 0.0693 0.0
C24 C 0.71296 0.44972 0.12547 0.0
C25 C 0.73163 0.44288 0.16623 0.0
C26 C 0.79818 0.41398 0.14165 0.0
C27 C 0.81801 0.39916 0.15568 0.0
C28 C 0.8384 0.39914 0.1158 0.0
C29 C 0.83925 0.41417 0.06168 0.0
C30 C 0.81913 0.42874 0.04772 0.0
C31 C 0.79899 0.42888 0.08768 0.0
P32 P 0.05688 0.74347 0.22763 0.0
H33 H 0.06506 0.76 0.35607 0.0
H34 H 0.04181 0.78587 0.42495 0.0
H35 H 0.98028 0.7799 0.29665 0.0
H36 H 0.00476 0.75523 0.22532 0.0
H37 H 0.07776 0.719 0.12142 0.0
H38 H 0.06346 0.68536 0.05256 0.0
H39 H 0.99828 0.67512 0.16597 0.0
H40 H 0.0127 0.7094 0.23464 0.0
H41 H 0.09102 0.78669 0.23047 0.0
H42 H 0.03361 0.75698 0.10943 0.0
O43 O 0.08327 0.73627 0.26135 0.0
H44 H 0.09688 0.82254 0.1599 0.0
H45 H 0.0396 0.79229 0.03887 0.0
C46 C 0.03652 0.75521 0.28611 0.0
C47 C 0.04631 0.76355 0.34353 0.0
C48 C 0.03277 0.77839 0.38335 0.0
C49 C 0.00895 0.78518 0.36688 0.0
C50 C 0.99863 0.77544 0.31077 0.0
C51 C 0.01245 0.76091 0.27031 0.0
C52 C 0.04617 0.71689 0.18254 0.0
C53 C 0.06045 0.70942 0.13178 0.0
C54 C 0.05229 0.69007 0.0926 0.0
C55 C 0.02972 0.67751 0.10376 0.0
C56 C 0.0156 0.68466 0.1557 0.0
C57 C 0.02384 0.7042 0.19506 0.0
C58 C 0.06245 0.76882 0.17405 0.0
C59 C 0.08001 0.78766 0.18822 0.0
C60 C 0.08326 0.80813 0.14818 0.0
C61 C 0.06897 0.80992 0.09345 0.0
C62 C 0.05128 0.79106 0.07988 0.0
C63 C 0.04786 0.77085 0.12021 0.0
P64 P 0.76478 0.08712 0.16168 0.0
H65 H 0.76155 0.09309 0.29857 0.0
H66 H 0.73893 0.06926 0.3787 0.0
H67 H 0.71776 0.01412 0.23877 0.0
H68 H 0.74096 0.03775 0.15936 0.0
H69 H 0.78978 0.10266 0.04769 0.0
H70 H 0.82133 0.08405 0.98335 0.0
H71 H 0.82635 0.02426 0.11742 0.0
H72 H 0.79458 0.04293 0.1817 0.0
H73 H 0.72372 0.12055 0.16516 0.0
H74 H 0.74946 0.06247 0.04453 0.0
O75 O 0.77445 0.11447 0.19151 0.0
H76 H 0.68738 0.12409 0.09791 0.0
H77 H 0.71379 0.0662 0.97736 0.0
C78 C 0.75278 0.06723 0.22304 0.0
C79 C 0.75253 0.07559 0.28547 0.0
C80 C 0.73947 0.06201 0.33116 0.0
C81 C 0.7263 0.03993 0.31498 0.0
C82 C 0.72786 0.0309 0.25301 0.0
C83 C 0.741 0.04447 0.20744 0.0
C84 C 0.7896 0.07399 0.11884 0.0
C85 C 0.79771 0.08557 0.06333 0.0
C86 C 0.81558 0.07485 0.02642 0.0
C87 C 0.82598 0.05252 0.04498 0.0
C88 C 0.81852 0.04142 0.10197 0.0
C89 C 0.80036 0.05205 0.13861 0.0
C90 C 0.73968 0.09183 0.10872 0.0
C91 C 0.72185 0.10901 0.12349 0.0
C92 C 0.7011 0.11094 0.08533 0.0
C93 C 0.69802 0.09574 0.03181 0.0
C94 C 0.71601 0.07865 0.01725 0.0
C95 C 0.73647 0.07653 0.05571 0.0
P96 P 0.49315 0.74267 0.20876 0.0
H97 H 0.5013 0.74631 0.3447 0.0
H98 H 0.52421 0.72045 0.41672 0.0
H99 H 0.55577 0.68297 0.25797 0.0
H100 H 0.53321 0.70916 0.18642 0.0
H101 H 0.47115 0.78877 0.17177 0.0
H102 H 0.48436 0.82209 0.1007 0.0
H103 H 0.55415 0.78804 0.07779 0.0
H104 H 0.54075 0.75459 0.1495 0.0
H105 H 0.46732 0.69515 0.22807 0.0
H106 H 0.49782 0.73644 0.07112 0.0
O107 O 0.46901 0.75079 0.25113 0.0
H108 H 0.45899 0.65933 0.15902 0.0
H109 H 0.49022 0.70077 0.00277 0.0
C110 C 0.5152 0.72929 0.26034 0.0
C111 C 0.51369 0.73303 0.32542 0.0
C112 C 0.52672 0.71817 0.36653 0.0
C113 C 0.54145 0.69936 0.34304 0.0
C114 C 0.54468 0.69734 0.27763 0.0
C115 C 0.53167 0.71224 0.2366 0.0
C116 C 0.50511 0.76944 0.16677 0.0
C117 C 0.48955 0.78879 0.15293 0.0
C118 C 0.49713 0.80785 0.11222 0.0
C119 C 0.52032 0.80771 0.08378 0.0
C120 C 0.53616 0.78858 0.09892 0.0
C121 C 0.52861 0.7696 0.1403 0.0
C122 C 0.48315 0.71848 0.15491 0.0
C123 C 0.47181 0.69667 0.17858 0.0
C124 C 0.46725 0.67616 0.13921 0.0
C125 C 0.47403 0.67715 0.07544 0.0
C126 C 0.48444 0.69947 0.05141 0.0
C127 C 0.48899 0.71992 0.09079 0.0
P128 P 0.23847 0.48193 0.23175 0.0
H129 H 0.20998 0.44466 0.16147 0.0
H130 H 0.19272 0.44489 0.05637 0.0
H131 H 0.23403 0.513 0.0154 0.0
H132 H 0.25118 0.51274 0.1222 0.0
H133 H 0.28224 0.45383 0.21604 0.0
H134 H 0.32378 0.46018 0.25697 0.0
H135 H 0.30537 0.53314 0.32385 0.0
H136 H 0.26455 0.52724 0.27931 0.0
H137 H 0.19863 0.51206 0.1815 0.0
H138 H 0.23403 0.50001 0.35992 0.0
O139 O 0.23234 0.45468 0.26676 0.0
H140 H 0.16882 0.53761 0.23304 0.0
H141 H 0.20464 0.5264 0.41156 0.0
C142 C 0.23197 0.47859 0.14935 0.0
C143 C 0.21605 0.45919 0.12932 0.0
C144 C 0.20623 0.4593 0.06886 0.0
C145 C 0.21196 0.479 0.02745 0.0
C146 C 0.22918 0.49765 0.04639 0.0
C147 C 0.23913 0.49743 0.10709 0.0
C148 C 0.27017 0.48973 0.24638 0.0
C149 C 0.28742 0.47144 0.23802 0.0
C150 C 0.31106 0.47501 0.26205 0.0
C151 C 0.31769 0.49686 0.29547 0.0
C152 C 0.30091 0.51604 0.29868 0.0
C153 C 0.27738 0.51257 0.27376 0.0
C154 C 0.21866 0.50409 0.2669 0.0
C155 C 0.20047 0.51538 0.23149 0.0
C156 C 0.18346 0.53025 0.26099 0.0
C157 C 0.18431 0.534 0.32642 0.0
C158 C 0.20334 0.52365 0.36115 0.0
C159 C 0.22019 0.50863 0.33171 0.0
P160 P 0.12758 0.24472 0.21519 0.0
H161 H 0.15536 0.22962 0.10384 0.0
H162 H 0.14625 0.19748 0.02441 0.0
H163 H 0.07228 0.18945 0.09461 0.0
H164 H 0.08156 0.22086 0.17434 0.0
H165 H 0.14568 0.29109 0.27204 0.0
H166 H 0.1245 0.32786 0.30749 0.0
H167 H 0.05829 0.30023 0.21693 0.0
H168 H 0.07971 0.26402 0.17892 0.0
H169 H 0.14128 0.19549 0.25412 0.0
H170 H 0.08838 0.24886 0.3104 0.0
O171 O 0.15802 0.24781 0.22013 0.0
H172 H 0.11946 0.16349 0.31608 0.0
H173 H 0.06661 0.21703 0.3716 0.0
C174 C 0.11909 0.22785 0.14476 0.0
C175 C 0.13698 0.2215 0.10087 0.0
C176 C 0.13179 0.20307 0.05562 0.0
C177 C 0.10869 0.19069 0.05417 0.0
C178 C 0.09037 0.1984 0.09534 0.0
C179 C 0.09554 0.21674 0.14027 0.0
C180 C 0.11437 0.27479 0.2225 0.0
C181 C 0.12693 0.29341 0.25734 0.0
C182 C 0.11483 0.31437 0.27777 0.0
C183 C 0.08986 0.31668 0.26485 0.0
C184 C 0.07762 0.2988 0.22704 0.0
C185 C 0.0899 0.27813 0.20526 0.0
C186 C 0.11653 0.22458 0.27729 0.0
C187 C 0.1255 0.20056 0.28145 0.0
C188 C 0.11294 0.18226 0.31653 0.0
C189 C 0.09112 0.18773 0.34766 0.0
C190 C 0.08314 0.21223 0.34702 0.0
C191 C 0.09575 0.23052 0.3122 0.0
P192 P 0.28998 0.07193 0.2048 0.0
H193 H 0.30275 0.09891 0.08911 0.0
H194 H 0.32644 0.08601 0.99822 0.0
H195 H 0.31881 0.00957 0.05881 0.0
H196 H 0.2954 0.02255 0.14995 0.0
H197 H 0.26095 0.09377 0.30238 0.0
H198 H 0.22453 0.07897 0.35896 0.0
H199 H 0.21712 0.0162 0.23241 0.0
H200 H 0.25359 0.03136 0.17522 0.0
H201 H 0.34144 0.08375 0.23041 0.0
H202 H 0.28774 0.02655 0.28155 0.0
O203 O 0.2945 0.10273 0.2099 0.0
H204 H 0.37348 0.05998 0.28033 0.0
H205 H 0.31948 0.00295 0.33156 0.0
C206 C 0.29729 0.06172 0.12654 0.0
C207 C 0.30527 0.07926 0.08159 0.0
C208 C 0.31887 0.07186 0.02956 0.0
C209 C 0.32483 0.04684 0.02212 0.0
C210 C 0.31476 0.02904 0.0639 0.0
C211 C 0.30108 0.03643 0.11565 0.0
C212 C 0.25984 0.06387 0.23408 0.0
C213 C 0.25108 0.07726 0.28544 0.0
C214 C 0.23028 0.06872 0.31795 0.0
C215 C 0.21804 0.04637 0.30027 0.0
C216 C 0.22633 0.0334 0.24732 0.0
C217 C 0.24705 0.04215 0.21428 0.0
C218 C 0.31212 0.05726 0.2535 0.0
C219 C 0.33643 0.06646 0.25389 0.0
C220 C 0.35472 0.0528 0.28207 0.0
C221 C 0.34895 0.02955 0.30943 0.0
C222 C 0.32447 0.02068 0.31017 0.0
C223 C 0.30624 0.03439 0.2823 0.0
P224 P 0.41065 0.24938 0.19327 0.0
H225 H 0.38199 0.26814 0.08797 0.0
H226 H 0.39378 0.29674 0.00327 0.0
H227 H 0.46997 0.28773 0.04859 0.0
H228 H 0.45811 0.25963 0.13389 0.0
H229 H 0.39126 0.21421 0.28446 0.0
H230 H 0.40745 0.17652 0.32897 0.0
H231 H 0.46491 0.17835 0.18959 0.0
H232 H 0.44837 0.21608 0.14463 0.0
H233 H 0.40184 0.29974 0.23534 0.0
H234 H 0.45631 0.24491 0.26524 0.0
O235 O 0.38061 0.252 0.20406 0.0
H236 H 0.42748 0.33055 0.29224 0.0
H237 H 0.4817 0.27536 0.32255 0.0
C238 C 0.41915 0.26155 0.11718 0.0
C239 C 0.40126 0.27155 0.07827 0.0
C240 C 0.40801 0.288 0.02986 0.0
C241 C 0.43278 0.29483 0.02005 0.0
C242 C 0.45071 0.28313 0.05572 0.0
C243 C 0.44394 0.26669 0.1039 0.0
C244 C 0.41847 0.21791 0.21094 0.0
C245 C 0.4068 0.20603 0.2619 0.0
C246 C 0.41613 0.18447 0.28748 0.0
C247 C 0.43757 0.17456 0.26308 0.0
C248 C 0.44848 0.18572 0.20972 0.0
C249 C 0.43894 0.20721 0.18369 0.0
C250 C 0.42683 0.26988 0.2472 0.0
C251 C 0.41894 0.29412 0.25575 0.0
C252 C 0.43365 0.31171 0.288 0.0
C253 C 0.45664 0.30535 0.31159 0.0
C254 C 0.4642 0.28086 0.30431 0.0
C255 C 0.44947 0.26331 0.27219 0.0
O256 O 0.08321 0.99479 0.64992 0.0
Zn257 Zn 0.05729 0.99597 0.71857 0.0
O258 O 0.02399 0.99687 0.68229 0.0
Zn259 Zn 0.00994 0.02842 0.70225 0.0
Zn260 Zn 0.02561 0.99369 0.59125 0.0
Zn261 Zn 0.0024 0.97019 0.71517 0.0
O262 O 0.97764 0.02417 0.74549 0.0
O263 O 0.97233 0.98341 0.75813 0.0
O264 O 0.06537 0.02696 0.77064 0.0
O265 O 0.03173 0.0483 0.75984 0.0
O266 O 0.00707 0.04944 0.62568 0.0
O267 O 0.01429 0.02409 0.54614 0.0
O268 O 0.00883 0.96222 0.56092 0.0
O269 O 0.05952 0.96621 0.7763 0.0
O270 O 0.99218 0.94541 0.64691 0.0
O271 O 0.02108 0.95108 0.77896 0.0
C272 C 0.08117 0.99311 0.59027 0.0
C273 C 0.96518 0.00549 0.76614 0.0
C274 C 0.00915 0.04548 0.56697 0.0
C275 C 0.05307 0.0461 0.7824 0.0
C276 C 0.99661 0.94474 0.58808 0.0
C277 C 0.04328 0.95073 0.79731 0.0
O278 O 0.06028 0.99199 0.56393 0.0
O279 O 0.51022 0.05179 0.60894 0.0
Zn280 Zn 0.51638 0.02881 0.68276 0.0
O281 O 0.52382 0.99515 0.65291 0.0
Zn282 Zn 0.4973 0.97168 0.67503 0.0
Zn283 Zn 0.52745 0.99506 0.56193 0.0
Zn284 Zn 0.55421 0.98427 0.6896 0.0
O285 O 0.50957 0.94279 0.72454 0.0
O286 O 0.54918 0.95211 0.73747 0.0
O287 O 0.48525 0.02777 0.73455 0.0
O288 O 0.47226 0.98827 0.72795 0.0
O289 O 0.47906 0.96008 0.59786 0.0
O290 O 0.50344 0.97164 0.5193 0.0
O291 O 0.5617 0.9887 0.5349 0.0
O292 O 0.54383 0.04304 0.73853 0.0
O293 O 0.58093 0.98109 0.62429 0.0
O294 O 0.56681 0.01011 0.75004 0.0
C295 C 0.5118 0.04849 0.54964 0.0
C296 C 0.53044 0.93782 0.74709 0.0
C297 C 0.4838 0.961 0.53929 0.0
C298 C 0.4696 0.01039 0.74748 0.0
C299 C 0.5811 0.98367 0.56471 0.0
C300 C 0.56199 0.03248 0.76341 0.0
O301 O 0.51871 0.02801 0.52704 0.0
O302 O 0.46555 0.49665 0.62889 0.0
Zn303 Zn 0.49032 0.49145 0.69839 0.0
O304 O 0.5237 0.49031 0.66296 0.0
Zn305 Zn 0.53709 0.45815 0.68054 0.0
Zn306 Zn 0.52317 0.4945 0.57211 0.0
Zn307 Zn 0.5451 0.51657 0.69895 0.0
O308 O 0.56808 0.46164 0.72988 0.0
O309 O 0.57362 0.50228 0.74544 0.0
O310 O 0.48059 0.45926 0.74421 0.0
O311 O 0.51377 0.4373 0.73163 0.0
O312 O 0.54208 0.43817 0.60238 0.0
O313 O 0.53314 0.46401 0.52558 0.0
O314 O 0.54273 0.52469 0.54416 0.0
O315 O 0.48823 0.52001 0.76018 0.0
O316 O 0.5574 0.54106 0.6329 0.0
O317 O 0.52614 0.5364 0.7607 0.0
C318 C 0.46808 0.4995 0.56968 0.0
C319 C 0.58021 0.48003 0.75351 0.0
C320 C 0.53946 0.44272 0.54413 0.0
C321 C 0.49223 0.43944 0.75291 0.0
C322 C 0.55485 0.54178 0.57333 0.0
C323 C 0.50409 0.53615 0.78008 0.0
O324 O 0.48901 0.49929 0.54379 0.0
O325 O 0.96322 0.52675 0.59659 0.0
Zn326 Zn 0.99665 0.53031 0.6391 0.0
O327 O 0.0088 0.49714 0.6616 0.0
Zn328 Zn 0.01278 0.49433 0.75222 0.0
Zn329 Zn 0.98629 0.47065 0.63232 0.0
Zn330 Zn 0.04032 0.49227 0.62306 0.0
O331 O 0.04772 0.48856 0.77677 0.0
O332 O 0.06751 0.49095 0.68595 0.0
O333 O 0.99417 0.55197 0.71715 0.0
O334 O 0.0038 0.52607 0.79393 0.0
O335 O 0.99077 0.46741 0.78828 0.0
O336 O 0.97124 0.4515 0.70507 0.0
O337 O 0.0021 0.4468 0.57207 0.0
O338 O 0.01962 0.54825 0.5772 0.0
O339 O 0.04076 0.46094 0.57227 0.0
O340 O 0.04814 0.52012 0.565 0.0
C341 C 0.95113 0.50743 0.57751 0.0
C342 C 0.06758 0.4887 0.74546 0.0
C343 C 0.97496 0.45223 0.76424 0.0
C344 C 0.9972 0.54728 0.77539 0.0
C345 C 0.02424 0.44524 0.55439 0.0
C346 C 0.03915 0.5409 0.55164 0.0
O347 O 0.9587 0.4857 0.58732 0.0
C348 C 0.19761 0.01105 0.35894 0.0
C349 C 0.19779 0.03599 0.33981 0.0
C350 C 0.1797 0.0015 0.40056 0.0
C351 C 0.16146 0.01725 0.42316 0.0
C352 C 0.1613 0.04233 0.40308 0.0
C353 C 0.17952 0.05141 0.36182 0.0
C354 C 0.18048 0.97469 0.42108 0.0
C355 C 0.14195 0.05964 0.42544 0.0
C356 C 0.10059 0.99158 0.48416 0.0
C357 C 0.10309 0.99534 0.54932 0.0
C358 C 0.11983 0.99761 0.44279 0.0
C359 C 0.14222 0.00756 0.46706 0.0
C360 C 0.14542 0.01 0.53298 0.0
C361 C 0.12579 0.00384 0.57343 0.0
C362 C 0.1157 0.9946 0.37286 0.0
C363 C 0.16913 0.02036 0.56059 0.0
H364 H 0.21193 0.99917 0.34276 0.0
H365 H 0.17952 0.07065 0.34676 0.0
H366 H 0.18272 0.97377 0.47289 0.0
H367 H 0.16296 0.96469 0.40927 0.0
H368 H 0.19569 0.96482 0.39858 0.0
H369 H 0.14436 0.07859 0.40517 0.0
H370 H 0.1235 0.05201 0.4124 0.0
H371 H 0.14252 0.06118 0.47749 0.0
H372 H 0.08321 0.98478 0.465 0.0
H373 H 0.12792 0.0068 0.62363 0.0
H374 H 0.13083 0.98441 0.35119 0.0
H375 H 0.11553 0.0132 0.35045 0.0
H376 H 0.09811 0.98449 0.36195 0.0
H377 H 0.18489 0.01056 0.54075 0.0
H378 H 0.16958 0.01874 0.61267 0.0
H379 H 0.17159 0.0403 0.54796 0.0
C380 C 0.47479 0.15673 0.31134 0.0
C381 C 0.4497 0.15441 0.29753 0.0
C382 C 0.48605 0.1395 0.35036 0.0
C383 C 0.47191 0.11943 0.37603 0.0
C384 C 0.44676 0.11647 0.36044 0.0
C385 C 0.43594 0.13406 0.32155 0.0
C386 C 0.51292 0.14325 0.36573 0.0
C387 C 0.43116 0.09504 0.38597 0.0
C388 C 0.50396 0.06339 0.4402 0.0
C389 C 0.50339 0.06775 0.50541 0.0
C390 C 0.49403 0.08015 0.39757 0.0
C391 C 0.48327 0.10188 0.42051 0.0
C392 C 0.48308 0.10672 0.48606 0.0
C393 C 0.49315 0.08961 0.52775 0.0
C394 C 0.4946 0.07432 0.32805 0.0
C395 C 0.47177 0.12974 0.51226 0.0
H396 H 0.48544 0.17261 0.29369 0.0
H397 H 0.41659 0.1321 0.31056 0.0
H398 H 0.51522 0.14679 0.41688 0.0
H399 H 0.52282 0.12616 0.35447 0.0
H400 H 0.52159 0.15909 0.33955 0.0
H401 H 0.41206 0.09501 0.36798 0.0
H402 H 0.43923 0.07712 0.37307 0.0
H403 H 0.43069 0.096 0.4381 0.0
H404 H 0.51177 0.04657 0.42223 0.0
H405 H 0.49252 0.09313 0.57793 0.0
H406 H 0.50357 0.09001 0.302 0.0
H407 H 0.47564 0.07197 0.30977 0.0
H408 H 0.50449 0.05711 0.31767 0.0
H409 H 0.48047 0.14662 0.49076 0.0
H410 H 0.47368 0.13113 0.5642 0.0
H411 H 0.45202 0.12961 0.50014 0.0
C412 C 0.34861 0.47766 0.36512 0.0
C413 C 0.34084 0.49854 0.33222 0.0
C414 C 0.36947 0.47904 0.40338 0.0
C415 C 0.38273 0.50197 0.40981 0.0
C416 C 0.37511 0.52315 0.37679 0.0
C417 C 0.35431 0.52115 0.33803 0.0
C418 C 0.3772 0.45595 0.43734 0.0
C419 C 0.38882 0.54793 0.38279 0.0
C420 C 0.42349 0.50722 0.55429 0.0
C421 C 0.44634 0.50182 0.52889 0.0
C422 C 0.40271 0.50831 0.5156 0.0
C423 C 0.40486 0.50348 0.45034 0.0
C424 C 0.42794 0.49845 0.42433 0.0
C425 C 0.44842 0.49785 0.46382 0.0
C426 C 0.37838 0.51407 0.54472 0.0
C427 C 0.43088 0.49278 0.35515 0.0
H428 H 0.33803 0.46025 0.36226 0.0
H429 H 0.34856 0.53732 0.31239 0.0
H430 H 0.39628 0.45176 0.42447 0.0
H431 H 0.37685 0.45911 0.48892 0.0
H432 H 0.36517 0.43943 0.42618 0.0
H433 H 0.38025 0.56272 0.35484 0.0
H434 H 0.3895 0.5538 0.43287 0.0
H435 H 0.408 0.54623 0.36684 0.0
H436 H 0.4218 0.51048 0.60442 0.0
H437 H 0.46599 0.49354 0.44375 0.0
H438 H 0.36565 0.49759 0.54072 0.0
H439 H 0.36996 0.52953 0.51907 0.0
H440 H 0.38015 0.51925 0.59518 0.0
H441 H 0.42031 0.47541 0.34308 0.0
H442 H 0.45032 0.49046 0.34185 0.0
H443 H 0.42344 0.5079 0.32628 0.0
C444 C 0.08101 0.36094 0.28851 0.0
C445 C 0.07607 0.33558 0.29866 0.0
C446 C 0.07011 0.37888 0.32633 0.0
C447 C 0.05465 0.3711 0.37664 0.0
C448 C 0.04915 0.34544 0.38581 0.0
C449 C 0.05973 0.32798 0.34612 0.0
C450 C 0.07589 0.40608 0.31403 0.0
C451 C 0.03334 0.33633 0.43986 0.0
C452 C 0.05402 0.41469 0.51699 0.0
C453 C 0.03111 0.42526 0.51096 0.0
C454 C 0.0616 0.39662 0.47438 0.0
C455 C 0.04621 0.38958 0.42322 0.0
C456 C 0.02302 0.40024 0.41682 0.0
C457 C 0.01556 0.41771 0.46149 0.0
C458 C 0.08613 0.38515 0.48403 0.0
C459 C 0.00644 0.3937 0.36193 0.0
H460 H 0.09374 0.36667 0.25178 0.0
H461 H 0.05626 0.30826 0.35423 0.0
H462 H 0.05883 0.41664 0.31357 0.0
H463 H 0.08765 0.41389 0.35236 0.0
H464 H 0.08557 0.4091 0.26861 0.0
H465 H 0.02944 0.31593 0.43777 0.0
H466 H 0.04275 0.34082 0.485 0.0
H467 H 0.01572 0.3459 0.44019 0.0
H468 H 0.06599 0.42048 0.55547 0.0
H469 H 0.99796 0.42614 0.45645 0.0
H470 H 0.0984 0.38987 0.44394 0.0
H471 H 0.08384 0.36458 0.48559 0.0
H472 H 0.09524 0.39165 0.52816 0.0
H473 H 0.01589 0.3986 0.31722 0.0
H474 H 0.98895 0.40355 0.36392 0.0
H475 H 0.00224 0.37338 0.36077 0.0
C476 C 0.84061 0.03869 0.93973 0.0
C477 C 0.84464 0.04115 0.00464 0.0
C478 C 0.85891 0.03013 0.89982 0.0
C479 C 0.88188 0.02419 0.92541 0.0
C480 C 0.88568 0.02565 0.99129 0.0
C481 C 0.86693 0.034 0.03022 0.0
C482 C 0.85402 0.02851 0.82997 0.0
C483 C 0.90999 0.01968 0.02029 0.0
C484 C 0.92791 0.99011 0.82589 0.0
C485 C 0.94294 0.00995 0.80392 0.0
C486 C 0.90773 0.99439 0.86492 0.0
C487 C 0.90265 0.01905 0.88278 0.0
C488 C 0.91758 0.03912 0.86018 0.0
C489 C 0.93741 0.03435 0.82086 0.0
C490 C 0.892 0.97257 0.88756 0.0
C491 C 0.91287 0.0657 0.87836 0.0
H492 H 0.82322 0.04386 0.92002 0.0
H493 H 0.87009 0.03599 0.08038 0.0
H494 H 0.86524 0.04305 0.80526 0.0
H495 H 0.85939 0.01023 0.81131 0.0
H496 H 0.83445 0.03112 0.81846 0.0
H497 H 0.90929 0.01957 0.07252 0.0
H498 H 0.91589 0.00127 0.00377 0.0
H499 H 0.92415 0.03373 0.00522 0.0
H500 H 0.93201 0.9712 0.81304 0.0
H501 H 0.9489 0.04985 0.80443 0.0
H502 H 0.8726 0.97515 0.8745 0.0
H503 H 0.89281 0.97148 0.93963 0.0
H504 H 0.89785 0.95464 0.86763 0.0
H505 H 0.89418 0.07058 0.86354 0.0
H506 H 0.92624 0.07919 0.8568 0.0
H507 H 0.91383 0.06781 0.93025 0.0
C508 C 0.53652 0.81912 0.97711 0.0
C509 C 0.52697 0.82652 0.03516 0.0
C510 C 0.53985 0.8362 0.92771 0.0
C511 C 0.53352 0.86124 0.93677 0.0
C512 C 0.52501 0.86904 0.99627 0.0
C513 C 0.52179 0.85157 0.04469 0.0
C514 C 0.54897 0.82719 0.86497 0.0
C515 C 0.51828 0.89563 0.00803 0.0
C516 C 0.55392 0.91283 0.8246 0.0
C517 C 0.5324 0.91625 0.78999 0.0
C518 C 0.5549 0.89436 0.87107 0.0
C519 C 0.53392 0.87892 0.88305 0.0
C520 C 0.51255 0.8815 0.84628 0.0
C521 C 0.51204 0.90012 0.80028 0.0
C522 C 0.57804 0.89211 0.90917 0.0
C523 C 0.48983 0.86525 0.85729 0.0
H524 H 0.54033 0.79972 0.96931 0.0
H525 H 0.5147 0.8574 0.08977 0.0
H526 H 0.53398 0.82766 0.8298 0.0
H527 H 0.56414 0.83962 0.84766 0.0
H528 H 0.55548 0.80789 0.86748 0.0
H529 H 0.51367 0.89907 0.05811 0.0
H530 H 0.53361 0.90857 0.99432 0.0
H531 H 0.50225 0.90011 0.97862 0.0
H532 H 0.56977 0.92515 0.81702 0.0
H533 H 0.49538 0.90246 0.77359 0.0
H534 H 0.5836 0.8725 0.91031 0.0
H535 H 0.57465 0.89786 0.95847 0.0
H536 H 0.59344 0.90387 0.89018 0.0
H537 H 0.49437 0.84533 0.85593 0.0
H538 H 0.47533 0.86845 0.82185 0.0
H539 H 0.48235 0.86908 0.9047 0.0
C540 C 0.69753 0.44724 0.95923 0.0
C541 C 0.69077 0.44508 0.02263 0.0
C542 C 0.68075 0.45467 0.91377 0.0
C543 C 0.6566 0.4598 0.9322 0.0
C544 C 0.64982 0.45816 0.9964 0.0
C545 C 0.66708 0.45095 0.04103 0.0
C546 C 0.68871 0.45649 0.84587 0.0
C547 C 0.62413 0.46326 0.01763 0.0
C548 C 0.61516 0.49469 0.82245 0.0
C549 C 0.60113 0.47507 0.79538 0.0
C550 C 0.63364 0.49002 0.86636 0.0
C551 C 0.63798 0.4652 0.88381 0.0
C552 C 0.62426 0.44532 0.8557 0.0
C553 C 0.6061 0.45049 0.81164 0.0
C554 C 0.64819 0.51163 0.89492 0.0
C555 C 0.62834 0.41858 0.87327 0.0
H556 H 0.71601 0.44311 0.94522 0.0
H557 H 0.66187 0.4492 0.09006 0.0
H558 H 0.6784 0.44232 0.81737 0.0
H559 H 0.68451 0.47499 0.82653 0.0
H560 H 0.7086 0.45358 0.84006 0.0
H561 H 0.62216 0.46237 0.06959 0.0
H562 H 0.61886 0.48191 0.00149 0.0
H563 H 0.61105 0.44943 0.99616 0.0
H564 H 0.61149 0.51373 0.81009 0.0
H565 H 0.59537 0.43518 0.79113 0.0
H566 H 0.66806 0.5091 0.88813 0.0
H567 H 0.64486 0.51234 0.94635 0.0
H568 H 0.64335 0.52973 0.87413 0.0
H569 H 0.64767 0.41403 0.86457 0.0
H570 H 0.6163 0.40527 0.84639 0.0
H571 H 0.62479 0.41584 0.92422 0.0
C572 C 0.03776 0.6405 0.03654 0.0
C573 C 0.0211 0.65738 0.06015 0.0
C574 C 0.03076 0.62294 0.99061 0.0
C575 C 0.00634 0.62191 0.96825 0.0
C576 C 0.98912 0.63822 0.99353 0.0
C577 C 0.99674 0.65587 0.03909 0.0
C578 C 0.0497 0.60582 0.96505 0.0
C579 C 0.96285 0.63738 0.97146 0.0
C580 C 6e-05 0.59212 0.80691 0.0
C581 C 0.99508 0.5672 0.82292 0.0
C582 C 0.00241 0.61054 0.85372 0.0
C583 C -0.00073 0.60385 0.91774 0.0
C584 C 0.99234 0.57906 0.93357 0.0
C585 C 0.99057 0.56098 0.88601 0.0
C586 C 0.01001 0.63675 0.835 0.0
C587 C 0.9883 0.57128 0.00108 0.0
H588 H 0.05648 0.64121 0.05355 0.0
H589 H 0.98379 0.66897 0.05677 0.0
H590 H 0.04371 0.58614 0.97279 0.0
H591 H 0.05168 0.60853 0.91355 0.0
H592 H 0.06792 0.60907 0.98742 0.0
H593 H 0.95135 0.65005 0.99906 0.0
H594 H 0.96206 0.6428 0.9212 0.0
H595 H 0.95489 0.61817 0.97508 0.0
H596 H 0.0036 0.59701 0.75824 0.0
H597 H 0.98639 0.54176 0.89852 0.0
H598 H 0.02909 0.64089 0.85077 0.0
H599 H 0.99822 0.65035 0.85828 0.0
H600 H 0.00909 0.63953 0.78329 0.0
H601 H 0.00615 0.57126 0.02598 0.0
H602 H 0.97952 0.55237 0.00465 0.0
H603 H 0.97668 0.58465 0.02583 0.0
C604 C 0.05057 0.16568 0.36335 0.0
C605 C 0.07574 0.16761 0.37652 0.0
C606 C 0.0358 0.14628 0.3884 0.0
C607 C 0.04645 0.12856 0.42797 0.0
C608 C 0.07187 0.1304 0.44137 0.0
C609 C 0.08624 0.14986 0.41518 0.0
C610 C 0.00888 0.14462 0.37222 0.0
C611 C 0.08389 0.1119 0.48369 0.0
C612 C 0.01087 0.09135 0.54988 0.0
C613 C 0.01156 0.06726 0.52453 0.0
C614 C 0.02075 0.1119 0.517 0.0
C615 C 0.03112 0.10831 0.45689 0.0
C616 C 0.02933 0.08456 0.42811 0.0
C617 C 0.01959 0.06425 0.46236 0.0
C618 C 0.02222 0.13696 0.54926 0.0
C619 C 0.03965 0.08012 0.36338 0.0
H620 H 0.04251 0.17913 0.3324 0.0
H621 H 0.10567 0.15138 0.42544 0.0
H622 H 0.00425 0.12646 0.34952 0.0
H623 H 0.99777 0.1456 0.41571 0.0
H624 H 0.00352 0.15974 0.34007 0.0
H625 H 0.10381 0.11609 0.48972 0.0
H626 H 0.0751 0.11185 0.53072 0.0
H627 H 0.08138 0.09287 0.46392 0.0
H628 H 0.00443 0.09399 0.59756 0.0
H629 H 0.01997 0.04577 0.44199 0.0
H630 H 0.01659 0.15182 0.51684 0.0
H631 H 0.04146 0.14136 0.56337 0.0
H632 H 0.01057 0.13737 0.59201 0.0
H633 H 0.03477 0.09519 0.33065 0.0
H634 H 0.03299 0.062 0.34341 0.0
H635 H 0.05993 0.08009 0.3662 0.0
C636 C 0.36897 0.98875 0.32228 0.0
C637 C 0.36843 0.01427 0.33593 0.0
C638 C 0.38713 0.974 0.34781 0.0
C639 C 0.40497 0.98506 0.38831 0.0
C640 C 0.40467 0.01089 0.40164 0.0
C641 C 0.38645 0.0252 0.37501 0.0
C642 C 0.38722 0.94666 0.33164 0.0
C643 C 0.42345 0.02345 0.44455 0.0
C644 C 0.43944 0.95353 0.51657 0.0
C645 C 0.46347 0.95667 0.49395 0.0
C646 C 0.4195 0.9603 0.4797 0.0
C647 C 0.42378 0.96988 0.4186 0.0
C648 C 0.44748 0.96918 0.39213 0.0
C649 C 0.46712 0.96247 0.43019 0.0
C650 C 0.39443 0.9604 0.50945 0.0
C651 C 0.4527 0.97851 0.32642 0.0
H652 H 0.35527 0.98036 0.29112 0.0
H653 H 0.38601 0.04489 0.3858 0.0
H654 H 0.40518 0.942 0.31139 0.0
H655 H 0.38464 0.93538 0.37489 0.0
H656 H 0.37258 0.94115 0.29752 0.0
H657 H 0.41992 0.04342 0.45236 0.0
H658 H 0.42355 0.014 0.4909 0.0
H659 H 0.442 0.02205 0.42396 0.0
H660 H 0.43632 0.94851 0.56534 0.0
H661 H 0.48556 0.96434 0.41166 0.0
H662 H 0.38002 0.95432 0.47543 0.0
H663 H 0.39056 0.97964 0.52443 0.0
H664 H 0.39321 0.94817 0.55146 0.0
H665 H 0.43761 0.97304 0.2937 0.0
H666 H 0.47009 0.97135 0.3079 0.0
H667 H 0.45436 0.99913 0.32716 0.0
C668 C 0.46368 0.34112 0.38537 0.0
C669 C 0.47305 0.32443 0.34175 0.0
C670 C 0.47883 0.35957 0.41339 0.0
C671 C 0.50399 0.36141 0.39724 0.0
C672 C 0.51361 0.34457 0.35337 0.0
C673 C 0.498 0.32624 0.32612 0.0
C674 C 0.46788 0.37713 0.4603 0.0
C675 C 0.54027 0.3461 0.33482 0.0
C676 C 0.53012 0.42532 0.43735 0.0
C677 C 0.5381 0.42158 0.49929 0.0
C678 C 0.52096 0.40534 0.40077 0.0
C679 C 0.51988 0.38114 0.42679 0.0
C680 C 0.53066 0.37686 0.48614 0.0
C681 C 0.53977 0.39716 0.52165 0.0
C682 C 0.51007 0.4106 0.33708 0.0
C683 C 0.53019 0.35126 0.51519 0.0
H684 H 0.44447 0.3396 0.39802 0.0
H685 H 0.50524 0.31357 0.29168 0.0
H686 H 0.47746 0.37585 0.50617 0.0
H687 H 0.47037 0.39659 0.44365 0.0
H688 H 0.44803 0.37308 0.46792 0.0
H689 H 0.54502 0.33114 0.30134 0.0
H690 H 0.5447 0.36436 0.31268 0.0
H691 H 0.55203 0.34477 0.37717 0.0
H692 H 0.52911 0.44406 0.41915 0.0
H693 H 0.54626 0.39398 0.56905 0.0
H694 H 0.48981 0.41031 0.34097 0.0
H695 H 0.51486 0.39613 0.30244 0.0
H696 H 0.51634 0.42909 0.31886 0.0
H697 H 0.51141 0.3465 0.53216 0.0
H698 H 0.54297 0.35028 0.55572 0.0
H699 H 0.53501 0.337 0.48001 0.0
C700 C 0.15359 0.53387 0.41255 0.0
C701 C 0.16359 0.54552 0.35914 0.0
C702 C 0.13181 0.54169 0.43914 0.0
C703 C 0.11964 0.56185 0.41179 0.0
C704 C 0.13047 0.57485 0.36048 0.0
C705 C 0.15226 0.56636 0.33428 0.0
C706 C 0.12106 0.52719 0.49408 0.0
C707 C 0.11858 0.59683 0.3309 0.0
C708 C 0.0541 0.54651 0.44412 0.0
C709 C 0.05248 0.55608 0.5051 0.0
C710 C 0.07489 0.55168 0.40735 0.0
C711 C 0.09435 0.56659 0.43297 0.0
C712 C 0.09072 0.57978 0.48972 0.0
C713 C 0.06976 0.57411 0.52586 0.0
C714 C 0.07762 0.53785 0.34606 0.0
C715 C 0.11049 0.59695 0.51667 0.0
H716 H 0.16201 0.51756 0.43154 0.0
H717 H 0.16008 0.57565 0.29339 0.0
H718 H 0.1174 0.53987 0.53387 0.0
H719 H 0.10337 0.518 0.48005 0.0
H720 H 0.13336 0.51264 0.51108 0.0
H721 H 0.13255 0.60991 0.31021 0.0
H722 H 0.10633 0.59018 0.29226 0.0
H723 H 0.10748 0.60707 0.36534 0.0
H724 H 0.04061 0.53255 0.42834 0.0
H725 H 0.06843 0.5815 0.5732 0.0
H726 H 0.08954 0.52184 0.3535 0.0
H727 H 0.08639 0.55006 0.31001 0.0
H728 H 0.05969 0.53062 0.32773 0.0
H729 H 0.12397 0.58582 0.54235 0.0
H730 H 0.1028 0.61044 0.55026 0.0
H731 H 0.12038 0.6073 0.47878 0.0
C732 C 0.07078 0.85594 0.07678 0.0
C733 C 0.07141 0.83185 0.05172 0.0
C734 C 0.06935 0.87667 0.03717 0.0
C735 C 0.06868 0.87314 0.97113 0.0
C736 C 0.07093 0.84899 0.94567 0.0
C737 C 0.07217 0.82862 0.98633 0.0
C738 C 0.0669 0.90212 0.06607 0.0
C739 C 0.07054 0.84447 0.87553 0.0
C740 C 0.03179 0.91652 0.87197 0.0
C741 C 0.05011 0.93165 0.84369 0.0
C742 C 0.03766 0.89782 0.91445 0.0
C743 C 0.0625 0.89399 0.92901 0.0
C744 C 0.08112 0.90938 0.90158 0.0
C745 C 0.0747 0.92811 0.85927 0.0
C746 C 0.01723 0.88186 0.94297 0.0
C747 C 0.1078 0.90575 0.916 0.0
H748 H 0.07006 0.85845 0.12736 0.0
H749 H 0.073 0.81 0.96698 0.0
H750 H 0.07936 0.91594 0.04264 0.0
H751 H 0.04792 0.90826 0.05918 0.0
H752 H 0.07095 0.90219 0.1173 0.0
H753 H 0.07538 0.82517 0.86331 0.0
H754 H 0.05196 0.84773 0.85691 0.0
H755 H 0.08347 0.85765 0.85143 0.0
H756 H 0.01272 0.91918 0.86069 0.0
H757 H 0.08898 0.9397 0.8377 0.0
H758 H 0.0184 0.88252 0.99506 0.0
H759 H 0.01908 0.86219 0.92847 0.0
H760 H 0.99883 0.88786 0.92851 0.0
H761 H 0.11095 0.90646 0.96755 0.0
H762 H 0.11999 0.92003 0.89318 0.0
H763 H 0.11304 0.8871 0.89955 0.0
C764 C 0.67687 0.09501 0.92768 0.0
C765 C 0.67537 0.09589 0.99345 0.0
C766 C 0.65605 0.08957 0.89095 0.0
C767 C 0.63323 0.08481 0.92084 0.0
C768 C 0.6312 0.08807 0.98674 0.0
C769 C 0.65237 0.09358 0.0224 0.0
C770 C 0.65899 0.08656 0.82075 0.0
C771 C 0.60717 0.08341 0.02033 0.0
C772 C 0.57821 0.07225 0.81366 0.0
C773 C 0.57851 0.04626 0.8077 0.0
C774 C 0.59538 0.08521 0.85211 0.0
C775 C 0.61313 0.07182 0.88515 0.0
C776 C 0.61284 0.04555 0.88114 0.0
C777 C 0.59559 0.03315 0.84258 0.0
C778 C 0.59509 0.11321 0.8556 0.0
C779 C 0.63132 0.03047 0.91593 0.0
H780 H 0.6946 0.09725 0.90517 0.0
H781 H 0.65114 0.09425 0.07328 0.0
H782 H 0.65804 0.06647 0.80859 0.0
H783 H 0.64398 0.09552 0.7952 0.0
H784 H 0.67678 0.09464 0.80386 0.0
H785 H 0.60752 0.09142 0.06856 0.0
H786 H 0.59188 0.09137 0.99364 0.0
H787 H 0.60335 0.06306 0.02409 0.0
H788 H 0.56504 0.08251 0.78698 0.0
H789 H 0.5958 0.01306 0.83904 0.0
H790 H 0.61123 0.12134 0.83041 0.0
H791 H 0.59637 0.11961 0.90519 0.0
H792 H 0.57829 0.12056 0.83412 0.0
H793 H 0.62785 0.01011 0.91002 0.0
H794 H 0.63098 0.03491 0.9669 0.0
H795 H 0.65002 0.03529 0.89849 0.0
C796 C 0.46569 0.65609 0.97178 0.0
C797 C 0.47247 0.65451 0.03527 0.0
C798 C 0.46778 0.63572 0.93108 0.0
C799 C 0.47679 0.61321 0.95454 0.0
C800 C 0.48216 0.61099 0.01939 0.0
C801 C 0.48001 0.63169 0.05896 0.0
C802 C 0.46178 0.63878 0.86225 0.0
C803 C 0.49174 0.58727 0.04627 0.0
C804 C 0.47324 0.55523 0.85147 0.0
C805 C 0.49687 0.55551 0.82553 0.0
C806 C 0.46637 0.57383 0.8938 0.0
C807 C 0.48348 0.59317 0.91021 0.0
C808 C 0.50731 0.59352 0.88424 0.0
C809 C 0.51371 0.57469 0.84245 0.0
C810 C 0.44084 0.57284 0.92093 0.0
C811 C 0.52609 0.61387 0.90039 0.0
H812 H 0.45946 0.67355 0.95344 0.0
H813 H 0.48552 0.63034 0.10779 0.0
H814 H 0.47893 0.6389 0.83434 0.0
H815 H 0.44999 0.62292 0.8453 0.0
H816 H 0.45236 0.65635 0.8529 0.0
H817 H 0.49198 0.58747 0.09853 0.0
H818 H 0.48042 0.57095 0.03007 0.0
H819 H 0.51068 0.58477 0.02932 0.0
H820 H 0.46011 0.54048 0.83877 0.0
H821 H 0.53198 0.57518 0.82263 0.0
H822 H 0.4313 0.59 0.90848 0.0
H823 H 0.44176 0.57204 0.97302 0.0
H824 H 0.42974 0.55649 0.90367 0.0
H825 H 0.51906 0.63225 0.88734 0.0
H826 H 0.5438 0.61147 0.87593 0.0
H827 H 0.52949 0.61419 0.95186 0.0
C828 C 0.86963 0.4387 0.99722 0.0
C829 C 0.86127 0.4156 0.02078 0.0
C830 C 0.8895 0.4406 0.95591 0.0
C831 C 0.90166 0.41888 0.93827 0.0
C832 C 0.89386 0.39554 0.96324 0.0
C833 C 0.87365 0.39415 0.00414 0.0
C834 C 0.89726 0.4659 0.93049 0.0
C835 C 0.9066 0.37207 0.94599 0.0
C836 C 0.93546 0.42885 0.78506 0.0
C837 C 0.95834 0.43791 0.80681 0.0
C838 C 0.91726 0.42055 0.82735 0.0
C839 C 0.92223 0.42105 0.89275 0.0
C840 C 0.94606 0.42776 0.91438 0.0
C841 C 0.96381 0.43627 0.87115 0.0
C842 C 0.89207 0.41355 0.80236 0.0
C843 C 0.95224 0.42805 0.98362 0.0
H844 H 0.86056 0.45543 0.01109 0.0
H845 H 0.86722 0.37622 0.02199 0.0
H846 H 0.91659 0.47041 0.94333 0.0
H847 H 0.89609 0.4658 0.87837 0.0
H848 H 0.88575 0.48091 0.94871 0.0
H849 H 0.89939 0.35569 0.97282 0.0
H850 H 0.9042 0.36821 0.89503 0.0
H851 H 0.92655 0.37443 0.9549 0.0
H852 H 0.93109 0.42992 0.7354 0.0
H853 H 0.98159 0.44287 0.88825 0.0
H854 H 0.8795 0.42877 0.81283 0.0
H855 H 0.88456 0.3965 0.82562 0.0
H856 H 0.89216 0.41044 0.75067 0.0
H857 H 0.94407 0.44441 0.00617 0.0
H858 H 0.97233 0.42923 0.99183 0.0
H859 H 0.94449 0.41116 0.00719 0.0
C860 C 0.11069 0.16867 0.95006 0.0
C861 C 0.10405 0.16852 0.01371 0.0
C862 C 0.10497 0.14808 0.91121 0.0
C863 C 0.09249 0.12691 0.93692 0.0
C864 C 0.08676 0.12629 0.00179 0.0
C865 C 0.0926 0.1471 0.03933 0.0
C866 C 0.11135 0.14939 0.84221 0.0
C867 C 0.07358 0.10403 0.03113 0.0
C868 C 0.04999 0.08782 0.8328 0.0
C869 C 0.06366 0.06666 0.82161 0.0
C870 C 0.05942 0.10767 0.86916 0.0
C871 C 0.08315 0.10644 0.89527 0.0
C872 C 0.09722 0.08531 0.88389 0.0
C873 C 0.0873 0.06562 0.84713 0.0
C874 C 0.04379 0.12985 0.88035 0.0
C875 C 0.12259 0.08339 0.91115 0.0
H876 H 0.11961 0.18518 0.93022 0.0
H877 H 0.08798 0.14669 0.08892 0.0
H878 H 0.12093 0.1325 0.82757 0.0
H879 H 0.09431 0.15005 0.81394 0.0
H880 H 0.12313 0.16605 0.83086 0.0
H881 H 0.07231 0.10568 0.08313 0.0
H882 H 0.05476 0.10204 0.01168 0.0
H883 H 0.08309 0.08675 0.01949 0.0
H884 H 0.03175 0.08892 0.81322 0.0
H885 H 0.09803 0.04942 0.83858 0.0
H886 H 0.0537 0.14716 0.86505 0.0
H887 H 0.04 0.13177 0.93137 0.0
H888 H 0.02604 0.12827 0.85488 0.0
H889 H 0.13425 0.09974 0.89699 0.0
H890 H 0.13155 0.06621 0.89577 0.0
H891 H 0.12163 0.0835 0.96328 0.0
C892 C 0.34458 0.04902 0.9154 0.0
C893 C 0.34423 0.03997 0.97719 0.0
C894 C 0.36414 0.0442 0.8748 0.0
C895 C 0.38395 0.03037 0.89702 0.0
C896 C 0.38353 0.02099 0.95915 0.0
C897 C 0.36365 0.02581 0.99832 0.0
C898 C 0.3638 0.05417 0.80851 0.0
C899 C 0.40439 0.00641 0.9849 0.0
C900 C 0.42723 0.99913 0.78469 0.0
C901 C 0.4475 0.01594 0.78459 0.0
C902 C 0.40614 0.00396 0.81953 0.0
C903 C 0.4054 0.02596 0.85596 0.0
C904 C 0.42569 0.04313 0.85568 0.0
C905 C 0.44644 0.038 0.81963 0.0
C906 C 0.38476 0.98536 0.81799 0.0
C907 C 0.4257 0.06665 0.89459 0.0
H908 H 0.32959 0.05995 0.89897 0.0
H909 H 0.36373 0.01922 0.04648 0.0
H910 H 0.37943 0.06763 0.8016 0.0
H911 H 0.366 0.0388 0.77431 0.0
H912 H 0.34656 0.0636 0.79762 0.0
H913 H 0.40108 0.00015 0.03402 0.0
H914 H 0.40728 0.98982 0.95509 0.0
H915 H 0.42158 0.01804 0.98378 0.0
H916 H 0.42776 0.98217 0.75718 0.0
H917 H 0.46201 0.05107 0.81982 0.0
H918 H 0.36777 0.99472 0.80468 0.0
H919 H 0.3818 0.97734 0.86553 0.0
H920 H 0.38766 0.96992 0.78433 0.0
H921 H 0.40968 0.07773 0.88216 0.0
H922 H 0.44263 0.07841 0.88786 0.0
H923 H 0.42404 0.06186 0.9452 0.0
C924 C 0.42926 0.31827 0.91828 0.0
C925 C 0.4398 0.31595 0.97807 0.0
C926 C 0.4357 0.33855 0.87926 0.0
C927 C 0.45291 0.35699 0.90086 0.0
C928 C 0.46322 0.35496 0.96166 0.0
C929 C 0.45657 0.33448 0.99938 0.0
C930 C 0.42446 0.34001 0.81454 0.0
C931 C 0.48152 0.37427 0.98666 0.0
C932 C 0.49192 0.39498 0.78647 0.0
C933 C 0.48089 0.41815 0.78798 0.0
C934 C 0.48244 0.37474 0.82119 0.0
C935 C 0.46143 0.37766 0.85888 0.0
C936 C 0.44976 0.40076 0.85946 0.0
C937 C 0.45959 0.42074 0.82377 0.0
C938 C 0.49536 0.35041 0.81891 0.0
C939 C 0.42737 0.40457 0.89929 0.0
H940 H 0.41626 0.30401 0.90167 0.0
H941 H 0.46433 0.33312 0.04616 0.0
H942 H 0.41581 0.35817 0.80826 0.0
H943 H 0.43897 0.3388 0.77831 0.0
H944 H 0.41047 0.32487 0.80598 0.0
H945 H 0.48696 0.37054 0.03603 0.0
H946 H 0.49821 0.37471 0.95696 0.0
H947 H 0.47376 0.39301 0.98447 0.0
H948 H 0.50822 0.39263 0.75841 0.0
H949 H 0.45092 0.43853 0.82511 0.0
H950 H 0.4822 0.33493 0.80685 0.0
H951 H 0.50307 0.34633 0.86593 0.0
H952 H 0.51049 0.35069 0.78404 0.0
H953 H 0.41314 0.38986 0.88917 0.0
H954 H 0.41946 0.42303 0.89124 0.0
H955 H 0.43224 0.40306 0.9498 0.0
C956 C 0.19002 0.46072 0.93368 0.0
C957 C 0.19711 0.4817 0.96954 0.0
C958 C 0.17126 0.46184 0.88885 0.0
C959 C 0.15949 0.48453 0.8795 0.0
C960 C 0.16814 0.50628 0.91123 0.0
C961 C 0.18683 0.5046 0.95606 0.0
C962 C 0.16269 0.43827 0.85552 0.0
C963 C 0.15626 0.53091 0.90197 0.0
C964 C 0.11347 0.49081 0.74691 0.0
C965 C 0.0912 0.48681 0.77893 0.0
C966 C 0.13594 0.48993 0.77873 0.0
C967 C 0.13611 0.48479 0.84393 0.0
C968 C 0.11373 0.48035 0.87627 0.0
C969 C 0.09157 0.48149 0.84343 0.0
C970 C 0.15944 0.49489 0.7429 0.0
C971 C 0.11317 0.47465 0.94584 0.0
H972 H 0.19822 0.44307 0.94318 0.0
H973 H 0.19205 0.52088 0.98381 0.0
H974 H 0.14489 0.43165 0.87558 0.0
H975 H 0.15975 0.44177 0.80472 0.0
H976 H 0.17594 0.42324 0.86066 0.0
H977 H 0.1674 0.54662 0.92245 0.0
H978 H 0.15333 0.53458 0.85124 0.0
H979 H 0.13804 0.53033 0.92503 0.0
H980 H 0.11337 0.495 0.69706 0.0
H981 H 0.0745 0.47827 0.8685 0.0
H982 H 0.17179 0.47917 0.74885 0.0
H983 H 0.16914 0.51174 0.76207 0.0
H984 H 0.1562 0.4977 0.69184 0.0
H985 H 0.12408 0.45811 0.95576 0.0
H986 H 0.09427 0.47102 0.96357 0.0
H987 H 0.12158 0.4905 0.97263 0.0
C988 C 0.00141 0.80756 0.46873 0.0
C989 C 0.99671 0.80482 0.40402 0.0
C990 C 0.996 0.82954 0.50063 0.0
C991 C 0.98456 0.84881 0.4678 0.0
C992 C 0.97656 0.84469 0.40522 0.0
C993 C 0.98315 0.82298 0.37358 0.0
C994 C 0.00472 0.83306 0.56759 0.0
C995 C 0.96285 0.86412 0.36995 0.0
C996 C 0.97098 0.90582 0.56699 0.0
C997 C 0.99121 0.92154 0.55255 0.0
C998 C 0.96757 0.88258 0.53699 0.0
C999 C 0.98552 0.87448 0.49423 0.0
C1000 C 0.00576 0.89055 0.47901 0.0
C1001 C 0.00805 0.91402 0.50734 0.0
C1002 C 0.94517 0.8666 0.55274 0.0
C1003 C 0.02576 0.88253 0.43509 0.0
H1004 H 0.0108 0.79319 0.49369 0.0
H1005 H 0.97909 0.82125 0.32386 0.0
H1006 H 0.01958 0.84769 0.56911 0.0
H1007 H 0.98963 0.83938 0.59772 0.0
H1008 H 0.0118 0.81571 0.58783 0.0
H1009 H 0.95327 0.85611 0.32803 0.0
H1010 H 0.94922 0.87278 0.40101 0.0
H1011 H 0.97589 0.87905 0.35382 0.0
H1012 H 0.95789 0.91162 0.60188 0.0
H1013 H 0.02389 0.92599 0.49661 0.0
H1014 H 0.94937 0.85431 0.59284 0.0
H1015 H 0.93921 0.8547 0.5124 0.0
H1016 H 0.92971 0.8782 0.56705 0.0
H1017 H 0.03386 0.86529 0.45301 0.0
H1018 H 0.04064 0.897 0.42984 0.0
H1019 H 0.01804 0.87829 0.38785 0.0
C1020 C 0.69339 0.04282 0.39575 0.0
C1021 C 0.70881 0.02798 0.3602 0.0
C1022 C 0.6746 0.03216 0.4327 0.0
C1023 C 0.67107 0.00596 0.43427 0.0
C1024 C 0.68728 0.99078 0.40101 0.0
C1025 C 0.70593 0.00199 0.36409 0.0
C1026 C 0.65768 0.04905 0.46733 0.0
C1027 C 0.68429 0.96279 0.40223 0.0
C1028 C 0.62706 0.98452 0.56262 0.0
C1029 C 0.60467 0.98412 0.53009 0.0
C1030 C 0.64925 0.98985 0.5312 0.0
C1031 C 0.64897 0.99495 0.4659 0.0
C1032 C 0.62667 0.99264 0.4321 0.0
C1033 C 0.60483 0.9872 0.46454 0.0
C1034 C 0.6727 0.99176 0.56871 0.0
C1035 C 0.62556 0.99779 0.36233 0.0
H1036 H 0.69521 0.0629 0.39231 0.0
H1037 H 0.71796 0.99042 0.33726 0.0
H1038 H 0.63903 0.04718 0.44679 0.0
H1039 H 0.65629 0.04361 0.51753 0.0
H1040 H 0.66394 0.06891 0.46481 0.0
H1041 H 0.70024 0.95366 0.38111 0.0
H1042 H 0.68183 0.95608 0.45121 0.0
H1043 H 0.66762 0.95688 0.3755 0.0
H1044 H 0.6272 0.982 0.6132 0.0
H1045 H 0.5877 0.98661 0.43875 0.0
H1046 H 0.6783 0.01165 0.57502 0.0
H1047 H 0.68771 0.98267 0.5434 0.0
H1048 H 0.67058 0.98318 0.61597 0.0
H1049 H 0.62942 0.01791 0.35388 0.0
H1050 H 0.60736 0.99263 0.34189 0.0
H1051 H 0.6397 0.98743 0.337 0.0
C1052 C 0.53374 0.66865 0.42892 0.0
C1053 C 0.55008 0.67952 0.38529 0.0
C1054 C 0.53957 0.64717 0.46194 0.0
C1055 C 0.56243 0.63631 0.45153 0.0
C1056 C 0.57969 0.64808 0.4107 0.0
C1057 C 0.57322 0.66946 0.37753 0.0
C1058 C 0.52051 0.63518 0.50475 0.0
C1059 C 0.60445 0.6374 0.39949 0.0
C1060 C 0.57296 0.58539 0.57015 0.0
C1061 C 0.56264 0.5646 0.53841 0.0
C1062 C 0.57519 0.60869 0.54048 0.0
C1063 C 0.56664 0.61124 0.47802 0.0
C1064 C 0.55832 0.58989 0.44407 0.0
C1065 C 0.5566 0.56682 0.47451 0.0
C1066 C 0.58487 0.63088 0.57762 0.0
C1067 C 0.54907 0.59173 0.3773 0.0
H1068 H 0.51569 0.67604 0.43452 0.0
H1069 H 0.586 0.67792 0.34423 0.0
H1070 H 0.51423 0.61694 0.48489 0.0
H1071 H 0.52848 0.63166 0.55175 0.0
H1072 H 0.50433 0.64684 0.51086 0.0
H1073 H 0.61732 0.6511 0.37679 0.0
H1074 H 0.61261 0.63118 0.44434 0.0
H1075 H 0.60239 0.6209 0.36828 0.0
H1076 H 0.57802 0.58384 0.61927 0.0
H1077 H 0.54894 0.55085 0.44914 0.0
H1078 H 0.56933 0.64198 0.59355 0.0
H1079 H 0.59689 0.64312 0.54803 0.0
H1080 H 0.5953 0.62518 0.61977 0.0
H1081 H 0.5316 0.60162 0.37705 0.0
H1082 H 0.54577 0.57316 0.35528 0.0
H1083 H 0.56231 0.60262 0.3479 0.0
C1084 C 0.84237 0.5045 0.33486 0.0
C1085 C 0.82125 0.49426 0.36371 0.0
C1086 C 0.86209 0.5139 0.37102 0.0
C1087 C 0.8606 0.51288 0.43743 0.0
C1088 C 0.83811 0.50583 0.46639 0.0
C1089 C 0.81865 0.49649 0.42908 0.0
C1090 C 0.8856 0.52166 0.33812 0.0
C1091 C 0.83554 0.50512 0.53701 0.0
C1092 C 0.91668 0.4882 0.51587 0.0
C1093 C 0.92787 0.50965 0.5424 0.0
C1094 C 0.89482 0.48922 0.48215 0.0
C1095 C 0.88359 0.51232 0.47464 0.0
C1096 C 0.89462 0.53415 0.50125 0.0
C1097 C 0.91672 0.53257 0.53495 0.0
C1098 C 0.88386 0.46542 0.45414 0.0
C1099 C 0.88301 0.55902 0.49471 0.0
H1100 H 0.84456 0.50297 0.28434 0.0
H1101 H 0.80209 0.4892 0.45149 0.0
H1102 H 0.89483 0.53773 0.36222 0.0
H1103 H 0.89824 0.50598 0.33911 0.0
H1104 H 0.88234 0.52664 0.28819 0.0
H1105 H 0.81602 0.50478 0.55161 0.0
H1106 H 0.8439 0.48808 0.55524 0.0
H1107 H 0.84522 0.52139 0.55911 0.0
H1108 H 0.9251 0.47039 0.521 0.0
H1109 H 0.92518 0.54921 0.55557 0.0
H1110 H 0.88227 0.46727 0.40234 0.0
H1111 H 0.86517 0.46172 0.47301 0.0
H1112 H 0.89499 0.44904 0.46438 0.0
H1113 H 0.8778 0.5624 0.44508 0.0
H1114 H 0.89536 0.5746 0.51098 0.0
H1115 H 0.86599 0.55907 0.52305 0.0
loop_
_geom_bond_atom_site_label_1
_geom_bond_atom_site_label_2
_geom_bond_distance
_geom_bond_site_symmetry_2
_ccdc_geom_bond_type
P0 O11 1.490 . S
P0 C14 1.812 . S
P0 C20 1.803 . S
P0 C26 1.819 1_554 S
H1 C15 0.941 . S
H2 C16 0.939 . S
H3 C18 0.940 . S
H4 C19 0.940 . S
H5 C21 0.939 . S
H6 C22 0.942 . S
H7 C24 0.940 . S
H8 C25 0.939 . S
H9 C27 0.941 1_554 S
H10 C31 0.939 . S
O11 P0 1.490 . S
H12 C28 0.939 . S
H13 C30 0.940 . S
C14 P0 1.812 . S
C14 C15 1.389 . S
C14 C19 1.391 . S
C15 H1 0.941 . S
C15 C14 1.389 . S
C15 C16 1.397 . S
C16 H2 0.939 . S
C16 C15 1.397 . S
C16 C17 1.378 . S
C17 C16 1.378 . S
C17 C18 1.378 . S
C18 H3 0.940 . S
C18 C17 1.378 . S
C18 C19 1.396 . S
C19 H4 0.940 . S
C19 C14 1.391 . S
C19 C18 1.396 . S
C20 P0 1.803 . S
C20 C21 1.378 1_554 S
C20 C25 1.400 . S
C21 H5 0.939 . S
C21 C20 1.378 1_556 S
C21 C22 1.361 . S
C22 H6 0.942 . S
C22 C21 1.361 . S
C22 C23 1.369 . S
C23 C22 1.369 . S
C23 C24 1.404 1_556 S
C24 H7 0.940 . S
C24 C23 1.404 1_554 S
C24 C25 1.389 . S
C25 H8 0.939 . S
C25 C20 1.400 . S
C25 C24 1.389 . S
C26 P0 1.819 1_556 S
C26 C27 1.391 . S
C26 C31 1.391 . S
C27 H9 0.941 1_556 S
C27 C26 1.391 . S
C27 C28 1.396 . S
C28 H12 0.939 . S
C28 C27 1.396 . S
C28 C29 1.397 . S
C29 C28 1.397 . S
C29 C30 1.385 . S
C30 H13 0.940 . S
C30 C29 1.385 . S
C30 C31 1.388 . S
C31 H10 0.939 . S
C31 C26 1.391 . S
C31 C30 1.388 . S
P32 O43 1.490 . S
P32 C46 1.812 . S
P32 C52 1.803 . S
P32 C58 1.819 . S
H33 C47 0.941 . S
H34 C48 0.939 . S
H35 C50 0.940 . S
H36 C51 0.940 . S
H37 C53 0.939 . S
H38 C54 0.942 . S
H39 C56 0.940 . S
H40 C57 0.939 . S
H41 C59 0.941 . S
H42 C63 0.924 1_655 S
O43 P32 1.490 . S
H44 C60 0.939 . S
H45 C62 0.940 . S
C46 P32 1.812 . S
C46 C47 1.389 . S
C46 C51 1.391 1_455 S
C47 H33 0.941 . S
C47 C46 1.389 . S
C47 C48 1.397 . S
C48 H34 0.939 . S
C48 C47 1.397 . S
C48 C49 1.403 . S
C49 C48 1.403 . S
C49 C50 1.363 1_455 S
C50 H35 0.940 . S
C50 C49 1.363 1_655 S
C50 C51 1.396 . S
C51 H36 0.940 . S
C51 C46 1.391 1_655 S
C51 C50 1.396 . S
C52 P32 1.803 . S
C52 C53 1.378 . S
C52 C57 1.400 1_455 S
C53 H37 0.939 . S
C53 C52 1.378 . S
C53 C54 1.361 . S
C54 H38 0.942 . S
C54 C53 1.361 . S
C54 C55 1.369 1_455 S
C55 C54 1.369 1_655 S
C55 C56 1.404 . S
C56 H39 0.940 . S
C56 C55 1.404 . S
C56 C57 1.389 . S
C57 H40 0.939 . S
C57 C52 1.400 1_655 S
C57 C56 1.389 . S
C58 P32 1.819 . S
C58 C59 1.391 . S
C58 C63 1.425 . S
C59 H41 0.941 . S
C59 C58 1.391 . S
C59 C60 1.396 . S
C60 H44 0.939 . S
C60 C59 1.396 . S
C60 C61 1.397 1_554 S
C61 C60 1.397 1_556 S
C61 C62 1.385 1_455 S
C62 H45 0.940 . S
C62 C61 1.385 1_655 S
C62 C63 1.372 1_656 S
C63 H42 0.924 1_455 S
C63 C58 1.425 . S
C63 C62 1.372 1_454 S
P64 O75 1.490 . S
P64 C78 1.812 . S
P64 C84 1.803 . S
P64 C90 1.819 . S
H65 C79 0.941 . S
H66 C80 0.939 . S
H67 C82 0.940 . S
H68 C83 0.948 . S
H69 C85 0.939 . S
H70 C86 0.942 1_556 S
H71 C88 0.940 . S
H72 C89 0.963 . S
H73 C91 0.941 . S
H74 C95 0.928 1_565 S
O75 P64 1.490 . S
H76 C92 0.939 . S
H77 C94 0.940 . S
C78 P64 1.812 . S
C78 C79 1.389 . S
C78 C83 1.378 1_545 S
C79 H65 0.941 . S
C79 C78 1.389 . S
C79 C80 1.397 . S
C80 H66 0.939 . S
C80 C79 1.397 . S
C80 C81 1.378 . S
C81 C80 1.378 . S
C81 C82 1.378 1_545 S
C82 H67 0.940 . S
C82 C81 1.378 1_565 S
C82 C83 1.401 . S
C83 H68 0.948 . S
C83 C78 1.378 1_565 S
C83 C82 1.401 . S
C84 P64 1.803 . S
C84 C85 1.378 . S
C84 C89 1.361 1_545 S
C85 H69 0.939 . S
C85 C84 1.378 . S
C85 C86 1.361 . S
C86 H70 0.942 1_554 S
C86 C85 1.361 . S
C86 C87 1.369 . S
C87 C86 1.369 . S
C87 C88 1.404 1_545 S
C88 H71 0.940 . S
C88 C87 1.404 1_565 S
C88 C89 1.406 . S
C89 H72 0.963 . S
C89 C84 1.361 1_565 S
C89 C88 1.406 . S
C90 P64 1.819 . S
C90 C91 1.391 . S
C90 C95 1.391 1_554 S
C91 H73 0.941 . S
C91 C90 1.391 . S
C91 C92 1.396 1_554 S
C92 H76 0.939 . S
C92 C91 1.396 1_556 S
C92 C93 1.397 . S
C93 C92 1.397 . S
C93 C94 1.385 1_545 S
C94 H77 0.940 . S
C94 C93 1.385 1_565 S
C94 C95 1.388 1_565 S
C95 H74 0.928 1_545 S
C95 C90 1.391 1_556 S
C95 C94 1.388 1_545 S
P96 O107 1.490 . S
P96 C110 1.812 . S
P96 C116 1.803 . S
P96 C122 1.819 1_554 S
H97 C111 0.941 . S
H98 C112 0.939 . S
H99 C114 0.940 . S
H100 C115 0.940 . S
H101 C117 0.939 1_556 S
H102 C118 0.942 . S
H103 C120 0.940 . S
H104 C121 0.939 . S
H105 C123 0.941 1_554 S
H106 C127 0.939 . S
O107 P96 1.490 . S
H108 C124 0.939 . S
H109 C126 0.940 . S
C110 P96 1.812 . S
C110 C111 1.389 . S
C110 C115 1.391 . S
C111 H97 0.941 . S
C111 C110 1.389 . S
C111 C112 1.397 . S
C112 H98 0.939 . S
C112 C111 1.397 . S
C112 C113 1.378 . S
C113 C112 1.378 . S
C113 C114 1.378 . S
C114 H99 0.940 . S
C114 C113 1.378 . S
C114 C115 1.396 . S
C115 H100 0.940 . S
C115 C110 1.391 . S
C115 C114 1.396 . S
C116 P96 1.803 . S
C116 C117 1.378 . S
C116 C121 1.400 . S
C117 H101 0.939 1_554 S
C117 C116 1.378 . S
C117 C118 1.361 1_554 S
C118 H102 0.942 . S
C118 C117 1.361 1_556 S
C118 C119 1.369 1_556 S
C119 C118 1.369 1_554 S
C119 C120 1.404 . S
C120 H103 0.940 . S
C120 C119 1.404 . S
C120 C121 1.389 . S
C121 H104 0.939 . S
C121 C116 1.400 . S
C121 C120 1.389 . S
C122 P96 1.819 1_556 S
C122 C123 1.391 . S
C122 C127 1.391 . S
C123 H105 0.941 1_556 S
C123 C122 1.391 . S
C123 C124 1.396 . S
C124 H108 0.939 . S
C124 C123 1.396 . S
C124 C125 1.397 . S
C125 C124 1.397 . S
C125 C126 1.385 . S
C126 H109 0.940 . S
C126 C125 1.385 . S
C126 C127 1.388 . S
C127 H106 0.939 . S
C127 C122 1.391 . S
C127 C126 1.388 . S
P128 O139 1.490 . S
P128 C142 1.812 . S
P128 C148 1.803 . S
P128 C154 1.819 . S
H129 C143 0.941 . S
H130 C144 0.939 . S
H131 C146 0.940 . S
H132 C147 0.940 . S
H133 C149 0.939 . S
H134 C150 0.942 . S
H135 C152 0.940 . S
H136 C153 0.939 . S
H137 C155 0.941 . S
H138 C159 0.939 . S
O139 P128 1.490 . S
H140 C156 0.939 . S
H141 C158 0.940 . S
C142 P128 1.812 . S
C142 C143 1.389 . S
C142 C147 1.391 . S
C143 H129 0.941 . S
C143 C142 1.389 . S
C143 C144 1.397 . S
C144 H130 0.939 . S
C144 C143 1.397 . S
C144 C145 1.378 . S
C145 C144 1.378 . S
C145 C146 1.378 . S
C146 H131 0.940 . S
C146 C145 1.378 . S
C146 C147 1.396 . S
C147 H132 0.940 . S
C147 C142 1.391 . S
C147 C146 1.396 . S
C148 P128 1.803 . S
C148 C149 1.378 . S
C148 C153 1.400 . S
C149 H133 0.939 . S
C149 C148 1.378 . S
C149 C150 1.361 . S
C150 H134 0.942 . S
C150 C149 1.361 . S
C150 C151 1.369 . S
C151 C150 1.369 . S
C151 C152 1.404 . S
C152 H135 0.940 . S
C152 C151 1.404 . S
C152 C153 1.389 . S
C153 H136 0.939 . S
C153 C148 1.400 . S
C153 C152 1.389 . S
C154 P128 1.819 . S
C154 C155 1.391 . S
C154 C159 1.391 . S
C155 H137 0.941 . S
C155 C154 1.391 . S
C155 C156 1.396 . S
C156 H140 0.939 . S
C156 C155 1.396 . S
C156 C157 1.397 . S
C157 C156 1.397 . S
C157 C158 1.385 . S
C158 H141 0.940 . S
C158 C157 1.385 . S
C158 C159 1.388 . S
C159 H138 0.939 . S
C159 C154 1.391 . S
C159 C158 1.388 . S
P160 O171 1.490 . S
P160 C174 1.812 . S
P160 C180 1.803 . S
P160 C186 1.819 . S
H161 C175 0.941 . S
H162 C176 0.939 . S
H163 C178 0.940 . S
H164 C179 0.940 . S
H165 C181 0.939 . S
H166 C182 0.942 . S
H167 C184 0.940 . S
H168 C185 0.939 . S
H169 C187 0.941 . S
H170 C191 0.939 . S
O171 P160 1.490 . S
H172 C188 0.939 . S
H173 C190 0.940 . S
C174 P160 1.812 . S
C174 C175 1.389 . S
C174 C179 1.391 . S
C175 H161 0.941 . S
C175 C174 1.389 . S
C175 C176 1.397 . S
C176 H162 0.939 . S
C176 C175 1.397 . S
C176 C177 1.378 . S
C177 C176 1.378 . S
C177 C178 1.378 . S
C178 H163 0.940 . S
C178 C177 1.378 . S
C178 C179 1.396 . S
C179 H164 0.940 . S
C179 C174 1.391 . S
C179 C178 1.396 . S
C180 P160 1.803 . S
C180 C181 1.378 . S
C180 C185 1.400 . S
C181 H165 0.939 . S
C181 C180 1.378 . S
C181 C182 1.361 . S
C182 H166 0.942 . S
C182 C181 1.361 . S
C182 C183 1.369 . S
C183 C182 1.369 . S
C183 C184 1.404 . S
C184 H167 0.940 . S
C184 C183 1.404 . S
C184 C185 1.389 . S
C185 H168 0.939 . S
C185 C180 1.400 . S
C185 C184 1.389 . S
C186 P160 1.819 . S
C186 C187 1.391 . S
C186 C191 1.391 . S
C187 H169 0.941 . S
C187 C186 1.391 . S
C187 C188 1.396 . S
C188 H172 0.939 . S
C188 C187 1.396 . S
C188 C189 1.397 . S
C189 C188 1.397 . S
C189 C190 1.385 . S
C190 H173 0.940 . S
C190 C189 1.385 . S
C190 C191 1.388 . S
C191 H170 0.939 . S
C191 C186 1.391 . S
C191 C190 1.388 . S
P192 O203 1.490 . S
P192 C206 1.812 . S
P192 C212 1.803 . S
P192 C218 1.819 . S
H193 C207 0.941 . S
H194 C208 0.939 . S
H195 C210 0.940 . S
H196 C211 0.942 . S
H197 C213 0.939 . S
H198 C214 0.942 . S
H199 C216 0.940 . S
H200 C217 0.958 . S
H201 C219 0.941 . S
H202 C223 0.933 1_565 S
O203 P192 1.490 . S
H204 C220 0.939 . S
H205 C222 0.940 . S
C206 P192 1.812 . S
C206 C207 1.389 . S
C206 C211 1.388 1_545 S
C207 H193 0.941 . S
C207 C206 1.389 . S
C207 C208 1.397 . S
C208 H194 0.939 . S
C208 C207 1.397 . S
C208 C209 1.378 . S
C209 C208 1.378 . S
C209 C210 1.378 1_545 S
C210 H195 0.940 . S
C210 C209 1.378 1_565 S
C210 C211 1.398 . S
C211 H196 0.942 . S
C211 C206 1.388 1_565 S
C211 C210 1.398 . S
C212 P192 1.803 . S
C212 C213 1.378 . S
C212 C217 1.372 1_545 S
C213 H197 0.939 . S
C213 C212 1.378 . S
C213 C214 1.361 . S
C214 H198 0.942 . S
C214 C213 1.361 . S
C214 C215 1.369 . S
C215 C214 1.369 . S
C215 C216 1.404 1_545 S
C216 H199 0.940 . S
C216 C215 1.404 1_565 S
C216 C217 1.400 . S
C217 H200 0.958 . S
C217 C212 1.372 1_565 S
C217 C216 1.400 . S
C218 P192 1.819 . S
C218 C219 1.391 . S
C218 C223 1.391 . S
C219 H201 0.941 . S
C219 C218 1.391 . S
C219 C220 1.396 . S
C220 H204 0.939 . S
C220 C219 1.396 . S
C220 C221 1.397 . S
C221 C220 1.397 . S
C221 C222 1.385 1_545 S
C222 H205 0.940 . S
C222 C221 1.385 1_565 S
C222 C223 1.388 1_565 S
C223 H202 0.933 1_545 S
C223 C218 1.391 . S
C223 C222 1.388 1_545 S
P224 O235 1.490 . S
P224 C238 1.812 . S
P224 C244 1.803 . S
P224 C250 1.819 . S
H225 C239 0.941 . S
H226 C240 0.939 . S
H227 C242 0.940 . S
H228 C243 0.940 . S
H229 C245 0.939 . S
H230 C246 0.942 . S
H231 C248 0.940 . S
H232 C249 0.939 . S
H233 C251 0.941 . S
H234 C255 0.939 . S
O235 P224 1.490 . S
H236 C252 0.939 . S
H237 C254 0.940 . S
C238 P224 1.812 . S
C238 C239 1.389 . S
C238 C243 1.391 . S
C239 H225 0.941 . S
C239 C238 1.389 . S
C239 C240 1.397 . S
C240 H226 0.939 . S
C240 C239 1.397 . S
C240 C241 1.378 . S
C241 C240 1.378 . S
C241 C242 1.378 . S
C242 H227 0.940 . S
C242 C241 1.378 . S
C242 C243 1.396 . S
C243 H228 0.940 . S
C243 C238 1.391 . S
C243 C242 1.396 . S
C244 P224 1.803 . S
C244 C245 1.378 . S
C244 C249 1.400 . S
C245 H229 0.939 . S
C245 C244 1.378 . S
C245 C246 1.361 . S
C246 H230 0.942 . S
C246 C245 1.361 . S
C246 C247 1.369 . S
C247 C246 1.369 . S
C247 C248 1.404 . S
C248 H231 0.940 . S
C248 C247 1.404 . S
C248 C249 1.389 . S
C249 H232 0.939 . S
C249 C244 1.400 . S
C249 C248 1.389 . S
C250 P224 1.819 . S
C250 C251 1.391 . S
C250 C255 1.391 . S
C251 H233 0.941 . S
C251 C250 1.391 . S
C251 C252 1.396 . S
C252 H236 0.939 . S
C252 C251 1.396 . S
C252 C253 1.397 . S
C253 C252 1.397 . S
C253 C254 1.385 . S
C254 H237 0.940 . S
C254 C253 1.385 . S
C254 C255 1.388 . S
C255 H234 0.939 . S
C255 C250 1.391 . S
C255 C254 1.388 . S
O256 Zn257 1.954 . S
O256 C272 1.228 . S
Zn257 O256 1.954 . S
Zn257 O258 1.948 . S
Zn257 O264 1.890 1_565 S
Zn257 O269 1.959 . S
O258 Zn257 1.948 . S
O258 Zn259 1.902 1_565 S
O258 Zn260 1.953 . S
O258 Zn261 1.963 . S
Zn259 O258 1.902 1_545 S
Zn259 O262 1.933 1_455 S
Zn259 O265 1.941 . S
Zn259 O266 1.965 . S
Zn260 O258 1.953 . S
Zn260 O267 1.938 1_565 S
Zn260 O268 1.906 . S
Zn260 O278 1.953 . S
Zn261 O258 1.963 . S
Zn261 O263 1.932 1_455 S
Zn261 O270 1.977 . S
Zn261 O271 1.910 . S
O262 Zn259 1.933 1_655 S
O262 C273 1.226 . S
O263 Zn261 1.932 1_655 S
O263 C273 1.307 1_565 S
O264 Zn257 1.890 1_545 S
O264 C275 1.253 . S
O265 Zn259 1.941 . S
O265 C275 1.283 . S
O266 Zn259 1.965 . S
O266 C274 1.303 . S
O267 Zn260 1.938 1_545 S
O267 C274 1.247 . S
O268 Zn260 1.906 . S
O268 C276 1.304 . S
O269 Zn257 1.959 . S
O269 C277 1.311 . S
O270 Zn261 1.977 . S
O270 C276 1.272 . S
O271 Zn261 1.910 . S
O271 C277 1.231 . S
C272 O256 1.228 . S
C272 O278 1.298 . S
C273 O262 1.226 . S
C273 O263 1.307 1_545 S
C274 O266 1.303 . S
C274 O267 1.247 . S
C275 O264 1.253 . S
C275 O265 1.283 . S
C276 O268 1.304 . S
C276 O270 1.272 . S
C277 O269 1.311 . S
C277 O271 1.231 . S
O278 Zn260 1.953 . S
O278 C272 1.298 . S
O279 Zn280 1.953 . S
O279 C295 1.225 . S
Zn280 O279 1.953 . S
Zn280 O281 1.949 . S
Zn280 O287 1.919 . S
Zn280 O292 1.924 . S
O281 Zn280 1.949 . S
O281 Zn282 1.923 1_545 S
O281 Zn283 1.950 . S
O281 Zn284 1.945 1_545 S
Zn282 O281 1.923 1_565 S
Zn282 O285 1.933 . S
Zn282 O288 1.941 . S
Zn282 O289 1.965 . S
Zn283 O281 1.950 . S
Zn283 O290 1.938 . S
Zn283 O291 1.892 1_545 S
Zn283 O301 1.953 . S
Zn284 O281 1.945 1_565 S
Zn284 O286 1.932 . S
Zn284 O293 1.977 . S
Zn284 O294 1.910 1_565 S
O285 Zn282 1.933 . S
O285 C296 1.226 . S
O286 Zn284 1.932 . S
O286 C296 1.307 . S
O287 Zn280 1.919 . S
O287 C298 1.253 . S
O288 Zn282 1.941 . S
O288 C298 1.283 1_565 S
O289 Zn282 1.965 . S
O289 C297 1.303 . S
O290 Zn283 1.938 . S
O290 C297 1.247 1_545 S
O291 Zn283 1.892 1_565 S
O291 C299 1.325 . S
O292 Zn280 1.924 . S
O292 C300 1.311 . S
O293 Zn284 1.977 . S
O293 C299 1.272 . S
O294 Zn284 1.910 1_545 S
O294 C300 1.231 . S
C295 O279 1.225 . S
C295 O301 1.298 . S
C296 O285 1.226 . S
C296 O286 1.307 . S
C297 O289 1.303 . S
C297 O290 1.247 1_565 S
C298 O287 1.253 . S
C298 O288 1.283 1_545 S
C299 O291 1.325 . S
C299 O293 1.272 . S
C300 O292 1.311 . S
C300 O294 1.231 . S
O301 Zn283 1.953 . S
O301 C295 1.298 . S
O302 Zn303 1.953 . S
O302 C318 1.225 . S
Zn303 O302 1.953 . S
Zn303 O304 1.949 . S
Zn303 O310 1.919 . S
Zn303 O315 1.924 . S
O304 Zn303 1.949 . S
O304 Zn305 1.923 . S
O304 Zn306 1.950 . S
O304 Zn307 1.945 . S
Zn305 O304 1.923 . S
Zn305 O308 1.933 . S
Zn305 O311 1.941 . S
Zn305 O312 1.965 . S
Zn306 O304 1.950 . S
Zn306 O313 1.938 . S
Zn306 O314 1.906 . S
Zn306 O324 1.953 . S
Zn307 O304 1.945 . S
Zn307 O309 1.932 . S
Zn307 O316 1.977 . S
Zn307 O317 1.910 . S
O308 Zn305 1.933 . S
O308 C319 1.226 . S
O309 Zn307 1.932 . S
O309 C319 1.307 . S
O310 Zn303 1.919 . S
O310 C321 1.253 . S
O311 Zn305 1.941 . S
O311 C321 1.283 . S
O312 Zn305 1.965 . S
O312 C320 1.303 . S
O313 Zn306 1.938 . S
O313 C320 1.247 . S
O314 Zn306 1.906 . S
O314 C322 1.304 . S
O315 Zn303 1.924 . S
O315 C323 1.311 . S
O316 Zn307 1.977 . S
O316 C322 1.272 . S
O317 Zn307 1.910 . S
O317 C323 1.231 . S
C318 O302 1.225 . S
C318 O324 1.298 . S
C319 O308 1.226 . S
C319 O309 1.307 . S
C320 O312 1.303 . S
C320 O313 1.247 . S
C321 O310 1.253 . S
C321 O311 1.283 . S
C322 O314 1.304 . S
C322 O316 1.272 . S
C323 O315 1.311 . S
C323 O317 1.231 . S
O324 Zn306 1.953 . S
O324 C318 1.298 . S
O325 Zn326 1.953 1_655 S
O325 C341 1.225 . S
Zn326 O325 1.953 1_455 S
Zn326 O327 1.949 . S
Zn326 O333 1.919 . S
Zn326 O338 1.924 . S
O327 Zn326 1.949 . S
O327 Zn328 1.923 . S
O327 Zn329 1.950 1_455 S
O327 Zn330 1.945 . S
Zn328 O327 1.923 . S
Zn328 O331 1.933 . S
Zn328 O334 1.945 . S
Zn328 O335 1.965 1_455 S
Zn329 O327 1.950 1_655 S
Zn329 O336 1.938 . S
Zn329 O337 1.906 1_655 S
Zn329 O347 1.953 . S
Zn330 O327 1.945 . S
Zn330 O332 1.932 . S
Zn330 O339 1.977 . S
Zn330 O340 1.910 . S
O331 Zn328 1.933 . S
O331 C342 1.226 . S
O332 Zn330 1.932 . S
O332 C342 1.307 . S
O333 Zn326 1.919 . S
O333 C344 1.253 . S
O334 Zn328 1.945 . S
O334 C344 1.288 . S
O335 Zn328 1.965 1_655 S
O335 C343 1.303 . S
O336 Zn329 1.938 . S
O336 C343 1.247 . S
O337 Zn329 1.906 1_455 S
O337 C345 1.304 . S
O338 Zn326 1.924 . S
O338 C346 1.311 . S
O339 Zn330 1.977 . S
O339 C345 1.272 . S
O340 Zn330 1.910 . S
O340 C346 1.231 . S
C341 O325 1.225 . S
C341 O347 1.298 . S
C342 O331 1.226 . S
C342 O332 1.307 . S
C343 O335 1.303 . S
C343 O336 1.247 . S
C344 O333 1.253 . S
C344 O334 1.288 . S
C345 O337 1.304 . S
C345 O339 1.272 . S
C346 O338 1.311 . S
C346 O340 1.231 . S
O347 Zn329 1.953 . S
O347 C341 1.298 . S
C348 C349 1.391 . S
C348 C350 1.394 . S
C348 H364 0.931 . S
C349 C348 1.391 . S
C349 C353 1.376 1_565 S
C350 C348 1.394 . S
C350 C351 1.369 . S
C350 C354 1.531 . S
C351 C350 1.369 . S
C351 C352 1.410 1_565 S
C351 C359 1.503 . S
C352 C351 1.410 1_545 S
C352 C353 1.392 . S
C352 C355 1.511 . S
C353 C349 1.376 1_545 S
C353 C352 1.392 . S
C353 H365 0.929 . S
C354 C350 1.531 . S
C354 H366 0.960 . S
C354 H367 0.962 . S
C354 H368 0.960 . S
C355 C352 1.511 . S
C355 H369 0.961 . S
C355 H370 0.961 . S
C355 H371 0.961 . S
C356 C357 1.370 . S
C356 C358 1.363 . S
C356 H372 0.930 . S
C357 C356 1.370 . S
C357 C361 1.408 . S
C358 C356 1.363 . S
C358 C359 1.370 . S
C358 C362 1.524 1_565 S
C359 C351 1.503 . S
C359 C358 1.370 . S
C359 C360 1.403 . S
C360 C359 1.403 . S
C360 C361 1.404 . S
C360 C363 1.539 . S
C361 C357 1.408 . S
C361 C360 1.404 . S
C361 H373 0.930 . S
C362 C358 1.524 1_545 S
C362 H374 0.956 1_545 S
C362 H375 0.961 . S
C362 H376 0.961 . S
C363 C360 1.539 . S
C363 H377 0.958 . S
C363 H378 0.961 . S
C363 H379 0.960 . S
H364 C348 0.931 . S
H365 C353 0.929 . S
H366 C354 0.960 . S
H367 C354 0.962 . S
H368 C354 0.960 . S
H369 C355 0.961 . S
H370 C355 0.961 . S
H371 C355 0.961 . S
H372 C356 0.930 . S
H373 C361 0.930 . S
H374 C362 0.956 1_565 S
H375 C362 0.961 . S
H376 C362 0.961 . S
H377 C363 0.958 . S
H378 C363 0.961 . S
H379 C363 0.960 . S
C380 C381 1.391 . S
C380 C382 1.394 . S
C380 H396 0.931 . S
C381 C380 1.391 . S
C381 C385 1.376 . S
C382 C380 1.394 . S
C382 C383 1.369 . S
C382 C386 1.531 . S
C383 C382 1.369 . S
C383 C384 1.410 . S
C383 C391 1.503 . S
C384 C383 1.410 . S
C384 C385 1.392 . S
C384 C387 1.511 . S
C385 C381 1.376 . S
C385 C384 1.392 . S
C385 H397 0.929 . S
C386 C382 1.531 . S
C386 H398 0.960 . S
C386 H399 0.962 . S
C386 H400 0.960 . S
C387 C384 1.511 . S
C387 H401 0.961 . S
C387 H402 0.961 . S
C387 H403 0.961 . S
C388 C389 1.370 . S
C388 C390 1.363 . S
C388 H404 0.931 . S
C389 C388 1.370 . S
C389 C393 1.408 . S
C390 C388 1.363 . S
C390 C391 1.370 . S
C390 C394 1.524 . S
C391 C383 1.503 . S
C391 C390 1.370 . S
C391 C392 1.403 . S
C392 C391 1.403 . S
C392 C393 1.404 . S
C392 C395 1.539 . S
C393 C389 1.408 . S
C393 C392 1.404 . S
C393 H405 0.930 . S
C394 C390 1.524 . S
C394 H406 0.956 . S
C394 H407 0.961 . S
C394 H408 0.961 . S
C395 C392 1.539 . S
C395 H409 0.958 . S
C395 H410 0.961 . S
C395 H411 0.960 . S
H396 C380 0.931 . S
H397 C385 0.929 . S
H398 C386 0.960 . S
H399 C386 0.962 . S
H400 C386 0.960 . S
H401 C387 0.961 . S
H402 C387 0.961 . S
H403 C387 0.961 . S
H404 C388 0.931 . S
H405 C393 0.930 . S
H406 C394 0.956 . S
H407 C394 0.961 . S
H408 C394 0.961 . S
H409 C395 0.958 . S
H410 C395 0.961 . S
H411 C395 0.960 . S
C412 C413 1.391 . S
C412 C414 1.394 . S
C412 H428 0.931 . S
C413 C412 1.391 . S
C413 C417 1.376 . S
C414 C412 1.394 . S
C414 C415 1.369 . S
C414 C418 1.531 . S
C415 C414 1.369 . S
C415 C416 1.410 . S
C415 C423 1.503 . S
C416 C415 1.410 . S
C416 C417 1.392 . S
C416 C419 1.511 . S
C417 C413 1.376 . S
C417 C416 1.392 . S
C417 H429 0.929 . S
C418 C414 1.531 . S
C418 H430 0.960 . S
C418 H431 0.962 . S
C418 H432 0.960 . S
C419 C416 1.511 . S
C419 H433 0.961 . S
C419 H434 0.961 . S
C419 H435 0.961 . S
C420 C421 1.370 . S
C420 C422 1.363 . S
C420 H436 0.931 . S
C421 C420 1.370 . S
C421 C425 1.408 . S
C422 C420 1.363 . S
C422 C423 1.370 . S
C422 C426 1.524 . S
C423 C415 1.503 . S
C423 C422 1.370 . S
C423 C424 1.403 . S
C424 C423 1.403 . S
C424 C425 1.404 . S
C424 C427 1.539 . S
C425 C421 1.408 . S
C425 C424 1.404 . S
C425 H437 0.930 . S
C426 C422 1.524 . S
C426 H438 0.956 . S
C426 H439 0.961 . S
C426 H440 0.961 . S
C427 C424 1.539 . S
C427 H441 0.958 . S
C427 H442 0.961 . S
C427 H443 0.960 . S
H428 C412 0.931 . S
H429 C417 0.929 . S
H430 C418 0.960 . S
H431 C418 0.962 . S
H432 C418 0.960 . S
H433 C419 0.961 . S
H434 C419 0.961 . S
H435 C419 0.961 . S
H436 C420 0.931 . S
H437 C425 0.930 . S
H438 C426 0.956 . S
H439 C426 0.961 . S
H440 C426 0.961 . S
H441 C427 0.958 . S
H442 C427 0.961 . S
H443 C427 0.960 . S
C444 C445 1.391 . S
C444 C446 1.394 . S
C444 H460 0.931 . S
C445 C444 1.391 . S
C445 C449 1.376 . S
C446 C444 1.394 . S
C446 C447 1.369 . S
C446 C450 1.531 . S
C447 C446 1.369 . S
C447 C448 1.410 . S
C447 C455 1.503 . S
C448 C447 1.410 . S
C448 C449 1.392 . S
C448 C451 1.511 . S
C449 C445 1.376 . S
C449 C448 1.392 . S
C449 H461 0.929 . S
C450 C446 1.531 . S
C450 H462 0.960 . S
C450 H463 0.962 . S
C450 H464 0.960 . S
C451 C448 1.511 . S
C451 H465 0.961 . S
C451 H466 0.961 . S
C451 H467 0.961 . S
C452 C453 1.370 . S
C452 C454 1.363 . S
C452 H468 0.931 . S
C453 C452 1.370 . S
C453 C457 1.408 . S
C454 C452 1.363 . S
C454 C455 1.370 . S
C454 C458 1.524 . S
C455 C447 1.503 . S
C455 C454 1.370 . S
C455 C456 1.403 . S
C456 C455 1.403 . S
C456 C457 1.404 . S
C456 C459 1.539 . S
C457 C453 1.408 . S
C457 C456 1.404 . S
C457 H469 0.930 . S
C458 C454 1.524 . S
C458 H470 0.956 . S
C458 H471 0.961 . S
C458 H472 0.961 . S
C459 C456 1.539 . S
C459 H473 0.958 . S
C459 H474 0.961 . S
C459 H475 0.960 . S
H460 C444 0.931 . S
H461 C449 0.929 . S
H462 C450 0.960 . S
H463 C450 0.962 . S
H464 C450 0.960 . S
H465 C451 0.961 . S
H466 C451 0.961 . S
H467 C451 0.961 . S
H468 C452 0.931 . S
H469 C457 0.930 . S
H470 C458 0.956 . S
H471 C458 0.961 . S
H472 C458 0.961 . S
H473 C459 0.958 . S
H474 C459 0.961 . S
H475 C459 0.960 . S
C476 C477 1.391 . S
C476 C478 1.394 . S
C476 H492 0.931 . S
C477 C476 1.391 . S
C477 C481 1.376 1_546 S
C478 C476 1.394 . S
C478 C479 1.369 . S
C478 C482 1.531 . S
C479 C478 1.369 . S
C479 C480 1.410 1_545 S
C479 C487 1.503 . S
C480 C479 1.410 1_565 S
C480 C481 1.392 1_556 S
C480 C483 1.511 . S
C481 C477 1.376 1_564 S
C481 C480 1.392 1_554 S
C481 H493 0.929 . S
C482 C478 1.531 . S
C482 H494 0.960 . S
C482 H495 0.962 . S
C482 H496 0.960 . S
C483 C480 1.511 . S
C483 H497 0.961 1_556 S
C483 H498 0.961 . S
C483 H499 0.961 1_556 S
C484 C485 1.370 1_565 S
C484 C486 1.363 . S
C484 H500 0.931 . S
C485 C484 1.370 1_545 S
C485 C489 1.408 . S
C486 C484 1.363 . S
C486 C487 1.370 1_565 S
C486 C490 1.524 . S
C487 C479 1.503 . S
C487 C486 1.370 1_545 S
C487 C488 1.403 . S
C488 C487 1.403 . S
C488 C489 1.404 . S
C488 C491 1.539 . S
C489 C485 1.408 . S
C489 C488 1.404 . S
C489 H501 0.930 . S
C490 C486 1.524 . S
C490 H502 0.956 . S
C490 H503 0.961 . S
C490 H504 0.961 . S
C491 C488 1.539 . S
C491 H505 0.958 . S
C491 H506 0.961 . S
C491 H507 0.960 . S
H492 C476 0.931 . S
H493 C481 0.929 . S
H494 C482 0.960 . S
H495 C482 0.962 . S
H496 C482 0.960 . S
H497 C483 0.961 1_554 S
H498 C483 0.961 . S
H499 C483 0.961 1_554 S
H500 C484 0.931 . S
H501 C489 0.930 . S
H502 C490 0.956 . S
H503 C490 0.961 . S
H504 C490 0.961 . S
H505 C491 0.958 . S
H506 C491 0.961 . S
H507 C491 0.960 . S
C508 C509 1.391 . S
C508 C510 1.394 . S
C508 H524 0.931 . S
C509 C508 1.391 . S
C509 C513 1.376 . S
C510 C508 1.394 . S
C510 C511 1.369 . S
C510 C514 1.531 . S
C511 C510 1.369 . S
C511 C512 1.410 . S
C511 C519 1.503 . S
C512 C511 1.410 . S
C512 C513 1.392 . S
C512 C515 1.511 . S
C513 C509 1.376 . S
C513 C512 1.392 . S
C513 H525 0.929 . S
C514 C510 1.531 . S
C514 H526 0.960 . S
C514 H527 0.962 . S
C514 H528 0.960 . S
C515 C512 1.511 . S
C515 H529 0.961 . S
C515 H530 0.961 . S
C515 H531 0.961 . S
C516 C517 1.370 . S
C516 C518 1.363 . S
C516 H532 0.931 . S
C517 C516 1.370 . S
C517 C521 1.408 . S
C518 C516 1.363 . S
C518 C519 1.370 . S
C518 C522 1.524 . S
C519 C511 1.503 . S
C519 C518 1.370 . S
C519 C520 1.403 . S
C520 C519 1.403 . S
C520 C521 1.404 . S
C520 C523 1.539 . S
C521 C517 1.408 . S
C521 C520 1.404 . S
C521 H533 0.930 . S
C522 C518 1.524 . S
C522 H534 0.956 . S
C522 H535 0.961 . S
C522 H536 0.961 . S
C523 C520 1.539 . S
C523 H537 0.958 . S
C523 H538 0.961 . S
C523 H539 0.960 . S
H524 C508 0.931 . S
H525 C513 0.929 . S
H526 C514 0.960 . S
H527 C514 0.962 . S
H528 C514 0.960 . S
H529 C515 0.961 . S
H530 C515 0.961 . S
H531 C515 0.961 . S
H532 C516 0.931 . S
H533 C521 0.930 . S
H534 C522 0.956 . S
H535 C522 0.961 . S
H536 C522 0.961 . S
H537 C523 0.958 . S
H538 C523 0.961 . S
H539 C523 0.960 . S
C540 C541 1.391 . S
C540 C542 1.394 . S
C540 H556 0.931 . S
C541 C540 1.391 . S
C541 C545 1.376 . S
C542 C540 1.394 . S
C542 C543 1.369 . S
C542 C546 1.531 . S
C543 C542 1.369 . S
C543 C544 1.410 . S
C543 C551 1.503 . S
C544 C543 1.410 . S
C544 C545 1.392 . S
C544 C547 1.511 . S
C545 C541 1.376 . S
C545 C544 1.392 . S
C545 H557 0.929 1_556 S
C546 C542 1.531 . S
C546 H558 0.960 . S
C546 H559 0.962 . S
C546 H560 0.960 . S
C547 C544 1.511 . S
C547 H561 0.961 . S
C547 H562 0.961 . S
C547 H563 0.961 . S
C548 C549 1.370 . S
C548 C550 1.363 . S
C548 H564 0.931 . S
C549 C548 1.370 . S
C549 C553 1.408 . S
C550 C548 1.363 . S
C550 C551 1.370 . S
C550 C554 1.524 . S
C551 C543 1.503 . S
C551 C550 1.370 . S
C551 C552 1.403 . S
C552 C551 1.403 . S
C552 C553 1.404 . S
C552 C555 1.539 . S
C553 C549 1.408 . S
C553 C552 1.404 . S
C553 H565 0.930 . S
C554 C550 1.524 . S
C554 H566 0.956 . S
C554 H567 0.961 . S
C554 H568 0.961 . S
C555 C552 1.539 . S
C555 H569 0.958 . S
C555 H570 0.961 . S
C555 H571 0.960 . S
H556 C540 0.931 . S
H557 C545 0.929 1_554 S
H558 C546 0.960 . S
H559 C546 0.962 . S
H560 C546 0.960 . S
H561 C547 0.961 . S
H562 C547 0.961 . S
H563 C547 0.961 . S
H564 C548 0.931 . S
H565 C553 0.930 . S
H566 C554 0.956 . S
H567 C554 0.961 . S
H568 C554 0.961 . S
H569 C555 0.958 . S
H570 C555 0.961 . S
H571 C555 0.960 . S
C572 C573 1.391 1_455 S
C572 C574 1.394 1_554 S
C572 H588 0.931 . S
C573 C572 1.391 1_655 S
C573 C577 1.376 1_554 S
C574 C572 1.394 1_556 S
C574 C575 1.369 1_455 S
C574 C578 1.531 . S
C575 C574 1.369 1_655 S
C575 C576 1.410 . S
C575 C583 1.502 1_655 S
C576 C575 1.410 . S
C576 C577 1.392 . S
C576 C579 1.511 . S
C577 C573 1.376 1_556 S
C577 C576 1.392 . S
C577 H589 0.929 . S
C578 C574 1.531 . S
C578 H590 0.960 . S
C578 H591 0.962 . S
C578 H592 0.960 1_556 S
C579 C576 1.511 . S
C579 H593 0.961 . S
C579 H594 0.961 . S
C579 H595 0.961 . S
C580 C581 1.370 . S
C580 C582 1.363 . S
C580 H596 0.931 . S
C581 C580 1.370 . S
C581 C585 1.408 1_455 S
C582 C580 1.363 . S
C582 C583 1.376 . S
C582 C586 1.524 . S
C583 C575 1.502 1_455 S
C583 C582 1.376 . S
C583 C584 1.399 1_455 S
C584 C583 1.399 1_655 S
C584 C585 1.404 . S
C584 C587 1.539 . S
C585 C581 1.408 1_655 S
C585 C584 1.404 . S
C585 H597 0.930 . S
C586 C582 1.524 . S
C586 H598 0.956 . S
C586 H599 0.961 . S
C586 H600 0.961 . S
C587 C584 1.539 . S
C587 H601 0.958 . S
C587 H602 0.961 . S
C587 H603 0.960 . S
H588 C572 0.931 . S
H589 C577 0.929 . S
H590 C578 0.960 . S
H591 C578 0.962 . S
H592 C578 0.960 1_554 S
H593 C579 0.961 . S
H594 C579 0.961 . S
H595 C579 0.961 . S
H596 C580 0.931 . S
H597 C585 0.930 . S
H598 C586 0.956 . S
H599 C586 0.961 . S
H600 C586 0.961 . S
H601 C587 0.958 . S
H602 C587 0.961 . S
H603 C587 0.960 . S
C604 C605 1.391 . S
C604 C606 1.394 . S
C604 H620 0.931 . S
C605 C604 1.391 . S
C605 C609 1.376 . S
C606 C604 1.394 . S
C606 C607 1.369 . S
C606 C610 1.531 . S
C607 C606 1.369 . S
C607 C608 1.410 . S
C607 C615 1.503 . S
C608 C607 1.410 . S
C608 C609 1.392 . S
C608 C611 1.511 . S
C609 C605 1.376 . S
C609 C608 1.392 . S
C609 H621 0.929 . S
C610 C606 1.531 . S
C610 H622 0.960 . S
C610 H623 0.962 . S
C610 H624 0.960 . S
C611 C608 1.511 . S
C611 H625 0.961 . S
C611 H626 0.961 . S
C611 H627 0.961 . S
C612 C613 1.370 . S
C612 C614 1.363 . S
C612 H628 0.931 . S
C613 C612 1.370 . S
C613 C617 1.408 . S
C614 C612 1.363 . S
C614 C615 1.370 . S
C614 C618 1.524 . S
C615 C607 1.503 . S
C615 C614 1.370 . S
C615 C616 1.403 . S
C616 C615 1.403 . S
C616 C617 1.404 . S
C616 C619 1.539 . S
C617 C613 1.408 . S
C617 C616 1.404 . S
C617 H629 0.930 . S
C618 C614 1.524 . S
C618 H630 0.956 . S
C618 H631 0.961 . S
C618 H632 0.961 . S
C619 C616 1.539 . S
C619 H633 0.958 . S
C619 H634 0.961 . S
C619 H635 0.960 . S
H620 C604 0.931 . S
H621 C609 0.929 . S
H622 C610 0.960 . S
H623 C610 0.962 . S
H624 C610 0.960 . S
H625 C611 0.961 . S
H626 C611 0.961 . S
H627 C611 0.961 . S
H628 C612 0.931 . S
H629 C617 0.930 . S
H630 C618 0.956 . S
H631 C618 0.961 . S
H632 C618 0.961 . S
H633 C619 0.958 . S
H634 C619 0.961 . S
H635 C619 0.960 . S
C636 C637 1.391 . S
C636 C638 1.394 . S
C636 H652 0.931 . S
C637 C636 1.391 . S
C637 C641 1.376 1_545 S
C638 C636 1.394 . S
C638 C639 1.369 . S
C638 C642 1.531 . S
C639 C638 1.369 . S
C639 C640 1.410 1_545 S
C639 C647 1.503 . S
C640 C639 1.410 1_565 S
C640 C641 1.392 . S
C640 C643 1.511 . S
C641 C637 1.376 1_565 S
C641 C640 1.392 . S
C641 H653 0.929 . S
C642 C638 1.531 . S
C642 H654 0.960 . S
C642 H655 0.962 . S
C642 H656 0.960 . S
C643 C640 1.511 . S
C643 H657 0.961 . S
C643 H658 0.961 . S
C643 H659 0.961 1_565 S
C644 C645 1.370 . S
C644 C646 1.363 . S
C644 H660 0.931 . S
C645 C644 1.370 . S
C645 C649 1.408 1_565 S
C646 C644 1.363 . S
C646 C647 1.370 1_565 S
C646 C650 1.524 . S
C647 C639 1.503 . S
C647 C646 1.370 1_545 S
C647 C648 1.403 . S
C648 C647 1.403 . S
C648 C649 1.404 . S
C648 C651 1.539 . S
C649 C645 1.408 1_545 S
C649 C648 1.404 . S
C649 H661 0.930 . S
C650 C646 1.524 . S
C650 H662 0.956 . S
C650 H663 0.961 . S
C650 H664 0.961 . S
C651 C648 1.539 . S
C651 H665 0.958 . S
C651 H666 0.961 . S
C651 H667 0.960 . S
H652 C636 0.931 . S
H653 C641 0.929 . S
H654 C642 0.960 . S
H655 C642 0.962 . S
H656 C642 0.960 . S
H657 C643 0.961 . S
H658 C643 0.961 . S
H659 C643 0.961 1_545 S
H660 C644 0.931 . S
H661 C649 0.930 . S
H662 C650 0.956 . S
H663 C650 0.961 . S
H664 C650 0.961 . S
H665 C651 0.958 . S
H666 C651 0.961 . S
H667 C651 0.960 . S
C668 C669 1.391 . S
C668 C670 1.394 . S
C668 H684 0.931 . S
C669 C668 1.391 . S
C669 C673 1.376 . S
C670 C668 1.394 . S
C670 C671 1.369 . S
C670 C674 1.531 . S
C671 C670 1.369 . S
C671 C672 1.410 . S
C671 C679 1.503 . S
C672 C671 1.410 . S
C672 C673 1.392 . S
C672 C675 1.511 . S
C673 C669 1.376 . S
C673 C672 1.392 . S
C673 H685 0.929 . S
C674 C670 1.531 . S
C674 H686 0.960 . S
C674 H687 0.962 . S
C674 H688 0.960 . S
C675 C672 1.511 . S
C675 H689 0.961 . S
C675 H690 0.961 . S
C675 H691 0.961 . S
C676 C677 1.370 . S
C676 C678 1.363 . S
C676 H692 0.931 . S
C677 C676 1.370 . S
C677 C681 1.408 . S
C678 C676 1.363 . S
C678 C679 1.370 . S
C678 C682 1.524 . S
C679 C671 1.503 . S
C679 C678 1.370 . S
C679 C680 1.403 . S
C680 C679 1.403 . S
C680 C681 1.404 . S
C680 C683 1.539 . S
C681 C677 1.408 . S
C681 C680 1.404 . S
C681 H693 0.930 . S
C682 C678 1.524 . S
C682 H694 0.956 . S
C682 H695 0.961 . S
C682 H696 0.961 . S
C683 C680 1.539 . S
C683 H697 0.958 . S
C683 H698 0.961 . S
C683 H699 0.960 . S
H684 C668 0.931 . S
H685 C673 0.929 . S
H686 C674 0.960 . S
H687 C674 0.962 . S
H688 C674 0.960 . S
H689 C675 0.961 . S
H690 C675 0.961 . S
H691 C675 0.961 . S
H692 C676 0.931 . S
H693 C681 0.930 . S
H694 C682 0.956 . S
H695 C682 0.961 . S
H696 C682 0.961 . S
H697 C683 0.958 . S
H698 C683 0.961 . S
H699 C683 0.960 . S
C700 C701 1.391 . S
C700 C702 1.394 . S
C700 H716 0.931 . S
C701 C700 1.391 . S
C701 C705 1.376 . S
C702 C700 1.394 . S
C702 C703 1.369 . S
C702 C706 1.531 . S
C703 C702 1.369 . S
C703 C704 1.410 . S
C703 C711 1.503 . S
C704 C703 1.410 . S
C704 C705 1.392 . S
C704 C707 1.511 . S
C705 C701 1.376 . S
C705 C704 1.392 . S
C705 H717 0.929 . S
C706 C702 1.531 . S
C706 H718 0.960 . S
C706 H719 0.962 . S
C706 H720 0.960 . S
C707 C704 1.511 . S
C707 H721 0.961 . S
C707 H722 0.961 . S
C707 H723 0.961 . S
C708 C709 1.370 . S
C708 C710 1.363 . S
C708 H724 0.931 . S
C709 C708 1.370 . S
C709 C713 1.408 . S
C710 C708 1.363 . S
C710 C711 1.370 . S
C710 C714 1.524 . S
C711 C703 1.503 . S
C711 C710 1.370 . S
C711 C712 1.403 . S
C712 C711 1.403 . S
C712 C713 1.404 . S
C712 C715 1.539 . S
C713 C709 1.408 . S
C713 C712 1.404 . S
C713 H725 0.930 . S
C714 C710 1.524 . S
C714 H726 0.956 . S
C714 H727 0.961 . S
C714 H728 0.961 . S
C715 C712 1.539 . S
C715 H729 0.958 . S
C715 H730 0.961 . S
C715 H731 0.960 . S
H716 C700 0.931 . S
H717 C705 0.929 . S
H718 C706 0.960 . S
H719 C706 0.962 . S
H720 C706 0.960 . S
H721 C707 0.961 . S
H722 C707 0.961 . S
H723 C707 0.961 . S
H724 C708 0.931 . S
H725 C713 0.930 . S
H726 C714 0.956 . S
H727 C714 0.961 . S
H728 C714 0.961 . S
H729 C715 0.958 . S
H730 C715 0.961 . S
H731 C715 0.960 . S
C732 C733 1.391 . S
C732 C734 1.394 . S
C732 H748 0.931 . S
C733 C732 1.391 . S
C733 C737 1.376 1_655 S
C734 C732 1.394 . S
C734 C735 1.369 1_655 S
C734 C738 1.531 . S
C735 C734 1.369 1_455 S
C735 C736 1.410 . S
C735 C743 1.503 . S
C736 C735 1.410 . S
C736 C737 1.392 . S
C736 C739 1.511 . S
C737 C733 1.376 1_455 S
C737 C736 1.392 . S
C737 H749 0.929 . S
C738 C734 1.531 . S
C738 H750 0.960 . S
C738 H751 0.962 . S
C738 H752 0.960 . S
C739 C736 1.511 . S
C739 H753 0.961 . S
C739 H754 0.961 . S
C739 H755 0.961 . S
C740 C741 1.370 . S
C740 C742 1.363 . S
C740 H756 0.931 . S
C741 C740 1.370 . S
C741 C745 1.408 . S
C742 C740 1.363 . S
C742 C743 1.370 . S
C742 C746 1.524 . S
C743 C735 1.503 . S
C743 C742 1.370 . S
C743 C744 1.403 . S
C744 C743 1.403 . S
C744 C745 1.404 . S
C744 C747 1.539 . S
C745 C741 1.408 . S
C745 C744 1.404 . S
C745 H757 0.930 . S
C746 C742 1.524 . S
C746 H758 0.956 . S
C746 H759 0.961 . S
C746 H760 0.961 . S
C747 C744 1.539 . S
C747 H761 0.958 . S
C747 H762 0.961 . S
C747 H763 0.960 . S
H748 C732 0.931 . S
H749 C737 0.929 . S
H750 C738 0.960 . S
H751 C738 0.962 . S
H752 C738 0.960 . S
H753 C739 0.961 . S
H754 C739 0.961 . S
H755 C739 0.961 . S
H756 C740 0.931 . S
H757 C745 0.930 . S
H758 C746 0.956 . S
H759 C746 0.961 . S
H760 C746 0.961 . S
H761 C747 0.958 . S
H762 C747 0.961 . S
H763 C747 0.960 . S
C764 C765 1.391 . S
C764 C766 1.394 1_565 S
C764 H780 0.931 . S
C765 C764 1.391 . S
C765 C769 1.379 . S
C766 C764 1.394 1_545 S
C766 C767 1.369 . S
C766 C770 1.531 . S
C767 C766 1.369 . S
C767 C768 1.410 . S
C767 C775 1.503 . S
C768 C767 1.410 . S
C768 C769 1.388 1_545 S
C768 C771 1.511 . S
C769 C765 1.379 . S
C769 C768 1.388 1_565 S
C769 H781 0.930 . S
C770 C766 1.531 . S
C770 H782 0.960 1_545 S
C770 H783 0.962 . S
C770 H784 0.960 1_545 S
C771 C768 1.511 . S
C771 H785 0.961 1_556 S
C771 H786 0.961 . S
C771 H787 0.961 1_545 S
C772 C773 1.370 . S
C772 C774 1.363 . S
C772 H788 0.931 . S
C773 C772 1.370 . S
C773 C777 1.408 . S
C774 C772 1.363 . S
C774 C775 1.370 . S
C774 C778 1.524 . S
C775 C767 1.503 . S
C775 C774 1.370 . S
C775 C776 1.390 1_545 S
C776 C775 1.390 1_565 S
C776 C777 1.396 1_565 S
C776 C779 1.560 . S
C777 C773 1.408 . S
C777 C776 1.396 1_545 S
C777 H789 0.930 1_545 S
C778 C774 1.524 . S
C778 H790 0.956 . S
C778 H791 0.961 . S
C778 H792 0.961 . S
C779 C776 1.560 . S
C779 H793 0.958 . S
C779 H794 0.961 . S
C779 H795 0.960 . S
H780 C764 0.931 . S
H781 C769 0.930 . S
H782 C770 0.960 1_565 S
H783 C770 0.962 . S
H784 C770 0.960 1_565 S
H785 C771 0.961 1_554 S
H786 C771 0.961 . S
H787 C771 0.961 1_565 S
H788 C772 0.931 . S
H789 C777 0.930 1_565 S
H790 C778 0.956 . S
H791 C778 0.961 . S
H792 C778 0.961 . S
H793 C779 0.958 . S
H794 C779 0.961 . S
H795 C779 0.960 . S
C796 C797 1.391 . S
C796 C798 1.394 . S
C796 H812 0.931 . S
C797 C796 1.391 . S
C797 C801 1.376 . S
C798 C796 1.394 . S
C798 C799 1.369 . S
C798 C802 1.531 . S
C799 C798 1.369 . S
C799 C800 1.410 . S
C799 C807 1.503 . S
C800 C799 1.410 . S
C800 C801 1.392 . S
C800 C803 1.511 . S
C801 C797 1.376 . S
C801 C800 1.392 . S
C801 H813 0.929 . S
C802 C798 1.531 . S
C802 H814 0.960 . S
C802 H815 0.962 . S
C802 H816 0.960 . S
C803 C800 1.511 . S
C803 H817 0.961 . S
C803 H818 0.961 . S
C803 H819 0.961 . S
C804 C805 1.370 . S
C804 C806 1.363 . S
C804 H820 0.931 . S
C805 C804 1.370 . S
C805 C809 1.408 . S
C806 C804 1.363 . S
C806 C807 1.370 . S
C806 C810 1.524 . S
C807 C799 1.503 . S
C807 C806 1.370 . S
C807 C808 1.403 . S
C808 C807 1.403 . S
C808 C809 1.404 . S
C808 C811 1.539 . S
C809 C805 1.408 . S
C809 C808 1.404 . S
C809 H821 0.930 . S
C810 C806 1.524 . S
C810 H822 0.956 . S
C810 H823 0.961 . S
C810 H824 0.961 . S
C811 C808 1.539 . S
C811 H825 0.958 . S
C811 H826 0.961 . S
C811 H827 0.960 . S
H812 C796 0.931 . S
H813 C801 0.929 . S
H814 C802 0.960 . S
H815 C802 0.962 . S
H816 C802 0.960 . S
H817 C803 0.961 . S
H818 C803 0.961 . S
H819 C803 0.961 . S
H820 C804 0.931 . S
H821 C809 0.930 . S
H822 C810 0.956 . S
H823 C810 0.961 . S
H824 C810 0.961 . S
H825 C811 0.958 . S
H826 C811 0.961 . S
H827 C811 0.960 . S
C828 C829 1.391 . S
C828 C830 1.394 . S
C828 H844 0.931 . S
C829 C828 1.391 . S
C829 C833 1.376 . S
C830 C828 1.394 . S
C830 C831 1.369 . S
C830 C834 1.531 . S
C831 C830 1.369 . S
C831 C832 1.410 . S
C831 C839 1.503 . S
C832 C831 1.410 . S
C832 C833 1.392 . S
C832 C835 1.511 . S
C833 C829 1.376 . S
C833 C832 1.392 . S
C833 H845 0.929 . S
C834 C830 1.531 . S
C834 H846 0.960 . S
C834 H847 0.962 . S
C834 H848 0.960 . S
C835 C832 1.511 . S
C835 H849 0.961 . S
C835 H850 0.961 . S
C835 H851 0.961 . S
C836 C837 1.370 . S
C836 C838 1.363 . S
C836 H852 0.931 . S
C837 C836 1.370 . S
C837 C841 1.408 . S
C838 C836 1.363 . S
C838 C839 1.370 . S
C838 C842 1.524 . S
C839 C831 1.503 . S
C839 C838 1.370 . S
C839 C840 1.403 . S
C840 C839 1.403 . S
C840 C841 1.404 . S
C840 C843 1.539 . S
C841 C837 1.408 . S
C841 C840 1.404 . S
C841 H853 0.930 . S
C842 C838 1.524 . S
C842 H854 0.956 . S
C842 H855 0.961 . S
C842 H856 0.961 . S
C843 C840 1.539 . S
C843 H857 0.958 . S
C843 H858 0.961 . S
C843 H859 0.960 . S
H844 C828 0.931 . S
H845 C833 0.929 . S
H846 C834 0.960 . S
H847 C834 0.962 . S
H848 C834 0.960 . S
H849 C835 0.961 . S
H850 C835 0.961 . S
H851 C835 0.961 . S
H852 C836 0.931 . S
H853 C841 0.930 . S
H854 C842 0.956 . S
H855 C842 0.961 . S
H856 C842 0.961 . S
H857 C843 0.958 . S
H858 C843 0.961 . S
H859 C843 0.960 . S
C860 C861 1.391 . S
C860 C862 1.394 1_554 S
C860 H876 0.931 . S
C861 C860 1.391 . S
C861 C865 1.376 . S
C862 C860 1.394 1_556 S
C862 C863 1.369 . S
C862 C866 1.531 . S
C863 C862 1.369 . S
C863 C864 1.408 1_556 S
C863 C871 1.505 . S
C864 C863 1.408 1_554 S
C864 C865 1.392 . S
C864 C867 1.511 . S
C865 C861 1.376 . S
C865 C864 1.392 . S
C865 H877 0.929 . S
C866 C862 1.531 . S
C866 H878 0.960 . S
C866 H879 0.962 . S
C866 H880 0.960 . S
C867 C864 1.511 . S
C867 H881 0.961 . S
C867 H882 0.961 . S
C867 H883 0.961 . S
C868 C869 1.370 . S
C868 C870 1.363 . S
C868 H884 0.931 . S
C869 C868 1.370 . S
C869 C873 1.408 . S
C870 C868 1.363 . S
C870 C871 1.370 . S
C870 C874 1.524 1_556 S
C871 C863 1.505 . S
C871 C870 1.370 . S
C871 C872 1.403 . S
C872 C871 1.403 . S
C872 C873 1.404 . S
C872 C875 1.539 . S
C873 C869 1.408 . S
C873 C872 1.404 . S
C873 H885 0.930 . S
C874 C870 1.524 1_554 S
C874 H886 0.956 . S
C874 H887 0.961 . S
C874 H888 0.961 . S
C875 C872 1.539 . S
C875 H889 0.958 . S
C875 H890 0.961 . S
C875 H891 0.960 . S
H876 C860 0.931 . S
H877 C865 0.929 . S
H878 C866 0.960 . S
H879 C866 0.962 . S
H880 C866 0.960 . S
H881 C867 0.961 . S
H882 C867 0.961 . S
H883 C867 0.961 . S
H884 C868 0.931 . S
H885 C873 0.930 . S
H886 C874 0.956 . S
H887 C874 0.961 . S
H888 C874 0.961 . S
H889 C875 0.958 . S
H890 C875 0.961 . S
H891 C875 0.960 . S
C892 C893 1.391 1_556 S
C892 C894 1.394 . S
C892 H908 0.931 . S
C893 C892 1.391 1_554 S
C893 C897 1.376 1_545 S
C894 C892 1.394 . S
C894 C895 1.369 . S
C894 C898 1.531 . S
C895 C894 1.369 . S
C895 C896 1.410 1_546 S
C895 C903 1.503 . S
C896 C895 1.410 1_564 S
C896 C897 1.392 . S
C896 C899 1.511 . S
C897 C893 1.376 1_565 S
C897 C896 1.392 . S
C897 H909 0.929 . S
C898 C894 1.531 . S
C898 H910 0.960 . S
C898 H911 0.962 . S
C898 H912 0.960 . S
C899 C896 1.511 . S
C899 H913 0.961 . S
C899 H914 0.961 . S
C899 H915 0.961 . S
C900 C901 1.362 1_565 S
C900 C902 1.363 . S
C900 H916 0.931 . S
C901 C900 1.362 1_545 S
C901 C905 1.418 . S
C902 C900 1.363 . S
C902 C903 1.370 1_565 S
C902 C906 1.524 . S
C903 C895 1.503 . S
C903 C902 1.370 1_545 S
C903 C904 1.403 . S
C904 C903 1.403 . S
C904 C905 1.404 . S
C904 C907 1.539 1_556 S
C905 C901 1.418 . S
C905 C904 1.404 . S
C905 H917 0.930 . S
C906 C902 1.524 . S
C906 H918 0.956 . S
C906 H919 0.961 . S
C906 H920 0.961 . S
C907 C904 1.539 1_554 S
C907 H921 0.958 1_554 S
C907 H922 0.961 . S
C907 H923 0.960 . S
H908 C892 0.931 . S
H909 C897 0.929 . S
H910 C898 0.960 . S
H911 C898 0.962 . S
H912 C898 0.960 . S
H913 C899 0.961 . S
H914 C899 0.961 . S
H915 C899 0.961 . S
H916 C900 0.931 . S
H917 C905 0.930 . S
H918 C906 0.956 . S
H919 C906 0.961 . S
H920 C906 0.961 . S
H921 C907 0.958 1_556 S
H922 C907 0.961 . S
H923 C907 0.960 . S
C924 C925 1.391 1_556 S
C924 C926 1.394 . S
C924 H940 0.931 . S
C925 C924 1.391 1_554 S
C925 C929 1.376 . S
C926 C924 1.394 . S
C926 C927 1.369 . S
C926 C930 1.531 . S
C927 C926 1.369 . S
C927 C928 1.410 1_556 S
C927 C935 1.503 . S
C928 C927 1.410 1_554 S
C928 C929 1.392 . S
C928 C931 1.511 . S
C929 C925 1.376 . S
C929 C928 1.392 . S
C929 H941 0.929 . S
C930 C926 1.531 . S
C930 H942 0.960 . S
C930 H943 0.962 . S
C930 H944 0.960 . S
C931 C928 1.511 . S
C931 H945 0.961 . S
C931 H946 0.961 1_554 S
C931 H947 0.961 . S
C932 C933 1.370 . S
C932 C934 1.363 . S
C932 H948 0.931 . S
C933 C932 1.370 . S
C933 C937 1.408 . S
C934 C932 1.363 . S
C934 C935 1.370 . S
C934 C938 1.524 . S
C935 C927 1.503 . S
C935 C934 1.370 . S
C935 C936 1.403 . S
C936 C935 1.403 . S
C936 C937 1.404 . S
C936 C939 1.539 . S
C937 C933 1.408 . S
C937 C936 1.404 . S
C937 H949 0.930 . S
C938 C934 1.524 . S
C938 H950 0.956 . S
C938 H951 0.961 . S
C938 H952 0.961 . S
C939 C936 1.539 . S
C939 H953 0.958 . S
C939 H954 0.961 . S
C939 H955 0.960 1_556 S
H940 C924 0.931 . S
H941 C929 0.929 . S
H942 C930 0.960 . S
H943 C930 0.962 . S
H944 C930 0.960 . S
H945 C931 0.961 . S
H946 C931 0.961 1_556 S
H947 C931 0.961 . S
H948 C932 0.931 . S
H949 C937 0.930 . S
H950 C938 0.956 . S
H951 C938 0.961 . S
H952 C938 0.961 . S
H953 C939 0.958 . S
H954 C939 0.961 . S
H955 C939 0.960 1_554 S
C956 C957 1.391 1_556 S
C956 C958 1.394 . S
C956 H972 0.931 . S
C957 C956 1.391 1_554 S
C957 C961 1.376 . S
C958 C956 1.394 . S
C958 C959 1.369 . S
C958 C962 1.531 . S
C959 C958 1.369 . S
C959 C960 1.410 1_556 S
C959 C967 1.503 . S
C960 C959 1.410 1_554 S
C960 C961 1.392 . S
C960 C963 1.511 . S
C961 C957 1.376 . S
C961 C960 1.392 . S
C961 H973 0.929 . S
C962 C958 1.531 . S
C962 H974 0.960 . S
C962 H975 0.962 . S
C962 H976 0.960 . S
C963 C960 1.511 . S
C963 H977 0.961 . S
C963 H978 0.961 . S
C963 H979 0.961 . S
C964 C965 1.370 . S
C964 C966 1.363 . S
C964 H980 0.931 . S
C965 C964 1.370 . S
C965 C969 1.408 . S
C966 C964 1.363 . S
C966 C967 1.370 . S
C966 C970 1.524 . S
C967 C959 1.503 . S
C967 C966 1.370 . S
C967 C968 1.403 . S
C968 C967 1.403 . S
C968 C969 1.404 . S
C968 C971 1.539 . S
C969 C965 1.408 . S
C969 C968 1.404 . S
C969 H981 0.930 . S
C970 C966 1.524 . S
C970 H982 0.956 . S
C970 H983 0.961 . S
C970 H984 0.961 . S
C971 C968 1.539 . S
C971 H985 0.958 . S
C971 H986 0.961 . S
C971 H987 0.960 . S
H972 C956 0.931 . S
H973 C961 0.929 . S
H974 C962 0.960 . S
H975 C962 0.962 . S
H976 C962 0.960 . S
H977 C963 0.961 . S
H978 C963 0.961 . S
H979 C963 0.961 . S
H980 C964 0.931 . S
H981 C969 0.930 . S
H982 C970 0.956 . S
H983 C970 0.961 . S
H984 C970 0.961 . S
H985 C971 0.958 . S
H986 C971 0.961 . S
H987 C971 0.960 . S
C988 C989 1.391 1_455 S
C988 C990 1.394 . S
C988 H1004 0.931 . S
C989 C988 1.391 1_655 S
C989 C993 1.376 . S
C990 C988 1.394 . S
C990 C991 1.369 . S
C990 C994 1.531 . S
C991 C990 1.369 . S
C991 C992 1.411 . S
C991 C999 1.507 . S
C992 C991 1.411 . S
C992 C993 1.391 1_455 S
C992 C995 1.511 . S
C993 C989 1.376 . S
C993 C992 1.391 1_655 S
C993 H1005 0.929 . S
C994 C990 1.531 . S
C994 H1006 0.960 . S
C994 H1007 0.962 1_455 S
C994 H1008 0.960 . S
C995 C992 1.511 . S
C995 H1009 0.950 1_455 S
C995 H1010 0.951 1_455 S
C995 H1011 0.981 . S
C996 C997 1.370 . S
C996 C998 1.363 . S
C996 H1012 0.931 . S
C997 C996 1.370 . S
C997 C1001 1.408 1_655 S
C998 C996 1.363 . S
C998 C999 1.336 1_655 S
C998 C1002 1.524 . S
C999 C991 1.507 . S
C999 C998 1.336 1_455 S
C999 C1000 1.434 . S
C1000 C999 1.434 . S
C1000 C1001 1.404 . S
C1000 C1003 1.539 . S
C1001 C997 1.408 1_455 S
C1001 C1000 1.404 . S
C1001 H1013 0.930 . S
C1002 C998 1.524 . S
C1002 H1014 0.956 . S
C1002 H1015 0.961 . S
C1002 H1016 0.961 . S
C1003 C1000 1.539 . S
C1003 H1017 0.958 . S
C1003 H1018 0.961 . S
C1003 H1019 0.960 . S
H1004 C988 0.931 . S
H1005 C993 0.929 . S
H1006 C994 0.960 . S
H1007 C994 0.962 1_655 S
H1008 C994 0.960 . S
H1009 C995 0.950 1_655 S
H1010 C995 0.951 1_655 S
H1011 C995 0.981 . S
H1012 C996 0.931 . S
H1013 C1001 0.930 . S
H1014 C1002 0.956 . S
H1015 C1002 0.961 . S
H1016 C1002 0.961 . S
H1017 C1003 0.958 . S
H1018 C1003 0.961 . S
H1019 C1003 0.960 . S
C1020 C1021 1.391 1_545 S
C1020 C1022 1.394 . S
C1020 H1036 0.931 . S
C1021 C1020 1.391 1_565 S
C1021 C1025 1.376 . S
C1022 C1020 1.394 . S
C1022 C1023 1.369 1_545 S
C1022 C1026 1.531 . S
C1023 C1022 1.369 1_565 S
C1023 C1024 1.410 . S
C1023 C1031 1.503 . S
C1024 C1023 1.410 . S
C1024 C1025 1.392 . S
C1024 C1027 1.511 . S
C1025 C1021 1.376 . S
C1025 C1024 1.392 . S
C1025 H1037 0.929 . S
C1026 C1022 1.531 . S
C1026 H1038 0.960 . S
C1026 H1039 0.962 . S
C1026 H1040 0.960 . S
C1027 C1024 1.511 . S
C1027 H1041 0.961 . S
C1027 H1042 0.961 . S
C1027 H1043 0.961 . S
C1028 C1029 1.370 . S
C1028 C1030 1.363 . S
C1028 H1044 0.931 . S
C1029 C1028 1.370 . S
C1029 C1033 1.408 . S
C1030 C1028 1.363 . S
C1030 C1031 1.370 . S
C1030 C1034 1.524 . S
C1031 C1023 1.503 . S
C1031 C1030 1.370 . S
C1031 C1032 1.403 . S
C1032 C1031 1.403 . S
C1032 C1033 1.404 . S
C1032 C1035 1.539 . S
C1033 C1029 1.408 . S
C1033 C1032 1.404 . S
C1033 H1045 0.930 . S
C1034 C1030 1.524 . S
C1034 H1046 0.956 1_565 S
C1034 H1047 0.961 . S
C1034 H1048 0.961 . S
C1035 C1032 1.539 . S
C1035 H1049 0.958 . S
C1035 H1050 0.961 . S
C1035 H1051 0.960 . S
H1036 C1020 0.931 . S
H1037 C1025 0.929 . S
H1038 C1026 0.960 . S
H1039 C1026 0.962 . S
H1040 C1026 0.960 . S
H1041 C1027 0.961 . S
H1042 C1027 0.961 . S
H1043 C1027 0.961 . S
H1044 C1028 0.931 . S
H1045 C1033 0.930 . S
H1046 C1034 0.956 1_545 S
H1047 C1034 0.961 . S
H1048 C1034 0.961 . S
H1049 C1035 0.958 . S
H1050 C1035 0.961 . S
H1051 C1035 0.960 . S
C1052 C1053 1.391 . S
C1052 C1054 1.394 . S
C1052 H1068 0.931 . S
C1053 C1052 1.391 . S
C1053 C1057 1.376 . S
C1054 C1052 1.394 . S
C1054 C1055 1.369 . S
C1054 C1058 1.531 . S
C1055 C1054 1.369 . S
C1055 C1056 1.410 . S
C1055 C1063 1.503 . S
C1056 C1055 1.410 . S
C1056 C1057 1.392 . S
C1056 C1059 1.511 . S
C1057 C1053 1.376 . S
C1057 C1056 1.392 . S
C1057 H1069 0.929 . S
C1058 C1054 1.531 . S
C1058 H1070 0.960 . S
C1058 H1071 0.962 . S
C1058 H1072 0.960 . S
C1059 C1056 1.511 . S
C1059 H1073 0.961 . S
C1059 H1074 0.961 . S
C1059 H1075 0.961 . S
C1060 C1061 1.370 . S
C1060 C1062 1.363 . S
C1060 H1076 0.931 . S
C1061 C1060 1.370 . S
C1061 C1065 1.408 . S
C1062 C1060 1.363 . S
C1062 C1063 1.370 . S
C1062 C1066 1.524 . S
C1063 C1055 1.503 . S
C1063 C1062 1.370 . S
C1063 C1064 1.403 . S
C1064 C1063 1.403 . S
C1064 C1065 1.404 . S
C1064 C1067 1.539 . S
C1065 C1061 1.408 . S
C1065 C1064 1.404 . S
C1065 H1077 0.930 . S
C1066 C1062 1.524 . S
C1066 H1078 0.956 . S
C1066 H1079 0.961 . S
C1066 H1080 0.961 . S
C1067 C1064 1.539 . S
C1067 H1081 0.958 . S
C1067 H1082 0.961 . S
C1067 H1083 0.960 . S
H1068 C1052 0.931 . S
H1069 C1057 0.929 . S
H1070 C1058 0.960 . S
H1071 C1058 0.962 . S
H1072 C1058 0.960 . S
H1073 C1059 0.961 . S
H1074 C1059 0.961 . S
H1075 C1059 0.961 . S
H1076 C1060 0.931 . S
H1077 C1065 0.930 . S
H1078 C1066 0.956 . S
H1079 C1066 0.961 . S
H1080 C1066 0.961 . S
H1081 C1067 0.958 . S
H1082 C1067 0.961 . S
H1083 C1067 0.960 . S
C1084 C1085 1.391 . S
C1084 C1086 1.394 . S
C1084 H1100 0.931 . S
C1085 C1084 1.391 . S
C1085 C1089 1.376 . S
C1086 C1084 1.394 . S
C1086 C1087 1.369 . S
C1086 C1090 1.531 . S
C1087 C1086 1.369 . S
C1087 C1088 1.410 . S
C1087 C1095 1.503 . S
C1088 C1087 1.410 . S
C1088 C1089 1.392 . S
C1088 C1091 1.511 . S
C1089 C1085 1.376 . S
C1089 C1088 1.392 . S
C1089 H1101 0.929 . S
C1090 C1086 1.531 . S
C1090 H1102 0.960 . S
C1090 H1103 0.962 . S
C1090 H1104 0.960 . S
C1091 C1088 1.511 . S
C1091 H1105 0.961 . S
C1091 H1106 0.961 . S
C1091 H1107 0.961 . S
C1092 C1093 1.370 . S
C1092 C1094 1.363 . S
C1092 H1108 0.931 . S
C1093 C1092 1.370 . S
C1093 C1097 1.408 . S
C1094 C1092 1.363 . S
C1094 C1095 1.370 . S
C1094 C1098 1.524 . S
C1095 C1087 1.503 . S
C1095 C1094 1.370 . S
C1095 C1096 1.403 . S
C1096 C1095 1.403 . S
C1096 C1097 1.404 . S
C1096 C1099 1.539 . S
C1097 C1093 1.408 . S
C1097 C1096 1.404 . S
C1097 H1109 0.930 . S
C1098 C1094 1.524 . S
C1098 H1110 0.956 . S
C1098 H1111 0.961 . S
C1098 H1112 0.961 . S
C1099 C1096 1.539 . S
C1099 H1113 0.958 . S
C1099 H1114 0.961 . S
C1099 H1115 0.960 . S
H1100 C1084 0.931 . S
H1101 C1089 0.929 . S
H1102 C1090 0.960 . S
H1103 C1090 0.962 . S
H1104 C1090 0.960 . S
H1105 C1091 0.961 . S
H1106 C1091 0.961 . S
H1107 C1091 0.961 . S
H1108 C1092 0.931 . S
H1109 C1097 0.930 . S
H1110 C1098 0.956 . S
H1111 C1098 0.961 . S
H1112 C1098 0.961 . S
H1113 C1099 0.958 . S
H1114 C1099 0.961 . S
H1115 C1099 0.960 . S
C349 C215 1.577 1_565 S
C357 C272 1.623 . S
C389 C295 1.756 . S
C381 C247 1.758 . S
C421 C318 1.667 . S
C413 C151 1.626 . S
C453 C345 1.552 . S
C445 C183 1.688 . S
C485 C273 1.559 . S
C477 C87 1.512 1_556 S
C509 C119 1.475 1_556 S
C517 C296 1.581 . S
C541 C23 1.411 . S
C549 C319 1.449 . S
C573 C55 1.621 . S
C581 C344 1.625 . S
C613 C274 0.136 . S
C605 C189 0.191 . S
C645 C297 0.202 . S
C637 C221 0.341 . S
C677 C320 0.128 . S
C669 C253 0.318 . S
C701 C157 0.417 . S
C709 C346 0.570 . S
C733 C61 0.566 1_655 S
C741 C277 0.587 . S
C773 C300 0.546 . S
C765 C93 0.615 1_565 S
C805 C323 0.636 . S
C797 C125 0.620 . S
C829 C29 0.228 . S
C837 C343 0.114 . S
C861 C177 1.833 . S
C869 C275 1.773 . S
C893 C209 1.665 . S
C901 C298 1.728 . S
C933 C321 1.754 . S
C925 C241 1.725 . S
C965 C342 1.521 . S
C957 C145 1.375 . S
C989 C49 1.767 1_655 S
C997 C276 1.739 1_655 S
C1029 C299 1.663 . S
C1021 C81 1.683 1_565 S
C1061 C322 1.660 . S
C1053 C113 1.654 . S
C1085 C17 1.854 . S
C1093 C341 1.884 . S
