# Generated by pormake.
# Topology nom, (4,4)-cn, num edge types: 1
# Building blocks:
#     Node 0, Type 0, BuildingBlock: KUFVIS_clean_linker_0, # of connection points: 4
#     Node 1, Type 0, BuildingBlock: KUFVIS_clean_linker_0, # of connection points: 4
#     Node 2, Type 0, BuildingBlock: KUFVIS_clean_linker_0, # of connection points: 4
#     Node 3, Type 0, BuildingBlock: KUFVIS_clean_linker_0, # of connection points: 4
#     Node 4, Type 0, BuildingBlock: KUFVIS_clean_linker_0, # of connection points: 4
#     Node 5, Type 0, BuildingBlock: KUFVIS_clean_linker_0, # of connection points: 4
#     Node 6, Type 1, BuildingBlock: KUFVIS_clean_sbu_0, # of connection points: 4
#     Node 7, Type 1, BuildingBlock: KUFVIS_clean_sbu_0, # of connection points: 4
#     Node 8, Type 1, BuildingBlock: KUFVIS_clean_sbu_0, # of connection points: 4
#     Node 9, Type 1, BuildingBlock: KUFVIS_clean_sbu_0, # of connection points: 4
#     Node 10, Type 1, BuildingBlock: KUFVIS_clean_sbu_0, # of connection points: 4
#     Node 11, Type 1, BuildingBlock: KUFVIS_clean_sbu_0, # of connection points: 4
#     Edge 12, Type (0, 1), BuildingBlock: OJICUG_clean_linker_0, # of connection points: 2
#     Edge 13, Type (0, 1), BuildingBlock: OJICUG_clean_linker_0, # of connection points: 2
#     Edge 14, Type (0, 1), BuildingBlock: OJICUG_clean_linker_0, # of connection points: 2
#     Edge 15, Type (0, 1), BuildingBlock: OJICUG_clean_linker_0, # of connection points: 2
#     Edge 16, Type (0, 1), BuildingBlock: OJICUG_clean_linker_0, # of connection points: 2
#     Edge 17, Type (0, 1), BuildingBlock: OJICUG_clean_linker_0, # of connection points: 2
#     Edge 18, Type (0, 1), BuildingBlock: OJICUG_clean_linker_0, # of connection points: 2
#     Edge 19, Type (0, 1), BuildingBlock: OJICUG_clean_linker_0, # of connection points: 2
#     Edge 20, Type (0, 1), BuildingBlock: OJICUG_clean_linker_0, # of connection points: 2
#     Edge 21, Type (0, 1), BuildingBlock: OJICUG_clean_linker_0, # of connection points: 2
#     Edge 22, Type (0, 1), BuildingBlock: OJICUG_clean_linker_0, # of connection points: 2
#     Edge 23, Type (0, 1), BuildingBlock: OJICUG_clean_linker_0, # of connection points: 2
#     Edge 24, Type (0, 1), BuildingBlock: OJICUG_clean_linker_0, # of connection points: 2
#     Edge 25, Type (0, 1), BuildingBlock: OJICUG_clean_linker_0, # of connection points: 2
#     Edge 26, Type (0, 1), BuildingBlock: OJICUG_clean_linker_0, # of connection points: 2
#     Edge 27, Type (0, 1), BuildingBlock: OJICUG_clean_linker_0, # of connection points: 2
#     Edge 28, Type (0, 1), BuildingBlock: OJICUG_clean_linker_0, # of connection points: 2
#     Edge 29, Type (0, 1), BuildingBlock: OJICUG_clean_linker_0, # of connection points: 2
#     Edge 30, Type (0, 1), BuildingBlock: OJICUG_clean_linker_0, # of connection points: 2
#     Edge 31, Type (0, 1), BuildingBlock: OJICUG_clean_linker_0, # of connection points: 2
#     Edge 32, Type (0, 1), BuildingBlock: OJICUG_clean_linker_0, # of connection points: 2
#     Edge 33, Type (0, 1), BuildingBlock: OJICUG_clean_linker_0, # of connection points: 2
#     Edge 34, Type (0, 1), BuildingBlock: OJICUG_clean_linker_0, # of connection points: 2
#     Edge 35, Type (0, 1), BuildingBlock: OJICUG_clean_linker_0, # of connection points: 2
# Relax obj value: 0.004
# Max RMSD: 0.054
# Mean RMSD: 0.039
data_MOF--net-nom--node1-KUFVIS_clean_sbu_0--node2-KUFVIS_clean_linker_0--edge1-OJICUG_clean_linker_0
_symmetry_space_group_name_H-M    P1
_symmetry_Int_Tables_number       1
_symmetry_cell_setting            triclinic
loop_
_symmetry_equiv_pos_as_xyz
'x, y, z'
_cell_length_a     32.304326
_cell_length_b     32.804885
_cell_length_c     35.272779
_cell_angle_alpha  90.071018
_cell_angle_beta   90.751495
_cell_angle_gamma 120.13975
loop_
_atom_site_label
_atom_site_type_symbol
_atom_site_fract_x
_atom_site_fract_y
_atom_site_fract_z
_atom_type_partial_charge
H0 H 0.2189 0.64231 0.33698 0.0
H1 H 0.11393 0.58573 0.24915 0.0
H2 H 0.07687 0.61133 0.36114 0.0
H3 H 1.00552 0.55757 0.35112 0.0
H4 H 0.89734 0.50074 0.26515 0.0
H5 H 1.04276 0.56169 0.23222 0.0
C6 C 0.18236 0.62989 0.32797 0.0
C7 C 0.14939 0.62894 0.35375 0.0
C8 C 0.17027 0.61693 0.29011 0.0
C9 C 0.12213 0.59689 0.27837 0.0
C10 C 0.08613 0.59115 0.30437 0.0
C11 C 0.10152 0.61016 0.34153 0.0
C12 C 1.03322 0.56569 0.29329 0.0
C13 C 0.99699 0.55163 0.32123 0.0
C14 C 0.94817 0.52785 0.31093 0.0
C15 C 0.93501 0.51756 0.27303 0.0
C16 C 0.96881 0.52779 0.2451 0.0
C17 C 1.01775 0.55309 0.25489 0.0
H18 H 0.57893 0.20308 0.4944 0.0
H19 H 0.54037 0.09517 0.41152 0.0
H20 H 0.53099 0.06336 0.53191 0.0
H21 H 0.48063 0.99315 0.52024 0.0
H22 H 0.4364 0.88201 0.44035 0.0
H23 H 0.5184 1.02342 0.40115 0.0
C24 C 0.56568 0.16616 0.48792 0.0
C25 C 0.55497 0.13429 0.51725 0.0
C26 C 0.5641 0.15267 0.45036 0.0
C27 C 0.54321 0.10446 0.44116 0.0
C28 C 0.5274 0.06985 0.47037 0.0
C29 C 0.53637 0.08649 0.5085 0.0
C30 C 0.50302 1.01729 0.46185 0.0
C31 C 0.48134 0.98332 0.49121 0.0
C32 C 0.45989 0.93494 0.48345 0.0
C33 C 0.45595 0.91964 0.44621 0.0
C34 C 0.47729 0.95124 0.41668 0.0
C35 C 0.50102 0.99996 0.42445 0.0
H36 H 0.57883 0.413 0.59742 0.0
H37 H 0.52374 0.46407 0.68201 0.0
H38 H 0.53339 0.5106 0.56524 0.0
H39 H 0.47266 0.52252 0.58057 0.0
H40 H 0.44791 0.5973 0.66891 0.0
H41 H 0.52686 0.5289 0.69508 0.0
C42 C 0.56371 0.4349 0.60486 0.0
C43 C 0.55727 0.46142 0.57698 0.0
C44 C 0.55515 0.43884 0.64276 0.0
C45 C 0.5326 0.46424 0.65257 0.0
C46 C 0.52319 0.49024 0.62477 0.0
C47 C 0.53665 0.4889 0.5868 0.0
C48 C 0.50277 0.521 0.63603 0.0
C49 C 0.47825 0.5347 0.60971 0.0
C50 C 0.46028 0.56414 0.62123 0.0
C51 C 0.46462 0.57761 0.65931 0.0
C52 C 0.48708 0.56344 0.68581 0.0
C53 C 0.50741 0.5368 0.674 0.0
H54 H 0.1988 0.57289 0.74662 0.0
H55 H 0.10595 0.5127 0.84089 0.0
H56 H 0.04788 0.50995 0.72858 0.0
H57 H 0.98158 0.45034 0.75095 0.0
H58 H 0.89204 0.43178 0.84539 0.0
H59 H 0.04344 0.51441 0.86036 0.0
C60 C 0.16299 0.55519 0.75813 0.0
C61 C 0.12377 0.54083 0.73368 0.0
C62 C 0.15678 0.54612 0.79687 0.0
C63 C 0.11007 0.52124 0.81109 0.0
C64 C 0.06952 0.50818 0.78714 0.0
C65 C 0.07729 0.51824 0.74801 0.0
C66 C 1.01987 0.48603 0.8031 0.0
C67 C 0.97843 0.45824 0.78018 0.0
C68 C 0.9322 0.44012 0.79503 0.0
C69 C 0.92744 0.44788 0.8332 0.0
C70 C 0.96745 0.4734 0.85665 0.0
C71 C 1.01335 0.49313 0.84164 0.0
H72 H 0.49727 0.88702 0.02337 0.0
H73 H 0.5681 0.97204 0.92698 0.0
H74 H 0.5676 0.03647 0.03453 0.0
H75 H 0.63333 0.09721 0.01258 0.0
H76 H 0.65513 0.18487 0.91641 0.0
H77 H 0.56747 0.03548 0.90363 0.0
C78 C 0.51782 0.9214 0.01045 0.0
C79 C 0.53235 0.96145 0.03281 0.0
C80 C 0.53105 0.92463 0.97253 0.0
C81 C 0.55723 0.96964 0.95616 0.0
C82 C 0.57066 1.01114 0.97798 0.0
C83 C 0.55828 1.00612 0.0167 0.0
C84 C 0.59644 0.0594 0.96065 0.0
C85 C 0.62598 0.10027 -0.01696 0.0
C86 C 0.64595 0.14572 0.96749 0.0
C87 C 0.63842 0.15014 0.92906 0.0
C88 C 0.61127 0.11055 0.90615 0.0
C89 C 0.58997 0.06539 0.92177 0.0
H90 H 0.52276 0.66289 0.08938 0.0
H91 H 0.59545 0.63572 0.17858 0.0
H92 H 0.56967 0.56402 0.06952 0.0
H93 H 0.6288 0.5528 0.08611 0.0
H94 H 0.66057 0.49212 0.18167 0.0
H95 H 0.5938 0.57369 0.20042 0.0
C96 C 0.54038 0.64413 0.09957 0.0
C97 C 0.54546 0.61344 0.07528 0.0
C98 C 0.55634 0.65044 0.13701 0.0
C99 C 0.58148 0.62838 0.14985 0.0
C100 C 0.58698 0.59638 0.12599 0.0
C101 C 0.56841 0.58937 0.08838 0.0
C102 C 0.60881 0.56821 0.14099 0.0
C103 C 0.62755 0.54717 0.11635 0.0
C104 C 0.64443 0.51798 0.13075 0.0
C105 C 0.64543 0.51244 0.16996 0.0
C106 C 0.6281 0.53326 0.1947 0.0
C107 C 0.60927 0.56035 0.18041 0.0
Mn108 Mn 0.66551 0.41491 0.39122 0.0
Mn109 Mn 0.72131 0.52978 0.41887 0.0
C110 C 0.63114 0.44057 0.4355 0.0
C111 C 0.64894 0.337 0.39504 0.0
C112 C 0.66741 0.49417 0.34433 0.0
O113 O 0.73472 0.44016 0.37465 0.0
O114 O 0.76851 0.51501 0.3966 0.0
C115 C 0.7829 0.52702 0.48059 0.0
N116 N 0.74868 0.53689 0.46852 0.0
C117 C 0.74403 0.56468 0.53063 0.0
C118 C 0.77944 0.5551 0.54364 0.0
C119 C 0.79889 0.53611 0.51852 0.0
C120 C 0.72982 0.5553 0.49243 0.0
H121 H 0.79782 0.51225 0.46144 0.0
C122 C 0.77115 0.48118 0.38081 0.0
O123 O 0.64147 0.35355 0.36403 0.0
O124 O 0.66789 0.36611 0.42354 0.0
N125 N 0.67996 0.5486 0.44165 0.0
C126 C 0.64341 0.55218 0.42543 0.0
C127 C 0.61862 0.5686 0.44724 0.0
C128 C 0.63181 0.58143 0.48539 0.0
C129 C 0.66981 0.57784 0.50137 0.0
C130 C 0.69348 0.56162 0.47817 0.0
H131 H 0.63298 0.5422 0.39616 0.0
O132 O 0.60483 0.40217 0.4161 0.0
O133 O 0.67675 0.46254 0.42875 0.0
O134 O 0.65449 0.45114 0.3497 0.0
O135 O 0.69375 0.52706 0.36777 0.0
C136 C 0.68428 0.58852 0.53969 0.0
C137 C 0.72135 0.58195 0.5543 0.0
H138 H 0.79157 0.56166 0.57296 0.0
H139 H 0.82603 0.52836 0.52841 0.0
H140 H 0.58924 0.57116 0.43472 0.0
H141 H 0.61222 0.59355 0.50224 0.0
H142 H 0.66651 0.60097 0.55834 0.0
H143 H 0.73155 0.58946 0.58397 0.0
Mn144 Mn 0.2889 0.67933 0.5479 0.0
Mn145 Mn 0.23045 0.56863 0.51174 0.0
C146 C 0.22752 0.65803 0.50366 0.0
C147 C 0.35177 0.75688 0.54662 0.0
C148 C 0.20996 0.59435 0.58901 0.0
O149 O 0.33306 0.65359 0.56238 0.0
O150 O 0.29264 0.58202 0.53462 0.0
C151 C 0.29855 0.58613 0.44997 0.0
N152 N 0.2531 0.57132 0.46144 0.0
C153 C 0.22315 0.55457 0.39711 0.0
C154 C 0.26959 0.56941 0.38462 0.0
C155 C 0.30748 0.58545 0.41117 0.0
C156 C 0.21661 0.55686 0.43606 0.0
H157 H 0.32781 0.59854 0.47025 0.0
C158 C 0.32874 0.61386 0.55324 0.0
O159 O 0.32833 0.73901 0.57753 0.0
O160 O 0.33995 0.72944 0.51711 0.0
N161 N 0.16965 0.5493 0.48803 0.0
C162 C 0.12658 0.53364 0.50493 0.0
C163 C 0.08461 0.51445 0.4825 0.0
C164 C 0.08718 0.51064 0.44304 0.0
C165 C 0.13166 0.52556 0.4264 0.0
C166 C 0.17223 0.5441 0.45023 0.0
H167 H 0.12419 0.5356 0.53531 0.0
O168 O 0.24117 0.69454 0.52546 0.0
O169 O 0.25125 0.6359 0.50783 0.0
O170 O 0.2406 0.63818 0.58712 0.0
O171 O 0.20419 0.56431 0.56322 0.0
C172 C 0.1373 0.52254 0.38713 0.0
C173 C 0.18308 0.5374 0.37247 0.0
H174 H 0.27656 0.56863 0.35475 0.0
H175 H 0.34346 0.59712 0.40175 0.0
H176 H 0.05034 0.50247 0.49562 0.0
H177 H 0.05477 0.49602 0.42582 0.0
H178 H 0.10669 0.50898 0.36795 0.0
H179 H 0.18699 0.53511 0.34222 0.0
Mn180 Mn 0.64381 0.27013 0.71456 0.0
Mn181 Mn 0.69823 0.20998 0.68679 0.0
C182 C 0.61068 0.21395 0.66711 0.0
C183 C 0.63004 0.33316 0.70972 0.0
C184 C 0.64179 0.18939 0.7591 0.0
O185 O 0.71227 0.31081 0.73511 0.0
O186 O 0.74568 0.26969 0.7124 0.0
C187 C 0.76282 0.27597 0.62904 0.0
N188 N 0.72719 0.23212 0.63857 0.0
C189 C 0.72252 0.20325 0.57496 0.0
C190 C 0.75934 0.24803 0.56455 0.0
C191 C 0.77951 0.28455 0.5917 0.0
C192 C 0.7076 0.19668 0.61268 0.0
H193 H 0.7783 0.30423 0.64974 0.0
C194 C 0.74842 0.3054 0.72969 0.0
O195 O 0.61986 0.30841 0.74041 0.0
O196 O 0.65027 0.32284 0.68275 0.0
N197 N 0.6562 0.15202 0.66078 0.0
C198 C 0.61866 0.11191 0.67468 0.0
C199 C 0.59329 0.07253 0.65068 0.0
C200 C 0.60685 0.07471 0.61273 0.0
C201 C 0.64582 0.11624 0.59914 0.0
C202 C 0.67003 0.15423 0.62446 0.0
H203 H 0.60794 0.11006 0.70378 0.0
O204 O 0.58393 0.22568 0.68589 0.0
O205 O 0.65567 0.23526 0.67676 0.0
O206 O 0.62951 0.22037 0.75449 0.0
O207 O 0.66864 0.18345 0.73617 0.0
C208 C 0.66083 0.12179 0.56123 0.0
C209 C 0.69915 0.16526 0.54915 0.0
H210 H 0.77203 0.25492 0.53569 0.0
H211 H 0.80775 0.31928 0.58382 0.0
H212 H 0.56318 0.04064 0.66136 0.0
H213 H 0.58683 0.04446 0.59419 0.0
H214 H 0.6426 0.09311 0.54096 0.0
H215 H 0.7098 0.16936 0.51977 0.0
Mn216 Mn 0.43906 0.66235 0.89232 0.0
Mn217 Mn 0.38497 0.54454 0.90613 0.0
C218 C 0.47267 0.63063 0.93234 0.0
C219 C 0.45585 0.73822 0.90842 0.0
C220 C 0.44177 0.59246 0.83636 0.0
O221 O 0.37051 0.63951 0.87383 0.0
O222 O 0.33884 0.56151 0.88402 0.0
C223 C 0.31755 0.53652 0.9657 0.0
N224 N 0.35352 0.52956 0.95388 0.0
C225 C 0.35521 0.49475 0.01349 0.0
C226 C 0.31792 0.50122 0.02616 0.0
C227 C 0.29907 0.52225 0.00217 0.0
C228 C 0.3718 0.50916 0.97668 0.0
H229 H 0.30315 0.55299 0.9475 0.0
C230 C 0.3354 0.59699 0.87312 0.0
O231 O 0.46275 0.72825 0.87432 0.0
O232 O 0.43598 0.70357 0.93208 0.0
N233 N 0.42552 0.52364 0.92816 0.0
C234 C 0.46383 0.52334 0.91276 0.0
C235 C 0.48822 0.50537 0.93382 0.0
C236 C 0.47286 0.48774 0.97037 0.0
C237 C 0.4331 0.48806 -0.01451 0.0
C238 C 0.4099 0.50596 0.96303 0.0
H239 H 0.47599 0.53714 0.88478 0.0
O240 O 0.49931 0.67145 0.917 0.0
O241 O 0.42744 0.60945 0.92351 0.0
O242 O 0.45137 0.63384 0.84563 0.0
O243 O 0.4172 0.5563 0.85685 0.0
C244 C 0.41635 0.47244 0.02232 0.0
C245 C 0.37743 0.47577 0.03631 0.0
H246 H 0.3039 0.4907 0.05442 0.0
H247 H 0.27051 0.52765 0.01184 0.0
H248 H 0.51895 0.50536 0.922 0.0
H249 H 0.49211 0.47442 -0.01331 0.0
H250 H 0.43365 0.45853 0.04037 0.0
H251 H 0.3654 0.46438 0.0649 0.0
Mn252 Mn 0.81405 0.42703 0.05595 0.0
Mn253 Mn 0.87993 0.37542 0.07601 0.0
C254 C 0.87553 0.45999 0.10047 0.0
C255 C 0.74948 0.43884 0.06556 0.0
C256 C 0.8936 0.43363 0.00586 0.0
O257 O 0.77235 0.36012 0.03471 0.0
O258 O 0.81802 0.32872 0.05165 0.0
C259 C 0.81808 0.30794 0.13412 0.0
N260 N 0.86151 0.34415 0.1237 0.0
C261 C 0.89584 0.34595 0.18508 0.0
C262 C 0.85157 0.30846 0.19636 0.0
C263 C 0.81251 0.28944 0.17078 0.0
C264 C 0.89939 0.36261 0.14805 0.0
H265 H 0.78787 0.29337 0.11464 0.0
C266 C 0.77985 0.32535 0.03701 0.0
O267 O 0.77215 0.44974 0.03377 0.0
O268 O 0.76265 0.41884 0.091 0.0
N269 N 0.94026 0.41646 0.10035 0.0
C270 C 0.97934 0.45492 0.08609 0.0
C271 C 1.02087 0.47945 0.10875 0.0
C272 C 1.02189 0.46407 0.14571 0.0
C273 C 0.98139 0.42416 0.15965 0.0
C274 C 0.94115 0.40087 0.13565 0.0
H275 H 0.9787 0.46706 0.05777 0.0
O276 O 0.86065 0.48571 0.08398 0.0
O277 O 0.85379 0.41572 0.09068 0.0
O278 O 0.86119 0.44355 0.01318 0.0
O279 O 0.90285 0.40747 0.0269 0.0
C280 C 0.97894 0.40734 0.19677 0.0
C281 C 0.9362 0.36826 0.20947 0.0
H282 H 0.84699 0.29438 0.22474 0.0
H283 H 0.77815 0.2607 0.17936 0.0
H284 H 0.05194 0.51029 0.09782 0.0
H285 H 0.05378 0.48342 0.16326 0.0
H286 H 1.00943 0.42473 0.216 0.0
H287 H 0.9345 0.35618 0.23828 0.0
Mn288 Mn 0.42772 0.80003 0.22644 0.0
Mn289 Mn 0.54477 0.87008 0.25111 0.0
C290 C 0.44995 0.85686 0.27328 0.0
C291 C 0.35335 0.73078 0.23124 0.0
C292 C 0.49967 0.88431 0.18029 0.0
O293 O 0.4597 0.76523 0.20467 0.0
O294 O 0.53565 0.81184 0.22584 0.0
C295 C 0.5532 0.80924 0.30901 0.0
N296 N 0.55781 0.8514 0.29903 0.0
C297 C 0.58735 0.88375 0.36136 0.0
C298 C 0.58324 0.84078 0.37221 0.0
C299 C 0.56598 0.80334 0.34594 0.0
C300 C 0.57436 0.88766 0.32409 0.0
H301 H 0.53978 0.7803 0.28895 0.0
C302 C 0.50304 0.77461 0.20902 0.0
O303 O 0.36503 0.75642 0.20102 0.0
O304 O 0.38538 0.74452 0.2583 0.0
N305 N 0.55882 0.9274 0.27643 0.0
C306 C 0.55726 0.96529 0.26234 0.0
C307 C 0.57154 1.00512 0.28555 0.0
C308 C 0.5876 1.00575 0.32286 0.0
C309 C 0.58942 0.96658 0.33659 0.0
C310 C 0.57511 0.92802 0.31206 0.0
H311 H 0.54491 0.96502 0.23371 0.0
O312 O 0.40887 0.8402 0.25589 0.0
O313 O 0.47633 0.8392 0.26333 0.0
O314 O 0.45741 0.85064 0.18615 0.0
O315 O 0.53536 0.89345 0.20192 0.0
C316 C 0.60371 0.96382 0.37397 0.0
C317 C 0.60263 0.92242 0.38635 0.0
H318 H 0.59271 0.83596 0.40076 0.0
H319 H 0.56243 0.76997 0.35418 0.0
H320 H 0.56997 0.03518 0.27476 0.0
H321 H 0.59802 0.03631 0.34082 0.0
H322 H 0.61473 0.99299 0.39363 0.0
H323 H 0.61285 0.9204 0.41536 0.0
C324 C 0.24893 0.62416 0.27422 0.0
C325 C 0.2107 0.63108 0.26355 0.0
H326 H 0.32476 0.65162 0.27332 0.0
C327 C 0.21838 0.66398 0.2351 0.0
H328 H 0.24401 0.5987 0.2958 0.0
C329 C 0.26466 0.6937 0.22157 0.0
C330 C 0.30392 0.69139 0.23678 0.0
H331 H 0.18985 0.67037 0.22642 0.0
H332 H 0.27028 0.72148 0.2021 0.0
C333 C 0.29529 0.65474 0.26165 0.0
C334 C 0.63805 0.22408 0.43094 0.0
C335 C 0.58933 0.19177 0.42326 0.0
H336 H 0.69471 0.29615 0.42917 0.0
C337 C 0.56339 0.20576 0.39977 0.0
H338 H 0.65864 0.21429 0.44946 0.0
C339 C 0.5846 0.2526 0.38737 0.0
C340 C 0.63138 0.28612 0.39933 0.0
H341 H 0.52565 0.18195 0.39413 0.0
H342 H 0.56292 0.26354 0.37155 0.0
C343 C 0.65855 0.27106 0.41984 0.0
C344 C 0.39192 0.54486 0.57609 0.0
C345 C 0.43296 0.5787 0.59574 0.0
H346 H 0.32673 0.52927 0.54744 0.0
C347 C 0.44219 0.62548 0.59739 0.0
H348 H 0.38356 0.50851 0.57469 0.0
C349 C 0.40926 0.63735 0.5826 0.0
C350 C 0.3664 0.6028 0.56536 0.0
H351 H 0.47373 0.65243 0.61225 0.0
H352 H 0.41668 0.67325 0.58589 0.0
C353 C 0.35905 0.5568 0.56098 0.0
C354 C 0.8482 0.41684 0.77584 0.0
C355 C 0.88776 0.41007 0.77257 0.0
H356 H 0.77333 0.38922 0.76542 0.0
C357 C 0.88195 0.37049 0.75265 0.0
H358 H 0.85177 0.44731 0.79085 0.0
C359 C 0.8369 0.33702 0.73819 0.0
C360 C 0.79662 0.3424 0.74335 0.0
H361 H 0.9116 0.36411 0.75 0.0
H362 H 0.8335 0.30624 0.72387 0.0
C363 C 0.80317 0.38339 0.76149 0.0
C364 C 0.52257 0.84475 0.97152 0.0
C365 C 0.5181 0.87983 0.95208 0.0
H366 H 0.50475 0.77271 0.9735 0.0
C367 C 0.4959 0.86895 0.91596 0.0
H368 H 0.54072 0.85219 -0.00114 0.0
C369 C 0.47623 0.82303 0.9008 0.0
C370 C 0.47753 0.78741 0.92207 0.0
H371 H 0.49194 0.89519 0.90027 0.0
H372 H 0.45843 0.81492 0.87331 0.0
C373 C 0.50176 0.79907 0.95711 0.0
C374 C 0.69617 0.5175 0.07787 0.0
C375 C 0.66265 0.49344 0.10632 0.0
H376 H 0.74976 0.5183 0.04195 0.0
C377 C 0.65214 0.44749 0.11574 0.0
H378 H 0.70511 0.55286 0.06998 0.0
C379 C 0.67853 0.42844 0.10066 0.0
C380 C 0.71482 0.45411 0.07473 0.0
H381 H 0.62556 0.42743 0.13682 0.0
H382 H 0.672 0.3945 0.11061 0.0
C383 C 0.72183 0.49775 0.06195 0.0
C384 C 0.4592 0.86639 0.51319 0.0
C385 C 0.44187 0.89811 0.51294 0.0
H386 H 0.44319 0.79568 0.52374 0.0
C387 C 0.39949 0.8861 0.5321 0.0
H388 H 0.49171 0.87484 0.49836 0.0
C389 C 0.3722 0.8409 0.54746 0.0
C390 C 0.38678 0.80736 0.54311 0.0
H391 H 0.38511 0.90966 0.53177 0.0
H392 H 0.33749 0.8307 0.5591 0.0
C393 C 0.43144 0.82108 0.52749 0.0
C394 C 0.54712 0.38122 0.69324 0.0
C395 C 0.5761 0.42044 0.67084 0.0
H396 H 0.54248 0.32278 0.72437 0.0
C397 C 0.62521 0.43568 0.66827 0.0
H398 H 0.50915 0.36856 0.69529 0.0
C399 C 0.64378 0.409 0.68368 0.0
C400 C 0.614 0.36744 0.70312 0.0
H401 H 0.6483 0.46592 0.65114 0.0
H402 H 0.68069 0.41924 0.67833 0.0
C403 C 0.56619 0.35505 0.70968 0.0
C404 C 0.23985 0.60728 0.81749 0.0
C405 C 0.19991 0.56175 0.82144 0.0
H406 H 0.31395 0.65442 0.83082 0.0
C407 C 0.2036 0.52988 0.84568 0.0
H408 H 0.23778 0.63277 0.79925 0.0
C409 C 0.24721 0.54219 0.86362 0.0
C410 C 0.28806 0.58678 0.85789 0.0
H411 H 0.17354 0.49457 0.84915 0.0
H412 H 0.24923 0.51607 0.88107 0.0
C413 C 0.28344 0.61974 0.83562 0.0
C414 C 0.66962 0.22859 -0.01394 0.0
C415 C 0.67619 0.18946 -0.00995 0.0
H416 H 0.69687 0.30193 -0.00254 0.0
C417 C 0.71509 0.19454 0.0119 0.0
H418 H 0.63963 0.22559 0.96962 0.0
C419 C 0.74811 0.23842 0.02772 0.0
C420 C 0.74287 0.27822 0.02219 0.0
H421 H 0.72128 0.1652 0.01526 0.0
H422 H 0.77839 0.24127 0.0436 0.0
C423 C 0.70249 0.2724 0.00195 0.0
C424 C 0.57801 0.72064 0.17871 0.0
C425 C 0.54306 0.67825 0.16196 0.0
H426 H 0.59288 0.78475 0.20652 0.0
C427 C 0.4947 0.66606 0.16346 0.0
H428 H 0.61551 0.73097 0.17751 0.0
C429 C 0.48165 0.69686 0.17933 0.0
C430 C 0.51669 0.74061 0.19428 0.0
H431 H 0.46707 0.63342 0.15069 0.0
H432 H 0.44416 0.68677 0.179 0.0
C433 C 0.56493 0.75157 0.19482 0.0
C434 C 0.87012 0.46702 0.33723 0.0
C435 C 0.90882 0.51368 0.33824 0.0
H436 H 0.79625 0.42014 0.34931 0.0
C437 C 0.90371 0.54817 0.35755 0.0
H438 H 0.87317 0.4398 0.32226 0.0
C439 C 0.85946 0.53706 0.37278 0.0
C440 C 0.81938 0.49123 0.36882 0.0
H441 H 0.9327 0.58444 0.35826 0.0
H442 H 0.85618 0.56511 0.38597 0.0
C443 C 0.82586 0.45592 0.35225 0.0
C444 C 0.13567 0.62608 0.42485 0.0
C445 C 0.16611 0.64564 0.3936 0.0
H446 H 0.13143 0.61696 0.48543 0.0
C447 C 0.21508 0.6775 0.40108 0.0
H448 H 0.09754 0.60294 0.42094 0.0
C449 C 0.2344 0.68144 0.43718 0.0
C450 C 0.20476 0.65686 0.46724 0.0
H451 H 0.23945 0.69753 0.37875 0.0
H452 H 0.27281 0.70291 0.44146 0.0
C453 C 0.155 0.63292 0.46174 0.0
C454 C 0.53872 0.12956 0.58749 0.0
C455 C 0.56813 0.15292 0.55653 0.0
H456 H 0.52924 0.13097 0.64774 0.0
C457 C 0.61075 0.19595 0.56284 0.0
H458 H 0.50544 0.09664 0.58341 0.0
C459 C 0.62334 0.21563 0.59881 0.0
C460 C 0.59497 0.19187 0.62974 0.0
H461 H 0.63498 0.21451 0.53997 0.0
H462 H 0.65597 0.2493 0.60253 0.0
C463 C 0.55198 0.14921 0.62403 0.0
C464 C 0.46416 0.53511 0.75193 0.0
C465 C 0.48428 0.57272 0.72637 0.0
H466 H 0.43451 0.51167 0.80685 0.0
C467 C 0.49463 0.61767 0.73843 0.0
H468 H 0.45548 0.50001 0.74311 0.0
C469 C 0.48237 0.62436 0.77468 0.0
C470 C 0.45924 0.58613 0.79954 0.0
H471 H 0.51036 0.64722 0.71919 0.0
H472 H 0.48942 0.65922 0.78258 0.0
C473 C 0.45163 0.54172 0.78822 0.0
C474 C 0.92849 0.49023 0.90969 0.0
C475 C 0.95961 0.47494 0.89751 0.0
H476 H 0.88342 0.48944 0.95357 0.0
C477 C 0.97425 0.45165 0.92296 0.0
H478 H 0.91672 0.50815 0.89034 0.0
C479 C 0.95464 0.44013 0.95914 0.0
C480 C 0.92022 0.45189 0.97026 0.0
H481 H 0.99788 0.43915 0.91388 0.0
H482 H 0.96456 0.4199 0.97753 0.0
C483 C 0.90911 0.479 0.94577 0.0
C484 C 0.56224 0.96695 0.09887 0.0
C485 C 0.52358 0.95459 0.07381 0.0
H486 H 0.58513 0.95414 0.15252 0.0
C487 C 0.47679 0.92488 0.08624 0.0
H488 H 0.59867 0.98937 0.08959 0.0
C489 C 0.46894 0.9042 0.12187 0.0
C490 C 0.50781 0.91272 0.14568 0.0
H491 H 0.44652 0.91472 0.06718 0.0
H492 H 0.43247 0.87941 0.12972 0.0
C493 C 0.55444 0.94619 0.13463 0.0
C494 C 0.60728 0.47895 0.24885 0.0
C495 C 0.62996 0.52531 0.2356 0.0
H496 H 0.60095 0.43286 0.29364 0.0
C497 C 0.66093 0.56243 0.25987 0.0
H498 H 0.58329 0.44987 0.23044 0.0
C499 C 0.67173 0.5528 0.29619 0.0
C500 C 0.65167 0.50591 0.30846 0.0
H501 H 0.67909 0.59843 0.24989 0.0
H502 H 0.69751 0.58179 0.3138 0.0
C503 C 0.61787 0.46933 0.28491 0.0
C504 C 0.48019 0.8913 0.37527 0.0
C505 C 0.47511 0.93133 0.37842 0.0
H506 H 0.47351 0.83538 0.34003 0.0
C507 C 0.46273 0.94787 0.3459 0.0
H508 H 0.49034 0.8779 0.39957 0.0
C509 C 0.45456 0.92392 0.31114 0.0
C510 C 0.45936 0.88375 0.30866 0.0
H511 H 0.45783 0.97813 0.34761 0.0
H512 H 0.44459 0.93665 0.28632 0.0
C513 C 0.47111 0.86715 0.3411 0.0
C514 C 0.62215 0.46515 0.53762 0.0
C515 C 0.57742 0.46263 0.53915 0.0
H516 H 0.67188 0.45676 0.50424 0.0
C517 C 0.55093 0.45519 0.50535 0.0
H518 H 0.6439 0.47153 0.563 0.0
C519 C 0.5684 0.44863 0.47094 0.0
C520 C 0.61259 0.44997 0.47018 0.0
H521 H 0.51614 0.45254 0.5058 0.0
H522 H 0.54739 0.4421 0.44513 0.0
C523 C 0.63862 0.45731 0.50389 0.0
C524 C 0.15533 0.5984 0.68183 0.0
C525 C 0.13351 0.55136 0.69323 0.0
H526 H 0.19628 0.64876 0.63984 0.0
C527 C 0.13208 0.51717 0.66844 0.0
H528 H 0.15735 0.62531 0.70089 0.0
C529 C 0.15497 0.53051 0.63345 0.0
C530 C 0.18 0.5783 0.6232 0.0
H531 H 0.11614 0.48078 0.67724 0.0
H532 H 0.15534 0.50388 0.61551 0.0
C533 C 0.17822 0.61176 0.64713 0.0
C534 C 0.58633 0.14495 0.85462 0.0
C535 C 0.60733 0.11832 0.86557 0.0
H536 H 0.58036 0.18798 0.81219 0.0
C537 C 0.63427 0.1095 0.83942 0.0
H538 H 0.56578 0.15242 0.87465 0.0
C539 C 0.64343 0.13047 0.80369 0.0
C540 C 0.62581 0.1606 0.79384 0.0
H541 H 0.65131 0.08956 0.84767 0.0
H542 H 0.66657 0.12529 0.78478 0.0
C543 C 0.59528 0.16574 0.81903 0.0
C544 C 0.47756 0.59913 0.0334 0.0
C545 C 0.52415 0.60647 0.0369 0.0
H546 H 0.42666 0.60456 -0.00193 0.0
C547 C 0.55241 0.61691 0.00448 0.0
H548 H 0.45512 0.59119 0.05803 0.0
C549 C 0.53515 0.62294 0.96947 0.0
C550 C 0.4895 0.61817 0.96681 0.0
H551 H 0.58874 0.6235 0.00672 0.0
H552 H 0.55789 0.63288 0.94492 0.0
C553 C 0.46111 0.60642 -0.00095 0.0
C554 C 0.91063 0.46398 0.20233 0.0
C555 C 0.9507 0.50948 0.20631 0.0
H556 H 0.85407 0.41453 0.16637 0.0
C557 C 0.96832 0.53803 0.1741 0.0
H558 H 0.89649 0.44078 0.22646 0.0
C559 C 0.94475 0.52175 0.1389 0.0
C560 C 0.90381 0.47676 0.13573 0.0
H561 H 0.99874 0.57342 0.17645 0.0
H562 H 0.95788 0.54441 0.11441 0.0
C563 C 0.88665 0.44853 0.16782 0.0
loop_
_geom_bond_atom_site_label_1
_geom_bond_atom_site_label_2
_geom_bond_distance
_geom_bond_site_symmetry_2
_ccdc_geom_bond_type
H0 C6 0.930 . S
H1 C9 0.931 . S
H2 C11 0.931 . S
H3 C13 0.930 . S
H4 C15 0.930 . S
H5 C17 0.931 . S
C6 H0 0.930 . S
C6 C7 1.380 . S
C6 C8 1.394 . S
C7 C6 1.380 . S
C7 C11 1.382 . S
C8 C6 1.394 . S
C8 C9 1.400 . S
C9 H1 0.931 . S
C9 C8 1.400 . S
C9 C10 1.375 . S
C10 C9 1.375 . S
C10 C11 1.415 . S
C10 C12 1.501 1_455 S
C11 H2 0.931 . S
C11 C7 1.382 . S
C11 C10 1.415 . S
C12 C10 1.501 1_655 S
C12 C13 1.384 . S
C12 C17 1.408 . S
C13 H3 0.930 . S
C13 C12 1.384 . S
C13 C14 1.389 . S
C14 C13 1.389 . S
C14 C15 1.405 . S
C15 H4 0.930 . S
C15 C14 1.405 . S
C15 C16 1.364 . S
C16 C15 1.364 . S
C16 C17 1.400 . S
C17 H5 0.931 . S
C17 C12 1.408 . S
C17 C16 1.400 . S
H18 C24 0.930 . S
H19 C27 0.931 . S
H20 C29 0.931 . S
H21 C31 0.930 . S
H22 C33 0.930 . S
H23 C35 0.931 . S
C24 H18 0.930 . S
C24 C25 1.380 . S
C24 C26 1.394 . S
C25 C24 1.380 . S
C25 C29 1.382 . S
C26 C24 1.394 . S
C26 C27 1.400 . S
C27 H19 0.931 . S
C27 C26 1.400 . S
C27 C28 1.375 . S
C28 C27 1.375 . S
C28 C29 1.415 . S
C28 C30 1.501 1_545 S
C29 H20 0.931 . S
C29 C25 1.382 . S
C29 C28 1.415 . S
C30 C28 1.501 1_565 S
C30 C31 1.384 . S
C30 C35 1.408 . S
C31 H21 0.930 . S
C31 C30 1.384 . S
C31 C32 1.389 . S
C32 C31 1.389 . S
C32 C33 1.405 . S
C33 H22 0.930 . S
C33 C32 1.405 . S
C33 C34 1.364 . S
C34 C33 1.364 . S
C34 C35 1.400 . S
C35 H23 0.931 . S
C35 C30 1.408 . S
C35 C34 1.400 . S
H36 C42 0.930 . S
H37 C45 0.931 . S
H38 C47 0.931 . S
H39 C49 0.930 . S
H40 C51 0.930 . S
H41 C53 0.931 . S
C42 H36 0.930 . S
C42 C43 1.380 . S
C42 C44 1.394 . S
C43 C42 1.380 . S
C43 C47 1.382 . S
C44 C42 1.394 . S
C44 C45 1.400 . S
C45 H37 0.931 . S
C45 C44 1.400 . S
C45 C46 1.375 . S
C46 C45 1.375 . S
C46 C47 1.415 . S
C46 C48 1.501 . S
C47 H38 0.931 . S
C47 C43 1.382 . S
C47 C46 1.415 . S
C48 C46 1.501 . S
C48 C49 1.384 . S
C48 C53 1.408 . S
C49 H39 0.930 . S
C49 C48 1.384 . S
C49 C50 1.389 . S
C50 C49 1.389 . S
C50 C51 1.405 . S
C51 H40 0.930 . S
C51 C50 1.405 . S
C51 C52 1.364 . S
C52 C51 1.364 . S
C52 C53 1.400 . S
C53 H41 0.931 . S
C53 C48 1.408 . S
C53 C52 1.400 . S
H54 C60 0.930 . S
H55 C63 0.931 . S
H56 C65 0.931 . S
H57 C67 0.930 . S
H58 C69 0.930 . S
H59 C71 0.931 . S
C60 H54 0.930 . S
C60 C61 1.380 . S
C60 C62 1.394 . S
C61 C60 1.380 . S
C61 C65 1.382 . S
C62 C60 1.394 . S
C62 C63 1.400 . S
C63 H55 0.931 . S
C63 C62 1.400 . S
C63 C64 1.375 . S
C64 C63 1.375 . S
C64 C65 1.415 . S
C64 C66 1.501 1_455 S
C65 H56 0.931 . S
C65 C61 1.382 . S
C65 C64 1.415 . S
C66 C64 1.501 1_655 S
C66 C67 1.384 . S
C66 C71 1.408 . S
C67 H57 0.930 . S
C67 C66 1.384 . S
C67 C68 1.389 . S
C68 C67 1.389 . S
C68 C69 1.405 . S
C69 H58 0.930 . S
C69 C68 1.405 . S
C69 C70 1.364 . S
C70 C69 1.364 . S
C70 C71 1.400 . S
C71 H59 0.931 . S
C71 C66 1.408 . S
C71 C70 1.400 . S
H72 C78 0.930 . S
H73 C81 0.931 . S
H74 C83 0.931 1_545 S
H75 C85 0.930 . S
H76 C87 0.930 . S
H77 C89 0.931 . S
C78 H72 0.930 . S
C78 C79 1.380 . S
C78 C80 1.394 1_554 S
C79 C78 1.380 . S
C79 C83 1.382 . S
C80 C78 1.394 1_556 S
C80 C81 1.400 . S
C81 H73 0.931 . S
C81 C80 1.400 . S
C81 C82 1.375 . S
C82 C81 1.375 . S
C82 C83 1.415 1_556 S
C82 C84 1.501 1_565 S
C83 H74 0.931 1_565 S
C83 C79 1.382 . S
C83 C82 1.415 1_554 S
C84 C82 1.501 1_545 S
C84 C85 1.384 1_556 S
C84 C89 1.408 . S
C85 H75 0.930 . S
C85 C84 1.384 1_554 S
C85 C86 1.389 . S
C86 C85 1.389 . S
C86 C87 1.405 1_554 S
C87 H76 0.930 . S
C87 C86 1.405 1_556 S
C87 C88 1.364 . S
C88 C87 1.364 . S
C88 C89 1.400 . S
C89 H77 0.931 . S
C89 C84 1.408 . S
C89 C88 1.400 . S
H90 C96 0.930 . S
H91 C99 0.931 . S
H92 C101 0.931 . S
H93 C103 0.930 . S
H94 C105 0.930 . S
H95 C107 0.931 . S
C96 H90 0.930 . S
C96 C97 1.380 . S
C96 C98 1.394 . S
C97 C96 1.380 . S
C97 C101 1.382 . S
C98 C96 1.394 . S
C98 C99 1.400 . S
C99 H91 0.931 . S
C99 C98 1.400 . S
C99 C100 1.375 . S
C100 C99 1.375 . S
C100 C101 1.415 . S
C100 C102 1.501 . S
C101 H92 0.931 . S
C101 C97 1.382 . S
C101 C100 1.415 . S
C102 C100 1.501 . S
C102 C103 1.384 . S
C102 C107 1.408 . S
C103 H93 0.930 . S
C103 C102 1.384 . S
C103 C104 1.389 . S
C104 C103 1.389 . S
C104 C105 1.405 . S
C105 H94 0.930 . S
C105 C104 1.405 . S
C105 C106 1.364 . S
C106 C105 1.364 . S
C106 C107 1.400 . S
C107 H95 0.931 . S
C107 C102 1.408 . S
C107 C106 1.400 . S
Mn108 O113 2.095 . S
Mn108 O123 2.162 . S
Mn108 O124 2.297 . S
Mn108 O132 2.385 . S
Mn108 O133 2.209 . S
Mn108 O134 2.094 . S
Mn109 O114 2.121 . S
Mn109 N116 2.257 . S
Mn109 N125 2.282 . S
Mn109 O133 2.215 . S
Mn109 O135 2.117 . S
C110 O132 1.234 . S
C110 O133 1.283 . S
C111 O123 1.281 . S
C111 O124 1.236 . S
C112 O134 1.240 . S
C112 O135 1.264 . S
O113 Mn108 2.095 . S
O113 C122 1.250 . S
O114 Mn109 2.121 . S
O114 C122 1.258 . S
C115 N116 1.326 . S
C115 C119 1.460 . S
C115 H121 0.929 . S
N116 Mn109 2.257 . S
N116 C115 1.326 . S
N116 C120 1.362 . S
C117 C118 1.258 . S
C117 C120 1.431 . S
C117 C137 1.449 . S
C118 C117 1.258 . S
C118 C119 1.477 . S
C118 H138 0.931 . S
C119 C115 1.460 . S
C119 C118 1.477 . S
C119 H139 0.930 . S
C120 N116 1.362 . S
C120 C117 1.431 . S
C120 C130 1.476 . S
H121 C115 0.929 . S
C122 O113 1.250 . S
C122 O114 1.258 . S
O123 Mn108 2.162 . S
O123 C111 1.281 . S
O124 Mn108 2.297 . S
O124 C111 1.236 . S
N125 Mn109 2.282 . S
N125 C126 1.328 . S
N125 C130 1.318 . S
C126 N125 1.328 . S
C126 C127 1.457 . S
C126 H131 0.929 . S
C127 C126 1.457 . S
C127 C128 1.291 . S
C127 H140 0.931 . S
C128 C127 1.291 . S
C128 C129 1.373 . S
C128 H141 0.929 . S
C129 C128 1.373 . S
C129 C130 1.396 . S
C129 C136 1.403 . S
C130 C120 1.476 . S
C130 N125 1.318 . S
C130 C129 1.396 . S
H131 C126 0.929 . S
O132 Mn108 2.385 . S
O132 C110 1.234 . S
O133 Mn108 2.209 . S
O133 Mn109 2.215 . S
O133 C110 1.283 . S
O134 Mn108 2.094 . S
O134 C112 1.240 . S
O135 Mn109 2.117 . S
O135 C112 1.264 . S
C136 C129 1.403 . S
C136 C137 1.399 . S
C136 H142 0.929 . S
C137 C117 1.449 . S
C137 C136 1.399 . S
C137 H143 0.930 . S
H138 C118 0.931 . S
H139 C119 0.930 . S
H140 C127 0.931 . S
H141 C128 0.929 . S
H142 C136 0.929 . S
H143 C137 0.930 . S
Mn144 O149 2.095 . S
Mn144 O159 2.162 . S
Mn144 O160 2.297 . S
Mn144 O168 2.385 . S
Mn144 O169 2.209 . S
Mn144 O170 2.094 . S
Mn145 O150 2.121 . S
Mn145 N152 2.257 . S
Mn145 N161 2.282 . S
Mn145 O169 2.215 . S
Mn145 O171 2.117 . S
C146 O168 1.234 . S
C146 O169 1.283 . S
C147 O159 1.281 . S
C147 O160 1.236 . S
C148 O170 1.240 . S
C148 O171 1.264 . S
O149 Mn144 2.095 . S
O149 C158 1.250 . S
O150 Mn145 2.121 . S
O150 C158 1.258 . S
C151 N152 1.326 . S
C151 C155 1.460 . S
C151 H157 0.929 . S
N152 Mn145 2.257 . S
N152 C151 1.326 . S
N152 C156 1.362 . S
C153 C154 1.258 . S
C153 C156 1.431 . S
C153 C173 1.449 . S
C154 C153 1.258 . S
C154 C155 1.477 . S
C154 H174 0.931 . S
C155 C151 1.460 . S
C155 C154 1.477 . S
C155 H175 0.930 . S
C156 N152 1.362 . S
C156 C153 1.431 . S
C156 C166 1.476 . S
H157 C151 0.929 . S
C158 O149 1.250 . S
C158 O150 1.258 . S
O159 Mn144 2.162 . S
O159 C147 1.281 . S
O160 Mn144 2.297 . S
O160 C147 1.236 . S
N161 Mn145 2.282 . S
N161 C162 1.328 . S
N161 C166 1.318 . S
C162 N161 1.328 . S
C162 C163 1.457 . S
C162 H167 0.929 . S
C163 C162 1.457 . S
C163 C164 1.291 . S
C163 H176 0.931 . S
C164 C163 1.291 . S
C164 C165 1.373 . S
C164 H177 0.929 . S
C165 C164 1.373 . S
C165 C166 1.396 . S
C165 C172 1.403 . S
C166 C156 1.476 . S
C166 N161 1.318 . S
C166 C165 1.396 . S
H167 C162 0.929 . S
O168 Mn144 2.385 . S
O168 C146 1.234 . S
O169 Mn144 2.209 . S
O169 Mn145 2.215 . S
O169 C146 1.283 . S
O170 Mn144 2.094 . S
O170 C148 1.240 . S
O171 Mn145 2.117 . S
O171 C148 1.264 . S
C172 C165 1.403 . S
C172 C173 1.399 . S
C172 H178 0.929 . S
C173 C153 1.449 . S
C173 C172 1.399 . S
C173 H179 0.930 . S
H174 C154 0.931 . S
H175 C155 0.930 . S
H176 C163 0.931 . S
H177 C164 0.929 . S
H178 C172 0.929 . S
H179 C173 0.930 . S
Mn180 O185 2.095 . S
Mn180 O195 2.162 . S
Mn180 O196 2.297 . S
Mn180 O204 2.385 . S
Mn180 O205 2.209 . S
Mn180 O206 2.094 . S
Mn181 O186 2.121 . S
Mn181 N188 2.257 . S
Mn181 N197 2.282 . S
Mn181 O205 2.215 . S
Mn181 O207 2.117 . S
C182 O204 1.234 . S
C182 O205 1.283 . S
C183 O195 1.281 . S
C183 O196 1.236 . S
C184 O206 1.240 . S
C184 O207 1.264 . S
O185 Mn180 2.095 . S
O185 C194 1.250 . S
O186 Mn181 2.121 . S
O186 C194 1.258 . S
C187 N188 1.326 . S
C187 C191 1.460 . S
C187 H193 0.929 . S
N188 Mn181 2.257 . S
N188 C187 1.326 . S
N188 C192 1.362 . S
C189 C190 1.258 . S
C189 C192 1.431 . S
C189 C209 1.449 . S
C190 C189 1.258 . S
C190 C191 1.477 . S
C190 H210 0.931 . S
C191 C187 1.460 . S
C191 C190 1.477 . S
C191 H211 0.930 . S
C192 N188 1.362 . S
C192 C189 1.431 . S
C192 C202 1.476 . S
H193 C187 0.929 . S
C194 O185 1.250 . S
C194 O186 1.258 . S
O195 Mn180 2.162 . S
O195 C183 1.281 . S
O196 Mn180 2.297 . S
O196 C183 1.236 . S
N197 Mn181 2.282 . S
N197 C198 1.328 . S
N197 C202 1.318 . S
C198 N197 1.328 . S
C198 C199 1.457 . S
C198 H203 0.929 . S
C199 C198 1.457 . S
C199 C200 1.291 . S
C199 H212 0.931 . S
C200 C199 1.291 . S
C200 C201 1.373 . S
C200 H213 0.929 . S
C201 C200 1.373 . S
C201 C202 1.396 . S
C201 C208 1.403 . S
C202 C192 1.476 . S
C202 N197 1.318 . S
C202 C201 1.396 . S
H203 C198 0.929 . S
O204 Mn180 2.385 . S
O204 C182 1.234 . S
O205 Mn180 2.209 . S
O205 Mn181 2.215 . S
O205 C182 1.283 . S
O206 Mn180 2.094 . S
O206 C184 1.240 . S
O207 Mn181 2.117 . S
O207 C184 1.264 . S
C208 C201 1.403 . S
C208 C209 1.399 . S
C208 H214 0.929 . S
C209 C189 1.449 . S
C209 C208 1.399 . S
C209 H215 0.930 . S
H210 C190 0.931 . S
H211 C191 0.930 . S
H212 C199 0.931 . S
H213 C200 0.929 . S
H214 C208 0.929 . S
H215 C209 0.930 . S
Mn216 O221 2.095 . S
Mn216 O231 2.162 . S
Mn216 O232 2.297 . S
Mn216 O240 2.385 . S
Mn216 O241 2.209 . S
Mn216 O242 2.094 . S
Mn217 O222 2.121 . S
Mn217 N224 2.257 . S
Mn217 N233 2.282 . S
Mn217 O241 2.215 . S
Mn217 O243 2.117 . S
C218 O240 1.234 . S
C218 O241 1.283 . S
C219 O231 1.281 . S
C219 O232 1.236 . S
C220 O242 1.240 . S
C220 O243 1.264 . S
O221 Mn216 2.095 . S
O221 C230 1.250 . S
O222 Mn217 2.121 . S
O222 C230 1.258 . S
C223 N224 1.326 . S
C223 C227 1.460 1_556 S
C223 H229 0.929 . S
N224 Mn217 2.257 . S
N224 C223 1.326 . S
N224 C228 1.362 . S
C225 C226 1.258 . S
C225 C228 1.431 1_554 S
C225 C245 1.449 . S
C226 C225 1.258 . S
C226 C227 1.477 . S
C226 H246 0.931 . S
C227 C223 1.460 1_554 S
C227 C226 1.477 . S
C227 H247 0.930 . S
C228 N224 1.362 . S
C228 C225 1.431 1_556 S
C228 C238 1.476 . S
H229 C223 0.929 . S
C230 O221 1.250 . S
C230 O222 1.258 . S
O231 Mn216 2.162 . S
O231 C219 1.281 . S
O232 Mn216 2.297 . S
O232 C219 1.236 . S
N233 Mn217 2.282 . S
N233 C234 1.328 . S
N233 C238 1.318 . S
C234 N233 1.328 . S
C234 C235 1.457 . S
C234 H239 0.929 . S
C235 C234 1.457 . S
C235 C236 1.291 . S
C235 H248 0.931 . S
C236 C235 1.291 . S
C236 C237 1.373 . S
C236 H249 0.929 . S
C237 C236 1.373 . S
C237 C238 1.396 . S
C237 C244 1.403 1_556 S
C238 C228 1.476 . S
C238 N233 1.318 . S
C238 C237 1.396 . S
H239 C234 0.929 . S
O240 Mn216 2.385 . S
O240 C218 1.234 . S
O241 Mn216 2.209 . S
O241 Mn217 2.215 . S
O241 C218 1.283 . S
O242 Mn216 2.094 . S
O242 C220 1.240 . S
O243 Mn217 2.117 . S
O243 C220 1.264 . S
C244 C237 1.403 1_554 S
C244 C245 1.399 . S
C244 H250 0.929 . S
C245 C225 1.449 . S
C245 C244 1.399 . S
C245 H251 0.930 . S
H246 C226 0.931 . S
H247 C227 0.930 . S
H248 C235 0.931 . S
H249 C236 0.929 . S
H250 C244 0.929 . S
H251 C245 0.930 . S
Mn252 O257 2.095 . S
Mn252 O267 2.162 . S
Mn252 O268 2.297 . S
Mn252 O276 2.385 . S
Mn252 O277 2.209 . S
Mn252 O278 2.094 . S
Mn253 O258 2.121 . S
Mn253 N260 2.257 . S
Mn253 N269 2.282 . S
Mn253 O277 2.215 . S
Mn253 O279 2.117 . S
C254 O276 1.234 . S
C254 O277 1.283 . S
C255 O267 1.281 . S
C255 O268 1.236 . S
C256 O278 1.240 . S
C256 O279 1.264 . S
O257 Mn252 2.095 . S
O257 C266 1.250 . S
O258 Mn253 2.121 . S
O258 C266 1.258 . S
C259 N260 1.326 . S
C259 C263 1.460 . S
C259 H265 0.929 . S
N260 Mn253 2.257 . S
N260 C259 1.326 . S
N260 C264 1.362 . S
C261 C262 1.258 . S
C261 C264 1.431 . S
C261 C281 1.449 . S
C262 C261 1.258 . S
C262 C263 1.477 . S
C262 H282 0.931 . S
C263 C259 1.460 . S
C263 C262 1.477 . S
C263 H283 0.930 . S
C264 N260 1.362 . S
C264 C261 1.431 . S
C264 C274 1.476 . S
H265 C259 0.929 . S
C266 O257 1.250 . S
C266 O258 1.258 . S
O267 Mn252 2.162 . S
O267 C255 1.281 . S
O268 Mn252 2.297 . S
O268 C255 1.236 . S
N269 Mn253 2.282 . S
N269 C270 1.328 . S
N269 C274 1.318 . S
C270 N269 1.328 . S
C270 C271 1.457 . S
C270 H275 0.929 . S
C271 C270 1.457 . S
C271 C272 1.291 . S
C271 H284 0.931 . S
C272 C271 1.291 . S
C272 C273 1.373 . S
C272 H285 0.929 . S
C273 C272 1.373 . S
C273 C274 1.396 . S
C273 C280 1.403 . S
C274 C264 1.476 . S
C274 N269 1.318 . S
C274 C273 1.396 . S
H275 C270 0.929 . S
O276 Mn252 2.385 . S
O276 C254 1.234 . S
O277 Mn252 2.209 . S
O277 Mn253 2.215 . S
O277 C254 1.283 . S
O278 Mn252 2.094 . S
O278 C256 1.240 . S
O279 Mn253 2.117 . S
O279 C256 1.264 . S
C280 C273 1.403 . S
C280 C281 1.399 . S
C280 H286 0.929 . S
C281 C261 1.449 . S
C281 C280 1.399 . S
C281 H287 0.930 . S
H282 C262 0.931 . S
H283 C263 0.930 . S
H284 C271 0.931 . S
H285 C272 0.929 . S
H286 C280 0.929 . S
H287 C281 0.930 . S
Mn288 O293 2.095 . S
Mn288 O303 2.162 . S
Mn288 O304 2.297 . S
Mn288 O312 2.385 . S
Mn288 O313 2.209 . S
Mn288 O314 2.094 . S
Mn289 O294 2.121 . S
Mn289 N296 2.257 . S
Mn289 N305 2.282 . S
Mn289 O313 2.215 . S
Mn289 O315 2.117 . S
C290 O312 1.234 . S
C290 O313 1.283 . S
C291 O303 1.281 . S
C291 O304 1.236 . S
C292 O314 1.240 . S
C292 O315 1.264 . S
O293 Mn288 2.095 . S
O293 C302 1.250 . S
O294 Mn289 2.121 . S
O294 C302 1.258 . S
C295 N296 1.326 . S
C295 C299 1.460 . S
C295 H301 0.929 . S
N296 Mn289 2.257 . S
N296 C295 1.326 . S
N296 C300 1.362 . S
C297 C298 1.258 . S
C297 C300 1.431 . S
C297 C317 1.449 . S
C298 C297 1.258 . S
C298 C299 1.477 . S
C298 H318 0.931 . S
C299 C295 1.460 . S
C299 C298 1.477 . S
C299 H319 0.930 . S
C300 N296 1.362 . S
C300 C297 1.431 . S
C300 C310 1.476 . S
H301 C295 0.929 . S
C302 O293 1.250 . S
C302 O294 1.258 . S
O303 Mn288 2.162 . S
O303 C291 1.281 . S
O304 Mn288 2.297 . S
O304 C291 1.236 . S
N305 Mn289 2.282 . S
N305 C306 1.328 . S
N305 C310 1.318 . S
C306 N305 1.328 . S
C306 C307 1.457 . S
C306 H311 0.929 . S
C307 C306 1.457 . S
C307 C308 1.291 . S
C307 H320 0.931 . S
C308 C307 1.291 . S
C308 C309 1.373 . S
C308 H321 0.929 . S
C309 C308 1.373 . S
C309 C310 1.396 . S
C309 C316 1.403 . S
C310 C300 1.476 . S
C310 N305 1.318 . S
C310 C309 1.396 . S
H311 C306 0.929 . S
O312 Mn288 2.385 . S
O312 C290 1.234 . S
O313 Mn288 2.209 . S
O313 Mn289 2.215 . S
O313 C290 1.283 . S
O314 Mn288 2.094 . S
O314 C292 1.240 . S
O315 Mn289 2.117 . S
O315 C292 1.264 . S
C316 C309 1.403 . S
C316 C317 1.399 . S
C316 H322 0.929 . S
C317 C297 1.449 . S
C317 C316 1.399 . S
C317 H323 0.930 . S
H318 C298 0.931 . S
H319 C299 0.930 . S
H320 C307 0.931 . S
H321 C308 0.929 . S
H322 C316 0.929 . S
H323 C317 0.930 . S
C324 C325 1.387 . S
C324 H328 0.950 . S
C324 C333 1.390 . S
C325 C324 1.387 . S
C325 C327 1.387 . S
H326 C333 0.950 . S
C327 C325 1.387 . S
C327 C329 1.390 . S
C327 H331 0.950 . S
H328 C324 0.950 . S
C329 C327 1.390 . S
C329 C330 1.387 . S
C329 H332 0.950 . S
C330 C329 1.387 . S
C330 C333 1.387 . S
H331 C327 0.950 . S
H332 C329 0.950 . S
C333 C324 1.390 . S
C333 H326 0.950 . S
C333 C330 1.387 . S
C334 C335 1.387 . S
C334 H338 0.950 . S
C334 C343 1.390 . S
C335 C334 1.387 . S
C335 C337 1.387 . S
H336 C343 0.950 . S
C337 C335 1.387 . S
C337 C339 1.390 . S
C337 H341 0.950 . S
H338 C334 0.950 . S
C339 C337 1.390 . S
C339 C340 1.387 . S
C339 H342 0.950 . S
C340 C339 1.387 . S
C340 C343 1.387 . S
H341 C337 0.950 . S
H342 C339 0.950 . S
C343 C334 1.390 . S
C343 H336 0.950 . S
C343 C340 1.387 . S
C344 C345 1.387 . S
C344 H348 0.950 . S
C344 C353 1.390 . S
C345 C344 1.387 . S
C345 C347 1.387 . S
H346 C353 0.950 . S
C347 C345 1.387 . S
C347 C349 1.390 . S
C347 H351 0.950 . S
H348 C344 0.950 . S
C349 C347 1.390 . S
C349 C350 1.387 . S
C349 H352 0.950 . S
C350 C349 1.387 . S
C350 C353 1.387 . S
H351 C347 0.950 . S
H352 C349 0.950 . S
C353 C344 1.390 . S
C353 H346 0.950 . S
C353 C350 1.387 . S
C354 C355 1.387 . S
C354 H358 0.950 . S
C354 C363 1.390 . S
C355 C354 1.387 . S
C355 C357 1.387 . S
H356 C363 0.950 . S
C357 C355 1.387 . S
C357 C359 1.390 . S
C357 H361 0.950 . S
H358 C354 0.950 . S
C359 C357 1.390 . S
C359 C360 1.387 . S
C359 H362 0.950 . S
C360 C359 1.387 . S
C360 C363 1.387 . S
H361 C357 0.950 . S
H362 C359 0.950 . S
C363 C354 1.390 . S
C363 H356 0.950 . S
C363 C360 1.387 . S
C364 C365 1.387 . S
C364 H368 0.950 1_556 S
C364 C373 1.390 . S
C365 C364 1.387 . S
C365 C367 1.387 . S
H366 C373 0.950 . S
C367 C365 1.387 . S
C367 C369 1.390 . S
C367 H371 0.950 . S
H368 C364 0.950 1_554 S
C369 C367 1.390 . S
C369 C370 1.387 . S
C369 H372 0.950 . S
C370 C369 1.387 . S
C370 C373 1.387 . S
H371 C367 0.950 . S
H372 C369 0.950 . S
C373 C364 1.390 . S
C373 H366 0.950 . S
C373 C370 1.387 . S
C374 C375 1.387 . S
C374 H378 0.950 . S
C374 C383 1.390 . S
C375 C374 1.387 . S
C375 C377 1.387 . S
H376 C383 0.950 . S
C377 C375 1.387 . S
C377 C379 1.390 . S
C377 H381 0.950 . S
H378 C374 0.950 . S
C379 C377 1.390 . S
C379 C380 1.387 . S
C379 H382 0.950 . S
C380 C379 1.387 . S
C380 C383 1.387 . S
H381 C377 0.950 . S
H382 C379 0.950 . S
C383 C374 1.390 . S
C383 H376 0.950 . S
C383 C380 1.387 . S
C384 C385 1.387 . S
C384 H388 0.950 . S
C384 C393 1.390 . S
C385 C384 1.387 . S
C385 C387 1.387 . S
H386 C393 0.950 . S
C387 C385 1.387 . S
C387 C389 1.390 . S
C387 H391 0.950 . S
H388 C384 0.950 . S
C389 C387 1.390 . S
C389 C390 1.387 . S
C389 H392 0.950 . S
C390 C389 1.387 . S
C390 C393 1.387 . S
H391 C387 0.950 . S
H392 C389 0.950 . S
C393 C384 1.390 . S
C393 H386 0.950 . S
C393 C390 1.387 . S
C394 C395 1.387 . S
C394 H398 0.950 . S
C394 C403 1.390 . S
C395 C394 1.387 . S
C395 C397 1.387 . S
H396 C403 0.950 . S
C397 C395 1.387 . S
C397 C399 1.390 . S
C397 H401 0.950 . S
H398 C394 0.950 . S
C399 C397 1.390 . S
C399 C400 1.387 . S
C399 H402 0.950 . S
C400 C399 1.387 . S
C400 C403 1.387 . S
H401 C397 0.950 . S
H402 C399 0.950 . S
C403 C394 1.390 . S
C403 H396 0.950 . S
C403 C400 1.387 . S
C404 C405 1.387 . S
C404 H408 0.950 . S
C404 C413 1.390 . S
C405 C404 1.387 . S
C405 C407 1.387 . S
H406 C413 0.950 . S
C407 C405 1.387 . S
C407 C409 1.390 . S
C407 H411 0.950 . S
H408 C404 0.950 . S
C409 C407 1.390 . S
C409 C410 1.387 . S
C409 H412 0.950 . S
C410 C409 1.387 . S
C410 C413 1.387 . S
H411 C407 0.950 . S
H412 C409 0.950 . S
C413 C404 1.390 . S
C413 H406 0.950 . S
C413 C410 1.387 . S
C414 C415 1.387 . S
C414 H418 0.950 . S
C414 C423 1.390 . S
C415 C414 1.387 . S
C415 C417 1.387 1_554 S
H416 C423 0.950 . S
C417 C415 1.387 1_556 S
C417 C419 1.390 1_556 S
C417 H421 0.950 . S
H418 C414 0.950 . S
C419 C417 1.390 1_554 S
C419 C420 1.387 . S
C419 H422 0.950 1_554 S
C420 C419 1.387 . S
C420 C423 1.387 . S
H421 C417 0.950 . S
H422 C419 0.950 1_556 S
C423 C414 1.390 . S
C423 H416 0.950 . S
C423 C420 1.387 . S
C424 C425 1.387 . S
C424 H428 0.950 . S
C424 C433 1.390 . S
C425 C424 1.387 . S
C425 C427 1.387 . S
H426 C433 0.950 . S
C427 C425 1.387 . S
C427 C429 1.390 . S
C427 H431 0.950 . S
H428 C424 0.950 . S
C429 C427 1.390 . S
C429 C430 1.387 . S
C429 H432 0.950 . S
C430 C429 1.387 . S
C430 C433 1.387 . S
H431 C427 0.950 . S
H432 C429 0.950 . S
C433 C424 1.390 . S
C433 H426 0.950 . S
C433 C430 1.387 . S
C434 C435 1.387 . S
C434 H438 0.950 . S
C434 C443 1.390 . S
C435 C434 1.387 . S
C435 C437 1.387 . S
H436 C443 0.950 . S
C437 C435 1.387 . S
C437 C439 1.390 . S
C437 H441 0.950 . S
H438 C434 0.950 . S
C439 C437 1.390 . S
C439 C440 1.387 . S
C439 H442 0.950 . S
C440 C439 1.387 . S
C440 C443 1.387 . S
H441 C437 0.950 . S
H442 C439 0.950 . S
C443 C434 1.390 . S
C443 H436 0.950 . S
C443 C440 1.387 . S
C444 C445 1.387 . S
C444 H448 0.950 . S
C444 C453 1.390 . S
C445 C444 1.387 . S
C445 C447 1.387 . S
H446 C453 0.950 . S
C447 C445 1.387 . S
C447 C449 1.390 . S
C447 H451 0.950 . S
H448 C444 0.950 . S
C449 C447 1.390 . S
C449 C450 1.387 . S
C449 H452 0.950 . S
C450 C449 1.387 . S
C450 C453 1.387 . S
H451 C447 0.950 . S
H452 C449 0.950 . S
C453 C444 1.390 . S
C453 H446 0.950 . S
C453 C450 1.387 . S
C454 C455 1.387 . S
C454 H458 0.950 . S
C454 C463 1.390 . S
C455 C454 1.387 . S
C455 C457 1.387 . S
H456 C463 0.950 . S
C457 C455 1.387 . S
C457 C459 1.390 . S
C457 H461 0.950 . S
H458 C454 0.950 . S
C459 C457 1.390 . S
C459 C460 1.387 . S
C459 H462 0.950 . S
C460 C459 1.387 . S
C460 C463 1.387 . S
H461 C457 0.950 . S
H462 C459 0.950 . S
C463 C454 1.390 . S
C463 H456 0.950 . S
C463 C460 1.387 . S
C464 C465 1.387 . S
C464 H468 0.950 . S
C464 C473 1.390 . S
C465 C464 1.387 . S
C465 C467 1.387 . S
H466 C473 0.950 . S
C467 C465 1.387 . S
C467 C469 1.390 . S
C467 H471 0.950 . S
H468 C464 0.950 . S
C469 C467 1.390 . S
C469 C470 1.387 . S
C469 H472 0.950 . S
C470 C469 1.387 . S
C470 C473 1.387 . S
H471 C467 0.950 . S
H472 C469 0.950 . S
C473 C464 1.390 . S
C473 H466 0.950 . S
C473 C470 1.387 . S
C474 C475 1.387 . S
C474 H478 0.950 . S
C474 C483 1.390 . S
C475 C474 1.387 . S
C475 C477 1.387 . S
H476 C483 0.950 1_554 S
C477 C475 1.387 . S
C477 C479 1.390 . S
C477 H481 0.950 . S
H478 C474 0.950 . S
C479 C477 1.390 . S
C479 C480 1.387 . S
C479 H482 0.950 . S
C480 C479 1.387 . S
C480 C483 1.387 . S
H481 C477 0.950 . S
H482 C479 0.950 . S
C483 C474 1.390 . S
C483 H476 0.950 1_556 S
C483 C480 1.387 . S
C484 C485 1.387 . S
C484 H488 0.950 . S
C484 C493 1.390 . S
C485 C484 1.387 . S
C485 C487 1.387 . S
H486 C493 0.950 . S
C487 C485 1.387 . S
C487 C489 1.390 . S
C487 H491 0.950 . S
H488 C484 0.950 . S
C489 C487 1.390 . S
C489 C490 1.387 . S
C489 H492 0.950 . S
C490 C489 1.387 . S
C490 C493 1.387 . S
H491 C487 0.950 . S
H492 C489 0.950 . S
C493 C484 1.390 . S
C493 H486 0.950 . S
C493 C490 1.387 . S
C494 C495 1.387 . S
C494 H498 0.950 . S
C494 C503 1.390 . S
C495 C494 1.387 . S
C495 C497 1.387 . S
H496 C503 0.950 . S
C497 C495 1.387 . S
C497 C499 1.390 . S
C497 H501 0.950 . S
H498 C494 0.950 . S
C499 C497 1.390 . S
C499 C500 1.387 . S
C499 H502 0.950 . S
C500 C499 1.387 . S
C500 C503 1.387 . S
H501 C497 0.950 . S
H502 C499 0.950 . S
C503 C494 1.390 . S
C503 H496 0.950 . S
C503 C500 1.387 . S
C504 C505 1.387 . S
C504 H508 0.950 . S
C504 C513 1.390 . S
C505 C504 1.387 . S
C505 C507 1.387 . S
H506 C513 0.950 . S
C507 C505 1.387 . S
C507 C509 1.390 . S
C507 H511 0.950 . S
H508 C504 0.950 . S
C509 C507 1.390 . S
C509 C510 1.387 . S
C509 H512 0.950 . S
C510 C509 1.387 . S
C510 C513 1.387 . S
H511 C507 0.950 . S
H512 C509 0.950 . S
C513 C504 1.390 . S
C513 H506 0.950 . S
C513 C510 1.387 . S
C514 C515 1.387 . S
C514 H518 0.950 . S
C514 C523 1.390 . S
C515 C514 1.387 . S
C515 C517 1.387 . S
H516 C523 0.950 . S
C517 C515 1.387 . S
C517 C519 1.390 . S
C517 H521 0.950 . S
H518 C514 0.950 . S
C519 C517 1.390 . S
C519 C520 1.387 . S
C519 H522 0.950 . S
C520 C519 1.387 . S
C520 C523 1.387 . S
H521 C517 0.950 . S
H522 C519 0.950 . S
C523 C514 1.390 . S
C523 H516 0.950 . S
C523 C520 1.387 . S
C524 C525 1.387 . S
C524 H528 0.950 . S
C524 C533 1.390 . S
C525 C524 1.387 . S
C525 C527 1.387 . S
H526 C533 0.950 . S
C527 C525 1.387 . S
C527 C529 1.390 . S
C527 H531 0.950 . S
H528 C524 0.950 . S
C529 C527 1.390 . S
C529 C530 1.387 . S
C529 H532 0.950 . S
C530 C529 1.387 . S
C530 C533 1.387 . S
H531 C527 0.950 . S
H532 C529 0.950 . S
C533 C524 1.390 . S
C533 H526 0.950 . S
C533 C530 1.387 . S
C534 C535 1.387 . S
C534 H538 0.950 . S
C534 C543 1.390 . S
C535 C534 1.387 . S
C535 C537 1.387 . S
H536 C543 0.950 . S
C537 C535 1.387 . S
C537 C539 1.390 . S
C537 H541 0.950 . S
H538 C534 0.950 . S
C539 C537 1.390 . S
C539 C540 1.387 . S
C539 H542 0.950 . S
C540 C539 1.387 . S
C540 C543 1.387 . S
H541 C537 0.950 . S
H542 C539 0.950 . S
C543 C534 1.390 . S
C543 H536 0.950 . S
C543 C540 1.387 . S
C544 C545 1.387 . S
C544 H548 0.950 . S
C544 C553 1.390 1_554 S
C545 C544 1.387 . S
C545 C547 1.387 . S
H546 C553 0.950 . S
C547 C545 1.387 . S
C547 C549 1.390 . S
C547 H551 0.950 . S
H548 C544 0.950 . S
C549 C547 1.390 . S
C549 C550 1.387 1_554 S
C549 H552 0.950 . S
C550 C549 1.387 1_556 S
C550 C553 1.387 . S
H551 C547 0.950 . S
H552 C549 0.950 . S
C553 C544 1.390 1_556 S
C553 H546 0.950 . S
C553 C550 1.387 . S
C554 C555 1.387 . S
C554 H558 0.950 . S
C554 C563 1.390 . S
C555 C554 1.387 . S
C555 C557 1.387 . S
H556 C563 0.950 . S
C557 C555 1.387 . S
C557 C559 1.390 . S
C557 H561 0.950 . S
H558 C554 0.950 . S
C559 C557 1.390 . S
C559 C560 1.387 . S
C559 H562 0.950 . S
C560 C559 1.387 . S
C560 C563 1.387 . S
H561 C557 0.950 . S
H562 C559 0.950 . S
C563 C554 1.390 . S
C563 H556 0.950 . S
C563 C560 1.387 . S
C330 C291 1.560 . S
C325 C8 1.517 . S
C335 C26 1.541 . S
C340 C111 1.588 . S
C345 C50 1.527 . S
C350 C158 1.542 . S
C355 C68 1.487 . S
C360 C194 1.496 . S
C370 C219 1.542 . S
C365 C80 1.496 . S
C375 C104 1.500 . S
C380 C255 1.555 . S
C385 C32 1.531 . S
C390 C147 1.587 . S
C395 C44 1.501 . S
C400 C183 1.543 . S
C405 C62 1.475 . S
C410 C230 1.481 . S
C420 C266 1.514 . S
C415 C86 1.501 . S
C430 C302 1.526 . S
C425 C98 1.521 . S
C440 C122 1.539 . S
C435 C14 1.524 . S
C445 C7 1.459 . S
C450 C146 1.502 . S
C455 C25 1.466 . S
C460 C182 1.510 . S
C470 C220 1.507 . S
C465 C52 1.463 . S
C475 C70 1.464 . S
C480 C256 1.509 1_556 S
C490 C292 1.482 . S
C485 C79 1.430 . S
C500 C112 1.472 . S
C495 C106 1.426 . S
C510 C290 1.492 . S
C505 C34 1.455 . S
C515 C43 1.453 . S
C520 C110 1.495 . S
C530 C148 1.496 . S
C525 C61 1.452 . S
C535 C88 1.462 . S
C540 C184 1.504 . S
C545 C97 1.494 . S
C550 C218 1.532 . S
C555 C16 1.488 . S
C560 C254 1.521 . S
