# Generated by pormake.
# Topology ftw, (4,12)-cn, num edge types: 1
# Building blocks:
#     Node 0, Type 0, BuildingBlock: NAHDIM_clean_linker_0, # of connection points: 4
#     Node 1, Type 0, BuildingBlock: NAHDIM_clean_linker_0, # of connection points: 4
#     Node 2, Type 0, BuildingBlock: NAHDIM_clean_linker_0, # of connection points: 4
#     Node 3, Type 1, BuildingBlock: QEWDON_clean_sbu_0, # of connection points: 12
#     Edge 4, Type (0, 1), BuildingBlock: XUDNAN_clean_linker_2, # of connection points: 2
#     Edge 5, Type (0, 1), BuildingBlock: XUDNAN_clean_linker_2, # of connection points: 2
#     Edge 6, Type (0, 1), BuildingBlock: XUDNAN_clean_linker_2, # of connection points: 2
#     Edge 7, Type (0, 1), BuildingBlock: XUDNAN_clean_linker_2, # of connection points: 2
#     Edge 8, Type (0, 1), BuildingBlock: XUDNAN_clean_linker_2, # of connection points: 2
#     Edge 9, Type (0, 1), BuildingBlock: XUDNAN_clean_linker_2, # of connection points: 2
#     Edge 10, Type (0, 1), BuildingBlock: XUDNAN_clean_linker_2, # of connection points: 2
#     Edge 11, Type (0, 1), BuildingBlock: XUDNAN_clean_linker_2, # of connection points: 2
#     Edge 12, Type (0, 1), BuildingBlock: XUDNAN_clean_linker_2, # of connection points: 2
#     Edge 13, Type (0, 1), BuildingBlock: XUDNAN_clean_linker_2, # of connection points: 2
#     Edge 14, Type (0, 1), BuildingBlock: XUDNAN_clean_linker_2, # of connection points: 2
#     Edge 15, Type (0, 1), BuildingBlock: XUDNAN_clean_linker_2, # of connection points: 2
# Relax obj value: 0.036
# Max RMSD: 0.107
# Mean RMSD: 0.083
data_MOF--net-ftw--node1-QEWDON_clean_sbu_0--node2-NAHDIM_clean_linker_0--edge1-XUDNAN_clean_linker_2
_symmetry_space_group_name_H-M    P1
_symmetry_Int_Tables_number       1
_symmetry_cell_setting            triclinic
loop_
_symmetry_equiv_pos_as_xyz
'x, y, z'
_cell_length_a     32.296256
_cell_length_b     31.781584
_cell_length_c     33.191225
_cell_angle_alpha  90.331483
_cell_angle_beta   89.548576
_cell_angle_gamma 89.541687
loop_
_atom_site_label
_atom_site_type_symbol
_atom_site_fract_x
_atom_site_fract_y
_atom_site_fract_z
_atom_type_partial_charge
C0 C 0.97048 0.65451 0.26707 0.0
C1 C 0.95722 0.6899 0.2965 0.0
C2 C 0.98082 0.65485 0.35863 0.0
C3 C 0.94744 0.62729 0.36388 0.0
C4 C 0.95016 0.59355 0.39097 0.0
C5 C 0.98723 0.58684 0.41267 0.0
C6 C 0.02054 0.61516 0.40793 0.0
C7 C 0.01645 0.64927 0.38159 0.0
C8 C 0.91367 0.5646 0.39579 0.0
C9 C 0.06103 0.60874 0.4296 0.0
C10 C 0.02724 0.35716 0.27513 0.0
C11 C 0.04252 0.32335 0.30463 0.0
C12 C 0.02049 0.3614 0.3659 0.0
C13 C 0.05355 0.38965 0.36875 0.0
C14 C 0.05033 0.42566 0.39332 0.0
C15 C 0.0131 0.43379 0.4149 0.0
C16 C 0.98002 0.40493 0.41249 0.0
C17 C 0.98458 0.36864 0.3886 0.0
C18 C 0.08654 0.45525 0.39584 0.0
C19 C 0.93946 0.41283 0.4343 0.0
C20 C 0.04593 0.36873 0.67938 0.0
C21 C 0.07686 0.39636 0.66581 0.0
C22 C 0.06665 0.43204 0.64305 0.0
C23 C 0.02478 0.44024 0.63341 0.0
C24 C 0.99364 0.41244 0.64676 0.0
C25 C 0.0047 0.37698 0.66945 0.0
C26 C 0.10063 0.46097 0.62906 0.0
C27 C 0.9487 0.4202 0.63695 0.0
C28 C 0.89476 0.73702 0.70396 0.0
C29 C 0.92684 0.70846 0.7242 0.0
C30 C 0.96654 0.66454 0.67632 0.0
C31 C 0.00704 0.65572 0.66366 0.0
C32 C 0.01662 0.61896 0.64177 0.0
C33 C 0.98464 0.59066 0.6319 0.0
C34 C 0.9434 0.59973 0.64396 0.0
C35 C 0.9347 0.63671 0.66587 0.0
C36 C 0.06088 0.61034 0.62915 0.0
C37 C 0.90853 0.57044 0.63339 0.0
C38 C 0.99253 0.54845 0.43764 0.0
C39 C 0.99985 0.51034 0.41748 0.0
C40 C 0.00796 0.4733 0.43857 0.0
C41 C 0.00993 0.47421 0.48109 0.0
C42 C 0.02022 0.43801 0.50316 0.0
C43 C 0.02151 0.43907 0.54504 0.0
C44 C 0.01256 0.47638 0.56648 0.0
C45 C 0.01364 0.47774 0.60907 0.0
C46 C 0.00439 0.51534 0.6294 0.0
C47 C 0.99419 0.55192 0.60833 0.0
C48 C 0.99322 0.55127 0.56574 0.0
C49 C 0.98326 0.58757 0.54362 0.0
C50 C 0.98275 0.58669 0.50169 0.0
C51 C 0.99218 0.54952 0.48027 0.0
C52 C 0.00147 0.51235 0.50202 0.0
C53 C 0.00239 0.51333 0.54478 0.0
C54 C 0.1185 0.29716 0.68999 0.0
C55 C 0.09142 0.32278 0.71952 0.0
O56 O 0.98046 0.68669 0.33143 0.0
O57 O 0.95955 0.70038 0.69796 0.0
O58 O 0.05425 0.33382 0.70165 0.0
O59 O 0.02168 0.3272 0.34121 0.0
H60 H 0.92374 0.68708 0.30383 0.0
H61 H 0.96849 0.62331 0.28174 0.0
H62 H 0.00296 0.65915 0.25679 0.0
H63 H 0.94993 0.65333 0.2405 0.0
H64 H 0.91937 0.63177 0.34682 0.0
H65 H 0.04188 0.67093 0.37752 0.0
H66 H 0.9206 0.53424 0.38036 0.0
H67 H 0.88501 0.57811 0.38263 0.0
H68 H 0.90795 0.55786 0.42815 0.0
H69 H 0.08556 0.63013 0.41842 0.0
H70 H 0.07204 0.57573 0.42596 0.0
H71 H 0.05643 0.61481 0.46229 0.0
H72 H 0.07636 0.32683 0.30944 0.0
H73 H 0.04312 0.35383 0.24546 0.0
H74 H 0.03397 0.38916 0.28675 0.0
H75 H 0.99328 0.3545 0.27068 0.0
H76 H 0.08182 0.38375 0.35186 0.0
H77 H 0.9594 0.34642 0.38633 0.0
H78 H 0.07885 0.48486 0.37987 0.0
H79 H 0.11508 0.44155 0.38202 0.0
H80 H 0.09287 0.46345 0.42776 0.0
H81 H 0.91519 0.3902 0.42513 0.0
H82 H 0.9281 0.44528 0.42841 0.0
H83 H 0.94414 0.4099 0.46724 0.0
H84 H 0.10886 0.3515 0.72802 0.0
H85 H 0.10905 0.3903 0.67249 0.0
H86 H 0.98103 0.3555 0.67979 0.0
H87 H 0.1009 0.46242 0.59565 0.0
H88 H 0.13169 0.45054 0.63935 0.0
H89 H 0.09458 0.49333 0.64058 0.0
H90 H 0.92815 0.39561 0.64957 0.0
H91 H 0.94475 0.42106 0.60376 0.0
H92 H 0.93875 0.45132 0.64914 0.0
H93 H 0.91065 0.67889 0.7324 0.0
H94 H 0.87084 0.7475 0.72616 0.0
H95 H 0.87912 0.71942 0.67951 0.0
H96 H 0.90963 0.76494 0.69026 0.0
H97 H 0.03131 0.67759 0.67147 0.0
H98 H 0.90296 0.64386 0.6742 0.0
H99 H 0.06291 0.60775 0.59582 0.0
H100 H 0.07135 0.5798 0.64175 0.0
H101 H 0.08223 0.63538 0.6394 0.0
H102 H 0.87818 0.58165 0.64544 0.0
H103 H 0.91504 0.53863 0.64558 0.0
H104 H 0.90635 0.56735 0.60013 0.0
H105 H 0.99936 0.50952 0.38479 0.0
H106 H 0.02749 0.40844 0.48826 0.0
H107 H 0.02955 0.41022 0.56041 0.0
H108 H 0.00523 0.51618 0.66208 0.0
H109 H 0.97587 0.61713 0.55847 0.0
H110 H 0.97483 0.61553 0.48622 0.0
H111 H 0.10148 0.26969 0.67788 0.0
H112 H 0.14702 0.28591 0.70518 0.0
H113 H 0.1279 0.31701 0.66414 0.0
C114 C 0.66606 0.09415 0.76005 0.0
C115 C 0.67959 0.05594 0.73461 0.0
C116 C 0.66066 0.06096 0.66483 0.0
C117 C 0.65056 0.01972 0.65389 0.0
C118 C 0.61964 0.01191 0.62542 0.0
C119 C 0.59812 0.04618 0.60798 0.0
C120 C 0.60968 0.08791 0.61768 0.0
C121 C 0.64136 0.09476 0.64569 0.0
C122 C 0.60872 0.96702 0.6153 0.0
C123 C 0.58712 0.12519 0.6001 0.0
C124 C 0.38118 0.98099 0.76176 0.0
C125 C 0.35937 0.01306 0.73463 0.0
C126 C 0.38446 0.00299 0.66662 0.0
C127 C 0.39514 0.04379 0.65489 0.0
C128 C 0.42726 0.05042 0.62699 0.0
C129 C 0.44922 0.01543 0.61075 0.0
C130 C 0.43726 0.97413 0.6213 0.0
C131 C 0.40451 0.96844 0.64879 0.0
C132 C 0.43854 0.09484 0.61577 0.0
C133 C 0.46008 0.93614 0.60471 0.0
C134 C 0.371 0.98963 0.3547 0.0
C135 C 0.37983 0.03156 0.36491 0.0
C136 C 0.41727 0.04198 0.38358 0.0
C137 C 0.44647 0.00987 0.392 0.0
C138 C 0.43843 0.96793 0.38011 0.0
C139 C 0.40087 0.95845 0.36124 0.0
C140 C 0.42546 0.08722 0.39483 0.0
C141 C 0.46916 0.93303 0.38815 0.0
C142 C 0.76021 0.10552 0.34026 0.0
C143 C 0.73595 0.07018 0.31972 0.0
C144 C 0.66279 0.07163 0.33971 0.0
C145 C 0.63295 0.10187 0.35019 0.0
C146 C 0.59886 0.09164 0.37462 0.0
C147 C 0.59408 0.04978 0.38809 0.0
C148 C 0.62359 0.01869 0.37664 0.0
C149 C 0.6577 0.02994 0.35257 0.0
C150 C 0.56789 0.12556 0.38601 0.0
C151 C 0.61879 0.97354 0.38955 0.0
C152 C 0.56034 0.03826 0.58393 0.0
C153 C 0.52375 0.0305 0.60528 0.0
C154 C 0.4867 0.0223 0.58545 0.0
C155 C 0.4859 0.02152 0.54289 0.0
C156 C 0.44922 0.01307 0.52196 0.0
C157 C 0.44879 0.0121 0.48008 0.0
C158 C 0.48486 0.02026 0.45748 0.0
C159 C 0.48453 0.0198 0.41487 0.0
C160 C 0.52065 0.02899 0.39331 0.0
C161 C 0.55753 0.03844 0.41314 0.0
C162 C 0.55872 0.03813 0.45578 0.0
C163 C 0.59542 0.04661 0.47679 0.0
C164 C 0.59621 0.04619 0.51877 0.0
C165 C 0.56014 0.03809 0.54131 0.0
C166 C 0.52274 0.02958 0.52075 0.0
C167 C 0.52213 0.02925 0.47797 0.0
C168 C 0.27732 0.96789 0.38236 0.0
C169 C 0.29565 0.99382 0.34793 0.0
O170 O 0.68727 0.06851 0.69535 0.0
O171 O 0.69514 0.0835 0.31605 0.0
O172 O 0.33459 0.97819 0.33772 0.0
O173 O 0.35594 0.99648 0.69609 0.0
H174 H 0.65289 0.03386 0.73577 0.0
H175 H 0.63529 0.10548 0.74978 0.0
H176 H 0.6882 0.12047 0.75671 0.0
H177 H 0.66335 0.08547 0.79234 0.0
H178 H 0.66625 0.99373 0.66839 0.0
H179 H 0.64966 0.1265 0.65435 0.0
H180 H 0.57833 0.9594 0.62919 0.0
H181 H 0.63219 0.9443 0.62655 0.0
H182 H 0.60579 0.96298 0.58219 0.0
H183 H 0.59986 0.15563 0.61073 0.0
H184 H 0.5538 0.1239 0.60849 0.0
H185 H 0.58922 0.12403 0.56673 0.0
H186 H 0.37962 0.04131 0.7346 0.0
H187 H 0.38097 0.99206 0.79358 0.0
H188 H 0.41393 0.9771 0.75184 0.0
H189 H 0.36623 0.94971 0.75975 0.0
H190 H 0.3787 0.07041 0.66805 0.0
H191 H 0.39567 0.93705 0.65789 0.0
H192 H 0.4409 0.09775 0.5825 0.0
H193 H 0.4693 0.10249 0.62845 0.0
H194 H 0.41556 0.11825 0.62731 0.0
H195 H 0.44725 0.90617 0.61625 0.0
H196 H 0.49331 0.93785 0.61289 0.0
H197 H 0.45837 0.93588 0.57133 0.0
H198 H 0.29738 0.02683 0.35886 0.0
H199 H 0.35799 0.05639 0.35795 0.0
H200 H 0.39414 0.92633 0.35248 0.0
H201 H 0.42759 0.09019 0.42809 0.0
H202 H 0.40079 0.10889 0.38412 0.0
H203 H 0.4556 0.09721 0.38187 0.0
H204 H 0.45846 0.90209 0.37668 0.0
H205 H 0.47448 0.93057 0.42107 0.0
H206 H 0.49932 0.94043 0.37367 0.0
H207 H 0.73854 0.04238 0.33973 0.0
H208 H 0.79221 0.09489 0.3472 0.0
H209 H 0.74489 0.11424 0.36925 0.0
H210 H 0.76116 0.13393 0.32092 0.0
H211 H 0.63682 0.1338 0.3396 0.0
H212 H 0.67969 0.00591 0.34313 0.0
H213 H 0.56398 0.12688 0.41926 0.0
H214 H 0.53731 0.11792 0.37293 0.0
H215 H 0.57737 0.15708 0.37516 0.0
H216 H 0.64376 0.95283 0.37722 0.0
H217 H 0.58842 0.96143 0.37937 0.0
H218 H 0.61915 0.97174 0.42293 0.0
H219 H 0.5241 0.03094 0.63799 0.0
H220 H 0.42047 0.00688 0.53777 0.0
H221 H 0.41968 0.0051 0.46565 0.0
H222 H 0.51998 0.02909 0.36062 0.0
H223 H 0.62402 0.05346 0.461 0.0
H224 H 0.62536 0.05263 0.53338 0.0
H225 H 0.27589 0.93403 0.374 0.0
H226 H 0.24564 0.9794 0.39008 0.0
H227 H 0.29694 0.97106 0.40954 0.0
C228 C 0.78966 0.56221 0.89593 0.0
C229 C 0.77035 0.58731 0.93103 0.0
C230 C 0.7113 0.55458 0.96516 0.0
C231 C 0.69936 0.54184 0.00364 0.0
C232 C 0.65745 0.53815 0.01421 0.0
C233 C 0.62675 0.5462 0.98496 0.0
C234 C 0.63866 0.55766 0.94541 0.0
C235 C 0.6809 0.56179 0.93588 0.0
C236 C 0.64607 0.52618 0.05681 0.0
C237 C 0.60677 0.56548 0.91327 0.0
C238 C 0.36974 0.77881 0.01774 0.0
C239 C 0.39846 0.74587 0.00184 0.0
C240 C 0.45039 0.6958 0.02547 0.0
C241 C 0.44917 0.67041 0.99063 0.0
C242 C 0.47186 0.63272 0.98813 0.0
C243 C 0.49632 0.61997 0.02111 0.0
C244 C 0.49817 0.64561 0.05601 0.0
C245 C 0.47516 0.68332 0.05769 0.0
C246 C 0.46951 0.60634 0.95023 0.0
C247 C 0.52402 0.63283 0.09161 0.0
C248 C 0.32939 0.42326 0.11586 0.0
C249 C 0.32895 0.4272 0.07368 0.0
C250 C 0.36592 0.42507 0.05116 0.0
C251 C 0.40401 0.41945 0.07128 0.0
C252 C 0.40431 0.41373 0.11352 0.0
C253 C 0.36686 0.41535 0.13518 0.0
C254 C 0.36446 0.42996 0.00601 0.0
C255 C 0.44432 0.40713 0.1359 0.0
C256 C 0.63982 0.27287 0.89739 0.0
C257 C 0.63419 0.25981 0.94145 0.0
C258 C 0.56749 0.27996 0.96813 0.0
C259 C 0.53364 0.29662 0.9476 0.0
C260 C 0.51054 0.3302 0.9641 0.0
C261 C 0.52126 0.34658 0.00237 0.0
C262 C 0.55334 0.32725 0.02465 0.0
C263 C 0.57644 0.29432 0.00705 0.0
C264 C 0.47615 0.34964 0.93976 0.0
C265 C 0.56464 0.34285 0.06611 0.0
C266 C 0.5823 0.54318 0.99622 0.0
C267 C 0.56053 0.58045 0.0046 0.0
C268 C 0.51964 0.57961 0.01863 0.0
C269 C 0.50059 0.54064 0.02677 0.0
C270 C 0.46096 0.53866 0.04441 0.0
C271 C 0.44257 0.50009 0.05232 0.0
C272 C 0.46245 0.46205 0.04149 0.0
C273 C 0.44378 0.42265 0.0488 0.0
C274 C 0.46363 0.38555 0.03605 0.0
C275 C 0.50228 0.38666 0.0168 0.0
C276 C 0.52227 0.42566 0.01086 0.0
C277 C 0.56183 0.42788 0.99287 0.0
C278 C 0.58171 0.46625 0.98832 0.0
C279 C 0.56227 0.50403 1.00034 0.0
C280 C 0.52169 0.50272 0.01677 0.0
C281 C 0.50211 0.46344 0.02303 0.0
C282 C 0.23524 0.46229 0.16531 0.0
C283 C 0.25716 0.44476 0.12776 0.0
O284 O 0.75238 0.55907 0.95749 0.0
O285 O 0.59275 0.2519 0.94911 0.0
O286 O 0.29464 0.42703 0.13901 0.0
O287 O 0.42776 0.73197 0.02919 0.0
H288 H 0.74685 0.60933 0.91856 0.0
H289 H 0.76692 0.53919 0.88425 0.0
H290 H 0.81763 0.54471 0.90595 0.0
H291 H 0.7979 0.58326 0.87058 0.0
H292 H 0.72313 0.53584 0.02581 0.0
H293 H 0.69 0.57007 0.90551 0.0
H294 H 0.62262 0.54852 0.06931 0.0
H295 H 0.67336 0.52581 0.07699 0.0
H296 H 0.63218 0.49435 0.05683 0.0
H297 H 0.62107 0.56953 0.883 0.0
H298 H 0.58877 0.59438 0.92091 0.0
H299 H 0.58467 0.53892 0.91201 0.0
H300 H 0.41165 0.75202 0.9713 0.0
H301 H 0.37607 0.80736 0.99873 0.0
H302 H 0.38463 0.79223 0.04557 0.0
H303 H 0.31099 0.74845 0.01903 0.0
H304 H 0.43047 0.6797 0.96523 0.0
H305 H 0.47603 0.70303 0.08441 0.0
H306 H 0.45537 0.57551 0.95734 0.0
H307 H 0.50115 0.60006 0.93817 0.0
H308 H 0.45087 0.62174 0.92641 0.0
H309 H 0.52146 0.65574 0.11693 0.0
H310 H 0.55702 0.6301 0.08224 0.0
H311 H 0.51419 0.60142 0.10241 0.0
H312 H 0.26281 0.47194 0.10743 0.0
H313 H 0.29998 0.43216 0.0582 0.0
H314 H 0.3668 0.41171 0.16763 0.0
H315 H 0.3787 0.46034 0.99747 0.0
H316 H 0.33228 0.42936 0.99444 0.0
H317 H 0.38271 0.40445 0.99109 0.0
H318 H 0.43926 0.40317 0.1688 0.0
H319 H 0.46496 0.43444 0.13102 0.0
H320 H 0.4606 0.37876 0.12391 0.0
H321 H 0.64501 0.28695 0.95995 0.0
H322 H 0.67314 0.27777 0.89041 0.0
H323 H 0.62296 0.3029 0.89203 0.0
H324 H 0.62736 0.2487 0.87656 0.0
H325 H 0.52687 0.28483 0.91769 0.0
H326 H 0.60227 0.28049 0.02305 0.0
H327 H 0.48337 0.38308 0.93347 0.0
H328 H 0.44677 0.34907 0.95733 0.0
H329 H 0.47142 0.33295 0.91067 0.0
H330 H 0.58512 0.32025 0.08203 0.0
H331 H 0.5363 0.34846 0.0846 0.0
H332 H 0.58111 0.37324 0.06345 0.0
H333 H 0.57546 0.6105 0.99979 0.0
H334 H 0.44403 0.56692 0.05293 0.0
H335 H 0.41231 0.50056 0.06656 0.0
H336 H 0.4489 0.3555 0.04128 0.0
H337 H 0.57821 0.39995 0.98255 0.0
H338 H 0.61233 0.46599 0.9748 0.0
H339 H 0.20528 0.47722 0.15706 0.0
H340 H 0.25488 0.4865 0.1798 0.0
H341 H 0.22935 0.43687 0.18745 0.0
Zn342 Zn 0.08601 0.12866 0.97571 0.0
Zn343 Zn 0.0765 0.11154 0.06973 0.0
O344 O 0.09122 0.08243 0.01791 0.0
H345 H 0.09126 0.05249 0.01271 0.0
C346 C 0.99677 0.13363 0.93558 0.0
O347 O 0.99418 0.14005 0.97467 0.0
Zn348 Zn 0.95508 0.90604 0.05434 0.0
Zn349 Zn 0.95613 0.89874 0.95607 0.0
O350 O 0.95353 0.93932 0.00317 0.0
H351 H 0.95357 0.96957 0.00062 0.0
Zn352 Zn 0.95252 0.05993 0.96125 0.0
O353 O 0.98083 0.05358 0.01509 0.0
Zn354 Zn 0.93635 0.05225 0.05715 0.0
H355 H 0.00997 0.04801 0.01883 0.0
Zn356 Zn 0.09123 0.94482 0.97552 0.0
O357 O 0.05688 0.96505 0.02313 0.0
H358 H 0.02881 0.97558 0.0221 0.0
Zn359 Zn 0.09287 0.96395 0.07159 0.0
C360 C 0.05451 0.86955 0.94513 0.0
O361 O 0.06676 0.85761 0.98099 0.0
O362 O 0.09753 0.18742 0.99977 0.0
O363 O 0.09243 0.1734 0.06522 0.0
O364 O 0.94751 0.83813 0.9751 0.0
O365 O 0.94364 0.84394 0.04197 0.0
O366 O 0.88934 0.06815 0.9675 0.0
O367 O 0.88173 0.07382 0.03429 0.0
C368 C 0.11466 0.04687 0.11617 0.0
O369 O 0.14885 0.92305 0.99222 0.0
O370 O 0.14815 0.93529 0.05829 0.0
O371 O 0.91968 0.91394 0.90698 0.0
C372 C 0.09972 0.19887 0.0365 0.0
O373 O 0.11324 0.11764 0.91973 0.0
C374 C 0.90563 0.96851 0.09287 0.0
O375 O 0.98143 0.10024 0.92088 0.0
C376 C 0.94177 0.82188 0.00969 0.0
O377 O 0.06087 0.90723 0.93431 0.0
C378 C 0.98975 0.10276 0.10909 0.0
O379 O 0.10954 0.08648 0.11471 0.0
O380 O 0.09885 0.02478 0.08822 0.0
C381 C 0.86711 0.07565 0.99866 0.0
O382 O 0.9103 0.92882 0.09113 0.0
O383 O 0.93024 0.99113 0.07233 0.0
C384 C 0.02919 0.91521 0.11233 0.0
O385 O 0.954 0.08666 0.10515 0.0
O386 O 0.01553 0.09936 0.07997 0.0
C387 C 0.16607 0.92096 0.02658 0.0
O388 O 0.06463 0.93187 0.1161 0.0
O389 O 0.01111 0.91817 0.07852 0.0
C390 C 0.91098 0.95143 0.89674 0.0
O391 O 0.92732 0.98293 0.9167 0.0
C392 C 0.1231 0.08087 0.90766 0.0
O393 O 0.11395 0.04847 0.93037 0.0
H394 H 0.08461 0.28562 0.24207 0.0
H395 H 0.98149 0.26498 0.32413 0.0
H396 H 0.96552 0.19908 0.28878 0.0
H397 H 0.03185 0.25846 0.15778 0.0
H398 H 0.07379 0.23289 0.13109 0.0
H399 H 0.08457 0.27303 0.16781 0.0
H400 H 0.13128 0.22091 0.21004 0.0
H401 H 0.12331 0.1836 0.1696 0.0
H402 H 0.11156 0.16951 0.22093 0.0
H403 H 0.95551 0.13997 0.24076 0.0
H404 H 0.94831 0.09629 0.17981 0.0
H405 H 0.05341 0.15777 0.12552 0.0
C406 C 0.05952 0.26645 0.25333 0.0
C407 C 0.03512 0.28012 0.28652 0.0
C408 C 0.00145 0.25498 0.29948 0.0
C409 C 0.99212 0.21729 0.27961 0.0
C410 C 0.01634 0.20523 0.24657 0.0
C411 C 0.04926 0.22911 0.23335 0.0
C412 C 0.06641 0.21247 0.19366 0.0
C413 C 0.06404 0.24622 0.16066 0.0
C414 C 0.11079 0.19563 0.1988 0.0
C415 C 0.03672 0.17686 0.18567 0.0
C416 C 0.00896 0.17242 0.21723 0.0
C417 C 0.97727 0.1431 0.21602 0.0
C418 C 0.97314 0.11867 0.18113 0.0
C419 C 0.99975 0.12417 0.14752 0.0
C420 C 0.03274 0.15272 0.15049 0.0
H421 H 0.81047 0.09271 0.27928 0.0
H422 H 0.70102 0.01503 0.26735 0.0
H423 H 0.72881 0.98669 0.20313 0.0
H424 H 0.82392 0.11552 0.17341 0.0
H425 H 0.87931 0.1115 0.17334 0.0
H426 H 0.85228 0.1294 0.21805 0.0
H427 H 0.88433 0.0727 0.26162 0.0
H428 H 0.91388 0.05074 0.22036 0.0
H429 H 0.87913 0.01796 0.24819 0.0
H430 H 0.77184 0.96112 0.14462 0.0
H431 H 0.82706 0.93977 0.09659 0.0
H432 H 0.9078 0.03464 0.14628 0.0
C433 C 0.7915 0.0705 0.26318 0.0
C434 C 0.75278 0.05676 0.27851 0.0
C435 C 0.73029 0.02665 0.25605 0.0
C436 C 0.74581 0.0104 0.21949 0.0
C437 C 0.78402 0.02453 0.20555 0.0
C438 C 0.80646 0.05399 0.22665 0.0
C439 C 0.84816 0.06151 0.2069 0.0
C440 C 0.85116 0.10716 0.19212 0.0
C441 C 0.88345 0.05014 0.23595 0.0
C442 C 0.84625 0.03086 0.17184 0.0
C443 C 0.80876 0.01009 0.17146 0.0
C444 C 0.80093 0.97778 0.14412 0.0
C445 C 0.83245 0.96586 0.11699 0.0
C446 C 0.8712 0.98637 0.11714 0.0
C447 C 0.87789 0.01975 0.14446 0.0
H448 H 0.9306 0.71884 0.22188 0.0
H449 H 0.99699 0.76031 0.32837 0.0
H450 H 0.01179 0.8273 0.29539 0.0
H451 H 0.00163 0.75573 0.15314 0.0
H452 H 0.96518 0.77264 0.11566 0.0
H453 H 0.95183 0.7308 0.14947 0.0
H454 H 0.88627 0.77112 0.17194 0.0
H455 H 0.89855 0.81457 0.13933 0.0
H456 H 0.89035 0.82361 0.19236 0.0
H457 H 0.02775 0.8855 0.24897 0.0
H458 H 0.04642 0.92947 0.19099 0.0
H459 H 0.9728 0.85046 0.1129 0.0
C460 C 0.94819 0.74187 0.23847 0.0
C461 C 0.96363 0.73309 0.27747 0.0
C462 C 0.98541 0.76517 0.29824 0.0
C463 C 0.99376 0.80377 0.27986 0.0
C464 C 0.97981 0.81038 0.24082 0.0
C465 C 0.95744 0.7804 0.22031 0.0
C466 C 0.94991 0.79371 0.17709 0.0
C467 C 0.96822 0.7613 0.14709 0.0
C468 C 0.90351 0.80116 0.16975 0.0
C469 C 0.97343 0.8348 0.17603 0.0
C470 C 0.98941 0.84428 0.2135 0.0
C471 C 0.01487 0.87878 0.21965 0.0
C472 C 0.0254 0.9035 0.18644 0.0
C473 C 0.01082 0.8935 0.1474 0.0
C474 C 0.98351 0.85943 0.14243 0.0
H475 H 0.24987 0.05834 0.31517 0.0
H476 H 0.27922 0.92596 0.29845 0.0
H477 H 0.23323 0.92363 0.2391 0.0
H478 H 0.14233 0.05316 0.28578 0.0
H479 H 0.14331 0.10308 0.26033 0.0
H480 H 0.17709 0.09375 0.30233 0.0
H481 H 0.24074 0.11248 0.25802 0.0
H482 H 0.20707 0.12214 0.21607 0.0
H483 H 0.24923 0.08492 0.211 0.0
H484 H 0.18407 0.93641 0.18106 0.0
H485 H 0.13934 0.9642 0.12736 0.0
H486 H 0.14462 0.08847 0.1816 0.0
C487 C 0.24653 0.02884 0.29908 0.0
C488 C 0.26796 0.99228 0.3114 0.0
C489 C 0.26291 0.95427 0.28949 0.0
C490 C 0.23686 0.95265 0.25587 0.0
C491 C 0.21616 0.98933 0.24455 0.0
C492 C 0.2209 0.02675 0.26542 0.0
C493 C 0.19639 0.06206 0.24637 0.0
C494 C 0.16279 0.07899 0.27544 0.0
C495 C 0.22508 0.09747 0.23201 0.0
C496 C 0.17752 0.03881 0.21124 0.0
C497 C 0.18884 0.99683 0.21086 0.0
C498 C 0.17515 0.96931 0.18103 0.0
C499 C 0.14977 0.98538 0.15047 0.0
C500 C 0.13881 0.02856 0.14967 0.0
C501 C 0.15257 0.05529 0.18096 0.0
H502 H 0.94769 0.79202 0.74225 0.0
H503 H 0.94876 0.66589 0.79183 0.0
H504 H 0.98187 0.69298 0.8533 0.0
H505 H 0.0445 0.82416 0.7817 0.0
H506 H 0.02789 0.87739 0.7923 0.0
H507 H 0.00432 0.84818 0.75201 0.0
H508 H 0.93187 0.86138 0.78406 0.0
H509 H 0.95512 0.8906 0.82456 0.0
H510 H 0.92268 0.84613 0.83556 0.0
H511 H 0.01409 0.73373 0.90977 0.0
H512 H 0.04444 0.78515 0.95665 0.0
H513 H 0.02086 0.88499 0.87083 0.0
C514 C 0.95376 0.77014 0.76634 0.0
C515 C 0.94411 0.72689 0.76272 0.0
C516 C 0.95461 0.6993 0.79448 0.0
C517 C 0.97339 0.71438 0.82953 0.0
C518 C 0.98135 0.75725 0.83257 0.0
C519 C 0.97188 0.78476 0.80186 0.0
C520 C 0.9843 0.82931 0.81248 0.0
C521 C 0.01721 0.84571 0.78286 0.0
C522 C 0.94622 0.85861 0.81426 0.0
C523 C 0.0022 0.8225 0.85396 0.0
C524 C 0.00032 0.78069 0.86492 0.0
C525 C 0.01547 0.76659 0.90164 0.0
C526 C 0.0327 0.79607 0.92806 0.0
C527 C 0.03508 0.83909 0.91742 0.0
C528 C 0.01949 0.85234 0.87986 0.0
H529 H 0.30064 0.96858 0.78063 0.0
H530 H 0.32191 0.08906 0.72338 0.0
H531 H 0.25705 0.11663 0.75375 0.0
H532 H 0.1852 0.97114 0.77652 0.0
H533 H 0.18052 0.94728 0.82546 0.0
H534 H 0.22429 0.93464 0.79345 0.0
H535 H 0.27414 0.9568 0.85043 0.0
H536 H 0.23066 0.96949 0.88247 0.0
H537 H 0.26931 0.00871 0.87226 0.0
H538 H 0.19599 0.13418 0.79762 0.0
H539 H 0.14397 0.14061 0.85218 0.0
H540 H 0.16341 0.00918 0.88211 0.0
C541 C 0.29166 0.0006 0.77395 0.0
C542 C 0.31709 0.02706 0.75029 0.0
C543 C 0.30327 0.06849 0.7419 0.0
C544 C 0.26639 0.08433 0.75885 0.0
C545 C 0.24322 0.05814 0.78369 0.0
C546 C 0.25517 0.01705 0.79102 0.0
C547 C 0.22709 0.99681 0.82201 0.0
C548 C 0.20283 0.9603 0.80322 0.0
C549 C 0.25178 0.98212 0.85896 0.0
C550 C 0.19871 0.03355 0.83233 0.0
C551 C 0.20796 0.06836 0.80926 0.0
C552 C 0.18802 0.10695 0.81541 0.0
C553 C 0.15857 0.11032 0.84655 0.0
C554 C 0.14955 0.07538 0.87136 0.0
C555 C 0.1692 0.0363 0.86335 0.0
H556 H 0.05621 0.24363 0.72742 0.0
H557 H 0.10457 0.34748 0.79781 0.0
H558 H 0.088 0.30937 0.86043 0.0
H559 H 0.97259 0.21815 0.79173 0.0
H560 H 0.97765 0.16201 0.78503 0.0
H561 H 0.99435 0.19688 0.74568 0.0
H562 H 0.06713 0.16237 0.74653 0.0
H563 H 0.05117 0.12757 0.78632 0.0
H564 H 0.0957 0.16064 0.79289 0.0
H565 H 0.06236 0.26221 0.91517 0.0
H566 H 0.0314 0.20803 0.95854 0.0
H567 H 0.00416 0.13236 0.85286 0.0
C568 C 0.06401 0.25805 0.75596 0.0
C569 C 0.08242 0.2983 0.75765 0.0
C570 C 0.09099 0.3165 0.79573 0.0
C571 C 0.08171 0.2951 0.83145 0.0
C572 C 0.06405 0.25537 0.82865 0.0
C573 C 0.05555 0.23684 0.79192 0.0
C574 C 0.03609 0.19397 0.79738 0.0
C575 C 0.99259 0.1927 0.77886 0.0
C576 C 0.0642 0.15907 0.77974 0.0
C577 C 0.0341 0.19177 0.84293 0.0
C578 C 0.05042 0.22751 0.86035 0.0
C579 C 0.05012 0.23376 0.90191 0.0
C580 C 0.03259 0.20269 0.92632 0.0
C581 C 0.01603 0.16556 0.90923 0.0
C582 C 0.01704 0.1601 0.86692 0.0
H583 H 0.75034 0.08889 0.77176 0.0
H584 H 0.69421 0.97128 0.7347 0.0
H585 H 0.75174 0.932 0.7658 0.0
H586 H 0.85965 0.05535 0.76212 0.0
H587 H 0.87455 0.08368 0.80685 0.0
H588 H 0.83237 0.10285 0.77662 0.0
H589 H 0.78416 0.10251 0.83945 0.0
H590 H 0.82599 0.0831 0.86983 0.0
H591 H 0.77811 0.05446 0.86738 0.0
H592 H 0.81044 0.90532 0.80686 0.0
H593 H 0.86628 0.89284 0.85545 0.0
H594 H 0.88353 0.02764 0.86791 0.0
C595 C 0.75011 0.05493 0.76983 0.0
C596 C 0.71713 0.03313 0.75136 0.0
C597 C 0.71883 0.98863 0.74904 0.0
C598 C 0.75143 0.96604 0.76652 0.0
C599 C 0.7824 0.98841 0.78598 0.0
C600 C 0.78214 0.03185 0.78766 0.0
C601 C 0.8172 0.04807 0.81345 0.0
C602 C 0.84776 0.07402 0.78824 0.0
C603 C 0.80036 0.07356 0.84967 0.0
C604 C 0.83657 0.0069 0.82674 0.0
C605 C 0.81634 0.97292 0.81006 0.0
C606 C 0.82698 0.93166 0.81958 0.0
C607 C 0.85888 0.92489 0.8472 0.0
C608 C 0.87977 0.9592 0.86513 0.0
C609 C 0.86861 0.00072 0.85434 0.0
H610 H 0.24663 0.36129 0.14773 0.0
H611 H 0.20572 0.45614 0.06323 0.0
H612 H 0.15902 0.40435 0.03152 0.0
H613 H 0.24591 0.27389 0.07674 0.0
H614 H 0.22849 0.23688 0.11403 0.0
H615 H 0.25904 0.28141 0.12896 0.0
H616 H 0.20194 0.3035 0.18005 0.0
H617 H 0.17105 0.25948 0.16471 0.0
H618 H 0.1498 0.31212 0.16282 0.0
H619 H 0.11849 0.34115 0.00791 0.0
H620 H 0.08617 0.27188 0.99526 0.0
H621 H 0.15142 0.22002 0.09754 0.0
C622 C 0.2281 0.37099 0.1223 0.0
C623 C 0.23016 0.41244 0.1074 0.0
C624 C 0.20492 0.42429 0.07461 0.0
C625 C 0.17831 0.39517 0.05654 0.0
C626 C 0.17715 0.35447 0.07187 0.0
C627 C 0.20147 0.34239 0.10395 0.0
C628 C 0.19451 0.29685 0.11477 0.0
C629 C 0.23435 0.27072 0.10822 0.0
C630 C 0.1783 0.29281 0.15819 0.0
C631 C 0.1618 0.28532 0.08433 0.0
C632 C 0.15259 0.31878 0.05945 0.0
C633 C 0.12508 0.31486 0.02749 0.0
C634 C 0.10686 0.27554 0.02055 0.0
C635 C 0.11573 0.24106 0.04592 0.0
C636 C 0.14326 0.24623 0.07836 0.0
H637 H 0.33668 0.74672 0.93235 0.0
H638 H 0.36256 0.70379 0.08 0.0
H639 H 0.31365 0.77711 0.10451 0.0
H640 H 0.32671 0.87476 0.95543 0.0
H641 H 0.28305 0.88153 0.92256 0.0
H642 H 0.32022 0.84 0.91285 0.0
H643 H 0.26145 0.78465 0.91434 0.0
H644 H 0.22453 0.82644 0.92288 0.0
H645 H 0.22711 0.78297 0.95741 0.0
H646 H 0.2644 0.84847 0.10211 0.0
H647 H 0.20623 0.89857 0.09589 0.0
H648 H 0.21362 0.88794 0.96578 0.0
C649 C 0.33253 0.75202 0.96435 0.0
C650 C 0.36212 0.72234 0.00314 0.0
C651 C 0.34834 0.72434 0.05813 0.0
C652 C 0.32052 0.77129 0.07303 0.0
C653 C 0.30172 0.80684 0.03558 0.0
C654 C 0.30585 0.79729 0.98385 0.0
C655 C 0.27795 0.82788 0.96327 0.0
C656 C 0.30351 0.8578 0.93698 0.0
C657 C 0.24587 0.80409 0.93802 0.0
C658 C 0.25772 0.85146 0.99913 0.0
C659 C 0.27152 0.84039 0.03785 0.0
C660 C 0.25384 0.8578 0.07258 0.0
C661 C 0.22083 0.88631 0.06873 0.0
C662 C 0.20535 0.89693 0.03031 0.0
C663 C 0.22496 0.88026 0.99548 0.0
H664 H 0.69554 0.25302 0.9979 0.0
H665 H 0.63142 0.18039 0.90703 0.0
H666 H 0.67988 0.12089 0.91772 0.0
H667 H 0.79467 0.22271 0.97228 0.0
H668 H 0.81402 0.21994 0.02299 0.0
H669 H 0.77138 0.25445 0.01168 0.0
H670 H 0.72675 0.21855 0.06668 0.0
H671 H 0.76941 0.18386 0.07826 0.0
H672 H 0.71982 0.16233 0.06513 0.0
H673 H 0.74164 0.07465 0.93058 0.0
H674 H 0.80987 0.04343 0.94738 0.0
H675 H 0.83004 0.14334 0.0342 0.0
C676 C 0.69117 0.22426 0.98086 0.0
C677 C 0.66019 0.22147 0.95121 0.0
C678 C 0.65534 0.18331 0.92953 0.0
C679 C 0.68253 0.14932 0.93558 0.0
C680 C 0.71361 0.15363 0.96419 0.0
C681 C 0.71757 0.18989 0.98699 0.0
C682 C 0.75502 0.1876 0.01405 0.0
C683 C 0.78556 0.22327 0.00466 0.0
C684 C 0.74195 0.1881 0.05868 0.0
C685 C 0.77254 0.14512 0.00172 0.0
C686 C 0.74813 0.12592 0.97303 0.0
C687 C 0.76051 0.0888 0.95369 0.0
C688 C 0.79917 0.07132 0.96338 0.0
C689 C 0.82443 0.09058 0.9927 0.0
C690 C 0.81051 0.12734 0.0127 0.0
H691 H 0.84008 0.62967 0.90154 0.0
H692 H 0.76797 0.6113 0.01109 0.0
H693 H 0.81285 0.6609 0.04675 0.0
H694 H 0.94077 0.64182 0.95295 0.0
H695 H 0.95884 0.68243 0.91996 0.0
H696 H 0.92549 0.64179 0.9008 0.0
H697 H 0.87142 0.69489 0.87598 0.0
H698 H 0.90456 0.73701 0.89133 0.0
H699 H 0.85199 0.73516 0.90982 0.0
H700 H 0.86021 0.71864 0.06869 0.0
H701 H 0.90158 0.78343 0.07245 0.0
H702 H 0.94262 0.76349 0.94911 0.0
C703 C 0.83434 0.63458 0.93334 0.0
C704 C 0.80126 0.61454 0.95366 0.0
C705 C 0.79401 0.62449 0.99494 0.0
C706 C 0.81939 0.65277 0.01562 0.0
C707 C 0.85195 0.67129 0.99476 0.0
C708 C 0.85944 0.6626 0.9545 0.0
C709 C 0.89399 0.68955 0.93801 0.0
C710 C 0.93199 0.66224 0.92724 0.0
C711 C 0.87959 0.71569 0.90167 0.0
C712 C 0.90251 0.71695 0.97439 0.0
C713 C 0.87897 0.70506 0.00727 0.0
C714 C 0.87938 0.72775 0.04336 0.0
C715 C 0.90321 0.76445 0.04533 0.0
C716 C 0.92575 0.77839 0.01122 0.0
C717 C 0.92638 0.75335 0.97591 0.0
loop_
_geom_bond_atom_site_label_1
_geom_bond_atom_site_label_2
_geom_bond_distance
_geom_bond_site_symmetry_2
_ccdc_geom_bond_type
C0 C1 1.560 . S
C0 H61 0.959 . S
C0 H62 0.959 . S
C0 H63 0.960 . S
C1 C0 1.560 . S
C1 O56 1.426 . S
C1 H60 0.980 . S
C2 C3 1.388 1_455 S
C2 C7 1.418 . S
C2 O56 1.334 . S
C3 C2 1.388 1_655 S
C3 C4 1.366 . S
C3 H64 0.941 . S
C4 C3 1.366 . S
C4 C5 1.401 1_655 S
C4 C8 1.527 . S
C5 C4 1.401 1_455 S
C5 C6 1.405 . S
C5 C38 1.587 1_455 S
C6 C5 1.405 . S
C6 C7 1.332 . S
C6 C9 1.496 . S
C7 C2 1.418 . S
C7 C6 1.332 . S
C7 H65 0.929 . S
C8 C4 1.527 . S
C8 H66 0.959 . S
C8 H67 0.961 . S
C8 H68 0.961 . S
C9 C6 1.496 . S
C9 H69 0.960 . S
C9 H70 0.960 . S
C9 H71 0.961 . S
C10 C11 1.517 . S
C10 H73 0.961 1_655 S
C10 H74 0.960 . S
C10 H75 0.959 . S
C11 C10 1.517 . S
C11 O59 1.468 . S
C11 H72 0.980 1_655 S
C12 C13 1.349 1_655 S
C12 C17 1.367 . S
C12 O59 1.408 . S
C13 C12 1.349 1_455 S
C13 C14 1.407 . S
C13 H76 0.930 . S
C14 C13 1.407 . S
C14 C15 1.449 1_455 S
C14 C18 1.535 . S
C15 C14 1.449 1_655 S
C15 C16 1.384 . S
C15 C40 1.553 . S
C16 C15 1.384 . S
C16 C17 1.364 . S
C16 C19 1.450 . S
C17 C12 1.367 . S
C17 C16 1.364 . S
C17 H77 0.931 . S
C18 C14 1.535 . S
C18 H78 0.959 . S
C18 H79 0.961 . S
C18 H80 0.959 . S
C19 C16 1.450 . S
C19 H81 0.960 . S
C19 H82 0.960 . S
C19 H83 0.960 . S
C20 C21 1.309 1_655 S
C20 C25 1.304 . S
C20 O58 1.435 . S
C21 C20 1.309 1_455 S
C21 C22 1.476 . S
C21 H85 0.930 . S
C22 C21 1.476 . S
C22 C23 1.400 1_455 S
C22 C26 1.567 . S
C23 C22 1.400 1_655 S
C23 C24 1.373 . S
C23 C45 1.432 . S
C24 C23 1.373 . S
C24 C25 1.339 . S
C24 C27 1.530 . S
C25 C20 1.304 . S
C25 C24 1.339 . S
C25 H86 0.930 . S
C26 C22 1.567 . S
C26 H87 0.961 . S
C26 H88 0.960 . S
C26 H89 0.958 . S
C27 C24 1.530 . S
C27 H90 0.961 . S
C27 H91 0.960 . S
C27 H92 0.960 . S
C28 C29 1.530 . S
C28 H94 0.961 . S
C28 H95 0.961 . S
C28 H96 0.959 . S
C29 C28 1.530 . S
C29 O57 1.412 . S
C29 H93 0.980 . S
C30 C31 1.288 . S
C30 C35 1.369 1_455 S
C30 O57 1.393 . S
C31 C30 1.288 . S
C31 C32 1.369 . S
C31 H97 0.932 . S
C32 C31 1.369 . S
C32 C33 1.398 . S
C32 C36 1.527 . S
C33 C32 1.398 . S
C33 C34 1.380 1_455 S
C33 C47 1.497 . S
C34 C33 1.380 1_655 S
C34 C35 1.385 . S
C34 C37 1.603 . S
C35 C30 1.369 1_655 S
C35 C34 1.385 . S
C35 H98 0.934 . S
C36 C32 1.527 . S
C36 H99 0.961 . S
C36 H100 0.959 . S
C36 H101 0.959 . S
C37 C34 1.603 . S
C37 H102 0.960 . S
C37 H103 0.962 . S
C37 H104 0.961 . S
C38 C5 1.587 1_655 S
C38 C39 1.360 . S
C38 C51 1.413 . S
C39 C38 1.360 . S
C39 C40 1.365 . S
C39 H105 0.929 . S
C40 C15 1.553 . S
C40 C39 1.365 . S
C40 C41 1.404 . S
C41 C40 1.404 . S
C41 C42 1.395 . S
C41 C52 1.451 . S
C42 C41 1.395 . S
C42 C43 1.322 . S
C42 H106 0.930 . S
C43 C42 1.322 . S
C43 C44 1.459 . S
C43 H107 0.929 . S
C44 C43 1.459 . S
C44 C45 1.445 . S
C44 C53 1.395 . S
C45 C23 1.432 . S
C45 C44 1.445 . S
C45 C46 1.370 1_655 S
C46 C45 1.370 1_455 S
C46 C47 1.438 . S
C46 H108 0.930 . S
C47 C33 1.497 . S
C47 C46 1.438 . S
C47 C48 1.360 . S
C48 C47 1.360 . S
C48 C49 1.401 . S
C48 C53 1.446 1_455 S
C49 C48 1.401 . S
C49 C50 1.347 . S
C49 H109 0.929 . S
C50 C49 1.347 . S
C50 C51 1.451 1_455 S
C50 H110 0.930 . S
C51 C38 1.413 . S
C51 C50 1.451 1_655 S
C51 C52 1.335 . S
C52 C41 1.451 . S
C52 C51 1.335 . S
C52 C53 1.497 . S
C53 C44 1.395 . S
C53 C48 1.446 1_655 S
C53 C52 1.497 . S
C54 C55 1.582 1_655 S
C54 H111 0.953 1_655 S
C54 H112 0.959 . S
C54 H113 0.958 . S
C55 C54 1.582 1_455 S
C55 O58 1.458 1_455 S
C55 H84 0.980 . S
O56 C1 1.426 . S
O56 C2 1.334 . S
O57 C29 1.412 . S
O57 C30 1.393 . S
O58 C20 1.435 . S
O58 C55 1.458 1_655 S
O59 C11 1.468 . S
O59 C12 1.408 . S
H60 C1 0.980 . S
H61 C0 0.959 . S
H62 C0 0.959 . S
H63 C0 0.960 . S
H64 C3 0.941 . S
H65 C7 0.929 . S
H66 C8 0.959 . S
H67 C8 0.961 . S
H68 C8 0.961 . S
H69 C9 0.960 . S
H70 C9 0.960 . S
H71 C9 0.961 . S
H72 C11 0.980 1_455 S
H73 C10 0.961 1_455 S
H74 C10 0.960 . S
H75 C10 0.959 . S
H76 C13 0.930 . S
H77 C17 0.931 . S
H78 C18 0.959 . S
H79 C18 0.961 . S
H80 C18 0.959 . S
H81 C19 0.960 . S
H82 C19 0.960 . S
H83 C19 0.960 . S
H84 C55 0.980 . S
H85 C21 0.930 . S
H86 C25 0.930 . S
H87 C26 0.961 . S
H88 C26 0.960 . S
H89 C26 0.958 . S
H90 C27 0.961 . S
H91 C27 0.960 . S
H92 C27 0.960 . S
H93 C29 0.980 . S
H94 C28 0.961 . S
H95 C28 0.961 . S
H96 C28 0.959 . S
H97 C31 0.932 . S
H98 C35 0.934 . S
H99 C36 0.961 . S
H100 C36 0.959 . S
H101 C36 0.959 . S
H102 C37 0.960 . S
H103 C37 0.962 . S
H104 C37 0.961 . S
H105 C39 0.929 . S
H106 C42 0.930 . S
H107 C43 0.929 . S
H108 C46 0.930 . S
H109 C49 0.929 . S
H110 C50 0.930 . S
H111 C54 0.953 1_455 S
H112 C54 0.959 . S
H113 C54 0.958 . S
C114 C115 1.560 . S
C114 H175 0.959 . S
C114 H176 0.959 . S
C114 H177 0.960 . S
C115 C114 1.560 . S
C115 O170 1.426 . S
C115 H174 0.980 . S
C116 C117 1.407 1_545 S
C116 C121 1.418 . S
C116 O170 1.334 . S
C117 C116 1.407 1_565 S
C117 C118 1.360 . S
C117 H178 0.929 . S
C118 C117 1.360 . S
C118 C119 1.401 1_565 S
C118 C122 1.527 . S
C119 C118 1.401 1_545 S
C119 C120 1.405 . S
C119 C152 1.587 1_545 S
C120 C119 1.405 . S
C120 C121 1.332 . S
C120 C123 1.496 . S
C121 C116 1.418 . S
C121 C120 1.332 . S
C121 H179 0.929 . S
C122 C118 1.527 . S
C122 H180 0.959 . S
C122 H181 0.961 . S
C122 H182 0.961 . S
C123 C120 1.496 . S
C123 H183 0.960 . S
C123 H184 0.960 . S
C123 H185 0.961 . S
C124 C125 1.517 . S
C124 H187 0.959 1_565 S
C124 H188 0.960 . S
C124 H189 0.959 . S
C125 C124 1.517 . S
C125 O173 1.468 . S
C125 H186 0.980 1_565 S
C126 C127 1.345 1_565 S
C126 C131 1.367 . S
C126 O173 1.408 . S
C127 C126 1.345 1_545 S
C127 C128 1.408 . S
C127 H190 0.933 . S
C128 C127 1.408 . S
C128 C129 1.449 1_545 S
C128 C132 1.535 . S
C129 C128 1.449 1_565 S
C129 C130 1.384 . S
C129 C154 1.553 . S
C130 C129 1.384 . S
C130 C131 1.364 . S
C130 C133 1.450 . S
C131 C126 1.367 . S
C131 C130 1.364 . S
C131 H191 0.931 . S
C132 C128 1.535 . S
C132 H192 0.959 . S
C132 H193 0.961 . S
C132 H194 0.959 . S
C133 C130 1.450 . S
C133 H195 0.960 . S
C133 H196 0.960 . S
C133 H197 0.960 . S
C134 C135 1.309 1_565 S
C134 C139 1.304 . S
C134 O172 1.435 . S
C135 C134 1.309 1_545 S
C135 C136 1.476 . S
C135 H199 0.930 . S
C136 C135 1.476 . S
C136 C137 1.400 1_545 S
C136 C140 1.567 . S
C137 C136 1.400 1_565 S
C137 C138 1.373 . S
C137 C159 1.432 . S
C138 C137 1.373 . S
C138 C139 1.339 . S
C138 C141 1.530 . S
C139 C134 1.304 . S
C139 C138 1.339 . S
C139 H200 0.930 . S
C140 C136 1.567 . S
C140 H201 0.961 . S
C140 H202 0.960 . S
C140 H203 0.958 . S
C141 C138 1.530 . S
C141 H204 0.961 . S
C141 H205 0.960 . S
C141 H206 0.960 . S
C142 C143 1.530 . S
C142 H208 0.961 . S
C142 H209 0.961 . S
C142 H210 0.959 . S
C143 C142 1.530 . S
C143 O171 1.412 . S
C143 H207 0.980 . S
C144 C145 1.288 . S
C144 C149 1.377 1_545 S
C144 O171 1.393 . S
C145 C144 1.288 . S
C145 C146 1.369 . S
C145 H211 0.932 . S
C146 C145 1.369 . S
C146 C147 1.398 . S
C146 C150 1.527 . S
C147 C146 1.398 . S
C147 C148 1.380 1_545 S
C147 C161 1.497 . S
C148 C147 1.380 1_565 S
C148 C149 1.383 . S
C148 C151 1.603 . S
C149 C144 1.377 1_565 S
C149 C148 1.383 . S
C149 H212 0.929 . S
C150 C146 1.527 . S
C150 H213 0.961 . S
C150 H214 0.959 . S
C150 H215 0.959 . S
C151 C148 1.603 . S
C151 H216 0.960 . S
C151 H217 0.962 . S
C151 H218 0.961 . S
C152 C119 1.587 1_565 S
C152 C153 1.360 . S
C152 C165 1.412 . S
C153 C152 1.360 . S
C153 C154 1.365 . S
C153 H219 0.929 . S
C154 C129 1.553 . S
C154 C153 1.365 . S
C154 C155 1.404 . S
C155 C154 1.404 . S
C155 C156 1.395 . S
C155 C166 1.451 . S
C156 C155 1.395 . S
C156 C157 1.322 . S
C156 H220 0.930 . S
C157 C156 1.322 . S
C157 C158 1.459 . S
C157 H221 0.929 . S
C158 C157 1.459 . S
C158 C159 1.445 . S
C158 C167 1.395 . S
C159 C137 1.432 . S
C159 C158 1.445 . S
C159 C160 1.370 . S
C160 C159 1.370 . S
C160 C161 1.438 1_565 S
C160 H222 0.932 . S
C161 C147 1.497 . S
C161 C160 1.438 1_545 S
C161 C162 1.360 1_545 S
C162 C161 1.360 1_565 S
C162 C163 1.401 1_565 S
C162 C167 1.446 . S
C163 C162 1.401 1_545 S
C163 C164 1.347 . S
C163 H223 0.929 . S
C164 C163 1.347 . S
C164 C165 1.455 1_545 S
C164 H224 0.930 . S
C165 C152 1.412 . S
C165 C164 1.455 1_565 S
C165 C166 1.331 . S
C166 C155 1.451 . S
C166 C165 1.331 . S
C166 C167 1.497 . S
C167 C158 1.395 . S
C167 C162 1.446 . S
C167 C166 1.497 . S
C168 C169 1.582 1_565 S
C168 H225 0.962 . S
C168 H226 0.959 . S
C168 H227 0.958 . S
C169 C168 1.582 1_545 S
C169 O172 1.458 1_545 S
C169 H198 0.980 . S
O170 C115 1.426 . S
O170 C116 1.334 . S
O171 C143 1.412 . S
O171 C144 1.393 . S
O172 C134 1.435 . S
O172 C169 1.458 1_565 S
O173 C125 1.468 . S
O173 C126 1.408 . S
H174 C115 0.980 . S
H175 C114 0.959 . S
H176 C114 0.959 . S
H177 C114 0.960 . S
H178 C117 0.929 . S
H179 C121 0.929 . S
H180 C122 0.959 . S
H181 C122 0.961 . S
H182 C122 0.961 . S
H183 C123 0.960 . S
H184 C123 0.960 . S
H185 C123 0.961 . S
H186 C125 0.980 1_545 S
H187 C124 0.959 1_545 S
H188 C124 0.960 . S
H189 C124 0.959 . S
H190 C127 0.933 . S
H191 C131 0.931 . S
H192 C132 0.959 . S
H193 C132 0.961 . S
H194 C132 0.959 . S
H195 C133 0.960 . S
H196 C133 0.960 . S
H197 C133 0.960 . S
H198 C169 0.980 . S
H199 C135 0.930 . S
H200 C139 0.930 . S
H201 C140 0.961 . S
H202 C140 0.960 . S
H203 C140 0.958 . S
H204 C141 0.961 . S
H205 C141 0.960 . S
H206 C141 0.960 . S
H207 C143 0.980 . S
H208 C142 0.961 . S
H209 C142 0.961 . S
H210 C142 0.959 . S
H211 C145 0.932 . S
H212 C149 0.929 . S
H213 C150 0.961 . S
H214 C150 0.959 . S
H215 C150 0.959 . S
H216 C151 0.960 . S
H217 C151 0.962 . S
H218 C151 0.961 . S
H219 C153 0.929 . S
H220 C156 0.930 . S
H221 C157 0.929 . S
H222 C160 0.932 . S
H223 C163 0.929 . S
H224 C164 0.930 . S
H225 C168 0.962 . S
H226 C168 0.959 . S
H227 C168 0.958 . S
C228 C229 1.560 . S
C228 H289 0.959 . S
C228 H290 0.959 . S
C228 H291 0.960 . S
C229 C228 1.560 . S
C229 O284 1.426 . S
C229 H288 0.980 1_556 S
C230 C231 1.407 1_556 S
C230 C235 1.418 . S
C230 O284 1.334 . S
C231 C230 1.407 1_554 S
C231 C232 1.360 . S
C231 H292 0.929 . S
C232 C231 1.360 . S
C232 C233 1.401 . S
C232 C236 1.527 . S
C233 C232 1.401 . S
C233 C234 1.405 1_554 S
C233 C266 1.587 . S
C234 C233 1.405 1_556 S
C234 C235 1.332 . S
C234 C237 1.496 . S
C235 C230 1.418 . S
C235 C234 1.332 . S
C235 H293 0.929 . S
C236 C232 1.527 . S
C236 H294 0.959 . S
C236 H295 0.961 . S
C236 H296 0.961 . S
C237 C234 1.496 . S
C237 H297 0.960 . S
C237 H298 0.960 . S
C237 H299 0.961 . S
C238 C239 1.517 . S
C238 H301 0.961 . S
C238 H302 0.960 . S
C238 H303 0.959 . S
C239 C238 1.517 . S
C239 O287 1.468 . S
C239 H300 0.980 . S
C240 C241 1.349 . S
C240 C245 1.367 . S
C240 O287 1.408 . S
C241 C240 1.349 . S
C241 C242 1.407 . S
C241 H304 0.930 . S
C242 C241 1.407 . S
C242 C243 1.449 . S
C242 C246 1.535 1_554 S
C243 C242 1.449 . S
C243 C244 1.384 . S
C243 C268 1.553 . S
C244 C243 1.384 . S
C244 C245 1.364 . S
C244 C247 1.450 . S
C245 C240 1.367 . S
C245 C244 1.364 . S
C245 H305 0.931 . S
C246 C242 1.535 1_556 S
C246 H306 0.959 . S
C246 H307 0.961 . S
C246 H308 0.959 . S
C247 C244 1.450 . S
C247 H309 0.960 . S
C247 H310 0.960 . S
C247 H311 0.960 . S
C248 C249 1.309 . S
C248 C253 1.304 . S
C248 O286 1.435 . S
C249 C248 1.309 . S
C249 C250 1.476 . S
C249 H313 0.930 1_554 S
C250 C249 1.476 . S
C250 C251 1.400 . S
C250 C254 1.567 1_554 S
C251 C250 1.400 . S
C251 C252 1.373 . S
C251 C273 1.432 . S
C252 C251 1.373 . S
C252 C253 1.339 . S
C252 C255 1.530 . S
C253 C248 1.304 . S
C253 C252 1.339 . S
C253 H314 0.930 . S
C254 C250 1.567 1_556 S
C254 H315 0.961 . S
C254 H316 0.960 . S
C254 H317 0.958 . S
C255 C252 1.530 . S
C255 H318 0.961 . S
C255 H319 0.960 . S
C255 H320 0.960 . S
C256 C257 1.530 1_556 S
C256 H322 0.961 . S
C256 H323 0.961 . S
C256 H324 0.959 . S
C257 C256 1.530 1_554 S
C257 O285 1.412 1_554 S
C257 H321 0.980 . S
C258 C259 1.288 . S
C258 C263 1.377 1_556 S
C258 O285 1.393 . S
C259 C258 1.288 . S
C259 C260 1.369 . S
C259 H325 0.932 . S
C260 C259 1.369 . S
C260 C261 1.398 1_556 S
C260 C264 1.527 . S
C261 C260 1.398 1_554 S
C261 C262 1.380 . S
C261 C275 1.497 . S
C262 C261 1.380 . S
C262 C263 1.383 . S
C262 C265 1.603 . S
C263 C258 1.377 1_554 S
C263 C262 1.383 . S
C263 H326 0.929 . S
C264 C260 1.527 . S
C264 H327 0.961 . S
C264 H328 0.959 . S
C264 H329 0.959 . S
C265 C262 1.603 . S
C265 H330 0.960 . S
C265 H331 0.962 . S
C265 H332 0.961 . S
C266 C233 1.587 . S
C266 C267 1.360 . S
C266 C279 1.412 . S
C267 C266 1.360 . S
C267 C268 1.365 . S
C267 H333 0.929 . S
C268 C243 1.553 . S
C268 C267 1.365 . S
C268 C269 1.404 . S
C269 C268 1.404 . S
C269 C270 1.395 . S
C269 C280 1.451 . S
C270 C269 1.395 . S
C270 C271 1.322 . S
C270 H334 0.930 . S
C271 C270 1.322 . S
C271 C272 1.459 . S
C271 H335 0.929 . S
C272 C271 1.459 . S
C272 C273 1.445 . S
C272 C281 1.395 . S
C273 C251 1.432 . S
C273 C272 1.445 . S
C273 C274 1.370 . S
C274 C273 1.370 . S
C274 C275 1.438 . S
C274 H336 0.930 . S
C275 C261 1.497 . S
C275 C274 1.438 . S
C275 C276 1.360 . S
C276 C275 1.360 . S
C276 C277 1.401 . S
C276 C281 1.446 . S
C277 C276 1.401 . S
C277 C278 1.347 . S
C277 H337 0.929 . S
C278 C277 1.347 . S
C278 C279 1.455 . S
C278 H338 0.930 . S
C279 C266 1.412 . S
C279 C278 1.455 . S
C279 C280 1.331 . S
C280 C269 1.451 . S
C280 C279 1.331 . S
C280 C281 1.497 . S
C281 C272 1.395 . S
C281 C276 1.446 . S
C281 C280 1.497 . S
C282 C283 1.582 . S
C282 H339 0.962 . S
C282 H340 0.959 . S
C282 H341 0.958 . S
C283 C282 1.582 . S
C283 O286 1.458 . S
C283 H312 0.980 . S
O284 C229 1.426 . S
O284 C230 1.334 . S
O285 C257 1.412 1_556 S
O285 C258 1.393 . S
O286 C248 1.435 . S
O286 C283 1.458 . S
O287 C239 1.468 . S
O287 C240 1.408 . S
H288 C229 0.980 1_554 S
H289 C228 0.959 . S
H290 C228 0.959 . S
H291 C228 0.960 . S
H292 C231 0.929 . S
H293 C235 0.929 . S
H294 C236 0.959 . S
H295 C236 0.961 . S
H296 C236 0.961 . S
H297 C237 0.960 . S
H298 C237 0.960 . S
H299 C237 0.961 . S
H300 C239 0.980 . S
H301 C238 0.961 . S
H302 C238 0.960 . S
H303 C238 0.959 . S
H304 C241 0.930 . S
H305 C245 0.931 . S
H306 C246 0.959 . S
H307 C246 0.961 . S
H308 C246 0.959 . S
H309 C247 0.960 . S
H310 C247 0.960 . S
H311 C247 0.960 . S
H312 C283 0.980 . S
H313 C249 0.930 1_556 S
H314 C253 0.930 . S
H315 C254 0.961 . S
H316 C254 0.960 . S
H317 C254 0.958 . S
H318 C255 0.961 . S
H319 C255 0.960 . S
H320 C255 0.960 . S
H321 C257 0.980 . S
H322 C256 0.961 . S
H323 C256 0.961 . S
H324 C256 0.959 . S
H325 C259 0.932 . S
H326 C263 0.929 . S
H327 C264 0.961 . S
H328 C264 0.959 . S
H329 C264 0.959 . S
H330 C265 0.960 . S
H331 C265 0.962 . S
H332 C265 0.961 . S
H333 C267 0.929 . S
H334 C270 0.930 . S
H335 C271 0.929 . S
H336 C274 0.930 . S
H337 C277 0.929 . S
H338 C278 0.930 . S
H339 C282 0.962 . S
H340 C282 0.959 . S
H341 C282 0.958 . S
Zn342 O344 1.933 1_556 S
Zn342 O362 1.985 . S
Zn342 O373 1.955 . S
Zn343 O344 1.911 . S
Zn343 O363 1.970 . S
Zn343 O379 1.945 . S
Zn343 O386 1.981 . S
O344 Zn342 1.933 1_554 S
O344 Zn343 1.911 . S
O344 H345 0.841 . S
H345 O344 0.841 . S
C346 O347 1.246 . S
C346 O375 1.276 1_455 S
O347 C346 1.246 . S
Zn348 O350 1.911 . S
Zn348 O365 1.970 . S
Zn348 O382 1.945 . S
Zn348 O389 1.981 . S
Zn349 O350 1.933 1_556 S
Zn349 O364 1.985 . S
Zn349 O371 1.955 . S
O350 Zn348 1.911 . S
O350 Zn349 1.933 1_554 S
O350 H351 0.841 1_565 S
H351 O350 0.841 1_545 S
Zn352 O353 1.933 1_556 S
Zn352 O366 1.985 . S
Zn352 O375 1.955 . S
O353 Zn352 1.933 1_554 S
O353 Zn354 1.911 . S
O353 H355 0.841 1_655 S
Zn354 O353 1.911 . S
Zn354 O367 1.970 . S
Zn354 O383 1.981 . S
Zn354 O385 1.945 . S
H355 O353 0.841 1_455 S
Zn356 O357 1.933 1_556 S
Zn356 O369 1.985 . S
Zn356 O377 1.955 . S
O357 Zn356 1.933 1_554 S
O357 H358 0.841 . S
O357 Zn359 1.911 . S
H358 O357 0.841 . S
Zn359 O357 1.911 . S
Zn359 O370 1.970 . S
Zn359 O380 1.981 . S
Zn359 O388 1.945 . S
C360 O361 1.246 1_455 S
C360 O377 1.276 . S
O361 C360 1.246 1_655 S
O362 Zn342 1.985 . S
O362 C372 1.245 1_556 S
O363 Zn343 1.970 . S
O363 C372 1.263 . S
O364 Zn349 1.985 . S
O364 C376 1.245 1_556 S
O365 Zn348 1.970 . S
O365 C376 1.263 . S
O366 Zn352 1.985 . S
O366 C381 1.245 1_556 S
O367 Zn354 1.970 . S
O367 C381 1.263 . S
C368 O379 1.262 . S
C368 O380 1.245 1_545 S
O369 Zn356 1.985 . S
O369 C387 1.245 1_556 S
O370 Zn359 1.970 . S
O370 C387 1.263 . S
O371 Zn349 1.955 . S
O371 C390 1.276 1_565 S
C372 O362 1.245 1_554 S
C372 O363 1.263 . S
O373 Zn342 1.955 . S
O373 C392 1.276 . S
C374 O382 1.262 1_545 S
C374 O383 1.245 . S
O375 C346 1.276 1_655 S
O375 Zn352 1.955 . S
C376 O364 1.245 1_554 S
C376 O365 1.263 . S
O377 Zn356 1.955 . S
O377 C360 1.276 . S
C378 O385 1.262 1_455 S
C378 O386 1.245 . S
O379 Zn343 1.945 . S
O379 C368 1.262 . S
O380 Zn359 1.981 . S
O380 C368 1.245 1_565 S
C381 O366 1.245 1_554 S
C381 O367 1.263 . S
O382 Zn348 1.945 . S
O382 C374 1.262 1_565 S
O383 Zn354 1.981 . S
O383 C374 1.245 . S
C384 O388 1.262 . S
C384 O389 1.245 1_455 S
O385 Zn354 1.945 . S
O385 C378 1.262 1_655 S
O386 Zn343 1.981 . S
O386 C378 1.245 . S
C387 O369 1.245 1_554 S
C387 O370 1.263 . S
O388 Zn359 1.945 . S
O388 C384 1.262 . S
O389 Zn348 1.981 . S
O389 C384 1.245 1_655 S
C390 O371 1.276 1_545 S
C390 O391 1.246 . S
O391 C390 1.246 . S
C392 O373 1.276 . S
C392 O393 1.246 1_545 S
O393 C392 1.246 1_565 S
H394 C406 0.930 . S
H395 C408 0.930 . S
H396 C409 0.930 . S
H397 C413 0.959 1_655 S
H398 C413 0.959 . S
H399 C413 0.961 . S
H400 C414 0.960 . S
H401 C414 0.961 . S
H402 C414 0.959 . S
H403 C417 0.929 1_655 S
H404 C418 0.925 1_655 S
H405 C420 0.930 . S
C406 H394 0.930 . S
C406 C407 1.399 . S
C406 C411 1.399 . S
C407 C406 1.399 . S
C407 C408 1.376 1_455 S
C408 H395 0.930 . S
C408 C407 1.376 1_655 S
C408 C409 1.388 . S
C409 H396 0.930 . S
C409 C408 1.388 . S
C409 C410 1.390 1_655 S
C410 C409 1.390 1_455 S
C410 C411 1.394 . S
C410 C416 1.465 . S
C411 C406 1.399 . S
C411 C410 1.394 . S
C411 C412 1.516 . S
C412 C411 1.516 . S
C412 C413 1.502 . S
C412 C414 1.561 . S
C412 C415 1.526 . S
C413 H397 0.959 1_455 S
C413 H398 0.959 . S
C413 H399 0.961 . S
C413 C412 1.502 . S
C414 H400 0.960 . S
C414 H401 0.961 . S
C414 H402 0.959 . S
C414 C412 1.561 . S
C415 C412 1.526 . S
C415 C416 1.396 . S
C415 C420 1.390 . S
C416 C410 1.465 . S
C416 C415 1.396 . S
C416 C417 1.399 . S
C417 H403 0.929 1_455 S
C417 C416 1.399 . S
C417 C418 1.385 . S
C418 H404 0.925 1_455 S
C418 C417 1.385 . S
C418 C419 1.389 . S
C419 C418 1.389 . S
C419 C420 1.387 . S
C420 H405 0.930 . S
C420 C415 1.390 . S
C420 C419 1.387 . S
H421 C433 0.930 . S
H422 C435 0.930 . S
H423 C436 0.930 . S
H424 C440 0.959 . S
H425 C440 0.959 . S
H426 C440 0.961 . S
H427 C441 0.960 . S
H428 C441 0.961 . S
H429 C441 0.959 . S
H430 C444 0.929 . S
H431 C445 0.931 . S
H432 C447 0.930 . S
C433 H421 0.930 . S
C433 C434 1.399 . S
C433 C438 1.399 . S
C434 C433 1.399 . S
C434 C435 1.376 1_545 S
C435 H422 0.930 . S
C435 C434 1.376 1_565 S
C435 C436 1.388 . S
C436 H423 0.930 . S
C436 C435 1.388 . S
C436 C437 1.390 . S
C437 C436 1.390 . S
C437 C438 1.394 1_565 S
C437 C443 1.465 . S
C438 C433 1.399 . S
C438 C437 1.394 1_545 S
C438 C439 1.516 . S
C439 C438 1.516 . S
C439 C440 1.502 . S
C439 C441 1.561 . S
C439 C442 1.526 . S
C440 H424 0.959 . S
C440 H425 0.959 . S
C440 H426 0.961 . S
C440 C439 1.502 . S
C441 H427 0.960 . S
C441 H428 0.961 . S
C441 H429 0.959 . S
C441 C439 1.561 . S
C442 C439 1.526 . S
C442 C443 1.396 1_545 S
C442 C447 1.390 . S
C443 C437 1.465 . S
C443 C442 1.396 1_565 S
C443 C444 1.399 . S
C444 H430 0.929 . S
C444 C443 1.399 . S
C444 C445 1.385 . S
C445 H431 0.931 . S
C445 C444 1.385 . S
C445 C446 1.389 1_565 S
C446 C445 1.389 1_545 S
C446 C447 1.387 . S
C447 H432 0.930 . S
C447 C442 1.390 . S
C447 C446 1.387 . S
H448 C460 0.930 . S
H449 C462 0.930 . S
H450 C463 0.930 . S
H451 C467 0.959 . S
H452 C467 0.959 . S
H453 C467 0.961 . S
H454 C468 0.960 . S
H455 C468 0.961 . S
H456 C468 0.959 . S
H457 C471 0.929 . S
H458 C472 0.931 . S
H459 C474 0.930 . S
C460 H448 0.930 . S
C460 C461 1.399 . S
C460 C465 1.399 . S
C461 C460 1.399 . S
C461 C462 1.376 . S
C462 H449 0.930 . S
C462 C461 1.376 . S
C462 C463 1.388 . S
C463 H450 0.930 . S
C463 C462 1.388 . S
C463 C464 1.390 . S
C464 C463 1.390 . S
C464 C465 1.394 . S
C464 C470 1.465 . S
C465 C460 1.399 . S
C465 C464 1.394 . S
C465 C466 1.516 . S
C466 C465 1.516 . S
C466 C467 1.502 . S
C466 C468 1.561 1_455 S
C466 C469 1.526 . S
C467 H451 0.959 . S
C467 H452 0.959 . S
C467 H453 0.961 . S
C467 C466 1.502 . S
C468 H454 0.960 . S
C468 H455 0.961 . S
C468 H456 0.959 . S
C468 C466 1.561 1_655 S
C469 C466 1.526 . S
C469 C470 1.396 . S
C469 C474 1.390 . S
C470 C464 1.465 . S
C470 C469 1.396 . S
C470 C471 1.399 . S
C471 H457 0.929 . S
C471 C470 1.399 . S
C471 C472 1.385 . S
C472 H458 0.931 . S
C472 C471 1.385 . S
C472 C473 1.389 . S
C473 C472 1.389 . S
C473 C474 1.387 . S
C474 H459 0.930 . S
C474 C469 1.390 . S
C474 C473 1.387 . S
H475 C487 0.930 1_565 S
H476 C489 0.930 . S
H477 C490 0.930 . S
H478 C494 0.959 . S
H479 C494 0.959 . S
H480 C494 0.961 . S
H481 C495 0.960 . S
H482 C495 0.961 . S
H483 C495 0.959 . S
H484 C498 0.929 . S
H485 C499 0.931 . S
H486 C501 0.930 . S
C487 H475 0.930 1_545 S
C487 C488 1.399 . S
C487 C492 1.399 . S
C488 C487 1.399 . S
C488 C489 1.376 . S
C489 H476 0.930 . S
C489 C488 1.376 . S
C489 C490 1.388 . S
C490 H477 0.930 . S
C490 C489 1.388 . S
C490 C491 1.390 . S
C491 C490 1.390 . S
C491 C492 1.394 . S
C491 C497 1.465 . S
C492 C487 1.399 . S
C492 C491 1.394 . S
C492 C493 1.516 1_545 S
C493 C492 1.516 1_565 S
C493 C494 1.502 . S
C493 C495 1.561 1_565 S
C493 C496 1.526 1_565 S
C494 H478 0.959 . S
C494 H479 0.959 . S
C494 H480 0.961 . S
C494 C493 1.502 . S
C495 H481 0.960 . S
C495 H482 0.961 . S
C495 H483 0.959 . S
C495 C493 1.561 1_545 S
C496 C493 1.526 1_545 S
C496 C497 1.396 . S
C496 C501 1.390 1_545 S
C497 C491 1.465 . S
C497 C496 1.396 . S
C497 C498 1.399 . S
C498 H484 0.929 . S
C498 C497 1.399 . S
C498 C499 1.385 . S
C499 H485 0.931 . S
C499 C498 1.385 . S
C499 C500 1.389 . S
C500 C499 1.389 . S
C500 C501 1.387 1_545 S
C501 H486 0.930 . S
C501 C496 1.390 1_565 S
C501 C500 1.387 1_565 S
H502 C514 0.930 . S
H503 C516 0.930 . S
H504 C517 0.930 . S
H505 C521 0.959 . S
H506 C521 0.959 . S
H507 C521 0.961 . S
H508 C522 0.960 . S
H509 C522 0.961 . S
H510 C522 0.959 . S
H511 C525 0.929 . S
H512 C526 0.931 . S
H513 C528 0.930 . S
C514 H502 0.930 . S
C514 C515 1.399 . S
C514 C519 1.399 . S
C515 C514 1.399 . S
C515 C516 1.376 1_455 S
C516 H503 0.930 . S
C516 C515 1.376 1_655 S
C516 C517 1.388 . S
C517 H504 0.930 . S
C517 C516 1.388 . S
C517 C518 1.390 . S
C518 C517 1.390 . S
C518 C519 1.394 1_655 S
C518 C524 1.465 . S
C519 C514 1.399 . S
C519 C518 1.394 1_455 S
C519 C520 1.516 . S
C520 C519 1.516 . S
C520 C521 1.502 . S
C520 C522 1.561 1_455 S
C520 C523 1.526 . S
C521 H505 0.959 . S
C521 H506 0.959 . S
C521 H507 0.961 . S
C521 C520 1.502 . S
C522 H508 0.960 . S
C522 H509 0.961 . S
C522 H510 0.959 . S
C522 C520 1.561 1_655 S
C523 C520 1.526 . S
C523 C524 1.396 1_455 S
C523 C528 1.390 . S
C524 C518 1.465 . S
C524 C523 1.396 1_655 S
C524 C525 1.399 . S
C525 H511 0.929 . S
C525 C524 1.399 . S
C525 C526 1.385 . S
C526 H512 0.931 . S
C526 C525 1.385 . S
C526 C527 1.389 1_655 S
C527 C526 1.389 1_455 S
C527 C528 1.387 . S
C528 H513 0.930 . S
C528 C523 1.390 . S
C528 C527 1.387 . S
H529 C541 0.930 . S
H530 C543 0.930 . S
H531 C544 0.930 . S
H532 C548 0.959 . S
H533 C548 0.959 . S
H534 C548 0.961 . S
H535 C549 0.960 . S
H536 C549 0.961 . S
H537 C549 0.959 . S
H538 C552 0.929 . S
H539 C553 0.931 . S
H540 C555 0.930 . S
C541 H529 0.930 . S
C541 C542 1.399 1_565 S
C541 C546 1.399 . S
C542 C541 1.399 1_545 S
C542 C543 1.376 . S
C543 H530 0.930 . S
C543 C542 1.376 . S
C543 C544 1.388 . S
C544 H531 0.930 . S
C544 C543 1.388 . S
C544 C545 1.390 . S
C545 C544 1.390 . S
C545 C546 1.394 1_545 S
C545 C551 1.465 . S
C546 C541 1.399 . S
C546 C545 1.394 1_565 S
C546 C547 1.516 . S
C547 C546 1.516 . S
C547 C548 1.502 . S
C547 C549 1.561 . S
C547 C550 1.526 . S
C548 H532 0.959 . S
C548 H533 0.959 . S
C548 H534 0.961 . S
C548 C547 1.502 . S
C549 H535 0.960 . S
C549 H536 0.961 . S
C549 H537 0.959 . S
C549 C547 1.561 . S
C550 C547 1.526 . S
C550 C551 1.396 1_565 S
C550 C555 1.390 . S
C551 C545 1.465 . S
C551 C550 1.396 1_545 S
C551 C552 1.399 . S
C552 H538 0.929 . S
C552 C551 1.399 . S
C552 C553 1.385 . S
C553 H539 0.931 . S
C553 C552 1.385 . S
C553 C554 1.389 . S
C554 C553 1.389 . S
C554 C555 1.387 1_545 S
C555 H540 0.930 . S
C555 C550 1.390 . S
C555 C554 1.387 1_565 S
H556 C568 0.930 . S
H557 C570 0.930 . S
H558 C571 0.930 . S
H559 C575 0.959 . S
H560 C575 0.959 . S
H561 C575 0.961 . S
H562 C576 0.960 . S
H563 C576 0.961 . S
H564 C576 0.959 . S
H565 C579 0.929 . S
H566 C580 0.931 . S
H567 C582 0.930 . S
C568 H556 0.930 . S
C568 C569 1.399 . S
C568 C573 1.399 . S
C569 C568 1.399 . S
C569 C570 1.376 . S
C570 H557 0.930 . S
C570 C569 1.376 . S
C570 C571 1.388 . S
C571 H558 0.930 . S
C571 C570 1.388 . S
C571 C572 1.390 . S
C572 C571 1.390 . S
C572 C573 1.394 . S
C572 C578 1.465 . S
C573 C568 1.399 . S
C573 C572 1.394 . S
C573 C574 1.516 . S
C574 C573 1.516 . S
C574 C575 1.502 1_455 S
C574 C576 1.561 . S
C574 C577 1.526 . S
C575 H559 0.959 . S
C575 H560 0.959 . S
C575 H561 0.961 . S
C575 C574 1.502 1_655 S
C576 H562 0.960 . S
C576 H563 0.961 . S
C576 H564 0.959 . S
C576 C574 1.561 . S
C577 C574 1.526 . S
C577 C578 1.396 . S
C577 C582 1.390 . S
C578 C572 1.465 . S
C578 C577 1.396 . S
C578 C579 1.399 . S
C579 H565 0.929 . S
C579 C578 1.399 . S
C579 C580 1.385 . S
C580 H566 0.931 . S
C580 C579 1.385 . S
C580 C581 1.389 . S
C581 C580 1.389 . S
C581 C582 1.387 . S
C582 H567 0.930 . S
C582 C577 1.390 . S
C582 C581 1.387 . S
H583 C595 0.930 . S
H584 C597 0.930 . S
H585 C598 0.930 . S
H586 C602 0.959 . S
H587 C602 0.959 . S
H588 C602 0.961 . S
H589 C603 0.960 . S
H590 C603 0.961 . S
H591 C603 0.959 . S
H592 C606 0.929 . S
H593 C607 0.931 . S
H594 C609 0.930 . S
C595 H583 0.930 . S
C595 C596 1.399 . S
C595 C600 1.399 . S
C596 C595 1.399 . S
C596 C597 1.376 1_545 S
C597 H584 0.930 . S
C597 C596 1.376 1_565 S
C597 C598 1.388 . S
C598 H585 0.930 . S
C598 C597 1.388 . S
C598 C599 1.390 1_565 S
C599 C598 1.390 1_545 S
C599 C600 1.394 . S
C599 C605 1.465 . S
C600 C595 1.399 . S
C600 C599 1.394 . S
C600 C601 1.516 . S
C601 C600 1.516 . S
C601 C602 1.502 . S
C601 C603 1.561 . S
C601 C604 1.526 . S
C602 H586 0.959 . S
C602 H587 0.959 . S
C602 H588 0.961 . S
C602 C601 1.502 . S
C603 H589 0.960 . S
C603 H590 0.961 . S
C603 H591 0.959 . S
C603 C601 1.561 . S
C604 C601 1.526 . S
C604 C605 1.396 . S
C604 C609 1.390 . S
C605 C599 1.465 . S
C605 C604 1.396 . S
C605 C606 1.399 1_545 S
C606 H592 0.929 . S
C606 C605 1.399 1_565 S
C606 C607 1.385 . S
C607 H593 0.931 . S
C607 C606 1.385 . S
C607 C608 1.389 1_565 S
C608 C607 1.389 1_545 S
C608 C609 1.387 . S
C609 H594 0.930 . S
C609 C604 1.390 . S
C609 C608 1.387 . S
H610 C622 0.930 . S
H611 C624 0.930 . S
H612 C625 0.930 . S
H613 C629 0.959 . S
H614 C629 0.959 . S
H615 C629 0.961 . S
H616 C630 0.960 . S
H617 C630 0.961 . S
H618 C630 0.959 . S
H619 C633 0.929 . S
H620 C634 0.931 . S
H621 C636 0.930 . S
C622 H610 0.930 . S
C622 C623 1.399 . S
C622 C627 1.399 . S
C623 C622 1.399 . S
C623 C624 1.376 1_554 S
C624 H611 0.930 . S
C624 C623 1.376 1_556 S
C624 C625 1.388 . S
C625 H612 0.930 . S
C625 C624 1.388 . S
C625 C626 1.390 . S
C626 C625 1.390 . S
C626 C627 1.394 1_556 S
C626 C632 1.465 . S
C627 C622 1.399 . S
C627 C626 1.394 1_554 S
C627 C628 1.516 . S
C628 C627 1.516 . S
C628 C629 1.502 . S
C628 C630 1.561 . S
C628 C631 1.526 . S
C629 H613 0.959 . S
C629 H614 0.959 . S
C629 H615 0.961 . S
C629 C628 1.502 . S
C630 H616 0.960 . S
C630 H617 0.961 . S
C630 H618 0.959 . S
C630 C628 1.561 . S
C631 C628 1.526 . S
C631 C632 1.396 1_554 S
C631 C636 1.390 . S
C632 C626 1.465 . S
C632 C631 1.396 1_556 S
C632 C633 1.399 . S
C633 H619 0.929 . S
C633 C632 1.399 . S
C633 C634 1.385 . S
C634 H620 0.931 . S
C634 C633 1.385 . S
C634 C635 1.389 1_556 S
C635 C634 1.389 1_554 S
C635 C636 1.387 . S
C636 H621 0.930 . S
C636 C631 1.390 . S
C636 C635 1.387 . S
H637 C649 0.930 . S
H638 C651 0.930 . S
H639 C652 0.930 . S
H640 C656 0.959 . S
H641 C656 0.959 . S
H642 C656 0.961 . S
H643 C657 0.960 . S
H644 C657 0.961 . S
H645 C657 0.959 . S
H646 C660 0.929 . S
H647 C661 0.931 . S
H648 C663 0.930 . S
C649 H637 0.930 . S
C649 C650 1.399 1_556 S
C649 C654 1.398 1_556 S
C650 C649 1.399 1_554 S
C650 C651 1.376 . S
C651 H638 0.930 . S
C651 C650 1.376 . S
C651 C652 1.388 . S
C652 H639 0.930 . S
C652 C651 1.388 . S
C652 C653 1.390 . S
C653 C652 1.390 . S
C653 C654 1.403 . S
C653 C659 1.465 . S
C654 C649 1.398 1_554 S
C654 C653 1.403 . S
C654 C655 1.509 1_554 S
C655 C654 1.509 1_556 S
C655 C656 1.502 . S
C655 C657 1.561 . S
C655 C658 1.526 . S
C656 H640 0.959 . S
C656 H641 0.959 . S
C656 H642 0.961 . S
C656 C655 1.502 . S
C657 H643 0.960 . S
C657 H644 0.961 . S
C657 H645 0.959 . S
C657 C655 1.561 . S
C658 C655 1.526 . S
C658 C659 1.396 1_556 S
C658 C663 1.390 . S
C659 C653 1.465 . S
C659 C658 1.396 1_554 S
C659 C660 1.399 . S
C660 H646 0.929 . S
C660 C659 1.399 . S
C660 C661 1.385 . S
C661 H647 0.931 . S
C661 C660 1.385 . S
C661 C662 1.389 . S
C662 C661 1.389 . S
C662 C663 1.387 1_554 S
C663 H648 0.930 . S
C663 C658 1.390 . S
C663 C662 1.387 1_556 S
H664 C676 0.930 . S
H665 C678 0.930 . S
H666 C679 0.930 . S
H667 C683 0.959 . S
H668 C683 0.959 . S
H669 C683 0.961 . S
H670 C684 0.960 . S
H671 C684 0.961 . S
H672 C684 0.959 . S
H673 C687 0.929 . S
H674 C688 0.931 . S
H675 C690 0.930 . S
C676 H664 0.930 . S
C676 C677 1.399 . S
C676 C681 1.399 . S
C677 C676 1.399 . S
C677 C678 1.376 1_554 S
C678 H665 0.930 . S
C678 C677 1.376 1_556 S
C678 C679 1.388 . S
C679 H666 0.930 . S
C679 C678 1.388 . S
C679 C680 1.390 1_556 S
C680 C679 1.390 1_554 S
C680 C681 1.394 . S
C680 C686 1.465 1_554 S
C681 C676 1.399 . S
C681 C680 1.394 . S
C681 C682 1.516 . S
C682 C681 1.516 . S
C682 C683 1.502 . S
C682 C684 1.561 . S
C682 C685 1.526 . S
C683 H667 0.959 . S
C683 H668 0.959 . S
C683 H669 0.961 . S
C683 C682 1.502 . S
C684 H670 0.960 . S
C684 H671 0.961 . S
C684 H672 0.959 . S
C684 C682 1.561 . S
C685 C682 1.526 . S
C685 C686 1.380 1_554 S
C685 C690 1.390 . S
C686 C680 1.465 1_556 S
C686 C685 1.380 1_556 S
C686 C687 1.412 . S
C687 H673 0.929 . S
C687 C686 1.412 . S
C687 C688 1.385 . S
C688 H674 0.931 . S
C688 C687 1.385 . S
C688 C689 1.389 1_556 S
C689 C688 1.389 1_554 S
C689 C690 1.387 . S
C690 H675 0.930 . S
C690 C685 1.390 . S
C690 C689 1.387 . S
H691 C703 0.930 . S
H692 C705 0.930 . S
H693 C706 0.930 . S
H694 C710 0.959 . S
H695 C710 0.959 . S
H696 C710 0.961 . S
H697 C711 0.960 . S
H698 C711 0.961 . S
H699 C711 0.959 . S
H700 C714 0.929 . S
H701 C715 0.931 . S
H702 C717 0.930 . S
C703 H691 0.930 . S
C703 C704 1.399 1_556 S
C703 C708 1.399 . S
C704 C703 1.399 1_554 S
C704 C705 1.376 . S
C705 H692 0.930 . S
C705 C704 1.376 . S
C705 C706 1.388 . S
C706 H693 0.930 . S
C706 C705 1.388 . S
C706 C707 1.390 . S
C707 C706 1.390 . S
C707 C708 1.394 1_554 S
C707 C713 1.465 . S
C708 C703 1.399 . S
C708 C707 1.394 1_556 S
C708 C709 1.516 . S
C709 C708 1.516 . S
C709 C710 1.502 . S
C709 C711 1.561 . S
C709 C712 1.526 . S
C710 H694 0.959 . S
C710 H695 0.959 . S
C710 H696 0.961 . S
C710 C709 1.502 . S
C711 H697 0.960 . S
C711 H698 0.961 . S
C711 H699 0.959 . S
C711 C709 1.561 . S
C712 C709 1.526 . S
C712 C713 1.396 1_556 S
C712 C717 1.390 . S
C713 C707 1.465 . S
C713 C712 1.396 1_554 S
C713 C714 1.399 . S
C714 H700 0.929 . S
C714 C713 1.399 . S
C714 C715 1.385 . S
C715 H701 0.931 . S
C715 C714 1.385 . S
C715 C716 1.389 . S
C716 C715 1.389 . S
C716 C717 1.387 1_554 S
C717 H702 0.930 . S
C717 C712 1.390 . S
C717 C716 1.387 1_556 S
C419 C378 1.654 . S
C407 C11 1.083 1_455 S
C446 C374 1.551 . S
C434 C143 1.397 . S
C473 C384 1.429 . S
C461 C1 1.212 . S
C500 C368 1.693 . S
C488 C169 1.452 . S
C515 C29 1.489 . S
C527 C360 1.589 . S
C554 C392 1.802 . S
C542 C125 1.137 1_545 S
C569 C55 1.516 . S
C581 C346 1.743 . S
C596 C115 1.253 . S
C608 C390 1.548 . S
C623 C283 0.899 . S
C635 C372 1.126 . S
C650 C239 0.723 . S
C662 C387 1.108 . S
C689 C381 1.009 . S
C677 C257 0.872 . S
C716 C376 0.869 . S
C704 C229 0.791 1_554 S
