# Generated by pormake.
# Topology ptr, (4,4)-cn, num edge types: 1
# Building blocks:
#     Node 0, Type 0, BuildingBlock: GALJAG_clean_sbu_0, # of connection points: 4
#     Node 1, Type 0, BuildingBlock: GALJAG_clean_sbu_0, # of connection points: 4
#     Node 2, Type 0, BuildingBlock: GALJAG_clean_sbu_0, # of connection points: 4
#     Node 3, Type 0, BuildingBlock: GALJAG_clean_sbu_0, # of connection points: 4
#     Node 4, Type 0, BuildingBlock: GALJAG_clean_sbu_0, # of connection points: 4
#     Node 5, Type 0, BuildingBlock: GALJAG_clean_sbu_0, # of connection points: 4
#     Node 6, Type 0, BuildingBlock: GALJAG_clean_sbu_0, # of connection points: 4
#     Node 7, Type 0, BuildingBlock: GALJAG_clean_sbu_0, # of connection points: 4
#     Node 8, Type 0, BuildingBlock: GALJAG_clean_sbu_0, # of connection points: 4
#     Node 9, Type 0, BuildingBlock: GALJAG_clean_sbu_0, # of connection points: 4
#     Node 10, Type 0, BuildingBlock: GALJAG_clean_sbu_0, # of connection points: 4
#     Node 11, Type 0, BuildingBlock: GALJAG_clean_sbu_0, # of connection points: 4
#     Node 12, Type 0, BuildingBlock: GALJAG_clean_sbu_0, # of connection points: 4
#     Node 13, Type 0, BuildingBlock: GALJAG_clean_sbu_0, # of connection points: 4
#     Node 14, Type 0, BuildingBlock: GALJAG_clean_sbu_0, # of connection points: 4
#     Node 15, Type 0, BuildingBlock: GALJAG_clean_sbu_0, # of connection points: 4
#     Node 16, Type 0, BuildingBlock: GALJAG_clean_sbu_0, # of connection points: 4
#     Node 17, Type 0, BuildingBlock: GALJAG_clean_sbu_0, # of connection points: 4
#     Node 18, Type 1, BuildingBlock: KUFVIS_clean_linker_0, # of connection points: 4
#     Node 19, Type 1, BuildingBlock: KUFVIS_clean_linker_0, # of connection points: 4
#     Node 20, Type 1, BuildingBlock: KUFVIS_clean_linker_0, # of connection points: 4
#     Node 21, Type 1, BuildingBlock: KUFVIS_clean_linker_0, # of connection points: 4
#     Node 22, Type 1, BuildingBlock: KUFVIS_clean_linker_0, # of connection points: 4
#     Node 23, Type 1, BuildingBlock: KUFVIS_clean_linker_0, # of connection points: 4
#     Node 24, Type 1, BuildingBlock: KUFVIS_clean_linker_0, # of connection points: 4
#     Node 25, Type 1, BuildingBlock: KUFVIS_clean_linker_0, # of connection points: 4
#     Node 26, Type 1, BuildingBlock: KUFVIS_clean_linker_0, # of connection points: 4
#     Node 27, Type 1, BuildingBlock: KUFVIS_clean_linker_0, # of connection points: 4
#     Node 28, Type 1, BuildingBlock: KUFVIS_clean_linker_0, # of connection points: 4
#     Node 29, Type 1, BuildingBlock: KUFVIS_clean_linker_0, # of connection points: 4
#     Node 30, Type 1, BuildingBlock: KUFVIS_clean_linker_0, # of connection points: 4
#     Node 31, Type 1, BuildingBlock: KUFVIS_clean_linker_0, # of connection points: 4
#     Node 32, Type 1, BuildingBlock: KUFVIS_clean_linker_0, # of connection points: 4
#     Node 33, Type 1, BuildingBlock: KUFVIS_clean_linker_0, # of connection points: 4
#     Node 34, Type 1, BuildingBlock: KUFVIS_clean_linker_0, # of connection points: 4
#     Node 35, Type 1, BuildingBlock: KUFVIS_clean_linker_0, # of connection points: 4
#     Edge 36, Type (0, 1), BuildingBlock: XUDNAN_clean_linker_2, # of connection points: 2
#     Edge 37, Type (0, 1), BuildingBlock: XUDNAN_clean_linker_2, # of connection points: 2
#     Edge 38, Type (0, 1), BuildingBlock: XUDNAN_clean_linker_2, # of connection points: 2
#     Edge 39, Type (0, 1), BuildingBlock: XUDNAN_clean_linker_2, # of connection points: 2
#     Edge 40, Type (0, 1), BuildingBlock: XUDNAN_clean_linker_2, # of connection points: 2
#     Edge 41, Type (0, 1), BuildingBlock: XUDNAN_clean_linker_2, # of connection points: 2
#     Edge 42, Type (0, 1), BuildingBlock: XUDNAN_clean_linker_2, # of connection points: 2
#     Edge 43, Type (0, 1), BuildingBlock: XUDNAN_clean_linker_2, # of connection points: 2
#     Edge 44, Type (0, 1), BuildingBlock: XUDNAN_clean_linker_2, # of connection points: 2
#     Edge 45, Type (0, 1), BuildingBlock: XUDNAN_clean_linker_2, # of connection points: 2
#     Edge 46, Type (0, 1), BuildingBlock: XUDNAN_clean_linker_2, # of connection points: 2
#     Edge 47, Type (0, 1), BuildingBlock: XUDNAN_clean_linker_2, # of connection points: 2
#     Edge 48, Type (0, 1), BuildingBlock: XUDNAN_clean_linker_2, # of connection points: 2
#     Edge 49, Type (0, 1), BuildingBlock: XUDNAN_clean_linker_2, # of connection points: 2
#     Edge 50, Type (0, 1), BuildingBlock: XUDNAN_clean_linker_2, # of connection points: 2
#     Edge 51, Type (0, 1), BuildingBlock: XUDNAN_clean_linker_2, # of connection points: 2
#     Edge 52, Type (0, 1), BuildingBlock: XUDNAN_clean_linker_2, # of connection points: 2
#     Edge 53, Type (0, 1), BuildingBlock: XUDNAN_clean_linker_2, # of connection points: 2
#     Edge 54, Type (0, 1), BuildingBlock: XUDNAN_clean_linker_2, # of connection points: 2
#     Edge 55, Type (0, 1), BuildingBlock: XUDNAN_clean_linker_2, # of connection points: 2
#     Edge 56, Type (0, 1), BuildingBlock: XUDNAN_clean_linker_2, # of connection points: 2
#     Edge 57, Type (0, 1), BuildingBlock: XUDNAN_clean_linker_2, # of connection points: 2
#     Edge 58, Type (0, 1), BuildingBlock: XUDNAN_clean_linker_2, # of connection points: 2
#     Edge 59, Type (0, 1), BuildingBlock: XUDNAN_clean_linker_2, # of connection points: 2
#     Edge 60, Type (0, 1), BuildingBlock: XUDNAN_clean_linker_2, # of connection points: 2
#     Edge 61, Type (0, 1), BuildingBlock: XUDNAN_clean_linker_2, # of connection points: 2
#     Edge 62, Type (0, 1), BuildingBlock: XUDNAN_clean_linker_2, # of connection points: 2
#     Edge 63, Type (0, 1), BuildingBlock: XUDNAN_clean_linker_2, # of connection points: 2
#     Edge 64, Type (0, 1), BuildingBlock: XUDNAN_clean_linker_2, # of connection points: 2
#     Edge 65, Type (0, 1), BuildingBlock: XUDNAN_clean_linker_2, # of connection points: 2
#     Edge 66, Type (0, 1), BuildingBlock: XUDNAN_clean_linker_2, # of connection points: 2
#     Edge 67, Type (0, 1), BuildingBlock: XUDNAN_clean_linker_2, # of connection points: 2
#     Edge 68, Type (0, 1), BuildingBlock: XUDNAN_clean_linker_2, # of connection points: 2
#     Edge 69, Type (0, 1), BuildingBlock: XUDNAN_clean_linker_2, # of connection points: 2
#     Edge 70, Type (0, 1), BuildingBlock: XUDNAN_clean_linker_2, # of connection points: 2
#     Edge 71, Type (0, 1), BuildingBlock: XUDNAN_clean_linker_2, # of connection points: 2
#     Edge 72, Type (0, 1), BuildingBlock: XUDNAN_clean_linker_2, # of connection points: 2
#     Edge 73, Type (0, 1), BuildingBlock: XUDNAN_clean_linker_2, # of connection points: 2
#     Edge 74, Type (0, 1), BuildingBlock: XUDNAN_clean_linker_2, # of connection points: 2
#     Edge 75, Type (0, 1), BuildingBlock: XUDNAN_clean_linker_2, # of connection points: 2
#     Edge 76, Type (0, 1), BuildingBlock: XUDNAN_clean_linker_2, # of connection points: 2
#     Edge 77, Type (0, 1), BuildingBlock: XUDNAN_clean_linker_2, # of connection points: 2
#     Edge 78, Type (0, 1), BuildingBlock: XUDNAN_clean_linker_2, # of connection points: 2
#     Edge 79, Type (0, 1), BuildingBlock: XUDNAN_clean_linker_2, # of connection points: 2
#     Edge 80, Type (0, 1), BuildingBlock: XUDNAN_clean_linker_2, # of connection points: 2
#     Edge 81, Type (0, 1), BuildingBlock: XUDNAN_clean_linker_2, # of connection points: 2
#     Edge 82, Type (0, 1), BuildingBlock: XUDNAN_clean_linker_2, # of connection points: 2
#     Edge 83, Type (0, 1), BuildingBlock: XUDNAN_clean_linker_2, # of connection points: 2
#     Edge 84, Type (0, 1), BuildingBlock: XUDNAN_clean_linker_2, # of connection points: 2
#     Edge 85, Type (0, 1), BuildingBlock: XUDNAN_clean_linker_2, # of connection points: 2
#     Edge 86, Type (0, 1), BuildingBlock: XUDNAN_clean_linker_2, # of connection points: 2
#     Edge 87, Type (0, 1), BuildingBlock: XUDNAN_clean_linker_2, # of connection points: 2
#     Edge 88, Type (0, 1), BuildingBlock: XUDNAN_clean_linker_2, # of connection points: 2
#     Edge 89, Type (0, 1), BuildingBlock: XUDNAN_clean_linker_2, # of connection points: 2
#     Edge 90, Type (0, 1), BuildingBlock: XUDNAN_clean_linker_2, # of connection points: 2
#     Edge 91, Type (0, 1), BuildingBlock: XUDNAN_clean_linker_2, # of connection points: 2
#     Edge 92, Type (0, 1), BuildingBlock: XUDNAN_clean_linker_2, # of connection points: 2
#     Edge 93, Type (0, 1), BuildingBlock: XUDNAN_clean_linker_2, # of connection points: 2
#     Edge 94, Type (0, 1), BuildingBlock: XUDNAN_clean_linker_2, # of connection points: 2
#     Edge 95, Type (0, 1), BuildingBlock: XUDNAN_clean_linker_2, # of connection points: 2
#     Edge 96, Type (0, 1), BuildingBlock: XUDNAN_clean_linker_2, # of connection points: 2
#     Edge 97, Type (0, 1), BuildingBlock: XUDNAN_clean_linker_2, # of connection points: 2
#     Edge 98, Type (0, 1), BuildingBlock: XUDNAN_clean_linker_2, # of connection points: 2
#     Edge 99, Type (0, 1), BuildingBlock: XUDNAN_clean_linker_2, # of connection points: 2
#     Edge 100, Type (0, 1), BuildingBlock: XUDNAN_clean_linker_2, # of connection points: 2
#     Edge 101, Type (0, 1), BuildingBlock: XUDNAN_clean_linker_2, # of connection points: 2
#     Edge 102, Type (0, 1), BuildingBlock: XUDNAN_clean_linker_2, # of connection points: 2
#     Edge 103, Type (0, 1), BuildingBlock: XUDNAN_clean_linker_2, # of connection points: 2
#     Edge 104, Type (0, 1), BuildingBlock: XUDNAN_clean_linker_2, # of connection points: 2
#     Edge 105, Type (0, 1), BuildingBlock: XUDNAN_clean_linker_2, # of connection points: 2
#     Edge 106, Type (0, 1), BuildingBlock: XUDNAN_clean_linker_2, # of connection points: 2
#     Edge 107, Type (0, 1), BuildingBlock: XUDNAN_clean_linker_2, # of connection points: 2
# Relax obj value: 0.068
# Max RMSD: 0.101
# Mean RMSD: 0.096
data_MOF--net-ptr--node1-GALJAG_clean_sbu_0--node2-KUFVIS_clean_linker_0--edge1-XUDNAN_clean_linker_2
_symmetry_space_group_name_H-M    P1
_symmetry_Int_Tables_number       1
_symmetry_cell_setting            triclinic
loop_
_symmetry_equiv_pos_as_xyz
'x, y, z'
_cell_length_a     77.887775
_cell_length_b     78.002521
_cell_length_c     51.410801
_cell_angle_alpha  89.994619
_cell_angle_beta   90.111907
_cell_angle_gamma 120.07008
loop_
_atom_site_label
_atom_site_type_symbol
_atom_site_fract_x
_atom_site_fract_y
_atom_site_fract_z
_atom_type_partial_charge
In0 In 0.01028 0.36715 0.02191 0.0
O1 O 0.9902 0.37017 0.05178 0.0
O2 O 0.0212 0.38663 0.05863 0.0
C3 C 0.97997 0.33191 0.00478 0.0
C4 C 0.04006 0.3596 0.03389 0.0
C5 C 0.01383 0.39454 0.98597 0.0
O6 O 0.98051 0.33846 0.02741 0.0
O7 O 0.99468 0.34311 0.99073 0.0
O8 O 1.00284 0.38968 0.00563 0.0
O9 O 0.02326 0.38535 0.98371 0.0
C10 C 1.00413 0.38275 0.06581 0.0
O11 O 0.04336 0.37669 0.02787 0.0
O12 O 0.02196 0.34653 0.03399 0.0
In13 In 0.65748 0.65583 0.01378 0.0
O14 O 0.65194 0.63929 0.05356 0.0
O15 O 0.62829 0.62976 0.02674 0.0
C16 C 0.69505 0.66188 0.00745 0.0
C17 C 0.6596 0.69074 0.02654 0.0
C18 C 0.63656 0.64126 0.96896 0.0
O19 O 0.6797 0.645 0.00606 0.0
O20 O 0.69156 0.67562 0.01277 0.0
O21 O 0.63317 0.65139 0.98507 0.0
O22 O 0.65149 0.63966 0.97444 0.0
C23 C 0.63389 0.62722 0.04858 0.0
O24 O 0.66328 0.68708 0.00393 0.0
O25 O 0.65514 0.67696 0.04274 0.0
In26 In 0.37043 0.00622 0.0063 0.0
O27 O 0.38304 0.03986 0.01054 0.0
O28 O 0.35515 0.02325 0.99198 0.0
C29 C 0.3957 1.00548 0.0421 0.0
C30 C 0.38673 1.0008 0.96264 0.0
C31 C 0.33416 0.97647 0.02152 0.0
O32 O 0.38705 0.01535 0.04569 0.0
O33 O 0.39159 0.9963 0.0208 0.0
O34 O 0.3383 0.98148 0.998 0.0
O35 O 0.34799 0.98681 0.03724 0.0
C36 C 0.36875 0.0401 0.99928 0.0
O37 O 0.37306 0.98664 0.97514 0.0
O38 O 0.39147 0.01772 0.97134 0.0
In39 In 0.01422 0.6533 0.01774 0.0
O40 O 0.02157 0.64414 0.9786 0.0
O41 O 0.99773 0.62225 0.00118 0.0
C42 C 0.04516 0.69066 0.02583 0.0
C43 C 0.98252 0.65766 0.00689 0.0
C44 C 0.0196 0.6327 0.05606 0.0
O45 O 0.04493 0.6799 0.00729 0.0
O46 O 0.02969 0.68281 0.03957 0.0
O47 O 1.00477 0.63522 0.05571 0.0
O48 O 0.03179 0.64115 0.03786 0.0
C49 C 1.00804 0.62617 0.98081 0.0
O50 O 0.98648 0.65484 0.02982 0.0
O51 O 0.99474 0.65883 0.98993 0.0
In52 In 0.36608 0.36632 0.01252 0.0
O53 O 0.36938 0.38617 0.97811 0.0
O54 O 0.39396 0.3824 0.98748 0.0
C55 C 0.32841 0.35847 0.02201 0.0
C56 C 0.36214 0.33031 1.00059 0.0
C57 C 0.38929 0.39169 0.05061 0.0
O58 O 0.33778 0.36714 0.00169 0.0
O59 O 0.33769 0.35314 0.03703 0.0
O60 O 0.3886 0.37536 0.04675 0.0
O61 O 0.37794 0.39456 0.03622 0.0
C62 C 0.38711 0.39083 0.97328 0.0
O63 O 0.36068 0.33518 0.02353 0.0
O64 O 0.36543 0.34339 0.98382 0.0
In65 In 0.65912 0.01655 0.0175 0.0
O66 O 0.65686 0.03489 0.05054 0.0
O67 O 0.63462 1.00456 0.04847 0.0
C68 C 0.69542 0.04647 0.00243 0.0
C69 C 0.66284 0.98396 0.02704 0.0
C70 C 0.6343 0.01816 0.98152 0.0
O71 O 0.68202 0.03553 0.98653 0.0
O72 O 0.69084 0.04198 0.02595 0.0
O73 O 0.64108 0.0065 0.97903 0.0
O74 O 0.64009 0.02871 0.00173 0.0
C75 C 0.64097 0.021 0.05983 0.0
O76 O 0.65055 0.98381 0.01084 0.0
O77 O 0.67333 1.00048 0.038 0.0
In78 In 0.68292 0.70192 0.34089 0.0
O79 O 0.6722 0.70734 0.38047 0.0
O80 O 0.68921 0.73186 0.35564 0.0
C81 C 0.64957 0.66615 0.33169 0.0
C82 C 0.71275 0.69537 0.35676 0.0
C83 C 0.68956 0.72534 0.29842 0.0
O84 O 0.64964 0.67911 0.34644 0.0
O85 O 0.66627 0.67107 0.32199 0.0
O86 O 0.70342 0.72562 0.31153 0.0
O87 O 0.67242 0.71255 0.30587 0.0
C88 C 0.68001 0.72581 0.37683 0.0
O89 O 0.70443 0.70184 0.37161 0.0
O90 O 0.70598 0.69196 0.33388 0.0
In91 In 0.32055 0.98364 0.34757 0.0
O92 O 0.31496 0.95724 0.37344 0.0
O93 O 0.30263 0.97466 0.38553 0.0
C94 C 0.35664 0.98795 0.33631 0.0
C95 C 0.32711 0.02079 0.35737 0.0
C96 C 0.29374 0.96674 0.308 0.0
O97 O 0.34219 0.98057 0.32065 0.0
O98 O 0.35298 0.99316 0.35791 0.0
O99 O 0.30363 0.9852 0.31154 0.0
O100 O 0.29747 0.95692 0.32411 0.0
C101 C 0.30435 0.95969 0.3898 0.0
O102 O 0.3391 0.01765 0.34463 0.0
O103 O 0.31184 1.00527 0.36501 0.0
In104 In 0.03903 0.34584 0.35529 0.0
O105 O 0.03803 0.36816 0.32762 0.0
O106 O 0.03054 0.36946 0.3668 0.0
C107 C 0.06202 0.34835 0.39612 0.0
C108 C 0.06505 0.34645 0.3198 0.0
C109 C 1.00299 0.31281 0.36316 0.0
O110 O 0.06073 0.36301 0.38815 0.0
O111 O 0.05122 0.33233 0.38412 0.0
O112 O 0.00942 0.31925 0.34061 0.0
O113 O 0.01439 0.32317 0.38127 0.0
C114 C 0.03325 0.37682 0.34428 0.0
O115 O 0.04681 0.33354 0.31885 0.0
O116 O 0.06975 0.35859 0.33823 0.0
In117 In 0.67655 0.98559 0.353 0.0
O118 O 0.68618 0.97802 0.31381 0.0
O119 O 0.66284 0.95493 0.33505 0.0
C120 C 0.7081 0.02216 0.36302 0.0
C121 C 0.64589 0.99176 0.34192 0.0
C122 C 0.6767 0.96405 0.39423 0.0
O123 O 0.70836 0.01088 0.34557 0.0
O124 O 0.69193 0.01505 0.37532 0.0
O125 O 0.66133 0.96393 0.38625 0.0
O126 O 0.69239 0.97584 0.3823 0.0
C127 C 0.67368 0.95973 0.31524 0.0
O128 O 0.64669 0.98332 0.36242 0.0
O129 O 0.66077 0.9976 0.32726 0.0
In130 In 0.03648 0.70284 0.35076 0.0
O131 O 0.0427 0.72466 0.31779 0.0
O132 O 0.06394 0.71554 0.32461 0.0
C133 C 0.99854 0.69476 0.35827 0.0
C134 C 0.03171 0.66655 0.33958 0.0
C135 C 0.05895 0.72838 0.3892 0.0
O136 O 1.00857 0.70394 0.33858 0.0
O137 O 1.00734 0.68912 0.37366 0.0
O138 O 0.05822 0.71197 0.38595 0.0
O139 O 0.04805 0.73127 0.37395 0.0
C140 C 0.05916 0.7263 0.31168 0.0
O141 O 0.03233 0.67239 0.36267 0.0
O142 O 0.03333 0.67882 0.32239 0.0
In143 In 0.32244 0.34394 0.35018 0.0
O144 O 0.32981 0.31962 0.33901 0.0
O145 O 0.32107 0.32028 0.37783 0.0
C146 C 0.29606 0.33654 0.31109 0.0
C147 C 0.30516 0.35313 0.38982 0.0
C148 C 0.35955 0.37371 0.33682 0.0
O149 O 0.29784 0.32301 0.322 0.0
O150 O 0.3079 0.35374 0.31934 0.0
O151 O 0.3443 0.36868 0.32316 0.0
O152 O 0.35628 0.36366 0.35735 0.0
C153 C 0.3262 0.31176 0.36131 0.0
O154 O 0.32305 0.36421 0.38344 0.0
O155 O 0.29623 0.33751 0.37659 0.0
In156 In 0.3476 0.03737 0.68258 0.0
O157 O 0.37289 0.0404 0.70891 0.0
O158 O 0.37405 0.03347 0.66952 0.0
C159 C 0.34822 0.05697 0.63843 0.0
C160 C 0.33853 0.05459 0.7222 0.0
C161 C 0.31523 1.00054 0.67624 0.0
O162 O 0.34119 0.03852 0.63955 0.0
O163 O 0.35646 0.06601 0.65916 0.0
O164 O 0.31571 0.01632 0.66956 0.0
O165 O 0.33094 1.00319 0.68717 0.0
C166 C 0.38214 0.03686 0.69166 0.0
O167 O 0.32953 0.03609 0.71859 0.0
O168 O 0.35216 0.06434 0.70606 0.0
In169 In 0.99079 0.32301 0.67257 0.0
O170 O 0.99746 0.35492 0.66549 0.0
O171 O 0.99142 0.34385 0.70423 0.0
C172 C 0.97002 0.30848 0.62761 0.0
C173 C 0.96442 0.29682 0.70738 0.0
C174 C 0.02778 0.32734 0.666 0.0
O175 O 0.97199 0.32386 0.63852 0.0
O176 O 0.97964 0.30137 0.63832 0.0
O177 O 0.01207 0.31072 0.66606 0.0
O178 O 0.02496 0.3417 0.66975 0.0
C179 C 0.99538 0.35813 0.68909 0.0
O180 O 0.98295 0.30445 0.7106 0.0
O181 O 0.95963 0.30248 0.68714 0.0
In182 In 0.70231 0.67457 0.68577 0.0
O183 O 0.70193 0.70315 0.6961 0.0
O184 O 0.69964 0.69475 0.65623 0.0
C185 C 0.7202 0.66811 0.72675 0.0
C186 C 0.72955 0.67873 0.65023 0.0
C187 C 0.66389 0.64528 0.69075 0.0
O188 O 0.71929 0.68382 0.72494 0.0
O189 O 0.71133 0.65572 0.70888 0.0
O190 O 0.67656 0.64284 0.67859 0.0
O191 O 0.67037 0.66246 0.69978 0.0
C192 C 0.70051 0.70723 0.67261 0.0
O193 O 0.71122 0.66656 0.64698 0.0
O194 O 0.73378 0.68876 0.67091 0.0
In195 In 0.35333 0.31887 0.676 0.0
O196 O 0.36793 0.31949 0.63721 0.0
O197 O 0.34309 0.29224 0.64886 0.0
C198 C 0.38349 0.35508 0.69072 0.0
C199 C 0.31976 0.32065 0.66593 0.0
C200 C 0.35681 0.29604 0.71321 0.0
O201 O 0.38423 0.34598 0.67088 0.0
O202 O 0.36731 0.34615 0.70302 0.0
O203 O 0.34463 0.30218 0.7153 0.0
O204 O 0.36721 0.30174 0.69295 0.0
C205 C 0.35669 0.30131 0.6324 0.0
O206 O 0.31973 0.30705 0.67924 0.0
O207 O 0.3367 0.33346 0.65786 0.0
In208 In 0.70755 0.03094 0.68345 0.0
O209 O 0.71485 0.04885 0.64486 0.0
O210 O 0.73786 0.0472 0.66453 0.0
C211 C 0.67297 0.02983 0.69532 0.0
C212 C 0.69831 0.9936 0.66873 0.0
C213 C 0.72904 0.04853 0.72683 0.0
O214 O 0.68387 0.0399 0.67656 0.0
O215 O 0.67959 0.02052 0.70808 0.0
O216 O 0.72184 0.03029 0.72218 0.0
O217 O 0.72447 0.05758 0.71039 0.0
C218 C 0.73305 0.05403 0.64553 0.0
O219 O 0.71454 1.00568 0.67924 0.0
O220 O 0.68667 1.00023 0.66548 0.0
In221 In 0.99103 0.67801 0.68547 0.0
O222 O 0.98401 0.64552 0.68619 0.0
O223 O 0.00914 0.66681 0.70741 0.0
C224 C 0.96448 0.66839 0.64563 0.0
C225 C 0.97396 0.68767 0.72502 0.0
C226 C 0.02795 0.70659 0.67039 0.0
O227 O 0.96062 0.65841 0.66622 0.0
O228 O 0.98204 0.68265 0.64445 0.0
O229 O 0.01696 0.71038 0.68444 0.0
O230 O 0.0203 0.68864 0.66378 0.0
C231 C 0.99864 0.64896 0.70045 0.0
O232 O 0.98008 0.69759 0.70437 0.0
O233 O 0.97741 0.67355 0.72643 0.0
H234 H 0.23728 0.34124 0.14837 0.0
H235 H 0.19503 0.34914 0.10382 0.0
H236 H 0.18489 0.33265 0.18546 0.0
H237 H 0.17031 0.34938 0.18703 0.0
H238 H 0.12268 0.35094 0.14839 0.0
H239 H 0.16337 0.3413 0.10335 0.0
C240 C 0.22326 0.341 0.14698 0.0
C241 C 0.2119 0.33715 0.16934 0.0
C242 C 0.21675 0.34413 0.12294 0.0
C243 C 0.1993 0.34551 0.12211 0.0
C244 C 0.18761 0.34216 0.14484 0.0
C245 C 0.19378 0.33681 0.16801 0.0
C246 C 0.16947 0.34467 0.14512 0.0
C247 C 0.16254 0.34799 0.16906 0.0
C248 C 0.1453 0.34941 0.17047 0.0
C249 C 0.13567 0.34924 0.1475 0.0
C250 C 0.14242 0.34688 0.12332 0.0
C251 C 0.15893 0.34399 0.12212 0.0
H252 H 0.67293 0.90247 0.14595 0.0
H253 H 0.67792 0.8594 0.09946 0.0
H254 H 0.67221 0.85337 0.18333 0.0
H255 H 0.68962 0.83891 0.17968 0.0
H256 H 0.67742 0.78519 0.14281 0.0
H257 H 0.66545 0.82591 0.10119 0.0
C258 C 0.67418 0.88926 0.1446 0.0
C259 C 0.67344 0.8792 0.16738 0.0
C260 C 0.67562 0.88226 0.12007 0.0
C261 C 0.67639 0.86452 0.1184 0.0
C262 C 0.6757 0.85387 0.14127 0.0
C263 C 0.67366 0.86135 0.16553 0.0
C264 C 0.67706 0.83511 0.14054 0.0
C265 C 0.68394 0.82942 0.16278 0.0
C266 C 0.68323 0.81112 0.16381 0.0
C267 C 0.6771 0.79894 0.14201 0.0
C268 C 0.67092 0.80414 0.11925 0.0
C269 C 0.67087 0.82228 0.11851 0.0
H270 H 0.23701 0.90707 0.142 0.0
H271 H 0.20098 0.85085 0.10448 0.0
H272 H 0.18574 0.86292 0.18098 0.0
H273 H 0.17245 0.83155 0.18654 0.0
H274 H 0.12548 0.78065 0.15002 0.0
H275 H 0.16791 0.82838 0.10232 0.0
C276 C 0.22416 0.89226 0.14203 0.0
C277 C 0.21205 0.88593 0.16389 0.0
C278 C 0.22038 0.87978 0.12059 0.0
C279 C 0.20354 0.86054 0.12088 0.0
C280 C 0.19069 0.85375 0.14279 0.0
C281 C 0.19524 0.86697 0.1641 0.0
C282 C 0.17291 0.83299 0.14412 0.0
C283 C 0.16522 0.82418 0.16863 0.0
C284 C 0.14798 0.80564 0.1707 0.0
C285 C 0.13875 0.79506 0.14819 0.0
C286 C 0.14576 0.80307 0.12344 0.0
C287 C 0.16294 0.82203 0.12144 0.0
H288 H 0.34118 0.11316 0.88983 0.0
H289 H 0.35987 0.16849 0.92891 0.0
H290 H 0.33618 0.15825 0.8502 0.0
H291 H 0.35549 0.18956 0.84565 0.0
H292 H 0.35646 0.23945 0.88058 0.0
H293 H 0.3513 0.19244 0.92953 0.0
C294 C 0.34284 0.12783 0.89012 0.0
C295 C 0.33832 0.13475 0.86769 0.0
C296 C 0.35009 0.13958 0.9125 0.0
C297 C 0.35354 0.15923 0.91192 0.0
C298 C 0.34884 0.16668 0.88934 0.0
C299 C 0.34085 0.15383 0.86751 0.0
C300 C 0.3522 0.1876 0.88784 0.0
C301 C 0.35457 0.19669 0.86317 0.0
C302 C 0.35543 0.21499 0.8605 0.0
C303 C 0.35559 0.22522 0.8828 0.0
C304 C 0.35513 0.21781 0.9078 0.0
C305 C 0.35272 0.1986 0.91029 0.0
H306 H 0.7921 0.11606 0.88403 0.0
H307 H 0.82952 0.17237 0.92055 0.0
H308 H 0.8435 0.15909 0.84396 0.0
H309 H 0.85694 0.19085 0.83834 0.0
H310 H 0.90411 0.24189 0.87464 0.0
H311 H 0.86308 0.19331 0.92225 0.0
C312 C 0.80516 0.13074 0.8837 0.0
C313 C 0.8171 0.13658 0.8617 0.0
C314 C 0.80939 0.14348 0.90491 0.0
C315 C 0.82657 0.16245 0.90429 0.0
C316 C 0.83927 0.16874 0.88219 0.0
C317 C 0.8342 0.15532 0.86102 0.0
C318 C 0.85739 0.18922 0.88058 0.0
C319 C 0.86464 0.1982 0.85601 0.0
C320 C 0.882 0.21674 0.85378 0.0
C321 C 0.89154 0.22702 0.8764 0.0
C322 C 0.88497 0.21881 0.90116 0.0
C323 C 0.86785 0.19985 0.90318 0.0
H324 H 0.78334 0.66875 0.89047 0.0
H325 H 0.83411 0.67659 0.93326 0.0
H326 H 0.83066 0.66826 0.84948 0.0
H327 H 0.86275 0.68537 0.8507 0.0
H328 H 0.90775 0.67852 0.8882 0.0
H329 H 0.85486 0.66436 0.93048 0.0
C330 C 0.79785 0.66996 0.89074 0.0
C331 C 0.80645 0.66917 0.86736 0.0
C332 C 0.80739 0.67198 0.91453 0.0
C333 C 0.82655 0.67418 0.9148 0.0
C334 C 0.83561 0.67309 0.89129 0.0
C335 C 0.82487 0.67001 0.86776 0.0
C336 C 0.85595 0.67494 0.89088 0.0
C337 C 0.86769 0.68108 0.86787 0.0
C338 C 0.88587 0.68138 0.86651 0.0
C339 C 0.89316 0.67708 0.88885 0.0
C340 C 0.88213 0.67081 0.91185 0.0
C341 C 0.86354 0.66979 0.91288 0.0
H342 H 0.90646 0.67541 0.48028 0.0
H343 H 0.86387 0.68374 0.4377 0.0
H344 H 0.85565 0.66854 0.51988 0.0
H345 H 0.83827 0.68181 0.52197 0.0
H346 H 0.79016 0.68246 0.4841 0.0
H347 H 0.83388 0.67891 0.43761 0.0
C348 C 0.89265 0.67563 0.47976 0.0
C349 C 0.88206 0.67241 0.50275 0.0
C350 C 0.88572 0.67874 0.45607 0.0
C351 C 0.86839 0.68029 0.4559 0.0
C352 C 0.85714 0.6772 0.47901 0.0
C353 C 0.86398 0.6723 0.50204 0.0
C354 C 0.8386 0.67917 0.47965 0.0
C355 C 0.83083 0.68087 0.50389 0.0
C356 C 0.81312 0.68135 0.50554 0.0
C357 C 0.80366 0.68171 0.48272 0.0
C358 C 0.81151 0.68179 0.45822 0.0
C359 C 0.82856 0.67974 0.45667 0.0
H360 H 0.35181 0.23719 0.47357 0.0
H361 H 0.33274 0.1824 0.43304 0.0
H362 H 0.35824 0.19181 0.51058 0.0
H363 H 0.33809 0.15942 0.5139 0.0
H364 H 0.33479 0.11011 0.47337 0.0
H365 H 0.34508 0.16131 0.4299 0.0
C366 C 0.34994 0.22243 0.47284 0.0
C367 C 0.35548 0.2155 0.49437 0.0
C368 C 0.34168 0.21068 0.45073 0.0
C369 C 0.33951 0.19157 0.45 0.0
C370 C 0.34525 0.18417 0.47167 0.0
C371 C 0.35334 0.19658 0.49378 0.0
C372 C 0.34236 0.16351 0.47185 0.0
C373 C 0.33916 0.15307 0.4957 0.0
C374 C 0.33648 0.13389 0.49619 0.0
C375 C 0.33669 0.12488 0.47288 0.0
C376 C 0.33923 0.13437 0.44897 0.0
C377 C 0.34253 0.15387 0.44845 0.0
H378 H 0.90606 0.23771 0.47361 0.0
H379 H 0.86595 0.18354 0.43409 0.0
H380 H 0.85317 0.19578 0.51199 0.0
H381 H 0.83936 0.16366 0.51637 0.0
H382 H 0.78978 0.11497 0.47969 0.0
H383 H 0.83201 0.16323 0.43268 0.0
C384 C 0.89242 0.22349 0.47324 0.0
C385 C 0.88041 0.21762 0.49515 0.0
C386 C 0.88739 0.21146 0.45111 0.0
C387 C 0.86949 0.19302 0.45097 0.0
C388 C 0.85681 0.18666 0.47311 0.0
C389 C 0.86247 0.19959 0.49492 0.0
C390 C 0.83819 0.16648 0.47433 0.0
C391 C 0.83111 0.15702 0.49872 0.0
C392 C 0.81329 0.13887 0.5008 0.0
C393 C 0.80293 0.1295 0.47817 0.0
C394 C 0.80952 0.138 0.45359 0.0
C395 C 0.8272 0.15653 0.45167 0.0
H396 H 0.01695 0.45253 0.22782 0.0
H397 H 0.02756 0.50535 0.26761 0.0
H398 H 1.0042 0.49286 0.18868 0.0
H399 H 0.01986 0.52425 0.18389 0.0
H400 H 0.01837 0.5727 0.21929 0.0
H401 H 0.01801 0.52785 0.26805 0.0
C402 C 0.01701 0.46648 0.22791 0.0
C403 C 0.01102 0.4721 0.20556 0.0
C404 C 0.02257 0.4781 0.25047 0.0
C405 C 0.02246 0.49617 0.25039 0.0
C406 C 0.01648 0.50243 0.22782 0.0
C407 C 0.00992 0.4895 0.20591 0.0
C408 C 0.01762 0.52244 0.22626 0.0
C409 C 0.01869 0.53107 0.20156 0.0
C410 C 0.01837 0.54879 0.19906 0.0
C411 C 0.01835 0.55886 0.2214 0.0
C412 C 0.01938 0.5521 0.24628 0.0
C413 C 0.01818 0.53343 0.24875 0.0
H414 H 0.45143 0.4518 0.21472 0.0
H415 H 0.49909 0.49637 0.26055 0.0
H416 H 0.49882 0.50089 0.17633 0.0
H417 H 0.53017 0.51602 0.17882 0.0
H418 H 0.57229 0.57058 0.21413 0.0
H419 H 0.52314 0.5281 0.2592 0.0
C420 C 0.46559 0.46547 0.21589 0.0
C421 C 0.47482 0.47516 0.19296 0.0
C422 C 0.47366 0.47347 0.24029 0.0
C423 C 0.4926 0.49083 0.24162 0.0
C424 C 0.50266 0.50097 0.21849 0.0
C425 C 0.49278 0.49316 0.1944 0.0
C426 C 0.52299 0.51971 0.21863 0.0
C427 C 0.53455 0.52568 0.19553 0.0
C428 C 0.55197 0.5442 0.19335 0.0
C429 C 0.55917 0.55605 0.21553 0.0
C430 C 0.54956 0.54986 0.23959 0.0
C431 C 0.53102 0.53208 0.24092 0.0
H432 H 0.44831 1.00116 0.21338 0.0
H433 H 0.49628 0.00713 0.26107 0.0
H434 H 0.49886 1.00455 0.17695 0.0
H435 H 0.52994 0.02099 0.18058 0.0
H436 H 0.57329 0.01242 0.21883 0.0
H437 H 0.52117 1.00125 0.26108 0.0
C438 C 0.46288 1.00267 0.21508 0.0
C439 C 0.47319 1.00362 0.19249 0.0
C440 C 0.4707 1.00309 0.23981 0.0
C441 C 0.4901 0.00596 0.24188 0.0
C442 C 0.50106 0.00698 0.21923 0.0
C443 C 0.49179 1.005 0.19473 0.0
C444 C 0.52182 0.00975 0.22041 0.0
C445 C 0.53412 0.01622 0.19797 0.0
C446 C 0.55223 0.01656 0.1974 0.0
C447 C 0.55924 0.01215 0.21975 0.0
C448 C 0.54875 0.00778 0.2432 0.0
C449 C 0.52964 0.00578 0.24328 0.0
H450 H 0.5803 0.02154 0.81181 0.0
H451 H 0.53322 0.01687 0.76311 0.0
H452 H 0.5309 0.02175 0.84691 0.0
H453 H 0.49912 1.00379 0.8413 0.0
H454 H 0.45819 0.01639 0.8033 0.0
H455 H 0.5122 0.02978 0.76396 0.0
C456 C 0.56584 0.02029 0.80981 0.0
C457 C 0.55594 0.02068 0.83218 0.0
C458 C 0.55793 0.01899 0.7849 0.0
C459 C 0.53948 0.01829 0.78234 0.0
C460 C 0.529 0.01881 0.80469 0.0
C461 C 0.53791 0.02055 0.82944 0.0
C462 C 0.50882 0.01729 0.80292 0.0
C463 C 0.49565 0.00976 0.82442 0.0
C464 C 0.47794 0.01028 0.82483 0.0
C465 C 0.47233 0.0168 0.80299 0.0
C466 C 0.48431 0.02362 0.78084 0.0
C467 C 0.50266 0.02389 0.78077 0.0
H468 H 1.00307 0.56474 0.81161 0.0
H469 H 0.01353 0.52324 0.76977 0.0
H470 H 1.00187 0.51665 0.85276 0.0
H471 H 0.02083 0.50383 0.85236 0.0
H472 H 0.01212 0.45008 0.81869 0.0
H473 H 1.00179 0.4898 0.77221 0.0
C474 C 1.00438 0.55152 0.81156 0.0
C475 C 1.003 0.54188 0.83497 0.0
C476 C 1.00769 0.54467 0.78805 0.0
C477 C 0.01007 0.52785 0.78793 0.0
C478 C 1.00817 0.51733 0.81135 0.0
C479 C 1.00404 0.52442 0.83459 0.0
C480 C 0.01057 0.4992 0.81225 0.0
C481 C 0.01628 0.49397 0.83581 0.0
C482 C 0.0161 0.47595 0.83864 0.0
C483 C 0.01197 0.46382 0.81679 0.0
C484 C 1.0072 0.46881 0.79263 0.0
C485 C 1.00636 0.48647 0.7905 0.0
H486 H 0.5771 0.56845 0.80823 0.0
H487 H 0.52781 0.52146 0.76816 0.0
H488 H 0.53015 0.52336 0.85272 0.0
H489 H 0.49935 0.5039 0.8524 0.0
H490 H 0.45671 0.44913 0.81896 0.0
H491 H 0.50503 0.49065 0.77172 0.0
C492 C 0.56315 0.55453 0.80896 0.0
C493 C 0.55415 0.54705 0.8329 0.0
C494 C 0.5538 0.54516 0.78576 0.0
C495 C 0.53502 0.5278 0.78647 0.0
C496 C 0.52582 0.51913 0.8106 0.0
C497 C 0.53597 0.52916 0.83369 0.0
C498 C 0.50589 0.49999 0.81206 0.0
C499 C 0.49485 0.4943 0.83562 0.0
C500 C 0.47756 0.47584 0.83808 0.0
C501 C 0.47014 0.46337 0.81664 0.0
C502 C 0.4793 0.46908 0.79231 0.0
C503 C 0.49761 0.48701 0.7903 0.0
H504 H 0.68393 0.78273 0.54537 0.0
H505 H 0.69516 0.83327 0.59133 0.0
H506 H 0.67258 0.82623 0.51269 0.0
H507 H 0.68913 0.85765 0.51063 0.0
H508 H 0.69054 0.90537 0.55263 0.0
H509 H 0.68454 0.85524 0.59491 0.0
C510 C 0.68388 0.79651 0.54736 0.0
C511 C 0.67882 0.80402 0.52582 0.0
C512 C 0.68929 0.80664 0.57126 0.0
C513 C 0.68994 0.82504 0.57334 0.0
C514 C 0.68465 0.83298 0.55196 0.0
C515 C 0.67814 0.82156 0.52884 0.0
C516 C 0.68668 0.85336 0.55279 0.0
C517 C 0.68849 0.86368 0.52928 0.0
C518 C 0.68936 0.88207 0.52914 0.0
C519 C 0.69013 0.89125 0.55269 0.0
C520 C 0.68872 0.88179 0.57635 0.0
C521 C 0.68657 0.8627 0.57648 0.0
H522 H 0.11914 0.78783 0.55577 0.0
H523 H 0.1685 0.83085 0.60054 0.0
H524 H 0.16588 0.83785 0.51708 0.0
H525 H 0.1979 0.85347 0.5192 0.0
H526 H 0.24008 0.90677 0.55725 0.0
H527 H 0.18937 0.8638 0.59991 0.0
C528 C 0.13335 0.80147 0.55657 0.0
C529 C 0.14201 0.81168 0.53363 0.0
C530 C 0.14253 0.80858 0.58065 0.0
C531 C 0.16124 0.82607 0.58184 0.0
C532 C 0.17035 0.83706 0.55889 0.0
C533 C 0.16003 0.82973 0.53497 0.0
C534 C 0.19035 0.85604 0.55934 0.0
C535 C 0.20219 0.86255 0.53652 0.0
C536 C 0.21967 0.88107 0.53548 0.0
C537 C 0.22621 0.89276 0.55784 0.0
C538 C 0.21571 0.88641 0.58123 0.0
C539 C 0.19769 0.86813 0.58195 0.0
H540 H 0.11861 0.3329 0.55448 0.0
H541 H 0.16753 0.3385 0.59975 0.0
H542 H 0.16933 0.33905 0.51521 0.0
H543 H 0.20044 0.35526 0.51874 0.0
H544 H 0.24599 0.34917 0.55516 0.0
H545 H 0.1919 0.33117 0.59706 0.0
C546 C 0.13302 0.33392 0.55544 0.0
C547 C 0.14352 0.33651 0.53252 0.0
C548 C 0.14137 0.33425 0.57968 0.0
C549 C 0.16091 0.33731 0.58085 0.0
C550 C 0.1717 0.33909 0.55764 0.0
C551 C 0.16231 0.33827 0.53359 0.0
C552 C 0.19271 0.34238 0.55787 0.0
C553 C 0.20507 0.35035 0.53559 0.0
C554 C 0.224 0.35246 0.53465 0.0
C555 C 0.23141 0.34773 0.55639 0.0
C556 C 0.22028 0.34064 0.57924 0.0
C557 C 0.20069 0.33746 0.57973 0.0
H558 H 0.03088 0.40763 0.10231 0.0
H559 H 0.97013 0.38357 0.07599 0.0
H560 H 0.96554 0.40489 0.10744 0.0
H561 H 0.02069 0.41063 0.17078 0.0
H562 H 0.04385 0.43324 0.17602 0.0
H563 H 0.04212 0.41592 0.15155 0.0
H564 H 0.05486 0.44381 0.11697 0.0
H565 H 0.05636 0.46114 0.14127 0.0
H566 H 0.04189 0.45729 0.11219 0.0
H567 H 0.96817 0.43034 0.14065 0.0
H568 H 0.97671 0.45465 0.17653 0.0
H569 H 0.03513 0.46095 0.18193 0.0
C570 C 0.01655 0.4067 0.10336 0.0
C571 C 1.00086 0.39392 0.08669 0.0
C572 C 0.98234 0.39315 0.08867 0.0
C573 C 0.97962 0.40532 0.10636 0.0
C574 C 0.9955 0.41804 0.12217 0.0
C575 C 0.01351 0.41855 0.12115 0.0
C576 C 0.02806 0.43319 0.14066 0.0
C577 C 0.03402 0.42261 0.16095 0.0
C578 C 0.04637 0.44984 0.12694 0.0
C579 C 0.01551 0.44092 0.15269 0.0
C580 C 0.99683 0.43219 0.14162 0.0
C581 C 0.98274 0.4372 0.14953 0.0
C582 C 0.98772 0.4511 0.16974 0.0
C583 C 1.00653 0.45961 0.18191 0.0
C584 C 0.02061 0.45461 0.17294 0.0
H585 H 0.63994 0.61934 0.09953 0.0
H586 H 0.59572 0.59966 0.03808 0.0
H587 H 0.571 0.5745 0.06725 0.0
H588 H 0.62246 0.56961 0.12788 0.0
H589 H 0.62721 0.57875 0.16084 0.0
H590 H 0.64216 0.59447 0.13463 0.0
H591 H 0.63345 0.62115 0.14846 0.0
H592 H 0.61849 0.60551 0.17465 0.0
H593 H 0.60777 0.61453 0.15106 0.0
H594 H 0.55014 0.55348 0.1036 0.0
H595 H 0.53452 0.53784 0.14507 0.0
H596 H 0.59217 0.56901 0.18309 0.0
C597 C 0.62514 0.60953 0.09217 0.0
C598 C 0.61983 0.6115 0.06646 0.0
C599 C 0.60021 0.5985 0.05765 0.0
C600 C 0.58602 0.58407 0.07406 0.0
C601 C 0.59158 0.58262 0.09931 0.0
C602 C 0.61067 0.59488 0.10838 0.0
C603 C 0.61234 0.59061 0.13681 0.0
C604 C 0.62691 0.5829 0.14023 0.0
C605 C 0.61836 0.60904 0.15374 0.0
C606 C 0.59115 0.57445 0.14231 0.0
C607 C 0.57949 0.57002 0.12034 0.0
C608 C 0.55918 0.55653 0.12087 0.0
C609 C 0.55045 0.54754 0.1446 0.0
C610 C 0.56197 0.55195 0.16764 0.0
C611 C 0.58274 0.56531 0.1661 0.0
H612 H 0.40672 0.02286 0.09063 0.0
H613 H 0.41511 0.98483 0.03678 0.0
H614 H 0.43684 0.98127 0.06855 0.0
H615 H 0.45711 0.04797 0.1168 0.0
H616 H 0.44925 0.04895 0.14945 0.0
H617 H 0.43484 0.04913 0.1221 0.0
H618 H 0.40368 0.01855 0.14086 0.0
H619 H 0.418 0.01825 0.16822 0.0
H620 H 0.40464 0.99645 0.14828 0.0
H621 H 0.45647 0.98053 0.10678 0.0
H622 H 0.47276 0.98288 0.14893 0.0
H623 H 0.45273 0.02229 0.17752 0.0
C624 C 0.41325 0.01391 0.08549 0.0
C625 C 0.40922 1.00414 0.06121 0.0
C626 C 0.41799 0.99248 0.05525 0.0
C627 C 0.43038 0.99037 0.07316 0.0
C628 C 0.43397 1.00007 0.09696 0.0
C629 C 0.42574 0.01167 0.10317 0.0
C630 C 0.43172 0.02015 0.13036 0.0
C631 C 0.44396 0.0429 0.12962 0.0
C632 C 0.41342 0.01291 0.14797 0.0
C633 C 0.44436 0.0113 0.1385 0.0
C634 C 0.44551 0.99981 0.11893 0.0
C635 C 0.45587 0.98966 0.12218 0.0
C636 C 0.46519 0.99119 0.14615 0.0
C637 C 0.46414 1.00282 0.16659 0.0
C638 C 0.4537 0.01313 0.16243 0.0
H639 H 0.41351 0.02854 0.92907 0.0
H640 H 0.386 0.9664 0.94976 0.0
H641 H 0.40767 0.9622 0.91841 0.0
H642 H 0.41831 0.02161 0.86016 0.0
H643 H 0.44167 0.04437 0.8574 0.0
H644 H 0.42383 0.04217 0.88135 0.0
H645 H 0.45045 0.0519 0.91744 0.0
H646 H 0.46827 0.05381 0.89365 0.0
H647 H 0.46276 0.03769 0.92131 0.0
H648 H 0.43368 0.96529 0.88567 0.0
H649 H 0.45876 0.97465 0.85061 0.0
H650 H 0.46816 0.03428 0.85101 0.0
C651 C 0.41191 0.014 0.92682 0.0
C652 C 0.39808 0.9978 0.94183 0.0
C653 C 0.39642 0.979 0.93832 0.0
C654 C 0.40877 0.9765 0.92071 0.0
C655 C 0.42256 0.9929 0.90658 0.0
C656 C 0.42394 0.0112 0.90914 0.0
C657 C 0.4396 0.02635 0.89126 0.0
C658 C 0.43029 0.03407 0.87136 0.0
C659 C 0.45625 0.04344 0.90686 0.0
C660 C 0.4469 0.01377 0.87833 0.0
C661 C 0.43708 0.99455 0.88754 0.0
C662 C 0.44142 0.9803 0.87829 0.0
C663 C 0.45575 0.98572 0.85858 0.0
C664 C 0.46534 1.00514 0.84832 0.0
C665 C 0.46104 0.01934 0.85867 0.0
H666 H 0.03059 0.40409 0.93665 0.0
H667 H 0.99991 0.41972 0.99404 0.0
H668 H 1.00033 0.44451 0.96414 0.0
H669 H 0.06174 0.45456 0.90992 0.0
H670 H 0.05955 0.44587 0.87692 0.0
H671 H 0.05853 0.43038 0.90359 0.0
H672 H 0.02457 0.40227 0.88699 0.0
H673 H 0.02551 0.41765 0.8603 0.0
H674 H 1.00455 0.40723 0.88201 0.0
H675 H 1.00151 0.46568 0.92741 0.0
H676 H 1.00247 0.48118 0.88543 0.0
H677 H 0.03352 0.45336 0.85135 0.0
C678 C 0.02425 0.41295 0.94299 0.0
C679 C 0.01527 0.40998 0.96775 0.0
C680 C 1.00686 0.42168 0.9752 0.0
C681 C 1.00709 0.4359 0.95838 0.0
C682 C 0.01582 0.43837 0.93407 0.0
C683 C 0.02425 0.42727 0.92628 0.0
C684 C 0.03156 0.43217 0.89841 0.0
C685 C 0.05419 0.44129 0.89714 0.0
C686 C 0.0209 0.41373 0.8809 0.0
C687 C 0.02549 0.44738 0.89171 0.0
C688 C 0.01661 0.45084 0.91268 0.0
C689 C 1.00873 0.46337 0.91093 0.0
C690 C 0.00953 0.47229 0.88694 0.0
C691 C 0.01818 0.46873 0.86484 0.0
C692 C 0.02667 0.4564 0.86764 0.0
H693 H 0.64143 0.6207 0.92873 0.0
H694 H 0.59875 0.63409 0.96351 0.0
H695 H 0.57281 0.61023 0.93392 0.0
H696 H 0.62243 0.61566 0.86203 0.0
H697 H 0.6272 0.59592 0.85405 0.0
H698 H 0.64249 0.61439 0.87768 0.0
H699 H 0.63452 0.58661 0.91125 0.0
H700 H 0.61891 0.56809 0.88787 0.0
H701 H 0.60902 0.56922 0.91909 0.0
H702 H 0.55085 0.58312 0.90301 0.0
H703 H 0.53554 0.55854 0.86759 0.0
H704 H 0.59259 0.56391 0.85086 0.0
C705 C 0.6267 0.61883 0.9298 0.0
C706 C 0.62212 0.62927 0.94843 0.0
C707 C 0.60266 0.62637 0.94929 0.0
C708 C 0.58776 0.61272 0.9327 0.0
C709 C 0.5926 0.60226 0.91506 0.0
C710 C 0.61168 0.60547 0.91304 0.0
C711 C 0.61297 0.59259 0.89189 0.0
C712 C 0.62711 0.60541 0.87012 0.0
C713 C 0.61922 0.57828 0.90321 0.0
C714 C 0.5916 0.58154 0.88257 0.0
C715 C 0.58005 0.58714 0.89648 0.0
C716 C 0.55977 0.57871 0.89184 0.0
C717 C 0.55116 0.56462 0.87189 0.0
C718 C 0.56286 0.55929 0.85661 0.0
C719 C 0.5833 0.56771 0.8623 0.0
H720 H 0.02679 0.6303 0.93384 0.0
H721 H 0.98137 0.58669 0.98448 0.0
H722 H 0.97553 0.56025 0.95334 0.0
H723 H 1.00174 0.60835 0.87353 0.0
H724 H 0.02417 0.61414 0.85639 0.0
H725 H 0.02498 0.62966 0.88286 0.0
H726 H 0.05169 0.62453 0.90593 0.0
H727 H 0.05093 0.60897 0.87955 0.0
H728 H 0.04668 0.59972 0.91243 0.0
H729 H 0.97464 0.53834 0.91664 0.0
H730 H 0.97808 0.52303 0.87624 0.0
H731 H 0.024 0.58082 0.84971 0.0
C732 C 0.01562 0.61519 0.93835 0.0
C733 C 1.00455 0.61057 0.96161 0.0
C734 C 0.99003 0.59061 0.96677 0.0
C735 C 0.98662 0.57545 0.94923 0.0
C736 C 0.9978 0.58046 0.92652 0.0
C737 C 0.01196 0.59985 0.92097 0.0
C738 C 0.02175 0.60125 0.89501 0.0
C739 C 0.01792 0.61411 0.87582 0.0
C740 C 0.04408 0.60908 0.89845 0.0
C741 C 0.01086 0.57967 0.88687 0.0
C742 C 0.99716 0.56788 0.90533 0.0
C743 C 0.98534 0.54743 0.90203 0.0
C744 C 0.98746 0.53884 0.87911 0.0
C745 C 1.00122 0.55071 0.85977 0.0
C746 C 0.01314 0.57136 0.86396 0.0
H747 H 0.42036 0.39582 0.94814 0.0
H748 H 0.38164 0.42059 0.95519 0.0
H749 H 0.40314 0.44759 0.92505 0.0
H750 H 0.46706 0.44196 0.94263 0.0
H751 H 0.47695 0.43261 0.91835 0.0
H752 H 0.45934 0.41597 0.94185 0.0
H753 H 0.43629 0.39391 0.9047 0.0
H754 H 0.45398 0.41029 0.88116 0.0
H755 H 0.42865 0.40496 0.87976 0.0
H756 H 0.42881 0.47182 0.89383 0.0
H757 H 0.4538 0.48848 0.85904 0.0
H758 H 0.47461 0.44694 0.8705 0.0
C759 C 0.41648 0.40699 0.94338 0.0
C760 C 0.39942 0.40622 0.95407 0.0
C761 C 0.39463 0.4209 0.94713 0.0
C762 C 0.40685 0.43638 0.93022 0.0
C763 C 0.42368 0.43684 0.92018 0.0
C764 C 0.42831 0.42232 0.92612 0.0
C765 C 0.44633 0.42534 0.91109 0.0
C766 C 0.46343 0.4292 0.92959 0.0
C767 C 0.44099 0.40758 0.89311 0.0
C768 C 0.45106 0.44375 0.89567 0.0
C769 C 0.43806 0.45039 0.90155 0.0
C770 C 0.43915 0.46684 0.88919 0.0
C771 C 0.45346 0.47633 0.86968 0.0
C772 C 0.46627 0.46918 0.86263 0.0
C773 C 0.46526 0.45292 0.87609 0.0
H774 H 0.62104 0.99928 0.934 0.0
H775 H 0.6171 0.04098 0.98608 0.0
H776 H 0.59532 0.04489 0.95477 0.0
H777 H 0.62303 0.02447 0.87509 0.0
H778 H 0.60819 1.00221 0.8565 0.0
H779 H 0.62278 1.0019 0.8835 0.0
H780 H 0.59128 0.97303 0.90437 0.0
H781 H 0.57659 0.97325 0.87739 0.0
H782 H 0.56999 0.97582 0.91016 0.0
H783 H 0.57492 0.0454 0.91702 0.0
H784 H 0.55802 0.04278 0.87521 0.0
H785 H 0.57439 1.00021 0.84804 0.0
C786 C 0.61546 0.00911 0.93887 0.0
C787 C 0.62078 0.01979 0.96255 0.0
C788 C 0.61326 0.03262 0.96809 0.0
C789 C 0.60083 0.03493 0.95044 0.0
C790 C 0.59594 0.0243 0.92724 0.0
C791 C 0.60299 0.01163 0.92139 0.0
C792 C 0.59589 1.0024 0.89474 0.0
C793 C 0.61352 0.00809 0.87638 0.0
C794 C 0.58265 0.97978 0.8968 0.0
C795 C 0.58399 0.01204 0.88648 0.0
C796 C 0.5841 0.02455 0.90553 0.0
C797 C 0.57458 0.03551 0.90201 0.0
C798 C 0.56489 0.03383 0.87824 0.0
C799 C 0.56482 0.02131 0.85823 0.0
C800 C 0.5743 0.01009 0.86276 0.0
H801 H 0.60773 0.99309 0.08552 0.0
H802 H 0.64852 0.0564 0.08035 0.0
H803 H 0.62839 0.06233 0.11228 0.0
H804 H 0.56278 0.99529 0.09233 0.0
H805 H 0.55177 0.97532 0.11552 0.0
H806 H 0.56904 0.97596 0.09174 0.0
H807 H 0.59104 0.97429 0.12843 0.0
H808 H 0.57367 0.97332 0.15224 0.0
H809 H 0.59943 0.99224 0.15441 0.0
H810 H 0.60381 0.0614 0.14491 0.0
H811 H 0.57854 0.05327 0.17927 0.0
H812 H 0.5543 0.99076 0.16387 0.0
C813 C 0.61245 0.0082 0.09117 0.0
C814 C 0.62968 0.0243 0.08043 0.0
C815 C 0.63541 0.04383 0.08839 0.0
C816 C 0.62399 0.04736 0.10638 0.0
C817 C 0.60693 0.03119 0.11632 0.0
C818 C 0.60131 0.01198 0.10927 0.0
C819 C 0.5828 0.99718 0.12368 0.0
C820 C 0.56558 0.98524 0.10467 0.0
C821 C 0.587 0.98345 0.1407 0.0
C822 C 0.57898 0.01106 0.14008 0.0
C823 C 0.59291 0.03064 0.1353 0.0
C824 C 0.59274 0.04613 0.14867 0.0
C825 C 0.57829 0.04144 0.16794 0.0
C826 C 0.56435 0.02148 0.17361 0.0
C827 C 0.56455 0.00614 0.1593 0.0
H828 H 0.99743 0.61488 0.09987 0.0
H829 H 0.04703 0.62082 0.05443 0.0
H830 H 0.05038 0.59782 0.08409 0.0
H831 H 0.01789 0.6139 0.16212 0.0
H832 H 0.99432 0.59618 0.17597 0.0
H833 H 0.99537 0.61252 0.1505 0.0
H834 H 0.97055 0.58215 0.12317 0.0
H835 H 0.96961 0.56571 0.14848 0.0
H836 H 0.97624 0.56294 0.11581 0.0
H837 H 0.04865 0.57439 0.11894 0.0
H838 H 0.0438 0.55472 0.15884 0.0
H839 H 0.99558 0.56414 0.18173 0.0
C840 C 1.00898 0.61132 0.09619 0.0
C841 C 0.02194 0.61962 0.07482 0.0
C842 C 0.03695 0.61469 0.07072 0.0
C843 C 0.03891 0.60154 0.08737 0.0
C844 C 0.0258 0.59347 0.10812 0.0
C845 C 0.01125 0.59831 0.11277 0.0
C846 C 0.99967 0.58824 0.13713 0.0
C847 C 1.00196 0.60363 0.15764 0.0
C848 C 0.97772 0.57391 0.13075 0.0
C849 C 0.01008 0.57714 0.14552 0.0
C850 C 0.02497 0.58016 0.12838 0.0
C851 C 0.03696 0.57182 0.13245 0.0
C852 C 0.03401 0.56054 0.15503 0.0
C853 C 0.0193 0.55786 0.1733 0.0
C854 C 1.00695 0.56595 0.16809 0.0
H855 H 0.40854 0.38748 0.09337 0.0
H856 H 0.40121 0.43081 0.04921 0.0
H857 H 0.42427 0.45721 0.07883 0.0
H858 H 0.40905 0.40816 0.15578 0.0
H859 H 0.42715 0.40289 0.16975 0.0
H860 H 0.41115 0.38751 0.144 0.0
H861 H 0.44192 0.39418 0.11691 0.0
H862 H 0.45802 0.40968 0.14256 0.0
H863 H 0.46078 0.41936 0.11005 0.0
H864 H 0.4477 0.479 0.11345 0.0
H865 H 0.46758 0.49408 0.1532 0.0
H866 H 0.459 0.43678 0.1761 0.0
C867 C 0.41194 0.40256 0.08989 0.0
C868 C 0.40315 0.40711 0.06893 0.0
C869 C 0.40773 0.42697 0.06518 0.0
C870 C 0.42091 0.44211 0.08181 0.0
C871 C 0.42931 0.43719 0.10232 0.0
C872 C 0.42488 0.41789 0.10664 0.0
C873 C 0.43503 0.41652 0.13112 0.0
C874 C 0.41968 0.40297 0.15135 0.0
C875 C 0.44982 0.40952 0.12477 0.0
C876 C 0.44569 0.438 0.13988 0.0
C877 C 0.44241 0.44972 0.1228 0.0
C878 C 0.45045 0.47 0.12695 0.0
C879 C 0.46182 0.47847 0.14947 0.0
C880 C 0.46487 0.46663 0.16767 0.0
C881 C 0.45688 0.44618 0.16252 0.0
H882 H 0.66501 0.71849 0.42702 0.0
H883 H 0.69251 0.76469 0.3687 0.0
H884 H 0.69203 0.78873 0.39918 0.0
H885 H 0.63319 0.73614 0.4558 0.0
H886 H 0.63657 0.73006 0.48853 0.0
H887 H 0.63752 0.71582 0.46152 0.0
H888 H 0.67236 0.72309 0.47635 0.0
H889 H 0.67149 0.7373 0.50338 0.0
H890 H 0.69184 0.74841 0.48075 0.0
H891 H 0.69113 0.80842 0.43643 0.0
H892 H 0.6907 0.82281 0.47873 0.0
H893 H 0.66236 0.76406 0.51331 0.0
C894 C 0.67068 0.7336 0.42062 0.0
C895 C 0.67876 0.73967 0.39542 0.0
C896 C 0.68625 0.75965 0.38787 0.0
C897 C 0.68597 0.77344 0.40502 0.0
C898 C 0.67809 0.76709 0.42973 0.0
C899 C 0.67055 0.74767 0.43761 0.0
C900 C 0.66395 0.74513 0.46581 0.0
C901 C 0.64147 0.73094 0.46803 0.0
C902 C 0.67561 0.73807 0.48255 0.0
C903 C 0.6694 0.76623 0.47259 0.0
C904 C 0.67737 0.77857 0.45138 0.0
C905 C 0.6846 0.79886 0.45311 0.0
C906 C 0.6841 0.80689 0.47729 0.0
C907 C 0.67637 0.79467 0.49961 0.0
C908 C 0.66851 0.77395 0.49686 0.0
H909 H 0.28281 0.96343 0.42925 0.0
H910 H 0.30066 0.92323 0.39747 0.0
H911 H 0.28002 0.89809 0.43027 0.0
H912 H 0.28292 0.95036 0.4968 0.0
H913 H 0.26169 0.95268 0.50499 0.0
H914 H 0.27794 0.96735 0.47907 0.0
H915 H 0.24794 0.95354 0.44751 0.0
H916 H 0.23162 0.93867 0.47326 0.0
H917 H 0.23259 0.92713 0.44336 0.0
H918 H 0.25611 0.87673 0.46589 0.0
H919 H 0.23371 0.86243 0.50387 0.0
H920 H 0.23246 0.91706 0.51266 0.0
C921 C 0.28251 0.9494 0.42931 0.0
C922 C 0.29336 0.94529 0.4108 0.0
C923 C 0.29254 0.92674 0.41153 0.0
C924 C 0.28078 0.91232 0.43001 0.0
C925 C 0.27 0.91673 0.44774 0.0
C926 C 0.27098 0.93493 0.44773 0.0
C927 C 0.25823 0.93613 0.46906 0.0
C928 C 0.27096 0.9526 0.48864 0.0
C929 C 0.24161 0.93904 0.4576 0.0
C930 C 0.24994 0.91579 0.48112 0.0
C931 C 0.2567 0.9047 0.46843 0.0
C932 C 0.2508 0.88532 0.47602 0.0
C933 C 0.23799 0.87726 0.49746 0.0
C934 C 0.23143 0.88865 0.51117 0.0
C935 C 0.23736 0.90806 0.50261 0.0
H936 H 0.05911 0.32018 0.43051 0.0
H937 H 0.09819 0.38063 0.40537 0.0
H938 H 0.12439 0.38297 0.43493 0.0
H939 H 0.07391 0.32968 0.4983 0.0
H940 H 0.07161 0.30575 0.50332 0.0
H941 H 0.0564 0.30868 0.47933 0.0
H942 H 0.06936 0.29415 0.44422 0.0
H943 H 0.08486 0.29148 0.46803 0.0
H944 H 0.09568 0.30548 0.43877 0.0
H945 H 0.14676 0.3782 0.46573 0.0
H946 H 0.16178 0.36895 0.50156 0.0
H947 H 0.1073 0.31264 0.50946 0.0
C948 C 0.07318 0.33391 0.43137 0.0
C949 C 0.07675 0.35022 0.41567 0.0
C950 C 0.09519 0.36803 0.41741 0.0
C951 C 0.1102 0.36942 0.43393 0.0
C952 C 0.10635 0.35297 0.4489 0.0
C953 C 0.08814 0.33572 0.44828 0.0
C954 C 0.0874 0.32072 0.46767 0.0
C955 C 0.07138 0.31594 0.48838 0.0
C956 C 0.08413 0.30184 0.45384 0.0
C957 C 0.10807 0.3322 0.4792 0.0
C958 C 0.11889 0.35061 0.4677 0.0
C959 C 0.13842 0.36385 0.47495 0.0
C960 C 0.14689 0.35841 0.4951 0.0
C961 C 0.13573 0.34006 0.50804 0.0
C962 C 0.11618 0.32669 0.49969 0.0
H963 H 0.05907 0.32722 0.27263 0.0
H964 H 0.10503 0.36939 0.32425 0.0
H965 H 0.13058 0.37381 0.29253 0.0
H966 H 0.08716 0.30471 0.24743 0.0
H967 H 0.07752 0.30219 0.21489 0.0
H968 H 0.06278 0.30142 0.24231 0.0
H969 H 0.05929 0.33002 0.22227 0.0
H970 H 0.0741 0.33093 0.19487 0.0
H971 H 0.08131 0.35293 0.2139 0.0
H972 H 0.15119 0.37484 0.25466 0.0
H973 H 0.16535 0.37235 0.2128 0.0
H974 H 0.1063 0.32949 0.18565 0.0
C975 C 0.07452 0.33718 0.27734 0.0
C976 C 0.08006 0.34792 0.30094 0.0
C977 C 0.10043 0.36101 0.30628 0.0
C978 C 0.11508 0.36361 0.28841 0.0
C979 C 0.10918 0.35304 0.2652 0.0
C980 C 0.08941 0.34006 0.25958 0.0
C981 C 0.08712 0.33109 0.23275 0.0
C982 C 0.07812 0.30851 0.23446 0.0
C983 C 0.07472 0.33658 0.2149 0.0
C984 C 0.10862 0.34121 0.22418 0.0
C985 C 0.12111 0.35373 0.24323 0.0
C986 C 0.14158 0.36496 0.23963 0.0
C987 C 0.14951 0.36339 0.21585 0.0
C988 C 0.13697 0.35073 0.19594 0.0
C989 C 0.11627 0.33945 0.20037 0.0
H990 H 0.66195 0.72689 0.26687 0.0
H991 H 0.72478 0.75823 0.28527 0.0
H992 H 0.72987 0.78514 0.25515 0.0
H993 H 0.66738 0.73934 0.19859 0.0
H994 H 0.64548 0.74162 0.19757 0.0
H995 H 0.64713 0.72512 0.22059 0.0
H996 H 0.6402 0.74305 0.2581 0.0
H997 H 0.6389 0.75984 0.2352 0.0
H998 H 0.65603 0.76941 0.26213 0.0
H999 H 0.72778 0.80918 0.22317 0.0
H1000 H 0.71916 0.82598 0.18871 0.0
H1001 H 0.65801 0.77849 0.19132 0.0
C1002 C 0.67682 0.73933 0.26442 0.0
C1003 C 0.69298 0.74044 0.27841 0.0
C1004 C 0.71219 0.757 0.27465 0.0
C1005 C 0.7152 0.77244 0.25773 0.0
C1006 C 0.69886 0.77107 0.24461 0.0
C1007 C 0.68009 0.75477 0.24752 0.0
C1008 C 0.66507 0.75657 0.23075 0.0
C1009 C 0.65572 0.73966 0.21069 0.0
C1010 C 0.64911 0.75726 0.24756 0.0
C1011 C 0.67829 0.77634 0.21782 0.0
C1012 C 0.69771 0.78465 0.22623 0.0
C1013 C 0.7126 0.80281 0.21653 0.0
C1014 C 0.70759 0.81235 0.19718 0.0
C1015 C 0.68792 0.80361 0.18771 0.0
C1016 C 0.67311 0.78558 0.19855 0.0
H1017 H 0.27384 0.92756 0.29397 0.0
H1018 H 0.28058 0.98462 0.27386 0.0
H1019 H 0.25659 0.96895 0.23781 0.0
H1020 H 0.27227 0.91139 0.22965 0.0
H1021 H 0.25439 0.88581 0.23611 0.0
H1022 H 0.27054 0.90124 0.26168 0.0
H1023 H 0.2399 0.89267 0.29029 0.0
H1024 H 0.22364 0.87736 0.26462 0.0
H1025 H 0.22083 0.89718 0.27797 0.0
H1026 H 0.23416 0.94766 0.2018 0.0
H1027 H 0.21638 0.92274 0.16734 0.0
H1028 H 0.22375 0.8794 0.21106 0.0
C1029 C 0.27007 0.93671 0.2822 0.0
C1030 C 0.279 0.95731 0.28679 0.0
C1031 C 0.27389 0.96882 0.27072 0.0
C1032 C 0.2602 0.96002 0.25029 0.0
C1033 C 0.25171 0.93968 0.24622 0.0
C1034 C 0.25648 0.92818 0.26169 0.0
C1035 C 0.24639 0.90694 0.25206 0.0
C1036 C 0.26182 0.90101 0.24442 0.0
C1037 C 0.23182 0.8927 0.27245 0.0
C1038 C 0.23549 0.90836 0.22844 0.0
C1039 C 0.23859 0.92734 0.22558 0.0
C1040 C 0.23133 0.93268 0.20411 0.0
C1041 C 0.22118 0.91844 0.18471 0.0
C1042 C 0.21832 0.89909 0.18696 0.0
C1043 C 0.22516 0.89389 0.20939 0.0
H1044 H 0.69346 0.96555 0.26849 0.0
H1045 H 0.64949 0.91985 0.31851 0.0
H1046 H 0.64574 0.89427 0.28726 0.0
H1047 H 0.66948 0.94302 0.20813 0.0
H1048 H 0.69223 0.95024 0.19089 0.0
H1049 H 0.69204 0.96508 0.21759 0.0
H1050 H 0.71996 0.96179 0.24037 0.0
H1051 H 0.72021 0.9469 0.21373 0.0
H1052 H 0.71649 0.9375 0.2465 0.0
H1053 H 0.64606 0.87348 0.25026 0.0
H1054 H 0.6498 0.85922 0.20918 0.0
H1055 H 0.69382 0.91809 0.18329 0.0
C1056 C 0.68311 0.95016 0.27286 0.0
C1057 C 0.67179 0.94473 0.29597 0.0
C1058 C 0.65833 0.92441 0.30093 0.0
C1059 C 0.65611 0.90972 0.28333 0.0
C1060 C 0.66744 0.91551 0.26075 0.0
C1061 C 0.68065 0.93523 0.25539 0.0
C1062 C 0.69064 0.93739 0.22934 0.0
C1063 C 0.6858 0.94966 0.21037 0.0
C1064 C 0.71316 0.94643 0.2327 0.0
C1065 C 0.68086 0.91588 0.22091 0.0
C1066 C 0.66761 0.90349 0.23937 0.0
C1067 C 0.6565 0.88303 0.2357 0.0
C1068 C 0.65882 0.87503 0.21238 0.0
C1069 C 0.6721 0.88748 0.19296 0.0
C1070 C 0.68341 0.90815 0.19761 0.0
H1071 H 0.08335 0.72264 0.27597 0.0
H1072 H 0.06515 0.76332 0.30482 0.0
H1073 H 0.08871 0.78918 0.27483 0.0
H1074 H 0.13527 0.75825 0.26404 0.0
H1075 H 0.13628 0.74689 0.23398 0.0
H1076 H 0.11925 0.732 0.25917 0.0
H1077 H 0.08987 0.71956 0.22675 0.0
H1078 H 0.10684 0.73422 0.20143 0.0
H1079 H 0.086 0.73734 0.20914 0.0
H1080 H 0.11445 0.81071 0.24234 0.0
H1081 H 0.13649 0.82481 0.20425 0.0
H1082 H 0.13585 0.76938 0.19336 0.0
C1083 C 0.08447 0.73705 0.27598 0.0
C1084 C 0.07263 0.74115 0.29277 0.0
C1085 C 0.07412 0.75997 0.29202 0.0
C1086 C 0.08755 0.77477 0.27524 0.0
C1087 C 0.09912 0.77036 0.25897 0.0
C1088 C 0.09741 0.75184 0.25875 0.0
C1089 C 0.11025 0.75046 0.23765 0.0
C1090 C 0.12621 0.74668 0.24942 0.0
C1091 C 0.09748 0.73445 0.21755 0.0
C1092 C 0.1194 0.77107 0.22606 0.0
C1093 C 0.11311 0.78244 0.23908 0.0
C1094 C 0.11947 0.80196 0.23198 0.0
C1095 C 0.1321 0.8099 0.21048 0.0
C1096 C 0.13793 0.79821 0.19607 0.0
C1097 C 0.13171 0.77865 0.20422 0.0
H1098 H 0.29478 0.36298 0.27727 0.0
H1099 H 0.26257 0.30121 0.30027 0.0
H1100 H 0.236 0.29503 0.26871 0.0
H1101 H 0.25259 0.36943 0.26678 0.0
H1102 H 0.2631 0.38496 0.23859 0.0
H1103 H 0.27913 0.38466 0.26368 0.0
H1104 H 0.29765 0.37539 0.22963 0.0
H1105 H 0.28184 0.3759 0.20443 0.0
H1106 H 0.2837 0.35399 0.20917 0.0
H1107 H 0.21263 0.29587 0.23463 0.0
H1108 H 0.19661 0.30283 0.19745 0.0
H1109 H 0.24503 0.36351 0.19564 0.0
C1110 C 0.28212 0.34816 0.27568 0.0
C1111 C 0.28066 0.33258 0.29129 0.0
C1112 C 0.26398 0.31334 0.28845 0.0
C1113 C 0.24877 0.30973 0.27071 0.0
C1114 C 0.25056 0.32548 0.25576 0.0
C1115 C 0.26698 0.34424 0.25782 0.0
C1116 C 0.26589 0.35839 0.2386 0.0
C1117 C 0.26513 0.37536 0.25277 0.0
C1118 C 0.2833 0.36638 0.21932 0.0
C1119 C 0.24635 0.34467 0.22532 0.0
C1120 C 0.23753 0.32581 0.23572 0.0
C1121 C 0.2194 0.31059 0.22638 0.0
C1122 C 0.21033 0.31466 0.20544 0.0
C1123 C 0.21956 0.33369 0.194 0.0
C1124 C 0.23763 0.34888 0.2043 0.0
H1125 H 0.26725 0.33009 0.40793 0.0
H1126 H 0.32064 0.38693 0.41943 0.0
H1127 H 0.30406 0.39463 0.45485 0.0
H1128 H 0.2315 0.34636 0.42137 0.0
H1129 H 0.21467 0.32382 0.43816 0.0
H1130 H 0.23023 0.32338 0.41257 0.0
H1131 H 0.24447 0.3076 0.44402 0.0
H1132 H 0.22881 0.3078 0.46955 0.0
H1133 H 0.25525 0.3197 0.47449 0.0
H1134 H 0.28245 0.395 0.49116 0.0
H1135 H 0.25806 0.38738 0.52647 0.0
H1136 H 0.21854 0.3307 0.49078 0.0
C1137 C 0.2754 0.34425 0.41772 0.0
C1138 C 0.29524 0.35796 0.41087 0.0
C1139 C 0.30544 0.37623 0.42433 0.0
C1140 C 0.29611 0.38075 0.44439 0.0
C1141 C 0.27653 0.36689 0.45068 0.0
C1142 C 0.26631 0.34898 0.43777 0.0
C1143 C 0.24581 0.33616 0.44923 0.0
C1144 C 0.2296 0.3322 0.42913 0.0
C1145 C 0.24346 0.31667 0.45996 0.0
C1146 C 0.24617 0.34949 0.47092 0.0
C1147 C 0.26397 0.36723 0.47131 0.0
C1148 C 0.26833 0.38133 0.49073 0.0
C1149 C 0.25438 0.37698 0.5106 0.0
C1150 C 0.23627 0.35876 0.51079 0.0
C1151 C 0.23199 0.34503 0.49045 0.0
H1152 H 0.70457 0.96825 0.43072 0.0
H1153 H 0.64659 0.9264 0.39959 0.0
H1154 H 0.64523 0.90023 0.42799 0.0
H1155 H 0.72305 0.93441 0.4399 0.0
H1156 H 0.73488 0.94482 0.47063 0.0
H1157 H 0.73208 0.96021 0.44681 0.0
H1158 H 0.71366 0.96983 0.48052 0.0
H1159 H 0.71665 0.9547 0.50451 0.0
H1160 H 0.69225 0.95058 0.49702 0.0
H1161 H 0.65049 0.87836 0.45833 0.0
H1162 H 0.65921 0.8634 0.49466 0.0
H1163 H 0.71229 0.91983 0.50958 0.0
C1164 C 0.69163 0.95356 0.42999 0.0
C1165 C 0.67571 0.94924 0.41294 0.0
C1166 C 0.65888 0.92998 0.41265 0.0
C1167 C 0.65805 0.91499 0.42851 0.0
C1168 C 0.67403 0.91961 0.44494 0.0
C1169 C 0.69029 0.93851 0.44632 0.0
C1170 C 0.70467 0.93978 0.46724 0.0
C1171 C 0.72487 0.94512 0.45543 0.0
C1172 C 0.70693 0.9546 0.48859 0.0
C1173 C 0.69393 0.91865 0.4773 0.0
C1174 C 0.67651 0.90719 0.4637 0.0
C1175 C 0.66406 0.88718 0.46919 0.0
C1176 C 0.66921 0.87877 0.48968 0.0
C1177 C 0.68645 0.89044 0.50474 0.0
C1178 C 0.6991 0.91058 0.49822 0.0
H1179 H 0.07785 0.72435 0.4325 0.0
H1180 H 0.06994 0.76732 0.38832 0.0
H1181 H 0.09195 0.79364 0.41877 0.0
H1182 H 0.07679 0.74403 0.49512 0.0
H1183 H 0.09512 0.73924 0.50941 0.0
H1184 H 0.0797 0.72389 0.48322 0.0
H1185 H 0.11107 0.73165 0.45678 0.0
H1186 H 0.12659 0.74709 0.48288 0.0
H1187 H 0.12956 0.75708 0.45052 0.0
H1188 H 0.11457 0.81545 0.45421 0.0
H1189 H 0.13412 0.83051 0.49425 0.0
H1190 H 0.12663 0.77349 0.51639 0.0
C1191 C 0.08088 0.73933 0.4292 0.0
C1192 C 0.07223 0.74379 0.40798 0.0
C1193 C 0.07636 0.76353 0.40447 0.0
C1194 C 0.08893 0.77863 0.4216 0.0
C1195 C 0.0972 0.7738 0.44235 0.0
C1196 C 0.09323 0.75462 0.4464 0.0
C1197 C 0.10323 0.7533 0.47105 0.0
C1198 C 0.08779 0.73929 0.49087 0.0
C1199 C 0.11852 0.7469 0.46493 0.0
C1200 C 0.11328 0.77467 0.48021 0.0
C1201 C 0.10982 0.78631 0.46321 0.0
C1202 C 0.11743 0.8065 0.46767 0.0
C1203 C 0.1286 0.81496 0.49036 0.0
C1204 C 0.13186 0.80319 0.50841 0.0
C1205 C 0.12427 0.78284 0.50299 0.0
H1206 H 0.35879 0.09366 0.73714 0.0
H1207 H 0.3072 0.03698 0.75579 0.0
H1208 H 0.29924 0.0526 0.79206 0.0
H1209 H 0.37316 0.10885 0.802 0.0
H1210 H 0.38155 0.13464 0.79612 0.0
H1211 H 0.38205 0.11937 0.77025 0.0
H1212 H 0.36076 0.12897 0.7416 0.0
H1213 H 0.36004 0.14415 0.76753 0.0
H1214 H 0.33725 0.12484 0.7536 0.0
H1215 H 0.29833 0.07366 0.82824 0.0
H1216 H 0.30555 0.09826 0.86307 0.0
H1217 H 0.35747 0.14147 0.82103 0.0
C1218 C 0.34567 0.08459 0.74865 0.0
C1219 C 0.33354 0.0641 0.74357 0.0
C1220 C 0.31667 0.05269 0.7593 0.0
C1221 C 0.31198 0.06147 0.77986 0.0
C1222 C 0.32427 0.08169 0.78443 0.0
C1223 C 0.34081 0.09311 0.76933 0.0
C1224 C 0.35234 0.1142 0.77948 0.0
C1225 C 0.37352 0.11957 0.78744 0.0
C1226 C 0.35261 0.12891 0.75935 0.0
C1227 C 0.33993 0.11277 0.80296 0.0
C1228 C 0.32368 0.09392 0.80527 0.0
C1229 C 0.3108 0.08855 0.82639 0.0
C1230 C 0.31494 0.10261 0.84601 0.0
C1231 C 0.33178 0.12182 0.84437 0.0
C1232 C 0.34415 0.12708 0.82228 0.0
H1233 H 0.96981 0.28423 0.75547 0.0
H1234 H 0.92444 0.27759 0.70059 0.0
H1235 H 0.89845 0.255 0.73086 0.0
H1236 H 0.94367 0.23314 0.77938 0.0
H1237 H 0.95189 0.24023 0.81246 0.0
H1238 H 0.9671 0.25516 0.78591 0.0
H1239 H 0.96752 0.28594 0.80566 0.0
H1240 H 0.9523 0.27109 0.83222 0.0
H1241 H 0.94436 0.28498 0.81252 0.0
H1242 H 0.87714 0.23431 0.76791 0.0
H1243 H 0.86233 0.21742 0.80946 0.0
H1244 H 0.9213 0.23666 0.83985 0.0
C1245 C 0.95441 0.27786 0.74976 0.0
C1246 C 0.94918 0.28267 0.72563 0.0
C1247 C 0.92884 0.27414 0.71896 0.0
C1248 C 0.91392 0.26124 0.73601 0.0
C1249 C 0.91952 0.2569 0.75971 0.0
C1250 C 0.93926 0.26491 0.76662 0.0
C1251 C 0.94116 0.25829 0.79367 0.0
C1252 C 0.95157 0.24597 0.79279 0.0
C1253 C 0.95197 0.27614 0.8121 0.0
C1254 C 0.91946 0.24559 0.80091 0.0
C1255 C 0.9072 0.24489 0.78103 0.0
C1256 C 0.88659 0.23459 0.78356 0.0
C1257 C 0.87829 0.22493 0.80718 0.0
C1258 C 0.89059 0.22568 0.828 0.0
C1259 C 0.91144 0.23594 0.82447 0.0
H1260 H 0.73909 0.69061 0.77025 0.0
H1261 H 0.72923 0.63868 0.72688 0.0
H1262 H 0.75156 0.63435 0.75665 0.0
H1263 H 0.79056 0.70931 0.785 0.0
H1264 H 0.78913 0.71715 0.81751 0.0
H1265 H 0.77244 0.71647 0.79268 0.0
H1266 H 0.74226 0.69349 0.82147 0.0
H1267 H 0.75887 0.69429 0.84649 0.0
H1268 H 0.73994 0.67078 0.83381 0.0
H1269 H 0.77578 0.63606 0.7903 0.0
H1270 H 0.79731 0.64174 0.82868 0.0
H1271 H 0.79066 0.6917 0.85106 0.0
C1272 C 0.74156 0.67828 0.76715 0.0
C1273 C 0.73242 0.66501 0.74622 0.0
C1274 C 0.736 0.64902 0.74283 0.0
C1275 C 0.74876 0.64647 0.75955 0.0
C1276 C 0.75776 0.65993 0.77977 0.0
C1277 C 0.75412 0.67536 0.78391 0.0
C1278 C 0.76522 0.68731 0.80766 0.0
C1279 C 0.78023 0.70883 0.80025 0.0
C1280 C 0.75071 0.6864 0.82859 0.0
C1281 C 0.77564 0.67621 0.81611 0.0
C1282 C 0.77132 0.6606 0.79959 0.0
C1283 C 0.77925 0.64822 0.80343 0.0
C1284 C 0.79156 0.65162 0.82511 0.0
C1285 C 0.7956 0.66712 0.84274 0.0
C1286 C 0.78774 0.67969 0.83789 0.0
H1287 H 0.72493 0.65979 0.60332 0.0
H1288 H 0.76944 0.70304 0.6555 0.0
H1289 H 0.79582 0.70718 0.62535 0.0
H1290 H 0.75338 0.63699 0.58262 0.0
H1291 H 0.74467 0.63364 0.54948 0.0
H1292 H 0.7292 0.63362 0.5755 0.0
H1293 H 0.72643 0.66179 0.55273 0.0
H1294 H 0.74182 0.66184 0.52661 0.0
H1295 H 0.74873 0.68438 0.54418 0.0
H1296 H 0.81743 0.70733 0.589 0.0
H1297 H 0.83245 0.70422 0.54824 0.0
H1298 H 0.77405 0.66042 0.52019 0.0
C1299 C 0.74023 0.67008 0.60841 0.0
C1300 C 0.74512 0.68107 0.63177 0.0
C1301 C 0.76532 0.69445 0.6377 0.0
C1302 C 0.78044 0.69688 0.62074 0.0
C1303 C 0.77515 0.68581 0.59789 0.0
C1304 C 0.75554 0.67271 0.59165 0.0
C1305 C 0.75388 0.663 0.56553 0.0
C1306 C 0.74474 0.64047 0.56847 0.0
C1307 C 0.74201 0.66806 0.54612 0.0
C1308 C 0.77557 0.67283 0.55803 0.0
C1309 C 0.78762 0.68586 0.57699 0.0
C1310 C 0.80816 0.69705 0.57407 0.0
C1311 C 0.81659 0.69508 0.55094 0.0
C1312 C 0.80446 0.68206 0.53104 0.0
C1313 C 0.78372 0.67061 0.53496 0.0
H1314 H 0.36873 0.09611 0.62188 0.0
H1315 H 0.31692 0.03885 0.60578 0.0
H1316 H 0.30647 0.0539 0.57175 0.0
H1317 H 0.34642 0.12669 0.60949 0.0
H1318 H 0.36778 0.14598 0.59299 0.0
H1319 H 0.3709 0.13133 0.61766 0.0
H1320 H 0.38981 0.1215 0.58504 0.0
H1321 H 0.38707 0.13641 0.56047 0.0
H1322 H 0.37844 0.11061 0.55426 0.0
H1323 H 0.3011 0.07449 0.54016 0.0
H1324 H 0.30432 0.09834 0.50639 0.0
H1325 H 0.36066 0.14236 0.53938 0.0
C1326 C 0.35522 0.08682 0.61111 0.0
C1327 C 0.34359 0.06631 0.61652 0.0
C1328 C 0.32612 0.05455 0.60187 0.0
C1329 C 0.31993 0.063 0.58269 0.0
C1330 C 0.3315 0.08324 0.57801 0.0
C1331 C 0.34903 0.09497 0.59126 0.0
C1332 C 0.35946 0.11597 0.58053 0.0
C1333 C 0.36124 0.13087 0.60142 0.0
C1334 C 0.3799 0.12144 0.56941 0.0
C1335 C 0.34509 0.11408 0.55913 0.0
C1336 C 0.32886 0.09513 0.55859 0.0
C1337 C 0.31372 0.08938 0.54036 0.0
C1338 C 0.3156 0.10305 0.52136 0.0
C1339 C 0.33263 0.12218 0.52042 0.0
C1340 C 0.34731 0.12797 0.54002 0.0
H1341 H 0.96331 0.27497 0.60182 0.0
H1342 H 0.94304 0.3175 0.60682 0.0
H1343 H 0.91583 0.29729 0.57598 0.0
H1344 H 0.95307 0.26426 0.53315 0.0
H1345 H 0.94555 0.23848 0.53707 0.0
H1346 H 0.96336 0.25664 0.55912 0.0
H1347 H 0.94098 0.23677 0.59794 0.0
H1348 H 0.92288 0.21882 0.57591 0.0
H1349 H 0.91563 0.23145 0.59893 0.0
H1350 H 0.89035 0.27181 0.54471 0.0
H1351 H 0.8713 0.24528 0.5123 0.0
H1352 H 0.90831 0.21971 0.52839 0.0
C1353 C 0.9533 0.28017 0.59622 0.0
C1354 C 0.95534 0.29785 0.60667 0.0
C1355 C 0.94185 0.30407 0.59891 0.0
C1356 C 0.92625 0.2926 0.58157 0.0
C1357 C 0.92436 0.27496 0.57214 0.0
C1358 C 0.93771 0.26894 0.57893 0.0
C1359 C 0.93272 0.24964 0.56573 0.0
C1360 C 0.94968 0.25243 0.54769 0.0
C1361 C 0.92776 0.2332 0.58584 0.0
C1362 C 0.91449 0.2457 0.55039 0.0
C1363 C 0.90975 0.26037 0.55446 0.0
C1364 C 0.89384 0.26018 0.54158 0.0
C1365 C 0.88296 0.24498 0.52346 0.0
C1366 C 0.88806 0.23027 0.51854 0.0
C1367 C 0.90379 0.23049 0.53249 0.0
H1368 H 0.33346 0.26267 0.61674 0.0
H1369 H 0.38867 0.31663 0.59988 0.0
H1370 H 0.3964 0.29891 0.56625 0.0
H1371 H 0.35143 0.22826 0.60732 0.0
H1372 H 0.32892 0.2097 0.59189 0.0
H1373 H 0.32801 0.22629 0.61552 0.0
H1374 H 0.31058 0.23741 0.58206 0.0
H1375 H 0.31107 0.22055 0.5586 0.0
H1376 H 0.32184 0.24644 0.5507 0.0
H1377 H 0.3976 0.27578 0.53346 0.0
H1378 H 0.39035 0.24982 0.50059 0.0
H1379 H 0.33462 0.21082 0.5387 0.0
C1380 C 0.34717 0.27075 0.60595 0.0
C1381 C 0.36049 0.29103 0.61093 0.0
C1382 C 0.37822 0.30111 0.59632 0.0
C1383 C 0.38282 0.29113 0.57735 0.0
C1384 C 0.36954 0.27106 0.57319 0.0
C1385 C 0.35195 0.26103 0.58684 0.0
C1386 C 0.33969 0.2398 0.57753 0.0
C1387 C 0.33685 0.22515 0.59937 0.0
C1388 C 0.31962 0.23583 0.56656 0.0
C1389 C 0.353 0.23952 0.55627 0.0
C1390 C 0.37028 0.25764 0.55433 0.0
C1391 C 0.38429 0.26144 0.53504 0.0
C1392 C 0.38018 0.2466 0.51663 0.0
C1393 C 0.36227 0.22823 0.51772 0.0
C1394 C 0.34877 0.22448 0.53815 0.0
H1395 H 0.72724 0.06987 0.60039 0.0
H1396 H 0.77293 0.06913 0.64804 0.0
H1397 H 0.79856 0.09226 0.61779 0.0
H1398 H 0.74954 0.07085 0.5389 0.0
H1399 H 0.74238 0.08712 0.52358 0.0
H1400 H 0.72756 0.071 0.54951 0.0
H1401 H 0.73115 0.10128 0.57505 0.0
H1402 H 0.74607 0.1175 0.54922 0.0
H1403 H 0.75556 0.12177 0.58202 0.0
H1404 H 0.81942 0.11509 0.58197 0.0
H1405 H 0.83359 0.13443 0.54168 0.0
H1406 H 0.77464 0.12072 0.5174 0.0
C1407 C 0.74263 0.07463 0.60445 0.0
C1408 C 0.74805 0.06768 0.62663 0.0
C1409 C 0.76838 0.0742 0.63118 0.0
C1410 C 0.7831 0.08742 0.61415 0.0
C1411 C 0.77733 0.09404 0.59253 0.0
C1412 C 0.75759 0.08781 0.58752 0.0
C1413 C 0.75542 0.09673 0.56239 0.0
C1414 C 0.74299 0.08046 0.54242 0.0
C1415 C 0.74652 0.11012 0.56749 0.0
C1416 C 0.77695 0.10877 0.55407 0.0
C1417 C 0.78937 0.10714 0.5718 0.0
C1418 C 0.80985 0.11657 0.56798 0.0
C1419 C 0.8178 0.12765 0.54514 0.0
C1420 C 0.80527 0.12911 0.52636 0.0
C1421 C 0.78462 0.11978 0.53127 0.0
H1422 H 0.96879 0.68995 0.60144 0.0
H1423 H 0.92541 0.63919 0.64538 0.0
H1424 H 0.89921 0.63499 0.61443 0.0
H1425 H 0.93738 0.7097 0.58645 0.0
H1426 H 0.94718 0.71767 0.55419 0.0
H1427 H 0.9626 0.71628 0.57927 0.0
H1428 H 0.96928 0.69302 0.55037 0.0
H1429 H 0.95404 0.69451 0.52509 0.0
H1430 H 0.94862 0.67069 0.53746 0.0
H1431 H 0.87743 0.63698 0.57882 0.0
H1432 H 0.86263 0.6438 0.54026 0.0
H1433 H 0.92031 0.69355 0.52054 0.0
C1434 C 0.95382 0.67781 0.6044 0.0
C1435 C 0.94917 0.66484 0.62579 0.0
C1436 C 0.92935 0.64925 0.62907 0.0
C1437 C 0.91435 0.6468 0.61164 0.0
C1438 C 0.91937 0.66005 0.591 0.0
C1439 C 0.93868 0.67516 0.58722 0.0
C1440 C 0.94021 0.68748 0.56362 0.0
C1441 C 0.94726 0.70906 0.57136 0.0
C1442 C 0.95384 0.68635 0.54291 0.0
C1443 C 0.91878 0.67694 0.55469 0.0
C1444 C 0.90693 0.6612 0.57072 0.0
C1445 C 0.8866 0.64928 0.56614 0.0
C1446 C 0.87827 0.65335 0.54432 0.0
C1447 C 0.89028 0.66916 0.52731 0.0
C1448 C 0.91074 0.68122 0.53298 0.0
H1449 H 0.95588 0.66552 0.76841 0.0
H1450 H 0.96424 0.71699 0.72542 0.0
H1451 H 0.94177 0.72075 0.7559 0.0
H1452 H 0.90442 0.64559 0.78152 0.0
H1453 H 0.90561 0.63697 0.81364 0.0
H1454 H 0.92288 0.63883 0.78902 0.0
H1455 H 0.95237 0.66147 0.81919 0.0
H1456 H 0.93518 0.6595 0.84399 0.0
H1457 H 0.9539 0.68355 0.83262 0.0
H1458 H 0.91739 0.71826 0.79142 0.0
H1459 H 0.89531 0.71075 0.8297 0.0
H1460 H 0.90257 0.66042 0.84769 0.0
C1461 C 0.95318 0.67773 0.76556 0.0
C1462 C 0.96193 0.69103 0.74459 0.0
C1463 C 0.95781 0.70668 0.74143 0.0
C1464 C 0.94499 0.70888 0.75859 0.0
C1465 C 0.93634 0.6953 0.77883 0.0
C1466 C 0.94039 0.68009 0.78242 0.0
C1467 C 0.92914 0.66733 0.80544 0.0
C1468 C 0.91465 0.64591 0.79688 0.0
C1469 C 0.9435 0.66802 0.82656 0.0
C1470 C 0.91815 0.67771 0.81431 0.0
C1471 C 0.92238 0.69379 0.79879 0.0
C1472 C 0.91399 0.70568 0.80368 0.0
C1473 C 0.90135 0.70124 0.82533 0.0
C1474 C 0.8973 0.68511 0.84183 0.0
C1475 C 0.90555 0.67304 0.8357 0.0
H1476 H 0.33673 0.28178 0.75945 0.0
H1477 H 0.38091 0.28017 0.70981 0.0
H1478 H 0.38393 0.25762 0.74067 0.0
H1479 H 0.35976 0.28213 0.81991 0.0
H1480 H 0.33671 0.26662 0.83657 0.0
H1481 H 0.33751 0.2821 0.81008 0.0
H1482 H 0.30959 0.25132 0.78651 0.0
H1483 H 0.30879 0.23573 0.81289 0.0
H1484 H 0.3128 0.23037 0.78009 0.0
H1485 H 0.38284 0.23583 0.77753 0.0
H1486 H 0.37872 0.21777 0.81874 0.0
H1487 H 0.33486 0.233 0.84389 0.0
C1488 C 0.34699 0.27663 0.75507 0.0
C1489 C 0.35857 0.28273 0.73221 0.0
C1490 C 0.37189 0.27572 0.72721 0.0
C1491 C 0.37367 0.26284 0.74458 0.0
C1492 C 0.36203 0.25705 0.7669 0.0
C1493 C 0.34899 0.26376 0.77225 0.0
C1494 C 0.33863 0.25572 0.79801 0.0
C1495 C 0.34345 0.27265 0.81728 0.0
C1496 C 0.31611 0.2425 0.79413 0.0
C1497 C 0.34804 0.24365 0.80637 0.0
C1498 C 0.3614 0.24449 0.7881 0.0
C1499 C 0.37231 0.23495 0.79192 0.0
C1500 C 0.36978 0.22461 0.81529 0.0
C1501 C 0.3565 0.22397 0.83455 0.0
C1502 C 0.34526 0.23334 0.82965 0.0
H1503 H 0.74578 0.08758 0.74102 0.0
H1504 H 0.74496 0.03306 0.76054 0.0
H1505 H 0.77078 0.05096 0.79392 0.0
H1506 H 0.79851 0.12077 0.74956 0.0
H1507 H 0.79558 0.14024 0.76388 0.0
H1508 H 0.77749 0.12338 0.74089 0.0
H1509 H 0.74937 0.11409 0.77445 0.0
H1510 H 0.76732 0.13122 0.79727 0.0
H1511 H 0.75148 0.10567 0.80632 0.0
H1512 H 0.79584 0.0745 0.82614 0.0
H1513 H 0.81577 0.10121 0.85767 0.0
H1514 H 0.80074 0.1405 0.81694 0.0
C1515 C 0.75101 0.0794 0.75235 0.0
C1516 C 0.74336 0.05891 0.74818 0.0
C1517 C 0.75055 0.04873 0.76346 0.0
C1518 C 0.76533 0.05881 0.78232 0.0
C1519 C 0.77279 0.07907 0.78564 0.0
C1520 C 0.76571 0.08922 0.77129 0.0
C1521 C 0.7755 0.11075 0.77957 0.0
C1522 C 0.78748 0.1246 0.75713 0.0
C1523 C 0.76 0.11572 0.79003 0.0
C1524 C 0.78904 0.1111 0.80104 0.0
C1525 C 0.7874 0.09271 0.80404 0.0
C1526 C 0.79747 0.08902 0.82372 0.0
C1527 C 0.8089 0.10429 0.84137 0.0
C1528 C 0.81022 0.12299 0.83914 0.0
C1529 C 0.80056 0.12656 0.81837 0.0
H1530 H 0.07684 0.38464 0.05483 0.0
H1531 H 0.03873 0.32414 0.02915 0.0
H1532 H 0.06417 0.31577 0.04252 0.0
H1533 H 0.1253 0.38878 0.03903 0.0
H1534 H 0.13689 0.40263 0.0682 0.0
H1535 H 0.11714 0.40469 0.05296 0.0
H1536 H 0.09734 0.39458 0.09615 0.0
H1537 H 0.11713 0.39277 0.1115 0.0
H1538 H 0.09225 0.37185 0.1119 0.0
H1539 H 0.09261 0.31322 0.06221 0.0
H1540 H 0.11931 0.3158 0.09117 0.0
H1541 H 0.13823 0.37742 0.10566 0.0
C1542 C 0.0741 0.36977 0.05147 0.0
C1543 C 0.05594 0.3551 0.0406 0.0
C1544 C 0.0526 0.33563 0.03728 0.0
C1545 C 0.06703 0.33078 0.04467 0.0
C1546 C 0.08473 0.34551 0.05559 0.0
C1547 C 0.08822 0.36458 0.05923 0.0
C1548 C 0.10731 0.37701 0.07426 0.0
C1549 C 0.12256 0.39431 0.05761 0.0
C1550 C 0.10326 0.38448 0.09997 0.0
C1551 C 0.11378 0.36188 0.07903 0.0
C1552 C 0.10082 0.3439 0.06759 0.0
C1553 C 0.10303 0.32732 0.07088 0.0
C1554 C 0.11835 0.32893 0.08713 0.0
C1555 C 0.13107 0.34691 0.10009 0.0
C1556 C 0.12906 0.36368 0.0953 0.0
H1557 H 0.64411 0.69844 0.06979 0.0
H1558 H 0.67694 0.72572 0.99929 0.0
H1559 H 0.67941 0.75751 0.01214 0.0
H1560 H 0.61625 0.72523 0.07127 0.0
H1561 H 0.61736 0.72708 0.10625 0.0
H1562 H 0.61707 0.7063 0.09047 0.0
H1563 H 0.64966 0.71422 0.11418 0.0
H1564 H 0.64987 0.7348 0.13021 0.0
H1565 H 0.67103 0.73868 0.11143 0.0
H1566 H 0.68163 0.78755 0.03595 0.0
H1567 H 0.6836 0.81208 0.06833 0.0
H1568 H 0.64636 0.76414 0.12054 0.0
C1569 C 0.65164 0.71105 0.0569 0.0
C1570 C 0.66039 0.70961 0.03356 0.0
C1571 C 0.67009 0.72646 0.01724 0.0
C1572 C 0.67152 0.74457 0.02436 0.0
C1573 C 0.6628 0.74552 0.04761 0.0
C1574 C 0.65288 0.72908 0.06348 0.0
C1575 C 0.64547 0.73404 0.08795 0.0
C1576 C 0.62268 0.72247 0.08903 0.0
C1577 C 0.65455 0.73022 0.11237 0.0
C1578 C 0.65331 0.75596 0.08387 0.0
C1579 C 0.66323 0.76241 0.06049 0.0
C1580 C 0.67352 0.78255 0.05403 0.0
C1581 C 0.6744 0.79642 0.07241 0.0
C1582 C 0.66505 0.79006 0.0969 0.0
C1583 C 0.65354 0.76948 0.1019 0.0
H1584 H 0.32605 0.95768 0.06841 0.0
H1585 H 0.2992 0.95647 0.994 0.0
H1586 H 0.26734 0.92813 0.00911 0.0
H1587 H 0.30009 0.90391 0.07799 0.0
H1588 H 0.29791 0.90602 0.11258 0.0
H1589 H 0.31864 0.9254 0.09522 0.0
H1590 H 0.30986 0.95127 0.11267 0.0
H1591 H 0.28932 0.93204 0.1303 0.0
H1592 H 0.28519 0.94726 0.10767 0.0
H1593 H 0.23732 0.9016 0.03476 0.0
H1594 H 0.21277 0.88073 0.06832 0.0
H1595 H 0.26055 0.89795 0.12388 0.0
C1596 C 0.3135 0.9514 0.05521 0.0
C1597 C 0.31506 0.95935 0.03009 0.0
C1598 C 0.29832 0.95062 0.01336 0.0
C1599 C 0.2802 0.93447 0.02175 0.0
C1600 C 0.27917 0.92698 0.04674 0.0
C1601 C 0.29549 0.93515 0.0631 0.0
C1602 C 0.29057 0.92497 0.08928 0.0
C1603 C 0.30251 0.91445 0.09404 0.0
C1604 C 0.29393 0.93976 0.11126 0.0
C1605 C 0.26876 0.9102 0.08551 0.0
C1606 C 0.26234 0.9114 0.06085 0.0
C1607 C 0.24229 0.9003 0.05394 0.0
C1608 C 0.22844 0.88833 0.07302 0.0
C1609 C 0.23475 0.88764 0.09863 0.0
C1610 C 0.25528 0.89807 0.1044 0.0
H1611 H 0.338 0.04384 0.97973 0.0
H1612 H 0.39914 0.0784 0.0053 0.0
H1613 H 0.39968 0.10917 0.99198 0.0
H1614 H 0.34269 0.07063 0.92385 0.0
H1615 H 0.3187 0.0687 0.92619 0.0
H1616 H 0.32268 0.04998 0.94057 0.0
H1617 H 0.31089 0.05584 0.98511 0.0
H1618 H 0.30703 0.07475 0.97083 0.0
H1619 H 0.32289 0.0804 0.99889 0.0
H1620 H 0.39469 0.13585 0.96996 0.0
H1621 H 0.38464 0.15494 0.94131 0.0
H1622 H 0.32618 0.1032 0.93351 0.0
C1623 C 0.35138 0.05791 0.98302 0.0
C1624 C 0.36851 0.05869 0.99363 0.0
C1625 C 0.38579 0.07742 0.99736 0.0
C1626 C 0.38622 0.095 0.98989 0.0
C1627 C 0.36914 0.0937 0.9791 0.0
C1628 C 0.35198 0.07558 0.97596 0.0
C1629 C 0.33602 0.07794 0.96238 0.0
C1630 C 0.32966 0.06612 0.93674 0.0
C1631 C 0.31815 0.07187 0.98039 0.0
C1632 C 0.34705 0.10007 0.95747 0.0
C1633 C 0.36611 0.10903 0.96739 0.0
C1634 C 0.37964 0.12905 0.96266 0.0
C1635 C 0.37378 0.13988 0.94655 0.0
C1636 C 0.35459 0.13064 0.93534 0.0
C1637 C 0.34089 0.11076 0.94203 0.0
H1638 H 0.9799 0.30997 0.96315 0.0
H1639 H 0.9426 0.31047 0.02527 0.0
H1640 H 0.91452 0.27913 0.00849 0.0
H1641 H 0.9441 0.29208 0.91364 0.0
H1642 H 0.9525 0.2767 0.89867 0.0
H1643 H 0.96968 0.2984 0.91663 0.0
H1644 H 0.97863 0.27686 0.94578 0.0
H1645 H 0.96135 0.25505 0.92794 0.0
H1646 H 0.95921 0.25589 0.96276 0.0
H1647 H 0.88945 0.24926 0.98158 0.0
H1648 H 0.87048 0.22408 0.94774 0.0
H1649 H 0.92532 0.24155 0.90641 0.0
C1650 C 0.96587 0.30339 0.97335 0.0
C1651 C 0.9634 0.31269 0.99544 0.0
C1652 C 0.94483 0.30357 0.00832 0.0
C1653 C 0.9288 0.28576 0.99895 0.0
C1654 C 0.93169 0.277 0.97698 0.0
C1655 C 0.94988 0.28544 0.96457 0.0
C1656 C 0.94911 0.27343 0.94104 0.0
C1657 C 0.95414 0.2859 0.91603 0.0
C1658 C 0.96289 0.2648 0.94461 0.0
C1659 C 0.92752 0.25729 0.94157 0.0
C1660 C 0.91763 0.25948 0.96242 0.0
C1661 C 0.89715 0.24721 0.96545 0.0
C1662 C 0.88648 0.23281 0.94623 0.0
C1663 C 0.89631 0.23082 0.92428 0.0
C1664 C 0.91723 0.24275 0.92276 0.0
H1665 H 0.70506 0.63669 0.98348 0.0
H1666 H 0.73069 0.69565 0.01638 0.0
H1667 H 0.76404 0.70283 0.00239 0.0
H1668 H 0.74734 0.62847 0.99703 0.0
H1669 H 0.74433 0.61602 0.9664 0.0
H1670 H 0.72307 0.61452 0.98248 0.0
H1671 H 0.71475 0.628 0.94111 0.0
H1672 H 0.73581 0.62933 0.92493 0.0
H1673 H 0.73347 0.65112 0.92729 0.0
H1674 H 0.79425 0.7048 0.98032 0.0
H1675 H 0.8173 0.70209 0.94954 0.0
H1676 H 0.77185 0.64212 0.93095 0.0
C1677 C 0.71775 0.65093 0.98836 0.0
C1678 C 0.71528 0.66552 0.00134 0.0
C1679 C 0.73223 0.68418 0.00667 0.0
C1680 C 0.75126 0.68836 0.99888 0.0
C1681 C 0.75317 0.67374 0.98574 0.0
C1682 C 0.73681 0.6554 0.98049 0.0
C1683 C 0.74242 0.64301 0.96366 0.0
C1684 C 0.73909 0.6244 0.97828 0.0
C1685 C 0.73094 0.63756 0.93772 0.0
C1686 C 0.76434 0.65739 0.95964 0.0
C1687 C 0.77043 0.67493 0.97288 0.0
C1688 C 0.78972 0.69097 0.97029 0.0
C1689 C 0.80282 0.68929 0.95298 0.0
C1690 C 0.79649 0.67177 0.93835 0.0
C1691 C 0.77723 0.65547 0.94248 0.0
H1692 H 0.96167 0.64501 0.9619 0.0
H1693 H 0.96278 0.67203 0.03594 0.0
H1694 H 0.93368 0.67488 0.02216 0.0
H1695 H 0.94941 0.67347 0.92242 0.0
H1696 H 0.93327 0.65339 0.90118 0.0
H1697 H 0.95317 0.65266 0.91793 0.0
H1698 H 0.92797 0.61864 0.93786 0.0
H1699 H 0.90795 0.61938 0.92127 0.0
H1700 H 0.90712 0.61624 0.95607 0.0
H1701 H 0.9069 0.67857 0.99684 0.0
H1702 H 0.8853 0.68161 0.96371 0.0
H1703 H 0.89949 0.64808 0.90937 0.0
C1704 C 0.95567 0.65137 0.97531 0.0
C1705 C 0.96451 0.65848 0.99986 0.0
C1706 C 0.95616 0.66651 0.01702 0.0
C1707 C 0.93964 0.66814 0.00935 0.0
C1708 C 0.93133 0.66111 0.9848 0.0
C1709 C 0.93895 0.65256 0.96829 0.0
C1710 C 0.9278 0.64644 0.94278 0.0
C1711 C 0.94174 0.65713 0.91974 0.0
C1712 C 0.91707 0.62383 0.93931 0.0
C1713 C 0.91319 0.65357 0.94696 0.0
C1714 C 0.91533 0.66203 0.97123 0.0
C1715 C 0.9048 0.67156 0.97802 0.0
C1716 C 0.89243 0.67311 0.95918 0.0
C1717 C 0.8907 0.66511 0.93395 0.0
C1718 C 0.90049 0.65438 0.92848 0.0
H1719 H 0.38101 0.32287 0.96136 0.0
H1720 H 0.3393 0.2942 0.0242 0.0
H1721 H 0.33498 0.2617 0.01055 0.0
H1722 H 0.35757 0.28595 0.91414 0.0
H1723 H 0.38021 0.2888 0.90069 0.0
H1724 H 0.38029 0.30944 0.91636 0.0
H1725 H 0.40815 0.31306 0.94751 0.0
H1726 H 0.40806 0.29231 0.93197 0.0
H1727 H 0.40446 0.2921 0.96662 0.0
H1728 H 0.33251 0.23149 0.98559 0.0
H1729 H 0.33355 0.20798 0.95385 0.0
H1730 H 0.38048 0.25761 0.91212 0.0
C1731 C 0.37109 0.30977 0.97238 0.0
C1732 C 0.36037 0.31099 0.9937 0.0
C1733 C 0.34767 0.29356 0.0078 0.0
C1734 C 0.34514 0.27505 1.00017 0.0
C1735 C 0.35586 0.27432 0.97885 0.0
C1736 C 0.36887 0.29136 0.96553 0.0
C1737 C 0.37865 0.28683 0.94328 0.0
C1738 C 0.37389 0.29312 0.91708 0.0
C1739 C 0.40117 0.29666 0.94762 0.0
C1740 C 0.36867 0.26452 0.9455 0.0
C1741 C 0.35546 0.25739 0.96598 0.0
C1742 C 0.34314 0.23699 0.96985 0.0
C1743 C 0.34393 0.22369 0.95186 0.0
C1744 C 0.35702 0.23085 0.93036 0.0
C1745 C 0.37014 0.25154 0.92817 0.0
H1746 H 0.70362 0.06592 0.95599 0.0
H1747 H 0.73022 0.06605 0.03017 0.0
H1748 H 0.76212 0.09463 0.01567 0.0
H1749 H 0.74454 0.07716 0.91655 0.0
H1750 H 0.74046 0.09279 0.8946 0.0
H1751 H 0.71989 0.07325 0.9118 0.0
H1752 H 0.71113 0.09885 0.93039 0.0
H1753 H 0.73193 0.11853 0.91348 0.0
H1754 H 0.72965 0.12 0.94818 0.0
H1755 H 0.79229 0.12122 0.99043 0.0
H1756 H 0.81699 0.14217 0.95709 0.0
H1757 H 0.76934 0.1265 0.90181 0.0
C1758 C 0.71613 0.07202 0.96925 0.0
C1759 C 0.71451 0.06369 0.99412 0.0
C1760 C 0.73117 0.07221 0.01099 0.0
C1761 C 0.74931 0.08848 0.00295 0.0
C1762 C 0.75042 0.09637 0.97821 0.0
C1763 C 0.73415 0.08846 0.96176 0.0
C1764 C 0.73916 0.09912 0.93591 0.0
C1765 C 0.73582 0.08473 0.9134 0.0
C1766 C 0.72726 0.10976 0.93176 0.0
C1767 C 0.76097 0.1138 0.93993 0.0
C1768 C 0.76731 0.11215 0.96444 0.0
C1769 C 0.78738 0.12292 0.97139 0.0
C1770 C 0.80133 0.13495 0.95245 0.0
C1771 C 0.79508 0.13607 0.92696 0.0
C1772 C 0.77455 0.12609 0.92124 0.0
H1773 H 0.68844 0.98148 0.06149 0.0
H1774 H 0.64028 0.94598 0.00821 0.0
H1775 H 0.64139 0.91605 0.02171 0.0
H1776 H 0.71556 0.95424 0.05345 0.0
H1777 H 0.72239 0.95683 0.08735 0.0
H1778 H 0.71906 0.97557 0.0715 0.0
H1779 H 0.69326 0.97145 0.10639 0.0
H1780 H 0.69665 0.95286 0.12239 0.0
H1781 H 0.6722 0.94721 0.11229 0.0
H1782 H 0.64571 0.88921 0.04491 0.0
H1783 H 0.65185 0.86874 0.07642 0.0
H1784 H 0.69803 0.92221 0.11273 0.0
C1785 C 0.67834 0.96747 0.0523 0.0
C1786 C 0.66433 0.96613 0.03366 0.0
C1787 C 0.65123 0.94743 0.0224 0.0
C1788 C 0.65179 0.93034 0.02993 0.0
C1789 C 0.66567 0.93215 0.04858 0.0
C1790 C 0.67876 0.95033 0.05951 0.0
C1791 C 0.69137 0.94826 0.08036 0.0
C1792 C 0.7134 0.95939 0.07269 0.0
C1793 C 0.68817 0.95536 0.10692 0.0
C1794 C 0.68302 0.92604 0.08004 0.0
C1795 C 0.66833 0.91692 0.06145 0.0
C1796 C 0.65744 0.89627 0.0592 0.0
C1797 C 0.66113 0.88471 0.07702 0.0
C1798 C 0.67552 0.89383 0.09692 0.0
C1799 C 0.68707 0.91478 0.09757 0.0
H1800 H 0.0471 0.71726 0.06195 0.0
H1801 H 0.08283 0.708 0.00534 0.0
H1802 H 0.11258 0.73883 0.02023 0.0
H1803 H 0.07376 0.77216 0.05784 0.0
H1804 H 0.07104 0.77465 0.09222 0.0
H1805 H 0.05245 0.75325 0.07488 0.0
H1806 H 0.05681 0.73024 0.10729 0.0
H1807 H 0.07534 0.7515 0.12467 0.0
H1808 H 0.08115 0.73339 0.11229 0.0
H1809 H 0.1393 0.76887 0.04569 0.0
H1810 H 0.15955 0.79423 0.07886 0.0
H1811 H 0.10565 0.78431 0.11666 0.0
C1812 C 0.06109 0.72191 0.05228 0.0
C1813 C 0.06261 0.71024 0.0324 0.0
C1814 C 0.08127 0.71677 0.02047 0.0
C1815 C 0.09825 0.73429 0.02881 0.0
C1816 C 0.0963 0.74528 0.04886 0.0
C1817 C 0.07808 0.73937 0.0602 0.0
C1818 C 0.07995 0.75291 0.08246 0.0
C1819 C 0.06863 0.76389 0.07648 0.0
C1820 C 0.07291 0.74132 0.10819 0.0
C1821 C 0.10214 0.76697 0.08254 0.0
C1822 C 0.11142 0.76255 0.06294 0.0
C1823 C 0.13211 0.77265 0.06079 0.0
C1824 C 0.14353 0.78714 0.0796 0.0
C1825 C 0.13422 0.79127 0.10035 0.0
C1826 C 0.11324 0.78151 0.10105 0.0
H1827 H 0.30099 0.33203 0.05598 0.0
H1828 H 0.31233 0.38058 0.00454 0.0
H1829 H 0.28207 0.37993 0.0208 0.0
H1830 H 0.24583 0.30578 0.04986 0.0
H1831 H 0.24255 0.29809 0.08341 0.0
H1832 H 0.26387 0.30125 0.06564 0.0
H1833 H 0.28706 0.32568 0.10092 0.0
H1834 H 0.26587 0.32264 0.11871 0.0
H1835 H 0.28497 0.34705 0.10907 0.0
H1836 H 0.25306 0.37698 0.0482 0.0
H1837 H 0.22786 0.3708 0.08197 0.0
H1838 H 0.23377 0.32189 0.11136 0.0
C1839 C 0.29686 0.34223 0.04772 0.0
C1840 C 0.30897 0.35634 0.029 0.0
C1841 C 0.30314 0.36952 0.01875 0.0
C1842 C 0.28599 0.36928 0.02791 0.0
C1843 C 0.27455 0.35542 0.04684 0.0
C1844 C 0.27959 0.34187 0.0562 0.0
C1845 C 0.26543 0.32901 0.07722 0.0
C1846 C 0.25372 0.30724 0.0685 0.0
C1847 C 0.2765 0.33124 0.10299 0.0
C1848 C 0.25212 0.33793 0.07905 0.0
C1849 C 0.25748 0.35313 0.06143 0.0
C1850 C 0.24846 0.36478 0.06166 0.0
C1851 C 0.23405 0.36112 0.08082 0.0
C1852 C 0.22884 0.34592 0.09945 0.0
C1853 C 0.23748 0.33375 0.09759 0.0
H1854 H 0.73773 0.71288 0.39794 0.0
H1855 H 0.72486 0.67084 0.33547 0.0
H1856 H 0.75139 0.66475 0.35165 0.0
H1857 H 0.7917 0.73369 0.39707 0.0
H1858 H 0.79381 0.73693 0.43187 0.0
H1859 H 0.77439 0.73832 0.41458 0.0
H1860 H 0.74799 0.71087 0.44417 0.0
H1861 H 0.76731 0.70952 0.4616 0.0
H1862 H 0.74736 0.68752 0.44697 0.0
H1863 H 0.77764 0.661 0.37835 0.0
H1864 H 0.80065 0.66075 0.41175 0.0
H1865 H 0.79831 0.70801 0.45296 0.0
C1866 C 0.74058 0.70249 0.38755 0.0
C1867 C 0.72916 0.69224 0.36555 0.0
C1868 C 0.73346 0.67887 0.35237 0.0
C1869 C 0.74852 0.67534 0.36142 0.0
C1870 C 0.75947 0.68565 0.38332 0.0
C1871 C 0.7558 0.69916 0.39593 0.0
C1872 C 0.76935 0.70821 0.41917 0.0
C1873 C 0.78313 0.73062 0.41543 0.0
C1874 C 0.75728 0.70375 0.44446 0.0
C1875 C 0.78083 0.6973 0.41823 0.0
C1876 C 0.77503 0.68429 0.39752 0.0
C1877 C 0.78252 0.67142 0.39435 0.0
C1878 C 0.79573 0.67146 0.41329 0.0
C1879 C 0.8013 0.68431 0.43505 0.0
C1880 C 0.79431 0.69791 0.43667 0.0
H1881 H 0.30341 0.03065 0.38525 0.0
H1882 H 0.35954 0.05656 0.34438 0.0
H1883 H 0.36666 0.09002 0.35762 0.0
H1884 H 0.29216 0.07065 0.3718 0.0
H1885 H 0.28173 0.06864 0.40369 0.0
H1886 H 0.28011 0.0471 0.38832 0.0
H1887 H 0.29718 0.04162 0.42828 0.0
H1888 H 0.29862 0.06294 0.4438 0.0
H1889 H 0.32082 0.06156 0.4392 0.0
H1890 H 0.36928 0.1205 0.38014 0.0
H1891 H 0.36758 0.14404 0.41112 0.0
H1892 H 0.30925 0.09811 0.43531 0.0
C1893 C 0.31703 0.04338 0.37864 0.0
C1894 C 0.33087 0.04098 0.36367 0.0
C1895 C 0.34866 0.05803 0.35576 0.0
C1896 C 0.3528 0.07711 0.36311 0.0
C1897 C 0.33891 0.07895 0.37816 0.0
C1898 C 0.32134 0.06248 0.38574 0.0
C1899 C 0.30957 0.06813 0.40362 0.0
C1900 C 0.28972 0.06334 0.3911 0.0
C1901 C 0.30638 0.05797 0.43029 0.0
C1902 C 0.32347 0.09028 0.4056 0.0
C1903 C 0.34025 0.09639 0.3906 0.0
C1904 C 0.356 0.11594 0.3915 0.0
C1905 C 0.35488 0.1293 0.40895 0.0
C1906 C 0.33818 0.12295 0.42527 0.0
C1907 C 0.32201 0.10344 0.42264 0.0
H1908 H 0.99402 0.28896 0.40543 0.0
H1909 H 0.96908 0.29513 0.33305 0.0
H1910 H 0.93673 0.26562 0.34438 0.0
H1911 H 0.96682 0.23404 0.406 0.0
H1912 H 0.96423 0.23319 0.44088 0.0
H1913 H 0.98552 0.25362 0.42576 0.0
H1914 H 0.97753 0.27843 0.44867 0.0
H1915 H 0.95644 0.25813 0.46401 0.0
H1916 H 0.95324 0.27563 0.44472 0.0
H1917 H 0.90567 0.23811 0.36767 0.0
H1918 H 0.8803 0.21603 0.39964 0.0
H1919 H 0.92706 0.22583 0.45368 0.0
C1920 C 0.98183 0.28394 0.39177 0.0
C1921 C 0.98398 0.29436 0.36844 0.0
C1922 C 0.96773 0.2873 0.35102 0.0
C1923 C 0.94933 0.27054 0.3573 0.0
C1924 C 0.94763 0.2607 0.38072 0.0
C1925 C 0.96363 0.26705 0.39743 0.0
C1926 C 0.95803 0.25461 0.42186 0.0
C1927 C 0.96932 0.24319 0.42372 0.0
C1928 C 0.96151 0.26747 0.44623 0.0
C1929 C 0.93616 0.24073 0.41692 0.0
C1930 C 0.93029 0.24432 0.39311 0.0
C1931 C 0.91023 0.23484 0.38603 0.0
C1932 C 0.89587 0.22215 0.40418 0.0
C1933 C 0.9017 0.21906 0.42903 0.0
C1934 C 0.92216 0.22769 0.43468 0.0
H1935 H 0.05041 0.40141 0.30319 0.0
H1936 H 0.0135 0.39265 0.37049 0.0
H1937 H 0.01073 0.42188 0.35751 0.0
H1938 H 0.07696 0.45605 0.30451 0.0
H1939 H 0.0778 0.45768 0.26951 0.0
H1940 H 0.07795 0.43717 0.28544 0.0
H1941 H 0.04711 0.41239 0.25868 0.0
H1942 H 0.04708 0.43278 0.24249 0.0
H1943 H 0.02515 0.41459 0.25921 0.0
H1944 H 1.0087 0.44973 0.3331 0.0
H1945 H 1.0074 0.4723 0.30009 0.0
H1946 H 0.04849 0.46447 0.25192 0.0
C1947 C 0.04189 0.40574 0.31538 0.0
C1948 C 0.03205 0.39471 0.33775 0.0
C1949 C 0.02115 0.40092 0.35326 0.0
C1950 C 0.01958 0.41753 0.34607 0.0
C1951 C 0.0294 0.42804 0.32369 0.0
C1952 C 0.04054 0.42242 0.3088 0.0
C1953 C 0.049 0.43542 0.28506 0.0
C1954 C 0.07178 0.44729 0.28622 0.0
C1955 C 0.04164 0.42306 0.25989 0.0
C1956 C 0.0403 0.44882 0.28823 0.0
C1957 C 0.0291 0.44451 0.31065 0.0
C1958 C 0.01783 0.45353 0.31585 0.0
C1959 C 0.01731 0.46651 0.29714 0.0
C1960 C 0.02799 0.47028 0.27359 0.0
C1961 C 0.0404 0.46209 0.26993 0.0
H1962 H 0.64692 0.635 0.30385 0.0
H1963 H 0.6109 0.65462 0.34395 0.0
H1964 H 0.58049 0.6242 0.32963 0.0
H1965 H 0.61695 0.61597 0.24899 0.0
H1966 H 0.62095 0.59528 0.24498 0.0
H1967 H 0.63951 0.6175 0.26069 0.0
H1968 H 0.63821 0.59699 0.30112 0.0
H1969 H 0.6195 0.57468 0.28552 0.0
H1970 H 0.61482 0.58154 0.31708 0.0
H1971 H 0.55375 0.59296 0.30605 0.0
H1972 H 0.53425 0.56504 0.27558 0.0
H1973 H 0.5881 0.56536 0.25377 0.0
C1974 C 0.63266 0.63276 0.31003 0.0
C1975 C 0.63132 0.64719 0.32509 0.0
C1976 C 0.61232 0.64373 0.33254 0.0
C1977 C 0.59495 0.62646 0.32451 0.0
C1978 C 0.59679 0.61262 0.30934 0.0
C1979 C 0.61524 0.61557 0.30241 0.0
C1980 C 0.61338 0.59917 0.28481 0.0
C1981 C 0.62327 0.60748 0.25831 0.0
C1982 C 0.62198 0.5874 0.29793 0.0
C1983 C 0.59104 0.5868 0.28226 0.0
C1984 C 0.5816 0.59461 0.2966 0.0
C1985 C 0.561 0.58652 0.29517 0.0
C1986 C 0.54998 0.57055 0.27798 0.0
C1987 C 0.55961 0.56293 0.26245 0.0
C1988 C 0.58027 0.57074 0.26558 0.0
H1989 H 0.36496 0.96892 0.29817 0.0
H1990 H 0.39287 0.01351 0.35829 0.0
H1991 H 0.42594 0.01995 0.34373 0.0
H1992 H 0.39995 0.94998 0.3022 0.0
H1993 H 0.39888 0.94578 0.26761 0.0
H1994 H 0.37765 0.9438 0.28432 0.0
H1995 H 0.37728 0.96964 0.2529 0.0
H1996 H 0.39841 0.97162 0.2361 0.0
H1997 H 0.3994 0.99349 0.24933 0.0
H1998 H 0.45638 0.02415 0.31822 0.0
H1999 H 0.48017 0.02501 0.28537 0.0
H2000 H 0.43169 0.97548 0.2453 0.0
C2001 C 0.37801 0.97985 0.30854 0.0
C2002 C 0.37637 0.99075 0.32932 0.0
C2003 C 0.3938 1.00492 0.34238 0.0
C2004 C 0.41264 0.00866 0.33424 0.0
C2005 C 0.41376 0.99779 0.31338 0.0
C2006 C 0.3968 0.98346 0.301 0.0
C2007 C 0.40182 0.97426 0.27853 0.0
C2008 C 0.39412 0.95214 0.28347 0.0
C2009 C 0.39376 0.97746 0.2527 0.0
C2010 C 0.42424 0.9861 0.27948 0.0
C2011 C 0.431 0.9996 0.2997 0.0
C2012 C 0.45122 0.01335 0.30266 0.0
C2013 C 0.46468 0.01367 0.28404 0.0
C2014 C 0.45782 1.00033 0.26276 0.0
C2015 C 0.43743 0.98591 0.26131 0.0
H2016 H 0.64473 0.01935 0.3103 0.0
H2017 H 0.60741 0.96757 0.35693 0.0
H2018 H 0.5776 0.96811 0.34117 0.0
H2019 H 0.61452 0.04372 0.32023 0.0
H2020 H 0.61932 0.05355 0.28764 0.0
H2021 H 0.63757 0.0499 0.30446 0.0
H2022 H 0.63758 0.02811 0.26637 0.0
H2023 H 0.61942 0.03173 0.24948 0.0
H2024 H 0.61449 0.00699 0.25617 0.0
H2025 H 0.55157 0.97163 0.31448 0.0
H2026 H 0.53273 0.97892 0.28154 0.0
H2027 H 0.58741 0.0308 0.25745 0.0
C2028 C 0.6303 0.00836 0.31755 0.0
C2029 C 0.62834 0.9934 0.33476 0.0
C2030 C 0.60923 0.97924 0.34383 0.0
C2031 C 0.59221 0.97943 0.33498 0.0
C2032 C 0.59461 0.99423 0.31764 0.0
C2033 C 0.61327 0.00867 0.30948 0.0
C2034 C 0.61194 0.02259 0.29019 0.0
C2035 C 0.6214 0.04369 0.3013 0.0
C2036 C 0.62141 0.02232 0.26401 0.0
C2037 C 0.58965 0.01326 0.28784 0.0
C2038 C 0.57978 0.99691 0.30375 0.0
C2039 C 0.55915 0.98471 0.30242 0.0
C2040 C 0.5485 0.98901 0.28378 0.0
C2041 C 0.55855 1.00538 0.26683 0.0
C2042 C 0.57924 0.01809 0.26999 0.0
H2043 H 0.04819 0.65819 0.29848 0.0
H2044 H 0.01048 0.6311 0.3654 0.0
H2045 H 1.00533 0.59825 0.35179 0.0
H2046 H 0.02196 0.62034 0.25354 0.0
H2047 H 0.04367 0.62281 0.23757 0.0
H2048 H 0.04477 0.64383 0.25358 0.0
H2049 H 0.07441 0.64804 0.28152 0.0
H2050 H 0.07333 0.62693 0.26561 0.0
H2051 H 0.07186 0.62748 0.30056 0.0
H2052 H 1.00129 0.56743 0.32658 0.0
H2053 H 1.00045 0.54321 0.29435 0.0
H2054 H 0.04459 0.59191 0.24833 0.0
C2055 C 0.039 0.64536 0.31041 0.0
C2056 C 0.0296 0.64709 0.33286 0.0
C2057 C 0.01783 0.63004 0.34813 0.0
C2058 C 0.01483 0.61135 0.34052 0.0
C2059 C 0.0242 0.61009 0.31803 0.0
C2060 C 0.03637 0.62682 0.30356 0.0
C2061 C 0.04473 0.62178 0.28017 0.0
C2062 C 0.0384 0.62753 0.25473 0.0
C2063 C 0.06743 0.63164 0.28209 0.0
C2064 C 0.03488 0.59954 0.2831 0.0
C2065 C 0.02298 0.59288 0.3049 0.0
C2066 C 0.01092 0.57257 0.30977 0.0
C2067 C 0.01061 0.55888 0.29148 0.0
C2068 C 0.02236 0.56558 0.2687 0.0
C2069 C 0.03527 0.5862 0.26539 0.0
H2070 H 0.36821 0.40183 0.29952 0.0
H2071 H 0.39604 0.38254 0.35649 0.0
H2072 H 0.42919 0.40895 0.34176 0.0
H2073 H 0.40226 0.41232 0.24913 0.0
H2074 H 0.40143 0.4337 0.23756 0.0
H2075 H 0.38033 0.41419 0.25403 0.0
H2076 H 0.38133 0.43968 0.28728 0.0
H2077 H 0.40259 0.45927 0.27099 0.0
H2078 H 0.40382 0.45506 0.30525 0.0
H2079 H 0.45976 0.43599 0.31679 0.0
H2080 H 0.48348 0.45991 0.28458 0.0
H2081 H 0.43502 0.46263 0.2472 0.0
C2082 C 0.38126 0.40326 0.30911 0.0
C2083 C 0.37952 0.39008 0.32913 0.0
C2084 C 0.397 0.3925 0.34115 0.0
C2085 C 0.4159 0.4075 0.33292 0.0
C2086 C 0.41709 0.4202 0.31295 0.0
C2087 C 0.40014 0.41827 0.30143 0.0
C2088 C 0.40518 0.4332 0.27982 0.0
C2089 C 0.39681 0.42272 0.2536 0.0
C2090 C 0.39779 0.44766 0.28623 0.0
C2091 C 0.42762 0.44353 0.28039 0.0
C2092 C 0.43437 0.43598 0.2996 0.0
C2093 C 0.45459 0.44223 0.30202 0.0
C2094 C 0.46803 0.45596 0.28381 0.0
C2095 C 0.46115 0.46324 0.26349 0.0
C2096 C 0.44079 0.45746 0.26264 0.0
H2097 H 0.31275 0.28904 0.40512 0.0
H2098 H 0.34293 0.29422 0.33229 0.0
H2099 H 0.34629 0.26525 0.34442 0.0
H2100 H 0.34189 0.27705 0.4443 0.0
H2101 H 0.32167 0.2599 0.46455 0.0
H2102 H 0.32046 0.27984 0.4488 0.0
H2103 H 0.28702 0.25447 0.42744 0.0
H2104 H 0.2883 0.23441 0.44294 0.0
H2105 H 0.28567 0.23454 0.40811 0.0
H2106 H 0.34932 0.23748 0.36738 0.0
H2107 H 0.35241 0.21507 0.39901 0.0
H2108 H 0.3182 0.22707 0.45485 0.0
C2109 C 0.31989 0.28397 0.39156 0.0
C2110 C 0.32762 0.29393 0.36777 0.0
C2111 C 0.33686 0.2868 0.35061 0.0
C2112 C 0.33877 0.27031 0.35732 0.0
C2113 C 0.33106 0.26088 0.38106 0.0
C2114 C 0.32168 0.26745 0.39779 0.0
C2115 C 0.31547 0.25551 0.42267 0.0
C2116 C 0.32547 0.26887 0.44647 0.0
C2117 C 0.29276 0.24405 0.42544 0.0
C2118 C 0.32337 0.24158 0.41782 0.0
C2119 C 0.3322 0.2447 0.39367 0.0
C2120 C 0.34209 0.23468 0.38611 0.0
C2121 C 0.34363 0.22182 0.40407 0.0
C2122 C 0.33539 0.21918 0.42925 0.0
C2123 C 0.32443 0.22859 0.43559 0.0
H2124 H 0.71028 0.04969 0.39811 0.0
H2125 H 0.74559 0.03893 0.34245 0.0
H2126 H 0.77518 0.07065 0.35497 0.0
H2127 H 0.73563 0.10412 0.3896 0.0
H2128 H 0.73376 0.1083 0.4237 0.0
H2129 H 0.71507 0.08583 0.40839 0.0
H2130 H 0.72109 0.06495 0.4426 0.0
H2131 H 0.73961 0.08731 0.45807 0.0
H2132 H 0.74585 0.06913 0.44729 0.0
H2133 H 0.80188 0.10198 0.37761 0.0
H2134 H 0.82261 0.12864 0.40897 0.0
H2135 H 0.76936 0.11976 0.44755 0.0
C2136 C 0.72416 0.05415 0.38822 0.0
C2137 C 0.72558 0.04182 0.36923 0.0
C2138 C 0.74409 0.04815 0.35697 0.0
C2139 C 0.76099 0.0662 0.36391 0.0
C2140 C 0.75912 0.07793 0.38292 0.0
C2141 C 0.7411 0.07216 0.39477 0.0
C2142 C 0.74318 0.08668 0.4158 0.0
C2143 C 0.7312 0.09683 0.40895 0.0
C2144 C 0.73708 0.0764 0.4425 0.0
C2145 C 0.76528 0.10119 0.41456 0.0
C2146 C 0.77428 0.09607 0.39535 0.0
C2147 C 0.79491 0.10633 0.39236 0.0
C2148 C 0.80661 0.1216 0.4101 0.0
C2149 C 0.79764 0.12638 0.43061 0.0
C2150 C 0.77667 0.11657 0.43194 0.0
H2151 H 0.96982 0.66699 0.38962 0.0
H2152 H 0.98321 0.71761 0.34115 0.0
H2153 H 0.95243 0.71646 0.35619 0.0
H2154 H 0.91473 0.64127 0.38036 0.0
H2155 H 0.91035 0.63233 0.41339 0.0
H2156 H 0.93212 0.63591 0.39636 0.0
H2157 H 0.95438 0.65888 0.43345 0.0
H2158 H 0.93275 0.65537 0.45051 0.0
H2159 H 0.95225 0.68004 0.44267 0.0
H2160 H 0.92295 0.71295 0.38278 0.0
H2161 H 0.89741 0.70629 0.41624 0.0
H2162 H 0.90142 0.65567 0.44282 0.0
C2163 C 0.96602 0.67753 0.3817 0.0
C2164 C 0.97885 0.69237 0.36423 0.0
C2165 C 0.97346 0.706 0.3544 0.0
C2166 C 0.95602 0.70546 0.36285 0.0
C2167 C 0.94385 0.69087 0.3806 0.0
C2168 C 0.94847 0.6769 0.38945 0.0
C2169 C 0.93362 0.66335 0.4094 0.0
C2170 C 0.92202 0.64195 0.39926 0.0
C2171 C 0.94387 0.6645 0.43554 0.0
C2172 C 0.92043 0.6724 0.41134 0.0
C2173 C 0.92643 0.68824 0.39461 0.0
C2174 C 0.9178 0.70024 0.39546 0.0
C2175 C 0.9032 0.6963 0.41441 0.0
C2176 C 0.8974 0.68048 0.4322 0.0
C2177 C 0.90554 0.66792 0.42958 0.0
H2178 H 0.40654 0.05254 0.73388 0.0
H2179 H 0.39942 0.01981 0.66275 0.0
H2180 H 0.42884 0.017 0.67445 0.0
H2181 H 0.46148 0.07985 0.73425 0.0
H2182 H 0.46258 0.07861 0.76918 0.0
H2183 H 0.4421 0.07935 0.75394 0.0
H2184 H 0.41726 0.04691 0.7776 0.0
H2185 H 0.43762 0.04624 0.79307 0.0
H2186 H 0.41985 0.02531 0.77427 0.0
H2187 H 0.4567 0.01403 0.69769 0.0
H2188 H 0.47922 0.01135 0.72963 0.0
H2189 H 0.46997 0.049 0.78278 0.0
C2190 C 0.41133 0.04503 0.72054 0.0
C2191 C 0.40065 0.03637 0.6974 0.0
C2192 C 0.40741 0.02665 0.68053 0.0
C2193 C 0.42415 0.02501 0.68702 0.0
C2194 C 0.43425 0.03356 0.71019 0.0
C2195 C 0.42816 0.04361 0.72649 0.0
C2196 C 0.44084 0.05075 0.75081 0.0
C2197 C 0.45244 0.07349 0.75211 0.0
C2198 C 0.42814 0.04176 0.77537 0.0
C2199 C 0.45462 0.0426 0.7462 0.0
C2200 C 0.45073 0.03275 0.72267 0.0
C2201 C 0.46017 0.02213 0.71585 0.0
C2202 C 0.47314 0.02084 0.73397 0.0
C2203 C 0.47656 0.03014 0.75858 0.0
C2204 C 0.46791 0.04197 0.76396 0.0
H2205 H 0.98229 0.36458 0.73529 0.0
H2206 H 0.01222 0.39412 0.6641 0.0
H2207 H 0.01578 0.4256 0.68075 0.0
H2208 H 0.95503 0.3912 0.74358 0.0
H2209 H 0.95735 0.39182 0.77851 0.0
H2210 H 0.95652 0.37167 0.76031 0.0
H2211 H 0.98988 0.37892 0.78103 0.0
H2212 H 0.99075 0.39898 0.79935 0.0
H2213 H 0.01117 0.40346 0.77854 0.0
H2214 H 0.01853 0.45476 0.70771 0.0
H2215 H 0.02011 0.478 0.74183 0.0
H2216 H 0.98559 0.4282 0.79304 0.0
C2217 C 0.9895 0.37764 0.72311 0.0
C2218 C 0.99708 0.37694 0.69845 0.0
C2219 C 1.0063 0.39433 0.68306 0.0
C2220 C 1.00835 0.41226 0.69236 0.0
C2221 C 1.00076 0.41246 0.71687 0.0
C2222 C 0.99134 0.3955 0.73188 0.0
C2223 C 0.9848 0.39954 0.75773 0.0
C2224 C 0.96207 0.38787 0.76016 0.0
C2225 C 0.99475 0.39496 0.78049 0.0
C2226 C 0.99249 0.42155 0.75535 0.0
C2227 C 1.00163 0.42884 0.73168 0.0
C2228 C 0.01113 0.44911 0.72613 0.0
C2229 C 0.01183 0.46222 0.74555 0.0
C2230 C 1.00309 0.45503 0.77023 0.0
C2231 C 0.99264 0.43431 0.77454 0.0
H2232 H 0.65318 0.60857 0.70925 0.0
H2233 H 0.62937 0.64603 0.6868 0.0
H2234 H 0.59591 0.62008 0.70098 0.0
H2235 H 0.60821 0.55908 0.69619 0.0
H2236 H 0.61211 0.54851 0.72523 0.0
H2237 H 0.63304 0.56789 0.70811 0.0
H2238 H 0.64473 0.58891 0.75033 0.0
H2239 H 0.62402 0.56956 0.76751 0.0
H2240 H 0.62777 0.59431 0.76736 0.0
H2241 H 0.56596 0.59176 0.72203 0.0
H2242 H 0.54366 0.56628 0.7535 0.0
H2243 H 0.58755 0.54853 0.76544 0.0
C2244 C 0.64072 0.61092 0.70646 0.0
C2245 C 0.64361 0.62897 0.69627 0.0
C2246 C 0.62728 0.63208 0.69412 0.0
C2247 C 0.60824 0.61739 0.702 0.0
C2248 C 0.60586 0.5998 0.71244 0.0
C2249 C 0.62175 0.59664 0.715 0.0
C2250 C 0.61606 0.57809 0.7307 0.0
C2251 C 0.61744 0.56247 0.71406 0.0
C2252 C 0.6289 0.58302 0.75543 0.0
C2253 C 0.59467 0.5716 0.73719 0.0
C2254 C 0.58886 0.58396 0.72582 0.0
C2255 C 0.57022 0.58177 0.73062 0.0
C2256 C 0.55755 0.56715 0.74831 0.0
C2257 C 0.56372 0.55516 0.76125 0.0
C2258 C 0.58226 0.55707 0.75503 0.0
H2259 H 0.71318 0.7265 0.62653 0.0
H2260 H 0.68716 0.72859 0.70001 0.0
H2261 H 0.68463 0.75734 0.68414 0.0
H2262 H 0.74236 0.78068 0.61708 0.0
H2263 H 0.73867 0.77844 0.58235 0.0
H2264 H 0.73945 0.75904 0.60042 0.0
H2265 H 0.70501 0.73339 0.58182 0.0
H2266 H 0.70415 0.75266 0.5637 0.0
H2267 H 0.68436 0.73752 0.58584 0.0
H2268 H 0.68128 0.78346 0.65714 0.0
H2269 H 0.67859 0.80442 0.62292 0.0
H2270 H 0.71056 0.78731 0.56973 0.0
C2271 C 0.70715 0.73315 0.6394 0.0
C2272 C 0.70024 0.72529 0.66441 0.0
C2273 C 0.69257 0.73445 0.68078 0.0
C2274 C 0.6911 0.75078 0.67191 0.0
C2275 C 0.69786 0.75804 0.64691 0.0
C2276 C 0.70605 0.74966 0.63112 0.0
C2277 C 0.71184 0.75974 0.60491 0.0
C2278 C 0.73442 0.7701 0.60097 0.0
C2279 C 0.70067 0.74495 0.58278 0.0
C2280 C 0.70497 0.77464 0.6079 0.0
C2281 C 0.69693 0.77356 0.6322 0.0
C2282 C 0.68792 0.78469 0.63826 0.0
C2283 C 0.68657 0.79669 0.61875 0.0
C2284 C 0.69422 0.79748 0.5935 0.0
C2285 C 0.70429 0.78692 0.58865 0.0
H2286 H 0.2857 0.9921 0.64116 0.0
H2287 H 0.3067 0.96412 0.69544 0.0
H2288 H 0.2794 0.93112 0.6817 0.0
H2289 H 0.23207 0.95619 0.64598 0.0
H2290 H 0.22819 0.95756 0.61164 0.0
H2291 H 0.24753 0.97879 0.6284 0.0
H2292 H 0.27351 0.98022 0.59569 0.0
H2293 H 0.25426 0.95917 0.57875 0.0
H2294 H 0.27565 0.95848 0.59076 0.0
H2295 H 0.25113 0.90089 0.65893 0.0
H2296 H 0.22755 0.87705 0.62662 0.0
H2297 H 0.22603 0.92514 0.58674 0.0
C2298 C 0.28429 0.97905 0.65064 0.0
C2299 C 0.29816 0.9807 0.66969 0.0
C2300 C 0.29613 0.96322 0.681 0.0
C2301 C 0.28061 0.94442 0.67338 0.0
C2302 C 0.26728 0.94332 0.65431 0.0
C2303 C 0.26911 0.96024 0.643 0.0
C2304 C 0.25435 0.95519 0.621 0.0
C2305 C 0.23966 0.96236 0.62713 0.0
C2306 C 0.26509 0.96376 0.59503 0.0
C2307 C 0.24413 0.93278 0.62127 0.0
C2308 C 0.25148 0.92612 0.64091 0.0
C2309 C 0.2451 0.90598 0.64376 0.0
C2310 C 0.23154 0.89248 0.6255 0.0
C2311 C 0.22472 0.89921 0.6045 0.0
C2312 C 0.23067 0.91955 0.60297 0.0
H2313 H 0.03666 0.30176 0.64059 0.0
H2314 H 0.064 0.35925 0.67809 0.0
H2315 H 0.09721 0.36475 0.66642 0.0
H2316 H 0.07572 0.2892 0.65552 0.0
H2317 H 0.0736 0.27821 0.62398 0.0
H2318 H 0.05225 0.27751 0.63863 0.0
H2319 H 0.04769 0.29443 0.59787 0.0
H2320 H 0.06882 0.29492 0.58306 0.0
H2321 H 0.06819 0.31758 0.58674 0.0
H2322 H 0.1275 0.36526 0.64699 0.0
H2323 H 0.15113 0.36227 0.61769 0.0
H2324 H 0.10403 0.30497 0.59198 0.0
C2325 C 0.04967 0.31529 0.64691 0.0
C2326 C 0.04774 0.32996 0.66062 0.0
C2327 C 0.06511 0.34773 0.66778 0.0
C2328 C 0.08406 0.35094 0.66134 0.0
C2329 C 0.08547 0.33628 0.64755 0.0
C2330 C 0.06868 0.31886 0.64024 0.0
C2331 C 0.07404 0.30647 0.62297 0.0
C2332 C 0.06857 0.28667 0.63606 0.0
C2333 C 0.0641 0.30317 0.59608 0.0
C2334 C 0.09638 0.31979 0.6212 0.0
C2335 C 0.10279 0.33676 0.63592 0.0
C2336 C 0.12266 0.35188 0.63575 0.0
C2337 C 0.13608 0.34999 0.61928 0.0
C2338 C 0.12953 0.33323 0.60298 0.0
C2339 C 0.10956 0.3177 0.60476 0.0
H2340 H 0.31676 0.35106 0.64385 0.0
H2341 H 0.28117 0.29118 0.67303 0.0
H2342 H 0.25063 0.29114 0.65947 0.0
H2343 H 0.2819 0.36826 0.66233 0.0
H2344 H 0.28735 0.38325 0.6335 0.0
H2345 H 0.30613 0.37907 0.64766 0.0
H2346 H 0.31033 0.36541 0.60361 0.0
H2347 H 0.29173 0.3697 0.58934 0.0
H2348 H 0.2889 0.34532 0.5881 0.0
H2349 H 0.22405 0.29648 0.63745 0.0
H2350 H 0.20487 0.30669 0.60916 0.0
H2351 H 0.25773 0.36386 0.59802 0.0
C2352 C 0.30253 0.33805 0.64776 0.0
C2353 C 0.30137 0.32113 0.65951 0.0
C2354 C 0.28244 0.30436 0.66415 0.0
C2355 C 0.26499 0.30422 0.65656 0.0
C2356 C 0.26665 0.32109 0.64474 0.0
C2357 C 0.28499 0.33777 0.64064 0.0
C2358 C 0.28293 0.35364 0.6264 0.0
C2359 C 0.29 0.37215 0.6435 0.0
C2360 C 0.29413 0.35881 0.60033 0.0
C2361 C 0.26068 0.3431 0.62232 0.0
C2362 C 0.25142 0.32437 0.6331 0.0
C2363 C 0.23112 0.31128 0.62941 0.0
C2364 C 0.22025 0.31724 0.6135 0.0
C2365 C 0.22973 0.33609 0.60146 0.0
C2366 C 0.24999 0.34938 0.60706 0.0
H2367 H 0.72386 0.9817 0.65144 0.0
H2368 H 0.66171 0.96029 0.66693 0.0
H2369 H 0.65344 0.92673 0.65234 0.0
H2370 H 0.71531 0.95614 0.59249 0.0
H2371 H 0.73561 0.95144 0.59609 0.0
H2372 H 0.73672 0.9726 0.61168 0.0
H2373 H 0.74256 0.9605 0.65606 0.0
H2374 H 0.74109 0.93907 0.64054 0.0
H2375 H 0.72496 0.93599 0.66741 0.0
H2376 H 0.65168 0.89612 0.63306 0.0
H2377 H 0.65578 0.87291 0.60439 0.0
H2378 H 0.71866 0.9148 0.59887 0.0
C2379 C 0.70858 0.96981 0.65227 0.0
C2380 C 0.69343 0.97343 0.66069 0.0
C2381 C 0.67352 0.95773 0.6607 0.0
C2382 C 0.66873 0.93861 0.65266 0.0
C2383 C 0.684 0.93549 0.64434 0.0
C2384 C 0.70349 0.95076 0.64369 0.0
C2385 C 0.71673 0.94426 0.63064 0.0
C2386 C 0.72666 0.95685 0.60628 0.0
C2387 C 0.73225 0.945 0.64982 0.0
C2388 C 0.70162 0.92307 0.62355 0.0
C2389 C 0.68289 0.9181 0.63225 0.0
C2390 C 0.66631 0.89975 0.62652 0.0
C2391 C 0.66878 0.88654 0.61049 0.0
C2392 C 0.68761 0.89187 0.60013 0.0
C2393 C 0.70427 0.91011 0.60739 0.0
H2394 H 0.04175 0.74528 0.65592 0.0
H2395 H 0.05995 0.70157 0.66648 0.0
H2396 H 0.09386 0.72594 0.65198 0.0
H2397 H 0.06707 0.76319 0.59681 0.0
H2398 H 0.07347 0.78855 0.60215 0.0
H2399 H 0.0518 0.76881 0.61737 0.0
H2400 H 0.06524 0.78505 0.66241 0.0
H2401 H 0.08713 0.8047 0.64724 0.0
H2402 H 0.08949 0.79018 0.67279 0.0
H2403 H 0.12509 0.75415 0.63319 0.0
H2404 H 0.14925 0.78181 0.6057 0.0
H2405 H 0.11043 0.80654 0.60454 0.0
C2406 C 0.05305 0.74106 0.65573 0.0
C2407 C 0.04838 0.72168 0.66274 0.0
C2408 C 0.0633 0.71641 0.66138 0.0
C2409 C 0.08263 0.7302 0.65335 0.0
C2410 C 0.0868 0.74919 0.64635 0.0
C2411 C 0.07233 0.75453 0.64707 0.0
C2412 C 0.07991 0.77491 0.63524 0.0
C2413 C 0.06732 0.77379 0.61149 0.0
C2414 C 0.08048 0.78958 0.65564 0.0
C2415 C 0.10072 0.78001 0.62733 0.0
C2416 C 0.10459 0.7652 0.63453 0.0
C2417 C 0.12235 0.76599 0.62785 0.0
C2418 C 0.13612 0.78186 0.61249 0.0
C2419 C 0.13197 0.79659 0.60378 0.0
C2420 C 0.11427 0.79587 0.61187 0.0
H2421 H 0.97303 0.61001 0.7131 0.0
H2422 H 0.03544 0.65345 0.70552 0.0
H2423 H 0.04421 0.62839 0.71925 0.0
H2424 H 0.97884 0.59027 0.77162 0.0
H2425 H 0.95967 0.56518 0.76491 0.0
H2426 H 0.95846 0.58551 0.7504 0.0
H2427 H 0.95633 0.57041 0.70475 0.0
H2428 H 0.95791 0.55019 0.71924 0.0
H2429 H 0.97544 0.56526 0.69459 0.0
H2430 H 0.04634 0.59941 0.73704 0.0
H2431 H 0.04184 0.57111 0.76392 0.0
H2432 H 0.97831 0.54709 0.76269 0.0
C2433 C 0.9885 0.61405 0.71379 0.0
C2434 C 1.00358 0.63355 0.70785 0.0
C2435 C 0.02369 0.63854 0.70983 0.0
C2436 C 0.02879 0.62435 0.7174 0.0
C2437 C 0.01361 0.60524 0.72331 0.0
C2438 C 0.99387 0.60017 0.72201 0.0
C2439 C 0.98058 0.57953 0.7328 0.0
C2440 C 0.9687 0.58017 0.75633 0.0
C2441 C 0.96675 0.56552 0.71157 0.0
C2442 C 0.99591 0.57395 0.74086 0.0
C2443 C 0.01486 0.58877 0.73456 0.0
C2444 C 0.03155 0.58757 0.74166 0.0
C2445 C 0.02889 0.57133 0.75665 0.0
C2446 C 0.00972 0.55664 0.76463 0.0
C2447 C 0.99304 0.55771 0.75592 0.0
H2448 H 0.38361 0.38146 0.72612 0.0
H2449 H 0.4222 0.37144 0.67551 0.0
H2450 H 0.45129 0.40177 0.69259 0.0
H2451 H 0.41125 0.43607 0.72044 0.0
H2452 H 0.40666 0.43942 0.75388 0.0
H2453 H 0.3889 0.41772 0.73626 0.0
H2454 H 0.39101 0.3953 0.77187 0.0
H2455 H 0.40872 0.41689 0.78955 0.0
H2456 H 0.41485 0.39832 0.78031 0.0
H2457 H 0.47671 0.43147 0.71937 0.0
H2458 H 0.4953 0.45775 0.75218 0.0
H2459 H 0.43962 0.44984 0.78161 0.0
C2460 C 0.39815 0.3858 0.71838 0.0
C2461 C 0.40065 0.37408 0.69953 0.0
C2462 C 0.41993 0.38025 0.6899 0.0
C2463 C 0.43655 0.39747 0.69947 0.0
C2464 C 0.43363 0.40861 0.71832 0.0
C2465 C 0.41484 0.40313 0.72736 0.0
C2466 C 0.41566 0.41723 0.74816 0.0
C2467 C 0.40499 0.42827 0.73913 0.0
C2468 C 0.40706 0.40628 0.77399 0.0
C2469 C 0.43785 0.4311 0.75005 0.0
C2470 C 0.44807 0.42601 0.73273 0.0
C2471 C 0.46882 0.43581 0.73269 0.0
C2472 C 0.4793 0.45082 0.75129 0.0
C2473 C 0.46899 0.45584 0.76963 0.0
C2474 C 0.44803 0.44627 0.76811 0.0
H2475 H 0.6452 0.00568 0.73093 0.0
H2476 H 0.65779 0.05214 0.67505 0.0
H2477 H 0.62678 0.0515 0.68767 0.0
H2478 H 0.59101 0.97834 0.72193 0.0
H2479 H 0.58643 0.97216 0.75596 0.0
H2480 H 0.60876 0.97534 0.74103 0.0
H2481 H 0.63003 1.00185 0.77556 0.0
H2482 H 0.60779 0.99858 0.79068 0.0
H2483 H 0.62662 0.02286 0.78021 0.0
H2484 H 0.5956 0.04781 0.71008 0.0
H2485 H 0.56864 0.04214 0.74072 0.0
H2486 H 0.57565 0.99665 0.77934 0.0
C2487 C 0.64134 0.01558 0.72111 0.0
C2488 C 0.65396 0.02898 0.70199 0.0
C2489 C 0.64835 0.04171 0.68971 0.0
C2490 C 0.63072 0.0414 0.6967 0.0
C2491 C 0.61865 0.02807 0.71577 0.0
C2492 C 0.62374 0.01531 0.72766 0.0
C2493 C 0.60886 1.00304 0.74843 0.0
C2494 C 0.59813 0.98091 0.74141 0.0
C2495 C 0.61892 0.00682 0.7753 0.0
C2496 C 0.59489 0.01124 0.74697 0.0
C2497 C 0.60061 0.02557 0.72794 0.0
C2498 C 0.59081 0.03635 0.72472 0.0
C2499 C 0.57536 0.03292 0.74203 0.0
C2500 C 0.56994 0.01889 0.76233 0.0
C2501 C 0.57934 0.00739 0.76391 0.0
loop_
_geom_bond_atom_site_label_1
_geom_bond_atom_site_label_2
_geom_bond_distance
_geom_bond_site_symmetry_2
_ccdc_geom_bond_type
In0 O1 2.294 1_455 S
In0 O2 2.326 . S
In0 O6 2.266 1_455 S
In0 O7 2.326 1_454 S
In0 O8 2.266 1_554 S
In0 O9 2.326 1_454 S
In0 O11 2.294 . S
In0 O12 2.326 . S
O1 In0 2.294 1_655 S
O1 C10 1.240 1_655 S
O2 In0 2.326 . S
O2 C10 1.252 . S
C3 O6 1.252 1_556 S
C3 O7 1.260 . S
C4 O11 1.240 . S
C4 O12 1.252 . S
C5 O8 1.252 . S
C5 O9 1.260 1_455 S
O6 In0 2.266 1_655 S
O6 C3 1.252 1_554 S
O7 In0 2.326 1_656 S
O7 C3 1.260 . S
O8 In0 2.266 1_556 S
O8 C5 1.252 . S
O9 In0 2.326 1_656 S
O9 C5 1.260 1_655 S
C10 O1 1.240 1_455 S
C10 O2 1.252 . S
O11 In0 2.294 . S
O11 C4 1.240 . S
O12 In0 2.326 . S
O12 C4 1.252 . S
In13 O14 2.294 . S
In13 O15 2.326 . S
In13 O19 2.266 . S
In13 O20 2.326 1_554 S
In13 O21 2.266 1_554 S
In13 O22 2.326 1_554 S
In13 O24 2.294 . S
In13 O25 2.326 . S
O14 In13 2.294 . S
O14 C23 1.240 . S
O15 In13 2.326 . S
O15 C23 1.252 . S
C16 O19 1.252 1_556 S
C16 O20 1.260 . S
C17 O24 1.240 . S
C17 O25 1.252 . S
C18 O21 1.252 . S
C18 O22 1.260 . S
O19 In13 2.266 . S
O19 C16 1.252 1_554 S
O20 In13 2.326 1_556 S
O20 C16 1.260 . S
O21 In13 2.266 1_556 S
O21 C18 1.252 . S
O22 In13 2.326 1_556 S
O22 C18 1.260 . S
C23 O14 1.240 . S
C23 O15 1.252 . S
O24 In13 2.294 . S
O24 C17 1.240 . S
O25 In13 2.326 . S
O25 C17 1.252 . S
In26 O27 2.294 . S
In26 O28 2.326 1_554 S
In26 O32 2.266 . S
In26 O33 2.326 1_545 S
In26 O34 2.266 1_545 S
In26 O35 2.326 1_545 S
In26 O37 2.294 1_544 S
In26 O38 2.326 1_554 S
O27 In26 2.294 . S
O27 C36 1.240 1_554 S
O28 In26 2.326 1_556 S
O28 C36 1.252 . S
C29 O32 1.252 . S
C29 O33 1.260 1_545 S
C30 O37 1.240 1_545 S
C30 O38 1.252 . S
C31 O34 1.252 . S
C31 O35 1.260 . S
O32 In26 2.266 . S
O32 C29 1.252 . S
O33 In26 2.326 1_565 S
O33 C29 1.260 1_565 S
O34 In26 2.266 1_565 S
O34 C31 1.252 . S
O35 In26 2.326 1_565 S
O35 C31 1.260 . S
C36 O27 1.240 1_556 S
C36 O28 1.252 . S
O37 In26 2.294 1_566 S
O37 C30 1.240 1_565 S
O38 In26 2.326 1_556 S
O38 C30 1.252 . S
In39 O40 2.294 1_554 S
In39 O41 2.326 1_454 S
In39 O45 2.266 . S
In39 O46 2.326 . S
In39 O47 2.266 1_455 S
In39 O48 2.326 . S
In39 O50 2.294 1_455 S
In39 O51 2.326 1_454 S
O40 In39 2.294 1_556 S
O40 C49 1.240 . S
O41 In39 2.326 1_656 S
O41 C49 1.252 1_655 S
C42 O45 1.252 . S
C42 O46 1.260 . S
C43 O50 1.240 1_556 S
C43 O51 1.252 . S
C44 O47 1.252 1_455 S
C44 O48 1.260 . S
O45 In39 2.266 . S
O45 C42 1.252 . S
O46 In39 2.326 . S
O46 C42 1.260 . S
O47 In39 2.266 1_655 S
O47 C44 1.252 1_655 S
O48 In39 2.326 . S
O48 C44 1.260 . S
C49 O40 1.240 . S
C49 O41 1.252 1_455 S
O50 In39 2.294 1_655 S
O50 C43 1.240 1_554 S
O51 In39 2.326 1_656 S
O51 C43 1.252 . S
In52 O53 2.294 1_554 S
In52 O54 2.326 1_554 S
In52 O58 2.266 . S
In52 O59 2.326 . S
In52 O60 2.266 . S
In52 O61 2.326 . S
In52 O63 2.294 . S
In52 O64 2.326 1_554 S
O53 In52 2.294 1_556 S
O53 C62 1.240 . S
O54 In52 2.326 1_556 S
O54 C62 1.252 . S
C55 O58 1.252 . S
C55 O59 1.260 . S
C56 O63 1.240 1_556 S
C56 O64 1.252 . S
C57 O60 1.252 . S
C57 O61 1.260 . S
O58 In52 2.266 . S
O58 C55 1.252 . S
O59 In52 2.326 . S
O59 C55 1.260 . S
O60 In52 2.266 . S
O60 C57 1.252 . S
O61 In52 2.326 . S
O61 C57 1.260 . S
C62 O53 1.240 . S
C62 O54 1.252 . S
O63 In52 2.294 . S
O63 C56 1.240 1_554 S
O64 In52 2.326 1_556 S
O64 C56 1.252 . S
In65 O66 2.294 . S
In65 O67 2.326 1_545 S
In65 O71 2.266 . S
In65 O72 2.326 1_554 S
In65 O73 2.266 1_544 S
In65 O74 2.326 1_554 S
In65 O76 2.294 1_545 S
In65 O77 2.326 1_545 S
O66 In65 2.294 . S
O66 C75 1.240 . S
O67 In65 2.326 1_565 S
O67 C75 1.252 1_565 S
C68 O71 1.252 1_556 S
C68 O72 1.260 . S
C69 O76 1.240 . S
C69 O77 1.252 . S
C70 O73 1.252 1_545 S
C70 O74 1.260 . S
O71 In65 2.266 . S
O71 C68 1.252 1_554 S
O72 In65 2.326 1_556 S
O72 C68 1.260 . S
O73 In65 2.266 1_566 S
O73 C70 1.252 1_565 S
O74 In65 2.326 1_556 S
O74 C70 1.260 . S
C75 O66 1.240 . S
C75 O67 1.252 1_545 S
O76 In65 2.294 1_565 S
O76 C69 1.240 . S
O77 In65 2.326 1_565 S
O77 C69 1.252 . S
In78 O79 2.294 . S
In78 O80 2.326 . S
In78 O84 2.266 . S
In78 O85 2.326 . S
In78 O86 2.266 . S
In78 O87 2.326 . S
In78 O89 2.294 . S
In78 O90 2.326 . S
O79 In78 2.294 . S
O79 C88 1.240 . S
O80 In78 2.326 . S
O80 C88 1.252 . S
C81 O84 1.252 . S
C81 O85 1.260 . S
C82 O89 1.240 . S
C82 O90 1.252 . S
C83 O86 1.252 . S
C83 O87 1.260 . S
O84 In78 2.266 . S
O84 C81 1.252 . S
O85 In78 2.326 . S
O85 C81 1.260 . S
O86 In78 2.266 . S
O86 C83 1.252 . S
O87 In78 2.326 . S
O87 C83 1.260 . S
C88 O79 1.240 . S
C88 O80 1.252 . S
O89 In78 2.294 . S
O89 C82 1.240 . S
O90 In78 2.326 . S
O90 C82 1.252 . S
In91 O92 2.294 . S
In91 O93 2.326 . S
In91 O97 2.266 . S
In91 O98 2.326 1_565 S
In91 O99 2.266 . S
In91 O100 2.326 . S
In91 O102 2.294 1_565 S
In91 O103 2.326 1_565 S
O92 In91 2.294 . S
O92 C101 1.240 . S
O93 In91 2.326 . S
O93 C101 1.252 . S
C94 O97 1.252 . S
C94 O98 1.263 1_565 S
C95 O102 1.240 . S
C95 O103 1.252 . S
C96 O99 1.252 . S
C96 O100 1.260 . S
O97 In91 2.266 . S
O97 C94 1.252 . S
O98 In91 2.326 1_545 S
O98 C94 1.263 1_545 S
O99 In91 2.266 . S
O99 C96 1.252 . S
O100 In91 2.326 . S
O100 C96 1.260 . S
C101 O92 1.240 . S
C101 O93 1.252 . S
O102 In91 2.294 1_545 S
O102 C95 1.240 . S
O103 In91 2.326 1_545 S
O103 C95 1.252 . S
In104 O105 2.294 . S
In104 O106 2.326 . S
In104 O110 2.266 . S
In104 O111 2.326 . S
In104 O112 2.266 1_455 S
In104 O113 2.344 . S
In104 O115 2.294 . S
In104 O116 2.326 . S
O105 In104 2.294 . S
O105 C114 1.240 . S
O106 In104 2.326 . S
O106 C114 1.252 . S
C107 O110 1.252 . S
C107 O111 1.260 . S
C108 O115 1.240 . S
C108 O116 1.252 . S
C109 O112 1.252 . S
C109 O113 1.260 1_655 S
O110 In104 2.266 . S
O110 C107 1.252 . S
O111 In104 2.326 . S
O111 C107 1.260 . S
O112 In104 2.266 1_655 S
O112 C109 1.252 . S
O113 In104 2.344 . S
O113 C109 1.260 1_455 S
C114 O105 1.240 . S
C114 O106 1.252 . S
O115 In104 2.294 . S
O115 C108 1.240 . S
O116 In104 2.326 . S
O116 C108 1.252 . S
In117 O118 2.294 . S
In117 O119 2.326 . S
In117 O123 2.266 1_565 S
In117 O124 2.326 1_565 S
In117 O125 2.266 . S
In117 O126 2.326 . S
In117 O128 2.294 . S
In117 O129 2.326 . S
O118 In117 2.294 . S
O118 C127 1.240 . S
O119 In117 2.326 . S
O119 C127 1.252 . S
C120 O123 1.252 . S
C120 O124 1.260 . S
C121 O128 1.240 . S
C121 O129 1.252 . S
C122 O125 1.252 . S
C122 O126 1.260 . S
O123 In117 2.266 1_545 S
O123 C120 1.252 . S
O124 In117 2.326 1_545 S
O124 C120 1.260 . S
O125 In117 2.266 . S
O125 C122 1.252 . S
O126 In117 2.326 . S
O126 C122 1.260 . S
C127 O118 1.240 . S
C127 O119 1.252 . S
O128 In117 2.294 . S
O128 C121 1.240 . S
O129 In117 2.326 . S
O129 C121 1.252 . S
In130 O131 2.294 . S
In130 O132 2.326 . S
In130 O136 2.266 1_455 S
In130 O137 2.330 . S
In130 O138 2.266 . S
In130 O139 2.326 . S
In130 O141 2.294 . S
In130 O142 2.326 . S
O131 In130 2.294 . S
O131 C140 1.240 . S
O132 In130 2.326 . S
O132 C140 1.252 . S
C133 O136 1.252 . S
C133 O137 1.254 1_655 S
C134 O141 1.240 . S
C134 O142 1.252 . S
C135 O138 1.252 . S
C135 O139 1.260 . S
O136 In130 2.266 1_655 S
O136 C133 1.252 . S
O137 In130 2.330 . S
O137 C133 1.254 1_455 S
O138 In130 2.266 . S
O138 C135 1.252 . S
O139 In130 2.326 . S
O139 C135 1.260 . S
C140 O131 1.240 . S
C140 O132 1.252 . S
O141 In130 2.294 . S
O141 C134 1.240 . S
O142 In130 2.326 . S
O142 C134 1.252 . S
In143 O144 2.294 . S
In143 O145 2.326 . S
In143 O149 2.266 . S
In143 O150 2.326 . S
In143 O151 2.266 . S
In143 O152 2.326 . S
In143 O154 2.294 . S
In143 O155 2.326 . S
O144 In143 2.294 . S
O144 C153 1.240 . S
O145 In143 2.326 . S
O145 C153 1.252 . S
C146 O149 1.252 . S
C146 O150 1.260 . S
C147 O154 1.240 . S
C147 O155 1.252 . S
C148 O151 1.252 . S
C148 O152 1.260 . S
O149 In143 2.266 . S
O149 C146 1.252 . S
O150 In143 2.326 . S
O150 C146 1.260 . S
O151 In143 2.266 . S
O151 C148 1.252 . S
O152 In143 2.326 . S
O152 C148 1.260 . S
C153 O144 1.240 . S
C153 O145 1.252 . S
O154 In143 2.294 . S
O154 C147 1.240 . S
O155 In143 2.326 . S
O155 C147 1.252 . S
In156 O157 2.294 . S
In156 O158 2.326 . S
In156 O162 2.266 . S
In156 O163 2.326 . S
In156 O164 2.243 1_545 S
In156 O165 2.362 . S
In156 O167 2.294 . S
In156 O168 2.326 . S
O157 In156 2.294 . S
O157 C166 1.240 . S
O158 In156 2.326 . S
O158 C166 1.252 . S
C159 O162 1.252 . S
C159 O163 1.260 . S
C160 O167 1.240 . S
C160 O168 1.252 . S
C161 O164 1.292 . S
C161 O165 1.261 1_565 S
O162 In156 2.266 . S
O162 C159 1.252 . S
O163 In156 2.326 . S
O163 C159 1.260 . S
O164 In156 2.243 1_565 S
O164 C161 1.292 . S
O165 In156 2.362 . S
O165 C161 1.261 1_545 S
C166 O157 1.240 . S
C166 O158 1.252 . S
O167 In156 2.294 . S
O167 C160 1.240 . S
O168 In156 2.326 . S
O168 C160 1.252 . S
In169 O170 2.294 . S
In169 O171 2.326 . S
In169 O175 2.266 . S
In169 O176 2.326 . S
In169 O177 2.266 1_655 S
In169 O178 2.326 1_655 S
In169 O180 2.294 . S
In169 O181 2.326 . S
O170 In169 2.294 . S
O170 C179 1.240 . S
O171 In169 2.326 . S
O171 C179 1.252 . S
C172 O175 1.252 . S
C172 O176 1.260 . S
C173 O180 1.240 . S
C173 O181 1.252 . S
C174 O177 1.252 . S
C174 O178 1.260 . S
O175 In169 2.266 . S
O175 C172 1.252 . S
O176 In169 2.326 . S
O176 C172 1.260 . S
O177 In169 2.266 1_455 S
O177 C174 1.252 . S
O178 In169 2.326 1_455 S
O178 C174 1.260 . S
C179 O170 1.240 . S
C179 O171 1.252 . S
O180 In169 2.294 . S
O180 C173 1.240 . S
O181 In169 2.326 . S
O181 C173 1.252 . S
In182 O183 2.294 . S
In182 O184 2.326 . S
In182 O188 2.266 . S
In182 O189 2.326 . S
In182 O190 2.266 . S
In182 O191 2.326 . S
In182 O193 2.294 . S
In182 O194 2.326 . S
O183 In182 2.294 . S
O183 C192 1.240 . S
O184 In182 2.326 . S
O184 C192 1.252 . S
C185 O188 1.252 . S
C185 O189 1.260 . S
C186 O193 1.240 . S
C186 O194 1.252 . S
C187 O190 1.252 . S
C187 O191 1.260 . S
O188 In182 2.266 . S
O188 C185 1.252 . S
O189 In182 2.326 . S
O189 C185 1.260 . S
O190 In182 2.266 . S
O190 C187 1.252 . S
O191 In182 2.326 . S
O191 C187 1.260 . S
C192 O183 1.240 . S
C192 O184 1.252 . S
O193 In182 2.294 . S
O193 C186 1.240 . S
O194 In182 2.326 . S
O194 C186 1.252 . S
In195 O196 2.294 . S
In195 O197 2.326 . S
In195 O201 2.266 . S
In195 O202 2.326 . S
In195 O203 2.266 . S
In195 O204 2.326 . S
In195 O206 2.294 . S
In195 O207 2.326 . S
O196 In195 2.294 . S
O196 C205 1.240 . S
O197 In195 2.326 . S
O197 C205 1.252 . S
C198 O201 1.252 . S
C198 O202 1.260 . S
C199 O206 1.240 . S
C199 O207 1.252 . S
C200 O203 1.252 . S
C200 O204 1.260 . S
O201 In195 2.266 . S
O201 C198 1.252 . S
O202 In195 2.326 . S
O202 C198 1.260 . S
O203 In195 2.266 . S
O203 C200 1.252 . S
O204 In195 2.326 . S
O204 C200 1.260 . S
C205 O196 1.240 . S
C205 O197 1.252 . S
O206 In195 2.294 . S
O206 C199 1.240 . S
O207 In195 2.326 . S
O207 C199 1.252 . S
In208 O209 2.294 . S
In208 O210 2.326 . S
In208 O214 2.266 . S
In208 O215 2.326 . S
In208 O216 2.266 . S
In208 O217 2.326 . S
In208 O219 2.294 1_545 S
In208 O220 2.348 . S
O209 In208 2.294 . S
O209 C218 1.240 . S
O210 In208 2.326 . S
O210 C218 1.252 . S
C211 O214 1.252 . S
C211 O215 1.260 . S
C212 O219 1.240 . S
C212 O220 1.221 1_565 S
C213 O216 1.252 . S
C213 O217 1.260 . S
O214 In208 2.266 . S
O214 C211 1.252 . S
O215 In208 2.326 . S
O215 C211 1.260 . S
O216 In208 2.266 . S
O216 C213 1.252 . S
O217 In208 2.326 . S
O217 C213 1.260 . S
C218 O209 1.240 . S
C218 O210 1.252 . S
O219 In208 2.294 1_565 S
O219 C212 1.240 . S
O220 In208 2.348 . S
O220 C212 1.221 1_545 S
In221 O222 2.294 . S
In221 O223 2.326 . S
In221 O227 2.266 . S
In221 O228 2.326 . S
In221 O229 2.266 1_655 S
In221 O230 2.326 1_655 S
In221 O232 2.294 . S
In221 O233 2.326 . S
O222 In221 2.294 . S
O222 C231 1.240 . S
O223 In221 2.326 . S
O223 C231 1.252 . S
C224 O227 1.252 . S
C224 O228 1.260 . S
C225 O232 1.240 . S
C225 O233 1.252 . S
C226 O229 1.252 . S
C226 O230 1.260 . S
O227 In221 2.266 . S
O227 C224 1.252 . S
O228 In221 2.326 . S
O228 C224 1.260 . S
O229 In221 2.266 1_455 S
O229 C226 1.252 . S
O230 In221 2.326 1_455 S
O230 C226 1.260 . S
C231 O222 1.240 . S
C231 O223 1.252 . S
O232 In221 2.294 . S
O232 C225 1.240 . S
O233 In221 2.326 . S
O233 C225 1.252 . S
H234 C240 0.930 . S
H235 C243 0.931 . S
H236 C245 0.931 . S
H237 C247 0.930 . S
H238 C249 0.930 . S
H239 C251 0.931 . S
C240 H234 0.930 . S
C240 C241 1.380 . S
C240 C242 1.394 . S
C241 C240 1.380 . S
C241 C245 1.382 . S
C242 C240 1.394 . S
C242 C243 1.400 . S
C243 H235 0.931 . S
C243 C242 1.400 . S
C243 C244 1.375 . S
C244 C243 1.375 . S
C244 C245 1.415 . S
C244 C246 1.501 . S
C245 H236 0.931 . S
C245 C241 1.382 . S
C245 C244 1.415 . S
C246 C244 1.501 . S
C246 C247 1.384 . S
C246 C251 1.408 . S
C247 H237 0.930 . S
C247 C246 1.384 . S
C247 C248 1.389 . S
C248 C247 1.389 . S
C248 C249 1.405 . S
C249 H238 0.930 . S
C249 C248 1.405 . S
C249 C250 1.364 . S
C250 C249 1.364 . S
C250 C251 1.400 . S
C251 H239 0.931 . S
C251 C246 1.408 . S
C251 C250 1.400 . S
H252 C258 0.930 . S
H253 C261 0.931 . S
H254 C263 0.931 . S
H255 C265 0.930 . S
H256 C267 0.930 . S
H257 C269 0.931 . S
C258 H252 0.930 . S
C258 C259 1.380 . S
C258 C260 1.394 . S
C259 C258 1.380 . S
C259 C263 1.382 . S
C260 C258 1.394 . S
C260 C261 1.400 . S
C261 H253 0.931 . S
C261 C260 1.400 . S
C261 C262 1.375 . S
C262 C261 1.375 . S
C262 C263 1.415 . S
C262 C264 1.501 . S
C263 H254 0.931 . S
C263 C259 1.382 . S
C263 C262 1.415 . S
C264 C262 1.501 . S
C264 C265 1.384 . S
C264 C269 1.408 . S
C265 H255 0.930 . S
C265 C264 1.384 . S
C265 C266 1.389 . S
C266 C265 1.389 . S
C266 C267 1.405 . S
C267 H256 0.930 . S
C267 C266 1.405 . S
C267 C268 1.364 . S
C268 C267 1.364 . S
C268 C269 1.400 . S
C269 H257 0.931 . S
C269 C264 1.408 . S
C269 C268 1.400 . S
H270 C276 0.930 . S
H271 C279 0.931 . S
H272 C281 0.931 . S
H273 C283 0.930 . S
H274 C285 0.930 . S
H275 C287 0.931 . S
C276 H270 0.930 . S
C276 C277 1.380 . S
C276 C278 1.394 . S
C277 C276 1.380 . S
C277 C281 1.382 . S
C278 C276 1.394 . S
C278 C279 1.400 . S
C279 H271 0.931 . S
C279 C278 1.400 . S
C279 C280 1.375 . S
C280 C279 1.375 . S
C280 C281 1.415 . S
C280 C282 1.501 . S
C281 H272 0.931 . S
C281 C277 1.382 . S
C281 C280 1.415 . S
C282 C280 1.501 . S
C282 C283 1.384 . S
C282 C287 1.408 . S
C283 H273 0.930 . S
C283 C282 1.384 . S
C283 C284 1.389 . S
C284 C283 1.389 . S
C284 C285 1.405 . S
C285 H274 0.930 . S
C285 C284 1.405 . S
C285 C286 1.364 . S
C286 C285 1.364 . S
C286 C287 1.400 . S
C287 H275 0.931 . S
C287 C282 1.408 . S
C287 C286 1.400 . S
H288 C294 0.930 . S
H289 C297 0.931 . S
H290 C299 0.931 . S
H291 C301 0.930 . S
H292 C303 0.930 . S
H293 C305 0.931 . S
C294 H288 0.930 . S
C294 C295 1.380 . S
C294 C296 1.394 . S
C295 C294 1.380 . S
C295 C299 1.382 . S
C296 C294 1.394 . S
C296 C297 1.400 . S
C297 H289 0.931 . S
C297 C296 1.400 . S
C297 C298 1.375 . S
C298 C297 1.375 . S
C298 C299 1.415 . S
C298 C300 1.501 . S
C299 H290 0.931 . S
C299 C295 1.382 . S
C299 C298 1.415 . S
C300 C298 1.501 . S
C300 C301 1.384 . S
C300 C305 1.408 . S
C301 H291 0.930 . S
C301 C300 1.384 . S
C301 C302 1.389 . S
C302 C301 1.389 . S
C302 C303 1.405 . S
C303 H292 0.930 . S
C303 C302 1.405 . S
C303 C304 1.364 . S
C304 C303 1.364 . S
C304 C305 1.400 . S
C305 H293 0.931 . S
C305 C300 1.408 . S
C305 C304 1.400 . S
H306 C312 0.930 . S
H307 C315 0.931 . S
H308 C317 0.931 . S
H309 C319 0.930 . S
H310 C321 0.930 . S
H311 C323 0.931 . S
C312 H306 0.930 . S
C312 C313 1.380 . S
C312 C314 1.394 . S
C313 C312 1.380 . S
C313 C317 1.382 . S
C314 C312 1.394 . S
C314 C315 1.400 . S
C315 H307 0.931 . S
C315 C314 1.400 . S
C315 C316 1.375 . S
C316 C315 1.375 . S
C316 C317 1.415 . S
C316 C318 1.501 . S
C317 H308 0.931 . S
C317 C313 1.382 . S
C317 C316 1.415 . S
C318 C316 1.501 . S
C318 C319 1.384 . S
C318 C323 1.408 . S
C319 H309 0.930 . S
C319 C318 1.384 . S
C319 C320 1.389 . S
C320 C319 1.389 . S
C320 C321 1.405 . S
C321 H310 0.930 . S
C321 C320 1.405 . S
C321 C322 1.364 . S
C322 C321 1.364 . S
C322 C323 1.400 . S
C323 H311 0.931 . S
C323 C318 1.408 . S
C323 C322 1.400 . S
H324 C330 0.930 . S
H325 C333 0.931 . S
H326 C335 0.931 . S
H327 C337 0.930 . S
H328 C339 0.930 . S
H329 C341 0.931 . S
C330 H324 0.930 . S
C330 C331 1.380 . S
C330 C332 1.394 . S
C331 C330 1.380 . S
C331 C335 1.382 . S
C332 C330 1.394 . S
C332 C333 1.400 . S
C333 H325 0.931 . S
C333 C332 1.400 . S
C333 C334 1.375 . S
C334 C333 1.375 . S
C334 C335 1.415 . S
C334 C336 1.501 . S
C335 H326 0.931 . S
C335 C331 1.382 . S
C335 C334 1.415 . S
C336 C334 1.501 . S
C336 C337 1.384 . S
C336 C341 1.408 . S
C337 H327 0.930 . S
C337 C336 1.384 . S
C337 C338 1.389 . S
C338 C337 1.389 . S
C338 C339 1.405 . S
C339 H328 0.930 . S
C339 C338 1.405 . S
C339 C340 1.364 . S
C340 C339 1.364 . S
C340 C341 1.400 . S
C341 H329 0.931 . S
C341 C336 1.408 . S
C341 C340 1.400 . S
H342 C348 0.930 . S
H343 C351 0.931 . S
H344 C353 0.931 . S
H345 C355 0.930 . S
H346 C357 0.930 . S
H347 C359 0.931 . S
C348 H342 0.930 . S
C348 C349 1.380 . S
C348 C350 1.394 . S
C349 C348 1.380 . S
C349 C353 1.382 . S
C350 C348 1.394 . S
C350 C351 1.400 . S
C351 H343 0.931 . S
C351 C350 1.400 . S
C351 C352 1.375 . S
C352 C351 1.375 . S
C352 C353 1.415 . S
C352 C354 1.501 . S
C353 H344 0.931 . S
C353 C349 1.382 . S
C353 C352 1.415 . S
C354 C352 1.501 . S
C354 C355 1.384 . S
C354 C359 1.408 . S
C355 H345 0.930 . S
C355 C354 1.384 . S
C355 C356 1.389 . S
C356 C355 1.389 . S
C356 C357 1.405 . S
C357 H346 0.930 . S
C357 C356 1.405 . S
C357 C358 1.364 . S
C358 C357 1.364 . S
C358 C359 1.400 . S
C359 H347 0.931 . S
C359 C354 1.408 . S
C359 C358 1.400 . S
H360 C366 0.930 . S
H361 C369 0.931 . S
H362 C371 0.931 . S
H363 C373 0.930 . S
H364 C375 0.930 . S
H365 C377 0.931 . S
C366 H360 0.930 . S
C366 C367 1.380 . S
C366 C368 1.394 . S
C367 C366 1.380 . S
C367 C371 1.382 . S
C368 C366 1.394 . S
C368 C369 1.400 . S
C369 H361 0.931 . S
C369 C368 1.400 . S
C369 C370 1.375 . S
C370 C369 1.375 . S
C370 C371 1.415 . S
C370 C372 1.501 . S
C371 H362 0.931 . S
C371 C367 1.382 . S
C371 C370 1.415 . S
C372 C370 1.501 . S
C372 C373 1.384 . S
C372 C377 1.408 . S
C373 H363 0.930 . S
C373 C372 1.384 . S
C373 C374 1.389 . S
C374 C373 1.389 . S
C374 C375 1.405 . S
C375 H364 0.930 . S
C375 C374 1.405 . S
C375 C376 1.364 . S
C376 C375 1.364 . S
C376 C377 1.400 . S
C377 H365 0.931 . S
C377 C372 1.408 . S
C377 C376 1.400 . S
H378 C384 0.930 . S
H379 C387 0.931 . S
H380 C389 0.931 . S
H381 C391 0.930 . S
H382 C393 0.930 . S
H383 C395 0.931 . S
C384 H378 0.930 . S
C384 C385 1.380 . S
C384 C386 1.394 . S
C385 C384 1.380 . S
C385 C389 1.382 . S
C386 C384 1.394 . S
C386 C387 1.400 . S
C387 H379 0.931 . S
C387 C386 1.400 . S
C387 C388 1.375 . S
C388 C387 1.375 . S
C388 C389 1.415 . S
C388 C390 1.501 . S
C389 H380 0.931 . S
C389 C385 1.382 . S
C389 C388 1.415 . S
C390 C388 1.501 . S
C390 C391 1.384 . S
C390 C395 1.408 . S
C391 H381 0.930 . S
C391 C390 1.384 . S
C391 C392 1.389 . S
C392 C391 1.389 . S
C392 C393 1.405 . S
C393 H382 0.930 . S
C393 C392 1.405 . S
C393 C394 1.364 . S
C394 C393 1.364 . S
C394 C395 1.400 . S
C395 H383 0.931 . S
C395 C390 1.408 . S
C395 C394 1.400 . S
H396 C402 0.930 . S
H397 C405 0.931 . S
H398 C407 0.931 . S
H399 C409 0.930 . S
H400 C411 0.930 . S
H401 C413 0.931 . S
C402 H396 0.930 . S
C402 C403 1.380 . S
C402 C404 1.394 . S
C403 C402 1.380 . S
C403 C407 1.382 . S
C404 C402 1.394 . S
C404 C405 1.400 . S
C405 H397 0.931 . S
C405 C404 1.400 . S
C405 C406 1.375 . S
C406 C405 1.375 . S
C406 C407 1.415 . S
C406 C408 1.501 . S
C407 H398 0.931 . S
C407 C403 1.382 . S
C407 C406 1.415 . S
C408 C406 1.501 . S
C408 C409 1.384 . S
C408 C413 1.408 . S
C409 H399 0.930 . S
C409 C408 1.384 . S
C409 C410 1.389 . S
C410 C409 1.389 . S
C410 C411 1.405 . S
C411 H400 0.930 . S
C411 C410 1.405 . S
C411 C412 1.364 . S
C412 C411 1.364 . S
C412 C413 1.400 . S
C413 H401 0.931 . S
C413 C408 1.408 . S
C413 C412 1.400 . S
H414 C420 0.930 . S
H415 C423 0.931 . S
H416 C425 0.931 . S
H417 C427 0.930 . S
H418 C429 0.930 . S
H419 C431 0.931 . S
C420 H414 0.930 . S
C420 C421 1.380 . S
C420 C422 1.394 . S
C421 C420 1.380 . S
C421 C425 1.382 . S
C422 C420 1.394 . S
C422 C423 1.400 . S
C423 H415 0.931 . S
C423 C422 1.400 . S
C423 C424 1.375 . S
C424 C423 1.375 . S
C424 C425 1.415 . S
C424 C426 1.501 . S
C425 H416 0.931 . S
C425 C421 1.382 . S
C425 C424 1.415 . S
C426 C424 1.501 . S
C426 C427 1.384 . S
C426 C431 1.408 . S
C427 H417 0.930 . S
C427 C426 1.384 . S
C427 C428 1.389 . S
C428 C427 1.389 . S
C428 C429 1.405 . S
C429 H418 0.930 . S
C429 C428 1.405 . S
C429 C430 1.364 . S
C430 C429 1.364 . S
C430 C431 1.400 . S
C431 H419 0.931 . S
C431 C426 1.408 . S
C431 C430 1.400 . S
H432 C438 0.947 . S
H433 C441 0.931 . S
H434 C443 0.931 . S
H435 C445 0.930 . S
H436 C447 0.930 . S
H437 C449 0.920 1_545 S
C438 H432 0.947 . S
C438 C439 1.376 . S
C438 C440 1.382 1_545 S
C439 C438 1.376 . S
C439 C443 1.382 . S
C440 C438 1.382 1_565 S
C440 C441 1.400 . S
C441 H433 0.931 . S
C441 C440 1.400 . S
C441 C442 1.375 . S
C442 C441 1.375 . S
C442 C443 1.415 1_565 S
C442 C444 1.501 . S
C443 H434 0.931 . S
C443 C439 1.382 . S
C443 C442 1.415 1_545 S
C444 C442 1.501 . S
C444 C445 1.384 . S
C444 C449 1.399 . S
C445 H435 0.930 . S
C445 C444 1.384 . S
C445 C446 1.389 . S
C446 C445 1.389 . S
C446 C447 1.405 . S
C447 H436 0.930 . S
C447 C446 1.405 . S
C447 C448 1.374 . S
C448 C447 1.374 . S
C448 C449 1.406 . S
C449 H437 0.920 1_565 S
C449 C444 1.399 . S
C449 C448 1.406 . S
H450 C456 0.930 . S
H451 C459 0.931 . S
H452 C461 0.931 . S
H453 C463 0.930 . S
H454 C465 0.930 . S
H455 C467 0.931 . S
C456 H450 0.930 . S
C456 C457 1.380 . S
C456 C458 1.394 . S
C457 C456 1.380 . S
C457 C461 1.382 . S
C458 C456 1.394 . S
C458 C459 1.400 . S
C459 H451 0.931 . S
C459 C458 1.400 . S
C459 C460 1.375 . S
C460 C459 1.375 . S
C460 C461 1.415 . S
C460 C462 1.501 . S
C461 H452 0.931 . S
C461 C457 1.382 . S
C461 C460 1.415 . S
C462 C460 1.501 . S
C462 C463 1.384 . S
C462 C467 1.408 . S
C463 H453 0.930 . S
C463 C462 1.384 . S
C463 C464 1.389 . S
C464 C463 1.389 . S
C464 C465 1.405 . S
C465 H454 0.930 . S
C465 C464 1.405 . S
C465 C466 1.364 . S
C466 C465 1.364 . S
C466 C467 1.400 . S
C467 H455 0.931 . S
C467 C462 1.408 . S
C467 C466 1.400 . S
H468 C474 0.955 . S
H469 C477 0.931 . S
H470 C479 0.933 1_655 S
H471 C481 0.930 . S
H472 C483 0.930 . S
H473 C485 0.931 . S
C474 H468 0.955 . S
C474 C475 1.377 . S
C474 C476 1.368 1_655 S
C475 C474 1.377 . S
C475 C479 1.361 1_655 S
C476 C474 1.368 1_455 S
C476 C477 1.430 . S
C477 H469 0.931 . S
C477 C476 1.430 . S
C477 C478 1.375 . S
C478 C477 1.375 . S
C478 C479 1.418 . S
C478 C480 1.501 . S
C479 H470 0.933 1_455 S
C479 C475 1.361 1_455 S
C479 C478 1.418 . S
C480 C478 1.501 . S
C480 C481 1.384 . S
C480 C485 1.408 1_455 S
C481 H471 0.930 . S
C481 C480 1.384 . S
C481 C482 1.389 . S
C482 C481 1.389 . S
C482 C483 1.405 . S
C483 H472 0.930 . S
C483 C482 1.405 . S
C483 C484 1.364 1_455 S
C484 C483 1.364 1_655 S
C484 C485 1.400 . S
C485 H473 0.931 . S
C485 C480 1.408 1_655 S
C485 C484 1.400 . S
H486 C492 0.930 . S
H487 C495 0.931 . S
H488 C497 0.931 . S
H489 C499 0.930 . S
H490 C501 0.930 . S
H491 C503 0.931 . S
C492 H486 0.930 . S
C492 C493 1.380 . S
C492 C494 1.394 . S
C493 C492 1.380 . S
C493 C497 1.382 . S
C494 C492 1.394 . S
C494 C495 1.400 . S
C495 H487 0.931 . S
C495 C494 1.400 . S
C495 C496 1.375 . S
C496 C495 1.375 . S
C496 C497 1.415 . S
C496 C498 1.501 . S
C497 H488 0.931 . S
C497 C493 1.382 . S
C497 C496 1.415 . S
C498 C496 1.501 . S
C498 C499 1.384 . S
C498 C503 1.408 . S
C499 H489 0.930 . S
C499 C498 1.384 . S
C499 C500 1.389 . S
C500 C499 1.389 . S
C500 C501 1.405 . S
C501 H490 0.930 . S
C501 C500 1.405 . S
C501 C502 1.364 . S
C502 C501 1.364 . S
C502 C503 1.400 . S
C503 H491 0.931 . S
C503 C498 1.408 . S
C503 C502 1.400 . S
H504 C510 0.930 . S
H505 C513 0.931 . S
H506 C515 0.931 . S
H507 C517 0.930 . S
H508 C519 0.930 . S
H509 C521 0.931 . S
C510 H504 0.930 . S
C510 C511 1.380 . S
C510 C512 1.394 . S
C511 C510 1.380 . S
C511 C515 1.382 . S
C512 C510 1.394 . S
C512 C513 1.400 . S
C513 H505 0.931 . S
C513 C512 1.400 . S
C513 C514 1.375 . S
C514 C513 1.375 . S
C514 C515 1.415 . S
C514 C516 1.501 . S
C515 H506 0.931 . S
C515 C511 1.382 . S
C515 C514 1.415 . S
C516 C514 1.501 . S
C516 C517 1.384 . S
C516 C521 1.408 . S
C517 H507 0.930 . S
C517 C516 1.384 . S
C517 C518 1.389 . S
C518 C517 1.389 . S
C518 C519 1.405 . S
C519 H508 0.930 . S
C519 C518 1.405 . S
C519 C520 1.364 . S
C520 C519 1.364 . S
C520 C521 1.400 . S
C521 H509 0.931 . S
C521 C516 1.408 . S
C521 C520 1.400 . S
H522 C528 0.930 . S
H523 C531 0.931 . S
H524 C533 0.931 . S
H525 C535 0.930 . S
H526 C537 0.930 . S
H527 C539 0.931 . S
C528 H522 0.930 . S
C528 C529 1.380 . S
C528 C530 1.394 . S
C529 C528 1.380 . S
C529 C533 1.382 . S
C530 C528 1.394 . S
C530 C531 1.400 . S
C531 H523 0.931 . S
C531 C530 1.400 . S
C531 C532 1.375 . S
C532 C531 1.375 . S
C532 C533 1.415 . S
C532 C534 1.501 . S
C533 H524 0.931 . S
C533 C529 1.382 . S
C533 C532 1.415 . S
C534 C532 1.501 . S
C534 C535 1.384 . S
C534 C539 1.408 . S
C535 H525 0.930 . S
C535 C534 1.384 . S
C535 C536 1.389 . S
C536 C535 1.389 . S
C536 C537 1.405 . S
C537 H526 0.930 . S
C537 C536 1.405 . S
C537 C538 1.364 . S
C538 C537 1.364 . S
C538 C539 1.400 . S
C539 H527 0.931 . S
C539 C534 1.408 . S
C539 C538 1.400 . S
H540 C546 0.930 . S
H541 C549 0.931 . S
H542 C551 0.931 . S
H543 C553 0.930 . S
H544 C555 0.930 . S
H545 C557 0.931 . S
C546 H540 0.930 . S
C546 C547 1.380 . S
C546 C548 1.394 . S
C547 C546 1.380 . S
C547 C551 1.382 . S
C548 C546 1.394 . S
C548 C549 1.400 . S
C549 H541 0.931 . S
C549 C548 1.400 . S
C549 C550 1.375 . S
C550 C549 1.375 . S
C550 C551 1.415 . S
C550 C552 1.501 . S
C551 H542 0.931 . S
C551 C547 1.382 . S
C551 C550 1.415 . S
C552 C550 1.501 . S
C552 C553 1.384 . S
C552 C557 1.408 . S
C553 H543 0.930 . S
C553 C552 1.384 . S
C553 C554 1.389 . S
C554 C553 1.389 . S
C554 C555 1.405 . S
C555 H544 0.930 . S
C555 C554 1.405 . S
C555 C556 1.364 . S
C556 C555 1.364 . S
C556 C557 1.400 . S
C557 H545 0.931 . S
C557 C552 1.408 . S
C557 C556 1.400 . S
H558 C570 0.930 . S
H559 C572 0.930 . S
H560 C573 0.930 . S
H561 C577 0.959 . S
H562 C577 0.959 . S
H563 C577 0.961 . S
H564 C578 0.960 . S
H565 C578 0.961 . S
H566 C578 0.959 . S
H567 C581 0.929 . S
H568 C582 0.931 . S
H569 C584 0.930 . S
C570 H558 0.930 . S
C570 C571 1.399 . S
C570 C575 1.399 . S
C571 C570 1.399 . S
C571 C572 1.376 1_455 S
C572 H559 0.930 . S
C572 C571 1.376 1_655 S
C572 C573 1.388 . S
C573 H560 0.930 . S
C573 C572 1.388 . S
C573 C574 1.390 1_655 S
C574 C573 1.390 1_455 S
C574 C575 1.394 . S
C574 C580 1.476 . S
C575 C570 1.399 . S
C575 C574 1.394 . S
C575 C576 1.516 . S
C576 C575 1.516 . S
C576 C577 1.502 . S
C576 C578 1.561 . S
C576 C579 1.526 . S
C577 H561 0.959 . S
C577 H562 0.959 . S
C577 H563 0.961 . S
C577 C576 1.502 . S
C578 H564 0.960 . S
C578 H565 0.961 . S
C578 H566 0.959 . S
C578 C576 1.561 . S
C579 C576 1.526 . S
C579 C580 1.414 . S
C579 C584 1.390 . S
C580 C574 1.476 . S
C580 C579 1.414 . S
C580 C581 1.375 1_455 S
C581 H567 0.929 . S
C581 C580 1.375 1_655 S
C581 C582 1.385 . S
C582 H568 0.931 . S
C582 C581 1.385 . S
C582 C583 1.389 1_655 S
C583 C582 1.389 1_455 S
C583 C584 1.387 . S
C584 H569 0.930 . S
C584 C579 1.390 . S
C584 C583 1.387 . S
H585 C597 0.930 . S
H586 C599 0.930 . S
H587 C600 0.930 . S
H588 C604 0.959 . S
H589 C604 0.959 . S
H590 C604 0.961 . S
H591 C605 0.960 . S
H592 C605 0.961 . S
H593 C605 0.959 . S
H594 C608 0.929 . S
H595 C609 0.931 . S
H596 C611 0.930 . S
C597 H585 0.930 . S
C597 C598 1.399 . S
C597 C602 1.399 . S
C598 C597 1.399 . S
C598 C599 1.376 . S
C599 H586 0.930 . S
C599 C598 1.376 . S
C599 C600 1.388 . S
C600 H587 0.930 . S
C600 C599 1.388 . S
C600 C601 1.390 . S
C601 C600 1.390 . S
C601 C602 1.394 . S
C601 C607 1.465 . S
C602 C597 1.399 . S
C602 C601 1.394 . S
C602 C603 1.516 . S
C603 C602 1.516 . S
C603 C604 1.502 . S
C603 C605 1.561 . S
C603 C606 1.526 . S
C604 H588 0.959 . S
C604 H589 0.959 . S
C604 H590 0.961 . S
C604 C603 1.502 . S
C605 H591 0.960 . S
C605 H592 0.961 . S
C605 H593 0.959 . S
C605 C603 1.561 . S
C606 C603 1.526 . S
C606 C607 1.396 . S
C606 C611 1.390 . S
C607 C601 1.465 . S
C607 C606 1.396 . S
C607 C608 1.399 . S
C608 H594 0.929 . S
C608 C607 1.399 . S
C608 C609 1.385 . S
C609 H595 0.931 . S
C609 C608 1.385 . S
C609 C610 1.389 . S
C610 C609 1.389 . S
C610 C611 1.387 . S
C611 H596 0.930 . S
C611 C606 1.390 . S
C611 C610 1.387 . S
H612 C624 0.930 . S
H613 C626 0.930 . S
H614 C627 0.930 . S
H615 C631 0.959 . S
H616 C631 0.959 . S
H617 C631 0.961 . S
H618 C632 0.960 . S
H619 C632 0.961 . S
H620 C632 0.959 . S
H621 C635 0.929 . S
H622 C636 0.931 . S
H623 C638 0.930 . S
C624 H612 0.930 . S
C624 C625 1.399 . S
C624 C629 1.399 . S
C625 C624 1.399 . S
C625 C626 1.376 1_545 S
C626 H613 0.930 . S
C626 C625 1.376 1_565 S
C626 C627 1.388 . S
C627 H614 0.930 . S
C627 C626 1.388 . S
C627 C628 1.390 . S
C628 C627 1.390 . S
C628 C629 1.394 1_565 S
C628 C634 1.465 . S
C629 C624 1.399 . S
C629 C628 1.394 1_545 S
C629 C630 1.516 . S
C630 C629 1.516 . S
C630 C631 1.502 . S
C630 C632 1.561 . S
C630 C633 1.526 . S
C631 H615 0.959 . S
C631 H616 0.959 . S
C631 H617 0.961 . S
C631 C630 1.502 . S
C632 H618 0.960 . S
C632 H619 0.961 . S
C632 H620 0.959 . S
C632 C630 1.561 . S
C633 C630 1.526 . S
C633 C634 1.396 1_545 S
C633 C638 1.390 . S
C634 C628 1.465 . S
C634 C633 1.396 1_565 S
C634 C635 1.399 . S
C635 H621 0.929 . S
C635 C634 1.399 . S
C635 C636 1.385 . S
C636 H622 0.931 . S
C636 C635 1.385 . S
C636 C637 1.389 1_565 S
C637 C636 1.389 1_545 S
C637 C638 1.387 . S
C638 H623 0.930 . S
C638 C633 1.390 . S
C638 C637 1.387 . S
H639 C651 0.930 . S
H640 C653 0.930 . S
H641 C654 0.930 . S
H642 C658 0.959 . S
H643 C658 0.959 . S
H644 C658 0.961 . S
H645 C659 0.960 . S
H646 C659 0.961 . S
H647 C659 0.959 . S
H648 C662 0.929 . S
H649 C663 0.931 . S
H650 C665 0.930 . S
C651 H639 0.930 . S
C651 C652 1.399 . S
C651 C656 1.399 . S
C652 C651 1.399 . S
C652 C653 1.376 1_545 S
C653 H640 0.930 . S
C653 C652 1.376 1_565 S
C653 C654 1.388 . S
C654 H641 0.930 . S
C654 C653 1.388 . S
C654 C655 1.390 . S
C655 C654 1.390 . S
C655 C656 1.394 1_565 S
C655 C661 1.465 . S
C656 C651 1.399 . S
C656 C655 1.394 1_545 S
C656 C657 1.516 . S
C657 C656 1.516 . S
C657 C658 1.502 . S
C657 C659 1.561 . S
C657 C660 1.526 . S
C658 H642 0.959 . S
C658 H643 0.959 . S
C658 H644 0.961 . S
C658 C657 1.502 . S
C659 H645 0.960 . S
C659 H646 0.961 . S
C659 H647 0.959 . S
C659 C657 1.561 . S
C660 C657 1.526 . S
C660 C661 1.396 1_545 S
C660 C665 1.390 . S
C661 C655 1.465 . S
C661 C660 1.396 1_565 S
C661 C662 1.399 . S
C662 H648 0.929 . S
C662 C661 1.399 . S
C662 C663 1.385 . S
C663 H649 0.931 . S
C663 C662 1.385 . S
C663 C664 1.389 1_565 S
C664 C663 1.389 1_545 S
C664 C665 1.387 . S
C665 H650 0.930 . S
C665 C660 1.390 . S
C665 C664 1.387 . S
H666 C678 0.930 . S
H667 C680 0.923 . S
H668 C681 0.929 . S
H669 C685 0.962 . S
H670 C685 0.960 1_455 S
H671 C685 0.960 1_455 S
H672 C686 0.960 . S
H673 C686 0.961 . S
H674 C686 0.959 . S
H675 C689 0.927 . S
H676 C690 0.929 1_655 S
H677 C692 0.930 . S
C678 H666 0.930 . S
C678 C679 1.399 . S
C678 C683 1.399 . S
C679 C678 1.399 . S
C679 C680 1.378 1_455 S
C680 H667 0.923 . S
C680 C679 1.378 1_655 S
C680 C681 1.385 . S
C681 H668 0.929 . S
C681 C680 1.385 . S
C681 C682 1.401 1_655 S
C682 C681 1.401 1_455 S
C682 C683 1.394 . S
C682 C688 1.465 . S
C683 C678 1.399 . S
C683 C682 1.394 . S
C683 C684 1.516 . S
C684 C683 1.516 . S
C684 C685 1.499 1_455 S
C684 C686 1.561 . S
C684 C687 1.526 . S
C685 H669 0.962 . S
C685 H670 0.960 1_655 S
C685 H671 0.960 1_655 S
C685 C684 1.499 1_655 S
C686 H672 0.960 . S
C686 H673 0.961 . S
C686 H674 0.959 . S
C686 C684 1.561 . S
C687 C684 1.526 . S
C687 C688 1.396 . S
C687 C692 1.390 . S
C688 C682 1.465 . S
C688 C687 1.396 . S
C688 C689 1.397 1_455 S
C689 H675 0.927 . S
C689 C688 1.397 1_655 S
C689 C690 1.394 1_655 S
C690 H676 0.929 1_455 S
C690 C689 1.394 1_455 S
C690 C691 1.387 . S
C691 C690 1.387 . S
C691 C692 1.387 . S
C692 H677 0.930 . S
C692 C687 1.390 . S
C692 C691 1.387 . S
H693 C705 0.930 . S
H694 C707 0.930 . S
H695 C708 0.930 . S
H696 C712 0.959 . S
H697 C712 0.959 . S
H698 C712 0.961 . S
H699 C713 0.960 . S
H700 C713 0.961 . S
H701 C713 0.959 . S
H702 C716 0.929 . S
H703 C717 0.931 . S
H704 C719 0.930 . S
C705 H693 0.930 . S
C705 C706 1.399 . S
C705 C710 1.399 . S
C706 C705 1.399 . S
C706 C707 1.376 . S
C707 H694 0.930 . S
C707 C706 1.376 . S
C707 C708 1.388 . S
C708 H695 0.930 . S
C708 C707 1.388 . S
C708 C709 1.390 . S
C709 C708 1.390 . S
C709 C710 1.394 . S
C709 C715 1.465 . S
C710 C705 1.399 . S
C710 C709 1.394 . S
C710 C711 1.516 . S
C711 C710 1.516 . S
C711 C712 1.502 . S
C711 C713 1.561 . S
C711 C714 1.526 . S
C712 H696 0.959 . S
C712 H697 0.959 . S
C712 H698 0.961 . S
C712 C711 1.502 . S
C713 H699 0.960 . S
C713 H700 0.961 . S
C713 H701 0.959 . S
C713 C711 1.561 . S
C714 C711 1.526 . S
C714 C715 1.396 . S
C714 C719 1.390 . S
C715 C709 1.465 . S
C715 C714 1.396 . S
C715 C716 1.399 . S
C716 H702 0.929 . S
C716 C715 1.399 . S
C716 C717 1.385 . S
C717 H703 0.931 . S
C717 C716 1.385 . S
C717 C718 1.389 . S
C718 C717 1.389 . S
C718 C719 1.387 . S
C719 H704 0.930 . S
C719 C714 1.390 . S
C719 C718 1.387 . S
H720 C732 0.930 . S
H721 C734 0.930 . S
H722 C735 0.930 . S
H723 C739 0.959 . S
H724 C739 0.959 1_455 S
H725 C739 0.959 . S
H726 C740 0.960 . S
H727 C740 0.961 . S
H728 C740 0.959 . S
H729 C743 0.929 . S
H730 C744 0.931 . S
H731 C746 0.930 . S
C732 H720 0.930 . S
C732 C733 1.399 . S
C732 C737 1.399 . S
C733 C732 1.399 . S
C733 C734 1.376 1_455 S
C734 H721 0.930 . S
C734 C733 1.376 1_655 S
C734 C735 1.388 . S
C735 H722 0.930 . S
C735 C734 1.388 . S
C735 C736 1.384 1_655 S
C736 C735 1.384 1_455 S
C736 C737 1.383 . S
C736 C742 1.484 1_455 S
C737 C732 1.399 . S
C737 C736 1.383 . S
C737 C738 1.516 . S
C738 C737 1.516 . S
C738 C739 1.502 1_455 S
C738 C740 1.561 . S
C738 C741 1.526 . S
C739 H723 0.959 . S
C739 H724 0.959 1_655 S
C739 H725 0.959 . S
C739 C738 1.502 1_655 S
C740 H726 0.960 . S
C740 H727 0.961 . S
C740 H728 0.959 . S
C740 C738 1.561 . S
C741 C738 1.526 . S
C741 C742 1.396 1_455 S
C741 C746 1.390 . S
C742 C736 1.484 1_655 S
C742 C741 1.396 1_655 S
C742 C743 1.397 . S
C743 H729 0.929 . S
C743 C742 1.397 . S
C743 C744 1.385 . S
C744 H730 0.931 . S
C744 C743 1.385 . S
C744 C745 1.390 . S
C745 C744 1.390 . S
C745 C746 1.400 1_655 S
C746 H731 0.930 . S
C746 C741 1.390 . S
C746 C745 1.400 1_455 S
H747 C759 0.930 . S
H748 C761 0.930 . S
H749 C762 0.930 . S
H750 C766 0.959 . S
H751 C766 0.959 . S
H752 C766 0.961 . S
H753 C767 0.960 . S
H754 C767 0.961 . S
H755 C767 0.959 . S
H756 C770 0.929 . S
H757 C771 0.931 . S
H758 C773 0.930 . S
C759 H747 0.930 . S
C759 C760 1.399 . S
C759 C764 1.399 . S
C760 C759 1.399 . S
C760 C761 1.376 . S
C761 H748 0.930 . S
C761 C760 1.376 . S
C761 C762 1.388 . S
C762 H749 0.930 . S
C762 C761 1.388 . S
C762 C763 1.390 . S
C763 C762 1.390 . S
C763 C764 1.394 . S
C763 C769 1.465 . S
C764 C759 1.399 . S
C764 C763 1.394 . S
C764 C765 1.516 . S
C765 C764 1.516 . S
C765 C766 1.502 . S
C765 C767 1.561 . S
C765 C768 1.526 . S
C766 H750 0.959 . S
C766 H751 0.959 . S
C766 H752 0.961 . S
C766 C765 1.502 . S
C767 H753 0.960 . S
C767 H754 0.961 . S
C767 H755 0.959 . S
C767 C765 1.561 . S
C768 C765 1.526 . S
C768 C769 1.396 . S
C768 C773 1.390 . S
C769 C763 1.465 . S
C769 C768 1.396 . S
C769 C770 1.399 . S
C770 H756 0.929 . S
C770 C769 1.399 . S
C770 C771 1.385 . S
C771 H757 0.931 . S
C771 C770 1.385 . S
C771 C772 1.389 . S
C772 C771 1.389 . S
C772 C773 1.387 . S
C773 H758 0.930 . S
C773 C768 1.390 . S
C773 C772 1.387 . S
H774 C786 0.930 . S
H775 C788 0.930 . S
H776 C789 0.930 . S
H777 C793 0.959 . S
H778 C793 0.959 . S
H779 C793 0.961 . S
H780 C794 0.960 . S
H781 C794 0.961 . S
H782 C794 0.959 . S
H783 C797 0.929 . S
H784 C798 0.931 . S
H785 C800 0.930 . S
C786 H774 0.930 . S
C786 C787 1.399 1_565 S
C786 C791 1.434 . S
C787 C786 1.399 1_545 S
C787 C788 1.376 . S
C788 H775 0.930 . S
C788 C787 1.376 . S
C788 C789 1.388 . S
C789 H776 0.930 . S
C789 C788 1.388 . S
C789 C790 1.390 . S
C790 C789 1.390 . S
C790 C791 1.334 1_545 S
C790 C796 1.465 . S
C791 C786 1.434 . S
C791 C790 1.334 1_565 S
C791 C792 1.534 . S
C792 C791 1.534 . S
C792 C793 1.502 . S
C792 C794 1.561 . S
C792 C795 1.520 1_565 S
C793 H777 0.959 . S
C793 H778 0.959 . S
C793 H779 0.961 . S
C793 C792 1.502 . S
C794 H780 0.960 . S
C794 H781 0.961 . S
C794 H782 0.959 . S
C794 C792 1.561 . S
C795 C792 1.520 1_545 S
C795 C796 1.401 . S
C795 C800 1.391 1_545 S
C796 C790 1.465 . S
C796 C795 1.401 . S
C796 C797 1.399 . S
C797 H783 0.929 . S
C797 C796 1.399 . S
C797 C798 1.385 . S
C798 H784 0.931 . S
C798 C797 1.385 . S
C798 C799 1.389 . S
C799 C798 1.389 . S
C799 C800 1.387 1_545 S
C800 H785 0.930 . S
C800 C795 1.391 1_565 S
C800 C799 1.387 1_565 S
H801 C813 0.930 . S
H802 C815 0.930 . S
H803 C816 0.930 . S
H804 C820 0.959 . S
H805 C820 0.959 . S
H806 C820 0.961 . S
H807 C821 0.960 . S
H808 C821 0.961 . S
H809 C821 0.959 . S
H810 C824 0.929 . S
H811 C825 0.931 . S
H812 C827 0.930 . S
C813 H801 0.930 . S
C813 C814 1.399 1_565 S
C813 C818 1.399 . S
C814 C813 1.399 1_545 S
C814 C815 1.376 . S
C815 H802 0.930 . S
C815 C814 1.376 . S
C815 C816 1.388 . S
C816 H803 0.930 . S
C816 C815 1.388 . S
C816 C817 1.390 . S
C817 C816 1.390 . S
C817 C818 1.394 1_545 S
C817 C823 1.465 . S
C818 C813 1.399 . S
C818 C817 1.394 1_565 S
C818 C819 1.516 . S
C819 C818 1.516 . S
C819 C820 1.502 . S
C819 C821 1.561 . S
C819 C822 1.526 . S
C820 H804 0.959 . S
C820 H805 0.959 . S
C820 H806 0.961 . S
C820 C819 1.502 . S
C821 H807 0.960 . S
C821 H808 0.961 . S
C821 H809 0.959 . S
C821 C819 1.561 . S
C822 C819 1.526 . S
C822 C823 1.396 1_565 S
C822 C827 1.390 . S
C823 C817 1.465 . S
C823 C822 1.396 1_545 S
C823 C824 1.399 . S
C824 H810 0.929 . S
C824 C823 1.399 . S
C824 C825 1.385 . S
C825 H811 0.931 . S
C825 C824 1.385 . S
C825 C826 1.389 . S
C826 C825 1.389 . S
C826 C827 1.387 1_545 S
C827 H812 0.930 . S
C827 C822 1.390 . S
C827 C826 1.387 1_565 S
H828 C840 0.930 . S
H829 C842 0.930 . S
H830 C843 0.930 . S
H831 C847 0.959 . S
H832 C847 0.959 . S
H833 C847 0.961 . S
H834 C848 0.960 . S
H835 C848 0.961 . S
H836 C848 0.959 1_455 S
H837 C851 0.929 . S
H838 C852 0.931 . S
H839 C854 0.931 1_655 S
C840 H828 0.930 . S
C840 C841 1.399 1_655 S
C840 C845 1.399 1_655 S
C841 C840 1.399 1_455 S
C841 C842 1.376 . S
C842 H829 0.930 . S
C842 C841 1.376 . S
C842 C843 1.388 . S
C843 H830 0.930 . S
C843 C842 1.388 . S
C843 C844 1.390 . S
C844 C843 1.390 . S
C844 C845 1.394 . S
C844 C850 1.465 . S
C845 C840 1.399 1_455 S
C845 C844 1.394 . S
C845 C846 1.516 1_455 S
C846 C845 1.516 1_655 S
C846 C847 1.502 . S
C846 C848 1.561 . S
C846 C849 1.526 1_655 S
C847 H831 0.959 . S
C847 H832 0.959 . S
C847 H833 0.961 . S
C847 C846 1.502 . S
C848 H834 0.960 . S
C848 H835 0.961 . S
C848 H836 0.959 1_655 S
C848 C846 1.561 . S
C849 C846 1.526 1_455 S
C849 C850 1.396 . S
C849 C854 1.391 . S
C850 C844 1.465 . S
C850 C849 1.396 . S
C850 C851 1.399 . S
C851 H837 0.929 . S
C851 C850 1.399 . S
C851 C852 1.385 . S
C852 H838 0.931 . S
C852 C851 1.385 . S
C852 C853 1.389 . S
C853 C852 1.389 . S
C853 C854 1.384 . S
C854 H839 0.931 1_455 S
C854 C849 1.391 . S
C854 C853 1.384 . S
H855 C867 0.930 . S
H856 C869 0.930 . S
H857 C870 0.930 . S
H858 C874 0.959 . S
H859 C874 0.959 . S
H860 C874 0.961 . S
H861 C875 0.960 . S
H862 C875 0.961 . S
H863 C875 0.959 . S
H864 C878 0.929 . S
H865 C879 0.931 . S
H866 C881 0.930 . S
C867 H855 0.930 . S
C867 C868 1.399 . S
C867 C872 1.399 . S
C868 C867 1.399 . S
C868 C869 1.376 . S
C869 H856 0.930 . S
C869 C868 1.376 . S
C869 C870 1.388 . S
C870 H857 0.930 . S
C870 C869 1.388 . S
C870 C871 1.390 . S
C871 C870 1.390 . S
C871 C872 1.394 . S
C871 C877 1.465 . S
C872 C867 1.399 . S
C872 C871 1.394 . S
C872 C873 1.516 . S
C873 C872 1.516 . S
C873 C874 1.502 . S
C873 C875 1.561 . S
C873 C876 1.526 . S
C874 H858 0.959 . S
C874 H859 0.959 . S
C874 H860 0.961 . S
C874 C873 1.502 . S
C875 H861 0.960 . S
C875 H862 0.961 . S
C875 H863 0.959 . S
C875 C873 1.561 . S
C876 C873 1.526 . S
C876 C877 1.396 . S
C876 C881 1.390 . S
C877 C871 1.465 . S
C877 C876 1.396 . S
C877 C878 1.399 . S
C878 H864 0.929 . S
C878 C877 1.399 . S
C878 C879 1.385 . S
C879 H865 0.931 . S
C879 C878 1.385 . S
C879 C880 1.389 . S
C880 C879 1.389 . S
C880 C881 1.387 . S
C881 H866 0.930 . S
C881 C876 1.390 . S
C881 C880 1.387 . S
H882 C894 0.930 . S
H883 C896 0.930 . S
H884 C897 0.930 . S
H885 C901 0.959 . S
H886 C901 0.959 . S
H887 C901 0.961 . S
H888 C902 0.960 . S
H889 C902 0.961 . S
H890 C902 0.959 . S
H891 C905 0.929 . S
H892 C906 0.931 . S
H893 C908 0.930 . S
C894 H882 0.930 . S
C894 C895 1.399 . S
C894 C899 1.399 . S
C895 C894 1.399 . S
C895 C896 1.376 . S
C896 H883 0.930 . S
C896 C895 1.376 . S
C896 C897 1.388 . S
C897 H884 0.930 . S
C897 C896 1.388 . S
C897 C898 1.390 . S
C898 C897 1.390 . S
C898 C899 1.394 . S
C898 C904 1.465 . S
C899 C894 1.399 . S
C899 C898 1.394 . S
C899 C900 1.516 . S
C900 C899 1.516 . S
C900 C901 1.502 . S
C900 C902 1.561 . S
C900 C903 1.526 . S
C901 H885 0.959 . S
C901 H886 0.959 . S
C901 H887 0.961 . S
C901 C900 1.502 . S
C902 H888 0.960 . S
C902 H889 0.961 . S
C902 H890 0.959 . S
C902 C900 1.561 . S
C903 C900 1.526 . S
C903 C904 1.396 . S
C903 C908 1.390 . S
C904 C898 1.465 . S
C904 C903 1.396 . S
C904 C905 1.399 . S
C905 H891 0.929 . S
C905 C904 1.399 . S
C905 C906 1.385 . S
C906 H892 0.931 . S
C906 C905 1.385 . S
C906 C907 1.389 . S
C907 C906 1.389 . S
C907 C908 1.387 . S
C908 H893 0.930 . S
C908 C903 1.390 . S
C908 C907 1.387 . S
H909 C921 0.930 . S
H910 C923 0.930 . S
H911 C924 0.930 . S
H912 C928 0.959 . S
H913 C928 0.959 . S
H914 C928 0.961 . S
H915 C929 0.960 . S
H916 C929 0.961 . S
H917 C929 0.959 . S
H918 C932 0.929 . S
H919 C933 0.931 . S
H920 C935 0.930 . S
C921 H909 0.930 . S
C921 C922 1.399 . S
C921 C926 1.399 . S
C922 C921 1.399 . S
C922 C923 1.376 . S
C923 H910 0.930 . S
C923 C922 1.376 . S
C923 C924 1.388 . S
C924 H911 0.930 . S
C924 C923 1.388 . S
C924 C925 1.390 . S
C925 C924 1.390 . S
C925 C926 1.394 . S
C925 C931 1.465 . S
C926 C921 1.399 . S
C926 C925 1.394 . S
C926 C927 1.516 . S
C927 C926 1.516 . S
C927 C928 1.502 . S
C927 C929 1.561 . S
C927 C930 1.526 . S
C928 H912 0.959 . S
C928 H913 0.959 . S
C928 H914 0.961 . S
C928 C927 1.502 . S
C929 H915 0.960 . S
C929 H916 0.961 . S
C929 H917 0.959 . S
C929 C927 1.561 . S
C930 C927 1.526 . S
C930 C931 1.396 . S
C930 C935 1.390 . S
C931 C925 1.465 . S
C931 C930 1.396 . S
C931 C932 1.399 . S
C932 H918 0.929 . S
C932 C931 1.399 . S
C932 C933 1.385 . S
C933 H919 0.931 . S
C933 C932 1.385 . S
C933 C934 1.389 . S
C934 C933 1.389 . S
C934 C935 1.387 . S
C935 H920 0.930 . S
C935 C930 1.390 . S
C935 C934 1.387 . S
H936 C948 0.930 . S
H937 C950 0.930 . S
H938 C951 0.930 . S
H939 C955 0.959 . S
H940 C955 0.959 . S
H941 C955 0.961 . S
H942 C956 0.960 . S
H943 C956 0.961 . S
H944 C956 0.959 . S
H945 C959 0.929 . S
H946 C960 0.931 . S
H947 C962 0.930 . S
C948 H936 0.930 . S
C948 C949 1.399 . S
C948 C953 1.399 . S
C949 C948 1.399 . S
C949 C950 1.376 . S
C950 H937 0.930 . S
C950 C949 1.376 . S
C950 C951 1.388 . S
C951 H938 0.930 . S
C951 C950 1.388 . S
C951 C952 1.390 . S
C952 C951 1.390 . S
C952 C953 1.394 . S
C952 C958 1.465 . S
C953 C948 1.399 . S
C953 C952 1.394 . S
C953 C954 1.516 . S
C954 C953 1.516 . S
C954 C955 1.502 . S
C954 C956 1.561 . S
C954 C957 1.526 . S
C955 H939 0.959 . S
C955 H940 0.959 . S
C955 H941 0.961 . S
C955 C954 1.502 . S
C956 H942 0.960 . S
C956 H943 0.961 . S
C956 H944 0.959 . S
C956 C954 1.561 . S
C957 C954 1.526 . S
C957 C958 1.396 . S
C957 C962 1.390 . S
C958 C952 1.465 . S
C958 C957 1.396 . S
C958 C959 1.399 . S
C959 H945 0.929 . S
C959 C958 1.399 . S
C959 C960 1.385 . S
C960 H946 0.931 . S
C960 C959 1.385 . S
C960 C961 1.389 . S
C961 C960 1.389 . S
C961 C962 1.387 . S
C962 H947 0.930 . S
C962 C957 1.390 . S
C962 C961 1.387 . S
H963 C975 0.930 . S
H964 C977 0.930 . S
H965 C978 0.930 . S
H966 C982 0.959 . S
H967 C982 0.959 . S
H968 C982 0.961 . S
H969 C983 0.960 . S
H970 C983 0.961 . S
H971 C983 0.959 . S
H972 C986 0.929 . S
H973 C987 0.931 . S
H974 C989 0.930 . S
C975 H963 0.930 . S
C975 C976 1.399 . S
C975 C980 1.399 . S
C976 C975 1.399 . S
C976 C977 1.376 . S
C977 H964 0.930 . S
C977 C976 1.376 . S
C977 C978 1.388 . S
C978 H965 0.930 . S
C978 C977 1.388 . S
C978 C979 1.390 . S
C979 C978 1.390 . S
C979 C980 1.394 . S
C979 C985 1.465 . S
C980 C975 1.399 . S
C980 C979 1.394 . S
C980 C981 1.516 . S
C981 C980 1.516 . S
C981 C982 1.502 . S
C981 C983 1.561 . S
C981 C984 1.526 . S
C982 H966 0.959 . S
C982 H967 0.959 . S
C982 H968 0.961 . S
C982 C981 1.502 . S
C983 H969 0.960 . S
C983 H970 0.961 . S
C983 H971 0.959 . S
C983 C981 1.561 . S
C984 C981 1.526 . S
C984 C985 1.396 . S
C984 C989 1.390 . S
C985 C979 1.465 . S
C985 C984 1.396 . S
C985 C986 1.399 . S
C986 H972 0.929 . S
C986 C985 1.399 . S
C986 C987 1.385 . S
C987 H973 0.931 . S
C987 C986 1.385 . S
C987 C988 1.389 . S
C988 C987 1.389 . S
C988 C989 1.387 . S
C989 H974 0.930 . S
C989 C984 1.390 . S
C989 C988 1.387 . S
H990 C1002 0.930 . S
H991 C1004 0.930 . S
H992 C1005 0.930 . S
H993 C1009 0.959 . S
H994 C1009 0.959 . S
H995 C1009 0.961 . S
H996 C1010 0.960 . S
H997 C1010 0.961 . S
H998 C1010 0.959 . S
H999 C1013 0.929 . S
H1000 C1014 0.931 . S
H1001 C1016 0.930 . S
C1002 H990 0.930 . S
C1002 C1003 1.399 . S
C1002 C1007 1.399 . S
C1003 C1002 1.399 . S
C1003 C1004 1.376 . S
C1004 H991 0.930 . S
C1004 C1003 1.376 . S
C1004 C1005 1.388 . S
C1005 H992 0.930 . S
C1005 C1004 1.388 . S
C1005 C1006 1.390 . S
C1006 C1005 1.390 . S
C1006 C1007 1.394 . S
C1006 C1012 1.465 . S
C1007 C1002 1.399 . S
C1007 C1006 1.394 . S
C1007 C1008 1.516 . S
C1008 C1007 1.516 . S
C1008 C1009 1.502 . S
C1008 C1010 1.561 . S
C1008 C1011 1.526 . S
C1009 H993 0.959 . S
C1009 H994 0.959 . S
C1009 H995 0.961 . S
C1009 C1008 1.502 . S
C1010 H996 0.960 . S
C1010 H997 0.961 . S
C1010 H998 0.959 . S
C1010 C1008 1.561 . S
C1011 C1008 1.526 . S
C1011 C1012 1.396 . S
C1011 C1016 1.390 . S
C1012 C1006 1.465 . S
C1012 C1011 1.396 . S
C1012 C1013 1.399 . S
C1013 H999 0.929 . S
C1013 C1012 1.399 . S
C1013 C1014 1.385 . S
C1014 H1000 0.931 . S
C1014 C1013 1.385 . S
C1014 C1015 1.389 . S
C1015 C1014 1.389 . S
C1015 C1016 1.387 . S
C1016 H1001 0.930 . S
C1016 C1011 1.390 . S
C1016 C1015 1.387 . S
H1017 C1029 0.930 . S
H1018 C1031 0.930 . S
H1019 C1032 0.930 . S
H1020 C1036 0.959 . S
H1021 C1036 0.959 . S
H1022 C1036 0.961 . S
H1023 C1037 0.960 . S
H1024 C1037 0.961 . S
H1025 C1037 0.959 . S
H1026 C1040 0.929 . S
H1027 C1041 0.931 . S
H1028 C1043 0.930 . S
C1029 H1017 0.930 . S
C1029 C1030 1.399 . S
C1029 C1034 1.399 . S
C1030 C1029 1.399 . S
C1030 C1031 1.376 . S
C1031 H1018 0.930 . S
C1031 C1030 1.376 . S
C1031 C1032 1.388 . S
C1032 H1019 0.930 . S
C1032 C1031 1.388 . S
C1032 C1033 1.390 . S
C1033 C1032 1.390 . S
C1033 C1034 1.394 . S
C1033 C1039 1.465 . S
C1034 C1029 1.399 . S
C1034 C1033 1.394 . S
C1034 C1035 1.516 . S
C1035 C1034 1.516 . S
C1035 C1036 1.502 . S
C1035 C1037 1.561 . S
C1035 C1038 1.526 . S
C1036 H1020 0.959 . S
C1036 H1021 0.959 . S
C1036 H1022 0.961 . S
C1036 C1035 1.502 . S
C1037 H1023 0.960 . S
C1037 H1024 0.961 . S
C1037 H1025 0.959 . S
C1037 C1035 1.561 . S
C1038 C1035 1.526 . S
C1038 C1039 1.396 . S
C1038 C1043 1.390 . S
C1039 C1033 1.465 . S
C1039 C1038 1.396 . S
C1039 C1040 1.399 . S
C1040 H1026 0.929 . S
C1040 C1039 1.399 . S
C1040 C1041 1.385 . S
C1041 H1027 0.931 . S
C1041 C1040 1.385 . S
C1041 C1042 1.389 . S
C1042 C1041 1.389 . S
C1042 C1043 1.387 . S
C1043 H1028 0.930 . S
C1043 C1038 1.390 . S
C1043 C1042 1.387 . S
H1044 C1056 0.930 . S
H1045 C1058 0.930 . S
H1046 C1059 0.930 . S
H1047 C1063 0.959 . S
H1048 C1063 0.959 . S
H1049 C1063 0.961 . S
H1050 C1064 0.960 . S
H1051 C1064 0.961 . S
H1052 C1064 0.959 . S
H1053 C1067 0.929 . S
H1054 C1068 0.931 . S
H1055 C1070 0.930 . S
C1056 H1044 0.930 . S
C1056 C1057 1.399 . S
C1056 C1061 1.399 . S
C1057 C1056 1.399 . S
C1057 C1058 1.376 . S
C1058 H1045 0.930 . S
C1058 C1057 1.376 . S
C1058 C1059 1.388 . S
C1059 H1046 0.930 . S
C1059 C1058 1.388 . S
C1059 C1060 1.390 . S
C1060 C1059 1.390 . S
C1060 C1061 1.394 . S
C1060 C1066 1.465 . S
C1061 C1056 1.399 . S
C1061 C1060 1.394 . S
C1061 C1062 1.516 . S
C1062 C1061 1.516 . S
C1062 C1063 1.502 . S
C1062 C1064 1.561 . S
C1062 C1065 1.526 . S
C1063 H1047 0.959 . S
C1063 H1048 0.959 . S
C1063 H1049 0.961 . S
C1063 C1062 1.502 . S
C1064 H1050 0.960 . S
C1064 H1051 0.961 . S
C1064 H1052 0.959 . S
C1064 C1062 1.561 . S
C1065 C1062 1.526 . S
C1065 C1066 1.396 . S
C1065 C1070 1.390 . S
C1066 C1060 1.465 . S
C1066 C1065 1.396 . S
C1066 C1067 1.399 . S
C1067 H1053 0.929 . S
C1067 C1066 1.399 . S
C1067 C1068 1.385 . S
C1068 H1054 0.931 . S
C1068 C1067 1.385 . S
C1068 C1069 1.389 . S
C1069 C1068 1.389 . S
C1069 C1070 1.387 . S
C1070 H1055 0.930 . S
C1070 C1065 1.390 . S
C1070 C1069 1.387 . S
H1071 C1083 0.930 . S
H1072 C1085 0.930 . S
H1073 C1086 0.930 . S
H1074 C1090 0.959 . S
H1075 C1090 0.959 . S
H1076 C1090 0.961 . S
H1077 C1091 0.960 . S
H1078 C1091 0.961 . S
H1079 C1091 0.959 . S
H1080 C1094 0.929 . S
H1081 C1095 0.931 . S
H1082 C1097 0.930 . S
C1083 H1071 0.930 . S
C1083 C1084 1.399 . S
C1083 C1088 1.399 . S
C1084 C1083 1.399 . S
C1084 C1085 1.376 . S
C1085 H1072 0.930 . S
C1085 C1084 1.376 . S
C1085 C1086 1.388 . S
C1086 H1073 0.930 . S
C1086 C1085 1.388 . S
C1086 C1087 1.390 . S
C1087 C1086 1.390 . S
C1087 C1088 1.394 . S
C1087 C1093 1.465 . S
C1088 C1083 1.399 . S
C1088 C1087 1.394 . S
C1088 C1089 1.516 . S
C1089 C1088 1.516 . S
C1089 C1090 1.502 . S
C1089 C1091 1.561 . S
C1089 C1092 1.526 . S
C1090 H1074 0.959 . S
C1090 H1075 0.959 . S
C1090 H1076 0.961 . S
C1090 C1089 1.502 . S
C1091 H1077 0.960 . S
C1091 H1078 0.961 . S
C1091 H1079 0.959 . S
C1091 C1089 1.561 . S
C1092 C1089 1.526 . S
C1092 C1093 1.396 . S
C1092 C1097 1.390 . S
C1093 C1087 1.465 . S
C1093 C1092 1.396 . S
C1093 C1094 1.399 . S
C1094 H1080 0.929 . S
C1094 C1093 1.399 . S
C1094 C1095 1.385 . S
C1095 H1081 0.931 . S
C1095 C1094 1.385 . S
C1095 C1096 1.389 . S
C1096 C1095 1.389 . S
C1096 C1097 1.387 . S
C1097 H1082 0.930 . S
C1097 C1092 1.390 . S
C1097 C1096 1.387 . S
H1098 C1110 0.930 . S
H1099 C1112 0.930 . S
H1100 C1113 0.930 . S
H1101 C1117 0.959 . S
H1102 C1117 0.959 . S
H1103 C1117 0.961 . S
H1104 C1118 0.960 . S
H1105 C1118 0.961 . S
H1106 C1118 0.959 . S
H1107 C1121 0.929 . S
H1108 C1122 0.931 . S
H1109 C1124 0.930 . S
C1110 H1098 0.930 . S
C1110 C1111 1.399 . S
C1110 C1115 1.399 . S
C1111 C1110 1.399 . S
C1111 C1112 1.376 . S
C1112 H1099 0.930 . S
C1112 C1111 1.376 . S
C1112 C1113 1.388 . S
C1113 H1100 0.930 . S
C1113 C1112 1.388 . S
C1113 C1114 1.390 . S
C1114 C1113 1.390 . S
C1114 C1115 1.394 . S
C1114 C1120 1.465 . S
C1115 C1110 1.399 . S
C1115 C1114 1.394 . S
C1115 C1116 1.516 . S
C1116 C1115 1.516 . S
C1116 C1117 1.502 . S
C1116 C1118 1.561 . S
C1116 C1119 1.526 . S
C1117 H1101 0.959 . S
C1117 H1102 0.959 . S
C1117 H1103 0.961 . S
C1117 C1116 1.502 . S
C1118 H1104 0.960 . S
C1118 H1105 0.961 . S
C1118 H1106 0.959 . S
C1118 C1116 1.561 . S
C1119 C1116 1.526 . S
C1119 C1120 1.396 . S
C1119 C1124 1.390 . S
C1120 C1114 1.465 . S
C1120 C1119 1.396 . S
C1120 C1121 1.399 . S
C1121 H1107 0.929 . S
C1121 C1120 1.399 . S
C1121 C1122 1.385 . S
C1122 H1108 0.931 . S
C1122 C1121 1.385 . S
C1122 C1123 1.389 . S
C1123 C1122 1.389 . S
C1123 C1124 1.387 . S
C1124 H1109 0.930 . S
C1124 C1119 1.390 . S
C1124 C1123 1.387 . S
H1125 C1137 0.930 . S
H1126 C1139 0.930 . S
H1127 C1140 0.930 . S
H1128 C1144 0.959 . S
H1129 C1144 0.959 . S
H1130 C1144 0.961 . S
H1131 C1145 0.960 . S
H1132 C1145 0.961 . S
H1133 C1145 0.959 . S
H1134 C1148 0.929 . S
H1135 C1149 0.931 . S
H1136 C1151 0.930 . S
C1137 H1125 0.930 . S
C1137 C1138 1.399 . S
C1137 C1142 1.399 . S
C1138 C1137 1.399 . S
C1138 C1139 1.376 . S
C1139 H1126 0.930 . S
C1139 C1138 1.376 . S
C1139 C1140 1.388 . S
C1140 H1127 0.930 . S
C1140 C1139 1.388 . S
C1140 C1141 1.390 . S
C1141 C1140 1.390 . S
C1141 C1142 1.394 . S
C1141 C1147 1.465 . S
C1142 C1137 1.399 . S
C1142 C1141 1.394 . S
C1142 C1143 1.516 . S
C1143 C1142 1.516 . S
C1143 C1144 1.502 . S
C1143 C1145 1.561 . S
C1143 C1146 1.526 . S
C1144 H1128 0.959 . S
C1144 H1129 0.959 . S
C1144 H1130 0.961 . S
C1144 C1143 1.502 . S
C1145 H1131 0.960 . S
C1145 H1132 0.961 . S
C1145 H1133 0.959 . S
C1145 C1143 1.561 . S
C1146 C1143 1.526 . S
C1146 C1147 1.396 . S
C1146 C1151 1.390 . S
C1147 C1141 1.465 . S
C1147 C1146 1.396 . S
C1147 C1148 1.399 . S
C1148 H1134 0.929 . S
C1148 C1147 1.399 . S
C1148 C1149 1.385 . S
C1149 H1135 0.931 . S
C1149 C1148 1.385 . S
C1149 C1150 1.389 . S
C1150 C1149 1.389 . S
C1150 C1151 1.387 . S
C1151 H1136 0.930 . S
C1151 C1146 1.390 . S
C1151 C1150 1.387 . S
H1152 C1164 0.930 . S
H1153 C1166 0.930 . S
H1154 C1167 0.930 . S
H1155 C1171 0.959 . S
H1156 C1171 0.959 . S
H1157 C1171 0.961 . S
H1158 C1172 0.960 . S
H1159 C1172 0.961 . S
H1160 C1172 0.959 . S
H1161 C1175 0.929 . S
H1162 C1176 0.931 . S
H1163 C1178 0.930 . S
C1164 H1152 0.930 . S
C1164 C1165 1.399 . S
C1164 C1169 1.399 . S
C1165 C1164 1.399 . S
C1165 C1166 1.376 . S
C1166 H1153 0.930 . S
C1166 C1165 1.376 . S
C1166 C1167 1.388 . S
C1167 H1154 0.930 . S
C1167 C1166 1.388 . S
C1167 C1168 1.390 . S
C1168 C1167 1.390 . S
C1168 C1169 1.394 . S
C1168 C1174 1.465 . S
C1169 C1164 1.399 . S
C1169 C1168 1.394 . S
C1169 C1170 1.516 . S
C1170 C1169 1.516 . S
C1170 C1171 1.502 . S
C1170 C1172 1.561 . S
C1170 C1173 1.526 . S
C1171 H1155 0.959 . S
C1171 H1156 0.959 . S
C1171 H1157 0.961 . S
C1171 C1170 1.502 . S
C1172 H1158 0.960 . S
C1172 H1159 0.961 . S
C1172 H1160 0.959 . S
C1172 C1170 1.561 . S
C1173 C1170 1.526 . S
C1173 C1174 1.396 . S
C1173 C1178 1.390 . S
C1174 C1168 1.465 . S
C1174 C1173 1.396 . S
C1174 C1175 1.399 . S
C1175 H1161 0.929 . S
C1175 C1174 1.399 . S
C1175 C1176 1.385 . S
C1176 H1162 0.931 . S
C1176 C1175 1.385 . S
C1176 C1177 1.389 . S
C1177 C1176 1.389 . S
C1177 C1178 1.387 . S
C1178 H1163 0.930 . S
C1178 C1173 1.390 . S
C1178 C1177 1.387 . S
H1179 C1191 0.930 . S
H1180 C1193 0.930 . S
H1181 C1194 0.930 . S
H1182 C1198 0.959 . S
H1183 C1198 0.959 . S
H1184 C1198 0.961 . S
H1185 C1199 0.960 . S
H1186 C1199 0.961 . S
H1187 C1199 0.959 . S
H1188 C1202 0.929 . S
H1189 C1203 0.931 . S
H1190 C1205 0.930 . S
C1191 H1179 0.930 . S
C1191 C1192 1.399 . S
C1191 C1196 1.399 . S
C1192 C1191 1.399 . S
C1192 C1193 1.376 . S
C1193 H1180 0.930 . S
C1193 C1192 1.376 . S
C1193 C1194 1.388 . S
C1194 H1181 0.930 . S
C1194 C1193 1.388 . S
C1194 C1195 1.390 . S
C1195 C1194 1.390 . S
C1195 C1196 1.394 . S
C1195 C1201 1.465 . S
C1196 C1191 1.399 . S
C1196 C1195 1.394 . S
C1196 C1197 1.516 . S
C1197 C1196 1.516 . S
C1197 C1198 1.502 . S
C1197 C1199 1.561 . S
C1197 C1200 1.526 . S
C1198 H1182 0.959 . S
C1198 H1183 0.959 . S
C1198 H1184 0.961 . S
C1198 C1197 1.502 . S
C1199 H1185 0.960 . S
C1199 H1186 0.961 . S
C1199 H1187 0.959 . S
C1199 C1197 1.561 . S
C1200 C1197 1.526 . S
C1200 C1201 1.396 . S
C1200 C1205 1.390 . S
C1201 C1195 1.465 . S
C1201 C1200 1.396 . S
C1201 C1202 1.399 . S
C1202 H1188 0.929 . S
C1202 C1201 1.399 . S
C1202 C1203 1.385 . S
C1203 H1189 0.931 . S
C1203 C1202 1.385 . S
C1203 C1204 1.389 . S
C1204 C1203 1.389 . S
C1204 C1205 1.387 . S
C1205 H1190 0.930 . S
C1205 C1200 1.390 . S
C1205 C1204 1.387 . S
H1206 C1218 0.930 . S
H1207 C1220 0.930 . S
H1208 C1221 0.930 . S
H1209 C1225 0.959 . S
H1210 C1225 0.959 . S
H1211 C1225 0.961 . S
H1212 C1226 0.960 . S
H1213 C1226 0.961 . S
H1214 C1226 0.959 . S
H1215 C1229 0.929 . S
H1216 C1230 0.931 . S
H1217 C1232 0.930 . S
C1218 H1206 0.930 . S
C1218 C1219 1.399 . S
C1218 C1223 1.399 . S
C1219 C1218 1.399 . S
C1219 C1220 1.376 . S
C1220 H1207 0.930 . S
C1220 C1219 1.376 . S
C1220 C1221 1.388 . S
C1221 H1208 0.930 . S
C1221 C1220 1.388 . S
C1221 C1222 1.390 . S
C1222 C1221 1.390 . S
C1222 C1223 1.394 . S
C1222 C1228 1.465 . S
C1223 C1218 1.399 . S
C1223 C1222 1.394 . S
C1223 C1224 1.516 . S
C1224 C1223 1.516 . S
C1224 C1225 1.502 . S
C1224 C1226 1.561 . S
C1224 C1227 1.526 . S
C1225 H1209 0.959 . S
C1225 H1210 0.959 . S
C1225 H1211 0.961 . S
C1225 C1224 1.502 . S
C1226 H1212 0.960 . S
C1226 H1213 0.961 . S
C1226 H1214 0.959 . S
C1226 C1224 1.561 . S
C1227 C1224 1.526 . S
C1227 C1228 1.396 . S
C1227 C1232 1.390 . S
C1228 C1222 1.465 . S
C1228 C1227 1.396 . S
C1228 C1229 1.399 . S
C1229 H1215 0.929 . S
C1229 C1228 1.399 . S
C1229 C1230 1.385 . S
C1230 H1216 0.931 . S
C1230 C1229 1.385 . S
C1230 C1231 1.389 . S
C1231 C1230 1.389 . S
C1231 C1232 1.387 . S
C1232 H1217 0.930 . S
C1232 C1227 1.390 . S
C1232 C1231 1.387 . S
H1233 C1245 0.930 . S
H1234 C1247 0.930 . S
H1235 C1248 0.930 . S
H1236 C1252 0.959 . S
H1237 C1252 0.959 . S
H1238 C1252 0.961 . S
H1239 C1253 0.960 . S
H1240 C1253 0.961 . S
H1241 C1253 0.959 . S
H1242 C1256 0.929 . S
H1243 C1257 0.931 . S
H1244 C1259 0.930 . S
C1245 H1233 0.930 . S
C1245 C1246 1.399 . S
C1245 C1250 1.399 . S
C1246 C1245 1.399 . S
C1246 C1247 1.376 . S
C1247 H1234 0.930 . S
C1247 C1246 1.376 . S
C1247 C1248 1.388 . S
C1248 H1235 0.930 . S
C1248 C1247 1.388 . S
C1248 C1249 1.390 . S
C1249 C1248 1.390 . S
C1249 C1250 1.394 . S
C1249 C1255 1.465 . S
C1250 C1245 1.399 . S
C1250 C1249 1.394 . S
C1250 C1251 1.516 . S
C1251 C1250 1.516 . S
C1251 C1252 1.502 . S
C1251 C1253 1.561 . S
C1251 C1254 1.526 . S
C1252 H1236 0.959 . S
C1252 H1237 0.959 . S
C1252 H1238 0.961 . S
C1252 C1251 1.502 . S
C1253 H1239 0.960 . S
C1253 H1240 0.961 . S
C1253 H1241 0.959 . S
C1253 C1251 1.561 . S
C1254 C1251 1.526 . S
C1254 C1255 1.396 . S
C1254 C1259 1.390 . S
C1255 C1249 1.465 . S
C1255 C1254 1.396 . S
C1255 C1256 1.399 . S
C1256 H1242 0.929 . S
C1256 C1255 1.399 . S
C1256 C1257 1.385 . S
C1257 H1243 0.931 . S
C1257 C1256 1.385 . S
C1257 C1258 1.389 . S
C1258 C1257 1.389 . S
C1258 C1259 1.387 . S
C1259 H1244 0.930 . S
C1259 C1254 1.390 . S
C1259 C1258 1.387 . S
H1260 C1272 0.930 . S
H1261 C1274 0.930 . S
H1262 C1275 0.930 . S
H1263 C1279 0.959 . S
H1264 C1279 0.959 . S
H1265 C1279 0.961 . S
H1266 C1280 0.960 . S
H1267 C1280 0.961 . S
H1268 C1280 0.959 . S
H1269 C1283 0.929 . S
H1270 C1284 0.931 . S
H1271 C1286 0.930 . S
C1272 H1260 0.930 . S
C1272 C1273 1.399 . S
C1272 C1277 1.399 . S
C1273 C1272 1.399 . S
C1273 C1274 1.376 . S
C1274 H1261 0.930 . S
C1274 C1273 1.376 . S
C1274 C1275 1.388 . S
C1275 H1262 0.930 . S
C1275 C1274 1.388 . S
C1275 C1276 1.390 . S
C1276 C1275 1.390 . S
C1276 C1277 1.394 . S
C1276 C1282 1.465 . S
C1277 C1272 1.399 . S
C1277 C1276 1.394 . S
C1277 C1278 1.516 . S
C1278 C1277 1.516 . S
C1278 C1279 1.502 . S
C1278 C1280 1.561 . S
C1278 C1281 1.526 . S
C1279 H1263 0.959 . S
C1279 H1264 0.959 . S
C1279 H1265 0.961 . S
C1279 C1278 1.502 . S
C1280 H1266 0.960 . S
C1280 H1267 0.961 . S
C1280 H1268 0.959 . S
C1280 C1278 1.561 . S
C1281 C1278 1.526 . S
C1281 C1282 1.396 . S
C1281 C1286 1.390 . S
C1282 C1276 1.465 . S
C1282 C1281 1.396 . S
C1282 C1283 1.399 . S
C1283 H1269 0.929 . S
C1283 C1282 1.399 . S
C1283 C1284 1.385 . S
C1284 H1270 0.931 . S
C1284 C1283 1.385 . S
C1284 C1285 1.389 . S
C1285 C1284 1.389 . S
C1285 C1286 1.387 . S
C1286 H1271 0.930 . S
C1286 C1281 1.390 . S
C1286 C1285 1.387 . S
H1287 C1299 0.930 . S
H1288 C1301 0.930 . S
H1289 C1302 0.930 . S
H1290 C1306 0.959 . S
H1291 C1306 0.959 . S
H1292 C1306 0.961 . S
H1293 C1307 0.960 . S
H1294 C1307 0.961 . S
H1295 C1307 0.959 . S
H1296 C1310 0.929 . S
H1297 C1311 0.931 . S
H1298 C1313 0.930 . S
C1299 H1287 0.930 . S
C1299 C1300 1.399 . S
C1299 C1304 1.399 . S
C1300 C1299 1.399 . S
C1300 C1301 1.376 . S
C1301 H1288 0.930 . S
C1301 C1300 1.376 . S
C1301 C1302 1.388 . S
C1302 H1289 0.930 . S
C1302 C1301 1.388 . S
C1302 C1303 1.390 . S
C1303 C1302 1.390 . S
C1303 C1304 1.394 . S
C1303 C1309 1.465 . S
C1304 C1299 1.399 . S
C1304 C1303 1.394 . S
C1304 C1305 1.516 . S
C1305 C1304 1.516 . S
C1305 C1306 1.502 . S
C1305 C1307 1.561 . S
C1305 C1308 1.526 . S
C1306 H1290 0.959 . S
C1306 H1291 0.959 . S
C1306 H1292 0.961 . S
C1306 C1305 1.502 . S
C1307 H1293 0.960 . S
C1307 H1294 0.961 . S
C1307 H1295 0.959 . S
C1307 C1305 1.561 . S
C1308 C1305 1.526 . S
C1308 C1309 1.396 . S
C1308 C1313 1.390 . S
C1309 C1303 1.465 . S
C1309 C1308 1.396 . S
C1309 C1310 1.399 . S
C1310 H1296 0.929 . S
C1310 C1309 1.399 . S
C1310 C1311 1.385 . S
C1311 H1297 0.931 . S
C1311 C1310 1.385 . S
C1311 C1312 1.389 . S
C1312 C1311 1.389 . S
C1312 C1313 1.387 . S
C1313 H1298 0.930 . S
C1313 C1308 1.390 . S
C1313 C1312 1.387 . S
H1314 C1326 0.930 . S
H1315 C1328 0.930 . S
H1316 C1329 0.930 . S
H1317 C1333 0.959 . S
H1318 C1333 0.959 . S
H1319 C1333 0.961 . S
H1320 C1334 0.960 . S
H1321 C1334 0.961 . S
H1322 C1334 0.959 . S
H1323 C1337 0.929 . S
H1324 C1338 0.931 . S
H1325 C1340 0.930 . S
C1326 H1314 0.930 . S
C1326 C1327 1.399 . S
C1326 C1331 1.399 . S
C1327 C1326 1.399 . S
C1327 C1328 1.376 . S
C1328 H1315 0.930 . S
C1328 C1327 1.376 . S
C1328 C1329 1.388 . S
C1329 H1316 0.930 . S
C1329 C1328 1.388 . S
C1329 C1330 1.390 . S
C1330 C1329 1.390 . S
C1330 C1331 1.394 . S
C1330 C1336 1.465 . S
C1331 C1326 1.399 . S
C1331 C1330 1.394 . S
C1331 C1332 1.516 . S
C1332 C1331 1.516 . S
C1332 C1333 1.502 . S
C1332 C1334 1.561 . S
C1332 C1335 1.526 . S
C1333 H1317 0.959 . S
C1333 H1318 0.959 . S
C1333 H1319 0.961 . S
C1333 C1332 1.502 . S
C1334 H1320 0.960 . S
C1334 H1321 0.961 . S
C1334 H1322 0.959 . S
C1334 C1332 1.561 . S
C1335 C1332 1.526 . S
C1335 C1336 1.396 . S
C1335 C1340 1.390 . S
C1336 C1330 1.465 . S
C1336 C1335 1.396 . S
C1336 C1337 1.399 . S
C1337 H1323 0.929 . S
C1337 C1336 1.399 . S
C1337 C1338 1.385 . S
C1338 H1324 0.931 . S
C1338 C1337 1.385 . S
C1338 C1339 1.389 . S
C1339 C1338 1.389 . S
C1339 C1340 1.387 . S
C1340 H1325 0.930 . S
C1340 C1335 1.390 . S
C1340 C1339 1.387 . S
H1341 C1353 0.930 . S
H1342 C1355 0.930 . S
H1343 C1356 0.930 . S
H1344 C1360 0.959 . S
H1345 C1360 0.959 . S
H1346 C1360 0.961 . S
H1347 C1361 0.960 . S
H1348 C1361 0.961 . S
H1349 C1361 0.959 . S
H1350 C1364 0.929 . S
H1351 C1365 0.931 . S
H1352 C1367 0.930 . S
C1353 H1341 0.930 . S
C1353 C1354 1.399 . S
C1353 C1358 1.399 . S
C1354 C1353 1.399 . S
C1354 C1355 1.376 . S
C1355 H1342 0.930 . S
C1355 C1354 1.376 . S
C1355 C1356 1.388 . S
C1356 H1343 0.930 . S
C1356 C1355 1.388 . S
C1356 C1357 1.390 . S
C1357 C1356 1.390 . S
C1357 C1358 1.394 . S
C1357 C1363 1.465 . S
C1358 C1353 1.399 . S
C1358 C1357 1.394 . S
C1358 C1359 1.516 . S
C1359 C1358 1.516 . S
C1359 C1360 1.502 . S
C1359 C1361 1.561 . S
C1359 C1362 1.526 . S
C1360 H1344 0.959 . S
C1360 H1345 0.959 . S
C1360 H1346 0.961 . S
C1360 C1359 1.502 . S
C1361 H1347 0.960 . S
C1361 H1348 0.961 . S
C1361 H1349 0.959 . S
C1361 C1359 1.561 . S
C1362 C1359 1.526 . S
C1362 C1363 1.396 . S
C1362 C1367 1.390 . S
C1363 C1357 1.465 . S
C1363 C1362 1.396 . S
C1363 C1364 1.399 . S
C1364 H1350 0.929 . S
C1364 C1363 1.399 . S
C1364 C1365 1.385 . S
C1365 H1351 0.931 . S
C1365 C1364 1.385 . S
C1365 C1366 1.389 . S
C1366 C1365 1.389 . S
C1366 C1367 1.387 . S
C1367 H1352 0.930 . S
C1367 C1362 1.390 . S
C1367 C1366 1.387 . S
H1368 C1380 0.930 . S
H1369 C1382 0.930 . S
H1370 C1383 0.930 . S
H1371 C1387 0.959 . S
H1372 C1387 0.959 . S
H1373 C1387 0.961 . S
H1374 C1388 0.960 . S
H1375 C1388 0.961 . S
H1376 C1388 0.959 . S
H1377 C1391 0.929 . S
H1378 C1392 0.931 . S
H1379 C1394 0.930 . S
C1380 H1368 0.930 . S
C1380 C1381 1.399 . S
C1380 C1385 1.399 . S
C1381 C1380 1.399 . S
C1381 C1382 1.376 . S
C1382 H1369 0.930 . S
C1382 C1381 1.376 . S
C1382 C1383 1.388 . S
C1383 H1370 0.930 . S
C1383 C1382 1.388 . S
C1383 C1384 1.390 . S
C1384 C1383 1.390 . S
C1384 C1385 1.394 . S
C1384 C1390 1.465 . S
C1385 C1380 1.399 . S
C1385 C1384 1.394 . S
C1385 C1386 1.516 . S
C1386 C1385 1.516 . S
C1386 C1387 1.502 . S
C1386 C1388 1.561 . S
C1386 C1389 1.526 . S
C1387 H1371 0.959 . S
C1387 H1372 0.959 . S
C1387 H1373 0.961 . S
C1387 C1386 1.502 . S
C1388 H1374 0.960 . S
C1388 H1375 0.961 . S
C1388 H1376 0.959 . S
C1388 C1386 1.561 . S
C1389 C1386 1.526 . S
C1389 C1390 1.396 . S
C1389 C1394 1.390 . S
C1390 C1384 1.465 . S
C1390 C1389 1.396 . S
C1390 C1391 1.399 . S
C1391 H1377 0.929 . S
C1391 C1390 1.399 . S
C1391 C1392 1.385 . S
C1392 H1378 0.931 . S
C1392 C1391 1.385 . S
C1392 C1393 1.389 . S
C1393 C1392 1.389 . S
C1393 C1394 1.387 . S
C1394 H1379 0.930 . S
C1394 C1389 1.390 . S
C1394 C1393 1.387 . S
H1395 C1407 0.930 . S
H1396 C1409 0.930 . S
H1397 C1410 0.930 . S
H1398 C1414 0.959 . S
H1399 C1414 0.959 . S
H1400 C1414 0.961 . S
H1401 C1415 0.960 . S
H1402 C1415 0.961 . S
H1403 C1415 0.959 . S
H1404 C1418 0.929 . S
H1405 C1419 0.931 . S
H1406 C1421 0.930 . S
C1407 H1395 0.930 . S
C1407 C1408 1.399 . S
C1407 C1412 1.399 . S
C1408 C1407 1.399 . S
C1408 C1409 1.376 . S
C1409 H1396 0.930 . S
C1409 C1408 1.376 . S
C1409 C1410 1.388 . S
C1410 H1397 0.930 . S
C1410 C1409 1.388 . S
C1410 C1411 1.390 . S
C1411 C1410 1.390 . S
C1411 C1412 1.394 . S
C1411 C1417 1.465 . S
C1412 C1407 1.399 . S
C1412 C1411 1.394 . S
C1412 C1413 1.516 . S
C1413 C1412 1.516 . S
C1413 C1414 1.502 . S
C1413 C1415 1.561 . S
C1413 C1416 1.526 . S
C1414 H1398 0.959 . S
C1414 H1399 0.959 . S
C1414 H1400 0.961 . S
C1414 C1413 1.502 . S
C1415 H1401 0.960 . S
C1415 H1402 0.961 . S
C1415 H1403 0.959 . S
C1415 C1413 1.561 . S
C1416 C1413 1.526 . S
C1416 C1417 1.396 . S
C1416 C1421 1.390 . S
C1417 C1411 1.465 . S
C1417 C1416 1.396 . S
C1417 C1418 1.399 . S
C1418 H1404 0.929 . S
C1418 C1417 1.399 . S
C1418 C1419 1.385 . S
C1419 H1405 0.931 . S
C1419 C1418 1.385 . S
C1419 C1420 1.389 . S
C1420 C1419 1.389 . S
C1420 C1421 1.387 . S
C1421 H1406 0.930 . S
C1421 C1416 1.390 . S
C1421 C1420 1.387 . S
H1422 C1434 0.930 . S
H1423 C1436 0.930 . S
H1424 C1437 0.930 . S
H1425 C1441 0.959 . S
H1426 C1441 0.959 . S
H1427 C1441 0.961 . S
H1428 C1442 0.960 . S
H1429 C1442 0.961 . S
H1430 C1442 0.959 . S
H1431 C1445 0.929 . S
H1432 C1446 0.931 . S
H1433 C1448 0.930 . S
C1434 H1422 0.930 . S
C1434 C1435 1.399 . S
C1434 C1439 1.399 . S
C1435 C1434 1.399 . S
C1435 C1436 1.376 . S
C1436 H1423 0.930 . S
C1436 C1435 1.376 . S
C1436 C1437 1.388 . S
C1437 H1424 0.930 . S
C1437 C1436 1.388 . S
C1437 C1438 1.390 . S
C1438 C1437 1.390 . S
C1438 C1439 1.394 . S
C1438 C1444 1.465 . S
C1439 C1434 1.399 . S
C1439 C1438 1.394 . S
C1439 C1440 1.516 . S
C1440 C1439 1.516 . S
C1440 C1441 1.502 . S
C1440 C1442 1.561 . S
C1440 C1443 1.526 . S
C1441 H1425 0.959 . S
C1441 H1426 0.959 . S
C1441 H1427 0.961 . S
C1441 C1440 1.502 . S
C1442 H1428 0.960 . S
C1442 H1429 0.961 . S
C1442 H1430 0.959 . S
C1442 C1440 1.561 . S
C1443 C1440 1.526 . S
C1443 C1444 1.396 . S
C1443 C1448 1.390 . S
C1444 C1438 1.465 . S
C1444 C1443 1.396 . S
C1444 C1445 1.399 . S
C1445 H1431 0.929 . S
C1445 C1444 1.399 . S
C1445 C1446 1.385 . S
C1446 H1432 0.931 . S
C1446 C1445 1.385 . S
C1446 C1447 1.389 . S
C1447 C1446 1.389 . S
C1447 C1448 1.387 . S
C1448 H1433 0.930 . S
C1448 C1443 1.390 . S
C1448 C1447 1.387 . S
H1449 C1461 0.930 . S
H1450 C1463 0.930 . S
H1451 C1464 0.930 . S
H1452 C1468 0.959 . S
H1453 C1468 0.959 . S
H1454 C1468 0.961 . S
H1455 C1469 0.960 . S
H1456 C1469 0.961 . S
H1457 C1469 0.959 . S
H1458 C1472 0.929 . S
H1459 C1473 0.931 . S
H1460 C1475 0.930 . S
C1461 H1449 0.930 . S
C1461 C1462 1.399 . S
C1461 C1466 1.399 . S
C1462 C1461 1.399 . S
C1462 C1463 1.376 . S
C1463 H1450 0.930 . S
C1463 C1462 1.376 . S
C1463 C1464 1.388 . S
C1464 H1451 0.930 . S
C1464 C1463 1.388 . S
C1464 C1465 1.390 . S
C1465 C1464 1.390 . S
C1465 C1466 1.394 . S
C1465 C1471 1.465 . S
C1466 C1461 1.399 . S
C1466 C1465 1.394 . S
C1466 C1467 1.516 . S
C1467 C1466 1.516 . S
C1467 C1468 1.502 . S
C1467 C1469 1.561 . S
C1467 C1470 1.526 . S
C1468 H1452 0.959 . S
C1468 H1453 0.959 . S
C1468 H1454 0.961 . S
C1468 C1467 1.502 . S
C1469 H1455 0.960 . S
C1469 H1456 0.961 . S
C1469 H1457 0.959 . S
C1469 C1467 1.561 . S
C1470 C1467 1.526 . S
C1470 C1471 1.396 . S
C1470 C1475 1.390 . S
C1471 C1465 1.465 . S
C1471 C1470 1.396 . S
C1471 C1472 1.399 . S
C1472 H1458 0.929 . S
C1472 C1471 1.399 . S
C1472 C1473 1.385 . S
C1473 H1459 0.931 . S
C1473 C1472 1.385 . S
C1473 C1474 1.389 . S
C1474 C1473 1.389 . S
C1474 C1475 1.387 . S
C1475 H1460 0.930 . S
C1475 C1470 1.390 . S
C1475 C1474 1.387 . S
H1476 C1488 0.930 . S
H1477 C1490 0.930 . S
H1478 C1491 0.930 . S
H1479 C1495 0.959 . S
H1480 C1495 0.959 . S
H1481 C1495 0.961 . S
H1482 C1496 0.960 . S
H1483 C1496 0.961 . S
H1484 C1496 0.959 . S
H1485 C1499 0.929 . S
H1486 C1500 0.931 . S
H1487 C1502 0.930 . S
C1488 H1476 0.930 . S
C1488 C1489 1.399 . S
C1488 C1493 1.399 . S
C1489 C1488 1.399 . S
C1489 C1490 1.376 . S
C1490 H1477 0.930 . S
C1490 C1489 1.376 . S
C1490 C1491 1.388 . S
C1491 H1478 0.930 . S
C1491 C1490 1.388 . S
C1491 C1492 1.390 . S
C1492 C1491 1.390 . S
C1492 C1493 1.394 . S
C1492 C1498 1.465 . S
C1493 C1488 1.399 . S
C1493 C1492 1.394 . S
C1493 C1494 1.516 . S
C1494 C1493 1.516 . S
C1494 C1495 1.502 . S
C1494 C1496 1.561 . S
C1494 C1497 1.526 . S
C1495 H1479 0.959 . S
C1495 H1480 0.959 . S
C1495 H1481 0.961 . S
C1495 C1494 1.502 . S
C1496 H1482 0.960 . S
C1496 H1483 0.961 . S
C1496 H1484 0.959 . S
C1496 C1494 1.561 . S
C1497 C1494 1.526 . S
C1497 C1498 1.396 . S
C1497 C1502 1.390 . S
C1498 C1492 1.465 . S
C1498 C1497 1.396 . S
C1498 C1499 1.399 . S
C1499 H1485 0.929 . S
C1499 C1498 1.399 . S
C1499 C1500 1.385 . S
C1500 H1486 0.931 . S
C1500 C1499 1.385 . S
C1500 C1501 1.389 . S
C1501 C1500 1.389 . S
C1501 C1502 1.387 . S
C1502 H1487 0.930 . S
C1502 C1497 1.390 . S
C1502 C1501 1.387 . S
H1503 C1515 0.930 . S
H1504 C1517 0.930 . S
H1505 C1518 0.930 . S
H1506 C1522 0.959 . S
H1507 C1522 0.959 . S
H1508 C1522 0.961 . S
H1509 C1523 0.960 . S
H1510 C1523 0.961 . S
H1511 C1523 0.959 . S
H1512 C1526 0.929 . S
H1513 C1527 0.931 . S
H1514 C1529 0.930 . S
C1515 H1503 0.930 . S
C1515 C1516 1.399 . S
C1515 C1520 1.399 . S
C1516 C1515 1.399 . S
C1516 C1517 1.376 . S
C1517 H1504 0.930 . S
C1517 C1516 1.376 . S
C1517 C1518 1.388 . S
C1518 H1505 0.930 . S
C1518 C1517 1.388 . S
C1518 C1519 1.390 . S
C1519 C1518 1.390 . S
C1519 C1520 1.394 . S
C1519 C1525 1.465 . S
C1520 C1515 1.399 . S
C1520 C1519 1.394 . S
C1520 C1521 1.516 . S
C1521 C1520 1.516 . S
C1521 C1522 1.502 . S
C1521 C1523 1.561 . S
C1521 C1524 1.526 . S
C1522 H1506 0.959 . S
C1522 H1507 0.959 . S
C1522 H1508 0.961 . S
C1522 C1521 1.502 . S
C1523 H1509 0.960 . S
C1523 H1510 0.961 . S
C1523 H1511 0.959 . S
C1523 C1521 1.561 . S
C1524 C1521 1.526 . S
C1524 C1525 1.396 . S
C1524 C1529 1.390 . S
C1525 C1519 1.465 . S
C1525 C1524 1.396 . S
C1525 C1526 1.399 . S
C1526 H1512 0.929 . S
C1526 C1525 1.399 . S
C1526 C1527 1.385 . S
C1527 H1513 0.931 . S
C1527 C1526 1.385 . S
C1527 C1528 1.389 . S
C1528 C1527 1.389 . S
C1528 C1529 1.387 . S
C1529 H1514 0.930 . S
C1529 C1524 1.390 . S
C1529 C1528 1.387 . S
H1530 C1542 0.930 . S
H1531 C1544 0.930 . S
H1532 C1545 0.930 . S
H1533 C1549 0.959 . S
H1534 C1549 0.959 . S
H1535 C1549 0.961 . S
H1536 C1550 0.960 . S
H1537 C1550 0.961 . S
H1538 C1550 0.959 . S
H1539 C1553 0.929 . S
H1540 C1554 0.931 . S
H1541 C1556 0.930 . S
C1542 H1530 0.930 . S
C1542 C1543 1.399 . S
C1542 C1547 1.399 . S
C1543 C1542 1.399 . S
C1543 C1544 1.376 . S
C1544 H1531 0.930 . S
C1544 C1543 1.376 . S
C1544 C1545 1.388 . S
C1545 H1532 0.930 . S
C1545 C1544 1.388 . S
C1545 C1546 1.390 . S
C1546 C1545 1.390 . S
C1546 C1547 1.394 . S
C1546 C1552 1.465 . S
C1547 C1542 1.399 . S
C1547 C1546 1.394 . S
C1547 C1548 1.516 . S
C1548 C1547 1.516 . S
C1548 C1549 1.502 . S
C1548 C1550 1.561 . S
C1548 C1551 1.526 . S
C1549 H1533 0.959 . S
C1549 H1534 0.959 . S
C1549 H1535 0.961 . S
C1549 C1548 1.502 . S
C1550 H1536 0.960 . S
C1550 H1537 0.961 . S
C1550 H1538 0.959 . S
C1550 C1548 1.561 . S
C1551 C1548 1.526 . S
C1551 C1552 1.396 . S
C1551 C1556 1.390 . S
C1552 C1546 1.465 . S
C1552 C1551 1.396 . S
C1552 C1553 1.399 . S
C1553 H1539 0.929 . S
C1553 C1552 1.399 . S
C1553 C1554 1.385 . S
C1554 H1540 0.931 . S
C1554 C1553 1.385 . S
C1554 C1555 1.389 . S
C1555 C1554 1.389 . S
C1555 C1556 1.387 . S
C1556 H1541 0.930 . S
C1556 C1551 1.390 . S
C1556 C1555 1.387 . S
H1557 C1569 0.930 . S
H1558 C1571 0.930 . S
H1559 C1572 0.930 . S
H1560 C1576 0.959 . S
H1561 C1576 0.959 . S
H1562 C1576 0.961 . S
H1563 C1577 0.960 . S
H1564 C1577 0.961 . S
H1565 C1577 0.959 . S
H1566 C1580 0.929 . S
H1567 C1581 0.931 . S
H1568 C1583 0.930 . S
C1569 H1557 0.930 . S
C1569 C1570 1.399 . S
C1569 C1574 1.399 . S
C1570 C1569 1.399 . S
C1570 C1571 1.376 . S
C1571 H1558 0.930 . S
C1571 C1570 1.376 . S
C1571 C1572 1.388 . S
C1572 H1559 0.930 . S
C1572 C1571 1.388 . S
C1572 C1573 1.390 . S
C1573 C1572 1.390 . S
C1573 C1574 1.394 . S
C1573 C1579 1.465 . S
C1574 C1569 1.399 . S
C1574 C1573 1.394 . S
C1574 C1575 1.516 . S
C1575 C1574 1.516 . S
C1575 C1576 1.502 . S
C1575 C1577 1.561 . S
C1575 C1578 1.526 . S
C1576 H1560 0.959 . S
C1576 H1561 0.959 . S
C1576 H1562 0.961 . S
C1576 C1575 1.502 . S
C1577 H1563 0.960 . S
C1577 H1564 0.961 . S
C1577 H1565 0.959 . S
C1577 C1575 1.561 . S
C1578 C1575 1.526 . S
C1578 C1579 1.396 . S
C1578 C1583 1.390 . S
C1579 C1573 1.465 . S
C1579 C1578 1.396 . S
C1579 C1580 1.399 . S
C1580 H1566 0.929 . S
C1580 C1579 1.399 . S
C1580 C1581 1.385 . S
C1581 H1567 0.931 . S
C1581 C1580 1.385 . S
C1581 C1582 1.389 . S
C1582 C1581 1.389 . S
C1582 C1583 1.387 . S
C1583 H1568 0.930 . S
C1583 C1578 1.390 . S
C1583 C1582 1.387 . S
H1584 C1596 0.930 . S
H1585 C1598 0.930 . S
H1586 C1599 0.930 . S
H1587 C1603 0.959 . S
H1588 C1603 0.959 . S
H1589 C1603 0.961 . S
H1590 C1604 0.960 . S
H1591 C1604 0.961 . S
H1592 C1604 0.959 . S
H1593 C1607 0.929 . S
H1594 C1608 0.931 . S
H1595 C1610 0.930 . S
C1596 H1584 0.930 . S
C1596 C1597 1.399 . S
C1596 C1601 1.399 . S
C1597 C1596 1.399 . S
C1597 C1598 1.376 . S
C1598 H1585 0.930 . S
C1598 C1597 1.376 . S
C1598 C1599 1.388 . S
C1599 H1586 0.930 . S
C1599 C1598 1.388 . S
C1599 C1600 1.390 . S
C1600 C1599 1.390 . S
C1600 C1601 1.394 . S
C1600 C1606 1.465 . S
C1601 C1596 1.399 . S
C1601 C1600 1.394 . S
C1601 C1602 1.516 . S
C1602 C1601 1.516 . S
C1602 C1603 1.502 . S
C1602 C1604 1.561 . S
C1602 C1605 1.526 . S
C1603 H1587 0.959 . S
C1603 H1588 0.959 . S
C1603 H1589 0.961 . S
C1603 C1602 1.502 . S
C1604 H1590 0.960 . S
C1604 H1591 0.961 . S
C1604 H1592 0.959 . S
C1604 C1602 1.561 . S
C1605 C1602 1.526 . S
C1605 C1606 1.396 . S
C1605 C1610 1.390 . S
C1606 C1600 1.465 . S
C1606 C1605 1.396 . S
C1606 C1607 1.399 . S
C1607 H1593 0.929 . S
C1607 C1606 1.399 . S
C1607 C1608 1.385 . S
C1608 H1594 0.931 . S
C1608 C1607 1.385 . S
C1608 C1609 1.389 . S
C1609 C1608 1.389 . S
C1609 C1610 1.387 . S
C1610 H1595 0.930 . S
C1610 C1605 1.390 . S
C1610 C1609 1.387 . S
H1611 C1623 0.930 . S
H1612 C1625 0.930 1_554 S
H1613 C1626 0.930 . S
H1614 C1630 0.959 . S
H1615 C1630 0.959 . S
H1616 C1630 0.961 . S
H1617 C1631 0.960 . S
H1618 C1631 0.961 . S
H1619 C1631 0.959 . S
H1620 C1634 0.929 . S
H1621 C1635 0.931 . S
H1622 C1637 0.930 . S
C1623 H1611 0.930 . S
C1623 C1624 1.399 . S
C1623 C1628 1.399 . S
C1624 C1623 1.399 . S
C1624 C1625 1.376 . S
C1625 H1612 0.930 1_556 S
C1625 C1624 1.376 . S
C1625 C1626 1.388 . S
C1626 H1613 0.930 . S
C1626 C1625 1.388 . S
C1626 C1627 1.390 . S
C1627 C1626 1.390 . S
C1627 C1628 1.394 . S
C1627 C1633 1.465 . S
C1628 C1623 1.399 . S
C1628 C1627 1.394 . S
C1628 C1629 1.516 . S
C1629 C1628 1.516 . S
C1629 C1630 1.502 . S
C1629 C1631 1.561 . S
C1629 C1632 1.526 . S
C1630 H1614 0.959 . S
C1630 H1615 0.959 . S
C1630 H1616 0.961 . S
C1630 C1629 1.502 . S
C1631 H1617 0.960 . S
C1631 H1618 0.961 . S
C1631 H1619 0.959 . S
C1631 C1629 1.561 . S
C1632 C1629 1.526 . S
C1632 C1633 1.396 . S
C1632 C1637 1.390 . S
C1633 C1627 1.465 . S
C1633 C1632 1.396 . S
C1633 C1634 1.399 . S
C1634 H1620 0.929 . S
C1634 C1633 1.399 . S
C1634 C1635 1.385 . S
C1635 H1621 0.931 . S
C1635 C1634 1.385 . S
C1635 C1636 1.389 . S
C1636 C1635 1.389 . S
C1636 C1637 1.387 . S
C1637 H1622 0.930 . S
C1637 C1632 1.390 . S
C1637 C1636 1.387 . S
H1638 C1650 0.930 . S
H1639 C1652 0.930 . S
H1640 C1653 0.930 . S
H1641 C1657 0.959 . S
H1642 C1657 0.959 . S
H1643 C1657 0.961 . S
H1644 C1658 0.960 . S
H1645 C1658 0.961 . S
H1646 C1658 0.959 . S
H1647 C1661 0.929 . S
H1648 C1662 0.931 . S
H1649 C1664 0.930 . S
C1650 H1638 0.930 . S
C1650 C1651 1.399 . S
C1650 C1655 1.399 . S
C1651 C1650 1.399 . S
C1651 C1652 1.376 . S
C1652 H1639 0.930 . S
C1652 C1651 1.376 . S
C1652 C1653 1.388 . S
C1653 H1640 0.930 . S
C1653 C1652 1.388 . S
C1653 C1654 1.390 . S
C1654 C1653 1.390 . S
C1654 C1655 1.394 . S
C1654 C1660 1.465 . S
C1655 C1650 1.399 . S
C1655 C1654 1.394 . S
C1655 C1656 1.516 . S
C1656 C1655 1.516 . S
C1656 C1657 1.502 . S
C1656 C1658 1.561 . S
C1656 C1659 1.526 . S
C1657 H1641 0.959 . S
C1657 H1642 0.959 . S
C1657 H1643 0.961 . S
C1657 C1656 1.502 . S
C1658 H1644 0.960 . S
C1658 H1645 0.961 . S
C1658 H1646 0.959 . S
C1658 C1656 1.561 . S
C1659 C1656 1.526 . S
C1659 C1660 1.396 . S
C1659 C1664 1.390 . S
C1660 C1654 1.465 . S
C1660 C1659 1.396 . S
C1660 C1661 1.399 . S
C1661 H1647 0.929 . S
C1661 C1660 1.399 . S
C1661 C1662 1.385 . S
C1662 H1648 0.931 . S
C1662 C1661 1.385 . S
C1662 C1663 1.389 . S
C1663 C1662 1.389 . S
C1663 C1664 1.387 . S
C1664 H1649 0.930 . S
C1664 C1659 1.390 . S
C1664 C1663 1.387 . S
H1665 C1677 0.930 . S
H1666 C1679 0.930 . S
H1667 C1680 0.930 . S
H1668 C1684 0.959 . S
H1669 C1684 0.959 . S
H1670 C1684 0.961 . S
H1671 C1685 0.960 . S
H1672 C1685 0.961 . S
H1673 C1685 0.959 . S
H1674 C1688 0.929 . S
H1675 C1689 0.931 . S
H1676 C1691 0.930 . S
C1677 H1665 0.930 . S
C1677 C1678 1.399 . S
C1677 C1682 1.399 . S
C1678 C1677 1.399 . S
C1678 C1679 1.376 . S
C1679 H1666 0.930 . S
C1679 C1678 1.376 . S
C1679 C1680 1.388 . S
C1680 H1667 0.930 . S
C1680 C1679 1.388 . S
C1680 C1681 1.390 . S
C1681 C1680 1.390 . S
C1681 C1682 1.394 . S
C1681 C1687 1.465 . S
C1682 C1677 1.399 . S
C1682 C1681 1.394 . S
C1682 C1683 1.516 . S
C1683 C1682 1.516 . S
C1683 C1684 1.502 . S
C1683 C1685 1.561 . S
C1683 C1686 1.526 . S
C1684 H1668 0.959 . S
C1684 H1669 0.959 . S
C1684 H1670 0.961 . S
C1684 C1683 1.502 . S
C1685 H1671 0.960 . S
C1685 H1672 0.961 . S
C1685 H1673 0.959 . S
C1685 C1683 1.561 . S
C1686 C1683 1.526 . S
C1686 C1687 1.396 . S
C1686 C1691 1.390 . S
C1687 C1681 1.465 . S
C1687 C1686 1.396 . S
C1687 C1688 1.399 . S
C1688 H1674 0.929 . S
C1688 C1687 1.399 . S
C1688 C1689 1.385 . S
C1689 H1675 0.931 . S
C1689 C1688 1.385 . S
C1689 C1690 1.389 . S
C1690 C1689 1.389 . S
C1690 C1691 1.387 . S
C1691 H1676 0.930 . S
C1691 C1686 1.390 . S
C1691 C1690 1.387 . S
H1692 C1704 0.930 . S
H1693 C1706 0.930 . S
H1694 C1707 0.930 . S
H1695 C1711 0.959 . S
H1696 C1711 0.959 . S
H1697 C1711 0.961 . S
H1698 C1712 0.960 . S
H1699 C1712 0.961 . S
H1700 C1712 0.959 . S
H1701 C1715 0.929 . S
H1702 C1716 0.931 . S
H1703 C1718 0.930 . S
C1704 H1692 0.930 . S
C1704 C1705 1.399 . S
C1704 C1709 1.399 . S
C1705 C1704 1.399 . S
C1705 C1706 1.376 . S
C1706 H1693 0.930 . S
C1706 C1705 1.376 . S
C1706 C1707 1.388 . S
C1707 H1694 0.930 . S
C1707 C1706 1.388 . S
C1707 C1708 1.390 . S
C1708 C1707 1.390 . S
C1708 C1709 1.394 . S
C1708 C1714 1.465 . S
C1709 C1704 1.399 . S
C1709 C1708 1.394 . S
C1709 C1710 1.516 . S
C1710 C1709 1.516 . S
C1710 C1711 1.502 . S
C1710 C1712 1.561 . S
C1710 C1713 1.526 . S
C1711 H1695 0.959 . S
C1711 H1696 0.959 . S
C1711 H1697 0.961 . S
C1711 C1710 1.502 . S
C1712 H1698 0.960 . S
C1712 H1699 0.961 . S
C1712 H1700 0.959 . S
C1712 C1710 1.561 . S
C1713 C1710 1.526 . S
C1713 C1714 1.396 . S
C1713 C1718 1.390 . S
C1714 C1708 1.465 . S
C1714 C1713 1.396 . S
C1714 C1715 1.399 . S
C1715 H1701 0.929 . S
C1715 C1714 1.399 . S
C1715 C1716 1.385 . S
C1716 H1702 0.931 . S
C1716 C1715 1.385 . S
C1716 C1717 1.389 . S
C1717 C1716 1.389 . S
C1717 C1718 1.387 . S
C1718 H1703 0.930 . S
C1718 C1713 1.390 . S
C1718 C1717 1.387 . S
H1719 C1731 0.930 . S
H1720 C1733 0.930 . S
H1721 C1734 0.930 1_554 S
H1722 C1738 0.959 . S
H1723 C1738 0.959 . S
H1724 C1738 0.961 . S
H1725 C1739 0.960 . S
H1726 C1739 0.961 . S
H1727 C1739 0.959 . S
H1728 C1742 0.929 . S
H1729 C1743 0.931 . S
H1730 C1745 0.930 . S
C1731 H1719 0.930 . S
C1731 C1732 1.399 . S
C1731 C1736 1.399 . S
C1732 C1731 1.399 . S
C1732 C1733 1.376 1_556 S
C1733 H1720 0.930 . S
C1733 C1732 1.376 1_554 S
C1733 C1734 1.388 1_554 S
C1734 H1721 0.930 1_556 S
C1734 C1733 1.388 1_556 S
C1734 C1735 1.390 . S
C1735 C1734 1.390 . S
C1735 C1736 1.394 . S
C1735 C1741 1.465 . S
C1736 C1731 1.399 . S
C1736 C1735 1.394 . S
C1736 C1737 1.516 . S
C1737 C1736 1.516 . S
C1737 C1738 1.502 . S
C1737 C1739 1.561 . S
C1737 C1740 1.526 . S
C1738 H1722 0.959 . S
C1738 H1723 0.959 . S
C1738 H1724 0.961 . S
C1738 C1737 1.502 . S
C1739 H1725 0.960 . S
C1739 H1726 0.961 . S
C1739 H1727 0.959 . S
C1739 C1737 1.561 . S
C1740 C1737 1.526 . S
C1740 C1741 1.396 . S
C1740 C1745 1.390 . S
C1741 C1735 1.465 . S
C1741 C1740 1.396 . S
C1741 C1742 1.399 . S
C1742 H1728 0.929 . S
C1742 C1741 1.399 . S
C1742 C1743 1.385 . S
C1743 H1729 0.931 . S
C1743 C1742 1.385 . S
C1743 C1744 1.389 . S
C1744 C1743 1.389 . S
C1744 C1745 1.387 . S
C1745 H1730 0.930 . S
C1745 C1740 1.390 . S
C1745 C1744 1.387 . S
H1746 C1758 0.930 1_554 S
H1747 C1760 0.930 . S
H1748 C1761 0.930 . S
H1749 C1765 0.959 . S
H1750 C1765 0.959 . S
H1751 C1765 0.961 1_554 S
H1752 C1766 0.965 . S
H1753 C1766 0.962 . S
H1754 C1766 0.957 1_556 S
H1755 C1769 0.929 . S
H1756 C1770 0.931 . S
H1757 C1772 0.930 . S
C1758 H1746 0.930 1_556 S
C1758 C1759 1.399 . S
C1758 C1763 1.399 . S
C1759 C1758 1.399 . S
C1759 C1760 1.376 . S
C1760 H1747 0.930 . S
C1760 C1759 1.376 . S
C1760 C1761 1.388 . S
C1761 H1748 0.930 . S
C1761 C1760 1.388 . S
C1761 C1762 1.390 . S
C1762 C1761 1.390 . S
C1762 C1763 1.394 . S
C1762 C1768 1.465 . S
C1763 C1758 1.399 . S
C1763 C1762 1.394 . S
C1763 C1764 1.516 . S
C1764 C1763 1.516 . S
C1764 C1765 1.502 . S
C1764 C1766 1.558 1_556 S
C1764 C1767 1.526 . S
C1765 H1749 0.959 . S
C1765 H1750 0.959 . S
C1765 H1751 0.961 1_556 S
C1765 C1764 1.502 . S
C1766 H1752 0.965 . S
C1766 H1753 0.962 . S
C1766 H1754 0.957 1_554 S
C1766 C1764 1.558 1_554 S
C1767 C1764 1.526 . S
C1767 C1768 1.396 . S
C1767 C1772 1.390 . S
C1768 C1762 1.465 . S
C1768 C1767 1.396 . S
C1768 C1769 1.399 . S
C1769 H1755 0.929 . S
C1769 C1768 1.399 . S
C1769 C1770 1.385 . S
C1770 H1756 0.931 . S
C1770 C1769 1.385 . S
C1770 C1771 1.389 . S
C1771 C1770 1.389 . S
C1771 C1772 1.387 . S
C1772 H1757 0.930 . S
C1772 C1767 1.390 . S
C1772 C1771 1.387 . S
H1773 C1785 0.930 . S
H1774 C1787 0.930 . S
H1775 C1788 0.930 . S
H1776 C1792 0.959 . S
H1777 C1792 0.959 . S
H1778 C1792 0.961 . S
H1779 C1793 0.960 . S
H1780 C1793 0.961 . S
H1781 C1793 0.959 . S
H1782 C1796 0.929 . S
H1783 C1797 0.931 . S
H1784 C1799 0.930 . S
C1785 H1773 0.930 . S
C1785 C1786 1.399 . S
C1785 C1790 1.399 . S
C1786 C1785 1.399 . S
C1786 C1787 1.376 . S
C1787 H1774 0.930 . S
C1787 C1786 1.376 . S
C1787 C1788 1.388 . S
C1788 H1775 0.930 . S
C1788 C1787 1.388 . S
C1788 C1789 1.390 . S
C1789 C1788 1.390 . S
C1789 C1790 1.394 . S
C1789 C1795 1.465 . S
C1790 C1785 1.399 . S
C1790 C1789 1.394 . S
C1790 C1791 1.516 . S
C1791 C1790 1.516 . S
C1791 C1792 1.502 . S
C1791 C1793 1.561 . S
C1791 C1794 1.526 . S
C1792 H1776 0.959 . S
C1792 H1777 0.959 . S
C1792 H1778 0.961 . S
C1792 C1791 1.502 . S
C1793 H1779 0.960 . S
C1793 H1780 0.961 . S
C1793 H1781 0.959 . S
C1793 C1791 1.561 . S
C1794 C1791 1.526 . S
C1794 C1795 1.396 . S
C1794 C1799 1.390 . S
C1795 C1789 1.465 . S
C1795 C1794 1.396 . S
C1795 C1796 1.399 . S
C1796 H1782 0.929 . S
C1796 C1795 1.399 . S
C1796 C1797 1.385 . S
C1797 H1783 0.931 . S
C1797 C1796 1.385 . S
C1797 C1798 1.389 . S
C1798 C1797 1.389 . S
C1798 C1799 1.387 . S
C1799 H1784 0.930 . S
C1799 C1794 1.390 . S
C1799 C1798 1.387 . S
H1800 C1812 0.930 . S
H1801 C1814 0.930 . S
H1802 C1815 0.930 . S
H1803 C1819 0.959 . S
H1804 C1819 0.959 . S
H1805 C1819 0.961 . S
H1806 C1820 0.960 . S
H1807 C1820 0.961 . S
H1808 C1820 0.959 . S
H1809 C1823 0.929 . S
H1810 C1824 0.931 . S
H1811 C1826 0.930 . S
C1812 H1800 0.930 . S
C1812 C1813 1.399 . S
C1812 C1817 1.399 . S
C1813 C1812 1.399 . S
C1813 C1814 1.376 . S
C1814 H1801 0.930 . S
C1814 C1813 1.376 . S
C1814 C1815 1.388 . S
C1815 H1802 0.930 . S
C1815 C1814 1.388 . S
C1815 C1816 1.390 . S
C1816 C1815 1.390 . S
C1816 C1817 1.394 . S
C1816 C1822 1.465 . S
C1817 C1812 1.399 . S
C1817 C1816 1.394 . S
C1817 C1818 1.516 . S
C1818 C1817 1.516 . S
C1818 C1819 1.502 . S
C1818 C1820 1.561 . S
C1818 C1821 1.526 . S
C1819 H1803 0.959 . S
C1819 H1804 0.959 . S
C1819 H1805 0.961 . S
C1819 C1818 1.502 . S
C1820 H1806 0.960 . S
C1820 H1807 0.961 . S
C1820 H1808 0.959 . S
C1820 C1818 1.561 . S
C1821 C1818 1.526 . S
C1821 C1822 1.396 . S
C1821 C1826 1.390 . S
C1822 C1816 1.465 . S
C1822 C1821 1.396 . S
C1822 C1823 1.399 . S
C1823 H1809 0.929 . S
C1823 C1822 1.399 . S
C1823 C1824 1.385 . S
C1824 H1810 0.931 . S
C1824 C1823 1.385 . S
C1824 C1825 1.389 . S
C1825 C1824 1.389 . S
C1825 C1826 1.387 . S
C1826 H1811 0.930 . S
C1826 C1821 1.390 . S
C1826 C1825 1.387 . S
H1827 C1839 0.930 . S
H1828 C1841 0.930 . S
H1829 C1842 0.930 . S
H1830 C1846 0.959 . S
H1831 C1846 0.959 . S
H1832 C1846 0.961 . S
H1833 C1847 0.960 . S
H1834 C1847 0.961 . S
H1835 C1847 0.959 . S
H1836 C1850 0.929 . S
H1837 C1851 0.931 . S
H1838 C1853 0.930 . S
C1839 H1827 0.930 . S
C1839 C1840 1.399 . S
C1839 C1844 1.399 . S
C1840 C1839 1.399 . S
C1840 C1841 1.376 . S
C1841 H1828 0.930 . S
C1841 C1840 1.376 . S
C1841 C1842 1.388 . S
C1842 H1829 0.930 . S
C1842 C1841 1.388 . S
C1842 C1843 1.390 . S
C1843 C1842 1.390 . S
C1843 C1844 1.394 . S
C1843 C1849 1.465 . S
C1844 C1839 1.399 . S
C1844 C1843 1.394 . S
C1844 C1845 1.516 . S
C1845 C1844 1.516 . S
C1845 C1846 1.502 . S
C1845 C1847 1.561 . S
C1845 C1848 1.526 . S
C1846 H1830 0.959 . S
C1846 H1831 0.959 . S
C1846 H1832 0.961 . S
C1846 C1845 1.502 . S
C1847 H1833 0.960 . S
C1847 H1834 0.961 . S
C1847 H1835 0.959 . S
C1847 C1845 1.561 . S
C1848 C1845 1.526 . S
C1848 C1849 1.396 . S
C1848 C1853 1.390 . S
C1849 C1843 1.465 . S
C1849 C1848 1.396 . S
C1849 C1850 1.399 . S
C1850 H1836 0.929 . S
C1850 C1849 1.399 . S
C1850 C1851 1.385 . S
C1851 H1837 0.931 . S
C1851 C1850 1.385 . S
C1851 C1852 1.389 . S
C1852 C1851 1.389 . S
C1852 C1853 1.387 . S
C1853 H1838 0.930 . S
C1853 C1848 1.390 . S
C1853 C1852 1.387 . S
H1854 C1866 0.930 . S
H1855 C1868 0.930 . S
H1856 C1869 0.930 . S
H1857 C1873 0.959 . S
H1858 C1873 0.959 . S
H1859 C1873 0.961 . S
H1860 C1874 0.960 . S
H1861 C1874 0.961 . S
H1862 C1874 0.959 . S
H1863 C1877 0.929 . S
H1864 C1878 0.931 . S
H1865 C1880 0.930 . S
C1866 H1854 0.930 . S
C1866 C1867 1.399 . S
C1866 C1871 1.399 . S
C1867 C1866 1.399 . S
C1867 C1868 1.376 . S
C1868 H1855 0.930 . S
C1868 C1867 1.376 . S
C1868 C1869 1.388 . S
C1869 H1856 0.930 . S
C1869 C1868 1.388 . S
C1869 C1870 1.390 . S
C1870 C1869 1.390 . S
C1870 C1871 1.394 . S
C1870 C1876 1.465 . S
C1871 C1866 1.399 . S
C1871 C1870 1.394 . S
C1871 C1872 1.516 . S
C1872 C1871 1.516 . S
C1872 C1873 1.502 . S
C1872 C1874 1.561 . S
C1872 C1875 1.526 . S
C1873 H1857 0.959 . S
C1873 H1858 0.959 . S
C1873 H1859 0.961 . S
C1873 C1872 1.502 . S
C1874 H1860 0.960 . S
C1874 H1861 0.961 . S
C1874 H1862 0.959 . S
C1874 C1872 1.561 . S
C1875 C1872 1.526 . S
C1875 C1876 1.396 . S
C1875 C1880 1.390 . S
C1876 C1870 1.465 . S
C1876 C1875 1.396 . S
C1876 C1877 1.399 . S
C1877 H1863 0.929 . S
C1877 C1876 1.399 . S
C1877 C1878 1.385 . S
C1878 H1864 0.931 . S
C1878 C1877 1.385 . S
C1878 C1879 1.389 . S
C1879 C1878 1.389 . S
C1879 C1880 1.387 . S
C1880 H1865 0.930 . S
C1880 C1875 1.390 . S
C1880 C1879 1.387 . S
H1881 C1893 0.930 . S
H1882 C1895 0.930 . S
H1883 C1896 0.930 . S
H1884 C1900 0.959 . S
H1885 C1900 0.959 . S
H1886 C1900 0.961 . S
H1887 C1901 0.960 . S
H1888 C1901 0.961 . S
H1889 C1901 0.959 . S
H1890 C1904 0.929 . S
H1891 C1905 0.931 . S
H1892 C1907 0.930 . S
C1893 H1881 0.930 . S
C1893 C1894 1.399 . S
C1893 C1898 1.399 . S
C1894 C1893 1.399 . S
C1894 C1895 1.376 . S
C1895 H1882 0.930 . S
C1895 C1894 1.376 . S
C1895 C1896 1.388 . S
C1896 H1883 0.930 . S
C1896 C1895 1.388 . S
C1896 C1897 1.390 . S
C1897 C1896 1.390 . S
C1897 C1898 1.394 . S
C1897 C1903 1.465 . S
C1898 C1893 1.399 . S
C1898 C1897 1.394 . S
C1898 C1899 1.516 . S
C1899 C1898 1.516 . S
C1899 C1900 1.502 . S
C1899 C1901 1.561 . S
C1899 C1902 1.526 . S
C1900 H1884 0.959 . S
C1900 H1885 0.959 . S
C1900 H1886 0.961 . S
C1900 C1899 1.502 . S
C1901 H1887 0.960 . S
C1901 H1888 0.961 . S
C1901 H1889 0.959 . S
C1901 C1899 1.561 . S
C1902 C1899 1.526 . S
C1902 C1903 1.396 . S
C1902 C1907 1.390 . S
C1903 C1897 1.465 . S
C1903 C1902 1.396 . S
C1903 C1904 1.399 . S
C1904 H1890 0.929 . S
C1904 C1903 1.399 . S
C1904 C1905 1.385 . S
C1905 H1891 0.931 . S
C1905 C1904 1.385 . S
C1905 C1906 1.389 . S
C1906 C1905 1.389 . S
C1906 C1907 1.387 . S
C1907 H1892 0.930 . S
C1907 C1902 1.390 . S
C1907 C1906 1.387 . S
H1908 C1920 0.930 . S
H1909 C1922 0.930 . S
H1910 C1923 0.930 . S
H1911 C1927 0.959 . S
H1912 C1927 0.959 . S
H1913 C1927 0.961 . S
H1914 C1928 0.960 . S
H1915 C1928 0.961 . S
H1916 C1928 0.959 . S
H1917 C1931 0.929 . S
H1918 C1932 0.931 . S
H1919 C1934 0.930 . S
C1920 H1908 0.930 . S
C1920 C1921 1.399 . S
C1920 C1925 1.399 . S
C1921 C1920 1.399 . S
C1921 C1922 1.376 . S
C1922 H1909 0.930 . S
C1922 C1921 1.376 . S
C1922 C1923 1.388 . S
C1923 H1910 0.930 . S
C1923 C1922 1.388 . S
C1923 C1924 1.390 . S
C1924 C1923 1.390 . S
C1924 C1925 1.394 . S
C1924 C1930 1.465 . S
C1925 C1920 1.399 . S
C1925 C1924 1.394 . S
C1925 C1926 1.516 . S
C1926 C1925 1.516 . S
C1926 C1927 1.502 . S
C1926 C1928 1.561 . S
C1926 C1929 1.526 . S
C1927 H1911 0.959 . S
C1927 H1912 0.959 . S
C1927 H1913 0.961 . S
C1927 C1926 1.502 . S
C1928 H1914 0.960 . S
C1928 H1915 0.961 . S
C1928 H1916 0.959 . S
C1928 C1926 1.561 . S
C1929 C1926 1.526 . S
C1929 C1930 1.396 . S
C1929 C1934 1.390 . S
C1930 C1924 1.465 . S
C1930 C1929 1.396 . S
C1930 C1931 1.399 . S
C1931 H1917 0.929 . S
C1931 C1930 1.399 . S
C1931 C1932 1.385 . S
C1932 H1918 0.931 . S
C1932 C1931 1.385 . S
C1932 C1933 1.389 . S
C1933 C1932 1.389 . S
C1933 C1934 1.387 . S
C1934 H1919 0.930 . S
C1934 C1929 1.390 . S
C1934 C1933 1.387 . S
H1935 C1947 0.930 . S
H1936 C1949 0.937 1_655 S
H1937 C1950 0.930 1_655 S
H1938 C1954 0.959 . S
H1939 C1954 0.959 . S
H1940 C1954 0.961 . S
H1941 C1955 0.960 . S
H1942 C1955 0.961 . S
H1943 C1955 0.959 . S
H1944 C1958 0.925 1_655 S
H1945 C1959 0.931 1_655 S
H1946 C1961 0.930 . S
C1947 H1935 0.930 . S
C1947 C1948 1.399 . S
C1947 C1952 1.399 . S
C1948 C1947 1.399 . S
C1948 C1949 1.376 . S
C1949 H1936 0.937 1_455 S
C1949 C1948 1.376 . S
C1949 C1950 1.388 . S
C1950 H1937 0.930 1_455 S
C1950 C1949 1.388 . S
C1950 C1951 1.390 . S
C1951 C1950 1.390 . S
C1951 C1952 1.394 . S
C1951 C1957 1.465 . S
C1952 C1947 1.399 . S
C1952 C1951 1.394 . S
C1952 C1953 1.516 . S
C1953 C1952 1.516 . S
C1953 C1954 1.502 . S
C1953 C1955 1.561 . S
C1953 C1956 1.526 . S
C1954 H1938 0.959 . S
C1954 H1939 0.959 . S
C1954 H1940 0.961 . S
C1954 C1953 1.502 . S
C1955 H1941 0.960 . S
C1955 H1942 0.961 . S
C1955 H1943 0.959 . S
C1955 C1953 1.561 . S
C1956 C1953 1.526 . S
C1956 C1957 1.396 . S
C1956 C1961 1.390 . S
C1957 C1951 1.465 . S
C1957 C1956 1.396 . S
C1957 C1958 1.417 . S
C1958 H1944 0.925 1_455 S
C1958 C1957 1.417 . S
C1958 C1959 1.372 . S
C1959 H1945 0.931 1_455 S
C1959 C1958 1.372 . S
C1959 C1960 1.389 . S
C1960 C1959 1.389 . S
C1960 C1961 1.387 . S
C1961 H1946 0.930 . S
C1961 C1956 1.390 . S
C1961 C1960 1.387 . S
H1962 C1974 0.930 . S
H1963 C1976 0.930 . S
H1964 C1977 0.930 . S
H1965 C1981 0.959 . S
H1966 C1981 0.959 . S
H1967 C1981 0.961 . S
H1968 C1982 0.960 . S
H1969 C1982 0.961 . S
H1970 C1982 0.959 . S
H1971 C1985 0.929 . S
H1972 C1986 0.931 . S
H1973 C1988 0.930 . S
C1974 H1962 0.930 . S
C1974 C1975 1.399 . S
C1974 C1979 1.399 . S
C1975 C1974 1.399 . S
C1975 C1976 1.376 . S
C1976 H1963 0.930 . S
C1976 C1975 1.376 . S
C1976 C1977 1.388 . S
C1977 H1964 0.930 . S
C1977 C1976 1.388 . S
C1977 C1978 1.390 . S
C1978 C1977 1.390 . S
C1978 C1979 1.394 . S
C1978 C1984 1.465 . S
C1979 C1974 1.399 . S
C1979 C1978 1.394 . S
C1979 C1980 1.516 . S
C1980 C1979 1.516 . S
C1980 C1981 1.502 . S
C1980 C1982 1.561 . S
C1980 C1983 1.526 . S
C1981 H1965 0.959 . S
C1981 H1966 0.959 . S
C1981 H1967 0.961 . S
C1981 C1980 1.502 . S
C1982 H1968 0.960 . S
C1982 H1969 0.961 . S
C1982 H1970 0.959 . S
C1982 C1980 1.561 . S
C1983 C1980 1.526 . S
C1983 C1984 1.396 . S
C1983 C1988 1.390 . S
C1984 C1978 1.465 . S
C1984 C1983 1.396 . S
C1984 C1985 1.399 . S
C1985 H1971 0.929 . S
C1985 C1984 1.399 . S
C1985 C1986 1.385 . S
C1986 H1972 0.931 . S
C1986 C1985 1.385 . S
C1986 C1987 1.389 . S
C1987 C1986 1.389 . S
C1987 C1988 1.387 . S
C1988 H1973 0.930 . S
C1988 C1983 1.390 . S
C1988 C1987 1.387 . S
H1989 C2001 0.930 . S
H1990 C2003 0.930 . S
H1991 C2004 0.930 . S
H1992 C2008 0.959 . S
H1993 C2008 0.959 . S
H1994 C2008 0.961 . S
H1995 C2009 0.960 . S
H1996 C2009 0.961 . S
H1997 C2009 0.959 . S
H1998 C2012 0.929 . S
H1999 C2013 0.931 . S
H2000 C2015 0.930 . S
C2001 H1989 0.930 . S
C2001 C2002 1.399 . S
C2001 C2006 1.399 . S
C2002 C2001 1.399 . S
C2002 C2003 1.376 1_565 S
C2003 H1990 0.930 . S
C2003 C2002 1.376 1_545 S
C2003 C2004 1.388 . S
C2004 H1991 0.930 . S
C2004 C2003 1.388 . S
C2004 C2005 1.390 . S
C2005 C2004 1.390 . S
C2005 C2006 1.394 1_545 S
C2005 C2011 1.465 . S
C2006 C2001 1.399 . S
C2006 C2005 1.394 1_565 S
C2006 C2007 1.516 . S
C2007 C2006 1.516 . S
C2007 C2008 1.502 . S
C2007 C2009 1.561 . S
C2007 C2010 1.526 . S
C2008 H1992 0.959 . S
C2008 H1993 0.959 . S
C2008 H1994 0.961 . S
C2008 C2007 1.502 . S
C2009 H1995 0.960 . S
C2009 H1996 0.961 . S
C2009 H1997 0.959 . S
C2009 C2007 1.561 . S
C2010 C2007 1.526 . S
C2010 C2011 1.396 1_565 S
C2010 C2015 1.390 . S
C2011 C2005 1.465 . S
C2011 C2010 1.396 1_545 S
C2011 C2012 1.399 . S
C2012 H1998 0.929 . S
C2012 C2011 1.399 . S
C2012 C2013 1.385 . S
C2013 H1999 0.931 . S
C2013 C2012 1.385 . S
C2013 C2014 1.389 1_545 S
C2014 C2013 1.389 1_565 S
C2014 C2015 1.387 . S
C2015 H2000 0.930 . S
C2015 C2010 1.390 . S
C2015 C2014 1.387 . S
H2016 C2028 0.930 . S
H2017 C2030 0.930 . S
H2018 C2031 0.930 . S
H2019 C2035 0.959 . S
H2020 C2035 0.959 . S
H2021 C2035 0.961 . S
H2022 C2036 0.960 . S
H2023 C2036 0.961 . S
H2024 C2036 0.959 . S
H2025 C2039 0.929 . S
H2026 C2040 0.931 . S
H2027 C2042 0.930 . S
C2028 H2016 0.930 . S
C2028 C2029 1.399 1_545 S
C2028 C2033 1.399 . S
C2029 C2028 1.399 1_565 S
C2029 C2030 1.376 . S
C2030 H2017 0.930 . S
C2030 C2029 1.376 . S
C2030 C2031 1.388 . S
C2031 H2018 0.930 . S
C2031 C2030 1.388 . S
C2031 C2032 1.390 . S
C2032 C2031 1.390 . S
C2032 C2033 1.394 1_565 S
C2032 C2038 1.465 . S
C2033 C2028 1.399 . S
C2033 C2032 1.394 1_545 S
C2033 C2034 1.516 . S
C2034 C2033 1.516 . S
C2034 C2035 1.502 . S
C2034 C2036 1.561 . S
C2034 C2037 1.526 . S
C2035 H2019 0.959 . S
C2035 H2020 0.959 . S
C2035 H2021 0.961 . S
C2035 C2034 1.502 . S
C2036 H2022 0.960 . S
C2036 H2023 0.961 . S
C2036 H2024 0.959 . S
C2036 C2034 1.561 . S
C2037 C2034 1.526 . S
C2037 C2038 1.396 1_545 S
C2037 C2042 1.390 . S
C2038 C2032 1.465 . S
C2038 C2037 1.396 1_565 S
C2038 C2039 1.399 . S
C2039 H2025 0.929 . S
C2039 C2038 1.399 . S
C2039 C2040 1.385 . S
C2040 H2026 0.931 . S
C2040 C2039 1.385 . S
C2040 C2041 1.389 . S
C2041 C2040 1.389 . S
C2041 C2042 1.387 1_565 S
C2042 H2027 0.930 . S
C2042 C2037 1.390 . S
C2042 C2041 1.387 1_545 S
H2043 C2055 0.930 . S
H2044 C2057 0.930 . S
H2045 C2058 0.930 . S
H2046 C2062 0.959 1_655 S
H2047 C2062 0.959 . S
H2048 C2062 0.961 . S
H2049 C2063 0.960 . S
H2050 C2063 0.961 . S
H2051 C2063 0.959 . S
H2052 C2066 0.929 . S
H2053 C2067 0.931 . S
H2054 C2069 0.930 . S
C2055 H2043 0.930 . S
C2055 C2056 1.399 . S
C2055 C2060 1.399 . S
C2056 C2055 1.399 . S
C2056 C2057 1.376 . S
C2057 H2044 0.930 . S
C2057 C2056 1.376 . S
C2057 C2058 1.388 . S
C2058 H2045 0.930 . S
C2058 C2057 1.388 . S
C2058 C2059 1.390 . S
C2059 C2058 1.390 . S
C2059 C2060 1.394 . S
C2059 C2065 1.465 . S
C2060 C2055 1.399 . S
C2060 C2059 1.394 . S
C2060 C2061 1.516 . S
C2061 C2060 1.516 . S
C2061 C2062 1.502 . S
C2061 C2063 1.561 . S
C2061 C2064 1.526 . S
C2062 H2046 0.959 1_455 S
C2062 H2047 0.959 . S
C2062 H2048 0.961 . S
C2062 C2061 1.502 . S
C2063 H2049 0.960 . S
C2063 H2050 0.961 . S
C2063 H2051 0.959 . S
C2063 C2061 1.561 . S
C2064 C2061 1.526 . S
C2064 C2065 1.396 . S
C2064 C2069 1.390 . S
C2065 C2059 1.465 . S
C2065 C2064 1.396 . S
C2065 C2066 1.399 . S
C2066 H2052 0.929 . S
C2066 C2065 1.399 . S
C2066 C2067 1.385 . S
C2067 H2053 0.931 . S
C2067 C2066 1.385 . S
C2067 C2068 1.389 . S
C2068 C2067 1.389 . S
C2068 C2069 1.387 . S
C2069 H2054 0.930 . S
C2069 C2064 1.390 . S
C2069 C2068 1.387 . S
H2070 C2082 0.930 . S
H2071 C2084 0.930 . S
H2072 C2085 0.930 . S
H2073 C2089 0.959 . S
H2074 C2089 0.959 . S
H2075 C2089 0.961 . S
H2076 C2090 0.960 . S
H2077 C2090 0.961 . S
H2078 C2090 0.959 . S
H2079 C2093 0.929 . S
H2080 C2094 0.931 . S
H2081 C2096 0.930 . S
C2082 H2070 0.930 . S
C2082 C2083 1.399 . S
C2082 C2087 1.399 . S
C2083 C2082 1.399 . S
C2083 C2084 1.376 . S
C2084 H2071 0.930 . S
C2084 C2083 1.376 . S
C2084 C2085 1.388 . S
C2085 H2072 0.930 . S
C2085 C2084 1.388 . S
C2085 C2086 1.390 . S
C2086 C2085 1.390 . S
C2086 C2087 1.394 . S
C2086 C2092 1.465 . S
C2087 C2082 1.399 . S
C2087 C2086 1.394 . S
C2087 C2088 1.516 . S
C2088 C2087 1.516 . S
C2088 C2089 1.502 . S
C2088 C2090 1.561 . S
C2088 C2091 1.526 . S
C2089 H2073 0.959 . S
C2089 H2074 0.959 . S
C2089 H2075 0.961 . S
C2089 C2088 1.502 . S
C2090 H2076 0.960 . S
C2090 H2077 0.961 . S
C2090 H2078 0.959 . S
C2090 C2088 1.561 . S
C2091 C2088 1.526 . S
C2091 C2092 1.396 . S
C2091 C2096 1.390 . S
C2092 C2086 1.465 . S
C2092 C2091 1.396 . S
C2092 C2093 1.399 . S
C2093 H2079 0.929 . S
C2093 C2092 1.399 . S
C2093 C2094 1.385 . S
C2094 H2080 0.931 . S
C2094 C2093 1.385 . S
C2094 C2095 1.389 . S
C2095 C2094 1.389 . S
C2095 C2096 1.387 . S
C2096 H2081 0.930 . S
C2096 C2091 1.390 . S
C2096 C2095 1.387 . S
H2097 C2109 0.930 . S
H2098 C2111 0.930 . S
H2099 C2112 0.930 . S
H2100 C2116 0.959 . S
H2101 C2116 0.959 . S
H2102 C2116 0.961 . S
H2103 C2117 0.960 . S
H2104 C2117 0.961 . S
H2105 C2117 0.959 . S
H2106 C2120 0.929 . S
H2107 C2121 0.931 . S
H2108 C2123 0.930 . S
C2109 H2097 0.930 . S
C2109 C2110 1.399 . S
C2109 C2114 1.399 . S
C2110 C2109 1.399 . S
C2110 C2111 1.376 . S
C2111 H2098 0.930 . S
C2111 C2110 1.376 . S
C2111 C2112 1.388 . S
C2112 H2099 0.930 . S
C2112 C2111 1.388 . S
C2112 C2113 1.390 . S
C2113 C2112 1.390 . S
C2113 C2114 1.394 . S
C2113 C2119 1.465 . S
C2114 C2109 1.399 . S
C2114 C2113 1.394 . S
C2114 C2115 1.516 . S
C2115 C2114 1.516 . S
C2115 C2116 1.502 . S
C2115 C2117 1.561 . S
C2115 C2118 1.526 . S
C2116 H2100 0.959 . S
C2116 H2101 0.959 . S
C2116 H2102 0.961 . S
C2116 C2115 1.502 . S
C2117 H2103 0.960 . S
C2117 H2104 0.961 . S
C2117 H2105 0.959 . S
C2117 C2115 1.561 . S
C2118 C2115 1.526 . S
C2118 C2119 1.396 . S
C2118 C2123 1.390 . S
C2119 C2113 1.465 . S
C2119 C2118 1.396 . S
C2119 C2120 1.399 . S
C2120 H2106 0.929 . S
C2120 C2119 1.399 . S
C2120 C2121 1.385 . S
C2121 H2107 0.931 . S
C2121 C2120 1.385 . S
C2121 C2122 1.389 . S
C2122 C2121 1.389 . S
C2122 C2123 1.387 . S
C2123 H2108 0.930 . S
C2123 C2118 1.390 . S
C2123 C2122 1.387 . S
H2124 C2136 0.930 . S
H2125 C2138 0.930 . S
H2126 C2139 0.930 . S
H2127 C2143 0.959 . S
H2128 C2143 0.959 . S
H2129 C2143 0.961 . S
H2130 C2144 0.960 . S
H2131 C2144 0.961 . S
H2132 C2144 0.959 . S
H2133 C2147 0.929 . S
H2134 C2148 0.931 . S
H2135 C2150 0.930 . S
C2136 H2124 0.930 . S
C2136 C2137 1.399 . S
C2136 C2141 1.399 . S
C2137 C2136 1.399 . S
C2137 C2138 1.376 . S
C2138 H2125 0.930 . S
C2138 C2137 1.376 . S
C2138 C2139 1.388 . S
C2139 H2126 0.930 . S
C2139 C2138 1.388 . S
C2139 C2140 1.390 . S
C2140 C2139 1.390 . S
C2140 C2141 1.394 . S
C2140 C2146 1.465 . S
C2141 C2136 1.399 . S
C2141 C2140 1.394 . S
C2141 C2142 1.516 . S
C2142 C2141 1.516 . S
C2142 C2143 1.502 . S
C2142 C2144 1.561 . S
C2142 C2145 1.526 . S
C2143 H2127 0.959 . S
C2143 H2128 0.959 . S
C2143 H2129 0.961 . S
C2143 C2142 1.502 . S
C2144 H2130 0.960 . S
C2144 H2131 0.961 . S
C2144 H2132 0.959 . S
C2144 C2142 1.561 . S
C2145 C2142 1.526 . S
C2145 C2146 1.396 . S
C2145 C2150 1.390 . S
C2146 C2140 1.465 . S
C2146 C2145 1.396 . S
C2146 C2147 1.399 . S
C2147 H2133 0.929 . S
C2147 C2146 1.399 . S
C2147 C2148 1.385 . S
C2148 H2134 0.931 . S
C2148 C2147 1.385 . S
C2148 C2149 1.389 . S
C2149 C2148 1.389 . S
C2149 C2150 1.387 . S
C2150 H2135 0.930 . S
C2150 C2145 1.390 . S
C2150 C2149 1.387 . S
H2151 C2163 0.930 . S
H2152 C2165 0.930 . S
H2153 C2166 0.930 . S
H2154 C2170 0.959 . S
H2155 C2170 0.959 . S
H2156 C2170 0.961 . S
H2157 C2171 0.960 . S
H2158 C2171 0.961 . S
H2159 C2171 0.959 . S
H2160 C2174 0.929 . S
H2161 C2175 0.931 . S
H2162 C2177 0.930 . S
C2163 H2151 0.930 . S
C2163 C2164 1.399 . S
C2163 C2168 1.399 . S
C2164 C2163 1.399 . S
C2164 C2165 1.376 . S
C2165 H2152 0.930 . S
C2165 C2164 1.376 . S
C2165 C2166 1.388 . S
C2166 H2153 0.930 . S
C2166 C2165 1.388 . S
C2166 C2167 1.390 . S
C2167 C2166 1.390 . S
C2167 C2168 1.394 . S
C2167 C2173 1.465 . S
C2168 C2163 1.399 . S
C2168 C2167 1.394 . S
C2168 C2169 1.516 . S
C2169 C2168 1.516 . S
C2169 C2170 1.502 . S
C2169 C2171 1.561 . S
C2169 C2172 1.526 . S
C2170 H2154 0.959 . S
C2170 H2155 0.959 . S
C2170 H2156 0.961 . S
C2170 C2169 1.502 . S
C2171 H2157 0.960 . S
C2171 H2158 0.961 . S
C2171 H2159 0.959 . S
C2171 C2169 1.561 . S
C2172 C2169 1.526 . S
C2172 C2173 1.396 . S
C2172 C2177 1.390 . S
C2173 C2167 1.465 . S
C2173 C2172 1.396 . S
C2173 C2174 1.399 . S
C2174 H2160 0.929 . S
C2174 C2173 1.399 . S
C2174 C2175 1.385 . S
C2175 H2161 0.931 . S
C2175 C2174 1.385 . S
C2175 C2176 1.389 . S
C2176 C2175 1.389 . S
C2176 C2177 1.387 . S
C2177 H2162 0.930 . S
C2177 C2172 1.390 . S
C2177 C2176 1.387 . S
H2178 C2190 0.930 . S
H2179 C2192 0.930 . S
H2180 C2193 0.930 . S
H2181 C2197 0.959 . S
H2182 C2197 0.959 . S
H2183 C2197 0.961 . S
H2184 C2198 0.960 . S
H2185 C2198 0.961 . S
H2186 C2198 0.959 . S
H2187 C2201 0.929 . S
H2188 C2202 0.931 . S
H2189 C2204 0.930 . S
C2190 H2178 0.930 . S
C2190 C2191 1.399 . S
C2190 C2195 1.399 . S
C2191 C2190 1.399 . S
C2191 C2192 1.376 1_545 S
C2192 H2179 0.930 . S
C2192 C2191 1.376 1_565 S
C2192 C2193 1.388 . S
C2193 H2180 0.930 . S
C2193 C2192 1.388 . S
C2193 C2194 1.390 1_565 S
C2194 C2193 1.390 1_545 S
C2194 C2195 1.394 . S
C2194 C2200 1.465 . S
C2195 C2190 1.399 . S
C2195 C2194 1.394 . S
C2195 C2196 1.516 . S
C2196 C2195 1.516 . S
C2196 C2197 1.502 . S
C2196 C2198 1.561 . S
C2196 C2199 1.526 . S
C2197 H2181 0.959 . S
C2197 H2182 0.959 . S
C2197 H2183 0.961 . S
C2197 C2196 1.502 . S
C2198 H2184 0.960 . S
C2198 H2185 0.961 . S
C2198 H2186 0.959 . S
C2198 C2196 1.561 . S
C2199 C2196 1.526 . S
C2199 C2200 1.396 . S
C2199 C2204 1.390 . S
C2200 C2194 1.465 . S
C2200 C2199 1.396 . S
C2200 C2201 1.399 1_545 S
C2201 H2187 0.929 . S
C2201 C2200 1.399 1_565 S
C2201 C2202 1.385 . S
C2202 H2188 0.931 . S
C2202 C2201 1.385 . S
C2202 C2203 1.389 1_565 S
C2203 C2202 1.389 1_545 S
C2203 C2204 1.387 . S
C2204 H2189 0.930 . S
C2204 C2199 1.390 . S
C2204 C2203 1.387 . S
H2205 C2217 0.930 . S
H2206 C2219 0.930 . S
H2207 C2220 0.930 . S
H2208 C2224 0.959 . S
H2209 C2224 0.959 . S
H2210 C2224 0.961 . S
H2211 C2225 0.960 . S
H2212 C2225 0.961 . S
H2213 C2225 0.959 . S
H2214 C2228 0.929 . S
H2215 C2229 0.931 . S
H2216 C2231 0.930 . S
C2217 H2205 0.930 . S
C2217 C2218 1.399 . S
C2217 C2222 1.399 . S
C2218 C2217 1.399 . S
C2218 C2219 1.376 . S
C2219 H2206 0.930 . S
C2219 C2218 1.376 . S
C2219 C2220 1.388 . S
C2220 H2207 0.930 . S
C2220 C2219 1.388 . S
C2220 C2221 1.390 . S
C2221 C2220 1.390 . S
C2221 C2222 1.394 . S
C2221 C2227 1.465 . S
C2222 C2217 1.399 . S
C2222 C2221 1.394 . S
C2222 C2223 1.513 . S
C2223 C2222 1.513 . S
C2223 C2224 1.514 . S
C2223 C2225 1.534 1_655 S
C2223 C2226 1.544 . S
C2224 H2208 0.959 . S
C2224 H2209 0.959 . S
C2224 H2210 0.961 . S
C2224 C2223 1.514 . S
C2225 H2211 0.960 . S
C2225 H2212 0.961 . S
C2225 H2213 0.959 . S
C2225 C2223 1.534 1_455 S
C2226 C2223 1.544 . S
C2226 C2227 1.396 . S
C2226 C2231 1.390 . S
C2227 C2221 1.465 . S
C2227 C2226 1.396 . S
C2227 C2228 1.399 . S
C2228 H2214 0.929 . S
C2228 C2227 1.399 . S
C2228 C2229 1.385 . S
C2229 H2215 0.931 . S
C2229 C2228 1.385 . S
C2229 C2230 1.389 . S
C2230 C2229 1.389 . S
C2230 C2231 1.387 . S
C2231 H2216 0.930 . S
C2231 C2226 1.390 . S
C2231 C2230 1.387 . S
H2232 C2244 0.930 . S
H2233 C2246 0.930 . S
H2234 C2247 0.930 . S
H2235 C2251 0.959 . S
H2236 C2251 0.959 . S
H2237 C2251 0.961 . S
H2238 C2252 0.960 . S
H2239 C2252 0.961 . S
H2240 C2252 0.959 . S
H2241 C2255 0.929 . S
H2242 C2256 0.931 . S
H2243 C2258 0.930 . S
C2244 H2232 0.930 . S
C2244 C2245 1.399 . S
C2244 C2249 1.399 . S
C2245 C2244 1.399 . S
C2245 C2246 1.376 . S
C2246 H2233 0.930 . S
C2246 C2245 1.376 . S
C2246 C2247 1.388 . S
C2247 H2234 0.930 . S
C2247 C2246 1.388 . S
C2247 C2248 1.390 . S
C2248 C2247 1.390 . S
C2248 C2249 1.394 . S
C2248 C2254 1.465 . S
C2249 C2244 1.399 . S
C2249 C2248 1.394 . S
C2249 C2250 1.516 . S
C2250 C2249 1.516 . S
C2250 C2251 1.502 . S
C2250 C2252 1.561 . S
C2250 C2253 1.526 . S
C2251 H2235 0.959 . S
C2251 H2236 0.959 . S
C2251 H2237 0.961 . S
C2251 C2250 1.502 . S
C2252 H2238 0.960 . S
C2252 H2239 0.961 . S
C2252 H2240 0.959 . S
C2252 C2250 1.561 . S
C2253 C2250 1.526 . S
C2253 C2254 1.396 . S
C2253 C2258 1.390 . S
C2254 C2248 1.465 . S
C2254 C2253 1.396 . S
C2254 C2255 1.399 . S
C2255 H2241 0.929 . S
C2255 C2254 1.399 . S
C2255 C2256 1.385 . S
C2256 H2242 0.931 . S
C2256 C2255 1.385 . S
C2256 C2257 1.389 . S
C2257 C2256 1.389 . S
C2257 C2258 1.387 . S
C2258 H2243 0.930 . S
C2258 C2253 1.390 . S
C2258 C2257 1.387 . S
H2259 C2271 0.930 . S
H2260 C2273 0.930 . S
H2261 C2274 0.930 . S
H2262 C2278 0.959 . S
H2263 C2278 0.959 . S
H2264 C2278 0.961 . S
H2265 C2279 0.960 . S
H2266 C2279 0.961 . S
H2267 C2279 0.959 . S
H2268 C2282 0.929 . S
H2269 C2283 0.931 . S
H2270 C2285 0.930 . S
C2271 H2259 0.930 . S
C2271 C2272 1.399 . S
C2271 C2276 1.399 . S
C2272 C2271 1.399 . S
C2272 C2273 1.376 . S
C2273 H2260 0.930 . S
C2273 C2272 1.376 . S
C2273 C2274 1.388 . S
C2274 H2261 0.930 . S
C2274 C2273 1.388 . S
C2274 C2275 1.390 . S
C2275 C2274 1.390 . S
C2275 C2276 1.394 . S
C2275 C2281 1.465 . S
C2276 C2271 1.399 . S
C2276 C2275 1.394 . S
C2276 C2277 1.516 . S
C2277 C2276 1.516 . S
C2277 C2278 1.502 . S
C2277 C2279 1.561 . S
C2277 C2280 1.526 . S
C2278 H2262 0.959 . S
C2278 H2263 0.959 . S
C2278 H2264 0.961 . S
C2278 C2277 1.502 . S
C2279 H2265 0.960 . S
C2279 H2266 0.961 . S
C2279 H2267 0.959 . S
C2279 C2277 1.561 . S
C2280 C2277 1.526 . S
C2280 C2281 1.396 . S
C2280 C2285 1.390 . S
C2281 C2275 1.465 . S
C2281 C2280 1.396 . S
C2281 C2282 1.399 . S
C2282 H2268 0.929 . S
C2282 C2281 1.399 . S
C2282 C2283 1.385 . S
C2283 H2269 0.931 . S
C2283 C2282 1.385 . S
C2283 C2284 1.389 . S
C2284 C2283 1.389 . S
C2284 C2285 1.387 . S
C2285 H2270 0.930 . S
C2285 C2280 1.390 . S
C2285 C2284 1.387 . S
H2286 C2298 0.930 . S
H2287 C2300 0.930 . S
H2288 C2301 0.930 . S
H2289 C2305 0.959 . S
H2290 C2305 0.959 . S
H2291 C2305 0.961 . S
H2292 C2306 0.960 . S
H2293 C2306 0.961 . S
H2294 C2306 0.959 . S
H2295 C2309 0.929 . S
H2296 C2310 0.931 . S
H2297 C2312 0.930 . S
C2298 H2286 0.930 . S
C2298 C2299 1.399 . S
C2298 C2303 1.399 . S
C2299 C2298 1.399 . S
C2299 C2300 1.376 . S
C2300 H2287 0.930 . S
C2300 C2299 1.376 . S
C2300 C2301 1.388 . S
C2301 H2288 0.930 . S
C2301 C2300 1.388 . S
C2301 C2302 1.390 . S
C2302 C2301 1.390 . S
C2302 C2303 1.394 . S
C2302 C2308 1.465 . S
C2303 C2298 1.399 . S
C2303 C2302 1.394 . S
C2303 C2304 1.516 . S
C2304 C2303 1.516 . S
C2304 C2305 1.502 . S
C2304 C2306 1.561 . S
C2304 C2307 1.526 . S
C2305 H2289 0.959 . S
C2305 H2290 0.959 . S
C2305 H2291 0.961 . S
C2305 C2304 1.502 . S
C2306 H2292 0.960 . S
C2306 H2293 0.961 . S
C2306 H2294 0.959 . S
C2306 C2304 1.561 . S
C2307 C2304 1.526 . S
C2307 C2308 1.396 . S
C2307 C2312 1.390 . S
C2308 C2302 1.465 . S
C2308 C2307 1.396 . S
C2308 C2309 1.399 . S
C2309 H2295 0.929 . S
C2309 C2308 1.399 . S
C2309 C2310 1.385 . S
C2310 H2296 0.931 . S
C2310 C2309 1.385 . S
C2310 C2311 1.389 . S
C2311 C2310 1.389 . S
C2311 C2312 1.387 . S
C2312 H2297 0.930 . S
C2312 C2307 1.390 . S
C2312 C2311 1.387 . S
H2313 C2325 0.930 . S
H2314 C2327 0.930 . S
H2315 C2328 0.930 . S
H2316 C2332 0.959 . S
H2317 C2332 0.959 . S
H2318 C2332 0.961 . S
H2319 C2333 0.960 . S
H2320 C2333 0.961 . S
H2321 C2333 0.959 . S
H2322 C2336 0.929 . S
H2323 C2337 0.931 . S
H2324 C2339 0.930 . S
C2325 H2313 0.930 . S
C2325 C2326 1.399 . S
C2325 C2330 1.399 . S
C2326 C2325 1.399 . S
C2326 C2327 1.376 . S
C2327 H2314 0.930 . S
C2327 C2326 1.376 . S
C2327 C2328 1.388 . S
C2328 H2315 0.930 . S
C2328 C2327 1.388 . S
C2328 C2329 1.390 . S
C2329 C2328 1.390 . S
C2329 C2330 1.394 . S
C2329 C2335 1.465 . S
C2330 C2325 1.399 . S
C2330 C2329 1.394 . S
C2330 C2331 1.516 . S
C2331 C2330 1.516 . S
C2331 C2332 1.502 . S
C2331 C2333 1.561 . S
C2331 C2334 1.526 . S
C2332 H2316 0.959 . S
C2332 H2317 0.959 . S
C2332 H2318 0.961 . S
C2332 C2331 1.502 . S
C2333 H2319 0.960 . S
C2333 H2320 0.961 . S
C2333 H2321 0.959 . S
C2333 C2331 1.561 . S
C2334 C2331 1.526 . S
C2334 C2335 1.396 . S
C2334 C2339 1.390 . S
C2335 C2329 1.465 . S
C2335 C2334 1.396 . S
C2335 C2336 1.399 . S
C2336 H2322 0.929 . S
C2336 C2335 1.399 . S
C2336 C2337 1.385 . S
C2337 H2323 0.931 . S
C2337 C2336 1.385 . S
C2337 C2338 1.389 . S
C2338 C2337 1.389 . S
C2338 C2339 1.387 . S
C2339 H2324 0.930 . S
C2339 C2334 1.390 . S
C2339 C2338 1.387 . S
H2340 C2352 0.930 . S
H2341 C2354 0.930 . S
H2342 C2355 0.930 . S
H2343 C2359 0.959 . S
H2344 C2359 0.959 . S
H2345 C2359 0.961 . S
H2346 C2360 0.960 . S
H2347 C2360 0.961 . S
H2348 C2360 0.959 . S
H2349 C2363 0.929 . S
H2350 C2364 0.931 . S
H2351 C2366 0.930 . S
C2352 H2340 0.930 . S
C2352 C2353 1.399 . S
C2352 C2357 1.399 . S
C2353 C2352 1.399 . S
C2353 C2354 1.376 . S
C2354 H2341 0.930 . S
C2354 C2353 1.376 . S
C2354 C2355 1.388 . S
C2355 H2342 0.930 . S
C2355 C2354 1.388 . S
C2355 C2356 1.390 . S
C2356 C2355 1.390 . S
C2356 C2357 1.394 . S
C2356 C2362 1.465 . S
C2357 C2352 1.399 . S
C2357 C2356 1.394 . S
C2357 C2358 1.516 . S
C2358 C2357 1.516 . S
C2358 C2359 1.502 . S
C2358 C2360 1.561 . S
C2358 C2361 1.526 . S
C2359 H2343 0.959 . S
C2359 H2344 0.959 . S
C2359 H2345 0.961 . S
C2359 C2358 1.502 . S
C2360 H2346 0.960 . S
C2360 H2347 0.961 . S
C2360 H2348 0.959 . S
C2360 C2358 1.561 . S
C2361 C2358 1.526 . S
C2361 C2362 1.396 . S
C2361 C2366 1.390 . S
C2362 C2356 1.465 . S
C2362 C2361 1.396 . S
C2362 C2363 1.399 . S
C2363 H2349 0.929 . S
C2363 C2362 1.399 . S
C2363 C2364 1.385 . S
C2364 H2350 0.931 . S
C2364 C2363 1.385 . S
C2364 C2365 1.389 . S
C2365 C2364 1.389 . S
C2365 C2366 1.387 . S
C2366 H2351 0.930 . S
C2366 C2361 1.390 . S
C2366 C2365 1.387 . S
H2367 C2379 0.930 . S
H2368 C2381 0.930 . S
H2369 C2382 0.930 . S
H2370 C2386 0.959 . S
H2371 C2386 0.959 . S
H2372 C2386 0.961 . S
H2373 C2387 0.960 . S
H2374 C2387 0.961 . S
H2375 C2387 0.959 . S
H2376 C2390 0.929 . S
H2377 C2391 0.931 . S
H2378 C2393 0.930 . S
C2379 H2367 0.930 . S
C2379 C2380 1.399 . S
C2379 C2384 1.399 . S
C2380 C2379 1.399 . S
C2380 C2381 1.376 . S
C2381 H2368 0.930 . S
C2381 C2380 1.376 . S
C2381 C2382 1.388 . S
C2382 H2369 0.930 . S
C2382 C2381 1.388 . S
C2382 C2383 1.390 . S
C2383 C2382 1.390 . S
C2383 C2384 1.394 . S
C2383 C2389 1.465 . S
C2384 C2379 1.399 . S
C2384 C2383 1.394 . S
C2384 C2385 1.516 . S
C2385 C2384 1.516 . S
C2385 C2386 1.502 . S
C2385 C2387 1.561 . S
C2385 C2388 1.526 . S
C2386 H2370 0.959 . S
C2386 H2371 0.959 . S
C2386 H2372 0.961 . S
C2386 C2385 1.502 . S
C2387 H2373 0.960 . S
C2387 H2374 0.961 . S
C2387 H2375 0.959 . S
C2387 C2385 1.561 . S
C2388 C2385 1.526 . S
C2388 C2389 1.396 . S
C2388 C2393 1.390 . S
C2389 C2383 1.465 . S
C2389 C2388 1.396 . S
C2389 C2390 1.399 . S
C2390 H2376 0.929 . S
C2390 C2389 1.399 . S
C2390 C2391 1.385 . S
C2391 H2377 0.931 . S
C2391 C2390 1.385 . S
C2391 C2392 1.389 . S
C2392 C2391 1.389 . S
C2392 C2393 1.387 . S
C2393 H2378 0.930 . S
C2393 C2388 1.390 . S
C2393 C2392 1.387 . S
H2394 C2406 0.930 . S
H2395 C2408 0.930 . S
H2396 C2409 0.930 . S
H2397 C2413 0.959 . S
H2398 C2413 0.959 . S
H2399 C2413 0.961 . S
H2400 C2414 0.960 . S
H2401 C2414 0.961 . S
H2402 C2414 0.959 . S
H2403 C2417 0.929 . S
H2404 C2418 0.931 . S
H2405 C2420 0.930 . S
C2406 H2394 0.930 . S
C2406 C2407 1.399 . S
C2406 C2411 1.399 . S
C2407 C2406 1.399 . S
C2407 C2408 1.376 . S
C2408 H2395 0.930 . S
C2408 C2407 1.376 . S
C2408 C2409 1.388 . S
C2409 H2396 0.930 . S
C2409 C2408 1.388 . S
C2409 C2410 1.390 . S
C2410 C2409 1.390 . S
C2410 C2411 1.394 . S
C2410 C2416 1.465 . S
C2411 C2406 1.399 . S
C2411 C2410 1.394 . S
C2411 C2412 1.516 . S
C2412 C2411 1.516 . S
C2412 C2413 1.502 . S
C2412 C2414 1.561 . S
C2412 C2415 1.526 . S
C2413 H2397 0.959 . S
C2413 H2398 0.959 . S
C2413 H2399 0.961 . S
C2413 C2412 1.502 . S
C2414 H2400 0.960 . S
C2414 H2401 0.961 . S
C2414 H2402 0.959 . S
C2414 C2412 1.561 . S
C2415 C2412 1.526 . S
C2415 C2416 1.396 . S
C2415 C2420 1.390 . S
C2416 C2410 1.465 . S
C2416 C2415 1.396 . S
C2416 C2417 1.399 . S
C2417 H2403 0.929 . S
C2417 C2416 1.399 . S
C2417 C2418 1.385 . S
C2418 H2404 0.931 . S
C2418 C2417 1.385 . S
C2418 C2419 1.389 . S
C2419 C2418 1.389 . S
C2419 C2420 1.387 . S
C2420 H2405 0.930 . S
C2420 C2415 1.390 . S
C2420 C2419 1.387 . S
H2421 C2433 0.930 . S
H2422 C2435 0.930 . S
H2423 C2436 0.930 . S
H2424 C2440 0.959 . S
H2425 C2440 0.959 . S
H2426 C2440 0.961 . S
H2427 C2441 0.960 . S
H2428 C2441 0.961 . S
H2429 C2441 0.959 . S
H2430 C2444 0.933 . S
H2431 C2445 0.930 . S
H2432 C2447 0.926 1_455 S
C2433 H2421 0.930 . S
C2433 C2434 1.399 . S
C2433 C2438 1.399 . S
C2434 C2433 1.399 . S
C2434 C2435 1.376 . S
C2435 H2422 0.930 . S
C2435 C2434 1.376 . S
C2435 C2436 1.388 . S
C2436 H2423 0.930 . S
C2436 C2435 1.388 . S
C2436 C2437 1.390 . S
C2437 C2436 1.390 . S
C2437 C2438 1.394 . S
C2437 C2443 1.501 . S
C2438 C2433 1.399 . S
C2438 C2437 1.394 . S
C2438 C2439 1.532 . S
C2439 C2438 1.532 . S
C2439 C2440 1.514 . S
C2439 C2441 1.538 1_655 S
C2439 C2442 1.528 . S
C2440 H2424 0.959 . S
C2440 H2425 0.959 . S
C2440 H2426 0.961 . S
C2440 C2439 1.514 . S
C2441 H2427 0.960 . S
C2441 H2428 0.961 . S
C2441 H2429 0.959 . S
C2441 C2439 1.538 1_455 S
C2442 C2439 1.528 . S
C2442 C2443 1.385 . S
C2442 C2447 1.369 . S
C2443 C2437 1.501 . S
C2443 C2442 1.385 . S
C2443 C2444 1.393 . S
C2444 H2430 0.933 . S
C2444 C2443 1.393 . S
C2444 C2445 1.374 . S
C2445 H2431 0.930 . S
C2445 C2444 1.374 . S
C2445 C2446 1.385 . S
C2446 C2445 1.385 . S
C2446 C2447 1.386 . S
C2447 H2432 0.926 1_655 S
C2447 C2442 1.369 . S
C2447 C2446 1.386 . S
H2448 C2460 0.930 . S
H2449 C2462 0.930 . S
H2450 C2463 0.930 . S
H2451 C2467 0.959 . S
H2452 C2467 0.959 . S
H2453 C2467 0.961 . S
H2454 C2468 0.960 . S
H2455 C2468 0.961 . S
H2456 C2468 0.959 . S
H2457 C2471 0.929 . S
H2458 C2472 0.931 . S
H2459 C2474 0.930 . S
C2460 H2448 0.930 . S
C2460 C2461 1.399 . S
C2460 C2465 1.399 . S
C2461 C2460 1.399 . S
C2461 C2462 1.376 . S
C2462 H2449 0.930 . S
C2462 C2461 1.376 . S
C2462 C2463 1.388 . S
C2463 H2450 0.930 . S
C2463 C2462 1.388 . S
C2463 C2464 1.390 . S
C2464 C2463 1.390 . S
C2464 C2465 1.394 . S
C2464 C2470 1.465 . S
C2465 C2460 1.399 . S
C2465 C2464 1.394 . S
C2465 C2466 1.516 . S
C2466 C2465 1.516 . S
C2466 C2467 1.502 . S
C2466 C2468 1.561 . S
C2466 C2469 1.526 . S
C2467 H2451 0.959 . S
C2467 H2452 0.959 . S
C2467 H2453 0.961 . S
C2467 C2466 1.502 . S
C2468 H2454 0.960 . S
C2468 H2455 0.961 . S
C2468 H2456 0.959 . S
C2468 C2466 1.561 . S
C2469 C2466 1.526 . S
C2469 C2470 1.396 . S
C2469 C2474 1.390 . S
C2470 C2464 1.465 . S
C2470 C2469 1.396 . S
C2470 C2471 1.399 . S
C2471 H2457 0.929 . S
C2471 C2470 1.399 . S
C2471 C2472 1.385 . S
C2472 H2458 0.931 . S
C2472 C2471 1.385 . S
C2472 C2473 1.389 . S
C2473 C2472 1.389 . S
C2473 C2474 1.387 . S
C2474 H2459 0.930 . S
C2474 C2469 1.390 . S
C2474 C2473 1.387 . S
H2475 C2487 0.930 1_565 S
H2476 C2489 0.930 . S
H2477 C2490 0.930 . S
H2478 C2494 0.959 . S
H2479 C2494 0.959 . S
H2480 C2494 0.961 . S
H2481 C2495 0.960 . S
H2482 C2495 0.961 . S
H2483 C2495 0.959 . S
H2484 C2498 0.929 . S
H2485 C2499 0.931 . S
H2486 C2501 0.930 . S
C2487 H2475 0.930 1_545 S
C2487 C2488 1.399 . S
C2487 C2492 1.399 . S
C2488 C2487 1.399 . S
C2488 C2489 1.376 . S
C2489 H2476 0.930 . S
C2489 C2488 1.376 . S
C2489 C2490 1.388 . S
C2490 H2477 0.930 . S
C2490 C2489 1.388 . S
C2490 C2491 1.390 . S
C2491 C2490 1.390 . S
C2491 C2492 1.394 . S
C2491 C2497 1.465 . S
C2492 C2487 1.399 . S
C2492 C2491 1.394 . S
C2492 C2493 1.516 1_545 S
C2493 C2492 1.516 1_565 S
C2493 C2494 1.502 . S
C2493 C2495 1.561 . S
C2493 C2496 1.526 1_565 S
C2494 H2478 0.959 . S
C2494 H2479 0.959 . S
C2494 H2480 0.961 . S
C2494 C2493 1.502 . S
C2495 H2481 0.960 . S
C2495 H2482 0.961 . S
C2495 H2483 0.959 . S
C2495 C2493 1.561 . S
C2496 C2493 1.526 1_545 S
C2496 C2497 1.396 . S
C2496 C2501 1.390 1_545 S
C2497 C2491 1.465 . S
C2497 C2496 1.396 . S
C2497 C2498 1.399 . S
C2498 H2484 0.929 . S
C2498 C2497 1.399 . S
C2498 C2499 1.385 . S
C2499 H2485 0.931 . S
C2499 C2498 1.385 . S
C2499 C2500 1.389 . S
C2500 C2499 1.389 . S
C2500 C2501 1.387 1_545 S
C2501 H2486 0.930 . S
C2501 C2496 1.390 1_565 S
C2501 C2500 1.387 1_565 S
C571 C10 1.614 . S
C583 C403 1.626 . S
C598 C23 1.627 . S
C610 C428 1.579 . S
C637 C439 1.583 . S
C625 C29 1.632 . S
C652 C30 1.614 . S
C664 C464 1.623 . S
C679 C5 1.640 . S
C691 C482 1.596 . S
C706 C18 1.619 . S
C718 C493 1.602 . S
C733 C49 1.604 . S
C745 C475 1.614 . S
C772 C500 1.606 . S
C760 C62 1.607 . S
C799 C457 1.611 . S
C787 C70 1.599 . S
C814 C75 1.623 . S
C826 C446 1.588 1_545 S
C853 C410 1.592 . S
C841 C44 1.621 . S
C868 C57 1.616 . S
C880 C421 1.582 . S
C895 C88 1.621 . S
C907 C511 1.610 . S
C922 C101 1.614 . S
C934 C536 1.602 . S
C961 C547 1.624 . S
C949 C107 1.608 . S
C976 C108 1.633 . S
C988 C248 1.591 . S
C1003 C83 1.637 . S
C1015 C266 1.598 . S
C1030 C96 1.621 . S
C1042 C277 1.600 . S
C1057 C127 1.612 . S
C1069 C259 1.596 . S
C1084 C140 1.604 . S
C1096 C284 1.610 . S
C1123 C241 1.575 . S
C1111 C146 1.624 . S
C1150 C554 1.593 . S
C1138 C147 1.622 . S
C1177 C518 1.602 . S
C1165 C122 1.627 . S
C1204 C529 1.579 . S
C1192 C135 1.618 . S
C1219 C160 1.627 . S
C1231 C295 1.596 . S
C1246 C173 1.619 . S
C1258 C320 1.600 . S
C1273 C185 1.629 . S
C1285 C331 1.583 . S
C1300 C186 1.633 . S
C1312 C356 1.591 . S
C1339 C374 1.596 . S
C1327 C159 1.639 . S
C1366 C385 1.590 . S
C1354 C172 1.626 . S
C1393 C367 1.575 . S
C1381 C205 1.624 . S
C1420 C392 1.593 . S
C1408 C218 1.602 . S
C1435 C224 1.622 . S
C1447 C349 1.583 . S
C1474 C338 1.592 . S
C1462 C225 1.622 . S
C1489 C200 1.617 . S
C1501 C302 1.597 . S
C1528 C313 1.574 . S
C1516 C213 1.623 . S
C1555 C250 1.404 . S
C1543 C4 1.510 . S
C1570 C17 1.502 . S
C1582 C268 1.457 . S
C1609 C278 1.465 . S
C1597 C31 1.510 . S
C1636 C296 1.465 . S
C1624 C36 1.491 . S
C1663 C322 1.453 . S
C1651 C3 1.498 . S
C1690 C332 1.406 . S
C1678 C16 1.506 . S
C1705 C43 1.511 . S
C1717 C340 1.456 . S
C1732 C56 1.496 . S
C1744 C304 1.467 . S
C1759 C68 1.507 . S
C1771 C314 1.394 . S
C1786 C69 1.487 . S
C1798 C260 1.436 . S
C1825 C286 1.465 . S
C1813 C42 1.505 . S
C1840 C55 1.498 . S
C1852 C242 1.408 . S
C1879 C358 1.397 . S
C1867 C82 1.508 . S
C1894 C95 1.505 . S
C1906 C376 1.445 . S
C1921 C109 1.512 . S
C1933 C386 1.449 . S
C1960 C404 1.387 . S
C1948 C114 1.495 . S
C1975 C81 1.498 . S
C1987 C430 1.416 . S
C2002 C94 1.507 . S
C2014 C440 1.414 . S
C2029 C121 1.498 . S
C2041 C448 1.398 . S
C2056 C134 1.495 . S
C2068 C412 1.466 . S
C2095 C422 1.397 . S
C2083 C148 1.508 . S
C2110 C153 1.501 . S
C2122 C368 1.470 . S
C2137 C120 1.510 . S
C2149 C394 1.387 . S
C2176 C350 1.402 . S
C2164 C133 1.499 . S
C2203 C466 1.391 . S
C2191 C166 1.506 . S
C2218 C179 1.499 . S
C2230 C484 1.466 . S
C2245 C187 1.504 . S
C2257 C494 1.396 . S
C2284 C512 1.463 . S
C2272 C192 1.505 . S
C2311 C538 1.427 . S
C2299 C161 1.517 . S
C2326 C174 1.501 . S
C2338 C548 1.392 . S
C2353 C199 1.495 . S
C2365 C556 1.398 . S
C2380 C212 1.503 . S
C2392 C520 1.390 . S
C2419 C530 1.404 . S
C2407 C226 1.510 . S
C2446 C476 1.366 1_655 S
C2434 C231 1.496 . S
C2473 C502 1.387 . S
C2461 C198 1.510 . S
C2488 C211 1.498 . S
C2500 C458 1.412 . S
