# Generated by pormake.
# Topology zzz, (3,6)-cn, num edge types: 1
# Building blocks:
#     Node 0, Type 0, BuildingBlock: BETDIP_clean_linker_0, # of connection points: 3
#     Node 1, Type 0, BuildingBlock: BETDIP_clean_linker_0, # of connection points: 3
#     Node 2, Type 0, BuildingBlock: BETDIP_clean_linker_0, # of connection points: 3
#     Node 3, Type 0, BuildingBlock: BETDIP_clean_linker_0, # of connection points: 3
#     Node 4, Type 0, BuildingBlock: BETDIP_clean_linker_0, # of connection points: 3
#     Node 5, Type 0, BuildingBlock: BETDIP_clean_linker_0, # of connection points: 3
#     Node 6, Type 0, BuildingBlock: BETDIP_clean_linker_0, # of connection points: 3
#     Node 7, Type 0, BuildingBlock: BETDIP_clean_linker_0, # of connection points: 3
#     Node 8, Type 1, BuildingBlock: BETDIP_clean_sbu_0, # of connection points: 6
#     Node 9, Type 1, BuildingBlock: BETDIP_clean_sbu_0, # of connection points: 6
#     Node 10, Type 1, BuildingBlock: BETDIP_clean_sbu_0, # of connection points: 6
#     Node 11, Type 1, BuildingBlock: BETDIP_clean_sbu_0, # of connection points: 6
#     Edge 12, Type (0, 1), BuildingBlock: ZUJKAS_clean_linker_0, # of connection points: 2
#     Edge 13, Type (0, 1), BuildingBlock: ZUJKAS_clean_linker_0, # of connection points: 2
#     Edge 14, Type (0, 1), BuildingBlock: ZUJKAS_clean_linker_0, # of connection points: 2
#     Edge 15, Type (0, 1), BuildingBlock: ZUJKAS_clean_linker_0, # of connection points: 2
#     Edge 16, Type (0, 1), BuildingBlock: ZUJKAS_clean_linker_0, # of connection points: 2
#     Edge 17, Type (0, 1), BuildingBlock: ZUJKAS_clean_linker_0, # of connection points: 2
#     Edge 18, Type (0, 1), BuildingBlock: ZUJKAS_clean_linker_0, # of connection points: 2
#     Edge 19, Type (0, 1), BuildingBlock: ZUJKAS_clean_linker_0, # of connection points: 2
#     Edge 20, Type (0, 1), BuildingBlock: ZUJKAS_clean_linker_0, # of connection points: 2
#     Edge 21, Type (0, 1), BuildingBlock: ZUJKAS_clean_linker_0, # of connection points: 2
#     Edge 22, Type (0, 1), BuildingBlock: ZUJKAS_clean_linker_0, # of connection points: 2
#     Edge 23, Type (0, 1), BuildingBlock: ZUJKAS_clean_linker_0, # of connection points: 2
#     Edge 24, Type (0, 1), BuildingBlock: ZUJKAS_clean_linker_0, # of connection points: 2
#     Edge 25, Type (0, 1), BuildingBlock: ZUJKAS_clean_linker_0, # of connection points: 2
#     Edge 26, Type (0, 1), BuildingBlock: ZUJKAS_clean_linker_0, # of connection points: 2
#     Edge 27, Type (0, 1), BuildingBlock: ZUJKAS_clean_linker_0, # of connection points: 2
#     Edge 28, Type (0, 1), BuildingBlock: ZUJKAS_clean_linker_0, # of connection points: 2
#     Edge 29, Type (0, 1), BuildingBlock: ZUJKAS_clean_linker_0, # of connection points: 2
#     Edge 30, Type (0, 1), BuildingBlock: ZUJKAS_clean_linker_0, # of connection points: 2
#     Edge 31, Type (0, 1), BuildingBlock: ZUJKAS_clean_linker_0, # of connection points: 2
#     Edge 32, Type (0, 1), BuildingBlock: ZUJKAS_clean_linker_0, # of connection points: 2
#     Edge 33, Type (0, 1), BuildingBlock: ZUJKAS_clean_linker_0, # of connection points: 2
#     Edge 34, Type (0, 1), BuildingBlock: ZUJKAS_clean_linker_0, # of connection points: 2
#     Edge 35, Type (0, 1), BuildingBlock: ZUJKAS_clean_linker_0, # of connection points: 2
# Relax obj value: 0.219
# Max RMSD: 0.152
# Mean RMSD: 0.144
data_MOF--net-zzz--node1-BETDIP_clean_sbu_0--node2-BETDIP_clean_linker_0--edge1-ZUJKAS_clean_linker_0
_symmetry_space_group_name_H-M    P1
_symmetry_Int_Tables_number       1
_symmetry_cell_setting            triclinic
loop_
_symmetry_equiv_pos_as_xyz
'x, y, z'
_cell_length_a     68.233791
_cell_length_b     68.154661
_cell_length_c     17.409455
_cell_angle_alpha  89.814963
_cell_angle_beta   90.060877
_cell_angle_gamma 89.915561
loop_
_atom_site_label
_atom_site_type_symbol
_atom_site_fract_x
_atom_site_fract_y
_atom_site_fract_z
_atom_type_partial_charge
H0 H 0.75247 0.52076 0.39076 0.0
H1 H 0.74162 0.5218 0.14665 0.0
H2 H 0.79999 0.51256 0.23173 0.0
H3 H 0.72044 0.55203 0.22325 0.0
C4 C 0.71318 0.53838 0.23874 0.0
C5 C 0.75786 0.51988 0.3324 0.0
C6 C 0.77808 0.51673 0.31865 0.0
C7 C 0.74464 0.52184 0.26994 0.0
C8 C 0.75174 0.52055 0.19443 0.0
C9 C 0.77164 0.51723 0.18019 0.0
C10 C 0.78459 0.51538 0.24249 0.0
N11 N 0.72409 0.52426 0.28191 0.0
H12 H 1.0002 0.75515 0.39721 0.0
H13 H 1.00735 0.74262 0.15638 0.0
H14 H 0.01228 0.80193 0.23734 0.0
H15 H 0.97223 0.72361 0.23035 0.0
C16 C 0.98559 0.71585 0.2461 0.0
C17 C 1.00301 0.76015 0.33916 0.0
C18 C 1.00591 0.78037 0.3242 0.0
C19 C 1.00317 0.74652 0.27791 0.0
C20 C 1.00693 0.75311 0.20305 0.0
C21 C 0.01034 0.77298 0.18802 0.0
C22 C 1.00958 0.7865 0.24864 0.0
N23 N 0.99986 0.72611 0.29038 0.0
H24 H 0.76346 0.99984 0.39998 0.0
H25 H 0.776 1.00154 0.15715 0.0
H26 H 0.71707 1.00954 0.23628 0.0
H27 H 0.79621 0.96987 0.23175 0.0
C28 C 0.8035 0.98329 0.24962 0.0
C29 C 0.75846 1.0013 0.34119 0.0
C30 C 0.73835 1.00472 0.32559 0.0
C31 C 0.77209 0.99987 0.27999 0.0
C32 C 0.76555 1.00213 0.20395 0.0
C33 C 0.74578 1.00561 0.18801 0.0
C34 C 0.73238 1.00669 0.24882 0.0
N35 N 0.7925 0.99703 0.29386 0.0
H36 H 0.51818 0.76817 0.41389 0.0
H37 H 0.52125 0.7825 0.1729 0.0
H38 H 0.51426 0.72252 0.24405 0.0
H39 H 0.55036 0.80384 0.26627 0.0
C40 C 0.53584 0.81006 0.27476 0.0
C41 C 0.51817 0.76356 0.35442 0.0
C42 C 0.51626 0.74342 0.33611 0.0
C43 C 0.52009 0.77771 0.29515 0.0
C44 C 0.51997 0.77165 0.21828 0.0
C45 C 0.51787 0.75184 0.19945 0.0
C46 C 0.51604 0.73789 0.25852 0.0
N47 N 0.52143 0.79814 0.31149 0.0
H48 H 0.26105 0.49565 0.07271 0.0
H49 H 0.27336 0.53132 0.27176 0.0
H50 H 0.21464 0.52723 0.18573 0.0
H51 H 0.3028 0.53617 0.16955 0.0
C52 C 0.30521 0.52088 0.18509 0.0
C53 C 0.25613 0.50552 0.1174 0.0
C54 C 0.23611 0.51087 0.12194 0.0
C55 C 0.26978 0.51309 0.17116 0.0
C56 C 0.26319 0.52584 0.22908 0.0
C57 C 0.24333 0.53061 0.23497 0.0
C58 C 0.23001 0.52324 0.18128 0.0
N59 N 0.28987 0.50719 0.17013 0.0
H60 H 0.01194 0.26604 0.03972 0.0
H61 H 1.00692 0.28044 0.27979 0.0
H62 H 1.00446 0.22028 0.20848 0.0
H63 H 0.98085 0.30299 0.17946 0.0
C64 C 0.99557 0.30887 0.17288 0.0
C65 C 0.01043 0.26141 0.09898 0.0
C66 C 1.0082 0.24124 0.11694 0.0
C67 C 1.00945 0.27564 0.15804 0.0
C68 C 1.00725 0.26955 0.23455 0.0
C69 C 1.00584 0.24965 0.25326 0.0
C70 C 1.00615 0.23569 0.19425 0.0
N71 N 0.01017 0.29615 0.14184 0.0
H72 H 0.2558 0.02605 0.0875 0.0
H73 H 0.24154 0.97631 0.23132 0.0
H74 H 0.29658 0.97828 0.11299 0.0
H75 H 0.21022 0.98378 0.15526 0.0
C76 C 0.2101 0.99816 0.18224 0.0
C77 C 0.25946 0.01176 0.1108 0.0
C78 C 0.2777 1.00301 0.09309 0.0
C79 C 0.24587 1.00172 0.15818 0.0
C80 C 0.25124 0.98356 0.191 0.0
C81 C 0.26941 0.97506 0.17425 0.0
C82 C 0.28225 0.98463 0.12415 0.0
N83 N 0.22718 1.01011 0.17545 0.0
H84 H 0.50251 0.25599 0.04236 0.0
H85 H 0.51557 0.24153 0.2785 0.0
H86 H 0.51794 0.30139 0.20303 0.0
H87 H 0.53582 0.21713 0.17113 0.0
C88 C 0.52066 0.21223 0.17043 0.0
C89 C 0.50634 0.26058 0.09995 0.0
C90 C 0.5102 0.28062 0.11529 0.0
C91 C 0.50869 0.24633 0.15889 0.0
C92 C 0.51401 0.25234 0.2331 0.0
C93 C 0.51695 0.27215 0.24949 0.0
C94 C 0.51512 0.28607 0.1905 0.0
N95 N 0.50619 0.22589 0.14459 0.0
Tb96 Tb 0.0194 1.00501 0.79205 0.0
Tb97 Tb 0.99726 0.01568 0.66089 0.0
C98 C 0.0334 0.98615 0.90253 0.0
C99 C 0.04125 0.96611 0.89873 0.0
C100 C 0.03537 0.9522 0.95328 0.0
C101 C 0.03826 0.93225 0.93935 0.0
C102 C 0.04704 0.92595 0.87056 0.0
C103 C 0.05425 0.93994 0.81871 0.0
C104 C 0.05127 0.95988 0.83243 0.0
C105 C 0.04165 0.01654 0.67569 0.0
C106 C 1.00734 0.97187 0.66856 0.0
C107 C 0.9833 0.03486 0.55112 0.0
C108 C 0.97687 0.05541 0.55488 0.0
C109 C 0.98291 0.06868 0.49819 0.0
C110 C 0.98167 0.08884 0.5114 0.0
C111 C 0.97452 0.09601 0.58182 0.0
C112 C 0.96705 0.08271 0.63597 0.0
C113 C 0.96829 0.06258 0.62276 0.0
C114 C 0.97508 1.0041 0.77758 0.0
C115 C 1.00971 0.04879 0.78288 0.0
O116 O 0.01457 0.98737 0.88918 0.0
O117 O 0.04328 0.99954 0.86523 0.0
O118 O 0.02678 1.00558 0.67154 0.0
O119 O 0.04451 0.02112 0.74677 0.0
O120 O 0.01215 0.97612 0.74039 0.0
O121 O 1.00313 0.98615 0.61994 0.0
O122 O 1.00213 0.0324 0.56131 0.0
O123 O 0.973 0.02233 0.59115 0.0
O124 O 0.9899 0.01512 0.7816 0.0
O125 O 0.97224 0.99951 0.70646 0.0
O126 O 1.00541 0.04444 0.71077 0.0
O127 O 0.01319 0.03454 0.83249 0.0
H128 H 0.02744 0.95668 0.0042 0.0
H129 H 0.03285 0.9217 0.98085 0.0
H130 H 0.06094 0.93546 0.76515 0.0
H131 H 0.05564 0.97031 0.78858 0.0
H132 H 0.98971 0.06346 0.44586 0.0
H133 H 0.98711 0.0988 0.4678 0.0
H134 H 0.96157 0.08777 0.69082 0.0
H135 H 0.96381 0.05265 0.66816 0.0
Tb136 Tb 0.51583 0.02201 0.78955 0.0
Tb137 Tb 0.50174 1.00006 0.66008 0.0
C138 C 0.52724 0.03767 0.91113 0.0
C139 C 0.54642 0.04704 0.92426 0.0
C140 C 0.55944 0.0387 0.97745 0.0
C141 C 0.57923 0.04383 0.97657 0.0
C142 C 0.58637 0.05755 0.92279 0.0
C143 C 0.57302 0.06702 0.87366 0.0
C144 C 0.55325 0.0618 0.87424 0.0
C145 C 0.51475 0.04286 0.66067 0.0
C146 C 0.54779 1.00664 0.67937 0.0
C147 C 0.49184 0.98442 0.53571 0.0
C148 C 0.47377 0.97419 0.51265 0.0
C149 C 0.45529 0.9823 0.52852 0.0
C150 C 0.43827 0.97199 0.51073 0.0
C151 C 0.43929 0.9532 0.47765 0.0
C152 C 0.45783 0.9451 0.46192 0.0
C153 C 0.47491 0.95553 0.47917 0.0
C154 C 0.50324 0.97925 0.78916 0.0
C155 C 0.46989 0.01537 0.77158 0.0
O156 O 0.52802 0.01871 0.89955 0.0
O157 O 0.51554 0.04647 0.8624 0.0
O158 O 0.50185 0.03086 0.68316 0.0
O159 O 0.52843 0.04367 0.71176 0.0
O160 O 0.54427 0.01162 0.7511 0.0
O161 O 0.53308 1.00377 0.63098 0.0
O162 O 0.49035 1.00327 0.54887 0.0
O163 O 0.50227 0.97543 0.58804 0.0
O164 O 0.51593 0.99132 0.76567 0.0
O165 O 0.48943 0.97819 0.73852 0.0
O166 O 0.4732 1.01006 0.6999 0.0
O167 O 0.48466 0.01847 0.81936 0.0
H168 H 0.55458 0.0272 0.01607 0.0
H169 H 0.5891 0.03607 0.0148 0.0
H170 H 0.57798 0.0779 0.83262 0.0
H171 H 0.5436 0.06855 0.83236 0.0
H172 H 0.45394 0.99659 0.55505 0.0
H173 H 0.42428 0.97893 0.52203 0.0
H174 H 0.45917 0.93061 0.43707 0.0
H175 H 0.48903 0.94892 0.46737 0.0
Tb176 Tb 0.49736 0.51789 0.79367 0.0
Tb177 Tb 0.5171 0.50512 0.64318 0.0
C178 C 0.4878 0.53664 0.91092 0.0
C179 C 0.48994 0.55788 0.92459 0.0
C180 C 0.50848 0.56678 0.92124 0.0
C181 C 0.5101 0.58702 0.91137 0.0
C182 C 0.49322 0.59873 0.90385 0.0
C183 C 0.47475 0.59003 0.91482 0.0
C184 C 0.47314 0.56978 0.9253 0.0
C185 C 0.4737 0.50604 0.68255 0.0
C186 C 0.51108 0.55019 0.66765 0.0
C187 C 0.52238 0.48837 0.51823 0.0
C188 C 0.53298 0.46985 0.50573 0.0
C189 C 0.52419 0.45502 0.46232 0.0
C190 C 0.53155 0.4359 0.46517 0.0
C191 C 0.54784 0.4313 0.51166 0.0
C192 C 0.55725 0.44641 0.55183 0.0
C193 C 0.54989 0.46551 0.54893 0.0
C194 C 0.54412 0.50913 0.75358 0.0
C195 C 0.50675 0.47343 0.77517 0.0
O196 O 0.504 0.52631 0.9066 0.0
O197 O 0.47546 0.53227 0.85599 0.0
O198 O 0.48898 0.51631 0.67495 0.0
O199 O 0.47104 0.50246 0.75504 0.0
O200 O 0.50628 0.54601 0.73999 0.0
O201 O 0.51416 0.53623 0.61626 0.0
O202 O 0.50625 0.48633 0.5585 0.0
O203 O 0.53296 0.50344 0.54033 0.0
O204 O 0.52591 0.51174 0.75676 0.0
O205 O 0.54783 0.50406 0.68361 0.0
O206 O 0.5101 0.47721 0.70142 0.0
O207 O 0.50345 0.48759 0.82557 0.0
H208 H 0.52176 0.55806 0.92056 0.0
H209 H 0.52458 0.59316 0.90337 0.0
H210 H 0.46148 0.59873 0.91241 0.0
H211 H 0.45868 0.56328 0.92849 0.0
H212 H 0.51094 0.45796 0.42984 0.0
H213 H 0.52381 0.42453 0.43422 0.0
H214 H 0.56997 0.44337 0.58723 0.0
H215 H 0.5569 0.47662 0.58359 0.0
Tb216 Tb 1.00079 0.50014 0.78142 0.0
Tb217 Tb 0.01444 0.52233 0.6524 0.0
C218 C 0.98929 0.48421 0.90244 0.0
C219 C 0.96991 0.4751 0.91332 0.0
C220 C 0.95693 0.4831 0.96715 0.0
C221 C 0.93692 0.47906 0.96253 0.0
C222 C 0.92955 0.4669 0.90401 0.0
C223 C 0.94276 0.45756 0.85442 0.0
C224 C 0.96276 0.46157 0.85911 0.0
C225 C 1.00173 0.47942 0.65253 0.0
C226 C 0.96853 0.51513 0.67132 0.0
C227 C 0.02462 0.53865 0.52972 0.0
C228 C 0.04252 0.55001 0.51323 0.0
C229 C 0.0559 0.54292 0.45889 0.0
C230 C 0.07468 0.55088 0.45417 0.0
C231 C 0.08034 0.56621 0.50323 0.0
C232 C 0.06652 0.57433 0.5535 0.0
C233 C 0.04778 0.56622 0.55884 0.0
C234 C 0.01318 0.54301 0.78141 0.0
C235 C 0.04665 0.5071 0.76377 0.0
O236 O 0.98877 0.50322 0.8916 0.0
O237 O 1.00106 0.47549 0.85405 0.0
O238 O 0.01463 0.49145 0.67466 0.0
O239 O 0.98815 0.47855 0.70385 0.0
O240 O 0.97222 0.51038 0.74327 0.0
O241 O 0.98318 0.51802 0.62264 0.0
O242 O 0.02748 0.51998 0.5437 0.0
O243 O 0.01223 0.54649 0.57803 0.0
O244 O 1.00045 0.53095 0.75837 0.0
O245 O 0.02683 0.54412 0.73035 0.0
O246 O 0.0432 0.51276 0.69244 0.0
O247 O 0.03196 0.50354 0.81134 0.0
H248 H 0.96205 0.49368 0.00892 0.0
H249 H 0.9271 0.4866 1.0014 0.0
H250 H 0.93754 0.44785 0.80974 0.0
H251 H 0.97237 0.45507 0.81676 0.0
H252 H 0.05219 0.53047 0.42314 0.0
H253 H 0.08508 0.54455 0.41426 0.0
H254 H 0.07059 0.58611 0.59196 0.0
H255 H 0.03782 0.57202 0.60157 0.0
H256 H 0.20455 0.02966 0.28085 0.0
H257 H 0.17546 0.03629 0.36049 0.0
H258 H 0.14676 0.98563 0.26477 0.0
H259 H 0.17561 0.97898 0.18575 0.0
H260 H 0.12227 0.01997 0.27482 0.0
H261 H 0.15981 1.00253 0.55056 0.0
H262 H 0.17141 0.02051 0.49001 0.0
H263 H 0.1698 0.9955 0.45866 0.0
C264 C 0.19196 0.02007 0.27639 0.0
C265 C 0.19237 1.00377 0.22704 0.0
C266 C 0.17539 0.02379 0.32226 0.0
C267 C 0.15895 0.01133 0.3193 0.0
C268 C 0.15921 0.99544 0.2683 0.0
H269 H 0.04517 0.99596 0.54074 0.0
H270 H 0.07313 0.99587 0.45223 0.0
C271 C 0.17574 0.99165 0.22315 0.0
C272 C 0.14158 0.01434 0.37018 0.0
H273 H 0.12664 0.01166 0.55736 0.0
C274 C 0.12323 0.01827 0.33668 0.0
C275 C 0.14278 0.01209 0.45089 0.0
C276 C 0.16194 1.00729 0.49004 0.0
C277 C 0.10613 0.02011 0.38153 0.0
C278 C 0.10723 0.01739 0.46222 0.0
C279 C 0.12567 0.01372 0.49568 0.0
C280 C 0.08955 0.01812 0.51324 0.0
C281 C 0.08714 0.0253 0.34189 0.0
C282 C 0.0894 0.03038 0.57804 0.0
C283 C 0.07356 0.03021 0.62921 0.0
C284 C 0.05741 0.01781 0.61695 0.0
C285 C 0.05729 1.00583 0.55135 0.0
C286 C 0.07327 1.00586 0.50042 0.0
H287 H 0.08978 0.03294 0.28638 0.0
H288 H 0.07893 0.01164 0.32939 0.0
H289 H 0.07785 0.03484 0.37848 0.0
H290 H 0.1017 0.03996 0.58964 0.0
H291 H 0.07411 0.0396 0.67924 0.0
H292 H 0.54665 0.18763 0.23589 0.0
H293 H 0.54054 0.15819 0.31255 0.0
H294 H 0.4784 0.16496 0.27671 0.0
H295 H 0.48447 0.19482 0.19962 0.0
H296 H 0.51385 0.15833 0.45223 0.0
H297 H 0.49354 0.10475 0.22463 0.0
H298 H 0.50866 0.12584 0.20357 0.0
H299 H 0.48308 0.12908 0.22295 0.0
C300 C 0.53166 0.18278 0.24356 0.0
C301 C 0.51606 0.19356 0.21153 0.0
C302 C 0.5282 0.16594 0.28754 0.0
C303 C 0.50904 0.15927 0.3002 0.0
C304 C 0.49333 0.16974 0.26714 0.0
H305 H 0.48176 0.05251 0.5756 0.0
H306 H 0.47789 0.0807 0.48749 0.0
C307 C 0.4968 0.1868 0.22319 0.0
C308 C 0.50588 0.14197 0.35152 0.0
H309 H 0.49726 0.09248 0.35053 0.0
C310 C 0.50998 0.14398 0.43011 0.0
C311 C 0.50069 0.12327 0.32291 0.0
C312 C 0.49625 0.12039 0.23889 0.0
C313 C 0.50957 0.12778 0.48035 0.0
C314 C 0.50549 0.10882 0.45112 0.0
C315 C 0.50052 0.10693 0.37304 0.0
C316 C 0.50778 0.09083 0.49991 0.0
C317 C 0.51369 0.13115 0.56447 0.0
C318 C 0.52597 0.08669 0.53413 0.0
C319 C 0.52816 0.07076 0.58421 0.0
C320 C 0.51227 0.05834 0.60098 0.0
C321 C 0.49424 0.06185 0.564 0.0
C322 C 0.49203 0.07796 0.51376 0.0
H323 H 0.51021 0.14646 0.58145 0.0
H324 H 0.5051 0.12096 0.6012 0.0
H325 H 0.5295 0.12863 0.5758 0.0
H326 H 0.5385 0.09602 0.52297 0.0
H327 H 0.54231 0.06836 0.61097 0.0
H328 H 0.33779 0.54303 0.19482 0.0
H329 H 0.36722 0.53739 0.27183 0.0
H330 H 0.3432 0.48256 0.35249 0.0
H331 H 0.31393 0.48789 0.2726 0.0
H332 H 0.37045 0.53564 0.42052 0.0
H333 H 0.39772 0.46495 0.30573 0.0
H334 H 0.37874 0.47892 0.25837 0.0
H335 H 0.37296 0.46364 0.33976 0.0
C336 C 0.33895 0.52957 0.22781 0.0
C337 C 0.32361 0.51584 0.22699 0.0
C338 C 0.35578 0.52639 0.27222 0.0
C339 C 0.35772 0.50944 0.31783 0.0
C340 C 0.34244 0.49552 0.31653 0.0
H341 H 0.43954 0.48546 0.69386 0.0
H342 H 0.41194 0.48517 0.60328 0.0
C343 C 0.32562 0.49861 0.27102 0.0
C344 C 0.37517 0.50722 0.36979 0.0
H345 H 0.41323 0.47675 0.4193 0.0
C346 C 0.37981 0.52277 0.41964 0.0
C347 C 0.38753 0.49045 0.36935 0.0
C348 C 0.38413 0.47362 0.31494 0.0
C349 C 0.39623 0.52201 0.46861 0.0
C350 C 0.40845 0.50526 0.46838 0.0
C351 C 0.40383 0.4896 0.41937 0.0
C352 C 0.42598 0.50391 0.51949 0.0
C353 C 0.4004 0.53909 0.521 0.0
C354 C 0.44323 0.51423 0.50186 0.0
C355 C 0.45911 0.5143 0.55331 0.0
C356 C 0.45795 0.5042 0.62378 0.0
C357 C 0.44088 0.49341 0.64015 0.0
C358 C 0.42509 0.49321 0.58841 0.0
H359 H 0.38846 0.55019 0.52006 0.0
H360 H 0.40246 0.53383 0.58092 0.0
H361 H 0.41423 0.54631 0.50291 0.0
H362 H 0.44424 0.52259 0.44899 0.0
H363 H 0.47203 0.52277 0.53902 0.0
H364 H 0.96969 0.3321 0.24533 0.0
H365 H 0.9757 0.36195 0.31884 0.0
H366 H 0.03718 0.35859 0.26394 0.0
H367 H 0.0312 0.32836 0.18982 0.0
H368 H 1.00333 0.36387 0.44921 0.0
H369 H 0.01986 0.41748 0.21595 0.0
H370 H 1.00602 0.39537 0.198 0.0
H371 H 0.03188 0.39391 0.215 0.0
C372 C 0.98449 0.3378 0.24808 0.0
C373 C 0.99994 0.32787 0.21158 0.0
C374 C 0.9879 0.35488 0.2903 0.0
C375 C 1.00685 0.36264 0.29675 0.0
C376 C 0.02238 0.35301 0.25912 0.0
H377 H 0.0345 0.47006 0.56599 0.0
H378 H 0.03827 0.4419 0.47831 0.0
C379 C 0.01897 0.33573 0.21688 0.0
C380 C 1.01009 0.38015 0.34659 0.0
H381 H 0.01782 0.4298 0.34201 0.0
C382 C 1.00673 0.37823 0.4258 0.0
C383 C 0.01468 0.3989 0.31635 0.0
C384 C 0.01828 0.40175 0.23165 0.0
C385 C 1.00727 0.39454 0.47509 0.0
C386 C 0.01077 0.4135 0.44438 0.0
C387 C 0.01502 0.41533 0.36563 0.0
C388 C 1.00852 0.43152 0.49253 0.0
C389 C 1.00387 0.39129 0.55982 0.0
C390 C 0.99043 0.43549 0.52763 0.0
C391 C 0.9883 0.45141 0.57739 0.0
C392 C 1.00414 0.46396 0.59307 0.0
C393 C 0.02205 0.46062 0.55525 0.0
C394 C 0.02421 0.44452 0.50524 0.0
H395 H 1.00761 0.37603 0.57721 0.0
H396 H 0.01268 0.40161 0.59494 0.0
H397 H 0.98814 0.39373 0.57291 0.0
H398 H 0.97796 0.42603 0.51747 0.0
H399 H 0.97424 0.45368 0.60483 0.0
H400 H 0.82393 0.01848 0.24334 0.0
H401 H 0.85507 0.02471 0.17597 0.0
H402 H 0.85843 0.96366 0.1134 0.0
H403 H 0.82747 0.95744 0.17983 0.0
H404 H 0.89511 0.98052 0.16714 0.0
H405 H 0.85936 0.02436 0.93569 0.0
H406 H 0.85469 0.03165 0.03324 0.0
H407 H 0.8456 1.00857 0.99923 0.0
C408 C 0.83147 1.00637 0.21608 0.0
C409 C 0.82326 0.98744 0.21698 0.0
C410 C 0.8492 1.00996 0.17716 0.0
C411 C 0.85907 0.99468 0.13894 0.0
C412 C 0.85116 0.9757 0.14231 0.0
H413 H 0.93953 0.98649 0.76312 0.0
H414 H 0.91263 0.98553 0.85567 0.0
C415 C 0.83345 0.97216 0.18035 0.0
C416 C 0.87717 0.99828 0.09266 0.0
H417 H 0.89319 0.0186 0.92404 0.0
C418 C 0.89477 0.98907 0.11452 0.0
C419 C 0.87669 1.00923 0.02341 0.0
C420 C 0.8581 0.01896 0.99577 0.0
C421 C 0.91177 0.99028 0.06863 0.0
C422 C 0.91121 1.00101 0.99888 0.0
C423 C 0.89368 1.01047 0.97766 0.0
C424 C 0.92811 1.00139 0.94427 0.0
C425 C 0.92999 0.97943 0.09347 0.0
C426 C 0.94594 1.01059 0.96304 0.0
C427 C 0.96144 0.01121 0.90977 0.0
C428 C 0.95939 1.00263 0.83677 0.0
C429 C 0.94163 0.99324 0.81876 0.0
C430 C 0.92618 0.99272 0.87162 0.0
H431 H 0.92712 0.96925 0.14213 0.0
H432 H 0.93615 0.97092 0.04483 0.0
H433 H 0.94124 0.99018 0.11192 0.0
H434 H 0.94776 0.01757 0.01837 0.0
H435 H 0.9749 0.01863 0.92527 0.0
H436 H 0.49975 0.8268 0.24038 0.0
H437 H 0.49375 0.85672 0.16426 0.0
H438 H 0.55605 0.86651 0.1489 0.0
H439 H 0.56203 0.83645 0.22216 0.0
H440 H 0.50225 0.89537 0.1805 0.0
H441 H 0.54183 0.86749 0.92598 0.0
H442 H 0.53585 0.85198 0.00668 0.0
H443 H 0.55707 0.86767 0.00987 0.0
C444 C 0.51213 0.83544 0.22123 0.0
C445 C 0.53139 0.82922 0.23695 0.0
C446 C 0.5087 0.85254 0.17751 0.0
C447 C 0.52446 0.86371 0.14879 0.0
C448 C 0.54363 0.85792 0.16794 0.0
H449 H 0.53692 0.97035 0.86952 0.0
H450 H 0.54187 0.94316 0.96103 0.0
C451 C 0.54704 0.84081 0.21061 0.0
C452 C 0.52104 0.88124 0.09817 0.0
H453 H 0.53375 0.9015 0.92485 0.0
C454 C 0.50906 0.89663 0.12445 0.0
C455 C 0.52981 0.88299 0.02452 0.0
C456 C 0.54168 0.86657 0.98972 0.0
C457 C 0.506 0.91375 0.08017 0.0
C458 C 0.51511 0.91561 0.00747 0.0
C459 C 0.52699 0.90023 0.981 0.0
C460 C 0.51187 0.93298 0.95637 0.0
C461 C 0.49327 0.9299 0.11188 0.0
C462 C 0.49339 0.93636 0.92331 0.0
C463 C 0.4906 0.95172 0.87067 0.0
C464 C 0.50619 0.96414 0.84999 0.0
C465 C 0.5246 0.96109 0.88449 0.0
C466 C 0.52744 0.94553 0.93664 0.0
H467 H 0.49073 0.92815 0.17456 0.0
H468 H 0.50001 0.94448 0.10115 0.0
H469 H 0.47884 0.92965 0.08245 0.0
H470 H 0.48121 0.92676 0.93664 0.0
H471 H 0.47624 0.95367 0.84506 0.0
H472 H 0.6929 0.50319 0.22612 0.0
H473 H 0.66238 0.49749 0.15372 0.0
H474 H 0.65871 0.55927 0.10179 0.0
H475 H 0.68923 0.56489 0.17186 0.0
H476 H 0.62371 0.51182 0.16107 0.0
H477 H 0.65893 0.53516 0.88935 0.0
H478 H 0.67278 0.53043 0.97574 0.0
H479 H 0.66028 0.55349 0.96286 0.0
C480 C 0.68543 0.51556 0.19999 0.0
C481 C 0.69354 0.5345 0.2043 0.0
C482 C 0.66799 0.51229 0.15853 0.0
C483 C 0.65838 0.52789 0.1207 0.0
C484 C 0.66601 0.5469 0.12864 0.0
H485 H 0.54192 0.52755 0.89547 0.0
H486 H 0.56863 0.53168 0.98928 0.0
C487 C 0.68342 0.55012 0.16924 0.0
C488 C 0.64097 0.52438 0.07 0.0
H489 H 0.62447 0.53101 0.8861 0.0
C490 C 0.62388 0.51595 0.10087 0.0
C491 C 0.64117 0.52951 0.99102 0.0
C492 C 0.65932 0.53746 0.95249 0.0
C493 C 0.60701 0.5128 0.05533 0.0
C494 C 0.60705 0.51853 0.97693 0.0
C495 C 0.62423 0.52678 0.94621 0.0
C496 C 0.59003 0.51518 0.92388 0.0
C497 C 0.58947 0.50295 0.09119 0.0
C498 C 0.593 0.50478 0.85536 0.0
C499 C 0.57787 0.50267 0.80178 0.0
C500 C 0.55922 0.51079 0.81502 0.0
C501 C 0.55599 0.5209 0.88413 0.0
C502 C 0.57129 0.52318 0.9379 0.0
H503 H 0.59347 0.49497 0.14474 0.0
H504 H 0.5784 0.51425 0.10606 0.0
H505 H 0.58263 0.49243 0.05065 0.0
H506 H 0.60719 0.49843 0.8427 0.0
H507 H 0.58089 0.49475 0.74922 0.0
H508 H 0.02041 0.69528 0.22801 0.0
H509 H 0.02517 0.66458 0.1562 0.0
H510 H 0.96289 0.66117 0.1161 0.0
H511 H 0.95825 0.69204 0.18477 0.0
H512 H 0.01277 0.62721 0.16974 0.0
H513 H 0.98214 0.65774 0.90038 0.0
H514 H 0.98753 0.67291 0.98233 0.0
H515 H 0.96495 0.65926 0.97788 0.0
C516 C 1.00775 0.68786 0.20437 0.0
C517 C 0.98894 0.69612 0.21171 0.0
C518 C 0.01047 0.67032 0.1631 0.0
C519 C 0.99446 0.66071 0.12858 0.0
C520 C 0.9756 0.66852 0.1396 0.0
H521 H 0.9793 0.55315 0.85803 0.0
H522 H 0.9747 0.58084 0.94693 0.0
C523 C 0.97293 0.6861 0.1797 0.0
C524 C 0.99732 0.64273 0.08028 0.0
H525 H 0.98686 0.6231 0.90389 0.0
C526 C 1.00718 0.6264 0.11152 0.0
C527 C 0.99018 0.64154 0.00375 0.0
C528 C 0.9808 0.65887 0.96382 0.0
C529 C 1.00968 0.60894 0.0692 0.0
C530 C 1.00212 0.60767 0.99367 0.0
C531 C 0.99237 0.62396 0.96224 0.0
C532 C 1.00505 0.58996 0.94466 0.0
C533 C 0.02024 0.59183 0.10558 0.0
C534 C 0.02361 0.58583 0.91401 0.0
C535 C 0.0262 0.57023 0.86278 0.0
C536 C 0.01033 0.55827 0.84132 0.0
C537 C 0.99183 0.56203 0.87371 0.0
C538 C 0.98918 0.57787 0.92434 0.0
H539 H 0.02239 0.59388 0.16831 0.0
H540 H 0.01197 0.57803 0.09593 0.0
H541 H 0.03485 0.59014 0.07835 0.0
H542 H 0.03603 0.59504 0.92813 0.0
H543 H 0.04063 0.56772 0.83881 0.0
H544 H 0.02443 0.21951 0.32561 0.0
H545 H 0.0161 0.20497 0.44909 0.0
H546 H 0.97403 0.25113 0.4895 0.0
H547 H 0.98175 0.26537 0.3635 0.0
H548 H 0.01348 0.21581 0.60565 0.0
H549 H 0.93966 0.20263 0.47667 0.0
H550 H 0.95927 0.21194 0.41784 0.0
H551 H 0.94831 0.2273 0.48972 0.0
C552 C 0.01353 0.22669 0.36103 0.0
C553 C 1.00335 0.24323 0.33405 0.0
C554 C 1.00897 0.21854 0.43215 0.0
C555 C 0.99421 0.22679 0.47794 0.0
C556 C 0.98525 0.24437 0.45447 0.0
H557 H 0.94786 0.11987 0.65462 0.0
H558 H 0.95056 0.15533 0.6759 0.0
C559 C 0.98975 0.25252 0.38269 0.0
C560 C 0.98641 0.2148 0.54191 0.0
H561 H 0.95172 0.17937 0.56178 0.0
C562 C 0.99961 0.20827 0.59842 0.0
C563 C 0.96805 0.20535 0.53435 0.0
C564 C 0.95293 0.21207 0.47654 0.0
C565 C 0.99635 0.19065 0.6381 0.0
C566 C 0.97959 0.17938 0.61992 0.0
C567 C 0.96481 0.18778 0.57433 0.0
C568 C 0.97963 0.15772 0.62708 0.0
C569 C 0.01185 0.18342 0.69314 0.0
C570 C 0.99516 0.14723 0.59382 0.0
C571 C 0.9936 0.12716 0.58124 0.0
C572 C 0.9764 0.11709 0.60094 0.0
C573 C 0.96126 0.1273 0.63837 0.0
C574 C 0.96283 0.14751 0.651 0.0
H575 H 0.01583 0.19531 0.73376 0.0
H576 H 1.00702 0.17042 0.72648 0.0
H577 H 0.0253 0.17958 0.66061 0.0
H578 H 1.00809 0.15474 0.57292 0.0
H579 H 1.00576 0.1196 0.55439 0.0
H580 H 0.2755 0.97263 0.32732 0.0
H581 H 0.30134 0.95283 0.38617 0.0
H582 H 0.3073 0.91984 0.17658 0.0
H583 H 0.28178 0.94005 0.11679 0.0
H584 H 0.31765 0.91266 0.40445 0.0
H585 H 0.3539 0.95931 0.18217 0.0
H586 H 0.32853 0.9625 0.20767 0.0
H587 H 0.33586 0.94219 0.14874 0.0
C588 C 0.28151 0.96041 0.29538 0.0
C589 C 0.27697 0.958 0.21735 0.0
C590 C 0.29631 0.9491 0.329 0.0
C591 C 0.30653 0.93526 0.28489 0.0
C592 C 0.29971 0.93064 0.21109 0.0
H593 H 0.43225 0.93081 0.34988 0.0
H594 H 0.40071 0.91845 0.30542 0.0
C595 C 0.28509 0.94212 0.17709 0.0
C596 C 0.32677 0.93012 0.30763 0.0
H597 H 0.37386 0.9438 0.27118 0.0
C598 C 0.33004 0.91907 0.37457 0.0
C599 C 0.34287 0.93865 0.26864 0.0
C600 C 0.34024 0.95144 0.19815 0.0
C601 C 0.34902 0.91687 0.40502 0.0
C602 C 0.36494 0.92632 0.36825 0.0
C603 C 0.36171 0.93642 0.29908 0.0
C604 C 0.38449 0.92854 0.40455 0.0
C605 C 0.35173 0.90482 0.47703 0.0
C606 C 0.38604 0.93762 0.47652 0.0
C607 C 0.40412 0.94442 0.5027 0.0
C608 C 0.42097 0.94268 0.45667 0.0
C609 C 0.41964 0.93236 0.38705 0.0
C610 C 0.40157 0.9253 0.36139 0.0
H611 H 0.34086 0.89272 0.4797 0.0
H612 H 0.3667 0.89847 0.48065 0.0
H613 H 0.34929 0.9143 0.52787 0.0
H614 H 0.37309 0.94072 0.51027 0.0
H615 H 0.4047 0.95188 0.55748 0.0
H616 H 0.50157 0.30228 0.33065 0.0
H617 H 0.51634 0.31855 0.43997 0.0
H618 H 0.55991 0.27269 0.45644 0.0
H619 H 0.54558 0.25679 0.34314 0.0
H620 H 0.52768 0.31259 0.58824 0.0
H621 H 0.59391 0.31847 0.40165 0.0
H622 H 0.5718 0.30795 0.36326 0.0
H623 H 0.5857 0.2949 0.43492 0.0
C624 C 0.5141 0.29549 0.3583 0.0
C625 C 0.52283 0.27868 0.32708 0.0
C626 C 0.52245 0.30466 0.42147 0.0
C627 C 0.53961 0.29714 0.45524 0.0
C628 C 0.547 0.27904 0.42999 0.0
H629 H 0.55877 0.41249 0.64494 0.0
H630 H 0.56524 0.37734 0.66235 0.0
C631 C 0.53871 0.26989 0.36574 0.0
C632 C 0.55096 0.31044 0.50561 0.0
H633 H 0.58583 0.34539 0.47663 0.0
C634 C 0.54087 0.31947 0.56623 0.0
C635 C 0.5686 0.31898 0.47871 0.0
C636 C 0.58073 0.30965 0.41618 0.0
C637 C 0.54549 0.33864 0.58896 0.0
C638 C 0.56106 0.34853 0.55165 0.0
C639 C 0.57356 0.3379 0.50323 0.0
C640 C 0.56084 0.37015 0.54264 0.0
C641 C 0.53228 0.34886 0.64561 0.0
C642 C 0.55726 0.37789 0.46902 0.0
C643 C 0.55401 0.39787 0.4586 0.0
C644 C 0.55408 0.4106 0.52169 0.0
C645 C 0.55871 0.40304 0.59502 0.0
C646 C 0.56219 0.38294 0.60533 0.0
H647 H 0.51999 0.33939 0.66502 0.0
H648 H 0.54098 0.35302 0.6968 0.0
H649 H 0.52604 0.36244 0.61993 0.0
H650 H 0.55613 0.36831 0.41964 0.0
H651 H 0.55087 0.40327 0.4013 0.0
H652 H 0.21769 0.519 0.34296 0.0
H653 H 0.1991 0.53991 0.42965 0.0
H654 H 0.23299 0.59009 0.35714 0.0
H655 H 0.25165 0.56891 0.26884 0.0
H656 H 0.20607 0.568 0.54932 0.0
H657 H 0.1772 0.60202 0.27958 0.0
H658 H 0.19214 0.58022 0.27461 0.0
H659 H 0.20293 0.60319 0.30181 0.0
C660 C 0.22153 0.53439 0.34721 0.0
C661 C 0.23582 0.54249 0.299 0.0
C662 C 0.21101 0.54632 0.39699 0.0
C663 C 0.2145 0.5666 0.39906 0.0
C664 C 0.22997 0.5745 0.35576 0.0
H665 H 0.09572 0.60339 0.49564 0.0
H666 H 0.13071 0.61232 0.49435 0.0
C667 C 0.24063 0.56244 0.30577 0.0
C668 C 0.1995 0.57906 0.4361 0.0
H669 H 0.15576 0.59911 0.38308 0.0
C670 C 0.19538 0.57563 0.51396 0.0
C671 C 0.18573 0.5894 0.39043 0.0
C672 C 0.18958 0.59401 0.30694 0.0
C673 C 0.17671 0.57949 0.54387 0.0
C674 C 0.16194 0.58671 0.49429 0.0
C675 C 0.16706 0.59322 0.42054 0.0
C676 C 0.14101 0.58249 0.50876 0.0
C677 C 0.1724 0.57395 0.62601 0.0
C678 C 0.1353 0.56281 0.51669 0.0
C679 C 0.11558 0.55772 0.51603 0.0
C680 C 0.10111 0.57218 0.50728 0.0
C681 C 0.10668 0.592 0.50223 0.0
C682 C 0.12658 0.5971 0.502 0.0
H683 H 0.18537 0.57671 0.66303 0.0
H684 H 0.15967 0.58226 0.64888 0.0
H685 H 0.16909 0.55803 0.62924 0.0
H686 H 0.14615 0.5512 0.51965 0.0
H687 H 0.11163 0.54237 0.52112 0.0
H688 H 0.03693 0.75692 0.08862 0.0
H689 H 0.04878 0.7713 0.96779 0.0
H690 H 1.00719 0.81862 0.99146 0.0
H691 H 0.99511 0.80422 0.11074 0.0
H692 H 0.01462 0.8053 0.83167 0.0
H693 H 0.08231 0.82139 1.00069 0.0
H694 H 0.07397 0.79654 0.98871 0.0
H695 H 0.0606 0.813 0.04965 0.0
C696 C 0.02997 0.77009 0.06671 0.0
C697 C 0.01535 0.7797 0.10955 0.0
C698 C 0.03676 0.77827 0.99786 0.0
C699 C 0.02896 0.79608 0.97122 0.0
C700 C 0.01335 0.80481 0.01096 0.0
H701 H 0.01643 0.90095 0.88065 0.0
H702 H 0.01657 0.86574 0.8618 0.0
C703 C 1.00662 0.79672 0.07956 0.0
C704 C 0.03877 0.80777 0.91097 0.0
H705 H 0.07274 0.8442 0.90799 0.0
C706 C 0.02782 0.81333 0.84612 0.0
C707 C 0.05634 0.81783 0.92823 0.0
C708 C 0.0691 0.81197 0.99543 0.0
C709 C 0.03236 0.83056 0.80567 0.0
C710 C 0.0477 0.84262 0.83282 0.0
C711 C 0.06065 0.83518 0.88841 0.0
C712 C 0.04683 0.86421 0.82409 0.0
C713 C 0.01951 0.8367 0.73931 0.0
C714 C 0.0638 0.87527 0.80941 0.0
C715 C 0.06381 0.89556 0.8218 0.0
C716 C 0.04695 0.90493 0.8502 0.0
C717 C 0.02976 0.89401 0.86057 0.0
C718 C 0.0297 0.87389 0.84779 0.0
H719 H 0.01586 0.82379 0.70323 0.0
H720 H 1.0055 0.84269 0.76165 0.0
H721 H 0.02666 0.84801 0.70284 0.0
H722 H 0.07725 0.86807 0.79225 0.0
H723 H 0.07722 0.90374 0.8129 0.0
H724 H 0.76239 0.02998 0.08054 0.0
H725 H 0.74584 0.04374 0.96746 0.0
H726 H 0.69661 1.00539 0.00837 0.0
H727 H 0.71355 0.99083 0.11717 0.0
H728 H 0.69929 0.01436 0.85897 0.0
H729 H 0.70585 0.08317 0.03052 0.0
H730 H 0.72759 0.07223 0.99148 0.0
H731 H 0.71472 0.06025 0.06864 0.0
C732 C 0.7484 0.02394 0.06321 0.0
C733 C 0.7389 1.00981 0.10894 0.0
C734 C 0.73886 0.03198 0.99912 0.0
C735 C 0.71963 0.02621 0.98142 0.0
C736 C 0.71133 1.01032 0.02132 0.0
H737 H 0.61412 0.05954 0.03562 0.0
H738 H 0.64943 0.05743 0.02004 0.0
C739 C 0.72093 1.00211 0.08415 0.0
C740 C 0.70642 0.03844 0.93332 0.0
H741 H 0.67804 0.07922 0.95636 0.0
C742 C 0.69491 0.02885 0.87812 0.0
C743 C 0.70106 0.05759 0.95704 0.0
C744 C 0.71286 0.06899 0.01518 0.0
C745 C 0.67652 0.03628 0.8565 0.0
C746 C 0.66997 0.05416 0.88899 0.0
C747 C 0.68301 0.06532 0.93315 0.0
C748 C 0.64881 0.05876 0.89559 0.0
C749 C 0.66351 0.02389 0.80602 0.0
C750 C 0.63669 0.06098 0.83107 0.0
C751 C 0.61631 0.06157 0.83986 0.0
C752 C 0.60781 0.06041 0.91355 0.0
C753 C 0.62013 0.05995 0.9781 0.0
C754 C 0.64038 0.05899 0.96918 0.0
H755 H 0.67013 1.00937 0.79296 0.0
H756 H 0.64908 0.02142 0.83373 0.0
H757 H 0.66103 0.03165 0.75084 0.0
H758 H 0.64294 0.0614 0.77399 0.0
H759 H 0.60726 0.06188 0.78874 0.0
H760 H 0.49678 0.76856 0.0819 0.0
H761 H 0.49082 0.75456 0.95431 0.0
H762 H 0.53015 0.7068 0.00801 0.0
H763 H 0.53667 0.72101 0.13347 0.0
H764 H 0.53034 0.71775 0.84868 0.0
H765 H 0.45446 0.70717 0.96157 0.0
H766 H 0.46438 0.73141 0.94935 0.0
H767 H 0.47332 0.71589 0.02534 0.0
C768 C 0.5046 0.7554 0.06534 0.0
C769 C 0.51683 0.74557 0.11815 0.0
C770 C 0.50113 0.74741 0.99259 0.0
C771 C 0.50977 0.72948 0.97223 0.0
C772 C 0.52331 0.72067 0.02245 0.0
H773 H 0.52124 0.6252 0.94663 0.0
H774 H 0.52328 0.65964 0.91257 0.0
C775 C 0.52682 0.72863 0.09463 0.0
C776 C 0.5025 0.71762 0.9072 0.0
H777 H 0.46798 0.682 0.88853 0.0
C778 C 0.51631 0.71043 0.85448 0.0
C779 C 0.48393 0.70846 0.91238 0.0
C780 C 0.46807 0.71605 0.96494 0.0
C781 C 0.5134 0.69233 0.81821 0.0
C782 C 0.49658 0.68128 0.83681 0.0
C783 C 0.48117 0.69032 0.87638 0.0
C784 C 0.49742 0.65964 0.84017 0.0
C785 C 0.52933 0.6841 0.76779 0.0
C786 C 0.48211 0.64812 0.81133 0.0
C787 C 0.48096 0.62822 0.83061 0.0
C788 C 0.49485 0.61965 0.88054 0.0
C789 C 0.51044 0.63117 0.90738 0.0
C790 C 0.51173 0.6509 0.8872 0.0
H791 H 0.53599 0.69592 0.73241 0.0
H792 H 0.54108 0.67776 0.80439 0.0
H793 H 0.52363 0.67245 0.72925 0.0
H794 H 0.47072 0.65465 0.77622 0.0
H795 H 0.46905 0.61964 0.80713 0.0
H796 H 0.75486 0.49642 0.06198 0.0
H797 H 0.7711 0.48585 0.94366 0.0
H798 H 0.82194 0.52008 0.00491 0.0
H799 H 0.80528 0.53184 0.11871 0.0
H800 H 0.8193 0.51731 0.85376 0.0
H801 H 0.80874 0.44245 0.9786 0.0
H802 H 0.78772 0.45598 0.94615 0.0
H803 H 0.80077 0.46378 0.03059 0.0
C804 C 0.76921 0.50225 0.04853 0.0
C805 C 0.77911 0.51443 0.10096 0.0
C806 C 0.77857 0.496 0.98131 0.0
C807 C 0.79806 0.50147 0.96691 0.0
C808 C 0.80699 0.51538 0.01493 0.0
H809 H 0.9007 0.46294 0.0109 0.0
H810 H 0.86564 0.46706 0.99118 0.0
C811 C 0.79755 0.52192 0.08081 0.0
C812 C 0.81072 0.49077 0.91175 0.0
H813 H 0.83708 0.44823 0.90984 0.0
C814 C 0.82288 0.50199 0.86361 0.0
C815 C 0.81504 0.4706 0.92294 0.0
C816 C 0.80246 0.45742 0.97232 0.0
C817 C 0.84104 0.49472 0.83872 0.0
C818 C 0.84662 0.47545 0.8601 0.0
C819 C 0.83284 0.46314 0.89536 0.0
C820 C 0.86754 0.46992 0.86731 0.0
C821 C 0.85502 0.50852 0.79873 0.0
C822 C 0.88024 0.46953 0.80407 0.0
C823 C 0.90045 0.46755 0.81557 0.0
C824 C 0.90816 0.46569 0.89042 0.0
C825 C 0.89523 0.46467 0.95283 0.0
C826 C 0.87516 0.46685 0.9414 0.0
H827 H 0.84864 0.52337 0.79006 0.0
H828 H 0.86873 0.51 0.83266 0.0
H829 H 0.85894 0.50254 0.74169 0.0
H830 H 0.87465 0.47149 0.74636 0.0
H831 H 0.91007 0.46851 0.76626 0.0
H832 H 0.03556 0.23112 0.00717 0.0
H833 H 0.03625 0.20076 0.93055 0.0
H834 H 0.97989 0.18448 0.02234 0.0
H835 H 0.97903 0.2147 0.09692 0.0
H836 H 0.03693 0.1639 0.98762 0.0
H837 H 0.97171 0.1703 0.80112 0.0
H838 H 0.98226 0.19115 0.84948 0.0
H839 H 0.96579 0.17493 0.89967 0.0
C840 C 0.02305 0.22136 0.00871 0.0
C841 C 1.00718 0.2254 0.05769 0.0
C842 C 0.02351 0.20391 0.96549 0.0
C843 C 1.00802 0.19026 0.96969 0.0
C844 C 0.99183 0.1948 0.01617 0.0
H845 H 0.01214 0.06345 0.92957 0.0
H846 H 0.0124 0.09783 0.96979 0.0
C847 C 0.99139 0.21212 0.05924 0.0
C848 C 1.00944 0.17047 0.93236 0.0
H849 H 0.98397 0.13762 0.82212 0.0
C850 C 0.02543 0.15828 0.95071 0.0
C851 C 0.99462 0.163 0.88335 0.0
C852 C 0.97774 0.1756 0.85657 0.0
C853 C 0.02661 0.13877 0.92434 0.0
C854 C 0.01118 0.13091 0.87933 0.0
C855 C 0.99562 0.14336 0.85799 0.0
C856 C 0.01086 0.10983 0.85462 0.0
C857 C 0.04449 0.1268 0.94479 0.0
C858 C 1.00934 0.10486 0.77653 0.0
C859 C 1.00905 0.08513 0.75334 0.0
C860 C 1.01012 0.06979 0.80772 0.0
C861 C 0.01146 0.07479 0.88594 0.0
C862 C 0.01171 0.09453 0.90906 0.0
H863 H 0.05725 0.13633 0.95795 0.0
H864 H 0.04133 0.11788 0.99674 0.0
H865 H 0.04858 0.11672 0.89744 0.0
H866 H 1.00863 0.1163 0.73331 0.0
H867 H 1.00815 0.08192 0.69257 0.0
H868 H 0.28689 0.99647 0.94339 0.0
H869 H 0.31881 1.0027 0.88305 0.0
H870 H 0.33703 0.03512 0.08279 0.0
H871 H 0.30507 0.02895 0.14294 0.0
H872 H 0.34344 0.03808 0.85281 0.0
H873 H 0.37481 0.98652 0.06859 0.0
H874 H 0.34884 0.98814 0.04988 0.0
H875 H 0.36074 1.00661 0.10636 0.0
C876 C 0.29737 1.00574 0.9727 0.0
C877 C 0.29331 0.01266 0.04704 0.0
C878 C 0.31571 1.00909 0.93862 0.0
C879 C 0.33046 0.01915 0.97875 0.0
C880 C 0.32595 0.02721 0.05087 0.0
H881 H 0.45718 0.02773 0.91311 0.0
H882 H 0.42352 0.02971 0.96068 0.0
C883 C 0.30757 0.02396 0.08474 0.0
C884 C 0.35096 0.01953 0.94856 0.0
H885 H 0.39693 1.00125 0.98215 0.0
C886 C 0.35515 0.03006 0.88108 0.0
C887 C 0.36627 1.009 0.98521 0.0
C888 C 0.36253 0.99678 0.05618 0.0
C889 C 0.37427 0.03063 0.85013 0.0
C890 C 0.38958 0.01997 0.8865 0.0
C891 C 0.38532 1.00947 0.9541 0.0
C892 C 0.4101 0.0194 0.85566 0.0
C893 C 0.37792 0.04305 0.77972 0.0
C894 C 0.414 0.01278 0.78073 0.0
C895 C 0.43331 0.01172 0.75311 0.0
C896 C 0.44928 0.01704 0.80001 0.0
C897 C 0.44533 0.02355 0.87513 0.0
C898 C 0.42603 0.02468 0.90256 0.0
H899 H 0.36657 0.05463 0.77288 0.0
H900 H 0.39254 0.05016 0.78219 0.0
H901 H 0.3774 0.03359 0.72801 0.0
H902 H 0.40213 1.00809 0.74383 0.0
H903 H 0.43572 1.00645 0.69525 0.0
H904 H 0.53932 0.30652 0.08426 0.0
H905 H 0.53715 0.33711 0.01202 0.0
H906 H 0.47892 0.32164 0.93716 0.0
H907 H 0.48078 0.29113 0.01323 0.0
H908 H 0.53288 0.34893 0.87155 0.0
H909 H 0.46736 0.37331 0.03425 0.0
H910 H 0.48076 0.3514 0.05928 0.0
H911 H 0.46363 0.35121 0.98055 0.0
C912 C 0.52611 0.30948 0.05156 0.0
C913 C 0.51012 0.29645 0.05538 0.0
C914 C 0.52488 0.32705 0.01008 0.0
C915 C 0.50766 0.33218 0.97054 0.0
C916 C 0.49218 0.31845 0.96907 0.0
H917 H 0.50828 0.44012 0.68669 0.0
H918 H 0.50744 0.40592 0.72892 0.0
C919 C 0.49335 0.3008 0.01146 0.0
C920 C 0.50597 0.35225 0.9348 0.0
H921 H 0.47936 0.39493 0.93973 0.0
C922 C 0.52107 0.3589 0.88615 0.0
C923 C 0.49083 0.36561 0.95474 0.0
C924 C 0.47482 0.36015 0.0106 0.0
C925 C 0.52161 0.37836 0.85823 0.0
C926 C 0.50627 0.39155 0.87693 0.0
C927 C 0.49104 0.38486 0.92463 0.0
C928 C 0.50618 0.41254 0.85039 0.0
C929 C 0.5392 0.38493 0.81239 0.0
C930 C 0.50501 0.42792 0.90395 0.0
C931 C 0.50513 0.44761 0.87978 0.0
C932 C 0.50645 0.45248 0.80128 0.0
C933 C 0.50743 0.43704 0.74768 0.0
C934 C 0.50711 0.41737 0.77186 0.0
H935 H 0.55164 0.37448 0.81765 0.0
H936 H 0.53515 0.386 0.75085 0.0
H937 H 0.54419 0.39964 0.83137 0.0
H938 H 0.5042 0.42469 0.96483 0.0
H939 H 0.50433 0.45901 0.92284 0.0
H940 H 0.22981 0.52302 0.97392 0.0
H941 H 0.19888 0.52005 0.90178 0.0
H942 H 0.17592 0.48211 0.07844 0.0
H943 H 0.20663 0.48521 0.1505 0.0
H944 H 0.17402 0.48749 0.84629 0.0
H945 H 0.13917 0.53078 0.07869 0.0
H946 H 0.16542 0.529 0.06789 0.0
H947 H 0.15192 0.50917 0.11072 0.0
C948 C 0.21845 0.51339 0.99557 0.0
C949 C 0.22075 0.50408 0.06724 0.0
C950 C 0.20069 0.51187 0.95476 0.0
C951 C 0.18488 0.50114 0.98526 0.0
C952 C 0.18775 0.49068 0.05408 0.0
H953 H 0.05969 0.49141 0.89992 0.0
H954 H 0.09329 0.4895 0.94814 0.0
C955 C 0.20541 0.49223 0.09477 0.0
C956 C 0.16494 0.5022 0.9494 0.0
H957 H 0.11808 0.51782 0.98394 0.0
C958 C 0.16179 0.49418 0.87616 0.0
C959 C 0.14894 0.511 0.98809 0.0
C960 C 0.15147 0.52065 0.06539 0.0
C961 C 0.143 0.49417 0.84184 0.0
C962 C 0.12692 0.50282 0.88097 0.0
C963 C 0.13023 0.51107 0.95376 0.0
C964 C 0.10649 0.50329 0.84871 0.0
C965 C 0.14048 0.48428 0.76507 0.0
C966 C 0.10241 0.51177 0.77657 0.0
C967 C 0.08311 0.51272 0.74841 0.0
C968 C 0.0673 0.5055 0.79216 0.0
C969 C 0.07141 0.49713 0.86446 0.0
C970 C 0.0907 0.49603 0.89223 0.0
H971 H 0.15243 0.47358 0.75381 0.0
H972 H 0.12623 0.4765 0.76163 0.0
H973 H 0.14091 0.49555 0.71895 0.0
H974 H 0.11411 0.51803 0.74248 0.0
H975 H 0.08055 0.51948 0.69288 0.0
H976 H 0.03546 0.79285 0.41809 0.0
H977 H 0.03625 0.82328 0.49368 0.0
H978 H 0.97589 0.83443 0.4342 0.0
H979 H 0.97512 0.80399 0.35959 0.0
H980 H 0.03135 0.85988 0.43503 0.0
H981 H 0.97557 0.84814 0.66061 0.0
H982 H 0.98559 0.82824 0.60476 0.0
H983 H 0.96628 0.84334 0.56607 0.0
C984 C 0.02217 0.80143 0.42385 0.0
C985 C 1.00506 0.79576 0.3848 0.0
C986 C 0.02267 0.81895 0.46635 0.0
C987 C 1.00606 0.8312 0.4708 0.0
C988 C 0.98877 0.82514 0.43369 0.0
H989 H 1.00173 0.9578 0.52242 0.0
H990 H 1.0022 0.9237 0.47895 0.0
C991 C 0.9883 0.80767 0.39111 0.0
C992 C 1.00731 0.85111 0.50733 0.0
H993 H 0.98514 0.88152 0.63753 0.0
C994 C 0.02133 0.8645 0.47979 0.0
C995 C 0.99445 0.85727 0.56649 0.0
C996 C 0.97975 0.84344 0.60182 0.0
C997 C 0.02236 0.88391 0.50745 0.0
C998 C 1.00884 0.89038 0.5637 0.0
C999 C 0.99533 0.87677 0.59358 0.0
C1000 C 1.0083 0.91125 0.59097 0.0
C1001 C 0.03806 0.8973 0.47625 0.0
C1002 C 0.01105 0.91581 0.66897 0.0
C1003 C 0.01071 0.9354 0.69421 0.0
C1004 C 1.00745 0.95096 0.64213 0.0
C1005 C 1.00438 0.9463 0.56427 0.0
C1006 C 1.00478 0.92674 0.53913 0.0
H1007 H 0.05043 0.88886 0.4512 0.0
H1008 H 0.03171 0.90662 0.43012 0.0
H1009 H 0.04388 0.90706 0.52182 0.0
H1010 H 0.01365 0.90419 0.71028 0.0
H1011 H 0.01296 0.93832 0.75467 0.0
H1012 H 0.7298 0.97933 0.44522 0.0
H1013 H 0.69977 0.97906 0.52356 0.0
H1014 H 0.68111 0.03303 0.41583 0.0
H1015 H 0.71128 0.0338 0.34121 0.0
H1016 H 0.66981 0.03365 0.55723 0.0
H1017 H 0.64862 0.96133 0.43788 0.0
H1018 H 0.67103 0.96077 0.49179 0.0
H1019 H 0.66968 0.97467 0.40383 0.0
C1020 C 0.71954 0.99141 0.44013 0.0
C1021 C 0.72288 1.00647 0.3863 0.0
C1022 C 0.70215 0.99108 0.48389 0.0
C1023 C 0.68765 1.00567 0.47399 0.0
C1024 C 0.69177 0.02143 0.4244 0.0
H1025 H 0.56133 1.00003 0.53274 0.0
H1026 H 0.59538 0.99945 0.48813 0.0
C1027 C 0.70911 0.02186 0.38154 0.0
C1028 C 0.66783 1.00439 0.51152 0.0
H1029 H 0.62676 0.97568 0.52611 0.0
C1030 C 0.66051 0.02087 0.5509 0.0
C1031 C 0.6553 0.98795 0.50202 0.0
C1032 C 0.66142 0.97025 0.45599 0.0
C1033 C 0.6412 0.02145 0.57985 0.0
C1034 C 0.62889 1.00486 0.57181 0.0
C1035 C 0.63621 0.98832 0.53322 0.0
C1036 C 0.60812 1.00473 0.60003 0.0
C1037 C 0.6337 0.04026 0.61463 0.0
C1038 C 0.60376 1.00752 0.67817 0.0
C1039 C 0.58426 1.00798 0.70381 0.0
C1040 C 0.56855 1.00539 0.65217 0.0
C1041 C 0.57297 1.0021 0.57426 0.0
C1042 C 0.59249 1.00175 0.5486 0.0
H1043 H 0.64409 0.05264 0.60663 0.0
H1044 H 0.61938 0.04432 0.58864 0.0
H1045 H 0.63132 0.03818 0.67702 0.0
H1046 H 0.61546 1.00931 0.71963 0.0
H1047 H 0.58153 1.01044 0.7643 0.0
H1048 H 0.48642 0.71737 0.35404 0.0
H1049 H 0.48648 0.68703 0.42951 0.0
H1050 H 0.54299 0.70207 0.52302 0.0
H1051 H 0.54291 0.73265 0.44707 0.0
H1052 H 0.54213 0.66463 0.4597 0.0
H1053 H 0.47953 0.67365 0.65754 0.0
H1054 H 0.47324 0.67945 0.55992 0.0
H1055 H 0.4911 0.6941 0.60971 0.0
C1056 C 0.49858 0.71452 0.39259 0.0
C1057 C 0.51455 0.72756 0.39531 0.0
C1058 C 0.49861 0.69712 0.43584 0.0
C1059 C 0.51466 0.69219 0.48277 0.0
C1060 C 0.53036 0.70554 0.48775 0.0
H1061 H 0.51049 0.58312 0.75782 0.0
H1062 H 0.51294 0.61757 0.71858 0.0
C1063 C 0.53024 0.72312 0.4449 0.0
C1064 C 0.51571 0.67232 0.51998 0.0
H1065 H 0.49016 0.64055 0.63502 0.0
C1066 C 0.53087 0.65946 0.49872 0.0
C1067 C 0.50129 0.66551 0.57212 0.0
C1068 C 0.48548 0.67895 0.60189 0.0
C1069 C 0.5315 0.63987 0.52509 0.0
C1070 C 0.51627 0.63261 0.5728 0.0
C1071 C 0.50165 0.64579 0.5972 0.0
C1072 C 0.51513 0.61144 0.59707 0.0
C1073 C 0.54866 0.62723 0.50185 0.0
C1074 C 0.51538 0.59625 0.54239 0.0
C1075 C 0.51428 0.57646 0.56512 0.0
C1076 C 0.51252 0.57127 0.64319 0.0
C1077 C 0.5119 0.5865 0.69757 0.0
C1078 C 0.51323 0.60628 0.67498 0.0
H1079 H 0.56177 0.63628 0.4886 0.0
H1080 H 0.55258 0.61656 0.5477 0.0
H1081 H 0.54479 0.61898 0.44914 0.0
H1082 H 0.51622 0.59967 0.48173 0.0
H1083 H 0.51455 0.56525 0.5212 0.0
H1084 H 0.8038 0.4867 0.34085 0.0
H1085 H 0.83367 0.48691 0.41787 0.0
H1086 H 0.81741 0.54309 0.51174 0.0
H1087 H 0.78751 0.5431 0.43238 0.0
H1088 H 0.85396 0.5443 0.46059 0.0
H1089 H 0.84767 0.47733 0.63721 0.0
H1090 H 0.84403 0.47178 0.53772 0.0
H1091 H 0.82701 0.48769 0.58655 0.0
C1092 C 0.80627 0.49884 0.37971 0.0
C1093 C 0.79314 0.51481 0.38088 0.0
C1094 C 0.82341 0.49893 0.42412 0.0
C1095 C 0.82791 0.51491 0.47179 0.0
C1096 C 0.81434 0.5305 0.4759 0.0
H1097 H 0.93493 0.51014 0.75633 0.0
H1098 H 0.90089 0.51122 0.71241 0.0
C1099 C 0.7971 0.53042 0.43121 0.0
C1100 C 0.8476 0.51607 0.51048 0.0
H1101 H 0.8805 0.48952 0.61742 0.0
C1102 C 0.85961 0.53241 0.4958 0.0
C1103 C 0.85513 0.50078 0.55755 0.0
C1104 C 0.84269 0.48352 0.58139 0.0
C1105 C 0.87897 0.53354 0.52403 0.0
C1106 C 0.88696 0.51762 0.56654 0.0
C1107 C 0.87469 0.50162 0.58377 0.0
C1108 C 0.90792 0.51724 0.59341 0.0
C1109 C 0.89056 0.55196 0.50846 0.0
C1110 C 0.92351 0.51996 0.54148 0.0
C1111 C 0.94309 0.51953 0.56666 0.0
C1112 C 0.94768 0.5161 0.64441 0.0
C1113 C 0.93207 0.51303 0.69613 0.0
C1114 C 0.9125 0.51357 0.67097 0.0
H1115 H 0.88076 0.56477 0.49883 0.0
H1116 H 0.90062 0.55539 0.55674 0.0
H1117 H 0.8994 0.54993 0.45563 0.0
H1118 H 0.92057 0.52218 0.48096 0.0
H1119 H 0.95464 0.52168 0.52487 0.0
loop_
_geom_bond_atom_site_label_1
_geom_bond_atom_site_label_2
_geom_bond_distance
_geom_bond_site_symmetry_2
_ccdc_geom_bond_type
H0 C5 0.930 . S
H1 C8 0.930 . S
H2 C10 0.930 . S
H3 C4 1.016 . S
C4 H3 1.016 . S
C4 N11 1.286 . S
C5 H0 0.930 . S
C5 C6 1.397 . S
C5 C7 1.361 . S
C6 C5 1.397 . S
C6 C10 1.390 . S
C7 C5 1.361 . S
C7 C8 1.393 . S
C7 N11 1.413 . S
C8 H1 0.930 . S
C8 C7 1.393 . S
C8 C9 1.399 . S
C9 C8 1.399 . S
C9 C10 1.381 . S
C10 H2 0.930 . S
C10 C6 1.390 . S
C10 C9 1.381 . S
N11 C4 1.286 . S
N11 C7 1.413 . S
H12 C17 0.930 . S
H13 C20 0.930 . S
H14 C22 0.930 . S
H15 C16 1.029 . S
C16 H15 1.029 . S
C16 N23 1.268 1_655 S
C17 H12 0.930 . S
C17 C18 1.407 . S
C17 C19 1.361 . S
C18 C17 1.407 . S
C18 C22 1.385 1_455 S
C19 C17 1.361 . S
C19 C20 1.393 . S
C19 N23 1.413 . S
C20 H13 0.930 . S
C20 C19 1.393 . S
C20 C21 1.402 . S
C21 C20 1.402 . S
C21 C22 1.379 1_455 S
C22 H14 0.930 . S
C22 C18 1.385 1_655 S
C22 C21 1.379 1_655 S
N23 C16 1.268 1_455 S
N23 C19 1.413 . S
H24 C29 0.930 . S
H25 C32 0.930 . S
H26 C34 0.930 . S
H27 C28 1.029 . S
C28 H27 1.029 . S
C28 N35 1.268 1_565 S
C29 H24 0.930 . S
C29 C30 1.407 . S
C29 C31 1.361 . S
C30 C29 1.407 . S
C30 C34 1.385 1_545 S
C31 C29 1.361 . S
C31 C32 1.393 . S
C31 N35 1.413 . S
C32 H25 0.930 . S
C32 C31 1.393 . S
C32 C33 1.402 . S
C33 C32 1.402 . S
C33 C34 1.379 1_545 S
C34 H26 0.930 . S
C34 C30 1.385 1_565 S
C34 C33 1.379 1_565 S
N35 C28 1.268 1_545 S
N35 C31 1.413 . S
H36 C41 0.930 . S
H37 C44 0.930 . S
H38 C46 0.930 . S
H39 C40 1.016 . S
C40 H39 1.016 . S
C40 N47 1.286 . S
C41 H36 0.930 . S
C41 C42 1.397 . S
C41 C43 1.361 . S
C42 C41 1.397 . S
C42 C46 1.390 . S
C43 C41 1.361 . S
C43 C44 1.393 . S
C43 N47 1.413 . S
C44 H37 0.930 . S
C44 C43 1.393 . S
C44 C45 1.399 . S
C45 C44 1.399 . S
C45 C46 1.381 . S
C46 H38 0.930 . S
C46 C42 1.390 . S
C46 C45 1.381 . S
N47 C40 1.286 . S
N47 C43 1.413 . S
H48 C53 0.930 . S
H49 C56 0.930 . S
H50 C58 0.930 . S
H51 C52 1.016 . S
C52 H51 1.016 . S
C52 N59 1.286 . S
C53 H48 0.930 . S
C53 C54 1.397 . S
C53 C55 1.361 1_556 S
C54 C53 1.397 . S
C54 C58 1.390 1_556 S
C55 C53 1.361 1_554 S
C55 C56 1.393 . S
C55 N59 1.413 . S
C56 H49 0.930 . S
C56 C55 1.393 . S
C56 C57 1.399 . S
C57 C56 1.399 . S
C57 C58 1.381 . S
C58 H50 0.930 . S
C58 C54 1.390 1_554 S
C58 C57 1.381 . S
N59 C52 1.286 . S
N59 C55 1.413 . S
H60 C65 0.930 . S
H61 C68 0.930 . S
H62 C70 0.930 . S
H63 C64 1.025 . S
C64 H63 1.025 . S
C64 N71 1.274 1_655 S
C65 H60 0.930 . S
C65 C66 1.410 . S
C65 C67 1.361 1_556 S
C66 C65 1.410 . S
C66 C70 1.384 1_456 S
C67 C65 1.361 1_554 S
C67 C68 1.393 . S
C67 N71 1.413 . S
C68 H61 0.930 . S
C68 C67 1.393 . S
C68 C69 1.404 . S
C69 C68 1.404 . S
C69 C70 1.378 1_455 S
C70 H62 0.930 . S
C70 C66 1.384 1_654 S
C70 C69 1.378 1_655 S
N71 C64 1.274 1_455 S
N71 C67 1.413 . S
H72 C77 0.930 . S
H73 C80 0.930 . S
H74 C82 0.930 . S
H75 C76 1.025 . S
C76 H75 1.025 . S
C76 N83 1.274 1_565 S
C77 H72 0.930 . S
C77 C78 1.410 . S
C77 C79 1.361 1_556 S
C78 C77 1.410 . S
C78 C82 1.384 1_546 S
C79 C77 1.361 1_554 S
C79 C80 1.393 . S
C79 N83 1.413 . S
C80 H73 0.930 . S
C80 C79 1.393 . S
C80 C81 1.404 . S
C81 C80 1.404 . S
C81 C82 1.378 1_545 S
C82 H74 0.930 . S
C82 C78 1.384 1_564 S
C82 C81 1.378 1_565 S
N83 C76 1.274 1_545 S
N83 C79 1.413 . S
H84 C89 0.930 . S
H85 C92 0.930 . S
H86 C94 0.930 . S
H87 C88 1.016 . S
C88 H87 1.016 . S
C88 N95 1.286 . S
C89 H84 0.930 . S
C89 C90 1.397 . S
C89 C91 1.361 1_556 S
C90 C89 1.397 . S
C90 C94 1.390 1_556 S
C91 C89 1.361 1_554 S
C91 C92 1.393 . S
C91 N95 1.413 . S
C92 H85 0.930 . S
C92 C91 1.393 . S
C92 C93 1.399 . S
C93 C92 1.399 . S
C93 C94 1.381 . S
C94 H86 0.930 . S
C94 C90 1.390 1_554 S
C94 C93 1.381 . S
N95 C88 1.286 . S
N95 C91 1.413 . S
Tb96 C98 2.809 . S
Tb96 O116 2.478 1_455 S
Tb96 O117 2.440 . S
Tb96 O118 2.658 1_565 S
Tb96 O119 2.409 . S
Tb96 O120 2.378 . S
Tb96 O124 2.325 1_455 S
Tb96 O127 2.341 1_565 S
Tb97 C107 2.809 . S
Tb97 O118 2.325 1_655 S
Tb97 O121 2.341 1_545 S
Tb97 O122 2.472 1_655 S
Tb97 O123 2.440 . S
Tb97 O124 2.658 1_545 S
Tb97 O125 2.409 . S
Tb97 O126 2.378 . S
C98 Tb96 2.809 . S
C98 C99 1.514 . S
C98 O116 1.233 1_455 S
C98 O117 1.266 . S
C99 C98 1.514 . S
C99 C100 1.359 . S
C99 C104 1.348 . S
C100 C99 1.359 . S
C100 C101 1.380 . S
C100 H128 0.929 1_455 S
C101 C100 1.380 . S
C101 C102 1.347 . S
C101 H129 0.931 1_455 S
C102 C101 1.347 . S
C102 C103 1.369 . S
C103 C102 1.369 . S
C103 C104 1.408 . S
C103 H130 0.930 . S
C104 C99 1.348 . S
C104 C103 1.408 . S
C104 H131 0.930 . S
C105 O118 1.263 1_565 S
C105 O119 1.281 . S
C106 O120 1.236 1_655 S
C106 O121 1.266 . S
C107 Tb97 2.809 . S
C107 C108 1.514 . S
C107 O122 1.220 1_655 S
C107 O123 1.266 . S
C108 C107 1.514 . S
C108 C109 1.359 . S
C108 C113 1.348 . S
C109 C108 1.359 . S
C109 C110 1.380 . S
C109 H132 0.929 1_655 S
C110 C109 1.380 . S
C110 C111 1.347 . S
C110 H133 0.931 1_655 S
C111 C110 1.347 . S
C111 C112 1.369 . S
C112 C111 1.369 . S
C112 C113 1.408 . S
C112 H134 0.930 . S
C113 C108 1.348 . S
C113 C112 1.408 . S
C113 H135 0.930 . S
C114 O124 1.281 1_545 S
C114 O125 1.254 . S
C115 O126 1.236 1_455 S
C115 O127 1.266 . S
O116 Tb96 2.478 1_655 S
O116 C98 1.233 1_655 S
O117 Tb96 2.440 . S
O117 C98 1.266 . S
O118 Tb96 2.658 1_545 S
O118 Tb97 2.325 1_455 S
O118 C105 1.263 1_545 S
O119 Tb96 2.409 . S
O119 C105 1.281 . S
O120 Tb96 2.378 . S
O120 C106 1.236 1_455 S
O121 Tb97 2.341 1_565 S
O121 C106 1.266 . S
O122 Tb97 2.472 1_455 S
O122 C107 1.220 1_455 S
O123 Tb97 2.440 . S
O123 C107 1.266 . S
O124 Tb96 2.325 1_655 S
O124 Tb97 2.658 1_565 S
O124 C114 1.281 1_565 S
O125 Tb97 2.409 . S
O125 C114 1.254 . S
O126 Tb97 2.378 . S
O126 C115 1.236 1_655 S
O127 Tb96 2.341 1_545 S
O127 C115 1.266 . S
H128 C100 0.929 1_655 S
H129 C101 0.931 1_655 S
H130 C103 0.930 . S
H131 C104 0.930 . S
H132 C109 0.929 1_455 S
H133 C110 0.931 1_455 S
H134 C112 0.930 . S
H135 C113 0.930 . S
Tb136 C138 2.809 . S
Tb136 O156 2.474 1_545 S
Tb136 O157 2.440 . S
Tb136 O158 2.658 . S
Tb136 O159 2.409 . S
Tb136 O160 2.378 . S
Tb136 O164 2.325 1_545 S
Tb136 O167 2.341 . S
Tb137 C147 2.809 . S
Tb137 O158 2.325 1_565 S
Tb137 O161 2.341 . S
Tb137 O162 2.469 1_565 S
Tb137 O163 2.440 . S
Tb137 O164 2.658 . S
Tb137 O165 2.409 . S
Tb137 O166 2.378 . S
C138 Tb136 2.809 . S
C138 C139 1.514 . S
C138 O156 1.225 1_545 S
C138 O157 1.266 . S
C139 C138 1.514 . S
C139 C140 1.359 . S
C139 C144 1.348 . S
C140 C139 1.359 . S
C140 C141 1.380 . S
C140 H168 0.929 1_545 S
C141 C140 1.380 . S
C141 C142 1.347 . S
C141 H169 0.931 1_545 S
C142 C141 1.347 . S
C142 C143 1.369 . S
C143 C142 1.369 . S
C143 C144 1.408 . S
C143 H170 0.930 . S
C144 C139 1.348 . S
C144 C143 1.408 . S
C144 H171 0.930 . S
C145 O158 1.281 . S
C145 O159 1.254 . S
C146 O160 1.236 1_565 S
C146 O161 1.266 . S
C147 Tb137 2.809 . S
C147 C148 1.514 . S
C147 O162 1.213 1_565 S
C147 O163 1.266 . S
C148 C147 1.514 . S
C148 C149 1.359 . S
C148 C153 1.348 . S
C149 C148 1.359 . S
C149 C150 1.380 . S
C149 H172 0.929 1_565 S
C150 C149 1.380 . S
C150 C151 1.347 . S
C150 H173 0.931 1_565 S
C151 C150 1.347 . S
C151 C152 1.369 . S
C152 C151 1.369 . S
C152 C153 1.408 . S
C152 H174 0.930 . S
C153 C148 1.348 . S
C153 C152 1.408 . S
C153 H175 0.930 . S
C154 O164 1.281 . S
C154 O165 1.254 . S
C155 O166 1.236 1_545 S
C155 O167 1.266 . S
O156 Tb136 2.474 1_565 S
O156 C138 1.225 1_565 S
O157 Tb136 2.440 . S
O157 C138 1.266 . S
O158 Tb136 2.658 . S
O158 Tb137 2.325 1_545 S
O158 C145 1.281 . S
O159 Tb136 2.409 . S
O159 C145 1.254 . S
O160 Tb136 2.378 . S
O160 C146 1.236 1_545 S
O161 Tb137 2.341 . S
O161 C146 1.266 . S
O162 Tb137 2.469 1_545 S
O162 C147 1.213 1_545 S
O163 Tb137 2.440 . S
O163 C147 1.266 . S
O164 Tb136 2.325 1_565 S
O164 Tb137 2.658 . S
O164 C154 1.281 . S
O165 Tb137 2.409 . S
O165 C154 1.254 . S
O166 Tb137 2.378 . S
O166 C155 1.236 1_565 S
O167 Tb136 2.341 . S
O167 C155 1.266 . S
H168 C140 0.929 1_565 S
H169 C141 0.931 1_565 S
H170 C143 0.930 . S
H171 C144 0.930 . S
H172 C149 0.929 1_545 S
H173 C150 0.931 1_545 S
H174 C152 0.930 . S
H175 C153 0.930 . S
Tb176 C178 2.809 . S
Tb176 O196 2.484 . S
Tb176 O197 2.440 . S
Tb176 O198 2.658 . S
Tb176 O199 2.409 . S
Tb176 O200 2.378 . S
Tb176 O204 2.325 . S
Tb176 O207 2.341 . S
Tb177 C187 2.809 . S
Tb177 O198 2.325 . S
Tb177 O201 2.341 . S
Tb177 O202 2.484 . S
Tb177 O203 2.440 . S
Tb177 O204 2.658 . S
Tb177 O205 2.409 . S
Tb177 O206 2.378 . S
C178 Tb176 2.809 . S
C178 C179 1.514 . S
C178 O196 1.248 . S
C178 O197 1.266 . S
C179 C178 1.514 . S
C179 C180 1.359 . S
C179 C184 1.348 . S
C180 C179 1.359 . S
C180 C181 1.380 . S
C180 H208 0.929 . S
C181 C180 1.380 . S
C181 C182 1.347 . S
C181 H209 0.931 . S
C182 C181 1.347 . S
C182 C183 1.369 . S
C183 C182 1.369 . S
C183 C184 1.408 . S
C183 H210 0.930 . S
C184 C179 1.348 . S
C184 C183 1.408 . S
C184 H211 0.930 . S
C185 O198 1.281 . S
C185 O199 1.254 . S
C186 O200 1.236 . S
C186 O201 1.266 . S
C187 Tb177 2.809 . S
C187 C188 1.514 . S
C187 O202 1.248 . S
C187 O203 1.266 . S
C188 C187 1.514 . S
C188 C189 1.359 . S
C188 C193 1.348 . S
C189 C188 1.359 . S
C189 C190 1.380 . S
C189 H212 0.929 . S
C190 C189 1.380 . S
C190 C191 1.347 . S
C190 H213 0.931 . S
C191 C190 1.347 . S
C191 C192 1.369 . S
C192 C191 1.369 . S
C192 C193 1.408 . S
C192 H214 0.930 . S
C193 C188 1.348 . S
C193 C192 1.408 . S
C193 H215 0.930 . S
C194 O204 1.281 . S
C194 O205 1.254 . S
C195 O206 1.236 . S
C195 O207 1.266 . S
O196 Tb176 2.484 . S
O196 C178 1.248 . S
O197 Tb176 2.440 . S
O197 C178 1.266 . S
O198 Tb176 2.658 . S
O198 Tb177 2.325 . S
O198 C185 1.281 . S
O199 Tb176 2.409 . S
O199 C185 1.254 . S
O200 Tb176 2.378 . S
O200 C186 1.236 . S
O201 Tb177 2.341 . S
O201 C186 1.266 . S
O202 Tb177 2.484 . S
O202 C187 1.248 . S
O203 Tb177 2.440 . S
O203 C187 1.266 . S
O204 Tb176 2.325 . S
O204 Tb177 2.658 . S
O204 C194 1.281 . S
O205 Tb177 2.409 . S
O205 C194 1.254 . S
O206 Tb177 2.378 . S
O206 C195 1.236 . S
O207 Tb176 2.341 . S
O207 C195 1.266 . S
H208 C180 0.929 . S
H209 C181 0.931 . S
H210 C183 0.930 . S
H211 C184 0.930 . S
H212 C189 0.929 . S
H213 C190 0.931 . S
H214 C192 0.930 . S
H215 C193 0.930 . S
Tb216 C218 2.809 . S
Tb216 O236 2.484 . S
Tb216 O237 2.440 . S
Tb216 O238 2.658 1_655 S
Tb216 O239 2.409 . S
Tb216 O240 2.378 . S
Tb216 O244 2.325 . S
Tb216 O247 2.341 1_655 S
Tb217 C227 2.809 . S
Tb217 O238 2.325 . S
Tb217 O241 2.341 1_455 S
Tb217 O242 2.484 . S
Tb217 O243 2.440 . S
Tb217 O244 2.658 1_455 S
Tb217 O245 2.409 . S
Tb217 O246 2.378 . S
C218 Tb216 2.809 . S
C218 C219 1.514 . S
C218 O236 1.248 . S
C218 O237 1.266 . S
C219 C218 1.514 . S
C219 C220 1.359 . S
C219 C224 1.348 . S
C220 C219 1.359 . S
C220 C221 1.380 . S
C220 H248 0.929 . S
C221 C220 1.380 . S
C221 C222 1.347 . S
C221 H249 0.931 . S
C222 C221 1.347 . S
C222 C223 1.369 . S
C223 C222 1.369 . S
C223 C224 1.408 . S
C223 H250 0.930 . S
C224 C219 1.348 . S
C224 C223 1.408 . S
C224 H251 0.930 . S
C225 O238 1.269 1_655 S
C225 O239 1.270 . S
C226 O240 1.236 . S
C226 O241 1.266 . S
C227 Tb217 2.809 . S
C227 C228 1.514 . S
C227 O242 1.248 . S
C227 O243 1.266 . S
C228 C227 1.514 . S
C228 C229 1.359 . S
C228 C233 1.348 . S
C229 C228 1.359 . S
C229 C230 1.380 . S
C229 H252 0.929 . S
C230 C229 1.380 . S
C230 C231 1.347 . S
C230 H253 0.931 . S
C231 C230 1.347 . S
C231 C232 1.369 . S
C232 C231 1.369 . S
C232 C233 1.408 . S
C232 H254 0.930 . S
C233 C228 1.348 . S
C233 C232 1.408 . S
C233 H255 0.930 . S
C234 O244 1.265 1_455 S
C234 O245 1.277 . S
C235 O246 1.236 . S
C235 O247 1.266 . S
O236 Tb216 2.484 . S
O236 C218 1.248 . S
O237 Tb216 2.440 . S
O237 C218 1.266 . S
O238 Tb216 2.658 1_455 S
O238 Tb217 2.325 . S
O238 C225 1.269 1_455 S
O239 Tb216 2.409 . S
O239 C225 1.270 . S
O240 Tb216 2.378 . S
O240 C226 1.236 . S
O241 Tb217 2.341 1_655 S
O241 C226 1.266 . S
O242 Tb217 2.484 . S
O242 C227 1.248 . S
O243 Tb217 2.440 . S
O243 C227 1.266 . S
O244 Tb216 2.325 . S
O244 Tb217 2.658 1_655 S
O244 C234 1.265 1_655 S
O245 Tb217 2.409 . S
O245 C234 1.277 . S
O246 Tb217 2.378 . S
O246 C235 1.236 . S
O247 Tb216 2.341 1_455 S
O247 C235 1.266 . S
H248 C220 0.929 . S
H249 C221 0.931 . S
H250 C223 0.930 . S
H251 C224 0.930 . S
H252 C229 0.929 . S
H253 C230 0.931 . S
H254 C232 0.930 . S
H255 C233 0.930 . S
H256 C264 0.929 . S
H257 C266 0.930 . S
H258 C268 0.930 . S
H259 C271 0.929 . S
H260 C274 0.930 . S
H261 C276 0.960 . S
H262 C276 0.960 . S
H263 C276 0.960 . S
C264 H256 0.929 . S
C264 C265 1.391 . S
C264 C266 1.384 . S
C265 C264 1.391 . S
C265 C271 1.377 1_545 S
C266 H257 0.930 . S
C266 C264 1.384 . S
C266 C267 1.372 . S
C267 C266 1.372 . S
C267 C268 1.400 1_545 S
C267 C272 1.490 . S
C268 H258 0.930 . S
C268 C267 1.400 1_565 S
C268 C271 1.386 . S
H269 C285 0.930 . S
H270 C286 0.931 . S
C271 H259 0.929 . S
C271 C265 1.377 1_565 S
C271 C268 1.386 . S
C272 C267 1.490 . S
C272 C274 1.395 . S
C272 C275 1.403 1_545 S
H273 C279 0.930 . S
C274 H260 0.930 . S
C274 C272 1.395 . S
C274 C277 1.403 . S
C275 C272 1.403 1_565 S
C275 C276 1.524 . S
C275 C279 1.400 . S
C276 H261 0.960 . S
C276 H262 0.960 . S
C276 H263 0.960 . S
C276 C275 1.524 . S
C277 C274 1.403 . S
C277 C278 1.392 . S
C277 C281 1.495 . S
C278 C277 1.392 . S
C278 C279 1.385 1_545 S
C278 C280 1.478 . S
C279 H273 0.930 . S
C279 C275 1.400 . S
C279 C278 1.385 1_565 S
C280 C278 1.478 . S
C280 C282 1.381 . S
C280 C286 1.383 1_545 S
C281 C277 1.495 . S
C281 H287 0.959 . S
C281 H288 0.961 . S
C281 H289 0.960 . S
C282 C280 1.381 . S
C282 C283 1.394 . S
C282 H290 0.930 . S
C283 C282 1.394 . S
C283 C284 1.383 . S
C283 H291 0.929 . S
C284 C283 1.383 . S
C284 C285 1.377 1_545 S
C285 H269 0.930 . S
C285 C284 1.377 1_565 S
C285 C286 1.379 . S
C286 H270 0.931 . S
C286 C280 1.383 1_565 S
C286 C285 1.379 . S
H287 C281 0.959 . S
H288 C281 0.961 . S
H289 C281 0.960 . S
H290 C282 0.930 . S
H291 C283 0.929 . S
H292 C300 0.929 . S
H293 C302 0.930 . S
H294 C304 0.930 . S
H295 C307 0.929 . S
H296 C310 0.930 . S
H297 C312 0.960 . S
H298 C312 0.960 . S
H299 C312 0.960 . S
C300 H292 0.929 . S
C300 C301 1.377 . S
C300 C302 1.384 . S
C301 C300 1.377 . S
C301 C307 1.390 . S
C302 H293 0.930 . S
C302 C300 1.384 . S
C302 C303 1.372 . S
C303 C302 1.372 . S
C303 C304 1.400 . S
C303 C308 1.490 . S
C304 H294 0.930 . S
C304 C303 1.400 . S
C304 C307 1.386 . S
H305 C321 0.930 . S
H306 C322 0.931 . S
C307 H295 0.929 . S
C307 C301 1.390 . S
C307 C304 1.386 . S
C308 C303 1.490 . S
C308 C310 1.395 . S
C308 C311 1.403 . S
H309 C315 0.930 . S
C310 H296 0.930 . S
C310 C308 1.395 . S
C310 C313 1.403 . S
C311 C308 1.403 . S
C311 C312 1.524 . S
C311 C315 1.400 . S
C312 H297 0.960 . S
C312 H298 0.960 . S
C312 H299 0.960 . S
C312 C311 1.524 . S
C313 C310 1.403 . S
C313 C314 1.392 . S
C313 C317 1.495 . S
C314 C313 1.392 . S
C314 C315 1.385 . S
C314 C316 1.478 . S
C315 H309 0.930 . S
C315 C311 1.400 . S
C315 C314 1.385 . S
C316 C314 1.478 . S
C316 C318 1.381 . S
C316 C322 1.383 . S
C317 C313 1.495 . S
C317 H323 0.959 . S
C317 H324 0.961 . S
C317 H325 0.960 . S
C318 C316 1.381 . S
C318 C319 1.394 . S
C318 H326 0.930 . S
C319 C318 1.394 . S
C319 C320 1.383 . S
C319 H327 0.929 . S
C320 C319 1.383 . S
C320 C321 1.377 . S
C321 H305 0.930 . S
C321 C320 1.377 . S
C321 C322 1.379 . S
C322 H306 0.931 . S
C322 C316 1.383 . S
C322 C321 1.379 . S
H323 C317 0.959 . S
H324 C317 0.961 . S
H325 C317 0.960 . S
H326 C318 0.930 . S
H327 C319 0.929 . S
H328 C336 0.929 . S
H329 C338 0.930 . S
H330 C340 0.930 . S
H331 C343 0.929 . S
H332 C346 0.930 . S
H333 C348 0.960 . S
H334 C348 0.960 . S
H335 C348 0.960 . S
C336 H328 0.929 . S
C336 C337 1.377 . S
C336 C338 1.384 . S
C337 C336 1.377 . S
C337 C343 1.390 . S
C338 H329 0.930 . S
C338 C336 1.384 . S
C338 C339 1.372 . S
C339 C338 1.372 . S
C339 C340 1.400 . S
C339 C344 1.490 . S
C340 H330 0.930 . S
C340 C339 1.400 . S
C340 C343 1.386 . S
H341 C357 0.930 . S
H342 C358 0.931 . S
C343 H331 0.929 . S
C343 C337 1.390 . S
C343 C340 1.386 . S
C344 C339 1.490 . S
C344 C346 1.395 . S
C344 C347 1.403 . S
H345 C351 0.930 . S
C346 H332 0.930 . S
C346 C344 1.395 . S
C346 C349 1.403 . S
C347 C344 1.403 . S
C347 C348 1.524 . S
C347 C351 1.400 . S
C348 H333 0.960 . S
C348 H334 0.960 . S
C348 H335 0.960 . S
C348 C347 1.524 . S
C349 C346 1.403 . S
C349 C350 1.392 . S
C349 C353 1.495 . S
C350 C349 1.392 . S
C350 C351 1.385 . S
C350 C352 1.478 . S
C351 H345 0.930 . S
C351 C347 1.400 . S
C351 C350 1.385 . S
C352 C350 1.478 . S
C352 C354 1.381 . S
C352 C358 1.383 . S
C353 C349 1.495 . S
C353 H359 0.959 . S
C353 H360 0.961 . S
C353 H361 0.960 . S
C354 C352 1.381 . S
C354 C355 1.394 . S
C354 H362 0.930 . S
C355 C354 1.394 . S
C355 C356 1.383 . S
C355 H363 0.929 . S
C356 C355 1.383 . S
C356 C357 1.377 . S
C357 H341 0.930 . S
C357 C356 1.377 . S
C357 C358 1.379 . S
C358 H342 0.931 . S
C358 C352 1.383 . S
C358 C357 1.379 . S
H359 C353 0.959 . S
H360 C353 0.961 . S
H361 C353 0.960 . S
H362 C354 0.930 . S
H363 C355 0.929 . S
H364 C372 0.929 . S
H365 C374 0.930 . S
H366 C376 0.930 . S
H367 C379 0.929 . S
H368 C382 0.930 . S
H369 C384 0.960 . S
H370 C384 0.960 1_655 S
H371 C384 0.960 . S
C372 H364 0.929 . S
C372 C373 1.377 . S
C372 C374 1.384 . S
C373 C372 1.377 . S
C373 C379 1.390 1_655 S
C374 H365 0.930 . S
C374 C372 1.384 . S
C374 C375 1.409 . S
C375 C374 1.409 . S
C375 C376 1.362 1_655 S
C375 C380 1.490 . S
C376 H366 0.930 . S
C376 C375 1.362 1_455 S
C376 C379 1.386 . S
H377 C393 0.930 . S
H378 C394 0.931 . S
C379 H367 0.929 . S
C379 C373 1.390 1_455 S
C379 C376 1.386 . S
C380 C375 1.490 . S
C380 C382 1.403 . S
C380 C383 1.397 1_655 S
H381 C387 0.930 . S
C382 H368 0.930 . S
C382 C380 1.403 . S
C382 C385 1.403 . S
C383 C380 1.397 1_455 S
C383 C384 1.524 . S
C383 C387 1.400 . S
C384 H369 0.960 . S
C384 H370 0.960 1_455 S
C384 H371 0.960 . S
C384 C383 1.524 . S
C385 C382 1.403 . S
C385 C386 1.399 . S
C385 C389 1.495 . S
C386 C385 1.399 . S
C386 C387 1.380 1_655 S
C386 C388 1.477 . S
C387 H381 0.930 . S
C387 C383 1.400 . S
C387 C386 1.380 1_455 S
C388 C386 1.477 . S
C388 C390 1.383 . S
C388 C394 1.381 1_655 S
C389 C385 1.495 . S
C389 H395 0.959 . S
C389 H396 0.961 1_655 S
C389 H397 0.960 . S
C390 C388 1.383 . S
C390 C391 1.394 . S
C390 H398 0.930 . S
C391 C390 1.394 . S
C391 C392 1.352 1_655 S
C391 H399 0.929 . S
C392 C391 1.352 1_455 S
C392 C393 1.407 . S
C393 H377 0.930 . S
C393 C392 1.407 . S
C393 C394 1.379 . S
C394 H378 0.931 . S
C394 C388 1.381 1_455 S
C394 C393 1.379 . S
H395 C389 0.959 . S
H396 C389 0.961 1_455 S
H397 C389 0.960 . S
H398 C390 0.930 . S
H399 C391 0.929 . S
H400 C408 0.929 . S
H401 C410 0.930 . S
H402 C412 0.930 . S
H403 C415 0.929 . S
H404 C418 0.930 . S
H405 C420 0.960 1_556 S
H406 C420 0.960 1_545 S
H407 C420 0.960 . S
C408 H400 0.929 . S
C408 C409 1.389 . S
C408 C410 1.384 . S
C409 C408 1.389 . S
C409 C415 1.378 1_545 S
C410 H401 0.930 . S
C410 C408 1.384 . S
C410 C411 1.372 . S
C411 C410 1.372 . S
C411 C412 1.400 1_545 S
C411 C416 1.490 . S
C412 H402 0.930 . S
C412 C411 1.400 1_565 S
C412 C415 1.386 . S
H413 C429 0.930 . S
H414 C430 0.931 . S
C415 H403 0.929 . S
C415 C409 1.378 1_565 S
C415 C412 1.386 . S
C416 C411 1.490 . S
C416 C418 1.395 . S
C416 C419 1.403 1_545 S
H417 C423 0.930 . S
C418 H404 0.930 . S
C418 C416 1.395 . S
C418 C421 1.403 . S
C419 C416 1.403 1_565 S
C419 C420 1.524 . S
C419 C423 1.400 1_554 S
C420 H405 0.960 1_554 S
C420 H406 0.960 1_565 S
C420 H407 0.960 . S
C420 C419 1.524 . S
C421 C418 1.403 . S
C421 C422 1.392 . S
C421 C425 1.495 . S
C422 C421 1.392 . S
C422 C423 1.385 1_544 S
C422 C424 1.480 1_554 S
C423 H417 0.930 . S
C423 C419 1.400 1_556 S
C423 C422 1.385 1_566 S
C424 C422 1.480 1_556 S
C424 C426 1.429 . S
C424 C430 1.334 1_545 S
C425 C421 1.495 . S
C425 H431 0.959 . S
C425 H432 0.972 . S
C425 H433 0.960 . S
C426 C424 1.429 . S
C426 C427 1.394 . S
C426 H434 0.930 . S
C427 C426 1.394 . S
C427 C428 1.389 1_545 S
C427 H435 0.929 . S
C428 C427 1.389 1_565 S
C428 C429 1.372 . S
C429 H413 0.930 . S
C429 C428 1.372 . S
C429 C430 1.379 . S
C430 H414 0.931 . S
C430 C424 1.334 1_565 S
C430 C429 1.379 . S
H431 C425 0.959 . S
H432 C425 0.972 . S
H433 C425 0.960 . S
H434 C426 0.930 . S
H435 C427 0.929 . S
H436 C444 0.929 . S
H437 C446 0.930 . S
H438 C448 0.930 . S
H439 C451 0.929 . S
H440 C454 0.930 . S
H441 C456 0.960 1_556 S
H442 C456 0.960 . S
H443 C456 0.960 . S
C444 H436 0.929 . S
C444 C445 1.377 . S
C444 C446 1.384 . S
C445 C444 1.377 . S
C445 C451 1.390 . S
C446 H437 0.930 . S
C446 C444 1.384 . S
C446 C447 1.372 . S
C447 C446 1.372 . S
C447 C448 1.400 . S
C447 C452 1.490 . S
C448 H438 0.930 . S
C448 C447 1.400 . S
C448 C451 1.386 . S
H449 C465 0.930 . S
H450 C466 0.931 . S
C451 H439 0.929 . S
C451 C445 1.390 . S
C451 C448 1.386 . S
C452 C447 1.490 . S
C452 C454 1.395 . S
C452 C455 1.403 . S
H453 C459 0.930 . S
C454 H440 0.930 . S
C454 C452 1.395 . S
C454 C457 1.403 . S
C455 C452 1.403 . S
C455 C456 1.524 . S
C455 C459 1.400 1_554 S
C456 H441 0.960 1_554 S
C456 H442 0.960 . S
C456 H443 0.960 . S
C456 C455 1.524 . S
C457 C454 1.403 . S
C457 C458 1.392 . S
C457 C461 1.495 . S
C458 C457 1.392 . S
C458 C459 1.385 1_554 S
C458 C460 1.478 1_554 S
C459 H453 0.930 . S
C459 C455 1.400 1_556 S
C459 C458 1.385 1_556 S
C460 C458 1.478 1_556 S
C460 C462 1.381 . S
C460 C466 1.383 . S
C461 C457 1.495 . S
C461 H467 0.959 . S
C461 H468 0.961 . S
C461 H469 0.960 . S
C462 C460 1.381 . S
C462 C463 1.394 . S
C462 H470 0.930 . S
C463 C462 1.394 . S
C463 C464 1.383 . S
C463 H471 0.929 . S
C464 C463 1.383 . S
C464 C465 1.377 . S
C465 H449 0.930 . S
C465 C464 1.377 . S
C465 C466 1.379 . S
C466 H450 0.931 . S
C466 C460 1.383 . S
C466 C465 1.379 . S
H467 C461 0.959 . S
H468 C461 0.961 . S
H469 C461 0.960 . S
H470 C462 0.930 . S
H471 C463 0.929 . S
H472 C480 0.929 . S
H473 C482 0.930 . S
H474 C484 0.930 . S
H475 C487 0.929 . S
H476 C490 0.930 . S
H477 C492 0.960 1_556 S
H478 C492 0.960 . S
H479 C492 0.960 . S
C480 H472 0.929 . S
C480 C481 1.377 . S
C480 C482 1.384 . S
C481 C480 1.377 . S
C481 C487 1.390 . S
C482 H473 0.930 . S
C482 C480 1.384 . S
C482 C483 1.372 . S
C483 C482 1.372 . S
C483 C484 1.400 . S
C483 C488 1.490 . S
C484 H474 0.930 . S
C484 C483 1.400 . S
C484 C487 1.386 . S
H485 C501 0.930 . S
H486 C502 0.931 . S
C487 H475 0.929 . S
C487 C481 1.390 . S
C487 C484 1.386 . S
C488 C483 1.490 . S
C488 C490 1.395 . S
C488 C491 1.403 . S
H489 C495 0.930 1_556 S
C490 H476 0.930 . S
C490 C488 1.395 . S
C490 C493 1.403 . S
C491 C488 1.403 . S
C491 C492 1.524 . S
C491 C495 1.400 . S
C492 H477 0.960 1_554 S
C492 H478 0.960 . S
C492 H479 0.960 . S
C492 C491 1.524 . S
C493 C490 1.403 . S
C493 C494 1.392 . S
C493 C497 1.495 . S
C494 C493 1.392 . S
C494 C495 1.385 . S
C494 C496 1.478 1_554 S
C495 H489 0.930 1_554 S
C495 C491 1.400 . S
C495 C494 1.385 . S
C496 C494 1.478 1_556 S
C496 C498 1.381 . S
C496 C502 1.383 . S
C497 C493 1.495 . S
C497 H503 0.959 . S
C497 H504 0.961 . S
C497 H505 0.960 . S
C498 C496 1.381 . S
C498 C499 1.394 . S
C498 H506 0.930 . S
C499 C498 1.394 . S
C499 C500 1.383 . S
C499 H507 0.929 . S
C500 C499 1.383 . S
C500 C501 1.377 . S
C501 H485 0.930 . S
C501 C500 1.377 . S
C501 C502 1.379 . S
C502 H486 0.931 . S
C502 C496 1.383 . S
C502 C501 1.379 . S
H503 C497 0.959 . S
H504 C497 0.961 . S
H505 C497 0.960 . S
H506 C498 0.930 . S
H507 C499 0.929 . S
H508 C516 0.929 . S
H509 C518 0.930 . S
H510 C520 0.930 . S
H511 C523 0.929 . S
H512 C526 0.930 . S
H513 C528 0.960 . S
H514 C528 0.960 . S
H515 C528 0.960 . S
C516 H508 0.929 . S
C516 C517 1.378 1_455 S
C516 C518 1.384 . S
C517 C516 1.378 1_655 S
C517 C523 1.390 . S
C518 H509 0.930 . S
C518 C516 1.384 . S
C518 C519 1.396 . S
C519 C518 1.396 . S
C519 C520 1.375 1_455 S
C519 C524 1.491 . S
C520 H510 0.930 . S
C520 C519 1.375 1_655 S
C520 C523 1.386 . S
H521 C537 0.930 . S
H522 C538 0.931 . S
C523 H511 0.929 . S
C523 C517 1.390 . S
C523 C520 1.386 . S
C524 C519 1.491 . S
C524 C526 1.395 . S
C524 C527 1.403 1_455 S
H525 C531 0.930 1_556 S
C526 H512 0.930 . S
C526 C524 1.395 . S
C526 C529 1.403 . S
C527 C524 1.403 1_655 S
C527 C528 1.524 . S
C527 C531 1.400 . S
C528 H513 0.960 . S
C528 H514 0.960 . S
C528 H515 0.960 . S
C528 C527 1.524 . S
C529 C526 1.403 . S
C529 C530 1.392 . S
C529 C533 1.495 . S
C530 C529 1.392 . S
C530 C531 1.385 1_455 S
C530 C532 1.478 1_554 S
C531 H525 0.930 1_554 S
C531 C527 1.400 . S
C531 C530 1.385 1_655 S
C532 C530 1.478 1_556 S
C532 C534 1.381 . S
C532 C538 1.383 1_455 S
C533 C529 1.495 . S
C533 H539 0.959 . S
C533 H540 0.961 . S
C533 H541 0.960 . S
C534 C532 1.381 . S
C534 C535 1.394 . S
C534 H542 0.930 . S
C535 C534 1.394 . S
C535 C536 1.398 . S
C535 H543 0.929 . S
C536 C535 1.398 . S
C536 C537 1.364 1_455 S
C537 H521 0.930 . S
C537 C536 1.364 1_655 S
C537 C538 1.379 . S
C538 H522 0.931 . S
C538 C532 1.383 1_655 S
C538 C537 1.379 . S
H539 C533 0.959 . S
H540 C533 0.961 . S
H541 C533 0.960 . S
H542 C534 0.930 . S
H543 C535 0.929 . S
H544 C552 0.929 . S
H545 C554 0.930 . S
H546 C556 0.930 . S
H547 C559 0.929 . S
H548 C562 0.930 . S
H549 C564 0.960 . S
H550 C564 0.960 . S
H551 C564 0.960 1_655 S
C552 H544 0.929 . S
C552 C553 1.377 . S
C552 C554 1.384 . S
C553 C552 1.377 . S
C553 C559 1.390 1_455 S
C554 H545 0.930 . S
C554 C552 1.384 . S
C554 C555 1.372 1_455 S
C555 C554 1.372 1_655 S
C555 C556 1.400 . S
C555 C560 1.490 . S
C556 H546 0.930 . S
C556 C555 1.400 . S
C556 C559 1.386 . S
H557 C573 0.930 . S
H558 C574 0.931 . S
C559 H547 0.929 . S
C559 C553 1.390 1_655 S
C559 C556 1.386 . S
C560 C555 1.490 . S
C560 C562 1.395 . S
C560 C563 1.403 . S
H561 C567 0.930 . S
C562 H548 0.930 . S
C562 C560 1.395 . S
C562 C565 1.403 . S
C563 C560 1.403 . S
C563 C564 1.524 1_655 S
C563 C567 1.400 . S
C564 H549 0.960 . S
C564 H550 0.960 . S
C564 H551 0.960 1_455 S
C564 C563 1.524 1_455 S
C565 C562 1.403 . S
C565 C566 1.392 . S
C565 C569 1.495 . S
C566 C565 1.392 . S
C566 C567 1.385 . S
C566 C568 1.478 . S
C567 H561 0.930 . S
C567 C563 1.400 . S
C567 C566 1.385 . S
C568 C566 1.478 . S
C568 C570 1.381 . S
C568 C574 1.383 . S
C569 C565 1.495 . S
C569 H575 0.959 . S
C569 H576 0.961 . S
C569 H577 0.960 . S
C570 C568 1.381 . S
C570 C571 1.394 . S
C570 H578 0.930 1_655 S
C571 C570 1.394 . S
C571 C572 1.383 . S
C571 H579 0.933 1_655 S
C572 C571 1.383 . S
C572 C573 1.377 . S
C573 H557 0.930 . S
C573 C572 1.377 . S
C573 C574 1.379 . S
C574 H558 0.931 . S
C574 C568 1.383 . S
C574 C573 1.379 . S
H575 C569 0.959 . S
H576 C569 0.961 . S
H577 C569 0.960 . S
H578 C570 0.930 1_455 S
H579 C571 0.933 1_455 S
H580 C588 0.929 . S
H581 C590 0.930 . S
H582 C592 0.930 . S
H583 C595 0.929 . S
H584 C598 0.930 . S
H585 C600 0.960 . S
H586 C600 0.960 . S
H587 C600 0.960 1_565 S
C588 H580 0.929 . S
C588 C589 1.377 . S
C588 C590 1.384 . S
C589 C588 1.377 . S
C589 C595 1.390 1_545 S
C590 H581 0.930 . S
C590 C588 1.384 . S
C590 C591 1.372 1_545 S
C591 C590 1.372 1_565 S
C591 C592 1.400 . S
C591 C596 1.490 . S
C592 H582 0.930 . S
C592 C591 1.400 . S
C592 C595 1.386 . S
H593 C609 0.930 . S
H594 C610 0.931 . S
C595 H583 0.929 . S
C595 C589 1.390 1_565 S
C595 C592 1.386 . S
C596 C591 1.490 . S
C596 C598 1.395 . S
C596 C599 1.403 . S
H597 C603 0.930 . S
C598 H584 0.930 . S
C598 C596 1.395 . S
C598 C601 1.403 . S
C599 C596 1.403 . S
C599 C600 1.524 1_565 S
C599 C603 1.400 . S
C600 H585 0.960 . S
C600 H586 0.960 . S
C600 H587 0.960 1_545 S
C600 C599 1.524 1_545 S
C601 C598 1.403 . S
C601 C602 1.392 . S
C601 C605 1.495 . S
C602 C601 1.392 . S
C602 C603 1.385 . S
C602 C604 1.478 . S
C603 H597 0.930 . S
C603 C599 1.400 . S
C603 C602 1.385 . S
C604 C602 1.478 . S
C604 C606 1.381 . S
C604 C610 1.383 . S
C605 C601 1.495 . S
C605 H611 0.959 . S
C605 H612 0.961 . S
C605 H613 0.960 . S
C606 C604 1.381 . S
C606 C607 1.394 . S
C606 H614 0.930 1_565 S
C607 C606 1.394 . S
C607 C608 1.383 . S
C607 H615 0.903 1_565 S
C608 C607 1.383 . S
C608 C609 1.377 . S
C609 H593 0.930 . S
C609 C608 1.377 . S
C609 C610 1.379 . S
C610 H594 0.931 . S
C610 C604 1.383 . S
C610 C609 1.379 . S
H611 C605 0.959 . S
H612 C605 0.961 . S
H613 C605 0.960 . S
H614 C606 0.930 1_545 S
H615 C607 0.903 1_545 S
H616 C624 0.929 . S
H617 C626 0.930 . S
H618 C628 0.930 . S
H619 C631 0.929 . S
H620 C634 0.930 . S
H621 C636 0.960 . S
H622 C636 0.960 . S
H623 C636 0.960 . S
C624 H616 0.929 . S
C624 C625 1.377 . S
C624 C626 1.384 . S
C625 C624 1.377 . S
C625 C631 1.390 . S
C626 H617 0.930 . S
C626 C624 1.384 . S
C626 C627 1.372 . S
C627 C626 1.372 . S
C627 C628 1.400 . S
C627 C632 1.490 . S
C628 H618 0.930 . S
C628 C627 1.400 . S
C628 C631 1.386 . S
H629 C645 0.930 . S
H630 C646 0.931 . S
C631 H619 0.929 . S
C631 C625 1.390 . S
C631 C628 1.386 . S
C632 C627 1.490 . S
C632 C634 1.395 . S
C632 C635 1.403 . S
H633 C639 0.930 . S
C634 H620 0.930 . S
C634 C632 1.395 . S
C634 C637 1.403 . S
C635 C632 1.403 . S
C635 C636 1.524 . S
C635 C639 1.400 . S
C636 H621 0.960 . S
C636 H622 0.960 . S
C636 H623 0.960 . S
C636 C635 1.524 . S
C637 C634 1.403 . S
C637 C638 1.392 . S
C637 C641 1.495 . S
C638 C637 1.392 . S
C638 C639 1.385 . S
C638 C640 1.478 . S
C639 H633 0.930 . S
C639 C635 1.400 . S
C639 C638 1.385 . S
C640 C638 1.478 . S
C640 C642 1.381 . S
C640 C646 1.383 . S
C641 C637 1.495 . S
C641 H647 0.959 . S
C641 H648 0.961 . S
C641 H649 0.960 . S
C642 C640 1.381 . S
C642 C643 1.394 . S
C642 H650 0.930 . S
C643 C642 1.394 . S
C643 C644 1.383 . S
C643 H651 0.929 . S
C644 C643 1.383 . S
C644 C645 1.377 . S
C645 H629 0.930 . S
C645 C644 1.377 . S
C645 C646 1.379 . S
C646 H630 0.931 . S
C646 C640 1.383 . S
C646 C645 1.379 . S
H647 C641 0.959 . S
H648 C641 0.961 . S
H649 C641 0.960 . S
H650 C642 0.930 . S
H651 C643 0.929 . S
H652 C660 0.929 . S
H653 C662 0.930 . S
H654 C664 0.930 . S
H655 C667 0.929 . S
H656 C670 0.930 . S
H657 C672 0.960 . S
H658 C672 0.960 . S
H659 C672 0.960 . S
C660 H652 0.929 . S
C660 C661 1.377 . S
C660 C662 1.384 . S
C661 C660 1.377 . S
C661 C667 1.390 . S
C662 H653 0.930 . S
C662 C660 1.384 . S
C662 C663 1.372 . S
C663 C662 1.372 . S
C663 C664 1.400 . S
C663 C668 1.490 . S
C664 H654 0.930 . S
C664 C663 1.400 . S
C664 C667 1.386 . S
H665 C681 0.930 . S
H666 C682 0.931 . S
C667 H655 0.929 . S
C667 C661 1.390 . S
C667 C664 1.386 . S
C668 C663 1.490 . S
C668 C670 1.395 . S
C668 C671 1.403 . S
H669 C675 0.930 . S
C670 H656 0.930 . S
C670 C668 1.395 . S
C670 C673 1.403 . S
C671 C668 1.403 . S
C671 C672 1.524 . S
C671 C675 1.400 . S
C672 H657 0.960 . S
C672 H658 0.960 . S
C672 H659 0.960 . S
C672 C671 1.524 . S
C673 C670 1.403 . S
C673 C674 1.392 . S
C673 C677 1.495 . S
C674 C673 1.392 . S
C674 C675 1.385 . S
C674 C676 1.478 . S
C675 H669 0.930 . S
C675 C671 1.400 . S
C675 C674 1.385 . S
C676 C674 1.478 . S
C676 C678 1.381 . S
C676 C682 1.383 . S
C677 C673 1.495 . S
C677 H683 0.959 . S
C677 H684 0.961 . S
C677 H685 0.960 . S
C678 C676 1.381 . S
C678 C679 1.394 . S
C678 H686 0.930 . S
C679 C678 1.394 . S
C679 C680 1.383 . S
C679 H687 0.929 . S
C680 C679 1.383 . S
C680 C681 1.377 . S
C681 H665 0.930 . S
C681 C680 1.377 . S
C681 C682 1.379 . S
C682 H666 0.931 . S
C682 C676 1.383 . S
C682 C681 1.379 . S
H683 C677 0.959 . S
H684 C677 0.961 . S
H685 C677 0.960 . S
H686 C678 0.930 . S
H687 C679 0.929 . S
H688 C696 0.929 . S
H689 C698 0.930 . S
H690 C700 0.930 . S
H691 C703 0.929 . S
H692 C706 0.930 . S
H693 C708 0.960 . S
H694 C708 0.960 . S
H695 C708 0.960 . S
C696 H688 0.929 . S
C696 C697 1.377 1_455 S
C696 C698 1.384 . S
C697 C696 1.377 1_655 S
C697 C703 1.390 . S
C698 H689 0.930 . S
C698 C696 1.384 . S
C698 C699 1.372 . S
C699 C698 1.372 . S
C699 C700 1.400 1_455 S
C699 C704 1.490 . S
C700 H690 0.930 . S
C700 C699 1.400 1_655 S
C700 C703 1.386 . S
H701 C717 0.930 . S
H702 C718 0.931 . S
C703 H691 0.929 . S
C703 C697 1.390 . S
C703 C700 1.386 . S
C704 C699 1.490 . S
C704 C706 1.395 . S
C704 C707 1.403 1_455 S
H705 C711 0.964 . S
C706 H692 0.930 . S
C706 C704 1.395 . S
C706 C709 1.403 . S
C707 C704 1.403 1_655 S
C707 C708 1.524 . S
C707 C711 1.412 . S
C708 H693 0.960 . S
C708 H694 0.960 . S
C708 H695 0.960 . S
C708 C707 1.524 . S
C709 C706 1.403 . S
C709 C710 1.392 . S
C709 C713 1.495 . S
C710 C709 1.392 . S
C710 C711 1.342 1_455 S
C710 C712 1.478 . S
C711 H705 0.964 . S
C711 C707 1.412 . S
C711 C710 1.342 1_655 S
C712 C710 1.478 . S
C712 C714 1.381 . S
C712 C718 1.383 1_554 S
C713 C709 1.495 . S
C713 H719 0.959 . S
C713 H720 0.961 . S
C713 H721 0.960 . S
C714 C712 1.381 . S
C714 C715 1.394 . S
C714 H722 0.930 . S
C715 C714 1.394 . S
C715 C716 1.383 1_554 S
C715 H723 0.929 . S
C716 C715 1.383 1_556 S
C716 C717 1.377 . S
C717 H701 0.930 . S
C717 C716 1.377 . S
C717 C718 1.379 . S
C718 H702 0.931 . S
C718 C712 1.383 1_556 S
C718 C717 1.379 . S
H719 C713 0.959 . S
H720 C713 0.961 . S
H721 C713 0.960 . S
H722 C714 0.930 . S
H723 C715 0.929 . S
H724 C732 0.929 . S
H725 C734 0.930 . S
H726 C736 0.930 . S
H727 C739 0.929 . S
H728 C742 0.930 . S
H729 C744 0.960 . S
H730 C744 0.960 . S
H731 C744 0.960 . S
C732 H724 0.929 . S
C732 C733 1.353 1_545 S
C732 C734 1.384 . S
C733 C732 1.353 1_565 S
C733 C739 1.409 . S
C734 H725 0.930 . S
C734 C732 1.384 . S
C734 C735 1.372 . S
C735 C734 1.372 . S
C735 C736 1.400 1_545 S
C735 C740 1.490 . S
C736 H726 0.930 . S
C736 C735 1.400 1_565 S
C736 C739 1.386 . S
H737 C753 0.930 1_565 S
H738 C754 0.931 1_565 S
C739 H727 0.929 . S
C739 C733 1.409 . S
C739 C736 1.386 . S
C740 C735 1.490 . S
C740 C742 1.395 . S
C740 C743 1.403 . S
H741 C747 0.930 . S
C742 H728 0.930 . S
C742 C740 1.395 . S
C742 C745 1.403 . S
C743 C740 1.403 . S
C743 C744 1.524 . S
C743 C747 1.400 . S
C744 H729 0.960 . S
C744 H730 0.960 . S
C744 H731 0.960 . S
C744 C743 1.524 . S
C745 C742 1.403 . S
C745 C746 1.392 . S
C745 C749 1.495 1_554 S
C746 C745 1.392 . S
C746 C747 1.385 . S
C746 C748 1.478 . S
C747 H741 0.930 . S
C747 C743 1.400 . S
C747 C746 1.385 . S
C748 C746 1.478 . S
C748 C750 1.381 1_554 S
C748 C754 1.383 . S
C749 C745 1.495 1_556 S
C749 H755 0.959 . S
C749 H756 0.961 1_545 S
C749 H757 0.960 . S
C750 C748 1.381 1_556 S
C750 C751 1.394 . S
C750 H758 0.930 . S
C751 C750 1.394 . S
C751 C752 1.383 . S
C751 H759 0.929 . S
C752 C751 1.383 . S
C752 C753 1.377 1_556 S
C753 H737 0.930 1_545 S
C753 C752 1.377 1_554 S
C753 C754 1.379 . S
C754 H738 0.931 1_545 S
C754 C748 1.383 . S
C754 C753 1.379 . S
H755 C749 0.959 . S
H756 C749 0.961 1_565 S
H757 C749 0.960 . S
H758 C750 0.930 . S
H759 C751 0.929 . S
H760 C768 0.929 . S
H761 C770 0.930 . S
H762 C772 0.930 . S
H763 C775 0.929 . S
H764 C778 0.930 . S
H765 C780 0.960 . S
H766 C780 0.960 . S
H767 C780 0.960 . S
C768 H760 0.929 . S
C768 C769 1.377 . S
C768 C770 1.384 . S
C769 C768 1.377 . S
C769 C775 1.390 . S
C770 H761 0.930 . S
C770 C768 1.384 . S
C770 C771 1.372 . S
C771 C770 1.372 . S
C771 C772 1.400 . S
C771 C776 1.490 . S
C772 H762 0.930 . S
C772 C771 1.400 . S
C772 C775 1.386 . S
H773 C789 0.930 . S
H774 C790 0.931 . S
C775 H763 0.929 . S
C775 C769 1.390 . S
C775 C772 1.386 . S
C776 C771 1.490 . S
C776 C778 1.395 . S
C776 C779 1.403 . S
H777 C783 0.930 . S
C778 H764 0.930 . S
C778 C776 1.395 . S
C778 C781 1.403 . S
C779 C776 1.403 . S
C779 C780 1.524 . S
C779 C783 1.400 . S
C780 H765 0.960 . S
C780 H766 0.960 . S
C780 H767 0.960 . S
C780 C779 1.524 . S
C781 C778 1.403 . S
C781 C782 1.392 . S
C781 C785 1.495 1_554 S
C782 C781 1.392 . S
C782 C783 1.385 . S
C782 C784 1.478 . S
C783 H777 0.930 . S
C783 C779 1.400 . S
C783 C782 1.385 . S
C784 C782 1.478 . S
C784 C786 1.381 . S
C784 C790 1.383 . S
C785 C781 1.495 1_556 S
C785 H791 0.959 . S
C785 H792 0.961 . S
C785 H793 0.960 . S
C786 C784 1.381 . S
C786 C787 1.394 1_554 S
C786 H794 0.930 . S
C787 C786 1.394 1_556 S
C787 C788 1.383 . S
C787 H795 0.929 . S
C788 C787 1.383 . S
C788 C789 1.377 1_556 S
C789 H773 0.930 . S
C789 C788 1.377 1_554 S
C789 C790 1.379 . S
C790 H774 0.931 . S
C790 C784 1.383 . S
C790 C789 1.379 . S
H791 C785 0.959 . S
H792 C785 0.961 . S
H793 C785 0.960 . S
H794 C786 0.930 . S
H795 C787 0.929 . S
H796 C804 0.929 . S
H797 C806 0.930 . S
H798 C808 0.930 . S
H799 C811 0.929 . S
H800 C814 0.930 . S
H801 C816 0.960 . S
H802 C816 0.960 . S
H803 C816 0.960 . S
C804 H796 0.929 . S
C804 C805 1.377 . S
C804 C806 1.384 . S
C805 C804 1.377 . S
C805 C811 1.390 . S
C806 H797 0.930 . S
C806 C804 1.384 . S
C806 C807 1.372 . S
C807 C806 1.372 . S
C807 C808 1.400 . S
C807 C812 1.490 . S
C808 H798 0.930 . S
C808 C807 1.400 . S
C808 C811 1.386 . S
H809 C825 0.930 . S
H810 C826 0.931 . S
C811 H799 0.929 . S
C811 C805 1.390 . S
C811 C808 1.386 . S
C812 C807 1.490 . S
C812 C814 1.395 . S
C812 C815 1.403 . S
H813 C819 0.930 . S
C814 H800 0.930 . S
C814 C812 1.395 . S
C814 C817 1.403 . S
C815 C812 1.403 . S
C815 C816 1.524 . S
C815 C819 1.400 . S
C816 H801 0.960 . S
C816 H802 0.960 . S
C816 H803 0.960 . S
C816 C815 1.524 . S
C817 C814 1.403 . S
C817 C818 1.392 . S
C817 C821 1.495 1_554 S
C818 C817 1.392 . S
C818 C819 1.385 . S
C818 C820 1.478 . S
C819 H813 0.930 . S
C819 C815 1.400 . S
C819 C818 1.385 . S
C820 C818 1.478 . S
C820 C822 1.381 . S
C820 C826 1.383 . S
C821 C817 1.495 1_556 S
C821 H827 0.959 . S
C821 H828 0.961 . S
C821 H829 0.960 . S
C822 C820 1.381 . S
C822 C823 1.394 1_554 S
C822 H830 0.930 . S
C823 C822 1.394 1_556 S
C823 C824 1.383 . S
C823 H831 0.929 . S
C824 C823 1.383 . S
C824 C825 1.377 1_556 S
C825 H809 0.930 . S
C825 C824 1.377 1_554 S
C825 C826 1.379 . S
C826 H810 0.931 . S
C826 C820 1.383 . S
C826 C825 1.379 . S
H827 C821 0.959 . S
H828 C821 0.961 . S
H829 C821 0.960 . S
H830 C822 0.930 . S
H831 C823 0.929 . S
H832 C840 0.929 . S
H833 C842 0.930 . S
H834 C844 0.930 . S
H835 C847 0.929 . S
H836 C850 0.930 . S
H837 C852 0.960 . S
H838 C852 0.960 . S
H839 C852 0.960 . S
C840 H832 0.929 . S
C840 C841 1.404 . S
C840 C842 1.384 . S
C841 C840 1.404 . S
C841 C847 1.366 1_455 S
C842 H833 0.930 . S
C842 C840 1.384 . S
C842 C843 1.372 . S
C843 C842 1.372 . S
C843 C844 1.400 1_455 S
C843 C848 1.490 . S
C844 H834 0.930 . S
C844 C843 1.400 1_655 S
C844 C847 1.386 . S
H845 C861 0.954 . S
H846 C862 0.935 . S
C847 H835 0.929 . S
C847 C841 1.366 1_655 S
C847 C844 1.386 . S
C848 C843 1.490 . S
C848 C850 1.395 . S
C848 C851 1.403 1_455 S
H849 C855 0.930 . S
C850 H836 0.930 . S
C850 C848 1.395 . S
C850 C853 1.403 . S
C851 C848 1.403 1_655 S
C851 C852 1.524 . S
C851 C855 1.400 . S
C852 H837 0.960 . S
C852 H838 0.960 . S
C852 H839 0.960 . S
C852 C851 1.524 . S
C853 C850 1.403 . S
C853 C854 1.392 . S
C853 C857 1.495 . S
C854 C853 1.392 . S
C854 C855 1.385 1_455 S
C854 C856 1.478 . S
C855 H849 0.930 . S
C855 C851 1.400 . S
C855 C854 1.385 1_655 S
C856 C854 1.478 . S
C856 C858 1.381 . S
C856 C862 1.378 1_455 S
C857 C853 1.495 . S
C857 H863 0.959 . S
C857 H864 0.961 . S
C857 H865 0.960 . S
C858 C856 1.381 . S
C858 C859 1.394 . S
C858 H866 0.930 . S
C859 C858 1.394 . S
C859 C860 1.383 . S
C859 H867 0.929 . S
C860 C859 1.383 . S
C860 C861 1.356 1_455 S
C861 H845 0.954 . S
C861 C860 1.356 1_655 S
C861 C862 1.379 . S
C862 H846 0.935 . S
C862 C856 1.378 1_655 S
C862 C861 1.379 . S
H863 C857 0.959 . S
H864 C857 0.961 . S
H865 C857 0.960 . S
H866 C858 0.930 . S
H867 C859 0.929 . S
H868 C876 0.929 . S
H869 C878 0.936 . S
H870 C880 0.930 . S
H871 C883 0.929 1_554 S
H872 C886 0.930 . S
H873 C888 0.960 . S
H874 C888 0.960 . S
H875 C888 0.960 . S
C876 H868 0.929 . S
C876 C877 1.374 1_565 S
C876 C878 1.386 . S
C877 C876 1.374 1_545 S
C877 C883 1.395 . S
C878 H869 0.936 . S
C878 C876 1.386 . S
C878 C879 1.366 1_565 S
C879 C878 1.366 1_545 S
C879 C880 1.400 . S
C879 C884 1.490 . S
C880 H870 0.930 . S
C880 C879 1.400 . S
C880 C883 1.386 . S
H881 C897 0.930 . S
H882 C898 0.931 . S
C883 H871 0.929 1_556 S
C883 C877 1.395 . S
C883 C880 1.386 . S
C884 C879 1.490 . S
C884 C886 1.395 . S
C884 C887 1.403 1_545 S
H885 C891 0.930 . S
C886 H872 0.930 . S
C886 C884 1.395 . S
C886 C889 1.403 . S
C887 C884 1.403 1_565 S
C887 C888 1.524 . S
C887 C891 1.400 . S
C888 H873 0.960 . S
C888 H874 0.960 . S
C888 H875 0.960 . S
C888 C887 1.524 . S
C889 C886 1.403 . S
C889 C890 1.392 . S
C889 C893 1.495 . S
C890 C889 1.392 . S
C890 C891 1.385 1_545 S
C890 C892 1.478 . S
C891 H885 0.930 . S
C891 C887 1.400 . S
C891 C890 1.385 1_565 S
C892 C890 1.478 . S
C892 C894 1.381 . S
C892 C898 1.383 . S
C893 C889 1.495 . S
C893 H899 0.959 . S
C893 H900 0.961 . S
C893 H901 0.960 . S
C894 C892 1.381 . S
C894 C895 1.394 . S
C894 H902 0.930 . S
C895 C894 1.394 . S
C895 C896 1.383 . S
C895 H903 0.945 . S
C896 C895 1.383 . S
C896 C897 1.377 . S
C897 H881 0.930 . S
C897 C896 1.377 . S
C897 C898 1.379 . S
C898 H882 0.931 . S
C898 C892 1.383 . S
C898 C897 1.379 . S
H899 C893 0.959 . S
H900 C893 0.961 . S
H901 C893 0.960 . S
H902 C894 0.930 . S
H903 C895 0.945 . S
H904 C912 0.929 . S
H905 C914 0.930 . S
H906 C916 0.930 . S
H907 C919 0.929 . S
H908 C922 0.930 . S
H909 C924 0.960 . S
H910 C924 0.960 . S
H911 C924 0.960 . S
C912 H904 0.929 . S
C912 C913 1.377 . S
C912 C914 1.384 . S
C913 C912 1.377 . S
C913 C919 1.390 . S
C914 H905 0.930 . S
C914 C912 1.384 . S
C914 C915 1.372 . S
C915 C914 1.372 . S
C915 C916 1.400 . S
C915 C920 1.490 . S
C916 H906 0.930 . S
C916 C915 1.400 . S
C916 C919 1.386 . S
H917 C933 0.930 . S
H918 C934 0.931 . S
C919 H907 0.929 . S
C919 C913 1.390 . S
C919 C916 1.386 . S
C920 C915 1.490 . S
C920 C922 1.395 . S
C920 C923 1.403 . S
H921 C927 0.930 . S
C922 H908 0.930 . S
C922 C920 1.395 . S
C922 C925 1.403 . S
C923 C920 1.403 . S
C923 C924 1.524 . S
C923 C927 1.400 . S
C924 H909 0.960 . S
C924 H910 0.960 . S
C924 H911 0.960 . S
C924 C923 1.524 . S
C925 C922 1.403 . S
C925 C926 1.392 . S
C925 C929 1.495 . S
C926 C925 1.392 . S
C926 C927 1.385 . S
C926 C928 1.478 . S
C927 H921 0.930 . S
C927 C923 1.400 . S
C927 C926 1.385 . S
C928 C926 1.478 . S
C928 C930 1.381 . S
C928 C934 1.383 . S
C929 C925 1.495 . S
C929 H935 0.959 . S
C929 H936 0.961 . S
C929 H937 0.960 . S
C930 C928 1.381 . S
C930 C931 1.394 . S
C930 H938 0.930 . S
C931 C930 1.394 . S
C931 C932 1.383 . S
C931 H939 0.929 . S
C932 C931 1.383 . S
C932 C933 1.377 . S
C933 H917 0.930 . S
C933 C932 1.377 . S
C933 C934 1.379 . S
C934 H918 0.931 . S
C934 C928 1.383 . S
C934 C933 1.379 . S
H935 C929 0.959 . S
H936 C929 0.961 . S
H937 C929 0.960 . S
H938 C930 0.930 . S
H939 C931 0.929 . S
H940 C948 0.929 . S
H941 C950 0.930 . S
H942 C952 0.930 . S
H943 C955 0.929 . S
H944 C958 0.930 . S
H945 C960 0.960 1_554 S
H946 C960 0.960 1_554 S
H947 C960 0.960 . S
C948 H940 0.929 . S
C948 C949 1.377 . S
C948 C950 1.384 . S
C949 C948 1.377 . S
C949 C955 1.390 . S
C950 H941 0.930 . S
C950 C948 1.384 . S
C950 C951 1.372 . S
C951 C950 1.372 . S
C951 C952 1.400 . S
C951 C956 1.490 . S
C952 H942 0.930 . S
C952 C951 1.400 . S
C952 C955 1.386 . S
H953 C969 0.930 . S
H954 C970 0.931 . S
C955 H943 0.929 . S
C955 C949 1.390 . S
C955 C952 1.386 . S
C956 C951 1.490 . S
C956 C958 1.395 . S
C956 C959 1.403 . S
H957 C963 0.930 . S
C958 H944 0.930 . S
C958 C956 1.395 . S
C958 C961 1.403 . S
C959 C956 1.403 . S
C959 C960 1.524 . S
C959 C963 1.400 . S
C960 H945 0.960 1_556 S
C960 H946 0.960 1_556 S
C960 H947 0.960 . S
C960 C959 1.524 . S
C961 C958 1.403 . S
C961 C962 1.392 . S
C961 C965 1.495 . S
C962 C961 1.392 . S
C962 C963 1.385 . S
C962 C964 1.478 . S
C963 H957 0.930 . S
C963 C959 1.400 . S
C963 C962 1.385 . S
C964 C962 1.478 . S
C964 C966 1.381 . S
C964 C970 1.383 . S
C965 C961 1.495 . S
C965 H971 0.959 . S
C965 H972 0.961 . S
C965 H973 0.960 . S
C966 C964 1.381 . S
C966 C967 1.394 . S
C966 H974 0.930 . S
C967 C966 1.394 . S
C967 C968 1.383 . S
C967 H975 0.929 . S
C968 C967 1.383 . S
C968 C969 1.377 . S
C969 H953 0.930 . S
C969 C968 1.377 . S
C969 C970 1.379 . S
C970 H954 0.931 . S
C970 C964 1.383 . S
C970 C969 1.379 . S
H971 C965 0.959 . S
H972 C965 0.961 . S
H973 C965 0.960 . S
H974 C966 0.930 . S
H975 C967 0.929 . S
H976 C984 0.929 . S
H977 C986 0.930 . S
H978 C988 0.930 . S
H979 C991 0.929 . S
H980 C994 0.930 . S
H981 C996 0.960 . S
H982 C996 0.960 . S
H983 C996 0.960 . S
C984 H976 0.929 . S
C984 C985 1.347 1_455 S
C984 C986 1.384 . S
C985 C984 1.347 1_655 S
C985 C991 1.421 . S
C986 H977 0.930 . S
C986 C984 1.384 . S
C986 C987 1.372 1_455 S
C987 C986 1.372 1_655 S
C987 C988 1.400 . S
C987 C992 1.490 . S
C988 H978 0.930 . S
C988 C987 1.400 . S
C988 C991 1.386 . S
H989 C1005 0.930 . S
H990 C1006 0.931 . S
C991 H979 0.929 . S
C991 C985 1.421 . S
C991 C988 1.386 . S
C992 C987 1.490 . S
C992 C994 1.395 1_655 S
C992 C995 1.403 . S
H993 C999 0.930 . S
C994 H980 0.930 . S
C994 C992 1.395 1_455 S
C994 C997 1.403 . S
C995 C992 1.403 . S
C995 C996 1.524 . S
C995 C999 1.400 . S
C996 H981 0.960 . S
C996 H982 0.960 . S
C996 H983 0.960 . S
C996 C995 1.524 . S
C997 C994 1.403 . S
C997 C998 1.392 1_455 S
C997 C1001 1.495 . S
C998 C997 1.392 1_655 S
C998 C999 1.385 . S
C998 C1000 1.478 . S
C999 H993 0.930 . S
C999 C995 1.400 . S
C999 C998 1.385 . S
C1000 C998 1.478 . S
C1000 C1002 1.381 1_655 S
C1000 C1006 1.383 . S
C1001 C997 1.495 . S
C1001 H1007 0.959 . S
C1001 H1008 0.936 1_455 S
C1001 H1009 0.960 . S
C1002 C1000 1.381 1_455 S
C1002 C1003 1.394 . S
C1002 H1010 0.930 . S
C1003 C1002 1.394 . S
C1003 C1004 1.383 1_455 S
C1003 H1011 0.929 . S
C1004 C1003 1.383 1_655 S
C1004 C1005 1.377 . S
C1005 H989 0.930 . S
C1005 C1004 1.377 . S
C1005 C1006 1.379 . S
C1006 H990 0.931 . S
C1006 C1000 1.383 . S
C1006 C1005 1.379 . S
H1007 C1001 0.959 . S
H1008 C1001 0.936 1_655 S
H1009 C1001 0.960 . S
H1010 C1002 0.930 . S
H1011 C1003 0.929 . S
H1012 C1020 0.929 . S
H1013 C1022 0.930 . S
H1014 C1024 0.930 . S
H1015 C1027 0.929 . S
H1016 C1030 0.930 . S
H1017 C1032 0.960 . S
H1018 C1032 0.960 . S
H1019 C1032 0.942 1_545 S
C1020 H1012 0.929 . S
C1020 C1021 1.420 . S
C1020 C1022 1.384 . S
C1021 C1020 1.420 . S
C1021 C1027 1.352 1_565 S
C1022 H1013 0.930 . S
C1022 C1020 1.384 . S
C1022 C1023 1.372 . S
C1023 C1022 1.372 . S
C1023 C1024 1.400 1_565 S
C1023 C1028 1.490 . S
C1024 H1014 0.930 . S
C1024 C1023 1.400 1_545 S
C1024 C1027 1.386 . S
H1025 C1041 0.930 . S
H1026 C1042 0.931 . S
C1027 H1015 0.929 . S
C1027 C1021 1.352 1_545 S
C1027 C1024 1.386 . S
C1028 C1023 1.490 . S
C1028 C1030 1.395 . S
C1028 C1031 1.403 . S
H1029 C1035 0.930 . S
C1030 H1016 0.930 . S
C1030 C1028 1.395 . S
C1030 C1033 1.403 . S
C1031 C1028 1.403 . S
C1031 C1032 1.524 . S
C1031 C1035 1.400 . S
C1032 H1017 0.960 . S
C1032 H1018 0.960 . S
C1032 H1019 0.942 1_565 S
C1032 C1031 1.524 . S
C1033 C1030 1.403 . S
C1033 C1034 1.392 . S
C1033 C1037 1.490 1_565 S
C1034 C1033 1.392 . S
C1034 C1035 1.385 . S
C1034 C1036 1.478 . S
C1035 H1029 0.930 . S
C1035 C1031 1.400 . S
C1035 C1034 1.385 . S
C1036 C1034 1.478 . S
C1036 C1038 1.381 . S
C1036 C1042 1.383 1_565 S
C1037 C1033 1.490 1_545 S
C1037 H1043 0.965 . S
C1037 H1044 0.997 . S
C1037 H1045 0.925 1_545 S
C1038 C1036 1.381 . S
C1038 C1039 1.394 . S
C1038 H1046 0.930 . S
C1039 C1038 1.394 . S
C1039 C1040 1.383 . S
C1039 H1047 0.929 . S
C1040 C1039 1.383 . S
C1040 C1041 1.377 1_565 S
C1041 H1025 0.930 . S
C1041 C1040 1.377 1_545 S
C1041 C1042 1.379 . S
C1042 H1026 0.931 . S
C1042 C1036 1.383 1_545 S
C1042 C1041 1.379 . S
H1043 C1037 0.965 . S
H1044 C1037 0.997 . S
H1045 C1037 0.925 1_565 S
H1046 C1038 0.930 . S
H1047 C1039 0.929 . S
H1048 C1056 0.929 . S
H1049 C1058 0.930 . S
H1050 C1060 0.930 . S
H1051 C1063 0.929 . S
H1052 C1066 0.930 . S
H1053 C1068 0.960 . S
H1054 C1068 0.960 . S
H1055 C1068 0.960 . S
C1056 H1048 0.929 . S
C1056 C1057 1.377 . S
C1056 C1058 1.384 . S
C1057 C1056 1.377 . S
C1057 C1063 1.390 . S
C1058 H1049 0.930 . S
C1058 C1056 1.384 . S
C1058 C1059 1.372 . S
C1059 C1058 1.372 . S
C1059 C1060 1.400 . S
C1059 C1064 1.490 . S
C1060 H1050 0.930 . S
C1060 C1059 1.400 . S
C1060 C1063 1.386 . S
H1061 C1077 0.930 . S
H1062 C1078 0.931 . S
C1063 H1051 0.929 . S
C1063 C1057 1.390 . S
C1063 C1060 1.386 . S
C1064 C1059 1.490 . S
C1064 C1066 1.395 . S
C1064 C1067 1.403 . S
H1065 C1071 0.930 . S
C1066 H1052 0.930 . S
C1066 C1064 1.395 . S
C1066 C1069 1.403 . S
C1067 C1064 1.403 . S
C1067 C1068 1.524 . S
C1067 C1071 1.400 . S
C1068 H1053 0.960 . S
C1068 H1054 0.960 . S
C1068 H1055 0.960 . S
C1068 C1067 1.524 . S
C1069 C1066 1.403 . S
C1069 C1070 1.392 . S
C1069 C1073 1.495 . S
C1070 C1069 1.392 . S
C1070 C1071 1.385 . S
C1070 C1072 1.478 . S
C1071 H1065 0.930 . S
C1071 C1067 1.400 . S
C1071 C1070 1.385 . S
C1072 C1070 1.478 . S
C1072 C1074 1.381 . S
C1072 C1078 1.383 . S
C1073 C1069 1.495 . S
C1073 H1079 0.959 . S
C1073 H1080 0.961 . S
C1073 H1081 0.960 . S
C1074 C1072 1.381 . S
C1074 C1075 1.394 . S
C1074 H1082 0.930 . S
C1075 C1074 1.394 . S
C1075 C1076 1.383 . S
C1075 H1083 0.929 . S
C1076 C1075 1.383 . S
C1076 C1077 1.377 . S
C1077 H1061 0.930 . S
C1077 C1076 1.377 . S
C1077 C1078 1.379 . S
C1078 H1062 0.931 . S
C1078 C1072 1.383 . S
C1078 C1077 1.379 . S
H1079 C1073 0.959 . S
H1080 C1073 0.961 . S
H1081 C1073 0.960 . S
H1082 C1074 0.930 . S
H1083 C1075 0.929 . S
H1084 C1092 0.929 . S
H1085 C1094 0.930 . S
H1086 C1096 0.930 . S
H1087 C1099 0.929 . S
H1088 C1102 0.930 . S
H1089 C1104 0.960 . S
H1090 C1104 0.960 . S
H1091 C1104 0.960 . S
C1092 H1084 0.929 . S
C1092 C1093 1.377 . S
C1092 C1094 1.384 . S
C1093 C1092 1.377 . S
C1093 C1099 1.390 . S
C1094 H1085 0.930 . S
C1094 C1092 1.384 . S
C1094 C1095 1.372 . S
C1095 C1094 1.372 . S
C1095 C1096 1.400 . S
C1095 C1100 1.490 . S
C1096 H1086 0.930 . S
C1096 C1095 1.400 . S
C1096 C1099 1.386 . S
H1097 C1113 0.930 . S
H1098 C1114 0.931 . S
C1099 H1087 0.929 . S
C1099 C1093 1.390 . S
C1099 C1096 1.386 . S
C1100 C1095 1.490 . S
C1100 C1102 1.395 . S
C1100 C1103 1.403 . S
H1101 C1107 0.930 . S
C1102 H1088 0.930 . S
C1102 C1100 1.395 . S
C1102 C1105 1.403 . S
C1103 C1100 1.403 . S
C1103 C1104 1.524 . S
C1103 C1107 1.400 . S
C1104 H1089 0.960 . S
C1104 H1090 0.960 . S
C1104 H1091 0.960 . S
C1104 C1103 1.524 . S
C1105 C1102 1.403 . S
C1105 C1106 1.392 . S
C1105 C1109 1.495 . S
C1106 C1105 1.392 . S
C1106 C1107 1.385 . S
C1106 C1108 1.478 . S
C1107 H1101 0.930 . S
C1107 C1103 1.400 . S
C1107 C1106 1.385 . S
C1108 C1106 1.478 . S
C1108 C1110 1.381 . S
C1108 C1114 1.383 . S
C1109 C1105 1.495 . S
C1109 H1115 0.959 . S
C1109 H1116 0.961 . S
C1109 H1117 0.960 . S
C1110 C1108 1.381 . S
C1110 C1111 1.394 . S
C1110 H1118 0.930 . S
C1111 C1110 1.394 . S
C1111 C1112 1.383 . S
C1111 H1119 0.929 . S
C1112 C1111 1.383 . S
C1112 C1113 1.377 . S
C1113 H1097 0.930 . S
C1113 C1112 1.377 . S
C1113 C1114 1.379 . S
C1114 H1098 0.931 . S
C1114 C1108 1.383 . S
C1114 C1113 1.379 . S
H1115 C1109 0.959 . S
H1116 C1109 0.961 . S
H1117 C1109 0.960 . S
H1118 C1110 0.930 . S
H1119 C1111 0.929 . S
C265 C76 1.722 1_545 S
C284 C105 1.827 1_545 S
C320 C145 1.823 . S
C301 C88 1.733 . S
C356 C185 1.825 . S
C337 C52 1.746 . S
C392 C225 1.815 1_455 S
C373 C64 1.734 . S
C428 C114 1.833 1_565 S
C409 C28 1.730 1_545 S
C445 C40 1.729 . S
C464 C154 1.840 . S
C481 C4 1.732 . S
C500 C194 1.837 . S
C517 C16 1.726 . S
C536 C234 1.830 . S
C572 C111 0.343 . S
C553 C69 0.372 . S
C608 C151 0.348 . S
C589 C81 0.378 . S
C644 C191 0.304 . S
C625 C93 0.364 . S
C661 C57 0.364 . S
C680 C231 0.321 . S
C697 C21 0.356 1_655 S
C716 C102 0.371 . S
C752 C142 0.310 . S
C733 C33 0.365 1_565 S
C788 C182 0.328 . S
C769 C45 0.375 . S
C805 C9 0.368 . S
C824 C222 0.326 . S
C841 C66 1.915 . S
C860 C115 2.094 . S
C877 C78 1.894 . S
C896 C155 2.081 . S
C932 C195 2.047 . S
C913 C90 1.871 . S
C968 C235 2.072 . S
C949 C54 1.886 . S
C985 C18 1.915 1_655 S
C1004 C106 2.093 . S
C1040 C146 2.067 . S
C1021 C30 1.887 1_565 S
C1076 C186 2.059 . S
C1057 C42 1.883 . S
C1093 C6 1.902 . S
C1112 C226 2.087 . S
