# Generated by pormake.
# Topology nom, (4,4)-cn, num edge types: 1
# Building blocks:
#     Node 0, Type 0, BuildingBlock: MIFKUJ_clean_linker_1, # of connection points: 4
#     Node 1, Type 0, BuildingBlock: MIFKUJ_clean_linker_1, # of connection points: 4
#     Node 2, Type 0, BuildingBlock: MIFKUJ_clean_linker_1, # of connection points: 4
#     Node 3, Type 0, BuildingBlock: MIFKUJ_clean_linker_1, # of connection points: 4
#     Node 4, Type 0, BuildingBlock: MIFKUJ_clean_linker_1, # of connection points: 4
#     Node 5, Type 0, BuildingBlock: MIFKUJ_clean_linker_1, # of connection points: 4
#     Node 6, Type 1, BuildingBlock: TATPOV_clean_sbu_0, # of connection points: 4
#     Node 7, Type 1, BuildingBlock: TATPOV_clean_sbu_0, # of connection points: 4
#     Node 8, Type 1, BuildingBlock: TATPOV_clean_sbu_0, # of connection points: 4
#     Node 9, Type 1, BuildingBlock: TATPOV_clean_sbu_0, # of connection points: 4
#     Node 10, Type 1, BuildingBlock: TATPOV_clean_sbu_0, # of connection points: 4
#     Node 11, Type 1, BuildingBlock: TATPOV_clean_sbu_0, # of connection points: 4
#     Edge 12, Type (0, 1), BuildingBlock: KIFKEQ_clean_linker_1, # of connection points: 2
#     Edge 13, Type (0, 1), BuildingBlock: KIFKEQ_clean_linker_1, # of connection points: 2
#     Edge 14, Type (0, 1), BuildingBlock: KIFKEQ_clean_linker_1, # of connection points: 2
#     Edge 15, Type (0, 1), BuildingBlock: KIFKEQ_clean_linker_1, # of connection points: 2
#     Edge 16, Type (0, 1), BuildingBlock: KIFKEQ_clean_linker_1, # of connection points: 2
#     Edge 17, Type (0, 1), BuildingBlock: KIFKEQ_clean_linker_1, # of connection points: 2
#     Edge 18, Type (0, 1), BuildingBlock: KIFKEQ_clean_linker_1, # of connection points: 2
#     Edge 19, Type (0, 1), BuildingBlock: KIFKEQ_clean_linker_1, # of connection points: 2
#     Edge 20, Type (0, 1), BuildingBlock: KIFKEQ_clean_linker_1, # of connection points: 2
#     Edge 21, Type (0, 1), BuildingBlock: KIFKEQ_clean_linker_1, # of connection points: 2
#     Edge 22, Type (0, 1), BuildingBlock: KIFKEQ_clean_linker_1, # of connection points: 2
#     Edge 23, Type (0, 1), BuildingBlock: KIFKEQ_clean_linker_1, # of connection points: 2
#     Edge 24, Type (0, 1), BuildingBlock: KIFKEQ_clean_linker_1, # of connection points: 2
#     Edge 25, Type (0, 1), BuildingBlock: KIFKEQ_clean_linker_1, # of connection points: 2
#     Edge 26, Type (0, 1), BuildingBlock: KIFKEQ_clean_linker_1, # of connection points: 2
#     Edge 27, Type (0, 1), BuildingBlock: KIFKEQ_clean_linker_1, # of connection points: 2
#     Edge 28, Type (0, 1), BuildingBlock: KIFKEQ_clean_linker_1, # of connection points: 2
#     Edge 29, Type (0, 1), BuildingBlock: KIFKEQ_clean_linker_1, # of connection points: 2
#     Edge 30, Type (0, 1), BuildingBlock: KIFKEQ_clean_linker_1, # of connection points: 2
#     Edge 31, Type (0, 1), BuildingBlock: KIFKEQ_clean_linker_1, # of connection points: 2
#     Edge 32, Type (0, 1), BuildingBlock: KIFKEQ_clean_linker_1, # of connection points: 2
#     Edge 33, Type (0, 1), BuildingBlock: KIFKEQ_clean_linker_1, # of connection points: 2
#     Edge 34, Type (0, 1), BuildingBlock: KIFKEQ_clean_linker_1, # of connection points: 2
#     Edge 35, Type (0, 1), BuildingBlock: KIFKEQ_clean_linker_1, # of connection points: 2
# Relax obj value: 0.019
# Max RMSD: 0.115
# Mean RMSD: 0.104
data_MOF--net-nom--node1-TATPOV_clean_sbu_0--node2-MIFKUJ_clean_linker_1--edge1-KIFKEQ_clean_linker_1
_symmetry_space_group_name_H-M    P1
_symmetry_Int_Tables_number       1
_symmetry_cell_setting            triclinic
loop_
_symmetry_equiv_pos_as_xyz
'x, y, z'
_cell_length_a     53.573642
_cell_length_b     54.273373
_cell_length_c     56.765771
_cell_angle_alpha  90.672952
_cell_angle_beta   90.600845
_cell_angle_gamma 120.0006
loop_
_atom_site_label
_atom_site_type_symbol
_atom_site_fract_x
_atom_site_fract_y
_atom_site_fract_z
_atom_type_partial_charge
H0 H 0.9748 0.42159 0.27645 0.0
H1 H 0.93732 0.40698 0.24574 0.0
H2 H 0.92198 0.47455 0.26848 0.0
H3 H 0.95867 0.48823 0.29947 0.0
H4 H 0.0258 0.48027 0.28358 0.0
H5 H 0.93504 0.41196 0.32437 0.0
H6 H 0.88688 0.39767 0.33942 0.0
H7 H 0.92166 0.47906 0.37558 0.0
H8 H 0.96917 0.49311 0.36061 0.0
H9 H 0.03878 0.5228 0.37814 0.0
H10 H 0.07286 0.54296 0.41106 0.0
H11 H 0.11943 0.50285 0.38459 0.0
H12 H 0.0847 0.48222 0.35136 0.0
H13 H 0.00248 0.47119 0.3684 0.0
H14 H 0.08001 0.54569 0.33224 0.0
H15 H 0.12802 0.57786 0.3177 0.0
H16 H 0.12119 0.51172 0.27056 0.0
H17 H 0.07336 0.4788 0.28605 0.0
C18 C 0.96926 0.45578 0.2903 0.0
C19 C 0.96319 0.43309 0.2748 0.0
C20 C 0.94185 0.42488 0.25721 0.0
C21 C 0.92644 0.43947 0.25464 0.0
C22 C 0.93285 0.46236 0.2702 0.0
C23 C 0.95399 0.47039 0.28786 0.0
C24 C 0.99186 0.4646 0.30888 0.0
C25 C 0.02085 0.47773 0.30218 0.0
C26 C 0.98526 0.46291 0.33303 0.0
C27 C 0.95575 0.45357 0.34144 0.0
C28 C 0.93217 0.4267 0.33546 0.0
C29 C 0.90472 0.41856 0.34408 0.0
C30 C 0.90058 0.43709 0.35897 0.0
C31 C 0.92423 0.46401 0.36465 0.0
C32 C 0.95142 0.47212 0.35601 0.0
C33 C 0.05892 0.50068 0.3624 0.0
C34 C 0.05618 0.51812 0.3794 0.0
C35 C 0.07568 0.52962 0.39825 0.0
C36 C 0.0985 0.52405 0.4006 0.0
C37 C 0.10196 0.50739 0.3832 0.0
C38 C 0.08218 0.49564 0.36426 0.0
C39 C 0.0367 0.48742 0.3433 0.0
C40 C 0.0077 0.47316 0.34984 0.0
C41 C 0.04347 0.49036 0.31905 0.0
C42 C 0.07326 0.50944 0.3108 0.0
C43 C 0.08909 0.53765 0.31937 0.0
C44 C 0.11649 0.55615 0.31093 0.0
C45 C 0.12837 0.54715 0.2932 0.0
C46 C 0.11249 0.5191 0.28431 0.0
C47 C 0.08523 0.50034 0.29315 0.0
H48 H 0.45298 0.97935 0.51116 0.0
H49 H 0.41975 0.9312 0.52393 0.0
H50 H 0.47615 0.9027 0.4965 0.0
H51 H 0.50975 0.9514 0.48383 0.0
H52 H 0.50882 0.01518 0.5242 0.0
H53 H 0.45362 0.97352 0.45189 0.0
H54 H 0.43238 0.93707 0.42059 0.0
H55 H 0.51683 0.95041 0.40448 0.0
H56 H 0.53804 0.9871 0.43591 0.0
H57 H 0.57973 0.08678 0.44649 0.0
H58 H 0.59616 0.13446 0.43139 0.0
H59 H 0.52972 0.13891 0.47061 0.0
H60 H 0.51256 0.09093 0.48446 0.0
H61 H 0.52936 0.03884 0.4399 0.0
H62 H 0.58254 0.09322 0.51071 0.0
H63 H 0.59591 0.12805 0.5433 0.0
H64 H 0.50649 0.0885 0.56279 0.0
H65 H 0.49334 0.05409 0.53037 0.0
C66 C 0.48378 0.96893 0.4965 0.0
C67 C 0.45829 0.96279 0.50795 0.0
C68 C 0.43922 0.93523 0.51508 0.0
C69 C 0.44528 0.91317 0.51106 0.0
C70 C 0.47102 0.91934 0.49987 0.0
C71 C 0.49009 0.94704 0.49253 0.0
C72 C 0.50338 0.99841 0.48885 0.0
C73 C 0.51354 0.02042 0.50579 0.0
C74 C 0.50991 0.00513 0.46492 0.0
C75 C 0.49734 0.98287 0.44618 0.0
C76 C 0.46753 0.96852 0.44165 0.0
C77 C 0.45547 0.94782 0.42374 0.0
C78 C 0.47299 0.94098 0.4101 0.0
C79 C 0.50284 0.95516 0.41485 0.0
C80 C 0.51497 0.97616 0.43264 0.0
C81 C 0.54527 0.08542 0.46699 0.0
C82 C 0.56877 0.09809 0.45182 0.0
C83 C 0.57824 0.12544 0.44334 0.0
C84 C 0.5643 0.14063 0.44979 0.0
C85 C 0.54078 0.1278 0.465 0.0
C86 C 0.53123 0.10046 0.4733 0.0
C87 C 0.53418 0.05591 0.47527 0.0
C88 C 0.5257 0.03379 0.45843 0.0
C89 C 0.52862 0.04905 0.49934 0.0
C90 C 0.53696 0.07108 0.51817 0.0
C91 C 0.56586 0.09229 0.52192 0.0
C92 C 0.57347 0.11203 0.54056 0.0
C93 C 0.55222 0.11103 0.55551 0.0
C94 C 0.52329 0.09005 0.55139 0.0
C95 C 0.51577 0.07023 0.533 0.0
H96 H 0.51951 0.56896 0.70073 0.0
H97 H 0.50203 0.58837 0.73127 0.0
H98 H 0.41464 0.52138 0.71572 0.0
H99 H 0.43238 0.50307 0.6845 0.0
H100 H 0.50623 0.50802 0.69922 0.0
H101 H 0.49135 0.57683 0.6534 0.0
H102 H 0.4593 0.59419 0.64046 0.0
H103 H 0.40042 0.51115 0.61023 0.0
H104 H 0.43282 0.49417 0.6229 0.0
H105 H 0.48712 0.46767 0.59944 0.0
H106 H 0.51108 0.45449 0.5697 0.0
H107 H 0.58992 0.49606 0.61159 0.0
H108 H 0.56662 0.51133 0.63999 0.0
H109 H 0.49124 0.51317 0.61345 0.0
H110 H 0.50044 0.4431 0.65156 0.0
H111 H 0.51995 0.41457 0.66767 0.0
H112 H 0.57354 0.48296 0.71646 0.0
H113 H 0.55495 0.51216 0.69959 0.0
C114 C 0.4772 0.53468 0.69041 0.0
C115 C 0.49657 0.55868 0.70384 0.0
C116 C 0.48652 0.56961 0.72139 0.0
C117 C 0.45689 0.55641 0.72613 0.0
C118 C 0.43753 0.53246 0.71236 0.0
C119 C 0.4476 0.52178 0.69461 0.0
C120 C 0.48819 0.52259 0.67258 0.0
C121 C 0.50354 0.50952 0.68042 0.0
C122 C 0.4827 0.52289 0.64824 0.0
C123 C 0.46435 0.53415 0.63925 0.0
C124 C 0.47156 0.56242 0.64394 0.0
C125 C 0.45314 0.57226 0.63661 0.0
C126 C 0.42716 0.55403 0.6244 0.0
C127 C 0.42038 0.52589 0.61931 0.0
C128 C 0.43884 0.51611 0.6266 0.0
C129 C 0.52492 0.49037 0.62214 0.0
C130 C 0.50966 0.47418 0.6021 0.0
C131 C 0.52333 0.46625 0.58523 0.0
C132 C 0.55254 0.47409 0.58813 0.0
C133 C 0.5676 0.48997 0.60842 0.0
C134 C 0.55411 0.49839 0.62497 0.0
C135 C 0.51066 0.4994 0.63992 0.0
C136 C 0.49439 0.5117 0.63217 0.0
C137 C 0.51409 0.49709 0.66449 0.0
C138 C 0.52654 0.48004 0.67404 0.0
C139 C 0.51688 0.45232 0.66533 0.0
C140 C 0.52795 0.43596 0.67459 0.0
C141 C 0.54835 0.44669 0.69317 0.0
C142 C 0.55781 0.47425 0.70213 0.0
C143 C 0.54714 0.49087 0.69253 0.0
H144 H 0.02393 0.54797 0.76734 0.0
H145 H 0.06111 0.57152 0.73807 0.0
H146 H 0.10324 0.526 0.76243 0.0
H147 H 0.06607 0.50295 0.79221 0.0
H148 H 0.98607 0.48987 0.77294 0.0
H149 H 0.06721 0.56873 0.81598 0.0
H150 H 0.11606 0.59496 0.83337 0.0
H151 H 0.09904 0.52076 0.87282 0.0
H152 H 0.05089 0.49453 0.85508 0.0
H153 H 0.97025 0.45358 0.87129 0.0
H154 H 0.93539 0.43992 0.90277 0.0
H155 H 0.89083 0.47521 0.86429 0.0
H156 H 0.92675 0.49025 0.83354 0.0
H157 H 0.0076 0.50386 0.8588 0.0
H158 H 0.93271 0.42401 0.81875 0.0
H159 H 0.88323 0.39231 0.80499 0.0
H160 H 0.88764 0.45909 0.76144 0.0
H161 H 0.93726 0.49078 0.7753 0.0
C162 C 0.04226 0.52377 0.78195 0.0
C163 C 0.04114 0.54301 0.76633 0.0
C164 C 0.06238 0.55635 0.74953 0.0
C165 C 0.08509 0.55049 0.74772 0.0
C166 C 0.08623 0.53122 0.76347 0.0
C167 C 0.06496 0.51794 0.78042 0.0
C168 C 0.01945 0.50993 0.79968 0.0
C169 C 0.99074 0.49308 0.79173 0.0
C170 C 0.02567 0.5132 0.82417 0.0
C171 C 0.05546 0.52953 0.83404 0.0
C172 C 0.07416 0.55803 0.82814 0.0
C173 C 0.10195 0.57305 0.83817 0.0
C174 C 0.11114 0.55996 0.85462 0.0
C175 C 0.09233 0.53154 0.86053 0.0
C176 C 0.06485 0.51649 0.85031 0.0
C177 C 0.95115 0.4729 0.84998 0.0
C178 C 0.95289 0.45826 0.86959 0.0
C179 C 0.93271 0.45018 0.88748 0.0
C180 C 0.91027 0.4565 0.88614 0.0
C181 C 0.90804 0.47034 0.86608 0.0
C182 C 0.92838 0.47865 0.8483 0.0
C183 C 0.97421 0.48387 0.83214 0.0
C184 C 0.00291 0.50037 0.84002 0.0
C185 C 0.96811 0.47948 0.80764 0.0
C186 C 0.93855 0.45991 0.79832 0.0
C187 C 0.923 0.43187 0.8063 0.0
C188 C 0.89471 0.41378 0.79844 0.0
C189 C 0.88144 0.42327 0.78227 0.0
C190 C 0.89734 0.45109 0.77376 0.0
C191 C 0.92566 0.46924 0.7817 0.0
H192 H 0.60261 0.06343 0.029 0.0
H193 H 0.62994 0.11241 0.04414 0.0
H194 H 0.56595 0.1297 0.01402 0.0
H195 H 0.53819 0.08038 0.99979 0.0
H196 H 0.54659 0.02078 0.03805 0.0
H197 H 0.59923 0.07605 0.96715 0.0
H198 H 0.60991 0.11337 0.9383 0.0
H199 H 0.51877 0.0765 0.92338 0.0
H200 H 0.50831 0.03961 0.95212 0.0
H201 H 0.47626 0.95574 0.95561 0.0
H202 H 0.45413 0.90736 0.93908 0.0
H203 H 0.51308 0.89227 0.9806 0.0
H204 H 0.53575 0.94088 0.99636 0.0
H205 H 0.52691 0.99956 0.9524 0.0
H206 H 0.46915 0.95216 0.01534 0.0
H207 H 0.44418 0.91619 0.04513 0.0
H208 H 0.52604 0.93666 0.07694 0.0
H209 H 0.5511 0.97293 0.04699 0.0
C210 C 0.56859 0.06835 0.01297 0.0
C211 C 0.59441 0.07775 0.0258 0.0
C212 C 0.61012 0.10584 0.03427 0.0
C213 C 0.60028 0.1251 0.03015 0.0
C214 C 0.57407 0.11542 0.01768 0.0
C215 C 0.55832 0.08729 0.00929 0.0
C216 C 0.55254 0.03871 0.00348 0.0
C217 C 0.54282 0.01614 0.01928 0.0
C218 C 0.54588 0.03257 0.97917 0.0
C219 C 0.55298 0.05517 0.96178 0.0
C220 C 0.58163 0.07615 0.95767 0.0
C221 C 0.58768 0.09733 0.94118 0.0
C222 C 0.56515 0.09794 0.92875 0.0
C223 C 0.53655 0.07685 0.93295 0.0
C224 C 0.53056 0.05562 0.9492 0.0
C225 C 0.50756 0.95194 0.97736 0.0
C226 C 0.48447 0.94203 0.96108 0.0
C227 C 0.47169 0.91429 0.95179 0.0
C228 C 0.48184 0.89593 0.9585 0.0
C229 C 0.50495 0.90593 0.97482 0.0
C230 C 0.51771 0.93364 0.98408 0.0
C231 C 0.52167 0.98161 0.98688 0.0
C232 C 0.53104 0.00414 0.97115 0.0
C233 C 0.52657 0.98772 0.01134 0.0
C234 C 0.51198 0.9651 0.0289 0.0
C235 C 0.48177 0.94874 0.02858 0.0
C236 C 0.46752 0.92833 0.04566 0.0
C237 C 0.4832 0.92372 0.06332 0.0
C238 C 0.51349 0.9397 0.0634 0.0
C239 C 0.52778 0.96046 0.04643 0.0
H240 H 0.4933 0.46972 0.21272 0.0
H241 H 0.51391 0.45303 0.24277 0.0
H242 H 0.59557 0.49456 0.20724 0.0
H243 H 0.57548 0.51309 0.17853 0.0
H244 H 0.50674 0.52213 0.20381 0.0
H245 H 0.5111 0.44747 0.15747 0.0
H246 H 0.53694 0.42476 0.14092 0.0
H247 H 0.59319 0.5022 0.10454 0.0
H248 H 0.56756 0.52463 0.12108 0.0
H249 H 0.53108 0.573 0.11392 0.0
H250 H 0.51254 0.59275 0.08467 0.0
H251 H 0.42585 0.53661 0.10838 0.0
H252 H 0.44494 0.51838 0.13842 0.0
H253 H 0.51447 0.51421 0.11738 0.0
H254 H 0.51886 0.59013 0.16184 0.0
H255 H 0.50192 0.62073 0.17818 0.0
H256 H 0.43935 0.55067 0.21902 0.0
H257 H 0.4556 0.51972 0.20164 0.0
C258 C 0.53269 0.49245 0.19318 0.0
C259 C 0.51565 0.47521 0.21143 0.0
C260 C 0.52741 0.46535 0.22846 0.0
C261 C 0.55648 0.47238 0.22753 0.0
C262 C 0.57325 0.48904 0.20882 0.0
C263 C 0.56164 0.49933 0.19209 0.0
C264 C 0.52061 0.50444 0.17606 0.0
C265 C 0.50787 0.51982 0.1849 0.0
C266 C 0.52324 0.50258 0.15136 0.0
C267 C 0.53752 0.48783 0.14064 0.0
C268 C 0.52898 0.45948 0.14589 0.0
C269 C 0.54373 0.44654 0.13643 0.0
C270 C 0.56702 0.46163 0.12132 0.0
C271 C 0.57502 0.48977 0.11575 0.0
C272 C 0.56043 0.50269 0.12527 0.0
C273 C 0.48935 0.54428 0.12826 0.0
C274 C 0.50811 0.56524 0.11289 0.0
C275 C 0.49741 0.57635 0.09607 0.0
C276 C 0.46759 0.5662 0.09392 0.0
C277 C 0.44895 0.54541 0.10969 0.0
C278 C 0.45976 0.53473 0.12679 0.0
C279 C 0.50054 0.53149 0.1452 0.0
C280 C 0.51295 0.51599 0.13631 0.0
C281 C 0.49834 0.53385 0.1698 0.0
C282 C 0.48812 0.55245 0.18014 0.0
C283 C 0.5012 0.58121 0.17404 0.0
C284 C 0.49176 0.59883 0.1837 0.0
C285 C 0.46925 0.58821 0.19996 0.0
C286 C 0.45645 0.55946 0.20631 0.0
C287 C 0.46585 0.54178 0.19652 0.0
Zn288 Zn 0.68586 0.45752 0.41053 0.0
Zn289 Zn 0.6516 0.40124 0.41013 0.0
O290 O 0.69315 0.40832 0.40719 0.0
O291 O 0.72181 0.45471 0.40911 0.0
O292 O 0.62875 0.35832 0.41241 0.0
O293 O 0.67025 0.46138 0.44134 0.0
O294 O 0.64134 0.41496 0.44104 0.0
C295 C 0.71843 0.42997 0.40715 0.0
C296 C 0.64491 0.43557 0.37111 0.0
O297 O 0.63665 0.4113 0.3801 0.0
O298 O 0.66535 0.45784 0.38072 0.0
C299 C 0.63548 0.34284 0.40009 0.0
O300 O 0.6559 0.35493 0.38451 0.0
C301 C 0.65044 0.43937 0.45079 0.0
Zn302 Zn 0.23247 0.68295 0.57415 0.0
Zn303 Zn 0.26486 0.65924 0.57868 0.0
O304 O 0.29365 0.70185 0.57242 0.0
O305 O 0.26664 0.72173 0.57008 0.0
O306 O 0.29185 0.644 0.5844 0.0
O307 O 0.21546 0.67005 0.6059 0.0
O308 O 0.24096 0.64868 0.60938 0.0
C309 C 0.29124 0.72385 0.56952 0.0
C310 C 0.22039 0.63932 0.53865 0.0
O311 O 0.24037 0.63732 0.54929 0.0
O312 O 0.21334 0.65715 0.54588 0.0
C313 C 0.28506 0.61813 0.58132 0.0
O314 O 0.25895 0.59964 0.57364 0.0
C315 C 0.22241 0.65458 0.61755 0.0
Zn316 Zn 0.55368 0.22962 0.75012 0.0
Zn317 Zn 0.61172 0.25694 0.74938 0.0
O318 O 0.60191 0.28902 0.7476 0.0
O319 O 0.55468 0.26736 0.75036 0.0
O320 O 0.6551 0.27818 0.75119 0.0
O321 O 0.55383 0.21109 0.78065 0.0
O322 O 0.6012 0.23374 0.77987 0.0
C323 C 0.57868 0.29003 0.74841 0.0
C324 C 0.57718 0.21602 0.70908 0.0
O325 O 0.60148 0.2331 0.71881 0.0
O326 O 0.55403 0.21115 0.71889 0.0
C327 C 0.67047 0.30025 0.73926 0.0
O328 O 0.65782 0.30916 0.72444 0.0
C329 C 0.57774 0.21663 0.78988 0.0
Zn330 Zn 0.33789 0.57428 0.91133 0.0
Zn331 Zn 0.37024 0.63143 0.91059 0.0
O332 O 0.32818 0.62324 0.90793 0.0
O333 O 0.3018 0.5767 0.91082 0.0
O334 O 0.39356 0.67432 0.91318 0.0
O335 O 0.35545 0.57325 0.94253 0.0
O336 O 0.38218 0.61992 0.94142 0.0
C337 C 0.30358 0.6007 0.90865 0.0
C338 C 0.3755 0.59615 0.87093 0.0
O339 O 0.3839 0.62044 0.8806 0.0
O340 O 0.35627 0.57373 0.88045 0.0
C341 C 0.3863 0.69069 0.90313 0.0
O342 O 0.36338 0.67959 0.88919 0.0
C343 C 0.37457 0.59655 0.95176 0.0
Zn344 Zn 0.78709 0.44901 0.07872 0.0
Zn345 Zn 0.75855 0.39224 0.07392 0.0
O346 O 0.72607 0.40196 0.0781 0.0
O347 O 0.74945 0.44881 0.07887 0.0
O348 O 0.7368 0.34972 0.06821 0.0
O349 O 0.80731 0.45291 0.04809 0.0
O350 O 0.78191 0.40639 0.04345 0.0
C351 C 0.72595 0.42538 0.07922 0.0
C352 C 0.79985 0.42091 0.11599 0.0
O353 O 0.78332 0.39845 0.10392 0.0
O354 O 0.80423 0.44492 0.10929 0.0
C355 C 0.71577 0.33253 0.08062 0.0
O356 O 0.70801 0.3425 0.09859 0.0
C357 C 0.80051 0.4307 0.03588 0.0
Zn358 Zn 0.33843 0.77761 0.23511 0.0
Zn359 Zn 0.37449 0.75656 0.23863 0.0
O360 O 0.33317 0.7222 0.24124 0.0
O361 O 0.30331 0.73851 0.23623 0.0
O362 O 0.39849 0.73735 0.23816 0.0
O363 O 0.35551 0.79482 0.20379 0.0
O364 O 0.3857 0.77866 0.20762 0.0
C365 C 0.30753 0.71789 0.23976 0.0
C366 C 0.37841 0.79879 0.27591 0.0
O367 O 0.38809 0.78336 0.26757 0.0
O368 O 0.35753 0.79935 0.26567 0.0
C369 C 0.39211 0.71571 0.25061 0.0
O370 O 0.37081 0.70708 0.26545 0.0
C371 C 0.37638 0.79254 0.1961 0.0
H372 H 0.17865 0.58116 0.31723 0.0
H373 H 0.14136 0.55989 0.24702 0.0
H374 H 0.22358 0.61934 0.30147 0.0
H375 H 0.18627 0.59832 0.23124 0.0
H376 H 0.30726 0.67347 0.2623 0.0
H377 H 0.26512 0.62851 0.27327 0.0
H378 H 0.20947 0.65282 0.23746 0.0
H379 H 0.25139 0.69783 0.22676 0.0
C380 C 0.18028 0.58444 0.29839 0.0
C381 C 0.1566 0.5677 0.28332 0.0
C382 C 0.20599 0.60613 0.28937 0.0
C383 C 0.20833 0.61177 0.26515 0.0
C384 C 0.18496 0.59442 0.24998 0.0
C385 C 0.15939 0.5724 0.25897 0.0
C386 C 0.28607 0.66901 0.25645 0.0
C387 C 0.28261 0.68926 0.24381 0.0
C388 C 0.26199 0.64336 0.26282 0.0
C389 C 0.23409 0.63726 0.25623 0.0
C390 C 0.23076 0.65688 0.24259 0.0
C391 C 0.25474 0.68271 0.2366 0.0
H392 H 0.53095 0.16336 0.43593 0.0
H393 H 0.61972 0.18377 0.44297 0.0
H394 H 0.54689 0.21144 0.42262 0.0
H395 H 0.63553 0.23165 0.42914 0.0
H396 H 0.65187 0.30613 0.38244 0.0
H397 H 0.63393 0.25672 0.39303 0.0
H398 H 0.57302 0.26074 0.43986 0.0
H399 H 0.59085 0.31019 0.42923 0.0
C400 C 0.55387 0.17809 0.43476 0.0
C401 C 0.57405 0.16965 0.4407 0.0
C402 C 0.56297 0.20563 0.42705 0.0
C403 C 0.59245 0.22534 0.42486 0.0
C404 C 0.61264 0.21682 0.43037 0.0
C405 C 0.60355 0.18934 0.43826 0.0
C406 C 0.63446 0.29643 0.39483 0.0
C407 C 0.62284 0.31216 0.40504 0.0
C408 C 0.62434 0.26817 0.40101 0.0
C409 C 0.6022 0.2549 0.41738 0.0
C410 C 0.58998 0.27033 0.42707 0.0
C411 C 0.60026 0.29869 0.42104 0.0
H412 H 0.39529 0.54228 0.5834 0.0
H413 H 0.41292 0.58835 0.64976 0.0
H414 H 0.36113 0.55774 0.57259 0.0
H415 H 0.37907 0.60405 0.63878 0.0
H416 H 0.33921 0.65025 0.60051 0.0
H417 H 0.37386 0.63513 0.61026 0.0
H418 H 0.31359 0.55013 0.58475 0.0
H419 H 0.27894 0.56529 0.57474 0.0
C420 C 0.3918 0.55558 0.59574 0.0
C421 C 0.40691 0.56407 0.61745 0.0
C422 C 0.37223 0.56445 0.58952 0.0
C423 C 0.3674 0.58212 0.60482 0.0
C424 C 0.38262 0.59078 0.62645 0.0
C425 C 0.40209 0.58182 0.63272 0.0
C426 C 0.33333 0.62834 0.59691 0.0
C427 C 0.30626 0.60897 0.58686 0.0
C428 C 0.35315 0.61965 0.60263 0.0
C429 C 0.34646 0.59142 0.59834 0.0
C430 C 0.31951 0.57211 0.58806 0.0
C431 C 0.29959 0.58076 0.58245 0.0
H432 H 0.85751 0.41517 0.73792 0.0
H433 H 0.83624 0.38892 0.80995 0.0
H434 H 0.80706 0.38434 0.72605 0.0
H435 H 0.78596 0.35837 0.7982 0.0
H436 H 0.70338 0.2865 0.76719 0.0
H437 H 0.75474 0.31521 0.77621 0.0
H438 H 0.76032 0.38075 0.73042 0.0
H439 H 0.70901 0.35171 0.72093 0.0
C440 C 0.84203 0.40293 0.75122 0.0
C441 C 0.85088 0.4044 0.77485 0.0
C442 C 0.81314 0.38529 0.74444 0.0
C443 C 0.79247 0.36879 0.76115 0.0
C444 C 0.80139 0.37032 0.78477 0.0
C445 C 0.83022 0.38788 0.79153 0.0
C446 C 0.71558 0.30694 0.75889 0.0
C447 C 0.70204 0.31688 0.74344 0.0
C448 C 0.74501 0.32348 0.76418 0.0
C449 C 0.76161 0.35041 0.75421 0.0
C450 C 0.74823 0.36001 0.73824 0.0
C451 C 0.71877 0.34341 0.73289 0.0
H452 H 0.50892 0.86713 0.94389 0.0
H453 H 0.42447 0.85804 0.95054 0.0
H454 H 0.48695 0.81835 0.92871 0.0
H455 H 0.40251 0.80929 0.93528 0.0
H456 H 0.3738 0.73107 0.88795 0.0
H457 H 0.39765 0.78127 0.89963 0.0
H458 H 0.45769 0.77026 0.94338 0.0
H459 H 0.43421 0.72026 0.93145 0.0
C460 C 0.48565 0.85468 0.94223 0.0
C461 C 0.46845 0.86647 0.94855 0.0
C462 C 0.47307 0.82673 0.9335 0.0
C463 C 0.44297 0.8099 0.93082 0.0
C464 C 0.42578 0.82181 0.9368 0.0
C465 C 0.43837 0.84976 0.94556 0.0
C466 C 0.39225 0.73941 0.89989 0.0
C467 C 0.40202 0.7216 0.90881 0.0
C468 C 0.40579 0.76815 0.90671 0.0
C469 C 0.42948 0.77975 0.92253 0.0
C470 C 0.43969 0.76209 0.93097 0.0
C471 C 0.42612 0.73336 0.92421 0.0
H472 H 0.58538 0.42981 0.14518 0.0
H473 H 0.58753 0.46506 0.07689 0.0
H474 H 0.61989 0.41585 0.13193 0.0
H475 H 0.6222 0.45138 0.0638 0.0
H476 H 0.71648 0.46885 0.06928 0.0
H477 H 0.6736 0.47199 0.07684 0.0
H478 H 0.63074 0.38626 0.10287 0.0
H479 H 0.67403 0.38301 0.09517 0.0
C480 C 0.59264 0.43393 0.12717 0.0
C481 C 0.58409 0.44896 0.1122 0.0
C482 C 0.6124 0.42593 0.11959 0.0
C483 C 0.624 0.43287 0.09694 0.0
C484 C 0.61398 0.44619 0.08149 0.0
C485 C 0.59421 0.45409 0.08902 0.0
C486 C 0.69784 0.45051 0.07637 0.0
C487 C 0.69869 0.42574 0.08175 0.0
C488 C 0.67317 0.45224 0.08053 0.0
C489 C 0.64879 0.42935 0.09041 0.0
C490 C 0.64929 0.40425 0.09531 0.0
C491 C 0.67396 0.40236 0.0908 0.0
H492 H 0.3873 0.88453 0.50365 0.0
H493 H 0.45612 0.8759 0.53524 0.0
H494 H 0.35204 0.83855 0.51885 0.0
H495 H 0.42059 0.82966 0.55086 0.0
H496 H 0.34448 0.73487 0.55461 0.0
H497 H 0.38337 0.78008 0.54014 0.0
H498 H 0.33385 0.82056 0.55743 0.0
H499 H 0.29506 0.77567 0.57127 0.0
C500 C 0.39486 0.87275 0.51391 0.0
C501 C 0.42441 0.88394 0.51853 0.0
C502 C 0.37467 0.84645 0.52271 0.0
C503 C 0.38347 0.8307 0.53649 0.0
C504 C 0.41314 0.84129 0.5403 0.0
C505 C 0.43345 0.86771 0.53136 0.0
C506 C 0.34213 0.75355 0.55557 0.0
C507 C 0.31654 0.75161 0.56379 0.0
C508 C 0.36439 0.77942 0.5473 0.0
C509 C 0.36143 0.80376 0.54719 0.0
C510 C 0.33648 0.80204 0.55663 0.0
C511 C 0.3143 0.77631 0.56473 0.0
H512 H 0.549 0.43449 0.73954 0.0
H513 H 0.57039 0.41761 0.67037 0.0
H514 H 0.56087 0.40009 0.7563 0.0
H515 H 0.58251 0.38349 0.68711 0.0
H516 H 0.62069 0.33807 0.72793 0.0
H517 H 0.61796 0.38013 0.71686 0.0
H518 H 0.53509 0.34532 0.74973 0.0
H519 H 0.53754 0.30317 0.76052 0.0
C520 C 0.55679 0.42383 0.72804 0.0
C521 C 0.55868 0.42852 0.70368 0.0
C522 C 0.56344 0.40412 0.73759 0.0
C523 C 0.5726 0.3892 0.72298 0.0
C524 C 0.57577 0.39491 0.69879 0.0
C525 C 0.56865 0.41423 0.68919 0.0
C526 C 0.60215 0.33966 0.73318 0.0
C527 C 0.57921 0.31724 0.74493 0.0
C528 C 0.60056 0.36364 0.72675 0.0
C529 C 0.57628 0.36586 0.73238 0.0
C530 C 0.55414 0.34422 0.74532 0.0
C531 C 0.55548 0.32004 0.75138 0.0
H532 H 0.16236 0.59102 0.83233 0.0
H533 H 0.12602 0.56286 0.90097 0.0
H534 H 0.21063 0.60784 0.84897 0.0
H535 H 0.17417 0.57991 0.91768 0.0
H536 H 0.24993 0.56125 0.92192 0.0
H537 H 0.20465 0.55864 0.91153 0.0
H538 H 0.25074 0.63963 0.87718 0.0
H539 H 0.29657 0.6422 0.88761 0.0
C540 C 0.16482 0.58923 0.85109 0.0
C541 C 0.1405 0.57519 0.8653 0.0
C542 C 0.19244 0.59892 0.86064 0.0
C543 C 0.19612 0.59479 0.88457 0.0
C544 C 0.17194 0.58289 0.8991 0.0
C545 C 0.14441 0.57312 0.88955 0.0
C546 C 0.2505 0.57876 0.9125 0.0
C547 C 0.27677 0.6018 0.9054 0.0
C548 C 0.22452 0.57739 0.9067 0.0
C549 C 0.22411 0.59893 0.8935 0.0
C550 C 0.25044 0.62266 0.88725 0.0
C551 C 0.27661 0.6242 0.89333 0.0
H552 H 0.58064 0.15864 0.04959 0.0
H553 H 0.65889 0.15992 0.02967 0.0
H554 H 0.60877 0.20845 0.0621 0.0
H555 H 0.68709 0.20928 0.04316 0.0
H556 H 0.72446 0.30575 0.04316 0.0
H557 H 0.69666 0.25569 0.03164 0.0
H558 H 0.64269 0.23943 0.09216 0.0
H559 H 0.67012 0.28975 0.10341 0.0
C560 C 0.60384 0.16952 0.04791 0.0
C561 C 0.61747 0.15525 0.03855 0.0
C562 C 0.62002 0.198 0.05536 0.0
C563 C 0.65023 0.21292 0.05365 0.0
C564 C 0.66385 0.19857 0.04449 0.0
C565 C 0.64769 0.17012 0.03701 0.0
C566 C 0.70672 0.29152 0.05408 0.0
C567 C 0.69951 0.30181 0.0742 0.0
C568 C 0.69086 0.26273 0.04753 0.0
C569 C 0.66742 0.24347 0.06097 0.0
C570 C 0.66036 0.25372 0.08123 0.0
C571 C 0.67622 0.28256 0.08777 0.0
H572 H 0.50169 0.6442 0.21404 0.0
H573 H 0.41367 0.57495 0.2085 0.0
H574 H 0.48473 0.67569 0.22843 0.0
H575 H 0.39683 0.60636 0.22323 0.0
H576 H 0.37783 0.66405 0.269 0.0
H577 H 0.39768 0.63354 0.25892 0.0
H578 H 0.45739 0.69747 0.21203 0.0
H579 H 0.43775 0.72812 0.22222 0.0
C580 C 0.47873 0.63568 0.21583 0.0
C581 C 0.45905 0.60704 0.20996 0.0
C582 C 0.46904 0.65373 0.22414 0.0
C583 C 0.43945 0.64353 0.22695 0.0
C584 C 0.41981 0.61477 0.22158 0.0
C585 C 0.42947 0.59675 0.21315 0.0
C586 C 0.39542 0.67177 0.25675 0.0
C587 C 0.40611 0.69849 0.24633 0.0
C588 C 0.40665 0.65418 0.25087 0.0
C589 C 0.42895 0.663 0.23456 0.0
C590 C 0.44035 0.69014 0.22479 0.0
C591 C 0.42901 0.70766 0.23056 0.0
H592 H 0.88791 0.44547 0.4037 0.0
H593 H 0.84828 0.41085 0.33558 0.0
H594 H 0.84242 0.43949 0.41777 0.0
H595 H 0.80252 0.40458 0.34983 0.0
H596 H 0.71965 0.38333 0.38948 0.0
H597 H 0.76234 0.38001 0.37971 0.0
H598 H 0.81704 0.46582 0.40627 0.0
H599 H 0.77472 0.46922 0.41592 0.0
C600 C 0.86939 0.43632 0.3918 0.0
C601 C 0.8718 0.42911 0.3684 0.0
C602 C 0.84335 0.43285 0.39988 0.0
C603 C 0.81906 0.42192 0.3848 0.0
C604 C 0.82088 0.41292 0.36187 0.0
C605 C 0.84706 0.41651 0.35372 0.0
C606 C 0.74081 0.40131 0.39351 0.0
C607 C 0.74384 0.42658 0.40339 0.0
C608 C 0.76519 0.39945 0.38779 0.0
C609 C 0.79297 0.42263 0.39225 0.0
C610 C 0.79591 0.44748 0.40287 0.0
C611 C 0.77164 0.44948 0.40828 0.0
H612 H 0.15775 0.55208 0.40216 0.0
H613 H 0.08326 0.52205 0.44625 0.0
H614 H 0.18922 0.57757 0.43629 0.0
H615 H 0.11444 0.54744 0.48 0.0
H616 H 0.17144 0.63266 0.518 0.0
H617 H 0.14386 0.60149 0.48528 0.0
H618 H 0.20481 0.57179 0.47983 0.0
H619 H 0.23288 0.6033 0.51316 0.0
C620 C 0.1482 0.55042 0.41921 0.0
C621 C 0.11807 0.5356 0.4215 0.0
C622 C 0.16616 0.56495 0.43868 0.0
C623 C 0.15416 0.5648 0.46062 0.0
C624 C 0.1242 0.54831 0.46317 0.0
C625 C 0.10637 0.53385 0.44386 0.0
C626 C 0.17915 0.61959 0.50993 0.0
C627 C 0.20437 0.62044 0.51829 0.0
C628 C 0.16319 0.60157 0.49124 0.0
C629 C 0.17204 0.58402 0.48022 0.0
C630 C 0.19755 0.58513 0.4881 0.0
C631 C 0.21349 0.60305 0.50717 0.0
H632 H 0.52588 0.14058 0.56915 0.0
H633 H 0.59562 0.12601 0.58816 0.0
H634 H 0.53419 0.16826 0.60543 0.0
H635 H 0.60379 0.1535 0.62474 0.0
H636 H 0.62189 0.22267 0.68141 0.0
H637 H 0.61856 0.20046 0.64285 0.0
H638 H 0.52565 0.15558 0.64651 0.0
H639 H 0.52886 0.17794 0.68452 0.0
C640 C 0.5431 0.14344 0.58107 0.0
C641 C 0.55989 0.13088 0.57598 0.0
C642 C 0.54781 0.15921 0.60188 0.0
C643 C 0.56933 0.16267 0.61816 0.0
C644 C 0.58713 0.15133 0.61252 0.0
C645 C 0.58247 0.13561 0.59158 0.0
C646 C 0.60077 0.20805 0.67395 0.0
C647 C 0.57565 0.20217 0.68604 0.0
C648 C 0.59888 0.19529 0.6519 0.0
C649 C 0.57184 0.17648 0.64151 0.0
C650 C 0.54681 0.17044 0.65376 0.0
C651 C 0.54868 0.18312 0.6757 0.0
H652 H 0.40655 0.55816 0.72832 0.0
H653 H 0.48313 0.57794 0.76922 0.0
H654 H 0.38732 0.57068 0.7623 0.0
H655 H 0.46427 0.59155 0.8027 0.0
H656 H 0.42743 0.63418 0.85194 0.0
H657 H 0.44819 0.62807 0.8155 0.0
H658 H 0.37168 0.54653 0.80276 0.0
H659 H 0.35117 0.55231 0.83908 0.0
C660 C 0.41937 0.56528 0.74444 0.0
C661 C 0.44631 0.56672 0.746 0.0
C662 C 0.40841 0.57264 0.76382 0.0
C663 C 0.42433 0.58204 0.78508 0.0
C664 C 0.45173 0.58468 0.78641 0.0
C665 C 0.46253 0.57693 0.76716 0.0
C666 C 0.41503 0.61507 0.84124 0.0
C667 C 0.38777 0.59365 0.84842 0.0
C668 C 0.42692 0.61156 0.82048 0.0
C669 C 0.41146 0.58687 0.80634 0.0
C670 C 0.38392 0.56588 0.81322 0.0
C671 C 0.3723 0.56913 0.8341 0.0
H672 H 0.88937 0.48972 0.90358 0.0
H673 H 0.88681 0.40982 0.9146 0.0
H674 H 0.86014 0.48181 0.93812 0.0
H675 H 0.85884 0.4027 0.95005 0.0
H676 H 0.7893 0.38845 0.00325 0.0
H677 H 0.81303 0.39321 0.96567 0.0
H678 H 0.86784 0.48332 0.97973 0.0
H679 H 0.84377 0.47876 0.01673 0.0
C680 C 0.88233 0.47029 0.9132 0.0
C681 C 0.89058 0.45046 0.90629 0.0
C682 C 0.86589 0.46596 0.93326 0.0
C683 C 0.85744 0.44181 0.94708 0.0
C684 C 0.86485 0.42148 0.93977 0.0
C685 C 0.8812 0.42574 0.91959 0.0
C686 C 0.80634 0.40928 0.99824 0.0
C687 C 0.81458 0.43323 0.01299 0.0
C688 C 0.82003 0.41198 0.97675 0.0
C689 C 0.84225 0.43867 0.9696 0.0
C690 C 0.85043 0.46254 0.98441 0.0
C691 C 0.83673 0.45987 0.00577 0.0
H692 H 0.49197 0.88112 0.07915 0.0
H693 H 0.43976 0.92013 0.08992 0.0
H694 H 0.46526 0.84649 0.1095 0.0
H695 H 0.41391 0.88661 0.12079 0.0
H696 H 0.35438 0.80996 0.16077 0.0
H697 H 0.3797 0.83927 0.12747 0.0
H698 H 0.45764 0.84065 0.15041 0.0
H699 H 0.43171 0.81003 0.18307 0.0
C700 C 0.47493 0.88238 0.08819 0.0
C701 C 0.46775 0.90311 0.08211 0.0
C702 C 0.45966 0.86263 0.10562 0.0
C703 C 0.43716 0.86348 0.11755 0.0
C704 C 0.43047 0.88466 0.11161 0.0
C705 C 0.44541 0.90406 0.09401 0.0
C706 C 0.37683 0.81625 0.15852 0.0
C707 C 0.3911 0.80784 0.17461 0.0
C708 C 0.39148 0.8333 0.13953 0.0
C709 C 0.42095 0.84287 0.1364 0.0
C710 C 0.43494 0.83356 0.15207 0.0
C711 C 0.4201 0.81606 0.17087 0.0
H712 H 0.53209 0.42294 0.253 0.0
H713 H 0.61114 0.50329 0.24619 0.0
H714 H 0.55268 0.41232 0.28731 0.0
H715 H 0.6322 0.49172 0.27906 0.0
H716 H 0.64804 0.48392 0.35536 0.0
H717 H 0.62637 0.49045 0.3202 0.0
H718 H 0.58832 0.401 0.30245 0.0
H719 H 0.60948 0.39421 0.33861 0.0
C720 C 0.5539 0.43823 0.25862 0.0
C721 C 0.56978 0.46414 0.24685 0.0
C722 C 0.56584 0.43193 0.27812 0.0
C723 C 0.59397 0.45133 0.28617 0.0
C724 C 0.61024 0.47655 0.2737 0.0
C725 C 0.59825 0.48299 0.25449 0.0
C726 C 0.63511 0.46556 0.34401 0.0
C727 C 0.63072 0.43857 0.34969 0.0
C728 C 0.62281 0.46937 0.32368 0.0
C729 C 0.60603 0.44638 0.30819 0.0
C730 C 0.60109 0.41916 0.31403 0.0
C731 C 0.61326 0.41527 0.33467 0.0
H732 H 0.48134 0.89611 0.40029 0.0
H733 H 0.43563 0.93791 0.37591 0.0
H734 H 0.45824 0.85996 0.36895 0.0
H735 H 0.41334 0.90266 0.34423 0.0
H736 H 0.35507 0.82194 0.30479 0.0
H737 H 0.37798 0.85478 0.33786 0.0
H738 H 0.45592 0.85115 0.32746 0.0
H739 H 0.43235 0.81714 0.29483 0.0
C740 C 0.46657 0.89768 0.38805 0.0
C741 C 0.46005 0.91962 0.39062 0.0
C742 C 0.45338 0.87705 0.37006 0.0
C743 C 0.43364 0.87814 0.35414 0.0
C744 C 0.42777 0.90059 0.3565 0.0
C745 C 0.44065 0.92093 0.37459 0.0
C746 C 0.37704 0.82798 0.30965 0.0
C747 C 0.39197 0.8171 0.29708 0.0
C748 C 0.39029 0.84703 0.32853 0.0
C749 C 0.41903 0.8561 0.33515 0.0
C750 C 0.43372 0.84454 0.323 0.0
C751 C 0.42026 0.82511 0.30423 0.0
H752 H 0.60873 0.50591 0.57448 0.0
H753 H 0.53077 0.42593 0.55963 0.0
H754 H 0.63312 0.49521 0.54393 0.0
H755 H 0.55466 0.41641 0.52745 0.0
H756 H 0.61281 0.39799 0.48061 0.0
H757 H 0.59004 0.40471 0.5154 0.0
H758 H 0.63367 0.49517 0.50303 0.0
H759 H 0.65709 0.48864 0.4694 0.0
C760 C 0.59672 0.48591 0.56484 0.0
C761 C 0.56761 0.46687 0.56966 0.0
C762 C 0.61067 0.47999 0.54692 0.0
C763 C 0.59581 0.45514 0.53285 0.0
C764 C 0.56689 0.4357 0.53796 0.0
C765 C 0.55302 0.44142 0.55621 0.0
C766 C 0.61767 0.41929 0.48555 0.0
C767 C 0.63694 0.44277 0.47232 0.0
C768 C 0.60449 0.42315 0.50538 0.0
C769 C 0.61012 0.45054 0.51222 0.0
C770 C 0.62931 0.47386 0.49882 0.0
C771 C 0.64267 0.47006 0.47931 0.0
H772 H 0.14371 0.57141 0.75111 0.0
H773 H 0.07639 0.56069 0.70226 0.0
H774 H 0.17981 0.59699 0.72105 0.0
H775 H 0.11235 0.58677 0.67281 0.0
H776 H 0.18339 0.66475 0.63934 0.0
H777 H 0.15229 0.63908 0.67166 0.0
H778 H 0.19396 0.58889 0.67804 0.0
H779 H 0.22544 0.61467 0.64524 0.0
C780 C 0.13656 0.57423 0.73396 0.0
C781 C 0.10715 0.56437 0.72925 0.0
C782 C 0.15724 0.58893 0.71682 0.0
C783 C 0.14887 0.59421 0.69479 0.0
C784 C 0.11946 0.58351 0.68984 0.0
C785 C 0.09887 0.56867 0.70678 0.0
C786 C 0.18628 0.64847 0.64769 0.0
C787 C 0.20672 0.64154 0.63945 0.0
C788 C 0.16833 0.6337 0.66618 0.0
C789 C 0.17041 0.61171 0.67706 0.0
C790 C 0.19191 0.60575 0.66988 0.0
C791 C 0.20988 0.62049 0.65113 0.0
H792 H 0.60499 0.11619 0.89382 0.0
H793 H 0.53848 0.12915 0.92351 0.0
H794 H 0.61029 0.14794 0.86166 0.0
H795 H 0.54401 0.16117 0.89169 0.0
H796 H 0.53159 0.17948 0.81537 0.0
H797 H 0.53142 0.15419 0.85036 0.0
H798 H 0.62443 0.19635 0.84986 0.0
H799 H 0.62461 0.22143 0.81428 0.0
C800 C 0.59194 0.12631 0.89372 0.0
C801 C 0.57106 0.11993 0.91097 0.0
C802 C 0.59499 0.14452 0.87533 0.0
C803 C 0.57729 0.15679 0.87393 0.0
C804 C 0.55751 0.15154 0.89193 0.0
C805 C 0.55437 0.13327 0.91019 0.0
C806 C 0.55207 0.18355 0.82273 0.0
C807 C 0.57811 0.20247 0.81195 0.0
C808 C 0.55198 0.16917 0.84295 0.0
C809 C 0.57793 0.17333 0.85301 0.0
C810 C 0.60406 0.1925 0.84243 0.0
C811 C 0.60416 0.20696 0.82212 0.0
H812 H 0.42057 0.57397 0.09469 0.0
H813 H 0.48762 0.58043 0.04891 0.0
H814 H 0.39836 0.58463 0.06154 0.0
H815 H 0.46614 0.59262 0.01637 0.0
H816 H 0.42841 0.63539 0.96854 0.0
H817 H 0.45236 0.63222 0.00453 0.0
H818 H 0.37547 0.55413 0.02188 0.0
H819 H 0.35179 0.55685 0.98581 0.0
C820 C 0.43074 0.57783 0.0777 0.0
C821 C 0.45581 0.57599 0.07455 0.0
C822 C 0.41811 0.58418 0.05881 0.0
C823 C 0.43061 0.58945 0.0365 0.0
C824 C 0.45632 0.58898 0.03351 0.0
C825 C 0.46865 0.58209 0.05225 0.0
C826 C 0.41658 0.61774 0.98019 0.0
C827 C 0.38833 0.59627 0.97435 0.0
C828 C 0.43028 0.61591 0.00068 0.0
C829 C 0.41567 0.59298 0.0159 0.0
C830 C 0.38708 0.57214 0.01051 0.0
C831 C 0.37363 0.57362 0.98982 0.0
H832 H 0.92776 0.42197 0.20927 0.0
H833 H 0.87508 0.43908 0.25637 0.0
H834 H 0.8936 0.41304 0.17704 0.0
H835 H 0.84158 0.43108 0.22387 0.0
H836 H 0.82108 0.45955 0.15217 0.0
H837 H 0.84855 0.45978 0.18668 0.0
H838 H 0.84028 0.37996 0.16345 0.0
H839 H 0.81228 0.3795 0.12874 0.0
C840 C 0.90871 0.42337 0.2129 0.0
C841 C 0.90441 0.43158 0.23543 0.0
C842 C 0.88916 0.41827 0.19439 0.0
C843 C 0.86508 0.42156 0.19795 0.0
C844 C 0.86019 0.42874 0.2206 0.0
C845 C 0.87951 0.43351 0.23916 0.0
C846 C 0.82486 0.44189 0.15448 0.0
C847 C 0.81462 0.41955 0.13769 0.0
C848 C 0.84044 0.44195 0.17434 0.0
C849 C 0.84651 0.41989 0.17773 0.0
C850 C 0.83595 0.39727 0.16117 0.0
C851 C 0.81985 0.39695 0.14142 0.0
loop_
_geom_bond_atom_site_label_1
_geom_bond_atom_site_label_2
_geom_bond_distance
_geom_bond_site_symmetry_2
_ccdc_geom_bond_type
H0 C19 0.949 . S
H1 C20 0.950 . S
H2 C22 0.950 . S
H3 C23 0.950 . S
H4 C25 0.950 . S
H5 C28 0.950 . S
H6 C29 0.950 . S
H7 C31 0.951 . S
H8 C32 0.949 . S
H9 C34 0.949 . S
H10 C35 0.950 . S
H11 C37 0.950 . S
H12 C38 0.950 . S
H13 C40 0.942 1_655 S
H14 C43 0.950 . S
H15 C44 0.950 . S
H16 C46 0.951 . S
H17 C47 0.949 . S
C18 C19 1.376 . S
C18 C23 1.386 . S
C18 C24 1.483 . S
C19 H0 0.949 . S
C19 C18 1.376 . S
C19 C20 1.397 . S
C20 H1 0.950 . S
C20 C19 1.397 . S
C20 C21 1.391 . S
C21 C20 1.391 . S
C21 C22 1.405 . S
C22 H2 0.950 . S
C22 C21 1.405 . S
C22 C23 1.367 . S
C23 H3 0.950 . S
C23 C18 1.386 . S
C23 C22 1.367 . S
C24 C18 1.483 . S
C24 C25 1.382 1_655 S
C24 C26 1.403 . S
C25 H4 0.950 . S
C25 C24 1.382 1_455 S
C25 C41 1.411 . S
C26 C24 1.403 . S
C26 C27 1.489 . S
C26 C40 1.397 1_655 S
C27 C26 1.489 . S
C27 C28 1.383 . S
C27 C32 1.382 . S
C28 H5 0.950 . S
C28 C27 1.383 . S
C28 C29 1.395 . S
C29 H6 0.950 . S
C29 C28 1.395 . S
C29 C30 1.288 . S
C30 C29 1.288 . S
C30 C31 1.392 . S
C31 H7 0.951 . S
C31 C30 1.392 . S
C31 C32 1.392 . S
C32 H8 0.949 . S
C32 C27 1.382 . S
C32 C31 1.392 . S
C33 C34 1.376 . S
C33 C38 1.386 . S
C33 C39 1.483 . S
C34 H9 0.949 . S
C34 C33 1.376 . S
C34 C35 1.397 . S
C35 H10 0.950 . S
C35 C34 1.397 . S
C35 C36 1.391 . S
C36 C35 1.391 . S
C36 C37 1.405 . S
C37 H11 0.950 . S
C37 C36 1.405 . S
C37 C38 1.367 . S
C38 H12 0.950 . S
C38 C33 1.386 . S
C38 C37 1.367 . S
C39 C33 1.483 . S
C39 C40 1.403 . S
C39 C41 1.403 . S
C40 H13 0.942 1_455 S
C40 C26 1.397 1_455 S
C40 C39 1.403 . S
C41 C25 1.411 . S
C41 C39 1.403 . S
C41 C42 1.489 . S
C42 C41 1.489 . S
C42 C43 1.383 . S
C42 C47 1.382 . S
C43 H14 0.950 . S
C43 C42 1.383 . S
C43 C44 1.395 . S
C44 H15 0.950 . S
C44 C43 1.395 . S
C44 C45 1.288 . S
C45 C44 1.288 . S
C45 C46 1.392 . S
C46 H16 0.951 . S
C46 C45 1.392 . S
C46 C47 1.392 . S
C47 H17 0.949 . S
C47 C42 1.382 . S
C47 C46 1.392 . S
H48 C67 0.949 . S
H49 C68 0.950 . S
H50 C70 0.950 . S
H51 C71 0.950 . S
H52 C73 0.950 . S
H53 C76 0.950 . S
H54 C77 0.950 . S
H55 C79 0.951 . S
H56 C80 0.949 . S
H57 C82 0.949 . S
H58 C83 0.950 . S
H59 C85 0.950 . S
H60 C86 0.950 . S
H61 C88 0.950 . S
H62 C91 0.950 . S
H63 C92 0.950 . S
H64 C94 0.951 . S
H65 C95 0.949 . S
C66 C67 1.376 . S
C66 C71 1.386 . S
C66 C72 1.483 . S
C67 H48 0.949 . S
C67 C66 1.376 . S
C67 C68 1.397 . S
C68 H49 0.950 . S
C68 C67 1.397 . S
C68 C69 1.391 . S
C69 C68 1.391 . S
C69 C70 1.405 . S
C70 H50 0.950 . S
C70 C69 1.405 . S
C70 C71 1.367 . S
C71 H51 0.950 . S
C71 C66 1.386 . S
C71 C70 1.367 . S
C72 C66 1.483 . S
C72 C73 1.382 . S
C72 C74 1.403 . S
C73 H52 0.950 . S
C73 C72 1.382 . S
C73 C89 1.411 1_565 S
C74 C72 1.403 . S
C74 C75 1.489 . S
C74 C88 1.411 1_565 S
C75 C74 1.489 . S
C75 C76 1.383 . S
C75 C80 1.382 . S
C76 H53 0.950 . S
C76 C75 1.383 . S
C76 C77 1.395 . S
C77 H54 0.950 . S
C77 C76 1.395 . S
C77 C78 1.288 . S
C78 C77 1.288 . S
C78 C79 1.392 . S
C79 H55 0.951 . S
C79 C78 1.392 . S
C79 C80 1.392 . S
C80 H56 0.949 . S
C80 C75 1.382 . S
C80 C79 1.392 . S
C81 C82 1.376 . S
C81 C86 1.386 . S
C81 C87 1.483 . S
C82 H57 0.949 . S
C82 C81 1.376 . S
C82 C83 1.397 . S
C83 H58 0.950 . S
C83 C82 1.397 . S
C83 C84 1.391 . S
C84 C83 1.391 . S
C84 C85 1.405 . S
C85 H59 0.950 . S
C85 C84 1.405 . S
C85 C86 1.367 . S
C86 H60 0.950 . S
C86 C81 1.386 . S
C86 C85 1.367 . S
C87 C81 1.483 . S
C87 C88 1.382 . S
C87 C89 1.403 . S
C88 H61 0.950 . S
C88 C74 1.411 1_545 S
C88 C87 1.382 . S
C89 C73 1.411 1_545 S
C89 C87 1.403 . S
C89 C90 1.489 . S
C90 C89 1.489 . S
C90 C91 1.383 . S
C90 C95 1.382 . S
C91 H62 0.950 . S
C91 C90 1.383 . S
C91 C92 1.395 . S
C92 H63 0.950 . S
C92 C91 1.395 . S
C92 C93 1.288 . S
C93 C92 1.288 . S
C93 C94 1.392 . S
C94 H64 0.951 . S
C94 C93 1.392 . S
C94 C95 1.392 . S
C95 H65 0.949 . S
C95 C90 1.382 . S
C95 C94 1.392 . S
H96 C115 0.949 . S
H97 C116 0.950 . S
H98 C118 0.950 . S
H99 C119 0.950 . S
H100 C121 0.950 . S
H101 C124 0.950 . S
H102 C125 0.950 . S
H103 C127 0.951 . S
H104 C128 0.949 . S
H105 C130 0.949 . S
H106 C131 0.950 . S
H107 C133 0.950 . S
H108 C134 0.950 . S
H109 C136 0.950 . S
H110 C139 0.950 . S
H111 C140 0.950 . S
H112 C142 0.951 . S
H113 C143 0.949 . S
C114 C115 1.376 . S
C114 C119 1.386 . S
C114 C120 1.483 . S
C115 H96 0.949 . S
C115 C114 1.376 . S
C115 C116 1.397 . S
C116 H97 0.950 . S
C116 C115 1.397 . S
C116 C117 1.391 . S
C117 C116 1.391 . S
C117 C118 1.405 . S
C118 H98 0.950 . S
C118 C117 1.405 . S
C118 C119 1.367 . S
C119 H99 0.950 . S
C119 C114 1.386 . S
C119 C118 1.367 . S
C120 C114 1.483 . S
C120 C121 1.382 . S
C120 C122 1.403 . S
C121 H100 0.950 . S
C121 C120 1.382 . S
C121 C137 1.411 . S
C122 C120 1.403 . S
C122 C123 1.489 . S
C122 C136 1.411 . S
C123 C122 1.489 . S
C123 C124 1.383 . S
C123 C128 1.382 . S
C124 H101 0.950 . S
C124 C123 1.383 . S
C124 C125 1.395 . S
C125 H102 0.950 . S
C125 C124 1.395 . S
C125 C126 1.288 . S
C126 C125 1.288 . S
C126 C127 1.392 . S
C127 H103 0.951 . S
C127 C126 1.392 . S
C127 C128 1.392 . S
C128 H104 0.949 . S
C128 C123 1.382 . S
C128 C127 1.392 . S
C129 C130 1.376 . S
C129 C134 1.386 . S
C129 C135 1.483 . S
C130 H105 0.949 . S
C130 C129 1.376 . S
C130 C131 1.397 . S
C131 H106 0.950 . S
C131 C130 1.397 . S
C131 C132 1.391 . S
C132 C131 1.391 . S
C132 C133 1.405 . S
C133 H107 0.950 . S
C133 C132 1.405 . S
C133 C134 1.367 . S
C134 H108 0.950 . S
C134 C129 1.386 . S
C134 C133 1.367 . S
C135 C129 1.483 . S
C135 C136 1.382 . S
C135 C137 1.403 . S
C136 H109 0.950 . S
C136 C122 1.411 . S
C136 C135 1.382 . S
C137 C121 1.411 . S
C137 C135 1.403 . S
C137 C138 1.489 . S
C138 C137 1.489 . S
C138 C139 1.383 . S
C138 C143 1.382 . S
C139 H110 0.950 . S
C139 C138 1.383 . S
C139 C140 1.395 . S
C140 H111 0.950 . S
C140 C139 1.395 . S
C140 C141 1.288 . S
C141 C140 1.288 . S
C141 C142 1.392 . S
C142 H112 0.951 . S
C142 C141 1.392 . S
C142 C143 1.392 . S
C143 H113 0.949 . S
C143 C138 1.382 . S
C143 C142 1.392 . S
H144 C163 0.949 . S
H145 C164 0.950 . S
H146 C166 0.950 . S
H147 C167 0.950 . S
H148 C169 0.950 1_655 S
H149 C172 0.950 . S
H150 C173 0.950 . S
H151 C175 0.951 . S
H152 C176 0.949 . S
H153 C178 0.949 . S
H154 C179 0.950 . S
H155 C181 0.950 . S
H156 C182 0.950 . S
H157 C184 0.950 . S
H158 C187 0.950 . S
H159 C188 0.950 . S
H160 C190 0.951 . S
H161 C191 0.949 . S
C162 C163 1.376 . S
C162 C167 1.386 . S
C162 C168 1.483 . S
C163 H144 0.949 . S
C163 C162 1.376 . S
C163 C164 1.397 . S
C164 H145 0.950 . S
C164 C163 1.397 . S
C164 C165 1.391 . S
C165 C164 1.391 . S
C165 C166 1.405 . S
C166 H146 0.950 . S
C166 C165 1.405 . S
C166 C167 1.367 . S
C167 H147 0.950 . S
C167 C162 1.386 . S
C167 C166 1.367 . S
C168 C162 1.483 . S
C168 C169 1.382 . S
C168 C170 1.403 . S
C169 H148 0.950 1_455 S
C169 C168 1.382 . S
C169 C185 1.411 1_455 S
C170 C168 1.403 . S
C170 C171 1.489 . S
C170 C184 1.411 . S
C171 C170 1.489 . S
C171 C172 1.383 . S
C171 C176 1.382 . S
C172 H149 0.950 . S
C172 C171 1.383 . S
C172 C173 1.395 . S
C173 H150 0.950 . S
C173 C172 1.395 . S
C173 C174 1.288 . S
C174 C173 1.288 . S
C174 C175 1.392 . S
C175 H151 0.951 . S
C175 C174 1.392 . S
C175 C176 1.392 . S
C176 H152 0.949 . S
C176 C171 1.382 . S
C176 C175 1.392 . S
C177 C178 1.376 . S
C177 C182 1.386 . S
C177 C183 1.483 . S
C178 H153 0.949 . S
C178 C177 1.376 . S
C178 C179 1.397 . S
C179 H154 0.950 . S
C179 C178 1.397 . S
C179 C180 1.391 . S
C180 C179 1.391 . S
C180 C181 1.405 . S
C181 H155 0.950 . S
C181 C180 1.405 . S
C181 C182 1.367 . S
C182 H156 0.950 . S
C182 C177 1.386 . S
C182 C181 1.367 . S
C183 C177 1.483 . S
C183 C184 1.382 1_655 S
C183 C185 1.403 . S
C184 H157 0.950 . S
C184 C170 1.411 . S
C184 C183 1.382 1_455 S
C185 C169 1.411 1_655 S
C185 C183 1.403 . S
C185 C186 1.489 . S
C186 C185 1.489 . S
C186 C187 1.383 . S
C186 C191 1.382 . S
C187 H158 0.950 . S
C187 C186 1.383 . S
C187 C188 1.395 . S
C188 H159 0.950 . S
C188 C187 1.395 . S
C188 C189 1.288 . S
C189 C188 1.288 . S
C189 C190 1.392 . S
C190 H160 0.951 . S
C190 C189 1.392 . S
C190 C191 1.392 . S
C191 H161 0.949 . S
C191 C186 1.382 . S
C191 C190 1.392 . S
H192 C211 0.949 . S
H193 C212 0.950 . S
H194 C214 0.950 . S
H195 C215 0.950 . S
H196 C217 0.950 . S
H197 C220 0.950 . S
H198 C221 0.950 . S
H199 C223 0.951 . S
H200 C224 0.949 . S
H201 C226 0.949 . S
H202 C227 0.950 . S
H203 C229 0.950 . S
H204 C230 0.950 . S
H205 C232 0.955 . S
H206 C235 0.950 . S
H207 C236 0.950 . S
H208 C238 0.951 . S
H209 C239 0.949 . S
C210 C211 1.376 . S
C210 C215 1.386 1_554 S
C210 C216 1.483 1_554 S
C211 H192 0.949 . S
C211 C210 1.376 . S
C211 C212 1.397 . S
C212 H193 0.950 . S
C212 C211 1.397 . S
C212 C213 1.391 . S
C213 C212 1.391 . S
C213 C214 1.405 . S
C214 H194 0.950 . S
C214 C213 1.405 . S
C214 C215 1.367 1_554 S
C215 H195 0.950 . S
C215 C210 1.386 1_556 S
C215 C214 1.367 1_556 S
C216 C210 1.483 1_556 S
C216 C217 1.382 1_556 S
C216 C218 1.403 . S
C217 H196 0.950 . S
C217 C216 1.382 1_554 S
C217 C233 1.411 1_545 S
C218 C216 1.403 . S
C218 C219 1.489 . S
C218 C232 1.392 1_545 S
C219 C218 1.489 . S
C219 C220 1.383 . S
C219 C224 1.382 . S
C220 H197 0.950 . S
C220 C219 1.383 . S
C220 C221 1.395 . S
C221 H198 0.950 . S
C221 C220 1.395 . S
C221 C222 1.288 . S
C222 C221 1.288 . S
C222 C223 1.392 . S
C223 H199 0.951 . S
C223 C222 1.392 . S
C223 C224 1.392 . S
C224 H200 0.949 . S
C224 C219 1.382 . S
C224 C223 1.392 . S
C225 C226 1.376 . S
C225 C230 1.386 . S
C225 C231 1.483 . S
C226 H201 0.949 . S
C226 C225 1.376 . S
C226 C227 1.397 . S
C227 H202 0.950 . S
C227 C226 1.397 . S
C227 C228 1.391 . S
C228 C227 1.391 . S
C228 C229 1.405 . S
C229 H203 0.950 . S
C229 C228 1.405 . S
C229 C230 1.367 . S
C230 H204 0.950 . S
C230 C225 1.386 . S
C230 C229 1.367 . S
C231 C225 1.483 . S
C231 C232 1.397 . S
C231 C233 1.403 1_556 S
C232 H205 0.955 . S
C232 C218 1.392 1_565 S
C232 C231 1.397 . S
C233 C217 1.411 1_565 S
C233 C231 1.403 1_554 S
C233 C234 1.489 . S
C234 C233 1.489 . S
C234 C235 1.383 . S
C234 C239 1.382 . S
C235 H206 0.950 . S
C235 C234 1.383 . S
C235 C236 1.395 . S
C236 H207 0.950 . S
C236 C235 1.395 . S
C236 C237 1.288 . S
C237 C236 1.288 . S
C237 C238 1.392 . S
C238 H208 0.951 . S
C238 C237 1.392 . S
C238 C239 1.392 . S
C239 H209 0.949 . S
C239 C234 1.382 . S
C239 C238 1.392 . S
H240 C259 0.949 . S
H241 C260 0.950 . S
H242 C262 0.950 . S
H243 C263 0.950 . S
H244 C265 0.950 . S
H245 C268 0.950 . S
H246 C269 0.950 . S
H247 C271 0.951 . S
H248 C272 0.949 . S
H249 C274 0.949 . S
H250 C275 0.950 . S
H251 C277 0.950 . S
H252 C278 0.950 . S
H253 C280 0.950 . S
H254 C283 0.950 . S
H255 C284 0.950 . S
H256 C286 0.951 . S
H257 C287 0.949 . S
C258 C259 1.376 . S
C258 C263 1.386 . S
C258 C264 1.483 . S
C259 H240 0.949 . S
C259 C258 1.376 . S
C259 C260 1.397 . S
C260 H241 0.950 . S
C260 C259 1.397 . S
C260 C261 1.391 . S
C261 C260 1.391 . S
C261 C262 1.405 . S
C262 H242 0.950 . S
C262 C261 1.405 . S
C262 C263 1.367 . S
C263 H243 0.950 . S
C263 C258 1.386 . S
C263 C262 1.367 . S
C264 C258 1.483 . S
C264 C265 1.382 . S
C264 C266 1.403 . S
C265 H244 0.950 . S
C265 C264 1.382 . S
C265 C281 1.411 . S
C266 C264 1.403 . S
C266 C267 1.489 . S
C266 C280 1.411 . S
C267 C266 1.489 . S
C267 C268 1.383 . S
C267 C272 1.382 . S
C268 H245 0.950 . S
C268 C267 1.383 . S
C268 C269 1.395 . S
C269 H246 0.950 . S
C269 C268 1.395 . S
C269 C270 1.288 . S
C270 C269 1.288 . S
C270 C271 1.392 . S
C271 H247 0.951 . S
C271 C270 1.392 . S
C271 C272 1.392 . S
C272 H248 0.949 . S
C272 C267 1.382 . S
C272 C271 1.392 . S
C273 C274 1.376 . S
C273 C278 1.386 . S
C273 C279 1.483 . S
C274 H249 0.949 . S
C274 C273 1.376 . S
C274 C275 1.397 . S
C275 H250 0.950 . S
C275 C274 1.397 . S
C275 C276 1.391 . S
C276 C275 1.391 . S
C276 C277 1.405 . S
C277 H251 0.950 . S
C277 C276 1.405 . S
C277 C278 1.367 . S
C278 H252 0.950 . S
C278 C273 1.386 . S
C278 C277 1.367 . S
C279 C273 1.483 . S
C279 C280 1.382 . S
C279 C281 1.403 . S
C280 H253 0.950 . S
C280 C266 1.411 . S
C280 C279 1.382 . S
C281 C265 1.411 . S
C281 C279 1.403 . S
C281 C282 1.489 . S
C282 C281 1.489 . S
C282 C283 1.383 . S
C282 C287 1.382 . S
C283 H254 0.950 . S
C283 C282 1.383 . S
C283 C284 1.395 . S
C284 H255 0.950 . S
C284 C283 1.395 . S
C284 C285 1.288 . S
C285 C284 1.288 . S
C285 C286 1.392 . S
C286 H256 0.951 . S
C286 C285 1.392 . S
C286 C287 1.392 . S
C287 H257 0.949 . S
C287 C282 1.382 . S
C287 C286 1.392 . S
Zn288 O291 2.031 . S
Zn288 O293 2.049 . S
Zn288 O298 2.067 . S
Zn289 O290 1.962 . S
Zn289 O292 1.986 . S
Zn289 O294 1.996 . S
Zn289 O297 1.943 . S
O290 Zn289 1.962 . S
O290 C295 1.254 . S
O291 Zn288 2.031 . S
O291 C295 1.269 . S
O292 Zn289 1.986 . S
O292 C299 1.262 . S
O293 Zn288 2.049 . S
O293 C301 1.260 . S
O294 Zn289 1.996 . S
O294 C301 1.257 . S
C295 O290 1.254 . S
C295 O291 1.269 . S
C296 O297 1.249 . S
C296 O298 1.270 . S
O297 Zn289 1.943 . S
O297 C296 1.249 . S
O298 Zn288 2.067 . S
O298 C296 1.270 . S
C299 O292 1.262 . S
C299 O300 1.232 . S
O300 C299 1.232 . S
C301 O293 1.260 . S
C301 O294 1.257 . S
Zn302 O305 2.031 . S
Zn302 O307 2.049 . S
Zn302 O312 2.067 . S
Zn303 O304 1.962 . S
Zn303 O306 1.986 . S
Zn303 O308 1.996 . S
Zn303 O311 1.943 . S
O304 Zn303 1.962 . S
O304 C309 1.254 . S
O305 Zn302 2.031 . S
O305 C309 1.269 . S
O306 Zn303 1.986 . S
O306 C313 1.262 . S
O307 Zn302 2.049 . S
O307 C315 1.260 . S
O308 Zn303 1.996 . S
O308 C315 1.257 . S
C309 O304 1.254 . S
C309 O305 1.269 . S
C310 O311 1.249 . S
C310 O312 1.270 . S
O311 Zn303 1.943 . S
O311 C310 1.249 . S
O312 Zn302 2.067 . S
O312 C310 1.270 . S
C313 O306 1.262 . S
C313 O314 1.232 . S
O314 C313 1.232 . S
C315 O307 1.260 . S
C315 O308 1.257 . S
Zn316 O319 2.031 . S
Zn316 O321 2.049 . S
Zn316 O326 2.067 . S
Zn317 O318 1.962 . S
Zn317 O320 1.986 . S
Zn317 O322 1.996 . S
Zn317 O325 1.943 . S
O318 Zn317 1.962 . S
O318 C323 1.254 . S
O319 Zn316 2.031 . S
O319 C323 1.269 . S
O320 Zn317 1.986 . S
O320 C327 1.262 . S
O321 Zn316 2.049 . S
O321 C329 1.260 . S
O322 Zn317 1.996 . S
O322 C329 1.257 . S
C323 O318 1.254 . S
C323 O319 1.269 . S
C324 O325 1.249 . S
C324 O326 1.270 . S
O325 Zn317 1.943 . S
O325 C324 1.249 . S
O326 Zn316 2.067 . S
O326 C324 1.270 . S
C327 O320 1.262 . S
C327 O328 1.232 . S
O328 C327 1.232 . S
C329 O321 1.260 . S
C329 O322 1.257 . S
Zn330 O333 2.031 . S
Zn330 O335 2.049 . S
Zn330 O340 2.067 . S
Zn331 O332 1.962 . S
Zn331 O334 1.986 . S
Zn331 O336 1.996 . S
Zn331 O339 1.943 . S
O332 Zn331 1.962 . S
O332 C337 1.254 . S
O333 Zn330 2.031 . S
O333 C337 1.269 . S
O334 Zn331 1.986 . S
O334 C341 1.262 . S
O335 Zn330 2.049 . S
O335 C343 1.260 . S
O336 Zn331 1.996 . S
O336 C343 1.257 . S
C337 O332 1.254 . S
C337 O333 1.269 . S
C338 O339 1.249 . S
C338 O340 1.270 . S
O339 Zn331 1.943 . S
O339 C338 1.249 . S
O340 Zn330 2.067 . S
O340 C338 1.270 . S
C341 O334 1.262 . S
C341 O342 1.232 . S
O342 C341 1.232 . S
C343 O335 1.260 . S
C343 O336 1.257 . S
Zn344 O347 2.031 . S
Zn344 O349 2.049 . S
Zn344 O354 2.067 . S
Zn345 O346 1.962 . S
Zn345 O348 1.986 . S
Zn345 O350 1.996 . S
Zn345 O353 1.943 . S
O346 Zn345 1.962 . S
O346 C351 1.254 . S
O347 Zn344 2.031 . S
O347 C351 1.269 . S
O348 Zn345 1.986 . S
O348 C355 1.262 . S
O349 Zn344 2.049 . S
O349 C357 1.260 . S
O350 Zn345 1.996 . S
O350 C357 1.257 . S
C351 O346 1.254 . S
C351 O347 1.269 . S
C352 O353 1.249 . S
C352 O354 1.270 . S
O353 Zn345 1.943 . S
O353 C352 1.249 . S
O354 Zn344 2.067 . S
O354 C352 1.270 . S
C355 O348 1.262 . S
C355 O356 1.232 . S
O356 C355 1.232 . S
C357 O349 1.260 . S
C357 O350 1.257 . S
Zn358 O361 2.031 . S
Zn358 O363 2.049 . S
Zn358 O368 2.067 . S
Zn359 O360 1.962 . S
Zn359 O362 1.986 . S
Zn359 O364 1.996 . S
Zn359 O367 1.943 . S
O360 Zn359 1.962 . S
O360 C365 1.254 . S
O361 Zn358 2.031 . S
O361 C365 1.269 . S
O362 Zn359 1.986 . S
O362 C369 1.262 . S
O363 Zn358 2.049 . S
O363 C371 1.260 . S
O364 Zn359 1.996 . S
O364 C371 1.257 . S
C365 O360 1.254 . S
C365 O361 1.269 . S
C366 O367 1.249 . S
C366 O368 1.270 . S
O367 Zn359 1.943 . S
O367 C366 1.249 . S
O368 Zn358 2.067 . S
O368 C366 1.270 . S
C369 O362 1.262 . S
C369 O370 1.232 . S
O370 C369 1.232 . S
C371 O363 1.260 . S
C371 O364 1.257 . S
H372 C380 0.950 . S
H373 C385 0.950 . S
H374 C382 0.950 . S
H375 C384 0.950 . S
H376 C386 0.950 . S
H377 C388 0.950 . S
H378 C390 0.950 . S
H379 C391 0.950 . S
C380 H372 0.950 . S
C380 C381 1.386 . S
C380 C382 1.391 . S
C381 C380 1.386 . S
C381 C385 1.393 . S
C382 H374 0.950 . S
C382 C380 1.391 . S
C382 C383 1.400 . S
C383 C382 1.400 . S
C383 C384 1.398 . S
C383 C389 1.491 . S
C384 H375 0.950 . S
C384 C383 1.398 . S
C384 C385 1.391 . S
C385 H373 0.950 . S
C385 C381 1.393 . S
C385 C384 1.391 . S
C386 H376 0.950 . S
C386 C387 1.386 . S
C386 C388 1.391 . S
C387 C386 1.386 . S
C387 C391 1.393 . S
C388 H377 0.950 . S
C388 C386 1.391 . S
C388 C389 1.400 . S
C389 C383 1.491 . S
C389 C388 1.400 . S
C389 C390 1.398 . S
C390 H378 0.950 . S
C390 C389 1.398 . S
C390 C391 1.391 . S
C391 H379 0.950 . S
C391 C387 1.393 . S
C391 C390 1.391 . S
H392 C400 0.950 . S
H393 C405 0.950 . S
H394 C402 0.950 . S
H395 C404 0.950 . S
H396 C406 0.950 . S
H397 C408 0.950 . S
H398 C410 0.950 . S
H399 C411 0.950 . S
C400 H392 0.950 . S
C400 C401 1.386 . S
C400 C402 1.391 . S
C401 C400 1.386 . S
C401 C405 1.393 . S
C402 H394 0.950 . S
C402 C400 1.391 . S
C402 C403 1.400 . S
C403 C402 1.400 . S
C403 C404 1.398 . S
C403 C409 1.491 . S
C404 H395 0.950 . S
C404 C403 1.398 . S
C404 C405 1.391 . S
C405 H393 0.950 . S
C405 C401 1.393 . S
C405 C404 1.391 . S
C406 H396 0.950 . S
C406 C407 1.386 . S
C406 C408 1.391 . S
C407 C406 1.386 . S
C407 C411 1.393 . S
C408 H397 0.950 . S
C408 C406 1.391 . S
C408 C409 1.400 . S
C409 C403 1.491 . S
C409 C408 1.400 . S
C409 C410 1.398 . S
C410 H398 0.950 . S
C410 C409 1.398 . S
C410 C411 1.391 . S
C411 H399 0.950 . S
C411 C407 1.393 . S
C411 C410 1.391 . S
H412 C420 0.950 . S
H413 C425 0.950 . S
H414 C422 0.950 . S
H415 C424 0.950 . S
H416 C426 0.950 . S
H417 C428 0.950 . S
H418 C430 0.950 . S
H419 C431 0.950 . S
C420 H412 0.950 . S
C420 C421 1.386 . S
C420 C422 1.391 . S
C421 C420 1.386 . S
C421 C425 1.393 . S
C422 H414 0.950 . S
C422 C420 1.391 . S
C422 C423 1.400 . S
C423 C422 1.400 . S
C423 C424 1.398 . S
C423 C429 1.491 . S
C424 H415 0.950 . S
C424 C423 1.398 . S
C424 C425 1.391 . S
C425 H413 0.950 . S
C425 C421 1.393 . S
C425 C424 1.391 . S
C426 H416 0.950 . S
C426 C427 1.386 . S
C426 C428 1.391 . S
C427 C426 1.386 . S
C427 C431 1.393 . S
C428 H417 0.950 . S
C428 C426 1.391 . S
C428 C429 1.400 . S
C429 C423 1.491 . S
C429 C428 1.400 . S
C429 C430 1.398 . S
C430 H418 0.950 . S
C430 C429 1.398 . S
C430 C431 1.391 . S
C431 H419 0.950 . S
C431 C427 1.393 . S
C431 C430 1.391 . S
H432 C440 0.950 . S
H433 C445 0.950 . S
H434 C442 0.950 . S
H435 C444 0.950 . S
H436 C446 0.950 . S
H437 C448 0.950 . S
H438 C450 0.950 . S
H439 C451 0.950 . S
C440 H432 0.950 . S
C440 C441 1.386 . S
C440 C442 1.391 . S
C441 C440 1.386 . S
C441 C445 1.393 . S
C442 H434 0.950 . S
C442 C440 1.391 . S
C442 C443 1.400 . S
C443 C442 1.400 . S
C443 C444 1.398 . S
C443 C449 1.491 . S
C444 H435 0.950 . S
C444 C443 1.398 . S
C444 C445 1.391 . S
C445 H433 0.950 . S
C445 C441 1.393 . S
C445 C444 1.391 . S
C446 H436 0.950 . S
C446 C447 1.386 . S
C446 C448 1.391 . S
C447 C446 1.386 . S
C447 C451 1.393 . S
C448 H437 0.950 . S
C448 C446 1.391 . S
C448 C449 1.400 . S
C449 C443 1.491 . S
C449 C448 1.400 . S
C449 C450 1.398 . S
C450 H438 0.950 . S
C450 C449 1.398 . S
C450 C451 1.391 . S
C451 H439 0.950 . S
C451 C447 1.393 . S
C451 C450 1.391 . S
H452 C460 0.950 . S
H453 C465 0.950 . S
H454 C462 0.950 . S
H455 C464 0.950 . S
H456 C466 0.950 . S
H457 C468 0.950 . S
H458 C470 0.950 . S
H459 C471 0.950 . S
C460 H452 0.950 . S
C460 C461 1.386 . S
C460 C462 1.391 . S
C461 C460 1.386 . S
C461 C465 1.393 . S
C462 H454 0.950 . S
C462 C460 1.391 . S
C462 C463 1.400 . S
C463 C462 1.400 . S
C463 C464 1.398 . S
C463 C469 1.491 . S
C464 H455 0.950 . S
C464 C463 1.398 . S
C464 C465 1.391 . S
C465 H453 0.950 . S
C465 C461 1.393 . S
C465 C464 1.391 . S
C466 H456 0.950 . S
C466 C467 1.386 . S
C466 C468 1.391 . S
C467 C466 1.386 . S
C467 C471 1.393 . S
C468 H457 0.950 . S
C468 C466 1.391 . S
C468 C469 1.400 . S
C469 C463 1.491 . S
C469 C468 1.400 . S
C469 C470 1.398 . S
C470 H458 0.950 . S
C470 C469 1.398 . S
C470 C471 1.391 . S
C471 H459 0.950 . S
C471 C467 1.393 . S
C471 C470 1.391 . S
H472 C480 0.950 . S
H473 C485 0.950 . S
H474 C482 0.950 . S
H475 C484 0.950 . S
H476 C486 0.950 . S
H477 C488 0.950 . S
H478 C490 0.950 . S
H479 C491 0.950 . S
C480 H472 0.950 . S
C480 C481 1.386 . S
C480 C482 1.391 . S
C481 C480 1.386 . S
C481 C485 1.393 . S
C482 H474 0.950 . S
C482 C480 1.391 . S
C482 C483 1.400 . S
C483 C482 1.400 . S
C483 C484 1.398 . S
C483 C489 1.491 . S
C484 H475 0.950 . S
C484 C483 1.398 . S
C484 C485 1.391 . S
C485 H473 0.950 . S
C485 C481 1.393 . S
C485 C484 1.391 . S
C486 H476 0.950 . S
C486 C487 1.386 . S
C486 C488 1.391 . S
C487 C486 1.386 . S
C487 C491 1.393 . S
C488 H477 0.950 . S
C488 C486 1.391 . S
C488 C489 1.400 . S
C489 C483 1.491 . S
C489 C488 1.400 . S
C489 C490 1.398 . S
C490 H478 0.950 . S
C490 C489 1.398 . S
C490 C491 1.391 . S
C491 H479 0.950 . S
C491 C487 1.393 . S
C491 C490 1.391 . S
H492 C500 0.950 . S
H493 C505 0.950 . S
H494 C502 0.950 . S
H495 C504 0.950 . S
H496 C506 0.950 . S
H497 C508 0.950 . S
H498 C510 0.950 . S
H499 C511 0.950 . S
C500 H492 0.950 . S
C500 C501 1.386 . S
C500 C502 1.391 . S
C501 C500 1.386 . S
C501 C505 1.393 . S
C502 H494 0.950 . S
C502 C500 1.391 . S
C502 C503 1.400 . S
C503 C502 1.400 . S
C503 C504 1.398 . S
C503 C509 1.491 . S
C504 H495 0.950 . S
C504 C503 1.398 . S
C504 C505 1.391 . S
C505 H493 0.950 . S
C505 C501 1.393 . S
C505 C504 1.391 . S
C506 H496 0.950 . S
C506 C507 1.386 . S
C506 C508 1.391 . S
C507 C506 1.386 . S
C507 C511 1.393 . S
C508 H497 0.950 . S
C508 C506 1.391 . S
C508 C509 1.400 . S
C509 C503 1.491 . S
C509 C508 1.400 . S
C509 C510 1.398 . S
C510 H498 0.950 . S
C510 C509 1.398 . S
C510 C511 1.391 . S
C511 H499 0.950 . S
C511 C507 1.393 . S
C511 C510 1.391 . S
H512 C520 0.950 . S
H513 C525 0.950 . S
H514 C522 0.950 . S
H515 C524 0.950 . S
H516 C526 0.950 . S
H517 C528 0.950 . S
H518 C530 0.950 . S
H519 C531 0.950 . S
C520 H512 0.950 . S
C520 C521 1.386 . S
C520 C522 1.391 . S
C521 C520 1.386 . S
C521 C525 1.393 . S
C522 H514 0.950 . S
C522 C520 1.391 . S
C522 C523 1.400 . S
C523 C522 1.400 . S
C523 C524 1.398 . S
C523 C529 1.491 . S
C524 H515 0.950 . S
C524 C523 1.398 . S
C524 C525 1.391 . S
C525 H513 0.950 . S
C525 C521 1.393 . S
C525 C524 1.391 . S
C526 H516 0.950 . S
C526 C527 1.386 . S
C526 C528 1.391 . S
C527 C526 1.386 . S
C527 C531 1.393 . S
C528 H517 0.950 . S
C528 C526 1.391 . S
C528 C529 1.400 . S
C529 C523 1.491 . S
C529 C528 1.400 . S
C529 C530 1.398 . S
C530 H518 0.950 . S
C530 C529 1.398 . S
C530 C531 1.391 . S
C531 H519 0.950 . S
C531 C527 1.393 . S
C531 C530 1.391 . S
H532 C540 0.950 . S
H533 C545 0.950 . S
H534 C542 0.950 . S
H535 C544 0.950 . S
H536 C546 0.950 . S
H537 C548 0.950 . S
H538 C550 0.950 . S
H539 C551 0.950 . S
C540 H532 0.950 . S
C540 C541 1.386 . S
C540 C542 1.391 . S
C541 C540 1.386 . S
C541 C545 1.393 . S
C542 H534 0.950 . S
C542 C540 1.391 . S
C542 C543 1.400 . S
C543 C542 1.400 . S
C543 C544 1.398 . S
C543 C549 1.491 . S
C544 H535 0.950 . S
C544 C543 1.398 . S
C544 C545 1.391 . S
C545 H533 0.950 . S
C545 C541 1.393 . S
C545 C544 1.391 . S
C546 H536 0.950 . S
C546 C547 1.386 . S
C546 C548 1.391 . S
C547 C546 1.386 . S
C547 C551 1.393 . S
C548 H537 0.950 . S
C548 C546 1.391 . S
C548 C549 1.400 . S
C549 C543 1.491 . S
C549 C548 1.400 . S
C549 C550 1.398 . S
C550 H538 0.950 . S
C550 C549 1.398 . S
C550 C551 1.391 . S
C551 H539 0.950 . S
C551 C547 1.393 . S
C551 C550 1.391 . S
H552 C560 0.950 . S
H553 C565 0.950 1_556 S
H554 C562 0.950 . S
H555 C564 0.950 . S
H556 C566 0.950 . S
H557 C568 0.950 . S
H558 C570 0.950 . S
H559 C571 0.950 . S
C560 H552 0.950 . S
C560 C561 1.386 . S
C560 C562 1.391 . S
C561 C560 1.386 . S
C561 C565 1.393 . S
C562 H554 0.950 . S
C562 C560 1.391 . S
C562 C563 1.400 . S
C563 C562 1.400 . S
C563 C564 1.398 . S
C563 C569 1.491 . S
C564 H555 0.950 . S
C564 C563 1.398 . S
C564 C565 1.391 . S
C565 H553 0.950 1_554 S
C565 C561 1.393 . S
C565 C564 1.391 . S
C566 H556 0.950 . S
C566 C567 1.386 . S
C566 C568 1.391 . S
C567 C566 1.386 . S
C567 C571 1.393 . S
C568 H557 0.950 . S
C568 C566 1.391 . S
C568 C569 1.400 . S
C569 C563 1.491 . S
C569 C568 1.400 . S
C569 C570 1.398 . S
C570 H558 0.950 . S
C570 C569 1.398 . S
C570 C571 1.391 . S
C571 H559 0.950 . S
C571 C567 1.393 . S
C571 C570 1.391 . S
H572 C580 0.950 . S
H573 C585 0.950 . S
H574 C582 0.950 . S
H575 C584 0.950 . S
H576 C586 0.950 . S
H577 C588 0.950 . S
H578 C590 0.950 . S
H579 C591 0.950 . S
C580 H572 0.950 . S
C580 C581 1.386 . S
C580 C582 1.391 . S
C581 C580 1.386 . S
C581 C585 1.393 . S
C582 H574 0.950 . S
C582 C580 1.391 . S
C582 C583 1.400 . S
C583 C582 1.400 . S
C583 C584 1.398 . S
C583 C589 1.491 . S
C584 H575 0.950 . S
C584 C583 1.398 . S
C584 C585 1.391 . S
C585 H573 0.950 . S
C585 C581 1.393 . S
C585 C584 1.391 . S
C586 H576 0.950 . S
C586 C587 1.386 . S
C586 C588 1.391 . S
C587 C586 1.386 . S
C587 C591 1.393 . S
C588 H577 0.950 . S
C588 C586 1.391 . S
C588 C589 1.400 . S
C589 C583 1.491 . S
C589 C588 1.400 . S
C589 C590 1.398 . S
C590 H578 0.950 . S
C590 C589 1.398 . S
C590 C591 1.391 . S
C591 H579 0.950 . S
C591 C587 1.393 . S
C591 C590 1.391 . S
H592 C600 0.950 . S
H593 C605 0.950 . S
H594 C602 0.950 . S
H595 C604 0.950 . S
H596 C606 0.950 . S
H597 C608 0.950 . S
H598 C610 0.950 . S
H599 C611 0.950 . S
C600 H592 0.950 . S
C600 C601 1.386 . S
C600 C602 1.391 . S
C601 C600 1.386 . S
C601 C605 1.393 . S
C602 H594 0.950 . S
C602 C600 1.391 . S
C602 C603 1.400 . S
C603 C602 1.400 . S
C603 C604 1.398 . S
C603 C609 1.491 . S
C604 H595 0.950 . S
C604 C603 1.398 . S
C604 C605 1.391 . S
C605 H593 0.950 . S
C605 C601 1.393 . S
C605 C604 1.391 . S
C606 H596 0.950 . S
C606 C607 1.386 . S
C606 C608 1.391 . S
C607 C606 1.386 . S
C607 C611 1.393 . S
C608 H597 0.950 . S
C608 C606 1.391 . S
C608 C609 1.400 . S
C609 C603 1.491 . S
C609 C608 1.400 . S
C609 C610 1.398 . S
C610 H598 0.950 . S
C610 C609 1.398 . S
C610 C611 1.391 . S
C611 H599 0.950 . S
C611 C607 1.393 . S
C611 C610 1.391 . S
H612 C620 0.950 . S
H613 C625 0.950 . S
H614 C622 0.950 . S
H615 C624 0.950 . S
H616 C626 0.950 . S
H617 C628 0.950 . S
H618 C630 0.950 . S
H619 C631 0.950 . S
C620 H612 0.950 . S
C620 C621 1.386 . S
C620 C622 1.391 . S
C621 C620 1.386 . S
C621 C625 1.393 . S
C622 H614 0.950 . S
C622 C620 1.391 . S
C622 C623 1.400 . S
C623 C622 1.400 . S
C623 C624 1.398 . S
C623 C629 1.491 . S
C624 H615 0.950 . S
C624 C623 1.398 . S
C624 C625 1.391 . S
C625 H613 0.950 . S
C625 C621 1.393 . S
C625 C624 1.391 . S
C626 H616 0.950 . S
C626 C627 1.386 . S
C626 C628 1.391 . S
C627 C626 1.386 . S
C627 C631 1.393 . S
C628 H617 0.950 . S
C628 C626 1.391 . S
C628 C629 1.400 . S
C629 C623 1.491 . S
C629 C628 1.400 . S
C629 C630 1.398 . S
C630 H618 0.950 . S
C630 C629 1.398 . S
C630 C631 1.391 . S
C631 H619 0.950 . S
C631 C627 1.393 . S
C631 C630 1.391 . S
H632 C640 0.950 . S
H633 C645 0.950 . S
H634 C642 0.950 . S
H635 C644 0.950 . S
H636 C646 0.950 . S
H637 C648 0.950 . S
H638 C650 0.950 . S
H639 C651 0.950 . S
C640 H632 0.950 . S
C640 C641 1.386 . S
C640 C642 1.391 . S
C641 C640 1.386 . S
C641 C645 1.393 . S
C642 H634 0.950 . S
C642 C640 1.391 . S
C642 C643 1.400 . S
C643 C642 1.400 . S
C643 C644 1.398 . S
C643 C649 1.491 . S
C644 H635 0.950 . S
C644 C643 1.398 . S
C644 C645 1.391 . S
C645 H633 0.950 . S
C645 C641 1.393 . S
C645 C644 1.391 . S
C646 H636 0.950 . S
C646 C647 1.386 . S
C646 C648 1.391 . S
C647 C646 1.386 . S
C647 C651 1.393 . S
C648 H637 0.950 . S
C648 C646 1.391 . S
C648 C649 1.400 . S
C649 C643 1.491 . S
C649 C648 1.400 . S
C649 C650 1.398 . S
C650 H638 0.950 . S
C650 C649 1.398 . S
C650 C651 1.391 . S
C651 H639 0.950 . S
C651 C647 1.393 . S
C651 C650 1.391 . S
H652 C660 0.950 . S
H653 C665 0.950 . S
H654 C662 0.950 . S
H655 C664 0.950 . S
H656 C666 0.950 . S
H657 C668 0.950 . S
H658 C670 0.950 . S
H659 C671 0.950 . S
C660 H652 0.950 . S
C660 C661 1.386 . S
C660 C662 1.391 . S
C661 C660 1.386 . S
C661 C665 1.393 . S
C662 H654 0.950 . S
C662 C660 1.391 . S
C662 C663 1.400 . S
C663 C662 1.400 . S
C663 C664 1.398 . S
C663 C669 1.491 . S
C664 H655 0.950 . S
C664 C663 1.398 . S
C664 C665 1.391 . S
C665 H653 0.950 . S
C665 C661 1.393 . S
C665 C664 1.391 . S
C666 H656 0.950 . S
C666 C667 1.386 . S
C666 C668 1.391 . S
C667 C666 1.386 . S
C667 C671 1.393 . S
C668 H657 0.950 . S
C668 C666 1.391 . S
C668 C669 1.400 . S
C669 C663 1.491 . S
C669 C668 1.400 . S
C669 C670 1.398 . S
C670 H658 0.950 . S
C670 C669 1.398 . S
C670 C671 1.391 . S
C671 H659 0.950 . S
C671 C667 1.393 . S
C671 C670 1.391 . S
H672 C680 0.950 . S
H673 C685 0.950 . S
H674 C682 0.950 . S
H675 C684 0.950 . S
H676 C686 0.950 . S
H677 C688 0.950 . S
H678 C690 0.952 . S
H679 C691 0.950 . S
C680 H672 0.950 . S
C680 C681 1.386 . S
C680 C682 1.391 . S
C681 C680 1.386 . S
C681 C685 1.393 . S
C682 H674 0.950 . S
C682 C680 1.391 . S
C682 C683 1.400 . S
C683 C682 1.400 . S
C683 C684 1.398 . S
C683 C689 1.491 . S
C684 H675 0.950 . S
C684 C683 1.398 . S
C684 C685 1.391 . S
C685 H673 0.950 . S
C685 C681 1.393 . S
C685 C684 1.391 . S
C686 H676 0.950 . S
C686 C687 1.386 1_556 S
C686 C688 1.391 . S
C687 C686 1.386 1_554 S
C687 C691 1.393 . S
C688 H677 0.950 . S
C688 C686 1.391 . S
C688 C689 1.400 . S
C689 C683 1.491 . S
C689 C688 1.400 . S
C689 C690 1.398 . S
C690 H678 0.952 . S
C690 C689 1.398 . S
C690 C691 1.391 1_556 S
C691 H679 0.950 . S
C691 C687 1.393 . S
C691 C690 1.391 1_554 S
H692 C700 0.950 . S
H693 C705 0.950 . S
H694 C702 0.950 . S
H695 C704 0.950 . S
H696 C706 0.950 . S
H697 C708 0.950 . S
H698 C710 0.950 . S
H699 C711 0.950 . S
C700 H692 0.950 . S
C700 C701 1.386 . S
C700 C702 1.391 . S
C701 C700 1.386 . S
C701 C705 1.393 . S
C702 H694 0.950 . S
C702 C700 1.391 . S
C702 C703 1.400 . S
C703 C702 1.400 . S
C703 C704 1.398 . S
C703 C709 1.491 . S
C704 H695 0.950 . S
C704 C703 1.398 . S
C704 C705 1.391 . S
C705 H693 0.950 . S
C705 C701 1.393 . S
C705 C704 1.391 . S
C706 H696 0.950 . S
C706 C707 1.386 . S
C706 C708 1.391 . S
C707 C706 1.386 . S
C707 C711 1.393 . S
C708 H697 0.950 . S
C708 C706 1.391 . S
C708 C709 1.400 . S
C709 C703 1.491 . S
C709 C708 1.400 . S
C709 C710 1.398 . S
C710 H698 0.950 . S
C710 C709 1.398 . S
C710 C711 1.391 . S
C711 H699 0.950 . S
C711 C707 1.393 . S
C711 C710 1.391 . S
H712 C720 0.950 . S
H713 C725 0.950 . S
H714 C722 0.950 . S
H715 C724 0.950 . S
H716 C726 0.950 . S
H717 C728 0.950 . S
H718 C730 0.950 . S
H719 C731 0.950 . S
C720 H712 0.950 . S
C720 C721 1.386 . S
C720 C722 1.391 . S
C721 C720 1.386 . S
C721 C725 1.393 . S
C722 H714 0.950 . S
C722 C720 1.391 . S
C722 C723 1.400 . S
C723 C722 1.400 . S
C723 C724 1.398 . S
C723 C729 1.491 . S
C724 H715 0.950 . S
C724 C723 1.398 . S
C724 C725 1.391 . S
C725 H713 0.950 . S
C725 C721 1.393 . S
C725 C724 1.391 . S
C726 H716 0.950 . S
C726 C727 1.386 . S
C726 C728 1.391 . S
C727 C726 1.386 . S
C727 C731 1.393 . S
C728 H717 0.950 . S
C728 C726 1.391 . S
C728 C729 1.400 . S
C729 C723 1.491 . S
C729 C728 1.400 . S
C729 C730 1.398 . S
C730 H718 0.950 . S
C730 C729 1.398 . S
C730 C731 1.391 . S
C731 H719 0.950 . S
C731 C727 1.393 . S
C731 C730 1.391 . S
H732 C740 0.950 . S
H733 C745 0.950 . S
H734 C742 0.950 . S
H735 C744 0.950 . S
H736 C746 0.950 . S
H737 C748 0.950 . S
H738 C750 0.950 . S
H739 C751 0.950 . S
C740 H732 0.950 . S
C740 C741 1.386 . S
C740 C742 1.391 . S
C741 C740 1.386 . S
C741 C745 1.393 . S
C742 H734 0.950 . S
C742 C740 1.391 . S
C742 C743 1.400 . S
C743 C742 1.400 . S
C743 C744 1.398 . S
C743 C749 1.491 . S
C744 H735 0.950 . S
C744 C743 1.398 . S
C744 C745 1.391 . S
C745 H733 0.950 . S
C745 C741 1.393 . S
C745 C744 1.391 . S
C746 H736 0.950 . S
C746 C747 1.386 . S
C746 C748 1.391 . S
C747 C746 1.386 . S
C747 C751 1.393 . S
C748 H737 0.950 . S
C748 C746 1.391 . S
C748 C749 1.400 . S
C749 C743 1.491 . S
C749 C748 1.400 . S
C749 C750 1.398 . S
C750 H738 0.950 . S
C750 C749 1.398 . S
C750 C751 1.391 . S
C751 H739 0.950 . S
C751 C747 1.393 . S
C751 C750 1.391 . S
H752 C760 0.950 . S
H753 C765 0.950 . S
H754 C762 0.950 . S
H755 C764 0.950 . S
H756 C766 0.950 . S
H757 C768 0.950 . S
H758 C770 0.950 . S
H759 C771 0.950 . S
C760 H752 0.950 . S
C760 C761 1.386 . S
C760 C762 1.391 . S
C761 C760 1.386 . S
C761 C765 1.393 . S
C762 H754 0.950 . S
C762 C760 1.391 . S
C762 C763 1.400 . S
C763 C762 1.400 . S
C763 C764 1.398 . S
C763 C769 1.491 . S
C764 H755 0.950 . S
C764 C763 1.398 . S
C764 C765 1.391 . S
C765 H753 0.950 . S
C765 C761 1.393 . S
C765 C764 1.391 . S
C766 H756 0.950 . S
C766 C767 1.386 . S
C766 C768 1.391 . S
C767 C766 1.386 . S
C767 C771 1.393 . S
C768 H757 0.950 . S
C768 C766 1.391 . S
C768 C769 1.400 . S
C769 C763 1.491 . S
C769 C768 1.400 . S
C769 C770 1.398 . S
C770 H758 0.950 . S
C770 C769 1.398 . S
C770 C771 1.391 . S
C771 H759 0.950 . S
C771 C767 1.393 . S
C771 C770 1.391 . S
H772 C780 0.950 . S
H773 C785 0.950 . S
H774 C782 0.950 . S
H775 C784 0.950 . S
H776 C786 0.950 . S
H777 C788 0.950 . S
H778 C790 0.950 . S
H779 C791 0.950 . S
C780 H772 0.950 . S
C780 C781 1.386 . S
C780 C782 1.391 . S
C781 C780 1.386 . S
C781 C785 1.393 . S
C782 H774 0.950 . S
C782 C780 1.391 . S
C782 C783 1.400 . S
C783 C782 1.400 . S
C783 C784 1.398 . S
C783 C789 1.491 . S
C784 H775 0.950 . S
C784 C783 1.398 . S
C784 C785 1.391 . S
C785 H773 0.950 . S
C785 C781 1.393 . S
C785 C784 1.391 . S
C786 H776 0.950 . S
C786 C787 1.386 . S
C786 C788 1.391 . S
C787 C786 1.386 . S
C787 C791 1.393 . S
C788 H777 0.950 . S
C788 C786 1.391 . S
C788 C789 1.400 . S
C789 C783 1.491 . S
C789 C788 1.400 . S
C789 C790 1.398 . S
C790 H778 0.950 . S
C790 C789 1.398 . S
C790 C791 1.391 . S
C791 H779 0.950 . S
C791 C787 1.393 . S
C791 C790 1.391 . S
H792 C800 0.950 . S
H793 C805 0.950 . S
H794 C802 0.950 . S
H795 C804 0.950 . S
H796 C806 0.950 . S
H797 C808 0.950 . S
H798 C810 0.950 . S
H799 C811 0.950 . S
C800 H792 0.950 . S
C800 C801 1.386 . S
C800 C802 1.391 . S
C801 C800 1.386 . S
C801 C805 1.393 . S
C802 H794 0.950 . S
C802 C800 1.391 . S
C802 C803 1.400 . S
C803 C802 1.400 . S
C803 C804 1.398 . S
C803 C809 1.491 . S
C804 H795 0.950 . S
C804 C803 1.398 . S
C804 C805 1.391 . S
C805 H793 0.950 . S
C805 C801 1.393 . S
C805 C804 1.391 . S
C806 H796 0.950 . S
C806 C807 1.386 . S
C806 C808 1.391 . S
C807 C806 1.386 . S
C807 C811 1.393 . S
C808 H797 0.950 . S
C808 C806 1.391 . S
C808 C809 1.400 . S
C809 C803 1.491 . S
C809 C808 1.400 . S
C809 C810 1.398 . S
C810 H798 0.950 . S
C810 C809 1.398 . S
C810 C811 1.391 . S
C811 H799 0.950 . S
C811 C807 1.393 . S
C811 C810 1.391 . S
H812 C820 0.950 . S
H813 C825 0.950 . S
H814 C822 0.950 . S
H815 C824 0.950 . S
H816 C826 0.950 . S
H817 C828 0.950 . S
H818 C830 0.950 . S
H819 C831 0.950 . S
C820 H812 0.950 . S
C820 C821 1.386 . S
C820 C822 1.391 . S
C821 C820 1.386 . S
C821 C825 1.393 . S
C822 H814 0.950 . S
C822 C820 1.391 . S
C822 C823 1.400 . S
C823 C822 1.400 . S
C823 C824 1.398 . S
C823 C829 1.491 . S
C824 H815 0.950 . S
C824 C823 1.398 . S
C824 C825 1.391 . S
C825 H813 0.950 . S
C825 C821 1.393 . S
C825 C824 1.391 . S
C826 H816 0.950 . S
C826 C827 1.386 . S
C826 C828 1.391 . S
C827 C826 1.386 . S
C827 C831 1.393 . S
C828 H817 0.950 . S
C828 C826 1.391 . S
C828 C829 1.400 1_556 S
C829 C823 1.491 . S
C829 C828 1.400 1_554 S
C829 C830 1.398 . S
C830 H818 0.950 . S
C830 C829 1.398 . S
C830 C831 1.391 1_554 S
C831 H819 0.950 . S
C831 C827 1.393 . S
C831 C830 1.391 1_556 S
H832 C840 0.950 . S
H833 C845 0.950 . S
H834 C842 0.950 . S
H835 C844 0.950 . S
H836 C846 0.950 . S
H837 C848 0.950 . S
H838 C850 0.950 . S
H839 C851 0.950 . S
C840 H832 0.950 . S
C840 C841 1.386 . S
C840 C842 1.391 . S
C841 C840 1.386 . S
C841 C845 1.393 . S
C842 H834 0.950 . S
C842 C840 1.391 . S
C842 C843 1.400 . S
C843 C842 1.400 . S
C843 C844 1.398 . S
C843 C849 1.491 . S
C844 H835 0.950 . S
C844 C843 1.398 . S
C844 C845 1.391 . S
C845 H833 0.950 . S
C845 C841 1.393 . S
C845 C844 1.391 . S
C846 H836 0.950 . S
C846 C847 1.386 . S
C846 C848 1.391 . S
C847 C846 1.386 . S
C847 C851 1.393 . S
C848 H837 0.950 . S
C848 C846 1.391 . S
C848 C849 1.400 . S
C849 C843 1.491 . S
C849 C848 1.400 . S
C849 C850 1.398 . S
C850 H838 0.950 . S
C850 C849 1.398 . S
C850 C851 1.391 . S
C851 H839 0.950 . S
C851 C847 1.393 . S
C851 C850 1.391 . S
C387 C365 1.569 . S
C381 C45 1.570 . S
C401 C84 1.474 . S
C407 C299 1.464 . S
C421 C126 1.374 . S
C427 C313 1.391 . S
C441 C189 1.489 . S
C447 C327 1.456 . S
C467 C341 1.515 . S
C461 C228 1.531 . S
C481 C270 1.505 . S
C487 C351 1.539 . S
C501 C69 1.560 . S
C507 C309 1.583 . S
C521 C141 1.653 . S
C527 C323 1.658 . S
C541 C174 1.558 . S
C547 C337 1.598 . S
C567 C355 1.485 . S
C561 C213 1.488 . S
C587 C369 1.514 . S
C581 C285 1.537 . S
C607 C295 1.550 . S
C601 C30 1.511 . S
C621 C36 1.505 . S
C627 C310 1.442 . S
C641 C93 1.582 . S
C647 C324 1.524 . S
C667 C338 1.532 . S
C661 C117 1.584 . S
C681 C180 1.476 . S
C687 C357 1.418 . S
C707 C371 1.386 . S
C701 C237 1.452 . S
C727 C296 1.425 . S
C721 C261 1.478 . S
C747 C366 1.407 . S
C741 C78 1.468 . S
C761 C132 1.373 . S
C767 C301 1.328 . S
C787 C315 1.321 . S
C781 C165 1.380 . S
C801 C222 1.446 . S
C807 C329 1.407 . S
C821 C276 1.481 . S
C827 C343 1.405 . S
C841 C21 1.500 . S
C847 C352 1.441 . S
