# Generated by pormake.
# Topology nom, (4,4)-cn, num edge types: 1
# Building blocks:
#     Node 0, Type 0, BuildingBlock: MUDLON_clean_linker_0, # of connection points: 4
#     Node 1, Type 0, BuildingBlock: MUDLON_clean_linker_0, # of connection points: 4
#     Node 2, Type 0, BuildingBlock: MUDLON_clean_linker_0, # of connection points: 4
#     Node 3, Type 0, BuildingBlock: MUDLON_clean_linker_0, # of connection points: 4
#     Node 4, Type 0, BuildingBlock: MUDLON_clean_linker_0, # of connection points: 4
#     Node 5, Type 0, BuildingBlock: MUDLON_clean_linker_0, # of connection points: 4
#     Node 6, Type 1, BuildingBlock: TATPOV_clean_sbu_0, # of connection points: 4
#     Node 7, Type 1, BuildingBlock: TATPOV_clean_sbu_0, # of connection points: 4
#     Node 8, Type 1, BuildingBlock: TATPOV_clean_sbu_0, # of connection points: 4
#     Node 9, Type 1, BuildingBlock: TATPOV_clean_sbu_0, # of connection points: 4
#     Node 10, Type 1, BuildingBlock: TATPOV_clean_sbu_0, # of connection points: 4
#     Node 11, Type 1, BuildingBlock: TATPOV_clean_sbu_0, # of connection points: 4
#     Edge 12, Type (0, 1), None
#     Edge 13, Type (0, 1), None
#     Edge 14, Type (0, 1), None
#     Edge 15, Type (0, 1), None
#     Edge 16, Type (0, 1), None
#     Edge 17, Type (0, 1), None
#     Edge 18, Type (0, 1), None
#     Edge 19, Type (0, 1), None
#     Edge 20, Type (0, 1), None
#     Edge 21, Type (0, 1), None
#     Edge 22, Type (0, 1), None
#     Edge 23, Type (0, 1), None
#     Edge 24, Type (0, 1), None
#     Edge 25, Type (0, 1), None
#     Edge 26, Type (0, 1), None
#     Edge 27, Type (0, 1), None
#     Edge 28, Type (0, 1), None
#     Edge 29, Type (0, 1), None
#     Edge 30, Type (0, 1), None
#     Edge 31, Type (0, 1), None
#     Edge 32, Type (0, 1), None
#     Edge 33, Type (0, 1), None
#     Edge 34, Type (0, 1), None
#     Edge 35, Type (0, 1), None
# Relax obj value: 0.027
# Max RMSD: 0.124
# Mean RMSD: 0.106
data_MOF--net-nom--node1-TATPOV_clean_sbu_0--node2-MUDLON_clean_linker_0--edge1-none
_symmetry_space_group_name_H-M    P1
_symmetry_Int_Tables_number       1
_symmetry_cell_setting            triclinic
loop_
_symmetry_equiv_pos_as_xyz
'x, y, z'
_cell_length_a     35.642143
_cell_length_b     36.782684
_cell_length_c     34.616809
_cell_angle_alpha  90.633263
_cell_angle_beta   90.316041
_cell_angle_gamma 120.44393
loop_
_atom_site_label
_atom_site_type_symbol
_atom_site_fract_x
_atom_site_fract_y
_atom_site_fract_z
_atom_type_partial_charge
H0 H 0.22793 0.56287 0.32629 0.0
N1 N 0.15137 0.54025 0.3577 0.0
H2 H 0.2687 0.62027 0.28143 0.0
H3 H 0.11926 0.58326 0.31785 0.0
H4 H 0.16011 0.64137 0.27381 0.0
H5 H 0.14424 0.60748 0.3831 0.0
H6 H 0.16718 0.6433 0.44497 0.0
H7 H 0.18818 0.52236 0.41643 0.0
H8 H 0.21222 0.55911 0.47943 0.0
H9 H 0.11451 0.4789 0.30409 0.0
H10 H 0.08154 0.53333 0.40027 0.0
H11 H 0.03666 0.43432 0.28833 0.0
H12 H 0.00576 0.48958 0.38458 0.0
H13 H 0.76983 0.31365 0.25163 0.0
H14 H 0.74463 0.31408 0.18567 0.0
H15 H 0.85597 0.4386 0.17025 0.0
H16 H 0.8806 0.43814 0.23532 0.0
H17 H 0.82513 0.44644 0.27803 0.0
H18 H 0.78068 0.46647 0.31491 0.0
H19 H 0.73977 0.3584 0.38764 0.0
H20 H 0.78647 0.33924 0.35126 0.0
H21 H 0.88347 0.34169 0.29656 0.0
H22 H 0.96101 0.37564 0.3152 0.0
H23 H 0.96646 0.49524 0.32594 0.0
N24 N 0.8351 0.3779 0.29006 0.0
H25 H 0.89104 0.46239 0.30741 0.0
C26 C 0.17095 0.56906 0.32599 0.0
C27 C 0.21258 0.57917 0.3141 0.0
C28 C 0.23576 0.61203 0.28844 0.0
C29 C 0.2179 0.63591 0.27447 0.0
C30 C 0.17495 0.62387 0.28424 0.0
C31 C 0.15157 0.59061 0.30955 0.0
C32 C 0.16471 0.5621 0.39476 0.0
C33 C 0.15923 0.59661 0.40357 0.0
C34 C 0.17186 0.61683 0.43946 0.0
C35 C 0.19128 0.6039 0.46733 0.0
C36 C 0.19707 0.56962 0.45863 0.0
C37 C 0.18358 0.54874 0.42269 0.0
C38 C 0.10501 0.51094 0.35248 0.0
C39 C 0.09089 0.48108 0.32202 0.0
C40 C 0.04652 0.45548 0.31317 0.0
C41 C 0.01549 0.45924 0.33487 0.0
C42 C 0.02922 0.48684 0.36686 0.0
C43 C 0.07325 0.51235 0.37564 0.0
C44 C 0.82678 0.37579 0.2489 0.0
C45 C 0.78938 0.34046 0.23352 0.0
C46 C 0.77507 0.34075 0.19585 0.0
C47 C 0.79797 0.37666 0.173 0.0
C48 C 0.83731 0.41062 0.18729 0.0
C49 C 0.85158 0.41028 0.22476 0.0
C50 C 0.80948 0.39117 0.31198 0.0
C51 C 0.80742 0.42727 0.30227 0.0
C52 C 0.78214 0.43902 0.32365 0.0
C53 C 0.75712 0.41428 0.35441 0.0
C54 C 0.75909 0.37827 0.36424 0.0
C55 C 0.78546 0.36715 0.34343 0.0
C56 C 0.88061 0.39883 0.30125 0.0
C57 C 0.90151 0.37519 0.30312 0.0
C58 C 0.94564 0.39454 0.31354 0.0
C59 C 0.96932 0.43786 0.32256 0.0
C60 C 0.94866 0.46158 0.32001 0.0
C61 C 0.90503 0.44249 0.3094 0.0
H62 H 0.43698 0.80318 0.46802 0.0
N63 N 0.43996 0.86989 0.43631 0.0
H64 H 0.38397 0.75474 0.5139 0.0
H65 H 0.37846 0.88078 0.4734 0.0
H66 H 0.3242 0.83174 0.51841 0.0
H67 H 0.36551 0.8644 0.40675 0.0
H68 H 0.33207 0.83546 0.34418 0.0
H69 H 0.47154 0.84422 0.37949 0.0
H70 H 0.43779 0.8145 0.31625 0.0
H71 H 0.50144 0.90773 0.49014 0.0
H72 H 0.43272 0.93421 0.40192 0.0
H73 H 0.53904 0.98162 0.51057 0.0
H74 H 0.4718 0.00772 0.42048 0.0
H75 H 0.65396 0.21609 0.57292 0.0
H76 H 0.6436 0.23403 0.63876 0.0
H77 H 0.50425 0.1645 0.61976 0.0
H78 H 0.51492 0.14675 0.55456 0.0
H79 H 0.54007 0.20703 0.51031 0.0
H80 H 0.54859 0.25953 0.46331 0.0
H81 H 0.6587 0.25692 0.41487 0.0
H82 H 0.65092 0.20545 0.46294 0.0
H83 H 0.62688 0.12346 0.51789 0.0
H84 H 0.59202 0.05032 0.49476 0.0
H85 H 0.4745 0.05316 0.46925 0.0
N86 N 0.59349 0.17347 0.51912 0.0
H87 H 0.51082 0.12685 0.48974 0.0
C88 C 0.41105 0.84483 0.4666 0.0
C89 C 0.41289 0.80989 0.47952 0.0
C90 C 0.38265 0.78241 0.50592 0.0
C91 C 0.34942 0.78904 0.51955 0.0
C92 C 0.34916 0.82555 0.50831 0.0
C93 C 0.3799 0.85339 0.48227 0.0
C94 C 0.42119 0.85635 0.39801 0.0
C95 C 0.38184 0.85397 0.38723 0.0
C96 C 0.36282 0.83763 0.35112 0.0
C97 C 0.38217 0.82254 0.32515 0.0
C98 C 0.42205 0.8259 0.33554 0.0
C99 C 0.44137 0.8428 0.37161 0.0
C100 C 0.46383 0.91469 0.4448 0.0
C101 C 0.49491 0.92949 0.47481 0.0
C102 C 0.5166 0.97185 0.48625 0.0
C103 C 0.50832 0.00075 0.46733 0.0
C104 C 0.47823 0.98623 0.43639 0.0
C105 C 0.4559 0.94371 0.42547 0.0
C106 C 0.58553 0.18058 0.55855 0.0
C107 C 0.62124 0.20436 0.58326 0.0
C108 C 0.61516 0.2143 0.62092 0.0
C109 C 0.57304 0.20081 0.63453 0.0
C110 C 0.53713 0.17543 0.61024 0.0
C111 C 0.54326 0.16533 0.57269 0.0
C112 C 0.59585 0.20314 0.4909 0.0
C113 C 0.56622 0.21779 0.48985 0.0
C114 C 0.57081 0.24759 0.46263 0.0
C115 C 0.60432 0.26242 0.43541 0.0
C116 C 0.6324 0.24604 0.43531 0.0
C117 C 0.6283 0.21693 0.46294 0.0
C118 C 0.57132 0.13024 0.50605 0.0
C119 C 0.59362 0.10807 0.5072 0.0
C120 C 0.57349 0.06625 0.49421 0.0
C121 C 0.53027 0.04561 0.48028 0.0
C122 C 0.50799 0.06809 0.47919 0.0
C123 C 0.52847 0.11014 0.49152 0.0
H124 H 0.49089 0.69979 0.61298 0.0
N125 N 0.47507 0.64943 0.6727 0.0
H126 H 0.43778 0.70284 0.56998 0.0
H127 H 0.38655 0.59402 0.67111 0.0
H128 H 0.33349 0.59768 0.62923 0.0
H129 H 0.43573 0.57822 0.71738 0.0
H130 H 0.4072 0.5729 0.78138 0.0
H131 H 0.48451 0.71222 0.7186 0.0
H132 H 0.45503 0.70693 0.78352 0.0
H133 H 0.55979 0.67712 0.67301 0.0
H134 H 0.43517 0.56712 0.64693 0.0
H135 H 0.59583 0.63721 0.65787 0.0
H136 H 0.47029 0.52645 0.63388 0.0
H137 H 0.68438 0.5328 0.578 0.0
H138 H 0.69752 0.52175 0.51055 0.0
H139 H 0.58145 0.39846 0.51058 0.0
H140 H 0.56789 0.41011 0.57696 0.0
H141 H 0.53553 0.41836 0.63907 0.0
H142 H 0.51458 0.35604 0.67791 0.0
H143 H 0.65032 0.40176 0.70371 0.0
H144 H 0.6708 0.46371 0.66446 0.0
H145 H 0.64116 0.54269 0.67339 0.0
H146 H 0.60607 0.58425 0.68407 0.0
H147 H 0.51413 0.51449 0.59173 0.0
N148 N 0.619 0.48042 0.62257 0.0
H149 H 0.54777 0.47164 0.58304 0.0
C150 C 0.44294 0.64749 0.64579 0.0
C151 C 0.45661 0.67705 0.61622 0.0
C152 C 0.42622 0.67859 0.59164 0.0
C153 C 0.38141 0.65074 0.59654 0.0
C154 C 0.36778 0.6198 0.625 0.0
C155 C 0.39821 0.61786 0.64915 0.0
C156 C 0.46257 0.6459 0.71279 0.0
C157 C 0.44124 0.60683 0.73153 0.0
C158 C 0.4246 0.60374 0.76844 0.0
C159 C 0.42845 0.63943 0.78752 0.0
C160 C 0.45151 0.67882 0.76963 0.0
C161 C 0.46835 0.68192 0.73258 0.0
C162 C 0.49498 0.62529 0.66128 0.0
C163 C 0.54028 0.64436 0.66399 0.0
C164 C 0.56069 0.62133 0.6557 0.0
C165 C 0.53599 0.57838 0.64499 0.0
C166 C 0.49051 0.55953 0.64149 0.0
C167 C 0.47024 0.58279 0.64921 0.0
C168 C 0.62576 0.47223 0.583 0.0
C169 C 0.66187 0.50343 0.56335 0.0
C170 C 0.6692 0.49712 0.52484 0.0
C171 C 0.64065 0.45911 0.50533 0.0
C172 C 0.60429 0.42793 0.52492 0.0
C173 C 0.59662 0.43454 0.56316 0.0
C174 C 0.60498 0.44551 0.6485 0.0
C175 C 0.56073 0.4153 0.65357 0.0
C176 C 0.54875 0.37968 0.67596 0.0
C177 C 0.58073 0.37368 0.69378 0.0
C178 C 0.62476 0.40521 0.69037 0.0
C179 C 0.63665 0.4406 0.66785 0.0
C180 C 0.59755 0.50448 0.6273 0.0
C181 C 0.61339 0.53649 0.65557 0.0
C182 C 0.5935 0.56043 0.66132 0.0
C183 C 0.55741 0.55308 0.63853 0.0
C184 C 0.54151 0.52081 0.61014 0.0
C185 C 0.56106 0.49647 0.60482 0.0
H186 H 0.21018 0.68346 0.82701 0.0
N187 N 0.1449 0.6231 0.78581 0.0
H188 H 0.26574 0.6783 0.86403 0.0
H189 H 0.14506 0.55007 0.8015 0.0
H190 H 0.20106 0.54474 0.83745 0.0
H191 H 0.17362 0.58165 0.73844 0.0
H192 H 0.20198 0.60157 0.67366 0.0
H193 H 0.14613 0.68313 0.74263 0.0
H194 H 0.17322 0.70238 0.67657 0.0
H195 H 0.09714 0.6327 0.83877 0.0
H196 H 0.09049 0.54751 0.74881 0.0
H197 H 0.02195 0.58208 0.85649 0.0
H198 H 0.01547 0.4971 0.76614 0.0
H199 H 0.84432 0.4735 0.89681 0.0
H200 H 0.81421 0.4743 0.96 0.0
H201 H 0.77837 0.34425 0.97563 0.0
H202 H 0.80941 0.34407 0.91287 0.0
H203 H 0.79891 0.32968 0.82837 0.0
H204 H 0.73164 0.30124 0.78992 0.0
H205 H 0.73895 0.42205 0.79821 0.0
H206 H 0.8065 0.45026 0.83572 0.0
H207 H 0.91539 0.45398 0.90653 0.0
H208 H 0.98654 0.50906 0.88584 0.0
H209 H 0.94052 0.48893 0.7677 0.0
N210 N 0.84345 0.40555 0.86184 0.0
H211 H 0.86924 0.43412 0.78783 0.0
C212 C 0.17403 0.61756 0.81093 0.0
C213 C 0.20771 0.65302 0.82978 0.0
C214 C 0.23943 0.64992 0.85086 0.0
C215 C 0.23838 0.61122 0.85307 0.0
C216 C 0.203 0.57506 0.8362 0.0
C217 C 0.171 0.57814 0.81542 0.0
C218 C 0.15833 0.63148 0.74597 0.0
C219 C 0.17354 0.60822 0.72558 0.0
C220 C 0.18982 0.61964 0.68831 0.0
C221 C 0.19031 0.65384 0.67015 0.0
C222 C 0.17342 0.67595 0.68985 0.0
C223 C 0.15789 0.665 0.7275 0.0
C224 C 0.09937 0.5942 0.79241 0.0
C225 C 0.0792 0.60337 0.82251 0.0
C226 C 0.03649 0.5744 0.83271 0.0
C227 C 0.01298 0.53569 0.81271 0.0
C228 C 0.03271 0.52692 0.78176 0.0
C229 C 0.07565 0.55577 0.77183 0.0
C230 C 0.82966 0.4087 0.90036 0.0
C231 C 0.83048 0.44535 0.91405 0.0
C232 C 0.81315 0.44575 0.95013 0.0
C233 C 0.79369 0.40928 0.97267 0.0
C234 C 0.79288 0.37279 0.95885 0.0
C235 C 0.8109 0.37268 0.92321 0.0
C236 C 0.80728 0.39171 0.83522 0.0
C237 C 0.78628 0.35008 0.82117 0.0
C238 C 0.74795 0.33398 0.79928 0.0
C239 C 0.72978 0.3593 0.79148 0.0
C240 C 0.75193 0.40165 0.80413 0.0
C241 C 0.79047 0.41782 0.82566 0.0
C242 C 0.88489 0.44099 0.84954 0.0
C243 C 0.91964 0.46213 0.87629 0.0
C244 C 0.96067 0.49361 0.86444 0.0
C245 C 0.96878 0.50377 0.82527 0.0
C246 C 0.93499 0.48201 0.79817 0.0
C247 C 0.89377 0.45084 0.81002 0.0
H248 H 0.49374 0.20924 1.00318 0.0
N249 N 0.50363 0.15895 0.95421 0.0
H250 H 0.54552 0.25685 0.05234 0.0
H251 H 0.5827 0.16711 0.97241 0.0
H252 H 0.63572 0.21638 0.01991 0.0
H253 H 0.57531 0.18003 0.90963 0.0
H254 H 0.58839 0.20871 0.84494 0.0
H255 H 0.44941 0.1699 0.90943 0.0
H256 H 0.46175 0.19753 0.84359 0.0
H257 H 0.42942 0.11232 0.99038 0.0
H258 H 0.5327 0.10566 0.93297 0.0
H259 H 0.39469 0.03748 0.00582 0.0
H260 H 0.49795 0.03049 0.94772 0.0
H261 H 0.28193 0.8159 0.04287 0.0
H262 H 0.26381 0.78669 0.10816 0.0
H263 H 0.39751 0.82013 0.12655 0.0
H264 H 0.4158 0.85143 0.06266 0.0
H265 H 0.42679 0.83599 1.00274 0.0
H266 H 0.43437 0.79155 0.95439 0.0
H267 H 0.31606 0.76968 0.89799 0.0
H268 H 0.30791 0.81309 0.94755 0.0
H269 H 0.32133 0.8941 0.98795 0.0
H270 H 0.35679 0.96927 0.97359 0.0
H271 H 0.48159 0.98342 1.00302 0.0
N272 N 0.3588 0.85081 0.00862 0.0
H273 H 0.44568 0.90798 0.01668 0.0
C274 C 0.53477 0.18568 0.98333 0.0
C275 C 0.52453 0.21044 0.00699 0.0
C276 C 0.55399 0.23726 0.03524 0.0
C277 C 0.59474 0.24038 0.03984 0.0
C278 C 0.60463 0.21473 0.01681 0.0
C279 C 0.57455 0.187 0.98924 0.0
C280 C 0.51147 0.17337 0.91486 0.0
C281 C 0.55036 0.18389 0.89583 0.0
C282 C 0.55783 0.20033 0.85859 0.0
C283 C 0.52626 0.20578 0.83918 0.0
C284 C 0.48677 0.19384 0.85774 0.0
C285 C 0.47966 0.17805 0.89529 0.0
C286 C 0.48329 0.11436 0.96043 0.0
C287 C 0.44426 0.09444 0.98079 0.0
C288 C 0.42452 0.05173 0.98949 0.0
C289 C 0.44353 0.02797 0.97797 0.0
C290 C 0.48276 0.04803 0.9574 0.0
C291 C 0.50251 0.09091 0.94867 0.0
C292 C 0.34989 0.83501 0.04744 0.0
C293 C 0.30729 0.81708 0.06117 0.0
C294 C 0.29702 0.80045 0.09836 0.0
C295 C 0.32913 0.80061 0.12218 0.0
C296 C 0.37193 0.8189 0.10853 0.0
C297 C 0.3824 0.83663 0.07178 0.0
C298 C 0.36582 0.82672 0.97949 0.0
C299 C 0.40225 0.82148 0.98032 0.0
C300 C 0.40691 0.79644 0.95226 0.0
C301 C 0.37583 0.77706 0.92239 0.0
C302 C 0.34075 0.78434 0.92047 0.0
C303 C 0.33575 0.80873 0.94892 0.0
C304 C 0.38074 0.89563 1.00353 0.0
C305 C 0.35627 0.91364 0.99164 0.0
C306 C 0.37662 0.95654 0.98352 0.0
C307 C 0.42207 0.98238 0.98713 0.0
C308 C 0.4466 0.96428 0.9995 0.0
C309 C 0.42609 0.92124 0.00769 0.0
H310 H 0.53241 0.34369 0.14245 0.0
N311 N 0.53521 0.40641 0.18404 0.0
H312 H 0.59103 0.34477 0.10509 0.0
H313 H 0.61658 0.47491 0.17275 0.0
H314 H 0.67553 0.47609 0.13643 0.0
H315 H 0.58053 0.47869 0.22808 0.0
H316 H 0.60854 0.48405 0.29328 0.0
H317 H 0.51772 0.34314 0.23155 0.0
H318 H 0.54606 0.34819 0.29737 0.0
H319 H 0.5456 0.44499 0.11325 0.0
H320 H 0.48081 0.42497 0.22306 0.0
H321 H 0.52104 0.49265 0.09513 0.0
H322 H 0.45628 0.47331 0.20429 0.0
H323 H 0.38265 0.54162 0.06448 0.0
H324 H 0.35493 0.54048 0.99948 0.0
H325 H 0.44494 0.67454 0.99129 0.0
H326 H 0.47275 0.67517 0.05606 0.0
H327 H 0.48066 0.67855 0.15208 0.0
H328 H 0.44347 0.7078 0.18941 0.0
H329 H 0.31932 0.60194 0.15305 0.0
H330 H 0.35652 0.57329 0.11618 0.0
H331 H 0.52064 0.61699 0.09859 0.0
H332 H 0.54018 0.56467 0.11721 0.0
H333 H 0.40908 0.48283 0.15665 0.0
N334 N 0.44428 0.61186 0.10463 0.0
H335 H 0.38987 0.53526 0.13812 0.0
C336 C 0.57017 0.40875 0.16103 0.0
C337 C 0.56353 0.37267 0.141 0.0
C338 C 0.5971 0.37345 0.11963 0.0
C339 C 0.63821 0.41043 0.11804 0.0
C340 C 0.64436 0.44707 0.13703 0.0
C341 C 0.61079 0.44627 0.15836 0.0
C342 C 0.5471 0.41033 0.22465 0.0
C343 C 0.5722 0.44995 0.24307 0.0
C344 C 0.58812 0.45295 0.28059 0.0
C345 C 0.57985 0.41654 0.30056 0.0
C346 C 0.55295 0.37686 0.28291 0.0
C347 C 0.53682 0.37388 0.2453 0.0
C348 C 0.51879 0.43365 0.17149 0.0
C349 C 0.52727 0.45141 0.13425 0.0
C350 C 0.5128 0.47867 0.12346 0.0
C351 C 0.48809 0.48788 0.14881 0.0
C352 C 0.47603 0.4674 0.18442 0.0
C353 C 0.49064 0.44014 0.19535 0.0
C354 C 0.43019 0.60865 0.065 0.0
C355 C 0.39698 0.5706 0.04846 0.0
C356 C 0.38098 0.56999 0.01131 0.0
C357 C 0.39748 0.60745 0.99035 0.0
C358 C 0.43127 0.64515 0.00674 0.0
C359 C 0.44745 0.64561 0.04359 0.0
C360 C 0.42154 0.62398 0.1313 0.0
C361 C 0.44544 0.66132 0.15303 0.0
C362 C 0.42416 0.67798 0.17418 0.0
C363 C 0.37848 0.65747 0.17369 0.0
C364 C 0.35457 0.61874 0.15371 0.0
C365 C 0.37585 0.60212 0.13272 0.0
C366 C 0.45412 0.58036 0.11711 0.0
C367 C 0.49624 0.5878 0.11138 0.0
C368 C 0.50719 0.55781 0.12179 0.0
C369 C 0.47607 0.51961 0.13825 0.0
C370 C 0.43381 0.51216 0.14433 0.0
C371 C 0.4228 0.54219 0.13367 0.0
Zn372 Zn 0.68062 0.46792 0.38829 0.0
Zn373 Zn 0.63097 0.38367 0.4017 0.0
O374 O 0.68983 0.39272 0.38483 0.0
O375 O 0.73037 0.45988 0.37104 0.0
O376 O 0.6006 0.32343 0.4201 0.0
O377 O 0.67476 0.48201 0.44417 0.0
O378 O 0.63006 0.41403 0.45135 0.0
C379 C 0.72522 0.42323 0.37253 0.0
C380 C 0.60394 0.4207 0.337 0.0
O381 O 0.59753 0.38805 0.35517 0.0
O382 O 0.63472 0.45698 0.34728 0.0
C383 C 0.61324 0.298 0.41011 0.0
O384 O 0.64134 0.3083 0.38205 0.0
C385 C 0.64885 0.45154 0.46497 0.0
Zn386 Zn 0.22332 0.70007 0.55594 0.0
Zn387 Zn 0.27103 0.66288 0.56983 0.0
O388 O 0.31301 0.7222 0.5499 0.0
O389 O 0.27693 0.75564 0.54282 0.0
O390 O 0.31139 0.64305 0.5884 0.0
O391 O 0.19818 0.68776 0.60995 0.0
O392 O 0.23523 0.65547 0.6186 0.0
C393 C 0.31206 0.75505 0.54029 0.0
C394 C 0.2081 0.62859 0.50376 0.0
O395 O 0.23584 0.62526 0.52445 0.0
O396 O 0.19779 0.65611 0.51211 0.0
C397 C 0.34918 0.65669 0.57474 0.0
O398 O 0.36127 0.6814 0.54469 0.0
C399 C 0.20873 0.66639 0.63105 0.0
Zn400 Zn 0.51905 0.24372 0.72377 0.0
Zn401 Zn 0.60568 0.27707 0.73983 0.0
O402 O 0.59954 0.32645 0.72213 0.0
O403 O 0.53006 0.30256 0.71103 0.0
O404 O 0.66826 0.30441 0.75736 0.0
O405 O 0.50405 0.21968 0.7784 0.0
O406 O 0.57399 0.24484 0.78821 0.0
C407 C 0.56918 0.33277 0.71136 0.0
C408 C 0.56693 0.21744 0.67166 0.0
O409 O 0.59984 0.2409 0.69308 0.0
O410 O 0.52988 0.21253 0.67955 0.0
C411 C 0.68642 0.34098 0.77296 0.0
O412 O 0.66445 0.36071 0.77592 0.0
C413 C 0.535 0.22426 0.80006 0.0
Zn414 Zn 0.3354 0.58022 0.87986 0.0
Zn415 Zn 0.37503 0.66613 0.88963 0.0
O416 O 0.31146 0.64467 0.87587 0.0
O417 O 0.27686 0.57572 0.86901 0.0
O418 O 0.39533 0.7256 0.90795 0.0
O419 O 0.35409 0.57392 0.93391 0.0
O420 O 0.38888 0.64316 0.93739 0.0
C421 C 0.27669 0.61007 0.86827 0.0
C422 C 0.40478 0.63431 0.82393 0.0
O423 O 0.40842 0.66633 0.84207 0.0
O424 O 0.37809 0.59725 0.83514 0.0
C425 C 0.37669 0.74529 0.89642 0.0
O426 O 0.35035 0.73063 0.8663 0.0
C427 C 0.37921 0.60796 0.95204 0.0
Zn428 Zn 0.76356 0.4361 0.08343 0.0
Zn429 Zn 0.71108 0.35125 0.0744 0.0
O430 O 0.67173 0.37421 0.09106 0.0
O431 O 0.71239 0.4429 0.0987 0.0
O432 O 0.66783 0.2917 0.05614 0.0
O433 O 0.78555 0.44317 0.02849 0.0
O434 O 0.74805 0.37389 0.02581 0.0
C435 C 0.67555 0.4095 0.10038 0.0
C436 C 0.77835 0.3817 0.13721 0.0
O437 O 0.74591 0.35008 0.12082 0.0
O438 O 0.79148 0.41882 0.1255 0.0
C439 C 0.628 0.27341 0.06561 0.0
O440 O 0.61601 0.28995 0.09322 0.0
C441 C 0.77461 0.40897 0.01059 0.0
Zn442 Zn 0.28107 0.76213 0.23621 0.0
Zn443 Zn 0.34012 0.73738 0.22591 0.0
O444 O 0.28486 0.68634 0.2463 0.0
O445 O 0.23367 0.70267 0.25023 0.0
O446 O 0.37606 0.71157 0.21091 0.0
O447 O 0.28909 0.78333 0.18077 0.0
O448 O 0.33962 0.76611 0.17547 0.0
C449 C 0.246 0.67612 0.25444 0.0
C450 C 0.35859 0.7998 0.28936 0.0
O451 O 0.37139 0.77847 0.27014 0.0
O452 O 0.32325 0.79833 0.28015 0.0
C453 C 0.35562 0.6776 0.19104 0.0
O454 O 0.3142 0.66248 0.18302 0.0
C455 C 0.31844 0.78222 0.16121 0.0
loop_
_geom_bond_atom_site_label_1
_geom_bond_atom_site_label_2
_geom_bond_distance
_geom_bond_site_symmetry_2
_ccdc_geom_bond_type
H0 C27 0.929 . S
N1 C26 1.433 . S
N1 C32 1.435 . S
N1 C38 1.423 . S
H2 C28 0.930 . S
H3 C31 0.931 . S
H4 C30 0.929 . S
H5 C33 0.930 . S
H6 C34 0.932 . S
H7 C37 0.929 . S
H8 C36 0.931 . S
H9 C39 0.929 . S
H10 C43 0.932 . S
H11 C40 0.931 . S
H12 C42 0.929 . S
H13 C45 0.929 . S
H14 C46 0.930 . S
H15 C48 0.929 . S
H16 C49 0.931 . S
H17 C51 0.930 . S
H18 C52 0.932 . S
H19 C54 0.931 . S
H20 C55 0.929 . S
H21 C57 0.929 . S
H22 C58 0.931 . S
H23 C60 0.929 . S
N24 C44 1.433 . S
N24 C50 1.435 . S
N24 C56 1.423 . S
H25 C61 0.932 . S
C26 N1 1.433 . S
C26 C27 1.363 . S
C26 C31 1.370 . S
C27 H0 0.929 . S
C27 C26 1.363 . S
C27 C28 1.385 . S
C28 H2 0.930 . S
C28 C27 1.385 . S
C28 C29 1.357 . S
C29 C28 1.357 . S
C29 C30 1.406 . S
C30 H4 0.929 . S
C30 C29 1.406 . S
C30 C31 1.391 . S
C31 H3 0.931 . S
C31 C26 1.370 . S
C31 C30 1.391 . S
C32 N1 1.435 . S
C32 C33 1.358 . S
C32 C37 1.371 . S
C33 H5 0.930 . S
C33 C32 1.358 . S
C33 C34 1.405 . S
C34 H6 0.932 . S
C34 C33 1.405 . S
C34 C35 1.383 . S
C35 C34 1.383 . S
C35 C36 1.393 . S
C36 H8 0.931 . S
C36 C35 1.393 . S
C36 C37 1.382 . S
C37 H7 0.929 . S
C37 C32 1.371 . S
C37 C36 1.382 . S
C38 N1 1.423 . S
C38 C39 1.362 . S
C38 C43 1.388 . S
C39 H9 0.929 . S
C39 C38 1.362 . S
C39 C40 1.376 . S
C40 H11 0.931 . S
C40 C39 1.376 . S
C40 C41 1.396 . S
C41 C40 1.396 . S
C41 C42 1.348 . S
C41 C59 1.472 1_455 S
C42 H12 0.929 . S
C42 C41 1.348 . S
C42 C43 1.443 . S
C43 H10 0.932 . S
C43 C38 1.388 . S
C43 C42 1.443 . S
C44 N24 1.433 . S
C44 C45 1.363 . S
C44 C49 1.370 . S
C45 H13 0.929 . S
C45 C44 1.363 . S
C45 C46 1.385 . S
C46 H14 0.930 . S
C46 C45 1.385 . S
C46 C47 1.357 . S
C47 C46 1.357 . S
C47 C48 1.406 . S
C48 H15 0.929 . S
C48 C47 1.406 . S
C48 C49 1.391 . S
C49 H16 0.931 . S
C49 C44 1.370 . S
C49 C48 1.391 . S
C50 N24 1.435 . S
C50 C51 1.358 . S
C50 C55 1.371 . S
C51 H17 0.930 . S
C51 C50 1.358 . S
C51 C52 1.405 . S
C52 H18 0.932 . S
C52 C51 1.405 . S
C52 C53 1.383 . S
C53 C52 1.383 . S
C53 C54 1.393 . S
C54 H19 0.931 . S
C54 C53 1.393 . S
C54 C55 1.382 . S
C55 H20 0.929 . S
C55 C50 1.371 . S
C55 C54 1.382 . S
C56 N24 1.423 . S
C56 C57 1.362 . S
C56 C61 1.388 . S
C57 H21 0.929 . S
C57 C56 1.362 . S
C57 C58 1.376 . S
C58 H22 0.931 . S
C58 C57 1.376 . S
C58 C59 1.396 . S
C59 C41 1.472 1_655 S
C59 C58 1.396 . S
C59 C60 1.348 . S
C60 H23 0.929 . S
C60 C59 1.348 . S
C60 C61 1.443 . S
C61 H25 0.932 . S
C61 C56 1.388 . S
C61 C60 1.443 . S
H62 C89 0.929 . S
N63 C88 1.433 . S
N63 C94 1.435 . S
N63 C100 1.423 . S
H64 C90 0.930 . S
H65 C93 0.931 . S
H66 C92 0.929 . S
H67 C95 0.930 . S
H68 C96 0.932 . S
H69 C99 0.929 . S
H70 C98 0.931 . S
H71 C101 0.929 . S
H72 C105 0.932 . S
H73 C102 0.931 . S
H74 C104 0.929 1_545 S
H75 C107 0.929 . S
H76 C108 0.930 . S
H77 C110 0.929 . S
H78 C111 0.931 . S
H79 C113 0.930 . S
H80 C114 0.932 . S
H81 C116 0.931 . S
H82 C117 0.929 . S
H83 C119 0.929 . S
H84 C120 0.931 . S
H85 C122 0.929 . S
N86 C106 1.433 . S
N86 C112 1.435 . S
N86 C118 1.423 . S
H87 C123 0.932 . S
C88 N63 1.433 . S
C88 C89 1.363 . S
C88 C93 1.370 . S
C89 H62 0.929 . S
C89 C88 1.363 . S
C89 C90 1.385 . S
C90 H64 0.930 . S
C90 C89 1.385 . S
C90 C91 1.357 . S
C91 C90 1.357 . S
C91 C92 1.406 . S
C92 H66 0.929 . S
C92 C91 1.406 . S
C92 C93 1.391 . S
C93 H65 0.931 . S
C93 C88 1.370 . S
C93 C92 1.391 . S
C94 N63 1.435 . S
C94 C95 1.358 . S
C94 C99 1.371 . S
C95 H67 0.930 . S
C95 C94 1.358 . S
C95 C96 1.405 . S
C96 H68 0.932 . S
C96 C95 1.405 . S
C96 C97 1.383 . S
C97 C96 1.383 . S
C97 C98 1.393 . S
C98 H70 0.931 . S
C98 C97 1.393 . S
C98 C99 1.382 . S
C99 H69 0.929 . S
C99 C94 1.371 . S
C99 C98 1.382 . S
C100 N63 1.423 . S
C100 C101 1.362 . S
C100 C105 1.388 . S
C101 H71 0.929 . S
C101 C100 1.362 . S
C101 C102 1.376 . S
C102 H73 0.931 . S
C102 C101 1.376 . S
C102 C103 1.374 1_565 S
C103 C102 1.374 1_545 S
C103 C104 1.348 1_545 S
C103 C121 1.493 . S
C104 H74 0.929 1_565 S
C104 C103 1.348 1_565 S
C104 C105 1.443 . S
C105 H72 0.932 . S
C105 C100 1.388 . S
C105 C104 1.443 . S
C106 N86 1.433 . S
C106 C107 1.363 . S
C106 C111 1.370 . S
C107 H75 0.929 . S
C107 C106 1.363 . S
C107 C108 1.385 . S
C108 H76 0.930 . S
C108 C107 1.385 . S
C108 C109 1.357 . S
C109 C108 1.357 . S
C109 C110 1.406 . S
C110 H77 0.929 . S
C110 C109 1.406 . S
C110 C111 1.391 . S
C111 H78 0.931 . S
C111 C106 1.370 . S
C111 C110 1.391 . S
C112 N86 1.435 . S
C112 C113 1.358 . S
C112 C117 1.371 . S
C113 H79 0.930 . S
C113 C112 1.358 . S
C113 C114 1.405 . S
C114 H80 0.932 . S
C114 C113 1.405 . S
C114 C115 1.383 . S
C115 C114 1.383 . S
C115 C116 1.393 . S
C116 H81 0.931 . S
C116 C115 1.393 . S
C116 C117 1.382 . S
C117 H82 0.929 . S
C117 C112 1.371 . S
C117 C116 1.382 . S
C118 N86 1.423 . S
C118 C119 1.362 . S
C118 C123 1.388 . S
C119 H83 0.929 . S
C119 C118 1.362 . S
C119 C120 1.376 . S
C120 H84 0.931 . S
C120 C119 1.376 . S
C120 C121 1.396 . S
C121 C103 1.493 . S
C121 C120 1.396 . S
C121 C122 1.348 . S
C122 H85 0.929 . S
C122 C121 1.348 . S
C122 C123 1.443 . S
C123 H87 0.932 . S
C123 C118 1.388 . S
C123 C122 1.443 . S
H124 C151 0.929 . S
N125 C150 1.433 . S
N125 C156 1.435 . S
N125 C162 1.423 . S
H126 C152 0.930 . S
H127 C155 0.931 . S
H128 C154 0.929 . S
H129 C157 0.930 . S
H130 C158 0.932 . S
H131 C161 0.929 . S
H132 C160 0.931 . S
H133 C163 0.929 . S
H134 C167 0.932 . S
H135 C164 0.931 . S
H136 C166 0.929 . S
H137 C169 0.929 . S
H138 C170 0.930 . S
H139 C172 0.929 . S
H140 C173 0.931 . S
H141 C175 0.930 . S
H142 C176 0.932 . S
H143 C178 0.931 . S
H144 C179 0.929 . S
H145 C181 0.929 . S
H146 C182 0.931 . S
H147 C184 0.929 . S
N148 C168 1.433 . S
N148 C174 1.435 . S
N148 C180 1.423 . S
H149 C185 0.932 . S
C150 N125 1.433 . S
C150 C151 1.363 . S
C150 C155 1.370 . S
C151 H124 0.929 . S
C151 C150 1.363 . S
C151 C152 1.385 . S
C152 H126 0.930 . S
C152 C151 1.385 . S
C152 C153 1.357 . S
C153 C152 1.357 . S
C153 C154 1.406 . S
C154 H128 0.929 . S
C154 C153 1.406 . S
C154 C155 1.391 . S
C155 H127 0.931 . S
C155 C150 1.370 . S
C155 C154 1.391 . S
C156 N125 1.435 . S
C156 C157 1.358 . S
C156 C161 1.371 . S
C157 H129 0.930 . S
C157 C156 1.358 . S
C157 C158 1.405 . S
C158 H130 0.932 . S
C158 C157 1.405 . S
C158 C159 1.383 . S
C159 C158 1.383 . S
C159 C160 1.393 . S
C160 H132 0.931 . S
C160 C159 1.393 . S
C160 C161 1.382 . S
C161 H131 0.929 . S
C161 C156 1.371 . S
C161 C160 1.382 . S
C162 N125 1.423 . S
C162 C163 1.362 . S
C162 C167 1.388 . S
C163 H133 0.929 . S
C163 C162 1.362 . S
C163 C164 1.376 . S
C164 H135 0.931 . S
C164 C163 1.376 . S
C164 C165 1.396 . S
C165 C164 1.396 . S
C165 C166 1.348 . S
C165 C183 1.472 . S
C166 H136 0.929 . S
C166 C165 1.348 . S
C166 C167 1.443 . S
C167 H134 0.932 . S
C167 C162 1.388 . S
C167 C166 1.443 . S
C168 N148 1.433 . S
C168 C169 1.363 . S
C168 C173 1.370 . S
C169 H137 0.929 . S
C169 C168 1.363 . S
C169 C170 1.385 . S
C170 H138 0.930 . S
C170 C169 1.385 . S
C170 C171 1.357 . S
C171 C170 1.357 . S
C171 C172 1.406 . S
C172 H139 0.929 . S
C172 C171 1.406 . S
C172 C173 1.391 . S
C173 H140 0.931 . S
C173 C168 1.370 . S
C173 C172 1.391 . S
C174 N148 1.435 . S
C174 C175 1.358 . S
C174 C179 1.371 . S
C175 H141 0.930 . S
C175 C174 1.358 . S
C175 C176 1.405 . S
C176 H142 0.932 . S
C176 C175 1.405 . S
C176 C177 1.383 . S
C177 C176 1.383 . S
C177 C178 1.393 . S
C178 H143 0.931 . S
C178 C177 1.393 . S
C178 C179 1.382 . S
C179 H144 0.929 . S
C179 C174 1.371 . S
C179 C178 1.382 . S
C180 N148 1.423 . S
C180 C181 1.362 . S
C180 C185 1.388 . S
C181 H145 0.929 . S
C181 C180 1.362 . S
C181 C182 1.376 . S
C182 H146 0.931 . S
C182 C181 1.376 . S
C182 C183 1.396 . S
C183 C165 1.472 . S
C183 C182 1.396 . S
C183 C184 1.348 . S
C184 H147 0.929 . S
C184 C183 1.348 . S
C184 C185 1.443 . S
C185 H149 0.932 . S
C185 C180 1.388 . S
C185 C184 1.443 . S
H186 C213 0.929 . S
N187 C212 1.433 . S
N187 C218 1.435 . S
N187 C224 1.423 . S
H188 C214 0.930 . S
H189 C217 0.931 . S
H190 C216 0.929 . S
H191 C219 0.930 . S
H192 C220 0.932 . S
H193 C223 0.929 . S
H194 C222 0.931 . S
H195 C225 0.929 . S
H196 C229 0.932 . S
H197 C226 0.931 . S
H198 C228 0.929 . S
H199 C231 0.929 . S
H200 C232 0.930 . S
H201 C234 0.929 . S
H202 C235 0.931 . S
H203 C237 0.930 . S
H204 C238 0.932 . S
H205 C240 0.931 . S
H206 C241 0.929 . S
H207 C243 0.929 . S
H208 C244 0.931 . S
H209 C246 0.929 . S
N210 C230 1.433 . S
N210 C236 1.435 . S
N210 C242 1.423 . S
H211 C247 0.932 . S
C212 N187 1.433 . S
C212 C213 1.363 . S
C212 C217 1.370 . S
C213 H186 0.929 . S
C213 C212 1.363 . S
C213 C214 1.385 . S
C214 H188 0.930 . S
C214 C213 1.385 . S
C214 C215 1.357 . S
C215 C214 1.357 . S
C215 C216 1.406 . S
C216 H190 0.929 . S
C216 C215 1.406 . S
C216 C217 1.391 . S
C217 H189 0.931 . S
C217 C212 1.370 . S
C217 C216 1.391 . S
C218 N187 1.435 . S
C218 C219 1.358 . S
C218 C223 1.371 . S
C219 H191 0.930 . S
C219 C218 1.358 . S
C219 C220 1.405 . S
C220 H192 0.932 . S
C220 C219 1.405 . S
C220 C221 1.383 . S
C221 C220 1.383 . S
C221 C222 1.393 . S
C222 H194 0.931 . S
C222 C221 1.393 . S
C222 C223 1.382 . S
C223 H193 0.929 . S
C223 C218 1.371 . S
C223 C222 1.382 . S
C224 N187 1.423 . S
C224 C225 1.362 . S
C224 C229 1.388 . S
C225 H195 0.929 . S
C225 C224 1.362 . S
C225 C226 1.376 . S
C226 H197 0.931 . S
C226 C225 1.376 . S
C226 C227 1.396 . S
C227 C226 1.396 . S
C227 C228 1.348 . S
C227 C245 1.472 1_455 S
C228 H198 0.929 . S
C228 C227 1.348 . S
C228 C229 1.443 . S
C229 H196 0.932 . S
C229 C224 1.388 . S
C229 C228 1.443 . S
C230 N210 1.433 . S
C230 C231 1.363 . S
C230 C235 1.370 . S
C231 H199 0.929 . S
C231 C230 1.363 . S
C231 C232 1.385 . S
C232 H200 0.930 . S
C232 C231 1.385 . S
C232 C233 1.357 . S
C233 C232 1.357 . S
C233 C234 1.406 . S
C234 H201 0.929 . S
C234 C233 1.406 . S
C234 C235 1.391 . S
C235 H202 0.931 . S
C235 C230 1.370 . S
C235 C234 1.391 . S
C236 N210 1.435 . S
C236 C237 1.358 . S
C236 C241 1.371 . S
C237 H203 0.930 . S
C237 C236 1.358 . S
C237 C238 1.405 . S
C238 H204 0.932 . S
C238 C237 1.405 . S
C238 C239 1.383 . S
C239 C238 1.383 . S
C239 C240 1.393 . S
C240 H205 0.931 . S
C240 C239 1.393 . S
C240 C241 1.382 . S
C241 H206 0.929 . S
C241 C236 1.371 . S
C241 C240 1.382 . S
C242 N210 1.423 . S
C242 C243 1.362 . S
C242 C247 1.388 . S
C243 H207 0.929 . S
C243 C242 1.362 . S
C243 C244 1.376 . S
C244 H208 0.931 . S
C244 C243 1.376 . S
C244 C245 1.396 . S
C245 C227 1.472 1_655 S
C245 C244 1.396 . S
C245 C246 1.348 . S
C246 H209 0.929 . S
C246 C245 1.348 . S
C246 C247 1.443 . S
C247 H211 0.932 . S
C247 C242 1.388 . S
C247 C246 1.443 . S
H248 C275 0.929 . S
N249 C274 1.433 . S
N249 C280 1.435 . S
N249 C286 1.423 . S
H250 C276 0.930 . S
H251 C279 0.931 . S
H252 C278 0.929 . S
H253 C281 0.930 . S
H254 C282 0.932 . S
H255 C285 0.929 . S
H256 C284 0.931 . S
H257 C287 0.929 . S
H258 C291 0.932 . S
H259 C288 0.931 . S
H260 C290 0.929 . S
H261 C293 0.929 . S
H262 C294 0.930 . S
H263 C296 0.929 . S
H264 C297 0.931 . S
H265 C299 0.930 . S
H266 C300 0.932 . S
H267 C302 0.931 . S
H268 C303 0.929 . S
H269 C305 0.929 . S
H270 C306 0.931 . S
H271 C308 0.929 . S
N272 C292 1.433 . S
N272 C298 1.435 1_554 S
N272 C304 1.423 . S
H273 C309 0.932 . S
C274 N249 1.433 . S
C274 C275 1.363 . S
C274 C279 1.370 . S
C275 H248 0.929 . S
C275 C274 1.363 . S
C275 C276 1.385 . S
C276 H250 0.930 . S
C276 C275 1.385 . S
C276 C277 1.357 1_556 S
C277 C276 1.357 1_554 S
C277 C278 1.406 . S
C278 H252 0.929 . S
C278 C277 1.406 . S
C278 C279 1.391 1_554 S
C279 H251 0.931 . S
C279 C274 1.370 . S
C279 C278 1.391 1_556 S
C280 N249 1.435 . S
C280 C281 1.358 . S
C280 C285 1.371 . S
C281 H253 0.930 . S
C281 C280 1.358 . S
C281 C282 1.405 . S
C282 H254 0.932 . S
C282 C281 1.405 . S
C282 C283 1.383 . S
C283 C282 1.383 . S
C283 C284 1.393 . S
C284 H256 0.931 . S
C284 C283 1.393 . S
C284 C285 1.382 . S
C285 H255 0.929 . S
C285 C280 1.371 . S
C285 C284 1.382 . S
C286 N249 1.423 . S
C286 C287 1.362 . S
C286 C291 1.388 . S
C287 H257 0.929 . S
C287 C286 1.362 . S
C287 C288 1.376 . S
C288 H259 0.931 . S
C288 C287 1.376 . S
C288 C289 1.396 . S
C289 C288 1.396 . S
C289 C290 1.348 . S
C289 C307 1.472 1_545 S
C290 H260 0.929 . S
C290 C289 1.348 . S
C290 C291 1.443 . S
C291 H258 0.932 . S
C291 C286 1.388 . S
C291 C290 1.443 . S
C292 N272 1.433 . S
C292 C293 1.363 . S
C292 C297 1.370 . S
C293 H261 0.929 . S
C293 C292 1.363 . S
C293 C294 1.385 . S
C294 H262 0.930 . S
C294 C293 1.385 . S
C294 C295 1.357 . S
C295 C294 1.357 . S
C295 C296 1.406 . S
C296 H263 0.929 . S
C296 C295 1.406 . S
C296 C297 1.391 . S
C297 H264 0.931 . S
C297 C292 1.370 . S
C297 C296 1.391 . S
C298 N272 1.435 1_556 S
C298 C299 1.358 1_556 S
C298 C303 1.371 . S
C299 H265 0.930 . S
C299 C298 1.358 1_554 S
C299 C300 1.405 1_554 S
C300 H266 0.932 . S
C300 C299 1.405 1_556 S
C300 C301 1.383 . S
C301 C300 1.383 . S
C301 C302 1.393 . S
C302 H267 0.931 . S
C302 C301 1.393 . S
C302 C303 1.382 . S
C303 H268 0.929 . S
C303 C298 1.371 . S
C303 C302 1.382 . S
C304 N272 1.423 . S
C304 C305 1.362 . S
C304 C309 1.388 1_554 S
C305 H269 0.929 . S
C305 C304 1.362 . S
C305 C306 1.376 . S
C306 H270 0.931 . S
C306 C305 1.376 . S
C306 C307 1.396 1_554 S
C307 C289 1.472 1_565 S
C307 C306 1.396 1_556 S
C307 C308 1.348 . S
C308 H271 0.929 . S
C308 C307 1.348 . S
C308 C309 1.443 . S
C309 H273 0.932 . S
C309 C304 1.388 1_556 S
C309 C308 1.443 . S
H310 C337 0.929 . S
N311 C336 1.433 . S
N311 C342 1.435 . S
N311 C348 1.423 . S
H312 C338 0.930 . S
H313 C341 0.931 . S
H314 C340 0.929 . S
H315 C343 0.930 . S
H316 C344 0.932 . S
H317 C347 0.929 . S
H318 C346 0.931 . S
H319 C349 0.929 . S
H320 C353 0.932 . S
H321 C350 0.931 . S
H322 C352 0.929 . S
H323 C355 0.929 . S
H324 C356 0.930 1_556 S
H325 C358 0.929 1_556 S
H326 C359 0.931 . S
H327 C361 0.930 . S
H328 C362 0.932 . S
H329 C364 0.931 . S
H330 C365 0.929 . S
H331 C367 0.929 . S
H332 C368 0.931 . S
H333 C370 0.929 . S
N334 C354 1.433 . S
N334 C360 1.435 . S
N334 C366 1.423 . S
H335 C371 0.932 . S
C336 N311 1.433 . S
C336 C337 1.363 . S
C336 C341 1.370 . S
C337 H310 0.929 . S
C337 C336 1.363 . S
C337 C338 1.385 . S
C338 H312 0.930 . S
C338 C337 1.385 . S
C338 C339 1.357 . S
C339 C338 1.357 . S
C339 C340 1.406 . S
C340 H314 0.929 . S
C340 C339 1.406 . S
C340 C341 1.391 . S
C341 H313 0.931 . S
C341 C336 1.370 . S
C341 C340 1.391 . S
C342 N311 1.435 . S
C342 C343 1.358 . S
C342 C347 1.371 . S
C343 H315 0.930 . S
C343 C342 1.358 . S
C343 C344 1.405 . S
C344 H316 0.932 . S
C344 C343 1.405 . S
C344 C345 1.383 . S
C345 C344 1.383 . S
C345 C346 1.393 . S
C346 H318 0.931 . S
C346 C345 1.393 . S
C346 C347 1.382 . S
C347 H317 0.929 . S
C347 C342 1.371 . S
C347 C346 1.382 . S
C348 N311 1.423 . S
C348 C349 1.362 . S
C348 C353 1.388 . S
C349 H319 0.929 . S
C349 C348 1.362 . S
C349 C350 1.376 . S
C350 H321 0.931 . S
C350 C349 1.376 . S
C350 C351 1.396 . S
C351 C350 1.396 . S
C351 C352 1.348 . S
C351 C369 1.472 . S
C352 H322 0.929 . S
C352 C351 1.348 . S
C352 C353 1.443 . S
C353 H320 0.932 . S
C353 C348 1.388 . S
C353 C352 1.443 . S
C354 N334 1.433 . S
C354 C355 1.363 . S
C354 C359 1.370 . S
C355 H323 0.929 . S
C355 C354 1.363 . S
C355 C356 1.385 . S
C356 H324 0.930 1_554 S
C356 C355 1.385 . S
C356 C357 1.357 1_554 S
C357 C356 1.357 1_556 S
C357 C358 1.406 1_556 S
C358 H325 0.929 1_554 S
C358 C357 1.406 1_554 S
C358 C359 1.391 . S
C359 H326 0.931 . S
C359 C354 1.370 . S
C359 C358 1.391 . S
C360 N334 1.435 . S
C360 C361 1.358 . S
C360 C365 1.371 . S
C361 H327 0.930 . S
C361 C360 1.358 . S
C361 C362 1.405 . S
C362 H328 0.932 . S
C362 C361 1.405 . S
C362 C363 1.383 . S
C363 C362 1.383 . S
C363 C364 1.393 . S
C364 H329 0.931 . S
C364 C363 1.393 . S
C364 C365 1.382 . S
C365 H330 0.929 . S
C365 C360 1.371 . S
C365 C364 1.382 . S
C366 N334 1.423 . S
C366 C367 1.362 . S
C366 C371 1.388 . S
C367 H331 0.929 . S
C367 C366 1.362 . S
C367 C368 1.376 . S
C368 H332 0.931 . S
C368 C367 1.376 . S
C368 C369 1.396 . S
C369 C351 1.472 . S
C369 C368 1.396 . S
C369 C370 1.348 . S
C370 H333 0.929 . S
C370 C369 1.348 . S
C370 C371 1.443 . S
C371 H335 0.932 . S
C371 C366 1.388 . S
C371 C370 1.443 . S
Zn372 O375 2.031 . S
Zn372 O377 2.049 . S
Zn372 O382 2.067 . S
Zn373 O374 1.962 . S
Zn373 O376 1.986 . S
Zn373 O378 1.996 . S
Zn373 O381 1.943 . S
O374 Zn373 1.962 . S
O374 C379 1.254 . S
O375 Zn372 2.031 . S
O375 C379 1.269 . S
O376 Zn373 1.986 . S
O376 C383 1.262 . S
O377 Zn372 2.049 . S
O377 C385 1.260 . S
O378 Zn373 1.996 . S
O378 C385 1.257 . S
C379 O374 1.254 . S
C379 O375 1.269 . S
C380 O381 1.249 . S
C380 O382 1.270 . S
O381 Zn373 1.943 . S
O381 C380 1.249 . S
O382 Zn372 2.067 . S
O382 C380 1.270 . S
C383 O376 1.262 . S
C383 O384 1.232 . S
O384 C383 1.232 . S
C385 O377 1.260 . S
C385 O378 1.257 . S
Zn386 O389 2.031 . S
Zn386 O391 2.049 . S
Zn386 O396 2.067 . S
Zn387 O388 1.962 . S
Zn387 O390 1.986 . S
Zn387 O392 1.996 . S
Zn387 O395 1.943 . S
O388 Zn387 1.962 . S
O388 C393 1.254 . S
O389 Zn386 2.031 . S
O389 C393 1.269 . S
O390 Zn387 1.986 . S
O390 C397 1.262 . S
O391 Zn386 2.049 . S
O391 C399 1.260 . S
O392 Zn387 1.996 . S
O392 C399 1.257 . S
C393 O388 1.254 . S
C393 O389 1.269 . S
C394 O395 1.249 . S
C394 O396 1.270 . S
O395 Zn387 1.943 . S
O395 C394 1.249 . S
O396 Zn386 2.067 . S
O396 C394 1.270 . S
C397 O390 1.262 . S
C397 O398 1.232 . S
O398 C397 1.232 . S
C399 O391 1.260 . S
C399 O392 1.257 . S
Zn400 O403 2.031 . S
Zn400 O405 2.049 . S
Zn400 O410 2.067 . S
Zn401 O402 1.962 . S
Zn401 O404 1.986 . S
Zn401 O406 1.996 . S
Zn401 O409 1.943 . S
O402 Zn401 1.962 . S
O402 C407 1.254 . S
O403 Zn400 2.031 . S
O403 C407 1.269 . S
O404 Zn401 1.986 . S
O404 C411 1.262 . S
O405 Zn400 2.049 . S
O405 C413 1.260 . S
O406 Zn401 1.996 . S
O406 C413 1.257 . S
C407 O402 1.254 . S
C407 O403 1.269 . S
C408 O409 1.249 . S
C408 O410 1.270 . S
O409 Zn401 1.943 . S
O409 C408 1.249 . S
O410 Zn400 2.067 . S
O410 C408 1.270 . S
C411 O404 1.262 . S
C411 O412 1.232 . S
O412 C411 1.232 . S
C413 O405 1.260 . S
C413 O406 1.257 . S
Zn414 O417 2.031 . S
Zn414 O419 2.049 . S
Zn414 O424 2.067 . S
Zn415 O416 1.962 . S
Zn415 O418 1.986 . S
Zn415 O420 1.996 . S
Zn415 O423 1.943 . S
O416 Zn415 1.962 . S
O416 C421 1.254 . S
O417 Zn414 2.031 . S
O417 C421 1.269 . S
O418 Zn415 1.986 . S
O418 C425 1.262 . S
O419 Zn414 2.049 . S
O419 C427 1.260 . S
O420 Zn415 1.996 . S
O420 C427 1.257 . S
C421 O416 1.254 . S
C421 O417 1.269 . S
C422 O423 1.249 . S
C422 O424 1.270 . S
O423 Zn415 1.943 . S
O423 C422 1.249 . S
O424 Zn414 2.067 . S
O424 C422 1.270 . S
C425 O418 1.262 . S
C425 O426 1.232 . S
O426 C425 1.232 . S
C427 O419 1.260 . S
C427 O420 1.257 . S
Zn428 O431 2.031 . S
Zn428 O433 2.049 . S
Zn428 O438 2.067 . S
Zn429 O430 1.962 . S
Zn429 O432 1.986 . S
Zn429 O434 1.996 . S
Zn429 O437 1.943 . S
O430 Zn429 1.962 . S
O430 C435 1.254 . S
O431 Zn428 2.031 . S
O431 C435 1.269 . S
O432 Zn429 1.986 . S
O432 C439 1.262 . S
O433 Zn428 2.049 . S
O433 C441 1.254 1_554 S
O434 Zn429 1.996 . S
O434 C441 1.248 1_554 S
C435 O430 1.254 . S
C435 O431 1.269 . S
C436 O437 1.249 . S
C436 O438 1.270 . S
O437 Zn429 1.943 . S
O437 C436 1.249 . S
O438 Zn428 2.067 . S
O438 C436 1.270 . S
C439 O432 1.262 . S
C439 O440 1.232 . S
O440 C439 1.232 . S
C441 O433 1.254 1_556 S
C441 O434 1.248 1_556 S
Zn442 O445 2.031 . S
Zn442 O447 2.049 . S
Zn442 O452 2.067 . S
Zn443 O444 1.962 . S
Zn443 O446 1.986 . S
Zn443 O448 1.996 . S
Zn443 O451 1.943 . S
O444 Zn443 1.962 . S
O444 C449 1.254 . S
O445 Zn442 2.031 . S
O445 C449 1.269 . S
O446 Zn443 1.986 . S
O446 C453 1.262 . S
O447 Zn442 2.049 . S
O447 C455 1.260 . S
O448 Zn443 1.996 . S
O448 C455 1.257 . S
C449 O444 1.254 . S
C449 O445 1.269 . S
C450 O451 1.249 . S
C450 O452 1.270 . S
O451 Zn443 1.943 . S
O451 C450 1.249 . S
O452 Zn442 2.067 . S
O452 C450 1.270 . S
C453 O446 1.262 . S
C453 O454 1.232 . S
O454 C453 1.232 . S
C455 O447 1.260 . S
C455 O448 1.257 . S
C449 C29 2.053 . S
C115 C383 1.928 . S
C153 C397 1.683 . S
C239 C411 2.124 . S
C425 C301 2.297 . S
C339 C435 2.471 . S
C91 C393 1.985 . S
C177 C407 2.399 . S
C215 C421 2.348 . S
C439 C277 2.472 . S
C453 C363 1.940 . S
C379 C53 2.204 . S
C35 C394 1.871 . S
C109 C408 1.328 . S
C422 C159 1.903 . S
C233 C441 1.898 . S
C455 C295 1.405 . S
C380 C345 1.755 . S
C450 C97 1.719 . S
C171 C385 1.228 . S
C399 C221 1.961 . S
C283 C413 1.801 . S
C357 C427 1.578 . S
C47 C436 1.798 . S
