# Generated by pormake.
# Topology pyr, (3,6)-cn, num edge types: 1
# Building blocks:
#     Node 0, Type 0, BuildingBlock: ESEHIV_clean_linker_0, # of connection points: 3
#     Node 1, Type 0, BuildingBlock: ESEHIV_clean_linker_0, # of connection points: 3
#     Node 2, Type 0, BuildingBlock: ESEHIV_clean_linker_0, # of connection points: 3
#     Node 3, Type 0, BuildingBlock: ESEHIV_clean_linker_0, # of connection points: 3
#     Node 4, Type 0, BuildingBlock: ESEHIV_clean_linker_0, # of connection points: 3
#     Node 5, Type 0, BuildingBlock: ESEHIV_clean_linker_0, # of connection points: 3
#     Node 6, Type 0, BuildingBlock: ESEHIV_clean_linker_0, # of connection points: 3
#     Node 7, Type 0, BuildingBlock: ESEHIV_clean_linker_0, # of connection points: 3
#     Node 8, Type 1, BuildingBlock: BETFAJ_clean_sbu_0, # of connection points: 6
#     Node 9, Type 1, BuildingBlock: BETFAJ_clean_sbu_0, # of connection points: 6
#     Node 10, Type 1, BuildingBlock: BETFAJ_clean_sbu_0, # of connection points: 6
#     Node 11, Type 1, BuildingBlock: BETFAJ_clean_sbu_0, # of connection points: 6
#     Edge 12, Type (0, 1), BuildingBlock: AJUNOK_clean_linker_0, # of connection points: 2
#     Edge 13, Type (0, 1), BuildingBlock: AJUNOK_clean_linker_0, # of connection points: 2
#     Edge 14, Type (0, 1), BuildingBlock: AJUNOK_clean_linker_0, # of connection points: 2
#     Edge 15, Type (0, 1), BuildingBlock: AJUNOK_clean_linker_0, # of connection points: 2
#     Edge 16, Type (0, 1), BuildingBlock: AJUNOK_clean_linker_0, # of connection points: 2
#     Edge 17, Type (0, 1), BuildingBlock: AJUNOK_clean_linker_0, # of connection points: 2
#     Edge 18, Type (0, 1), BuildingBlock: AJUNOK_clean_linker_0, # of connection points: 2
#     Edge 19, Type (0, 1), BuildingBlock: AJUNOK_clean_linker_0, # of connection points: 2
#     Edge 20, Type (0, 1), BuildingBlock: AJUNOK_clean_linker_0, # of connection points: 2
#     Edge 21, Type (0, 1), BuildingBlock: AJUNOK_clean_linker_0, # of connection points: 2
#     Edge 22, Type (0, 1), BuildingBlock: AJUNOK_clean_linker_0, # of connection points: 2
#     Edge 23, Type (0, 1), BuildingBlock: AJUNOK_clean_linker_0, # of connection points: 2
#     Edge 24, Type (0, 1), BuildingBlock: AJUNOK_clean_linker_0, # of connection points: 2
#     Edge 25, Type (0, 1), BuildingBlock: AJUNOK_clean_linker_0, # of connection points: 2
#     Edge 26, Type (0, 1), BuildingBlock: AJUNOK_clean_linker_0, # of connection points: 2
#     Edge 27, Type (0, 1), BuildingBlock: AJUNOK_clean_linker_0, # of connection points: 2
#     Edge 28, Type (0, 1), BuildingBlock: AJUNOK_clean_linker_0, # of connection points: 2
#     Edge 29, Type (0, 1), BuildingBlock: AJUNOK_clean_linker_0, # of connection points: 2
#     Edge 30, Type (0, 1), BuildingBlock: AJUNOK_clean_linker_0, # of connection points: 2
#     Edge 31, Type (0, 1), BuildingBlock: AJUNOK_clean_linker_0, # of connection points: 2
#     Edge 32, Type (0, 1), BuildingBlock: AJUNOK_clean_linker_0, # of connection points: 2
#     Edge 33, Type (0, 1), BuildingBlock: AJUNOK_clean_linker_0, # of connection points: 2
#     Edge 34, Type (0, 1), BuildingBlock: AJUNOK_clean_linker_0, # of connection points: 2
#     Edge 35, Type (0, 1), BuildingBlock: AJUNOK_clean_linker_0, # of connection points: 2
# Relax obj value: 0.221
# Max RMSD: 0.156
# Mean RMSD: 0.075
data_MOF--net-pyr--node1-BETFAJ_clean_sbu_0--node2-ESEHIV_clean_linker_0--edge1-AJUNOK_clean_linker_0
_symmetry_space_group_name_H-M    P1
_symmetry_Int_Tables_number       1
_symmetry_cell_setting            triclinic
loop_
_symmetry_equiv_pos_as_xyz
'x, y, z'
_cell_length_a     25.948066
_cell_length_b     28.012524
_cell_length_c     25.295215
_cell_angle_alpha  90.598065
_cell_angle_beta   88.696025
_cell_angle_gamma 103.91855
loop_
_atom_site_label
_atom_site_type_symbol
_atom_site_fract_x
_atom_site_fract_y
_atom_site_fract_z
_atom_type_partial_charge
H0 H 0.35475 0.37451 0.2993 0.0
H1 H 0.46334 0.28144 0.31311 0.0
H2 H 0.42374 0.32611 0.16022 0.0
C3 C 0.38462 0.35756 0.282 0.0
C4 C 0.39114 0.35847 0.2269 0.0
C5 C 0.40762 0.32745 0.31328 0.0
C6 C 0.44473 0.30438 0.28945 0.0
C7 C 0.44961 0.30249 0.23413 0.0
C8 C 0.4229 0.32989 0.20291 0.0
H9 H 0.13835 0.89303 0.75811 0.0
H10 H 0.21372 0.77248 0.75517 0.0
H11 H 0.18929 0.84045 0.61044 0.0
C12 C 0.15346 0.8658 0.73607 0.0
C13 C 0.15683 0.86836 0.68045 0.0
C14 C 0.17511 0.83199 0.7634 0.0
C15 C 0.19579 0.7978 0.73427 0.0
C16 C 0.20281 0.8021 0.67937 0.0
C17 C 0.18171 0.83616 0.65259 0.0
H18 H 0.71398 0.34388 0.96404 0.0
H19 H 0.72301 0.47038 0.86561 0.0
H20 H 0.59395 0.34106 0.84843 0.0
C21 C 0.69749 0.3624 0.93378 0.0
C22 C 0.64998 0.33634 0.90997 0.0
C23 C 0.72378 0.41143 0.92007 0.0
C24 C 0.70265 0.43359 0.87756 0.0
C25 C 0.65589 0.40916 0.85005 0.0
C26 C 0.62992 0.36035 0.86765 0.0
H27 H 0.84084 0.75516 0.4664 0.0
H28 H 0.96112 0.76184 0.34386 0.0
H29 H 0.82897 0.63358 0.35977 0.0
C30 C 0.85757 0.73833 0.43358 0.0
C31 C 0.83072 0.69042 0.41782 0.0
C32 C 0.9044 0.76559 0.40794 0.0
C33 C 0.92464 0.74242 0.36334 0.0
C34 C 0.8991 0.69336 0.34531 0.0
C35 C 0.85104 0.66936 0.37289 0.0
H36 H 0.60211 0.82958 0.83444 0.0
H37 H 0.71998 0.74791 0.86122 0.0
H38 H 0.6529 0.8112 0.99176 0.0
C39 C 0.62441 0.81234 0.86085 0.0
C40 C 0.62158 0.82157 0.91537 0.0
C41 C 0.66241 0.78851 0.84019 0.0
C42 C 0.68944 0.76546 0.87574 0.0
C43 C 0.68542 0.77242 0.93038 0.0
C44 C 0.65198 0.80129 0.95018 0.0
H45 H 0.86346 0.35455 0.39275 0.0
H46 H 0.92112 0.22378 0.38681 0.0
H47 H 0.88189 0.28147 0.53668 0.0
C48 C 0.87846 0.32706 0.4133 0.0
C49 C 0.8728 0.3235 0.46846 0.0
C50 C 0.89145 0.28902 0.38366 0.0
C51 C 0.90967 0.25253 0.40983 0.0
C52 C 0.90679 0.24953 0.46534 0.0
C53 C 0.88871 0.28558 0.49436 0.0
H54 H 0.34837 0.76743 0.18428 0.0
H55 H 0.34286 0.64143 0.28265 0.0
H56 H 0.46755 0.77413 0.30148 0.0
C57 C 0.36512 0.74968 0.21501 0.0
C58 C 0.41144 0.77715 0.23968 0.0
C59 C 0.34019 0.70031 0.22849 0.0
C60 C 0.36178 0.67878 0.27122 0.0
C61 C 0.40725 0.70466 0.2997 0.0
C62 C 0.43209 0.75387 0.28214 0.0
H63 H 0.10318 0.35015 0.80604 0.0
H64 H 0.22014 0.35883 0.68009 0.0
H65 H 0.22888 0.4823 0.78393 0.0
C66 C 0.1384 0.37046 0.78522 0.0
C67 C 0.16446 0.41906 0.80399 0.0
C68 C 0.15739 0.34816 0.73933 0.0
C69 C 0.204 0.37557 0.71334 0.0
C70 C 0.23117 0.42339 0.72939 0.0
C71 C 0.21017 0.44461 0.77393 0.0
Sm72 Sm 0.04873 0.0821 0.52156 0.0
Sm73 Sm 1.00836 1.03302 0.62442 0.0
C74 C 0.07951 0.14818 0.44712 0.0
C75 C 0.12779 0.18801 0.44758 0.0
C76 C 0.14027 0.22159 0.406 0.0
C77 C 0.19089 0.25323 0.4024 0.0
C78 C 0.2293 0.25108 0.44009 0.0
C79 C 0.2153 0.22013 0.48381 0.0
C80 C 0.16466 0.18895 0.4877 0.0
C81 C 0.11699 1.03511 0.56866 0.0
C82 C 0.07048 0.14891 0.63674 0.0
C83 C 0.97786 0.96674 0.69893 0.0
C84 C 0.93197 0.92441 0.69813 0.0
C85 C 0.92085 0.89161 0.7405 0.0
C86 C 0.87183 0.85735 0.74375 0.0
C87 C 0.83355 0.85603 0.70489 0.0
C88 C 0.84676 0.88592 0.66019 0.0
C89 C 0.89576 0.91989 0.65681 0.0
C90 C 0.94047 0.0803 0.5768 0.0
C91 C 0.98703 0.96604 0.50943 0.0
O92 O 0.04339 0.15162 0.48291 0.0
O93 O 0.08832 0.10416 0.44414 0.0
O94 O 0.09028 0.06133 0.59175 0.0
O95 O 0.112 1.03697 0.51794 0.0
O96 O 0.06711 0.14791 0.58414 0.0
O97 O 0.05631 0.10668 0.66308 0.0
O98 O 1.016 0.96502 0.6648 0.0
O99 O 0.96566 1.00944 0.70005 0.0
O100 O 0.96673 1.05347 0.55411 0.0
O101 O 0.94674 0.08005 0.62747 0.0
O102 O 0.99039 0.96718 0.562 0.0
O103 O 1.00105 1.00821 0.48299 0.0
H104 H 0.11224 0.22127 0.37483 0.0
H105 H 0.20152 0.2763 0.36781 0.0
H106 H 0.24471 0.21733 0.5126 0.0
H107 H 0.15557 0.16306 0.52008 0.0
H108 H 0.94845 0.89458 0.77256 0.0
H109 H 0.86196 0.8351 0.77903 0.0
H110 H 0.81754 0.88592 0.63027 0.0
H111 H 0.90372 0.9451 0.6238 0.0
Sm112 Sm 0.57657 0.06088 0.09406 0.0
Sm113 Sm 0.48202 1.05382 1.05754 0.0
C114 C 0.67374 0.08074 0.13276 0.0
C115 C 0.71691 0.12187 0.14855 0.0
C116 C 0.71308 0.17066 0.14328 0.0
C117 C 0.75045 0.20869 0.16712 0.0
C118 C 0.79126 0.19799 0.19713 0.0
C119 C 0.79733 0.14952 0.19814 0.0
C120 C 0.7603 0.11171 0.17404 0.0
C121 C 0.51176 0.97003 0.13175 0.0
C122 C 0.50785 0.12843 0.15042 0.0
C123 C 0.38398 1.03338 1.02082 0.0
C124 C 0.34013 0.99285 1.00495 0.0
C125 C 0.34357 0.94384 1.00844 0.0
C126 C 0.30526 0.90662 0.98459 0.0
C127 C 0.26353 0.91822 0.9567 0.0
C128 C 0.25812 0.96694 0.9574 0.0
C129 C 0.2962 1.00396 0.98141 0.0
C130 C 0.54635 0.14462 1.01923 0.0
C131 C 0.55279 0.98991 0.99827 0.0
O132 O 0.66413 0.07569 0.08244 0.0
O133 O 0.63059 0.07306 0.16214 0.0
O134 O 0.49787 1.0109 0.13048 0.0
O135 O 0.55898 0.97691 0.11135 0.0
O136 O 0.55621 0.12892 0.13393 0.0
O137 O 0.46918 0.09265 0.13427 0.0
O138 O 0.39462 1.03734 0.07096 0.0
O139 O 0.42655 1.04173 0.99053 0.0
O140 O 0.56069 0.10394 1.02096 0.0
O141 O 0.4989 0.13727 1.03913 0.0
O142 O 0.50432 0.98722 1.01608 0.0
O143 O 0.59073 1.02572 1.01555 0.0
H144 H 0.67979 0.17897 0.12332 0.0
H145 H 0.74529 0.24588 0.16533 0.0
H146 H 0.82807 0.14014 0.22131 0.0
H147 H 0.76376 0.07413 0.17813 0.0
H148 H 0.37728 0.93478 1.02688 0.0
H149 H 0.31038 0.86936 0.98452 0.0
H150 H 0.22724 0.9773 0.93533 0.0
H151 H 0.29309 1.04175 0.97863 0.0
Sm152 Sm 0.52349 0.51588 0.54634 0.0
Sm153 Sm 0.54085 0.59725 0.60205 0.0
C154 C 0.5418 0.43781 0.49729 0.0
C155 C 0.59167 0.42244 0.49997 0.0
C156 C 0.63533 0.4543 0.52371 0.0
C157 C 0.68318 0.44075 0.52816 0.0
C158 C 0.68858 0.39546 0.50787 0.0
C159 C 0.64469 0.36341 0.48421 0.0
C160 C 0.59634 0.37679 0.48046 0.0
C161 C 0.42826 0.51392 0.60221 0.0
C162 C 0.57861 0.51217 0.66617 0.0
C163 C 0.52656 0.67704 0.65044 0.0
C164 C 0.47897 0.69573 0.64643 0.0
C165 C 0.4335 0.66519 0.62428 0.0
C166 C 0.38783 0.68204 0.61839 0.0
C167 C 0.38658 0.72949 0.63532 0.0
C168 C 0.4322 0.76008 0.6577 0.0
C169 C 0.47841 0.74338 0.66279 0.0
C170 C 0.63581 0.59806 0.54636 0.0
C171 C 0.4841 0.60129 0.4836 0.0
O172 O 0.54588 0.47971 0.47375 0.0
O173 O 0.51501 0.43495 0.54178 0.0
O174 O 0.47486 0.52805 0.62039 0.0
O175 O 0.43165 0.50257 0.55253 0.0
O176 O 0.56894 0.49098 0.61899 0.0
O177 O 0.56928 0.55621 0.67182 0.0
O178 O 0.51885 0.63464 0.67386 0.0
O179 O 0.55421 0.67866 0.60662 0.0
O180 O 0.58924 0.58524 0.528 0.0
O181 O 0.63231 0.60792 0.59638 0.0
O182 O 0.49395 0.62186 0.53097 0.0
O183 O 0.49361 0.55731 0.4771 0.0
H184 H 0.63247 0.48991 0.53872 0.0
H185 H 0.71591 0.46574 0.54736 0.0
H186 H 0.64808 0.32838 0.46782 0.0
H187 H 0.56298 0.35184 0.46212 0.0
H188 H 0.43314 0.62799 0.61191 0.0
H189 H 0.35324 0.65773 0.6013 0.0
H190 H 0.43173 0.79636 0.6726 0.0
H191 H 0.51323 0.76723 0.68 0.0
Sm192 Sm 1.02587 0.51807 0.10405 0.0
Sm193 Sm 0.03836 0.59512 1.04387 0.0
C194 C 0.04811 0.44031 0.14828 0.0
C195 C 0.0999 0.42736 0.15384 0.0
C196 C 0.12654 0.41269 0.10964 0.0
C197 C 0.17762 0.40514 0.11421 0.0
C198 C 0.20332 0.41252 0.16286 0.0
C199 C 0.17631 0.42598 0.20726 0.0
C200 C 0.12514 0.43324 0.20282 0.0
C201 C 0.97616 0.58297 0.16106 0.0
C202 C 0.14045 0.60234 0.1162 0.0
C203 C 1.02003 0.67468 0.99916 0.0
C204 C 0.97095 0.6922 0.9988 0.0
C205 C 0.92748 0.66943 1.03124 0.0
C206 C 0.8799 0.68438 1.0299 0.0
C207 C 0.87516 0.72277 0.99656 0.0
C208 C 0.91912 0.74613 0.96482 0.0
C209 C 0.9667 0.73091 0.96593 0.0
C210 C 0.08714 0.52858 0.98833 0.0
C211 C 0.92381 0.51001 1.03208 0.0
O212 O 0.0304 0.43992 0.10044 0.0
O213 O 0.04127 0.47813 0.17558 0.0
O214 O 1.01995 0.59533 0.13432 0.0
O215 O 0.95708 0.53583 0.15516 0.0
O216 O 0.11276 0.55783 0.12875 0.0
O217 O 0.12049 0.62723 0.08154 0.0
O218 O 0.04124 0.67502 1.04534 0.0
O219 O 1.0188 0.63397 0.9733 0.0
O220 O 0.0424 0.51803 1.01329 0.0
O221 O 0.10824 0.57527 0.99508 0.0
O222 O 0.95117 0.55481 1.01971 0.0
O223 O 0.94407 0.48512 1.06649 0.0
H224 H 0.10842 0.40784 0.07118 0.0
H225 H 0.19741 0.39432 0.07953 0.0
H226 H 0.19468 0.43061 0.24561 0.0
H227 H 0.10564 0.44429 0.23757 0.0
H228 H 0.93018 0.6397 1.05727 0.0
H229 H 0.84664 0.66571 1.0546 0.0
H230 H 0.91616 0.77514 0.93791 0.0
H231 H 0.99981 0.74886 0.94063 0.0
C232 C 0.35531 0.33952 0.39481 0.0
C233 C 0.37874 0.30814 0.3633 0.0
C234 C 0.30841 0.32089 0.42425 0.0
C235 C 0.28562 0.2702 0.42555 0.0
H236 H 0.36951 0.37907 0.39156 0.0
H237 H 0.28784 0.34631 0.44267 0.0
S238 S 0.33794 0.17125 0.36269 0.0
N239 N 0.37954 0.22269 0.34353 0.0
N240 N 0.29414 0.1884 0.40211 0.0
C241 C 0.31302 0.23811 0.40156 0.0
C242 C 0.35945 0.25686 0.37006 0.0
C243 C 0.24397 0.84339 0.83227 0.0
C244 C 0.19099 0.84179 0.81938 0.0
C245 C 0.26526 0.86357 0.87982 0.0
C246 C 0.23487 0.88374 0.91641 0.0
H247 H 0.27098 0.83284 0.80373 0.0
H248 H 0.30736 0.86744 0.88549 0.0
S249 S 0.09146 0.87976 0.9072 0.0
N250 N 0.10622 0.85483 0.8511 0.0
N251 N 0.14706 0.89429 0.94071 0.0
C252 C 0.18064 0.87854 0.90651 0.0
C253 C 0.15858 0.85733 0.85794 0.0
C254 C 0.61821 0.41146 0.75488 0.0
C255 C 0.6348 0.43536 0.80368 0.0
C256 C 0.60126 0.43603 0.71119 0.0
C257 C 0.59878 0.48624 0.71314 0.0
H258 H 0.61917 0.37325 0.74985 0.0
H259 H 0.58962 0.41505 0.6754 0.0
S260 S 0.63453 0.56624 0.83196 0.0
N261 N 0.64512 0.51313 0.85049 0.0
N262 N 0.61376 0.55806 0.77057 0.0
C263 C 0.61447 0.51027 0.76199 0.0
C264 C 0.63217 0.48547 0.80616 0.0
C265 C 0.94758 0.68999 0.25275 0.0
C266 C 0.92181 0.66594 0.29903 0.0
C267 C 0.96576 0.66412 0.20922 0.0
C268 C 0.95908 0.61219 0.20849 0.0
H269 H 0.95296 0.72938 0.24942 0.0
H270 H 0.98427 0.68511 0.17522 0.0
S271 S 0.90162 0.53101 0.32145 0.0
N272 N 0.89734 0.58605 0.34193 0.0
N273 N 0.92808 0.53881 0.26132 0.0
C274 C 0.93483 0.58804 0.25493 0.0
C275 C 0.91732 0.61423 0.29938 0.0
C276 C 0.43011 0.22267 0.18673 0.0
C277 C 0.4679 0.26079 0.21041 0.0
C278 C 0.44325 0.1795 0.16941 0.0
C279 C 0.49498 0.17278 0.17444 0.0
H280 H 0.38955 0.22577 0.18268 0.0
H281 H 0.41251 0.15154 0.15107 0.0
S282 S 0.60849 0.26186 0.23414 0.0
N283 N 0.55878 0.2892 0.23924 0.0
N284 N 0.58442 0.20835 0.20489 0.0
C285 C 0.53338 0.21082 0.19792 0.0
C286 C 0.51958 0.25467 0.21646 0.0
C287 C 0.15703 0.95779 0.674 0.0
C288 C 0.14371 0.91001 0.652 0.0
C289 C 0.14907 0.99828 0.64627 0.0
C290 C 0.1295 0.99286 0.59483 0.0
H291 H 0.17473 0.96439 0.71254 0.0
H292 H 0.15874 1.0342 0.66504 0.0
S293 S 0.08687 0.87622 0.51945 0.0
N294 N 0.10628 0.85966 0.57665 0.0
N295 N 0.09652 0.93658 0.52265 0.0
C296 C 0.11664 0.94571 0.57188 0.0
C297 C 0.12243 0.90412 0.60095 0.0
C298 C 0.81662 0.47183 0.92443 0.0
C299 C 0.77357 0.43875 0.95024 0.0
C300 C 0.86381 0.49549 0.95115 0.0
C301 C 0.87151 0.48692 1.00513 0.0
H302 H 0.81461 0.47885 0.88263 0.0
H303 H 0.89535 0.51972 0.92869 0.0
S304 S 0.7701 0.40968 0.09422 0.0
N305 N 0.74105 0.40437 1.03634 0.0
N306 N 0.82995 0.44563 0.08428 0.0
C307 C 0.8287 0.45508 1.03182 0.0
C308 C 0.78007 0.43201 1.00516 0.0
C309 C 0.73306 0.64027 0.42651 0.0
C310 C 0.78198 0.66283 0.45013 0.0
C311 C 0.68659 0.61853 0.4572 0.0
C312 C 0.68648 0.61772 0.51324 0.0
H313 H 0.73012 0.64072 0.3839 0.0
H314 H 0.65011 0.60307 0.43672 0.0
S315 S 0.80528 0.66671 0.5949 0.0
N316 N 0.82743 0.67905 0.53366 0.0
N317 N 0.74178 0.63889 0.59026 0.0
C318 C 0.73569 0.63841 0.53703 0.0
C319 C 0.78266 0.66064 0.50597 0.0
C320 C 0.31449 0.34621 0.16644 0.0
C321 C 0.35302 0.37858 0.19642 0.0
C322 C 0.2674 0.35879 0.15251 0.0
C323 C 0.25725 0.40403 0.16834 0.0
H324 H 0.31856 0.30933 0.15768 0.0
H325 H 0.23716 0.33153 0.13262 0.0
S326 S 0.35002 0.50516 0.23819 0.0
N327 N 0.38134 0.46034 0.23472 0.0
N328 N 0.29296 0.48407 0.20839 0.0
C329 C 0.29761 0.4384 0.19392 0.0
C330 C 0.34553 0.4257 0.20786 0.0
C331 C 0.65025 0.24907 0.94456 0.0
C332 C 0.62178 0.28507 0.93238 0.0
C333 C 0.62625 0.20375 0.97077 0.0
C334 C 0.57229 0.19169 0.98764 0.0
H335 H 0.69209 0.25615 0.93409 0.0
H336 H 0.65074 0.17851 0.97904 0.0
S337 S 0.47921 0.27248 0.96703 0.0
N338 N 0.5356 0.30391 0.94018 0.0
N339 N 0.49131 0.22111 0.98923 0.0
C340 C 0.54338 0.22727 0.9754 0.0
C341 C 0.56762 0.27287 0.94804 0.0
C342 C 0.93267 0.82474 0.48683 0.0
C343 C 0.93061 0.81716 0.43117 0.0
C344 C 0.95044 0.87196 0.51074 0.0
C345 C 0.96783 0.91574 0.48105 0.0
H346 H 0.91993 0.79348 0.51287 0.0
H347 H 0.95033 0.87394 0.5535 0.0
S348 S 0.97238 0.91846 0.33372 0.0
N349 N 0.94901 0.85949 0.3471 0.0
N350 N 0.98263 0.94717 0.39134 0.0
C351 C 0.96703 0.90893 0.42525 0.0
C352 C 0.94879 0.86043 0.40075 0.0
C353 C 0.24392 0.73128 0.6646 0.0
C354 C 0.24361 0.78028 0.65376 0.0
C355 C 0.28957 0.71406 0.65526 0.0
C356 C 0.33627 0.74524 0.63444 0.0
H357 H 0.20994 0.70721 0.68399 0.0
H358 H 0.28933 0.67716 0.66788 0.0
S359 S 0.35322 0.87385 0.59043 0.0
N360 N 0.29225 0.85815 0.61551 0.0
N361 N 0.37711 0.8246 0.59559 0.0
C362 C 0.33485 0.79268 0.61854 0.0
C363 C 0.28863 0.81048 0.62859 0.0
C364 C 0.71356 0.76733 0.76162 0.0
C365 C 0.68712 0.80048 0.78636 0.0
C366 C 0.75922 0.78449 0.72992 0.0
C367 C 0.77735 0.83477 0.71899 0.0
H368 H 0.70329 0.72883 0.77247 0.0
H369 H 0.78282 0.75907 0.71772 0.0
S370 S 0.71259 0.9344 0.75766 0.0
N371 N 0.67613 0.88478 0.78653 0.0
N372 N 0.75925 0.91562 0.72402 0.0
C373 C 0.74569 0.86664 0.73477 0.0
C374 C 0.70059 0.84973 0.76869 0.0
C375 C 0.89924 0.26139 0.28959 0.0
C376 C 0.86973 0.27832 0.32985 0.0
C377 C 0.87466 0.23935 0.2436 0.0
C378 C 0.81984 0.23364 0.23641 0.0
H379 H 0.94079 0.2625 0.29512 0.0
H380 H 0.89792 0.22388 0.21502 0.0
S381 S 0.7251 0.27317 0.32912 0.0
N382 N 0.78283 0.28915 0.35844 0.0
N383 N 0.73742 0.24864 0.27213 0.0
C384 C 0.79074 0.25342 0.27469 0.0
C385 C 0.81548 0.27547 0.32146 0.0
C386 C 0.43169 0.62956 0.34469 0.0
C387 C 0.42802 0.67945 0.34706 0.0
C388 C 0.44937 0.60514 0.38791 0.0
C389 C 0.46385 0.62826 0.43751 0.0
H390 H 0.42128 0.60891 0.30846 0.0
H391 H 0.45151 0.56731 0.38218 0.0
S392 S 0.45887 0.75769 0.46774 0.0
N393 N 0.4395 0.75014 0.4058 0.0
N394 N 0.47114 0.70504 0.48565 0.0
C395 C 0.4596 0.67792 0.44077 0.0
C396 C 0.44235 0.70303 0.39643 0.0
C397 C 0.0898 0.43726 0.86823 0.0
C398 C 0.14455 0.44428 0.85374 0.0
C399 C 0.07137 0.46273 0.91184 0.0
C400 C 0.10626 0.49758 0.94392 0.0
H401 H 0.06033 0.41257 0.84482 0.0
H402 H 0.02901 0.45597 0.91946 0.0
S403 S 0.25345 0.52569 0.93012 0.0
N404 N 0.23331 0.48571 0.88206 0.0
N405 N 0.19901 0.53414 0.95978 0.0
C406 C 0.16084 0.50382 0.93105 0.0
C407 C 0.1797 0.47735 0.88759 0.0
C408 C 0.55066 0.85898 0.9555 0.0
C409 C 0.60159 0.86433 0.93285 0.0
C410 C 0.5335 0.90036 0.9737 0.0
C411 C 0.56697 0.94812 0.96997 0.0
H412 H 0.52453 0.82271 0.96007 0.0
H413 H 0.49475 0.89462 0.99287 0.0
S414 S 0.70289 0.98077 0.91027 0.0
N415 N 0.68426 0.9203 0.90536 0.0
N416 N 0.65229 0.99791 0.93873 0.0
C417 C 0.61725 0.95363 0.94543 0.0
C418 C 0.63452 0.91173 0.92716 0.0
C419 C 0.94087 0.21081 0.54164 0.0
C420 C 0.9147 0.20533 0.49301 0.0
C421 C 0.94685 0.16988 0.56988 0.0
C422 C 0.92805 0.12207 0.5498 0.0
H423 H 0.95726 0.24713 0.55791 0.0
H424 H 0.96784 0.17585 0.60675 0.0
S425 S 0.85296 0.08653 0.4273 0.0
N426 N 0.86527 0.14716 0.42889 0.0
N427 N 0.88078 0.0707 0.4803 0.0
C428 C 0.90162 0.11571 0.50176 0.0
C429 C 0.89392 0.15721 0.47369 0.0
C430 C 0.24775 0.63945 0.22386 0.0
C431 C 0.29092 0.67235 0.19809 0.0
C432 C 0.20046 0.61616 0.19709 0.0
C433 C 0.19285 0.62497 0.14313 0.0
H434 H 0.24972 0.63243 0.26567 0.0
H435 H 0.16876 0.59208 0.21952 0.0
S436 S 0.29505 0.70115 1.05403 0.0
N437 N 0.32396 0.70633 0.11198 0.0
N438 N 0.23492 0.66572 1.06392 0.0
C439 C 0.23596 0.65636 0.11642 0.0
C440 C 0.28465 0.67904 0.14312 0.0
C441 C 0.28363 0.44761 0.64224 0.0
C442 C 0.2812 0.4505 0.69819 0.0
C443 C 0.33023 0.46904 0.61216 0.0
C444 C 0.37786 0.49469 0.6359 0.0
H445 H 0.24892 0.42824 0.62104 0.0
H446 H 0.32899 0.46466 0.56961 0.0
S447 S 0.39432 0.51451 0.78076 0.0
N448 N 0.33219 0.48251 0.77572 0.0
N449 N 0.41869 0.52254 0.71971 0.0
C450 C 0.37596 0.49887 0.69168 0.0
C451 C 0.32827 0.4771 0.72246 0.0
C452 C 0.73057 0.71042 0.96465 0.0
C453 C 0.72682 0.75961 0.96285 0.0
C454 C 0.77783 0.69857 0.97915 0.0
C455 C 0.82322 0.73561 0.99142 0.0
H456 H 0.69798 0.68124 0.95116 0.0
H457 H 0.77994 0.66043 0.97713 0.0
S458 S 0.83198 0.86959 0.99793 0.0
N459 N 0.77079 0.84519 0.9788 0.0
N460 N 0.85972 0.82297 1.00605 0.0
C461 C 0.81879 0.78464 0.99322 0.0
C462 C 0.77049 0.79661 0.97904 0.0
C463 C 0.49159 0.84228 0.20112 0.0
C464 C 0.43772 0.82922 0.21812 0.0
C465 C 0.51443 0.88733 0.17422 0.0
C466 C 0.48542 0.92305 0.16309 0.0
H467 H 0.51611 0.81656 0.20685 0.0
H468 H 0.55565 0.89393 0.16146 0.0
S469 S 0.34346 0.90934 0.2009 0.0
N470 N 0.35646 0.85812 0.22257 0.0
N471 N 0.39923 0.94157 0.17347 0.0
C472 C 0.43195 0.91116 0.18111 0.0
C473 C 0.4084 0.86498 0.20795 0.0
C474 C 0.12605 0.29003 0.66027 0.0
C475 C 0.13038 0.2969 0.7159 0.0
C476 C 0.10678 0.24312 0.63603 0.0
C477 C 0.09045 0.19901 0.66535 0.0
H478 H 0.13811 0.3216 0.63456 0.0
H479 H 0.10519 0.24163 0.5933 0.0
S480 S 0.09227 0.1945 0.81251 0.0
N481 N 0.1153 0.25359 0.79955 0.0
N482 N 0.07941 0.16652 0.75476 0.0
C483 C 0.09366 0.20515 0.72116 0.0
C484 C 0.1132 0.25331 0.74599 0.0
C485 C 0.78802 0.31768 0.51774 0.0
C486 C 0.83412 0.34777 0.49439 0.0
C487 C 0.74191 0.33454 0.52507 0.0
C488 C 0.74025 0.38205 0.50941 0.0
H489 H 0.78578 0.27932 0.52594 0.0
H490 H 0.70645 0.30927 0.54036 0.0
S491 S 0.85304 0.47793 0.4551 0.0
N492 N 0.87774 0.42942 0.463 0.0
N493 N 0.79043 0.46108 0.47553 0.0
C494 C 0.78746 0.4141 0.4908 0.0
C495 C 0.8346 0.39695 0.48369 0.0
loop_
_geom_bond_atom_site_label_1
_geom_bond_atom_site_label_2
_geom_bond_distance
_geom_bond_site_symmetry_2
_ccdc_geom_bond_type
H0 C3 0.931 . S
H1 C6 0.928 . S
H2 C8 0.930 . S
C3 H0 0.931 . S
C3 C4 1.413 . S
C3 C5 1.360 . S
C4 C3 1.413 . S
C4 C8 1.429 . S
C5 C3 1.360 . S
C5 C6 1.372 . S
C6 H1 0.928 . S
C6 C5 1.372 . S
C6 C7 1.404 . S
C7 C6 1.404 . S
C7 C8 1.391 . S
C8 H2 0.930 . S
C8 C4 1.429 . S
C8 C7 1.391 . S
H9 C12 0.931 . S
H10 C15 0.928 . S
H11 C17 0.930 . S
C12 H9 0.931 . S
C12 C13 1.413 . S
C12 C14 1.360 . S
C13 C12 1.413 . S
C13 C17 1.429 . S
C14 C12 1.360 . S
C14 C15 1.372 . S
C15 H10 0.928 . S
C15 C14 1.372 . S
C15 C16 1.404 . S
C16 C15 1.404 . S
C16 C17 1.391 . S
C17 H11 0.930 . S
C17 C13 1.429 . S
C17 C16 1.391 . S
H18 C21 0.931 . S
H19 C24 0.928 . S
H20 C26 0.930 . S
C21 H18 0.931 . S
C21 C22 1.413 . S
C21 C23 1.360 . S
C22 C21 1.413 . S
C22 C26 1.429 . S
C23 C21 1.360 . S
C23 C24 1.372 . S
C24 H19 0.928 . S
C24 C23 1.372 . S
C24 C25 1.404 . S
C25 C24 1.404 . S
C25 C26 1.391 . S
C26 H20 0.930 . S
C26 C22 1.429 . S
C26 C25 1.391 . S
H27 C30 0.931 . S
H28 C33 0.928 . S
H29 C35 0.930 . S
C30 H27 0.931 . S
C30 C31 1.413 . S
C30 C32 1.360 . S
C31 C30 1.413 . S
C31 C35 1.429 . S
C32 C30 1.360 . S
C32 C33 1.372 . S
C33 H28 0.928 . S
C33 C32 1.372 . S
C33 C34 1.404 . S
C34 C33 1.404 . S
C34 C35 1.391 . S
C35 H29 0.930 . S
C35 C31 1.429 . S
C35 C34 1.391 . S
H36 C39 0.931 . S
H37 C42 0.928 . S
H38 C44 0.930 . S
C39 H36 0.931 . S
C39 C40 1.413 . S
C39 C41 1.360 . S
C40 C39 1.413 . S
C40 C44 1.429 . S
C41 C39 1.360 . S
C41 C42 1.372 . S
C42 H37 0.928 . S
C42 C41 1.372 . S
C42 C43 1.404 . S
C43 C42 1.404 . S
C43 C44 1.391 . S
C44 H38 0.930 . S
C44 C40 1.429 . S
C44 C43 1.391 . S
H45 C48 0.931 . S
H46 C51 0.928 . S
H47 C53 0.930 . S
C48 H45 0.931 . S
C48 C49 1.413 . S
C48 C50 1.360 . S
C49 C48 1.413 . S
C49 C53 1.429 . S
C50 C48 1.360 . S
C50 C51 1.372 . S
C51 H46 0.928 . S
C51 C50 1.372 . S
C51 C52 1.404 . S
C52 C51 1.404 . S
C52 C53 1.391 . S
C53 H47 0.930 . S
C53 C49 1.429 . S
C53 C52 1.391 . S
H54 C57 0.931 . S
H55 C60 0.928 . S
H56 C62 0.930 . S
C57 H54 0.931 . S
C57 C58 1.413 . S
C57 C59 1.360 . S
C58 C57 1.413 . S
C58 C62 1.429 . S
C59 C57 1.360 . S
C59 C60 1.372 . S
C60 H55 0.928 . S
C60 C59 1.372 . S
C60 C61 1.404 . S
C61 C60 1.404 . S
C61 C62 1.391 . S
C62 H56 0.930 . S
C62 C58 1.429 . S
C62 C61 1.391 . S
H63 C66 0.931 . S
H64 C69 0.928 . S
H65 C71 0.930 . S
C66 H63 0.931 . S
C66 C67 1.413 . S
C66 C68 1.360 . S
C67 C66 1.413 . S
C67 C71 1.429 . S
C68 C66 1.360 . S
C68 C69 1.372 . S
C69 H64 0.928 . S
C69 C68 1.372 . S
C69 C70 1.404 . S
C70 C69 1.404 . S
C70 C71 1.391 . S
C71 H65 0.930 . S
C71 C67 1.429 . S
C71 C70 1.391 . S
Sm72 C74 2.846 . S
Sm72 O92 2.543 . S
Sm72 O93 2.450 . S
Sm72 O94 2.681 1_545 S
Sm72 O95 2.464 1_545 S
Sm72 O96 2.396 . S
Sm72 O100 2.386 1_455 S
Sm72 O103 2.408 1_445 S
Sm73 C83 2.846 . S
Sm73 O94 2.386 1_655 S
Sm73 O97 2.408 1_665 S
Sm73 O98 2.543 . S
Sm73 O99 2.450 . S
Sm73 O100 2.681 1_565 S
Sm73 O101 2.464 1_565 S
Sm73 O102 2.396 . S
C74 Sm72 2.846 . S
C74 C75 1.506 . S
C74 O92 1.261 . S
C74 O93 1.242 . S
C75 C74 1.506 . S
C75 C76 1.358 . S
C75 C80 1.382 . S
C76 C75 1.358 . S
C76 C77 1.385 . S
C76 H104 0.930 . S
C77 C76 1.385 . S
C77 C78 1.395 . S
C77 H105 0.929 . S
C78 C77 1.395 . S
C78 C79 1.335 . S
C79 C78 1.335 . S
C79 C80 1.398 . S
C79 H106 0.930 . S
C80 C75 1.382 . S
C80 C79 1.398 . S
C80 H107 0.929 . S
C81 O94 1.271 . S
C81 O95 1.251 . S
C82 O96 1.252 . S
C82 O97 1.272 . S
C83 Sm73 2.846 . S
C83 C84 1.506 . S
C83 O98 1.261 . S
C83 O99 1.242 . S
C84 C83 1.506 . S
C84 C85 1.358 . S
C84 C89 1.382 . S
C85 C84 1.358 . S
C85 C86 1.385 . S
C85 H108 0.930 . S
C86 C85 1.385 . S
C86 C87 1.395 . S
C86 H109 0.929 . S
C87 C86 1.395 . S
C87 C88 1.335 . S
C88 C87 1.335 . S
C88 C89 1.398 . S
C88 H110 0.930 . S
C89 C84 1.382 . S
C89 C88 1.398 . S
C89 H111 0.929 . S
C90 O100 1.271 . S
C90 O101 1.251 . S
C91 O102 1.252 . S
C91 O103 1.272 . S
O92 Sm72 2.543 . S
O92 C74 1.261 . S
O93 Sm72 2.450 . S
O93 C74 1.242 . S
O94 Sm72 2.681 1_565 S
O94 Sm73 2.386 1_455 S
O94 C81 1.271 . S
O95 Sm72 2.464 1_565 S
O95 C81 1.251 . S
O96 Sm72 2.396 . S
O96 C82 1.252 . S
O97 Sm73 2.408 1_445 S
O97 C82 1.272 . S
O98 Sm73 2.543 . S
O98 C83 1.261 . S
O99 Sm73 2.450 . S
O99 C83 1.242 . S
O100 Sm72 2.386 1_655 S
O100 Sm73 2.681 1_545 S
O100 C90 1.271 . S
O101 Sm73 2.464 1_545 S
O101 C90 1.251 . S
O102 Sm73 2.396 . S
O102 C91 1.252 . S
O103 Sm72 2.408 1_665 S
O103 C91 1.272 . S
H104 C76 0.930 . S
H105 C77 0.929 . S
H106 C79 0.930 . S
H107 C80 0.929 . S
H108 C85 0.930 . S
H109 C86 0.929 . S
H110 C88 0.930 . S
H111 C89 0.929 . S
Sm112 C114 2.846 1_565 S
Sm112 O132 2.543 1_565 S
Sm112 O133 2.450 1_565 S
Sm112 O134 2.681 . S
Sm112 O135 2.464 . S
Sm112 O136 2.396 1_565 S
Sm112 O140 2.386 1_564 S
Sm112 O143 2.408 1_554 S
Sm113 C123 2.846 1_545 S
Sm113 O134 2.386 1_546 S
Sm113 O137 2.408 1_556 S
Sm113 O138 2.543 1_545 S
Sm113 O139 2.450 1_545 S
Sm113 O140 2.681 . S
Sm113 O141 2.464 . S
Sm113 O142 2.396 1_545 S
C114 Sm112 2.846 1_545 S
C114 C115 1.506 . S
C114 O132 1.261 . S
C114 O133 1.242 . S
C115 C114 1.506 . S
C115 C116 1.358 . S
C115 C120 1.382 . S
C116 C115 1.358 . S
C116 C117 1.385 . S
C116 H144 0.930 . S
C117 C116 1.385 . S
C117 C118 1.395 . S
C117 H145 0.929 . S
C118 C117 1.395 . S
C118 C119 1.335 . S
C119 C118 1.335 . S
C119 C120 1.398 . S
C119 H146 0.930 . S
C120 C115 1.382 . S
C120 C119 1.398 . S
C120 H147 0.929 . S
C121 O134 1.271 . S
C121 O135 1.251 . S
C122 O136 1.252 . S
C122 O137 1.272 . S
C123 Sm113 2.846 1_565 S
C123 C124 1.506 . S
C123 O138 1.261 . S
C123 O139 1.242 . S
C124 C123 1.506 . S
C124 C125 1.358 . S
C124 C129 1.382 . S
C125 C124 1.358 . S
C125 C126 1.385 . S
C125 H148 0.930 . S
C126 C125 1.385 . S
C126 C127 1.395 . S
C126 H149 0.929 . S
C127 C126 1.395 . S
C127 C128 1.335 . S
C128 C127 1.335 . S
C128 C129 1.398 . S
C128 H150 0.930 . S
C129 C124 1.382 . S
C129 C128 1.398 . S
C129 H151 0.929 . S
C130 O140 1.271 . S
C130 O141 1.251 . S
C131 O142 1.252 . S
C131 O143 1.272 . S
O132 Sm112 2.543 1_545 S
O132 C114 1.261 . S
O133 Sm112 2.450 1_545 S
O133 C114 1.242 . S
O134 Sm112 2.681 . S
O134 Sm113 2.386 1_564 S
O134 C121 1.271 . S
O135 Sm112 2.464 . S
O135 C121 1.251 . S
O136 Sm112 2.396 1_545 S
O136 C122 1.252 . S
O137 Sm113 2.408 1_554 S
O137 C122 1.272 . S
O138 Sm113 2.543 1_565 S
O138 C123 1.261 . S
O139 Sm113 2.450 1_565 S
O139 C123 1.242 . S
O140 Sm112 2.386 1_546 S
O140 Sm113 2.681 . S
O140 C130 1.271 . S
O141 Sm113 2.464 . S
O141 C130 1.251 . S
O142 Sm113 2.396 1_565 S
O142 C131 1.252 . S
O143 Sm112 2.408 1_556 S
O143 C131 1.272 . S
H144 C116 0.930 . S
H145 C117 0.929 . S
H146 C119 0.930 . S
H147 C120 0.929 . S
H148 C125 0.930 . S
H149 C126 0.929 . S
H150 C128 0.930 . S
H151 C129 0.929 . S
Sm152 C154 2.846 . S
Sm152 O172 2.543 . S
Sm152 O173 2.450 . S
Sm152 O174 2.681 . S
Sm152 O175 2.464 . S
Sm152 O176 2.396 . S
Sm152 O180 2.386 . S
Sm152 O183 2.408 . S
Sm153 C163 2.846 . S
Sm153 O174 2.386 . S
Sm153 O177 2.408 . S
Sm153 O178 2.543 . S
Sm153 O179 2.450 . S
Sm153 O180 2.681 . S
Sm153 O181 2.464 . S
Sm153 O182 2.396 . S
C154 Sm152 2.846 . S
C154 C155 1.506 . S
C154 O172 1.261 . S
C154 O173 1.242 . S
C155 C154 1.506 . S
C155 C156 1.358 . S
C155 C160 1.382 . S
C156 C155 1.358 . S
C156 C157 1.385 . S
C156 H184 0.930 . S
C157 C156 1.385 . S
C157 C158 1.395 . S
C157 H185 0.929 . S
C158 C157 1.395 . S
C158 C159 1.335 . S
C159 C158 1.335 . S
C159 C160 1.398 . S
C159 H186 0.930 . S
C160 C155 1.382 . S
C160 C159 1.398 . S
C160 H187 0.929 . S
C161 O174 1.271 . S
C161 O175 1.251 . S
C162 O176 1.252 . S
C162 O177 1.272 . S
C163 Sm153 2.846 . S
C163 C164 1.506 . S
C163 O178 1.261 . S
C163 O179 1.242 . S
C164 C163 1.506 . S
C164 C165 1.358 . S
C164 C169 1.382 . S
C165 C164 1.358 . S
C165 C166 1.385 . S
C165 H188 0.930 . S
C166 C165 1.385 . S
C166 C167 1.395 . S
C166 H189 0.929 . S
C167 C166 1.395 . S
C167 C168 1.335 . S
C168 C167 1.335 . S
C168 C169 1.398 . S
C168 H190 0.930 . S
C169 C164 1.382 . S
C169 C168 1.398 . S
C169 H191 0.929 . S
C170 O180 1.271 . S
C170 O181 1.251 . S
C171 O182 1.252 . S
C171 O183 1.272 . S
O172 Sm152 2.543 . S
O172 C154 1.261 . S
O173 Sm152 2.450 . S
O173 C154 1.242 . S
O174 Sm152 2.681 . S
O174 Sm153 2.386 . S
O174 C161 1.271 . S
O175 Sm152 2.464 . S
O175 C161 1.251 . S
O176 Sm152 2.396 . S
O176 C162 1.252 . S
O177 Sm153 2.408 . S
O177 C162 1.272 . S
O178 Sm153 2.543 . S
O178 C163 1.261 . S
O179 Sm153 2.450 . S
O179 C163 1.242 . S
O180 Sm152 2.386 . S
O180 Sm153 2.681 . S
O180 C170 1.271 . S
O181 Sm153 2.464 . S
O181 C170 1.251 . S
O182 Sm153 2.396 . S
O182 C171 1.252 . S
O183 Sm152 2.408 . S
O183 C171 1.272 . S
H184 C156 0.930 . S
H185 C157 0.929 . S
H186 C159 0.930 . S
H187 C160 0.929 . S
H188 C165 0.930 . S
H189 C166 0.929 . S
H190 C168 0.930 . S
H191 C169 0.929 . S
Sm192 C194 2.846 . S
Sm192 O212 2.543 . S
Sm192 O213 2.450 . S
Sm192 O214 2.681 1_455 S
Sm192 O215 2.464 1_455 S
Sm192 O216 2.396 . S
Sm192 O220 2.386 1_554 S
Sm192 O223 2.408 1_454 S
Sm193 C203 2.855 . S
Sm193 O214 2.389 1_556 S
Sm193 O217 2.399 1_656 S
Sm193 O218 2.553 . S
Sm193 O219 2.456 . S
Sm193 O220 2.675 1_655 S
Sm193 O221 2.458 1_655 S
Sm193 O222 2.401 . S
C194 Sm192 2.846 . S
C194 C195 1.506 . S
C194 O212 1.261 . S
C194 O213 1.242 . S
C195 C194 1.506 . S
C195 C196 1.358 . S
C195 C200 1.382 . S
C196 C195 1.358 . S
C196 C197 1.385 . S
C196 H224 0.930 . S
C197 C196 1.385 . S
C197 C198 1.395 . S
C197 H225 0.929 . S
C198 C197 1.395 . S
C198 C199 1.335 . S
C199 C198 1.335 . S
C199 C200 1.398 . S
C199 H226 0.930 . S
C200 C195 1.382 . S
C200 C199 1.398 . S
C200 H227 0.929 . S
C201 O214 1.271 . S
C201 O215 1.251 . S
C202 O216 1.252 . S
C202 O217 1.272 . S
C203 Sm193 2.855 . S
C203 C204 1.506 . S
C203 O218 1.261 . S
C203 O219 1.242 . S
C204 C203 1.506 . S
C204 C205 1.358 . S
C204 C209 1.382 . S
C205 C204 1.358 . S
C205 C206 1.385 . S
C205 H228 0.930 . S
C206 C205 1.385 . S
C206 C207 1.395 . S
C206 H229 0.929 . S
C207 C206 1.395 . S
C207 C208 1.335 . S
C208 C207 1.335 . S
C208 C209 1.398 . S
C208 H230 0.930 . S
C209 C204 1.382 . S
C209 C208 1.398 . S
C209 H231 0.929 . S
C210 O220 1.271 . S
C210 O221 1.251 . S
C211 O222 1.252 . S
C211 O223 1.272 . S
O212 Sm192 2.543 . S
O212 C194 1.261 . S
O213 Sm192 2.450 . S
O213 C194 1.242 . S
O214 Sm192 2.681 1_655 S
O214 Sm193 2.389 1_554 S
O214 C201 1.271 . S
O215 Sm192 2.464 1_655 S
O215 C201 1.251 . S
O216 Sm192 2.396 . S
O216 C202 1.252 . S
O217 Sm193 2.399 1_454 S
O217 C202 1.272 . S
O218 Sm193 2.553 . S
O218 C203 1.261 . S
O219 Sm193 2.456 . S
O219 C203 1.242 . S
O220 Sm192 2.386 1_556 S
O220 Sm193 2.675 1_455 S
O220 C210 1.271 . S
O221 Sm193 2.458 1_455 S
O221 C210 1.251 . S
O222 Sm193 2.401 . S
O222 C211 1.252 . S
O223 Sm192 2.408 1_656 S
O223 C211 1.272 . S
H224 C196 0.930 . S
H225 C197 0.929 . S
H226 C199 0.930 . S
H227 C200 0.929 . S
H228 C205 0.930 . S
H229 C206 0.929 . S
H230 C208 0.930 . S
H231 C209 0.929 . S
C232 C233 1.369 . S
C232 C234 1.419 . S
C232 H236 0.930 . S
C233 C232 1.369 . S
C233 C242 1.429 . S
C234 C232 1.419 . S
C234 C235 1.363 . S
C234 H237 0.929 . S
C235 C234 1.363 . S
C235 C241 1.428 . S
H236 C232 0.930 . S
H237 C234 0.929 . S
S238 N239 1.613 . S
S238 N240 1.610 . S
N239 S238 1.613 . S
N239 C242 1.350 . S
N240 S238 1.610 . S
N240 C241 1.351 . S
C241 C235 1.428 . S
C241 N240 1.351 . S
C241 C242 1.434 . S
C242 C233 1.429 . S
C242 N239 1.350 . S
C242 C241 1.434 . S
C243 C244 1.369 . S
C243 C245 1.419 . S
C243 H247 0.930 . S
C244 C243 1.369 . S
C244 C253 1.429 . S
C245 C243 1.419 . S
C245 C246 1.363 . S
C245 H248 0.929 . S
C246 C245 1.363 . S
C246 C252 1.428 . S
H247 C243 0.930 . S
H248 C245 0.929 . S
S249 N250 1.613 . S
S249 N251 1.610 . S
N250 S249 1.613 . S
N250 C253 1.350 . S
N251 S249 1.610 . S
N251 C252 1.351 . S
C252 C246 1.428 . S
C252 N251 1.351 . S
C252 C253 1.434 . S
C253 C244 1.429 . S
C253 N250 1.350 . S
C253 C252 1.434 . S
C254 C255 1.369 . S
C254 C256 1.419 . S
C254 H258 0.930 . S
C255 C254 1.369 . S
C255 C264 1.429 . S
C256 C254 1.419 . S
C256 C257 1.363 . S
C256 H259 0.929 . S
C257 C256 1.363 . S
C257 C263 1.428 . S
H258 C254 0.930 . S
H259 C256 0.929 . S
S260 N261 1.613 . S
S260 N262 1.610 . S
N261 S260 1.613 . S
N261 C264 1.350 . S
N262 S260 1.610 . S
N262 C263 1.351 . S
C263 C257 1.428 . S
C263 N262 1.351 . S
C263 C264 1.434 . S
C264 C255 1.429 . S
C264 N261 1.350 . S
C264 C263 1.434 . S
C265 C266 1.369 . S
C265 C267 1.419 . S
C265 H269 0.930 . S
C266 C265 1.369 . S
C266 C275 1.429 . S
C267 C265 1.419 . S
C267 C268 1.363 . S
C267 H270 0.929 . S
C268 C267 1.363 . S
C268 C274 1.428 . S
H269 C265 0.930 . S
H270 C267 0.929 . S
S271 N272 1.613 . S
S271 N273 1.610 . S
N272 S271 1.613 . S
N272 C275 1.350 . S
N273 S271 1.610 . S
N273 C274 1.351 . S
C274 C268 1.428 . S
C274 N273 1.351 . S
C274 C275 1.434 . S
C275 C266 1.429 . S
C275 N272 1.350 . S
C275 C274 1.434 . S
C276 C277 1.369 . S
C276 C278 1.419 . S
C276 H280 0.930 . S
C277 C276 1.369 . S
C277 C286 1.429 . S
C278 C276 1.419 . S
C278 C279 1.363 . S
C278 H281 0.929 . S
C279 C278 1.363 . S
C279 C285 1.428 . S
H280 C276 0.930 . S
H281 C278 0.929 . S
S282 N283 1.613 . S
S282 N284 1.610 . S
N283 S282 1.613 . S
N283 C286 1.350 . S
N284 S282 1.610 . S
N284 C285 1.351 . S
C285 C279 1.428 . S
C285 N284 1.351 . S
C285 C286 1.434 . S
C286 C277 1.429 . S
C286 N283 1.350 . S
C286 C285 1.434 . S
C287 C288 1.369 . S
C287 C289 1.419 . S
C287 H291 0.930 . S
C288 C287 1.369 . S
C288 C297 1.429 . S
C289 C287 1.419 . S
C289 C290 1.363 . S
C289 H292 0.929 . S
C290 C289 1.363 . S
C290 C296 1.428 . S
H291 C287 0.930 . S
H292 C289 0.929 . S
S293 N294 1.613 . S
S293 N295 1.610 . S
N294 S293 1.613 . S
N294 C297 1.350 . S
N295 S293 1.610 . S
N295 C296 1.351 . S
C296 C290 1.428 . S
C296 N295 1.351 . S
C296 C297 1.434 . S
C297 C288 1.429 . S
C297 N294 1.350 . S
C297 C296 1.434 . S
C298 C299 1.369 . S
C298 C300 1.419 . S
C298 H302 0.930 . S
C299 C298 1.369 . S
C299 C308 1.429 . S
C300 C298 1.419 . S
C300 C301 1.363 . S
C300 H303 0.929 . S
C301 C300 1.363 . S
C301 C307 1.428 . S
H302 C298 0.930 . S
H303 C300 0.929 . S
S304 N305 1.613 1_554 S
S304 N306 1.610 . S
N305 S304 1.613 1_556 S
N305 C308 1.350 . S
N306 S304 1.610 . S
N306 C307 1.351 1_554 S
C307 C301 1.428 . S
C307 N306 1.351 1_556 S
C307 C308 1.434 . S
C308 C299 1.429 . S
C308 N305 1.350 . S
C308 C307 1.434 . S
C309 C310 1.369 . S
C309 C311 1.419 . S
C309 H313 0.930 . S
C310 C309 1.369 . S
C310 C319 1.429 . S
C311 C309 1.419 . S
C311 C312 1.363 . S
C311 H314 0.929 . S
C312 C311 1.363 . S
C312 C318 1.428 . S
H313 C309 0.930 . S
H314 C311 0.929 . S
S315 N316 1.613 . S
S315 N317 1.610 . S
N316 S315 1.613 . S
N316 C319 1.350 . S
N317 S315 1.610 . S
N317 C318 1.351 . S
C318 C312 1.428 . S
C318 N317 1.351 . S
C318 C319 1.434 . S
C319 C310 1.429 . S
C319 N316 1.350 . S
C319 C318 1.434 . S
C320 C321 1.369 . S
C320 C322 1.419 . S
C320 H324 0.930 . S
C321 C320 1.369 . S
C321 C330 1.429 . S
C322 C320 1.419 . S
C322 C323 1.363 . S
C322 H325 0.929 . S
C323 C322 1.363 . S
C323 C329 1.428 . S
H324 C320 0.930 . S
H325 C322 0.929 . S
S326 N327 1.613 . S
S326 N328 1.610 . S
N327 S326 1.613 . S
N327 C330 1.350 . S
N328 S326 1.610 . S
N328 C329 1.351 . S
C329 C323 1.428 . S
C329 N328 1.351 . S
C329 C330 1.434 . S
C330 C321 1.429 . S
C330 N327 1.350 . S
C330 C329 1.434 . S
C331 C332 1.369 . S
C331 C333 1.419 . S
C331 H335 0.930 . S
C332 C331 1.369 . S
C332 C341 1.429 . S
C333 C331 1.419 . S
C333 C334 1.363 . S
C333 H336 0.929 . S
C334 C333 1.363 . S
C334 C340 1.428 . S
H335 C331 0.930 . S
H336 C333 0.929 . S
S337 N338 1.613 . S
S337 N339 1.610 . S
N338 S337 1.613 . S
N338 C341 1.350 . S
N339 S337 1.610 . S
N339 C340 1.351 . S
C340 C334 1.428 . S
C340 N339 1.351 . S
C340 C341 1.434 . S
C341 C332 1.429 . S
C341 N338 1.350 . S
C341 C340 1.434 . S
C342 C343 1.369 . S
C342 C344 1.419 . S
C342 H346 0.930 . S
C343 C342 1.369 . S
C343 C352 1.429 . S
C344 C342 1.419 . S
C344 C345 1.363 . S
C344 H347 0.929 . S
C345 C344 1.363 . S
C345 C351 1.428 . S
H346 C342 0.930 . S
H347 C344 0.929 . S
S348 N349 1.613 1_455 S
S348 N350 1.610 . S
N349 S348 1.613 1_655 S
N349 C352 1.350 . S
N350 S348 1.610 . S
N350 C351 1.351 1_455 S
C351 C345 1.428 . S
C351 N350 1.351 1_655 S
C351 C352 1.434 . S
C352 C343 1.429 . S
C352 N349 1.350 . S
C352 C351 1.434 . S
C353 C354 1.369 . S
C353 C355 1.419 . S
C353 H357 0.930 . S
C354 C353 1.369 . S
C354 C363 1.429 . S
C355 C353 1.419 . S
C355 C356 1.363 . S
C355 H358 0.929 . S
C356 C355 1.363 . S
C356 C362 1.428 . S
H357 C353 0.930 . S
H358 C355 0.929 . S
S359 N360 1.613 . S
S359 N361 1.610 . S
N360 S359 1.613 . S
N360 C363 1.350 . S
N361 S359 1.610 . S
N361 C362 1.351 . S
C362 C356 1.428 . S
C362 N361 1.351 . S
C362 C363 1.434 . S
C363 C354 1.429 . S
C363 N360 1.350 . S
C363 C362 1.434 . S
C364 C365 1.369 . S
C364 C366 1.419 . S
C364 H368 0.930 . S
C365 C364 1.369 . S
C365 C374 1.429 . S
C366 C364 1.419 . S
C366 C367 1.363 . S
C366 H369 0.929 . S
C367 C366 1.363 . S
C367 C373 1.428 . S
H368 C364 0.930 . S
H369 C366 0.929 . S
S370 N371 1.613 . S
S370 N372 1.610 . S
N371 S370 1.613 . S
N371 C374 1.350 . S
N372 S370 1.610 . S
N372 C373 1.351 . S
C373 C367 1.428 . S
C373 N372 1.351 . S
C373 C374 1.434 . S
C374 C365 1.429 . S
C374 N371 1.350 . S
C374 C373 1.434 . S
C375 C376 1.369 . S
C375 C377 1.419 . S
C375 H379 0.930 . S
C376 C375 1.369 . S
C376 C385 1.429 . S
C377 C375 1.419 . S
C377 C378 1.363 . S
C377 H380 0.929 . S
C378 C377 1.363 . S
C378 C384 1.428 . S
H379 C375 0.930 . S
H380 C377 0.929 . S
S381 N382 1.613 . S
S381 N383 1.610 . S
N382 S381 1.613 . S
N382 C385 1.350 . S
N383 S381 1.610 . S
N383 C384 1.351 . S
C384 C378 1.428 . S
C384 N383 1.351 . S
C384 C385 1.434 . S
C385 C376 1.429 . S
C385 N382 1.350 . S
C385 C384 1.434 . S
C386 C387 1.369 . S
C386 C388 1.419 . S
C386 H390 0.930 . S
C387 C386 1.369 . S
C387 C396 1.429 . S
C388 C386 1.419 . S
C388 C389 1.363 . S
C388 H391 0.929 . S
C389 C388 1.363 . S
C389 C395 1.428 . S
H390 C386 0.930 . S
H391 C388 0.929 . S
S392 N393 1.613 . S
S392 N394 1.610 . S
N393 S392 1.613 . S
N393 C396 1.350 . S
N394 S392 1.610 . S
N394 C395 1.351 . S
C395 C389 1.428 . S
C395 N394 1.351 . S
C395 C396 1.434 . S
C396 C387 1.429 . S
C396 N393 1.350 . S
C396 C395 1.434 . S
C397 C398 1.369 . S
C397 C399 1.419 . S
C397 H401 0.930 . S
C398 C397 1.369 . S
C398 C407 1.429 . S
C399 C397 1.419 . S
C399 C400 1.363 . S
C399 H402 0.929 . S
C400 C399 1.363 . S
C400 C406 1.428 . S
H401 C397 0.930 . S
H402 C399 0.929 . S
S403 N404 1.613 . S
S403 N405 1.610 . S
N404 S403 1.613 . S
N404 C407 1.350 . S
N405 S403 1.610 . S
N405 C406 1.351 . S
C406 C400 1.428 . S
C406 N405 1.351 . S
C406 C407 1.434 . S
C407 C398 1.429 . S
C407 N404 1.350 . S
C407 C406 1.434 . S
C408 C409 1.369 . S
C408 C410 1.419 . S
C408 H412 0.930 . S
C409 C408 1.369 . S
C409 C418 1.429 . S
C410 C408 1.419 . S
C410 C411 1.363 . S
C410 H413 0.929 . S
C411 C410 1.363 . S
C411 C417 1.428 . S
H412 C408 0.930 . S
H413 C410 0.929 . S
S414 N415 1.613 . S
S414 N416 1.610 . S
N415 S414 1.613 . S
N415 C418 1.350 . S
N416 S414 1.610 . S
N416 C417 1.351 . S
C417 C411 1.428 . S
C417 N416 1.351 . S
C417 C418 1.434 . S
C418 C409 1.429 . S
C418 N415 1.350 . S
C418 C417 1.434 . S
C419 C420 1.369 . S
C419 C421 1.419 . S
C419 H423 0.930 . S
C420 C419 1.369 . S
C420 C429 1.429 . S
C421 C419 1.419 . S
C421 C422 1.363 . S
C421 H424 0.929 . S
C422 C421 1.363 . S
C422 C428 1.428 . S
H423 C419 0.930 . S
H424 C421 0.929 . S
S425 N426 1.613 . S
S425 N427 1.610 . S
N426 S425 1.613 . S
N426 C429 1.350 . S
N427 S425 1.610 . S
N427 C428 1.351 . S
C428 C422 1.428 . S
C428 N427 1.351 . S
C428 C429 1.434 . S
C429 C420 1.429 . S
C429 N426 1.350 . S
C429 C428 1.434 . S
C430 C431 1.369 . S
C430 C432 1.419 . S
C430 H434 0.930 . S
C431 C430 1.369 . S
C431 C440 1.429 . S
C432 C430 1.419 . S
C432 C433 1.363 . S
C432 H435 0.929 . S
C433 C432 1.363 . S
C433 C439 1.428 . S
H434 C430 0.930 . S
H435 C432 0.929 . S
S436 N437 1.613 1_556 S
S436 N438 1.610 1_556 S
N437 S436 1.613 1_554 S
N437 C440 1.350 . S
N438 S436 1.610 1_554 S
N438 C439 1.351 . S
C439 C433 1.428 . S
C439 N438 1.351 . S
C439 C440 1.434 . S
C440 C431 1.429 . S
C440 N437 1.350 . S
C440 C439 1.434 . S
C441 C442 1.369 . S
C441 C443 1.419 . S
C441 H445 0.930 . S
C442 C441 1.369 . S
C442 C451 1.429 . S
C443 C441 1.419 . S
C443 C444 1.363 . S
C443 H446 0.929 . S
C444 C443 1.363 . S
C444 C450 1.428 . S
H445 C441 0.930 . S
H446 C443 0.929 . S
S447 N448 1.613 . S
S447 N449 1.610 . S
N448 S447 1.613 . S
N448 C451 1.350 . S
N449 S447 1.610 . S
N449 C450 1.351 . S
C450 C444 1.428 . S
C450 N449 1.351 . S
C450 C451 1.434 . S
C451 C442 1.429 . S
C451 N448 1.350 . S
C451 C450 1.434 . S
C452 C453 1.369 . S
C452 C454 1.419 . S
C452 H456 0.930 . S
C453 C452 1.369 . S
C453 C462 1.429 . S
C454 C452 1.419 . S
C454 C455 1.363 . S
C454 H457 0.929 . S
C455 C454 1.363 . S
C455 C461 1.428 . S
H456 C452 0.930 . S
H457 C454 0.929 . S
S458 N459 1.613 . S
S458 N460 1.610 . S
N459 S458 1.613 . S
N459 C462 1.350 . S
N460 S458 1.610 . S
N460 C461 1.351 . S
C461 C455 1.428 . S
C461 N460 1.351 . S
C461 C462 1.434 . S
C462 C453 1.429 . S
C462 N459 1.350 . S
C462 C461 1.434 . S
C463 C464 1.369 . S
C463 C465 1.419 . S
C463 H467 0.930 . S
C464 C463 1.369 . S
C464 C473 1.429 . S
C465 C463 1.419 . S
C465 C466 1.363 . S
C465 H468 0.929 . S
C466 C465 1.363 . S
C466 C472 1.428 . S
H467 C463 0.930 . S
H468 C465 0.929 . S
S469 N470 1.613 . S
S469 N471 1.610 . S
N470 S469 1.613 . S
N470 C473 1.350 . S
N471 S469 1.610 . S
N471 C472 1.351 . S
C472 C466 1.428 . S
C472 N471 1.351 . S
C472 C473 1.434 . S
C473 C464 1.429 . S
C473 N470 1.350 . S
C473 C472 1.434 . S
C474 C475 1.369 . S
C474 C476 1.419 . S
C474 H478 0.930 . S
C475 C474 1.369 . S
C475 C484 1.429 . S
C476 C474 1.419 . S
C476 C477 1.363 . S
C476 H479 0.929 . S
C477 C476 1.363 . S
C477 C483 1.428 . S
H478 C474 0.930 . S
H479 C476 0.929 . S
S480 N481 1.613 . S
S480 N482 1.610 . S
N481 S480 1.613 . S
N481 C484 1.350 . S
N482 S480 1.610 . S
N482 C483 1.351 . S
C483 C477 1.428 . S
C483 N482 1.351 . S
C483 C484 1.434 . S
C484 C475 1.429 . S
C484 N481 1.350 . S
C484 C483 1.434 . S
C485 C486 1.369 . S
C485 C487 1.419 . S
C485 H489 0.930 . S
C486 C485 1.369 . S
C486 C495 1.429 . S
C487 C485 1.419 . S
C487 C488 1.363 . S
C487 H490 0.929 . S
C488 C487 1.363 . S
C488 C494 1.428 . S
H489 C485 0.930 . S
H490 C487 0.929 . S
S491 N492 1.613 . S
S491 N493 1.610 . S
N492 S491 1.613 . S
N492 C495 1.350 . S
N493 S491 1.610 . S
N493 C494 1.351 . S
C494 C488 1.428 . S
C494 N493 1.351 . S
C494 C495 1.434 . S
C495 C486 1.429 . S
C495 N492 1.350 . S
C495 C494 1.434 . S
C233 C5 1.024 . S
C235 C78 1.045 . S
C244 C14 1.012 . S
C246 C127 1.013 . S
C257 C162 2.513 . S
C255 C25 2.574 . S
C266 C34 2.529 . S
C268 C201 2.480 . S
C279 C122 2.015 . S
C277 C7 1.867 . S
C290 C81 0.713 . S
C288 C13 0.722 . S
C301 C211 1.953 . S
C299 C23 2.008 . S
C312 C170 1.799 . S
C310 C31 1.821 . S
C321 C4 1.379 . S
C323 C198 1.442 . S
C334 C130 2.347 . S
C332 C22 2.449 . S
C343 C32 2.384 . S
C345 C91 2.372 . S
C354 C16 1.059 . S
C356 C167 1.089 . S
C367 C87 1.032 . S
C365 C41 1.024 . S
C376 C50 1.016 . S
C378 C118 1.016 . S
C387 C61 2.568 . S
C389 C171 2.508 . S
C398 C67 2.537 . S
C400 C210 2.491 . S
C409 C40 1.876 . S
C411 C131 2.030 . S
C422 C90 0.691 . S
C420 C52 0.688 . S
C433 C202 1.957 . S
C431 C59 2.017 . S
C444 C161 1.798 . S
C442 C70 1.817 . S
C453 C43 1.371 . S
C455 C207 1.439 . S
C466 C121 2.361 . S
C464 C58 2.458 . S
C477 C82 2.356 . S
C475 C68 2.364 . S
C486 C49 1.064 . S
C488 C158 1.089 . S
