# Generated by pormake.
# Topology pth, (4,4)-cn, num edge types: 1
# Building blocks:
#     Node 0, Type 0, BuildingBlock: QUQFOY_clean_sbu_1, # of connection points: 4
#     Node 1, Type 0, BuildingBlock: QUQFOY_clean_sbu_1, # of connection points: 4
#     Node 2, Type 0, BuildingBlock: QUQFOY_clean_sbu_1, # of connection points: 4
#     Node 3, Type 1, BuildingBlock: NAWXER_clean_linker_0, # of connection points: 4
#     Node 4, Type 1, BuildingBlock: NAWXER_clean_linker_0, # of connection points: 4
#     Node 5, Type 1, BuildingBlock: NAWXER_clean_linker_0, # of connection points: 4
#     Edge 6, Type (0, 1), BuildingBlock: EZIPEK_clean_linker_0, # of connection points: 2
#     Edge 7, Type (0, 1), BuildingBlock: EZIPEK_clean_linker_0, # of connection points: 2
#     Edge 8, Type (0, 1), BuildingBlock: EZIPEK_clean_linker_0, # of connection points: 2
#     Edge 9, Type (0, 1), BuildingBlock: EZIPEK_clean_linker_0, # of connection points: 2
#     Edge 10, Type (0, 1), BuildingBlock: EZIPEK_clean_linker_0, # of connection points: 2
#     Edge 11, Type (0, 1), BuildingBlock: EZIPEK_clean_linker_0, # of connection points: 2
#     Edge 12, Type (0, 1), BuildingBlock: EZIPEK_clean_linker_0, # of connection points: 2
#     Edge 13, Type (0, 1), BuildingBlock: EZIPEK_clean_linker_0, # of connection points: 2
#     Edge 14, Type (0, 1), BuildingBlock: EZIPEK_clean_linker_0, # of connection points: 2
#     Edge 15, Type (0, 1), BuildingBlock: EZIPEK_clean_linker_0, # of connection points: 2
#     Edge 16, Type (0, 1), BuildingBlock: EZIPEK_clean_linker_0, # of connection points: 2
#     Edge 17, Type (0, 1), BuildingBlock: EZIPEK_clean_linker_0, # of connection points: 2
# Relax obj value: 0.024
# Max RMSD: 0.124
# Mean RMSD: 0.071
data_MOF--net-pth--node1-QUQFOY_clean_sbu_1--node2-NAWXER_clean_linker_0--edge1-EZIPEK_clean_linker_0
_symmetry_space_group_name_H-M    P1
_symmetry_Int_Tables_number       1
_symmetry_cell_setting            triclinic
loop_
_symmetry_equiv_pos_as_xyz
'x, y, z'
_cell_length_a     21.919074
_cell_length_b     23.642258
_cell_length_c     51.962722
_cell_angle_alpha  89.927612
_cell_angle_beta   90.051118
_cell_angle_gamma 120.09722
loop_
_atom_site_label
_atom_site_type_symbol
_atom_site_fract_x
_atom_site_fract_y
_atom_site_fract_z
_atom_type_partial_charge
O0 O 0.03276 0.09408 0.02525 0.0
Cd1 Cd 0.95869 0.03631 0.05227 0.0
Cd2 Cd 0.02912 0.97593 0.04861 0.0
O3 O 0.10984 0.06396 0.03555 0.0
O4 O 0.92307 0.09279 0.06601 0.0
O5 O 0.98519 0.06043 0.08926 0.0
C6 C 0.95497 0.09518 0.08719 0.0
C7 C 0.03943 0.9122 0.08066 0.0
C8 C 0.0943 0.10188 0.02356 0.0
C9 C 0.88815 0.9139 0.02414 0.0
O10 O 0.95032 0.92311 0.02238 0.0
O11 O 0.87546 0.94866 0.03945 0.0
O12 O 0.07018 0.92059 0.05867 0.0
O13 O 0.00696 0.94417 0.08512 0.0
O14 O 0.93376 0.03518 0.40054 0.0
Cd15 Cd 0.02366 0.06606 0.37888 0.0
Cd16 Cd 0.985 0.93964 0.38635 0.0
O17 O 0.90233 0.93227 0.4077 0.0
O18 O 0.04289 0.15467 0.36859 0.0
O19 O 0.01777 0.07583 0.34043 0.0
C20 C 0.03037 0.1343 0.34519 0.0
C21 C 0.97448 0.87464 0.35134 0.0
C22 C 0.89333 0.98071 0.41135 0.0
C23 C 0.12201 0.03871 0.40942 0.0
O24 O 0.07692 0.97867 0.40658 0.0
O25 O 0.11323 0.08291 0.39907 0.0
O26 O 0.96499 0.85204 0.37452 0.0
O27 O 0.98634 0.93352 0.34789 0.0
O28 O 0.88964 0.94411 0.6959 0.0
Cd29 Cd 0.95784 0.92833 0.71767 0.0
Cd30 Cd 0.02959 0.05892 0.71899 0.0
O31 O 0.94285 0.05157 0.70013 0.0
O32 O 0.8991 0.83903 0.73239 0.0
O33 O 0.95173 0.92898 0.75612 0.0
C34 C 0.90951 0.86659 0.75464 0.0
C35 C 0.08227 0.12605 0.7545 0.0
C36 C 0.8928 0.99824 0.69129 0.0
C37 C 0.09312 0.99097 0.68955 0.0
O38 O 0.0967 0.04433 0.69603 0.0
O39 O 0.04314 0.93644 0.69757 0.0
O40 O 0.08924 0.15024 0.73172 0.0
O41 O 0.04178 0.06377 0.7574 0.0
C42 C 0.95719 0.29527 0.25636 0.0
C43 C 0.01256 0.31331 0.27393 0.0
C44 C 0.9536 0.34287 0.2415 0.0
C45 C 0.00586 0.40907 0.2438 0.0
C46 C 0.0644 0.37934 0.27643 0.0
C47 C 0.06087 0.42692 0.26155 0.0
C48 C 0.00321 0.46017 0.22815 0.0
C49 C 0.03642 0.32937 0.17435 0.0
C50 C 0.98239 0.29802 0.15611 0.0
C51 C 0.04168 0.38148 0.18881 0.0
C52 C 0.99204 0.4021 0.18564 0.0
C53 C 0.93356 0.31923 0.15259 0.0
C54 C 0.93849 0.371 0.16719 0.0
C55 C 0.99602 0.45661 0.20106 0.0
C56 C 0.07119 0.72688 0.1712 0.0
C57 C 0.01821 0.71584 0.15334 0.0
C58 C 0.06401 0.67622 0.18717 0.0
C59 C 0.00437 0.61349 0.18518 0.0
C60 C 0.95784 0.65341 0.15181 0.0
C61 C 0.95151 0.6024 0.16733 0.0
C62 C -0.00115 0.55888 0.20083 0.0
C63 C 0.94544 0.67739 0.25383 0.0
C64 C 0.98918 0.70334 0.27543 0.0
C65 C 0.9505 0.63192 0.23814 0.0
C66 C 0.00046 0.61263 0.24348 0.0
C67 C 0.03903 0.68428 0.28085 0.0
C68 C 0.04444 0.63912 0.26506 0.0
C69 C 0.00322 0.56123 0.22796 0.0
H70 H 0.9163 0.24454 0.25447 0.0
H71 H 0.9098 0.32806 0.22836 0.0
H72 H 0.10705 0.39405 0.29011 0.0
H73 H 0.10141 0.47769 0.26376 0.0
H74 H 0.07501 0.31405 0.17708 0.0
H75 H 0.08472 0.40583 0.20237 0.0
H76 H 0.8919 0.29589 0.13843 0.0
H77 H 0.90004 0.3864 0.16424 0.0
H78 H 0.11842 0.77444 0.17251 0.0
H79 H 0.10581 0.68553 0.20062 0.0
H80 H 0.9165 0.64385 0.1381 0.0
H81 H 0.90528 0.55429 0.16546 0.0
H82 H 0.90632 0.69123 0.24949 0.0
H83 H 0.91392 0.61053 0.22227 0.0
H84 H 0.07308 0.70373 0.29751 0.0
H85 H 0.08277 0.62457 0.2698 0.0
N86 N 0.00632 0.51222 0.24054 0.0
N87 N 0.99433 0.50627 0.18844 0.0
C88 C 0.71597 1.00322 0.51009 0.0
C89 C 0.69207 0.97443 0.48579 0.0
C90 C 0.67125 0.0119 0.52672 0.0
C91 C 0.59987 0.98735 0.5203 0.0
C92 C 0.62133 0.95045 0.47917 0.0
C93 C 0.57556 0.95552 0.49641 0.0
C94 C 0.55078 0.99923 0.53628 0.0
C95 C 0.65587 0.94597 0.60173 0.0
C96 C 0.69875 1.00132 0.6168 0.0
C97 C 0.60992 0.94789 0.58351 0.0
C98 C 0.60656 1.00517 0.5803 0.0
C99 C 0.6957 0.05861 0.61334 0.0
C100 C 0.64937 0.06028 0.5954 0.0
C101 C 0.5538 0.00682 0.56338 0.0
C102 C 0.27404 0.97126 0.59103 0.0
C103 C 0.29444 0.00926 0.61348 0.0
C104 C 0.32498 0.97665 0.57347 0.0
C105 C 0.39685 0.02066 0.57808 0.0
C106 C 0.3658 0.05416 0.61785 0.0
C107 C 0.41664 0.05968 0.60032 0.0
C108 C 0.45207 0.01894 0.56238 0.0
C109 C 0.34935 0.08877 0.50508 0.0
C110 C 0.31765 0.04667 0.48409 0.0
C111 C 0.39103 0.07747 0.52237 0.0
C112 C 0.40156 0.02402 0.51881 0.0
C113 C 0.32817 0.99344 0.48053 0.0
C114 C 0.37016 0.98244 0.49766 0.0
C115 C 0.45074 0.01472 0.53533 0.0
H116 H 0.77065 0.02275 0.51553 0.0
H117 H 0.69443 0.04064 0.54379 0.0
H118 H 0.60171 0.92866 0.46046 0.0
H119 H 0.52122 0.93618 0.49055 0.0
H120 H 0.65786 0.90142 0.60421 0.0
H121 H 0.57623 0.90461 0.57232 0.0
H122 H 0.72863 0.10171 0.62475 0.0
H123 H 0.64662 0.10457 0.59336 0.0
H124 H 0.21896 0.93638 0.58746 0.0
H125 H 0.30835 0.94436 0.55698 0.0
H126 H 0.38213 0.08401 0.63506 0.0
H127 H 0.47174 0.09332 0.60446 0.0
H128 H 0.3418 0.13022 0.50799 0.0
H129 H 0.41636 0.11133 0.53811 0.0
H130 H 0.30398 0.96052 0.46443 0.0
H131 H 0.37828 0.94145 0.49435 0.0
N132 N 0.49948 1.00431 0.52353 0.0
N133 N 0.50421 0.01588 0.57518 0.0
C134 C 0.3421 0.33515 0.82418 0.0
C135 C 0.27061 0.3105 0.82992 0.0
C136 C 0.39448 0.38242 0.83994 0.0
C137 C 0.37637 0.40585 0.86176 0.0
C138 C 0.25212 0.33379 0.85164 0.0
C139 C 0.30456 0.38176 0.86723 0.0
C140 C 0.43296 0.45761 0.87778 0.0
C141 C 0.29897 0.36665 0.95747 0.0
C142 C 0.28644 0.30294 0.95387 0.0
C143 C 0.34477 0.41691 0.94109 0.0
C144 C 0.37776 0.40395 0.92064 0.0
C145 C 0.3195 0.28979 0.93351 0.0
C146 C 0.36498 0.34002 0.917 0.0
C147 C 0.43058 0.45859 0.90489 0.0
C148 C 0.67228 0.73053 0.93096 0.0
C149 C 0.68279 0.71508 0.9561 0.0
C150 C 0.62441 0.6815 0.91448 0.0
C151 C 0.58962 0.61553 0.92227 0.0
C152 C 0.64491 0.64992 0.9644 0.0
C153 C 0.59998 0.60071 0.94758 0.0
C154 C 0.53811 0.5614 0.90557 0.0
C155 C 0.73054 0.67024 0.85467 0.0
C156 C 0.71759 0.69444 0.83187 0.0
C157 C 0.67417 0.6256 0.86996 0.0
C158 C 0.60427 0.60608 0.86299 0.0
C159 C 0.64785 0.67393 0.82469 0.0
C160 C 0.59175 0.63007 0.84006 0.0
C161 C 0.54341 0.55811 0.87848 0.0
H162 H 0.3573 0.31777 0.80746 0.0
H163 H 0.44928 0.40051 0.83511 0.0
H164 H 0.19718 0.31553 0.85627 0.0
H165 H 0.28878 0.40055 0.88332 0.0
H166 H 0.27381 0.37747 0.97313 0.0
H167 H 0.3547 0.46605 0.94443 0.0
H168 H 0.3105 0.24082 0.93059 0.0
H169 H 0.39138 0.32925 0.90179 0.0
H170 H 0.70031 0.78069 0.92426 0.0
H171 H 0.61455 0.69564 0.89583 0.0
H172 H 0.65145 0.63693 0.9838 0.0
H173 H 0.57316 0.55073 0.95449 0.0
H174 H 0.78408 0.6855 0.86047 0.0
H175 H 0.68514 0.60633 0.88716 0.0
H176 H 0.6369 0.69208 0.80715 0.0
H177 H 0.5384 0.61518 0.83411 0.0
N178 N 0.48986 0.50701 0.86572 0.0
N179 N 0.48226 0.51081 0.91751 0.0
C180 C 0.91449 0.12944 0.12638 0.0
C181 C 0.96549 0.14435 0.10687 0.0
C182 C 0.02754 0.25972 0.11958 0.0
C183 C 0.97835 0.24451 0.13987 0.0
N184 N 0.88299 0.16395 0.16575 0.0
N185 N 0.07773 0.21983 0.08778 0.0
C186 C 0.92409 0.17895 0.14422 0.0
C187 C 0.02444 0.20832 0.10446 0.0
N188 N 0.85615 0.06844 0.12741 0.0
N189 N 0.075 0.32357 0.11393 0.0
H190 H 0.07669 0.18374 0.07594 0.0
H191 H 0.12563 0.26359 0.08718 0.0
H192 H 0.0789 0.3628 0.12444 0.0
H193 H 0.10669 0.33815 0.09758 0.0
H194 H 0.81298 0.05637 0.13922 0.0
H195 H 0.8491 0.03056 0.11522 0.0
H196 H 0.84712 0.11635 0.1714 0.0
H197 H 0.88881 0.19903 0.17921 0.0
C198 C 0.8585 0.03198 0.44644 0.0
C199 C 0.84086 0.97701 0.43048 0.0
C200 C 0.7294 0.91608 0.454 0.0
C201 C 0.74254 0.97458 0.46652 0.0
N202 N 0.81198 0.09282 0.46748 0.0
N203 N 0.75015 0.87056 0.4156 0.0
C204 C 0.8047 0.03404 0.46054 0.0
C205 C 0.77357 0.91989 0.43322 0.0
N206 N 0.92689 0.08069 0.44952 0.0
N207 N 0.67663 0.85681 0.46236 0.0
H208 H 0.77857 0.87306 0.39915 0.0
H209 H 0.69899 0.83065 0.41581 0.0
H210 H 0.64537 0.85167 0.4783 0.0
H211 H 0.66924 0.81265 0.45517 0.0
H212 H 0.94138 0.11894 0.46252 0.0
H213 H 0.96966 0.07835 0.44205 0.0
H214 H 0.85478 0.13728 0.46162 0.0
H215 H 0.77177 0.09718 0.47626 0.0
C216 C 0.82795 0.84633 0.79213 0.0
C217 C 0.86965 0.82755 0.77743 0.0
C218 C 0.81548 0.72214 0.79997 0.0
C219 C 0.77632 0.74227 0.81536 0.0
N220 N 0.76026 0.82972 0.83108 0.0
N221 N 0.91674 0.75544 0.77221 0.0
C222 C 0.78781 0.8066 0.81311 0.0
C223 C 0.86772 0.76785 0.78291 0.0
N224 N 0.82208 0.89912 0.78503 0.0
N225 N 0.80055 0.65867 0.80067 0.0
H226 H 0.95689 0.78875 0.7602 0.0
H227 H 0.92205 0.71552 0.77734 0.0
H228 H 0.7627 0.62361 0.81286 0.0
H229 H 0.82182 0.63957 0.78773 0.0
H230 H 0.78625 0.91023 0.79346 0.0
H231 H 0.84737 0.92823 0.76909 0.0
H232 H 0.77263 0.87838 0.83183 0.0
H233 H 0.73089 0.80184 0.84679 0.0
C234 C 0.02413 0.80133 0.09071 0.0
C235 C 0.03732 0.86353 0.09947 0.0
C236 C 0.03245 0.82703 0.14409 0.0
C237 C 0.02752 0.76822 0.13505 0.0
N238 N 0.03887 0.70855 0.09946 0.0
N239 N 0.07111 0.94037 0.13464 0.0
C240 C 0.02975 0.75827 0.10827 0.0
C241 C 0.04638 0.87787 0.12624 0.0
N242 N 0.00188 0.78108 0.0661 0.0
N243 N 0.02144 0.83367 0.16951 0.0
H244 H 0.08565 0.97967 0.12217 0.0
H245 H 0.08467 0.95433 0.15376 0.0
H246 H 0.0096 0.79709 0.18309 0.0
H247 H 0.01741 0.8729 0.17659 0.0
H248 H 0.98509 0.7336 0.05986 0.0
H249 H 0.99191 0.80836 0.05279 0.0
H250 H 0.04759 0.70331 0.08012 0.0
H251 H 0.04552 0.67702 0.11169 0.0
C252 C 0.24702 0.07339 0.42129 0.0
C253 C 0.17772 0.05586 0.42883 0.0
C254 C 0.20251 0.03961 0.47331 0.0
C255 C 0.27196 0.05688 0.46586 0.0
N256 N 0.366 0.10461 0.43473 0.0
N257 N 0.09496 0.03964 0.46249 0.0
C258 C 0.2961 0.07858 0.44042 0.0
C259 C 0.15745 0.04488 0.45508 0.0
N260 N 0.26477 0.08226 0.39581 0.0
N261 N 0.17819 0.01452 0.49729 0.0
H262 H 0.06068 0.04321 0.44951 0.0
H263 H 0.08023 0.03805 0.48164 0.0
H264 H 0.20942 0.00982 0.51132 0.0
H265 H 0.12556 0.99374 0.50273 0.0
H266 H 0.31172 0.08762 0.38865 0.0
H267 H 0.2305 0.0809 0.38155 0.0
H268 H 0.38825 0.1266 0.4172 0.0
H269 H 0.4031 0.10921 0.44841 0.0
C270 C 0.16804 0.15447 0.79125 0.0
C271 C 0.12315 0.16893 0.77631 0.0
C272 C 0.17392 0.27643 0.79694 0.0
C273 C 0.21552 0.26024 0.81291 0.0
N274 N 0.23849 0.17782 0.82992 0.0
N275 N 0.07057 0.23626 0.76975 0.0
C276 C 0.20799 0.19717 0.81158 0.0
C277 C 0.12213 0.2277 0.78066 0.0
N278 N 0.17659 0.10268 0.78503 0.0
N279 N 0.18597 0.33902 0.79636 0.0
H280 H 0.03054 0.20069 0.75835 0.0
H281 H 0.0632 0.27538 0.7742 0.0
H282 H 0.22387 0.37644 0.80776 0.0
H283 H 0.16257 0.35512 0.78299 0.0
H284 H 0.21453 0.09454 0.79358 0.0
H285 H 0.15106 0.07139 0.76965 0.0
H286 H 0.22889 0.13008 0.83137 0.0
H287 H 0.26769 0.20775 0.84522 0.0
C288 C 0.85219 0.99162 0.64592 0.0
C289 C 0.84301 0.99954 0.67248 0.0
C290 C 0.73496 1.00176 0.66274 0.0
C291 C 0.74792 0.99996 0.63605 0.0
N292 N 0.82574 0.00606 0.60198 0.0
N293 N 0.78145 0.02006 0.70627 0.0
C294 C 0.80843 0.99838 0.62754 0.0
C295 C 0.78622 0.00729 0.68093 0.0
N296 N 0.90204 0.97661 0.63822 0.0
N297 N 0.67244 0.99558 0.6707 0.0
H298 H 0.81664 0.02189 0.72023 0.0
H299 H 0.74577 0.03329 0.71316 0.0
H300 H 0.63327 0.99055 0.65793 0.0
H301 H 0.65674 0.98986 0.68988 0.0
H302 H 0.90561 0.96291 0.61948 0.0
H303 H 0.93633 0.97245 0.65093 0.0
H304 H 0.87344 0.01278 0.59499 0.0
H305 H 0.79538 0.01178 0.58787 0.0
C306 C 0.82922 0.80144 1.00527 0.0
C307 C 0.83134 0.86203 1.00821 0.0
C308 C 0.72798 0.82177 0.98012 0.0
C309 C 0.73425 0.76647 0.97379 0.0
N310 N 0.80407 0.71335 0.97602 0.0
N311 N 0.79071 0.93483 0.99341 0.0
C312 C 0.78879 0.75906 0.98509 0.0
C313 C 0.7828 0.87375 0.99433 0.0
N314 N 0.86347 0.78298 0.02232 0.0
N315 N 0.66899 0.82403 0.97339 0.0
H316 H 0.83232 0.97551 1.00217 0.0
H317 H 0.7602 0.9464 0.98151 0.0
H318 H 0.62625 0.78577 0.96394 0.0
H319 H 0.65953 0.86079 0.97968 0.0
H320 H 0.85879 0.73687 0.02199 0.0
H321 H 0.88885 0.81037 0.03864 0.0
H322 H 0.84745 0.71029 0.98239 0.0
H323 H 0.77857 0.68372 0.96019 0.0
C324 C 0.91628 0.77017 0.32624 0.0
C325 C 0.97459 0.83415 0.32954 0.0
C326 C 0.03524 0.81595 0.29358 0.0
C327 C 0.98173 0.74922 0.29295 0.0
N328 N 0.87492 0.6602 0.31081 0.0
N329 N 0.09463 0.91521 0.31873 0.0
C330 C 0.9229 0.72561 0.30975 0.0
C331 C 0.03526 0.85673 0.31367 0.0
N332 N 0.85392 0.75258 0.33835 0.0
N333 N 0.08556 0.84055 0.27475 0.0
H334 H 0.09807 0.94617 0.33361 0.0
H335 H 0.14274 0.93044 0.30963 0.0
H336 H 0.08707 0.81199 0.25974 0.0
H337 H 0.12157 0.89024 0.27266 0.0
H338 H 0.80749 0.70886 0.33472 0.0
H339 H 0.84677 0.78458 0.35008 0.0
H340 H 0.83551 0.63934 0.32472 0.0
H341 H 0.87787 0.62579 0.29914 0.0
C342 C 0.14771 0.02367 0.64584 0.0
C343 C 0.14302 0.99288 0.6699 0.0
C344 C 0.23118 0.96518 0.65537 0.0
C345 C 0.24104 1.00211 0.63261 0.0
N346 N 0.21688 0.07461 0.60762 0.0
N347 N 0.18677 0.94212 0.69914 0.0
C348 C 0.20157 0.03361 0.62823 0.0
C349 C 0.18624 0.96533 0.67508 0.0
N350 N 0.09885 0.04101 0.63928 0.0
N351 N 0.26378 0.92906 0.6579 0.0
H352 H 0.15519 0.94215 0.71413 0.0
H353 H 0.22264 0.92793 0.7049 0.0
H354 H 0.29767 0.92842 0.64396 0.0
H355 H 0.2529 0.89569 0.67274 0.0
H356 H 0.09475 0.05644 0.62091 0.0
H357 H 0.05796 0.03431 0.6514 0.0
H358 H 0.19574 0.10509 0.60516 0.0
H359 H 0.25518 0.08233 0.59396 0.0
C360 C 0.21056 0.20325 0.01502 0.0
C361 C 0.14555 0.15166 1.00569 0.0
C362 C 0.17133 0.20113 0.96275 0.0
C363 C 0.2386 0.24994 0.97157 0.0
N364 N 0.32818 0.29078 1.00455 0.0
N365 N 0.07105 0.09307 0.9696 0.0
C366 C 0.26004 0.24904 0.99728 0.0
C367 C 0.12788 0.14815 0.97923 0.0
N368 N 0.22378 0.2102 0.04089 0.0
N369 N 0.14788 0.20652 0.93898 0.0
H370 H 0.0388 0.05233 0.9809 0.0
H371 H 0.06001 0.08509 0.95001 0.0
H372 H 0.17803 0.24477 0.92631 0.0
H373 H 0.09629 0.17628 0.93271 0.0
H374 H 0.26679 0.25096 0.04901 0.0
H375 H 0.18861 0.17786 0.0545 0.0
H376 H 0.34879 0.2878 0.02224 0.0
H377 H 0.36603 0.32477 0.99203 0.0
C378 C 0.96922 0.19178 0.32858 0.0
C379 C 0.02228 0.17477 0.32519 0.0
C380 C 0.06113 0.24015 0.28561 0.0
C381 C 0.01414 0.26356 0.29095 0.0
N382 N 0.92956 0.26846 0.31919 0.0
N383 N 0.12286 0.18618 0.3019 0.0
C384 C 0.96963 0.24106 0.31285 0.0
C385 C 0.06908 0.19939 0.30394 0.0
N386 N 0.91687 0.15913 0.3463 0.0
N387 N 0.09714 0.25606 0.26283 0.0
H388 H 0.12974 0.15608 0.31484 0.0
H389 H 0.16343 0.20849 0.2885 0.0
H390 H 0.09289 0.28624 0.24914 0.0
H391 H 0.12671 0.23538 0.25656 0.0
H392 H 0.8727 0.16455 0.34779 0.0
H393 H 0.91372 0.12158 0.35782 0.0
H394 H 0.90259 0.2596 0.33656 0.0
H395 H 0.9277 0.30431 0.30805 0.0
loop_
_geom_bond_atom_site_label_1
_geom_bond_atom_site_label_2
_geom_bond_distance
_geom_bond_site_symmetry_2
_ccdc_geom_bond_type
O0 Cd1 2.223 1_455 S
O0 C8 1.315 . S
Cd1 O0 2.223 1_655 S
Cd1 O4 2.297 . S
Cd1 O5 2.439 . S
Cd1 O11 2.240 1_545 S
Cd2 O3 2.240 1_565 S
Cd2 O10 2.223 1_455 S
Cd2 O12 2.297 . S
Cd2 O13 2.439 . S
O3 Cd2 2.240 1_545 S
O3 C8 1.279 . S
O4 Cd1 2.297 . S
O4 C6 1.247 . S
O5 Cd1 2.439 . S
O5 C6 1.208 . S
C6 O4 1.247 . S
C6 O5 1.208 . S
C7 O12 1.247 . S
C7 O13 1.208 . S
C8 O0 1.315 . S
C8 O3 1.279 . S
C9 O10 1.315 . S
C9 O11 1.279 . S
O10 Cd2 2.223 1_655 S
O10 C9 1.315 . S
O11 Cd1 2.240 1_565 S
O11 C9 1.279 . S
O12 Cd2 2.297 . S
O12 C7 1.247 . S
O13 Cd2 2.439 . S
O13 C7 1.208 . S
O14 Cd15 2.223 1_655 S
O14 C22 1.315 . S
Cd15 O14 2.223 1_455 S
Cd15 O18 2.297 . S
Cd15 O19 2.439 . S
Cd15 O25 2.240 . S
Cd16 O17 2.240 . S
Cd16 O24 2.223 1_655 S
Cd16 O26 2.297 . S
Cd16 O27 2.439 . S
O17 Cd16 2.240 . S
O17 C22 1.279 1_565 S
O18 Cd15 2.297 . S
O18 C20 1.247 . S
O19 Cd15 2.439 . S
O19 C20 1.208 . S
C20 O18 1.247 . S
C20 O19 1.208 . S
C21 O26 1.247 . S
C21 O27 1.208 . S
C22 O14 1.315 . S
C22 O17 1.279 1_545 S
C23 O24 1.315 . S
C23 O25 1.279 1_565 S
O24 Cd16 2.223 1_455 S
O24 C23 1.315 . S
O25 Cd15 2.240 . S
O25 C23 1.279 1_545 S
O26 Cd16 2.297 . S
O26 C21 1.247 . S
O27 Cd16 2.439 . S
O27 C21 1.208 . S
O28 Cd29 2.223 . S
O28 C36 1.315 . S
Cd29 O28 2.223 . S
Cd29 O32 2.297 . S
Cd29 O33 2.439 . S
Cd29 O39 2.240 1_655 S
Cd30 O31 2.240 1_455 S
Cd30 O38 2.223 . S
Cd30 O40 2.297 . S
Cd30 O41 2.439 . S
O31 Cd30 2.240 1_655 S
O31 C36 1.279 1_545 S
O32 Cd29 2.297 . S
O32 C34 1.247 . S
O33 Cd29 2.439 . S
O33 C34 1.208 . S
C34 O32 1.247 . S
C34 O33 1.208 . S
C35 O40 1.247 . S
C35 O41 1.208 . S
C36 O28 1.315 . S
C36 O31 1.279 1_565 S
C37 O38 1.315 . S
C37 O39 1.279 1_545 S
O38 Cd30 2.223 . S
O38 C37 1.315 . S
O39 Cd29 2.240 1_455 S
O39 C37 1.279 1_565 S
O40 Cd30 2.297 . S
O40 C35 1.247 . S
O41 Cd30 2.439 . S
O41 C35 1.208 . S
C42 C43 1.384 1_655 S
C42 C44 1.384 . S
C42 H70 0.931 . S
C43 C42 1.384 1_455 S
C43 C46 1.382 . S
C44 C42 1.384 . S
C44 C45 1.381 1_655 S
C44 H71 0.930 . S
C45 C44 1.381 1_455 S
C45 C47 1.381 . S
C45 C48 1.487 . S
C46 C43 1.382 . S
C46 C47 1.387 . S
C46 H72 0.930 . S
C47 C45 1.381 . S
C47 C46 1.387 . S
C47 H73 0.931 . S
C48 C45 1.487 . S
C48 C55 1.399 1_455 S
C48 N86 1.343 . S
C49 C50 1.384 1_455 S
C49 C51 1.384 . S
C49 H74 0.931 . S
C50 C49 1.384 1_655 S
C50 C53 1.382 . S
C51 C49 1.384 . S
C51 C52 1.381 1_455 S
C51 H75 0.930 . S
C52 C51 1.381 1_655 S
C52 C54 1.381 . S
C52 C55 1.487 . S
C53 C50 1.382 . S
C53 C54 1.387 . S
C53 H76 0.930 . S
C54 C52 1.381 . S
C54 C53 1.387 . S
C54 H77 0.931 . S
C55 C48 1.399 1_655 S
C55 C52 1.487 . S
C55 N87 1.343 . S
C56 C57 1.384 1_455 S
C56 C58 1.384 . S
C56 H78 0.931 . S
C57 C56 1.384 1_655 S
C57 C60 1.382 . S
C58 C56 1.384 . S
C58 C59 1.381 1_455 S
C58 H79 0.930 . S
C59 C58 1.381 1_655 S
C59 C61 1.381 . S
C59 C62 1.487 . S
C60 C57 1.382 . S
C60 C61 1.387 . S
C60 H80 0.930 . S
C61 C59 1.381 . S
C61 C60 1.387 . S
C61 H81 0.931 . S
C62 C59 1.487 . S
C62 C69 1.399 1_655 S
C62 N87 1.343 . S
C63 C64 1.384 1_655 S
C63 C65 1.384 . S
C63 H82 0.931 . S
C64 C63 1.384 1_455 S
C64 C67 1.382 . S
C65 C63 1.384 . S
C65 C66 1.381 1_655 S
C65 H83 0.930 . S
C66 C65 1.381 1_455 S
C66 C68 1.381 . S
C66 C69 1.487 . S
C67 C64 1.382 . S
C67 C68 1.387 . S
C67 H84 0.930 . S
C68 C66 1.381 . S
C68 C67 1.387 . S
C68 H85 0.931 . S
C69 C62 1.399 1_455 S
C69 C66 1.487 . S
C69 N86 1.343 . S
H70 C42 0.931 . S
H71 C44 0.930 . S
H72 C46 0.930 . S
H73 C47 0.931 . S
H74 C49 0.931 . S
H75 C51 0.930 . S
H76 C53 0.930 . S
H77 C54 0.931 . S
H78 C56 0.931 . S
H79 C58 0.930 . S
H80 C60 0.930 . S
H81 C61 0.931 . S
H82 C63 0.931 . S
H83 C65 0.930 . S
H84 C67 0.930 . S
H85 C68 0.931 . S
N86 C48 1.343 . S
N86 C69 1.343 . S
N87 C55 1.343 . S
N87 C62 1.343 . S
C88 C89 1.384 1_545 S
C88 C90 1.384 . S
C88 H116 0.931 . S
C89 C88 1.384 1_565 S
C89 C92 1.382 . S
C90 C88 1.384 . S
C90 C91 1.381 1_545 S
C90 H117 0.930 . S
C91 C90 1.381 1_565 S
C91 C93 1.381 . S
C91 C94 1.487 . S
C92 C89 1.382 . S
C92 C93 1.387 . S
C92 H118 0.930 . S
C93 C91 1.381 . S
C93 C92 1.387 . S
C93 H119 0.931 . S
C94 C91 1.487 . S
C94 C101 1.399 1_565 S
C94 N132 1.343 . S
C95 C96 1.384 1_565 S
C95 C97 1.384 . S
C95 H120 0.931 . S
C96 C95 1.384 1_545 S
C96 C99 1.382 . S
C97 C95 1.384 . S
C97 C98 1.381 1_565 S
C97 H121 0.930 . S
C98 C97 1.381 1_545 S
C98 C100 1.381 . S
C98 C101 1.487 . S
C99 C96 1.382 . S
C99 C100 1.387 . S
C99 H122 0.930 . S
C100 C98 1.381 . S
C100 C99 1.387 . S
C100 H123 0.931 . S
C101 C94 1.399 1_545 S
C101 C98 1.487 . S
C101 N133 1.343 . S
C102 C103 1.384 1_565 S
C102 C104 1.384 . S
C102 H124 0.931 . S
C103 C102 1.384 1_545 S
C103 C106 1.382 . S
C104 C102 1.384 . S
C104 C105 1.381 1_565 S
C104 H125 0.930 . S
C105 C104 1.381 1_545 S
C105 C107 1.381 . S
C105 C108 1.487 . S
C106 C103 1.382 . S
C106 C107 1.387 . S
C106 H126 0.930 . S
C107 C105 1.381 . S
C107 C106 1.387 . S
C107 H127 0.931 . S
C108 C105 1.487 . S
C108 C115 1.399 1_545 S
C108 N133 1.343 . S
C109 C110 1.384 1_545 S
C109 C111 1.384 . S
C109 H128 0.931 . S
C110 C109 1.384 1_565 S
C110 C113 1.382 . S
C111 C109 1.384 . S
C111 C112 1.381 1_545 S
C111 H129 0.930 . S
C112 C111 1.381 1_565 S
C112 C114 1.381 . S
C112 C115 1.487 . S
C113 C110 1.382 . S
C113 C114 1.387 . S
C113 H130 0.930 . S
C114 C112 1.381 . S
C114 C113 1.387 . S
C114 H131 0.931 . S
C115 C108 1.399 1_565 S
C115 C112 1.487 . S
C115 N132 1.343 . S
H116 C88 0.931 . S
H117 C90 0.930 . S
H118 C92 0.930 . S
H119 C93 0.931 . S
H120 C95 0.931 . S
H121 C97 0.930 . S
H122 C99 0.930 . S
H123 C100 0.931 . S
H124 C102 0.931 . S
H125 C104 0.930 . S
H126 C106 0.930 . S
H127 C107 0.931 . S
H128 C109 0.931 . S
H129 C111 0.930 . S
H130 C113 0.930 . S
H131 C114 0.931 . S
N132 C94 1.343 . S
N132 C115 1.343 . S
N133 C101 1.343 . S
N133 C108 1.343 . S
C134 C135 1.384 . S
C134 C136 1.384 . S
C134 H162 0.931 . S
C135 C134 1.384 . S
C135 C138 1.382 . S
C136 C134 1.384 . S
C136 C137 1.381 . S
C136 H163 0.930 . S
C137 C136 1.381 . S
C137 C139 1.381 . S
C137 C140 1.487 . S
C138 C135 1.382 . S
C138 C139 1.387 . S
C138 H164 0.930 . S
C139 C137 1.381 . S
C139 C138 1.387 . S
C139 H165 0.931 . S
C140 C137 1.487 . S
C140 C147 1.399 . S
C140 N178 1.343 . S
C141 C142 1.384 . S
C141 C143 1.384 . S
C141 H166 0.931 . S
C142 C141 1.384 . S
C142 C145 1.382 . S
C143 C141 1.384 . S
C143 C144 1.381 . S
C143 H167 0.930 . S
C144 C143 1.381 . S
C144 C146 1.381 . S
C144 C147 1.487 . S
C145 C142 1.382 . S
C145 C146 1.387 . S
C145 H168 0.930 . S
C146 C144 1.381 . S
C146 C145 1.387 . S
C146 H169 0.931 . S
C147 C140 1.399 . S
C147 C144 1.487 . S
C147 N179 1.343 . S
C148 C149 1.384 . S
C148 C150 1.384 . S
C148 H170 0.931 . S
C149 C148 1.384 . S
C149 C152 1.382 . S
C150 C148 1.384 . S
C150 C151 1.381 . S
C150 H171 0.930 . S
C151 C150 1.381 . S
C151 C153 1.381 . S
C151 C154 1.487 . S
C152 C149 1.382 . S
C152 C153 1.387 . S
C152 H172 0.930 . S
C153 C151 1.381 . S
C153 C152 1.387 . S
C153 H173 0.931 . S
C154 C151 1.487 . S
C154 C161 1.399 . S
C154 N179 1.343 . S
C155 C156 1.384 . S
C155 C157 1.384 . S
C155 H174 0.931 . S
C156 C155 1.384 . S
C156 C159 1.382 . S
C157 C155 1.384 . S
C157 C158 1.381 . S
C157 H175 0.930 . S
C158 C157 1.381 . S
C158 C160 1.381 . S
C158 C161 1.487 . S
C159 C156 1.382 . S
C159 C160 1.387 . S
C159 H176 0.930 . S
C160 C158 1.381 . S
C160 C159 1.387 . S
C160 H177 0.931 . S
C161 C154 1.399 . S
C161 C158 1.487 . S
C161 N178 1.343 . S
H162 C134 0.931 . S
H163 C136 0.930 . S
H164 C138 0.930 . S
H165 C139 0.931 . S
H166 C141 0.931 . S
H167 C143 0.930 . S
H168 C145 0.930 . S
H169 C146 0.931 . S
H170 C148 0.931 . S
H171 C150 0.930 . S
H172 C152 0.930 . S
H173 C153 0.931 . S
H174 C155 0.931 . S
H175 C157 0.930 . S
H176 C159 0.930 . S
H177 C160 0.931 . S
N178 C140 1.343 . S
N178 C161 1.343 . S
N179 C147 1.343 . S
N179 C154 1.343 . S
C180 C181 1.363 1_655 S
C180 C186 1.379 . S
C180 N188 1.356 . S
C181 C180 1.363 1_455 S
C181 C187 1.363 . S
C182 C183 1.363 . S
C182 C187 1.379 . S
C182 N189 1.356 . S
C183 C182 1.363 . S
C183 C186 1.363 1_455 S
N184 C186 1.356 . S
N184 H196 0.984 . S
N184 H197 0.985 . S
N185 C187 1.356 . S
N185 H190 0.984 . S
N185 H191 0.985 . S
C186 C180 1.379 . S
C186 C183 1.363 1_655 S
C186 N184 1.356 . S
C187 C181 1.363 . S
C187 C182 1.379 . S
C187 N185 1.356 . S
N188 C180 1.356 . S
N188 H194 0.984 . S
N188 H195 0.984 . S
N189 C182 1.356 . S
N189 H192 0.984 . S
N189 H193 0.985 . S
H190 N185 0.984 . S
H191 N185 0.985 . S
H192 N189 0.984 . S
H193 N189 0.985 . S
H194 N188 0.984 . S
H195 N188 0.984 . S
H196 N184 0.984 . S
H197 N184 0.985 . S
C198 C199 1.363 . S
C198 C204 1.379 . S
C198 N206 1.356 . S
C199 C198 1.363 . S
C199 C205 1.363 1_545 S
C200 C201 1.363 1_565 S
C200 C205 1.379 . S
C200 N207 1.356 . S
C201 C200 1.363 1_545 S
C201 C204 1.363 . S
N202 C204 1.356 . S
N202 H214 0.984 . S
N202 H215 0.985 . S
N203 C205 1.356 . S
N203 H208 0.984 . S
N203 H209 0.985 . S
C204 C198 1.379 . S
C204 C201 1.363 . S
C204 N202 1.356 . S
C205 C199 1.363 1_565 S
C205 C200 1.379 . S
C205 N203 1.356 . S
N206 C198 1.356 . S
N206 H212 0.984 . S
N206 H213 0.984 . S
N207 C200 1.356 . S
N207 H210 0.984 . S
N207 H211 0.985 . S
H208 N203 0.984 . S
H209 N203 0.985 . S
H210 N207 0.984 . S
H211 N207 0.985 . S
H212 N206 0.984 . S
H213 N206 0.984 . S
H214 N202 0.984 . S
H215 N202 0.985 . S
C216 C217 1.363 . S
C216 C222 1.379 . S
C216 N224 1.356 . S
C217 C216 1.363 . S
C217 C223 1.363 . S
C218 C219 1.363 . S
C218 C223 1.379 . S
C218 N225 1.356 . S
C219 C218 1.363 . S
C219 C222 1.363 . S
N220 C222 1.356 . S
N220 H232 0.984 . S
N220 H233 0.985 . S
N221 C223 1.356 . S
N221 H226 0.984 . S
N221 H227 0.985 . S
C222 C216 1.379 . S
C222 C219 1.363 . S
C222 N220 1.356 . S
C223 C217 1.363 . S
C223 C218 1.379 . S
C223 N221 1.356 . S
N224 C216 1.356 . S
N224 H230 0.984 . S
N224 H231 0.984 . S
N225 C218 1.356 . S
N225 H228 0.984 . S
N225 H229 0.985 . S
H226 N221 0.984 . S
H227 N221 0.985 . S
H228 N225 0.984 . S
H229 N225 0.985 . S
H230 N224 0.984 . S
H231 N224 0.984 . S
H232 N220 0.984 . S
H233 N220 0.985 . S
C234 C235 1.363 . S
C234 C240 1.379 . S
C234 N242 1.356 . S
C235 C234 1.363 . S
C235 C241 1.363 1_455 S
C236 C237 1.363 1_655 S
C236 C241 1.379 . S
C236 N243 1.356 . S
C237 C236 1.363 1_455 S
C237 C240 1.363 . S
N238 C240 1.356 . S
N238 H250 0.984 . S
N238 H251 0.985 . S
N239 C241 1.356 . S
N239 H244 0.984 . S
N239 H245 0.985 . S
C240 C234 1.379 . S
C240 C237 1.363 . S
C240 N238 1.356 . S
C241 C235 1.363 1_655 S
C241 C236 1.379 . S
C241 N239 1.356 . S
N242 C234 1.356 . S
N242 H248 0.984 . S
N242 H249 0.984 . S
N243 C236 1.356 . S
N243 H246 0.984 . S
N243 H247 0.985 . S
H244 N239 0.984 . S
H245 N239 0.985 . S
H246 N243 0.984 . S
H247 N243 0.985 . S
H248 N242 0.984 . S
H249 N242 0.984 . S
H250 N238 0.984 . S
H251 N238 0.985 . S
C252 C253 1.363 1_545 S
C252 C258 1.379 . S
C252 N260 1.356 . S
C253 C252 1.363 1_565 S
C253 C259 1.363 . S
C254 C255 1.367 . S
C254 C259 1.379 . S
C254 N261 1.356 . S
C255 C254 1.367 . S
C255 C258 1.352 1_565 S
N256 C258 1.356 . S
N256 H268 0.984 . S
N256 H269 0.985 . S
N257 C259 1.356 . S
N257 H262 0.984 . S
N257 H263 0.985 . S
C258 C252 1.379 . S
C258 C255 1.352 1_545 S
C258 N256 1.356 . S
C259 C253 1.363 . S
C259 C254 1.379 . S
C259 N257 1.356 . S
N260 C252 1.356 . S
N260 H266 0.984 . S
N260 H267 0.984 . S
N261 C254 1.356 . S
N261 H264 0.984 . S
N261 H265 0.985 . S
H262 N257 0.984 . S
H263 N257 0.985 . S
H264 N261 0.984 . S
H265 N261 0.985 . S
H266 N260 0.984 . S
H267 N260 0.984 . S
H268 N256 0.984 . S
H269 N256 0.985 . S
C270 C271 1.363 . S
C270 C276 1.379 . S
C270 N278 1.356 . S
C271 C270 1.363 . S
C271 C277 1.363 . S
C272 C273 1.363 . S
C272 C277 1.379 . S
C272 N279 1.356 . S
C273 C272 1.363 . S
C273 C276 1.363 . S
N274 C276 1.356 . S
N274 H286 0.984 . S
N274 H287 0.985 . S
N275 C277 1.356 . S
N275 H280 0.984 . S
N275 H281 0.985 . S
C276 C270 1.379 . S
C276 C273 1.363 . S
C276 N274 1.356 . S
C277 C271 1.363 . S
C277 C272 1.379 . S
C277 N275 1.356 . S
N278 C270 1.356 . S
N278 H284 0.984 . S
N278 H285 0.984 . S
N279 C272 1.356 . S
N279 H282 0.984 . S
N279 H283 0.985 . S
H280 N275 0.984 . S
H281 N275 0.985 . S
H282 N279 0.984 . S
H283 N279 0.985 . S
H284 N278 0.984 . S
H285 N278 0.984 . S
H286 N274 0.984 . S
H287 N274 0.985 . S
C288 C289 1.363 . S
C288 C294 1.379 . S
C288 N296 1.356 . S
C289 C288 1.363 . S
C289 C295 1.363 1_565 S
C290 C291 1.363 1_545 S
C290 C295 1.379 . S
C290 N297 1.356 . S
C291 C290 1.363 1_565 S
C291 C294 1.363 . S
N292 C294 1.356 . S
N292 H304 0.984 . S
N292 H305 0.985 . S
N293 C295 1.356 . S
N293 H298 0.984 . S
N293 H299 0.985 . S
C294 C288 1.379 . S
C294 C291 1.363 . S
C294 N292 1.356 . S
C295 C289 1.363 1_545 S
C295 C290 1.379 . S
C295 N293 1.356 . S
N296 C288 1.356 . S
N296 H302 0.984 . S
N296 H303 0.984 . S
N297 C290 1.356 . S
N297 H300 0.984 . S
N297 H301 0.985 . S
H298 N293 0.984 . S
H299 N293 0.985 . S
H300 N297 0.984 . S
H301 N297 0.985 . S
H302 N296 0.984 . S
H303 N296 0.984 . S
H304 N292 0.984 . S
H305 N292 0.985 . S
C306 C307 1.363 . S
C306 C312 1.379 . S
C306 N314 1.356 1_556 S
C307 C306 1.363 . S
C307 C313 1.363 . S
C308 C309 1.363 . S
C308 C313 1.379 . S
C308 N315 1.356 . S
C309 C308 1.363 . S
C309 C312 1.363 . S
N310 C312 1.356 . S
N310 H322 0.984 . S
N310 H323 0.985 . S
N311 C313 1.356 . S
N311 H316 0.984 . S
N311 H317 0.985 . S
C312 C306 1.379 . S
C312 C309 1.363 . S
C312 N310 1.356 . S
C313 C307 1.363 . S
C313 C308 1.379 . S
C313 N311 1.356 . S
N314 C306 1.356 1_554 S
N314 H320 0.984 . S
N314 H321 0.984 . S
N315 C308 1.356 . S
N315 H318 0.984 . S
N315 H319 0.985 . S
H316 N311 0.984 . S
H317 N311 0.985 . S
H318 N315 0.984 . S
H319 N315 0.985 . S
H320 N314 0.984 . S
H321 N314 0.984 . S
H322 N310 0.984 . S
H323 N310 0.985 . S
C324 C325 1.363 1_655 S
C324 C330 1.379 . S
C324 N332 1.356 . S
C325 C324 1.363 1_455 S
C325 C331 1.363 . S
C326 C327 1.363 . S
C326 C331 1.379 . S
C326 N333 1.356 . S
C327 C326 1.363 . S
C327 C330 1.363 1_455 S
N328 C330 1.356 . S
N328 H340 0.984 . S
N328 H341 0.985 . S
N329 C331 1.356 . S
N329 H334 0.984 . S
N329 H335 0.985 . S
C330 C324 1.379 . S
C330 C327 1.363 1_655 S
C330 N328 1.356 . S
C331 C325 1.363 . S
C331 C326 1.379 . S
C331 N329 1.356 . S
N332 C324 1.356 . S
N332 H338 0.984 . S
N332 H339 0.984 . S
N333 C326 1.356 . S
N333 H336 0.984 . S
N333 H337 0.985 . S
H334 N329 0.984 . S
H335 N329 0.985 . S
H336 N333 0.984 . S
H337 N333 0.985 . S
H338 N332 0.984 . S
H339 N332 0.984 . S
H340 N328 0.984 . S
H341 N328 0.985 . S
C342 C343 1.363 . S
C342 C348 1.379 . S
C342 N350 1.356 . S
C343 C342 1.363 . S
C343 C349 1.363 1_545 S
C344 C345 1.363 1_565 S
C344 C349 1.379 . S
C344 N351 1.356 . S
C345 C344 1.363 1_545 S
C345 C348 1.363 . S
N346 C348 1.356 . S
N346 H358 0.984 . S
N346 H359 0.985 . S
N347 C349 1.356 . S
N347 H352 0.984 . S
N347 H353 0.985 . S
C348 C342 1.379 . S
C348 C345 1.363 . S
C348 N346 1.356 . S
C349 C343 1.363 1_565 S
C349 C344 1.379 . S
C349 N347 1.356 . S
N350 C342 1.356 . S
N350 H356 0.984 . S
N350 H357 0.984 . S
N351 C344 1.356 . S
N351 H354 0.984 . S
N351 H355 0.985 . S
H352 N347 0.984 . S
H353 N347 0.985 . S
H354 N351 0.984 . S
H355 N351 0.985 . S
H356 N350 0.984 . S
H357 N350 0.984 . S
H358 N346 0.984 . S
H359 N346 0.985 . S
C360 C361 1.363 . S
C360 C366 1.379 . S
C360 N368 1.356 1_556 S
C361 C360 1.363 . S
C361 C367 1.363 . S
C362 C363 1.363 . S
C362 C367 1.379 . S
C362 N369 1.356 . S
C363 C362 1.363 . S
C363 C366 1.363 . S
N364 C366 1.356 . S
N364 H376 0.984 . S
N364 H377 0.985 . S
N365 C367 1.356 . S
N365 H370 0.984 . S
N365 H371 0.985 . S
C366 C360 1.379 . S
C366 C363 1.363 . S
C366 N364 1.356 . S
C367 C361 1.363 . S
C367 C362 1.379 . S
C367 N365 1.356 . S
N368 C360 1.356 1_554 S
N368 H374 0.984 . S
N368 H375 0.984 . S
N369 C362 1.356 . S
N369 H372 0.984 . S
N369 H373 0.985 . S
H370 N365 0.984 . S
H371 N365 0.985 . S
H372 N369 0.984 . S
H373 N369 0.985 . S
H374 N368 0.984 . S
H375 N368 0.984 . S
H376 N364 0.984 . S
H377 N364 0.985 . S
C378 C379 1.363 . S
C378 C384 1.379 . S
C378 N386 1.356 . S
C379 C378 1.363 . S
C379 C385 1.363 1_655 S
C380 C381 1.363 1_455 S
C380 C385 1.379 . S
C380 N387 1.356 . S
C381 C380 1.363 1_655 S
C381 C384 1.363 . S
N382 C384 1.356 . S
N382 H394 0.984 . S
N382 H395 0.985 . S
N383 C385 1.356 . S
N383 H388 0.984 . S
N383 H389 0.985 . S
C384 C378 1.379 . S
C384 C381 1.363 . S
C384 N382 1.356 . S
C385 C379 1.363 1_455 S
C385 C380 1.379 . S
C385 N383 1.356 . S
N386 C378 1.356 . S
N386 H392 0.984 . S
N386 H393 0.984 . S
N387 C380 1.356 . S
N387 H390 0.984 . S
N387 H391 0.985 . S
H388 N383 0.984 . S
H389 N383 0.985 . S
H390 N387 0.984 . S
H391 N387 0.985 . S
H392 N386 0.984 . S
H393 N386 0.984 . S
H394 N382 0.984 . S
H395 N382 0.985 . S
C183 C50 1.486 1_455 S
C181 C6 1.466 1_455 S
C199 C22 1.568 . S
C201 C89 1.593 1_545 S
C217 C34 1.294 . S
C219 C156 1.315 . S
C235 C7 1.467 . S
C237 C57 1.488 1_455 S
C255 C110 1.597 . S
C253 C23 1.567 . S
C271 C35 1.294 . S
C273 C135 1.314 . S
C291 C96 1.591 1_565 S
C289 C36 1.577 . S
C307 C9 1.751 1_556 S
C309 C149 1.791 . S
C327 C64 1.482 . S
C325 C21 1.460 1_455 S
C345 C103 1.590 . S
C343 C37 1.574 . S
C363 C142 1.789 . S
C361 C8 1.749 1_556 S
C379 C20 1.459 1_655 S
C381 C43 1.481 1_655 S
