# Generated by pormake.
# Topology pyr, (3,6)-cn, num edge types: 1
# Building blocks:
#     Node 0, Type 0, BuildingBlock: BETDIP_clean_linker_0, # of connection points: 3
#     Node 1, Type 0, BuildingBlock: BETDIP_clean_linker_0, # of connection points: 3
#     Node 2, Type 0, BuildingBlock: BETDIP_clean_linker_0, # of connection points: 3
#     Node 3, Type 0, BuildingBlock: BETDIP_clean_linker_0, # of connection points: 3
#     Node 4, Type 0, BuildingBlock: BETDIP_clean_linker_0, # of connection points: 3
#     Node 5, Type 0, BuildingBlock: BETDIP_clean_linker_0, # of connection points: 3
#     Node 6, Type 0, BuildingBlock: BETDIP_clean_linker_0, # of connection points: 3
#     Node 7, Type 0, BuildingBlock: BETDIP_clean_linker_0, # of connection points: 3
#     Node 8, Type 1, BuildingBlock: BETDAH_clean_sbu_0, # of connection points: 6
#     Node 9, Type 1, BuildingBlock: BETDAH_clean_sbu_0, # of connection points: 6
#     Node 10, Type 1, BuildingBlock: BETDAH_clean_sbu_0, # of connection points: 6
#     Node 11, Type 1, BuildingBlock: BETDAH_clean_sbu_0, # of connection points: 6
#     Edge 12, Type (0, 1), BuildingBlock: XUDNAN_clean_linker_2, # of connection points: 2
#     Edge 13, Type (0, 1), BuildingBlock: XUDNAN_clean_linker_2, # of connection points: 2
#     Edge 14, Type (0, 1), BuildingBlock: XUDNAN_clean_linker_2, # of connection points: 2
#     Edge 15, Type (0, 1), BuildingBlock: XUDNAN_clean_linker_2, # of connection points: 2
#     Edge 16, Type (0, 1), BuildingBlock: XUDNAN_clean_linker_2, # of connection points: 2
#     Edge 17, Type (0, 1), BuildingBlock: XUDNAN_clean_linker_2, # of connection points: 2
#     Edge 18, Type (0, 1), BuildingBlock: XUDNAN_clean_linker_2, # of connection points: 2
#     Edge 19, Type (0, 1), BuildingBlock: XUDNAN_clean_linker_2, # of connection points: 2
#     Edge 20, Type (0, 1), BuildingBlock: XUDNAN_clean_linker_2, # of connection points: 2
#     Edge 21, Type (0, 1), BuildingBlock: XUDNAN_clean_linker_2, # of connection points: 2
#     Edge 22, Type (0, 1), BuildingBlock: XUDNAN_clean_linker_2, # of connection points: 2
#     Edge 23, Type (0, 1), BuildingBlock: XUDNAN_clean_linker_2, # of connection points: 2
#     Edge 24, Type (0, 1), BuildingBlock: XUDNAN_clean_linker_2, # of connection points: 2
#     Edge 25, Type (0, 1), BuildingBlock: XUDNAN_clean_linker_2, # of connection points: 2
#     Edge 26, Type (0, 1), BuildingBlock: XUDNAN_clean_linker_2, # of connection points: 2
#     Edge 27, Type (0, 1), BuildingBlock: XUDNAN_clean_linker_2, # of connection points: 2
#     Edge 28, Type (0, 1), BuildingBlock: XUDNAN_clean_linker_2, # of connection points: 2
#     Edge 29, Type (0, 1), BuildingBlock: XUDNAN_clean_linker_2, # of connection points: 2
#     Edge 30, Type (0, 1), BuildingBlock: XUDNAN_clean_linker_2, # of connection points: 2
#     Edge 31, Type (0, 1), BuildingBlock: XUDNAN_clean_linker_2, # of connection points: 2
#     Edge 32, Type (0, 1), BuildingBlock: XUDNAN_clean_linker_2, # of connection points: 2
#     Edge 33, Type (0, 1), BuildingBlock: XUDNAN_clean_linker_2, # of connection points: 2
#     Edge 34, Type (0, 1), BuildingBlock: XUDNAN_clean_linker_2, # of connection points: 2
#     Edge 35, Type (0, 1), BuildingBlock: XUDNAN_clean_linker_2, # of connection points: 2
# Relax obj value: 0.129
# Max RMSD: 0.169
# Mean RMSD: 0.137
data_MOF--net-pyr--node1-BETDAH_clean_sbu_0--node2-BETDIP_clean_linker_0--edge1-XUDNAN_clean_linker_2
_symmetry_space_group_name_H-M    P1
_symmetry_Int_Tables_number       1
_symmetry_cell_setting            triclinic
loop_
_symmetry_equiv_pos_as_xyz
'x, y, z'
_cell_length_a     37.774185
_cell_length_b     39.065471
_cell_length_c     36.956683
_cell_angle_alpha  91.867312
_cell_angle_beta   86.917401
_cell_angle_gamma 107.13264
loop_
_atom_site_label
_atom_site_type_symbol
_atom_site_fract_x
_atom_site_fract_y
_atom_site_fract_z
_atom_type_partial_charge
H0 H 0.33037 0.34765 0.23509 0.0
H1 H 0.40473 0.32195 0.15394 0.0
H2 H 0.38192 0.26599 0.25503 0.0
H3 H 0.37663 0.41113 0.20473 0.0
C4 C 0.35963 0.39818 0.18249 0.0
C5 C 0.34967 0.33282 0.2267 0.0
C6 C 0.35412 0.30631 0.24916 0.0
C7 C 0.36833 0.33894 0.19261 0.0
C8 C 0.39125 0.31799 0.18076 0.0
C9 C 0.39723 0.2924 0.20371 0.0
C10 C 0.37888 0.28698 0.23805 0.0
N11 N 0.3619 0.36434 0.16923 0.0
H12 H 0.17811 0.83819 0.76277 0.0
H13 H 0.19534 0.8031 0.65366 0.0
H14 H 0.24882 0.77083 0.74033 0.0
H15 H 0.13624 0.81571 0.64803 0.0
C16 C 0.147 0.84165 0.66135 0.0
C17 C 0.18936 0.82159 0.74419 0.0
C18 C 0.21351 0.80364 0.75643 0.0
C19 C 0.18196 0.82089 0.70744 0.0
C20 C 0.1988 0.80187 0.68245 0.0
C21 C 0.22333 0.78429 0.6943 0.0
C22 C 0.2296 0.78429 0.73134 0.0
N23 N 0.16227 0.84399 0.69583 0.0
H24 H 0.71251 0.44752 0.84379 0.0
H25 H 0.6221 0.34961 0.8519 0.0
H26 H 0.71558 0.3669 0.919 0.0
H27 H 0.66544 0.46849 0.81777 0.0
C28 C 0.65092 0.44516 0.80194 0.0
C29 C 0.69892 0.42239 0.85697 0.0
C30 C 0.71769 0.41013 0.88356 0.0
C31 C 0.66396 0.40071 0.84555 0.0
C32 C 0.64812 0.36678 0.86146 0.0
C33 C 0.66639 0.35412 0.88808 0.0
C34 C 0.70086 0.37641 0.89902 0.0
N35 N 0.64576 0.41007 0.8158 0.0
H36 H 0.82134 0.65359 0.34264 0.0
H37 H 0.90696 0.75412 0.33572 0.0
H38 H 0.81806 0.74077 0.41625 0.0
H39 H 0.91478 0.73685 0.27963 0.0
C40 C 0.90645 0.70783 0.27769 0.0
C41 C 0.83306 0.68081 0.35249 0.0
C42 C 0.81537 0.6943 0.38178 0.0
C43 C 0.86538 0.70218 0.33488 0.0
C44 C 0.88132 0.73744 0.34796 0.0
C45 C 0.86463 0.75141 0.37765 0.0
C46 C 0.83174 0.7296 0.39442 0.0
N47 N 0.88058 0.68737 0.30401 0.0
H48 H 0.6408 0.81694 0.94026 0.0
H49 H 0.7069 0.7678 0.86999 0.0
H50 H 0.66977 0.85224 0.83016 0.0
H51 H 0.67234 0.71679 0.90771 0.0
C52 C 0.68342 0.73345 0.93102 0.0
C53 C 0.65317 0.81419 0.9136 0.0
C54 C 0.65237 0.83784 0.88583 0.0
C55 C 0.67162 0.78796 0.90772 0.0
C56 C 0.69038 0.78616 0.87415 0.0
C57 C 0.68985 0.8094 0.84636 0.0
C58 C 0.66979 0.83422 0.85184 0.0
N59 N 0.67449 0.76615 0.93685 0.0
H60 H 0.8511 0.2224 0.40016 0.0
H61 H 0.83179 0.30301 0.47366 0.0
H62 H 0.77712 0.28193 0.37276 0.0
H63 H 0.82845 0.24966 0.51059 0.0
C64 C 0.85372 0.24404 0.50035 0.0
C65 C 0.83837 0.2436 0.40597 0.0
C66 C 0.81302 0.24957 0.38235 0.0
C67 C 0.84494 0.26266 0.43886 0.0
C68 C 0.82724 0.28888 0.44781 0.0
C69 C 0.80257 0.29577 0.42404 0.0
C70 C 0.79602 0.2764 0.39123 0.0
N71 N 0.86663 0.25241 0.46402 0.0
H72 H 0.33504 0.67664 0.21402 0.0
H73 H 0.41954 0.77666 0.22689 0.0
H74 H 0.32885 0.7694 0.15776 0.0
H75 H 0.41424 0.74576 0.29112 0.0
C76 C 0.41153 0.71851 0.28174 0.0
C77 C 0.34551 0.70487 0.208 0.0
C78 C 0.32649 0.72046 0.18457 0.0
C79 C 0.37799 0.72485 0.22451 0.0
C80 C 0.39386 0.76124 0.21524 0.0
C81 C 0.37656 0.77742 0.19029 0.0
C82 C 0.34266 0.75682 0.17587 0.0
N83 N 0.39455 0.7061 0.24814 0.0
H84 H 0.13847 0.33256 0.74754 0.0
H85 H 0.21995 0.43426 0.73193 0.0
H86 H 0.21258 0.34937 0.65264 0.0
H87 H 0.21837 0.42902 0.79474 0.0
C88 C 0.18856 0.42316 0.79967 0.0
C89 C 0.16111 0.34968 0.73127 0.0
C90 C 0.17396 0.33628 0.69885 0.0
C91 C 0.17774 0.38484 0.74344 0.0
C92 C 0.20706 0.40723 0.72234 0.0
C93 C 0.21991 0.39511 0.68923 0.0
C94 C 0.20299 0.35941 0.67778 0.0
N95 N 0.16467 0.39737 0.77686 0.0
Ho96 Ho 0.0362 0.06268 0.50836 0.0
Ho97 Ho 1.00544 1.01828 0.57654 0.0
C98 C 0.06286 0.09917 0.5839 0.0
C99 C 0.05318 0.09947 0.44992 0.0
C100 C 0.08672 0.1275 0.43757 0.0
C101 C 0.08359 0.15716 0.4191 0.0
C102 C 0.11542 0.1837 0.40702 0.0
C103 C 0.15096 0.1809 0.41309 0.0
C104 C 0.15381 0.15139 0.43229 0.0
C105 C 0.12207 0.12513 0.4446 0.0
C106 C 0.0793 1.02631 0.53482 0.0
C107 C 0.97629 0.98359 0.50065 0.0
C108 C 0.99213 0.97976 0.63389 0.0
C109 C 0.95945 0.95102 0.64655 0.0
C110 C 0.96311 0.92517 0.67027 0.0
C111 C 0.93161 0.89913 0.68391 0.0
C112 C 0.89592 0.89872 0.67413 0.0
C113 C 0.89272 0.92404 0.64925 0.0
C114 C 0.92414 0.94972 0.63544 0.0
C115 C 0.9606 0.05371 0.55165 0.0
O116 O 0.05707 0.10525 0.55013 0.0
O117 O 0.0505 0.06652 0.59776 0.0
O118 O 0.05673 0.06733 0.4526 0.0
O119 O 0.03423 0.10825 0.47746 0.0
O120 O 0.0928 0.05806 0.52153 0.0
O121 O 0.04494 1.01589 0.53232 0.0
O122 O 0.9818 0.97671 0.53432 0.0
O123 O 0.9898 1.01622 0.48712 0.0
O124 O 0.98741 1.01158 0.63289 0.0
O125 O 1.01013 0.97224 0.60497 0.0
O126 O 0.94862 1.02308 0.56763 0.0
O127 O 0.99537 0.06479 0.55223 0.0
H128 H 0.05653 0.15971 0.41389 0.0
H129 H 0.11217 0.20632 0.39283 0.0
H130 H 0.18059 0.14792 0.43698 0.0
H131 H 0.12524 0.10269 0.4592 0.0
H132 H 0.99024 0.92549 0.67872 0.0
H133 H 0.93518 0.8797 0.70253 0.0
H134 H 0.86584 0.92507 0.64146 0.0
H135 H 0.92073 0.96923 0.61682 0.0
Ho136 Ho 0.56191 0.0731 0.05389 0.0
Ho137 Ho 0.48776 0.05661 1.02442 0.0
C138 C 0.50323 0.11217 0.09003 0.0
C139 C 0.6293 0.10011 0.07372 0.0
C140 C 0.65093 0.10869 0.10617 0.0
C141 C 0.68849 0.12795 0.10233 0.0
C142 C 0.71011 0.13639 0.13259 0.0
C143 C 0.69448 0.1256 0.16727 0.0
C144 C 0.65668 0.10604 0.17097 0.0
C145 C 0.63501 0.09763 0.14056 0.0
C146 C 0.51323 1.01159 0.08076 0.0
C147 C 0.54704 1.02246 0.98684 0.0
C148 C 0.42248 1.02727 1.00047 0.0
C149 C 0.40106 0.99311 0.98372 0.0
C150 C 0.37679 0.96615 1.00505 0.0
C151 C 0.35396 0.93527 0.9888 0.0
C152 C 0.35491 0.93084 0.95092 0.0
C153 C 0.37979 0.95749 0.92973 0.0
C154 C 0.40253 0.98827 0.94592 0.0
C155 C 0.53592 0.1192 0.99981 0.0
O156 O 0.53795 0.11103 0.08765 0.0
O157 O 0.47726 0.09074 0.07054 0.0
O158 O 0.6144 0.06612 0.06655 0.0
O159 O 0.60706 0.11936 0.06842 0.0
O160 O 0.54829 1.01628 0.07425 0.0
O161 O 0.5062 1.04059 0.07509 0.0
O162 O 0.51211 1.01453 0.99874 0.0
O163 O 0.57121 0.05156 0.9989 0.0
O164 O 0.45004 0.04774 0.98093 0.0
O165 O 0.43028 1.02654 1.03443 0.0
O166 O 0.50091 0.11431 1.00724 0.0
O167 O 0.54329 0.09003 1.00388 0.0
H168 H 0.70109 0.13667 0.07587 0.0
H169 H 0.73888 0.15209 0.12887 0.0
H170 H 0.64391 0.09718 0.19731 0.0
H171 H 0.60597 0.08257 0.14383 0.0
H172 H 0.37479 0.96925 1.03426 0.0
H173 H 0.33516 0.91514 1.00581 0.0
H174 H 0.38064 0.95535 0.90042 0.0
H175 H 0.42049 1.00871 0.92863 0.0
Ho176 Ho 0.5115 0.52055 0.50911 0.0
Ho177 Ho 0.51561 0.58622 0.55594 0.0
C178 C 0.54698 0.52735 0.58948 0.0
C179 C 0.52697 0.46961 0.47113 0.0
C180 C 0.55762 0.45376 0.47018 0.0
C181 C 0.58395 0.46282 0.49691 0.0
C182 C 0.61436 0.44944 0.49478 0.0
C183 C 0.61921 0.42705 0.4656 0.0
C184 C 0.59262 0.41791 0.43889 0.0
C185 C 0.56202 0.43118 0.44122 0.0
C186 C 0.44664 0.51898 0.54482 0.0
C187 C 0.48315 0.58085 0.47404 0.0
C188 C 0.50072 0.63743 0.59381 0.0
C189 C 0.47388 0.65779 0.59255 0.0
C190 C 0.45638 0.65994 0.56048 0.0
C191 C 0.42832 0.67662 0.56077 0.0
C192 C 0.41745 0.69138 0.59314 0.0
C193 C 0.43569 0.68974 0.62498 0.0
C194 C 0.46366 0.67309 0.62464 0.0
C195 C 0.57967 0.58738 0.51875 0.0
O196 O 0.54478 0.51323 0.55625 0.0
O197 O 0.53479 0.55526 0.59757 0.0
O198 O 0.50508 0.46403 0.50034 0.0
O199 O 0.53618 0.50284 0.46082 0.0
O200 O 0.44927 0.5043 0.51321 0.0
O201 O 0.47858 0.53094 0.55716 0.0
O202 O 0.48517 0.59615 0.50687 0.0
O203 O 0.49435 0.55215 0.46752 0.0
O204 O 0.52645 0.64286 0.56773 0.0
O205 O 0.48639 0.60354 0.60132 0.0
O206 O 0.57828 0.60126 0.55101 0.0
O207 O 0.54733 0.57579 0.5076 0.0
H208 H 0.58135 0.48058 0.51921 0.0
H209 H 0.63401 0.45658 0.51605 0.0
H210 H 0.59585 0.40114 0.41578 0.0
H211 H 0.54216 0.42431 0.42011 0.0
H212 H 0.46389 0.64823 0.53543 0.0
H213 H 0.41493 0.67768 0.5358 0.0
H214 H 0.42749 0.70021 0.65053 0.0
H215 H 0.47664 0.67133 0.64968 0.0
Ho216 Ho 0.0243 0.52523 0.04269 0.0
Ho217 Ho 0.02997 0.59619 1.0068 0.0
C218 C 0.09602 0.59556 0.05749 0.0
C219 C 0.04046 0.46921 0.06307 0.0
C220 C 0.07314 0.46379 0.0795 0.0
C221 C 0.09166 0.44123 0.06185 0.0
C222 C 0.12478 0.43838 0.0747 0.0
C223 C 0.14004 0.45789 0.1057 0.0
C224 C 0.12084 0.47978 0.12389 0.0
C225 C 0.08786 0.48284 0.11084 0.0
C226 C 0.98988 0.56828 0.08034 0.0
C227 C 0.95828 0.5257 0.99395 0.0
C228 C 1.01509 0.65232 0.98487 0.0
C229 C 0.98045 0.66261 0.98465 0.0
C230 C 0.95758 0.66083 1.0163 0.0
C231 C 0.92486 0.67053 1.01578 0.0
C232 C 0.91404 0.68178 0.98354 0.0
C233 C 0.93663 0.68311 0.95178 0.0
C234 C 0.96964 0.67377 0.9524 0.0
C235 C 0.06928 0.55685 0.97201 0.0
O236 O 0.0809 0.56031 0.05831 0.0
O237 O 0.08038 0.61659 0.0408 0.0
O238 O 0.01994 0.48499 0.08303 0.0
O239 O 0.04633 0.48092 1.02991 0.0
O240 O 0.97747 0.53344 0.08051 0.0
O241 O 0.02014 0.57738 0.06221 0.0
O242 O 0.97037 0.5612 0.99735 0.0
O243 O 0.97702 0.5053 1.00647 0.0
O244 O 1.01729 0.62587 0.96309 0.0
O245 O 0.02778 0.65026 1.01668 0.0
O246 O 0.07977 0.5916 0.97333 0.0
O247 O 0.03725 0.54483 0.98685 0.0
H248 H 0.081 0.42654 0.03744 0.0
H249 H 0.13896 0.4217 0.05962 0.0
H250 H 0.13135 0.49474 0.14818 0.0
H251 H 0.0743 0.50061 0.12495 0.0
H252 H 0.96483 0.65185 0.04151 0.0
H253 H 0.90776 0.6688 0.04053 0.0
H254 H 0.92906 0.6919 0.9266 0.0
H255 H 0.98674 0.67524 0.92767 0.0
H256 H 0.27909 0.28808 0.2524 0.0
H257 H 0.37323 0.29809 0.31825 0.0
H258 H 0.33039 0.27391 0.37074 0.0
H259 H 0.21496 0.30738 0.32457 0.0
H260 H 0.1756 0.27406 0.30673 0.0
H261 H 0.21348 0.2975 0.27659 0.0
H262 H 0.22089 0.23682 0.25241 0.0
H263 H 0.18316 0.21327 0.2824 0.0
H264 H 0.22769 0.2053 0.28393 0.0
H265 H 0.27719 0.24414 0.41411 0.0
H266 H 0.21886 0.20732 0.4436 0.0
H267 H 0.16038 0.21348 0.34715 0.0
C268 C 0.29062 0.28624 0.27823 0.0
C269 C 0.32931 0.29553 0.28171 0.0
C270 C 0.34358 0.29143 0.31538 0.0
C271 C 0.31949 0.27792 0.34525 0.0
C272 C 0.28134 0.26847 0.34075 0.0
C273 C 0.26704 0.27235 0.30799 0.0
C274 C 0.22534 0.25644 0.30881 0.0
C275 C 0.20622 0.28559 0.30389 0.0
C276 C 0.21361 0.22616 0.28021 0.0
C277 C 0.2184 0.2421 0.34686 0.0
C278 C 0.25089 0.24994 0.36513 0.0
C279 C 0.25157 0.23799 0.4001 0.0
C280 C 0.21832 0.21682 0.4165 0.0
C281 C 0.18494 0.20725 0.39767 0.0
C282 C 0.18511 0.22079 0.36265 0.0
H283 H 0.28474 0.81878 0.77664 0.0
H284 H 0.17265 0.80567 0.82004 0.0
H285 H 0.19717 0.82696 0.88008 0.0
H286 H 0.32335 0.79581 0.86231 0.0
H287 H 0.36696 0.82935 0.85282 0.0
H288 H 0.33999 0.80567 0.81605 0.0
H289 H 0.34084 0.86621 0.7889 0.0
H290 H 0.36732 0.89005 0.82555 0.0
H291 H 0.32382 0.89751 0.81639 0.0
H292 H 0.23442 0.85986 0.9312 0.0
H293 H 0.28075 0.90233 0.96823 0.0
H294 H 0.36838 0.89176 0.89189 0.0
C295 C 0.26512 0.81869 0.79913 0.0
C296 C 0.22673 0.81011 0.79381 0.0
C297 C 0.20217 0.81203 0.8236 0.0
C298 C 0.21583 0.8238 0.85782 0.0
C299 C 0.25404 0.83316 0.86181 0.0
C300 C 0.27829 0.83034 0.83327 0.0
C301 C 0.31825 0.84654 0.8429 0.0
C302 C 0.33832 0.81761 0.84357 0.0
C303 C 0.33871 0.87687 0.81691 0.0
C304 C 0.31276 0.86084 0.88059 0.0
C305 C 0.2756 0.85218 0.89141 0.0
C306 C 0.26363 0.86596 0.92348 0.0
C307 C 0.29018 0.89001 0.94442 0.0
C308 C 0.32818 0.90025 0.93296 0.0
C309 C 0.33954 0.88435 0.90135 0.0
H310 H 0.63735 0.50671 0.7792 0.0
H311 H 0.62542 0.39638 0.74675 0.0
H312 H 0.59891 0.40601 0.68952 0.0
H313 H 0.55064 0.51021 0.74284 0.0
H314 H 0.56892 0.55601 0.72862 0.0
H315 H 0.58777 0.54084 0.76667 0.0
H316 H 0.6534 0.56203 0.73562 0.0
H317 H 0.63473 0.57715 0.69742 0.0
H318 H 0.66127 0.54577 0.69059 0.0
H319 H 0.57596 0.42835 0.63423 0.0
H320 H 0.55323 0.45943 0.58781 0.0
H321 H 0.57535 0.5549 0.65657 0.0
C322 C 0.62909 0.48457 0.76002 0.0
C323 C 0.63365 0.4507 0.76764 0.0
C324 C 0.62222 0.42246 0.74185 0.0
C325 C 0.6072 0.42776 0.70909 0.0
C326 C 0.60317 0.46141 0.70239 0.0
C327 C 0.61334 0.48926 0.72734 0.0
C328 C 0.60494 0.52245 0.71382 0.0
C329 C 0.57637 0.533 0.73952 0.0
C330 C 0.64072 0.5537 0.70909 0.0
C331 C 0.5887 0.50903 0.67728 0.0
C332 C 0.58838 0.47383 0.67116 0.0
C333 C 0.57584 0.4558 0.63898 0.0
C334 C 0.56305 0.47387 0.61257 0.0
C335 C 0.56218 0.50976 0.61821 0.0
C336 C 0.57527 0.52745 0.65128 0.0
H337 H 0.88799 0.63589 0.25454 0.0
H338 H 0.95859 0.74262 0.2287 0.0
H339 H 0.98506 0.71828 0.17505 0.0
H340 H 0.95456 0.58886 0.2272 0.0
H341 H 0.9212 0.55072 0.20769 0.0
H342 H 0.90693 0.57613 0.24419 0.0
H343 H 0.85647 0.58626 0.20468 0.0
H344 H 0.87069 0.56095 0.16801 0.0
H345 H 0.86959 0.60602 0.16072 0.0
H346 H 1.00613 0.68357 0.12659 0.0
H347 H 0.0206 0.63984 0.08391 0.0
H348 H 0.93504 0.55405 0.13656 0.0
C349 C 0.909 0.65403 0.23753 0.0
C350 C 0.92136 0.69128 0.24585 0.0
C351 C 0.94878 0.71411 0.22287 0.0
C352 C 0.96395 0.70054 0.1923 0.0
C353 C 0.9513 0.66393 0.18473 0.0
C354 C 0.92442 0.64085 0.20644 0.0
C355 C 0.91628 0.60254 0.19166 0.0
C356 C 0.92529 0.57812 0.21934 0.0
C357 C 0.87585 0.58809 0.18061 0.0
C358 C 0.94311 0.60785 0.1586 0.0
C359 C 0.96289 0.64361 0.15542 0.0
C360 C 0.99042 0.65557 0.1284 0.0
C361 C 0.99824 0.63042 0.10399 0.0
C362 C 0.97834 0.59357 0.10602 0.0
C363 C 0.95022 0.58212 0.13377 0.0
H364 H 0.3888 0.2494 0.14333 0.0
H365 H 0.45631 0.28222 0.23664 0.0
H366 H 0.49229 0.24035 0.21745 0.0
H367 H 0.38196 0.15706 0.1476 0.0
H368 H 0.38329 0.14999 0.09917 0.0
H369 H 0.36511 0.18453 0.11867 0.0
H370 H 0.412 0.23188 0.07853 0.0
H371 H 0.43011 0.1974 0.05869 0.0
H372 H 0.46083 0.23641 0.07967 0.0
H373 H 0.5209 0.19454 0.18727 0.0
H374 H 0.53731 0.14656 0.15062 0.0
H375 H 0.44759 0.14147 0.08018 0.0
C376 C 0.4116 0.24816 0.1593 0.0
C377 C 0.42032 0.26927 0.19109 0.0
C378 C 0.44958 0.26634 0.212 0.0
C379 C 0.47008 0.24271 0.20131 0.0
C380 C 0.46055 0.22191 0.16995 0.0
C381 C 0.43184 0.22429 0.14939 0.0
C382 C 0.42571 0.19767 0.11804 0.0
C383 C 0.38671 0.17072 0.12108 0.0
C384 C 0.43259 0.217 0.08158 0.0
C385 C 0.45537 0.17986 0.12414 0.0
C386 C 0.47555 0.19443 0.1539 0.0
C387 C 0.5051 0.18277 0.16406 0.0
C388 C 0.51422 0.15556 0.14316 0.0
C389 C 0.49337 0.13998 0.11297 0.0
C390 C 0.46359 0.15235 0.10356 0.0
H391 H 0.09692 0.84636 0.61328 0.0
H392 H 0.19176 0.91015 0.67088 0.0
H393 H 0.18815 0.96466 0.64088 0.0
H394 H 0.11613 0.89439 0.52919 0.0
H395 H 0.06819 0.8911 0.52321 0.0
H396 H 0.07992 0.85689 0.54731 0.0
H397 H 0.03885 0.86681 0.60297 0.0
H398 H 0.0268 0.90073 0.57878 0.0
H399 H 0.04679 0.9112 0.62245 0.0
H400 H 0.17373 1.0124 0.60419 0.0
H401 H 0.14512 0.04987 0.5692 0.0
H402 H 0.05807 0.9546 0.53938 0.0
C403 C 0.117 0.87182 0.61931 0.0
C404 C 0.14462 0.87426 0.64412 0.0
C405 C 0.17024 0.90793 0.65196 0.0
C406 C 0.16857 0.93893 0.6349 0.0
C407 C 0.14086 0.93571 0.61053 0.0
C408 C 0.11519 0.90307 0.60319 0.0
C409 C 0.0865 0.90711 0.57808 0.0
C410 C 0.08779 0.88613 0.54233 0.0
C411 C 0.04745 0.89581 0.59669 0.0
C412 C 0.1001 0.94704 0.57233 0.0
C413 C 0.13175 0.96315 0.59078 0.0
C414 C 0.14894 1.00008 0.5896 0.0
C415 C 0.13275 1.02109 0.56961 0.0
C416 C 0.09959 1.00492 0.55184 0.0
C417 C 0.08351 0.96752 0.55285 0.0
H418 H 0.74868 0.47378 0.92276 0.0
H419 H 0.77597 0.38638 0.86396 0.0
H420 H 0.84026 0.4088 0.88335 0.0
H421 H 0.8412 0.54219 0.90481 0.0
H422 H 0.84143 0.56255 0.9493 0.0
H423 H 0.79807 0.54198 0.92832 0.0
H424 H 0.77498 0.50181 0.98413 0.0
H425 H 0.81834 0.52203 1.00515 0.0
H426 H 0.80206 0.47411 0.99859 0.0
H427 H 0.89878 0.43546 0.91363 0.0
H428 H 0.95134 0.46819 0.9497 0.0
H429 H 0.89073 0.54183 0.98864 0.0
C430 C 0.76859 0.46011 0.91321 0.0
C431 C 0.75739 0.42846 0.89135 0.0
C432 C 0.784 0.41076 0.88026 0.0
C433 C 0.82059 0.42327 0.89126 0.0
C434 C 0.83065 0.45384 0.91338 0.0
C435 C 0.80578 0.47249 0.92395 0.0
C436 C 0.8242 0.50389 0.94906 0.0
C437 C 0.82635 0.53979 0.93184 0.0
C438 C 0.80366 0.50023 0.98645 0.0
C439 C 0.86282 0.49929 0.95148 0.0
C440 C 0.86554 0.47009 0.93058 0.0
C441 C 0.89718 0.45866 0.92968 0.0
C442 C 0.9269 0.4774 0.95054 0.0
C443 C 0.92547 0.50771 0.97204 0.0
C444 C 0.89295 0.51906 0.97217 0.0
H445 H 0.78844 0.69051 0.45345 0.0
H446 H 0.7582 0.64893 0.34532 0.0
H447 H 0.69716 0.61343 0.36989 0.0
H448 H 0.73867 0.60948 0.50277 0.0
H449 H 0.72388 0.6338 0.53996 0.0
H450 H 0.76673 0.65396 0.51466 0.0
H451 H 0.74406 0.70851 0.50123 0.0
H452 H 0.70126 0.68861 0.5266 0.0
H453 H 0.70039 0.70131 0.48027 0.0
H454 H 0.63815 0.58502 0.40485 0.0
H455 H 0.58412 0.56716 0.44795 0.0
H456 H 0.65085 0.62742 0.53373 0.0
C457 C 0.76907 0.67389 0.4349 0.0
C458 C 0.77867 0.67226 0.39739 0.0
C459 C 0.75223 0.65005 0.37424 0.0
C460 C 0.71725 0.62987 0.38791 0.0
C461 C 0.70877 0.63212 0.42485 0.0
C462 C 0.7338 0.65361 0.44808 0.0
C463 C 0.7168 0.65249 0.48639 0.0
C464 C 0.73778 0.63647 0.51248 0.0
C465 C 0.71555 0.68995 0.49937 0.0
C466 C 0.67813 0.62752 0.48083 0.0
C467 C 0.67432 0.61586 0.44515 0.0
C468 C 0.64089 0.59368 0.43294 0.0
C469 C 0.61035 0.58357 0.45767 0.0
C470 C 0.61332 0.59559 0.49424 0.0
C471 C 0.64786 0.61749 0.50602 0.0
H472 H 0.29645 0.3653 0.14606 0.0
H473 H 0.35973 0.46718 0.19178 0.0
H474 H 0.31146 0.49436 0.17528 0.0
H475 H 0.25902 0.40027 0.07106 0.0
H476 H 0.21435 0.36711 0.07561 0.0
H477 H 0.25533 0.35662 0.08823 0.0
H478 H 0.22521 0.3394 0.15231 0.0
H479 H 0.18425 0.35002 0.13996 0.0
H480 H 0.20864 0.37143 0.17908 0.0
H481 H 0.25569 0.50988 0.15524 0.0
H482 H 0.19578 0.51264 0.13425 0.0
H483 H 0.16683 0.39934 0.10548 0.0
C484 C 0.30047 0.3935 0.1519 0.0
C485 C 0.33203 0.41445 0.16963 0.0
C486 C 0.33586 0.45093 0.17782 0.0
C487 C 0.30863 0.46653 0.16859 0.0
C488 C 0.27756 0.44509 0.15155 0.0
C489 C 0.27326 0.40934 0.14338 0.0
C490 C 0.2362 0.39172 0.127 0.0
C491 C 0.24156 0.37814 0.08817 0.0
C492 C 0.21216 0.36136 0.15103 0.0
C493 C 0.22037 0.42314 0.12725 0.0
C494 C 0.24476 0.45371 0.14129 0.0
C495 C 0.23628 0.48607 0.14433 0.0
C496 C 0.20196 0.48726 0.13262 0.0
C497 C 0.17627 0.45617 0.11837 0.0
C498 C 0.18585 0.42373 0.11579 0.0
H499 H 0.59485 0.31707 0.91416 0.0
H500 H 0.70516 0.30578 0.89459 0.0
H501 H 0.68406 0.24543 0.92057 0.0
H502 H 0.57579 0.27188 0.99984 0.0
H503 H 0.52756 0.25002 0.99229 0.0
H504 H 0.55072 0.29216 0.97118 0.0
H505 H 0.53202 0.26376 0.90816 0.0
H506 H 0.50867 0.22158 0.92912 0.0
H507 H 0.54407 0.22391 0.89378 0.0
H508 H 0.65147 0.18597 0.94966 0.0
H509 H 0.60942 0.1321 0.97911 0.0
H510 H 0.51994 0.18081 0.98101 0.0
C511 C 0.61444 0.30175 0.91505 0.0
C512 C 0.65189 0.3166 0.9024 0.0
C513 C 0.67656 0.29551 0.90445 0.0
C514 C 0.66477 0.26099 0.91909 0.0
C515 C 0.62802 0.24741 0.93182 0.0
C516 C 0.60313 0.26706 0.92996 0.0
C517 C 0.5653 0.24616 0.94626 0.0
C518 C 0.5542 0.26626 0.97936 0.0
C519 C 0.53577 0.23839 0.91762 0.0
C520 C 0.57287 0.21184 0.95745 0.0
C521 C 0.60926 0.21314 0.9488 0.0
C522 C 0.6229 0.18469 0.95648 0.0
C523 C 0.59879 0.15413 0.97326 0.0
C524 C 0.56133 0.15201 0.98238 0.0
C525 C 0.5484 0.18148 0.97438 0.0
H526 H 0.87806 0.77784 0.4474 0.0
H527 H 0.88737 0.81086 0.33552 0.0
H528 H 0.91381 0.87398 0.35507 0.0
H529 H 0.85399 0.85463 0.48773 0.0
H530 H 0.88131 0.85709 0.52677 0.0
H531 H 0.86171 0.81462 0.50424 0.0
H532 H 0.92702 0.80581 0.49571 0.0
H533 H 0.94675 0.84817 0.51832 0.0
H534 H 0.964 0.83989 0.47348 0.0
H535 H 0.93964 0.93367 0.38675 0.0
H536 H 0.96674 0.98488 0.4276 0.0
H537 H 0.94231 0.91318 0.519 0.0
C538 C 0.88541 0.79842 0.42709 0.0
C539 C 0.8806 0.7894 0.38988 0.0
C540 C 0.89106 0.81708 0.3641 0.0
C541 C 0.90589 0.85304 0.37498 0.0
C542 C 0.91036 0.86104 0.4118 0.0
C543 C 0.9007 0.8345 0.43748 0.0
C544 C 0.9099 0.85022 0.47515 0.0
C545 C 0.87462 0.84375 0.49993 0.0
C546 C 0.93863 0.83512 0.49162 0.0
C547 C 0.92627 0.88966 0.46662 0.0
C548 C 0.92596 0.89536 0.42996 0.0
C549 C 0.93998 0.92951 0.41552 0.0
C550 C 0.95525 0.95851 0.43902 0.0
C551 C 0.95672 0.95329 0.47663 0.0
C552 C 0.94158 0.91829 0.49047 0.0
H553 H 0.29809 0.80395 0.69079 0.0
H554 H 0.20201 0.73452 0.63927 0.0
H555 H 0.24327 0.70862 0.59969 0.0
H556 H 0.3627 0.81819 0.60879 0.0
H557 H 0.40123 0.81801 0.63545 0.0
H558 H 0.36453 0.83452 0.65505 0.0
H559 H 0.35441 0.78966 0.70754 0.0
H560 H 0.3909 0.77305 0.68816 0.0
H561 H 0.34532 0.74254 0.69706 0.0
H562 H 0.29458 0.6846 0.57292 0.0
H563 H 0.35048 0.6645 0.56158 0.0
H564 H 0.4126 0.75183 0.62954 0.0
C565 C 0.28584 0.78369 0.6707 0.0
C566 C 0.24709 0.77084 0.66804 0.0
C567 C 0.23178 0.74456 0.64149 0.0
C568 C 0.25498 0.72989 0.61893 0.0
C569 C 0.29323 0.74251 0.62298 0.0
C570 C 0.30848 0.76917 0.64798 0.0
C571 C 0.34987 0.77609 0.64948 0.0
C572 C 0.37081 0.81395 0.6364 0.0
C573 C 0.36073 0.76994 0.68782 0.0
C574 C 0.35542 0.74786 0.62281 0.0
C575 C 0.32266 0.72912 0.60724 0.0
C576 C 0.32054 0.69961 0.58429 0.0
C577 C 0.35246 0.68846 0.57791 0.0
C578 C 0.38585 0.70666 0.59469 0.0
C579 C 0.38745 0.73737 0.6164 0.0
H580 H 0.76439 0.82387 0.8453 0.0
H581 H 0.67201 0.80304 0.77502 0.0
H582 H 0.71592 0.81452 0.7213 0.0
H583 H 0.81841 0.89743 0.79983 0.0
H584 H 0.86222 0.88956 0.80678 0.0
H585 H 0.82371 0.87266 0.83848 0.0
H586 H 0.82952 0.80846 0.82881 0.0
H587 H 0.86819 0.82524 0.79695 0.0
H588 H 0.82846 0.78944 0.78363 0.0
H589 H 0.77007 0.83405 0.67624 0.0
H590 H 0.82905 0.86518 0.64391 0.0
H591 H 0.88538 0.87781 0.74504 0.0
C592 C 0.75347 0.8205 0.81847 0.0
C593 C 0.715 0.81178 0.81395 0.0
C594 C 0.70149 0.80914 0.77872 0.0
C595 C 0.72618 0.81545 0.7482 0.0
C596 C 0.76417 0.82466 0.75359 0.0
C597 C 0.77771 0.82736 0.78793 0.0
C598 C 0.81951 0.84247 0.78694 0.0
C599 C 0.83165 0.87761 0.80931 0.0
C600 C 0.83747 0.81474 0.79984 0.0
C601 C 0.82738 0.84902 0.7468 0.0
C602 C 0.79526 0.83773 0.72789 0.0
C603 C 0.79541 0.84281 0.69075 0.0
C604 C 0.82904 0.86081 0.67269 0.0
C605 C 0.86197 0.87427 0.6919 0.0
C606 C 0.86105 0.86732 0.72929 0.0
H607 H 0.74318 0.22239 0.35764 0.0
H608 H 0.85738 0.2236 0.33405 0.0
H609 H 0.83806 0.18583 0.27937 0.0
H610 H 0.69882 0.13161 0.32448 0.0
H611 H 0.66139 0.14407 0.30572 0.0
H612 H 0.68361 0.16768 0.34498 0.0
H613 H 0.69797 0.22795 0.31161 0.0
H614 H 0.6756 0.20459 0.27243 0.0
H615 H 0.7228 0.23295 0.26813 0.0
H616 H 0.80674 0.15179 0.225 0.0
H617 H 0.76674 0.12635 0.17415 0.0
H618 H 0.67402 0.1505 0.23273 0.0
C619 C 0.76425 0.21483 0.341 0.0
C620 C 0.80187 0.22615 0.34999 0.0
C621 C 0.82837 0.21502 0.32783 0.0
C622 C 0.81765 0.1936 0.29675 0.0
C623 C 0.78036 0.18345 0.28844 0.0
C624 C 0.75412 0.19376 0.30995 0.0
C625 C 0.71634 0.18151 0.29395 0.0
C626 C 0.6884 0.15462 0.31876 0.0
C627 C 0.70238 0.21367 0.28605 0.0
C628 C 0.72557 0.16351 0.25943 0.0
C629 C 0.76248 0.16438 0.25698 0.0
C630 C 0.77777 0.15078 0.22672 0.0
C631 C 0.75489 0.13661 0.19791 0.0
C632 C 0.71727 0.13651 0.19945 0.0
C633 C 0.70243 0.14955 0.23098 0.0
H634 H 0.43454 0.72982 0.35258 0.0
H635 H 0.40969 0.64848 0.26725 0.0
H636 H 0.42356 0.60552 0.30752 0.0
H637 H 0.51085 0.7044 0.38831 0.0
H638 H 0.4992 0.71269 0.43506 0.0
H639 H 0.48725 0.73751 0.39979 0.0
H640 H 0.41861 0.71698 0.4232 0.0
H641 H 0.43036 0.69194 0.45842 0.0
H642 H 0.39511 0.6698 0.4275 0.0
H643 H 0.44054 0.57095 0.35637 0.0
H644 H 0.46021 0.54713 0.41002 0.0
H645 H 0.47419 0.64928 0.46624 0.0
C646 C 0.4321 0.70296 0.34239 0.0
C647 C 0.42093 0.69276 0.30644 0.0
C648 C 0.41805 0.65724 0.2944 0.0
C649 C 0.42589 0.6325 0.31722 0.0
C650 C 0.43657 0.64328 0.35238 0.0
C651 C 0.43974 0.67766 0.36505 0.0
C652 C 0.45195 0.68203 0.40416 0.0
C653 C 0.48955 0.71088 0.40699 0.0
C654 C 0.42223 0.69071 0.42984 0.0
C655 C 0.45529 0.64485 0.41134 0.0
C656 C 0.44621 0.62306 0.38094 0.0
C657 C 0.44764 0.58781 0.3803 0.0
C658 C 0.45895 0.57448 0.41114 0.0
C659 C 0.46881 0.59603 0.44284 0.0
C660 C 0.46654 0.63179 0.44283 0.0
H661 H 0.11576 0.41933 0.82369 0.0
H662 H 0.23143 0.47117 0.84458 0.0
H663 H 0.2128 0.50697 0.89396 0.0
H664 H 0.08488 0.4964 0.83853 0.0
H665 H 0.04111 0.47344 0.8609 0.0
H666 H 0.06296 0.44967 0.8286 0.0
H667 H 0.06084 0.40248 0.87691 0.0
H668 H 0.03901 0.4262 0.90939 0.0
H669 H 0.08127 0.41689 0.91988 0.0
H670 H 0.18317 0.54105 0.93673 0.0
H671 H 0.1433 0.57088 0.97241 0.0
H672 H 0.04564 0.49637 0.92796 0.0
C673 C 0.13705 0.43789 0.83903 0.0
C674 C 0.17517 0.44243 0.83034 0.0
C675 C 0.20215 0.46721 0.85081 0.0
C676 C 0.19184 0.48764 0.87898 0.0
C677 C 0.15427 0.48291 0.88675 0.0
C678 C 0.12715 0.45857 0.86767 0.0
C679 C 0.08878 0.46006 0.88113 0.0
C680 C 0.06823 0.47052 0.85046 0.0
C681 C 0.06614 0.42427 0.89782 0.0
C682 C 0.0988 0.4896 0.91001 0.0
C683 C 0.13683 0.50221 0.91269 0.0
C684 C 0.15333 0.53105 0.93536 0.0
C685 C 0.13051 0.54785 0.95547 0.0
C686 C 0.09154 0.53559 0.9533 0.0
C687 C 0.07536 0.50566 0.93073 0.0
H688 H 0.5899 0.84027 0.92793 0.0
H689 H 0.68172 0.90626 0.8617 0.0
H690 H 0.65893 0.95821 0.87424 0.0
H691 H 0.52042 0.8852 0.90582 0.0
H692 H 0.50043 0.88243 0.95143 0.0
H693 H 0.52102 0.84866 0.9341 0.0
H694 H 0.56432 0.86081 0.98811 0.0
H695 H 0.54366 0.89435 1.00566 0.0
H696 H 0.59314 0.90579 0.99687 0.0
H697 H 0.63109 1.00427 0.89787 0.0
H698 H 0.60028 0.04264 0.93354 0.0
H699 H 0.52591 0.94881 0.98536 0.0
C700 C 0.60499 0.86556 0.91579 0.0
C701 C 0.6372 0.86873 0.89307 0.0
C702 C 0.65629 0.90255 0.87811 0.0
C703 C 0.64369 0.93243 0.88524 0.0
C704 C 0.61196 0.92838 0.90755 0.0
C705 C 0.59284 0.89594 0.92279 0.0
C706 C 0.56112 0.89987 0.94805 0.0
C707 C 0.52352 0.87772 0.934 0.0
C708 C 0.56586 0.88961 0.98697 0.0
C709 C 0.56622 0.93976 0.94531 0.0
C710 C 0.59553 0.95546 0.92142 0.0
C711 C 0.6077 0.99229 0.91618 0.0
C712 C 0.59006 1.01385 0.93654 0.0
C713 C 0.56046 0.99856 0.96165 0.0
C714 C 0.5478 0.96097 0.96551 0.0
H715 H 0.92141 0.23236 0.4939 0.0
H716 H 0.81156 0.19266 0.54529 0.0
H717 H 0.82708 0.13914 0.56546 0.0
H718 H 0.9299 0.15183 0.45979 0.0
H719 H 0.97822 0.1603 0.46864 0.0
H720 H 0.96009 0.19716 0.46155 0.0
H721 H 0.98336 0.22557 0.52353 0.0
H722 H 1.00231 0.18915 0.53044 0.0
H723 H 0.97018 0.19926 0.56391 0.0
H724 H 0.852 0.08654 0.57239 0.0
H725 H 0.88795 0.0429 0.57415 0.0
H726 H 0.98231 0.11929 0.52121 0.0
C727 C 0.901 0.21278 0.51015 0.0
C728 C 0.86532 0.21627 0.51809 0.0
C729 C 0.83915 0.19032 0.5393 0.0
C730 C 0.84764 0.15984 0.55062 0.0
C731 C 0.88265 0.15641 0.54107 0.0
C732 C 0.90926 0.18265 0.52216 0.0
C733 C 0.94452 0.17229 0.51471 0.0
C734 C 0.95369 0.17027 0.47374 0.0
C735 C 0.977 0.19809 0.53433 0.0
C736 C 0.93314 0.13559 0.53123 0.0
C737 C 0.89735 0.12678 0.5462 0.0
C738 C 0.88027 0.09338 0.56133 0.0
C739 C 0.90073 0.06871 0.56193 0.0
C740 C 0.93781 0.07787 0.54776 0.0
C741 C 0.954 0.11161 0.53211 0.0
H742 H 0.29359 0.72693 0.11928 0.0
H743 H 0.27343 0.66473 0.21786 0.0
H744 H 0.21515 0.62673 0.19478 0.0
H745 H 0.19662 0.72558 0.11359 0.0
H746 H 0.19757 0.72293 0.06478 0.0
H747 H 0.23935 0.74493 0.08777 0.0
H748 H 0.27272 0.70327 0.05408 0.0
H749 H 0.231 0.68103 1.03112 0.0
H750 H 0.25298 0.65538 0.05705 0.0
H751 H 0.16046 0.593 0.16083 0.0
H752 H 0.10853 0.56967 0.12084 0.0
H753 H 0.15746 0.6563 0.04625 0.0
C754 C 0.27694 0.70562 0.13634 0.0
C755 C 0.28956 0.69867 0.17029 0.0
C756 C 0.26609 0.6702 0.19122 0.0
C757 C 0.23235 0.64847 0.1785 0.0
C758 C 0.22131 0.65569 0.14499 0.0
C759 C 0.2424 0.68393 0.12439 0.0
C760 C 0.22279 0.68635 0.08989 0.0
C761 C 0.21354 0.72207 0.08896 0.0
C762 C 0.24628 0.6812 0.05603 0.0
C763 C 0.18764 0.65488 0.09435 0.0
C764 C 0.18789 0.63743 0.12624 0.0
C765 C 0.15974 0.60671 0.13602 0.0
C766 C 0.13035 0.59352 0.11291 0.0
C767 C 0.1286 0.61111 0.08038 0.0
C768 C 0.1577 0.64245 0.07109 0.0
H769 H 0.2756 0.37836 0.64635 0.0
H770 H 0.23598 0.46834 0.68177 0.0
H771 H 0.29023 0.50959 0.65064 0.0
H772 H 0.37204 0.42105 0.65213 0.0
H773 H 0.3853 0.40061 0.61123 0.0
H774 H 0.34369 0.37779 0.63702 0.0
H775 H 0.30512 0.37326 0.58024 0.0
H776 H 0.34668 0.39576 0.55416 0.0
H777 H 0.30752 0.41336 0.55618 0.0
H778 H 0.35142 0.54201 0.61834 0.0
H779 H 0.41037 0.56158 0.58108 0.0
H780 H 0.40636 0.45064 0.56125 0.0
C781 C 0.27778 0.40661 0.64722 0.0
C782 C 0.25142 0.41978 0.66747 0.0
C783 C 0.2561 0.45726 0.66773 0.0
C784 C 0.2868 0.48108 0.64978 0.0
C785 C 0.31249 0.46722 0.63083 0.0
C786 C 0.30791 0.43079 0.6288 0.0
C787 C 0.33896 0.42273 0.60558 0.0
C788 C 0.36131 0.40447 0.62783 0.0
C789 C 0.32365 0.39993 0.57205 0.0
C790 C 0.36181 0.4603 0.59515 0.0
C791 C 0.34637 0.48568 0.61039 0.0
C792 C 0.36348 0.52233 0.60589 0.0
C793 C 0.39694 0.53325 0.58488 0.0
C794 C 0.41246 0.50759 0.5682 0.0
C795 C 0.39468 0.47073 0.57345 0.0
H796 H 0.72358 0.68983 0.90576 0.0
H797 H 0.71686 0.7649 0.99302 0.0
H798 H 0.77403 0.75787 1.01754 0.0
H799 H 0.7607 0.63074 0.95701 0.0
H800 H 0.79086 0.62409 0.91971 0.0
H801 H 0.74785 0.63278 0.91102 0.0
H802 H 0.7837 0.68675 0.87148 0.0
H803 H 0.82682 0.67838 0.88019 0.0
H804 H 0.82081 0.72179 0.89058 0.0
H805 H 0.83305 0.74391 1.03121 0.0
H806 H 0.89041 0.72569 1.03203 0.0
H807 H 0.85957 0.6616 0.9343 0.0
C808 C 0.73385 0.70429 0.9304 0.0
C809 C 0.71579 0.72764 0.94775 0.0
C810 C 0.73029 0.74675 0.97946 0.0
C811 C 0.76268 0.74289 0.99356 0.0
C812 C 0.78021 0.72003 0.97543 0.0
C813 C 0.76633 0.7011 0.94449 0.0
C814 C 0.79153 0.67995 0.92889 0.0
C815 C 0.77154 0.63949 0.92919 0.0
C816 C 0.8066 0.69248 0.89052 0.0
C817 C 0.82191 0.69006 0.95576 0.0
C818 C 0.8147 0.71291 0.98261 0.0
C819 C 0.8389 0.72595 1.01039 0.0
C820 C 0.87132 0.71539 1.01069 0.0
C821 C 0.87941 0.69232 0.98319 0.0
C822 C 0.85426 0.67954 0.95546 0.0
H823 H 0.44842 0.81269 0.16437 0.0
H824 H 0.34102 0.82901 0.18931 0.0
H825 H 0.36415 0.89004 0.16483 0.0
H826 H 0.50448 0.9048 0.18522 0.0
H827 H 0.53796 0.90579 0.14833 0.0
H828 H 0.51362 0.86394 0.16944 0.0
H829 H 0.49115 0.83687 0.10691 0.0
H830 H 0.51516 0.87873 0.08566 0.0
H831 H 0.46621 0.85897 0.0801 0.0
H832 H 0.39804 0.94898 0.13504 0.0
H833 H 0.44088 1.00168 0.10447 0.0
H834 H 0.52678 0.94832 0.09804 0.0
C835 C 0.43002 0.82938 0.16529 0.0
C836 C 0.39276 0.81582 0.179 0.0
C837 C 0.36952 0.8385 0.17894 0.0
C838 C 0.38246 0.87333 0.16506 0.0
C839 C 0.41892 0.88558 0.15105 0.0
C840 C 0.4425 0.86439 0.15119 0.0
C841 C 0.48017 0.88392 0.13352 0.0
C842 C 0.51087 0.88997 0.16076 0.0
C843 C 0.48866 0.86339 0.09954 0.0
C844 C 0.47403 0.91923 0.12351 0.0
C845 C 0.43844 0.91957 0.13384 0.0
C846 C 0.42602 0.949 0.12704 0.0
C847 C 0.45056 0.97888 0.10954 0.0
C848 C 0.4873 0.97941 0.09888 0.0
C849 C 0.49896 0.94895 0.10596 0.0
H850 H 0.15415 0.30757 0.63075 0.0
H851 H 0.15787 0.27758 0.74219 0.0
H852 H 0.13186 0.21383 0.7249 0.0
H853 H 0.06786 0.24158 0.61196 0.0
H854 H 0.08187 0.23315 0.56597 0.0
H855 H 0.10146 0.27638 0.58698 0.0
H856 H 0.16756 0.2709 0.57297 0.0
H857 H 0.14813 0.2276 0.55199 0.0
H858 H 0.17917 0.23243 0.58846 0.0
H859 H 0.10499 0.15273 0.69533 0.0
H860 H 0.07731 0.09995 0.65632 0.0
H861 H 0.09103 0.16975 0.56428 0.0
C862 C 0.14975 0.28758 0.65147 0.0
C863 C 0.15804 0.29776 0.68792 0.0
C864 C 0.15135 0.27064 0.71421 0.0
C865 C 0.1368 0.23427 0.7046 0.0
C866 C 0.1289 0.22518 0.66852 0.0
C867 C 0.13499 0.25108 0.64237 0.0
C868 C 0.12325 0.23419 0.60568 0.0
C869 C 0.09174 0.24709 0.59185 0.0
C870 C 0.15651 0.24173 0.57815 0.0
C871 C 0.10965 0.19483 0.61528 0.0
C872 C 0.11327 0.19013 0.65162 0.0
C873 C 0.1021 0.15613 0.6668 0.0
C874 C 0.08645 0.12623 0.64439 0.0
C875 C 0.08196 0.13043 0.60712 0.0
C876 C 0.09411 0.16534 0.59256 0.0
H877 H 0.72833 0.28416 0.41981 0.0
H878 H 0.82884 0.36405 0.4518 0.0
H879 H 0.79263 0.40656 0.46727 0.0
H880 H 0.68797 0.34338 0.37807 0.0
H881 H 0.64127 0.32008 0.39361 0.0
H882 H 0.67502 0.29596 0.38632 0.0
H883 H 0.66278 0.27359 0.45241 0.0
H884 H 0.62889 0.29755 0.4599 0.0
H885 H 0.66716 0.30569 0.48932 0.0
H886 H 0.74549 0.44076 0.47651 0.0
H887 H 0.69099 0.4636 0.48085 0.0
H888 H 0.62166 0.36 0.44411 0.0
C889 C 0.74275 0.31067 0.42993 0.0
C890 C 0.78134 0.3211 0.43438 0.0
C891 C 0.79921 0.35568 0.44834 0.0
C892 C 0.77893 0.37993 0.45705 0.0
C893 C 0.74091 0.36889 0.45189 0.0
C894 C 0.723 0.33498 0.43888 0.0
C895 C 0.68202 0.32959 0.43563 0.0
C896 C 0.67094 0.32181 0.39606 0.0
C897 C 0.65886 0.29985 0.46082 0.0
C898 C 0.67963 0.36597 0.44843 0.0
C899 C 0.71382 0.38828 0.45772 0.0
C900 C 0.71851 0.42344 0.46965 0.0
C901 C 0.68736 0.43608 0.47219 0.0
C902 C 0.65202 0.41353 0.46294 0.0
C903 C 0.64831 0.37803 0.45101 0.0
loop_
_geom_bond_atom_site_label_1
_geom_bond_atom_site_label_2
_geom_bond_distance
_geom_bond_site_symmetry_2
_ccdc_geom_bond_type
H0 C5 0.930 . S
H1 C8 0.930 . S
H2 C10 0.930 . S
H3 C4 1.016 . S
C4 H3 1.016 . S
C4 N11 1.286 . S
C5 H0 0.930 . S
C5 C6 1.397 . S
C5 C7 1.361 . S
C6 C5 1.397 . S
C6 C10 1.390 . S
C7 C5 1.361 . S
C7 C8 1.393 . S
C7 N11 1.413 . S
C8 H1 0.930 . S
C8 C7 1.393 . S
C8 C9 1.399 . S
C9 C8 1.399 . S
C9 C10 1.381 . S
C10 H2 0.930 . S
C10 C6 1.390 . S
C10 C9 1.381 . S
N11 C4 1.286 . S
N11 C7 1.413 . S
H12 C17 0.930 . S
H13 C20 0.930 . S
H14 C22 0.930 . S
H15 C16 1.016 . S
C16 H15 1.016 . S
C16 N23 1.286 . S
C17 H12 0.930 . S
C17 C18 1.397 . S
C17 C19 1.361 . S
C18 C17 1.397 . S
C18 C22 1.390 . S
C19 C17 1.361 . S
C19 C20 1.393 . S
C19 N23 1.413 . S
C20 H13 0.930 . S
C20 C19 1.393 . S
C20 C21 1.399 . S
C21 C20 1.399 . S
C21 C22 1.381 . S
C22 H14 0.930 . S
C22 C18 1.390 . S
C22 C21 1.381 . S
N23 C16 1.286 . S
N23 C19 1.413 . S
H24 C29 0.930 . S
H25 C32 0.930 . S
H26 C34 0.930 . S
H27 C28 1.016 . S
C28 H27 1.016 . S
C28 N35 1.286 . S
C29 H24 0.930 . S
C29 C30 1.397 . S
C29 C31 1.361 . S
C30 C29 1.397 . S
C30 C34 1.390 . S
C31 C29 1.361 . S
C31 C32 1.393 . S
C31 N35 1.413 . S
C32 H25 0.930 . S
C32 C31 1.393 . S
C32 C33 1.399 . S
C33 C32 1.399 . S
C33 C34 1.381 . S
C34 H26 0.930 . S
C34 C30 1.390 . S
C34 C33 1.381 . S
N35 C28 1.286 . S
N35 C31 1.413 . S
H36 C41 0.930 . S
H37 C44 0.930 . S
H38 C46 0.930 . S
H39 C40 1.016 . S
C40 H39 1.016 . S
C40 N47 1.286 . S
C41 H36 0.930 . S
C41 C42 1.397 . S
C41 C43 1.361 . S
C42 C41 1.397 . S
C42 C46 1.390 . S
C43 C41 1.361 . S
C43 C44 1.393 . S
C43 N47 1.413 . S
C44 H37 0.930 . S
C44 C43 1.393 . S
C44 C45 1.399 . S
C45 C44 1.399 . S
C45 C46 1.381 . S
C46 H38 0.930 . S
C46 C42 1.390 . S
C46 C45 1.381 . S
N47 C40 1.286 . S
N47 C43 1.413 . S
H48 C53 0.930 . S
H49 C56 0.930 . S
H50 C58 0.930 . S
H51 C52 1.016 . S
C52 H51 1.016 . S
C52 N59 1.286 . S
C53 H48 0.930 . S
C53 C54 1.397 . S
C53 C55 1.361 . S
C54 C53 1.397 . S
C54 C58 1.390 . S
C55 C53 1.361 . S
C55 C56 1.393 . S
C55 N59 1.413 . S
C56 H49 0.930 . S
C56 C55 1.393 . S
C56 C57 1.399 . S
C57 C56 1.399 . S
C57 C58 1.381 . S
C58 H50 0.930 . S
C58 C54 1.390 . S
C58 C57 1.381 . S
N59 C52 1.286 . S
N59 C55 1.413 . S
H60 C65 0.930 . S
H61 C68 0.930 . S
H62 C70 0.930 . S
H63 C64 1.016 . S
C64 H63 1.016 . S
C64 N71 1.286 . S
C65 H60 0.930 . S
C65 C66 1.397 . S
C65 C67 1.361 . S
C66 C65 1.397 . S
C66 C70 1.390 . S
C67 C65 1.361 . S
C67 C68 1.393 . S
C67 N71 1.413 . S
C68 H61 0.930 . S
C68 C67 1.393 . S
C68 C69 1.399 . S
C69 C68 1.399 . S
C69 C70 1.381 . S
C70 H62 0.930 . S
C70 C66 1.390 . S
C70 C69 1.381 . S
N71 C64 1.286 . S
N71 C67 1.413 . S
H72 C77 0.930 . S
H73 C80 0.930 . S
H74 C82 0.930 . S
H75 C76 1.016 . S
C76 H75 1.016 . S
C76 N83 1.286 . S
C77 H72 0.930 . S
C77 C78 1.397 . S
C77 C79 1.361 . S
C78 C77 1.397 . S
C78 C82 1.390 . S
C79 C77 1.361 . S
C79 C80 1.393 . S
C79 N83 1.413 . S
C80 H73 0.930 . S
C80 C79 1.393 . S
C80 C81 1.399 . S
C81 C80 1.399 . S
C81 C82 1.381 . S
C82 H74 0.930 . S
C82 C78 1.390 . S
C82 C81 1.381 . S
N83 C76 1.286 . S
N83 C79 1.413 . S
H84 C89 0.930 . S
H85 C92 0.930 . S
H86 C94 0.930 . S
H87 C88 1.016 . S
C88 H87 1.016 . S
C88 N95 1.286 . S
C89 H84 0.930 . S
C89 C90 1.397 . S
C89 C91 1.361 . S
C90 C89 1.397 . S
C90 C94 1.390 . S
C91 C89 1.361 . S
C91 C92 1.393 . S
C91 N95 1.413 . S
C92 H85 0.930 . S
C92 C91 1.393 . S
C92 C93 1.399 . S
C93 C92 1.399 . S
C93 C94 1.381 . S
C94 H86 0.930 . S
C94 C90 1.390 . S
C94 C93 1.381 . S
N95 C88 1.286 . S
N95 C91 1.413 . S
Ho96 C99 2.811 . S
Ho96 O116 2.322 . S
Ho96 O118 2.378 . S
Ho96 O119 2.524 . S
Ho96 O120 2.381 1_545 S
Ho96 O121 2.669 1_545 S
Ho96 O123 2.346 1_445 S
Ho96 O127 2.305 1_455 S
Ho97 C108 2.811 . S
Ho97 O117 2.345 1_665 S
Ho97 O121 2.305 1_655 S
Ho97 O122 2.322 . S
Ho97 O124 2.378 . S
Ho97 O125 2.524 . S
Ho97 O126 2.380 1_565 S
Ho97 O127 2.669 1_565 S
C98 O116 1.259 . S
C98 O117 1.268 . S
C99 Ho96 2.811 . S
C99 C100 1.488 . S
C99 O118 1.215 . S
C99 O119 1.289 . S
C100 C99 1.488 . S
C100 C101 1.348 . S
C100 C105 1.413 . S
C101 C100 1.348 . S
C101 C102 1.442 . S
C101 H128 0.930 . S
C102 C101 1.442 . S
C102 C103 1.381 . S
C102 H129 0.931 . S
C103 C102 1.381 . S
C103 C104 1.321 . S
C104 C103 1.321 . S
C104 C105 1.403 . S
C104 H130 0.934 . S
C105 C100 1.413 . S
C105 C104 1.403 . S
C105 H131 0.930 . S
C106 O120 1.275 . S
C106 O121 1.256 . S
C107 O122 1.259 . S
C107 O123 1.268 . S
C108 Ho97 2.811 . S
C108 C109 1.488 . S
C108 O124 1.215 . S
C108 O125 1.289 . S
C109 C108 1.488 . S
C109 C110 1.348 . S
C109 C114 1.413 . S
C110 C109 1.348 . S
C110 C111 1.442 . S
C110 H132 0.930 . S
C111 C110 1.442 . S
C111 C112 1.381 . S
C111 H133 0.931 . S
C112 C111 1.381 . S
C112 C113 1.321 . S
C113 C112 1.321 . S
C113 C114 1.403 . S
C113 H134 0.934 . S
C114 C109 1.413 . S
C114 C113 1.403 . S
C114 H135 0.930 . S
C115 O126 1.275 . S
C115 O127 1.256 . S
O116 Ho96 2.322 . S
O116 C98 1.259 . S
O117 Ho97 2.345 1_445 S
O117 C98 1.268 . S
O118 Ho96 2.378 . S
O118 C99 1.215 . S
O119 Ho96 2.524 . S
O119 C99 1.289 . S
O120 Ho96 2.381 1_565 S
O120 C106 1.275 . S
O121 Ho96 2.669 1_565 S
O121 Ho97 2.305 1_455 S
O121 C106 1.256 . S
O122 Ho97 2.322 . S
O122 C107 1.259 . S
O123 Ho96 2.346 1_665 S
O123 C107 1.268 . S
O124 Ho97 2.378 . S
O124 C108 1.215 . S
O125 Ho97 2.524 . S
O125 C108 1.289 . S
O126 Ho97 2.380 1_545 S
O126 C115 1.275 . S
O127 Ho96 2.305 1_655 S
O127 Ho97 2.669 1_545 S
O127 C115 1.256 . S
H128 C101 0.930 . S
H129 C102 0.931 . S
H130 C104 0.934 . S
H131 C105 0.930 . S
H132 C110 0.930 . S
H133 C111 0.931 . S
H134 C113 0.934 . S
H135 C114 0.930 . S
Ho136 C139 2.811 . S
Ho136 O156 2.322 . S
Ho136 O158 2.378 . S
Ho136 O159 2.524 . S
Ho136 O160 2.381 1_545 S
Ho136 O161 2.669 1_545 S
Ho136 O163 2.346 1_544 S
Ho136 O167 2.302 1_554 S
Ho137 C148 2.811 1_545 S
Ho137 O157 2.346 1_556 S
Ho137 O161 2.305 1_546 S
Ho137 O162 2.322 1_545 S
Ho137 O164 2.378 1_545 S
Ho137 O165 2.524 1_545 S
Ho137 O166 2.381 . S
Ho137 O167 2.670 . S
C138 O156 1.259 . S
C138 O157 1.268 . S
C139 Ho136 2.811 . S
C139 C140 1.488 . S
C139 O158 1.215 . S
C139 O159 1.289 . S
C140 C139 1.488 . S
C140 C141 1.348 . S
C140 C145 1.413 . S
C141 C140 1.348 . S
C141 C142 1.442 . S
C141 H168 0.930 . S
C142 C141 1.442 . S
C142 C143 1.381 . S
C142 H169 0.931 . S
C143 C142 1.381 . S
C143 C144 1.321 . S
C144 C143 1.321 . S
C144 C145 1.403 . S
C144 H170 0.934 . S
C145 C140 1.413 . S
C145 C144 1.403 . S
C145 H171 0.930 . S
C146 O160 1.275 . S
C146 O161 1.256 . S
C147 O162 1.259 . S
C147 O163 1.268 . S
C148 Ho137 2.811 1_565 S
C148 C149 1.488 . S
C148 O164 1.215 . S
C148 O165 1.289 . S
C149 C148 1.488 . S
C149 C150 1.348 . S
C149 C154 1.413 . S
C150 C149 1.348 . S
C150 C151 1.442 . S
C150 H172 0.930 . S
C151 C150 1.442 . S
C151 C152 1.381 . S
C151 H173 0.931 . S
C152 C151 1.381 . S
C152 C153 1.321 . S
C153 C152 1.321 . S
C153 C154 1.403 . S
C153 H174 0.934 . S
C154 C149 1.413 . S
C154 C153 1.403 . S
C154 H175 0.930 . S
C155 O166 1.275 . S
C155 O167 1.259 . S
O156 Ho136 2.322 . S
O156 C138 1.259 . S
O157 Ho137 2.346 1_554 S
O157 C138 1.268 . S
O158 Ho136 2.378 . S
O158 C139 1.215 . S
O159 Ho136 2.524 . S
O159 C139 1.289 . S
O160 Ho136 2.381 1_565 S
O160 C146 1.275 . S
O161 Ho136 2.669 1_565 S
O161 Ho137 2.305 1_564 S
O161 C146 1.256 . S
O162 Ho137 2.322 1_565 S
O162 C147 1.259 . S
O163 Ho136 2.346 1_566 S
O163 C147 1.268 . S
O164 Ho137 2.378 1_565 S
O164 C148 1.215 . S
O165 Ho137 2.524 1_565 S
O165 C148 1.289 . S
O166 Ho137 2.381 . S
O166 C155 1.275 . S
O167 Ho136 2.302 1_556 S
O167 Ho137 2.670 . S
O167 C155 1.259 . S
H168 C141 0.930 . S
H169 C142 0.931 . S
H170 C144 0.934 . S
H171 C145 0.930 . S
H172 C150 0.930 . S
H173 C151 0.931 . S
H174 C153 0.934 . S
H175 C154 0.930 . S
Ho176 C179 2.811 . S
Ho176 O196 2.322 . S
Ho176 O198 2.378 . S
Ho176 O199 2.524 . S
Ho176 O200 2.381 . S
Ho176 O201 2.669 . S
Ho176 O203 2.346 . S
Ho176 O207 2.305 . S
Ho177 C188 2.811 . S
Ho177 O197 2.346 . S
Ho177 O201 2.305 . S
Ho177 O202 2.322 . S
Ho177 O204 2.378 . S
Ho177 O205 2.524 . S
Ho177 O206 2.381 . S
Ho177 O207 2.669 . S
C178 O196 1.259 . S
C178 O197 1.268 . S
C179 Ho176 2.811 . S
C179 C180 1.488 . S
C179 O198 1.215 . S
C179 O199 1.289 . S
C180 C179 1.488 . S
C180 C181 1.348 . S
C180 C185 1.413 . S
C181 C180 1.348 . S
C181 C182 1.442 . S
C181 H208 0.930 . S
C182 C181 1.442 . S
C182 C183 1.381 . S
C182 H209 0.931 . S
C183 C182 1.381 . S
C183 C184 1.321 . S
C184 C183 1.321 . S
C184 C185 1.403 . S
C184 H210 0.934 . S
C185 C180 1.413 . S
C185 C184 1.403 . S
C185 H211 0.930 . S
C186 O200 1.275 . S
C186 O201 1.256 . S
C187 O202 1.259 . S
C187 O203 1.268 . S
C188 Ho177 2.811 . S
C188 C189 1.488 . S
C188 O204 1.215 . S
C188 O205 1.289 . S
C189 C188 1.488 . S
C189 C190 1.348 . S
C189 C194 1.413 . S
C190 C189 1.348 . S
C190 C191 1.442 . S
C190 H212 0.930 . S
C191 C190 1.442 . S
C191 C192 1.381 . S
C191 H213 0.931 . S
C192 C191 1.381 . S
C192 C193 1.321 . S
C193 C192 1.321 . S
C193 C194 1.403 . S
C193 H214 0.934 . S
C194 C189 1.413 . S
C194 C193 1.403 . S
C194 H215 0.930 . S
C195 O206 1.275 . S
C195 O207 1.256 . S
O196 Ho176 2.322 . S
O196 C178 1.259 . S
O197 Ho177 2.346 . S
O197 C178 1.268 . S
O198 Ho176 2.378 . S
O198 C179 1.215 . S
O199 Ho176 2.524 . S
O199 C179 1.289 . S
O200 Ho176 2.381 . S
O200 C186 1.275 . S
O201 Ho176 2.669 . S
O201 Ho177 2.305 . S
O201 C186 1.256 . S
O202 Ho177 2.322 . S
O202 C187 1.259 . S
O203 Ho176 2.346 . S
O203 C187 1.268 . S
O204 Ho177 2.378 . S
O204 C188 1.215 . S
O205 Ho177 2.524 . S
O205 C188 1.289 . S
O206 Ho177 2.381 . S
O206 C195 1.275 . S
O207 Ho176 2.305 . S
O207 Ho177 2.669 . S
O207 C195 1.256 . S
H208 C181 0.930 . S
H209 C182 0.931 . S
H210 C184 0.934 . S
H211 C185 0.930 . S
H212 C190 0.930 . S
H213 C191 0.931 . S
H214 C193 0.934 . S
H215 C194 0.930 . S
Ho216 C219 2.811 . S
Ho216 O236 2.322 . S
Ho216 O238 2.378 . S
Ho216 O239 2.524 . S
Ho216 O240 2.381 1_455 S
Ho216 O241 2.669 1_455 S
Ho216 O243 2.346 1_454 S
Ho216 O247 2.305 1_554 S
Ho217 C228 2.811 1_455 S
Ho217 O237 2.346 1_556 S
Ho217 O241 2.305 1_456 S
Ho217 O242 2.322 1_455 S
Ho217 O244 2.378 1_455 S
Ho217 O245 2.524 1_455 S
Ho217 O246 2.381 . S
Ho217 O247 2.669 . S
C218 O236 1.259 . S
C218 O237 1.268 . S
C219 Ho216 2.811 . S
C219 C220 1.488 . S
C219 O238 1.215 . S
C219 O239 1.289 . S
C220 C219 1.488 . S
C220 C221 1.348 . S
C220 C225 1.413 . S
C221 C220 1.348 . S
C221 C222 1.442 . S
C221 H248 0.930 . S
C222 C221 1.442 . S
C222 C223 1.381 . S
C222 H249 0.931 . S
C223 C222 1.381 . S
C223 C224 1.321 . S
C224 C223 1.321 . S
C224 C225 1.403 . S
C224 H250 0.934 . S
C225 C220 1.413 . S
C225 C224 1.403 . S
C225 H251 0.930 . S
C226 O240 1.275 . S
C226 O241 1.256 . S
C227 O242 1.259 . S
C227 O243 1.268 . S
C228 Ho217 2.811 1_655 S
C228 C229 1.488 . S
C228 O244 1.215 . S
C228 O245 1.289 . S
C229 C228 1.488 . S
C229 C230 1.348 . S
C229 C234 1.413 . S
C230 C229 1.348 . S
C230 C231 1.442 . S
C230 H252 0.930 . S
C231 C230 1.442 . S
C231 C232 1.381 . S
C231 H253 0.931 . S
C232 C231 1.381 . S
C232 C233 1.321 . S
C233 C232 1.321 . S
C233 C234 1.403 . S
C233 H254 0.934 . S
C234 C229 1.413 . S
C234 C233 1.403 . S
C234 H255 0.930 . S
C235 O246 1.275 . S
C235 O247 1.256 . S
O236 Ho216 2.322 . S
O236 C218 1.259 . S
O237 Ho217 2.346 1_554 S
O237 C218 1.268 . S
O238 Ho216 2.378 . S
O238 C219 1.215 . S
O239 Ho216 2.524 . S
O239 C219 1.289 . S
O240 Ho216 2.381 1_655 S
O240 C226 1.275 . S
O241 Ho216 2.669 1_655 S
O241 Ho217 2.305 1_654 S
O241 C226 1.256 . S
O242 Ho217 2.322 1_655 S
O242 C227 1.259 . S
O243 Ho216 2.346 1_656 S
O243 C227 1.268 . S
O244 Ho217 2.378 1_655 S
O244 C228 1.215 . S
O245 Ho217 2.524 1_655 S
O245 C228 1.289 . S
O246 Ho217 2.381 . S
O246 C235 1.275 . S
O247 Ho216 2.305 1_556 S
O247 Ho217 2.669 . S
O247 C235 1.256 . S
H248 C221 0.930 . S
H249 C222 0.931 . S
H250 C224 0.934 . S
H251 C225 0.930 . S
H252 C230 0.930 . S
H253 C231 0.931 . S
H254 C233 0.934 . S
H255 C234 0.930 . S
H256 C268 0.930 . S
H257 C270 0.930 . S
H258 C271 0.930 . S
H259 C275 0.959 . S
H260 C275 0.959 . S
H261 C275 0.961 . S
H262 C276 0.960 . S
H263 C276 0.961 . S
H264 C276 0.959 . S
H265 C279 0.929 . S
H266 C280 0.931 . S
H267 C282 0.930 . S
C268 H256 0.930 . S
C268 C269 1.399 . S
C268 C273 1.399 . S
C269 C268 1.399 . S
C269 C270 1.376 . S
C270 H257 0.930 . S
C270 C269 1.376 . S
C270 C271 1.388 . S
C271 H258 0.930 . S
C271 C270 1.388 . S
C271 C272 1.390 . S
C272 C271 1.390 . S
C272 C273 1.394 . S
C272 C278 1.465 . S
C273 C268 1.399 . S
C273 C272 1.394 . S
C273 C274 1.516 . S
C274 C273 1.516 . S
C274 C275 1.502 . S
C274 C276 1.561 . S
C274 C277 1.526 . S
C275 H259 0.959 . S
C275 H260 0.959 . S
C275 H261 0.961 . S
C275 C274 1.502 . S
C276 H262 0.960 . S
C276 H263 0.961 . S
C276 H264 0.959 . S
C276 C274 1.561 . S
C277 C274 1.526 . S
C277 C278 1.396 . S
C277 C282 1.390 . S
C278 C272 1.465 . S
C278 C277 1.396 . S
C278 C279 1.399 . S
C279 H265 0.929 . S
C279 C278 1.399 . S
C279 C280 1.385 . S
C280 H266 0.931 . S
C280 C279 1.385 . S
C280 C281 1.389 . S
C281 C280 1.389 . S
C281 C282 1.387 . S
C282 H267 0.930 . S
C282 C277 1.390 . S
C282 C281 1.387 . S
H283 C295 0.930 . S
H284 C297 0.930 . S
H285 C298 0.930 . S
H286 C302 0.959 . S
H287 C302 0.959 . S
H288 C302 0.961 . S
H289 C303 0.960 . S
H290 C303 0.961 . S
H291 C303 0.959 . S
H292 C306 0.929 . S
H293 C307 0.931 . S
H294 C309 0.930 . S
C295 H283 0.930 . S
C295 C296 1.399 . S
C295 C300 1.399 . S
C296 C295 1.399 . S
C296 C297 1.376 . S
C297 H284 0.930 . S
C297 C296 1.376 . S
C297 C298 1.388 . S
C298 H285 0.930 . S
C298 C297 1.388 . S
C298 C299 1.390 . S
C299 C298 1.390 . S
C299 C300 1.394 . S
C299 C305 1.465 . S
C300 C295 1.399 . S
C300 C299 1.394 . S
C300 C301 1.516 . S
C301 C300 1.516 . S
C301 C302 1.502 . S
C301 C303 1.561 . S
C301 C304 1.526 . S
C302 H286 0.959 . S
C302 H287 0.959 . S
C302 H288 0.961 . S
C302 C301 1.502 . S
C303 H289 0.960 . S
C303 H290 0.961 . S
C303 H291 0.959 . S
C303 C301 1.561 . S
C304 C301 1.526 . S
C304 C305 1.396 . S
C304 C309 1.390 . S
C305 C299 1.465 . S
C305 C304 1.396 . S
C305 C306 1.399 . S
C306 H292 0.929 . S
C306 C305 1.399 . S
C306 C307 1.385 . S
C307 H293 0.931 . S
C307 C306 1.385 . S
C307 C308 1.389 . S
C308 C307 1.389 . S
C308 C309 1.387 . S
C309 H294 0.930 . S
C309 C304 1.390 . S
C309 C308 1.387 . S
H310 C322 0.930 . S
H311 C324 0.930 . S
H312 C325 0.930 . S
H313 C329 0.959 . S
H314 C329 0.959 . S
H315 C329 0.961 . S
H316 C330 0.960 . S
H317 C330 0.961 . S
H318 C330 0.959 . S
H319 C333 0.929 . S
H320 C334 0.931 . S
H321 C336 0.930 . S
C322 H310 0.930 . S
C322 C323 1.399 . S
C322 C327 1.399 . S
C323 C322 1.399 . S
C323 C324 1.376 . S
C324 H311 0.930 . S
C324 C323 1.376 . S
C324 C325 1.388 . S
C325 H312 0.930 . S
C325 C324 1.388 . S
C325 C326 1.390 . S
C326 C325 1.390 . S
C326 C327 1.394 . S
C326 C332 1.465 . S
C327 C322 1.399 . S
C327 C326 1.394 . S
C327 C328 1.516 . S
C328 C327 1.516 . S
C328 C329 1.502 . S
C328 C330 1.561 . S
C328 C331 1.526 . S
C329 H313 0.959 . S
C329 H314 0.959 . S
C329 H315 0.961 . S
C329 C328 1.502 . S
C330 H316 0.960 . S
C330 H317 0.961 . S
C330 H318 0.959 . S
C330 C328 1.561 . S
C331 C328 1.526 . S
C331 C332 1.396 . S
C331 C336 1.390 . S
C332 C326 1.465 . S
C332 C331 1.396 . S
C332 C333 1.399 . S
C333 H319 0.929 . S
C333 C332 1.399 . S
C333 C334 1.385 . S
C334 H320 0.931 . S
C334 C333 1.385 . S
C334 C335 1.389 . S
C335 C334 1.389 . S
C335 C336 1.387 . S
C336 H321 0.930 . S
C336 C331 1.390 . S
C336 C335 1.387 . S
H337 C349 0.930 . S
H338 C351 0.930 . S
H339 C352 0.930 . S
H340 C356 0.959 . S
H341 C356 0.959 . S
H342 C356 0.961 . S
H343 C357 0.960 . S
H344 C357 0.961 . S
H345 C357 0.959 . S
H346 C360 0.929 . S
H347 C361 0.931 . S
H348 C363 0.930 . S
C349 H337 0.930 . S
C349 C350 1.399 . S
C349 C354 1.399 . S
C350 C349 1.399 . S
C350 C351 1.376 . S
C351 H338 0.930 . S
C351 C350 1.376 . S
C351 C352 1.388 . S
C352 H339 0.930 . S
C352 C351 1.388 . S
C352 C353 1.390 . S
C353 C352 1.390 . S
C353 C354 1.394 . S
C353 C359 1.465 . S
C354 C349 1.399 . S
C354 C353 1.394 . S
C354 C355 1.516 . S
C355 C354 1.516 . S
C355 C356 1.502 . S
C355 C357 1.561 . S
C355 C358 1.526 . S
C356 H340 0.959 . S
C356 H341 0.959 . S
C356 H342 0.961 . S
C356 C355 1.502 . S
C357 H343 0.960 . S
C357 H344 0.961 . S
C357 H345 0.959 . S
C357 C355 1.561 . S
C358 C355 1.526 . S
C358 C359 1.396 . S
C358 C363 1.390 . S
C359 C353 1.465 . S
C359 C358 1.396 . S
C359 C360 1.399 . S
C360 H346 0.929 . S
C360 C359 1.399 . S
C360 C361 1.385 . S
C361 H347 0.931 . S
C361 C360 1.385 . S
C361 C362 1.389 . S
C362 C361 1.389 . S
C362 C363 1.387 . S
C363 H348 0.930 . S
C363 C358 1.390 . S
C363 C362 1.387 . S
H364 C376 0.930 . S
H365 C378 0.930 . S
H366 C379 0.930 . S
H367 C383 0.959 . S
H368 C383 0.959 . S
H369 C383 0.961 . S
H370 C384 0.960 . S
H371 C384 0.961 . S
H372 C384 0.959 . S
H373 C387 0.929 . S
H374 C388 0.931 . S
H375 C390 0.930 . S
C376 H364 0.930 . S
C376 C377 1.399 . S
C376 C381 1.399 . S
C377 C376 1.399 . S
C377 C378 1.376 . S
C378 H365 0.930 . S
C378 C377 1.376 . S
C378 C379 1.388 . S
C379 H366 0.930 . S
C379 C378 1.388 . S
C379 C380 1.390 . S
C380 C379 1.390 . S
C380 C381 1.394 . S
C380 C386 1.465 . S
C381 C376 1.399 . S
C381 C380 1.394 . S
C381 C382 1.516 . S
C382 C381 1.516 . S
C382 C383 1.502 . S
C382 C384 1.561 . S
C382 C385 1.526 . S
C383 H367 0.959 . S
C383 H368 0.959 . S
C383 H369 0.961 . S
C383 C382 1.502 . S
C384 H370 0.960 . S
C384 H371 0.961 . S
C384 H372 0.959 . S
C384 C382 1.561 . S
C385 C382 1.526 . S
C385 C386 1.396 . S
C385 C390 1.390 . S
C386 C380 1.465 . S
C386 C385 1.396 . S
C386 C387 1.399 . S
C387 H373 0.929 . S
C387 C386 1.399 . S
C387 C388 1.385 . S
C388 H374 0.931 . S
C388 C387 1.385 . S
C388 C389 1.389 . S
C389 C388 1.389 . S
C389 C390 1.387 . S
C390 H375 0.930 . S
C390 C385 1.390 . S
C390 C389 1.387 . S
H391 C403 0.930 . S
H392 C405 0.930 . S
H393 C406 0.930 . S
H394 C410 0.959 . S
H395 C410 0.959 . S
H396 C410 0.961 . S
H397 C411 0.960 . S
H398 C411 0.961 . S
H399 C411 0.959 . S
H400 C414 0.929 . S
H401 C415 0.931 . S
H402 C417 0.930 . S
C403 H391 0.930 . S
C403 C404 1.399 . S
C403 C408 1.399 . S
C404 C403 1.399 . S
C404 C405 1.376 . S
C405 H392 0.930 . S
C405 C404 1.376 . S
C405 C406 1.388 . S
C406 H393 0.930 . S
C406 C405 1.388 . S
C406 C407 1.390 . S
C407 C406 1.390 . S
C407 C408 1.394 . S
C407 C413 1.465 . S
C408 C403 1.399 . S
C408 C407 1.394 . S
C408 C409 1.516 . S
C409 C408 1.516 . S
C409 C410 1.502 . S
C409 C411 1.561 . S
C409 C412 1.526 . S
C410 H394 0.959 . S
C410 H395 0.959 . S
C410 H396 0.961 . S
C410 C409 1.502 . S
C411 H397 0.960 . S
C411 H398 0.961 . S
C411 H399 0.959 . S
C411 C409 1.561 . S
C412 C409 1.526 . S
C412 C413 1.396 . S
C412 C417 1.390 . S
C413 C407 1.465 . S
C413 C412 1.396 . S
C413 C414 1.399 . S
C414 H400 0.929 . S
C414 C413 1.399 . S
C414 C415 1.385 . S
C415 H401 0.931 . S
C415 C414 1.385 . S
C415 C416 1.389 . S
C416 C415 1.389 . S
C416 C417 1.387 . S
C417 H402 0.930 . S
C417 C412 1.390 . S
C417 C416 1.387 . S
H418 C430 0.930 . S
H419 C432 0.930 . S
H420 C433 0.930 . S
H421 C437 0.959 . S
H422 C437 0.959 . S
H423 C437 0.961 . S
H424 C438 0.960 . S
H425 C438 0.961 . S
H426 C438 0.959 . S
H427 C441 0.929 . S
H428 C442 0.931 . S
H429 C444 0.930 . S
C430 H418 0.930 . S
C430 C431 1.399 . S
C430 C435 1.399 . S
C431 C430 1.399 . S
C431 C432 1.376 . S
C432 H419 0.930 . S
C432 C431 1.376 . S
C432 C433 1.388 . S
C433 H420 0.930 . S
C433 C432 1.388 . S
C433 C434 1.390 . S
C434 C433 1.390 . S
C434 C435 1.394 . S
C434 C440 1.465 . S
C435 C430 1.399 . S
C435 C434 1.394 . S
C435 C436 1.516 . S
C436 C435 1.516 . S
C436 C437 1.502 . S
C436 C438 1.561 . S
C436 C439 1.526 . S
C437 H421 0.959 . S
C437 H422 0.959 . S
C437 H423 0.961 . S
C437 C436 1.502 . S
C438 H424 0.960 . S
C438 H425 0.961 . S
C438 H426 0.959 . S
C438 C436 1.561 . S
C439 C436 1.526 . S
C439 C440 1.396 . S
C439 C444 1.390 . S
C440 C434 1.465 . S
C440 C439 1.396 . S
C440 C441 1.399 . S
C441 H427 0.929 . S
C441 C440 1.399 . S
C441 C442 1.385 . S
C442 H428 0.931 . S
C442 C441 1.385 . S
C442 C443 1.389 . S
C443 C442 1.389 . S
C443 C444 1.387 . S
C444 H429 0.930 . S
C444 C439 1.390 . S
C444 C443 1.387 . S
H445 C457 0.930 . S
H446 C459 0.930 . S
H447 C460 0.930 . S
H448 C464 0.959 . S
H449 C464 0.959 . S
H450 C464 0.961 . S
H451 C465 0.960 . S
H452 C465 0.961 . S
H453 C465 0.959 . S
H454 C468 0.929 . S
H455 C469 0.931 . S
H456 C471 0.930 . S
C457 H445 0.930 . S
C457 C458 1.399 . S
C457 C462 1.399 . S
C458 C457 1.399 . S
C458 C459 1.376 . S
C459 H446 0.930 . S
C459 C458 1.376 . S
C459 C460 1.388 . S
C460 H447 0.930 . S
C460 C459 1.388 . S
C460 C461 1.390 . S
C461 C460 1.390 . S
C461 C462 1.394 . S
C461 C467 1.465 . S
C462 C457 1.399 . S
C462 C461 1.394 . S
C462 C463 1.516 . S
C463 C462 1.516 . S
C463 C464 1.502 . S
C463 C465 1.561 . S
C463 C466 1.526 . S
C464 H448 0.959 . S
C464 H449 0.959 . S
C464 H450 0.961 . S
C464 C463 1.502 . S
C465 H451 0.960 . S
C465 H452 0.961 . S
C465 H453 0.959 . S
C465 C463 1.561 . S
C466 C463 1.526 . S
C466 C467 1.396 . S
C466 C471 1.390 . S
C467 C461 1.465 . S
C467 C466 1.396 . S
C467 C468 1.399 . S
C468 H454 0.929 . S
C468 C467 1.399 . S
C468 C469 1.385 . S
C469 H455 0.931 . S
C469 C468 1.385 . S
C469 C470 1.389 . S
C470 C469 1.389 . S
C470 C471 1.387 . S
C471 H456 0.930 . S
C471 C466 1.390 . S
C471 C470 1.387 . S
H472 C484 0.930 . S
H473 C486 0.930 . S
H474 C487 0.930 . S
H475 C491 0.959 . S
H476 C491 0.959 . S
H477 C491 0.961 . S
H478 C492 0.960 . S
H479 C492 0.961 . S
H480 C492 0.959 . S
H481 C495 0.929 . S
H482 C496 0.931 . S
H483 C498 0.930 . S
C484 H472 0.930 . S
C484 C485 1.399 . S
C484 C489 1.399 . S
C485 C484 1.399 . S
C485 C486 1.376 . S
C486 H473 0.930 . S
C486 C485 1.376 . S
C486 C487 1.388 . S
C487 H474 0.930 . S
C487 C486 1.388 . S
C487 C488 1.390 . S
C488 C487 1.390 . S
C488 C489 1.394 . S
C488 C494 1.465 . S
C489 C484 1.399 . S
C489 C488 1.394 . S
C489 C490 1.516 . S
C490 C489 1.516 . S
C490 C491 1.502 . S
C490 C492 1.561 . S
C490 C493 1.526 . S
C491 H475 0.959 . S
C491 H476 0.959 . S
C491 H477 0.961 . S
C491 C490 1.502 . S
C492 H478 0.960 . S
C492 H479 0.961 . S
C492 H480 0.959 . S
C492 C490 1.561 . S
C493 C490 1.526 . S
C493 C494 1.396 . S
C493 C498 1.390 . S
C494 C488 1.465 . S
C494 C493 1.396 . S
C494 C495 1.399 . S
C495 H481 0.929 . S
C495 C494 1.399 . S
C495 C496 1.385 . S
C496 H482 0.931 . S
C496 C495 1.385 . S
C496 C497 1.389 . S
C497 C496 1.389 . S
C497 C498 1.387 . S
C498 H483 0.930 . S
C498 C493 1.390 . S
C498 C497 1.387 . S
H499 C511 0.930 . S
H500 C513 0.930 . S
H501 C514 0.930 . S
H502 C518 0.959 . S
H503 C518 0.959 . S
H504 C518 0.961 . S
H505 C519 0.960 . S
H506 C519 0.961 . S
H507 C519 0.959 . S
H508 C522 0.929 . S
H509 C523 0.931 . S
H510 C525 0.930 . S
C511 H499 0.930 . S
C511 C512 1.399 . S
C511 C516 1.399 . S
C512 C511 1.399 . S
C512 C513 1.376 . S
C513 H500 0.930 . S
C513 C512 1.376 . S
C513 C514 1.388 . S
C514 H501 0.930 . S
C514 C513 1.388 . S
C514 C515 1.390 . S
C515 C514 1.390 . S
C515 C516 1.394 . S
C515 C521 1.465 . S
C516 C511 1.399 . S
C516 C515 1.394 . S
C516 C517 1.516 . S
C517 C516 1.516 . S
C517 C518 1.502 . S
C517 C519 1.561 . S
C517 C520 1.526 . S
C518 H502 0.959 . S
C518 H503 0.959 . S
C518 H504 0.961 . S
C518 C517 1.502 . S
C519 H505 0.960 . S
C519 H506 0.961 . S
C519 H507 0.959 . S
C519 C517 1.561 . S
C520 C517 1.526 . S
C520 C521 1.396 . S
C520 C525 1.390 . S
C521 C515 1.465 . S
C521 C520 1.396 . S
C521 C522 1.399 . S
C522 H508 0.929 . S
C522 C521 1.399 . S
C522 C523 1.385 . S
C523 H509 0.931 . S
C523 C522 1.385 . S
C523 C524 1.389 . S
C524 C523 1.389 . S
C524 C525 1.387 . S
C525 H510 0.930 . S
C525 C520 1.390 . S
C525 C524 1.387 . S
H526 C538 0.930 . S
H527 C540 0.930 . S
H528 C541 0.930 . S
H529 C545 0.959 . S
H530 C545 0.959 . S
H531 C545 0.961 . S
H532 C546 0.960 . S
H533 C546 0.961 . S
H534 C546 0.959 . S
H535 C549 0.929 . S
H536 C550 0.931 . S
H537 C552 0.930 . S
C538 H526 0.930 . S
C538 C539 1.399 . S
C538 C543 1.399 . S
C539 C538 1.399 . S
C539 C540 1.376 . S
C540 H527 0.930 . S
C540 C539 1.376 . S
C540 C541 1.388 . S
C541 H528 0.930 . S
C541 C540 1.388 . S
C541 C542 1.390 . S
C542 C541 1.390 . S
C542 C543 1.394 . S
C542 C548 1.465 . S
C543 C538 1.399 . S
C543 C542 1.394 . S
C543 C544 1.516 . S
C544 C543 1.516 . S
C544 C545 1.502 . S
C544 C546 1.561 . S
C544 C547 1.526 . S
C545 H529 0.959 . S
C545 H530 0.959 . S
C545 H531 0.961 . S
C545 C544 1.502 . S
C546 H532 0.960 . S
C546 H533 0.961 . S
C546 H534 0.959 . S
C546 C544 1.561 . S
C547 C544 1.526 . S
C547 C548 1.396 . S
C547 C552 1.390 . S
C548 C542 1.465 . S
C548 C547 1.396 . S
C548 C549 1.399 . S
C549 H535 0.929 . S
C549 C548 1.399 . S
C549 C550 1.385 . S
C550 H536 0.931 . S
C550 C549 1.385 . S
C550 C551 1.389 . S
C551 C550 1.389 . S
C551 C552 1.387 . S
C552 H537 0.930 . S
C552 C547 1.390 . S
C552 C551 1.387 . S
H553 C565 0.930 . S
H554 C567 0.930 . S
H555 C568 0.930 . S
H556 C572 0.959 . S
H557 C572 0.959 . S
H558 C572 0.961 . S
H559 C573 0.960 . S
H560 C573 0.961 . S
H561 C573 0.959 . S
H562 C576 0.929 . S
H563 C577 0.931 . S
H564 C579 0.930 . S
C565 H553 0.930 . S
C565 C566 1.399 . S
C565 C570 1.399 . S
C566 C565 1.399 . S
C566 C567 1.376 . S
C567 H554 0.930 . S
C567 C566 1.376 . S
C567 C568 1.388 . S
C568 H555 0.930 . S
C568 C567 1.388 . S
C568 C569 1.390 . S
C569 C568 1.390 . S
C569 C570 1.394 . S
C569 C575 1.465 . S
C570 C565 1.399 . S
C570 C569 1.394 . S
C570 C571 1.516 . S
C571 C570 1.516 . S
C571 C572 1.502 . S
C571 C573 1.561 . S
C571 C574 1.526 . S
C572 H556 0.959 . S
C572 H557 0.959 . S
C572 H558 0.961 . S
C572 C571 1.502 . S
C573 H559 0.960 . S
C573 H560 0.961 . S
C573 H561 0.959 . S
C573 C571 1.561 . S
C574 C571 1.526 . S
C574 C575 1.396 . S
C574 C579 1.390 . S
C575 C569 1.465 . S
C575 C574 1.396 . S
C575 C576 1.399 . S
C576 H562 0.929 . S
C576 C575 1.399 . S
C576 C577 1.385 . S
C577 H563 0.931 . S
C577 C576 1.385 . S
C577 C578 1.389 . S
C578 C577 1.389 . S
C578 C579 1.387 . S
C579 H564 0.930 . S
C579 C574 1.390 . S
C579 C578 1.387 . S
H580 C592 0.930 . S
H581 C594 0.930 . S
H582 C595 0.930 . S
H583 C599 0.959 . S
H584 C599 0.959 . S
H585 C599 0.961 . S
H586 C600 0.960 . S
H587 C600 0.961 . S
H588 C600 0.959 . S
H589 C603 0.929 . S
H590 C604 0.931 . S
H591 C606 0.930 . S
C592 H580 0.930 . S
C592 C593 1.399 . S
C592 C597 1.399 . S
C593 C592 1.399 . S
C593 C594 1.376 . S
C594 H581 0.930 . S
C594 C593 1.376 . S
C594 C595 1.388 . S
C595 H582 0.930 . S
C595 C594 1.388 . S
C595 C596 1.390 . S
C596 C595 1.390 . S
C596 C597 1.394 . S
C596 C602 1.465 . S
C597 C592 1.399 . S
C597 C596 1.394 . S
C597 C598 1.516 . S
C598 C597 1.516 . S
C598 C599 1.502 . S
C598 C600 1.561 . S
C598 C601 1.526 . S
C599 H583 0.959 . S
C599 H584 0.959 . S
C599 H585 0.961 . S
C599 C598 1.502 . S
C600 H586 0.960 . S
C600 H587 0.961 . S
C600 H588 0.959 . S
C600 C598 1.561 . S
C601 C598 1.526 . S
C601 C602 1.396 . S
C601 C606 1.390 . S
C602 C596 1.465 . S
C602 C601 1.396 . S
C602 C603 1.399 . S
C603 H589 0.929 . S
C603 C602 1.399 . S
C603 C604 1.385 . S
C604 H590 0.931 . S
C604 C603 1.385 . S
C604 C605 1.389 . S
C605 C604 1.389 . S
C605 C606 1.387 . S
C606 H591 0.930 . S
C606 C601 1.390 . S
C606 C605 1.387 . S
H607 C619 0.930 . S
H608 C621 0.930 . S
H609 C622 0.930 . S
H610 C626 0.959 . S
H611 C626 0.959 . S
H612 C626 0.961 . S
H613 C627 0.960 . S
H614 C627 0.961 . S
H615 C627 0.959 . S
H616 C630 0.929 . S
H617 C631 0.931 . S
H618 C633 0.930 . S
C619 H607 0.930 . S
C619 C620 1.399 . S
C619 C624 1.399 . S
C620 C619 1.399 . S
C620 C621 1.376 . S
C621 H608 0.930 . S
C621 C620 1.376 . S
C621 C622 1.388 . S
C622 H609 0.930 . S
C622 C621 1.388 . S
C622 C623 1.390 . S
C623 C622 1.390 . S
C623 C624 1.394 . S
C623 C629 1.465 . S
C624 C619 1.399 . S
C624 C623 1.394 . S
C624 C625 1.516 . S
C625 C624 1.516 . S
C625 C626 1.502 . S
C625 C627 1.561 . S
C625 C628 1.526 . S
C626 H610 0.959 . S
C626 H611 0.959 . S
C626 H612 0.961 . S
C626 C625 1.502 . S
C627 H613 0.960 . S
C627 H614 0.961 . S
C627 H615 0.959 . S
C627 C625 1.561 . S
C628 C625 1.526 . S
C628 C629 1.396 . S
C628 C633 1.390 . S
C629 C623 1.465 . S
C629 C628 1.396 . S
C629 C630 1.399 . S
C630 H616 0.929 . S
C630 C629 1.399 . S
C630 C631 1.385 . S
C631 H617 0.931 . S
C631 C630 1.385 . S
C631 C632 1.389 . S
C632 C631 1.389 . S
C632 C633 1.387 . S
C633 H618 0.930 . S
C633 C628 1.390 . S
C633 C632 1.387 . S
H634 C646 0.930 . S
H635 C648 0.930 . S
H636 C649 0.930 . S
H637 C653 0.959 . S
H638 C653 0.959 . S
H639 C653 0.961 . S
H640 C654 0.960 . S
H641 C654 0.961 . S
H642 C654 0.959 . S
H643 C657 0.929 . S
H644 C658 0.931 . S
H645 C660 0.930 . S
C646 H634 0.930 . S
C646 C647 1.399 . S
C646 C651 1.399 . S
C647 C646 1.399 . S
C647 C648 1.376 . S
C648 H635 0.930 . S
C648 C647 1.376 . S
C648 C649 1.388 . S
C649 H636 0.930 . S
C649 C648 1.388 . S
C649 C650 1.390 . S
C650 C649 1.390 . S
C650 C651 1.394 . S
C650 C656 1.465 . S
C651 C646 1.399 . S
C651 C650 1.394 . S
C651 C652 1.516 . S
C652 C651 1.516 . S
C652 C653 1.502 . S
C652 C654 1.561 . S
C652 C655 1.526 . S
C653 H637 0.959 . S
C653 H638 0.959 . S
C653 H639 0.961 . S
C653 C652 1.502 . S
C654 H640 0.960 . S
C654 H641 0.961 . S
C654 H642 0.959 . S
C654 C652 1.561 . S
C655 C652 1.526 . S
C655 C656 1.396 . S
C655 C660 1.390 . S
C656 C650 1.465 . S
C656 C655 1.396 . S
C656 C657 1.399 . S
C657 H643 0.929 . S
C657 C656 1.399 . S
C657 C658 1.385 . S
C658 H644 0.931 . S
C658 C657 1.385 . S
C658 C659 1.389 . S
C659 C658 1.389 . S
C659 C660 1.387 . S
C660 H645 0.930 . S
C660 C655 1.390 . S
C660 C659 1.387 . S
H661 C673 0.930 . S
H662 C675 0.930 . S
H663 C676 0.930 . S
H664 C680 0.959 . S
H665 C680 0.959 . S
H666 C680 0.961 . S
H667 C681 0.960 . S
H668 C681 0.961 . S
H669 C681 0.959 . S
H670 C684 0.929 . S
H671 C685 0.931 . S
H672 C687 0.930 . S
C673 H661 0.930 . S
C673 C674 1.399 . S
C673 C678 1.399 . S
C674 C673 1.399 . S
C674 C675 1.376 . S
C675 H662 0.930 . S
C675 C674 1.376 . S
C675 C676 1.388 . S
C676 H663 0.930 . S
C676 C675 1.388 . S
C676 C677 1.390 . S
C677 C676 1.390 . S
C677 C678 1.394 . S
C677 C683 1.465 . S
C678 C673 1.399 . S
C678 C677 1.394 . S
C678 C679 1.516 . S
C679 C678 1.516 . S
C679 C680 1.502 . S
C679 C681 1.561 . S
C679 C682 1.526 . S
C680 H664 0.959 . S
C680 H665 0.959 . S
C680 H666 0.961 . S
C680 C679 1.502 . S
C681 H667 0.960 . S
C681 H668 0.961 . S
C681 H669 0.959 . S
C681 C679 1.561 . S
C682 C679 1.526 . S
C682 C683 1.396 . S
C682 C687 1.390 . S
C683 C677 1.465 . S
C683 C682 1.396 . S
C683 C684 1.399 . S
C684 H670 0.929 . S
C684 C683 1.399 . S
C684 C685 1.385 . S
C685 H671 0.931 . S
C685 C684 1.385 . S
C685 C686 1.389 . S
C686 C685 1.389 . S
C686 C687 1.387 . S
C687 H672 0.930 . S
C687 C682 1.390 . S
C687 C686 1.387 . S
H688 C700 0.930 . S
H689 C702 0.930 . S
H690 C703 0.930 . S
H691 C707 0.959 . S
H692 C707 0.959 . S
H693 C707 0.961 . S
H694 C708 0.960 . S
H695 C708 0.961 . S
H696 C708 0.959 . S
H697 C711 0.929 . S
H698 C712 0.931 . S
H699 C714 0.930 . S
C700 H688 0.930 . S
C700 C701 1.399 . S
C700 C705 1.399 . S
C701 C700 1.399 . S
C701 C702 1.376 . S
C702 H689 0.930 . S
C702 C701 1.376 . S
C702 C703 1.388 . S
C703 H690 0.930 . S
C703 C702 1.388 . S
C703 C704 1.390 . S
C704 C703 1.390 . S
C704 C705 1.394 . S
C704 C710 1.465 . S
C705 C700 1.399 . S
C705 C704 1.394 . S
C705 C706 1.516 . S
C706 C705 1.516 . S
C706 C707 1.502 . S
C706 C708 1.561 . S
C706 C709 1.526 . S
C707 H691 0.959 . S
C707 H692 0.959 . S
C707 H693 0.961 . S
C707 C706 1.502 . S
C708 H694 0.960 . S
C708 H695 0.961 . S
C708 H696 0.959 . S
C708 C706 1.561 . S
C709 C706 1.526 . S
C709 C710 1.396 . S
C709 C714 1.390 . S
C710 C704 1.465 . S
C710 C709 1.396 . S
C710 C711 1.399 . S
C711 H697 0.929 . S
C711 C710 1.399 . S
C711 C712 1.385 . S
C712 H698 0.931 . S
C712 C711 1.385 . S
C712 C713 1.389 . S
C713 C712 1.389 . S
C713 C714 1.387 . S
C714 H699 0.930 . S
C714 C709 1.390 . S
C714 C713 1.387 . S
H715 C727 0.930 . S
H716 C729 0.930 . S
H717 C730 0.930 . S
H718 C734 0.959 . S
H719 C734 0.959 . S
H720 C734 0.961 . S
H721 C735 0.960 . S
H722 C735 0.961 . S
H723 C735 0.959 . S
H724 C738 0.929 . S
H725 C739 0.931 . S
H726 C741 0.930 . S
C727 H715 0.930 . S
C727 C728 1.399 . S
C727 C732 1.399 . S
C728 C727 1.399 . S
C728 C729 1.376 . S
C729 H716 0.930 . S
C729 C728 1.376 . S
C729 C730 1.388 . S
C730 H717 0.930 . S
C730 C729 1.388 . S
C730 C731 1.390 . S
C731 C730 1.390 . S
C731 C732 1.394 . S
C731 C737 1.465 . S
C732 C727 1.399 . S
C732 C731 1.394 . S
C732 C733 1.516 . S
C733 C732 1.516 . S
C733 C734 1.502 . S
C733 C735 1.561 . S
C733 C736 1.526 . S
C734 H718 0.959 . S
C734 H719 0.959 . S
C734 H720 0.961 . S
C734 C733 1.502 . S
C735 H721 0.960 . S
C735 H722 0.961 . S
C735 H723 0.959 . S
C735 C733 1.561 . S
C736 C733 1.526 . S
C736 C737 1.396 . S
C736 C741 1.390 . S
C737 C731 1.465 . S
C737 C736 1.396 . S
C737 C738 1.399 . S
C738 H724 0.929 . S
C738 C737 1.399 . S
C738 C739 1.385 . S
C739 H725 0.931 . S
C739 C738 1.385 . S
C739 C740 1.389 . S
C740 C739 1.389 . S
C740 C741 1.387 . S
C741 H726 0.930 . S
C741 C736 1.390 . S
C741 C740 1.387 . S
H742 C754 0.930 . S
H743 C756 0.930 . S
H744 C757 0.930 . S
H745 C761 0.959 . S
H746 C761 0.959 . S
H747 C761 0.961 . S
H748 C762 0.960 . S
H749 C762 0.961 . S
H750 C762 0.959 . S
H751 C765 0.929 . S
H752 C766 0.931 . S
H753 C768 0.930 . S
C754 H742 0.930 . S
C754 C755 1.399 . S
C754 C759 1.399 . S
C755 C754 1.399 . S
C755 C756 1.376 . S
C756 H743 0.930 . S
C756 C755 1.376 . S
C756 C757 1.388 . S
C757 H744 0.930 . S
C757 C756 1.388 . S
C757 C758 1.390 . S
C758 C757 1.390 . S
C758 C759 1.394 . S
C758 C764 1.465 . S
C759 C754 1.399 . S
C759 C758 1.394 . S
C759 C760 1.516 . S
C760 C759 1.516 . S
C760 C761 1.502 . S
C760 C762 1.561 . S
C760 C763 1.526 . S
C761 H745 0.959 . S
C761 H746 0.959 . S
C761 H747 0.961 . S
C761 C760 1.502 . S
C762 H748 0.960 . S
C762 H749 0.961 . S
C762 H750 0.959 . S
C762 C760 1.561 . S
C763 C760 1.526 . S
C763 C764 1.396 . S
C763 C768 1.390 . S
C764 C758 1.465 . S
C764 C763 1.396 . S
C764 C765 1.399 . S
C765 H751 0.929 . S
C765 C764 1.399 . S
C765 C766 1.385 . S
C766 H752 0.931 . S
C766 C765 1.385 . S
C766 C767 1.389 . S
C767 C766 1.389 . S
C767 C768 1.387 . S
C768 H753 0.930 . S
C768 C763 1.390 . S
C768 C767 1.387 . S
H769 C781 0.930 . S
H770 C783 0.930 . S
H771 C784 0.930 . S
H772 C788 0.959 . S
H773 C788 0.959 . S
H774 C788 0.961 . S
H775 C789 0.960 . S
H776 C789 0.961 . S
H777 C789 0.959 . S
H778 C792 0.929 . S
H779 C793 0.931 . S
H780 C795 0.930 . S
C781 H769 0.930 . S
C781 C782 1.399 . S
C781 C786 1.399 . S
C782 C781 1.399 . S
C782 C783 1.376 . S
C783 H770 0.930 . S
C783 C782 1.376 . S
C783 C784 1.388 . S
C784 H771 0.930 . S
C784 C783 1.388 . S
C784 C785 1.390 . S
C785 C784 1.390 . S
C785 C786 1.394 . S
C785 C791 1.465 . S
C786 C781 1.399 . S
C786 C785 1.394 . S
C786 C787 1.516 . S
C787 C786 1.516 . S
C787 C788 1.502 . S
C787 C789 1.561 . S
C787 C790 1.526 . S
C788 H772 0.959 . S
C788 H773 0.959 . S
C788 H774 0.961 . S
C788 C787 1.502 . S
C789 H775 0.960 . S
C789 H776 0.961 . S
C789 H777 0.959 . S
C789 C787 1.561 . S
C790 C787 1.526 . S
C790 C791 1.396 . S
C790 C795 1.390 . S
C791 C785 1.465 . S
C791 C790 1.396 . S
C791 C792 1.399 . S
C792 H778 0.929 . S
C792 C791 1.399 . S
C792 C793 1.385 . S
C793 H779 0.931 . S
C793 C792 1.385 . S
C793 C794 1.389 . S
C794 C793 1.389 . S
C794 C795 1.387 . S
C795 H780 0.930 . S
C795 C790 1.390 . S
C795 C794 1.387 . S
H796 C808 0.930 . S
H797 C810 0.930 . S
H798 C811 0.930 . S
H799 C815 0.959 . S
H800 C815 0.959 . S
H801 C815 0.961 . S
H802 C816 0.960 . S
H803 C816 0.961 . S
H804 C816 0.959 . S
H805 C819 0.929 . S
H806 C820 0.931 . S
H807 C822 0.930 . S
C808 H796 0.930 . S
C808 C809 1.399 . S
C808 C813 1.399 . S
C809 C808 1.399 . S
C809 C810 1.376 . S
C810 H797 0.930 . S
C810 C809 1.376 . S
C810 C811 1.388 . S
C811 H798 0.930 . S
C811 C810 1.388 . S
C811 C812 1.390 . S
C812 C811 1.390 . S
C812 C813 1.394 . S
C812 C818 1.465 . S
C813 C808 1.399 . S
C813 C812 1.394 . S
C813 C814 1.516 . S
C814 C813 1.516 . S
C814 C815 1.502 . S
C814 C816 1.561 . S
C814 C817 1.526 . S
C815 H799 0.959 . S
C815 H800 0.959 . S
C815 H801 0.961 . S
C815 C814 1.502 . S
C816 H802 0.960 . S
C816 H803 0.961 . S
C816 H804 0.959 . S
C816 C814 1.561 . S
C817 C814 1.526 . S
C817 C818 1.396 . S
C817 C822 1.390 . S
C818 C812 1.465 . S
C818 C817 1.396 . S
C818 C819 1.399 . S
C819 H805 0.929 . S
C819 C818 1.399 . S
C819 C820 1.385 . S
C820 H806 0.931 . S
C820 C819 1.385 . S
C820 C821 1.389 . S
C821 C820 1.389 . S
C821 C822 1.387 . S
C822 H807 0.930 . S
C822 C817 1.390 . S
C822 C821 1.387 . S
H823 C835 0.930 . S
H824 C837 0.930 . S
H825 C838 0.930 . S
H826 C842 0.959 . S
H827 C842 0.959 . S
H828 C842 0.961 . S
H829 C843 0.960 . S
H830 C843 0.961 . S
H831 C843 0.959 . S
H832 C846 0.929 . S
H833 C847 0.931 . S
H834 C849 0.930 . S
C835 H823 0.930 . S
C835 C836 1.399 . S
C835 C840 1.399 . S
C836 C835 1.399 . S
C836 C837 1.376 . S
C837 H824 0.930 . S
C837 C836 1.376 . S
C837 C838 1.388 . S
C838 H825 0.930 . S
C838 C837 1.388 . S
C838 C839 1.390 . S
C839 C838 1.390 . S
C839 C840 1.394 . S
C839 C845 1.465 . S
C840 C835 1.399 . S
C840 C839 1.394 . S
C840 C841 1.516 . S
C841 C840 1.516 . S
C841 C842 1.502 . S
C841 C843 1.561 . S
C841 C844 1.526 . S
C842 H826 0.959 . S
C842 H827 0.959 . S
C842 H828 0.961 . S
C842 C841 1.502 . S
C843 H829 0.960 . S
C843 H830 0.961 . S
C843 H831 0.959 . S
C843 C841 1.561 . S
C844 C841 1.526 . S
C844 C845 1.396 . S
C844 C849 1.390 . S
C845 C839 1.465 . S
C845 C844 1.396 . S
C845 C846 1.399 . S
C846 H832 0.929 . S
C846 C845 1.399 . S
C846 C847 1.385 . S
C847 H833 0.931 . S
C847 C846 1.385 . S
C847 C848 1.389 . S
C848 C847 1.389 . S
C848 C849 1.387 . S
C849 H834 0.930 . S
C849 C844 1.390 . S
C849 C848 1.387 . S
H850 C862 0.930 . S
H851 C864 0.930 . S
H852 C865 0.930 . S
H853 C869 0.959 . S
H854 C869 0.959 . S
H855 C869 0.961 . S
H856 C870 0.960 . S
H857 C870 0.961 . S
H858 C870 0.959 . S
H859 C873 0.929 . S
H860 C874 0.931 . S
H861 C876 0.930 . S
C862 H850 0.930 . S
C862 C863 1.399 . S
C862 C867 1.399 . S
C863 C862 1.399 . S
C863 C864 1.376 . S
C864 H851 0.930 . S
C864 C863 1.376 . S
C864 C865 1.388 . S
C865 H852 0.930 . S
C865 C864 1.388 . S
C865 C866 1.390 . S
C866 C865 1.390 . S
C866 C867 1.394 . S
C866 C872 1.465 . S
C867 C862 1.399 . S
C867 C866 1.394 . S
C867 C868 1.516 . S
C868 C867 1.516 . S
C868 C869 1.502 . S
C868 C870 1.561 . S
C868 C871 1.526 . S
C869 H853 0.959 . S
C869 H854 0.959 . S
C869 H855 0.961 . S
C869 C868 1.502 . S
C870 H856 0.960 . S
C870 H857 0.961 . S
C870 H858 0.959 . S
C870 C868 1.561 . S
C871 C868 1.526 . S
C871 C872 1.396 . S
C871 C876 1.390 . S
C872 C866 1.465 . S
C872 C871 1.396 . S
C872 C873 1.399 . S
C873 H859 0.929 . S
C873 C872 1.399 . S
C873 C874 1.385 . S
C874 H860 0.931 . S
C874 C873 1.385 . S
C874 C875 1.389 . S
C875 C874 1.389 . S
C875 C876 1.387 . S
C876 H861 0.930 . S
C876 C871 1.390 . S
C876 C875 1.387 . S
H877 C889 0.930 . S
H878 C891 0.930 . S
H879 C892 0.930 . S
H880 C896 0.959 . S
H881 C896 0.959 . S
H882 C896 0.961 . S
H883 C897 0.960 . S
H884 C897 0.961 . S
H885 C897 0.959 . S
H886 C900 0.929 . S
H887 C901 0.931 . S
H888 C903 0.930 . S
C889 H877 0.930 . S
C889 C890 1.399 . S
C889 C894 1.399 . S
C890 C889 1.399 . S
C890 C891 1.376 . S
C891 H878 0.930 . S
C891 C890 1.376 . S
C891 C892 1.388 . S
C892 H879 0.930 . S
C892 C891 1.388 . S
C892 C893 1.390 . S
C893 C892 1.390 . S
C893 C894 1.394 . S
C893 C899 1.465 . S
C894 C889 1.399 . S
C894 C893 1.394 . S
C894 C895 1.516 . S
C895 C894 1.516 . S
C895 C896 1.502 . S
C895 C897 1.561 . S
C895 C898 1.526 . S
C896 H880 0.959 . S
C896 H881 0.959 . S
C896 H882 0.961 . S
C896 C895 1.502 . S
C897 H883 0.960 . S
C897 H884 0.961 . S
C897 H885 0.959 . S
C897 C895 1.561 . S
C898 C895 1.526 . S
C898 C899 1.396 . S
C898 C903 1.390 . S
C899 C893 1.465 . S
C899 C898 1.396 . S
C899 C900 1.399 . S
C900 H886 0.929 . S
C900 C899 1.399 . S
C900 C901 1.385 . S
C901 H887 0.931 . S
C901 C900 1.385 . S
C901 C902 1.389 . S
C902 C901 1.389 . S
C902 C903 1.387 . S
C903 H888 0.930 . S
C903 C898 1.390 . S
C903 C902 1.387 . S
C269 C6 1.095 . S
C281 C103 1.072 . S
C296 C18 1.246 . S
C308 C152 1.254 . S
C335 C178 2.572 . S
C323 C28 2.610 . S
C350 C40 1.782 . S
C362 C226 1.780 . S
C389 C138 2.342 . S
C377 C9 2.240 . S
C416 C106 0.907 . S
C404 C16 0.865 . S
C443 C227 1.876 . S
C431 C30 1.916 . S
C470 C195 1.311 . S
C458 C42 1.316 . S
C485 C4 1.473 . S
C497 C223 1.507 . S
C524 C155 2.490 . S
C512 C33 2.585 . S
C539 C45 2.074 . S
C551 C107 2.046 . S
C566 C21 0.973 . S
C578 C192 1.035 . S
C605 C112 1.072 . S
C593 C57 1.103 . S
C620 C66 1.299 . S
C632 C143 1.222 . S
C647 C76 2.664 . S
C659 C187 2.626 . S
C674 C88 1.711 . S
C686 C235 1.688 . S
C701 C54 2.189 . S
C713 C147 2.319 . S
C740 C115 0.910 . S
C728 C64 0.995 . S
C767 C218 1.795 . S
C755 C78 1.836 . S
C794 C186 1.359 . S
C782 C93 1.356 . S
C809 C52 1.397 . S
C821 C232 1.513 . S
C848 C146 2.497 . S
C836 C81 2.560 . S
C875 C98 2.028 . S
C863 C90 2.048 . S
C890 C69 1.082 . S
C902 C183 1.026 . S
