# Generated by pormake.
# Topology rtl, (3,6)-cn, num edge types: 1
# Building blocks:
#     Node 0, Type 0, BuildingBlock: INOVEN_clean_linker_0, # of connection points: 3
#     Node 1, Type 0, BuildingBlock: INOVEN_clean_linker_0, # of connection points: 3
#     Node 2, Type 0, BuildingBlock: INOVEN_clean_linker_0, # of connection points: 3
#     Node 3, Type 0, BuildingBlock: INOVEN_clean_linker_0, # of connection points: 3
#     Node 4, Type 1, BuildingBlock: VOLQOD_clean_sbu_1, # of connection points: 6
#     Node 5, Type 1, BuildingBlock: VOLQOD_clean_sbu_1, # of connection points: 6
#     Edge 6, Type (0, 1), BuildingBlock: KIFKEQ_clean_linker_1, # of connection points: 2
#     Edge 7, Type (0, 1), BuildingBlock: KIFKEQ_clean_linker_1, # of connection points: 2
#     Edge 8, Type (0, 1), BuildingBlock: KIFKEQ_clean_linker_1, # of connection points: 2
#     Edge 9, Type (0, 1), BuildingBlock: KIFKEQ_clean_linker_1, # of connection points: 2
#     Edge 10, Type (0, 1), BuildingBlock: KIFKEQ_clean_linker_1, # of connection points: 2
#     Edge 11, Type (0, 1), BuildingBlock: KIFKEQ_clean_linker_1, # of connection points: 2
#     Edge 12, Type (0, 1), BuildingBlock: KIFKEQ_clean_linker_1, # of connection points: 2
#     Edge 13, Type (0, 1), BuildingBlock: KIFKEQ_clean_linker_1, # of connection points: 2
#     Edge 14, Type (0, 1), BuildingBlock: KIFKEQ_clean_linker_1, # of connection points: 2
#     Edge 15, Type (0, 1), BuildingBlock: KIFKEQ_clean_linker_1, # of connection points: 2
#     Edge 16, Type (0, 1), BuildingBlock: KIFKEQ_clean_linker_1, # of connection points: 2
#     Edge 17, Type (0, 1), BuildingBlock: KIFKEQ_clean_linker_1, # of connection points: 2
# Relax obj value: 0.042
# Max RMSD: 0.144
# Mean RMSD: 0.093
data_MOF--net-rtl--node1-VOLQOD_clean_sbu_1--node2-INOVEN_clean_linker_0--edge1-KIFKEQ_clean_linker_1
_symmetry_space_group_name_H-M    P1
_symmetry_Int_Tables_number       1
_symmetry_cell_setting            triclinic
loop_
_symmetry_equiv_pos_as_xyz
'x, y, z'
_cell_length_a     38.837738
_cell_length_b     37.77197
_cell_length_c     22.652009
_cell_angle_alpha  91.297179
_cell_angle_beta   91.770374
_cell_angle_gamma 90.062632
loop_
_atom_site_label
_atom_site_type_symbol
_atom_site_fract_x
_atom_site_fract_y
_atom_site_fract_z
_atom_type_partial_charge
H0 H 0.1761 0.77603 0.90135 0.0
H1 H 0.10638 0.84159 -0.00034 0.0
H2 H 0.18201 0.77927 0.09154 0.0
N3 N 0.21019 0.75071 -0.007 0.0
N4 N 0.22226 0.73591 0.03775 0.0
C5 C 0.1666 0.78608 0.94296 0.0
C6 C 0.1388 0.80987 0.9436 0.0
C7 C 0.18216 0.77469 -0.0041 0.0
C8 C 0.17001 0.78754 0.0503 0.0
C9 C 0.14224 0.81119 0.05143 0.0
C10 C 0.12692 0.8222 -0.00178 0.0
H11 H 0.67185 0.74724 0.63033 0.0
H12 H 0.61282 0.66551 0.53861 0.0
H13 H 0.68501 0.72706 0.44447 0.0
N14 N 0.70652 0.76776 0.53843 0.0
N15 N 0.72344 0.77401 0.49389 0.0
C16 C 0.66499 0.73246 0.5901 0.0
C17 C 0.64014 0.70541 0.59081 0.0
C18 C 0.68114 0.74059 0.53749 0.0
C19 C 0.67238 0.7213 0.48512 0.0
C20 C 0.64782 0.69404 0.48535 0.0
C21 C 0.6318 0.68654 0.53824 0.0
H22 H 0.81743 0.2385 0.90025 0.0
H23 H 0.89032 0.17552 -0.00164 0.0
H24 H 0.81439 0.23628 0.09014 0.0
N25 N 0.78523 0.26507 -0.00855 0.0
N26 N 0.76802 0.27334 0.03524 0.0
C27 C 0.82779 0.2292 0.94209 0.0
C28 C 0.85579 0.2058 0.94314 0.0
C29 C 0.81292 0.24064 -0.00524 0.0
C30 C 0.82588 0.22795 0.04913 0.0
C31 C 0.85421 0.20487 0.05055 0.0
C32 C 0.86915 0.19423 -0.00251 0.0
H33 H 0.31255 0.27853 0.40406 0.0
H34 H 0.37643 0.35227 0.50507 0.0
H35 H 0.30802 0.28344 0.59408 0.0
N36 N 0.28175 0.25076 0.49409 0.0
N37 N 0.26522 0.2416 0.53757 0.0
C38 C 0.32134 0.2898 0.44632 0.0
C39 C 0.34649 0.3165 0.44854 0.0
C40 C 0.30738 0.27757 0.49846 0.0
C41 C 0.3187 0.29241 0.55339 0.0
C42 C 0.3435 0.31945 0.55556 0.0
C43 C 0.3574 0.33118 0.50323 0.0
O44 O 0.91438 0.98066 0.4946 0.0
Zn45 Zn 0.94776 0.02201 0.49547 0.0
O46 O -0.00424 0.00566 0.49689 0.0
Zn47 Zn 0.019 0.02215 0.57022 0.0
Zn48 Zn -0.00325 0.954 0.49308 0.0
Zn49 Zn 0.01976 0.02403 0.4292 0.0
O50 O 0.0601 0.05253 0.55372 0.0
O51 O 0.0589 0.05627 0.45601 0.0
O52 O 0.9383 0.05317 0.56652 0.0
O53 O 0.9874 0.05191 0.61923 0.0
O54 O 0.03524 0.98143 0.61945 0.0
O55 O 0.02165 0.93397 0.56392 0.0
O56 O 0.0213 0.93594 0.42216 0.0
O57 O 0.93762 0.05137 0.4238 0.0
O58 O 0.03981 0.9844 0.37942 0.0
O59 O 0.98726 0.05232 0.37761 0.0
C60 C 0.91883 0.94724 0.49152 0.0
C61 C 0.0723 0.06445 0.50653 0.0
C62 C 0.03506 0.94802 0.61076 0.0
C63 C 0.95644 0.06239 0.61208 0.0
C64 C 0.03776 0.95078 0.38179 0.0
C65 C 0.95572 0.06121 0.38115 0.0
O66 O 0.94889 0.93389 0.48975 0.0
O67 O 0.57755 0.47846 0.01527 0.0
Zn68 Zn 0.54625 0.52117 0.01923 0.0
O69 O 0.49755 0.50733 0.01881 0.0
Zn70 Zn 0.4735 0.52748 0.9504 0.0
Zn71 Zn 0.49424 0.45569 0.01481 0.0
Zn72 Zn 0.47603 0.52481 0.09076 0.0
O73 O 0.43315 0.5573 0.97473 0.0
O74 O 0.43779 0.55931 0.07261 0.0
O75 O 0.55618 0.55294 0.9516 0.0
O76 O 0.50496 0.55961 0.90684 0.0
O77 O 0.45548 0.48893 0.89451 0.0
O78 O 0.46834 0.43926 0.94097 0.0
O79 O 0.46908 0.43679 0.08345 0.0
O80 O 0.55908 0.54865 0.09391 0.0
O81 O 0.45499 0.48494 0.13517 0.0
O82 O 0.51099 0.54942 0.14465 0.0
C83 C 0.57171 0.44526 0.01549 0.0
C84 C 0.42289 0.56858 0.02456 0.0
C85 C 0.45475 0.45527 0.89724 0.0
C86 C 0.537 0.56674 0.91178 0.0
C87 C 0.45459 0.45146 0.12723 0.0
C88 C 0.54264 0.5574 0.13977 0.0
O89 O 0.54111 0.43315 0.01597 0.0
H90 H 0.22178 0.22538 0.62056 0.0
H91 H 0.25077 0.1974 0.44336 0.0
H92 H 0.17533 0.18154 0.61355 0.0
H93 H 0.20549 0.15266 0.43667 0.0
H94 H 0.09731 0.1056 0.41974 0.0
H95 H 0.14476 0.14768 0.42757 0.0
H96 H 0.16311 0.11999 0.60999 0.0
H97 H 0.11478 0.07886 0.60271 0.0
C98 C 0.21827 0.2095 0.58041 0.0
C99 C 0.23949 0.21488 0.53264 0.0
C100 C 0.19192 0.18425 0.57637 0.0
C101 C 0.18653 0.16353 0.52443 0.0
C102 C 0.2084 0.16855 0.4769 0.0
C103 C 0.23451 0.19405 0.48082 0.0
C104 C 0.11153 0.10839 0.46148 0.0
C105 C 0.10215 0.08893 0.51065 0.0
C106 C 0.13892 0.13241 0.46591 0.0
C107 C 0.15785 0.13732 0.51945 0.0
C108 C 0.14877 0.1174 0.56835 0.0
C109 C 0.12115 0.09363 0.56409 0.0
H110 H 0.24486 0.69498 0.12391 0.0
H111 H 0.26386 0.72397 0.94482 0.0
H112 H 0.29303 0.65332 0.12138 0.0
H113 H 0.31279 0.68373 0.94257 0.0
H114 H 0.37636 0.58319 0.93545 0.0
H115 H 0.32729 0.62307 0.93876 0.0
H116 H 0.3538 0.6503 0.12096 0.0
H117 H 0.40205 0.60928 0.11825 0.0
C118 C 0.2596 0.69245 0.08422 0.0
C119 C 0.25062 0.71233 0.03473 0.0
C120 C 0.2873 0.66887 0.08274 0.0
C121 C 0.30689 0.66506 0.03171 0.0
C122 C 0.29795 0.68539 0.98222 0.0
C123 C 0.27002 0.70865 0.98356 0.0
C124 C 0.37169 0.59766 0.97625 0.0
C125 C 0.39313 0.59302 0.02659 0.0
C126 C 0.34364 0.62074 0.97806 0.0
C127 C 0.33654 0.64009 0.03008 0.0
C128 C 0.35807 0.63545 0.08041 0.0
C129 C 0.38591 0.61206 0.07877 0.0
H130 H 0.76536 0.78486 0.40678 0.0
H131 H 0.7394 0.8234 0.58041 0.0
H132 H 0.81192 0.82858 0.40418 0.0
H133 H 0.78586 0.86728 0.57801 0.0
H134 H 0.85226 0.96273 0.52011 0.0
H135 H 0.80317 0.92196 0.52037 0.0
H136 H 0.8684 0.83665 0.46109 0.0
H137 H 0.9173 0.87702 0.4609 0.0
C138 C 0.76967 0.80288 0.44417 0.0
C139 C 0.74918 0.80068 0.49366 0.0
C140 C 0.79625 0.82773 0.44287 0.0
C141 C 0.80257 0.85119 0.49102 0.0
C142 C 0.7814 0.84964 0.54016 0.0
C143 C 0.75499 0.82445 0.54168 0.0
C144 C 0.85606 0.9353 0.50692 0.0
C145 C 0.88869 0.92313 0.49048 0.0
C146 C 0.82803 0.91198 0.50742 0.0
C147 C 0.832 0.8762 0.49064 0.0
C148 C 0.86451 0.86417 0.47367 0.0
C149 C 0.89256 0.88729 0.47389 0.0
H150 H 0.75297 0.31765 0.94484 0.0
H151 H 0.72195 0.28577 0.11698 0.0
H152 H 0.70544 0.36 0.94031 0.0
H153 H 0.674 0.32804 0.1124 0.0
H154 H 0.57051 0.37539 0.04379 0.0
H155 H 0.61879 0.33419 0.04864 0.0
H156 H 0.68742 0.41679 -0.00437 0.0
H157 H 0.63916 0.4583 -0.00894 0.0
C158 C 0.7359 0.31968 0.98166 0.0
C159 C 0.7408 0.29833 0.03135 0.0
C160 C 0.70886 0.34404 0.97919 0.0
C161 C 0.68603 0.3472 0.02592 0.0
C162 C 0.69105 0.32589 0.07553 0.0
C163 C 0.7184 0.30188 0.07832 0.0
C164 C 0.59586 0.38481 0.03298 0.0
C165 C 0.60098 0.42015 0.01699 0.0
C166 C 0.62351 0.36125 0.03617 0.0
C167 C 0.6568 0.37235 0.02267 0.0
C168 C 0.66195 0.40752 0.00597 0.0
C169 C 0.63435 0.43128 0.00359 0.0
H170 H 0.0768 0.80894 0.08937 0.0
H171 H 0.17856 0.84762 0.13803 0.0
H172 H 0.05331 0.84086 0.17404 0.0
H173 H 0.15504 0.87991 0.22298 0.0
H174 H 0.02868 0.87994 0.36009 0.0
H175 H 0.05645 0.84277 0.28619 0.0
H176 H 0.11381 0.93312 0.22923 0.0
H177 H 0.086 0.97056 0.30313 0.0
C178 C 0.09416 0.82382 0.11897 0.0
C179 C 0.12941 0.82589 0.10754 0.0
C180 C 0.08079 0.84199 0.16737 0.0
C181 C 0.10236 0.86298 0.20477 0.0
C182 C 0.13786 0.86411 0.19448 0.0
C183 C 0.15134 0.84544 0.14641 0.0
C184 C 0.0473 0.89193 0.33201 0.0
C185 C 0.05499 0.92829 0.33727 0.0
C186 C 0.06314 0.87061 0.2897 0.0
C187 C 0.08731 0.88507 0.25221 0.0
C188 C 0.09554 0.92124 0.25809 0.0
C189 C 0.07938 0.9427 0.29999 0.0
H190 H 0.57247 0.68984 0.60589 0.0
H191 H 0.67057 0.69683 0.70048 0.0
H192 H 0.54783 0.66025 0.68832 0.0
H193 H 0.64522 0.66935 0.78551 0.0
H194 H 0.60417 0.57211 0.88087 0.0
H195 H 0.62844 0.61205 0.81024 0.0
H196 H 0.52842 0.66048 0.78366 0.0
H197 H 0.50396 0.61908 0.85167 0.0
C198 C 0.5886 0.6857 0.645 0.0
C199 C 0.62367 0.69496 0.64613 0.0
C200 C 0.57433 0.66906 0.69281 0.0
C201 C 0.59459 0.66182 0.74363 0.0
C202 C 0.62904 0.67365 0.74657 0.0
C203 C 0.64347 0.68995 0.6982 0.0
C204 C 0.58745 0.59137 0.85993 0.0
C205 C 0.55209 0.59211 0.87107 0.0
C206 C 0.60141 0.6146 0.81985 0.0
C207 C 0.58044 0.63958 0.79078 0.0
C208 C 0.54528 0.64114 0.80397 0.0
C209 C 0.53121 0.61744 0.84311 0.0
H210 H 0.92035 0.20613 0.09308 0.0
H211 H 0.81862 0.16942 0.13264 0.0
H212 H 0.94446 0.17426 0.17709 0.0
H213 H 0.84268 0.13617 0.21549 0.0
H214 H 0.89483 0.09759 0.38513 0.0
H215 H 0.87001 0.13659 0.31088 0.0
H216 H 0.95588 0.11457 0.1988 0.0
H217 H 0.98123 0.07682 0.27379 0.0
C218 C 0.90317 0.19141 0.12029 0.0
C219 C 0.86771 0.19007 0.10652 0.0
C220 C 0.91695 0.17285 0.16803 0.0
C221 C 0.89565 0.15204 0.20253 0.0
C222 C 0.85987 0.15209 0.19025 0.0
C223 C 0.84602 0.1711 0.14284 0.0
C224 C 0.9084 0.10111 0.3446 0.0
C225 C 0.94005 0.08412 0.33543 0.0
C226 C 0.8941 0.12341 0.30193 0.0
C227 C 0.91098 0.12899 0.24887 0.0
C228 C 0.94249 0.11165 0.23964 0.0
C229 C 0.95694 0.08969 0.28249 0.0
H230 H 0.3851 0.29239 0.64196 0.0
H231 H 0.32802 0.38563 0.59345 0.0
H232 H 0.41118 0.32468 0.72696 0.0
H233 H 0.35254 0.41772 0.6796 0.0
H234 H 0.43522 0.47721 0.78715 0.0
H235 H 0.40608 0.44298 0.70836 0.0
H236 H 0.40368 0.35211 0.82089 0.0
H237 H 0.43417 0.38604 0.89893 0.0
C238 C 0.37752 0.31956 0.6507 0.0
C239 C 0.35466 0.3367 0.61182 0.0
C240 C 0.39235 0.3381 0.69927 0.0
C241 C 0.38429 0.37401 0.70988 0.0
C242 C 0.36001 0.39042 0.6721 0.0
C243 C 0.34561 0.37202 0.62324 0.0
C244 C 0.42849 0.44993 0.79508 0.0
C245 C 0.43708 0.43436 0.84926 0.0
C246 C 0.41149 0.43032 0.75004 0.0
C247 C 0.40221 0.39477 0.7583 0.0
C248 C 0.41077 0.37924 0.81264 0.0
C249 C 0.42816 0.39875 0.85749 0.0
H250 H 0.63726 0.62267 0.47462 0.0
H251 H 0.63698 0.71811 0.3728 0.0
H252 H 0.61385 0.58949 0.38902 0.0
H253 H 0.61461 0.6843 0.28631 0.0
H254 H 0.60185 0.59649 0.13518 0.0
H255 H 0.63116 0.62953 0.21648 0.0
H256 H 0.55355 0.59565 0.33539 0.0
H257 H 0.524 0.56312 0.25451 0.0
C258 C 0.63239 0.63655 0.43389 0.0
C259 C 0.63834 0.6732 0.43085 0.0
C260 C 0.61914 0.61749 0.38492 0.0
C261 C 0.61211 0.6345 0.33153 0.0
C262 C 0.61993 0.67064 0.32713 0.0
C263 C 0.63281 0.6899 0.37651 0.0
C264 C 0.59111 0.59608 0.17872 0.0
C265 C 0.56064 0.5772 0.18854 0.0
C266 C 0.60779 0.61508 0.225 0.0
C267 C 0.59464 0.6149 0.28199 0.0
C268 C 0.56434 0.59589 0.29185 0.0
C269 C 0.54736 0.57746 0.24552 0.0
H270 H 0.9229 0.20455 0.91215 0.0
H271 H 0.82076 0.17362 0.85086 0.0
H272 H 0.94737 0.17346 0.82777 0.0
H273 H 0.84505 0.14117 0.76764 0.0
H274 H 0.89802 0.10266 0.60243 0.0
H275 H 0.87408 0.14219 0.67717 0.0
H276 H 0.95659 0.11389 0.79964 0.0
H277 H 0.98114 0.07568 0.72439 0.0
C278 C 0.90573 0.19126 0.88018 0.0
C279 C 0.87003 0.19132 0.88788 0.0
C280 C 0.91969 0.17318 0.83216 0.0
C281 C 0.89826 0.15425 0.79132 0.0
C282 C 0.86235 0.15569 0.79779 0.0
C283 C 0.84837 0.17423 0.84546 0.0
C284 C 0.91105 0.10498 0.64532 0.0
C285 C 0.94149 0.08603 0.65747 0.0
C286 C 0.89727 0.12757 0.68825 0.0
C287 C 0.91344 0.13143 0.74447 0.0
C288 C 0.94383 0.1123 0.75648 0.0
C289 C 0.95778 0.09008 0.71343 0.0
H290 H 0.41365 0.31827 0.41929 0.0
H291 H 0.31156 0.34699 0.35709 0.0
H292 H 0.43841 0.3483 0.33576 0.0
H293 H 0.33636 0.37769 0.27389 0.0
H294 H 0.40475 0.47126 0.20365 0.0
H295 H 0.3766 0.43444 0.27535 0.0
H296 H 0.43686 0.34456 0.21922 0.0
H297 H 0.46473 0.38112 0.14673 0.0
C298 C 0.39658 0.33058 0.38708 0.0
C299 C 0.36081 0.33038 0.39416 0.0
C300 C 0.41067 0.34764 0.33942 0.0
C301 C 0.38923 0.36534 0.29875 0.0
C302 C 0.35335 0.3643 0.30492 0.0
C303 C 0.33921 0.34662 0.35204 0.0
C304 C 0.41188 0.44362 0.2064 0.0
C305 C 0.43703 0.4291 0.16975 0.0
C306 C 0.39558 0.42253 0.24703 0.0
C307 C 0.40456 0.38673 0.25247 0.0
C308 C 0.42956 0.37213 0.21575 0.0
C309 C 0.44541 0.39304 0.17433 0.0
H310 H 0.07057 0.82302 0.91959 0.0
H311 H 0.17076 0.82774 0.84176 0.0
H312 H 0.04567 0.85462 0.83587 0.0
H313 H 0.14504 0.85774 0.75644 0.0
H314 H 0.06223 0.8818 0.59566 0.0
H315 H 0.0877 0.84395 0.67211 0.0
H316 H 0.06706 0.92423 0.80471 0.0
H317 H 0.04254 0.96251 0.72866 0.0
C318 C 0.08724 0.83043 0.88444 0.0
C319 C 0.12284 0.82346 0.88806 0.0
C320 C 0.07288 0.84826 0.83647 0.0
C321 C 0.0936 0.85868 0.79042 0.0
C322 C 0.12866 0.84976 0.79166 0.0
C323 C 0.14325 0.83245 0.84032 0.0
C324 C 0.0632 0.89134 0.64115 0.0
C325 C 0.05043 0.92507 0.65633 0.0
C326 C 0.07783 0.86978 0.68458 0.0
C327 C 0.07907 0.88133 0.74385 0.0
C328 C 0.06616 0.91486 0.75912 0.0
C329 C 0.0523 0.93672 0.71566 0.0
loop_
_geom_bond_atom_site_label_1
_geom_bond_atom_site_label_2
_geom_bond_distance
_geom_bond_site_symmetry_2
_ccdc_geom_bond_type
H0 C5 0.929 . S
H1 C10 0.931 . S
H2 C8 0.930 . S
N3 N4 1.234 1_556 S
N3 C7 1.453 1_556 S
N4 N3 1.234 1_554 S
C5 H0 0.929 . S
C5 C6 1.373 . S
C5 C7 1.368 1_556 S
C6 C5 1.373 . S
C6 C10 1.397 1_556 S
C7 N3 1.453 1_554 S
C7 C5 1.368 1_554 S
C7 C8 1.373 . S
C8 H2 0.930 . S
C8 C7 1.373 . S
C8 C9 1.371 . S
C9 C8 1.371 . S
C9 C10 1.383 . S
C10 H1 0.931 . S
C10 C6 1.397 1_554 S
C10 C9 1.383 . S
H11 C16 0.929 . S
H12 C21 0.931 . S
H13 C19 0.930 . S
N14 N15 1.234 . S
N14 C18 1.453 . S
N15 N14 1.234 . S
C16 H11 0.929 . S
C16 C17 1.373 . S
C16 C18 1.368 . S
C17 C16 1.373 . S
C17 C21 1.397 . S
C18 N14 1.453 . S
C18 C16 1.368 . S
C18 C19 1.373 . S
C19 H13 0.930 . S
C19 C18 1.373 . S
C19 C20 1.371 . S
C20 C19 1.371 . S
C20 C21 1.383 . S
C21 H12 0.931 . S
C21 C17 1.397 . S
C21 C20 1.383 . S
H22 C27 0.929 . S
H23 C32 0.931 . S
H24 C30 0.930 . S
N25 N26 1.234 1_556 S
N25 C29 1.453 1_556 S
N26 N25 1.234 1_554 S
C27 H22 0.929 . S
C27 C28 1.373 . S
C27 C29 1.368 1_556 S
C28 C27 1.373 . S
C28 C32 1.397 1_556 S
C29 N25 1.453 1_554 S
C29 C27 1.368 1_554 S
C29 C30 1.373 . S
C30 H24 0.930 . S
C30 C29 1.373 . S
C30 C31 1.371 . S
C31 C30 1.371 . S
C31 C32 1.383 . S
C32 H23 0.931 . S
C32 C28 1.397 1_554 S
C32 C31 1.383 . S
H33 C38 0.929 . S
H34 C43 0.931 . S
H35 C41 0.930 . S
N36 N37 1.234 . S
N36 C40 1.453 . S
N37 N36 1.234 . S
C38 H33 0.929 . S
C38 C39 1.373 . S
C38 C40 1.368 . S
C39 C38 1.373 . S
C39 C43 1.397 . S
C40 N36 1.453 . S
C40 C38 1.368 . S
C40 C41 1.373 . S
C41 H35 0.930 . S
C41 C40 1.373 . S
C41 C42 1.371 . S
C42 C41 1.371 . S
C42 C43 1.383 . S
C43 H34 0.931 . S
C43 C39 1.397 . S
C43 C42 1.383 . S
O44 Zn45 1.953 1_565 S
O44 C60 1.225 . S
Zn45 O44 1.953 1_545 S
Zn45 O46 1.949 1_655 S
Zn45 O52 1.919 . S
Zn45 O57 1.924 . S
O46 Zn45 1.949 1_455 S
O46 Zn47 1.923 . S
O46 Zn48 1.950 1_545 S
O46 Zn49 1.945 . S
Zn47 O46 1.923 . S
Zn47 O50 1.933 . S
Zn47 O53 1.949 . S
Zn47 O54 1.965 1_545 S
Zn48 O46 1.950 1_565 S
Zn48 O55 1.938 . S
Zn48 O56 1.906 . S
Zn48 O66 1.953 1_455 S
Zn49 O46 1.945 . S
Zn49 O51 1.932 . S
Zn49 O58 1.977 1_545 S
Zn49 O59 1.910 1_455 S
O50 Zn47 1.933 . S
O50 C61 1.226 . S
O51 Zn49 1.932 . S
O51 C61 1.307 . S
O52 Zn45 1.919 . S
O52 C63 1.253 . S
O53 Zn47 1.949 . S
O53 C63 1.272 1_455 S
O54 Zn47 1.965 1_565 S
O54 C62 1.303 . S
O55 Zn48 1.938 . S
O55 C62 1.247 . S
O56 Zn48 1.906 . S
O56 C64 1.304 . S
O57 Zn45 1.924 . S
O57 C65 1.311 . S
O58 Zn49 1.977 1_565 S
O58 C64 1.272 . S
O59 Zn49 1.910 1_655 S
O59 C65 1.231 . S
C60 O44 1.225 . S
C60 O66 1.298 . S
C61 O50 1.226 . S
C61 O51 1.307 . S
C62 O54 1.303 . S
C62 O55 1.247 . S
C63 O52 1.253 . S
C63 O53 1.272 1_655 S
C64 O56 1.304 . S
C64 O58 1.272 . S
C65 O57 1.311 . S
C65 O59 1.231 . S
O66 Zn48 1.953 1_655 S
O66 C60 1.298 . S
O67 Zn68 1.953 . S
O67 C83 1.225 . S
Zn68 O67 1.953 . S
Zn68 O69 1.949 . S
Zn68 O75 1.919 1_554 S
Zn68 O80 1.924 . S
O69 Zn68 1.949 . S
O69 Zn70 1.923 1_554 S
O69 Zn71 1.950 . S
O69 Zn72 1.945 . S
Zn70 O69 1.923 1_556 S
Zn70 O73 1.933 . S
Zn70 O76 1.941 . S
Zn70 O77 1.965 . S
Zn71 O69 1.950 . S
Zn71 O78 1.938 1_554 S
Zn71 O79 1.906 . S
Zn71 O89 1.953 . S
Zn72 O69 1.945 . S
Zn72 O74 1.932 . S
Zn72 O81 1.977 . S
Zn72 O82 1.910 . S
O73 Zn70 1.933 . S
O73 C84 1.226 1_556 S
O74 Zn72 1.932 . S
O74 C84 1.307 . S
O75 Zn68 1.919 1_556 S
O75 C86 1.253 . S
O76 Zn70 1.941 . S
O76 C86 1.283 . S
O77 Zn70 1.965 . S
O77 C85 1.303 . S
O78 Zn71 1.938 1_556 S
O78 C85 1.247 . S
O79 Zn71 1.906 . S
O79 C87 1.304 . S
O80 Zn68 1.924 . S
O80 C88 1.311 . S
O81 Zn72 1.977 . S
O81 C87 1.272 . S
O82 Zn72 1.910 . S
O82 C88 1.231 . S
C83 O67 1.225 . S
C83 O89 1.298 . S
C84 O73 1.226 1_554 S
C84 O74 1.307 . S
C85 O77 1.303 . S
C85 O78 1.247 . S
C86 O75 1.253 . S
C86 O76 1.283 . S
C87 O79 1.304 . S
C87 O81 1.272 . S
C88 O80 1.311 . S
C88 O82 1.231 . S
O89 Zn71 1.953 . S
O89 C83 1.298 . S
H90 C98 0.950 . S
H91 C103 0.950 . S
H92 C100 0.950 . S
H93 C102 0.950 . S
H94 C104 0.950 . S
H95 C106 0.950 . S
H96 C108 0.950 . S
H97 C109 0.950 . S
C98 H90 0.950 . S
C98 C99 1.386 . S
C98 C100 1.391 . S
C99 C98 1.386 . S
C99 C103 1.393 . S
C100 H92 0.950 . S
C100 C98 1.391 . S
C100 C101 1.400 . S
C101 C100 1.400 . S
C101 C102 1.398 . S
C101 C107 1.491 . S
C102 H93 0.950 . S
C102 C101 1.398 . S
C102 C103 1.391 . S
C103 H91 0.950 . S
C103 C99 1.393 . S
C103 C102 1.391 . S
C104 H94 0.950 . S
C104 C105 1.386 . S
C104 C106 1.391 . S
C105 C104 1.386 . S
C105 C109 1.393 . S
C106 H95 0.950 . S
C106 C104 1.391 . S
C106 C107 1.400 . S
C107 C101 1.491 . S
C107 C106 1.400 . S
C107 C108 1.398 . S
C108 H96 0.950 . S
C108 C107 1.398 . S
C108 C109 1.391 . S
C109 H97 0.950 . S
C109 C105 1.393 . S
C109 C108 1.391 . S
H110 C118 0.950 . S
H111 C123 0.950 . S
H112 C120 0.950 . S
H113 C122 0.950 . S
H114 C124 0.950 . S
H115 C126 0.950 . S
H116 C128 0.950 . S
H117 C129 0.950 . S
C118 H110 0.950 . S
C118 C119 1.386 . S
C118 C120 1.391 . S
C119 C118 1.386 . S
C119 C123 1.393 1_554 S
C120 H112 0.950 . S
C120 C118 1.391 . S
C120 C121 1.400 . S
C121 C120 1.400 . S
C121 C122 1.398 1_554 S
C121 C127 1.491 . S
C122 H113 0.950 . S
C122 C121 1.398 1_556 S
C122 C123 1.391 . S
C123 H111 0.950 . S
C123 C119 1.393 1_556 S
C123 C122 1.391 . S
C124 H114 0.950 . S
C124 C125 1.386 1_556 S
C124 C126 1.391 . S
C125 C124 1.386 1_554 S
C125 C129 1.393 . S
C126 H115 0.950 . S
C126 C124 1.391 . S
C126 C127 1.400 1_556 S
C127 C121 1.491 . S
C127 C126 1.400 1_554 S
C127 C128 1.398 . S
C128 H116 0.950 . S
C128 C127 1.398 . S
C128 C129 1.391 . S
C129 H117 0.950 . S
C129 C125 1.393 . S
C129 C128 1.391 . S
H130 C138 0.950 . S
H131 C143 0.950 . S
H132 C140 0.950 . S
H133 C142 0.950 . S
H134 C144 0.950 . S
H135 C146 0.950 . S
H136 C148 0.950 . S
H137 C149 0.950 . S
C138 H130 0.950 . S
C138 C139 1.386 . S
C138 C140 1.391 . S
C139 C138 1.386 . S
C139 C143 1.393 . S
C140 H132 0.950 . S
C140 C138 1.391 . S
C140 C141 1.400 . S
C141 C140 1.400 . S
C141 C142 1.398 . S
C141 C147 1.491 . S
C142 H133 0.950 . S
C142 C141 1.398 . S
C142 C143 1.391 . S
C143 H131 0.950 . S
C143 C139 1.393 . S
C143 C142 1.391 . S
C144 H134 0.950 . S
C144 C145 1.386 . S
C144 C146 1.391 . S
C145 C144 1.386 . S
C145 C149 1.393 . S
C146 H135 0.950 . S
C146 C144 1.391 . S
C146 C147 1.400 . S
C147 C141 1.491 . S
C147 C146 1.400 . S
C147 C148 1.398 . S
C148 H136 0.950 . S
C148 C147 1.398 . S
C148 C149 1.391 . S
C149 H137 0.950 . S
C149 C145 1.393 . S
C149 C148 1.391 . S
H150 C158 0.950 . S
H151 C163 0.950 . S
H152 C160 0.950 . S
H153 C162 0.950 . S
H154 C164 0.950 . S
H155 C166 0.950 . S
H156 C168 0.950 . S
H157 C169 0.950 . S
C158 H150 0.950 . S
C158 C159 1.386 . S
C158 C160 1.391 . S
C159 C158 1.386 . S
C159 C163 1.393 . S
C160 H152 0.950 . S
C160 C158 1.391 . S
C160 C161 1.400 . S
C161 C160 1.400 . S
C161 C162 1.398 . S
C161 C167 1.491 . S
C162 H153 0.950 . S
C162 C161 1.398 . S
C162 C163 1.391 . S
C163 H151 0.950 . S
C163 C159 1.393 . S
C163 C162 1.391 . S
C164 H154 0.950 . S
C164 C165 1.386 . S
C164 C166 1.391 . S
C165 C164 1.386 . S
C165 C169 1.393 . S
C166 H155 0.950 . S
C166 C164 1.391 . S
C166 C167 1.400 . S
C167 C161 1.491 . S
C167 C166 1.400 . S
C167 C168 1.398 . S
C168 H156 0.950 . S
C168 C167 1.398 . S
C168 C169 1.391 . S
C169 H157 0.950 . S
C169 C165 1.393 . S
C169 C168 1.391 . S
H170 C178 0.950 . S
H171 C183 0.950 . S
H172 C180 0.950 . S
H173 C182 0.950 . S
H174 C184 0.950 . S
H175 C186 0.950 . S
H176 C188 0.950 . S
H177 C189 0.950 . S
C178 H170 0.950 . S
C178 C179 1.386 . S
C178 C180 1.391 . S
C179 C178 1.386 . S
C179 C183 1.393 . S
C180 H172 0.950 . S
C180 C178 1.391 . S
C180 C181 1.400 . S
C181 C180 1.400 . S
C181 C182 1.398 . S
C181 C187 1.491 . S
C182 H173 0.950 . S
C182 C181 1.398 . S
C182 C183 1.391 . S
C183 H171 0.950 . S
C183 C179 1.393 . S
C183 C182 1.391 . S
C184 H174 0.950 . S
C184 C185 1.386 . S
C184 C186 1.391 . S
C185 C184 1.386 . S
C185 C189 1.393 . S
C186 H175 0.950 . S
C186 C184 1.391 . S
C186 C187 1.400 . S
C187 C181 1.491 . S
C187 C186 1.400 . S
C187 C188 1.398 . S
C188 H176 0.950 . S
C188 C187 1.398 . S
C188 C189 1.391 . S
C189 H177 0.950 . S
C189 C185 1.393 . S
C189 C188 1.391 . S
H190 C198 0.950 . S
H191 C203 0.950 . S
H192 C200 0.950 . S
H193 C202 0.950 . S
H194 C204 0.950 . S
H195 C206 0.950 . S
H196 C208 0.950 . S
H197 C209 0.950 . S
C198 H190 0.950 . S
C198 C199 1.386 . S
C198 C200 1.391 . S
C199 C198 1.386 . S
C199 C203 1.393 . S
C200 H192 0.950 . S
C200 C198 1.391 . S
C200 C201 1.400 . S
C201 C200 1.400 . S
C201 C202 1.398 . S
C201 C207 1.491 . S
C202 H193 0.950 . S
C202 C201 1.398 . S
C202 C203 1.391 . S
C203 H191 0.950 . S
C203 C199 1.393 . S
C203 C202 1.391 . S
C204 H194 0.950 . S
C204 C205 1.386 . S
C204 C206 1.391 . S
C205 C204 1.386 . S
C205 C209 1.393 . S
C206 H195 0.950 . S
C206 C204 1.391 . S
C206 C207 1.400 . S
C207 C201 1.491 . S
C207 C206 1.400 . S
C207 C208 1.398 . S
C208 H196 0.950 . S
C208 C207 1.398 . S
C208 C209 1.391 . S
C209 H197 0.950 . S
C209 C205 1.393 . S
C209 C208 1.391 . S
H210 C218 0.950 . S
H211 C223 0.950 . S
H212 C220 0.950 . S
H213 C222 0.950 . S
H214 C224 0.950 . S
H215 C226 0.950 . S
H216 C228 0.950 . S
H217 C229 0.950 . S
C218 H210 0.950 . S
C218 C219 1.386 . S
C218 C220 1.391 . S
C219 C218 1.386 . S
C219 C223 1.393 . S
C220 H212 0.950 . S
C220 C218 1.391 . S
C220 C221 1.400 . S
C221 C220 1.400 . S
C221 C222 1.398 . S
C221 C227 1.491 . S
C222 H213 0.950 . S
C222 C221 1.398 . S
C222 C223 1.391 . S
C223 H211 0.950 . S
C223 C219 1.393 . S
C223 C222 1.391 . S
C224 H214 0.950 . S
C224 C225 1.386 . S
C224 C226 1.391 . S
C225 C224 1.386 . S
C225 C229 1.393 . S
C226 H215 0.950 . S
C226 C224 1.391 . S
C226 C227 1.400 . S
C227 C221 1.491 . S
C227 C226 1.400 . S
C227 C228 1.398 . S
C228 H216 0.950 . S
C228 C227 1.398 . S
C228 C229 1.391 . S
C229 H217 0.950 . S
C229 C225 1.393 . S
C229 C228 1.391 . S
H230 C238 0.950 . S
H231 C243 0.950 . S
H232 C240 0.950 . S
H233 C242 0.950 . S
H234 C244 0.950 . S
H235 C246 0.950 . S
H236 C248 0.950 . S
H237 C249 0.950 . S
C238 H230 0.950 . S
C238 C239 1.386 . S
C238 C240 1.391 . S
C239 C238 1.386 . S
C239 C243 1.393 . S
C240 H232 0.950 . S
C240 C238 1.391 . S
C240 C241 1.400 . S
C241 C240 1.400 . S
C241 C242 1.398 . S
C241 C247 1.491 . S
C242 H233 0.950 . S
C242 C241 1.398 . S
C242 C243 1.391 . S
C243 H231 0.950 . S
C243 C239 1.393 . S
C243 C242 1.391 . S
C244 H234 0.950 . S
C244 C245 1.386 . S
C244 C246 1.391 . S
C245 C244 1.386 . S
C245 C249 1.393 . S
C246 H235 0.950 . S
C246 C244 1.391 . S
C246 C247 1.400 . S
C247 C241 1.491 . S
C247 C246 1.400 . S
C247 C248 1.398 . S
C248 H236 0.950 . S
C248 C247 1.398 . S
C248 C249 1.391 . S
C249 H237 0.950 . S
C249 C245 1.393 . S
C249 C248 1.391 . S
H250 C258 0.950 . S
H251 C263 0.950 . S
H252 C260 0.950 . S
H253 C262 0.950 . S
H254 C264 0.950 . S
H255 C266 0.950 . S
H256 C268 0.950 . S
H257 C269 0.950 . S
C258 H250 0.950 . S
C258 C259 1.386 . S
C258 C260 1.391 . S
C259 C258 1.386 . S
C259 C263 1.393 . S
C260 H252 0.950 . S
C260 C258 1.391 . S
C260 C261 1.400 . S
C261 C260 1.400 . S
C261 C262 1.398 . S
C261 C267 1.491 . S
C262 H253 0.950 . S
C262 C261 1.398 . S
C262 C263 1.391 . S
C263 H251 0.950 . S
C263 C259 1.393 . S
C263 C262 1.391 . S
C264 H254 0.950 . S
C264 C265 1.386 . S
C264 C266 1.391 . S
C265 C264 1.386 . S
C265 C269 1.393 . S
C266 H255 0.950 . S
C266 C264 1.391 . S
C266 C267 1.400 . S
C267 C261 1.491 . S
C267 C266 1.400 . S
C267 C268 1.398 . S
C268 H256 0.950 . S
C268 C267 1.398 . S
C268 C269 1.391 . S
C269 H257 0.950 . S
C269 C265 1.393 . S
C269 C268 1.391 . S
H270 C278 0.950 . S
H271 C283 0.950 . S
H272 C280 0.950 . S
H273 C282 0.950 . S
H274 C284 0.950 . S
H275 C286 0.950 . S
H276 C288 0.950 . S
H277 C289 0.950 . S
C278 H270 0.950 . S
C278 C279 1.386 . S
C278 C280 1.391 . S
C279 C278 1.386 . S
C279 C283 1.393 . S
C280 H272 0.950 . S
C280 C278 1.391 . S
C280 C281 1.400 . S
C281 C280 1.400 . S
C281 C282 1.398 . S
C281 C287 1.491 . S
C282 H273 0.950 . S
C282 C281 1.398 . S
C282 C283 1.391 . S
C283 H271 0.950 . S
C283 C279 1.393 . S
C283 C282 1.391 . S
C284 H274 0.950 . S
C284 C285 1.386 . S
C284 C286 1.391 . S
C285 C284 1.386 . S
C285 C289 1.393 . S
C286 H275 0.950 . S
C286 C284 1.391 . S
C286 C287 1.400 . S
C287 C281 1.491 . S
C287 C286 1.400 . S
C287 C288 1.398 . S
C288 H276 0.950 . S
C288 C287 1.398 . S
C288 C289 1.391 . S
C289 H277 0.950 . S
C289 C285 1.393 . S
C289 C288 1.391 . S
H290 C298 0.950 . S
H291 C303 0.950 . S
H292 C300 0.950 . S
H293 C302 0.950 . S
H294 C304 0.950 . S
H295 C306 0.950 . S
H296 C308 0.950 . S
H297 C309 0.950 . S
C298 H290 0.950 . S
C298 C299 1.386 . S
C298 C300 1.391 . S
C299 C298 1.386 . S
C299 C303 1.393 . S
C300 H292 0.950 . S
C300 C298 1.391 . S
C300 C301 1.400 . S
C301 C300 1.400 . S
C301 C302 1.398 . S
C301 C307 1.491 . S
C302 H293 0.950 . S
C302 C301 1.398 . S
C302 C303 1.391 . S
C303 H291 0.950 . S
C303 C299 1.393 . S
C303 C302 1.391 . S
C304 H294 0.950 . S
C304 C305 1.386 . S
C304 C306 1.391 . S
C305 C304 1.386 . S
C305 C309 1.393 . S
C306 H295 0.950 . S
C306 C304 1.391 . S
C306 C307 1.400 . S
C307 C301 1.491 . S
C307 C306 1.400 . S
C307 C308 1.398 . S
C308 H296 0.950 . S
C308 C307 1.398 . S
C308 C309 1.391 . S
C309 H297 0.950 . S
C309 C305 1.393 . S
C309 C308 1.391 . S
H310 C318 0.950 . S
H311 C323 0.950 . S
H312 C320 0.950 . S
H313 C322 0.950 . S
H314 C324 0.950 . S
H315 C326 0.950 . S
H316 C328 0.950 . S
H317 C329 0.950 . S
C318 H310 0.950 . S
C318 C319 1.386 . S
C318 C320 1.391 . S
C319 C318 1.386 . S
C319 C323 1.393 . S
C320 H312 0.950 . S
C320 C318 1.391 . S
C320 C321 1.400 . S
C321 C320 1.400 . S
C321 C322 1.398 . S
C321 C327 1.491 . S
C322 H313 0.950 . S
C322 C321 1.398 . S
C322 C323 1.391 . S
C323 H311 0.950 . S
C323 C319 1.393 . S
C323 C322 1.391 . S
C324 H314 0.950 . S
C324 C325 1.386 . S
C324 C326 1.391 . S
C325 C324 1.386 . S
C325 C329 1.393 . S
C326 H315 0.950 . S
C326 C324 1.391 . S
C326 C327 1.400 . S
C327 C321 1.491 . S
C327 C326 1.400 . S
C327 C328 1.398 . S
C328 H316 0.950 . S
C328 C327 1.398 . S
C328 C329 1.391 . S
C329 H317 0.950 . S
C329 C325 1.393 . S
C329 C328 1.391 . S
C105 C61 1.486 . S
C99 N37 1.481 . S
C119 N4 1.488 . S
C125 C84 1.492 . S
C139 N15 1.509 . S
C145 C60 1.518 . S
C159 N26 1.515 . S
C165 C83 1.518 . S
C185 C64 1.489 . S
C179 C9 1.511 . S
C205 C86 1.497 . S
C199 C17 1.544 . S
C219 C31 1.535 . S
C225 C65 1.491 . S
C239 C42 1.521 . S
C245 C85 1.479 . S
C265 C88 1.419 . S
C259 C20 1.439 . S
C285 C63 1.428 . S
C279 C28 1.470 . S
C305 C87 1.392 . S
C299 C39 1.438 . S
C319 C6 1.449 . S
C325 C62 1.410 . S
