# Generated by pormake.
# Topology ptr, (4,4)-cn, num edge types: 1
# Building blocks:
#     Node 0, Type 0, BuildingBlock: UXUYUI_clean_sbu_0, # of connection points: 4
#     Node 1, Type 0, BuildingBlock: UXUYUI_clean_sbu_0, # of connection points: 4
#     Node 2, Type 0, BuildingBlock: UXUYUI_clean_sbu_0, # of connection points: 4
#     Node 3, Type 0, BuildingBlock: UXUYUI_clean_sbu_0, # of connection points: 4
#     Node 4, Type 0, BuildingBlock: UXUYUI_clean_sbu_0, # of connection points: 4
#     Node 5, Type 0, BuildingBlock: UXUYUI_clean_sbu_0, # of connection points: 4
#     Node 6, Type 0, BuildingBlock: UXUYUI_clean_sbu_0, # of connection points: 4
#     Node 7, Type 0, BuildingBlock: UXUYUI_clean_sbu_0, # of connection points: 4
#     Node 8, Type 0, BuildingBlock: UXUYUI_clean_sbu_0, # of connection points: 4
#     Node 9, Type 0, BuildingBlock: UXUYUI_clean_sbu_0, # of connection points: 4
#     Node 10, Type 0, BuildingBlock: UXUYUI_clean_sbu_0, # of connection points: 4
#     Node 11, Type 0, BuildingBlock: UXUYUI_clean_sbu_0, # of connection points: 4
#     Node 12, Type 0, BuildingBlock: UXUYUI_clean_sbu_0, # of connection points: 4
#     Node 13, Type 0, BuildingBlock: UXUYUI_clean_sbu_0, # of connection points: 4
#     Node 14, Type 0, BuildingBlock: UXUYUI_clean_sbu_0, # of connection points: 4
#     Node 15, Type 0, BuildingBlock: UXUYUI_clean_sbu_0, # of connection points: 4
#     Node 16, Type 0, BuildingBlock: UXUYUI_clean_sbu_0, # of connection points: 4
#     Node 17, Type 0, BuildingBlock: UXUYUI_clean_sbu_0, # of connection points: 4
#     Node 18, Type 1, BuildingBlock: KUFVIS_clean_linker_0, # of connection points: 4
#     Node 19, Type 1, BuildingBlock: KUFVIS_clean_linker_0, # of connection points: 4
#     Node 20, Type 1, BuildingBlock: KUFVIS_clean_linker_0, # of connection points: 4
#     Node 21, Type 1, BuildingBlock: KUFVIS_clean_linker_0, # of connection points: 4
#     Node 22, Type 1, BuildingBlock: KUFVIS_clean_linker_0, # of connection points: 4
#     Node 23, Type 1, BuildingBlock: KUFVIS_clean_linker_0, # of connection points: 4
#     Node 24, Type 1, BuildingBlock: KUFVIS_clean_linker_0, # of connection points: 4
#     Node 25, Type 1, BuildingBlock: KUFVIS_clean_linker_0, # of connection points: 4
#     Node 26, Type 1, BuildingBlock: KUFVIS_clean_linker_0, # of connection points: 4
#     Node 27, Type 1, BuildingBlock: KUFVIS_clean_linker_0, # of connection points: 4
#     Node 28, Type 1, BuildingBlock: KUFVIS_clean_linker_0, # of connection points: 4
#     Node 29, Type 1, BuildingBlock: KUFVIS_clean_linker_0, # of connection points: 4
#     Node 30, Type 1, BuildingBlock: KUFVIS_clean_linker_0, # of connection points: 4
#     Node 31, Type 1, BuildingBlock: KUFVIS_clean_linker_0, # of connection points: 4
#     Node 32, Type 1, BuildingBlock: KUFVIS_clean_linker_0, # of connection points: 4
#     Node 33, Type 1, BuildingBlock: KUFVIS_clean_linker_0, # of connection points: 4
#     Node 34, Type 1, BuildingBlock: KUFVIS_clean_linker_0, # of connection points: 4
#     Node 35, Type 1, BuildingBlock: KUFVIS_clean_linker_0, # of connection points: 4
#     Edge 36, Type (0, 1), BuildingBlock: ZUJKAS_clean_linker_0, # of connection points: 2
#     Edge 37, Type (0, 1), BuildingBlock: ZUJKAS_clean_linker_0, # of connection points: 2
#     Edge 38, Type (0, 1), BuildingBlock: ZUJKAS_clean_linker_0, # of connection points: 2
#     Edge 39, Type (0, 1), BuildingBlock: ZUJKAS_clean_linker_0, # of connection points: 2
#     Edge 40, Type (0, 1), BuildingBlock: ZUJKAS_clean_linker_0, # of connection points: 2
#     Edge 41, Type (0, 1), BuildingBlock: ZUJKAS_clean_linker_0, # of connection points: 2
#     Edge 42, Type (0, 1), BuildingBlock: ZUJKAS_clean_linker_0, # of connection points: 2
#     Edge 43, Type (0, 1), BuildingBlock: ZUJKAS_clean_linker_0, # of connection points: 2
#     Edge 44, Type (0, 1), BuildingBlock: ZUJKAS_clean_linker_0, # of connection points: 2
#     Edge 45, Type (0, 1), BuildingBlock: ZUJKAS_clean_linker_0, # of connection points: 2
#     Edge 46, Type (0, 1), BuildingBlock: ZUJKAS_clean_linker_0, # of connection points: 2
#     Edge 47, Type (0, 1), BuildingBlock: ZUJKAS_clean_linker_0, # of connection points: 2
#     Edge 48, Type (0, 1), BuildingBlock: ZUJKAS_clean_linker_0, # of connection points: 2
#     Edge 49, Type (0, 1), BuildingBlock: ZUJKAS_clean_linker_0, # of connection points: 2
#     Edge 50, Type (0, 1), BuildingBlock: ZUJKAS_clean_linker_0, # of connection points: 2
#     Edge 51, Type (0, 1), BuildingBlock: ZUJKAS_clean_linker_0, # of connection points: 2
#     Edge 52, Type (0, 1), BuildingBlock: ZUJKAS_clean_linker_0, # of connection points: 2
#     Edge 53, Type (0, 1), BuildingBlock: ZUJKAS_clean_linker_0, # of connection points: 2
#     Edge 54, Type (0, 1), BuildingBlock: ZUJKAS_clean_linker_0, # of connection points: 2
#     Edge 55, Type (0, 1), BuildingBlock: ZUJKAS_clean_linker_0, # of connection points: 2
#     Edge 56, Type (0, 1), BuildingBlock: ZUJKAS_clean_linker_0, # of connection points: 2
#     Edge 57, Type (0, 1), BuildingBlock: ZUJKAS_clean_linker_0, # of connection points: 2
#     Edge 58, Type (0, 1), BuildingBlock: ZUJKAS_clean_linker_0, # of connection points: 2
#     Edge 59, Type (0, 1), BuildingBlock: ZUJKAS_clean_linker_0, # of connection points: 2
#     Edge 60, Type (0, 1), BuildingBlock: ZUJKAS_clean_linker_0, # of connection points: 2
#     Edge 61, Type (0, 1), BuildingBlock: ZUJKAS_clean_linker_0, # of connection points: 2
#     Edge 62, Type (0, 1), BuildingBlock: ZUJKAS_clean_linker_0, # of connection points: 2
#     Edge 63, Type (0, 1), BuildingBlock: ZUJKAS_clean_linker_0, # of connection points: 2
#     Edge 64, Type (0, 1), BuildingBlock: ZUJKAS_clean_linker_0, # of connection points: 2
#     Edge 65, Type (0, 1), BuildingBlock: ZUJKAS_clean_linker_0, # of connection points: 2
#     Edge 66, Type (0, 1), BuildingBlock: ZUJKAS_clean_linker_0, # of connection points: 2
#     Edge 67, Type (0, 1), BuildingBlock: ZUJKAS_clean_linker_0, # of connection points: 2
#     Edge 68, Type (0, 1), BuildingBlock: ZUJKAS_clean_linker_0, # of connection points: 2
#     Edge 69, Type (0, 1), BuildingBlock: ZUJKAS_clean_linker_0, # of connection points: 2
#     Edge 70, Type (0, 1), BuildingBlock: ZUJKAS_clean_linker_0, # of connection points: 2
#     Edge 71, Type (0, 1), BuildingBlock: ZUJKAS_clean_linker_0, # of connection points: 2
#     Edge 72, Type (0, 1), BuildingBlock: ZUJKAS_clean_linker_0, # of connection points: 2
#     Edge 73, Type (0, 1), BuildingBlock: ZUJKAS_clean_linker_0, # of connection points: 2
#     Edge 74, Type (0, 1), BuildingBlock: ZUJKAS_clean_linker_0, # of connection points: 2
#     Edge 75, Type (0, 1), BuildingBlock: ZUJKAS_clean_linker_0, # of connection points: 2
#     Edge 76, Type (0, 1), BuildingBlock: ZUJKAS_clean_linker_0, # of connection points: 2
#     Edge 77, Type (0, 1), BuildingBlock: ZUJKAS_clean_linker_0, # of connection points: 2
#     Edge 78, Type (0, 1), BuildingBlock: ZUJKAS_clean_linker_0, # of connection points: 2
#     Edge 79, Type (0, 1), BuildingBlock: ZUJKAS_clean_linker_0, # of connection points: 2
#     Edge 80, Type (0, 1), BuildingBlock: ZUJKAS_clean_linker_0, # of connection points: 2
#     Edge 81, Type (0, 1), BuildingBlock: ZUJKAS_clean_linker_0, # of connection points: 2
#     Edge 82, Type (0, 1), BuildingBlock: ZUJKAS_clean_linker_0, # of connection points: 2
#     Edge 83, Type (0, 1), BuildingBlock: ZUJKAS_clean_linker_0, # of connection points: 2
#     Edge 84, Type (0, 1), BuildingBlock: ZUJKAS_clean_linker_0, # of connection points: 2
#     Edge 85, Type (0, 1), BuildingBlock: ZUJKAS_clean_linker_0, # of connection points: 2
#     Edge 86, Type (0, 1), BuildingBlock: ZUJKAS_clean_linker_0, # of connection points: 2
#     Edge 87, Type (0, 1), BuildingBlock: ZUJKAS_clean_linker_0, # of connection points: 2
#     Edge 88, Type (0, 1), BuildingBlock: ZUJKAS_clean_linker_0, # of connection points: 2
#     Edge 89, Type (0, 1), BuildingBlock: ZUJKAS_clean_linker_0, # of connection points: 2
#     Edge 90, Type (0, 1), BuildingBlock: ZUJKAS_clean_linker_0, # of connection points: 2
#     Edge 91, Type (0, 1), BuildingBlock: ZUJKAS_clean_linker_0, # of connection points: 2
#     Edge 92, Type (0, 1), BuildingBlock: ZUJKAS_clean_linker_0, # of connection points: 2
#     Edge 93, Type (0, 1), BuildingBlock: ZUJKAS_clean_linker_0, # of connection points: 2
#     Edge 94, Type (0, 1), BuildingBlock: ZUJKAS_clean_linker_0, # of connection points: 2
#     Edge 95, Type (0, 1), BuildingBlock: ZUJKAS_clean_linker_0, # of connection points: 2
#     Edge 96, Type (0, 1), BuildingBlock: ZUJKAS_clean_linker_0, # of connection points: 2
#     Edge 97, Type (0, 1), BuildingBlock: ZUJKAS_clean_linker_0, # of connection points: 2
#     Edge 98, Type (0, 1), BuildingBlock: ZUJKAS_clean_linker_0, # of connection points: 2
#     Edge 99, Type (0, 1), BuildingBlock: ZUJKAS_clean_linker_0, # of connection points: 2
#     Edge 100, Type (0, 1), BuildingBlock: ZUJKAS_clean_linker_0, # of connection points: 2
#     Edge 101, Type (0, 1), BuildingBlock: ZUJKAS_clean_linker_0, # of connection points: 2
#     Edge 102, Type (0, 1), BuildingBlock: ZUJKAS_clean_linker_0, # of connection points: 2
#     Edge 103, Type (0, 1), BuildingBlock: ZUJKAS_clean_linker_0, # of connection points: 2
#     Edge 104, Type (0, 1), BuildingBlock: ZUJKAS_clean_linker_0, # of connection points: 2
#     Edge 105, Type (0, 1), BuildingBlock: ZUJKAS_clean_linker_0, # of connection points: 2
#     Edge 106, Type (0, 1), BuildingBlock: ZUJKAS_clean_linker_0, # of connection points: 2
#     Edge 107, Type (0, 1), BuildingBlock: ZUJKAS_clean_linker_0, # of connection points: 2
# Relax obj value: 0.092
# Max RMSD: 0.233
# Mean RMSD: 0.128
data_MOF--net-ptr--node1-UXUYUI_clean_sbu_0--node2-KUFVIS_clean_linker_0--edge1-ZUJKAS_clean_linker_0
_symmetry_space_group_name_H-M    P1
_symmetry_Int_Tables_number       1
_symmetry_cell_setting            triclinic
loop_
_symmetry_equiv_pos_as_xyz
'x, y, z'
_cell_length_a     121.14526
_cell_length_b     121.14557
_cell_length_c     69.935148
_cell_angle_alpha  90.016785
_cell_angle_beta   90.023044
_cell_angle_gamma 120.06796
loop_
_atom_site_label
_atom_site_type_symbol
_atom_site_fract_x
_atom_site_fract_y
_atom_site_fract_z
_atom_type_partial_charge
Li0 Li 0.9917 0.34553 0.01146 0.0
Li1 Li 0.01451 0.35772 0.01484 0.0
Li2 Li 1.0002 0.36485 0.02899 0.0
Li3 Li 0.00302 0.36605 0.99443 0.0
C4 C 0.99761 0.33879 0.04564 0.0
N5 N 0.9892 0.31641 0.06591 0.0
C6 C 0.00462 0.33248 0.04535 0.0
C7 C 0.98641 0.33379 0.0564 0.0
C8 C 1.00019 0.32116 0.05567 0.0
C9 C 0.98228 0.32243 0.06648 0.0
C10 C 0.99984 0.33938 0.98109 0.0
C11 C 0.98466 0.3244 0.95854 0.0
N12 N 0.98857 0.31596 0.96298 0.0
C13 C 0.00369 0.33056 0.98547 0.0
C14 C 0.99025 0.3363 0.96753 0.0
C15 C 0.99789 0.31878 0.97612 0.0
C16 C 0.96644 0.32737 0.00093 0.0
N17 N 0.97719 0.32841 0.00883 0.0
C18 C 0.96735 0.30564 0.01042 0.0
C19 C 0.97783 0.31782 0.01342 0.0
C20 C 0.95619 0.30432 0.00216 0.0
C21 C 0.95581 0.31539 0.99741 0.0
H22 H 0.96621 0.33587 0.99696 0.0
H23 H 0.98657 0.31874 0.01887 0.0
C24 C 0.03585 0.36143 0.03586 0.0
N25 N 0.03034 0.35808 0.0183 0.0
C26 C 0.04722 0.36152 0.03958 0.0
C27 C 0.04724 0.35501 0.00693 0.0
C28 C 0.03587 0.3551 0.00382 0.0
C29 C 0.05302 0.35811 0.0251 0.0
H30 H 0.03131 0.36391 0.04703 0.0
H31 H 0.0314 0.35266 0.98989 0.0
C32 C 0.97827 0.3613 0.01707 0.0
N33 N 0.96143 0.367 0.03507 0.0
C34 C 0.97795 0.37232 0.01213 0.0
C35 C 0.9699 0.3531 0.03097 0.0
C36 C 0.9694 0.37506 0.02145 0.0
C37 C 0.96149 0.35616 0.03995 0.0
C38 C 0.02777 0.38379 0.00724 0.0
C39 C 0.03551 0.39514 0.01707 0.0
C40 C 0.03199 0.38135 0.98999 0.0
C41 C 0.0474 0.40391 0.00947 0.0
C42 C 0.04394 0.39035 0.98287 0.0
N43 N 0.05133 0.40135 0.99268 0.0
C44 C 0.99357 0.36991 0.06643 0.0
C45 C 1.00173 0.38671 0.04377 0.0
C46 C 0.99198 0.3776 0.07983 0.0
N47 N 0.99833 0.37458 0.0488 0.0
C48 C 1.00023 0.39466 0.05661 0.0
C49 C 0.99532 0.39017 0.07496 0.0
H50 H 0.99096 0.36023 0.07006 0.0
H51 H 0.0054 0.39012 0.02959 0.0
C52 C 1.00189 0.37321 0.95515 0.0
N53 N 0.00419 0.37687 0.97379 0.0
C54 C 1.00199 0.3816 0.94127 0.0
C55 C 0.00716 0.3974 0.96599 0.0
C56 C 0.00696 0.38874 0.97931 0.0
C57 C 0.00452 0.39385 0.94668 0.0
H58 H 0.99982 0.36376 0.95108 0.0
H59 H 0.00869 0.39138 0.99424 0.0
O60 O 1.00188 0.34997 0.03582 0.0
O61 O 0.00519 0.35084 0.99041 0.0
O62 O 0.98685 0.35865 0.00857 0.0
O63 O 0.01614 0.37511 0.01457 0.0
H64 H 0.01329 0.33617 0.03709 0.0
H65 H 0.98092 0.33859 0.05694 0.0
H66 H 0.00548 0.31614 0.05549 0.0
H67 H 0.97359 0.31842 0.07478 0.0
H68 H 0.97715 0.32184 0.94813 0.0
H69 H 0.01092 0.33268 0.99621 0.0
H70 H 0.98697 0.3429 0.96427 0.0
H71 H 1.00074 0.31183 0.97942 0.0
H72 H 0.96813 0.29735 0.0139 0.0
H73 H 0.94739 0.31477 0.99098 0.0
H74 H 0.05142 0.36425 0.05369 0.0
H75 H 0.05128 0.35224 0.99535 0.0
H76 H 0.98431 0.37875 0.00136 0.0
H77 H 0.96995 0.34449 0.03485 0.0
H78 H 0.96912 0.3836 0.01788 0.0
H79 H 0.95502 0.34993 0.05083 0.0
H80 H 0.03236 0.39715 0.03044 0.0
H81 H 0.02612 0.37262 0.98216 0.0
H82 H 0.0535 0.41274 0.01693 0.0
H83 H 0.04733 0.3886 0.96955 0.0
H84 H 0.98831 0.37377 0.09387 0.0
H85 H 1.00272 0.40417 0.05204 0.0
H86 H 1.00007 0.37852 0.92651 0.0
H87 H 0.00897 0.40663 0.97093 0.0
Li88 Li 0.65691 0.64809 0.99903 0.0
Li89 Li 0.64723 0.66075 0.00402 0.0
Li90 Li 0.63834 0.63911 0.02048 0.0
Li91 Li 0.63601 0.64154 0.98532 0.0
C92 C 0.66573 0.65752 0.03424 0.0
N93 N 0.68724 0.66249 0.05474 0.0
C94 C 0.67769 0.66753 0.02881 0.0
C95 C 0.6647 0.65009 0.05016 0.0
C96 C 0.68846 0.66986 0.03932 0.0
C97 C 0.67569 0.65275 0.06033 0.0
C98 C 0.65764 0.66861 0.97078 0.0
C99 C 0.65519 0.68455 0.95369 0.0
N100 N 0.66796 0.69273 0.95512 0.0
C101 C 0.67075 0.67718 0.97205 0.0
C102 C 0.6498 0.67231 0.96148 0.0
C103 C 0.67578 0.68932 0.96404 0.0
C104 C 0.67785 0.65153 0.97656 0.0
N105 N 0.67248 0.64776 0.99415 0.0
C106 C 0.6889 0.64333 0.00354 0.0
C107 C 0.6776 0.64338 0.00741 0.0
C108 C 0.69486 0.64754 0.98568 0.0
C109 C 0.68909 0.65156 0.97203 0.0
H110 H 0.67336 0.65448 0.96596 0.0
H111 H 0.67289 0.63985 0.02098 0.0
C112 C 0.6399 0.67961 0.00888 0.0
N113 N 0.65007 0.67775 0.0078 0.0
C114 C 0.64173 0.69185 0.01172 0.0
C115 C 0.66446 0.70009 0.01229 0.0
C116 C 0.66218 0.68769 0.00963 0.0
C117 C 0.65417 0.70233 0.01349 0.0
H118 H 0.63034 0.67157 0.00779 0.0
H119 H 0.67012 0.68602 0.00895 0.0
C120 C 0.64599 0.62325 0.99231 0.0
N121 N 0.65616 0.60879 0.97893 0.0
C122 C 0.64791 0.62269 0.97272 0.0
C123 C 0.64918 0.61643 0.0051 0.0
C124 C 0.65308 0.61533 0.96623 0.0
C125 C 0.65432 0.60918 0.99805 0.0
C126 C 0.61683 0.64243 0.00175 0.0
C127 C 0.60695 0.63159 0.01047 0.0
C128 C 0.61401 0.64844 0.98704 0.0
C129 C 0.59443 0.62685 0.00413 0.0
C130 C 0.60138 0.6434 0.98109 0.0
N131 N 0.59193 0.63279 0.98968 0.0
C132 C 0.6276 0.63288 0.05807 0.0
C133 C 0.623 0.61553 0.03752 0.0
C134 C 0.61926 0.62452 0.07191 0.0
N135 N 0.62919 0.62825 0.04123 0.0
C136 C 0.61456 0.60687 0.05087 0.0
C137 C 0.61242 0.61132 0.06825 0.0
H138 H 0.63252 0.64307 0.0605 0.0
H139 H 0.62418 0.61214 0.02379 0.0
C140 C 0.62408 0.63656 0.94785 0.0
N141 N 0.62399 0.63209 0.96571 0.0
C142 C 0.61454 0.62895 0.93471 0.0
C143 C 0.60516 0.61233 0.95858 0.0
C144 C 0.61487 0.6202 0.97115 0.0
C145 C 0.60488 0.61664 0.94004 0.0
H146 H 0.63153 0.64598 0.94378 0.0
H147 H 0.61507 0.61689 0.98544 0.0
O148 O 0.65505 0.65508 0.02421 0.0
O149 O 0.6525 0.65673 0.97876 0.0
O150 O 0.64132 0.63071 0.99897 0.0
O151 O 0.62921 0.64702 0.00739 0.0
H152 H 0.6787 0.67325 0.01638 0.0
H153 H 0.65552 0.64231 0.05457 0.0
H154 H 0.69779 0.6775 0.03518 0.0
H155 H 0.67504 0.64706 0.07265 0.0
H156 H 0.64921 0.68755 0.94654 0.0
H157 H 0.67697 0.6746 0.97946 0.0
H158 H 0.63965 0.66585 0.96039 0.0
H159 H 0.68589 0.69607 0.96503 0.0
H160 H 0.69285 0.63987 0.01433 0.0
H161 H 0.69333 0.65488 0.95807 0.0
H162 H 0.63346 0.69301 0.01294 0.0
H163 H 0.67423 0.70783 0.01331 0.0
H164 H 0.64558 0.628 0.96266 0.0
H165 H 0.64785 0.61688 0.02033 0.0
H166 H 0.65469 0.61485 0.95112 0.0
H167 H 0.65691 0.60391 0.00778 0.0
H168 H 0.6089 0.62683 0.02191 0.0
H169 H 0.62152 0.65683 0.98014 0.0
H170 H 0.58671 0.61843 0.01069 0.0
H171 H 0.59909 0.6479 0.96962 0.0
H172 H 0.61803 0.62839 0.08518 0.0
H173 H 0.60935 0.59683 0.04721 0.0
H174 H 0.61482 0.63259 0.92047 0.0
H175 H 0.59785 0.60302 0.96347 0.0
Li176 Li 0.36635 0.99992 0.99252 0.0
Li177 Li 0.36887 0.00486 0.0269 0.0
Li178 Li 0.34675 0.99099 0.01271 0.0
Li179 Li 0.35872 0.01405 0.00757 0.0
C180 C 0.36084 0.97648 0.01182 0.0
N181 N 0.35964 0.95326 0.00682 0.0
C182 C 0.36964 0.974 0.02096 0.0
C183 C 0.3513 0.96705 0.00041 0.0
C184 C 0.36892 0.96224 0.01816 0.0
C185 C 0.35088 0.9554 0.998 0.0
C186 C 0.38856 0.02553 0.00992 0.0
C187 C 0.40365 0.04272 0.02992 0.0
N188 N 0.4134 0.04256 0.02054 0.0
C189 C 0.39873 0.02561 0.00035 0.0
C190 C 0.39103 0.03423 0.0247 0.0
C191 C 0.41122 0.03426 0.00598 0.0
C192 C 0.37443 1.00034 0.95364 0.0
N193 N 0.3752 0.9972 0.97208 0.0
C194 C 0.39038 0.99096 0.9634 0.0
C195 C 0.38305 0.9927 0.97713 0.0
C196 C 0.38984 0.99412 0.94426 0.0
C197 C 0.38173 0.99888 0.93941 0.0
H198 H 0.36829 0.00413 0.95005 0.0
H199 H 0.38394 0.99082 0.99196 0.0
C200 C 0.37815 0.00838 0.06575 0.0
N201 N 0.38043 0.00707 0.04708 0.0
C202 C 0.38702 0.00983 0.07983 0.0
C203 C 0.40041 0.00877 0.05512 0.0
C204 C 0.39121 0.00709 0.04165 0.0
C205 C 0.39835 0.01013 0.07449 0.0
H206 H 0.36944 0.00822 0.06971 0.0
H207 H 0.39262 0.00569 0.02678 0.0
C208 C 0.34166 0.99405 0.97353 0.0
N209 N 0.32438 0.98146 0.94444 0.0
C210 C 0.33296 0.99787 0.96814 0.0
C211 C 0.34173 0.984 0.96383 0.0
C212 C 0.32425 0.99134 0.95349 0.0
C213 C 0.33289 0.97772 0.94924 0.0
C214 C 0.34765 0.01105 0.04194 0.0
C215 C 0.33449 0.00632 0.04165 0.0
C216 C 0.3556 0.02229 0.0519 0.0
C217 C 0.32954 0.01307 0.05102 0.0
C218 C 0.35028 0.02877 0.06108 0.0
N219 N 0.33747 0.02408 0.06043 0.0
C220 C 0.32899 0.96724 0.02913 0.0
C221 C 0.31962 0.97592 0.00882 0.0
C222 C 0.31702 0.95669 0.03307 0.0
N223 N 0.33009 0.97654 0.01708 0.0
C224 C 0.30747 0.96554 0.01234 0.0
C225 C 0.30603 0.95574 0.02466 0.0
H226 H 0.33742 0.96804 0.03578 0.0
H227 H 0.32064 0.98361 -0.00017 0.0
C228 C 0.3668 0.04039 0.0014 0.0
N229 N 0.35652 0.02855 0.00388 0.0
C230 C 0.36515 0.0509 0.99855 0.0
C231 C 0.34237 0.03687 0.00085 0.0
C232 C 0.34447 0.02664 0.0036 0.0
C233 C 0.35279 0.04923 0.99817 0.0
H234 H 0.37629 0.04167 0.00138 0.0
H235 H 0.33643 0.01713 0.00546 0.0
O236 O 0.36142 0.98796 0.01445 0.0
O237 O 0.37627 0.01696 0.00483 0.0
O238 O 0.35029 1.0004 0.98781 0.0
O239 O 0.35269 0.00465 0.03264 0.0
H240 H 0.37698 0.98109 0.03006 0.0
H241 H 0.34414 0.9686 0.99376 0.0
H242 H 0.37572 0.96023 0.02504 0.0
H243 H 0.34354 0.94803 0.98919 0.0
H244 H 0.40569 0.04945 0.04143 0.0
H245 H 0.39702 0.01903 0.98876 0.0
H246 H 0.38329 0.03437 0.03213 0.0
H247 H 0.41918 0.03438 0.99877 0.0
H248 H 0.39673 0.98757 0.96784 0.0
H249 H 0.38106 1.00144 0.9248 0.0
H250 H 0.38511 0.01082 0.09467 0.0
H251 H 0.40892 0.00872 0.05049 0.0
H252 H 0.33288 0.00575 0.97526 0.0
H253 H 0.34865 0.98118 0.96733 0.0
H254 H 0.3174 0.99413 0.94929 0.0
H255 H 0.33282 0.9699 0.94167 0.0
H256 H 0.32819 0.9976 0.0341 0.0
H257 H 0.36577 0.02596 0.05256 0.0
H258 H 0.31938 0.00958 0.05078 0.0
H259 H 0.35634 0.03753 0.06875 0.0
H260 H 0.3164 0.94934 0.04256 0.0
H261 H 0.29926 0.96536 0.00586 0.0
H262 H 0.37347 0.0602 0.99622 0.0
H263 H 0.33268 0.03509 0.00089 0.0
Li264 Li 0.01476 0.65755 0.00886 0.0
Li265 Li 1.00055 0.63676 0.02364 0.0
Li266 Li 0.00445 0.63826 0.98846 0.0
Li267 Li 0.9909 0.6458 0.00317 0.0
C268 C 0.02907 0.64514 0.00793 0.0
N269 N 0.05409 0.65082 0.00415 0.0
C270 C 0.03569 0.64431 0.02372 0.0
C271 C 0.03511 0.64866 0.99015 0.0
C272 C 0.04835 0.64729 0.02155 0.0
C273 C 0.04778 0.65155 0.98854 0.0
C274 C 0.99851 0.65258 0.04674 0.0
C275 C 0.98451 0.64365 0.07388 0.0
N276 N 0.99441 0.65105 0.08575 0.0
C277 C 0.00852 0.66016 0.05917 0.0
C278 C 0.98639 0.64432 0.05412 0.0
C279 C 0.00626 0.65923 0.07886 0.0
C280 C 0.03138 0.68401 0.00221 0.0
N281 N 0.0297 0.67382 0.01267 0.0
C282 C 0.04908 0.68692 0.02977 0.0
C283 C 0.03826 0.67508 0.0263 0.0
C284 C 0.05113 0.69764 0.01915 0.0
C285 C 0.04211 0.69603 0.00513 0.0
H286 H 0.02433 0.68282 0.99167 0.0
H287 H 0.03654 0.66693 0.03482 0.0
C288 C 0.98941 0.61342 0.0432 0.0
N289 N 0.99857 0.6259 0.04468 0.0
C290 C 0.98884 0.60453 0.05643 0.0
C291 C 0.00692 0.62155 0.07287 0.0
C292 C 0.00715 0.63012 0.05927 0.0
C293 C 0.99785 0.6085 0.07127 0.0
H294 H 0.98286 0.61026 0.03127 0.0
H295 H 0.01453 0.64004 0.05987 0.0
C296 C 0.00855 0.65902 0.96594 0.0
N297 N 0.01542 0.66734 0.92873 0.0
C298 C 0.99923 0.65715 0.95248 0.0
C299 C 0.02138 0.6653 0.96052 0.0
C300 C 1.00289 0.66138 0.93373 0.0
C301 C 0.02466 0.66938 0.94163 0.0
C302 C 0.97587 0.62051 0.99703 0.0
C303 C 0.97308 0.61613 0.97818 0.0
C304 C 0.96595 0.61696 0.01014 0.0
C305 C 0.96036 0.60839 0.97269 0.0
C306 C 0.95335 0.60922 0.00408 0.0
N307 N 0.95084 0.60514 0.98564 0.0
C308 C 0.0087 0.61944 0.97569 0.0
C309 C 0.0059 0.63017 0.94946 0.0
C310 C 0.00991 0.61104 0.96343 0.0
N311 N 0.00669 0.62873 0.96862 0.0
C312 C 0.00704 0.62193 0.93661 0.0
C313 C 0.00894 0.61211 0.94359 0.0
H314 H 0.00922 0.61848 0.99099 0.0
H315 H 0.0041 0.63746 0.94411 0.0
C316 C 0.97381 0.65456 0.01295 0.0
N317 N 0.97628 0.64787 -0.00033 0.0
C318 C 0.96326 0.65626 0.01091 0.0
C319 C 0.95798 0.64419 0.98152 0.0
C320 C 0.96865 0.64279 0.98408 0.0
C321 C 0.95515 0.65099 0.99504 0.0
H322 H 0.98006 0.65861 0.02515 0.0
H323 H 0.97086 0.63767 0.97354 0.0
O324 O 0.01666 0.64228 0.00984 0.0
O325 O 1.00057 0.65321 0.02745 0.0
O326 O 0.00513 0.655 0.9844 0.0
O327 O 0.98826 0.62815 0.00266 0.0
H328 H 0.03113 0.64149 0.03756 0.0
H329 H 0.03007 0.64905 0.97768 0.0
H330 H 0.05361 0.64677 0.03369 0.0
H331 H 0.05257 0.65432 0.97486 0.0
H332 H 0.97519 0.63725 0.07979 0.0
H333 H 0.01793 0.66666 0.0537 0.0
H334 H 0.97853 0.63847 0.04467 0.0
H335 H 0.01393 0.665 0.08866 0.0
H336 H 0.05557 0.68772 0.04104 0.0
H337 H 0.0433 0.70397 0.99649 0.0
H338 H 0.98159 0.5946 0.05479 0.0
H339 H 0.01414 0.62501 0.08394 0.0
H340 H 0.98929 0.65244 0.95642 0.0
H341 H 0.02876 0.6671 0.97081 0.0
H342 H 0.99577 0.65993 0.92315 0.0
H343 H 0.03455 0.67421 0.93725 0.0
H344 H 0.98062 0.61876 0.96784 0.0
H345 H 0.96794 0.62016 0.02482 0.0
H346 H 0.95805 0.60499 0.95812 0.0
H347 H 0.94558 0.60646 0.01405 0.0
H348 H 0.01156 0.60376 0.96946 0.0
H349 H 0.00607 0.623 0.92144 0.0
H350 H 0.96141 0.66152 0.02173 0.0
H351 H 0.95214 0.64016 0.96889 0.0
Li352 Li 0.34814 0.35558 0.01509 0.0
Li353 Li 0.36905 0.36209 0.02992 0.0
Li354 Li 0.36755 0.36505 0.99464 0.0
Li355 Li 0.35999 0.34383 0.00872 0.0
C356 C 0.36131 0.38288 0.01702 0.0
N357 N 0.35726 0.40339 0.01811 0.0
C358 C 0.36179 0.38879 0.03442 0.0
C359 C 0.35901 0.38757 0.00013 0.0
C360 C 0.35964 0.39909 0.03469 0.0
C361 C 0.35693 0.39791 0.00099 0.0
C362 C 0.35245 0.34406 0.05264 0.0
C363 C 0.36059 0.33932 0.08104 0.0
N364 N 0.3524 0.34129 0.09185 0.0
C365 C 0.34406 0.34595 0.06401 0.0
C366 C 0.36073 0.34063 0.06119 0.0
C367 C 0.34419 0.34453 0.08381 0.0
C368 C 0.32151 0.34443 0.00883 0.0
N369 N 0.33153 0.35373 0.01872 0.0
C370 C 0.3177 0.35971 0.03431 0.0
C371 C 0.32982 0.36129 0.03136 0.0
C372 C 0.30715 0.35021 0.02424 0.0
C373 C 0.30922 0.34254 0.01129 0.0
H374 H 0.32305 0.33842 0.99905 0.0
H375 H 0.33781 0.36834 0.03953 0.0
C376 C 0.39277 0.37453 0.04811 0.0
N377 N 0.38023 0.37058 0.05098 0.0
C378 C 0.4019 0.38221 0.06159 0.0
C379 C 0.38507 0.38147 0.08102 0.0
C380 C 0.37623 0.37377 0.06714 0.0
C381 C 0.39814 0.38598 0.07819 0.0
H382 H 0.39577 0.37214 0.03497 0.0
H383 H 0.36625 0.37071 0.06899 0.0
C384 C 0.34583 0.34963 0.9729 0.0
N385 N 0.33557 0.35073 0.93814 0.0
C386 C 0.34541 0.34193 0.95771 0.0
C387 C 0.34088 0.35776 0.97047 0.0
C388 C 0.34023 0.34266 0.94023 0.0
C389 C 0.33577 0.35822 0.95278 0.0
C390 C 0.38482 0.35348 0.0033 0.0
C391 C 0.38903 0.35444 0.98445 0.0
C392 C 0.38798 0.34702 0.01683 0.0
C393 C 0.39618 0.34875 0.97937 0.0
C394 C 0.39513 0.34144 0.01118 0.0
N395 N 0.39904 0.3424 0.99272 0.0
C396 C 0.38601 0.38847 0.98099 0.0
C397 C 0.37617 0.3735 0.95591 0.0
C398 C 0.39458 0.39756 0.96821 0.0
N399 N 0.37709 0.3767 0.97472 0.0
C400 C 0.38461 0.3823 0.9426 0.0
C401 C 0.39409 0.39448 0.94875 0.0
H402 H 0.38669 0.39066 0.99609 0.0
H403 H 0.36922 0.36401 0.9513 0.0
C404 C 0.35414 0.31847 0.01783 0.0
N405 N 0.35835 0.32749 0.00387 0.0
C406 C 0.3532 0.30665 0.01441 0.0
C407 C 0.36091 0.31361 0.98231 0.0
C408 C 0.36165 0.32525 0.98633 0.0
C409 C 0.35661 0.30407 0.99642 0.0
H410 H 0.35146 0.32043 0.03161 0.0
H411 H 0.36501 0.33258 0.9755 0.0
O412 O 0.3635 0.37284 0.0165 0.0
O413 O 0.35252 0.34551 0.03323 0.0
O414 O 0.35092 0.34906 0.9901 0.0
O415 O 0.37762 0.3588 0.00848 0.0
H416 H 0.36367 0.38538 0.0476 0.0
H417 H 0.35898 0.3834 0.98646 0.0
H418 H 0.35988 0.40367 0.04808 0.0
H419 H 0.3551 0.4016 0.98803 0.0
H420 H 0.367 0.33675 0.08786 0.0
H421 H 0.33752 0.34851 0.05763 0.0
H422 H 0.36724 0.33908 0.05259 0.0
H423 H 0.33778 0.34601 0.0928 0.0
H424 H 0.31657 0.36566 0.04477 0.0
H425 H 0.30144 0.33516 0.00308 0.0
H426 H 0.41187 0.38561 0.05862 0.0
H427 H 0.38172 0.38404 0.09369 0.0
H428 H 0.34908 0.33548 0.95936 0.0
H429 H 0.34085 0.36357 0.98217 0.0
H430 H 0.3399 0.3368 0.92832 0.0
H431 H 0.33192 0.36449 0.95071 0.0
H432 H 0.38669 0.35941 0.9738 0.0
H433 H 0.38489 0.34627 0.0315 0.0
H434 H 0.39943 0.34935 0.9648 0.0
H435 H 0.39757 0.33634 0.02147 0.0
H436 H 0.40184 0.40672 0.97366 0.0
H437 H 0.38385 0.37955 0.92771 0.0
H438 H 0.34968 0.29955 0.02564 0.0
H439 H 0.36384 0.31217 0.96834 0.0
Li440 Li 0.64758 0.99102 0.01257 0.0
Li441 Li 0.64029 0.00426 0.03016 0.0
Li442 Li 0.63968 0.00323 0.99647 0.0
Li443 Li 0.66008 0.01506 0.0113 0.0
C444 C 0.61973 0.98107 0.00396 0.0
N445 N 0.59844 0.96599 0.98191 0.0
C446 C 0.60842 0.98126 0.00696 0.0
C447 C 0.62019 0.97316 0.9898 0.0
C448 C 0.59778 0.9736 0.99562 0.0
C449 C 0.60932 0.9656 0.97882 0.0
C450 C 0.65638 0.99741 0.05046 0.0
C451 C 0.66706 0.99551 0.0783 0.0
N452 N 0.65634 0.9844 0.08293 0.0
C453 C 0.64547 0.98599 0.0555 0.0
C454 C 0.66727 0.00221 0.06193 0.0
C455 C 0.64564 0.97955 0.07196 0.0
C456 C 0.66019 0.97651 0.01097 0.0
N457 N 0.64879 0.97587 0.01398 0.0
C458 C 0.639 0.95369 0.02163 0.0
C459 C 0.63828 0.96474 0.01912 0.0
C460 C 0.65069 0.95406 0.01901 0.0
C461 C 0.66136 0.96567 0.01339 0.0
H462 H 0.66843 0.98552 0.00709 0.0
H463 H 0.62936 0.96449 0.02167 0.0
C464 C 0.62114 0.00734 0.04492 0.0
N465 N 0.63058 0.00524 0.05098 0.0
C466 C 0.61224 0.00708 0.05781 0.0
C467 C 0.62328 0.00309 0.08326 0.0
C468 C 0.63204 0.00349 0.06983 0.0
C469 C 0.61307 0.00468 0.07723 0.0
H470 H 0.62034 0.00891 0.02989 0.0
H471 H 0.63982 0.00222 0.07448 0.0
C472 C 0.65551 1.0018 0.97093 0.0
N473 N 0.6558 1.0006 0.93152 0.0
C474 C 0.65835 0.01256 0.95999 0.0
C475 C 0.65296 0.99048 0.96187 0.0
C476 C 0.65839 0.01174 0.94007 0.0
C477 C 0.65312 0.99006 0.94192 0.0
C478 C 0.65001 0.02973 0.02243 0.0
C479 C 0.64795 0.03935 0.01539 0.0
C480 C 0.65638 0.03152 0.03984 0.0
C481 C 0.65228 0.05059 0.02589 0.0
C482 C 0.66055 0.04289 0.04992 0.0
N483 N 0.65844 0.05211 0.04279 0.0
C484 C 0.62351 0.01058 0.98083 0.0
C485 C 0.62581 0.99648 0.95992 0.0
C486 C 0.61455 0.0109 0.96873 0.0
N487 N 0.62895 0.00345 0.97634 0.0
C488 C 0.61683 0.99651 0.94735 0.0
C489 C 0.61097 0.0037 0.95182 0.0
H490 H 0.6259 0.0158 0.99414 0.0
H491 H 0.62989 0.99055 0.95684 0.0
C492 C 0.68706 0.03024 0.01736 0.0
N493 N 0.67668 0.02976 0.00904 0.0
C494 C 0.69917 0.04101 0.01499 0.0
C495 C 0.6896 0.05057 0.99576 0.0
C496 C 0.67774 0.03963 0.9984 0.0
C497 C 0.70055 0.05137 0.00403 0.0
H498 H 0.68596 0.02223 0.02569 0.0
H499 H 0.66935 0.03895 0.99179 0.0
O500 O 0.63037 0.98872 0.01459 0.0
O501 O 0.65658 0.00374 0.03416 0.0
O502 O 0.65548 0.00241 0.99042 0.0
O503 O 0.64589 0.01873 0.01211 0.0
H504 H 0.60785 0.98727 0.01786 0.0
H505 H 0.6289 0.97301 0.9871 0.0
H506 H 0.58898 0.9737 0.99773 0.0
H507 H 0.60958 0.95949 0.96775 0.0
H508 H 0.67542 0.99911 0.08732 0.0
H509 H 0.63691 0.98219 0.04692 0.0
H510 H 0.67581 0.01103 0.05819 0.0
H511 H 0.63725 0.97071 0.07604 0.0
H512 H 0.63048 0.94495 0.0257 0.0
H513 H 0.6706 0.96648 0.01145 0.0
H514 H 0.60452 0.00829 0.05246 0.0
H515 H 0.62442 1.00146 0.09818 0.0
H516 H 0.66036 0.02139 0.96682 0.0
H517 H 0.65085 0.98211 0.97018 0.0
H518 H 0.66048 0.01995 0.9314 0.0
H519 H 0.65112 0.98135 0.93469 0.0
H520 H 0.64312 0.03817 0.00188 0.0
H521 H 0.65811 0.02425 0.04558 0.0
H522 H 0.65076 0.05811 0.02058 0.0
H523 H 0.66548 0.04438 0.0634 0.0
H524 H 0.61042 0.0167 0.97267 0.0
H525 H 0.61423 0.99068 0.93458 0.0
H526 H 0.70733 0.04125 0.02172 0.0
H527 H 0.69021 0.0582 0.98693 0.0
Li528 Li 0.66 0.67944 0.33897 0.0
Li529 Li 0.68338 0.69202 0.34165 0.0
Li530 Li 0.66944 0.69934 0.35838 0.0
Li531 Li 0.67249 0.70114 0.32379 0.0
C532 C 0.66679 0.67457 0.37652 0.0
N533 N 0.65924 0.65624 0.40477 0.0
C534 C 0.67196 0.66653 0.37727 0.0
C535 C 0.65796 0.67345 0.39036 0.0
C536 C 0.66796 0.65728 0.3916 0.0
C537 C 0.65421 0.66408 0.40446 0.0
C538 C 0.67799 0.67974 0.30677 0.0
C539 C 0.69381 0.68141 0.28423 0.0
N540 N 0.68849 0.66851 0.28449 0.0
C541 C 0.67259 0.66648 0.30666 0.0
C542 C 0.6886 0.68726 0.29532 0.0
C543 C 0.67807 0.66099 0.29536 0.0
C544 C 0.63638 0.66181 0.3231 0.0
N545 N 0.64543 0.66271 0.33551 0.0
C546 C 0.63367 0.64014 0.3408 0.0
C547 C 0.64427 0.65217 0.34433 0.0
C548 C 0.62421 0.63892 0.32793 0.0
C549 C 0.62565 0.64999 0.31912 0.0
H550 H 0.63755 0.67032 0.31615 0.0
H551 H 0.65167 0.65299 0.35377 0.0
C552 C 0.70926 0.70149 0.3514 0.0
N553 N 0.69871 0.69112 0.34428 0.0
C554 C 0.72049 0.70113 0.35451 0.0
C555 C 0.70984 0.67946 0.34281 0.0
C556 C 0.69881 0.68022 0.34002 0.0
C557 C 0.72087 0.68997 0.35032 0.0
H558 H 0.7089 0.70997 0.35505 0.0
H559 H 0.69026 0.67198 0.33485 0.0
C560 C 0.64484 0.69193 0.34471 0.0
N561 N 0.62179 0.68838 0.35792 0.0
C562 C 0.63999 0.69946 0.33769 0.0
C563 C 0.63789 0.6825 0.35827 0.0
C564 C 0.62835 0.69755 0.34461 0.0
C565 C 0.62627 0.68087 0.36481 0.0
C566 C 0.69408 0.72108 0.33675 0.0
C567 C 0.69408 0.73198 0.34334 0.0
C568 C 0.70266 0.72221 0.32251 0.0
C569 C 0.70253 0.74381 0.33527 0.0
C570 C 0.71096 0.73421 0.3148 0.0
N571 N 0.71071 0.74467 0.32127 0.0
C572 C 0.67116 0.70793 0.3973 0.0
C573 C 0.6639 0.71697 0.37392 0.0
C574 C 0.67085 0.71602 0.41133 0.0
N575 N 0.66773 0.70859 0.37901 0.0
C576 C 0.66347 0.72521 0.38739 0.0
C577 C 0.66708 0.72492 0.40638 0.0
H578 H 0.67442 0.70135 0.4009 0.0
H579 H 0.66165 0.7176 0.35916 0.0
C580 C 0.6752 0.71095 0.28517 0.0
N581 N 0.67314 0.71219 0.30396 0.0
C582 C 0.67535 0.7196 0.27172 0.0
C583 C 0.67138 0.73059 0.2973 0.0
C584 C 0.67117 0.7217 0.31013 0.0
C585 C 0.67347 0.72961 0.27781 0.0
H586 H 0.67665 0.70323 0.28063 0.0
H587 H 0.6694 0.72235 0.32512 0.0
O588 O 0.6707 0.68377 0.3627 0.0
O589 O 0.67273 0.68527 0.31772 0.0
O590 O 0.65626 0.69372 0.33813 0.0
O591 O 0.68569 0.70937 0.34418 0.0
H592 H 0.67887 0.66733 0.3668 0.0
H593 H 0.65411 0.6798 0.39034 0.0
H594 H 0.6718 0.65093 0.39225 0.0
H595 H 0.64735 0.66307 0.41521 0.0
H596 H 0.70207 0.68713 0.27538 0.0
H597 H 0.66432 0.6605 0.31533 0.0
H598 H 0.69276 0.69751 0.29496 0.0
H599 H 0.67404 0.65075 0.29524 0.0
H600 H 0.63308 0.63186 0.34767 0.0
H601 H 0.61854 0.64954 0.30924 0.0
H602 H 0.72864 0.7094 0.36066 0.0
H603 H 0.70966 0.67069 0.33921 0.0
H604 H 0.64519 0.70673 0.32706 0.0
H605 H 0.64136 0.67643 0.36355 0.0
H606 H 0.62452 0.70335 0.33938 0.0
H607 H 0.6208 0.67361 0.37533 0.0
H608 H 0.68757 0.7313 0.35446 0.0
H609 H 0.70291 0.7139 0.31747 0.0
H610 H 0.70257 0.75231 0.34012 0.0
H611 H 0.71762 0.73521 0.30369 0.0
H612 H 0.67365 0.71541 0.42582 0.0
H613 H 0.6608 0.73209 0.38275 0.0
H614 H 0.67701 0.71854 0.2568 0.0
H615 H 0.66967 0.73801 0.30256 0.0
Li616 Li 0.30447 0.97387 0.32291 0.0
Li617 Li 0.30575 0.97297 0.3586 0.0
Li618 Li 0.31498 0.99344 0.34234 0.0
Li619 Li 0.32523 0.98117 0.34071 0.0
C620 C 0.29038 0.98569 0.34611 0.0
N621 N 0.27822 0.99936 0.35345 0.0
C622 C 0.28895 0.98865 0.36493 0.0
C623 C 0.28559 0.98961 0.33103 0.0
C624 C 0.28278 0.99559 0.36834 0.0
C625 C 0.27947 0.99653 0.33504 0.0
C626 C 0.30389 0.95165 0.34598 0.0
C627 C 0.30136 0.93644 0.37034 0.0
N628 N 0.29086 0.9273 0.36109 0.0
C629 C 0.29311 0.94207 0.33668 0.0
C630 C 0.3081 0.94878 0.36289 0.0
C631 C 0.28665 0.92983 0.34456 0.0
C632 C 0.29809 0.96063 0.28738 0.0
N633 N 0.29362 0.96435 0.30243 0.0
C634 C 0.27211 0.95087 0.29223 0.0
C635 C 0.28094 0.95983 0.3049 0.0
C636 C 0.27636 0.94646 0.27692 0.0
C637 C 0.28956 0.95169 0.27429 0.0
H638 H 0.30822 0.96418 0.28606 0.0
H639 H 0.27765 0.96273 0.31725 0.0
C640 C 0.29876 0.9629 0.39714 0.0
N641 N 0.29491 0.96274 0.37883 0.0
C642 C 0.29011 0.95452 0.41069 0.0
C643 C 0.27375 0.94625 0.38632 0.0
C644 C 0.28267 0.95474 0.37331 0.0
C645 C 0.27741 0.94602 0.4053 0.0
H646 H 0.30853 0.96942 0.40118 0.0
H647 H 0.27991 0.95481 0.35862 0.0
C648 C 0.32453 0.99935 0.30653 0.0
N649 N 0.33074 0.01948 0.28192 0.0
C650 C 0.33537 0.01123 0.3099 0.0
C651 C 0.31688 0.99771 0.29059 0.0
C652 C 0.33833 0.02129 0.29731 0.0
C653 C 0.32018 0.008 0.27832 0.0
C654 C 0.33403 0.99334 0.3717 0.0
C655 C 0.34372 0.00556 0.36665 0.0
C656 C 0.33678 0.98584 0.38379 0.0
C657 C 0.35604 0.01006 0.3737 0.0
C658 C 0.34922 0.99068 0.39053 0.0
N659 N 0.35851 0.00258 0.38538 0.0
C660 C 0.31964 0.01525 0.36307 0.0
C661 C 0.31405 0.01609 0.33092 0.0
C662 C 0.32027 0.02685 0.36702 0.0
N663 N 0.31668 0.01014 0.34522 0.0
C664 C 0.31482 0.02786 0.33413 0.0
C665 C 0.31794 0.03344 0.35243 0.0
H666 H 0.32122 0.01015 0.37443 0.0
H667 H 0.31113 0.01165 0.31706 0.0
C668 C 0.34292 0.97213 0.34574 0.0
N669 N 0.34136 0.98167 0.33843 0.0
C670 C 0.35447 0.9723 0.34342 0.0
C671 C 0.36266 0.99212 0.32612 0.0
C672 C 0.35096 0.99156 0.32879 0.0
C673 C 0.36454 0.98236 0.33337 0.0
H674 H 0.33517 0.96433 0.35326 0.0
H675 H 0.34949 0.99895 0.32292 0.0
O676 O 0.29676 0.97928 0.34246 0.0
O677 O 0.31017 0.96378 0.33873 0.0
O678 O 0.32152 0.98931 0.31852 0.0
O679 O 0.32202 0.98863 0.36442 0.0
H680 H 0.2927 0.98576 0.37674 0.0
H681 H 0.28675 0.98749 0.31637 0.0
H682 H 0.28167 0.99803 0.38281 0.0
H683 H 0.27578 0.9997 0.32351 0.0
H684 H 0.30443 0.93415 0.38353 0.0
H685 H 0.28971 0.94404 0.32356 0.0
H686 H 0.31627 0.9561 0.3705 0.0
H687 H 0.27827 0.92236 0.33753 0.0
H688 H 0.26203 0.9472 0.29467 0.0
H689 H 0.29323 0.94844 0.2628 0.0
H690 H 0.2933 0.95476 0.42522 0.0
H691 H 0.26414 0.93976 0.38142 0.0
H692 H 0.34132 0.01274 0.32226 0.0
H693 H 0.30847 0.98861 0.28773 0.0
H694 H 0.34664 0.03054 0.29983 0.0
H695 H 0.31433 0.00687 0.26596 0.0
H696 H 0.34177 0.01147 0.35724 0.0
H697 H 0.32943 0.97633 0.38771 0.0
H698 H 0.36364 0.01947 0.36983 0.0
H699 H 0.3515 0.98495 0.39979 0.0
H700 H 0.32228 0.03043 0.38153 0.0
H701 H 0.31298 0.03248 0.32232 0.0
H702 H 0.3555 0.96463 0.34944 0.0
H703 H 0.37002 0.99995 0.31798 0.0
Li704 Li 0.03347 0.33253 0.32292 0.0
Li705 Li 0.03566 0.33796 0.35689 0.0
Li706 Li 0.01375 0.32471 0.34249 0.0
Li707 Li 0.02674 0.34782 0.33665 0.0
C708 C 0.0257 0.3088 0.34123 0.0
N709 N 0.02131 0.28455 0.33345 0.0
C710 C 0.033 0.30431 0.3502 0.0
C711 C 0.01605 0.30089 0.32851 0.0
C712 C 0.03067 0.29205 0.34601 0.0
C713 C 0.014 0.28868 0.32471 0.0
C714 C 0.05601 0.35759 0.34143 0.0
C715 C 0.07049 0.3745 0.3624 0.0
N716 N 0.08029 0.37314 0.3557 0.0
C717 C 0.06624 0.35645 0.33461 0.0
C718 C 0.05817 0.36676 0.3553 0.0
C719 C 0.07843 0.36437 0.34205 0.0
C720 C 0.04129 0.33143 0.2844 0.0
N721 N 0.0421 0.32897 0.30316 0.0
C722 C 0.05745 0.32267 0.29594 0.0
C723 C 0.04994 0.32464 0.30906 0.0
C724 C 0.05694 0.32522 0.27649 0.0
C725 C 0.0486 0.32951 0.27071 0.0
H726 H 0.03519 0.33514 0.28012 0.0
H727 H 0.05067 0.32309 0.32411 0.0
C728 C 0.04655 0.34486 0.39489 0.0
N729 N 0.04691 0.34009 0.37745 0.0
C730 C 0.05571 0.3468 0.40876 0.0
C731 C 0.0653 0.33886 0.38639 0.0
C732 C 0.05597 0.33703 0.37308 0.0
C733 C 0.06528 0.34381 0.40456 0.0
H734 H 0.03925 0.34724 0.39798 0.0
H735 H 0.05611 0.33341 0.359 0.0
C736 C 0.0091 0.32901 0.30307 0.0
N737 N 0.99123 0.31938 0.274 0.0
C738 C 1.00126 0.3342 0.29956 0.0
C739 C 0.00799 0.31907 0.29154 0.0
C740 C 0.99224 0.32916 0.28487 0.0
C741 C 0.99886 0.31429 0.27699 0.0
C742 C 0.01441 0.34501 0.37018 0.0
C743 C 1.00115 0.33963 0.36978 0.0
C744 C 0.02193 0.35671 0.3793 0.0
C745 C 0.99567 0.34618 0.37827 0.0
C746 C 0.01608 0.36297 0.38759 0.0
N747 N 0.00318 0.35762 0.3869 0.0
C748 C 0.99572 0.30248 0.3615 0.0
C749 C 0.98658 0.30842 0.33647 0.0
C750 C 0.98385 0.29191 0.36584 0.0
N751 N 0.99689 0.31046 0.34699 0.0
C752 C 0.97454 0.29792 0.34026 0.0
C753 C 0.97304 0.2895 0.35516 0.0
H754 H 0.00404 0.30433 0.36971 0.0
H755 H 0.98761 0.31497 0.32528 0.0
C756 C 0.03709 0.374 0.3272 0.0
N757 N 0.02613 0.36319 0.332 0.0
C758 C 0.03709 0.38539 0.32396 0.0
C759 C 0.01447 0.37433 0.33045 0.0
C760 C 0.01492 0.36316 0.33352 0.0
C761 C 0.02566 0.38568 0.32559 0.0
H762 H 0.04587 0.3738 0.32584 0.0
H763 H 0.00627 0.35443 0.33703 0.0
O764 O 0.02787 0.3208 0.34517 0.0
O765 O 0.04394 0.34968 0.33471 0.0
O766 O 0.01804 0.3339 0.31733 0.0
O767 O 0.01995 0.33877 0.36185 0.0
H768 H 0.0404 0.31022 0.36028 0.0
H769 H 0.0101 0.30406 0.32183 0.0
H770 H 0.0363 0.28848 0.35278 0.0
H771 H 0.00657 0.28247 0.31488 0.0
H772 H 0.07227 0.38156 0.37325 0.0
H773 H 0.06478 0.34948 0.32377 0.0
H774 H 0.05038 0.36783 0.36064 0.0
H775 H 0.08642 0.36353 0.33699 0.0
H776 H 0.06368 0.31929 0.30102 0.0
H777 H 0.04805 0.33176 0.25588 0.0
H778 H 0.05523 0.35051 0.42263 0.0
H779 H 0.0726 0.33666 0.38231 0.0
H780 H 1.00206 0.34197 0.30816 0.0
H781 H 0.01419 0.31515 0.29364 0.0
H782 H 0.98606 0.33303 0.28211 0.0
H783 H 0.99788 0.30658 0.26802 0.0
H784 H 0.99517 0.33056 0.36285 0.0
H785 H 0.03218 0.36095 0.37992 0.0
H786 H 0.98543 0.34217 0.37796 0.0
H787 H 0.0218 0.37208 0.39459 0.0
H788 H 0.98318 0.28562 0.37735 0.0
H789 H 0.96644 0.29656 0.33185 0.0
H790 H 0.04596 0.3939 0.32037 0.0
H791 H 0.0054 0.374 0.33152 0.0
Li792 Li 0.68152 0.98995 0.34617 0.0
Li793 Li 0.66742 0.96875 0.36019 0.0
Li794 Li 0.6725 0.97165 0.3252 0.0
Li795 Li 0.65794 0.97827 0.33893 0.0
C796 C 0.69627 0.98018 0.35374 0.0
N797 N 0.72101 0.9912 0.36721 0.0
C798 C 0.69858 0.97885 0.37295 0.0
C799 C 0.70654 0.98701 0.34134 0.0
C800 C 0.71116 0.98451 0.37948 0.0
C801 C 0.71898 0.99255 0.34844 0.0
C802 C 0.66151 0.98466 0.38147 0.0
C803 C 0.64305 0.97715 0.40184 0.0
N804 N 0.65071 0.98436 0.41642 0.0
C805 C 0.66917 0.9921 0.3966 0.0
C806 C 0.64833 0.97722 0.38406 0.0
C807 C 0.66354 0.99178 0.41418 0.0
C808 C 0.70102 0.01503 0.33624 0.0
N809 N 0.69631 0.00637 0.3507 0.0
C810 C 0.71319 0.02069 0.3714 0.0
C811 C 0.70211 0.00902 0.36809 0.0
C812 C 0.7184 0.02979 0.35667 0.0
C813 C 0.71211 0.02683 0.33891 0.0
H814 H 0.69624 0.01275 0.32256 0.0
H815 H 0.69822 1.002 0.37936 0.0
C816 C 0.66245 0.9454 0.37341 0.0
N817 N 0.66458 0.95683 0.38014 0.0
C818 C 0.661 0.93584 0.38599 0.0
C819 C 0.66388 0.94991 0.41239 0.0
C820 C 0.66525 0.95923 0.39924 0.0
C821 C 0.66187 0.93806 0.40579 0.0
H822 H 0.66205 0.94378 0.35815 0.0
H823 H 0.6672 0.96845 0.4043 0.0
C824 C 0.67448 0.98927 0.30186 0.0
N825 N 0.67794 0.99109 0.26269 0.0
C826 C 0.66445 0.98721 0.28975 0.0
C827 C 0.68632 0.99238 0.29406 0.0
C828 C 0.66638 0.98816 0.26998 0.0
C829 C 0.68786 0.99321 0.27422 0.0
C830 C 0.64349 0.95115 0.33824 0.0
C831 C 0.63767 0.94451 0.32145 0.0
C832 C 0.63671 0.94744 0.35543 0.0
C833 C 0.62505 0.9345 0.32204 0.0
C834 C 0.62412 0.93737 0.35545 0.0
N835 N 0.61859 0.93117 0.33889 0.0
C836 C 0.68504 0.96054 0.30654 0.0
C837 C 0.6676 0.95897 0.28892 0.0
C838 C 0.68682 0.95308 0.29307 0.0
N839 N 0.67547 0.96322 0.30438 0.0
C840 C 0.66899 0.95138 0.27514 0.0
C841 C 0.67856 0.94813 0.2773 0.0
H842 H 0.69107 0.96388 0.31904 0.0
H843 H 0.66 0.96113 0.2876 0.0
C844 C 0.64222 0.98926 0.34411 0.0
N845 N 0.64329 0.98012 0.33437 0.0
C846 C 0.63173 0.99093 0.34113 0.0
C847 C 0.62377 0.974 0.31774 0.0
C848 C 0.63437 0.97261 0.32126 0.0
C849 C 0.62229 0.98325 0.32776 0.0
H850 H 0.64952 0.99526 0.35426 0.0
H851 H 0.63561 0.96569 0.31323 0.0
O852 O 0.68402 0.97489 0.34713 0.0
O853 O 0.66688 0.98487 0.36415 0.0
O854 O 0.67273 0.98823 0.32124 0.0
O855 O 0.65588 0.96095 0.3379 0.0
H856 H 0.69077 0.97362 0.38275 0.0
H857 H 0.70493 0.98811 0.32643 0.0
H858 H 0.71308 0.98362 0.39434 0.0
H859 H 0.72701 0.99793 0.33903 0.0
H860 H 0.63287 0.9714 0.40403 0.0
H861 H 0.67936 0.99803 0.39484 0.0
H862 H 0.6422 0.97165 0.37242 0.0
H863 H 0.66937 0.99743 0.42603 0.0
H864 H 0.71756 0.02259 0.38542 0.0
H865 H 0.71581 0.03346 0.32707 0.0
H866 H 0.65928 0.92681 0.38023 0.0
H867 H 0.66479 0.9521 0.42752 0.0
H868 H 0.65526 0.98489 0.29553 0.0
H869 H 0.69418 0.99401 0.30322 0.0
H870 H 0.65868 0.98654 0.26044 0.0
H871 H 0.69694 0.99552 0.26799 0.0
H872 H 0.64279 0.94712 0.30805 0.0
H873 H 0.64113 0.95217 0.36868 0.0
H874 H 0.62041 0.92936 0.30911 0.0
H875 H 0.61876 0.93444 0.36866 0.0
H876 H 0.69447 0.95103 0.2952 0.0
H877 H 0.6623 0.9477 0.26335 0.0
H878 H 0.631 0.99812 0.34932 0.0
H879 H 0.61696 0.96805 0.30696 0.0
Li880 Li 0.03496 0.69893 0.35968 0.0
Li881 Li 0.01423 0.69134 0.34605 0.0
Li882 Li 0.02637 0.67983 0.34063 0.0
Li883 Li 0.03358 0.70139 0.32641 0.0
C884 C 0.01881 0.68046 0.38382 0.0
N885 N 0.01806 0.67693 0.4229 0.0
C886 C 0.01633 0.68811 0.39599 0.0
C887 C 0.02082 0.67095 0.39148 0.0
C888 C 0.01603 0.6862 0.41572 0.0
C889 C 0.02041 0.66933 0.41129 0.0
C890 C 0.02443 0.7168 0.33921 0.0
C891 C 0.01313 0.72116 0.31465 0.0
N892 N 0.0161 0.7323 0.32354 0.0
C893 C 0.02736 0.72829 0.34809 0.0
C894 C 0.01724 0.71319 0.32235 0.0
C895 C 0.02307 0.73599 0.33995 0.0
C896 C 0.05264 0.72126 0.37715 0.0
N897 N 0.04633 0.70847 0.38028 0.0
C898 C 0.05862 0.71141 0.40862 0.0
C899 C 0.04914 0.70343 0.39567 0.0
C900 C 0.0654 0.72465 0.4055 0.0
C901 C 0.06222 0.72954 0.38958 0.0
H902 H 0.05045 0.72503 0.36462 0.0
H903 H 0.04437 0.69323 0.39762 0.0
C904 C 0.98748 0.67957 0.34003 0.0
N905 N 0.99755 0.689 0.34964 0.0
C906 C 0.9752 0.67769 0.34263 0.0
C907 C 0.9839 0.69528 0.36497 0.0
C908 C 0.996 0.69682 0.36191 0.0
C909 C 0.97326 0.68559 0.35529 0.0
H910 H 0.98899 0.67348 0.33037 0.0
H911 H 0.00416 0.70424 0.36942 0.0
C912 C 0.0543 0.69652 0.3487 0.0
N913 N 0.07554 0.70036 0.36892 0.0
C914 C 0.06593 0.70783 0.34642 0.0
C915 C 0.05349 0.68714 0.36119 0.0
C916 C 0.07655 0.7096 0.35681 0.0
C917 C 0.06434 0.68925 0.37127 0.0
C918 C 0.01734 0.67997 0.30369 0.0
C919 C 0.02833 0.68014 0.29716 0.0
C920 C 0.00639 0.67459 0.29228 0.0
C921 C 0.02817 0.67488 0.27931 0.0
C922 C 0.00662 0.66945 0.2745 0.0
N923 N 0.0174 0.66969 0.26844 0.0
C924 C 0.01324 0.65289 0.34155 0.0
C925 C 0.0343 0.66223 0.32944 0.0
C926 C 0.01143 0.64065 0.33877 0.0
N927 N 0.02453 0.66335 0.33686 0.0
C928 C 0.03291 0.65019 0.32647 0.0
C929 C 0.02134 0.63917 0.3311 0.0
H930 H 0.00564 0.65407 0.34743 0.0
H931 H 0.04316 0.6707 0.32571 0.0
C932 C 0.05278 0.72421 0.31299 0.0
N933 N 0.04258 0.71332 0.30641 0.0
C934 C 0.06067 0.73387 0.30039 0.0
C935 C 0.04716 0.72121 0.27432 0.0
C936 C 0.03949 0.71175 0.28751 0.0
C937 C 0.05803 0.7324 0.28071 0.0
H938 H 0.05478 0.72536 0.32816 0.0
H939 H 0.03113 0.70318 0.2826 0.0
O940 O 0.01911 0.68214 0.36448 0.0
O941 O 0.02857 0.70919 0.34715 0.0
O942 O 0.04369 0.69473 0.33908 0.0
O943 O 0.01719 0.68493 0.3212 0.0
H944 H 0.01479 0.69552 0.39025 0.0
H945 H 0.0227 0.66493 0.38221 0.0
H946 H 0.0142 0.6921 0.42533 0.0
H947 H 0.02199 0.66204 0.41744 0.0
H948 H 0.00757 0.71848 0.30162 0.0
H949 H 0.03288 0.73121 0.36118 0.0
H950 H 0.01484 0.70435 0.31523 0.0
H951 H 0.02527 0.74491 0.34668 0.0
H952 H 0.0609 0.70724 0.4206 0.0
H953 H 0.06711 0.73969 0.38673 0.0
H954 H 0.96734 0.6702 0.33469 0.0
H955 H 0.98289 0.70147 0.3751 0.0
H956 H 0.06676 0.71518 0.33679 0.0
H957 H 0.04453 0.67841 0.36335 0.0
H958 H 0.0856 0.71834 0.35527 0.0
H959 H 0.06383 0.6821 0.38108 0.0
H960 H 0.03693 0.68437 0.30566 0.0
H961 H 0.99782 0.67441 0.2971 0.0
H962 H 0.03661 0.67496 0.27407 0.0
H963 H 0.99821 0.66525 0.26552 0.0
H964 H 1.00239 0.63245 0.34271 0.0
H965 H 0.04074 0.64952 0.32025 0.0
H966 H 0.06874 0.74245 0.30604 0.0
H967 H 0.04475 0.71967 0.25927 0.0
Li968 Li 0.3087 0.33853 0.36005 0.0
Li969 Li 0.3156 0.3247 0.34435 0.0
Li970 Li 0.3272 0.34833 0.33936 0.0
Li971 Li 0.30625 0.33508 0.3245 0.0
C972 C 0.32697 0.34004 0.38271 0.0
N973 N 0.33024 0.34276 0.42187 0.0
C974 C 0.32622 0.33008 0.39377 0.0
C975 C 0.32949 0.35142 0.39154 0.0
C976 C 0.32788 0.33163 0.41355 0.0
C977 C 0.33108 0.3526 0.41136 0.0
C978 C 0.28771 0.31085 0.34599 0.0
C979 C 0.27116 0.29233 0.32981 0.0
N980 N 0.26586 0.28714 0.347 0.0
C981 C 0.282 0.30539 0.36347 0.0
C982 C 0.28217 0.30432 0.32899 0.0
C983 C 0.27101 0.29337 0.3637 0.0
C984 C 0.29392 0.34725 0.3776 0.0
N985 N 0.2995 0.34012 0.38102 0.0
C986 C 0.28873 0.33328 0.41104 0.0
C987 C 0.29719 0.33329 0.39743 0.0
C988 C 0.28247 0.34022 0.4076 0.0
C989 C 0.28536 0.34746 0.39074 0.0
H990 H 0.29568 0.35235 0.36424 0.0
H991 H 0.30149 0.32745 0.39965 0.0
C992 C 0.32598 0.30838 0.33786 0.0
N993 N 0.31712 0.30979 0.34784 0.0
C994 C 0.32731 0.29767 0.34077 0.0
C995 C 0.31052 0.29017 0.36435 0.0
C996 C 0.3095 0.30098 0.36095 0.0
C997 C 0.31955 0.2884 0.35426 0.0
H998 H 0.33211 0.31564 0.32777 0.0
H999 H 0.30278 0.30246 0.36908 0.0
C1000 C 0.31755 0.36349 0.33432 0.0
N1001 N 0.32872 0.38883 0.3239 0.0
C1002 C 0.31759 0.3668 0.31517 0.0
C1003 C 0.32305 0.37304 0.3482 0.0
C1004 C 0.32331 0.37967 0.31018 0.0
C1005 C 0.32869 0.38581 0.34263 0.0
C1006 C 0.32133 0.32824 0.30301 0.0
C1007 C 0.32927 0.33477 0.28758 0.0
C1008 C 0.31244 0.31525 0.30128 0.0
C1009 C 0.3281 0.32819 0.2706 0.0
C1010 C 0.31156 0.30901 0.28407 0.0
N1011 N 0.31934 0.31555 0.26921 0.0
C1012 C 0.35201 0.36871 0.34963 0.0
C1013 C 0.34618 0.36819 0.31718 0.0
C1014 C 0.36379 0.37971 0.34636 0.0
N1015 N 0.34349 0.36322 0.33512 0.0
C1016 C 0.3578 0.37917 0.31327 0.0
C1017 C 0.36684 0.38508 0.32795 0.0
H1018 H 0.34971 0.36453 0.36374 0.0
H1019 H 0.33922 0.36368 0.30591 0.0
C1020 C 0.28407 0.33318 0.31199 0.0
N1021 N 0.29463 0.33344 0.30491 0.0
C1022 C 0.27482 0.33278 0.2997 0.0
C1023 C 0.28738 0.33273 0.27288 0.0
C1024 C 0.29646 0.33319 0.28576 0.0
C1025 C 0.27645 0.33266 0.27985 0.0
H1026 H 0.28293 0.33345 0.3273 0.0
H1027 H 0.30502 0.33361 0.28043 0.0
O1028 O 0.32532 0.33867 0.36333 0.0
O1029 O 0.2984 0.3227 0.3455 0.0
O1030 O 0.31223 0.35095 0.33943 0.0
O1031 O 0.32228 0.33459 0.31967 0.0
H1032 H 0.32439 0.32125 0.38716 0.0
H1033 H 0.33011 0.35922 0.38318 0.0
H1034 H 0.32729 0.32399 0.4223 0.0
H1035 H 0.33297 0.36133 0.41839 0.0
H1036 H 0.2668 0.28717 0.31677 0.0
H1037 H 0.28609 0.31031 0.37675 0.0
H1038 H 0.28623 0.30848 0.31528 0.0
H1039 H 0.26656 0.289 0.37715 0.0
H1040 H 0.28692 0.32767 0.42392 0.0
H1041 H 0.28063 0.35277 0.38727 0.0
H1042 H 0.33453 0.29681 0.33287 0.0
H1043 H 0.30427 0.28326 0.37479 0.0
H1044 H 0.3134 0.35952 0.30424 0.0
H1045 H 0.32301 0.37062 0.3631 0.0
H1046 H 0.3235 0.38239 0.2954 0.0
H1047 H 0.33306 0.39331 0.35321 0.0
H1048 H 0.33624 0.34481 0.28869 0.0
H1049 H 0.30636 0.31002 0.31314 0.0
H1050 H 0.33416 0.33312 0.25853 0.0
H1051 H 0.30472 0.29896 0.28255 0.0
H1052 H 0.37051 0.38383 0.35805 0.0
H1053 H 0.35962 0.38305 0.29893 0.0
H1054 H 0.26647 0.33255 0.3057 0.0
H1055 H 0.28907 0.33278 0.25767 0.0
Li1056 Li 0.32602 0.01222 0.66905 0.0
Li1057 Li 0.349 0.0234 0.67192 0.0
Li1058 Li 0.33661 0.03253 0.68574 0.0
Li1059 Li 0.33966 0.03281 0.65062 0.0
C1060 C 0.33061 0.00566 0.70326 0.0
N1061 N 0.31858 0.98299 0.72333 0.0
C1062 C 0.33549 0.99737 0.70286 0.0
C1063 C 0.31971 0.0025 0.71402 0.0
C1064 C 0.32925 0.98594 0.71307 0.0
C1065 C 0.31373 0.99097 0.72401 0.0
C1066 C 0.34465 0.01325 0.63386 0.0
C1067 C 0.35986 0.02015 0.60802 0.0
N1068 N 0.35653 0.00781 0.60463 0.0
C1069 C 0.34133 1.00063 0.63005 0.0
C1070 C 0.35394 0.0231 0.6227 0.0
C1071 C 0.34747 0.99808 0.61524 0.0
C1072 C 0.29936 0.99411 0.66533 0.0
N1073 N 0.31116 0.99552 0.66739 0.0
C1074 C 0.30237 0.9729 0.66566 0.0
C1075 C 0.31282 0.98522 0.66753 0.0
C1076 C 0.29005 0.97111 0.66332 0.0
C1077 C 0.28863 0.98195 0.6633 0.0
H1078 H 0.29828 0.00243 0.66486 0.0
H1079 H 0.3223 0.98657 0.6689 0.0
C1080 C 0.36838 0.02481 0.6951 0.0
N1081 N 0.3638 0.02176 0.67694 0.0
C1082 C 0.37954 0.02488 0.70034 0.0
C1083 C 0.38083 0.01807 0.66837 0.0
C1084 C 0.36974 0.01834 0.66365 0.0
C1085 C 0.38593 0.02152 0.68686 0.0
H1086 H 0.36343 0.02737 0.70547 0.0
H1087 H 0.36607 0.01593 0.64933 0.0
C1088 C 0.31589 0.0317 0.67119 0.0
N1089 N 0.30122 0.04172 0.68429 0.0
C1090 C 0.31671 0.04245 0.66241 0.0
C1091 C 0.30754 0.02599 0.68653 0.0
C1092 C 0.30923 0.04738 0.66927 0.0
C1093 C 0.30023 0.03121 0.69297 0.0
C1094 C 0.36507 0.04823 0.67605 0.0
C1095 C 0.36835 0.05281 0.69475 0.0
C1096 C 0.37468 0.05028 0.66303 0.0
C1097 C 0.38119 0.05931 0.70014 0.0
C1098 C 0.3874 0.05679 0.66899 0.0
N1099 N 0.39036 0.06113 0.68727 0.0
C1100 C 0.33403 0.04036 0.72379 0.0
C1101 C 0.3381 0.05481 0.69834 0.0
C1102 C 0.33435 0.04922 0.73698 0.0
N1103 N 0.33592 0.04333 0.70489 0.0
C1104 C 0.33824 0.0638 0.71089 0.0
C1105 C 0.33653 0.06119 0.73059 0.0
H1106 H 0.33254 0.03124 0.72865 0.0
H1107 H 0.33982 0.05699 0.68327 0.0
C1108 C 0.33168 0.03991 0.61664 0.0
N1109 N 0.3415 0.04314 0.62901 0.0
C1110 C 0.33248 0.04864 0.60283 0.0
C1111 C 0.35366 0.06358 0.61428 0.0
C1112 C 0.35239 0.05465 0.62796 0.0
C1113 C 0.34353 0.06074 0.60174 0.0
H1114 H 0.32303 0.03077 0.61805 0.0
H1115 H 0.35991 0.05711 0.63825 0.0
O1116 O 0.3365 0.01684 0.6932 0.0
O1117 O 0.33865 0.0159 0.64819 0.0
O1118 O 0.32333 0.02688 0.66494 0.0
O1119 O 0.35253 0.04154 0.67062 0.0
H1120 H 0.3439 0.99966 0.69457 0.0
H1121 H 0.31588 0.00886 0.71462 0.0
H1122 H 0.33287 0.97939 0.71279 0.0
H1123 H 0.30525 0.98836 0.73233 0.0
H1124 H 0.36711 0.02768 0.59933 0.0
H1125 H 0.3341 0.99289 0.63844 0.0
H1126 H 0.35664 0.0329 0.62542 0.0
H1127 H 0.34502 0.98836 0.61218 0.0
H1128 H 0.30397 0.96488 0.666 0.0
H1129 H 0.27938 0.9811 0.66118 0.0
H1130 H 0.38308 0.02743 0.71483 0.0
H1131 H 0.38551 0.01546 0.65756 0.0
H1132 H 0.32318 0.04705 0.65061 0.0
H1133 H 0.30679 0.01766 0.69346 0.0
H1134 H 0.30982 0.05574 0.66268 0.0
H1135 H 0.29377 0.02692 0.70489 0.0
H1136 H 0.36108 0.05123 0.70509 0.0
H1137 H 0.37234 0.04672 0.64855 0.0
H1138 H 0.38385 0.06284 0.71459 0.0
H1139 H 0.39491 0.05836 0.6591 0.0
H1140 H 0.33319 0.04681 0.75202 0.0
H1141 H 0.33969 0.07272 0.7051 0.0
H1142 H 0.32447 0.04607 0.59336 0.0
H1143 H 0.36225 0.07285 0.61414 0.0
Li1144 Li 0.99241 0.31312 0.67587 0.0
Li1145 Li 0.98085 0.32441 0.67769 0.0
Li1146 Li 0.97306 0.30365 0.69597 0.0
Li1147 Li 0.97148 0.30439 0.66061 0.0
C1148 C 0.99801 0.32322 0.71322 0.0
N1149 N 0.01601 0.32905 0.74155 0.0
C1150 C 0.00863 0.33548 0.71441 0.0
C1151 C 0.99649 0.31395 0.72652 0.0
C1152 C 0.01765 0.33823 0.72881 0.0
C1153 C 0.00571 0.31708 0.74072 0.0
C1154 C 0.99265 0.33145 0.64446 0.0
C1155 C 0.99041 0.34675 0.62525 0.0
N1156 N 0.0033 0.35453 0.62547 0.0
C1157 C 0.00587 0.33958 0.64444 0.0
C1158 C 0.98485 0.33503 0.63472 0.0
C1159 C 0.01107 0.35121 0.63477 0.0
C1160 C 0.01135 0.31309 0.6534 0.0
N1161 N 0.00883 0.31441 0.67194 0.0
C1162 C 0.02877 0.31655 0.68174 0.0
C1163 C 0.01722 0.31598 0.68609 0.0
C1164 C 0.03155 0.31517 0.66271 0.0
C1165 C 0.02265 0.31336 0.64845 0.0
H1166 H 0.0045 0.31173 0.6424 0.0
H1167 H 0.01501 0.31664 0.70078 0.0
C1168 C 0.97215 0.34227 0.68156 0.0
N1169 N 0.98264 0.34105 0.67946 0.0
C1170 C 0.97342 0.35435 0.68365 0.0
C1171 C 0.99627 0.36369 0.68124 0.0
C1172 C 0.99455 0.35145 0.67934 0.0
C1173 C 0.98563 0.36529 0.68363 0.0
H1174 H 0.96279 0.33386 0.68202 0.0
H1175 H 1.00276 0.35025 0.67791 0.0
C1176 C 0.9838 0.2884 0.67339 0.0
N1177 N 0.99695 0.27559 0.66693 0.0
C1178 C 0.98485 0.28471 0.65485 0.0
C1179 C 0.98936 0.28551 0.68866 0.0
C1180 C 0.99155 0.27825 0.65188 0.0
C1181 C 0.99599 0.27905 0.68509 0.0
C1182 C 0.95114 0.30423 0.67337 0.0
C1183 C 0.94179 0.29229 0.6801 0.0
C1184 C 0.94814 0.31021 0.65886 0.0
C1185 C 0.9296 0.28649 0.67204 0.0
C1186 C 0.93584 0.30409 0.65117 0.0
N1187 N 0.9269 0.29245 0.65785 0.0
C1188 C 0.95958 0.298 0.73129 0.0
C1189 C 0.95945 0.28062 0.71548 0.0
C1190 C 0.95073 0.28972 0.74471 0.0
N1191 N 0.96358 0.29329 0.71693 0.0
C1192 C 0.9506 0.27203 0.72848 0.0
C1193 C 0.9459 0.27651 0.7431 0.0
H1194 H 0.96283 0.3081 0.73183 0.0
H1195 H 0.9626 0.27712 0.70369 0.0
C1196 C 0.9589 0.29791 0.62365 0.0
N1197 N 0.96039 0.2937 0.64094 0.0
C1198 C 0.94991 0.28934 0.61061 0.0
C1199 C 0.9444 0.27234 0.63336 0.0
C1200 C 0.95341 0.2812 0.64591 0.0
C1201 C 0.94245 0.27636 0.61548 0.0
H1202 H 0.96452 0.30791 0.6201 0.0
H1203 H 0.95477 0.27813 0.6598 0.0
O1204 O 0.98899 0.32041 0.69941 0.0
O1205 O 0.98736 0.32007 0.65398 0.0
O1206 O 0.97764 0.2951 0.6765 0.0
O1207 O 0.96326 0.30987 0.68061 0.0
H1208 H 0.00994 0.34278 0.7043 0.0
H1209 H 0.98834 0.30442 0.72585 0.0
H1210 H 0.02594 0.34766 0.72987 0.0
H1211 H 0.00469 0.30998 0.75106 0.0
H1212 H 0.98449 0.34967 0.61776 0.0
H1213 H 0.01205 0.33703 0.65204 0.0
H1214 H 0.97461 0.32889 0.63465 0.0
H1215 H 0.02127 0.35762 0.63473 0.0
H1216 H 0.03534 0.31782 0.69316 0.0
H1217 H 0.02448 0.31233 0.63359 0.0
H1218 H 0.96494 0.35505 0.68581 0.0
H1219 H 0.00586 0.37181 0.6809 0.0
H1220 H 0.98069 0.28698 0.64285 0.0
H1221 H 0.98867 0.28836 0.70307 0.0
H1222 H 0.99251 0.27541 0.6376 0.0
H1223 H 1.00041 0.27682 0.69675 0.0
H1224 H 0.94395 0.28748 0.69124 0.0
H1225 H 0.95527 0.31942 0.65343 0.0
H1226 H 0.9223 0.27722 0.67702 0.0
H1227 H 0.93341 0.30858 0.63984 0.0
H1228 H 0.94727 0.29356 0.75566 0.0
H1229 H 0.94724 0.26195 0.72685 0.0
H1230 H 0.94866 0.29289 0.59705 0.0
H1231 H 0.93907 0.26242 0.63762 0.0
Li1232 Li 0.69327 0.68019 0.67301 0.0
Li1233 Li 0.68193 0.6571 0.679 0.0
Li1234 Li 0.70367 0.67108 0.69142 0.0
Li1235 Li 0.69987 0.66618 0.65737 0.0
C1236 C 0.68234 0.67719 0.70672 0.0
N1237 N 0.67107 0.68999 0.72266 0.0
C1238 C 0.66907 0.67167 0.70658 0.0
C1239 C 0.68987 0.68917 0.7151 0.0
C1240 C 0.66356 0.67831 0.7147 0.0
C1241 C 0.684 0.69551 0.72302 0.0
C1242 C 0.68262 0.66554 0.63523 0.0
C1243 C 0.67845 0.65387 0.60565 0.0
N1244 N 0.68233 0.66487 0.59575 0.0
C1245 C 0.68655 0.67673 0.62478 0.0
C1246 C 0.67851 0.65401 0.62563 0.0
C1247 C 0.68632 0.67619 0.60482 0.0
C1248 C 0.70122 0.70658 0.66803 0.0
N1249 N 0.69095 0.69464 0.6696 0.0
C1250 C 0.67675 0.70282 0.66565 0.0
C1251 C 0.67887 0.6926 0.66831 0.0
C1252 C 0.68717 0.7153 0.66403 0.0
C1253 C 0.69955 0.71708 0.66527 0.0
H1254 H 0.71074 0.70795 0.66861 0.0
H1255 H 0.67086 0.68299 0.66929 0.0
C1256 C 0.66378 0.63739 0.70254 0.0
N1257 N 0.66571 0.64244 0.68466 0.0
C1258 C 0.65239 0.62632 0.70708 0.0
C1259 C 0.64487 0.62615 0.67501 0.0
C1260 C 0.65651 0.63714 0.67099 0.0
C1261 C 0.64276 0.62053 0.69321 0.0
H1262 H 0.67119 0.64191 0.71322 0.0
H1263 H 0.65823 0.6414 0.65694 0.0
C1264 C 0.72303 0.69052 0.67482 0.0
N1265 N 0.74803 0.70478 0.68705 0.0
C1266 C 0.73245 0.68846 0.66693 0.0
C1267 C 0.72634 0.69986 0.6889 0.0
C1268 C 0.74503 0.69577 0.67329 0.0
C1269 C 0.73902 0.70695 0.69491 0.0
C1270 C 0.69149 0.64211 0.68478 0.0
C1271 C 0.69348 0.63959 0.70359 0.0
C1272 C 0.68361 0.63199 0.67269 0.0
C1273 C 0.68751 0.62698 0.71 0.0
C1274 C 0.67778 0.61952 0.67966 0.0
N1275 N 0.67984 0.61729 0.69801 0.0
C1276 C 0.71599 0.67849 0.7284 0.0
C1277 C 0.72437 0.66999 0.70589 0.0
C1278 C 0.72531 0.68013 0.74175 0.0
N1279 N 0.71573 0.67351 0.71087 0.0
C1280 C 0.73388 0.67157 0.71866 0.0
C1281 C 0.73443 0.67662 0.73695 0.0
H1282 H 0.70895 0.68114 0.73202 0.0
H1283 H 0.7239 0.66603 0.69185 0.0
C1284 C 0.71442 0.67353 0.62316 0.0
N1285 N 0.70775 0.66366 0.63541 0.0
C1286 C 0.72201 0.6726 0.60893 0.0
C1287 C 0.71525 0.65117 0.61961 0.0
C1288 C 0.7079 0.65256 0.63375 0.0
C1289 C 0.72267 0.66138 0.60726 0.0
H1290 H 0.71429 0.68233 0.62502 0.0
H1291 H 0.70277 0.64498 0.64391 0.0
O1292 O 0.68793 0.67096 0.69854 0.0
O1293 O 0.68307 0.66592 0.65476 0.0
O1294 O 0.7106 0.68325 0.66911 0.0
O1295 O 0.69705 0.65441 0.67833 0.0
H1296 H 0.6631 0.66243 0.7001 0.0
H1297 H 0.70015 0.69358 0.7153 0.0
H1298 H 0.65331 0.67419 0.7146 0.0
H1299 H 0.68971 0.70482 0.72944 0.0
H1300 H 0.67537 0.64503 0.59802 0.0
H1301 H 0.68984 0.68575 0.63199 0.0
H1302 H 0.67557 0.64528 0.63352 0.0
H1303 H 0.68937 0.68478 0.59654 0.0
H1304 H 0.66703 0.70096 0.66494 0.0
H1305 H 0.70788 0.72645 0.66369 0.0
H1306 H 0.65106 0.62241 0.72137 0.0
H1307 H 0.63769 0.62197 0.66392 0.0
H1308 H 0.73006 0.68117 0.65622 0.0
H1309 H 0.71916 0.70149 0.69533 0.0
H1310 H 0.7524 0.69423 0.66738 0.0
H1311 H 0.7417 0.71415 0.70587 0.0
H1312 H 0.69944 0.64729 0.71322 0.0
H1313 H 0.68181 0.63376 0.65818 0.0
H1314 H 0.68892 0.6249 0.72454 0.0
H1315 H 0.67158 0.61161 0.6705 0.0
H1316 H 0.72524 0.6839 0.75576 0.0
H1317 H 0.7408 0.66894 0.71412 0.0
H1318 H 0.72753 0.68066 0.5996 0.0
H1319 H 0.7156 0.64242 0.61898 0.0
Li1320 Li 0.34645 0.32487 0.68063 0.0
Li1321 Li 0.33275 0.30351 0.69428 0.0
Li1322 Li 0.33634 0.30687 0.65987 0.0
Li1323 Li 0.32309 0.31416 0.67481 0.0
C1324 C 0.36123 0.31463 0.68452 0.0
N1325 N 0.38667 0.32494 0.69383 0.0
C1326 C 0.36478 0.31385 0.70327 0.0
C1327 C 0.37058 0.32052 0.67046 0.0
C1328 C 0.3777 0.31915 0.70769 0.0
C1329 C 0.38341 0.32571 0.67547 0.0
C1330 C 0.32437 0.31801 0.71467 0.0
C1331 C 0.30383 0.30579 0.7298 0.0
N1332 N 0.30762 0.31475 0.74382 0.0
C1333 C 0.32806 0.3271 0.7292 0.0
C1334 C 0.31216 0.30726 0.71494 0.0
C1335 C 0.31945 0.32527 0.74383 0.0
C1336 C 0.36554 0.35028 0.67164 0.0
N1337 N 0.36129 0.34112 0.68538 0.0
C1338 C 0.37798 0.35522 0.7065 0.0
C1339 C 0.3672 0.34341 0.70265 0.0
C1340 C 0.38262 0.36494 0.69261 0.0
C1341 C 0.3762 0.36229 0.67496 0.0
H1342 H 0.36054 0.34833 0.65816 0.0
H1343 H 0.36351 0.33604 0.71346 0.0
C1344 C 0.33345 0.28255 0.70727 0.0
N1345 N 0.33086 0.2916 0.7137 0.0
C1346 C 0.3325 0.27301 0.71948 0.0
C1347 C 0.32651 0.2824 0.74502 0.0
C1348 C 0.32759 0.2918 0.73226 0.0
C1349 C 0.32892 0.27278 0.73863 0.0
H1350 H 0.33637 0.28282 0.69259 0.0
H1351 H 0.32588 0.29925 0.73726 0.0
C1352 C 0.33835 0.32572 0.63734 0.0
N1353 N 0.34058 0.32999 0.59837 0.0
C1354 C 0.32803 0.32462 0.62682 0.0
C1355 C 0.34983 0.3291 0.62809 0.0
C1356 C 0.32934 0.3268 0.60712 0.0
C1357 C 0.35076 0.33118 0.60836 0.0
C1358 C 0.31291 0.28699 0.66058 0.0
C1359 C 0.30686 0.28916 0.64521 0.0
C1360 C 0.31232 0.27521 0.66225 0.0
C1361 C 0.30038 0.27953 0.6317 0.0
C1362 C 0.30579 0.26584 0.6484 0.0
N1363 N 0.3 0.26817 0.63354 0.0
C1364 C 0.34387 0.29095 0.64294 0.0
C1365 C 0.33283 0.29688 0.62105 0.0
C1366 C 0.34402 0.28238 0.62975 0.0
N1367 N 0.3382 0.29788 0.63852 0.0
C1368 C 0.33282 0.28845 0.60738 0.0
C1369 C 0.33825 0.28086 0.61178 0.0
H1370 H 0.34778 0.29164 0.65707 0.0
H1371 H 0.32802 0.30213 0.61794 0.0
C1372 C 0.31172 0.32926 0.66992 0.0
N1373 N 0.30901 0.31702 0.67227 0.0
C1374 C 0.30192 0.33194 0.66671 0.0
C1375 C 0.28668 0.3094 0.66895 0.0
C1376 C 0.29678 0.30716 0.67222 0.0
C1377 C 0.28918 0.32193 0.66585 0.0
H1378 H 0.32154 0.33692 0.67017 0.0
H1379 H 0.29488 0.29752 0.67429 0.0
O1380 O 0.34865 0.30967 0.67995 0.0
O1381 O 0.33266 0.31979 0.70014 0.0
O1382 O 0.33728 0.32376 0.65666 0.0
O1383 O 0.31958 0.29643 0.67367 0.0
H1384 H 0.35764 0.30934 0.71432 0.0
H1385 H 0.36797 0.32109 0.65586 0.0
H1386 H 0.3806 0.3187 0.72217 0.0
H1387 H 0.39076 0.33036 0.66476 0.0
H1388 H 0.29435 0.29751 0.7302 0.0
H1389 H 0.33747 0.33549 0.72915 0.0
H1390 H 0.30915 0.30007 0.7039 0.0
H1391 H 0.32218 0.33223 0.75518 0.0
H1392 H 0.38265 0.35667 0.72023 0.0
H1393 H 0.37919 0.36949 0.66393 0.0
H1394 H 0.33477 0.26603 0.71401 0.0
H1395 H 0.32373 0.28261 0.75966 0.0
H1396 H 0.31908 0.32207 0.63376 0.0
H1397 H 0.35792 0.33006 0.63604 0.0
H1398 H 0.32143 0.32594 0.59878 0.0
H1399 H 0.35957 0.33374 0.60099 0.0
H1400 H 0.30738 0.29828 0.6435 0.0
H1401 H 0.31691 0.27333 0.67403 0.0
H1402 H 0.29574 0.28113 0.61967 0.0
H1403 H 0.30533 0.25671 0.64945 0.0
H1404 H 0.34813 0.2766 0.63396 0.0
H1405 H 0.32835 0.28769 0.59366 0.0
H1406 H 0.30432 0.34176 0.66476 0.0
H1407 H 0.27707 0.30135 0.66824 0.0
Li1408 Li 0.68175 0.02547 0.68129 0.0
Li1409 Li 0.70328 0.03307 0.69453 0.0
Li1410 Li 0.6998 0.03484 0.65948 0.0
Li1411 Li 0.69378 0.01392 0.67367 0.0
C1412 C 0.69195 0.05064 0.68785 0.0
N1413 N 0.68217 0.06557 0.70073 0.0
C1414 C 0.69346 0.05448 0.70698 0.0
C1415 C 0.68561 0.05452 0.67522 0.0
C1416 C 0.68842 0.062 0.71322 0.0
C1417 C 0.68069 0.06202 0.68202 0.0
C1418 C 0.68771 0.01183 0.71684 0.0
C1419 C 0.69598 0.00252 0.73905 0.0
N1420 N 0.68831 0.00287 0.75295 0.0
C1421 C 0.67983 0.01199 0.73129 0.0
C1422 C 0.69578 0.00696 0.7207 0.0
C1423 C 0.6803 0.00746 0.74947 0.0
C1424 C 0.65586 0.01765 0.67302 0.0
N1425 N 0.66522 0.02339 0.68637 0.0
C1426 C 0.65117 0.02651 0.70681 0.0
C1427 C 0.66305 0.02768 0.70312 0.0
C1428 C 0.64134 0.02073 0.69321 0.0
C1429 C 0.6438 0.01621 0.67616 0.0
H1430 H 0.65774 0.01418 0.65989 0.0
H1431 H 0.67055 0.03203 0.71367 0.0
C1432 C 0.72691 0.05145 0.70726 0.0
N1433 N 0.71546 0.04229 0.71416 0.0
C1434 C 0.73668 0.05941 0.71971 0.0
C1435 C 0.72277 0.04835 0.74631 0.0
C1436 C 0.71322 0.04061 0.73329 0.0
C1437 C 0.73466 0.05798 0.73954 0.0
H1438 H 0.7284 0.05265 0.69197 0.0
H1439 H 0.70398 0.03349 0.73851 0.0
C1440 C 0.6808 0.0185 0.63737 0.0
N1441 N 0.67587 0.01908 0.59892 0.0
C1442 C 0.68174 0.0101 0.62467 0.0
C1443 C 0.67721 0.02709 0.63056 0.0
C1444 C 0.67923 0.01056 0.60527 0.0
C1445 C 0.6748 0.02727 0.61107 0.0
C1446 C 0.72058 0.02675 0.6708 0.0
C1447 C 0.72615 0.02723 0.65309 0.0
C1448 C 0.72521 0.02388 0.68724 0.0
C1449 C 0.73606 0.02452 0.65206 0.0
C1450 C 0.73515 0.02124 0.68562 0.0
N1451 N 0.74032 0.02159 0.66821 0.0
C1452 C 0.71245 0.05861 0.64123 0.0
C1453 C 0.71014 0.04162 0.62166 0.0
C1454 C 0.7199 0.06752 0.62733 0.0
N1455 N 0.70786 0.04595 0.63827 0.0
C1456 C 0.71749 0.05019 0.60731 0.0
C1457 C 0.72271 0.06338 0.61019 0.0
H1458 H 0.71074 0.06184 0.65473 0.0
H1459 H 0.70663 0.03154 0.61978 0.0
C1460 C 0.68503 0.98766 0.68074 0.0
N1461 N 0.6925 0.99769 0.66917 0.0
C1462 C 0.68405 0.97578 0.67778 0.0
C1463 C 0.69817 0.98464 0.65068 0.0
C1464 C 0.69892 0.99635 0.65424 0.0
C1465 C 0.69069 0.97413 0.66258 0.0
H1466 H 0.6798 0.98886 0.69228 0.0
H1467 H 0.70447 0.00432 0.64485 0.0
O1468 O 0.69672 0.04317 0.68151 0.0
O1469 O 0.6874 0.01626 0.69898 0.0
O1470 O 0.68332 0.01826 0.65638 0.0
O1471 O 0.71087 0.02941 0.67206 0.0
H1472 H 0.69835 0.05158 0.71694 0.0
H1473 H 0.6845 0.05176 0.66033 0.0
H1474 H 0.68945 0.06498 0.72801 0.0
H1475 H 0.6757 0.06504 0.67243 0.0
H1476 H 0.7022 0.99876 0.74224 0.0
H1477 H 0.67343 0.0156 0.72853 0.0
H1478 H 0.70174 0.00651 0.70961 0.0
H1479 H 0.67429 0.00759 0.7608 0.0
H1480 H 0.64966 0.02994 0.7203 0.0
H1481 H 0.63654 0.01175 0.66523 0.0
H1482 H 0.74573 0.06662 0.71386 0.0
H1483 H 0.72074 0.04704 0.76148 0.0
H1484 H 0.68438 0.0033 0.62971 0.0
H1485 H 0.67635 0.03358 0.64023 0.0
H1486 H 0.67997 0.00415 0.59526 0.0
H1487 H 0.67209 0.03393 0.60559 0.0
H1488 H 0.72277 0.02956 0.64025 0.0
H1489 H 0.72128 0.02381 0.70113 0.0
H1490 H 0.74038 0.02475 0.63842 0.0
H1491 H 0.7388 0.01897 0.69823 0.0
H1492 H 0.72386 0.07757 0.63037 0.0
H1493 H 0.71925 0.04652 0.59425 0.0
H1494 H 0.67822 0.96802 0.68741 0.0
H1495 H 0.70319 0.98378 0.63849 0.0
Li1496 Li 0.97473 0.671 0.69471 0.0
Li1497 Li 0.98138 0.65725 0.67841 0.0
Li1498 Li 0.99363 0.68119 0.67429 0.0
Li1499 Li 0.97269 0.66834 0.6589 0.0
C1500 C 0.99363 0.67302 0.71703 0.0
N1501 N 0.9984 0.67733 0.75575 0.0
C1502 C 0.99327 0.66351 0.72876 0.0
C1503 C 0.99657 0.68477 0.72496 0.0
C1504 C 0.99568 0.66586 0.74831 0.0
C1505 C 0.9989 0.68675 0.74457 0.0
C1506 C 0.9543 0.64328 0.68014 0.0
C1507 C 0.93854 0.62402 0.66448 0.0
N1508 N 0.93398 0.6186 0.68185 0.0
C1509 C 0.94932 0.63758 0.69782 0.0
C1510 C 0.94876 0.63651 0.66332 0.0
C1511 C 0.93911 0.62507 0.69839 0.0
C1512 C 0.95931 0.67885 0.71249 0.0
N1513 N 0.96549 0.67228 0.71586 0.0
C1514 C 0.95518 0.66533 0.74619 0.0
C1515 C 0.9637 0.66568 0.73238 0.0
C1516 C 0.94832 0.67169 0.74283 0.0
C1517 C 0.95068 0.67871 0.72584 0.0
H1518 H 0.96065 0.68374 0.69903 0.0
H1519 H 0.96845 0.66025 0.73454 0.0
C1520 C 0.98909 0.63895 0.66913 0.0
N1521 N 0.98228 0.64193 0.68145 0.0
C1522 C 0.98965 0.62777 0.67164 0.0
C1523 C 0.9765 0.62312 0.69977 0.0
C1524 C 0.97615 0.63433 0.69665 0.0
C1525 C 0.98328 0.61964 0.68714 0.0
H1526 H 0.99416 0.64527 0.65739 0.0
H1527 H 0.97118 0.63709 0.70664 0.0
C1528 C 0.98347 0.6966 0.67105 0.0
N1529 N 0.99319 0.72224 0.66378 0.0
C1530 C 0.98401 0.70085 0.65232 0.0
C1531 C 0.98769 0.70535 0.68611 0.0
C1532 C 0.989 0.71387 0.64893 0.0
C1533 C 0.99262 0.71829 0.68214 0.0
C1534 C 0.98811 0.66285 0.63641 0.0
C1535 C 0.99672 0.67059 0.62236 0.0
C1536 C 0.97899 0.65026 0.63202 0.0
C1537 C 0.99593 0.66563 0.60404 0.0
C1538 C 0.97851 0.64565 0.61355 0.0
N1539 N 0.98692 0.65338 0.60005 0.0
C1540 C 0.0191 0.70048 0.68451 0.0
C1541 C 0.01238 0.70207 0.65336 0.0
C1542 C 0.03098 0.71141 0.68149 0.0
N1543 N 0.01007 0.69607 0.67054 0.0
C1544 C 0.02408 0.71302 0.64974 0.0
C1545 C 0.03362 0.71784 0.66387 0.0
H1546 H 0.01714 0.69546 0.69797 0.0
H1547 H 0.00508 0.69836 0.64243 0.0
C1548 C 0.94975 0.66434 0.64463 0.0
N1549 N 0.96164 0.66738 0.63877 0.0
C1550 C 0.94109 0.66464 0.6318 0.0
C1551 C 0.95701 0.6711 0.60696 0.0
C1552 C 0.96538 0.67066 0.62031 0.0
C1553 C 0.94472 0.66822 0.61271 0.0
H1554 H 0.94713 0.66204 0.65949 0.0
H1555 H 0.97497 0.67335 0.61606 0.0
O1556 O 0.99119 0.67087 0.69788 0.0
O1557 O 0.96425 0.65557 0.67931 0.0
O1558 O 0.97872 0.68391 0.67462 0.0
O1559 O 0.98863 0.66759 0.65436 0.0
H1560 H 0.99118 0.65442 0.72284 0.0
H1561 H 0.99701 0.69227 0.71605 0.0
H1562 H 0.99539 0.65856 0.75757 0.0
H1563 H 1.00112 0.69578 0.75091 0.0
H1564 H 0.9342 0.61866 0.65158 0.0
H1565 H 0.95339 0.64271 0.71097 0.0
H1566 H 0.95221 0.64087 0.64949 0.0
H1567 H 0.93525 0.62051 0.71199 0.0
H1568 H 0.95378 0.65989 0.75914 0.0
H1569 H 0.94548 0.68357 0.72243 0.0
H1570 H 0.99496 0.62551 0.66148 0.0
H1571 H 0.97173 0.61739 0.71222 0.0
H1572 H 0.98076 0.69421 0.64049 0.0
H1573 H 0.98711 0.7022 0.70072 0.0
H1574 H 0.98958 0.7173 0.63448 0.0
H1575 H 0.99598 0.72518 0.69366 0.0
H1576 H 0.00391 0.68032 0.62553 0.0
H1577 H 0.97244 0.64408 0.64282 0.0
H1578 H 1.0025 0.67153 0.59301 0.0
H1579 H 0.97149 0.63593 0.60996 0.0
H1580 H 0.03809 0.71465 0.69271 0.0
H1581 H 0.02557 0.71772 0.63603 0.0
H1582 H 0.93182 0.66256 0.63698 0.0
H1583 H 0.96018 0.67383 0.59236 0.0
H1584 H 0.20711 0.33277 0.12008 0.0
H1585 H 0.17828 0.33529 0.08823 0.0
H1586 H 0.17743 0.33471 0.15028 0.0
H1587 H 0.15662 0.32471 0.14592 0.0
H1588 H 0.13215 0.33642 0.12014 0.0
H1589 H 0.16714 0.34546 0.09221 0.0
C1590 C 0.1984 0.33325 0.1199 0.0
C1591 C 0.19253 0.33315 0.13713 0.0
C1592 C 0.19346 0.3343 0.10241 0.0
C1593 C 0.1822 0.33495 0.10197 0.0
C1594 C 0.17599 0.33486 0.11922 0.0
C1595 C 0.18158 0.33433 0.13677 0.0
C1596 C 0.1637 0.33514 0.11913 0.0
C1597 C 0.15489 0.32962 0.13441 0.0
C1598 C 0.14356 0.3301 0.13484 0.0
C1599 C 0.14086 0.33594 0.1198 0.0
C1600 C 0.14922 0.34135 0.1044 0.0
C1601 C 0.16062 0.34094 0.10401 0.0
H1602 H 0.67045 0.87478 0.12011 0.0
H1603 H 0.66199 0.84064 0.08997 0.0
H1604 H 0.6779 0.84752 0.14721 0.0
H1605 H 0.66594 0.8264 0.1491 0.0
H1606 H 0.6685 0.79703 0.11901 0.0
H1607 H 0.67193 0.82899 0.08774 0.0
C1608 C 0.67047 0.86583 0.11962 0.0
C1609 C 0.67458 0.86192 0.13556 0.0
C1610 C 0.66608 0.85828 0.10318 0.0
C1611 C 0.66578 0.84654 0.1026 0.0
C1612 C 0.66985 0.84228 0.11856 0.0
C1613 C 0.67437 0.85023 0.13492 0.0
C1614 C 0.6692 0.82956 0.11846 0.0
C1615 C 0.66742 0.82279 0.13577 0.0
C1616 C 0.6672 0.81109 0.13604 0.0
C1617 C 0.6686 0.80603 0.11887 0.0
C1618 C 0.67013 0.81233 0.10148 0.0
C1619 C 0.67042 0.82407 0.10125 0.0
H1620 H 0.21194 0.8673 0.12493 0.0
H1621 H 0.17867 0.84361 0.09165 0.0
H1622 H 0.17832 0.83911 0.15326 0.0
H1623 H 0.15801 0.83203 0.15037 0.0
H1624 H 0.12775 0.80078 0.12024 0.0
H1625 H 0.16375 0.82291 0.09254 0.0
C1626 C 0.2022 0.85943 0.12422 0.0
C1627 C 0.19564 0.85377 0.1411 0.0
C1628 C 0.1962 0.85563 0.10644 0.0
C1629 C 0.1833 0.84603 0.10548 0.0
C1630 C 0.17652 0.83973 0.1223 0.0
C1631 C 0.18297 0.84374 0.14006 0.0
C1632 C 0.16283 0.82912 0.12148 0.0
C1633 C 0.15471 0.82629 0.13754 0.0
C1634 C 0.14214 0.81597 0.13735 0.0
C1635 C 0.13736 0.8089 0.12053 0.0
C1636 C 0.14504 0.81158 0.10434 0.0
C1637 C 0.15782 0.82144 0.10492 0.0
H1638 H 0.33791 0.12968 0.89473 0.0
H1639 H 0.33768 0.16009 0.92555 0.0
H1640 H 0.34498 0.16331 0.86455 0.0
H1641 H 0.33516 0.17458 0.86529 0.0
H1642 H 0.3463 0.21034 0.89214 0.0
H1643 H 0.34876 0.18142 0.92393 0.0
C1644 C 0.33885 0.13907 0.89472 0.0
C1645 C 0.34137 0.14584 0.87757 0.0
C1646 C 0.33782 0.14427 0.91201 0.0
C1647 C 0.33882 0.15635 0.91211 0.0
C1648 C 0.34101 0.16333 0.89489 0.0
C1649 C 0.34252 0.15796 0.87776 0.0
C1650 C 0.34199 0.17622 0.89459 0.0
C1651 C 0.33892 0.18064 0.87776 0.0
C1652 C 0.34089 0.19306 0.87668 0.0
C1653 C 0.34523 0.2009 0.8928 0.0
C1654 C 0.34778 0.19665 0.90992 0.0
C1655 C 0.34626 0.18436 0.91079 0.0
H1656 H 0.80219 0.1268 0.90164 0.0
H1657 H 0.82613 0.16221 0.93021 0.0
H1658 H 0.83398 0.15656 0.87169 0.0
H1659 H 0.84098 0.17724 0.86972 0.0
H1660 H 0.87246 0.20882 0.89719 0.0
H1661 H 0.84775 0.17575 0.93035 0.0
C1662 C 0.81061 0.13622 0.90151 0.0
C1663 C 0.81762 0.14092 0.88462 0.0
C1664 C 0.8138 0.14373 0.91801 0.0
C1665 C 0.8241 0.15632 0.91759 0.0
C1666 C 0.83162 0.16124 0.90088 0.0
C1667 C 0.82829 0.15327 0.88457 0.0
C1668 C 0.84276 0.17463 0.90018 0.0
C1669 C 0.84644 0.18137 0.88263 0.0
C1670 C 0.85715 0.19363 0.88152 0.0
C1671 C 0.86412 0.19936 0.89808 0.0
C1672 C 0.86077 0.19302 0.91566 0.0
C1673 C 0.85004 0.18069 0.91677 0.0
H1674 H 0.80252 0.67634 0.89603 0.0
H1675 H 0.82291 0.66069 0.92435 0.0
H1676 H 0.83443 0.67751 0.86794 0.0
H1677 H 0.84092 0.66374 0.86494 0.0
H1678 H 0.8678 0.65696 0.89455 0.0
H1679 H 0.84389 0.66679 0.9268 0.0
C1680 C 0.81052 0.67467 0.89628 0.0
C1681 C 0.8182 0.67739 0.88007 0.0
C1682 C 0.81232 0.66884 0.91228 0.0
C1683 C 0.82206 0.66575 0.9122 0.0
C1684 C 0.83037 0.66891 0.89632 0.0
C1685 C 0.82831 0.67486 0.88036 0.0
C1686 C 0.8408 0.66559 0.89597 0.0
C1687 C 0.84514 0.66334 0.87837 0.0
C1688 C 0.85492 0.66036 0.87783 0.0
C1689 C 0.86008 0.65907 0.89495 0.0
C1690 C 0.85603 0.66119 0.91258 0.0
C1691 C 0.84659 0.66471 0.91309 0.0
H1692 H 0.88067 0.682 0.45745 0.0
H1693 H 0.84696 0.67182 0.42498 0.0
H1694 H 0.84748 0.67721 0.48642 0.0
H1695 H 0.82701 0.66408 0.48413 0.0
H1696 H 0.79631 0.66378 0.45365 0.0
H1697 H 0.83242 0.67811 0.42582 0.0
C1698 C 0.87093 0.68015 0.45693 0.0
C1699 C 0.86463 0.67965 0.47392 0.0
C1700 C 0.86466 0.67753 0.43934 0.0
C1701 C 0.8518 0.67433 0.43865 0.0
C1702 C 0.84529 0.67429 0.45554 0.0
C1703 C 0.85196 0.677 0.47316 0.0
C1704 C 0.83162 0.67127 0.4549 0.0
C1705 C 0.8236 0.66617 0.4711 0.0
C1706 C 0.81094 0.66357 0.47069 0.0
C1707 C 0.80602 0.66554 0.45381 0.0
C1708 C 0.81366 0.67061 0.43757 0.0
C1709 C 0.8265 0.67371 0.43824 0.0
H1710 H 0.33079 0.2055 0.45602 0.0
H1711 H 0.33535 0.17758 0.42475 0.0
H1712 H 0.33026 0.17458 0.48629 0.0
H1713 H 0.34326 0.16646 0.48367 0.0
H1714 H 0.3369 0.132 0.45718 0.0
H1715 H 0.32513 0.15556 0.42796 0.0
C1716 C 0.33132 0.19682 0.45585 0.0
C1717 C 0.33045 0.19058 0.47305 0.0
C1718 C 0.33303 0.19217 0.43847 0.0
C1719 C 0.33377 0.18095 0.43825 0.0
C1720 C 0.33299 0.17447 0.45551 0.0
C1721 C 0.33124 0.17943 0.47286 0.0
C1722 C 0.33421 0.16273 0.45562 0.0
C1723 C 0.33962 0.16 0.47161 0.0
C1724 C 0.34054 0.14894 0.47212 0.0
C1725 C 0.33621 0.14059 0.45661 0.0
C1726 C 0.33058 0.14283 0.44073 0.0
C1727 C 0.32972 0.154 0.44012 0.0
H1728 H 0.87577 0.20571 0.45628 0.0
H1729 H 0.8453 0.17671 0.42307 0.0
H1730 H 0.84675 0.17269 0.48459 0.0
H1731 H 0.82601 0.16133 0.48224 0.0
H1732 H 0.80191 0.12611 0.45363 0.0
H1733 H 0.83407 0.15547 0.42376 0.0
C1734 C 0.86696 0.19661 0.45555 0.0
C1735 C 0.86167 0.18979 0.47234 0.0
C1736 C 0.86119 0.19189 0.43781 0.0
C1737 C 0.84976 0.18008 0.43688 0.0
C1738 C 0.8441 0.17295 0.45375 0.0
C1739 C 0.85035 0.17799 0.47143 0.0
C1740 C 0.83194 0.16021 0.45316 0.0
C1741 C 0.824 0.15552 0.46955 0.0
C1742 C 0.81347 0.14311 0.46993 0.0
C1743 C 0.81028 0.13558 0.45352 0.0
C1744 C 0.81746 0.14014 0.4368 0.0
C1745 C 0.82835 0.15237 0.43662 0.0
H1746 H 0.00442 0.46496 0.22935 0.0
H1747 H 0.0138 0.49994 0.25773 0.0
H1748 H 0.99394 0.49023 0.20321 0.0
H1749 H 0.00379 0.51099 0.19949 0.0
H1750 H 1.00115 0.54012 0.23006 0.0
H1751 H 0.004 0.51134 0.26154 0.0
C1752 C 0.0042 0.4738 0.22973 0.0
C1753 C 0.9988 0.47687 0.21449 0.0
C1754 C 0.00949 0.48202 0.24532 0.0
C1755 C 0.00937 0.49357 0.24574 0.0
C1756 C 0.00392 0.49693 0.23046 0.0
C1757 C 0.99856 0.48831 0.21492 0.0
C1758 C 0.00372 0.50927 0.23052 0.0
C1759 C 0.00324 0.51497 0.21306 0.0
C1760 C 1.00187 0.5258 0.21287 0.0
C1761 C 1.00172 0.53146 0.23018 0.0
C1762 C 1.00277 0.52646 0.24764 0.0
C1763 C 0.00367 0.51533 0.24786 0.0
H1764 H 0.46573 0.46462 0.2286 0.0
H1765 H 0.48906 0.50087 0.2553 0.0
H1766 H 0.49957 0.49247 0.20014 0.0
H1767 H 0.50737 0.5132 0.19575 0.0
H1768 H 0.53597 0.54664 0.22419 0.0
H1769 H 0.5105 0.5141 0.25759 0.0
C1770 C 0.47427 0.47396 0.22847 0.0
C1771 C 0.48238 0.47767 0.21265 0.0
C1772 C 0.4767 0.48222 0.24385 0.0
C1773 C 0.48756 0.49445 0.24355 0.0
C1774 C 0.49601 0.4985 0.22773 0.0
C1775 C 0.49327 0.48986 0.21236 0.0
C1776 C 0.50728 0.5118 0.22683 0.0
C1777 C 0.5119 0.51794 0.20898 0.0
C1778 C 0.52226 0.53044 0.20798 0.0
C1779 C 0.52784 0.53703 0.22489 0.0
C1780 C 0.52354 0.53125 0.24273 0.0
C1781 C 0.51346 0.51857 0.2437 0.0
H1782 H 0.46628 0.00551 0.23228 0.0
H1783 H 0.48732 0.99052 0.26054 0.0
H1784 H 0.49676 0.00497 0.20251 0.0
H1785 H 0.50406 0.99185 0.20038 0.0
H1786 H 0.53224 0.98703 0.22996 0.0
H1787 H 0.5082 0.9967 0.26198 0.0
C1788 C 0.47414 0.00361 0.23229 0.0
C1789 C 0.48118 0.00559 0.21559 0.0
C1790 C 0.4764 0.99831 0.24853 0.0
C1791 C 0.48605 0.99508 0.24812 0.0
C1792 C 0.49381 0.99759 0.23168 0.0
C1793 C 0.49115 0.00286 0.21542 0.0
C1794 C 0.50442 0.9945 0.23129 0.0
C1795 C 0.50859 0.99196 0.21375 0.0
C1796 C 0.51868 0.98941 0.21319 0.0
C1797 C 0.52429 0.98879 0.2303 0.0
C1798 C 0.52041 0.99121 0.24782 0.0
C1799 C 0.51068 0.99431 0.24834 0.0
H1800 H 0.54761 0.01585 0.79725 0.0
H1801 H 0.51544 0.00734 0.76189 0.0
H1802 H 0.51327 0.01007 0.8235 0.0
H1803 H 0.49299 0.99689 0.81912 0.0
H1804 H 0.46375 0.9985 0.78715 0.0
H1805 H 0.50084 0.01366 0.76241 0.0
C1806 C 0.53793 0.01409 0.79591 0.0
C1807 C 0.5309 0.0129 0.81238 0.0
C1808 C 0.53249 0.01234 0.77774 0.0
C1809 C 0.51966 0.00917 0.77601 0.0
C1810 C 0.51242 0.00836 0.79243 0.0
C1811 C 0.51831 0.01035 0.81059 0.0
C1812 C 0.49881 0.00539 0.79076 0.0
C1813 C 0.49014 0.99961 0.80612 0.0
C1814 C 0.47757 0.99727 0.80497 0.0
C1815 C 0.47338 1.00006 0.78802 0.0
C1816 C 0.48169 0.0058 0.77266 0.0
C1817 C 0.49442 0.00867 0.77412 0.0
H1818 H 1.0005 0.53801 0.78633 0.0
H1819 H 0.99104 0.5032 0.7575 0.0
H1820 H 0.00666 0.51033 0.81494 0.0
H1821 H 0.99455 0.48939 0.81754 0.0
H1822 H 0.99577 0.45892 0.78864 0.0
H1823 H 1.00015 0.49084 0.75612 0.0
C1824 C 1.0002 0.5289 0.7863 0.0
C1825 C 0.00396 0.52495 0.80258 0.0
C1826 C 0.99576 0.5212 0.77004 0.0
C1827 C 0.99489 0.50919 0.77002 0.0
C1828 C 0.99863 0.5049 0.78631 0.0
C1829 C 0.00331 0.51305 0.80245 0.0
C1830 C 0.99755 0.49197 0.78675 0.0
C1831 C 0.99573 0.48545 0.80433 0.0
C1832 C 0.99514 0.47359 0.80505 0.0
C1833 C 0.99616 0.46807 0.78811 0.0
C1834 C 0.99784 0.47417 0.77051 0.0
C1835 C 0.99851 0.48609 0.76979 0.0
H1836 H 0.53638 0.54335 0.78619 0.0
H1837 H 0.51688 0.50592 0.76174 0.0
H1838 H 0.50473 0.51345 0.81613 0.0
H1839 H 0.4988 0.49329 0.82139 0.0
H1840 H 0.4718 0.4585 0.79422 0.0
H1841 H 0.49576 0.49097 0.75953 0.0
C1842 C 0.52855 0.53357 0.78673 0.0
C1843 C 0.52079 0.52925 0.80294 0.0
C1844 C 0.52708 0.52525 0.77183 0.0
C1845 C 0.51753 0.51235 0.77301 0.0
C1846 C 0.50912 0.50781 0.78886 0.0
C1847 C 0.51092 0.51649 0.80376 0.0
C1848 C 0.49881 0.49405 0.79024 0.0
C1849 C 0.49454 0.48813 0.80832 0.0
C1850 C 0.4848 0.47536 0.80977 0.0
C1851 C 0.47955 0.46829 0.79311 0.0
C1852 C 0.48359 0.47376 0.77502 0.0
C1853 C 0.49303 0.4867 0.77359 0.0
H1854 H 0.6749 0.79897 0.56283 0.0
H1855 H 0.67015 0.82623 0.59547 0.0
H1856 H 0.67576 0.83051 0.53405 0.0
H1857 H 0.66347 0.83913 0.53665 0.0
H1858 H 0.6696 0.873 0.56524 0.0
H1859 H 0.67927 0.8478 0.59398 0.0
C1860 C 0.67442 0.80767 0.5634 0.0
C1861 C 0.67538 0.81422 0.5465 0.0
C1862 C 0.67265 0.81201 0.58101 0.0
C1863 C 0.67184 0.82318 0.58178 0.0
C1864 C 0.67273 0.83002 0.56483 0.0
C1865 C 0.67463 0.82539 0.54725 0.0
C1866 C 0.67156 0.8418 0.56526 0.0
C1867 C 0.66681 0.84522 0.54913 0.0
C1868 C 0.66614 0.85646 0.54898 0.0
C1869 C 0.66989 0.86419 0.56527 0.0
C1870 C 0.67441 0.86098 0.58148 0.0
C1871 C 0.67534 0.84988 0.5815 0.0
H1872 H 0.12784 0.80171 0.56239 0.0
H1873 H 0.15715 0.83306 0.59373 0.0
H1874 H 0.16356 0.82565 0.53518 0.0
H1875 H 0.1764 0.84596 0.53368 0.0
H1876 H 0.20974 0.87269 0.56397 0.0
H1877 H 0.17804 0.84407 0.59557 0.0
C1878 C 0.13734 0.81001 0.56289 0.0
C1879 C 0.14507 0.81333 0.54669 0.0
C1880 C 0.14177 0.8169 0.57992 0.0
C1881 C 0.15414 0.82759 0.58063 0.0
C1882 C 0.16225 0.83127 0.56439 0.0
C1883 C 0.1576 0.82364 0.54767 0.0
C1884 C 0.17539 0.84299 0.56458 0.0
C1885 C 0.18135 0.84912 0.54719 0.0
C1886 C 0.19387 0.85946 0.54692 0.0
C1887 C 0.20029 0.86431 0.56416 0.0
C1888 C 0.19449 0.85902 0.58167 0.0
C1889 C 0.18214 0.84828 0.58189 0.0
H1890 H 0.13492 0.34396 0.56247 0.0
H1891 H 0.15819 0.33099 0.58913 0.0
H1892 H 0.16753 0.34788 0.53257 0.0
H1893 H 0.17537 0.33475 0.52944 0.0
H1894 H 0.2061 0.33384 0.55811 0.0
H1895 H 0.17995 0.34025 0.59087 0.0
C1896 C 0.14336 0.343 0.56215 0.0
C1897 C 0.15087 0.3464 0.54567 0.0
C1898 C 0.14604 0.33757 0.5778 0.0
C1899 C 0.15653 0.33563 0.57715 0.0
C1900 C 0.16462 0.33945 0.56095 0.0
C1901 C 0.16159 0.34481 0.54522 0.0
C1902 C 0.17602 0.33768 0.56027 0.0
C1903 C 0.18039 0.33555 0.54263 0.0
C1904 C 0.1912 0.33416 0.54187 0.0
C1905 C 0.19766 0.3348 0.55873 0.0
C1906 C 0.1936 0.33691 0.57633 0.0
C1907 C 0.18279 0.33831 0.57717 0.0
H1908 H 0.01121 0.4158 0.08069 0.0
H1909 H 0.00846 0.42977 0.10297 0.0
H1910 H 0.97345 0.39782 0.12338 0.0
H1911 H 0.97586 0.38376 0.10067 0.0
H1912 H 0.98445 0.43258 0.10714 0.0
H1913 H 0.99876 0.41528 0.17114 0.0
H1914 H 0.00352 0.41377 0.14725 0.0
H1915 H 0.98736 0.40364 0.15483 0.0
C1916 C 1.00281 0.41173 0.08969 0.0
C1917 C 0.99374 0.39862 0.08883 0.0
C1918 C 1.00129 0.41974 0.10246 0.0
C1919 C 0.99077 0.41481 0.11476 0.0
C1920 C 0.98167 0.40177 0.11401 0.0
H1921 H 0.98067 0.45175 0.21427 0.0
H1922 H 0.97639 0.43635 0.18861 0.0
C1923 C 0.98313 0.39374 0.10114 0.0
C1924 C 0.98956 0.4233 0.12876 0.0
H1925 H 0.99386 0.4315 0.17591 0.0
C1926 C 0.98641 0.43232 0.12222 0.0
C1927 C 0.99208 0.42286 0.14836 0.0
C1928 C 0.99568 0.41343 0.15595 0.0
C1929 C 0.98574 0.441 0.13486 0.0
C1930 C 0.98865 0.44083 0.15443 0.0
C1931 C 0.99158 0.43162 0.16094 0.0
C1932 C 0.98935 0.45042 0.1684 0.0
C1933 C 0.9818 0.45014 0.12713 0.0
C1934 C 0.99771 0.46352 0.16538 0.0
C1935 C 0.99998 0.47235 0.17994 0.0
C1936 C 0.9941 0.46817 0.19783 0.0
C1937 C 0.98526 0.45518 0.20053 0.0
C1938 C 0.98286 0.44639 0.18592 0.0
H1939 H 0.97581 0.44626 0.1141 0.0
H1940 H 0.97641 0.45227 0.13793 0.0
H1941 H 0.99046 0.4592 0.1231 0.0
H1942 H 0.00309 0.46686 0.15222 0.0
H1943 H 0.007 0.48229 0.17767 0.0
H1944 H 0.60698 0.58709 0.07769 0.0
H1945 H 0.58984 0.57173 0.09825 0.0
H1946 H 0.57883 0.59972 0.11092 0.0
H1947 H 0.59553 0.61494 0.08969 0.0
H1948 H 0.58573 0.57263 0.1359 0.0
H1949 H 0.54504 0.5696 0.09531 0.0
H1950 H 0.561 0.57707 0.08569 0.0
H1951 H 0.55649 0.58564 0.10198 0.0
C1952 C 0.60082 0.58995 0.08467 0.0
C1953 C 0.6026 0.60225 0.08189 0.0
C1954 C 0.59106 0.58117 0.09649 0.0
C1955 C 0.58285 0.58447 0.10579 0.0
C1956 C 0.58482 0.59684 0.1035 0.0
H1957 H 0.52809 0.55414 0.19587 0.0
H1958 H 0.54176 0.56604 0.16887 0.0
C1959 C 0.59454 0.60561 0.09159 0.0
C1960 C 0.57251 0.57511 0.11838 0.0
H1961 H 0.54045 0.56069 0.12685 0.0
C1962 C 0.57581 0.5699 0.13377 0.0
C1963 C 0.55955 0.5715 0.11554 0.0
C1964 C 0.55527 0.57614 0.09862 0.0
C1965 C 0.56659 0.56156 0.14681 0.0
C1966 C 0.55371 0.55825 0.14428 0.0
C1967 C 0.55034 0.56325 0.12871 0.0
C1968 C 0.54383 0.55035 0.15852 0.0
C1969 C 0.57074 0.55669 0.16361 0.0
C1970 C 0.54005 0.53744 0.1611 0.0
C1971 C 0.53216 0.53059 0.17646 0.0
C1972 C 0.52804 0.53661 0.18948 0.0
C1973 C 0.53119 0.5493 0.18608 0.0
C1974 C 0.53898 0.55609 0.17069 0.0
H1975 H 0.58128 0.56166 0.16509 0.0
H1976 H 0.56661 0.55789 0.17709 0.0
H1977 H 0.56719 0.54635 0.16169 0.0
H1978 H 0.54363 0.53282 0.15173 0.0
H1979 H 0.52995 0.52086 0.17883 0.0
H1980 H 0.42396 0.0269 0.0743 0.0
H1981 H 0.43992 0.02826 0.09715 0.0
H1982 H 0.41027 0.99725 0.12952 0.0
H1983 H 0.39425 0.99627 0.10712 0.0
H1984 H 0.4263 0.01462 0.15278 0.0
H1985 H 0.45442 0.00521 0.09954 0.0
H1986 H 0.45344 0.01912 0.09382 0.0
H1987 H 0.43919 0.00367 0.09389 0.0
C1988 C 0.42088 0.02042 0.08635 0.0
C1989 C 0.4079 0.01145 0.08894 0.0
C1990 C 0.43001 0.02111 0.0993 0.0
C1991 C 0.42638 0.01262 0.1148 0.0
C1992 C 0.41335 0.00386 0.11762 0.0
H1993 H 0.47267 0.99185 0.18283 0.0
H1994 H 0.4604 0.99471 0.15743 0.0
C1995 C 0.40419 0.00332 0.10487 0.0
C1996 C 0.43607 0.01292 0.12824 0.0
H1997 H 0.46343 0.01132 0.13061 0.0
C1998 C 0.43441 0.01389 0.14791 0.0
C1999 C 0.44657 0.01177 0.12194 0.0
C2000 C 0.44846 0.00975 0.10117 0.0
C2001 C 0.44286 0.01367 0.16145 0.0
C2002 C 0.45363 0.013 0.15512 0.0
C2003 C 0.45532 0.01206 0.13545 0.0
C2004 C 0.46274 0.0124 0.1688 0.0
C2005 C 0.43982 0.01362 0.1824 0.0
C2006 C 0.46874 0.02173 0.18307 0.0
C2007 C 0.47559 0.01999 0.19771 0.0
C2008 C 0.4769 0.00911 0.19798 0.0
C2009 C 0.4719 1.00038 0.1828 0.0
C2010 C 0.46483 1.00199 0.16836 0.0
H2011 H 0.42959 0.0105 0.18468 0.0
H2012 H 0.44213 0.00723 0.19069 0.0
H2013 H 0.44553 0.02343 0.18819 0.0
H2014 H 0.46764 0.03006 0.18337 0.0
H2015 H 0.47938 0.02684 0.2093 0.0
H2016 H 0.39393 0.9741 0.93884 0.0
H2017 H 0.40856 0.97266 0.91618 0.0
H2018 H 0.41935 0.01009 0.89464 0.0
H2019 H 0.40454 0.01146 0.917 0.0
H2020 H 0.41577 0.99405 0.86613 0.0
H2021 H 0.44677 0.99012 0.92081 0.0
H2022 H 0.43035 0.97787 0.92276 0.0
H2023 H 0.43481 0.99426 0.92678 0.0
C2024 C 0.39944 0.98202 0.92927 0.0
C2025 C 0.39813 0.99292 0.92975 0.0
C2026 C 0.40786 0.98122 0.91641 0.0
C2027 C 0.41529 0.99139 0.904 0.0
C2028 C 0.41377 0.00215 0.90415 0.0
H2029 H 0.483 0.00847 0.84008 0.0
H2030 H 0.46762 0.00574 0.865 0.0
C2031 C 0.40526 0.00291 0.91687 0.0
C2032 C 0.42451 0.99078 0.89062 0.0
H2033 H 0.45065 0.98703 0.88849 0.0
C2034 C 0.42339 0.99251 0.87103 0.0
C2035 C 0.43457 0.98894 0.89704 0.0
C2036 C 0.43681 0.98782 0.91801 0.0
C2037 C 0.43201 0.99246 0.85768 0.0
C2038 C 0.44183 0.99021 0.86401 0.0
C2039 C 0.443 0.98853 0.88362 0.0
C2040 C 0.45139 0.99035 0.85055 0.0
C2041 C 0.43076 0.99525 0.837 0.0
C2042 C 0.44752 0.98213 0.83469 0.0
C2043 C 0.45627 0.98373 0.8204 0.0
C2044 C 0.4691 0.99341 0.82193 0.0
C2045 C 0.47319 1.00087 0.83862 0.0
C2046 C 0.46439 0.99936 0.8528 0.0
H2047 H 0.42504 1.00006 0.83544 0.0
H2048 H 0.44026 1.0014 0.83042 0.0
H2049 H 0.42585 0.98616 0.8289 0.0
H2050 H 0.43761 0.97485 0.83292 0.0
H2051 H 0.4529 0.97782 0.80772 0.0
H2052 H 0.98736 0.38821 0.91753 0.0
H2053 H 0.98578 0.40307 0.89553 0.0
H2054 H 0.01831 0.43457 0.92258 0.0
H2055 H 0.02027 0.41976 0.94412 0.0
H2056 H 0.98183 0.4232 0.90463 0.0
H2057 H 0.02774 0.44074 0.86621 0.0
H2058 H 0.02091 0.42665 0.88103 0.0
H2059 H 0.02923 0.44222 0.89176 0.0
C2060 C 0.99434 0.39827 0.91856 0.0
C2061 C 0.00397 0.40277 0.93257 0.0
C2062 C 0.99335 0.40676 0.90609 0.0
C2063 C 1.00199 0.41991 0.9073 0.0
C2064 C 0.01165 0.42444 0.92118 0.0
H2065 H 0.00996 0.48329 0.83696 0.0
H2066 H 0.011 0.47115 0.86436 0.0
C2067 C 0.01267 0.41596 0.93362 0.0
C2068 C 1.00069 0.4289 0.89434 0.0
H2069 H 0.01605 0.45108 0.85935 0.0
C2070 C 0.98931 0.42931 0.89473 0.0
C2071 C 0.0105 0.43692 0.88153 0.0
C2072 C 0.02275 0.43657 0.87992 0.0
C2073 C 0.98745 0.43748 0.8826 0.0
C2074 C 0.99716 0.44533 0.86958 0.0
C2075 C 0.00864 0.44512 0.86946 0.0
C2076 C 0.99529 0.45306 0.85486 0.0
C2077 C 0.97511 0.43766 0.88385 0.0
C2078 C 0.98594 0.44697 0.84071 0.0
C2079 C 0.98534 0.45386 0.82514 0.0
C2080 C 0.99409 0.46698 0.82339 0.0
C2081 C 0.00301 0.47322 0.83809 0.0
C2082 C 0.00366 0.46629 0.85364 0.0
H2083 H 0.97044 0.43419 0.89797 0.0
H2084 H 0.97671 0.44741 0.88144 0.0
H2085 H 0.96846 0.43128 0.87269 0.0
H2086 H 0.97953 0.43675 0.84116 0.0
H2087 H 0.97838 0.44883 0.81399 0.0
H2088 H 0.59424 0.59086 0.93508 0.0
H2089 H 0.57709 0.57698 0.91327 0.0
H2090 H 0.57516 0.60938 0.89208 0.0
H2091 H 0.59216 0.62337 0.91421 0.0
H2092 H 0.55125 0.57381 0.90984 0.0
H2093 H 0.58087 0.59206 0.844 0.0
H2094 H 0.58784 0.59442 0.86753 0.0
H2095 H 0.58083 0.60368 0.85998 0.0
C2096 C 0.59009 0.59505 0.92596 0.0
C2097 C 0.5946 0.60826 0.92643 0.0
C2098 C 0.58031 0.5871 0.91347 0.0
C2099 C 0.57491 0.59217 0.90105 0.0
C2100 C 0.57931 0.60531 0.90145 0.0
H2101 H 0.52535 0.55373 0.80393 0.0
H2102 H 0.53627 0.56939 0.82936 0.0
C2103 C 0.58907 0.61329 0.91403 0.0
C2104 C 0.56487 0.58366 0.88741 0.0
H2105 H 0.55965 0.57576 0.84017 0.0
C2106 C 0.55301 0.57427 0.89457 0.0
C2107 C 0.5672 0.58435 0.86754 0.0
C2108 C 0.57988 0.5941 0.8592 0.0
C2109 C 0.54344 0.56543 0.88234 0.0
C2110 C 0.54593 0.56584 0.86251 0.0
C2111 C 0.5577 0.57546 0.85535 0.0
C2112 C 0.53697 0.55593 0.84895 0.0
C2113 C 0.53077 0.55581 0.8908 0.0
C2114 C 0.53328 0.54304 0.85177 0.0
C2115 C 0.52689 0.53405 0.83734 0.0
C2116 C 0.52427 0.53784 0.81973 0.0
C2117 C 0.52725 0.55057 0.81738 0.0
C2118 C 0.53353 0.55952 0.83187 0.0
H2119 H 0.52879 0.55946 0.90419 0.0
H2120 H 0.52283 0.55329 0.8806 0.0
H2121 H 0.53098 0.547 0.89443 0.0
H2122 H 0.53608 0.54006 0.86459 0.0
H2123 H 0.5249 0.52436 0.8394 0.0
H2124 H 0.02099 0.61669 0.90882 0.0
H2125 H 0.02154 0.60109 0.88708 0.0
H2126 H 0.99917 0.57096 0.92708 0.0
H2127 H 0.99822 0.58635 0.94856 0.0
H2128 H 0.03075 0.58377 0.89374 0.0
H2129 H 0.97894 0.55853 0.87689 0.0
H2130 H 0.987 0.57405 0.88805 0.0
H2131 H 0.9827 0.55998 0.90193 0.0
C2132 C 0.01608 0.60673 0.9129 0.0
C2133 C 0.00952 0.60277 0.93041 0.0
C2134 C 0.0165 0.59785 0.90055 0.0
C2135 C 0.01029 0.58486 0.9054 0.0
C2136 C 0.00389 0.58092 0.92295 0.0
H2137 H 0.99568 0.5178 0.83927 0.0
H2138 H 0.99871 0.53191 0.86636 0.0
C2139 C 0.00347 0.58976 0.93529 0.0
C2140 C 0.01035 0.57541 0.89202 0.0
H2141 H 0.99085 0.54961 0.86449 0.0
C2142 C 0.02204 0.57629 0.88734 0.0
C2143 C 0.99896 0.56563 0.88379 0.0
C2144 C 0.98619 0.5645 0.88775 0.0
C2145 C 0.02262 0.56761 0.87464 0.0
C2146 C 0.01125 0.55794 0.86619 0.0
C2147 C 0.99956 0.55696 0.87111 0.0
C2148 C 0.01123 0.54932 0.85111 0.0
C2149 C 0.0354 0.56881 0.87048 0.0
C2150 C 0.01752 0.5544 0.83373 0.0
C2151 C 0.01585 0.54638 0.81832 0.0
C2152 C 0.00777 0.53311 0.81993 0.0
C2153 C 1.00205 0.52797 0.83767 0.0
C2154 C 0.00371 0.53602 0.8531 0.0
H2155 H 0.0423 0.5738 0.88224 0.0
H2156 H 0.03449 0.55931 0.86829 0.0
H2157 H 0.03938 0.57448 0.85724 0.0
H2158 H 0.02318 0.56463 0.83172 0.0
H2159 H 0.02043 0.5506 0.80484 0.0
H2160 H 0.4066 0.38953 0.92047 0.0
H2161 H 0.42337 0.4048 0.89932 0.0
H2162 H 0.42055 0.43556 0.92538 0.0
H2163 H 0.40374 0.42033 0.9466 0.0
H2164 H 0.42241 0.42126 0.87301 0.0
H2165 H 0.45876 0.44833 0.92879 0.0
H2166 H 0.44475 0.43309 0.93346 0.0
H2167 H 0.4436 0.4473 0.93249 0.0
C2168 C 0.40945 0.39952 0.92159 0.0
C2169 C 0.40384 0.40371 0.93526 0.0
C2170 C 0.41911 0.40825 0.90959 0.0
C2171 C 0.42338 0.42135 0.91102 0.0
C2172 C 0.41764 0.42555 0.92436 0.0
H2173 H 0.47594 0.48446 0.83807 0.0
H2174 H 0.46188 0.47209 0.86463 0.0
C2175 C 0.408 0.41682 0.93643 0.0
C2176 C 0.43358 0.43049 0.89807 0.0
H2177 H 0.46383 0.45623 0.89705 0.0
C2178 C 0.43146 0.42889 0.87828 0.0
C2179 C 0.44538 0.44048 0.90498 0.0
C2180 C 0.44835 0.44238 0.92608 0.0
C2181 C 0.4408 0.43699 0.86522 0.0
C2182 C 0.45265 0.44685 0.87211 0.0
C2183 C 0.45474 0.44863 0.89187 0.0
C2184 C 0.46298 0.45514 0.85873 0.0
C2185 C 0.4379 0.43497 0.84409 0.0
C2186 C 0.46872 0.44989 0.84734 0.0
C2187 C 0.47674 0.45692 0.8323 0.0
C2188 C 0.47918 0.46933 0.82842 0.0
C2189 C 0.47428 0.47495 0.84084 0.0
C2190 C 0.46621 0.46788 0.85592 0.0
H2191 H 0.42752 0.42885 0.84129 0.0
H2192 H 0.44138 0.44424 0.83667 0.0
H2193 H 0.44287 0.43023 0.83781 0.0
H2194 H 0.46646 0.44012 0.84947 0.0
H2195 H 0.48048 0.4524 0.82303 0.0
H2196 H 0.58879 0.00279 0.96244 0.0
H2197 H 0.573 0.00375 0.94182 0.0
H2198 H 0.59476 0.00529 0.8921 0.0
H2199 H 0.61072 0.00449 0.91264 0.0
H2200 H 0.5771 0.02319 0.91604 0.0
H2201 H 0.5584 0.97659 0.87936 0.0
H2202 H 0.56768 0.9805 0.90109 0.0
H2203 H 0.57546 0.98637 0.87845 0.0
C2204 C 0.59026 0.00337 0.94712 0.0
C2205 C 0.60106 0.00362 0.93918 0.0
C2206 C 0.58118 0.00385 0.93536 0.0
C2207 C 0.58265 0.00446 0.91545 0.0
C2208 C 0.59333 0.00458 0.90744 0.0
H2209 H 0.55447 0.03063 0.82539 0.0
H2210 H 0.56564 0.02872 0.85317 0.0
C2211 C 0.60244 0.00411 0.91919 0.0
C2212 C 0.57327 0.00548 0.90307 0.0
H2213 H 0.55292 0.99125 0.86564 0.0
C2214 C 0.5717 0.01615 0.90514 0.0
C2215 C 0.56609 0.99618 0.8891 0.0
C2216 C 0.56687 0.98419 0.88694 0.0
C2217 C 0.56354 0.01803 0.89302 0.0
C2218 C 0.5569 0.00907 0.87836 0.0
C2219 C 0.55806 0.99814 0.87684 0.0
C2220 C 0.54947 0.01127 0.86353 0.0
C2221 C 0.56217 0.02962 0.89592 0.0
C2222 C 0.5366 0.00219 0.86027 0.0
C2223 C 0.5302 0.00326 0.84435 0.0
C2224 C 0.53664 0.01333 0.83131 0.0
C2225 C 0.5493 0.02277 0.8352 0.0
C2226 C 0.55566 0.02173 0.85113 0.0
H2227 H 0.56454 0.03323 0.91084 0.0
H2228 H 0.56886 0.03734 0.88624 0.0
H2229 H 0.55233 0.0275 0.8926 0.0
H2230 H 0.53168 0.99401 0.86962 0.0
H2231 H 0.5205 0.99578 0.84158 0.0
H2232 H 0.60169 0.98686 0.10547 0.0
H2233 H 0.58411 0.98362 0.12634 0.0
H2234 H 0.58395 0.01584 0.10047 0.0
H2235 H 0.60154 0.01917 0.07955 0.0
H2236 H 0.58285 0.99988 0.15271 0.0
H2237 H 0.54665 0.98789 0.09571 0.0
H2238 H 0.56153 0.98824 0.09153 0.0
H2239 H 0.56109 0.00285 0.09239 0.0
C2240 C 0.59801 0.99335 0.10435 0.0
C2241 C 0.60299 0.00325 0.09079 0.0
C2242 C 0.58789 0.99142 0.11619 0.0
C2243 C 0.58253 0.99931 0.11467 0.0
C2244 C 0.58769 0.00941 0.10151 0.0
H2245 H 0.52641 0.00604 0.1832 0.0
H2246 H 0.54094 0.00777 0.15742 0.0
C2247 C 0.59779 0.01133 0.08963 0.0
C2248 C 0.57177 0.99716 0.12726 0.0
H2249 H 0.54077 0.99044 0.12714 0.0
C2250 C 0.57364 0.99775 0.14711 0.0
C2251 C 0.55977 0.99444 0.11991 0.0
C2252 C 0.55705 0.9932 0.09873 0.0
C2253 C 0.56389 0.99583 0.15983 0.0
C2254 C 0.55187 0.99304 0.15251 0.0
C2255 C 0.54999 0.99254 0.13267 0.0
C2256 C 0.54124 0.99068 0.16547 0.0
C2257 C 0.56658 0.99701 0.18104 0.0
C2258 C 0.53608 0.98013 0.17779 0.0
C2259 C 0.52778 0.97911 0.19242 0.0
C2260 C 0.52446 0.9886 0.19492 0.0
C2261 C 0.52874 0.99855 0.18151 0.0
C2262 C 0.53709 0.99959 0.16687 0.0
H2263 H 0.57698 1.00196 0.18411 0.0
H2264 H 0.56243 0.00229 0.18816 0.0
H2265 H 0.56216 0.98733 0.18743 0.0
H2266 H 0.53901 0.97304 0.17671 0.0
H2267 H 0.52453 0.97128 0.20246 0.0
H2268 H 1.00191 0.61026 0.11003 0.0
H2269 H 0.00301 0.59469 0.13107 0.0
H2270 H 0.99591 0.56973 0.08295 0.0
H2271 H 0.9948 0.58522 0.06184 0.0
H2272 H 0.98131 0.557 0.1139 0.0
H2273 H 0.0319 0.58686 0.1354 0.0
H2274 H 0.0227 0.59449 0.13968 0.0
H2275 H 0.02508 0.59093 0.11556 0.0
C2276 C 1.00068 0.6015 0.10391 0.0
C2277 C 0.99826 0.59899 0.08426 0.0
C2278 C 1.00135 0.59263 0.11594 0.0
C2279 C 0.99976 0.58114 0.10852 0.0
C2280 C 0.99721 0.57855 0.08897 0.0
H2281 H 0.01675 0.53202 0.18064 0.0
H2282 H 0.01602 0.54395 0.15268 0.0
C2283 C 0.9965 0.58738 0.07695 0.0
C2284 C 1.00037 0.57167 0.12126 0.0
H2285 H 0.01922 0.56815 0.15414 0.0
C2286 C 0.98965 0.55939 0.12256 0.0
C2287 C 0.01135 0.57469 0.13224 0.0
C2288 C 0.02346 0.58742 0.13054 0.0
C2289 C 0.98939 0.55027 0.1352 0.0
C2290 C 1.00007 0.55358 0.14708 0.0
C2291 C 0.01101 0.56564 0.14514 0.0
C2292 C 0.99971 0.54511 0.16268 0.0
C2293 C 0.97766 0.53719 0.1358 0.0
C2294 C 0.99073 0.5417 0.1774 0.0
C2295 C 0.99112 0.53491 0.19323 0.0
C2296 C 1.00057 0.53145 0.19477 0.0
C2297 C 0.00931 0.53447 0.17973 0.0
C2298 C 0.00894 0.54133 0.16385 0.0
H2299 H 0.97239 0.53482 0.12202 0.0
H2300 H 0.98013 0.52972 0.13905 0.0
H2301 H 0.97115 0.537 0.14714 0.0
H2302 H 0.98369 0.54472 0.17702 0.0
H2303 H 0.98422 0.53265 0.20458 0.0
H2304 H 0.3985 0.4062 0.09624 0.0
H2305 H 0.41498 0.42186 0.11739 0.0
H2306 H 0.43643 0.4024 0.11185 0.0
H2307 H 0.41993 0.38662 0.09075 0.0
H2308 H 0.42358 0.41798 0.15197 0.0
H2309 H 0.46297 0.4395 0.09899 0.0
H2310 H 0.44649 0.42944 0.09214 0.0
H2311 H 0.45548 0.42247 0.10127 0.0
C2312 C 0.40665 0.40515 0.09967 0.0
C2313 C 0.40789 0.39514 0.09178 0.0
C2314 C 0.41611 0.41418 0.11163 0.0
C2315 C 0.42704 0.41343 0.11591 0.0
C2316 C 0.42823 0.40334 0.10835 0.0
H2317 H 0.47622 0.45276 0.21234 0.0
H2318 H 0.46426 0.43703 0.18741 0.0
C2319 C 0.41876 0.39431 0.09636 0.0
C2320 C 0.43694 0.423 0.12881 0.0
H2321 H 0.46833 0.44632 0.13123 0.0
C2322 C 0.43336 0.42416 0.14744 0.0
C2323 C 0.44967 0.43115 0.12278 0.0
C2324 C 0.45391 0.4307 0.10266 0.0
C2325 C 0.44216 0.43318 0.16026 0.0
C2326 C 0.45496 0.44113 0.15441 0.0
C2327 C 0.45855 0.44009 0.13572 0.0
C2328 C 0.46453 0.45083 0.16751 0.0
C2329 C 0.4376 0.43432 0.17986 0.0
C2330 C 0.46937 0.46387 0.16401 0.0
C2331 C 0.47634 0.4729 0.17817 0.0
C2332 C 0.4785 0.46895 0.19599 0.0
C2333 C 0.47461 0.45601 0.19875 0.0
C2334 C 0.46773 0.44704 0.18459 0.0
H2335 H 0.42703 0.42961 0.18056 0.0
H2336 H 0.44074 0.42967 0.19052 0.0
H2337 H 0.44171 0.44448 0.18402 0.0
H2338 H 0.46703 0.46698 0.15087 0.0
H2339 H 0.47914 0.4828 0.17576 0.0
H2340 H 0.68513 0.73788 0.43395 0.0
H2341 H 0.68643 0.75427 0.45578 0.0
H2342 H 0.65179 0.75023 0.4318 0.0
H2343 H 0.65009 0.73345 0.41054 0.0
H2344 H 0.68857 0.77739 0.44655 0.0
H2345 H 0.64449 0.74794 0.48861 0.0
H2346 H 0.65131 0.741 0.47315 0.0
H2347 H 0.64192 0.74733 0.46327 0.0
C2348 C 0.67762 0.74026 0.4336 0.0
C2349 C 0.66747 0.7343 0.42052 0.0
C2350 C 0.67846 0.74973 0.44596 0.0
C2351 C 0.66915 0.7534 0.44554 0.0
C2352 C 0.65897 0.74742 0.4326 0.0
H2353 H 0.66013 0.80842 0.51504 0.0
H2354 H 0.65917 0.79514 0.4878 0.0
C2355 C 0.65809 0.73791 0.42031 0.0
C2356 C 0.67031 0.76372 0.45828 0.0
H2357 H 0.65528 0.7702 0.49416 0.0
C2358 C 0.68129 0.77582 0.45696 0.0
C2359 C 0.66077 0.76168 0.47179 0.0
C2360 C 0.64901 0.74876 0.47446 0.0
C2361 C 0.68302 0.78592 0.46883 0.0
C2362 C 0.67356 0.78382 0.48247 0.0
C2363 C 0.66246 0.77181 0.48355 0.0
C2364 C 0.67539 0.79355 0.4969 0.0
C2365 C 0.69493 0.79875 0.4667 0.0
C2366 C 0.685 0.79727 0.51073 0.0
C2367 C 0.68554 0.80479 0.52622 0.0
C2368 C 0.67648 0.80873 0.52816 0.0
C2369 C 0.66731 0.80563 0.51374 0.0
C2370 C 0.66671 0.79799 0.49828 0.0
H2371 H 0.69939 0.79983 0.45243 0.0
H2372 H 0.69284 0.80661 0.46878 0.0
H2373 H 0.70196 0.79973 0.47771 0.0
H2374 H 0.69166 0.79379 0.51012 0.0
H2375 H 0.69267 0.80704 0.5372 0.0
H2376 H 0.2523 0.93919 0.40947 0.0
H2377 H 0.23655 0.9232 0.43106 0.0
H2378 H 0.26541 0.91615 0.45436 0.0
H2379 H 0.28116 0.93184 0.43233 0.0
H2380 H 0.24248 0.89382 0.44514 0.0
H2381 H 0.2335 0.92692 0.48862 0.0
H2382 H 0.23159 0.92779 0.4633 0.0
H2383 H 0.24707 0.93244 0.47292 0.0
C2384 C 0.2553 0.93421 0.41914 0.0
C2385 C 0.26801 0.93681 0.41918 0.0
C2386 C 0.24631 0.92516 0.4316 0.0
C2387 C 0.24984 0.9186 0.44447 0.0
C2388 C 0.2625 0.92116 0.44459 0.0
H2389 H 0.21748 0.86486 0.53559 0.0
H2390 H 0.22983 0.87801 0.50856 0.0
C2391 C 0.27151 0.93021 0.43212 0.0
C2392 C 0.24029 0.90888 0.45756 0.0
H2393 H 0.22049 0.90491 0.49491 0.0
C2394 C 0.23765 0.89623 0.45601 0.0
C2395 C 0.23394 0.91204 0.47163 0.0
C2396 C 0.23671 0.92555 0.47439 0.0
C2397 C 0.22888 0.88666 0.46824 0.0
C2398 C 0.22273 0.88987 0.48256 0.0
C2399 C 0.22515 0.90245 0.48383 0.0
C2400 C 0.21462 0.88063 0.49743 0.0
C2401 C 0.22626 0.87319 0.46573 0.0
C2402 C 0.20194 0.8777 0.50014 0.0
C2403 C 0.19485 0.87016 0.51566 0.0
C2404 C 0.20043 0.86565 0.52882 0.0
C2405 C 0.21297 0.86824 0.52566 0.0
C2406 C 0.22 0.87568 0.51015 0.0
H2407 H 0.22854 0.87153 0.45098 0.0
H2408 H 0.23234 0.87148 0.47578 0.0
H2409 H 0.21613 0.86614 0.46884 0.0
H2410 H 0.19766 0.88152 0.49055 0.0
H2411 H 0.18525 0.8684 0.51789 0.0
H2412 H 0.0756 0.3286 0.41158 0.0
H2413 H 0.09252 0.3323 0.43415 0.0
H2414 H 0.09442 0.36712 0.4528 0.0
H2415 H 0.07769 0.3637 0.42985 0.0
H2416 H 0.1185 0.35562 0.43697 0.0
H2417 H 0.08847 0.34474 0.50227 0.0
H2418 H 0.08164 0.3394 0.47878 0.0
H2419 H 0.08822 0.35582 0.48538 0.0
C2420 C 0.07968 0.33713 0.42031 0.0
C2421 C 0.07527 0.34587 0.41884 0.0
C2422 C 0.08932 0.3392 0.43324 0.0
C2423 C 0.09467 0.34996 0.44513 0.0
C2424 C 0.09032 0.3587 0.44382 0.0
H2425 H 0.14453 0.36501 0.54317 0.0
H2426 H 0.13282 0.36813 0.51718 0.0
C2427 C 0.0807 0.35668 0.43079 0.0
C2428 C 0.10469 0.35186 0.45906 0.0
H2429 H 0.10981 0.35019 0.50664 0.0
C2430 C 0.11667 0.35453 0.45223 0.0
C2431 C 0.10226 0.35049 0.47891 0.0
C2432 C 0.08945 0.34738 0.48689 0.0
C2433 C 0.1263 0.35579 0.46479 0.0
C2434 C 0.12374 0.35401 0.48465 0.0
C2435 C 0.11181 0.3516 0.49144 0.0
C2436 C 0.13291 0.35385 0.49865 0.0
C2437 C 0.13914 0.35912 0.45666 0.0
C2438 C 0.13725 0.34511 0.49665 0.0
C2439 C 0.14411 0.34347 0.51139 0.0
C2440 C 0.14654 0.35037 0.52852 0.0
C2441 C 0.14279 0.35959 0.53009 0.0
C2442 C 0.13606 0.36133 0.51529 0.0
H2443 H 0.14098 0.36438 0.44294 0.0
H2444 H 0.14697 0.36501 0.46679 0.0
H2445 H 0.1393 0.3502 0.45372 0.0
H2446 H 0.13469 0.339 0.4842 0.0
H2447 H 0.1467 0.33614 0.50995 0.0
H2448 H 0.08216 0.33273 0.2808 0.0
H2449 H 0.09635 0.33103 0.25763 0.0
H2450 H 0.06521 0.31291 0.21754 0.0
H2451 H 0.05097 0.31469 0.24062 0.0
H2452 H 0.09565 0.3104 0.23982 0.0
H2453 H 0.0921 0.34245 0.18656 0.0
H2454 H 0.0863 0.34095 0.21071 0.0
H2455 H 0.07698 0.32906 0.19309 0.0
C2456 C 0.0783 0.32829 0.2671 0.0
C2457 C 0.06545 0.3239 0.2625 0.0
C2458 C 0.08643 0.32735 0.25386 0.0
C2459 C 0.0819 0.32202 0.23575 0.0
C2460 C 0.06899 0.31733 0.23127 0.0
H2461 H 0.1178 0.31443 0.13375 0.0
H2462 H 0.10265 0.31067 0.15948 0.0
C2463 C 0.06086 0.31835 0.24447 0.0
C2464 C 0.09075 0.32159 0.22147 0.0
H2465 H 0.10319 0.33193 0.17695 0.0
C2466 C 0.09732 0.31511 0.22607 0.0
C2467 C 0.09299 0.32783 0.20359 0.0
C2468 C 0.08683 0.33557 0.19822 0.0
C2469 C 0.1059 0.31453 0.21311 0.0
C2470 C 0.10801 0.32067 0.19521 0.0
C2471 C 0.10146 0.32714 0.19064 0.0
C2472 C 0.11713 0.3208 0.18095 0.0
C2473 C 0.1125 0.30724 0.21854 0.0
C2474 C 0.13031 0.32736 0.18466 0.0
C2475 C 0.13901 0.3295 0.16994 0.0
C2476 C 0.13463 0.32521 0.15129 0.0
C2477 C 0.12142 0.3179 0.14797 0.0
C2478 C 0.11277 0.31576 0.16264 0.0
H2479 H 0.10772 0.30069 0.23075 0.0
H2480 H 0.11279 0.3016 0.20621 0.0
H2481 H 0.12248 0.31408 0.22277 0.0
H2482 H 0.13389 0.3315 0.19861 0.0
H2483 H 0.14913 0.33528 0.17282 0.0
H2484 H 0.68514 0.75552 0.28146 0.0
H2485 H 0.68362 0.77063 0.25985 0.0
H2486 H 0.66004 0.73981 0.22153 0.0
H2487 H 0.66142 0.7246 0.24314 0.0
H2488 H 0.69025 0.77478 0.21887 0.0
H2489 H 0.63929 0.75834 0.23394 0.0
H2490 H 0.6491 0.75508 0.24978 0.0
H2491 H 0.64292 0.74604 0.22816 0.0
C2492 C 0.67962 0.75196 0.26843 0.0
C2493 C 0.67334 0.73886 0.26402 0.0
C2494 C 0.6788 0.7606 0.25611 0.0
C2495 C 0.67157 0.75629 0.23928 0.0
C2496 C 0.66552 0.74328 0.23461 0.0
H2497 H 0.6518 0.78569 0.14292 0.0
H2498 H 0.65285 0.77351 0.16994 0.0
C2499 C 0.66642 0.73464 0.24685 0.0
C2500 C 0.6704 0.76541 0.22653 0.0
H2501 H 0.64885 0.77294 0.20834 0.0
C2502 C 0.68125 0.77449 0.21666 0.0
C2503 C 0.65864 0.76499 0.22379 0.0
C2504 C 0.64681 0.75567 0.23457 0.0
C2505 C 0.68053 0.78284 0.20345 0.0
C2506 C 0.66869 0.78229 0.20044 0.0
C2507 C 0.65792 0.7734 0.21073 0.0
C2508 C 0.66705 0.79002 0.18543 0.0
C2509 C 0.69231 0.79174 0.19218 0.0
C2510 C 0.67426 0.80342 0.18553 0.0
C2511 C 0.67376 0.81043 0.16996 0.0
C2512 C 0.66597 0.80412 0.15412 0.0
C2513 C 0.65806 0.79079 0.15477 0.0
C2514 C 0.65862 0.78382 0.17024 0.0
H2515 H 0.69976 0.78897 0.19312 0.0
H2516 H 0.68995 0.79191 0.17688 0.0
H2517 H 0.6964 0.80155 0.19797 0.0
H2518 H 0.6806 0.80842 0.19735 0.0
H2519 H 0.67994 0.82069 0.16986 0.0
H2520 H 0.27695 0.94431 0.23795 0.0
H2521 H 0.26165 0.92669 0.21779 0.0
H2522 H 0.23947 0.90729 0.26766 0.0
H2523 H 0.25481 0.92471 0.28793 0.0
H2524 H 0.24423 0.89161 0.2423 0.0
H2525 H 0.22494 0.91873 0.20474 0.0
H2526 H 0.24203 0.92616 0.20436 0.0
H2527 H 0.23395 0.92423 0.22671 0.0
C2528 C 0.26883 0.93628 0.24461 0.0
C2529 C 0.26703 0.93596 0.2645 0.0
C2530 C 0.26005 0.92628 0.23308 0.0
C2531 C 0.24935 0.91578 0.24124 0.0
C2532 C 0.24762 0.91535 0.26109 0.0
H2533 H 0.18601 0.86077 0.17097 0.0
H2534 H 0.19795 0.8742 0.19822 0.0
C2535 C 0.25634 0.92536 0.27261 0.0
C2536 C 0.24006 0.90517 0.22907 0.0
H2537 H 0.21912 0.89827 0.19224 0.0
C2538 C 0.23865 0.89302 0.23144 0.0
C2539 C 0.23266 0.907 0.21516 0.0
C2540 C 0.23335 0.9197 0.21264 0.0
C2541 C 0.23037 0.88275 0.21973 0.0
C2542 C 0.22341 0.88473 0.20524 0.0
C2543 C 0.22449 0.89677 0.20334 0.0
C2544 C 0.2156 0.87477 0.19101 0.0
C2545 C 0.22916 0.86987 0.22292 0.0
C2546 C 0.22147 0.87035 0.17827 0.0
C2547 C 0.21467 0.86267 0.16277 0.0
C2548 C 0.20189 0.85931 0.15968 0.0
C2549 C 0.1958 0.86309 0.17312 0.0
C2550 C 0.20263 0.87083 0.1886 0.0
H2551 H 0.23203 0.86897 0.23767 0.0
H2552 H 0.21923 0.86206 0.22037 0.0
H2553 H 0.23552 0.86866 0.21279 0.0
H2554 H 0.23151 0.87343 0.17967 0.0
H2555 H 0.21959 0.85987 0.15264 0.0
H2556 H 0.67515 0.94645 0.23831 0.0
H2557 H 0.67582 0.93096 0.21656 0.0
H2558 H 0.68507 0.91414 0.26371 0.0
H2559 H 0.6841 0.92932 0.28566 0.0
H2560 H 0.70054 0.91905 0.22908 0.0
H2561 H 0.64826 0.89203 0.21588 0.0
H2562 H 0.6558 0.90901 0.21265 0.0
H2563 H 0.65527 0.90263 0.23603 0.0
C2564 C 0.67723 0.93941 0.24411 0.0
C2565 C 0.67954 0.93915 0.26378 0.0
C2566 C 0.67765 0.93059 0.23164 0.0
C2567 C 0.68039 0.92136 0.23859 0.0
C2568 C 0.68296 0.92121 0.25809 0.0
H2569 H 0.66575 0.85437 0.17187 0.0
H2570 H 0.66843 0.86823 0.1992 0.0
C2571 C 0.68248 0.92997 0.27058 0.0
C2572 C 0.68039 0.91172 0.22553 0.0
H2573 H 0.66104 0.88682 0.19643 0.0
C2574 C 0.6919 0.91195 0.22201 0.0
C2575 C 0.66907 0.90235 0.21661 0.0
C2576 C 0.65636 0.90136 0.22055 0.0
C2577 C 0.69247 0.90329 0.20921 0.0
C2578 C 0.68123 0.89425 0.19969 0.0
C2579 C 0.66965 0.89377 0.20374 0.0
C2580 C 0.68133 0.88575 0.18452 0.0
C2581 C 0.70506 0.9039 0.20593 0.0
C2582 C 0.68794 0.891 0.16741 0.0
C2583 C 0.68642 0.88313 0.15185 0.0
C2584 C 0.67824 0.86986 0.15311 0.0
C2585 C 0.67221 0.86454 0.17059 0.0
C2586 C 0.67367 0.87245 0.18614 0.0
H2587 H 0.71179 0.90873 0.21795 0.0
H2588 H 0.70373 0.8942 0.20408 0.0
H2589 H 0.70949 0.90942 0.1927 0.0
H2590 H 0.69374 0.90124 0.16573 0.0
H2591 H 0.69118 0.88746 0.13853 0.0
H2592 H 0.08409 0.74583 0.28138 0.0
H2593 H 0.09853 0.76235 0.25923 0.0
H2594 H 0.06636 0.75787 0.2265 0.0
H2595 H 0.05178 0.74154 0.24899 0.0
H2596 H 0.1007 0.75949 0.22031 0.0
H2597 H 0.08767 0.79668 0.23401 0.0
H2598 H 0.08331 0.78343 0.25003 0.0
H2599 H 0.07446 0.78119 0.22835 0.0
C2600 C 0.08005 0.74849 0.26966 0.0
C2601 C 0.06676 0.74241 0.26705 0.0
C2602 C 0.08833 0.75789 0.25695 0.0
C2603 C 0.08353 0.76149 0.2414 0.0
C2604 C 0.07027 0.75543 0.23864 0.0
H2605 H 0.11672 0.80802 0.14136 0.0
H2606 H 0.10294 0.79597 0.16815 0.0
C2607 C 0.06196 0.74598 0.25136 0.0
C2608 C 0.09246 0.77109 0.22754 0.0
H2609 H 0.10148 0.80018 0.20768 0.0
C2610 C 0.10094 0.76843 0.21765 0.0
C2611 C 0.09272 0.78273 0.22406 0.0
C2612 C 0.08414 0.78628 0.23477 0.0
C2613 C 0.10948 0.77695 0.20408 0.0
C2614 C 0.10977 0.7886 0.20059 0.0
C2615 C 0.10131 0.7913 0.2105 0.0
C2616 C 0.11835 0.79772 0.18593 0.0
C2617 C 0.11786 0.7732 0.19316 0.0
C2618 C 0.13164 0.80326 0.18745 0.0
C2619 C 0.13954 0.81009 0.17211 0.0
C2620 C 0.13426 0.81153 0.15503 0.0
C2621 C 0.12104 0.80689 0.15422 0.0
C2622 C 0.11316 0.80005 0.16954 0.0
H2623 H 0.1144 0.76283 0.19433 0.0
H2624 H 0.1183 0.77569 0.17778 0.0
H2625 H 0.12768 0.77845 0.19904 0.0
H2626 H 0.13586 0.80179 0.20016 0.0
H2627 H 0.14967 0.81349 0.17319 0.0
H2628 H 0.26662 0.31871 0.24705 0.0
H2629 H 0.25068 0.31881 0.22552 0.0
H2630 H 0.24855 0.34662 0.2614 0.0
H2631 H 0.26461 0.34677 0.28278 0.0
H2632 H 0.22495 0.31344 0.23571 0.0
H2633 H 0.25576 0.36232 0.20669 0.0
H2634 H 0.26223 0.35356 0.21856 0.0
H2635 H 0.25502 0.3608 0.2323 0.0
C2636 C 0.26285 0.32493 0.25024 0.0
C2637 C 0.26689 0.33274 0.2666 0.0
C2638 C 0.25369 0.32491 0.23802 0.0
C2639 C 0.24853 0.33279 0.24183 0.0
C2640 C 0.25251 0.34056 0.25813 0.0
H2641 H 0.19808 0.34764 0.16971 0.0
H2642 H 0.21004 0.34706 0.19773 0.0
C2643 C 0.26161 0.34055 0.2704 0.0
C2644 C 0.23892 0.33282 0.22875 0.0
H2645 H 0.23444 0.35118 0.19616 0.0
C2646 C 0.22699 0.32169 0.2271 0.0
C2647 C 0.24158 0.34366 0.21773 0.0
C2648 C 0.25436 0.35576 0.21872 0.0
C2649 C 0.21765 0.32107 0.21451 0.0
C2650 C 0.22046 0.33176 0.20299 0.0
C2651 C 0.23228 0.34301 0.20506 0.0
C2652 C 0.21182 0.33115 0.18746 0.0
C2653 C 0.20487 0.30896 0.21371 0.0
C2654 C 0.20871 0.32232 0.17257 0.0
C2655 C 0.20188 0.32261 0.15672 0.0
C2656 C 0.1981 0.33183 0.15529 0.0
C2657 C 0.20078 0.34038 0.17052 0.0
C2658 C 0.20766 0.34009 0.18644 0.0
H2659 H 0.20269 0.30363 0.22742 0.0
H2660 H 0.19708 0.31097 0.21049 0.0
H2661 H 0.20507 0.30269 0.2023 0.0
H2662 H 0.21203 0.31552 0.17281 0.0
H2663 H 0.19988 0.31585 0.14524 0.0
H2664 H 0.2775 0.35919 0.41808 0.0
H2665 H 0.26027 0.3573 0.43861 0.0
H2666 H 0.24752 0.31752 0.44774 0.0
H2667 H 0.26445 0.31916 0.42686 0.0
H2668 H 0.23215 0.3386 0.4341 0.0
H2669 H 0.25342 0.33447 0.50238 0.0
H2670 H 0.26278 0.34125 0.48101 0.0
H2671 H 0.25273 0.32429 0.48313 0.0
C2672 C 0.271 0.35 0.42434 0.0
C2673 C 0.27243 0.33934 0.42086 0.0
C2674 C 0.26118 0.34897 0.43609 0.0
C2675 C 0.25269 0.33729 0.44472 0.0
C2676 C 0.25407 0.32664 0.44135 0.0
H2677 H 0.19451 0.31448 0.53124 0.0
H2678 H 0.20794 0.31442 0.50515 0.0
C2679 C 0.26383 0.32764 0.42953 0.0
C2680 C 0.24241 0.33623 0.45738 0.0
H2681 H 0.23272 0.33161 0.50389 0.0
C2682 C 0.23224 0.33709 0.44938 0.0
C2683 C 0.24259 0.33423 0.47723 0.0
C2684 C 0.25349 0.33359 0.48657 0.0
C2685 C 0.22207 0.33575 0.46075 0.0
C2686 C 0.22226 0.33379 0.48066 0.0
C2687 C 0.23251 0.33301 0.4886 0.0
C2688 C 0.21216 0.33276 0.49382 0.0
C2689 C 0.2111 0.33617 0.45126 0.0
C2690 C 0.20964 0.34285 0.49569 0.0
C2691 C 0.20177 0.34277 0.51041 0.0
C2692 C 0.19648 0.3327 0.52362 0.0
C2693 C 0.19842 0.3223 0.5211 0.0
C2694 C 0.20614 0.3223 0.50629 0.0
H2695 H 0.21047 0.33381 0.43579 0.0
H2696 H 0.20188 0.32944 0.45816 0.0
H2697 H 0.21257 0.34595 0.45252 0.0
H2698 H 0.21438 0.35115 0.48655 0.0
H2699 H 0.20059 0.35099 0.51233 0.0
H2700 H 0.64978 0.93106 0.44062 0.0
H2701 H 0.64908 0.91512 0.46295 0.0
H2702 H 0.67124 0.90663 0.42367 0.0
H2703 H 0.67234 0.92275 0.4016 0.0
H2704 H 0.63967 0.88847 0.4573 0.0
H2705 H 0.69151 0.91493 0.47383 0.0
H2706 H 0.68355 0.92233 0.46224 0.0
H2707 H 0.68773 0.9123 0.44881 0.0
C2708 C 0.6546 0.92588 0.43681 0.0
C2709 C 0.66115 0.92822 0.41932 0.0
C2710 C 0.6541 0.91671 0.44952 0.0
C2711 C 0.66022 0.90979 0.44505 0.0
C2712 C 0.66659 0.91197 0.42751 0.0
H2713 H 0.67438 0.85748 0.51228 0.0
H2714 H 0.67147 0.86858 0.48513 0.0
C2715 C 0.6671 0.92111 0.41482 0.0
C2716 C 0.66009 0.9004 0.4588 0.0
H2717 H 0.6795 0.89418 0.48661 0.0
C2718 C 0.64837 0.8897 0.46372 0.0
C2719 C 0.67146 0.90201 0.46708 0.0
C2720 C 0.68428 0.91356 0.46289 0.0
C2721 C 0.64772 0.88052 0.47667 0.0
C2722 C 0.65909 0.88221 0.48512 0.0
C2723 C 0.67081 0.89284 0.48 0.0
C2724 C 0.65907 0.87364 0.50032 0.0
C2725 C 0.63491 0.86904 0.48104 0.0
C2726 C 0.65281 0.87251 0.5177 0.0
C2727 C 0.6544 0.86613 0.53314 0.0
C2728 C 0.66238 0.86083 0.53158 0.0
C2729 C 0.66808 0.86135 0.51385 0.0
C2730 C 0.6665 0.86777 0.49838 0.0
H2731 H 0.62797 0.86708 0.46931 0.0
H2732 H 0.63572 0.8604 0.48338 0.0
H2733 H 0.63102 0.87089 0.49425 0.0
H2734 H 0.64722 0.87714 0.51968 0.0
H2735 H 0.64984 0.86583 0.54661 0.0
H2736 H 0.08882 0.74453 0.39576 0.0
H2737 H 0.10545 0.75985 0.4171 0.0
H2738 H 0.08216 0.74006 0.46593 0.0
H2739 H 0.06554 0.72462 0.44464 0.0
H2740 H 0.10376 0.77604 0.4411 0.0
H2741 H 0.11622 0.7449 0.48242 0.0
H2742 H 0.10698 0.73969 0.46065 0.0
H2743 H 0.09942 0.73923 0.48304 0.0
C2744 C 0.08727 0.7434 0.41106 0.0
C2745 C 0.07584 0.73339 0.41853 0.0
C2746 C 0.09682 0.75213 0.42324 0.0
C2747 C 0.09515 0.75102 0.44314 0.0
C2748 C 0.08382 0.74092 0.45066 0.0
H2749 H 0.12236 0.80696 0.53022 0.0
H2750 H 0.11208 0.79273 0.50318 0.0
C2751 C 0.0743 0.73213 0.43847 0.0
C2752 C 0.10479 0.76099 0.45595 0.0
H2753 H 0.12235 0.76538 0.49639 0.0
C2754 C 0.10796 0.77372 0.45302 0.0
C2755 C 0.11049 0.75805 0.4713 0.0
C2756 C 0.10821 0.74474 0.47443 0.0
C2757 C 0.11613 0.78344 0.46559 0.0
C2758 C 0.12106 0.78033 0.48174 0.0
C2759 C 0.11846 0.76774 0.48411 0.0
C2760 C 0.1279 0.78971 0.4972 0.0
C2761 C 0.11925 0.79694 0.46157 0.0
C2762 C 0.14021 0.79269 0.50297 0.0
C2763 C 0.14612 0.80082 0.51859 0.0
C2764 C 0.1397 0.80592 0.52881 0.0
C2765 C 0.12751 0.80312 0.52268 0.0
C2766 C 0.12167 0.79507 0.50712 0.0
H2767 H 0.11846 0.79843 0.44607 0.0
H2768 H 0.11236 0.79884 0.46926 0.0
H2769 H 0.12902 0.80396 0.46647 0.0
H2770 H 0.14515 0.78857 0.49558 0.0
H2771 H 0.15546 0.80273 0.52312 0.0
H2772 H 0.32322 0.0576 0.76418 0.0
H2773 H 0.32487 0.07382 0.78652 0.0
H2774 H 0.35253 0.10335 0.74985 0.0
H2775 H 0.35178 0.08724 0.72831 0.0
H2776 H 0.36006 0.10887 0.78447 0.0
H2777 H 0.30938 0.09587 0.78325 0.0
H2778 H 0.311 0.08257 0.7905 0.0
H2779 H 0.31579 0.08906 0.76678 0.0
C2780 C 0.32977 0.06753 0.76092 0.0
C2781 C 0.33728 0.07103 0.74425 0.0
C2782 C 0.33052 0.07683 0.77358 0.0
C2783 C 0.33855 0.08986 0.76965 0.0
C2784 C 0.34613 0.09338 0.75312 0.0
H2785 H 0.33188 0.1457 0.84179 0.0
H2786 H 0.33238 0.134 0.81347 0.0
C2787 C 0.34557 0.08411 0.74066 0.0
C2788 C 0.33956 0.09981 0.78317 0.0
H2789 H 0.32193 0.10926 0.80931 0.0
C2790 C 0.35171 0.10903 0.7897 0.0
C2791 C 0.32874 0.1003 0.78969 0.0
C2792 C 0.31552 0.09151 0.78201 0.0
C2793 C 0.3533 0.11834 0.80309 0.0
C2794 C 0.3424 0.11817 0.81077 0.0
C2795 C 0.33029 0.10931 0.80365 0.0
C2796 C 0.34326 0.12644 0.82708 0.0
C2797 C 0.36668 0.1283 0.80874 0.0
C2798 C 0.34933 0.12624 0.84405 0.0
C2799 C 0.34927 0.13309 0.86004 0.0
C2800 C 0.34283 0.14005 0.85966 0.0
C2801 C 0.33701 0.14052 0.84252 0.0
C2802 C 0.3372 0.13375 0.82638 0.0
H2803 H 0.3735 0.13019 0.79688 0.0
H2804 H 0.36725 0.13743 0.81282 0.0
H2805 H 0.36977 0.12476 0.82108 0.0
H2806 H 0.3538 0.12044 0.84519 0.0
H2807 H 0.35403 0.13266 0.8729 0.0
H2808 H 0.92457 0.2542 0.73315 0.0
H2809 H 0.90752 0.23905 0.75409 0.0
H2810 H 0.92652 0.26302 0.80272 0.0
H2811 H 0.94377 0.27817 0.78188 0.0
H2812 H 0.91827 0.23618 0.80722 0.0
H2813 H 0.8797 0.24442 0.78068 0.0
H2814 H 0.88848 0.24135 0.76276 0.0
H2815 H 0.89641 0.25567 0.77677 0.0
C2816 C 0.92517 0.25622 0.74833 0.0
C2817 C 0.93555 0.26737 0.75589 0.0
C2818 C 0.91535 0.24761 0.76022 0.0
C2819 C 0.9157 0.25 0.77989 0.0
C2820 C 0.92606 0.26107 0.78753 0.0
H2821 H 0.86325 0.21793 0.8727 0.0
H2822 H 0.87616 0.23065 0.84561 0.0
C2823 C 0.93586 0.26972 0.77562 0.0
C2824 C 0.90545 0.24076 0.7926 0.0
H2825 H 0.87387 0.22798 0.80348 0.0
C2826 C 0.90855 0.23433 0.80636 0.0
C2827 C 0.89281 0.23844 0.79145 0.0
C2828 C 0.8891 0.24538 0.77724 0.0
C2829 C 0.89934 0.22566 0.8191 0.0
C2830 C 0.88667 0.22329 0.81791 0.0
C2831 C 0.88355 0.2297 0.80414 0.0
C2832 C 0.8769 0.215 0.83201 0.0
C2833 C 0.90329 0.21938 0.83412 0.0
C2834 C 0.87253 0.20186 0.83278 0.0
C2835 C 0.86508 0.19456 0.8482 0.0
C2836 C 0.86198 0.20034 0.86305 0.0
C2837 C 0.86555 0.21328 0.86144 0.0
C2838 C 0.87292 0.22053 0.84601 0.0
H2839 H 0.91383 0.2238 0.83509 0.0
H2840 H 0.89957 0.21996 0.84837 0.0
H2841 H 0.89922 0.20914 0.83052 0.0
H2842 H 0.87543 0.19741 0.82199 0.0
H2843 H 0.86252 0.18463 0.84917 0.0
H2844 H 0.74381 0.66045 0.74251 0.0
H2845 H 0.7603 0.66279 0.76478 0.0
H2846 H 0.76369 0.69776 0.78611 0.0
H2847 H 0.74763 0.69589 0.76301 0.0
H2848 H 0.78708 0.69967 0.78119 0.0
H2849 H 0.75494 0.65563 0.82128 0.0
H2850 H 0.75539 0.65271 0.79624 0.0
H2851 H 0.74907 0.66258 0.80415 0.0
C2852 C 0.74815 0.66875 0.75172 0.0
C2853 C 0.74434 0.67798 0.75092 0.0
C2854 C 0.75747 0.66998 0.76466 0.0
C2855 C 0.76306 0.68032 0.77737 0.0
C2856 C 0.75943 0.68965 0.77652 0.0
H2857 H 0.8122 0.69621 0.87547 0.0
H2858 H 0.80053 0.69851 0.84857 0.0
C2859 C 0.75015 0.68849 0.76344 0.0
C2860 C 0.77263 0.6813 0.79158 0.0
H2861 H 0.77715 0.66502 0.82772 0.0
C2862 C 0.7849 0.69214 0.79144 0.0
C2863 C 0.76974 0.67149 0.80504 0.0
C2864 C 0.75654 0.66002 0.80686 0.0
C2865 C 0.79442 0.69326 0.80413 0.0
C2866 C 0.79159 0.6833 0.81718 0.0
C2867 C 0.77932 0.67255 0.81745 0.0
C2868 C 0.80097 0.68392 0.83133 0.0
C2869 C 0.8075 0.70496 0.80338 0.0
C2870 C 0.8054 0.67523 0.83025 0.0
C2871 C 0.81213 0.67395 0.84552 0.0
C2872 C 0.81434 0.68121 0.86225 0.0
C2873 C 0.81063 0.69051 0.86275 0.0
C2874 C 0.80399 0.69185 0.84739 0.0
H2875 H 0.80876 0.7109 0.79058 0.0
H2876 H 0.80898 0.71083 0.81634 0.0
H2877 H 0.81496 0.70218 0.80334 0.0
H2878 H 0.80306 0.66896 0.81801 0.0
H2879 H 0.81472 0.6666 0.84483 0.0
H2880 H 0.7182 0.64156 0.58352 0.0
H2881 H 0.73344 0.64 0.56217 0.0
H2882 H 0.76265 0.6777 0.57907 0.0
H2883 H 0.74752 0.67933 0.60047 0.0
H2884 H 0.74859 0.65897 0.53129 0.0
H2885 H 0.77805 0.65324 0.58713 0.0
H2886 H 0.76179 0.64941 0.59136 0.0
H2887 H 0.77436 0.66575 0.59073 0.0
C2888 C 0.72788 0.6495 0.58271 0.0
C2889 C 0.73165 0.66058 0.59363 0.0
C2890 C 0.73655 0.64859 0.57052 0.0
C2891 C 0.74918 0.65867 0.56927 0.0
C2892 C 0.75297 0.66977 0.58003 0.0
H2893 H 0.81657 0.67656 0.50433 0.0
H2894 H 0.80139 0.67408 0.52948 0.0
C2895 C 0.74428 0.67073 0.59208 0.0
C2896 C 0.75832 0.65778 0.55621 0.0
H2897 H 0.78558 0.65598 0.55525 0.0
C2898 C 0.75662 0.6582 0.53647 0.0
C2899 C 0.76883 0.6569 0.56311 0.0
C2900 C 0.7709 0.65621 0.58424 0.0
C2901 C 0.76535 0.65811 0.52337 0.0
C2902 C 0.77585 0.65714 0.53022 0.0
C2903 C 0.77749 0.65662 0.55002 0.0
C2904 C 0.7855 0.65726 0.51698 0.0
C2905 C 0.76348 0.65957 0.50236 0.0
C2906 C 0.78182 0.64821 0.50223 0.0
C2907 C 0.79044 0.64968 0.48782 0.0
C2908 C 0.80297 0.66006 0.48816 0.0
C2909 C 0.80699 0.66842 0.50385 0.0
C2910 C 0.7983 0.66705 0.51814 0.0
H2911 H 0.75713 0.66361 0.50003 0.0
H2912 H 0.77274 0.66585 0.4952 0.0
H2913 H 0.75899 0.65006 0.49539 0.0
H2914 H 0.77209 0.64037 0.50135 0.0
H2915 H 0.78714 0.64309 0.47588 0.0
H2916 H 0.32528 0.06721 0.59487 0.0
H2917 H 0.32703 0.0845 0.5745 0.0
H2918 H 0.36526 0.09421 0.55884 0.0
H2919 H 0.36359 0.07691 0.57908 0.0
H2920 H 0.34898 0.1128 0.57715 0.0
H2921 H 0.34341 0.08822 0.50746 0.0
H2922 H 0.33729 0.07953 0.52955 0.0
H2923 H 0.3541 0.08772 0.52488 0.0
C2924 C 0.334 0.07292 0.58689 0.0
C2925 C 0.34428 0.07067 0.58849 0.0
C2926 C 0.33502 0.08285 0.57543 0.0
C2927 C 0.34627 0.09059 0.56524 0.0
C2928 C 0.3565 0.08831 0.56662 0.0
H2929 H 0.3608 0.14522 0.47509 0.0
H2930 H 0.3642 0.13308 0.50008 0.0
C2931 C 0.35553 0.07845 0.57819 0.0
C2932 C 0.34727 0.10102 0.55302 0.0
H2933 H 0.34695 0.10911 0.50645 0.0
C2934 C 0.34858 0.11206 0.56168 0.0
C2935 C 0.34684 0.1 0.5329 0.0
C2936 C 0.34527 0.08823 0.52302 0.0
C2937 C 0.3495 0.1222 0.55066 0.0
C2938 C 0.34877 0.12108 0.53048 0.0
C2939 C 0.34759 0.11003 0.5219 0.0
C2940 C 0.34857 0.13084 0.51784 0.0
C2941 C 0.35142 0.13405 0.56073 0.0
C2942 C 0.33903 0.13413 0.5199 0.0
C2943 C 0.33727 0.1413 0.5058 0.0
C2944 C 0.34488 0.1451 0.48931 0.0
C2945 C 0.35492 0.14252 0.48782 0.0
C2946 C 0.35679 0.1355 0.50201 0.0
H2947 H 0.35606 0.13521 0.57488 0.0
H2948 H 0.35734 0.14273 0.55206 0.0
H2949 H 0.342 0.13324 0.56321 0.0
H2950 H 0.33236 0.1304 0.53169 0.0
H2951 H 0.32929 0.14295 0.50702 0.0
H2952 H 0.91872 0.25638 0.62408 0.0
H2953 H 0.90334 0.24012 0.60234 0.0
H2954 H 0.92852 0.25887 0.55482 0.0
H2955 H 0.94414 0.27503 0.57649 0.0
H2956 H 0.90117 0.25111 0.54977 0.0
H2957 H 0.9094 0.21232 0.57551 0.0
H2958 H 0.90649 0.22127 0.59335 0.0
H2959 H 0.9208 0.22899 0.57935 0.0
C2960 C 0.92106 0.25701 0.60902 0.0
C2961 C 0.93275 0.26696 0.60207 0.0
C2962 C 0.91223 0.24773 0.59664 0.0
C2963 C 0.91489 0.24824 0.57706 0.0
C2964 C 0.92633 0.25833 0.56993 0.0
H2965 H 0.88644 0.19827 0.48154 0.0
H2966 H 0.89816 0.2113 0.50919 0.0
C2967 C 0.93521 0.26759 0.58232 0.0
C2968 C 0.90578 0.23819 0.56398 0.0
H2969 H 0.89391 0.207 0.55141 0.0
C2970 C 0.89948 0.24144 0.5502 0.0
C2971 C 0.90369 0.22561 0.56459 0.0
C2972 C 0.91048 0.22178 0.57889 0.0
C2973 C 0.89121 0.23244 0.53684 0.0
C2974 C 0.88918 0.21988 0.53736 0.0
C2975 C 0.89539 0.2166 0.55125 0.0
C2976 C 0.88162 0.21046 0.5224 0.0
C2977 C 0.88503 0.2365 0.52181 0.0
C2978 C 0.86836 0.20529 0.52112 0.0
C2979 C 0.86162 0.19775 0.50539 0.0
C2980 C 0.8681 0.1954 0.49073 0.0
C2981 C 0.88125 0.2 0.49265 0.0
C2982 C 0.88793 0.20742 0.5084 0.0
H2983 H 0.88888 0.24698 0.52186 0.0
H2984 H 0.88645 0.2336 0.50738 0.0
H2985 H 0.8746 0.2317 0.52449 0.0
H2986 H 0.86333 0.20749 0.53189 0.0
H2987 H 0.85151 0.19438 0.50415 0.0
H2988 H 0.35623 0.27397 0.60412 0.0
H2989 H 0.35427 0.25713 0.58256 0.0
H2990 H 0.31634 0.24856 0.56709 0.0
H2991 H 0.31804 0.2651 0.58892 0.0
H2992 H 0.3339 0.22966 0.58257 0.0
H2993 H 0.33671 0.25564 0.51555 0.0
H2994 H 0.34228 0.26363 0.53828 0.0
H2995 H 0.32551 0.25486 0.53313 0.0
C2996 C 0.34743 0.26845 0.59624 0.0
C2997 C 0.33733 0.27097 0.59818 0.0
C2998 C 0.34635 0.25886 0.5839 0.0
C2999 C 0.3352 0.25169 0.57317 0.0
C3000 C 0.32509 0.25411 0.57509 0.0
H3001 H 0.31229 0.19659 0.48205 0.0
H3002 H 0.31277 0.2101 0.50842 0.0
C3003 C 0.32612 0.26364 0.58747 0.0
C3004 C 0.33414 0.24172 0.5598 0.0
H3005 H 0.33177 0.23425 0.51241 0.0
C3006 C 0.33347 0.23063 0.56721 0.0
C3007 C 0.33358 0.24307 0.53982 0.0
C3008 C 0.33465 0.25497 0.53112 0.0
C3009 C 0.33194 0.22068 0.55512 0.0
C3010 C 0.33133 0.222 0.5351 0.0
C3011 C 0.33214 0.23319 0.52775 0.0
C3012 C 0.32991 0.21205 0.52129 0.0
C3013 C 0.33066 0.20872 0.56391 0.0
C3014 C 0.33914 0.20828 0.52011 0.0
C3015 C 0.33876 0.20039 0.50517 0.0
C3016 C 0.32926 0.19633 0.49106 0.0
C3017 C 0.31969 0.19958 0.49281 0.0
C3018 C 0.32 0.20734 0.5078 0.0
H3019 H 0.32764 0.20769 0.57912 0.0
H3020 H 0.32366 0.2001 0.55594 0.0
H3021 H 0.34004 0.20919 0.56342 0.0
H3022 H 0.34704 0.212 0.53008 0.0
H3023 H 0.34635 0.19816 0.50393 0.0
H3024 H 0.74103 0.06203 0.58909 0.0
H3025 H 0.75606 0.07765 0.56644 0.0
H3026 H 0.74013 0.10191 0.57678 0.0
H3027 H 0.72476 0.08616 0.5992 0.0
H3028 H 0.74952 0.08761 0.53261 0.0
H3029 H 0.77975 0.12513 0.5855 0.0
H3030 H 0.76951 0.10867 0.59231 0.0
H3031 H 0.76274 0.1185 0.58681 0.0
C3032 C 0.74056 0.07058 0.58639 0.0
C3033 C 0.73162 0.07279 0.59597 0.0
C3034 C 0.74925 0.07955 0.57356 0.0
C3035 C 0.7493 0.09098 0.57014 0.0
C3036 C 0.74037 0.09323 0.57949 0.0
H3037 H 0.80077 0.15224 0.49139 0.0
H3038 H 0.78495 0.14065 0.51669 0.0
C3039 C 0.73161 0.08422 0.5923 0.0
C3040 C 0.75853 0.10031 0.55635 0.0
H3041 H 0.78594 0.12922 0.55314 0.0
C3042 C 0.75743 0.09675 0.53707 0.0
C3043 C 0.76876 0.11227 0.56221 0.0
C3044 C 0.77039 0.11643 0.58284 0.0
C3045 C 0.76643 0.1047 0.52352 0.0
C3046 C 0.777 0.1164 0.5295 0.0
C3047 C 0.77787 0.12022 0.54865 0.0
C3048 C 0.7876 0.12425 0.51618 0.0
C3049 C 0.76462 0.10045 0.5029 0.0
C3050 C 0.79467 0.11911 0.50823 0.0
C3051 C 0.80359 0.12565 0.49392 0.0
C3052 C 0.80573 0.13753 0.48739 0.0
C3053 C 0.7993 0.14311 0.49624 0.0
C3054 C 0.79026 0.13649 0.51059 0.0
H3055 H 0.7545 0.09335 0.49976 0.0
H3056 H 0.76775 0.10868 0.49305 0.0
H3057 H 0.77043 0.0959 0.49992 0.0
H3058 H 0.79295 0.10981 0.51264 0.0
H3059 H 0.80853 0.12121 0.48744 0.0
H3060 H 0.95064 0.68692 0.58605 0.0
H3061 H 0.93608 0.68951 0.56477 0.0
H3062 H 0.90434 0.65528 0.58771 0.0
H3063 H 0.91885 0.65253 0.60894 0.0
H3064 H 0.9198 0.67261 0.53692 0.0
H3065 H 0.89245 0.68153 0.59253 0.0
H3066 H 0.90754 0.68249 0.59743 0.0
H3067 H 0.89322 0.66723 0.5958 0.0
C3068 C 0.94059 0.67986 0.58645 0.0
C3069 C 0.93592 0.66952 0.59923 0.0
C3070 C 0.93226 0.68142 0.57439 0.0
C3071 C 0.91911 0.67272 0.57492 0.0
C3072 C 0.91442 0.66228 0.58742 0.0
H3073 H 0.85595 0.66322 0.50415 0.0
H3074 H 0.86886 0.66217 0.5304 0.0
C3075 C 0.92274 0.66071 0.5995 0.0
C3076 C 0.91039 0.67437 0.56186 0.0
H3077 H 0.88491 0.67922 0.5606 0.0
C3078 C 0.91221 0.67412 0.5421 0.0
C3079 C 0.90045 0.67625 0.56867 0.0
C3080 C 0.89832 0.67701 0.58976 0.0
C3081 C 0.90429 0.67557 0.52893 0.0
C3082 C 0.89444 0.6776 0.53572 0.0
C3083 C 0.89252 0.67774 0.55547 0.0
C3084 C 0.88605 0.67948 0.52229 0.0
C3085 C 0.9064 0.67467 0.50784 0.0
C3086 C 0.89127 0.68992 0.50976 0.0
C3087 C 0.88394 0.69054 0.49484 0.0
C3088 C 0.87123 0.68077 0.4923 0.0
C3089 C 0.86569 0.67091 0.50587 0.0
C3090 C 0.87307 0.67026 0.52078 0.0
H3091 H 0.91218 0.67004 0.50517 0.0
H3092 H 0.89717 0.66921 0.50018 0.0
H3093 H 0.91158 0.68442 0.50168 0.0
H3094 H 0.9012 0.69726 0.51094 0.0
H3095 H 0.8884 0.69829 0.48466 0.0
H3096 H 0.94234 0.68992 0.75343 0.0
H3097 H 0.92494 0.68728 0.77428 0.0
H3098 H 0.914 0.64792 0.78354 0.0
H3099 H 0.93113 0.65035 0.76242 0.0
H3100 H 0.89751 0.66843 0.77024 0.0
H3101 H 0.91887 0.6639 0.83807 0.0
H3102 H 0.92818 0.67078 0.81669 0.0
H3103 H 0.91828 0.65378 0.81881 0.0
C3104 C 0.93621 0.68068 0.75982 0.0
C3105 C 0.93821 0.67037 0.7563 0.0
C3106 C 0.92629 0.67921 0.77175 0.0
C3107 C 0.91826 0.66744 0.78052 0.0
C3108 C 0.92021 0.65714 0.77709 0.0
H3109 H 0.85889 0.64124 0.86583 0.0
H3110 H 0.87289 0.64226 0.83983 0.0
C3111 C 0.93008 0.65858 0.76511 0.0
C3112 C 0.90782 0.66588 0.79327 0.0
H3113 H 0.89777 0.66004 0.8396 0.0
C3114 C 0.89754 0.66663 0.78543 0.0
C3115 C 0.90792 0.66351 0.81302 0.0
C3116 C 0.91894 0.66304 0.82226 0.0
C3117 C 0.88719 0.6648 0.79682 0.0
C3118 C 0.88729 0.66242 0.81661 0.0
C3119 C 0.89764 0.66176 0.8244 0.0
C3120 C 0.87698 0.66083 0.82979 0.0
C3121 C 0.87614 0.66514 0.78749 0.0
C3122 C 0.87424 0.67072 0.83235 0.0
C3123 C 0.86609 0.67006 0.84706 0.0
C3124 C 0.86073 0.6596 0.8596 0.0
C3125 C 0.8629 0.6494 0.85632 0.0
C3126 C 0.87093 0.65 0.84154 0.0
H3127 H 0.87572 0.66323 0.77189 0.0
H3128 H 0.86693 0.65805 0.79404 0.0
H3129 H 0.87732 0.67477 0.78941 0.0
H3130 H 0.87898 0.67929 0.82375 0.0
H3131 H 0.86473 0.67813 0.84949 0.0
H3132 H 0.33657 0.27539 0.7761 0.0
H3133 H 0.33625 0.25906 0.79705 0.0
H3134 H 0.31916 0.23117 0.75207 0.0
H3135 H 0.31925 0.24736 0.73108 0.0
H3136 H 0.31534 0.23466 0.80882 0.0
H3137 H 0.35208 0.23051 0.76671 0.0
H3138 H 0.34933 0.24376 0.76398 0.0
H3139 H 0.33842 0.22856 0.75365 0.0
C3140 C 0.33256 0.26574 0.77073 0.0
C3141 C 0.32803 0.26272 0.75183 0.0
C3142 C 0.33244 0.25644 0.7827 0.0
C3143 C 0.32785 0.24396 0.77601 0.0
C3144 C 0.32296 0.2408 0.75739 0.0
H3145 H 0.31915 0.183 0.85483 0.0
H3146 H 0.31473 0.1936 0.82829 0.0
C3147 C 0.32306 0.25008 0.74541 0.0
C3148 C 0.3285 0.23439 0.78844 0.0
H3149 H 0.34394 0.2175 0.79398 0.0
C3150 C 0.32147 0.23078 0.80551 0.0
C3151 C 0.33658 0.22943 0.78408 0.0
C3152 C 0.34463 0.23329 0.7662 0.0
C3153 C 0.32251 0.22252 0.81855 0.0
C3154 C 0.33072 0.2177 0.81431 0.0
C3155 C 0.33754 0.2211 0.79705 0.0
C3156 C 0.33352 0.21042 0.82863 0.0
C3157 C 0.31527 0.21948 0.83717 0.0
C3158 C 0.34566 0.21614 0.83702 0.0
C3159 C 0.34817 0.21014 0.85202 0.0
C3160 C 0.33862 0.19824 0.85885 0.0
C3161 C 0.32667 0.19215 0.84976 0.0
C3162 C 0.32412 0.19823 0.83475 0.0
H3163 H 0.31076 0.22542 0.83941 0.0
H3164 H 0.30765 0.2093 0.83717 0.0
H3165 H 0.32172 0.22096 0.84939 0.0
H3166 H 0.35306 0.22551 0.83245 0.0
H3167 H 0.35749 0.21499 0.85872 0.0
H3168 H 0.75009 0.0838 0.73634 0.0
H3169 H 0.76662 0.09833 0.75854 0.0
H3170 H 0.7585 0.0667 0.79559 0.0
H3171 H 0.74208 0.05204 0.77324 0.0
H3172 H 0.7626 0.10189 0.79751 0.0
H3173 H 0.79786 0.08565 0.78957 0.0
H3174 H 0.78543 0.08198 0.77221 0.0
H3175 H 0.78177 0.07323 0.79425 0.0
C3176 C 0.75194 0.0799 0.74906 0.0
C3177 C 0.7448 0.06675 0.75298 0.0
C3178 C 0.76135 0.08822 0.76177 0.0
C3179 C 0.76391 0.08357 0.77855 0.0
C3180 C 0.75683 0.07046 0.78253 0.0
H3181 H 0.80839 0.11526 0.88033 0.0
H3182 H 0.79653 0.10199 0.85305 0.0
C3183 C 0.74736 0.06212 0.76987 0.0
C3184 C 0.77344 0.09254 0.79242 0.0
H3185 H 0.80143 0.10018 0.81488 0.0
C3186 C 0.77116 0.10161 0.8012 0.0
C3187 C 0.78455 0.0921 0.79721 0.0
C3188 C 0.78766 0.0828 0.78773 0.0
C3189 C 0.77948 0.11002 0.81511 0.0
C3190 C 0.7906 0.10956 0.81999 0.0
C3191 C 0.79296 0.10057 0.81103 0.0
C3192 C 0.79939 0.11781 0.83525 0.0
C3193 C 0.77601 0.11895 0.82497 0.0
C3194 C 0.80547 0.13116 0.83397 0.0
C3195 C 0.81215 0.13878 0.84965 0.0
C3196 C 0.81294 0.13317 0.86682 0.0
C3197 C 0.80773 0.11986 0.86745 0.0
C3198 C 0.801 0.11226 0.85183 0.0
H3199 H 0.76579 0.11597 0.82292 0.0
H3200 H 0.77798 0.11945 0.84055 0.0
H3201 H 0.78182 0.12867 0.81892 0.0
H3202 H 0.8046 0.13567 0.82113 0.0
H3203 H 0.81603 0.14899 0.84868 0.0
H3204 H 0.05895 0.34966 0.05769 0.0
H3205 H 0.07818 0.34873 0.06462 0.0
H3206 H 0.09277 0.36339 0.00842 0.0
H3207 H 0.07374 0.36492 0.00162 0.0
H3208 H 0.08724 0.33499 0.04661 0.0
H3209 H 0.12281 0.38677 0.04242 0.0
H3210 H 0.10587 0.38082 0.04356 0.0
H3211 H 0.11305 0.37999 0.02155 0.0
C3212 C 0.06632 0.35292 0.04688 0.0
C3213 C 0.0648 0.35749 0.02914 0.0
C3214 C 0.07728 0.35226 0.05081 0.0
C3215 C 0.08701 0.35613 0.03714 0.0
C3216 C 0.08551 0.36057 0.01933 0.0
H3217 H 0.14383 0.33381 0.0671 0.0
H3218 H 0.13067 0.33859 0.04563 0.0
C3219 C 0.07453 0.36128 0.01538 0.0
C3220 C 0.09851 0.35519 0.04167 0.0
H3221 H 0.13062 0.37295 0.04975 0.0
C3222 C 0.09676 0.34326 0.04708 0.0
C3223 C 0.11091 0.36601 0.04234 0.0
C3224 C 0.11333 0.37915 0.03731 0.0
C3225 C 0.10693 0.34191 0.0539 0.0
C3226 C 0.11932 0.35276 0.05485 0.0
C3227 C 0.12117 0.36462 0.04875 0.0
C3228 C 0.12993 0.35226 0.06477 0.0
C3229 C 0.10411 0.32901 0.06113 0.0
C3230 C 0.13477 0.35915 0.08181 0.0
C3231 C 0.14244 0.35662 0.09381 0.0
C3232 C 0.14542 0.34715 0.089 0.0
C3233 C 0.14173 0.34122 0.07103 0.0
C3234 C 0.13407 0.34381 0.05893 0.0
H3235 H 0.09371 0.32229 0.06271 0.0
H3236 H 0.10792 0.32477 0.05087 0.0
H3237 H 0.10874 0.32991 0.0752 0.0
H3238 H 0.13179 0.36577 0.08659 0.0
H3239 H 0.14514 0.36127 0.10764 0.0
H3240 H 0.64084 0.71343 0.99914 0.0
H3241 H 0.64397 0.73458 0.00651 0.0
H3242 H 0.67565 0.74216 0.04306 0.0
H3243 H 0.6724 0.72099 0.03634 0.0
H3244 H 0.64328 0.74357 0.04433 0.0
H3245 H 0.68962 0.7744 0.00863 0.0
H3246 H 0.67943 0.75778 0.00255 0.0
H3247 H 0.68939 0.76218 0.02345 0.0
C3248 C 0.64846 0.71956 0.0088 0.0
C3249 C 0.65637 0.71544 0.01711 0.0
C3250 C 0.65029 0.7317 0.01284 0.0
C3251 C 0.66018 0.74002 0.02505 0.0
C3252 C 0.66816 0.73601 0.03322 0.0
H3253 H 0.68715 0.80457 0.09407 0.0
H3254 H 0.68456 0.78837 0.0709 0.0
C3255 C 0.66628 0.72387 0.02932 0.0
C3256 C 0.66161 0.7525 0.03058 0.0
H3257 H 0.68324 0.78439 0.03233 0.0
C3258 C 0.65189 0.75255 0.0414 0.0
C3259 C 0.67286 0.76416 0.02672 0.0
C3260 C 0.68339 0.7647 0.01455 0.0
C3261 C 0.65347 0.76384 0.04958 0.0
C3262 C 0.66496 0.77549 0.04637 0.0
C3263 C 0.67442 0.7755 0.03471 0.0
C3264 C 0.66802 0.78727 0.05717 0.0
C3265 C 0.64317 0.76302 0.06267 0.0
C3266 C 0.6601 0.79267 0.05637 0.0
C3267 C 0.66157 0.80195 0.06973 0.0
C3268 C 0.67103 0.80599 0.08389 0.0
C3269 C 0.67975 0.80156 0.08331 0.0
C3270 C 0.67825 0.79228 0.07009 0.0
H3271 H 0.6361 0.75301 0.06647 0.0
H3272 H 0.64736 0.76842 0.07609 0.0
H3273 H 0.638 0.76723 0.05542 0.0
H3274 H 0.65233 0.78916 0.04619 0.0
H3275 H 0.6547 0.8052 0.06993 0.0
H3276 H 0.28586 0.94241 0.00016 0.0
H3277 H 0.26454 0.92471 0.00793 0.0
H3278 H 0.27581 0.92644 0.06683 0.0
H3279 H 0.29696 0.94428 0.05935 0.0
H3280 H 0.25736 0.90068 0.02365 0.0
H3281 H 0.24283 0.92795 0.07063 0.0
H3282 H 0.25627 0.9356 0.05457 0.0
H3283 H 0.25792 0.92969 0.07737 0.0
C3284 C 0.28376 0.9391 0.01481 0.0
C3285 C 0.29313 0.9448 0.02915 0.0
C3286 C 0.27159 0.92895 0.01919 0.0
C3287 C 0.26852 0.92439 0.038 0.0
C3288 C 0.27789 0.92995 0.05227 0.0
H3289 H 0.21763 0.85647 0.09356 0.0
H3290 H 0.23347 0.87238 0.07207 0.0
C3291 C 0.29004 0.94006 0.04792 0.0
C3292 C 0.25564 0.91366 0.04283 0.0
H3293 H 0.23086 0.90516 0.07371 0.0
C3294 C 0.25145 0.90169 0.03437 0.0
C3295 C 0.2478 0.91502 0.05649 0.0
C3296 C 0.25136 0.92779 0.06515 0.0
C3297 C 0.24002 0.89088 0.04014 0.0
C3298 C 0.23269 0.89206 0.05492 0.0
C3299 C 0.23649 0.9042 0.06247 0.0
C3300 C 0.22198 0.88079 0.06438 0.0
C3301 C 0.23603 0.87827 0.03058 0.0
C3302 C 0.21008 0.88 0.06698 0.0
C3303 C 0.20097 0.87084 0.07932 0.0
C3304 C 0.20371 0.86246 0.08934 0.0
C3305 C 0.21524 0.86272 0.08575 0.0
C3306 C 0.22429 0.8718 0.07342 0.0
H3307 H 0.23965 0.87967 0.01567 0.0
H3308 H 0.24015 0.87326 0.03855 0.0
H3309 H 0.22549 0.87209 0.03036 0.0
H3310 H 0.20812 0.8869 0.06029 0.0
H3311 H 0.19224 0.87096 0.08214 0.0
H3312 H 0.33415 0.04954 0.97634 0.0
H3313 H 0.33125 0.06768 0.96925 0.0
H3314 H 0.36391 0.09198 0.00411 0.0
H3315 H 0.3668 0.07383 0.01153 0.0
H3316 H 0.32783 0.08476 0.99422 0.0
H3317 H 0.37239 0.10951 0.95111 0.0
H3318 H 0.36519 0.0929 0.95763 0.0
H3319 H 0.37397 0.10509 0.97506 0.0
C3320 C 0.34062 0.05869 0.98276 0.0
C3321 C 0.35076 0.06021 0.99445 0.0
C3322 C 0.33897 0.06906 0.97863 0.0
C3323 C 0.34743 0.0812 0.986 0.0
C3324 C 0.35738 0.08273 0.99804 0.0
H3325 H 0.35411 0.15194 0.94238 0.0
H3326 H 0.35598 0.13782 0.9657 0.0
C3327 C 0.35904 0.07235 0.0022 0.0
C3328 C 0.34607 0.09228 0.98035 0.0
H3329 H 0.3599 0.11923 0.95303 0.0
C3330 C 0.3349 0.09239 0.98538 0.0
C3331 C 0.35534 0.10226 0.96895 0.0
C3332 C 0.36737 0.10248 0.96271 0.0
C3333 C 0.33262 0.10205 0.97891 0.0
C3334 C 0.34162 0.11172 0.96676 0.0
C3335 C 0.35302 0.11188 0.96242 0.0
C3336 C 0.33885 0.1208 0.95643 0.0
C3337 C 0.32052 0.10173 0.98501 0.0
C3338 C 0.32831 0.11608 0.94406 0.0
C3339 C 0.32719 0.12414 0.93092 0.0
C3340 C 0.33664 0.13707 0.92976 0.0
C3341 C 0.34661 0.14205 0.94318 0.0
C3342 C 0.34774 0.13396 0.95637 0.0
H3343 H 0.3173 0.09714 0.99924 0.0
H3344 H 0.3218 0.11146 0.98567 0.0
H3345 H 0.31285 0.09601 0.97457 0.0
H3346 H 0.32147 0.10596 0.94347 0.0
H3347 H 0.31949 0.12005 0.92059 0.0
H3348 H 0.94477 0.28339 0.02556 0.0
H3349 H 0.92679 0.26219 0.01791 0.0
H3350 H 0.92527 0.27507 0.96096 0.0
H3351 H 0.9429 0.29631 0.96876 0.0
H3352 H 0.90206 0.2615 0.97514 0.0
H3353 H 0.92788 0.235 0.98694 0.0
H3354 H 0.92727 0.24354 0.00749 0.0
H3355 H 0.93592 0.25217 0.98656 0.0
C3356 C 0.94059 0.28165 0.0114 0.0
C3357 C 0.94523 0.29149 0.99774 0.0
C3358 C 0.93036 0.26952 0.00701 0.0
C3359 C 0.92478 0.26693 0.98873 0.0
C3360 C 0.92938 0.27681 0.97516 0.0
H3361 H 0.88628 0.20282 0.91858 0.0
H3362 H 0.90062 0.21924 0.94085 0.0
C3363 C 0.93945 0.28895 0.97963 0.0
C3364 C 0.91413 0.25403 0.9835 0.0
H3365 H 0.90635 0.22293 0.97771 0.0
C3366 C 0.90295 0.25304 0.97585 0.0
C3367 C 0.9153 0.24297 0.9844 0.0
C3368 C 0.92727 0.24344 0.99163 0.0
C3369 C 0.8932 0.24152 0.96823 0.0
C3370 C 0.89442 0.23048 0.96891 0.0
C3371 C 0.90534 0.23133 0.97739 0.0
C3372 C 0.88555 0.21865 0.95825 0.0
C3373 C 0.88211 0.24154 0.95841 0.0
C3374 C 0.87227 0.21223 0.96125 0.0
C3375 C 0.864 0.20285 0.9483 0.0
C3376 C 0.86895 0.1997 0.93239 0.0
C3377 C 0.88223 0.20516 0.93067 0.0
C3378 C 0.89044 0.21455 0.94341 0.0
H3379 H 0.88394 0.25137 0.95579 0.0
H3380 H 0.88 0.23648 0.94448 0.0
H3381 H 0.8735 0.23658 0.96757 0.0
H3382 H 0.86828 0.21495 0.97294 0.0
H3383 H 0.8538 0.19878 0.94994 0.0
H3384 H 0.70158 0.64046 0.95247 0.0
H3385 H 0.72211 0.64236 0.94447 0.0
H3386 H 0.7363 0.65738 0.00072 0.0
H3387 H 0.71576 0.65548 0.00885 0.0
H3388 H 0.74482 0.6644 0.94329 0.0
H3389 H 0.74764 0.63106 0.99475 0.0
H3390 H 0.73295 0.63094 0.98979 0.0
H3391 H 0.74459 0.6427 0.00564 0.0
C3392 C 0.70905 0.64412 0.96318 0.0
C3393 C 0.70704 0.64786 0.98128 0.0
C3394 C 0.72076 0.64513 0.95862 0.0
C3395 C 0.73071 0.64987 0.97206 0.0
C3396 C 0.72868 0.65341 0.99026 0.0
H3397 H 0.80968 0.68463 0.93687 0.0
H3398 H 0.79033 0.67958 0.95479 0.0
C3399 C 0.71694 0.65236 0.99487 0.0
C3400 C 0.74348 0.65205 0.96638 0.0
H3401 H 0.76655 0.64461 0.97719 0.0
C3402 C 0.74954 0.66005 0.9507 0.0
C3403 C 0.74962 0.64629 0.97597 0.0
C3404 C 0.74333 0.63717 0.99237 0.0
C3405 C 0.76155 0.66252 0.9444 0.0
C3406 C 0.76786 0.65706 0.95429 0.0
C3407 C 0.76178 0.64893 0.96984 0.0
C3408 C 0.78057 0.65946 0.94798 0.0
C3409 C 0.76729 0.67078 0.92693 0.0
C3410 C 0.78183 0.64965 0.93942 0.0
C3411 C 0.79298 0.6525 0.92945 0.0
C3412 C 0.80298 0.66518 0.92799 0.0
C3413 C 0.80214 0.67477 0.93804 0.0
C3414 C 0.79106 0.67191 0.9481 0.0
H3415 H 0.76005 0.67177 0.91852 0.0
H3416 H 0.77478 0.68045 0.93147 0.0
H3417 H 0.7718 0.66679 0.91747 0.0
H3418 H 0.77384 0.63998 0.93917 0.0
H3419 H 0.79334 0.64501 0.92151 0.0
H3420 H 0.95366 0.67261 0.00096 0.0
H3421 H 0.93545 0.67567 0.99481 0.0
H3422 H 0.91321 0.63656 0.97627 0.0
H3423 H 0.93121 0.63334 0.9828 0.0
H3424 H 0.92399 0.673 0.95964 0.0
H3425 H 0.88841 0.64006 0.0118 0.0
H3426 H 0.90521 0.64531 0.01372 0.0
H3427 H 0.89517 0.63254 0.99769 0.0
C3428 C 0.94481 0.66459 0.99594 0.0
C3429 C 0.9439 0.65273 0.99235 0.0
C3430 C 0.93443 0.66637 0.99237 0.0
C3431 C 0.9229 0.65629 0.98536 0.0
C3432 C 0.92191 0.6444 0.98206 0.0
H3433 H 0.85703 0.64054 0.9249 0.0
H3434 H 0.87275 0.64059 0.94685 0.0
C3435 C 0.93228 0.64262 0.98556 0.0
C3436 C 0.91226 0.65844 0.97987 0.0
H3437 H 0.8802 0.64639 0.98519 0.0
C3438 C 0.91447 0.66739 0.96549 0.0
C3439 C 0.89984 0.6511 0.98754 0.0
C3440 C 0.89702 0.6418 0.00368 0.0
C3441 C 0.90445 0.66862 0.95771 0.0
C3442 C 0.8919 0.66089 0.96481 0.0
C3443 C 0.88981 0.65235 0.97981 0.0
C3444 C 0.88073 0.66036 0.95511 0.0
C3445 C 0.90726 0.67762 0.94111 0.0
C3446 C 0.87947 0.67124 0.95333 0.0
C3447 C 0.87042 0.67121 0.94077 0.0
C3448 C 0.86251 0.66027 0.92995 0.0
C3449 C 0.863 0.64908 0.93315 0.0
C3450 C 0.87201 0.64911 0.94564 0.0
H3451 H 0.91698 0.68117 0.93521 0.0
H3452 H 0.90022 0.67286 0.92944 0.0
H3453 H 0.90659 0.68599 0.94596 0.0
H3454 H 0.88596 0.67996 0.96077 0.0
H3455 H 0.87029 0.67998 0.93841 0.0
H3456 H 0.34856 0.29017 0.96331 0.0
H3457 H 0.34754 0.26999 0.95603 0.0
H3458 H 0.36087 0.26899 0.01283 0.0
H3459 H 0.36243 0.28953 0.02003 0.0
H3460 H 0.37321 0.26305 0.98576 0.0
H3461 H 0.32128 0.23457 0.97335 0.0
H3462 H 0.32837 0.24874 0.95901 0.0
H3463 H 0.32867 0.25004 0.98469 0.0
C3464 C 0.35136 0.28573 0.97427 0.0
C3465 C 0.35559 0.29151 0.99228 0.0
C3466 C 0.35058 0.27407 0.97016 0.0
C3467 C 0.35387 0.26783 0.98401 0.0
C3468 C 0.35815 0.27357 0.00199 0.0
H3469 H 0.33612 0.19195 0.9448 0.0
H3470 H 0.3386 0.20811 0.96833 0.0
C3471 C 0.35895 0.28527 0.00612 0.0
C3472 C 0.35333 0.2556 0.97924 0.0
H3473 H 0.33398 0.2265 0.95901 0.0
C3474 C 0.36457 0.25496 0.98024 0.0
C3475 C 0.34201 0.24489 0.97251 0.0
C3476 C 0.32937 0.24453 0.97253 0.0
C3477 C 0.365 0.24427 0.97339 0.0
C3478 C 0.35397 0.23407 0.96496 0.0
C3479 C 0.34251 0.23434 0.96526 0.0
C3480 C 0.35436 0.22385 0.95366 0.0
C3481 C 0.37735 0.24414 0.97493 0.0
C3482 C 0.36269 0.22721 0.93801 0.0
C3483 C 0.36136 0.21801 0.92476 0.0
C3484 C 0.35157 0.20527 0.92672 0.0
C3485 C 0.34384 0.20168 0.9431 0.0
C3486 C 0.34519 0.21093 0.95644 0.0
H3487 H 0.38284 0.24951 0.98775 0.0
H3488 H 0.37569 0.23426 0.97574 0.0
H3489 H 0.38332 0.2489 0.9622 0.0
H3490 H 0.36964 0.2371 0.93521 0.0
H3491 H 0.36739 0.22102 0.91217 0.0
H3492 H 0.70699 0.07654 0.00405 0.0
H3493 H 0.72754 0.09508 0.9956 0.0
H3494 H 0.74356 0.07065 0.98771 0.0
H3495 H 0.72305 0.05205 0.99613 0.0
H3496 H 0.76009 0.09382 0.00693 0.0
H3497 H 0.74026 0.10211 0.94023 0.0
H3498 H 0.73214 0.10181 0.96187 0.0
H3499 H 0.73184 0.08757 0.95385 0.0
C3500 C 0.71489 0.07511 0.00052 0.0
C3501 C 0.71333 0.06278 0.00057 0.0
C3502 C 0.72663 0.08572 0.99572 0.0
C3503 C 0.73703 0.08423 0.99071 0.0
C3504 C 0.73566 0.07202 0.99149 0.0
H3505 H 0.80912 0.12238 0.93707 0.0
H3506 H 0.79135 0.10982 0.95869 0.0
C3507 C 0.72393 0.0614 0.99637 0.0
C3508 C 0.74914 0.09524 0.98378 0.0
H3509 H 0.76188 0.11628 0.94672 0.0
C3510 C 0.76048 0.09881 0.99385 0.0
C3511 C 0.74964 0.10179 0.96675 0.0
C3512 C 0.73786 0.0981 0.95492 0.0
C3513 C 0.77232 0.1086 0.98717 0.0
C3514 C 0.77286 0.11485 0.9698 0.0
C3515 C 0.76146 0.11157 0.96011 0.0
C3516 C 0.7851 0.1237 0.96018 0.0
C3517 C 0.78415 0.11209 0.9987 0.0
C3518 C 0.78772 0.13584 0.95405 0.0
C3519 C 0.79794 0.14306 0.94164 0.0
C3520 C 0.80558 0.13817 0.93505 0.0
C3521 C 0.80344 0.12641 0.94215 0.0
C3522 C 0.79331 0.11924 0.95457 0.0
H3523 H 0.78185 0.1099 0.0141 0.0
H3524 H 0.78844 0.10641 0.99357 0.0
H3525 H 0.79134 0.12237 0.99718 0.0
H3526 H 0.78145 0.13942 0.95806 0.0
H3527 H 0.79927 0.152 0.93611 0.0
H3528 H 0.63936 0.93655 0.0477 0.0
H3529 H 0.64132 0.91786 0.05449 0.0
H3530 H 0.66667 0.92677 0.00644 0.0
H3531 H 0.66459 0.94546 0.99925 0.0
H3532 H 0.63605 0.89638 0.02996 0.0
H3533 H 0.68687 0.92444 0.05292 0.0
H3534 H 0.67685 0.93148 0.05107 0.0
H3535 H 0.68288 0.92802 0.02985 0.0
C3536 C 0.64521 0.93448 0.03836 0.0
C3537 C 0.6518 0.94255 0.02289 0.0
C3538 C 0.64637 0.9238 0.04233 0.0
C3539 C 0.6542 0.92097 0.03105 0.0
C3540 C 0.6607 0.92888 0.01546 0.0
H3541 H 0.67693 0.86592 0.06792 0.0
H3542 H 0.67324 0.87932 0.04536 0.0
C3543 C 0.65953 0.93958 0.01143 0.0
C3544 C 0.65572 0.90991 0.03612 0.0
H3545 H 0.67668 0.90224 0.05624 0.0
C3546 C 0.64498 0.89762 0.03546 0.0
C3547 C 0.6674 0.91154 0.04313 0.0
C3548 C 0.67918 0.92456 0.04445 0.0
C3549 C 0.64549 0.88697 0.04226 0.0
C3550 C 0.65697 0.88869 0.05031 0.0
C3551 C 0.66788 0.9009 0.05003 0.0
C3552 C 0.65751 0.87848 0.06132 0.0
C3553 C 0.63365 0.874 0.04103 0.0
C3554 C 0.64968 0.87323 0.07743 0.0
C3555 C 0.65174 0.86558 0.09016 0.0
C3556 C 0.6617 0.86303 0.08708 0.0
C3557 C 0.66904 0.86756 0.07037 0.0
C3558 C 0.667 0.87529 0.0576 0.0
H3559 H 0.62762 0.87345 0.02868 0.0
H3560 H 0.63604 0.86631 0.03965 0.0
H3561 H 0.6279 0.87228 0.0542 0.0
H3562 H 0.64253 0.87578 0.08093 0.0
H3563 H 0.64611 0.86235 0.10313 0.0
H3564 H 0.07563 0.70376 0.02826 0.0
H3565 H 0.09332 0.72458 0.03794 0.0
H3566 H 0.06983 0.74149 0.02842 0.0
H3567 H 0.05195 0.72069 0.01953 0.0
H3568 H 0.1064 0.74869 0.01971 0.0
H3569 H 0.08045 0.74976 0.08446 0.0
H3570 H 0.07526 0.73551 0.07041 0.0
H3571 H 0.07188 0.74764 0.06255 0.0
C3572 C 0.07419 0.71189 0.0283 0.0
C3573 C 0.06228 0.71048 0.02332 0.0
C3574 C 0.08436 0.72381 0.03366 0.0
C3575 C 0.08282 0.73454 0.03417 0.0
C3576 C 0.07116 0.73329 0.0284 0.0
H3577 H 0.12638 0.81014 0.08148 0.0
H3578 H 0.11248 0.79225 0.06067 0.0
C3579 C 0.06097 0.72139 0.02313 0.0
C3580 C 0.09316 0.74687 0.04172 0.0
H3581 H 0.09993 0.76844 0.07759 0.0
C3582 C 0.10502 0.75304 0.03236 0.0
C3583 C 0.09135 0.75245 0.05833 0.0
C3584 C 0.0791 0.74596 0.06965 0.0
C3585 C 0.11504 0.76479 0.03899 0.0
C3586 C 0.11314 0.77041 0.05545 0.0
C3587 C 0.10131 0.76419 0.06482 0.0
C3588 C 0.12329 0.78256 0.06382 0.0
C3589 C 0.12748 0.7712 0.0282 0.0
C3590 C 0.13431 0.78333 0.07181 0.0
C3591 C 0.14235 0.79366 0.08354 0.0
C3592 C 0.1394 0.80325 0.08749 0.0
C3593 C 0.12892 0.80293 0.07837 0.0
C3594 C 0.12095 0.79268 0.0666 0.0
H3595 H 0.12638 0.76738 0.01344 0.0
H3596 H 0.13139 0.78166 0.02744 0.0
H3597 H 0.13452 0.76947 0.0358 0.0
H3598 H 0.13616 0.77552 0.07018 0.0
H3599 H 0.15022 0.79359 0.09079 0.0
H3600 H 0.2999 0.36811 0.03021 0.0
H3601 H 0.27864 0.36442 0.03815 0.0
H3602 H 0.26338 0.32385 0.03343 0.0
H3603 H 0.28464 0.32739 0.02619 0.0
H3604 H 0.25489 0.35154 0.01859 0.0
H3605 H 0.25344 0.32822 0.08768 0.0
H3606 H 0.26794 0.33715 0.07411 0.0
H3607 H 0.25638 0.32116 0.06717 0.0
C3608 C 0.29205 0.35839 0.03096 0.0
C3609 C 0.29406 0.34805 0.02774 0.0
C3610 C 0.27987 0.35631 0.03533 0.0
C3611 C 0.26945 0.34386 0.03663 0.0
C3612 C 0.27132 0.33354 0.03277 0.0
H3613 H 0.19377 0.3147 0.08428 0.0
H3614 H 0.21108 0.31647 0.06402 0.0
C3615 C 0.28348 0.3356 0.02844 0.0
C3616 C 0.25676 0.34165 0.04285 0.0
H3617 H 0.23487 0.32855 0.07876 0.0
C3618 C 0.25047 0.34648 0.03171 0.0
C3619 C 0.25103 0.33508 0.06 0.0
C3620 C 0.25757 0.33019 0.07305 0.0
C3621 C 0.23855 0.34482 0.03722 0.0
C3622 C 0.23287 0.33831 0.05444 0.0
C3623 C 0.23914 0.33341 0.06544 0.0
C3624 C 0.22085 0.33707 0.06217 0.0
C3625 C 0.2321 0.34993 0.02447 0.0
C3626 C 0.22024 0.348 0.06712 0.0
C3627 C 0.21022 0.34696 0.07844 0.0
C3628 C 0.20072 0.33498 0.08506 0.0
C3629 C 0.20082 0.324 0.07894 0.0
C3630 C 0.21078 0.32503 0.06754 0.0
H3631 H 0.23551 0.35099 0.00948 0.0
H3632 H 0.22158 0.34361 0.02465 0.0
H3633 H 0.23436 0.35949 0.02968 0.0
H3634 H 0.22801 0.35741 0.06357 0.0
H3635 H 0.21054 0.35557 0.08348 0.0
H3636 H 0.72208 0.66952 0.36458 0.0
H3637 H 0.74105 0.66834 0.37277 0.0
H3638 H 0.765 0.70726 0.35453 0.0
H3639 H 0.74605 0.70848 0.34584 0.0
H3640 H 0.76328 0.67348 0.34896 0.0
H3641 H 0.77518 0.70609 0.41146 0.0
H3642 H 0.75957 0.69833 0.40055 0.0
H3643 H 0.7727 0.71153 0.38879 0.0
C3644 C 0.73136 0.67778 0.36196 0.0
C3645 C 0.73249 0.68911 0.35456 0.0
C3646 C 0.7422 0.6771 0.36674 0.0
C3647 C 0.75441 0.68773 0.3644 0.0
C3648 C 0.75565 0.69898 0.35667 0.0
H3649 H 0.82232 0.6933 0.41877 0.0
H3650 H 0.81005 0.69867 0.39643 0.0
C3651 C 0.74479 0.69967 0.35179 0.0
C3652 C 0.76574 0.68707 0.37078 0.0
H3653 H 0.78778 0.6967 0.40662 0.0
C3654 C 0.76876 0.67867 0.36142 0.0
C3655 C 0.77294 0.69395 0.38692 0.0
C3656 C 0.76996 0.70294 0.39766 0.0
C3657 C 0.77856 0.67667 0.36814 0.0
C3658 C 0.78529 0.68301 0.38493 0.0
C3659 C 0.78266 0.69187 0.39373 0.0
C3660 C 0.79388 0.67947 0.39504 0.0
C3661 C 0.78147 0.66767 0.35731 0.0
C3662 C 0.78907 0.66685 0.40123 0.0
C3663 C 0.79607 0.66379 0.41381 0.0
C3664 C 0.80801 0.6733 0.42064 0.0
C3665 C 0.81322 0.68577 0.41353 0.0
C3666 C 0.80617 0.68885 0.4009 0.0
H3667 H 0.77931 0.66755 0.34184 0.0
H3668 H 0.79162 0.6703 0.35892 0.0
H3669 H 0.77537 0.65784 0.36285 0.0
H3670 H 0.77952 0.65949 0.39735 0.0
H3671 H 0.79182 0.65412 0.41916 0.0
H3672 H 0.33358 0.05219 0.37775 0.0
H3673 H 0.33348 0.0716 0.3861 0.0
H3674 H 0.30467 0.06329 0.34337 0.0
H3675 H 0.3038 0.04318 0.33614 0.0
H3676 H 0.33911 0.09229 0.36791 0.0
H3677 H 0.28788 0.06916 0.38755 0.0
H3678 H 0.29561 0.06009 0.38245 0.0
H3679 H 0.29062 0.06649 0.36324 0.0
C3680 C 0.32699 0.05427 0.37036 0.0
C3681 C 0.31853 0.04586 0.35648 0.0
C3682 C 0.32708 0.06553 0.37498 0.0
C3683 C 0.31888 0.06885 0.36568 0.0
C3684 C 0.31083 0.06081 0.35119 0.0
H3685 H 0.33535 0.14583 0.40202 0.0
H3686 H 0.33084 0.12871 0.37897 0.0
C3687 C 0.31052 0.04937 0.34682 0.0
C3688 C 0.3188 0.08066 0.37151 0.0
H3689 H 0.29985 0.09145 0.39014 0.0
C3690 C 0.3305 0.09213 0.37267 0.0
C3691 C 0.30756 0.08047 0.37769 0.0
C3692 C 0.29473 0.06838 0.37786 0.0
C3693 C 0.33144 0.10317 0.38085 0.0
C3694 C 0.32024 0.10293 0.38733 0.0
C3695 C 0.30842 0.09167 0.38507 0.0
C3696 C 0.32077 0.11337 0.39932 0.0
C3697 C 0.34455 0.11464 0.38368 0.0
C3698 C 0.31564 0.11043 0.41784 0.0
C3699 C 0.31785 0.12011 0.4307 0.0
C3700 C 0.3254 0.13299 0.42546 0.0
C3701 C 0.32957 0.13598 0.40644 0.0
C3702 C 0.32717 0.12621 0.39338 0.0
H3703 H 0.35224 0.11231 0.38146 0.0
H3704 H 0.34602 0.12214 0.37322 0.0
H3705 H 0.34557 0.11861 0.3983 0.0
H3706 H 0.31055 0.10065 0.4228 0.0
H3707 H 0.31436 0.11753 0.44521 0.0
H3708 H 0.95459 0.27295 0.33027 0.0
H3709 H 0.93367 0.25466 0.33809 0.0
H3710 H 0.94166 0.26274 0.39818 0.0
H3711 H 0.96255 0.28094 0.3905 0.0
H3712 H 0.93208 0.2376 0.39012 0.0
H3713 H 0.90192 0.25483 0.35649 0.0
H3714 H 0.91327 0.25407 0.34082 0.0
H3715 H 0.91879 0.26511 0.36049 0.0
C3716 C 0.95183 0.2709 0.34515 0.0
C3717 C 0.96025 0.27842 0.35976 0.0
C3718 C 0.93985 0.26045 0.34959 0.0
C3719 C 0.936 0.25741 0.36872 0.0
C3720 C 0.94441 0.26489 0.38331 0.0
H3721 H 0.86751 0.21629 0.43016 0.0
H3722 H 0.88458 0.23096 0.40892 0.0
C3723 C 0.95638 0.27527 0.3789 0.0
C3724 C 0.92339 0.24627 0.3738 0.0
H3725 H 0.89121 0.23446 0.3708 0.0
C3726 C 0.92314 0.23685 0.38574 0.0
C3727 C 0.91172 0.24533 0.36815 0.0
C3728 C 0.91136 0.25541 0.35591 0.0
C3729 C 0.91162 0.22675 0.39271 0.0
C3730 C 0.89993 0.22583 0.38718 0.0
C3731 C 0.90015 0.23506 0.37478 0.0
C3732 C 0.88765 0.21642 0.39623 0.0
C3733 C 0.91214 0.21758 0.40681 0.0
C3734 C 0.88308 0.20322 0.39525 0.0
C3735 C 0.87327 0.19479 0.40746 0.0
C3736 C 0.86787 0.19947 0.42065 0.0
C3737 C 0.87151 0.21246 0.42008 0.0
C3738 C 0.88131 0.22085 0.40798 0.0
H3739 H 0.92194 0.2211 0.41238 0.0
H3740 H 0.90571 0.21593 0.41913 0.0
H3741 H 0.90896 0.20829 0.39966 0.0
H3742 H 0.88766 0.19955 0.38598 0.0
H3743 H 0.8707 0.18484 0.40772 0.0
H3744 H 0.01234 0.39497 0.34504 0.0
H3745 H 0.01109 0.41409 0.33783 0.0
H3746 H 0.03703 0.42263 0.29065 0.0
H3747 H 0.03828 0.40351 0.29764 0.0
H3748 H 0.04233 0.44425 0.31366 0.0
H3749 H 0.99136 0.41655 0.29168 0.0
H3750 H 0.99496 0.41317 0.31513 0.0
H3751 H 1.0011 0.40926 0.29444 0.0
C3752 C 0.01774 0.40088 0.33306 0.0
C3753 C 0.02534 0.39763 0.32183 0.0
C3754 C 0.01703 0.41182 0.329 0.0
C3755 C 0.02385 0.41971 0.31357 0.0
C3756 C 0.0317 0.41669 0.30265 0.0
H3757 H 0.03012 0.47902 0.24325 0.0
H3758 H 0.03476 0.46575 0.26421 0.0
C3759 C 0.03243 0.40576 0.30671 0.0
C3760 C 0.0225 0.43085 0.30826 0.0
H3761 H 1.00132 0.43883 0.28989 0.0
C3762 C 0.03334 0.44309 0.30862 0.0
C3763 C 0.01075 0.42934 0.30181 0.0
C3764 C 0.99888 0.41638 0.30056 0.0
C3765 C 0.03279 0.45384 0.30233 0.0
C3766 C 0.02116 0.45226 0.29516 0.0
C3767 C 0.01023 0.44008 0.2955 0.0
C3768 C 0.02033 0.46266 0.28516 0.0
C3769 C 0.04471 0.46676 0.30328 0.0
C3770 C 0.01087 0.46565 0.29012 0.0
C3771 C 0.00823 0.47329 0.27808 0.0
C3772 C 0.01494 0.47796 0.26088 0.0
C3773 C 0.02499 0.47573 0.25665 0.0
C3774 C 0.02765 0.46814 0.26865 0.0
H3775 H 0.05111 0.46715 0.31498 0.0
H3776 H 0.05002 0.46859 0.28963 0.0
H3777 H 0.04243 0.47447 0.30552 0.0
H3778 H 0.00503 0.46145 0.3027 0.0
H3779 H 1.00026 0.47467 0.28141 0.0
H3780 H 0.60983 0.61905 0.35238 0.0
H3781 H 0.59179 0.59797 0.34429 0.0
H3782 H 0.59535 0.609 0.28501 0.0
H3783 H 0.61349 0.62989 0.29284 0.0
H3784 H 0.56832 0.59177 0.32666 0.0
H3785 H 0.59538 0.5751 0.28335 0.0
H3786 H 0.60306 0.58854 0.29945 0.0
H3787 H 0.59814 0.59047 0.276 0.0
C3788 C 0.60685 0.61693 0.33759 0.0
C3789 C 0.61313 0.62616 0.32325 0.0
C3790 C 0.5965 0.60491 0.33302 0.0
C3791 C 0.59235 0.60185 0.31401 0.0
C3792 C 0.59853 0.61107 0.29972 0.0
H3793 H 0.52559 0.55351 0.25422 0.0
H3794 H 0.54128 0.56889 0.27648 0.0
C3795 C 0.60881 0.62308 0.30427 0.0
C3796 C 0.58139 0.58917 0.30896 0.0
H3797 H 0.5727 0.56407 0.27861 0.0
C3798 C 0.56929 0.58559 0.3164 0.0
C3799 C 0.58269 0.58097 0.2959 0.0
C3800 C 0.59554 0.58388 0.28836 0.0
C3801 C 0.55834 0.57445 0.31013 0.0
C3802 C 0.55953 0.56681 0.29589 0.0
C3803 C 0.57174 0.56995 0.28944 0.0
C3804 C 0.5483 0.55647 0.28577 0.0
C3805 C 0.54559 0.57114 0.31853 0.0
C3806 C 0.5468 0.54424 0.28379 0.0
C3807 C 0.53777 0.5354 0.27102 0.0
C3808 C 0.53024 0.53875 0.25992 0.0
C3809 C 0.53119 0.55067 0.26282 0.0
C3810 C 0.54014 0.55944 0.2756 0.0
H3811 H 0.54665 0.57484 0.33336 0.0
H3812 H 0.54125 0.57563 0.3098 0.0
H3813 H 0.53896 0.56067 0.31869 0.0
H3814 H 0.55308 0.54178 0.29137 0.0
H3815 H 0.53735 0.52634 0.26877 0.0
H3816 H 0.36787 0.96212 0.32466 0.0
H3817 H 0.38775 0.96257 0.31678 0.0
H3818 H 0.40861 0.00334 0.32499 0.0
H3819 H 0.38888 0.0029 0.33368 0.0
H3820 H 0.40288 0.97464 0.28688 0.0
H3821 H 0.43121 0.99318 0.35316 0.0
H3822 H 0.41424 0.98722 0.35244 0.0
H3823 H 0.42529 0.00325 0.34483 0.0
C3824 C 0.37672 0.97115 0.32528 0.0
C3825 C 0.37674 0.98248 0.32982 0.0
C3826 C 0.38808 0.97139 0.32066 0.0
C3827 C 0.39973 0.98295 0.32056 0.0
C3828 C 0.39981 0.99425 0.32539 0.0
H3829 H 0.47211 0.01496 0.26858 0.0
H3830 H 0.45383 0.00967 0.28929 0.0
C3831 C 0.38847 0.99401 0.33007 0.0
C3832 C 0.41158 0.9834 0.31371 0.0
H3833 H 0.44303 0.99496 0.32445 0.0
C3834 C 0.41159 0.97885 0.29525 0.0
C3835 C 0.42296 0.98891 0.32462 0.0
C3836 C 0.42341 0.9933 0.34494 0.0
C3837 C 0.42279 0.98024 0.28703 0.0
C3838 C 0.43428 0.98619 0.29766 0.0
C3839 C 0.4342 0.99037 0.31636 0.0
C3840 C 0.44662 0.98933 0.28871 0.0
C3841 C 0.42239 0.97594 0.26665 0.0
C3842 C 0.44899 0.9797 0.28236 0.0
C3843 C 0.45951 0.98273 0.27062 0.0
C3844 C 0.46774 0.99542 0.26508 0.0
C3845 C 0.46591 0.00511 0.27274 0.0
C3846 C 0.45547 0.0021 0.28452 0.0
H3847 H 0.41323 0.97337 0.25946 0.0
H3848 H 0.43032 0.98355 0.25822 0.0
H3849 H 0.42357 0.96743 0.26652 0.0
H3850 H 0.44232 0.96979 0.28561 0.0
H3851 H 0.46065 0.97509 0.26473 0.0
H3852 H 0.59748 0.96486 0.32045 0.0
H3853 H 0.57955 0.96789 0.31235 0.0
H3854 H 0.60359 0.00852 0.31936 0.0
H3855 H 0.62173 0.00566 0.32658 0.0
H3856 H 0.56747 0.97868 0.33212 0.0
H3857 H 0.58984 0.00589 0.26565 0.0
H3858 H 0.59613 0.99733 0.27845 0.0
H3859 H 0.59914 0.01261 0.2869 0.0
C3860 C 0.59902 0.97446 0.32008 0.0
C3861 C 0.61114 0.98502 0.32396 0.0
C3862 C 0.5887 0.97616 0.31564 0.0
C3863 C 0.59025 0.98844 0.31496 0.0
C3864 C 0.60221 0.99897 0.31945 0.0
H3865 H 0.53799 0.01164 0.26815 0.0
H3866 H 0.5545 0.01192 0.28892 0.0
C3867 C 0.61256 0.99729 0.3238 0.0
C3868 C 0.57944 0.99019 0.30899 0.0
H3869 H 0.56987 0.00326 0.27403 0.0
C3870 C 0.56801 0.98412 0.31948 0.0
C3871 C 0.58014 0.9973 0.2925 0.0
C3872 C 0.59192 0.00357 0.2801 0.0
C3873 C 0.55726 0.98486 0.31382 0.0
C3874 C 0.55789 0.99174 0.29712 0.0
C3875 C 0.56942 0.99809 0.28695 0.0
C3876 C 0.54648 0.99144 0.28867 0.0
C3877 C 0.54529 0.97822 0.32571 0.0
C3878 C 0.53624 0.97982 0.28224 0.0
C3879 C 0.52683 0.97967 0.2705 0.0
C3880 C 0.52746 0.99112 0.26503 0.0
C3881 C 0.53715 0.00268 0.27258 0.0
C3882 C 0.54663 0.00284 0.28427 0.0
H3883 H 0.54746 0.97702 0.34074 0.0
H3884 H 0.54007 0.98358 0.32563 0.0
H3885 H 0.53892 0.96859 0.31969 0.0
H3886 H 0.53605 0.97093 0.28504 0.0
H3887 H 0.51961 0.97068 0.26445 0.0
H3888 H 0.03837 0.6309 0.33744 0.0
H3889 H 0.03576 0.60997 0.32998 0.0
H3890 H 0.99771 0.59725 0.30932 0.0
H3891 H 1.00024 0.61813 0.31669 0.0
H3892 H 0.99959 0.57898 0.33218 0.0
H3893 H 0.03663 0.59839 0.27527 0.0
H3894 H 0.04177 0.60561 0.29842 0.0
H3895 H 0.03002 0.60751 0.28545 0.0
C3896 C 0.02946 0.62366 0.33124 0.0
C3897 C 0.01955 0.62624 0.32752 0.0
C3898 C 0.02798 0.6117 0.32702 0.0
C3899 C 0.01661 0.6021 0.31885 0.0
C3900 C 0.00657 0.60451 0.31563 0.0
H3901 H 0.98489 0.53175 0.2608 0.0
H3902 H 0.98853 0.54893 0.28275 0.0
C3903 C 0.00802 0.61645 0.3199 0.0
C3904 C 0.01527 0.5897 0.31294 0.0
H3905 H 0.02652 0.57638 0.28099 0.0
C3906 C 0.00554 0.5784 0.3211 0.0
C3907 C 0.02309 0.58896 0.29855 0.0
C3908 C 0.0334 0.60073 0.28876 0.0
C3909 C 0.00327 0.56637 0.315 0.0
C3910 C 0.01079 0.56562 0.30015 0.0
C3911 C 0.02081 0.57694 0.29249 0.0
C3912 C 0.00761 0.55338 0.29067 0.0
C3913 C 0.99276 0.55458 0.32443 0.0
C3914 C 0.01697 0.54988 0.28815 0.0
C3915 C 0.01486 0.53999 0.27558 0.0
C3916 C 0.00342 0.53358 0.26522 0.0
C3917 C 0.99372 0.53645 0.26885 0.0
C3918 C 0.9958 0.54626 0.28142 0.0
H3919 H 0.99109 0.5566 0.33931 0.0
H3920 H 0.98377 0.55128 0.31631 0.0
H3921 H 0.995 0.54674 0.32468 0.0
H3922 H 0.02619 0.5553 0.29502 0.0
H3923 H 0.02255 0.5381 0.27275 0.0
H3924 H 0.38195 0.39003 0.29637 0.0
H3925 H 0.40217 0.40921 0.28926 0.0
H3926 H 0.4007 0.4255 0.34337 0.0
H3927 H 0.38014 0.40644 0.35035 0.0
H3928 H 0.40721 0.44257 0.31377 0.0
H3929 H 0.43709 0.42001 0.31145 0.0
H3930 H 0.42345 0.41194 0.29611 0.0
H3931 H 0.42124 0.41211 0.32155 0.0
C3932 C 0.38586 0.3977 0.30675 0.0
C3933 C 0.37938 0.39667 0.32394 0.0
C3934 C 0.39753 0.4086 0.30277 0.0
C3935 C 0.40309 0.4187 0.31594 0.0
C3936 C 0.39666 0.41777 0.33309 0.0
H3937 H 0.48003 0.47714 0.28077 0.0
H3938 H 0.46294 0.46396 0.30349 0.0
C3939 C 0.38494 0.40683 0.3371 0.0
C3940 C 0.41535 0.43038 0.31126 0.0
H3941 H 0.44538 0.44011 0.29494 0.0
C3942 C 0.41564 0.44209 0.30999 0.0
C3943 C 0.42647 0.42987 0.30678 0.0
C3944 C 0.42711 0.41783 0.30925 0.0
C3945 C 0.42646 0.45308 0.30303 0.0
C3946 C 0.43715 0.45226 0.29687 0.0
C3947 C 0.43717 0.44076 0.29947 0.0
C3948 C 0.44769 0.46253 0.28556 0.0
C3949 C 0.42619 0.46537 0.30199 0.0
C3950 C 0.44487 0.46646 0.26826 0.0
C3951 C 0.45458 0.47401 0.25545 0.0
C3952 C 0.46732 0.47773 0.25962 0.0
C3953 C 0.4703 0.47456 0.27743 0.0
C3954 C 0.46053 0.46696 0.2903 0.0
H3955 H 0.42009 0.46583 0.31347 0.0
H3956 H 0.43591 0.47381 0.30324 0.0
H3957 H 0.42204 0.46585 0.28808 0.0
H3958 H 0.43507 0.46293 0.26398 0.0
H3959 H 0.45206 0.47619 0.24165 0.0
H3960 H 0.32358 0.27356 0.32859 0.0
H3961 H 0.32572 0.25484 0.33546 0.0
H3962 H 0.32123 0.25922 0.39566 0.0
H3963 H 0.31915 0.27785 0.38898 0.0
H3964 H 0.34323 0.25229 0.35786 0.0
H3965 H 0.2945 0.22204 0.38617 0.0
H3966 H 0.29909 0.23644 0.37278 0.0
H3967 H 0.3026 0.23724 0.39793 0.0
C3968 C 0.32309 0.27055 0.34329 0.0
C3969 C 0.32104 0.27713 0.35822 0.0
C3970 C 0.32426 0.25983 0.34718 0.0
C3971 C 0.32335 0.25546 0.36603 0.0
C3972 C 0.32159 0.26218 0.38095 0.0
H3973 H 0.35066 0.21667 0.4308 0.0
H3974 H 0.34862 0.23062 0.40777 0.0
C3975 C 0.32041 0.27285 0.3771 0.0
C3976 C 0.32452 0.24409 0.3704 0.0
H3977 H 0.31004 0.21617 0.39541 0.0
C3978 C 0.33589 0.24427 0.36577 0.0
C3979 C 0.31482 0.23345 0.38027 0.0
C3980 C 0.30201 0.23219 0.38439 0.0
C3981 C 0.33817 0.23455 0.37198 0.0
C3982 C 0.32893 0.22452 0.38341 0.0
C3983 C 0.3172 0.22389 0.38681 0.0
C3984 C 0.33173 0.21556 0.39405 0.0
C3985 C 0.35056 0.23528 0.36655 0.0
C3986 C 0.3231 0.20233 0.39386 0.0
C3987 C 0.32425 0.19431 0.40718 0.0
C3988 C 0.33399 0.19944 0.42094 0.0
C3989 C 0.34316 0.21248 0.42017 0.0
C3990 C 0.34201 0.22046 0.40692 0.0
H3991 H 0.35397 0.23999 0.35245 0.0
H3992 H 0.35795 0.2411 0.37731 0.0
H3993 H 0.3496 0.22567 0.36595 0.0
H3994 H 0.31504 0.19834 0.38416 0.0
H3995 H 0.31696 0.18433 0.40771 0.0
H3996 H 0.73969 0.03446 0.37701 0.0
H3997 H 0.7586 0.05506 0.38382 0.0
H3998 H 0.74333 0.07395 0.34973 0.0
H3999 H 0.72412 0.05345 0.3435 0.0
H4000 H 0.77685 0.07393 0.35998 0.0
H4001 H 0.74998 0.09218 0.40102 0.0
H4002 H 0.74306 0.07562 0.39444 0.0
H4003 H 0.74448 0.08717 0.37701 0.0
C4004 C 0.74027 0.043 0.37109 0.0
C4005 C 0.73027 0.04228 0.3599 0.0
C4006 C 0.75117 0.05476 0.37484 0.0
C4007 C 0.75232 0.06607 0.36751 0.0
C4008 C 0.74257 0.06537 0.35581 0.0
H4009 H 0.80707 0.14356 0.40448 0.0
H4010 H 0.79278 0.12656 0.38245 0.0
C4011 C 0.73163 0.05361 0.3521 0.0
C4012 C 0.76351 0.07857 0.37276 0.0
H4013 H 0.77204 0.10589 0.3978 0.0
C4014 C 0.77581 0.08098 0.36811 0.0
C4015 C 0.76215 0.08779 0.38332 0.0
C4016 C 0.74923 0.08557 0.38941 0.0
C4017 C 0.78676 0.09223 0.37404 0.0
C4018 C 0.78539 0.10124 0.38511 0.0
C4019 C 0.77309 0.09904 0.38916 0.0
C4020 C 0.79637 0.11224 0.39464 0.0
C4021 C 0.7997 0.09431 0.36854 0.0
C4022 C 0.80356 0.10999 0.40824 0.0
C4023 C 0.81174 0.11968 0.42068 0.0
C4024 C 0.81288 0.1318 0.41977 0.0
C4025 C 0.80654 0.13437 0.40517 0.0
C4026 C 0.79829 0.12464 0.39273 0.0
H4027 H 0.79921 0.08916 0.35512 0.0
H4028 H 0.80671 0.10461 0.36661 0.0
H4029 H 0.80322 0.09054 0.38003 0.0
H4030 H 0.80205 0.10047 0.41033 0.0
H4031 H 0.81633 0.11742 0.4321 0.0
H4032 H 0.95062 0.66295 0.35818 0.0
H4033 H 0.92948 0.65982 0.36534 0.0
H4034 H 0.94534 0.70057 0.36835 0.0
H4035 H 0.96636 0.7038 0.36039 0.0
H4036 H 0.92252 0.66675 0.39753 0.0
H4037 H 0.91398 0.69045 0.33645 0.0
H4038 H 0.92642 0.68638 0.33626 0.0
H4039 H 0.92894 0.70072 0.34793 0.0
C4040 C 0.94958 0.67127 0.35991 0.0
C4041 C 0.96024 0.68364 0.35869 0.0
C4042 C 0.93748 0.66945 0.36411 0.0
C4043 C 0.93575 0.67995 0.36708 0.0
C4044 C 0.94634 0.69231 0.36566 0.0
H4045 H 0.88549 0.6978 0.42419 0.0
H4046 H 0.90112 0.69707 0.40285 0.0
C4047 C 0.95842 0.69413 0.36141 0.0
C4048 C 0.92316 0.67803 0.37333 0.0
H4049 H 0.90124 0.68734 0.36462 0.0
C4050 C 0.91773 0.67103 0.39012 0.0
C4051 C 0.91689 0.68362 0.36366 0.0
C4052 C 0.92179 0.6906 0.34497 0.0
C4053 C 0.90663 0.67005 0.39805 0.0
C4054 C 0.90065 0.67607 0.38879 0.0
C4055 C 0.90581 0.6827 0.37165 0.0
C4056 C 0.88994 0.67673 0.39794 0.0
C4057 C 0.90176 0.66315 0.41684 0.0
C4058 C 0.87817 0.66565 0.4014 0.0
C4059 C 0.86916 0.66609 0.41348 0.0
C4060 C 0.87185 0.67761 0.4222 0.0
C4061 C 0.88317 0.68884 0.41744 0.0
C4062 C 0.89211 0.68842 0.40533 0.0
H4063 H 0.90862 0.6608 0.42361 0.0
H4064 H 0.89981 0.66903 0.42699 0.0
H4065 H 0.89268 0.65412 0.41438 0.0
H4066 H 0.87628 0.65655 0.39568 0.0
H4067 H 0.86058 0.65729 0.41718 0.0
H4068 H 0.392 0.00296 0.68022 0.0
H4069 H 0.41114 0.00262 0.69065 0.0
H4070 H 0.42605 0.04014 0.71511 0.0
H4071 H 0.40675 0.04033 0.70523 0.0
H4072 H 0.43635 0.01731 0.68349 0.0
H4073 H 0.42722 0.02052 0.76047 0.0
H4074 H 0.41559 0.01774 0.74224 0.0
H4075 H 0.42858 0.03362 0.74669 0.0
C4076 C 0.3994 0.01114 0.68775 0.0
C4077 C 0.39783 0.0216 0.69215 0.0
C4078 C 0.41033 0.01095 0.69369 0.0
C4079 C 0.41993 0.02124 0.70402 0.0
C4080 C 0.41862 0.03193 0.70766 0.0
H4081 H 0.487 0.0297 0.76344 0.0
H4082 H 0.47379 0.03507 0.74316 0.0
C4083 C 0.40761 0.03205 0.70198 0.0
C4084 C 0.43109 0.02059 0.71146 0.0
H4085 H 0.44666 0.02153 0.75269 0.0
C4086 C 0.43863 0.01827 0.69861 0.0
C4087 C 0.43403 0.02177 0.73123 0.0
C4088 C 0.42586 0.02342 0.74598 0.0
C4089 C 0.44899 0.01708 0.70503 0.0
C4090 C 0.45188 0.01827 0.72475 0.0
C4091 C 0.44451 0.02081 0.73753 0.0
C4092 C 0.46173 0.0158 0.73288 0.0
C4093 C 0.45675 0.0145 0.69077 0.0
C4094 C 0.45958 0.00329 0.73327 0.0
C4095 C 0.46707 1.00023 0.74487 0.0
C4096 C 0.47687 0.00966 0.75609 0.0
C4097 C 0.47967 0.02236 0.75456 0.0
C4098 C 0.47209 0.0254 0.74311 0.0
H4099 H 0.45518 0.01666 0.67591 0.0
H4100 H 0.46708 0.02023 0.69419 0.0
H4101 H 0.45395 0.00427 0.69148 0.0
H4102 H 0.4515 0.99571 0.7258 0.0
H4103 H 0.46459 0.99034 0.7462 0.0
H4104 H 0.9707 0.37491 0.67048 0.0
H4105 H 0.97298 0.39578 0.67746 0.0
H4106 H 0.00656 0.40579 0.71102 0.0
H4107 H 0.00424 0.38496 0.70454 0.0
H4108 H 0.97279 0.40521 0.71402 0.0
H4109 H 0.0181 0.43728 0.67687 0.0
H4110 H 0.00873 0.42043 0.67167 0.0
H4111 H 0.01915 0.42593 0.69212 0.0
C4112 C 0.97858 0.38155 0.67934 0.0
C4113 C 0.9873 0.37822 0.68688 0.0
C4114 C 0.97992 0.39351 0.68318 0.0
C4115 C 0.99008 0.40243 0.69445 0.0
C4116 C 0.99885 0.3992 0.70185 0.0
H4117 H 0.01496 0.46647 0.76381 0.0
H4118 H 0.0128 0.45037 0.74075 0.0
C4119 C 0.9975 0.38725 0.69811 0.0
C4120 C 0.991 0.41471 0.69991 0.0
H4121 H 0.0117 0.44684 0.70145 0.0
C4122 C 0.98116 0.41436 0.71094 0.0
C4123 C 1.00193 0.42662 0.69584 0.0
C4124 C 0.01253 0.42763 0.68332 0.0
C4125 C 0.98233 0.42548 0.71914 0.0
C4126 C 0.99354 0.43735 0.71581 0.0
C4127 C 0.00309 0.43777 0.70394 0.0
C4128 C 0.99624 0.44898 0.72669 0.0
C4129 C 0.97193 0.42429 0.73235 0.0
C4130 C 0.9881 0.45413 0.72572 0.0
C4131 C 0.98935 0.46339 0.73897 0.0
C4132 C 0.99877 0.46762 0.75322 0.0
C4133 C 0.00761 0.46333 0.75295 0.0
C4134 C 0.00637 0.45412 0.7398 0.0
H4135 H 0.96504 0.4142 0.73602 0.0
H4136 H 0.97606 0.42965 0.74582 0.0
H4137 H 0.96657 0.42837 0.72528 0.0
H4138 H 0.98038 0.45048 0.71545 0.0
H4139 H 0.98238 0.4665 0.73897 0.0
H4140 H 0.61845 0.61533 0.68555 0.0
H4141 H 0.59839 0.59642 0.69496 0.0
H4142 H 0.6195 0.58009 0.72007 0.0
H4143 H 0.63955 0.5991 0.71115 0.0
H4144 H 0.58728 0.57119 0.68699 0.0
H4145 H 0.59804 0.57895 0.76458 0.0
H4146 H 0.60753 0.59074 0.74689 0.0
H4147 H 0.60983 0.57739 0.75126 0.0
C4148 C 0.61879 0.60766 0.69299 0.0
C4149 C 0.63057 0.60876 0.69784 0.0
C4150 C 0.60733 0.59687 0.69836 0.0
C4151 C 0.60742 0.58693 0.70859 0.0
C4152 C 0.61917 0.58777 0.7127 0.0
H4153 H 0.54594 0.51988 0.76472 0.0
H4154 H 0.56537 0.53316 0.74606 0.0
C4155 C 0.63063 0.59863 0.70756 0.0
C4156 C 0.59524 0.57588 0.71538 0.0
H4157 H 0.57941 0.55994 0.75575 0.0
C4158 C 0.58557 0.56871 0.70202 0.0
C4159 C 0.59297 0.57265 0.73502 0.0
C4160 C 0.60258 0.5804 0.75029 0.0
C4161 C 0.57373 0.55845 0.70779 0.0
C4162 C 0.5715 0.55529 0.72739 0.0
C4163 C 0.58122 0.56229 0.74069 0.0
C4164 C 0.55884 0.54554 0.73483 0.0
C4165 C 0.56365 0.55109 0.69293 0.0
C4166 C 0.5486 0.54786 0.73419 0.0
C4167 C 0.53757 0.54033 0.74485 0.0
C4168 C 0.53656 0.5303 0.7562 0.0
C4169 C 0.5464 0.52738 0.75573 0.0
C4170 C 0.55751 0.53502 0.74521 0.0
H4171 H 0.56779 0.55258 0.67835 0.0
H4172 H 0.55853 0.54072 0.69621 0.0
H4173 H 0.55657 0.55435 0.69298 0.0
H4174 H 0.5495 0.55607 0.72659 0.0
H4175 H 0.5302 0.54291 0.74534 0.0
H4176 H 0.66908 0.71605 0.64127 0.0
H4177 H 0.66633 0.73431 0.63447 0.0
H4178 H 0.698 0.75789 0.67145 0.0
H4179 H 0.7007 0.73961 0.67867 0.0
H4180 H 0.66243 0.75105 0.66042 0.0
H4181 H 0.70756 0.77631 0.61867 0.0
H4182 H 0.70008 0.75953 0.62426 0.0
H4183 H 0.70863 0.77123 0.64242 0.0
C4184 C 0.67536 0.72505 0.64823 0.0
C4185 C 0.68516 0.72633 0.66047 0.0
C4186 C 0.67379 0.7355 0.64426 0.0
C4187 C 0.68203 0.74748 0.65231 0.0
C4188 C 0.69164 0.74877 0.66487 0.0
H4189 H 0.68923 0.8191 0.61105 0.0
H4190 H 0.69115 0.80453 0.6335 0.0
C4191 C 0.6932 0.73831 0.66891 0.0
C4192 C 0.68078 0.75866 0.64691 0.0
H4193 H 0.69503 0.78601 0.62047 0.0
C4194 C 0.66961 0.75877 0.65186 0.0
C4195 C 0.69021 0.76878 0.63588 0.0
C4196 C 0.70228 0.76901 0.62984 0.0
C4197 C 0.66747 0.76859 0.64567 0.0
C4198 C 0.67662 0.7784 0.63385 0.0
C4199 C 0.68803 0.77854 0.62959 0.0
C4200 C 0.674 0.78768 0.62379 0.0
C4201 C 0.65538 0.76829 0.65174 0.0
C4202 C 0.66351 0.78317 0.61138 0.0
C4203 C 0.66237 0.79148 0.59876 0.0
C4204 C 0.67174 0.80445 0.59818 0.0
C4205 C 0.68176 0.80918 0.61149 0.0
C4206 C 0.68291 0.80084 0.62417 0.0
H4207 H 0.65204 0.76352 0.66583 0.0
H4208 H 0.65672 0.77803 0.65267 0.0
H4209 H 0.64777 0.76273 0.64113 0.0
H4210 H 0.65668 0.77307 0.61039 0.0
H4211 H 0.65467 0.78759 0.58841 0.0
H4212 H 0.28913 0.95142 0.64263 0.0
H4213 H 0.27071 0.93038 0.63653 0.0
H4214 H 0.24704 0.94015 0.67018 0.0
H4215 H 0.26551 0.9612 0.67677 0.0
H4216 H 0.25317 0.91066 0.66345 0.0
H4217 H 0.22965 0.92994 0.61645 0.0
H4218 H 0.24636 0.93912 0.62255 0.0
H4219 H 0.23448 0.93684 0.63988 0.0
C4220 C 0.28008 0.94907 0.64905 0.0
C4221 C 0.27885 0.95808 0.66019 0.0
C4222 C 0.26954 0.93703 0.64546 0.0
C4223 C 0.25749 0.93374 0.65278 0.0
C4224 C 0.25623 0.94256 0.66421 0.0
H4225 H 0.18664 0.86919 0.60973 0.0
H4226 H 0.20057 0.88589 0.63241 0.0
C4227 C 0.26679 0.95462 0.66787 0.0
C4228 C 0.24625 0.92124 0.6477 0.0
H4229 H 0.21969 0.90776 0.61947 0.0
C4230 C 0.24575 0.91 0.65401 0.0
C4231 C 0.23653 0.9204 0.63554 0.0
C4232 C 0.23673 0.93218 0.62805 0.0
C4233 C 0.23596 0.89793 0.64807 0.0
C4234 C 0.2266 0.8971 0.63508 0.0
C4235 C 0.22681 0.90835 0.62947 0.0
C4236 C 0.21749 0.88499 0.62524 0.0
C4237 C 0.23584 0.88621 0.65563 0.0
C4238 C 0.2222 0.87853 0.61429 0.0
C4239 C 0.21424 0.86894 0.60155 0.0
C4240 C 0.20143 0.86569 0.59932 0.0
C4241 C 0.19643 0.87138 0.61137 0.0
C4242 C 0.20442 0.88101 0.62419 0.0
H4243 H 0.24008 0.88794 0.67018 0.0
H4244 H 0.22602 0.87788 0.65619 0.0
H4245 H 0.2417 0.88383 0.64614 0.0
H4246 H 0.23226 0.88156 0.61444 0.0
H4247 H 0.21835 0.86477 0.59229 0.0
H4248 H 0.05569 0.33318 0.67325 0.0
H4249 H 0.07583 0.33499 0.66267 0.0
H4250 H 0.05488 0.29993 0.63086 0.0
H4251 H 0.03477 0.29837 0.64083 0.0
H4252 H 0.08691 0.32065 0.66614 0.0
H4253 H 0.07678 0.32362 0.58957 0.0
H4254 H 0.06708 0.3244 0.60847 0.0
H4255 H 0.06482 0.30923 0.60067 0.0
C4256 C 0.05542 0.32584 0.66408 0.0
C4257 C 0.0437 0.31573 0.65763 0.0
C4258 C 0.06691 0.32687 0.65805 0.0
C4259 C 0.06689 0.31776 0.6456 0.0
C4260 C 0.05517 0.3073 0.63997 0.0
H4261 H 0.12735 0.31338 0.58522 0.0
H4262 H 0.10837 0.30721 0.605 0.0
C4263 C 0.04368 0.30638 0.64572 0.0
C4264 C 0.07911 0.31944 0.638 0.0
H4265 H 0.09506 0.32205 0.59643 0.0
C4266 C 0.08869 0.32095 0.6509 0.0
C4267 C 0.08149 0.31995 0.61808 0.0
C4268 C 0.07206 0.31935 0.6034 0.0
C4269 C 0.10051 0.32287 0.64439 0.0
C4270 C 0.10276 0.3232 0.62454 0.0
C4271 C 0.09319 0.32159 0.61167 0.0
C4272 C 0.11525 0.32611 0.61656 0.0
C4273 C 0.11056 0.32454 0.65868 0.0
C4274 C 0.12552 0.33868 0.61701 0.0
C4275 C 0.13629 0.3422 0.60568 0.0
C4276 C 0.13698 0.33317 0.59393 0.0
C4277 C 0.12712 0.32041 0.59455 0.0
C4278 C 0.11628 0.31691 0.60572 0.0
H4279 H 0.10665 0.32195 0.6734 0.0
H4280 H 0.11481 0.31862 0.65459 0.0
H4281 H 0.11832 0.33466 0.6587 0.0
H4282 H 0.12481 0.34596 0.62501 0.0
H4283 H 0.14367 0.35215 0.60503 0.0
H4284 H 0.26466 0.3103 0.67996 0.0
H4285 H 0.24707 0.31331 0.66929 0.0
H4286 H 0.2724 0.34249 0.63007 0.0
H4287 H 0.28984 0.33922 0.63997 0.0
H4288 H 0.24375 0.33499 0.66821 0.0
H4289 H 0.2438 0.31665 0.59555 0.0
H4290 H 0.25218 0.31466 0.61538 0.0
H4291 H 0.25909 0.32956 0.60267 0.0
C4292 C 0.26648 0.31732 0.669 0.0
C4293 C 0.27868 0.32443 0.66073 0.0
C4294 C 0.25644 0.3191 0.66305 0.0
C4295 C 0.25838 0.32798 0.64869 0.0
C4296 C 0.27064 0.33544 0.64097 0.0
H4297 H 0.21756 0.35555 0.58468 0.0
H4298 H 0.23249 0.35367 0.6062 0.0
C4299 C 0.28065 0.33365 0.64683 0.0
C4300 C 0.24756 0.32913 0.64108 0.0
H4301 H 0.2316 0.32693 0.59971 0.0
C4302 C 0.241 0.33312 0.65328 0.0
C4303 C 0.24389 0.32654 0.62164 0.0
C4304 C 0.25001 0.32149 0.60808 0.0
C4305 C 0.23119 0.33506 0.6463 0.0
C4306 C 0.22794 0.33295 0.62674 0.0
C4307 C 0.23424 0.32864 0.6147 0.0
C4308 C 0.21834 0.33554 0.618 0.0
C4309 C 0.22455 0.33964 0.6596 0.0
C4310 C 0.20536 0.32619 0.61813 0.0
C4311 C 0.19678 0.3273 0.6059 0.0
C4312 C 0.20116 0.33774 0.59341 0.0
C4313 C 0.21396 0.34753 0.59442 0.0
C4314 C 0.22248 0.34644 0.60662 0.0
H4315 H 0.2283 0.34101 0.67444 0.0
H4316 H 0.22575 0.34882 0.65428 0.0
H4317 H 0.21417 0.33263 0.65978 0.0
H4318 H 0.20204 0.31764 0.62664 0.0
H4319 H 0.18702 0.31952 0.60504 0.0
H4320 H 0.66948 0.95034 0.66604 0.0
H4321 H 0.66751 0.92972 0.65873 0.0
H4322 H 0.7071 0.94856 0.64218 0.0
H4323 H 0.70934 0.96918 0.65034 0.0
H4324 H 0.67054 0.92186 0.62444 0.0
H4325 H 0.70488 0.9201 0.67482 0.0
H4326 H 0.6995 0.93149 0.67723 0.0
H4327 H 0.71196 0.93431 0.66055 0.0
C4328 C 0.67787 0.95011 0.6613 0.0
C4329 C 0.68958 0.96148 0.65883 0.0
C4330 C 0.67669 0.93829 0.65701 0.0
C4331 C 0.6872 0.93754 0.65019 0.0
C4332 C 0.69893 0.94884 0.64785 0.0
H4333 H 0.69688 0.88286 0.58649 0.0
H4334 H 0.70027 0.90078 0.60689 0.0
C4335 C 0.70013 0.96067 0.65223 0.0
C4336 C 0.68559 0.92506 0.644 0.0
H4337 H 0.69781 0.90513 0.6488 0.0
C4338 C 0.67638 0.91812 0.63 0.0
C4339 C 0.69325 0.92019 0.65118 0.0
C4340 C 0.70286 0.92685 0.66691 0.0
C4341 C 0.67488 0.9067 0.62254 0.0
C4342 C 0.68269 0.90196 0.62944 0.0
C4343 C 0.6918 0.90877 0.64362 0.0
C4344 C 0.68197 0.89039 0.62099 0.0
C4345 C 0.66524 0.9 0.60682 0.0
C4346 C 0.67087 0.87844 0.62298 0.0
C4347 C 0.66899 0.86818 0.61146 0.0
C4348 C 0.67822 0.86975 0.59794 0.0
C4349 C 0.68977 0.88138 0.59714 0.0
C4350 C 0.69166 0.89162 0.60868 0.0
H4351 H 0.66157 0.90604 0.60083 0.0
H4352 H 0.66949 0.89721 0.59502 0.0
H4353 H 0.65703 0.89117 0.6126 0.0
H4354 H 0.6633 0.8773 0.63246 0.0
H4355 H 0.6599 0.85938 0.61199 0.0
H4356 H 0.04748 0.72427 0.63071 0.0
H4357 H 0.06778 0.74343 0.62399 0.0
H4358 H 0.06908 0.75666 0.68163 0.0
H4359 H 0.04841 0.73765 0.68832 0.0
H4360 H 0.07525 0.7756 0.65536 0.0
H4361 H 0.10308 0.75177 0.64086 0.0
H4362 H 0.08889 0.74511 0.62657 0.0
H4363 H 0.08763 0.74366 0.65222 0.0
C4364 C 0.05201 0.73126 0.64197 0.0
C4365 C 0.04626 0.72939 0.66007 0.0
C4366 C 0.06374 0.74215 0.63817 0.0
C4367 C 0.0701 0.75138 0.65241 0.0
C4368 C 0.06441 0.74961 0.67048 0.0
H4369 H 0.14634 0.8094 0.61442 0.0
H4370 H 0.13007 0.79555 0.63769 0.0
C4371 C 0.05263 0.73869 0.67431 0.0
C4372 C 0.08242 0.76308 0.64797 0.0
H4373 H 0.11145 0.77286 0.62754 0.0
C4374 C 0.08326 0.77503 0.6496 0.0
C4375 C 0.09304 0.76244 0.64093 0.0
C4376 C 0.09318 0.75006 0.64024 0.0
C4377 C 0.09406 0.78622 0.64308 0.0
C4378 C 0.10417 0.78538 0.63436 0.0
C4379 C 0.10369 0.77355 0.63403 0.0
C4380 C 0.1145 0.79614 0.62342 0.0
C4381 C 0.0944 0.79876 0.6453 0.0
C4382 C 0.11131 0.80153 0.60813 0.0
C4383 C 0.12058 0.80951 0.59504 0.0
C4384 C 0.13324 0.81217 0.59681 0.0
C4385 C 0.13669 0.80763 0.6129 0.0
C4386 C 0.12737 0.79963 0.62607 0.0
H4387 H 0.08906 0.79872 0.65825 0.0
H4388 H 0.10432 0.80688 0.64632 0.0
H4389 H 0.08971 0.80029 0.63275 0.0
H4390 H 0.10146 0.7988 0.60542 0.0
H4391 H 0.11767 0.81279 0.58266 0.0
H4392 H 0.00373 0.61602 0.68181 0.0
H4393 H 0.00509 0.597 0.68897 0.0
H4394 H 0.96607 0.57773 0.70841 0.0
H4395 H 0.96441 0.59645 0.7004 0.0
H4396 H 1.00293 0.58666 0.72332 0.0
H4397 H 0.96592 0.55015 0.6763 0.0
H4398 H 0.97176 0.56698 0.67327 0.0
H4399 H 0.95974 0.55797 0.69092 0.0
C4400 C 0.99532 0.60764 0.68714 0.0
C4401 C 0.98395 0.60782 0.69051 0.0
C4402 C 0.99614 0.59678 0.69135 0.0
C4403 C 0.98563 0.58583 0.69896 0.0
C4404 C 0.97423 0.58592 0.70211 0.0
H4405 H 0.97413 0.52233 0.76583 0.0
H4406 H 0.97146 0.53699 0.74472 0.0
C4407 C 0.97337 0.59674 0.69782 0.0
C4408 C 0.98693 0.57478 0.7052 0.0
H4409 H 0.97299 0.5423 0.70248 0.0
C4410 C 0.99652 0.577 0.71849 0.0
C4411 C 0.97854 0.56214 0.69896 0.0
C4412 C 0.9685 0.55917 0.68393 0.0
C4413 C 0.99763 0.56692 0.72626 0.0
C4414 C 0.98903 0.55426 0.72044 0.0
C4415 C 0.9796 0.55202 0.70686 0.0
C4416 C 0.98919 0.54329 0.72957 0.0
C4417 C 0.0077 0.56985 0.74128 0.0
C4418 C 0.99969 0.54146 0.72729 0.0
C4419 C 1.00115 0.53299 0.73921 0.0
C4420 C 0.9921 0.52622 0.75347 0.0
C4421 C 0.98109 0.52727 0.75465 0.0
C4422 C 0.9796 0.53569 0.7427 0.0
H4423 H 0.01219 0.57985 0.74644 0.0
H4424 H 0.00353 0.56335 0.75371 0.0
H4425 H 0.01529 0.56834 0.73514 0.0
H4426 H 0.00716 0.54721 0.71718 0.0
H4427 H 0.00984 0.53253 0.73835 0.0
H4428 H 0.3894 0.37804 0.72665 0.0
H4429 H 0.40801 0.39871 0.73343 0.0
H4430 H 0.41972 0.40219 0.67448 0.0
H4431 H 0.40154 0.38105 0.66779 0.0
H4432 H 0.43956 0.40953 0.69676 0.0
H4433 H 0.41371 0.43338 0.72204 0.0
H4434 H 0.40892 0.41915 0.73561 0.0
H4435 H 0.40569 0.41806 0.71028 0.0
C4436 C 0.39597 0.38308 0.71511 0.0
C4437 C 0.39388 0.37778 0.69664 0.0
C4438 C 0.40652 0.39507 0.71895 0.0
C4439 C 0.41512 0.40221 0.70438 0.0
C4440 C 0.41314 0.39695 0.68594 0.0
H4441 H 0.47167 0.47851 0.74542 0.0
H4442 H 0.45657 0.46271 0.7226 0.0
C4443 C 0.40265 0.38488 0.6821 0.0
C4444 C 0.42649 0.41484 0.70874 0.0
H4445 H 0.43559 0.44258 0.73291 0.0
C4446 C 0.43868 0.41685 0.70435 0.0
C4447 C 0.42544 0.42465 0.7181 0.0
C4448 C 0.41272 0.42375 0.72156 0.0
C4449 C 0.44978 0.42794 0.71032 0.0
C4450 C 0.44868 0.4371 0.72148 0.0
C4451 C 0.43652 0.43552 0.72462 0.0
C4452 C 0.45971 0.44746 0.73201 0.0
C4453 C 0.46256 0.42959 0.70478 0.0
C4454 C 0.46685 0.44433 0.7444 0.0
C4455 C 0.47556 0.45336 0.75713 0.0
C4456 C 0.47718 0.46568 0.75806 0.0
C4457 C 0.4707 0.46913 0.74485 0.0
C4458 C 0.46199 0.46007 0.73195 0.0
H4459 H 0.46202 0.42524 0.69057 0.0
H4460 H 0.47008 0.43981 0.70429 0.0
H4461 H 0.46536 0.42461 0.71535 0.0
H4462 H 0.46509 0.43466 0.7452 0.0
H4463 H 0.48041 0.45044 0.7672 0.0
H4464 H 0.61772 1.00009 0.68586 0.0
H4465 H 0.59684 0.9977 0.69305 0.0
H4466 H 0.61527 0.03571 0.71662 0.0
H4467 H 0.63613 0.03828 0.7091 0.0
H4468 H 0.58798 0.99904 0.72915 0.0
H4469 H 0.58816 0.03567 0.68167 0.0
H4470 H 0.599 0.02964 0.67851 0.0
H4471 H 0.60226 0.04173 0.69614 0.0
C4472 C 0.61733 0.00802 0.69226 0.0
C4473 C 0.62861 0.01938 0.6969 0.0
C4474 C 0.60538 0.00662 0.69643 0.0
C4475 C 0.60448 0.0166 0.70509 0.0
C4476 C 0.61572 0.02798 0.70957 0.0
H4477 H 0.55534 0.03258 0.76813 0.0
H4478 H 0.57117 0.03257 0.74653 0.0
C4479 C 0.62765 0.02937 0.70549 0.0
C4480 C 0.59188 0.01484 0.71081 0.0
H4481 H 0.57318 0.0285 0.70769 0.0
C4482 C 0.58459 0.0053 0.72419 0.0
C4483 C 0.58748 0.02301 0.70429 0.0
C4484 C 0.59457 0.03301 0.68921 0.0
C4485 C 0.57344 0.00423 0.73213 0.0
C4486 C 0.56932 0.01277 0.72621 0.0
C4487 C 0.57631 0.02193 0.71217 0.0
C4488 C 0.55881 0.01337 0.73621 0.0
C4489 C 0.56663 0.99449 0.74767 0.0
C4490 C 0.54635 0.00282 0.73683 0.0
C4491 C 0.53724 0.00283 0.74921 0.0
C4492 C 0.5405 0.0134 0.76104 0.0
C4493 C 0.55261 0.02431 0.75915 0.0
C4494 C 0.56166 0.0243 0.74684 0.0
H4495 H 0.57233 0.99024 0.75293 0.0
H4496 H 0.56444 0.99886 0.75998 0.0
H4497 H 0.55748 0.98667 0.74198 0.0
H4498 H 0.54388 0.99437 0.72847 0.0
H4499 H 0.52799 0.99428 0.7505 0.0
loop_
_geom_bond_atom_site_label_1
_geom_bond_atom_site_label_2
_geom_bond_distance
_geom_bond_site_symmetry_2
_ccdc_geom_bond_type
Li0 N17 1.990 . S
Li0 O60 1.956 . S
Li0 O61 1.970 1_654 S
Li0 O62 1.961 . S
Li1 N25 1.990 . S
Li1 O60 1.970 1_455 S
Li1 O61 1.956 1_554 S
Li1 O63 1.961 . S
Li2 N47 1.990 . S
Li2 O60 1.961 . S
Li2 O62 1.956 . S
Li2 O63 1.970 1_655 S
Li3 N53 1.990 . S
Li3 O61 1.961 . S
Li3 O62 1.970 1_456 S
Li3 O63 1.956 1_556 S
C4 C6 1.348 1_655 S
C4 C7 1.356 . S
C4 O60 1.325 . S
N5 C8 1.314 . S
N5 C9 1.279 . S
C6 C4 1.348 1_455 S
C6 C8 1.353 1_455 S
C6 H64 0.929 . S
C7 C4 1.356 . S
C7 C9 1.358 . S
C7 H65 0.930 . S
C8 N5 1.314 . S
C8 C6 1.353 1_655 S
C8 H66 0.930 1_655 S
C9 N5 1.279 . S
C9 C7 1.358 . S
C9 H67 0.930 . S
C10 C13 1.348 1_455 S
C10 C14 1.356 . S
C10 O61 1.325 . S
C11 N12 1.279 . S
C11 C14 1.358 . S
C11 H68 0.930 . S
N12 C11 1.279 . S
N12 C15 1.314 . S
C13 C10 1.348 1_655 S
C13 C15 1.356 1_655 S
C13 H69 0.926 . S
C14 C10 1.356 . S
C14 C11 1.358 . S
C14 H70 0.930 . S
C15 N12 1.314 . S
C15 C13 1.356 1_455 S
C15 H71 0.930 1_455 S
C16 N17 1.314 1_556 S
C16 C21 1.353 . S
C16 H22 0.930 . S
N17 Li0 1.990 . S
N17 C16 1.314 1_554 S
N17 C19 1.279 . S
C18 C19 1.358 . S
C18 C20 1.356 1_554 S
C18 H72 0.930 . S
C19 N17 1.279 . S
C19 C18 1.358 . S
C19 H23 0.930 . S
C20 C18 1.356 1_556 S
C20 C21 1.348 . S
C21 C16 1.353 . S
C21 C20 1.348 . S
C21 H73 0.929 . S
H22 C16 0.930 . S
H23 C19 0.930 . S
C24 N25 1.314 . S
C24 C26 1.353 . S
C24 H30 0.930 . S
N25 Li1 1.990 . S
N25 C24 1.314 . S
N25 C28 1.279 . S
C26 C24 1.353 . S
C26 C29 1.348 . S
C26 H74 0.929 . S
C27 C28 1.358 . S
C27 C29 1.356 . S
C27 H75 0.930 . S
C28 N25 1.279 . S
C28 C27 1.358 . S
C28 H31 0.930 1_554 S
C29 C26 1.348 . S
C29 C27 1.356 . S
H30 C24 0.930 . S
H31 C28 0.930 1_556 S
C32 C34 1.348 1_554 S
C32 C35 1.356 . S
C32 O62 1.325 . S
N33 C36 1.314 . S
N33 C37 1.279 1_556 S
C34 C32 1.348 1_556 S
C34 C36 1.353 . S
C34 H76 0.929 . S
C35 C32 1.356 . S
C35 C37 1.358 . S
C35 H77 0.930 . S
C36 N33 1.314 . S
C36 C34 1.353 . S
C36 H78 0.930 . S
C37 N33 1.279 1_554 S
C37 C35 1.358 . S
C37 H79 0.930 . S
C38 C39 1.348 . S
C38 C40 1.356 . S
C38 O63 1.325 . S
C39 C38 1.348 . S
C39 C41 1.353 . S
C39 H80 0.929 . S
C40 C38 1.356 . S
C40 C42 1.358 . S
C40 H81 0.930 . S
C41 C39 1.353 . S
C41 N43 1.314 . S
C41 H82 0.930 . S
C42 C40 1.358 . S
C42 N43 1.279 . S
C42 H83 0.930 . S
N43 C41 1.314 . S
N43 C42 1.279 . S
C44 C46 1.353 . S
C44 N47 1.314 . S
C44 H50 0.930 1_655 S
C45 N47 1.279 . S
C45 C48 1.358 . S
C45 H51 0.930 . S
C46 C44 1.353 . S
C46 C49 1.348 . S
C46 H84 0.946 . S
N47 Li2 1.990 . S
N47 C44 1.314 . S
N47 C45 1.279 . S
C48 C45 1.358 . S
C48 C49 1.356 . S
C48 H85 0.930 . S
C49 C46 1.348 . S
C49 C48 1.356 . S
H50 C44 0.930 1_455 S
H51 C45 0.930 . S
C52 N53 1.314 . S
C52 C54 1.353 . S
C52 H58 0.930 1_455 S
N53 Li3 1.990 . S
N53 C52 1.314 . S
N53 C56 1.279 . S
C54 C52 1.353 . S
C54 C57 1.348 . S
C54 H86 0.929 . S
C55 C56 1.358 . S
C55 C57 1.356 . S
C55 H87 0.930 . S
C56 N53 1.279 . S
C56 C55 1.358 . S
C56 H59 0.930 . S
C57 C54 1.348 . S
C57 C55 1.356 . S
H58 C52 0.930 1_655 S
H59 C56 0.930 . S
O60 Li0 1.956 . S
O60 Li1 1.970 1_655 S
O60 Li2 1.961 . S
O60 C4 1.325 . S
O61 Li0 1.970 1_456 S
O61 Li1 1.956 1_556 S
O61 Li3 1.961 . S
O61 C10 1.325 . S
O62 Li0 1.961 . S
O62 Li2 1.956 . S
O62 Li3 1.970 1_654 S
O62 C32 1.325 . S
O63 Li1 1.961 . S
O63 Li2 1.970 1_455 S
O63 Li3 1.956 1_554 S
O63 C38 1.325 . S
H64 C6 0.929 . S
H65 C7 0.930 . S
H66 C8 0.930 1_455 S
H67 C9 0.930 . S
H68 C11 0.930 . S
H69 C13 0.926 . S
H70 C14 0.930 . S
H71 C15 0.930 1_655 S
H72 C18 0.930 . S
H73 C21 0.929 . S
H74 C26 0.929 . S
H75 C27 0.930 . S
H76 C34 0.929 . S
H77 C35 0.930 . S
H78 C36 0.930 . S
H79 C37 0.930 . S
H80 C39 0.929 . S
H81 C40 0.930 . S
H82 C41 0.930 . S
H83 C42 0.930 . S
H84 C46 0.946 . S
H85 C48 0.930 . S
H86 C54 0.929 . S
H87 C55 0.930 . S
Li88 N105 1.984 1_554 S
Li88 O148 1.956 . S
Li88 O149 1.970 1_554 S
Li88 O150 1.961 . S
Li89 N113 1.990 . S
Li89 O148 1.970 . S
Li89 O149 1.956 1_554 S
Li89 O151 1.961 . S
Li90 N135 1.990 . S
Li90 O148 1.961 . S
Li90 O150 1.956 . S
Li90 O151 1.970 . S
Li91 N141 1.990 . S
Li91 O149 1.961 . S
Li91 O150 1.970 1_556 S
Li91 O151 1.956 1_556 S
C92 C94 1.348 . S
C92 C95 1.356 . S
C92 O148 1.325 . S
N93 C96 1.314 . S
N93 C97 1.279 . S
C94 C92 1.348 . S
C94 C96 1.353 . S
C94 H152 0.929 . S
C95 C92 1.356 . S
C95 C97 1.358 . S
C95 H153 0.930 . S
C96 N93 1.314 . S
C96 C94 1.353 . S
C96 H154 0.930 . S
C97 N93 1.279 . S
C97 C95 1.358 . S
C97 H155 0.930 . S
C98 C101 1.348 . S
C98 C102 1.356 . S
C98 O149 1.325 . S
C99 N100 1.279 . S
C99 C102 1.358 . S
C99 H156 0.930 . S
N100 C99 1.279 . S
N100 C103 1.314 . S
C101 C98 1.348 . S
C101 C103 1.353 . S
C101 H157 0.929 . S
C102 C98 1.356 . S
C102 C99 1.358 . S
C102 H158 0.930 . S
C103 N100 1.314 . S
C103 C101 1.353 . S
C103 H159 0.930 . S
C104 N105 1.342 . S
C104 C109 1.353 . S
C104 H110 0.930 . S
N105 Li88 1.984 1_556 S
N105 C104 1.342 . S
N105 C107 1.263 1_556 S
C106 C107 1.358 . S
C106 C108 1.356 1_554 S
C106 H160 0.930 . S
C107 N105 1.263 1_554 S
C107 C106 1.358 . S
C107 H111 0.930 . S
C108 C106 1.356 1_556 S
C108 C109 1.348 . S
C109 C104 1.353 . S
C109 C108 1.348 . S
C109 H161 0.929 . S
H110 C104 0.930 . S
H111 C107 0.930 . S
C112 N113 1.314 . S
C112 C114 1.353 . S
C112 H118 0.930 . S
N113 Li89 1.990 . S
N113 C112 1.314 . S
N113 C116 1.279 . S
C114 C112 1.353 . S
C114 C117 1.348 . S
C114 H162 0.929 . S
C115 C116 1.358 . S
C115 C117 1.356 . S
C115 H163 0.930 . S
C116 N113 1.279 . S
C116 C115 1.358 . S
C116 H119 0.940 . S
C117 C114 1.348 . S
C117 C115 1.356 . S
H118 C112 0.930 . S
H119 C116 0.940 . S
C120 C122 1.378 . S
C120 C123 1.336 1_556 S
C120 O150 1.315 1_556 S
N121 C124 1.314 . S
N121 C125 1.279 1_556 S
C122 C120 1.378 . S
C122 C124 1.353 . S
C122 H164 0.929 . S
C123 C120 1.336 1_554 S
C123 C125 1.358 . S
C123 H165 0.930 . S
C124 N121 1.314 . S
C124 C122 1.353 . S
C124 H166 0.930 . S
C125 N121 1.279 1_554 S
C125 C123 1.358 . S
C125 H167 0.930 . S
C126 C127 1.348 . S
C126 C128 1.356 . S
C126 O151 1.325 . S
C127 C126 1.348 . S
C127 C129 1.353 . S
C127 H168 0.929 . S
C128 C126 1.356 . S
C128 C130 1.358 . S
C128 H169 0.930 . S
C129 C127 1.353 . S
C129 N131 1.314 . S
C129 H170 0.930 . S
C130 C128 1.358 . S
C130 N131 1.279 . S
C130 H171 0.930 . S
N131 C129 1.314 . S
N131 C130 1.279 . S
C132 C134 1.353 . S
C132 N135 1.314 . S
C132 H138 0.930 . S
C133 N135 1.279 . S
C133 C136 1.358 . S
C133 H139 0.930 . S
C134 C132 1.353 . S
C134 C137 1.348 . S
C134 H172 0.929 . S
N135 Li90 1.990 . S
N135 C132 1.314 . S
N135 C133 1.279 . S
C136 C133 1.358 . S
C136 C137 1.356 . S
C136 H173 0.930 . S
C137 C134 1.348 . S
C137 C136 1.356 . S
H138 C132 0.930 . S
H139 C133 0.930 . S
C140 N141 1.314 . S
C140 C142 1.353 . S
C140 H146 0.930 . S
N141 Li91 1.990 . S
N141 C140 1.314 . S
N141 C144 1.279 . S
C142 C140 1.353 . S
C142 C145 1.348 . S
C142 H174 0.929 . S
C143 C144 1.358 . S
C143 C145 1.356 . S
C143 H175 0.930 . S
C144 N141 1.279 . S
C144 C143 1.358 . S
C144 H147 0.930 . S
C145 C142 1.348 . S
C145 C143 1.356 . S
H146 C140 0.930 . S
H147 C144 0.930 . S
O148 Li88 1.956 . S
O148 Li89 1.970 . S
O148 Li90 1.961 . S
O148 C92 1.325 . S
O149 Li88 1.970 1_556 S
O149 Li89 1.956 1_556 S
O149 Li91 1.961 . S
O149 C98 1.325 . S
O150 Li88 1.961 . S
O150 Li90 1.956 . S
O150 Li91 1.970 1_554 S
O150 C120 1.315 1_554 S
O151 Li89 1.961 . S
O151 Li90 1.970 . S
O151 Li91 1.956 1_554 S
O151 C126 1.325 . S
H152 C94 0.929 . S
H153 C95 0.930 . S
H154 C96 0.930 . S
H155 C97 0.930 . S
H156 C99 0.930 . S
H157 C101 0.929 . S
H158 C102 0.930 . S
H159 C103 0.930 . S
H160 C106 0.930 . S
H161 C109 0.929 . S
H162 C114 0.929 . S
H163 C115 0.930 . S
H164 C122 0.929 . S
H165 C123 0.930 . S
H166 C124 0.930 . S
H167 C125 0.930 . S
H168 C127 0.929 . S
H169 C128 0.930 . S
H170 C129 0.930 . S
H171 C130 0.930 . S
H172 C134 0.929 . S
H173 C136 0.930 . S
H174 C142 0.929 . S
H175 C143 0.930 . S
Li176 N193 1.990 . S
Li176 O236 1.956 1_556 S
Li176 O237 1.970 1_566 S
Li176 O238 1.961 . S
Li177 N201 1.990 . S
Li177 O236 1.970 1_545 S
Li177 O237 1.956 . S
Li177 O239 1.961 . S
Li178 N223 1.990 . S
Li178 O236 1.961 . S
Li178 O238 1.956 1_554 S
Li178 O239 1.970 1_565 S
Li179 N229 1.990 . S
Li179 O237 1.961 . S
Li179 O238 1.970 1_544 S
Li179 O239 1.956 . S
C180 C182 1.348 . S
C180 C183 1.356 . S
C180 O236 1.325 . S
N181 C184 1.314 . S
N181 C185 1.279 . S
C182 C180 1.348 . S
C182 C184 1.353 . S
C182 H240 0.929 . S
C183 C180 1.356 . S
C183 C185 1.358 . S
C183 H241 0.943 . S
C184 N181 1.314 . S
C184 C182 1.353 . S
C184 H242 0.930 . S
C185 N181 1.279 . S
C185 C183 1.358 . S
C185 H243 0.930 . S
C186 C189 1.321 1_554 S
C186 C190 1.379 . S
C186 O237 1.333 . S
C187 N188 1.279 1_554 S
C187 C190 1.358 . S
C187 H244 0.930 . S
N188 C187 1.279 1_556 S
N188 C191 1.314 . S
C189 C186 1.321 1_556 S
C189 C191 1.353 . S
C189 H245 0.929 . S
C190 C186 1.379 . S
C190 C187 1.358 . S
C190 H246 0.930 . S
C191 N188 1.314 . S
C191 C189 1.353 . S
C191 H247 0.930 . S
C192 N193 1.314 . S
C192 C197 1.353 . S
C192 H198 0.930 1_565 S
N193 Li176 1.990 . S
N193 C192 1.314 . S
N193 C195 1.279 . S
C194 C195 1.358 . S
C194 C196 1.356 . S
C194 H248 0.930 . S
C195 N193 1.279 . S
C195 C194 1.358 . S
C195 H199 0.930 . S
C196 C194 1.356 . S
C196 C197 1.348 . S
C197 C192 1.353 . S
C197 C196 1.348 . S
C197 H249 0.949 . S
H198 C192 0.930 1_545 S
H199 C195 0.930 . S
C200 N201 1.314 . S
C200 C202 1.353 . S
C200 H206 0.930 1_545 S
N201 Li177 1.990 . S
N201 C200 1.314 . S
N201 C204 1.279 . S
C202 C200 1.353 . S
C202 C205 1.348 . S
C202 H250 0.929 . S
C203 C204 1.358 . S
C203 C205 1.356 . S
C203 H251 0.930 . S
C204 N201 1.279 . S
C204 C203 1.358 . S
C204 H207 0.930 . S
C205 C202 1.348 . S
C205 C203 1.356 . S
H206 C200 0.930 1_565 S
H207 C204 0.930 . S
C208 C210 1.348 1_565 S
C208 C211 1.356 . S
C208 O238 1.325 . S
N209 C212 1.314 . S
N209 C213 1.279 . S
C210 C208 1.348 1_545 S
C210 C212 1.353 1_545 S
C210 H252 0.929 . S
C211 C208 1.356 . S
C211 C213 1.358 . S
C211 H253 0.930 . S
C212 N209 1.314 . S
C212 C210 1.353 1_565 S
C212 H254 0.930 1_565 S
C213 N209 1.279 . S
C213 C211 1.358 . S
C213 H255 0.930 . S
C214 C215 1.348 1_545 S
C214 C216 1.356 . S
C214 O239 1.325 . S
C215 C214 1.348 1_565 S
C215 C217 1.357 1_565 S
C215 H256 0.925 . S
C216 C214 1.356 . S
C216 C218 1.358 . S
C216 H257 0.930 . S
C217 C215 1.357 1_545 S
C217 N219 1.314 . S
C217 H258 0.930 1_545 S
C218 C216 1.358 . S
C218 N219 1.279 . S
C218 H259 0.930 . S
N219 C217 1.314 . S
N219 C218 1.279 . S
C220 C222 1.353 . S
C220 N223 1.314 . S
C220 H226 0.930 . S
C221 N223 1.279 . S
C221 C224 1.358 . S
C221 H227 0.930 1_554 S
C222 C220 1.353 . S
C222 C225 1.348 . S
C222 H260 0.929 . S
N223 Li178 1.990 . S
N223 C220 1.314 . S
N223 C221 1.279 . S
C224 C221 1.358 . S
C224 C225 1.356 . S
C224 H261 0.930 . S
C225 C222 1.348 . S
C225 C224 1.356 . S
H226 C220 0.930 . S
H227 C221 0.930 1_556 S
C228 N229 1.314 1_556 S
C228 C230 1.353 . S
C228 H234 0.930 . S
N229 Li179 1.990 . S
N229 C228 1.314 1_554 S
N229 C232 1.279 . S
C230 C228 1.353 . S
C230 C233 1.348 . S
C230 H262 0.929 . S
C231 C232 1.358 . S
C231 C233 1.356 1_554 S
C231 H263 0.930 . S
C232 N229 1.279 . S
C232 C231 1.358 . S
C232 H235 0.930 . S
C233 C230 1.348 . S
C233 C231 1.356 1_556 S
H234 C228 0.930 . S
H235 C232 0.930 . S
O236 Li176 1.956 1_554 S
O236 Li177 1.970 1_565 S
O236 Li178 1.961 . S
O236 C180 1.325 . S
O237 Li176 1.970 1_544 S
O237 Li177 1.956 . S
O237 Li179 1.961 . S
O237 C186 1.333 . S
O238 Li176 1.961 . S
O238 Li178 1.956 1_556 S
O238 Li179 1.970 1_566 S
O238 C208 1.325 . S
O239 Li177 1.961 . S
O239 Li178 1.970 1_545 S
O239 Li179 1.956 . S
O239 C214 1.325 . S
H240 C182 0.929 . S
H241 C183 0.943 . S
H242 C184 0.930 . S
H243 C185 0.930 . S
H244 C187 0.930 . S
H245 C189 0.929 . S
H246 C190 0.930 . S
H247 C191 0.930 . S
H248 C194 0.930 . S
H249 C197 0.949 . S
H250 C202 0.929 . S
H251 C203 0.930 . S
H252 C210 0.929 . S
H253 C211 0.930 . S
H254 C212 0.930 1_545 S
H255 C213 0.930 . S
H256 C215 0.925 . S
H257 C216 0.930 . S
H258 C217 0.930 1_565 S
H259 C218 0.930 . S
H260 C222 0.929 . S
H261 C224 0.930 . S
H262 C230 0.929 . S
H263 C231 0.930 . S
Li264 N281 1.990 . S
Li264 O324 1.956 . S
Li264 O325 1.970 1_455 S
Li264 O326 1.961 1_554 S
Li265 N289 1.990 . S
Li265 O324 1.970 1_655 S
Li265 O325 1.956 . S
Li265 O327 1.961 . S
Li266 N311 1.990 . S
Li266 O324 1.961 1_556 S
Li266 O326 1.956 . S
Li266 O327 1.970 1_456 S
Li267 N317 1.990 . S
Li267 O325 1.961 . S
Li267 O326 1.970 1_654 S
Li267 O327 1.956 . S
C268 C270 1.348 . S
C268 C271 1.356 . S
C268 O324 1.325 . S
N269 C272 1.314 . S
N269 C273 1.279 . S
C270 C268 1.348 . S
C270 C272 1.353 . S
C270 H328 0.929 . S
C271 C268 1.356 . S
C271 C273 1.358 . S
C271 H329 0.930 1_554 S
C272 N269 1.314 . S
C272 C270 1.353 . S
C272 H330 0.930 . S
C273 N269 1.279 . S
C273 C271 1.358 . S
C273 H331 0.930 1_554 S
C274 C277 1.348 1_655 S
C274 C278 1.356 . S
C274 O325 1.325 . S
C275 N276 1.279 . S
C275 C278 1.358 . S
C275 H332 0.930 . S
N276 C275 1.279 . S
N276 C279 1.300 1_655 S
C277 C274 1.348 1_455 S
C277 C279 1.361 . S
C277 H333 0.929 . S
C278 C274 1.356 . S
C278 C275 1.358 . S
C278 H334 0.930 . S
C279 N276 1.300 1_455 S
C279 C277 1.361 . S
C279 H335 0.937 . S
C280 N281 1.314 . S
C280 C285 1.353 . S
C280 H286 0.930 . S
N281 Li264 1.990 . S
N281 C280 1.314 . S
N281 C283 1.279 . S
C282 C283 1.358 . S
C282 C284 1.356 . S
C282 H336 0.930 . S
C283 N281 1.279 . S
C283 C282 1.358 . S
C283 H287 0.930 . S
C284 C282 1.356 . S
C284 C285 1.348 . S
C285 C280 1.353 . S
C285 C284 1.348 . S
C285 H337 0.929 . S
H286 C280 0.930 . S
H287 C283 0.930 . S
C288 N289 1.314 . S
C288 C290 1.353 . S
C288 H294 0.930 . S
N289 Li265 1.990 . S
N289 C288 1.314 . S
N289 C292 1.279 . S
C290 C288 1.353 . S
C290 C293 1.348 . S
C290 H338 0.929 . S
C291 C292 1.358 . S
C291 C293 1.356 . S
C291 H339 0.930 . S
C292 N289 1.279 . S
C292 C291 1.358 . S
C292 H295 0.930 . S
C293 C290 1.348 . S
C293 C291 1.356 . S
H294 C288 0.930 . S
H295 C292 0.930 . S
C296 C298 1.348 1_455 S
C296 C299 1.356 . S
C296 O326 1.325 . S
N297 C300 1.303 1_455 S
N297 C301 1.279 . S
C298 C296 1.348 1_655 S
C298 C300 1.352 . S
C298 H340 0.929 . S
C299 C296 1.356 . S
C299 C301 1.358 . S
C299 H341 0.930 . S
C300 N297 1.303 1_655 S
C300 C298 1.352 . S
C300 H342 0.943 . S
C301 N297 1.279 . S
C301 C299 1.358 . S
C301 H343 0.930 . S
C302 C303 1.320 1_554 S
C302 C304 1.377 . S
C302 O327 1.331 . S
C303 C302 1.320 1_556 S
C303 C305 1.353 . S
C303 H344 0.929 . S
C304 C302 1.377 . S
C304 C306 1.358 . S
C304 H345 0.930 . S
C305 C303 1.353 . S
C305 N307 1.314 . S
C305 H346 0.930 . S
C306 C304 1.358 . S
C306 N307 1.279 1_554 S
C306 H347 0.930 . S
N307 C305 1.314 . S
N307 C306 1.279 1_556 S
C308 C310 1.353 . S
C308 N311 1.314 . S
C308 H314 0.930 . S
C309 N311 1.279 . S
C309 C312 1.358 . S
C309 H315 0.930 . S
C310 C308 1.353 . S
C310 C313 1.348 . S
C310 H348 0.929 . S
N311 Li266 1.990 . S
N311 C308 1.314 . S
N311 C309 1.279 . S
C312 C309 1.358 . S
C312 C313 1.356 . S
C312 H349 0.930 . S
C313 C310 1.348 . S
C313 C312 1.356 . S
H314 C308 0.930 . S
H315 C309 0.930 . S
C316 N317 1.314 . S
C316 C318 1.361 . S
C316 H322 0.930 . S
N317 Li267 1.990 . S
N317 C316 1.314 . S
N317 C320 1.279 1_554 S
C318 C316 1.361 . S
C318 C321 1.328 1_554 S
C318 H350 0.943 . S
C319 C320 1.358 . S
C319 C321 1.356 . S
C319 H351 0.930 . S
C320 N317 1.279 1_556 S
C320 C319 1.358 . S
C320 H323 0.930 . S
C321 C318 1.328 1_556 S
C321 C319 1.356 . S
H322 C316 0.930 . S
H323 C320 0.930 . S
O324 Li264 1.956 . S
O324 Li265 1.970 1_455 S
O324 Li266 1.961 1_554 S
O324 C268 1.325 . S
O325 Li264 1.970 1_655 S
O325 Li265 1.956 . S
O325 Li267 1.961 . S
O325 C274 1.325 . S
O326 Li264 1.961 1_556 S
O326 Li266 1.956 . S
O326 Li267 1.970 1_456 S
O326 C296 1.325 . S
O327 Li265 1.961 . S
O327 Li266 1.970 1_654 S
O327 Li267 1.956 . S
O327 C302 1.331 . S
H328 C270 0.929 . S
H329 C271 0.930 1_556 S
H330 C272 0.930 . S
H331 C273 0.930 1_556 S
H332 C275 0.930 . S
H333 C277 0.929 . S
H334 C278 0.930 . S
H335 C279 0.937 . S
H336 C282 0.930 . S
H337 C285 0.929 . S
H338 C290 0.929 . S
H339 C291 0.930 . S
H340 C298 0.929 . S
H341 C299 0.930 . S
H342 C300 0.943 . S
H343 C301 0.930 . S
H344 C303 0.929 . S
H345 C304 0.930 . S
H346 C305 0.930 . S
H347 C306 0.930 . S
H348 C310 0.929 . S
H349 C312 0.930 . S
H350 C318 0.943 . S
H351 C319 0.930 . S
Li352 N369 1.990 . S
Li352 O412 1.956 . S
Li352 O413 1.970 . S
Li352 O414 1.961 1_554 S
Li353 N377 1.990 . S
Li353 O412 1.970 . S
Li353 O413 1.956 . S
Li353 O415 1.961 . S
Li354 N399 1.990 . S
Li354 O412 1.961 1_556 S
Li354 O414 1.956 . S
Li354 O415 1.970 1_556 S
Li355 N405 1.990 1_554 S
Li355 O413 1.961 . S
Li355 O414 1.970 1_554 S
Li355 O415 1.956 . S
C356 C358 1.348 . S
C356 C359 1.356 . S
C356 O412 1.325 . S
N357 C360 1.314 . S
N357 C361 1.279 . S
C358 C356 1.348 . S
C358 C360 1.353 . S
C358 H416 0.929 . S
C359 C356 1.356 . S
C359 C361 1.358 . S
C359 H417 0.930 1_554 S
C360 N357 1.314 . S
C360 C358 1.353 . S
C360 H418 0.930 . S
C361 N357 1.279 . S
C361 C359 1.358 . S
C361 H419 0.930 . S
C362 C365 1.348 . S
C362 C366 1.356 . S
C362 O413 1.325 . S
C363 N364 1.279 . S
C363 C366 1.358 . S
C363 H420 0.930 . S
N364 C363 1.279 . S
N364 C367 1.314 . S
C365 C362 1.348 . S
C365 C367 1.353 . S
C365 H421 0.929 . S
C366 C362 1.356 . S
C366 C363 1.358 . S
C366 H422 0.930 . S
C367 N364 1.314 . S
C367 C365 1.353 . S
C367 H423 0.930 . S
C368 N369 1.314 . S
C368 C373 1.353 . S
C368 H374 0.930 . S
N369 Li352 1.990 . S
N369 C368 1.314 . S
N369 C371 1.279 . S
C370 C371 1.358 . S
C370 C372 1.356 . S
C370 H424 0.930 . S
C371 N369 1.279 . S
C371 C370 1.358 . S
C371 H375 0.930 . S
C372 C370 1.356 . S
C372 C373 1.348 . S
C373 C368 1.353 . S
C373 C372 1.348 . S
C373 H425 0.929 . S
H374 C368 0.930 . S
H375 C371 0.930 . S
C376 N377 1.314 . S
C376 C378 1.353 . S
C376 H382 0.930 . S
N377 Li353 1.990 . S
N377 C376 1.314 . S
N377 C380 1.279 . S
C378 C376 1.353 . S
C378 C381 1.348 . S
C378 H426 0.929 . S
C379 C380 1.358 . S
C379 C381 1.356 . S
C379 H427 0.930 . S
C380 N377 1.279 . S
C380 C379 1.358 . S
C380 H383 0.930 . S
C381 C378 1.348 . S
C381 C379 1.356 . S
H382 C376 0.930 . S
H383 C380 0.930 . S
C384 C386 1.348 . S
C384 C387 1.356 . S
C384 O414 1.325 . S
N385 C388 1.314 . S
N385 C389 1.279 . S
C386 C384 1.348 . S
C386 C388 1.353 . S
C386 H428 0.929 . S
C387 C384 1.356 . S
C387 C389 1.358 . S
C387 H429 0.930 . S
C388 N385 1.314 . S
C388 C386 1.353 . S
C388 H430 0.930 . S
C389 N385 1.279 . S
C389 C387 1.358 . S
C389 H431 0.930 . S
C390 C391 1.348 . S
C390 C392 1.356 1_556 S
C390 O415 1.325 1_556 S
C391 C390 1.348 . S
C391 C393 1.353 . S
C391 H432 0.929 . S
C392 C390 1.356 1_554 S
C392 C394 1.358 . S
C392 H433 0.930 . S
C393 C391 1.353 . S
C393 N395 1.314 . S
C393 H434 0.930 . S
C394 C392 1.358 . S
C394 N395 1.279 1_554 S
C394 H435 0.930 . S
N395 C393 1.314 . S
N395 C394 1.279 1_556 S
C396 C398 1.353 . S
C396 N399 1.314 . S
C396 H402 0.930 . S
C397 N399 1.279 . S
C397 C400 1.358 . S
C397 H403 0.930 . S
C398 C396 1.353 . S
C398 C401 1.348 . S
C398 H436 0.929 . S
N399 Li354 1.990 . S
N399 C396 1.314 . S
N399 C397 1.279 . S
C400 C397 1.358 . S
C400 C401 1.356 . S
C400 H437 0.930 . S
C401 C398 1.348 . S
C401 C400 1.356 . S
H402 C396 0.930 . S
H403 C397 0.930 . S
C404 N405 1.314 1_554 S
C404 C406 1.353 1_554 S
C404 H410 0.930 . S
N405 Li355 1.990 1_556 S
N405 C404 1.314 1_556 S
N405 C408 1.279 . S
C406 C404 1.353 1_556 S
C406 C409 1.348 . S
C406 H438 0.929 1_556 S
C407 C408 1.358 . S
C407 C409 1.356 . S
C407 H439 0.930 . S
C408 N405 1.279 . S
C408 C407 1.358 . S
C408 H411 0.930 . S
C409 C406 1.348 . S
C409 C407 1.356 . S
H410 C404 0.930 . S
H411 C408 0.930 . S
O412 Li352 1.956 . S
O412 Li353 1.970 . S
O412 Li354 1.961 1_554 S
O412 C356 1.325 . S
O413 Li352 1.970 . S
O413 Li353 1.956 . S
O413 Li355 1.961 . S
O413 C362 1.325 . S
O414 Li352 1.961 1_556 S
O414 Li354 1.956 . S
O414 Li355 1.970 1_556 S
O414 C384 1.325 . S
O415 Li353 1.961 . S
O415 Li354 1.970 1_554 S
O415 Li355 1.956 . S
O415 C390 1.325 1_554 S
H416 C358 0.929 . S
H417 C359 0.930 1_556 S
H418 C360 0.930 . S
H419 C361 0.930 . S
H420 C363 0.930 . S
H421 C365 0.929 . S
H422 C366 0.930 . S
H423 C367 0.930 . S
H424 C370 0.930 . S
H425 C373 0.929 . S
H426 C378 0.929 . S
H427 C379 0.930 . S
H428 C386 0.929 . S
H429 C387 0.930 . S
H430 C388 0.930 . S
H431 C389 0.930 . S
H432 C391 0.929 . S
H433 C392 0.930 . S
H434 C393 0.930 . S
H435 C394 0.930 . S
H436 C398 0.929 . S
H437 C400 0.930 . S
H438 C406 0.929 1_554 S
H439 C407 0.930 . S
Li440 N457 1.990 . S
Li440 O500 1.956 . S
Li440 O501 1.970 1_565 S
Li440 O502 1.961 1_554 S
Li441 N465 1.990 . S
Li441 O500 1.970 1_545 S
Li441 O501 1.956 . S
Li441 O503 1.961 . S
Li442 N487 1.990 . S
Li442 O500 1.961 1_556 S
Li442 O502 1.956 . S
Li442 O503 1.970 1_566 S
Li443 N493 1.990 . S
Li443 O501 1.961 . S
Li443 O502 1.970 1_544 S
Li443 O503 1.956 . S
C444 C446 1.348 . S
C444 C447 1.356 . S
C444 O500 1.325 . S
N445 C448 1.314 . S
N445 C449 1.279 . S
C446 C444 1.348 . S
C446 C448 1.353 . S
C446 H504 0.929 . S
C447 C444 1.356 . S
C447 C449 1.358 . S
C447 H505 0.930 1_554 S
C448 N445 1.314 . S
C448 C446 1.353 . S
C448 H506 0.930 . S
C449 N445 1.279 . S
C449 C447 1.358 . S
C449 H507 0.939 . S
C450 C453 1.348 1_545 S
C450 C454 1.356 . S
C450 O501 1.325 . S
C451 N452 1.279 . S
C451 C454 1.358 . S
C451 H508 0.930 . S
N452 C451 1.279 . S
N452 C455 1.306 1_545 S
C453 C450 1.348 1_565 S
C453 C455 1.353 . S
C453 H509 0.929 . S
C454 C450 1.356 . S
C454 C451 1.358 . S
C454 H510 0.930 . S
C455 N452 1.306 1_565 S
C455 C453 1.353 . S
C455 H511 0.940 . S
C456 N457 1.314 . S
C456 C461 1.353 . S
C456 H462 0.930 . S
N457 Li440 1.990 . S
N457 C456 1.314 . S
N457 C459 1.279 . S
C458 C459 1.358 . S
C458 C460 1.356 . S
C458 H512 0.930 . S
C459 N457 1.279 . S
C459 C458 1.358 . S
C459 H463 0.930 . S
C460 C458 1.356 . S
C460 C461 1.348 . S
C461 C456 1.353 . S
C461 C460 1.348 . S
C461 H513 0.929 . S
H462 C456 0.930 . S
H463 C459 0.930 . S
C464 N465 1.314 . S
C464 C466 1.353 . S
C464 H470 0.930 . S
N465 Li441 1.990 . S
N465 C464 1.314 . S
N465 C468 1.279 . S
C466 C464 1.353 . S
C466 C469 1.348 . S
C466 H514 0.929 . S
C467 C468 1.358 . S
C467 C469 1.356 . S
C467 H515 0.930 . S
C468 N465 1.279 . S
C468 C467 1.358 . S
C468 H471 0.930 . S
C469 C466 1.348 . S
C469 C467 1.356 . S
H470 C464 0.930 . S
H471 C468 0.930 . S
C472 C474 1.348 1_565 S
C472 C475 1.356 . S
C472 O502 1.325 . S
N473 C476 1.304 1_565 S
N473 C477 1.279 . S
C474 C472 1.348 1_545 S
C474 C476 1.359 . S
C474 H516 0.929 . S
C475 C472 1.356 . S
C475 C477 1.358 . S
C475 H517 0.930 . S
C476 N473 1.304 1_545 S
C476 C474 1.359 . S
C476 H518 0.935 . S
C477 N473 1.279 . S
C477 C475 1.358 . S
C477 H519 0.930 . S
C478 C479 1.348 1_554 S
C478 C480 1.356 . S
C478 O503 1.325 . S
C479 C478 1.348 1_556 S
C479 C481 1.353 . S
C479 H520 0.929 . S
C480 C478 1.356 . S
C480 C482 1.358 . S
C480 H521 0.930 . S
C481 C479 1.353 . S
C481 N483 1.314 . S
C481 H522 0.930 . S
C482 C480 1.358 . S
C482 N483 1.279 1_554 S
C482 H523 0.930 . S
N483 C481 1.314 . S
N483 C482 1.279 1_556 S
C484 C486 1.353 . S
C484 N487 1.314 . S
C484 H490 0.930 . S
C485 N487 1.279 . S
C485 C488 1.358 . S
C485 H491 0.930 . S
C486 C484 1.353 . S
C486 C489 1.348 . S
C486 H524 0.929 . S
N487 Li442 1.990 . S
N487 C484 1.314 . S
N487 C485 1.279 . S
C488 C485 1.358 . S
C488 C489 1.356 . S
C488 H525 0.930 . S
C489 C486 1.348 . S
C489 C488 1.356 . S
H490 C484 0.930 . S
H491 C485 0.930 . S
C492 N493 1.314 . S
C492 C494 1.353 . S
C492 H498 0.930 . S
N493 Li443 1.990 . S
N493 C492 1.314 . S
N493 C496 1.279 1_554 S
C494 C492 1.353 . S
C494 C497 1.348 1_554 S
C494 H526 0.929 . S
C495 C496 1.358 . S
C495 C497 1.356 . S
C495 H527 0.930 . S
C496 N493 1.279 1_556 S
C496 C495 1.358 . S
C496 H499 0.930 . S
C497 C494 1.348 1_556 S
C497 C495 1.356 . S
H498 C492 0.930 . S
H499 C496 0.930 . S
O500 Li440 1.956 . S
O500 Li441 1.970 1_565 S
O500 Li442 1.961 1_554 S
O500 C444 1.325 . S
O501 Li440 1.970 1_545 S
O501 Li441 1.956 . S
O501 Li443 1.961 . S
O501 C450 1.325 . S
O502 Li440 1.961 1_556 S
O502 Li442 1.956 . S
O502 Li443 1.970 1_566 S
O502 C472 1.325 . S
O503 Li441 1.961 . S
O503 Li442 1.970 1_544 S
O503 Li443 1.956 . S
O503 C478 1.325 . S
H504 C446 0.929 . S
H505 C447 0.930 1_556 S
H506 C448 0.930 . S
H507 C449 0.939 . S
H508 C451 0.930 . S
H509 C453 0.929 . S
H510 C454 0.930 . S
H511 C455 0.940 . S
H512 C458 0.930 . S
H513 C461 0.929 . S
H514 C466 0.929 . S
H515 C467 0.930 . S
H516 C474 0.929 . S
H517 C475 0.930 . S
H518 C476 0.935 . S
H519 C477 0.930 . S
H520 C479 0.929 . S
H521 C480 0.930 . S
H522 C481 0.930 . S
H523 C482 0.930 . S
H524 C486 0.929 . S
H525 C488 0.930 . S
H526 C494 0.929 . S
H527 C495 0.930 . S
Li528 N545 1.990 . S
Li528 O588 1.956 . S
Li528 O589 1.970 . S
Li528 O590 1.961 . S
Li529 N553 1.990 . S
Li529 O588 1.970 . S
Li529 O589 1.956 . S
Li529 O591 1.961 . S
Li530 N575 1.990 . S
Li530 O588 1.961 . S
Li530 O590 1.956 . S
Li530 O591 1.970 . S
Li531 N581 1.990 . S
Li531 O589 1.961 . S
Li531 O590 1.970 . S
Li531 O591 1.956 . S
C532 C534 1.348 . S
C532 C535 1.356 . S
C532 O588 1.325 . S
N533 C536 1.314 . S
N533 C537 1.279 . S
C534 C532 1.348 . S
C534 C536 1.353 . S
C534 H592 0.929 . S
C535 C532 1.356 . S
C535 C537 1.358 . S
C535 H593 0.930 . S
C536 N533 1.314 . S
C536 C534 1.353 . S
C536 H594 0.930 . S
C537 N533 1.279 . S
C537 C535 1.358 . S
C537 H595 0.930 . S
C538 C541 1.348 . S
C538 C542 1.356 . S
C538 O589 1.325 . S
C539 N540 1.279 . S
C539 C542 1.358 . S
C539 H596 0.930 . S
N540 C539 1.279 . S
N540 C543 1.314 . S
C541 C538 1.348 . S
C541 C543 1.353 . S
C541 H597 0.929 . S
C542 C538 1.356 . S
C542 C539 1.358 . S
C542 H598 0.930 . S
C543 N540 1.314 . S
C543 C541 1.353 . S
C543 H599 0.930 . S
C544 N545 1.314 . S
C544 C549 1.353 . S
C544 H550 0.930 . S
N545 Li528 1.990 . S
N545 C544 1.314 . S
N545 C547 1.279 . S
C546 C547 1.358 . S
C546 C548 1.356 . S
C546 H600 0.930 . S
C547 N545 1.279 . S
C547 C546 1.358 . S
C547 H551 0.930 . S
C548 C546 1.356 . S
C548 C549 1.348 . S
C549 C544 1.353 . S
C549 C548 1.348 . S
C549 H601 0.929 . S
H550 C544 0.930 . S
H551 C547 0.930 . S
C552 N553 1.314 . S
C552 C554 1.353 . S
C552 H558 0.930 . S
N553 Li529 1.990 . S
N553 C552 1.314 . S
N553 C556 1.279 . S
C554 C552 1.353 . S
C554 C557 1.348 . S
C554 H602 0.929 . S
C555 C556 1.358 . S
C555 C557 1.356 . S
C555 H603 0.930 . S
C556 N553 1.279 . S
C556 C555 1.358 . S
C556 H559 0.930 . S
C557 C554 1.348 . S
C557 C555 1.356 . S
H558 C552 0.930 . S
H559 C556 0.930 . S
C560 C562 1.348 . S
C560 C563 1.356 . S
C560 O590 1.325 . S
N561 C564 1.314 . S
N561 C565 1.279 . S
C562 C560 1.348 . S
C562 C564 1.353 . S
C562 H604 0.929 . S
C563 C560 1.356 . S
C563 C565 1.358 . S
C563 H605 0.930 . S
C564 N561 1.314 . S
C564 C562 1.353 . S
C564 H606 0.930 . S
C565 N561 1.279 . S
C565 C563 1.358 . S
C565 H607 0.930 . S
C566 C567 1.348 . S
C566 C568 1.356 . S
C566 O591 1.325 . S
C567 C566 1.348 . S
C567 C569 1.353 . S
C567 H608 0.929 . S
C568 C566 1.356 . S
C568 C570 1.358 . S
C568 H609 0.930 . S
C569 C567 1.353 . S
C569 N571 1.314 . S
C569 H610 0.930 . S
C570 C568 1.358 . S
C570 N571 1.279 . S
C570 H611 0.930 . S
N571 C569 1.314 . S
N571 C570 1.279 . S
C572 C574 1.353 . S
C572 N575 1.314 . S
C572 H578 0.930 . S
C573 N575 1.279 . S
C573 C576 1.358 . S
C573 H579 0.930 . S
C574 C572 1.353 . S
C574 C577 1.348 . S
C574 H612 0.929 . S
N575 Li530 1.990 . S
N575 C572 1.314 . S
N575 C573 1.279 . S
C576 C573 1.358 . S
C576 C577 1.356 . S
C576 H613 0.930 . S
C577 C574 1.348 . S
C577 C576 1.356 . S
H578 C572 0.930 . S
H579 C573 0.930 . S
C580 N581 1.314 . S
C580 C582 1.353 . S
C580 H586 0.930 . S
N581 Li531 1.990 . S
N581 C580 1.314 . S
N581 C584 1.279 . S
C582 C580 1.353 . S
C582 C585 1.348 . S
C582 H614 0.929 . S
C583 C584 1.358 . S
C583 C585 1.356 . S
C583 H615 0.930 . S
C584 N581 1.279 . S
C584 C583 1.358 . S
C584 H587 0.930 . S
C585 C582 1.348 . S
C585 C583 1.356 . S
H586 C580 0.930 . S
H587 C584 0.930 . S
O588 Li528 1.956 . S
O588 Li529 1.970 . S
O588 Li530 1.961 . S
O588 C532 1.325 . S
O589 Li528 1.970 . S
O589 Li529 1.956 . S
O589 Li531 1.961 . S
O589 C538 1.325 . S
O590 Li528 1.961 . S
O590 Li530 1.956 . S
O590 Li531 1.970 . S
O590 C560 1.325 . S
O591 Li529 1.961 . S
O591 Li530 1.970 . S
O591 Li531 1.956 . S
O591 C566 1.325 . S
H592 C534 0.929 . S
H593 C535 0.930 . S
H594 C536 0.930 . S
H595 C537 0.930 . S
H596 C539 0.930 . S
H597 C541 0.929 . S
H598 C542 0.930 . S
H599 C543 0.930 . S
H600 C546 0.930 . S
H601 C549 0.929 . S
H602 C554 0.929 . S
H603 C555 0.930 . S
H604 C562 0.929 . S
H605 C563 0.930 . S
H606 C564 0.930 . S
H607 C565 0.930 . S
H608 C567 0.929 . S
H609 C568 0.930 . S
H610 C569 0.930 . S
H611 C570 0.930 . S
H612 C574 0.929 . S
H613 C576 0.930 . S
H614 C582 0.929 . S
H615 C583 0.930 . S
Li616 N633 1.990 . S
Li616 O676 1.956 . S
Li616 O677 1.970 . S
Li616 O678 1.961 . S
Li617 N641 1.990 . S
Li617 O676 1.970 . S
Li617 O677 1.956 . S
Li617 O679 1.961 . S
Li618 N663 1.990 1_565 S
Li618 O676 1.961 . S
Li618 O678 1.956 . S
Li618 O679 1.970 . S
Li619 N669 1.990 . S
Li619 O677 1.961 . S
Li619 O678 1.970 . S
Li619 O679 1.956 . S
C620 C622 1.348 . S
C620 C623 1.356 . S
C620 O676 1.325 . S
N621 C624 1.314 . S
N621 C625 1.279 . S
C622 C620 1.348 . S
C622 C624 1.353 . S
C622 H680 0.929 . S
C623 C620 1.356 . S
C623 C625 1.358 . S
C623 H681 0.930 . S
C624 N621 1.314 . S
C624 C622 1.353 . S
C624 H682 0.930 . S
C625 N621 1.279 . S
C625 C623 1.358 . S
C625 H683 0.930 . S
C626 C629 1.348 . S
C626 C630 1.356 . S
C626 O677 1.325 . S
C627 N628 1.279 . S
C627 C630 1.358 . S
C627 H684 0.930 . S
N628 C627 1.279 . S
N628 C631 1.314 . S
C629 C626 1.348 . S
C629 C631 1.353 . S
C629 H685 0.929 . S
C630 C626 1.356 . S
C630 C627 1.358 . S
C630 H686 0.930 . S
C631 N628 1.314 . S
C631 C629 1.353 . S
C631 H687 0.930 . S
C632 N633 1.314 . S
C632 C637 1.353 . S
C632 H638 0.930 . S
N633 Li616 1.990 . S
N633 C632 1.314 . S
N633 C635 1.279 . S
C634 C635 1.358 . S
C634 C636 1.356 . S
C634 H688 0.930 . S
C635 N633 1.279 . S
C635 C634 1.358 . S
C635 H639 0.930 . S
C636 C634 1.356 . S
C636 C637 1.348 . S
C637 C632 1.353 . S
C637 C636 1.348 . S
C637 H689 0.929 . S
H638 C632 0.930 . S
H639 C635 0.930 . S
C640 N641 1.314 . S
C640 C642 1.353 . S
C640 H646 0.930 . S
N641 Li617 1.990 . S
N641 C640 1.314 . S
N641 C644 1.279 . S
C642 C640 1.353 . S
C642 C645 1.348 . S
C642 H690 0.929 . S
C643 C644 1.358 . S
C643 C645 1.356 . S
C643 H691 0.930 . S
C644 N641 1.279 . S
C644 C643 1.358 . S
C644 H647 0.930 . S
C645 C642 1.348 . S
C645 C643 1.356 . S
H646 C640 0.930 . S
H647 C644 0.930 . S
C648 C650 1.348 1_565 S
C648 C651 1.356 1_565 S
C648 O678 1.325 . S
N649 C652 1.314 . S
N649 C653 1.279 . S
C650 C648 1.348 1_545 S
C650 C652 1.353 . S
C650 H692 0.929 . S
C651 C648 1.356 1_545 S
C651 C653 1.358 . S
C651 H693 0.937 1_545 S
C652 N649 1.314 . S
C652 C650 1.353 . S
C652 H694 0.930 . S
C653 N649 1.279 . S
C653 C651 1.358 . S
C653 H695 0.930 . S
C654 C655 1.348 1_565 S
C654 C656 1.356 . S
C654 O679 1.325 . S
C655 C654 1.348 1_545 S
C655 C657 1.353 . S
C655 H696 0.929 . S
C656 C654 1.356 . S
C656 C658 1.358 . S
C656 H697 0.930 . S
C657 C655 1.353 . S
C657 N659 1.358 . S
C657 H698 0.930 . S
C658 C656 1.358 . S
C658 N659 1.234 1_565 S
C658 H699 0.930 . S
N659 C657 1.358 . S
N659 C658 1.234 1_545 S
C660 C662 1.353 . S
C660 N663 1.314 . S
C660 H666 0.930 . S
C661 N663 1.279 . S
C661 C664 1.358 . S
C661 H667 0.930 . S
C662 C660 1.353 . S
C662 C665 1.348 . S
C662 H700 0.929 . S
N663 Li618 1.990 1_545 S
N663 C660 1.314 . S
N663 C661 1.279 . S
C664 C661 1.358 . S
C664 C665 1.356 . S
C664 H701 0.930 . S
C665 C662 1.348 . S
C665 C664 1.356 . S
H666 C660 0.930 . S
H667 C661 0.930 . S
C668 N669 1.314 . S
C668 C670 1.353 . S
C668 H674 0.930 . S
N669 Li619 1.990 . S
N669 C668 1.314 . S
N669 C672 1.279 . S
C670 C668 1.353 . S
C670 C673 1.348 . S
C670 H702 0.929 . S
C671 C672 1.358 . S
C671 C673 1.356 . S
C671 H703 0.930 . S
C672 N669 1.279 . S
C672 C671 1.358 . S
C672 H675 0.930 . S
C673 C670 1.348 . S
C673 C671 1.356 . S
H674 C668 0.930 . S
H675 C672 0.930 . S
O676 Li616 1.956 . S
O676 Li617 1.970 . S
O676 Li618 1.961 . S
O676 C620 1.325 . S
O677 Li616 1.970 . S
O677 Li617 1.956 . S
O677 Li619 1.961 . S
O677 C626 1.325 . S
O678 Li616 1.961 . S
O678 Li618 1.956 . S
O678 Li619 1.970 . S
O678 C648 1.325 . S
O679 Li617 1.961 . S
O679 Li618 1.970 . S
O679 Li619 1.956 . S
O679 C654 1.325 . S
H680 C622 0.929 . S
H681 C623 0.930 . S
H682 C624 0.930 . S
H683 C625 0.930 . S
H684 C627 0.930 . S
H685 C629 0.929 . S
H686 C630 0.930 . S
H687 C631 0.930 . S
H688 C634 0.930 . S
H689 C637 0.929 . S
H690 C642 0.929 . S
H691 C643 0.930 . S
H692 C650 0.929 . S
H693 C651 0.937 1_565 S
H694 C652 0.930 . S
H695 C653 0.930 . S
H696 C655 0.929 . S
H697 C656 0.930 . S
H698 C657 0.930 . S
H699 C658 0.930 . S
H700 C662 0.929 . S
H701 C664 0.930 . S
H702 C670 0.929 . S
H703 C671 0.930 . S
Li704 N721 1.990 . S
Li704 O764 1.956 . S
Li704 O765 1.970 . S
Li704 O766 1.961 . S
Li705 N729 1.990 . S
Li705 O764 1.970 . S
Li705 O765 1.956 . S
Li705 O767 1.961 . S
Li706 N751 1.990 1_455 S
Li706 O764 1.961 . S
Li706 O766 1.956 . S
Li706 O767 1.970 . S
Li707 N757 1.990 . S
Li707 O765 1.961 . S
Li707 O766 1.970 . S
Li707 O767 1.956 . S
C708 C710 1.348 . S
C708 C711 1.356 . S
C708 O764 1.325 . S
N709 C712 1.314 . S
N709 C713 1.279 . S
C710 C708 1.348 . S
C710 C712 1.353 . S
C710 H768 0.929 . S
C711 C708 1.356 . S
C711 C713 1.358 . S
C711 H769 0.930 . S
C712 N709 1.314 . S
C712 C710 1.353 . S
C712 H770 0.930 . S
C713 N709 1.279 . S
C713 C711 1.358 . S
C713 H771 0.930 . S
C714 C717 1.348 . S
C714 C718 1.356 . S
C714 O765 1.325 . S
C715 N716 1.279 . S
C715 C718 1.358 . S
C715 H772 0.930 . S
N716 C715 1.279 . S
N716 C719 1.314 . S
C717 C714 1.348 . S
C717 C719 1.353 . S
C717 H773 0.929 . S
C718 C714 1.356 . S
C718 C715 1.358 . S
C718 H774 0.930 . S
C719 N716 1.314 . S
C719 C717 1.353 . S
C719 H775 0.930 . S
C720 N721 1.314 . S
C720 C725 1.353 . S
C720 H726 0.930 . S
N721 Li704 1.990 . S
N721 C720 1.314 . S
N721 C723 1.279 . S
C722 C723 1.358 . S
C722 C724 1.356 . S
C722 H776 0.930 . S
C723 N721 1.279 . S
C723 C722 1.358 . S
C723 H727 0.930 . S
C724 C722 1.356 . S
C724 C725 1.348 . S
C725 C720 1.353 . S
C725 C724 1.348 . S
C725 H777 0.929 . S
H726 C720 0.930 . S
H727 C723 0.930 . S
C728 N729 1.314 . S
C728 C730 1.353 . S
C728 H734 0.930 . S
N729 Li705 1.990 . S
N729 C728 1.314 . S
N729 C732 1.279 . S
C730 C728 1.353 . S
C730 C733 1.348 . S
C730 H778 0.929 . S
C731 C732 1.358 . S
C731 C733 1.356 . S
C731 H779 0.930 . S
C732 N729 1.279 . S
C732 C731 1.358 . S
C732 H735 0.930 . S
C733 C730 1.348 . S
C733 C731 1.356 . S
H734 C728 0.930 . S
H735 C732 0.930 . S
C736 C738 1.348 1_455 S
C736 C739 1.356 1_455 S
C736 O766 1.325 . S
N737 C740 1.314 . S
N737 C741 1.279 . S
C738 C736 1.348 1_655 S
C738 C740 1.353 . S
C738 H780 0.929 . S
C739 C736 1.356 1_655 S
C739 C741 1.358 . S
C739 H781 0.930 1_655 S
C740 N737 1.314 . S
C740 C738 1.353 . S
C740 H782 0.930 . S
C741 N737 1.279 . S
C741 C739 1.358 . S
C741 H783 0.930 . S
C742 C743 1.348 1_455 S
C742 C744 1.356 . S
C742 O767 1.325 . S
C743 C742 1.348 1_655 S
C743 C745 1.353 . S
C743 H784 0.929 . S
C744 C742 1.356 . S
C744 C746 1.358 . S
C744 H785 0.930 . S
C745 C743 1.353 . S
C745 N747 1.311 1_655 S
C745 H786 0.930 . S
C746 C744 1.358 . S
C746 N747 1.294 . S
C746 H787 0.930 . S
N747 C745 1.311 1_455 S
N747 C746 1.294 . S
C748 C750 1.353 . S
C748 N751 1.314 . S
C748 H754 0.930 . S
C749 N751 1.279 . S
C749 C752 1.358 . S
C749 H755 0.930 . S
C750 C748 1.353 . S
C750 C753 1.348 . S
C750 H788 0.929 . S
N751 Li706 1.990 1_655 S
N751 C748 1.314 . S
N751 C749 1.279 . S
C752 C749 1.358 . S
C752 C753 1.356 . S
C752 H789 0.930 . S
C753 C750 1.348 . S
C753 C752 1.356 . S
H754 C748 0.930 . S
H755 C749 0.930 . S
C756 N757 1.314 . S
C756 C758 1.353 . S
C756 H762 0.930 . S
N757 Li707 1.990 . S
N757 C756 1.314 . S
N757 C760 1.279 . S
C758 C756 1.353 . S
C758 C761 1.348 . S
C758 H790 0.929 . S
C759 C760 1.358 . S
C759 C761 1.356 . S
C759 H791 0.930 . S
C760 N757 1.279 . S
C760 C759 1.358 . S
C760 H763 0.930 . S
C761 C758 1.348 . S
C761 C759 1.356 . S
H762 C756 0.930 . S
H763 C760 0.930 . S
O764 Li704 1.956 . S
O764 Li705 1.970 . S
O764 Li706 1.961 . S
O764 C708 1.325 . S
O765 Li704 1.970 . S
O765 Li705 1.956 . S
O765 Li707 1.961 . S
O765 C714 1.325 . S
O766 Li704 1.961 . S
O766 Li706 1.956 . S
O766 Li707 1.970 . S
O766 C736 1.325 . S
O767 Li705 1.961 . S
O767 Li706 1.970 . S
O767 Li707 1.956 . S
O767 C742 1.325 . S
H768 C710 0.929 . S
H769 C711 0.930 . S
H770 C712 0.930 . S
H771 C713 0.930 . S
H772 C715 0.930 . S
H773 C717 0.929 . S
H774 C718 0.930 . S
H775 C719 0.930 . S
H776 C722 0.930 . S
H777 C725 0.929 . S
H778 C730 0.929 . S
H779 C731 0.930 . S
H780 C738 0.929 . S
H781 C739 0.930 1_455 S
H782 C740 0.930 . S
H783 C741 0.930 . S
H784 C743 0.929 . S
H785 C744 0.930 . S
H786 C745 0.930 . S
H787 C746 0.930 . S
H788 C750 0.929 . S
H789 C752 0.930 . S
H790 C758 0.929 . S
H791 C759 0.930 . S
Li792 N809 1.990 1_565 S
Li792 O852 1.956 . S
Li792 O853 1.970 . S
Li792 O854 1.961 . S
Li793 N817 1.990 . S
Li793 O852 1.970 . S
Li793 O853 1.956 . S
Li793 O855 1.961 . S
Li794 N839 1.990 . S
Li794 O852 1.961 . S
Li794 O854 1.956 . S
Li794 O855 1.970 . S
Li795 N845 1.990 . S
Li795 O853 1.961 . S
Li795 O854 1.970 . S
Li795 O855 1.956 . S
C796 C798 1.348 . S
C796 C799 1.356 . S
C796 O852 1.325 . S
N797 C800 1.314 . S
N797 C801 1.279 . S
C798 C796 1.348 . S
C798 C800 1.353 . S
C798 H856 0.929 . S
C799 C796 1.356 . S
C799 C801 1.358 . S
C799 H857 0.930 . S
C800 N797 1.314 . S
C800 C798 1.353 . S
C800 H858 0.930 . S
C801 N797 1.279 . S
C801 C799 1.358 . S
C801 H859 0.930 . S
C802 C805 1.337 1_565 S
C802 C806 1.356 . S
C802 O853 1.325 . S
C803 N804 1.311 . S
C803 C806 1.358 . S
C803 H860 0.930 . S
N804 C803 1.311 . S
N804 C807 1.322 1_565 S
C805 C802 1.337 1_545 S
C805 C807 1.365 . S
C805 H861 0.928 . S
C806 C802 1.356 . S
C806 C803 1.358 . S
C806 H862 0.930 . S
C807 N804 1.322 1_545 S
C807 C805 1.365 . S
C807 H863 0.930 . S
C808 N809 1.314 . S
C808 C813 1.353 . S
C808 H814 0.930 . S
N809 Li792 1.990 1_545 S
N809 C808 1.314 . S
N809 C811 1.279 . S
C810 C811 1.358 . S
C810 C812 1.356 . S
C810 H864 0.930 . S
C811 N809 1.279 . S
C811 C810 1.358 . S
C811 H815 0.930 . S
C812 C810 1.356 . S
C812 C813 1.348 . S
C813 C808 1.353 . S
C813 C812 1.348 . S
C813 H865 0.929 . S
H814 C808 0.930 . S
H815 C811 0.930 . S
C816 N817 1.314 . S
C816 C818 1.353 . S
C816 H822 0.930 . S
N817 Li793 1.990 . S
N817 C816 1.314 . S
N817 C820 1.279 . S
C818 C816 1.353 . S
C818 C821 1.348 . S
C818 H866 0.929 . S
C819 C820 1.358 . S
C819 C821 1.356 . S
C819 H867 0.930 . S
C820 N817 1.279 . S
C820 C819 1.358 . S
C820 H823 0.930 . S
C821 C818 1.348 . S
C821 C819 1.356 . S
H822 C816 0.930 . S
H823 C820 0.930 . S
C824 C826 1.348 . S
C824 C827 1.356 1_565 S
C824 O854 1.325 . S
N825 C828 1.314 . S
N825 C829 1.279 . S
C826 C824 1.348 . S
C826 C828 1.353 1_565 S
C826 H868 0.929 . S
C827 C824 1.356 1_545 S
C827 C829 1.358 . S
C827 H869 0.930 . S
C828 N825 1.314 . S
C828 C826 1.353 1_545 S
C828 H870 0.930 . S
C829 N825 1.279 . S
C829 C827 1.358 . S
C829 H871 0.930 . S
C830 C831 1.348 . S
C830 C832 1.356 . S
C830 O855 1.325 . S
C831 C830 1.348 . S
C831 C833 1.353 . S
C831 H872 0.929 . S
C832 C830 1.356 . S
C832 C834 1.358 . S
C832 H873 0.930 . S
C833 C831 1.353 . S
C833 N835 1.314 . S
C833 H874 0.930 . S
C834 C832 1.358 . S
C834 N835 1.279 . S
C834 H875 0.930 . S
N835 C833 1.314 . S
N835 C834 1.279 . S
C836 C838 1.353 . S
C836 N839 1.314 . S
C836 H842 0.930 . S
C837 N839 1.279 . S
C837 C840 1.358 . S
C837 H843 0.930 . S
C838 C836 1.353 . S
C838 C841 1.348 . S
C838 H876 0.929 . S
N839 Li794 1.990 . S
N839 C836 1.314 . S
N839 C837 1.279 . S
C840 C837 1.358 . S
C840 C841 1.356 . S
C840 H877 0.930 . S
C841 C838 1.348 . S
C841 C840 1.356 . S
H842 C836 0.930 . S
H843 C837 0.930 . S
C844 N845 1.314 . S
C844 C846 1.353 . S
C844 H850 0.930 . S
N845 Li795 1.990 . S
N845 C844 1.314 . S
N845 C848 1.279 . S
C846 C844 1.353 . S
C846 C849 1.348 . S
C846 H878 0.846 1_565 S
C847 C848 1.358 . S
C847 C849 1.356 . S
C847 H879 0.930 . S
C848 N845 1.279 . S
C848 C847 1.358 . S
C848 H851 0.930 . S
C849 C846 1.348 . S
C849 C847 1.356 . S
H850 C844 0.930 . S
H851 C848 0.930 . S
O852 Li792 1.956 . S
O852 Li793 1.970 . S
O852 Li794 1.961 . S
O852 C796 1.325 . S
O853 Li792 1.970 . S
O853 Li793 1.956 . S
O853 Li795 1.961 . S
O853 C802 1.325 . S
O854 Li792 1.961 . S
O854 Li794 1.956 . S
O854 Li795 1.970 . S
O854 C824 1.325 . S
O855 Li793 1.961 . S
O855 Li794 1.970 . S
O855 Li795 1.956 . S
O855 C830 1.325 . S
H856 C798 0.929 . S
H857 C799 0.930 . S
H858 C800 0.930 . S
H859 C801 0.930 . S
H860 C803 0.930 . S
H861 C805 0.928 . S
H862 C806 0.930 . S
H863 C807 0.930 . S
H864 C810 0.930 . S
H865 C813 0.929 . S
H866 C818 0.929 . S
H867 C819 0.930 . S
H868 C826 0.929 . S
H869 C827 0.930 . S
H870 C828 0.930 . S
H871 C829 0.930 . S
H872 C831 0.929 . S
H873 C832 0.930 . S
H874 C833 0.930 . S
H875 C834 0.930 . S
H876 C838 0.929 . S
H877 C840 0.930 . S
H878 C846 0.846 1_545 S
H879 C847 0.930 . S
Li880 N897 1.990 . S
Li880 O940 1.956 . S
Li880 O941 1.970 . S
Li880 O942 1.961 . S
Li881 N905 1.990 1_455 S
Li881 O940 1.970 . S
Li881 O941 1.956 . S
Li881 O943 1.961 . S
Li882 N927 1.990 . S
Li882 O940 1.961 . S
Li882 O942 1.956 . S
Li882 O943 1.970 . S
Li883 N933 1.990 . S
Li883 O941 1.961 . S
Li883 O942 1.970 . S
Li883 O943 1.956 . S
C884 C886 1.334 1_455 S
C884 C887 1.356 . S
C884 O940 1.325 . S
N885 C888 1.259 1_455 S
N885 C889 1.338 . S
C886 C884 1.334 1_655 S
C886 C888 1.353 . S
C886 H944 0.944 . S
C887 C884 1.356 . S
C887 C889 1.358 . S
C887 H945 0.930 . S
C888 N885 1.259 1_655 S
C888 C886 1.353 . S
C888 H946 0.930 . S
C889 N885 1.338 . S
C889 C887 1.358 . S
C889 H947 0.930 . S
C890 C893 1.348 . S
C890 C894 1.356 . S
C890 O941 1.325 . S
C891 N892 1.279 . S
C891 C894 1.358 . S
C891 H948 0.930 . S
N892 C891 1.279 . S
N892 C895 1.314 . S
C893 C890 1.348 . S
C893 C895 1.353 . S
C893 H949 0.929 . S
C894 C890 1.356 . S
C894 C891 1.358 . S
C894 H950 0.930 . S
C895 N892 1.314 . S
C895 C893 1.353 . S
C895 H951 0.930 . S
C896 N897 1.314 . S
C896 C901 1.353 . S
C896 H902 0.930 . S
N897 Li880 1.990 . S
N897 C896 1.314 . S
N897 C899 1.279 . S
C898 C899 1.358 . S
C898 C900 1.356 . S
C898 H952 0.930 . S
C899 N897 1.279 . S
C899 C898 1.358 . S
C899 H903 0.930 . S
C900 C898 1.356 . S
C900 C901 1.348 . S
C901 C896 1.353 . S
C901 C900 1.348 . S
C901 H953 0.929 . S
H902 C896 0.930 . S
H903 C899 0.930 . S
C904 N905 1.314 . S
C904 C906 1.353 . S
C904 H910 0.930 . S
N905 Li881 1.990 1_655 S
N905 C904 1.314 . S
N905 C908 1.279 . S
C906 C904 1.353 . S
C906 C909 1.348 . S
C906 H954 0.929 . S
C907 C908 1.358 . S
C907 C909 1.356 . S
C907 H955 0.930 . S
C908 N905 1.279 . S
C908 C907 1.358 . S
C908 H911 0.930 . S
C909 C906 1.348 . S
C909 C907 1.356 . S
H910 C904 0.930 . S
H911 C908 0.930 . S
C912 C914 1.348 . S
C912 C915 1.356 . S
C912 O942 1.325 . S
N913 C916 1.314 . S
N913 C917 1.279 . S
C914 C912 1.348 . S
C914 C916 1.353 . S
C914 H956 0.929 . S
C915 C912 1.356 . S
C915 C917 1.358 . S
C915 H957 0.930 . S
C916 N913 1.314 . S
C916 C914 1.353 . S
C916 H958 0.930 . S
C917 N913 1.279 . S
C917 C915 1.358 . S
C917 H959 0.930 . S
C918 C919 1.348 . S
C918 C920 1.356 1_455 S
C918 O943 1.325 . S
C919 C918 1.348 . S
C919 C921 1.353 1_455 S
C919 H960 0.929 . S
C920 C918 1.356 1_655 S
C920 C922 1.358 . S
C920 H961 0.930 . S
C921 C919 1.353 1_655 S
C921 N923 1.314 . S
C921 H962 0.930 . S
C922 C920 1.358 . S
C922 N923 1.279 . S
C922 H963 0.930 . S
N923 C921 1.314 . S
N923 C922 1.279 . S
C924 C926 1.353 . S
C924 N927 1.314 . S
C924 H930 0.930 . S
C925 N927 1.279 . S
C925 C928 1.358 . S
C925 H931 0.930 . S
C926 C924 1.353 . S
C926 C929 1.348 . S
C926 H964 0.881 1_455 S
N927 Li882 1.990 . S
N927 C924 1.314 . S
N927 C925 1.279 . S
C928 C925 1.358 . S
C928 C929 1.356 . S
C928 H965 0.930 . S
C929 C926 1.348 . S
C929 C928 1.356 . S
H930 C924 0.930 . S
H931 C925 0.930 . S
C932 N933 1.314 . S
C932 C934 1.353 . S
C932 H938 0.930 . S
N933 Li883 1.990 . S
N933 C932 1.314 . S
N933 C936 1.279 . S
C934 C932 1.353 . S
C934 C937 1.348 . S
C934 H966 0.929 . S
C935 C936 1.358 . S
C935 C937 1.356 . S
C935 H967 0.930 . S
C936 N933 1.279 . S
C936 C935 1.358 . S
C936 H939 0.930 . S
C937 C934 1.348 . S
C937 C935 1.356 . S
H938 C932 0.930 . S
H939 C936 0.930 . S
O940 Li880 1.956 . S
O940 Li881 1.970 . S
O940 Li882 1.961 . S
O940 C884 1.325 . S
O941 Li880 1.970 . S
O941 Li881 1.956 . S
O941 Li883 1.961 . S
O941 C890 1.325 . S
O942 Li880 1.961 . S
O942 Li882 1.956 . S
O942 Li883 1.970 . S
O942 C912 1.325 . S
O943 Li881 1.961 . S
O943 Li882 1.970 . S
O943 Li883 1.956 . S
O943 C918 1.325 . S
H944 C886 0.944 . S
H945 C887 0.930 . S
H946 C888 0.930 . S
H947 C889 0.930 . S
H948 C891 0.930 . S
H949 C893 0.929 . S
H950 C894 0.930 . S
H951 C895 0.930 . S
H952 C898 0.930 . S
H953 C901 0.929 . S
H954 C906 0.929 . S
H955 C907 0.930 . S
H956 C914 0.929 . S
H957 C915 0.930 . S
H958 C916 0.930 . S
H959 C917 0.930 . S
H960 C919 0.929 . S
H961 C920 0.930 . S
H962 C921 0.930 . S
H963 C922 0.930 . S
H964 C926 0.881 1_655 S
H965 C928 0.930 . S
H966 C934 0.929 . S
H967 C935 0.930 . S
Li968 N985 1.990 . S
Li968 O1028 1.956 . S
Li968 O1029 1.970 . S
Li968 O1030 1.961 . S
Li969 N993 1.990 . S
Li969 O1028 1.970 . S
Li969 O1029 1.956 . S
Li969 O1031 1.961 . S
Li970 N1015 1.990 . S
Li970 O1028 1.961 . S
Li970 O1030 1.956 . S
Li970 O1031 1.970 . S
Li971 N1021 1.990 . S
Li971 O1029 1.961 . S
Li971 O1030 1.970 . S
Li971 O1031 1.956 . S
C972 C974 1.348 . S
C972 C975 1.356 . S
C972 O1028 1.325 . S
N973 C976 1.314 . S
N973 C977 1.279 . S
C974 C972 1.348 . S
C974 C976 1.353 . S
C974 H1032 0.929 . S
C975 C972 1.356 . S
C975 C977 1.358 . S
C975 H1033 0.930 . S
C976 N973 1.314 . S
C976 C974 1.353 . S
C976 H1034 0.930 . S
C977 N973 1.279 . S
C977 C975 1.358 . S
C977 H1035 0.930 . S
C978 C981 1.348 . S
C978 C982 1.356 . S
C978 O1029 1.325 . S
C979 N980 1.279 . S
C979 C982 1.358 . S
C979 H1036 0.930 . S
N980 C979 1.279 . S
N980 C983 1.314 . S
C981 C978 1.348 . S
C981 C983 1.353 . S
C981 H1037 0.929 . S
C982 C978 1.356 . S
C982 C979 1.358 . S
C982 H1038 0.930 . S
C983 N980 1.314 . S
C983 C981 1.353 . S
C983 H1039 0.930 . S
C984 N985 1.314 . S
C984 C989 1.353 . S
C984 H990 0.930 . S
N985 Li968 1.990 . S
N985 C984 1.314 . S
N985 C987 1.279 . S
C986 C987 1.358 . S
C986 C988 1.356 . S
C986 H1040 0.930 . S
C987 N985 1.279 . S
C987 C986 1.358 . S
C987 H991 0.930 . S
C988 C986 1.356 . S
C988 C989 1.348 . S
C989 C984 1.353 . S
C989 C988 1.348 . S
C989 H1041 0.929 . S
H990 C984 0.930 . S
H991 C987 0.930 . S
C992 N993 1.314 . S
C992 C994 1.353 . S
C992 H998 0.930 . S
N993 Li969 1.990 . S
N993 C992 1.314 . S
N993 C996 1.279 . S
C994 C992 1.353 . S
C994 C997 1.348 . S
C994 H1042 0.929 . S
C995 C996 1.358 . S
C995 C997 1.356 . S
C995 H1043 0.930 . S
C996 N993 1.279 . S
C996 C995 1.358 . S
C996 H999 0.930 . S
C997 C994 1.348 . S
C997 C995 1.356 . S
H998 C992 0.930 . S
H999 C996 0.930 . S
C1000 C1002 1.348 . S
C1000 C1003 1.356 . S
C1000 O1030 1.325 . S
N1001 C1004 1.314 . S
N1001 C1005 1.279 . S
C1002 C1000 1.348 . S
C1002 C1004 1.353 . S
C1002 H1044 0.929 . S
C1003 C1000 1.356 . S
C1003 C1005 1.358 . S
C1003 H1045 0.930 . S
C1004 N1001 1.314 . S
C1004 C1002 1.353 . S
C1004 H1046 0.930 . S
C1005 N1001 1.279 . S
C1005 C1003 1.358 . S
C1005 H1047 0.930 . S
C1006 C1007 1.348 . S
C1006 C1008 1.356 . S
C1006 O1031 1.325 . S
C1007 C1006 1.348 . S
C1007 C1009 1.353 . S
C1007 H1048 0.929 . S
C1008 C1006 1.356 . S
C1008 C1010 1.358 . S
C1008 H1049 0.930 . S
C1009 C1007 1.353 . S
C1009 N1011 1.314 . S
C1009 H1050 0.930 . S
C1010 C1008 1.358 . S
C1010 N1011 1.279 . S
C1010 H1051 0.930 . S
N1011 C1009 1.314 . S
N1011 C1010 1.279 . S
C1012 C1014 1.353 . S
C1012 N1015 1.314 . S
C1012 H1018 0.930 . S
C1013 N1015 1.279 . S
C1013 C1016 1.358 . S
C1013 H1019 0.930 . S
C1014 C1012 1.353 . S
C1014 C1017 1.348 . S
C1014 H1052 0.929 . S
N1015 Li970 1.990 . S
N1015 C1012 1.314 . S
N1015 C1013 1.279 . S
C1016 C1013 1.358 . S
C1016 C1017 1.356 . S
C1016 H1053 0.930 . S
C1017 C1014 1.348 . S
C1017 C1016 1.356 . S
H1018 C1012 0.930 . S
H1019 C1013 0.930 . S
C1020 N1021 1.314 . S
C1020 C1022 1.353 . S
C1020 H1026 0.930 . S
N1021 Li971 1.990 . S
N1021 C1020 1.314 . S
N1021 C1024 1.279 . S
C1022 C1020 1.353 . S
C1022 C1025 1.348 . S
C1022 H1054 0.929 . S
C1023 C1024 1.358 . S
C1023 C1025 1.356 . S
C1023 H1055 0.930 . S
C1024 N1021 1.279 . S
C1024 C1023 1.358 . S
C1024 H1027 0.930 . S
C1025 C1022 1.348 . S
C1025 C1023 1.356 . S
H1026 C1020 0.930 . S
H1027 C1024 0.930 . S
O1028 Li968 1.956 . S
O1028 Li969 1.970 . S
O1028 Li970 1.961 . S
O1028 C972 1.325 . S
O1029 Li968 1.970 . S
O1029 Li969 1.956 . S
O1029 Li971 1.961 . S
O1029 C978 1.325 . S
O1030 Li968 1.961 . S
O1030 Li970 1.956 . S
O1030 Li971 1.970 . S
O1030 C1000 1.325 . S
O1031 Li969 1.961 . S
O1031 Li970 1.970 . S
O1031 Li971 1.956 . S
O1031 C1006 1.325 . S
H1032 C974 0.929 . S
H1033 C975 0.930 . S
H1034 C976 0.930 . S
H1035 C977 0.930 . S
H1036 C979 0.930 . S
H1037 C981 0.929 . S
H1038 C982 0.930 . S
H1039 C983 0.930 . S
H1040 C986 0.930 . S
H1041 C989 0.929 . S
H1042 C994 0.929 . S
H1043 C995 0.930 . S
H1044 C1002 0.929 . S
H1045 C1003 0.930 . S
H1046 C1004 0.930 . S
H1047 C1005 0.930 . S
H1048 C1007 0.929 . S
H1049 C1008 0.930 . S
H1050 C1009 0.930 . S
H1051 C1010 0.930 . S
H1052 C1014 0.929 . S
H1053 C1016 0.930 . S
H1054 C1022 0.929 . S
H1055 C1023 0.930 . S
Li1056 N1073 1.990 1_545 S
Li1056 O1116 1.956 . S
Li1056 O1117 1.970 . S
Li1056 O1118 1.961 . S
Li1057 N1081 1.990 . S
Li1057 O1116 1.970 . S
Li1057 O1117 1.956 . S
Li1057 O1119 1.961 . S
Li1058 N1103 1.990 . S
Li1058 O1116 1.961 . S
Li1058 O1118 1.956 . S
Li1058 O1119 1.970 . S
Li1059 N1109 1.990 . S
Li1059 O1117 1.961 . S
Li1059 O1118 1.970 . S
Li1059 O1119 1.956 . S
C1060 C1062 1.348 1_545 S
C1060 C1063 1.356 1_545 S
C1060 O1116 1.325 . S
N1061 C1064 1.314 . S
N1061 C1065 1.279 . S
C1062 C1060 1.348 1_565 S
C1062 C1064 1.353 . S
C1062 H1120 0.929 . S
C1063 C1060 1.356 1_565 S
C1063 C1065 1.358 . S
C1063 H1121 0.930 1_565 S
C1064 N1061 1.314 . S
C1064 C1062 1.353 . S
C1064 H1122 0.930 . S
C1065 N1061 1.279 . S
C1065 C1063 1.358 . S
C1065 H1123 0.930 . S
C1066 C1069 1.348 1_545 S
C1066 C1070 1.356 . S
C1066 O1117 1.325 . S
C1067 N1068 1.286 . S
C1067 C1070 1.358 . S
C1067 H1124 0.930 . S
N1068 C1067 1.286 . S
N1068 C1071 1.313 1_545 S
C1069 C1066 1.348 1_565 S
C1069 C1071 1.353 . S
C1069 H1125 0.929 . S
C1070 C1066 1.356 . S
C1070 C1067 1.358 . S
C1070 H1126 0.930 . S
C1071 N1068 1.313 1_565 S
C1071 C1069 1.353 . S
C1071 H1127 0.930 . S
C1072 N1073 1.314 . S
C1072 C1077 1.353 . S
C1072 H1078 0.930 . S
N1073 Li1056 1.990 1_565 S
N1073 C1072 1.314 . S
N1073 C1075 1.279 . S
C1074 C1075 1.358 . S
C1074 C1076 1.356 . S
C1074 H1128 0.930 . S
C1075 N1073 1.279 . S
C1075 C1074 1.358 . S
C1075 H1079 0.930 . S
C1076 C1074 1.356 . S
C1076 C1077 1.348 . S
C1077 C1072 1.353 . S
C1077 C1076 1.348 . S
C1077 H1129 0.929 . S
H1078 C1072 0.930 . S
H1079 C1075 0.930 . S
C1080 N1081 1.314 . S
C1080 C1082 1.353 . S
C1080 H1086 0.930 . S
N1081 Li1057 1.990 . S
N1081 C1080 1.314 . S
N1081 C1084 1.279 . S
C1082 C1080 1.353 . S
C1082 C1085 1.348 . S
C1082 H1130 0.929 . S
C1083 C1084 1.358 . S
C1083 C1085 1.356 . S
C1083 H1131 0.930 . S
C1084 N1081 1.279 . S
C1084 C1083 1.358 . S
C1084 H1087 0.930 . S
C1085 C1082 1.348 . S
C1085 C1083 1.356 . S
H1086 C1080 0.930 . S
H1087 C1084 0.930 . S
C1088 C1090 1.348 . S
C1088 C1091 1.356 . S
C1088 O1118 1.325 . S
N1089 C1092 1.314 . S
N1089 C1093 1.279 . S
C1090 C1088 1.348 . S
C1090 C1092 1.353 . S
C1090 H1132 0.929 . S
C1091 C1088 1.356 . S
C1091 C1093 1.358 . S
C1091 H1133 0.930 . S
C1092 N1089 1.314 . S
C1092 C1090 1.353 . S
C1092 H1134 0.930 . S
C1093 N1089 1.279 . S
C1093 C1091 1.358 . S
C1093 H1135 0.930 . S
C1094 C1095 1.348 . S
C1094 C1096 1.356 . S
C1094 O1119 1.325 . S
C1095 C1094 1.348 . S
C1095 C1097 1.353 . S
C1095 H1136 0.929 . S
C1096 C1094 1.356 . S
C1096 C1098 1.358 . S
C1096 H1137 0.930 . S
C1097 C1095 1.353 . S
C1097 N1099 1.314 . S
C1097 H1138 0.930 . S
C1098 C1096 1.358 . S
C1098 N1099 1.279 . S
C1098 H1139 0.930 . S
N1099 C1097 1.314 . S
N1099 C1098 1.279 . S
C1100 C1102 1.353 . S
C1100 N1103 1.314 . S
C1100 H1106 0.930 . S
C1101 N1103 1.279 . S
C1101 C1104 1.358 . S
C1101 H1107 0.930 . S
C1102 C1100 1.353 . S
C1102 C1105 1.348 . S
C1102 H1140 0.929 . S
N1103 Li1058 1.990 . S
N1103 C1100 1.314 . S
N1103 C1101 1.279 . S
C1104 C1101 1.358 . S
C1104 C1105 1.356 . S
C1104 H1141 0.930 . S
C1105 C1102 1.348 . S
C1105 C1104 1.356 . S
H1106 C1100 0.930 . S
H1107 C1101 0.930 . S
C1108 N1109 1.314 . S
C1108 C1110 1.353 . S
C1108 H1114 0.930 . S
N1109 Li1059 1.990 . S
N1109 C1108 1.314 . S
N1109 C1112 1.279 . S
C1110 C1108 1.353 . S
C1110 C1113 1.348 . S
C1110 H1142 0.929 . S
C1111 C1112 1.358 . S
C1111 C1113 1.356 . S
C1111 H1143 0.930 . S
C1112 N1109 1.279 . S
C1112 C1111 1.358 . S
C1112 H1115 0.930 . S
C1113 C1110 1.348 . S
C1113 C1111 1.356 . S
H1114 C1108 0.930 . S
H1115 C1112 0.930 . S
O1116 Li1056 1.956 . S
O1116 Li1057 1.970 . S
O1116 Li1058 1.961 . S
O1116 C1060 1.325 . S
O1117 Li1056 1.970 . S
O1117 Li1057 1.956 . S
O1117 Li1059 1.961 . S
O1117 C1066 1.325 . S
O1118 Li1056 1.961 . S
O1118 Li1058 1.956 . S
O1118 Li1059 1.970 . S
O1118 C1088 1.325 . S
O1119 Li1057 1.961 . S
O1119 Li1058 1.970 . S
O1119 Li1059 1.956 . S
O1119 C1094 1.325 . S
H1120 C1062 0.929 . S
H1121 C1063 0.930 1_545 S
H1122 C1064 0.930 . S
H1123 C1065 0.930 . S
H1124 C1067 0.930 . S
H1125 C1069 0.929 . S
H1126 C1070 0.930 . S
H1127 C1071 0.930 . S
H1128 C1074 0.930 . S
H1129 C1077 0.929 . S
H1130 C1082 0.929 . S
H1131 C1083 0.930 . S
H1132 C1090 0.929 . S
H1133 C1091 0.930 . S
H1134 C1092 0.930 . S
H1135 C1093 0.930 . S
H1136 C1095 0.929 . S
H1137 C1096 0.930 . S
H1138 C1097 0.930 . S
H1139 C1098 0.930 . S
H1140 C1102 0.929 . S
H1141 C1104 0.930 . S
H1142 C1110 0.929 . S
H1143 C1111 0.930 . S
Li1144 N1161 1.990 1_655 S
Li1144 O1204 1.956 . S
Li1144 O1205 1.970 . S
Li1144 O1206 1.961 . S
Li1145 N1169 1.990 . S
Li1145 O1204 1.970 . S
Li1145 O1205 1.956 . S
Li1145 O1207 1.961 . S
Li1146 N1191 1.990 . S
Li1146 O1204 1.961 . S
Li1146 O1206 1.956 . S
Li1146 O1207 1.970 . S
Li1147 N1197 1.990 . S
Li1147 O1205 1.961 . S
Li1147 O1206 1.970 . S
Li1147 O1207 1.956 . S
C1148 C1150 1.348 1_655 S
C1148 C1151 1.356 1_655 S
C1148 O1204 1.325 . S
N1149 C1152 1.314 . S
N1149 C1153 1.279 . S
C1150 C1148 1.348 1_455 S
C1150 C1152 1.353 . S
C1150 H1208 0.929 . S
C1151 C1148 1.356 1_455 S
C1151 C1153 1.358 . S
C1151 H1209 0.937 1_455 S
C1152 N1149 1.314 . S
C1152 C1150 1.353 . S
C1152 H1210 0.930 . S
C1153 N1149 1.279 . S
C1153 C1151 1.358 . S
C1153 H1211 0.930 . S
C1154 C1157 1.348 1_655 S
C1154 C1158 1.356 . S
C1154 O1205 1.325 . S
C1155 N1156 1.239 1_655 S
C1155 C1158 1.358 . S
C1155 H1212 0.930 . S
N1156 C1155 1.239 1_455 S
N1156 C1159 1.354 . S
C1157 C1154 1.348 1_455 S
C1157 C1159 1.353 . S
C1157 H1213 0.929 . S
C1158 C1154 1.356 . S
C1158 C1155 1.358 . S
C1158 H1214 0.930 . S
C1159 N1156 1.354 . S
C1159 C1157 1.353 . S
C1159 H1215 0.930 . S
C1160 N1161 1.314 . S
C1160 C1165 1.353 . S
C1160 H1166 0.930 . S
N1161 Li1144 1.990 1_455 S
N1161 C1160 1.314 . S
N1161 C1163 1.279 . S
C1162 C1163 1.358 . S
C1162 C1164 1.356 . S
C1162 H1216 0.930 . S
C1163 N1161 1.279 . S
C1163 C1162 1.358 . S
C1163 H1167 0.930 . S
C1164 C1162 1.356 . S
C1164 C1165 1.348 . S
C1165 C1160 1.353 . S
C1165 C1164 1.348 . S
C1165 H1217 0.929 . S
H1166 C1160 0.930 . S
H1167 C1163 0.930 . S
C1168 N1169 1.314 . S
C1168 C1170 1.353 . S
C1168 H1174 0.930 . S
N1169 Li1145 1.990 . S
N1169 C1168 1.314 . S
N1169 C1172 1.279 . S
C1170 C1168 1.353 . S
C1170 C1173 1.348 . S
C1170 H1218 0.929 . S
C1171 C1172 1.358 . S
C1171 C1173 1.356 . S
C1171 H1219 0.930 . S
C1172 N1169 1.279 . S
C1172 C1171 1.358 . S
C1172 H1175 0.930 . S
C1173 C1170 1.348 . S
C1173 C1171 1.356 . S
H1174 C1168 0.930 . S
H1175 C1172 0.930 . S
C1176 C1178 1.348 . S
C1176 C1179 1.356 . S
C1176 O1206 1.325 . S
N1177 C1180 1.314 . S
N1177 C1181 1.279 . S
C1178 C1176 1.348 . S
C1178 C1180 1.353 . S
C1178 H1220 0.929 . S
C1179 C1176 1.356 . S
C1179 C1181 1.358 . S
C1179 H1221 0.930 . S
C1180 N1177 1.314 . S
C1180 C1178 1.353 . S
C1180 H1222 0.930 . S
C1181 N1177 1.279 . S
C1181 C1179 1.358 . S
C1181 H1223 0.930 . S
C1182 C1183 1.348 . S
C1182 C1184 1.356 . S
C1182 O1207 1.325 . S
C1183 C1182 1.348 . S
C1183 C1185 1.353 . S
C1183 H1224 0.929 . S
C1184 C1182 1.356 . S
C1184 C1186 1.358 . S
C1184 H1225 0.930 . S
C1185 C1183 1.353 . S
C1185 N1187 1.314 . S
C1185 H1226 0.930 . S
C1186 C1184 1.358 . S
C1186 N1187 1.279 . S
C1186 H1227 0.930 . S
N1187 C1185 1.314 . S
N1187 C1186 1.279 . S
C1188 C1190 1.353 . S
C1188 N1191 1.314 . S
C1188 H1194 0.930 . S
C1189 N1191 1.279 . S
C1189 C1192 1.358 . S
C1189 H1195 0.930 . S
C1190 C1188 1.353 . S
C1190 C1193 1.348 . S
C1190 H1228 0.929 . S
N1191 Li1146 1.990 . S
N1191 C1188 1.314 . S
N1191 C1189 1.279 . S
C1192 C1189 1.358 . S
C1192 C1193 1.356 . S
C1192 H1229 0.930 . S
C1193 C1190 1.348 . S
C1193 C1192 1.356 . S
H1194 C1188 0.930 . S
H1195 C1189 0.930 . S
C1196 N1197 1.314 . S
C1196 C1198 1.353 . S
C1196 H1202 0.930 . S
N1197 Li1147 1.990 . S
N1197 C1196 1.314 . S
N1197 C1200 1.279 . S
C1198 C1196 1.353 . S
C1198 C1201 1.348 . S
C1198 H1230 0.929 . S
C1199 C1200 1.358 . S
C1199 C1201 1.356 . S
C1199 H1231 0.930 . S
C1200 N1197 1.279 . S
C1200 C1199 1.358 . S
C1200 H1203 0.930 . S
C1201 C1198 1.348 . S
C1201 C1199 1.356 . S
H1202 C1196 0.930 . S
H1203 C1200 0.930 . S
O1204 Li1144 1.956 . S
O1204 Li1145 1.970 . S
O1204 Li1146 1.961 . S
O1204 C1148 1.325 . S
O1205 Li1144 1.970 . S
O1205 Li1145 1.956 . S
O1205 Li1147 1.961 . S
O1205 C1154 1.325 . S
O1206 Li1144 1.961 . S
O1206 Li1146 1.956 . S
O1206 Li1147 1.970 . S
O1206 C1176 1.325 . S
O1207 Li1145 1.961 . S
O1207 Li1146 1.970 . S
O1207 Li1147 1.956 . S
O1207 C1182 1.325 . S
H1208 C1150 0.929 . S
H1209 C1151 0.937 1_655 S
H1210 C1152 0.930 . S
H1211 C1153 0.930 . S
H1212 C1155 0.930 . S
H1213 C1157 0.929 . S
H1214 C1158 0.930 . S
H1215 C1159 0.930 . S
H1216 C1162 0.930 . S
H1217 C1165 0.929 . S
H1218 C1170 0.929 . S
H1219 C1171 0.930 . S
H1220 C1178 0.929 . S
H1221 C1179 0.930 . S
H1222 C1180 0.930 . S
H1223 C1181 0.930 . S
H1224 C1183 0.929 . S
H1225 C1184 0.930 . S
H1226 C1185 0.930 . S
H1227 C1186 0.930 . S
H1228 C1190 0.929 . S
H1229 C1192 0.930 . S
H1230 C1198 0.929 . S
H1231 C1199 0.930 . S
Li1232 N1249 1.990 . S
Li1232 O1292 1.956 . S
Li1232 O1293 1.970 . S
Li1232 O1294 1.961 . S
Li1233 N1257 1.990 . S
Li1233 O1292 1.970 . S
Li1233 O1293 1.956 . S
Li1233 O1295 1.961 . S
Li1234 N1279 1.990 . S
Li1234 O1292 1.961 . S
Li1234 O1294 1.956 . S
Li1234 O1295 1.970 . S
Li1235 N1285 1.990 . S
Li1235 O1293 1.961 . S
Li1235 O1294 1.970 . S
Li1235 O1295 1.956 . S
C1236 C1238 1.348 . S
C1236 C1239 1.356 . S
C1236 O1292 1.325 . S
N1237 C1240 1.314 . S
N1237 C1241 1.279 . S
C1238 C1236 1.348 . S
C1238 C1240 1.353 . S
C1238 H1296 0.929 . S
C1239 C1236 1.356 . S
C1239 C1241 1.358 . S
C1239 H1297 0.930 . S
C1240 N1237 1.314 . S
C1240 C1238 1.353 . S
C1240 H1298 0.930 . S
C1241 N1237 1.279 . S
C1241 C1239 1.358 . S
C1241 H1299 0.930 . S
C1242 C1245 1.348 . S
C1242 C1246 1.356 . S
C1242 O1293 1.325 . S
C1243 N1244 1.279 . S
C1243 C1246 1.358 . S
C1243 H1300 0.930 . S
N1244 C1243 1.279 . S
N1244 C1247 1.314 . S
C1245 C1242 1.348 . S
C1245 C1247 1.353 . S
C1245 H1301 0.929 . S
C1246 C1242 1.356 . S
C1246 C1243 1.358 . S
C1246 H1302 0.930 . S
C1247 N1244 1.314 . S
C1247 C1245 1.353 . S
C1247 H1303 0.930 . S
C1248 N1249 1.314 . S
C1248 C1253 1.353 . S
C1248 H1254 0.930 . S
N1249 Li1232 1.990 . S
N1249 C1248 1.314 . S
N1249 C1251 1.279 . S
C1250 C1251 1.358 . S
C1250 C1252 1.356 . S
C1250 H1304 0.930 . S
C1251 N1249 1.279 . S
C1251 C1250 1.358 . S
C1251 H1255 0.930 . S
C1252 C1250 1.356 . S
C1252 C1253 1.348 . S
C1253 C1248 1.353 . S
C1253 C1252 1.348 . S
C1253 H1305 0.929 . S
H1254 C1248 0.930 . S
H1255 C1251 0.930 . S
C1256 N1257 1.314 . S
C1256 C1258 1.353 . S
C1256 H1262 0.930 . S
N1257 Li1233 1.990 . S
N1257 C1256 1.314 . S
N1257 C1260 1.279 . S
C1258 C1256 1.353 . S
C1258 C1261 1.348 . S
C1258 H1306 0.929 . S
C1259 C1260 1.358 . S
C1259 C1261 1.356 . S
C1259 H1307 0.930 . S
C1260 N1257 1.279 . S
C1260 C1259 1.358 . S
C1260 H1263 0.930 . S
C1261 C1258 1.348 . S
C1261 C1259 1.356 . S
H1262 C1256 0.930 . S
H1263 C1260 0.930 . S
C1264 C1266 1.348 . S
C1264 C1267 1.356 . S
C1264 O1294 1.325 . S
N1265 C1268 1.314 . S
N1265 C1269 1.279 . S
C1266 C1264 1.348 . S
C1266 C1268 1.353 . S
C1266 H1308 0.929 . S
C1267 C1264 1.356 . S
C1267 C1269 1.358 . S
C1267 H1309 0.930 . S
C1268 N1265 1.314 . S
C1268 C1266 1.353 . S
C1268 H1310 0.930 . S
C1269 N1265 1.279 . S
C1269 C1267 1.358 . S
C1269 H1311 0.930 . S
C1270 C1271 1.348 . S
C1270 C1272 1.356 . S
C1270 O1295 1.325 . S
C1271 C1270 1.348 . S
C1271 C1273 1.353 . S
C1271 H1312 0.929 . S
C1272 C1270 1.356 . S
C1272 C1274 1.358 . S
C1272 H1313 0.930 . S
C1273 C1271 1.353 . S
C1273 N1275 1.314 . S
C1273 H1314 0.930 . S
C1274 C1272 1.358 . S
C1274 N1275 1.279 . S
C1274 H1315 0.930 . S
N1275 C1273 1.314 . S
N1275 C1274 1.279 . S
C1276 C1278 1.353 . S
C1276 N1279 1.314 . S
C1276 H1282 0.930 . S
C1277 N1279 1.279 . S
C1277 C1280 1.358 . S
C1277 H1283 0.930 . S
C1278 C1276 1.353 . S
C1278 C1281 1.348 . S
C1278 H1316 0.929 . S
N1279 Li1234 1.990 . S
N1279 C1276 1.314 . S
N1279 C1277 1.279 . S
C1280 C1277 1.358 . S
C1280 C1281 1.356 . S
C1280 H1317 0.930 . S
C1281 C1278 1.348 . S
C1281 C1280 1.356 . S
H1282 C1276 0.930 . S
H1283 C1277 0.930 . S
C1284 N1285 1.314 . S
C1284 C1286 1.353 . S
C1284 H1290 0.930 . S
N1285 Li1235 1.990 . S
N1285 C1284 1.314 . S
N1285 C1288 1.279 . S
C1286 C1284 1.353 . S
C1286 C1289 1.348 . S
C1286 H1318 0.929 . S
C1287 C1288 1.358 . S
C1287 C1289 1.356 . S
C1287 H1319 0.930 . S
C1288 N1285 1.279 . S
C1288 C1287 1.358 . S
C1288 H1291 0.930 . S
C1289 C1286 1.348 . S
C1289 C1287 1.356 . S
H1290 C1284 0.930 . S
H1291 C1288 0.930 . S
O1292 Li1232 1.956 . S
O1292 Li1233 1.970 . S
O1292 Li1234 1.961 . S
O1292 C1236 1.325 . S
O1293 Li1232 1.970 . S
O1293 Li1233 1.956 . S
O1293 Li1235 1.961 . S
O1293 C1242 1.325 . S
O1294 Li1232 1.961 . S
O1294 Li1234 1.956 . S
O1294 Li1235 1.970 . S
O1294 C1264 1.325 . S
O1295 Li1233 1.961 . S
O1295 Li1234 1.970 . S
O1295 Li1235 1.956 . S
O1295 C1270 1.325 . S
H1296 C1238 0.929 . S
H1297 C1239 0.930 . S
H1298 C1240 0.930 . S
H1299 C1241 0.930 . S
H1300 C1243 0.930 . S
H1301 C1245 0.929 . S
H1302 C1246 0.930 . S
H1303 C1247 0.930 . S
H1304 C1250 0.930 . S
H1305 C1253 0.929 . S
H1306 C1258 0.929 . S
H1307 C1259 0.930 . S
H1308 C1266 0.929 . S
H1309 C1267 0.930 . S
H1310 C1268 0.930 . S
H1311 C1269 0.930 . S
H1312 C1271 0.929 . S
H1313 C1272 0.930 . S
H1314 C1273 0.930 . S
H1315 C1274 0.930 . S
H1316 C1278 0.929 . S
H1317 C1280 0.930 . S
H1318 C1286 0.929 . S
H1319 C1287 0.930 . S
Li1320 N1337 1.990 . S
Li1320 O1380 1.956 . S
Li1320 O1381 1.970 . S
Li1320 O1382 1.961 . S
Li1321 N1345 1.990 . S
Li1321 O1380 1.970 . S
Li1321 O1381 1.956 . S
Li1321 O1383 1.961 . S
Li1322 N1367 1.990 . S
Li1322 O1380 1.961 . S
Li1322 O1382 1.956 . S
Li1322 O1383 1.970 . S
Li1323 N1373 1.990 . S
Li1323 O1381 1.961 . S
Li1323 O1382 1.970 . S
Li1323 O1383 1.956 . S
C1324 C1326 1.348 . S
C1324 C1327 1.356 . S
C1324 O1380 1.325 . S
N1325 C1328 1.314 . S
N1325 C1329 1.279 . S
C1326 C1324 1.348 . S
C1326 C1328 1.353 . S
C1326 H1384 0.929 . S
C1327 C1324 1.356 . S
C1327 C1329 1.358 . S
C1327 H1385 0.930 . S
C1328 N1325 1.314 . S
C1328 C1326 1.353 . S
C1328 H1386 0.930 . S
C1329 N1325 1.279 . S
C1329 C1327 1.358 . S
C1329 H1387 0.930 . S
C1330 C1333 1.348 . S
C1330 C1334 1.356 . S
C1330 O1381 1.325 . S
C1331 N1332 1.279 . S
C1331 C1334 1.358 . S
C1331 H1388 0.930 . S
N1332 C1331 1.279 . S
N1332 C1335 1.314 . S
C1333 C1330 1.348 . S
C1333 C1335 1.353 . S
C1333 H1389 0.929 . S
C1334 C1330 1.356 . S
C1334 C1331 1.358 . S
C1334 H1390 0.930 . S
C1335 N1332 1.314 . S
C1335 C1333 1.353 . S
C1335 H1391 0.930 . S
C1336 N1337 1.314 . S
C1336 C1341 1.353 . S
C1336 H1342 0.930 . S
N1337 Li1320 1.990 . S
N1337 C1336 1.314 . S
N1337 C1339 1.279 . S
C1338 C1339 1.358 . S
C1338 C1340 1.356 . S
C1338 H1392 0.930 . S
C1339 N1337 1.279 . S
C1339 C1338 1.358 . S
C1339 H1343 0.930 . S
C1340 C1338 1.356 . S
C1340 C1341 1.348 . S
C1341 C1336 1.353 . S
C1341 C1340 1.348 . S
C1341 H1393 0.929 . S
H1342 C1336 0.930 . S
H1343 C1339 0.930 . S
C1344 N1345 1.314 . S
C1344 C1346 1.353 . S
C1344 H1350 0.930 . S
N1345 Li1321 1.990 . S
N1345 C1344 1.314 . S
N1345 C1348 1.279 . S
C1346 C1344 1.353 . S
C1346 C1349 1.348 . S
C1346 H1394 0.929 . S
C1347 C1348 1.358 . S
C1347 C1349 1.356 . S
C1347 H1395 0.930 . S
C1348 N1345 1.279 . S
C1348 C1347 1.358 . S
C1348 H1351 0.930 . S
C1349 C1346 1.348 . S
C1349 C1347 1.356 . S
H1350 C1344 0.930 . S
H1351 C1348 0.930 . S
C1352 C1354 1.348 . S
C1352 C1355 1.356 . S
C1352 O1382 1.325 . S
N1353 C1356 1.314 . S
N1353 C1357 1.279 . S
C1354 C1352 1.348 . S
C1354 C1356 1.353 . S
C1354 H1396 0.929 . S
C1355 C1352 1.356 . S
C1355 C1357 1.358 . S
C1355 H1397 0.930 . S
C1356 N1353 1.314 . S
C1356 C1354 1.353 . S
C1356 H1398 0.930 . S
C1357 N1353 1.279 . S
C1357 C1355 1.358 . S
C1357 H1399 0.930 . S
C1358 C1359 1.348 . S
C1358 C1360 1.356 . S
C1358 O1383 1.325 . S
C1359 C1358 1.348 . S
C1359 C1361 1.353 . S
C1359 H1400 0.929 . S
C1360 C1358 1.356 . S
C1360 C1362 1.358 . S
C1360 H1401 0.930 . S
C1361 C1359 1.353 . S
C1361 N1363 1.314 . S
C1361 H1402 0.930 . S
C1362 C1360 1.358 . S
C1362 N1363 1.279 . S
C1362 H1403 0.930 . S
N1363 C1361 1.314 . S
N1363 C1362 1.279 . S
C1364 C1366 1.353 . S
C1364 N1367 1.314 . S
C1364 H1370 0.930 . S
C1365 N1367 1.279 . S
C1365 C1368 1.358 . S
C1365 H1371 0.930 . S
C1366 C1364 1.353 . S
C1366 C1369 1.348 . S
C1366 H1404 0.929 . S
N1367 Li1322 1.990 . S
N1367 C1364 1.314 . S
N1367 C1365 1.279 . S
C1368 C1365 1.358 . S
C1368 C1369 1.356 . S
C1368 H1405 0.930 . S
C1369 C1366 1.348 . S
C1369 C1368 1.356 . S
H1370 C1364 0.930 . S
H1371 C1365 0.930 . S
C1372 N1373 1.314 . S
C1372 C1374 1.353 . S
C1372 H1378 0.930 . S
N1373 Li1323 1.990 . S
N1373 C1372 1.314 . S
N1373 C1376 1.279 . S
C1374 C1372 1.353 . S
C1374 C1377 1.348 . S
C1374 H1406 0.929 . S
C1375 C1376 1.358 . S
C1375 C1377 1.356 . S
C1375 H1407 0.930 . S
C1376 N1373 1.279 . S
C1376 C1375 1.358 . S
C1376 H1379 0.930 . S
C1377 C1374 1.348 . S
C1377 C1375 1.356 . S
H1378 C1372 0.930 . S
H1379 C1376 0.930 . S
O1380 Li1320 1.956 . S
O1380 Li1321 1.970 . S
O1380 Li1322 1.961 . S
O1380 C1324 1.325 . S
O1381 Li1320 1.970 . S
O1381 Li1321 1.956 . S
O1381 Li1323 1.961 . S
O1381 C1330 1.325 . S
O1382 Li1320 1.961 . S
O1382 Li1322 1.956 . S
O1382 Li1323 1.970 . S
O1382 C1352 1.325 . S
O1383 Li1321 1.961 . S
O1383 Li1322 1.970 . S
O1383 Li1323 1.956 . S
O1383 C1358 1.325 . S
H1384 C1326 0.929 . S
H1385 C1327 0.930 . S
H1386 C1328 0.930 . S
H1387 C1329 0.930 . S
H1388 C1331 0.930 . S
H1389 C1333 0.929 . S
H1390 C1334 0.930 . S
H1391 C1335 0.930 . S
H1392 C1338 0.930 . S
H1393 C1341 0.929 . S
H1394 C1346 0.929 . S
H1395 C1347 0.930 . S
H1396 C1354 0.929 . S
H1397 C1355 0.930 . S
H1398 C1356 0.930 . S
H1399 C1357 0.930 . S
H1400 C1359 0.929 . S
H1401 C1360 0.930 . S
H1402 C1361 0.930 . S
H1403 C1362 0.930 . S
H1404 C1366 0.929 . S
H1405 C1368 0.930 . S
H1406 C1374 0.929 . S
H1407 C1375 0.930 . S
Li1408 N1425 1.990 . S
Li1408 O1468 1.956 . S
Li1408 O1469 1.970 . S
Li1408 O1470 1.961 . S
Li1409 N1433 1.990 . S
Li1409 O1468 1.970 . S
Li1409 O1469 1.956 . S
Li1409 O1471 1.961 . S
Li1410 N1455 1.990 . S
Li1410 O1468 1.961 . S
Li1410 O1470 1.956 . S
Li1410 O1471 1.970 . S
Li1411 N1461 1.990 1_545 S
Li1411 O1469 1.961 . S
Li1411 O1470 1.970 . S
Li1411 O1471 1.956 . S
C1412 C1414 1.348 . S
C1412 C1415 1.356 . S
C1412 O1468 1.325 . S
N1413 C1416 1.314 . S
N1413 C1417 1.279 . S
C1414 C1412 1.348 . S
C1414 C1416 1.353 . S
C1414 H1472 0.929 . S
C1415 C1412 1.356 . S
C1415 C1417 1.358 . S
C1415 H1473 0.930 . S
C1416 N1413 1.314 . S
C1416 C1414 1.353 . S
C1416 H1474 0.930 . S
C1417 N1413 1.279 . S
C1417 C1415 1.358 . S
C1417 H1475 0.930 . S
C1418 C1421 1.348 . S
C1418 C1422 1.356 1_545 S
C1418 O1469 1.325 . S
C1419 N1420 1.279 . S
C1419 C1422 1.358 . S
C1419 H1476 0.930 . S
N1420 C1419 1.279 . S
N1420 C1423 1.314 . S
C1421 C1418 1.348 . S
C1421 C1423 1.353 1_545 S
C1421 H1477 0.929 . S
C1422 C1418 1.356 1_565 S
C1422 C1419 1.358 . S
C1422 H1478 0.930 . S
C1423 N1420 1.314 . S
C1423 C1421 1.353 1_565 S
C1423 H1479 0.930 . S
C1424 N1425 1.314 . S
C1424 C1429 1.353 . S
C1424 H1430 0.930 . S
N1425 Li1408 1.990 . S
N1425 C1424 1.314 . S
N1425 C1427 1.279 . S
C1426 C1427 1.358 . S
C1426 C1428 1.356 . S
C1426 H1480 0.930 . S
C1427 N1425 1.279 . S
C1427 C1426 1.358 . S
C1427 H1431 0.930 . S
C1428 C1426 1.356 . S
C1428 C1429 1.348 . S
C1429 C1424 1.353 . S
C1429 C1428 1.348 . S
C1429 H1481 0.929 1_545 S
H1430 C1424 0.930 . S
H1431 C1427 0.930 . S
C1432 N1433 1.314 . S
C1432 C1434 1.353 . S
C1432 H1438 0.930 . S
N1433 Li1409 1.990 . S
N1433 C1432 1.314 . S
N1433 C1436 1.279 . S
C1434 C1432 1.353 . S
C1434 C1437 1.348 . S
C1434 H1482 0.929 . S
C1435 C1436 1.358 . S
C1435 C1437 1.356 . S
C1435 H1483 0.930 . S
C1436 N1433 1.279 . S
C1436 C1435 1.358 . S
C1436 H1439 0.930 . S
C1437 C1434 1.348 . S
C1437 C1435 1.356 . S
H1438 C1432 0.930 . S
H1439 C1436 0.930 . S
C1440 C1442 1.331 1_545 S
C1440 C1443 1.356 . S
C1440 O1470 1.325 . S
N1441 C1444 1.264 1_545 S
N1441 C1445 1.333 . S
C1442 C1440 1.331 1_565 S
C1442 C1444 1.353 . S
C1442 H1484 0.947 . S
C1443 C1440 1.356 . S
C1443 C1445 1.358 . S
C1443 H1485 0.930 . S
C1444 N1441 1.264 1_565 S
C1444 C1442 1.353 . S
C1444 H1486 0.930 . S
C1445 N1441 1.333 . S
C1445 C1443 1.358 . S
C1445 H1487 0.930 . S
C1446 C1447 1.348 . S
C1446 C1448 1.356 . S
C1446 O1471 1.325 . S
C1447 C1446 1.348 . S
C1447 C1449 1.353 . S
C1447 H1488 0.929 . S
C1448 C1446 1.356 . S
C1448 C1450 1.358 . S
C1448 H1489 0.930 . S
C1449 C1447 1.353 . S
C1449 N1451 1.314 . S
C1449 H1490 0.930 . S
C1450 C1448 1.358 . S
C1450 N1451 1.279 . S
C1450 H1491 0.930 . S
N1451 C1449 1.314 . S
N1451 C1450 1.279 . S
C1452 C1454 1.353 . S
C1452 N1455 1.314 . S
C1452 H1458 0.930 . S
C1453 N1455 1.279 . S
C1453 C1456 1.358 . S
C1453 H1459 0.930 . S
C1454 C1452 1.353 . S
C1454 C1457 1.348 . S
C1454 H1492 0.929 . S
N1455 Li1410 1.990 . S
N1455 C1452 1.314 . S
N1455 C1453 1.279 . S
C1456 C1453 1.358 . S
C1456 C1457 1.356 . S
C1456 H1493 0.930 . S
C1457 C1454 1.348 . S
C1457 C1456 1.356 . S
H1458 C1452 0.930 . S
H1459 C1453 0.930 . S
C1460 N1461 1.314 . S
C1460 C1462 1.353 . S
C1460 H1466 0.930 . S
N1461 Li1411 1.990 1_565 S
N1461 C1460 1.314 . S
N1461 C1464 1.279 . S
C1462 C1460 1.353 . S
C1462 C1465 1.348 . S
C1462 H1494 0.929 . S
C1463 C1464 1.358 . S
C1463 C1465 1.356 . S
C1463 H1495 0.930 . S
C1464 N1461 1.279 . S
C1464 C1463 1.358 . S
C1464 H1467 0.930 . S
C1465 C1462 1.348 . S
C1465 C1463 1.356 . S
H1466 C1460 0.930 . S
H1467 C1464 0.930 . S
O1468 Li1408 1.956 . S
O1468 Li1409 1.970 . S
O1468 Li1410 1.961 . S
O1468 C1412 1.325 . S
O1469 Li1408 1.970 . S
O1469 Li1409 1.956 . S
O1469 Li1411 1.961 . S
O1469 C1418 1.325 . S
O1470 Li1408 1.961 . S
O1470 Li1410 1.956 . S
O1470 Li1411 1.970 . S
O1470 C1440 1.325 . S
O1471 Li1409 1.961 . S
O1471 Li1410 1.970 . S
O1471 Li1411 1.956 . S
O1471 C1446 1.325 . S
H1472 C1414 0.929 . S
H1473 C1415 0.930 . S
H1474 C1416 0.930 . S
H1475 C1417 0.930 . S
H1476 C1419 0.930 . S
H1477 C1421 0.929 . S
H1478 C1422 0.930 . S
H1479 C1423 0.930 . S
H1480 C1426 0.930 . S
H1481 C1429 0.929 1_565 S
H1482 C1434 0.929 . S
H1483 C1435 0.930 . S
H1484 C1442 0.947 . S
H1485 C1443 0.930 . S
H1486 C1444 0.930 . S
H1487 C1445 0.930 . S
H1488 C1447 0.929 . S
H1489 C1448 0.930 . S
H1490 C1449 0.930 . S
H1491 C1450 0.930 . S
H1492 C1454 0.929 . S
H1493 C1456 0.930 . S
H1494 C1462 0.929 . S
H1495 C1463 0.930 . S
Li1496 N1513 1.990 . S
Li1496 O1556 1.956 . S
Li1496 O1557 1.970 . S
Li1496 O1558 1.961 . S
Li1497 N1521 1.990 . S
Li1497 O1556 1.970 . S
Li1497 O1557 1.956 . S
Li1497 O1559 1.961 . S
Li1498 N1543 1.990 1_655 S
Li1498 O1556 1.961 . S
Li1498 O1558 1.956 . S
Li1498 O1559 1.970 . S
Li1499 N1549 1.990 . S
Li1499 O1557 1.961 . S
Li1499 O1558 1.970 . S
Li1499 O1559 1.956 . S
C1500 C1502 1.348 . S
C1500 C1503 1.356 1_655 S
C1500 O1556 1.325 . S
N1501 C1504 1.314 . S
N1501 C1505 1.279 . S
C1502 C1500 1.348 . S
C1502 C1504 1.353 1_655 S
C1502 H1560 0.929 . S
C1503 C1500 1.356 1_455 S
C1503 C1505 1.358 . S
C1503 H1561 0.930 . S
C1504 N1501 1.314 . S
C1504 C1502 1.353 1_455 S
C1504 H1562 0.930 . S
C1505 N1501 1.279 . S
C1505 C1503 1.358 . S
C1505 H1563 0.930 . S
C1506 C1509 1.348 . S
C1506 C1510 1.356 . S
C1506 O1557 1.325 . S
C1507 N1508 1.279 . S
C1507 C1510 1.358 . S
C1507 H1564 0.930 . S
N1508 C1507 1.279 . S
N1508 C1511 1.314 . S
C1509 C1506 1.348 . S
C1509 C1511 1.353 . S
C1509 H1565 0.929 . S
C1510 C1506 1.356 . S
C1510 C1507 1.358 . S
C1510 H1566 0.930 . S
C1511 N1508 1.314 . S
C1511 C1509 1.353 . S
C1511 H1567 0.930 . S
C1512 N1513 1.314 . S
C1512 C1517 1.353 . S
C1512 H1518 0.930 . S
N1513 Li1496 1.990 . S
N1513 C1512 1.314 . S
N1513 C1515 1.279 . S
C1514 C1515 1.358 . S
C1514 C1516 1.356 . S
C1514 H1568 0.930 . S
C1515 N1513 1.279 . S
C1515 C1514 1.358 . S
C1515 H1519 0.930 . S
C1516 C1514 1.356 . S
C1516 C1517 1.348 . S
C1517 C1512 1.353 . S
C1517 C1516 1.348 . S
C1517 H1569 0.929 . S
H1518 C1512 0.930 . S
H1519 C1515 0.930 . S
C1520 N1521 1.314 . S
C1520 C1522 1.353 . S
C1520 H1526 0.930 . S
N1521 Li1497 1.990 . S
N1521 C1520 1.314 . S
N1521 C1524 1.279 . S
C1522 C1520 1.353 . S
C1522 C1525 1.348 . S
C1522 H1570 0.850 1_655 S
C1523 C1524 1.358 . S
C1523 C1525 1.356 . S
C1523 H1571 0.930 . S
C1524 N1521 1.279 . S
C1524 C1523 1.358 . S
C1524 H1527 0.930 . S
C1525 C1522 1.348 . S
C1525 C1523 1.356 . S
H1526 C1520 0.930 . S
H1527 C1524 0.930 . S
C1528 C1530 1.348 . S
C1528 C1531 1.356 . S
C1528 O1558 1.325 . S
N1529 C1532 1.314 . S
N1529 C1533 1.279 . S
C1530 C1528 1.348 . S
C1530 C1532 1.353 . S
C1530 H1572 0.929 . S
C1531 C1528 1.356 . S
C1531 C1533 1.358 . S
C1531 H1573 0.930 . S
C1532 N1529 1.314 . S
C1532 C1530 1.353 . S
C1532 H1574 0.930 . S
C1533 N1529 1.279 . S
C1533 C1531 1.358 . S
C1533 H1575 0.930 . S
C1534 C1535 1.341 1_655 S
C1534 C1536 1.356 . S
C1534 O1559 1.325 . S
C1535 C1534 1.341 1_455 S
C1535 C1537 1.361 . S
C1535 H1576 0.928 . S
C1536 C1534 1.356 . S
C1536 C1538 1.358 . S
C1536 H1577 0.930 . S
C1537 C1535 1.361 . S
C1537 N1539 1.324 1_455 S
C1537 H1578 0.930 . S
C1538 C1536 1.358 . S
C1538 N1539 1.316 . S
C1538 H1579 0.930 . S
N1539 C1537 1.324 1_655 S
N1539 C1538 1.316 . S
C1540 C1542 1.353 . S
C1540 N1543 1.314 . S
C1540 H1546 0.930 . S
C1541 N1543 1.279 . S
C1541 C1544 1.358 . S
C1541 H1547 0.930 . S
C1542 C1540 1.353 . S
C1542 C1545 1.348 . S
C1542 H1580 0.929 . S
N1543 Li1498 1.990 1_455 S
N1543 C1540 1.314 . S
N1543 C1541 1.279 . S
C1544 C1541 1.358 . S
C1544 C1545 1.356 . S
C1544 H1581 0.930 . S
C1545 C1542 1.348 . S
C1545 C1544 1.356 . S
H1546 C1540 0.930 . S
H1547 C1541 0.930 . S
C1548 N1549 1.314 . S
C1548 C1550 1.353 . S
C1548 H1554 0.930 . S
N1549 Li1499 1.990 . S
N1549 C1548 1.314 . S
N1549 C1552 1.279 . S
C1550 C1548 1.353 . S
C1550 C1553 1.348 . S
C1550 H1582 0.929 . S
C1551 C1552 1.358 . S
C1551 C1553 1.356 . S
C1551 H1583 0.930 . S
C1552 N1549 1.279 . S
C1552 C1551 1.358 . S
C1552 H1555 0.930 . S
C1553 C1550 1.348 . S
C1553 C1551 1.356 . S
H1554 C1548 0.930 . S
H1555 C1552 0.930 . S
O1556 Li1496 1.956 . S
O1556 Li1497 1.970 . S
O1556 Li1498 1.961 . S
O1556 C1500 1.325 . S
O1557 Li1496 1.970 . S
O1557 Li1497 1.956 . S
O1557 Li1499 1.961 . S
O1557 C1506 1.325 . S
O1558 Li1496 1.961 . S
O1558 Li1498 1.956 . S
O1558 Li1499 1.970 . S
O1558 C1528 1.325 . S
O1559 Li1497 1.961 . S
O1559 Li1498 1.970 . S
O1559 Li1499 1.956 . S
O1559 C1534 1.325 . S
H1560 C1502 0.929 . S
H1561 C1503 0.930 . S
H1562 C1504 0.930 . S
H1563 C1505 0.930 . S
H1564 C1507 0.930 . S
H1565 C1509 0.929 . S
H1566 C1510 0.930 . S
H1567 C1511 0.930 . S
H1568 C1514 0.930 . S
H1569 C1517 0.929 . S
H1570 C1522 0.850 1_455 S
H1571 C1523 0.930 . S
H1572 C1530 0.929 . S
H1573 C1531 0.930 . S
H1574 C1532 0.930 . S
H1575 C1533 0.930 . S
H1576 C1535 0.928 . S
H1577 C1536 0.930 . S
H1578 C1537 0.930 . S
H1579 C1538 0.930 . S
H1580 C1542 0.929 . S
H1581 C1544 0.930 . S
H1582 C1550 0.929 . S
H1583 C1551 0.930 . S
H1584 C1590 0.930 . S
H1585 C1593 0.931 . S
H1586 C1595 0.931 . S
H1587 C1597 0.930 . S
H1588 C1599 0.930 . S
H1589 C1601 0.931 . S
C1590 H1584 0.930 . S
C1590 C1591 1.380 . S
C1590 C1592 1.394 . S
C1591 C1590 1.380 . S
C1591 C1595 1.382 . S
C1592 C1590 1.394 . S
C1592 C1593 1.400 . S
C1593 H1585 0.931 . S
C1593 C1592 1.400 . S
C1593 C1594 1.375 . S
C1594 C1593 1.375 . S
C1594 C1595 1.415 . S
C1594 C1596 1.501 . S
C1595 H1586 0.931 . S
C1595 C1591 1.382 . S
C1595 C1594 1.415 . S
C1596 C1594 1.501 . S
C1596 C1597 1.384 . S
C1596 C1601 1.408 . S
C1597 H1587 0.930 . S
C1597 C1596 1.384 . S
C1597 C1598 1.389 . S
C1598 C1597 1.389 . S
C1598 C1599 1.405 . S
C1599 H1588 0.930 . S
C1599 C1598 1.405 . S
C1599 C1600 1.364 . S
C1600 C1599 1.364 . S
C1600 C1601 1.400 . S
C1601 H1589 0.931 . S
C1601 C1596 1.408 . S
C1601 C1600 1.400 . S
H1602 C1608 0.930 . S
H1603 C1611 0.931 . S
H1604 C1613 0.931 . S
H1605 C1615 0.930 . S
H1606 C1617 0.930 . S
H1607 C1619 0.931 . S
C1608 H1602 0.930 . S
C1608 C1609 1.380 . S
C1608 C1610 1.394 . S
C1609 C1608 1.380 . S
C1609 C1613 1.382 . S
C1610 C1608 1.394 . S
C1610 C1611 1.400 . S
C1611 H1603 0.931 . S
C1611 C1610 1.400 . S
C1611 C1612 1.375 . S
C1612 C1611 1.375 . S
C1612 C1613 1.415 . S
C1612 C1614 1.501 . S
C1613 H1604 0.931 . S
C1613 C1609 1.382 . S
C1613 C1612 1.415 . S
C1614 C1612 1.501 . S
C1614 C1615 1.384 . S
C1614 C1619 1.408 . S
C1615 H1605 0.930 . S
C1615 C1614 1.384 . S
C1615 C1616 1.389 . S
C1616 C1615 1.389 . S
C1616 C1617 1.405 . S
C1617 H1606 0.930 . S
C1617 C1616 1.405 . S
C1617 C1618 1.364 . S
C1618 C1617 1.364 . S
C1618 C1619 1.400 . S
C1619 H1607 0.931 . S
C1619 C1614 1.408 . S
C1619 C1618 1.400 . S
H1620 C1626 0.930 . S
H1621 C1629 0.931 . S
H1622 C1631 0.931 . S
H1623 C1633 0.930 . S
H1624 C1635 0.930 . S
H1625 C1637 0.931 . S
C1626 H1620 0.930 . S
C1626 C1627 1.380 . S
C1626 C1628 1.394 . S
C1627 C1626 1.380 . S
C1627 C1631 1.382 . S
C1628 C1626 1.394 . S
C1628 C1629 1.400 . S
C1629 H1621 0.931 . S
C1629 C1628 1.400 . S
C1629 C1630 1.375 . S
C1630 C1629 1.375 . S
C1630 C1631 1.415 . S
C1630 C1632 1.501 . S
C1631 H1622 0.931 . S
C1631 C1627 1.382 . S
C1631 C1630 1.415 . S
C1632 C1630 1.501 . S
C1632 C1633 1.384 . S
C1632 C1637 1.408 . S
C1633 H1623 0.930 . S
C1633 C1632 1.384 . S
C1633 C1634 1.389 . S
C1634 C1633 1.389 . S
C1634 C1635 1.405 . S
C1635 H1624 0.930 . S
C1635 C1634 1.405 . S
C1635 C1636 1.364 . S
C1636 C1635 1.364 . S
C1636 C1637 1.400 . S
C1637 H1625 0.931 . S
C1637 C1632 1.408 . S
C1637 C1636 1.400 . S
H1638 C1644 0.930 . S
H1639 C1647 0.931 . S
H1640 C1649 0.931 . S
H1641 C1651 0.930 . S
H1642 C1653 0.930 . S
H1643 C1655 0.931 . S
C1644 H1638 0.930 . S
C1644 C1645 1.380 . S
C1644 C1646 1.394 . S
C1645 C1644 1.380 . S
C1645 C1649 1.382 . S
C1646 C1644 1.394 . S
C1646 C1647 1.400 . S
C1647 H1639 0.931 . S
C1647 C1646 1.400 . S
C1647 C1648 1.375 . S
C1648 C1647 1.375 . S
C1648 C1649 1.415 . S
C1648 C1650 1.501 . S
C1649 H1640 0.931 . S
C1649 C1645 1.382 . S
C1649 C1648 1.415 . S
C1650 C1648 1.501 . S
C1650 C1651 1.384 . S
C1650 C1655 1.408 . S
C1651 H1641 0.930 . S
C1651 C1650 1.384 . S
C1651 C1652 1.389 . S
C1652 C1651 1.389 . S
C1652 C1653 1.405 . S
C1653 H1642 0.930 . S
C1653 C1652 1.405 . S
C1653 C1654 1.364 . S
C1654 C1653 1.364 . S
C1654 C1655 1.400 . S
C1655 H1643 0.931 . S
C1655 C1650 1.408 . S
C1655 C1654 1.400 . S
H1656 C1662 0.930 . S
H1657 C1665 0.931 . S
H1658 C1667 0.931 . S
H1659 C1669 0.930 . S
H1660 C1671 0.930 . S
H1661 C1673 0.931 . S
C1662 H1656 0.930 . S
C1662 C1663 1.380 . S
C1662 C1664 1.394 . S
C1663 C1662 1.380 . S
C1663 C1667 1.382 . S
C1664 C1662 1.394 . S
C1664 C1665 1.400 . S
C1665 H1657 0.931 . S
C1665 C1664 1.400 . S
C1665 C1666 1.375 . S
C1666 C1665 1.375 . S
C1666 C1667 1.415 . S
C1666 C1668 1.501 . S
C1667 H1658 0.931 . S
C1667 C1663 1.382 . S
C1667 C1666 1.415 . S
C1668 C1666 1.501 . S
C1668 C1669 1.384 . S
C1668 C1673 1.408 . S
C1669 H1659 0.930 . S
C1669 C1668 1.384 . S
C1669 C1670 1.389 . S
C1670 C1669 1.389 . S
C1670 C1671 1.405 . S
C1671 H1660 0.930 . S
C1671 C1670 1.405 . S
C1671 C1672 1.364 . S
C1672 C1671 1.364 . S
C1672 C1673 1.400 . S
C1673 H1661 0.931 . S
C1673 C1668 1.408 . S
C1673 C1672 1.400 . S
H1674 C1680 0.930 . S
H1675 C1683 0.931 . S
H1676 C1685 0.931 . S
H1677 C1687 0.930 . S
H1678 C1689 0.930 . S
H1679 C1691 0.931 . S
C1680 H1674 0.930 . S
C1680 C1681 1.380 . S
C1680 C1682 1.394 . S
C1681 C1680 1.380 . S
C1681 C1685 1.382 . S
C1682 C1680 1.394 . S
C1682 C1683 1.400 . S
C1683 H1675 0.931 . S
C1683 C1682 1.400 . S
C1683 C1684 1.375 . S
C1684 C1683 1.375 . S
C1684 C1685 1.415 . S
C1684 C1686 1.501 . S
C1685 H1676 0.931 . S
C1685 C1681 1.382 . S
C1685 C1684 1.415 . S
C1686 C1684 1.501 . S
C1686 C1687 1.384 . S
C1686 C1691 1.408 . S
C1687 H1677 0.930 . S
C1687 C1686 1.384 . S
C1687 C1688 1.389 . S
C1688 C1687 1.389 . S
C1688 C1689 1.405 . S
C1689 H1678 0.930 . S
C1689 C1688 1.405 . S
C1689 C1690 1.364 . S
C1690 C1689 1.364 . S
C1690 C1691 1.400 . S
C1691 H1679 0.931 . S
C1691 C1686 1.408 . S
C1691 C1690 1.400 . S
H1692 C1698 0.930 . S
H1693 C1701 0.931 . S
H1694 C1703 0.931 . S
H1695 C1705 0.930 . S
H1696 C1707 0.930 . S
H1697 C1709 0.931 . S
C1698 H1692 0.930 . S
C1698 C1699 1.380 . S
C1698 C1700 1.394 . S
C1699 C1698 1.380 . S
C1699 C1703 1.382 . S
C1700 C1698 1.394 . S
C1700 C1701 1.400 . S
C1701 H1693 0.931 . S
C1701 C1700 1.400 . S
C1701 C1702 1.375 . S
C1702 C1701 1.375 . S
C1702 C1703 1.415 . S
C1702 C1704 1.501 . S
C1703 H1694 0.931 . S
C1703 C1699 1.382 . S
C1703 C1702 1.415 . S
C1704 C1702 1.501 . S
C1704 C1705 1.384 . S
C1704 C1709 1.408 . S
C1705 H1695 0.930 . S
C1705 C1704 1.384 . S
C1705 C1706 1.389 . S
C1706 C1705 1.389 . S
C1706 C1707 1.405 . S
C1707 H1696 0.930 . S
C1707 C1706 1.405 . S
C1707 C1708 1.364 . S
C1708 C1707 1.364 . S
C1708 C1709 1.400 . S
C1709 H1697 0.931 . S
C1709 C1704 1.408 . S
C1709 C1708 1.400 . S
H1710 C1716 0.930 . S
H1711 C1719 0.931 . S
H1712 C1721 0.931 . S
H1713 C1723 0.930 . S
H1714 C1725 0.930 . S
H1715 C1727 0.931 . S
C1716 H1710 0.930 . S
C1716 C1717 1.380 . S
C1716 C1718 1.394 . S
C1717 C1716 1.380 . S
C1717 C1721 1.382 . S
C1718 C1716 1.394 . S
C1718 C1719 1.400 . S
C1719 H1711 0.931 . S
C1719 C1718 1.400 . S
C1719 C1720 1.375 . S
C1720 C1719 1.375 . S
C1720 C1721 1.415 . S
C1720 C1722 1.501 . S
C1721 H1712 0.931 . S
C1721 C1717 1.382 . S
C1721 C1720 1.415 . S
C1722 C1720 1.501 . S
C1722 C1723 1.384 . S
C1722 C1727 1.408 . S
C1723 H1713 0.930 . S
C1723 C1722 1.384 . S
C1723 C1724 1.389 . S
C1724 C1723 1.389 . S
C1724 C1725 1.405 . S
C1725 H1714 0.930 . S
C1725 C1724 1.405 . S
C1725 C1726 1.364 . S
C1726 C1725 1.364 . S
C1726 C1727 1.400 . S
C1727 H1715 0.931 . S
C1727 C1722 1.408 . S
C1727 C1726 1.400 . S
H1728 C1734 0.930 . S
H1729 C1737 0.931 . S
H1730 C1739 0.931 . S
H1731 C1741 0.930 . S
H1732 C1743 0.930 . S
H1733 C1745 0.931 . S
C1734 H1728 0.930 . S
C1734 C1735 1.380 . S
C1734 C1736 1.394 . S
C1735 C1734 1.380 . S
C1735 C1739 1.382 . S
C1736 C1734 1.394 . S
C1736 C1737 1.400 . S
C1737 H1729 0.931 . S
C1737 C1736 1.400 . S
C1737 C1738 1.375 . S
C1738 C1737 1.375 . S
C1738 C1739 1.415 . S
C1738 C1740 1.501 . S
C1739 H1730 0.931 . S
C1739 C1735 1.382 . S
C1739 C1738 1.415 . S
C1740 C1738 1.501 . S
C1740 C1741 1.384 . S
C1740 C1745 1.408 . S
C1741 H1731 0.930 . S
C1741 C1740 1.384 . S
C1741 C1742 1.389 . S
C1742 C1741 1.389 . S
C1742 C1743 1.405 . S
C1743 H1732 0.930 . S
C1743 C1742 1.405 . S
C1743 C1744 1.364 . S
C1744 C1743 1.364 . S
C1744 C1745 1.400 . S
C1745 H1733 0.931 . S
C1745 C1740 1.408 . S
C1745 C1744 1.400 . S
H1746 C1752 0.967 . S
H1747 C1755 0.931 . S
H1748 C1757 0.931 . S
H1749 C1759 0.930 . S
H1750 C1761 0.890 . S
H1751 C1763 0.941 . S
C1752 H1746 0.967 . S
C1752 C1753 1.384 . S
C1752 C1754 1.395 1_655 S
C1753 C1752 1.384 . S
C1753 C1757 1.382 . S
C1754 C1752 1.395 1_455 S
C1754 C1755 1.400 . S
C1755 H1747 0.931 . S
C1755 C1754 1.400 . S
C1755 C1756 1.375 . S
C1756 C1755 1.375 . S
C1756 C1757 1.415 1_455 S
C1756 C1758 1.501 . S
C1757 H1748 0.931 . S
C1757 C1753 1.382 . S
C1757 C1756 1.415 1_655 S
C1758 C1756 1.501 . S
C1758 C1759 1.384 . S
C1758 C1763 1.425 . S
C1759 H1749 0.930 . S
C1759 C1758 1.384 . S
C1759 C1760 1.436 . S
C1760 C1759 1.436 . S
C1760 C1761 1.406 . S
C1761 H1750 0.890 . S
C1761 C1760 1.406 . S
C1761 C1762 1.377 . S
C1762 C1761 1.377 . S
C1762 C1763 1.393 . S
C1763 H1751 0.941 . S
C1763 C1758 1.425 . S
C1763 C1762 1.393 . S
H1764 C1770 0.930 . S
H1765 C1773 0.931 . S
H1766 C1775 0.931 . S
H1767 C1777 0.930 . S
H1768 C1779 0.930 . S
H1769 C1781 0.931 . S
C1770 H1764 0.930 . S
C1770 C1771 1.380 . S
C1770 C1772 1.394 . S
C1771 C1770 1.380 . S
C1771 C1775 1.382 . S
C1772 C1770 1.394 . S
C1772 C1773 1.400 . S
C1773 H1765 0.931 . S
C1773 C1772 1.400 . S
C1773 C1774 1.375 . S
C1774 C1773 1.375 . S
C1774 C1775 1.415 . S
C1774 C1776 1.501 . S
C1775 H1766 0.931 . S
C1775 C1771 1.382 . S
C1775 C1774 1.415 . S
C1776 C1774 1.501 . S
C1776 C1777 1.384 . S
C1776 C1781 1.408 . S
C1777 H1767 0.930 . S
C1777 C1776 1.384 . S
C1777 C1778 1.389 . S
C1778 C1777 1.389 . S
C1778 C1779 1.405 . S
C1779 H1768 0.930 . S
C1779 C1778 1.405 . S
C1779 C1780 1.364 . S
C1780 C1779 1.364 . S
C1780 C1781 1.400 . S
C1781 H1769 0.931 . S
C1781 C1776 1.408 . S
C1781 C1780 1.400 . S
H1782 C1788 0.885 . S
H1783 C1791 0.931 . S
H1784 C1793 0.931 . S
H1785 C1795 0.930 . S
H1786 C1797 0.991 . S
H1787 C1799 0.919 . S
C1788 H1782 0.885 . S
C1788 C1789 1.377 . S
C1788 C1790 1.384 1_545 S
C1789 C1788 1.377 . S
C1789 C1793 1.382 . S
C1790 C1788 1.384 1_565 S
C1790 C1791 1.400 . S
C1791 H1783 0.931 . S
C1791 C1790 1.400 . S
C1791 C1792 1.375 . S
C1792 C1791 1.375 . S
C1792 C1793 1.415 1_565 S
C1792 C1794 1.501 . S
C1793 H1784 0.931 . S
C1793 C1789 1.382 . S
C1793 C1792 1.415 1_545 S
C1794 C1792 1.501 . S
C1794 C1795 1.384 . S
C1794 C1799 1.396 . S
C1795 H1785 0.930 . S
C1795 C1794 1.384 . S
C1795 C1796 1.345 . S
C1796 C1795 1.345 . S
C1796 C1797 1.403 . S
C1797 H1786 0.991 . S
C1797 C1796 1.403 . S
C1797 C1798 1.350 . S
C1798 C1797 1.350 . S
C1798 C1799 1.405 . S
C1799 H1787 0.919 . S
C1799 C1794 1.396 . S
C1799 C1798 1.405 . S
H1800 C1806 0.915 . S
H1801 C1809 0.931 . S
H1802 C1811 0.927 . S
H1803 C1813 0.930 . S
H1804 C1815 0.949 . S
H1805 C1817 0.931 . S
C1806 H1800 0.915 . S
C1806 C1807 1.387 . S
C1806 C1808 1.409 1_545 S
C1807 C1806 1.387 . S
C1807 C1811 1.396 1_545 S
C1808 C1806 1.409 1_565 S
C1808 C1809 1.385 . S
C1809 H1801 0.931 . S
C1809 C1808 1.385 . S
C1809 C1810 1.408 . S
C1810 C1809 1.408 . S
C1810 C1811 1.434 . S
C1810 C1812 1.503 . S
C1811 H1802 0.927 . S
C1811 C1807 1.396 1_565 S
C1811 C1810 1.434 . S
C1812 C1810 1.503 . S
C1812 C1813 1.374 . S
C1812 C1817 1.366 1_565 S
C1813 H1803 0.930 . S
C1813 C1812 1.374 . S
C1813 C1814 1.389 . S
C1814 C1813 1.389 . S
C1814 C1815 1.430 . S
C1815 H1804 0.949 . S
C1815 C1814 1.430 . S
C1815 C1816 1.372 1_565 S
C1816 C1815 1.372 1_545 S
C1816 C1817 1.400 . S
C1817 H1805 0.931 . S
C1817 C1812 1.366 1_545 S
C1817 C1816 1.400 . S
H1818 C1824 0.957 . S
H1819 C1827 0.931 . S
H1820 C1829 0.934 . S
H1821 C1831 0.930 . S
H1822 C1833 0.973 . S
H1823 C1835 0.931 . S
C1824 H1818 0.957 . S
C1824 C1825 1.373 . S
C1824 C1826 1.375 1_655 S
C1825 C1824 1.373 . S
C1825 C1829 1.364 1_655 S
C1826 C1824 1.375 1_455 S
C1826 C1827 1.414 . S
C1827 H1819 0.931 . S
C1827 C1826 1.414 . S
C1827 C1828 1.356 . S
C1828 C1827 1.356 . S
C1828 C1829 1.393 . S
C1828 C1830 1.495 . S
C1829 H1820 0.934 . S
C1829 C1825 1.364 1_455 S
C1829 C1828 1.393 . S
C1830 C1828 1.495 . S
C1830 C1831 1.429 . S
C1830 C1835 1.421 1_455 S
C1831 H1821 0.930 . S
C1831 C1830 1.429 . S
C1831 C1832 1.389 . S
C1832 C1831 1.389 . S
C1832 C1833 1.398 . S
C1833 H1822 0.973 . S
C1833 C1832 1.398 . S
C1833 C1834 1.334 1_455 S
C1834 C1833 1.334 1_655 S
C1834 C1835 1.400 . S
C1835 H1823 0.931 . S
C1835 C1830 1.421 1_655 S
C1835 C1834 1.400 . S
H1836 C1842 0.930 . S
H1837 C1845 0.931 . S
H1838 C1847 0.931 . S
H1839 C1849 0.930 . S
H1840 C1851 0.930 . S
H1841 C1853 0.931 . S
C1842 H1836 0.930 . S
C1842 C1843 1.380 . S
C1842 C1844 1.394 . S
C1843 C1842 1.380 . S
C1843 C1847 1.382 . S
C1844 C1842 1.394 . S
C1844 C1845 1.400 . S
C1845 H1837 0.931 . S
C1845 C1844 1.400 . S
C1845 C1846 1.375 . S
C1846 C1845 1.375 . S
C1846 C1847 1.415 . S
C1846 C1848 1.501 . S
C1847 H1838 0.931 . S
C1847 C1843 1.382 . S
C1847 C1846 1.415 . S
C1848 C1846 1.501 . S
C1848 C1849 1.384 . S
C1848 C1853 1.408 . S
C1849 H1839 0.930 . S
C1849 C1848 1.384 . S
C1849 C1850 1.389 . S
C1850 C1849 1.389 . S
C1850 C1851 1.405 . S
C1851 H1840 0.930 . S
C1851 C1850 1.405 . S
C1851 C1852 1.364 . S
C1852 C1851 1.364 . S
C1852 C1853 1.400 . S
C1853 H1841 0.931 . S
C1853 C1848 1.408 . S
C1853 C1852 1.400 . S
H1854 C1860 0.930 . S
H1855 C1863 0.931 . S
H1856 C1865 0.931 . S
H1857 C1867 0.930 . S
H1858 C1869 0.930 . S
H1859 C1871 0.931 . S
C1860 H1854 0.930 . S
C1860 C1861 1.380 . S
C1860 C1862 1.394 . S
C1861 C1860 1.380 . S
C1861 C1865 1.382 . S
C1862 C1860 1.394 . S
C1862 C1863 1.400 . S
C1863 H1855 0.931 . S
C1863 C1862 1.400 . S
C1863 C1864 1.375 . S
C1864 C1863 1.375 . S
C1864 C1865 1.415 . S
C1864 C1866 1.501 . S
C1865 H1856 0.931 . S
C1865 C1861 1.382 . S
C1865 C1864 1.415 . S
C1866 C1864 1.501 . S
C1866 C1867 1.384 . S
C1866 C1871 1.408 . S
C1867 H1857 0.930 . S
C1867 C1866 1.384 . S
C1867 C1868 1.389 . S
C1868 C1867 1.389 . S
C1868 C1869 1.405 . S
C1869 H1858 0.930 . S
C1869 C1868 1.405 . S
C1869 C1870 1.364 . S
C1870 C1869 1.364 . S
C1870 C1871 1.400 . S
C1871 H1859 0.931 . S
C1871 C1866 1.408 . S
C1871 C1870 1.400 . S
H1872 C1878 0.930 . S
H1873 C1881 0.931 . S
H1874 C1883 0.931 . S
H1875 C1885 0.930 . S
H1876 C1887 0.930 . S
H1877 C1889 0.931 . S
C1878 H1872 0.930 . S
C1878 C1879 1.380 . S
C1878 C1880 1.394 . S
C1879 C1878 1.380 . S
C1879 C1883 1.382 . S
C1880 C1878 1.394 . S
C1880 C1881 1.400 . S
C1881 H1873 0.931 . S
C1881 C1880 1.400 . S
C1881 C1882 1.375 . S
C1882 C1881 1.375 . S
C1882 C1883 1.415 . S
C1882 C1884 1.501 . S
C1883 H1874 0.931 . S
C1883 C1879 1.382 . S
C1883 C1882 1.415 . S
C1884 C1882 1.501 . S
C1884 C1885 1.384 . S
C1884 C1889 1.408 . S
C1885 H1875 0.930 . S
C1885 C1884 1.384 . S
C1885 C1886 1.389 . S
C1886 C1885 1.389 . S
C1886 C1887 1.405 . S
C1887 H1876 0.930 . S
C1887 C1886 1.405 . S
C1887 C1888 1.364 . S
C1888 C1887 1.364 . S
C1888 C1889 1.400 . S
C1889 H1877 0.931 . S
C1889 C1884 1.408 . S
C1889 C1888 1.400 . S
H1890 C1896 0.930 . S
H1891 C1899 0.931 . S
H1892 C1901 0.931 . S
H1893 C1903 0.930 . S
H1894 C1905 0.930 . S
H1895 C1907 0.931 . S
C1896 H1890 0.930 . S
C1896 C1897 1.380 . S
C1896 C1898 1.394 . S
C1897 C1896 1.380 . S
C1897 C1901 1.382 . S
C1898 C1896 1.394 . S
C1898 C1899 1.400 . S
C1899 H1891 0.931 . S
C1899 C1898 1.400 . S
C1899 C1900 1.375 . S
C1900 C1899 1.375 . S
C1900 C1901 1.415 . S
C1900 C1902 1.501 . S
C1901 H1892 0.931 . S
C1901 C1897 1.382 . S
C1901 C1900 1.415 . S
C1902 C1900 1.501 . S
C1902 C1903 1.384 . S
C1902 C1907 1.408 . S
C1903 H1893 0.930 . S
C1903 C1902 1.384 . S
C1903 C1904 1.389 . S
C1904 C1903 1.389 . S
C1904 C1905 1.405 . S
C1905 H1894 0.930 . S
C1905 C1904 1.405 . S
C1905 C1906 1.364 . S
C1906 C1905 1.364 . S
C1906 C1907 1.400 . S
C1907 H1895 0.931 . S
C1907 C1902 1.408 . S
C1907 C1906 1.400 . S
H1908 C1916 0.929 . S
H1909 C1918 0.930 1_455 S
H1910 C1920 0.930 . S
H1911 C1923 0.929 . S
H1912 C1926 0.930 . S
H1913 C1928 0.960 . S
H1914 C1928 0.960 . S
H1915 C1928 0.960 1_655 S
C1916 H1908 0.929 . S
C1916 C1917 1.377 . S
C1916 C1918 1.384 . S
C1917 C1916 1.377 . S
C1917 C1923 1.390 . S
C1918 H1909 0.930 1_655 S
C1918 C1916 1.384 . S
C1918 C1919 1.372 . S
C1919 C1918 1.372 . S
C1919 C1920 1.400 . S
C1919 C1924 1.490 . S
C1920 H1910 0.930 . S
C1920 C1919 1.400 . S
C1920 C1923 1.386 . S
H1921 C1937 0.930 . S
H1922 C1938 0.931 . S
C1923 H1911 0.929 . S
C1923 C1917 1.390 . S
C1923 C1920 1.386 . S
C1924 C1919 1.490 . S
C1924 C1926 1.395 . S
C1924 C1927 1.403 . S
H1925 C1931 0.930 1_455 S
C1926 H1912 0.930 . S
C1926 C1924 1.395 . S
C1926 C1929 1.403 . S
C1927 C1924 1.403 . S
C1927 C1928 1.524 1_655 S
C1927 C1931 1.400 . S
C1928 H1913 0.960 . S
C1928 H1914 0.960 . S
C1928 H1915 0.960 1_455 S
C1928 C1927 1.524 1_455 S
C1929 C1926 1.403 . S
C1929 C1930 1.392 . S
C1929 C1933 1.495 . S
C1930 C1929 1.392 . S
C1930 C1931 1.385 . S
C1930 C1932 1.478 . S
C1931 H1925 0.930 1_655 S
C1931 C1927 1.400 . S
C1931 C1930 1.385 . S
C1932 C1930 1.478 . S
C1932 C1934 1.377 1_655 S
C1932 C1938 1.383 . S
C1933 C1929 1.495 . S
C1933 H1939 0.959 . S
C1933 H1940 0.961 . S
C1933 H1941 0.960 . S
C1934 C1932 1.377 1_455 S
C1934 C1935 1.381 . S
C1934 H1942 0.949 . S
C1935 C1934 1.381 . S
C1935 C1936 1.383 1_455 S
C1935 H1943 0.929 . S
C1936 C1935 1.383 1_655 S
C1936 C1937 1.377 . S
C1937 H1921 0.930 . S
C1937 C1936 1.377 . S
C1937 C1938 1.379 . S
C1938 H1922 0.931 . S
C1938 C1932 1.383 . S
C1938 C1937 1.379 . S
H1939 C1933 0.959 . S
H1940 C1933 0.961 . S
H1941 C1933 0.960 . S
H1942 C1934 0.949 . S
H1943 C1935 0.929 . S
H1944 C1952 0.929 . S
H1945 C1954 0.930 . S
H1946 C1956 0.930 . S
H1947 C1959 0.929 . S
H1948 C1962 0.930 . S
H1949 C1964 0.960 . S
H1950 C1964 0.960 . S
H1951 C1964 0.960 . S
C1952 H1944 0.929 . S
C1952 C1953 1.377 . S
C1952 C1954 1.384 . S
C1953 C1952 1.377 . S
C1953 C1959 1.390 . S
C1954 H1945 0.930 . S
C1954 C1952 1.384 . S
C1954 C1955 1.372 . S
C1955 C1954 1.372 . S
C1955 C1956 1.400 . S
C1955 C1960 1.490 . S
C1956 H1946 0.930 . S
C1956 C1955 1.400 . S
C1956 C1959 1.386 . S
H1957 C1973 0.930 . S
H1958 C1974 0.931 . S
C1959 H1947 0.929 . S
C1959 C1953 1.390 . S
C1959 C1956 1.386 . S
C1960 C1955 1.490 . S
C1960 C1962 1.395 . S
C1960 C1963 1.403 . S
H1961 C1967 0.930 . S
C1962 H1948 0.930 . S
C1962 C1960 1.395 . S
C1962 C1965 1.403 . S
C1963 C1960 1.403 . S
C1963 C1964 1.524 . S
C1963 C1967 1.400 . S
C1964 H1949 0.960 . S
C1964 H1950 0.960 . S
C1964 H1951 0.960 . S
C1964 C1963 1.524 . S
C1965 C1962 1.403 . S
C1965 C1966 1.392 . S
C1965 C1969 1.495 . S
C1966 C1965 1.392 . S
C1966 C1967 1.385 . S
C1966 C1968 1.478 . S
C1967 H1961 0.930 . S
C1967 C1963 1.400 . S
C1967 C1966 1.385 . S
C1968 C1966 1.478 . S
C1968 C1970 1.381 . S
C1968 C1974 1.383 . S
C1969 C1965 1.495 . S
C1969 H1975 0.959 . S
C1969 H1976 0.961 . S
C1969 H1977 0.960 . S
C1970 C1968 1.381 . S
C1970 C1971 1.394 . S
C1970 H1978 0.930 . S
C1971 C1970 1.394 . S
C1971 C1972 1.383 . S
C1971 H1979 0.929 . S
C1972 C1971 1.383 . S
C1972 C1973 1.377 . S
C1973 H1957 0.930 . S
C1973 C1972 1.377 . S
C1973 C1974 1.379 . S
C1974 H1958 0.931 . S
C1974 C1968 1.383 . S
C1974 C1973 1.379 . S
H1975 C1969 0.959 . S
H1976 C1969 0.961 . S
H1977 C1969 0.960 . S
H1978 C1970 0.930 . S
H1979 C1971 0.929 . S
H1980 C1988 0.929 . S
H1981 C1990 0.930 . S
H1982 C1992 0.930 1_565 S
H1983 C1995 0.929 1_565 S
H1984 C1998 0.930 . S
H1985 C2000 0.960 . S
H1986 C2000 0.960 . S
H1987 C2000 0.960 . S
C1988 H1980 0.929 . S
C1988 C1989 1.377 . S
C1988 C1990 1.384 . S
C1989 C1988 1.377 . S
C1989 C1995 1.390 . S
C1990 H1981 0.930 . S
C1990 C1988 1.384 . S
C1990 C1991 1.372 . S
C1991 C1990 1.372 . S
C1991 C1992 1.400 . S
C1991 C1996 1.490 . S
C1992 H1982 0.930 1_545 S
C1992 C1991 1.400 . S
C1992 C1995 1.386 . S
H1993 C2009 0.930 . S
H1994 C2010 0.931 . S
C1995 H1983 0.929 1_545 S
C1995 C1989 1.390 . S
C1995 C1992 1.386 . S
C1996 C1991 1.490 . S
C1996 C1998 1.395 . S
C1996 C1999 1.403 . S
H1997 C2003 0.930 . S
C1998 H1984 0.930 . S
C1998 C1996 1.395 . S
C1998 C2001 1.403 . S
C1999 C1996 1.403 . S
C1999 C2000 1.524 . S
C1999 C2003 1.400 . S
C2000 H1985 0.960 . S
C2000 H1986 0.960 . S
C2000 H1987 0.960 . S
C2000 C1999 1.524 . S
C2001 C1998 1.403 . S
C2001 C2002 1.392 . S
C2001 C2005 1.495 . S
C2002 C2001 1.392 . S
C2002 C2003 1.385 . S
C2002 C2004 1.478 . S
C2003 H1997 0.930 . S
C2003 C1999 1.400 . S
C2003 C2002 1.385 . S
C2004 C2002 1.478 . S
C2004 C2006 1.381 . S
C2004 C2010 1.383 1_545 S
C2005 C2001 1.495 . S
C2005 H2011 0.959 . S
C2005 H2012 0.961 1_545 S
C2005 H2013 0.960 . S
C2006 C2004 1.381 . S
C2006 C2007 1.394 . S
C2006 H2014 0.930 . S
C2007 C2006 1.394 . S
C2007 C2008 1.383 . S
C2007 H2015 0.929 . S
C2008 C2007 1.383 . S
C2008 C2009 1.377 1_545 S
C2009 H1993 0.930 . S
C2009 C2008 1.377 1_565 S
C2009 C2010 1.379 . S
C2010 H1994 0.931 . S
C2010 C2004 1.383 1_565 S
C2010 C2009 1.379 . S
H2011 C2005 0.959 . S
H2012 C2005 0.961 1_565 S
H2013 C2005 0.960 . S
H2014 C2006 0.930 . S
H2015 C2007 0.929 . S
H2016 C2024 0.929 . S
H2017 C2026 0.930 . S
H2018 C2028 0.929 . S
H2019 C2031 0.888 1_545 S
H2020 C2034 0.930 . S
H2021 C2036 0.960 . S
H2022 C2036 0.960 . S
H2023 C2036 0.960 1_545 S
C2024 H2016 0.929 . S
C2024 C2025 1.377 . S
C2024 C2026 1.384 . S
C2025 C2024 1.377 . S
C2025 C2031 1.413 . S
C2026 H2017 0.930 . S
C2026 C2024 1.384 . S
C2026 C2027 1.372 . S
C2027 C2026 1.372 . S
C2027 C2028 1.402 1_565 S
C2027 C2032 1.490 . S
C2028 H2018 0.929 . S
C2028 C2027 1.402 1_545 S
C2028 C2031 1.404 1_545 S
H2029 C2045 0.930 . S
H2030 C2046 0.931 . S
C2031 H2019 0.888 1_565 S
C2031 C2025 1.413 . S
C2031 C2028 1.404 1_565 S
C2032 C2027 1.490 . S
C2032 C2034 1.395 . S
C2032 C2035 1.403 . S
H2033 C2039 0.930 . S
C2034 H2020 0.930 . S
C2034 C2032 1.395 . S
C2034 C2037 1.403 . S
C2035 C2032 1.403 . S
C2035 C2036 1.524 . S
C2035 C2039 1.400 . S
C2036 H2021 0.960 . S
C2036 H2022 0.960 . S
C2036 H2023 0.960 1_565 S
C2036 C2035 1.524 . S
C2037 C2034 1.403 . S
C2037 C2038 1.392 . S
C2037 C2041 1.495 . S
C2038 C2037 1.392 . S
C2038 C2039 1.385 . S
C2038 C2040 1.478 . S
C2039 H2033 0.930 . S
C2039 C2035 1.400 . S
C2039 C2038 1.385 . S
C2040 C2038 1.478 . S
C2040 C2042 1.381 . S
C2040 C2046 1.383 1_565 S
C2041 C2037 1.495 . S
C2041 H2047 0.959 . S
C2041 H2048 0.961 . S
C2041 H2049 0.960 . S
C2042 C2040 1.381 . S
C2042 C2043 1.394 . S
C2042 H2050 0.930 . S
C2043 C2042 1.394 . S
C2043 C2044 1.383 . S
C2043 H2051 0.929 . S
C2044 C2043 1.383 . S
C2044 C2045 1.377 1_565 S
C2045 H2029 0.930 . S
C2045 C2044 1.377 1_545 S
C2045 C2046 1.379 . S
C2046 H2030 0.931 . S
C2046 C2040 1.383 1_545 S
C2046 C2045 1.379 . S
H2047 C2041 0.959 . S
H2048 C2041 0.961 . S
H2049 C2041 0.960 . S
H2050 C2042 0.930 . S
H2051 C2043 0.929 . S
H2052 C2060 0.928 1_655 S
H2053 C2062 0.930 1_655 S
H2054 C2064 0.930 . S
H2055 C2067 0.929 . S
H2056 C2070 0.930 . S
H2057 C2072 0.960 . S
H2058 C2072 0.960 . S
H2059 C2072 0.960 . S
C2060 H2052 0.928 1_455 S
C2060 C2061 1.377 . S
C2060 C2062 1.384 . S
C2061 C2060 1.377 . S
C2061 C2067 1.390 . S
C2062 H2053 0.930 1_455 S
C2062 C2060 1.384 . S
C2062 C2063 1.372 . S
C2063 C2062 1.372 . S
C2063 C2064 1.400 . S
C2063 C2068 1.490 . S
C2064 H2054 0.930 . S
C2064 C2063 1.400 . S
C2064 C2067 1.386 . S
H2065 C2081 0.930 . S
H2066 C2082 0.931 . S
C2067 H2055 0.929 . S
C2067 C2061 1.390 . S
C2067 C2064 1.386 . S
C2068 C2063 1.490 . S
C2068 C2070 1.395 1_455 S
C2068 C2071 1.403 . S
H2069 C2075 0.930 . S
C2070 H2056 0.930 . S
C2070 C2068 1.395 1_655 S
C2070 C2073 1.403 . S
C2071 C2068 1.403 . S
C2071 C2072 1.524 . S
C2071 C2075 1.400 . S
C2072 H2057 0.960 . S
C2072 H2058 0.960 . S
C2072 H2059 0.960 . S
C2072 C2071 1.524 . S
C2073 C2070 1.403 . S
C2073 C2074 1.392 1_655 S
C2073 C2077 1.495 . S
C2074 C2073 1.392 1_455 S
C2074 C2075 1.385 . S
C2074 C2076 1.478 . S
C2075 H2069 0.930 . S
C2075 C2071 1.400 . S
C2075 C2074 1.385 . S
C2076 C2074 1.478 . S
C2076 C2078 1.381 1_455 S
C2076 C2082 1.383 . S
C2077 C2073 1.495 . S
C2077 H2083 0.959 . S
C2077 H2084 0.961 . S
C2077 H2085 0.960 . S
C2078 C2076 1.381 1_655 S
C2078 C2079 1.394 . S
C2078 H2086 0.930 . S
C2079 C2078 1.394 . S
C2079 C2080 1.383 1_655 S
C2079 H2087 0.929 . S
C2080 C2079 1.383 1_455 S
C2080 C2081 1.377 . S
C2081 H2065 0.930 . S
C2081 C2080 1.377 . S
C2081 C2082 1.379 . S
C2082 H2066 0.931 . S
C2082 C2076 1.383 . S
C2082 C2081 1.379 . S
H2083 C2077 0.959 . S
H2084 C2077 0.961 . S
H2085 C2077 0.960 . S
H2086 C2078 0.930 . S
H2087 C2079 0.929 . S
H2088 C2096 0.929 . S
H2089 C2098 0.930 . S
H2090 C2100 0.930 . S
H2091 C2103 0.929 . S
H2092 C2106 0.930 . S
H2093 C2108 0.960 . S
H2094 C2108 0.960 . S
H2095 C2108 0.960 . S
C2096 H2088 0.929 . S
C2096 C2097 1.377 . S
C2096 C2098 1.384 . S
C2097 C2096 1.377 . S
C2097 C2103 1.390 . S
C2098 H2089 0.930 . S
C2098 C2096 1.384 . S
C2098 C2099 1.372 . S
C2099 C2098 1.372 . S
C2099 C2100 1.400 . S
C2099 C2104 1.490 . S
C2100 H2090 0.930 . S
C2100 C2099 1.400 . S
C2100 C2103 1.386 . S
H2101 C2117 0.930 . S
H2102 C2118 0.931 . S
C2103 H2091 0.929 . S
C2103 C2097 1.390 . S
C2103 C2100 1.386 . S
C2104 C2099 1.490 . S
C2104 C2106 1.395 . S
C2104 C2107 1.403 . S
H2105 C2111 0.930 . S
C2106 H2092 0.930 . S
C2106 C2104 1.395 . S
C2106 C2109 1.403 . S
C2107 C2104 1.403 . S
C2107 C2108 1.524 . S
C2107 C2111 1.400 . S
C2108 H2093 0.960 . S
C2108 H2094 0.960 . S
C2108 H2095 0.960 . S
C2108 C2107 1.524 . S
C2109 C2106 1.403 . S
C2109 C2110 1.392 . S
C2109 C2113 1.495 . S
C2110 C2109 1.392 . S
C2110 C2111 1.385 . S
C2110 C2112 1.478 . S
C2111 H2105 0.930 . S
C2111 C2107 1.400 . S
C2111 C2110 1.385 . S
C2112 C2110 1.478 . S
C2112 C2114 1.381 . S
C2112 C2118 1.383 . S
C2113 C2109 1.495 . S
C2113 H2119 0.959 . S
C2113 H2120 0.961 . S
C2113 H2121 0.960 . S
C2114 C2112 1.381 . S
C2114 C2115 1.394 . S
C2114 H2122 0.930 . S
C2115 C2114 1.394 . S
C2115 C2116 1.383 . S
C2115 H2123 0.929 . S
C2116 C2115 1.383 . S
C2116 C2117 1.377 . S
C2117 H2101 0.930 . S
C2117 C2116 1.377 . S
C2117 C2118 1.379 . S
C2118 H2102 0.931 . S
C2118 C2112 1.383 . S
C2118 C2117 1.379 . S
H2119 C2113 0.959 . S
H2120 C2113 0.961 . S
H2121 C2113 0.960 . S
H2122 C2114 0.930 . S
H2123 C2115 0.929 . S
H2124 C2132 0.929 . S
H2125 C2134 0.930 . S
H2126 C2136 0.931 1_655 S
H2127 C2139 0.929 1_655 S
H2128 C2142 0.930 . S
H2129 C2144 0.960 . S
H2130 C2144 0.960 . S
H2131 C2144 0.960 . S
C2132 H2124 0.929 . S
C2132 C2133 1.377 . S
C2132 C2134 1.384 . S
C2133 C2132 1.377 . S
C2133 C2139 1.390 . S
C2134 H2125 0.930 . S
C2134 C2132 1.384 . S
C2134 C2135 1.372 . S
C2135 C2134 1.372 . S
C2135 C2136 1.398 . S
C2135 C2140 1.490 . S
C2136 H2126 0.931 1_455 S
C2136 C2135 1.398 . S
C2136 C2139 1.386 . S
H2137 C2153 0.930 . S
H2138 C2154 0.931 . S
C2139 H2127 0.929 1_455 S
C2139 C2133 1.390 . S
C2139 C2136 1.386 . S
C2140 C2135 1.490 . S
C2140 C2142 1.395 . S
C2140 C2143 1.403 1_455 S
H2141 C2147 0.930 . S
C2142 H2128 0.930 . S
C2142 C2140 1.395 . S
C2142 C2145 1.403 . S
C2143 C2140 1.403 1_655 S
C2143 C2144 1.524 . S
C2143 C2147 1.400 . S
C2144 H2129 0.960 . S
C2144 H2130 0.960 . S
C2144 H2131 0.960 . S
C2144 C2143 1.524 . S
C2145 C2142 1.403 . S
C2145 C2146 1.392 . S
C2145 C2149 1.495 . S
C2146 C2145 1.392 . S
C2146 C2147 1.385 1_455 S
C2146 C2148 1.478 . S
C2147 H2141 0.930 . S
C2147 C2143 1.400 . S
C2147 C2146 1.385 1_655 S
C2148 C2146 1.478 . S
C2148 C2150 1.381 . S
C2148 C2154 1.383 1_455 S
C2149 C2145 1.495 . S
C2149 H2155 0.959 . S
C2149 H2156 0.961 . S
C2149 H2157 0.960 . S
C2150 C2148 1.381 . S
C2150 C2151 1.394 . S
C2150 H2158 0.930 . S
C2151 C2150 1.394 . S
C2151 C2152 1.383 . S
C2151 H2159 0.929 . S
C2152 C2151 1.383 . S
C2152 C2153 1.377 1_455 S
C2153 H2137 0.930 . S
C2153 C2152 1.377 1_655 S
C2153 C2154 1.379 . S
C2154 H2138 0.931 . S
C2154 C2148 1.383 1_655 S
C2154 C2153 1.379 . S
H2155 C2149 0.959 . S
H2156 C2149 0.961 . S
H2157 C2149 0.960 . S
H2158 C2150 0.930 . S
H2159 C2151 0.929 . S
H2160 C2168 0.929 . S
H2161 C2170 0.930 . S
H2162 C2172 0.930 . S
H2163 C2175 0.929 . S
H2164 C2178 0.930 . S
H2165 C2180 0.960 . S
H2166 C2180 0.960 . S
H2167 C2180 0.960 . S
C2168 H2160 0.929 . S
C2168 C2169 1.377 . S
C2168 C2170 1.384 . S
C2169 C2168 1.377 . S
C2169 C2175 1.390 . S
C2170 H2161 0.930 . S
C2170 C2168 1.384 . S
C2170 C2171 1.372 . S
C2171 C2170 1.372 . S
C2171 C2172 1.400 . S
C2171 C2176 1.490 . S
C2172 H2162 0.930 . S
C2172 C2171 1.400 . S
C2172 C2175 1.386 . S
H2173 C2189 0.930 . S
H2174 C2190 0.931 . S
C2175 H2163 0.929 . S
C2175 C2169 1.390 . S
C2175 C2172 1.386 . S
C2176 C2171 1.490 . S
C2176 C2178 1.395 . S
C2176 C2179 1.403 . S
H2177 C2183 0.930 . S
C2178 H2164 0.930 . S
C2178 C2176 1.395 . S
C2178 C2181 1.403 . S
C2179 C2176 1.403 . S
C2179 C2180 1.524 . S
C2179 C2183 1.400 . S
C2180 H2165 0.960 . S
C2180 H2166 0.960 . S
C2180 H2167 0.960 . S
C2180 C2179 1.524 . S
C2181 C2178 1.403 . S
C2181 C2182 1.392 . S
C2181 C2185 1.495 . S
C2182 C2181 1.392 . S
C2182 C2183 1.385 . S
C2182 C2184 1.478 . S
C2183 H2177 0.930 . S
C2183 C2179 1.400 . S
C2183 C2182 1.385 . S
C2184 C2182 1.478 . S
C2184 C2186 1.381 . S
C2184 C2190 1.383 . S
C2185 C2181 1.495 . S
C2185 H2191 0.959 . S
C2185 H2192 0.961 . S
C2185 H2193 0.960 . S
C2186 C2184 1.381 . S
C2186 C2187 1.394 . S
C2186 H2194 0.930 . S
C2187 C2186 1.394 . S
C2187 C2188 1.383 . S
C2187 H2195 0.929 . S
C2188 C2187 1.383 . S
C2188 C2189 1.377 . S
C2189 H2173 0.930 . S
C2189 C2188 1.377 . S
C2189 C2190 1.379 . S
C2190 H2174 0.931 . S
C2190 C2184 1.383 . S
C2190 C2189 1.379 . S
H2191 C2185 0.959 . S
H2192 C2185 0.961 . S
H2193 C2185 0.960 . S
H2194 C2186 0.930 . S
H2195 C2187 0.929 . S
H2196 C2204 0.929 . S
H2197 C2206 0.930 . S
H2198 C2208 0.930 . S
H2199 C2211 0.929 . S
H2200 C2214 0.940 . S
H2201 C2216 0.960 . S
H2202 C2216 0.960 . S
H2203 C2216 0.960 . S
C2204 H2196 0.929 . S
C2204 C2205 1.377 . S
C2204 C2206 1.384 . S
C2205 C2204 1.377 . S
C2205 C2211 1.390 . S
C2206 H2197 0.930 . S
C2206 C2204 1.384 . S
C2206 C2207 1.372 . S
C2207 C2206 1.372 . S
C2207 C2208 1.400 . S
C2207 C2212 1.490 . S
C2208 H2198 0.930 . S
C2208 C2207 1.400 . S
C2208 C2211 1.386 . S
H2209 C2225 0.930 . S
H2210 C2226 0.931 . S
C2211 H2199 0.929 . S
C2211 C2205 1.390 . S
C2211 C2208 1.386 . S
C2212 C2207 1.490 . S
C2212 C2214 1.368 1_565 S
C2212 C2215 1.403 . S
H2213 C2219 0.930 . S
C2214 H2200 0.940 . S
C2214 C2212 1.368 1_545 S
C2214 C2217 1.421 . S
C2215 C2212 1.403 . S
C2215 C2216 1.524 . S
C2215 C2219 1.400 . S
C2216 H2201 0.960 . S
C2216 H2202 0.960 . S
C2216 H2203 0.960 . S
C2216 C2215 1.524 . S
C2217 C2214 1.421 . S
C2217 C2218 1.392 1_545 S
C2217 C2221 1.495 . S
C2218 C2217 1.392 1_565 S
C2218 C2219 1.385 . S
C2218 C2220 1.478 . S
C2219 H2213 0.930 . S
C2219 C2215 1.400 . S
C2219 C2218 1.385 . S
C2220 C2218 1.478 . S
C2220 C2222 1.381 . S
C2220 C2226 1.383 1_565 S
C2221 C2217 1.495 . S
C2221 H2227 0.959 . S
C2221 H2228 0.961 . S
C2221 H2229 0.960 . S
C2222 C2220 1.381 . S
C2222 C2223 1.394 . S
C2222 H2230 0.930 . S
C2223 C2222 1.394 . S
C2223 C2224 1.386 1_565 S
C2223 H2231 0.929 . S
C2224 C2223 1.386 1_545 S
C2224 C2225 1.378 . S
C2225 H2209 0.930 . S
C2225 C2224 1.378 . S
C2225 C2226 1.379 . S
C2226 H2210 0.931 . S
C2226 C2220 1.383 1_545 S
C2226 C2225 1.379 . S
H2227 C2221 0.959 . S
H2228 C2221 0.961 . S
H2229 C2221 0.960 . S
H2230 C2222 0.930 . S
H2231 C2223 0.929 . S
H2232 C2240 0.929 1_565 S
H2233 C2242 0.930 1_565 S
H2234 C2244 0.930 . S
H2235 C2247 0.929 . S
H2236 C2250 0.930 . S
H2237 C2252 0.959 . S
H2238 C2252 0.964 . S
H2239 C2252 0.958 1_545 S
C2240 H2232 0.929 1_545 S
C2240 C2241 1.377 . S
C2240 C2242 1.384 . S
C2241 C2240 1.377 . S
C2241 C2247 1.390 . S
C2242 H2233 0.930 1_545 S
C2242 C2240 1.384 . S
C2242 C2243 1.372 . S
C2243 C2242 1.372 . S
C2243 C2244 1.400 . S
C2243 C2248 1.490 . S
C2244 H2234 0.930 . S
C2244 C2243 1.400 . S
C2244 C2247 1.386 . S
H2245 C2261 0.930 . S
H2246 C2262 0.931 . S
C2247 H2235 0.929 . S
C2247 C2241 1.390 . S
C2247 C2244 1.386 . S
C2248 C2243 1.490 . S
C2248 C2250 1.395 . S
C2248 C2251 1.403 . S
H2249 C2255 0.923 . S
C2250 H2236 0.930 . S
C2250 C2248 1.395 . S
C2250 C2253 1.403 . S
C2251 C2248 1.403 . S
C2251 C2252 1.523 1_545 S
C2251 C2255 1.400 . S
C2252 H2237 0.959 . S
C2252 H2238 0.964 . S
C2252 H2239 0.958 1_565 S
C2252 C2251 1.523 1_565 S
C2253 C2250 1.403 . S
C2253 C2254 1.392 . S
C2253 C2257 1.495 . S
C2254 C2253 1.392 . S
C2254 C2255 1.385 . S
C2254 C2256 1.478 . S
C2255 H2249 0.923 . S
C2255 C2251 1.400 . S
C2255 C2254 1.385 . S
C2256 C2254 1.478 . S
C2256 C2258 1.381 1_545 S
C2256 C2262 1.383 . S
C2257 C2253 1.495 . S
C2257 H2263 0.959 . S
C2257 H2264 0.961 . S
C2257 H2265 0.960 . S
C2258 C2256 1.381 1_565 S
C2258 C2259 1.394 . S
C2258 H2266 0.930 . S
C2259 C2258 1.394 . S
C2259 C2260 1.383 1_565 S
C2259 H2267 0.929 . S
C2260 C2259 1.383 1_545 S
C2260 C2261 1.377 . S
C2261 H2245 0.930 . S
C2261 C2260 1.377 . S
C2261 C2262 1.379 . S
C2262 H2246 0.931 . S
C2262 C2256 1.383 . S
C2262 C2261 1.379 . S
H2263 C2257 0.959 . S
H2264 C2257 0.961 . S
H2265 C2257 0.960 . S
H2266 C2258 0.930 . S
H2267 C2259 0.929 . S
H2268 C2276 0.929 . S
H2269 C2278 0.930 . S
H2270 C2280 0.930 1_455 S
H2271 C2283 0.922 1_455 S
H2272 C2286 0.930 . S
H2273 C2288 0.960 . S
H2274 C2288 0.960 . S
H2275 C2288 0.960 . S
C2276 H2268 0.929 . S
C2276 C2277 1.377 . S
C2276 C2278 1.384 . S
C2277 C2276 1.377 . S
C2277 C2283 1.390 . S
C2278 H2269 0.930 . S
C2278 C2276 1.384 . S
C2278 C2279 1.372 . S
C2279 C2278 1.372 . S
C2279 C2280 1.400 . S
C2279 C2284 1.490 . S
C2280 H2270 0.930 1_655 S
C2280 C2279 1.400 . S
C2280 C2283 1.386 . S
H2281 C2297 0.930 . S
H2282 C2298 0.962 . S
C2283 H2271 0.922 1_655 S
C2283 C2277 1.390 . S
C2283 C2280 1.386 . S
C2284 C2279 1.490 . S
C2284 C2286 1.395 . S
C2284 C2287 1.403 1_655 S
H2285 C2291 0.930 . S
C2286 H2272 0.930 . S
C2286 C2284 1.395 . S
C2286 C2289 1.403 . S
C2287 C2284 1.403 1_455 S
C2287 C2288 1.524 . S
C2287 C2291 1.400 . S
C2288 H2273 0.960 . S
C2288 H2274 0.960 . S
C2288 H2275 0.960 . S
C2288 C2287 1.524 . S
C2289 C2286 1.403 . S
C2289 C2290 1.392 . S
C2289 C2293 1.495 . S
C2290 C2289 1.392 . S
C2290 C2291 1.385 1_655 S
C2290 C2292 1.478 . S
C2291 H2285 0.930 . S
C2291 C2287 1.400 . S
C2291 C2290 1.385 1_455 S
C2292 C2290 1.478 . S
C2292 C2294 1.381 . S
C2292 C2298 1.309 1_655 S
C2293 C2289 1.495 . S
C2293 H2299 0.959 . S
C2293 H2300 0.961 . S
C2293 H2301 0.960 . S
C2294 C2292 1.381 . S
C2294 C2295 1.394 . S
C2294 H2302 0.930 . S
C2295 C2294 1.394 . S
C2295 C2296 1.383 . S
C2295 H2303 0.929 . S
C2296 C2295 1.383 . S
C2296 C2297 1.377 1_655 S
C2297 H2281 0.930 . S
C2297 C2296 1.377 1_455 S
C2297 C2298 1.430 . S
C2298 H2282 0.962 . S
C2298 C2292 1.309 1_455 S
C2298 C2297 1.430 . S
H2299 C2293 0.959 . S
H2300 C2293 0.961 . S
H2301 C2293 0.960 . S
H2302 C2294 0.930 . S
H2303 C2295 0.929 . S
H2304 C2312 0.929 . S
H2305 C2314 0.930 . S
H2306 C2316 0.930 . S
H2307 C2319 0.929 . S
H2308 C2322 0.930 . S
H2309 C2324 0.960 . S
H2310 C2324 0.960 . S
H2311 C2324 0.960 . S
C2312 H2304 0.929 . S
C2312 C2313 1.377 . S
C2312 C2314 1.384 . S
C2313 C2312 1.377 . S
C2313 C2319 1.390 . S
C2314 H2305 0.930 . S
C2314 C2312 1.384 . S
C2314 C2315 1.372 . S
C2315 C2314 1.372 . S
C2315 C2316 1.400 . S
C2315 C2320 1.490 . S
C2316 H2306 0.930 . S
C2316 C2315 1.400 . S
C2316 C2319 1.386 . S
H2317 C2333 0.930 . S
H2318 C2334 0.931 . S
C2319 H2307 0.929 . S
C2319 C2313 1.390 . S
C2319 C2316 1.386 . S
C2320 C2315 1.490 . S
C2320 C2322 1.395 . S
C2320 C2323 1.403 . S
H2321 C2327 0.930 . S
C2322 H2308 0.930 . S
C2322 C2320 1.395 . S
C2322 C2325 1.403 . S
C2323 C2320 1.403 . S
C2323 C2324 1.524 . S
C2323 C2327 1.400 . S
C2324 H2309 0.960 . S
C2324 H2310 0.960 . S
C2324 H2311 0.960 . S
C2324 C2323 1.524 . S
C2325 C2322 1.403 . S
C2325 C2326 1.392 . S
C2325 C2329 1.495 . S
C2326 C2325 1.392 . S
C2326 C2327 1.385 . S
C2326 C2328 1.478 . S
C2327 H2321 0.930 . S
C2327 C2323 1.400 . S
C2327 C2326 1.385 . S
C2328 C2326 1.478 . S
C2328 C2330 1.381 . S
C2328 C2334 1.383 . S
C2329 C2325 1.495 . S
C2329 H2335 0.959 . S
C2329 H2336 0.961 . S
C2329 H2337 0.960 . S
C2330 C2328 1.381 . S
C2330 C2331 1.394 . S
C2330 H2338 0.930 . S
C2331 C2330 1.394 . S
C2331 C2332 1.383 . S
C2331 H2339 0.929 . S
C2332 C2331 1.383 . S
C2332 C2333 1.377 . S
C2333 H2317 0.930 . S
C2333 C2332 1.377 . S
C2333 C2334 1.379 . S
C2334 H2318 0.931 . S
C2334 C2328 1.383 . S
C2334 C2333 1.379 . S
H2335 C2329 0.959 . S
H2336 C2329 0.961 . S
H2337 C2329 0.960 . S
H2338 C2330 0.930 . S
H2339 C2331 0.929 . S
H2340 C2348 0.929 . S
H2341 C2350 0.930 . S
H2342 C2352 0.930 . S
H2343 C2355 0.929 . S
H2344 C2358 0.930 . S
H2345 C2360 0.960 . S
H2346 C2360 0.960 . S
H2347 C2360 0.960 . S
C2348 H2340 0.929 . S
C2348 C2349 1.377 . S
C2348 C2350 1.384 . S
C2349 C2348 1.377 . S
C2349 C2355 1.390 . S
C2350 H2341 0.930 . S
C2350 C2348 1.384 . S
C2350 C2351 1.372 . S
C2351 C2350 1.372 . S
C2351 C2352 1.400 . S
C2351 C2356 1.490 . S
C2352 H2342 0.930 . S
C2352 C2351 1.400 . S
C2352 C2355 1.386 . S
H2353 C2369 0.930 . S
H2354 C2370 0.931 . S
C2355 H2343 0.929 . S
C2355 C2349 1.390 . S
C2355 C2352 1.386 . S
C2356 C2351 1.490 . S
C2356 C2358 1.395 . S
C2356 C2359 1.403 . S
H2357 C2363 0.930 . S
C2358 H2344 0.930 . S
C2358 C2356 1.395 . S
C2358 C2361 1.403 . S
C2359 C2356 1.403 . S
C2359 C2360 1.524 . S
C2359 C2363 1.400 . S
C2360 H2345 0.960 . S
C2360 H2346 0.960 . S
C2360 H2347 0.960 . S
C2360 C2359 1.524 . S
C2361 C2358 1.403 . S
C2361 C2362 1.392 . S
C2361 C2365 1.495 . S
C2362 C2361 1.392 . S
C2362 C2363 1.385 . S
C2362 C2364 1.478 . S
C2363 H2357 0.930 . S
C2363 C2359 1.400 . S
C2363 C2362 1.385 . S
C2364 C2362 1.478 . S
C2364 C2366 1.381 . S
C2364 C2370 1.383 . S
C2365 C2361 1.495 . S
C2365 H2371 0.959 . S
C2365 H2372 0.961 . S
C2365 H2373 0.960 . S
C2366 C2364 1.381 . S
C2366 C2367 1.394 . S
C2366 H2374 0.930 . S
C2367 C2366 1.394 . S
C2367 C2368 1.383 . S
C2367 H2375 0.929 . S
C2368 C2367 1.383 . S
C2368 C2369 1.377 . S
C2369 H2353 0.930 . S
C2369 C2368 1.377 . S
C2369 C2370 1.379 . S
C2370 H2354 0.931 . S
C2370 C2364 1.383 . S
C2370 C2369 1.379 . S
H2371 C2365 0.959 . S
H2372 C2365 0.961 . S
H2373 C2365 0.960 . S
H2374 C2366 0.930 . S
H2375 C2367 0.929 . S
H2376 C2384 0.929 . S
H2377 C2386 0.930 . S
H2378 C2388 0.930 . S
H2379 C2391 0.929 . S
H2380 C2394 0.930 . S
H2381 C2396 0.960 . S
H2382 C2396 0.960 . S
H2383 C2396 0.960 . S
C2384 H2376 0.929 . S
C2384 C2385 1.377 . S
C2384 C2386 1.384 . S
C2385 C2384 1.377 . S
C2385 C2391 1.390 . S
C2386 H2377 0.930 . S
C2386 C2384 1.384 . S
C2386 C2387 1.372 . S
C2387 C2386 1.372 . S
C2387 C2388 1.400 . S
C2387 C2392 1.490 . S
C2388 H2378 0.930 . S
C2388 C2387 1.400 . S
C2388 C2391 1.386 . S
H2389 C2405 0.930 . S
H2390 C2406 0.931 . S
C2391 H2379 0.929 . S
C2391 C2385 1.390 . S
C2391 C2388 1.386 . S
C2392 C2387 1.490 . S
C2392 C2394 1.395 . S
C2392 C2395 1.403 . S
H2393 C2399 0.930 . S
C2394 H2380 0.930 . S
C2394 C2392 1.395 . S
C2394 C2397 1.403 . S
C2395 C2392 1.403 . S
C2395 C2396 1.524 . S
C2395 C2399 1.400 . S
C2396 H2381 0.960 . S
C2396 H2382 0.960 . S
C2396 H2383 0.960 . S
C2396 C2395 1.524 . S
C2397 C2394 1.403 . S
C2397 C2398 1.392 . S
C2397 C2401 1.495 . S
C2398 C2397 1.392 . S
C2398 C2399 1.385 . S
C2398 C2400 1.478 . S
C2399 H2393 0.930 . S
C2399 C2395 1.400 . S
C2399 C2398 1.385 . S
C2400 C2398 1.478 . S
C2400 C2402 1.381 . S
C2400 C2406 1.383 . S
C2401 C2397 1.495 . S
C2401 H2407 0.959 . S
C2401 H2408 0.961 . S
C2401 H2409 0.960 . S
C2402 C2400 1.381 . S
C2402 C2403 1.394 . S
C2402 H2410 0.930 . S
C2403 C2402 1.394 . S
C2403 C2404 1.383 . S
C2403 H2411 0.929 . S
C2404 C2403 1.383 . S
C2404 C2405 1.377 . S
C2405 H2389 0.930 . S
C2405 C2404 1.377 . S
C2405 C2406 1.379 . S
C2406 H2390 0.931 . S
C2406 C2400 1.383 . S
C2406 C2405 1.379 . S
H2407 C2401 0.959 . S
H2408 C2401 0.961 . S
H2409 C2401 0.960 . S
H2410 C2402 0.930 . S
H2411 C2403 0.929 . S
H2412 C2420 0.929 . S
H2413 C2422 0.930 . S
H2414 C2424 0.930 . S
H2415 C2427 0.929 . S
H2416 C2430 0.930 . S
H2417 C2432 0.960 . S
H2418 C2432 0.960 . S
H2419 C2432 0.960 . S
C2420 H2412 0.929 . S
C2420 C2421 1.377 . S
C2420 C2422 1.384 . S
C2421 C2420 1.377 . S
C2421 C2427 1.390 . S
C2422 H2413 0.930 . S
C2422 C2420 1.384 . S
C2422 C2423 1.372 . S
C2423 C2422 1.372 . S
C2423 C2424 1.400 . S
C2423 C2428 1.490 . S
C2424 H2414 0.930 . S
C2424 C2423 1.400 . S
C2424 C2427 1.386 . S
H2425 C2441 0.930 . S
H2426 C2442 0.931 . S
C2427 H2415 0.929 . S
C2427 C2421 1.390 . S
C2427 C2424 1.386 . S
C2428 C2423 1.490 . S
C2428 C2430 1.395 . S
C2428 C2431 1.403 . S
H2429 C2435 0.930 . S
C2430 H2416 0.930 . S
C2430 C2428 1.395 . S
C2430 C2433 1.403 . S
C2431 C2428 1.403 . S
C2431 C2432 1.524 . S
C2431 C2435 1.400 . S
C2432 H2417 0.960 . S
C2432 H2418 0.960 . S
C2432 H2419 0.960 . S
C2432 C2431 1.524 . S
C2433 C2430 1.403 . S
C2433 C2434 1.392 . S
C2433 C2437 1.495 . S
C2434 C2433 1.392 . S
C2434 C2435 1.385 . S
C2434 C2436 1.478 . S
C2435 H2429 0.930 . S
C2435 C2431 1.400 . S
C2435 C2434 1.385 . S
C2436 C2434 1.478 . S
C2436 C2438 1.381 . S
C2436 C2442 1.383 . S
C2437 C2433 1.495 . S
C2437 H2443 0.959 . S
C2437 H2444 0.961 . S
C2437 H2445 0.960 . S
C2438 C2436 1.381 . S
C2438 C2439 1.394 . S
C2438 H2446 0.930 . S
C2439 C2438 1.394 . S
C2439 C2440 1.383 . S
C2439 H2447 0.929 . S
C2440 C2439 1.383 . S
C2440 C2441 1.377 . S
C2441 H2425 0.930 . S
C2441 C2440 1.377 . S
C2441 C2442 1.379 . S
C2442 H2426 0.931 . S
C2442 C2436 1.383 . S
C2442 C2441 1.379 . S
H2443 C2437 0.959 . S
H2444 C2437 0.961 . S
H2445 C2437 0.960 . S
H2446 C2438 0.930 . S
H2447 C2439 0.929 . S
H2448 C2456 0.929 . S
H2449 C2458 0.930 . S
H2450 C2460 0.930 . S
H2451 C2463 0.929 . S
H2452 C2466 0.930 . S
H2453 C2468 0.960 . S
H2454 C2468 0.960 . S
H2455 C2468 0.960 . S
C2456 H2448 0.929 . S
C2456 C2457 1.377 . S
C2456 C2458 1.384 . S
C2457 C2456 1.377 . S
C2457 C2463 1.390 . S
C2458 H2449 0.930 . S
C2458 C2456 1.384 . S
C2458 C2459 1.372 . S
C2459 C2458 1.372 . S
C2459 C2460 1.400 . S
C2459 C2464 1.490 . S
C2460 H2450 0.930 . S
C2460 C2459 1.400 . S
C2460 C2463 1.386 . S
H2461 C2477 0.930 . S
H2462 C2478 0.931 . S
C2463 H2451 0.929 . S
C2463 C2457 1.390 . S
C2463 C2460 1.386 . S
C2464 C2459 1.490 . S
C2464 C2466 1.395 . S
C2464 C2467 1.403 . S
H2465 C2471 0.930 . S
C2466 H2452 0.930 . S
C2466 C2464 1.395 . S
C2466 C2469 1.403 . S
C2467 C2464 1.403 . S
C2467 C2468 1.524 . S
C2467 C2471 1.400 . S
C2468 H2453 0.960 . S
C2468 H2454 0.960 . S
C2468 H2455 0.960 . S
C2468 C2467 1.524 . S
C2469 C2466 1.403 . S
C2469 C2470 1.392 . S
C2469 C2473 1.495 . S
C2470 C2469 1.392 . S
C2470 C2471 1.385 . S
C2470 C2472 1.478 . S
C2471 H2465 0.930 . S
C2471 C2467 1.400 . S
C2471 C2470 1.385 . S
C2472 C2470 1.478 . S
C2472 C2474 1.381 . S
C2472 C2478 1.383 . S
C2473 C2469 1.495 . S
C2473 H2479 0.959 . S
C2473 H2480 0.961 . S
C2473 H2481 0.960 . S
C2474 C2472 1.381 . S
C2474 C2475 1.394 . S
C2474 H2482 0.930 . S
C2475 C2474 1.394 . S
C2475 C2476 1.383 . S
C2475 H2483 0.929 . S
C2476 C2475 1.383 . S
C2476 C2477 1.377 . S
C2477 H2461 0.930 . S
C2477 C2476 1.377 . S
C2477 C2478 1.379 . S
C2478 H2462 0.931 . S
C2478 C2472 1.383 . S
C2478 C2477 1.379 . S
H2479 C2473 0.959 . S
H2480 C2473 0.961 . S
H2481 C2473 0.960 . S
H2482 C2474 0.930 . S
H2483 C2475 0.929 . S
H2484 C2492 0.929 . S
H2485 C2494 0.930 . S
H2486 C2496 0.930 . S
H2487 C2499 0.929 . S
H2488 C2502 0.930 . S
H2489 C2504 0.960 . S
H2490 C2504 0.960 . S
H2491 C2504 0.960 . S
C2492 H2484 0.929 . S
C2492 C2493 1.377 . S
C2492 C2494 1.384 . S
C2493 C2492 1.377 . S
C2493 C2499 1.390 . S
C2494 H2485 0.930 . S
C2494 C2492 1.384 . S
C2494 C2495 1.372 . S
C2495 C2494 1.372 . S
C2495 C2496 1.400 . S
C2495 C2500 1.490 . S
C2496 H2486 0.930 . S
C2496 C2495 1.400 . S
C2496 C2499 1.386 . S
H2497 C2513 0.930 . S
H2498 C2514 0.931 . S
C2499 H2487 0.929 . S
C2499 C2493 1.390 . S
C2499 C2496 1.386 . S
C2500 C2495 1.490 . S
C2500 C2502 1.395 . S
C2500 C2503 1.403 . S
H2501 C2507 0.930 . S
C2502 H2488 0.930 . S
C2502 C2500 1.395 . S
C2502 C2505 1.403 . S
C2503 C2500 1.403 . S
C2503 C2504 1.524 . S
C2503 C2507 1.400 . S
C2504 H2489 0.960 . S
C2504 H2490 0.960 . S
C2504 H2491 0.960 . S
C2504 C2503 1.524 . S
C2505 C2502 1.403 . S
C2505 C2506 1.392 . S
C2505 C2509 1.495 . S
C2506 C2505 1.392 . S
C2506 C2507 1.385 . S
C2506 C2508 1.478 . S
C2507 H2501 0.930 . S
C2507 C2503 1.400 . S
C2507 C2506 1.385 . S
C2508 C2506 1.478 . S
C2508 C2510 1.381 . S
C2508 C2514 1.383 . S
C2509 C2505 1.495 . S
C2509 H2515 0.959 . S
C2509 H2516 0.961 . S
C2509 H2517 0.960 . S
C2510 C2508 1.381 . S
C2510 C2511 1.394 . S
C2510 H2518 0.930 . S
C2511 C2510 1.394 . S
C2511 C2512 1.383 . S
C2511 H2519 0.929 . S
C2512 C2511 1.383 . S
C2512 C2513 1.377 . S
C2513 H2497 0.930 . S
C2513 C2512 1.377 . S
C2513 C2514 1.379 . S
C2514 H2498 0.931 . S
C2514 C2508 1.383 . S
C2514 C2513 1.379 . S
H2515 C2509 0.959 . S
H2516 C2509 0.961 . S
H2517 C2509 0.960 . S
H2518 C2510 0.930 . S
H2519 C2511 0.929 . S
H2520 C2528 0.929 . S
H2521 C2530 0.930 . S
H2522 C2532 0.930 . S
H2523 C2535 0.929 . S
H2524 C2538 0.930 . S
H2525 C2540 0.960 . S
H2526 C2540 0.960 . S
H2527 C2540 0.960 . S
C2528 H2520 0.929 . S
C2528 C2529 1.377 . S
C2528 C2530 1.384 . S
C2529 C2528 1.377 . S
C2529 C2535 1.390 . S
C2530 H2521 0.930 . S
C2530 C2528 1.384 . S
C2530 C2531 1.372 . S
C2531 C2530 1.372 . S
C2531 C2532 1.400 . S
C2531 C2536 1.490 . S
C2532 H2522 0.930 . S
C2532 C2531 1.400 . S
C2532 C2535 1.386 . S
H2533 C2549 0.930 . S
H2534 C2550 0.931 . S
C2535 H2523 0.929 . S
C2535 C2529 1.390 . S
C2535 C2532 1.386 . S
C2536 C2531 1.490 . S
C2536 C2538 1.395 . S
C2536 C2539 1.403 . S
H2537 C2543 0.930 . S
C2538 H2524 0.930 . S
C2538 C2536 1.395 . S
C2538 C2541 1.403 . S
C2539 C2536 1.403 . S
C2539 C2540 1.524 . S
C2539 C2543 1.400 . S
C2540 H2525 0.960 . S
C2540 H2526 0.960 . S
C2540 H2527 0.960 . S
C2540 C2539 1.524 . S
C2541 C2538 1.403 . S
C2541 C2542 1.392 . S
C2541 C2545 1.495 . S
C2542 C2541 1.392 . S
C2542 C2543 1.385 . S
C2542 C2544 1.478 . S
C2543 H2537 0.930 . S
C2543 C2539 1.400 . S
C2543 C2542 1.385 . S
C2544 C2542 1.478 . S
C2544 C2546 1.381 . S
C2544 C2550 1.383 . S
C2545 C2541 1.495 . S
C2545 H2551 0.959 . S
C2545 H2552 0.961 . S
C2545 H2553 0.960 . S
C2546 C2544 1.381 . S
C2546 C2547 1.394 . S
C2546 H2554 0.930 . S
C2547 C2546 1.394 . S
C2547 C2548 1.383 . S
C2547 H2555 0.929 . S
C2548 C2547 1.383 . S
C2548 C2549 1.377 . S
C2549 H2533 0.930 . S
C2549 C2548 1.377 . S
C2549 C2550 1.379 . S
C2550 H2534 0.931 . S
C2550 C2544 1.383 . S
C2550 C2549 1.379 . S
H2551 C2545 0.959 . S
H2552 C2545 0.961 . S
H2553 C2545 0.960 . S
H2554 C2546 0.930 . S
H2555 C2547 0.929 . S
H2556 C2564 0.929 . S
H2557 C2566 0.930 . S
H2558 C2568 0.930 . S
H2559 C2571 0.929 . S
H2560 C2574 0.930 . S
H2561 C2576 0.960 . S
H2562 C2576 0.960 . S
H2563 C2576 0.960 . S
C2564 H2556 0.929 . S
C2564 C2565 1.377 . S
C2564 C2566 1.384 . S
C2565 C2564 1.377 . S
C2565 C2571 1.390 . S
C2566 H2557 0.930 . S
C2566 C2564 1.384 . S
C2566 C2567 1.372 . S
C2567 C2566 1.372 . S
C2567 C2568 1.400 . S
C2567 C2572 1.490 . S
C2568 H2558 0.930 . S
C2568 C2567 1.400 . S
C2568 C2571 1.386 . S
H2569 C2585 0.930 . S
H2570 C2586 0.931 . S
C2571 H2559 0.929 . S
C2571 C2565 1.390 . S
C2571 C2568 1.386 . S
C2572 C2567 1.490 . S
C2572 C2574 1.395 . S
C2572 C2575 1.403 . S
H2573 C2579 0.930 . S
C2574 H2560 0.930 . S
C2574 C2572 1.395 . S
C2574 C2577 1.403 . S
C2575 C2572 1.403 . S
C2575 C2576 1.524 . S
C2575 C2579 1.400 . S
C2576 H2561 0.960 . S
C2576 H2562 0.960 . S
C2576 H2563 0.960 . S
C2576 C2575 1.524 . S
C2577 C2574 1.403 . S
C2577 C2578 1.392 . S
C2577 C2581 1.495 . S
C2578 C2577 1.392 . S
C2578 C2579 1.385 . S
C2578 C2580 1.478 . S
C2579 H2573 0.930 . S
C2579 C2575 1.400 . S
C2579 C2578 1.385 . S
C2580 C2578 1.478 . S
C2580 C2582 1.381 . S
C2580 C2586 1.383 . S
C2581 C2577 1.495 . S
C2581 H2587 0.959 . S
C2581 H2588 0.961 . S
C2581 H2589 0.960 . S
C2582 C2580 1.381 . S
C2582 C2583 1.394 . S
C2582 H2590 0.930 . S
C2583 C2582 1.394 . S
C2583 C2584 1.383 . S
C2583 H2591 0.929 . S
C2584 C2583 1.383 . S
C2584 C2585 1.377 . S
C2585 H2569 0.930 . S
C2585 C2584 1.377 . S
C2585 C2586 1.379 . S
C2586 H2570 0.931 . S
C2586 C2580 1.383 . S
C2586 C2585 1.379 . S
H2587 C2581 0.959 . S
H2588 C2581 0.961 . S
H2589 C2581 0.960 . S
H2590 C2582 0.930 . S
H2591 C2583 0.929 . S
H2592 C2600 0.929 . S
H2593 C2602 0.930 . S
H2594 C2604 0.930 . S
H2595 C2607 0.929 . S
H2596 C2610 0.930 . S
H2597 C2612 0.960 . S
H2598 C2612 0.960 . S
H2599 C2612 0.960 . S
C2600 H2592 0.929 . S
C2600 C2601 1.377 . S
C2600 C2602 1.384 . S
C2601 C2600 1.377 . S
C2601 C2607 1.390 . S
C2602 H2593 0.930 . S
C2602 C2600 1.384 . S
C2602 C2603 1.372 . S
C2603 C2602 1.372 . S
C2603 C2604 1.400 . S
C2603 C2608 1.490 . S
C2604 H2594 0.930 . S
C2604 C2603 1.400 . S
C2604 C2607 1.386 . S
H2605 C2621 0.930 . S
H2606 C2622 0.931 . S
C2607 H2595 0.929 . S
C2607 C2601 1.390 . S
C2607 C2604 1.386 . S
C2608 C2603 1.490 . S
C2608 C2610 1.395 . S
C2608 C2611 1.403 . S
H2609 C2615 0.930 . S
C2610 H2596 0.930 . S
C2610 C2608 1.395 . S
C2610 C2613 1.403 . S
C2611 C2608 1.403 . S
C2611 C2612 1.524 . S
C2611 C2615 1.400 . S
C2612 H2597 0.960 . S
C2612 H2598 0.960 . S
C2612 H2599 0.960 . S
C2612 C2611 1.524 . S
C2613 C2610 1.403 . S
C2613 C2614 1.392 . S
C2613 C2617 1.495 . S
C2614 C2613 1.392 . S
C2614 C2615 1.385 . S
C2614 C2616 1.478 . S
C2615 H2609 0.930 . S
C2615 C2611 1.400 . S
C2615 C2614 1.385 . S
C2616 C2614 1.478 . S
C2616 C2618 1.381 . S
C2616 C2622 1.383 . S
C2617 C2613 1.495 . S
C2617 H2623 0.959 . S
C2617 H2624 0.961 . S
C2617 H2625 0.960 . S
C2618 C2616 1.381 . S
C2618 C2619 1.394 . S
C2618 H2626 0.930 . S
C2619 C2618 1.394 . S
C2619 C2620 1.383 . S
C2619 H2627 0.929 . S
C2620 C2619 1.383 . S
C2620 C2621 1.377 . S
C2621 H2605 0.930 . S
C2621 C2620 1.377 . S
C2621 C2622 1.379 . S
C2622 H2606 0.931 . S
C2622 C2616 1.383 . S
C2622 C2621 1.379 . S
H2623 C2617 0.959 . S
H2624 C2617 0.961 . S
H2625 C2617 0.960 . S
H2626 C2618 0.930 . S
H2627 C2619 0.929 . S
H2628 C2636 0.929 . S
H2629 C2638 0.930 . S
H2630 C2640 0.930 . S
H2631 C2643 0.929 . S
H2632 C2646 0.930 . S
H2633 C2648 0.960 . S
H2634 C2648 0.960 . S
H2635 C2648 0.960 . S
C2636 H2628 0.929 . S
C2636 C2637 1.377 . S
C2636 C2638 1.384 . S
C2637 C2636 1.377 . S
C2637 C2643 1.390 . S
C2638 H2629 0.930 . S
C2638 C2636 1.384 . S
C2638 C2639 1.372 . S
C2639 C2638 1.372 . S
C2639 C2640 1.400 . S
C2639 C2644 1.490 . S
C2640 H2630 0.930 . S
C2640 C2639 1.400 . S
C2640 C2643 1.386 . S
H2641 C2657 0.930 . S
H2642 C2658 0.931 . S
C2643 H2631 0.929 . S
C2643 C2637 1.390 . S
C2643 C2640 1.386 . S
C2644 C2639 1.490 . S
C2644 C2646 1.395 . S
C2644 C2647 1.403 . S
H2645 C2651 0.930 . S
C2646 H2632 0.930 . S
C2646 C2644 1.395 . S
C2646 C2649 1.403 . S
C2647 C2644 1.403 . S
C2647 C2648 1.524 . S
C2647 C2651 1.400 . S
C2648 H2633 0.960 . S
C2648 H2634 0.960 . S
C2648 H2635 0.960 . S
C2648 C2647 1.524 . S
C2649 C2646 1.403 . S
C2649 C2650 1.392 . S
C2649 C2653 1.495 . S
C2650 C2649 1.392 . S
C2650 C2651 1.385 . S
C2650 C2652 1.478 . S
C2651 H2645 0.930 . S
C2651 C2647 1.400 . S
C2651 C2650 1.385 . S
C2652 C2650 1.478 . S
C2652 C2654 1.381 . S
C2652 C2658 1.383 . S
C2653 C2649 1.495 . S
C2653 H2659 0.959 . S
C2653 H2660 0.961 . S
C2653 H2661 0.960 . S
C2654 C2652 1.381 . S
C2654 C2655 1.394 . S
C2654 H2662 0.930 . S
C2655 C2654 1.394 . S
C2655 C2656 1.383 . S
C2655 H2663 0.929 . S
C2656 C2655 1.383 . S
C2656 C2657 1.377 . S
C2657 H2641 0.930 . S
C2657 C2656 1.377 . S
C2657 C2658 1.379 . S
C2658 H2642 0.931 . S
C2658 C2652 1.383 . S
C2658 C2657 1.379 . S
H2659 C2653 0.959 . S
H2660 C2653 0.961 . S
H2661 C2653 0.960 . S
H2662 C2654 0.930 . S
H2663 C2655 0.929 . S
H2664 C2672 0.929 . S
H2665 C2674 0.930 . S
H2666 C2676 0.930 . S
H2667 C2679 0.929 . S
H2668 C2682 0.930 . S
H2669 C2684 0.960 . S
H2670 C2684 0.960 . S
H2671 C2684 0.960 . S
C2672 H2664 0.929 . S
C2672 C2673 1.377 . S
C2672 C2674 1.384 . S
C2673 C2672 1.377 . S
C2673 C2679 1.390 . S
C2674 H2665 0.930 . S
C2674 C2672 1.384 . S
C2674 C2675 1.372 . S
C2675 C2674 1.372 . S
C2675 C2676 1.400 . S
C2675 C2680 1.490 . S
C2676 H2666 0.930 . S
C2676 C2675 1.400 . S
C2676 C2679 1.386 . S
H2677 C2693 0.930 . S
H2678 C2694 0.931 . S
C2679 H2667 0.929 . S
C2679 C2673 1.390 . S
C2679 C2676 1.386 . S
C2680 C2675 1.490 . S
C2680 C2682 1.395 . S
C2680 C2683 1.403 . S
H2681 C2687 0.930 . S
C2682 H2668 0.930 . S
C2682 C2680 1.395 . S
C2682 C2685 1.403 . S
C2683 C2680 1.403 . S
C2683 C2684 1.524 . S
C2683 C2687 1.400 . S
C2684 H2669 0.960 . S
C2684 H2670 0.960 . S
C2684 H2671 0.960 . S
C2684 C2683 1.524 . S
C2685 C2682 1.403 . S
C2685 C2686 1.392 . S
C2685 C2689 1.495 . S
C2686 C2685 1.392 . S
C2686 C2687 1.385 . S
C2686 C2688 1.478 . S
C2687 H2681 0.930 . S
C2687 C2683 1.400 . S
C2687 C2686 1.385 . S
C2688 C2686 1.478 . S
C2688 C2690 1.381 . S
C2688 C2694 1.383 . S
C2689 C2685 1.495 . S
C2689 H2695 0.959 . S
C2689 H2696 0.961 . S
C2689 H2697 0.960 . S
C2690 C2688 1.381 . S
C2690 C2691 1.394 . S
C2690 H2698 0.930 . S
C2691 C2690 1.394 . S
C2691 C2692 1.383 . S
C2691 H2699 0.929 . S
C2692 C2691 1.383 . S
C2692 C2693 1.377 . S
C2693 H2677 0.930 . S
C2693 C2692 1.377 . S
C2693 C2694 1.379 . S
C2694 H2678 0.931 . S
C2694 C2688 1.383 . S
C2694 C2693 1.379 . S
H2695 C2689 0.959 . S
H2696 C2689 0.961 . S
H2697 C2689 0.960 . S
H2698 C2690 0.930 . S
H2699 C2691 0.929 . S
H2700 C2708 0.929 . S
H2701 C2710 0.930 . S
H2702 C2712 0.930 . S
H2703 C2715 0.929 . S
H2704 C2718 0.930 . S
H2705 C2720 0.960 . S
H2706 C2720 0.960 . S
H2707 C2720 0.960 . S
C2708 H2700 0.929 . S
C2708 C2709 1.377 . S
C2708 C2710 1.384 . S
C2709 C2708 1.377 . S
C2709 C2715 1.390 . S
C2710 H2701 0.930 . S
C2710 C2708 1.384 . S
C2710 C2711 1.372 . S
C2711 C2710 1.372 . S
C2711 C2712 1.400 . S
C2711 C2716 1.490 . S
C2712 H2702 0.930 . S
C2712 C2711 1.400 . S
C2712 C2715 1.386 . S
H2713 C2729 0.930 . S
H2714 C2730 0.931 . S
C2715 H2703 0.929 . S
C2715 C2709 1.390 . S
C2715 C2712 1.386 . S
C2716 C2711 1.490 . S
C2716 C2718 1.395 . S
C2716 C2719 1.403 . S
H2717 C2723 0.930 . S
C2718 H2704 0.930 . S
C2718 C2716 1.395 . S
C2718 C2721 1.403 . S
C2719 C2716 1.403 . S
C2719 C2720 1.524 . S
C2719 C2723 1.400 . S
C2720 H2705 0.960 . S
C2720 H2706 0.960 . S
C2720 H2707 0.960 . S
C2720 C2719 1.524 . S
C2721 C2718 1.403 . S
C2721 C2722 1.392 . S
C2721 C2725 1.495 . S
C2722 C2721 1.392 . S
C2722 C2723 1.385 . S
C2722 C2724 1.478 . S
C2723 H2717 0.930 . S
C2723 C2719 1.400 . S
C2723 C2722 1.385 . S
C2724 C2722 1.478 . S
C2724 C2726 1.381 . S
C2724 C2730 1.383 . S
C2725 C2721 1.495 . S
C2725 H2731 0.959 . S
C2725 H2732 0.961 . S
C2725 H2733 0.960 . S
C2726 C2724 1.381 . S
C2726 C2727 1.394 . S
C2726 H2734 0.930 . S
C2727 C2726 1.394 . S
C2727 C2728 1.383 . S
C2727 H2735 0.929 . S
C2728 C2727 1.383 . S
C2728 C2729 1.377 . S
C2729 H2713 0.930 . S
C2729 C2728 1.377 . S
C2729 C2730 1.379 . S
C2730 H2714 0.931 . S
C2730 C2724 1.383 . S
C2730 C2729 1.379 . S
H2731 C2725 0.959 . S
H2732 C2725 0.961 . S
H2733 C2725 0.960 . S
H2734 C2726 0.930 . S
H2735 C2727 0.929 . S
H2736 C2744 0.929 . S
H2737 C2746 0.930 . S
H2738 C2748 0.930 . S
H2739 C2751 0.929 . S
H2740 C2754 0.930 . S
H2741 C2756 0.960 . S
H2742 C2756 0.960 . S
H2743 C2756 0.960 . S
C2744 H2736 0.929 . S
C2744 C2745 1.377 . S
C2744 C2746 1.384 . S
C2745 C2744 1.377 . S
C2745 C2751 1.390 . S
C2746 H2737 0.930 . S
C2746 C2744 1.384 . S
C2746 C2747 1.372 . S
C2747 C2746 1.372 . S
C2747 C2748 1.400 . S
C2747 C2752 1.490 . S
C2748 H2738 0.930 . S
C2748 C2747 1.400 . S
C2748 C2751 1.386 . S
H2749 C2765 0.930 . S
H2750 C2766 0.931 . S
C2751 H2739 0.929 . S
C2751 C2745 1.390 . S
C2751 C2748 1.386 . S
C2752 C2747 1.490 . S
C2752 C2754 1.395 . S
C2752 C2755 1.403 . S
H2753 C2759 0.930 . S
C2754 H2740 0.930 . S
C2754 C2752 1.395 . S
C2754 C2757 1.403 . S
C2755 C2752 1.403 . S
C2755 C2756 1.524 . S
C2755 C2759 1.400 . S
C2756 H2741 0.960 . S
C2756 H2742 0.960 . S
C2756 H2743 0.960 . S
C2756 C2755 1.524 . S
C2757 C2754 1.403 . S
C2757 C2758 1.392 . S
C2757 C2761 1.495 . S
C2758 C2757 1.392 . S
C2758 C2759 1.385 . S
C2758 C2760 1.478 . S
C2759 H2753 0.930 . S
C2759 C2755 1.400 . S
C2759 C2758 1.385 . S
C2760 C2758 1.478 . S
C2760 C2762 1.381 . S
C2760 C2766 1.383 . S
C2761 C2757 1.495 . S
C2761 H2767 0.959 . S
C2761 H2768 0.961 . S
C2761 H2769 0.960 . S
C2762 C2760 1.381 . S
C2762 C2763 1.394 . S
C2762 H2770 0.930 . S
C2763 C2762 1.394 . S
C2763 C2764 1.383 . S
C2763 H2771 0.929 . S
C2764 C2763 1.383 . S
C2764 C2765 1.377 . S
C2765 H2749 0.930 . S
C2765 C2764 1.377 . S
C2765 C2766 1.379 . S
C2766 H2750 0.931 . S
C2766 C2760 1.383 . S
C2766 C2765 1.379 . S
H2767 C2761 0.959 . S
H2768 C2761 0.961 . S
H2769 C2761 0.960 . S
H2770 C2762 0.930 . S
H2771 C2763 0.929 . S
H2772 C2780 0.929 . S
H2773 C2782 0.930 . S
H2774 C2784 0.930 . S
H2775 C2787 0.929 . S
H2776 C2790 0.930 . S
H2777 C2792 0.960 . S
H2778 C2792 0.960 . S
H2779 C2792 0.960 . S
C2780 H2772 0.929 . S
C2780 C2781 1.377 . S
C2780 C2782 1.384 . S
C2781 C2780 1.377 . S
C2781 C2787 1.390 . S
C2782 H2773 0.930 . S
C2782 C2780 1.384 . S
C2782 C2783 1.372 . S
C2783 C2782 1.372 . S
C2783 C2784 1.400 . S
C2783 C2788 1.490 . S
C2784 H2774 0.930 . S
C2784 C2783 1.400 . S
C2784 C2787 1.386 . S
H2785 C2801 0.930 . S
H2786 C2802 0.931 . S
C2787 H2775 0.929 . S
C2787 C2781 1.390 . S
C2787 C2784 1.386 . S
C2788 C2783 1.490 . S
C2788 C2790 1.395 . S
C2788 C2791 1.403 . S
H2789 C2795 0.930 . S
C2790 H2776 0.930 . S
C2790 C2788 1.395 . S
C2790 C2793 1.403 . S
C2791 C2788 1.403 . S
C2791 C2792 1.524 . S
C2791 C2795 1.400 . S
C2792 H2777 0.960 . S
C2792 H2778 0.960 . S
C2792 H2779 0.960 . S
C2792 C2791 1.524 . S
C2793 C2790 1.403 . S
C2793 C2794 1.392 . S
C2793 C2797 1.495 . S
C2794 C2793 1.392 . S
C2794 C2795 1.385 . S
C2794 C2796 1.478 . S
C2795 H2789 0.930 . S
C2795 C2791 1.400 . S
C2795 C2794 1.385 . S
C2796 C2794 1.478 . S
C2796 C2798 1.381 . S
C2796 C2802 1.383 . S
C2797 C2793 1.495 . S
C2797 H2803 0.959 . S
C2797 H2804 0.961 . S
C2797 H2805 0.960 . S
C2798 C2796 1.381 . S
C2798 C2799 1.394 . S
C2798 H2806 0.930 . S
C2799 C2798 1.394 . S
C2799 C2800 1.383 . S
C2799 H2807 0.929 . S
C2800 C2799 1.383 . S
C2800 C2801 1.377 . S
C2801 H2785 0.930 . S
C2801 C2800 1.377 . S
C2801 C2802 1.379 . S
C2802 H2786 0.931 . S
C2802 C2796 1.383 . S
C2802 C2801 1.379 . S
H2803 C2797 0.959 . S
H2804 C2797 0.961 . S
H2805 C2797 0.960 . S
H2806 C2798 0.930 . S
H2807 C2799 0.929 . S
H2808 C2816 0.929 . S
H2809 C2818 0.930 . S
H2810 C2820 0.930 . S
H2811 C2823 0.929 . S
H2812 C2826 0.930 . S
H2813 C2828 0.960 . S
H2814 C2828 0.960 . S
H2815 C2828 0.960 . S
C2816 H2808 0.929 . S
C2816 C2817 1.377 . S
C2816 C2818 1.384 . S
C2817 C2816 1.377 . S
C2817 C2823 1.390 . S
C2818 H2809 0.930 . S
C2818 C2816 1.384 . S
C2818 C2819 1.372 . S
C2819 C2818 1.372 . S
C2819 C2820 1.400 . S
C2819 C2824 1.490 . S
C2820 H2810 0.930 . S
C2820 C2819 1.400 . S
C2820 C2823 1.386 . S
H2821 C2837 0.930 . S
H2822 C2838 0.931 . S
C2823 H2811 0.929 . S
C2823 C2817 1.390 . S
C2823 C2820 1.386 . S
C2824 C2819 1.490 . S
C2824 C2826 1.395 . S
C2824 C2827 1.403 . S
H2825 C2831 0.930 . S
C2826 H2812 0.930 . S
C2826 C2824 1.395 . S
C2826 C2829 1.403 . S
C2827 C2824 1.403 . S
C2827 C2828 1.524 . S
C2827 C2831 1.400 . S
C2828 H2813 0.960 . S
C2828 H2814 0.960 . S
C2828 H2815 0.960 . S
C2828 C2827 1.524 . S
C2829 C2826 1.403 . S
C2829 C2830 1.392 . S
C2829 C2833 1.495 . S
C2830 C2829 1.392 . S
C2830 C2831 1.385 . S
C2830 C2832 1.478 . S
C2831 H2825 0.930 . S
C2831 C2827 1.400 . S
C2831 C2830 1.385 . S
C2832 C2830 1.478 . S
C2832 C2834 1.381 . S
C2832 C2838 1.383 . S
C2833 C2829 1.495 . S
C2833 H2839 0.959 . S
C2833 H2840 0.961 . S
C2833 H2841 0.960 . S
C2834 C2832 1.381 . S
C2834 C2835 1.394 . S
C2834 H2842 0.930 . S
C2835 C2834 1.394 . S
C2835 C2836 1.383 . S
C2835 H2843 0.929 . S
C2836 C2835 1.383 . S
C2836 C2837 1.377 . S
C2837 H2821 0.930 . S
C2837 C2836 1.377 . S
C2837 C2838 1.379 . S
C2838 H2822 0.931 . S
C2838 C2832 1.383 . S
C2838 C2837 1.379 . S
H2839 C2833 0.959 . S
H2840 C2833 0.961 . S
H2841 C2833 0.960 . S
H2842 C2834 0.930 . S
H2843 C2835 0.929 . S
H2844 C2852 0.929 . S
H2845 C2854 0.930 . S
H2846 C2856 0.930 . S
H2847 C2859 0.929 . S
H2848 C2862 0.930 . S
H2849 C2864 0.960 . S
H2850 C2864 0.960 . S
H2851 C2864 0.960 . S
C2852 H2844 0.929 . S
C2852 C2853 1.377 . S
C2852 C2854 1.384 . S
C2853 C2852 1.377 . S
C2853 C2859 1.390 . S
C2854 H2845 0.930 . S
C2854 C2852 1.384 . S
C2854 C2855 1.372 . S
C2855 C2854 1.372 . S
C2855 C2856 1.400 . S
C2855 C2860 1.490 . S
C2856 H2846 0.930 . S
C2856 C2855 1.400 . S
C2856 C2859 1.386 . S
H2857 C2873 0.930 . S
H2858 C2874 0.931 . S
C2859 H2847 0.929 . S
C2859 C2853 1.390 . S
C2859 C2856 1.386 . S
C2860 C2855 1.490 . S
C2860 C2862 1.395 . S
C2860 C2863 1.403 . S
H2861 C2867 0.930 . S
C2862 H2848 0.930 . S
C2862 C2860 1.395 . S
C2862 C2865 1.403 . S
C2863 C2860 1.403 . S
C2863 C2864 1.524 . S
C2863 C2867 1.400 . S
C2864 H2849 0.960 . S
C2864 H2850 0.960 . S
C2864 H2851 0.960 . S
C2864 C2863 1.524 . S
C2865 C2862 1.403 . S
C2865 C2866 1.392 . S
C2865 C2869 1.495 . S
C2866 C2865 1.392 . S
C2866 C2867 1.385 . S
C2866 C2868 1.478 . S
C2867 H2861 0.930 . S
C2867 C2863 1.400 . S
C2867 C2866 1.385 . S
C2868 C2866 1.478 . S
C2868 C2870 1.381 . S
C2868 C2874 1.383 . S
C2869 C2865 1.495 . S
C2869 H2875 0.959 . S
C2869 H2876 0.961 . S
C2869 H2877 0.960 . S
C2870 C2868 1.381 . S
C2870 C2871 1.394 . S
C2870 H2878 0.930 . S
C2871 C2870 1.394 . S
C2871 C2872 1.383 . S
C2871 H2879 0.929 . S
C2872 C2871 1.383 . S
C2872 C2873 1.377 . S
C2873 H2857 0.930 . S
C2873 C2872 1.377 . S
C2873 C2874 1.379 . S
C2874 H2858 0.931 . S
C2874 C2868 1.383 . S
C2874 C2873 1.379 . S
H2875 C2869 0.959 . S
H2876 C2869 0.961 . S
H2877 C2869 0.960 . S
H2878 C2870 0.930 . S
H2879 C2871 0.929 . S
H2880 C2888 0.929 . S
H2881 C2890 0.930 . S
H2882 C2892 0.930 . S
H2883 C2895 0.929 . S
H2884 C2898 0.930 . S
H2885 C2900 0.960 . S
H2886 C2900 0.960 . S
H2887 C2900 0.960 . S
C2888 H2880 0.929 . S
C2888 C2889 1.377 . S
C2888 C2890 1.384 . S
C2889 C2888 1.377 . S
C2889 C2895 1.390 . S
C2890 H2881 0.930 . S
C2890 C2888 1.384 . S
C2890 C2891 1.372 . S
C2891 C2890 1.372 . S
C2891 C2892 1.400 . S
C2891 C2896 1.490 . S
C2892 H2882 0.930 . S
C2892 C2891 1.400 . S
C2892 C2895 1.386 . S
H2893 C2909 0.930 . S
H2894 C2910 0.931 . S
C2895 H2883 0.929 . S
C2895 C2889 1.390 . S
C2895 C2892 1.386 . S
C2896 C2891 1.490 . S
C2896 C2898 1.395 . S
C2896 C2899 1.403 . S
H2897 C2903 0.930 . S
C2898 H2884 0.930 . S
C2898 C2896 1.395 . S
C2898 C2901 1.403 . S
C2899 C2896 1.403 . S
C2899 C2900 1.524 . S
C2899 C2903 1.400 . S
C2900 H2885 0.960 . S
C2900 H2886 0.960 . S
C2900 H2887 0.960 . S
C2900 C2899 1.524 . S
C2901 C2898 1.403 . S
C2901 C2902 1.392 . S
C2901 C2905 1.495 . S
C2902 C2901 1.392 . S
C2902 C2903 1.385 . S
C2902 C2904 1.478 . S
C2903 H2897 0.930 . S
C2903 C2899 1.400 . S
C2903 C2902 1.385 . S
C2904 C2902 1.478 . S
C2904 C2906 1.381 . S
C2904 C2910 1.383 . S
C2905 C2901 1.495 . S
C2905 H2911 0.959 . S
C2905 H2912 0.961 . S
C2905 H2913 0.960 . S
C2906 C2904 1.381 . S
C2906 C2907 1.394 . S
C2906 H2914 0.930 . S
C2907 C2906 1.394 . S
C2907 C2908 1.383 . S
C2907 H2915 0.929 . S
C2908 C2907 1.383 . S
C2908 C2909 1.377 . S
C2909 H2893 0.930 . S
C2909 C2908 1.377 . S
C2909 C2910 1.379 . S
C2910 H2894 0.931 . S
C2910 C2904 1.383 . S
C2910 C2909 1.379 . S
H2911 C2905 0.959 . S
H2912 C2905 0.961 . S
H2913 C2905 0.960 . S
H2914 C2906 0.930 . S
H2915 C2907 0.929 . S
H2916 C2924 0.929 . S
H2917 C2926 0.930 . S
H2918 C2928 0.930 . S
H2919 C2931 0.929 . S
H2920 C2934 0.930 . S
H2921 C2936 0.960 . S
H2922 C2936 0.960 . S
H2923 C2936 0.960 . S
C2924 H2916 0.929 . S
C2924 C2925 1.377 . S
C2924 C2926 1.384 . S
C2925 C2924 1.377 . S
C2925 C2931 1.390 . S
C2926 H2917 0.930 . S
C2926 C2924 1.384 . S
C2926 C2927 1.372 . S
C2927 C2926 1.372 . S
C2927 C2928 1.400 . S
C2927 C2932 1.490 . S
C2928 H2918 0.930 . S
C2928 C2927 1.400 . S
C2928 C2931 1.386 . S
H2929 C2945 0.930 . S
H2930 C2946 0.931 . S
C2931 H2919 0.929 . S
C2931 C2925 1.390 . S
C2931 C2928 1.386 . S
C2932 C2927 1.490 . S
C2932 C2934 1.395 . S
C2932 C2935 1.403 . S
H2933 C2939 0.930 . S
C2934 H2920 0.930 . S
C2934 C2932 1.395 . S
C2934 C2937 1.403 . S
C2935 C2932 1.403 . S
C2935 C2936 1.524 . S
C2935 C2939 1.400 . S
C2936 H2921 0.960 . S
C2936 H2922 0.960 . S
C2936 H2923 0.960 . S
C2936 C2935 1.524 . S
C2937 C2934 1.403 . S
C2937 C2938 1.392 . S
C2937 C2941 1.495 . S
C2938 C2937 1.392 . S
C2938 C2939 1.385 . S
C2938 C2940 1.478 . S
C2939 H2933 0.930 . S
C2939 C2935 1.400 . S
C2939 C2938 1.385 . S
C2940 C2938 1.478 . S
C2940 C2942 1.381 . S
C2940 C2946 1.383 . S
C2941 C2937 1.495 . S
C2941 H2947 0.959 . S
C2941 H2948 0.961 . S
C2941 H2949 0.960 . S
C2942 C2940 1.381 . S
C2942 C2943 1.394 . S
C2942 H2950 0.930 . S
C2943 C2942 1.394 . S
C2943 C2944 1.383 . S
C2943 H2951 0.929 . S
C2944 C2943 1.383 . S
C2944 C2945 1.377 . S
C2945 H2929 0.930 . S
C2945 C2944 1.377 . S
C2945 C2946 1.379 . S
C2946 H2930 0.931 . S
C2946 C2940 1.383 . S
C2946 C2945 1.379 . S
H2947 C2941 0.959 . S
H2948 C2941 0.961 . S
H2949 C2941 0.960 . S
H2950 C2942 0.930 . S
H2951 C2943 0.929 . S
H2952 C2960 0.929 . S
H2953 C2962 0.930 . S
H2954 C2964 0.930 . S
H2955 C2967 0.929 . S
H2956 C2970 0.930 . S
H2957 C2972 0.960 . S
H2958 C2972 0.960 . S
H2959 C2972 0.960 . S
C2960 H2952 0.929 . S
C2960 C2961 1.377 . S
C2960 C2962 1.384 . S
C2961 C2960 1.377 . S
C2961 C2967 1.390 . S
C2962 H2953 0.930 . S
C2962 C2960 1.384 . S
C2962 C2963 1.372 . S
C2963 C2962 1.372 . S
C2963 C2964 1.400 . S
C2963 C2968 1.490 . S
C2964 H2954 0.930 . S
C2964 C2963 1.400 . S
C2964 C2967 1.386 . S
H2965 C2981 0.930 . S
H2966 C2982 0.931 . S
C2967 H2955 0.929 . S
C2967 C2961 1.390 . S
C2967 C2964 1.386 . S
C2968 C2963 1.490 . S
C2968 C2970 1.395 . S
C2968 C2971 1.403 . S
H2969 C2975 0.930 . S
C2970 H2956 0.930 . S
C2970 C2968 1.395 . S
C2970 C2973 1.403 . S
C2971 C2968 1.403 . S
C2971 C2972 1.524 . S
C2971 C2975 1.400 . S
C2972 H2957 0.960 . S
C2972 H2958 0.960 . S
C2972 H2959 0.960 . S
C2972 C2971 1.524 . S
C2973 C2970 1.403 . S
C2973 C2974 1.392 . S
C2973 C2977 1.495 . S
C2974 C2973 1.392 . S
C2974 C2975 1.385 . S
C2974 C2976 1.478 . S
C2975 H2969 0.930 . S
C2975 C2971 1.400 . S
C2975 C2974 1.385 . S
C2976 C2974 1.478 . S
C2976 C2978 1.381 . S
C2976 C2982 1.383 . S
C2977 C2973 1.495 . S
C2977 H2983 0.959 . S
C2977 H2984 0.961 . S
C2977 H2985 0.960 . S
C2978 C2976 1.381 . S
C2978 C2979 1.394 . S
C2978 H2986 0.930 . S
C2979 C2978 1.394 . S
C2979 C2980 1.383 . S
C2979 H2987 0.929 . S
C2980 C2979 1.383 . S
C2980 C2981 1.377 . S
C2981 H2965 0.930 . S
C2981 C2980 1.377 . S
C2981 C2982 1.379 . S
C2982 H2966 0.931 . S
C2982 C2976 1.383 . S
C2982 C2981 1.379 . S
H2983 C2977 0.959 . S
H2984 C2977 0.961 . S
H2985 C2977 0.960 . S
H2986 C2978 0.930 . S
H2987 C2979 0.929 . S
H2988 C2996 0.929 . S
H2989 C2998 0.930 . S
H2990 C3000 0.930 . S
H2991 C3003 0.929 . S
H2992 C3006 0.930 . S
H2993 C3008 0.960 . S
H2994 C3008 0.960 . S
H2995 C3008 0.960 . S
C2996 H2988 0.929 . S
C2996 C2997 1.377 . S
C2996 C2998 1.384 . S
C2997 C2996 1.377 . S
C2997 C3003 1.390 . S
C2998 H2989 0.930 . S
C2998 C2996 1.384 . S
C2998 C2999 1.372 . S
C2999 C2998 1.372 . S
C2999 C3000 1.400 . S
C2999 C3004 1.490 . S
C3000 H2990 0.930 . S
C3000 C2999 1.400 . S
C3000 C3003 1.386 . S
H3001 C3017 0.930 . S
H3002 C3018 0.931 . S
C3003 H2991 0.929 . S
C3003 C2997 1.390 . S
C3003 C3000 1.386 . S
C3004 C2999 1.490 . S
C3004 C3006 1.395 . S
C3004 C3007 1.403 . S
H3005 C3011 0.930 . S
C3006 H2992 0.930 . S
C3006 C3004 1.395 . S
C3006 C3009 1.403 . S
C3007 C3004 1.403 . S
C3007 C3008 1.524 . S
C3007 C3011 1.400 . S
C3008 H2993 0.960 . S
C3008 H2994 0.960 . S
C3008 H2995 0.960 . S
C3008 C3007 1.524 . S
C3009 C3006 1.403 . S
C3009 C3010 1.392 . S
C3009 C3013 1.495 . S
C3010 C3009 1.392 . S
C3010 C3011 1.385 . S
C3010 C3012 1.478 . S
C3011 H3005 0.930 . S
C3011 C3007 1.400 . S
C3011 C3010 1.385 . S
C3012 C3010 1.478 . S
C3012 C3014 1.381 . S
C3012 C3018 1.383 . S
C3013 C3009 1.495 . S
C3013 H3019 0.959 . S
C3013 H3020 0.961 . S
C3013 H3021 0.960 . S
C3014 C3012 1.381 . S
C3014 C3015 1.394 . S
C3014 H3022 0.930 . S
C3015 C3014 1.394 . S
C3015 C3016 1.383 . S
C3015 H3023 0.929 . S
C3016 C3015 1.383 . S
C3016 C3017 1.377 . S
C3017 H3001 0.930 . S
C3017 C3016 1.377 . S
C3017 C3018 1.379 . S
C3018 H3002 0.931 . S
C3018 C3012 1.383 . S
C3018 C3017 1.379 . S
H3019 C3013 0.959 . S
H3020 C3013 0.961 . S
H3021 C3013 0.960 . S
H3022 C3014 0.930 . S
H3023 C3015 0.929 . S
H3024 C3032 0.929 . S
H3025 C3034 0.930 . S
H3026 C3036 0.930 . S
H3027 C3039 0.929 . S
H3028 C3042 0.930 . S
H3029 C3044 0.960 . S
H3030 C3044 0.960 . S
H3031 C3044 0.960 . S
C3032 H3024 0.929 . S
C3032 C3033 1.377 . S
C3032 C3034 1.384 . S
C3033 C3032 1.377 . S
C3033 C3039 1.390 . S
C3034 H3025 0.930 . S
C3034 C3032 1.384 . S
C3034 C3035 1.372 . S
C3035 C3034 1.372 . S
C3035 C3036 1.400 . S
C3035 C3040 1.490 . S
C3036 H3026 0.930 . S
C3036 C3035 1.400 . S
C3036 C3039 1.386 . S
H3037 C3053 0.930 . S
H3038 C3054 0.931 . S
C3039 H3027 0.929 . S
C3039 C3033 1.390 . S
C3039 C3036 1.386 . S
C3040 C3035 1.490 . S
C3040 C3042 1.395 . S
C3040 C3043 1.403 . S
H3041 C3047 0.930 . S
C3042 H3028 0.930 . S
C3042 C3040 1.395 . S
C3042 C3045 1.403 . S
C3043 C3040 1.403 . S
C3043 C3044 1.524 . S
C3043 C3047 1.400 . S
C3044 H3029 0.960 . S
C3044 H3030 0.960 . S
C3044 H3031 0.960 . S
C3044 C3043 1.524 . S
C3045 C3042 1.403 . S
C3045 C3046 1.392 . S
C3045 C3049 1.495 . S
C3046 C3045 1.392 . S
C3046 C3047 1.385 . S
C3046 C3048 1.478 . S
C3047 H3041 0.930 . S
C3047 C3043 1.400 . S
C3047 C3046 1.385 . S
C3048 C3046 1.478 . S
C3048 C3050 1.381 . S
C3048 C3054 1.383 . S
C3049 C3045 1.495 . S
C3049 H3055 0.959 . S
C3049 H3056 0.961 . S
C3049 H3057 0.960 . S
C3050 C3048 1.381 . S
C3050 C3051 1.394 . S
C3050 H3058 0.930 . S
C3051 C3050 1.394 . S
C3051 C3052 1.383 . S
C3051 H3059 0.929 . S
C3052 C3051 1.383 . S
C3052 C3053 1.377 . S
C3053 H3037 0.930 . S
C3053 C3052 1.377 . S
C3053 C3054 1.379 . S
C3054 H3038 0.931 . S
C3054 C3048 1.383 . S
C3054 C3053 1.379 . S
H3055 C3049 0.959 . S
H3056 C3049 0.961 . S
H3057 C3049 0.960 . S
H3058 C3050 0.930 . S
H3059 C3051 0.929 . S
H3060 C3068 0.929 . S
H3061 C3070 0.930 . S
H3062 C3072 0.930 . S
H3063 C3075 0.929 . S
H3064 C3078 0.930 . S
H3065 C3080 0.960 . S
H3066 C3080 0.960 . S
H3067 C3080 0.960 . S
C3068 H3060 0.929 . S
C3068 C3069 1.377 . S
C3068 C3070 1.384 . S
C3069 C3068 1.377 . S
C3069 C3075 1.390 . S
C3070 H3061 0.930 . S
C3070 C3068 1.384 . S
C3070 C3071 1.372 . S
C3071 C3070 1.372 . S
C3071 C3072 1.400 . S
C3071 C3076 1.490 . S
C3072 H3062 0.930 . S
C3072 C3071 1.400 . S
C3072 C3075 1.386 . S
H3073 C3089 0.930 . S
H3074 C3090 0.931 . S
C3075 H3063 0.929 . S
C3075 C3069 1.390 . S
C3075 C3072 1.386 . S
C3076 C3071 1.490 . S
C3076 C3078 1.395 . S
C3076 C3079 1.403 . S
H3077 C3083 0.930 . S
C3078 H3064 0.930 . S
C3078 C3076 1.395 . S
C3078 C3081 1.403 . S
C3079 C3076 1.403 . S
C3079 C3080 1.524 . S
C3079 C3083 1.400 . S
C3080 H3065 0.960 . S
C3080 H3066 0.960 . S
C3080 H3067 0.960 . S
C3080 C3079 1.524 . S
C3081 C3078 1.403 . S
C3081 C3082 1.392 . S
C3081 C3085 1.495 . S
C3082 C3081 1.392 . S
C3082 C3083 1.385 . S
C3082 C3084 1.478 . S
C3083 H3077 0.930 . S
C3083 C3079 1.400 . S
C3083 C3082 1.385 . S
C3084 C3082 1.478 . S
C3084 C3086 1.381 . S
C3084 C3090 1.383 . S
C3085 C3081 1.495 . S
C3085 H3091 0.959 . S
C3085 H3092 0.961 . S
C3085 H3093 0.960 . S
C3086 C3084 1.381 . S
C3086 C3087 1.394 . S
C3086 H3094 0.930 . S
C3087 C3086 1.394 . S
C3087 C3088 1.383 . S
C3087 H3095 0.929 . S
C3088 C3087 1.383 . S
C3088 C3089 1.377 . S
C3089 H3073 0.930 . S
C3089 C3088 1.377 . S
C3089 C3090 1.379 . S
C3090 H3074 0.931 . S
C3090 C3084 1.383 . S
C3090 C3089 1.379 . S
H3091 C3085 0.959 . S
H3092 C3085 0.961 . S
H3093 C3085 0.960 . S
H3094 C3086 0.930 . S
H3095 C3087 0.929 . S
H3096 C3104 0.929 . S
H3097 C3106 0.930 . S
H3098 C3108 0.930 . S
H3099 C3111 0.929 . S
H3100 C3114 0.930 . S
H3101 C3116 0.960 . S
H3102 C3116 0.960 . S
H3103 C3116 0.960 . S
C3104 H3096 0.929 . S
C3104 C3105 1.377 . S
C3104 C3106 1.384 . S
C3105 C3104 1.377 . S
C3105 C3111 1.390 . S
C3106 H3097 0.930 . S
C3106 C3104 1.384 . S
C3106 C3107 1.372 . S
C3107 C3106 1.372 . S
C3107 C3108 1.400 . S
C3107 C3112 1.490 . S
C3108 H3098 0.930 . S
C3108 C3107 1.400 . S
C3108 C3111 1.386 . S
H3109 C3125 0.930 . S
H3110 C3126 0.931 . S
C3111 H3099 0.929 . S
C3111 C3105 1.390 . S
C3111 C3108 1.386 . S
C3112 C3107 1.490 . S
C3112 C3114 1.395 . S
C3112 C3115 1.403 . S
H3113 C3119 0.930 . S
C3114 H3100 0.930 . S
C3114 C3112 1.395 . S
C3114 C3117 1.403 . S
C3115 C3112 1.403 . S
C3115 C3116 1.524 . S
C3115 C3119 1.400 . S
C3116 H3101 0.960 . S
C3116 H3102 0.960 . S
C3116 H3103 0.960 . S
C3116 C3115 1.524 . S
C3117 C3114 1.403 . S
C3117 C3118 1.392 . S
C3117 C3121 1.495 . S
C3118 C3117 1.392 . S
C3118 C3119 1.385 . S
C3118 C3120 1.478 . S
C3119 H3113 0.930 . S
C3119 C3115 1.400 . S
C3119 C3118 1.385 . S
C3120 C3118 1.478 . S
C3120 C3122 1.381 . S
C3120 C3126 1.383 . S
C3121 C3117 1.495 . S
C3121 H3127 0.959 . S
C3121 H3128 0.961 . S
C3121 H3129 0.960 . S
C3122 C3120 1.381 . S
C3122 C3123 1.394 . S
C3122 H3130 0.930 . S
C3123 C3122 1.394 . S
C3123 C3124 1.383 . S
C3123 H3131 0.929 . S
C3124 C3123 1.383 . S
C3124 C3125 1.377 . S
C3125 H3109 0.930 . S
C3125 C3124 1.377 . S
C3125 C3126 1.379 . S
C3126 H3110 0.931 . S
C3126 C3120 1.383 . S
C3126 C3125 1.379 . S
H3127 C3121 0.959 . S
H3128 C3121 0.961 . S
H3129 C3121 0.960 . S
H3130 C3122 0.930 . S
H3131 C3123 0.929 . S
H3132 C3140 0.929 . S
H3133 C3142 0.930 . S
H3134 C3144 0.930 . S
H3135 C3147 0.929 . S
H3136 C3150 0.930 . S
H3137 C3152 0.960 . S
H3138 C3152 0.960 . S
H3139 C3152 0.960 . S
C3140 H3132 0.929 . S
C3140 C3141 1.377 . S
C3140 C3142 1.384 . S
C3141 C3140 1.377 . S
C3141 C3147 1.390 . S
C3142 H3133 0.930 . S
C3142 C3140 1.384 . S
C3142 C3143 1.372 . S
C3143 C3142 1.372 . S
C3143 C3144 1.400 . S
C3143 C3148 1.490 . S
C3144 H3134 0.930 . S
C3144 C3143 1.400 . S
C3144 C3147 1.386 . S
H3145 C3161 0.930 . S
H3146 C3162 0.931 . S
C3147 H3135 0.929 . S
C3147 C3141 1.390 . S
C3147 C3144 1.386 . S
C3148 C3143 1.490 . S
C3148 C3150 1.395 . S
C3148 C3151 1.403 . S
H3149 C3155 0.930 . S
C3150 H3136 0.930 . S
C3150 C3148 1.395 . S
C3150 C3153 1.403 . S
C3151 C3148 1.403 . S
C3151 C3152 1.524 . S
C3151 C3155 1.400 . S
C3152 H3137 0.960 . S
C3152 H3138 0.960 . S
C3152 H3139 0.960 . S
C3152 C3151 1.524 . S
C3153 C3150 1.403 . S
C3153 C3154 1.392 . S
C3153 C3157 1.495 . S
C3154 C3153 1.392 . S
C3154 C3155 1.385 . S
C3154 C3156 1.478 . S
C3155 H3149 0.930 . S
C3155 C3151 1.400 . S
C3155 C3154 1.385 . S
C3156 C3154 1.478 . S
C3156 C3158 1.381 . S
C3156 C3162 1.383 . S
C3157 C3153 1.495 . S
C3157 H3163 0.959 . S
C3157 H3164 0.961 . S
C3157 H3165 0.960 . S
C3158 C3156 1.381 . S
C3158 C3159 1.394 . S
C3158 H3166 0.930 . S
C3159 C3158 1.394 . S
C3159 C3160 1.383 . S
C3159 H3167 0.929 . S
C3160 C3159 1.383 . S
C3160 C3161 1.377 . S
C3161 H3145 0.930 . S
C3161 C3160 1.377 . S
C3161 C3162 1.379 . S
C3162 H3146 0.931 . S
C3162 C3156 1.383 . S
C3162 C3161 1.379 . S
H3163 C3157 0.959 . S
H3164 C3157 0.961 . S
H3165 C3157 0.960 . S
H3166 C3158 0.930 . S
H3167 C3159 0.929 . S
H3168 C3176 0.929 . S
H3169 C3178 0.930 . S
H3170 C3180 0.930 . S
H3171 C3183 0.929 . S
H3172 C3186 0.930 . S
H3173 C3188 0.960 . S
H3174 C3188 0.960 . S
H3175 C3188 0.960 . S
C3176 H3168 0.929 . S
C3176 C3177 1.377 . S
C3176 C3178 1.384 . S
C3177 C3176 1.377 . S
C3177 C3183 1.390 . S
C3178 H3169 0.930 . S
C3178 C3176 1.384 . S
C3178 C3179 1.372 . S
C3179 C3178 1.372 . S
C3179 C3180 1.400 . S
C3179 C3184 1.490 . S
C3180 H3170 0.930 . S
C3180 C3179 1.400 . S
C3180 C3183 1.386 . S
H3181 C3197 0.930 . S
H3182 C3198 0.931 . S
C3183 H3171 0.929 . S
C3183 C3177 1.390 . S
C3183 C3180 1.386 . S
C3184 C3179 1.490 . S
C3184 C3186 1.395 . S
C3184 C3187 1.403 . S
H3185 C3191 0.930 . S
C3186 H3172 0.930 . S
C3186 C3184 1.395 . S
C3186 C3189 1.403 . S
C3187 C3184 1.403 . S
C3187 C3188 1.524 . S
C3187 C3191 1.400 . S
C3188 H3173 0.960 . S
C3188 H3174 0.960 . S
C3188 H3175 0.960 . S
C3188 C3187 1.524 . S
C3189 C3186 1.403 . S
C3189 C3190 1.392 . S
C3189 C3193 1.495 . S
C3190 C3189 1.392 . S
C3190 C3191 1.385 . S
C3190 C3192 1.478 . S
C3191 H3185 0.930 . S
C3191 C3187 1.400 . S
C3191 C3190 1.385 . S
C3192 C3190 1.478 . S
C3192 C3194 1.381 . S
C3192 C3198 1.383 . S
C3193 C3189 1.495 . S
C3193 H3199 0.959 . S
C3193 H3200 0.961 . S
C3193 H3201 0.960 . S
C3194 C3192 1.381 . S
C3194 C3195 1.394 . S
C3194 H3202 0.930 . S
C3195 C3194 1.394 . S
C3195 C3196 1.383 . S
C3195 H3203 0.929 . S
C3196 C3195 1.383 . S
C3196 C3197 1.377 . S
C3197 H3181 0.930 . S
C3197 C3196 1.377 . S
C3197 C3198 1.379 . S
C3198 H3182 0.931 . S
C3198 C3192 1.383 . S
C3198 C3197 1.379 . S
H3199 C3193 0.959 . S
H3200 C3193 0.961 . S
H3201 C3193 0.960 . S
H3202 C3194 0.930 . S
H3203 C3195 0.929 . S
H3204 C3212 0.929 . S
H3205 C3214 0.930 . S
H3206 C3216 0.930 . S
H3207 C3219 0.929 . S
H3208 C3222 0.930 . S
H3209 C3224 0.960 . S
H3210 C3224 0.960 . S
H3211 C3224 0.960 . S
C3212 H3204 0.929 . S
C3212 C3213 1.377 . S
C3212 C3214 1.384 . S
C3213 C3212 1.377 . S
C3213 C3219 1.390 . S
C3214 H3205 0.930 . S
C3214 C3212 1.384 . S
C3214 C3215 1.372 . S
C3215 C3214 1.372 . S
C3215 C3216 1.400 . S
C3215 C3220 1.490 . S
C3216 H3206 0.930 . S
C3216 C3215 1.400 . S
C3216 C3219 1.386 . S
H3217 C3233 0.930 . S
H3218 C3234 0.931 . S
C3219 H3207 0.929 . S
C3219 C3213 1.390 . S
C3219 C3216 1.386 . S
C3220 C3215 1.490 . S
C3220 C3222 1.395 . S
C3220 C3223 1.403 . S
H3221 C3227 0.930 . S
C3222 H3208 0.930 . S
C3222 C3220 1.395 . S
C3222 C3225 1.403 . S
C3223 C3220 1.403 . S
C3223 C3224 1.524 . S
C3223 C3227 1.400 . S
C3224 H3209 0.960 . S
C3224 H3210 0.960 . S
C3224 H3211 0.960 . S
C3224 C3223 1.524 . S
C3225 C3222 1.403 . S
C3225 C3226 1.392 . S
C3225 C3229 1.495 . S
C3226 C3225 1.392 . S
C3226 C3227 1.385 . S
C3226 C3228 1.478 . S
C3227 H3221 0.930 . S
C3227 C3223 1.400 . S
C3227 C3226 1.385 . S
C3228 C3226 1.478 . S
C3228 C3230 1.381 . S
C3228 C3234 1.383 . S
C3229 C3225 1.495 . S
C3229 H3235 0.959 . S
C3229 H3236 0.961 . S
C3229 H3237 0.960 . S
C3230 C3228 1.381 . S
C3230 C3231 1.394 . S
C3230 H3238 0.930 . S
C3231 C3230 1.394 . S
C3231 C3232 1.383 . S
C3231 H3239 0.929 . S
C3232 C3231 1.383 . S
C3232 C3233 1.377 . S
C3233 H3217 0.930 . S
C3233 C3232 1.377 . S
C3233 C3234 1.379 . S
C3234 H3218 0.931 . S
C3234 C3228 1.383 . S
C3234 C3233 1.379 . S
H3235 C3229 0.959 . S
H3236 C3229 0.961 . S
H3237 C3229 0.960 . S
H3238 C3230 0.930 . S
H3239 C3231 0.929 . S
H3240 C3248 0.929 . S
H3241 C3250 0.930 . S
H3242 C3252 0.930 . S
H3243 C3255 0.929 . S
H3244 C3258 0.930 . S
H3245 C3260 0.960 . S
H3246 C3260 0.960 . S
H3247 C3260 0.960 . S
C3248 H3240 0.929 . S
C3248 C3249 1.377 . S
C3248 C3250 1.384 . S
C3249 C3248 1.377 . S
C3249 C3255 1.390 . S
C3250 H3241 0.930 . S
C3250 C3248 1.384 . S
C3250 C3251 1.372 . S
C3251 C3250 1.372 . S
C3251 C3252 1.400 . S
C3251 C3256 1.490 . S
C3252 H3242 0.930 . S
C3252 C3251 1.400 . S
C3252 C3255 1.386 . S
H3253 C3269 0.930 . S
H3254 C3270 0.931 . S
C3255 H3243 0.929 . S
C3255 C3249 1.390 . S
C3255 C3252 1.386 . S
C3256 C3251 1.490 . S
C3256 C3258 1.395 . S
C3256 C3259 1.403 . S
H3257 C3263 0.930 . S
C3258 H3244 0.930 . S
C3258 C3256 1.395 . S
C3258 C3261 1.403 . S
C3259 C3256 1.403 . S
C3259 C3260 1.524 . S
C3259 C3263 1.400 . S
C3260 H3245 0.960 . S
C3260 H3246 0.960 . S
C3260 H3247 0.960 . S
C3260 C3259 1.524 . S
C3261 C3258 1.403 . S
C3261 C3262 1.392 . S
C3261 C3265 1.495 . S
C3262 C3261 1.392 . S
C3262 C3263 1.385 . S
C3262 C3264 1.478 . S
C3263 H3257 0.930 . S
C3263 C3259 1.400 . S
C3263 C3262 1.385 . S
C3264 C3262 1.478 . S
C3264 C3266 1.381 . S
C3264 C3270 1.383 . S
C3265 C3261 1.495 . S
C3265 H3271 0.959 . S
C3265 H3272 0.961 . S
C3265 H3273 0.960 . S
C3266 C3264 1.381 . S
C3266 C3267 1.394 . S
C3266 H3274 0.930 . S
C3267 C3266 1.394 . S
C3267 C3268 1.383 . S
C3267 H3275 0.929 . S
C3268 C3267 1.383 . S
C3268 C3269 1.377 . S
C3269 H3253 0.930 . S
C3269 C3268 1.377 . S
C3269 C3270 1.379 . S
C3270 H3254 0.931 . S
C3270 C3264 1.383 . S
C3270 C3269 1.379 . S
H3271 C3265 0.959 . S
H3272 C3265 0.961 . S
H3273 C3265 0.960 . S
H3274 C3266 0.930 . S
H3275 C3267 0.929 . S
H3276 C3284 0.929 . S
H3277 C3286 0.930 . S
H3278 C3288 0.930 . S
H3279 C3291 0.929 . S
H3280 C3294 0.930 . S
H3281 C3296 0.960 . S
H3282 C3296 0.960 . S
H3283 C3296 0.960 . S
C3284 H3276 0.929 . S
C3284 C3285 1.377 . S
C3284 C3286 1.384 . S
C3285 C3284 1.377 . S
C3285 C3291 1.390 . S
C3286 H3277 0.930 . S
C3286 C3284 1.384 . S
C3286 C3287 1.372 . S
C3287 C3286 1.372 . S
C3287 C3288 1.400 . S
C3287 C3292 1.490 . S
C3288 H3278 0.930 . S
C3288 C3287 1.400 . S
C3288 C3291 1.386 . S
H3289 C3305 0.930 . S
H3290 C3306 0.931 . S
C3291 H3279 0.929 . S
C3291 C3285 1.390 . S
C3291 C3288 1.386 . S
C3292 C3287 1.490 . S
C3292 C3294 1.395 . S
C3292 C3295 1.403 . S
H3293 C3299 0.930 . S
C3294 H3280 0.930 . S
C3294 C3292 1.395 . S
C3294 C3297 1.403 . S
C3295 C3292 1.403 . S
C3295 C3296 1.524 . S
C3295 C3299 1.400 . S
C3296 H3281 0.960 . S
C3296 H3282 0.960 . S
C3296 H3283 0.960 . S
C3296 C3295 1.524 . S
C3297 C3294 1.403 . S
C3297 C3298 1.392 . S
C3297 C3301 1.495 . S
C3298 C3297 1.392 . S
C3298 C3299 1.385 . S
C3298 C3300 1.478 . S
C3299 H3293 0.930 . S
C3299 C3295 1.400 . S
C3299 C3298 1.385 . S
C3300 C3298 1.478 . S
C3300 C3302 1.381 . S
C3300 C3306 1.383 . S
C3301 C3297 1.495 . S
C3301 H3307 0.959 . S
C3301 H3308 0.961 . S
C3301 H3309 0.960 . S
C3302 C3300 1.381 . S
C3302 C3303 1.394 . S
C3302 H3310 0.930 . S
C3303 C3302 1.394 . S
C3303 C3304 1.383 . S
C3303 H3311 0.929 . S
C3304 C3303 1.383 . S
C3304 C3305 1.377 . S
C3305 H3289 0.930 . S
C3305 C3304 1.377 . S
C3305 C3306 1.379 . S
C3306 H3290 0.931 . S
C3306 C3300 1.383 . S
C3306 C3305 1.379 . S
H3307 C3301 0.959 . S
H3308 C3301 0.961 . S
H3309 C3301 0.960 . S
H3310 C3302 0.930 . S
H3311 C3303 0.929 . S
H3312 C3320 0.929 . S
H3313 C3322 0.930 . S
H3314 C3324 0.930 . S
H3315 C3327 0.929 . S
H3316 C3330 0.930 . S
H3317 C3332 0.960 . S
H3318 C3332 0.960 . S
H3319 C3332 0.960 . S
C3320 H3312 0.929 . S
C3320 C3321 1.377 . S
C3320 C3322 1.384 . S
C3321 C3320 1.377 . S
C3321 C3327 1.390 . S
C3322 H3313 0.930 . S
C3322 C3320 1.384 . S
C3322 C3323 1.372 . S
C3323 C3322 1.372 . S
C3323 C3324 1.400 . S
C3323 C3328 1.490 . S
C3324 H3314 0.930 . S
C3324 C3323 1.400 . S
C3324 C3327 1.386 . S
H3325 C3341 0.930 . S
H3326 C3342 0.931 . S
C3327 H3315 0.929 . S
C3327 C3321 1.390 . S
C3327 C3324 1.386 . S
C3328 C3323 1.490 . S
C3328 C3330 1.395 . S
C3328 C3331 1.403 . S
H3329 C3335 0.930 . S
C3330 H3316 0.930 . S
C3330 C3328 1.395 . S
C3330 C3333 1.403 . S
C3331 C3328 1.403 . S
C3331 C3332 1.524 . S
C3331 C3335 1.400 . S
C3332 H3317 0.960 . S
C3332 H3318 0.960 . S
C3332 H3319 0.960 . S
C3332 C3331 1.524 . S
C3333 C3330 1.403 . S
C3333 C3334 1.392 . S
C3333 C3337 1.495 . S
C3334 C3333 1.392 . S
C3334 C3335 1.385 . S
C3334 C3336 1.478 . S
C3335 H3329 0.930 . S
C3335 C3331 1.400 . S
C3335 C3334 1.385 . S
C3336 C3334 1.478 . S
C3336 C3338 1.381 . S
C3336 C3342 1.383 . S
C3337 C3333 1.495 . S
C3337 H3343 0.959 . S
C3337 H3344 0.961 . S
C3337 H3345 0.960 . S
C3338 C3336 1.381 . S
C3338 C3339 1.394 . S
C3338 H3346 0.930 . S
C3339 C3338 1.394 . S
C3339 C3340 1.383 . S
C3339 H3347 0.929 . S
C3340 C3339 1.383 . S
C3340 C3341 1.377 . S
C3341 H3325 0.930 . S
C3341 C3340 1.377 . S
C3341 C3342 1.379 . S
C3342 H3326 0.931 . S
C3342 C3336 1.383 . S
C3342 C3341 1.379 . S
H3343 C3337 0.959 . S
H3344 C3337 0.961 . S
H3345 C3337 0.960 . S
H3346 C3338 0.930 . S
H3347 C3339 0.929 . S
H3348 C3356 0.929 1_554 S
H3349 C3358 0.930 . S
H3350 C3360 0.930 . S
H3351 C3363 0.929 . S
H3352 C3366 0.930 . S
H3353 C3368 0.960 . S
H3354 C3368 0.960 . S
H3355 C3368 0.960 . S
C3356 H3348 0.929 1_556 S
C3356 C3357 1.377 . S
C3356 C3358 1.384 . S
C3357 C3356 1.377 . S
C3357 C3363 1.390 . S
C3358 H3349 0.930 . S
C3358 C3356 1.384 . S
C3358 C3359 1.372 . S
C3359 C3358 1.372 . S
C3359 C3360 1.400 . S
C3359 C3364 1.490 . S
C3360 H3350 0.930 . S
C3360 C3359 1.400 . S
C3360 C3363 1.386 . S
H3361 C3377 0.930 . S
H3362 C3378 0.931 . S
C3363 H3351 0.929 . S
C3363 C3357 1.390 . S
C3363 C3360 1.386 . S
C3364 C3359 1.490 . S
C3364 C3366 1.395 . S
C3364 C3367 1.403 . S
H3365 C3371 0.930 . S
C3366 H3352 0.930 . S
C3366 C3364 1.395 . S
C3366 C3369 1.403 . S
C3367 C3364 1.403 . S
C3367 C3368 1.524 . S
C3367 C3371 1.400 . S
C3368 H3353 0.960 . S
C3368 H3354 0.960 . S
C3368 H3355 0.960 . S
C3368 C3367 1.524 . S
C3369 C3366 1.403 . S
C3369 C3370 1.392 . S
C3369 C3373 1.495 . S
C3370 C3369 1.392 . S
C3370 C3371 1.385 . S
C3370 C3372 1.478 . S
C3371 H3365 0.930 . S
C3371 C3367 1.400 . S
C3371 C3370 1.385 . S
C3372 C3370 1.478 . S
C3372 C3374 1.381 . S
C3372 C3378 1.383 . S
C3373 C3369 1.495 . S
C3373 H3379 0.959 . S
C3373 H3380 0.961 . S
C3373 H3381 0.960 . S
C3374 C3372 1.381 . S
C3374 C3375 1.394 . S
C3374 H3382 0.930 . S
C3375 C3374 1.394 . S
C3375 C3376 1.383 . S
C3375 H3383 0.929 . S
C3376 C3375 1.383 . S
C3376 C3377 1.377 . S
C3377 H3361 0.930 . S
C3377 C3376 1.377 . S
C3377 C3378 1.379 . S
C3378 H3362 0.931 . S
C3378 C3372 1.383 . S
C3378 C3377 1.379 . S
H3379 C3373 0.959 . S
H3380 C3373 0.961 . S
H3381 C3373 0.960 . S
H3382 C3374 0.930 . S
H3383 C3375 0.929 . S
H3384 C3392 0.929 . S
H3385 C3394 0.930 . S
H3386 C3396 0.930 . S
H3387 C3399 0.929 1_554 S
H3388 C3402 0.930 . S
H3389 C3404 0.960 . S
H3390 C3404 0.960 . S
H3391 C3404 0.960 . S
C3392 H3384 0.929 . S
C3392 C3393 1.377 . S
C3392 C3394 1.384 . S
C3393 C3392 1.377 . S
C3393 C3399 1.390 . S
C3394 H3385 0.930 . S
C3394 C3392 1.384 . S
C3394 C3395 1.372 . S
C3395 C3394 1.372 . S
C3395 C3396 1.400 . S
C3395 C3400 1.490 . S
C3396 H3386 0.930 . S
C3396 C3395 1.400 . S
C3396 C3399 1.386 . S
H3397 C3413 0.930 . S
H3398 C3414 0.931 . S
C3399 H3387 0.929 1_556 S
C3399 C3393 1.390 . S
C3399 C3396 1.386 . S
C3400 C3395 1.490 . S
C3400 C3402 1.395 . S
C3400 C3403 1.403 . S
H3401 C3407 0.930 . S
C3402 H3388 0.930 . S
C3402 C3400 1.395 . S
C3402 C3405 1.403 . S
C3403 C3400 1.403 . S
C3403 C3404 1.524 . S
C3403 C3407 1.400 . S
C3404 H3389 0.960 . S
C3404 H3390 0.960 . S
C3404 H3391 0.960 . S
C3404 C3403 1.524 . S
C3405 C3402 1.403 . S
C3405 C3406 1.392 . S
C3405 C3409 1.495 . S
C3406 C3405 1.392 . S
C3406 C3407 1.385 . S
C3406 C3408 1.478 . S
C3407 H3401 0.930 . S
C3407 C3403 1.400 . S
C3407 C3406 1.385 . S
C3408 C3406 1.478 . S
C3408 C3410 1.381 . S
C3408 C3414 1.383 . S
C3409 C3405 1.495 . S
C3409 H3415 0.959 . S
C3409 H3416 0.961 . S
C3409 H3417 0.960 . S
C3410 C3408 1.381 . S
C3410 C3411 1.394 . S
C3410 H3418 0.930 . S
C3411 C3410 1.394 . S
C3411 C3412 1.383 . S
C3411 H3419 0.929 . S
C3412 C3411 1.383 . S
C3412 C3413 1.377 . S
C3413 H3397 0.930 . S
C3413 C3412 1.377 . S
C3413 C3414 1.379 . S
C3414 H3398 0.931 . S
C3414 C3408 1.383 . S
C3414 C3413 1.379 . S
H3415 C3409 0.959 . S
H3416 C3409 0.961 . S
H3417 C3409 0.960 . S
H3418 C3410 0.930 . S
H3419 C3411 0.929 . S
H3420 C3428 0.929 . S
H3421 C3430 0.930 . S
H3422 C3432 0.930 . S
H3423 C3435 0.929 . S
H3424 C3438 0.930 . S
H3425 C3440 0.942 1_554 S
H3426 C3440 0.943 1_554 S
H3427 C3440 0.966 . S
C3428 H3420 0.929 . S
C3428 C3429 1.377 . S
C3428 C3430 1.384 . S
C3429 C3428 1.377 . S
C3429 C3435 1.390 . S
C3430 H3421 0.930 . S
C3430 C3428 1.384 . S
C3430 C3431 1.372 . S
C3431 C3430 1.372 . S
C3431 C3432 1.400 . S
C3431 C3436 1.490 . S
C3432 H3422 0.930 . S
C3432 C3431 1.400 . S
C3432 C3435 1.386 . S
H3433 C3449 0.930 . S
H3434 C3450 0.931 . S
C3435 H3423 0.929 . S
C3435 C3429 1.390 . S
C3435 C3432 1.386 . S
C3436 C3431 1.490 . S
C3436 C3438 1.395 . S
C3436 C3439 1.403 . S
H3437 C3443 0.930 . S
C3438 H3424 0.930 . S
C3438 C3436 1.395 . S
C3438 C3441 1.403 . S
C3439 C3436 1.403 . S
C3439 C3440 1.524 . S
C3439 C3443 1.400 . S
C3440 H3425 0.942 1_556 S
C3440 H3426 0.943 1_556 S
C3440 H3427 0.966 . S
C3440 C3439 1.524 . S
C3441 C3438 1.403 . S
C3441 C3442 1.392 . S
C3441 C3445 1.495 . S
C3442 C3441 1.392 . S
C3442 C3443 1.385 . S
C3442 C3444 1.478 . S
C3443 H3437 0.930 . S
C3443 C3439 1.400 . S
C3443 C3442 1.385 . S
C3444 C3442 1.478 . S
C3444 C3446 1.381 . S
C3444 C3450 1.383 . S
C3445 C3441 1.495 . S
C3445 H3451 0.959 . S
C3445 H3452 0.961 . S
C3445 H3453 0.960 . S
C3446 C3444 1.381 . S
C3446 C3447 1.394 . S
C3446 H3454 0.930 . S
C3447 C3446 1.394 . S
C3447 C3448 1.383 . S
C3447 H3455 0.929 . S
C3448 C3447 1.383 . S
C3448 C3449 1.377 . S
C3449 H3433 0.930 . S
C3449 C3448 1.377 . S
C3449 C3450 1.379 . S
C3450 H3434 0.931 . S
C3450 C3444 1.383 . S
C3450 C3449 1.379 . S
H3451 C3445 0.959 . S
H3452 C3445 0.961 . S
H3453 C3445 0.960 . S
H3454 C3446 0.930 . S
H3455 C3447 0.929 . S
H3456 C3464 0.929 . S
H3457 C3466 0.930 . S
H3458 C3468 0.930 . S
H3459 C3471 0.929 . S
H3460 C3474 0.930 . S
H3461 C3476 0.960 . S
H3462 C3476 0.960 . S
H3463 C3476 0.960 . S
C3464 H3456 0.929 . S
C3464 C3465 1.377 . S
C3464 C3466 1.384 . S
C3465 C3464 1.377 . S
C3465 C3471 1.390 . S
C3466 H3457 0.930 . S
C3466 C3464 1.384 . S
C3466 C3467 1.372 . S
C3467 C3466 1.372 . S
C3467 C3468 1.400 . S
C3467 C3472 1.490 . S
C3468 H3458 0.930 . S
C3468 C3467 1.400 . S
C3468 C3471 1.386 . S
H3469 C3485 0.930 . S
H3470 C3486 0.931 . S
C3471 H3459 0.929 . S
C3471 C3465 1.390 . S
C3471 C3468 1.386 . S
C3472 C3467 1.490 . S
C3472 C3474 1.395 . S
C3472 C3475 1.403 . S
H3473 C3479 0.930 . S
C3474 H3460 0.930 . S
C3474 C3472 1.395 . S
C3474 C3477 1.403 . S
C3475 C3472 1.403 . S
C3475 C3476 1.524 . S
C3475 C3479 1.400 . S
C3476 H3461 0.960 . S
C3476 H3462 0.960 . S
C3476 H3463 0.960 . S
C3476 C3475 1.524 . S
C3477 C3474 1.403 . S
C3477 C3478 1.392 . S
C3477 C3481 1.495 . S
C3478 C3477 1.392 . S
C3478 C3479 1.385 . S
C3478 C3480 1.478 . S
C3479 H3473 0.930 . S
C3479 C3475 1.400 . S
C3479 C3478 1.385 . S
C3480 C3478 1.478 . S
C3480 C3482 1.381 . S
C3480 C3486 1.383 . S
C3481 C3477 1.495 . S
C3481 H3487 0.959 . S
C3481 H3488 0.961 . S
C3481 H3489 0.960 . S
C3482 C3480 1.381 . S
C3482 C3483 1.394 . S
C3482 H3490 0.930 . S
C3483 C3482 1.394 . S
C3483 C3484 1.383 . S
C3483 H3491 0.929 . S
C3484 C3483 1.383 . S
C3484 C3485 1.377 . S
C3485 H3469 0.930 . S
C3485 C3484 1.377 . S
C3485 C3486 1.379 . S
C3486 H3470 0.931 . S
C3486 C3480 1.383 . S
C3486 C3485 1.379 . S
H3487 C3481 0.959 . S
H3488 C3481 0.961 . S
H3489 C3481 0.960 . S
H3490 C3482 0.930 . S
H3491 C3483 0.929 . S
H3492 C3500 0.929 1_554 S
H3493 C3502 0.930 . S
H3494 C3504 0.930 . S
H3495 C3507 0.929 . S
H3496 C3510 0.930 . S
H3497 C3512 0.960 . S
H3498 C3512 0.960 . S
H3499 C3512 0.960 . S
C3500 H3492 0.929 1_556 S
C3500 C3501 1.377 . S
C3500 C3502 1.384 . S
C3501 C3500 1.377 . S
C3501 C3507 1.390 . S
C3502 H3493 0.930 . S
C3502 C3500 1.384 . S
C3502 C3503 1.372 . S
C3503 C3502 1.372 . S
C3503 C3504 1.400 . S
C3503 C3508 1.490 . S
C3504 H3494 0.930 . S
C3504 C3503 1.400 . S
C3504 C3507 1.386 . S
H3505 C3521 0.930 . S
H3506 C3522 0.931 . S
C3507 H3495 0.929 . S
C3507 C3501 1.390 . S
C3507 C3504 1.386 . S
C3508 C3503 1.490 . S
C3508 C3510 1.395 . S
C3508 C3511 1.403 . S
H3509 C3515 0.930 . S
C3510 H3496 0.930 . S
C3510 C3508 1.395 . S
C3510 C3513 1.403 . S
C3511 C3508 1.403 . S
C3511 C3512 1.524 . S
C3511 C3515 1.400 . S
C3512 H3497 0.960 . S
C3512 H3498 0.960 . S
C3512 H3499 0.960 . S
C3512 C3511 1.524 . S
C3513 C3510 1.403 . S
C3513 C3514 1.392 . S
C3513 C3517 1.495 . S
C3514 C3513 1.392 . S
C3514 C3515 1.385 . S
C3514 C3516 1.478 . S
C3515 H3509 0.930 . S
C3515 C3511 1.400 . S
C3515 C3514 1.385 . S
C3516 C3514 1.478 . S
C3516 C3518 1.381 . S
C3516 C3522 1.383 . S
C3517 C3513 1.495 . S
C3517 H3523 0.959 1_556 S
C3517 H3524 0.961 . S
C3517 H3525 0.960 . S
C3518 C3516 1.381 . S
C3518 C3519 1.394 . S
C3518 H3526 0.930 . S
C3519 C3518 1.394 . S
C3519 C3520 1.383 . S
C3519 H3527 0.929 . S
C3520 C3519 1.383 . S
C3520 C3521 1.377 . S
C3521 H3505 0.930 . S
C3521 C3520 1.377 . S
C3521 C3522 1.379 . S
C3522 H3506 0.931 . S
C3522 C3516 1.383 . S
C3522 C3521 1.379 . S
H3523 C3517 0.959 1_554 S
H3524 C3517 0.961 . S
H3525 C3517 0.960 . S
H3526 C3518 0.930 . S
H3527 C3519 0.929 . S
H3528 C3536 0.929 . S
H3529 C3538 0.930 . S
H3530 C3540 0.930 . S
H3531 C3543 0.929 . S
H3532 C3546 0.930 . S
H3533 C3548 0.960 . S
H3534 C3548 0.960 . S
H3535 C3548 0.960 . S
C3536 H3528 0.929 . S
C3536 C3537 1.377 . S
C3536 C3538 1.384 . S
C3537 C3536 1.377 . S
C3537 C3543 1.390 . S
C3538 H3529 0.930 . S
C3538 C3536 1.384 . S
C3538 C3539 1.372 . S
C3539 C3538 1.372 . S
C3539 C3540 1.400 . S
C3539 C3544 1.490 . S
C3540 H3530 0.930 . S
C3540 C3539 1.400 . S
C3540 C3543 1.386 . S
H3541 C3557 0.930 . S
H3542 C3558 0.931 . S
C3543 H3531 0.929 . S
C3543 C3537 1.390 . S
C3543 C3540 1.386 . S
C3544 C3539 1.490 . S
C3544 C3546 1.395 . S
C3544 C3547 1.403 . S
H3545 C3551 0.930 . S
C3546 H3532 0.930 . S
C3546 C3544 1.395 . S
C3546 C3549 1.403 . S
C3547 C3544 1.403 . S
C3547 C3548 1.524 . S
C3547 C3551 1.400 . S
C3548 H3533 0.960 . S
C3548 H3534 0.960 . S
C3548 H3535 0.960 . S
C3548 C3547 1.524 . S
C3549 C3546 1.403 . S
C3549 C3550 1.392 . S
C3549 C3553 1.495 . S
C3550 C3549 1.392 . S
C3550 C3551 1.385 . S
C3550 C3552 1.478 . S
C3551 H3545 0.930 . S
C3551 C3547 1.400 . S
C3551 C3550 1.385 . S
C3552 C3550 1.478 . S
C3552 C3554 1.381 . S
C3552 C3558 1.383 . S
C3553 C3549 1.495 . S
C3553 H3559 0.959 . S
C3553 H3560 0.961 . S
C3553 H3561 0.960 . S
C3554 C3552 1.381 . S
C3554 C3555 1.394 . S
C3554 H3562 0.930 . S
C3555 C3554 1.394 . S
C3555 C3556 1.383 . S
C3555 H3563 0.929 . S
C3556 C3555 1.383 . S
C3556 C3557 1.377 . S
C3557 H3541 0.930 . S
C3557 C3556 1.377 . S
C3557 C3558 1.379 . S
C3558 H3542 0.931 . S
C3558 C3552 1.383 . S
C3558 C3557 1.379 . S
H3559 C3553 0.959 . S
H3560 C3553 0.961 . S
H3561 C3553 0.960 . S
H3562 C3554 0.930 . S
H3563 C3555 0.929 . S
H3564 C3572 0.929 . S
H3565 C3574 0.930 . S
H3566 C3576 0.930 . S
H3567 C3579 0.929 . S
H3568 C3582 0.930 . S
H3569 C3584 0.960 . S
H3570 C3584 0.960 . S
H3571 C3584 0.960 . S
C3572 H3564 0.929 . S
C3572 C3573 1.377 . S
C3572 C3574 1.384 . S
C3573 C3572 1.377 . S
C3573 C3579 1.390 . S
C3574 H3565 0.930 . S
C3574 C3572 1.384 . S
C3574 C3575 1.372 . S
C3575 C3574 1.372 . S
C3575 C3576 1.400 . S
C3575 C3580 1.490 . S
C3576 H3566 0.930 . S
C3576 C3575 1.400 . S
C3576 C3579 1.386 . S
H3577 C3593 0.930 . S
H3578 C3594 0.931 . S
C3579 H3567 0.929 . S
C3579 C3573 1.390 . S
C3579 C3576 1.386 . S
C3580 C3575 1.490 . S
C3580 C3582 1.395 . S
C3580 C3583 1.403 . S
H3581 C3587 0.930 . S
C3582 H3568 0.930 . S
C3582 C3580 1.395 . S
C3582 C3585 1.403 . S
C3583 C3580 1.403 . S
C3583 C3584 1.524 . S
C3583 C3587 1.400 . S
C3584 H3569 0.960 . S
C3584 H3570 0.960 . S
C3584 H3571 0.960 . S
C3584 C3583 1.524 . S
C3585 C3582 1.403 . S
C3585 C3586 1.392 . S
C3585 C3589 1.495 . S
C3586 C3585 1.392 . S
C3586 C3587 1.385 . S
C3586 C3588 1.478 . S
C3587 H3581 0.930 . S
C3587 C3583 1.400 . S
C3587 C3586 1.385 . S
C3588 C3586 1.478 . S
C3588 C3590 1.381 . S
C3588 C3594 1.383 . S
C3589 C3585 1.495 . S
C3589 H3595 0.959 . S
C3589 H3596 0.961 . S
C3589 H3597 0.960 . S
C3590 C3588 1.381 . S
C3590 C3591 1.394 . S
C3590 H3598 0.930 . S
C3591 C3590 1.394 . S
C3591 C3592 1.383 . S
C3591 H3599 0.929 . S
C3592 C3591 1.383 . S
C3592 C3593 1.377 . S
C3593 H3577 0.930 . S
C3593 C3592 1.377 . S
C3593 C3594 1.379 . S
C3594 H3578 0.931 . S
C3594 C3588 1.383 . S
C3594 C3593 1.379 . S
H3595 C3589 0.959 . S
H3596 C3589 0.961 . S
H3597 C3589 0.960 . S
H3598 C3590 0.930 . S
H3599 C3591 0.929 . S
H3600 C3608 0.929 . S
H3601 C3610 0.930 . S
H3602 C3612 0.930 . S
H3603 C3615 0.929 . S
H3604 C3618 0.930 . S
H3605 C3620 0.960 . S
H3606 C3620 0.960 . S
H3607 C3620 0.960 . S
C3608 H3600 0.929 . S
C3608 C3609 1.377 . S
C3608 C3610 1.384 . S
C3609 C3608 1.377 . S
C3609 C3615 1.390 . S
C3610 H3601 0.930 . S
C3610 C3608 1.384 . S
C3610 C3611 1.372 . S
C3611 C3610 1.372 . S
C3611 C3612 1.400 . S
C3611 C3616 1.490 . S
C3612 H3602 0.930 . S
C3612 C3611 1.400 . S
C3612 C3615 1.386 . S
H3613 C3629 0.930 . S
H3614 C3630 0.931 . S
C3615 H3603 0.929 . S
C3615 C3609 1.390 . S
C3615 C3612 1.386 . S
C3616 C3611 1.490 . S
C3616 C3618 1.395 . S
C3616 C3619 1.403 . S
H3617 C3623 0.930 . S
C3618 H3604 0.930 . S
C3618 C3616 1.395 . S
C3618 C3621 1.403 . S
C3619 C3616 1.403 . S
C3619 C3620 1.524 . S
C3619 C3623 1.400 . S
C3620 H3605 0.960 . S
C3620 H3606 0.960 . S
C3620 H3607 0.960 . S
C3620 C3619 1.524 . S
C3621 C3618 1.403 . S
C3621 C3622 1.392 . S
C3621 C3625 1.495 . S
C3622 C3621 1.392 . S
C3622 C3623 1.385 . S
C3622 C3624 1.478 . S
C3623 H3617 0.930 . S
C3623 C3619 1.400 . S
C3623 C3622 1.385 . S
C3624 C3622 1.478 . S
C3624 C3626 1.381 . S
C3624 C3630 1.383 . S
C3625 C3621 1.495 . S
C3625 H3631 0.959 . S
C3625 H3632 0.961 . S
C3625 H3633 0.960 . S
C3626 C3624 1.381 . S
C3626 C3627 1.394 . S
C3626 H3634 0.930 . S
C3627 C3626 1.394 . S
C3627 C3628 1.383 . S
C3627 H3635 0.929 . S
C3628 C3627 1.383 . S
C3628 C3629 1.377 . S
C3629 H3613 0.930 . S
C3629 C3628 1.377 . S
C3629 C3630 1.379 . S
C3630 H3614 0.931 . S
C3630 C3624 1.383 . S
C3630 C3629 1.379 . S
H3631 C3625 0.959 . S
H3632 C3625 0.961 . S
H3633 C3625 0.960 . S
H3634 C3626 0.930 . S
H3635 C3627 0.929 . S
H3636 C3644 0.929 . S
H3637 C3646 0.930 . S
H3638 C3648 0.930 . S
H3639 C3651 0.929 . S
H3640 C3654 0.930 . S
H3641 C3656 0.960 . S
H3642 C3656 0.960 . S
H3643 C3656 0.960 . S
C3644 H3636 0.929 . S
C3644 C3645 1.377 . S
C3644 C3646 1.384 . S
C3645 C3644 1.377 . S
C3645 C3651 1.390 . S
C3646 H3637 0.930 . S
C3646 C3644 1.384 . S
C3646 C3647 1.372 . S
C3647 C3646 1.372 . S
C3647 C3648 1.400 . S
C3647 C3652 1.490 . S
C3648 H3638 0.930 . S
C3648 C3647 1.400 . S
C3648 C3651 1.386 . S
H3649 C3665 0.930 . S
H3650 C3666 0.931 . S
C3651 H3639 0.929 . S
C3651 C3645 1.390 . S
C3651 C3648 1.386 . S
C3652 C3647 1.490 . S
C3652 C3654 1.395 . S
C3652 C3655 1.403 . S
H3653 C3659 0.930 . S
C3654 H3640 0.930 . S
C3654 C3652 1.395 . S
C3654 C3657 1.403 . S
C3655 C3652 1.403 . S
C3655 C3656 1.524 . S
C3655 C3659 1.400 . S
C3656 H3641 0.960 . S
C3656 H3642 0.960 . S
C3656 H3643 0.960 . S
C3656 C3655 1.524 . S
C3657 C3654 1.403 . S
C3657 C3658 1.392 . S
C3657 C3661 1.495 . S
C3658 C3657 1.392 . S
C3658 C3659 1.385 . S
C3658 C3660 1.478 . S
C3659 H3653 0.930 . S
C3659 C3655 1.400 . S
C3659 C3658 1.385 . S
C3660 C3658 1.478 . S
C3660 C3662 1.381 . S
C3660 C3666 1.383 . S
C3661 C3657 1.495 . S
C3661 H3667 0.959 . S
C3661 H3668 0.961 . S
C3661 H3669 0.960 . S
C3662 C3660 1.381 . S
C3662 C3663 1.394 . S
C3662 H3670 0.930 . S
C3663 C3662 1.394 . S
C3663 C3664 1.383 . S
C3663 H3671 0.929 . S
C3664 C3663 1.383 . S
C3664 C3665 1.377 . S
C3665 H3649 0.930 . S
C3665 C3664 1.377 . S
C3665 C3666 1.379 . S
C3666 H3650 0.931 . S
C3666 C3660 1.383 . S
C3666 C3665 1.379 . S
H3667 C3661 0.959 . S
H3668 C3661 0.961 . S
H3669 C3661 0.960 . S
H3670 C3662 0.930 . S
H3671 C3663 0.929 . S
H3672 C3680 0.929 . S
H3673 C3682 0.930 . S
H3674 C3684 0.930 . S
H3675 C3687 0.929 . S
H3676 C3690 0.930 . S
H3677 C3692 0.960 . S
H3678 C3692 0.960 . S
H3679 C3692 0.960 . S
C3680 H3672 0.929 . S
C3680 C3681 1.377 . S
C3680 C3682 1.384 . S
C3681 C3680 1.377 . S
C3681 C3687 1.390 . S
C3682 H3673 0.930 . S
C3682 C3680 1.384 . S
C3682 C3683 1.372 . S
C3683 C3682 1.372 . S
C3683 C3684 1.400 . S
C3683 C3688 1.490 . S
C3684 H3674 0.930 . S
C3684 C3683 1.400 . S
C3684 C3687 1.386 . S
H3685 C3701 0.930 . S
H3686 C3702 0.931 . S
C3687 H3675 0.929 . S
C3687 C3681 1.390 . S
C3687 C3684 1.386 . S
C3688 C3683 1.490 . S
C3688 C3690 1.395 . S
C3688 C3691 1.403 . S
H3689 C3695 0.930 . S
C3690 H3676 0.930 . S
C3690 C3688 1.395 . S
C3690 C3693 1.403 . S
C3691 C3688 1.403 . S
C3691 C3692 1.524 . S
C3691 C3695 1.400 . S
C3692 H3677 0.960 . S
C3692 H3678 0.960 . S
C3692 H3679 0.960 . S
C3692 C3691 1.524 . S
C3693 C3690 1.403 . S
C3693 C3694 1.392 . S
C3693 C3697 1.495 . S
C3694 C3693 1.392 . S
C3694 C3695 1.385 . S
C3694 C3696 1.478 . S
C3695 H3689 0.930 . S
C3695 C3691 1.400 . S
C3695 C3694 1.385 . S
C3696 C3694 1.478 . S
C3696 C3698 1.381 . S
C3696 C3702 1.383 . S
C3697 C3693 1.495 . S
C3697 H3703 0.959 . S
C3697 H3704 0.961 . S
C3697 H3705 0.960 . S
C3698 C3696 1.381 . S
C3698 C3699 1.394 . S
C3698 H3706 0.930 . S
C3699 C3698 1.394 . S
C3699 C3700 1.383 . S
C3699 H3707 0.929 . S
C3700 C3699 1.383 . S
C3700 C3701 1.377 . S
C3701 H3685 0.930 . S
C3701 C3700 1.377 . S
C3701 C3702 1.379 . S
C3702 H3686 0.931 . S
C3702 C3696 1.383 . S
C3702 C3701 1.379 . S
H3703 C3697 0.959 . S
H3704 C3697 0.961 . S
H3705 C3697 0.960 . S
H3706 C3698 0.930 . S
H3707 C3699 0.929 . S
H3708 C3716 0.929 . S
H3709 C3718 0.930 . S
H3710 C3720 0.930 . S
H3711 C3723 0.929 . S
H3712 C3726 0.930 . S
H3713 C3728 0.960 . S
H3714 C3728 0.960 . S
H3715 C3728 0.960 . S
C3716 H3708 0.929 . S
C3716 C3717 1.377 . S
C3716 C3718 1.384 . S
C3717 C3716 1.377 . S
C3717 C3723 1.390 . S
C3718 H3709 0.930 . S
C3718 C3716 1.384 . S
C3718 C3719 1.372 . S
C3719 C3718 1.372 . S
C3719 C3720 1.400 . S
C3719 C3724 1.490 . S
C3720 H3710 0.930 . S
C3720 C3719 1.400 . S
C3720 C3723 1.386 . S
H3721 C3737 0.930 . S
H3722 C3738 0.931 . S
C3723 H3711 0.929 . S
C3723 C3717 1.390 . S
C3723 C3720 1.386 . S
C3724 C3719 1.490 . S
C3724 C3726 1.395 . S
C3724 C3727 1.403 . S
H3725 C3731 0.930 . S
C3726 H3712 0.930 . S
C3726 C3724 1.395 . S
C3726 C3729 1.403 . S
C3727 C3724 1.403 . S
C3727 C3728 1.524 . S
C3727 C3731 1.400 . S
C3728 H3713 0.960 . S
C3728 H3714 0.960 . S
C3728 H3715 0.960 . S
C3728 C3727 1.524 . S
C3729 C3726 1.403 . S
C3729 C3730 1.392 . S
C3729 C3733 1.495 . S
C3730 C3729 1.392 . S
C3730 C3731 1.385 . S
C3730 C3732 1.478 . S
C3731 H3725 0.930 . S
C3731 C3727 1.400 . S
C3731 C3730 1.385 . S
C3732 C3730 1.478 . S
C3732 C3734 1.381 . S
C3732 C3738 1.383 . S
C3733 C3729 1.495 . S
C3733 H3739 0.959 . S
C3733 H3740 0.961 . S
C3733 H3741 0.960 . S
C3734 C3732 1.381 . S
C3734 C3735 1.394 . S
C3734 H3742 0.930 . S
C3735 C3734 1.394 . S
C3735 C3736 1.383 . S
C3735 H3743 0.929 . S
C3736 C3735 1.383 . S
C3736 C3737 1.377 . S
C3737 H3721 0.930 . S
C3737 C3736 1.377 . S
C3737 C3738 1.379 . S
C3738 H3722 0.931 . S
C3738 C3732 1.383 . S
C3738 C3737 1.379 . S
H3739 C3733 0.959 . S
H3740 C3733 0.961 . S
H3741 C3733 0.960 . S
H3742 C3734 0.930 . S
H3743 C3735 0.929 . S
H3744 C3752 0.929 . S
H3745 C3754 0.930 . S
H3746 C3756 0.930 . S
H3747 C3759 0.929 . S
H3748 C3762 0.930 . S
H3749 C3764 0.960 . S
H3750 C3764 0.960 . S
H3751 C3764 0.980 . S
C3752 H3744 0.929 . S
C3752 C3753 1.377 . S
C3752 C3754 1.384 . S
C3753 C3752 1.377 . S
C3753 C3759 1.390 . S
C3754 H3745 0.930 . S
C3754 C3752 1.384 . S
C3754 C3755 1.372 . S
C3755 C3754 1.372 . S
C3755 C3756 1.400 . S
C3755 C3760 1.490 . S
C3756 H3746 0.930 . S
C3756 C3755 1.400 . S
C3756 C3759 1.386 . S
H3757 C3773 0.930 . S
H3758 C3774 0.931 . S
C3759 H3747 0.929 . S
C3759 C3753 1.390 . S
C3759 C3756 1.386 . S
C3760 C3755 1.490 . S
C3760 C3762 1.395 . S
C3760 C3763 1.403 . S
H3761 C3767 0.930 1_655 S
C3762 H3748 0.930 . S
C3762 C3760 1.395 . S
C3762 C3765 1.403 . S
C3763 C3760 1.403 . S
C3763 C3764 1.524 1_455 S
C3763 C3767 1.400 . S
C3764 H3749 0.960 . S
C3764 H3750 0.960 . S
C3764 H3751 0.980 . S
C3764 C3763 1.524 1_655 S
C3765 C3762 1.403 . S
C3765 C3766 1.392 . S
C3765 C3769 1.495 . S
C3766 C3765 1.392 . S
C3766 C3767 1.385 . S
C3766 C3768 1.478 . S
C3767 H3761 0.930 1_455 S
C3767 C3763 1.400 . S
C3767 C3766 1.385 . S
C3768 C3766 1.478 . S
C3768 C3770 1.381 . S
C3768 C3774 1.383 . S
C3769 C3765 1.495 . S
C3769 H3775 0.959 . S
C3769 H3776 0.961 . S
C3769 H3777 0.960 . S
C3770 C3768 1.381 . S
C3770 C3771 1.390 . S
C3770 H3778 0.916 1_455 S
C3771 C3770 1.390 . S
C3771 C3772 1.382 . S
C3771 H3779 0.935 1_455 S
C3772 C3771 1.382 . S
C3772 C3773 1.377 . S
C3773 H3757 0.930 . S
C3773 C3772 1.377 . S
C3773 C3774 1.379 . S
C3774 H3758 0.931 . S
C3774 C3768 1.383 . S
C3774 C3773 1.379 . S
H3775 C3769 0.959 . S
H3776 C3769 0.961 . S
H3777 C3769 0.960 . S
H3778 C3770 0.916 1_655 S
H3779 C3771 0.935 1_655 S
H3780 C3788 0.929 . S
H3781 C3790 0.930 . S
H3782 C3792 0.930 . S
H3783 C3795 0.929 . S
H3784 C3798 0.930 . S
H3785 C3800 0.960 . S
H3786 C3800 0.960 . S
H3787 C3800 0.960 . S
C3788 H3780 0.929 . S
C3788 C3789 1.377 . S
C3788 C3790 1.384 . S
C3789 C3788 1.377 . S
C3789 C3795 1.390 . S
C3790 H3781 0.930 . S
C3790 C3788 1.384 . S
C3790 C3791 1.372 . S
C3791 C3790 1.372 . S
C3791 C3792 1.400 . S
C3791 C3796 1.490 . S
C3792 H3782 0.930 . S
C3792 C3791 1.400 . S
C3792 C3795 1.386 . S
H3793 C3809 0.930 . S
H3794 C3810 0.931 . S
C3795 H3783 0.929 . S
C3795 C3789 1.390 . S
C3795 C3792 1.386 . S
C3796 C3791 1.490 . S
C3796 C3798 1.395 . S
C3796 C3799 1.403 . S
H3797 C3803 0.930 . S
C3798 H3784 0.930 . S
C3798 C3796 1.395 . S
C3798 C3801 1.403 . S
C3799 C3796 1.403 . S
C3799 C3800 1.524 . S
C3799 C3803 1.400 . S
C3800 H3785 0.960 . S
C3800 H3786 0.960 . S
C3800 H3787 0.960 . S
C3800 C3799 1.524 . S
C3801 C3798 1.403 . S
C3801 C3802 1.392 . S
C3801 C3805 1.495 . S
C3802 C3801 1.392 . S
C3802 C3803 1.385 . S
C3802 C3804 1.478 . S
C3803 H3797 0.930 . S
C3803 C3799 1.400 . S
C3803 C3802 1.385 . S
C3804 C3802 1.478 . S
C3804 C3806 1.381 . S
C3804 C3810 1.383 . S
C3805 C3801 1.495 . S
C3805 H3811 0.959 . S
C3805 H3812 0.961 . S
C3805 H3813 0.960 . S
C3806 C3804 1.381 . S
C3806 C3807 1.394 . S
C3806 H3814 0.930 . S
C3807 C3806 1.394 . S
C3807 C3808 1.383 . S
C3807 H3815 0.929 . S
C3808 C3807 1.383 . S
C3808 C3809 1.377 . S
C3809 H3793 0.930 . S
C3809 C3808 1.377 . S
C3809 C3810 1.379 . S
C3810 H3794 0.931 . S
C3810 C3804 1.383 . S
C3810 C3809 1.379 . S
H3811 C3805 0.959 . S
H3812 C3805 0.961 . S
H3813 C3805 0.960 . S
H3814 C3806 0.930 . S
H3815 C3807 0.929 . S
H3816 C3824 0.929 . S
H3817 C3826 0.930 . S
H3818 C3828 0.930 . S
H3819 C3831 0.929 . S
H3820 C3834 0.930 . S
H3821 C3836 0.960 . S
H3822 C3836 0.960 . S
H3823 C3836 0.960 . S
C3824 H3816 0.929 . S
C3824 C3825 1.377 . S
C3824 C3826 1.384 . S
C3825 C3824 1.377 . S
C3825 C3831 1.390 . S
C3826 H3817 0.930 . S
C3826 C3824 1.384 . S
C3826 C3827 1.372 . S
C3827 C3826 1.372 . S
C3827 C3828 1.400 . S
C3827 C3832 1.490 . S
C3828 H3818 0.930 . S
C3828 C3827 1.400 . S
C3828 C3831 1.386 . S
H3829 C3845 0.930 . S
H3830 C3846 0.931 . S
C3831 H3819 0.929 . S
C3831 C3825 1.390 . S
C3831 C3828 1.386 . S
C3832 C3827 1.490 . S
C3832 C3834 1.395 . S
C3832 C3835 1.403 . S
H3833 C3839 0.930 . S
C3834 H3820 0.930 . S
C3834 C3832 1.395 . S
C3834 C3837 1.403 . S
C3835 C3832 1.403 . S
C3835 C3836 1.524 . S
C3835 C3839 1.400 . S
C3836 H3821 0.960 . S
C3836 H3822 0.960 . S
C3836 H3823 0.960 . S
C3836 C3835 1.524 . S
C3837 C3834 1.403 . S
C3837 C3838 1.392 . S
C3837 C3841 1.495 1_565 S
C3838 C3837 1.392 . S
C3838 C3839 1.385 . S
C3838 C3840 1.478 . S
C3839 H3833 0.930 . S
C3839 C3835 1.400 . S
C3839 C3838 1.385 . S
C3840 C3838 1.478 . S
C3840 C3842 1.381 . S
C3840 C3846 1.383 1_565 S
C3841 C3837 1.495 1_545 S
C3841 H3847 0.959 . S
C3841 H3848 0.961 . S
C3841 H3849 0.904 1_545 S
C3842 C3840 1.381 . S
C3842 C3843 1.394 . S
C3842 H3850 0.930 . S
C3843 C3842 1.394 . S
C3843 C3844 1.383 . S
C3843 H3851 0.929 . S
C3844 C3843 1.383 . S
C3844 C3845 1.377 1_565 S
C3845 H3829 0.930 . S
C3845 C3844 1.377 1_545 S
C3845 C3846 1.379 . S
C3846 H3830 0.931 . S
C3846 C3840 1.383 1_545 S
C3846 C3845 1.379 . S
H3847 C3841 0.959 . S
H3848 C3841 0.961 . S
H3849 C3841 0.904 1_565 S
H3850 C3842 0.930 . S
H3851 C3843 0.929 . S
H3852 C3860 0.929 . S
H3853 C3862 0.930 . S
H3854 C3864 0.855 1_545 S
H3855 C3867 0.929 1_545 S
H3856 C3870 0.930 . S
H3857 C3872 0.960 . S
H3858 C3872 0.960 1_565 S
H3859 C3872 0.960 . S
C3860 H3852 0.929 . S
C3860 C3861 1.377 . S
C3860 C3862 1.384 . S
C3861 C3860 1.377 . S
C3861 C3867 1.390 . S
C3862 H3853 0.930 . S
C3862 C3860 1.384 . S
C3862 C3863 1.372 . S
C3863 C3862 1.372 . S
C3863 C3864 1.433 . S
C3863 C3868 1.490 . S
C3864 H3854 0.855 1_565 S
C3864 C3863 1.433 . S
C3864 C3867 1.429 . S
H3865 C3881 0.930 . S
H3866 C3882 0.931 . S
C3867 H3855 0.929 1_565 S
C3867 C3861 1.390 . S
C3867 C3864 1.429 . S
C3868 C3863 1.490 . S
C3868 C3870 1.395 . S
C3868 C3871 1.403 . S
H3869 C3875 0.930 1_545 S
C3870 H3856 0.930 . S
C3870 C3868 1.395 . S
C3870 C3873 1.403 . S
C3871 C3868 1.403 . S
C3871 C3872 1.524 1_565 S
C3871 C3875 1.400 . S
C3872 H3857 0.960 . S
C3872 H3858 0.960 1_545 S
C3872 H3859 0.960 . S
C3872 C3871 1.524 1_545 S
C3873 C3870 1.403 . S
C3873 C3874 1.392 . S
C3873 C3877 1.495 . S
C3874 C3873 1.392 . S
C3874 C3875 1.385 . S
C3874 C3876 1.478 . S
C3875 H3869 0.930 1_565 S
C3875 C3871 1.400 . S
C3875 C3874 1.385 . S
C3876 C3874 1.478 . S
C3876 C3878 1.381 . S
C3876 C3882 1.383 1_565 S
C3877 C3873 1.495 . S
C3877 H3883 0.959 . S
C3877 H3884 0.961 . S
C3877 H3885 0.960 . S
C3878 C3876 1.381 . S
C3878 C3879 1.394 . S
C3878 H3886 0.930 . S
C3879 C3878 1.394 . S
C3879 C3880 1.474 . S
C3879 H3887 0.929 . S
C3880 C3879 1.474 . S
C3880 C3881 1.344 1_565 S
C3881 H3865 0.930 . S
C3881 C3880 1.344 1_545 S
C3881 C3882 1.379 . S
C3882 H3866 0.931 . S
C3882 C3876 1.383 1_545 S
C3882 C3881 1.379 . S
H3883 C3877 0.959 . S
H3884 C3877 0.961 . S
H3885 C3877 0.960 . S
H3886 C3878 0.930 . S
H3887 C3879 0.929 . S
H3888 C3896 0.929 . S
H3889 C3898 0.930 . S
H3890 C3900 0.908 1_655 S
H3891 C3903 0.929 . S
H3892 C3906 0.930 . S
H3893 C3908 0.960 . S
H3894 C3908 0.960 . S
H3895 C3908 0.960 . S
C3896 H3888 0.929 . S
C3896 C3897 1.377 . S
C3896 C3898 1.384 . S
C3897 C3896 1.377 . S
C3897 C3903 1.390 . S
C3898 H3889 0.930 . S
C3898 C3896 1.384 . S
C3898 C3899 1.372 . S
C3899 C3898 1.372 . S
C3899 C3900 1.400 . S
C3899 C3904 1.490 . S
C3900 H3890 0.908 1_455 S
C3900 C3899 1.400 . S
C3900 C3903 1.386 . S
H3901 C3917 0.930 . S
H3902 C3918 0.931 . S
C3903 H3891 0.929 . S
C3903 C3897 1.390 . S
C3903 C3900 1.386 . S
C3904 C3899 1.490 . S
C3904 C3906 1.395 . S
C3904 C3907 1.403 . S
H3905 C3911 0.930 . S
C3906 H3892 0.930 . S
C3906 C3904 1.395 . S
C3906 C3909 1.403 . S
C3907 C3904 1.403 . S
C3907 C3908 1.524 . S
C3907 C3911 1.400 . S
C3908 H3893 0.960 . S
C3908 H3894 0.960 . S
C3908 H3895 0.960 . S
C3908 C3907 1.524 . S
C3909 C3906 1.403 . S
C3909 C3910 1.392 . S
C3909 C3913 1.495 1_455 S
C3910 C3909 1.392 . S
C3910 C3911 1.385 . S
C3910 C3912 1.478 . S
C3911 H3905 0.930 . S
C3911 C3907 1.400 . S
C3911 C3910 1.385 . S
C3912 C3910 1.478 . S
C3912 C3914 1.381 . S
C3912 C3918 1.383 1_455 S
C3913 C3909 1.495 1_655 S
C3913 H3919 0.959 . S
C3913 H3920 0.961 . S
C3913 H3921 0.960 1_655 S
C3914 C3912 1.381 . S
C3914 C3915 1.394 . S
C3914 H3922 0.930 . S
C3915 C3914 1.394 . S
C3915 C3916 1.381 1_455 S
C3915 H3923 0.929 . S
C3916 C3915 1.381 1_655 S
C3916 C3917 1.381 . S
C3917 H3901 0.930 . S
C3917 C3916 1.381 . S
C3917 C3918 1.379 . S
C3918 H3902 0.931 . S
C3918 C3912 1.383 1_655 S
C3918 C3917 1.379 . S
H3919 C3913 0.959 . S
H3920 C3913 0.961 . S
H3921 C3913 0.960 1_455 S
H3922 C3914 0.930 . S
H3923 C3915 0.929 . S
H3924 C3932 0.929 . S
H3925 C3934 0.930 . S
H3926 C3936 0.930 . S
H3927 C3939 0.929 . S
H3928 C3942 0.930 . S
H3929 C3944 0.960 . S
H3930 C3944 0.960 . S
H3931 C3944 0.960 . S
C3932 H3924 0.929 . S
C3932 C3933 1.377 . S
C3932 C3934 1.384 . S
C3933 C3932 1.377 . S
C3933 C3939 1.390 . S
C3934 H3925 0.930 . S
C3934 C3932 1.384 . S
C3934 C3935 1.372 . S
C3935 C3934 1.372 . S
C3935 C3936 1.400 . S
C3935 C3940 1.490 . S
C3936 H3926 0.930 . S
C3936 C3935 1.400 . S
C3936 C3939 1.386 . S
H3937 C3953 0.930 . S
H3938 C3954 0.931 . S
C3939 H3927 0.929 . S
C3939 C3933 1.390 . S
C3939 C3936 1.386 . S
C3940 C3935 1.490 . S
C3940 C3942 1.395 . S
C3940 C3943 1.403 . S
H3941 C3947 0.930 . S
C3942 H3928 0.930 . S
C3942 C3940 1.395 . S
C3942 C3945 1.403 . S
C3943 C3940 1.403 . S
C3943 C3944 1.524 . S
C3943 C3947 1.400 . S
C3944 H3929 0.960 . S
C3944 H3930 0.960 . S
C3944 H3931 0.960 . S
C3944 C3943 1.524 . S
C3945 C3942 1.403 . S
C3945 C3946 1.392 . S
C3945 C3949 1.495 . S
C3946 C3945 1.392 . S
C3946 C3947 1.385 . S
C3946 C3948 1.478 . S
C3947 H3941 0.930 . S
C3947 C3943 1.400 . S
C3947 C3946 1.385 . S
C3948 C3946 1.478 . S
C3948 C3950 1.381 . S
C3948 C3954 1.383 . S
C3949 C3945 1.495 . S
C3949 H3955 0.959 . S
C3949 H3956 0.961 . S
C3949 H3957 0.960 . S
C3950 C3948 1.381 . S
C3950 C3951 1.394 . S
C3950 H3958 0.930 . S
C3951 C3950 1.394 . S
C3951 C3952 1.383 . S
C3951 H3959 0.929 . S
C3952 C3951 1.383 . S
C3952 C3953 1.377 . S
C3953 H3937 0.930 . S
C3953 C3952 1.377 . S
C3953 C3954 1.379 . S
C3954 H3938 0.931 . S
C3954 C3948 1.383 . S
C3954 C3953 1.379 . S
H3955 C3949 0.959 . S
H3956 C3949 0.961 . S
H3957 C3949 0.960 . S
H3958 C3950 0.930 . S
H3959 C3951 0.929 . S
H3960 C3968 0.929 . S
H3961 C3970 0.930 . S
H3962 C3972 0.930 . S
H3963 C3975 0.929 . S
H3964 C3978 0.930 . S
H3965 C3980 0.960 . S
H3966 C3980 0.960 . S
H3967 C3980 0.960 . S
C3968 H3960 0.929 . S
C3968 C3969 1.377 . S
C3968 C3970 1.384 . S
C3969 C3968 1.377 . S
C3969 C3975 1.390 . S
C3970 H3961 0.930 . S
C3970 C3968 1.384 . S
C3970 C3971 1.372 . S
C3971 C3970 1.372 . S
C3971 C3972 1.400 . S
C3971 C3976 1.490 . S
C3972 H3962 0.930 . S
C3972 C3971 1.400 . S
C3972 C3975 1.386 . S
H3973 C3989 0.930 . S
H3974 C3990 0.931 . S
C3975 H3963 0.929 . S
C3975 C3969 1.390 . S
C3975 C3972 1.386 . S
C3976 C3971 1.490 . S
C3976 C3978 1.395 . S
C3976 C3979 1.403 . S
H3977 C3983 0.930 . S
C3978 H3964 0.930 . S
C3978 C3976 1.395 . S
C3978 C3981 1.403 . S
C3979 C3976 1.403 . S
C3979 C3980 1.524 . S
C3979 C3983 1.400 . S
C3980 H3965 0.960 . S
C3980 H3966 0.960 . S
C3980 H3967 0.960 . S
C3980 C3979 1.524 . S
C3981 C3978 1.403 . S
C3981 C3982 1.392 . S
C3981 C3985 1.495 . S
C3982 C3981 1.392 . S
C3982 C3983 1.385 . S
C3982 C3984 1.478 . S
C3983 H3977 0.930 . S
C3983 C3979 1.400 . S
C3983 C3982 1.385 . S
C3984 C3982 1.478 . S
C3984 C3986 1.381 . S
C3984 C3990 1.383 . S
C3985 C3981 1.495 . S
C3985 H3991 0.959 . S
C3985 H3992 0.961 . S
C3985 H3993 0.960 . S
C3986 C3984 1.381 . S
C3986 C3987 1.394 . S
C3986 H3994 0.930 . S
C3987 C3986 1.394 . S
C3987 C3988 1.383 . S
C3987 H3995 0.929 . S
C3988 C3987 1.383 . S
C3988 C3989 1.377 . S
C3989 H3973 0.930 . S
C3989 C3988 1.377 . S
C3989 C3990 1.379 . S
C3990 H3974 0.931 . S
C3990 C3984 1.383 . S
C3990 C3989 1.379 . S
H3991 C3985 0.959 . S
H3992 C3985 0.961 . S
H3993 C3985 0.960 . S
H3994 C3986 0.930 . S
H3995 C3987 0.929 . S
H3996 C4004 0.929 . S
H3997 C4006 0.930 . S
H3998 C4008 0.930 . S
H3999 C4011 0.929 . S
H4000 C4014 0.930 . S
H4001 C4016 0.960 . S
H4002 C4016 0.960 . S
H4003 C4016 0.960 . S
C4004 H3996 0.929 . S
C4004 C4005 1.377 . S
C4004 C4006 1.384 . S
C4005 C4004 1.377 . S
C4005 C4011 1.390 . S
C4006 H3997 0.930 . S
C4006 C4004 1.384 . S
C4006 C4007 1.372 . S
C4007 C4006 1.372 . S
C4007 C4008 1.400 . S
C4007 C4012 1.490 . S
C4008 H3998 0.930 . S
C4008 C4007 1.400 . S
C4008 C4011 1.386 . S
H4009 C4025 0.930 . S
H4010 C4026 0.931 . S
C4011 H3999 0.929 . S
C4011 C4005 1.390 . S
C4011 C4008 1.386 . S
C4012 C4007 1.490 . S
C4012 C4014 1.395 . S
C4012 C4015 1.403 . S
H4013 C4019 0.930 . S
C4014 H4000 0.930 . S
C4014 C4012 1.395 . S
C4014 C4017 1.403 . S
C4015 C4012 1.403 . S
C4015 C4016 1.524 . S
C4015 C4019 1.400 . S
C4016 H4001 0.960 . S
C4016 H4002 0.960 . S
C4016 H4003 0.960 . S
C4016 C4015 1.524 . S
C4017 C4014 1.403 . S
C4017 C4018 1.392 . S
C4017 C4021 1.495 . S
C4018 C4017 1.392 . S
C4018 C4019 1.385 . S
C4018 C4020 1.478 . S
C4019 H4013 0.930 . S
C4019 C4015 1.400 . S
C4019 C4018 1.385 . S
C4020 C4018 1.478 . S
C4020 C4022 1.381 . S
C4020 C4026 1.383 . S
C4021 C4017 1.495 . S
C4021 H4027 0.959 . S
C4021 H4028 0.961 . S
C4021 H4029 0.960 . S
C4022 C4020 1.381 . S
C4022 C4023 1.394 . S
C4022 H4030 0.930 . S
C4023 C4022 1.394 . S
C4023 C4024 1.383 . S
C4023 H4031 0.929 . S
C4024 C4023 1.383 . S
C4024 C4025 1.377 . S
C4025 H4009 0.930 . S
C4025 C4024 1.377 . S
C4025 C4026 1.379 . S
C4026 H4010 0.931 . S
C4026 C4020 1.383 . S
C4026 C4025 1.379 . S
H4027 C4021 0.959 . S
H4028 C4021 0.961 . S
H4029 C4021 0.960 . S
H4030 C4022 0.930 . S
H4031 C4023 0.929 . S
H4032 C4040 0.929 . S
H4033 C4042 0.930 . S
H4034 C4044 0.930 . S
H4035 C4047 0.929 . S
H4036 C4050 0.930 . S
H4037 C4052 0.960 . S
H4038 C4052 0.960 . S
H4039 C4052 0.960 . S
C4040 H4032 0.929 . S
C4040 C4041 1.377 . S
C4040 C4042 1.384 . S
C4041 C4040 1.377 . S
C4041 C4047 1.390 . S
C4042 H4033 0.930 . S
C4042 C4040 1.384 . S
C4042 C4043 1.372 . S
C4043 C4042 1.372 . S
C4043 C4044 1.400 . S
C4043 C4048 1.490 . S
C4044 H4034 0.930 . S
C4044 C4043 1.400 . S
C4044 C4047 1.386 . S
H4045 C4061 0.930 . S
H4046 C4062 0.931 . S
C4047 H4035 0.929 . S
C4047 C4041 1.390 . S
C4047 C4044 1.386 . S
C4048 C4043 1.490 . S
C4048 C4050 1.395 . S
C4048 C4051 1.403 . S
H4049 C4055 0.930 . S
C4050 H4036 0.930 . S
C4050 C4048 1.395 . S
C4050 C4053 1.403 . S
C4051 C4048 1.403 . S
C4051 C4052 1.524 . S
C4051 C4055 1.400 . S
C4052 H4037 0.960 . S
C4052 H4038 0.960 . S
C4052 H4039 0.960 . S
C4052 C4051 1.524 . S
C4053 C4050 1.403 . S
C4053 C4054 1.392 . S
C4053 C4057 1.495 . S
C4054 C4053 1.392 . S
C4054 C4055 1.385 . S
C4054 C4056 1.478 . S
C4055 H4049 0.930 . S
C4055 C4051 1.400 . S
C4055 C4054 1.385 . S
C4056 C4054 1.478 . S
C4056 C4058 1.381 . S
C4056 C4062 1.383 . S
C4057 C4053 1.495 . S
C4057 H4063 0.959 . S
C4057 H4064 0.961 . S
C4057 H4065 0.960 . S
C4058 C4056 1.381 . S
C4058 C4059 1.394 . S
C4058 H4066 0.930 . S
C4059 C4058 1.394 . S
C4059 C4060 1.383 . S
C4059 H4067 0.929 . S
C4060 C4059 1.383 . S
C4060 C4061 1.377 . S
C4061 H4045 0.930 . S
C4061 C4060 1.377 . S
C4061 C4062 1.379 . S
C4062 H4046 0.931 . S
C4062 C4056 1.383 . S
C4062 C4061 1.379 . S
H4063 C4057 0.959 . S
H4064 C4057 0.961 . S
H4065 C4057 0.960 . S
H4066 C4058 0.930 . S
H4067 C4059 0.929 . S
H4068 C4076 0.929 1_565 S
H4069 C4078 0.930 1_565 S
H4070 C4080 0.930 . S
H4071 C4083 0.929 . S
H4072 C4086 0.930 . S
H4073 C4088 0.960 . S
H4074 C4088 0.960 . S
H4075 C4088 0.960 . S
C4076 H4068 0.929 1_545 S
C4076 C4077 1.377 . S
C4076 C4078 1.384 . S
C4077 C4076 1.377 . S
C4077 C4083 1.390 . S
C4078 H4069 0.930 1_545 S
C4078 C4076 1.384 . S
C4078 C4079 1.372 . S
C4079 C4078 1.372 . S
C4079 C4080 1.400 . S
C4079 C4084 1.490 . S
C4080 H4070 0.930 . S
C4080 C4079 1.400 . S
C4080 C4083 1.386 . S
H4081 C4097 0.930 . S
H4082 C4098 0.931 . S
C4083 H4071 0.929 . S
C4083 C4077 1.390 . S
C4083 C4080 1.386 . S
C4084 C4079 1.490 . S
C4084 C4086 1.395 . S
C4084 C4087 1.403 . S
H4085 C4091 0.930 . S
C4086 H4072 0.930 . S
C4086 C4084 1.395 . S
C4086 C4089 1.403 . S
C4087 C4084 1.403 . S
C4087 C4088 1.524 . S
C4087 C4091 1.400 . S
C4088 H4073 0.960 . S
C4088 H4074 0.960 . S
C4088 H4075 0.960 . S
C4088 C4087 1.524 . S
C4089 C4086 1.403 . S
C4089 C4090 1.392 . S
C4089 C4093 1.495 . S
C4090 C4089 1.392 . S
C4090 C4091 1.385 . S
C4090 C4092 1.478 . S
C4091 H4085 0.930 . S
C4091 C4087 1.400 . S
C4091 C4090 1.385 . S
C4092 C4090 1.478 . S
C4092 C4094 1.381 1_545 S
C4092 C4098 1.383 . S
C4093 C4089 1.495 . S
C4093 H4099 0.959 . S
C4093 H4100 0.961 . S
C4093 H4101 0.966 1_545 S
C4094 C4092 1.381 1_565 S
C4094 C4095 1.394 . S
C4094 H4102 0.930 . S
C4095 C4094 1.394 . S
C4095 C4096 1.383 1_565 S
C4095 H4103 0.929 . S
C4096 C4095 1.383 1_545 S
C4096 C4097 1.377 . S
C4097 H4081 0.930 . S
C4097 C4096 1.377 . S
C4097 C4098 1.379 . S
C4098 H4082 0.931 . S
C4098 C4092 1.383 . S
C4098 C4097 1.379 . S
H4099 C4093 0.959 . S
H4100 C4093 0.961 . S
H4101 C4093 0.966 1_565 S
H4102 C4094 0.930 . S
H4103 C4095 0.929 . S
H4104 C4112 0.929 . S
H4105 C4114 0.930 . S
H4106 C4116 0.930 1_455 S
H4107 C4119 0.929 1_455 S
H4108 C4122 0.930 . S
H4109 C4124 0.960 . S
H4110 C4124 0.960 . S
H4111 C4124 0.960 . S
C4112 H4104 0.929 . S
C4112 C4113 1.377 . S
C4112 C4114 1.384 . S
C4113 C4112 1.377 . S
C4113 C4119 1.390 . S
C4114 H4105 0.930 . S
C4114 C4112 1.384 . S
C4114 C4115 1.372 . S
C4115 C4114 1.372 . S
C4115 C4116 1.400 . S
C4115 C4120 1.490 . S
C4116 H4106 0.930 1_655 S
C4116 C4115 1.400 . S
C4116 C4119 1.386 . S
H4117 C4133 0.930 . S
H4118 C4134 0.958 . S
C4119 H4107 0.929 1_655 S
C4119 C4113 1.390 . S
C4119 C4116 1.386 . S
C4120 C4115 1.490 . S
C4120 C4122 1.395 . S
C4120 C4123 1.393 1_655 S
H4121 C4127 0.945 . S
C4122 H4108 0.930 . S
C4122 C4120 1.395 . S
C4122 C4125 1.403 . S
C4123 C4120 1.393 1_455 S
C4123 C4124 1.542 . S
C4123 C4127 1.405 . S
C4124 H4109 0.960 . S
C4124 H4110 0.960 . S
C4124 H4111 0.960 . S
C4124 C4123 1.542 . S
C4125 C4122 1.403 . S
C4125 C4126 1.392 . S
C4125 C4129 1.495 . S
C4126 C4125 1.392 . S
C4126 C4127 1.356 1_655 S
C4126 C4128 1.478 . S
C4127 H4121 0.945 . S
C4127 C4123 1.405 . S
C4127 C4126 1.356 1_455 S
C4128 C4126 1.478 . S
C4128 C4130 1.381 . S
C4128 C4134 1.367 1_655 S
C4129 C4125 1.495 . S
C4129 H4135 0.959 . S
C4129 H4136 0.961 . S
C4129 H4137 0.960 . S
C4130 C4128 1.381 . S
C4130 C4131 1.394 . S
C4130 H4138 0.930 . S
C4131 C4130 1.394 . S
C4131 C4132 1.383 . S
C4131 H4139 0.929 . S
C4132 C4131 1.383 . S
C4132 C4133 1.377 1_655 S
C4133 H4117 0.930 . S
C4133 C4132 1.377 1_455 S
C4133 C4134 1.369 . S
C4134 H4118 0.958 . S
C4134 C4128 1.367 1_455 S
C4134 C4133 1.369 . S
H4135 C4129 0.959 . S
H4136 C4129 0.961 . S
H4137 C4129 0.960 . S
H4138 C4130 0.930 . S
H4139 C4131 0.929 . S
H4140 C4148 0.929 . S
H4141 C4150 0.930 . S
H4142 C4152 0.930 . S
H4143 C4155 0.929 . S
H4144 C4158 0.930 . S
H4145 C4160 0.960 . S
H4146 C4160 0.960 . S
H4147 C4160 0.960 . S
C4148 H4140 0.929 . S
C4148 C4149 1.377 . S
C4148 C4150 1.384 . S
C4149 C4148 1.377 . S
C4149 C4155 1.390 . S
C4150 H4141 0.930 . S
C4150 C4148 1.384 . S
C4150 C4151 1.372 . S
C4151 C4150 1.372 . S
C4151 C4152 1.400 . S
C4151 C4156 1.490 . S
C4152 H4142 0.930 . S
C4152 C4151 1.400 . S
C4152 C4155 1.386 . S
H4153 C4169 0.930 . S
H4154 C4170 0.931 . S
C4155 H4143 0.929 . S
C4155 C4149 1.390 . S
C4155 C4152 1.386 . S
C4156 C4151 1.490 . S
C4156 C4158 1.395 . S
C4156 C4159 1.403 . S
H4157 C4163 0.930 . S
C4158 H4144 0.930 . S
C4158 C4156 1.395 . S
C4158 C4161 1.403 . S
C4159 C4156 1.403 . S
C4159 C4160 1.524 . S
C4159 C4163 1.400 . S
C4160 H4145 0.960 . S
C4160 H4146 0.960 . S
C4160 H4147 0.960 . S
C4160 C4159 1.524 . S
C4161 C4158 1.403 . S
C4161 C4162 1.392 . S
C4161 C4165 1.495 . S
C4162 C4161 1.392 . S
C4162 C4163 1.385 . S
C4162 C4164 1.478 . S
C4163 H4157 0.930 . S
C4163 C4159 1.400 . S
C4163 C4162 1.385 . S
C4164 C4162 1.478 . S
C4164 C4166 1.381 . S
C4164 C4170 1.383 . S
C4165 C4161 1.495 . S
C4165 H4171 0.959 . S
C4165 H4172 0.961 . S
C4165 H4173 0.960 . S
C4166 C4164 1.381 . S
C4166 C4167 1.394 . S
C4166 H4174 0.930 . S
C4167 C4166 1.394 . S
C4167 C4168 1.383 . S
C4167 H4175 0.929 . S
C4168 C4167 1.383 . S
C4168 C4169 1.377 . S
C4169 H4153 0.930 . S
C4169 C4168 1.377 . S
C4169 C4170 1.379 . S
C4170 H4154 0.931 . S
C4170 C4164 1.383 . S
C4170 C4169 1.379 . S
H4171 C4165 0.959 . S
H4172 C4165 0.961 . S
H4173 C4165 0.960 . S
H4174 C4166 0.930 . S
H4175 C4167 0.929 . S
H4176 C4184 0.929 . S
H4177 C4186 0.930 . S
H4178 C4188 0.930 . S
H4179 C4191 0.929 . S
H4180 C4194 0.930 . S
H4181 C4196 0.960 . S
H4182 C4196 0.960 . S
H4183 C4196 0.960 . S
C4184 H4176 0.929 . S
C4184 C4185 1.377 . S
C4184 C4186 1.384 . S
C4185 C4184 1.377 . S
C4185 C4191 1.390 . S
C4186 H4177 0.930 . S
C4186 C4184 1.384 . S
C4186 C4187 1.372 . S
C4187 C4186 1.372 . S
C4187 C4188 1.400 . S
C4187 C4192 1.490 . S
C4188 H4178 0.930 . S
C4188 C4187 1.400 . S
C4188 C4191 1.386 . S
H4189 C4205 0.930 . S
H4190 C4206 0.931 . S
C4191 H4179 0.929 . S
C4191 C4185 1.390 . S
C4191 C4188 1.386 . S
C4192 C4187 1.490 . S
C4192 C4194 1.395 . S
C4192 C4195 1.403 . S
H4193 C4199 0.930 . S
C4194 H4180 0.930 . S
C4194 C4192 1.395 . S
C4194 C4197 1.403 . S
C4195 C4192 1.403 . S
C4195 C4196 1.524 . S
C4195 C4199 1.400 . S
C4196 H4181 0.960 . S
C4196 H4182 0.960 . S
C4196 H4183 0.960 . S
C4196 C4195 1.524 . S
C4197 C4194 1.403 . S
C4197 C4198 1.392 . S
C4197 C4201 1.495 . S
C4198 C4197 1.392 . S
C4198 C4199 1.385 . S
C4198 C4200 1.478 . S
C4199 H4193 0.930 . S
C4199 C4195 1.400 . S
C4199 C4198 1.385 . S
C4200 C4198 1.478 . S
C4200 C4202 1.381 . S
C4200 C4206 1.383 . S
C4201 C4197 1.495 . S
C4201 H4207 0.959 . S
C4201 H4208 0.961 . S
C4201 H4209 0.960 . S
C4202 C4200 1.381 . S
C4202 C4203 1.394 . S
C4202 H4210 0.930 . S
C4203 C4202 1.394 . S
C4203 C4204 1.383 . S
C4203 H4211 0.929 . S
C4204 C4203 1.383 . S
C4204 C4205 1.377 . S
C4205 H4189 0.930 . S
C4205 C4204 1.377 . S
C4205 C4206 1.379 . S
C4206 H4190 0.931 . S
C4206 C4200 1.383 . S
C4206 C4205 1.379 . S
H4207 C4201 0.959 . S
H4208 C4201 0.961 . S
H4209 C4201 0.960 . S
H4210 C4202 0.930 . S
H4211 C4203 0.929 . S
H4212 C4220 0.929 . S
H4213 C4222 0.930 . S
H4214 C4224 0.930 . S
H4215 C4227 0.929 . S
H4216 C4230 0.930 . S
H4217 C4232 0.960 . S
H4218 C4232 0.960 . S
H4219 C4232 0.960 . S
C4220 H4212 0.929 . S
C4220 C4221 1.377 . S
C4220 C4222 1.384 . S
C4221 C4220 1.377 . S
C4221 C4227 1.390 . S
C4222 H4213 0.930 . S
C4222 C4220 1.384 . S
C4222 C4223 1.372 . S
C4223 C4222 1.372 . S
C4223 C4224 1.400 . S
C4223 C4228 1.490 . S
C4224 H4214 0.930 . S
C4224 C4223 1.400 . S
C4224 C4227 1.386 . S
H4225 C4241 0.930 . S
H4226 C4242 0.931 . S
C4227 H4215 0.929 . S
C4227 C4221 1.390 . S
C4227 C4224 1.386 . S
C4228 C4223 1.490 . S
C4228 C4230 1.395 . S
C4228 C4231 1.403 . S
H4229 C4235 0.930 . S
C4230 H4216 0.930 . S
C4230 C4228 1.395 . S
C4230 C4233 1.403 . S
C4231 C4228 1.403 . S
C4231 C4232 1.524 . S
C4231 C4235 1.400 . S
C4232 H4217 0.960 . S
C4232 H4218 0.960 . S
C4232 H4219 0.960 . S
C4232 C4231 1.524 . S
C4233 C4230 1.403 . S
C4233 C4234 1.392 . S
C4233 C4237 1.495 . S
C4234 C4233 1.392 . S
C4234 C4235 1.385 . S
C4234 C4236 1.478 . S
C4235 H4229 0.930 . S
C4235 C4231 1.400 . S
C4235 C4234 1.385 . S
C4236 C4234 1.478 . S
C4236 C4238 1.381 . S
C4236 C4242 1.383 . S
C4237 C4233 1.495 . S
C4237 H4243 0.959 . S
C4237 H4244 0.961 . S
C4237 H4245 0.960 . S
C4238 C4236 1.381 . S
C4238 C4239 1.394 . S
C4238 H4246 0.930 . S
C4239 C4238 1.394 . S
C4239 C4240 1.383 . S
C4239 H4247 0.929 . S
C4240 C4239 1.383 . S
C4240 C4241 1.377 . S
C4241 H4225 0.930 . S
C4241 C4240 1.377 . S
C4241 C4242 1.379 . S
C4242 H4226 0.931 . S
C4242 C4236 1.383 . S
C4242 C4241 1.379 . S
H4243 C4237 0.959 . S
H4244 C4237 0.961 . S
H4245 C4237 0.960 . S
H4246 C4238 0.930 . S
H4247 C4239 0.929 . S
H4248 C4256 0.929 . S
H4249 C4258 0.930 . S
H4250 C4260 0.930 . S
H4251 C4263 0.929 . S
H4252 C4266 0.930 . S
H4253 C4268 0.960 . S
H4254 C4268 0.960 . S
H4255 C4268 0.960 . S
C4256 H4248 0.929 . S
C4256 C4257 1.377 . S
C4256 C4258 1.384 . S
C4257 C4256 1.377 . S
C4257 C4263 1.390 . S
C4258 H4249 0.930 . S
C4258 C4256 1.384 . S
C4258 C4259 1.372 . S
C4259 C4258 1.372 . S
C4259 C4260 1.400 . S
C4259 C4264 1.490 . S
C4260 H4250 0.930 . S
C4260 C4259 1.400 . S
C4260 C4263 1.386 . S
H4261 C4277 0.930 . S
H4262 C4278 0.931 . S
C4263 H4251 0.929 . S
C4263 C4257 1.390 . S
C4263 C4260 1.386 . S
C4264 C4259 1.490 . S
C4264 C4266 1.395 . S
C4264 C4267 1.403 . S
H4265 C4271 0.930 . S
C4266 H4252 0.930 . S
C4266 C4264 1.395 . S
C4266 C4269 1.403 . S
C4267 C4264 1.403 . S
C4267 C4268 1.524 . S
C4267 C4271 1.400 . S
C4268 H4253 0.960 . S
C4268 H4254 0.960 . S
C4268 H4255 0.960 . S
C4268 C4267 1.524 . S
C4269 C4266 1.403 . S
C4269 C4270 1.392 . S
C4269 C4273 1.495 . S
C4270 C4269 1.392 . S
C4270 C4271 1.385 . S
C4270 C4272 1.478 . S
C4271 H4265 0.930 . S
C4271 C4267 1.400 . S
C4271 C4270 1.385 . S
C4272 C4270 1.478 . S
C4272 C4274 1.381 . S
C4272 C4278 1.383 . S
C4273 C4269 1.495 . S
C4273 H4279 0.959 . S
C4273 H4280 0.961 . S
C4273 H4281 0.960 . S
C4274 C4272 1.381 . S
C4274 C4275 1.394 . S
C4274 H4282 0.930 . S
C4275 C4274 1.394 . S
C4275 C4276 1.383 . S
C4275 H4283 0.929 . S
C4276 C4275 1.383 . S
C4276 C4277 1.377 . S
C4277 H4261 0.930 . S
C4277 C4276 1.377 . S
C4277 C4278 1.379 . S
C4278 H4262 0.931 . S
C4278 C4272 1.383 . S
C4278 C4277 1.379 . S
H4279 C4273 0.959 . S
H4280 C4273 0.961 . S
H4281 C4273 0.960 . S
H4282 C4274 0.930 . S
H4283 C4275 0.929 . S
H4284 C4292 0.929 . S
H4285 C4294 0.930 . S
H4286 C4296 0.930 . S
H4287 C4299 0.929 . S
H4288 C4302 0.930 . S
H4289 C4304 0.960 . S
H4290 C4304 0.960 . S
H4291 C4304 0.960 . S
C4292 H4284 0.929 . S
C4292 C4293 1.377 . S
C4292 C4294 1.384 . S
C4293 C4292 1.377 . S
C4293 C4299 1.390 . S
C4294 H4285 0.930 . S
C4294 C4292 1.384 . S
C4294 C4295 1.372 . S
C4295 C4294 1.372 . S
C4295 C4296 1.400 . S
C4295 C4300 1.490 . S
C4296 H4286 0.930 . S
C4296 C4295 1.400 . S
C4296 C4299 1.386 . S
H4297 C4313 0.930 . S
H4298 C4314 0.931 . S
C4299 H4287 0.929 . S
C4299 C4293 1.390 . S
C4299 C4296 1.386 . S
C4300 C4295 1.490 . S
C4300 C4302 1.395 . S
C4300 C4303 1.403 . S
H4301 C4307 0.930 . S
C4302 H4288 0.930 . S
C4302 C4300 1.395 . S
C4302 C4305 1.403 . S
C4303 C4300 1.403 . S
C4303 C4304 1.524 . S
C4303 C4307 1.400 . S
C4304 H4289 0.960 . S
C4304 H4290 0.960 . S
C4304 H4291 0.960 . S
C4304 C4303 1.524 . S
C4305 C4302 1.403 . S
C4305 C4306 1.392 . S
C4305 C4309 1.495 . S
C4306 C4305 1.392 . S
C4306 C4307 1.385 . S
C4306 C4308 1.478 . S
C4307 H4301 0.930 . S
C4307 C4303 1.400 . S
C4307 C4306 1.385 . S
C4308 C4306 1.478 . S
C4308 C4310 1.381 . S
C4308 C4314 1.383 . S
C4309 C4305 1.495 . S
C4309 H4315 0.959 . S
C4309 H4316 0.961 . S
C4309 H4317 0.960 . S
C4310 C4308 1.381 . S
C4310 C4311 1.394 . S
C4310 H4318 0.930 . S
C4311 C4310 1.394 . S
C4311 C4312 1.383 . S
C4311 H4319 0.929 . S
C4312 C4311 1.383 . S
C4312 C4313 1.377 . S
C4313 H4297 0.930 . S
C4313 C4312 1.377 . S
C4313 C4314 1.379 . S
C4314 H4298 0.931 . S
C4314 C4308 1.383 . S
C4314 C4313 1.379 . S
H4315 C4309 0.959 . S
H4316 C4309 0.961 . S
H4317 C4309 0.960 . S
H4318 C4310 0.930 . S
H4319 C4311 0.929 . S
H4320 C4328 0.929 . S
H4321 C4330 0.930 . S
H4322 C4332 0.930 . S
H4323 C4335 0.929 . S
H4324 C4338 0.930 . S
H4325 C4340 0.960 . S
H4326 C4340 0.960 . S
H4327 C4340 0.960 . S
C4328 H4320 0.929 . S
C4328 C4329 1.377 . S
C4328 C4330 1.384 . S
C4329 C4328 1.377 . S
C4329 C4335 1.390 . S
C4330 H4321 0.930 . S
C4330 C4328 1.384 . S
C4330 C4331 1.372 . S
C4331 C4330 1.372 . S
C4331 C4332 1.400 . S
C4331 C4336 1.490 . S
C4332 H4322 0.930 . S
C4332 C4331 1.400 . S
C4332 C4335 1.386 . S
H4333 C4349 0.930 . S
H4334 C4350 0.931 . S
C4335 H4323 0.929 . S
C4335 C4329 1.390 . S
C4335 C4332 1.386 . S
C4336 C4331 1.490 . S
C4336 C4338 1.395 . S
C4336 C4339 1.403 . S
H4337 C4343 0.930 . S
C4338 H4324 0.930 . S
C4338 C4336 1.395 . S
C4338 C4341 1.403 . S
C4339 C4336 1.403 . S
C4339 C4340 1.524 . S
C4339 C4343 1.400 . S
C4340 H4325 0.960 . S
C4340 H4326 0.960 . S
C4340 H4327 0.960 . S
C4340 C4339 1.524 . S
C4341 C4338 1.403 . S
C4341 C4342 1.392 . S
C4341 C4345 1.495 . S
C4342 C4341 1.392 . S
C4342 C4343 1.385 . S
C4342 C4344 1.478 . S
C4343 H4337 0.930 . S
C4343 C4339 1.400 . S
C4343 C4342 1.385 . S
C4344 C4342 1.478 . S
C4344 C4346 1.381 . S
C4344 C4350 1.383 . S
C4345 C4341 1.495 . S
C4345 H4351 0.959 . S
C4345 H4352 0.961 . S
C4345 H4353 0.960 . S
C4346 C4344 1.381 . S
C4346 C4347 1.394 . S
C4346 H4354 0.930 . S
C4347 C4346 1.394 . S
C4347 C4348 1.383 . S
C4347 H4355 0.929 . S
C4348 C4347 1.383 . S
C4348 C4349 1.377 . S
C4349 H4333 0.930 . S
C4349 C4348 1.377 . S
C4349 C4350 1.379 . S
C4350 H4334 0.931 . S
C4350 C4344 1.383 . S
C4350 C4349 1.379 . S
H4351 C4345 0.959 . S
H4352 C4345 0.961 . S
H4353 C4345 0.960 . S
H4354 C4346 0.930 . S
H4355 C4347 0.929 . S
H4356 C4364 0.929 . S
H4357 C4366 0.930 . S
H4358 C4368 0.930 . S
H4359 C4371 0.929 . S
H4360 C4374 0.930 . S
H4361 C4376 0.960 . S
H4362 C4376 0.960 . S
H4363 C4376 0.960 . S
C4364 H4356 0.929 . S
C4364 C4365 1.377 . S
C4364 C4366 1.384 . S
C4365 C4364 1.377 . S
C4365 C4371 1.390 . S
C4366 H4357 0.930 . S
C4366 C4364 1.384 . S
C4366 C4367 1.372 . S
C4367 C4366 1.372 . S
C4367 C4368 1.400 . S
C4367 C4372 1.490 . S
C4368 H4358 0.930 . S
C4368 C4367 1.400 . S
C4368 C4371 1.386 . S
H4369 C4385 0.930 . S
H4370 C4386 0.931 . S
C4371 H4359 0.929 . S
C4371 C4365 1.390 . S
C4371 C4368 1.386 . S
C4372 C4367 1.490 . S
C4372 C4374 1.395 . S
C4372 C4375 1.403 . S
H4373 C4379 0.930 . S
C4374 H4360 0.930 . S
C4374 C4372 1.395 . S
C4374 C4377 1.403 . S
C4375 C4372 1.403 . S
C4375 C4376 1.524 . S
C4375 C4379 1.400 . S
C4376 H4361 0.960 . S
C4376 H4362 0.960 . S
C4376 H4363 0.960 . S
C4376 C4375 1.524 . S
C4377 C4374 1.403 . S
C4377 C4378 1.392 . S
C4377 C4381 1.495 . S
C4378 C4377 1.392 . S
C4378 C4379 1.385 . S
C4378 C4380 1.478 . S
C4379 H4373 0.930 . S
C4379 C4375 1.400 . S
C4379 C4378 1.385 . S
C4380 C4378 1.478 . S
C4380 C4382 1.381 . S
C4380 C4386 1.383 . S
C4381 C4377 1.495 . S
C4381 H4387 0.959 . S
C4381 H4388 0.961 . S
C4381 H4389 0.960 . S
C4382 C4380 1.381 . S
C4382 C4383 1.394 . S
C4382 H4390 0.930 . S
C4383 C4382 1.394 . S
C4383 C4384 1.383 . S
C4383 H4391 0.929 . S
C4384 C4383 1.383 . S
C4384 C4385 1.377 . S
C4385 H4369 0.930 . S
C4385 C4384 1.377 . S
C4385 C4386 1.379 . S
C4386 H4370 0.931 . S
C4386 C4380 1.383 . S
C4386 C4385 1.379 . S
H4387 C4381 0.959 . S
H4388 C4381 0.961 . S
H4389 C4381 0.960 . S
H4390 C4382 0.930 . S
H4391 C4383 0.929 . S
H4392 C4400 0.929 1_455 S
H4393 C4402 0.940 1_455 S
H4394 C4404 0.930 . S
H4395 C4407 0.929 . S
H4396 C4410 0.945 1_455 S
H4397 C4412 0.960 . S
H4398 C4412 0.960 . S
H4399 C4412 0.960 . S
C4400 H4392 0.929 1_655 S
C4400 C4401 1.377 . S
C4400 C4402 1.378 . S
C4401 C4400 1.377 . S
C4401 C4407 1.390 . S
C4402 H4393 0.940 1_655 S
C4402 C4400 1.378 . S
C4402 C4403 1.368 . S
C4403 C4402 1.368 . S
C4403 C4404 1.400 . S
C4403 C4408 1.490 . S
C4404 H4394 0.930 . S
C4404 C4403 1.400 . S
C4404 C4407 1.386 . S
H4405 C4421 0.930 . S
H4406 C4422 0.931 . S
C4407 H4395 0.929 . S
C4407 C4401 1.390 . S
C4407 C4404 1.386 . S
C4408 C4403 1.490 . S
C4408 C4410 1.395 . S
C4408 C4411 1.403 . S
H4409 C4415 0.930 . S
C4410 H4396 0.945 1_655 S
C4410 C4408 1.395 . S
C4410 C4413 1.409 1_655 S
C4411 C4408 1.403 . S
C4411 C4412 1.524 . S
C4411 C4415 1.400 . S
C4412 H4397 0.960 . S
C4412 H4398 0.960 . S
C4412 H4399 0.960 . S
C4412 C4411 1.524 . S
C4413 C4410 1.409 1_455 S
C4413 C4414 1.391 1_455 S
C4413 C4417 1.492 . S
C4414 C4413 1.391 1_655 S
C4414 C4415 1.385 . S
C4414 C4416 1.478 . S
C4415 H4409 0.930 . S
C4415 C4411 1.400 . S
C4415 C4414 1.385 . S
C4416 C4414 1.478 . S
C4416 C4418 1.381 1_655 S
C4416 C4422 1.383 . S
C4417 C4413 1.492 . S
C4417 H4423 0.959 . S
C4417 H4424 0.987 . S
C4417 H4425 0.960 . S
C4418 C4416 1.381 1_455 S
C4418 C4419 1.394 . S
C4418 H4426 0.930 . S
C4419 C4418 1.394 . S
C4419 C4420 1.380 1_455 S
C4419 H4427 0.929 . S
C4420 C4419 1.380 1_655 S
C4420 C4421 1.384 . S
C4421 H4405 0.930 . S
C4421 C4420 1.384 . S
C4421 C4422 1.379 . S
C4422 H4406 0.931 . S
C4422 C4416 1.383 . S
C4422 C4421 1.379 . S
H4423 C4417 0.959 . S
H4424 C4417 0.987 . S
H4425 C4417 0.960 . S
H4426 C4418 0.930 . S
H4427 C4419 0.929 . S
H4428 C4436 0.929 . S
H4429 C4438 0.930 . S
H4430 C4440 0.930 . S
H4431 C4443 0.929 . S
H4432 C4446 0.930 . S
H4433 C4448 0.960 . S
H4434 C4448 0.960 . S
H4435 C4448 0.960 . S
C4436 H4428 0.929 . S
C4436 C4437 1.377 . S
C4436 C4438 1.384 . S
C4437 C4436 1.377 . S
C4437 C4443 1.390 . S
C4438 H4429 0.930 . S
C4438 C4436 1.384 . S
C4438 C4439 1.372 . S
C4439 C4438 1.372 . S
C4439 C4440 1.400 . S
C4439 C4444 1.490 . S
C4440 H4430 0.930 . S
C4440 C4439 1.400 . S
C4440 C4443 1.386 . S
H4441 C4457 0.930 . S
H4442 C4458 0.931 . S
C4443 H4431 0.929 . S
C4443 C4437 1.390 . S
C4443 C4440 1.386 . S
C4444 C4439 1.490 . S
C4444 C4446 1.395 . S
C4444 C4447 1.403 . S
H4445 C4451 0.930 . S
C4446 H4432 0.930 . S
C4446 C4444 1.395 . S
C4446 C4449 1.403 . S
C4447 C4444 1.403 . S
C4447 C4448 1.524 . S
C4447 C4451 1.400 . S
C4448 H4433 0.960 . S
C4448 H4434 0.960 . S
C4448 H4435 0.960 . S
C4448 C4447 1.524 . S
C4449 C4446 1.403 . S
C4449 C4450 1.392 . S
C4449 C4453 1.495 . S
C4450 C4449 1.392 . S
C4450 C4451 1.385 . S
C4450 C4452 1.478 . S
C4451 H4445 0.930 . S
C4451 C4447 1.400 . S
C4451 C4450 1.385 . S
C4452 C4450 1.478 . S
C4452 C4454 1.381 . S
C4452 C4458 1.383 . S
C4453 C4449 1.495 . S
C4453 H4459 0.959 . S
C4453 H4460 0.961 . S
C4453 H4461 0.960 . S
C4454 C4452 1.381 . S
C4454 C4455 1.394 . S
C4454 H4462 0.930 . S
C4455 C4454 1.394 . S
C4455 C4456 1.383 . S
C4455 H4463 0.929 . S
C4456 C4455 1.383 . S
C4456 C4457 1.377 . S
C4457 H4441 0.930 . S
C4457 C4456 1.377 . S
C4457 C4458 1.379 . S
C4458 H4442 0.931 . S
C4458 C4452 1.383 . S
C4458 C4457 1.379 . S
H4459 C4453 0.959 . S
H4460 C4453 0.961 . S
H4461 C4453 0.960 . S
H4462 C4454 0.930 . S
H4463 C4455 0.929 . S
H4464 C4472 0.929 1_565 S
H4465 C4474 0.927 . S
H4466 C4476 0.930 . S
H4467 C4479 0.929 . S
H4468 C4482 0.930 . S
H4469 C4484 0.960 . S
H4470 C4484 0.960 . S
H4471 C4484 0.960 . S
C4472 H4464 0.929 1_545 S
C4472 C4473 1.377 . S
C4472 C4474 1.382 1_545 S
C4473 C4472 1.377 . S
C4473 C4479 1.390 . S
C4474 H4465 0.927 . S
C4474 C4472 1.382 1_565 S
C4474 C4475 1.377 1_565 S
C4475 C4474 1.377 1_545 S
C4475 C4476 1.400 . S
C4475 C4480 1.490 . S
C4476 H4466 0.930 . S
C4476 C4475 1.400 . S
C4476 C4479 1.386 . S
H4477 C4493 0.930 . S
H4478 C4494 0.931 . S
C4479 H4467 0.929 . S
C4479 C4473 1.390 . S
C4479 C4476 1.386 . S
C4480 C4475 1.490 . S
C4480 C4482 1.395 . S
C4480 C4483 1.403 . S
H4481 C4487 0.930 . S
C4482 H4468 0.930 . S
C4482 C4480 1.395 . S
C4482 C4485 1.403 . S
C4483 C4480 1.403 . S
C4483 C4484 1.524 . S
C4483 C4487 1.400 . S
C4484 H4469 0.960 . S
C4484 H4470 0.960 . S
C4484 H4471 0.960 . S
C4484 C4483 1.524 . S
C4485 C4482 1.403 . S
C4485 C4486 1.392 . S
C4485 C4489 1.495 1_545 S
C4486 C4485 1.392 . S
C4486 C4487 1.385 . S
C4486 C4488 1.478 . S
C4487 H4481 0.930 . S
C4487 C4483 1.400 . S
C4487 C4486 1.385 . S
C4488 C4486 1.478 . S
C4488 C4490 1.381 1_545 S
C4488 C4494 1.383 . S
C4489 C4485 1.495 1_565 S
C4489 H4495 0.959 . S
C4489 H4496 0.961 1_565 S
C4489 H4497 0.960 . S
C4490 C4488 1.381 1_565 S
C4490 C4491 1.394 . S
C4490 H4498 0.930 . S
C4491 C4490 1.394 . S
C4491 C4492 1.382 1_565 S
C4491 H4499 0.929 . S
C4492 C4491 1.382 1_545 S
C4492 C4493 1.378 . S
C4493 H4477 0.930 . S
C4493 C4492 1.378 . S
C4493 C4494 1.379 . S
C4494 H4478 0.931 . S
C4494 C4488 1.383 . S
C4494 C4493 1.379 . S
H4495 C4489 0.959 . S
H4496 C4489 0.961 1_545 S
H4497 C4489 0.960 . S
H4498 C4490 0.930 . S
H4499 C4491 0.929 . S
C1917 C49 1.653 . S
C1936 C1753 1.658 . S
C1953 C137 1.678 . S
C1972 C1778 1.644 . S
C2008 C1789 1.629 . S
C1989 C205 1.669 . S
C2025 C196 1.656 . S
C2044 C1814 1.622 . S
C2061 C57 1.668 . S
C2080 C1832 1.664 . S
C2097 C145 1.678 . S
C2116 C1843 1.672 . S
C2133 C313 1.665 . S
C2152 C1825 1.652 1_455 S
C2188 C1850 1.624 . S
C2169 C401 1.660 . S
C2224 C1807 1.666 . S
C2205 C489 1.672 . S
C2241 C469 1.659 . S
C2260 C1796 1.654 1_545 S
C2296 C1760 1.626 1_655 S
C2277 C293 1.674 . S
C2313 C381 1.660 . S
C2332 C1771 1.624 . S
C2349 C577 1.719 . S
C2368 C1861 1.696 . S
C2385 C645 1.703 . S
C2404 C1886 1.692 . S
C2440 C1897 1.671 . S
C2421 C733 1.681 . S
C2457 C724 1.681 . S
C2476 C1598 1.680 . S
C2493 C585 1.706 . S
C2512 C1616 1.687 . S
C2529 C636 1.721 . S
C2548 C1627 1.671 . S
C2565 C841 1.665 . S
C2584 C1609 1.658 . S
C2601 C937 1.697 . S
C2620 C1634 1.671 . S
C2656 C1591 1.675 . S
C2637 C1025 1.692 . S
C2692 C1904 1.698 . S
C2673 C988 1.704 . S
C2728 C1868 1.648 . S
C2709 C821 1.664 . S
C2764 C1879 1.669 . S
C2745 C900 1.684 . S
C2781 C1105 1.685 . S
C2800 C1645 1.641 . S
C2817 C1193 1.716 . S
C2836 C1670 1.702 . S
C2853 C1281 1.705 . S
C2872 C1681 1.695 . S
C2889 C1289 1.717 . S
C2908 C1706 1.683 . S
C2944 C1724 1.676 . S
C2925 C1113 1.684 . S
C2980 C1735 1.668 . S
C2961 C1201 1.703 . S
C3016 C1717 1.695 . S
C2997 C1369 1.702 . S
C3052 C1742 1.644 . S
C3033 C1457 1.682 . S
C3069 C1553 1.659 . S
C3088 C1699 1.620 . S
C3124 C1688 1.663 . S
C3105 C1516 1.666 . S
C3141 C1349 1.691 . S
C3160 C1652 1.662 . S
C3196 C1663 1.677 . S
C3177 C1437 1.698 . S
C3232 C1600 1.221 . S
C3213 C29 1.296 . S
C3249 C117 1.245 . S
C3268 C1618 1.145 . S
C3304 C1628 1.258 . S
C3285 C225 1.306 . S
C3340 C1646 1.265 . S
C3321 C233 1.288 . S
C3376 C1672 1.236 . S
C3357 C20 1.309 . S
C3412 C1682 1.143 . S
C3393 C108 1.245 . S
C3429 C321 1.343 . S
C3448 C1690 1.227 . S
C3465 C409 1.287 . S
C3484 C1654 1.209 . S
C3501 C497 1.352 . S
C3520 C1664 1.312 . S
C3537 C460 1.337 . S
C3556 C1610 1.282 . S
C3592 C1636 1.297 . S
C3573 C284 1.349 . S
C3609 C372 1.288 . S
C3628 C1592 1.236 . S
C3664 C1708 1.237 . S
C3645 C557 1.262 . S
C3681 C665 1.341 . S
C3700 C1726 1.252 . S
C3717 C753 1.343 . S
C3736 C1736 1.259 . S
C3772 C1754 1.120 . S
C3753 C761 1.139 . S
C3789 C548 1.254 . S
C3808 C1780 1.219 . S
C3825 C673 1.152 . S
C3844 C1790 1.061 . S
C3861 C849 1.165 . S
C3880 C1798 1.113 . S
C3897 C929 1.172 . S
C3916 C1762 1.136 1_655 S
C3952 C1772 1.197 . S
C3933 C1017 1.295 . S
C3969 C997 1.308 . S
C3988 C1718 1.259 . S
C4005 C812 1.384 . S
C4024 C1744 1.301 . S
C4060 C1700 1.265 . S
C4041 C909 1.383 . S
C4096 C1816 1.134 . S
C4077 C1085 1.144 . S
C4113 C1173 1.153 . S
C4132 C1834 1.084 . S
C4149 C1261 1.252 . S
C4168 C1844 1.224 . S
C4204 C1862 1.226 . S
C4185 C1252 1.257 . S
C4240 C1888 1.301 . S
C4221 C1076 1.343 . S
C4257 C1164 1.340 . S
C4276 C1898 1.299 . S
C4293 C1377 1.313 . S
C4312 C1906 1.262 . S
C4329 C1465 1.382 . S
C4348 C1870 1.249 . S
C4384 C1880 1.277 . S
C4365 C1545 1.382 . S
C4420 C1826 1.048 1_655 S
C4401 C1525 1.155 . S
C4456 C1852 1.212 . S
C4437 C1340 1.297 . S
C4473 C1428 1.173 . S
C4492 C1808 1.086 1_545 S
