# Generated by pormake.
# Topology zzz, (3,6)-cn, num edge types: 1
# Building blocks:
#     Node 0, Type 0, BuildingBlock: BETDAH_clean_linker_0, # of connection points: 3
#     Node 1, Type 0, BuildingBlock: BETDAH_clean_linker_0, # of connection points: 3
#     Node 2, Type 0, BuildingBlock: BETDAH_clean_linker_0, # of connection points: 3
#     Node 3, Type 0, BuildingBlock: BETDAH_clean_linker_0, # of connection points: 3
#     Node 4, Type 0, BuildingBlock: BETDAH_clean_linker_0, # of connection points: 3
#     Node 5, Type 0, BuildingBlock: BETDAH_clean_linker_0, # of connection points: 3
#     Node 6, Type 0, BuildingBlock: BETDAH_clean_linker_0, # of connection points: 3
#     Node 7, Type 0, BuildingBlock: BETDAH_clean_linker_0, # of connection points: 3
#     Node 8, Type 1, BuildingBlock: NUHQIS_clean_sbu_0, # of connection points: 6
#     Node 9, Type 1, BuildingBlock: NUHQIS_clean_sbu_0, # of connection points: 6
#     Node 10, Type 1, BuildingBlock: NUHQIS_clean_sbu_0, # of connection points: 6
#     Node 11, Type 1, BuildingBlock: NUHQIS_clean_sbu_0, # of connection points: 6
#     Edge 12, Type (0, 1), BuildingBlock: AJUNOK_clean_linker_0, # of connection points: 2
#     Edge 13, Type (0, 1), BuildingBlock: AJUNOK_clean_linker_0, # of connection points: 2
#     Edge 14, Type (0, 1), BuildingBlock: AJUNOK_clean_linker_0, # of connection points: 2
#     Edge 15, Type (0, 1), BuildingBlock: AJUNOK_clean_linker_0, # of connection points: 2
#     Edge 16, Type (0, 1), BuildingBlock: AJUNOK_clean_linker_0, # of connection points: 2
#     Edge 17, Type (0, 1), BuildingBlock: AJUNOK_clean_linker_0, # of connection points: 2
#     Edge 18, Type (0, 1), BuildingBlock: AJUNOK_clean_linker_0, # of connection points: 2
#     Edge 19, Type (0, 1), BuildingBlock: AJUNOK_clean_linker_0, # of connection points: 2
#     Edge 20, Type (0, 1), BuildingBlock: AJUNOK_clean_linker_0, # of connection points: 2
#     Edge 21, Type (0, 1), BuildingBlock: AJUNOK_clean_linker_0, # of connection points: 2
#     Edge 22, Type (0, 1), BuildingBlock: AJUNOK_clean_linker_0, # of connection points: 2
#     Edge 23, Type (0, 1), BuildingBlock: AJUNOK_clean_linker_0, # of connection points: 2
#     Edge 24, Type (0, 1), BuildingBlock: AJUNOK_clean_linker_0, # of connection points: 2
#     Edge 25, Type (0, 1), BuildingBlock: AJUNOK_clean_linker_0, # of connection points: 2
#     Edge 26, Type (0, 1), BuildingBlock: AJUNOK_clean_linker_0, # of connection points: 2
#     Edge 27, Type (0, 1), BuildingBlock: AJUNOK_clean_linker_0, # of connection points: 2
#     Edge 28, Type (0, 1), BuildingBlock: AJUNOK_clean_linker_0, # of connection points: 2
#     Edge 29, Type (0, 1), BuildingBlock: AJUNOK_clean_linker_0, # of connection points: 2
#     Edge 30, Type (0, 1), BuildingBlock: AJUNOK_clean_linker_0, # of connection points: 2
#     Edge 31, Type (0, 1), BuildingBlock: AJUNOK_clean_linker_0, # of connection points: 2
#     Edge 32, Type (0, 1), BuildingBlock: AJUNOK_clean_linker_0, # of connection points: 2
#     Edge 33, Type (0, 1), BuildingBlock: AJUNOK_clean_linker_0, # of connection points: 2
#     Edge 34, Type (0, 1), BuildingBlock: AJUNOK_clean_linker_0, # of connection points: 2
#     Edge 35, Type (0, 1), BuildingBlock: AJUNOK_clean_linker_0, # of connection points: 2
# Relax obj value: 0.341
# Max RMSD: 0.179
# Mean RMSD: 0.139
data_MOF--net-zzz--node1-NUHQIS_clean_sbu_0--node2-BETDAH_clean_linker_0--edge1-AJUNOK_clean_linker_0
_symmetry_space_group_name_H-M    P1
_symmetry_Int_Tables_number       1
_symmetry_cell_setting            triclinic
loop_
_symmetry_equiv_pos_as_xyz
'x, y, z'
_cell_length_a     38.08714
_cell_length_b     38.107949
_cell_length_c     10.669149
_cell_angle_alpha  89.817659
_cell_angle_beta   89.787926
_cell_angle_gamma 89.92239
loop_
_atom_site_label
_atom_site_type_symbol
_atom_site_fract_x
_atom_site_fract_y
_atom_site_fract_z
_atom_type_partial_charge
H0 H 0.84946 0.4663 0.40893 0.0
H1 H 0.74673 0.48268 0.25815 0.0
H2 H 0.78774 0.55337 0.5393 0.0
C3 C 0.825 0.48098 0.40987 0.0
C4 C 0.8219 0.51016 0.48815 0.0
C5 C 0.79784 0.47045 0.33049 0.0
C6 C 0.76712 0.4905 0.32273 0.0
C7 C 0.76314 0.52072 0.39762 0.0
C8 C 0.79074 0.53042 0.48056 0.0
N9 N 0.73194 0.54166 0.39152 0.0
C10 C 0.70338 0.53585 0.31114 0.0
H11 H 0.08533 0.84505 0.41558 0.0
H12 H 0.07057 0.73891 0.29628 0.0
H13 H 0.99759 0.78664 0.55747 0.0
C14 C 0.07128 0.82041 0.42414 0.0
C15 C 0.04176 0.81914 0.50212 0.0
C16 C 0.0824 0.79156 0.35287 0.0
C17 C 0.06234 0.76082 0.35375 0.0
C18 C 0.03121 0.75885 0.42518 0.0
C19 C 1.02118 0.78811 0.50073 0.0
N20 N 1.00952 0.72818 0.42075 0.0
C21 C 1.01464 0.69954 0.33958 0.0
H22 H 0.70972 0.08798 0.43377 0.0
H23 H 0.81189 0.07334 0.27376 0.0
H24 H 0.77197 0.9999 0.55048 0.0
C25 C 0.73436 0.07361 0.432 0.0
C26 C 0.73777 0.0437 0.50674 0.0
C27 C 0.76103 0.08483 0.35085 0.0
C28 C 0.79182 0.06491 0.33916 0.0
C29 C 0.79616 0.034 0.41086 0.0
C30 C 0.76888 1.02352 0.4949 0.0
N31 N 0.82723 1.01294 0.39985 0.0
C32 C 0.85477 1.01838 0.31381 0.0
H33 H 0.4713 0.70383 0.37671 0.0
H34 H 0.48974 0.8085 0.24775 0.0
H35 H 0.5524 0.76509 0.54928 0.0
C36 C 0.48516 0.72849 0.38781 0.0
C37 C 0.5115 0.73106 0.47822 0.0
C38 C 0.47646 0.75653 0.30881 0.0
C39 C 0.49604 0.78747 0.31239 0.0
C40 C 0.52393 0.7908 0.39813 0.0
C41 C 0.53139 0.7625 0.48186 0.0
N42 N 0.54471 0.82206 0.40168 0.0
C43 C 0.54155 0.85044 0.31797 0.0
H44 H 0.20863 0.59211 0.18348 0.0
H45 H 0.31388 0.57853 0.31769 0.0
H46 H 0.26631 0.50007 0.08053 0.0
C47 C 0.23315 0.57761 0.18269 0.0
C48 C 0.23446 0.54613 0.1162 0.0
C49 C 0.26169 0.59011 0.2525 0.0
C50 C 0.29204 0.56935 0.26212 0.0
C51 C 0.29377 0.53639 0.2025 0.0
C52 C 0.26495 0.52509 0.12815 0.0
N53 N 0.32377 0.51405 0.21682 0.0
C54 C 0.3517 0.5196 0.30023 0.0
H55 H 0.95926 0.21424 0.14431 0.0
H56 H 0.97785 0.31295 0.32478 0.0
H57 H 0.05475 0.27015 0.0682 0.0
C58 C 0.97509 0.23773 0.154 0.0
C59 C 1.00752 0.23915 0.09243 0.0
C60 C 0.96452 0.2638 0.23895 0.0
C61 C 0.98591 0.29326 0.25752 0.0
C62 C 1.01844 0.29613 0.19528 0.0
C63 C 0.02931 0.26867 0.11363 0.0
N64 N 0.04125 0.32534 0.21712 0.0
C65 C 0.03528 0.35255 0.30348 0.0
H66 H 0.34308 0.97119 0.19702 0.0
H67 H 0.23763 0.98988 0.32046 0.0
H68 H 0.28812 0.06187 0.06188 0.0
C69 C 0.319 0.9863 0.19011 0.0
C70 C 0.31883 1.01616 0.11378 0.0
C71 C 0.2897 0.976 0.26113 0.0
C72 C 0.25985 0.99743 0.26282 0.0
C73 C 0.25917 0.02896 0.19344 0.0
C74 C 0.28869 0.03803 0.11735 0.0
N75 N 0.22948 0.05196 0.20036 0.0
C76 C 0.20096 0.04768 0.28309 0.0
H77 H 0.59206 0.3414 0.15338 0.0
H78 H 0.57598 0.24067 0.32484 0.0
H79 H 0.49869 0.28322 0.0702 0.0
C80 C 0.57693 0.31735 0.16092 0.0
C81 C 0.54483 0.3154 0.09858 0.0
C82 C 0.58796 0.29095 0.24393 0.0
C83 C 0.56748 0.26066 0.25934 0.0
C84 C 0.53532 0.25725 0.19583 0.0
C85 C 0.52389 0.28507 0.11644 0.0
N86 N 0.51343 0.22709 0.21396 0.0
C87 C 0.51968 0.1995 0.29891 0.0
Tb88 Tb 0.05355 1.02185 0.8929 0.0
Eu89 Eu 0.99731 0.03977 0.67424 0.0
C90 C 0.07982 0.03963 0.62181 0.0
C91 C 0.02851 0.10103 0.86253 0.0
C92 C 0.10948 0.96305 0.06606 0.0
C93 C 0.1538 0.91777 0.09662 0.0
C94 C 0.14457 0.95335 0.08675 0.0
C95 C 0.08397 0.93691 0.05283 0.0
C96 C 0.09304 0.90172 0.06306 0.0
C97 C 0.12806 0.89151 0.0846 0.0
C98 C 0.09974 0.99978 0.04231 0.0
O99 O 1.00162 1.00926 0.97554 0.0
O100 O 0.96845 0.04622 0.8565 0.0
O101 O 0.99686 0.98003 0.68219 0.0
O102 O 0.04913 0.97357 0.78387 0.0
C103 C 0.97212 1.02679 0.95689 0.0
O104 O 0.94429 0.03601 0.59819 0.0
O105 O 0.98459 0.06438 0.49567 0.0
O106 O 0.0494 0.02951 0.5774 0.0
O107 O 0.08245 0.04788 0.7409 0.0
O108 O 0.04285 0.07687 0.93482 0.0
O109 O 1.01345 0.09298 0.75472 0.0
C110 C 1.02331 0.96022 0.71804 0.0
O111 O 0.1065 1.01034 0.92905 0.0
O112 O 0.06832 1.00927 0.07776 0.0
C113 C 0.92806 0.08804 0.49186 0.0
C114 C 0.90327 0.15713 0.46348 0.0
C115 C 0.90459 0.14158 0.5831 0.0
C116 C 0.91745 0.1074 0.59737 0.0
C117 C 0.92224 0.10171 0.37204 0.0
C118 C 0.90991 0.13594 0.35779 0.0
C119 C 0.95114 0.0574 0.50551 0.0
H120 H 0.18086 0.9108 0.11537 0.0
H121 H 0.16475 0.97323 0.09471 0.0
H122 H 0.05683 0.94366 0.03429 0.0
H123 H 0.07211 0.88257 0.05839 0.0
H124 H 0.89875 0.15682 0.66613 0.0
H125 H 0.9217 0.09724 0.69102 0.0
H126 H 0.93033 0.0872 0.28963 0.0
H127 H 0.90934 0.14686 0.26397 0.0
Tb128 Tb 0.53846 0.05331 0.92839 0.0
Eu129 Eu 0.52081 0.99759 0.70656 0.0
C130 C 0.52625 0.081 0.65098 0.0
C131 C 0.45978 0.02915 0.89024 0.0
C132 C 0.58465 0.11911 0.12199 0.0
C133 C 0.6364 0.14847 0.03909 0.0
C134 C 0.60294 0.13429 0.0209 0.0
C135 C 0.59853 0.12162 0.24293 0.0
C136 C 0.6321 0.13531 0.26069 0.0
C137 C 0.65225 0.14676 0.15748 0.0
C138 C 0.55478 0.09549 0.10088 0.0
O139 O 0.52797 1.00227 0.01921 0.0
O140 O 0.54806 0.96802 0.86118 0.0
O141 O 0.57791 1.00831 0.6684 0.0
O142 O 0.59049 0.03967 0.84825 0.0
C143 C 0.53912 0.97158 0.97897 0.0
O144 O 0.50816 0.94306 0.66481 0.0
O145 O 0.50639 0.98179 0.51669 0.0
O146 O 0.50953 0.0517 0.6243 0.0
O147 O 0.54407 0.08387 0.75573 0.0
O148 O 0.48065 0.0551 0.92234 0.0
O149 O 0.47186 1.00279 0.82424 0.0
C150 C 0.60033 1.02433 0.74219 0.0
O151 O 0.53361 0.10339 1.00923 0.0
O152 O 0.56276 0.06221 0.1014 0.0
C153 C 0.4596 0.94148 0.53372 0.0
C154 C 0.38757 0.92453 0.52062 0.0
C155 C 0.41332 0.89845 0.50215 0.0
C156 C 0.44915 0.90687 0.50926 0.0
C157 C 0.434 0.96725 0.55418 0.0
C158 C 0.39857 0.95901 0.54663 0.0
C159 C 0.49667 0.95049 0.55327 0.0
H160 H 0.65113 0.15794 0.95911 0.0
H161 H 0.59263 0.13277 0.92666 0.0
H162 H 0.58482 0.11009 0.3221 0.0
H163 H 0.64362 0.13323 0.35313 0.0
H164 H 0.40577 0.8718 0.48005 0.0
H165 H 0.46863 0.88646 0.49585 0.0
H166 H 0.44137 0.99401 0.57585 0.0
H167 H 0.37987 0.98025 0.55646 0.0
Tb168 Tb 0.50053 0.5346 0.92072 0.0
Eu169 Eu 0.55543 0.51562 0.69503 0.0
C170 C 0.47163 0.52306 0.64223 0.0
C171 C 0.524 0.45482 0.87972 0.0
C172 C 0.43415 0.58285 0.10181 0.0
C173 C 0.40902 0.63397 0.9991 0.0
C174 C 0.42144 0.59947 0.99327 0.0
C175 C 0.43035 0.59945 0.21785 0.0
C176 C 0.41849 0.63405 0.22328 0.0
C177 C 0.41036 0.65247 0.11242 0.0
C178 C 0.4584 0.55302 0.09196 0.0
O179 O 0.55333 0.54546 0.99469 0.0
O180 O 0.58535 0.50779 0.87507 0.0
O181 O 0.55446 0.57523 0.70258 0.0
O182 O 0.50172 0.58196 0.80355 0.0
C183 C 0.58218 0.52713 0.9757 0.0
O184 O 0.60882 0.51882 0.62026 0.0
O185 O 0.56826 0.49253 0.51417 0.0
O186 O 0.50362 0.52492 0.59554 0.0
O187 O 0.4661 0.5211 0.76399 0.0
O188 O 0.51288 0.47932 0.9573 0.0
O189 O 0.53683 0.46272 0.76819 0.0
C190 C 0.52737 0.5948 0.73409 0.0
O191 O 0.45122 0.52915 1.00896 0.0
O192 O 0.49131 0.56199 0.0876 0.0
C193 C 0.62405 0.46731 0.5096 0.0
C194 C 0.64711 0.39783 0.47599 0.0
C195 C 0.64123 0.41997 0.37195 0.0
C196 C 0.62976 0.4544 0.38878 0.0
C197 C 0.63375 0.44681 0.61367 0.0
C198 C 0.6457 0.41241 0.59683 0.0
C199 C 0.60182 0.49847 0.52546 0.0
H200 H 0.40192 0.64737 0.91345 0.0
H201 H 0.4242 0.58711 0.90259 0.0
H202 H 0.4401 0.58712 0.30254 0.0
H203 H 0.41985 0.64752 0.31242 0.0
H204 H 0.64185 0.40976 0.27734 0.0
H205 H 0.62229 0.46978 0.30752 0.0
H206 H 0.62954 0.45637 0.70809 0.0
H207 H 0.65087 0.39635 0.67865 0.0
Tb208 Tb 1.01653 0.49888 0.934 0.0
Eu209 Eu 0.0365 0.55455 0.70999 0.0
C210 C 0.02928 0.4708 0.65355 0.0
C211 C 0.09606 0.52205 0.89326 0.0
C212 C 0.97045 0.43035 0.11841 0.0
C213 C 0.91989 0.40199 0.02508 0.0
C214 C 0.95337 0.41669 0.01286 0.0
C215 C 0.95565 0.4254 0.23731 0.0
C216 C 0.9221 0.4112 0.24924 0.0
C217 C 0.90281 0.40187 0.14198 0.0
C218 C 0.99888 0.45603 0.10451 0.0
O219 O 1.00548 0.5511 0.0127 0.0
O220 O 0.04246 0.58398 0.89244 0.0
O221 O 0.97686 0.55425 0.71397 0.0
O222 O 0.96924 0.50179 0.81712 0.0
C223 C 1.02328 0.58024 0.99382 0.0
O224 O 0.04234 0.60937 0.65036 0.0
O225 O 0.05492 0.56754 0.52183 0.0
O226 O 0.02855 0.50296 0.60806 0.0
O227 O 0.02962 0.46475 0.77524 0.0
O228 O 0.07148 0.51216 0.9728 0.0
O229 O 0.08831 0.53287 0.77942 0.0
C230 C 0.95685 0.52754 0.7468 0.0
O231 O 1.02305 0.44958 0.02108 0.0
O232 O 0.98825 0.48843 0.09859 0.0
C233 C 0.09419 0.615 0.53141 0.0
C234 C 0.16361 0.64039 0.50748 0.0
C235 C 0.13478 0.66289 0.48678 0.0
C236 C 0.10024 0.65028 0.49938 0.0
C237 C 0.12292 0.59291 0.55379 0.0
C238 C 0.15698 0.60527 0.54107 0.0
C239 C 0.05842 0.60084 0.54686 0.0
H240 H 0.90587 0.39419 0.94181 0.0
H241 H 0.9644 0.42029 0.92004 0.0
H242 H 0.96832 0.43594 0.31975 0.0
H243 H 0.90978 0.41189 0.34089 0.0
H244 H 0.13897 0.68985 0.45796 0.0
H245 H 0.07837 0.66786 0.48259 0.0
H246 H 0.11916 0.56564 0.57936 0.0
H247 H 0.17815 0.58655 0.55264 0.0
C248 C 0.13646 0.04462 0.32323 0.0
C249 C 0.17101 0.04502 0.3692 0.0
C250 C 0.10725 0.04281 0.40502 0.0
C251 C 0.11136 0.04188 0.5366 0.0
H252 H 0.13193 0.04591 0.2232 0.0
H253 H 0.08122 0.0425 0.36453 0.0
S254 S 0.19701 0.04131 0.70325 0.0
N255 N 0.20796 0.04345 0.55345 0.0
N256 N 0.15364 0.04062 0.70734 0.0
C257 C 0.14606 0.0422 0.58313 0.0
C258 C 0.1757 0.04364 0.49953 0.0
C259 C 0.50694 0.13741 0.35875 0.0
C260 C 0.52281 0.16981 0.38612 0.0
C261 C 0.50828 0.10893 0.44388 0.0
C262 C 0.52555 0.1116 0.56049 0.0
H263 H 0.49313 0.13405 0.271 0.0
H264 H 0.49551 0.08466 0.41789 0.0
S265 S 0.5718 0.19137 0.67505 0.0
N266 N 0.5565 0.20309 0.53648 0.0
N267 N 0.55945 0.15023 0.69592 0.0
C268 C 0.54187 0.14409 0.58763 0.0
C269 C 0.54037 0.17297 0.50082 0.0
C270 C 0.4154 0.5118 0.34642 0.0
C271 C 0.38161 0.52201 0.38585 0.0
C272 C 0.44437 0.5127 0.42874 0.0
C273 C 0.44061 0.52311 0.55504 0.0
H274 H 0.41947 0.50279 0.25128 0.0
H275 H 0.4698 0.50453 0.39349 0.0
S276 S 0.35725 0.5531 0.7031 0.0
N277 N 0.34602 0.54361 0.55771 0.0
N278 N 0.39971 0.54471 0.71306 0.0
C279 C 0.40671 0.53348 0.59488 0.0
C280 C 0.37744 0.53302 0.51035 0.0
C281 C 0.04318 0.41584 0.35544 0.0
C282 C 0.03242 0.38195 0.39146 0.0
C283 C 0.04162 0.44439 0.43959 0.0
C284 C 0.02997 0.44012 0.56458 0.0
H285 H 0.05301 0.42036 0.26139 0.0
H286 H 0.05021 0.4699 0.40673 0.0
S287 S 0.99837 0.35623 0.70417 0.0
N288 N 1.00913 0.34568 0.55894 0.0
N289 N 1.00679 0.39856 0.71779 0.0
C290 C 1.01913 0.40609 0.60116 0.0
C291 C 1.02026 0.37724 0.51468 0.0
C292 C 0.91735 1.00706 0.25365 0.0
C293 C 0.88414 1.02127 0.22501 0.0
C294 C 0.94563 1.0088 0.16737 0.0
C295 C 0.94187 1.02484 0.04863 0.0
H296 H 0.92152 0.99439 0.34343 0.0
H297 H 0.97063 0.99755 0.19427 0.0
S298 S 0.85937 0.06539 0.92846 0.0
N299 N 0.84881 0.05131 0.07009 0.0
N300 N 0.90108 0.05492 0.90853 0.0
C301 C 0.90844 0.03912 0.01979 0.0
C302 C 0.87985 0.03722 0.10759 0.0
C303 C 0.54075 0.91502 0.27802 0.0
C304 C 0.54021 0.88047 0.23201 0.0
C305 C 0.54015 0.94429 0.19631 0.0
C306 C 0.53972 0.94016 0.06483 0.0
H307 H 0.54194 0.91946 0.37802 0.0
H308 H 0.54053 0.97033 0.23663 0.0
S309 S 0.53738 0.85455 0.89796 0.0
N310 N 0.53844 0.84357 0.04779 0.0
N311 N 0.53799 0.89788 0.89398 0.0
C312 C 0.53918 0.90545 0.01827 0.0
C313 C 0.5393 0.87581 0.10176 0.0
C314 C 0.67376 0.51362 0.11884 0.0
C315 C 0.6724 0.53288 0.23078 0.0
C316 C 0.64447 0.51167 0.0384 0.0
C317 C 0.61249 0.52901 0.06608 0.0
H318 H 0.69773 0.50016 0.09246 0.0
H319 H 0.64718 0.49664 0.95292 0.0
S320 S 0.59545 0.58208 0.35207 0.0
N321 N 0.63659 0.569 0.36755 0.0
N322 N 0.58165 0.56541 0.21826 0.0
C323 C 0.61086 0.54798 0.17954 0.0
C324 C 0.64075 0.54991 0.26117 0.0
C325 C 0.03547 0.6715 0.14134 0.0
C326 C 1.0176 0.66901 0.2565 0.0
C327 C 0.03737 0.64272 0.05837 0.0
C328 C 1.02135 0.61011 0.08646 0.0
H329 H 0.04786 0.69598 0.11442 0.0
H330 H 0.05132 0.64632 0.97062 0.0
S331 S 0.97221 0.59006 0.38006 0.0
N332 N 0.98424 0.63143 0.39654 0.0
N333 N 0.98768 0.5775 0.24243 0.0
C334 C 1.00375 0.60738 0.20297 0.0
C335 C 1.00192 0.63673 0.28728 0.0
C336 C 0.90502 0.23987 0.28008 0.0
C337 C 0.93613 0.25441 0.32801 0.0
C338 C 0.88925 0.211 0.33937 0.0
C339 C 0.90444 0.19596 0.44717 0.0
H340 H 0.89634 0.24695 0.18674 0.0
H341 H 0.86853 0.1973 0.2904 0.0
S342 S 0.97669 0.23462 0.63426 0.0
N343 N 0.974 0.2598 0.50881 0.0
N344 N 0.94528 0.20514 0.61954 0.0
C345 C 0.93043 0.21549 0.50981 0.0
C346 C 0.94605 0.24514 0.45007 0.0
C347 C 0.31363 0.91685 0.30261 0.0
C348 C 0.2942 0.94577 0.34745 0.0
C349 C 0.34211 0.90401 0.37182 0.0
C350 C 0.34998 0.91854 0.48946 0.0
H351 H 0.31194 0.90965 0.20461 0.0
H352 H 0.36092 0.88736 0.32408 0.0
S353 S 0.2919 0.97671 0.67553 0.0
N354 N 0.27437 0.97633 0.5342 0.0
N355 N 0.32581 0.94972 0.6688 0.0
C356 C 0.32361 0.93859 0.54841 0.0
C357 C 0.29562 0.95272 0.47614 0.0
C358 C 0.6467 0.31583 0.28843 0.0
C359 C 0.61557 0.30062 0.33459 0.0
C360 C 0.66166 0.34476 0.34896 0.0
C361 C 0.64569 0.35917 0.45647 0.0
H362 H 0.65608 0.30914 0.19551 0.0
H363 H 0.68255 0.35886 0.30154 0.0
S364 S 0.57227 0.31941 0.63741 0.0
N365 N 0.57631 0.29446 0.51231 0.0
N366 N 0.60347 0.34926 0.62526 0.0
C367 C 0.61936 0.33926 0.51682 0.0
C368 C 0.60459 0.30954 0.45586 0.0
C369 C 0.23426 0.64873 0.27792 0.0
C370 C 0.2558 0.62216 0.3292 0.0
C371 C 0.20575 0.66174 0.34726 0.0
C372 C 0.20012 0.65009 0.47088 0.0
H373 H 0.23449 0.65341 0.17765 0.0
H374 H 0.18528 0.67564 0.29719 0.0
S375 S 0.26405 0.60184 0.66724 0.0
N376 N 0.27965 0.59858 0.52309 0.0
N377 N 0.22859 0.62666 0.65674 0.0
C378 C 0.2286 0.63396 0.53215 0.0
C379 C 0.25635 0.61904 0.46014 0.0
C380 C 0.14007 0.81794 0.30419 0.0
C381 C 0.1116 0.79741 0.26298 0.0
C382 C 0.15114 0.84688 0.23303 0.0
C383 C 0.13529 0.8542 0.11695 0.0
H384 H 0.14822 0.8165 0.4013 0.0
H385 H 0.16751 0.86627 0.27831 0.0
S386 S 0.07741 0.79437 0.93922 0.0
N387 N 0.07998 0.77668 0.08041 0.0
N388 N 0.1031 0.82923 0.94224 0.0
C389 C 0.1156 0.82726 0.06102 0.0
C390 C 0.10334 0.7987 0.13523 0.0
C391 C 0.74006 0.10517 0.14751 0.0
C392 C 0.75223 0.11441 0.26683 0.0
C393 C 0.70951 0.12062 0.0997 0.0
C394 C 0.69105 0.14622 0.1687 0.0
H395 H 0.74996 0.0817 0.1023 0.0
H396 H 0.6975 0.10834 0.01945 0.0
S397 S 0.72139 0.18899 0.45939 0.0
N398 N 0.75069 0.15786 0.43248 0.0
N399 N 0.69333 0.18729 0.3418 0.0
C400 C 0.70768 0.16091 0.27321 0.0
C401 C 0.7388 0.14518 0.32162 0.0
C402 C 0.41581 0.7397 0.26138 0.0
C403 C 0.44894 0.74991 0.21506 0.0
C404 C 0.39868 0.71038 0.21157 0.0
C405 C 0.41409 0.69122 0.1132 0.0
H406 H 0.40648 0.75006 0.34995 0.0
H407 H 0.37642 0.69965 0.26222 0.0
S408 S 0.4929 0.71718 0.92956 0.0
N409 N 0.49036 0.74638 0.04315 0.0
N410 N 0.45855 0.69129 0.94844 0.0
C411 C 0.44273 0.70644 0.04902 0.0
C412 C 0.46 0.73626 0.09998 0.0
C413 C 0.8184 0.4489 0.12768 0.0
C414 C 0.80536 0.44053 0.24714 0.0
C415 C 0.84754 0.43096 0.07935 0.0
C416 C 0.86392 0.40405 0.14899 0.0
H417 H 0.81045 0.47312 0.08232 0.0
H418 H 0.86052 0.4423 0.99859 0.0
S419 S 0.82963 0.3634 0.43979 0.0
N420 N 0.80321 0.39705 0.41353 0.0
N421 N 0.85777 0.36282 0.32154 0.0
C422 C 0.84582 0.39047 0.2532 0.0
C423 C 0.81623 0.40881 0.30239 0.0
C424 C 0.99519 0.19439 0.92456 0.0
C425 C 1.01814 0.2075 0.01681 0.0
C426 C 0.99988 0.16096 0.87036 0.0
C427 C 0.02717 0.13837 0.90874 0.0
H428 H 0.97232 0.20957 0.89822 0.0
H429 H 0.98072 0.15206 0.80274 0.0
S430 S 0.095 0.15997 0.14615 0.0
N431 N 0.06988 0.19533 0.14142 0.0
N432 N 0.07839 0.13242 0.04291 0.0
C433 C 0.05089 0.15148 0.99884 0.0
C434 C 0.04647 0.18592 0.05192 0.0
C435 C 0.37105 0.05386 0.04539 0.0
C436 C 0.3513 1.02269 0.03526 0.0
C437 C 0.40565 0.05637 0.99584 0.0
C438 C 0.42202 0.02779 0.93442 0.0
H439 H 0.36049 0.07579 0.09771 0.0
H440 H 0.42001 0.08057 1.00919 0.0
S441 S 0.38134 0.94022 0.8832 0.0
N442 N 0.35043 0.96322 0.95394 0.0
N443 N 0.41479 0.96723 0.86704 0.0
C444 C 0.40188 0.99694 0.92056 0.0
C445 C 0.36682 0.99463 0.96888 0.0
C446 C 0.55554 0.36033 0.92944 0.0
C447 C 0.53361 0.3473 0.02566 0.0
C448 C 0.55097 0.39418 0.87814 0.0
C449 C 0.525 0.41727 0.92394 0.0
H450 H 0.57765 0.34476 0.89802 0.0
H451 H 0.56932 0.40299 0.80692 0.0
S452 S 0.46042 0.39615 0.17506 0.0
N453 N 0.48431 0.36009 0.16258 0.0
N454 N 0.4762 0.4239 0.06981 0.0
C455 C 0.50235 0.40432 0.01848 0.0
C456 C 0.50654 0.36942 0.06842 0.0
C457 C 0.1839 0.50514 0.0615 0.0
C458 C 0.20254 0.5366 0.03998 0.0
C459 C 0.14974 0.49997 0.01215 0.0
C460 C 0.13313 0.52583 0.93793 0.0
H461 H 0.19492 0.48523 0.12243 0.0
H462 H 0.13598 0.47587 0.03429 0.0
S463 S 0.16936 0.61343 0.86028 0.0
N464 N 0.20109 0.59392 0.93906 0.0
N465 N 0.1374 0.58444 0.85109 0.0
C466 C 0.15176 0.55691 0.91397 0.0
C467 C 0.18626 0.56216 0.9633 0.0
C468 C 1.00206 0.87008 0.569 0.0
C469 C 0.03406 0.85157 0.57923 0.0
C470 C 0.99821 0.90469 0.61661 0.0
C471 C 1.0262 0.92235 0.67639 0.0
H472 H 0.98046 0.85854 0.51795 0.0
H473 H 0.97339 0.91804 0.60307 0.0
S474 S 0.11552 0.88525 0.72741 0.0
N475 N 0.09374 0.85333 0.65863 0.0
N476 N 0.08714 0.91763 0.74261 0.0
C477 C 0.05789 0.90345 0.6905 0.0
C478 C 0.0616 0.8684 0.64381 0.0
C479 C 0.68794 1.00375 0.57663 0.0
C480 C 0.70723 0.03498 0.59148 0.0
C481 C 0.65396 0.99985 0.62944 0.0
C482 C 0.63797 1.02688 0.70018 0.0
H483 H 0.69816 0.98311 0.5172 0.0
H484 H 0.63963 0.97588 0.61129 0.0
S485 S 0.67698 0.11416 0.76199 0.0
N486 N 0.70776 0.09311 0.68351 0.0
N487 N 0.64429 0.08615 0.77908 0.0
C488 C 0.65757 0.05764 0.71914 0.0
C489 C 0.69201 0.06152 0.66613 0.0
C490 C 0.54993 0.68347 0.57677 0.0
C491 C 0.51688 0.6998 0.56371 0.0
C492 C 0.5534 0.65003 0.63438 0.0
C493 C 0.52402 0.63151 0.68193 0.0
H494 H 0.57301 0.69575 0.53662 0.0
H495 H 0.57926 0.63826 0.63894 0.0
S496 S 0.43157 0.6628 0.67058 0.0
N497 N 0.45443 0.6952 0.60842 0.0
N498 N 0.46063 0.63259 0.70962 0.0
C499 C 0.49104 0.64812 0.67216 0.0
C500 C 0.4876 0.68209 0.61534 0.0
C501 C 0.87093 0.54936 0.57066 0.0
C502 C 0.85217 0.5175 0.57512 0.0
C503 C 0.90407 0.55291 0.62967 0.0
C504 C 0.91999 0.52475 0.69538 0.0
H505 H 0.86088 0.57106 0.51564 0.0
H506 H 0.91779 0.57765 0.62015 0.0
S507 S 0.88102 0.43593 0.73524 0.0
N508 N 0.85124 0.45796 0.65576 0.0
N509 N 0.9132 0.46388 0.76107 0.0
C510 C 0.90068 0.49322 0.70377 0.0
C511 C 0.86698 0.48986 0.6455 0.0
loop_
_geom_bond_atom_site_label_1
_geom_bond_atom_site_label_2
_geom_bond_distance
_geom_bond_site_symmetry_2
_ccdc_geom_bond_type
H0 C3 0.929 . S
H1 C6 0.929 . S
H2 C8 0.930 . S
C3 H0 0.929 . S
C3 C4 1.398 . S
C3 C5 1.396 . S
C4 C3 1.398 . S
C4 C8 1.407 . S
C5 C3 1.396 . S
C5 C6 1.394 . S
C6 H1 0.929 . S
C6 C5 1.394 . S
C6 C7 1.382 . S
C7 C6 1.382 . S
C7 C8 1.392 . S
C7 N9 1.420 . S
C8 H2 0.930 . S
C8 C4 1.407 . S
C8 C7 1.392 . S
N9 C7 1.420 . S
N9 C10 1.244 . S
C10 N9 1.244 . S
H11 C14 0.929 . S
H12 C17 0.929 . S
H13 C19 0.930 . S
C14 H11 0.929 . S
C14 C15 1.395 1_655 S
C14 C16 1.394 1_655 S
C15 C14 1.395 1_455 S
C15 C19 1.414 . S
C16 C14 1.394 1_455 S
C16 C17 1.397 . S
C17 H12 0.929 . S
C17 C16 1.397 . S
C17 C18 1.382 . S
C18 C17 1.382 . S
C18 C19 1.392 . S
C18 N20 1.420 . S
C19 H13 0.930 . S
C19 C15 1.414 . S
C19 C18 1.392 . S
N20 C18 1.420 . S
N20 C21 1.232 1_455 S
C21 N20 1.232 1_655 S
H22 C25 0.929 . S
H23 C28 0.929 . S
H24 C30 0.930 . S
C25 H22 0.929 . S
C25 C26 1.395 1_565 S
C25 C27 1.395 1_565 S
C26 C25 1.395 1_545 S
C26 C30 1.414 . S
C27 C25 1.395 1_545 S
C27 C28 1.397 . S
C28 H23 0.929 . S
C28 C27 1.397 . S
C28 C29 1.382 . S
C29 C28 1.382 . S
C29 C30 1.392 . S
C29 N31 1.420 . S
C30 H24 0.930 . S
C30 C26 1.414 . S
C30 C29 1.392 . S
N31 C29 1.420 . S
N31 C32 1.231 1_545 S
C32 N31 1.231 1_565 S
H33 C36 0.929 . S
H34 C39 0.929 . S
H35 C41 0.930 . S
C36 H33 0.929 . S
C36 C37 1.398 . S
C36 C38 1.396 . S
C37 C36 1.398 . S
C37 C41 1.407 . S
C38 C36 1.396 . S
C38 C39 1.394 . S
C39 H34 0.929 . S
C39 C38 1.394 . S
C39 C40 1.382 . S
C40 C39 1.382 . S
C40 C41 1.392 . S
C40 N42 1.420 . S
C41 H35 0.930 . S
C41 C37 1.407 . S
C41 C40 1.392 . S
N42 C40 1.420 . S
N42 C43 1.244 . S
C43 N42 1.244 . S
H44 C47 0.929 . S
H45 C50 0.929 . S
H46 C52 0.930 . S
C47 H44 0.929 . S
C47 C48 1.398 1_554 S
C47 C49 1.396 . S
C48 C47 1.398 1_556 S
C48 C52 1.407 . S
C49 C47 1.396 . S
C49 C50 1.394 . S
C50 H45 0.929 . S
C50 C49 1.394 . S
C50 C51 1.382 . S
C51 C50 1.382 . S
C51 C52 1.392 1_554 S
C51 N53 1.420 . S
C52 H46 0.930 . S
C52 C48 1.407 . S
C52 C51 1.392 1_556 S
N53 C51 1.420 . S
N53 C54 1.244 . S
C54 N53 1.244 . S
H55 C58 0.929 . S
H56 C61 0.929 . S
H57 C63 0.930 . S
C58 H55 0.929 . S
C58 C59 1.398 1_654 S
C58 C60 1.394 1_655 S
C59 C58 1.398 1_456 S
C59 C63 1.407 . S
C60 C58 1.394 1_455 S
C60 C61 1.398 . S
C61 H56 0.929 . S
C61 C60 1.398 . S
C61 C62 1.382 . S
C62 C61 1.382 . S
C62 C63 1.392 1_554 S
C62 N64 1.420 . S
C63 H57 0.930 . S
C63 C59 1.407 . S
C63 C62 1.392 1_556 S
N64 C62 1.420 . S
N64 C65 1.235 1_455 S
C65 N64 1.235 1_655 S
H66 C69 0.929 . S
H67 C72 0.929 . S
H68 C74 0.930 . S
C69 H66 0.929 . S
C69 C70 1.398 1_564 S
C69 C71 1.393 1_565 S
C70 C69 1.398 1_546 S
C70 C74 1.407 . S
C71 C69 1.393 1_545 S
C71 C72 1.398 . S
C72 H67 0.929 . S
C72 C71 1.398 . S
C72 C73 1.382 . S
C73 C72 1.382 . S
C73 C74 1.392 1_554 S
C73 N75 1.420 . S
C74 H68 0.930 . S
C74 C70 1.407 . S
C74 C73 1.392 1_556 S
N75 C73 1.420 . S
N75 C76 1.235 1_545 S
C76 N75 1.235 1_565 S
H77 C80 0.929 . S
H78 C83 0.929 . S
H79 C85 0.930 . S
C80 H77 0.929 . S
C80 C81 1.398 1_554 S
C80 C82 1.396 . S
C81 C80 1.398 1_556 S
C81 C85 1.407 . S
C82 C80 1.396 . S
C82 C83 1.394 . S
C83 H78 0.929 . S
C83 C82 1.394 . S
C83 C84 1.382 . S
C84 C83 1.382 . S
C84 C85 1.392 1_554 S
C84 N86 1.420 . S
C85 H79 0.930 . S
C85 C81 1.407 . S
C85 C84 1.392 1_556 S
N86 C84 1.420 . S
N86 C87 1.244 . S
C87 N86 1.244 . S
Tb88 C98 2.825 1_556 S
Tb88 O99 2.347 1_455 S
Tb88 O102 2.366 . S
Tb88 O107 2.418 . S
Tb88 O108 2.384 1_565 S
Tb88 O111 2.479 1_556 S
Tb88 O112 2.471 1_556 S
Eu89 O100 2.418 . S
Eu89 O101 2.384 1_545 S
Eu89 O104 2.479 . S
Eu89 O105 2.471 . S
Eu89 O106 2.347 1_655 S
Eu89 O109 2.366 . S
Eu89 C119 2.825 . S
C90 O106 1.259 1_565 S
C90 O107 1.265 . S
C91 O108 1.255 . S
C91 O109 1.265 1_455 S
C92 C94 1.380 . S
C92 C95 1.374 . S
C92 C98 1.507 . S
C93 C94 1.384 . S
C93 C97 1.387 . S
C93 H120 0.930 . S
C94 C92 1.380 . S
C94 C93 1.384 . S
C94 H121 0.931 . S
C95 C92 1.374 . S
C95 C96 1.390 . S
C95 H122 0.930 1_455 S
C96 C95 1.390 . S
C96 C97 1.391 . S
C96 H123 0.930 1_455 S
C97 C93 1.387 . S
C97 C96 1.391 . S
C98 Tb88 2.825 1_554 S
C98 C92 1.507 . S
C98 O111 1.238 . S
C98 O112 1.247 . S
O99 Tb88 2.347 1_655 S
O99 C103 1.259 1_565 S
O100 Eu89 2.418 . S
O100 C103 1.265 . S
O101 Eu89 2.384 1_565 S
O101 C110 1.255 . S
O102 Tb88 2.366 . S
O102 C110 1.265 1_455 S
C103 O99 1.259 1_545 S
C103 O100 1.265 . S
O104 Eu89 2.479 . S
O104 C119 1.238 . S
O105 Eu89 2.471 . S
O105 C119 1.247 . S
O106 Eu89 2.347 1_455 S
O106 C90 1.259 1_545 S
O107 Tb88 2.418 . S
O107 C90 1.265 . S
O108 Tb88 2.384 1_545 S
O108 C91 1.255 . S
O109 Eu89 2.366 . S
O109 C91 1.265 1_655 S
C110 O101 1.255 . S
C110 O102 1.265 1_655 S
O111 Tb88 2.479 1_554 S
O111 C98 1.238 . S
O112 Tb88 2.471 1_554 S
O112 C98 1.247 . S
C113 C116 1.380 . S
C113 C117 1.374 . S
C113 C119 1.507 . S
C114 C115 1.387 . S
C114 C118 1.391 . S
C115 C114 1.387 . S
C115 C116 1.384 . S
C115 H124 0.930 . S
C116 C113 1.380 . S
C116 C115 1.384 . S
C116 H125 0.931 . S
C117 C113 1.374 . S
C117 C118 1.390 . S
C117 H126 0.930 1_655 S
C118 C114 1.391 . S
C118 C117 1.390 . S
C118 H127 0.930 1_655 S
C119 Eu89 2.825 . S
C119 O104 1.238 . S
C119 O105 1.247 . S
C119 C113 1.507 . S
H120 C93 0.930 . S
H121 C94 0.931 . S
H122 C95 0.930 1_655 S
H123 C96 0.930 1_655 S
H124 C115 0.930 . S
H125 C116 0.931 . S
H126 C117 0.930 1_455 S
H127 C118 0.930 1_455 S
Tb128 C138 2.825 1_556 S
Tb128 O139 2.347 1_545 S
Tb128 O142 2.366 . S
Tb128 O147 2.418 . S
Tb128 O148 2.384 . S
Tb128 O151 2.479 1_556 S
Tb128 O152 2.471 1_556 S
Eu129 O140 2.418 . S
Eu129 O141 2.384 . S
Eu129 O144 2.479 . S
Eu129 O145 2.471 . S
Eu129 O146 2.347 1_565 S
Eu129 O149 2.366 . S
Eu129 C159 2.825 . S
C130 O146 1.259 . S
C130 O147 1.265 . S
C131 O148 1.255 . S
C131 O149 1.265 1_545 S
C132 C134 1.380 . S
C132 C135 1.374 . S
C132 C138 1.507 . S
C133 C134 1.384 . S
C133 C137 1.387 . S
C133 H160 0.930 . S
C134 C132 1.380 . S
C134 C133 1.384 . S
C134 H161 0.931 . S
C135 C132 1.374 . S
C135 C136 1.390 . S
C135 H162 0.930 1_545 S
C136 C135 1.390 . S
C136 C137 1.391 . S
C136 H163 0.930 1_545 S
C137 C133 1.387 . S
C137 C136 1.391 . S
C138 Tb128 2.825 1_554 S
C138 C132 1.507 . S
C138 O151 1.238 . S
C138 O152 1.247 . S
O139 Tb128 2.347 1_565 S
O139 C143 1.259 . S
O140 Eu129 2.418 . S
O140 C143 1.265 . S
O141 Eu129 2.384 . S
O141 C150 1.255 . S
O142 Tb128 2.366 . S
O142 C150 1.265 1_545 S
C143 O139 1.259 . S
C143 O140 1.265 . S
O144 Eu129 2.479 . S
O144 C159 1.238 . S
O145 Eu129 2.471 . S
O145 C159 1.247 . S
O146 Eu129 2.347 1_545 S
O146 C130 1.259 . S
O147 Tb128 2.418 . S
O147 C130 1.265 . S
O148 Tb128 2.384 . S
O148 C131 1.255 . S
O149 Eu129 2.366 . S
O149 C131 1.265 1_565 S
C150 O141 1.255 . S
C150 O142 1.265 1_565 S
O151 Tb128 2.479 1_554 S
O151 C138 1.238 . S
O152 Tb128 2.471 1_554 S
O152 C138 1.247 . S
C153 C156 1.380 . S
C153 C157 1.374 . S
C153 C159 1.507 . S
C154 C155 1.387 . S
C154 C158 1.391 . S
C155 C154 1.387 . S
C155 C156 1.384 . S
C155 H164 0.930 . S
C156 C153 1.380 . S
C156 C155 1.384 . S
C156 H165 0.931 . S
C157 C153 1.374 . S
C157 C158 1.390 . S
C157 H166 0.930 1_565 S
C158 C154 1.391 . S
C158 C157 1.390 . S
C158 H167 0.930 1_565 S
C159 Eu129 2.825 . S
C159 O144 1.238 . S
C159 O145 1.247 . S
C159 C153 1.507 . S
H160 C133 0.930 . S
H161 C134 0.931 . S
H162 C135 0.930 1_565 S
H163 C136 0.930 1_565 S
H164 C155 0.930 . S
H165 C156 0.931 . S
H166 C157 0.930 1_545 S
H167 C158 0.930 1_545 S
Tb168 C178 2.825 1_556 S
Tb168 O179 2.347 . S
Tb168 O182 2.366 . S
Tb168 O187 2.418 . S
Tb168 O188 2.384 . S
Tb168 O191 2.479 1_556 S
Tb168 O192 2.471 1_556 S
Eu169 O180 2.418 . S
Eu169 O181 2.384 . S
Eu169 O184 2.479 . S
Eu169 O185 2.471 . S
Eu169 O186 2.347 . S
Eu169 O189 2.366 . S
Eu169 C199 2.825 . S
C170 O186 1.259 . S
C170 O187 1.265 . S
C171 O188 1.255 . S
C171 O189 1.265 . S
C172 C174 1.380 . S
C172 C175 1.374 . S
C172 C178 1.507 . S
C173 C174 1.384 . S
C173 C177 1.387 . S
C173 H200 0.930 . S
C174 C172 1.380 . S
C174 C173 1.384 . S
C174 H201 0.931 . S
C175 C172 1.374 . S
C175 C176 1.390 . S
C175 H202 0.930 . S
C176 C175 1.390 . S
C176 C177 1.391 . S
C176 H203 0.930 . S
C177 C173 1.387 . S
C177 C176 1.391 . S
C178 Tb168 2.825 1_554 S
C178 C172 1.507 . S
C178 O191 1.238 . S
C178 O192 1.247 . S
O179 Tb168 2.347 . S
O179 C183 1.259 . S
O180 Eu169 2.418 . S
O180 C183 1.265 . S
O181 Eu169 2.384 . S
O181 C190 1.255 . S
O182 Tb168 2.366 . S
O182 C190 1.265 . S
C183 O179 1.259 . S
C183 O180 1.265 . S
O184 Eu169 2.479 . S
O184 C199 1.238 . S
O185 Eu169 2.471 . S
O185 C199 1.247 . S
O186 Eu169 2.347 . S
O186 C170 1.259 . S
O187 Tb168 2.418 . S
O187 C170 1.265 . S
O188 Tb168 2.384 . S
O188 C171 1.255 . S
O189 Eu169 2.366 . S
O189 C171 1.265 . S
C190 O181 1.255 . S
C190 O182 1.265 . S
O191 Tb168 2.479 1_554 S
O191 C178 1.238 . S
O192 Tb168 2.471 1_554 S
O192 C178 1.247 . S
C193 C196 1.380 . S
C193 C197 1.374 . S
C193 C199 1.507 . S
C194 C195 1.387 . S
C194 C198 1.391 . S
C195 C194 1.387 . S
C195 C196 1.384 . S
C195 H204 0.930 . S
C196 C193 1.380 . S
C196 C195 1.384 . S
C196 H205 0.931 . S
C197 C193 1.374 . S
C197 C198 1.390 . S
C197 H206 0.930 . S
C198 C194 1.391 . S
C198 C197 1.390 . S
C198 H207 0.930 . S
C199 Eu169 2.825 . S
C199 O184 1.238 . S
C199 O185 1.247 . S
C199 C193 1.507 . S
H200 C173 0.930 . S
H201 C174 0.931 . S
H202 C175 0.930 . S
H203 C176 0.930 . S
H204 C195 0.930 . S
H205 C196 0.931 . S
H206 C197 0.930 . S
H207 C198 0.930 . S
Tb208 C218 2.825 1_556 S
Tb208 O219 2.347 . S
Tb208 O222 2.366 . S
Tb208 O227 2.418 . S
Tb208 O228 2.384 1_655 S
Tb208 O231 2.479 1_556 S
Tb208 O232 2.471 1_556 S
Eu209 O220 2.418 . S
Eu209 O221 2.384 1_455 S
Eu209 O224 2.479 . S
Eu209 O225 2.471 . S
Eu209 O226 2.347 . S
Eu209 O229 2.366 . S
Eu209 C239 2.825 . S
C210 O226 1.259 1_655 S
C210 O227 1.265 . S
C211 O228 1.255 . S
C211 O229 1.265 . S
C212 C214 1.380 . S
C212 C215 1.374 . S
C212 C218 1.507 . S
C213 C214 1.384 . S
C213 C217 1.387 . S
C213 H240 0.930 . S
C214 C212 1.380 . S
C214 C213 1.384 . S
C214 H241 0.931 . S
C215 C212 1.374 . S
C215 C216 1.390 . S
C215 H242 0.930 . S
C216 C215 1.390 . S
C216 C217 1.391 . S
C216 H243 0.930 . S
C217 C213 1.387 . S
C217 C216 1.391 . S
C218 Tb208 2.825 1_554 S
C218 C212 1.507 . S
C218 O231 1.238 . S
C218 O232 1.247 . S
O219 Tb208 2.347 . S
O219 C223 1.259 1_655 S
O220 Eu209 2.418 . S
O220 C223 1.265 . S
O221 Eu209 2.384 1_655 S
O221 C230 1.255 . S
O222 Tb208 2.366 . S
O222 C230 1.265 . S
C223 O219 1.259 1_455 S
C223 O220 1.265 . S
O224 Eu209 2.479 . S
O224 C239 1.238 . S
O225 Eu209 2.471 . S
O225 C239 1.247 . S
O226 Eu209 2.347 . S
O226 C210 1.259 1_455 S
O227 Tb208 2.418 . S
O227 C210 1.265 . S
O228 Tb208 2.384 1_455 S
O228 C211 1.255 . S
O229 Eu209 2.366 . S
O229 C211 1.265 . S
C230 O221 1.255 . S
C230 O222 1.265 . S
O231 Tb208 2.479 1_554 S
O231 C218 1.238 . S
O232 Tb208 2.471 1_554 S
O232 C218 1.247 . S
C233 C236 1.380 . S
C233 C237 1.374 . S
C233 C239 1.507 . S
C234 C235 1.387 . S
C234 C238 1.391 . S
C235 C234 1.387 . S
C235 C236 1.384 . S
C235 H244 0.930 . S
C236 C233 1.380 . S
C236 C235 1.384 . S
C236 H245 0.931 . S
C237 C233 1.374 . S
C237 C238 1.390 . S
C237 H246 0.930 . S
C238 C234 1.391 . S
C238 C237 1.390 . S
C238 H247 0.930 . S
C239 Eu209 2.825 . S
C239 O224 1.238 . S
C239 O225 1.247 . S
C239 C233 1.507 . S
H240 C213 0.930 . S
H241 C214 0.931 . S
H242 C215 0.930 . S
H243 C216 0.930 . S
H244 C235 0.930 . S
H245 C236 0.931 . S
H246 C237 0.930 . S
H247 C238 0.930 . S
C248 C249 1.365 1_565 S
C248 C250 1.419 . S
C248 H252 0.930 . S
C249 C248 1.365 1_545 S
C249 C258 1.432 . S
C250 C248 1.419 . S
C250 C251 1.363 . S
C250 H253 0.929 . S
C251 C250 1.363 . S
C251 C257 1.429 1_565 S
H252 C248 0.930 . S
H253 C250 0.929 . S
S254 N255 1.613 . S
S254 N256 1.610 . S
N255 S254 1.613 . S
N255 C258 1.350 . S
N256 S254 1.610 . S
N256 C257 1.351 . S
C257 C251 1.429 1_545 S
C257 N256 1.351 . S
C257 C258 1.434 . S
C258 C249 1.432 . S
C258 N255 1.350 . S
C258 C257 1.434 . S
C259 C260 1.369 . S
C259 C261 1.419 . S
C259 H263 0.930 . S
C260 C259 1.369 . S
C260 C269 1.429 . S
C261 C259 1.419 . S
C261 C262 1.363 . S
C261 H264 0.929 . S
C262 C261 1.363 . S
C262 C268 1.428 . S
H263 C259 0.930 . S
H264 C261 0.929 . S
S265 N266 1.613 . S
S265 N267 1.610 . S
N266 S265 1.613 . S
N266 C269 1.350 . S
N267 S265 1.610 . S
N267 C268 1.351 . S
C268 C262 1.428 . S
C268 N267 1.351 . S
C268 C269 1.434 . S
C269 C260 1.429 . S
C269 N266 1.350 . S
C269 C268 1.434 . S
C270 C271 1.369 . S
C270 C272 1.419 . S
C270 H274 0.930 . S
C271 C270 1.369 . S
C271 C280 1.429 . S
C272 C270 1.419 . S
C272 C273 1.363 . S
C272 H275 0.929 . S
C273 C272 1.363 . S
C273 C279 1.428 . S
H274 C270 0.930 . S
H275 C272 0.929 . S
S276 N277 1.613 . S
S276 N278 1.610 . S
N277 S276 1.613 . S
N277 C280 1.350 . S
N278 S276 1.610 . S
N278 C279 1.351 . S
C279 C273 1.428 . S
C279 N278 1.351 . S
C279 C280 1.434 . S
C280 C271 1.429 . S
C280 N277 1.350 . S
C280 C279 1.434 . S
C281 C282 1.350 1_655 S
C281 C283 1.419 . S
C281 H285 0.930 . S
C282 C281 1.350 1_455 S
C282 C291 1.448 . S
C283 C281 1.419 . S
C283 C284 1.363 1_655 S
C283 H286 0.929 . S
C284 C283 1.363 1_455 S
C284 C290 1.428 . S
H285 C281 0.930 . S
H286 C283 0.929 . S
S287 N288 1.613 . S
S287 N289 1.610 . S
N288 S287 1.613 . S
N288 C291 1.350 . S
N289 S287 1.610 . S
N289 C290 1.351 . S
C290 C284 1.428 . S
C290 N289 1.351 . S
C290 C291 1.434 . S
C291 C282 1.448 . S
C291 N288 1.350 . S
C291 C290 1.434 . S
C292 C293 1.369 . S
C292 C294 1.419 . S
C292 H296 0.930 . S
C293 C292 1.369 . S
C293 C302 1.429 1_545 S
C294 C292 1.419 . S
C294 C295 1.364 . S
C294 H297 0.929 . S
C295 C294 1.364 . S
C295 C301 1.427 1_545 S
H296 C292 0.930 . S
H297 C294 0.929 . S
S298 N299 1.613 . S
S298 N300 1.610 . S
N299 S298 1.613 . S
N299 C302 1.350 . S
N300 S298 1.610 . S
N300 C301 1.351 . S
C301 C295 1.427 1_565 S
C301 N300 1.351 . S
C301 C302 1.434 . S
C302 C293 1.429 1_565 S
C302 N299 1.350 . S
C302 C301 1.434 . S
C303 C304 1.369 . S
C303 C305 1.419 . S
C303 H307 0.930 . S
C304 C303 1.369 . S
C304 C313 1.429 . S
C305 C303 1.419 . S
C305 C306 1.363 . S
C305 H308 0.929 . S
C306 C305 1.363 . S
C306 C312 1.428 . S
H307 C303 0.930 . S
H308 C305 0.929 . S
S309 N310 1.613 . S
S309 N311 1.610 . S
N310 S309 1.613 . S
N310 C313 1.350 . S
N311 S309 1.610 . S
N311 C312 1.351 . S
C312 C306 1.428 . S
C312 N311 1.351 . S
C312 C313 1.434 . S
C313 C304 1.429 . S
C313 N310 1.350 . S
C313 C312 1.434 . S
C314 C315 1.369 . S
C314 C316 1.419 . S
C314 H318 0.930 . S
C315 C314 1.369 . S
C315 C324 1.429 . S
C316 C314 1.419 . S
C316 C317 1.363 . S
C316 H319 0.929 . S
C317 C316 1.363 . S
C317 C323 1.428 . S
H318 C314 0.930 . S
H319 C316 0.929 . S
S320 N321 1.613 . S
S320 N322 1.610 . S
N321 S320 1.613 . S
N321 C324 1.350 . S
N322 S320 1.610 . S
N322 C323 1.351 . S
C323 C317 1.428 . S
C323 N322 1.351 . S
C323 C324 1.434 . S
C324 C315 1.429 . S
C324 N321 1.350 . S
C324 C323 1.434 . S
C325 C326 1.359 1_455 S
C325 C327 1.419 . S
C325 H329 0.930 . S
C326 C325 1.359 1_655 S
C326 C335 1.440 . S
C327 C325 1.419 . S
C327 C328 1.363 1_455 S
C327 H330 0.929 . S
C328 C327 1.363 1_655 S
C328 C334 1.428 . S
H329 C325 0.930 . S
H330 C327 0.929 . S
S331 N332 1.613 . S
S331 N333 1.610 . S
N332 S331 1.613 . S
N332 C335 1.350 . S
N333 S331 1.610 . S
N333 C334 1.351 . S
C334 C328 1.428 . S
C334 N333 1.351 . S
C334 C335 1.434 . S
C335 C326 1.440 . S
C335 N332 1.350 . S
C335 C334 1.434 . S
C336 C337 1.371 1_655 S
C336 C338 1.419 . S
C336 H340 0.930 . S
C337 C336 1.371 1_455 S
C337 C346 1.428 . S
C338 C336 1.419 . S
C338 C339 1.363 . S
C338 H341 0.929 . S
C339 C338 1.363 . S
C339 C345 1.428 . S
H340 C336 0.930 . S
H341 C338 0.929 . S
S342 N343 1.613 . S
S342 N344 1.610 1_455 S
N343 S342 1.613 . S
N343 C346 1.350 . S
N344 S342 1.610 1_655 S
N344 C345 1.351 . S
C345 C339 1.428 . S
C345 N344 1.351 . S
C345 C346 1.434 1_655 S
C346 C337 1.428 . S
C346 N343 1.350 . S
C346 C345 1.434 1_455 S
C347 C348 1.365 1_565 S
C347 C349 1.419 . S
C347 H351 0.930 . S
C348 C347 1.365 1_545 S
C348 C357 1.430 . S
C349 C347 1.419 . S
C349 C350 1.363 . S
C349 H352 0.929 . S
C350 C349 1.363 . S
C350 C356 1.428 . S
H351 C347 0.930 . S
H352 C349 0.929 . S
S353 N354 1.613 . S
S353 N355 1.610 . S
N354 S353 1.613 . S
N354 C357 1.350 . S
N355 S353 1.610 . S
N355 C356 1.351 1_545 S
C356 C350 1.428 . S
C356 N355 1.351 1_565 S
C356 C357 1.434 1_565 S
C357 C348 1.430 . S
C357 N354 1.350 . S
C357 C356 1.434 1_545 S
C358 C359 1.369 . S
C358 C360 1.419 . S
C358 H362 0.930 . S
C359 C358 1.369 . S
C359 C368 1.429 . S
C360 C358 1.419 . S
C360 C361 1.363 . S
C360 H363 0.929 . S
C361 C360 1.363 . S
C361 C367 1.428 . S
H362 C358 0.930 . S
H363 C360 0.929 . S
S364 N365 1.613 . S
S364 N366 1.610 . S
N365 S364 1.613 . S
N365 C368 1.350 . S
N366 S364 1.610 . S
N366 C367 1.351 . S
C367 C361 1.428 . S
C367 N366 1.351 . S
C367 C368 1.434 . S
C368 C359 1.429 . S
C368 N365 1.350 . S
C368 C367 1.434 . S
C369 C370 1.369 . S
C369 C371 1.419 . S
C369 H373 0.930 . S
C370 C369 1.369 . S
C370 C379 1.429 . S
C371 C369 1.419 . S
C371 C372 1.363 . S
C371 H374 0.929 . S
C372 C371 1.363 . S
C372 C378 1.428 . S
H373 C369 0.930 . S
H374 C371 0.929 . S
S375 N376 1.613 . S
S375 N377 1.610 . S
N376 S375 1.613 . S
N376 C379 1.350 . S
N377 S375 1.610 . S
N377 C378 1.351 . S
C378 C372 1.428 . S
C378 N377 1.351 . S
C378 C379 1.434 . S
C379 C370 1.429 . S
C379 N376 1.350 . S
C379 C378 1.434 . S
C380 C381 1.366 1_455 S
C380 C382 1.419 . S
C380 H384 0.930 . S
C381 C380 1.366 1_655 S
C381 C390 1.429 . S
C382 C380 1.419 . S
C382 C383 1.363 . S
C382 H385 0.929 . S
C383 C382 1.363 . S
C383 C389 1.428 . S
H384 C380 0.930 . S
H385 C382 0.929 . S
S386 N387 1.613 . S
S386 N388 1.610 1_655 S
N387 S386 1.613 . S
N387 C390 1.350 . S
N388 S386 1.610 1_455 S
N388 C389 1.351 . S
C389 C383 1.428 . S
C389 N388 1.351 . S
C389 C390 1.434 1_455 S
C390 C381 1.429 . S
C390 N387 1.350 . S
C390 C389 1.434 1_655 S
C391 C392 1.369 1_565 S
C391 C393 1.419 1_565 S
C391 H395 0.930 . S
C392 C391 1.369 1_545 S
C392 C401 1.435 . S
C393 C391 1.419 1_545 S
C393 C394 1.363 . S
C393 H396 0.929 . S
C394 C393 1.363 . S
C394 C400 1.428 . S
H395 C391 0.930 . S
H396 C393 0.929 . S
S397 N398 1.613 . S
S397 N399 1.610 . S
N398 S397 1.613 . S
N398 C401 1.350 . S
N399 S397 1.610 . S
N399 C400 1.351 . S
C400 C394 1.428 . S
C400 N399 1.351 . S
C400 C401 1.434 . S
C401 C392 1.435 . S
C401 N398 1.350 . S
C401 C400 1.434 . S
C402 C403 1.369 . S
C402 C404 1.419 . S
C402 H406 0.930 . S
C403 C402 1.369 . S
C403 C412 1.429 . S
C404 C402 1.419 . S
C404 C405 1.363 . S
C404 H407 0.929 . S
C405 C404 1.363 . S
C405 C411 1.428 . S
H406 C402 0.930 . S
H407 C404 0.929 . S
S408 N409 1.613 . S
S408 N410 1.610 . S
N409 S408 1.613 . S
N409 C412 1.350 . S
N410 S408 1.610 . S
N410 C411 1.351 . S
C411 C405 1.428 . S
C411 N410 1.351 . S
C411 C412 1.434 . S
C412 C403 1.429 . S
C412 N409 1.350 . S
C412 C411 1.434 . S
C413 C414 1.369 . S
C413 C415 1.419 . S
C413 H417 0.930 . S
C414 C413 1.369 . S
C414 C423 1.429 . S
C415 C413 1.419 . S
C415 C416 1.363 . S
C415 H418 0.929 . S
C416 C415 1.363 . S
C416 C422 1.428 . S
H417 C413 0.930 . S
H418 C415 0.929 . S
S419 N420 1.613 . S
S419 N421 1.610 . S
N420 S419 1.613 . S
N420 C423 1.350 . S
N421 S419 1.610 . S
N421 C422 1.351 . S
C422 C416 1.428 . S
C422 N421 1.351 . S
C422 C423 1.434 . S
C423 C414 1.429 . S
C423 N420 1.350 . S
C423 C422 1.434 . S
C424 C425 1.369 1_655 S
C424 C426 1.419 . S
C424 H428 0.930 1_556 S
C425 C424 1.369 1_455 S
C425 C434 1.429 . S
C426 C424 1.419 . S
C426 C427 1.363 1_655 S
C426 H429 0.929 1_556 S
C427 C426 1.363 1_455 S
C427 C433 1.428 . S
H428 C424 0.930 1_554 S
H429 C426 0.929 1_554 S
S430 N431 1.613 . S
S430 N432 1.610 . S
N431 S430 1.613 . S
N431 C434 1.350 . S
N432 S430 1.610 . S
N432 C433 1.351 . S
C433 C427 1.428 . S
C433 N432 1.351 . S
C433 C434 1.434 . S
C434 C425 1.429 . S
C434 N431 1.350 . S
C434 C433 1.434 . S
C435 C436 1.369 . S
C435 C437 1.419 . S
C435 H439 0.930 . S
C436 C435 1.369 . S
C436 C445 1.429 1_545 S
C437 C435 1.419 . S
C437 C438 1.363 . S
C437 H440 0.929 . S
C438 C437 1.363 . S
C438 C444 1.428 1_545 S
H439 C435 0.930 . S
H440 C437 0.929 . S
S441 N442 1.613 . S
S441 N443 1.610 . S
N442 S441 1.613 . S
N442 C445 1.350 . S
N443 S441 1.610 . S
N443 C444 1.351 . S
C444 C438 1.428 1_565 S
C444 N443 1.351 . S
C444 C445 1.434 . S
C445 C436 1.429 1_565 S
C445 N442 1.350 . S
C445 C444 1.434 . S
C446 C447 1.369 . S
C446 C448 1.419 . S
C446 H450 0.930 . S
C447 C446 1.369 . S
C447 C456 1.429 . S
C448 C446 1.419 . S
C448 C449 1.363 . S
C448 H451 0.929 . S
C449 C448 1.363 . S
C449 C455 1.428 . S
H450 C446 0.930 . S
H451 C448 0.929 . S
S452 N453 1.613 . S
S452 N454 1.610 . S
N453 S452 1.613 . S
N453 C456 1.350 . S
N454 S452 1.610 . S
N454 C455 1.351 . S
C455 C449 1.428 . S
C455 N454 1.351 . S
C455 C456 1.434 . S
C456 C447 1.429 . S
C456 N453 1.350 . S
C456 C455 1.434 . S
C457 C458 1.369 . S
C457 C459 1.419 . S
C457 H461 0.930 . S
C458 C457 1.369 . S
C458 C467 1.429 . S
C459 C457 1.419 . S
C459 C460 1.363 . S
C459 H462 0.929 . S
C460 C459 1.363 . S
C460 C466 1.428 . S
H461 C457 0.930 . S
H462 C459 0.929 . S
S463 N464 1.613 . S
S463 N465 1.610 . S
N464 S463 1.613 . S
N464 C467 1.350 . S
N465 S463 1.610 . S
N465 C466 1.351 . S
C466 C460 1.428 . S
C466 N465 1.351 . S
C466 C467 1.434 . S
C467 C458 1.429 . S
C467 N464 1.350 . S
C467 C466 1.434 . S
C468 C469 1.369 . S
C468 C470 1.419 . S
C468 H472 0.930 . S
C469 C468 1.369 . S
C469 C478 1.429 1_655 S
C470 C468 1.419 . S
C470 C471 1.363 . S
C470 H473 0.929 . S
C471 C470 1.363 . S
C471 C477 1.428 1_655 S
H472 C468 0.930 . S
H473 C470 0.929 . S
S474 N475 1.613 . S
S474 N476 1.610 . S
N475 S474 1.613 . S
N475 C478 1.350 . S
N476 S474 1.610 . S
N476 C477 1.351 . S
C477 C471 1.428 1_455 S
C477 N476 1.351 . S
C477 C478 1.434 . S
C478 C469 1.429 1_455 S
C478 N475 1.350 . S
C478 C477 1.434 . S
C479 C480 1.369 . S
C479 C481 1.419 . S
C479 H483 0.930 . S
C480 C479 1.369 . S
C480 C489 1.429 1_565 S
C481 C479 1.419 . S
C481 C482 1.363 . S
C481 H484 0.929 . S
C482 C481 1.363 . S
C482 C488 1.428 1_565 S
H483 C479 0.930 . S
H484 C481 0.929 . S
S485 N486 1.613 . S
S485 N487 1.610 . S
N486 S485 1.613 . S
N486 C489 1.350 . S
N487 S485 1.610 . S
N487 C488 1.351 . S
C488 C482 1.428 1_545 S
C488 N487 1.351 . S
C488 C489 1.434 . S
C489 C480 1.429 1_545 S
C489 N486 1.350 . S
C489 C488 1.434 . S
C490 C491 1.369 . S
C490 C492 1.419 . S
C490 H494 0.930 . S
C491 C490 1.369 . S
C491 C500 1.429 . S
C492 C490 1.419 . S
C492 C493 1.363 . S
C492 H495 0.929 . S
C493 C492 1.363 . S
C493 C499 1.428 . S
H494 C490 0.930 . S
H495 C492 0.929 . S
S496 N497 1.613 . S
S496 N498 1.610 . S
N497 S496 1.613 . S
N497 C500 1.350 . S
N498 S496 1.610 . S
N498 C499 1.351 . S
C499 C493 1.428 . S
C499 N498 1.351 . S
C499 C500 1.434 . S
C500 C491 1.429 . S
C500 N497 1.350 . S
C500 C499 1.434 . S
C501 C502 1.369 . S
C501 C503 1.419 . S
C501 H505 0.930 . S
C502 C501 1.369 . S
C502 C511 1.429 . S
C503 C501 1.419 . S
C503 C504 1.363 . S
C503 H506 0.929 . S
C504 C503 1.363 . S
C504 C510 1.428 . S
H505 C501 0.930 . S
H506 C503 0.929 . S
S507 N508 1.613 . S
S507 N509 1.610 . S
N508 S507 1.613 . S
N508 C511 1.350 . S
N509 S507 1.610 . S
N509 C510 1.351 . S
C510 C504 1.428 . S
C510 N509 1.351 . S
C510 C511 1.434 . S
C511 C502 1.429 . S
C511 N508 1.350 . S
C511 C510 1.434 . S
C249 C76 1.940 1_545 S
C251 C90 2.193 . S
C262 C130 2.212 . S
C260 C87 1.958 . S
C273 C170 2.221 . S
C271 C54 1.978 . S
C284 C210 2.206 1_455 S
C282 C65 1.954 1_455 S
C295 C103 2.196 1_554 S
C293 C32 1.944 1_545 S
C304 C43 1.958 . S
C306 C143 2.214 1_554 S
C315 C10 1.979 . S
C317 C183 2.221 1_554 S
C326 C21 1.964 . S
C328 C223 2.205 1_654 S
C339 C114 0.755 . S
C337 C60 0.756 . S
C350 C154 0.752 . S
C348 C71 0.762 . S
C361 C194 0.746 . S
C359 C82 0.745 . S
C370 C49 0.744 . S
C372 C234 0.740 . S
C381 C16 0.767 1_655 S
C383 C97 0.755 . S
C394 C137 0.761 . S
C392 C27 0.749 . S
C405 C177 0.742 . S
C403 C38 0.761 . S
C414 C5 0.736 . S
C416 C217 0.759 . S
C425 C59 2.232 . S
C427 C91 2.562 . S
C436 C70 2.185 . S
C438 C131 2.524 . S
C449 C171 2.512 . S
C447 C81 2.170 . S
C460 C211 2.553 . S
C458 C48 2.202 . S
C469 C15 2.234 1_655 S
C471 C110 2.569 . S
C482 C150 2.524 . S
C480 C26 2.187 1_565 S
C493 C190 2.510 . S
C491 C37 2.181 . S
C502 C4 2.222 . S
C504 C230 2.555 . S
