# Generated by pormake.
# Topology pth, (4,4)-cn, num edge types: 1
# Building blocks:
#     Node 0, Type 0, BuildingBlock: TATPOV_clean_sbu_0, # of connection points: 4
#     Node 1, Type 0, BuildingBlock: TATPOV_clean_sbu_0, # of connection points: 4
#     Node 2, Type 0, BuildingBlock: TATPOV_clean_sbu_0, # of connection points: 4
#     Node 3, Type 1, BuildingBlock: AZAVOO_clean_linker_0, # of connection points: 4
#     Node 4, Type 1, BuildingBlock: AZAVOO_clean_linker_0, # of connection points: 4
#     Node 5, Type 1, BuildingBlock: AZAVOO_clean_linker_0, # of connection points: 4
#     Edge 6, Type (0, 1), BuildingBlock: FUNLAD_clean_linker_0, # of connection points: 2
#     Edge 7, Type (0, 1), BuildingBlock: FUNLAD_clean_linker_0, # of connection points: 2
#     Edge 8, Type (0, 1), BuildingBlock: FUNLAD_clean_linker_0, # of connection points: 2
#     Edge 9, Type (0, 1), BuildingBlock: FUNLAD_clean_linker_0, # of connection points: 2
#     Edge 10, Type (0, 1), BuildingBlock: FUNLAD_clean_linker_0, # of connection points: 2
#     Edge 11, Type (0, 1), BuildingBlock: FUNLAD_clean_linker_0, # of connection points: 2
#     Edge 12, Type (0, 1), BuildingBlock: FUNLAD_clean_linker_0, # of connection points: 2
#     Edge 13, Type (0, 1), BuildingBlock: FUNLAD_clean_linker_0, # of connection points: 2
#     Edge 14, Type (0, 1), BuildingBlock: FUNLAD_clean_linker_0, # of connection points: 2
#     Edge 15, Type (0, 1), BuildingBlock: FUNLAD_clean_linker_0, # of connection points: 2
#     Edge 16, Type (0, 1), BuildingBlock: FUNLAD_clean_linker_0, # of connection points: 2
#     Edge 17, Type (0, 1), BuildingBlock: FUNLAD_clean_linker_0, # of connection points: 2
# Relax obj value: 0.145
# Max RMSD: 0.230
# Mean RMSD: 0.204
data_MOF--net-pth--node1-TATPOV_clean_sbu_0--node2-AZAVOO_clean_linker_0--edge1-FUNLAD_clean_linker_0
_symmetry_space_group_name_H-M    P1
_symmetry_Int_Tables_number       1
_symmetry_cell_setting            triclinic
loop_
_symmetry_equiv_pos_as_xyz
'x, y, z'
_cell_length_a     30.160056
_cell_length_b     29.967148
_cell_length_c     78.914885
_cell_angle_alpha  94.038344
_cell_angle_beta   91.51302
_cell_angle_gamma 121.10015
loop_
_atom_site_label
_atom_site_type_symbol
_atom_site_fract_x
_atom_site_fract_y
_atom_site_fract_z
_atom_type_partial_charge
Zn0 Zn 0.1936 0.0123 0.04735 0.0
Zn1 Zn 0.16243 0.06984 0.06564 0.0
O2 O 0.15678 0.01553 0.08123 0.0
O3 O 0.17729 0.96493 0.0662 0.0
O4 O 0.14297 0.11269 0.08097 0.0
O5 O 0.26456 0.07755 0.04673 0.0
O6 O 0.23562 0.12394 0.05971 0.0
C7 C 0.1625 0.97626 0.07983 0.0
C8 C 0.10497 0.0119 0.03146 0.0
O9 O 0.10881 0.03978 0.04504 0.0
O10 O 0.13673 -0.00345 0.02945 0.0
C11 C 0.1028 0.09041 0.08932 0.0
O12 O 0.07236 0.03921 0.08699 0.0
C13 C 0.27172 0.12148 0.05253 0.0
Zn14 Zn 0.14479 0.05239 0.36487 0.0
Zn15 Zn 0.08127 0.03985 0.38992 0.0
O16 O 0.15513 0.08287 0.40135 0.0
O17 O 0.20819 0.09939 0.38092 0.0
O18 O 0.03889 0.03549 0.40967 0.0
O19 O 0.1095 0.08186 0.35135 0.0
O20 O 0.06147 0.07585 0.37262 0.0
C21 C 0.20109 0.10427 0.39652 0.0
C22 C 0.07716 0.94437 0.37188 0.0
O23 O 0.05817 0.96346 0.38226 0.0
O24 O 0.11478 0.97415 0.36343 0.0
C25 C 0.9904 0.00324 0.40971 0.0
O26 O 0.96542 0.97035 0.39615 0.0
C27 C 0.07523 0.08886 0.35776 0.0
Zn28 Zn 0.12632 0.94064 0.74127 0.0
Zn29 Zn 0.08317 0.9803 0.72167 0.0
O30 O 0.11914 0.95476 0.70516 0.0
O31 O 0.14848 0.91579 0.72063 0.0
O32 O 0.04344 0.00058 0.70628 0.0
O33 O 0.05814 0.89285 0.75092 0.0
O34 O 0.02436 0.92713 0.73516 0.0
C35 C 0.14254 0.9297 0.70639 0.0
C36 C 0.16997 0.05416 0.74781 0.0
O37 O 0.13597 0.04723 0.73631 0.0
O38 O 0.17323 0.0157 0.75192 0.0
C39 C 0.05879 0.02148 0.69249 0.0
O40 O 0.10491 0.03347 0.68786 0.0
C41 C 0.0195 0.89582 0.74607 0.0
H42 H 0.03346 0.43295 0.1227 0.0
H43 H 0.94365 0.75693 0.2754 0.0
H44 H 0.91246 0.35053 0.21873 0.0
H45 H 0.92252 0.28292 0.20334 0.0
H46 H 0.08541 0.39631 0.19989 0.0
H47 H 0.07534 0.46262 0.21605 0.0
H48 H 0.93405 0.4169 0.18649 0.0
H49 H 0.96197 0.41037 0.15807 0.0
H50 H 0.10981 0.55255 0.17207 0.0
H51 H 0.08167 0.55817 0.20053 0.0
H52 H 0.92737 0.51747 0.18788 0.0
H53 H 0.94774 0.58203 0.16757 0.0
H54 H 0.0701 0.70111 0.20332 0.0
H55 H 0.05207 0.63518 0.22286 0.0
H56 H 0.88305 0.54289 0.22432 0.0
H57 H 0.8634 0.60957 0.23437 0.0
H58 H 0.00271 0.68509 0.26839 0.0
H59 H 0.02232 0.61879 0.25801 0.0
H60 H 0.86573 0.47569 0.25671 0.0
H61 H 0.84975 0.50694 0.28403 0.0
H62 H 0.00883 0.56625 0.30219 0.0
H63 H 0.0239 0.53409 0.27504 0.0
H64 H 0.88651 0.37656 0.2536 0.0
H65 H 0.88722 0.32053 0.27479 0.0
H66 H 0.05492 0.40715 0.27753 0.0
H67 H 0.05382 0.46251 0.25633 0.0
O68 O 0.02314 0.4364 0.13399 0.0
O69 O 0.09822 0.51004 0.14175 0.0
O70 O 0.88059 0.6913 0.2529 0.0
O71 O 0.95087 0.73053 0.27101 0.0
C72 C 0.98441 0.45439 0.22433 0.0
C73 C 0.98934 0.491 0.21298 0.0
C74 C 0.97987 0.53115 0.21834 0.0
C75 C 0.96444 0.53401 0.23491 0.0
C76 C 0.95956 0.49744 0.24626 0.0
C77 C 0.97029 0.45818 0.24104 0.0
C78 C 0.99305 0.41154 0.21835 0.0
C79 C 0.95062 0.3602 0.21512 0.0
C80 C 0.95633 0.32186 0.2061 0.0
C81 C 0.00455 0.33436 0.20004 0.0
C82 C 0.04777 0.38505 0.2044 0.0
C83 C 0.0421 0.42316 0.21359 0.0
C84 C 0.00582 0.48799 0.19555 0.0
C85 C 0.97245 0.44655 0.18338 0.0
C86 C 0.98849 0.44297 0.16716 0.0
C87 C 0.03814 0.48095 0.16279 0.0
C88 C 0.07133 0.52266 0.17501 0.0
C89 C 0.05532 0.52606 0.19125 0.0
C90 C 0.98839 0.57154 0.2068 0.0
C91 C 0.95856 0.55754 0.19128 0.0
C92 C 0.96998 0.59474 0.17977 0.0
C93 C 0.01082 0.64699 0.18372 0.0
C94 C 0.03916 0.66115 0.19964 0.0
C95 C 0.02842 0.62367 0.21096 0.0
C96 C 0.95388 0.57584 0.24052 0.0
C97 C 0.90941 0.57409 0.23386 0.0
C98 C 0.89823 0.61211 0.23966 0.0
C99 C 0.93138 0.65254 0.25225 0.0
C100 C 0.97627 0.65444 0.25874 0.0
C101 C 0.98751 0.61656 0.25286 0.0
C102 C 0.94603 0.50295 0.2639 0.0
C103 C 0.89647 0.49374 0.26685 0.0
C104 C 0.88759 0.51203 0.28239 0.0
C105 C 0.92822 0.53985 0.29521 0.0
C106 C 0.97649 0.54462 0.2927 0.0
C107 C 0.98527 0.52625 0.27717 0.0
C108 C 0.97011 0.42331 0.25344 0.0
C109 C 0.92328 0.38315 0.25877 0.0
C110 C 0.92377 0.3513 0.27081 0.0
C111 C 0.97114 0.35981 0.27784 0.0
C112 C 0.01791 0.4002 0.27246 0.0
C113 C 0.01736 0.43151 0.2603 0.0
C114 C 0.05515 0.47688 0.14557 0.0
C115 C 0.91926 0.69252 0.25868 0.0
H116 H 0.65723 0.10031 0.4469 0.0
H117 H 0.34653 0.12305 0.59386 0.0
H118 H 0.62923 0.99376 0.53116 0.0
H119 H 0.69469 0.98592 0.51604 0.0
H120 H 0.81477 0.13287 0.54253 0.0
H121 H 0.74823 0.14088 0.55733 0.0
H122 H 0.56512 0.02774 0.51115 0.0
H123 H 0.59104 0.0446 0.48206 0.0
H124 H 0.72807 0.19142 0.50142 0.0
H125 H 0.7013 0.1743 0.53044 0.0
H126 H 0.48137 0.02626 0.5278 0.0
H127 H 0.43419 0.04843 0.50761 0.0
H128 H 0.55292 0.21214 0.51748 0.0
H129 H 0.60024 0.18948 0.53757 0.0
H130 H 0.46298 0.99583 0.56672 0.0
H131 H 0.38625 0.99383 0.57705 0.0
H132 H 0.46833 0.16294 0.58 0.0
H133 H 0.54512 0.16436 0.56994 0.0
H134 H 0.53869 0.97426 0.58594 0.0
H135 H 0.4822 0.94787 0.60957 0.0
H136 H 0.53057 0.10985 0.62316 0.0
H137 H 0.58822 0.13568 0.60005 0.0
H138 H 0.64334 0.98506 0.56971 0.0
H139 H 0.70133 0.97625 0.58973 0.0
H140 H 0.74683 0.12693 0.61594 0.0
H141 H 0.6888 0.13523 0.59595 0.0
O142 O 0.64762 0.09452 0.4585 0.0
O143 O 0.71768 0.16941 0.46912 0.0
O144 O 0.33595 0.03585 0.58806 0.0
O145 O 0.37609 0.12269 0.58957 0.0
C146 C 0.64299 0.07609 0.55183 0.0
C147 C 0.61552 0.08945 0.5405 0.0
C148 C 0.57298 0.09256 0.5459 0.0
C149 C 0.55707 0.08125 0.56246 0.0
C150 C 0.58576 0.06993 0.57404 0.0
C151 C 0.62931 0.06814 0.56883 0.0
C152 C 0.68408 0.06788 0.54528 0.0
C153 C 0.6698 0.02369 0.53395 0.0
C154 C 0.70734 0.01922 0.52538 0.0
C155 C 0.76002 0.0589 0.52801 0.0
C156 C 0.77446 0.10198 0.54006 0.0
C157 C 0.73669 0.10642 0.54865 0.0
C158 C 0.63123 0.09993 0.52285 0.0
C159 C 0.60053 0.06366 0.50905 0.0
C160 C 0.61553 0.07332 0.49246 0.0
C161 C 0.66163 0.11938 0.48941 0.0
C162 C 0.69234 0.15558 0.50332 0.0
C163 C 0.67719 0.14592 0.5199 0.0
C164 C 0.54413 0.1063 0.53403 0.0
C165 C 0.49707 0.06686 0.52559 0.0
C166 C 0.4704 0.07955 0.51407 0.0
C167 C 0.49014 0.13197 0.51099 0.0
C168 C 0.53686 0.17152 0.51972 0.0
C169 C 0.5639 0.15868 0.53108 0.0
C170 C 0.50954 0.08023 0.56762 0.0
C171 C 0.4642 0.03236 0.56956 0.0
C172 C 0.42047 0.03135 0.57546 0.0
C173 C 0.42119 0.07827 0.57938 0.0
C174 C 0.46648 0.12612 0.57712 0.0
C175 C 0.5103 0.12707 0.5713 0.0
C176 C 0.5671 0.05679 0.59123 0.0
C177 C 0.53885 0.00416 0.59455 0.0
C178 C 0.50595 0.98912 0.60787 0.0
C179 C 0.50079 0.02656 0.618 0.0
C180 C 0.53355 0.07989 0.61571 0.0
C181 C 0.5667 0.09487 0.60249 0.0
C182 C 0.66203 0.06086 0.58135 0.0
C183 C 0.66583 0.01606 0.5798 0.0
C184 C 0.69908 0.01121 0.59119 0.0
C185 C 0.72879 0.05097 0.6044 0.0
C186 C 0.72406 0.09534 0.60605 0.0
C187 C 0.69103 0.10022 0.59463 0.0
C188 C 0.67751 0.12946 0.47177 0.0
C189 C 0.37509 0.07743 0.58591 0.0
H190 H 0.70411 0.73174 0.00643 0.0
H191 H 0.38125 0.21055 0.89611 0.0
H192 H 0.62804 0.69249 0.91605 0.0
H193 H 0.69924 0.77918 0.92756 0.0
H194 H 0.80985 0.73975 0.90938 0.0
H195 H 0.73842 0.65326 0.8979 0.0
H196 H 0.57601 0.61233 0.94399 0.0
H197 H 0.61652 0.66176 0.97168 0.0
H198 H 0.75904 0.66847 0.96001 0.0
H199 H 0.71777 0.61828 0.93251 0.0
H200 H 0.4907 0.492 0.93331 0.0
H201 H 0.46579 0.4411 0.95801 0.0
H202 H 0.61554 0.45439 0.9614 0.0
H203 H 0.63958 0.50428 0.93648 0.0
H204 H 0.45526 0.46142 0.89245 0.0
H205 H 0.38669 0.36875 0.88917 0.0
H206 H 0.49889 0.32733 0.90405 0.0
H207 H 0.56714 0.42004 0.90708 0.0
H208 H 0.51328 0.5446 0.86516 0.0
H209 H 0.46587 0.49157 0.83851 0.0
H210 H 0.53502 0.39751 0.84414 0.0
H211 H 0.58289 0.45133 0.87049 0.0
H212 H 0.61492 0.66285 0.87355 0.0
H213 H 0.65553 0.70138 0.84754 0.0
H214 H 0.71251 0.59542 0.84234 0.0
H215 H 0.6718 0.55733 0.86804 0.0
O216 O 0.68865 0.7117 0.99552 0.0
O217 O 0.76139 0.71522 0.98868 0.0
O218 O 0.35139 0.27085 0.88982 0.0
O219 O 0.40756 0.2475 0.89738 0.0
C220 C 0.63688 0.61043 0.90434 0.0
C221 C 0.61999 0.58388 0.91916 0.0
C222 C 0.5812 0.53029 0.91774 0.0
C223 C 0.55779 0.50354 0.90158 0.0
C224 C 0.57523 0.52987 0.88677 0.0
C225 C 0.61593 0.58287 0.88812 0.0
C226 C 0.67817 0.66661 0.90625 0.0
C227 C 0.66763 0.70341 0.91398 0.0
C228 C 0.70829 0.75266 0.92066 0.0
C229 C 0.76006 0.76588 0.9196 0.0
C230 C 0.77038 0.73082 0.91031 0.0
C231 C 0.72963 0.68141 0.90369 0.0
C232 C 0.64406 0.61205 0.93623 0.0
C233 C 0.61585 0.62423 0.94751 0.0
C234 C 0.63915 0.65261 0.96328 0.0
C235 C 0.69111 0.66929 0.96803 0.0
C236 C 0.71903 0.65639 0.95673 0.0
C237 C 0.6956 0.62781 0.94101 0.0
C238 C 0.56683 0.50164 0.93315 0.0
C239 C 0.5181 0.48405 0.93946 0.0
C240 C 0.50417 0.4554 0.95362 0.0
C241 C 0.53881 0.44388 0.96166 0.0
C242 C 0.58792 0.4623 0.9554 0.0
C243 C 0.60181 0.49099 0.94126 0.0
C244 C 0.51604 0.44738 0.90007 0.0
C245 C 0.46488 0.43223 0.89501 0.0
C246 C 0.42583 0.37931 0.89315 0.0
C247 C 0.43731 0.34061 0.89636 0.0
C248 C 0.48868 0.35608 0.9015 0.0
C249 C 0.52771 0.409 0.90331 0.0
C250 C 0.55106 0.5014 0.86978 0.0
C251 C 0.51873 0.51305 0.86044 0.0
C252 C 0.49153 0.48259 0.84531 0.0
C253 C 0.49651 0.44021 0.83927 0.0
C254 C 0.53076 0.43021 0.84834 0.0
C255 C 0.55782 0.46059 0.86345 0.0
C256 C 0.64024 0.60717 0.87257 0.0
C257 C 0.63616 0.64811 0.86672 0.0
C258 C 0.65934 0.66999 0.85191 0.0
C259 C 0.6867 0.65101 0.84277 0.0
C260 C 0.69071 0.61012 0.84882 0.0
C261 C 0.66779 0.58853 0.86357 0.0
C262 C 0.716 0.70009 0.98467 0.0
C263 C 0.39603 0.2843 0.89431 0.0
C264 C 0.0491 0.09654 0.11204 0.0
C265 C 0.09288 0.12122 0.10252 0.0
C266 C 0.04133 0.12501 0.1252 0.0
C267 C 0.07716 0.17894 0.12908 0.0
C268 C 0.12077 0.20354 0.11953 0.0
C269 C 0.12845 0.17514 0.10634 0.0
C270 C 0.07148 0.21038 0.14335 0.0
C271 C 0.02549 0.19793 0.14938 0.0
C272 C 0.02023 0.23117 0.16307 0.0
C273 C 0.97433 0.2323 0.16309 0.0
C274 C 0.96884 0.26485 0.1753 0.0
C275 C 0.00887 0.29643 0.18801 0.0
H276 H 0.09494 0.26017 0.17678 0.0
C277 C 0.05406 0.29369 0.18839 0.0
C278 C 0.05973 0.26145 0.17606 0.0
H279 H 0.08521 0.31662 0.19819 0.0
H280 H 0.02118 0.05497 0.10953 0.0
H281 H 0.00797 0.10423 0.13254 0.0
H282 H 0.14914 0.24494 0.1223 0.0
H283 H 0.16274 0.19535 0.09933 0.0
H284 H 0.10625 0.24671 0.14838 0.0
H285 H 0.98994 0.16452 0.14329 0.0
H286 H 0.94318 0.20909 0.1533 0.0
H287 H 0.93382 0.26645 0.17439 0.0
C288 C 0.98965 0.03879 0.43933 0.0
C289 C 0.96256 0.00347 0.42487 0.0
C290 C 0.96347 0.03993 0.45354 0.0
C291 C 0.90942 0.00595 0.45357 0.0
C292 C 0.8826 0.96982 0.43928 0.0
C293 C 0.90879 0.9687 0.42505 0.0
C294 C 0.87981 0.00674 0.46824 0.0
C295 C 0.89563 0.04942 0.47933 0.0
C296 C 0.86347 0.05139 0.49296 0.0
C297 C 0.86855 0.09957 0.49833 0.0
C298 C 0.83629 0.10238 0.5102 0.0
C299 C 0.79862 0.05706 0.51712 0.0
H300 H 0.82395 0.969 0.49716 0.0
C301 C 0.79549 0.0093 0.51243 0.0
C302 C 0.82758 0.00645 0.50049 0.0
H303 H 0.76769 0.97389 0.51782 0.0
H304 H 0.03122 0.06572 0.4397 0.0
H305 H 0.98591 0.06713 0.4645 0.0
H306 H 0.84104 0.94285 0.43901 0.0
H307 H 0.8868 0.94078 0.41416 0.0
H308 H 0.84183 0.97212 0.46911 0.0
H309 H 0.93115 0.08574 0.47751 0.0
H310 H 0.89625 0.13487 0.49286 0.0
H311 H 0.83945 0.13972 0.51338 0.0
C312 C 0.96127 0.82419 0.76353 0.0
C313 C 0.96979 0.8654 0.75398 0.0
C314 C 0.91661 0.79844 0.77235 0.0
C315 C 0.87946 0.81344 0.77187 0.0
C316 C 0.88754 0.85409 0.76214 0.0
C317 C 0.93201 0.87949 0.75311 0.0
C318 C 0.83472 0.79043 0.78265 0.0
C319 C 0.81252 0.74092 0.7868 0.0
C320 C 0.77434 0.71935 0.79991 0.0
C321 C 0.74324 0.66481 0.79986 0.0
C322 C 0.71263 0.64265 0.81336 0.0
C323 C 0.71295 0.6746 0.82735 0.0
H324 H 0.797 0.79368 0.8142 0.0
C325 C 0.74215 0.72925 0.82704 0.0
C326 C 0.77267 0.75147 0.81348 0.0
H327 H 0.74368 0.75491 0.83772 0.0
H328 H 0.9897 0.81252 0.76451 0.0
H329 H 0.91251 0.76831 0.78011 0.0
H330 H 0.85976 0.86672 0.76171 0.0
H331 H 0.93765 0.91137 0.74596 0.0
H332 H 0.82041 0.81522 0.7874 0.0
H333 H 0.82373 0.71503 0.78061 0.0
H334 H 0.74382 0.63917 0.78959 0.0
H335 H 0.68983 0.60037 0.81308 0.0
C336 C 0.1495 0.9619 0.11062 0.0
C337 C 0.14979 0.94259 0.09389 0.0
C338 C 0.13616 0.92941 0.12381 0.0
C339 C 0.12138 0.87679 0.12041 0.0
C340 C 0.12202 0.85755 0.10371 0.0
C341 C 0.13647 0.89027 0.0906 0.0
C342 C 0.10668 0.84277 0.13447 0.0
C343 C 0.06738 0.79257 0.1324 0.0
C344 C 0.05327 0.75751 0.14616 0.0
C345 C 0.00109 0.71902 0.14736 0.0
C346 C 0.98705 0.68403 0.15981 0.0
C347 C 0.02518 0.68598 0.17105 0.0
H348 H 0.13217 0.78845 0.15654 0.0
C349 C 0.07756 0.72453 0.1697 0.0
C350 C 0.09142 0.7601 0.15748 0.0
H351 H 0.10822 0.72648 0.17777 0.0
H352 H 0.15986 0.00216 0.11352 0.0
H353 H 0.1364 0.94511 0.13664 0.0
H354 H 0.11191 0.81737 0.10081 0.0
H355 H 0.13632 0.87432 0.07783 0.0
H356 H 0.12707 0.86007 0.14693 0.0
H357 H 0.04359 0.77709 0.12042 0.0
H358 H 0.97107 0.71622 0.1387 0.0
H359 H 0.94629 0.65551 0.16059 0.0
C360 C 0.23826 0.13096 0.4268 0.0
C361 C 0.24599 0.12946 0.40933 0.0
C362 C 0.27916 0.14592 0.43898 0.0
C363 C 0.32881 0.15999 0.4339 0.0
C364 C 0.33719 0.16176 0.41649 0.0
C365 C 0.29633 0.14689 0.40433 0.0
C366 C 0.3702 0.16537 0.446 0.0
C367 C 0.37104 0.1734 0.46304 0.0
C368 C 0.40527 0.16571 0.47475 0.0
C369 C 0.422 0.19391 0.49092 0.0
C370 C 0.45086 0.18403 0.50261 0.0
C371 C 0.46231 0.14489 0.49843 0.0
H372 H 0.40392 0.10343 0.45839 0.0
C373 C 0.44571 0.11683 0.48225 0.0
C374 C 0.41755 0.12712 0.47052 0.0
H375 H 0.4542 0.08656 0.47872 0.0
H376 H 0.19998 0.11791 0.4311 0.0
H377 H 0.27063 0.14308 0.45222 0.0
H378 H 0.37497 0.17234 0.41222 0.0
H379 H 0.30374 0.1465 0.39098 0.0
H380 H 0.39986 0.15955 0.44062 0.0
H381 H 0.34517 0.18438 0.46867 0.0
H382 H 0.41236 0.22326 0.49455 0.0
H383 H 0.46292 0.20587 0.51508 0.0
C384 C 0.24859 0.11541 0.76712 0.0
C385 C 0.20669 0.10713 0.75632 0.0
C386 C 0.28356 0.16497 0.77526 0.0
C387 C 0.27761 0.20766 0.77277 0.0
C388 C 0.23547 0.19943 0.76213 0.0
C389 C 0.20056 0.14971 0.75384 0.0
C390 C 0.31285 0.25996 0.78211 0.0
C391 C 0.3628 0.27695 0.78677 0.0
C392 C 0.39706 0.32436 0.79864 0.0
C393 C 0.45065 0.34381 0.79978 0.0
C394 C 0.48347 0.38323 0.81246 0.0
C395 C 0.46331 0.40393 0.82436 0.0
H396 H 0.33608 0.33216 0.80998 0.0
C397 C 0.41006 0.38618 0.82277 0.0
C398 C 0.3772 0.34672 0.81009 0.0
H399 H 0.39321 0.40076 0.83191 0.0
H400 H 0.25441 0.0835 0.7694 0.0
H401 H 0.31441 0.16928 0.78384 0.0
H402 H 0.22962 0.23152 0.7602 0.0
H403 H 0.16854 0.14457 0.74565 0.0
H404 H 0.29691 0.28448 0.78524 0.0
H405 H 0.37934 0.25413 0.78205 0.0
H406 H 0.46702 0.32728 0.79116 0.0
H407 H 0.52444 0.39655 0.81324 0.0
C408 C 0.9725 0.01184 0.68564 0.0
C409 C 0.02331 0.02873 0.68124 0.0
C410 C 0.93787 0.01591 0.67469 0.0
C411 C 0.95342 0.03756 0.6591 0.0
C412 C 0.00428 0.05463 0.65475 0.0
C413 C 0.03892 0.05044 0.6657 0.0
C414 C 0.91716 0.04072 0.64674 0.0
C415 C 0.87386 0.03995 0.65113 0.0
C416 C 0.83715 0.04229 0.63878 0.0
C417 C 0.80468 0.05954 0.64489 0.0
C418 C 0.76936 0.06204 0.63378 0.0
C419 C 0.7653 0.04683 0.61627 0.0
H420 H 0.85555 0.01107 0.61611 0.0
C421 C 0.79703 0.02856 0.61017 0.0
C422 C 0.8325 0.02618 0.62129 0.0
H423 H 0.79497 0.01672 0.59674 0.0
H424 H 0.95898 0.99443 0.69744 0.0
H425 H 0.89868 0.00067 0.67836 0.0
H426 H 0.01725 0.07109 0.64278 0.0
H427 H 0.07771 0.06365 0.66188 0.0
H428 H 0.92778 0.04568 0.63367 0.0
H429 H 0.86573 0.03993 0.66445 0.0
H430 H 0.80687 0.07149 0.65832 0.0
H431 H 0.74489 0.07551 0.63893 0.0
C432 C 0.06189 0.96893 0.0026 0.0
C433 C 0.06302 -0.0038 0.018 0.0
C434 C 0.02124 0.95124 0.99014 0.0
C435 C 0.98068 0.96068 0.99269 0.0
C436 C 0.9821 0.98857 0.00798 0.0
C437 C 0.02302 0.00648 0.02048 0.0
C438 C 0.93411 0.93724 0.98045 0.0
C439 C 0.93467 0.9228 0.96391 0.0
C440 C 0.88728 0.88862 0.9523 0.0
C441 C 0.89314 0.88139 0.93489 0.0
C442 C 0.85123 0.84338 0.92396 0.0
C443 C 0.80245 0.81189 0.93023 0.0
H444 H 0.83129 0.8614 0.97172 0.0
C445 C 0.79588 0.82071 0.94746 0.0
C446 C 0.83774 0.85844 0.95839 0.0
H447 H 0.75903 0.79624 0.95277 0.0
H448 H 0.09195 0.96016 0.00025 0.0
H449 H 0.02095 0.92836 0.97886 0.0
H450 H 0.95104 0.99581 0.01037 0.0
H451 H 0.02267 0.02729 0.03222 0.0
H452 H 0.89827 0.93042 0.9855 0.0
H453 H 0.97166 0.93445 0.95867 0.0
H454 H 0.93079 0.9038 0.92983 0.0
H455 H 0.85737 0.8375 0.91073 0.0
C456 C 0.00349 0.85136 0.37202 0.0
C457 C 0.05563 0.88736 0.36939 0.0
C458 C 0.98257 0.79758 0.36793 0.0
C459 C 0.01386 0.77915 0.36143 0.0
C460 C 0.0666 0.81503 0.35984 0.0
C461 C 0.08714 0.86856 0.36357 0.0
C462 C 0.99279 0.72362 0.35508 0.0
C463 C 0.94544 0.69348 0.34685 0.0
C464 C 0.93224 0.64615 0.3354 0.0
C465 C 0.90317 0.63632 0.31996 0.0
C466 C 0.899 0.59918 0.30727 0.0
C467 C 0.92321 0.57049 0.30988 0.0
H468 H 0.97386 0.61986 0.35062 0.0
C469 C 0.94825 0.57698 0.32594 0.0
C470 C 0.9527 0.61443 0.3386 0.0
H471 H 0.96629 0.55465 0.32848 0.0
H472 H 0.97847 0.86485 0.37661 0.0
H473 H 0.94196 0.7707 0.36964 0.0
H474 H 0.0916 0.80183 0.35496 0.0
H475 H 0.12766 0.89534 0.36166 0.0
H476 H 0.02037 0.71059 0.35452 0.0
H477 H 0.91972 0.70867 0.34595 0.0
H478 H 0.8868 0.66003 0.3172 0.0
H479 H 0.87988 0.59572 0.29502 0.0
C480 C 0.18788 0.96041 0.67986 0.0
C481 C 0.16982 0.92372 0.69195 0.0
C482 C 0.22314 0.96201 0.66842 0.0
C483 C 0.24011 0.92632 0.66869 0.0
C484 C 0.2187 0.88688 0.67977 0.0
C485 C 0.18437 0.88601 0.69149 0.0
C486 C 0.28243 0.9318 0.65829 0.0
C487 C 0.32593 0.97879 0.65767 0.0
C488 C 0.37093 0.98674 0.64825 0.0
C489 C 0.42059 0.02892 0.65389 0.0
C490 C 0.46339 0.04023 0.6446 0.0
C491 C 0.45726 0.01009 0.62927 0.0
H492 H 0.32697 0.92334 0.6283 0.0
C493 C 0.40759 0.96707 0.62383 0.0
C494 C 0.3649 0.95539 0.63324 0.0
H495 H 0.40107 0.94381 0.61186 0.0
H496 H 0.1774 0.98997 0.67992 0.0
H497 H 0.23836 0.99215 0.65972 0.0
H498 H 0.2309 0.85867 0.68004 0.0
H499 H 0.17079 0.85712 0.70062 0.0
H500 H 0.27986 0.89649 0.6525 0.0
H501 H 0.32983 0.01279 0.6651 0.0
H502 H 0.42621 0.05365 0.66543 0.0
H503 H 0.50109 0.07332 0.64925 0.0
C504 C 0.36006 0.1677 0.04145 0.0
C505 C 0.31978 0.17012 0.04917 0.0
C506 C 0.40113 0.21222 0.03547 0.0
C507 C 0.40237 0.25994 0.03692 0.0
C508 C 0.36465 0.26336 0.04598 0.0
C509 C 0.32365 0.21888 0.05203 0.0
C510 C 0.43914 0.30533 0.0279 0.0
C511 C 0.45813 0.29952 0.01318 0.0
C512 C 0.4842 0.34139 0.00162 0.0
C513 C 0.5134 0.33548 0.98907 0.0
C514 C 0.53267 0.36985 0.97645 0.0
C515 C 0.52272 0.41069 0.97601 0.0
H516 H 0.45226 0.38868 0.01063 0.0
C517 C 0.49484 0.41766 0.98884 0.0
C518 C 0.47567 0.38337 0.00151 0.0
H519 H 0.48691 0.44904 0.98888 0.0
H520 H 0.35886 0.13096 0.0394 0.0
H521 H 0.43083 0.20855 0.02929 0.0
H522 H 0.36511 0.29983 0.04751 0.0
H523 H 0.29359 0.22224 0.05811 0.0
H524 H 0.44586 0.34346 0.03252 0.0
H525 H 0.45128 0.26133 0.00858 0.0
H526 H 0.52005 0.30319 0.98873 0.0
H527 H 0.5535 0.36308 0.96661 0.0
C528 C 0.02467 0.13383 0.35584 0.0
C529 C 0.05146 0.11227 0.34784 0.0
C530 C 0.00431 0.15791 0.34642 0.0
C531 C 0.00997 0.16031 0.32881 0.0
C532 C 0.03502 0.13707 0.32076 0.0
C533 C 0.05602 0.11379 0.33019 0.0
C534 C 0.99107 0.1873 0.31842 0.0
C535 C 0.99145 0.23059 0.32452 0.0
C536 C 0.98166 0.26256 0.31322 0.0
C537 C 0.0101 0.31723 0.31669 0.0
C538 C 0.00583 0.34883 0.30538 0.0
C539 C 0.97224 0.32625 0.29053 0.0
H540 H 0.92286 0.19772 0.29595 0.0
C541 C 0.94161 0.27146 0.28752 0.0
C542 C 0.94636 0.23984 0.29874 0.0
H543 H 0.91532 0.25309 0.27619 0.0
H544 H 0.02023 0.13293 0.36941 0.0
H545 H 0.98408 0.17439 0.35292 0.0
H546 H 0.03953 0.13807 0.30719 0.0
H547 H 0.07592 0.09701 0.32361 0.0
H548 H 0.98237 0.17466 0.30487 0.0
H549 H 0.00544 0.24655 0.33766 0.0
H550 H 0.03716 0.33562 0.32785 0.0
H551 H 0.02931 0.391 0.30811 0.0
loop_
_geom_bond_atom_site_label_1
_geom_bond_atom_site_label_2
_geom_bond_distance
_geom_bond_site_symmetry_2
_ccdc_geom_bond_type
Zn0 O3 2.031 1_545 S
Zn0 O5 2.049 . S
Zn0 O10 2.067 1_545 S
Zn1 O2 1.962 . S
Zn1 O4 1.986 . S
Zn1 O6 1.996 . S
Zn1 O9 1.943 . S
O2 Zn1 1.962 . S
O2 C7 1.254 1_545 S
O3 Zn0 2.031 1_565 S
O3 C7 1.269 . S
O4 Zn1 1.986 . S
O4 C11 1.262 . S
O5 Zn0 2.049 . S
O5 C13 1.260 . S
O6 Zn1 1.996 . S
O6 C13 1.257 . S
C7 O2 1.254 1_565 S
C7 O3 1.269 . S
C8 O9 1.259 . S
C8 O10 1.263 1_545 S
O9 Zn1 1.943 . S
O9 C8 1.259 . S
O10 Zn0 2.067 1_565 S
O10 C8 1.263 1_565 S
C11 O4 1.262 . S
C11 O12 1.232 . S
O12 C11 1.232 . S
C13 O5 1.260 . S
C13 O6 1.257 . S
Zn14 O17 2.031 . S
Zn14 O19 2.049 . S
Zn14 O24 2.076 . S
Zn15 O16 1.962 . S
Zn15 O18 1.986 1_455 S
Zn15 O20 1.996 . S
Zn15 O23 1.943 1_545 S
O16 Zn15 1.962 . S
O16 C21 1.254 . S
O17 Zn14 2.031 . S
O17 C21 1.269 . S
O18 Zn15 1.986 1_655 S
O18 C25 1.262 . S
O19 Zn14 2.049 . S
O19 C27 1.260 . S
O20 Zn15 1.996 . S
O20 C27 1.257 . S
C21 O16 1.254 . S
C21 O17 1.269 . S
C22 O23 1.249 . S
C22 O24 1.264 1_565 S
O23 Zn15 1.943 1_565 S
O23 C22 1.249 . S
O24 Zn14 2.076 . S
O24 C22 1.264 1_545 S
C25 O18 1.262 . S
C25 O26 1.232 1_545 S
O26 C25 1.232 1_565 S
C27 O19 1.260 . S
C27 O20 1.257 . S
Zn28 O31 2.031 1_565 S
Zn28 O33 2.049 . S
Zn28 O38 2.067 1_565 S
Zn29 O30 1.962 . S
Zn29 O32 1.986 . S
Zn29 O34 1.996 1_545 S
Zn29 O37 1.943 . S
O30 Zn29 1.962 . S
O30 C35 1.254 . S
O31 Zn28 2.031 1_545 S
O31 C35 1.269 . S
O32 Zn29 1.986 . S
O32 C39 1.262 . S
O33 Zn28 2.049 . S
O33 C41 1.260 . S
O34 Zn29 1.996 1_565 S
O34 C41 1.257 . S
C35 O30 1.254 . S
C35 O31 1.269 . S
C36 O37 1.249 . S
C36 O38 1.270 . S
O37 Zn29 1.943 . S
O37 C36 1.249 . S
O38 Zn28 2.067 1_545 S
O38 C36 1.270 . S
C39 O32 1.262 . S
C39 O40 1.232 . S
O40 C39 1.232 . S
C41 O33 1.260 . S
C41 O34 1.257 . S
H42 O68 0.856 . S
H43 O71 0.854 . S
H44 C79 0.930 . S
H45 C80 0.930 1_655 S
H46 C82 0.930 . S
H47 C83 0.930 . S
H48 C85 0.931 . S
H49 C86 0.930 . S
H50 C88 0.930 . S
H51 C89 0.929 . S
H52 C91 0.930 . S
H53 C92 0.931 . S
H54 C94 0.930 . S
H55 C95 0.929 . S
H56 C97 0.931 . S
H57 C98 0.930 . S
H58 C100 0.930 . S
H59 C101 0.932 . S
H60 C103 0.930 1_655 S
H61 C104 0.929 1_655 S
H62 C106 0.931 . S
H63 C107 0.930 . S
H64 C109 0.942 . S
H65 C110 0.931 . S
H66 C112 0.930 . S
H67 C113 0.929 . S
O68 H42 0.856 . S
O68 C114 1.300 . S
O69 C114 1.209 . S
O70 C115 1.199 . S
O71 H43 0.854 . S
O71 C115 1.297 . S
C72 C73 1.404 . S
C72 C77 1.397 . S
C72 C78 1.492 . S
C73 C72 1.404 . S
C73 C74 1.396 . S
C73 C84 1.492 . S
C74 C73 1.396 . S
C74 C75 1.397 . S
C74 C90 1.509 . S
C75 C74 1.397 . S
C75 C76 1.412 . S
C75 C96 1.485 . S
C76 C75 1.412 . S
C76 C77 1.388 . S
C76 C102 1.490 . S
C77 C72 1.397 . S
C77 C76 1.388 . S
C77 C108 1.519 . S
C78 C72 1.492 . S
C78 C79 1.363 . S
C78 C83 1.390 . S
C79 H44 0.930 . S
C79 C78 1.363 . S
C79 C80 1.372 . S
C80 H45 0.930 1_455 S
C80 C79 1.372 . S
C80 C81 1.383 . S
C81 C80 1.383 . S
C81 C82 1.395 . S
C82 H46 0.930 . S
C82 C81 1.395 . S
C82 C83 1.362 . S
C83 H47 0.930 . S
C83 C78 1.390 . S
C83 C82 1.362 . S
C84 C73 1.492 . S
C84 C85 1.377 . S
C84 C89 1.397 . S
C85 H48 0.931 . S
C85 C84 1.377 . S
C85 C86 1.376 . S
C86 H49 0.930 . S
C86 C85 1.376 . S
C86 C87 1.376 . S
C87 C86 1.376 . S
C87 C88 1.378 . S
C87 C114 1.486 . S
C88 H50 0.930 . S
C88 C87 1.378 . S
C88 C89 1.376 . S
C89 H51 0.929 . S
C89 C84 1.397 . S
C89 C88 1.376 . S
C90 C74 1.509 . S
C90 C91 1.391 . S
C90 C95 1.386 . S
C91 H52 0.930 . S
C91 C90 1.391 . S
C91 C92 1.375 . S
C92 H53 0.931 . S
C92 C91 1.375 . S
C92 C93 1.375 . S
C93 C92 1.375 . S
C93 C94 1.361 . S
C94 H54 0.930 . S
C94 C93 1.361 . S
C94 C95 1.399 . S
C95 H55 0.929 . S
C95 C90 1.386 . S
C95 C94 1.399 . S
C96 C75 1.485 . S
C96 C97 1.394 . S
C96 C101 1.360 . S
C97 H56 0.931 . S
C97 C96 1.394 . S
C97 C98 1.372 . S
C98 H57 0.930 . S
C98 C97 1.372 . S
C98 C99 1.397 . S
C99 C98 1.397 . S
C99 C100 1.390 . S
C99 C115 1.476 . S
C100 H58 0.930 . S
C100 C99 1.390 . S
C100 C101 1.366 . S
C101 H59 0.932 . S
C101 C96 1.360 . S
C101 C100 1.366 . S
C102 C76 1.490 . S
C102 C103 1.380 . S
C102 C107 1.386 . S
C103 H60 0.930 1_455 S
C103 C102 1.380 . S
C103 C104 1.381 . S
C104 H61 0.929 1_455 S
C104 C103 1.381 . S
C104 C105 1.371 . S
C105 C104 1.371 . S
C105 C106 1.380 . S
C106 H62 0.931 . S
C106 C105 1.380 . S
C106 C107 1.387 . S
C107 H63 0.930 . S
C107 C102 1.386 . S
C107 C106 1.387 . S
C108 C77 1.519 . S
C108 C109 1.377 . S
C108 C113 1.361 . S
C109 H64 0.942 . S
C109 C108 1.377 . S
C109 C110 1.386 . S
C110 H65 0.931 . S
C110 C109 1.386 . S
C110 C111 1.363 . S
C111 C110 1.363 . S
C111 C112 1.385 . S
C112 H66 0.930 . S
C112 C111 1.385 . S
C112 C113 1.396 . S
C113 H67 0.929 . S
C113 C108 1.361 . S
C113 C112 1.396 . S
C114 O68 1.300 . S
C114 O69 1.209 . S
C114 C87 1.486 . S
C115 O70 1.199 . S
C115 O71 1.297 . S
C115 C99 1.476 . S
H116 O142 0.856 . S
H117 O145 0.854 . S
H118 C153 0.930 . S
H119 C154 0.930 . S
H120 C156 0.930 . S
H121 C157 0.930 . S
H122 C159 0.931 1_565 S
H123 C160 0.930 1_565 S
H124 C162 0.930 . S
H125 C163 0.929 . S
H126 C165 0.930 1_565 S
H127 C166 0.931 1_565 S
H128 C168 0.930 . S
H129 C169 0.929 . S
H130 C171 0.931 1_565 S
H131 C172 0.930 1_565 S
H132 C174 0.930 . S
H133 C175 0.932 . S
H134 C177 0.930 . S
H135 C178 0.929 . S
H136 C180 0.931 . S
H137 C181 0.930 . S
H138 C183 0.929 1_565 S
H139 C184 0.931 1_565 S
H140 C186 0.930 . S
H141 C187 0.929 . S
O142 H116 0.856 . S
O142 C188 1.300 . S
O143 C188 1.209 . S
O144 C189 1.199 . S
O145 H117 0.854 . S
O145 C189 1.297 . S
C146 C147 1.404 . S
C146 C151 1.397 . S
C146 C152 1.492 . S
C147 C146 1.404 . S
C147 C148 1.396 . S
C147 C158 1.492 . S
C148 C147 1.396 . S
C148 C149 1.397 . S
C148 C164 1.509 . S
C149 C148 1.397 . S
C149 C150 1.412 . S
C149 C170 1.485 . S
C150 C149 1.412 . S
C150 C151 1.388 . S
C150 C176 1.490 . S
C151 C146 1.397 . S
C151 C150 1.388 . S
C151 C182 1.519 . S
C152 C146 1.492 . S
C152 C153 1.363 1_545 S
C152 C157 1.390 . S
C153 H118 0.930 . S
C153 C152 1.363 1_565 S
C153 C154 1.372 . S
C154 H119 0.930 . S
C154 C153 1.372 . S
C154 C155 1.383 1_565 S
C155 C154 1.383 1_545 S
C155 C156 1.395 . S
C156 H120 0.930 . S
C156 C155 1.395 . S
C156 C157 1.362 . S
C157 H121 0.930 . S
C157 C152 1.390 . S
C157 C156 1.362 . S
C158 C147 1.492 . S
C158 C159 1.377 . S
C158 C163 1.397 . S
C159 H122 0.931 1_545 S
C159 C158 1.377 . S
C159 C160 1.376 . S
C160 H123 0.930 1_545 S
C160 C159 1.376 . S
C160 C161 1.376 . S
C161 C160 1.376 . S
C161 C162 1.378 . S
C161 C188 1.486 . S
C162 H124 0.930 . S
C162 C161 1.378 . S
C162 C163 1.376 . S
C163 H125 0.929 . S
C163 C158 1.397 . S
C163 C162 1.376 . S
C164 C148 1.509 . S
C164 C165 1.391 . S
C164 C169 1.386 . S
C165 H126 0.930 1_545 S
C165 C164 1.391 . S
C165 C166 1.375 . S
C166 H127 0.931 1_545 S
C166 C165 1.375 . S
C166 C167 1.375 . S
C167 C166 1.375 . S
C167 C168 1.361 . S
C168 H128 0.930 . S
C168 C167 1.361 . S
C168 C169 1.399 . S
C169 H129 0.929 . S
C169 C164 1.386 . S
C169 C168 1.399 . S
C170 C149 1.485 . S
C170 C171 1.394 . S
C170 C175 1.360 . S
C171 H130 0.931 1_545 S
C171 C170 1.394 . S
C171 C172 1.372 . S
C172 H131 0.930 1_545 S
C172 C171 1.372 . S
C172 C173 1.397 . S
C173 C172 1.397 . S
C173 C174 1.390 . S
C173 C189 1.476 . S
C174 H132 0.930 . S
C174 C173 1.390 . S
C174 C175 1.366 . S
C175 H133 0.932 . S
C175 C170 1.360 . S
C175 C174 1.366 . S
C176 C150 1.490 . S
C176 C177 1.380 1_545 S
C176 C181 1.386 . S
C177 H134 0.930 . S
C177 C176 1.380 1_565 S
C177 C178 1.381 . S
C178 H135 0.929 . S
C178 C177 1.381 . S
C178 C179 1.371 1_565 S
C179 C178 1.371 1_545 S
C179 C180 1.380 . S
C180 H136 0.931 . S
C180 C179 1.380 . S
C180 C181 1.387 . S
C181 H137 0.930 . S
C181 C176 1.386 . S
C181 C180 1.387 . S
C182 C151 1.519 . S
C182 C183 1.377 . S
C182 C187 1.361 . S
C183 H138 0.929 1_545 S
C183 C182 1.377 . S
C183 C184 1.386 . S
C184 H139 0.931 1_545 S
C184 C183 1.386 . S
C184 C185 1.363 . S
C185 C184 1.363 . S
C185 C186 1.385 . S
C186 H140 0.930 . S
C186 C185 1.385 . S
C186 C187 1.396 . S
C187 H141 0.929 . S
C187 C182 1.361 . S
C187 C186 1.396 . S
C188 O142 1.300 . S
C188 O143 1.209 . S
C188 C161 1.486 . S
C189 O144 1.199 . S
C189 O145 1.297 . S
C189 C173 1.476 . S
H190 O216 0.856 . S
H191 O219 0.854 . S
H192 C227 0.930 . S
H193 C228 0.930 . S
H194 C230 0.930 . S
H195 C231 0.930 . S
H196 C233 0.931 . S
H197 C234 0.930 . S
H198 C236 0.930 . S
H199 C237 0.929 . S
H200 C239 0.930 . S
H201 C240 0.931 . S
H202 C242 0.930 . S
H203 C243 0.929 . S
H204 C245 0.931 . S
H205 C246 0.930 . S
H206 C248 0.930 . S
H207 C249 0.932 . S
H208 C251 0.930 . S
H209 C252 0.929 . S
H210 C254 0.931 . S
H211 C255 0.930 . S
H212 C257 0.929 . S
H213 C258 0.931 . S
H214 C260 0.930 . S
H215 C261 0.929 . S
O216 H190 0.856 . S
O216 C262 1.317 . S
O217 C262 1.218 . S
O218 C263 1.199 . S
O219 H191 0.854 . S
O219 C263 1.297 . S
C220 C221 1.404 . S
C220 C225 1.397 . S
C220 C226 1.492 . S
C221 C220 1.404 . S
C221 C222 1.396 . S
C221 C232 1.492 . S
C222 C221 1.396 . S
C222 C223 1.397 . S
C222 C238 1.509 . S
C223 C222 1.397 . S
C223 C224 1.412 . S
C223 C244 1.485 . S
C224 C223 1.412 . S
C224 C225 1.388 . S
C224 C250 1.490 . S
C225 C220 1.397 . S
C225 C224 1.388 . S
C225 C256 1.519 . S
C226 C220 1.492 . S
C226 C227 1.363 . S
C226 C231 1.390 . S
C227 H192 0.930 . S
C227 C226 1.363 . S
C227 C228 1.372 . S
C228 H193 0.930 . S
C228 C227 1.372 . S
C228 C229 1.383 . S
C229 C228 1.383 . S
C229 C230 1.395 . S
C230 H194 0.930 . S
C230 C229 1.395 . S
C230 C231 1.362 . S
C231 H195 0.930 . S
C231 C226 1.390 . S
C231 C230 1.362 . S
C232 C221 1.492 . S
C232 C233 1.377 . S
C232 C237 1.397 . S
C233 H196 0.931 . S
C233 C232 1.377 . S
C233 C234 1.376 . S
C234 H197 0.930 . S
C234 C233 1.376 . S
C234 C235 1.376 . S
C235 C234 1.376 . S
C235 C236 1.378 . S
C235 C262 1.459 1_556 S
C236 H198 0.930 . S
C236 C235 1.378 . S
C236 C237 1.376 . S
C237 H199 0.929 . S
C237 C232 1.397 . S
C237 C236 1.376 . S
C238 C222 1.509 . S
C238 C239 1.391 . S
C238 C243 1.386 . S
C239 H200 0.930 . S
C239 C238 1.391 . S
C239 C240 1.375 . S
C240 H201 0.931 . S
C240 C239 1.375 . S
C240 C241 1.375 . S
C241 C240 1.375 . S
C241 C242 1.361 . S
C242 H202 0.930 . S
C242 C241 1.361 . S
C242 C243 1.399 . S
C243 H203 0.929 . S
C243 C238 1.386 . S
C243 C242 1.399 . S
C244 C223 1.485 . S
C244 C245 1.394 . S
C244 C249 1.360 . S
C245 H204 0.931 . S
C245 C244 1.394 . S
C245 C246 1.372 . S
C246 H205 0.930 . S
C246 C245 1.372 . S
C246 C247 1.397 . S
C247 C246 1.397 . S
C247 C248 1.390 . S
C247 C263 1.476 . S
C248 H206 0.930 . S
C248 C247 1.390 . S
C248 C249 1.366 . S
C249 H207 0.932 . S
C249 C244 1.360 . S
C249 C248 1.366 . S
C250 C224 1.490 . S
C250 C251 1.380 . S
C250 C255 1.386 . S
C251 H208 0.930 . S
C251 C250 1.380 . S
C251 C252 1.381 . S
C252 H209 0.929 . S
C252 C251 1.381 . S
C252 C253 1.371 . S
C253 C252 1.371 . S
C253 C254 1.380 . S
C254 H210 0.931 . S
C254 C253 1.380 . S
C254 C255 1.387 . S
C255 H211 0.930 . S
C255 C250 1.386 . S
C255 C254 1.387 . S
C256 C225 1.519 . S
C256 C257 1.377 . S
C256 C261 1.361 . S
C257 H212 0.929 . S
C257 C256 1.377 . S
C257 C258 1.386 . S
C258 H213 0.931 . S
C258 C257 1.386 . S
C258 C259 1.363 . S
C259 C258 1.363 . S
C259 C260 1.385 . S
C260 H214 0.930 . S
C260 C259 1.385 . S
C260 C261 1.396 . S
C261 H215 0.929 . S
C261 C256 1.361 . S
C261 C260 1.396 . S
C262 O216 1.317 . S
C262 O217 1.218 . S
C262 C235 1.459 1_554 S
C263 O218 1.199 . S
C263 O219 1.297 . S
C263 C247 1.476 . S
C264 C265 1.386 . S
C264 C266 1.383 . S
C264 H280 0.951 . S
C265 C264 1.386 . S
C265 C269 1.383 . S
C266 C264 1.383 . S
C266 C267 1.402 . S
C266 H281 0.951 . S
C267 C266 1.402 . S
C267 C268 1.375 . S
C267 C270 1.481 . S
C268 C267 1.375 . S
C268 C269 1.367 . S
C268 H282 0.951 . S
C269 C265 1.383 . S
C269 C268 1.367 . S
C269 H283 0.950 . S
C270 C267 1.481 . S
C270 C271 1.297 . S
C270 H284 0.950 . S
C271 C270 1.297 . S
C271 C272 1.479 . S
C271 H285 0.950 . S
C272 C271 1.479 . S
C272 C273 1.375 . S
C272 C278 1.404 . S
C273 C272 1.375 . S
C273 C274 1.369 . S
C273 H286 0.950 . S
C274 C273 1.369 . S
C274 C275 1.392 . S
C274 H287 0.951 . S
C275 C274 1.392 . S
C275 C277 1.384 . S
H276 C278 0.949 . S
C277 C275 1.384 . S
C277 C278 1.385 . S
C277 H279 0.950 . S
C278 C272 1.404 . S
C278 H276 0.949 . S
C278 C277 1.385 . S
H279 C277 0.950 . S
H280 C264 0.951 . S
H281 C266 0.951 . S
H282 C268 0.951 . S
H283 C269 0.950 . S
H284 C270 0.950 . S
H285 C271 0.950 . S
H286 C273 0.950 . S
H287 C274 0.951 . S
C288 C289 1.386 . S
C288 C290 1.383 . S
C288 H304 0.951 . S
C289 C288 1.386 . S
C289 C293 1.383 1_545 S
C290 C288 1.383 . S
C290 C291 1.402 1_545 S
C290 H305 0.951 . S
C291 C290 1.402 1_565 S
C291 C292 1.375 . S
C291 C294 1.481 . S
C292 C291 1.375 . S
C292 C293 1.367 . S
C292 H306 0.951 . S
C293 C289 1.383 1_565 S
C293 C292 1.367 . S
C293 H307 0.950 . S
C294 C291 1.481 . S
C294 C295 1.297 1_565 S
C294 H308 0.950 . S
C295 C294 1.297 1_545 S
C295 C296 1.479 . S
C295 H309 0.950 . S
C296 C295 1.479 . S
C296 C297 1.375 . S
C296 C302 1.404 1_545 S
C297 C296 1.375 . S
C297 C298 1.369 . S
C297 H310 0.950 . S
C298 C297 1.369 . S
C298 C299 1.392 . S
C298 H311 0.951 . S
C299 C298 1.392 . S
C299 C301 1.384 1_545 S
H300 C302 0.949 . S
C301 C299 1.384 1_565 S
C301 C302 1.385 . S
C301 H303 0.950 . S
C302 C296 1.404 1_565 S
C302 H300 0.949 . S
C302 C301 1.385 . S
H303 C301 0.950 . S
H304 C288 0.951 . S
H305 C290 0.951 . S
H306 C292 0.951 . S
H307 C293 0.950 . S
H308 C294 0.950 . S
H309 C295 0.950 . S
H310 C297 0.950 . S
H311 C298 0.951 . S
C312 C313 1.386 1_655 S
C312 C314 1.383 . S
C312 H328 0.951 . S
C313 C312 1.386 1_455 S
C313 C317 1.383 1_455 S
C314 C312 1.383 . S
C314 C315 1.402 . S
C314 H329 0.951 . S
C315 C314 1.402 . S
C315 C316 1.375 . S
C315 C318 1.481 . S
C316 C315 1.375 . S
C316 C317 1.367 . S
C316 H330 0.951 . S
C317 C313 1.383 1_655 S
C317 C316 1.367 . S
C317 H331 0.950 1_655 S
C318 C315 1.481 . S
C318 C319 1.297 . S
C318 H332 0.950 . S
C319 C318 1.297 . S
C319 C320 1.479 . S
C319 H333 0.950 . S
C320 C319 1.479 . S
C320 C321 1.375 . S
C320 C326 1.404 . S
C321 C320 1.375 . S
C321 C322 1.369 . S
C321 H334 0.950 . S
C322 C321 1.369 . S
C322 C323 1.392 . S
C322 H335 0.951 . S
C323 C322 1.392 . S
C323 C325 1.384 . S
H324 C326 0.949 . S
C325 C323 1.384 . S
C325 C326 1.385 . S
C325 H327 0.950 . S
C326 C320 1.404 . S
C326 H324 0.949 . S
C326 C325 1.385 . S
H327 C325 0.950 . S
H328 C312 0.951 . S
H329 C314 0.951 . S
H330 C316 0.951 . S
H331 C317 0.950 1_455 S
H332 C318 0.950 . S
H333 C319 0.950 . S
H334 C321 0.950 . S
H335 C322 0.951 . S
C336 C337 1.386 . S
C336 C338 1.383 . S
C336 H352 0.951 . S
C337 C336 1.386 . S
C337 C341 1.383 . S
C338 C336 1.383 . S
C338 C339 1.402 . S
C338 H353 0.951 . S
C339 C338 1.402 . S
C339 C340 1.375 . S
C339 C342 1.481 . S
C340 C339 1.375 . S
C340 C341 1.367 . S
C340 H354 0.951 . S
C341 C337 1.383 . S
C341 C340 1.367 . S
C341 H355 0.950 . S
C342 C339 1.481 . S
C342 C343 1.297 . S
C342 H356 0.950 . S
C343 C342 1.297 . S
C343 C344 1.479 . S
C343 H357 0.950 . S
C344 C343 1.479 . S
C344 C345 1.375 . S
C344 C350 1.404 . S
C345 C344 1.375 . S
C345 C346 1.369 . S
C345 H358 0.950 . S
C346 C345 1.369 . S
C346 C347 1.392 . S
C346 H359 0.951 . S
C347 C346 1.392 . S
C347 C349 1.384 . S
H348 C350 0.949 . S
C349 C347 1.384 . S
C349 C350 1.385 . S
C349 H351 0.950 . S
C350 C344 1.404 . S
C350 H348 0.949 . S
C350 C349 1.385 . S
H351 C349 0.950 . S
H352 C336 0.951 . S
H353 C338 0.951 . S
H354 C340 0.951 . S
H355 C341 0.950 . S
H356 C342 0.950 . S
H357 C343 0.950 . S
H358 C345 0.950 . S
H359 C346 0.951 . S
C360 C361 1.386 . S
C360 C362 1.383 . S
C360 H376 0.951 . S
C361 C360 1.386 . S
C361 C365 1.383 . S
C362 C360 1.383 . S
C362 C363 1.402 . S
C362 H377 0.951 . S
C363 C362 1.402 . S
C363 C364 1.375 . S
C363 C366 1.481 . S
C364 C363 1.375 . S
C364 C365 1.367 . S
C364 H378 0.951 . S
C365 C361 1.383 . S
C365 C364 1.367 . S
C365 H379 0.950 . S
C366 C363 1.481 . S
C366 C367 1.297 . S
C366 H380 0.950 . S
C367 C366 1.297 . S
C367 C368 1.479 . S
C367 H381 0.950 . S
C368 C367 1.479 . S
C368 C369 1.375 . S
C368 C374 1.404 . S
C369 C368 1.375 . S
C369 C370 1.369 . S
C369 H382 0.950 . S
C370 C369 1.369 . S
C370 C371 1.392 . S
C370 H383 0.951 . S
C371 C370 1.392 . S
C371 C373 1.384 . S
H372 C374 0.949 . S
C373 C371 1.384 . S
C373 C374 1.385 . S
C373 H375 0.950 . S
C374 C368 1.404 . S
C374 H372 0.949 . S
C374 C373 1.385 . S
H375 C373 0.950 . S
H376 C360 0.951 . S
H377 C362 0.951 . S
H378 C364 0.951 . S
H379 C365 0.950 . S
H380 C366 0.950 . S
H381 C367 0.950 . S
H382 C369 0.950 . S
H383 C370 0.951 . S
C384 C385 1.386 . S
C384 C386 1.383 . S
C384 H400 0.951 . S
C385 C384 1.386 . S
C385 C389 1.383 . S
C386 C384 1.383 . S
C386 C387 1.402 . S
C386 H401 0.951 . S
C387 C386 1.402 . S
C387 C388 1.375 . S
C387 C390 1.481 . S
C388 C387 1.375 . S
C388 C389 1.367 . S
C388 H402 0.951 . S
C389 C385 1.383 . S
C389 C388 1.367 . S
C389 H403 0.950 . S
C390 C387 1.481 . S
C390 C391 1.297 . S
C390 H404 0.950 . S
C391 C390 1.297 . S
C391 C392 1.479 . S
C391 H405 0.950 . S
C392 C391 1.479 . S
C392 C393 1.375 . S
C392 C398 1.404 . S
C393 C392 1.375 . S
C393 C394 1.369 . S
C393 H406 0.950 . S
C394 C393 1.369 . S
C394 C395 1.392 . S
C394 H407 0.951 . S
C395 C394 1.392 . S
C395 C397 1.384 . S
H396 C398 0.949 . S
C397 C395 1.384 . S
C397 C398 1.385 . S
C397 H399 0.950 . S
C398 C392 1.404 . S
C398 H396 0.949 . S
C398 C397 1.385 . S
H399 C397 0.950 . S
H400 C384 0.951 . S
H401 C386 0.951 . S
H402 C388 0.951 . S
H403 C389 0.950 . S
H404 C390 0.950 . S
H405 C391 0.950 . S
H406 C393 0.950 . S
H407 C394 0.951 . S
C408 C409 1.386 . S
C408 C410 1.383 . S
C408 H424 0.951 . S
C409 C408 1.386 . S
C409 C413 1.383 . S
C410 C408 1.383 . S
C410 C411 1.402 . S
C410 H425 0.951 . S
C411 C410 1.402 . S
C411 C412 1.375 . S
C411 C414 1.481 . S
C412 C411 1.375 . S
C412 C413 1.367 . S
C412 H426 0.951 . S
C413 C409 1.383 . S
C413 C412 1.367 . S
C413 H427 0.950 1_655 S
C414 C411 1.481 . S
C414 C415 1.297 . S
C414 H428 0.950 . S
C415 C414 1.297 . S
C415 C416 1.479 . S
C415 H429 0.950 . S
C416 C415 1.479 . S
C416 C417 1.375 . S
C416 C422 1.404 . S
C417 C416 1.375 . S
C417 C418 1.369 . S
C417 H430 0.950 . S
C418 C417 1.369 . S
C418 C419 1.392 . S
C418 H431 0.951 . S
C419 C418 1.392 . S
C419 C421 1.384 . S
H420 C422 0.949 . S
C421 C419 1.384 . S
C421 C422 1.385 . S
C421 H423 0.950 . S
C422 C416 1.404 . S
C422 H420 0.949 . S
C422 C421 1.385 . S
H423 C421 0.950 . S
H424 C408 0.951 . S
H425 C410 0.951 . S
H426 C412 0.951 . S
H427 C413 0.950 1_455 S
H428 C414 0.950 . S
H429 C415 0.950 . S
H430 C417 0.950 . S
H431 C418 0.951 . S
C432 C433 1.386 . S
C432 C434 1.383 1_455 S
C432 H448 0.951 . S
C433 C432 1.386 . S
C433 C437 1.383 1_455 S
C434 C432 1.383 1_655 S
C434 C435 1.402 . S
C434 H449 0.951 1_654 S
C435 C434 1.402 . S
C435 C436 1.375 . S
C435 C438 1.466 1_554 S
C436 C435 1.375 . S
C436 C437 1.367 . S
C436 H450 0.951 . S
C437 C433 1.383 1_655 S
C437 C436 1.367 . S
C437 H451 0.950 . S
C438 C435 1.466 1_556 S
C438 C439 1.319 . S
C438 H452 0.943 1_556 S
C439 C438 1.319 . S
C439 C440 1.479 . S
C439 H453 0.950 . S
C440 C439 1.479 . S
C440 C441 1.375 . S
C440 C446 1.404 . S
C441 C440 1.375 . S
C441 C442 1.369 . S
C441 H454 0.950 . S
C442 C441 1.369 . S
C442 C443 1.392 . S
C442 H455 0.951 . S
C443 C442 1.392 . S
C443 C445 1.384 . S
H444 C446 0.949 . S
C445 C443 1.384 . S
C445 C446 1.385 . S
C445 H447 0.950 . S
C446 C440 1.404 . S
C446 H444 0.949 . S
C446 C445 1.385 . S
H447 C445 0.950 . S
H448 C432 0.951 . S
H449 C434 0.951 1_456 S
H450 C436 0.951 . S
H451 C437 0.950 . S
H452 C438 0.943 1_554 S
H453 C439 0.950 . S
H454 C441 0.950 . S
H455 C442 0.951 . S
C456 C457 1.386 1_655 S
C456 C458 1.383 . S
C456 H472 0.951 . S
C457 C456 1.386 1_455 S
C457 C461 1.383 . S
C458 C456 1.383 . S
C458 C459 1.402 1_655 S
C458 H473 0.951 . S
C459 C458 1.402 1_455 S
C459 C460 1.375 . S
C459 C462 1.481 . S
C460 C459 1.375 . S
C460 C461 1.367 . S
C460 H474 0.951 . S
C461 C457 1.383 . S
C461 C460 1.367 . S
C461 H475 0.950 . S
C462 C459 1.481 . S
C462 C463 1.297 . S
C462 H476 0.950 . S
C463 C462 1.297 . S
C463 C464 1.479 . S
C463 H477 0.950 1_455 S
C464 C463 1.479 . S
C464 C465 1.375 1_455 S
C464 C470 1.404 . S
C465 C464 1.375 1_655 S
C465 C466 1.369 . S
C465 H478 0.950 . S
C466 C465 1.369 . S
C466 C467 1.392 1_655 S
C466 H479 0.951 . S
C467 C466 1.392 1_455 S
C467 C469 1.384 . S
H468 C470 0.949 . S
C469 C467 1.384 . S
C469 C470 1.385 . S
C469 H471 0.950 . S
C470 C464 1.404 . S
C470 H468 0.949 . S
C470 C469 1.385 . S
H471 C469 0.950 . S
H472 C456 0.951 . S
H473 C458 0.951 . S
H474 C460 0.951 . S
H475 C461 0.950 . S
H476 C462 0.950 . S
H477 C463 0.950 1_655 S
H478 C465 0.950 . S
H479 C466 0.951 . S
C480 C481 1.386 . S
C480 C482 1.383 . S
C480 H496 0.951 . S
C481 C480 1.386 . S
C481 C485 1.383 1_545 S
C482 C480 1.383 . S
C482 C483 1.393 1_545 S
C482 H497 0.951 . S
C483 C482 1.393 1_565 S
C483 C484 1.379 . S
C483 C486 1.485 . S
C484 C483 1.379 . S
C484 C485 1.367 . S
C484 H498 0.951 . S
C485 C481 1.383 1_565 S
C485 C484 1.367 . S
C485 H499 0.950 . S
C486 C483 1.485 . S
C486 C487 1.297 1_565 S
C486 H500 0.950 . S
C487 C486 1.297 1_545 S
C487 C488 1.479 . S
C487 H501 0.950 . S
C488 C487 1.479 . S
C488 C489 1.375 . S
C488 C494 1.404 1_545 S
C489 C488 1.375 . S
C489 C490 1.369 . S
C489 H502 0.950 . S
C490 C489 1.369 . S
C490 C491 1.392 . S
C490 H503 0.951 . S
C491 C490 1.392 . S
C491 C493 1.384 1_545 S
H492 C494 0.949 . S
C493 C491 1.384 1_565 S
C493 C494 1.385 . S
C493 H495 0.950 . S
C494 C488 1.404 1_565 S
C494 H492 0.949 . S
C494 C493 1.385 . S
H495 C493 0.950 . S
H496 C480 0.951 . S
H497 C482 0.951 . S
H498 C484 0.951 . S
H499 C485 0.950 . S
H500 C486 0.950 . S
H501 C487 0.950 . S
H502 C489 0.950 . S
H503 C490 0.951 . S
C504 C505 1.386 . S
C504 C506 1.383 . S
C504 H520 0.951 . S
C505 C504 1.386 . S
C505 C509 1.383 . S
C506 C504 1.383 . S
C506 C507 1.402 . S
C506 H521 0.951 . S
C507 C506 1.402 . S
C507 C508 1.375 . S
C507 C510 1.481 . S
C508 C507 1.375 . S
C508 C509 1.367 . S
C508 H522 0.951 . S
C509 C505 1.383 . S
C509 C508 1.367 . S
C509 H523 0.950 . S
C510 C507 1.481 . S
C510 C511 1.297 1_554 S
C510 H524 0.950 . S
C511 C510 1.297 1_556 S
C511 C512 1.479 . S
C511 H525 0.969 . S
C512 C511 1.479 . S
C512 C513 1.375 . S
C512 C518 1.404 . S
C513 C512 1.375 . S
C513 C514 1.369 . S
C513 H526 0.950 . S
C514 C513 1.369 . S
C514 C515 1.392 . S
C514 H527 0.951 . S
C515 C514 1.392 . S
C515 C517 1.384 . S
H516 C518 0.949 . S
C517 C515 1.384 . S
C517 C518 1.385 . S
C517 H519 0.950 . S
C518 C512 1.404 . S
C518 H516 0.949 . S
C518 C517 1.385 . S
H519 C517 0.950 . S
H520 C504 0.951 . S
H521 C506 0.951 . S
H522 C508 0.951 . S
H523 C509 0.950 . S
H524 C510 0.950 . S
H525 C511 0.969 . S
H526 C513 0.950 . S
H527 C514 0.951 . S
C528 C529 1.386 . S
C528 C530 1.383 . S
C528 H544 0.951 . S
C529 C528 1.386 . S
C529 C533 1.383 . S
C530 C528 1.383 . S
C530 C531 1.402 . S
C530 H545 0.951 . S
C531 C530 1.402 . S
C531 C532 1.375 . S
C531 C534 1.481 . S
C532 C531 1.375 . S
C532 C533 1.367 . S
C532 H546 0.951 . S
C533 C529 1.383 . S
C533 C532 1.367 . S
C533 H547 0.950 . S
C534 C531 1.481 . S
C534 C535 1.297 . S
C534 H548 0.950 . S
C535 C534 1.297 . S
C535 C536 1.479 . S
C535 H549 0.950 . S
C536 C535 1.479 . S
C536 C537 1.375 . S
C536 C542 1.404 . S
C537 C536 1.375 . S
C537 C538 1.369 . S
C537 H550 0.950 . S
C538 C537 1.369 . S
C538 C539 1.392 . S
C538 H551 0.951 . S
C539 C538 1.392 . S
C539 C541 1.384 . S
H540 C542 0.949 . S
C541 C539 1.384 . S
C541 C542 1.385 . S
C541 H543 0.950 . S
C542 C536 1.404 . S
C542 H540 0.949 . S
C542 C541 1.385 . S
H543 C541 0.950 . S
H544 C528 0.951 . S
H545 C530 0.951 . S
H546 C532 0.951 . S
H547 C533 0.950 . S
H548 C534 0.950 . S
H549 C535 0.950 . S
H550 C537 0.950 . S
H551 C538 0.951 . S
C275 C81 1.242 . S
C265 C11 1.197 . S
C289 C25 1.277 . S
C299 C155 1.153 . S
C313 C41 1.989 . S
C323 C259 2.089 . S
C337 C7 0.625 . S
C347 C93 0.627 . S
C371 C167 0.635 . S
C361 C21 0.671 . S
C385 C36 1.405 . S
C395 C253 1.394 . S
C419 C185 2.063 . S
C409 C39 2.036 1_655 S
C433 C8 1.313 1_565 S
C443 C229 1.286 . S
C467 C105 1.354 . S
C457 C22 1.451 . S
C491 C179 1.375 . S
C481 C35 1.390 . S
C515 C241 0.715 . S
C505 C13 0.756 . S
C529 C27 2.051 . S
C539 C111 2.162 . S
