# Generated by pormake.
# Topology anh, (6,3)-cn, num edge types: 1
# Building blocks:
#     Node 0, Type 0, BuildingBlock: BETFEN_clean_sbu_0, # of connection points: 6
#     Node 1, Type 0, BuildingBlock: BETFEN_clean_sbu_0, # of connection points: 6
#     Node 2, Type 0, BuildingBlock: BETFEN_clean_sbu_0, # of connection points: 6
#     Node 3, Type 1, BuildingBlock: KAKCAD_clean_linker_0, # of connection points: 3
#     Node 4, Type 1, BuildingBlock: KAKCAD_clean_linker_0, # of connection points: 3
#     Node 5, Type 1, BuildingBlock: KAKCAD_clean_linker_0, # of connection points: 3
#     Node 6, Type 1, BuildingBlock: KAKCAD_clean_linker_0, # of connection points: 3
#     Node 7, Type 1, BuildingBlock: KAKCAD_clean_linker_0, # of connection points: 3
#     Node 8, Type 1, BuildingBlock: KAKCAD_clean_linker_0, # of connection points: 3
#     Edge 9, Type (0, 1), BuildingBlock: AJUNOK_clean_linker_0, # of connection points: 2
#     Edge 10, Type (0, 1), BuildingBlock: AJUNOK_clean_linker_0, # of connection points: 2
#     Edge 11, Type (0, 1), BuildingBlock: AJUNOK_clean_linker_0, # of connection points: 2
#     Edge 12, Type (0, 1), BuildingBlock: AJUNOK_clean_linker_0, # of connection points: 2
#     Edge 13, Type (0, 1), BuildingBlock: AJUNOK_clean_linker_0, # of connection points: 2
#     Edge 14, Type (0, 1), BuildingBlock: AJUNOK_clean_linker_0, # of connection points: 2
#     Edge 15, Type (0, 1), BuildingBlock: AJUNOK_clean_linker_0, # of connection points: 2
#     Edge 16, Type (0, 1), BuildingBlock: AJUNOK_clean_linker_0, # of connection points: 2
#     Edge 17, Type (0, 1), BuildingBlock: AJUNOK_clean_linker_0, # of connection points: 2
#     Edge 18, Type (0, 1), BuildingBlock: AJUNOK_clean_linker_0, # of connection points: 2
#     Edge 19, Type (0, 1), BuildingBlock: AJUNOK_clean_linker_0, # of connection points: 2
#     Edge 20, Type (0, 1), BuildingBlock: AJUNOK_clean_linker_0, # of connection points: 2
#     Edge 21, Type (0, 1), BuildingBlock: AJUNOK_clean_linker_0, # of connection points: 2
#     Edge 22, Type (0, 1), BuildingBlock: AJUNOK_clean_linker_0, # of connection points: 2
#     Edge 23, Type (0, 1), BuildingBlock: AJUNOK_clean_linker_0, # of connection points: 2
#     Edge 24, Type (0, 1), BuildingBlock: AJUNOK_clean_linker_0, # of connection points: 2
#     Edge 25, Type (0, 1), BuildingBlock: AJUNOK_clean_linker_0, # of connection points: 2
#     Edge 26, Type (0, 1), BuildingBlock: AJUNOK_clean_linker_0, # of connection points: 2
# Relax obj value: 0.212
# Max RMSD: 0.223
# Mean RMSD: 0.164
data_MOF--net-anh--node1-BETFEN_clean_sbu_0--node2-KAKCAD_clean_linker_0--edge1-AJUNOK_clean_linker_0
_symmetry_space_group_name_H-M    P1
_symmetry_Int_Tables_number       1
_symmetry_cell_setting            triclinic
loop_
_symmetry_equiv_pos_as_xyz
'x, y, z'
_cell_length_a     27.817084
_cell_length_b     28.427512
_cell_length_c     53.172163
_cell_angle_alpha  90.846516
_cell_angle_beta   91.463698
_cell_angle_gamma 101.55362
loop_
_atom_site_label
_atom_site_type_symbol
_atom_site_fract_x
_atom_site_fract_y
_atom_site_fract_z
_atom_type_partial_charge
Pr0 Pr 0.08466 0.54092 0.15002 0.0
Pr1 Pr 0.10918 0.65483 0.14425 0.0
C2 C 0.05022 0.4474 0.15877 0.0
C3 C 1.00569 0.41593 0.16746 0.0
C4 C 0.99799 0.36667 0.16193 0.0
C5 C 0.95499 0.33613 0.1691 0.0
C6 C 0.91923 0.35432 0.18226 0.0
C7 C 0.92686 0.40398 0.18748 0.0
C8 C 0.96968 0.43463 0.17998 0.0
C9 C 0.10717 0.57451 0.10196 0.0
C10 C 0.99283 0.60158 0.1462 0.0
C11 C 0.14058 0.74355 0.127 0.0
C12 C 0.1806 0.78393 0.13526 0.0
C13 C 0.17082 0.82064 0.15116 0.0
C14 C 0.20926 0.85528 0.16162 0.0
C15 C 0.25822 0.85396 0.15636 0.0
C16 C 0.26786 0.81908 0.1393 0.0
C17 C 0.22949 0.78442 0.12885 0.0
C18 C 0.10683 0.63312 0.19565 0.0
C19 C 0.20047 0.59412 0.15225 0.0
O20 O 0.07648 0.47678 0.17544 0.0
O21 O 0.04601 0.46687 0.13692 0.0
O22 O 0.08034 0.59162 0.11696 0.0
O23 O 0.1226 0.53831 0.11156 0.0
O24 O 1.024 0.63964 0.13844 0.0
O25 O 1.00775 0.56272 0.15409 0.0
O26 O 0.15405 0.7055 0.11749 0.0
O27 O 0.10325 0.73289 0.14193 0.0
O28 O 0.09979 0.60394 0.17735 0.0
O29 O 0.11673 0.67669 0.18751 0.0
O30 O 0.1689 0.55587 0.15953 0.0
O31 O 0.1859 0.63224 0.14321 0.0
H32 H 1.02504 0.35187 0.15178 0.0
H33 H 0.9495 0.29834 0.16406 0.0
H34 H 0.89988 0.41906 0.1975 0.0
H35 H 0.97462 0.47283 0.18387 0.0
H36 H 0.13354 0.82175 0.15613 0.0
H37 H 0.20076 0.88259 0.17421 0.0
H38 H 0.30527 0.81746 0.13481 0.0
H39 H 0.23841 0.75708 0.11642 0.0
Pr40 Pr 0.6055 0.11266 0.5226 0.0
Pr41 Pr 0.49416 0.09345 0.51958 0.0
C42 C 0.70249 0.14489 0.51724 0.0
C43 C 0.73537 0.18926 0.50957 0.0
C44 C 0.78237 0.20242 0.52078 0.0
C45 C 0.81475 0.24349 0.51308 0.0
C46 C 0.8008 0.27187 0.49383 0.0
C47 C 0.75306 0.25935 0.48317 0.0
C48 C 0.72058 0.21844 0.491 0.0
C49 C 0.55833 0.09872 0.56837 0.0
C50 C 0.54807 0.2065 0.52182 0.0
C51 C 0.39803 1.0586 0.52596 0.0
C52 C 0.36576 1.01242 0.51932 0.0
C53 C 0.38245 0.97953 0.5035 0.0
C54 C 0.35182 0.93573 0.49686 0.0
C55 C 0.30394 0.9241 0.5059 0.0
C56 C 0.28776 0.95672 0.52224 0.0
C57 C 0.3185 1.00064 0.52888 0.0
C58 C 0.53681 0.10803 0.47303 0.0
C59 C 0.553 0.99888 0.52131 0.0
O60 O 0.67364 0.12081 0.49962 0.0
O61 O 0.68098 0.14666 0.53871 0.0
O62 O 0.54844 0.12431 0.55073 0.0
O63 O 0.59539 0.0791 0.5631 0.0
O64 O 0.5078 0.17636 0.52832 0.0
O65 O 0.58732 0.1899 0.51514 0.0
O66 O 0.4317 1.05703 0.54337 0.0
O67 O 0.41466 0.08525 0.50699 0.0
O68 O 0.551 0.08305 0.49012 0.0
O69 O 0.49837 0.12434 0.4794 0.0
O70 O 0.59512 1.02911 0.51842 0.0
O71 O 0.51167 1.01495 0.5236 0.0
H72 H 0.79419 0.18068 0.53537 0.0
H73 H 0.85079 0.25296 0.52214 0.0
H74 H 0.74121 0.28059 0.46836 0.0
H75 H 0.68417 0.20926 0.4823 0.0
H76 H 0.41905 0.98795 0.49611 0.0
H77 H 0.36523 0.91137 0.48421 0.0
H78 H 0.25138 0.94824 0.52987 0.0
H79 H 0.30534 1.02545 0.54136 0.0
Pr80 Pr 0.59317 0.55051 0.82621 0.0
Pr81 Pr 0.62465 0.65419 0.839 0.0
C82 C 0.56884 0.45895 0.80961 0.0
C83 C 0.52118 0.42576 0.80773 0.0
C84 C 0.47788 0.44255 0.81214 0.0
C85 C 0.43234 0.41114 0.81047 0.0
C86 C 0.42955 0.36243 0.80451 0.0
C87 C 0.4731 0.34559 0.80062 0.0
C88 C 0.51862 0.37709 0.80219 0.0
C89 C 0.59065 0.57198 0.8773 0.0
C90 C 0.71257 0.59748 0.83307 0.0
C91 C 0.63063 0.74419 0.85652 0.0
C92 C 0.59411 0.77408 0.85236 0.0
C93 C 0.55768 0.75984 0.83352 0.0
C94 C 0.52008 0.78497 0.83021 0.0
C95 C 0.51795 0.82475 0.84575 0.0
C96 C 0.55486 0.83962 0.86442 0.0
C97 C 0.59265 0.81407 0.86785 0.0
C98 C 0.61909 0.63373 0.78725 0.0
C99 C 0.50458 0.60706 0.83297 0.0
O100 O 0.58523 0.47092 0.83252 0.0
O101 O 0.57427 0.49545 0.79451 0.0
O102 O 0.6258 0.58881 0.86337 0.0
O103 O 0.55567 0.54303 0.86504 0.0
O104 O 0.69995 0.63294 0.84585 0.0
O105 O 0.67901 0.56533 0.82066 0.0
O106 O 0.61554 0.70652 0.87015 0.0
O107 O 0.65309 0.73427 0.8364 0.0
O108 O 0.58754 0.61598 0.80283 0.0
O109 O 0.65508 0.66385 0.79815 0.0
O110 O 0.51639 0.57032 0.82111 0.0
O111 O 0.53879 0.64056 0.84383 0.0
H112 H 0.47927 0.47995 0.81681 0.0
H113 H 0.39938 0.42489 0.81376 0.0
H114 H 0.47181 0.3082 0.79575 0.0
H115 H 0.55172 0.36354 0.79893 0.0
H116 H 0.55814 0.72894 0.82141 0.0
H117 H 0.49289 0.77357 0.81523 0.0
H118 H 0.5541 0.87053 0.87644 0.0
H119 H 0.6203 0.82516 0.88263 0.0
C120 C 0.59469 0.14901 0.35384 0.0
C121 C 0.58299 0.10637 0.36735 0.0
C122 C 0.59621 0.14755 0.32764 0.0
C123 C 0.586 0.10339 0.31436 0.0
C124 C 0.57536 1.06064 0.32793 0.0
C125 C 0.57384 1.06213 0.35419 0.0
C126 C 0.58545 0.10221 0.28642 0.0
C127 C 0.62137 0.13358 0.27344 0.0
C128 C 0.62056 0.13388 0.24707 0.0
C129 C 0.58342 0.10218 0.23349 0.0
C130 C 0.54686 1.07067 0.24616 0.0
C131 C 0.54832 1.07084 0.27263 0.0
C132 C 0.50625 1.03849 0.23194 0.0
C133 C 0.48226 1.05566 0.21146 0.0
C134 C 0.49009 0.99077 0.2393 0.0
C135 C 0.45017 0.96122 0.22683 0.0
C136 C 0.42532 0.97882 0.20685 0.0
C137 C 0.65935 0.16709 0.23402 0.0
C138 C 0.67142 0.21583 0.24135 0.0
C139 C 0.68682 0.14974 0.21551 0.0
C140 C 0.72724 0.18013 0.20542 0.0
C141 C 0.74033 0.22839 0.21347 0.0
C142 C 0.7114 0.24631 0.23102 0.0
C143 C 0.44222 1.02608 0.19902 0.0
H144 H 0.60173 0.18358 0.36355 0.0
H145 H 0.60401 0.18115 0.31775 0.0
H146 H 0.56781 1.02606 0.31824 0.0
H147 H 0.56386 1.02874 0.36412 0.0
H148 H 0.65074 0.15728 0.28389 0.0
H149 H 0.51948 1.04767 0.28253 0.0
H150 H 0.58292 0.10225 0.2131 0.0
H151 H 0.49356 0.09239 0.20549 0.0
H152 H 0.50838 0.97624 0.2547 0.0
H153 H 0.43875 0.92451 0.23282 0.0
H154 H 0.65049 0.23008 0.25546 0.0
H155 H 0.6783 0.11226 0.20964 0.0
H156 H 0.4237 1.04051 0.18366 0.0
H157 H 0.72091 0.28342 0.23749 0.0
H158 H 0.74894 0.16575 0.19173 0.0
C159 C 0.55695 0.63743 0.66656 0.0
C160 C 0.59303 0.61656 0.67839 0.0
C161 C 0.55106 0.63567 0.64035 0.0
C162 C 0.58071 0.61244 0.62551 0.0
C163 C 0.61672 0.59143 0.63738 0.0
C164 C 0.62314 0.59389 0.66359 0.0
C165 C 0.57379 0.60992 0.59773 0.0
C166 C 0.57248 0.65152 0.58424 0.0
C167 C 0.56582 0.65015 0.5579 0.0
C168 C 0.55887 0.60486 0.54499 0.0
C169 C 0.55952 0.56211 0.55859 0.0
C170 C 0.56785 0.56583 0.58483 0.0
C171 C 0.55133 0.51251 0.54679 0.0
C172 C 0.519 0.47463 0.55807 0.0
C173 C 0.58052 0.50072 0.52735 0.0
C174 C 0.57924 0.45221 0.52045 0.0
C175 C 0.54893 0.41418 0.53292 0.0
C176 C 0.56653 0.69733 0.54527 0.0
C177 C 0.52604 0.70618 0.53102 0.0
C178 C 0.60483 0.73669 0.5514 0.0
C179 C 0.60166 0.78362 0.54485 0.0
C180 C 0.56005 0.79321 0.53187 0.0
C181 C 0.52288 0.75347 0.52436 0.0
C182 C 0.51794 0.42655 0.55136 0.0
H183 H 0.5336 0.65544 0.67761 0.0
H184 H 0.52288 0.65192 0.63167 0.0
H185 H 0.64023 0.57357 0.62634 0.0
H186 H 0.65123 0.57762 0.67235 0.0
H187 H 0.57702 0.68554 0.59443 0.0
H188 H 0.56908 0.53382 0.59548 0.0
H189 H 0.553 0.60293 0.52475 0.0
H190 H 0.4958 0.48217 0.57306 0.0
H191 H 0.60601 0.52879 0.51831 0.0
H192 H 0.60262 0.44459 0.50561 0.0
H193 H 0.4957 0.67692 0.52615 0.0
H194 H 0.63656 0.73138 0.56241 0.0
H195 H 0.49408 0.39889 0.56152 0.0
H196 H 0.49082 0.75892 0.51373 0.0
H197 H 0.63111 0.81276 0.55106 0.0
C198 C 0.1382 0.6423 0.9822 0.0
C199 C 0.10959 0.60359 0.99447 0.0
C200 C 0.13781 0.64327 0.95588 0.0
C201 C 0.10816 0.60593 0.94159 0.0
C202 C 0.0788 0.56782 0.95402 0.0
C203 C 0.07982 0.56648 0.98023 0.0
C204 C 0.10848 0.60575 0.91377 0.0
C205 C 0.15289 0.61229 0.90121 0.0
C206 C 0.1533 0.60882 0.87485 0.0
C207 C 0.1086 0.60024 0.86086 0.0
C208 C 0.06378 0.5945 0.87334 0.0
C209 C 0.0642 0.59683 0.89974 0.0
C210 C 1.01588 0.58752 0.85948 0.0
C211 C 1.00587 0.62237 0.84279 0.0
C212 C 0.97754 0.54984 0.86595 0.0
C213 C 0.92955 0.54855 0.85711 0.0
C214 C 0.91885 0.58511 0.84174 0.0
C215 C 0.201 0.61192 0.86267 0.0
C216 C 0.23735 0.65371 0.86571 0.0
C217 C 0.21302 0.57096 0.85149 0.0
C218 C 0.26126 0.5712 0.84441 0.0
C219 C 0.29826 0.61281 0.8479 0.0
C220 C 0.28526 0.65424 0.85826 0.0
C221 C 0.95764 0.62139 0.83414 0.0
H222 H 0.1616 0.67108 0.99294 0.0
H223 H 0.1606 0.67312 0.94669 0.0
H224 H 0.05596 0.53843 0.94343 0.0
H225 H 0.05762 0.53627 0.98944 0.0
H226 H 0.18726 0.6181 0.912 0.0
H227 H 1.02982 0.59264 0.90945 0.0
H228 H 0.10871 0.59782 0.8405 0.0
H229 H 1.03471 0.65205 0.83776 0.0
H230 H 0.98435 0.52265 0.87888 0.0
H231 H 0.90038 0.52059 0.86359 0.0
H232 H 0.229 0.68553 0.87463 0.0
H233 H 0.18578 0.53794 0.84958 0.0
H234 H 0.95032 0.65003 0.82234 0.0
H235 H 0.31249 0.68682 0.86138 0.0
H236 H 0.26985 0.538 0.83742 0.0
C237 C 1.04271 0.58052 0.31272 0.0
C238 C 0.08929 0.59488 0.30245 0.0
C239 C 1.0377 0.57726 0.33879 0.0
C240 C 0.07919 0.5884 0.3551 0.0
C241 C 0.12586 0.60154 0.3447 0.0
C242 C 0.13081 0.60493 0.31868 0.0
C243 C 0.07386 0.58834 0.38287 0.0
C244 C 1.04033 0.55206 0.39443 0.0
C245 C 1.03528 0.55227 0.42069 0.0
C246 C 0.06411 0.58949 0.43541 0.0
C247 C 0.09769 0.62612 0.42414 0.0
C248 C 0.10218 0.62525 0.39791 0.0
C249 C 0.12763 0.66603 0.43949 0.0
C250 C 0.10619 0.68939 0.4584 0.0
C251 C 0.17751 0.68246 0.43451 0.0
C252 C 0.20494 0.72232 0.44754 0.0
C253 C 0.18304 0.74675 0.46575 0.0
C254 C 1.00044 0.51316 0.43273 0.0
C255 C 0.95288 0.49692 0.42237 0.0
C256 C 1.0148 0.49119 0.45442 0.0
C257 C 0.98267 0.45313 0.46518 0.0
C258 C 0.93549 0.4364 0.45454 0.0
C259 C 0.92064 0.45907 0.43325 0.0
C260 C 0.13365 0.72943 0.47139 0.0
H261 H 1.01 0.57341 0.30064 0.0
H262 H 1.0012 0.56762 0.34619 0.0
H263 H 0.15864 0.60955 0.3567 0.0
H264 H 0.16715 0.6158 0.31122 0.0
H265 H 1.01904 0.52289 0.38305 0.0
H266 H 0.12688 0.65428 0.38907 0.0
H267 H 0.0604 0.58996 0.45564 0.0
H268 H 0.0678 0.67768 0.4626 0.0
H269 H 0.19524 0.66479 0.4203 0.0
H270 H 0.24295 0.73493 0.44282 0.0
H271 H 0.94059 0.51352 0.40584 0.0
H272 H 0.05128 0.50274 0.46275 0.0
H273 H 0.11611 0.74723 0.48563 0.0
H274 H 0.88444 0.4468 0.4247 0.0
H275 H 0.99476 0.43661 0.48178 0.0
C276 C 0.39217 1.00599 0.65273 0.0
C277 C 0.41809 1.05257 0.6478 0.0
C278 C 0.35765 0.99863 0.67178 0.0
C279 C 0.34816 1.03779 0.68593 0.0
C280 C 0.3739 0.08424 0.6807 0.0
C281 C 0.40839 0.09148 0.66195 0.0
C282 C 0.31642 1.03103 0.70814 0.0
C283 C 0.32459 0.99879 0.72663 0.0
C284 C 0.30751 1.00255 0.75105 0.0
C285 C 0.28228 1.0393 0.75682 0.0
C286 C 0.2738 1.07225 0.73848 0.0
C287 C 0.28732 1.06468 0.71362 0.0
C288 C 0.26366 0.12008 0.74646 0.0
C289 C 0.24211 0.12638 0.76971 0.0
C290 C 0.28526 0.16162 0.73349 0.0
C291 C 0.2914 0.20684 0.74486 0.0
C292 C 0.277 0.2119 0.76964 0.0
C293 C 0.3246 0.97403 0.77131 0.0
C294 C 0.32551 0.92538 0.76704 0.0
C295 C 0.3459 0.99675 0.79376 0.0
C296 C 0.37011 0.97205 0.81085 0.0
C297 C 0.37351 0.92426 0.8058 0.0
C298 C 0.34992 0.9008 0.78405 0.0
C299 C 0.2497 0.17181 0.78146 0.0
H300 H 0.39832 0.97542 0.64179 0.0
H301 H 0.33862 0.96242 0.67556 0.0
H302 H 0.36876 0.11506 0.69176 0.0
H303 H 0.42819 0.1277 0.6588 0.0
H304 H 0.34867 0.97408 0.7228 0.0
H305 H 0.28017 0.08844 0.69888 0.0
H306 H 0.27312 1.04421 0.77619 0.0
H307 H 0.22301 0.09589 0.77989 0.0
H308 H 0.30276 0.15972 0.71571 0.0
H309 H 0.31304 0.23697 0.73533 0.0
H310 H 0.30932 0.90699 0.74994 0.0
H311 H 0.34658 1.03444 0.79745 0.0
H312 H 0.23778 0.17496 0.80054 0.0
H313 H 0.35281 0.86429 0.77935 0.0
H314 H 0.38805 0.99093 0.82746 0.0
C315 C 0.62084 0.56602 -0.00074 0.0
C316 C 0.59246 0.59344 0.98592 0.0
C317 C 0.62062 0.56525 0.02549 0.0
C318 C 0.59234 0.59227 0.039 0.0
C319 C 0.56449 0.62033 0.0256 0.0
C320 C 0.56452 0.62086 -0.0007 0.0
C321 C 0.59188 0.59088 0.06695 0.0
C322 C 0.63522 0.59045 0.08087 0.0
C323 C 0.63542 0.58815 0.1072 0.0
C324 C 0.59143 0.58708 0.11996 0.0
C325 C 0.54717 0.58651 0.10621 0.0
C326 C 0.54809 0.58885 0.07978 0.0
C327 C 0.49929 0.58269 0.11877 0.0
C328 C 0.45736 0.55125 0.10875 0.0
C329 C 0.49397 0.6128 0.13929 0.0
C330 C 0.44726 0.61338 0.14857 0.0
C331 C 0.40507 0.58375 0.13754 0.0
C332 C 0.68237 0.58581 0.12047 0.0
C333 C 0.70711 0.5491 0.11391 0.0
C334 C 0.70637 0.6237 0.13629 0.0
C335 C 0.75546 0.62631 0.14408 0.0
C336 C 0.78112 0.59094 0.13623 0.0
C337 C 0.75582 0.55148 0.12181 0.0
C338 C 0.41093 0.55177 0.11801 0.0
H339 H 0.64232 0.54423 0.98933 0.0
H340 H 0.64188 0.54266 0.03516 0.0
H341 H 0.54297 0.64218 0.03543 0.0
H342 H 0.54284 0.6428 0.98941 0.0
H343 H 0.66942 0.59248 0.07121 0.0
H344 H 0.51432 0.5886 0.06911 0.0
H345 H 0.59135 0.58493 0.14029 0.0
H346 H 0.4603 0.52705 0.09319 0.0
H347 H 0.52557 0.63735 0.14743 0.0
H348 H 0.44404 0.63776 0.16399 0.0
H349 H 0.68939 0.51965 0.10159 0.0
H350 H 0.68816 0.65262 0.1414 0.0
H351 H 0.37928 0.52847 0.10911 0.0
H352 H 0.77455 0.52375 0.11543 0.0
H353 H 0.77385 0.65676 0.15554 0.0
C354 C 0.26936 0.54876 0.15236 0.0
C355 C 0.25381 0.59297 0.15198 0.0
C356 C 0.31866 0.54626 0.14875 0.0
C357 C 0.35461 0.58786 0.14489 0.0
H358 H 0.24297 0.51552 0.15442 0.0
H359 H 0.32853 0.51127 0.14836 0.0
S360 S 0.33413 0.7129 0.14427 0.0
N361 N 0.27941 0.67979 0.14915 0.0
N362 N 0.37159 0.67483 0.1421 0.0
C363 C 0.34005 0.63247 0.14564 0.0
C364 C 0.28984 0.63506 0.14921 0.0
C365 C 0.82152 0.35792 0.48073 0.0
C366 C 0.83616 0.31383 0.48445 0.0
C367 C 0.8539 0.39752 0.47121 0.0
C368 C 0.90217 0.39456 0.46519 0.0
H369 H 0.7848 0.3619 0.48531 0.0
H370 H 0.84118 0.4308 0.46865 0.0
S371 S 0.95758 0.28662 0.46972 0.0
N372 N 0.90152 0.26905 0.4801 0.0
N373 N 0.96242 0.34367 0.46258 0.0
C374 C 0.91723 0.35075 0.46872 0.0
C375 C 0.88425 0.31037 0.47826 0.0
C376 C 0.49091 0.90106 0.83593 0.0
C377 C 0.47861 0.85185 0.84103 0.0
C378 C 0.45563 0.9252 0.82609 0.0
C379 C 0.40693 0.9009 0.82113 0.0
H380 H 0.52865 0.92023 0.83792 0.0
H381 H 0.46741 0.96229 0.8208 0.0
S382 S 0.35461 0.7742 0.83555 0.0
N383 N 0.41337 0.78118 0.8436 0.0
N384 N 0.3469 0.82677 0.82527 0.0
C385 C 0.39342 0.85273 0.82812 0.0
C386 C 0.42931 0.82815 0.83806 0.0
C387 C 0.90525 0.56019 0.15241 0.0
C388 C 0.93905 0.60142 0.14529 0.0
C389 C 0.85437 0.55768 0.15026 0.0
C390 C 0.83498 0.59642 0.14113 0.0
H391 H 0.91799 0.529 0.15926 0.0
H392 H 0.82994 0.52483 0.15546 0.0
S393 S 0.90676 0.71295 0.12025 0.0
N394 N 0.94871 0.68247 0.12911 0.0
N395 N 0.85331 0.67735 0.12502 0.0
C396 C 0.86811 0.63826 0.13451 0.0
C397 C 0.91998 0.64085 0.13658 0.0
C398 C 0.28786 0.83516 0.49792 0.0
C399 C 0.27085 0.87857 0.49755 0.0
C400 C 0.25872 0.79239 0.48824 0.0
C401 C 0.21147 0.79141 0.4779 0.0
H402 H 0.32421 0.83436 0.5055 0.0
H403 H 0.27348 0.7599 0.4886 0.0
S404 S 0.15051 0.89554 0.47167 0.0
N405 N 0.20411 0.91808 0.48556 0.0
N406 N 0.1493 0.83764 0.46749 0.0
C407 C 0.19373 0.83438 0.47777 0.0
C408 C 0.22342 0.87795 0.48757 0.0
C409 C 0.37355 0.28417 0.81221 0.0
C410 C 0.38159 0.32918 0.80074 0.0
C411 C 0.3344 0.24753 0.80428 0.0
C412 C 0.30238 0.2546 0.78441 0.0
H413 H 0.39967 0.27619 0.82617 0.0
H414 H 0.33241 0.21213 0.81196 0.0
S415 S 0.30228 0.36855 0.75153 0.0
N416 N 0.3503 0.38103 0.77117 0.0
N417 N 0.27655 0.31189 0.75626 0.0
C418 C 0.30681 0.30098 0.77479 0.0
C419 C 0.34658 0.33839 0.78293 0.0
C420 C 0.5954 0.92804 0.51793 0.0
C421 C 0.55245 0.94572 0.52259 0.0
C422 C 0.59693 0.87896 0.52019 0.0
C423 C 0.55564 0.84467 0.52726 0.0
H424 H 0.62859 0.95241 0.51268 0.0
H425 H 0.63116 0.86786 0.51648 0.0
S426 S 0.43359 0.87145 0.54153 0.0
N427 N 0.46696 0.92404 0.53429 0.0
N428 N 0.47012 0.83257 0.53889 0.0
C429 C 0.51211 0.86163 0.53154 0.0
C430 C 0.51048 0.91173 0.52917 0.0
C431 C 0.80135 0.6335 0.84157 0.0
C432 C 0.76526 0.59403 0.83296 0.0
C433 C 0.8511 0.63087 0.84321 0.0
C434 C 0.86691 0.58854 0.83651 0.0
H435 H 0.79114 0.6667 0.84749 0.0
H436 H 0.87718 0.66172 0.8507 0.0
S437 S 0.78837 0.47596 0.81121 0.0
N438 N 0.74962 0.51191 0.81634 0.0
N439 N 0.84326 0.50711 0.81963 0.0
C440 C 0.83166 0.54925 0.82716 0.0
C441 C 0.78089 0.55199 0.82528 0.0
C442 C 0.33839 0.91287 0.15572 0.0
C443 C 0.29942 0.88728 0.16947 0.0
C444 C 0.37866 0.94294 0.1679 0.0
C445 C 0.38167 0.94801 0.19429 0.0
H446 H 0.33774 0.90959 0.13538 0.0
H447 H 0.4081 0.96166 0.15661 0.0
S448 S 0.28914 0.88903 0.2389 0.0
N449 N 0.26643 0.86889 0.2109 0.0
N450 N 0.34166 0.92595 0.23374 0.0
C451 C 0.34276 0.92293 0.20823 0.0
C452 C 0.30173 0.8925 0.19584 0.0
C453 C 0.50578 0.27725 0.52527 0.0
C454 C 0.5495 0.25983 0.52279 0.0
C455 C 0.50595 0.32678 0.52756 0.0
C456 C 0.54989 0.3618 0.52773 0.0
H457 H 0.47081 0.25236 0.52562 0.0
H458 H 0.47105 0.33766 0.52945 0.0
S459 S 0.67499 0.33568 0.52183 0.0
N460 N 0.63832 0.28226 0.5202 0.0
N461 N 0.63877 0.3747 0.52517 0.0
C462 C 0.59394 0.34496 0.52483 0.0
C463 C 0.59372 0.29437 0.52226 0.0
C464 C 0.43775 0.63496 0.85587 0.0
C465 C 0.45212 0.6096 0.83543 0.0
C466 C 0.38825 0.63593 0.85956 0.0
C467 C 0.35083 0.61232 0.84271 0.0
H468 H 0.46483 0.65318 0.86962 0.0
H469 H 0.37928 0.65451 0.87618 0.0
S470 S 0.36982 0.54442 0.78475 0.0
N471 N 0.42542 0.56184 0.79747 0.0
N472 N 0.33261 0.56558 0.80364 0.0
C473 C 0.36498 0.58798 0.82171 0.0
C474 C 0.41546 0.58621 0.81824 0.0
C475 C 0.82775 0.33393 0.18627 0.0
C476 C 0.8739 0.3216 0.19027 0.0
C477 C 0.78451 0.30343 0.1936 0.0
C478 C 0.78592 0.25936 0.20493 0.0
H479 H 0.82498 0.36722 0.17723 0.0
H480 H 0.74971 0.31422 0.19028 0.0
S481 S 0.89717 0.21198 0.22144 0.0
N482 N 0.91829 0.26352 0.20781 0.0
N483 N 0.83686 0.20582 0.22096 0.0
C484 C 0.83164 0.24671 0.2092 0.0
C485 C 0.87566 0.2779 0.20202 0.0
C486 C 0.13058 0.55547 0.05873 0.0
C487 C 0.11103 0.58589 0.07498 0.0
C488 C 0.1308 0.56219 0.03273 0.0
C489 C 0.11232 0.60006 0.02209 0.0
H490 H 0.14459 0.52531 0.06602 0.0
H491 H 0.14496 0.5372 0.02079 0.0
S492 S 0.05952 0.69135 0.05625 0.0
N493 N 0.07402 0.65629 0.07853 0.0
N494 N 0.0757 0.66949 0.0295 0.0
C495 C 0.09431 0.63184 0.03806 0.0
C496 C 0.09335 0.6246 0.06458 0.0
C497 C 0.5338 0.13826 0.42962 0.0
C498 C 0.55323 0.10941 0.44682 0.0
C499 C 0.54478 0.13785 0.40413 0.0
C500 C 0.57559 0.10847 0.39481 0.0
H501 H 0.50899 0.16079 0.43575 0.0
H502 H 0.52776 0.15965 0.3915 0.0
S503 S 0.6393 1.02916 0.43232 0.0
N504 N 0.60721 1.05273 0.45305 0.0
N505 N 0.62799 1.05202 0.40492 0.0
C506 C 0.59662 0.08054 0.41188 0.0
C507 C 0.58557 0.0811 0.43798 0.0
C508 C 0.65075 0.64562 0.74371 0.0
C509 C 0.61206 0.6272 0.75961 0.0
C510 C 0.64464 0.6412 0.71743 0.0
C511 C 0.59942 0.61885 0.70615 0.0
H512 H 0.68601 0.66375 0.7516 0.0
H513 H 0.67519 0.65623 0.70584 0.0
S514 S 0.48727 0.56266 0.73917 0.0
N515 N 0.52744 0.58393 0.76201 0.0
N516 N 0.51597 0.57651 0.71266 0.0
C517 C 0.56068 0.59974 0.72177 0.0
C518 C 0.56701 0.60363 0.74849 0.0
C519 C 0.48669 0.11133 0.59233 0.0
C520 C 0.52484 0.08604 0.5894 0.0
C521 C 0.45207 0.09939 0.61089 0.0
C522 C 0.45422 1.06188 0.62751 0.0
H523 H 0.48314 0.14052 0.58 0.0
H524 H 0.42314 0.11975 0.61216 0.0
S525 S 0.54728 0.98481 0.62814 0.0
N526 N 0.56292 1.02161 0.60463 0.0
N527 N 0.4981 0.99973 0.64018 0.0
C528 C 0.49222 1.03618 0.62492 0.0
C529 C 0.52759 1.0483 0.60579 0.0
C530 C 0.63467 0.5957 0.91851 0.0
C531 C 0.59033 0.58111 0.90466 0.0
C532 C 0.63504 0.60052 0.94482 0.0
C533 C 0.59105 0.59186 0.95805 0.0
H534 H 0.66936 0.60196 0.90907 0.0
H535 H 0.67 0.61065 0.95492 0.0
S536 S 0.46512 0.55637 0.93023 0.0
N537 N 0.50126 0.56051 0.90587 0.0
N538 N 0.50199 0.56996 0.95525 0.0
C539 C 0.54643 0.57903 0.94429 0.0
C540 C 0.54608 0.57353 0.91759 0.0
C541 C 0.12496 0.65566 0.24075 0.0
C542 C 0.1033 0.62096 0.22255 0.0
C543 C 0.12094 0.64649 0.26649 0.0
C544 C 0.09454 0.60247 0.27503 0.0
H545 H 0.14514 0.69036 0.23508 0.0
H546 H 0.13778 0.67451 0.27984 0.0
S547 S 1.03099 0.4996 0.23511 0.0
N548 N 0.05451 0.54083 0.21483 0.0
N549 N 0.04707 0.52348 0.26333 0.0
C550 C 0.07287 0.56733 0.25706 0.0
C551 C 0.0773 0.57656 0.23079 0.0
loop_
_geom_bond_atom_site_label_1
_geom_bond_atom_site_label_2
_geom_bond_distance
_geom_bond_site_symmetry_2
_ccdc_geom_bond_type
Pr0 C2 2.880 . S
Pr0 O20 2.562 . S
Pr0 O21 2.490 . S
Pr0 O22 2.695 1_655 S
Pr0 O23 2.512 . S
Pr0 O25 2.437 . S
Pr0 O28 2.436 . S
Pr0 O30 2.438 1_655 S
Pr1 C11 2.880 . S
Pr1 O22 2.436 . S
Pr1 O24 2.438 1_455 S
Pr1 O26 2.562 . S
Pr1 O27 2.490 . S
Pr1 O28 2.695 1_455 S
Pr1 O29 2.512 . S
Pr1 O31 2.437 . S
C2 Pr0 2.880 . S
C2 C3 1.491 . S
C2 O20 1.254 . S
C2 O21 1.225 . S
C3 C2 1.491 . S
C3 C4 1.392 . S
C3 C8 1.356 . S
C4 C3 1.392 . S
C4 C5 1.368 . S
C4 H32 0.929 . S
C5 C4 1.368 . S
C5 C6 1.386 . S
C5 H33 0.929 . S
C6 C5 1.386 . S
C6 C7 1.373 . S
C7 C6 1.373 . S
C7 C8 1.409 . S
C7 H34 0.931 . S
C8 C3 1.356 . S
C8 C7 1.409 . S
C8 H35 0.930 . S
C9 O22 1.270 . S
C9 O23 1.248 1_455 S
C10 O24 1.267 . S
C10 O25 1.278 . S
C11 Pr1 2.880 . S
C11 C12 1.491 . S
C11 O26 1.254 . S
C11 O27 1.225 . S
C12 C11 1.491 . S
C12 C13 1.392 . S
C12 C17 1.356 . S
C13 C12 1.392 . S
C13 C14 1.368 . S
C13 H36 0.929 . S
C14 C13 1.368 . S
C14 C15 1.386 . S
C14 H37 0.929 . S
C15 C14 1.386 . S
C15 C16 1.373 . S
C16 C15 1.373 . S
C16 C17 1.409 . S
C16 H38 0.931 . S
C17 C12 1.356 . S
C17 C16 1.409 . S
C17 H39 0.930 . S
C18 O28 1.270 1_455 S
C18 O29 1.248 . S
C19 O30 1.267 . S
C19 O31 1.278 . S
O20 Pr0 2.562 . S
O20 C2 1.254 . S
O21 Pr0 2.490 . S
O21 C2 1.225 . S
O22 Pr0 2.695 1_455 S
O22 Pr1 2.436 . S
O22 C9 1.270 . S
O23 Pr0 2.512 . S
O23 C9 1.248 1_655 S
O24 Pr1 2.438 1_655 S
O24 C10 1.267 . S
O25 Pr0 2.437 . S
O25 C10 1.278 . S
O26 Pr1 2.562 . S
O26 C11 1.254 . S
O27 Pr1 2.490 . S
O27 C11 1.225 . S
O28 Pr0 2.436 . S
O28 Pr1 2.695 1_655 S
O28 C18 1.270 1_655 S
O29 Pr1 2.512 . S
O29 C18 1.248 . S
O30 Pr0 2.438 1_455 S
O30 C19 1.267 . S
O31 Pr1 2.437 . S
O31 C19 1.278 . S
H32 C4 0.929 . S
H33 C5 0.929 . S
H34 C7 0.931 . S
H35 C8 0.930 . S
H36 C13 0.929 . S
H37 C14 0.929 . S
H38 C16 0.931 . S
H39 C17 0.930 . S
Pr40 C42 2.880 . S
Pr40 O60 2.562 . S
Pr40 O61 2.490 . S
Pr40 O62 2.694 1_545 S
Pr40 O63 2.512 . S
Pr40 O65 2.437 . S
Pr40 O68 2.436 . S
Pr40 O70 2.438 1_545 S
Pr41 C51 2.880 . S
Pr41 O62 2.435 . S
Pr41 O64 2.438 1_565 S
Pr41 O66 2.562 . S
Pr41 O67 2.490 . S
Pr41 O68 2.695 1_565 S
Pr41 O69 2.512 . S
Pr41 O71 2.437 . S
C42 Pr40 2.880 . S
C42 C43 1.491 . S
C42 O60 1.254 . S
C42 O61 1.225 . S
C43 C42 1.491 . S
C43 C44 1.392 . S
C43 C48 1.356 . S
C44 C43 1.392 . S
C44 C45 1.368 . S
C44 H72 0.929 . S
C45 C44 1.368 . S
C45 C46 1.386 . S
C45 H73 0.929 . S
C46 C45 1.386 . S
C46 C47 1.373 . S
C47 C46 1.373 . S
C47 C48 1.409 . S
C47 H74 0.931 . S
C48 C43 1.356 . S
C48 C47 1.409 . S
C48 H75 0.930 . S
C49 O62 1.269 1_545 S
C49 O63 1.248 . S
C50 O64 1.267 . S
C50 O65 1.278 . S
C51 Pr41 2.880 . S
C51 C52 1.491 . S
C51 O66 1.254 . S
C51 O67 1.225 . S
C52 C51 1.491 . S
C52 C53 1.392 . S
C52 C57 1.356 . S
C53 C52 1.392 . S
C53 C54 1.368 . S
C53 H76 0.929 . S
C54 C53 1.368 . S
C54 C55 1.386 . S
C54 H77 0.929 . S
C55 C54 1.386 . S
C55 C56 1.373 . S
C56 C55 1.373 . S
C56 C57 1.409 . S
C56 H78 0.931 . S
C57 C52 1.356 . S
C57 C56 1.409 . S
C57 H79 0.930 . S
C58 O68 1.270 . S
C58 O69 1.248 1_545 S
C59 O70 1.267 . S
C59 O71 1.278 . S
O60 Pr40 2.562 . S
O60 C42 1.254 . S
O61 Pr40 2.490 . S
O61 C42 1.225 . S
O62 Pr40 2.694 1_565 S
O62 Pr41 2.435 . S
O62 C49 1.269 1_565 S
O63 Pr40 2.512 . S
O63 C49 1.248 . S
O64 Pr41 2.438 1_545 S
O64 C50 1.267 . S
O65 Pr40 2.437 . S
O65 C50 1.278 . S
O66 Pr41 2.562 . S
O66 C51 1.254 . S
O67 Pr41 2.490 . S
O67 C51 1.225 . S
O68 Pr40 2.436 . S
O68 Pr41 2.695 1_545 S
O68 C58 1.270 . S
O69 Pr41 2.512 . S
O69 C58 1.248 1_565 S
O70 Pr40 2.438 1_565 S
O70 C59 1.267 . S
O71 Pr41 2.437 . S
O71 C59 1.278 . S
H72 C44 0.929 . S
H73 C45 0.929 . S
H74 C47 0.931 . S
H75 C48 0.930 . S
H76 C53 0.929 . S
H77 C54 0.929 . S
H78 C56 0.931 . S
H79 C57 0.930 . S
Pr80 C82 2.880 . S
Pr80 O100 2.562 . S
Pr80 O101 2.490 . S
Pr80 O102 2.695 . S
Pr80 O103 2.512 . S
Pr80 O105 2.437 . S
Pr80 O108 2.436 . S
Pr80 O110 2.438 . S
Pr81 C91 2.880 . S
Pr81 O102 2.436 . S
Pr81 O104 2.438 . S
Pr81 O106 2.562 . S
Pr81 O107 2.490 . S
Pr81 O108 2.695 . S
Pr81 O109 2.512 . S
Pr81 O111 2.437 . S
C82 Pr80 2.880 . S
C82 C83 1.491 . S
C82 O100 1.254 . S
C82 O101 1.225 . S
C83 C82 1.491 . S
C83 C84 1.392 . S
C83 C88 1.356 . S
C84 C83 1.392 . S
C84 C85 1.368 . S
C84 H112 0.929 . S
C85 C84 1.368 . S
C85 C86 1.386 . S
C85 H113 0.929 . S
C86 C85 1.386 . S
C86 C87 1.373 . S
C87 C86 1.373 . S
C87 C88 1.409 . S
C87 H114 0.931 . S
C88 C83 1.356 . S
C88 C87 1.409 . S
C88 H115 0.930 . S
C89 O102 1.270 . S
C89 O103 1.248 . S
C90 O104 1.267 . S
C90 O105 1.278 . S
C91 Pr81 2.880 . S
C91 C92 1.491 . S
C91 O106 1.254 . S
C91 O107 1.225 . S
C92 C91 1.491 . S
C92 C93 1.392 . S
C92 C97 1.356 . S
C93 C92 1.392 . S
C93 C94 1.368 . S
C93 H116 0.929 . S
C94 C93 1.368 . S
C94 C95 1.386 . S
C94 H117 0.929 . S
C95 C94 1.386 . S
C95 C96 1.373 . S
C96 C95 1.373 . S
C96 C97 1.409 . S
C96 H118 0.931 . S
C97 C92 1.356 . S
C97 C96 1.409 . S
C97 H119 0.930 . S
C98 O108 1.270 . S
C98 O109 1.248 . S
C99 O110 1.267 . S
C99 O111 1.278 . S
O100 Pr80 2.562 . S
O100 C82 1.254 . S
O101 Pr80 2.490 . S
O101 C82 1.225 . S
O102 Pr80 2.695 . S
O102 Pr81 2.436 . S
O102 C89 1.270 . S
O103 Pr80 2.512 . S
O103 C89 1.248 . S
O104 Pr81 2.438 . S
O104 C90 1.267 . S
O105 Pr80 2.437 . S
O105 C90 1.278 . S
O106 Pr81 2.562 . S
O106 C91 1.254 . S
O107 Pr81 2.490 . S
O107 C91 1.225 . S
O108 Pr80 2.436 . S
O108 Pr81 2.695 . S
O108 C98 1.270 . S
O109 Pr81 2.512 . S
O109 C98 1.248 . S
O110 Pr80 2.438 . S
O110 C99 1.267 . S
O111 Pr81 2.437 . S
O111 C99 1.278 . S
H112 C84 0.929 . S
H113 C85 0.929 . S
H114 C87 0.931 . S
H115 C88 0.930 . S
H116 C93 0.929 . S
H117 C94 0.929 . S
H118 C96 0.931 . S
H119 C97 0.930 . S
C120 C121 1.386 . S
C120 C122 1.397 . S
C120 H144 0.931 . S
C121 C120 1.386 . S
C121 C125 1.397 1_545 S
C122 C120 1.397 . S
C122 C123 1.384 . S
C122 H145 0.930 . S
C123 C122 1.384 . S
C123 C124 1.377 1_545 S
C123 C126 1.481 . S
C124 C123 1.377 1_565 S
C124 C125 1.389 . S
C124 H146 0.929 . S
C125 C121 1.397 1_565 S
C125 C124 1.389 . S
C125 H147 0.931 . S
C126 C123 1.481 . S
C126 C127 1.387 . S
C126 C131 1.390 1_545 S
C127 C126 1.387 . S
C127 C128 1.401 . S
C127 H148 0.930 . S
C128 C127 1.401 . S
C128 C129 1.376 . S
C128 C137 1.511 . S
C129 C128 1.376 . S
C129 C130 1.392 1_545 S
C129 H150 0.931 . S
C130 C129 1.392 1_565 S
C130 C131 1.361 . S
C130 C132 1.500 . S
C131 C126 1.390 1_565 S
C131 C130 1.361 . S
C131 H149 0.931 . S
C132 C130 1.500 . S
C132 C133 1.371 . S
C132 C134 1.365 . S
C133 C132 1.371 . S
C133 C143 1.386 . S
C133 H151 0.931 . S
C134 C132 1.365 . S
C134 C135 1.409 . S
C134 H152 0.929 . S
C135 C134 1.409 . S
C135 C136 1.380 . S
C135 H153 0.930 . S
C136 C135 1.380 . S
C136 C143 1.357 . S
C137 C128 1.511 . S
C137 C138 1.341 . S
C137 C139 1.371 . S
C138 C137 1.341 . S
C138 C142 1.394 . S
C138 H154 0.930 . S
C139 C137 1.371 . S
C139 C140 1.392 . S
C139 H155 0.931 . S
C140 C139 1.392 . S
C140 C141 1.331 . S
C140 H158 0.932 . S
C141 C140 1.331 . S
C141 C142 1.336 . S
C142 C138 1.394 . S
C142 C141 1.336 . S
C142 H157 0.929 . S
C143 C133 1.386 . S
C143 C136 1.357 . S
C143 H156 0.928 . S
H144 C120 0.931 . S
H145 C122 0.930 . S
H146 C124 0.929 . S
H147 C125 0.931 . S
H148 C127 0.930 . S
H149 C131 0.931 . S
H150 C129 0.931 . S
H151 C133 0.931 . S
H152 C134 0.929 . S
H153 C135 0.930 . S
H154 C138 0.930 . S
H155 C139 0.931 . S
H156 C143 0.928 . S
H157 C142 0.929 . S
H158 C140 0.932 . S
C159 C160 1.386 . S
C159 C161 1.397 . S
C159 H183 0.931 . S
C160 C159 1.386 . S
C160 C164 1.397 . S
C161 C159 1.397 . S
C161 C162 1.384 . S
C161 H184 0.930 . S
C162 C161 1.384 . S
C162 C163 1.377 . S
C162 C165 1.481 . S
C163 C162 1.377 . S
C163 C164 1.389 . S
C163 H185 0.929 . S
C164 C160 1.397 . S
C164 C163 1.389 . S
C164 H186 0.931 . S
C165 C162 1.481 . S
C165 C166 1.387 . S
C165 C170 1.390 . S
C166 C165 1.387 . S
C166 C167 1.401 . S
C166 H187 0.930 . S
C167 C166 1.401 . S
C167 C168 1.376 . S
C167 C176 1.511 . S
C168 C167 1.376 . S
C168 C169 1.392 . S
C168 H189 0.931 . S
C169 C168 1.392 . S
C169 C170 1.361 . S
C169 C171 1.500 . S
C170 C165 1.390 . S
C170 C169 1.361 . S
C170 H188 0.931 . S
C171 C169 1.500 . S
C171 C172 1.371 . S
C171 C173 1.365 . S
C172 C171 1.371 . S
C172 C182 1.386 . S
C172 H190 0.931 . S
C173 C171 1.365 . S
C173 C174 1.409 . S
C173 H191 0.929 . S
C174 C173 1.409 . S
C174 C175 1.380 . S
C174 H192 0.930 . S
C175 C174 1.380 . S
C175 C182 1.357 . S
C176 C167 1.511 . S
C176 C177 1.341 . S
C176 C178 1.371 . S
C177 C176 1.341 . S
C177 C181 1.394 . S
C177 H193 0.930 . S
C178 C176 1.371 . S
C178 C179 1.392 . S
C178 H194 0.931 . S
C179 C178 1.392 . S
C179 C180 1.331 . S
C179 H197 0.932 . S
C180 C179 1.331 . S
C180 C181 1.336 . S
C181 C177 1.394 . S
C181 C180 1.336 . S
C181 H196 0.929 . S
C182 C172 1.386 . S
C182 C175 1.357 . S
C182 H195 0.928 . S
H183 C159 0.931 . S
H184 C161 0.930 . S
H185 C163 0.929 . S
H186 C164 0.931 . S
H187 C166 0.930 . S
H188 C170 0.931 . S
H189 C168 0.931 . S
H190 C172 0.931 . S
H191 C173 0.929 . S
H192 C174 0.930 . S
H193 C177 0.930 . S
H194 C178 0.931 . S
H195 C182 0.928 . S
H196 C181 0.929 . S
H197 C179 0.932 . S
C198 C199 1.387 1_556 S
C198 C200 1.397 . S
C198 H222 0.931 . S
C199 C198 1.387 1_554 S
C199 C203 1.399 1_454 S
C200 C198 1.397 . S
C200 C201 1.384 . S
C200 H223 0.930 . S
C201 C200 1.384 . S
C201 C202 1.377 1_455 S
C201 C204 1.481 . S
C202 C201 1.377 1_655 S
C202 C203 1.389 . S
C202 H224 0.929 . S
C203 C199 1.399 1_656 S
C203 C202 1.389 . S
C203 H225 0.931 . S
C204 C201 1.481 . S
C204 C205 1.387 . S
C204 C209 1.390 1_455 S
C205 C204 1.387 . S
C205 C206 1.401 . S
C205 H226 0.930 . S
C206 C205 1.401 . S
C206 C207 1.376 . S
C206 C215 1.511 . S
C207 C206 1.376 . S
C207 C208 1.392 1_455 S
C207 H228 0.931 . S
C208 C207 1.392 1_655 S
C208 C209 1.361 . S
C208 C210 1.500 . S
C209 C204 1.390 1_655 S
C209 C208 1.361 . S
C209 H227 0.931 . S
C210 C208 1.500 . S
C210 C211 1.371 . S
C210 C212 1.365 . S
C211 C210 1.371 . S
C211 C221 1.386 . S
C211 H229 0.931 . S
C212 C210 1.365 . S
C212 C213 1.409 . S
C212 H230 0.929 . S
C213 C212 1.409 . S
C213 C214 1.380 . S
C213 H231 0.930 . S
C214 C213 1.380 . S
C214 C221 1.357 . S
C215 C206 1.511 . S
C215 C216 1.341 . S
C215 C217 1.371 . S
C216 C215 1.341 . S
C216 C220 1.394 . S
C216 H232 0.930 . S
C217 C215 1.371 . S
C217 C218 1.392 . S
C217 H233 0.931 . S
C218 C217 1.392 . S
C218 C219 1.331 . S
C218 H236 0.932 . S
C219 C218 1.331 . S
C219 C220 1.336 . S
C220 C216 1.394 . S
C220 C219 1.336 . S
C220 H235 0.929 . S
C221 C211 1.386 . S
C221 C214 1.357 . S
C221 H234 0.928 . S
H222 C198 0.931 . S
H223 C200 0.930 . S
H224 C202 0.929 . S
H225 C203 0.931 . S
H226 C205 0.930 . S
H227 C209 0.931 . S
H228 C207 0.931 . S
H229 C211 0.931 . S
H230 C212 0.929 . S
H231 C213 0.930 . S
H232 C216 0.930 . S
H233 C217 0.931 . S
H234 C221 0.928 . S
H235 C220 0.929 . S
H236 C218 0.932 . S
C237 C238 1.386 . S
C237 C239 1.397 . S
C237 H261 0.931 . S
C238 C237 1.386 . S
C238 C242 1.397 1_655 S
C239 C237 1.397 . S
C239 C240 1.384 . S
C239 H262 0.930 . S
C240 C239 1.384 . S
C240 C241 1.377 1_655 S
C240 C243 1.481 . S
C241 C240 1.377 1_455 S
C241 C242 1.389 . S
C241 H263 0.929 . S
C242 C238 1.397 1_455 S
C242 C241 1.389 . S
C242 H264 0.931 . S
C243 C240 1.481 . S
C243 C244 1.387 . S
C243 C248 1.390 1_655 S
C244 C243 1.387 . S
C244 C245 1.401 . S
C244 H265 0.930 . S
C245 C244 1.401 . S
C245 C246 1.376 1_655 S
C245 C254 1.511 . S
C246 C245 1.376 1_455 S
C246 C247 1.392 . S
C246 H267 0.931 . S
C247 C246 1.392 . S
C247 C248 1.361 . S
C247 C249 1.500 . S
C248 C243 1.390 1_455 S
C248 C247 1.361 . S
C248 H266 0.931 . S
C249 C247 1.500 . S
C249 C250 1.371 . S
C249 C251 1.365 . S
C250 C249 1.371 . S
C250 C260 1.386 . S
C250 H268 0.931 . S
C251 C249 1.365 . S
C251 C252 1.409 . S
C251 H269 0.929 . S
C252 C251 1.409 . S
C252 C253 1.380 . S
C252 H270 0.930 . S
C253 C252 1.380 . S
C253 C260 1.357 . S
C254 C245 1.511 . S
C254 C255 1.341 . S
C254 C256 1.371 . S
C255 C254 1.341 . S
C255 C259 1.394 . S
C255 H271 0.930 . S
C256 C254 1.371 . S
C256 C257 1.392 . S
C256 H272 0.931 . S
C257 C256 1.392 . S
C257 C258 1.331 . S
C257 H275 0.932 . S
C258 C257 1.331 . S
C258 C259 1.336 . S
C259 C255 1.394 . S
C259 C258 1.336 . S
C259 H274 0.929 . S
C260 C250 1.386 . S
C260 C253 1.357 . S
C260 H273 0.928 . S
H261 C237 0.931 . S
H262 C239 0.930 . S
H263 C241 0.929 . S
H264 C242 0.931 . S
H265 C244 0.930 . S
H266 C248 0.931 . S
H267 C246 0.931 . S
H268 C250 0.931 . S
H269 C251 0.929 . S
H270 C252 0.930 . S
H271 C255 0.930 . S
H272 C256 0.931 . S
H273 C260 0.928 . S
H274 C259 0.929 . S
H275 C257 0.932 . S
C276 C277 1.386 1_565 S
C276 C278 1.397 . S
C276 H300 0.931 . S
C277 C276 1.386 1_545 S
C277 C281 1.397 . S
C278 C276 1.397 . S
C278 C279 1.367 1_565 S
C278 H301 0.930 . S
C279 C278 1.367 1_545 S
C279 C280 1.395 . S
C279 C282 1.481 . S
C280 C279 1.395 . S
C280 C281 1.389 . S
C280 H302 0.929 . S
C281 C277 1.397 . S
C281 C280 1.389 . S
C281 H303 0.931 . S
C282 C279 1.481 . S
C282 C283 1.372 1_545 S
C282 C287 1.406 . S
C283 C282 1.372 1_565 S
C283 C284 1.401 . S
C283 H304 0.930 . S
C284 C283 1.401 . S
C284 C285 1.376 1_565 S
C284 C293 1.511 . S
C285 C284 1.376 1_545 S
C285 C286 1.392 . S
C285 H306 0.931 . S
C286 C285 1.392 . S
C286 C287 1.361 . S
C286 C288 1.500 . S
C287 C282 1.406 . S
C287 C286 1.361 . S
C287 H305 0.931 . S
C288 C286 1.500 . S
C288 C289 1.371 . S
C288 C290 1.365 . S
C289 C288 1.371 . S
C289 C299 1.386 . S
C289 H307 0.931 . S
C290 C288 1.365 . S
C290 C291 1.409 . S
C290 H308 0.929 . S
C291 C290 1.409 . S
C291 C292 1.380 . S
C291 H309 0.930 . S
C292 C291 1.380 . S
C292 C299 1.357 . S
C293 C284 1.511 . S
C293 C294 1.341 . S
C293 C295 1.371 . S
C294 C293 1.341 . S
C294 C298 1.394 . S
C294 H310 0.930 . S
C295 C293 1.371 . S
C295 C296 1.392 . S
C295 H311 0.931 . S
C296 C295 1.392 . S
C296 C297 1.331 . S
C296 H314 0.932 . S
C297 C296 1.331 . S
C297 C298 1.336 . S
C298 C294 1.394 . S
C298 C297 1.336 . S
C298 H313 0.929 . S
C299 C289 1.386 . S
C299 C292 1.357 . S
C299 H312 0.928 . S
H300 C276 0.931 . S
H301 C278 0.930 . S
H302 C280 0.929 . S
H303 C281 0.931 . S
H304 C283 0.930 . S
H305 C287 0.931 . S
H306 C285 0.931 . S
H307 C289 0.931 . S
H308 C290 0.929 . S
H309 C291 0.930 . S
H310 C294 0.930 . S
H311 C295 0.931 . S
H312 C299 0.928 . S
H313 C298 0.929 . S
H314 C296 0.932 . S
C315 C316 1.386 . S
C315 C317 1.397 . S
C315 H339 0.931 . S
C316 C315 1.386 . S
C316 C320 1.397 . S
C317 C315 1.397 . S
C317 C318 1.384 . S
C317 H340 0.930 . S
C318 C317 1.384 . S
C318 C319 1.377 . S
C318 C321 1.481 . S
C319 C318 1.377 . S
C319 C320 1.389 . S
C319 H341 0.929 . S
C320 C316 1.397 . S
C320 C319 1.389 . S
C320 H342 0.931 . S
C321 C318 1.481 . S
C321 C322 1.387 . S
C321 C326 1.390 . S
C322 C321 1.387 . S
C322 C323 1.401 . S
C322 H343 0.930 . S
C323 C322 1.401 . S
C323 C324 1.376 . S
C323 C332 1.511 . S
C324 C323 1.376 . S
C324 C325 1.392 . S
C324 H345 0.931 . S
C325 C324 1.392 . S
C325 C326 1.361 . S
C325 C327 1.500 . S
C326 C321 1.390 . S
C326 C325 1.361 . S
C326 H344 0.931 . S
C327 C325 1.500 . S
C327 C328 1.371 . S
C327 C329 1.365 . S
C328 C327 1.371 . S
C328 C338 1.386 . S
C328 H346 0.931 . S
C329 C327 1.365 . S
C329 C330 1.409 . S
C329 H347 0.929 . S
C330 C329 1.409 . S
C330 C331 1.380 . S
C330 H348 0.930 . S
C331 C330 1.380 . S
C331 C338 1.357 . S
C332 C323 1.511 . S
C332 C333 1.341 . S
C332 C334 1.371 . S
C333 C332 1.341 . S
C333 C337 1.394 . S
C333 H349 0.930 . S
C334 C332 1.371 . S
C334 C335 1.392 . S
C334 H350 0.931 . S
C335 C334 1.392 . S
C335 C336 1.331 . S
C335 H353 0.932 . S
C336 C335 1.331 . S
C336 C337 1.336 . S
C337 C333 1.394 . S
C337 C336 1.336 . S
C337 H352 0.929 . S
C338 C328 1.386 . S
C338 C331 1.357 . S
C338 H351 0.928 . S
H339 C315 0.931 . S
H340 C317 0.930 . S
H341 C319 0.929 . S
H342 C320 0.931 . S
H343 C322 0.930 . S
H344 C326 0.931 . S
H345 C324 0.931 . S
H346 C328 0.931 . S
H347 C329 0.929 . S
H348 C330 0.930 . S
H349 C333 0.930 . S
H350 C334 0.931 . S
H351 C338 0.928 . S
H352 C337 0.929 . S
H353 C335 0.932 . S
C354 C355 1.369 . S
C354 C356 1.419 . S
C354 H358 0.930 . S
C355 C354 1.369 . S
C355 C364 1.429 . S
C356 C354 1.419 . S
C356 C357 1.363 . S
C356 H359 0.929 . S
C357 C356 1.363 . S
C357 C363 1.428 . S
H358 C354 0.930 . S
H359 C356 0.929 . S
S360 N361 1.613 . S
S360 N362 1.610 . S
N361 S360 1.613 . S
N361 C364 1.350 . S
N362 S360 1.610 . S
N362 C363 1.351 . S
C363 C357 1.428 . S
C363 N362 1.351 . S
C363 C364 1.434 . S
C364 C355 1.429 . S
C364 N361 1.350 . S
C364 C363 1.434 . S
C365 C366 1.369 . S
C365 C367 1.419 . S
C365 H369 0.930 . S
C366 C365 1.369 . S
C366 C375 1.429 . S
C367 C365 1.419 . S
C367 C368 1.363 . S
C367 H370 0.929 . S
C368 C367 1.363 . S
C368 C374 1.428 . S
H369 C365 0.930 . S
H370 C367 0.929 . S
S371 N372 1.613 . S
S371 N373 1.610 . S
N372 S371 1.613 . S
N372 C375 1.350 . S
N373 S371 1.610 . S
N373 C374 1.351 . S
C374 C368 1.428 . S
C374 N373 1.351 . S
C374 C375 1.434 . S
C375 C366 1.429 . S
C375 N372 1.350 . S
C375 C374 1.434 . S
C376 C377 1.369 . S
C376 C378 1.419 . S
C376 H380 0.930 . S
C377 C376 1.369 . S
C377 C386 1.429 . S
C378 C376 1.419 . S
C378 C379 1.363 . S
C378 H381 0.929 . S
C379 C378 1.363 . S
C379 C385 1.428 . S
H380 C376 0.930 . S
H381 C378 0.929 . S
S382 N383 1.613 . S
S382 N384 1.610 . S
N383 S382 1.613 . S
N383 C386 1.350 . S
N384 S382 1.610 . S
N384 C385 1.351 . S
C385 C379 1.428 . S
C385 N384 1.351 . S
C385 C386 1.434 . S
C386 C377 1.429 . S
C386 N383 1.350 . S
C386 C385 1.434 . S
C387 C388 1.369 . S
C387 C389 1.419 . S
C387 H391 0.930 . S
C388 C387 1.369 . S
C388 C397 1.429 . S
C389 C387 1.419 . S
C389 C390 1.363 . S
C389 H392 0.929 . S
C390 C389 1.363 . S
C390 C396 1.428 . S
H391 C387 0.930 . S
H392 C389 0.929 . S
S393 N394 1.613 . S
S393 N395 1.610 . S
N394 S393 1.613 . S
N394 C397 1.350 . S
N395 S393 1.610 . S
N395 C396 1.351 . S
C396 C390 1.428 . S
C396 N395 1.351 . S
C396 C397 1.434 . S
C397 C388 1.429 . S
C397 N394 1.350 . S
C397 C396 1.434 . S
C398 C399 1.369 . S
C398 C400 1.419 . S
C398 H402 0.930 . S
C399 C398 1.369 . S
C399 C408 1.429 . S
C400 C398 1.419 . S
C400 C401 1.363 . S
C400 H403 0.929 . S
C401 C400 1.363 . S
C401 C407 1.428 . S
H402 C398 0.930 . S
H403 C400 0.929 . S
S404 N405 1.613 . S
S404 N406 1.610 . S
N405 S404 1.613 . S
N405 C408 1.350 . S
N406 S404 1.610 . S
N406 C407 1.351 . S
C407 C401 1.428 . S
C407 N406 1.351 . S
C407 C408 1.434 . S
C408 C399 1.429 . S
C408 N405 1.350 . S
C408 C407 1.434 . S
C409 C410 1.369 . S
C409 C411 1.419 . S
C409 H413 0.930 . S
C410 C409 1.369 . S
C410 C419 1.429 . S
C411 C409 1.419 . S
C411 C412 1.363 . S
C411 H414 0.929 . S
C412 C411 1.363 . S
C412 C418 1.428 . S
H413 C409 0.930 . S
H414 C411 0.929 . S
S415 N416 1.613 . S
S415 N417 1.610 . S
N416 S415 1.613 . S
N416 C419 1.350 . S
N417 S415 1.610 . S
N417 C418 1.351 . S
C418 C412 1.428 . S
C418 N417 1.351 . S
C418 C419 1.434 . S
C419 C410 1.429 . S
C419 N416 1.350 . S
C419 C418 1.434 . S
C420 C421 1.369 . S
C420 C422 1.419 . S
C420 H424 0.930 . S
C421 C420 1.369 . S
C421 C430 1.429 . S
C422 C420 1.419 . S
C422 C423 1.363 . S
C422 H425 0.929 . S
C423 C422 1.363 . S
C423 C429 1.428 . S
H424 C420 0.930 . S
H425 C422 0.929 . S
S426 N427 1.613 . S
S426 N428 1.610 . S
N427 S426 1.613 . S
N427 C430 1.350 . S
N428 S426 1.610 . S
N428 C429 1.351 . S
C429 C423 1.428 . S
C429 N428 1.351 . S
C429 C430 1.434 . S
C430 C421 1.429 . S
C430 N427 1.350 . S
C430 C429 1.434 . S
C431 C432 1.369 . S
C431 C433 1.419 . S
C431 H435 0.930 . S
C432 C431 1.369 . S
C432 C441 1.429 . S
C433 C431 1.419 . S
C433 C434 1.363 . S
C433 H436 0.929 . S
C434 C433 1.363 . S
C434 C440 1.428 . S
H435 C431 0.930 . S
H436 C433 0.929 . S
S437 N438 1.613 . S
S437 N439 1.610 . S
N438 S437 1.613 . S
N438 C441 1.350 . S
N439 S437 1.610 . S
N439 C440 1.351 . S
C440 C434 1.428 . S
C440 N439 1.351 . S
C440 C441 1.434 . S
C441 C432 1.429 . S
C441 N438 1.350 . S
C441 C440 1.434 . S
C442 C443 1.369 . S
C442 C444 1.419 . S
C442 H446 0.930 . S
C443 C442 1.369 . S
C443 C452 1.429 . S
C444 C442 1.419 . S
C444 C445 1.363 . S
C444 H447 0.929 . S
C445 C444 1.363 . S
C445 C451 1.428 . S
H446 C442 0.930 . S
H447 C444 0.929 . S
S448 N449 1.613 . S
S448 N450 1.610 . S
N449 S448 1.613 . S
N449 C452 1.350 . S
N450 S448 1.610 . S
N450 C451 1.351 . S
C451 C445 1.428 . S
C451 N450 1.351 . S
C451 C452 1.434 . S
C452 C443 1.429 . S
C452 N449 1.350 . S
C452 C451 1.434 . S
C453 C454 1.369 . S
C453 C455 1.419 . S
C453 H457 0.930 . S
C454 C453 1.369 . S
C454 C463 1.429 . S
C455 C453 1.419 . S
C455 C456 1.363 . S
C455 H458 0.929 . S
C456 C455 1.363 . S
C456 C462 1.428 . S
H457 C453 0.930 . S
H458 C455 0.929 . S
S459 N460 1.613 . S
S459 N461 1.610 . S
N460 S459 1.613 . S
N460 C463 1.350 . S
N461 S459 1.610 . S
N461 C462 1.351 . S
C462 C456 1.428 . S
C462 N461 1.351 . S
C462 C463 1.434 . S
C463 C454 1.429 . S
C463 N460 1.350 . S
C463 C462 1.434 . S
C464 C465 1.369 . S
C464 C466 1.419 . S
C464 H468 0.930 . S
C465 C464 1.369 . S
C465 C474 1.429 . S
C466 C464 1.419 . S
C466 C467 1.363 . S
C466 H469 0.929 . S
C467 C466 1.363 . S
C467 C473 1.428 . S
H468 C464 0.930 . S
H469 C466 0.929 . S
S470 N471 1.613 . S
S470 N472 1.610 . S
N471 S470 1.613 . S
N471 C474 1.350 . S
N472 S470 1.610 . S
N472 C473 1.351 . S
C473 C467 1.428 . S
C473 N472 1.351 . S
C473 C474 1.434 . S
C474 C465 1.429 . S
C474 N471 1.350 . S
C474 C473 1.434 . S
C475 C476 1.369 . S
C475 C477 1.419 . S
C475 H479 0.930 . S
C476 C475 1.369 . S
C476 C485 1.429 . S
C477 C475 1.419 . S
C477 C478 1.363 . S
C477 H480 0.929 . S
C478 C477 1.363 . S
C478 C484 1.428 . S
H479 C475 0.930 . S
H480 C477 0.929 . S
S481 N482 1.613 . S
S481 N483 1.610 . S
N482 S481 1.613 . S
N482 C485 1.350 . S
N483 S481 1.610 . S
N483 C484 1.351 . S
C484 C478 1.428 . S
C484 N483 1.351 . S
C484 C485 1.434 . S
C485 C476 1.429 . S
C485 N482 1.350 . S
C485 C484 1.434 . S
C486 C487 1.369 1_655 S
C486 C488 1.419 . S
C486 H490 0.930 . S
C487 C486 1.369 1_455 S
C487 C496 1.429 . S
C488 C486 1.419 . S
C488 C489 1.363 1_655 S
C488 H491 0.929 . S
C489 C488 1.363 1_455 S
C489 C495 1.428 . S
H490 C486 0.930 . S
H491 C488 0.929 . S
S492 N493 1.613 . S
S492 N494 1.610 . S
N493 S492 1.613 . S
N493 C496 1.350 . S
N494 S492 1.610 . S
N494 C495 1.351 . S
C495 C489 1.428 . S
C495 N494 1.351 . S
C495 C496 1.434 . S
C496 C487 1.429 . S
C496 N493 1.350 . S
C496 C495 1.434 . S
C497 C498 1.369 . S
C497 C499 1.419 . S
C497 H501 0.930 . S
C498 C497 1.369 . S
C498 C507 1.429 1_545 S
C499 C497 1.419 . S
C499 C500 1.363 . S
C499 H502 0.929 . S
C500 C499 1.363 . S
C500 C506 1.428 1_545 S
H501 C497 0.930 . S
H502 C499 0.929 . S
S503 N504 1.613 . S
S503 N505 1.610 . S
N504 S503 1.613 . S
N504 C507 1.350 . S
N505 S503 1.610 . S
N505 C506 1.351 . S
C506 C500 1.428 1_565 S
C506 N505 1.351 . S
C506 C507 1.434 . S
C507 C498 1.429 1_565 S
C507 N504 1.350 . S
C507 C506 1.434 . S
C508 C509 1.369 . S
C508 C510 1.419 . S
C508 H512 0.930 . S
C509 C508 1.369 . S
C509 C518 1.429 . S
C510 C508 1.419 . S
C510 C511 1.363 . S
C510 H513 0.929 . S
C511 C510 1.363 . S
C511 C517 1.428 . S
H512 C508 0.930 . S
H513 C510 0.929 . S
S514 N515 1.613 . S
S514 N516 1.610 . S
N515 S514 1.613 . S
N515 C518 1.350 . S
N516 S514 1.610 . S
N516 C517 1.351 . S
C517 C511 1.428 . S
C517 N516 1.351 . S
C517 C518 1.434 . S
C518 C509 1.429 . S
C518 N515 1.350 . S
C518 C517 1.434 . S
C519 C520 1.369 . S
C519 C521 1.419 . S
C519 H523 0.930 . S
C520 C519 1.369 . S
C520 C529 1.429 1_545 S
C521 C519 1.419 . S
C521 C522 1.363 . S
C521 H524 0.929 . S
C522 C521 1.363 . S
C522 C528 1.428 1_545 S
H523 C519 0.930 . S
H524 C521 0.929 . S
S525 N526 1.613 . S
S525 N527 1.610 . S
N526 S525 1.613 . S
N526 C529 1.350 . S
N527 S525 1.610 . S
N527 C528 1.351 . S
C528 C522 1.428 1_565 S
C528 N527 1.351 . S
C528 C529 1.434 . S
C529 C520 1.429 1_565 S
C529 N526 1.350 . S
C529 C528 1.434 . S
C530 C531 1.369 . S
C530 C532 1.419 . S
C530 H534 0.930 . S
C531 C530 1.369 . S
C531 C540 1.429 . S
C532 C530 1.419 . S
C532 C533 1.363 . S
C532 H535 0.929 . S
C533 C532 1.363 . S
C533 C539 1.428 . S
H534 C530 0.930 . S
H535 C532 0.929 . S
S536 N537 1.613 . S
S536 N538 1.610 . S
N537 S536 1.613 . S
N537 C540 1.350 . S
N538 S536 1.610 . S
N538 C539 1.351 . S
C539 C533 1.428 . S
C539 N538 1.351 . S
C539 C540 1.434 . S
C540 C531 1.429 . S
C540 N537 1.350 . S
C540 C539 1.434 . S
C541 C542 1.369 . S
C541 C543 1.418 1_455 S
C541 H545 0.930 . S
C542 C541 1.369 . S
C542 C551 1.429 1_455 S
C543 C541 1.418 1_655 S
C543 C544 1.362 . S
C543 H546 0.929 . S
C544 C543 1.362 . S
C544 C550 1.428 . S
H545 C541 0.930 . S
H546 C543 0.929 . S
S547 N548 1.613 . S
S547 N549 1.610 . S
N548 S547 1.613 . S
N548 C551 1.350 . S
N549 S547 1.610 . S
N549 C550 1.351 . S
C550 C544 1.428 . S
C550 N549 1.351 . S
C550 C551 1.434 . S
C551 C542 1.429 1_655 S
C551 N548 1.350 . S
C551 C550 1.434 . S
C355 C19 2.028 . S
C357 C331 1.964 . S
C366 C46 1.349 . S
C368 C258 1.381 . S
C377 C95 0.641 . S
C379 C297 0.575 . S
C388 C10 2.153 . S
C390 C336 2.052 . S
C401 C253 1.378 . S
C399 C55 1.354 . S
C412 C292 0.921 . S
C410 C86 0.861 . S
C421 C59 3.190 . S
C423 C180 3.125 . S
C432 C90 2.186 . S
C434 C214 2.106 . S
C443 C15 1.339 . S
C445 C136 1.385 . S
C456 C175 3.052 . S
C454 C50 3.116 . S
C467 C219 1.979 . S
C465 C99 2.017 . S
C476 C6 1.292 . S
C478 C141 1.312 . S
C489 C199 1.366 . S
C487 C9 1.327 . S
C498 C58 1.452 . S
C500 C121 1.505 . S
C509 C98 1.723 . S
C511 C160 1.791 . S
C522 C277 1.069 . S
C520 C49 1.069 . S
C533 C316 1.356 1_556 S
C531 C89 1.315 . S
C542 C18 1.442 . S
C544 C238 1.485 . S
