# Generated by pormake.
# Topology anh, (6,3)-cn, num edge types: 1
# Building blocks:
#     Node 0, Type 0, BuildingBlock: CUKXOW_clean_sbu_0, # of connection points: 6
#     Node 1, Type 0, BuildingBlock: CUKXOW_clean_sbu_0, # of connection points: 6
#     Node 2, Type 0, BuildingBlock: CUKXOW_clean_sbu_0, # of connection points: 6
#     Node 3, Type 1, BuildingBlock: MIDCAF_clean_linker_0, # of connection points: 3
#     Node 4, Type 1, BuildingBlock: MIDCAF_clean_linker_0, # of connection points: 3
#     Node 5, Type 1, BuildingBlock: MIDCAF_clean_linker_0, # of connection points: 3
#     Node 6, Type 1, BuildingBlock: MIDCAF_clean_linker_0, # of connection points: 3
#     Node 7, Type 1, BuildingBlock: MIDCAF_clean_linker_0, # of connection points: 3
#     Node 8, Type 1, BuildingBlock: MIDCAF_clean_linker_0, # of connection points: 3
#     Edge 9, Type (0, 1), BuildingBlock: TEMPAE_clean_linker_10, # of connection points: 2
#     Edge 10, Type (0, 1), BuildingBlock: TEMPAE_clean_linker_10, # of connection points: 2
#     Edge 11, Type (0, 1), BuildingBlock: TEMPAE_clean_linker_10, # of connection points: 2
#     Edge 12, Type (0, 1), BuildingBlock: TEMPAE_clean_linker_10, # of connection points: 2
#     Edge 13, Type (0, 1), BuildingBlock: TEMPAE_clean_linker_10, # of connection points: 2
#     Edge 14, Type (0, 1), BuildingBlock: TEMPAE_clean_linker_10, # of connection points: 2
#     Edge 15, Type (0, 1), BuildingBlock: TEMPAE_clean_linker_10, # of connection points: 2
#     Edge 16, Type (0, 1), BuildingBlock: TEMPAE_clean_linker_10, # of connection points: 2
#     Edge 17, Type (0, 1), BuildingBlock: TEMPAE_clean_linker_10, # of connection points: 2
#     Edge 18, Type (0, 1), BuildingBlock: TEMPAE_clean_linker_10, # of connection points: 2
#     Edge 19, Type (0, 1), BuildingBlock: TEMPAE_clean_linker_10, # of connection points: 2
#     Edge 20, Type (0, 1), BuildingBlock: TEMPAE_clean_linker_10, # of connection points: 2
#     Edge 21, Type (0, 1), BuildingBlock: TEMPAE_clean_linker_10, # of connection points: 2
#     Edge 22, Type (0, 1), BuildingBlock: TEMPAE_clean_linker_10, # of connection points: 2
#     Edge 23, Type (0, 1), BuildingBlock: TEMPAE_clean_linker_10, # of connection points: 2
#     Edge 24, Type (0, 1), BuildingBlock: TEMPAE_clean_linker_10, # of connection points: 2
#     Edge 25, Type (0, 1), BuildingBlock: TEMPAE_clean_linker_10, # of connection points: 2
#     Edge 26, Type (0, 1), BuildingBlock: TEMPAE_clean_linker_10, # of connection points: 2
# Relax obj value: 0.134
# Max RMSD: 0.194
# Mean RMSD: 0.139
data_MOF--net-anh--node1-CUKXOW_clean_sbu_0--node2-MIDCAF_clean_linker_0--edge1-TEMPAE_clean_linker_10
_symmetry_space_group_name_H-M    P1
_symmetry_Int_Tables_number       1
_symmetry_cell_setting            triclinic
loop_
_symmetry_equiv_pos_as_xyz
'x, y, z'
_cell_length_a     35.331863
_cell_length_b     34.319375
_cell_length_c     65.565627
_cell_angle_alpha  95.6621
_cell_angle_beta   90.099106
_cell_angle_gamma 115.03892
loop_
_atom_site_label
_atom_site_type_symbol
_atom_site_fract_x
_atom_site_fract_y
_atom_site_fract_z
_atom_type_partial_charge
Tb0 Tb 0.08301 0.53122 0.15228 0.0
C1 C 0.04747 0.4787 0.18988 0.0
Tb2 Tb 0.02184 0.4289 0.14454 0.0
O3 O 0.03171 0.55265 0.15517 0.0
O4 O 0.0195 0.48889 0.15064 0.0
O5 O 0.07762 0.51341 0.18332 0.0
C6 C 0.9516 0.35623 0.14137 0.0
O7 O 0.02009 0.44547 0.17751 0.0
C8 C 0.10285 0.44518 0.14391 0.0
C9 C 0.05486 0.48336 0.10706 0.0
O10 O 0.98392 0.36468 0.15348 0.0
O11 O 0.95928 0.38842 0.13062 0.0
O12 O 0.07219 0.40653 0.14129 0.0
O13 O 0.08584 0.47092 0.14648 0.0
O14 O 0.02647 0.44724 0.11348 0.0
O15 O 0.08252 0.51672 0.11921 0.0
C16 C 0.15097 0.60605 0.15753 0.0
O17 O 0.11789 0.59842 0.14619 0.0
O18 O 0.1457 0.57161 0.16605 0.0
C19 C 1.00161 0.51373 0.15269 0.0
Tb20 Tb 0.49119 0.0133 0.50578 0.0
C21 C 0.53631 0.05105 0.46701 0.0
Tb22 Tb 0.58103 0.08248 0.5114 0.0
O23 O 0.46881 0.06039 0.49734 0.0
O24 O 0.52121 0.0795 0.51722 0.0
O25 O 0.50902 0.01526 0.47406 0.0
C26 C 0.65058 0.15548 0.51188 0.0
O27 O 0.56373 0.08389 0.47944 0.0
C28 C 0.57138 1.00219 0.5097 0.0
C29 C 0.5358 0.04614 0.55085 0.0
O30 O 0.64604 0.11772 0.50359 0.0
O31 O 0.61605 0.15208 0.52 0.0
O32 O 0.60181 0.03433 0.5202 0.0
O33 O 0.55076 0.0165 0.49957 0.0
O34 O 0.56817 0.07757 0.54354 0.0
O35 O 0.50368 0.01724 0.53894 0.0
C36 C 0.42319 0.93869 0.50505 0.0
O37 O 0.46038 0.94528 0.51141 0.0
O38 O 0.42428 0.97407 0.49909 0.0
C39 C 0.49985 0.09306 0.5071 0.0
Tb40 Tb 0.53159 0.53261 0.83338 0.0
C41 C 0.57776 0.5231 0.87175 0.0
Tb42 Tb 0.61595 0.52916 0.82741 0.0
O43 O 0.50347 0.46575 0.84131 0.0
O44 O 0.55253 0.48625 0.82136 0.0
O45 O 0.54968 0.53586 0.86525 0.0
C46 C 0.67613 0.50253 0.8229 0.0
O47 O 0.60387 0.51481 0.85933 0.0
C48 C 0.61766 0.60666 0.82993 0.0
C49 C 0.56839 0.53631 0.78877 0.0
O50 O 0.67924 0.53665 0.83464 0.0
O51 O 0.63932 0.48356 0.81383 0.0
O52 O 0.64408 0.5962 0.81968 0.0
O53 O 0.59511 0.57554 0.83952 0.0
O54 O 0.59783 0.52586 0.79555 0.0
O55 O 0.54148 0.54329 0.80103 0.0
C56 C 0.47393 0.56317 0.83537 0.0
O57 O 0.46674 0.52348 0.82896 0.0
O58 O 0.51304 0.58494 0.84097 0.0
C59 C 0.52998 0.45529 0.83106 0.0
C60 C 0.3907 0.92652 0.20467 0.0
C61 C 0.39653 0.89588 0.1907 0.0
C62 C 0.43694 0.9058 0.18369 0.0
C63 C 0.47085 0.94441 0.19124 0.0
H64 H 0.5785 0.0664 0.1753 0.0
H65 H 0.63881 0.11371 0.15761 0.0
H66 H 0.70335 0.17525 0.21608 0.0
H67 H 0.64334 0.12905 0.23371 0.0
H68 H 0.60176 0.09966 0.27475 0.0
H69 H 0.60333 0.10626 0.31218 0.0
H70 H 0.47095 0.02354 0.31025 0.0
H71 H 0.46906 0.01707 0.27292 0.0
H72 H 0.41941 0.98649 0.22396 0.0
H73 H 0.35995 0.92086 0.20993 0.0
H74 H 0.44284 0.88298 0.17309 0.0
H75 H 0.50187 0.95045 0.18624 0.0
N76 N 0.53526 0.03391 0.20663 0.0
N77 N 0.56849 0.0745 0.23771 0.0
N78 N 0.50117 0.01867 0.23753 0.0
C79 C 0.56893 0.06668 0.21698 0.0
C80 C 0.53476 0.05064 0.24809 0.0
C81 C 0.50122 0.01003 0.2169 0.0
C82 C 0.60584 0.09399 0.20596 0.0
C83 C 0.60558 0.08999 0.18438 0.0
C84 C 0.64017 0.11701 0.17422 0.0
C85 C 0.6757 0.14856 0.18543 0.0
C86 C 0.67613 0.15197 0.20697 0.0
C87 C 0.64169 0.12517 0.21709 0.0
C88 C 0.53532 0.05762 0.27078 0.0
C89 C 0.57287 0.08323 0.28227 0.0
C90 C 0.57387 0.08683 0.30371 0.0
C91 C 0.53731 0.06527 0.31411 0.0
C92 C 0.49955 0.04081 0.30266 0.0
C93 C 0.49858 0.03691 0.28124 0.0
C94 C 0.4651 0.97328 0.20623 0.0
C95 C 0.42467 0.96441 0.21257 0.0
C96 C 0.51358 0.41623 0.5053 0.0
C97 C 0.54522 0.4036 0.51031 0.0
C98 C 0.58136 0.43385 0.52148 0.0
C99 C 0.58423 0.47456 0.52902 0.0
H100 H 0.54457 0.60926 0.50271 0.0
H101 H 0.53915 0.67271 0.49123 0.0
H102 H 0.51282 0.70817 0.55285 0.0
H103 H 0.51683 0.64515 0.56402 0.0
H104 H 0.54622 0.61619 0.60096 0.0
H105 H 0.54761 0.61446 0.63799 0.0
H106 H 0.56264 0.49549 0.62968 0.0
H107 H 0.56073 0.49665 0.59265 0.0
H108 H 0.49097 0.46547 0.5096 0.0
H109 H 0.48541 0.39346 0.49667 0.0
H110 H 0.60603 0.42489 0.52572 0.0
H111 H 0.61101 0.49608 0.53893 0.0
N112 N 0.54154 0.55402 0.52967 0.0
N113 N 0.54284 0.58711 0.56297 0.0
N114 N 0.55406 0.52463 0.55852 0.0
C115 C 0.53852 0.58655 0.54234 0.0
C116 C 0.55046 0.55635 0.5712 0.0
C117 C 0.54966 0.52314 0.53787 0.0
C118 C 0.53149 0.62213 0.53432 0.0
C119 C 0.53694 0.63028 0.51367 0.0
C120 C 0.53411 0.66679 0.50713 0.0
C121 C 0.52552 0.69565 0.5211 0.0
C122 C 0.51875 0.68646 0.54153 0.0
C123 C 0.52156 0.6503 0.54801 0.0
C124 C 0.55323 0.55647 0.59376 0.0
C125 C 0.54995 0.58967 0.60697 0.0
C126 C 0.5509 0.58884 0.62822 0.0
C127 C 0.55502 0.55474 0.6367 0.0
C128 C 0.55882 0.52185 0.62354 0.0
C129 C 0.55799 0.52272 0.60232 0.0
C130 C 0.5515 0.4862 0.52513 0.0
C131 C 0.51689 0.45746 0.5125 0.0
C132 C 0.93681 0.48011 0.84678 0.0
C133 C 0.93675 0.4839 0.82562 0.0
C134 C 0.97475 0.50827 0.81687 0.0
C135 C 1.01145 0.53035 0.82925 0.0
H136 H 0.1442 0.59107 0.83056 0.0
H137 H 0.21624 0.61397 0.82086 0.0
H138 H 0.25931 0.69392 0.87879 0.0
H139 H 0.18721 0.67007 0.88877 0.0
H140 H 0.14035 0.56583 0.92054 0.0
H141 H 0.13519 0.54557 0.95526 0.0
H142 H 1.01318 0.54665 0.95826 0.0
H143 H 0.01736 0.56337 0.92285 0.0
H144 H 0.97148 0.49915 0.87538 0.0
H145 H 0.90811 0.46253 0.85423 0.0
H146 H 0.9758 0.5116 0.8006 0.0
H147 H 0.03998 0.54994 0.82218 0.0
N148 N 0.08491 0.58023 0.85646 0.0
N149 N 0.11712 0.59931 0.88954 0.0
N150 N 0.04642 0.55121 0.88471 0.0
C151 C 0.11931 0.60333 0.86913 0.0
C152 C 0.0807 0.57352 0.8974 0.0
C153 C 0.04825 0.55421 0.86421 0.0
C154 C 0.16032 0.62758 0.86071 0.0
C155 C 0.16892 0.61477 0.84092 0.0
C156 C 0.21026 0.62816 0.83529 0.0
C157 C 0.24333 0.65479 0.84934 0.0
C158 C 0.23433 0.67255 0.86789 0.0
C159 C 0.1931 0.65879 0.87361 0.0
C160 C 0.07924 0.56612 0.91913 0.0
C161 C 0.11262 0.56198 0.92875 0.0
C162 C 0.10963 0.55052 0.94872 0.0
C163 C 0.07365 0.54419 0.95972 0.0
C164 C 0.0409 0.54996 0.95018 0.0
C165 C 0.0434 0.5601 0.92998 0.0
C166 C 1.01075 0.52833 0.85059 0.0
C167 C 0.97327 0.50189 0.85906 0.0
C168 C 0.16136 0.66048 0.44795 0.0
C169 C 0.17074 0.66248 0.46896 0.0
C170 C 0.14206 0.63163 0.48054 0.0
C171 C 0.1052 0.59882 0.47112 0.0
H172 H 0.98141 0.50587 0.48148 0.0
H173 H 0.92204 0.45721 0.49937 0.0
H174 H 0.86813 0.37975 0.44177 0.0
H175 H 0.92622 0.4281 0.42397 0.0
H176 H 0.97633 0.44754 0.38342 0.0
H177 H 0.97529 0.43616 0.34596 0.0
H178 H 0.06366 0.56927 0.34468 0.0
H179 H 0.06521 0.58078 0.38206 0.0
H180 H 0.11904 0.62745 0.42232 0.0
H181 H 0.18219 0.68444 0.4387 0.0
H182 H 0.14847 0.6324 0.49677 0.0
H183 H 0.084 0.57504 0.48033 0.0
N184 N 0.02741 0.53363 0.45008 0.0
N185 N 0.99181 0.49483 0.41912 0.0
N186 N 0.05623 0.55461 0.41856 0.0
C187 C 0.9936 0.50061 0.43996 0.0
C188 C 0.02292 0.52173 0.40833 0.0
C189 C 0.05892 0.56077 0.43938 0.0
C190 C 0.95857 0.47111 0.45125 0.0
C191 C 0.95682 0.47847 0.47266 0.0
C192 C 0.92288 0.45062 0.48292 0.0
C193 C 0.89013 0.41502 0.47194 0.0
C194 C 0.89228 0.40751 0.45062 0.0
C195 C 0.92592 0.43518 0.44042 0.0
C196 C 0.02095 0.51504 0.38569 0.0
C197 C 0.99536 0.47444 0.37515 0.0
C198 C 0.99487 0.46783 0.35376 0.0
C199 C 0.01935 0.50187 0.34255 0.0
C200 C 0.04429 0.54262 0.35303 0.0
C201 C 0.04533 0.54907 0.3744 0.0
C202 C 0.09647 0.59636 0.44997 0.0
C203 C 0.12486 0.62784 0.43858 0.0
C204 C 0.53515 0.13736 0.83167 0.0
C205 C 0.56678 0.17787 0.8281 0.0
C206 C 0.60338 0.17919 0.81915 0.0
C207 C 0.6068 0.14088 0.81242 0.0
H208 H 0.59451 0.98029 0.83487 0.0
H209 H 0.59992 0.91566 0.84498 0.0
H210 H 0.55003 0.84877 0.78492 0.0
H211 H 0.54375 0.91181 0.77512 0.0
H212 H 0.55312 0.96158 0.73792 0.0
H213 H 0.54447 0.96192 0.70108 0.0
H214 H 0.56113 0.09465 0.71079 0.0
H215 H 0.56896 0.09425 0.7476 0.0
H216 H 0.51288 0.06816 0.82679 0.0
H217 H 0.50666 0.13529 0.83862 0.0
H218 H 0.62813 0.20971 0.81598 0.0
H219 H 0.63386 0.14279 0.80405 0.0
N220 N 0.57157 0.02616 0.80976 0.0
N221 N 0.56549 0.9923 0.77613 0.0
N222 N 0.5695 0.06217 0.78128 0.0
C223 C 0.56848 0.99111 0.79671 0.0
C224 C 0.56593 0.02752 0.76827 0.0
C225 C 0.5722 0.06188 0.80189 0.0
C226 C 0.56886 0.95155 0.80415 0.0
C227 C 0.58416 0.95152 0.82399 0.0
C228 C 0.58757 0.91459 0.8297 0.0
C229 C 0.57536 0.87682 0.81578 0.0
C230 C 0.55915 0.8768 0.7962 0.0
C231 C 0.55591 0.9134 0.79051 0.0
C232 C 0.56169 0.02787 0.7458 0.0
C233 C 0.555 0.99089 0.73224 0.0
C234 C 0.55019 0.9911 0.7111 0.0
C235 C 0.55198 0.02826 0.70303 0.0
C236 C 0.55891 0.06527 0.71655 0.0
C237 C 0.56368 0.06509 0.73768 0.0
C238 C 0.57418 0.10042 0.81487 0.0
C239 C 0.53892 0.09897 0.82519 0.0
C240 C 0.66706 0.4322 0.12658 0.0
C241 C 0.69628 0.46477 0.14064 0.0
C242 C 0.68432 0.49598 0.1506 0.0
C243 C 0.64567 0.49642 0.14542 0.0
H244 H 0.47381 0.44564 0.14895 0.0
H245 H 0.40485 0.44379 0.15687 0.0
H246 H 0.42116 0.53533 0.1133 0.0
H247 H 0.48892 0.53717 0.10551 0.0
H248 H 0.52819 0.5238 0.06353 0.0
H249 H 0.53646 0.5302 0.02688 0.0
H250 H 0.613 0.45987 0.02511 0.0
H251 H 0.60519 0.45366 0.06185 0.0
H252 H 0.60853 0.40883 0.10945 0.0
H253 H 0.67439 0.40699 0.11891 0.0
H254 H 0.70589 0.52173 0.16146 0.0
H255 H 0.6389 0.52276 0.15214 0.0
N256 N 0.55256 0.47844 0.12906 0.0
N257 N 0.52951 0.48989 0.09738 0.0
N258 N 0.58851 0.47601 0.09899 0.0
C259 C 0.52436 0.48662 0.11778 0.0
C260 C 0.56118 0.48452 0.08787 0.0
C261 C 0.58503 0.47328 0.11947 0.0
C262 C 0.48699 0.49123 0.12644 0.0
C263 C 0.46305 0.46614 0.14149 0.0
C264 C 0.42339 0.46494 0.14593 0.0
C265 C 0.40682 0.48869 0.13538 0.0
C266 C 0.43214 0.51572 0.12136 0.0
C267 C 0.47135 0.51696 0.117 0.0
C268 C 0.56604 0.48822 0.06562 0.0
C269 C 0.54678 0.50966 0.05536 0.0
C270 C 0.5517 0.51359 0.03442 0.0
C271 C 0.57544 0.49562 0.02324 0.0
C272 C 0.59442 0.47387 0.0334 0.0
C273 C 0.59006 0.47051 0.05443 0.0
C274 C 0.61808 0.46559 0.13022 0.0
C275 C 0.62882 0.4328 0.12138 0.0
C276 C 0.15982 0.42001 0.14313 0.0
C277 C 0.14831 0.45461 0.14398 0.0
C278 C 0.202 0.42671 0.14267 0.0
C279 C 0.23415 0.46925 0.14316 0.0
C280 C 0.22278 0.50449 0.14415 0.0
C281 C 0.18009 0.49673 0.14444 0.0
C282 C 0.21208 0.38795 0.14125 0.0
C283 C 0.25573 0.55044 0.14485 0.0
C284 C 0.34563 0.48384 0.15714 0.0
C285 C 0.36269 0.48397 0.13778 0.0
C286 C 0.30445 0.48038 0.1592 0.0
C287 C 0.27916 0.47618 0.1415 0.0
C288 C 0.29625 0.4761 0.12196 0.0
C289 C 0.33751 0.48012 0.12036 0.0
C290 C 0.28791 0.48113 0.18036 0.0
C291 C 0.27063 0.47105 0.1026 0.0
H292 H 0.13561 0.38727 0.14268 0.0
H293 H 0.17161 0.52354 0.14467 0.0
H294 H 0.22819 0.38638 0.12689 0.0
H295 H 0.23372 0.39111 0.15423 0.0
H296 H 0.18367 0.35704 0.14143 0.0
H297 H 0.24189 0.57391 0.14396 0.0
H298 H 0.27512 0.55916 0.15936 0.0
H299 H 0.27693 0.55363 0.13203 0.0
H300 H 0.36472 0.48713 0.17072 0.0
H301 H 0.34991 0.4795 0.10529 0.0
H302 H 0.26047 0.45008 0.18183 0.0
H303 H 0.27713 0.5072 0.18278 0.0
H304 H 0.31181 0.48637 0.19264 0.0
H305 H 0.24269 0.43949 0.10125 0.0
H306 H 0.28868 0.47271 0.0886 0.0
H307 H 0.25929 0.49673 0.10324 0.0
C308 C 0.68928 0.23543 0.51992 0.0
C309 C 0.68753 0.19634 0.51032 0.0
C310 C 0.72281 0.27494 0.51701 0.0
C311 C 0.75469 0.27509 0.50393 0.0
C312 C 0.75354 0.23546 0.49471 0.0
C313 C 0.72006 0.1965 0.49816 0.0
C314 C 0.72329 0.31647 0.52733 0.0
C315 C 0.78663 0.23426 0.48042 0.0
C316 C 0.81374 0.368 0.47318 0.0
C317 C 0.85412 0.38457 0.48241 0.0
C318 C 0.78039 0.33389 0.48079 0.0
C319 C 0.78746 0.31638 0.49829 0.0
C320 C 0.82731 0.33528 0.50869 0.0
C321 C 0.86034 0.36909 0.50054 0.0
C322 C 0.73834 0.31465 0.46924 0.0
C323 C 0.83568 0.31807 0.52768 0.0
H324 H 0.66404 0.23523 0.52936 0.0
H325 H 0.71863 0.16622 0.49073 0.0
H326 H 0.75478 0.33789 0.53439 0.0
H327 H 0.71602 0.33408 0.51574 0.0
H328 H 0.69996 0.31047 0.53935 0.0
H329 H 0.78199 0.2007 0.47516 0.0
H330 H 0.78606 0.2507 0.46675 0.0
H331 H 0.81814 0.25194 0.48815 0.0
H332 H 0.80855 0.38065 0.45945 0.0
H333 H 0.89146 0.38177 0.50777 0.0
H334 H 0.71312 0.31169 0.47987 0.0
H335 H 0.73167 0.28158 0.46208 0.0
H336 H 0.73711 0.33429 0.45698 0.0
H337 H 0.81026 0.31273 0.53849 0.0
H338 H 0.86598 0.34037 0.53572 0.0
H339 H 0.83652 0.28638 0.52334 0.0
C340 C 0.59604 0.66303 0.8459 0.0
C341 C 0.61358 0.64783 0.82961 0.0
C342 C 0.59034 0.7011 0.84533 0.0
C343 C 0.60275 0.72475 0.82808 0.0
C344 C 0.62147 0.70997 0.81181 0.0
C345 C 0.62681 0.67182 0.81282 0.0
C346 C 0.57123 0.71593 0.8633 0.0
C347 C 0.63521 0.73406 0.79315 0.0
C348 C 0.55034 0.7961 0.81417 0.0
C349 C 0.58069 0.83787 0.82098 0.0
C350 C 0.55676 0.75914 0.81674 0.0
C351 C 0.59445 0.76372 0.82651 0.0
C352 C 0.62458 0.80561 0.83412 0.0
C353 C 0.61736 0.84213 0.83128 0.0
C354 C 0.52377 0.71543 0.80808 0.0
C355 C 0.66514 0.81197 0.8446 0.0
H356 H 0.58669 0.64507 0.85913 0.0
H357 H 0.64051 0.66019 0.80023 0.0
H358 H 0.59639 0.74264 0.87303 0.0
H359 H 0.54908 0.72849 0.85812 0.0
H360 H 0.55454 0.68944 0.87294 0.0
H361 H 0.65145 0.71983 0.78241 0.0
H362 H 0.60757 0.73347 0.78483 0.0
H363 H 0.65651 0.76847 0.79786 0.0
H364 H 0.5216 0.79223 0.80647 0.0
H365 H 0.64122 0.87417 0.83642 0.0
H366 H 0.52094 0.68998 0.81791 0.0
H367 H 0.53277 0.70639 0.79274 0.0
H368 H 0.49266 0.7158 0.80622 0.0
H369 H 0.65869 0.79269 0.85785 0.0
H370 H 0.68489 0.84644 0.85015 0.0
H371 H 0.6831 0.80015 0.8338 0.0
C372 C 0.92517 0.46133 0.15385 0.0
C373 C 0.95594 0.50292 0.1516 0.0
C374 C 0.88212 0.45221 0.15308 0.0
C375 C 0.8694 0.48535 0.14975 0.0
C376 C 0.90059 0.52737 0.14755 0.0
C377 C 0.94317 0.53561 0.14865 0.0
C378 C 0.85033 0.407 0.15567 0.0
C379 C 0.88897 0.56373 0.14378 0.0
C380 C 0.7607 0.45931 0.1265 0.0
C381 C 0.73988 0.46776 0.14348 0.0
C382 C 0.80204 0.46346 0.12847 0.0
C383 C 0.82377 0.4764 0.14791 0.0
C384 C 0.80274 0.48406 0.16522 0.0
C385 C 0.76134 0.47993 0.1628 0.0
C386 C 0.82297 0.45524 0.10952 0.0
C387 C 0.82425 0.49726 0.1863 0.0
H388 H 0.93472 0.43612 0.15655 0.0
H389 H 0.96669 0.56789 0.14695 0.0
H390 H 0.82642 0.40784 0.16644 0.0
H391 H 0.83388 0.3909 0.14067 0.0
H392 H 0.86507 0.38707 0.16146 0.0
H393 H 0.91685 0.5946 0.1425 0.0
H394 H 0.86917 0.55495 0.12941 0.0
H395 H 0.87035 0.56904 0.15646 0.0
H396 H 0.74507 0.45062 0.11141 0.0
H397 H 0.74571 0.48611 0.17609 0.0
H398 H 0.83506 0.43091 0.11186 0.0
H399 H 0.85013 0.48552 0.10665 0.0
H400 H 0.80139 0.44353 0.09567 0.0
H401 H 0.83672 0.47388 0.18996 0.0
H402 H 0.80293 0.49907 0.19842 0.0
H403 H 0.85124 0.5294 0.18665 0.0
C404 C 0.34978 0.89196 0.49293 0.0
C405 C 0.38614 0.89696 0.50358 0.0
C406 C 0.31522 0.85163 0.48993 0.0
C407 C 0.31694 0.81567 0.49809 0.0
C408 C 0.35301 0.82105 0.50969 0.0
C409 C 0.38748 0.86167 0.51209 0.0
C410 C 0.27754 0.84715 0.47726 0.0
C411 C 0.35617 0.78387 0.5189 0.0
C412 C 0.21035 0.72096 0.49723 0.0
C413 C 0.21015 0.69746 0.47844 0.0
C414 C 0.24616 0.7581 0.50467 0.0
C415 C 0.28215 0.77213 0.4929 0.0
C416 C 0.28302 0.74681 0.47469 0.0
C417 C 0.2471 0.70961 0.46777 0.0
C418 C 0.24481 0.78353 0.52457 0.0
C419 C 0.32103 0.76039 0.46185 0.0
H420 H 0.3488 0.91932 0.48636 0.0
H421 H 0.41562 0.86567 0.52044 0.0
H422 H 0.27319 0.8246 0.46319 0.0
H423 H 0.24887 0.83321 0.48602 0.0
H424 H 0.28063 0.8786 0.47264 0.0
H425 H 0.37831 0.7956 0.53254 0.0
H426 H 0.32534 0.76044 0.52348 0.0
H427 H 0.36815 0.7665 0.50738 0.0
H428 H 0.18198 0.71163 0.50561 0.0
H429 H 0.24747 0.6908 0.45355 0.0
H430 H 0.24437 0.81447 0.52135 0.0
H431 H 0.27326 0.79162 0.53445 0.0
H432 H 0.21676 0.76551 0.53317 0.0
H433 H 0.32653 0.79124 0.45569 0.0
H434 H 0.31751 0.73575 0.44876 0.0
H435 H 0.34921 0.7662 0.47142 0.0
C436 C 0.52093 0.39015 0.84831 0.0
C437 C 0.53492 0.41465 0.83172 0.0
C438 C 0.52635 0.352 0.84929 0.0
C439 C 0.54556 0.33762 0.83312 0.0
C440 C 0.55963 0.36235 0.81631 0.0
C441 C 0.55422 0.40057 0.81586 0.0
C442 C 0.51163 0.32715 0.86766 0.0
C443 C 0.57999 0.3482 0.79866 0.0
C444 C 0.59187 0.25721 0.84026 0.0
C445 C 0.55999 0.21808 0.83142 0.0
C446 C 0.58714 0.29612 0.84151 0.0
C447 C 0.54991 0.29613 0.83341 0.0
C448 C 0.51736 0.25658 0.82481 0.0
C449 C 0.52268 0.2181 0.82405 0.0
C450 C 0.62236 0.33738 0.85111 0.0
C451 C 0.47746 0.25514 0.81569 0.0
H452 H 0.50627 0.40117 0.86068 0.0
H453 H 0.56452 0.41915 0.80288 0.0
H454 H 0.48698 0.2943 0.86271 0.0
H455 H 0.53791 0.32308 0.87495 0.0
H456 H 0.49889 0.34353 0.87933 0.0
H457 H 0.58923 0.37107 0.78678 0.0
H458 H 0.60828 0.34553 0.80436 0.0
H459 H 0.55816 0.3157 0.7914 0.0
H460 H 0.62073 0.25743 0.84604 0.0
H461 H 0.49819 0.1882 0.81687 0.0
H462 H 0.61041 0.35373 0.86315 0.0
H463 H 0.63565 0.35998 0.83932 0.0
H464 H 0.6479 0.33146 0.85805 0.0
H465 H 0.46254 0.26925 0.82722 0.0
H466 H 0.45465 0.22167 0.81013 0.0
H467 H 0.48472 0.27497 0.80261 0.0
C468 C 0.53468 0.92505 0.49451 0.0
C469 C 0.56259 0.95606 0.50944 0.0
C470 C 0.52597 0.88105 0.49417 0.0
C471 C 0.54537 0.86781 0.50927 0.0
C472 C 0.57346 0.89912 0.52443 0.0
C473 C 0.58194 0.94291 0.52423 0.0
C474 C 0.49599 0.8488 0.47772 0.0
C475 C 0.59425 0.8863 0.54102 0.0
C476 C 0.49838 0.75275 0.52355 0.0
C477 C 0.5263 0.73683 0.51514 0.0
C478 C 0.50317 0.79472 0.52107 0.0
C479 C 0.5362 0.82128 0.50955 0.0
C480 C 0.56264 0.80436 0.49978 0.0
C481 C 0.55755 0.76246 0.50279 0.0
C482 C 0.47421 0.81141 0.53171 0.0
C483 C 0.59765 0.83133 0.48699 0.0
H484 H 0.51977 0.93524 0.483 0.0
H485 H 0.60337 0.96684 0.53585 0.0
H486 H 0.51063 0.82902 0.46971 0.0
H487 H 0.46767 0.82632 0.48479 0.0
H488 H 0.48613 0.86474 0.4662 0.0
H489 H 0.61489 0.9145 0.55181 0.0
H490 H 0.57012 0.86271 0.5499 0.0
H491 H 0.61322 0.87018 0.53402 0.0
H492 H 0.47348 0.73283 0.5327 0.0
H493 H 0.57943 0.75067 0.49629 0.0
H494 H 0.45988 0.82407 0.52055 0.0
H495 H 0.49229 0.83865 0.54352 0.0
H496 H 0.44882 0.78601 0.53926 0.0
H497 H 0.5859 0.84631 0.47577 0.0
H498 H 0.61225 0.81197 0.47852 0.0
H499 H 0.62215 0.85798 0.49707 0.0
C500 C 0.70753 0.46006 0.80217 0.0
C501 C 0.70987 0.48891 0.81935 0.0
C502 C 0.74107 0.44941 0.79779 0.0
C503 C 0.7772 0.46765 0.81115 0.0
C504 C 0.77874 0.49536 0.82901 0.0
C505 C 0.74517 0.50604 0.83273 0.0
C506 C 0.7384 0.42051 0.77842 0.0
C507 C 0.81631 0.5147 0.84397 0.0
C508 C 0.86165 0.43193 0.819 0.0
C509 C 0.89606 0.46893 0.81405 0.0
C510 C 0.82082 0.42749 0.81559 0.0
C511 C 0.81472 0.46017 0.80648 0.0
C512 C 0.84865 0.49261 0.79779 0.0
C513 C 0.88924 0.497 0.80189 0.0
C514 C 0.7852 0.39157 0.8245 0.0
C515 C 0.84288 0.52653 0.78686 0.0
H516 H 0.68005 0.44692 0.79178 0.0
H517 H 0.74663 0.52805 0.84609 0.0
H518 H 0.75365 0.44099 0.76609 0.0
H519 H 0.75475 0.3997 0.78047 0.0
H520 H 0.70538 0.3996 0.7732 0.0
H521 H 0.81106 0.53287 0.85782 0.0
H522 H 0.82409 0.48888 0.84896 0.0
H523 H 0.84385 0.5372 0.8364 0.0
H524 H 0.86676 0.40903 0.8276 0.0
H525 H 0.91547 0.52527 0.79758 0.0
H526 H 0.75631 0.37943 0.81449 0.0
H527 H 0.77852 0.40424 0.83964 0.0
H528 H 0.79303 0.36412 0.82678 0.0
H529 H 0.81358 0.51199 0.77705 0.0
H530 H 0.86962 0.54297 0.77719 0.0
H531 H 0.8406 0.55133 0.79837 0.0
C532 C 0.1863 0.6853 0.15522 0.0
C533 C 0.18825 0.64767 0.16057 0.0
C534 C 0.22087 0.72561 0.15897 0.0
C535 C 0.2585 0.72801 0.16781 0.0
C536 C 0.26104 0.68974 0.1725 0.0
C537 C 0.2256 0.65003 0.1691 0.0
C538 C 0.21662 0.76577 0.15418 0.0
C539 C 0.3009 0.69084 0.18149 0.0
C540 C 0.35731 0.83138 0.16472 0.0
C541 C 0.36105 0.85291 0.18451 0.0
C542 C 0.32447 0.79038 0.15912 0.0
C543 C 0.29414 0.77087 0.17348 0.0
C544 C 0.29749 0.79248 0.19338 0.0
C545 C 0.33113 0.83281 0.19872 0.0
C546 C 0.32228 0.76787 0.13788 0.0
C547 C 0.26545 0.77303 0.20906 0.0
H548 H 0.15732 0.68341 0.14865 0.0
H549 H 0.22712 0.62081 0.17312 0.0
H550 H 0.22051 0.78729 0.16858 0.0
H551 H 0.24156 0.78411 0.14404 0.0
H552 H 0.18577 0.75815 0.14662 0.0
H553 H 0.29901 0.65786 0.18223 0.0
H554 H 0.32771 0.70895 0.17222 0.0
H555 H 0.30752 0.70801 0.19724 0.0
H556 H 0.37988 0.84664 0.15353 0.0
H557 H 0.33416 0.84834 0.21422 0.0
H558 H 0.29297 0.76271 0.12948 0.0
H559 H 0.32159 0.73551 0.13894 0.0
H560 H 0.34921 0.78663 0.12879 0.0
H561 H 0.23375 0.76597 0.20278 0.0
H562 H 0.27178 0.79474 0.22362 0.0
H563 H 0.26509 0.74191 0.21255 0.0
C564 C 0.53344 0.1707 0.52157 0.0
C565 C 0.50925 0.13892 0.50593 0.0
C566 C 0.54102 0.2142 0.521 0.0
C567 C 0.52459 0.22617 0.50418 0.0
C568 C 0.50149 0.19428 0.48796 0.0
C569 C 0.49364 0.15091 0.48916 0.0
C570 C 0.56539 0.24705 0.53873 0.0
C571 C 0.48451 0.20587 0.46949 0.0
C572 C 0.50238 0.32537 0.51347 0.0
C573 C 0.53841 0.35768 0.50653 0.0
C574 C 0.49748 0.28248 0.51266 0.0
C575 C 0.52899 0.27135 0.50429 0.0
C576 C 0.56483 0.30356 0.49657 0.0
C577 C 0.56936 0.34652 0.49803 0.0
C578 C 0.45925 0.24939 0.52147 0.0
C579 C 0.59868 0.29282 0.48713 0.0
H580 H 0.5454 0.16133 0.53456 0.0
H581 H 0.47537 0.12634 0.47692 0.0
H582 H 0.59268 0.27387 0.53311 0.0
H583 H 0.54533 0.26131 0.54625 0.0
H584 H 0.57681 0.23265 0.55039 0.0
H585 H 0.47062 0.1781 0.45736 0.0
H586 H 0.4601 0.21679 0.47418 0.0
H587 H 0.50976 0.23308 0.46288 0.0
H588 H 0.4788 0.33407 0.52041 0.0
H589 H 0.59729 0.37152 0.49271 0.0
H590 H 0.46891 0.23602 0.53421 0.0
H591 H 0.44196 0.222 0.50961 0.0
H592 H 0.43762 0.26327 0.5274 0.0
H593 H 0.61467 0.28351 0.49902 0.0
H594 H 0.6225 0.32054 0.48012 0.0
H595 H 0.58483 0.26477 0.47517 0.0
C596 C 0.45662 0.62616 0.84105 0.0
C597 C 0.44338 0.58173 0.83551 0.0
C598 C 0.42807 0.64466 0.84152 0.0
C599 C 0.38525 0.61771 0.83688 0.0
C600 C 0.37185 0.5729 0.83085 0.0
C601 C 0.40127 0.55545 0.83009 0.0
C602 C 0.4434 0.69263 0.84768 0.0
C603 C 0.32624 0.54309 0.82607 0.0
C604 C 0.30308 0.64413 0.86319 0.0
C605 C 0.285 0.65499 0.84689 0.0
C606 C 0.33712 0.63395 0.86031 0.0
C607 C 0.35378 0.63509 0.84068 0.0
C608 C 0.33781 0.64918 0.82452 0.0
C609 C 0.30318 0.65862 0.82777 0.0
C610 C 0.35313 0.61881 0.87791 0.0
C611 C 0.35571 0.65186 0.80356 0.0
H612 H 0.48928 0.64644 0.84524 0.0
H613 H 0.39118 0.5211 0.82573 0.0
H614 H 0.4305 0.70715 0.83675 0.0
H615 H 0.43238 0.69814 0.86306 0.0
H616 H 0.47801 0.70986 0.84827 0.0
H617 H 0.32136 0.5096 0.82047 0.0
H618 H 0.3084 0.54198 0.84009 0.0
H619 H 0.31302 0.55551 0.81428 0.0
H620 H 0.28872 0.64043 0.8779 0.0
H621 H 0.2893 0.66716 0.81519 0.0
H622 H 0.38755 0.63702 0.88019 0.0
H623 H 0.34618 0.5841 0.87428 0.0
H624 H 0.33867 0.62272 0.89254 0.0
H625 H 0.39039 0.66822 0.80486 0.0
H626 H 0.3442 0.66953 0.79372 0.0
H627 H 0.34668 0.61873 0.79582 0.0
C628 C 0.87507 0.31825 0.13209 0.0
C629 C 0.91023 0.32014 0.14283 0.0
C630 C 0.83467 0.28816 0.13598 0.0
C631 C 0.82959 0.25957 0.151 0.0
C632 C 0.86527 0.25992 0.16105 0.0
C633 C 0.90518 0.29018 0.1568 0.0
C634 C 0.79744 0.28855 0.12484 0.0
C635 C 0.86124 0.23015 0.17724 0.0
C636 C 0.73353 0.22168 0.18262 0.0
C637 C 0.71254 0.17788 0.17495 0.0
C638 C 0.77078 0.24903 0.17436 0.0
C639 C 0.7873 0.23233 0.15785 0.0
C640 C 0.76514 0.18878 0.14928 0.0
C641 C 0.72804 0.16197 0.15799 0.0
C642 C 0.79331 0.29538 0.18387 0.0
C643 C 0.78154 0.17004 0.13151 0.0
H644 H 0.87895 0.34153 0.12131 0.0
H645 H 0.93237 0.2916 0.16511 0.0
H646 H 0.77508 0.25516 0.11899 0.0
H647 H 0.78073 0.302 0.13565 0.0
H648 H 0.80676 0.3085 0.1118 0.0
H649 H 0.89202 0.23218 0.18245 0.0
H650 H 0.84627 0.23878 0.19073 0.0
H651 H 0.84091 0.19614 0.17129 0.0
H652 H 0.72117 0.23446 0.19539 0.0
H653 H 0.71206 0.12815 0.15201 0.0
H654 H 0.79851 0.31774 0.17198 0.0
H655 H 0.82449 0.30115 0.19038 0.0
H656 H 0.77568 0.30362 0.19627 0.0
H657 H 0.79024 0.19166 0.11913 0.0
H658 H 0.75831 0.13739 0.12508 0.0
H659 H 0.81023 0.16745 0.13668 0.0
C660 C 0.05682 0.45644 0.07055 0.0
C661 C 0.055 0.48816 0.08511 0.0
C662 C 0.05963 0.46269 0.04966 0.0
C663 C 0.05903 0.50077 0.04336 0.0
C664 C 0.05565 0.53207 0.05807 0.0
C665 C 0.05448 0.52571 0.07885 0.0
C666 C 0.06459 0.42936 0.03445 0.0
C667 C 0.05355 0.57241 0.05191 0.0
C668 C 0.10573 0.54604 0.9943 0.0
C669 C 0.07014 0.53131 0.98095 0.0
C670 C 0.10278 0.53443 0.01433 0.0
C671 C 0.06309 0.50885 0.0215 0.0
C672 C 0.02706 0.49364 0.00819 0.0
C673 C 0.03112 0.50437 0.98798 0.0
C674 C 0.14207 0.55044 0.02797 0.0
C675 C 0.98405 0.4672 0.01549 0.0
H676 H 0.05752 0.42758 0.07559 0.0
H677 H 0.0527 0.54996 0.09025 0.0
H678 H 0.03943 0.41749 0.02218 0.0
H679 H 0.09479 0.4444 0.02696 0.0
H680 H 0.06382 0.40125 0.04181 0.0
H681 H 0.04793 0.59191 0.0651 0.0
H682 H 0.08328 0.59292 0.04519 0.0
H683 H 0.02815 0.56361 0.03996 0.0
H684 H 0.13597 0.56743 0.9893 0.0
H685 H 1.0035 0.49172 0.97774 0.0
H686 H 0.14355 0.52329 0.03531 0.0
H687 H 0.14172 0.57459 0.04044 0.0
H688 H 0.17083 0.56573 0.01938 0.0
H689 H 0.98312 0.43785 0.02162 0.0
H690 H 0.95927 0.45709 0.00307 0.0
H691 H 0.97676 0.48641 0.0282 0.0
C692 C 0.5145 0.01769 0.43078 0.0
C693 C 0.53677 0.05435 0.44468 0.0
C694 C 0.51494 0.02041 0.40956 0.0
C695 C 0.53787 0.06084 0.40209 0.0
C696 C 0.56011 0.09804 0.41605 0.0
C697 C 0.55943 0.09432 0.43718 0.0
C698 C 0.49106 0.97997 0.39512 0.0
C699 C 0.58461 0.14176 0.40866 0.0
C700 C 0.56995 0.05966 0.34691 0.0
C701 C 0.53872 0.06658 0.33678 0.0
C702 C 0.57031 0.05817 0.36821 0.0
C703 C 0.53882 0.06404 0.37965 0.0
C704 C 0.50771 0.07196 0.36957 0.0
C705 C 0.50793 0.07295 0.34823 0.0
C706 C 0.60383 0.04936 0.3784 0.0
C707 C 0.47389 0.07882 0.3813 0.0
H708 H 0.497 0.98668 0.43644 0.0
H709 H 0.57646 0.12289 0.44782 0.0
H710 H 0.46745 0.9844 0.38564 0.0
H711 H 0.51275 0.97374 0.38447 0.0
H712 H 0.47485 0.95103 0.40339 0.0
H713 H 0.59966 0.16764 0.42153 0.0
H714 H 0.60926 0.14047 0.39853 0.0
H715 H 0.56367 0.15063 0.39944 0.0
H716 H 0.59349 0.05417 0.33807 0.0
H717 H 0.48398 0.07873 0.34046 0.0
H718 H 0.58925 0.01883 0.38564 0.0
H719 H 0.62101 0.07565 0.39077 0.0
H720 H 0.62666 0.04659 0.36739 0.0
H721 H 0.45473 0.04941 0.38869 0.0
H722 H 0.45291 0.08618 0.37128 0.0
H723 H 0.48813 0.10585 0.39372 0.0
C724 C 0.59348 0.53281 0.75334 0.0
C725 C 0.56543 0.54008 0.7666 0.0
C726 C 0.59122 0.53612 0.73229 0.0
C727 C 0.56013 0.54692 0.72428 0.0
C728 C 0.53184 0.55453 0.73753 0.0
C729 C 0.53484 0.55105 0.75857 0.0
C730 C 0.62201 0.52785 0.71861 0.0
C731 C 0.49828 0.5661 0.72948 0.0
C732 C 0.57887 0.59053 0.67248 0.0
C733 C 0.55513 0.55325 0.65921 0.0
C734 C 0.58015 0.58916 0.69377 0.0
C735 C 0.55705 0.54959 0.70193 0.0
C736 C 0.5324 0.51206 0.68865 0.0
C737 C 0.53177 0.51434 0.66744 0.0
C738 C 0.60694 0.62979 0.70748 0.0
C739 C 0.50718 0.46934 0.69683 0.0
H740 H 0.61731 0.52442 0.75936 0.0
H741 H 0.5131 0.55686 0.76868 0.0
H742 H 0.60502 0.50029 0.70677 0.0
H743 H 0.63965 0.55657 0.71045 0.0
H744 H 0.64471 0.52043 0.72732 0.0
H745 H 0.47902 0.57149 0.74185 0.0
H746 H 0.5127 0.59585 0.72164 0.0
H747 H 0.47737 0.53982 0.71794 0.0
H748 H 0.59724 0.62058 0.66616 0.0
H749 H 0.51286 0.48562 0.65725 0.0
H750 H 0.63218 0.62505 0.71543 0.0
H751 H 0.58793 0.63679 0.71949 0.0
H752 H 0.62145 0.65836 0.69879 0.0
H753 H 0.52841 0.45858 0.70463 0.0
H754 H 0.48838 0.44361 0.68451 0.0
H755 H 0.48577 0.47311 0.7084 0.0
C756 C 0.50514 0.00747 0.58147 0.0
C757 C 0.53567 0.04317 0.57324 0.0
C758 C 0.50585 0.00351 0.60256 0.0
C759 C 0.53776 0.03608 0.6157 0.0
C760 C 0.56833 0.07242 0.60755 0.0
C761 C 0.56695 0.0755 0.58642 0.0
C762 C 0.4728 0.96424 0.61074 0.0
C763 C 0.60276 0.1079 0.62111 0.0
C764 C 0.52282 0.04807 0.67289 0.0
C765 C 0.54691 0.02864 0.68057 0.0
C766 C 0.51896 0.05006 0.65177 0.0
C767 C 0.53961 0.03208 0.638 0.0
C768 C 0.56334 0.0117 0.6456 0.0
C769 C 0.56675 0.01027 0.6668 0.0
C770 C 0.4933 0.07196 0.64422 0.0
C771 C 0.58585 0.99221 0.63136 0.0
H772 H 0.48094 0.98222 0.57141 0.0
H773 H 0.59064 0.10327 0.58025 0.0
H774 H 0.48774 0.94595 0.61789 0.0
H775 H 0.45592 0.9744 0.62285 0.0
H776 H 0.44967 0.94221 0.59854 0.0
H777 H 0.62374 0.13437 0.6124 0.0
H778 H 0.58908 0.12187 0.63337 0.0
H779 H 0.62184 0.09436 0.62874 0.0
H780 H 0.50686 0.0617 0.68343 0.0
H781 H 0.58579 0.99563 0.67265 0.0
H782 H 0.46866 0.04944 0.63279 0.0
H783 H 0.51354 0.1003 0.6364 0.0
H784 H 0.47817 0.08315 0.65688 0.0
H785 H 0.56352 0.96835 0.61941 0.0
H786 H 0.60146 0.97586 0.63963 0.0
H787 H 0.60984 0.01789 0.62335 0.0
C788 C 0.54429 0.51046 0.90537 0.0
C789 C 0.57939 0.51739 0.89374 0.0
C790 C 0.54514 0.50561 0.92632 0.0
C791 C 0.58224 0.50853 0.93597 0.0
C792 C 0.61775 0.51525 0.9243 0.0
C793 C 0.61577 0.51918 0.90323 0.0
C794 C 0.50635 0.49766 0.93815 0.0
C795 C 0.65803 0.51916 0.93415 0.0
C796 C 0.59177 0.53948 0.99353 0.0
C797 C 0.5799 0.49926 0.00097 0.0
C798 C 0.59425 0.54319 0.97241 0.0
C799 C 0.58389 0.50562 0.95841 0.0
C800 C 0.5726 0.465 0.96587 0.0
C801 C 0.57107 0.46237 0.98711 0.0
C802 C 0.60705 0.58716 0.96507 0.0
C803 C 0.56069 0.42413 0.9514 0.0
H804 H 0.5159 0.50848 0.89807 0.0
H805 H 0.64301 0.52465 0.8943 0.0
H806 H 0.49722 0.46781 0.94584 0.0
H807 H 0.51284 0.52485 0.95031 0.0
H808 H 0.47948 0.49429 0.92815 0.0
H809 H 0.68257 0.5236 0.92287 0.0
H810 H 0.66999 0.54713 0.94621 0.0
H811 H 0.65237 0.48983 0.94174 0.0
H812 H 0.59904 0.56808 0.00429 0.0
H813 H 0.56161 0.43121 0.99287 0.0
H814 H 0.58043 0.5878 0.95634 0.0
H815 H 0.63305 0.59381 0.95451 0.0
H816 H 0.61714 0.61352 0.97795 0.0
H817 H 0.53203 0.41784 0.94208 0.0
H818 H 0.55472 0.3955 0.95967 0.0
H819 H 0.58581 0.42793 0.94059 0.0
C820 C 0.07634 0.50385 0.22594 0.0
C821 C 0.04251 0.47825 0.2122 0.0
C822 C 0.07161 0.50533 0.24718 0.0
C823 C 0.0319 0.48121 0.2548 0.0
C824 C 0.99772 0.45494 0.24102 0.0
C825 C 1.00353 0.45348 0.21985 0.0
C826 C 0.10896 0.53317 0.26145 0.0
C827 C 0.95478 0.42932 0.2486 0.0
C828 C 0.02811 0.46085 0.31074 0.0
C829 C 0.01988 0.49484 0.31999 0.0
C830 C 0.03159 0.45561 0.28944 0.0
C831 C 0.02601 0.48469 0.27719 0.0
C832 C 0.01639 0.51826 0.28644 0.0
C833 C 1.01381 0.52317 0.30779 0.0
C834 C 0.04247 0.41984 0.28013 0.0
C835 C 1.00952 0.54943 0.27381 0.0
H836 H 0.10661 0.52278 0.22009 0.0
H837 H 0.97717 0.4339 0.20928 0.0
H838 H 0.1032 0.55936 0.27018 0.0
H839 H 0.11381 0.51355 0.27279 0.0
H840 H 0.13811 0.5481 0.2531 0.0
H841 H 0.93177 0.40956 0.2359 0.0
H842 H 0.9563 0.40752 0.25967 0.0
H843 H 0.94325 0.45169 0.25685 0.0
H844 H 0.03316 0.43921 0.32025 0.0
H845 H 1.00708 0.54921 0.315 0.0
H846 H 0.07303 0.43401 0.27288 0.0
H847 H 0.01879 0.39918 0.26789 0.0
H848 H 0.04439 0.3991 0.29171 0.0
H849 H 0.03875 0.56864 0.26634 0.0
H850 H 0.99985 0.57209 0.28323 0.0
H851 H 0.98514 0.53134 0.26144 0.0
loop_
_geom_bond_atom_site_label_1
_geom_bond_atom_site_label_2
_geom_bond_distance
_geom_bond_site_symmetry_2
_ccdc_geom_bond_type
Tb0 O3 2.453 1_455 S
Tb0 O4 2.596 1_455 S
Tb0 O5 2.374 . S
Tb0 O13 2.343 . S
Tb0 O15 2.353 . S
Tb0 O17 2.427 . S
Tb0 O18 2.513 . S
C1 O5 1.251 . S
C1 O7 1.263 . S
Tb2 O4 2.343 1_455 S
Tb2 O7 2.353 . S
Tb2 O10 2.427 1_455 S
Tb2 O11 2.513 1_455 S
Tb2 O12 2.453 . S
Tb2 O13 2.596 . S
Tb2 O14 2.374 . S
O3 Tb0 2.453 1_655 S
O3 C19 1.245 . S
O4 Tb0 2.596 1_655 S
O4 Tb2 2.343 1_655 S
O4 C19 1.259 . S
O5 Tb0 2.374 . S
O5 C1 1.251 . S
C6 O10 1.275 . S
C6 O11 1.246 . S
O7 C1 1.263 . S
O7 Tb2 2.353 . S
C8 O12 1.245 . S
C8 O13 1.259 . S
C9 O14 1.250 . S
C9 O15 1.263 . S
O10 Tb2 2.427 1_655 S
O10 C6 1.275 . S
O11 Tb2 2.513 1_655 S
O11 C6 1.246 . S
O12 Tb2 2.453 . S
O12 C8 1.245 . S
O13 Tb0 2.343 . S
O13 Tb2 2.596 . S
O13 C8 1.259 . S
O14 Tb2 2.374 . S
O14 C9 1.250 . S
O15 Tb0 2.353 . S
O15 C9 1.263 . S
C16 O17 1.275 . S
C16 O18 1.246 . S
O17 Tb0 2.427 . S
O17 C16 1.275 . S
O18 Tb0 2.513 . S
O18 C16 1.246 . S
C19 O3 1.245 . S
C19 O4 1.259 . S
Tb20 O23 2.453 . S
Tb20 O24 2.596 . S
Tb20 O25 2.374 . S
Tb20 O33 2.343 1_545 S
Tb20 O35 2.353 . S
Tb20 O37 2.427 1_545 S
Tb20 O38 2.513 1_545 S
C21 O25 1.251 . S
C21 O27 1.263 . S
Tb22 O24 2.343 . S
Tb22 O27 2.353 . S
Tb22 O30 2.427 . S
Tb22 O31 2.513 . S
Tb22 O32 2.453 1_545 S
Tb22 O33 2.596 1_545 S
Tb22 O34 2.374 . S
O23 Tb20 2.453 . S
O23 C39 1.245 . S
O24 Tb20 2.596 . S
O24 Tb22 2.343 . S
O24 C39 1.259 . S
O25 Tb20 2.374 . S
O25 C21 1.251 . S
C26 O30 1.275 . S
C26 O31 1.246 . S
O27 C21 1.263 . S
O27 Tb22 2.353 . S
C28 O32 1.245 . S
C28 O33 1.259 . S
C29 O34 1.250 . S
C29 O35 1.263 . S
O30 Tb22 2.427 . S
O30 C26 1.275 . S
O31 Tb22 2.513 . S
O31 C26 1.246 . S
O32 Tb22 2.453 1_565 S
O32 C28 1.245 . S
O33 Tb20 2.343 1_565 S
O33 Tb22 2.596 1_565 S
O33 C28 1.259 . S
O34 Tb22 2.374 . S
O34 C29 1.250 . S
O35 Tb20 2.353 . S
O35 C29 1.263 . S
C36 O37 1.275 . S
C36 O38 1.246 . S
O37 Tb20 2.427 1_565 S
O37 C36 1.275 . S
O38 Tb20 2.513 1_565 S
O38 C36 1.246 . S
C39 O23 1.245 . S
C39 O24 1.259 . S
Tb40 O43 2.453 . S
Tb40 O44 2.596 . S
Tb40 O45 2.374 . S
Tb40 O53 2.343 . S
Tb40 O55 2.353 . S
Tb40 O57 2.427 . S
Tb40 O58 2.513 . S
C41 O45 1.251 . S
C41 O47 1.263 . S
Tb42 O44 2.343 . S
Tb42 O47 2.353 . S
Tb42 O50 2.427 . S
Tb42 O51 2.513 . S
Tb42 O52 2.453 . S
Tb42 O53 2.596 . S
Tb42 O54 2.374 . S
O43 Tb40 2.453 . S
O43 C59 1.245 . S
O44 Tb40 2.596 . S
O44 Tb42 2.343 . S
O44 C59 1.259 . S
O45 Tb40 2.374 . S
O45 C41 1.251 . S
C46 O50 1.275 . S
C46 O51 1.246 . S
O47 C41 1.263 . S
O47 Tb42 2.353 . S
C48 O52 1.245 . S
C48 O53 1.259 . S
C49 O54 1.250 . S
C49 O55 1.263 . S
O50 Tb42 2.427 . S
O50 C46 1.275 . S
O51 Tb42 2.513 . S
O51 C46 1.246 . S
O52 Tb42 2.453 . S
O52 C48 1.245 . S
O53 Tb40 2.343 . S
O53 Tb42 2.596 . S
O53 C48 1.259 . S
O54 Tb42 2.374 . S
O54 C49 1.250 . S
O55 Tb40 2.353 . S
O55 C49 1.263 . S
C56 O57 1.275 . S
C56 O58 1.246 . S
O57 Tb40 2.427 . S
O57 C56 1.275 . S
O58 Tb40 2.513 . S
O58 C56 1.246 . S
C59 O43 1.245 . S
C59 O44 1.259 . S
C60 C61 1.384 . S
C60 H73 0.947 . S
C60 C95 1.382 . S
C61 C60 1.384 . S
C61 C62 1.378 . S
C62 C61 1.378 . S
C62 C63 1.378 . S
C62 H74 0.952 . S
C63 C62 1.378 . S
C63 H75 0.950 . S
C63 C94 1.383 . S
H64 C83 0.947 . S
H65 C84 0.946 . S
H66 C86 0.953 . S
H67 C87 0.945 . S
H68 C89 0.952 . S
H69 C90 0.949 . S
H70 C92 0.950 1_565 S
H71 C93 0.948 1_565 S
H72 C95 0.951 . S
H73 C60 0.947 . S
H74 C62 0.952 . S
H75 C63 0.950 . S
N76 C79 1.382 . S
N76 C81 1.354 1_545 S
N77 C79 1.371 . S
N77 C80 1.372 . S
N78 C80 1.361 . S
N78 C81 1.376 1_545 S
C79 N76 1.382 . S
C79 N77 1.371 . S
C79 C82 1.480 . S
C80 N77 1.372 . S
C80 N78 1.361 . S
C80 C88 1.457 . S
C81 N76 1.354 1_565 S
C81 N78 1.376 1_565 S
C81 C94 1.485 . S
C82 C79 1.480 . S
C82 C83 1.383 . S
C82 C87 1.385 . S
C83 H64 0.947 . S
C83 C82 1.383 . S
C83 C84 1.388 . S
C84 H65 0.946 . S
C84 C83 1.388 . S
C84 C85 1.384 . S
C85 C84 1.384 . S
C85 C86 1.377 . S
C86 H66 0.953 . S
C86 C85 1.377 . S
C86 C87 1.369 . S
C87 H67 0.945 . S
C87 C82 1.385 . S
C87 C86 1.369 . S
C88 C80 1.457 . S
C88 C89 1.372 . S
C88 C93 1.364 . S
C89 H68 0.952 . S
C89 C88 1.372 . S
C89 C90 1.389 . S
C90 H69 0.949 . S
C90 C89 1.389 . S
C90 C91 1.387 . S
C91 C90 1.387 . S
C91 C92 1.372 . S
C92 H70 0.950 1_545 S
C92 C91 1.372 . S
C92 C93 1.379 . S
C93 H71 0.948 1_545 S
C93 C88 1.364 . S
C93 C92 1.379 . S
C94 C63 1.383 . S
C94 C81 1.485 . S
C94 C95 1.398 . S
C95 C60 1.382 . S
C95 H72 0.951 . S
C95 C94 1.398 . S
C96 C97 1.384 . S
C96 H109 0.947 . S
C96 C131 1.382 . S
C97 C96 1.384 . S
C97 C98 1.378 . S
C98 C97 1.378 . S
C98 C99 1.378 . S
C98 H110 0.952 . S
C99 C98 1.378 . S
C99 H111 0.950 . S
C99 C130 1.383 . S
H100 C119 0.947 . S
H101 C120 0.946 . S
H102 C122 0.953 . S
H103 C123 0.945 . S
H104 C125 0.952 . S
H105 C126 0.949 . S
H106 C128 0.950 . S
H107 C129 0.948 . S
H108 C131 0.951 . S
H109 C96 0.947 . S
H110 C98 0.952 . S
H111 C99 0.950 . S
N112 C115 1.382 . S
N112 C117 1.363 . S
N113 C115 1.371 . S
N113 C116 1.372 . S
N114 C116 1.361 . S
N114 C117 1.377 . S
C115 N112 1.382 . S
C115 N113 1.371 . S
C115 C118 1.480 . S
C116 N113 1.372 . S
C116 N114 1.361 . S
C116 C124 1.457 . S
C117 N112 1.363 . S
C117 N114 1.377 . S
C117 C130 1.479 . S
C118 C115 1.480 . S
C118 C119 1.383 . S
C118 C123 1.385 . S
C119 H100 0.947 . S
C119 C118 1.383 . S
C119 C120 1.388 . S
C120 H101 0.946 . S
C120 C119 1.388 . S
C120 C121 1.384 . S
C121 C120 1.384 . S
C121 C122 1.377 . S
C122 H102 0.953 . S
C122 C121 1.377 . S
C122 C123 1.369 . S
C123 H103 0.945 . S
C123 C118 1.385 . S
C123 C122 1.369 . S
C124 C116 1.457 . S
C124 C125 1.372 . S
C124 C129 1.364 . S
C125 H104 0.952 . S
C125 C124 1.372 . S
C125 C126 1.389 . S
C126 H105 0.949 . S
C126 C125 1.389 . S
C126 C127 1.387 . S
C127 C126 1.387 . S
C127 C128 1.372 . S
C128 H106 0.950 . S
C128 C127 1.372 . S
C128 C129 1.379 . S
C129 H107 0.948 . S
C129 C124 1.364 . S
C129 C128 1.379 . S
C130 C99 1.383 . S
C130 C117 1.479 . S
C130 C131 1.398 . S
C131 C96 1.382 . S
C131 H108 0.951 . S
C131 C130 1.398 . S
C132 C133 1.384 . S
C132 H145 0.947 . S
C132 C167 1.382 . S
C133 C132 1.384 . S
C133 C134 1.378 . S
C134 C133 1.378 . S
C134 C135 1.378 1_655 S
C134 H146 0.952 . S
C135 C134 1.378 1_455 S
C135 H147 0.950 . S
C135 C166 1.383 . S
H136 C155 0.947 . S
H137 C156 0.946 . S
H138 C158 0.953 . S
H139 C159 0.945 . S
H140 C161 0.952 . S
H141 C162 0.949 . S
H142 C164 0.950 . S
H143 C165 0.948 . S
H144 C167 0.951 . S
H145 C132 0.947 . S
H146 C134 0.952 . S
H147 C135 0.950 . S
N148 C151 1.382 . S
N148 C153 1.363 . S
N149 C151 1.371 . S
N149 C152 1.372 . S
N150 C152 1.361 . S
N150 C153 1.377 . S
C151 N148 1.382 . S
C151 N149 1.371 . S
C151 C154 1.480 . S
C152 N149 1.372 . S
C152 N150 1.361 . S
C152 C160 1.457 . S
C153 N148 1.363 . S
C153 N150 1.377 . S
C153 C166 1.479 . S
C154 C151 1.480 . S
C154 C155 1.383 . S
C154 C159 1.385 . S
C155 H136 0.947 . S
C155 C154 1.383 . S
C155 C156 1.388 . S
C156 H137 0.946 . S
C156 C155 1.388 . S
C156 C157 1.384 . S
C157 C156 1.384 . S
C157 C158 1.377 . S
C158 H138 0.953 . S
C158 C157 1.377 . S
C158 C159 1.369 . S
C159 H139 0.945 . S
C159 C154 1.385 . S
C159 C158 1.369 . S
C160 C152 1.457 . S
C160 C161 1.372 . S
C160 C165 1.364 . S
C161 H140 0.952 . S
C161 C160 1.372 . S
C161 C162 1.389 . S
C162 H141 0.949 . S
C162 C161 1.389 . S
C162 C163 1.387 . S
C163 C162 1.387 . S
C163 C164 1.372 . S
C164 H142 0.950 . S
C164 C163 1.372 . S
C164 C165 1.379 . S
C165 H143 0.948 . S
C165 C160 1.364 . S
C165 C164 1.379 . S
C166 C135 1.383 . S
C166 C153 1.479 . S
C166 C167 1.398 1_455 S
C167 C132 1.382 . S
C167 H144 0.951 . S
C167 C166 1.398 1_655 S
C168 C169 1.384 . S
C168 H181 0.947 . S
C168 C203 1.382 . S
C169 C168 1.384 . S
C169 C170 1.378 . S
C170 C169 1.378 . S
C170 C171 1.378 . S
C170 H182 0.952 . S
C171 C170 1.378 . S
C171 H183 0.950 . S
C171 C202 1.383 . S
H172 C191 0.947 . S
H173 C192 0.946 . S
H174 C194 0.953 . S
H175 C195 0.945 . S
H176 C197 0.952 . S
H177 C198 0.949 . S
H178 C200 0.950 . S
H179 C201 0.948 . S
H180 C203 0.951 . S
H181 C168 0.947 . S
H182 C170 0.952 . S
H183 C171 0.950 . S
N184 C187 1.382 1_455 S
N184 C189 1.363 . S
N185 C187 1.371 . S
N185 C188 1.372 1_655 S
N186 C188 1.361 . S
N186 C189 1.377 . S
C187 N184 1.382 1_655 S
C187 N185 1.371 . S
C187 C190 1.480 . S
C188 N185 1.372 1_455 S
C188 N186 1.361 . S
C188 C196 1.457 . S
C189 N184 1.363 . S
C189 N186 1.377 . S
C189 C202 1.479 . S
C190 C187 1.480 . S
C190 C191 1.383 . S
C190 C195 1.385 . S
C191 H172 0.947 . S
C191 C190 1.383 . S
C191 C192 1.388 . S
C192 H173 0.946 . S
C192 C191 1.388 . S
C192 C193 1.384 . S
C193 C192 1.384 . S
C193 C194 1.377 . S
C194 H174 0.953 . S
C194 C193 1.377 . S
C194 C195 1.369 . S
C195 H175 0.945 . S
C195 C190 1.385 . S
C195 C194 1.369 . S
C196 C188 1.457 . S
C196 C197 1.372 1_455 S
C196 C201 1.364 . S
C197 H176 0.952 . S
C197 C196 1.372 1_655 S
C197 C198 1.389 . S
C198 H177 0.949 . S
C198 C197 1.389 . S
C198 C199 1.370 1_655 S
C199 C198 1.370 1_455 S
C199 C200 1.389 . S
C200 H178 0.950 . S
C200 C199 1.389 . S
C200 C201 1.379 . S
C201 H179 0.948 . S
C201 C196 1.364 . S
C201 C200 1.379 . S
C202 C171 1.383 . S
C202 C189 1.479 . S
C202 C203 1.398 . S
C203 C168 1.382 . S
C203 H180 0.951 . S
C203 C202 1.398 . S
C204 C205 1.384 . S
C204 H217 0.947 . S
C204 C239 1.382 . S
C205 C204 1.384 . S
C205 C206 1.378 . S
C206 C205 1.378 . S
C206 C207 1.378 . S
C206 H218 0.952 . S
C207 C206 1.378 . S
C207 H219 0.950 . S
C207 C238 1.383 . S
H208 C227 0.947 . S
H209 C228 0.946 . S
H210 C230 0.953 . S
H211 C231 0.945 . S
H212 C233 0.952 . S
H213 C234 0.949 . S
H214 C236 0.950 . S
H215 C237 0.948 . S
H216 C239 0.951 . S
H217 C204 0.947 . S
H218 C206 0.952 . S
H219 C207 0.950 . S
N220 C223 1.382 1_545 S
N220 C225 1.363 . S
N221 C223 1.371 . S
N221 C224 1.372 1_565 S
N222 C224 1.361 . S
N222 C225 1.377 . S
C223 N220 1.382 1_565 S
C223 N221 1.371 . S
C223 C226 1.480 . S
C224 N221 1.372 1_545 S
C224 N222 1.361 . S
C224 C232 1.457 . S
C225 N220 1.363 . S
C225 N222 1.377 . S
C225 C238 1.479 . S
C226 C223 1.480 . S
C226 C227 1.383 . S
C226 C231 1.385 . S
C227 H208 0.947 . S
C227 C226 1.383 . S
C227 C228 1.388 . S
C228 H209 0.946 . S
C228 C227 1.388 . S
C228 C229 1.384 . S
C229 C228 1.384 . S
C229 C230 1.377 . S
C230 H210 0.953 . S
C230 C229 1.377 . S
C230 C231 1.369 . S
C231 H211 0.945 . S
C231 C226 1.385 . S
C231 C230 1.369 . S
C232 C224 1.457 . S
C232 C233 1.372 1_545 S
C232 C237 1.364 . S
C233 H212 0.952 . S
C233 C232 1.372 1_565 S
C233 C234 1.389 . S
C234 H213 0.949 . S
C234 C233 1.389 . S
C234 C235 1.387 1_565 S
C235 C234 1.387 1_545 S
C235 C236 1.372 . S
C236 H214 0.950 . S
C236 C235 1.372 . S
C236 C237 1.379 . S
C237 H215 0.948 . S
C237 C232 1.364 . S
C237 C236 1.379 . S
C238 C207 1.383 . S
C238 C225 1.479 . S
C238 C239 1.398 . S
C239 C204 1.382 . S
C239 H216 0.951 . S
C239 C238 1.398 . S
C240 C241 1.384 . S
C240 H253 0.947 . S
C240 C275 1.382 . S
C241 C240 1.384 . S
C241 C242 1.378 . S
C242 C241 1.378 . S
C242 C243 1.378 . S
C242 H254 0.952 . S
C243 C242 1.378 . S
C243 H255 0.950 . S
C243 C274 1.383 . S
H244 C263 0.947 . S
H245 C264 0.946 . S
H246 C266 0.953 . S
H247 C267 0.945 . S
H248 C269 0.952 . S
H249 C270 0.949 . S
H250 C272 0.950 . S
H251 C273 0.948 . S
H252 C275 0.951 . S
H253 C240 0.947 . S
H254 C242 0.952 . S
H255 C243 0.950 . S
N256 C259 1.382 . S
N256 C261 1.363 . S
N257 C259 1.371 . S
N257 C260 1.372 . S
N258 C260 1.361 . S
N258 C261 1.377 . S
C259 N256 1.382 . S
C259 N257 1.371 . S
C259 C262 1.480 . S
C260 N257 1.372 . S
C260 N258 1.361 . S
C260 C268 1.457 . S
C261 N256 1.363 . S
C261 N258 1.377 . S
C261 C274 1.479 . S
C262 C259 1.480 . S
C262 C263 1.383 . S
C262 C267 1.385 . S
C263 H244 0.947 . S
C263 C262 1.383 . S
C263 C264 1.388 . S
C264 H245 0.946 . S
C264 C263 1.388 . S
C264 C265 1.384 . S
C265 C264 1.384 . S
C265 C266 1.377 . S
C266 H246 0.953 . S
C266 C265 1.377 . S
C266 C267 1.369 . S
C267 H247 0.945 . S
C267 C262 1.385 . S
C267 C266 1.369 . S
C268 C260 1.457 . S
C268 C269 1.372 . S
C268 C273 1.364 . S
C269 H248 0.952 . S
C269 C268 1.372 . S
C269 C270 1.389 . S
C270 H249 0.949 . S
C270 C269 1.389 . S
C270 C271 1.387 . S
C271 C270 1.387 . S
C271 C272 1.372 . S
C272 H250 0.950 . S
C272 C271 1.372 . S
C272 C273 1.379 . S
C273 H251 0.948 . S
C273 C268 1.364 . S
C273 C272 1.379 . S
C274 C243 1.383 . S
C274 C261 1.479 . S
C274 C275 1.398 . S
C275 C240 1.382 . S
C275 H252 0.951 . S
C275 C274 1.398 . S
C276 C277 1.391 . S
C276 C278 1.394 . S
C276 H292 0.931 . S
C277 C276 1.391 . S
C277 C281 1.376 . S
C278 C276 1.394 . S
C278 C279 1.369 . S
C278 C282 1.531 . S
C279 C278 1.369 . S
C279 C280 1.410 . S
C279 C287 1.503 . S
C280 C279 1.410 . S
C280 C281 1.392 . S
C280 C283 1.511 . S
C281 C277 1.376 . S
C281 C280 1.392 . S
C281 H293 0.929 . S
C282 C278 1.531 . S
C282 H294 0.960 . S
C282 H295 0.962 . S
C282 H296 0.960 . S
C283 C280 1.511 . S
C283 H297 0.961 . S
C283 H298 0.961 . S
C283 H299 0.961 . S
C284 C285 1.370 . S
C284 C286 1.363 . S
C284 H300 0.931 . S
C285 C284 1.370 . S
C285 C289 1.408 . S
C286 C284 1.363 . S
C286 C287 1.370 . S
C286 C290 1.524 . S
C287 C279 1.503 . S
C287 C286 1.370 . S
C287 C288 1.403 . S
C288 C287 1.403 . S
C288 C289 1.404 . S
C288 C291 1.539 . S
C289 C285 1.408 . S
C289 C288 1.404 . S
C289 H301 0.930 . S
C290 C286 1.524 . S
C290 H302 0.956 . S
C290 H303 0.961 . S
C290 H304 0.961 . S
C291 C288 1.539 . S
C291 H305 0.958 . S
C291 H306 0.961 . S
C291 H307 0.960 . S
H292 C276 0.931 . S
H293 C281 0.929 . S
H294 C282 0.960 . S
H295 C282 0.962 . S
H296 C282 0.960 . S
H297 C283 0.961 . S
H298 C283 0.961 . S
H299 C283 0.961 . S
H300 C284 0.931 . S
H301 C289 0.930 . S
H302 C290 0.956 . S
H303 C290 0.961 . S
H304 C290 0.961 . S
H305 C291 0.958 . S
H306 C291 0.961 . S
H307 C291 0.960 . S
C308 C309 1.391 . S
C308 C310 1.394 . S
C308 H324 0.931 . S
C309 C308 1.391 . S
C309 C313 1.376 . S
C310 C308 1.394 . S
C310 C311 1.369 . S
C310 C314 1.531 . S
C311 C310 1.369 . S
C311 C312 1.410 . S
C311 C319 1.503 . S
C312 C311 1.410 . S
C312 C313 1.392 . S
C312 C315 1.511 . S
C313 C309 1.376 . S
C313 C312 1.392 . S
C313 H325 0.929 . S
C314 C310 1.531 . S
C314 H326 0.960 . S
C314 H327 0.962 . S
C314 H328 0.960 . S
C315 C312 1.511 . S
C315 H329 0.961 . S
C315 H330 0.961 . S
C315 H331 0.961 . S
C316 C317 1.370 . S
C316 C318 1.363 . S
C316 H332 0.931 . S
C317 C316 1.370 . S
C317 C321 1.408 . S
C318 C316 1.363 . S
C318 C319 1.370 . S
C318 C322 1.524 . S
C319 C311 1.503 . S
C319 C318 1.370 . S
C319 C320 1.403 . S
C320 C319 1.403 . S
C320 C321 1.404 . S
C320 C323 1.539 . S
C321 C317 1.408 . S
C321 C320 1.404 . S
C321 H333 0.930 . S
C322 C318 1.524 . S
C322 H334 0.956 . S
C322 H335 0.961 . S
C322 H336 0.961 . S
C323 C320 1.539 . S
C323 H337 0.958 . S
C323 H338 0.961 . S
C323 H339 0.960 . S
H324 C308 0.931 . S
H325 C313 0.929 . S
H326 C314 0.960 . S
H327 C314 0.962 . S
H328 C314 0.960 . S
H329 C315 0.961 . S
H330 C315 0.961 . S
H331 C315 0.961 . S
H332 C316 0.931 . S
H333 C321 0.930 . S
H334 C322 0.956 . S
H335 C322 0.961 . S
H336 C322 0.961 . S
H337 C323 0.958 . S
H338 C323 0.961 . S
H339 C323 0.960 . S
C340 C341 1.391 . S
C340 C342 1.394 . S
C340 H356 0.931 . S
C341 C340 1.391 . S
C341 C345 1.376 . S
C342 C340 1.394 . S
C342 C343 1.369 . S
C342 C346 1.531 . S
C343 C342 1.369 . S
C343 C344 1.410 . S
C343 C351 1.503 . S
C344 C343 1.410 . S
C344 C345 1.392 . S
C344 C347 1.511 . S
C345 C341 1.376 . S
C345 C344 1.392 . S
C345 H357 0.929 . S
C346 C342 1.531 . S
C346 H358 0.960 . S
C346 H359 0.962 . S
C346 H360 0.960 . S
C347 C344 1.511 . S
C347 H361 0.961 . S
C347 H362 0.961 . S
C347 H363 0.961 . S
C348 C349 1.370 . S
C348 C350 1.363 . S
C348 H364 0.931 . S
C349 C348 1.370 . S
C349 C353 1.408 . S
C350 C348 1.363 . S
C350 C351 1.370 . S
C350 C354 1.524 . S
C351 C343 1.503 . S
C351 C350 1.370 . S
C351 C352 1.403 . S
C352 C351 1.403 . S
C352 C353 1.404 . S
C352 C355 1.539 . S
C353 C349 1.408 . S
C353 C352 1.404 . S
C353 H365 0.930 . S
C354 C350 1.524 . S
C354 H366 0.956 . S
C354 H367 0.961 . S
C354 H368 0.961 . S
C355 C352 1.539 . S
C355 H369 0.958 . S
C355 H370 0.961 . S
C355 H371 0.960 . S
H356 C340 0.931 . S
H357 C345 0.929 . S
H358 C346 0.960 . S
H359 C346 0.962 . S
H360 C346 0.960 . S
H361 C347 0.961 . S
H362 C347 0.961 . S
H363 C347 0.961 . S
H364 C348 0.931 . S
H365 C353 0.930 . S
H366 C354 0.956 . S
H367 C354 0.961 . S
H368 C354 0.961 . S
H369 C355 0.958 . S
H370 C355 0.961 . S
H371 C355 0.960 . S
C372 C373 1.391 . S
C372 C374 1.394 . S
C372 H388 0.931 . S
C373 C372 1.391 . S
C373 C377 1.376 . S
C374 C372 1.394 . S
C374 C375 1.369 . S
C374 C378 1.531 . S
C375 C374 1.369 . S
C375 C376 1.410 . S
C375 C383 1.503 . S
C376 C375 1.410 . S
C376 C377 1.392 . S
C376 C379 1.511 . S
C377 C373 1.376 . S
C377 C376 1.392 . S
C377 H389 0.929 . S
C378 C374 1.531 . S
C378 H390 0.960 . S
C378 H391 0.962 . S
C378 H392 0.960 . S
C379 C376 1.511 . S
C379 H393 0.961 . S
C379 H394 0.961 . S
C379 H395 0.961 . S
C380 C381 1.370 . S
C380 C382 1.363 . S
C380 H396 0.931 . S
C381 C380 1.370 . S
C381 C385 1.408 . S
C382 C380 1.363 . S
C382 C383 1.370 . S
C382 C386 1.524 . S
C383 C375 1.503 . S
C383 C382 1.370 . S
C383 C384 1.403 . S
C384 C383 1.403 . S
C384 C385 1.404 . S
C384 C387 1.539 . S
C385 C381 1.408 . S
C385 C384 1.404 . S
C385 H397 0.930 . S
C386 C382 1.524 . S
C386 H398 0.956 . S
C386 H399 0.961 . S
C386 H400 0.961 . S
C387 C384 1.539 . S
C387 H401 0.958 . S
C387 H402 0.961 . S
C387 H403 0.960 . S
H388 C372 0.931 . S
H389 C377 0.929 . S
H390 C378 0.960 . S
H391 C378 0.962 . S
H392 C378 0.960 . S
H393 C379 0.961 . S
H394 C379 0.961 . S
H395 C379 0.961 . S
H396 C380 0.931 . S
H397 C385 0.930 . S
H398 C386 0.956 . S
H399 C386 0.961 . S
H400 C386 0.961 . S
H401 C387 0.958 . S
H402 C387 0.961 . S
H403 C387 0.960 . S
C404 C405 1.391 . S
C404 C406 1.394 . S
C404 H420 0.931 . S
C405 C404 1.391 . S
C405 C409 1.376 . S
C406 C404 1.394 . S
C406 C407 1.369 . S
C406 C410 1.531 . S
C407 C406 1.369 . S
C407 C408 1.410 . S
C407 C415 1.503 . S
C408 C407 1.410 . S
C408 C409 1.392 . S
C408 C411 1.511 . S
C409 C405 1.376 . S
C409 C408 1.392 . S
C409 H421 0.929 . S
C410 C406 1.531 . S
C410 H422 0.960 . S
C410 H423 0.962 . S
C410 H424 0.960 . S
C411 C408 1.511 . S
C411 H425 0.961 . S
C411 H426 0.961 . S
C411 H427 0.961 . S
C412 C413 1.370 . S
C412 C414 1.363 . S
C412 H428 0.931 . S
C413 C412 1.370 . S
C413 C417 1.408 . S
C414 C412 1.363 . S
C414 C415 1.370 . S
C414 C418 1.524 . S
C415 C407 1.503 . S
C415 C414 1.370 . S
C415 C416 1.403 . S
C416 C415 1.403 . S
C416 C417 1.404 . S
C416 C419 1.539 . S
C417 C413 1.408 . S
C417 C416 1.404 . S
C417 H429 0.930 . S
C418 C414 1.524 . S
C418 H430 0.956 . S
C418 H431 0.961 . S
C418 H432 0.961 . S
C419 C416 1.539 . S
C419 H433 0.958 . S
C419 H434 0.961 . S
C419 H435 0.960 . S
H420 C404 0.931 . S
H421 C409 0.929 . S
H422 C410 0.960 . S
H423 C410 0.962 . S
H424 C410 0.960 . S
H425 C411 0.961 . S
H426 C411 0.961 . S
H427 C411 0.961 . S
H428 C412 0.931 . S
H429 C417 0.930 . S
H430 C418 0.956 . S
H431 C418 0.961 . S
H432 C418 0.961 . S
H433 C419 0.958 . S
H434 C419 0.961 . S
H435 C419 0.960 . S
C436 C437 1.391 . S
C436 C438 1.394 . S
C436 H452 0.931 . S
C437 C436 1.391 . S
C437 C441 1.376 . S
C438 C436 1.394 . S
C438 C439 1.369 . S
C438 C442 1.531 . S
C439 C438 1.369 . S
C439 C440 1.410 . S
C439 C447 1.503 . S
C440 C439 1.410 . S
C440 C441 1.392 . S
C440 C443 1.511 . S
C441 C437 1.376 . S
C441 C440 1.392 . S
C441 H453 0.929 . S
C442 C438 1.531 . S
C442 H454 0.960 . S
C442 H455 0.962 . S
C442 H456 0.960 . S
C443 C440 1.511 . S
C443 H457 0.961 . S
C443 H458 0.961 . S
C443 H459 0.961 . S
C444 C445 1.370 . S
C444 C446 1.363 . S
C444 H460 0.931 . S
C445 C444 1.370 . S
C445 C449 1.408 . S
C446 C444 1.363 . S
C446 C447 1.370 . S
C446 C450 1.524 . S
C447 C439 1.503 . S
C447 C446 1.370 . S
C447 C448 1.403 . S
C448 C447 1.403 . S
C448 C449 1.404 . S
C448 C451 1.539 . S
C449 C445 1.408 . S
C449 C448 1.404 . S
C449 H461 0.930 . S
C450 C446 1.524 . S
C450 H462 0.956 . S
C450 H463 0.961 . S
C450 H464 0.961 . S
C451 C448 1.539 . S
C451 H465 0.958 . S
C451 H466 0.961 . S
C451 H467 0.960 . S
H452 C436 0.931 . S
H453 C441 0.929 . S
H454 C442 0.960 . S
H455 C442 0.962 . S
H456 C442 0.960 . S
H457 C443 0.961 . S
H458 C443 0.961 . S
H459 C443 0.961 . S
H460 C444 0.931 . S
H461 C449 0.930 . S
H462 C450 0.956 . S
H463 C450 0.961 . S
H464 C450 0.961 . S
H465 C451 0.958 . S
H466 C451 0.961 . S
H467 C451 0.960 . S
C468 C469 1.391 . S
C468 C470 1.394 . S
C468 H484 0.931 . S
C469 C468 1.391 . S
C469 C473 1.376 . S
C470 C468 1.394 . S
C470 C471 1.369 . S
C470 C474 1.531 . S
C471 C470 1.369 . S
C471 C472 1.410 . S
C471 C479 1.503 . S
C472 C471 1.410 . S
C472 C473 1.392 . S
C472 C475 1.511 . S
C473 C469 1.376 . S
C473 C472 1.392 . S
C473 H485 0.929 . S
C474 C470 1.531 . S
C474 H486 0.960 . S
C474 H487 0.962 . S
C474 H488 0.960 . S
C475 C472 1.511 . S
C475 H489 0.961 . S
C475 H490 0.961 . S
C475 H491 0.961 . S
C476 C477 1.370 . S
C476 C478 1.363 . S
C476 H492 0.931 . S
C477 C476 1.370 . S
C477 C481 1.408 . S
C478 C476 1.363 . S
C478 C479 1.370 . S
C478 C482 1.524 . S
C479 C471 1.503 . S
C479 C478 1.370 . S
C479 C480 1.403 . S
C480 C479 1.403 . S
C480 C481 1.404 . S
C480 C483 1.539 . S
C481 C477 1.408 . S
C481 C480 1.404 . S
C481 H493 0.930 . S
C482 C478 1.524 . S
C482 H494 0.956 . S
C482 H495 0.961 . S
C482 H496 0.961 . S
C483 C480 1.539 . S
C483 H497 0.958 . S
C483 H498 0.961 . S
C483 H499 0.960 . S
H484 C468 0.931 . S
H485 C473 0.929 . S
H486 C474 0.960 . S
H487 C474 0.962 . S
H488 C474 0.960 . S
H489 C475 0.961 . S
H490 C475 0.961 . S
H491 C475 0.961 . S
H492 C476 0.931 . S
H493 C481 0.930 . S
H494 C482 0.956 . S
H495 C482 0.961 . S
H496 C482 0.961 . S
H497 C483 0.958 . S
H498 C483 0.961 . S
H499 C483 0.960 . S
C500 C501 1.391 . S
C500 C502 1.394 . S
C500 H516 0.931 . S
C501 C500 1.391 . S
C501 C505 1.376 . S
C502 C500 1.394 . S
C502 C503 1.369 . S
C502 C506 1.531 . S
C503 C502 1.369 . S
C503 C504 1.410 . S
C503 C511 1.503 . S
C504 C503 1.410 . S
C504 C505 1.392 . S
C504 C507 1.511 . S
C505 C501 1.376 . S
C505 C504 1.392 . S
C505 H517 0.929 . S
C506 C502 1.531 . S
C506 H518 0.960 . S
C506 H519 0.962 . S
C506 H520 0.960 . S
C507 C504 1.511 . S
C507 H521 0.961 . S
C507 H522 0.961 . S
C507 H523 0.961 . S
C508 C509 1.370 . S
C508 C510 1.363 . S
C508 H524 0.931 . S
C509 C508 1.370 . S
C509 C513 1.408 . S
C510 C508 1.363 . S
C510 C511 1.370 . S
C510 C514 1.524 . S
C511 C503 1.503 . S
C511 C510 1.370 . S
C511 C512 1.403 . S
C512 C511 1.403 . S
C512 C513 1.404 . S
C512 C515 1.539 . S
C513 C509 1.408 . S
C513 C512 1.404 . S
C513 H525 0.930 . S
C514 C510 1.524 . S
C514 H526 0.956 . S
C514 H527 0.961 . S
C514 H528 0.961 . S
C515 C512 1.539 . S
C515 H529 0.958 . S
C515 H530 0.961 . S
C515 H531 0.960 . S
H516 C500 0.931 . S
H517 C505 0.929 . S
H518 C506 0.960 . S
H519 C506 0.962 . S
H520 C506 0.960 . S
H521 C507 0.961 . S
H522 C507 0.961 . S
H523 C507 0.961 . S
H524 C508 0.931 . S
H525 C513 0.930 . S
H526 C514 0.956 . S
H527 C514 0.961 . S
H528 C514 0.961 . S
H529 C515 0.958 . S
H530 C515 0.961 . S
H531 C515 0.960 . S
C532 C533 1.391 . S
C532 C534 1.394 . S
C532 H548 0.931 . S
C533 C532 1.391 . S
C533 C537 1.376 . S
C534 C532 1.394 . S
C534 C535 1.369 . S
C534 C538 1.531 . S
C535 C534 1.369 . S
C535 C536 1.410 . S
C535 C543 1.503 . S
C536 C535 1.410 . S
C536 C537 1.392 . S
C536 C539 1.511 . S
C537 C533 1.376 . S
C537 C536 1.392 . S
C537 H549 0.929 . S
C538 C534 1.531 . S
C538 H550 0.960 . S
C538 H551 0.962 . S
C538 H552 0.960 . S
C539 C536 1.511 . S
C539 H553 0.961 . S
C539 H554 0.961 . S
C539 H555 0.961 . S
C540 C541 1.370 . S
C540 C542 1.363 . S
C540 H556 0.931 . S
C541 C540 1.370 . S
C541 C545 1.408 . S
C542 C540 1.363 . S
C542 C543 1.370 . S
C542 C546 1.524 . S
C543 C535 1.503 . S
C543 C542 1.370 . S
C543 C544 1.403 . S
C544 C543 1.403 . S
C544 C545 1.404 . S
C544 C547 1.539 . S
C545 C541 1.408 . S
C545 C544 1.404 . S
C545 H557 0.930 . S
C546 C542 1.524 . S
C546 H558 0.956 . S
C546 H559 0.961 . S
C546 H560 0.961 . S
C547 C544 1.539 . S
C547 H561 0.958 . S
C547 H562 0.961 . S
C547 H563 0.960 . S
H548 C532 0.931 . S
H549 C537 0.929 . S
H550 C538 0.960 . S
H551 C538 0.962 . S
H552 C538 0.960 . S
H553 C539 0.961 . S
H554 C539 0.961 . S
H555 C539 0.961 . S
H556 C540 0.931 . S
H557 C545 0.930 . S
H558 C546 0.956 . S
H559 C546 0.961 . S
H560 C546 0.961 . S
H561 C547 0.958 . S
H562 C547 0.961 . S
H563 C547 0.960 . S
C564 C565 1.391 . S
C564 C566 1.394 . S
C564 H580 0.931 . S
C565 C564 1.391 . S
C565 C569 1.376 . S
C566 C564 1.394 . S
C566 C567 1.369 . S
C566 C570 1.531 . S
C567 C566 1.369 . S
C567 C568 1.410 . S
C567 C575 1.503 . S
C568 C567 1.410 . S
C568 C569 1.392 . S
C568 C571 1.511 . S
C569 C565 1.376 . S
C569 C568 1.392 . S
C569 H581 0.929 . S
C570 C566 1.531 . S
C570 H582 0.960 . S
C570 H583 0.962 . S
C570 H584 0.960 . S
C571 C568 1.511 . S
C571 H585 0.961 . S
C571 H586 0.961 . S
C571 H587 0.961 . S
C572 C573 1.370 . S
C572 C574 1.363 . S
C572 H588 0.931 . S
C573 C572 1.370 . S
C573 C577 1.408 . S
C574 C572 1.363 . S
C574 C575 1.370 . S
C574 C578 1.524 . S
C575 C567 1.503 . S
C575 C574 1.370 . S
C575 C576 1.403 . S
C576 C575 1.403 . S
C576 C577 1.404 . S
C576 C579 1.539 . S
C577 C573 1.408 . S
C577 C576 1.404 . S
C577 H589 0.930 . S
C578 C574 1.524 . S
C578 H590 0.956 . S
C578 H591 0.961 . S
C578 H592 0.961 . S
C579 C576 1.539 . S
C579 H593 0.958 . S
C579 H594 0.961 . S
C579 H595 0.960 . S
H580 C564 0.931 . S
H581 C569 0.929 . S
H582 C570 0.960 . S
H583 C570 0.962 . S
H584 C570 0.960 . S
H585 C571 0.961 . S
H586 C571 0.961 . S
H587 C571 0.961 . S
H588 C572 0.931 . S
H589 C577 0.930 . S
H590 C578 0.956 . S
H591 C578 0.961 . S
H592 C578 0.961 . S
H593 C579 0.958 . S
H594 C579 0.961 . S
H595 C579 0.960 . S
C596 C597 1.391 . S
C596 C598 1.394 . S
C596 H612 0.931 . S
C597 C596 1.391 . S
C597 C601 1.376 . S
C598 C596 1.394 . S
C598 C599 1.369 . S
C598 C602 1.531 . S
C599 C598 1.369 . S
C599 C600 1.410 . S
C599 C607 1.503 . S
C600 C599 1.410 . S
C600 C601 1.392 . S
C600 C603 1.511 . S
C601 C597 1.376 . S
C601 C600 1.392 . S
C601 H613 0.929 . S
C602 C598 1.531 . S
C602 H614 0.960 . S
C602 H615 0.962 . S
C602 H616 0.960 . S
C603 C600 1.511 . S
C603 H617 0.961 . S
C603 H618 0.961 . S
C603 H619 0.961 . S
C604 C605 1.370 . S
C604 C606 1.363 . S
C604 H620 0.931 . S
C605 C604 1.370 . S
C605 C609 1.408 . S
C606 C604 1.363 . S
C606 C607 1.370 . S
C606 C610 1.524 . S
C607 C599 1.503 . S
C607 C606 1.370 . S
C607 C608 1.403 . S
C608 C607 1.403 . S
C608 C609 1.404 . S
C608 C611 1.539 . S
C609 C605 1.408 . S
C609 C608 1.404 . S
C609 H621 0.930 . S
C610 C606 1.524 . S
C610 H622 0.956 . S
C610 H623 0.961 . S
C610 H624 0.961 . S
C611 C608 1.539 . S
C611 H625 0.958 . S
C611 H626 0.961 . S
C611 H627 0.960 . S
H612 C596 0.931 . S
H613 C601 0.929 . S
H614 C602 0.960 . S
H615 C602 0.962 . S
H616 C602 0.960 . S
H617 C603 0.961 . S
H618 C603 0.961 . S
H619 C603 0.961 . S
H620 C604 0.931 . S
H621 C609 0.930 . S
H622 C610 0.956 . S
H623 C610 0.961 . S
H624 C610 0.961 . S
H625 C611 0.958 . S
H626 C611 0.961 . S
H627 C611 0.960 . S
C628 C629 1.391 . S
C628 C630 1.394 . S
C628 H644 0.931 . S
C629 C628 1.391 . S
C629 C633 1.376 . S
C630 C628 1.394 . S
C630 C631 1.369 . S
C630 C634 1.531 . S
C631 C630 1.369 . S
C631 C632 1.410 . S
C631 C639 1.503 . S
C632 C631 1.410 . S
C632 C633 1.392 . S
C632 C635 1.511 . S
C633 C629 1.376 . S
C633 C632 1.392 . S
C633 H645 0.929 . S
C634 C630 1.531 . S
C634 H646 0.960 . S
C634 H647 0.962 . S
C634 H648 0.960 . S
C635 C632 1.511 . S
C635 H649 0.961 . S
C635 H650 0.961 . S
C635 H651 0.961 . S
C636 C637 1.370 . S
C636 C638 1.363 . S
C636 H652 0.931 . S
C637 C636 1.370 . S
C637 C641 1.408 . S
C638 C636 1.363 . S
C638 C639 1.370 . S
C638 C642 1.524 . S
C639 C631 1.503 . S
C639 C638 1.370 . S
C639 C640 1.403 . S
C640 C639 1.403 . S
C640 C641 1.404 . S
C640 C643 1.539 . S
C641 C637 1.408 . S
C641 C640 1.404 . S
C641 H653 0.930 . S
C642 C638 1.524 . S
C642 H654 0.956 . S
C642 H655 0.961 . S
C642 H656 0.961 . S
C643 C640 1.539 . S
C643 H657 0.958 . S
C643 H658 0.961 . S
C643 H659 0.960 . S
H644 C628 0.931 . S
H645 C633 0.929 . S
H646 C634 0.960 . S
H647 C634 0.962 . S
H648 C634 0.960 . S
H649 C635 0.961 . S
H650 C635 0.961 . S
H651 C635 0.961 . S
H652 C636 0.931 . S
H653 C641 0.930 . S
H654 C642 0.956 . S
H655 C642 0.961 . S
H656 C642 0.961 . S
H657 C643 0.958 . S
H658 C643 0.961 . S
H659 C643 0.960 . S
C660 C661 1.391 . S
C660 C662 1.394 . S
C660 H676 0.931 . S
C661 C660 1.391 . S
C661 C665 1.376 . S
C662 C660 1.394 . S
C662 C663 1.369 . S
C662 C666 1.531 . S
C663 C662 1.369 . S
C663 C664 1.410 . S
C663 C671 1.503 . S
C664 C663 1.410 . S
C664 C665 1.392 . S
C664 C667 1.522 . S
C665 C661 1.376 . S
C665 C664 1.392 . S
C665 H677 0.929 . S
C666 C662 1.531 . S
C666 H678 0.960 . S
C666 H679 0.962 . S
C666 H680 0.960 . S
C667 C664 1.522 . S
C667 H681 0.956 1_455 S
C667 H682 0.965 . S
C667 H683 0.952 1_455 S
C668 C669 1.370 1_554 S
C668 C670 1.363 . S
C668 H684 0.931 . S
C669 C668 1.370 1_556 S
C669 C673 1.421 . S
C670 C668 1.363 . S
C670 C671 1.370 . S
C670 C674 1.524 . S
C671 C663 1.503 . S
C671 C670 1.370 . S
C671 C672 1.403 . S
C672 C671 1.403 . S
C672 C673 1.366 1_554 S
C672 C675 1.539 1_455 S
C673 C669 1.421 . S
C673 C672 1.366 1_556 S
C673 H685 0.956 . S
C674 C670 1.524 . S
C674 H686 0.956 . S
C674 H687 0.961 . S
C674 H688 0.961 . S
C675 C672 1.539 1_655 S
C675 H689 0.958 . S
C675 H690 0.961 . S
C675 H691 0.960 . S
H676 C660 0.931 . S
H677 C665 0.929 . S
H678 C666 0.960 . S
H679 C666 0.962 . S
H680 C666 0.960 . S
H681 C667 0.956 1_655 S
H682 C667 0.965 . S
H683 C667 0.952 1_655 S
H684 C668 0.931 . S
H685 C673 0.956 . S
H686 C674 0.956 . S
H687 C674 0.961 . S
H688 C674 0.961 . S
H689 C675 0.958 . S
H690 C675 0.961 . S
H691 C675 0.960 . S
C692 C693 1.391 . S
C692 C694 1.394 . S
C692 H708 0.931 1_545 S
C693 C692 1.391 . S
C693 C697 1.376 . S
C694 C692 1.394 . S
C694 C695 1.369 . S
C694 C698 1.531 1_545 S
C695 C694 1.369 . S
C695 C696 1.410 . S
C695 C703 1.503 . S
C696 C695 1.410 . S
C696 C697 1.392 . S
C696 C699 1.511 . S
C697 C693 1.376 . S
C697 C696 1.392 . S
C697 H709 0.929 . S
C698 C694 1.531 1_565 S
C698 H710 0.960 . S
C698 H711 0.962 . S
C698 H712 0.960 . S
C699 C696 1.511 . S
C699 H713 0.961 . S
C699 H714 0.961 . S
C699 H715 0.961 . S
C700 C701 1.370 . S
C700 C702 1.363 . S
C700 H716 0.931 . S
C701 C700 1.370 . S
C701 C705 1.408 . S
C702 C700 1.363 . S
C702 C703 1.370 . S
C702 C706 1.524 . S
C703 C695 1.503 . S
C703 C702 1.370 . S
C703 C704 1.403 . S
C704 C703 1.403 . S
C704 C705 1.404 . S
C704 C707 1.539 1_545 S
C705 C701 1.408 . S
C705 C704 1.404 . S
C705 H717 0.930 . S
C706 C702 1.524 . S
C706 H718 0.956 . S
C706 H719 0.961 . S
C706 H720 0.961 . S
C707 C704 1.539 1_565 S
C707 H721 0.958 . S
C707 H722 0.961 . S
C707 H723 0.960 . S
H708 C692 0.931 1_565 S
H709 C697 0.929 . S
H710 C698 0.960 . S
H711 C698 0.962 . S
H712 C698 0.960 . S
H713 C699 0.961 . S
H714 C699 0.961 . S
H715 C699 0.961 . S
H716 C700 0.931 . S
H717 C705 0.930 . S
H718 C706 0.956 . S
H719 C706 0.961 . S
H720 C706 0.961 . S
H721 C707 0.958 . S
H722 C707 0.961 . S
H723 C707 0.960 . S
C724 C725 1.391 . S
C724 C726 1.394 . S
C724 H740 0.931 . S
C725 C724 1.391 . S
C725 C729 1.376 . S
C726 C724 1.394 . S
C726 C727 1.369 . S
C726 C730 1.531 . S
C727 C726 1.369 . S
C727 C728 1.410 . S
C727 C735 1.503 . S
C728 C727 1.410 . S
C728 C729 1.392 . S
C728 C731 1.511 . S
C729 C725 1.376 . S
C729 C728 1.392 . S
C729 H741 0.929 . S
C730 C726 1.531 . S
C730 H742 0.960 . S
C730 H743 0.962 . S
C730 H744 0.960 . S
C731 C728 1.511 . S
C731 H745 0.961 . S
C731 H746 0.961 . S
C731 H747 0.961 . S
C732 C733 1.370 . S
C732 C734 1.363 . S
C732 H748 0.931 . S
C733 C732 1.370 . S
C733 C737 1.408 . S
C734 C732 1.363 . S
C734 C735 1.370 . S
C734 C738 1.524 . S
C735 C727 1.503 . S
C735 C734 1.370 . S
C735 C736 1.403 . S
C736 C735 1.403 . S
C736 C737 1.404 . S
C736 C739 1.539 . S
C737 C733 1.408 . S
C737 C736 1.404 . S
C737 H749 0.930 . S
C738 C734 1.524 . S
C738 H750 0.956 . S
C738 H751 0.961 . S
C738 H752 0.961 . S
C739 C736 1.539 . S
C739 H753 0.958 . S
C739 H754 0.961 . S
C739 H755 0.960 . S
H740 C724 0.931 . S
H741 C729 0.929 . S
H742 C730 0.960 . S
H743 C730 0.962 . S
H744 C730 0.960 . S
H745 C731 0.961 . S
H746 C731 0.961 . S
H747 C731 0.961 . S
H748 C732 0.931 . S
H749 C737 0.930 . S
H750 C738 0.956 . S
H751 C738 0.961 . S
H752 C738 0.961 . S
H753 C739 0.958 . S
H754 C739 0.961 . S
H755 C739 0.960 . S
C756 C757 1.391 . S
C756 C758 1.394 1_545 S
C756 H772 0.931 1_545 S
C757 C756 1.391 . S
C757 C761 1.376 . S
C758 C756 1.394 1_565 S
C758 C759 1.369 1_565 S
C758 C762 1.531 . S
C759 C758 1.369 1_545 S
C759 C760 1.410 . S
C759 C767 1.503 . S
C760 C759 1.410 . S
C760 C761 1.392 . S
C760 C763 1.511 . S
C761 C757 1.376 . S
C761 C760 1.392 . S
C761 H773 0.929 . S
C762 C758 1.531 . S
C762 H774 0.960 . S
C762 H775 0.962 . S
C762 H776 0.960 . S
C763 C760 1.511 . S
C763 H777 0.961 . S
C763 H778 0.961 . S
C763 H779 0.961 . S
C764 C765 1.370 . S
C764 C766 1.363 . S
C764 H780 0.931 . S
C765 C764 1.370 . S
C765 C769 1.408 1_545 S
C766 C764 1.363 . S
C766 C767 1.370 . S
C766 C770 1.524 . S
C767 C759 1.503 . S
C767 C766 1.370 . S
C767 C768 1.403 1_545 S
C768 C767 1.403 1_565 S
C768 C769 1.404 . S
C768 C771 1.539 . S
C769 C765 1.408 1_565 S
C769 C768 1.404 . S
C769 H781 0.930 . S
C770 C766 1.524 . S
C770 H782 0.956 . S
C770 H783 0.961 . S
C770 H784 0.961 . S
C771 C768 1.539 . S
C771 H785 0.958 . S
C771 H786 0.961 . S
C771 H787 0.960 . S
H772 C756 0.931 1_565 S
H773 C761 0.929 . S
H774 C762 0.960 . S
H775 C762 0.962 . S
H776 C762 0.960 . S
H777 C763 0.961 . S
H778 C763 0.961 . S
H779 C763 0.961 . S
H780 C764 0.931 . S
H781 C769 0.930 . S
H782 C770 0.956 . S
H783 C770 0.961 . S
H784 C770 0.961 . S
H785 C771 0.958 . S
H786 C771 0.961 . S
H787 C771 0.960 . S
C788 C789 1.391 . S
C788 C790 1.394 . S
C788 H804 0.931 . S
C789 C788 1.391 . S
C789 C793 1.376 . S
C790 C788 1.394 . S
C790 C791 1.369 . S
C790 C794 1.531 . S
C791 C790 1.369 . S
C791 C792 1.410 . S
C791 C799 1.503 . S
C792 C791 1.410 . S
C792 C793 1.392 . S
C792 C795 1.511 . S
C793 C789 1.376 . S
C793 C792 1.392 . S
C793 H805 0.929 . S
C794 C790 1.531 . S
C794 H806 0.960 . S
C794 H807 0.962 . S
C794 H808 0.960 . S
C795 C792 1.511 . S
C795 H809 0.961 . S
C795 H810 0.961 . S
C795 H811 0.961 . S
C796 C797 1.349 1_556 S
C796 C798 1.363 . S
C796 H812 0.931 1_556 S
C797 C796 1.349 1_554 S
C797 C801 1.383 1_554 S
C798 C796 1.363 . S
C798 C799 1.370 . S
C798 C802 1.524 . S
C799 C791 1.503 . S
C799 C798 1.370 . S
C799 C800 1.403 . S
C800 C799 1.403 . S
C800 C801 1.404 . S
C800 C803 1.539 . S
C801 C797 1.383 1_556 S
C801 C800 1.404 . S
C801 H813 0.930 . S
C802 C798 1.524 . S
C802 H814 0.956 . S
C802 H815 0.961 . S
C802 H816 0.961 . S
C803 C800 1.539 . S
C803 H817 0.958 . S
C803 H818 0.961 . S
C803 H819 0.960 . S
H804 C788 0.931 . S
H805 C793 0.929 . S
H806 C794 0.960 . S
H807 C794 0.962 . S
H808 C794 0.960 . S
H809 C795 0.961 . S
H810 C795 0.961 . S
H811 C795 0.961 . S
H812 C796 0.931 1_554 S
H813 C801 0.930 . S
H814 C802 0.956 . S
H815 C802 0.961 . S
H816 C802 0.961 . S
H817 C803 0.958 . S
H818 C803 0.961 . S
H819 C803 0.960 . S
C820 C821 1.391 . S
C820 C822 1.394 . S
C820 H836 0.931 . S
C821 C820 1.391 . S
C821 C825 1.376 1_455 S
C822 C820 1.394 . S
C822 C823 1.369 . S
C822 C826 1.531 . S
C823 C822 1.369 . S
C823 C824 1.410 1_455 S
C823 C831 1.503 . S
C824 C823 1.410 1_655 S
C824 C825 1.392 . S
C824 C827 1.511 . S
C825 C821 1.376 1_655 S
C825 C824 1.392 . S
C825 H837 0.929 . S
C826 C822 1.531 . S
C826 H838 0.960 . S
C826 H839 0.962 . S
C826 H840 0.960 . S
C827 C824 1.511 . S
C827 H841 0.961 . S
C827 H842 0.961 . S
C827 H843 0.961 . S
C828 C829 1.369 1_655 S
C828 C830 1.363 1_655 S
C828 H844 0.931 . S
C829 C828 1.369 1_455 S
C829 C833 1.409 . S
C830 C828 1.363 1_455 S
C830 C831 1.370 . S
C830 C834 1.524 1_455 S
C831 C823 1.503 . S
C831 C830 1.370 . S
C831 C832 1.403 . S
C832 C831 1.403 . S
C832 C833 1.404 . S
C832 C835 1.539 . S
C833 C829 1.409 . S
C833 C832 1.404 . S
C833 H845 0.930 . S
C834 C830 1.524 1_655 S
C834 H846 0.956 1_655 S
C834 H847 0.961 . S
C834 H848 0.961 . S
C835 C832 1.539 . S
C835 H849 0.958 . S
C835 H850 0.961 . S
C835 H851 0.960 . S
H836 C820 0.931 . S
H837 C825 0.929 . S
H838 C826 0.960 . S
H839 C826 0.962 . S
H840 C826 0.960 . S
H841 C827 0.961 . S
H842 C827 0.961 . S
H843 C827 0.961 . S
H844 C828 0.931 . S
H845 C833 0.930 . S
H846 C834 0.956 1_455 S
H847 C834 0.961 . S
H848 C834 0.961 . S
H849 C835 0.958 . S
H850 C835 0.961 . S
H851 C835 0.960 . S
C277 C8 2.020 . S
C285 C265 2.043 . S
C309 C26 1.331 . S
C317 C193 1.322 . S
C341 C48 1.467 . S
C349 C229 1.512 . S
C373 C19 1.845 . S
C381 C241 1.876 . S
C413 C169 1.516 . S
C405 C36 1.529 . S
C445 C205 1.760 . S
C437 C59 1.711 . S
C469 C28 1.487 . S
C477 C121 1.542 . S
C501 C46 1.202 . S
C509 C133 1.251 . S
C533 C16 1.586 . S
C541 C61 1.586 . S
C573 C97 1.742 . S
C565 C39 1.695 . S
C605 C157 1.041 . S
C597 C56 1.058 . S
C629 C6 1.388 . S
C637 C85 1.355 . S
C669 C163 1.424 . S
C661 C9 1.394 . S
C693 C21 1.491 . S
C701 C91 1.499 . S
C725 C49 1.460 . S
C733 C127 1.485 . S
C765 C235 1.468 . S
C757 C29 1.476 . S
C797 C271 1.635 . S
C789 C41 1.582 . S
C821 C1 1.496 . S
C829 C199 1.507 . S
