# Generated by pormake.
# Topology tsx, (6,3)-cn, num edge types: 1
# Building blocks:
#     Node 0, Type 0, BuildingBlock: CIFDUS_clean_sbu_1, # of connection points: 6
#     Node 1, Type 0, BuildingBlock: CIFDUS_clean_sbu_1, # of connection points: 6
#     Node 2, Type 1, BuildingBlock: MIDCAF_clean_linker_0, # of connection points: 3
#     Node 3, Type 1, BuildingBlock: MIDCAF_clean_linker_0, # of connection points: 3
#     Node 4, Type 1, BuildingBlock: MIDCAF_clean_linker_0, # of connection points: 3
#     Node 5, Type 1, BuildingBlock: MIDCAF_clean_linker_0, # of connection points: 3
#     Edge 6, Type (0, 1), BuildingBlock: KIFKEQ_clean_linker_1, # of connection points: 2
#     Edge 7, Type (0, 1), BuildingBlock: KIFKEQ_clean_linker_1, # of connection points: 2
#     Edge 8, Type (0, 1), BuildingBlock: KIFKEQ_clean_linker_1, # of connection points: 2
#     Edge 9, Type (0, 1), BuildingBlock: KIFKEQ_clean_linker_1, # of connection points: 2
#     Edge 10, Type (0, 1), BuildingBlock: KIFKEQ_clean_linker_1, # of connection points: 2
#     Edge 11, Type (0, 1), BuildingBlock: KIFKEQ_clean_linker_1, # of connection points: 2
#     Edge 12, Type (0, 1), BuildingBlock: KIFKEQ_clean_linker_1, # of connection points: 2
#     Edge 13, Type (0, 1), BuildingBlock: KIFKEQ_clean_linker_1, # of connection points: 2
#     Edge 14, Type (0, 1), BuildingBlock: KIFKEQ_clean_linker_1, # of connection points: 2
#     Edge 15, Type (0, 1), BuildingBlock: KIFKEQ_clean_linker_1, # of connection points: 2
#     Edge 16, Type (0, 1), BuildingBlock: KIFKEQ_clean_linker_1, # of connection points: 2
#     Edge 17, Type (0, 1), BuildingBlock: KIFKEQ_clean_linker_1, # of connection points: 2
# Relax obj value: 0.129
# Max RMSD: 0.156
# Mean RMSD: 0.119
data_MOF--net-tsx--node1-CIFDUS_clean_sbu_1--node2-MIDCAF_clean_linker_0--edge1-KIFKEQ_clean_linker_1
_symmetry_space_group_name_H-M    P1
_symmetry_Int_Tables_number       1
_symmetry_cell_setting            triclinic
loop_
_symmetry_equiv_pos_as_xyz
'x, y, z'
_cell_length_a     22.230493
_cell_length_b     27.016717
_cell_length_c     45.470828
_cell_angle_alpha  96.792596
_cell_angle_beta   91.271109
_cell_angle_gamma 91.032131
loop_
_atom_site_label
_atom_site_type_symbol
_atom_site_fract_x
_atom_site_fract_y
_atom_site_fract_z
_atom_type_partial_charge
O0 O 0.01412 0.11378 0.01684 0.0
Mn1 Mn 0.05964 0.04529 0.01238 0.0
O2 O 0.9171 0.09624 0.00416 0.0
Mn3 Mn 0.93214 0.03453 0.98417 0.0
O4 O 0.10528 0.97696 0.00787 0.0
O5 O 0.13775 0.08541 0.01767 0.0
Mn6 Mn 0.18542 0.0573 0.04213 0.0
O7 O 0.05401 0.04287 0.05831 0.0
O8 O 0.19995 0.99346 0.02519 0.0
O9 O 0.06475 0.04659 0.96645 0.0
O10 O 0.96986 0.03369 0.94828 0.0
O11 O 0.22847 0.11118 0.03218 0.0
O12 O 0.14686 0.06017 0.07785 0.0
C13 C 0.94053 0.97065 0.007 0.0
C14 C 0.95874 0.12646 0.01474 0.0
C15 C 0.15927 0.96335 0.01329 0.0
C16 C 0.18042 0.11858 0.01683 0.0
C17 C 0.0912 0.05001 0.08061 0.0
C18 C 0.02617 0.03975 0.94473 0.0
O19 O 0.98183 0.00505 0.00691 0.0
O20 O 0.89152 0.97839 0.99249 0.0
O21 O 0.50275 0.62811 0.51739 0.0
Mn22 Mn 0.54658 0.55888 0.50953 0.0
O23 O 0.40329 0.61136 0.51355 0.0
Mn24 Mn 0.41152 0.54977 0.49206 0.0
O25 O 0.58911 0.48911 0.50097 0.0
O26 O 0.6252 0.59889 0.5095 0.0
Mn27 Mn 0.68005 0.56452 0.52668 0.0
O28 O 0.55624 0.55619 0.55511 0.0
O29 O 0.68834 0.50463 0.50362 0.0
O30 O 0.53635 0.56056 0.46382 0.0
O31 O 0.43694 0.54979 0.45351 0.0
O32 O 0.7205 0.61976 0.51746 0.0
O33 O 0.65583 0.56046 0.56518 0.0
C34 C 0.42902 0.48519 0.51331 0.0
C35 C 0.44751 0.6415 0.51991 0.0
C36 C 0.64375 0.47506 0.49723 0.0
C37 C 0.66828 0.63156 0.50755 0.0
C38 C 0.60148 0.55652 0.57326 0.0
C39 C 0.49112 0.55514 0.44544 0.0
O40 O 0.46861 0.51967 0.51003 0.0
O41 O 0.37561 0.49341 0.50336 0.0
C42 C 0.816 0.10822 0.44049 0.0
C43 C 0.8284 0.13713 0.46776 0.0
C44 C 0.87857 0.12502 0.48487 0.0
C45 C 0.91773 0.08735 0.4739 0.0
H46 H 0.0453 0.95832 0.48789 0.0
H47 H 0.12463 0.91626 0.51296 0.0
H48 H 0.23512 0.91681 0.43608 0.0
H49 H 0.15661 0.9594 0.41137 0.0
H50 H 0.09304 0.97334 0.34897 0.0
H51 H 0.09587 0.97457 0.29563 0.0
H52 H 0.90884 0.01554 0.29433 0.0
H53 H 0.90663 0.01601 0.34782 0.0
H54 H 0.84537 0.05125 0.40773 0.0
H55 H 0.77819 0.11645 0.42657 0.0
H56 H 0.88893 0.146 0.50623 0.0
H57 H 0.95758 0.08074 0.48689 0.0
N58 N 0.99997 0.01018 0.44606 0.0
N59 N 0.04443 0.97951 0.40119 0.0
N60 N 0.95483 0.02334 0.40054 0.0
C61 C 0.04494 0.98465 0.43135 0.0
C62 C 0.99931 0.99854 0.38563 0.0
C63 C 0.9546 0.02961 0.4306 0.0
C64 C 0.09442 0.96232 0.44764 0.0
C65 C 0.08695 0.95034 0.47661 0.0
C66 C 0.13226 0.92582 0.49085 0.0
C67 C 0.18634 0.91307 0.47653 0.0
C68 C 0.19446 0.92652 0.44793 0.0
C69 C 0.14906 0.95058 0.43364 0.0
C70 C 0.99978 0.9949 0.35279 0.0
C71 C 0.05235 0.98219 0.33731 0.0
C72 C 0.05382 0.98264 0.3066 0.0
C73 C 1.00257 0.9953 0.29052 0.0
C74 C 0.94948 0.00652 0.30596 0.0
C75 C 0.94817 0.00651 0.33669 0.0
C76 C 0.90771 0.06142 0.4455 0.0
C77 C 0.85507 0.07096 0.42953 0.0
C78 C 0.86911 0.95954 0.57061 0.0
C79 C 0.87148 0.94619 0.53987 0.0
C80 C 0.91906 0.96565 0.52443 0.0
C81 C 0.96395 0.99676 0.53964 0.0
H82 H 0.13994 0.09012 0.53522 0.0
H83 H 0.21978 0.14441 0.51901 0.0
H84 H 0.22949 0.22619 0.60665 0.0
H85 H 0.15211 0.17238 0.62266 0.0
H86 H 0.14574 0.10461 0.67401 0.0
H87 H 0.15704 0.09762 0.72665 0.0
H88 H 1.0079 0.99191 0.72038 0.0
H89 H 0.99696 0.99811 0.66751 0.0
H90 H 0.91121 0.99782 0.60957 0.0
H91 H 0.8336 0.94491 0.58327 0.0
H92 H 0.92195 0.95631 0.50067 0.0
H93 H 1.00037 0.01073 0.52732 0.0
N94 N 0.0528 0.06577 0.57518 0.0
N95 N 0.10179 0.08646 0.62147 0.0
N96 N 0.01908 0.03166 0.61742 0.0
C97 C 0.09712 0.09158 0.5922 0.0
C98 C 0.0635 0.05658 0.63429 0.0
C99 C 0.01306 0.03593 0.58795 0.0
C100 C 0.14018 0.12644 0.58031 0.0
C101 C 0.15904 0.11998 0.55081 0.0
C102 C 0.20486 0.15098 0.54161 0.0
C103 C 0.23229 0.18897 0.56175 0.0
C104 C 0.21126 0.19633 0.59078 0.0
C105 C 0.16624 0.16555 0.59991 0.0
C106 C 0.0703 0.05192 0.66639 0.0
C107 C 0.11533 0.07968 0.68373 0.0
C108 C 0.12177 0.0759 0.71401 0.0
C109 C 0.0835 0.04418 0.72772 0.0
C110 C 0.03872 0.01617 0.7104 0.0
C111 C 0.03216 0.02001 0.6801 0.0
C112 C 0.96294 0.00788 0.57065 0.0
C113 C 0.9142 0.98964 0.58576 0.0
C114 C 0.34478 0.6079 0.93565 0.0
C115 C 0.35327 0.63124 0.96474 0.0
C116 C 0.39998 0.61487 0.98247 0.0
C117 C 0.43973 0.57839 0.97067 0.0
H118 H 0.56368 0.44958 0.98283 0.0
H119 H 0.63909 0.40458 0.00862 0.0
H120 H 0.75983 0.41217 0.93613 0.0
H121 H 0.68509 0.45753 0.91065 0.0
H122 H 0.63014 0.4798 0.84767 0.0
H123 H 0.639 0.48613 0.79478 0.0
H124 H 0.45237 0.52651 0.78978 0.0
H125 H 0.44319 0.52019 0.84251 0.0
H126 H 0.37796 0.55633 0.9009 0.0
H127 H 0.30957 0.61962 0.92132 0.0
H128 H 0.40711 0.63154 0.00516 0.0
H129 H 0.47688 0.56834 0.98445 0.0
N130 N 0.52482 0.50569 0.942 0.0
N131 N 0.57446 0.4792 0.8979 0.0
N132 N 0.48559 0.52386 0.89625 0.0
C133 C 0.57122 0.48133 0.92788 0.0
C134 C 0.53155 0.50013 0.88192 0.0
C135 C 0.48174 0.5271 0.92616 0.0
C136 C 0.6182 0.45714 0.94468 0.0
C137 C 0.60671 0.44244 0.97269 0.0
C138 C 0.64976 0.41632 0.98734 0.0
C139 C 0.70553 0.40475 0.97442 0.0
C140 C 0.71769 0.42094 0.94687 0.0
C141 C 0.67451 0.44657 0.93213 0.0
C142 C 0.53607 0.4998 0.84941 0.0
C143 C 0.59081 0.48952 0.83526 0.0
C144 C 0.59602 0.49344 0.80502 0.0
C145 C 0.54645 0.5071 0.78822 0.0
C146 C 0.49122 0.51565 0.80212 0.0
C147 C 0.48616 0.5123 0.83239 0.0
C148 C 0.4338 0.55792 0.94084 0.0
C149 C 0.3845 0.57178 0.92386 0.0
C150 C 0.35798 0.45885 0.05694 0.0
C151 C 0.37165 0.43655 0.02846 0.0
C152 C 0.42616 0.45025 0.016 0.0
C153 C 0.4672 0.4836 0.03236 0.0
H154 H 0.62566 0.59523 0.03342 0.0
H155 H 0.70385 0.65398 0.02014 0.0
H156 H 0.73479 0.70624 0.11271 0.0
H157 H 0.65839 0.64912 0.12596 0.0
H158 H 0.628 0.58132 0.17228 0.0
H159 H 0.62317 0.58028 0.22557 0.0
H160 H 0.44674 0.51012 0.21463 0.0
H161 H 0.45102 0.51146 0.16111 0.0
H162 H 0.38789 0.50596 0.0957 0.0
H163 H 0.31686 0.44897 0.06739 0.0
H164 H 0.43783 0.43403 0.99399 0.0
H165 H 0.50967 0.49219 0.02274 0.0
N166 N 0.54622 0.55868 0.0709 0.0
N167 N 0.5851 0.57817 0.11942 0.0
N168 N 0.49972 0.52677 0.11103 0.0
C169 C 0.58799 0.58315 0.09016 0.0
C170 C 0.54164 0.55019 0.1301 0.0
C171 C 0.50158 0.5305 0.08146 0.0
C172 C 0.63531 0.61728 0.08073 0.0
C173 C 0.64928 0.61927 0.05085 0.0
C174 C 0.69422 0.65261 0.04327 0.0
C175 C 0.7251 0.68489 0.06544 0.0
C176 C 0.71139 0.68233 0.09513 0.0
C177 C 0.66745 0.64912 0.10266 0.0
C178 C 0.53966 0.54676 0.16235 0.0
C179 C 0.58814 0.56546 0.18112 0.0
C180 C 0.58567 0.56459 0.21169 0.0
C181 C 0.53454 0.54531 0.22426 0.0
C182 C 0.48648 0.52575 0.20554 0.0
C183 C 0.48909 0.52627 0.17488 0.0
C184 C 0.45504 0.50289 0.06165 0.0
C185 C 0.39914 0.4913 0.07333 0.0
H186 H 0.23462 0.13964 0.96706 0.0
H187 H 0.12439 0.20279 0.03801 0.0
H188 H 0.27071 0.22283 0.95938 0.0
H189 H 0.16222 0.28581 0.03167 0.0
H190 H 0.24804 0.43218 0.02371 0.0
H191 H 0.18423 0.35826 0.00961 0.0
H192 H 0.34284 0.27242 0.98789 0.0
H193 H 0.40574 0.34628 0.00123 0.0
C194 C 0.21575 0.17167 0.98 0.0
C195 C 0.17635 0.16491 0.00294 0.0
C196 C 0.23748 0.21939 0.9761 0.0
C197 C 0.22129 0.26126 0.99557 0.0
C198 C 0.17605 0.25484 0.01616 0.0
C199 C 0.1537 0.20709 0.01971 0.0
C200 C 0.26902 0.39766 0.01528 0.0
C201 C 0.33212 0.39507 0.01388 0.0
C202 C 0.23243 0.35515 0.0073 0.0
C203 C 0.258 0.30879 0.99792 0.0
C204 C 0.32091 0.30727 0.99456 0.0
C205 C 0.35736 0.34983 0.0023 0.0
H206 H 0.12712 0.89231 0.96641 0.0
H207 H 0.22859 0.91466 0.04908 0.0
H208 H 0.16869 0.80837 0.9563 0.0
H209 H 0.2677 0.83128 0.03985 0.0
H210 H 0.39487 0.71818 0.99542 0.0
H211 H 0.341 0.79469 0.0079 0.0
H212 H 0.17728 0.72353 0.9694 0.0
H213 H 0.23202 0.64644 0.95648 0.0
C214 C 0.15727 0.87889 0.98261 0.0
C215 C 0.1757 0.91027 0.00818 0.0
C216 C 0.18098 0.83085 0.97693 0.0
C217 C 0.22276 0.81341 0.99697 0.0
C218 C 0.23739 0.8439 0.02344 0.0
C219 C 0.21466 0.89169 0.02882 0.0
C220 C 0.34711 0.71833 0.99018 0.0
C221 C 0.31778 0.67595 0.97516 0.0
C222 C 0.31604 0.7624 0.99728 0.0
C223 C 0.25449 0.7654 0.98981 0.0
C224 C 0.22473 0.72277 0.9752 0.0
C225 C 0.25604 0.67853 0.96794 0.0
H226 H 0.94227 0.95502 0.06513 0.0
H227 H 0.9452 0.88025 0.97614 0.0
H228 H 0.90364 0.87851 0.08254 0.0
H229 H 0.90458 0.80475 0.9928 0.0
H230 H 0.82118 0.6721 0.02845 0.0
H231 H 0.89691 0.73483 0.01877 0.0
H232 H 0.80456 0.8458 0.07656 0.0
H233 H 0.73093 0.78312 0.08669 0.0
C234 C 0.93758 0.92144 0.0496 0.0
C235 C 0.94684 0.92323 0.01938 0.0
C236 C 0.91414 0.87785 0.05936 0.0
C237 C 0.89885 0.83575 0.03892 0.0
C238 C 0.91548 0.83608 0.00929 0.0
C239 C 0.93924 0.8794 -0.00032 0.0
C240 C 0.81739 0.70998 0.03899 0.0
C241 C 0.77015 0.72273 0.05827 0.0
C242 C 0.86088 0.74592 0.03361 0.0
C243 C 0.85759 0.79554 0.04713 0.0
C244 C 0.81008 0.80789 0.06641 0.0
C245 C 0.76721 0.77201 0.07196 0.0
H246 H 0.87684 0.16428 0.05387 0.0
H247 H 0.99724 0.20477 0.98732 0.0
H248 H 0.82201 0.24107 0.05144 0.0
H249 H 0.94052 0.28028 0.98328 0.0
H250 H 0.82847 0.41658 0.9805 0.0
H251 H 0.90007 0.3589 0.99864 0.0
H252 H 0.75197 0.26164 0.01638 0.0
H253 H 0.68124 0.31972 0.99918 0.0
C254 C 0.89274 0.19066 0.03945 0.0
C255 C 0.94134 0.17893 0.02092 0.0
C256 C 0.86067 0.23425 0.03758 0.0
C257 C 0.87534 0.26637 0.01645 0.0
C258 C 0.92766 0.25676 -0.00012 0.0
C259 C 0.96056 0.21353 0.00224 0.0
C260 C 0.81141 0.38308 0.98865 0.0
C261 C 0.74911 0.37272 0.98836 0.0
C262 C 0.85246 0.34991 0.99899 0.0
C263 C 0.83225 0.3053 0.00905 0.0
C264 C 0.76969 0.29596 0.00955 0.0
C265 C 0.7288 0.32928 0.99952 0.0
H266 H 0.62111 0.70964 0.54126 0.0
H267 H 0.70771 0.66827 0.45851 0.0
H268 H 0.66047 0.79439 0.5424 0.0
H269 H 0.74481 0.75374 0.45845 0.0
H270 H 0.89382 0.86359 0.50127 0.0
H271 H 0.8256 0.79385 0.48539 0.0
H272 H 0.67942 0.87391 0.52902 0.0
H273 H 0.74886 0.94309 0.54573 0.0
C274 C 0.64512 0.71962 0.52225 0.0
C275 C 0.66105 0.68247 0.49973 0.0
C276 C 0.66849 0.76835 0.52299 0.0
C277 C 0.70785 0.78099 0.50098 0.0
C278 C 0.71653 0.74523 0.47634 0.0
C279 C 0.69394 0.69639 0.47592 0.0
C280 C 0.84679 0.86686 0.5068 0.0
C281 C 0.82704 0.90869 0.52505 0.0
C282 C 0.80724 0.82675 0.49759 0.0
C283 C 0.74652 0.82755 0.50609 0.0
C284 C 0.72592 0.87116 0.52254 0.0
C285 C 0.7657 0.91103 0.53202 0.0
H286 H 0.73917 0.4407 0.46586 0.0
H287 H 0.58254 0.39009 0.50915 0.0
H288 H 0.7777 0.3567 0.46045 0.0
H289 H 0.62176 0.30492 0.50381 0.0
H290 H 0.70616 0.15117 0.46168 0.0
H291 H 0.65371 0.23065 0.4671 0.0
H292 H 0.81955 0.30679 0.49816 0.0
H293 H 0.87209 0.22833 0.49199 0.0
C294 C 0.71241 0.41132 0.4738 0.0
C295 C 0.65808 0.42214 0.48818 0.0
C296 C 0.73482 0.36322 0.47095 0.0
C297 C 0.70371 0.32443 0.48248 0.0
C298 C 0.64699 0.33417 0.49491 0.0
C299 C 0.62431 0.38278 0.49777 0.0
C300 C 0.73127 0.18487 0.46991 0.0
C301 C 0.79361 0.18326 0.47613 0.0
C302 C 0.70108 0.23031 0.47316 0.0
C303 C 0.7327 0.27512 0.48248 0.0
C304 C 0.79411 0.27304 0.49033 0.0
C305 C 0.82413 0.22782 0.4872 0.0
H306 H 0.42022 0.46136 0.56916 0.0
H307 H 0.45571 0.40021 0.47958 0.0
H308 H 0.38824 0.37895 0.5805 0.0
H309 H 0.42362 0.31751 0.49067 0.0
H310 H 0.24381 0.2299 0.50953 0.0
H311 H 0.31616 0.29393 0.49881 0.0
H312 H 0.40442 0.28826 0.58383 0.0
H313 H 0.33302 0.22339 0.59433 0.0
C314 C 0.42474 0.42963 0.55245 0.0
C315 C 0.4411 0.43687 0.52365 0.0
C316 C 0.40577 0.38241 0.55879 0.0
C317 C 0.40212 0.34186 0.53626 0.0
C318 C 0.42504 0.34816 0.50835 0.0
C319 C 0.44447 0.3953 0.50214 0.0
C320 C 0.2796 0.24119 0.52559 0.0
C321 C 0.2817 0.22207 0.55302 0.0
C322 C 0.32125 0.27792 0.51945 0.0
C323 C 0.36586 0.29649 0.5406 0.0
C324 C 0.37019 0.27522 0.56725 0.0
C325 C 0.32895 0.23825 0.57328 0.0
H326 H 0.48218 0.71581 0.48825 0.0
H327 H 0.37237 0.68471 0.56102 0.0
H328 H 0.4242 0.79013 0.48282 0.0
H329 H 0.31641 0.76046 0.55703 0.0
H330 H 0.16727 0.83192 0.50589 0.0
H331 H 0.24116 0.7765 0.52325 0.0
H332 H 0.38452 0.86984 0.49586 0.0
H333 H 0.30969 0.92482 0.47769 0.0
C334 C 0.44782 0.72652 0.50418 0.0
C335 C 0.43173 0.6946 0.52506 0.0
C336 C 0.41408 0.76907 0.50099 0.0
C337 C 0.36408 0.7808 0.51891 0.0
C338 C 0.35305 0.75185 0.5421 0.0
C339 C 0.38592 0.70891 0.54486 0.0
C340 C 0.21453 0.84127 0.50411 0.0
C341 C 0.23238 0.88278 0.49028 0.0
C342 C 0.25728 0.80947 0.51423 0.0
C343 C 0.31939 0.81841 0.51113 0.0
C344 C 0.3373 0.86114 0.4983 0.0
C345 C 0.29435 0.89278 0.48791 0.0
H346 H 0.97523 0.04251 0.10091 0.0
H347 H 0.16239 0.03914 0.12864 0.0
H348 H 0.94565 0.02591 0.15075 0.0
H349 H 0.13281 0.02212 0.1774 0.0
H350 H 0.06323 0.93516 0.24874 0.0
H351 H 0.07776 0.94688 0.19702 0.0
H352 H 0.96163 0.07366 0.20635 0.0
H353 H 0.94853 0.06338 0.25851 0.0
C354 C 0.00991 0.03841 0.11751 0.0
C355 C 0.07116 0.04237 0.11072 0.0
C356 C 0.99298 0.02892 0.14594 0.0
C357 C 0.03706 0.0222 0.16772 0.0
C358 C 0.09794 0.02644 0.16091 0.0
C359 C 0.11476 0.03666 0.13293 0.0
C360 C 0.04078 0.96563 0.2399 0.0
C361 C 1.00548 0.99876 0.25807 0.0
C362 C 0.04874 0.97204 0.2102 0.0
C363 C 0.02103 0.01132 0.1978 0.0
C364 C 0.98306 0.04283 0.21533 0.0
C365 C 0.9756 0.0368 0.24522 0.0
H366 H 0.12532 0.08494 0.92287 0.0
H367 H 0.97215 0.98768 0.89672 0.0
H368 H 0.15135 0.08365 0.87043 0.0
H369 H 0.99773 0.98649 0.84518 0.0
H370 H 0.07679 0.96089 0.75637 0.0
H371 H 0.07534 0.95685 0.80965 0.0
H372 H 0.10179 0.11657 0.82567 0.0
H373 H 0.10301 0.12074 0.77232 0.0
C374 C 0.09779 0.0629 0.90603 0.0
C375 C 0.04643 0.0368 0.91384 0.0
C376 C 0.11245 0.06233 0.8761 0.0
C377 C 0.07666 0.0348 0.85373 0.0
C378 C 0.0267 0.00749 0.86184 0.0
C379 C 0.01169 0.00862 0.89143 0.0
C380 C 0.08255 0.99512 0.77124 0.0
C381 C 0.08905 0.0412 0.7601 0.0
C382 C 0.08205 0.99278 0.80174 0.0
C383 C 0.08796 0.03646 0.82181 0.0
C384 C 0.09774 0.08225 0.81076 0.0
C385 C 0.09822 0.08461 0.78019 0.0
H386 H 0.49422 0.55737 0.60253 0.0
H387 H 0.68577 0.54087 0.61543 0.0
H388 H 0.47926 0.54664 0.65452 0.0
H389 H 0.67066 0.52842 0.66657 0.0
H390 H 0.63578 0.55813 0.76407 0.0
H391 H 0.64637 0.57211 0.71254 0.0
H392 H 0.48255 0.48635 0.68926 0.0
H393 H 0.47125 0.47371 0.74122 0.0
C394 C 0.53307 0.55138 0.61638 0.0
C395 C 0.59123 0.55047 0.60479 0.0
C396 C 0.52447 0.54486 0.64614 0.0
C397 C 0.5738 0.53696 0.66488 0.0
C398 C 0.63172 0.53557 0.6531 0.0
C399 C 0.64034 0.54247 0.62358 0.0
C400 C 0.60228 0.54199 0.74789 0.0
C401 C 0.55298 0.5145 0.75662 0.0
C402 C 0.60831 0.54993 0.71831 0.0
C403 C 0.56555 0.53006 0.69659 0.0
C404 C 0.51593 0.50277 0.70539 0.0
C405 C 0.50959 0.49527 0.73512 0.0
H406 H 0.59304 0.58217 0.41715 0.0
H407 H 0.41134 0.52407 0.40064 0.0
H408 H 0.60584 0.58103 0.36368 0.0
H409 H 0.42464 0.52174 0.3479 0.0
H410 H 0.43949 0.57462 0.25832 0.0
H411 H 0.43228 0.57879 0.31185 0.0
H412 H 0.61348 0.52477 0.31764 0.0
H413 H 0.62094 0.52145 0.26386 0.0
C414 C 0.55605 0.56897 0.40219 0.0
C415 C 0.50098 0.55378 0.41324 0.0
C416 C 0.56344 0.5681 0.37159 0.0
C417 C 0.51598 0.55183 0.35153 0.0
C418 C 0.4616 0.5357 0.36268 0.0
C419 C 0.45412 0.53685 0.39305 0.0
C420 C 0.47761 0.56327 0.271 0.0
C421 C 0.53053 0.54726 0.25689 0.0
C422 C 0.47356 0.56568 0.30169 0.0
C423 C 0.52216 0.55171 0.31904 0.0
C424 C 0.57548 0.53628 0.30497 0.0
C425 C 0.57966 0.53418 0.27419 0.0
loop_
_geom_bond_atom_site_label_1
_geom_bond_atom_site_label_2
_geom_bond_distance
_geom_bond_site_symmetry_2
_ccdc_geom_bond_type
O0 Mn1 2.163 . S
O0 C14 1.244 1_455 S
Mn1 O0 2.163 . S
Mn1 O4 2.160 1_545 S
Mn1 O5 2.221 . S
Mn1 O7 2.163 . S
Mn1 O9 2.160 1_554 S
Mn1 O19 2.221 1_444 S
O2 Mn3 2.087 . S
O2 C14 1.256 1_556 S
Mn3 O2 2.087 . S
Mn3 O10 2.089 . S
Mn3 O19 2.290 1_545 S
Mn3 O20 2.251 1_546 S
O4 Mn1 2.160 1_565 S
O4 C15 1.241 . S
O5 Mn1 2.221 . S
O5 Mn6 2.290 . S
O5 C16 1.278 . S
Mn6 O5 2.290 . S
Mn6 O8 2.089 1_545 S
Mn6 O11 2.251 . S
Mn6 O12 2.087 . S
O7 Mn1 2.163 . S
O7 C17 1.244 . S
O8 Mn6 2.089 1_565 S
O8 C15 1.256 . S
O9 Mn1 2.160 1_556 S
O9 C18 1.239 . S
O10 Mn3 2.089 . S
O10 C18 1.256 1_655 S
O11 Mn6 2.251 . S
O11 C16 1.241 . S
O12 Mn6 2.087 . S
O12 C17 1.256 . S
C13 O19 1.278 1_554 S
C13 O20 1.241 . S
C14 O0 1.244 1_655 S
C14 O2 1.256 1_554 S
C15 O4 1.241 . S
C15 O8 1.256 . S
C16 O5 1.278 . S
C16 O11 1.241 . S
C17 O7 1.244 . S
C17 O12 1.256 . S
C18 O9 1.239 . S
C18 O10 1.256 1_455 S
O19 Mn1 2.221 1_666 S
O19 Mn3 2.290 1_565 S
O19 C13 1.278 1_556 S
O20 Mn3 2.251 1_564 S
O20 C13 1.241 . S
O21 Mn22 2.163 . S
O21 C35 1.244 . S
Mn22 O21 2.163 . S
Mn22 O25 2.160 . S
Mn22 O26 2.221 . S
Mn22 O28 2.163 . S
Mn22 O30 2.160 . S
Mn22 O40 2.221 . S
O23 Mn24 2.087 . S
O23 C35 1.256 . S
Mn24 O23 2.087 . S
Mn24 O31 2.089 . S
Mn24 O40 2.290 . S
Mn24 O41 2.251 . S
O25 Mn22 2.160 . S
O25 C36 1.239 . S
O26 Mn22 2.221 . S
O26 Mn27 2.290 . S
O26 C37 1.278 . S
Mn27 O26 2.290 . S
Mn27 O29 2.089 . S
Mn27 O32 2.251 . S
Mn27 O33 2.087 . S
O28 Mn22 2.163 . S
O28 C38 1.244 . S
O29 Mn27 2.089 . S
O29 C36 1.256 . S
O30 Mn22 2.160 . S
O30 C39 1.239 . S
O31 Mn24 2.089 . S
O31 C39 1.256 . S
O32 Mn27 2.251 . S
O32 C37 1.241 . S
O33 Mn27 2.087 . S
O33 C38 1.256 . S
C34 O40 1.278 . S
C34 O41 1.241 . S
C35 O21 1.244 . S
C35 O23 1.256 . S
C36 O25 1.239 . S
C36 O29 1.256 . S
C37 O26 1.278 . S
C37 O32 1.241 . S
C38 O28 1.244 . S
C38 O33 1.256 . S
C39 O30 1.239 . S
C39 O31 1.256 . S
O40 Mn22 2.221 . S
O40 Mn24 2.290 . S
O40 C34 1.278 . S
O41 Mn24 2.251 . S
O41 C34 1.241 . S
C42 C43 1.384 . S
C42 H55 0.947 . S
C42 C77 1.382 . S
C43 C42 1.384 . S
C43 C44 1.378 . S
C44 C43 1.378 . S
C44 C45 1.378 . S
C44 H56 0.952 . S
C45 C44 1.378 . S
C45 H57 0.950 1_655 S
C45 C76 1.383 . S
H46 C65 0.947 . S
H47 C66 0.946 . S
H48 C68 0.953 . S
H49 C69 0.945 . S
H50 C71 0.952 . S
H51 C72 0.949 . S
H52 C74 0.950 . S
H53 C75 0.948 . S
H54 C77 0.951 . S
H55 C42 0.947 . S
H56 C44 0.952 . S
H57 C45 0.950 1_455 S
N58 C61 1.382 1_545 S
N58 C63 1.363 . S
N59 C61 1.371 . S
N59 C62 1.372 1_565 S
N60 C62 1.361 . S
N60 C63 1.377 . S
C61 N58 1.382 1_565 S
C61 N59 1.371 . S
C61 C64 1.480 . S
C62 N59 1.372 1_545 S
C62 N60 1.361 . S
C62 C70 1.457 . S
C63 N58 1.363 . S
C63 N60 1.377 . S
C63 C76 1.479 1_455 S
C64 C61 1.480 . S
C64 C65 1.383 . S
C64 C69 1.385 . S
C65 H46 0.947 . S
C65 C64 1.383 . S
C65 C66 1.388 . S
C66 H47 0.946 . S
C66 C65 1.388 . S
C66 C67 1.384 . S
C67 C66 1.384 . S
C67 C68 1.377 . S
C68 H48 0.953 . S
C68 C67 1.377 . S
C68 C69 1.369 . S
C69 H49 0.945 . S
C69 C64 1.385 . S
C69 C68 1.369 . S
C70 C62 1.457 . S
C70 C71 1.372 1_545 S
C70 C75 1.364 . S
C71 H50 0.952 . S
C71 C70 1.372 1_565 S
C71 C72 1.389 . S
C72 H51 0.949 . S
C72 C71 1.389 . S
C72 C73 1.387 . S
C73 C72 1.387 . S
C73 C74 1.372 1_565 S
C74 H52 0.950 . S
C74 C73 1.372 1_545 S
C74 C75 1.379 . S
C75 H53 0.948 . S
C75 C70 1.364 . S
C75 C74 1.379 . S
C76 C45 1.383 . S
C76 C63 1.479 1_655 S
C76 C77 1.398 . S
C77 C42 1.382 . S
C77 H54 0.951 . S
C77 C76 1.398 . S
C78 C79 1.384 . S
C78 H91 0.947 . S
C78 C113 1.382 . S
C79 C78 1.384 . S
C79 C80 1.378 . S
C80 C79 1.378 . S
C80 C81 1.390 . S
C80 H92 0.952 . S
C81 C80 1.390 . S
C81 H93 0.938 1_565 S
C81 C112 1.383 1_565 S
H82 C101 0.947 . S
H83 C102 0.946 . S
H84 C104 0.953 . S
H85 C105 0.945 . S
H86 C107 0.952 . S
H87 C108 0.949 . S
H88 C110 0.950 . S
H89 C111 0.948 . S
H90 C113 0.951 . S
H91 C78 0.947 . S
H92 C80 0.952 . S
H93 C81 0.938 1_545 S
N94 C97 1.382 . S
N94 C99 1.363 1_455 S
N95 C97 1.371 . S
N95 C98 1.372 . S
N96 C98 1.361 1_655 S
N96 C99 1.377 . S
C97 N94 1.382 . S
C97 N95 1.371 . S
C97 C100 1.480 . S
C98 N95 1.372 . S
C98 N96 1.361 1_455 S
C98 C106 1.457 . S
C99 N94 1.363 1_655 S
C99 N96 1.377 . S
C99 C112 1.479 . S
C100 C97 1.480 . S
C100 C101 1.383 . S
C100 C105 1.385 . S
C101 H82 0.947 . S
C101 C100 1.383 . S
C101 C102 1.388 . S
C102 H83 0.946 . S
C102 C101 1.388 . S
C102 C103 1.384 . S
C103 C102 1.384 . S
C103 C104 1.377 . S
C104 H84 0.953 . S
C104 C103 1.377 . S
C104 C105 1.369 . S
C105 H85 0.945 . S
C105 C100 1.385 . S
C105 C104 1.369 . S
C106 C98 1.457 . S
C106 C107 1.372 . S
C106 C111 1.364 1_455 S
C107 H86 0.952 . S
C107 C106 1.372 . S
C107 C108 1.389 . S
C108 H87 0.949 . S
C108 C107 1.389 . S
C108 C109 1.387 . S
C109 C108 1.387 . S
C109 C110 1.372 1_455 S
C110 H88 0.950 . S
C110 C109 1.372 1_655 S
C110 C111 1.379 . S
C111 H89 0.948 . S
C111 C106 1.364 1_655 S
C111 C110 1.379 . S
C112 C81 1.383 1_545 S
C112 C99 1.479 . S
C112 C113 1.398 1_545 S
C113 C78 1.382 . S
C113 H90 0.951 . S
C113 C112 1.398 1_565 S
C114 C115 1.384 . S
C114 H127 0.947 . S
C114 C149 1.382 . S
C115 C114 1.384 . S
C115 C116 1.378 . S
C116 C115 1.378 . S
C116 C117 1.378 . S
C116 H128 0.952 1_556 S
C117 C116 1.378 . S
C117 H129 0.950 . S
C117 C148 1.383 . S
H118 C137 0.947 . S
H119 C138 0.946 1_554 S
H120 C140 0.953 . S
H121 C141 0.945 . S
H122 C143 0.952 . S
H123 C144 0.949 . S
H124 C146 0.950 . S
H125 C147 0.948 . S
H126 C149 0.951 . S
H127 C114 0.947 . S
H128 C116 0.952 1_554 S
H129 C117 0.950 . S
N130 C133 1.382 . S
N130 C135 1.363 . S
N131 C133 1.371 . S
N131 C134 1.372 . S
N132 C134 1.361 . S
N132 C135 1.377 . S
C133 N130 1.382 . S
C133 N131 1.371 . S
C133 C136 1.480 . S
C134 N131 1.372 . S
C134 N132 1.361 . S
C134 C142 1.457 . S
C135 N130 1.363 . S
C135 N132 1.377 . S
C135 C148 1.479 . S
C136 C133 1.480 . S
C136 C137 1.383 . S
C136 C141 1.385 . S
C137 H118 0.947 . S
C137 C136 1.383 . S
C137 C138 1.388 . S
C138 H119 0.946 1_556 S
C138 C137 1.388 . S
C138 C139 1.384 . S
C139 C138 1.384 . S
C139 C140 1.377 . S
C140 H120 0.953 . S
C140 C139 1.377 . S
C140 C141 1.369 . S
C141 H121 0.945 . S
C141 C136 1.385 . S
C141 C140 1.369 . S
C142 C134 1.457 . S
C142 C143 1.372 . S
C142 C147 1.364 . S
C143 H122 0.952 . S
C143 C142 1.372 . S
C143 C144 1.389 . S
C144 H123 0.949 . S
C144 C143 1.389 . S
C144 C145 1.387 . S
C145 C144 1.387 . S
C145 C146 1.372 . S
C146 H124 0.950 . S
C146 C145 1.372 . S
C146 C147 1.379 . S
C147 H125 0.948 . S
C147 C142 1.364 . S
C147 C146 1.379 . S
C148 C117 1.383 . S
C148 C135 1.479 . S
C148 C149 1.398 . S
C149 C114 1.382 . S
C149 H126 0.951 . S
C149 C148 1.398 . S
C150 C151 1.384 . S
C150 H163 0.947 . S
C150 C185 1.382 . S
C151 C150 1.384 . S
C151 C152 1.378 . S
C152 C151 1.378 . S
C152 C153 1.378 . S
C152 H164 0.952 . S
C153 C152 1.378 . S
C153 H165 0.950 . S
C153 C184 1.383 . S
H154 C173 0.947 . S
H155 C174 0.946 . S
H156 C176 0.953 . S
H157 C177 0.945 . S
H158 C179 0.952 . S
H159 C180 0.949 . S
H160 C182 0.950 . S
H161 C183 0.948 . S
H162 C185 0.951 . S
H163 C150 0.947 . S
H164 C152 0.952 . S
H165 C153 0.950 . S
N166 C169 1.382 . S
N166 C171 1.363 . S
N167 C169 1.371 . S
N167 C170 1.372 . S
N168 C170 1.361 . S
N168 C171 1.377 . S
C169 N166 1.382 . S
C169 N167 1.371 . S
C169 C172 1.480 . S
C170 N167 1.372 . S
C170 N168 1.361 . S
C170 C178 1.457 . S
C171 N166 1.363 . S
C171 N168 1.377 . S
C171 C184 1.479 . S
C172 C169 1.480 . S
C172 C173 1.383 . S
C172 C177 1.385 . S
C173 H154 0.947 . S
C173 C172 1.383 . S
C173 C174 1.388 . S
C174 H155 0.946 . S
C174 C173 1.388 . S
C174 C175 1.384 . S
C175 C174 1.384 . S
C175 C176 1.377 . S
C176 H156 0.953 . S
C176 C175 1.377 . S
C176 C177 1.369 . S
C177 H157 0.945 . S
C177 C172 1.385 . S
C177 C176 1.369 . S
C178 C170 1.457 . S
C178 C179 1.372 . S
C178 C183 1.364 . S
C179 H158 0.952 . S
C179 C178 1.372 . S
C179 C180 1.389 . S
C180 H159 0.949 . S
C180 C179 1.389 . S
C180 C181 1.387 . S
C181 C180 1.387 . S
C181 C182 1.372 . S
C182 H160 0.950 . S
C182 C181 1.372 . S
C182 C183 1.379 . S
C183 H161 0.948 . S
C183 C178 1.364 . S
C183 C182 1.379 . S
C184 C153 1.383 . S
C184 C171 1.479 . S
C184 C185 1.398 . S
C185 C150 1.382 . S
C185 H162 0.951 . S
C185 C184 1.398 . S
H186 C194 0.950 . S
H187 C199 0.950 . S
H188 C196 0.950 . S
H189 C198 0.950 . S
H190 C200 0.950 . S
H191 C202 0.950 . S
H192 C204 0.950 . S
H193 C205 0.950 . S
C194 H186 0.950 . S
C194 C195 1.386 . S
C194 C196 1.391 . S
C195 C194 1.386 . S
C195 C199 1.393 . S
C196 H188 0.950 . S
C196 C194 1.391 . S
C196 C197 1.400 . S
C197 C196 1.400 . S
C197 C198 1.398 . S
C197 C203 1.491 . S
C198 H189 0.950 . S
C198 C197 1.398 . S
C198 C199 1.391 . S
C199 H187 0.950 . S
C199 C195 1.393 . S
C199 C198 1.391 . S
C200 H190 0.950 . S
C200 C201 1.386 . S
C200 C202 1.391 . S
C201 C200 1.386 . S
C201 C205 1.393 . S
C202 H191 0.950 . S
C202 C200 1.391 . S
C202 C203 1.400 . S
C203 C197 1.491 . S
C203 C202 1.400 . S
C203 C204 1.398 . S
C204 H192 0.950 . S
C204 C203 1.398 . S
C204 C205 1.391 . S
C205 H193 0.950 . S
C205 C201 1.393 . S
C205 C204 1.391 . S
H206 C214 0.950 . S
H207 C219 0.950 . S
H208 C216 0.950 . S
H209 C218 0.950 . S
H210 C220 0.950 . S
H211 C222 0.950 . S
H212 C224 0.950 . S
H213 C225 0.950 . S
C214 H206 0.950 . S
C214 C215 1.386 1_556 S
C214 C216 1.391 . S
C215 C214 1.386 1_554 S
C215 C219 1.393 . S
C216 H208 0.950 . S
C216 C214 1.391 . S
C216 C217 1.400 1_556 S
C217 C216 1.400 1_554 S
C217 C218 1.398 . S
C217 C223 1.492 1_554 S
C218 H209 0.950 . S
C218 C217 1.398 . S
C218 C219 1.391 . S
C219 H207 0.950 . S
C219 C215 1.393 . S
C219 C218 1.391 . S
C220 H210 0.950 . S
C220 C221 1.386 1_554 S
C220 C222 1.391 . S
C221 C220 1.386 1_556 S
C221 C225 1.393 . S
C222 H211 0.950 . S
C222 C220 1.391 . S
C222 C223 1.373 1_554 S
C223 C217 1.492 1_556 S
C223 C222 1.373 1_556 S
C223 C224 1.426 . S
C224 H212 0.950 . S
C224 C223 1.426 . S
C224 C225 1.391 . S
C225 H213 0.950 . S
C225 C221 1.393 . S
C225 C224 1.391 . S
H226 C234 0.950 . S
H227 C239 0.950 . S
H228 C236 0.950 . S
H229 C238 0.950 . S
H230 C240 0.950 . S
H231 C242 0.950 . S
H232 C244 0.950 . S
H233 C245 0.950 . S
C234 H226 0.950 . S
C234 C235 1.386 . S
C234 C236 1.391 . S
C235 C234 1.386 . S
C235 C239 1.393 . S
C236 H228 0.950 . S
C236 C234 1.391 . S
C236 C237 1.400 . S
C237 C236 1.400 . S
C237 C238 1.398 . S
C237 C243 1.491 . S
C238 H229 0.950 . S
C238 C237 1.398 . S
C238 C239 1.391 . S
C239 H227 0.950 . S
C239 C235 1.393 . S
C239 C238 1.391 . S
C240 H230 0.950 . S
C240 C241 1.386 . S
C240 C242 1.391 . S
C241 C240 1.386 . S
C241 C245 1.393 . S
C242 H231 0.950 . S
C242 C240 1.391 . S
C242 C243 1.400 . S
C243 C237 1.491 . S
C243 C242 1.400 . S
C243 C244 1.398 . S
C244 H232 0.950 . S
C244 C243 1.398 . S
C244 C245 1.391 . S
C245 H233 0.950 . S
C245 C241 1.393 . S
C245 C244 1.391 . S
H246 C254 0.950 . S
H247 C259 0.950 . S
H248 C256 0.950 . S
H249 C258 0.950 . S
H250 C260 0.950 . S
H251 C262 0.950 . S
H252 C264 0.950 . S
H253 C265 0.950 . S
C254 H246 0.950 . S
C254 C255 1.386 . S
C254 C256 1.391 . S
C255 C254 1.386 . S
C255 C259 1.393 1_554 S
C256 H248 0.950 . S
C256 C254 1.391 . S
C256 C257 1.400 1_554 S
C257 C256 1.400 1_556 S
C257 C258 1.398 . S
C257 C263 1.491 . S
C258 H249 0.950 . S
C258 C257 1.398 . S
C258 C259 1.391 . S
C259 H247 0.950 . S
C259 C255 1.393 1_556 S
C259 C258 1.391 . S
C260 H250 0.950 . S
C260 C261 1.386 . S
C260 C262 1.391 . S
C261 C260 1.386 . S
C261 C265 1.393 1_556 S
C262 H251 0.950 . S
C262 C260 1.391 . S
C262 C263 1.400 . S
C263 C257 1.491 . S
C263 C262 1.400 . S
C263 C264 1.398 1_556 S
C264 H252 0.950 . S
C264 C263 1.398 1_554 S
C264 C265 1.391 . S
C265 H253 0.950 . S
C265 C261 1.393 1_554 S
C265 C264 1.391 . S
H266 C274 0.950 . S
H267 C279 0.950 . S
H268 C276 0.950 . S
H269 C278 0.950 . S
H270 C280 0.950 . S
H271 C282 0.950 . S
H272 C284 0.950 . S
H273 C285 0.950 . S
C274 H266 0.950 . S
C274 C275 1.386 . S
C274 C276 1.391 . S
C275 C274 1.386 . S
C275 C279 1.393 . S
C276 H268 0.950 . S
C276 C274 1.391 . S
C276 C277 1.400 . S
C277 C276 1.400 . S
C277 C278 1.398 . S
C277 C283 1.491 . S
C278 H269 0.950 . S
C278 C277 1.398 . S
C278 C279 1.391 . S
C279 H267 0.950 . S
C279 C275 1.393 . S
C279 C278 1.391 . S
C280 H270 0.950 . S
C280 C281 1.386 . S
C280 C282 1.391 . S
C281 C280 1.386 . S
C281 C285 1.393 . S
C282 H271 0.950 . S
C282 C280 1.391 . S
C282 C283 1.400 . S
C283 C277 1.491 . S
C283 C282 1.400 . S
C283 C284 1.398 . S
C284 H272 0.950 . S
C284 C283 1.398 . S
C284 C285 1.391 . S
C285 H273 0.950 . S
C285 C281 1.393 . S
C285 C284 1.391 . S
H286 C294 0.950 . S
H287 C299 0.950 . S
H288 C296 0.950 . S
H289 C298 0.950 . S
H290 C300 0.950 . S
H291 C302 0.950 . S
H292 C304 0.950 . S
H293 C305 0.950 . S
C294 H286 0.950 . S
C294 C295 1.386 . S
C294 C296 1.391 . S
C295 C294 1.386 . S
C295 C299 1.393 . S
C296 H288 0.950 . S
C296 C294 1.391 . S
C296 C297 1.400 . S
C297 C296 1.400 . S
C297 C298 1.398 . S
C297 C303 1.491 . S
C298 H289 0.950 . S
C298 C297 1.398 . S
C298 C299 1.391 . S
C299 H287 0.950 . S
C299 C295 1.393 . S
C299 C298 1.391 . S
C300 H290 0.950 . S
C300 C301 1.386 . S
C300 C302 1.391 . S
C301 C300 1.386 . S
C301 C305 1.393 . S
C302 H291 0.950 . S
C302 C300 1.391 . S
C302 C303 1.400 . S
C303 C297 1.491 . S
C303 C302 1.400 . S
C303 C304 1.398 . S
C304 H292 0.950 . S
C304 C303 1.398 . S
C304 C305 1.391 . S
C305 H293 0.950 . S
C305 C301 1.393 . S
C305 C304 1.391 . S
H306 C314 0.950 . S
H307 C319 0.950 . S
H308 C316 0.950 . S
H309 C318 0.950 . S
H310 C320 0.950 . S
H311 C322 0.950 . S
H312 C324 0.950 . S
H313 C325 0.950 . S
C314 H306 0.950 . S
C314 C315 1.386 . S
C314 C316 1.391 . S
C315 C314 1.386 . S
C315 C319 1.393 . S
C316 H308 0.950 . S
C316 C314 1.391 . S
C316 C317 1.400 . S
C317 C316 1.400 . S
C317 C318 1.398 . S
C317 C323 1.491 . S
C318 H309 0.950 . S
C318 C317 1.398 . S
C318 C319 1.391 . S
C319 H307 0.950 . S
C319 C315 1.393 . S
C319 C318 1.391 . S
C320 H310 0.950 . S
C320 C321 1.386 . S
C320 C322 1.391 . S
C321 C320 1.386 . S
C321 C325 1.393 . S
C322 H311 0.950 . S
C322 C320 1.391 . S
C322 C323 1.400 . S
C323 C317 1.491 . S
C323 C322 1.400 . S
C323 C324 1.398 . S
C324 H312 0.950 . S
C324 C323 1.398 . S
C324 C325 1.391 . S
C325 H313 0.950 . S
C325 C321 1.393 . S
C325 C324 1.391 . S
H326 C334 0.950 . S
H327 C339 0.950 . S
H328 C336 0.950 . S
H329 C338 0.950 . S
H330 C340 0.950 . S
H331 C342 0.950 . S
H332 C344 0.950 . S
H333 C345 0.950 . S
C334 H326 0.950 . S
C334 C335 1.386 . S
C334 C336 1.391 . S
C335 C334 1.386 . S
C335 C339 1.393 . S
C336 H328 0.950 . S
C336 C334 1.391 . S
C336 C337 1.400 . S
C337 C336 1.400 . S
C337 C338 1.398 . S
C337 C343 1.491 . S
C338 H329 0.950 . S
C338 C337 1.398 . S
C338 C339 1.391 . S
C339 H327 0.950 . S
C339 C335 1.393 . S
C339 C338 1.391 . S
C340 H330 0.950 . S
C340 C341 1.386 . S
C340 C342 1.391 . S
C341 C340 1.386 . S
C341 C345 1.393 . S
C342 H331 0.950 . S
C342 C340 1.391 . S
C342 C343 1.400 . S
C343 C337 1.491 . S
C343 C342 1.400 . S
C343 C344 1.398 . S
C344 H332 0.950 . S
C344 C343 1.398 . S
C344 C345 1.391 . S
C345 H333 0.950 . S
C345 C341 1.393 . S
C345 C344 1.391 . S
H346 C354 0.950 . S
H347 C359 0.950 . S
H348 C356 0.950 . S
H349 C358 0.950 . S
H350 C360 0.950 . S
H351 C362 0.950 . S
H352 C364 0.950 . S
H353 C365 0.950 . S
C354 H346 0.950 . S
C354 C355 1.386 . S
C354 C356 1.391 . S
C355 C354 1.386 . S
C355 C359 1.393 1_545 S
C356 H348 0.950 . S
C356 C354 1.391 . S
C356 C357 1.400 . S
C357 C356 1.400 . S
C357 C358 1.398 1_545 S
C357 C363 1.491 . S
C358 H349 0.950 . S
C358 C357 1.398 1_565 S
C358 C359 1.391 . S
C359 H347 0.950 . S
C359 C355 1.393 1_565 S
C359 C358 1.391 . S
C360 H350 0.950 . S
C360 C361 1.386 . S
C360 C362 1.391 . S
C361 C360 1.386 . S
C361 C365 1.393 1_565 S
C362 H351 0.950 . S
C362 C360 1.391 . S
C362 C363 1.400 1_565 S
C363 C357 1.491 . S
C363 C362 1.400 1_545 S
C363 C364 1.398 . S
C364 H352 0.950 . S
C364 C363 1.398 . S
C364 C365 1.391 . S
C365 H353 0.950 . S
C365 C361 1.393 1_545 S
C365 C364 1.391 . S
H366 C374 0.950 1_655 S
H367 C379 0.941 1_565 S
H368 C376 0.950 . S
H369 C378 0.950 . S
H370 C380 0.950 . S
H371 C382 0.950 . S
H372 C384 0.950 . S
H373 C385 0.950 . S
C374 H366 0.950 1_455 S
C374 C375 1.386 . S
C374 C376 1.391 1_455 S
C375 C374 1.386 . S
C375 C379 1.393 . S
C376 H368 0.950 . S
C376 C374 1.391 1_655 S
C376 C377 1.400 1_655 S
C377 C376 1.400 1_455 S
C377 C378 1.398 . S
C377 C383 1.491 . S
C378 H369 0.950 . S
C378 C377 1.398 . S
C378 C379 1.391 . S
C379 H367 0.941 1_545 S
C379 C375 1.393 . S
C379 C378 1.391 . S
C380 H370 0.950 . S
C380 C381 1.386 . S
C380 C382 1.391 . S
C381 C380 1.386 . S
C381 C385 1.393 1_455 S
C382 H371 0.950 . S
C382 C380 1.391 . S
C382 C383 1.400 . S
C383 C377 1.491 . S
C383 C382 1.400 . S
C383 C384 1.398 1_455 S
C384 H372 0.950 . S
C384 C383 1.398 1_655 S
C384 C385 1.391 . S
C385 H373 0.950 . S
C385 C381 1.393 1_655 S
C385 C384 1.391 . S
H386 C394 0.950 . S
H387 C399 0.950 . S
H388 C396 0.950 . S
H389 C398 0.950 . S
H390 C400 0.950 . S
H391 C402 0.950 . S
H392 C404 0.950 . S
H393 C405 0.950 . S
C394 H386 0.950 . S
C394 C395 1.386 . S
C394 C396 1.391 . S
C395 C394 1.386 . S
C395 C399 1.393 . S
C396 H388 0.950 . S
C396 C394 1.391 . S
C396 C397 1.400 . S
C397 C396 1.400 . S
C397 C398 1.398 . S
C397 C403 1.491 . S
C398 H389 0.950 . S
C398 C397 1.398 . S
C398 C399 1.391 . S
C399 H387 0.950 . S
C399 C395 1.393 . S
C399 C398 1.391 . S
C400 H390 0.950 . S
C400 C401 1.386 . S
C400 C402 1.391 . S
C401 C400 1.386 . S
C401 C405 1.393 . S
C402 H391 0.950 . S
C402 C400 1.391 . S
C402 C403 1.400 . S
C403 C397 1.491 . S
C403 C402 1.400 . S
C403 C404 1.398 . S
C404 H392 0.950 . S
C404 C403 1.398 . S
C404 C405 1.391 . S
C405 H393 0.950 . S
C405 C401 1.393 . S
C405 C404 1.391 . S
H406 C414 0.950 . S
H407 C419 0.950 . S
H408 C416 0.950 . S
H409 C418 0.950 . S
H410 C420 0.950 . S
H411 C422 0.950 . S
H412 C424 0.950 . S
H413 C425 0.950 . S
C414 H406 0.950 . S
C414 C415 1.386 . S
C414 C416 1.391 . S
C415 C414 1.386 . S
C415 C419 1.393 . S
C416 H408 0.950 . S
C416 C414 1.391 . S
C416 C417 1.400 . S
C417 C416 1.400 . S
C417 C418 1.398 . S
C417 C423 1.491 . S
C418 H409 0.950 . S
C418 C417 1.398 . S
C418 C419 1.391 . S
C419 H407 0.950 . S
C419 C415 1.393 . S
C419 C418 1.391 . S
C420 H410 0.950 . S
C420 C421 1.386 . S
C420 C422 1.391 . S
C421 C420 1.386 . S
C421 C425 1.393 . S
C422 H411 0.950 . S
C422 C420 1.391 . S
C422 C423 1.400 . S
C423 C417 1.491 . S
C423 C422 1.400 . S
C423 C424 1.398 . S
C424 H412 0.950 . S
C424 C423 1.398 . S
C424 C425 1.391 . S
C425 H413 0.950 . S
C425 C421 1.393 . S
C425 C424 1.391 . S
C201 C151 1.452 . S
C195 C16 1.355 . S
C215 C15 1.528 . S
C221 C115 1.529 . S
C235 C13 1.277 . S
C241 C175 1.442 . S
C255 C14 1.351 . S
C261 C139 1.355 . S
C275 C37 1.311 . S
C281 C79 1.476 . S
C295 C36 1.531 . S
C301 C43 1.511 . S
C321 C103 1.451 . S
C315 C34 1.283 . S
C341 C67 1.357 . S
C335 C35 1.320 . S
C355 C17 1.526 . S
C361 C73 1.550 . S
C375 C18 1.395 . S
C381 C109 1.417 . S
C401 C145 1.546 . S
C395 C38 1.526 . S
C415 C39 1.388 . S
C421 C181 1.428 . S
