# Generated by pormake.
# Topology eea, (3,6)-cn, num edge types: 1
# Building blocks:
#     Node 0, Type 0, BuildingBlock: PAMTOO_clean_linker_0, # of connection points: 3
#     Node 1, Type 0, BuildingBlock: PAMTOO_clean_linker_0, # of connection points: 3
#     Node 2, Type 0, BuildingBlock: PAMTOO_clean_linker_0, # of connection points: 3
#     Node 3, Type 0, BuildingBlock: PAMTOO_clean_linker_0, # of connection points: 3
#     Node 4, Type 0, BuildingBlock: PAMTOO_clean_linker_0, # of connection points: 3
#     Node 5, Type 0, BuildingBlock: PAMTOO_clean_linker_0, # of connection points: 3
#     Node 6, Type 0, BuildingBlock: PAMTOO_clean_linker_0, # of connection points: 3
#     Node 7, Type 0, BuildingBlock: PAMTOO_clean_linker_0, # of connection points: 3
#     Node 8, Type 0, BuildingBlock: PAMTOO_clean_linker_0, # of connection points: 3
#     Node 9, Type 0, BuildingBlock: PAMTOO_clean_linker_0, # of connection points: 3
#     Node 10, Type 0, BuildingBlock: PAMTOO_clean_linker_0, # of connection points: 3
#     Node 11, Type 0, BuildingBlock: PAMTOO_clean_linker_0, # of connection points: 3
#     Node 12, Type 0, BuildingBlock: PAMTOO_clean_linker_0, # of connection points: 3
#     Node 13, Type 0, BuildingBlock: PAMTOO_clean_linker_0, # of connection points: 3
#     Node 14, Type 0, BuildingBlock: PAMTOO_clean_linker_0, # of connection points: 3
#     Node 15, Type 0, BuildingBlock: PAMTOO_clean_linker_0, # of connection points: 3
#     Node 16, Type 0, BuildingBlock: PAMTOO_clean_linker_0, # of connection points: 3
#     Node 17, Type 0, BuildingBlock: PAMTOO_clean_linker_0, # of connection points: 3
#     Node 18, Type 1, BuildingBlock: KUMBOL_clean_sbu_0, # of connection points: 6
#     Node 19, Type 1, BuildingBlock: KUMBOL_clean_sbu_0, # of connection points: 6
#     Node 20, Type 1, BuildingBlock: KUMBOL_clean_sbu_0, # of connection points: 6
#     Node 21, Type 1, BuildingBlock: KUMBOL_clean_sbu_0, # of connection points: 6
#     Node 22, Type 1, BuildingBlock: KUMBOL_clean_sbu_0, # of connection points: 6
#     Node 23, Type 1, BuildingBlock: KUMBOL_clean_sbu_0, # of connection points: 6
#     Node 24, Type 1, BuildingBlock: KUMBOL_clean_sbu_0, # of connection points: 6
#     Node 25, Type 1, BuildingBlock: KUMBOL_clean_sbu_0, # of connection points: 6
#     Node 26, Type 1, BuildingBlock: KUMBOL_clean_sbu_0, # of connection points: 6
#     Edge 27, Type (0, 1), BuildingBlock: XIVTED_clean_linker_0, # of connection points: 2
#     Edge 28, Type (0, 1), BuildingBlock: XIVTED_clean_linker_0, # of connection points: 2
#     Edge 29, Type (0, 1), BuildingBlock: XIVTED_clean_linker_0, # of connection points: 2
#     Edge 30, Type (0, 1), BuildingBlock: XIVTED_clean_linker_0, # of connection points: 2
#     Edge 31, Type (0, 1), BuildingBlock: XIVTED_clean_linker_0, # of connection points: 2
#     Edge 32, Type (0, 1), BuildingBlock: XIVTED_clean_linker_0, # of connection points: 2
#     Edge 33, Type (0, 1), BuildingBlock: XIVTED_clean_linker_0, # of connection points: 2
#     Edge 34, Type (0, 1), BuildingBlock: XIVTED_clean_linker_0, # of connection points: 2
#     Edge 35, Type (0, 1), BuildingBlock: XIVTED_clean_linker_0, # of connection points: 2
#     Edge 36, Type (0, 1), BuildingBlock: XIVTED_clean_linker_0, # of connection points: 2
#     Edge 37, Type (0, 1), BuildingBlock: XIVTED_clean_linker_0, # of connection points: 2
#     Edge 38, Type (0, 1), BuildingBlock: XIVTED_clean_linker_0, # of connection points: 2
#     Edge 39, Type (0, 1), BuildingBlock: XIVTED_clean_linker_0, # of connection points: 2
#     Edge 40, Type (0, 1), BuildingBlock: XIVTED_clean_linker_0, # of connection points: 2
#     Edge 41, Type (0, 1), BuildingBlock: XIVTED_clean_linker_0, # of connection points: 2
#     Edge 42, Type (0, 1), BuildingBlock: XIVTED_clean_linker_0, # of connection points: 2
#     Edge 43, Type (0, 1), BuildingBlock: XIVTED_clean_linker_0, # of connection points: 2
#     Edge 44, Type (0, 1), BuildingBlock: XIVTED_clean_linker_0, # of connection points: 2
#     Edge 45, Type (0, 1), BuildingBlock: XIVTED_clean_linker_0, # of connection points: 2
#     Edge 46, Type (0, 1), BuildingBlock: XIVTED_clean_linker_0, # of connection points: 2
#     Edge 47, Type (0, 1), BuildingBlock: XIVTED_clean_linker_0, # of connection points: 2
#     Edge 48, Type (0, 1), BuildingBlock: XIVTED_clean_linker_0, # of connection points: 2
#     Edge 49, Type (0, 1), BuildingBlock: XIVTED_clean_linker_0, # of connection points: 2
#     Edge 50, Type (0, 1), BuildingBlock: XIVTED_clean_linker_0, # of connection points: 2
#     Edge 51, Type (0, 1), BuildingBlock: XIVTED_clean_linker_0, # of connection points: 2
#     Edge 52, Type (0, 1), BuildingBlock: XIVTED_clean_linker_0, # of connection points: 2
#     Edge 53, Type (0, 1), BuildingBlock: XIVTED_clean_linker_0, # of connection points: 2
#     Edge 54, Type (0, 1), BuildingBlock: XIVTED_clean_linker_0, # of connection points: 2
#     Edge 55, Type (0, 1), BuildingBlock: XIVTED_clean_linker_0, # of connection points: 2
#     Edge 56, Type (0, 1), BuildingBlock: XIVTED_clean_linker_0, # of connection points: 2
#     Edge 57, Type (0, 1), BuildingBlock: XIVTED_clean_linker_0, # of connection points: 2
#     Edge 58, Type (0, 1), BuildingBlock: XIVTED_clean_linker_0, # of connection points: 2
#     Edge 59, Type (0, 1), BuildingBlock: XIVTED_clean_linker_0, # of connection points: 2
#     Edge 60, Type (0, 1), BuildingBlock: XIVTED_clean_linker_0, # of connection points: 2
#     Edge 61, Type (0, 1), BuildingBlock: XIVTED_clean_linker_0, # of connection points: 2
#     Edge 62, Type (0, 1), BuildingBlock: XIVTED_clean_linker_0, # of connection points: 2
#     Edge 63, Type (0, 1), BuildingBlock: XIVTED_clean_linker_0, # of connection points: 2
#     Edge 64, Type (0, 1), BuildingBlock: XIVTED_clean_linker_0, # of connection points: 2
#     Edge 65, Type (0, 1), BuildingBlock: XIVTED_clean_linker_0, # of connection points: 2
#     Edge 66, Type (0, 1), BuildingBlock: XIVTED_clean_linker_0, # of connection points: 2
#     Edge 67, Type (0, 1), BuildingBlock: XIVTED_clean_linker_0, # of connection points: 2
#     Edge 68, Type (0, 1), BuildingBlock: XIVTED_clean_linker_0, # of connection points: 2
#     Edge 69, Type (0, 1), BuildingBlock: XIVTED_clean_linker_0, # of connection points: 2
#     Edge 70, Type (0, 1), BuildingBlock: XIVTED_clean_linker_0, # of connection points: 2
#     Edge 71, Type (0, 1), BuildingBlock: XIVTED_clean_linker_0, # of connection points: 2
#     Edge 72, Type (0, 1), BuildingBlock: XIVTED_clean_linker_0, # of connection points: 2
#     Edge 73, Type (0, 1), BuildingBlock: XIVTED_clean_linker_0, # of connection points: 2
#     Edge 74, Type (0, 1), BuildingBlock: XIVTED_clean_linker_0, # of connection points: 2
#     Edge 75, Type (0, 1), BuildingBlock: XIVTED_clean_linker_0, # of connection points: 2
#     Edge 76, Type (0, 1), BuildingBlock: XIVTED_clean_linker_0, # of connection points: 2
#     Edge 77, Type (0, 1), BuildingBlock: XIVTED_clean_linker_0, # of connection points: 2
#     Edge 78, Type (0, 1), BuildingBlock: XIVTED_clean_linker_0, # of connection points: 2
#     Edge 79, Type (0, 1), BuildingBlock: XIVTED_clean_linker_0, # of connection points: 2
#     Edge 80, Type (0, 1), BuildingBlock: XIVTED_clean_linker_0, # of connection points: 2
# Relax obj value: 0.023
# Max RMSD: 0.165
# Mean RMSD: 0.119
data_MOF--net-eea--node1-KUMBOL_clean_sbu_0--node2-PAMTOO_clean_linker_0--edge1-XIVTED_clean_linker_0
_symmetry_space_group_name_H-M    P1
_symmetry_Int_Tables_number       1
_symmetry_cell_setting            triclinic
loop_
_symmetry_equiv_pos_as_xyz
'x, y, z'
_cell_length_a     54.302886
_cell_length_b     56.096118
_cell_length_c     66.578369
_cell_angle_alpha  89.923019
_cell_angle_beta   89.831659
_cell_angle_gamma 119.97825
loop_
_atom_site_label
_atom_site_type_symbol
_atom_site_fract_x
_atom_site_fract_y
_atom_site_fract_z
_atom_type_partial_charge
H0 H 0.25314 0.07323 0.43465 0.0
H1 H 0.25126 0.14875 0.43098 0.0
H2 H 0.21118 0.08791 0.38517 0.0
H3 H 0.23953 0.14421 0.36825 0.0
C4 C 0.24158 0.15542 0.38248 0.0
O5 O 0.22407 0.13707 0.39691 0.0
H6 H 0.26423 0.16546 0.38725 0.0
C7 C 0.24613 0.08586 0.42704 0.0
C8 C 0.23089 0.0768 0.40894 0.0
C9 C 0.25324 0.11151 0.43528 0.0
C10 C 0.24589 0.12882 0.42491 0.0
C11 C 0.23108 0.12029 0.40677 0.0
C12 C 0.22327 0.09429 0.39896 0.0
H13 H 0.94474 0.18173 0.43123 0.0
H14 H 0.87409 0.09879 0.42928 0.0
H15 H 0.93406 0.1296 0.38063 0.0
H16 H 0.87602 0.09089 0.36581 0.0
C17 C 0.8662 0.083 0.3808 0.0
O18 O 0.88723 0.08727 0.39435 0.0
H19 H 0.85534 0.09457 0.38535 0.0
C20 C 0.93281 0.16224 0.42351 0.0
C21 C 0.94248 0.15851 0.40478 0.0
C22 C 0.90833 0.14082 0.43265 0.0
C23 C 0.89335 0.11542 0.42274 0.0
C24 C 0.90256 0.11151 0.40402 0.0
C25 C 0.92726 0.13285 0.39518 0.0
H26 H 0.84293 0.77223 0.43258 0.0
H27 H 0.92659 0.78197 0.42842 0.0
H28 H 0.89546 0.81113 0.38059 0.0
H29 H 0.93735 0.79594 0.36409 0.0
C30 C 0.94284 0.79109 0.37903 0.0
O31 O 0.93887 0.80659 0.39348 0.0
H32 H 0.92828 0.7687 0.38177 0.0
C33 C 0.86268 0.77932 0.4244 0.0
C34 C 0.86617 0.79182 0.40545 0.0
C35 C 0.88423 0.77566 0.4329 0.0
C36 C 0.90969 0.78458 0.42213 0.0
C37 C 0.91383 0.79751 0.40339 0.0
C38 C 0.89219 0.80135 0.39516 0.0
H39 H 0.07931 0.2397 0.59736 0.0
H40 H 0.15127 0.22717 0.60109 0.0
H41 H 0.08963 0.19851 0.64865 0.0
H42 H 0.14673 0.21198 0.66534 0.0
C43 C 0.15729 0.21759 0.65039 0.0
O44 O 0.13746 0.20246 0.63581 0.0
H45 H 0.1655 0.24003 0.64822 0.0
C46 C 0.09119 0.23187 0.60531 0.0
C47 C 0.08113 0.21875 0.62407 0.0
C48 C 0.11648 0.23514 0.59676 0.0
C49 C 0.13188 0.22515 0.60735 0.0
C50 C 0.12223 0.21199 0.62596 0.0
C51 C 0.09677 0.20854 0.63418 0.0
H52 H 0.7699 0.83641 0.59501 0.0
H53 H 0.77816 0.91655 0.60029 0.0
H54 H 0.81699 0.89026 0.64398 0.0
H55 H 0.79288 0.92148 0.66323 0.0
C56 C 0.7891 0.9298 0.64913 0.0
O57 O 0.80582 0.9286 0.63398 0.0
H58 H 0.7661 0.91699 0.64541 0.0
C59 C 0.77854 0.85597 0.60267 0.0
C60 C 0.79455 0.86062 0.62034 0.0
C61 C 0.77271 0.87605 0.59508 0.0
C62 C 0.78237 0.90072 0.60572 0.0
C63 C 0.79773 0.90533 0.62346 0.0
C64 C 0.80432 0.88572 0.6305 0.0
H65 H 0.18027 0.93202 0.59789 0.0
H66 H 0.09988 0.85685 0.6011 0.0
H67 H 0.11897 0.92111 0.64358 0.0
H68 H 0.08452 0.86852 0.66322 0.0
C69 C 0.0794 0.85544 0.64961 0.0
O70 O 0.0817 0.871 0.63285 0.0
H71 H 0.09502 0.84807 0.64881 0.0
C72 C 0.15971 0.91976 0.60499 0.0
C73 C 0.15229 0.93027 0.6217 0.0
C74 C 0.14093 0.89356 0.59718 0.0
C75 C 0.1145 0.87729 0.60664 0.0
C76 C 0.10693 0.88713 0.62354 0.0
C77 C 0.12554 0.91366 0.63081 0.0
H78 H 0.92387 0.40728 0.76745 0.0
H79 H 0.92276 0.48335 0.76516 0.0
H80 H 0.87486 0.42017 0.72232 0.0
H81 H 0.90215 0.47418 0.70399 0.0
C82 C 0.90588 0.48689 0.71768 0.0
O83 O 0.8904 0.47016 0.7335 0.0
H84 H 0.92906 0.4975 0.72103 0.0
C85 C 0.91636 0.41997 0.76061 0.0
C86 C 0.89816 0.4101 0.74389 0.0
C87 C 0.92508 0.44615 0.76864 0.0
C88 C 0.91585 0.46286 0.75952 0.0
C89 C 0.89818 0.4535 0.74268 0.0
C90 C 0.889 0.42713 0.73511 0.0
H91 H 0.61246 0.51516 0.7631 0.0
H92 H 0.54171 0.43227 0.76129 0.0
H93 H 0.60108 0.46316 0.71227 0.0
H94 H 0.54251 0.42431 0.69778 0.0
C95 C 0.53303 0.41657 0.71288 0.0
O96 O 0.55435 0.42083 0.72616 0.0
H97 H 0.52239 0.42827 0.7176 0.0
C98 C 0.60042 0.49569 0.75537 0.0
C99 C 0.60984 0.49199 0.73653 0.0
C100 C 0.57604 0.47427 0.76459 0.0
C101 C 0.5609 0.4489 0.75467 0.0
C102 C 0.56984 0.44503 0.73583 0.0
C103 C 0.59446 0.46637 0.72691 0.0
H104 H 0.50906 0.10593 0.76593 0.0
H105 H 0.59255 0.11527 0.76185 0.0
H106 H 0.5615 0.14411 0.71377 0.0
H107 H 0.60298 0.12821 0.69749 0.0
C108 C 0.6087 0.12372 0.71248 0.0
O109 O 0.60483 0.13949 0.72676 0.0
H110 H 0.59423 0.10138 0.7155 0.0
C111 C 0.52877 0.11287 0.75774 0.0
C112 C 0.53226 0.12517 0.73871 0.0
C113 C 0.55028 0.10918 0.7663 0.0
C114 C 0.57569 0.11789 0.75552 0.0
C115 C 0.57983 0.13062 0.73669 0.0
C116 C 0.55823 0.13448 0.72839 0.0
H117 H 0.74767 0.57249 0.93046 0.0
H118 H 0.81964 0.55996 0.93403 0.0
H119 H 0.75852 0.53194 0.98194 0.0
H120 H 0.81623 0.54559 0.99831 0.0
C121 C 0.8264 0.55106 0.98322 0.0
O122 O 0.80623 0.53569 0.9689 0.0
H123 H 0.83445 0.57346 0.98096 0.0
C124 C 0.75963 0.56476 0.93842 0.0
C125 C 0.74978 0.55188 0.95727 0.0
C126 C 0.78481 0.56789 0.92977 0.0
C127 C 0.80032 0.55803 0.94036 0.0
C128 C 0.79089 0.54512 0.95907 0.0
C129 C 0.76551 0.5418 0.9674 0.0
H130 H 0.43836 0.17055 0.92755 0.0
H131 H 0.44665 0.25065 0.93328 0.0
H132 H 0.48578 0.2241 0.97655 0.0
H133 H 0.4621 0.2554 0.99619 0.0
C134 C 0.45807 0.26369 0.98217 0.0
O135 O 0.4746 0.26254 0.96685 0.0
H136 H 0.43502 0.25082 0.97862 0.0
C137 C 0.44705 0.19007 0.93527 0.0
C138 C 0.46317 0.19461 0.95287 0.0
C139 C 0.44118 0.21019 0.92785 0.0
C140 C 0.45089 0.23479 0.93859 0.0
C141 C 0.46638 0.2393 0.95626 0.0
C142 C 0.47302 0.21964 0.96313 0.0
H143 H 0.84348 0.26781 0.93046 0.0
H144 H 0.76392 0.19186 0.93554 0.0
H145 H 0.79096 0.25092 0.98319 0.0
H146 H 0.7553 0.19556 0.99998 0.0
C147 C 0.74912 0.18477 0.98529 0.0
O148 O 0.75054 0.20294 0.97068 0.0
H149 H 0.76439 0.17749 0.98189 0.0
C150 C 0.82436 0.2544 0.93889 0.0
C151 C 0.82007 0.26263 0.95793 0.0
C152 C 0.80436 0.22896 0.93063 0.0
C153 C 0.77966 0.21153 0.94165 0.0
C154 C 0.77478 0.21963 0.96045 0.0
C155 C 0.79484 0.24515 0.96851 0.0
H156 H 0.5838 0.73811 0.10293 0.0
H157 H 0.58337 0.81434 0.09916 0.0
H158 H 0.54307 0.7538 0.05316 0.0
H159 H 0.57219 0.80973 0.03635 0.0
C160 C 0.57422 0.82115 0.05046 0.0
O161 O 0.55651 0.80307 0.06494 0.0
H162 H 0.59682 0.8311 0.05535 0.0
C163 C 0.57717 0.75099 0.09527 0.0
C164 C 0.56216 0.74221 0.07707 0.0
C165 C 0.58458 0.77672 0.10352 0.0
C166 C 0.57772 0.79433 0.09309 0.0
C167 C 0.56307 0.78602 0.07487 0.0
C168 C 0.55498 0.75998 0.06703 0.0
H169 H 0.2794 0.84887 0.09861 0.0
H170 H 0.20838 0.76614 0.09628 0.0
H171 H 0.2677 0.79753 0.04728 0.0
H172 H 0.20923 0.75947 0.03277 0.0
C173 C 0.19966 0.75108 0.04775 0.0
O174 O 0.22094 0.75511 0.06098 0.0
H175 H 0.18873 0.76237 0.05283 0.0
C176 C 0.26728 0.82953 0.09074 0.0
C177 C 0.27665 0.82605 0.0718 0.0
C178 C 0.24284 0.80802 0.09987 0.0
C179 C 0.2276 0.78282 0.08974 0.0
C180 C 0.23649 0.77918 0.07082 0.0
C181 C 0.26114 0.80059 0.06199 0.0
H182 H 0.17711 0.43817 0.09914 0.0
H183 H 0.26093 0.44825 0.09511 0.0
H184 H 0.22984 0.47758 0.04735 0.0
H185 H 0.27197 0.46278 0.03073 0.0
C186 C 0.27716 0.45755 0.04564 0.0
O187 O 0.27325 0.47297 0.0602 0.0
H188 H 0.26232 0.43515 0.04816 0.0
C189 C 0.19695 0.44542 0.09103 0.0
C190 C 0.20049 0.45803 0.07213 0.0
C191 C 0.21852 0.44183 0.09956 0.0
C192 C 0.24403 0.45085 0.08883 0.0
C193 C 0.24821 0.46388 0.07011 0.0
C194 C 0.22656 0.46772 0.06189 0.0
H195 H 0.41378 0.9052 0.2641 0.0
H196 H 0.48467 0.89112 0.26861 0.0
H197 H 0.42232 0.86337 0.31569 0.0
H198 H 0.47915 0.87624 0.3329 0.0
C199 C 0.48983 0.88166 0.31798 0.0
O200 O 0.47004 0.86658 0.30336 0.0
H201 H 0.4983 0.90413 0.31572 0.0
C202 C 0.42524 0.89702 0.27219 0.0
C203 C 0.41474 0.88397 0.2909 0.0
C204 C 0.45044 0.89981 0.26387 0.0
C205 C 0.46533 0.88943 0.27467 0.0
C206 C 0.45524 0.87636 0.29326 0.0
C207 C 0.42982 0.87335 0.30124 0.0
H208 H 0.10499 0.50378 0.26018 0.0
H209 H 0.10908 0.58208 0.26711 0.0
H210 H 0.14204 0.55282 0.31318 0.0
H211 H 0.1166 0.58405 0.33041 0.0
C212 C 0.11493 0.59334 0.31608 0.0
O213 O 0.13326 0.59248 0.3021 0.0
H214 H 0.09249 0.58125 0.31087 0.0
C215 C 0.11107 0.52225 0.2688 0.0
C216 C 0.12457 0.52579 0.2875 0.0
C217 C 0.1051 0.54228 0.26127 0.0
C218 C 0.11307 0.56614 0.27262 0.0
C219 C 0.1263 0.56974 0.29121 0.0
C220 C 0.13216 0.54978 0.29858 0.0
H221 H 0.5094 0.60044 0.26255 0.0
H222 H 0.42942 0.5252 0.26716 0.0
H223 H 0.45271 0.58712 0.31231 0.0
H224 H 0.41823 0.53253 0.33097 0.0
C225 C 0.41274 0.52072 0.3167 0.0
O226 O 0.41428 0.53768 0.30109 0.0
H227 H 0.42847 0.51369 0.31447 0.0
C228 C 0.48942 0.58808 0.27036 0.0
C229 C 0.48382 0.59761 0.28842 0.0
C230 C 0.46985 0.56231 0.26234 0.0
C231 C 0.44474 0.54521 0.27303 0.0
C232 C 0.43883 0.55415 0.29111 0.0
C233 C 0.45808 0.58037 0.2986 0.0
Gd234 Gd 0.51849 0.01954 0.04019 0.0
Gd235 Gd 0.49529 0.98914 0.98933 0.0
C236 C 0.40831 0.91326 0.97889 0.0
C237 C 0.42097 0.87876 0.96986 0.0
C238 C 0.45784 0.92562 0.97723 0.0
C239 C 0.4374 0.93284 0.98102 0.0
C240 C 0.44992 0.89869 0.97111 0.0
C241 C 0.40019 0.88603 0.97377 0.0
C242 C 0.38833 0.92184 0.98141 0.0
C243 C 0.39763 0.94953 0.9852 0.0
N244 N 0.44603 0.9594 0.98569 0.0
C245 C 0.42674 0.96821 0.98701 0.0
H246 H 0.43359 0.98951 0.99 0.0
C247 C 0.50649 0.94034 0.97217 0.0
N248 N 0.48556 0.94547 0.97835 0.0
C249 C 0.49973 0.9139 0.9661 0.0
C250 C 0.47134 0.89287 0.96583 0.0
H251 H 0.52848 0.95651 0.97247 0.0
H252 H 0.37794 0.87063 0.97227 0.0
H253 H 0.58043 0.01958 0.03988 0.0
H254 H 0.36578 0.90743 0.97998 0.0
H255 H 0.3824 0.9565 0.98678 0.0
H256 H 0.41443 0.85787 0.96538 0.0
H257 H 0.4848 0.05144 0.05748 0.0
H258 H 0.64771 0.10132 0.0516 0.0
H259 H 0.63143 0.05252 0.04404 0.0
H260 H 0.59837 0.1501 0.06657 0.0
H261 H 0.51642 0.90974 0.96168 0.0
H262 H 0.46614 0.87243 0.96105 0.0
H263 H 0.63518 0.13778 0.05965 0.0
H264 H 0.49637 0.09761 0.0693 0.0
N265 N 0.56768 0.04943 0.0444 0.0
C266 C 0.62522 0.08693 0.04976 0.0
C267 C 0.61611 0.05939 0.04555 0.0
C268 C 0.60512 0.09537 0.05216 0.0
C269 C 0.57612 0.07582 0.04949 0.0
C270 C 0.58708 0.04074 0.0432 0.0
N271 N 0.52789 0.06287 0.0518 0.0
C272 C 0.55552 0.08278 0.05331 0.0
C273 C 0.51322 0.09377 0.06475 0.0
C274 C 0.54155 0.11489 0.06541 0.0
C275 C 0.50674 0.06763 0.05808 0.0
C276 C 0.56316 0.10944 0.05997 0.0
H277 H 0.54653 0.1351 0.07064 0.0
O278 O 0.4959 0.0081 0.06878 0.0
O279 O 0.4842 0.98725 0.02163 0.0
O280 O 0.48366 0.022 0.99622 0.0
O281 O 0.515 0.05079 0.02083 0.0
O282 O 0.47158 0.00487 0.04344 0.0
O283 O 0.53146 0.00156 0.06393 0.0
O284 O 0.51845 0.00102 0.96102 0.0
O285 O 0.52946 0.02143 0.00788 0.0
O286 O 0.53091 0.98716 0.03292 0.0
O287 O 0.49892 0.95823 0.00869 0.0
O288 O 0.54237 0.00437 0.98577 0.0
O289 O 0.48101 0.00486 0.96483 0.0
C290 C 0.46271 0.98638 0.02965 0.0
C291 C 0.59204 0.12941 0.06167 0.0
C292 C 0.613 0.12239 0.05775 0.0
C293 C 0.51279 0.00054 0.07679 0.0
C294 C 0.52342 0.0112 0.09706 0.0
C295 C 0.54467 0.0387 0.09964 0.0
C296 C 0.51236 0.99387 0.11399 0.0
C297 C 0.52266 0.00396 0.13342 0.0
C298 C 0.55477 0.04889 0.11876 0.0
C299 C 0.54391 0.03173 0.13553 0.0
C300 C 0.49731 0.04596 0.00568 0.0
C301 C 0.55104 0.02271 0.99969 0.0
C302 C 0.50066 0.00697 0.95243 0.0
C303 C 0.49134 0.99577 0.93211 0.0
C304 C 0.47143 0.96784 0.92943 0.0
C305 C 0.50306 0.01293 0.91518 0.0
C306 C 0.49523 0.00212 0.89562 0.0
C307 C 0.46351 0.95704 0.91015 0.0
C308 C 0.47537 0.97396 0.89335 0.0
C309 C 0.51756 0.96337 0.02317 0.0
H310 H 0.55347 0.0523 0.08689 0.0
H311 H 0.49612 0.97253 0.11197 0.0
H312 H 0.57109 0.0702 0.1206 0.0
H313 H 0.55194 0.04036 0.15021 0.0
H314 H 0.46206 0.95438 0.94221 0.0
H315 H 0.51858 0.0345 0.91722 0.0
H316 H 0.44812 0.93544 0.90821 0.0
H317 H 0.46866 0.9651 0.87855 0.0
Gd318 Gd 0.99586 0.49694 0.0388 0.0
Gd319 Gd 0.03227 0.50345 0.99028 0.0
C320 C 0.11309 0.49771 0.98597 0.0
C321 C 0.14855 0.54456 0.97692 0.0
C322 C 0.09912 0.53215 0.98149 0.0
C323 C 0.09212 0.50553 0.98632 0.0
C324 C 0.12728 0.55183 0.97627 0.0
C325 C 0.14147 0.51753 0.98177 0.0
C326 C 0.10476 0.47004 0.98922 0.0
C327 C 0.07602 0.45083 0.99199 0.0
N328 N 0.06443 0.48684 0.99003 0.0
C329 C 0.05598 0.45958 0.99209 0.0
H330 H 0.03387 0.44451 0.99433 0.0
C331 C 0.08312 0.56322 0.97345 0.0
N332 N 0.07798 0.53833 0.98071 0.0
C333 C 0.11075 0.58351 0.96825 0.0
C334 C 0.13302 0.57792 0.96991 0.0
H335 H 0.06597 0.56766 0.97225 0.0
H336 H 0.15793 0.51199 0.98167 0.0
H337 H 0.99428 0.55597 0.03524 0.0
H338 H 0.12023 0.46321 0.98914 0.0
H339 H 0.06927 0.4293 0.99414 0.0
H340 H 0.17038 0.55945 0.97315 0.0
H341 H 0.96213 0.43224 0.05598 0.0
H342 H 0.90833 0.53766 0.04253 0.0
H343 H 0.9591 0.57138 0.03657 0.0
H344 H 0.85823 0.44125 0.05796 0.0
H345 H 0.11487 0.60344 0.96298 0.0
H346 H 0.15438 0.59362 0.96578 0.0
H347 H 0.87071 0.48891 0.05014 0.0
H348 H 0.91341 0.39648 0.06551 0.0
N349 N 0.96381 0.51368 0.03989 0.0
C350 C 0.92371 0.53074 0.04198 0.0
C351 C 0.95235 0.54983 0.03865 0.0
C352 C 0.91538 0.50304 0.04505 0.0
C353 C 0.93624 0.49509 0.04406 0.0
C354 C 0.97227 0.54096 0.03789 0.0
N355 N 0.95026 0.46203 0.04863 0.0
C356 C 0.92922 0.46837 0.04853 0.0
C357 C 0.91754 0.41658 0.06068 0.0
C358 C 0.89538 0.4224 0.05977 0.0
C359 C 0.94509 0.43688 0.05533 0.0
C360 C 0.90115 0.4487 0.05397 0.0
H361 H 0.87408 0.4067 0.06403 0.0
O362 O 1.00471 0.48764 0.06868 0.0
O363 O 0.03178 0.49662 0.02309 0.0
O364 O 0.99846 0.45902 0.99747 0.0
O365 O 0.96602 0.46162 0.01913 0.0
O366 O 0.01244 0.46778 0.04545 0.0
O367 O 0.01038 0.52799 0.06213 0.0
O368 O 0.02382 0.5126 0.96024 0.0
O369 O 0.9965 0.50386 0.00602 0.0
O370 O 0.02932 0.5415 0.03144 0.0
O371 O 0.0618 0.539 0.00977 0.0
O372 O 0.01508 0.53211 0.98322 0.0
O373 O 0.019 0.47261 0.96686 0.0
C374 C 0.03288 0.47768 0.03252 0.0
C375 C 0.87999 0.45614 0.05401 0.0
C376 C 0.8871 0.48327 0.04956 0.0
C377 C 0.01046 0.51145 0.0759 0.0
C378 C 0.9968 0.51077 0.09514 0.0
C379 C 0.96865 0.5053 0.09588 0.0
C380 C 0.01204 0.51523 0.11304 0.0
C381 C 0.99927 0.51419 0.13172 0.0
C382 C 0.9558 0.50417 0.11429 0.0
C383 C 0.97092 0.50853 0.13212 0.0
C384 C 0.97282 0.44831 0.00583 0.0
C385 C 0.99496 0.52243 0.9964 0.0
C386 C 0.01909 0.48912 0.95299 0.0
C387 C 0.03399 0.49062 0.93416 0.0
C388 C 0.06207 0.49583 0.93428 0.0
C389 C 0.02012 0.48734 0.91578 0.0
C390 C 0.03419 0.48934 0.8975 0.0
C391 C 0.07624 0.49803 0.91627 0.0
C392 C 0.06248 0.49488 0.89798 0.0
C393 C 0.0549 0.55233 0.02296 0.0
H394 H 0.95661 0.5019 0.08229 0.0
H395 H 0.03393 0.51981 0.11235 0.0
H396 H 0.934 0.49979 0.11476 0.0
H397 H 0.96029 0.50712 0.14622 0.0
H398 H 0.07305 0.4982 0.94822 0.0
H399 H 0.99825 0.48286 0.91578 0.0
H400 H 0.09798 0.50223 0.9165 0.0
H401 H 0.07409 0.497 0.88422 0.0
Gd402 Gd 0.50663 0.51398 0.98915 0.0
Gd403 Gd 0.53227 0.50801 0.03933 0.0
C404 C 0.61978 0.51674 0.04784 0.0
C405 C 0.60765 0.47035 0.05761 0.0
C406 C 0.57037 0.48123 0.05091 0.0
C407 C 0.59059 0.50809 0.04641 0.0
C408 C 0.57864 0.4622 0.05704 0.0
C409 C 0.62819 0.49757 0.05299 0.0
C410 C 0.6396 0.54455 0.04461 0.0
C411 C 0.63009 0.56309 0.04083 0.0
N412 N 0.5817 0.52613 0.04172 0.0
C413 C 0.6009 0.55354 0.0397 0.0
H414 H 0.59389 0.5681 0.03668 0.0
C415 C 0.52198 0.44895 0.05718 0.0
N416 N 0.54257 0.47415 0.05038 0.0
C417 C 0.5291 0.42929 0.06329 0.0
C418 C 0.55753 0.43582 0.06297 0.0
H419 H 0.49997 0.44379 0.05734 0.0
H420 H 0.65051 0.50376 0.05397 0.0
H421 H 0.4445 0.45449 0.99214 0.0
H422 H 0.66222 0.55201 0.0455 0.0
H423 H 0.64523 0.58473 0.0387 0.0
H424 H 0.61444 0.45595 0.06209 0.0
H425 H 0.53965 0.57738 0.96972 0.0
H426 H 0.37699 0.47131 0.98174 0.0
H427 H 0.39333 0.43833 0.98952 0.0
H428 H 0.42602 0.56682 0.96355 0.0
H429 H 0.51268 0.40913 0.0682 0.0
H430 H 0.563 0.42059 0.06777 0.0
H431 H 0.3894 0.5195 0.97241 0.0
H432 H 0.52768 0.6119 0.95734 0.0
N433 N 0.45727 0.4965 0.98659 0.0
C434 C 0.39954 0.47857 0.98292 0.0
C435 C 0.40868 0.45989 0.98725 0.0
C436 C 0.41965 0.50624 0.9795 0.0
C437 C 0.44874 0.51463 0.98134 0.0
C438 C 0.43779 0.46918 0.98874 0.0
N439 N 0.4969 0.54783 0.9771 0.0
C440 C 0.46925 0.54117 0.97639 0.0
C441 C 0.51104 0.59214 0.96276 0.0
C442 C 0.48278 0.5861 0.9629 0.0
C443 C 0.51775 0.57254 0.96975 0.0
C444 C 0.46139 0.56019 0.96946 0.0
H445 H 0.47762 0.60128 0.95743 0.0
O446 O 0.52748 0.52281 0.95996 0.0
O447 O 0.54198 0.51532 0.00676 0.0
O448 O 0.54352 0.55193 0.03186 0.0
O449 O 0.51126 0.54959 0.00768 0.0
O450 O 0.5535 0.54425 0.98439 0.0
O451 O 0.49113 0.4826 0.96602 0.0
O452 O 0.5105 0.4982 0.06814 0.0
O453 O 0.49708 0.50695 0.02176 0.0
O454 O 0.4946 0.46983 0.99711 0.0
O455 O 0.52819 0.47321 0.02041 0.0
O456 O 0.48532 0.47786 0.04411 0.0
O457 O 0.54818 0.53799 0.06347 0.0
C458 C 0.56313 0.53479 0.99802 0.0
C459 C 0.43249 0.55241 0.96863 0.0
C460 C 0.41164 0.52547 0.97367 0.0
C461 C 0.5092 0.49896 0.95254 0.0
C462 C 0.49747 0.4995 0.93275 0.0
C463 C 0.4739 0.50328 0.93117 0.0
C464 C 0.51034 0.49683 0.91521 0.0
C465 C 0.49992 0.49824 0.89615 0.0
C466 C 0.46346 0.50468 0.91236 0.0
C467 C 0.47638 0.50226 0.89494 0.0
C468 C 0.52955 0.5624 0.0224 0.0
C469 C 0.47587 0.48763 0.03057 0.0
C470 C 0.52904 0.52138 0.0763 0.0
C471 C 0.53915 0.51926 0.09633 0.0
C472 C 0.56061 0.51251 0.09854 0.0
C473 C 0.5265 0.52318 0.11351 0.0
C474 C 0.53505 0.52017 0.13287 0.0
C475 C 0.56917 0.50946 0.11765 0.0
C476 C 0.55647 0.51317 0.13472 0.0
C477 C 0.50879 0.45959 0.00656 0.0
H478 H 0.46354 0.50513 0.94442 0.0
H479 H 0.52869 0.49409 0.91641 0.0
H480 H 0.44525 0.5076 0.91128 0.0
H481 H 0.46771 0.50314 0.88051 0.0
H482 H 0.5707 0.50956 0.08554 0.0
H483 H 0.50974 0.52816 0.11177 0.0
H484 H 0.58576 0.50425 0.11924 0.0
H485 H 0.56377 0.51104 0.14938 0.0
Gd486 Gd 0.18443 0.35335 0.37322 0.0
Gd487 Gd 0.16042 0.32208 0.32267 0.0
C488 C 0.07463 0.24458 0.31231 0.0
C489 C 0.08872 0.2112 0.30299 0.0
C490 C 0.12455 0.25846 0.3104 0.0
C491 C 0.10352 0.2648 0.31437 0.0
C492 C 0.11745 0.23176 0.30421 0.0
C493 C 0.06734 0.2176 0.30705 0.0
C494 C 0.054 0.25229 0.31502 0.0
C495 C 0.06246 0.27975 0.31895 0.0
N496 N 0.11136 0.29114 0.31918 0.0
C497 C 0.09139 0.29909 0.3207 0.0
H498 H 0.09756 0.32019 0.32383 0.0
C499 C 0.17349 0.27453 0.30535 0.0
N500 N 0.15203 0.27888 0.31153 0.0
C501 C 0.16755 0.24836 0.2992 0.0
C502 C 0.13942 0.22677 0.29887 0.0
H503 H 0.19528 0.2911 0.30568 0.0
H504 H 0.04526 0.20172 0.30559 0.0
H505 H 0.24635 0.35332 0.37291 0.0
H506 H 0.03158 0.23736 0.31363 0.0
H507 H 0.04671 0.28605 0.3207 0.0
H508 H 0.08282 0.19049 0.29845 0.0
H509 H 0.15098 0.38628 0.38896 0.0
H510 H 0.31383 0.43541 0.38327 0.0
H511 H 0.29741 0.38636 0.37656 0.0
H512 H 0.26485 0.48502 0.39648 0.0
H513 H 0.18466 0.24484 0.29476 0.0
H514 H 0.13487 0.20654 0.29404 0.0
H515 H 0.30149 0.47222 0.39039 0.0
H516 H 0.16282 0.43321 0.39908 0.0
N517 N 0.23368 0.3833 0.377 0.0
C518 C 0.29131 0.42096 0.3817 0.0
C519 C 0.28211 0.39329 0.37795 0.0
C520 C 0.27126 0.4295 0.38389 0.0
C521 C 0.24221 0.40987 0.38158 0.0
C522 C 0.25305 0.37458 0.37589 0.0
N523 N 0.19402 0.3972 0.38374 0.0
C524 C 0.2217 0.41708 0.385 0.0
C525 C 0.17959 0.42899 0.39507 0.0
C526 C 0.20797 0.45001 0.39554 0.0
C527 C 0.17297 0.40244 0.38941 0.0
C528 C 0.22949 0.4441 0.39079 0.0
H529 H 0.21307 0.47053 0.40004 0.0
O530 O 0.16261 0.34326 0.40209 0.0
O531 O 0.15005 0.32049 0.35511 0.0
O532 O 0.14721 0.35369 0.33004 0.0
O533 O 0.18002 0.38368 0.35338 0.0
O534 O 0.13743 0.33792 0.37712 0.0
O535 O 0.19767 0.33593 0.3972 0.0
O536 O 0.18326 0.33482 0.29428 0.0
O537 O 0.19469 0.35485 0.34087 0.0
O538 O 0.1969 0.32091 0.36609 0.0
O539 O 0.16478 0.29162 0.34203 0.0
O540 O 0.20762 0.33804 0.31864 0.0
O541 O 0.14511 0.33736 0.29851 0.0
C542 C 0.12857 0.31927 0.36343 0.0
C543 C 0.25841 0.46407 0.39223 0.0
C544 C 0.27927 0.45678 0.38877 0.0
C545 C 0.17939 0.33557 0.41013 0.0
C546 C 0.19045 0.34664 0.43024 0.0
C547 C 0.2117 0.3742 0.43249 0.0
C548 C 0.17976 0.3296 0.44736 0.0
C549 C 0.19045 0.34005 0.46665 0.0
C550 C 0.2222 0.38473 0.45148 0.0
C551 C 0.21172 0.36787 0.46843 0.0
C552 C 0.16093 0.37792 0.3391 0.0
C553 C 0.2163 0.35644 0.33251 0.0
C554 C 0.16488 0.34016 0.28595 0.0
C555 C 0.15566 0.32907 0.2656 0.0
C556 C 0.13574 0.30116 0.2628 0.0
C557 C 0.16761 0.34632 0.24876 0.0
C558 C 0.15997 0.33568 0.22916 0.0
C559 C 0.12801 0.29051 0.24346 0.0
C560 C 0.14007 0.30757 0.22674 0.0
C561 C 0.18364 0.29704 0.3564 0.0
H562 H 0.22016 0.38758 0.41959 0.0
H563 H 0.1635 0.30822 0.4456 0.0
H564 H 0.23852 0.40609 0.45308 0.0
H565 H 0.22006 0.37676 0.483 0.0
H566 H 0.12626 0.28761 0.27553 0.0
H567 H 0.18318 0.36786 0.25092 0.0
H568 H 0.11261 0.26895 0.24142 0.0
H569 H 0.13349 0.29883 0.21189 0.0
Gd570 Gd 0.66063 0.82949 0.37416 0.0
Gd571 Gd 0.69608 0.83553 0.32533 0.0
C572 C 0.775 0.82671 0.32014 0.0
C573 C 0.81153 0.87321 0.31123 0.0
C574 C 0.76263 0.86237 0.31616 0.0
C575 C 0.75472 0.83542 0.32071 0.0
C576 C 0.79097 0.88141 0.31085 0.0
C577 C 0.80356 0.8459 0.31589 0.0
C578 C 0.7658 0.79883 0.32328 0.0
C579 C 0.73689 0.78029 0.32616 0.0
N580 N 0.72689 0.81737 0.32454 0.0
C581 C 0.71757 0.78991 0.3265 0.0
H582 H 0.69533 0.77536 0.32885 0.0
C583 C 0.7481 0.89468 0.30857 0.0
N584 N 0.74216 0.86948 0.31568 0.0
C585 C 0.77594 0.91437 0.30328 0.0
C586 C 0.79756 0.90783 0.30469 0.0
H587 H 0.73144 0.89983 0.30757 0.0
H588 H 0.8195 0.83967 0.31561 0.0
H589 H 0.65913 0.88847 0.36999 0.0
H590 H 0.7807 0.79132 0.32303 0.0
H591 H 0.72947 0.7586 0.32822 0.0
H592 H 0.83349 0.88761 0.30741 0.0
H593 H 0.62788 0.76634 0.394 0.0
H594 H 0.57325 0.87044 0.37732 0.0
H595 H 0.62399 0.90397 0.371 0.0
H596 H 0.52374 0.77496 0.39556 0.0
H597 H 0.7807 0.93455 0.29815 0.0
H598 H 0.81909 0.92307 0.3005 0.0
H599 H 0.53581 0.82202 0.38606 0.0
H600 H 0.57975 0.73143 0.40538 0.0
N601 N 0.62862 0.8463 0.37507 0.0
C602 C 0.58861 0.86347 0.37687 0.0
C603 C 0.61723 0.88247 0.37337 0.0
C604 C 0.58031 0.83588 0.38045 0.0
C605 C 0.60113 0.82789 0.3796 0.0
C606 C 0.63712 0.87356 0.3728 0.0
N607 N 0.61544 0.79526 0.38525 0.0
C608 C 0.59433 0.80149 0.38491 0.0
C609 C 0.58352 0.75099 0.39955 0.0
C610 C 0.56119 0.75655 0.39829 0.0
C611 C 0.61074 0.77081 0.39312 0.0
C612 C 0.56653 0.78222 0.39122 0.0
H613 H 0.54014 0.7412 0.40332 0.0
O614 O 0.67048 0.82123 0.40408 0.0
O615 O 0.69588 0.82845 0.35804 0.0
O616 O 0.6612 0.79138 0.332 0.0
O617 O 0.62998 0.79341 0.3553 0.0
O618 O 0.67677 0.79993 0.38059 0.0
O619 O 0.67577 0.86126 0.39695 0.0
O620 O 0.68735 0.84567 0.29573 0.0
O621 O 0.66061 0.83625 0.34133 0.0
O622 O 0.69436 0.87385 0.36656 0.0
O623 O 0.72634 0.87069 0.34482 0.0
O624 O 0.68005 0.86517 0.31896 0.0
O625 O 0.68264 0.80547 0.30135 0.0
C626 C 0.69681 0.80936 0.36737 0.0
C627 C 0.54531 0.78957 0.39099 0.0
C628 C 0.55218 0.81636 0.38558 0.0
C629 C 0.67612 0.84516 0.41097 0.0
C630 C 0.66251 0.84488 0.43014 0.0
C631 C 0.63479 0.84064 0.43074 0.0
C632 C 0.67738 0.84865 0.44813 0.0
C633 C 0.66467 0.84811 0.46673 0.0
C634 C 0.62198 0.83995 0.44908 0.0
C635 C 0.63674 0.84361 0.46698 0.0
C636 C 0.63596 0.78063 0.341 0.0
C637 C 0.65966 0.85531 0.33194 0.0
C638 C 0.68231 0.82235 0.28799 0.0
C639 C 0.69635 0.82421 0.26871 0.0
C640 C 0.72491 0.83094 0.26779 0.0
C641 C 0.68105 0.81993 0.25089 0.0
C642 C 0.69414 0.82248 0.23213 0.0
C643 C 0.7381 0.83366 0.24923 0.0
C644 C 0.72289 0.82955 0.23146 0.0
C645 C 0.71986 0.88431 0.35803 0.0
H646 H 0.62306 0.8379 0.4171 0.0
H647 H 0.69896 0.85235 0.44756 0.0
H648 H 0.60051 0.83651 0.44942 0.0
H649 H 0.62616 0.84263 0.48103 0.0
H650 H 0.73698 0.83412 0.28133 0.0
H651 H 0.65903 0.81496 0.25165 0.0
H652 H 0.76017 0.83888 0.24862 0.0
H653 H 0.73344 0.83141 0.21724 0.0
Gd654 Gd 0.17151 0.84632 0.32399 0.0
Gd655 Gd 0.19744 0.83908 0.37378 0.0
C656 C 0.28489 0.84703 0.38049 0.0
C657 C 0.27266 0.80032 0.38935 0.0
C658 C 0.23546 0.81166 0.38378 0.0
C659 C 0.25571 0.83858 0.37948 0.0
C660 C 0.24369 0.79237 0.38928 0.0
C661 C 0.29323 0.82761 0.38494 0.0
C662 C 0.30477 0.87489 0.37757 0.0
C663 C 0.29535 0.89365 0.3745 0.0
N664 N 0.24689 0.85685 0.3755 0.0
C665 C 0.26617 0.88429 0.37377 0.0
H666 H 0.25924 0.89902 0.37131 0.0
C667 C 0.1872 0.7796 0.39068 0.0
N668 N 0.20772 0.8048 0.38384 0.0
C669 C 0.19427 0.75968 0.39616 0.0
C670 C 0.2226 0.76597 0.39519 0.0
H671 H 0.16526 0.77464 0.39132 0.0
H672 H 0.31554 0.83365 0.38556 0.0
H673 H 0.10875 0.78734 0.32638 0.0
H674 H 0.32738 0.88221 0.37815 0.0
H675 H 0.31055 0.91532 0.37261 0.0
H676 H 0.27941 0.78574 0.39333 0.0
H677 H 0.20548 0.91007 0.30517 0.0
H678 H 0.04228 0.80584 0.31678 0.0
H679 H 0.05779 0.77206 0.32385 0.0
H680 H 0.09278 0.9017 0.29965 0.0
H681 H 0.17788 0.73951 0.40109 0.0
H682 H 0.22804 0.75055 0.39952 0.0
H683 H 0.05556 0.85446 0.30811 0.0
H684 H 0.19433 0.94535 0.29332 0.0
N685 N 0.12228 0.82964 0.32144 0.0
C686 C 0.06475 0.81272 0.3179 0.0
C687 C 0.07343 0.79358 0.32183 0.0
C688 C 0.08523 0.84034 0.31479 0.0
C689 C 0.1142 0.84822 0.31654 0.0
C690 C 0.10243 0.80238 0.32326 0.0
N691 N 0.16256 0.88091 0.31246 0.0
C692 C 0.13505 0.87473 0.31184 0.0
C693 C 0.17746 0.92563 0.2986 0.0
C694 C 0.14935 0.92008 0.29885 0.0
C695 C 0.1837 0.90559 0.3053 0.0
C696 C 0.12766 0.89421 0.30522 0.0
H697 H 0.14456 0.9356 0.29361 0.0
O698 O 0.19265 0.85534 0.29491 0.0
O699 O 0.20671 0.84672 0.3412 0.0
O700 O 0.20892 0.88324 0.36695 0.0
O701 O 0.1768 0.88181 0.34299 0.0
O702 O 0.21848 0.87618 0.3192 0.0
O703 O 0.15548 0.81551 0.30043 0.0
O704 O 0.17675 0.82854 0.40302 0.0
O705 O 0.16228 0.83875 0.35664 0.0
O706 O 0.15852 0.80182 0.33151 0.0
O707 O 0.19214 0.80418 0.35437 0.0
O708 O 0.15046 0.80946 0.3789 0.0
O709 O 0.21361 0.86879 0.39809 0.0
C710 C 0.22795 0.86615 0.33252 0.0
C711 C 0.09889 0.88693 0.30448 0.0
C712 C 0.0777 0.86004 0.30929 0.0
C713 C 0.17398 0.83188 0.28717 0.0
C714 C 0.1628 0.83334 0.26737 0.0
C715 C 0.13966 0.83779 0.26582 0.0
C716 C 0.17586 0.83101 0.2498 0.0
C717 C 0.16608 0.83346 0.23074 0.0
C718 C 0.12984 0.84018 0.24702 0.0
C719 C 0.14296 0.83812 0.22958 0.0
C720 C 0.19529 0.89422 0.35768 0.0
C721 C 0.14108 0.81951 0.36552 0.0
C722 C 0.1953 0.85174 0.41117 0.0
C723 C 0.20676 0.84954 0.43067 0.0
C724 C 0.22839 0.84286 0.43155 0.0
C725 C 0.19565 0.85364 0.4486 0.0
C726 C 0.20609 0.85107 0.46739 0.0
C727 C 0.23862 0.83998 0.45002 0.0
C728 C 0.22756 0.84395 0.46782 0.0
C729 C 0.17236 0.79099 0.34066 0.0
H730 H 0.12919 0.83944 0.27909 0.0
H731 H 0.19389 0.82778 0.25097 0.0
H732 H 0.11197 0.84363 0.24596 0.0
H733 H 0.13477 0.8398 0.21515 0.0
H734 H 0.23736 0.83985 0.41799 0.0
H735 H 0.17922 0.85921 0.44787 0.0
H736 H 0.25518 0.8346 0.45055 0.0
H737 H 0.2357 0.84123 0.48195 0.0
Gd738 Gd 0.85176 0.68662 0.70618 0.0
Gd739 Gd 0.82879 0.6552 0.65556 0.0
C740 C 0.74222 0.57878 0.64506 0.0
C741 C 0.75534 0.54443 0.63662 0.0
C742 C 0.79186 0.59149 0.64385 0.0
C743 C 0.77123 0.59855 0.64729 0.0
C744 C 0.78422 0.56453 0.63798 0.0
C745 C 0.73437 0.55154 0.64018 0.0
C746 C 0.72205 0.58718 0.64725 0.0
C747 C 0.7311 0.61486 0.65084 0.0
N748 N 0.77962 0.62511 0.65176 0.0
C749 C 0.76014 0.63372 0.65277 0.0
H750 H 0.76677 0.65501 0.6556 0.0
C751 C 0.84066 0.60646 0.63924 0.0
N752 N 0.81952 0.61148 0.64507 0.0
C753 C 0.83417 0.58 0.63344 0.0
C754 C 0.80584 0.55884 0.63306 0.0
H755 H 0.86259 0.62273 0.63962 0.0
H756 H 0.71218 0.536 0.63861 0.0
H757 H 0.91405 0.68733 0.70609 0.0
H758 H 0.69955 0.57262 0.64573 0.0
H759 H 0.71571 0.62168 0.65217 0.0
H760 H 0.74902 0.52352 0.63233 0.0
H761 H 0.81767 0.71819 0.72328 0.0
H762 H 0.98087 0.76973 0.71646 0.0
H763 H 0.96501 0.7208 0.70972 0.0
H764 H 0.93076 0.81792 0.73092 0.0
H765 H 0.85101 0.57594 0.62929 0.0
H766 H 0.80086 0.53838 0.62848 0.0
H767 H 0.96789 0.806 0.72403 0.0
H768 H 0.82885 0.76447 0.7346 0.0
N769 N 0.90091 0.71698 0.71011 0.0
C770 C 0.9584 0.7551 0.71486 0.0
C771 C 0.94952 0.72749 0.71112 0.0
C772 C 0.93809 0.7633 0.71716 0.0
C773 C 0.90913 0.74344 0.71481 0.0
C774 C 0.92052 0.70853 0.70907 0.0
N775 N 0.8608 0.73001 0.71736 0.0
C776 C 0.88836 0.75018 0.71857 0.0
C777 C 0.8458 0.76078 0.73003 0.0
C778 C 0.87403 0.78215 0.73037 0.0
C779 C 0.83954 0.73459 0.72365 0.0
C780 C 0.89578 0.77691 0.72491 0.0
H781 H 0.87884 0.8024 0.73537 0.0
O782 O 0.82936 0.67554 0.73485 0.0
O783 O 0.8177 0.6539 0.68779 0.0
O784 O 0.81657 0.68776 0.66196 0.0
O785 O 0.84753 0.71718 0.68651 0.0
O786 O 0.80471 0.67139 0.70946 0.0
O787 O 0.86511 0.66925 0.73013 0.0
O788 O 0.85213 0.66681 0.62733 0.0
O789 O 0.86276 0.68809 0.67389 0.0
O790 O 0.86455 0.65441 0.69937 0.0
O791 O 0.83257 0.62479 0.67542 0.0
O792 O 0.87591 0.67065 0.65221 0.0
O793 O 0.81453 0.67049 0.63077 0.0
C794 C 0.79608 0.65281 0.69573 0.0
C795 C 0.92461 0.79717 0.72629 0.0
C796 C 0.94574 0.79038 0.72238 0.0
C797 C 0.84644 0.66828 0.74297 0.0
C798 C 0.85716 0.67933 0.76315 0.0
C799 C 0.87802 0.70702 0.76549 0.0
C800 C 0.84663 0.66217 0.78021 0.0
C801 C 0.85713 0.67262 0.79953 0.0
C802 C 0.8883 0.71755 0.78452 0.0
C803 C 0.87799 0.70056 0.80141 0.0
C804 C 0.8298 0.71184 0.6713 0.0
C805 C 0.88443 0.68935 0.66586 0.0
C806 C 0.83433 0.67259 0.61853 0.0
C807 C 0.82525 0.66123 0.59823 0.0
C808 C 0.80577 0.63318 0.59557 0.0
C809 C 0.83679 0.67841 0.5813 0.0
C810 C 0.82922 0.66752 0.56175 0.0
C811 C 0.7981 0.6223 0.57629 0.0
C812 C 0.80978 0.63926 0.55948 0.0
C813 C 0.85125 0.63037 0.68995 0.0
H814 H 0.88641 0.72049 0.75264 0.0
H815 H 0.83069 0.64069 0.77838 0.0
H816 H 0.90432 0.739 0.78619 0.0
H817 H 0.88617 0.70944 0.81602 0.0
H818 H 0.79657 0.6197 0.60836 0.0
H819 H 0.852 0.70007 0.58334 0.0
H820 H 0.78305 0.60061 0.57435 0.0
H821 H 0.80326 0.63033 0.54468 0.0
Gd822 Gd 0.32687 0.16297 0.70742 0.0
Gd823 Gd 0.36208 0.1692 0.65848 0.0
C824 C 0.44132 0.16099 0.65291 0.0
C825 C 0.47759 0.2076 0.644 0.0
C826 C 0.42861 0.19643 0.64909 0.0
C827 C 0.42091 0.16952 0.65358 0.0
C828 C 0.45688 0.21562 0.64374 0.0
C829 C 0.46982 0.18033 0.6486 0.0
C830 C 0.43231 0.13314 0.65599 0.0
C831 C 0.40345 0.11446 0.65893 0.0
N832 N 0.39313 0.15133 0.65747 0.0
C833 C 0.38399 0.1239 0.65937 0.0
H834 H 0.36179 0.10924 0.66176 0.0
C835 C 0.41375 0.22857 0.64172 0.0
N836 N 0.40801 0.20337 0.64873 0.0
C837 C 0.44152 0.24839 0.63639 0.0
C838 C 0.46327 0.24202 0.63767 0.0
H839 H 0.39699 0.23359 0.64083 0.0
H840 H 0.48586 0.17423 0.64823 0.0
H841 H 0.32526 0.22188 0.70332 0.0
H842 H 0.44733 0.12576 0.65566 0.0
H843 H 0.39618 0.09279 0.66095 0.0
H844 H 0.4995 0.22212 0.64014 0.0
H845 H 0.29417 0.09954 0.72682 0.0
H846 H 0.23949 0.20385 0.71136 0.0
H847 H 0.29012 0.23737 0.70467 0.0
H848 H 0.19013 0.10828 0.72937 0.0
H849 H 0.44613 0.26856 0.63134 0.0
H850 H 0.48474 0.25737 0.63345 0.0
H851 H 0.20215 0.15542 0.72019 0.0
H852 H 0.24608 0.06451 0.73818 0.0
N853 N 0.29483 0.17973 0.70855 0.0
C854 C 0.25483 0.19689 0.71076 0.0
C855 C 0.2834 0.21587 0.70702 0.0
C856 C 0.24659 0.16929 0.71429 0.0
C857 C 0.2674 0.1613 0.71322 0.0
C858 C 0.30329 0.20697 0.70626 0.0
N859 N 0.28173 0.12861 0.7185 0.0
C860 C 0.26063 0.13486 0.71838 0.0
C861 C 0.24984 0.08416 0.73254 0.0
C862 C 0.22754 0.08977 0.73156 0.0
C863 C 0.27705 0.10405 0.72613 0.0
C864 C 0.23287 0.11555 0.72473 0.0
H865 H 0.20651 0.07438 0.73659 0.0
O866 O 0.33681 0.15458 0.73728 0.0
O867 O 0.36211 0.16204 0.69117 0.0
O868 O 0.32749 0.12501 0.66527 0.0
O869 O 0.29619 0.12699 0.68849 0.0
O870 O 0.34309 0.13343 0.71368 0.0
O871 O 0.34207 0.19464 0.7303 0.0
O872 O 0.35317 0.17925 0.6289 0.0
O873 O 0.32665 0.1698 0.67464 0.0
O874 O 0.36055 0.20739 0.69985 0.0
O875 O 0.39242 0.20425 0.67798 0.0
O876 O 0.34579 0.19872 0.65225 0.0
O877 O 0.34844 0.13905 0.63455 0.0
C878 C 0.36309 0.14293 0.70042 0.0
C879 C 0.21166 0.12292 0.72476 0.0
C880 C 0.21851 0.14976 0.71953 0.0
C881 C 0.34251 0.1785 0.74424 0.0
C882 C 0.32908 0.1782 0.7635 0.0
C883 C 0.30128 0.17372 0.76429 0.0
C884 C 0.34423 0.1822 0.78139 0.0
C885 C 0.33172 0.18167 0.80007 0.0
C886 C 0.28867 0.17304 0.78271 0.0
C887 C 0.30371 0.17695 0.80052 0.0
C888 C 0.30221 0.11423 0.67421 0.0
C889 C 0.32551 0.1888 0.66532 0.0
C890 C 0.34804 0.15588 0.62118 0.0
C891 C 0.36195 0.15763 0.60186 0.0
C892 C 0.39058 0.16461 0.60086 0.0
C893 C 0.34646 0.15297 0.58409 0.0
C894 C 0.35943 0.15538 0.5653 0.0
C895 C 0.40365 0.16718 0.58228 0.0
C896 C 0.38824 0.16269 0.56456 0.0
C897 C 0.38601 0.21785 0.69125 0.0
H898 H 0.28934 0.17079 0.75073 0.0
H899 H 0.36588 0.18608 0.78067 0.0
H900 H 0.26714 0.16942 0.7832 0.0
H901 H 0.29329 0.17595 0.81464 0.0
H902 H 0.4028 0.1681 0.61437 0.0
H903 H 0.32438 0.1478 0.58491 0.0
H904 H 0.42577 0.1726 0.5816 0.0
H905 H 0.39871 0.16445 0.55031 0.0
Gd906 Gd 0.83794 0.18043 0.65696 0.0
Gd907 Gd 0.86377 0.17358 0.70686 0.0
C908 C 0.951 0.18152 0.71509 0.0
C909 C 0.93852 0.13491 0.72448 0.0
C910 C 0.9015 0.14624 0.71807 0.0
C911 C 0.92186 0.1731 0.71372 0.0
C912 C 0.90956 0.12697 0.72396 0.0
C913 C 0.95921 0.16214 0.72003 0.0
C914 C 0.97098 0.20932 0.71201 0.0
C915 C 0.96166 0.22805 0.70842 0.0
N916 N 0.91316 0.19132 0.70923 0.0
C917 C 0.93251 0.21872 0.70735 0.0
H918 H 0.92566 0.23343 0.70449 0.0
C919 C 0.85302 0.11409 0.72415 0.0
N920 N 0.87376 0.13936 0.71759 0.0
C921 C 0.85994 0.0942 0.73001 0.0
C922 C 0.88831 0.10055 0.72967 0.0
H923 H 0.83105 0.10904 0.72431 0.0
H924 H 0.98149 0.16816 0.72096 0.0
H925 H 0.77603 0.12059 0.65905 0.0
H926 H 0.99356 0.21661 0.71285 0.0
H927 H 0.97692 0.24969 0.7064 0.0
H928 H 0.94516 0.12034 0.72878 0.0
H929 H 0.87071 0.24448 0.63871 0.0
H930 H 0.70819 0.1372 0.64959 0.0
H931 H 0.72482 0.10421 0.65646 0.0
H932 H 0.75675 0.2333 0.63317 0.0
H933 H 0.84339 0.07399 0.73474 0.0
H934 H 0.89362 0.08514 0.73428 0.0
H935 H 0.72032 0.1856 0.64126 0.0
H936 H 0.85849 0.27921 0.62725 0.0
N937 N 0.78855 0.1627 0.65431 0.0
C938 C 0.73076 0.14455 0.65073 0.0
C939 C 0.74007 0.12586 0.65455 0.0
C940 C 0.75075 0.17237 0.64777 0.0
C941 C 0.77988 0.18087 0.64953 0.0
C942 C 0.76921 0.13528 0.65601 0.0
N943 N 0.82798 0.21445 0.6457 0.0
C944 C 0.80028 0.20763 0.64504 0.0
C945 C 0.84192 0.2592 0.63232 0.0
C946 C 0.81358 0.25296 0.63252 0.0
C947 C 0.84876 0.23949 0.63878 0.0
C948 C 0.79228 0.22676 0.63863 0.0
H949 H 0.80832 0.26823 0.62746 0.0
O950 O 0.85886 0.19015 0.62778 0.0
O951 O 0.87335 0.18146 0.6743 0.0
O952 O 0.87542 0.21759 0.69957 0.0
O953 O 0.84248 0.21552 0.67615 0.0
O954 O 0.88481 0.2108 0.65223 0.0
O955 O 0.82278 0.14961 0.63341 0.0
O956 O 0.84222 0.16375 0.73576 0.0
O957 O 0.82845 0.17263 0.68951 0.0
O958 O 0.82609 0.13613 0.66438 0.0
O959 O 0.85973 0.13917 0.68752 0.0
O960 O 0.81685 0.14331 0.71167 0.0
O961 O 0.87973 0.20361 0.73096 0.0
C962 C 0.89447 0.20106 0.66564 0.0
C963 C 0.76333 0.21882 0.63785 0.0
C964 C 0.74259 0.19167 0.64245 0.0
C965 C 0.84086 0.16637 0.62011 0.0
C966 C 0.82925 0.16714 0.60033 0.0
C967 C 0.80607 0.17153 0.59875 0.0
C968 C 0.84186 0.16407 0.58279 0.0
C969 C 0.83158 0.16568 0.56372 0.0
C970 C 0.79574 0.17309 0.57993 0.0
C971 C 0.80841 0.17026 0.56251 0.0
C972 C 0.86115 0.22816 0.6907 0.0
C973 C 0.80731 0.15314 0.69824 0.0
C974 C 0.86071 0.18701 0.74385 0.0
C975 C 0.87102 0.18506 0.76384 0.0
C976 C 0.89225 0.17799 0.76598 0.0
C977 C 0.85882 0.18951 0.78105 0.0
C978 C 0.86756 0.18665 0.80038 0.0
C979 C 0.90105 0.17515 0.78506 0.0
C980 C 0.88877 0.17936 0.80217 0.0
C981 C 0.84032 0.12577 0.67363 0.0
H982 H 0.79596 0.17375 0.612 0.0
H983 H 0.85993 0.1609 0.584 0.0
H984 H 0.77783 0.17647 0.57884 0.0
H985 H 0.79983 0.1713 0.54808 0.0
H986 H 0.90197 0.17461 0.75295 0.0
H987 H 0.84222 0.19474 0.77937 0.0
H988 H 0.91746 0.16969 0.78661 0.0
H989 H 0.89619 0.17732 0.81681 0.0
H990 H 0.2913 0.88024 0.0696 0.0
H991 H 0.44721 0.9318 0.02568 0.0
H992 H 0.3208 0.82459 0.05251 0.0
H993 H 0.41363 0.98538 0.03853 0.0
H994 H 0.40033 0.89189 0.03288 0.0
H995 H 0.33511 0.91858 0.05619 0.0
C996 C 0.30703 0.87609 0.06301 0.0
C997 C 0.30249 0.84918 0.06239 0.0
C998 C 0.4031 0.91235 0.03387 0.0
C999 C 0.35289 0.89313 0.04688 0.0
C1000 C 0.4298 0.93511 0.0296 0.0
C1001 C 0.43409 0.96187 0.03118 0.0
C1002 C 0.38074 0.91646 0.04014 0.0
C1003 C 0.41107 0.96505 0.03695 0.0
C1004 C 0.33202 0.898 0.05524 0.0
C1005 C 0.3234 0.84499 0.05328 0.0
N1006 N 0.38546 0.94266 0.04129 0.0
N1007 N 0.34781 0.86676 0.04606 0.0
H1008 H 0.14451 0.41829 0.07033 0.0
H1009 H 0.08928 0.51813 0.03019 0.0
H1010 H 0.20157 0.50293 0.05402 0.0
H1011 H 0.0347 0.43198 0.04323 0.0
H1012 H 0.13087 0.51327 0.03751 0.0
H1013 H 0.10447 0.42295 0.05901 0.0
C1014 C 0.14863 0.4379 0.06432 0.0
C1015 C 0.17648 0.46034 0.06336 0.0
C1016 C 0.10982 0.49537 0.03861 0.0
C1017 C 0.13041 0.46591 0.05028 0.0
C1018 C 0.08609 0.49811 0.0343 0.0
C1019 C 0.05854 0.47522 0.03559 0.0
C1020 C 0.10594 0.46965 0.04459 0.0
C1021 C 0.05559 0.45001 0.04174 0.0
C1022 C 0.1257 0.44055 0.05778 0.0
C1023 C 0.18049 0.48509 0.05504 0.0
N1024 N 0.07892 0.44789 0.04594 0.0
N1025 N 0.1577 0.4873 0.049 0.0
H1026 H 0.54776 0.69429 0.09751 0.0
H1027 H 0.50967 0.59447 0.00565 0.0
H1028 H 0.55894 0.72708 0.03724 0.0
H1029 H 0.55871 0.59143 0.05553 0.0
H1030 H 0.51671 0.63849 0.01817 0.0
H1031 H 0.54003 0.65094 0.08358 0.0
C1032 C 0.54874 0.69256 0.08137 0.0
C1033 C 0.55465 0.71481 0.0686 0.0
C1034 C 0.52601 0.62812 0.02619 0.0
C1035 C 0.54456 0.66465 0.05265 0.0
C1036 C 0.52219 0.60311 0.01903 0.0
C1037 C 0.53406 0.58937 0.02929 0.0
C1038 C 0.54093 0.6389 0.0441 0.0
C1039 C 0.54935 0.60128 0.04697 0.0
C1040 C 0.54411 0.6677 0.07348 0.0
C1041 C 0.55434 0.71062 0.04773 0.0
N1042 N 0.5521 0.62521 0.05392 0.0
N1043 N 0.54933 0.68598 0.04039 0.0
H1044 H 0.81271 0.30064 0.9794 0.0
H1045 H 0.9794 0.41022 0.98425 0.0
H1046 H 0.87804 0.2855 0.9564 0.0
H1047 H 0.91544 0.4224 0.01344 0.0
H1048 H 0.94232 0.36457 0.97376 0.0
H1049 H 0.84974 0.34513 0.9922 0.0
C1050 C 0.8348 0.30653 0.97716 0.0
C1051 C 0.84218 0.2893 0.96662 0.0
C1052 C 0.93639 0.37716 0.98255 0.0
C1053 C 0.88474 0.34043 0.98105 0.0
C1054 C 0.95759 0.4033 0.98853 0.0
C1055 C 0.95062 0.42022 0.99984 0.0
C1056 C 0.90789 0.36782 0.98776 0.0
C1057 C 0.92191 0.41003 0.00491 0.0
C1058 C 0.85595 0.33202 0.98439 0.0
C1059 C 0.87124 0.29826 0.96404 0.0
N1060 N 0.90162 0.38457 0.99879 0.0
N1061 N 0.89137 0.32317 0.97111 0.0
H1062 H 0.7058 0.50756 0.97698 0.0
H1063 H 0.61183 0.58106 0.98792 0.0
H1064 H 0.73321 0.59075 0.95811 0.0
H1065 H 0.57931 0.49544 1.0019 0.0
H1066 H 0.65821 0.58588 0.98039 0.0
H1067 H 0.66135 0.50364 0.98965 0.0
C1068 C 0.70263 0.52508 0.97564 0.0
C1069 C 0.72326 0.54944 0.96623 0.0
C1070 C 0.64108 0.56606 0.98531 0.0
C1071 C 0.6723 0.54503 0.98064 0.0
C1072 C 0.61462 0.56335 0.98966 0.0
C1073 C 0.59184 0.53798 0.99589 0.0
C1074 C 0.64485 0.54308 0.98683 0.0
C1075 C 0.59647 0.51554 0.99758 0.0
C1076 C 0.67716 0.52276 0.98279 0.0
C1077 C 0.71779 0.57138 0.96486 0.0
N1078 N 0.62243 0.51859 0.99304 0.0
N1079 N 0.69294 0.56861 0.97189 0.0
H1080 H 0.47191 0.15752 0.9313 0.0
H1081 H 0.51776 0.0977 0.02166 0.0
H1082 H 0.46858 0.1824 0.99225 0.0
H1083 H 0.46701 0.04589 0.97289 0.0
H1084 H 0.50955 0.13424 0.00924 0.0
H1085 H 0.47991 0.12134 0.94444 0.0
C1086 C 0.47267 0.15542 0.94741 0.0
C1087 C 0.46926 0.17312 0.96062 0.0
C1088 C 0.50015 0.11475 1.00141 0.0
C1089 C 0.47956 0.13229 0.97562 0.0
C1090 C 0.50465 0.09381 0.00854 0.0
C1091 C 0.49258 0.06839 0.9986 0.0
C1092 C 0.48428 0.11051 0.98387 0.0
C1093 C 0.47655 0.06498 0.9812 0.0
C1094 C 0.47745 0.13485 0.95485 0.0
C1095 C 0.47149 0.16971 0.98138 0.0
N1096 N 0.47306 0.08588 0.9743 0.0
N1097 N 0.47665 0.14979 0.98823 0.0
H1098 H 0.72989 0.13056 0.97585 0.0
H1099 H 0.56703 0.0772 0.00478 0.0
H1100 H 0.70082 0.18426 0.99838 0.0
H1101 H 0.60023 0.02344 0.99145 0.0
H1102 H 0.61509 0.11697 1.00131 0.0
H1103 H 0.68176 0.09137 0.97983 0.0
C1104 C 0.71328 0.13406 0.98159 0.0
C1105 C 0.71927 0.16061 0.98688 0.0
C1106 C 0.61191 0.09648 0.99927 0.0
C1107 C 0.66406 0.11587 0.99147 0.0
C1108 C 0.58453 0.07378 1.00142 0.0
C1109 C 0.57989 0.04701 0.99899 0.0
C1110 C 0.63467 0.09234 0.99424 0.0
C1111 C 0.60308 0.04376 0.99382 0.0
C1112 C 0.68582 0.11169 0.98392 0.0
C1113 C 0.69697 0.16404 0.99418 0.0
N1114 N 0.62945 0.06612 0.99168 0.0
N1115 N 0.67033 0.14194 0.99627 0.0
H1116 H 0.88136 0.58515 0.97028 0.0
H1117 H 0.93856 0.48262 1.00012 0.0
H1118 H 0.82727 0.50445 0.9953 0.0
H1119 H 0.99327 0.56835 0.98582 0.0
H1120 H 0.89702 0.48838 0.99543 0.0
H1121 H 0.9219 0.57748 0.97252 0.0
C1122 C 0.87801 0.5657 0.9761 0.0
C1123 C 0.85097 0.54546 0.98274 0.0
C1124 C 0.9181 0.50597 0.99338 0.0
C1125 C 0.89734 0.53648 0.98539 0.0
C1126 C 0.94183 0.50273 0.99623 0.0
C1127 C 0.96942 0.52531 0.99409 0.0
C1128 C 0.92197 0.53187 0.98796 0.0
C1129 C 0.97236 0.55059 0.98809 0.0
C1130 C 0.90117 0.56136 0.97746 0.0
C1131 C 0.84781 0.52059 0.99008 0.0
N1132 N 0.949 0.55324 0.98539 0.0
N1133 N 0.87071 0.51682 0.99129 0.0
H1134 H 0.43203 0.29046 0.96611 0.0
H1135 H 0.53899 0.43464 0.01739 0.0
H1136 H 0.50151 0.30337 0.00432 0.0
H1137 H 0.46402 0.42007 0.98489 0.0
H1138 H 0.52698 0.38735 0.01107 0.0
H1139 H 0.44481 0.33861 0.97106 0.0
C1140 C 0.44987 0.30349 0.97564 0.0
C1141 C 0.46542 0.29299 0.98521 0.0
C1142 C 0.51311 0.39444 0.00532 0.0
C1143 C 0.48045 0.34795 0.99068 0.0
C1144 C 0.51988 0.42146 0.00901 0.0
C1145 C 0.50222 0.43126 1.00195 0.0
C1146 C 0.4886 0.37702 0.99434 0.0
C1147 C 0.47816 0.41337 0.99072 0.0
C1148 C 0.4572 0.33091 0.97843 0.0
C1149 C 0.48876 0.31071 0.99701 0.0
N1150 N 0.472 0.38707 0.98731 0.0
N1151 N 0.49552 0.33732 0.99948 0.0
H1152 H 0.14579 0.72198 0.06389 0.0
H1153 H 0.11178 0.57875 0.0141 0.0
H1154 H 0.20568 0.71167 0.02768 0.0
H1155 H 0.0483 0.59112 0.04384 0.0
H1156 H 0.14726 0.62635 0.02117 0.0
H1157 H 0.11082 0.67313 0.05919 0.0
C1158 C 0.15154 0.70934 0.05498 0.0
C1159 C 0.17844 0.72082 0.0459 0.0
C1160 C 0.12558 0.6187 0.02615 0.0
C1161 C 0.13874 0.665 0.04055 0.0
C1162 C 0.1052 0.59149 0.02201 0.0
C1163 C 0.07679 0.58095 0.02804 0.0
C1164 C 0.1177 0.63561 0.03658 0.0
C1165 C 0.06985 0.59835 0.03876 0.0
C1166 C 0.13161 0.68151 0.05228 0.0
C1167 C 0.18502 0.70356 0.03474 0.0
N1168 N 0.09013 0.62484 0.04263 0.0
N1169 N 0.16528 0.67655 0.03229 0.0
H1170 H 0.29789 0.4243 0.05847 0.0
H1171 H 0.45982 0.5268 0.02538 0.0
H1172 H 0.32537 0.50387 0.03203 0.0
H1173 H 0.427 0.44174 0.04141 0.0
H1174 H 0.41206 0.52061 0.02999 0.0
H1175 H 0.34635 0.43226 0.05517 0.0
C1176 C 0.31424 0.44356 0.05209 0.0
C1177 C 0.30759 0.46338 0.04537 0.0
C1178 C 0.41527 0.50326 0.03242 0.0
C1179 C 0.36327 0.47271 0.0415 0.0
C1180 C 0.44248 0.50674 0.02963 0.0
C1181 C 0.44715 0.48449 0.0324 0.0
C1182 C 0.39268 0.47749 0.03846 0.0
C1183 C 0.42417 0.45927 0.03872 0.0
C1184 C 0.3419 0.44807 0.05013 0.0
C1185 C 0.32964 0.48804 0.03732 0.0
N1186 N 0.39799 0.45642 0.04145 0.0
N1187 N 0.35647 0.49199 0.03554 0.0
H1188 H 0.59727 0.87269 0.06692 0.0
H1189 H 0.48978 0.90943 0.01139 0.0
H1190 H 0.53178 0.81765 0.02641 0.0
H1191 H 0.56137 0.96797 0.04642 0.0
H1192 H 0.50325 0.87479 0.0182 0.0
H1193 H 0.58287 0.90715 0.06112 0.0
C1194 C 0.57998 0.86803 0.05669 0.0
C1195 C 0.56603 0.84267 0.04676 0.0
C1196 C 0.51604 0.89522 0.02439 0.0
C1197 C 0.5491 0.88158 0.04031 0.0
C1198 C 0.50844 0.91509 0.02042 0.0
C1199 C 0.52474 0.94185 0.02804 0.0
C1200 C 0.54001 0.90202 0.03622 0.0
C1201 C 0.54825 0.94769 0.04011 0.0
C1202 C 0.57171 0.8876 0.05342 0.0
C1203 C 0.54332 0.83723 0.03403 0.0
N1204 N 0.55522 0.92796 0.04378 0.0
N1205 N 0.5356 0.85657 0.03111 0.0
H1206 H 0.95654 0.21247 0.40186 0.0
H1207 H 0.11334 0.26479 0.35934 0.0
H1208 H 0.98717 0.15724 0.38617 0.0
H1209 H 0.07937 0.31803 0.37227 0.0
H1210 H 0.06646 0.22472 0.36628 0.0
H1211 H 1.0004 0.2509 0.38864 0.0
C1212 C 0.97253 0.20843 0.39561 0.0
C1213 C 0.9683 0.18162 0.39535 0.0
C1214 C 0.06915 0.24515 0.36735 0.0
C1215 C 0.01877 0.22568 0.38006 0.0
C1216 C 0.09585 0.268 0.36323 0.0
C1217 C 0.10001 0.2947 0.3649 0.0
C1218 C 0.04667 0.24911 0.37353 0.0
C1219 C 0.0769 0.29775 0.37063 0.0
C1220 C 0.99755 0.23039 0.38795 0.0
C1221 C 0.98954 0.17757 0.38667 0.0
N1222 N 0.05129 0.27528 0.37479 0.0
N1223 N 0.01399 0.19939 0.37954 0.0
H1224 H 0.86789 0.8364 0.38628 0.0
H1225 H 0.69778 0.76313 0.37762 0.0
H1226 H 0.8097 0.75288 0.40467 0.0
H1227 H 0.7535 0.8491 0.36461 0.0
H1228 H 0.73929 0.7583 0.38459 0.0
H1229 H 0.82721 0.84064 0.37481 0.0
C1230 C 0.84663 0.81888 0.38773 0.0
C1231 C 0.84224 0.79435 0.3967 0.0
C1232 C 0.74256 0.77821 0.38003 0.0
C1233 C 0.79558 0.79911 0.38375 0.0
C1234 C 0.71884 0.78093 0.37603 0.0
C1235 C 0.72222 0.80636 0.37005 0.0
C1236 C 0.77004 0.80123 0.3784 0.0
C1237 C 0.74997 0.82894 0.36864 0.0
C1238 C 0.8234 0.82137 0.3813 0.0
C1239 C 0.81415 0.77237 0.39823 0.0
N1240 N 0.77282 0.82586 0.37276 0.0
N1241 N 0.79202 0.77532 0.39193 0.0
H1242 H 0.22671 0.06116 0.36914 0.0
H1243 H 0.22629 0.92342 0.39024 0.0
H1244 H 0.21781 0.02926 0.42953 0.0
H1245 H 0.17578 0.92694 0.34155 0.0
H1246 H 0.23339 0.96744 0.40237 0.0
H1247 H 0.21671 0.0164 0.35614 0.0
C1248 C 0.22246 0.04486 0.37971 0.0
C1249 C 0.22346 0.04934 0.40056 0.0
C1250 C 0.22091 0.95855 0.38895 0.0
C1251 C 0.21311 0.99855 0.38564 0.0
C1252 C 0.21692 0.93348 0.38192 0.0
C1253 C 0.20066 0.92148 0.36462 0.0
C1254 C 0.20913 0.97205 0.3784 0.0
C1255 C 0.18892 0.93558 0.35465 0.0
C1256 C 0.21695 0.01941 0.37222 0.0
C1257 C 0.21821 0.02732 0.41339 0.0
N1258 N 0.19361 0.9603 0.36158 0.0
N1259 N 0.21366 0.00305 0.40573 0.0
H1260 H 0.52068 0.64454 0.26723 0.0
H1261 H 0.5823 0.74851 0.35694 0.0
H1262 H 0.49572 0.61475 0.32804 0.0
H1263 H 0.63671 0.75048 0.30879 0.0
H1264 H 0.54489 0.7037 0.345 0.0
H1265 H 0.55784 0.68819 0.28051 0.0
C1266 C 0.52297 0.64689 0.28335 0.0
C1267 C 0.50509 0.62533 0.29645 0.0
C1268 C 0.56515 0.71396 0.33722 0.0
C1269 C 0.54711 0.67615 0.31165 0.0
C1270 C 0.58663 0.73947 0.34408 0.0
C1271 C 0.61308 0.75319 0.33419 0.0
C1272 C 0.56974 0.70252 0.3199 0.0
C1273 C 0.61688 0.74068 0.31709 0.0
C1274 C 0.54415 0.67201 0.29087 0.0
C1275 C 0.50864 0.63057 0.31724 0.0
N1276 N 0.59537 0.71622 0.31037 0.0
N1277 N 0.52917 0.65548 0.3242 0.0
H1278 H 0.39968 0.92385 0.29202 0.0
H1279 H 0.24266 0.82574 0.33556 0.0
H1280 H 0.36946 0.83964 0.30958 0.0
H1281 H 0.27719 0.91179 0.32206 0.0
H1282 H 0.28906 0.83032 0.32773 0.0
H1283 H 0.35535 0.91981 0.30423 0.0
C1284 C 0.38368 0.90444 0.29842 0.0
C1285 C 0.38829 0.88197 0.29954 0.0
C1286 C 0.28659 0.84827 0.32668 0.0
C1287 C 0.33713 0.87717 0.31375 0.0
C1288 C 0.26015 0.8457 0.33131 0.0
C1289 C 0.25627 0.8686 0.3299 0.0
C1290 C 0.30917 0.87381 0.32022 0.0
C1291 C 0.27939 0.89373 0.3236 0.0
C1292 C 0.35835 0.90218 0.30551 0.0
C1293 C 0.36691 0.85753 0.30842 0.0
N1294 N 0.30475 0.89565 0.319 0.0
N1295 N 0.3422 0.85571 0.31502 0.0
H1296 H 0.1716 0.53275 0.30796 0.0
H1297 H 0.11666 0.37176 0.31595 0.0
H1298 H 0.09021 0.46967 0.28584 0.0
H1299 H 0.19079 0.43329 0.34729 0.0
H1300 H 0.10759 0.40766 0.30397 0.0
H1301 H 0.1799 0.49696 0.32169 0.0
C1302 C 0.1554 0.5114 0.30606 0.0
C1303 C 0.13016 0.50426 0.29567 0.0
C1304 C 0.12576 0.41333 0.31355 0.0
C1305 C 0.13973 0.46317 0.31117 0.0
C1306 C 0.131 0.39281 0.3204 0.0
C1307 C 0.15453 0.39948 0.33267 0.0
C1308 C 0.14429 0.44084 0.31885 0.0
C1309 C 0.17229 0.42717 0.33796 0.0
C1310 C 0.16022 0.49098 0.31386 0.0
C1311 C 0.11018 0.47621 0.29342 0.0
N1312 N 0.16688 0.44687 0.33092 0.0
N1313 N 0.11542 0.45673 0.30107 0.0
H1314 H 0.39446 0.46663 0.30751 0.0
H1315 H 0.23133 0.41074 0.33713 0.0
H1316 H 0.36394 0.51936 0.32964 0.0
H1317 H 0.26593 0.35806 0.32412 0.0
H1318 H 0.27893 0.45102 0.33322 0.0
H1319 H 0.34673 0.42687 0.31177 0.0
C1320 C 0.37762 0.46979 0.31323 0.0
C1321 C 0.38311 0.49623 0.31838 0.0
C1322 C 0.27617 0.43065 0.33136 0.0
C1323 C 0.32835 0.45085 0.32326 0.0
C1324 C 0.24905 0.40766 0.33377 0.0
C1325 C 0.24493 0.38105 0.33157 0.0
C1326 C 0.29922 0.42698 0.32629 0.0
C1327 C 0.26838 0.37825 0.32634 0.0
C1328 C 0.35039 0.4471 0.31572 0.0
C1329 C 0.36051 0.49924 0.32559 0.0
N1330 N 0.2945 0.40089 0.32394 0.0
N1331 N 0.33411 0.47682 0.32786 0.0
H1332 H 0.49008 0.83552 0.33191 0.0
H1333 H 0.65872 0.90132 0.32076 0.0
H1334 H 0.54464 0.91427 0.30423 0.0
H1335 H 0.60303 0.81598 0.33572 0.0
H1336 H 0.61712 0.90674 0.31567 0.0
H1337 H 0.53088 0.82797 0.33449 0.0
C1338 C 0.51062 0.85107 0.32621 0.0
C1339 C 0.51407 0.87562 0.31798 0.0
C1340 C 0.61392 0.88681 0.32011 0.0
C1341 C 0.56082 0.86727 0.32091 0.0
C1342 C 0.63767 0.88375 0.32307 0.0
C1343 C 0.63432 0.85843 0.32932 0.0
C1344 C 0.58647 0.86427 0.32322 0.0
C1345 C 0.60657 0.83611 0.33158 0.0
C1346 C 0.53388 0.8468 0.32769 0.0
C1347 C 0.5411 0.89513 0.31079 0.0
N1348 N 0.58372 0.83961 0.32873 0.0
N1349 N 0.56342 0.89064 0.31256 0.0
H1350 H 0.09031 0.62157 0.30009 0.0
H1351 H 0.20165 0.76476 0.35053 0.0
H1352 H 0.15829 0.63183 0.33888 0.0
H1353 H 0.12616 0.7521 0.31975 0.0
H1354 H 0.18773 0.7169 0.34442 0.0
H1355 H 0.10465 0.6701 0.30517 0.0
C1356 C 0.10813 0.63409 0.3098 0.0
C1357 C 0.12285 0.62276 0.31944 0.0
C1358 C 0.17416 0.72454 0.33902 0.0
C1359 C 0.13969 0.67815 0.32502 0.0
C1360 C 0.18203 0.75189 0.34259 0.0
C1361 C 0.16477 0.76238 0.33598 0.0
C1362 C 0.14897 0.70752 0.32857 0.0
C1363 C 0.14003 0.74487 0.32524 0.0
C1364 C 0.11635 0.66172 0.31266 0.0
C1365 C 0.14617 0.63983 0.33149 0.0
N1366 N 0.13281 0.71825 0.32191 0.0
N1367 N 0.15386 0.66669 0.33398 0.0
H1368 H 0.81256 0.05457 0.39735 0.0
H1369 H 0.77668 0.90998 0.34906 0.0
H1370 H 0.87165 0.04291 0.36125 0.0
H1371 H 0.71399 0.92369 0.37863 0.0
H1372 H 0.81262 0.95756 0.35574 0.0
H1373 H 0.77726 0.0057 0.39325 0.0
C1374 C 0.81806 0.04163 0.38859 0.0
C1375 C 0.84481 0.05274 0.37934 0.0
C1376 C 0.79102 0.95021 0.36078 0.0
C1377 C 0.80475 0.99689 0.37469 0.0
C1378 C 0.77037 0.92301 0.35687 0.0
C1379 C 0.74206 0.91286 0.36295 0.0
C1380 C 0.78347 0.96749 0.37103 0.0
C1381 C 0.73547 0.93062 0.37353 0.0
C1382 C 0.79795 0.01378 0.38624 0.0
C1383 C 0.8511 0.0351 0.36841 0.0
N1384 N 0.75599 0.95708 0.37716 0.0
N1385 N 0.83118 0.00808 0.3663 0.0
H1386 H 0.99055 0.83773 0.36527 0.0
H1387 H 0.09242 0.77296 0.37533 0.0
H1388 H 0.96437 0.75837 0.39162 0.0
H1389 H 0.12444 0.85836 0.36088 0.0
H1390 H 0.04487 0.76689 0.37977 0.0
H1391 H 0.03929 0.84566 0.36213 0.0
C1392 C 0.99518 0.82212 0.37056 0.0
C1393 C 0.97341 0.79732 0.37863 0.0
C1394 C 0.06221 0.78697 0.37555 0.0
C1395 C 0.02893 0.80609 0.375 0.0
C1396 C 0.08933 0.79039 0.37294 0.0
C1397 C 0.1122 0.81597 0.36715 0.0
C1398 C 0.05783 0.80939 0.37255 0.0
C1399 C 0.1072 0.83808 0.36472 0.0
C1400 C 0.02293 0.82661 0.36874 0.0
C1401 C 0.98047 0.77773 0.38523 0.0
N1402 N 0.08051 0.83424 0.36729 0.0
N1403 N 1.00749 0.78244 0.38315 0.0
H1404 H 0.26454 0.20684 0.39918 0.0
H1405 H 0.15602 0.24311 0.34468 0.0
H1406 H 0.19868 0.15181 0.35889 0.0
H1407 H 0.22774 0.30187 0.3795 0.0
H1408 H 0.16976 0.20865 0.3513 0.0
H1409 H 0.24984 0.24119 0.39377 0.0
C1410 C 0.24709 0.20215 0.38909 0.0
C1411 C 0.23313 0.17683 0.3791 0.0
C1412 C 0.18253 0.22908 0.35749 0.0
C1413 C 0.21588 0.2156 0.3731 0.0
C1414 C 0.17477 0.24886 0.35363 0.0
C1415 C 0.19102 0.27563 0.36124 0.0
C1416 C 0.20662 0.23597 0.3692 0.0
C1417 C 0.21466 0.28158 0.3732 0.0
C1418 C 0.23866 0.22166 0.38604 0.0
C1419 C 0.21024 0.17135 0.36656 0.0
N1420 N 0.2218 0.26192 0.37676 0.0
N1421 N 0.20237 0.19063 0.36385 0.0
H1422 H 0.62385 0.54592 0.73362 0.0
H1423 H 0.78105 0.59834 0.69209 0.0
H1424 H 0.65446 0.4907 0.71786 0.0
H1425 H 0.74665 0.65151 0.70389 0.0
H1426 H 0.73412 0.55826 0.69878 0.0
H1427 H 0.66776 0.58439 0.72047 0.0
C1428 C 0.63985 0.5419 0.72735 0.0
C1429 C 0.63561 0.51509 0.72706 0.0
C1430 C 0.73672 0.57867 0.69965 0.0
C1431 C 0.68613 0.55917 0.71188 0.0
C1432 C 0.76346 0.60153 0.69567 0.0
C1433 C 0.76752 0.62822 0.69708 0.0
C1434 C 0.71408 0.58261 0.70546 0.0
C1435 C 0.74426 0.63124 0.70244 0.0
C1436 C 0.66489 0.56387 0.71974 0.0
C1437 C 0.65684 0.51103 0.71838 0.0
N1438 N 0.71861 0.60876 0.7065 0.0
N1439 N 0.68132 0.53287 0.71132 0.0
H1440 H 0.53411 0.16967 0.71929 0.0
H1441 H 0.36402 0.09665 0.71053 0.0
H1442 H 0.47574 0.08637 0.73803 0.0
H1443 H 0.41982 0.18263 0.69759 0.0
H1444 H 0.40549 0.09175 0.71749 0.0
H1445 H 0.4935 0.17396 0.70769 0.0
C1446 C 0.51283 0.15221 0.72079 0.0
C1447 C 0.50837 0.12773 0.7299 0.0
C1448 C 0.40879 0.11168 0.71295 0.0
C1449 C 0.46179 0.13254 0.71679 0.0
C1450 C 0.38509 0.11444 0.70895 0.0
C1451 C 0.3885 0.13989 0.703 0.0
C1452 C 0.43628 0.13469 0.71137 0.0
C1453 C 0.41626 0.16245 0.70159 0.0
C1454 C 0.48964 0.15473 0.71429 0.0
C1455 C 0.48025 0.10582 0.73149 0.0
N1456 N 0.4391 0.15934 0.70572 0.0
N1457 N 0.45816 0.10879 0.72511 0.0
H1458 H 0.88913 0.39356 0.70424 0.0
H1459 H 0.89307 0.25752 0.72282 0.0
H1460 H 0.88731 0.36308 0.76424 0.0
H1461 H 0.83993 0.2601 0.67568 0.0
H1462 H 0.89964 0.30097 0.73559 0.0
H1463 H 0.87808 0.34866 0.69088 0.0
C1464 C 0.88614 0.37749 0.71466 0.0
C1465 C 0.88954 0.38242 0.73547 0.0
C1466 C 0.88664 0.292 0.72239 0.0
C1467 C 0.87791 0.33148 0.72009 0.0
C1468 C 0.88295 0.26725 0.71499 0.0
C1469 C 0.86612 0.25514 0.69794 0.0
C1470 C 0.87393 0.30512 0.7125 0.0
C1471 C 0.85348 0.26884 0.68859 0.0
C1472 C 0.88001 0.35196 0.70696 0.0
C1473 C 0.88583 0.36073 0.74809 0.0
N1474 N 0.85786 0.2933 0.69589 0.0
N1475 N 0.88062 0.33638 0.74018 0.0
H1476 H 0.19055 0.97632 0.60038 0.0
H1477 H 0.24811 0.08245 0.68957 0.0
H1478 H 0.16104 0.94891 0.66098 0.0
H1479 H 0.30364 0.08372 0.64252 0.0
H1480 H 0.21085 0.03761 0.67751 0.0
H1481 H 0.22688 0.02043 0.61364 0.0
C1482 C 0.19167 0.97934 0.61648 0.0
C1483 C 0.17282 0.95831 0.62955 0.0
C1484 C 0.23131 0.04773 0.66999 0.0
C1485 C 0.21394 0.00957 0.64468 0.0
C1486 C 0.2527 0.07326 0.67692 0.0
C1487 C 0.27941 0.08679 0.66737 0.0
C1488 C 0.23632 0.03607 0.65296 0.0
C1489 C 0.28359 0.07409 0.65054 0.0
C1490 C 0.21238 0.00469 0.62398 0.0
C1491 C 0.17483 0.96432 0.65022 0.0
N1492 N 0.26221 0.0496 0.64378 0.0
N1493 N 0.19499 0.98941 0.65715 0.0
H1494 H 0.03715 0.17422 0.64359 0.0
H1495 H 0.9431 0.24747 0.65564 0.0
H1496 H 0.06436 0.25748 0.62501 0.0
H1497 H 0.91071 0.16172 0.66905 0.0
H1498 H 0.98945 0.2524 0.6478 0.0
H1499 H 0.99272 0.17014 0.6564 0.0
C1500 C 0.03393 0.19172 0.64233 0.0
C1501 C 0.05452 0.21615 0.63297 0.0
C1502 C 0.97236 0.23252 0.65266 0.0
C1503 C 1.00357 0.21156 0.64757 0.0
C1504 C 0.94591 0.22975 0.65719 0.0
C1505 C 0.92318 0.2043 0.66335 0.0
C1506 C 0.97615 0.20954 0.65394 0.0
C1507 C 0.92784 0.18187 0.6648 0.0
C1508 C 1.00847 0.18932 0.64957 0.0
C1509 C 0.04898 0.23805 0.63171 0.0
N1510 N 0.95377 0.18498 0.66008 0.0
N1511 N 0.02413 0.23521 0.63884 0.0
H1512 H 0.79962 0.8487 0.65986 0.0
H1513 H 0.79888 0.71059 0.6385 0.0
H1514 H 0.80323 0.82322 0.59914 0.0
H1515 H 0.84921 0.76361 0.68693 0.0
H1516 H 0.79121 0.74731 0.6261 0.0
H1517 H 0.80945 0.81338 0.67238 0.0
C1518 C 0.80269 0.83597 0.64909 0.0
C1519 C 0.80058 0.83918 0.6283 0.0
C1520 C 0.80381 0.75074 0.63951 0.0
C1521 C 0.81071 0.79802 0.64277 0.0
C1522 C 0.80814 0.72979 0.64669 0.0
C1523 C 0.82444 0.73379 0.66404 0.0
C1524 C 0.81532 0.77568 0.64994 0.0
C1525 C 0.83601 0.75931 0.67381 0.0
C1526 C 0.80811 0.81569 0.65633 0.0
C1527 C 0.804 0.82131 0.61527 0.0
N1528 N 0.831 0.77924 0.66674 0.0
N1529 N 0.80862 0.80135 0.62273 0.0
H1530 H 0.03117 0.85477 0.6631 0.0
H1531 H 0.93382 0.69049 0.65781 0.0
H1532 H 0.06031 0.80127 0.64029 0.0
H1533 H 0.89978 0.74384 0.67004 0.0
H1534 H 0.98106 0.73096 0.65351 0.0
H1535 H 0.9834 0.81461 0.66767 0.0
C1536 C 0.0274 0.83454 0.659 0.0
C1537 C 0.04966 0.8312 0.6515 0.0
C1538 C 0.96333 0.73389 0.65726 0.0
C1539 C 0.99533 0.7853 0.65664 0.0
C1540 C 0.93643 0.71079 0.65978 0.0
C1541 C 0.9131 0.71386 0.66482 0.0
C1542 C 0.96693 0.76035 0.65953 0.0
C1543 C 0.9174 0.74059 0.66676 0.0
C1544 C 1.00022 0.81167 0.6616 0.0
C1545 C 0.04375 0.80466 0.64627 0.0
N1546 N 0.94384 0.76283 0.66421 0.0
N1547 N 0.01723 0.78273 0.64904 0.0
H1548 H 0.21222 0.25118 0.63724 0.0
H1549 H 0.26906 0.14908 0.66926 0.0
H1550 H 0.15796 0.17119 0.66328 0.0
H1551 H 0.32385 0.23448 0.65403 0.0
H1552 H 0.22755 0.15483 0.66419 0.0
H1553 H 0.25264 0.24339 0.63992 0.0
C1554 C 0.20881 0.23186 0.64338 0.0
C1555 C 0.18177 0.21188 0.6502 0.0
C1556 C 0.24864 0.17234 0.66201 0.0
C1557 C 0.22799 0.20275 0.65335 0.0
C1558 C 0.27234 0.16911 0.66506 0.0
C1559 C 0.29995 0.19161 0.66274 0.0
C1560 C 0.25257 0.19813 0.6562 0.0
C1561 C 0.30294 0.21678 0.65641 0.0
C1562 C 0.23191 0.22745 0.64499 0.0
C1563 C 0.17851 0.18715 0.65793 0.0
N1564 N 0.27961 0.21941 0.65349 0.0
N1565 N 0.20135 0.18331 0.65938 0.0
H1566 H 0.76306 0.9566 0.63309 0.0
H1567 H 0.87068 0.10084 0.68398 0.0
H1568 H 0.8327 0.9695 0.67112 0.0
H1569 H 0.79537 0.08636 0.652 0.0
H1570 H 0.85858 0.05356 0.67756 0.0
H1571 H 0.77601 0.00483 0.63795 0.0
C1572 C 0.78098 0.96965 0.64256 0.0
C1573 C 0.79652 0.95913 0.65211 0.0
C1574 C 0.84466 0.06067 0.67194 0.0
C1575 C 0.81175 0.01415 0.65746 0.0
C1576 C 0.85148 0.08768 0.67568 0.0
C1577 C 0.83375 0.09749 0.66881 0.0
C1578 C 0.82 0.04326 0.66109 0.0
C1579 C 0.80958 0.07964 0.65768 0.0
C1580 C 0.7884 0.99711 0.6453 0.0
C1581 C 0.81995 0.97686 0.66383 0.0
N1582 N 0.80335 0.05332 0.65422 0.0
N1583 N 0.82681 0.0035 0.66624 0.0
H1584 H 0.47942 0.38858 0.72956 0.0
H1585 H 0.44278 0.24325 0.68229 0.0
H1586 H 0.53812 0.3761 0.69364 0.0
H1587 H 0.38034 0.25748 0.7117 0.0
H1588 H 0.47885 0.29084 0.68873 0.0
H1589 H 0.44393 0.3397 0.72581 0.0
C1590 C 0.48479 0.37545 0.72092 0.0
C1591 C 0.5115 0.38633 0.71162 0.0
C1592 C 0.45728 0.28361 0.69379 0.0
C1593 C 0.47122 0.33048 0.70737 0.0
C1594 C 0.43656 0.2564 0.69002 0.0
C1595 C 0.40827 0.2464 0.69612 0.0
C1596 C 0.44984 0.30106 0.70392 0.0
C1597 C 0.40179 0.2643 0.70659 0.0
C1598 C 0.46457 0.34761 0.71877 0.0
C1599 C 0.51761 0.36847 0.70083 0.0
N1600 N 0.42239 0.29079 0.71008 0.0
N1601 N 0.49759 0.34145 0.69891 0.0
H1602 H 0.65627 0.17058 0.69882 0.0
H1603 H 0.75879 0.10636 0.708 0.0
H1604 H 0.63045 0.09099 0.72461 0.0
H1605 H 0.79029 0.19173 0.69374 0.0
H1606 H 0.71113 0.1 0.71255 0.0
H1607 H 0.70505 0.17869 0.69543 0.0
C1608 C 0.66099 0.15496 0.70394 0.0
C1609 C 0.63931 0.13006 0.71195 0.0
C1610 C 0.72838 0.12013 0.70834 0.0
C1611 C 0.69487 0.13902 0.70801 0.0
C1612 C 0.75557 0.12372 0.70567 0.0
C1613 C 0.77833 0.14938 0.69991 0.0
C1614 C 0.72383 0.14246 0.70543 0.0
C1615 C 0.77315 0.17138 0.69756 0.0
C1616 C 0.68876 0.15954 0.70197 0.0
C1617 C 0.64648 0.11044 0.71831 0.0
N1618 N 0.74641 0.16739 0.70019 0.0
N1619 N 0.67352 0.11526 0.71608 0.0
H1620 H 0.86125 0.48129 0.69512 0.0
H1621 H 0.8951 0.63583 0.71351 0.0
H1622 H 0.92945 0.53927 0.73261 0.0
H1623 H 0.82365 0.57609 0.67896 0.0
H1624 H 0.90763 0.60065 0.7211 0.0
H1625 H 0.84678 0.51569 0.68925 0.0
C1626 C 0.8732 0.50138 0.70202 0.0
C1627 C 0.89688 0.50781 0.71398 0.0
C1628 C 0.88921 0.59525 0.71185 0.0
C1629 C 0.88041 0.54706 0.70762 0.0
C1630 C 0.88201 0.61534 0.70752 0.0
C1631 C 0.85852 0.60905 0.69532 0.0
C1632 C 0.8728 0.56865 0.70395 0.0
C1633 C 0.84229 0.58206 0.68809 0.0
C1634 C 0.86494 0.52095 0.69874 0.0
C1635 C 0.91138 0.53381 0.72298 0.0
N1636 N 0.8498 0.5629 0.69244 0.0
N1637 N 0.90302 0.55258 0.71952 0.0
H1638 H 0.50576 0.93552 0.25273 0.0
H1639 H 0.46727 0.96504 0.14258 0.0
H1640 H 0.42012 0.89623 0.22976 0.0
H1641 H 0.55261 0.00188 0.16582 0.0
H1642 H 0.44952 0.9382 0.17368 0.0
H1643 H 0.52319 0.95872 0.22047 0.0
C1644 C 0.49059 0.93157 0.24087 0.0
C1645 C 0.46137 0.91384 0.24408 0.0
C1646 C 0.47214 0.9521 0.17193 0.0
C1647 C 0.48127 0.94077 0.20696 0.0
C1648 C 0.48231 0.96731 0.15411 0.0
C1649 C 0.51149 0.98598 0.15159 0.0
C1650 C 0.49126 0.9555 0.18736 0.0
C1651 C 0.52991 0.98818 0.16719 0.0
C1652 C 0.50058 0.94498 0.22243 0.0
C1653 C 0.44278 0.90999 0.22814 0.0
N1654 N 0.5195 0.97327 0.18436 0.0
N1655 N 0.45302 0.92334 0.21032 0.0
H1656 H 0.11227 0.52048 0.22621 0.0
H1657 H 0.99869 0.54274 0.16495 0.0
H1658 H 0.06355 0.55459 0.25197 0.0
H1659 H 0.03672 0.49665 0.14186 0.0
H1660 H 0.02449 0.54958 0.19629 0.0
H1661 H 0.08689 0.51371 0.19456 0.0
C1662 C 0.09616 0.52642 0.22527 0.0
C1663 C 0.09008 0.53815 0.24183 0.0
C1664 C 0.0272 0.53796 0.18438 0.0
C1665 C 0.06122 0.53078 0.20553 0.0
C1666 C 0.01234 0.53391 0.16649 0.0
C1667 C 0.01539 0.51897 0.15073 0.0
C1668 C 0.0454 0.52709 0.18658 0.0
C1669 C 0.03392 0.50856 0.15349 0.0
C1670 C 0.08178 0.52268 0.20715 0.0
C1671 C 0.0693 0.54587 0.23956 0.0
N1672 N 0.04819 0.51279 0.17107 0.0
N1673 N 0.05566 0.54206 0.22178 0.0
H1674 H 0.46492 0.51268 0.2519 0.0
H1675 H 0.52311 0.56149 0.13979 0.0
H1676 H 0.48843 0.59278 0.22792 0.0
H1677 H 0.51765 0.48944 0.16753 0.0
H1678 H 0.50412 0.57009 0.17056 0.0
H1679 H 0.47795 0.5007 0.21965 0.0
C1680 C 0.47257 0.52762 0.23979 0.0
C1681 C 0.47585 0.55384 0.24263 0.0
C1682 C 0.50698 0.55234 0.1699 0.0
C1683 C 0.49077 0.54035 0.2058 0.0
C1684 C 0.51765 0.54732 0.15228 0.0
C1685 C 0.52212 0.52479 0.15111 0.0
C1686 C 0.50053 0.53461 0.18647 0.0
C1687 C 0.51493 0.50727 0.16788 0.0
C1688 C 0.48015 0.52085 0.22145 0.0
C1689 C 0.48599 0.57248 0.22647 0.0
N1690 N 0.50452 0.51256 0.18486 0.0
N1691 N 0.4931 0.5654 0.2088 0.0
H1692 H 0.97142 0.44061 0.77666 0.0
H1693 H 0.99721 0.50704 0.88633 0.0
H1694 H 0.92105 0.4734 0.80158 0.0
H1695 H 0.03718 0.46222 0.86419 0.0
H1696 H 0.97213 0.49884 0.85438 0.0
H1697 H 0.99918 0.45285 0.8075 0.0
C1698 C 0.96618 0.45038 0.78864 0.0
C1699 C 0.94364 0.45568 0.78662 0.0
C1700 C 0.98646 0.49089 0.85652 0.0
C1701 C 0.97556 0.47001 0.82197 0.0
C1702 C 1.00067 0.49541 0.8748 0.0
C1703 C 0.01931 0.48524 0.87802 0.0
C1704 C 0.99098 0.47615 0.84131 0.0
C1705 C 0.02333 0.47077 0.86235 0.0
C1706 C 0.98212 0.45746 0.80622 0.0
C1707 C 0.9383 0.46903 0.80245 0.0
N1708 N 0.00926 0.46663 0.84473 0.0
N1709 N 0.95404 0.47559 0.81952 0.0
H1710 H 0.57212 0.51879 0.77689 0.0
H1711 H 0.51653 0.46046 0.88772 0.0
H1712 H 0.55742 0.43967 0.79728 0.0
H1713 H 0.51369 0.5297 0.86207 0.0
H1714 H 0.53643 0.45505 0.85607 0.0
H1715 H 0.55548 0.52555 0.80939 0.0
C1716 C 0.56555 0.50291 0.78827 0.0
C1717 C 0.56615 0.47862 0.78436 0.0
C1718 C 0.53149 0.47145 0.8574 0.0
C1719 C 0.54694 0.48618 0.82161 0.0
C1720 C 0.52033 0.47466 0.87549 0.0
C1721 C 0.51332 0.49548 0.87749 0.0
C1722 C 0.53594 0.48937 0.84127 0.0
C1723 C 0.51844 0.51315 0.86109 0.0
C1724 C 0.5559 0.50671 0.80678 0.0
C1725 C 0.55703 0.45859 0.79958 0.0
N1726 N 0.52944 0.50971 0.84371 0.0
N1727 N 0.54787 0.46283 0.81755 0.0
H1728 H 0.52891 0.11968 0.80037 0.0
H1729 H 0.51597 0.99129 0.8614 0.0
H1730 H 0.56117 0.06838 0.77801 0.0
H1731 H 0.50187 0.05327 0.88851 0.0
H1732 H 0.53227 0.01898 0.83069 0.0
H1733 H 0.51849 0.0955 0.83263 0.0
C1734 C 0.53386 0.10334 0.80228 0.0
C1735 C 0.54577 0.09592 0.78641 0.0
C1736 C 0.52583 0.02666 0.84338 0.0
C1737 C 0.53383 0.06808 0.82335 0.0
C1738 C 0.51639 0.0108 0.8609 0.0
C1739 C 0.50737 0.0199 0.87751 0.0
C1740 C 0.52596 0.05173 0.84231 0.0
C1741 C 0.50875 0.04552 0.8761 0.0
C1742 C 0.52803 0.08964 0.82073 0.0
C1743 C 0.5521 0.07486 0.78984 0.0
N1744 N 0.51757 0.06039 0.85875 0.0
N1745 N 0.54581 0.06151 0.80784 0.0
H1746 H 0.08537 0.23088 0.56292 0.0
H1747 H 0.22115 0.33848 0.49873 0.0
H1748 H 0.17144 0.27149 0.58513 0.0
H1749 H 0.13524 0.30134 0.47656 0.0
H1750 H 0.2032 0.31218 0.52979 0.0
H1751 H 0.10301 0.25481 0.53079 0.0
C1752 C 0.10796 0.2449 0.56112 0.0
C1753 C 0.1269 0.24917 0.57689 0.0
C1754 C 0.18822 0.30967 0.51815 0.0
C1755 C 0.1473 0.27645 0.53992 0.0
C1756 C 0.19846 0.3248 0.50039 0.0
C1757 C 0.17968 0.32239 0.48501 0.0
C1758 C 0.15888 0.29186 0.52071 0.0
C1759 C 0.15055 0.3038 0.48793 0.0
C1760 C 0.11803 0.25843 0.54269 0.0
C1761 C 0.15601 0.26723 0.57342 0.0
N1762 N 0.14104 0.2894 0.50546 0.0
N1763 N 0.16525 0.2802 0.55539 0.0
H1764 H 0.7769 0.85177 0.56049 0.0
H1765 H 0.66528 0.87745 0.49984 0.0
H1766 H 0.73169 0.88947 0.58639 0.0
H1767 H 0.70017 0.82841 0.47711 0.0
H1768 H 0.69103 0.88374 0.53115 0.0
H1769 H 0.75046 0.84455 0.52934 0.0
C1770 C 0.76127 0.85836 0.55969 0.0
C1771 C 0.75653 0.87125 0.57612 0.0
C1772 C 0.69303 0.87157 0.51933 0.0
C1773 C 0.72648 0.86341 0.54036 0.0
C1774 C 0.67821 0.86784 0.50146 0.0
C1775 C 0.68047 0.8523 0.48579 0.0
C1776 C 0.71038 0.85977 0.52158 0.0
C1777 C 0.69804 0.84084 0.48866 0.0
C1778 C 0.7463 0.85436 0.54185 0.0
C1779 C 0.73637 0.8798 0.57405 0.0
N1780 N 0.71231 0.84481 0.50619 0.0
N1781 N 0.72213 0.87576 0.55651 0.0
H1782 H 0.19223 0.89751 0.58885 0.0
H1783 H 0.15095 0.83656 0.47742 0.0
H1784 H 0.1086 0.86754 0.56397 0.0
H1785 H 0.23622 0.87712 0.50117 0.0
H1786 H 0.13385 0.84465 0.50939 0.0
H1787 H 0.20726 0.88611 0.55753 0.0
C1788 C 0.17699 0.88848 0.57678 0.0
C1789 C 0.1492 0.8838 0.57897 0.0
C1790 C 0.15628 0.8517 0.50757 0.0
C1791 C 0.16629 0.87053 0.54293 0.0
C1792 C 0.16611 0.84727 0.48927 0.0
C1793 C 0.1951 0.85606 0.48655 0.0
C1794 C 0.17556 0.865 0.52328 0.0
C1795 C 0.21363 0.8695 0.50261 0.0
C1796 C 0.18558 0.88192 0.55888 0.0
C1797 C 0.1302 0.87144 0.56295 0.0
N1798 N 0.20356 0.87351 0.52021 0.0
N1799 N 0.13915 0.8654 0.54555 0.0
H1800 H 0.57084 0.74604 0.13777 0.0
H1801 H 0.71032 0.8526 0.19721 0.0
H1802 H 0.6318 0.82554 0.11372 0.0
H1803 H 0.64045 0.78052 0.22435 0.0
H1804 H 0.68285 0.84281 0.16616 0.0
H1805 H 0.59682 0.75814 0.16942 0.0
C1806 C 0.58973 0.76609 0.1392 0.0
C1807 C 0.59933 0.78477 0.1231 0.0
C1808 C 0.67349 0.82924 0.17895 0.0
C1809 C 0.62923 0.79879 0.15927 0.0
C1810 C 0.68922 0.8347 0.19661 0.0
C1811 C 0.67765 0.81731 0.21335 0.0
C1812 C 0.64613 0.80606 0.17799 0.0
C1813 C 0.65008 0.79461 0.21187 0.0
C1814 C 0.60448 0.77304 0.15729 0.0
C1815 C 0.62367 0.81061 0.12582 0.0
N1816 N 0.63535 0.78956 0.19447 0.0
N1817 N 0.63796 0.81679 0.14353 0.0
H1818 H 0.22383 0.77269 0.13212 0.0
H1819 H 0.18131 0.86637 0.19737 0.0
H1820 H 0.2393 0.85252 0.11292 0.0
H1821 H 0.18171 0.79516 0.22148 0.0
H1822 H 0.20121 0.86078 0.16594 0.0
H1823 H 0.20675 0.7795 0.16451 0.0
C1824 C 0.22359 0.79162 0.13471 0.0
C1825 C 0.23298 0.81205 0.11978 0.0
C1826 C 0.19709 0.84643 0.17812 0.0
C1827 C 0.21352 0.82001 0.15682 0.0
C1828 C 0.1856 0.84954 0.19603 0.0
C1829 C 0.17971 0.83112 0.21204 0.0
C1830 C 0.2025 0.82455 0.17604 0.0
C1831 C 0.18608 0.80992 0.20957 0.0
C1832 C 0.21401 0.79557 0.15325 0.0
C1833 C 0.23251 0.83633 0.12406 0.0
N1834 N 0.19693 0.80708 0.19186 0.0
N1835 N 0.22281 0.83956 0.14211 0.0
H1836 H 0.22958 0.40104 0.11095 0.0
H1837 H 0.16752 0.38725 0.22258 0.0
H1838 H 0.19686 0.45178 0.13369 0.0
H1839 H 0.18052 0.32501 0.19471 0.0
H1840 H 0.185 0.41505 0.19189 0.0
H1841 H 0.21851 0.37689 0.14334 0.0
C1842 C 0.22036 0.40729 0.12283 0.0
C1843 C 0.21394 0.42831 0.11956 0.0
C1844 C 0.18414 0.39536 0.19253 0.0
C1845 C 0.20115 0.40076 0.15663 0.0
C1846 C 0.17434 0.37957 0.21009 0.0
C1847 C 0.17237 0.35368 0.21117 0.0
C1848 C 0.19232 0.38534 0.17597 0.0
C1849 C 0.1813 0.34467 0.19444 0.0
C1850 C 0.21388 0.3934 0.14126 0.0
C1851 C 0.20179 0.43543 0.13546 0.0
N1852 N 0.19084 0.36044 0.17755 0.0
N1853 N 0.19577 0.42168 0.15326 0.0
H1854 H 0.75335 0.56318 0.89605 0.0
H1855 H 0.88823 0.67137 0.83144 0.0
H1856 H 0.83962 0.60422 0.91787 0.0
H1857 H 0.80217 0.63332 0.80948 0.0
H1858 H 0.87071 0.64495 0.86248 0.0
H1859 H 0.77061 0.58694 0.86383 0.0
C1860 C 0.77591 0.57725 0.89413 0.0
C1861 C 0.79501 0.58171 0.90983 0.0
C1862 C 0.8556 0.64227 0.85089 0.0
C1863 C 0.81499 0.6088 0.87275 0.0
C1864 C 0.8656 0.65746 0.83314 0.0
C1865 C 0.84664 0.65483 0.81783 0.0
C1866 C 0.82633 0.6242 0.85352 0.0
C1867 C 0.8176 0.63596 0.82079 0.0
C1868 C 0.78577 0.59068 0.87565 0.0
C1869 C 0.82408 0.59982 0.90622 0.0
N1870 N 0.80831 0.62151 0.83832 0.0
N1871 N 0.83311 0.61271 0.88815 0.0
H1872 H 0.44523 0.18611 0.89311 0.0
H1873 H 0.33251 0.21102 0.83324 0.0
H1874 H 0.40011 0.22366 0.9194 0.0
H1875 H 0.36768 0.16239 0.81017 0.0
H1876 H 0.35869 0.21759 0.86439 0.0
H1877 H 0.41852 0.17885 0.8621 0.0
C1878 C 0.42957 0.19266 0.89243 0.0
C1879 C 0.42491 0.20549 0.90894 0.0
C1880 C 0.36066 0.20546 0.85252 0.0
C1881 C 0.39454 0.19761 0.87332 0.0
C1882 C 0.34559 0.20157 0.83475 0.0
C1883 C 0.3478 0.18606 0.81903 0.0
C1884 C 0.3782 0.19385 0.85463 0.0
C1885 C 0.36558 0.17479 0.82175 0.0
C1886 C 0.41443 0.18864 0.87466 0.0
C1887 C 0.40471 0.21402 0.907 0.0
N1888 N 0.38008 0.17892 0.8392 0.0
N1889 N 0.3903 0.20994 0.88952 0.0
H1890 H 0.79844 0.17929 0.9195 0.0
H1891 H 0.85645 0.22853 0.80744 0.0
H1892 H 0.82274 0.25994 0.89626 0.0
H1893 H 0.84994 0.15592 0.83497 0.0
H1894 H 0.83785 0.23741 0.83834 0.0
H1895 H 0.81087 0.16744 0.88705 0.0
C1896 C 0.8061 0.19439 0.9075 0.0
C1897 C 0.80976 0.2207 0.91063 0.0
C1898 C 0.8404 0.21948 0.8376 0.0
C1899 C 0.82413 0.20737 0.87351 0.0
C1900 C 0.85085 0.21431 0.81992 0.0
C1901 C 0.85492 0.19153 0.81866 0.0
C1902 C 0.83373 0.20163 0.85411 0.0
C1903 C 0.84753 0.17394 0.83539 0.0
C1904 C 0.81336 0.18769 0.88903 0.0
C1905 C 0.81997 0.23955 0.89459 0.0
N1906 N 0.83733 0.17936 0.85241 0.0
N1907 N 0.82684 0.23254 0.87676 0.0
H1908 H 0.29964 0.16096 0.44547 0.0
H1909 H 0.30584 0.11304 0.5578 0.0
H1910 H 0.24046 0.08083 0.46951 0.0
H1911 H 0.37514 0.18513 0.53021 0.0
H1912 H 0.27892 0.10369 0.52667 0.0
H1913 H 0.32496 0.17298 0.47763 0.0
C1914 C 0.29188 0.14602 0.45758 0.0
C1915 C 0.26809 0.11981 0.45483 0.0
C1916 C 0.3 0.12159 0.52741 0.0
C1917 C 0.29681 0.13332 0.49149 0.0
C1918 C 0.3153 0.12702 0.54522 0.0
C1919 C 0.34278 0.14987 0.54656 0.0
C1920 C 0.31216 0.13921 0.51083 0.0
C1921 C 0.35414 0.16711 0.52971 0.0
C1922 C 0.3064 0.1528 0.47585 0.0
C1923 C 0.25896 0.10112 0.47093 0.0
N1924 N 0.33877 0.16145 0.51253 0.0
N1925 N 0.27334 0.10823 0.48856 0.0
H1926 H 0.90429 0.18539 0.44468 0.0
H1927 H 0.84749 0.12734 0.55539 0.0
H1928 H 0.88921 0.10626 0.46535 0.0
H1929 H 0.84569 0.19701 0.52955 0.0
H1930 H 0.86737 0.12163 0.52384 0.0
H1931 H 0.8873 0.19224 0.477 0.0
C1932 C 0.89757 0.16952 0.45608 0.0
C1933 C 0.89817 0.14521 0.45231 0.0
C1934 C 0.86265 0.13818 0.5251 0.0
C1935 C 0.87855 0.15286 0.48936 0.0
C1936 C 0.85149 0.14156 0.54314 0.0
C1937 C 0.84481 0.16261 0.54506 0.0
C1938 C 0.86742 0.15615 0.50894 0.0
C1939 C 0.85018 0.18029 0.52863 0.0
C1940 C 0.88771 0.17337 0.47449 0.0
C1941 C 0.88883 0.12519 0.46755 0.0
N1942 N 0.86118 0.17668 0.5113 0.0
N1943 N 0.87948 0.12948 0.48543 0.0
H1944 H 0.86272 0.78576 0.46705 0.0
H1945 H 0.85028 0.65714 0.52748 0.0
H1946 H 0.89525 0.73485 0.44435 0.0
H1947 H 0.8352 0.71842 0.55472 0.0
H1948 H 0.86655 0.68506 0.49687 0.0
H1949 H 0.8522 0.76126 0.49916 0.0
C1950 C 0.86771 0.76944 0.46885 0.0
C1951 C 0.87972 0.76222 0.45294 0.0
C1952 C 0.85989 0.69253 0.50958 0.0
C1953 C 0.86768 0.734 0.48971 0.0
C1954 C 0.85046 0.67653 0.52703 0.0
C1955 C 0.84119 0.68537 0.54366 0.0
C1956 C 0.85976 0.71748 0.50858 0.0
C1957 C 0.84228 0.71087 0.54231 0.0
C1958 C 0.86183 0.75555 0.48722 0.0
C1959 C 0.88611 0.74117 0.45623 0.0
N1960 N 0.85111 0.72588 0.52502 0.0
N1961 N 0.87976 0.72763 0.47416 0.0
loop_
_geom_bond_atom_site_label_1
_geom_bond_atom_site_label_2
_geom_bond_distance
_geom_bond_site_symmetry_2
_ccdc_geom_bond_type
H0 C7 0.929 . S
H1 C10 0.930 . S
H2 C12 0.929 . S
H3 C4 0.969 . S
C4 H3 0.969 . S
C4 O5 1.550 . S
C4 H6 0.973 . S
O5 C4 1.550 . S
O5 C11 1.412 . S
H6 C4 0.973 . S
C7 H0 0.929 . S
C7 C8 1.400 . S
C7 C9 1.364 . S
C8 C7 1.400 . S
C8 C12 1.377 . S
C9 C7 1.364 . S
C9 C10 1.374 . S
C10 H1 0.930 . S
C10 C9 1.374 . S
C10 C11 1.383 . S
C11 O5 1.412 . S
C11 C10 1.383 . S
C11 C12 1.394 . S
C12 H2 0.929 . S
C12 C8 1.377 . S
C12 C11 1.394 . S
H13 C20 0.929 . S
H14 C23 0.930 . S
H15 C25 0.929 . S
H16 C17 0.969 . S
C17 H16 0.969 . S
C17 O18 1.550 . S
C17 H19 0.973 . S
O18 C17 1.550 . S
O18 C24 1.412 . S
H19 C17 0.973 . S
C20 H13 0.929 . S
C20 C21 1.400 . S
C20 C22 1.364 . S
C21 C20 1.400 . S
C21 C25 1.377 . S
C22 C20 1.364 . S
C22 C23 1.374 . S
C23 H14 0.930 . S
C23 C22 1.374 . S
C23 C24 1.383 . S
C24 O18 1.412 . S
C24 C23 1.383 . S
C24 C25 1.394 . S
C25 H15 0.929 . S
C25 C21 1.377 . S
C25 C24 1.394 . S
H26 C33 0.929 . S
H27 C36 0.930 . S
H28 C38 0.929 . S
H29 C30 0.969 . S
C30 H29 0.969 . S
C30 O31 1.550 . S
C30 H32 0.973 . S
O31 C30 1.550 . S
O31 C37 1.412 . S
H32 C30 0.973 . S
C33 H26 0.929 . S
C33 C34 1.400 . S
C33 C35 1.364 . S
C34 C33 1.400 . S
C34 C38 1.377 . S
C35 C33 1.364 . S
C35 C36 1.374 . S
C36 H27 0.930 . S
C36 C35 1.374 . S
C36 C37 1.383 . S
C37 O31 1.412 . S
C37 C36 1.383 . S
C37 C38 1.394 . S
C38 H28 0.929 . S
C38 C34 1.377 . S
C38 C37 1.394 . S
H39 C46 0.929 . S
H40 C49 0.930 . S
H41 C51 0.929 . S
H42 C43 0.969 . S
C43 H42 0.969 . S
C43 O44 1.550 . S
C43 H45 0.973 . S
O44 C43 1.550 . S
O44 C50 1.412 . S
H45 C43 0.973 . S
C46 H39 0.929 . S
C46 C47 1.400 . S
C46 C48 1.364 . S
C47 C46 1.400 . S
C47 C51 1.377 . S
C48 C46 1.364 . S
C48 C49 1.374 . S
C49 H40 0.930 . S
C49 C48 1.374 . S
C49 C50 1.383 . S
C50 O44 1.412 . S
C50 C49 1.383 . S
C50 C51 1.394 . S
C51 H41 0.929 . S
C51 C47 1.377 . S
C51 C50 1.394 . S
H52 C59 0.929 . S
H53 C62 0.930 . S
H54 C64 0.929 . S
H55 C56 0.969 . S
C56 H55 0.969 . S
C56 O57 1.550 . S
C56 H58 0.973 . S
O57 C56 1.550 . S
O57 C63 1.412 . S
H58 C56 0.973 . S
C59 H52 0.929 . S
C59 C60 1.400 . S
C59 C61 1.364 . S
C60 C59 1.400 . S
C60 C64 1.377 . S
C61 C59 1.364 . S
C61 C62 1.374 . S
C62 H53 0.930 . S
C62 C61 1.374 . S
C62 C63 1.383 . S
C63 O57 1.412 . S
C63 C62 1.383 . S
C63 C64 1.394 . S
C64 H54 0.929 . S
C64 C60 1.377 . S
C64 C63 1.394 . S
H65 C72 0.929 . S
H66 C75 0.930 . S
H67 C77 0.929 . S
H68 C69 0.969 . S
C69 H68 0.969 . S
C69 O70 1.550 . S
C69 H71 0.973 . S
O70 C69 1.550 . S
O70 C76 1.412 . S
H71 C69 0.973 . S
C72 H65 0.929 . S
C72 C73 1.400 . S
C72 C74 1.364 . S
C73 C72 1.400 . S
C73 C77 1.377 . S
C74 C72 1.364 . S
C74 C75 1.374 . S
C75 H66 0.930 . S
C75 C74 1.374 . S
C75 C76 1.383 . S
C76 O70 1.412 . S
C76 C75 1.383 . S
C76 C77 1.394 . S
C77 H67 0.929 . S
C77 C73 1.377 . S
C77 C76 1.394 . S
H78 C85 0.929 . S
H79 C88 0.930 . S
H80 C90 0.929 . S
H81 C82 0.969 . S
C82 H81 0.969 . S
C82 O83 1.550 . S
C82 H84 0.973 . S
O83 C82 1.550 . S
O83 C89 1.412 . S
H84 C82 0.973 . S
C85 H78 0.929 . S
C85 C86 1.400 . S
C85 C87 1.364 . S
C86 C85 1.400 . S
C86 C90 1.377 . S
C87 C85 1.364 . S
C87 C88 1.374 . S
C88 H79 0.930 . S
C88 C87 1.374 . S
C88 C89 1.383 . S
C89 O83 1.412 . S
C89 C88 1.383 . S
C89 C90 1.394 . S
C90 H80 0.929 . S
C90 C86 1.377 . S
C90 C89 1.394 . S
H91 C98 0.929 . S
H92 C101 0.930 . S
H93 C103 0.929 . S
H94 C95 0.969 . S
C95 H94 0.969 . S
C95 O96 1.550 . S
C95 H97 0.973 . S
O96 C95 1.550 . S
O96 C102 1.412 . S
H97 C95 0.973 . S
C98 H91 0.929 . S
C98 C99 1.400 . S
C98 C100 1.364 . S
C99 C98 1.400 . S
C99 C103 1.377 . S
C100 C98 1.364 . S
C100 C101 1.374 . S
C101 H92 0.930 . S
C101 C100 1.374 . S
C101 C102 1.383 . S
C102 O96 1.412 . S
C102 C101 1.383 . S
C102 C103 1.394 . S
C103 H93 0.929 . S
C103 C99 1.377 . S
C103 C102 1.394 . S
H104 C111 0.929 . S
H105 C114 0.930 . S
H106 C116 0.929 . S
H107 C108 0.969 . S
C108 H107 0.969 . S
C108 O109 1.550 . S
C108 H110 0.973 . S
O109 C108 1.550 . S
O109 C115 1.412 . S
H110 C108 0.973 . S
C111 H104 0.929 . S
C111 C112 1.400 . S
C111 C113 1.364 . S
C112 C111 1.400 . S
C112 C116 1.377 . S
C113 C111 1.364 . S
C113 C114 1.374 . S
C114 H105 0.930 . S
C114 C113 1.374 . S
C114 C115 1.383 . S
C115 O109 1.412 . S
C115 C114 1.383 . S
C115 C116 1.394 . S
C116 H106 0.929 . S
C116 C112 1.377 . S
C116 C115 1.394 . S
H117 C124 0.929 . S
H118 C127 0.930 . S
H119 C129 0.929 . S
H120 C121 0.969 . S
C121 H120 0.969 . S
C121 O122 1.550 . S
C121 H123 0.973 . S
O122 C121 1.550 . S
O122 C128 1.412 . S
H123 C121 0.973 . S
C124 H117 0.929 . S
C124 C125 1.400 . S
C124 C126 1.364 . S
C125 C124 1.400 . S
C125 C129 1.377 . S
C126 C124 1.364 . S
C126 C127 1.374 . S
C127 H118 0.930 . S
C127 C126 1.374 . S
C127 C128 1.383 . S
C128 O122 1.412 . S
C128 C127 1.383 . S
C128 C129 1.394 . S
C129 H119 0.929 . S
C129 C125 1.377 . S
C129 C128 1.394 . S
H130 C137 0.929 . S
H131 C140 0.930 . S
H132 C142 0.929 . S
H133 C134 0.969 . S
C134 H133 0.969 . S
C134 O135 1.550 . S
C134 H136 0.973 . S
O135 C134 1.550 . S
O135 C141 1.412 . S
H136 C134 0.973 . S
C137 H130 0.929 . S
C137 C138 1.400 . S
C137 C139 1.364 . S
C138 C137 1.400 . S
C138 C142 1.377 . S
C139 C137 1.364 . S
C139 C140 1.374 . S
C140 H131 0.930 . S
C140 C139 1.374 . S
C140 C141 1.383 . S
C141 O135 1.412 . S
C141 C140 1.383 . S
C141 C142 1.394 . S
C142 H132 0.929 . S
C142 C138 1.377 . S
C142 C141 1.394 . S
H143 C150 0.929 . S
H144 C153 0.930 . S
H145 C155 0.929 . S
H146 C147 0.969 . S
C147 H146 0.969 . S
C147 O148 1.550 . S
C147 H149 0.973 . S
O148 C147 1.550 . S
O148 C154 1.412 . S
H149 C147 0.973 . S
C150 H143 0.929 . S
C150 C151 1.400 . S
C150 C152 1.364 . S
C151 C150 1.400 . S
C151 C155 1.377 . S
C152 C150 1.364 . S
C152 C153 1.374 . S
C153 H144 0.930 . S
C153 C152 1.374 . S
C153 C154 1.383 . S
C154 O148 1.412 . S
C154 C153 1.383 . S
C154 C155 1.394 . S
C155 H145 0.929 . S
C155 C151 1.377 . S
C155 C154 1.394 . S
H156 C163 0.929 . S
H157 C166 0.930 . S
H158 C168 0.929 . S
H159 C160 0.969 . S
C160 H159 0.969 . S
C160 O161 1.550 . S
C160 H162 0.973 . S
O161 C160 1.550 . S
O161 C167 1.412 . S
H162 C160 0.973 . S
C163 H156 0.929 . S
C163 C164 1.400 . S
C163 C165 1.364 . S
C164 C163 1.400 . S
C164 C168 1.377 . S
C165 C163 1.364 . S
C165 C166 1.374 . S
C166 H157 0.930 . S
C166 C165 1.374 . S
C166 C167 1.383 . S
C167 O161 1.412 . S
C167 C166 1.383 . S
C167 C168 1.394 . S
C168 H158 0.929 . S
C168 C164 1.377 . S
C168 C167 1.394 . S
H169 C176 0.929 . S
H170 C179 0.930 . S
H171 C181 0.929 . S
H172 C173 0.969 . S
C173 H172 0.969 . S
C173 O174 1.550 . S
C173 H175 0.973 . S
O174 C173 1.550 . S
O174 C180 1.412 . S
H175 C173 0.973 . S
C176 H169 0.929 . S
C176 C177 1.400 . S
C176 C178 1.364 . S
C177 C176 1.400 . S
C177 C181 1.377 . S
C178 C176 1.364 . S
C178 C179 1.374 . S
C179 H170 0.930 . S
C179 C178 1.374 . S
C179 C180 1.383 . S
C180 O174 1.412 . S
C180 C179 1.383 . S
C180 C181 1.394 . S
C181 H171 0.929 . S
C181 C177 1.377 . S
C181 C180 1.394 . S
H182 C189 0.929 . S
H183 C192 0.930 . S
H184 C194 0.929 . S
H185 C186 0.969 . S
C186 H185 0.969 . S
C186 O187 1.550 . S
C186 H188 0.973 . S
O187 C186 1.550 . S
O187 C193 1.412 . S
H188 C186 0.973 . S
C189 H182 0.929 . S
C189 C190 1.400 . S
C189 C191 1.364 . S
C190 C189 1.400 . S
C190 C194 1.377 . S
C191 C189 1.364 . S
C191 C192 1.374 . S
C192 H183 0.930 . S
C192 C191 1.374 . S
C192 C193 1.383 . S
C193 O187 1.412 . S
C193 C192 1.383 . S
C193 C194 1.394 . S
C194 H184 0.929 . S
C194 C190 1.377 . S
C194 C193 1.394 . S
H195 C202 0.929 . S
H196 C205 0.930 . S
H197 C207 0.929 . S
H198 C199 0.969 . S
C199 H198 0.969 . S
C199 O200 1.550 . S
C199 H201 0.973 . S
O200 C199 1.550 . S
O200 C206 1.412 . S
H201 C199 0.973 . S
C202 H195 0.929 . S
C202 C203 1.400 . S
C202 C204 1.364 . S
C203 C202 1.400 . S
C203 C207 1.377 . S
C204 C202 1.364 . S
C204 C205 1.374 . S
C205 H196 0.930 . S
C205 C204 1.374 . S
C205 C206 1.383 . S
C206 O200 1.412 . S
C206 C205 1.383 . S
C206 C207 1.394 . S
C207 H197 0.929 . S
C207 C203 1.377 . S
C207 C206 1.394 . S
H208 C215 0.929 . S
H209 C218 0.930 . S
H210 C220 0.929 . S
H211 C212 0.969 . S
C212 H211 0.969 . S
C212 O213 1.550 . S
C212 H214 0.973 . S
O213 C212 1.550 . S
O213 C219 1.412 . S
H214 C212 0.973 . S
C215 H208 0.929 . S
C215 C216 1.400 . S
C215 C217 1.364 . S
C216 C215 1.400 . S
C216 C220 1.377 . S
C217 C215 1.364 . S
C217 C218 1.374 . S
C218 H209 0.930 . S
C218 C217 1.374 . S
C218 C219 1.383 . S
C219 O213 1.412 . S
C219 C218 1.383 . S
C219 C220 1.394 . S
C220 H210 0.929 . S
C220 C216 1.377 . S
C220 C219 1.394 . S
H221 C228 0.929 . S
H222 C231 0.930 . S
H223 C233 0.929 . S
H224 C225 0.969 . S
C225 H224 0.969 . S
C225 O226 1.550 . S
C225 H227 0.973 . S
O226 C225 1.550 . S
O226 C232 1.412 . S
H227 C225 0.973 . S
C228 H221 0.929 . S
C228 C229 1.400 . S
C228 C230 1.364 . S
C229 C228 1.400 . S
C229 C233 1.377 . S
C230 C228 1.364 . S
C230 C231 1.374 . S
C231 H222 0.930 . S
C231 C230 1.374 . S
C231 C232 1.383 . S
C232 O226 1.412 . S
C232 C231 1.383 . S
C232 C233 1.394 . S
C233 H223 0.929 . S
C233 C229 1.377 . S
C233 C232 1.394 . S
Gd234 N265 2.661 . S
Gd234 N271 2.601 . S
Gd234 O278 2.545 . S
Gd234 O279 2.606 1_545 S
Gd234 O281 2.429 . S
Gd234 O282 2.545 1_545 S
Gd234 O283 2.412 1_545 S
Gd234 O285 2.362 . S
Gd234 O286 2.324 1_545 S
Gd234 C293 2.828 . S
Gd235 N244 2.661 . S
Gd235 N248 2.601 . S
Gd235 O279 2.362 1_556 S
Gd235 O280 2.324 1_565 S
Gd235 O284 2.545 . S
Gd235 O285 2.606 1_566 S
Gd235 O287 2.433 . S
Gd235 O288 2.545 1_565 S
Gd235 O289 2.412 1_565 S
Gd235 C302 2.827 1_565 S
C236 C239 1.417 . S
C236 C241 1.431 . S
C236 C242 1.412 . S
C237 C240 1.437 . S
C237 C241 1.317 . S
C237 H256 0.929 . S
C238 C239 1.426 . S
C238 C240 1.413 . S
C238 N248 1.359 . S
C239 C236 1.417 . S
C239 C238 1.426 . S
C239 N244 1.350 . S
C240 C237 1.437 . S
C240 C238 1.413 . S
C240 C250 1.391 . S
C241 C236 1.431 . S
C241 C237 1.317 . S
C241 H252 0.930 . S
C242 C236 1.412 . S
C242 C243 1.355 . S
C242 H254 0.930 . S
C243 C242 1.355 . S
C243 C245 1.402 . S
C243 H255 0.930 . S
N244 Gd235 2.661 . S
N244 C239 1.350 . S
N244 C245 1.307 . S
C245 C243 1.402 . S
C245 N244 1.307 . S
C245 H246 0.930 . S
H246 C245 0.930 . S
C247 N248 1.334 . S
C247 C249 1.394 . S
C247 H251 0.930 . S
N248 Gd235 2.601 . S
N248 C238 1.359 . S
N248 C247 1.334 . S
C249 C247 1.394 . S
C249 C250 1.359 . S
C249 H261 0.930 . S
C250 C240 1.391 . S
C250 C249 1.359 . S
C250 H262 0.929 . S
H251 C247 0.930 . S
H252 C241 0.930 . S
H253 C270 0.930 . S
H254 C242 0.930 . S
H255 C243 0.930 . S
H256 C237 0.929 . S
H257 C275 0.930 . S
H258 C266 0.930 . S
H259 C267 0.930 . S
H260 C291 0.929 . S
H261 C249 0.930 . S
H262 C250 0.929 . S
H263 C292 0.930 . S
H264 C273 0.930 . S
N265 Gd234 2.661 . S
N265 C269 1.350 . S
N265 C270 1.307 . S
C266 H258 0.930 . S
C266 C267 1.355 . S
C266 C268 1.412 . S
C267 H259 0.930 . S
C267 C266 1.355 . S
C267 C270 1.402 . S
C268 C266 1.412 . S
C268 C269 1.417 . S
C268 C292 1.431 . S
C269 N265 1.350 . S
C269 C268 1.417 . S
C269 C272 1.426 . S
C270 H253 0.930 . S
C270 N265 1.307 . S
C270 C267 1.402 . S
N271 Gd234 2.601 . S
N271 C272 1.359 . S
N271 C275 1.334 . S
C272 C269 1.426 . S
C272 N271 1.359 . S
C272 C276 1.413 . S
C273 H264 0.930 . S
C273 C274 1.359 . S
C273 C275 1.394 . S
C274 C273 1.359 . S
C274 C276 1.391 . S
C274 H277 0.929 . S
C275 H257 0.930 . S
C275 N271 1.334 . S
C275 C273 1.394 . S
C276 C272 1.413 . S
C276 C274 1.391 . S
C276 C291 1.437 . S
H277 C274 0.929 . S
O278 Gd234 2.545 . S
O278 C293 1.258 . S
O279 Gd234 2.606 1_565 S
O279 Gd235 2.362 1_554 S
O279 C290 1.284 . S
O280 Gd235 2.324 1_545 S
O280 C300 1.254 1_556 S
O281 Gd234 2.429 . S
O281 C300 1.268 . S
O282 Gd234 2.545 1_565 S
O282 C290 1.250 . S
O283 Gd234 2.412 1_565 S
O283 C293 1.252 1_565 S
O284 Gd235 2.545 . S
O284 C302 1.234 1_565 S
O285 Gd234 2.362 . S
O285 Gd235 2.606 1_544 S
O285 C301 1.284 1_554 S
O286 Gd234 2.324 1_565 S
O286 C309 1.254 . S
O287 Gd235 2.433 . S
O287 C309 1.259 1_556 S
O288 Gd235 2.545 1_545 S
O288 C301 1.250 . S
O289 Gd235 2.412 1_545 S
O289 C302 1.272 . S
C290 O279 1.284 . S
C290 O282 1.250 . S
C291 H260 0.929 . S
C291 C276 1.437 . S
C291 C292 1.317 . S
C292 H263 0.930 . S
C292 C268 1.431 . S
C292 C291 1.317 . S
C293 Gd234 2.828 . S
C293 O278 1.258 . S
C293 O283 1.252 1_545 S
C293 C294 1.504 . S
C294 C293 1.504 . S
C294 C295 1.430 . S
C294 C296 1.339 1_545 S
C295 C294 1.430 . S
C295 C298 1.398 . S
C295 H310 0.930 . S
C296 C294 1.339 1_565 S
C296 C297 1.391 . S
C296 H311 0.930 . S
C297 C296 1.391 . S
C297 C299 1.387 . S
C298 C295 1.398 . S
C298 C299 1.380 1_545 S
C298 H312 0.930 . S
C299 C297 1.387 . S
C299 C298 1.380 1_565 S
C299 H313 0.930 . S
C300 O280 1.254 1_554 S
C300 O281 1.268 . S
C301 O285 1.284 1_556 S
C301 O288 1.250 . S
C302 Gd235 2.827 1_545 S
C302 O284 1.234 1_545 S
C302 O289 1.272 . S
C302 C303 1.501 . S
C303 C302 1.501 . S
C303 C304 1.395 1_545 S
C303 C305 1.380 . S
C304 C303 1.395 1_565 S
C304 C307 1.398 . S
C304 H314 0.930 . S
C305 C303 1.380 . S
C305 C306 1.391 . S
C305 H315 0.930 . S
C306 C305 1.391 . S
C306 C308 1.387 . S
C307 C304 1.398 . S
C307 C308 1.380 1_565 S
C307 H316 0.930 . S
C308 C306 1.387 . S
C308 C307 1.380 1_545 S
C308 H317 0.930 . S
C309 O286 1.254 . S
C309 O287 1.259 1_554 S
H310 C295 0.930 . S
H311 C296 0.930 . S
H312 C298 0.930 . S
H313 C299 0.930 . S
H314 C304 0.930 . S
H315 C305 0.930 . S
H316 C307 0.930 . S
H317 C308 0.930 . S
Gd318 N349 2.661 . S
Gd318 N355 2.601 . S
Gd318 O362 2.545 . S
Gd318 O363 2.606 1_655 S
Gd318 O365 2.429 . S
Gd318 O366 2.545 1_655 S
Gd318 O367 2.412 1_655 S
Gd318 O369 2.362 . S
Gd318 O370 2.324 1_655 S
Gd318 C377 2.828 . S
Gd319 N328 2.661 . S
Gd319 N332 2.601 . S
Gd319 O363 2.362 1_556 S
Gd319 O364 2.324 1_455 S
Gd319 O368 2.545 . S
Gd319 O369 2.606 1_456 S
Gd319 O371 2.409 1_556 S
Gd319 O372 2.545 1_455 S
Gd319 O373 2.412 1_455 S
Gd319 C386 2.828 . S
C320 C323 1.417 . S
C320 C325 1.431 . S
C320 C326 1.412 . S
C321 C324 1.437 . S
C321 C325 1.317 . S
C321 H340 0.929 . S
C322 C323 1.426 . S
C322 C324 1.413 . S
C322 N332 1.359 . S
C323 C320 1.417 . S
C323 C322 1.426 . S
C323 N328 1.350 . S
C324 C321 1.437 . S
C324 C322 1.413 . S
C324 C334 1.391 . S
C325 C320 1.431 . S
C325 C321 1.317 . S
C325 H336 0.930 . S
C326 C320 1.412 . S
C326 C327 1.355 . S
C326 H338 0.930 . S
C327 C326 1.355 . S
C327 C329 1.402 . S
C327 H339 0.930 . S
N328 Gd319 2.661 . S
N328 C323 1.350 . S
N328 C329 1.307 . S
C329 C327 1.402 . S
C329 N328 1.307 . S
C329 H330 0.930 . S
H330 C329 0.930 . S
C331 N332 1.334 . S
C331 C333 1.394 . S
C331 H335 0.930 . S
N332 Gd319 2.601 . S
N332 C322 1.359 . S
N332 C331 1.334 . S
C333 C331 1.394 . S
C333 C334 1.359 . S
C333 H345 0.930 . S
C334 C324 1.391 . S
C334 C333 1.359 . S
C334 H346 0.929 . S
H335 C331 0.930 . S
H336 C325 0.930 . S
H337 C354 0.930 . S
H338 C326 0.930 . S
H339 C327 0.930 . S
H340 C321 0.929 . S
H341 C359 0.930 . S
H342 C350 0.930 . S
H343 C351 0.930 . S
H344 C375 0.929 . S
H345 C333 0.930 . S
H346 C334 0.929 . S
H347 C376 0.930 . S
H348 C357 0.930 . S
N349 Gd318 2.661 . S
N349 C353 1.350 . S
N349 C354 1.307 . S
C350 H342 0.930 . S
C350 C351 1.355 . S
C350 C352 1.412 . S
C351 H343 0.930 . S
C351 C350 1.355 . S
C351 C354 1.402 . S
C352 C350 1.412 . S
C352 C353 1.417 . S
C352 C376 1.431 . S
C353 N349 1.350 . S
C353 C352 1.417 . S
C353 C356 1.426 . S
C354 H337 0.930 . S
C354 N349 1.307 . S
C354 C351 1.402 . S
N355 Gd318 2.601 . S
N355 C356 1.359 . S
N355 C359 1.334 . S
C356 C353 1.426 . S
C356 N355 1.359 . S
C356 C360 1.413 . S
C357 H348 0.930 . S
C357 C358 1.359 . S
C357 C359 1.394 . S
C358 C357 1.359 . S
C358 C360 1.391 . S
C358 H361 0.929 . S
C359 H341 0.930 . S
C359 N355 1.334 . S
C359 C357 1.394 . S
C360 C356 1.413 . S
C360 C358 1.391 . S
C360 C375 1.437 . S
H361 C358 0.929 . S
O362 Gd318 2.545 . S
O362 C377 1.258 . S
O363 Gd318 2.606 1_455 S
O363 Gd319 2.362 1_554 S
O363 C374 1.284 . S
O364 Gd319 2.324 1_655 S
O364 C384 1.254 1_556 S
O365 Gd318 2.429 . S
O365 C384 1.268 . S
O366 Gd318 2.545 1_455 S
O366 C374 1.250 . S
O367 Gd318 2.412 1_455 S
O367 C377 1.252 1_455 S
O368 Gd319 2.545 . S
O368 C386 1.258 . S
O369 Gd318 2.362 . S
O369 Gd319 2.606 1_654 S
O369 C385 1.284 1_554 S
O370 Gd318 2.324 1_455 S
O370 C393 1.254 . S
O371 Gd319 2.409 1_554 S
O371 C393 1.308 . S
O372 Gd319 2.545 1_655 S
O372 C385 1.250 . S
O373 Gd319 2.412 1_655 S
O373 C386 1.252 1_655 S
C374 O363 1.284 . S
C374 O366 1.250 . S
C375 H344 0.929 . S
C375 C360 1.437 . S
C375 C376 1.317 . S
C376 H347 0.930 . S
C376 C352 1.431 . S
C376 C375 1.317 . S
C377 Gd318 2.828 . S
C377 O362 1.258 . S
C377 O367 1.252 1_655 S
C377 C378 1.497 1_655 S
C378 C377 1.497 1_455 S
C378 C379 1.395 1_455 S
C378 C380 1.380 . S
C379 C378 1.395 1_655 S
C379 C382 1.398 . S
C379 H394 0.930 . S
C380 C378 1.380 . S
C380 C381 1.391 . S
C380 H395 0.930 . S
C381 C380 1.391 . S
C381 C383 1.387 . S
C382 C379 1.398 . S
C382 C383 1.380 1_655 S
C382 H396 0.930 . S
C383 C381 1.387 . S
C383 C382 1.380 1_455 S
C383 H397 0.930 . S
C384 O364 1.254 1_554 S
C384 O365 1.268 . S
C385 O369 1.284 1_556 S
C385 O372 1.250 . S
C386 Gd319 2.828 . S
C386 O368 1.258 . S
C386 O373 1.252 1_455 S
C386 C387 1.497 . S
C387 C386 1.497 . S
C387 C388 1.395 . S
C387 C389 1.380 1_455 S
C388 C387 1.395 . S
C388 C391 1.398 . S
C388 H398 0.930 . S
C389 C387 1.380 1_655 S
C389 C390 1.391 . S
C389 H399 0.930 . S
C390 C389 1.391 . S
C390 C392 1.387 . S
C391 C388 1.398 . S
C391 C392 1.380 1_455 S
C391 H400 0.930 . S
C392 C390 1.387 . S
C392 C391 1.380 1_655 S
C392 H401 0.930 . S
C393 O370 1.254 . S
C393 O371 1.308 . S
H394 C379 0.930 . S
H395 C380 0.930 . S
H396 C382 0.930 . S
H397 C383 0.930 . S
H398 C388 0.930 . S
H399 C389 0.930 . S
H400 C391 0.930 . S
H401 C392 0.930 . S
Gd402 N433 2.661 . S
Gd402 N439 2.601 . S
Gd402 O446 2.545 . S
Gd402 O447 2.606 1_556 S
Gd402 O449 2.429 1_556 S
Gd402 O450 2.545 . S
Gd402 O451 2.412 . S
Gd402 O453 2.362 1_556 S
Gd402 O454 2.324 . S
Gd402 C461 2.828 . S
Gd403 N412 2.661 . S
Gd403 N416 2.601 . S
Gd403 O447 2.362 . S
Gd403 O448 2.324 . S
Gd403 O452 2.545 . S
Gd403 O453 2.606 . S
Gd403 O455 2.429 . S
Gd403 O456 2.545 . S
Gd403 O457 2.412 . S
Gd403 C470 2.828 . S
C404 C407 1.417 . S
C404 C409 1.431 . S
C404 C410 1.412 . S
C405 C408 1.437 . S
C405 C409 1.317 . S
C405 H424 0.929 . S
C406 C407 1.426 . S
C406 C408 1.413 . S
C406 N416 1.359 . S
C407 C404 1.417 . S
C407 C406 1.426 . S
C407 N412 1.350 . S
C408 C405 1.437 . S
C408 C406 1.413 . S
C408 C418 1.391 . S
C409 C404 1.431 . S
C409 C405 1.317 . S
C409 H420 0.930 . S
C410 C404 1.412 . S
C410 C411 1.355 . S
C410 H422 0.930 . S
C411 C410 1.355 . S
C411 C413 1.402 . S
C411 H423 0.930 . S
N412 Gd403 2.661 . S
N412 C407 1.350 . S
N412 C413 1.307 . S
C413 C411 1.402 . S
C413 N412 1.307 . S
C413 H414 0.930 . S
H414 C413 0.930 . S
C415 N416 1.334 . S
C415 C417 1.394 . S
C415 H419 0.930 . S
N416 Gd403 2.601 . S
N416 C406 1.359 . S
N416 C415 1.334 . S
C417 C415 1.394 . S
C417 C418 1.359 . S
C417 H429 0.930 . S
C418 C408 1.391 . S
C418 C417 1.359 . S
C418 H430 0.929 . S
H419 C415 0.930 . S
H420 C409 0.930 . S
H421 C438 0.930 . S
H422 C410 0.930 . S
H423 C411 0.930 . S
H424 C405 0.929 . S
H425 C443 0.930 . S
H426 C434 0.930 . S
H427 C435 0.930 . S
H428 C459 0.929 . S
H429 C417 0.930 . S
H430 C418 0.929 . S
H431 C460 0.930 . S
H432 C441 0.930 . S
N433 Gd402 2.661 . S
N433 C437 1.350 . S
N433 C438 1.307 . S
C434 H426 0.930 . S
C434 C435 1.355 . S
C434 C436 1.412 . S
C435 H427 0.930 . S
C435 C434 1.355 . S
C435 C438 1.402 . S
C436 C434 1.412 . S
C436 C437 1.417 . S
C436 C460 1.431 . S
C437 N433 1.350 . S
C437 C436 1.417 . S
C437 C440 1.426 . S
C438 H421 0.930 . S
C438 N433 1.307 . S
C438 C435 1.402 . S
N439 Gd402 2.601 . S
N439 C440 1.359 . S
N439 C443 1.334 . S
C440 C437 1.426 . S
C440 N439 1.359 . S
C440 C444 1.413 . S
C441 H432 0.930 . S
C441 C442 1.359 . S
C441 C443 1.394 . S
C442 C441 1.359 . S
C442 C444 1.391 . S
C442 H445 0.929 . S
C443 H425 0.930 . S
C443 N439 1.334 . S
C443 C441 1.394 . S
C444 C440 1.413 . S
C444 C442 1.391 . S
C444 C459 1.437 . S
H445 C442 0.929 . S
O446 Gd402 2.545 . S
O446 C461 1.258 . S
O447 Gd402 2.606 1_554 S
O447 Gd403 2.362 . S
O447 C458 1.284 1_554 S
O448 Gd403 2.324 . S
O448 C468 1.254 . S
O449 Gd402 2.429 1_554 S
O449 C468 1.268 . S
O450 Gd402 2.545 . S
O450 C458 1.250 . S
O451 Gd402 2.412 . S
O451 C461 1.252 . S
O452 Gd403 2.545 . S
O452 C470 1.258 . S
O453 Gd402 2.362 1_554 S
O453 Gd403 2.606 . S
O453 C469 1.284 . S
O454 Gd402 2.324 . S
O454 C477 1.254 1_556 S
O455 Gd403 2.429 . S
O455 C477 1.268 . S
O456 Gd403 2.545 . S
O456 C469 1.250 . S
O457 Gd403 2.412 . S
O457 C470 1.252 . S
C458 O447 1.284 1_556 S
C458 O450 1.250 . S
C459 H428 0.929 . S
C459 C444 1.437 . S
C459 C460 1.317 . S
C460 H431 0.930 . S
C460 C436 1.431 . S
C460 C459 1.317 . S
C461 Gd402 2.828 . S
C461 O446 1.258 . S
C461 O451 1.252 . S
C461 C462 1.497 . S
C462 C461 1.497 . S
C462 C463 1.395 . S
C462 C464 1.380 . S
C463 C462 1.395 . S
C463 C466 1.398 . S
C463 H478 0.930 . S
C464 C462 1.380 . S
C464 C465 1.391 . S
C464 H479 0.930 . S
C465 C464 1.391 . S
C465 C467 1.387 . S
C466 C463 1.398 . S
C466 C467 1.380 . S
C466 H480 0.930 . S
C467 C465 1.387 . S
C467 C466 1.380 . S
C467 H481 0.930 . S
C468 O448 1.254 . S
C468 O449 1.268 . S
C469 O453 1.284 . S
C469 O456 1.250 . S
C470 Gd403 2.828 . S
C470 O452 1.258 . S
C470 O457 1.252 . S
C470 C471 1.497 . S
C471 C470 1.497 . S
C471 C472 1.395 . S
C471 C473 1.380 . S
C472 C471 1.395 . S
C472 C475 1.398 . S
C472 H482 0.930 . S
C473 C471 1.380 . S
C473 C474 1.391 . S
C473 H483 0.930 . S
C474 C473 1.391 . S
C474 C476 1.387 . S
C475 C472 1.398 . S
C475 C476 1.380 . S
C475 H484 0.930 . S
C476 C474 1.387 . S
C476 C475 1.380 . S
C476 H485 0.930 . S
C477 O454 1.254 1_554 S
C477 O455 1.268 . S
H478 C463 0.930 . S
H479 C464 0.930 . S
H480 C466 0.930 . S
H481 C467 0.930 . S
H482 C472 0.930 . S
H483 C473 0.930 . S
H484 C475 0.930 . S
H485 C476 0.930 . S
Gd486 N517 2.661 . S
Gd486 N523 2.601 . S
Gd486 O530 2.545 . S
Gd486 O531 2.606 . S
Gd486 O533 2.429 . S
Gd486 O534 2.545 . S
Gd486 O535 2.412 . S
Gd486 O537 2.362 . S
Gd486 O538 2.324 . S
Gd486 C545 2.828 . S
Gd487 N496 2.661 . S
Gd487 N500 2.601 . S
Gd487 O531 2.362 . S
Gd487 O532 2.324 . S
Gd487 O536 2.545 . S
Gd487 O537 2.606 . S
Gd487 O539 2.429 . S
Gd487 O540 2.545 . S
Gd487 O541 2.412 . S
Gd487 C554 2.828 . S
C488 C491 1.417 . S
C488 C493 1.431 . S
C488 C494 1.412 . S
C489 C492 1.437 . S
C489 C493 1.317 . S
C489 H508 0.929 . S
C490 C491 1.426 . S
C490 C492 1.413 . S
C490 N500 1.359 . S
C491 C488 1.417 . S
C491 C490 1.426 . S
C491 N496 1.350 . S
C492 C489 1.437 . S
C492 C490 1.413 . S
C492 C502 1.391 . S
C493 C488 1.431 . S
C493 C489 1.317 . S
C493 H504 0.930 . S
C494 C488 1.412 . S
C494 C495 1.355 . S
C494 H506 0.960 . S
C495 C494 1.355 . S
C495 C497 1.402 . S
C495 H507 0.930 . S
N496 Gd487 2.661 . S
N496 C491 1.350 . S
N496 C497 1.307 . S
C497 C495 1.402 . S
C497 N496 1.307 . S
C497 H498 0.930 . S
H498 C497 0.930 . S
C499 N500 1.334 . S
C499 C501 1.394 . S
C499 H503 0.930 . S
N500 Gd487 2.601 . S
N500 C490 1.359 . S
N500 C499 1.334 . S
C501 C499 1.394 . S
C501 C502 1.359 . S
C501 H513 0.930 . S
C502 C492 1.391 . S
C502 C501 1.359 . S
C502 H514 0.929 . S
H503 C499 0.930 . S
H504 C493 0.930 . S
H505 C522 0.930 . S
H506 C494 0.960 . S
H507 C495 0.930 . S
H508 C489 0.929 . S
H509 C527 0.930 . S
H510 C518 0.930 . S
H511 C519 0.930 . S
H512 C543 0.929 . S
H513 C501 0.930 . S
H514 C502 0.929 . S
H515 C544 0.930 . S
H516 C525 0.930 . S
N517 Gd486 2.661 . S
N517 C521 1.350 . S
N517 C522 1.307 . S
C518 H510 0.930 . S
C518 C519 1.355 . S
C518 C520 1.412 . S
C519 H511 0.930 . S
C519 C518 1.355 . S
C519 C522 1.402 . S
C520 C518 1.412 . S
C520 C521 1.417 . S
C520 C544 1.431 . S
C521 N517 1.350 . S
C521 C520 1.417 . S
C521 C524 1.426 . S
C522 H505 0.930 . S
C522 N517 1.307 . S
C522 C519 1.402 . S
N523 Gd486 2.601 . S
N523 C524 1.359 . S
N523 C527 1.334 . S
C524 C521 1.426 . S
C524 N523 1.359 . S
C524 C528 1.413 . S
C525 H516 0.930 . S
C525 C526 1.359 . S
C525 C527 1.394 . S
C526 C525 1.359 . S
C526 C528 1.391 . S
C526 H529 0.929 . S
C527 H509 0.930 . S
C527 N523 1.334 . S
C527 C525 1.394 . S
C528 C524 1.413 . S
C528 C526 1.391 . S
C528 C543 1.437 . S
H529 C526 0.929 . S
O530 Gd486 2.545 . S
O530 C545 1.258 . S
O531 Gd486 2.606 . S
O531 Gd487 2.362 . S
O531 C542 1.284 . S
O532 Gd487 2.324 . S
O532 C552 1.254 . S
O533 Gd486 2.429 . S
O533 C552 1.268 . S
O534 Gd486 2.545 . S
O534 C542 1.250 . S
O535 Gd486 2.412 . S
O535 C545 1.252 . S
O536 Gd487 2.545 . S
O536 C554 1.258 . S
O537 Gd486 2.362 . S
O537 Gd487 2.606 . S
O537 C553 1.284 . S
O538 Gd486 2.324 . S
O538 C561 1.254 . S
O539 Gd487 2.429 . S
O539 C561 1.268 . S
O540 Gd487 2.545 . S
O540 C553 1.250 . S
O541 Gd487 2.412 . S
O541 C554 1.252 . S
C542 O531 1.284 . S
C542 O534 1.250 . S
C543 H512 0.929 . S
C543 C528 1.437 . S
C543 C544 1.317 . S
C544 H515 0.930 . S
C544 C520 1.431 . S
C544 C543 1.317 . S
C545 Gd486 2.828 . S
C545 O530 1.258 . S
C545 O535 1.252 . S
C545 C546 1.497 . S
C546 C545 1.497 . S
C546 C547 1.395 . S
C546 C548 1.380 . S
C547 C546 1.395 . S
C547 C550 1.398 . S
C547 H562 0.930 . S
C548 C546 1.380 . S
C548 C549 1.391 . S
C548 H563 0.930 . S
C549 C548 1.391 . S
C549 C551 1.387 . S
C550 C547 1.398 . S
C550 C551 1.380 . S
C550 H564 0.930 . S
C551 C549 1.387 . S
C551 C550 1.380 . S
C551 H565 0.930 . S
C552 O532 1.254 . S
C552 O533 1.268 . S
C553 O537 1.284 . S
C553 O540 1.250 . S
C554 Gd487 2.828 . S
C554 O536 1.258 . S
C554 O541 1.252 . S
C554 C555 1.497 . S
C555 C554 1.497 . S
C555 C556 1.395 . S
C555 C557 1.380 . S
C556 C555 1.395 . S
C556 C559 1.398 . S
C556 H566 0.930 . S
C557 C555 1.380 . S
C557 C558 1.391 . S
C557 H567 0.930 . S
C558 C557 1.391 . S
C558 C560 1.387 . S
C559 C556 1.398 . S
C559 C560 1.380 . S
C559 H568 0.930 . S
C560 C558 1.387 . S
C560 C559 1.380 . S
C560 H569 0.930 . S
C561 O538 1.254 . S
C561 O539 1.268 . S
H562 C547 0.930 . S
H563 C548 0.930 . S
H564 C550 0.930 . S
H565 C551 0.930 . S
H566 C556 0.930 . S
H567 C557 0.930 . S
H568 C559 0.930 . S
H569 C560 0.930 . S
Gd570 N601 2.661 . S
Gd570 N607 2.601 . S
Gd570 O614 2.545 . S
Gd570 O615 2.606 . S
Gd570 O617 2.429 . S
Gd570 O618 2.545 . S
Gd570 O619 2.412 . S
Gd570 O621 2.362 . S
Gd570 O622 2.324 . S
Gd570 C629 2.828 . S
Gd571 N580 2.661 . S
Gd571 N584 2.601 . S
Gd571 O615 2.362 . S
Gd571 O616 2.324 . S
Gd571 O620 2.545 . S
Gd571 O621 2.606 . S
Gd571 O623 2.429 . S
Gd571 O624 2.545 . S
Gd571 O625 2.412 . S
Gd571 C638 2.828 . S
C572 C575 1.417 . S
C572 C577 1.431 . S
C572 C578 1.412 . S
C573 C576 1.437 . S
C573 C577 1.317 . S
C573 H592 0.929 . S
C574 C575 1.426 . S
C574 C576 1.413 . S
C574 N584 1.359 . S
C575 C572 1.417 . S
C575 C574 1.426 . S
C575 N580 1.350 . S
C576 C573 1.437 . S
C576 C574 1.413 . S
C576 C586 1.391 . S
C577 C572 1.431 . S
C577 C573 1.317 . S
C577 H588 0.930 . S
C578 C572 1.412 . S
C578 C579 1.355 . S
C578 H590 0.930 . S
C579 C578 1.355 . S
C579 C581 1.402 . S
C579 H591 0.930 . S
N580 Gd571 2.661 . S
N580 C575 1.350 . S
N580 C581 1.307 . S
C581 C579 1.402 . S
C581 N580 1.307 . S
C581 H582 0.930 . S
H582 C581 0.930 . S
C583 N584 1.334 . S
C583 C585 1.394 . S
C583 H587 0.930 . S
N584 Gd571 2.601 . S
N584 C574 1.359 . S
N584 C583 1.334 . S
C585 C583 1.394 . S
C585 C586 1.359 . S
C585 H597 0.930 . S
C586 C576 1.391 . S
C586 C585 1.359 . S
C586 H598 0.929 . S
H587 C583 0.930 . S
H588 C577 0.930 . S
H589 C606 0.930 . S
H590 C578 0.930 . S
H591 C579 0.930 . S
H592 C573 0.929 . S
H593 C611 0.930 . S
H594 C602 0.930 . S
H595 C603 0.930 . S
H596 C627 0.929 . S
H597 C585 0.930 . S
H598 C586 0.929 . S
H599 C628 0.930 . S
H600 C609 0.930 . S
N601 Gd570 2.661 . S
N601 C605 1.350 . S
N601 C606 1.307 . S
C602 H594 0.930 . S
C602 C603 1.355 . S
C602 C604 1.412 . S
C603 H595 0.930 . S
C603 C602 1.355 . S
C603 C606 1.402 . S
C604 C602 1.412 . S
C604 C605 1.417 . S
C604 C628 1.431 . S
C605 N601 1.350 . S
C605 C604 1.417 . S
C605 C608 1.426 . S
C606 H589 0.930 . S
C606 N601 1.307 . S
C606 C603 1.402 . S
N607 Gd570 2.601 . S
N607 C608 1.359 . S
N607 C611 1.334 . S
C608 C605 1.426 . S
C608 N607 1.359 . S
C608 C612 1.413 . S
C609 H600 0.930 . S
C609 C610 1.359 . S
C609 C611 1.394 . S
C610 C609 1.359 . S
C610 C612 1.391 . S
C610 H613 0.929 . S
C611 H593 0.930 . S
C611 N607 1.334 . S
C611 C609 1.394 . S
C612 C608 1.413 . S
C612 C610 1.391 . S
C612 C627 1.437 . S
H613 C610 0.929 . S
O614 Gd570 2.545 . S
O614 C629 1.258 . S
O615 Gd570 2.606 . S
O615 Gd571 2.362 . S
O615 C626 1.284 . S
O616 Gd571 2.324 . S
O616 C636 1.254 . S
O617 Gd570 2.429 . S
O617 C636 1.268 . S
O618 Gd570 2.545 . S
O618 C626 1.250 . S
O619 Gd570 2.412 . S
O619 C629 1.252 . S
O620 Gd571 2.545 . S
O620 C638 1.258 . S
O621 Gd570 2.362 . S
O621 Gd571 2.606 . S
O621 C637 1.284 . S
O622 Gd570 2.324 . S
O622 C645 1.254 . S
O623 Gd571 2.429 . S
O623 C645 1.268 . S
O624 Gd571 2.545 . S
O624 C637 1.250 . S
O625 Gd571 2.412 . S
O625 C638 1.252 . S
C626 O615 1.284 . S
C626 O618 1.250 . S
C627 H596 0.929 . S
C627 C612 1.437 . S
C627 C628 1.317 . S
C628 H599 0.930 . S
C628 C604 1.431 . S
C628 C627 1.317 . S
C629 Gd570 2.828 . S
C629 O614 1.258 . S
C629 O619 1.252 . S
C629 C630 1.497 . S
C630 C629 1.497 . S
C630 C631 1.395 . S
C630 C632 1.380 . S
C631 C630 1.395 . S
C631 C634 1.398 . S
C631 H646 0.930 . S
C632 C630 1.380 . S
C632 C633 1.391 . S
C632 H647 0.930 . S
C633 C632 1.391 . S
C633 C635 1.387 . S
C634 C631 1.398 . S
C634 C635 1.380 . S
C634 H648 0.930 . S
C635 C633 1.387 . S
C635 C634 1.380 . S
C635 H649 0.930 . S
C636 O616 1.254 . S
C636 O617 1.268 . S
C637 O621 1.284 . S
C637 O624 1.250 . S
C638 Gd571 2.828 . S
C638 O620 1.258 . S
C638 O625 1.252 . S
C638 C639 1.497 . S
C639 C638 1.497 . S
C639 C640 1.395 . S
C639 C641 1.380 . S
C640 C639 1.395 . S
C640 C643 1.398 . S
C640 H650 0.930 . S
C641 C639 1.380 . S
C641 C642 1.391 . S
C641 H651 0.930 . S
C642 C641 1.391 . S
C642 C644 1.387 . S
C643 C640 1.398 . S
C643 C644 1.380 . S
C643 H652 0.930 . S
C644 C642 1.387 . S
C644 C643 1.380 . S
C644 H653 0.930 . S
C645 O622 1.254 . S
C645 O623 1.268 . S
H646 C631 0.930 . S
H647 C632 0.930 . S
H648 C634 0.930 . S
H649 C635 0.930 . S
H650 C640 0.930 . S
H651 C641 0.930 . S
H652 C643 0.930 . S
H653 C644 0.930 . S
Gd654 N685 2.661 . S
Gd654 N691 2.601 . S
Gd654 O698 2.545 . S
Gd654 O699 2.606 . S
Gd654 O701 2.429 . S
Gd654 O702 2.545 . S
Gd654 O703 2.412 . S
Gd654 O705 2.362 . S
Gd654 O706 2.324 . S
Gd654 C713 2.828 . S
Gd655 N664 2.661 . S
Gd655 N668 2.601 . S
Gd655 O699 2.362 . S
Gd655 O700 2.324 . S
Gd655 O704 2.545 . S
Gd655 O705 2.606 . S
Gd655 O707 2.429 . S
Gd655 O708 2.545 . S
Gd655 O709 2.412 . S
Gd655 C722 2.828 . S
C656 C659 1.417 . S
C656 C661 1.431 . S
C656 C662 1.412 . S
C657 C660 1.437 . S
C657 C661 1.317 . S
C657 H676 0.929 . S
C658 C659 1.426 . S
C658 C660 1.413 . S
C658 N668 1.359 . S
C659 C656 1.417 . S
C659 C658 1.426 . S
C659 N664 1.350 . S
C660 C657 1.437 . S
C660 C658 1.413 . S
C660 C670 1.391 . S
C661 C656 1.431 . S
C661 C657 1.317 . S
C661 H672 0.930 . S
C662 C656 1.412 . S
C662 C663 1.355 . S
C662 H674 0.930 . S
C663 C662 1.355 . S
C663 C665 1.402 . S
C663 H675 0.930 . S
N664 Gd655 2.661 . S
N664 C659 1.350 . S
N664 C665 1.307 . S
C665 C663 1.402 . S
C665 N664 1.307 . S
C665 H666 0.930 . S
H666 C665 0.930 . S
C667 N668 1.334 . S
C667 C669 1.394 . S
C667 H671 0.930 . S
N668 Gd655 2.601 . S
N668 C658 1.359 . S
N668 C667 1.334 . S
C669 C667 1.394 . S
C669 C670 1.359 . S
C669 H681 0.930 . S
C670 C660 1.391 . S
C670 C669 1.359 . S
C670 H682 0.929 . S
H671 C667 0.930 . S
H672 C661 0.930 . S
H673 C690 0.930 . S
H674 C662 0.930 . S
H675 C663 0.930 . S
H676 C657 0.929 . S
H677 C695 0.930 . S
H678 C686 0.930 . S
H679 C687 0.930 . S
H680 C711 0.929 . S
H681 C669 0.930 . S
H682 C670 0.929 . S
H683 C712 0.930 . S
H684 C693 0.930 . S
N685 Gd654 2.661 . S
N685 C689 1.350 . S
N685 C690 1.307 . S
C686 H678 0.930 . S
C686 C687 1.355 . S
C686 C688 1.412 . S
C687 H679 0.930 . S
C687 C686 1.355 . S
C687 C690 1.402 . S
C688 C686 1.412 . S
C688 C689 1.417 . S
C688 C712 1.431 . S
C689 N685 1.350 . S
C689 C688 1.417 . S
C689 C692 1.426 . S
C690 H673 0.930 . S
C690 N685 1.307 . S
C690 C687 1.402 . S
N691 Gd654 2.601 . S
N691 C692 1.359 . S
N691 C695 1.334 . S
C692 C689 1.426 . S
C692 N691 1.359 . S
C692 C696 1.413 . S
C693 H684 0.930 . S
C693 C694 1.359 . S
C693 C695 1.394 . S
C694 C693 1.359 . S
C694 C696 1.391 . S
C694 H697 0.929 . S
C695 H677 0.930 . S
C695 N691 1.334 . S
C695 C693 1.394 . S
C696 C692 1.413 . S
C696 C694 1.391 . S
C696 C711 1.437 . S
H697 C694 0.929 . S
O698 Gd654 2.545 . S
O698 C713 1.258 . S
O699 Gd654 2.606 . S
O699 Gd655 2.362 . S
O699 C710 1.284 . S
O700 Gd655 2.324 . S
O700 C720 1.254 . S
O701 Gd654 2.429 . S
O701 C720 1.268 . S
O702 Gd654 2.545 . S
O702 C710 1.250 . S
O703 Gd654 2.412 . S
O703 C713 1.252 . S
O704 Gd655 2.545 . S
O704 C722 1.258 . S
O705 Gd654 2.362 . S
O705 Gd655 2.606 . S
O705 C721 1.284 . S
O706 Gd654 2.324 . S
O706 C729 1.254 . S
O707 Gd655 2.429 . S
O707 C729 1.268 . S
O708 Gd655 2.545 . S
O708 C721 1.250 . S
O709 Gd655 2.412 . S
O709 C722 1.252 . S
C710 O699 1.284 . S
C710 O702 1.250 . S
C711 H680 0.929 . S
C711 C696 1.437 . S
C711 C712 1.317 . S
C712 H683 0.930 . S
C712 C688 1.431 . S
C712 C711 1.317 . S
C713 Gd654 2.828 . S
C713 O698 1.258 . S
C713 O703 1.252 . S
C713 C714 1.497 . S
C714 C713 1.497 . S
C714 C715 1.395 . S
C714 C716 1.380 . S
C715 C714 1.395 . S
C715 C718 1.398 . S
C715 H730 0.930 . S
C716 C714 1.380 . S
C716 C717 1.391 . S
C716 H731 0.930 . S
C717 C716 1.391 . S
C717 C719 1.387 . S
C718 C715 1.398 . S
C718 C719 1.380 . S
C718 H732 0.930 . S
C719 C717 1.387 . S
C719 C718 1.380 . S
C719 H733 0.930 . S
C720 O700 1.254 . S
C720 O701 1.268 . S
C721 O705 1.284 . S
C721 O708 1.250 . S
C722 Gd655 2.828 . S
C722 O704 1.258 . S
C722 O709 1.252 . S
C722 C723 1.497 . S
C723 C722 1.497 . S
C723 C724 1.395 . S
C723 C725 1.380 . S
C724 C723 1.395 . S
C724 C727 1.398 . S
C724 H734 0.930 . S
C725 C723 1.380 . S
C725 C726 1.391 . S
C725 H735 0.930 . S
C726 C725 1.391 . S
C726 C728 1.387 . S
C727 C724 1.398 . S
C727 C728 1.380 . S
C727 H736 0.930 . S
C728 C726 1.387 . S
C728 C727 1.380 . S
C728 H737 0.930 . S
C729 O706 1.254 . S
C729 O707 1.268 . S
H730 C715 0.930 . S
H731 C716 0.930 . S
H732 C718 0.930 . S
H733 C719 0.930 . S
H734 C724 0.930 . S
H735 C725 0.930 . S
H736 C727 0.930 . S
H737 C728 0.930 . S
Gd738 N769 2.661 . S
Gd738 N775 2.601 . S
Gd738 O782 2.545 . S
Gd738 O783 2.606 . S
Gd738 O785 2.429 . S
Gd738 O786 2.545 . S
Gd738 O787 2.412 . S
Gd738 O789 2.362 . S
Gd738 O790 2.324 . S
Gd738 C797 2.828 . S
Gd739 N748 2.661 . S
Gd739 N752 2.601 . S
Gd739 O783 2.362 . S
Gd739 O784 2.324 . S
Gd739 O788 2.545 . S
Gd739 O789 2.606 . S
Gd739 O791 2.429 . S
Gd739 O792 2.545 . S
Gd739 O793 2.412 . S
Gd739 C806 2.828 . S
C740 C743 1.417 . S
C740 C745 1.431 . S
C740 C746 1.412 . S
C741 C744 1.437 . S
C741 C745 1.317 . S
C741 H760 0.929 . S
C742 C743 1.426 . S
C742 C744 1.413 . S
C742 N752 1.359 . S
C743 C740 1.417 . S
C743 C742 1.426 . S
C743 N748 1.350 . S
C744 C741 1.437 . S
C744 C742 1.413 . S
C744 C754 1.391 . S
C745 C740 1.431 . S
C745 C741 1.317 . S
C745 H756 0.930 . S
C746 C740 1.412 . S
C746 C747 1.355 . S
C746 H758 0.930 . S
C747 C746 1.355 . S
C747 C749 1.402 . S
C747 H759 0.930 . S
N748 Gd739 2.661 . S
N748 C743 1.350 . S
N748 C749 1.307 . S
C749 C747 1.402 . S
C749 N748 1.307 . S
C749 H750 0.930 . S
H750 C749 0.930 . S
C751 N752 1.334 . S
C751 C753 1.394 . S
C751 H755 0.930 . S
N752 Gd739 2.601 . S
N752 C742 1.359 . S
N752 C751 1.334 . S
C753 C751 1.394 . S
C753 C754 1.359 . S
C753 H765 0.930 . S
C754 C744 1.391 . S
C754 C753 1.359 . S
C754 H766 0.929 . S
H755 C751 0.930 . S
H756 C745 0.930 . S
H757 C774 0.930 . S
H758 C746 0.930 . S
H759 C747 0.930 . S
H760 C741 0.929 . S
H761 C779 0.930 . S
H762 C770 0.930 . S
H763 C771 0.930 . S
H764 C795 0.929 . S
H765 C753 0.930 . S
H766 C754 0.929 . S
H767 C796 0.930 . S
H768 C777 0.930 . S
N769 Gd738 2.661 . S
N769 C773 1.350 . S
N769 C774 1.307 . S
C770 H762 0.930 . S
C770 C771 1.355 . S
C770 C772 1.412 . S
C771 H763 0.930 . S
C771 C770 1.355 . S
C771 C774 1.402 . S
C772 C770 1.412 . S
C772 C773 1.417 . S
C772 C796 1.431 . S
C773 N769 1.350 . S
C773 C772 1.417 . S
C773 C776 1.426 . S
C774 H757 0.930 . S
C774 N769 1.307 . S
C774 C771 1.402 . S
N775 Gd738 2.601 . S
N775 C776 1.359 . S
N775 C779 1.334 . S
C776 C773 1.426 . S
C776 N775 1.359 . S
C776 C780 1.413 . S
C777 H768 0.930 . S
C777 C778 1.359 . S
C777 C779 1.394 . S
C778 C777 1.359 . S
C778 C780 1.391 . S
C778 H781 0.929 . S
C779 H761 0.930 . S
C779 N775 1.334 . S
C779 C777 1.394 . S
C780 C776 1.413 . S
C780 C778 1.391 . S
C780 C795 1.437 . S
H781 C778 0.929 . S
O782 Gd738 2.545 . S
O782 C797 1.258 . S
O783 Gd738 2.606 . S
O783 Gd739 2.362 . S
O783 C794 1.284 . S
O784 Gd739 2.324 . S
O784 C804 1.254 . S
O785 Gd738 2.429 . S
O785 C804 1.268 . S
O786 Gd738 2.545 . S
O786 C794 1.250 . S
O787 Gd738 2.412 . S
O787 C797 1.252 . S
O788 Gd739 2.545 . S
O788 C806 1.258 . S
O789 Gd738 2.362 . S
O789 Gd739 2.606 . S
O789 C805 1.284 . S
O790 Gd738 2.324 . S
O790 C813 1.254 . S
O791 Gd739 2.429 . S
O791 C813 1.268 . S
O792 Gd739 2.545 . S
O792 C805 1.250 . S
O793 Gd739 2.412 . S
O793 C806 1.252 . S
C794 O783 1.284 . S
C794 O786 1.250 . S
C795 H764 0.929 . S
C795 C780 1.437 . S
C795 C796 1.317 . S
C796 H767 0.930 . S
C796 C772 1.431 . S
C796 C795 1.317 . S
C797 Gd738 2.828 . S
C797 O782 1.258 . S
C797 O787 1.252 . S
C797 C798 1.497 . S
C798 C797 1.497 . S
C798 C799 1.395 . S
C798 C800 1.380 . S
C799 C798 1.395 . S
C799 C802 1.398 . S
C799 H814 0.930 . S
C800 C798 1.380 . S
C800 C801 1.391 . S
C800 H815 0.930 . S
C801 C800 1.391 . S
C801 C803 1.387 . S
C802 C799 1.398 . S
C802 C803 1.380 . S
C802 H816 0.930 . S
C803 C801 1.387 . S
C803 C802 1.380 . S
C803 H817 0.930 . S
C804 O784 1.254 . S
C804 O785 1.268 . S
C805 O789 1.284 . S
C805 O792 1.250 . S
C806 Gd739 2.828 . S
C806 O788 1.258 . S
C806 O793 1.252 . S
C806 C807 1.497 . S
C807 C806 1.497 . S
C807 C808 1.395 . S
C807 C809 1.380 . S
C808 C807 1.395 . S
C808 C811 1.398 . S
C808 H818 0.930 . S
C809 C807 1.380 . S
C809 C810 1.391 . S
C809 H819 0.930 . S
C810 C809 1.391 . S
C810 C812 1.387 . S
C811 C808 1.398 . S
C811 C812 1.380 . S
C811 H820 0.930 . S
C812 C810 1.387 . S
C812 C811 1.380 . S
C812 H821 0.930 . S
C813 O790 1.254 . S
C813 O791 1.268 . S
H814 C799 0.930 . S
H815 C800 0.930 . S
H816 C802 0.930 . S
H817 C803 0.930 . S
H818 C808 0.930 . S
H819 C809 0.930 . S
H820 C811 0.930 . S
H821 C812 0.930 . S
Gd822 N853 2.661 . S
Gd822 N859 2.601 . S
Gd822 O866 2.545 . S
Gd822 O867 2.606 . S
Gd822 O869 2.429 . S
Gd822 O870 2.545 . S
Gd822 O871 2.412 . S
Gd822 O873 2.362 . S
Gd822 O874 2.324 . S
Gd822 C881 2.828 . S
Gd823 N832 2.661 . S
Gd823 N836 2.601 . S
Gd823 O867 2.362 . S
Gd823 O868 2.324 . S
Gd823 O872 2.545 . S
Gd823 O873 2.606 . S
Gd823 O875 2.429 . S
Gd823 O876 2.545 . S
Gd823 O877 2.412 . S
Gd823 C890 2.828 . S
C824 C827 1.417 . S
C824 C829 1.431 . S
C824 C830 1.412 . S
C825 C828 1.437 . S
C825 C829 1.317 . S
C825 H844 0.929 . S
C826 C827 1.426 . S
C826 C828 1.413 . S
C826 N836 1.359 . S
C827 C824 1.417 . S
C827 C826 1.426 . S
C827 N832 1.350 . S
C828 C825 1.437 . S
C828 C826 1.413 . S
C828 C838 1.391 . S
C829 C824 1.431 . S
C829 C825 1.317 . S
C829 H840 0.930 . S
C830 C824 1.412 . S
C830 C831 1.355 . S
C830 H842 0.930 . S
C831 C830 1.355 . S
C831 C833 1.402 . S
C831 H843 0.930 . S
N832 Gd823 2.661 . S
N832 C827 1.350 . S
N832 C833 1.307 . S
C833 C831 1.402 . S
C833 N832 1.307 . S
C833 H834 0.930 . S
H834 C833 0.930 . S
C835 N836 1.334 . S
C835 C837 1.394 . S
C835 H839 0.930 . S
N836 Gd823 2.601 . S
N836 C826 1.359 . S
N836 C835 1.334 . S
C837 C835 1.394 . S
C837 C838 1.359 . S
C837 H849 0.930 . S
C838 C828 1.391 . S
C838 C837 1.359 . S
C838 H850 0.929 . S
H839 C835 0.930 . S
H840 C829 0.930 . S
H841 C858 0.930 . S
H842 C830 0.930 . S
H843 C831 0.930 . S
H844 C825 0.929 . S
H845 C863 0.930 . S
H846 C854 0.930 . S
H847 C855 0.930 . S
H848 C879 0.929 . S
H849 C837 0.930 . S
H850 C838 0.929 . S
H851 C880 0.930 . S
H852 C861 0.930 . S
N853 Gd822 2.661 . S
N853 C857 1.350 . S
N853 C858 1.307 . S
C854 H846 0.930 . S
C854 C855 1.355 . S
C854 C856 1.412 . S
C855 H847 0.930 . S
C855 C854 1.355 . S
C855 C858 1.402 . S
C856 C854 1.412 . S
C856 C857 1.417 . S
C856 C880 1.431 . S
C857 N853 1.350 . S
C857 C856 1.417 . S
C857 C860 1.426 . S
C858 H841 0.930 . S
C858 N853 1.307 . S
C858 C855 1.402 . S
N859 Gd822 2.601 . S
N859 C860 1.359 . S
N859 C863 1.334 . S
C860 C857 1.426 . S
C860 N859 1.359 . S
C860 C864 1.413 . S
C861 H852 0.930 . S
C861 C862 1.359 . S
C861 C863 1.394 . S
C862 C861 1.359 . S
C862 C864 1.391 . S
C862 H865 0.929 . S
C863 H845 0.930 . S
C863 N859 1.334 . S
C863 C861 1.394 . S
C864 C860 1.413 . S
C864 C862 1.391 . S
C864 C879 1.437 . S
H865 C862 0.929 . S
O866 Gd822 2.545 . S
O866 C881 1.258 . S
O867 Gd822 2.606 . S
O867 Gd823 2.362 . S
O867 C878 1.284 . S
O868 Gd823 2.324 . S
O868 C888 1.254 . S
O869 Gd822 2.429 . S
O869 C888 1.268 . S
O870 Gd822 2.545 . S
O870 C878 1.250 . S
O871 Gd822 2.412 . S
O871 C881 1.252 . S
O872 Gd823 2.545 . S
O872 C890 1.258 . S
O873 Gd822 2.362 . S
O873 Gd823 2.606 . S
O873 C889 1.284 . S
O874 Gd822 2.324 . S
O874 C897 1.254 . S
O875 Gd823 2.429 . S
O875 C897 1.268 . S
O876 Gd823 2.545 . S
O876 C889 1.250 . S
O877 Gd823 2.412 . S
O877 C890 1.252 . S
C878 O867 1.284 . S
C878 O870 1.250 . S
C879 H848 0.929 . S
C879 C864 1.437 . S
C879 C880 1.317 . S
C880 H851 0.930 . S
C880 C856 1.431 . S
C880 C879 1.317 . S
C881 Gd822 2.828 . S
C881 O866 1.258 . S
C881 O871 1.252 . S
C881 C882 1.497 . S
C882 C881 1.497 . S
C882 C883 1.395 . S
C882 C884 1.380 . S
C883 C882 1.395 . S
C883 C886 1.398 . S
C883 H898 0.930 . S
C884 C882 1.380 . S
C884 C885 1.391 . S
C884 H899 0.930 . S
C885 C884 1.391 . S
C885 C887 1.387 . S
C886 C883 1.398 . S
C886 C887 1.380 . S
C886 H900 0.930 . S
C887 C885 1.387 . S
C887 C886 1.380 . S
C887 H901 0.930 . S
C888 O868 1.254 . S
C888 O869 1.268 . S
C889 O873 1.284 . S
C889 O876 1.250 . S
C890 Gd823 2.828 . S
C890 O872 1.258 . S
C890 O877 1.252 . S
C890 C891 1.497 . S
C891 C890 1.497 . S
C891 C892 1.395 . S
C891 C893 1.380 . S
C892 C891 1.395 . S
C892 C895 1.398 . S
C892 H902 0.930 . S
C893 C891 1.380 . S
C893 C894 1.391 . S
C893 H903 0.930 . S
C894 C893 1.391 . S
C894 C896 1.387 . S
C895 C892 1.398 . S
C895 C896 1.380 . S
C895 H904 0.930 . S
C896 C894 1.387 . S
C896 C895 1.380 . S
C896 H905 0.930 . S
C897 O874 1.254 . S
C897 O875 1.268 . S
H898 C883 0.930 . S
H899 C884 0.930 . S
H900 C886 0.930 . S
H901 C887 0.930 . S
H902 C892 0.930 . S
H903 C893 0.930 . S
H904 C895 0.930 . S
H905 C896 0.930 . S
Gd906 N937 2.661 . S
Gd906 N943 2.601 . S
Gd906 O950 2.545 . S
Gd906 O951 2.606 . S
Gd906 O953 2.429 . S
Gd906 O954 2.545 . S
Gd906 O955 2.412 . S
Gd906 O957 2.362 . S
Gd906 O958 2.324 . S
Gd906 C965 2.828 . S
Gd907 N916 2.661 . S
Gd907 N920 2.601 . S
Gd907 O951 2.362 . S
Gd907 O952 2.324 . S
Gd907 O956 2.545 . S
Gd907 O957 2.606 . S
Gd907 O959 2.429 . S
Gd907 O960 2.545 . S
Gd907 O961 2.412 . S
Gd907 C974 2.828 . S
C908 C911 1.417 . S
C908 C913 1.431 . S
C908 C914 1.412 . S
C909 C912 1.437 . S
C909 C913 1.317 . S
C909 H928 0.929 . S
C910 C911 1.426 . S
C910 C912 1.413 . S
C910 N920 1.359 . S
C911 C908 1.417 . S
C911 C910 1.426 . S
C911 N916 1.350 . S
C912 C909 1.437 . S
C912 C910 1.413 . S
C912 C922 1.391 . S
C913 C908 1.431 . S
C913 C909 1.317 . S
C913 H924 0.930 1_655 S
C914 C908 1.412 . S
C914 C915 1.355 . S
C914 H926 0.930 1_655 S
C915 C914 1.355 . S
C915 C917 1.402 . S
C915 H927 0.930 . S
N916 Gd907 2.661 . S
N916 C911 1.350 . S
N916 C917 1.307 . S
C917 C915 1.402 . S
C917 N916 1.307 . S
C917 H918 0.930 . S
H918 C917 0.930 . S
C919 N920 1.334 . S
C919 C921 1.394 . S
C919 H923 0.930 . S
N920 Gd907 2.601 . S
N920 C910 1.359 . S
N920 C919 1.334 . S
C921 C919 1.394 . S
C921 C922 1.359 . S
C921 H933 0.930 . S
C922 C912 1.391 . S
C922 C921 1.359 . S
C922 H934 0.929 . S
H923 C919 0.930 . S
H924 C913 0.930 1_455 S
H925 C942 0.930 . S
H926 C914 0.930 1_455 S
H927 C915 0.930 . S
H928 C909 0.929 . S
H929 C947 0.930 . S
H930 C938 0.930 . S
H931 C939 0.930 . S
H932 C963 0.929 . S
H933 C921 0.930 . S
H934 C922 0.929 . S
H935 C964 0.930 . S
H936 C945 0.930 . S
N937 Gd906 2.661 . S
N937 C941 1.350 . S
N937 C942 1.307 . S
C938 H930 0.930 . S
C938 C939 1.355 . S
C938 C940 1.412 . S
C939 H931 0.930 . S
C939 C938 1.355 . S
C939 C942 1.402 . S
C940 C938 1.412 . S
C940 C941 1.417 . S
C940 C964 1.431 . S
C941 N937 1.350 . S
C941 C940 1.417 . S
C941 C944 1.426 . S
C942 H925 0.930 . S
C942 N937 1.307 . S
C942 C939 1.402 . S
N943 Gd906 2.601 . S
N943 C944 1.359 . S
N943 C947 1.334 . S
C944 C941 1.426 . S
C944 N943 1.359 . S
C944 C948 1.413 . S
C945 H936 0.930 . S
C945 C946 1.359 . S
C945 C947 1.394 . S
C946 C945 1.359 . S
C946 C948 1.391 . S
C946 H949 0.929 . S
C947 H929 0.930 . S
C947 N943 1.334 . S
C947 C945 1.394 . S
C948 C944 1.413 . S
C948 C946 1.391 . S
C948 C963 1.437 . S
H949 C946 0.929 . S
O950 Gd906 2.545 . S
O950 C965 1.258 . S
O951 Gd906 2.606 . S
O951 Gd907 2.362 . S
O951 C962 1.284 . S
O952 Gd907 2.324 . S
O952 C972 1.254 . S
O953 Gd906 2.429 . S
O953 C972 1.268 . S
O954 Gd906 2.545 . S
O954 C962 1.250 . S
O955 Gd906 2.412 . S
O955 C965 1.252 . S
O956 Gd907 2.545 . S
O956 C974 1.258 . S
O957 Gd906 2.362 . S
O957 Gd907 2.606 . S
O957 C973 1.284 . S
O958 Gd906 2.324 . S
O958 C981 1.254 . S
O959 Gd907 2.429 . S
O959 C981 1.268 . S
O960 Gd907 2.545 . S
O960 C973 1.250 . S
O961 Gd907 2.412 . S
O961 C974 1.252 . S
C962 O951 1.284 . S
C962 O954 1.250 . S
C963 H932 0.929 . S
C963 C948 1.437 . S
C963 C964 1.317 . S
C964 H935 0.930 . S
C964 C940 1.431 . S
C964 C963 1.317 . S
C965 Gd906 2.828 . S
C965 O950 1.258 . S
C965 O955 1.252 . S
C965 C966 1.497 . S
C966 C965 1.497 . S
C966 C967 1.395 . S
C966 C968 1.380 . S
C967 C966 1.395 . S
C967 C970 1.398 . S
C967 H982 0.930 . S
C968 C966 1.380 . S
C968 C969 1.391 . S
C968 H983 0.930 . S
C969 C968 1.391 . S
C969 C971 1.387 . S
C970 C967 1.398 . S
C970 C971 1.380 . S
C970 H984 0.930 . S
C971 C969 1.387 . S
C971 C970 1.380 . S
C971 H985 0.930 . S
C972 O952 1.254 . S
C972 O953 1.268 . S
C973 O957 1.284 . S
C973 O960 1.250 . S
C974 Gd907 2.828 . S
C974 O956 1.258 . S
C974 O961 1.252 . S
C974 C975 1.497 . S
C975 C974 1.497 . S
C975 C976 1.395 . S
C975 C977 1.380 . S
C976 C975 1.395 . S
C976 C979 1.398 . S
C976 H986 0.930 . S
C977 C975 1.380 . S
C977 C978 1.391 . S
C977 H987 0.930 . S
C978 C977 1.391 . S
C978 C980 1.387 . S
C979 C976 1.398 . S
C979 C980 1.380 . S
C979 H988 0.930 . S
C980 C978 1.387 . S
C980 C979 1.380 . S
C980 H989 0.930 . S
C981 O958 1.254 . S
C981 O959 1.268 . S
H982 C967 0.930 . S
H983 C968 0.930 . S
H984 C970 0.930 . S
H985 C971 0.930 . S
H986 C976 0.930 . S
H987 C977 0.930 . S
H988 C979 0.930 . S
H989 C980 0.930 . S
H990 C996 0.930 . S
H991 C1000 0.930 . S
H992 C1005 0.929 . S
H993 C1003 0.929 . S
H994 C998 0.929 . S
H995 C1004 0.929 . S
C996 H990 0.930 . S
C996 C997 1.367 . S
C996 C1004 1.378 . S
C997 C996 1.367 . S
C997 C1005 1.433 . S
C998 H994 0.929 . S
C998 C1000 1.378 . S
C998 C1002 1.350 . S
C999 C1002 1.463 . S
C999 C1004 1.350 . S
C999 N1007 1.427 . S
C1000 H991 0.930 . S
C1000 C998 1.378 . S
C1000 C1001 1.367 . S
C1001 C1000 1.367 . S
C1001 C1003 1.433 . S
C1002 C998 1.350 . S
C1002 C999 1.463 . S
C1002 N1006 1.427 . S
C1003 H993 0.929 . S
C1003 C1001 1.433 . S
C1003 N1006 1.384 . S
C1004 H995 0.929 . S
C1004 C996 1.378 . S
C1004 C999 1.350 . S
C1005 H992 0.929 . S
C1005 C997 1.433 . S
C1005 N1007 1.384 . S
N1006 C1002 1.427 . S
N1006 C1003 1.384 . S
N1007 C999 1.427 . S
N1007 C1005 1.384 . S
H1008 C1014 0.930 . S
H1009 C1018 0.930 . S
H1010 C1023 0.929 . S
H1011 C1021 0.975 . S
H1012 C1016 0.929 . S
H1013 C1022 0.929 . S
C1014 H1008 0.930 . S
C1014 C1015 1.367 . S
C1014 C1022 1.378 . S
C1015 C1014 1.367 . S
C1015 C1023 1.433 . S
C1016 H1012 0.929 . S
C1016 C1018 1.378 . S
C1016 C1020 1.350 . S
C1017 C1020 1.463 . S
C1017 C1022 1.350 . S
C1017 N1025 1.427 . S
C1018 H1009 0.930 . S
C1018 C1016 1.378 . S
C1018 C1019 1.367 . S
C1019 C1018 1.367 . S
C1019 C1021 1.433 . S
C1020 C1016 1.350 . S
C1020 C1017 1.463 . S
C1020 N1024 1.427 . S
C1021 H1011 0.975 . S
C1021 C1019 1.433 . S
C1021 N1024 1.384 . S
C1022 H1013 0.929 . S
C1022 C1014 1.378 . S
C1022 C1017 1.350 . S
C1023 H1010 0.929 . S
C1023 C1015 1.433 . S
C1023 N1025 1.384 . S
N1024 C1020 1.427 . S
N1024 C1021 1.384 . S
N1025 C1017 1.427 . S
N1025 C1023 1.384 . S
H1026 C1032 0.930 . S
H1027 C1036 0.930 . S
H1028 C1041 0.929 . S
H1029 C1039 0.929 . S
H1030 C1034 0.929 . S
H1031 C1040 0.929 . S
C1032 H1026 0.930 . S
C1032 C1033 1.367 . S
C1032 C1040 1.378 . S
C1033 C1032 1.367 . S
C1033 C1041 1.433 . S
C1034 H1030 0.929 . S
C1034 C1036 1.378 . S
C1034 C1038 1.350 . S
C1035 C1038 1.463 . S
C1035 C1040 1.350 . S
C1035 N1043 1.427 . S
C1036 H1027 0.930 . S
C1036 C1034 1.378 . S
C1036 C1037 1.367 . S
C1037 C1036 1.367 . S
C1037 C1039 1.433 . S
C1038 C1034 1.350 . S
C1038 C1035 1.463 . S
C1038 N1042 1.427 . S
C1039 H1029 0.929 . S
C1039 C1037 1.433 . S
C1039 N1042 1.384 . S
C1040 H1031 0.929 . S
C1040 C1032 1.378 . S
C1040 C1035 1.350 . S
C1041 H1028 0.929 . S
C1041 C1033 1.433 . S
C1041 N1043 1.384 . S
N1042 C1038 1.427 . S
N1042 C1039 1.384 . S
N1043 C1035 1.427 . S
N1043 C1041 1.384 . S
H1044 C1050 0.930 . S
H1045 C1054 0.923 1_554 S
H1046 C1059 0.929 . S
H1047 C1057 0.929 . S
H1048 C1052 0.929 . S
H1049 C1058 0.929 . S
C1050 H1044 0.930 . S
C1050 C1051 1.367 . S
C1050 C1058 1.378 . S
C1051 C1050 1.367 . S
C1051 C1059 1.433 . S
C1052 H1048 0.929 . S
C1052 C1054 1.378 . S
C1052 C1056 1.350 . S
C1053 C1056 1.463 . S
C1053 C1058 1.350 . S
C1053 N1061 1.427 . S
C1054 H1045 0.923 1_556 S
C1054 C1052 1.378 . S
C1054 C1055 1.367 . S
C1055 C1054 1.367 . S
C1055 C1057 1.433 . S
C1056 C1052 1.350 . S
C1056 C1053 1.463 . S
C1056 N1060 1.427 . S
C1057 H1047 0.929 . S
C1057 C1055 1.433 . S
C1057 N1060 1.384 . S
C1058 H1049 0.929 . S
C1058 C1050 1.378 . S
C1058 C1053 1.350 . S
C1059 H1046 0.929 . S
C1059 C1051 1.433 . S
C1059 N1061 1.384 . S
N1060 C1056 1.427 . S
N1060 C1057 1.384 . S
N1061 C1053 1.427 . S
N1061 C1059 1.384 . S
H1062 C1068 0.930 . S
H1063 C1072 0.930 . S
H1064 C1077 0.929 . S
H1065 C1075 0.929 . S
H1066 C1070 0.930 . S
H1067 C1076 0.929 . S
C1068 H1062 0.930 . S
C1068 C1069 1.367 . S
C1068 C1076 1.378 . S
C1069 C1068 1.367 . S
C1069 C1077 1.433 . S
C1070 H1066 0.930 . S
C1070 C1072 1.379 . S
C1070 C1074 1.347 1_554 S
C1071 C1074 1.463 . S
C1071 C1076 1.350 . S
C1071 N1079 1.427 . S
C1072 H1063 0.930 . S
C1072 C1070 1.379 . S
C1072 C1073 1.367 1_554 S
C1073 C1072 1.367 1_556 S
C1073 C1075 1.433 . S
C1074 C1070 1.347 1_556 S
C1074 C1071 1.463 . S
C1074 N1078 1.427 . S
C1075 H1065 0.929 . S
C1075 C1073 1.433 . S
C1075 N1078 1.384 . S
C1076 H1067 0.929 . S
C1076 C1068 1.378 . S
C1076 C1071 1.350 . S
C1077 H1064 0.929 . S
C1077 C1069 1.433 . S
C1077 N1079 1.384 . S
N1078 C1074 1.427 . S
N1078 C1075 1.384 . S
N1079 C1071 1.427 . S
N1079 C1077 1.384 . S
H1080 C1086 0.930 . S
H1081 C1090 0.930 . S
H1082 C1095 0.929 . S
H1083 C1093 0.929 . S
H1084 C1088 0.929 . S
H1085 C1094 0.929 . S
C1086 H1080 0.930 . S
C1086 C1087 1.367 . S
C1086 C1094 1.378 . S
C1087 C1086 1.367 . S
C1087 C1095 1.433 . S
C1088 H1084 0.929 . S
C1088 C1090 1.378 . S
C1088 C1092 1.350 1_554 S
C1089 C1092 1.463 . S
C1089 C1094 1.350 . S
C1089 N1097 1.427 . S
C1090 H1081 0.930 . S
C1090 C1088 1.378 . S
C1090 C1091 1.367 1_554 S
C1091 C1090 1.367 1_556 S
C1091 C1093 1.433 . S
C1092 C1088 1.350 1_556 S
C1092 C1089 1.463 . S
C1092 N1096 1.427 . S
C1093 H1083 0.929 . S
C1093 C1091 1.433 . S
C1093 N1096 1.384 . S
C1094 H1085 0.929 . S
C1094 C1086 1.378 . S
C1094 C1089 1.350 . S
C1095 H1082 0.929 . S
C1095 C1087 1.433 . S
C1095 N1097 1.384 . S
N1096 C1092 1.427 . S
N1096 C1093 1.384 . S
N1097 C1089 1.427 . S
N1097 C1095 1.384 . S
H1098 C1104 0.930 . S
H1099 C1108 0.930 . S
H1100 C1113 0.929 . S
H1101 C1111 0.929 . S
H1102 C1106 0.929 1_554 S
H1103 C1112 0.929 . S
C1104 H1098 0.930 . S
C1104 C1105 1.367 . S
C1104 C1112 1.378 . S
C1105 C1104 1.367 . S
C1105 C1113 1.433 . S
C1106 H1102 0.929 1_556 S
C1106 C1108 1.378 1_556 S
C1106 C1110 1.350 . S
C1107 C1110 1.463 . S
C1107 C1112 1.350 . S
C1107 N1115 1.427 . S
C1108 H1099 0.930 . S
C1108 C1106 1.378 1_554 S
C1108 C1109 1.367 1_554 S
C1109 C1108 1.367 1_556 S
C1109 C1111 1.433 . S
C1110 C1106 1.350 . S
C1110 C1107 1.463 . S
C1110 N1114 1.427 . S
C1111 H1101 0.929 . S
C1111 C1109 1.433 . S
C1111 N1114 1.384 . S
C1112 H1103 0.929 . S
C1112 C1104 1.378 . S
C1112 C1107 1.350 . S
C1113 H1100 0.929 . S
C1113 C1105 1.433 . S
C1113 N1115 1.384 . S
N1114 C1110 1.427 . S
N1114 C1111 1.384 . S
N1115 C1107 1.427 . S
N1115 C1113 1.384 . S
H1116 C1122 0.930 . S
H1117 C1126 0.930 . S
H1118 C1131 0.929 . S
H1119 C1129 0.929 . S
H1120 C1124 0.929 . S
H1121 C1130 0.929 1_554 S
C1122 H1116 0.930 . S
C1122 C1123 1.367 . S
C1122 C1130 1.378 . S
C1123 C1122 1.367 . S
C1123 C1131 1.433 . S
C1124 H1120 0.929 . S
C1124 C1126 1.378 . S
C1124 C1128 1.350 . S
C1125 C1128 1.463 . S
C1125 C1130 1.350 . S
C1125 N1133 1.427 . S
C1126 H1117 0.930 . S
C1126 C1124 1.378 . S
C1126 C1127 1.367 . S
C1127 C1126 1.367 . S
C1127 C1129 1.433 1_556 S
C1128 C1124 1.350 . S
C1128 C1125 1.463 . S
C1128 N1132 1.427 1_556 S
C1129 H1119 0.929 . S
C1129 C1127 1.433 1_554 S
C1129 N1132 1.384 . S
C1130 H1121 0.929 1_556 S
C1130 C1122 1.378 . S
C1130 C1125 1.350 . S
C1131 H1118 0.929 . S
C1131 C1123 1.433 . S
C1131 N1133 1.384 . S
N1132 C1128 1.427 1_554 S
N1132 C1129 1.384 . S
N1133 C1125 1.427 . S
N1133 C1131 1.384 . S
H1134 C1140 0.930 . S
H1135 C1144 0.930 . S
H1136 C1149 0.929 1_554 S
H1137 C1147 0.929 . S
H1138 C1142 0.929 . S
H1139 C1148 0.929 . S
C1140 H1134 0.930 . S
C1140 C1141 1.367 . S
C1140 C1148 1.378 . S
C1141 C1140 1.367 . S
C1141 C1149 1.433 . S
C1142 H1138 0.929 . S
C1142 C1144 1.378 . S
C1142 C1146 1.350 1_554 S
C1143 C1146 1.463 . S
C1143 C1148 1.350 . S
C1143 N1151 1.427 . S
C1144 H1135 0.930 . S
C1144 C1142 1.378 . S
C1144 C1145 1.367 1_554 S
C1145 C1144 1.367 1_556 S
C1145 C1147 1.433 . S
C1146 C1142 1.350 1_556 S
C1146 C1143 1.463 . S
C1146 N1150 1.427 . S
C1147 H1137 0.929 . S
C1147 C1145 1.433 . S
C1147 N1150 1.384 . S
C1148 H1139 0.929 . S
C1148 C1140 1.378 . S
C1148 C1143 1.350 . S
C1149 H1136 0.929 1_556 S
C1149 C1141 1.433 . S
C1149 N1151 1.384 . S
N1150 C1146 1.427 . S
N1150 C1147 1.384 . S
N1151 C1143 1.427 . S
N1151 C1149 1.384 . S
H1152 C1158 0.930 . S
H1153 C1162 0.930 . S
H1154 C1167 0.929 . S
H1155 C1165 0.929 . S
H1156 C1160 0.929 . S
H1157 C1166 0.929 . S
C1158 H1152 0.930 . S
C1158 C1159 1.367 . S
C1158 C1166 1.378 . S
C1159 C1158 1.367 . S
C1159 C1167 1.433 . S
C1160 H1156 0.929 . S
C1160 C1162 1.378 . S
C1160 C1164 1.350 . S
C1161 C1164 1.463 . S
C1161 C1166 1.350 . S
C1161 N1169 1.427 . S
C1162 H1153 0.930 . S
C1162 C1160 1.378 . S
C1162 C1163 1.367 . S
C1163 C1162 1.367 . S
C1163 C1165 1.433 . S
C1164 C1160 1.350 . S
C1164 C1161 1.463 . S
C1164 N1168 1.427 . S
C1165 H1155 0.929 . S
C1165 C1163 1.433 . S
C1165 N1168 1.384 . S
C1166 H1157 0.929 . S
C1166 C1158 1.378 . S
C1166 C1161 1.350 . S
C1167 H1154 0.929 . S
C1167 C1159 1.433 . S
C1167 N1169 1.384 . S
N1168 C1164 1.427 . S
N1168 C1165 1.384 . S
N1169 C1161 1.427 . S
N1169 C1167 1.384 . S
H1170 C1176 0.930 . S
H1171 C1180 0.930 . S
H1172 C1185 0.929 . S
H1173 C1183 0.929 . S
H1174 C1178 0.929 . S
H1175 C1184 0.929 . S
C1176 H1170 0.930 . S
C1176 C1177 1.367 . S
C1176 C1184 1.378 . S
C1177 C1176 1.367 . S
C1177 C1185 1.433 . S
C1178 H1174 0.929 . S
C1178 C1180 1.378 . S
C1178 C1182 1.350 . S
C1179 C1182 1.463 . S
C1179 C1184 1.350 . S
C1179 N1187 1.427 . S
C1180 H1171 0.930 . S
C1180 C1178 1.378 . S
C1180 C1181 1.367 . S
C1181 C1180 1.367 . S
C1181 C1183 1.433 . S
C1182 C1178 1.350 . S
C1182 C1179 1.463 . S
C1182 N1186 1.427 . S
C1183 H1173 0.929 . S
C1183 C1181 1.433 . S
C1183 N1186 1.384 . S
C1184 H1175 0.929 . S
C1184 C1176 1.378 . S
C1184 C1179 1.350 . S
C1185 H1172 0.929 . S
C1185 C1177 1.433 . S
C1185 N1187 1.384 . S
N1186 C1182 1.427 . S
N1186 C1183 1.384 . S
N1187 C1179 1.427 . S
N1187 C1185 1.384 . S
H1188 C1194 0.930 . S
H1189 C1198 0.931 . S
H1190 C1203 0.929 . S
H1191 C1201 0.929 . S
H1192 C1196 0.929 . S
H1193 C1202 0.929 . S
C1194 H1188 0.930 . S
C1194 C1195 1.367 . S
C1194 C1202 1.378 . S
C1195 C1194 1.367 . S
C1195 C1203 1.433 . S
C1196 H1192 0.929 . S
C1196 C1198 1.378 . S
C1196 C1200 1.350 . S
C1197 C1200 1.463 . S
C1197 C1202 1.350 . S
C1197 N1205 1.427 . S
C1198 H1189 0.931 . S
C1198 C1196 1.378 . S
C1198 C1199 1.367 . S
C1199 C1198 1.367 . S
C1199 C1201 1.433 . S
C1200 C1196 1.350 . S
C1200 C1197 1.463 . S
C1200 N1204 1.427 . S
C1201 H1191 0.929 . S
C1201 C1199 1.433 . S
C1201 N1204 1.384 . S
C1202 H1193 0.929 . S
C1202 C1194 1.378 . S
C1202 C1197 1.350 . S
C1203 H1190 0.929 . S
C1203 C1195 1.433 . S
C1203 N1205 1.384 . S
N1204 C1200 1.427 . S
N1204 C1201 1.384 . S
N1205 C1197 1.427 . S
N1205 C1203 1.384 . S
H1206 C1212 0.930 . S
H1207 C1216 0.930 . S
H1208 C1221 0.929 . S
H1209 C1219 0.929 . S
H1210 C1214 0.929 . S
H1211 C1220 0.929 . S
C1212 H1206 0.930 . S
C1212 C1213 1.367 . S
C1212 C1220 1.378 . S
C1213 C1212 1.367 . S
C1213 C1221 1.433 . S
C1214 H1210 0.929 . S
C1214 C1216 1.378 . S
C1214 C1218 1.350 . S
C1215 C1218 1.463 1_655 S
C1215 C1220 1.350 . S
C1215 N1223 1.427 . S
C1216 H1207 0.930 . S
C1216 C1214 1.378 . S
C1216 C1217 1.367 . S
C1217 C1216 1.367 . S
C1217 C1219 1.433 . S
C1218 C1214 1.350 . S
C1218 C1215 1.463 1_455 S
C1218 N1222 1.427 . S
C1219 H1209 0.929 . S
C1219 C1217 1.433 . S
C1219 N1222 1.384 . S
C1220 H1211 0.929 . S
C1220 C1212 1.378 . S
C1220 C1215 1.350 . S
C1221 H1208 0.929 . S
C1221 C1213 1.433 . S
C1221 N1223 1.384 . S
N1222 C1218 1.427 . S
N1222 C1219 1.384 . S
N1223 C1215 1.427 . S
N1223 C1221 1.384 . S
H1224 C1230 0.930 . S
H1225 C1234 0.930 . S
H1226 C1239 0.929 . S
H1227 C1237 0.929 . S
H1228 C1232 0.929 . S
H1229 C1238 0.929 . S
C1230 H1224 0.930 . S
C1230 C1231 1.367 . S
C1230 C1238 1.378 . S
C1231 C1230 1.367 . S
C1231 C1239 1.433 . S
C1232 H1228 0.929 . S
C1232 C1234 1.378 . S
C1232 C1236 1.350 . S
C1233 C1236 1.463 . S
C1233 C1238 1.350 . S
C1233 N1241 1.427 . S
C1234 H1225 0.930 . S
C1234 C1232 1.378 . S
C1234 C1235 1.367 . S
C1235 C1234 1.367 . S
C1235 C1237 1.433 . S
C1236 C1232 1.350 . S
C1236 C1233 1.463 . S
C1236 N1240 1.427 . S
C1237 H1227 0.929 . S
C1237 C1235 1.433 . S
C1237 N1240 1.384 . S
C1238 H1229 0.929 . S
C1238 C1230 1.378 . S
C1238 C1233 1.350 . S
C1239 H1226 0.929 . S
C1239 C1231 1.433 . S
C1239 N1241 1.384 . S
N1240 C1236 1.427 . S
N1240 C1237 1.384 . S
N1241 C1233 1.427 . S
N1241 C1239 1.384 . S
H1242 C1248 0.930 . S
H1243 C1252 0.930 . S
H1244 C1257 0.929 . S
H1245 C1255 0.929 . S
H1246 C1250 0.929 . S
H1247 C1256 0.929 . S
C1248 H1242 0.930 . S
C1248 C1249 1.367 . S
C1248 C1256 1.378 . S
C1249 C1248 1.367 . S
C1249 C1257 1.433 . S
C1250 H1246 0.929 . S
C1250 C1252 1.378 . S
C1250 C1254 1.350 . S
C1251 C1254 1.463 1_545 S
C1251 C1256 1.350 . S
C1251 N1259 1.427 . S
C1252 H1243 0.930 . S
C1252 C1250 1.378 . S
C1252 C1253 1.367 . S
C1253 C1252 1.367 . S
C1253 C1255 1.433 . S
C1254 C1250 1.350 . S
C1254 C1251 1.463 1_565 S
C1254 N1258 1.427 . S
C1255 H1245 0.929 . S
C1255 C1253 1.433 . S
C1255 N1258 1.384 . S
C1256 H1247 0.929 . S
C1256 C1248 1.378 . S
C1256 C1251 1.350 . S
C1257 H1244 0.929 . S
C1257 C1249 1.433 . S
C1257 N1259 1.384 . S
N1258 C1254 1.427 . S
N1258 C1255 1.384 . S
N1259 C1251 1.427 . S
N1259 C1257 1.384 . S
H1260 C1266 0.930 . S
H1261 C1270 0.930 . S
H1262 C1275 0.929 . S
H1263 C1273 0.929 . S
H1264 C1268 0.929 . S
H1265 C1274 0.929 . S
C1266 H1260 0.930 . S
C1266 C1267 1.367 . S
C1266 C1274 1.378 . S
C1267 C1266 1.367 . S
C1267 C1275 1.433 . S
C1268 H1264 0.929 . S
C1268 C1270 1.378 . S
C1268 C1272 1.350 . S
C1269 C1272 1.463 . S
C1269 C1274 1.350 . S
C1269 N1277 1.427 . S
C1270 H1261 0.930 . S
C1270 C1268 1.378 . S
C1270 C1271 1.367 . S
C1271 C1270 1.367 . S
C1271 C1273 1.433 . S
C1272 C1268 1.350 . S
C1272 C1269 1.463 . S
C1272 N1276 1.427 . S
C1273 H1263 0.929 . S
C1273 C1271 1.433 . S
C1273 N1276 1.384 . S
C1274 H1265 0.929 . S
C1274 C1266 1.378 . S
C1274 C1269 1.350 . S
C1275 H1262 0.929 . S
C1275 C1267 1.433 . S
C1275 N1277 1.384 . S
N1276 C1272 1.427 . S
N1276 C1273 1.384 . S
N1277 C1269 1.427 . S
N1277 C1275 1.384 . S
H1278 C1284 0.930 . S
H1279 C1288 0.930 . S
H1280 C1293 0.929 . S
H1281 C1291 0.929 . S
H1282 C1286 0.929 . S
H1283 C1292 0.929 . S
C1284 H1278 0.930 . S
C1284 C1285 1.367 . S
C1284 C1292 1.378 . S
C1285 C1284 1.367 . S
C1285 C1293 1.433 . S
C1286 H1282 0.929 . S
C1286 C1288 1.378 . S
C1286 C1290 1.350 . S
C1287 C1290 1.463 . S
C1287 C1292 1.350 . S
C1287 N1295 1.427 . S
C1288 H1279 0.930 . S
C1288 C1286 1.378 . S
C1288 C1289 1.367 . S
C1289 C1288 1.367 . S
C1289 C1291 1.433 . S
C1290 C1286 1.350 . S
C1290 C1287 1.463 . S
C1290 N1294 1.427 . S
C1291 H1281 0.929 . S
C1291 C1289 1.433 . S
C1291 N1294 1.384 . S
C1292 H1283 0.929 . S
C1292 C1284 1.378 . S
C1292 C1287 1.350 . S
C1293 H1280 0.929 . S
C1293 C1285 1.433 . S
C1293 N1295 1.384 . S
N1294 C1290 1.427 . S
N1294 C1291 1.384 . S
N1295 C1287 1.427 . S
N1295 C1293 1.384 . S
H1296 C1302 0.930 . S
H1297 C1306 0.930 . S
H1298 C1311 0.929 . S
H1299 C1309 0.929 . S
H1300 C1304 0.929 . S
H1301 C1310 0.929 . S
C1302 H1296 0.930 . S
C1302 C1303 1.367 . S
C1302 C1310 1.378 . S
C1303 C1302 1.367 . S
C1303 C1311 1.433 . S
C1304 H1300 0.929 . S
C1304 C1306 1.378 . S
C1304 C1308 1.350 . S
C1305 C1308 1.463 . S
C1305 C1310 1.350 . S
C1305 N1313 1.427 . S
C1306 H1297 0.930 . S
C1306 C1304 1.378 . S
C1306 C1307 1.367 . S
C1307 C1306 1.367 . S
C1307 C1309 1.433 . S
C1308 C1304 1.350 . S
C1308 C1305 1.463 . S
C1308 N1312 1.427 . S
C1309 H1299 0.929 . S
C1309 C1307 1.433 . S
C1309 N1312 1.384 . S
C1310 H1301 0.929 . S
C1310 C1302 1.378 . S
C1310 C1305 1.350 . S
C1311 H1298 0.929 . S
C1311 C1303 1.433 . S
C1311 N1313 1.384 . S
N1312 C1308 1.427 . S
N1312 C1309 1.384 . S
N1313 C1305 1.427 . S
N1313 C1311 1.384 . S
H1314 C1320 0.930 . S
H1315 C1324 0.930 . S
H1316 C1329 0.929 . S
H1317 C1327 0.929 . S
H1318 C1322 0.929 . S
H1319 C1328 0.929 . S
C1320 H1314 0.930 . S
C1320 C1321 1.367 . S
C1320 C1328 1.378 . S
C1321 C1320 1.367 . S
C1321 C1329 1.433 . S
C1322 H1318 0.929 . S
C1322 C1324 1.378 . S
C1322 C1326 1.350 . S
C1323 C1326 1.463 . S
C1323 C1328 1.350 . S
C1323 N1331 1.427 . S
C1324 H1315 0.930 . S
C1324 C1322 1.378 . S
C1324 C1325 1.367 . S
C1325 C1324 1.367 . S
C1325 C1327 1.433 . S
C1326 C1322 1.350 . S
C1326 C1323 1.463 . S
C1326 N1330 1.427 . S
C1327 H1317 0.929 . S
C1327 C1325 1.433 . S
C1327 N1330 1.384 . S
C1328 H1319 0.929 . S
C1328 C1320 1.378 . S
C1328 C1323 1.350 . S
C1329 H1316 0.929 . S
C1329 C1321 1.433 . S
C1329 N1331 1.384 . S
N1330 C1326 1.427 . S
N1330 C1327 1.384 . S
N1331 C1323 1.427 . S
N1331 C1329 1.384 . S
H1332 C1338 0.930 . S
H1333 C1342 0.930 . S
H1334 C1347 0.929 . S
H1335 C1345 0.929 . S
H1336 C1340 0.929 . S
H1337 C1346 0.929 . S
C1338 H1332 0.930 . S
C1338 C1339 1.367 . S
C1338 C1346 1.378 . S
C1339 C1338 1.367 . S
C1339 C1347 1.433 . S
C1340 H1336 0.929 . S
C1340 C1342 1.378 . S
C1340 C1344 1.350 . S
C1341 C1344 1.463 . S
C1341 C1346 1.350 . S
C1341 N1349 1.427 . S
C1342 H1333 0.930 . S
C1342 C1340 1.378 . S
C1342 C1343 1.367 . S
C1343 C1342 1.367 . S
C1343 C1345 1.433 . S
C1344 C1340 1.350 . S
C1344 C1341 1.463 . S
C1344 N1348 1.427 . S
C1345 H1335 0.929 . S
C1345 C1343 1.433 . S
C1345 N1348 1.384 . S
C1346 H1337 0.929 . S
C1346 C1338 1.378 . S
C1346 C1341 1.350 . S
C1347 H1334 0.929 . S
C1347 C1339 1.433 . S
C1347 N1349 1.384 . S
N1348 C1344 1.427 . S
N1348 C1345 1.384 . S
N1349 C1341 1.427 . S
N1349 C1347 1.384 . S
H1350 C1356 0.930 . S
H1351 C1360 0.930 . S
H1352 C1365 0.929 . S
H1353 C1363 0.929 . S
H1354 C1358 0.929 . S
H1355 C1364 0.929 . S
C1356 H1350 0.930 . S
C1356 C1357 1.367 . S
C1356 C1364 1.378 . S
C1357 C1356 1.367 . S
C1357 C1365 1.433 . S
C1358 H1354 0.929 . S
C1358 C1360 1.378 . S
C1358 C1362 1.350 . S
C1359 C1362 1.463 . S
C1359 C1364 1.350 . S
C1359 N1367 1.427 . S
C1360 H1351 0.930 . S
C1360 C1358 1.378 . S
C1360 C1361 1.367 . S
C1361 C1360 1.367 . S
C1361 C1363 1.433 . S
C1362 C1358 1.350 . S
C1362 C1359 1.463 . S
C1362 N1366 1.427 . S
C1363 H1353 0.929 . S
C1363 C1361 1.433 . S
C1363 N1366 1.384 . S
C1364 H1355 0.929 . S
C1364 C1356 1.378 . S
C1364 C1359 1.350 . S
C1365 H1352 0.929 . S
C1365 C1357 1.433 . S
C1365 N1367 1.384 . S
N1366 C1362 1.427 . S
N1366 C1363 1.384 . S
N1367 C1359 1.427 . S
N1367 C1365 1.384 . S
H1368 C1374 0.930 . S
H1369 C1378 0.930 . S
H1370 C1383 0.929 . S
H1371 C1381 0.929 . S
H1372 C1376 0.929 . S
H1373 C1382 0.929 . S
C1374 H1368 0.930 . S
C1374 C1375 1.367 . S
C1374 C1382 1.378 1_545 S
C1375 C1374 1.367 . S
C1375 C1383 1.433 . S
C1376 H1372 0.929 . S
C1376 C1378 1.378 . S
C1376 C1380 1.350 . S
C1377 C1380 1.463 . S
C1377 C1382 1.350 . S
C1377 N1385 1.427 . S
C1378 H1369 0.930 . S
C1378 C1376 1.378 . S
C1378 C1379 1.367 . S
C1379 C1378 1.367 . S
C1379 C1381 1.433 . S
C1380 C1376 1.350 . S
C1380 C1377 1.463 . S
C1380 N1384 1.427 . S
C1381 H1371 0.929 . S
C1381 C1379 1.433 . S
C1381 N1384 1.384 . S
C1382 H1373 0.929 . S
C1382 C1374 1.378 1_565 S
C1382 C1377 1.350 . S
C1383 H1370 0.929 . S
C1383 C1375 1.433 . S
C1383 N1385 1.384 1_545 S
N1384 C1380 1.427 . S
N1384 C1381 1.384 . S
N1385 C1377 1.427 . S
N1385 C1383 1.384 1_565 S
H1386 C1392 0.930 . S
H1387 C1396 0.930 . S
H1388 C1401 0.935 . S
H1389 C1399 0.929 . S
H1390 C1394 0.929 . S
H1391 C1400 0.929 . S
C1392 H1386 0.930 . S
C1392 C1393 1.367 1_455 S
C1392 C1400 1.378 . S
C1393 C1392 1.367 1_655 S
C1393 C1401 1.436 . S
C1394 H1390 0.929 . S
C1394 C1396 1.378 . S
C1394 C1398 1.350 . S
C1395 C1398 1.463 . S
C1395 C1400 1.350 . S
C1395 N1403 1.427 . S
C1396 H1387 0.930 . S
C1396 C1394 1.378 . S
C1396 C1397 1.367 . S
C1397 C1396 1.367 . S
C1397 C1399 1.433 . S
C1398 C1394 1.350 . S
C1398 C1395 1.463 . S
C1398 N1402 1.427 . S
C1399 H1389 0.929 . S
C1399 C1397 1.433 . S
C1399 N1402 1.384 . S
C1400 H1391 0.929 . S
C1400 C1392 1.378 . S
C1400 C1395 1.350 . S
C1401 H1388 0.935 . S
C1401 C1393 1.436 . S
C1401 N1403 1.374 1_655 S
N1402 C1398 1.427 . S
N1402 C1399 1.384 . S
N1403 C1395 1.427 . S
N1403 C1401 1.374 1_455 S
H1404 C1410 0.930 . S
H1405 C1414 0.930 . S
H1406 C1419 0.929 . S
H1407 C1417 0.929 . S
H1408 C1412 0.929 . S
H1409 C1418 0.929 . S
C1410 H1404 0.930 . S
C1410 C1411 1.367 . S
C1410 C1418 1.378 . S
C1411 C1410 1.367 . S
C1411 C1419 1.433 . S
C1412 H1408 0.929 . S
C1412 C1414 1.378 . S
C1412 C1416 1.350 . S
C1413 C1416 1.463 . S
C1413 C1418 1.350 . S
C1413 N1421 1.427 . S
C1414 H1405 0.930 . S
C1414 C1412 1.378 . S
C1414 C1415 1.367 . S
C1415 C1414 1.367 . S
C1415 C1417 1.433 . S
C1416 C1412 1.350 . S
C1416 C1413 1.463 . S
C1416 N1420 1.427 . S
C1417 H1407 0.929 . S
C1417 C1415 1.433 . S
C1417 N1420 1.384 . S
C1418 H1409 0.929 . S
C1418 C1410 1.378 . S
C1418 C1413 1.350 . S
C1419 H1406 0.929 . S
C1419 C1411 1.433 . S
C1419 N1421 1.384 . S
N1420 C1416 1.427 . S
N1420 C1417 1.384 . S
N1421 C1413 1.427 . S
N1421 C1419 1.384 . S
H1422 C1428 0.930 . S
H1423 C1432 0.930 . S
H1424 C1437 0.929 . S
H1425 C1435 0.929 . S
H1426 C1430 0.929 . S
H1427 C1436 0.929 . S
C1428 H1422 0.930 . S
C1428 C1429 1.367 . S
C1428 C1436 1.378 . S
C1429 C1428 1.367 . S
C1429 C1437 1.433 . S
C1430 H1426 0.929 . S
C1430 C1432 1.378 . S
C1430 C1434 1.350 . S
C1431 C1434 1.463 . S
C1431 C1436 1.350 . S
C1431 N1439 1.427 . S
C1432 H1423 0.930 . S
C1432 C1430 1.378 . S
C1432 C1433 1.367 . S
C1433 C1432 1.367 . S
C1433 C1435 1.433 . S
C1434 C1430 1.350 . S
C1434 C1431 1.463 . S
C1434 N1438 1.427 . S
C1435 H1425 0.929 . S
C1435 C1433 1.433 . S
C1435 N1438 1.384 . S
C1436 H1427 0.929 . S
C1436 C1428 1.378 . S
C1436 C1431 1.350 . S
C1437 H1424 0.929 . S
C1437 C1429 1.433 . S
C1437 N1439 1.384 . S
N1438 C1434 1.427 . S
N1438 C1435 1.384 . S
N1439 C1431 1.427 . S
N1439 C1437 1.384 . S
H1440 C1446 0.930 . S
H1441 C1450 0.930 . S
H1442 C1455 0.929 . S
H1443 C1453 0.929 . S
H1444 C1448 0.929 . S
H1445 C1454 0.929 . S
C1446 H1440 0.930 . S
C1446 C1447 1.367 . S
C1446 C1454 1.378 . S
C1447 C1446 1.367 . S
C1447 C1455 1.433 . S
C1448 H1444 0.929 . S
C1448 C1450 1.378 . S
C1448 C1452 1.350 . S
C1449 C1452 1.463 . S
C1449 C1454 1.350 . S
C1449 N1457 1.427 . S
C1450 H1441 0.930 . S
C1450 C1448 1.378 . S
C1450 C1451 1.367 . S
C1451 C1450 1.367 . S
C1451 C1453 1.433 . S
C1452 C1448 1.350 . S
C1452 C1449 1.463 . S
C1452 N1456 1.427 . S
C1453 H1443 0.929 . S
C1453 C1451 1.433 . S
C1453 N1456 1.384 . S
C1454 H1445 0.929 . S
C1454 C1446 1.378 . S
C1454 C1449 1.350 . S
C1455 H1442 0.929 . S
C1455 C1447 1.433 . S
C1455 N1457 1.384 . S
N1456 C1452 1.427 . S
N1456 C1453 1.384 . S
N1457 C1449 1.427 . S
N1457 C1455 1.384 . S
H1458 C1464 0.930 . S
H1459 C1468 0.930 . S
H1460 C1473 0.929 . S
H1461 C1471 0.929 . S
H1462 C1466 0.929 . S
H1463 C1472 0.929 . S
C1464 H1458 0.930 . S
C1464 C1465 1.367 . S
C1464 C1472 1.378 . S
C1465 C1464 1.367 . S
C1465 C1473 1.433 . S
C1466 H1462 0.929 . S
C1466 C1468 1.378 . S
C1466 C1470 1.350 . S
C1467 C1470 1.463 . S
C1467 C1472 1.350 . S
C1467 N1475 1.427 . S
C1468 H1459 0.930 . S
C1468 C1466 1.378 . S
C1468 C1469 1.367 . S
C1469 C1468 1.367 . S
C1469 C1471 1.433 . S
C1470 C1466 1.350 . S
C1470 C1467 1.463 . S
C1470 N1474 1.427 . S
C1471 H1461 0.929 . S
C1471 C1469 1.433 . S
C1471 N1474 1.384 . S
C1472 H1463 0.929 . S
C1472 C1464 1.378 . S
C1472 C1467 1.350 . S
C1473 H1460 0.929 . S
C1473 C1465 1.433 . S
C1473 N1475 1.384 . S
N1474 C1470 1.427 . S
N1474 C1471 1.384 . S
N1475 C1467 1.427 . S
N1475 C1473 1.384 . S
H1476 C1482 0.930 . S
H1477 C1486 0.930 . S
H1478 C1491 0.929 . S
H1479 C1489 0.929 . S
H1480 C1484 0.929 1_565 S
H1481 C1490 0.929 1_545 S
C1482 H1476 0.930 . S
C1482 C1483 1.367 . S
C1482 C1490 1.378 . S
C1483 C1482 1.367 . S
C1483 C1491 1.433 . S
C1484 H1480 0.929 1_545 S
C1484 C1486 1.378 . S
C1484 C1488 1.350 . S
C1485 C1488 1.463 1_565 S
C1485 C1490 1.350 . S
C1485 N1493 1.427 . S
C1486 H1477 0.930 . S
C1486 C1484 1.378 . S
C1486 C1487 1.367 . S
C1487 C1486 1.367 . S
C1487 C1489 1.433 . S
C1488 C1484 1.350 . S
C1488 C1485 1.463 1_545 S
C1488 N1492 1.427 . S
C1489 H1479 0.929 . S
C1489 C1487 1.433 . S
C1489 N1492 1.384 . S
C1490 H1481 0.929 1_565 S
C1490 C1482 1.378 . S
C1490 C1485 1.350 . S
C1491 H1478 0.929 . S
C1491 C1483 1.433 . S
C1491 N1493 1.384 . S
N1492 C1488 1.427 . S
N1492 C1489 1.384 . S
N1493 C1485 1.427 . S
N1493 C1491 1.384 . S
H1494 C1500 0.930 . S
H1495 C1504 0.930 . S
H1496 C1509 0.929 . S
H1497 C1507 0.929 . S
H1498 C1502 0.929 1_455 S
H1499 C1508 0.929 1_655 S
C1500 H1494 0.930 . S
C1500 C1501 1.367 . S
C1500 C1508 1.378 . S
C1501 C1500 1.367 . S
C1501 C1509 1.433 . S
C1502 H1498 0.929 1_655 S
C1502 C1504 1.378 . S
C1502 C1506 1.350 . S
C1503 C1506 1.463 1_455 S
C1503 C1508 1.350 . S
C1503 N1511 1.427 . S
C1504 H1495 0.930 . S
C1504 C1502 1.378 . S
C1504 C1505 1.367 . S
C1505 C1504 1.367 . S
C1505 C1507 1.433 . S
C1506 C1502 1.350 . S
C1506 C1503 1.463 1_655 S
C1506 N1510 1.427 . S
C1507 H1497 0.929 . S
C1507 C1505 1.433 . S
C1507 N1510 1.384 . S
C1508 H1499 0.929 1_455 S
C1508 C1500 1.378 . S
C1508 C1503 1.350 . S
C1509 H1496 0.929 . S
C1509 C1501 1.433 . S
C1509 N1511 1.384 . S
N1510 C1506 1.427 . S
N1510 C1507 1.384 . S
N1511 C1503 1.427 . S
N1511 C1509 1.384 . S
H1512 C1518 0.930 . S
H1513 C1522 0.930 . S
H1514 C1527 0.929 . S
H1515 C1525 0.929 . S
H1516 C1520 0.929 . S
H1517 C1526 0.929 . S
C1518 H1512 0.930 . S
C1518 C1519 1.367 . S
C1518 C1526 1.378 . S
C1519 C1518 1.367 . S
C1519 C1527 1.433 . S
C1520 H1516 0.929 . S
C1520 C1522 1.378 . S
C1520 C1524 1.350 . S
C1521 C1524 1.463 . S
C1521 C1526 1.350 . S
C1521 N1529 1.427 . S
C1522 H1513 0.930 . S
C1522 C1520 1.378 . S
C1522 C1523 1.367 . S
C1523 C1522 1.367 . S
C1523 C1525 1.433 . S
C1524 C1520 1.350 . S
C1524 C1521 1.463 . S
C1524 N1528 1.427 . S
C1525 H1515 0.929 . S
C1525 C1523 1.433 . S
C1525 N1528 1.384 . S
C1526 H1517 0.929 . S
C1526 C1518 1.378 . S
C1526 C1521 1.350 . S
C1527 H1514 0.929 . S
C1527 C1519 1.433 . S
C1527 N1529 1.384 . S
N1528 C1524 1.427 . S
N1528 C1525 1.384 . S
N1529 C1521 1.427 . S
N1529 C1527 1.384 . S
H1530 C1536 0.930 . S
H1531 C1540 0.930 . S
H1532 C1545 0.920 1_455 S
H1533 C1543 0.929 . S
H1534 C1538 0.929 . S
H1535 C1544 0.929 . S
C1536 H1530 0.930 . S
C1536 C1537 1.367 . S
C1536 C1544 1.378 1_455 S
C1537 C1536 1.367 . S
C1537 C1545 1.433 1_455 S
C1538 H1534 0.929 . S
C1538 C1540 1.378 . S
C1538 C1542 1.350 . S
C1539 C1542 1.463 . S
C1539 C1544 1.350 . S
C1539 N1547 1.427 . S
C1540 H1531 0.930 . S
C1540 C1538 1.378 . S
C1540 C1541 1.367 . S
C1541 C1540 1.367 . S
C1541 C1543 1.433 . S
C1542 C1538 1.350 . S
C1542 C1539 1.463 . S
C1542 N1546 1.427 . S
C1543 H1533 0.929 . S
C1543 C1541 1.433 . S
C1543 N1546 1.384 . S
C1544 H1535 0.929 . S
C1544 C1536 1.378 1_655 S
C1544 C1539 1.350 . S
C1545 H1532 0.920 1_655 S
C1545 C1537 1.433 1_655 S
C1545 N1547 1.384 . S
N1546 C1542 1.427 . S
N1546 C1543 1.384 . S
N1547 C1539 1.427 . S
N1547 C1545 1.384 . S
H1548 C1554 0.930 . S
H1549 C1558 0.930 . S
H1550 C1563 0.929 . S
H1551 C1561 0.929 . S
H1552 C1556 0.929 . S
H1553 C1562 0.929 . S
C1554 H1548 0.930 . S
C1554 C1555 1.367 . S
C1554 C1562 1.378 . S
C1555 C1554 1.367 . S
C1555 C1563 1.433 . S
C1556 H1552 0.929 . S
C1556 C1558 1.378 . S
C1556 C1560 1.350 . S
C1557 C1560 1.463 . S
C1557 C1562 1.350 . S
C1557 N1565 1.427 . S
C1558 H1549 0.930 . S
C1558 C1556 1.378 . S
C1558 C1559 1.367 . S
C1559 C1558 1.367 . S
C1559 C1561 1.433 . S
C1560 C1556 1.350 . S
C1560 C1557 1.463 . S
C1560 N1564 1.427 . S
C1561 H1551 0.929 . S
C1561 C1559 1.433 . S
C1561 N1564 1.384 . S
C1562 H1553 0.929 . S
C1562 C1554 1.378 . S
C1562 C1557 1.350 . S
C1563 H1550 0.929 . S
C1563 C1555 1.433 . S
C1563 N1565 1.384 . S
N1564 C1560 1.427 . S
N1564 C1561 1.384 . S
N1565 C1557 1.427 . S
N1565 C1563 1.384 . S
H1566 C1572 0.930 1_565 S
H1567 C1576 0.930 . S
H1568 C1581 0.929 . S
H1569 C1579 0.929 . S
H1570 C1574 0.929 . S
H1571 C1580 0.929 . S
C1572 H1566 0.930 1_545 S
C1572 C1573 1.367 1_545 S
C1572 C1580 1.378 . S
C1573 C1572 1.367 1_565 S
C1573 C1581 1.433 . S
C1574 H1570 0.929 . S
C1574 C1576 1.378 . S
C1574 C1578 1.350 . S
C1575 C1578 1.463 . S
C1575 C1580 1.350 . S
C1575 N1583 1.427 . S
C1576 H1567 0.930 . S
C1576 C1574 1.378 . S
C1576 C1577 1.367 . S
C1577 C1576 1.367 . S
C1577 C1579 1.433 . S
C1578 C1574 1.350 . S
C1578 C1575 1.463 . S
C1578 N1582 1.427 . S
C1579 H1569 0.929 . S
C1579 C1577 1.433 . S
C1579 N1582 1.384 . S
C1580 H1571 0.929 . S
C1580 C1572 1.378 . S
C1580 C1575 1.350 . S
C1581 H1568 0.929 . S
C1581 C1573 1.433 . S
C1581 N1583 1.384 1_565 S
N1582 C1578 1.427 . S
N1582 C1579 1.384 . S
N1583 C1575 1.427 . S
N1583 C1581 1.384 1_545 S
H1584 C1590 0.930 . S
H1585 C1594 0.930 . S
H1586 C1599 0.929 . S
H1587 C1597 0.929 . S
H1588 C1592 0.929 . S
H1589 C1598 0.929 . S
C1590 H1584 0.930 . S
C1590 C1591 1.367 . S
C1590 C1598 1.378 . S
C1591 C1590 1.367 . S
C1591 C1599 1.433 . S
C1592 H1588 0.929 . S
C1592 C1594 1.378 . S
C1592 C1596 1.350 . S
C1593 C1596 1.463 . S
C1593 C1598 1.350 . S
C1593 N1601 1.427 . S
C1594 H1585 0.930 . S
C1594 C1592 1.378 . S
C1594 C1595 1.367 . S
C1595 C1594 1.367 . S
C1595 C1597 1.433 . S
C1596 C1592 1.350 . S
C1596 C1593 1.463 . S
C1596 N1600 1.427 . S
C1597 H1587 0.929 . S
C1597 C1595 1.433 . S
C1597 N1600 1.384 . S
C1598 H1589 0.929 . S
C1598 C1590 1.378 . S
C1598 C1593 1.350 . S
C1599 H1586 0.929 . S
C1599 C1591 1.433 . S
C1599 N1601 1.384 . S
N1600 C1596 1.427 . S
N1600 C1597 1.384 . S
N1601 C1593 1.427 . S
N1601 C1599 1.384 . S
H1602 C1608 0.930 . S
H1603 C1612 0.930 . S
H1604 C1617 0.929 . S
H1605 C1615 0.929 . S
H1606 C1610 0.929 . S
H1607 C1616 0.929 . S
C1608 H1602 0.930 . S
C1608 C1609 1.367 . S
C1608 C1616 1.378 . S
C1609 C1608 1.367 . S
C1609 C1617 1.433 . S
C1610 H1606 0.929 . S
C1610 C1612 1.378 . S
C1610 C1614 1.350 . S
C1611 C1614 1.463 . S
C1611 C1616 1.350 . S
C1611 N1619 1.427 . S
C1612 H1603 0.930 . S
C1612 C1610 1.378 . S
C1612 C1613 1.367 . S
C1613 C1612 1.367 . S
C1613 C1615 1.433 . S
C1614 C1610 1.350 . S
C1614 C1611 1.463 . S
C1614 N1618 1.427 . S
C1615 H1605 0.929 . S
C1615 C1613 1.433 . S
C1615 N1618 1.384 . S
C1616 H1607 0.929 . S
C1616 C1608 1.378 . S
C1616 C1611 1.350 . S
C1617 H1604 0.929 . S
C1617 C1609 1.433 . S
C1617 N1619 1.384 . S
N1618 C1614 1.427 . S
N1618 C1615 1.384 . S
N1619 C1611 1.427 . S
N1619 C1617 1.384 . S
H1620 C1626 0.930 . S
H1621 C1630 0.930 . S
H1622 C1635 0.929 . S
H1623 C1633 0.929 . S
H1624 C1628 0.929 . S
H1625 C1634 0.929 . S
C1626 H1620 0.930 . S
C1626 C1627 1.367 . S
C1626 C1634 1.378 . S
C1627 C1626 1.367 . S
C1627 C1635 1.433 . S
C1628 H1624 0.929 . S
C1628 C1630 1.378 . S
C1628 C1632 1.350 . S
C1629 C1632 1.463 . S
C1629 C1634 1.350 . S
C1629 N1637 1.427 . S
C1630 H1621 0.930 . S
C1630 C1628 1.378 . S
C1630 C1631 1.367 . S
C1631 C1630 1.367 . S
C1631 C1633 1.433 . S
C1632 C1628 1.350 . S
C1632 C1629 1.463 . S
C1632 N1636 1.427 . S
C1633 H1623 0.929 . S
C1633 C1631 1.433 . S
C1633 N1636 1.384 . S
C1634 H1625 0.929 . S
C1634 C1626 1.378 . S
C1634 C1629 1.350 . S
C1635 H1622 0.929 . S
C1635 C1627 1.433 . S
C1635 N1637 1.384 . S
N1636 C1632 1.427 . S
N1636 C1633 1.384 . S
N1637 C1629 1.427 . S
N1637 C1635 1.384 . S
H1638 C1644 0.930 . S
H1639 C1648 0.930 . S
H1640 C1653 0.929 . S
H1641 C1651 0.929 . S
H1642 C1646 0.929 . S
H1643 C1652 0.929 . S
C1644 H1638 0.930 . S
C1644 C1645 1.367 . S
C1644 C1652 1.378 . S
C1645 C1644 1.367 . S
C1645 C1653 1.433 . S
C1646 H1642 0.929 . S
C1646 C1648 1.378 . S
C1646 C1650 1.350 . S
C1647 C1650 1.463 . S
C1647 C1652 1.350 . S
C1647 N1655 1.427 . S
C1648 H1639 0.930 . S
C1648 C1646 1.378 . S
C1648 C1649 1.367 . S
C1649 C1648 1.367 . S
C1649 C1651 1.433 . S
C1650 C1646 1.350 . S
C1650 C1647 1.463 . S
C1650 N1654 1.427 . S
C1651 H1641 0.929 . S
C1651 C1649 1.433 . S
C1651 N1654 1.384 . S
C1652 H1643 0.929 . S
C1652 C1644 1.378 . S
C1652 C1647 1.350 . S
C1653 H1640 0.929 . S
C1653 C1645 1.433 . S
C1653 N1655 1.384 . S
N1654 C1650 1.427 . S
N1654 C1651 1.384 . S
N1655 C1647 1.427 . S
N1655 C1653 1.384 . S
H1656 C1662 0.930 . S
H1657 C1666 0.930 . S
H1658 C1671 0.929 . S
H1659 C1669 0.929 . S
H1660 C1664 0.929 . S
H1661 C1670 0.929 . S
C1662 H1656 0.930 . S
C1662 C1663 1.367 . S
C1662 C1670 1.378 . S
C1663 C1662 1.367 . S
C1663 C1671 1.433 . S
C1664 H1660 0.929 . S
C1664 C1666 1.378 . S
C1664 C1668 1.350 . S
C1665 C1668 1.463 . S
C1665 C1670 1.350 . S
C1665 N1673 1.427 . S
C1666 H1657 0.930 . S
C1666 C1664 1.378 . S
C1666 C1667 1.367 . S
C1667 C1666 1.367 . S
C1667 C1669 1.433 . S
C1668 C1664 1.350 . S
C1668 C1665 1.463 . S
C1668 N1672 1.427 . S
C1669 H1659 0.929 . S
C1669 C1667 1.433 . S
C1669 N1672 1.384 . S
C1670 H1661 0.929 . S
C1670 C1662 1.378 . S
C1670 C1665 1.350 . S
C1671 H1658 0.929 . S
C1671 C1663 1.433 . S
C1671 N1673 1.384 . S
N1672 C1668 1.427 . S
N1672 C1669 1.384 . S
N1673 C1665 1.427 . S
N1673 C1671 1.384 . S
H1674 C1680 0.930 . S
H1675 C1684 0.930 . S
H1676 C1689 0.929 . S
H1677 C1687 0.929 . S
H1678 C1682 0.929 . S
H1679 C1688 0.929 . S
C1680 H1674 0.930 . S
C1680 C1681 1.367 . S
C1680 C1688 1.378 . S
C1681 C1680 1.367 . S
C1681 C1689 1.433 . S
C1682 H1678 0.929 . S
C1682 C1684 1.378 . S
C1682 C1686 1.350 . S
C1683 C1686 1.463 . S
C1683 C1688 1.350 . S
C1683 N1691 1.427 . S
C1684 H1675 0.930 . S
C1684 C1682 1.378 . S
C1684 C1685 1.367 . S
C1685 C1684 1.367 . S
C1685 C1687 1.433 . S
C1686 C1682 1.350 . S
C1686 C1683 1.463 . S
C1686 N1690 1.427 . S
C1687 H1677 0.929 . S
C1687 C1685 1.433 . S
C1687 N1690 1.384 . S
C1688 H1679 0.929 . S
C1688 C1680 1.378 . S
C1688 C1683 1.350 . S
C1689 H1676 0.929 . S
C1689 C1681 1.433 . S
C1689 N1691 1.384 . S
N1690 C1686 1.427 . S
N1690 C1687 1.384 . S
N1691 C1683 1.427 . S
N1691 C1689 1.384 . S
H1692 C1698 0.930 . S
H1693 C1702 0.930 . S
H1694 C1707 0.929 . S
H1695 C1705 0.929 . S
H1696 C1700 0.929 . S
H1697 C1706 0.929 . S
C1698 H1692 0.930 . S
C1698 C1699 1.367 . S
C1698 C1706 1.378 . S
C1699 C1698 1.367 . S
C1699 C1707 1.433 . S
C1700 H1696 0.929 . S
C1700 C1702 1.378 . S
C1700 C1704 1.350 . S
C1701 C1704 1.463 . S
C1701 C1706 1.350 . S
C1701 N1709 1.427 . S
C1702 H1693 0.930 . S
C1702 C1700 1.378 . S
C1702 C1703 1.367 . S
C1703 C1702 1.367 . S
C1703 C1705 1.433 . S
C1704 C1700 1.350 . S
C1704 C1701 1.463 . S
C1704 N1708 1.427 . S
C1705 H1695 0.929 . S
C1705 C1703 1.433 . S
C1705 N1708 1.384 . S
C1706 H1697 0.929 . S
C1706 C1698 1.378 . S
C1706 C1701 1.350 . S
C1707 H1694 0.929 . S
C1707 C1699 1.433 . S
C1707 N1709 1.384 . S
N1708 C1704 1.427 . S
N1708 C1705 1.384 . S
N1709 C1701 1.427 . S
N1709 C1707 1.384 . S
H1710 C1716 0.930 . S
H1711 C1720 0.930 . S
H1712 C1725 0.929 . S
H1713 C1723 0.929 . S
H1714 C1718 0.929 . S
H1715 C1724 0.929 . S
C1716 H1710 0.930 . S
C1716 C1717 1.367 . S
C1716 C1724 1.378 . S
C1717 C1716 1.367 . S
C1717 C1725 1.433 . S
C1718 H1714 0.929 . S
C1718 C1720 1.378 . S
C1718 C1722 1.350 . S
C1719 C1722 1.463 . S
C1719 C1724 1.350 . S
C1719 N1727 1.427 . S
C1720 H1711 0.930 . S
C1720 C1718 1.378 . S
C1720 C1721 1.367 . S
C1721 C1720 1.367 . S
C1721 C1723 1.433 . S
C1722 C1718 1.350 . S
C1722 C1719 1.463 . S
C1722 N1726 1.427 . S
C1723 H1713 0.929 . S
C1723 C1721 1.433 . S
C1723 N1726 1.384 . S
C1724 H1715 0.929 . S
C1724 C1716 1.378 . S
C1724 C1719 1.350 . S
C1725 H1712 0.929 . S
C1725 C1717 1.433 . S
C1725 N1727 1.384 . S
N1726 C1722 1.427 . S
N1726 C1723 1.384 . S
N1727 C1719 1.427 . S
N1727 C1725 1.384 . S
H1728 C1734 0.930 . S
H1729 C1738 0.930 . S
H1730 C1743 0.929 . S
H1731 C1741 0.929 . S
H1732 C1736 0.929 . S
H1733 C1742 0.929 . S
C1734 H1728 0.930 . S
C1734 C1735 1.367 . S
C1734 C1742 1.378 . S
C1735 C1734 1.367 . S
C1735 C1743 1.433 . S
C1736 H1732 0.929 . S
C1736 C1738 1.378 . S
C1736 C1740 1.350 . S
C1737 C1740 1.463 . S
C1737 C1742 1.350 . S
C1737 N1745 1.427 . S
C1738 H1729 0.930 . S
C1738 C1736 1.378 . S
C1738 C1739 1.367 . S
C1739 C1738 1.367 . S
C1739 C1741 1.433 . S
C1740 C1736 1.350 . S
C1740 C1737 1.463 . S
C1740 N1744 1.427 . S
C1741 H1731 0.929 . S
C1741 C1739 1.433 . S
C1741 N1744 1.384 . S
C1742 H1733 0.929 . S
C1742 C1734 1.378 . S
C1742 C1737 1.350 . S
C1743 H1730 0.929 . S
C1743 C1735 1.433 . S
C1743 N1745 1.384 . S
N1744 C1740 1.427 . S
N1744 C1741 1.384 . S
N1745 C1737 1.427 . S
N1745 C1743 1.384 . S
H1746 C1752 0.930 . S
H1747 C1756 0.930 . S
H1748 C1761 0.929 . S
H1749 C1759 0.929 . S
H1750 C1754 0.929 . S
H1751 C1760 0.929 . S
C1752 H1746 0.930 . S
C1752 C1753 1.367 . S
C1752 C1760 1.378 . S
C1753 C1752 1.367 . S
C1753 C1761 1.433 . S
C1754 H1750 0.929 . S
C1754 C1756 1.378 . S
C1754 C1758 1.350 . S
C1755 C1758 1.463 . S
C1755 C1760 1.350 . S
C1755 N1763 1.427 . S
C1756 H1747 0.930 . S
C1756 C1754 1.378 . S
C1756 C1757 1.367 . S
C1757 C1756 1.367 . S
C1757 C1759 1.433 . S
C1758 C1754 1.350 . S
C1758 C1755 1.463 . S
C1758 N1762 1.427 . S
C1759 H1749 0.929 . S
C1759 C1757 1.433 . S
C1759 N1762 1.384 . S
C1760 H1751 0.929 . S
C1760 C1752 1.378 . S
C1760 C1755 1.350 . S
C1761 H1748 0.929 . S
C1761 C1753 1.433 . S
C1761 N1763 1.384 . S
N1762 C1758 1.427 . S
N1762 C1759 1.384 . S
N1763 C1755 1.427 . S
N1763 C1761 1.384 . S
H1764 C1770 0.930 . S
H1765 C1774 0.930 . S
H1766 C1779 0.929 . S
H1767 C1777 0.929 . S
H1768 C1772 0.929 . S
H1769 C1778 0.929 . S
C1770 H1764 0.930 . S
C1770 C1771 1.367 . S
C1770 C1778 1.378 . S
C1771 C1770 1.367 . S
C1771 C1779 1.433 . S
C1772 H1768 0.929 . S
C1772 C1774 1.378 . S
C1772 C1776 1.350 . S
C1773 C1776 1.463 . S
C1773 C1778 1.350 . S
C1773 N1781 1.427 . S
C1774 H1765 0.930 . S
C1774 C1772 1.378 . S
C1774 C1775 1.367 . S
C1775 C1774 1.367 . S
C1775 C1777 1.433 . S
C1776 C1772 1.350 . S
C1776 C1773 1.463 . S
C1776 N1780 1.427 . S
C1777 H1767 0.929 . S
C1777 C1775 1.433 . S
C1777 N1780 1.384 . S
C1778 H1769 0.929 . S
C1778 C1770 1.378 . S
C1778 C1773 1.350 . S
C1779 H1766 0.929 . S
C1779 C1771 1.433 . S
C1779 N1781 1.384 . S
N1780 C1776 1.427 . S
N1780 C1777 1.384 . S
N1781 C1773 1.427 . S
N1781 C1779 1.384 . S
H1782 C1788 0.930 . S
H1783 C1792 0.930 . S
H1784 C1797 0.929 . S
H1785 C1795 0.929 . S
H1786 C1790 0.929 . S
H1787 C1796 0.929 . S
C1788 H1782 0.930 . S
C1788 C1789 1.367 . S
C1788 C1796 1.378 . S
C1789 C1788 1.367 . S
C1789 C1797 1.433 . S
C1790 H1786 0.929 . S
C1790 C1792 1.378 . S
C1790 C1794 1.350 . S
C1791 C1794 1.463 . S
C1791 C1796 1.350 . S
C1791 N1799 1.427 . S
C1792 H1783 0.930 . S
C1792 C1790 1.378 . S
C1792 C1793 1.367 . S
C1793 C1792 1.367 . S
C1793 C1795 1.433 . S
C1794 C1790 1.350 . S
C1794 C1791 1.463 . S
C1794 N1798 1.427 . S
C1795 H1785 0.929 . S
C1795 C1793 1.433 . S
C1795 N1798 1.384 . S
C1796 H1787 0.929 . S
C1796 C1788 1.378 . S
C1796 C1791 1.350 . S
C1797 H1784 0.929 . S
C1797 C1789 1.433 . S
C1797 N1799 1.384 . S
N1798 C1794 1.427 . S
N1798 C1795 1.384 . S
N1799 C1791 1.427 . S
N1799 C1797 1.384 . S
H1800 C1806 0.930 . S
H1801 C1810 0.930 . S
H1802 C1815 0.929 . S
H1803 C1813 0.929 . S
H1804 C1808 0.929 . S
H1805 C1814 0.929 . S
C1806 H1800 0.930 . S
C1806 C1807 1.367 . S
C1806 C1814 1.378 . S
C1807 C1806 1.367 . S
C1807 C1815 1.433 . S
C1808 H1804 0.929 . S
C1808 C1810 1.378 . S
C1808 C1812 1.350 . S
C1809 C1812 1.463 . S
C1809 C1814 1.350 . S
C1809 N1817 1.427 . S
C1810 H1801 0.930 . S
C1810 C1808 1.378 . S
C1810 C1811 1.367 . S
C1811 C1810 1.367 . S
C1811 C1813 1.433 . S
C1812 C1808 1.350 . S
C1812 C1809 1.463 . S
C1812 N1816 1.427 . S
C1813 H1803 0.929 . S
C1813 C1811 1.433 . S
C1813 N1816 1.384 . S
C1814 H1805 0.929 . S
C1814 C1806 1.378 . S
C1814 C1809 1.350 . S
C1815 H1802 0.929 . S
C1815 C1807 1.433 . S
C1815 N1817 1.384 . S
N1816 C1812 1.427 . S
N1816 C1813 1.384 . S
N1817 C1809 1.427 . S
N1817 C1815 1.384 . S
H1818 C1824 0.930 . S
H1819 C1828 0.930 . S
H1820 C1833 0.929 . S
H1821 C1831 0.929 . S
H1822 C1826 0.929 . S
H1823 C1832 0.929 . S
C1824 H1818 0.930 . S
C1824 C1825 1.367 . S
C1824 C1832 1.378 . S
C1825 C1824 1.367 . S
C1825 C1833 1.433 . S
C1826 H1822 0.929 . S
C1826 C1828 1.378 . S
C1826 C1830 1.350 . S
C1827 C1830 1.463 . S
C1827 C1832 1.350 . S
C1827 N1835 1.427 . S
C1828 H1819 0.930 . S
C1828 C1826 1.378 . S
C1828 C1829 1.367 . S
C1829 C1828 1.367 . S
C1829 C1831 1.433 . S
C1830 C1826 1.350 . S
C1830 C1827 1.463 . S
C1830 N1834 1.427 . S
C1831 H1821 0.929 . S
C1831 C1829 1.433 . S
C1831 N1834 1.384 . S
C1832 H1823 0.929 . S
C1832 C1824 1.378 . S
C1832 C1827 1.350 . S
C1833 H1820 0.929 . S
C1833 C1825 1.433 . S
C1833 N1835 1.384 . S
N1834 C1830 1.427 . S
N1834 C1831 1.384 . S
N1835 C1827 1.427 . S
N1835 C1833 1.384 . S
H1836 C1842 0.930 . S
H1837 C1846 0.930 . S
H1838 C1851 0.929 . S
H1839 C1849 0.929 . S
H1840 C1844 0.929 . S
H1841 C1850 0.929 . S
C1842 H1836 0.930 . S
C1842 C1843 1.367 . S
C1842 C1850 1.378 . S
C1843 C1842 1.367 . S
C1843 C1851 1.433 . S
C1844 H1840 0.929 . S
C1844 C1846 1.378 . S
C1844 C1848 1.350 . S
C1845 C1848 1.463 . S
C1845 C1850 1.350 . S
C1845 N1853 1.427 . S
C1846 H1837 0.930 . S
C1846 C1844 1.378 . S
C1846 C1847 1.367 . S
C1847 C1846 1.367 . S
C1847 C1849 1.433 . S
C1848 C1844 1.350 . S
C1848 C1845 1.463 . S
C1848 N1852 1.427 . S
C1849 H1839 0.929 . S
C1849 C1847 1.433 . S
C1849 N1852 1.384 . S
C1850 H1841 0.929 . S
C1850 C1842 1.378 . S
C1850 C1845 1.350 . S
C1851 H1838 0.929 . S
C1851 C1843 1.433 . S
C1851 N1853 1.384 . S
N1852 C1848 1.427 . S
N1852 C1849 1.384 . S
N1853 C1845 1.427 . S
N1853 C1851 1.384 . S
H1854 C1860 0.930 . S
H1855 C1864 0.930 . S
H1856 C1869 0.929 . S
H1857 C1867 0.929 . S
H1858 C1862 0.929 . S
H1859 C1868 0.929 . S
C1860 H1854 0.930 . S
C1860 C1861 1.367 . S
C1860 C1868 1.378 . S
C1861 C1860 1.367 . S
C1861 C1869 1.433 . S
C1862 H1858 0.929 . S
C1862 C1864 1.378 . S
C1862 C1866 1.350 . S
C1863 C1866 1.463 . S
C1863 C1868 1.350 . S
C1863 N1871 1.427 . S
C1864 H1855 0.930 . S
C1864 C1862 1.378 . S
C1864 C1865 1.367 . S
C1865 C1864 1.367 . S
C1865 C1867 1.433 . S
C1866 C1862 1.350 . S
C1866 C1863 1.463 . S
C1866 N1870 1.427 . S
C1867 H1857 0.929 . S
C1867 C1865 1.433 . S
C1867 N1870 1.384 . S
C1868 H1859 0.929 . S
C1868 C1860 1.378 . S
C1868 C1863 1.350 . S
C1869 H1856 0.929 . S
C1869 C1861 1.433 . S
C1869 N1871 1.384 . S
N1870 C1866 1.427 . S
N1870 C1867 1.384 . S
N1871 C1863 1.427 . S
N1871 C1869 1.384 . S
H1872 C1878 0.930 . S
H1873 C1882 0.930 . S
H1874 C1887 0.929 . S
H1875 C1885 0.929 . S
H1876 C1880 0.929 . S
H1877 C1886 0.929 . S
C1878 H1872 0.930 . S
C1878 C1879 1.367 . S
C1878 C1886 1.378 . S
C1879 C1878 1.367 . S
C1879 C1887 1.433 . S
C1880 H1876 0.929 . S
C1880 C1882 1.378 . S
C1880 C1884 1.350 . S
C1881 C1884 1.463 . S
C1881 C1886 1.350 . S
C1881 N1889 1.427 . S
C1882 H1873 0.930 . S
C1882 C1880 1.378 . S
C1882 C1883 1.367 . S
C1883 C1882 1.367 . S
C1883 C1885 1.433 . S
C1884 C1880 1.350 . S
C1884 C1881 1.463 . S
C1884 N1888 1.427 . S
C1885 H1875 0.929 . S
C1885 C1883 1.433 . S
C1885 N1888 1.384 . S
C1886 H1877 0.929 . S
C1886 C1878 1.378 . S
C1886 C1881 1.350 . S
C1887 H1874 0.929 . S
C1887 C1879 1.433 . S
C1887 N1889 1.384 . S
N1888 C1884 1.427 . S
N1888 C1885 1.384 . S
N1889 C1881 1.427 . S
N1889 C1887 1.384 . S
H1890 C1896 0.930 . S
H1891 C1900 0.930 . S
H1892 C1905 0.929 . S
H1893 C1903 0.929 . S
H1894 C1898 0.929 . S
H1895 C1904 0.929 . S
C1896 H1890 0.930 . S
C1896 C1897 1.367 . S
C1896 C1904 1.378 . S
C1897 C1896 1.367 . S
C1897 C1905 1.433 . S
C1898 H1894 0.929 . S
C1898 C1900 1.378 . S
C1898 C1902 1.350 . S
C1899 C1902 1.463 . S
C1899 C1904 1.350 . S
C1899 N1907 1.427 . S
C1900 H1891 0.930 . S
C1900 C1898 1.378 . S
C1900 C1901 1.367 . S
C1901 C1900 1.367 . S
C1901 C1903 1.433 . S
C1902 C1898 1.350 . S
C1902 C1899 1.463 . S
C1902 N1906 1.427 . S
C1903 H1893 0.929 . S
C1903 C1901 1.433 . S
C1903 N1906 1.384 . S
C1904 H1895 0.929 . S
C1904 C1896 1.378 . S
C1904 C1899 1.350 . S
C1905 H1892 0.929 . S
C1905 C1897 1.433 . S
C1905 N1907 1.384 . S
N1906 C1902 1.427 . S
N1906 C1903 1.384 . S
N1907 C1899 1.427 . S
N1907 C1905 1.384 . S
H1908 C1914 0.930 . S
H1909 C1918 0.930 . S
H1910 C1923 0.929 . S
H1911 C1921 0.929 . S
H1912 C1916 0.929 . S
H1913 C1922 0.929 . S
C1914 H1908 0.930 . S
C1914 C1915 1.367 . S
C1914 C1922 1.378 . S
C1915 C1914 1.367 . S
C1915 C1923 1.433 . S
C1916 H1912 0.929 . S
C1916 C1918 1.378 . S
C1916 C1920 1.350 . S
C1917 C1920 1.463 . S
C1917 C1922 1.350 . S
C1917 N1925 1.427 . S
C1918 H1909 0.930 . S
C1918 C1916 1.378 . S
C1918 C1919 1.367 . S
C1919 C1918 1.367 . S
C1919 C1921 1.433 . S
C1920 C1916 1.350 . S
C1920 C1917 1.463 . S
C1920 N1924 1.427 . S
C1921 H1911 0.929 . S
C1921 C1919 1.433 . S
C1921 N1924 1.384 . S
C1922 H1913 0.929 . S
C1922 C1914 1.378 . S
C1922 C1917 1.350 . S
C1923 H1910 0.929 . S
C1923 C1915 1.433 . S
C1923 N1925 1.384 . S
N1924 C1920 1.427 . S
N1924 C1921 1.384 . S
N1925 C1917 1.427 . S
N1925 C1923 1.384 . S
H1926 C1932 0.930 . S
H1927 C1936 0.930 . S
H1928 C1941 0.929 . S
H1929 C1939 0.929 . S
H1930 C1934 0.929 . S
H1931 C1940 0.929 . S
C1932 H1926 0.930 . S
C1932 C1933 1.367 . S
C1932 C1940 1.378 . S
C1933 C1932 1.367 . S
C1933 C1941 1.433 . S
C1934 H1930 0.929 . S
C1934 C1936 1.378 . S
C1934 C1938 1.350 . S
C1935 C1938 1.463 . S
C1935 C1940 1.350 . S
C1935 N1943 1.427 . S
C1936 H1927 0.930 . S
C1936 C1934 1.378 . S
C1936 C1937 1.367 . S
C1937 C1936 1.367 . S
C1937 C1939 1.433 . S
C1938 C1934 1.350 . S
C1938 C1935 1.463 . S
C1938 N1942 1.427 . S
C1939 H1929 0.929 . S
C1939 C1937 1.433 . S
C1939 N1942 1.384 . S
C1940 H1931 0.929 . S
C1940 C1932 1.378 . S
C1940 C1935 1.350 . S
C1941 H1928 0.929 . S
C1941 C1933 1.433 . S
C1941 N1943 1.384 . S
N1942 C1938 1.427 . S
N1942 C1939 1.384 . S
N1943 C1935 1.427 . S
N1943 C1941 1.384 . S
H1944 C1950 0.930 . S
H1945 C1954 0.930 . S
H1946 C1959 0.929 . S
H1947 C1957 0.929 . S
H1948 C1952 0.929 . S
H1949 C1958 0.929 . S
C1950 H1944 0.930 . S
C1950 C1951 1.367 . S
C1950 C1958 1.378 . S
C1951 C1950 1.367 . S
C1951 C1959 1.433 . S
C1952 H1948 0.929 . S
C1952 C1954 1.378 . S
C1952 C1956 1.350 . S
C1953 C1956 1.463 . S
C1953 C1958 1.350 . S
C1953 N1961 1.427 . S
C1954 H1945 0.930 . S
C1954 C1952 1.378 . S
C1954 C1955 1.367 . S
C1955 C1954 1.367 . S
C1955 C1957 1.433 . S
C1956 C1952 1.350 . S
C1956 C1953 1.463 . S
C1956 N1960 1.427 . S
C1957 H1947 0.929 . S
C1957 C1955 1.433 . S
C1957 N1960 1.384 . S
C1958 H1949 0.929 . S
C1958 C1950 1.378 . S
C1958 C1953 1.350 . S
C1959 H1946 0.929 . S
C1959 C1951 1.433 . S
C1959 N1961 1.384 . S
N1960 C1956 1.427 . S
N1960 C1957 1.384 . S
N1961 C1953 1.427 . S
N1961 C1959 1.384 . S
C997 C177 1.455 . S
C1001 C290 1.388 . S
C1015 C190 1.481 . S
C1019 C374 1.416 . S
C1033 C164 1.448 . S
C1037 C468 1.439 . S
C1051 C151 1.433 . S
C1055 C384 1.424 1_556 S
C1073 C458 1.386 . S
C1069 C125 1.438 . S
C1087 C138 1.407 . S
C1091 C300 1.402 1_556 S
C1109 C301 1.451 . S
C1105 C147 1.442 . S
C1127 C385 1.463 . S
C1123 C121 1.473 . S
C1141 C134 1.460 . S
C1145 C477 1.479 1_556 S
C1159 C173 1.431 . S
C1163 C393 1.456 . S
C1177 C186 1.428 . S
C1181 C469 1.413 . S
C1199 C309 1.436 . S
C1195 C160 1.415 . S
C1217 C542 1.389 . S
C1213 C21 1.455 . S
C1231 C34 1.481 . S
C1235 C626 1.422 . S
C1249 C8 1.450 . S
C1253 C720 1.446 . S
C1267 C229 1.430 . S
C1271 C636 1.425 . S
C1285 C203 1.438 . S
C1289 C710 1.378 . S
C1303 C216 1.410 . S
C1307 C552 1.399 . S
C1321 C225 1.443 . S
C1325 C553 1.451 . S
C1339 C199 1.470 . S
C1343 C637 1.469 . S
C1361 C729 1.477 . S
C1357 C212 1.462 . S
C1375 C17 1.431 . S
C1379 C645 1.458 . S
C1397 C721 1.423 . S
C1393 C30 1.421 . S
C1411 C4 1.415 . S
C1415 C561 1.438 . S
C1433 C794 1.390 . S
C1429 C99 1.454 . S
C1447 C112 1.482 . S
C1451 C878 1.416 . S
C1469 C972 1.446 . S
C1465 C86 1.451 . S
C1487 C888 1.423 . S
C1483 C73 1.432 . S
C1505 C962 1.387 . S
C1501 C47 1.437 . S
C1519 C60 1.411 . S
C1523 C804 1.407 . S
C1537 C69 1.457 . S
C1541 C805 1.436 . S
C1555 C43 1.467 . S
C1559 C889 1.469 . S
C1577 C981 1.481 . S
C1573 C56 1.459 . S
C1591 C95 1.431 . S
C1595 C897 1.457 . S
C1609 C108 1.433 . S
C1613 C973 1.409 . S
C1627 C82 1.431 . S
C1631 C813 1.430 . S
C1645 C204 1.558 . S
C1649 C297 1.450 . S
C1667 C381 1.471 . S
C1663 C217 1.612 . S
C1681 C230 1.570 . S
C1685 C474 1.391 . S
C1699 C87 1.584 . S
C1703 C390 1.395 . S
C1717 C100 1.576 . S
C1721 C465 1.453 . S
C1739 C306 1.353 . S
C1735 C113 1.530 . S
C1753 C48 1.558 . S
C1757 C549 1.433 . S
C1771 C61 1.616 . S
C1775 C633 1.461 . S
C1789 C74 1.565 . S
C1793 C726 1.392 . S
C1807 C165 1.584 . S
C1811 C642 1.386 . S
C1829 C717 1.434 . S
C1825 C178 1.581 . S
C1843 C191 1.533 . S
C1847 C558 1.378 . S
C1861 C126 1.561 . S
C1865 C801 1.429 . S
C1879 C139 1.617 . S
C1883 C885 1.461 . S
C1901 C978 1.395 . S
C1897 C152 1.570 . S
C1915 C9 1.590 . S
C1919 C894 1.406 . S
C1933 C22 1.576 . S
C1937 C969 1.453 . S
C1951 C35 1.529 . S
C1955 C810 1.356 . S
