# Generated by pormake.
# Topology tsx, (6,3)-cn, num edge types: 1
# Building blocks:
#     Node 0, Type 0, BuildingBlock: JUFBIX_clean_sbu_0, # of connection points: 6
#     Node 1, Type 0, BuildingBlock: JUFBIX_clean_sbu_0, # of connection points: 6
#     Node 2, Type 1, BuildingBlock: PAMTOO_clean_linker_0, # of connection points: 3
#     Node 3, Type 1, BuildingBlock: PAMTOO_clean_linker_0, # of connection points: 3
#     Node 4, Type 1, BuildingBlock: PAMTOO_clean_linker_0, # of connection points: 3
#     Node 5, Type 1, BuildingBlock: PAMTOO_clean_linker_0, # of connection points: 3
#     Edge 6, Type (0, 1), BuildingBlock: KIFKEQ_clean_linker_1, # of connection points: 2
#     Edge 7, Type (0, 1), BuildingBlock: KIFKEQ_clean_linker_1, # of connection points: 2
#     Edge 8, Type (0, 1), BuildingBlock: KIFKEQ_clean_linker_1, # of connection points: 2
#     Edge 9, Type (0, 1), BuildingBlock: KIFKEQ_clean_linker_1, # of connection points: 2
#     Edge 10, Type (0, 1), BuildingBlock: KIFKEQ_clean_linker_1, # of connection points: 2
#     Edge 11, Type (0, 1), BuildingBlock: KIFKEQ_clean_linker_1, # of connection points: 2
#     Edge 12, Type (0, 1), BuildingBlock: KIFKEQ_clean_linker_1, # of connection points: 2
#     Edge 13, Type (0, 1), BuildingBlock: KIFKEQ_clean_linker_1, # of connection points: 2
#     Edge 14, Type (0, 1), BuildingBlock: KIFKEQ_clean_linker_1, # of connection points: 2
#     Edge 15, Type (0, 1), BuildingBlock: KIFKEQ_clean_linker_1, # of connection points: 2
#     Edge 16, Type (0, 1), BuildingBlock: KIFKEQ_clean_linker_1, # of connection points: 2
#     Edge 17, Type (0, 1), BuildingBlock: KIFKEQ_clean_linker_1, # of connection points: 2
# Relax obj value: 0.109
# Max RMSD: 0.125
# Mean RMSD: 0.121
data_MOF--net-tsx--node1-JUFBIX_clean_sbu_0--node2-PAMTOO_clean_linker_0--edge1-KIFKEQ_clean_linker_1
_symmetry_space_group_name_H-M    P1
_symmetry_Int_Tables_number       1
_symmetry_cell_setting            triclinic
loop_
_symmetry_equiv_pos_as_xyz
'x, y, z'
_cell_length_a     20.128914
_cell_length_b     23.998323
_cell_length_c     34.111617
_cell_angle_alpha  85.923918
_cell_angle_beta   88.666928
_cell_angle_gamma 99.05399
loop_
_atom_site_label
_atom_site_type_symbol
_atom_site_fract_x
_atom_site_fract_y
_atom_site_fract_z
_atom_type_partial_charge
Co0 Co 0.08957 0.02715 -0.01471 0.0
C1 C 0.04602 0.07117 0.91376 0.0
Co2 Co 1.00334 0.07379 -0.01052 0.0
C3 C 0.17183 0.93722 -0.0141 0.0
C4 C 0.22227 0.01604 0.95856 0.0
N5 N 0.16428 0.9918 0.97754 0.0
N6 N 0.23225 0.92657 0.9728 0.0
C7 C 0.26398 0.97632 0.9557 0.0
H8 H 0.13324 0.90575 0.00067 0.0
H9 H 0.23272 0.05941 0.94621 0.0
C10 C 0.04882 0.03049 0.06099 0.0
N11 N 0.92827 0.10815 -0.00225 0.0
C12 C 0.91563 0.1601 -0.01458 0.0
C13 C 0.87455 0.08512 0.02114 0.0
N14 N 0.85631 0.17034 0.00052 0.0
C15 C 0.8304 0.12304 0.02286 0.0
C16 C 0.96742 0.95795 -0.01848 0.0
O17 O 0.09153 1.01135 0.03987 0.0
O18 O 1.00643 0.05777 0.04463 0.0
O19 O 0.94625 1.00448 -0.01504 0.0
O20 O 0.03044 0.95716 -0.01894 0.0
O21 O 1.00174 0.08968 0.93424 0.0
H22 H 0.86834 0.04353 0.03653 0.0
H23 H 0.9501 0.19027 0.96664 0.0
O24 O 0.08737 0.04344 0.93074 0.0
O25 O 0.14723 0.09797 -0.01008 0.0
O26 O 0.06077 0.14291 -0.0062 0.0
C27 C 0.12402 0.14381 -0.00659 0.0
H28 H 0.3127 0.98313 0.9405 0.0
H29 H 0.78265 0.11609 0.03914 0.0
Co30 Co 0.59294 0.50259 0.48886 0.0
C31 C 0.55176 0.54639 0.41652 0.0
Co32 Co 0.50663 0.54927 0.49151 0.0
C33 C 0.67447 0.41252 0.49126 0.0
C34 C 0.72686 0.49094 0.46441 0.0
N35 N 0.66769 0.46707 0.48227 0.0
N36 N 0.7355 0.4015 0.47966 0.0
C37 C 0.76854 0.45095 0.46289 0.0
H38 H 0.63501 0.38131 0.50551 0.0
H39 H 0.7383 0.53427 0.45205 0.0
C40 C 0.54935 0.50615 0.56388 0.0
N41 N 0.43175 0.58404 0.49895 0.0
C42 C 0.41801 0.63465 0.48435 0.0
C43 C 0.37961 0.56321 0.52415 0.0
N44 N 0.35977 0.64625 0.49995 0.0
C45 C 0.33554 0.60131 0.52491 0.0
C46 C 0.47075 0.43378 0.48313 0.0
O47 O 0.59324 0.48704 0.54367 0.0
O48 O 0.50762 0.53302 0.54654 0.0
O49 O 0.44938 0.48033 0.48613 0.0
O50 O 0.53367 0.4327 0.48416 0.0
O51 O 0.50717 0.56538 0.43642 0.0
H52 H 0.37443 0.52304 0.54136 0.0
H53 H 0.45079 0.66293 0.46347 0.0
O54 O 0.59249 0.51858 0.43408 0.0
O55 O 0.65059 0.5732 0.49384 0.0
O56 O 0.56404 0.61816 0.49657 0.0
C57 C 0.62725 0.61904 0.49695 0.0
H58 H 0.81823 0.45728 0.44887 0.0
H59 H 0.2888 0.59607 0.54212 0.0
H60 H 0.13239 0.93808 0.35813 0.0
H61 H 1.0045 0.06493 0.36343 0.0
H62 H 0.05018 0.97371 0.4696 0.0
H63 H 0.89561 1.00458 0.45924 0.0
C64 C 0.91518 0.04161 0.43867 0.0
O65 O 0.98472 0.05272 0.43907 0.0
H66 H 0.89887 0.0307 0.40879 0.0
C67 C 0.10142 0.96134 0.37514 0.0
C68 C 0.09501 0.95029 0.41612 0.0
C69 C 0.06811 1.00162 0.35567 0.0
C70 C 0.03115 0.03381 0.37787 0.0
C71 C 1.02402 0.02334 0.41874 0.0
C72 C 0.05615 0.98178 0.438 0.0
H73 H 0.14184 0.1529 0.60617 0.0
H74 H 1.00246 0.99704 0.62355 0.0
H75 H 0.07674 0.05953 0.50714 0.0
H76 H 0.9194 0.01729 0.52122 0.0
C77 C 0.92478 0.98611 0.54584 0.0
O78 O 0.99187 0.98145 0.54956 0.0
H79 H 0.90528 1.00235 0.57293 0.0
C80 C 0.11265 0.11623 0.59451 0.0
C81 C 0.11584 0.11009 0.55394 0.0
C82 C 0.07175 0.07596 0.61996 0.0
C83 C 0.03423 0.0289 0.60443 0.0
C84 C 0.03486 0.02351 0.56389 0.0
C85 C 0.07639 0.06368 0.53853 0.0
H86 H 0.64105 0.45945 0.8657 0.0
H87 H 0.49533 0.57279 0.85871 0.0
H88 H 0.54892 0.50469 0.97118 0.0
H89 H 0.38514 0.52649 0.9523 0.0
C90 C 0.40684 0.56337 0.93201 0.0
O91 O 0.47619 0.57342 0.9343 0.0
H92 H 0.39205 0.55311 0.9018 0.0
C93 C 0.60655 0.48275 0.87996 0.0
C94 C 0.60061 0.47908 0.92108 0.0
C95 C 0.56769 0.51518 0.85709 0.0
C96 C 0.52505 0.5467 0.87584 0.0
C97 C 0.51722 0.5423 0.91687 0.0
C98 C 0.55433 0.50776 0.93952 0.0
H99 H 0.65331 0.65006 0.11541 0.0
H100 H 0.5048 0.4998 0.11733 0.0
H101 H 0.5825 0.58493 0.00699 0.0
H102 H 0.4291 0.5407 0.01151 0.0
C103 C 0.43029 0.50943 0.03676 0.0
O104 O 0.49576 0.50063 0.04184 0.0
H105 H 0.41112 0.5277 0.06313 0.0
C106 C 0.6215 0.61866 0.09994 0.0
C107 C 0.62399 0.6222 0.05868 0.0
C108 C 0.57902 0.57455 0.12138 0.0
C109 C 0.53912 0.5335 0.10127 0.0
C110 C 0.53976 0.53749 0.06024 0.0
C111 C 0.58273 0.58144 0.03879 0.0
H112 H 0.26192 0.16181 -0.0068 0.0
H113 H 0.08949 0.24741 0.00372 0.0
H114 H 0.33646 0.25002 0.00298 0.0
H115 H 0.16392 0.33542 0.0129 0.0
H116 H 0.31088 0.46294 0.07468 0.0
H117 H 0.23799 0.37473 0.06323 0.0
H118 H 0.37561 0.34535 0.97063 0.0
H119 H 0.4488 0.43343 -0.0174 0.0
C120 C 0.23994 0.19945 -0.00263 0.0
C121 C 0.16975 0.1975 -0.00214 0.0
C122 C 0.28267 0.25004 0.00277 0.0
C123 C 0.25607 0.29964 0.00891 0.0
C124 C 0.18594 0.29775 0.00886 0.0
C125 C 0.1433 0.24733 0.00336 0.0
C126 C 0.32561 0.43747 0.05201 0.0
C127 C 0.38591 0.45461 0.02982 0.0
C128 C 0.28369 0.38718 0.04524 0.0
C129 C 0.30101 0.35301 0.01602 0.0
C130 C 0.36128 0.37034 -0.0063 0.0
C131 C 0.40311 0.4208 0.00043 0.0
H132 H 0.36203 0.90953 0.96964 0.0
H133 H 0.15732 0.82119 0.97648 0.0
H134 H 0.40301 0.82059 0.96246 0.0
H135 H 0.19875 0.73175 0.96984 0.0
H136 H 0.31139 0.57624 -0.01127 0.0
H137 H 0.26795 0.66316 0.00259 0.0
H138 H 0.39698 0.75517 0.90881 0.0
H139 H 0.43987 0.66857 0.8951 0.0
C140 C 0.32568 0.87118 0.96966 0.0
C141 C 0.25625 0.87286 0.97304 0.0
C142 C 0.34924 0.82014 0.9656 0.0
C143 C 0.30409 0.76925 0.96505 0.0
C144 C 0.2348 0.77027 0.97031 0.0
C145 C 0.21109 0.82157 0.97418 0.0
C146 C 0.33028 0.61518 0.97121 0.0
C147 C 0.37934 0.61606 0.94107 0.0
C148 C 0.30534 0.66477 -0.02099 0.0
C149 C 0.32947 0.7161 0.95701 0.0
C150 C 0.37822 0.71656 0.92673 0.0
C151 C 0.40258 0.66707 0.91874 0.0
H152 H 0.98813 0.84763 -0.00592 0.0
H153 H 0.83433 0.95015 0.96734 0.0
H154 H 0.90121 0.76356 0.00383 0.0
H155 H 0.74839 0.86658 0.97642 0.0
H156 H 0.62657 0.73365 0.06693 0.0
H157 H 0.7093 0.81233 0.03914 0.0
H158 H 0.80653 0.69706 0.97476 0.0
H159 H 0.72273 0.61765 0.003 0.0
C160 C 0.9361 0.85199 -0.01063 0.0
C161 C 0.91791 0.90559 -0.01928 0.0
C162 C 0.8864 0.80388 -0.00523 0.0
C163 C 0.81795 0.80875 -0.00854 0.0
C164 C 0.8006 0.86173 -0.02011 0.0
C165 C 0.84992 0.90958 0.97467 0.0
C166 C 0.665 0.72531 0.04635 0.0
C167 C 0.66865 0.66984 0.03714 0.0
C168 C 0.71216 0.77031 0.03024 0.0
C169 C 0.76444 0.76085 0.00474 0.0
C170 C 0.76694 0.70545 -0.00552 0.0
C171 C 0.71891 0.66025 0.01032 0.0
H172 H 0.77165 0.20999 0.05072 0.0
H173 H 0.87192 0.24497 0.93633 0.0
H174 H 0.71402 0.29124 0.03854 0.0
H175 H 0.81404 0.32593 0.92392 0.0
H176 H 0.73651 0.48886 0.91767 0.0
H177 H 0.80428 0.41907 0.94244 0.0
H178 H 0.62565 0.31736 -0.00244 0.0
H179 H 0.55846 0.38838 0.97349 0.0
C180 C 0.78131 0.23497 0.02291 0.0
C181 C 0.826 0.2207 -0.00568 0.0
C182 C 0.74831 0.2816 0.01597 0.0
C183 C 0.7592 0.31512 -0.01975 0.0
C184 C 0.80526 0.30167 0.95207 0.0
C185 C 0.83842 0.25513 0.95909 0.0
C186 C 0.71227 0.45219 0.93596 0.0
C187 C 0.64242 0.44362 0.94357 0.0
C188 C 0.75083 0.41197 0.9498 0.0
C189 C 0.72024 0.36201 0.97127 0.0
C190 C 0.65094 0.35544 -0.01876 0.0
C191 C 0.61236 0.39606 0.96757 0.0
H192 H 0.76514 0.63724 0.4979 0.0
H193 H 0.59199 0.72221 0.50753 0.0
H194 H 0.83898 0.72531 0.50923 0.0
H195 H 0.66566 0.8099 0.51833 0.0
H196 H 0.80753 0.93506 0.58373 0.0
H197 H 0.73761 0.84614 0.5709 0.0
H198 H 0.87804 0.82266 0.47809 0.0
H199 H 0.94845 0.91172 0.49141 0.0
C200 C 0.74287 0.67471 0.5022 0.0
C201 C 0.67266 0.67263 0.50204 0.0
C202 C 0.78518 0.72516 0.5085 0.0
C203 C 0.75807 0.77439 0.51496 0.0
C204 C 0.68799 0.77244 0.5141 0.0
C205 C 0.6458 0.72221 0.50768 0.0
C206 C 0.82371 0.91064 0.56082 0.0
C207 C 0.88384 0.92981 0.53889 0.0
C208 C 0.78345 0.85998 0.55325 0.0
C209 C 0.80222 0.82747 0.52341 0.0
C210 C 0.86264 0.84648 0.50156 0.0
C211 C 0.90287 0.89741 0.50909 0.0
H212 H 0.6595 0.29744 0.47928 0.0
H213 H 0.86454 0.38299 0.4824 0.0
H214 H 0.7001 0.20738 0.47493 0.0
H215 H 0.9052 0.2935 0.4767 0.0
H216 H 0.95825 0.11707 0.49379 0.0
H217 H 0.91148 0.20111 0.50959 0.0
H218 H 0.75787 0.16417 0.42457 0.0
H219 H 0.80401 0.07974 0.40941 0.0
C220 C 0.71316 0.29699 0.47955 0.0
C221 C 0.75879 0.34755 0.48087 0.0
C222 C 0.73648 0.24544 0.47662 0.0
C223 C 0.80593 0.24325 0.47512 0.0
C224 C 0.85139 0.29351 0.47805 0.0
C225 C 0.8281 0.34497 0.48086 0.0
C226 C 0.91442 0.12694 0.47857 0.0
C227 C 0.88569 0.09269 0.44963 0.0
C228 C 0.88771 0.1751 0.48756 0.0
C229 C 0.83123 0.18965 0.46813 0.0
C230 C 0.80105 0.15403 0.44033 0.0
C231 C 0.82782 0.10597 0.43133 0.0
H232 H 0.48538 0.32373 0.50338 0.0
H233 H 0.34456 0.42699 0.45595 0.0
H234 H 0.39603 0.24134 0.5089 0.0
H235 H 0.25632 0.3448 0.46006 0.0
H236 H 0.10909 0.22163 0.54489 0.0
H237 H 0.19613 0.29671 0.51712 0.0
H238 H 0.31232 0.1719 0.4795 0.0
H239 H 0.22435 0.09632 0.50822 0.0
C240 C 0.43585 0.32843 0.49317 0.0
C241 C 0.42147 0.38189 0.48006 0.0
C242 C 0.38473 0.28122 0.49608 0.0
C243 C 0.31868 0.28671 0.48552 0.0
C244 C 0.30616 0.33938 0.46933 0.0
C245 C 0.35679 0.38646 0.46692 0.0
C246 C 0.15238 0.21037 0.52967 0.0
C247 C 0.16037 0.15353 0.52865 0.0
C248 C 0.20229 0.2533 0.5136 0.0
C249 C 0.26156 0.24037 0.49624 0.0
C250 C 0.26759 0.1832 0.49305 0.0
C251 C 0.21711 0.14002 0.50901 0.0
H252 H 0.35967 0.70567 0.42972 0.0
H253 H 0.28707 0.69673 0.55039 0.0
H254 H 0.29456 0.78154 0.41323 0.0
H255 H 0.22189 0.77271 0.53391 0.0
H256 H 0.16984 0.95187 0.48271 0.0
H257 H 0.23825 0.88062 0.50616 0.0
H258 H 0.16425 0.77579 0.41386 0.0
H259 H 0.09514 0.84535 0.39127 0.0
C260 C 0.33074 0.72063 0.45279 0.0
C261 C 0.32782 0.69503 0.49119 0.0
C262 C 0.29317 0.76366 0.44337 0.0
C263 C 0.25279 0.78244 0.47229 0.0
C264 C 0.25262 0.75896 0.51113 0.0
C265 C 0.28944 0.71532 0.52043 0.0
C266 C 0.1673 0.91304 0.46805 0.0
C267 C 0.12824 0.90463 0.43471 0.0
C268 C 0.20664 0.87258 0.48126 0.0
C269 C 0.20767 0.82357 0.46109 0.0
C270 C 0.16574 0.81393 0.42923 0.0
C271 C 0.12611 0.85372 0.4164 0.0
H272 H 0.12462 0.96751 0.10585 0.0
H273 H 0.97772 0.08023 0.11359 0.0
H274 H 0.13151 0.96165 0.17737 0.0
H275 H 0.98473 0.07412 0.18494 0.0
H276 H 0.07758 0.09815 0.30631 0.0
H277 H 0.07283 0.10467 0.23458 0.0
H278 H 0.05347 0.9228 0.23542 0.0
H279 H 0.05657 0.91595 0.30679 0.0
C280 C 0.09363 0.99077 0.1228 0.0
C281 C 0.05063 0.02428 0.10416 0.0
C282 C 0.09753 0.98735 0.16365 0.0
C283 C 0.05893 0.01774 0.18647 0.0
C284 C 1.01564 0.05092 0.16789 0.0
C285 C 1.01128 0.05397 0.12711 0.0
C286 C 0.072 0.05962 0.29116 0.0
C287 C 0.06793 1.00662 0.31218 0.0
C288 C 0.06937 0.06335 0.25021 0.0
C289 C 0.06301 1.0142 0.22965 0.0
C290 C 0.05943 0.96135 0.25058 0.0
C291 C 0.06149 0.95756 0.29142 0.0
H292 H 0.14168 0.04358 0.86485 0.0
H293 H 0.96013 0.11899 0.86496 0.0
H294 H 0.14706 0.05225 0.79378 0.0
H295 H 0.96654 0.12882 0.79288 0.0
H296 H 0.95908 0.05756 0.66839 0.0
H297 H 0.95295 0.06426 0.73935 0.0
H298 H 0.1676 0.12161 0.73816 0.0
H299 H 0.17427 0.1122 0.66767 0.0
C300 C 0.10314 0.06259 0.84968 0.0
C301 C 0.05015 0.0803 0.87054 0.0
C302 C 0.10667 0.06803 0.80884 0.0
C303 C 0.05744 0.09146 0.78775 0.0
C304 C 1.00493 0.11023 0.80847 0.0
C305 C 1.00141 0.10484 0.84962 0.0
C306 C 1.00498 0.07128 0.68337 0.0
C307 C 0.06732 0.08354 0.66258 0.0
C308 C 1.00127 0.07601 0.72387 0.0
C309 C 0.05983 0.0932 0.7443 0.0
C310 C 0.12173 0.10755 0.72324 0.0
C311 C 0.12549 0.10259 0.68283 0.0
H312 H 0.46871 0.55088 0.61397 0.0
H313 H 0.63155 0.4529 0.61143 0.0
H314 H 0.4759 0.55243 0.68493 0.0
H315 H 0.63855 0.45471 0.68283 0.0
H316 H 0.56951 0.42276 0.81525 0.0
H317 H 0.56627 0.41822 0.7442 0.0
H318 H 0.56278 0.59799 0.73015 0.0
H319 H 0.56749 0.60301 0.8013 0.0
C320 C 0.50573 0.52929 0.62857 0.0
C321 C 0.54983 0.50194 0.60712 0.0
C322 C 0.51012 0.53063 0.66914 0.0
C323 C 0.55829 0.50432 0.68911 0.0
C324 C 0.60093 0.47528 0.66798 0.0
C325 C 0.59692 0.47427 0.62722 0.0
C326 C 0.56937 0.46155 0.79699 0.0
C327 C 0.56889 0.51333 0.81384 0.0
C328 C 0.56728 0.45881 0.75638 0.0
C329 C 0.56398 0.50766 0.7319 0.0
C330 C 0.56438 0.55957 0.74857 0.0
C331 C 0.56698 0.56243 0.7892 0.0
H332 H 0.47387 0.60278 0.36762 0.0
H333 H 0.64013 0.50834 0.3677 0.0
H334 H 0.47975 0.61138 0.29556 0.0
H335 H 0.64596 0.51737 0.2964 0.0
H336 H 0.58007 0.48262 0.17268 0.0
H337 H 0.5714 0.47817 0.24431 0.0
H338 H 0.56005 0.65681 0.23941 0.0
H339 H 0.56734 0.66103 0.16752 0.0
C340 C 0.51174 0.58419 0.35233 0.0
C341 C 0.55616 0.55456 0.37328 0.0
C342 C 0.51524 0.58929 0.31122 0.0
C343 C 0.56289 0.56453 0.2906 0.0
C344 C 0.60802 0.53599 0.31161 0.0
C345 C 0.60478 0.53112 0.35248 0.0
C346 C 0.57533 0.52081 0.18693 0.0
C347 C 0.57469 0.57219 0.16472 0.0
C348 C 0.57083 0.51838 0.22783 0.0
C349 C 0.56533 0.56723 0.24725 0.0
C350 C 0.56387 0.61853 0.22507 0.0
C351 C 0.56879 0.62104 0.18408 0.0
loop_
_geom_bond_atom_site_label_1
_geom_bond_atom_site_label_2
_geom_bond_distance
_geom_bond_site_symmetry_2
_ccdc_geom_bond_type
Co0 N5 2.057 . S
Co0 O17 2.021 . S
Co0 O20 2.062 1_455 S
Co0 O24 2.117 1_564 S
Co0 O25 2.020 1_565 S
C1 O21 1.259 1_455 S
C1 O24 1.258 . S
Co2 N11 2.057 . S
Co2 O18 2.117 . S
Co2 O19 2.020 1_545 S
Co2 O21 2.021 1_554 S
Co2 O26 2.062 1_655 S
C3 N5 1.316 . S
C3 N6 1.347 . S
C3 H8 0.931 . S
C4 N5 1.375 1_556 S
C4 C7 1.350 . S
C4 H9 0.930 . S
N5 Co0 2.057 . S
N5 C3 1.316 . S
N5 C4 1.375 1_554 S
N6 C3 1.347 . S
N6 C7 1.373 1_554 S
C7 C4 1.350 . S
C7 N6 1.373 1_556 S
C7 H28 0.931 . S
H8 C3 0.931 . S
H9 C4 0.930 . S
C10 O17 1.259 1_545 S
C10 O18 1.258 1_455 S
N11 Co2 2.057 . S
N11 C12 1.316 1_554 S
N11 C13 1.375 . S
C12 N11 1.316 1_556 S
C12 N14 1.347 1_556 S
C12 H23 0.931 . S
C13 N11 1.375 . S
C13 C15 1.350 . S
C13 H22 0.930 . S
N14 C12 1.347 1_554 S
N14 C15 1.373 . S
C15 C13 1.350 . S
C15 N14 1.373 . S
C15 H29 0.931 . S
C16 O19 1.256 . S
C16 O20 1.255 . S
O17 Co0 2.021 . S
O17 C10 1.259 1_565 S
O18 Co2 2.117 . S
O18 C10 1.258 1_655 S
O19 Co2 2.020 1_565 S
O19 C16 1.256 . S
O20 Co0 2.062 1_655 S
O20 C16 1.255 . S
O21 C1 1.259 1_655 S
O21 Co2 2.021 1_556 S
H22 C13 0.930 . S
H23 C12 0.931 . S
O24 Co0 2.117 1_546 S
O24 C1 1.258 . S
O25 Co0 2.020 1_545 S
O25 C27 1.256 . S
O26 Co2 2.062 1_455 S
O26 C27 1.255 . S
C27 O25 1.256 . S
C27 O26 1.255 . S
H28 C7 0.931 . S
H29 C15 0.931 . S
Co30 N35 2.057 . S
Co30 O47 2.021 . S
Co30 O50 2.062 . S
Co30 O54 2.117 . S
Co30 O55 2.020 . S
C31 O51 1.259 . S
C31 O54 1.258 . S
Co32 N41 2.057 . S
Co32 O48 2.117 . S
Co32 O49 2.020 . S
Co32 O51 2.021 . S
Co32 O56 2.062 . S
C33 N35 1.316 . S
C33 N36 1.347 . S
C33 H38 0.931 . S
C34 N35 1.375 . S
C34 C37 1.350 . S
C34 H39 0.930 . S
N35 Co30 2.057 . S
N35 C33 1.316 . S
N35 C34 1.375 . S
N36 C33 1.347 . S
N36 C37 1.373 . S
C37 C34 1.350 . S
C37 N36 1.373 . S
C37 H58 0.931 . S
H38 C33 0.931 . S
H39 C34 0.930 . S
C40 O47 1.259 . S
C40 O48 1.258 . S
N41 Co32 2.057 . S
N41 C42 1.316 . S
N41 C43 1.375 . S
C42 N41 1.316 . S
C42 N44 1.347 . S
C42 H53 0.931 . S
C43 N41 1.375 . S
C43 C45 1.350 . S
C43 H52 0.930 . S
N44 C42 1.347 . S
N44 C45 1.373 . S
C45 C43 1.350 . S
C45 N44 1.373 . S
C45 H59 0.931 . S
C46 O49 1.256 . S
C46 O50 1.255 . S
O47 Co30 2.021 . S
O47 C40 1.259 . S
O48 Co32 2.117 . S
O48 C40 1.258 . S
O49 Co32 2.020 . S
O49 C46 1.256 . S
O50 Co30 2.062 . S
O50 C46 1.255 . S
O51 C31 1.259 . S
O51 Co32 2.021 . S
H52 C43 0.930 . S
H53 C42 0.931 . S
O54 Co30 2.117 . S
O54 C31 1.258 . S
O55 Co30 2.020 . S
O55 C57 1.256 . S
O56 Co32 2.062 . S
O56 C57 1.255 . S
C57 O55 1.256 . S
C57 O56 1.255 . S
H58 C37 0.931 . S
H59 C45 0.931 . S
H60 C67 0.929 . S
H61 C70 0.930 . S
H62 C72 0.929 . S
H63 C64 0.969 . S
C64 H63 0.969 . S
C64 O65 1.550 . S
C64 H66 0.973 . S
O65 C64 1.550 . S
O65 C71 1.412 . S
H66 C64 0.973 . S
C67 H60 0.929 . S
C67 C68 1.400 . S
C67 C69 1.364 . S
C68 C67 1.400 . S
C68 C72 1.377 . S
C69 C67 1.364 . S
C69 C70 1.374 1_465 S
C70 H61 0.930 . S
C70 C69 1.374 1_645 S
C70 C71 1.383 . S
C71 O65 1.412 . S
C71 C70 1.383 . S
C71 C72 1.394 1_645 S
C72 H62 0.929 . S
C72 C68 1.377 . S
C72 C71 1.394 1_465 S
H73 C80 0.929 . S
H74 C83 0.930 1_565 S
H75 C85 0.929 . S
H76 C77 0.969 . S
C77 H76 0.969 . S
C77 O78 1.550 . S
C77 H79 0.973 . S
O78 C77 1.550 . S
O78 C84 1.412 1_565 S
H79 C77 0.973 . S
C80 H73 0.929 . S
C80 C81 1.400 . S
C80 C82 1.364 . S
C81 C80 1.400 . S
C81 C85 1.377 . S
C82 C80 1.364 . S
C82 C83 1.374 1_455 S
C83 H74 0.930 1_545 S
C83 C82 1.374 1_655 S
C83 C84 1.383 . S
C84 O78 1.412 1_545 S
C84 C83 1.383 . S
C84 C85 1.394 1_655 S
C85 H75 0.929 . S
C85 C81 1.377 . S
C85 C84 1.394 1_455 S
H86 C93 0.929 . S
H87 C96 0.930 . S
H88 C98 0.929 1_554 S
H89 C90 0.969 . S
C90 H89 0.969 . S
C90 O91 1.550 . S
C90 H92 0.973 . S
O91 C90 1.550 . S
O91 C97 1.412 . S
H92 C90 0.973 . S
C93 H86 0.929 . S
C93 C94 1.400 . S
C93 C95 1.364 . S
C94 C93 1.400 . S
C94 C98 1.377 . S
C95 C93 1.364 . S
C95 C96 1.374 . S
C96 H87 0.930 . S
C96 C95 1.374 . S
C96 C97 1.383 . S
C97 O91 1.412 . S
C97 C96 1.383 . S
C97 C98 1.394 . S
C98 H88 0.929 1_556 S
C98 C94 1.377 . S
C98 C97 1.394 . S
H99 C106 0.929 . S
H100 C109 0.930 . S
H101 C111 0.929 . S
H102 C103 0.969 . S
C103 H102 0.969 . S
C103 O104 1.550 . S
C103 H105 0.973 . S
O104 C103 1.550 . S
O104 C110 1.412 . S
H105 C103 0.973 . S
C106 H99 0.929 . S
C106 C107 1.400 . S
C106 C108 1.364 . S
C107 C106 1.400 . S
C107 C111 1.377 . S
C108 C106 1.364 . S
C108 C109 1.374 . S
C109 H100 0.930 . S
C109 C108 1.374 . S
C109 C110 1.383 . S
C110 O104 1.412 . S
C110 C109 1.383 . S
C110 C111 1.394 . S
C111 H101 0.929 . S
C111 C107 1.377 . S
C111 C110 1.394 . S
H112 C120 0.950 . S
H113 C125 0.950 . S
H114 C122 0.950 . S
H115 C124 0.950 . S
H116 C126 0.950 . S
H117 C128 0.950 . S
H118 C130 0.950 . S
H119 C131 0.950 . S
C120 H112 0.950 . S
C120 C121 1.386 . S
C120 C122 1.391 . S
C121 C120 1.386 . S
C121 C125 1.393 1_554 S
C122 H114 0.950 . S
C122 C120 1.391 . S
C122 C123 1.400 . S
C123 C122 1.400 . S
C123 C124 1.398 1_554 S
C123 C129 1.491 . S
C124 H115 0.950 . S
C124 C123 1.398 1_556 S
C124 C125 1.391 . S
C125 H113 0.950 . S
C125 C121 1.393 1_556 S
C125 C124 1.391 . S
C126 H116 0.950 . S
C126 C127 1.386 1_556 S
C126 C128 1.391 . S
C127 C126 1.386 1_554 S
C127 C131 1.393 . S
C128 H117 0.950 . S
C128 C126 1.391 . S
C128 C129 1.400 1_556 S
C129 C123 1.491 . S
C129 C128 1.400 1_554 S
C129 C130 1.398 . S
C130 H118 0.950 . S
C130 C129 1.398 . S
C130 C131 1.391 . S
C131 H119 0.950 . S
C131 C127 1.393 . S
C131 C130 1.391 . S
H132 C140 0.950 . S
H133 C145 0.950 . S
H134 C142 0.950 . S
H135 C144 0.950 . S
H136 C146 0.950 . S
H137 C148 0.950 . S
H138 C150 0.950 . S
H139 C151 0.950 . S
C140 H132 0.950 . S
C140 C141 1.386 1_556 S
C140 C142 1.391 . S
C141 C140 1.386 1_554 S
C141 C145 1.393 . S
C142 H134 0.950 . S
C142 C140 1.391 . S
C142 C143 1.400 1_556 S
C143 C142 1.400 1_554 S
C143 C144 1.398 . S
C143 C149 1.491 . S
C144 H135 0.950 . S
C144 C143 1.398 . S
C144 C145 1.391 . S
C145 H133 0.950 . S
C145 C141 1.393 . S
C145 C144 1.391 . S
C146 H136 0.950 . S
C146 C147 1.386 1_554 S
C146 C148 1.391 . S
C147 C146 1.386 1_556 S
C147 C151 1.393 . S
C148 H137 0.950 . S
C148 C146 1.391 . S
C148 C149 1.400 . S
C149 C143 1.491 . S
C149 C148 1.400 . S
C149 C150 1.398 1_554 S
C150 H138 0.950 . S
C150 C149 1.398 1_556 S
C150 C151 1.391 . S
C151 H139 0.950 . S
C151 C147 1.393 . S
C151 C150 1.391 . S
H152 C160 0.950 . S
H153 C165 0.950 . S
H154 C162 0.950 . S
H155 C164 0.950 1_556 S
H156 C166 0.950 . S
H157 C168 0.950 1_556 S
H158 C170 0.950 . S
H159 C171 0.950 . S
C160 H152 0.950 . S
C160 C161 1.386 . S
C160 C162 1.391 . S
C161 C160 1.386 . S
C161 C165 1.393 1_554 S
C162 H154 0.950 . S
C162 C160 1.391 . S
C162 C163 1.400 . S
C163 C162 1.400 . S
C163 C164 1.398 . S
C163 C169 1.491 . S
C164 H155 0.950 1_554 S
C164 C163 1.398 . S
C164 C165 1.391 1_554 S
C165 H153 0.950 . S
C165 C161 1.393 1_556 S
C165 C164 1.391 1_556 S
C166 H156 0.950 . S
C166 C167 1.386 . S
C166 C168 1.391 . S
C167 C166 1.386 . S
C167 C171 1.393 . S
C168 H157 0.950 1_554 S
C168 C166 1.391 . S
C168 C169 1.400 . S
C169 C163 1.491 . S
C169 C168 1.400 . S
C169 C170 1.398 . S
C170 H158 0.950 . S
C170 C169 1.398 . S
C170 C171 1.391 . S
C171 H159 0.950 . S
C171 C167 1.393 . S
C171 C170 1.391 . S
H172 C180 0.950 . S
H173 C185 0.950 . S
H174 C182 0.950 . S
H175 C184 0.950 . S
H176 C186 0.950 . S
H177 C188 0.950 . S
H178 C190 0.950 1_554 S
H179 C191 0.950 1_554 S
C180 H172 0.950 . S
C180 C181 1.386 1_554 S
C180 C182 1.391 . S
C181 C180 1.386 1_556 S
C181 C185 1.393 . S
C182 H174 0.950 . S
C182 C180 1.391 . S
C182 C183 1.400 1_554 S
C183 C182 1.400 1_556 S
C183 C184 1.398 . S
C183 C189 1.491 . S
C184 H175 0.950 . S
C184 C183 1.398 . S
C184 C185 1.391 . S
C185 H173 0.950 . S
C185 C181 1.393 . S
C185 C184 1.391 . S
C186 H176 0.950 . S
C186 C187 1.386 . S
C186 C188 1.391 . S
C187 C186 1.386 . S
C187 C191 1.393 . S
C188 H177 0.950 . S
C188 C186 1.391 . S
C188 C189 1.400 . S
C189 C183 1.491 . S
C189 C188 1.400 . S
C189 C190 1.398 . S
C190 H178 0.950 1_556 S
C190 C189 1.398 . S
C190 C191 1.391 . S
C191 H179 0.950 1_556 S
C191 C187 1.393 . S
C191 C190 1.391 . S
H192 C200 0.950 . S
H193 C205 0.950 . S
H194 C202 0.950 . S
H195 C204 0.950 . S
H196 C206 0.950 . S
H197 C208 0.950 . S
H198 C210 0.950 . S
H199 C211 0.950 . S
C200 H192 0.950 . S
C200 C201 1.386 . S
C200 C202 1.391 . S
C201 C200 1.386 . S
C201 C205 1.393 . S
C202 H194 0.950 . S
C202 C200 1.391 . S
C202 C203 1.400 . S
C203 C202 1.400 . S
C203 C204 1.398 . S
C203 C209 1.491 . S
C204 H195 0.950 . S
C204 C203 1.398 . S
C204 C205 1.391 . S
C205 H193 0.950 . S
C205 C201 1.393 . S
C205 C204 1.391 . S
C206 H196 0.950 . S
C206 C207 1.386 . S
C206 C208 1.391 . S
C207 C206 1.386 . S
C207 C211 1.393 . S
C208 H197 0.950 . S
C208 C206 1.391 . S
C208 C209 1.400 . S
C209 C203 1.491 . S
C209 C208 1.400 . S
C209 C210 1.398 . S
C210 H198 0.950 . S
C210 C209 1.398 . S
C210 C211 1.391 . S
C211 H199 0.950 . S
C211 C207 1.393 . S
C211 C210 1.391 . S
H212 C220 0.950 . S
H213 C225 0.950 . S
H214 C222 0.950 . S
H215 C224 0.950 . S
H216 C226 0.950 . S
H217 C228 0.950 . S
H218 C230 0.950 . S
H219 C231 0.950 . S
C220 H212 0.950 . S
C220 C221 1.386 . S
C220 C222 1.391 . S
C221 C220 1.386 . S
C221 C225 1.393 . S
C222 H214 0.950 . S
C222 C220 1.391 . S
C222 C223 1.400 . S
C223 C222 1.400 . S
C223 C224 1.398 . S
C223 C229 1.491 . S
C224 H215 0.950 . S
C224 C223 1.398 . S
C224 C225 1.391 . S
C225 H213 0.950 . S
C225 C221 1.393 . S
C225 C224 1.391 . S
C226 H216 0.950 . S
C226 C227 1.386 . S
C226 C228 1.391 . S
C227 C226 1.386 . S
C227 C231 1.393 . S
C228 H217 0.950 . S
C228 C226 1.391 . S
C228 C229 1.400 . S
C229 C223 1.491 . S
C229 C228 1.400 . S
C229 C230 1.398 . S
C230 H218 0.950 . S
C230 C229 1.398 . S
C230 C231 1.391 . S
C231 H219 0.950 . S
C231 C227 1.393 . S
C231 C230 1.391 . S
H232 C240 0.950 . S
H233 C245 0.950 . S
H234 C242 0.950 . S
H235 C244 0.950 . S
H236 C246 0.950 . S
H237 C248 0.950 . S
H238 C250 0.950 . S
H239 C251 0.950 . S
C240 H232 0.950 . S
C240 C241 1.386 . S
C240 C242 1.391 . S
C241 C240 1.386 . S
C241 C245 1.393 . S
C242 H234 0.950 . S
C242 C240 1.391 . S
C242 C243 1.400 . S
C243 C242 1.400 . S
C243 C244 1.398 . S
C243 C249 1.491 . S
C244 H235 0.950 . S
C244 C243 1.398 . S
C244 C245 1.391 . S
C245 H233 0.950 . S
C245 C241 1.393 . S
C245 C244 1.391 . S
C246 H236 0.950 . S
C246 C247 1.386 . S
C246 C248 1.391 . S
C247 C246 1.386 . S
C247 C251 1.393 . S
C248 H237 0.950 . S
C248 C246 1.391 . S
C248 C249 1.400 . S
C249 C243 1.491 . S
C249 C248 1.400 . S
C249 C250 1.398 . S
C250 H238 0.950 . S
C250 C249 1.398 . S
C250 C251 1.391 . S
C251 H239 0.950 . S
C251 C247 1.393 . S
C251 C250 1.391 . S
H252 C260 0.950 . S
H253 C265 0.950 . S
H254 C262 0.950 . S
H255 C264 0.950 . S
H256 C266 0.950 . S
H257 C268 0.950 . S
H258 C270 0.950 . S
H259 C271 0.950 . S
C260 H252 0.950 . S
C260 C261 1.386 . S
C260 C262 1.391 . S
C261 C260 1.386 . S
C261 C265 1.393 . S
C262 H254 0.950 . S
C262 C260 1.391 . S
C262 C263 1.400 . S
C263 C262 1.400 . S
C263 C264 1.398 . S
C263 C269 1.491 . S
C264 H255 0.950 . S
C264 C263 1.398 . S
C264 C265 1.391 . S
C265 H253 0.950 . S
C265 C261 1.393 . S
C265 C264 1.391 . S
C266 H256 0.950 . S
C266 C267 1.386 . S
C266 C268 1.391 . S
C267 C266 1.386 . S
C267 C271 1.393 . S
C268 H257 0.950 . S
C268 C266 1.391 . S
C268 C269 1.400 . S
C269 C263 1.491 . S
C269 C268 1.400 . S
C269 C270 1.398 . S
C270 H258 0.950 . S
C270 C269 1.398 . S
C270 C271 1.391 . S
C271 H259 0.950 . S
C271 C267 1.393 . S
C271 C270 1.391 . S
H272 C280 0.950 . S
H273 C285 0.950 . S
H274 C282 0.950 . S
H275 C284 0.950 . S
H276 C286 0.950 . S
H277 C288 0.950 . S
H278 C290 0.950 . S
H279 C291 0.950 . S
C280 H272 0.950 . S
C280 C281 1.386 1_565 S
C280 C282 1.391 . S
C281 C280 1.386 1_545 S
C281 C285 1.393 . S
C282 H274 0.950 . S
C282 C280 1.391 . S
C282 C283 1.400 1_565 S
C283 C282 1.400 1_545 S
C283 C284 1.398 . S
C283 C289 1.491 1_545 S
C284 H275 0.950 . S
C284 C283 1.398 . S
C284 C285 1.391 . S
C285 H273 0.950 . S
C285 C281 1.393 . S
C285 C284 1.391 . S
C286 H276 0.950 . S
C286 C287 1.386 1_545 S
C286 C288 1.391 . S
C287 C286 1.386 1_565 S
C287 C291 1.393 . S
C288 H277 0.950 . S
C288 C286 1.391 . S
C288 C289 1.400 1_545 S
C289 C283 1.491 1_565 S
C289 C288 1.400 1_565 S
C289 C290 1.398 . S
C290 H278 0.950 . S
C290 C289 1.398 . S
C290 C291 1.391 . S
C291 H279 0.950 . S
C291 C287 1.393 . S
C291 C290 1.391 . S
H292 C300 0.950 . S
H293 C305 0.950 . S
H294 C302 0.950 . S
H295 C304 0.950 . S
H296 C306 0.950 . S
H297 C308 0.950 . S
H298 C310 0.950 . S
H299 C311 0.950 . S
C300 H292 0.950 . S
C300 C301 1.386 . S
C300 C302 1.391 . S
C301 C300 1.386 . S
C301 C305 1.393 1_455 S
C302 H294 0.950 . S
C302 C300 1.391 . S
C302 C303 1.400 . S
C303 C302 1.400 . S
C303 C304 1.398 1_455 S
C303 C309 1.491 . S
C304 H295 0.950 . S
C304 C303 1.398 1_655 S
C304 C305 1.391 . S
C305 H293 0.950 . S
C305 C301 1.393 1_655 S
C305 C304 1.391 . S
C306 H296 0.950 . S
C306 C307 1.386 1_655 S
C306 C308 1.391 . S
C307 C306 1.386 1_455 S
C307 C311 1.393 . S
C308 H297 0.950 . S
C308 C306 1.391 . S
C308 C309 1.400 1_655 S
C309 C303 1.491 . S
C309 C308 1.400 1_455 S
C309 C310 1.398 . S
C310 H298 0.950 . S
C310 C309 1.398 . S
C310 C311 1.391 . S
C311 H299 0.950 . S
C311 C307 1.393 . S
C311 C310 1.391 . S
H312 C320 0.950 . S
H313 C325 0.950 . S
H314 C322 0.950 . S
H315 C324 0.950 . S
H316 C326 0.950 . S
H317 C328 0.950 . S
H318 C330 0.950 . S
H319 C331 0.950 . S
C320 H312 0.950 . S
C320 C321 1.386 . S
C320 C322 1.391 . S
C321 C320 1.386 . S
C321 C325 1.393 . S
C322 H314 0.950 . S
C322 C320 1.391 . S
C322 C323 1.400 . S
C323 C322 1.400 . S
C323 C324 1.398 . S
C323 C329 1.491 . S
C324 H315 0.950 . S
C324 C323 1.398 . S
C324 C325 1.391 . S
C325 H313 0.950 . S
C325 C321 1.393 . S
C325 C324 1.391 . S
C326 H316 0.950 . S
C326 C327 1.386 . S
C326 C328 1.391 . S
C327 C326 1.386 . S
C327 C331 1.393 . S
C328 H317 0.950 . S
C328 C326 1.391 . S
C328 C329 1.400 . S
C329 C323 1.491 . S
C329 C328 1.400 . S
C329 C330 1.398 . S
C330 H318 0.950 . S
C330 C329 1.398 . S
C330 C331 1.391 . S
C331 H319 0.950 . S
C331 C327 1.393 . S
C331 C330 1.391 . S
H332 C340 0.950 . S
H333 C345 0.950 . S
H334 C342 0.950 . S
H335 C344 0.950 . S
H336 C346 0.950 . S
H337 C348 0.950 . S
H338 C350 0.950 . S
H339 C351 0.950 . S
C340 H332 0.950 . S
C340 C341 1.386 . S
C340 C342 1.391 . S
C341 C340 1.386 . S
C341 C345 1.393 . S
C342 H334 0.950 . S
C342 C340 1.391 . S
C342 C343 1.400 . S
C343 C342 1.400 . S
C343 C344 1.398 . S
C343 C349 1.491 . S
C344 H335 0.950 . S
C344 C343 1.398 . S
C344 C345 1.391 . S
C345 H333 0.950 . S
C345 C341 1.393 . S
C345 C344 1.391 . S
C346 H336 0.950 . S
C346 C347 1.386 . S
C346 C348 1.391 . S
C347 C346 1.386 . S
C347 C351 1.393 . S
C348 H337 0.950 . S
C348 C346 1.391 . S
C348 C349 1.400 . S
C349 C343 1.491 . S
C349 C348 1.400 . S
C349 C350 1.398 . S
C350 H338 0.950 . S
C350 C349 1.398 . S
C350 C351 1.391 . S
C351 H339 0.950 . S
C351 C347 1.393 . S
C351 C350 1.391 . S
C127 C103 1.287 . S
C121 C27 1.434 . S
C141 N6 1.370 . S
C147 C90 1.289 . S
C161 C16 1.485 . S
C167 C107 1.474 . S
C181 N14 1.432 1_556 S
C187 C94 1.439 . S
C201 C57 1.434 . S
C207 C77 1.286 . S
C221 N36 1.358 . S
C227 C64 1.305 . S
C247 C81 1.476 . S
C241 C46 1.485 . S
C267 C68 1.439 . S
C261 N44 1.423 . S
C281 C10 1.468 . S
C287 C69 1.473 . S
C301 C1 1.551 . S
C307 C82 1.551 . S
C327 C95 1.470 . S
C321 C40 1.474 . S
C341 C31 1.555 . S
C347 C108 1.556 . S
