# Generated by pormake.
# Topology pyr, (3,6)-cn, num edge types: 1
# Building blocks:
#     Node 0, Type 0, BuildingBlock: VETTIZ_charged_linker_0, # of connection points: 3
#     Node 1, Type 0, BuildingBlock: VETTIZ_charged_linker_0, # of connection points: 3
#     Node 2, Type 0, BuildingBlock: VETTIZ_charged_linker_0, # of connection points: 3
#     Node 3, Type 0, BuildingBlock: VETTIZ_charged_linker_0, # of connection points: 3
#     Node 4, Type 0, BuildingBlock: VETTIZ_charged_linker_0, # of connection points: 3
#     Node 5, Type 0, BuildingBlock: VETTIZ_charged_linker_0, # of connection points: 3
#     Node 6, Type 0, BuildingBlock: VETTIZ_charged_linker_0, # of connection points: 3
#     Node 7, Type 0, BuildingBlock: VETTIZ_charged_linker_0, # of connection points: 3
#     Node 8, Type 1, BuildingBlock: MIDCAF_clean_sbu_0, # of connection points: 6
#     Node 9, Type 1, BuildingBlock: MIDCAF_clean_sbu_0, # of connection points: 6
#     Node 10, Type 1, BuildingBlock: MIDCAF_clean_sbu_0, # of connection points: 6
#     Node 11, Type 1, BuildingBlock: MIDCAF_clean_sbu_0, # of connection points: 6
#     Edge 12, Type (0, 1), BuildingBlock: ZUJKAS_clean_linker_0, # of connection points: 2
#     Edge 13, Type (0, 1), BuildingBlock: ZUJKAS_clean_linker_0, # of connection points: 2
#     Edge 14, Type (0, 1), BuildingBlock: ZUJKAS_clean_linker_0, # of connection points: 2
#     Edge 15, Type (0, 1), BuildingBlock: ZUJKAS_clean_linker_0, # of connection points: 2
#     Edge 16, Type (0, 1), BuildingBlock: ZUJKAS_clean_linker_0, # of connection points: 2
#     Edge 17, Type (0, 1), BuildingBlock: ZUJKAS_clean_linker_0, # of connection points: 2
#     Edge 18, Type (0, 1), BuildingBlock: ZUJKAS_clean_linker_0, # of connection points: 2
#     Edge 19, Type (0, 1), BuildingBlock: ZUJKAS_clean_linker_0, # of connection points: 2
#     Edge 20, Type (0, 1), BuildingBlock: ZUJKAS_clean_linker_0, # of connection points: 2
#     Edge 21, Type (0, 1), BuildingBlock: ZUJKAS_clean_linker_0, # of connection points: 2
#     Edge 22, Type (0, 1), BuildingBlock: ZUJKAS_clean_linker_0, # of connection points: 2
#     Edge 23, Type (0, 1), BuildingBlock: ZUJKAS_clean_linker_0, # of connection points: 2
#     Edge 24, Type (0, 1), BuildingBlock: ZUJKAS_clean_linker_0, # of connection points: 2
#     Edge 25, Type (0, 1), BuildingBlock: ZUJKAS_clean_linker_0, # of connection points: 2
#     Edge 26, Type (0, 1), BuildingBlock: ZUJKAS_clean_linker_0, # of connection points: 2
#     Edge 27, Type (0, 1), BuildingBlock: ZUJKAS_clean_linker_0, # of connection points: 2
#     Edge 28, Type (0, 1), BuildingBlock: ZUJKAS_clean_linker_0, # of connection points: 2
#     Edge 29, Type (0, 1), BuildingBlock: ZUJKAS_clean_linker_0, # of connection points: 2
#     Edge 30, Type (0, 1), BuildingBlock: ZUJKAS_clean_linker_0, # of connection points: 2
#     Edge 31, Type (0, 1), BuildingBlock: ZUJKAS_clean_linker_0, # of connection points: 2
#     Edge 32, Type (0, 1), BuildingBlock: ZUJKAS_clean_linker_0, # of connection points: 2
#     Edge 33, Type (0, 1), BuildingBlock: ZUJKAS_clean_linker_0, # of connection points: 2
#     Edge 34, Type (0, 1), BuildingBlock: ZUJKAS_clean_linker_0, # of connection points: 2
#     Edge 35, Type (0, 1), BuildingBlock: ZUJKAS_clean_linker_0, # of connection points: 2
# Relax obj value: 0.019
# Max RMSD: 0.063
# Mean RMSD: 0.021
data_MOF--net-pry--node1-MIDCAF_clean_sbu_0--node2-VETTIZ_charged_linker_0--edge1-ZUJKAS_clean_linker_0
_symmetry_space_group_name_H-M    P1
_symmetry_Int_Tables_number       1
_symmetry_cell_setting            triclinic
loop_
_symmetry_equiv_pos_as_xyz
'x, y, z'
_cell_length_a     54.169945
_cell_length_b     54.219182
_cell_length_c     54.193547
_cell_angle_alpha  89.959498
_cell_angle_beta   90.055985
_cell_angle_gamma 90.093506
loop_
_atom_site_label
_atom_site_type_symbol
_atom_site_fract_x
_atom_site_fract_y
_atom_site_fract_z
_atom_type_partial_charge
C0 C 0.18956 0.19112 0.29993 0.0
C1 C 0.1696 0.20384 0.31064 0.0
C2 C 0.16203 0.22636 0.29997 0.0
C3 C 0.19349 0.22267 0.26835 0.0
C4 C 0.20123 0.20088 0.27904 0.0
C5 C 0.22283 0.18973 0.26568 0.0
H6 H 0.30344 0.19372 0.17038 0.0
C7 C 0.20924 0.22744 0.24656 0.0
C8 C 0.2266 0.20827 0.24503 0.0
H9 H 0.29909 0.13941 0.2287 0.0
H10 H 0.26519 0.16158 0.24718 0.0
H11 H 0.29631 0.2408 0.20477 0.0
H12 H 0.24504 0.19799 0.16175 0.0
H13 H 0.23701 0.2291 0.15788 0.0
H14 H 0.26699 0.21863 0.14798 0.0
H15 H 0.29497 0.24273 0.17173 0.0
H16 H 0.27568 0.26169 0.19109 0.0
C17 C 0.24511 0.18903 0.28364 0.0
C18 C 0.21484 0.16416 0.2557 0.0
C19 C 0.19167 0.30103 0.19093 0.0
C20 C 0.20244 0.30952 0.16885 0.0
C21 C 0.22302 0.29687 0.15926 0.0
C22 C 0.23248 0.27597 0.17119 0.0
C23 C 0.22123 0.26746 0.19295 0.0
C24 C 0.20129 0.28005 0.20258 0.0
C25 C 0.19162 0.26821 0.22579 0.0
C26 C 0.20896 0.24637 0.2284 0.0
C27 C 0.22622 0.24602 0.20908 0.0
C28 C 0.19465 0.28683 0.24726 0.0
C29 C 0.16466 0.25994 0.22098 0.0
C30 C 0.29509 0.18649 0.18705 0.0
C31 C 0.30393 0.16471 0.19803 0.0
C32 C 0.29279 0.15624 0.21998 0.0
C33 C 0.27301 0.16909 0.23061 0.0
C34 C 0.26424 0.1907 0.21924 0.0
C35 C 0.27537 0.19911 0.1979 0.0
C36 C 0.26377 0.22245 0.18842 0.0
C37 C 0.24386 0.22673 0.20762 0.0
C38 C 0.24412 0.20802 0.22555 0.0
C39 C 0.28361 0.24308 0.18878 0.0
C40 C 0.25271 0.21702 0.16259 0.0
H41 H 0.1671 0.25294 0.2717 0.0
H42 H 0.19578 0.17365 0.30734 0.0
H43 H 0.19556 0.16479 0.24863 0.0
H44 H 0.22605 0.1579 0.23993 0.0
H45 H 0.2156 0.14994 0.27045 0.0
H46 H 0.2446 0.20487 0.29669 0.0
H47 H 0.24509 0.17184 0.29479 0.0
H48 H 0.26304 0.19085 0.2741 0.0
H49 H 0.17566 0.31012 0.19867 0.0
H50 H 0.23187 0.30317 0.14248 0.0
H51 H 0.24811 0.26716 0.16286 0.0
H52 H 0.21135 0.29852 0.24462 0.0
H53 H 0.17847 0.29932 0.24852 0.0
H54 H 0.19753 0.27773 0.26529 0.0
H55 H 0.1627 0.25218 0.20207 0.0
H56 H 0.15846 0.2451 0.23346 0.0
H57 H 0.15173 0.27574 0.22257 0.0
H58 H 0.14706 0.23684 0.30799 0.0
C59 C 0.17382 0.23579 0.27894 0.0
C60 C 0.24169 0.85197 0.68569 0.0
C61 C 0.23201 0.87289 0.69767 0.0
C62 C 0.24333 0.88099 0.7197 0.0
C63 C 0.27371 0.84827 0.71691 0.0
C64 C 0.26238 0.83999 0.69562 0.0
C65 C 0.27495 0.81756 0.68515 0.0
H66 H 0.3685 0.73488 0.69061 0.0
C67 C 0.29514 0.83212 0.72196 0.0
C68 C 0.2959 0.81399 0.70347 0.0
H69 H 0.30833 0.73765 0.63812 0.0
H70 H 0.29181 0.77341 0.65864 0.0
H71 H 0.37857 0.79291 0.69255 0.0
H72 H 0.33469 0.74519 0.73857 0.0
H73 H 0.35029 0.76592 0.75803 0.0
H74 H 0.36782 0.74491 0.73915 0.0
H75 H 0.39214 0.77157 0.71394 0.0
H76 H 0.38315 0.8022 0.72325 0.0
C77 C 0.28461 0.82413 0.65907 0.0
C78 C 0.25636 0.79579 0.68574 0.0
C79 C 0.35154 0.8507 0.79475 0.0
C80 C 0.37347 0.83988 0.80349 0.0
C81 C 0.38289 0.81902 0.79116 0.0
C82 C 0.37078 0.80921 0.77046 0.0
C83 C 0.34901 0.82039 0.76182 0.0
C84 C 0.33973 0.84076 0.77398 0.0
C85 C 0.31669 0.85055 0.76196 0.0
C86 C 0.31359 0.83266 0.74063 0.0
C87 C 0.33256 0.81502 0.74063 0.0
C88 C 0.32205 0.87715 0.75291 0.0
C89 C 0.29524 0.84848 0.78076 0.0
C90 C 0.3516 0.74296 0.68366 0.0
C91 C 0.3398 0.73328 0.66259 0.0
C92 C 0.31806 0.74481 0.65404 0.0
C93 C 0.30836 0.76554 0.66611 0.0
C94 C 0.32043 0.77496 0.68706 0.0
C95 C 0.34161 0.7636 0.69556 0.0
C96 C 0.35185 0.776 0.71822 0.0
C97 C 0.33326 0.79659 0.722 0.0
C98 C 0.31497 0.796 0.7036 0.0
C99 C 0.37786 0.78612 0.71192 0.0
C100 C 0.35138 0.75712 0.7397 0.0
H101 H 0.2718 0.87604 0.74607 0.0
H102 H 0.2337 0.84528 0.66864 0.0
H103 H 0.24366 0.79734 0.70179 0.0
H104 H 0.26544 0.77772 0.68813 0.0
H105 H 0.24486 0.79539 0.66877 0.0
H106 H 0.29239 0.84314 0.65879 0.0
H107 H 0.26951 0.82334 0.64521 0.0
H108 H 0.29981 0.8121 0.65293 0.0
H109 H 0.34399 0.86697 0.80351 0.0
H110 H 0.39962 0.81018 0.79761 0.0
H111 H 0.37892 0.79335 0.76191 0.0
H112 H 0.34125 0.87874 0.74581 0.0
H113 H 0.31995 0.89067 0.76814 0.0
H114 H 0.31024 0.88282 0.73731 0.0
H115 H 0.29736 0.8318 0.79255 0.0
H116 H 0.27703 0.84622 0.77183 0.0
H117 H 0.2947 0.86478 0.79315 0.0
H118 H 0.23608 0.89671 0.72963 0.0
C119 C 0.26405 0.86885 0.72933 0.0
C120 C 0.70998 0.24223 0.85957 0.0
C121 C 0.68917 0.22834 0.85251 0.0
C122 C 0.67682 0.2346 0.83043 0.0
C123 C 0.70558 0.26817 0.82323 0.0
C124 C 0.7178 0.26194 0.84474 0.0
C125 C 0.73936 0.27871 0.84983 0.0
H126 H 0.8078 0.37834 0.81788 0.0
C127 C 0.71826 0.28976 0.81228 0.0
C128 C 0.73815 0.29594 0.82777 0.0
H129 H 0.81635 0.33114 0.88167 0.0
H130 H 0.78247 0.30581 0.86785 0.0
H131 H 0.74854 0.3802 0.81943 0.0
H132 H 0.79964 0.33503 0.77902 0.0
H133 H 0.77465 0.34051 0.75914 0.0
H134 H 0.79299 0.36617 0.77001 0.0
H135 H 0.76754 0.39183 0.7949 0.0
H136 H 0.73781 0.37819 0.78888 0.0
C137 C 0.73432 0.29241 0.87442 0.0
C138 C 0.7632 0.26296 0.84975 0.0
C139 C 0.68502 0.32936 0.73369 0.0
C140 C 0.69289 0.34968 0.71948 0.0
C141 C 0.71477 0.36206 0.72638 0.0
C142 C 0.72812 0.35491 0.74732 0.0
C143 C 0.71965 0.33508 0.76168 0.0
C144 C 0.69866 0.32239 0.75459 0.0
C145 C 0.69283 0.30142 0.7719 0.0
C146 C 0.71356 0.30391 0.79068 0.0
C147 C 0.72907 0.3238 0.78466 0.0
C148 C 0.66721 0.30633 0.78356 0.0
C149 C 0.69457 0.27698 0.7572 0.0
C150 C 0.80255 0.36239 0.82872 0.0
C151 C 0.81471 0.35686 0.85099 0.0
C152 C 0.80706 0.33606 0.86465 0.0
C153 C 0.78741 0.32129 0.85655 0.0
C154 C 0.7751 0.32735 0.83454 0.0
C155 C 0.78285 0.34749 0.82093 0.0
C156 C 0.76746 0.35124 0.79811 0.0
C157 C 0.74912 0.33013 0.80037 0.0
C158 C 0.75365 0.31624 0.82176 0.0
C159 C 0.7547 0.37672 0.80016 0.0
C160 C 0.78443 0.3483 0.77528 0.0
H161 H 0.67458 0.25826 0.79935 0.0
H162 H 0.72008 0.23783 0.87625 0.0
H163 H 0.76201 0.24804 0.83571 0.0
H164 H 0.7798 0.27365 0.84464 0.0
H165 H 0.76628 0.25411 0.86798 0.0
H166 H 0.71432 0.29655 0.87651 0.0
H167 H 0.74002 0.28106 0.89052 0.0
H168 H 0.74353 0.31055 0.87549 0.0
H169 H 0.66829 0.31944 0.72904 0.0
H170 H 0.72165 0.37737 0.71552 0.0
H171 H 0.74445 0.36527 0.75159 0.0
H172 H 0.66493 0.32627 0.78783 0.0
H173 H 0.65211 0.3009 0.77079 0.0
H174 H 0.66456 0.29677 0.80134 0.0
H175 H 0.7092 0.27809 0.74285 0.0
H176 H 0.6999 0.26112 0.76883 0.0
H177 H 0.67687 0.27274 0.74773 0.0
H178 H 0.66054 0.22451 0.82468 0.0
C179 C 0.68491 0.25436 0.81579 0.0
C180 C 0.85313 0.79593 0.35243 0.0
C181 C 0.84234 0.80521 0.37415 0.0
C182 C 0.82128 0.79332 0.38379 0.0
C183 C 0.82244 0.76325 0.3507 0.0
C184 C 0.84293 0.77502 0.34109 0.0
C185 C 0.85239 0.76254 0.31817 0.0
H186 H 0.84325 0.66913 0.23566 0.0
C187 C 0.81672 0.74186 0.33475 0.0
C188 C 0.83415 0.74137 0.31559 0.0
H189 H 0.89696 0.72824 0.2372 0.0
H190 H 0.87756 0.74521 0.27344 0.0
H191 H 0.84317 0.65892 0.29378 0.0
H192 H 0.7961 0.70336 0.24766 0.0
H193 H 0.77713 0.68858 0.26941 0.0
H194 H 0.79454 0.67029 0.24774 0.0
H195 H 0.82142 0.64576 0.2725 0.0
H196 H 0.81257 0.65414 0.30343 0.0
C197 C 0.87892 0.75325 0.32343 0.0
C198 C 0.85042 0.78102 0.29645 0.0
C199 C 0.74526 0.68516 0.35679 0.0
C200 C 0.73548 0.66375 0.34583 0.0
C201 C 0.74606 0.65504 0.32373 0.0
C202 C 0.76627 0.6672 0.31298 0.0
C203 C 0.77604 0.68837 0.32438 0.0
C204 C 0.76538 0.69711 0.34581 0.0
C205 C 0.77799 0.71996 0.35526 0.0
C206 C 0.79811 0.72341 0.33609 0.0
C207 C 0.79697 0.70481 0.31811 0.0
C208 C 0.78877 0.71413 0.38112 0.0
C209 C 0.75907 0.74138 0.35483 0.0
C210 C 0.85067 0.68592 0.24358 0.0
C211 C 0.87172 0.69733 0.23344 0.0
C212 C 0.88097 0.71889 0.24473 0.0
C213 C 0.86958 0.7288 0.26574 0.0
C214 C 0.84869 0.71705 0.27572 0.0
C215 C 0.83953 0.69603 0.26457 0.0
C216 C 0.81728 0.68591 0.27777 0.0
C217 C 0.81461 0.70429 0.29871 0.0
C218 C 0.83308 0.72248 0.29745 0.0
C219 C 0.82368 0.65974 0.28731 0.0
C220 C 0.79502 0.68684 0.25981 0.0
H221 H 0.79528 0.76428 0.38051 0.0
H222 H 0.86949 0.80441 0.34468 0.0
H223 H 0.83357 0.7926 0.29823 0.0
H224 H 0.84854 0.77188 0.27835 0.0
H225 H 0.86661 0.79361 0.29598 0.0
H226 H 0.88066 0.74664 0.3428 0.0
H227 H 0.89268 0.76821 0.32071 0.0
H228 H 0.88415 0.73726 0.31199 0.0
H229 H 0.73734 0.69258 0.37356 0.0
H230 H 0.73903 0.63849 0.315 0.0
H231 H 0.77362 0.6595 0.29631 0.0
H232 H 0.79602 0.69494 0.38184 0.0
H233 H 0.77443 0.71587 0.39565 0.0
H234 H 0.80467 0.72589 0.38602 0.0
H235 H 0.74599 0.73937 0.3391 0.0
H236 H 0.76778 0.7596 0.35201 0.0
H237 H 0.74799 0.74179 0.37206 0.0
H238 H 0.81241 0.80023 0.40029 0.0
C239 C 0.81128 0.77247 0.37219 0.0
C240 C 0.92349 0.83831 0.9602 0.0
C241 C 0.94422 0.82356 0.95513 0.0
C242 C 0.96054 0.83098 0.93622 0.0
C243 C 0.93513 0.86669 0.92748 0.0
C244 C 0.9193 0.85962 0.94619 0.0
C245 C 0.8976 0.8767 0.94857 0.0
H246 H 0.83412 0.97613 0.90757 0.0
C247 C 0.92512 0.88934 0.91605 0.0
C248 C 0.90316 0.89534 0.9284 0.0
H249 H 0.81352 0.92424 0.96449 0.0
H250 H 0.85201 0.90259 0.95929 0.0
H251 H 0.8538 0.93546 0.87058 0.0
H252 H 0.89232 0.98111 0.92297 0.0
H253 H 0.91092 0.97933 0.8965 0.0
H254 H 0.88063 0.99304 0.89437 0.0
H255 H 0.85832 0.96795 0.866 0.0
H256 H 0.881 0.94573 0.8563 0.0
C257 C 0.87374 0.86172 0.94317 0.0
C258 C 0.89852 0.8886 0.97453 0.0
C259 C 0.96786 0.92753 0.84164 0.0
C260 C 0.96261 0.94839 0.8271 0.0
C261 C 0.94266 0.96367 0.83379 0.0
C262 C 0.92781 0.95799 0.85415 0.0
C263 C 0.93279 0.9367 0.86801 0.0
C264 C 0.95283 0.92214 0.86202 0.0
C265 C 0.95555 0.90054 0.87926 0.0
C266 C 0.93347 0.90422 0.89613 0.0
C267 C 0.92009 0.92532 0.88929 0.0
C268 C 0.95331 0.87656 0.86389 0.0
C269 C 0.98033 0.90339 0.89329 0.0
C270 C 0.83817 0.96027 0.91905 0.0
C271 C 0.82091 0.95177 0.93642 0.0
C272 C 0.82655 0.93092 0.95087 0.0
C273 C 0.84889 0.91839 0.94781 0.0
C274 C 0.8657 0.92655 0.92985 0.0
C275 C 0.8603 0.94722 0.91589 0.0
C276 C 0.8799 0.9524 0.8969 0.0
C277 C 0.89784 0.93139 0.90174 0.0
C278 C 0.88944 0.91643 0.92114 0.0
C279 C 0.8678 0.9505 0.87102 0.0
C280 C 0.89155 0.97785 0.90271 0.0
H281 H 0.96914 0.85688 0.9082 0.0
H282 H 0.91066 0.83338 0.97471 0.0
H283 H 0.91783 0.89344 0.97962 0.0
H284 H 0.88818 0.90609 0.97562 0.0
H285 H 0.89134 0.87573 0.98878 0.0
H286 H 0.87746 0.84598 0.93055 0.0
H287 H 0.86572 0.85403 0.96039 0.0
H288 H 0.85953 0.87268 0.93347 0.0
H289 H 0.98323 0.91559 0.83718 0.0
H290 H 0.938 0.9797 0.82279 0.0
H291 H 0.91273 0.97018 0.85801 0.0
H292 H 0.93897 0.87856 0.84931 0.0
H293 H 0.97104 0.87211 0.85463 0.0
H294 H 0.94739 0.86049 0.87491 0.0
H295 H 0.9847 0.92317 0.89664 0.0
H296 H 0.97993 0.89497 0.91186 0.0
H297 H 0.99585 0.89538 0.8826 0.0
H298 H 0.97644 0.81984 0.93156 0.0
C299 C 0.95616 0.85244 0.92248 0.0
C300 C 0.70665 0.09735 0.43696 0.0
C301 C 0.71651 0.07747 0.42347 0.0
C302 C 0.70341 0.06865 0.40277 0.0
C303 C 0.67186 0.09978 0.40874 0.0
C304 C 0.68443 0.10816 0.4293 0.0
C305 C 0.67179 0.12983 0.44117 0.0
H306 H 0.57898 0.21345 0.43937 0.0
C307 C 0.64986 0.11553 0.40526 0.0
C308 C 0.64965 0.13314 0.42427 0.0
H309 H 0.63926 0.20842 0.49152 0.0
H310 H 0.65424 0.17189 0.47091 0.0
H311 H 0.56714 0.15468 0.43667 0.0
H312 H 0.61118 0.20376 0.39237 0.0
H313 H 0.59658 0.1833 0.37197 0.0
H314 H 0.57809 0.2035 0.39083 0.0
H315 H 0.55387 0.17742 0.41658 0.0
H316 H 0.56185 0.14707 0.40558 0.0
C317 C 0.66397 0.12223 0.46759 0.0
C318 C 0.68956 0.15223 0.44009 0.0
C319 C 0.59404 0.10209 0.33091 0.0
C320 C 0.57307 0.11454 0.32198 0.0
C321 C 0.56348 0.13439 0.33575 0.0
C322 C 0.57471 0.14187 0.35784 0.0
C323 C 0.59593 0.12954 0.36628 0.0
C324 C 0.60514 0.1099 0.35294 0.0
C325 C 0.62806 0.09924 0.36445 0.0
C326 C 0.63114 0.11577 0.38686 0.0
C327 C 0.61228 0.13348 0.38783 0.0
C328 C 0.62252 0.07219 0.37188 0.0
C329 C 0.64959 0.10232 0.34587 0.0
C330 C 0.59549 0.2046 0.44634 0.0
C331 C 0.60802 0.21405 0.46706 0.0
C332 C 0.62912 0.20151 0.47574 0.0
C333 C 0.63791 0.18038 0.46361 0.0
C334 C 0.62554 0.17165 0.4425 0.0
C335 C 0.60456 0.18364 0.43437 0.0
C336 C 0.59393 0.17211 0.41147 0.0
C337 C 0.61199 0.15122 0.4071 0.0
C338 C 0.6305 0.15102 0.42529 0.0
C339 C 0.56774 0.1624 0.41765 0.0
C340 C 0.59473 0.19157 0.39049 0.0
H341 H 0.67223 0.07211 0.37941 0.0
H342 H 0.71633 0.10479 0.45279 0.0
H343 H 0.70016 0.1523 0.42251 0.0
H344 H 0.67987 0.17011 0.44038 0.0
H345 H 0.70307 0.1517 0.45551 0.0
H346 H 0.65785 0.10263 0.46805 0.0
H347 H 0.67958 0.1242 0.48075 0.0
H348 H 0.64804 0.13283 0.4745 0.0
H349 H 0.60209 0.08698 0.32064 0.0
H350 H 0.5472 0.14411 0.32943 0.0
H351 H 0.56655 0.15714 0.36739 0.0
H352 H 0.6031 0.07013 0.37824 0.0
H353 H 0.62519 0.0595 0.35602 0.0
H354 H 0.63385 0.0658 0.38757 0.0
H355 H 0.64786 0.11995 0.3355 0.0
H356 H 0.66785 0.10339 0.35486 0.0
H357 H 0.64974 0.08708 0.33219 0.0
H358 H 0.71035 0.05316 0.39226 0.0
C359 C 0.68119 0.07963 0.39538 0.0
C360 C 0.46002 0.62953 0.20535 0.0
C361 C 0.45228 0.61237 0.22316 0.0
C362 C 0.43172 0.59724 0.21828 0.0
C363 C 0.42626 0.6169 0.17853 0.0
C364 C 0.44657 0.63166 0.18329 0.0
C365 C 0.45088 0.65025 0.1631 0.0
H366 H 0.4118 0.70427 0.05733 0.0
C367 C 0.41568 0.62444 0.15456 0.0
C368 C 0.42994 0.64406 0.14543 0.0
H369 H 0.47392 0.72458 0.10332 0.0
H370 H 0.46631 0.68963 0.12958 0.0
H371 H 0.37501 0.69234 0.1015 0.0
H372 H 0.42233 0.64533 0.05849 0.0
H373 H 0.39485 0.62892 0.06369 0.0
H374 H 0.39395 0.65741 0.04644 0.0
H375 H 0.3692 0.68536 0.06964 0.0
H376 H 0.3582 0.66562 0.09401 0.0
C377 C 0.44812 0.67639 0.17437 0.0
C378 C 0.47645 0.64506 0.15148 0.0
C379 C 0.33852 0.58175 0.12229 0.0
C380 C 0.32378 0.58533 0.1012 0.0
C381 C 0.33102 0.60329 0.08376 0.0
C382 C 0.35219 0.61771 0.08748 0.0
C383 C 0.36634 0.61434 0.10895 0.0
C384 C 0.35959 0.59638 0.12576 0.0
C385 C 0.37674 0.59548 0.14758 0.0
C386 C 0.39487 0.61586 0.14108 0.0
C387 C 0.38861 0.62694 0.11852 0.0
C388 C 0.36162 0.60159 0.1711 0.0
C389 C 0.3893 0.56983 0.14792 0.0
C390 C 0.42374 0.70121 0.07307 0.0
C391 C 0.44346 0.71735 0.0782 0.0
C392 C 0.45879 0.71236 0.09868 0.0
C393 C 0.45418 0.69215 0.11413 0.0
C394 C 0.4339 0.67674 0.10927 0.0
C395 C 0.41932 0.68112 0.08879 0.0
C396 C 0.39856 0.66278 0.08657 0.0
C397 C 0.40276 0.64707 0.10942 0.0
C398 C 0.42343 0.65541 0.12269 0.0
C399 C 0.37385 0.67709 0.08781 0.0
C400 C 0.40235 0.64785 0.06251 0.0
H401 H 0.40323 0.58729 0.19347 0.0
H402 H 0.47562 0.64155 0.20888 0.0
H403 H 0.47985 0.62486 0.15021 0.0
H404 H 0.47803 0.65192 0.13236 0.0
H405 H 0.49151 0.65321 0.16279 0.0
H406 H 0.4341 0.67649 0.18936 0.0
H407 H 0.46583 0.68292 0.1824 0.0
H408 H 0.44139 0.69019 0.16099 0.0
H409 H 0.33369 0.56797 0.13594 0.0
H410 H 0.3199 0.60673 0.0675 0.0
H411 H 0.35647 0.63125 0.07368 0.0
H412 H 0.34593 0.61411 0.1668 0.0
H413 H 0.3538 0.58462 0.17955 0.0
H414 H 0.37249 0.61166 0.18511 0.0
H415 H 0.39395 0.5638 0.12886 0.0
H416 H 0.40703 0.56976 0.15798 0.0
H417 H 0.37692 0.55567 0.15609 0.0
H418 H 0.42559 0.58388 0.23184 0.0
C419 C 0.41878 0.59927 0.19601 0.0
C420 C 0.10386 0.33042 0.59747 0.0
C421 C 0.11605 0.32196 0.57622 0.0
C422 C 0.13509 0.33641 0.56595 0.0
C423 C 0.13042 0.36648 0.59883 0.0
C424 C 0.1112 0.35265 0.60832 0.0
C425 C 0.10001 0.36416 0.63091 0.0
H426 H 0.10223 0.45361 0.71771 0.0
C427 C 0.13391 0.38815 0.61508 0.0
C428 C 0.11596 0.38699 0.63374 0.0
H429 H 0.05142 0.39231 0.71148 0.0
H430 H 0.07145 0.37923 0.674 0.0
H431 H 0.10171 0.46827 0.65924 0.0
H432 H 0.14996 0.42364 0.70384 0.0
H433 H 0.1687 0.44039 0.68343 0.0
H434 H 0.14995 0.45669 0.70551 0.0
H435 H 0.12265 0.48127 0.68139 0.0
H436 H 0.13216 0.47481 0.65016 0.0
C437 C 0.07278 0.37074 0.62503 0.0
C438 C 0.10338 0.34599 0.65275 0.0
C439 C 0.20652 0.446 0.60118 0.0
C440 C 0.2155 0.46664 0.61416 0.0
C441 C 0.20198 0.47548 0.63453 0.0
C442 C 0.18024 0.46366 0.64217 0.0
C443 C 0.17192 0.44265 0.62944 0.0
C444 C 0.18484 0.43434 0.60911 0.0
C445 C 0.17338 0.41164 0.59794 0.0
C446 C 0.15166 0.40747 0.61514 0.0
C447 C 0.15094 0.42566 0.63358 0.0
C448 C 0.16486 0.41799 0.57138 0.0
C449 C 0.19245 0.39043 0.59948 0.0
C450 C 0.09517 0.43758 0.70808 0.0
C451 C 0.07519 0.42397 0.71763 0.0
C452 C 0.06693 0.40296 0.7047 0.0
C453 C 0.07855 0.39544 0.68286 0.0
C454 C 0.09879 0.40897 0.67383 0.0
C455 C 0.10664 0.42978 0.68629 0.0
C456 C 0.12863 0.44167 0.67416 0.0
C457 C 0.13259 0.42464 0.65229 0.0
C458 C 0.11514 0.40547 0.65227 0.0
C459 C 0.12115 0.46797 0.66588 0.0
C460 C 0.15052 0.44081 0.69259 0.0
H461 H 0.15723 0.36863 0.56873 0.0
H462 H 0.08881 0.31995 0.60547 0.0
H463 H 0.12165 0.33669 0.65172 0.0
H464 H 0.10321 0.35514 0.67092 0.0
H465 H 0.08894 0.33142 0.65251 0.0
H466 H 0.07048 0.37577 0.60525 0.0
H467 H 0.06031 0.35493 0.62889 0.0
H468 H 0.06625 0.38709 0.63528 0.0
H469 H 0.21657 0.43854 0.58562 0.0
H470 H 0.20828 0.49153 0.64464 0.0
H471 H 0.17093 0.47119 0.65792 0.0
H472 H 0.15892 0.43758 0.57001 0.0
H473 H 0.18002 0.41519 0.55789 0.0
H474 H 0.14855 0.4072 0.56553 0.0
H475 H 0.20233 0.39085 0.61748 0.0
H476 H 0.18399 0.37196 0.59847 0.0
H477 H 0.20648 0.39209 0.58463 0.0
H478 H 0.14468 0.33025 0.54955 0.0
C479 C 0.14238 0.3586 0.57718 0.0
Zn480 Zn 0.98186 0.05876 0.5537 0.0
Zn481 Zn 0.04192 1.00083 0.4988 0.0
Zn482 Zn 0.01148 0.02968 0.52672 0.0
C483 C 0.05276 0.05033 0.48804 0.0
C484 C 0.99244 0.98929 0.4868 0.0
O485 O 0.01699 0.02015 0.56609 0.0
O486 O 0.99338 0.0466 0.5863 0.0
C487 C 0.01318 0.0897 0.52717 0.0
O488 O 0.0353 0.05369 0.50383 0.0
O489 O 0.05993 0.02879 0.48282 0.0
O490 O 0.01439 0.98421 0.48079 0.0
O491 O 0.98806 0.0058 0.50333 0.0
O492 O 0.99475 0.09075 0.54135 0.0
O493 O 0.02179 0.06869 0.52016 0.0
O494 O 0.97264 0.02336 0.515 0.0
O495 O 0.95017 0.04645 0.54006 0.0
C496 C 0.95149 0.03146 0.52229 0.0
O497 O 0.03414 0.00678 0.55196 0.0
O498 O 0.0572 0.98356 0.52751 0.0
C499 C 0.00852 0.02892 0.58649 0.0
C500 C 0.05078 0.99007 0.54895 0.0
Zn501 Zn 0.49611 0.04259 0.99703 0.0
Zn502 Zn 0.55451 0.98554 0.05348 0.0
Zn503 Zn 0.52581 0.01389 0.02505 0.0
C504 C 0.58548 0.01222 0.02186 0.0
C505 C 0.52305 0.95397 0.02757 0.0
O506 O 0.50251 0.03647 0.04981 0.0
O507 O 0.47934 0.0593 0.02506 0.0
C508 C 0.54527 0.054 0.98478 0.0
O509 O 0.56459 0.0204 0.01394 0.0
O510 O 0.58631 0.99709 0.03956 0.0
O511 O 0.54087 0.95333 0.0426 0.0
O512 O 0.51522 0.97478 0.01912 0.0
O513 O 0.52334 0.05977 0.97935 0.0
O514 O 0.54957 0.03724 1.00113 0.0
O515 O 0.50251 0.98946 1.00176 0.0
O516 O 0.47899 0.01487 0.98006 0.0
C517 C 0.48573 0.99319 0.98527 0.0
O518 O 0.52075 0.0248 0.0644 0.0
O519 O 0.54425 0.99912 0.08575 0.0
C520 C 0.48542 0.0527 0.04657 0.0
C521 C 0.52952 0.01714 0.08518 0.0
Zn522 Zn 0.53949 0.53807 0.54474 0.0
Zn523 Zn 0.48401 0.48248 0.48236 0.0
Zn524 Zn 0.51196 0.50927 0.51341 0.0
C525 C 0.51576 0.44992 0.50733 0.0
C526 C 0.50961 0.5162 0.45355 0.0
O527 O 0.48699 0.53209 0.53671 0.0
O528 O 0.51109 0.55521 0.56032 0.0
C529 C 0.5508 0.4878 0.55334 0.0
O530 O 0.52214 0.46984 0.51866 0.0
O531 O 0.49989 0.45057 0.49027 0.0
O532 O 0.49403 0.49901 0.45145 0.0
O533 O 0.51823 0.52211 0.47493 0.0
O534 O 0.55446 0.50913 0.56201 0.0
O535 O 0.53618 0.48452 0.53485 0.0
O536 O 0.53559 0.5332 0.49066 0.0
O537 O 0.55793 0.55484 0.51725 0.0
C538 C 0.55258 0.54922 0.49523 0.0
O539 O 0.473 0.514 0.52426 0.0
O540 O 0.45179 0.49102 0.49792 0.0
C541 C 0.48976 0.54903 0.55321 0.0
C542 C 0.45231 0.50518 0.51642 0.0
Zn543 Zn 0.0585 0.55601 0.98474 0.0
Zn544 Zn 0.99949 0.49809 0.04101 0.0
Zn545 Zn 0.02896 0.5276 0.01302 0.0
C546 C 0.04875 0.48786 0.0535 0.0
C547 C 0.99008 0.48725 0.99126 0.0
O548 O 0.01789 0.56649 0.01858 0.0
O549 O 0.04378 0.58785 0.99521 0.0
C550 C 0.08873 0.53078 0.01807 0.0
O551 O 0.05267 0.50461 0.03706 0.0
O552 O 0.02696 0.48184 0.05926 0.0
O553 O 0.98394 0.48053 0.01272 0.0
O554 O 0.00658 0.50414 0.98815 0.0
O555 O 0.09008 0.54548 1.00003 0.0
O556 O 0.06765 0.52229 0.02515 0.0
O557 O 0.02457 0.51642 0.97385 0.0
O558 O 0.04881 0.54151 0.95253 0.0
C559 C 0.03381 0.52367 0.95313 0.0
O560 O 0.00463 0.55163 0.03534 0.0
O561 O 0.98129 0.52577 0.05679 0.0
C562 C 0.0258 0.58725 0.01003 0.0
C563 C 0.98748 0.54758 0.05133 0.0
H564 H 0.11994 0.20503 0.32078 0.0
H565 H 0.0983 0.18609 0.35545 0.0
H566 H 0.16742 0.15837 0.38356 0.0
H567 H 0.18937 0.17855 0.3499 0.0
H568 H 0.0948 0.13885 0.36509 0.0
H569 H 0.13793 0.18334 0.44612 0.0
H570 H 0.14173 0.19519 0.41523 0.0
H571 H 0.16071 0.17019 0.42616 0.0
C572 C 0.13067 0.19551 0.33469 0.0
C573 C 0.15647 0.19338 0.33246 0.0
C574 C 0.11821 0.18452 0.35445 0.0
C575 C 0.13123 0.17111 0.3724 0.0
C576 C 0.15698 0.16915 0.37037 0.0
H577 H 0.10055 0.05555 0.47381 0.0
H578 H 0.11816 0.08817 0.44787 0.0
C579 C 0.16949 0.18035 0.35078 0.0
C580 C 0.11772 0.15728 0.39188 0.0
H581 H 0.11714 0.1446 0.4537 0.0
C582 C 0.09935 0.14051 0.38451 0.0
C583 C 0.12361 0.15941 0.41728 0.0
C584 C 0.14189 0.17821 0.42668 0.0
C585 C 0.08754 0.12508 0.40163 0.0
C586 C 0.09424 0.12647 0.42679 0.0
C587 C 0.11207 0.14365 0.43436 0.0
C588 C 0.08417 0.10883 0.44502 0.0
C589 C 0.06872 0.10661 0.39259 0.0
C590 C 0.05936 0.11001 0.45236 0.0
C591 C 0.04927 0.09137 0.46712 0.0
C592 C 0.06389 0.07143 0.47488 0.0
C593 C 0.08891 0.07076 0.46813 0.0
C594 C 0.099 0.0894 0.45345 0.0
H595 H 0.06772 0.10591 0.37213 0.0
H596 H 0.0732 0.0879 0.39963 0.0
H597 H 0.05022 0.11167 0.39976 0.0
H598 H 0.04765 0.12488 0.44599 0.0
H599 H 0.0298 0.09203 0.4716 0.0
H600 H 0.35394 0.85731 0.84672 0.0
H601 H 0.37567 0.87845 0.8803 0.0
H602 H 0.44482 0.86816 0.84244 0.0
H603 H 0.42324 0.84735 0.80859 0.0
H604 H 0.41919 0.86287 0.91128 0.0
H605 H 0.43516 0.94484 0.85129 0.0
H606 H 0.41225 0.92171 0.84411 0.0
H607 H 0.44436 0.91539 0.83912 0.0
C608 C 0.37379 0.85949 0.84557 0.0
C609 C 0.38683 0.85082 0.82487 0.0
C610 C 0.38618 0.87136 0.86486 0.0
C611 C 0.4118 0.87495 0.86376 0.0
C612 C 0.42501 0.86562 0.84357 0.0
H613 H 0.50794 0.95023 0.97061 0.0
H614 H 0.49062 0.91849 0.94319 0.0
C615 C 0.41266 0.85364 0.82431 0.0
C616 C 0.42435 0.8901 0.88278 0.0
H617 H 0.45054 0.94669 0.89182 0.0
C618 C 0.42627 0.8811 0.90704 0.0
C619 C 0.43333 0.91395 0.87717 0.0
C620 C 0.4311 0.92475 0.85159 0.0
C621 C 0.43693 0.89549 0.92587 0.0
C622 C 0.44563 0.9194 0.92022 0.0
C623 C 0.44391 0.92826 0.89597 0.0
C624 C 0.45514 0.93635 0.9394 0.0
C625 C 0.43815 0.88556 0.95184 0.0
C626 C 0.4408 0.95663 0.9465 0.0
C627 C 0.45051 0.97453 0.96227 0.0
C628 C 0.47478 0.97252 0.97121 0.0
C629 C 0.48898 0.95191 0.9645 0.0
C630 C 0.47917 0.93386 0.94877 0.0
H631 H 0.43033 0.86667 0.95332 0.0
H632 H 0.45762 0.88518 0.95818 0.0
H633 H 0.42789 0.89799 0.96447 0.0
H634 H 0.42228 0.95893 0.93929 0.0
H635 H 0.4392 0.99029 0.96701 0.0
H636 H 0.66823 0.32222 0.68443 0.0
H637 H 0.64396 0.33755 0.64935 0.0
H638 H 0.65994 0.41236 0.67108 0.0
H639 H 0.68365 0.39739 0.70621 0.0
H640 H 0.60224 0.36901 0.65 0.0
H641 H 0.67907 0.41108 0.59759 0.0
H642 H 0.68397 0.38858 0.62172 0.0
H643 H 0.67902 0.4205 0.62933 0.0
C644 C 0.6665 0.34194 0.68178 0.0
C645 C 0.67815 0.35856 0.69803 0.0
C646 C 0.65276 0.35064 0.66164 0.0
C647 C 0.65063 0.37608 0.65731 0.0
C648 C 0.66193 0.39265 0.67367 0.0
H649 H 0.55133 0.47761 0.602 0.0
H650 H 0.5741 0.44494 0.62316 0.0
C651 C 0.67553 0.38403 0.69377 0.0
C652 C 0.6357 0.38574 0.6365 0.0
H653 H 0.63832 0.42717 0.58912 0.0
C654 C 0.61017 0.3813 0.63633 0.0
C655 C 0.64611 0.40134 0.61832 0.0
C656 C 0.6736 0.40546 0.61654 0.0
C657 C 0.59457 0.39372 0.61977 0.0
C658 C 0.60476 0.41119 0.60326 0.0
C659 C 0.63047 0.414 0.60201 0.0
C660 C 0.58908 0.42905 0.58975 0.0
C661 C 0.56719 0.38874 0.62068 0.0
C662 C 0.59019 0.43118 0.56392 0.0
C663 C 0.57698 0.44981 0.55178 0.0
C664 C 0.56292 0.46674 0.56539 0.0
C665 C 0.56187 0.46457 0.59115 0.0
C666 C 0.5747 0.44582 0.6032 0.0
H667 H 0.56328 0.36989 0.62774 0.0
H668 H 0.55837 0.40213 0.63339 0.0
H669 H 0.55863 0.39081 0.60217 0.0
H670 H 0.60157 0.41874 0.55326 0.0
H671 H 0.5783 0.45142 0.5319 0.0
H672 H 0.8504 0.67686 0.19236 0.0
H673 H 0.87103 0.65582 0.15816 0.0
H674 H 0.94187 0.67222 0.19047 0.0
H675 H 0.92146 0.69285 0.22509 0.0
H676 H 0.92798 0.67898 0.12958 0.0
H677 H 0.91651 0.58876 0.17775 0.0
H678 H 0.89182 0.61102 0.17876 0.0
H679 H 0.92014 0.61722 0.19469 0.0
C680 C 0.87037 0.67605 0.19222 0.0
C681 C 0.88426 0.6864 0.2116 0.0
C682 C 0.88211 0.66424 0.17254 0.0
C683 C 0.90791 0.66262 0.17183 0.0
C684 C 0.92192 0.67354 0.19065 0.0
H685 H 0.00849 0.59007 0.06876 0.0
H686 H 0.9893 0.62053 0.09616 0.0
C687 C 0.91021 0.68534 0.21038 0.0
C688 C 0.92006 0.64762 0.1526 0.0
H689 H 0.93441 0.58813 0.13839 0.0
C690 C 0.92948 0.65912 0.1314 0.0
C691 C 0.92189 0.62179 0.15518 0.0
C692 C 0.91217 0.60878 0.1778 0.0
C693 C 0.94041 0.64524 0.11238 0.0
C694 C 0.94221 0.61931 0.11496 0.0
C695 C 0.93293 0.60798 0.13636 0.0
C696 C 0.95323 0.60322 0.09574 0.0
C697 C 0.94949 0.65834 0.08956 0.0
C698 C 0.93938 0.58346 0.08629 0.0
C699 C 0.95036 0.566 0.07094 0.0
C700 C 0.97537 0.56805 0.06451 0.0
C701 C 0.98905 0.58834 0.0731 0.0
C702 C 0.97808 0.60577 0.0887 0.0
H703 H 0.94102 0.67689 0.08755 0.0
H704 H 0.96976 0.6608 0.09099 0.0
H705 H 0.94553 0.64742 0.07268 0.0
H706 H 0.92021 0.58108 0.09147 0.0
H707 H 0.93943 0.55049 0.0646 0.0
H708 H 0.34381 0.14308 0.22062 0.0
H709 H 0.37786 0.12074 0.20095 0.0
H710 H 0.34463 0.13285 0.12965 0.0
H711 H 0.31035 0.15464 0.14912 0.0
H712 H 0.36106 0.0835 0.13845 0.0
H713 H 0.43326 0.15375 0.15925 0.0
H714 H 0.41531 0.14247 0.18481 0.0
H715 H 0.40069 0.16051 0.16121 0.0
C716 C 0.34367 0.1408 0.20077 0.0
C717 C 0.32446 0.15078 0.18641 0.0
C718 C 0.36324 0.12823 0.18957 0.0
C719 C 0.36388 0.12542 0.16384 0.0
C720 C 0.34452 0.13494 0.14953 0.0
H721 H 0.46658 0.0988 0.05066 0.0
H722 H 0.43948 0.11462 0.08303 0.0
C723 C 0.32505 0.14754 0.16067 0.0
C724 C 0.38465 0.11267 0.1515 0.0
H725 H 0.44532 0.1194 0.13572 0.0
C726 C 0.37959 0.09111 0.1381 0.0
C727 C 0.40872 0.12278 0.15105 0.0
C728 C 0.41495 0.14624 0.16469 0.0
C729 C 0.39777 0.07981 0.12357 0.0
C730 C 0.4217 0.09026 0.12264 0.0
C731 C 0.42699 0.11137 0.13667 0.0
C732 C 0.44045 0.08126 0.10493 0.0
C733 C 0.39091 0.05755 0.10831 0.0
C734 C 0.45043 0.05745 0.10685 0.0
C735 C 0.46588 0.04834 0.08828 0.0
C736 C 0.47172 0.06301 0.0677 0.0
C737 C 0.4624 0.08713 0.06634 0.0
C738 C 0.44702 0.09621 0.08486 0.0
H739 H 0.37068 0.05408 0.10826 0.0
H740 H 0.39719 0.05992 0.08895 0.0
H741 H 0.4002 0.041 0.11597 0.0
H742 H 0.44572 0.04571 0.12232 0.0
H743 H 0.47251 0.02954 0.08957 0.0
H744 H 0.19097 0.8539 0.67456 0.0
H745 H 0.1574 0.87658 0.65469 0.0
H746 H 0.19017 0.94534 0.6777 0.0
H747 H 0.2244 0.92295 0.69656 0.0
H748 H 0.12261 0.91007 0.67233 0.0
H749 H 0.18467 0.9541 0.60346 0.0
H750 H 0.19456 0.92892 0.62282 0.0
H751 H 0.19301 0.9597 0.63502 0.0
C752 C 0.19119 0.87386 0.67522 0.0
C753 C 0.21062 0.88655 0.68697 0.0
C754 C 0.17182 0.88679 0.66408 0.0
C755 C 0.17144 0.91267 0.66439 0.0
C756 C 0.19028 0.92538 0.67685 0.0
H757 H 0.06676 0.01299 0.59099 0.0
H758 H 0.09371 0.99545 0.62308 0.0
C759 C 0.20973 0.91249 0.68788 0.0
C760 C 0.15189 0.92628 0.6508 0.0
H761 H 0.14272 0.96543 0.60221 0.0
C762 C 0.12702 0.92231 0.65712 0.0
C763 C 0.15764 0.9422 0.63088 0.0
C764 C 0.18388 0.94638 0.62244 0.0
C765 C 0.1078 0.93364 0.64382 0.0
C766 C 0.11365 0.94918 0.62377 0.0
C767 C 0.13842 0.95364 0.61781 0.0
C768 C 0.09446 0.95896 0.60701 0.0
C769 C 0.08134 0.92866 0.65084 0.0
C770 C 0.08579 0.9441 0.5877 0.0
C771 C 0.07063 0.95406 0.5694 0.0
C772 C 0.06366 0.97898 0.57025 0.0
C773 C 0.07152 0.99362 0.59017 0.0
C774 C 0.08695 0.98368 0.6084 0.0
H775 H 0.07982 0.91906 0.66889 0.0
H776 H 0.07084 0.94622 0.6517 0.0
H777 H 0.07259 0.91698 0.63645 0.0
H778 H 0.09162 0.92505 0.58624 0.0
H779 H 0.06492 0.94244 0.55416 0.0
H780 H 0.82193 0.37257 0.89829 0.0
H781 H 0.85502 0.39879 0.91408 0.0
H782 H 0.88579 0.40465 0.84096 0.0
H783 H 0.85289 0.37783 0.82501 0.0
H784 H 0.921 0.394 0.87776 0.0
H785 H 0.86296 0.47345 0.90447 0.0
H786 H 0.8514 0.44487 0.91659 0.0
H787 H 0.85227 0.44964 0.88373 0.0
C788 C 0.83579 0.3793 0.88555 0.0
C789 C 0.83479 0.37307 0.86039 0.0
C790 C 0.85452 0.39454 0.89456 0.0
C791 C 0.87261 0.40401 0.87862 0.0
C792 C 0.87185 0.39772 0.85351 0.0
H793 H 0.97481 0.5096 0.94866 0.0
H794 H 0.94962 0.49121 0.91564 0.0
C795 C 0.853 0.3825 0.84443 0.0
C796 C 0.89271 0.41967 0.88865 0.0
H797 H 0.90263 0.47045 0.9245 0.0
C798 C 0.91709 0.41097 0.88758 0.0
C799 C 0.8877 0.44209 0.90099 0.0
C800 C 0.86219 0.45322 0.90131 0.0
C801 C 0.93624 0.42317 0.90014 0.0
C802 C 0.93074 0.44433 0.91432 0.0
C803 C 0.90676 0.45404 0.91383 0.0
C804 C 0.94865 0.45485 0.93212 0.0
C805 C 0.96208 0.41296 0.89871 0.0
C806 C 0.95649 0.44048 0.95218 0.0
C807 C 0.97066 0.45092 0.97097 0.0
C808 C 0.97742 0.4759 0.96999 0.0
C809 C 0.97013 0.49019 0.94961 0.0
C810 C 0.95574 0.47975 0.93083 0.0
H811 H 0.9648 0.40198 0.88163 0.0
H812 H 0.97604 0.42798 0.89926 0.0
H813 H 0.96533 0.40061 0.91473 0.0
H814 H 0.95077 0.4214 0.95383 0.0
H815 H 0.97591 0.43957 0.98658 0.0
H816 H 0.72949 0.6535 0.3948 0.0
H817 H 0.6953 0.63171 0.41459 0.0
H818 H 0.66043 0.62137 0.34379 0.0
H819 H 0.69446 0.64364 0.3238 0.0
H820 H 0.62813 0.63856 0.38191 0.0
H821 H 0.68192 0.55674 0.41127 0.0
H822 H 0.69589 0.58548 0.42007 0.0
H823 H 0.69273 0.57793 0.38791 0.0
C824 C 0.71449 0.64673 0.38342 0.0
C825 C 0.7147 0.6503 0.35772 0.0
C826 C 0.69509 0.63406 0.39473 0.0
C827 C 0.67552 0.62463 0.38061 0.0
C828 C 0.67547 0.62835 0.35498 0.0
H829 H 0.56636 0.52788 0.45176 0.0
H830 H 0.59322 0.54549 0.41982 0.0
C831 C 0.69498 0.64094 0.3436 0.0
C832 C 0.65496 0.61138 0.39289 0.0
H833 H 0.64289 0.56275 0.43108 0.0
C834 C 0.63125 0.6218 0.39239 0.0
C835 C 0.65897 0.58929 0.40619 0.0
C836 C 0.6837 0.57653 0.40624 0.0
C837 C 0.61177 0.61142 0.40603 0.0
C838 C 0.61626 0.59029 0.42063 0.0
C839 C 0.63958 0.57911 0.42003 0.0
C840 C 0.5977 0.58062 0.43821 0.0
C841 C 0.58662 0.62328 0.40509 0.0
C842 C 0.59128 0.59459 0.459 0.0
C843 C 0.57605 0.58457 0.47724 0.0
C844 C 0.5668 0.56048 0.47488 0.0
C845 C 0.57279 0.54669 0.45377 0.0
C846 C 0.58822 0.55666 0.43561 0.0
H847 H 0.58455 0.63535 0.38865 0.0
H848 H 0.57184 0.60905 0.40478 0.0
H849 H 0.584 0.63475 0.42183 0.0
H850 H 0.59876 0.61296 0.46155 0.0
H851 H 0.57183 0.59554 0.49339 0.0
H852 H 0.19483 0.3141 0.11918 0.0
H853 H 0.17486 0.34807 0.09723 0.0
H854 H 0.16486 0.3867 0.166 0.0
H855 H 0.18535 0.35304 0.18807 0.0
H856 H 0.12658 0.36267 0.10587 0.0
H857 H 0.19119 0.44096 0.11954 0.0
H858 H 0.20023 0.40919 0.12399 0.0
H859 H 0.18316 0.42508 0.14753 0.0
C860 C 0.18889 0.33006 0.12959 0.0
C861 C 0.1917 0.33087 0.15539 0.0
C862 C 0.1774 0.34941 0.11702 0.0
C863 C 0.16869 0.37005 0.12993 0.0
C864 C 0.17188 0.37117 0.15561 0.0
H865 H 0.05058 0.46903 0.09986 0.0
H866 H 0.08227 0.44204 0.11736 0.0
C867 C 0.1833 0.35177 0.16823 0.0
C868 C 0.1541 0.38918 0.11691 0.0
H869 H 0.15052 0.45109 0.10533 0.0
C870 C 0.13198 0.38194 0.10552 0.0
C871 C 0.16125 0.4143 0.11634 0.0
C872 C 0.18537 0.42289 0.12729 0.0
C873 C 0.11637 0.39927 0.09437 0.0
C874 C 0.12298 0.42447 0.09474 0.0
C875 C 0.14549 0.43172 0.10532 0.0
C876 C 0.10587 0.44341 0.08525 0.0
C877 C 0.0926 0.39064 0.08263 0.0
C878 C 0.10901 0.45342 0.06159 0.0
C879 C 0.09081 0.46868 0.05145 0.0
C880 C 0.06945 0.47439 0.06501 0.0
C881 C 0.06689 0.46501 0.08905 0.0
C882 C 0.08498 0.4497 0.09909 0.0
H883 H 0.09198 0.37027 0.08052 0.0
H884 H 0.07681 0.39637 0.09432 0.0
H885 H 0.09019 0.39929 0.06421 0.0
H886 H 0.12497 0.44855 0.0506 0.0
H887 H 0.09293 0.47511 0.03265 0.0
H888 H 0.68594 0.22704 0.90297 0.0
H889 H 0.66872 0.19425 0.92878 0.0
H890 H 0.65323 0.15104 0.8638 0.0
H891 H 0.6712 0.18332 0.83792 0.0
H892 H 0.62132 0.17841 0.9273 0.0
H893 H 0.68356 0.09962 0.90915 0.0
H894 H 0.69167 0.131 0.90133 0.0
H895 H 0.67194 0.11328 0.8813 0.0
C896 C 0.6794 0.21032 0.89418 0.0
C897 C 0.67996 0.20784 0.86834 0.0
C898 C 0.66946 0.19164 0.90898 0.0
C899 C 0.66002 0.17001 0.89828 0.0
C900 C 0.6609 0.16729 0.87254 0.0
H901 H 0.54544 0.07221 0.93824 0.0
H902 H 0.57641 0.09896 0.91918 0.0
C903 C 0.67085 0.18595 0.85773 0.0
C904 C 0.64709 0.15141 0.91373 0.0
H905 H 0.6438 0.0897 0.92656 0.0
C906 C 0.62653 0.1591 0.92745 0.0
C907 C 0.65395 0.1262 0.91408 0.0
C908 C 0.67664 0.11705 0.90088 0.0
C909 C 0.61197 0.14213 0.9405 0.0
C910 C 0.61804 0.11683 0.93972 0.0
C911 C 0.63917 0.10915 0.92695 0.0
C912 C 0.60125 0.09816 0.9504 0.0
C913 C 0.58966 0.15117 0.95444 0.0
C914 C 0.6053 0.08852 0.9741 0.0
C915 C 0.58752 0.07329 0.98513 0.0
C916 C 0.56562 0.06739 0.97247 0.0
C917 C 0.56215 0.07642 0.94841 0.0
C918 C 0.57983 0.09161 0.93747 0.0
H919 H 0.58946 0.17159 0.95621 0.0
H920 H 0.57266 0.14533 0.94458 0.0
H921 H 0.58914 0.14288 0.97318 0.0
H922 H 0.62168 0.0936 0.9844 0.0
H923 H 0.59035 0.06715 0.00392 0.0
H924 H 0.8492 0.81137 0.42379 0.0
H925 H 0.86891 0.84604 0.44494 0.0
H926 H 0.88096 0.88207 0.37502 0.0
H927 H 0.86071 0.84774 0.35374 0.0
H928 H 0.9173 0.86084 0.43757 0.0
H929 H 0.85287 0.93783 0.41802 0.0
H930 H 0.8442 0.90582 0.4145 0.0
H931 H 0.86212 0.92098 0.39104 0.0
C932 C 0.85559 0.82689 0.41294 0.0
C933 C 0.85335 0.8268 0.38707 0.0
C934 C 0.86693 0.84664 0.42505 0.0
C935 C 0.87608 0.86679 0.4116 0.0
C936 C 0.8736 0.86694 0.38581 0.0
H937 H 0.99131 0.96971 0.44074 0.0
H938 H 0.96047 0.94149 0.42355 0.0
C939 C 0.86231 0.84715 0.37366 0.0
C940 C 0.89011 0.88658 0.4243 0.0
H941 H 0.8929 0.94896 0.43331 0.0
C942 C 0.91179 0.88005 0.43688 0.0
C943 C 0.88281 0.91163 0.42349 0.0
C944 C 0.8591 0.91953 0.41124 0.0
C945 C 0.92685 0.898 0.44788 0.0
C946 C 0.9201 0.92308 0.44619 0.0
C947 C 0.89803 0.92965 0.43437 0.0
C948 C 0.9367 0.9426 0.45553 0.0
C949 C 0.95024 0.89017 0.46083 0.0
C950 C 0.93318 0.95283 0.47903 0.0
C951 C 0.95089 0.96883 0.48899 0.0
C952 C 0.97215 0.975 0.47544 0.0
C953 C 0.97507 0.96535 0.45156 0.0
C954 C 0.95747 0.94932 0.44169 0.0
H955 H 0.95126 0.86985 0.46327 0.0
H956 H 0.96643 0.89624 0.44985 0.0
H957 H 0.95152 0.89911 0.47922 0.0
H958 H 0.91731 0.94764 0.49002 0.0
H959 H 0.94847 0.97551 0.50765 0.0
H960 H 0.34195 0.72487 0.61265 0.0
H961 H 0.36018 0.68966 0.59127 0.0
H962 H 0.38082 0.65778 0.66121 0.0
H963 H 0.36161 0.69225 0.68276 0.0
H964 H 0.40732 0.6761 0.59124 0.0
H965 H 0.35182 0.59846 0.62734 0.0
H966 H 0.3426 0.63022 0.63114 0.0
H967 H 0.36477 0.61657 0.65183 0.0
C968 C 0.34985 0.71011 0.62354 0.0
C969 C 0.35023 0.71146 0.64949 0.0
C970 C 0.36041 0.69003 0.61125 0.0
C971 C 0.37152 0.6708 0.62459 0.0
C972 C 0.37183 0.67203 0.65048 0.0
H973 H 0.48437 0.56679 0.59965 0.0
H974 H 0.45202 0.59424 0.61499 0.0
C975 C 0.36117 0.69202 0.66279 0.0
C976 C 0.38456 0.65053 0.6115 0.0
H977 H 0.39127 0.58782 0.6095 0.0
C978 C 0.40346 0.65681 0.59489 0.0
C979 C 0.37949 0.62529 0.61612 0.0
C980 C 0.35838 0.61723 0.63238 0.0
C981 C 0.41818 0.63864 0.58383 0.0
C982 C 0.41394 0.61357 0.5895 0.0
C983 C 0.3945 0.60712 0.60531 0.0
C984 C 0.43117 0.59424 0.58097 0.0
C985 C 0.43892 0.64631 0.5669 0.0
C986 C 0.42978 0.58477 0.5569 0.0
C987 C 0.44827 0.56902 0.54808 0.0
C988 C 0.46833 0.56257 0.56325 0.0
C989 C 0.4691 0.57141 0.5876 0.0
C990 C 0.45061 0.587 0.59641 0.0
H991 H 0.43991 0.66663 0.56446 0.0
H992 H 0.4568 0.63972 0.57444 0.0
H993 H 0.43636 0.63762 0.54853 0.0
H994 H 0.41493 0.59029 0.54471 0.0
H995 H 0.44746 0.5628 0.52911 0.0
H996 H 0.97741 0.91573 0.79154 0.0
H997 H 0.99463 0.92552 0.75089 0.0
H998 H 0.99629 0.00267 0.77002 0.0
H999 H 0.97935 0.99305 0.81071 0.0
H1000 H 0.96673 0.98846 0.72747 0.0
H1001 H 0.06266 0.95183 0.72311 0.0
H1002 H 0.03905 0.93242 0.73623 0.0
H1003 H 0.04811 0.96006 0.75197 0.0
C1004 C 0.98216 0.93469 0.78737 0.0
C1005 C 0.97677 0.95367 0.80423 0.0
C1006 C 0.99204 0.94023 0.76415 0.0
C1007 C 0.99684 0.96479 0.75755 0.0
C1008 C 0.99279 0.98358 0.77485 0.0
H1009 H 0.01661 0.05294 0.62942 0.0
H1010 H 0.01811 0.03495 0.67075 0.0
C1011 C 0.98294 0.97808 0.79799 0.0
C1012 C 0.00235 0.97144 0.73164 0.0
H1013 H 0.04654 0.9698 0.68666 0.0
C1014 C 0.98417 0.98435 0.71855 0.0
C1015 C 0.02496 0.96566 0.72 0.0
C1016 C 0.04497 0.95183 0.73347 0.0
C1017 C 0.98809 0.99205 0.69423 0.0
C1018 C 0.01104 0.98717 0.68283 0.0
C1019 C 0.02906 0.97362 0.69558 0.0
C1020 C 0.01645 0.99719 0.65804 0.0
C1021 C 0.96762 0.0055 0.68093 0.0
C1022 C 0.01639 0.98179 0.63722 0.0
C1023 C 0.01565 0.99207 0.61349 0.0
C1024 C 0.01497 0.01781 0.61047 0.0
C1025 C 0.01698 0.03304 0.6313 0.0
C1026 C 0.01791 0.02281 0.65487 0.0
H1027 H 0.94944 0.00254 0.68993 0.0
H1028 H 0.97159 0.02558 0.68107 0.0
H1029 H 0.96631 0.99942 0.66141 0.0
H1030 H 0.01523 0.96195 0.63936 0.0
H1031 H 0.01391 0.97997 0.59769 0.0
H1032 H 0.55711 0.14483 0.28483 0.0
H1033 H 0.54091 0.13284 0.24434 0.0
H1034 H 0.54807 0.05615 0.26416 0.0
H1035 H 0.56386 0.06796 0.30478 0.0
H1036 H 0.567 0.1043 0.20996 0.0
H1037 H 0.47823 0.05971 0.23427 0.0
H1038 H 0.4944 0.08021 0.25503 0.0
H1039 H 0.50391 0.04859 0.25204 0.0
C1040 C 0.55476 0.12541 0.28075 0.0
C1041 C 0.56176 0.10733 0.29803 0.0
C1042 C 0.54559 0.11861 0.25758 0.0
C1043 C 0.54295 0.09362 0.25138 0.0
C1044 C 0.54949 0.07554 0.26873 0.0
H1045 H 0.52794 0.99719 0.13104 0.0
H1046 H 0.52693 0.01903 0.17038 0.0
C1047 C 0.55879 0.08232 0.29183 0.0
C1048 C 0.53547 0.08631 0.22607 0.0
H1049 H 0.49454 0.05049 0.19416 0.0
C1050 C 0.5509 0.09292 0.20637 0.0
C1051 C 0.51446 0.07149 0.2215 0.0
C1052 C 0.49664 0.06476 0.24179 0.0
C1053 C 0.54677 0.08386 0.18245 0.0
C1054 C 0.52628 0.06821 0.17803 0.0
C1055 C 0.5102 0.06252 0.19755 0.0
C1056 C 0.52303 0.05526 0.1541 0.0
C1057 C 0.56527 0.0899 0.1625 0.0
C1058 C 0.52025 0.06829 0.13184 0.0
C1059 C 0.52109 0.05582 0.10922 0.0
C1060 C 0.52427 0.0301 0.10859 0.0
C1061 C 0.5255 0.01703 0.13095 0.0
C1062 C 0.52483 0.02947 0.15346 0.0
H1063 H 0.58243 0.09818 0.17011 0.0
H1064 H 0.57028 0.07309 0.15196 0.0
H1065 H 0.55701 0.10334 0.14945 0.0
H1066 H 0.5184 0.08818 0.13192 0.0
H1067 H 0.52045 0.06639 0.09229 0.0
H1068 H 0.43259 0.62254 0.26777 0.0
H1069 H 0.45052 0.61398 0.30832 0.0
H1070 H 0.51713 0.58789 0.27339 0.0
H1071 H 0.49944 0.59751 0.23274 0.0
H1072 H 0.46045 0.56879 0.32171 0.0
H1073 H 0.546 0.62401 0.33187 0.0
H1074 H 0.52297 0.6307 0.30868 0.0
H1075 H 0.54512 0.60651 0.30379 0.0
C1076 C 0.45131 0.61562 0.26888 0.0
C1077 C 0.46469 0.6106 0.24733 0.0
C1078 C 0.46157 0.61076 0.29198 0.0
C1079 C 0.48526 0.60043 0.29399 0.0
C1080 C 0.49909 0.5964 0.27242 0.0
H1081 H 0.51919 0.4977 0.40829 0.0
H1082 H 0.51894 0.52042 0.36933 0.0
C1083 C 0.48893 0.60169 0.24921 0.0
C1084 C 0.49361 0.59052 0.31816 0.0
H1085 H 0.54084 0.59022 0.36019 0.0
C1086 C 0.47793 0.57375 0.33016 0.0
C1087 C 0.51641 0.59696 0.32929 0.0
C1088 C 0.5335 0.61572 0.31787 0.0
C1089 C 0.48443 0.56301 0.3527 0.0
C1090 C 0.50762 0.5686 0.36334 0.0
C1091 C 0.52323 0.58574 0.35175 0.0
C1092 C 0.51546 0.55628 0.38641 0.0
C1093 C 0.46631 0.54572 0.36498 0.0
C1094 C 0.51534 0.56914 0.40889 0.0
C1095 C 0.51579 0.55616 0.43127 0.0
C1096 C 0.51617 0.53024 0.43122 0.0
C1097 C 0.51869 0.51767 0.40874 0.0
C1098 C 0.51861 0.53062 0.38652 0.0
H1099 H 0.4473 0.54807 0.35763 0.0
H1100 H 0.47202 0.52638 0.36152 0.0
H1101 H 0.4659 0.5487 0.38525 0.0
H1102 H 0.51293 0.58897 0.40914 0.0
H1103 H 0.51378 0.56621 0.44841 0.0
H1104 H 0.06133 0.39382 0.75571 0.0
H1105 H 0.04506 0.40594 0.79603 0.0
H1106 H 0.04768 0.48236 0.7741 0.0
H1107 H 0.06337 0.47038 0.73356 0.0
H1108 H 0.07019 0.43586 0.82889 0.0
H1109 H 0.97944 0.47679 0.80611 0.0
H1110 H 0.99592 0.45689 0.78508 0.0
H1111 H 0.00413 0.48895 0.78765 0.0
C1112 C 0.0579 0.41317 0.75926 0.0
C1113 C 0.06365 0.43115 0.74142 0.0
C1114 C 0.04869 0.42005 0.78234 0.0
C1115 C 0.04481 0.44501 0.78794 0.0
C1116 C 0.05003 0.46296 0.77 0.0
H1117 H 0.03159 0.54305 0.90704 0.0
H1118 H 0.02989 0.52066 0.86797 0.0
C1119 C 0.05931 0.45611 0.74695 0.0
C1120 C 0.03775 0.45256 0.81325 0.0
H1121 H 0.99677 0.4878 0.8455 0.0
C1122 C 0.05389 0.44681 0.83267 0.0
C1123 C 0.01646 0.46681 0.81807 0.0
C1124 C 0.99785 0.47254 0.79816 0.0
C1125 C 0.05017 0.45621 0.85649 0.0
C1126 C 0.02941 0.47135 0.86111 0.0
C1127 C 0.01264 0.47617 0.84193 0.0
C1128 C 0.02652 0.48463 0.88483 0.0
C1129 C 0.06931 0.45108 0.8761 0.0
C1130 C 0.02436 0.47185 0.90729 0.0
C1131 C 0.02565 0.48463 0.9297 0.0
C1132 C 0.02856 0.51039 0.92993 0.0
C1133 C 0.0293 0.52319 0.9074 0.0
C1134 C 0.02821 0.51044 0.88508 0.0
H1135 H 0.08643 0.44301 0.86826 0.0
H1136 H 0.07427 0.46827 0.8861 0.0
H1137 H 0.06168 0.4378 0.88968 0.0
H1138 H 0.02269 0.45195 0.9075 0.0
H1139 H 0.02552 0.47425 0.94677 0.0
H1140 H 0.7761 0.9301 0.9321 0.0
H1141 H 0.73574 0.94819 0.94072 0.0
H1142 H 0.77055 0.01809 0.95655 0.0
H1143 H 0.81103 1.0001 0.94694 0.0
H1144 H 0.7236 0.9642 0.98478 0.0
H1145 H 0.71074 0.04067 0.91796 0.0
H1146 H 0.73401 0.01718 0.91402 0.0
H1147 H 0.73915 0.04238 0.93496 0.0
C1148 C 0.77503 0.94945 0.93697 0.0
C1149 C 0.79655 0.96372 0.93905 0.0
C1150 C 0.75201 0.9598 0.94183 0.0
C1151 C 0.75004 0.98456 0.94915 0.0
C1152 C 0.7715 0.99913 0.9504 0.0
H1153 H 0.62873 0.02465 0.04348 0.0
H1154 H 0.66955 0.02388 0.02426 0.0
C1155 C 0.79461 0.98882 0.94512 0.0
C1156 C 0.72598 0.99384 0.9584 0.0
H1157 H 0.68206 0.0386 0.9514 0.0
C1158 C 0.71453 0.98042 0.97735 0.0
C1159 C 0.71408 0.01497 0.94868 0.0
C1160 C 0.72498 0.02953 0.92762 0.0
C1161 C 0.69155 0.98734 0.98678 0.0
C1162 C 0.67994 0.00886 0.97764 0.0
C1163 C 0.69121 0.02233 0.95859 0.0
C1164 C 0.65571 0.01674 0.98749 0.0
C1165 C 0.67966 0.97111 0.00611 0.0
C1166 C 0.63441 0.01501 0.97279 0.0
C1167 C 0.61099 0.01596 0.98371 0.0
C1168 C 0.60879 0.01844 0.0094 0.0
C1169 C 0.63004 0.02255 0.02364 0.0
C1170 C 0.65332 0.02207 0.0127 0.0
H1171 H 0.68788 0.95234 0.00644 0.0
H1172 H 0.68246 0.97947 0.02459 0.0
H1173 H 0.6595 0.96928 0.00284 0.0
H1174 H 0.63589 0.011 0.95327 0.0
H1175 H 0.59481 0.01271 0.97241 0.0
H1176 H 0.73367 0.06703 0.46993 0.0
H1177 H 0.77445 0.05137 0.48148 0.0
H1178 H 0.79456 0.04673 0.40468 0.0
H1179 H 0.7541 0.063 0.39296 0.0
H1180 H 0.80002 0.00634 0.46722 0.0
H1181 H 0.8479 0.09183 0.436 0.0
H1182 H 0.81495 0.0906 0.4408 0.0
H1183 H 0.82828 0.07685 0.41381 0.0
C1184 C 0.74679 0.06276 0.45549 0.0
C1185 C 0.74067 0.06647 0.43052 0.0
C1186 C 0.77 0.05361 0.46211 0.0
C1187 C 0.78758 0.04812 0.44394 0.0
C1188 C 0.78133 0.05109 0.41899 0.0
H1189 H 0.94529 0.02484 0.47263 0.0
H1190 H 0.90589 0.02286 0.45025 0.0
C1191 C 0.75812 0.06021 0.41234 0.0
C1192 C 0.8128 0.04044 0.45128 0.0
H1193 H 0.87234 0.06097 0.45386 0.0
C1194 C 0.8159 0.01814 0.4641 0.0
C1195 C 0.83351 0.05577 0.44699 0.0
C1196 C 0.83114 0.08019 0.43381 0.0
C1197 C 0.83911 0.01108 0.4733 0.0
C1198 C 0.85957 0.02699 0.47002 0.0
C1199 C 0.85665 0.04874 0.45628 0.0
C1200 C 0.8833 0.02319 0.48317 0.0
C1201 C 0.8415 0.98681 0.48669 0.0
C1202 C 0.88368 0.02349 0.50906 0.0
C1203 C 0.90605 0.02459 0.52178 0.0
C1204 C 0.92852 0.02536 0.5089 0.0
C1205 C 0.92825 0.02383 0.48302 0.0
C1206 C 0.90577 0.02283 0.47023 0.0
H1207 H 0.82715 0.97348 0.48054 0.0
H1208 H 0.85999 0.97849 0.48374 0.0
H1209 H 0.83897 0.9899 0.50676 0.0
H1210 H 0.86662 0.02436 0.51943 0.0
H1211 H 0.90575 0.02595 0.54173 0.0
H1212 H 0.30495 0.56585 0.05846 0.0
H1213 H 0.2643 0.5472 0.05225 0.0
H1214 H 0.24924 0.55362 0.13008 0.0
H1215 H 0.28948 0.57317 0.13636 0.0
H1216 H 0.2397 0.50524 0.07307 0.0
H1217 H 0.19408 0.59402 0.09737 0.0
H1218 H 0.22673 0.59202 0.09125 0.0
H1219 H 0.21455 0.58123 0.12012 0.0
C1220 C 0.29301 0.56332 0.07428 0.0
C1221 C 0.30036 0.57135 0.09785 0.0
C1222 C 0.26989 0.55241 0.07074 0.0
C1223 C 0.25365 0.54934 0.09066 0.0
C1224 C 0.26138 0.55612 0.11442 0.0
H1225 H 0.09481 0.52611 0.06791 0.0
H1226 H 0.13421 0.52405 0.09034 0.0
C1227 C 0.28449 0.56711 0.11798 0.0
C1228 C 0.22802 0.54092 0.08601 0.0
H1229 H 0.16874 0.562 0.08346 0.0
C1230 C 0.22411 0.51749 0.07567 0.0
C1231 C 0.20767 0.55688 0.08959 0.0
C1232 C 0.21083 0.58251 0.10002 0.0
C1233 C 0.2005 0.50999 0.06791 0.0
C1234 C 0.18049 0.52652 0.07018 0.0
C1235 C 0.18414 0.54934 0.08183 0.0
C1236 C 0.15668 0.52239 0.05738 0.0
C1237 C 0.19723 0.48471 0.0568 0.0
C1238 C 0.15628 0.52168 0.03151 0.0
C1239 C 0.13394 0.52304 0.01877 0.0
C1240 C 0.11157 0.52495 0.03166 0.0
C1241 C 0.11181 0.52433 0.05758 0.0
C1242 C 0.13426 0.52319 0.07037 0.0
H1243 H 0.21157 0.47172 0.06358 0.0
H1244 H 0.17871 0.47701 0.06113 0.0
H1245 H 0.19902 0.48603 0.03645 0.0
H1246 H 0.17334 0.52165 0.0211 0.0
H1247 H 0.13422 0.5236 0.99878 0.0
H1248 H 0.23293 0.47633 0.5677 0.0
H1249 H 0.27407 0.49113 0.55626 0.0
H1250 H 0.29325 0.49812 0.63316 0.0
H1251 H 0.25241 0.48269 0.6448 0.0
H1252 H 0.30134 0.53573 0.5692 0.0
H1253 H 0.34479 0.44951 0.60442 0.0
H1254 H 0.312 0.45195 0.59908 0.0
H1255 H 0.32565 0.46624 0.62567 0.0
C1256 C 0.24588 0.48104 0.58218 0.0
C1257 C 0.23947 0.47808 0.60716 0.0
C1258 C 0.26929 0.4897 0.57562 0.0
C1259 C 0.28675 0.49545 0.59388 0.0
C1260 C 0.2801 0.49354 0.61881 0.0
H1261 H 0.44545 0.51218 0.5659 0.0
H1262 H 0.40593 0.51561 0.58773 0.0
C1263 C 0.25668 0.4849 0.62541 0.0
C1264 C 0.31235 0.50178 0.58665 0.0
H1265 H 0.37076 0.47834 0.58532 0.0
C1266 C 0.3166 0.52335 0.57294 0.0
C1267 C 0.33223 0.48566 0.59172 0.0
C1268 C 0.32858 0.46194 0.60588 0.0
C1269 C 0.34015 0.52888 0.56359 0.0
C1270 C 0.35973 0.51213 0.56764 0.0
C1271 C 0.35571 0.49116 0.58229 0.0
C1272 C 0.38365 0.5143 0.55459 0.0
C1273 C 0.34385 0.5524 0.54918 0.0
C1274 C 0.38421 0.51269 0.52876 0.0
C1275 C 0.40666 0.51075 0.51633 0.0
C1276 C 0.42901 0.51043 0.52948 0.0
C1277 C 0.42852 0.51283 0.55529 0.0
C1278 C 0.40599 0.51469 0.56777 0.0
H1279 H 0.33 0.56656 0.55438 0.0
H1280 H 0.36264 0.56007 0.55218 0.0
H1281 H 0.3416 0.54849 0.52921 0.0
H1282 H 0.36721 0.51175 0.51825 0.0
H1283 H 0.40652 0.50878 0.49643 0.0
H1284 H 0.98819 0.80408 0.97089 0.0
H1285 H 0.99526 0.76366 0.98948 0.0
H1286 H 0.91684 0.7499 0.99016 0.0
H1287 H 0.90963 0.78975 0.97036 0.0
H1288 H 0.97953 0.74124 0.03283 0.0
H1289 H 0.94282 0.69218 0.95032 0.0
H1290 H 0.94924 0.72482 0.95015 0.0
H1291 H 0.92186 0.71324 0.96488 0.0
C1292 C 0.97243 0.79242 0.97482 0.0
C1293 C 0.94837 0.80006 0.96874 0.0
C1294 C 0.97649 0.76942 0.98572 0.0
C1295 C 0.95661 0.7536 0.99082 0.0
C1296 C 0.93249 0.76163 0.98595 0.0
H1297 H 0.97643 0.59532 0.0171 0.0
H1298 H 0.95573 0.63547 0.01971 0.0
C1299 C 0.9284 0.78457 0.97487 0.0
C1300 C 0.96149 0.72824 0.99985 0.0
H1301 H 0.95897 0.66792 0.9821 0.0
C1302 C 0.97475 0.72516 0.02191 0.0
C1303 C 0.95513 0.70726 0.98566 0.0
C1304 C 0.94165 0.70941 0.96134 0.0
C1305 C 0.98268 0.70175 0.02966 0.0
C1306 C 0.97738 0.68094 0.01483 0.0
C1307 C 0.96289 0.68387 0.99354 0.0
C1308 C 0.98956 0.65677 0.01872 0.0
C1309 C 0.99727 0.69977 0.05328 0.0
C1310 C 0.01541 0.6554 0.01789 0.0
C1311 C 0.02718 0.63259 0.01658 0.0
C1312 C 0.01336 0.61067 0.01602 0.0
C1313 C 0.98754 0.61192 0.01801 0.0
C1314 C 0.97571 0.63483 0.01935 0.0
H1315 H 0.9904 0.71314 0.06718 0.0
H1316 H 0.99647 0.68095 0.06128 0.0
H1317 H 0.01687 0.70441 0.04945 0.0
H1318 H 0.02648 0.67201 0.01678 0.0
H1319 H 0.04711 0.63215 0.01492 0.0
H1320 H 0.4873 0.73771 0.06318 0.0
H1321 H 0.4937 0.778 0.04398 0.0
H1322 H 0.41495 0.78853 0.03945 0.0
H1323 H 0.40834 0.74868 0.0596 0.0
H1324 H 0.47815 0.80035 0.99936 0.0
H1325 H 0.43805 0.84651 0.08192 0.0
H1326 H 0.44596 0.81422 0.08185 0.0
H1327 H 0.41855 0.82464 0.06637 0.0
C1328 C 0.47131 0.74856 0.05809 0.0
C1329 C 0.44732 0.74012 0.06333 0.0
C1330 C 0.47501 0.77148 0.04688 0.0
C1331 C 0.45481 0.78642 0.04067 0.0
C1332 C 0.4308 0.77745 0.04446 0.0
H1333 H 0.47378 0.94572 0.01983 0.0
H1334 H 0.45322 0.90555 0.01553 0.0
C1335 C 0.42707 0.75455 0.05578 0.0
C1336 C 0.45919 0.81208 0.03222 0.0
H1337 H 0.45555 0.87177 0.05176 0.0
C1338 C 0.47288 0.81603 0.01059 0.0
C1339 C 0.45216 0.83253 0.04682 0.0
C1340 C 0.43802 0.82941 0.07063 0.0
C1341 C 0.48065 0.8398 0.00374 0.0
C1342 C 0.47489 0.86004 0.01914 0.0
C1343 C 0.45989 0.85626 0.03991 0.0
C1344 C 0.48709 0.88441 0.01645 0.0
C1345 C 0.49558 0.84281 0.98045 0.0
C1346 C 0.51292 0.8859 0.01791 0.0
C1347 C 0.52461 0.90872 0.0202 0.0
C1348 C 0.51073 0.93054 0.02112 0.0
C1349 C 0.48494 0.9292 0.0187 0.0
C1350 C 0.47319 0.90629 0.01635 0.0
H1351 H 0.4896 0.82932 0.96621 0.0
H1352 H 0.49401 0.8617 0.9727 0.0
H1353 H 0.51529 0.83911 0.98462 0.0
H1354 H 0.52402 0.86932 0.0187 0.0
H1355 H 0.54451 0.90923 0.02221 0.0
H1356 H 0.10618 0.31144 0.52769 0.0
H1357 H 0.09029 0.27241 0.5108 0.0
H1358 H 0.09477 0.23942 0.58311 0.0
H1359 H 0.11012 0.27828 0.60005 0.0
H1360 H 0.10715 0.22283 0.51007 0.0
H1361 H 0.02178 0.23296 0.56514 0.0
H1362 H 0.04355 0.25785 0.56113 0.0
H1363 H 0.04903 0.23431 0.58393 0.0
C1364 C 0.10401 0.29573 0.53986 0.0
C1365 C 0.10895 0.29794 0.56524 0.0
C1366 C 0.09496 0.2735 0.53021 0.0
C1367 C 0.09088 0.25322 0.54582 0.0
C1368 C 0.09723 0.25503 0.57086 0.0
H1369 H 0.06252 0.09947 0.52749 0.0
H1370 H 0.08184 0.1403 0.52572 0.0
C1371 C 0.10598 0.27722 0.58052 0.0
C1372 C 0.0786 0.23057 0.53659 0.0
H1373 H 0.02956 0.19304 0.54846 0.0
C1374 C 0.09002 0.21638 0.51818 0.0
C1375 C 0.05593 0.22254 0.54672 0.0
C1376 C 0.04171 0.23784 0.56512 0.0
C1377 C 0.07992 0.19367 0.51056 0.0
C1378 C 0.0582 0.18481 0.5221 0.0
C1379 C 0.0463 0.19964 0.53967 0.0
C1380 C 0.04788 0.15979 0.51758 0.0
C1381 C 0.09257 0.17951 0.49026 0.0
C1382 C 0.02247 0.15698 0.51318 0.0
C1383 C 0.01139 0.1338 0.51485 0.0
C1384 C 0.02559 0.11292 0.52042 0.0
C1385 C 0.05127 0.11533 0.52291 0.0
C1386 C 0.06233 0.13865 0.52171 0.0
H1387 H 0.10258 0.19214 0.47758 0.0
H1388 H 0.10634 0.16681 0.49852 0.0
H1389 H 0.0792 0.16843 0.47933 0.0
H1390 H 0.01093 0.17296 0.50992 0.0
H1391 H 0.99154 0.13233 0.51283 0.0
H1392 H 0.60622 0.22573 0.51659 0.0
H1393 H 0.59101 0.26413 0.53529 0.0
H1394 H 0.57545 0.29317 0.46289 0.0
H1395 H 0.59101 0.25548 0.44411 0.0
H1396 H 0.60667 0.31673 0.52466 0.0
H1397 H 0.50878 0.29663 0.5029 0.0
H1398 H 0.53209 0.27286 0.50458 0.0
H1399 H 0.52918 0.29155 0.47729 0.0
C1400 C 0.59977 0.24041 0.50466 0.0
C1401 C 0.59952 0.23736 0.47883 0.0
C1402 C 0.59103 0.26226 0.51539 0.0
C1403 C 0.58178 0.28127 0.50046 0.0
C1404 C 0.58211 0.27851 0.47475 0.0
H1405 H 0.53373 0.41911 0.47319 0.0
H1406 H 0.5503 0.37775 0.47913 0.0
C1407 C 0.59088 0.25686 0.46405 0.0
C1408 C 0.57143 0.30414 0.51118 0.0
H1409 H 0.5195 0.33946 0.50831 0.0
C1410 C 0.58746 0.32155 0.52182 0.0
C1411 C 0.54629 0.3102 0.50778 0.0
C1412 C 0.528 0.29174 0.49774 0.0
C1413 C 0.57938 0.34569 0.52692 0.0
C1414 C 0.55486 0.35235 0.52112 0.0
C1415 C 0.53837 0.3343 0.5126 0.0
C1416 C 0.54722 0.37843 0.5189 0.0
C1417 C 0.59739 0.36445 0.53682 0.0
C1418 C 0.54037 0.39267 0.53944 0.0
C1419 C 0.53084 0.41654 0.53604 0.0
C1420 C 0.52817 0.42622 0.51212 0.0
C1421 C 0.53564 0.41206 0.49182 0.0
C1422 C 0.54513 0.38848 0.49518 0.0
H1423 H 0.61573 0.35625 0.5409 0.0
H1424 H 0.59979 0.37957 0.52319 0.0
H1425 H 0.5899 0.37271 0.55399 0.0
H1426 H 0.5417 0.38509 0.55788 0.0
H1427 H 0.52484 0.42705 0.55193 0.0
loop_
_geom_bond_atom_site_label_1
_geom_bond_atom_site_label_2
_geom_bond_distance
_geom_bond_site_symmetry_2
_ccdc_geom_bond_type
C0 C1 1.391 . S
C0 C4 1.391 . S
C0 H42 0.948 . S
C1 C0 1.391 . S
C1 C2 1.391 . S
C2 C1 1.391 . S
C2 H58 0.947 . S
C2 C59 1.392 . S
C3 C4 1.391 . S
C3 C7 1.397 . S
C3 C59 1.419 . S
C4 C0 1.391 . S
C4 C3 1.391 . S
C4 C5 1.399 . S
C5 C4 1.399 . S
C5 C8 1.396 . S
C5 C17 1.453 . S
C5 C18 1.684 . S
H6 C30 0.948 . S
C7 C3 1.397 . S
C7 C8 1.394 . S
C7 C26 1.723 . S
C8 C5 1.396 . S
C8 C7 1.394 . S
C8 C38 1.723 . S
H9 C32 0.947 . S
H10 C33 0.948 . S
H11 C39 0.982 . S
H12 C40 0.979 . S
H13 C40 0.980 . S
H14 C40 0.983 . S
H15 C39 0.979 . S
H16 C39 0.977 . S
C17 C5 1.453 . S
C17 H46 0.982 . S
C17 H47 0.979 . S
C17 H48 0.977 . S
C18 C5 1.684 . S
C18 H43 0.979 . S
C18 H44 0.980 . S
C18 H45 0.983 . S
C19 C20 1.391 . S
C19 C24 1.391 . S
C19 H49 0.948 . S
C20 C19 1.391 . S
C20 C21 1.391 . S
C21 C20 1.391 . S
C21 C22 1.392 . S
C21 H50 0.947 . S
C22 C21 1.392 . S
C22 C23 1.419 . S
C22 H51 0.948 . S
C23 C22 1.419 . S
C23 C24 1.391 . S
C23 C27 1.397 . S
C24 C19 1.391 . S
C24 C23 1.391 . S
C24 C25 1.399 . S
C25 C24 1.399 . S
C25 C26 1.396 . S
C25 C28 1.453 . S
C25 C29 1.684 . S
C26 C7 1.723 . S
C26 C25 1.396 . S
C26 C27 1.394 . S
C27 C23 1.397 . S
C27 C26 1.394 . S
C27 C37 1.723 . S
C28 C25 1.453 . S
C28 H52 0.982 . S
C28 H53 0.979 . S
C28 H54 0.977 . S
C29 C25 1.684 . S
C29 H55 0.979 . S
C29 H56 0.980 . S
C29 H57 0.983 . S
C30 H6 0.948 . S
C30 C31 1.391 . S
C30 C35 1.391 . S
C31 C30 1.391 . S
C31 C32 1.391 . S
C32 H9 0.947 . S
C32 C31 1.391 . S
C32 C33 1.392 . S
C33 H10 0.948 . S
C33 C32 1.392 . S
C33 C34 1.419 . S
C34 C33 1.419 . S
C34 C35 1.391 . S
C34 C38 1.397 . S
C35 C30 1.391 . S
C35 C34 1.391 . S
C35 C36 1.399 . S
C36 C35 1.399 . S
C36 C37 1.396 . S
C36 C39 1.453 . S
C36 C40 1.684 . S
C37 C27 1.723 . S
C37 C36 1.396 . S
C37 C38 1.394 . S
C38 C8 1.723 . S
C38 C34 1.397 . S
C38 C37 1.394 . S
C39 H11 0.982 . S
C39 H15 0.979 . S
C39 H16 0.977 . S
C39 C36 1.453 . S
C40 H12 0.979 . S
C40 H13 0.980 . S
C40 H14 0.983 . S
C40 C36 1.684 . S
H41 C59 0.948 . S
H42 C0 0.948 . S
H43 C18 0.979 . S
H44 C18 0.980 . S
H45 C18 0.983 . S
H46 C17 0.982 . S
H47 C17 0.979 . S
H48 C17 0.977 . S
H49 C19 0.948 . S
H50 C21 0.947 . S
H51 C22 0.948 . S
H52 C28 0.982 . S
H53 C28 0.979 . S
H54 C28 0.977 . S
H55 C29 0.979 . S
H56 C29 0.980 . S
H57 C29 0.983 . S
H58 C2 0.947 . S
C59 C2 1.392 . S
C59 C3 1.419 . S
C59 H41 0.948 . S
C60 C61 1.391 . S
C60 C64 1.391 . S
C60 H102 0.948 . S
C61 C60 1.391 . S
C61 C62 1.391 . S
C62 C61 1.391 . S
C62 H118 0.947 . S
C62 C119 1.392 . S
C63 C64 1.391 . S
C63 C67 1.397 . S
C63 C119 1.419 . S
C64 C60 1.391 . S
C64 C63 1.391 . S
C64 C65 1.399 . S
C65 C64 1.399 . S
C65 C68 1.396 . S
C65 C77 1.453 . S
C65 C78 1.684 . S
H66 C90 0.948 . S
C67 C63 1.397 . S
C67 C68 1.394 . S
C67 C86 1.723 . S
C68 C65 1.396 . S
C68 C67 1.394 . S
C68 C98 1.723 . S
H69 C92 0.947 . S
H70 C93 0.948 . S
H71 C99 0.982 . S
H72 C100 0.979 . S
H73 C100 0.980 . S
H74 C100 0.983 . S
H75 C99 0.979 . S
H76 C99 0.977 . S
C77 C65 1.453 . S
C77 H106 0.982 . S
C77 H107 0.979 . S
C77 H108 0.977 . S
C78 C65 1.684 . S
C78 H103 0.979 . S
C78 H104 0.980 . S
C78 H105 0.983 . S
C79 C80 1.391 . S
C79 C84 1.391 . S
C79 H109 0.948 . S
C80 C79 1.391 . S
C80 C81 1.391 . S
C81 C80 1.391 . S
C81 C82 1.392 . S
C81 H110 0.947 . S
C82 C81 1.392 . S
C82 C83 1.419 . S
C82 H111 0.948 . S
C83 C82 1.419 . S
C83 C84 1.391 . S
C83 C87 1.397 . S
C84 C79 1.391 . S
C84 C83 1.391 . S
C84 C85 1.399 . S
C85 C84 1.399 . S
C85 C86 1.396 . S
C85 C88 1.453 . S
C85 C89 1.684 . S
C86 C67 1.723 . S
C86 C85 1.396 . S
C86 C87 1.394 . S
C87 C83 1.397 . S
C87 C86 1.394 . S
C87 C97 1.723 . S
C88 C85 1.453 . S
C88 H112 0.982 . S
C88 H113 0.979 . S
C88 H114 0.977 . S
C89 C85 1.684 . S
C89 H115 0.979 . S
C89 H116 0.980 . S
C89 H117 0.983 . S
C90 H66 0.948 . S
C90 C91 1.391 . S
C90 C95 1.391 . S
C91 C90 1.391 . S
C91 C92 1.391 . S
C92 H69 0.947 . S
C92 C91 1.391 . S
C92 C93 1.392 . S
C93 H70 0.948 . S
C93 C92 1.392 . S
C93 C94 1.419 . S
C94 C93 1.419 . S
C94 C95 1.391 . S
C94 C98 1.397 . S
C95 C90 1.391 . S
C95 C94 1.391 . S
C95 C96 1.399 . S
C96 C95 1.399 . S
C96 C97 1.396 . S
C96 C99 1.453 . S
C96 C100 1.684 . S
C97 C87 1.723 . S
C97 C96 1.396 . S
C97 C98 1.394 . S
C98 C68 1.723 . S
C98 C94 1.397 . S
C98 C97 1.394 . S
C99 H71 0.982 . S
C99 H75 0.979 . S
C99 H76 0.977 . S
C99 C96 1.453 . S
C100 H72 0.979 . S
C100 H73 0.980 . S
C100 H74 0.983 . S
C100 C96 1.684 . S
H101 C119 0.948 . S
H102 C60 0.948 . S
H103 C78 0.979 . S
H104 C78 0.980 . S
H105 C78 0.983 . S
H106 C77 0.982 . S
H107 C77 0.979 . S
H108 C77 0.977 . S
H109 C79 0.948 . S
H110 C81 0.947 . S
H111 C82 0.948 . S
H112 C88 0.982 . S
H113 C88 0.979 . S
H114 C88 0.977 . S
H115 C89 0.979 . S
H116 C89 0.980 . S
H117 C89 0.983 . S
H118 C62 0.947 . S
C119 C62 1.392 . S
C119 C63 1.419 . S
C119 H101 0.948 . S
C120 C121 1.391 . S
C120 C124 1.391 . S
C120 H162 0.948 . S
C121 C120 1.391 . S
C121 C122 1.391 . S
C122 C121 1.391 . S
C122 H178 0.947 . S
C122 C179 1.392 . S
C123 C124 1.391 . S
C123 C127 1.397 . S
C123 C179 1.419 . S
C124 C120 1.391 . S
C124 C123 1.391 . S
C124 C125 1.399 . S
C125 C124 1.399 . S
C125 C128 1.396 . S
C125 C137 1.453 . S
C125 C138 1.684 . S
H126 C150 0.948 . S
C127 C123 1.397 . S
C127 C128 1.394 . S
C127 C146 1.723 . S
C128 C125 1.396 . S
C128 C127 1.394 . S
C128 C158 1.723 . S
H129 C152 0.947 . S
H130 C153 0.948 . S
H131 C159 0.982 . S
H132 C160 0.979 . S
H133 C160 0.980 . S
H134 C160 0.983 . S
H135 C159 0.979 . S
H136 C159 0.977 . S
C137 C125 1.453 . S
C137 H166 0.982 . S
C137 H167 0.979 . S
C137 H168 0.977 . S
C138 C125 1.684 . S
C138 H163 0.979 . S
C138 H164 0.980 . S
C138 H165 0.983 . S
C139 C140 1.391 . S
C139 C144 1.391 . S
C139 H169 0.948 . S
C140 C139 1.391 . S
C140 C141 1.391 . S
C141 C140 1.391 . S
C141 C142 1.392 . S
C141 H170 0.947 . S
C142 C141 1.392 . S
C142 C143 1.419 . S
C142 H171 0.948 . S
C143 C142 1.419 . S
C143 C144 1.391 . S
C143 C147 1.397 . S
C144 C139 1.391 . S
C144 C143 1.391 . S
C144 C145 1.399 . S
C145 C144 1.399 . S
C145 C146 1.396 . S
C145 C148 1.453 . S
C145 C149 1.684 . S
C146 C127 1.723 . S
C146 C145 1.396 . S
C146 C147 1.394 . S
C147 C143 1.397 . S
C147 C146 1.394 . S
C147 C157 1.723 . S
C148 C145 1.453 . S
C148 H172 0.982 . S
C148 H173 0.979 . S
C148 H174 0.977 . S
C149 C145 1.684 . S
C149 H175 0.979 . S
C149 H176 0.980 . S
C149 H177 0.983 . S
C150 H126 0.948 . S
C150 C151 1.391 . S
C150 C155 1.391 . S
C151 C150 1.391 . S
C151 C152 1.391 . S
C152 H129 0.947 . S
C152 C151 1.391 . S
C152 C153 1.392 . S
C153 H130 0.948 . S
C153 C152 1.392 . S
C153 C154 1.419 . S
C154 C153 1.419 . S
C154 C155 1.391 . S
C154 C158 1.397 . S
C155 C150 1.391 . S
C155 C154 1.391 . S
C155 C156 1.399 . S
C156 C155 1.399 . S
C156 C157 1.396 . S
C156 C159 1.453 . S
C156 C160 1.684 . S
C157 C147 1.723 . S
C157 C156 1.396 . S
C157 C158 1.394 . S
C158 C128 1.723 . S
C158 C154 1.397 . S
C158 C157 1.394 . S
C159 H131 0.982 . S
C159 H135 0.979 . S
C159 H136 0.977 . S
C159 C156 1.453 . S
C160 H132 0.979 . S
C160 H133 0.980 . S
C160 H134 0.983 . S
C160 C156 1.684 . S
H161 C179 0.948 . S
H162 C120 0.948 . S
H163 C138 0.979 . S
H164 C138 0.980 . S
H165 C138 0.983 . S
H166 C137 0.982 . S
H167 C137 0.979 . S
H168 C137 0.977 . S
H169 C139 0.948 . S
H170 C141 0.947 . S
H171 C142 0.948 . S
H172 C148 0.982 . S
H173 C148 0.979 . S
H174 C148 0.977 . S
H175 C149 0.979 . S
H176 C149 0.980 . S
H177 C149 0.983 . S
H178 C122 0.947 . S
C179 C122 1.392 . S
C179 C123 1.419 . S
C179 H161 0.948 . S
C180 C181 1.391 . S
C180 C184 1.391 . S
C180 H222 0.948 . S
C181 C180 1.391 . S
C181 C182 1.391 . S
C182 C181 1.391 . S
C182 H238 0.947 . S
C182 C239 1.392 . S
C183 C184 1.391 . S
C183 C187 1.397 . S
C183 C239 1.419 . S
C184 C180 1.391 . S
C184 C183 1.391 . S
C184 C185 1.399 . S
C185 C184 1.399 . S
C185 C188 1.396 . S
C185 C197 1.453 . S
C185 C198 1.684 . S
H186 C210 0.948 . S
C187 C183 1.397 . S
C187 C188 1.394 . S
C187 C206 1.723 . S
C188 C185 1.396 . S
C188 C187 1.394 . S
C188 C218 1.723 . S
H189 C212 0.947 . S
H190 C213 0.948 . S
H191 C219 0.982 . S
H192 C220 0.979 . S
H193 C220 0.980 . S
H194 C220 0.983 . S
H195 C219 0.979 . S
H196 C219 0.977 . S
C197 C185 1.453 . S
C197 H226 0.982 . S
C197 H227 0.979 . S
C197 H228 0.977 . S
C198 C185 1.684 . S
C198 H223 0.979 . S
C198 H224 0.980 . S
C198 H225 0.983 . S
C199 C200 1.391 . S
C199 C204 1.391 . S
C199 H229 0.948 . S
C200 C199 1.391 . S
C200 C201 1.391 . S
C201 C200 1.391 . S
C201 C202 1.392 . S
C201 H230 0.947 . S
C202 C201 1.392 . S
C202 C203 1.419 . S
C202 H231 0.948 . S
C203 C202 1.419 . S
C203 C204 1.391 . S
C203 C207 1.397 . S
C204 C199 1.391 . S
C204 C203 1.391 . S
C204 C205 1.399 . S
C205 C204 1.399 . S
C205 C206 1.396 . S
C205 C208 1.453 . S
C205 C209 1.684 . S
C206 C187 1.723 . S
C206 C205 1.396 . S
C206 C207 1.394 . S
C207 C203 1.397 . S
C207 C206 1.394 . S
C207 C217 1.723 . S
C208 C205 1.453 . S
C208 H232 0.982 . S
C208 H233 0.979 . S
C208 H234 0.977 . S
C209 C205 1.684 . S
C209 H235 0.979 . S
C209 H236 0.980 . S
C209 H237 0.983 . S
C210 H186 0.948 . S
C210 C211 1.391 . S
C210 C215 1.391 . S
C211 C210 1.391 . S
C211 C212 1.391 . S
C212 H189 0.947 . S
C212 C211 1.391 . S
C212 C213 1.392 . S
C213 H190 0.948 . S
C213 C212 1.392 . S
C213 C214 1.419 . S
C214 C213 1.419 . S
C214 C215 1.391 . S
C214 C218 1.397 . S
C215 C210 1.391 . S
C215 C214 1.391 . S
C215 C216 1.399 . S
C216 C215 1.399 . S
C216 C217 1.396 . S
C216 C219 1.453 . S
C216 C220 1.684 . S
C217 C207 1.723 . S
C217 C216 1.396 . S
C217 C218 1.394 . S
C218 C188 1.723 . S
C218 C214 1.397 . S
C218 C217 1.394 . S
C219 H191 0.982 . S
C219 H195 0.979 . S
C219 H196 0.977 . S
C219 C216 1.453 . S
C220 H192 0.979 . S
C220 H193 0.980 . S
C220 H194 0.983 . S
C220 C216 1.684 . S
H221 C239 0.948 . S
H222 C180 0.948 . S
H223 C198 0.979 . S
H224 C198 0.980 . S
H225 C198 0.983 . S
H226 C197 0.982 . S
H227 C197 0.979 . S
H228 C197 0.977 . S
H229 C199 0.948 . S
H230 C201 0.947 . S
H231 C202 0.948 . S
H232 C208 0.982 . S
H233 C208 0.979 . S
H234 C208 0.977 . S
H235 C209 0.979 . S
H236 C209 0.980 . S
H237 C209 0.983 . S
H238 C182 0.947 . S
C239 C182 1.392 . S
C239 C183 1.419 . S
C239 H221 0.948 . S
C240 C241 1.391 . S
C240 C244 1.391 . S
C240 H282 0.948 . S
C241 C240 1.391 . S
C241 C242 1.391 . S
C242 C241 1.391 . S
C242 H298 0.947 1_655 S
C242 C299 1.392 . S
C243 C244 1.391 . S
C243 C247 1.397 . S
C243 C299 1.419 . S
C244 C240 1.391 . S
C244 C243 1.391 . S
C244 C245 1.399 . S
C245 C244 1.399 . S
C245 C248 1.396 . S
C245 C257 1.453 . S
C245 C258 1.684 1_556 S
H246 C270 0.948 . S
C247 C243 1.397 . S
C247 C248 1.394 . S
C247 C266 1.723 . S
C248 C245 1.396 . S
C248 C247 1.394 . S
C248 C278 1.723 . S
H249 C272 0.947 1_554 S
H250 C273 0.948 . S
H251 C279 0.982 . S
H252 C280 0.979 . S
H253 C280 0.980 . S
H254 C280 0.983 . S
H255 C279 0.979 . S
H256 C279 0.977 . S
C257 C245 1.453 . S
C257 H286 0.982 . S
C257 H287 0.979 . S
C257 H288 0.977 . S
C258 C245 1.684 1_554 S
C258 H283 0.979 . S
C258 H284 0.980 . S
C258 H285 0.983 . S
C259 C260 1.391 . S
C259 C264 1.391 . S
C259 H289 0.948 . S
C260 C259 1.391 . S
C260 C261 1.391 . S
C261 C260 1.391 . S
C261 C262 1.392 . S
C261 H290 0.947 1_565 S
C262 C261 1.392 . S
C262 C263 1.419 . S
C262 H291 0.948 . S
C263 C262 1.419 . S
C263 C264 1.391 . S
C263 C267 1.397 . S
C264 C259 1.391 . S
C264 C263 1.391 . S
C264 C265 1.399 . S
C265 C264 1.399 . S
C265 C266 1.396 . S
C265 C268 1.453 . S
C265 C269 1.684 1_655 S
C266 C247 1.723 . S
C266 C265 1.396 . S
C266 C267 1.394 . S
C267 C263 1.397 . S
C267 C266 1.394 . S
C267 C277 1.723 . S
C268 C265 1.453 . S
C268 H292 0.982 . S
C268 H293 0.979 . S
C268 H294 0.977 . S
C269 C265 1.684 1_455 S
C269 H295 0.979 . S
C269 H296 0.980 . S
C269 H297 0.983 . S
C270 H246 0.948 . S
C270 C271 1.391 . S
C270 C275 1.391 . S
C271 C270 1.391 . S
C271 C272 1.391 . S
C272 H249 0.947 1_556 S
C272 C271 1.391 . S
C272 C273 1.392 . S
C273 H250 0.948 . S
C273 C272 1.392 . S
C273 C274 1.419 . S
C274 C273 1.419 . S
C274 C275 1.391 . S
C274 C278 1.397 . S
C275 C270 1.391 . S
C275 C274 1.391 . S
C275 C276 1.399 . S
C276 C275 1.399 . S
C276 C277 1.396 . S
C276 C279 1.453 . S
C276 C280 1.684 1_565 S
C277 C267 1.723 . S
C277 C276 1.396 . S
C277 C278 1.394 . S
C278 C248 1.723 . S
C278 C274 1.397 . S
C278 C277 1.394 . S
C279 H251 0.982 . S
C279 H255 0.979 . S
C279 H256 0.977 . S
C279 C276 1.453 . S
C280 H252 0.979 . S
C280 H253 0.980 . S
C280 H254 0.983 . S
C280 C276 1.684 1_545 S
H281 C299 0.948 . S
H282 C240 0.948 . S
H283 C258 0.979 . S
H284 C258 0.980 . S
H285 C258 0.983 . S
H286 C257 0.982 . S
H287 C257 0.979 . S
H288 C257 0.977 . S
H289 C259 0.948 . S
H290 C261 0.947 1_545 S
H291 C262 0.948 . S
H292 C268 0.982 . S
H293 C268 0.979 . S
H294 C268 0.977 . S
H295 C269 0.979 . S
H296 C269 0.980 . S
H297 C269 0.983 . S
H298 C242 0.947 1_455 S
C299 C242 1.392 . S
C299 C243 1.419 . S
C299 H281 0.948 . S
C300 C301 1.391 . S
C300 C304 1.391 . S
C300 H342 0.948 . S
C301 C300 1.391 . S
C301 C302 1.391 . S
C302 C301 1.391 . S
C302 H358 0.947 . S
C302 C359 1.392 . S
C303 C304 1.391 . S
C303 C307 1.397 . S
C303 C359 1.419 . S
C304 C300 1.391 . S
C304 C303 1.391 . S
C304 C305 1.399 . S
C305 C304 1.399 . S
C305 C308 1.396 . S
C305 C317 1.453 . S
C305 C318 1.684 . S
H306 C330 0.948 . S
C307 C303 1.397 . S
C307 C308 1.394 . S
C307 C326 1.723 . S
C308 C305 1.396 . S
C308 C307 1.394 . S
C308 C338 1.723 . S
H309 C332 0.947 . S
H310 C333 0.948 . S
H311 C339 0.982 . S
H312 C340 0.979 . S
H313 C340 0.980 . S
H314 C340 0.983 . S
H315 C339 0.979 . S
H316 C339 0.977 . S
C317 C305 1.453 . S
C317 H346 0.982 . S
C317 H347 0.979 . S
C317 H348 0.977 . S
C318 C305 1.684 . S
C318 H343 0.979 . S
C318 H344 0.980 . S
C318 H345 0.983 . S
C319 C320 1.391 . S
C319 C324 1.391 . S
C319 H349 0.948 . S
C320 C319 1.391 . S
C320 C321 1.391 . S
C321 C320 1.391 . S
C321 C322 1.392 . S
C321 H350 0.947 . S
C322 C321 1.392 . S
C322 C323 1.419 . S
C322 H351 0.948 . S
C323 C322 1.419 . S
C323 C324 1.391 . S
C323 C327 1.397 . S
C324 C319 1.391 . S
C324 C323 1.391 . S
C324 C325 1.399 . S
C325 C324 1.399 . S
C325 C326 1.396 . S
C325 C328 1.453 . S
C325 C329 1.684 . S
C326 C307 1.723 . S
C326 C325 1.396 . S
C326 C327 1.394 . S
C327 C323 1.397 . S
C327 C326 1.394 . S
C327 C337 1.723 . S
C328 C325 1.453 . S
C328 H352 0.982 . S
C328 H353 0.979 . S
C328 H354 0.977 . S
C329 C325 1.684 . S
C329 H355 0.979 . S
C329 H356 0.980 . S
C329 H357 0.983 . S
C330 H306 0.948 . S
C330 C331 1.391 . S
C330 C335 1.391 . S
C331 C330 1.391 . S
C331 C332 1.391 . S
C332 H309 0.947 . S
C332 C331 1.391 . S
C332 C333 1.392 . S
C333 H310 0.948 . S
C333 C332 1.392 . S
C333 C334 1.419 . S
C334 C333 1.419 . S
C334 C335 1.391 . S
C334 C338 1.397 . S
C335 C330 1.391 . S
C335 C334 1.391 . S
C335 C336 1.399 . S
C336 C335 1.399 . S
C336 C337 1.396 . S
C336 C339 1.453 . S
C336 C340 1.684 . S
C337 C327 1.723 . S
C337 C336 1.396 . S
C337 C338 1.394 . S
C338 C308 1.723 . S
C338 C334 1.397 . S
C338 C337 1.394 . S
C339 H311 0.982 . S
C339 H315 0.979 . S
C339 H316 0.977 . S
C339 C336 1.453 . S
C340 H312 0.979 . S
C340 H313 0.980 . S
C340 H314 0.983 . S
C340 C336 1.684 . S
H341 C359 0.948 . S
H342 C300 0.948 . S
H343 C318 0.979 . S
H344 C318 0.980 . S
H345 C318 0.983 . S
H346 C317 0.982 . S
H347 C317 0.979 . S
H348 C317 0.977 . S
H349 C319 0.948 . S
H350 C321 0.947 . S
H351 C322 0.948 . S
H352 C328 0.982 . S
H353 C328 0.979 . S
H354 C328 0.977 . S
H355 C329 0.979 . S
H356 C329 0.980 . S
H357 C329 0.983 . S
H358 C302 0.947 . S
C359 C302 1.392 . S
C359 C303 1.419 . S
C359 H341 0.948 . S
C360 C361 1.391 . S
C360 C364 1.391 . S
C360 H402 0.948 . S
C361 C360 1.391 . S
C361 C362 1.391 . S
C362 C361 1.391 . S
C362 H418 0.947 . S
C362 C419 1.392 . S
C363 C364 1.391 . S
C363 C367 1.397 . S
C363 C419 1.419 . S
C364 C360 1.391 . S
C364 C363 1.391 . S
C364 C365 1.399 . S
C365 C364 1.399 . S
C365 C368 1.396 . S
C365 C377 1.453 . S
C365 C378 1.684 . S
H366 C390 0.948 . S
C367 C363 1.397 . S
C367 C368 1.394 . S
C367 C386 1.723 . S
C368 C365 1.396 . S
C368 C367 1.394 . S
C368 C398 1.723 . S
H369 C392 0.947 . S
H370 C393 0.948 . S
H371 C399 0.982 . S
H372 C400 0.979 . S
H373 C400 0.980 . S
H374 C400 0.983 . S
H375 C399 0.979 . S
H376 C399 0.977 . S
C377 C365 1.453 . S
C377 H406 0.982 . S
C377 H407 0.979 . S
C377 H408 0.977 . S
C378 C365 1.684 . S
C378 H403 0.979 . S
C378 H404 0.980 . S
C378 H405 0.983 . S
C379 C380 1.391 . S
C379 C384 1.391 . S
C379 H409 0.948 . S
C380 C379 1.391 . S
C380 C381 1.391 . S
C381 C380 1.391 . S
C381 C382 1.392 . S
C381 H410 0.947 . S
C382 C381 1.392 . S
C382 C383 1.419 . S
C382 H411 0.948 . S
C383 C382 1.419 . S
C383 C384 1.391 . S
C383 C387 1.397 . S
C384 C379 1.391 . S
C384 C383 1.391 . S
C384 C385 1.399 . S
C385 C384 1.399 . S
C385 C386 1.396 . S
C385 C388 1.453 . S
C385 C389 1.684 . S
C386 C367 1.723 . S
C386 C385 1.396 . S
C386 C387 1.394 . S
C387 C383 1.397 . S
C387 C386 1.394 . S
C387 C397 1.723 . S
C388 C385 1.453 . S
C388 H412 0.982 . S
C388 H413 0.979 . S
C388 H414 0.977 . S
C389 C385 1.684 . S
C389 H415 0.979 . S
C389 H416 0.980 . S
C389 H417 0.983 . S
C390 H366 0.948 . S
C390 C391 1.391 . S
C390 C395 1.391 . S
C391 C390 1.391 . S
C391 C392 1.391 . S
C392 H369 0.947 . S
C392 C391 1.391 . S
C392 C393 1.392 . S
C393 H370 0.948 . S
C393 C392 1.392 . S
C393 C394 1.419 . S
C394 C393 1.419 . S
C394 C395 1.391 . S
C394 C398 1.397 . S
C395 C390 1.391 . S
C395 C394 1.391 . S
C395 C396 1.399 . S
C396 C395 1.399 . S
C396 C397 1.396 . S
C396 C399 1.453 . S
C396 C400 1.684 . S
C397 C387 1.723 . S
C397 C396 1.396 . S
C397 C398 1.394 . S
C398 C368 1.723 . S
C398 C394 1.397 . S
C398 C397 1.394 . S
C399 H371 0.982 . S
C399 H375 0.979 . S
C399 H376 0.977 . S
C399 C396 1.453 . S
C400 H372 0.979 . S
C400 H373 0.980 . S
C400 H374 0.983 . S
C400 C396 1.684 . S
H401 C419 0.948 . S
H402 C360 0.948 . S
H403 C378 0.979 . S
H404 C378 0.980 . S
H405 C378 0.983 . S
H406 C377 0.982 . S
H407 C377 0.979 . S
H408 C377 0.977 . S
H409 C379 0.948 . S
H410 C381 0.947 . S
H411 C382 0.948 . S
H412 C388 0.982 . S
H413 C388 0.979 . S
H414 C388 0.977 . S
H415 C389 0.979 . S
H416 C389 0.980 . S
H417 C389 0.983 . S
H418 C362 0.947 . S
C419 C362 1.392 . S
C419 C363 1.419 . S
C419 H401 0.948 . S
C420 C421 1.391 . S
C420 C424 1.391 . S
C420 H462 0.948 . S
C421 C420 1.391 . S
C421 C422 1.391 . S
C422 C421 1.391 . S
C422 H478 0.947 . S
C422 C479 1.392 . S
C423 C424 1.391 . S
C423 C427 1.397 . S
C423 C479 1.419 . S
C424 C420 1.391 . S
C424 C423 1.391 . S
C424 C425 1.399 . S
C425 C424 1.399 . S
C425 C428 1.396 . S
C425 C437 1.453 . S
C425 C438 1.684 . S
H426 C450 0.948 . S
C427 C423 1.397 . S
C427 C428 1.394 . S
C427 C446 1.723 . S
C428 C425 1.396 . S
C428 C427 1.394 . S
C428 C458 1.723 . S
H429 C452 0.947 . S
H430 C453 0.948 . S
H431 C459 0.982 . S
H432 C460 0.979 . S
H433 C460 0.980 . S
H434 C460 0.983 . S
H435 C459 0.979 . S
H436 C459 0.977 . S
C437 C425 1.453 . S
C437 H466 0.982 . S
C437 H467 0.979 . S
C437 H468 0.977 . S
C438 C425 1.684 . S
C438 H463 0.979 . S
C438 H464 0.980 . S
C438 H465 0.983 . S
C439 C440 1.391 . S
C439 C444 1.391 . S
C439 H469 0.948 . S
C440 C439 1.391 . S
C440 C441 1.391 . S
C441 C440 1.391 . S
C441 C442 1.392 . S
C441 H470 0.947 . S
C442 C441 1.392 . S
C442 C443 1.419 . S
C442 H471 0.948 . S
C443 C442 1.419 . S
C443 C444 1.391 . S
C443 C447 1.397 . S
C444 C439 1.391 . S
C444 C443 1.391 . S
C444 C445 1.399 . S
C445 C444 1.399 . S
C445 C446 1.396 . S
C445 C448 1.453 . S
C445 C449 1.684 . S
C446 C427 1.723 . S
C446 C445 1.396 . S
C446 C447 1.394 . S
C447 C443 1.397 . S
C447 C446 1.394 . S
C447 C457 1.723 . S
C448 C445 1.453 . S
C448 H472 0.982 . S
C448 H473 0.979 . S
C448 H474 0.977 . S
C449 C445 1.684 . S
C449 H475 0.979 . S
C449 H476 0.980 . S
C449 H477 0.983 . S
C450 H426 0.948 . S
C450 C451 1.391 . S
C450 C455 1.391 . S
C451 C450 1.391 . S
C451 C452 1.391 . S
C452 H429 0.947 . S
C452 C451 1.391 . S
C452 C453 1.392 . S
C453 H430 0.948 . S
C453 C452 1.392 . S
C453 C454 1.419 . S
C454 C453 1.419 . S
C454 C455 1.391 . S
C454 C458 1.397 . S
C455 C450 1.391 . S
C455 C454 1.391 . S
C455 C456 1.399 . S
C456 C455 1.399 . S
C456 C457 1.396 . S
C456 C459 1.453 . S
C456 C460 1.684 . S
C457 C447 1.723 . S
C457 C456 1.396 . S
C457 C458 1.394 . S
C458 C428 1.723 . S
C458 C454 1.397 . S
C458 C457 1.394 . S
C459 H431 0.982 . S
C459 H435 0.979 . S
C459 H436 0.977 . S
C459 C456 1.453 . S
C460 H432 0.979 . S
C460 H433 0.980 . S
C460 H434 0.983 . S
C460 C456 1.684 . S
H461 C479 0.948 . S
H462 C420 0.948 . S
H463 C438 0.979 . S
H464 C438 0.980 . S
H465 C438 0.983 . S
H466 C437 0.982 . S
H467 C437 0.979 . S
H468 C437 0.977 . S
H469 C439 0.948 . S
H470 C441 0.947 . S
H471 C442 0.948 . S
H472 C448 0.982 . S
H473 C448 0.979 . S
H474 C448 0.977 . S
H475 C449 0.979 . S
H476 C449 0.980 . S
H477 C449 0.983 . S
H478 C422 0.947 . S
C479 C422 1.392 . S
C479 C423 1.419 . S
C479 H461 0.948 . S
Zn480 O486 1.920 . S
Zn480 O492 1.898 . S
Zn480 O495 1.905 . S
Zn481 O489 1.905 1_565 S
Zn481 O490 1.898 . S
Zn481 O498 1.920 . S
Zn482 O485 2.080 1_455 S
Zn482 O488 2.114 . S
Zn482 O491 2.120 1_445 S
Zn482 O493 2.120 . S
Zn482 O494 2.114 1_455 S
Zn482 O497 2.080 . S
C483 O488 1.166 . S
C483 O489 1.182 . S
C484 O490 1.167 1_655 S
C484 O491 1.299 . S
O485 Zn482 2.080 1_655 S
O485 C499 1.305 . S
O486 Zn480 1.920 . S
O486 C499 1.234 . S
C487 O492 1.167 1_455 S
C487 O493 1.299 . S
O488 Zn482 2.114 . S
O488 C483 1.166 . S
O489 Zn481 1.905 1_545 S
O489 C483 1.182 . S
O490 Zn481 1.898 . S
O490 C484 1.167 1_455 S
O491 Zn482 2.120 1_665 S
O491 C484 1.299 . S
O492 Zn480 1.898 . S
O492 C487 1.167 1_655 S
O493 Zn482 2.120 . S
O493 C487 1.299 . S
O494 Zn482 2.114 1_655 S
O494 C496 1.166 . S
O495 Zn480 1.905 . S
O495 C496 1.182 . S
C496 O494 1.166 . S
C496 O495 1.182 . S
O497 Zn482 2.080 . S
O497 C500 1.304 . S
O498 Zn481 1.920 . S
O498 C500 1.235 1_565 S
C499 O485 1.305 . S
C499 O486 1.234 . S
C500 O497 1.304 . S
C500 O498 1.235 1_545 S
Zn501 O507 1.920 1_556 S
Zn501 O513 1.898 . S
Zn501 O516 1.905 . S
Zn502 O510 1.905 . S
Zn502 O511 1.898 . S
Zn502 O519 1.920 . S
Zn503 O506 2.080 . S
Zn503 O509 2.114 1_545 S
Zn503 O512 2.120 1_545 S
Zn503 O514 2.120 . S
Zn503 O515 2.114 1_544 S
Zn503 O518 2.080 . S
C504 O509 1.166 . S
C504 O510 1.182 . S
C505 O511 1.167 . S
C505 O512 1.299 . S
O506 Zn503 2.080 . S
O506 C520 1.305 . S
O507 Zn501 1.920 1_554 S
O507 C520 1.234 . S
C508 O513 1.167 . S
C508 O514 1.299 1_556 S
O509 Zn503 2.114 1_565 S
O509 C504 1.166 . S
O510 Zn502 1.905 . S
O510 C504 1.182 . S
O511 Zn502 1.898 . S
O511 C505 1.167 . S
O512 Zn503 2.120 1_565 S
O512 C505 1.299 . S
O513 Zn501 1.898 . S
O513 C508 1.167 . S
O514 Zn503 2.120 . S
O514 C508 1.299 1_554 S
O515 Zn503 2.114 1_566 S
O515 C517 1.166 . S
O516 Zn501 1.905 . S
O516 C517 1.182 1_545 S
C517 O515 1.166 . S
C517 O516 1.182 1_565 S
O518 Zn503 2.080 . S
O518 C521 1.305 . S
O519 Zn502 1.920 . S
O519 C521 1.234 1_565 S
C520 O506 1.305 . S
C520 O507 1.234 . S
C521 O518 1.305 . S
C521 O519 1.234 1_545 S
Zn522 O528 1.920 . S
Zn522 O534 1.898 . S
Zn522 O537 1.905 . S
Zn523 O531 1.905 . S
Zn523 O532 1.898 . S
Zn523 O540 1.920 . S
Zn524 O527 2.080 . S
Zn524 O530 2.114 . S
Zn524 O533 2.120 . S
Zn524 O535 2.120 . S
Zn524 O536 2.114 . S
Zn524 O539 2.080 . S
C525 O530 1.166 . S
C525 O531 1.182 . S
C526 O532 1.167 . S
C526 O533 1.299 . S
O527 Zn524 2.080 . S
O527 C541 1.305 . S
O528 Zn522 1.920 . S
O528 C541 1.234 . S
C529 O534 1.167 . S
C529 O535 1.299 . S
O530 Zn524 2.114 . S
O530 C525 1.166 . S
O531 Zn523 1.905 . S
O531 C525 1.182 . S
O532 Zn523 1.898 . S
O532 C526 1.167 . S
O533 Zn524 2.120 . S
O533 C526 1.299 . S
O534 Zn522 1.898 . S
O534 C529 1.167 . S
O535 Zn524 2.120 . S
O535 C529 1.299 . S
O536 Zn524 2.114 . S
O536 C538 1.166 . S
O537 Zn522 1.905 . S
O537 C538 1.182 . S
C538 O536 1.166 . S
C538 O537 1.182 . S
O539 Zn524 2.080 . S
O539 C542 1.305 . S
O540 Zn523 1.920 . S
O540 C542 1.234 . S
C541 O527 1.305 . S
C541 O528 1.234 . S
C542 O539 1.305 . S
C542 O540 1.234 . S
Zn543 O549 1.920 . S
Zn543 O555 1.898 . S
Zn543 O558 1.905 . S
Zn544 O552 1.905 1_655 S
Zn544 O553 1.898 . S
Zn544 O561 1.920 . S
Zn545 O548 2.080 1_554 S
Zn545 O551 2.114 . S
Zn545 O554 2.120 1_454 S
Zn545 O556 2.120 . S
Zn545 O557 2.114 1_554 S
Zn545 O560 2.080 . S
C546 O551 1.166 . S
C546 O552 1.182 . S
C547 O553 1.167 1_556 S
C547 O554 1.299 . S
O548 Zn545 2.080 1_556 S
O548 C562 1.305 . S
O549 Zn543 1.920 . S
O549 C562 1.234 . S
C550 O555 1.167 1_554 S
C550 O556 1.299 . S
O551 Zn545 2.114 . S
O551 C546 1.166 . S
O552 Zn544 1.905 1_455 S
O552 C546 1.182 . S
O553 Zn544 1.898 . S
O553 C547 1.167 1_554 S
O554 Zn545 2.120 1_656 S
O554 C547 1.299 . S
O555 Zn543 1.898 . S
O555 C550 1.167 1_556 S
O556 Zn545 2.120 . S
O556 C550 1.299 . S
O557 Zn545 2.114 1_556 S
O557 C559 1.166 . S
O558 Zn543 1.905 . S
O558 C559 1.182 . S
C559 O557 1.166 . S
C559 O558 1.182 . S
O560 Zn545 2.080 . S
O560 C563 1.275 1_455 S
O561 Zn544 1.920 . S
O561 C563 1.257 . S
C562 O548 1.305 . S
C562 O549 1.234 . S
C563 O560 1.275 1_655 S
C563 O561 1.257 . S
H564 C572 0.929 . S
H565 C574 0.930 . S
H566 C576 0.930 . S
H567 C579 0.929 . S
H568 C582 0.930 . S
H569 C584 0.960 . S
H570 C584 0.960 . S
H571 C584 0.960 . S
C572 H564 0.929 . S
C572 C573 1.377 . S
C572 C574 1.384 . S
C573 C572 1.377 . S
C573 C579 1.390 . S
C574 H565 0.930 . S
C574 C572 1.384 . S
C574 C575 1.372 . S
C575 C574 1.372 . S
C575 C576 1.400 . S
C575 C580 1.490 . S
C576 H566 0.930 . S
C576 C575 1.400 . S
C576 C579 1.386 . S
H577 C593 0.930 . S
H578 C594 0.931 . S
C579 H567 0.929 . S
C579 C573 1.390 . S
C579 C576 1.386 . S
C580 C575 1.490 . S
C580 C582 1.395 . S
C580 C583 1.403 . S
H581 C587 0.930 . S
C582 H568 0.930 . S
C582 C580 1.395 . S
C582 C585 1.403 . S
C583 C580 1.403 . S
C583 C584 1.524 . S
C583 C587 1.400 . S
C584 H569 0.960 . S
C584 H570 0.960 . S
C584 H571 0.960 . S
C584 C583 1.524 . S
C585 C582 1.403 . S
C585 C586 1.392 . S
C585 C589 1.495 . S
C586 C585 1.392 . S
C586 C587 1.385 . S
C586 C588 1.478 . S
C587 H581 0.930 . S
C587 C583 1.400 . S
C587 C586 1.385 . S
C588 C586 1.478 . S
C588 C590 1.381 . S
C588 C594 1.383 . S
C589 C585 1.495 . S
C589 H595 0.959 . S
C589 H596 0.961 . S
C589 H597 0.960 . S
C590 C588 1.381 . S
C590 C591 1.394 . S
C590 H598 0.930 . S
C591 C590 1.394 . S
C591 C592 1.383 . S
C591 H599 0.929 . S
C592 C591 1.383 . S
C592 C593 1.377 . S
C593 H577 0.930 . S
C593 C592 1.377 . S
C593 C594 1.379 . S
C594 H578 0.931 . S
C594 C588 1.383 . S
C594 C593 1.379 . S
H595 C589 0.959 . S
H596 C589 0.961 . S
H597 C589 0.960 . S
H598 C590 0.930 . S
H599 C591 0.929 . S
H600 C608 0.929 . S
H601 C610 0.930 . S
H602 C612 0.930 . S
H603 C615 0.929 . S
H604 C618 0.930 . S
H605 C620 0.960 . S
H606 C620 0.960 . S
H607 C620 0.960 . S
C608 H600 0.929 . S
C608 C609 1.377 . S
C608 C610 1.384 . S
C609 C608 1.377 . S
C609 C615 1.390 . S
C610 H601 0.930 . S
C610 C608 1.384 . S
C610 C611 1.372 . S
C611 C610 1.372 . S
C611 C612 1.400 . S
C611 C616 1.490 . S
C612 H602 0.930 . S
C612 C611 1.400 . S
C612 C615 1.386 . S
H613 C629 0.930 . S
H614 C630 0.931 . S
C615 H603 0.929 . S
C615 C609 1.390 . S
C615 C612 1.386 . S
C616 C611 1.490 . S
C616 C618 1.395 . S
C616 C619 1.403 . S
H617 C623 0.930 . S
C618 H604 0.930 . S
C618 C616 1.395 . S
C618 C621 1.403 . S
C619 C616 1.403 . S
C619 C620 1.524 . S
C619 C623 1.400 . S
C620 H605 0.960 . S
C620 H606 0.960 . S
C620 H607 0.960 . S
C620 C619 1.524 . S
C621 C618 1.403 . S
C621 C622 1.392 . S
C621 C625 1.495 . S
C622 C621 1.392 . S
C622 C623 1.385 . S
C622 C624 1.478 . S
C623 H617 0.930 . S
C623 C619 1.400 . S
C623 C622 1.385 . S
C624 C622 1.478 . S
C624 C626 1.381 . S
C624 C630 1.383 . S
C625 C621 1.495 . S
C625 H631 0.959 . S
C625 H632 0.961 . S
C625 H633 0.960 . S
C626 C624 1.381 . S
C626 C627 1.394 . S
C626 H634 0.930 . S
C627 C626 1.394 . S
C627 C628 1.383 . S
C627 H635 0.929 . S
C628 C627 1.383 . S
C628 C629 1.377 . S
C629 H613 0.930 . S
C629 C628 1.377 . S
C629 C630 1.379 . S
C630 H614 0.931 . S
C630 C624 1.383 . S
C630 C629 1.379 . S
H631 C625 0.959 . S
H632 C625 0.961 . S
H633 C625 0.960 . S
H634 C626 0.930 . S
H635 C627 0.929 . S
H636 C644 0.929 . S
H637 C646 0.930 . S
H638 C648 0.930 . S
H639 C651 0.929 . S
H640 C654 0.930 . S
H641 C656 0.960 . S
H642 C656 0.960 . S
H643 C656 0.960 . S
C644 H636 0.929 . S
C644 C645 1.377 . S
C644 C646 1.384 . S
C645 C644 1.377 . S
C645 C651 1.390 . S
C646 H637 0.930 . S
C646 C644 1.384 . S
C646 C647 1.372 . S
C647 C646 1.372 . S
C647 C648 1.400 . S
C647 C652 1.490 . S
C648 H638 0.930 . S
C648 C647 1.400 . S
C648 C651 1.386 . S
H649 C665 0.930 . S
H650 C666 0.931 . S
C651 H639 0.929 . S
C651 C645 1.390 . S
C651 C648 1.386 . S
C652 C647 1.490 . S
C652 C654 1.395 . S
C652 C655 1.403 . S
H653 C659 0.930 . S
C654 H640 0.930 . S
C654 C652 1.395 . S
C654 C657 1.403 . S
C655 C652 1.403 . S
C655 C656 1.524 . S
C655 C659 1.400 . S
C656 H641 0.960 . S
C656 H642 0.960 . S
C656 H643 0.960 . S
C656 C655 1.524 . S
C657 C654 1.403 . S
C657 C658 1.392 . S
C657 C661 1.495 . S
C658 C657 1.392 . S
C658 C659 1.385 . S
C658 C660 1.478 . S
C659 H653 0.930 . S
C659 C655 1.400 . S
C659 C658 1.385 . S
C660 C658 1.478 . S
C660 C662 1.381 . S
C660 C666 1.383 . S
C661 C657 1.495 . S
C661 H667 0.959 . S
C661 H668 0.961 . S
C661 H669 0.960 . S
C662 C660 1.381 . S
C662 C663 1.394 . S
C662 H670 0.930 . S
C663 C662 1.394 . S
C663 C664 1.383 . S
C663 H671 0.929 . S
C664 C663 1.383 . S
C664 C665 1.377 . S
C665 H649 0.930 . S
C665 C664 1.377 . S
C665 C666 1.379 . S
C666 H650 0.931 . S
C666 C660 1.383 . S
C666 C665 1.379 . S
H667 C661 0.959 . S
H668 C661 0.961 . S
H669 C661 0.960 . S
H670 C662 0.930 . S
H671 C663 0.929 . S
H672 C680 0.929 . S
H673 C682 0.930 . S
H674 C684 0.930 . S
H675 C687 0.929 . S
H676 C690 0.930 . S
H677 C692 0.960 . S
H678 C692 0.960 . S
H679 C692 0.960 . S
C680 H672 0.929 . S
C680 C681 1.377 . S
C680 C682 1.384 . S
C681 C680 1.377 . S
C681 C687 1.390 . S
C682 H673 0.930 . S
C682 C680 1.384 . S
C682 C683 1.372 . S
C683 C682 1.372 . S
C683 C684 1.400 . S
C683 C688 1.490 . S
C684 H674 0.930 . S
C684 C683 1.400 . S
C684 C687 1.386 . S
H685 C701 0.930 . S
H686 C702 0.931 . S
C687 H675 0.929 . S
C687 C681 1.390 . S
C687 C684 1.386 . S
C688 C683 1.490 . S
C688 C690 1.395 . S
C688 C691 1.403 . S
H689 C695 0.930 . S
C690 H676 0.930 . S
C690 C688 1.395 . S
C690 C693 1.403 . S
C691 C688 1.403 . S
C691 C692 1.524 . S
C691 C695 1.400 . S
C692 H677 0.960 . S
C692 H678 0.960 . S
C692 H679 0.960 . S
C692 C691 1.524 . S
C693 C690 1.403 . S
C693 C694 1.392 . S
C693 C697 1.495 . S
C694 C693 1.392 . S
C694 C695 1.385 . S
C694 C696 1.478 . S
C695 H689 0.930 . S
C695 C691 1.400 . S
C695 C694 1.385 . S
C696 C694 1.478 . S
C696 C698 1.381 . S
C696 C702 1.383 . S
C697 C693 1.495 . S
C697 H703 0.959 1_655 S
C697 H704 0.961 1_655 S
C697 H705 0.960 . S
C698 C696 1.381 . S
C698 C699 1.394 . S
C698 H706 0.930 . S
C699 C698 1.394 . S
C699 C700 1.383 . S
C699 H707 0.929 . S
C700 C699 1.383 . S
C700 C701 1.377 . S
C701 H685 0.930 . S
C701 C700 1.377 . S
C701 C702 1.379 . S
C702 H686 0.931 . S
C702 C696 1.383 . S
C702 C701 1.379 . S
H703 C697 0.959 1_455 S
H704 C697 0.961 1_455 S
H705 C697 0.960 . S
H706 C698 0.930 . S
H707 C699 0.929 . S
H708 C716 0.929 . S
H709 C718 0.930 . S
H710 C720 0.930 . S
H711 C723 0.929 . S
H712 C726 0.930 . S
H713 C728 0.960 . S
H714 C728 0.960 . S
H715 C728 0.960 . S
C716 H708 0.929 . S
C716 C717 1.377 . S
C716 C718 1.384 . S
C717 C716 1.377 . S
C717 C723 1.390 . S
C718 H709 0.930 . S
C718 C716 1.384 . S
C718 C719 1.372 . S
C719 C718 1.372 . S
C719 C720 1.400 . S
C719 C724 1.490 . S
C720 H710 0.930 . S
C720 C719 1.400 . S
C720 C723 1.386 . S
H721 C737 0.930 . S
H722 C738 0.931 . S
C723 H711 0.929 . S
C723 C717 1.390 . S
C723 C720 1.386 . S
C724 C719 1.490 . S
C724 C726 1.395 . S
C724 C727 1.403 . S
H725 C731 0.930 . S
C726 H712 0.930 . S
C726 C724 1.395 . S
C726 C729 1.403 . S
C727 C724 1.403 . S
C727 C728 1.524 . S
C727 C731 1.400 . S
C728 H713 0.960 . S
C728 H714 0.960 . S
C728 H715 0.960 . S
C728 C727 1.524 . S
C729 C726 1.403 . S
C729 C730 1.392 . S
C729 C733 1.495 . S
C730 C729 1.392 . S
C730 C731 1.385 . S
C730 C732 1.478 . S
C731 H725 0.930 . S
C731 C727 1.400 . S
C731 C730 1.385 . S
C732 C730 1.478 . S
C732 C734 1.381 . S
C732 C738 1.383 . S
C733 C729 1.495 . S
C733 H739 0.959 . S
C733 H740 0.961 . S
C733 H741 0.960 . S
C734 C732 1.381 . S
C734 C735 1.394 . S
C734 H742 0.930 . S
C735 C734 1.394 . S
C735 C736 1.383 . S
C735 H743 0.929 . S
C736 C735 1.383 . S
C736 C737 1.377 . S
C737 H721 0.930 . S
C737 C736 1.377 . S
C737 C738 1.379 . S
C738 H722 0.931 . S
C738 C732 1.383 . S
C738 C737 1.379 . S
H739 C733 0.959 . S
H740 C733 0.961 . S
H741 C733 0.960 . S
H742 C734 0.930 . S
H743 C735 0.929 . S
H744 C752 0.929 . S
H745 C754 0.930 . S
H746 C756 0.930 . S
H747 C759 0.929 . S
H748 C762 0.930 . S
H749 C764 0.960 . S
H750 C764 0.960 . S
H751 C764 0.960 . S
C752 H744 0.929 . S
C752 C753 1.377 . S
C752 C754 1.384 . S
C753 C752 1.377 . S
C753 C759 1.390 . S
C754 H745 0.930 . S
C754 C752 1.384 . S
C754 C755 1.372 . S
C755 C754 1.372 . S
C755 C756 1.400 . S
C755 C760 1.490 . S
C756 H746 0.930 . S
C756 C755 1.400 . S
C756 C759 1.386 . S
H757 C773 0.930 . S
H758 C774 0.931 1_545 S
C759 H747 0.929 . S
C759 C753 1.390 . S
C759 C756 1.386 . S
C760 C755 1.490 . S
C760 C762 1.395 . S
C760 C763 1.403 . S
H761 C767 0.930 . S
C762 H748 0.930 . S
C762 C760 1.395 . S
C762 C765 1.403 . S
C763 C760 1.403 . S
C763 C764 1.524 . S
C763 C767 1.400 . S
C764 H749 0.960 . S
C764 H750 0.960 . S
C764 H751 0.960 . S
C764 C763 1.524 . S
C765 C762 1.403 . S
C765 C766 1.392 . S
C765 C769 1.495 . S
C766 C765 1.392 . S
C766 C767 1.385 . S
C766 C768 1.478 . S
C767 H761 0.930 . S
C767 C763 1.400 . S
C767 C766 1.385 . S
C768 C766 1.478 . S
C768 C770 1.381 . S
C768 C774 1.383 . S
C769 C765 1.495 . S
C769 H775 0.959 . S
C769 H776 0.961 . S
C769 H777 0.960 . S
C770 C768 1.381 . S
C770 C771 1.394 . S
C770 H778 0.930 . S
C771 C770 1.394 . S
C771 C772 1.383 . S
C771 H779 0.929 . S
C772 C771 1.383 . S
C772 C773 1.377 1_565 S
C773 H757 0.930 . S
C773 C772 1.377 1_545 S
C773 C774 1.379 1_545 S
C774 H758 0.931 1_565 S
C774 C768 1.383 . S
C774 C773 1.379 1_565 S
H775 C769 0.959 . S
H776 C769 0.961 . S
H777 C769 0.960 . S
H778 C770 0.930 . S
H779 C771 0.929 . S
H780 C788 0.929 . S
H781 C790 0.930 . S
H782 C792 0.930 . S
H783 C795 0.929 . S
H784 C798 0.930 . S
H785 C800 0.960 . S
H786 C800 0.960 . S
H787 C800 0.960 . S
C788 H780 0.929 . S
C788 C789 1.377 . S
C788 C790 1.384 . S
C789 C788 1.377 . S
C789 C795 1.390 . S
C790 H781 0.930 . S
C790 C788 1.384 . S
C790 C791 1.372 . S
C791 C790 1.372 . S
C791 C792 1.400 . S
C791 C796 1.490 . S
C792 H782 0.930 . S
C792 C791 1.400 . S
C792 C795 1.386 . S
H793 C809 0.930 . S
H794 C810 0.931 . S
C795 H783 0.929 . S
C795 C789 1.390 . S
C795 C792 1.386 . S
C796 C791 1.490 . S
C796 C798 1.395 . S
C796 C799 1.403 . S
H797 C803 0.930 . S
C798 H784 0.930 . S
C798 C796 1.395 . S
C798 C801 1.403 . S
C799 C796 1.403 . S
C799 C800 1.524 . S
C799 C803 1.400 . S
C800 H785 0.960 . S
C800 H786 0.960 . S
C800 H787 0.960 . S
C800 C799 1.524 . S
C801 C798 1.403 . S
C801 C802 1.392 . S
C801 C805 1.495 . S
C802 C801 1.392 . S
C802 C803 1.385 . S
C802 C804 1.478 . S
C803 H797 0.930 . S
C803 C799 1.400 . S
C803 C802 1.385 . S
C804 C802 1.478 . S
C804 C806 1.381 . S
C804 C810 1.383 . S
C805 C801 1.495 . S
C805 H811 0.959 . S
C805 H812 0.961 . S
C805 H813 0.960 . S
C806 C804 1.381 . S
C806 C807 1.394 . S
C806 H814 0.930 . S
C807 C806 1.394 . S
C807 C808 1.383 . S
C807 H815 0.929 1_556 S
C808 C807 1.383 . S
C808 C809 1.377 . S
C809 H793 0.930 . S
C809 C808 1.377 . S
C809 C810 1.379 . S
C810 H794 0.931 . S
C810 C804 1.383 . S
C810 C809 1.379 . S
H811 C805 0.959 . S
H812 C805 0.961 . S
H813 C805 0.960 . S
H814 C806 0.930 . S
H815 C807 0.929 1_554 S
H816 C824 0.929 . S
H817 C826 0.930 . S
H818 C828 0.930 . S
H819 C831 0.929 . S
H820 C834 0.930 . S
H821 C836 0.960 . S
H822 C836 0.960 . S
H823 C836 0.960 . S
C824 H816 0.929 . S
C824 C825 1.377 . S
C824 C826 1.384 . S
C825 C824 1.377 . S
C825 C831 1.390 . S
C826 H817 0.930 . S
C826 C824 1.384 . S
C826 C827 1.372 . S
C827 C826 1.372 . S
C827 C828 1.400 . S
C827 C832 1.490 . S
C828 H818 0.930 . S
C828 C827 1.400 . S
C828 C831 1.386 . S
H829 C845 0.930 . S
H830 C846 0.931 . S
C831 H819 0.929 . S
C831 C825 1.390 . S
C831 C828 1.386 . S
C832 C827 1.490 . S
C832 C834 1.395 . S
C832 C835 1.403 . S
H833 C839 0.930 . S
C834 H820 0.930 . S
C834 C832 1.395 . S
C834 C837 1.403 . S
C835 C832 1.403 . S
C835 C836 1.524 . S
C835 C839 1.400 . S
C836 H821 0.960 . S
C836 H822 0.960 . S
C836 H823 0.960 . S
C836 C835 1.524 . S
C837 C834 1.403 . S
C837 C838 1.392 . S
C837 C841 1.495 . S
C838 C837 1.392 . S
C838 C839 1.385 . S
C838 C840 1.478 . S
C839 H833 0.930 . S
C839 C835 1.400 . S
C839 C838 1.385 . S
C840 C838 1.478 . S
C840 C842 1.381 . S
C840 C846 1.383 . S
C841 C837 1.495 . S
C841 H847 0.959 . S
C841 H848 0.961 . S
C841 H849 0.960 . S
C842 C840 1.381 . S
C842 C843 1.394 . S
C842 H850 0.930 . S
C843 C842 1.394 . S
C843 C844 1.383 . S
C843 H851 0.929 . S
C844 C843 1.383 . S
C844 C845 1.377 . S
C845 H829 0.930 . S
C845 C844 1.377 . S
C845 C846 1.379 . S
C846 H830 0.931 . S
C846 C840 1.383 . S
C846 C845 1.379 . S
H847 C841 0.959 . S
H848 C841 0.961 . S
H849 C841 0.960 . S
H850 C842 0.930 . S
H851 C843 0.929 . S
H852 C860 0.929 . S
H853 C862 0.930 . S
H854 C864 0.930 . S
H855 C867 0.929 . S
H856 C870 0.930 . S
H857 C872 0.960 . S
H858 C872 0.960 . S
H859 C872 0.960 . S
C860 H852 0.929 . S
C860 C861 1.377 . S
C860 C862 1.384 . S
C861 C860 1.377 . S
C861 C867 1.390 . S
C862 H853 0.930 . S
C862 C860 1.384 . S
C862 C863 1.372 . S
C863 C862 1.372 . S
C863 C864 1.400 . S
C863 C868 1.490 . S
C864 H854 0.930 . S
C864 C863 1.400 . S
C864 C867 1.386 . S
H865 C881 0.930 . S
H866 C882 0.931 . S
C867 H855 0.929 . S
C867 C861 1.390 . S
C867 C864 1.386 . S
C868 C863 1.490 . S
C868 C870 1.395 . S
C868 C871 1.403 . S
H869 C875 0.930 . S
C870 H856 0.930 . S
C870 C868 1.395 . S
C870 C873 1.403 . S
C871 C868 1.403 . S
C871 C872 1.524 . S
C871 C875 1.400 . S
C872 H857 0.960 . S
C872 H858 0.960 . S
C872 H859 0.960 . S
C872 C871 1.524 . S
C873 C870 1.403 . S
C873 C874 1.392 . S
C873 C877 1.495 . S
C874 C873 1.392 . S
C874 C875 1.385 . S
C874 C876 1.478 . S
C875 H869 0.930 . S
C875 C871 1.400 . S
C875 C874 1.385 . S
C876 C874 1.478 . S
C876 C878 1.381 . S
C876 C882 1.383 . S
C877 C873 1.495 . S
C877 H883 0.959 . S
C877 H884 0.961 . S
C877 H885 0.960 . S
C878 C876 1.381 . S
C878 C879 1.394 . S
C878 H886 0.930 . S
C879 C878 1.394 . S
C879 C880 1.383 . S
C879 H887 0.929 . S
C880 C879 1.383 . S
C880 C881 1.377 . S
C881 H865 0.930 . S
C881 C880 1.377 . S
C881 C882 1.379 . S
C882 H866 0.931 . S
C882 C876 1.383 . S
C882 C881 1.379 . S
H883 C877 0.959 . S
H884 C877 0.961 . S
H885 C877 0.960 . S
H886 C878 0.930 . S
H887 C879 0.929 . S
H888 C896 0.929 . S
H889 C898 0.930 . S
H890 C900 0.930 . S
H891 C903 0.929 . S
H892 C906 0.930 . S
H893 C908 0.960 . S
H894 C908 0.960 . S
H895 C908 0.960 . S
C896 H888 0.929 . S
C896 C897 1.377 . S
C896 C898 1.384 . S
C897 C896 1.377 . S
C897 C903 1.390 . S
C898 H889 0.930 . S
C898 C896 1.384 . S
C898 C899 1.372 . S
C899 C898 1.372 . S
C899 C900 1.400 . S
C899 C904 1.490 . S
C900 H890 0.930 . S
C900 C899 1.400 . S
C900 C903 1.386 . S
H901 C917 0.930 . S
H902 C918 0.931 . S
C903 H891 0.929 . S
C903 C897 1.390 . S
C903 C900 1.386 . S
C904 C899 1.490 . S
C904 C906 1.395 . S
C904 C907 1.403 . S
H905 C911 0.930 . S
C906 H892 0.930 . S
C906 C904 1.395 . S
C906 C909 1.403 . S
C907 C904 1.403 . S
C907 C908 1.524 . S
C907 C911 1.400 . S
C908 H893 0.960 . S
C908 H894 0.960 . S
C908 H895 0.960 . S
C908 C907 1.524 . S
C909 C906 1.403 . S
C909 C910 1.392 . S
C909 C913 1.495 . S
C910 C909 1.392 . S
C910 C911 1.385 . S
C910 C912 1.478 . S
C911 H905 0.930 . S
C911 C907 1.400 . S
C911 C910 1.385 . S
C912 C910 1.478 . S
C912 C914 1.381 . S
C912 C918 1.383 . S
C913 C909 1.495 . S
C913 H919 0.959 . S
C913 H920 0.961 . S
C913 H921 0.960 . S
C914 C912 1.381 . S
C914 C915 1.394 1_556 S
C914 H922 0.930 1_556 S
C915 C914 1.394 1_554 S
C915 C916 1.383 1_554 S
C915 H923 0.929 . S
C916 C915 1.383 1_556 S
C916 C917 1.377 . S
C917 H901 0.930 . S
C917 C916 1.377 . S
C917 C918 1.379 . S
C918 H902 0.931 . S
C918 C912 1.383 . S
C918 C917 1.379 . S
H919 C913 0.959 . S
H920 C913 0.961 . S
H921 C913 0.960 . S
H922 C914 0.930 1_554 S
H923 C915 0.929 . S
H924 C932 0.929 . S
H925 C934 0.930 . S
H926 C936 0.930 . S
H927 C939 0.929 . S
H928 C942 0.930 . S
H929 C944 0.960 . S
H930 C944 0.960 . S
H931 C944 0.960 . S
C932 H924 0.929 . S
C932 C933 1.377 . S
C932 C934 1.384 . S
C933 C932 1.377 . S
C933 C939 1.390 . S
C934 H925 0.930 . S
C934 C932 1.384 . S
C934 C935 1.372 . S
C935 C934 1.372 . S
C935 C936 1.400 . S
C935 C940 1.490 . S
C936 H926 0.930 . S
C936 C935 1.400 . S
C936 C939 1.386 . S
H937 C953 0.930 . S
H938 C954 0.931 . S
C939 H927 0.929 . S
C939 C933 1.390 . S
C939 C936 1.386 . S
C940 C935 1.490 . S
C940 C942 1.395 . S
C940 C943 1.403 . S
H941 C947 0.930 . S
C942 H928 0.930 . S
C942 C940 1.395 . S
C942 C945 1.403 . S
C943 C940 1.403 . S
C943 C944 1.524 . S
C943 C947 1.400 . S
C944 H929 0.960 . S
C944 H930 0.960 . S
C944 H931 0.960 . S
C944 C943 1.524 . S
C945 C942 1.403 . S
C945 C946 1.392 . S
C945 C949 1.495 . S
C946 C945 1.392 . S
C946 C947 1.385 . S
C946 C948 1.478 . S
C947 H941 0.930 . S
C947 C943 1.400 . S
C947 C946 1.385 . S
C948 C946 1.478 . S
C948 C950 1.381 . S
C948 C954 1.383 . S
C949 C945 1.495 . S
C949 H955 0.959 . S
C949 H956 0.961 . S
C949 H957 0.950 1_655 S
C950 C948 1.381 . S
C950 C951 1.394 . S
C950 H958 0.930 . S
C951 C950 1.394 . S
C951 C952 1.383 . S
C951 H959 0.921 1_655 S
C952 C951 1.383 . S
C952 C953 1.377 . S
C953 H937 0.930 . S
C953 C952 1.377 . S
C953 C954 1.379 . S
C954 H938 0.931 . S
C954 C948 1.383 . S
C954 C953 1.379 . S
H955 C949 0.959 . S
H956 C949 0.961 . S
H957 C949 0.950 1_455 S
H958 C950 0.930 . S
H959 C951 0.921 1_455 S
H960 C968 0.929 . S
H961 C970 0.930 . S
H962 C972 0.930 . S
H963 C975 0.929 . S
H964 C978 0.930 . S
H965 C980 0.960 . S
H966 C980 0.960 . S
H967 C980 0.960 . S
C968 H960 0.929 . S
C968 C969 1.377 . S
C968 C970 1.384 . S
C969 C968 1.377 . S
C969 C975 1.390 . S
C970 H961 0.930 . S
C970 C968 1.384 . S
C970 C971 1.372 . S
C971 C970 1.372 . S
C971 C972 1.400 . S
C971 C976 1.490 . S
C972 H962 0.930 . S
C972 C971 1.400 . S
C972 C975 1.386 . S
H973 C989 0.930 . S
H974 C990 0.931 . S
C975 H963 0.929 . S
C975 C969 1.390 . S
C975 C972 1.386 . S
C976 C971 1.490 . S
C976 C978 1.395 . S
C976 C979 1.403 . S
H977 C983 0.930 . S
C978 H964 0.930 . S
C978 C976 1.395 . S
C978 C981 1.403 . S
C979 C976 1.403 . S
C979 C980 1.524 . S
C979 C983 1.400 . S
C980 H965 0.960 . S
C980 H966 0.960 . S
C980 H967 0.960 . S
C980 C979 1.524 . S
C981 C978 1.403 . S
C981 C982 1.392 . S
C981 C985 1.495 . S
C982 C981 1.392 . S
C982 C983 1.385 . S
C982 C984 1.478 . S
C983 H977 0.930 . S
C983 C979 1.400 . S
C983 C982 1.385 . S
C984 C982 1.478 . S
C984 C986 1.381 . S
C984 C990 1.383 . S
C985 C981 1.495 . S
C985 H991 0.959 . S
C985 H992 0.961 . S
C985 H993 0.960 . S
C986 C984 1.381 . S
C986 C987 1.394 . S
C986 H994 0.930 . S
C987 C986 1.394 . S
C987 C988 1.383 . S
C987 H995 0.929 . S
C988 C987 1.383 . S
C988 C989 1.377 . S
C989 H973 0.930 . S
C989 C988 1.377 . S
C989 C990 1.379 . S
C990 H974 0.931 . S
C990 C984 1.383 . S
C990 C989 1.379 . S
H991 C985 0.959 . S
H992 C985 0.961 . S
H993 C985 0.960 . S
H994 C986 0.930 . S
H995 C987 0.929 . S
H996 C1004 0.929 . S
H997 C1006 0.930 . S
H998 C1008 0.930 1_455 S
H999 C1011 0.934 . S
H1000 C1014 0.930 . S
H1001 C1016 0.960 . S
H1002 C1016 0.960 . S
H1003 C1016 0.960 . S
C1004 H996 0.929 . S
C1004 C1005 1.377 . S
C1004 C1006 1.384 . S
C1005 C1004 1.377 . S
C1005 C1011 1.390 1_565 S
C1006 H997 0.930 . S
C1006 C1004 1.384 . S
C1006 C1007 1.372 . S
C1007 C1006 1.372 . S
C1007 C1008 1.400 1_565 S
C1007 C1012 1.490 . S
C1008 H998 0.930 1_655 S
C1008 C1007 1.400 1_545 S
C1008 C1011 1.386 . S
H1009 C1025 0.930 . S
H1010 C1026 0.931 1_455 S
C1011 H999 0.934 . S
C1011 C1005 1.390 1_545 S
C1011 C1008 1.386 . S
C1012 C1007 1.490 . S
C1012 C1014 1.395 1_565 S
C1012 C1015 1.403 1_655 S
H1013 C1019 0.930 . S
C1014 H1000 0.930 . S
C1014 C1012 1.395 1_545 S
C1014 C1017 1.403 . S
C1015 C1012 1.403 1_455 S
C1015 C1016 1.524 . S
C1015 C1019 1.400 . S
C1016 H1001 0.960 . S
C1016 H1002 0.960 . S
C1016 H1003 0.960 . S
C1016 C1015 1.524 . S
C1017 C1014 1.403 . S
C1017 C1018 1.392 . S
C1017 C1021 1.495 . S
C1018 C1017 1.392 . S
C1018 C1019 1.385 1_645 S
C1018 C1020 1.478 . S
C1019 H1013 0.930 . S
C1019 C1015 1.400 . S
C1019 C1018 1.385 1_465 S
C1020 C1018 1.478 . S
C1020 C1022 1.381 1_545 S
C1020 C1026 1.383 . S
C1021 C1017 1.495 . S
C1021 H1027 0.959 . S
C1021 H1028 0.961 . S
C1021 H1029 0.960 . S
C1022 C1020 1.381 1_565 S
C1022 C1023 1.394 . S
C1022 H1030 0.930 . S
C1023 C1022 1.394 . S
C1023 C1024 1.383 1_565 S
C1023 H1031 0.929 . S
C1024 C1023 1.383 1_545 S
C1024 C1025 1.377 1_655 S
C1025 H1009 0.930 . S
C1025 C1024 1.377 1_455 S
C1025 C1026 1.379 1_455 S
C1026 H1010 0.931 1_655 S
C1026 C1020 1.383 . S
C1026 C1025 1.379 1_655 S
H1027 C1021 0.959 . S
H1028 C1021 0.961 . S
H1029 C1021 0.960 . S
H1030 C1022 0.930 . S
H1031 C1023 0.929 . S
H1032 C1040 0.929 . S
H1033 C1042 0.930 . S
H1034 C1044 0.930 . S
H1035 C1047 0.929 . S
H1036 C1050 0.930 . S
H1037 C1052 0.960 1_565 S
H1038 C1052 0.960 . S
H1039 C1052 0.960 1_565 S
C1040 H1032 0.929 . S
C1040 C1041 1.377 . S
C1040 C1042 1.384 . S
C1041 C1040 1.377 . S
C1041 C1047 1.390 . S
C1042 H1033 0.930 . S
C1042 C1040 1.384 . S
C1042 C1043 1.372 . S
C1043 C1042 1.372 . S
C1043 C1044 1.400 . S
C1043 C1048 1.490 . S
C1044 H1034 0.930 . S
C1044 C1043 1.400 . S
C1044 C1047 1.386 . S
H1045 C1061 0.930 1_565 S
H1046 C1062 0.931 . S
C1047 H1035 0.929 . S
C1047 C1041 1.390 . S
C1047 C1044 1.386 . S
C1048 C1043 1.490 . S
C1048 C1050 1.395 . S
C1048 C1051 1.403 . S
H1049 C1055 0.930 . S
C1050 H1036 0.930 . S
C1050 C1048 1.395 . S
C1050 C1053 1.403 . S
C1051 C1048 1.403 . S
C1051 C1052 1.524 . S
C1051 C1055 1.400 . S
C1052 H1037 0.960 1_545 S
C1052 H1038 0.960 . S
C1052 H1039 0.960 1_545 S
C1052 C1051 1.524 . S
C1053 C1050 1.403 . S
C1053 C1054 1.392 . S
C1053 C1057 1.495 . S
C1054 C1053 1.392 . S
C1054 C1055 1.385 . S
C1054 C1056 1.478 . S
C1055 H1049 0.930 . S
C1055 C1051 1.400 . S
C1055 C1054 1.385 . S
C1056 C1054 1.478 . S
C1056 C1058 1.381 . S
C1056 C1062 1.383 . S
C1057 C1053 1.495 . S
C1057 H1063 0.959 . S
C1057 H1064 0.961 . S
C1057 H1065 0.960 . S
C1058 C1056 1.381 . S
C1058 C1059 1.394 . S
C1058 H1066 0.930 . S
C1059 C1058 1.394 . S
C1059 C1060 1.383 . S
C1059 H1067 0.929 . S
C1060 C1059 1.383 . S
C1060 C1061 1.377 . S
C1061 H1045 0.930 1_545 S
C1061 C1060 1.377 . S
C1061 C1062 1.379 . S
C1062 H1046 0.931 . S
C1062 C1056 1.383 . S
C1062 C1061 1.379 . S
H1063 C1057 0.959 . S
H1064 C1057 0.961 . S
H1065 C1057 0.960 . S
H1066 C1058 0.930 . S
H1067 C1059 0.929 . S
H1068 C1076 0.929 . S
H1069 C1078 0.930 . S
H1070 C1080 0.930 . S
H1071 C1083 0.929 . S
H1072 C1086 0.930 . S
H1073 C1088 0.960 . S
H1074 C1088 0.960 . S
H1075 C1088 0.960 . S
C1076 H1068 0.929 . S
C1076 C1077 1.377 . S
C1076 C1078 1.384 . S
C1077 C1076 1.377 . S
C1077 C1083 1.390 . S
C1078 H1069 0.930 . S
C1078 C1076 1.384 . S
C1078 C1079 1.372 . S
C1079 C1078 1.372 . S
C1079 C1080 1.400 . S
C1079 C1084 1.490 . S
C1080 H1070 0.930 . S
C1080 C1079 1.400 . S
C1080 C1083 1.386 . S
H1081 C1097 0.930 . S
H1082 C1098 0.931 . S
C1083 H1071 0.929 . S
C1083 C1077 1.390 . S
C1083 C1080 1.386 . S
C1084 C1079 1.490 . S
C1084 C1086 1.395 . S
C1084 C1087 1.403 . S
H1085 C1091 0.930 . S
C1086 H1072 0.930 . S
C1086 C1084 1.395 . S
C1086 C1089 1.403 . S
C1087 C1084 1.403 . S
C1087 C1088 1.524 . S
C1087 C1091 1.400 . S
C1088 H1073 0.960 . S
C1088 H1074 0.960 . S
C1088 H1075 0.960 . S
C1088 C1087 1.524 . S
C1089 C1086 1.403 . S
C1089 C1090 1.392 . S
C1089 C1093 1.495 . S
C1090 C1089 1.392 . S
C1090 C1091 1.385 . S
C1090 C1092 1.478 . S
C1091 H1085 0.930 . S
C1091 C1087 1.400 . S
C1091 C1090 1.385 . S
C1092 C1090 1.478 . S
C1092 C1094 1.381 . S
C1092 C1098 1.383 . S
C1093 C1089 1.495 . S
C1093 H1099 0.959 . S
C1093 H1100 0.961 . S
C1093 H1101 0.960 . S
C1094 C1092 1.381 . S
C1094 C1095 1.394 . S
C1094 H1102 0.930 . S
C1095 C1094 1.394 . S
C1095 C1096 1.383 . S
C1095 H1103 0.929 . S
C1096 C1095 1.383 . S
C1096 C1097 1.377 . S
C1097 H1081 0.930 . S
C1097 C1096 1.377 . S
C1097 C1098 1.379 . S
C1098 H1082 0.931 . S
C1098 C1092 1.383 . S
C1098 C1097 1.379 . S
H1099 C1093 0.959 . S
H1100 C1093 0.961 . S
H1101 C1093 0.960 . S
H1102 C1094 0.930 . S
H1103 C1095 0.929 . S
H1104 C1112 0.929 . S
H1105 C1114 0.930 . S
H1106 C1116 0.930 . S
H1107 C1119 0.929 . S
H1108 C1122 0.930 . S
H1109 C1124 0.960 . S
H1110 C1124 0.960 . S
H1111 C1124 0.960 . S
C1112 H1104 0.929 . S
C1112 C1113 1.377 . S
C1112 C1114 1.384 . S
C1113 C1112 1.377 . S
C1113 C1119 1.390 . S
C1114 H1105 0.930 . S
C1114 C1112 1.384 . S
C1114 C1115 1.372 . S
C1115 C1114 1.372 . S
C1115 C1116 1.400 . S
C1115 C1120 1.490 . S
C1116 H1106 0.930 . S
C1116 C1115 1.400 . S
C1116 C1119 1.386 . S
H1117 C1133 0.930 . S
H1118 C1134 0.931 . S
C1119 H1107 0.929 . S
C1119 C1113 1.390 . S
C1119 C1116 1.386 . S
C1120 C1115 1.490 . S
C1120 C1122 1.395 . S
C1120 C1123 1.403 . S
H1121 C1127 0.930 . S
C1122 H1108 0.930 . S
C1122 C1120 1.395 . S
C1122 C1125 1.403 . S
C1123 C1120 1.403 . S
C1123 C1124 1.524 . S
C1123 C1127 1.400 . S
C1124 H1109 0.960 . S
C1124 H1110 0.960 . S
C1124 H1111 0.960 . S
C1124 C1123 1.524 . S
C1125 C1122 1.403 . S
C1125 C1126 1.392 . S
C1125 C1129 1.495 . S
C1126 C1125 1.392 . S
C1126 C1127 1.385 . S
C1126 C1128 1.478 . S
C1127 H1121 0.930 . S
C1127 C1123 1.400 . S
C1127 C1126 1.385 . S
C1128 C1126 1.478 . S
C1128 C1130 1.381 . S
C1128 C1134 1.383 . S
C1129 C1125 1.495 . S
C1129 H1135 0.959 . S
C1129 H1136 0.961 . S
C1129 H1137 0.960 . S
C1130 C1128 1.381 . S
C1130 C1131 1.394 . S
C1130 H1138 0.930 . S
C1131 C1130 1.394 . S
C1131 C1132 1.383 . S
C1131 H1139 0.929 . S
C1132 C1131 1.383 . S
C1132 C1133 1.377 . S
C1133 H1117 0.930 . S
C1133 C1132 1.377 . S
C1133 C1134 1.379 . S
C1134 H1118 0.931 . S
C1134 C1128 1.383 . S
C1134 C1133 1.379 . S
H1135 C1129 0.959 . S
H1136 C1129 0.961 . S
H1137 C1129 0.960 . S
H1138 C1130 0.930 . S
H1139 C1131 0.929 . S
H1140 C1148 0.929 . S
H1141 C1150 0.930 . S
H1142 C1152 0.926 1_545 S
H1143 C1155 0.929 1_545 S
H1144 C1158 0.930 . S
H1145 C1160 0.960 . S
H1146 C1160 0.957 . S
H1147 C1160 0.960 . S
C1148 H1140 0.929 . S
C1148 C1149 1.377 . S
C1148 C1150 1.384 . S
C1149 C1148 1.377 . S
C1149 C1155 1.390 . S
C1150 H1141 0.930 . S
C1150 C1148 1.384 . S
C1150 C1151 1.372 . S
C1151 C1150 1.372 . S
C1151 C1152 1.404 . S
C1151 C1156 1.490 . S
C1152 H1142 0.926 1_565 S
C1152 C1151 1.404 . S
C1152 C1155 1.386 . S
H1153 C1169 0.930 . S
H1154 C1170 0.931 . S
C1155 H1143 0.929 1_565 S
C1155 C1149 1.390 . S
C1155 C1152 1.386 . S
C1156 C1151 1.490 . S
C1156 C1158 1.395 1_556 S
C1156 C1159 1.403 . S
H1157 C1163 0.930 1_545 S
C1158 H1144 0.930 . S
C1158 C1156 1.395 1_554 S
C1158 C1161 1.403 . S
C1159 C1156 1.403 . S
C1159 C1160 1.524 1_565 S
C1159 C1163 1.400 . S
C1160 H1145 0.960 . S
C1160 H1146 0.957 . S
C1160 H1147 0.960 . S
C1160 C1159 1.524 1_545 S
C1161 C1158 1.403 . S
C1161 C1162 1.392 . S
C1161 C1165 1.495 . S
C1162 C1161 1.392 . S
C1162 C1163 1.385 1_554 S
C1162 C1164 1.478 . S
C1163 H1157 0.930 1_565 S
C1163 C1159 1.400 . S
C1163 C1162 1.385 1_556 S
C1164 C1162 1.478 . S
C1164 C1166 1.381 . S
C1164 C1170 1.383 1_565 S
C1165 C1161 1.495 . S
C1165 H1171 0.959 . S
C1165 H1172 0.961 . S
C1165 H1173 0.960 . S
C1166 C1164 1.381 . S
C1166 C1167 1.394 . S
C1166 H1174 0.930 . S
C1167 C1166 1.394 . S
C1167 C1168 1.383 . S
C1167 H1175 0.929 . S
C1168 C1167 1.383 . S
C1168 C1169 1.377 1_565 S
C1169 H1153 0.930 . S
C1169 C1168 1.377 1_545 S
C1169 C1170 1.379 . S
C1170 H1154 0.931 . S
C1170 C1164 1.383 1_545 S
C1170 C1169 1.379 . S
H1171 C1165 0.959 . S
H1172 C1165 0.961 . S
H1173 C1165 0.960 . S
H1174 C1166 0.930 . S
H1175 C1167 0.929 . S
H1176 C1184 0.929 . S
H1177 C1186 0.930 . S
H1178 C1188 0.930 . S
H1179 C1191 0.929 . S
H1180 C1194 0.930 . S
H1181 C1196 0.960 . S
H1182 C1196 0.960 . S
H1183 C1196 0.960 . S
C1184 H1176 0.929 . S
C1184 C1185 1.377 . S
C1184 C1186 1.384 . S
C1185 C1184 1.377 . S
C1185 C1191 1.390 . S
C1186 H1177 0.930 . S
C1186 C1184 1.384 . S
C1186 C1187 1.372 . S
C1187 C1186 1.372 . S
C1187 C1188 1.400 . S
C1187 C1192 1.490 . S
C1188 H1178 0.930 . S
C1188 C1187 1.400 . S
C1188 C1191 1.386 . S
H1189 C1205 0.930 . S
H1190 C1206 0.931 . S
C1191 H1179 0.929 . S
C1191 C1185 1.390 . S
C1191 C1188 1.386 . S
C1192 C1187 1.490 . S
C1192 C1194 1.395 . S
C1192 C1195 1.403 . S
H1193 C1199 0.930 . S
C1194 H1180 0.930 . S
C1194 C1192 1.395 . S
C1194 C1197 1.403 . S
C1195 C1192 1.403 . S
C1195 C1196 1.524 . S
C1195 C1199 1.400 . S
C1196 H1181 0.960 . S
C1196 H1182 0.960 . S
C1196 H1183 0.960 . S
C1196 C1195 1.524 . S
C1197 C1194 1.403 . S
C1197 C1198 1.392 . S
C1197 C1201 1.495 . S
C1198 C1197 1.392 . S
C1198 C1199 1.385 . S
C1198 C1200 1.478 . S
C1199 H1193 0.930 . S
C1199 C1195 1.400 . S
C1199 C1198 1.385 . S
C1200 C1198 1.478 . S
C1200 C1202 1.381 . S
C1200 C1206 1.383 . S
C1201 C1197 1.495 . S
C1201 H1207 0.959 . S
C1201 H1208 0.961 . S
C1201 H1209 0.960 . S
C1202 C1200 1.381 . S
C1202 C1203 1.394 . S
C1202 H1210 0.930 . S
C1203 C1202 1.394 . S
C1203 C1204 1.383 . S
C1203 H1211 0.929 . S
C1204 C1203 1.383 . S
C1204 C1205 1.377 . S
C1205 H1189 0.930 . S
C1205 C1204 1.377 . S
C1205 C1206 1.379 . S
C1206 H1190 0.931 . S
C1206 C1200 1.383 . S
C1206 C1205 1.379 . S
H1207 C1201 0.959 . S
H1208 C1201 0.961 . S
H1209 C1201 0.960 . S
H1210 C1202 0.930 . S
H1211 C1203 0.929 . S
H1212 C1220 0.929 . S
H1213 C1222 0.930 . S
H1214 C1224 0.930 . S
H1215 C1227 0.929 . S
H1216 C1230 0.930 . S
H1217 C1232 0.960 . S
H1218 C1232 0.960 . S
H1219 C1232 0.960 . S
C1220 H1212 0.929 . S
C1220 C1221 1.377 . S
C1220 C1222 1.384 . S
C1221 C1220 1.377 . S
C1221 C1227 1.390 . S
C1222 H1213 0.930 . S
C1222 C1220 1.384 . S
C1222 C1223 1.372 . S
C1223 C1222 1.372 . S
C1223 C1224 1.400 . S
C1223 C1228 1.490 . S
C1224 H1214 0.930 . S
C1224 C1223 1.400 . S
C1224 C1227 1.386 . S
H1225 C1241 0.930 . S
H1226 C1242 0.931 . S
C1227 H1215 0.929 . S
C1227 C1221 1.390 . S
C1227 C1224 1.386 . S
C1228 C1223 1.490 . S
C1228 C1230 1.395 . S
C1228 C1231 1.403 . S
H1229 C1235 0.930 . S
C1230 H1216 0.930 . S
C1230 C1228 1.395 . S
C1230 C1233 1.403 . S
C1231 C1228 1.403 . S
C1231 C1232 1.524 . S
C1231 C1235 1.400 . S
C1232 H1217 0.960 . S
C1232 H1218 0.960 . S
C1232 H1219 0.960 . S
C1232 C1231 1.524 . S
C1233 C1230 1.403 . S
C1233 C1234 1.392 . S
C1233 C1237 1.495 . S
C1234 C1233 1.392 . S
C1234 C1235 1.385 . S
C1234 C1236 1.478 . S
C1235 H1229 0.930 . S
C1235 C1231 1.400 . S
C1235 C1234 1.385 . S
C1236 C1234 1.478 . S
C1236 C1238 1.381 . S
C1236 C1242 1.383 . S
C1237 C1233 1.495 . S
C1237 H1243 0.959 . S
C1237 H1244 0.961 . S
C1237 H1245 0.960 . S
C1238 C1236 1.381 . S
C1238 C1239 1.391 1_554 S
C1238 H1246 0.930 1_554 S
C1239 C1238 1.391 1_556 S
C1239 C1240 1.362 1_556 S
C1239 H1247 0.954 . S
C1240 C1239 1.362 1_554 S
C1240 C1241 1.377 . S
C1241 H1225 0.930 . S
C1241 C1240 1.377 . S
C1241 C1242 1.379 . S
C1242 H1226 0.931 . S
C1242 C1236 1.383 . S
C1242 C1241 1.379 . S
H1243 C1237 0.959 . S
H1244 C1237 0.961 . S
H1245 C1237 0.960 . S
H1246 C1238 0.930 1_556 S
H1247 C1239 0.954 . S
H1248 C1256 0.929 . S
H1249 C1258 0.930 . S
H1250 C1260 0.930 . S
H1251 C1263 0.929 . S
H1252 C1266 0.930 . S
H1253 C1268 0.960 . S
H1254 C1268 0.960 . S
H1255 C1268 0.960 . S
C1256 H1248 0.929 . S
C1256 C1257 1.377 . S
C1256 C1258 1.384 . S
C1257 C1256 1.377 . S
C1257 C1263 1.390 . S
C1258 H1249 0.930 . S
C1258 C1256 1.384 . S
C1258 C1259 1.372 . S
C1259 C1258 1.372 . S
C1259 C1260 1.400 . S
C1259 C1264 1.490 . S
C1260 H1250 0.930 . S
C1260 C1259 1.400 . S
C1260 C1263 1.386 . S
H1261 C1277 0.930 . S
H1262 C1278 0.931 . S
C1263 H1251 0.929 . S
C1263 C1257 1.390 . S
C1263 C1260 1.386 . S
C1264 C1259 1.490 . S
C1264 C1266 1.395 . S
C1264 C1267 1.403 . S
H1265 C1271 0.930 . S
C1266 H1252 0.930 . S
C1266 C1264 1.395 . S
C1266 C1269 1.403 . S
C1267 C1264 1.403 . S
C1267 C1268 1.524 . S
C1267 C1271 1.400 . S
C1268 H1253 0.960 . S
C1268 H1254 0.960 . S
C1268 H1255 0.960 . S
C1268 C1267 1.524 . S
C1269 C1266 1.403 . S
C1269 C1270 1.392 . S
C1269 C1273 1.495 . S
C1270 C1269 1.392 . S
C1270 C1271 1.385 . S
C1270 C1272 1.478 . S
C1271 H1265 0.930 . S
C1271 C1267 1.400 . S
C1271 C1270 1.385 . S
C1272 C1270 1.478 . S
C1272 C1274 1.381 . S
C1272 C1278 1.383 . S
C1273 C1269 1.495 . S
C1273 H1279 0.959 . S
C1273 H1280 0.961 . S
C1273 H1281 0.960 . S
C1274 C1272 1.381 . S
C1274 C1275 1.394 . S
C1274 H1282 0.930 . S
C1275 C1274 1.394 . S
C1275 C1276 1.383 . S
C1275 H1283 0.929 . S
C1276 C1275 1.383 . S
C1276 C1277 1.377 . S
C1277 H1261 0.930 . S
C1277 C1276 1.377 . S
C1277 C1278 1.379 . S
C1278 H1262 0.931 . S
C1278 C1272 1.383 . S
C1278 C1277 1.379 . S
H1279 C1273 0.959 . S
H1280 C1273 0.961 . S
H1281 C1273 0.960 . S
H1282 C1274 0.930 . S
H1283 C1275 0.929 . S
H1284 C1292 0.929 . S
H1285 C1294 0.930 . S
H1286 C1296 0.930 . S
H1287 C1299 0.929 . S
H1288 C1302 0.930 . S
H1289 C1304 0.960 . S
H1290 C1304 0.974 . S
H1291 C1304 0.960 . S
C1292 H1284 0.929 . S
C1292 C1293 1.377 1_455 S
C1292 C1294 1.384 . S
C1293 C1292 1.377 1_655 S
C1293 C1299 1.390 . S
C1294 H1285 0.930 . S
C1294 C1292 1.384 . S
C1294 C1295 1.372 1_455 S
C1295 C1294 1.372 1_655 S
C1295 C1296 1.400 . S
C1295 C1300 1.490 . S
C1296 H1286 0.930 . S
C1296 C1295 1.400 . S
C1296 C1299 1.386 . S
H1297 C1313 0.930 . S
H1298 C1314 0.931 . S
C1299 H1287 0.929 . S
C1299 C1293 1.390 . S
C1299 C1296 1.386 . S
C1300 C1295 1.490 . S
C1300 C1302 1.395 1_656 S
C1300 C1303 1.403 . S
H1301 C1307 0.930 . S
C1302 H1288 0.930 . S
C1302 C1300 1.395 1_454 S
C1302 C1305 1.403 . S
C1303 C1300 1.403 . S
C1303 C1304 1.524 . S
C1303 C1307 1.400 . S
C1304 H1289 0.960 . S
C1304 H1290 0.974 . S
C1304 H1291 0.960 . S
C1304 C1303 1.524 . S
C1305 C1302 1.403 . S
C1305 C1306 1.392 1_554 S
C1305 C1309 1.495 . S
C1306 C1305 1.392 1_556 S
C1306 C1307 1.385 1_455 S
C1306 C1308 1.478 . S
C1307 H1301 0.930 . S
C1307 C1303 1.400 . S
C1307 C1306 1.385 1_655 S
C1308 C1306 1.478 . S
C1308 C1310 1.381 . S
C1308 C1314 1.383 1_455 S
C1309 C1305 1.495 . S
C1309 H1315 0.959 . S
C1309 H1316 0.961 . S
C1309 H1317 0.960 . S
C1310 C1308 1.381 . S
C1310 C1311 1.394 . S
C1310 H1318 0.930 . S
C1311 C1310 1.394 . S
C1311 C1312 1.383 . S
C1311 H1319 0.929 . S
C1312 C1311 1.383 . S
C1312 C1313 1.377 1_455 S
C1313 H1297 0.930 . S
C1313 C1312 1.377 1_655 S
C1313 C1314 1.379 . S
C1314 H1298 0.931 . S
C1314 C1308 1.383 1_655 S
C1314 C1313 1.379 . S
H1315 C1309 0.959 . S
H1316 C1309 0.961 . S
H1317 C1309 0.960 . S
H1318 C1310 0.930 . S
H1319 C1311 0.929 . S
H1320 C1328 0.929 . S
H1321 C1330 0.930 . S
H1322 C1332 0.930 . S
H1323 C1335 0.929 . S
H1324 C1338 0.930 . S
H1325 C1340 0.960 . S
H1326 C1340 0.960 . S
H1327 C1340 0.960 . S
C1328 H1320 0.929 . S
C1328 C1329 1.377 . S
C1328 C1330 1.384 . S
C1329 C1328 1.377 . S
C1329 C1335 1.390 . S
C1330 H1321 0.930 . S
C1330 C1328 1.384 . S
C1330 C1331 1.372 . S
C1331 C1330 1.372 . S
C1331 C1332 1.400 . S
C1331 C1336 1.490 . S
C1332 H1322 0.930 . S
C1332 C1331 1.400 . S
C1332 C1335 1.386 . S
H1333 C1349 0.930 . S
H1334 C1350 0.931 . S
C1335 H1323 0.929 . S
C1335 C1329 1.390 . S
C1335 C1332 1.386 . S
C1336 C1331 1.490 . S
C1336 C1338 1.395 . S
C1336 C1339 1.403 . S
H1337 C1343 0.930 . S
C1338 H1324 0.930 . S
C1338 C1336 1.395 . S
C1338 C1341 1.403 . S
C1339 C1336 1.403 . S
C1339 C1340 1.524 . S
C1339 C1343 1.400 . S
C1340 H1325 0.960 . S
C1340 H1326 0.960 . S
C1340 H1327 0.960 . S
C1340 C1339 1.524 . S
C1341 C1338 1.403 . S
C1341 C1342 1.392 . S
C1341 C1345 1.495 1_554 S
C1342 C1341 1.392 . S
C1342 C1343 1.385 . S
C1342 C1344 1.478 . S
C1343 H1337 0.930 . S
C1343 C1339 1.400 . S
C1343 C1342 1.385 . S
C1344 C1342 1.478 . S
C1344 C1346 1.381 . S
C1344 C1350 1.383 . S
C1345 C1341 1.495 1_556 S
C1345 H1351 0.959 . S
C1345 H1352 0.961 . S
C1345 H1353 0.960 . S
C1346 C1344 1.381 . S
C1346 C1347 1.394 . S
C1346 H1354 0.930 . S
C1347 C1346 1.394 . S
C1347 C1348 1.383 . S
C1347 H1355 0.929 . S
C1348 C1347 1.383 . S
C1348 C1349 1.377 . S
C1349 H1333 0.930 . S
C1349 C1348 1.377 . S
C1349 C1350 1.379 . S
C1350 H1334 0.931 . S
C1350 C1344 1.383 . S
C1350 C1349 1.379 . S
H1351 C1345 0.959 . S
H1352 C1345 0.961 . S
H1353 C1345 0.960 . S
H1354 C1346 0.930 . S
H1355 C1347 0.929 . S
H1356 C1364 0.929 . S
H1357 C1366 0.930 . S
H1358 C1368 0.930 . S
H1359 C1371 0.929 . S
H1360 C1374 0.930 . S
H1361 C1376 0.960 . S
H1362 C1376 0.960 . S
H1363 C1376 0.960 . S
C1364 H1356 0.929 . S
C1364 C1365 1.377 . S
C1364 C1366 1.384 . S
C1365 C1364 1.377 . S
C1365 C1371 1.390 . S
C1366 H1357 0.930 . S
C1366 C1364 1.384 . S
C1366 C1367 1.372 . S
C1367 C1366 1.372 . S
C1367 C1368 1.400 . S
C1367 C1372 1.490 . S
C1368 H1358 0.930 . S
C1368 C1367 1.400 . S
C1368 C1371 1.386 . S
H1369 C1385 0.930 . S
H1370 C1386 0.931 . S
C1371 H1359 0.929 . S
C1371 C1365 1.390 . S
C1371 C1368 1.386 . S
C1372 C1367 1.490 . S
C1372 C1374 1.395 . S
C1372 C1375 1.403 . S
H1373 C1379 0.930 . S
C1374 H1360 0.930 . S
C1374 C1372 1.395 . S
C1374 C1377 1.403 . S
C1375 C1372 1.403 . S
C1375 C1376 1.524 1_455 S
C1375 C1379 1.400 . S
C1376 H1361 0.960 . S
C1376 H1362 0.960 . S
C1376 H1363 0.960 . S
C1376 C1375 1.524 1_655 S
C1377 C1374 1.403 . S
C1377 C1378 1.392 . S
C1377 C1381 1.495 . S
C1378 C1377 1.392 . S
C1378 C1379 1.385 . S
C1378 C1380 1.478 . S
C1379 H1373 0.930 . S
C1379 C1375 1.400 . S
C1379 C1378 1.385 . S
C1380 C1378 1.478 . S
C1380 C1382 1.381 . S
C1380 C1386 1.383 . S
C1381 C1377 1.495 . S
C1381 H1387 0.959 . S
C1381 H1388 0.961 . S
C1381 H1389 0.960 . S
C1382 C1380 1.381 . S
C1382 C1383 1.394 . S
C1382 H1390 0.930 . S
C1383 C1382 1.394 . S
C1383 C1384 1.383 . S
C1383 H1391 0.929 . S
C1384 C1383 1.383 . S
C1384 C1385 1.377 . S
C1385 H1369 0.930 . S
C1385 C1384 1.377 . S
C1385 C1386 1.379 . S
C1386 H1370 0.931 . S
C1386 C1380 1.383 . S
C1386 C1385 1.379 . S
H1387 C1381 0.959 . S
H1388 C1381 0.961 . S
H1389 C1381 0.960 . S
H1390 C1382 0.930 . S
H1391 C1383 0.929 . S
H1392 C1400 0.929 . S
H1393 C1402 0.930 . S
H1394 C1404 0.930 . S
H1395 C1407 0.929 . S
H1396 C1410 0.930 . S
H1397 C1412 0.960 . S
H1398 C1412 0.960 . S
H1399 C1412 0.960 . S
C1400 H1392 0.929 . S
C1400 C1401 1.377 . S
C1400 C1402 1.384 . S
C1401 C1400 1.377 . S
C1401 C1407 1.390 . S
C1402 H1393 0.930 . S
C1402 C1400 1.384 . S
C1402 C1403 1.372 . S
C1403 C1402 1.372 . S
C1403 C1404 1.400 . S
C1403 C1408 1.490 . S
C1404 H1394 0.930 . S
C1404 C1403 1.400 . S
C1404 C1407 1.386 . S
H1405 C1421 0.930 . S
H1406 C1422 0.931 . S
C1407 H1395 0.929 . S
C1407 C1401 1.390 . S
C1407 C1404 1.386 . S
C1408 C1403 1.490 . S
C1408 C1410 1.395 . S
C1408 C1411 1.403 . S
H1409 C1415 0.930 . S
C1410 H1396 0.930 . S
C1410 C1408 1.395 . S
C1410 C1413 1.403 . S
C1411 C1408 1.403 . S
C1411 C1412 1.524 . S
C1411 C1415 1.400 . S
C1412 H1397 0.960 . S
C1412 H1398 0.960 . S
C1412 H1399 0.960 . S
C1412 C1411 1.524 . S
C1413 C1410 1.403 . S
C1413 C1414 1.392 . S
C1413 C1417 1.495 . S
C1414 C1413 1.392 . S
C1414 C1415 1.385 . S
C1414 C1416 1.478 . S
C1415 H1409 0.930 . S
C1415 C1411 1.400 . S
C1415 C1414 1.385 . S
C1416 C1414 1.478 . S
C1416 C1418 1.381 . S
C1416 C1422 1.383 . S
C1417 C1413 1.495 . S
C1417 H1423 0.959 . S
C1417 H1424 0.961 . S
C1417 H1425 0.960 . S
C1418 C1416 1.381 . S
C1418 C1419 1.394 . S
C1418 H1426 0.930 . S
C1419 C1418 1.394 . S
C1419 C1420 1.383 . S
C1419 H1427 0.929 . S
C1420 C1419 1.383 . S
C1420 C1421 1.377 . S
C1421 H1405 0.930 . S
C1421 C1420 1.377 . S
C1421 C1422 1.379 . S
C1422 H1406 0.931 . S
C1422 C1416 1.383 . S
C1422 C1421 1.379 . S
H1423 C1417 0.959 . S
H1424 C1417 0.961 . S
H1425 C1417 0.960 . S
H1426 C1418 0.930 . S
H1427 C1419 0.929 . S
C573 C1 1.514 . S
C592 C483 1.415 . S
C609 C80 1.494 . S
C628 C517 1.435 . S
C664 C529 1.429 . S
C645 C140 1.479 . S
C681 C211 1.496 . S
C700 C563 1.442 . S
C736 C520 1.416 . S
C717 C31 1.509 . S
C772 C500 1.426 1_565 S
C753 C61 1.493 . S
C808 C547 1.390 . S
C789 C151 1.470 . S
C844 C538 1.405 . S
C825 C200 1.502 . S
C861 C20 1.509 . S
C880 C546 1.389 . S
C916 C508 1.369 . S
C897 C121 1.488 . S
C933 C181 1.491 . S
C952 C484 1.359 . S
C969 C91 1.495 . S
C988 C541 1.383 . S
C1024 C499 1.572 . S
C1005 C260 1.708 . S
C1041 C320 1.635 . S
C1060 C521 1.605 . S
C1077 C361 1.730 . S
C1096 C526 1.584 . S
C1113 C451 1.666 . S
C1132 C559 1.648 . S
C1149 C271 1.717 . S
C1168 C504 1.582 . S
C1204 C496 1.621 . S
C1185 C301 1.662 . S
C1240 C550 1.636 . S
C1221 C380 1.733 . S
C1276 C542 1.604 . S
C1257 C440 1.642 . S
C1293 C241 1.687 . S
C1312 C562 1.599 . S
C1348 C505 1.639 . S
C1329 C391 1.732 . S
C1384 C487 1.621 . S
C1365 C421 1.645 . S
C1401 C331 1.647 . S
C1420 C525 1.635 . S
