# Generated by pormake.
# Topology rtl, (3,6)-cn, num edge types: 1
# Building blocks:
#     Node 0, Type 0, BuildingBlock: VETTIZ_charged_linker_0, # of connection points: 3
#     Node 1, Type 0, BuildingBlock: VETTIZ_charged_linker_0, # of connection points: 3
#     Node 2, Type 0, BuildingBlock: VETTIZ_charged_linker_0, # of connection points: 3
#     Node 3, Type 0, BuildingBlock: VETTIZ_charged_linker_0, # of connection points: 3
#     Node 4, Type 1, BuildingBlock: CIFDUS_clean_sbu_1, # of connection points: 6
#     Node 5, Type 1, BuildingBlock: CIFDUS_clean_sbu_1, # of connection points: 6
#     Edge 6, Type (0, 1), None
#     Edge 7, Type (0, 1), None
#     Edge 8, Type (0, 1), None
#     Edge 9, Type (0, 1), None
#     Edge 10, Type (0, 1), None
#     Edge 11, Type (0, 1), None
#     Edge 12, Type (0, 1), None
#     Edge 13, Type (0, 1), None
#     Edge 14, Type (0, 1), None
#     Edge 15, Type (0, 1), None
#     Edge 16, Type (0, 1), None
#     Edge 17, Type (0, 1), None
# Relax obj value: 0.030
# Max RMSD: 0.063
# Mean RMSD: 0.049
data_MOF--net-rtl--node1-CIFDUS_clean_sbu_1--node2-VETTIZ_charged_linker_0--edge1-none
_symmetry_space_group_name_H-M    P1
_symmetry_Int_Tables_number       1
_symmetry_cell_setting            triclinic
loop_
_symmetry_equiv_pos_as_xyz
'x, y, z'
_cell_length_a     20.010306
_cell_length_b     22.664418
_cell_length_c     16.202439
_cell_angle_alpha  90.157193
_cell_angle_beta   97.807692
_cell_angle_gamma 89.503143
loop_
_atom_site_label
_atom_site_type_symbol
_atom_site_fract_x
_atom_site_fract_y
_atom_site_fract_z
_atom_type_partial_charge
C0 C 0.18548 0.90844 0.79758 0.0
C1 C 0.11923 0.92192 0.76062 0.0
C2 C 0.06527 0.91243 0.80652 0.0
C3 C 0.1447 0.88848 0.92823 0.0
C4 C 0.1971 0.89142 0.88129 0.0
C5 C 0.26455 0.87844 0.93215 0.0
H6 H 0.36005 0.66303 0.14413 0.0
C7 C 0.17322 0.87467 0.0142 0.0
C8 C 0.24306 0.86646 0.0175 0.0
H9 H 0.49276 0.78181 0.03542 0.0
H10 H 0.41493 0.86327 0.04834 0.0
H11 H 0.32718 0.79614 0.30056 0.0
H12 H 0.20453 0.71779 0.0858 0.0
H13 H 0.17308 0.72222 0.18471 0.0
H14 H 0.23945 0.67062 0.1707 0.0
H15 H 0.32234 0.71686 0.29386 0.0
H16 H 0.24943 0.75866 0.31207 0.0
C17 C 0.30881 0.93386 0.93334 0.0
C18 C 0.29694 0.82443 0.89424 0.0
C19 C 0.05013 0.92324 0.25431 0.0
C20 C 0.07408 0.92702 0.33978 0.0
C21 C 0.13745 0.9013 0.36981 0.0
C22 C 0.17531 0.87125 0.31513 0.0
C23 C 0.14878 0.86641 0.23077 0.0
C24 C 0.08888 0.89454 0.20083 0.0
C25 C 0.0772 0.89701 0.10707 0.0
C26 C 0.14288 0.86998 0.0875 0.0
C27 C 0.18079 0.84704 0.15914 0.0
C28 C 0.06943 0.9624 0.07964 0.0
C29 C 0.01532 0.85877 0.07435 0.0
C30 C 0.37401 0.7067 0.12609 0.0
C31 C 0.42928 0.71511 0.08116 0.0
C32 C 0.44812 0.77356 0.06468 0.0
C33 C 0.40306 0.82015 0.06948 0.0
C34 C 0.34164 0.8079 0.09607 0.0
C35 C 0.33292 0.75642 0.13794 0.0
C36 C 0.272 0.76286 0.18381 0.0
C37 C 0.24662 0.82503 0.15651 0.0
C38 C 0.28099 0.84379 0.09169 0.0
C39 C 0.29402 0.75865 0.27817 0.0
C40 C 0.2192 0.71552 0.15444 0.0
H41 H 0.03552 0.89076 0.92383 0.0
H42 H 0.22783 0.91499 0.76355 0.0
H43 H 0.27141 0.78303 0.9085 0.0
H44 H 0.35135 0.82044 0.91679 0.0
H45 H 0.29326 0.82837 0.82543 0.0
H46 H 0.28112 0.97339 0.95206 0.0
H47 H 0.32358 0.94215 0.87074 0.0
H48 H 0.35535 0.92961 0.97793 0.0
H49 H 1.00308 0.94431 0.22878 0.0
H50 H 0.15777 0.90478 0.43507 0.0
H51 H 0.22513 0.85487 0.3381 0.0
H52 H 0.11363 0.98844 0.1079 0.0
H53 H 0.02337 0.98237 0.09955 0.0
H54 H 0.06515 0.96794 0.01158 0.0
H55 H 0.99925 0.83048 0.12397 0.0
H56 H 0.02662 0.82782 0.02479 0.0
H57 H 0.97122 0.88663 0.0495 0.0
H58 H 0.01384 0.9225 0.77979 0.0
C59 C 0.07781 0.89534 0.89028 0.0
C60 C 0.70276 0.62788 0.86777 0.0
C61 C 0.66322 0.57827 0.8805 0.0
C62 C 0.65553 0.53363 0.81942 0.0
C63 C 0.71099 0.59506 0.72725 0.0
C64 C 0.72647 0.63528 0.79092 0.0
C65 C 0.76222 0.68862 0.76299 0.0
H66 H 0.88247 0.8299 0.445 0.0
C67 C 0.73161 0.62028 0.65075 0.0
C68 C 0.76442 0.67403 0.67181 0.0
H69 H 0.87224 0.90032 0.69048 0.0
H70 H 0.83126 0.80533 0.73353 0.0
H71 H 0.91187 0.68417 0.4791 0.0
H72 H 0.7453 0.80459 0.42852 0.0
H73 H 0.71087 0.73678 0.39462 0.0
H74 H 0.77868 0.7673 0.34552 0.0
H75 H 0.88945 0.72517 0.38444 0.0
H76 H 0.85243 0.65449 0.39924 0.0
C77 C 0.83345 0.69087 0.81314 0.0
C78 C 0.71852 0.74417 0.77334 0.0
C79 C 0.63145 0.53861 0.36955 0.0
C80 C 0.63461 0.55689 0.28714 0.0
C81 C 0.67989 0.60166 0.27281 0.0
C82 C 0.72008 0.62877 0.33975 0.0
C83 C 0.7135 0.6122 0.42197 0.0
C84 C 0.67071 0.56697 0.43568 0.0
C85 C 0.67044 0.55487 0.527 0.0
C86 C 0.71708 0.603 0.56593 0.0
C87 C 0.7419 0.63625 0.50412 0.0
C88 C 0.70005 0.49223 0.54697 0.0
C89 C 0.59731 0.56325 0.54652 0.0
C90 C 0.87418 0.82426 0.50931 0.0
C91 C 0.88147 0.87213 0.56478 0.0
C92 C 0.86797 0.86375 0.64699 0.0
C93 C 0.84288 0.80901 0.67098 0.0
C94 C 0.82862 0.76378 0.61089 0.0
C95 C 0.8442 0.7726 0.53139 0.0
C96 C 0.81266 0.72807 0.46977 0.0
C97 C 0.78032 0.6875 0.5262 0.0
C98 C 0.79042 0.70753 0.60922 0.0
C99 C 0.86932 0.69626 0.43037 0.0
C100 C 0.75945 0.76041 0.40591 0.0
H101 H 0.66865 0.50803 0.69659 0.0
H102 H 0.70954 0.66291 0.91373 0.0
H103 H 0.66391 0.73404 0.75809 0.0
H104 H 0.72754 0.78014 0.73057 0.0
H105 H 0.72723 0.76093 0.83838 0.0
H106 H 0.85822 0.6467 0.81398 0.0
H107 H 0.83082 0.70419 0.87868 0.0
H108 H 0.86714 0.72143 0.78614 0.0
H109 H 0.59786 0.50368 0.38271 0.0
H110 H 0.68437 0.61563 0.20992 0.0
H111 H 0.75417 0.66207 0.32486 0.0
H112 H 0.72921 0.47569 0.49774 0.0
H113 H 0.65958 0.45982 0.5526 0.0
H114 H 0.73652 0.49157 0.60498 0.0
H115 H 0.57638 0.60649 0.52253 0.0
H116 H 0.59324 0.56259 0.61357 0.0
H117 H 0.5642 0.528 0.51653 0.0
H118 H 0.62533 0.49514 0.82744 0.0
C119 C 0.67943 0.54179 0.74278 0.0
C120 C 0.84263 0.15199 0.30704 0.0
C121 C 0.90826 0.13458 0.34139 0.0
C122 C 0.96085 0.1381 0.29197 0.0
C123 C 0.88018 0.16453 0.17252 0.0
C124 C 0.82954 0.16667 0.22238 0.0
C125 C 0.76217 0.18355 0.17407 0.0
H126 H 0.66063 0.3907 0.95164 0.0
C127 C 0.85021 0.17791 0.08681 0.0
C128 C 0.78121 0.18956 0.08611 0.0
H129 H 0.52921 0.27217 0.06315 0.0
H130 H 0.6084 0.19097 0.0516 0.0
H131 H 0.81887 0.33715 0.01007 0.0
H132 H 0.69412 0.25387 0.80122 0.0
H133 H 0.77007 0.29307 0.78617 0.0
H134 H 0.69643 0.33331 0.80501 0.0
H135 H 0.78256 0.38248 0.92377 0.0
H136 H 0.84859 0.33032 0.91035 0.0
C137 C 0.73849 0.24233 0.20915 0.0
C138 C 0.71155 0.13339 0.18079 0.0
C139 C 0.97362 0.13287 0.84486 0.0
C140 C 0.95026 0.1298 0.75928 0.0
C141 C 0.88642 0.15465 0.72929 0.0
C142 C 0.84756 0.18326 0.7843 0.0
C143 C 0.87361 0.18762 0.86894 0.0
C144 C 0.93391 0.15998 0.89853 0.0
C145 C 0.94491 0.15536 0.99199 0.0
C146 C 0.879 0.18124 0.01217 0.0
C147 C 0.84084 0.20482 0.94109 0.0
C148 C 0.00645 0.19344 0.02666 0.0
C149 C 0.95258 0.08927 0.01606 0.0
C150 C 0.64775 0.34733 0.97206 0.0
C151 C 0.59224 0.33906 0.01674 0.0
C152 C 0.57441 0.28064 0.03514 0.0
C153 C 0.62046 0.23456 0.03248 0.0
C154 C 0.6822 0.24739 0.00729 0.0
C155 C 0.69005 0.29789 0.96298 0.0
C156 C 0.75006 0.29017 0.9156 0.0
C157 C 0.7759 0.22851 0.9453 0.0
C158 C 0.74265 0.21153 0.01192 0.0
C159 C 0.80311 0.33791 0.94156 0.0
C160 C 0.72631 0.29242 0.82145 0.0
H161 H 0.98839 0.15281 0.17203 0.0
H162 H 0.80163 0.15033 0.34426 0.0
H163 H 0.72534 0.09355 0.14645 0.0
H164 H 0.65961 0.14664 0.15648 0.0
H165 H 0.71022 0.12081 0.24672 0.0
H166 H 0.77373 0.27849 0.19916 0.0
H167 H 0.73634 0.23865 0.27713 0.0
H168 H 0.68734 0.25511 0.17995 0.0
H169 H 0.02081 0.11202 0.87044 0.0
H170 H 0.86645 0.15142 0.66389 0.0
H171 H 0.7973 0.19851 0.76136 0.0
H172 H 0.02079 0.22461 0.97925 0.0
H173 H 0.05143 0.16548 0.0475 0.0
H174 H 0.99561 0.2217 0.07935 0.0
H175 H 0.91061 0.06322 0.98206 0.0
H176 H 0.95175 0.08125 0.08295 0.0
H177 H 1.00079 0.07096 0.99997 0.0
H178 H 0.01177 0.12468 0.31655 0.0
C179 C 0.94707 0.15326 0.20769 0.0
C180 C 0.3157 0.42717 0.22421 0.0
C181 C 0.35505 0.47686 0.21121 0.0
C182 C 0.36302 0.52141 0.27244 0.0
C183 C 0.30789 0.45991 0.36491 0.0
C184 C 0.29235 0.41967 0.30126 0.0
C185 C 0.25711 0.36612 0.3294 0.0
H186 H 0.13137 0.22748 0.64551 0.0
C187 C 0.28714 0.43477 0.44142 0.0
C188 C 0.25446 0.38097 0.42041 0.0
H189 H 0.15217 0.15325 0.40508 0.0
H190 H 0.19121 0.24841 0.36033 0.0
H191 H 0.26834 0.2512 0.66482 0.0
H192 H 0.10482 0.37444 0.60977 0.0
H193 H 0.16375 0.4024 0.69176 0.0
H194 H 0.12427 0.3325 0.70413 0.0
H195 H 0.23482 0.28985 0.74656 0.0
H196 H 0.30388 0.31869 0.6981 0.0
C197 C 0.30157 0.31091 0.31975 0.0
C198 C 0.18607 0.36304 0.27893 0.0
C199 C 0.38604 0.51666 0.72282 0.0
C200 C 0.38252 0.49852 0.80521 0.0
C201 C 0.33683 0.45404 0.81939 0.0
C202 C 0.29653 0.42715 0.75229 0.0
C203 C 0.30355 0.44353 0.6701 0.0
C204 C 0.34679 0.48845 0.65656 0.0
C205 C 0.34757 0.50042 0.56529 0.0
C206 C 0.30101 0.45232 0.52619 0.0
C207 C 0.27545 0.41943 0.58784 0.0
C208 C 0.42081 0.49191 0.54628 0.0
C209 C 0.3181 0.56305 0.54493 0.0
C210 C 0.14108 0.23246 0.58161 0.0
C211 C 0.13746 0.18343 0.52819 0.0
C212 C 0.15342 0.19073 0.44685 0.0
C213 C 0.1776 0.24557 0.42204 0.0
C214 C 0.18911 0.29188 0.48086 0.0
C215 C 0.17138 0.28402 0.55957 0.0
C216 C 0.20286 0.32849 0.62143 0.0
C217 C 0.23676 0.36835 0.56556 0.0
C218 C 0.22772 0.34786 0.48278 0.0
C219 C 0.25484 0.29582 0.68647 0.0
C220 C 0.14616 0.36124 0.65944 0.0
H221 H 0.35036 0.5469 0.39549 0.0
H222 H 0.30877 0.39215 0.17826 0.0
H223 H 0.16023 0.4067 0.27894 0.0
H224 H 0.15312 0.3313 0.30499 0.0
H225 H 0.18921 0.35063 0.21317 0.0
H226 H 0.35609 0.32183 0.33308 0.0
H227 H 0.29201 0.29292 0.25542 0.0
H228 H 0.29414 0.27564 0.36437 0.0
H229 H 0.41995 0.55137 0.70977 0.0
H230 H 0.33203 0.44027 0.88228 0.0
H231 H 0.26191 0.39425 0.767 0.0
H232 H 0.44163 0.44872 0.57061 0.0
H233 H 0.45385 0.52722 0.57625 0.0
H234 H 0.42513 0.49237 0.47928 0.0
H235 H 0.28841 0.57957 0.59364 0.0
H236 H 0.28214 0.56372 0.48648 0.0
H237 H 0.35869 0.59546 0.53993 0.0
H238 H 0.39309 0.55995 0.26427 0.0
C239 C 0.33943 0.51318 0.34928 0.0
O240 O 0.97704 0.08477 0.4515 0.0
Mn241 Mn 0.01279 0.02767 0.5503 0.0
O242 O 0.87078 0.06418 0.42672 0.0
Mn243 Mn 0.90323 0.98846 0.43492 0.0
O244 O 0.04979 0.97102 0.64951 0.0
O245 O 0.091 0.08777 0.56285 0.0
Mn246 Mn 0.12362 0.07074 0.66689 0.0
O247 O 0.96668 0.07844 0.63373 0.0
O248 O 0.15555 0.99511 0.67848 0.0
O249 O 0.05881 0.97702 0.46685 0.0
O250 O 0.96889 0.96433 0.36939 0.0
O251 O 0.18279 0.12313 0.63905 0.0
O252 O 0.05668 0.09582 0.72982 0.0
C253 C 0.8828 0.93064 0.52499 0.0
C254 C 0.91769 0.09867 0.41787 0.0
C255 C 0.10925 0.95938 0.68555 0.0
C256 C 0.1406 0.12581 0.57089 0.0
C257 C 0.99328 0.09986 0.70403 0.0
C258 C 0.03198 0.9579 0.39532 0.0
O259 O 0.93451 0.96662 0.53809 0.0
O260 O 0.84206 0.93642 0.45602 0.0
O261 O 0.58172 0.55127 0.14501 0.0
Mn262 Mn 0.50941 0.52737 0.04612 0.0
O263 O 0.5623 0.48086 0.23205 0.0
Mn264 Mn 0.51995 0.43418 0.14712 0.0
O265 O 0.43704 0.5035 0.94688 0.0
O266 O 0.47354 0.6161 0.04722 0.0
Mn267 Mn 0.49694 0.62191 0.94427 0.0
O268 O 0.58407 0.53719 0.96436 0.0
O269 O 0.45318 0.57545 0.86029 0.0
O270 O 0.43457 0.518 0.12791 0.0
O271 O 0.42964 0.42335 0.14311 0.0
O272 O 0.45511 0.68885 0.94954 0.0
O273 O 0.58718 0.63193 0.94606 0.0
C274 C 0.56704 0.38488 0.07041 0.0
C275 C 0.59092 0.52846 0.21765 0.0
C276 C 0.42615 0.52706 0.87468 0.0
C277 C 0.4522 0.67013 0.02458 0.0
C278 C 0.61471 0.58257 0.94149 0.0
C279 C 0.40287 0.47281 0.1493 0.0
O280 O 0.54581 0.43848 0.04511 0.0
O281 O 0.56224 0.36733 0.14549 0.0
loop_
_geom_bond_atom_site_label_1
_geom_bond_atom_site_label_2
_geom_bond_distance
_geom_bond_site_symmetry_2
_ccdc_geom_bond_type
C0 C1 1.391 . S
C0 C4 1.391 . S
C0 H42 0.948 . S
C1 C0 1.391 . S
C1 C2 1.391 1_565 S
C2 C1 1.391 1_545 S
C2 H58 0.947 . S
C2 C59 1.392 1_545 S
C3 C4 1.391 . S
C3 C7 1.397 1_556 S
C3 C59 1.419 . S
C4 C0 1.391 . S
C4 C3 1.391 . S
C4 C5 1.399 . S
C5 C4 1.399 . S
C5 C8 1.396 . S
C5 C17 1.453 . S
C5 C18 1.684 . S
H6 C30 0.948 . S
C7 C3 1.397 1_554 S
C7 C8 1.394 1_554 S
C7 C26 1.723 . S
C8 C5 1.396 . S
C8 C7 1.394 1_556 S
C8 C38 1.723 1_556 S
H9 C32 0.947 1_556 S
H10 C33 0.948 1_556 S
H11 C39 0.982 . S
H12 C40 0.979 . S
H13 C40 0.980 . S
H14 C40 0.983 . S
H15 C39 0.979 . S
H16 C39 0.977 . S
C17 C5 1.453 . S
C17 H46 0.982 . S
C17 H47 0.979 . S
C17 H48 0.977 . S
C18 C5 1.684 . S
C18 H43 0.979 . S
C18 H44 0.980 . S
C18 H45 0.983 . S
C19 C20 1.391 . S
C19 C24 1.391 . S
C19 H49 0.948 1_565 S
C20 C19 1.391 . S
C20 C21 1.391 . S
C21 C20 1.391 . S
C21 C22 1.392 . S
C21 H50 0.947 . S
C22 C21 1.392 . S
C22 C23 1.419 . S
C22 H51 0.948 . S
C23 C22 1.419 . S
C23 C24 1.391 . S
C23 C27 1.397 . S
C24 C19 1.391 . S
C24 C23 1.391 . S
C24 C25 1.399 . S
C25 C24 1.399 . S
C25 C26 1.396 . S
C25 C28 1.453 1_565 S
C25 C29 1.684 . S
C26 C7 1.723 . S
C26 C25 1.396 . S
C26 C27 1.394 . S
C27 C23 1.397 . S
C27 C26 1.394 . S
C27 C37 1.723 . S
C28 C25 1.453 1_545 S
C28 H52 0.982 . S
C28 H53 0.979 . S
C28 H54 0.977 . S
C29 C25 1.684 . S
C29 H55 0.979 . S
C29 H56 0.980 1_565 S
C29 H57 0.983 1_565 S
C30 H6 0.948 . S
C30 C31 1.391 . S
C30 C35 1.391 . S
C31 C30 1.391 . S
C31 C32 1.391 . S
C32 H9 0.947 1_554 S
C32 C31 1.391 . S
C32 C33 1.392 . S
C33 H10 0.948 1_554 S
C33 C32 1.392 . S
C33 C34 1.419 . S
C34 C33 1.419 . S
C34 C35 1.391 . S
C34 C38 1.397 . S
C35 C30 1.391 . S
C35 C34 1.391 . S
C35 C36 1.399 . S
C36 C35 1.399 . S
C36 C37 1.396 . S
C36 C39 1.453 . S
C36 C40 1.684 . S
C37 C27 1.723 . S
C37 C36 1.396 . S
C37 C38 1.394 . S
C38 C8 1.723 1_554 S
C38 C34 1.397 . S
C38 C37 1.394 . S
C39 H11 0.982 . S
C39 H15 0.979 . S
C39 H16 0.977 . S
C39 C36 1.453 . S
C40 H12 0.979 . S
C40 H13 0.980 . S
C40 H14 0.983 . S
C40 C36 1.684 . S
H41 C59 0.948 1_545 S
H42 C0 0.948 . S
H43 C18 0.979 . S
H44 C18 0.980 . S
H45 C18 0.983 . S
H46 C17 0.982 . S
H47 C17 0.979 . S
H48 C17 0.977 . S
H49 C19 0.948 1_545 S
H50 C21 0.947 . S
H51 C22 0.948 . S
H52 C28 0.982 . S
H53 C28 0.979 . S
H54 C28 0.977 . S
H55 C29 0.979 . S
H56 C29 0.980 1_545 S
H57 C29 0.983 1_545 S
H58 C2 0.947 . S
C59 C2 1.392 1_565 S
C59 C3 1.419 . S
C59 H41 0.948 1_565 S
C60 C61 1.391 . S
C60 C64 1.391 . S
C60 H102 0.948 . S
C61 C60 1.391 . S
C61 C62 1.391 . S
C62 C61 1.391 . S
C62 H118 0.947 . S
C62 C119 1.392 . S
C63 C64 1.391 . S
C63 C67 1.397 . S
C63 C119 1.419 . S
C64 C60 1.391 . S
C64 C63 1.391 . S
C64 C65 1.399 . S
C65 C64 1.399 . S
C65 C68 1.396 . S
C65 C77 1.453 . S
C65 C78 1.684 . S
H66 C90 0.948 . S
C67 C63 1.397 . S
C67 C68 1.394 . S
C67 C86 1.723 . S
C68 C65 1.396 . S
C68 C67 1.394 . S
C68 C98 1.723 . S
H69 C92 0.947 . S
H70 C93 0.948 . S
H71 C99 0.982 . S
H72 C100 0.979 . S
H73 C100 0.980 . S
H74 C100 0.983 . S
H75 C99 0.979 . S
H76 C99 0.977 . S
C77 C65 1.453 . S
C77 H106 0.982 . S
C77 H107 0.979 . S
C77 H108 0.977 . S
C78 C65 1.684 . S
C78 H103 0.979 . S
C78 H104 0.980 . S
C78 H105 0.983 . S
C79 C80 1.391 . S
C79 C84 1.391 . S
C79 H109 0.948 . S
C80 C79 1.391 . S
C80 C81 1.391 . S
C81 C80 1.391 . S
C81 C82 1.392 . S
C81 H110 0.947 . S
C82 C81 1.392 . S
C82 C83 1.419 . S
C82 H111 0.948 . S
C83 C82 1.419 . S
C83 C84 1.391 . S
C83 C87 1.397 . S
C84 C79 1.391 . S
C84 C83 1.391 . S
C84 C85 1.399 . S
C85 C84 1.399 . S
C85 C86 1.396 . S
C85 C88 1.453 . S
C85 C89 1.684 . S
C86 C67 1.723 . S
C86 C85 1.396 . S
C86 C87 1.394 . S
C87 C83 1.397 . S
C87 C86 1.394 . S
C87 C97 1.723 . S
C88 C85 1.453 . S
C88 H112 0.982 . S
C88 H113 0.979 . S
C88 H114 0.977 . S
C89 C85 1.684 . S
C89 H115 0.979 . S
C89 H116 0.980 . S
C89 H117 0.983 . S
C90 H66 0.948 . S
C90 C91 1.391 . S
C90 C95 1.391 . S
C91 C90 1.391 . S
C91 C92 1.391 . S
C92 H69 0.947 . S
C92 C91 1.391 . S
C92 C93 1.392 . S
C93 H70 0.948 . S
C93 C92 1.392 . S
C93 C94 1.419 . S
C94 C93 1.419 . S
C94 C95 1.391 . S
C94 C98 1.397 . S
C95 C90 1.391 . S
C95 C94 1.391 . S
C95 C96 1.399 . S
C96 C95 1.399 . S
C96 C97 1.396 . S
C96 C99 1.453 . S
C96 C100 1.684 . S
C97 C87 1.723 . S
C97 C96 1.396 . S
C97 C98 1.394 . S
C98 C68 1.723 . S
C98 C94 1.397 . S
C98 C97 1.394 . S
C99 H71 0.982 . S
C99 H75 0.979 . S
C99 H76 0.977 . S
C99 C96 1.453 . S
C100 H72 0.979 . S
C100 H73 0.980 . S
C100 H74 0.983 . S
C100 C96 1.684 . S
H101 C119 0.948 . S
H102 C60 0.948 . S
H103 C78 0.979 . S
H104 C78 0.980 . S
H105 C78 0.983 . S
H106 C77 0.982 . S
H107 C77 0.979 . S
H108 C77 0.977 . S
H109 C79 0.948 . S
H110 C81 0.947 . S
H111 C82 0.948 . S
H112 C88 0.982 . S
H113 C88 0.979 . S
H114 C88 0.977 . S
H115 C89 0.979 . S
H116 C89 0.980 . S
H117 C89 0.983 . S
H118 C62 0.947 . S
C119 C62 1.392 . S
C119 C63 1.419 . S
C119 H101 0.948 . S
C120 C121 1.391 . S
C120 C124 1.391 . S
C120 H162 0.948 . S
C121 C120 1.391 . S
C121 C122 1.391 . S
C122 C121 1.391 . S
C122 H178 0.947 1_545 S
C122 C179 1.392 . S
C123 C124 1.391 . S
C123 C127 1.397 . S
C123 C179 1.419 . S
C124 C120 1.391 . S
C124 C123 1.391 . S
C124 C125 1.399 . S
C125 C124 1.399 . S
C125 C128 1.396 . S
C125 C137 1.453 . S
C125 C138 1.684 . S
H126 C150 0.948 . S
C127 C123 1.397 . S
C127 C128 1.394 . S
C127 C146 1.723 1_554 S
C128 C125 1.396 . S
C128 C127 1.394 . S
C128 C158 1.723 . S
H129 C152 0.947 . S
H130 C153 0.948 . S
H131 C159 0.982 . S
H132 C160 0.979 . S
H133 C160 0.980 . S
H134 C160 0.983 . S
H135 C159 0.979 . S
H136 C159 0.977 . S
C137 C125 1.453 . S
C137 H166 0.982 . S
C137 H167 0.979 . S
C137 H168 0.977 . S
C138 C125 1.684 . S
C138 H163 0.979 . S
C138 H164 0.980 . S
C138 H165 0.983 . S
C139 C140 1.391 . S
C139 C144 1.391 . S
C139 H169 0.948 . S
C140 C139 1.391 . S
C140 C141 1.391 . S
C141 C140 1.391 . S
C141 C142 1.392 . S
C141 H170 0.947 . S
C142 C141 1.392 . S
C142 C143 1.419 . S
C142 H171 0.948 . S
C143 C142 1.419 . S
C143 C144 1.391 . S
C143 C147 1.397 . S
C144 C139 1.391 . S
C144 C143 1.391 . S
C144 C145 1.399 . S
C145 C144 1.399 . S
C145 C146 1.396 . S
C145 C148 1.453 . S
C145 C149 1.684 1_545 S
C146 C127 1.723 1_556 S
C146 C145 1.396 . S
C146 C147 1.394 . S
C147 C143 1.397 . S
C147 C146 1.394 . S
C147 C157 1.723 . S
C148 C145 1.453 . S
C148 H172 0.982 . S
C148 H173 0.979 . S
C148 H174 0.977 1_556 S
C149 C145 1.684 1_565 S
C149 H175 0.979 . S
C149 H176 0.980 1_556 S
C149 H177 0.983 . S
C150 H126 0.948 . S
C150 C151 1.391 1_556 S
C150 C155 1.391 . S
C151 C150 1.391 1_554 S
C151 C152 1.391 . S
C152 H129 0.947 . S
C152 C151 1.391 . S
C152 C153 1.392 . S
C153 H130 0.948 . S
C153 C152 1.392 . S
C153 C154 1.419 . S
C154 C153 1.419 . S
C154 C155 1.391 1_554 S
C154 C158 1.397 . S
C155 C150 1.391 . S
C155 C154 1.391 1_556 S
C155 C156 1.399 . S
C156 C155 1.399 . S
C156 C157 1.396 . S
C156 C159 1.453 . S
C156 C160 1.684 . S
C157 C147 1.723 . S
C157 C156 1.396 . S
C157 C158 1.394 1_556 S
C158 C128 1.723 . S
C158 C154 1.397 . S
C158 C157 1.394 1_554 S
C159 H131 0.982 . S
C159 H135 0.979 . S
C159 H136 0.977 . S
C159 C156 1.453 . S
C160 H132 0.979 . S
C160 H133 0.980 . S
C160 H134 0.983 . S
C160 C156 1.684 . S
H161 C179 0.948 . S
H162 C120 0.948 . S
H163 C138 0.979 . S
H164 C138 0.980 . S
H165 C138 0.983 . S
H166 C137 0.982 . S
H167 C137 0.979 . S
H168 C137 0.977 . S
H169 C139 0.948 . S
H170 C141 0.947 . S
H171 C142 0.948 . S
H172 C148 0.982 . S
H173 C148 0.979 . S
H174 C148 0.977 1_554 S
H175 C149 0.979 . S
H176 C149 0.980 1_554 S
H177 C149 0.983 . S
H178 C122 0.947 1_565 S
C179 C122 1.392 . S
C179 C123 1.419 . S
C179 H161 0.948 . S
C180 C181 1.391 . S
C180 C184 1.391 . S
C180 H222 0.948 . S
C181 C180 1.391 . S
C181 C182 1.391 . S
C182 C181 1.391 . S
C182 H238 0.947 . S
C182 C239 1.392 . S
C183 C184 1.391 . S
C183 C187 1.397 . S
C183 C239 1.419 . S
C184 C180 1.391 . S
C184 C183 1.391 . S
C184 C185 1.399 . S
C185 C184 1.399 . S
C185 C188 1.396 . S
C185 C197 1.453 . S
C185 C198 1.684 . S
H186 C210 0.948 . S
C187 C183 1.397 . S
C187 C188 1.394 . S
C187 C206 1.723 . S
C188 C185 1.396 . S
C188 C187 1.394 . S
C188 C218 1.723 . S
H189 C212 0.947 . S
H190 C213 0.948 . S
H191 C219 0.982 . S
H192 C220 0.979 . S
H193 C220 0.980 . S
H194 C220 0.983 . S
H195 C219 0.979 . S
H196 C219 0.977 . S
C197 C185 1.453 . S
C197 H226 0.982 . S
C197 H227 0.979 . S
C197 H228 0.977 . S
C198 C185 1.684 . S
C198 H223 0.979 . S
C198 H224 0.980 . S
C198 H225 0.983 . S
C199 C200 1.391 . S
C199 C204 1.391 . S
C199 H229 0.948 . S
C200 C199 1.391 . S
C200 C201 1.391 . S
C201 C200 1.391 . S
C201 C202 1.392 . S
C201 H230 0.947 . S
C202 C201 1.392 . S
C202 C203 1.419 . S
C202 H231 0.948 . S
C203 C202 1.419 . S
C203 C204 1.391 . S
C203 C207 1.397 . S
C204 C199 1.391 . S
C204 C203 1.391 . S
C204 C205 1.399 . S
C205 C204 1.399 . S
C205 C206 1.396 . S
C205 C208 1.453 . S
C205 C209 1.684 . S
C206 C187 1.723 . S
C206 C205 1.396 . S
C206 C207 1.394 . S
C207 C203 1.397 . S
C207 C206 1.394 . S
C207 C217 1.723 . S
C208 C205 1.453 . S
C208 H232 0.982 . S
C208 H233 0.979 . S
C208 H234 0.977 . S
C209 C205 1.684 . S
C209 H235 0.979 . S
C209 H236 0.980 . S
C209 H237 0.983 . S
C210 H186 0.948 . S
C210 C211 1.391 . S
C210 C215 1.391 . S
C211 C210 1.391 . S
C211 C212 1.391 . S
C212 H189 0.947 . S
C212 C211 1.391 . S
C212 C213 1.392 . S
C213 H190 0.948 . S
C213 C212 1.392 . S
C213 C214 1.419 . S
C214 C213 1.419 . S
C214 C215 1.391 . S
C214 C218 1.397 . S
C215 C210 1.391 . S
C215 C214 1.391 . S
C215 C216 1.399 . S
C216 C215 1.399 . S
C216 C217 1.396 . S
C216 C219 1.453 . S
C216 C220 1.684 . S
C217 C207 1.723 . S
C217 C216 1.396 . S
C217 C218 1.394 . S
C218 C188 1.723 . S
C218 C214 1.397 . S
C218 C217 1.394 . S
C219 H191 0.982 . S
C219 H195 0.979 . S
C219 H196 0.977 . S
C219 C216 1.453 . S
C220 H192 0.979 . S
C220 H193 0.980 . S
C220 H194 0.983 . S
C220 C216 1.684 . S
H221 C239 0.948 . S
H222 C180 0.948 . S
H223 C198 0.979 . S
H224 C198 0.980 . S
H225 C198 0.983 . S
H226 C197 0.982 . S
H227 C197 0.979 . S
H228 C197 0.977 . S
H229 C199 0.948 . S
H230 C201 0.947 . S
H231 C202 0.948 . S
H232 C208 0.982 . S
H233 C208 0.979 . S
H234 C208 0.977 . S
H235 C209 0.979 . S
H236 C209 0.980 . S
H237 C209 0.983 . S
H238 C182 0.947 . S
C239 C182 1.392 . S
C239 C183 1.419 . S
C239 H221 0.948 . S
O240 Mn241 2.163 1_655 S
O240 C254 1.244 . S
Mn241 O240 2.163 1_455 S
Mn241 O244 2.160 1_545 S
Mn241 O245 2.221 . S
Mn241 O247 2.163 1_455 S
Mn241 O249 2.160 1_545 S
Mn241 O259 2.221 1_445 S
O242 Mn243 2.087 . S
O242 C254 1.256 1_565 S
Mn243 O242 2.087 . S
Mn243 O250 2.089 1_655 S
Mn243 O259 2.290 . S
Mn243 O260 2.251 . S
O244 Mn241 2.160 1_565 S
O244 C255 1.239 . S
O245 Mn241 2.221 . S
O245 Mn246 2.290 . S
O245 C256 1.278 . S
Mn246 O245 2.290 . S
Mn246 O248 2.089 . S
Mn246 O251 2.251 . S
Mn246 O252 2.087 1_455 S
O247 Mn241 2.163 1_655 S
O247 C257 1.244 . S
O248 Mn246 2.089 . S
O248 C255 1.256 1_545 S
O249 Mn241 2.160 1_565 S
O249 C258 1.239 . S
O250 Mn243 2.089 1_455 S
O250 C258 1.256 . S
O251 Mn246 2.251 . S
O251 C256 1.241 . S
O252 Mn246 2.087 1_655 S
O252 C257 1.256 . S
C253 O259 1.278 . S
C253 O260 1.241 . S
C254 O240 1.244 . S
C254 O242 1.256 1_545 S
C255 O244 1.239 . S
C255 O248 1.256 1_565 S
C256 O245 1.278 . S
C256 O251 1.241 . S
C257 O247 1.244 . S
C257 O252 1.256 . S
C258 O249 1.239 . S
C258 O250 1.256 . S
O259 Mn241 2.221 1_665 S
O259 Mn243 2.290 . S
O259 C253 1.278 . S
O260 Mn243 2.251 . S
O260 C253 1.241 . S
O261 Mn262 2.163 . S
O261 C275 1.244 . S
Mn262 O261 2.163 . S
Mn262 O265 2.160 1_554 S
Mn262 O266 2.221 . S
Mn262 O268 2.163 1_554 S
Mn262 O270 2.160 . S
Mn262 O280 2.221 . S
O263 Mn264 2.087 . S
O263 C275 1.256 . S
Mn264 O263 2.087 . S
Mn264 O271 2.089 . S
Mn264 O280 2.290 . S
Mn264 O281 2.251 . S
O265 Mn262 2.160 1_556 S
O265 C276 1.239 . S
O266 Mn262 2.221 . S
O266 Mn267 2.290 1_554 S
O266 C277 1.278 . S
Mn267 O266 2.290 1_556 S
Mn267 O269 2.089 . S
Mn267 O272 2.251 . S
Mn267 O273 2.087 . S
O268 Mn262 2.163 1_556 S
O268 C278 1.244 . S
O269 Mn267 2.089 . S
O269 C276 1.256 . S
O270 Mn262 2.160 . S
O270 C279 1.239 . S
O271 Mn264 2.089 . S
O271 C279 1.256 . S
O272 Mn267 2.251 . S
O272 C277 1.241 1_556 S
O273 Mn267 2.087 . S
O273 C278 1.256 . S
C274 O280 1.278 . S
C274 O281 1.241 . S
C275 O261 1.244 . S
C275 O263 1.256 . S
C276 O265 1.239 . S
C276 O269 1.256 . S
C277 O266 1.278 . S
C277 O272 1.241 1_554 S
C278 O268 1.244 . S
C278 O273 1.256 . S
C279 O270 1.239 . S
C279 O271 1.256 . S
O280 Mn262 2.221 . S
O280 Mn264 2.290 . S
O280 C274 1.278 . S
O281 Mn264 2.251 . S
O281 C274 1.241 . S
C256 C211 2.171 . S
C31 C277 1.712 . S
C91 C253 2.029 . S
C151 C274 1.971 . S
C258 C20 2.266 . S
C278 C61 1.819 . S
C121 C254 1.714 . S
C200 C276 2.010 . S
C275 C80 1.639 . S
C257 C140 2.178 . S
C279 C181 2.338 . S
C1 C255 1.730 . S
