# Generated by pormake.
# Topology pyr, (3,6)-cn, num edge types: 1
# Building blocks:
#     Node 0, Type 0, BuildingBlock: QEWDON_clean_linker_0, # of connection points: 3
#     Node 1, Type 0, BuildingBlock: QEWDON_clean_linker_0, # of connection points: 3
#     Node 2, Type 0, BuildingBlock: QEWDON_clean_linker_0, # of connection points: 3
#     Node 3, Type 0, BuildingBlock: QEWDON_clean_linker_0, # of connection points: 3
#     Node 4, Type 0, BuildingBlock: QEWDON_clean_linker_0, # of connection points: 3
#     Node 5, Type 0, BuildingBlock: QEWDON_clean_linker_0, # of connection points: 3
#     Node 6, Type 0, BuildingBlock: QEWDON_clean_linker_0, # of connection points: 3
#     Node 7, Type 0, BuildingBlock: QEWDON_clean_linker_0, # of connection points: 3
#     Node 8, Type 1, BuildingBlock: BETGAK_clean_sbu_0, # of connection points: 6
#     Node 9, Type 1, BuildingBlock: BETGAK_clean_sbu_0, # of connection points: 6
#     Node 10, Type 1, BuildingBlock: BETGAK_clean_sbu_0, # of connection points: 6
#     Node 11, Type 1, BuildingBlock: BETGAK_clean_sbu_0, # of connection points: 6
#     Edge 12, Type (0, 1), BuildingBlock: KIFKEQ_clean_linker_1, # of connection points: 2
#     Edge 13, Type (0, 1), BuildingBlock: KIFKEQ_clean_linker_1, # of connection points: 2
#     Edge 14, Type (0, 1), BuildingBlock: KIFKEQ_clean_linker_1, # of connection points: 2
#     Edge 15, Type (0, 1), BuildingBlock: KIFKEQ_clean_linker_1, # of connection points: 2
#     Edge 16, Type (0, 1), BuildingBlock: KIFKEQ_clean_linker_1, # of connection points: 2
#     Edge 17, Type (0, 1), BuildingBlock: KIFKEQ_clean_linker_1, # of connection points: 2
#     Edge 18, Type (0, 1), BuildingBlock: KIFKEQ_clean_linker_1, # of connection points: 2
#     Edge 19, Type (0, 1), BuildingBlock: KIFKEQ_clean_linker_1, # of connection points: 2
#     Edge 20, Type (0, 1), BuildingBlock: KIFKEQ_clean_linker_1, # of connection points: 2
#     Edge 21, Type (0, 1), BuildingBlock: KIFKEQ_clean_linker_1, # of connection points: 2
#     Edge 22, Type (0, 1), BuildingBlock: KIFKEQ_clean_linker_1, # of connection points: 2
#     Edge 23, Type (0, 1), BuildingBlock: KIFKEQ_clean_linker_1, # of connection points: 2
#     Edge 24, Type (0, 1), BuildingBlock: KIFKEQ_clean_linker_1, # of connection points: 2
#     Edge 25, Type (0, 1), BuildingBlock: KIFKEQ_clean_linker_1, # of connection points: 2
#     Edge 26, Type (0, 1), BuildingBlock: KIFKEQ_clean_linker_1, # of connection points: 2
#     Edge 27, Type (0, 1), BuildingBlock: KIFKEQ_clean_linker_1, # of connection points: 2
#     Edge 28, Type (0, 1), BuildingBlock: KIFKEQ_clean_linker_1, # of connection points: 2
#     Edge 29, Type (0, 1), BuildingBlock: KIFKEQ_clean_linker_1, # of connection points: 2
#     Edge 30, Type (0, 1), BuildingBlock: KIFKEQ_clean_linker_1, # of connection points: 2
#     Edge 31, Type (0, 1), BuildingBlock: KIFKEQ_clean_linker_1, # of connection points: 2
#     Edge 32, Type (0, 1), BuildingBlock: KIFKEQ_clean_linker_1, # of connection points: 2
#     Edge 33, Type (0, 1), BuildingBlock: KIFKEQ_clean_linker_1, # of connection points: 2
#     Edge 34, Type (0, 1), BuildingBlock: KIFKEQ_clean_linker_1, # of connection points: 2
#     Edge 35, Type (0, 1), BuildingBlock: KIFKEQ_clean_linker_1, # of connection points: 2
# Relax obj value: 0.171
# Max RMSD: 0.266
# Mean RMSD: 0.196
data_MOF--net-pyr--node1-BETGAK_clean_sbu_0--node2-QEWDON_clean_linker_0--edge1-KIFKEQ_clean_linker_1
_symmetry_space_group_name_H-M    P1
_symmetry_Int_Tables_number       1
_symmetry_cell_setting            triclinic
loop_
_symmetry_equiv_pos_as_xyz
'x, y, z'
_cell_length_a     38.685872
_cell_length_b     41.541856
_cell_length_c     39.474893
_cell_angle_alpha  91.734861
_cell_angle_beta   89.41596
_cell_angle_gamma 109.36655
loop_
_atom_site_label
_atom_site_type_symbol
_atom_site_fract_x
_atom_site_fract_y
_atom_site_fract_z
_atom_type_partial_charge
H0 H 0.44984 0.35576 0.21991 0.0
C1 C 0.42988 0.34651 0.2399 0.0
C2 C 0.42353 0.31371 0.25232 0.0
C3 C 0.40983 0.36697 0.25245 0.0
H4 H 0.39205 0.27615 0.28708 0.0
C5 C 0.39719 0.3016 0.27776 0.0
C6 C 0.37642 0.32147 0.29017 0.0
C7 C 0.38318 0.35424 0.27754 0.0
C8 C 0.41566 0.40119 0.2386 0.0
H9 H 0.3671 0.36968 0.28671 0.0
C10 C 0.38549 0.41095 0.22976 0.0
C11 C 0.3905 0.44366 0.21744 0.0
C12 C 0.45122 0.42431 0.23445 0.0
H13 H 0.47491 0.41749 0.24122 0.0
C14 C 0.45647 0.45677 0.22221 0.0
H15 H 0.3581 0.3927 0.23183 0.0
C16 C 0.42641 0.4665 0.21387 0.0
H17 H 0.43135 0.49206 0.20504 0.0
H18 H 0.48397 0.47459 0.21943 0.0
H19 H 0.22908 0.88784 0.75889 0.0
C20 C 0.24662 0.87855 0.74255 0.0
C21 C 0.28173 0.88055 0.75352 0.0
C22 C 0.23421 0.86517 0.71013 0.0
H23 H 0.33085 0.86948 0.73981 0.0
C24 C 0.30414 0.86913 0.7314 0.0
C25 C 0.29216 0.8562 0.69879 0.0
C26 C 0.25689 0.85384 0.68833 0.0
C27 C 0.19794 0.86433 0.69862 0.0
H28 H 0.24735 0.84378 0.66319 0.0
C29 C 0.19404 0.89305 0.68359 0.0
C30 C 0.15932 0.89316 0.67363 0.0
C31 C 0.16713 0.83538 0.70344 0.0
H32 H 0.16984 0.81305 0.71509 0.0
C33 C 0.13254 0.83527 0.6935 0.0
H34 H 0.21795 0.91553 0.68031 0.0
C35 C 0.12855 0.86403 0.67879 0.0
H36 H 0.1015 0.86341 0.6712 0.0
H37 H 0.10875 0.8129 0.6973 0.0
H38 H 0.73042 0.48226 0.92683 0.0
C39 C 0.71953 0.4555 0.9329 0.0
C40 C 0.73973 0.44122 0.95388 0.0
C41 C 0.68381 0.4361 0.92223 0.0
H42 H 0.74042 0.39516 0.977 0.0
C43 C 0.72426 0.40665 0.96244 0.0
C44 C 0.68817 0.387 0.95326 0.0
C45 C 0.66837 0.40215 0.93288 0.0
C46 C 0.6596 0.45276 0.90603 0.0
H47 H 0.64008 0.3882 0.92651 0.0
C48 C 0.66541 0.46584 0.87283 0.0
C49 C 0.64028 0.48003 0.85865 0.0
C50 C 0.62911 0.45467 0.92457 0.0
H51 H 0.6241 0.44501 0.94999 0.0
C52 C 0.6048 0.46903 0.91076 0.0
H53 H 0.68863 0.46439 0.85807 0.0
C54 C 0.61024 0.48151 0.87809 0.0
H55 H 0.59075 0.49229 0.86781 0.0
H56 H 0.58147 0.47032 0.92541 0.0
H57 H 0.92597 0.81898 0.39677 0.0
C58 C 0.90607 0.79994 0.41154 0.0
C59 C 0.8993 0.80747 0.44567 0.0
C60 C 0.88532 0.7689 0.39526 0.0
H61 H 0.86591 0.78752 0.48955 0.0
C62 C 0.87156 0.78265 0.46334 0.0
C63 C 0.84934 0.75228 0.44714 0.0
C64 C 0.85667 0.74551 0.41312 0.0
C65 C 0.88755 0.76489 0.35775 0.0
H66 H 0.83908 0.72272 0.40006 0.0
C67 C 0.90726 0.74541 0.34142 0.0
C68 C 0.90875 0.74336 0.30543 0.0
C69 C 0.86899 0.7814 0.33799 0.0
H70 H 0.85366 0.79626 0.34993 0.0
C71 C 0.86974 0.77885 0.30279 0.0
H72 H 0.92184 0.73271 0.35649 0.0
C73 C 0.88935 0.7601 0.28666 0.0
H74 H 0.88911 0.75852 0.25922 0.0
H75 H 0.85506 0.79154 0.28787 0.0
H76 H 0.70887 0.7924 0.96311 0.0
C77 C 0.72629 0.80955 0.945 0.0
C78 C 0.7614 0.80804 0.93807 0.0
C79 C 0.7137 0.8332 0.92853 0.0
H80 H 0.81127 0.82971 0.90986 0.0
C81 C 0.78398 0.83058 0.91501 0.0
C82 C 0.772 0.8544 0.89868 0.0
C83 C 0.73673 0.85549 0.90529 0.0
C84 C 0.67638 0.83443 0.93514 0.0
H85 H 0.72727 0.8737 0.89241 0.0
C86 C 0.67085 0.86578 0.94236 0.0
C87 C 0.63531 0.86711 0.9476 0.0
C88 C 0.64598 0.80433 0.9335 0.0
H89 H 0.64952 0.77994 0.9278 0.0
C90 C 0.61066 0.80556 0.93843 0.0
H91 H 0.6942 0.8891 0.9439 0.0
C92 C 0.60526 0.83672 0.94532 0.0
H93 H 0.57764 0.83697 0.94952 0.0
H94 H 0.58736 0.78226 0.93693 0.0
H95 H 0.76653 0.18335 0.57609 0.0
C96 C 0.7597 0.18283 0.54948 0.0
C97 C 0.78306 0.17604 0.5249 0.0
C98 C 0.72822 0.19007 0.54003 0.0
H99 H 0.79221 0.171 0.47128 0.0
C100 C 0.77484 0.17695 0.49046 0.0
C101 C 0.74359 0.18429 0.48052 0.0
C102 C 0.72029 0.19065 0.50543 0.0
C103 C 0.70426 0.19783 0.56641 0.0
H104 H 0.69604 0.19616 0.49784 0.0
C105 C 0.691 0.22519 0.56266 0.0
C106 C 0.66973 0.23373 0.58821 0.0
C107 C 0.69548 0.17867 0.59596 0.0
H108 H 0.70495 0.1572 0.5994 0.0
C109 C 0.6742 0.18696 0.62134 0.0
H110 H 0.69832 0.24066 0.54038 0.0
C111 C 0.66152 0.21445 0.61764 0.0
H112 H 0.64505 0.22047 0.63761 0.0
H113 H 0.66758 0.17207 0.64399 0.0
H114 H 0.4621 0.83264 0.26577 0.0
C115 C 0.43476 0.81704 0.25785 0.0
C116 C 0.41579 0.83014 0.23477 0.0
C117 C 0.42006 0.78312 0.26881 0.0
H118 H 0.36756 0.81912 0.20441 0.0
C119 C 0.38127 0.80917 0.22317 0.0
C120 C 0.36481 0.77565 0.23476 0.0
C121 C 0.3847 0.76287 0.25777 0.0
C122 C 0.44482 0.76762 0.286 0.0
H123 H 0.37346 0.73687 0.26614 0.0
C124 C 0.43712 0.75176 0.31792 0.0
C125 C 0.46261 0.73826 0.33262 0.0
C126 C 0.47759 0.76914 0.26931 0.0
H127 H 0.48407 0.78075 0.2448 0.0
C128 C 0.50227 0.75556 0.28363 0.0
H129 H 0.41208 0.75037 0.33125 0.0
C130 C 0.49491 0.74033 0.31499 0.0
H131 H 0.5147 0.73015 0.32569 0.0
H132 H 0.52732 0.75693 0.27036 0.0
H133 H 0.26501 0.48784 0.78148 0.0
C134 C 0.24848 0.46486 0.76799 0.0
C135 C 0.25835 0.45773 0.73477 0.0
C136 C 0.21841 0.44155 0.78445 0.0
H137 H 0.24658 0.42081 0.69345 0.0
C138 C 0.23776 0.4269 0.71824 0.0
C139 C 0.20789 0.40286 0.73419 0.0
C140 C 0.19833 0.41079 0.76728 0.0
C141 C 0.21249 0.44544 0.8216 0.0
H142 H 0.17579 0.3926 0.78032 0.0
C143 C 0.19904 0.47072 0.83613 0.0
C144 C 0.19424 0.47268 0.87179 0.0
C145 C 0.22073 0.42258 0.843 0.0
H146 H 0.23102 0.40307 0.83258 0.0
C147 C 0.21623 0.4247 0.87795 0.0
H148 H 0.19234 0.48843 0.81999 0.0
C149 C 0.20321 0.44953 0.89224 0.0
H150 H 0.19979 0.45048 0.91949 0.0
H151 H 0.22285 0.40695 0.89408 0.0
La152 La 0.06496 0.12012 0.55174 0.0
La153 La 0.05198 0.09133 0.62131 0.0
C154 C 0.06956 0.1539 0.49888 0.0
C155 C 0.10009 0.17901 0.48183 0.0
C156 C 0.13604 0.18599 0.49342 0.0
C157 C 0.16558 0.20628 0.4746 0.0
C158 C 0.15961 0.22 0.44392 0.0
C159 C 0.12333 0.21423 0.43335 0.0
C160 C 0.09381 0.19376 0.45213 0.0
C161 C 0.11546 0.09517 0.57346 0.0
C162 C 0.09475 0.16887 0.61679 0.0
C163 C 0.04689 0.0575 0.67413 0.0
C164 C 1.01615 1.03537 0.69395 0.0
C165 C 0.98729 0.04661 0.70491 0.0
C166 C 0.95901 1.02585 0.72467 0.0
C167 C 0.95871 0.99325 0.73361 0.0
C168 C 0.98719 0.98174 0.72183 0.0
C169 C 1.01571 1.00268 0.70231 0.0
C170 C 1.00133 0.11588 0.6002 0.0
C171 C 1.02301 0.04242 0.5561 0.0
O172 O 0.07176 0.12322 0.49916 0.0
O173 O 0.05999 0.1633 0.52845 0.0
O174 O 0.10719 0.0961 0.54199 0.0
O175 O 0.09865 0.11117 0.59036 0.0
O176 O 0.08216 0.16626 0.58534 0.0
O177 O 0.09258 0.14112 0.63355 0.0
O178 O 0.05042 0.08989 0.67425 0.0
O179 O 0.0518 0.04597 0.64392 0.0
O180 O 1.00938 0.11434 0.63161 0.0
O181 O 1.01774 0.09998 0.58256 0.0
O182 O 0.03509 0.04517 0.58776 0.0
O183 O 0.02554 0.06999 0.5389 0.0
H184 H 0.14129 0.17461 0.51631 0.0
H185 H 0.19309 0.20985 0.48332 0.0
H186 H 0.11777 0.22489 0.41015 0.0
H187 H 0.06615 0.1886 0.4429 0.0
H188 H 0.98674 0.07164 0.69865 0.0
H189 H 0.93789 1.03579 0.73365 0.0
H190 H 0.98752 0.95656 0.72772 0.0
H191 H 0.03755 0.99342 0.69387 0.0
La192 La 0.58313 0.11731 0.10684 0.0
La193 La 0.51122 0.09572 0.07301 0.0
C194 C 0.64779 0.14199 0.12828 0.0
C195 C 0.66318 0.15338 0.16236 0.0
C196 C 0.68611 0.13762 0.17697 0.0
C197 C 0.69754 0.14514 0.21062 0.0
C198 C 0.68648 0.16883 0.2303 0.0
C199 C 0.6647 0.18561 0.21512 0.0
C200 C 0.65299 0.17784 0.18159 0.0
C201 C 0.5324 0.06617 0.13686 0.0
C202 C 0.52208 0.1436 0.13639 0.0
C203 C 0.45002 0.06626 0.04553 0.0
C204 C 0.43186 1.03592 1.02407 0.0
C205 C 0.45058 1.02622 0.99714 0.0
C206 C 0.43145 1.00147 0.97323 0.0
C207 C 0.39325 0.98573 0.97592 0.0
C208 C 0.3751 0.99384 1.00433 0.0
C209 C 0.39426 1.01885 1.0281 0.0
C210 C 0.55425 0.15835 0.05823 0.0
C211 C 0.57166 0.06681 0.04357 0.0
O212 O 0.63047 0.10917 0.12447 0.0
O213 O 0.63017 0.1602 0.11419 0.0
O214 O 0.5575 0.09055 0.15249 0.0
O215 O 0.53717 0.07051 0.1055 0.0
O216 O 0.55765 0.15169 0.13099 0.0
O217 O 0.49841 0.11721 0.12042 0.0
O218 O 0.47687 0.09009 1.03132 0.0
O219 O 0.45725 0.06138 0.07696 0.0
O220 O 0.51922 0.14907 0.06253 0.0
O221 O 0.56416 0.13251 0.06127 0.0
O222 O 0.53684 0.06469 0.04341 0.0
O223 O 0.59557 0.08799 0.06451 0.0
H224 H 0.69417 0.11857 0.16268 0.0
H225 H 0.71389 0.13139 0.22152 0.0
H226 H 0.65623 0.20444 0.22929 0.0
H227 H 0.63525 0.19042 0.17109 0.0
H228 H 0.47966 0.03901 0.99352 0.0
H229 H 0.44639 0.99626 0.95159 0.0
H230 H 0.34586 0.98172 1.00759 0.0
H231 H 0.37939 1.02591 0.04883 0.0
La232 La 0.55381 0.57796 0.56974 0.0
La233 La 0.555 0.63616 0.61362 0.0
C234 C 0.57269 0.53418 0.53588 0.0
C235 C 0.58122 0.50303 0.5427 0.0
C236 C 0.55897 0.4778 0.56378 0.0
C237 C 0.56766 0.44833 0.5695 0.0
C238 C 0.59893 0.44372 0.55451 0.0
C239 C 0.62142 0.46943 0.53392 0.0
C240 C 0.61253 0.4987 0.52798 0.0
C241 C 0.49096 0.56942 0.60169 0.0
C242 C 0.58285 0.58204 0.64681 0.0
C243 C 0.53988 0.68282 0.64613 0.0
C244 C 0.51651 0.70378 0.64046 0.0
C245 C 0.53147 0.73931 0.64468 0.0
C246 C 0.50952 0.7597 0.64097 0.0
C247 C 0.47201 0.74487 0.63336 0.0
C248 C 0.4574 0.70929 0.62793 0.0
C249 C 0.47948 0.68893 0.6313 0.0
C250 C 0.61753 0.64317 0.58179 0.0
C251 C 0.52376 0.63088 0.53836 0.0
O252 O 0.53863 0.53286 0.53986 0.0
O253 O 0.59591 0.56265 0.5482 0.0
O254 O 0.49396 0.55771 0.57141 0.0
O255 O 0.5227 0.58336 0.61378 0.0
O256 O 0.57915 0.56695 0.61625 0.0
O257 O 0.57263 0.60907 0.65262 0.0
O258 O 0.56829 0.68836 0.62619 0.0
O259 O 0.52325 0.65025 0.65077 0.0
O260 O 0.61494 0.65347 0.61272 0.0
O261 O 0.58573 0.63061 0.56954 0.0
O262 O 0.52178 0.64145 0.57011 0.0
O263 O 0.54072 0.60864 0.53127 0.0
H264 H 0.53479 0.48072 0.57568 0.0
H265 H 0.54952 0.42893 0.5852 0.0
H266 H 0.64611 0.46712 0.52256 0.0
H267 H 0.63022 0.51805 0.51191 0.0
H268 H 0.56008 0.75128 0.65133 0.0
H269 H 0.52183 0.78707 0.64465 0.0
H270 H 0.42859 0.69695 0.62238 0.0
H271 H 0.46734 0.66155 0.62747 0.0
La272 La 0.05371 0.57447 0.10618 0.0
La273 La 0.05457 0.63937 0.07652 0.0
C274 C 0.06949 0.52319 0.1238 0.0
C275 C 0.10327 0.51675 0.13327 0.0
C276 C 0.10197 0.49362 0.15875 0.0
C277 C 0.13373 0.48723 0.16827 0.0
C278 C 0.16733 0.50374 0.15228 0.0
C279 C 0.16858 0.52702 0.12678 0.0
C280 C 0.13686 0.53364 0.11748 0.0
C281 C 1.01887 0.60893 0.1426 0.0
C282 C 0.12267 0.64236 0.11885 0.0
C283 C 0.03732 0.69035 0.06062 0.0
C284 C 1.00285 0.69616 0.0515 0.0
C285 C 0.98736 0.68743 1.01904 0.0
C286 C 0.95512 0.69367 1.01078 0.0
C287 C 0.93762 0.70876 1.03478 0.0
C288 C 0.95293 0.71704 0.06737 0.0
C289 C 0.98523 0.71097 0.07556 0.0
C290 C 0.09029 0.60572 0.04025 0.0
C291 C 0.98515 0.57133 0.06426 0.0
O292 O 0.05844 0.54256 0.14495 0.0
O293 O 0.06694 0.53088 0.09222 0.0
O294 O 1.00836 0.5759 0.13977 0.0
O295 O 0.04853 0.62096 0.12664 0.0
O296 O 0.11052 0.60854 0.11609 0.0
O297 O 0.10305 0.66057 0.10789 0.0
O298 O 0.05043 0.6728 0.03902 0.0
O299 O 0.03959 0.68165 0.09186 0.0
O300 O 0.10029 0.63876 0.04346 0.0
O301 O 0.06033 0.59301 0.05581 0.0
O302 O 0.99836 0.60516 0.0652 0.0
O303 O 1.00396 0.55297 0.07657 0.0
H304 H 0.07632 0.48044 0.17126 0.0
H305 H 0.13189 0.46896 0.18779 0.0
H306 H 0.19418 0.54039 0.11431 0.0
H307 H 0.13861 0.5519 0.09796 0.0
H308 H 1.00028 0.6761 0.99983 0.0
H309 H 0.94448 0.68746 0.98527 0.0
H310 H 0.93998 0.72829 0.08662 0.0
H311 H 0.9965 0.718 0.10079 0.0
H312 H 0.35693 0.35369 0.34519 0.0
H313 H 0.32661 0.25702 0.28982 0.0
H314 H 0.3041 0.3311 0.38237 0.0
H315 H 0.27509 0.23403 0.32787 0.0
H316 H 0.164 0.21444 0.37502 0.0
H317 H 0.21647 0.24043 0.33891 0.0
H318 H 0.27989 0.29024 0.42666 0.0
H319 H 0.22662 0.26551 0.46276 0.0
C320 C 0.33913 0.32758 0.34107 0.0
C321 C 0.34597 0.30719 0.31449 0.0
C322 C 0.30907 0.31455 0.36258 0.0
C323 C 0.28522 0.28084 0.35794 0.0
C324 C 0.29254 0.26028 0.3318 0.0
C325 C 0.32246 0.27331 0.31028 0.0
C326 C 0.18885 0.2315 0.38661 0.0
C327 C 0.19104 0.23789 0.42183 0.0
C328 C 0.21916 0.24598 0.36593 0.0
C329 C 0.25253 0.26707 0.37994 0.0
C330 C 0.25454 0.27421 0.41505 0.0
C331 C 0.22411 0.25978 0.43577 0.0
H332 H 0.24349 0.87197 0.81364 0.0
H333 H 0.35109 0.92084 0.77122 0.0
H334 H 0.26737 0.89334 0.87017 0.0
H335 H 0.37487 0.94067 0.8276 0.0
H336 H 0.41276 0.93946 0.93563 0.0
H337 H 0.38341 0.9117 0.88309 0.0
H338 H 0.29657 0.9541 0.8993 0.0
H339 H 0.3264 0.98303 0.95108 0.0
C340 C 0.2721 0.88733 0.81626 0.0
C341 C 0.29542 0.89441 0.78785 0.0
C342 C 0.28575 0.8993 0.84863 0.0
C343 C 0.32303 0.9181 0.85318 0.0
C344 C 0.34619 0.92552 0.82484 0.0
C345 C 0.33251 0.91408 0.79255 0.0
C346 C 0.38735 0.94281 0.92813 0.0
C347 C 0.37227 0.9639 0.94744 0.0
C348 C 0.37052 0.9268 0.89814 0.0
C349 C 0.33798 0.9311 0.88711 0.0
C350 C 0.32155 0.95026 0.90741 0.0
C351 C 0.33863 0.96668 0.93719 0.0
H352 H 0.67518 0.54498 0.83857 0.0
H353 H 0.60879 0.44554 0.80104 0.0
H354 H 0.66613 0.56996 0.78538 0.0
H355 H 0.59892 0.47025 0.74799 0.0
H356 H 0.60094 0.52307 0.64747 0.0
H357 H 0.62155 0.49832 0.69555 0.0
H358 H 0.6163 0.58241 0.76004 0.0
H359 H 0.5964 0.60728 0.71213 0.0
C360 C 0.65967 0.52831 0.81841 0.0
C361 C 0.64343 0.4932 0.82365 0.0
C362 C 0.65387 0.54265 0.78809 0.0
C363 C 0.63133 0.52231 0.76225 0.0
C364 C 0.61672 0.48682 0.76693 0.0
C365 C 0.62253 0.47252 0.7973 0.0
C366 C 0.60445 0.53643 0.67185 0.0
C367 C 0.59687 0.56727 0.67572 0.0
C368 C 0.61614 0.52211 0.69956 0.0
C369 C 0.62083 0.53827 0.73195 0.0
C370 C 0.61374 0.56936 0.73555 0.0
C371 C 0.60195 0.58357 0.70797 0.0
H372 H 0.95435 0.76544 0.25162 0.0
H373 H 0.91106 0.67828 0.31489 0.0
H374 H 0.9811 0.73294 0.21396 0.0
H375 H 0.93936 0.64563 0.27763 0.0
H376 H 0.95618 0.5861 0.18067 0.0
H377 H 0.93268 0.61825 0.22261 0.0
H378 H 0.02645 0.70798 0.20507 0.0
H379 H 0.0491 0.67603 0.16264 0.0
C380 C 0.951 0.73935 0.25781 0.0
C381 C 0.93017 0.72448 0.28625 0.0
C382 C 0.9667 0.72066 0.23622 0.0
C383 C 0.96244 0.68634 0.24232 0.0
C384 C 0.94284 0.67177 0.27162 0.0
C385 C 0.92701 0.69063 0.29335 0.0
C386 C 0.97167 0.61274 0.18577 0.0
C387 C 1.00434 0.62854 0.16802 0.0
C388 C 0.95838 0.63117 0.21012 0.0
C389 C 0.97746 0.66596 0.21752 0.0
C390 C 1.01044 0.68152 0.19987 0.0
C391 C 1.02358 0.66314 0.17547 0.0
H392 H 0.42735 0.29812 0.18541 0.0
H393 H 0.46005 0.27704 0.28426 0.0
H394 H 0.45221 0.25615 0.15968 0.0
H395 H 0.48547 0.23521 0.25833 0.0
H396 H 0.55999 0.19317 0.18241 0.0
H397 H 0.538 0.23527 0.21236 0.0
H398 H 0.43148 0.1891 0.16667 0.0
H399 H 0.45292 0.14683 0.13727 0.0
C400 C 0.44043 0.2849 0.20152 0.0
C401 C 0.44188 0.29078 0.23677 0.0
C402 C 0.45434 0.26074 0.18687 0.0
C403 C 0.47049 0.2424 0.20711 0.0
C404 C 0.47318 0.24911 0.24224 0.0
C405 C 0.45861 0.27288 0.25701 0.0
C406 C 0.53175 0.19177 0.17914 0.0
C407 C 0.50821 0.16673 0.15743 0.0
C408 C 0.51923 0.21579 0.19628 0.0
C409 C 0.48322 0.21552 0.19145 0.0
C410 C 0.45948 0.19 0.17049 0.0
C411 C 0.47174 0.16568 0.15388 0.0
H412 H 0.10962 0.92462 0.69034 0.0
H413 H 0.20009 0.931 0.62288 0.0
H414 H 0.10346 0.97582 0.66592 0.0
H415 H 0.19406 0.9824 0.59855 0.0
H416 H 0.13283 0.04468 0.53908 0.0
H417 H 0.14626 0.99667 0.56347 0.0
H418 H 0.14117 0.03887 0.664 0.0
H419 H 0.12821 0.08703 0.6396 0.0
C420 C 0.12807 0.93693 0.67021 0.0
C421 C 0.15529 0.92388 0.65845 0.0
C422 C 0.12481 0.96637 0.65649 0.0
C423 C 0.14845 0.98313 0.63051 0.0
C424 C 0.17546 0.96991 0.61851 0.0
C425 C 0.17901 0.94067 0.63253 0.0
C426 C 0.13532 0.04399 0.56634 0.0
C427 C 0.1291 0.06925 0.58754 0.0
C428 C 0.14297 1.01655 0.58027 0.0
C429 C 0.14427 1.0139 0.61561 0.0
C430 C 0.13976 0.04006 0.63669 0.0
C431 C 0.13254 0.06765 0.62275 0.0
H432 H 0.79689 0.49314 0.92576 0.0
H433 H 0.7636 0.43853 1.01846 0.0
H434 H 0.85576 0.52595 0.95208 0.0
H435 H 0.82212 0.47047 0.04409 0.0
H436 H 0.94515 0.50322 0.0646 0.0
H437 H 0.88657 0.47368 0.03725 0.0
H438 H 0.88394 0.56916 0.99922 0.0
H439 H 0.94289 0.59895 1.02664 0.0
C440 C 0.80194 0.48816 0.95169 0.0
C441 C 0.77553 0.46255 0.9696 0.0
C442 C 0.83572 0.50697 0.96679 0.0
C443 C 0.84395 0.50053 1.00009 0.0
C444 C 0.81717 0.4756 1.01816 0.0
C445 C 0.78352 0.4571 1.00328 0.0
C446 C 0.93217 0.51804 0.0505 0.0
C447 C 0.94884 0.55356 0.04804 0.0
C448 C 0.89841 0.50107 1.03487 0.0
C449 C 0.88038 0.519 1.01605 0.0
C450 C 0.89715 0.5545 1.01328 0.0
C451 C 0.93085 0.5716 1.02924 0.0
H452 H 0.77868 0.7278 0.42397 0.0
H453 H 0.84471 0.72713 0.51109 0.0
H454 H 0.72334 0.69853 0.45572 0.0
H455 H 0.78965 0.6966 0.54264 0.0
H456 H 0.68501 0.68379 0.60313 0.0
H457 H 0.7406 0.70635 0.56994 0.0
H458 H 0.68421 0.6499 0.48154 0.0
H459 H 0.6279 0.62864 0.51483 0.0
C460 C 0.78142 0.72057 0.44968 0.0
C461 C 0.81615 0.72991 0.465 0.0
C462 C 0.74958 0.70369 0.46801 0.0
C463 C 0.75156 0.69531 0.50213 0.0
C464 C 0.78661 0.7033 0.51682 0.0
C465 C 0.81836 0.72058 0.49863 0.0
C466 C 0.68451 0.67605 0.57664 0.0
C467 C 0.65196 0.65451 0.56162 0.0
C468 C 0.71663 0.6888 0.55751 0.0
C469 C 0.71739 0.68008 0.52278 0.0
C470 C 0.68484 0.65777 0.50798 0.0
C471 C 0.65252 0.64528 0.52712 0.0
H472 H 0.32398 0.42762 0.24966 0.0
H473 H 0.38388 0.48264 0.16452 0.0
H474 H 0.27064 0.44209 0.23351 0.0
H475 H 0.33133 0.49913 0.14975 0.0
H476 H 0.21781 0.49037 0.1104 0.0
H477 H 0.27181 0.47645 0.12628 0.0
H478 H 0.24694 0.48761 0.23214 0.0
H479 H 0.19236 0.50049 0.21607 0.0
C480 C 0.32585 0.44285 0.2275 0.0
C481 C 0.3583 0.45376 0.20831 0.0
C482 C 0.29535 0.45163 0.21853 0.0
C483 C 0.29656 0.47186 0.19031 0.0
C484 C 0.32915 0.48312 0.17136 0.0
C485 C 0.35956 0.47407 0.18015 0.0
C486 C 0.22409 0.49004 0.13705 0.0
C487 C 0.20085 0.49641 0.162 0.0
C488 C 0.25511 0.48217 0.1462 0.0
C489 C 0.26384 0.48084 0.18054 0.0
C490 C 0.24076 0.48772 0.20547 0.0
C491 C 0.20954 0.49523 0.19629 0.0
H492 H 0.70079 0.36239 1.01471 0.0
H493 H 0.63452 0.33114 0.92419 0.0
H494 H 0.67134 0.3063 0.03786 0.0
H495 H 0.60356 0.27569 0.94878 0.0
H496 H 0.52766 0.2041 1.02989 0.0
H497 H 0.5614 0.25744 1.0028 0.0
H498 H 0.66324 0.24068 1.02364 0.0
H499 H 0.62916 0.18626 0.04998 0.0
C500 C 0.68045 0.34363 0.99931 0.0
C501 C 0.6705 0.35184 0.96715 0.0
C502 C 0.66335 0.31138 1.01289 0.0
C503 C 0.63515 0.28653 0.9952 0.0
C504 C 0.6251 0.29441 0.96314 0.0
C505 C 0.64275 0.32643 0.94916 0.0
C506 C 0.55726 0.21161 1.02861 0.0
C507 C 0.57573 0.19089 0.04216 0.0
C508 C 0.57655 0.24214 1.0129 0.0
C509 C 0.61496 0.25325 1.01093 0.0
C510 C 0.63362 0.23278 1.02481 0.0
C511 C 0.61416 0.20168 0.03988 0.0
H512 H 0.87291 0.84322 0.49393 0.0
H513 H 0.97005 0.85155 0.43464 0.0
H514 H 0.90415 0.89836 0.52097 0.0
H515 H 1.00021 0.90813 0.46046 0.0
H516 H 1.01567 1.02505 0.48837 0.0
H517 H 0.98779 0.96825 0.46184 0.0
H518 H 0.96264 0.92485 0.56065 0.0
H519 H 0.99139 0.98144 0.58728 0.0
C520 C 0.90104 0.85631 0.4868 0.0
C521 C 0.91883 0.842 0.46213 0.0
C522 C 0.91884 0.88831 0.50224 0.0
C523 C 0.95468 0.90761 0.49297 0.0
C524 C 0.97248 0.89391 0.46803 0.0
C525 C 0.95498 0.86144 0.45308 0.0
C526 C 1.00423 1.0034 0.50446 0.0
C527 C 1.00564 1.0079 0.53999 0.0
C528 C 0.98849 0.97084 0.48924 0.0
C529 C 0.97301 0.94205 0.50913 0.0
C530 C 0.97423 0.94654 0.54463 0.0
C531 C 0.99075 0.97897 0.55987 0.0
H532 H 0.36227 0.89176 0.68181 0.0
H533 H 0.27775 0.79402 0.6668 0.0
H534 H 0.40729 0.86874 0.65653 0.0
H535 H 0.32291 0.7706 0.64207 0.0
H536 H 0.41345 0.73949 0.5918 0.0
H537 H 0.36952 0.77025 0.59809 0.0
H538 H 0.43175 0.82837 0.68293 0.0
H539 H 0.47482 0.7976 0.6772 0.0
C540 C 0.35328 0.86551 0.67239 0.0
C541 C 0.31682 0.84443 0.67665 0.0
C542 C 0.37899 0.85233 0.65804 0.0
C543 C 0.36876 0.81771 0.64797 0.0
C544 C 0.33158 0.79741 0.64948 0.0
C545 C 0.30574 0.81073 0.66368 0.0
C546 C 0.4178 0.759 0.61165 0.0
C547 C 0.44765 0.766 0.63404 0.0
C548 C 0.39275 0.77666 0.61513 0.0
C549 C 0.39727 0.80181 0.64088 0.0
C550 C 0.42788 0.80967 0.66234 0.0
C551 C 0.45267 0.79196 0.65903 0.0
H552 H 0.75853 0.86545 0.83301 0.0
H553 H 0.84165 0.89573 0.91069 0.0
H554 H 0.80272 0.89883 0.79183 0.0
H555 H 0.88545 0.92993 0.87021 0.0
H556 H 0.96613 0.9527 0.78443 0.0
H557 H 0.91948 0.91993 0.82313 0.0
H558 H 0.83917 0.95486 0.77476 0.0
H559 H 0.88546 0.98596 0.73447 0.0
C560 C 0.78608 0.87984 0.84134 0.0
C561 C 0.79691 0.8779 0.87481 0.0
C562 C 0.81138 0.89895 0.81784 0.0
C563 C 0.84783 0.91665 0.82758 0.0
C564 C 0.85795 0.91586 0.86158 0.0
C565 C 0.83284 0.89654 0.88486 0.0
C566 C 0.93841 0.95291 0.78154 0.0
C567 C 0.92965 0.97207 0.7563 0.0
C568 C 0.91172 0.93455 0.80416 0.0
C569 C 0.87564 0.93515 0.80242 0.0
C570 C 0.86664 0.95374 0.77678 0.0
C571 C 0.89332 0.97191 0.75392 0.0
H572 H 0.67806 0.15378 0.44872 0.0
H573 H 0.79022 0.21572 0.4301 0.0
H574 H 0.66491 0.15219 0.38832 0.0
H575 H 0.77701 0.21498 0.36973 0.0
H576 H 0.75089 0.17211 0.26118 0.0
H577 H 0.76438 0.17703 0.32156 0.0
H578 H 0.65781 0.18545 0.34268 0.0
H579 H 0.64343 0.17831 0.28258 0.0
C580 C 0.69974 0.16748 0.4317 0.0
C581 C 0.73516 0.18477 0.44404 0.0
C582 C 0.69223 0.16668 0.39709 0.0
C583 C 0.71991 0.18344 0.37406 0.0
C584 C 0.7552 0.20128 0.3866 0.0
C585 C 0.76277 0.20181 0.42118 0.0
C586 C 0.73023 0.17476 0.27871 0.0
C587 C 0.69601 0.17464 0.26692 0.0
C588 C 0.73815 0.17805 0.31336 0.0
C589 C 0.71215 0.18156 0.33708 0.0
C590 C 0.67829 0.18228 0.32522 0.0
C591 C 0.67026 0.17872 0.29062 0.0
H592 H 0.48187 0.76936 0.3947 0.0
H593 H 0.43634 0.67051 0.34551 0.0
H594 H 0.49203 0.74244 0.44629 0.0
H595 H 0.44563 0.64324 0.39709 0.0
H596 H 0.52034 0.61296 0.47077 0.0
H597 H 0.49835 0.63786 0.42416 0.0
H598 H 0.46978 0.70651 0.49465 0.0
H599 H 0.49241 0.68175 0.54154 0.0
C600 C 0.47251 0.74176 0.39549 0.0
C601 C 0.45755 0.72202 0.3663 0.0
C602 C 0.47857 0.72623 0.42502 0.0
C603 C 0.47019 0.69052 0.42597 0.0
C604 C 0.45312 0.67078 0.3973 0.0
C605 C 0.4471 0.68633 0.36785 0.0
C606 C 0.50918 0.63322 0.47651 0.0
C607 C 0.50834 0.64527 0.51012 0.0
C608 C 0.49621 0.64741 0.44965 0.0
C609 C 0.48196 0.67425 0.45535 0.0
C610 C 0.48074 0.68611 0.48906 0.0
C611 C 0.49361 0.67175 0.51605 0.0
H612 H 0.1236 0.47322 0.87346 0.0
H613 H 0.23168 0.52686 0.91225 0.0
H614 H 0.09788 0.5062 0.91292 0.0
H615 H 0.2064 0.55972 0.95171 0.0
H616 H 0.15259 0.63147 1.00279 0.0
H617 H 0.17706 0.60266 0.95856 0.0
H618 H 0.08722 0.5094 0.97419 0.0
H619 H 0.06257 0.53852 1.01829 0.0
C620 C 0.14197 0.49285 0.88968 0.0
C621 C 0.17976 0.498 0.88921 0.0
C622 C 0.12721 0.51137 0.91276 0.0
C623 C 0.14992 0.53562 0.93588 0.0
C624 C 0.18796 0.54166 0.93421 0.0
C625 C 0.20257 0.52295 0.91143 0.0
C626 C 0.13807 0.60478 0.99685 0.0
C627 C 0.10564 0.58733 1.01422 0.0
C628 C 0.15218 0.58818 0.97147 0.0
C629 C 0.13418 0.55358 0.96248 0.0
C630 C 0.10164 0.53613 0.97992 0.0
C631 C 0.08765 0.55273 1.00551 0.0
H632 H 0.58604 0.89305 0.91996 0.0
H633 H 0.67123 0.91493 0.99543 0.0
H634 H 0.57343 0.94493 0.93731 0.0
H635 H 0.65792 0.96609 1.0138 0.0
H636 H 0.64147 0.06688 1.03061 0.0
H637 H 0.65952 1.02191 1.00234 0.0
H638 H 0.54557 0.96459 0.98272 0.0
H639 H 0.52782 1.00996 1.0096 0.0
C640 C 0.60204 0.90902 0.94029 0.0
C641 C 0.62948 0.8999 0.95646 0.0
C642 C 0.59477 0.9387 0.95036 0.0
C643 C 0.61441 0.95973 0.9772 0.0
C644 C 0.64257 0.95096 0.9927 0.0
C645 C 0.65014 0.92151 0.98231 0.0
C646 C 0.62035 0.04493 1.01971 0.0
C647 C 0.58319 0.042 1.02252 0.0
C648 C 0.63067 1.01897 1.00373 0.0
C649 C 0.60404 0.98929 0.99051 0.0
C650 C 0.56698 0.98715 0.99212 0.0
C651 C 0.55672 1.01323 1.00774 0.0
H652 H 0.85167 0.19731 0.49651 0.0
H653 H 0.78859 0.13578 0.57665 0.0
H654 H 0.90544 0.18353 0.5139 0.0
H655 H 0.84246 0.12266 0.5943 0.0
H656 H 0.97884 0.11687 0.53511 0.0
H657 H 0.9264 0.13223 0.51613 0.0
H658 H 0.90347 0.15436 0.61995 0.0
H659 H 0.95563 0.13894 0.63882 0.0
C660 C 0.84919 0.18068 0.51766 0.0
C661 C 0.81586 0.16774 0.53527 0.0
C662 C 0.87999 0.17288 0.52763 0.0
C663 C 0.87813 0.15219 0.55554 0.0
C664 C 0.84482 0.13914 0.57303 0.0
C665 C 0.81401 0.14673 0.56296 0.0
C666 C 0.9626 0.12515 0.55376 0.0
C667 C 0.97097 0.12652 0.58839 0.0
C668 C 0.93277 0.13407 0.54293 0.0
C669 C 0.91077 0.14424 0.56662 0.0
C670 C 0.91966 0.14614 0.6012 0.0
C671 C 0.94957 0.13748 0.61197 0.0
H672 H 0.3073 0.7966 0.21662 0.0
H673 H 0.33738 0.70556 0.22172 0.0
H674 H 0.25133 0.76453 0.18823 0.0
H675 H 0.27872 0.67224 0.19678 0.0
H676 H 0.18527 0.62482 0.12088 0.0
H677 H 0.24279 0.65563 0.14984 0.0
H678 H 0.19417 0.72889 0.18998 0.0
H679 H 0.13857 0.69974 0.15868 0.0
C680 C 0.302 0.76959 0.21195 0.0
C681 C 0.32781 0.75416 0.22113 0.0
C682 C 0.269 0.75073 0.19614 0.0
C683 C 0.25959 0.71527 0.18989 0.0
C684 C 0.28477 0.69948 0.20028 0.0
C685 C 0.31843 0.71863 0.21537 0.0
C686 C 0.18725 0.64775 0.1357 0.0
C687 C 0.15763 0.66021 0.13696 0.0
C688 C 0.2202 0.66537 0.15272 0.0
C689 C 0.22404 0.69541 0.17234 0.0
C690 C 0.19352 0.70686 0.17436 0.0
C691 C 0.1612 0.6899 0.15653 0.0
H692 H 0.2639 0.48269 0.67101 0.0
H693 H 0.32859 0.48361 0.7595 0.0
H694 H 0.31917 0.51377 0.64016 0.0
H695 H 0.38443 0.51343 0.72833 0.0
H696 H 0.48013 0.584 0.66874 0.0
H697 H 0.42381 0.56203 0.70198 0.0
H698 H 0.36859 0.50415 0.61382 0.0
H699 H 0.42405 0.52736 0.5807 0.0
C700 C 0.29005 0.48974 0.68392 0.0
C701 C 0.29181 0.48062 0.7177 0.0
C702 C 0.32195 0.50731 0.66612 0.0
C703 C 0.3568 0.5158 0.6813 0.0
C704 C 0.35834 0.50778 0.71563 0.0
C705 C 0.32625 0.49059 0.73362 0.0
C706 C 0.45574 0.56692 0.65647 0.0
C707 C 0.4566 0.55754 0.62202 0.0
C708 C 0.42342 0.55401 0.67561 0.0
C709 C 0.39116 0.53115 0.66085 0.0
C710 C 0.39228 0.52216 0.62622 0.0
C711 C 0.42436 0.53529 0.60713 0.0
H712 H 0.79023 0.76275 0.90871 0.0
H713 H 0.76667 0.80066 1.00611 0.0
H714 H 0.82652 0.73293 0.9361 0.0
H715 H 0.80286 0.77045 1.03386 0.0
H716 H 0.92103 0.76605 0.05293 0.0
H717 H 0.87017 0.78273 1.03354 0.0
H718 H 0.82878 0.68828 0.97507 0.0
H719 H 0.87955 0.67118 0.99494 0.0
C720 C 0.79207 0.76387 0.93612 0.0
C721 C 0.77595 0.78412 0.95534 0.0
C722 C 0.81269 0.74668 0.95185 0.0
C723 C 0.81786 0.74961 0.98714 0.0
C724 C 0.79968 0.76806 1.00658 0.0
C725 C 0.77872 0.78505 0.9908 0.0
C726 C 0.90065 0.74838 1.03664 0.0
C727 C 0.90462 0.71736 1.02532 0.0
C728 C 0.87139 0.75796 1.02555 0.0
C729 C 0.84545 0.73685 1.00273 0.0
C730 C 0.84856 0.70524 0.99238 0.0
C731 C 0.87776 0.69556 1.00362 0.0
H732 H 0.44278 0.8912 0.26996 0.0
H733 H 0.42694 0.84781 0.16848 0.0
H734 H 0.468 0.94832 0.24733 0.0
H735 H 0.45424 0.90438 0.1455 0.0
H736 H 0.47842 1.01141 0.10877 0.0
H737 H 0.44884 0.95562 0.13295 0.0
H738 H 0.51594 0.9885 0.2228 0.0
H739 H 0.54323 0.04474 0.19938 0.0
C740 C 0.4452 0.89394 0.24275 0.0
C741 C 0.43275 0.86503 0.22103 0.0
C742 C 0.45992 0.92677 0.22961 0.0
C743 C 0.46343 0.93163 0.19428 0.0
C744 C 0.45137 0.90233 0.17271 0.0
C745 C 0.43595 0.86965 0.18588 0.0
C746 C 0.48638 1.00674 0.13389 0.0
C747 C 0.51304 1.0326 0.15217 0.0
C748 C 0.46975 0.97447 0.14773 0.0
C749 C 0.47991 0.9668 0.18002 0.0
C750 C 0.50654 0.99305 0.19827 0.0
C751 C 0.52253 1.02549 0.18469 0.0
H752 H 0.17929 0.33963 0.76306 0.0
H753 H 0.19317 0.38785 0.6661 0.0
H754 H 0.15099 0.28433 0.73512 0.0
H755 H 0.16761 0.33234 0.63793 0.0
H756 H 0.0915 0.23037 0.59652 0.0
H757 H 0.11619 0.28607 0.62494 0.0
H758 H 0.16226 0.24141 0.70272 0.0
H759 H 0.13593 0.18549 0.67502 0.0
C760 C 0.17621 0.33864 0.73579 0.0
C761 C 0.18876 0.36869 0.71707 0.0
C762 C 0.16049 0.30657 0.71956 0.0
C763 C 0.1571 0.30329 0.68397 0.0
C764 C 0.16919 0.33342 0.66532 0.0
C765 C 0.18449 0.3655 0.68157 0.0
C766 C 0.10698 0.23244 0.61963 0.0
C767 C 0.11166 0.2033 0.63337 0.0
C768 C 0.12142 0.26459 0.636 0.0
C769 C 0.14144 0.26876 0.66644 0.0
C770 C 0.14646 0.23951 0.67985 0.0
C771 C 0.13159 0.2073 0.66371 0.0
H772 H 0.63625 0.24854 0.53333 0.0
H773 H 0.67449 0.28541 0.63417 0.0
H774 H 0.61711 0.29817 0.52582 0.0
H775 H 0.6565 0.33572 0.62645 0.0
H776 H 0.59166 0.40773 0.61288 0.0
H777 H 0.60587 0.35566 0.62135 0.0
H778 H 0.64305 0.35749 0.51755 0.0
H779 H 0.62657 0.40807 0.50847 0.0
C780 C 0.64069 0.26742 0.55381 0.0
C781 C 0.65688 0.26323 0.58428 0.0
C782 C 0.62991 0.29594 0.5495 0.0
C783 C 0.63548 0.32113 0.57544 0.0
C784 C 0.65129 0.31663 0.60612 0.0
C785 C 0.6617 0.28788 0.61054 0.0
C786 C 0.60233 0.39672 0.59171 0.0
C787 C 0.60795 0.41215 0.55998 0.0
C788 C 0.61096 0.3671 0.59671 0.0
C789 C 0.62565 0.35232 0.57015 0.0
C790 C 0.63129 0.36781 0.53846 0.0
C791 C 0.62237 0.39721 0.53339 0.0
loop_
_geom_bond_atom_site_label_1
_geom_bond_atom_site_label_2
_geom_bond_distance
_geom_bond_site_symmetry_2
_ccdc_geom_bond_type
H0 C1 0.949 . S
C1 H0 0.949 . S
C1 C2 1.395 . S
C1 C3 1.391 . S
C2 C1 1.395 . S
C2 C5 1.390 . S
C3 C1 1.391 . S
C3 C7 1.387 . S
C3 C8 1.491 . S
H4 C5 0.950 . S
C5 C2 1.390 . S
C5 H4 0.950 . S
C5 C6 1.378 . S
C6 C5 1.378 . S
C6 C7 1.409 . S
C7 C3 1.387 . S
C7 C6 1.409 . S
C7 H9 0.951 . S
C8 C3 1.491 . S
C8 C10 1.382 . S
C8 C12 1.404 . S
H9 C7 0.951 . S
C10 C8 1.382 . S
C10 C11 1.390 . S
C10 H15 0.949 . S
C11 C10 1.390 . S
C11 C16 1.399 . S
C12 C8 1.404 . S
C12 H13 0.950 . S
C12 C14 1.375 . S
H13 C12 0.950 . S
C14 C12 1.375 . S
C14 C16 1.382 . S
C14 H18 0.950 . S
H15 C10 0.949 . S
C16 C11 1.399 . S
C16 C14 1.382 . S
C16 H17 0.952 . S
H17 C16 0.952 . S
H18 C14 0.950 . S
H19 C20 0.949 . S
C20 H19 0.949 . S
C20 C21 1.395 . S
C20 C22 1.391 . S
C21 C20 1.395 . S
C21 C24 1.390 . S
C22 C20 1.391 . S
C22 C26 1.387 . S
C22 C27 1.491 . S
H23 C24 0.950 . S
C24 C21 1.390 . S
C24 H23 0.950 . S
C24 C25 1.378 . S
C25 C24 1.378 . S
C25 C26 1.409 . S
C26 C22 1.387 . S
C26 C25 1.409 . S
C26 H28 0.951 . S
C27 C22 1.491 . S
C27 C29 1.382 . S
C27 C31 1.404 . S
H28 C26 0.951 . S
C29 C27 1.382 . S
C29 C30 1.390 . S
C29 H34 0.949 . S
C30 C29 1.390 . S
C30 C35 1.399 . S
C31 C27 1.404 . S
C31 H32 0.950 . S
C31 C33 1.375 . S
H32 C31 0.950 . S
C33 C31 1.375 . S
C33 C35 1.382 . S
C33 H37 0.950 . S
H34 C29 0.949 . S
C35 C30 1.399 . S
C35 C33 1.382 . S
C35 H36 0.952 . S
H36 C35 0.952 . S
H37 C33 0.950 . S
H38 C39 0.949 . S
C39 H38 0.949 . S
C39 C40 1.395 . S
C39 C41 1.391 . S
C40 C39 1.395 . S
C40 C43 1.390 . S
C41 C39 1.391 . S
C41 C45 1.387 . S
C41 C46 1.491 . S
H42 C43 0.950 . S
C43 C40 1.390 . S
C43 H42 0.950 . S
C43 C44 1.378 . S
C44 C43 1.378 . S
C44 C45 1.409 . S
C45 C41 1.387 . S
C45 C44 1.409 . S
C45 H47 0.951 . S
C46 C41 1.491 . S
C46 C48 1.382 . S
C46 C50 1.404 . S
H47 C45 0.951 . S
C48 C46 1.382 . S
C48 C49 1.390 . S
C48 H53 0.949 . S
C49 C48 1.390 . S
C49 C54 1.399 . S
C50 C46 1.404 . S
C50 H51 0.950 . S
C50 C52 1.375 . S
H51 C50 0.950 . S
C52 C50 1.375 . S
C52 C54 1.382 . S
C52 H56 0.950 . S
H53 C48 0.949 . S
C54 C49 1.399 . S
C54 C52 1.382 . S
C54 H55 0.952 . S
H55 C54 0.952 . S
H56 C52 0.950 . S
H57 C58 0.949 . S
C58 H57 0.949 . S
C58 C59 1.395 . S
C58 C60 1.391 . S
C59 C58 1.395 . S
C59 C62 1.390 . S
C60 C58 1.391 . S
C60 C64 1.387 . S
C60 C65 1.491 . S
H61 C62 0.950 . S
C62 C59 1.390 . S
C62 H61 0.950 . S
C62 C63 1.378 . S
C63 C62 1.378 . S
C63 C64 1.409 . S
C64 C60 1.387 . S
C64 C63 1.409 . S
C64 H66 0.951 . S
C65 C60 1.491 . S
C65 C67 1.382 . S
C65 C69 1.404 . S
H66 C64 0.951 . S
C67 C65 1.382 . S
C67 C68 1.390 . S
C67 H72 0.949 . S
C68 C67 1.390 . S
C68 C73 1.399 . S
C69 C65 1.404 . S
C69 H70 0.950 . S
C69 C71 1.375 . S
H70 C69 0.950 . S
C71 C69 1.375 . S
C71 C73 1.382 . S
C71 H75 0.950 . S
H72 C67 0.949 . S
C73 C68 1.399 . S
C73 C71 1.382 . S
C73 H74 0.952 . S
H74 C73 0.952 . S
H75 C71 0.950 . S
H76 C77 0.949 . S
C77 H76 0.949 . S
C77 C78 1.395 . S
C77 C79 1.391 . S
C78 C77 1.395 . S
C78 C81 1.390 . S
C79 C77 1.391 . S
C79 C83 1.387 . S
C79 C84 1.491 . S
H80 C81 0.950 . S
C81 C78 1.390 . S
C81 H80 0.950 . S
C81 C82 1.378 . S
C82 C81 1.378 . S
C82 C83 1.409 . S
C83 C79 1.387 . S
C83 C82 1.409 . S
C83 H85 0.951 . S
C84 C79 1.491 . S
C84 C86 1.382 . S
C84 C88 1.404 . S
H85 C83 0.951 . S
C86 C84 1.382 . S
C86 C87 1.390 . S
C86 H91 0.949 . S
C87 C86 1.390 . S
C87 C92 1.399 . S
C88 C84 1.404 . S
C88 H89 0.950 . S
C88 C90 1.375 . S
H89 C88 0.950 . S
C90 C88 1.375 . S
C90 C92 1.382 . S
C90 H94 0.950 . S
H91 C86 0.949 . S
C92 C87 1.399 . S
C92 C90 1.382 . S
C92 H93 0.952 . S
H93 C92 0.952 . S
H94 C90 0.950 . S
H95 C96 0.949 . S
C96 H95 0.949 . S
C96 C97 1.395 . S
C96 C98 1.391 . S
C97 C96 1.395 . S
C97 C100 1.390 . S
C98 C96 1.391 . S
C98 C102 1.387 . S
C98 C103 1.491 . S
H99 C100 0.950 . S
C100 C97 1.390 . S
C100 H99 0.950 . S
C100 C101 1.378 . S
C101 C100 1.378 . S
C101 C102 1.409 . S
C102 C98 1.387 . S
C102 C101 1.409 . S
C102 H104 0.951 . S
C103 C98 1.491 . S
C103 C105 1.382 . S
C103 C107 1.404 . S
H104 C102 0.951 . S
C105 C103 1.382 . S
C105 C106 1.390 . S
C105 H110 0.949 . S
C106 C105 1.390 . S
C106 C111 1.399 . S
C107 C103 1.404 . S
C107 H108 0.950 . S
C107 C109 1.375 . S
H108 C107 0.950 . S
C109 C107 1.375 . S
C109 C111 1.382 . S
C109 H113 0.950 . S
H110 C105 0.949 . S
C111 C106 1.399 . S
C111 C109 1.382 . S
C111 H112 0.952 . S
H112 C111 0.952 . S
H113 C109 0.950 . S
H114 C115 0.949 . S
C115 H114 0.949 . S
C115 C116 1.395 . S
C115 C117 1.391 . S
C116 C115 1.395 . S
C116 C119 1.390 . S
C117 C115 1.391 . S
C117 C121 1.387 . S
C117 C122 1.491 . S
H118 C119 0.950 . S
C119 C116 1.390 . S
C119 H118 0.950 . S
C119 C120 1.378 . S
C120 C119 1.378 . S
C120 C121 1.409 . S
C121 C117 1.387 . S
C121 C120 1.409 . S
C121 H123 0.951 . S
C122 C117 1.491 . S
C122 C124 1.382 . S
C122 C126 1.404 . S
H123 C121 0.951 . S
C124 C122 1.382 . S
C124 C125 1.390 . S
C124 H129 0.949 . S
C125 C124 1.390 . S
C125 C130 1.399 . S
C126 C122 1.404 . S
C126 H127 0.950 . S
C126 C128 1.375 . S
H127 C126 0.950 . S
C128 C126 1.375 . S
C128 C130 1.382 . S
C128 H132 0.950 . S
H129 C124 0.949 . S
C130 C125 1.399 . S
C130 C128 1.382 . S
C130 H131 0.952 . S
H131 C130 0.952 . S
H132 C128 0.950 . S
H133 C134 0.949 . S
C134 H133 0.949 . S
C134 C135 1.395 . S
C134 C136 1.391 . S
C135 C134 1.395 . S
C135 C138 1.390 . S
C136 C134 1.391 . S
C136 C140 1.387 . S
C136 C141 1.491 . S
H137 C138 0.950 . S
C138 C135 1.390 . S
C138 H137 0.950 . S
C138 C139 1.378 . S
C139 C138 1.378 . S
C139 C140 1.409 . S
C140 C136 1.387 . S
C140 C139 1.409 . S
C140 H142 0.951 . S
C141 C136 1.491 . S
C141 C143 1.382 . S
C141 C145 1.404 . S
H142 C140 0.951 . S
C143 C141 1.382 . S
C143 C144 1.390 . S
C143 H148 0.949 . S
C144 C143 1.390 . S
C144 C149 1.399 . S
C145 C141 1.404 . S
C145 H146 0.950 . S
C145 C147 1.375 . S
H146 C145 0.950 . S
C147 C145 1.375 . S
C147 C149 1.382 . S
C147 H151 0.950 . S
H148 C143 0.949 . S
C149 C144 1.399 . S
C149 C147 1.382 . S
C149 H150 0.952 . S
H150 C149 0.952 . S
H151 C147 0.950 . S
La152 C154 2.928 . S
La152 O172 2.521 . S
La152 O173 2.628 . S
La152 O174 2.554 . S
La152 O175 2.757 . S
La152 O176 2.470 . S
La152 O181 2.482 1_455 S
La152 O183 2.504 1_445 S
La153 C163 2.928 1_545 S
La153 O175 2.482 1_655 S
La153 O177 2.503 1_655 S
La153 O178 2.521 1_545 S
La153 O179 2.628 1_545 S
La153 O180 2.554 . S
La153 O181 2.757 . S
La153 O182 2.470 1_545 S
C154 La152 2.928 . S
C154 C155 1.503 . S
C154 O172 1.261 . S
C154 O173 1.243 . S
C155 C154 1.503 . S
C155 C156 1.394 . S
C155 C160 1.373 . S
C156 C155 1.394 . S
C156 C157 1.380 . S
C156 H184 0.930 . S
C157 C156 1.380 . S
C157 C158 1.376 . S
C157 H185 0.930 . S
C158 C157 1.376 . S
C158 C159 1.370 . S
C159 C158 1.370 . S
C159 C160 1.396 . S
C159 H186 0.929 . S
C160 C155 1.373 . S
C160 C159 1.396 . S
C160 H187 0.929 . S
C161 O174 1.240 . S
C161 O175 1.289 . S
C162 O176 1.258 . S
C162 O177 1.256 . S
C163 La153 2.928 1_565 S
C163 C164 1.503 . S
C163 O178 1.261 . S
C163 O179 1.243 . S
C164 C163 1.503 . S
C164 C165 1.394 . S
C164 C169 1.373 . S
C165 C164 1.394 . S
C165 C166 1.380 . S
C165 H188 0.930 . S
C166 C165 1.380 . S
C166 C167 1.376 . S
C166 H189 0.930 . S
C167 C166 1.376 . S
C167 C168 1.370 . S
C168 C167 1.370 . S
C168 C169 1.396 . S
C168 H190 0.929 . S
C169 C164 1.373 . S
C169 C168 1.396 . S
C169 H191 0.929 . S
C170 O180 1.240 . S
C170 O181 1.289 . S
C171 O182 1.258 . S
C171 O183 1.255 . S
O172 La152 2.521 . S
O172 C154 1.261 . S
O173 La152 2.628 . S
O173 C154 1.243 . S
O174 La152 2.554 . S
O174 C161 1.240 . S
O175 La152 2.757 . S
O175 La153 2.482 1_455 S
O175 C161 1.289 . S
O176 La152 2.470 . S
O176 C162 1.258 . S
O177 La153 2.503 1_455 S
O177 C162 1.256 . S
O178 La153 2.521 1_565 S
O178 C163 1.261 . S
O179 La153 2.628 1_565 S
O179 C163 1.243 . S
O180 La153 2.554 . S
O180 C170 1.240 . S
O181 La152 2.482 1_655 S
O181 La153 2.757 . S
O181 C170 1.289 . S
O182 La153 2.470 1_565 S
O182 C171 1.258 . S
O183 La152 2.504 1_665 S
O183 C171 1.255 . S
H184 C156 0.930 . S
H185 C157 0.930 . S
H186 C159 0.929 . S
H187 C160 0.929 . S
H188 C165 0.930 . S
H189 C166 0.930 . S
H190 C168 0.929 . S
H191 C169 0.929 . S
La192 C194 2.928 . S
La192 O212 2.521 . S
La192 O213 2.628 . S
La192 O214 2.554 1_545 S
La192 O215 2.757 1_545 S
La192 O216 2.470 . S
La192 O221 2.482 . S
La192 O223 2.503 . S
La193 C203 2.928 1_544 S
La193 O215 2.482 1_545 S
La193 O217 2.503 . S
La193 O218 2.521 1_554 S
La193 O219 2.628 1_545 S
La193 O220 2.554 . S
La193 O221 2.757 . S
La193 O222 2.470 . S
C194 La192 2.928 . S
C194 C195 1.503 . S
C194 O212 1.261 . S
C194 O213 1.243 . S
C195 C194 1.503 . S
C195 C196 1.394 . S
C195 C200 1.373 . S
C196 C195 1.394 . S
C196 C197 1.380 . S
C196 H224 0.930 . S
C197 C196 1.380 . S
C197 C198 1.376 . S
C197 H225 0.930 . S
C198 C197 1.376 . S
C198 C199 1.370 . S
C199 C198 1.370 . S
C199 C200 1.396 . S
C199 H226 0.929 . S
C200 C195 1.373 . S
C200 C199 1.396 . S
C200 H227 0.929 . S
C201 O214 1.240 . S
C201 O215 1.289 . S
C202 O216 1.258 . S
C202 O217 1.256 . S
C203 La193 2.928 1_566 S
C203 C204 1.503 . S
C203 O218 1.261 1_565 S
C203 O219 1.243 1_556 S
C204 C203 1.503 . S
C204 C205 1.394 . S
C204 C209 1.373 . S
C205 C204 1.394 . S
C205 C206 1.380 . S
C205 H228 0.930 1_565 S
C206 C205 1.380 . S
C206 C207 1.376 . S
C206 H229 0.930 . S
C207 C206 1.376 . S
C207 C208 1.370 . S
C208 C207 1.370 . S
C208 C209 1.396 . S
C208 H230 0.929 . S
C209 C204 1.373 . S
C209 C208 1.396 . S
C209 H231 0.929 . S
C210 O220 1.240 . S
C210 O221 1.289 . S
C211 O222 1.258 1_565 S
C211 O223 1.256 1_565 S
O212 La192 2.521 . S
O212 C194 1.261 . S
O213 La192 2.628 . S
O213 C194 1.243 . S
O214 La192 2.554 1_565 S
O214 C201 1.240 . S
O215 La192 2.757 1_565 S
O215 La193 2.482 1_565 S
O215 C201 1.289 . S
O216 La192 2.470 . S
O216 C202 1.258 . S
O217 La193 2.503 . S
O217 C202 1.256 . S
O218 La193 2.521 1_556 S
O218 C203 1.261 1_545 S
O219 La193 2.628 1_565 S
O219 C203 1.243 1_554 S
O220 La193 2.554 . S
O220 C210 1.240 . S
O221 La192 2.482 . S
O221 La193 2.757 . S
O221 C210 1.289 . S
O222 La193 2.470 . S
O222 C211 1.258 1_545 S
O223 La192 2.503 . S
O223 C211 1.256 1_545 S
H224 C196 0.930 . S
H225 C197 0.930 . S
H226 C199 0.929 . S
H227 C200 0.929 . S
H228 C205 0.930 1_545 S
H229 C206 0.930 . S
H230 C208 0.929 . S
H231 C209 0.929 . S
La232 C234 2.928 . S
La232 O252 2.521 . S
La232 O253 2.628 . S
La232 O254 2.554 . S
La232 O255 2.757 . S
La232 O256 2.470 . S
La232 O261 2.482 . S
La232 O263 2.503 . S
La233 C243 2.928 . S
La233 O255 2.482 . S
La233 O257 2.503 . S
La233 O258 2.521 . S
La233 O259 2.628 . S
La233 O260 2.554 . S
La233 O261 2.757 . S
La233 O262 2.470 . S
C234 La232 2.928 . S
C234 C235 1.503 . S
C234 O252 1.261 . S
C234 O253 1.243 . S
C235 C234 1.503 . S
C235 C236 1.394 . S
C235 C240 1.373 . S
C236 C235 1.394 . S
C236 C237 1.380 . S
C236 H264 0.930 . S
C237 C236 1.380 . S
C237 C238 1.376 . S
C237 H265 0.930 . S
C238 C237 1.376 . S
C238 C239 1.370 . S
C239 C238 1.370 . S
C239 C240 1.396 . S
C239 H266 0.929 . S
C240 C235 1.373 . S
C240 C239 1.396 . S
C240 H267 0.929 . S
C241 O254 1.240 . S
C241 O255 1.289 . S
C242 O256 1.258 . S
C242 O257 1.256 . S
C243 La233 2.928 . S
C243 C244 1.503 . S
C243 O258 1.261 . S
C243 O259 1.243 . S
C244 C243 1.503 . S
C244 C245 1.394 . S
C244 C249 1.373 . S
C245 C244 1.394 . S
C245 C246 1.380 . S
C245 H268 0.930 . S
C246 C245 1.380 . S
C246 C247 1.376 . S
C246 H269 0.930 . S
C247 C246 1.376 . S
C247 C248 1.370 . S
C248 C247 1.370 . S
C248 C249 1.396 . S
C248 H270 0.929 . S
C249 C244 1.373 . S
C249 C248 1.396 . S
C249 H271 0.929 . S
C250 O260 1.240 . S
C250 O261 1.289 . S
C251 O262 1.258 . S
C251 O263 1.256 . S
O252 La232 2.521 . S
O252 C234 1.261 . S
O253 La232 2.628 . S
O253 C234 1.243 . S
O254 La232 2.554 . S
O254 C241 1.240 . S
O255 La232 2.757 . S
O255 La233 2.482 . S
O255 C241 1.289 . S
O256 La232 2.470 . S
O256 C242 1.258 . S
O257 La233 2.503 . S
O257 C242 1.256 . S
O258 La233 2.521 . S
O258 C243 1.261 . S
O259 La233 2.628 . S
O259 C243 1.243 . S
O260 La233 2.554 . S
O260 C250 1.240 . S
O261 La232 2.482 . S
O261 La233 2.757 . S
O261 C250 1.289 . S
O262 La233 2.470 . S
O262 C251 1.258 . S
O263 La232 2.503 . S
O263 C251 1.256 . S
H264 C236 0.930 . S
H265 C237 0.930 . S
H266 C239 0.929 . S
H267 C240 0.929 . S
H268 C245 0.930 . S
H269 C246 0.930 . S
H270 C248 0.929 . S
H271 C249 0.929 . S
La272 C274 2.928 . S
La272 O292 2.521 . S
La272 O293 2.628 . S
La272 O294 2.554 . S
La272 O295 2.757 . S
La272 O296 2.470 . S
La272 O301 2.482 1_554 S
La272 O303 2.503 1_455 S
La273 C283 2.928 1_455 S
La273 O295 2.482 1_556 S
La273 O297 2.503 1_556 S
La273 O298 2.521 . S
La273 O299 2.628 1_455 S
La273 O300 2.554 . S
La273 O301 2.757 . S
La273 O302 2.470 1_455 S
C274 La272 2.928 . S
C274 C275 1.503 . S
C274 O292 1.261 . S
C274 O293 1.243 . S
C275 C274 1.503 . S
C275 C276 1.394 . S
C275 C280 1.373 . S
C276 C275 1.394 . S
C276 C277 1.380 . S
C276 H304 0.930 . S
C277 C276 1.380 . S
C277 C278 1.376 . S
C277 H305 0.930 . S
C278 C277 1.376 . S
C278 C279 1.370 . S
C279 C278 1.370 . S
C279 C280 1.396 . S
C279 H306 0.929 . S
C280 C275 1.373 . S
C280 C279 1.396 . S
C280 H307 0.929 . S
C281 O294 1.240 . S
C281 O295 1.289 . S
C282 O296 1.258 . S
C282 O297 1.256 . S
C283 La273 2.928 1_655 S
C283 C284 1.503 . S
C283 O298 1.261 1_655 S
C283 O299 1.243 . S
C284 C283 1.503 . S
C284 C285 1.394 . S
C284 C289 1.373 . S
C285 C284 1.394 . S
C285 C286 1.380 . S
C285 H308 0.930 . S
C286 C285 1.380 . S
C286 C287 1.376 . S
C286 H309 0.930 . S
C287 C286 1.376 . S
C287 C288 1.370 . S
C288 C287 1.370 . S
C288 C289 1.396 . S
C288 H310 0.929 . S
C289 C284 1.373 . S
C289 C288 1.396 . S
C289 H311 0.929 . S
C290 O300 1.240 . S
C290 O301 1.289 . S
C291 O302 1.258 . S
C291 O303 1.256 1_556 S
O292 La272 2.521 . S
O292 C274 1.261 . S
O293 La272 2.628 . S
O293 C274 1.243 . S
O294 La272 2.554 . S
O294 C281 1.240 . S
O295 La272 2.757 . S
O295 La273 2.482 1_554 S
O295 C281 1.289 . S
O296 La272 2.470 . S
O296 C282 1.258 . S
O297 La273 2.503 1_554 S
O297 C282 1.256 . S
O298 La273 2.521 . S
O298 C283 1.261 1_455 S
O299 La273 2.628 1_655 S
O299 C283 1.243 . S
O300 La273 2.554 . S
O300 C290 1.240 . S
O301 La272 2.482 1_556 S
O301 La273 2.757 . S
O301 C290 1.289 . S
O302 La273 2.470 1_655 S
O302 C291 1.258 . S
O303 La272 2.503 1_655 S
O303 C291 1.256 1_554 S
H304 C276 0.930 . S
H305 C277 0.930 . S
H306 C279 0.929 . S
H307 C280 0.929 . S
H308 C285 0.930 . S
H309 C286 0.930 . S
H310 C288 0.929 . S
H311 C289 0.929 . S
H312 C320 0.950 . S
H313 C325 0.950 . S
H314 C322 0.950 . S
H315 C324 0.950 . S
H316 C326 0.950 . S
H317 C328 0.950 . S
H318 C330 0.950 . S
H319 C331 0.950 . S
C320 H312 0.950 . S
C320 C321 1.386 . S
C320 C322 1.391 . S
C321 C320 1.386 . S
C321 C325 1.393 . S
C322 H314 0.950 . S
C322 C320 1.391 . S
C322 C323 1.400 . S
C323 C322 1.400 . S
C323 C324 1.398 . S
C323 C329 1.491 . S
C324 H315 0.950 . S
C324 C323 1.398 . S
C324 C325 1.391 . S
C325 H313 0.950 . S
C325 C321 1.393 . S
C325 C324 1.391 . S
C326 H316 0.950 . S
C326 C327 1.386 . S
C326 C328 1.391 . S
C327 C326 1.386 . S
C327 C331 1.393 . S
C328 H317 0.950 . S
C328 C326 1.391 . S
C328 C329 1.400 . S
C329 C323 1.491 . S
C329 C328 1.400 . S
C329 C330 1.398 . S
C330 H318 0.950 . S
C330 C329 1.398 . S
C330 C331 1.391 . S
C331 H319 0.950 . S
C331 C327 1.393 . S
C331 C330 1.391 . S
H332 C340 0.950 . S
H333 C345 0.950 . S
H334 C342 0.950 . S
H335 C344 0.950 . S
H336 C346 0.950 . S
H337 C348 0.950 . S
H338 C350 0.950 . S
H339 C351 0.950 . S
C340 H332 0.950 . S
C340 C341 1.386 . S
C340 C342 1.391 . S
C341 C340 1.386 . S
C341 C345 1.393 . S
C342 H334 0.950 . S
C342 C340 1.391 . S
C342 C343 1.400 . S
C343 C342 1.400 . S
C343 C344 1.398 . S
C343 C349 1.491 . S
C344 H335 0.950 . S
C344 C343 1.398 . S
C344 C345 1.391 . S
C345 H333 0.950 . S
C345 C341 1.393 . S
C345 C344 1.391 . S
C346 H336 0.950 . S
C346 C347 1.386 . S
C346 C348 1.391 . S
C347 C346 1.386 . S
C347 C351 1.393 . S
C348 H337 0.950 . S
C348 C346 1.391 . S
C348 C349 1.400 . S
C349 C343 1.491 . S
C349 C348 1.400 . S
C349 C350 1.398 . S
C350 H338 0.950 . S
C350 C349 1.398 . S
C350 C351 1.391 . S
C351 H339 0.950 . S
C351 C347 1.393 . S
C351 C350 1.391 . S
H352 C360 0.950 . S
H353 C365 0.950 . S
H354 C362 0.950 . S
H355 C364 0.950 . S
H356 C366 0.950 . S
H357 C368 0.950 . S
H358 C370 0.950 . S
H359 C371 0.950 . S
C360 H352 0.950 . S
C360 C361 1.386 . S
C360 C362 1.391 . S
C361 C360 1.386 . S
C361 C365 1.393 . S
C362 H354 0.950 . S
C362 C360 1.391 . S
C362 C363 1.400 . S
C363 C362 1.400 . S
C363 C364 1.398 . S
C363 C369 1.491 . S
C364 H355 0.950 . S
C364 C363 1.398 . S
C364 C365 1.391 . S
C365 H353 0.950 . S
C365 C361 1.393 . S
C365 C364 1.391 . S
C366 H356 0.950 . S
C366 C367 1.386 . S
C366 C368 1.391 . S
C367 C366 1.386 . S
C367 C371 1.393 . S
C368 H357 0.950 . S
C368 C366 1.391 . S
C368 C369 1.400 . S
C369 C363 1.491 . S
C369 C368 1.400 . S
C369 C370 1.398 . S
C370 H358 0.950 . S
C370 C369 1.398 . S
C370 C371 1.391 . S
C371 H359 0.950 . S
C371 C367 1.393 . S
C371 C370 1.391 . S
H372 C380 0.950 . S
H373 C385 0.950 . S
H374 C382 0.950 . S
H375 C384 0.950 . S
H376 C386 0.950 . S
H377 C388 0.950 . S
H378 C390 0.950 . S
H379 C391 0.950 . S
C380 H372 0.950 . S
C380 C381 1.386 . S
C380 C382 1.391 . S
C381 C380 1.386 . S
C381 C385 1.393 . S
C382 H374 0.950 . S
C382 C380 1.391 . S
C382 C383 1.400 . S
C383 C382 1.400 . S
C383 C384 1.398 . S
C383 C389 1.491 . S
C384 H375 0.950 . S
C384 C383 1.398 . S
C384 C385 1.391 . S
C385 H373 0.950 . S
C385 C381 1.393 . S
C385 C384 1.391 . S
C386 H376 0.950 . S
C386 C387 1.386 . S
C386 C388 1.391 . S
C387 C386 1.386 . S
C387 C391 1.393 . S
C388 H377 0.950 . S
C388 C386 1.391 . S
C388 C389 1.400 . S
C389 C383 1.491 . S
C389 C388 1.400 . S
C389 C390 1.398 . S
C390 H378 0.950 . S
C390 C389 1.398 . S
C390 C391 1.391 . S
C391 H379 0.950 . S
C391 C387 1.393 . S
C391 C390 1.391 . S
H392 C400 0.950 . S
H393 C405 0.950 . S
H394 C402 0.950 . S
H395 C404 0.950 . S
H396 C406 0.950 . S
H397 C408 0.950 . S
H398 C410 0.950 . S
H399 C411 0.950 . S
C400 H392 0.950 . S
C400 C401 1.386 . S
C400 C402 1.391 . S
C401 C400 1.386 . S
C401 C405 1.393 . S
C402 H394 0.950 . S
C402 C400 1.391 . S
C402 C403 1.400 . S
C403 C402 1.400 . S
C403 C404 1.398 . S
C403 C409 1.491 . S
C404 H395 0.950 . S
C404 C403 1.398 . S
C404 C405 1.391 . S
C405 H393 0.950 . S
C405 C401 1.393 . S
C405 C404 1.391 . S
C406 H396 0.950 . S
C406 C407 1.386 . S
C406 C408 1.391 . S
C407 C406 1.386 . S
C407 C411 1.393 . S
C408 H397 0.950 . S
C408 C406 1.391 . S
C408 C409 1.400 . S
C409 C403 1.491 . S
C409 C408 1.400 . S
C409 C410 1.398 . S
C410 H398 0.950 . S
C410 C409 1.398 . S
C410 C411 1.391 . S
C411 H399 0.950 . S
C411 C407 1.393 . S
C411 C410 1.391 . S
H412 C420 0.950 . S
H413 C425 0.950 . S
H414 C422 0.950 . S
H415 C424 0.950 . S
H416 C426 0.950 . S
H417 C428 0.950 . S
H418 C430 0.950 . S
H419 C431 0.950 . S
C420 H412 0.950 . S
C420 C421 1.386 . S
C420 C422 1.391 . S
C421 C420 1.386 . S
C421 C425 1.393 . S
C422 H414 0.950 . S
C422 C420 1.391 . S
C422 C423 1.400 . S
C423 C422 1.400 . S
C423 C424 1.398 . S
C423 C429 1.491 . S
C424 H415 0.950 . S
C424 C423 1.398 . S
C424 C425 1.391 . S
C425 H413 0.950 . S
C425 C421 1.393 . S
C425 C424 1.391 . S
C426 H416 0.950 . S
C426 C427 1.386 . S
C426 C428 1.391 1_545 S
C427 C426 1.386 . S
C427 C431 1.393 1_545 S
C428 H417 0.950 . S
C428 C426 1.391 1_565 S
C428 C429 1.400 . S
C429 C423 1.491 . S
C429 C428 1.400 . S
C429 C430 1.398 . S
C430 H418 0.950 . S
C430 C429 1.398 . S
C430 C431 1.391 . S
C431 H419 0.950 . S
C431 C427 1.393 1_565 S
C431 C430 1.391 . S
H432 C440 0.950 . S
H433 C445 0.950 . S
H434 C442 0.950 . S
H435 C444 0.950 . S
H436 C446 0.950 1_554 S
H437 C448 0.950 . S
H438 C450 0.950 . S
H439 C451 0.950 . S
C440 H432 0.950 . S
C440 C441 1.386 . S
C440 C442 1.391 . S
C441 C440 1.386 . S
C441 C445 1.393 . S
C442 H434 0.950 . S
C442 C440 1.391 . S
C442 C443 1.400 . S
C443 C442 1.400 . S
C443 C444 1.398 . S
C443 C449 1.491 . S
C444 H435 0.950 . S
C444 C443 1.398 . S
C444 C445 1.391 . S
C445 H433 0.950 . S
C445 C441 1.393 . S
C445 C444 1.391 . S
C446 H436 0.950 1_556 S
C446 C447 1.386 . S
C446 C448 1.391 . S
C447 C446 1.386 . S
C447 C451 1.393 . S
C448 H437 0.950 . S
C448 C446 1.391 . S
C448 C449 1.400 . S
C449 C443 1.491 . S
C449 C448 1.400 . S
C449 C450 1.398 . S
C450 H438 0.950 . S
C450 C449 1.398 . S
C450 C451 1.391 . S
C451 H439 0.950 . S
C451 C447 1.393 . S
C451 C450 1.391 . S
H452 C460 0.950 . S
H453 C465 0.950 . S
H454 C462 0.950 . S
H455 C464 0.950 . S
H456 C466 0.950 . S
H457 C468 0.950 . S
H458 C470 0.950 . S
H459 C471 0.950 . S
C460 H452 0.950 . S
C460 C461 1.386 . S
C460 C462 1.391 . S
C461 C460 1.386 . S
C461 C465 1.393 . S
C462 H454 0.950 . S
C462 C460 1.391 . S
C462 C463 1.400 . S
C463 C462 1.400 . S
C463 C464 1.398 . S
C463 C469 1.491 . S
C464 H455 0.950 . S
C464 C463 1.398 . S
C464 C465 1.391 . S
C465 H453 0.950 . S
C465 C461 1.393 . S
C465 C464 1.391 . S
C466 H456 0.950 . S
C466 C467 1.386 . S
C466 C468 1.391 . S
C467 C466 1.386 . S
C467 C471 1.393 . S
C468 H457 0.950 . S
C468 C466 1.391 . S
C468 C469 1.400 . S
C469 C463 1.491 . S
C469 C468 1.400 . S
C469 C470 1.398 . S
C470 H458 0.950 . S
C470 C469 1.398 . S
C470 C471 1.391 . S
C471 H459 0.950 . S
C471 C467 1.393 . S
C471 C470 1.391 . S
H472 C480 0.950 . S
H473 C485 0.950 . S
H474 C482 0.950 . S
H475 C484 0.950 . S
H476 C486 0.950 . S
H477 C488 0.950 . S
H478 C490 0.950 . S
H479 C491 0.950 . S
C480 H472 0.950 . S
C480 C481 1.386 . S
C480 C482 1.391 . S
C481 C480 1.386 . S
C481 C485 1.393 . S
C482 H474 0.950 . S
C482 C480 1.391 . S
C482 C483 1.400 . S
C483 C482 1.400 . S
C483 C484 1.398 . S
C483 C489 1.491 . S
C484 H475 0.950 . S
C484 C483 1.398 . S
C484 C485 1.391 . S
C485 H473 0.950 . S
C485 C481 1.393 . S
C485 C484 1.391 . S
C486 H476 0.950 . S
C486 C487 1.386 . S
C486 C488 1.391 . S
C487 C486 1.386 . S
C487 C491 1.393 . S
C488 H477 0.950 . S
C488 C486 1.391 . S
C488 C489 1.400 . S
C489 C483 1.491 . S
C489 C488 1.400 . S
C489 C490 1.398 . S
C490 H478 0.950 . S
C490 C489 1.398 . S
C490 C491 1.391 . S
C491 H479 0.950 . S
C491 C487 1.393 . S
C491 C490 1.391 . S
H492 C500 0.950 . S
H493 C505 0.950 . S
H494 C502 0.950 1_554 S
H495 C504 0.950 . S
H496 C506 0.950 . S
H497 C508 0.950 . S
H498 C510 0.950 . S
H499 C511 0.950 . S
C500 H492 0.950 . S
C500 C501 1.386 . S
C500 C502 1.391 . S
C501 C500 1.386 . S
C501 C505 1.393 . S
C502 H494 0.950 1_556 S
C502 C500 1.391 . S
C502 C503 1.400 . S
C503 C502 1.400 . S
C503 C504 1.398 . S
C503 C509 1.491 . S
C504 H495 0.950 . S
C504 C503 1.398 . S
C504 C505 1.391 . S
C505 H493 0.950 . S
C505 C501 1.393 . S
C505 C504 1.391 . S
C506 H496 0.950 . S
C506 C507 1.386 1_556 S
C506 C508 1.391 . S
C507 C506 1.386 1_554 S
C507 C511 1.393 . S
C508 H497 0.950 . S
C508 C506 1.391 . S
C508 C509 1.400 . S
C509 C503 1.491 . S
C509 C508 1.400 . S
C509 C510 1.398 1_556 S
C510 H498 0.950 . S
C510 C509 1.398 1_554 S
C510 C511 1.391 . S
C511 H499 0.950 . S
C511 C507 1.393 . S
C511 C510 1.391 . S
H512 C520 0.950 . S
H513 C525 0.950 . S
H514 C522 0.950 . S
H515 C524 0.950 . S
H516 C526 0.922 1_455 S
H517 C528 0.950 . S
H518 C530 0.950 . S
H519 C531 0.950 . S
C520 H512 0.950 . S
C520 C521 1.386 . S
C520 C522 1.391 . S
C521 C520 1.386 . S
C521 C525 1.393 . S
C522 H514 0.950 . S
C522 C520 1.391 . S
C522 C523 1.400 . S
C523 C522 1.400 . S
C523 C524 1.398 . S
C523 C529 1.491 . S
C524 H515 0.950 . S
C524 C523 1.398 . S
C524 C525 1.391 . S
C525 H513 0.950 . S
C525 C521 1.393 . S
C525 C524 1.391 . S
C526 H516 0.922 1_655 S
C526 C527 1.386 . S
C526 C528 1.391 . S
C527 C526 1.386 . S
C527 C531 1.393 . S
C528 H517 0.950 . S
C528 C526 1.391 . S
C528 C529 1.400 . S
C529 C523 1.491 . S
C529 C528 1.400 . S
C529 C530 1.398 . S
C530 H518 0.950 . S
C530 C529 1.398 . S
C530 C531 1.391 . S
C531 H519 0.950 . S
C531 C527 1.393 . S
C531 C530 1.391 . S
H532 C540 0.950 . S
H533 C545 0.950 . S
H534 C542 0.950 . S
H535 C544 0.950 . S
H536 C546 0.950 . S
H537 C548 0.950 . S
H538 C550 0.950 . S
H539 C551 0.950 . S
C540 H532 0.950 . S
C540 C541 1.386 . S
C540 C542 1.391 . S
C541 C540 1.386 . S
C541 C545 1.393 . S
C542 H534 0.950 . S
C542 C540 1.391 . S
C542 C543 1.400 . S
C543 C542 1.400 . S
C543 C544 1.398 . S
C543 C549 1.491 . S
C544 H535 0.950 . S
C544 C543 1.398 . S
C544 C545 1.391 . S
C545 H533 0.950 . S
C545 C541 1.393 . S
C545 C544 1.391 . S
C546 H536 0.950 . S
C546 C547 1.386 . S
C546 C548 1.391 . S
C547 C546 1.386 . S
C547 C551 1.393 . S
C548 H537 0.950 . S
C548 C546 1.391 . S
C548 C549 1.400 . S
C549 C543 1.491 . S
C549 C548 1.400 . S
C549 C550 1.398 . S
C550 H538 0.950 . S
C550 C549 1.398 . S
C550 C551 1.391 . S
C551 H539 0.950 . S
C551 C547 1.393 . S
C551 C550 1.391 . S
H552 C560 0.950 . S
H553 C565 0.950 . S
H554 C562 0.950 . S
H555 C564 0.950 . S
H556 C566 0.950 . S
H557 C568 0.950 . S
H558 C570 0.950 . S
H559 C571 0.950 . S
C560 H552 0.950 . S
C560 C561 1.386 . S
C560 C562 1.391 . S
C561 C560 1.386 . S
C561 C565 1.393 . S
C562 H554 0.950 . S
C562 C560 1.391 . S
C562 C563 1.400 . S
C563 C562 1.400 . S
C563 C564 1.398 . S
C563 C569 1.491 . S
C564 H555 0.950 . S
C564 C563 1.398 . S
C564 C565 1.391 . S
C565 H553 0.950 . S
C565 C561 1.393 . S
C565 C564 1.391 . S
C566 H556 0.950 . S
C566 C567 1.386 . S
C566 C568 1.391 . S
C567 C566 1.386 . S
C567 C571 1.393 . S
C568 H557 0.950 . S
C568 C566 1.391 . S
C568 C569 1.400 . S
C569 C563 1.491 . S
C569 C568 1.400 . S
C569 C570 1.398 . S
C570 H558 0.950 . S
C570 C569 1.398 . S
C570 C571 1.391 . S
C571 H559 0.950 . S
C571 C567 1.393 . S
C571 C570 1.391 . S
H572 C580 0.950 . S
H573 C585 0.950 . S
H574 C582 0.950 . S
H575 C584 0.950 . S
H576 C586 0.950 . S
H577 C588 0.950 . S
H578 C590 0.950 . S
H579 C591 0.950 . S
C580 H572 0.950 . S
C580 C581 1.386 . S
C580 C582 1.391 . S
C581 C580 1.386 . S
C581 C585 1.393 . S
C582 H574 0.950 . S
C582 C580 1.391 . S
C582 C583 1.400 . S
C583 C582 1.400 . S
C583 C584 1.398 . S
C583 C589 1.491 . S
C584 H575 0.950 . S
C584 C583 1.398 . S
C584 C585 1.391 . S
C585 H573 0.950 . S
C585 C581 1.393 . S
C585 C584 1.391 . S
C586 H576 0.950 . S
C586 C587 1.386 . S
C586 C588 1.391 . S
C587 C586 1.386 . S
C587 C591 1.393 . S
C588 H577 0.950 . S
C588 C586 1.391 . S
C588 C589 1.400 . S
C589 C583 1.491 . S
C589 C588 1.400 . S
C589 C590 1.398 . S
C590 H578 0.950 . S
C590 C589 1.398 . S
C590 C591 1.391 . S
C591 H579 0.950 . S
C591 C587 1.393 . S
C591 C590 1.391 . S
H592 C600 0.950 . S
H593 C605 0.950 . S
H594 C602 0.950 . S
H595 C604 0.950 . S
H596 C606 0.950 . S
H597 C608 0.950 . S
H598 C610 0.950 . S
H599 C611 0.950 . S
C600 H592 0.950 . S
C600 C601 1.386 . S
C600 C602 1.391 . S
C601 C600 1.386 . S
C601 C605 1.393 . S
C602 H594 0.950 . S
C602 C600 1.391 . S
C602 C603 1.400 . S
C603 C602 1.400 . S
C603 C604 1.398 . S
C603 C609 1.491 . S
C604 H595 0.950 . S
C604 C603 1.398 . S
C604 C605 1.391 . S
C605 H593 0.950 . S
C605 C601 1.393 . S
C605 C604 1.391 . S
C606 H596 0.950 . S
C606 C607 1.386 . S
C606 C608 1.391 . S
C607 C606 1.386 . S
C607 C611 1.393 . S
C608 H597 0.950 . S
C608 C606 1.391 . S
C608 C609 1.400 . S
C609 C603 1.491 . S
C609 C608 1.400 . S
C609 C610 1.398 . S
C610 H598 0.950 . S
C610 C609 1.398 . S
C610 C611 1.391 . S
C611 H599 0.950 . S
C611 C607 1.393 . S
C611 C610 1.391 . S
H612 C620 0.950 . S
H613 C625 0.950 . S
H614 C622 0.950 . S
H615 C624 0.950 . S
H616 C626 0.950 . S
H617 C628 0.950 . S
H618 C630 0.950 . S
H619 C631 0.950 . S
C620 H612 0.950 . S
C620 C621 1.386 . S
C620 C622 1.391 . S
C621 C620 1.386 . S
C621 C625 1.393 . S
C622 H614 0.950 . S
C622 C620 1.391 . S
C622 C623 1.400 . S
C623 C622 1.400 . S
C623 C624 1.398 . S
C623 C629 1.491 . S
C624 H615 0.950 . S
C624 C623 1.398 . S
C624 C625 1.391 . S
C625 H613 0.950 . S
C625 C621 1.393 . S
C625 C624 1.391 . S
C626 H616 0.950 . S
C626 C627 1.386 . S
C626 C628 1.391 . S
C627 C626 1.386 . S
C627 C631 1.393 . S
C628 H617 0.950 . S
C628 C626 1.391 . S
C628 C629 1.400 . S
C629 C623 1.491 . S
C629 C628 1.400 . S
C629 C630 1.398 . S
C630 H618 0.950 . S
C630 C629 1.398 . S
C630 C631 1.391 . S
C631 H619 0.950 . S
C631 C627 1.393 . S
C631 C630 1.391 . S
H632 C640 0.950 . S
H633 C645 0.950 . S
H634 C642 0.950 . S
H635 C644 0.950 . S
H636 C646 0.950 . S
H637 C648 0.950 . S
H638 C650 0.950 . S
H639 C651 0.950 . S
C640 H632 0.950 . S
C640 C641 1.386 . S
C640 C642 1.391 . S
C641 C640 1.386 . S
C641 C645 1.393 . S
C642 H634 0.950 . S
C642 C640 1.391 . S
C642 C643 1.400 . S
C643 C642 1.400 . S
C643 C644 1.398 . S
C643 C649 1.491 . S
C644 H635 0.950 . S
C644 C643 1.398 . S
C644 C645 1.391 . S
C645 H633 0.950 . S
C645 C641 1.393 . S
C645 C644 1.391 . S
C646 H636 0.950 . S
C646 C647 1.386 . S
C646 C648 1.391 . S
C647 C646 1.386 . S
C647 C651 1.393 1_554 S
C648 H637 0.950 . S
C648 C646 1.391 . S
C648 C649 1.400 1_554 S
C649 C643 1.491 . S
C649 C648 1.400 1_556 S
C649 C650 1.398 . S
C650 H638 0.950 . S
C650 C649 1.398 . S
C650 C651 1.391 . S
C651 H639 0.950 . S
C651 C647 1.393 1_556 S
C651 C650 1.391 . S
H652 C660 0.950 . S
H653 C665 0.950 . S
H654 C662 0.950 . S
H655 C664 0.950 . S
H656 C666 0.950 . S
H657 C668 0.950 . S
H658 C670 0.950 . S
H659 C671 0.950 . S
C660 H652 0.950 . S
C660 C661 1.386 . S
C660 C662 1.391 . S
C661 C660 1.386 . S
C661 C665 1.393 . S
C662 H654 0.950 . S
C662 C660 1.391 . S
C662 C663 1.400 . S
C663 C662 1.400 . S
C663 C664 1.398 . S
C663 C669 1.491 . S
C664 H655 0.950 . S
C664 C663 1.398 . S
C664 C665 1.391 . S
C665 H653 0.950 . S
C665 C661 1.393 . S
C665 C664 1.391 . S
C666 H656 0.950 . S
C666 C667 1.386 . S
C666 C668 1.391 . S
C667 C666 1.386 . S
C667 C671 1.393 . S
C668 H657 0.950 . S
C668 C666 1.391 . S
C668 C669 1.400 . S
C669 C663 1.491 . S
C669 C668 1.400 . S
C669 C670 1.398 . S
C670 H658 0.950 . S
C670 C669 1.398 . S
C670 C671 1.391 . S
C671 H659 0.950 . S
C671 C667 1.393 . S
C671 C670 1.391 . S
H672 C680 0.950 . S
H673 C685 0.950 . S
H674 C682 0.950 . S
H675 C684 0.950 . S
H676 C686 0.950 . S
H677 C688 0.950 . S
H678 C690 0.950 . S
H679 C691 0.950 . S
C680 H672 0.950 . S
C680 C681 1.386 . S
C680 C682 1.391 . S
C681 C680 1.386 . S
C681 C685 1.393 . S
C682 H674 0.950 . S
C682 C680 1.391 . S
C682 C683 1.400 . S
C683 C682 1.400 . S
C683 C684 1.398 . S
C683 C689 1.491 . S
C684 H675 0.950 . S
C684 C683 1.398 . S
C684 C685 1.391 . S
C685 H673 0.950 . S
C685 C681 1.393 . S
C685 C684 1.391 . S
C686 H676 0.950 . S
C686 C687 1.386 . S
C686 C688 1.391 . S
C687 C686 1.386 . S
C687 C691 1.393 . S
C688 H677 0.950 . S
C688 C686 1.391 . S
C688 C689 1.400 . S
C689 C683 1.491 . S
C689 C688 1.400 . S
C689 C690 1.398 . S
C690 H678 0.950 . S
C690 C689 1.398 . S
C690 C691 1.391 . S
C691 H679 0.950 . S
C691 C687 1.393 . S
C691 C690 1.391 . S
H692 C700 0.950 . S
H693 C705 0.950 . S
H694 C702 0.950 . S
H695 C704 0.950 . S
H696 C706 0.950 . S
H697 C708 0.950 . S
H698 C710 0.950 . S
H699 C711 0.950 . S
C700 H692 0.950 . S
C700 C701 1.386 . S
C700 C702 1.391 . S
C701 C700 1.386 . S
C701 C705 1.393 . S
C702 H694 0.950 . S
C702 C700 1.391 . S
C702 C703 1.400 . S
C703 C702 1.400 . S
C703 C704 1.398 . S
C703 C709 1.491 . S
C704 H695 0.950 . S
C704 C703 1.398 . S
C704 C705 1.391 . S
C705 H693 0.950 . S
C705 C701 1.393 . S
C705 C704 1.391 . S
C706 H696 0.950 . S
C706 C707 1.386 . S
C706 C708 1.391 . S
C707 C706 1.386 . S
C707 C711 1.393 . S
C708 H697 0.950 . S
C708 C706 1.391 . S
C708 C709 1.400 . S
C709 C703 1.491 . S
C709 C708 1.400 . S
C709 C710 1.398 . S
C710 H698 0.950 . S
C710 C709 1.398 . S
C710 C711 1.391 . S
C711 H699 0.950 . S
C711 C707 1.393 . S
C711 C710 1.391 . S
H712 C720 0.950 . S
H713 C725 0.950 . S
H714 C722 0.950 . S
H715 C724 0.950 . S
H716 C726 0.950 . S
H717 C728 0.950 . S
H718 C730 0.950 . S
H719 C731 0.950 . S
C720 H712 0.950 . S
C720 C721 1.386 . S
C720 C722 1.391 . S
C721 C720 1.386 . S
C721 C725 1.393 . S
C722 H714 0.950 . S
C722 C720 1.391 . S
C722 C723 1.400 . S
C723 C722 1.400 . S
C723 C724 1.398 . S
C723 C729 1.491 . S
C724 H715 0.950 . S
C724 C723 1.398 . S
C724 C725 1.391 . S
C725 H713 0.950 . S
C725 C721 1.393 . S
C725 C724 1.391 . S
C726 H716 0.950 . S
C726 C727 1.386 . S
C726 C728 1.391 . S
C727 C726 1.386 . S
C727 C731 1.393 . S
C728 H717 0.950 . S
C728 C726 1.391 . S
C728 C729 1.400 . S
C729 C723 1.491 . S
C729 C728 1.400 . S
C729 C730 1.398 . S
C730 H718 0.950 . S
C730 C729 1.398 . S
C730 C731 1.391 . S
C731 H719 0.950 . S
C731 C727 1.393 . S
C731 C730 1.391 . S
H732 C740 0.950 . S
H733 C745 0.950 . S
H734 C742 0.950 . S
H735 C744 0.950 . S
H736 C746 0.950 . S
H737 C748 0.950 . S
H738 C750 0.950 . S
H739 C751 0.950 . S
C740 H732 0.950 . S
C740 C741 1.386 . S
C740 C742 1.391 . S
C741 C740 1.386 . S
C741 C745 1.393 . S
C742 H734 0.950 . S
C742 C740 1.391 . S
C742 C743 1.400 . S
C743 C742 1.400 . S
C743 C744 1.398 . S
C743 C749 1.491 . S
C744 H735 0.950 . S
C744 C743 1.398 . S
C744 C745 1.391 . S
C745 H733 0.950 . S
C745 C741 1.393 . S
C745 C744 1.391 . S
C746 H736 0.950 . S
C746 C747 1.386 . S
C746 C748 1.391 . S
C747 C746 1.386 . S
C747 C751 1.393 . S
C748 H737 0.950 . S
C748 C746 1.391 . S
C748 C749 1.400 . S
C749 C743 1.491 . S
C749 C748 1.400 . S
C749 C750 1.398 . S
C750 H738 0.950 . S
C750 C749 1.398 . S
C750 C751 1.391 . S
C751 H739 0.950 . S
C751 C747 1.393 . S
C751 C750 1.391 . S
H752 C760 0.950 . S
H753 C765 0.950 . S
H754 C762 0.950 . S
H755 C764 0.950 . S
H756 C766 0.950 . S
H757 C768 0.950 . S
H758 C770 0.950 . S
H759 C771 0.950 . S
C760 H752 0.950 . S
C760 C761 1.386 . S
C760 C762 1.391 . S
C761 C760 1.386 . S
C761 C765 1.393 . S
C762 H754 0.950 . S
C762 C760 1.391 . S
C762 C763 1.400 . S
C763 C762 1.400 . S
C763 C764 1.398 . S
C763 C769 1.491 . S
C764 H755 0.950 . S
C764 C763 1.398 . S
C764 C765 1.391 . S
C765 H753 0.950 . S
C765 C761 1.393 . S
C765 C764 1.391 . S
C766 H756 0.950 . S
C766 C767 1.386 . S
C766 C768 1.391 . S
C767 C766 1.386 . S
C767 C771 1.393 . S
C768 H757 0.950 . S
C768 C766 1.391 . S
C768 C769 1.400 . S
C769 C763 1.491 . S
C769 C768 1.400 . S
C769 C770 1.398 . S
C770 H758 0.950 . S
C770 C769 1.398 . S
C770 C771 1.391 . S
C771 H759 0.950 . S
C771 C767 1.393 . S
C771 C770 1.391 . S
H772 C780 0.950 . S
H773 C785 0.950 . S
H774 C782 0.950 . S
H775 C784 0.950 . S
H776 C786 0.950 . S
H777 C788 0.950 . S
H778 C790 0.950 . S
H779 C791 0.950 . S
C780 H772 0.950 . S
C780 C781 1.386 . S
C780 C782 1.391 . S
C781 C780 1.386 . S
C781 C785 1.393 . S
C782 H774 0.950 . S
C782 C780 1.391 . S
C782 C783 1.400 . S
C783 C782 1.400 . S
C783 C784 1.398 . S
C783 C789 1.491 . S
C784 H775 0.950 . S
C784 C783 1.398 . S
C784 C785 1.391 . S
C785 H773 0.950 . S
C785 C781 1.393 . S
C785 C784 1.391 . S
C786 H776 0.950 . S
C786 C787 1.386 . S
C786 C788 1.391 . S
C787 C786 1.386 . S
C787 C791 1.393 . S
C788 H777 0.950 . S
C788 C786 1.391 . S
C788 C789 1.400 . S
C789 C783 1.491 . S
C789 C788 1.400 . S
C789 C790 1.398 . S
C790 H778 0.950 . S
C790 C789 1.398 . S
C790 C791 1.391 . S
C791 H779 0.950 . S
C791 C787 1.393 . S
C791 C790 1.391 . S
C321 C6 1.163 . S
C327 C158 1.185 . S
C341 C21 1.437 . S
C347 C207 1.461 . S
C367 C242 1.844 . S
C361 C49 1.842 . S
C381 C68 2.100 . S
C387 C281 2.139 1_655 S
C407 C202 3.000 . S
C401 C2 2.901 . S
C427 C161 0.373 . S
C421 C30 0.474 . S
C447 C291 1.862 . S
C441 C40 1.924 . S
C467 C250 1.527 . S
C461 C63 1.534 . S
C481 C11 1.383 . S
C487 C278 1.541 . S
C507 C210 2.611 . S
C501 C44 2.695 . S
C521 C59 1.960 . S
C527 C171 1.952 . S
C541 C25 1.244 . S
C547 C247 1.234 . S
C567 C167 1.445 . S
C561 C82 1.427 . S
C581 C101 1.196 . S
C587 C198 1.200 . S
C601 C125 2.285 . S
C607 C251 2.372 . S
C621 C144 1.811 . S
C627 C290 1.899 . S
C641 C87 1.871 . S
C647 C211 2.002 . S
C667 C170 1.762 . S
C661 C97 1.813 . S
C687 C282 1.642 . S
C681 C120 1.729 . S
C707 C241 1.528 . S
C701 C135 1.624 . S
C721 C78 1.907 . S
C727 C287 2.016 . S
C747 C201 1.887 . S
C741 C116 1.943 . S
C767 C162 2.644 . S
C761 C139 2.656 . S
C781 C106 0.784 . S
C787 C238 0.899 . S
