# Generated by pormake.
# Topology zzz, (3,6)-cn, num edge types: 1
# Building blocks:
#     Node 0, Type 0, BuildingBlock: KAKCAD_clean_linker_0, # of connection points: 3
#     Node 1, Type 0, BuildingBlock: KAKCAD_clean_linker_0, # of connection points: 3
#     Node 2, Type 0, BuildingBlock: KAKCAD_clean_linker_0, # of connection points: 3
#     Node 3, Type 0, BuildingBlock: KAKCAD_clean_linker_0, # of connection points: 3
#     Node 4, Type 0, BuildingBlock: KAKCAD_clean_linker_0, # of connection points: 3
#     Node 5, Type 0, BuildingBlock: KAKCAD_clean_linker_0, # of connection points: 3
#     Node 6, Type 0, BuildingBlock: KAKCAD_clean_linker_0, # of connection points: 3
#     Node 7, Type 0, BuildingBlock: KAKCAD_clean_linker_0, # of connection points: 3
#     Node 8, Type 1, BuildingBlock: KUMBOL_clean_sbu_0, # of connection points: 6
#     Node 9, Type 1, BuildingBlock: KUMBOL_clean_sbu_0, # of connection points: 6
#     Node 10, Type 1, BuildingBlock: KUMBOL_clean_sbu_0, # of connection points: 6
#     Node 11, Type 1, BuildingBlock: KUMBOL_clean_sbu_0, # of connection points: 6
#     Edge 12, Type (0, 1), BuildingBlock: TEMPAE_clean_linker_10, # of connection points: 2
#     Edge 13, Type (0, 1), BuildingBlock: TEMPAE_clean_linker_10, # of connection points: 2
#     Edge 14, Type (0, 1), BuildingBlock: TEMPAE_clean_linker_10, # of connection points: 2
#     Edge 15, Type (0, 1), BuildingBlock: TEMPAE_clean_linker_10, # of connection points: 2
#     Edge 16, Type (0, 1), BuildingBlock: TEMPAE_clean_linker_10, # of connection points: 2
#     Edge 17, Type (0, 1), BuildingBlock: TEMPAE_clean_linker_10, # of connection points: 2
#     Edge 18, Type (0, 1), BuildingBlock: TEMPAE_clean_linker_10, # of connection points: 2
#     Edge 19, Type (0, 1), BuildingBlock: TEMPAE_clean_linker_10, # of connection points: 2
#     Edge 20, Type (0, 1), BuildingBlock: TEMPAE_clean_linker_10, # of connection points: 2
#     Edge 21, Type (0, 1), BuildingBlock: TEMPAE_clean_linker_10, # of connection points: 2
#     Edge 22, Type (0, 1), BuildingBlock: TEMPAE_clean_linker_10, # of connection points: 2
#     Edge 23, Type (0, 1), BuildingBlock: TEMPAE_clean_linker_10, # of connection points: 2
#     Edge 24, Type (0, 1), BuildingBlock: TEMPAE_clean_linker_10, # of connection points: 2
#     Edge 25, Type (0, 1), BuildingBlock: TEMPAE_clean_linker_10, # of connection points: 2
#     Edge 26, Type (0, 1), BuildingBlock: TEMPAE_clean_linker_10, # of connection points: 2
#     Edge 27, Type (0, 1), BuildingBlock: TEMPAE_clean_linker_10, # of connection points: 2
#     Edge 28, Type (0, 1), BuildingBlock: TEMPAE_clean_linker_10, # of connection points: 2
#     Edge 29, Type (0, 1), BuildingBlock: TEMPAE_clean_linker_10, # of connection points: 2
#     Edge 30, Type (0, 1), BuildingBlock: TEMPAE_clean_linker_10, # of connection points: 2
#     Edge 31, Type (0, 1), BuildingBlock: TEMPAE_clean_linker_10, # of connection points: 2
#     Edge 32, Type (0, 1), BuildingBlock: TEMPAE_clean_linker_10, # of connection points: 2
#     Edge 33, Type (0, 1), BuildingBlock: TEMPAE_clean_linker_10, # of connection points: 2
#     Edge 34, Type (0, 1), BuildingBlock: TEMPAE_clean_linker_10, # of connection points: 2
#     Edge 35, Type (0, 1), BuildingBlock: TEMPAE_clean_linker_10, # of connection points: 2
# Relax obj value: 0.294
# Max RMSD: 0.225
# Mean RMSD: 0.211
data_MOF--net-zzz--node1-KUMBOL_clean_sbu_0--node2-KAKCAD_clean_linker_0--edge1-TEMPAE_clean_linker_10
_symmetry_space_group_name_H-M    P1
_symmetry_Int_Tables_number       1
_symmetry_cell_setting            triclinic
loop_
_symmetry_equiv_pos_as_xyz
'x, y, z'
_cell_length_a     58.106503
_cell_length_b     58.143495
_cell_length_c     20.281426
_cell_angle_alpha  90.366713
_cell_angle_beta   90.135785
_cell_angle_gamma 89.944723
loop_
_atom_site_label
_atom_site_type_symbol
_atom_site_fract_x
_atom_site_fract_y
_atom_site_fract_z
_atom_type_partial_charge
C0 C 0.79289 0.60872 0.93359 0.0
C1 C 0.81668 0.60668 0.94364 0.0
C2 C 0.77745 0.60105 0.98188 0.0
C3 C 0.78554 0.59002 0.03951 0.0
C4 C 0.80956 0.58887 0.04929 0.0
C5 C 0.82474 0.59758 1.00307 0.0
C6 C 0.7696 0.57797 0.08644 0.0
C7 C 0.74776 0.57021 0.0664 0.0
C8 C 0.73389 0.55667 0.10768 0.0
C9 C 0.74307 0.54903 0.1688 0.0
C10 C 0.76488 0.5571 0.19051 0.0
C11 C 0.77705 0.57238 0.15034 0.0
C12 C 0.77688 0.54937 0.25218 0.0
C13 C 0.78647 0.56607 0.29477 0.0
C14 C 0.7843 0.52643 0.25897 0.0
C15 C 0.80214 0.52077 0.30343 0.0
C16 C 0.81312 0.53799 0.34128 0.0
C17 C 0.71005 0.55108 0.08381 0.0
C18 C 0.696 0.56891 0.05953 0.0
C19 C 0.7024 0.52831 0.07579 0.0
C20 C 0.68184 0.52351 0.04118 0.0
C21 C 0.66834 0.54138 0.014 0.0
C22 C 0.67554 0.56417 0.02531 0.0
C23 C 0.80447 0.56052 0.33805 0.0
H24 H 0.78629 0.6155 0.88766 0.0
H25 H 0.75926 0.60314 0.97242 0.0
H26 H 0.8172 0.57998 0.09047 0.0
H27 H 0.84301 0.59535 0.01158 0.0
H28 H 0.74145 0.57405 0.01749 0.0
H29 H 0.79312 0.57921 0.16888 0.0
H30 H 0.73317 0.53763 0.19975 0.0
H31 H 0.78133 0.58392 0.29059 0.0
H32 H 0.77766 0.51323 0.22618 0.0
H33 H 0.80845 0.50324 0.30479 0.0
H34 H 0.70137 0.58667 0.06474 0.0
H35 H 0.71286 0.51417 0.09334 0.0
H36 H 0.8124 0.57413 0.36688 0.0
H37 H 0.66594 0.57846 1.00502 0.0
H38 H 0.67676 0.50574 0.03462 0.0
C39 C 0.9176 0.78756 0.93841 0.0
C40 C 0.91077 0.80984 0.9575 0.0
C41 C 0.92678 0.77242 0.98466 0.0
C42 C 0.92815 0.77871 0.05179 0.0
C43 C 0.91666 0.79894 0.07191 0.0
C44 C 0.90855 0.8146 0.02525 0.0
C45 C 0.94478 0.76684 0.09703 0.0
C46 C 0.95212 0.74417 0.08463 0.0
C47 C 0.97158 0.73493 0.11611 0.0
C48 C 0.98304 0.74819 0.16523 0.0
C49 C 0.975 0.77059 0.18124 0.0
C50 C 0.95622 0.77957 0.14638 0.0
C51 C 0.98651 0.78654 0.22921 0.0
C52 C 0.97942 0.78732 0.29549 0.0
C53 C 0.99934 0.80516 0.20498 0.0
C54 C 1.00394 0.82452 0.24468 0.0
C55 C 0.99577 0.82596 0.30999 0.0
C56 C 0.98076 0.71277 0.08898 0.0
C57 C 0.97364 0.69146 0.11418 0.0
C58 C 0.99239 0.71294 0.02832 0.0
C59 C 0.99633 0.69249 0.99285 0.0
C60 C 0.98877 0.67105 0.01677 0.0
C61 C 0.97773 0.67087 0.07884 0.0
C62 C 0.98416 0.80668 0.33556 0.0
H63 H 0.91829 0.78271 0.8868 0.0
H64 H 0.93474 0.75689 0.96597 0.0
H65 H 0.91572 0.8038 0.12343 0.0
H66 H 0.90277 0.83128 0.04255 0.0
H67 H 0.94347 0.7338 0.04763 0.0
H68 H 0.95154 0.79731 0.15584 0.0
H69 H 0.99833 0.7415 0.18899 0.0
H70 H 0.96885 0.77363 0.31502 0.0
H71 H 1.00452 0.80539 0.15369 0.0
H72 H 0.01323 0.83877 0.22332 0.0
H73 H 0.96407 0.69083 0.15988 0.0
H74 H 0.99739 0.72914 0.00653 0.0
H75 H 0.97746 0.80711 0.38533 0.0
H76 H 0.97186 0.65485 0.09982 0.0
H77 H 1.00443 0.69376 0.94501 0.0
C78 C 0.71909 0.90798 0.9544 0.0
C79 C 0.69677 0.91723 0.95027 0.0
C80 C 0.73393 0.91467 1.00575 0.0
C81 C 0.72679 0.93099 0.05322 0.0
C82 C 0.70407 0.93923 0.05039 0.0
C83 C 0.68932 0.93237 1.00018 0.0
C84 C 0.7432 0.94173 0.10095 0.0
C85 C 0.76577 0.94695 0.08201 0.0
C86 C 0.77996 0.96122 0.12099 0.0
C87 C 0.77068 0.97125 0.1793 0.0
C88 C 0.74815 0.96534 0.20004 0.0
C89 C 0.73521 0.94992 0.16186 0.0
C90 C 0.73576 0.97643 0.25625 0.0
C91 C 0.731 0.96363 0.31331 0.0
C92 C 0.72244 0.99615 0.24396 0.0
C93 C 0.70386 1.002 0.285 0.0
C94 C 0.69814 0.98838 0.33979 0.0
C95 C 0.80384 0.96575 0.09635 0.0
C96 C 0.81748 0.94715 0.07477 0.0
C97 C 0.81179 0.98817 0.08425 0.0
C98 C 0.83225 0.99178 0.04842 0.0
C99 C 0.84533 0.97306 0.02405 0.0
C100 C 0.8378 0.95071 0.03926 0.0
C101 C 0.7126 0.96968 0.35503 0.0
H102 H 0.72535 0.89632 0.91663 0.0
H103 H 0.75121 0.90771 0.00683 0.0
H104 H 0.69794 0.95231 0.08427 0.0
H105 H 0.67257 0.94052 0.99791 0.0
H106 H 0.77205 0.94097 0.03463 0.0
H107 H 0.718 0.9455 0.17804 0.0
H108 H 0.78083 0.98327 0.20817 0.0
H109 H 0.74042 0.94791 0.32287 0.0
H110 H 0.72517 0.00593 0.19937 0.0
H111 H 0.69325 0.01663 0.27204 0.0
H112 H 0.81184 0.92964 0.083 0.0
H113 H 0.80162 1.00288 0.09951 0.0
H114 H 0.70867 0.95872 0.39648 0.0
H115 H 0.84702 0.93578 0.02111 0.0
H116 H 0.83757 0.00927 0.03877 0.0
C117 C 0.52882 0.70299 0.26217 0.0
C118 C 0.53925 0.70113 0.32469 0.0
C119 C 0.53536 0.72031 0.2183 0.0
C120 C 0.55233 0.73643 0.23586 0.0
C121 C 0.56175 0.73559 0.29967 0.0
C122 C 0.55522 0.7182 0.34375 0.0
C123 C 0.56406 0.74967 0.18311 0.0
C124 C 0.56054 0.77343 0.17272 0.0
C125 C 0.57201 0.78471 0.1205 0.0
C126 C 0.58699 0.7719 0.07986 0.0
C127 C 0.58989 0.7481 0.08791 0.0
C128 C 0.57843 0.73732 0.1402 0.0
C129 C 0.60223 0.73388 0.03735 0.0
C130 C 0.60107 0.73965 0.97008 0.0
C131 C 0.61235 0.7127 0.0544 0.0
C132 C 0.61747 0.69633 1.00583 0.0
C133 C 0.61319 0.70102 0.93896 0.0
C134 C 0.56738 0.80925 0.10263 0.0
C135 C 0.54474 0.81732 0.09392 0.0
C136 C 0.58568 0.82356 0.0834 0.0
C137 C 0.58152 0.84445 0.05156 0.0
C138 C 0.55891 0.8518 0.03851 0.0
C139 C 0.54055 0.83841 0.06231 0.0
C140 C 0.60696 0.72357 0.92155 0.0
H141 H 0.51617 0.69048 0.24605 0.0
H142 H 0.52813 0.7203 0.16901 0.0
H143 H 0.5753 0.74743 0.31385 0.0
H144 H 0.56376 0.7173 0.39117 0.0
H145 H 0.54885 0.78292 0.2043 0.0
H146 H 0.57981 0.71888 0.14653 0.0
H147 H 0.59564 0.78042 0.03963 0.0
H148 H 0.59368 0.75577 0.95408 0.0
H149 H 0.61466 0.70799 0.10555 0.0
H150 H 0.62257 0.6793 0.02153 0.0
H151 H 0.53025 0.80668 0.10754 0.0
H152 H 0.60334 0.81805 0.09014 0.0
H153 H 0.60432 0.72809 0.87036 0.0
H154 H 0.52292 0.84353 0.05302 0.0
H155 H 0.59606 0.85454 0.03516 0.0
C156 C 0.22656 0.4253 0.33816 0.0
C157 C 0.20507 0.41577 0.32143 0.0
C158 C 0.24231 0.43105 0.28905 0.0
C159 C 0.23727 0.42659 0.22225 0.0
C160 C 0.2175 0.41359 0.20708 0.0
C161 C 0.20144 0.40846 0.256 0.0
C162 C 0.25061 0.43817 0.16901 0.0
C163 C 0.27408 0.44294 0.17669 0.0
C164 C 0.286 0.4569 0.13183 0.0
C165 C 0.27399 0.46563 0.07601 0.0
C166 C 0.2505 0.45978 0.06527 0.0
C167 C 0.23917 0.44663 0.11321 0.0
C168 C 0.23657 0.46693 1.00605 0.0
C169 C 0.23461 0.49005 0.98626 0.0
C170 C 0.22195 0.45064 0.97562 0.0
C171 C 0.20476 0.45734 0.93119 0.0
C172 C 0.20186 0.48051 0.91426 0.0
C173 C 0.31053 0.46268 0.14844 0.0
C174 C 0.31753 0.4856 0.15772 0.0
C175 C 0.32571 0.4451 0.16844 0.0
C176 C 0.34643 0.45019 0.2011 0.0
C177 C 0.35277 0.47309 0.21479 0.0
C178 C 0.33835 0.49074 0.19039 0.0
C179 C 0.21748 0.49675 0.94051 0.0
H180 H 0.23027 0.43046 0.38849 0.0
H181 H 0.25739 0.44078 0.30341 0.0
H182 H 0.21351 0.40888 0.1566 0.0
H183 H 0.18523 0.40085 0.24104 0.0
H184 H 0.28308 0.43638 0.21949 0.0
H185 H 0.22083 0.44377 0.10795 0.0
H186 H 0.28291 0.47633 0.04083 0.0
H187 H 0.24538 0.50309 0.0089 0.0
H188 H 0.22304 0.43264 0.98889 0.0
H189 H 0.19321 0.44439 0.91136 0.0
H190 H 0.30623 0.49956 0.14359 0.0
H191 H 0.32087 0.42722 0.16224 0.0
H192 H 0.21567 0.51477 0.9283 0.0
H193 H 0.34278 0.50862 0.19839 0.0
H194 H 0.35679 0.43604 0.21899 0.0
C195 C 0.10416 0.23344 0.2974 0.0
C196 C 0.11076 0.21109 0.27833 0.0
C197 C 0.09486 0.24856 0.2513 0.0
C198 C 0.09317 0.24216 0.1843 0.0
C199 C 0.10454 0.22188 0.164 0.0
C200 C 0.11274 0.20624 0.21058 0.0
C201 C 0.07629 0.25394 0.13962 0.0
C202 C 0.06889 0.27659 0.15224 0.0
C203 C 0.0492 0.28569 0.12164 0.0
C204 C 0.03755 0.27235 0.07308 0.0
C205 C 0.04566 0.25002 0.05664 0.0
C206 C 0.06467 0.24115 0.09073 0.0
C207 C 0.03409 0.23406 0.0088 0.0
C208 C 0.02143 0.21535 0.03315 0.0
C209 C 0.04099 0.2334 0.94235 0.0
C210 C 0.03622 0.21408 0.90217 0.0
C211 C 0.02476 0.19471 0.92777 0.0
C212 C 0.04008 0.30784 0.149 0.0
C213 C 0.02768 0.30754 0.2084 0.0
C214 C 0.04807 0.32913 0.12593 0.0
C215 C 0.04408 0.34956 0.16205 0.0
C216 C 0.0323 0.34924 0.22298 0.0
C217 C 0.02386 0.32783 0.24476 0.0
C218 C 0.01679 0.19603 0.99331 0.0
H219 H 0.10368 0.23834 0.34899 0.0
H220 H 0.08705 0.26414 0.27011 0.0
H221 H 0.10526 0.21696 0.11251 0.0
H222 H 0.11837 0.18951 0.19327 0.0
H223 H 0.07768 0.28704 0.18879 0.0
H224 H 0.06941 0.22344 0.08103 0.0
H225 H 0.0221 0.27895 0.04993 0.0
H226 H 0.01641 0.21502 0.08455 0.0
H227 H 0.05144 0.24716 0.92272 0.0
H228 H 0.04277 0.21375 0.85224 0.0
H229 H 0.02201 0.29131 0.22867 0.0
H230 H 0.05824 0.32984 0.08131 0.0
H231 H 0.00761 0.18171 0.01474 0.0
H232 H 0.01516 0.32644 0.29167 0.0
H233 H 0.05062 0.36555 0.14258 0.0
C234 C 0.29791 0.09784 0.33507 0.0
C235 C 0.31819 0.10997 0.32096 0.0
C236 C 0.28312 0.09107 0.28443 0.0
C237 C 0.28808 0.09658 0.21854 0.0
C238 C 0.30685 0.11115 0.20557 0.0
C239 C 0.32186 0.11768 0.25633 0.0
C240 C 0.27567 0.08453 0.16404 0.0
C241 C 0.25239 0.07892 0.17033 0.0
C242 C 0.24132 0.06425 0.12509 0.0
C243 C 0.25398 0.05552 0.07039 0.0
C244 C 0.27728 0.06225 0.06103 0.0
C245 C 0.28778 0.07633 0.10906 0.0
C246 C 0.29191 0.05502 1.00343 0.0
C247 C 0.29584 0.03172 0.98762 0.0
C248 C 0.30554 0.07171 0.97186 0.0
C249 C 0.32372 0.06536 0.93034 0.0
C250 C 0.32863 0.04212 0.91777 0.0
C251 C 0.21684 0.05819 0.14015 0.0
C252 C 0.21063 0.03564 0.15707 0.0
C253 C 0.20108 0.076 0.15373 0.0
C254 C 0.18056 0.07176 0.18772 0.0
C255 C 0.17486 0.04943 0.20885 0.0
C256 C 0.18987 0.03129 0.19073 0.0
C257 C 0.314 0.02534 0.94492 0.0
H258 H 0.29473 0.09134 0.38416 0.0
H259 H 0.269 0.07976 0.29668 0.0
H260 H 0.31078 0.1163 0.15564 0.0
H261 H 0.33732 0.12715 0.24423 0.0
H262 H 0.24287 0.08543 0.21244 0.0
H263 H 0.30598 0.08008 0.10481 0.0
H264 H 0.2457 0.0442 0.035 0.0
H265 H 0.28591 0.01842 0.01149 0.0
H266 H 0.30297 0.08981 0.9825 0.0
H267 H 0.33456 0.07868 0.90992 0.0
H268 H 0.22249 0.02158 0.14829 0.0
H269 H 0.20546 0.09363 0.14215 0.0
H270 H 0.31743 0.00726 0.93622 0.0
H271 H 0.18602 0.01376 0.20444 0.0
H272 H 0.16993 0.08636 0.20083 0.0
C273 C 0.46131 0.30076 0.87307 0.0
C274 C 0.48146 0.31353 0.88482 0.0
C275 C 0.45394 0.28426 0.9186 0.0
C276 C 0.46685 0.2798 0.97587 0.0
C277 C 0.48795 0.2912 0.98469 0.0
C278 C 0.4951 0.30802 0.93993 0.0
C279 C 0.45567 0.26904 0.03383 0.0
C280 C 0.46393 0.24871 0.06337 0.0
C281 C 0.45526 0.24174 0.12514 0.0
C282 C 0.43919 0.25584 0.15787 0.0
C283 C 0.43089 0.27621 0.12913 0.0
C284 C 0.43846 0.28185 0.06554 0.0
C285 C 0.41719 0.29314 0.16885 0.0
C286 C 0.40294 0.28603 0.2211 0.0
C287 C 0.42061 0.31693 0.16004 0.0
C288 C 0.4118 0.33285 0.20492 0.0
C289 C 0.39984 0.32548 0.26087 0.0
C290 C 0.46324 0.22038 0.15849 0.0
C291 C 0.45903 0.19862 0.13046 0.0
C292 C 0.4723 0.22157 0.2228 0.0
C293 C 0.47637 0.20154 0.25908 0.0
C294 C 0.47117 0.17976 0.23242 0.0
C295 C 0.46278 0.17853 0.1672 0.0
C296 C 0.39464 0.30202 0.26726 0.0
H297 H 0.45037 0.30475 0.83136 0.0
H298 H 0.43734 0.27613 0.91147 0.0
H299 H 0.49795 0.28854 0.02916 0.0
H300 H 0.51072 0.31757 0.95015 0.0
H301 H 0.47736 0.23879 0.03948 0.0
H302 H 0.43212 0.29727 0.0419 0.0
H303 H 0.43382 0.25115 0.20707 0.0
H304 H 0.39923 0.268 0.22866 0.0
H305 H 0.43174 0.32343 0.12179 0.0
H306 H 0.41651 0.35077 0.19939 0.0
H307 H 0.45181 0.19721 0.08131 0.0
H308 H 0.47557 0.23812 0.2458 0.0
H309 H 0.38549 0.29592 0.3102 0.0
H310 H 0.45878 0.16203 0.14495 0.0
H311 H 0.48268 0.20319 0.30919 0.0
Gd312 Gd 0.98659 0.01716 0.56226 0.0
Gd313 Gd 0.03433 1.00392 0.67309 0.0
C314 C 0.07392 0.05322 0.80823 0.0
C315 C 0.11111 0.05546 0.75416 0.0
C316 C 0.08079 0.03126 0.70862 0.0
C317 C 0.06606 0.03826 0.75803 0.0
C318 C 0.10358 0.03957 0.70637 0.0
C319 C 0.09635 0.06213 0.80534 0.0
C320 C 0.05928 0.05817 0.86097 0.0
C321 C 0.03733 0.04849 0.86243 0.0
N322 N 0.04442 0.0295 0.75898 0.0
C323 C 0.03017 0.03412 0.81087 0.0
H324 H 0.01323 0.02676 0.81323 0.0
C325 C 0.08786 0.0062 0.61878 0.0
N326 N 0.07313 0.01546 0.66444 0.0
C327 C 0.11045 0.01423 0.61368 0.0
C328 C 0.1183 0.03118 0.65725 0.0
H329 H 0.08194 0.99319 0.58455 0.0
H330 H 0.10257 0.07388 0.84305 0.0
H331 H 0.00781 0.99436 0.42212 0.0
H332 H 0.06502 0.06888 0.90159 0.0
H333 H 0.02598 0.0519 0.90356 0.0
H334 H 0.1285 0.06216 0.75307 0.0
H335 H 0.93888 0.02788 0.65035 0.0
H336 H 0.95615 0.95215 0.33355 0.0
H337 H 0.99518 0.96915 0.33185 0.0
H338 H 0.89253 0.95886 0.48158 0.0
H339 H 0.12179 0.00734 0.57615 0.0
H340 H 0.13587 0.03725 0.65357 0.0
H341 H 0.91855 0.94714 0.39182 0.0
H342 H 0.89903 0.01373 0.65839 0.0
N343 N 0.97658 0.99159 0.47623 0.0
C344 C 0.96184 0.96288 0.37419 0.0
C345 C 0.98378 0.97257 0.37288 0.0
C346 C 0.94715 0.96783 0.42681 0.0
C347 C 0.95495 0.98281 0.47704 0.0
C348 C 0.99088 0.98698 0.42444 0.0
N349 N 0.94778 0.00561 0.57057 0.0
C350 C 0.94018 0.9898 0.52635 0.0
C351 C 0.91041 0.00684 0.62098 0.0
C352 C 0.90261 0.98987 0.57739 0.0
C353 C 0.93301 0.01486 0.61609 0.0
C354 C 0.91739 0.98148 0.52843 0.0
H355 H 0.88504 0.98379 0.58094 0.0
O356 O 0.96622 0.04752 0.54159 0.0
O357 O 0.01154 0.03149 0.63596 0.0
O358 O 0.99931 1.00327 0.72542 0.0
O359 O 0.9737 0.99341 0.642 0.0
O360 O 0.97837 0.04336 0.6424 0.0
O361 O 0.99326 0.0371 0.47418 0.0
O362 O 0.05465 0.97355 0.69383 0.0
O363 O 0.00939 0.98964 0.5995 0.0
O364 O 0.02161 0.01775 0.50994 0.0
O365 O 0.0472 0.02768 0.5933 0.0
O366 O 0.04247 0.97762 0.5931 0.0
O367 O 0.02774 0.98412 0.76147 0.0
C368 C 0.9987 0.04549 0.66684 0.0
C369 C 0.90991 0.96557 0.4806 0.0
C370 C 0.92472 0.95889 0.42955 0.0
C371 C 0.98034 0.05399 0.49534 0.0
C372 C 0.99208 0.07619 0.50717 0.0
C373 C 0.98279 0.09211 0.5524 0.0
C374 C 0.01411 0.08025 0.48094 0.0
C375 C 0.02707 0.09927 0.50209 0.0
C376 C 0.99561 0.11106 0.57317 0.0
C377 C 0.01775 0.11452 0.54889 0.0
C378 C 0.97909 0.99513 0.70527 0.0
C379 C 0.02214 0.97556 0.56867 0.0
C380 C 0.04059 0.96717 0.74034 0.0
C381 C 0.02878 0.94498 0.72892 0.0
C382 C 0.03802 0.92895 0.68393 0.0
C383 C 0.00675 0.94103 0.75529 0.0
C384 C 0.99373 0.92202 0.73443 0.0
C385 C 0.02515 0.90999 0.66351 0.0
C386 C 1.003 0.90665 0.68787 0.0
C387 C 0.04183 0.0259 0.53004 0.0
H388 H 0.96588 0.08954 0.57348 0.0
H389 H 0.02148 0.06842 0.44522 0.0
H390 H 0.98831 0.12305 0.60825 0.0
H391 H 0.02728 0.12957 0.56479 0.0
H392 H 0.05493 0.93143 0.66278 0.0
H393 H 0.99943 0.95295 0.79086 0.0
H394 H 0.03241 0.89791 0.62862 0.0
H395 H 0.99342 0.89159 0.67223 0.0
Gd396 Gd 0.50257 0.98784 0.56402 0.0
Gd397 Gd 0.51862 0.03515 0.67479 0.0
C398 C 0.47284 0.06712 0.83443 0.0
C399 C 0.46635 0.10554 0.79199 0.0
C400 C 0.48954 0.07805 0.73008 0.0
C401 C 0.48573 0.06152 0.77759 0.0
C402 C 0.48012 0.10034 0.73717 0.0
C403 C 0.46288 0.08903 0.84082 0.0
C404 C 0.47079 0.05076 0.88412 0.0
C405 C 0.48053 0.0291 0.87547 0.0
N406 N 0.49537 0.04034 0.76976 0.0
C407 C 0.4928 0.02414 0.81801 0.0
H408 H 0.49991 0.00717 0.81359 0.0
C409 C 0.5099 0.08944 0.63495 0.0
N410 N 0.50341 0.07275 0.6786 0.0
C411 C 0.5007 0.1116 0.63931 0.0
C412 C 0.48548 0.117 0.69016 0.0
H413 H 0.52173 0.08533 0.59547 0.0
H414 H 0.45274 0.09349 0.88382 0.0
H415 H 0.52592 0.01648 0.43239 0.0
H416 H 0.46186 0.05473 0.92959 0.0
H417 H 0.47875 0.01621 0.91337 0.0
H418 H 0.45886 0.1225 0.79807 0.0
H419 H 0.4924 0.93553 0.62433 0.0
H420 H 0.5707 0.97114 0.32957 0.0
H421 H 0.55201 0.00909 0.34161 0.0
H422 H 0.56545 0.90082 0.44873 0.0
H423 H 0.50538 0.12449 0.60346 0.0
H424 H 0.47849 0.13425 0.69377 0.0
H425 H 0.57637 0.93126 0.37131 0.0
H426 H 0.50863 0.89628 0.61887 0.0
N427 N 0.52886 0.983 0.47468 0.0
C428 C 0.55908 0.97428 0.37032 0.0
C429 C 0.54847 0.99562 0.37678 0.0
C430 C 0.55427 0.95707 0.41583 0.0
C431 C 0.53871 0.9619 0.46759 0.0
C432 C 0.5333 0.99966 0.42894 0.0
N433 N 0.51633 0.94955 0.55648 0.0
C434 C 0.53255 0.94477 0.51066 0.0
C435 C 0.51578 0.90979 0.5887 0.0
C436 C 0.53362 0.90498 0.54489 0.0
C437 C 0.50689 0.93209 0.59247 0.0
C438 C 0.54176 0.92238 0.50377 0.0
H439 H 0.54029 0.88761 0.54125 0.0
O440 O 0.47702 0.96297 0.5318 0.0
O441 O 0.49031 0.01288 0.63989 0.0
O442 O 0.52472 1.00143 0.72861 0.0
O443 O 0.51933 0.9714 0.65285 0.0
O444 O 0.47757 0.98017 0.64746 0.0
O445 O 0.47571 0.99747 0.49458 0.0
O446 O 0.54508 0.06099 0.68577 0.0
O447 O 0.53193 0.00897 0.60206 0.0
O448 O 0.49951 0.02279 0.51331 0.0
O449 O 0.4931 0.04834 0.59945 0.0
O450 O 0.54155 0.04269 0.58814 0.0
O451 O 0.54494 0.03144 0.75039 0.0
C452 C 0.47661 1.00056 0.67255 0.0
C453 C 0.55805 0.91783 0.45442 0.0
C454 C 0.5642 0.93513 0.41025 0.0
C455 C 0.46451 0.97834 0.50276 0.0
C456 C 0.44048 0.98013 0.52585 0.0
C457 C 0.42926 0.96084 0.55217 0.0
C458 C 0.42906 1.0014 0.5256 0.0
C459 C 0.40675 1.00357 0.55134 0.0
C460 C 0.40713 0.9629 0.57811 0.0
C461 C 0.39586 0.98408 0.57748 0.0
C462 C 0.52492 0.97933 0.7121 0.0
C463 C 0.54493 0.02187 0.56852 0.0
C464 C 0.55668 0.04892 0.72811 0.0
C465 C 0.58105 0.04513 0.71075 0.0
C466 C 0.59387 0.06329 0.68384 0.0
C467 C 0.5915 0.0235 0.71837 0.0
C468 C 0.61464 0.0203 0.70113 0.0
C469 C 0.61675 0.05995 0.66535 0.0
C470 C 0.62722 0.03863 0.67467 0.0
C471 C 0.49257 0.04311 0.53595 0.0
H472 H 0.43768 0.94422 0.55331 0.0
H473 H 0.43736 0.01623 0.50399 0.0
H474 H 0.39863 0.94798 0.59838 0.0
H475 H 0.37852 0.98513 0.59662 0.0
H476 H 0.58615 0.08007 0.67691 0.0
H477 H 0.58197 0.00932 0.73947 0.0
H478 H 0.62649 0.07402 0.64471 0.0
H479 H 0.6452 0.0365 0.66206 0.0
Gd480 Gd 0.48451 0.51602 0.66494 0.0
Gd481 Gd 0.53498 0.5011 0.56601 0.0
C482 C 0.61085 0.51618 0.60528 0.0
C483 C 0.61962 0.54476 0.52229 0.0
C484 C 0.58113 0.52843 0.52929 0.0
C485 C 0.58783 0.51556 0.58316 0.0
C486 C 0.597 0.54317 0.49817 0.0
C487 C 0.62659 0.53113 0.57536 0.0
C488 C 0.61759 0.5012 0.65536 0.0
C489 C 0.60149 0.48627 0.6827 0.0
N490 N 0.57215 0.5016 0.61203 0.0
C491 C 0.57869 0.48685 0.66086 0.0
H492 H 0.56637 0.47519 0.68225 0.0
C493 C 0.55251 0.53758 0.45065 0.0
N494 N 0.55928 0.52612 0.50629 0.0
C495 C 0.56752 0.55264 0.4189 0.0
C496 C 0.58982 0.55558 0.44298 0.0
H497 H 0.53531 0.53592 0.43141 0.0
H498 H 0.64427 0.53203 0.59228 0.0
H499 H 0.45639 0.54664 0.55168 0.0
H500 H 0.6353 0.50068 0.67199 0.0
H501 H 0.60661 0.47412 0.72008 0.0
H502 H 0.63199 0.55606 0.49921 0.0
H503 H 0.48086 0.47832 0.78914 0.0
H504 H 0.38689 0.5227 0.54354 0.0
H505 H 0.41703 0.55 0.50776 0.0
H506 H 0.38567 0.46111 0.69852 0.0
H507 H 0.56184 0.56203 0.37592 0.0
H508 H 0.60143 0.5672 0.41808 0.0
H509 H 0.37578 0.48852 0.61091 0.0
H510 H 0.45261 0.4509 0.83429 0.0
N511 N 0.44879 0.51768 0.61136 0.0
C512 C 0.40427 0.52093 0.562 0.0
C513 C 0.42119 0.53641 0.542 0.0
C514 C 0.40973 0.50388 0.60773 0.0
C515 C 0.43232 0.50304 0.63312 0.0
C516 C 0.44349 0.5345 0.56718 0.0
N517 N 0.45898 0.48916 0.71091 0.0
C518 C 0.43767 0.48807 0.68369 0.0
C519 C 0.4482 0.46122 0.79185 0.0
C520 C 0.42656 0.45907 0.76236 0.0
C521 C 0.46414 0.47676 0.76618 0.0
C522 C 0.42087 0.47294 0.70853 0.0
H523 H 0.41418 0.44713 0.7826 0.0
O524 O 0.47556 0.52794 0.76266 0.0
O525 O 0.52285 0.51591 0.66152 0.0
O526 O 0.52509 0.47364 0.64092 0.0
O527 O 0.48559 0.47767 0.64721 0.0
O528 O 0.50841 0.50927 0.7515 0.0
O529 O 0.47072 0.55038 0.67819 0.0
O530 O 0.53256 0.48021 0.47653 0.0
O531 O 0.49659 0.50168 0.57007 0.0
O532 O 0.49591 0.54573 0.598 0.0
O533 O 0.53496 0.53959 0.57806 0.0
O534 O 0.51105 0.50886 0.48042 0.0
O535 O 0.55416 0.46931 0.5573 0.0
C536 C 0.52765 0.51173 0.72121 0.0
C537 C 0.39876 0.47273 0.68047 0.0
C538 C 0.39313 0.48832 0.63058 0.0
C539 C 0.46945 0.54827 0.7421 0.0
C540 C 0.47782 0.56763 0.78118 0.0
C541 C 0.46175 0.58165 0.81344 0.0
C542 C 0.50147 0.57201 0.78771 0.0
C543 C 0.50905 0.59043 0.82723 0.0
C544 C 0.46916 0.60006 0.85217 0.0
C545 C 0.49261 0.60449 0.85899 0.0
C546 C 0.50438 0.46491 0.65172 0.0
C547 C 0.49177 0.50673 0.51096 0.0
C548 C 0.54375 0.46318 0.50331 0.0
C549 C 0.53208 0.44068 0.50674 0.0
C550 C 0.54341 0.42221 0.53739 0.0
C551 C 0.50903 0.43801 0.48655 0.0
C552 C 0.49741 0.41735 0.49856 0.0
C553 C 0.53176 0.4017 0.54951 0.0
C554 C 0.5088 0.39931 0.53065 0.0
C555 C 0.51659 0.55308 0.57921 0.0
H556 H 0.44347 0.57833 0.80866 0.0
H557 H 0.51382 0.56102 0.76279 0.0
H558 H 0.45671 0.61098 0.87675 0.0
H559 H 0.49786 0.61921 0.88834 0.0
H560 H 0.56109 0.42389 0.55375 0.0
H561 H 0.50002 0.4519 0.46209 0.0
H562 H 0.54051 0.38767 0.5739 0.0
H563 H 0.50009 0.38314 0.53924 0.0
Gd564 Gd 1.00479 0.48603 0.6637 0.0
Gd565 Gd 0.01583 0.53731 0.56704 0.0
C566 C 1.00305 0.61185 0.62827 0.0
C567 C 0.96991 0.62209 0.56128 0.0
C568 C 0.98626 0.58362 0.55437 0.0
C569 C 1.00233 0.58932 0.60213 0.0
C570 C 0.97006 0.60003 0.53274 0.0
C571 C 0.9865 0.62805 0.60858 0.0
C572 C 0.02077 0.61763 0.67207 0.0
C573 C 0.03727 0.60117 0.68846 0.0
N574 N 0.01795 0.5732 0.62073 0.0
C575 C 0.03559 0.57895 0.66231 0.0
H576 H 0.04856 0.56654 0.67533 0.0
C577 C 0.97373 0.55704 0.47322 0.0
N578 N 0.98726 0.56238 0.52654 0.0
C579 C 0.95712 0.57256 0.45087 0.0
C580 C 0.95503 0.59404 0.48137 0.0
H581 H 0.97531 0.54048 0.44919 0.0
H582 H 0.98662 0.64534 0.62883 0.0
H583 H 0.966 0.45853 0.56309 0.0
H584 H 0.02212 0.63486 0.69222 0.0
H585 H 0.05146 0.60562 0.72064 0.0
H586 H 0.95751 0.63488 0.54564 0.0
H587 H 0.04623 0.47828 0.77676 0.0
H588 H 0.98809 0.38939 0.53718 0.0
H589 H 0.96027 0.4206 0.5153 0.0
H590 H 0.0551 0.38372 0.67252 0.0
H591 H 0.94612 0.56802 0.40974 0.0
H592 H 0.9423 0.60613 0.46351 0.0
H593 H 0.0238 0.37606 0.5937 0.0
H594 H 0.07392 0.44831 0.81001 0.0
N595 N 0.99787 0.45026 0.61067 0.0
C596 C 0.99105 0.40636 0.55774 0.0
C597 C 0.97534 0.42392 0.54535 0.0
C598 C 0.00994 0.41066 0.59852 0.0
C599 C 0.01277 0.43294 0.62549 0.0
C600 C 0.97892 0.44575 0.57249 0.0
N601 N 0.03131 0.45807 0.69983 0.0
C602 C 0.03019 0.43709 0.67064 0.0
C603 C 0.06183 0.44495 0.77049 0.0
C604 C 0.06177 0.42369 0.73835 0.0
C605 C 0.0461 0.46186 0.75151 0.0
C606 C 0.04546 0.41931 0.68897 0.0
H607 H 0.07385 0.41052 0.75353 0.0
O608 O 0.99664 0.47114 0.75837 0.0
O609 O 1.00401 0.52457 0.66436 0.0
O610 O 0.04729 0.52814 0.63087 0.0
O611 O 0.04318 0.48884 0.64542 0.0
O612 O 0.0172 0.50928 0.74708 0.0
O613 O 0.96952 0.48604 0.69933 0.0
O614 O 0.02462 0.54679 0.46741 0.0
O615 O 0.01792 0.49888 0.56849 0.0
O616 O 0.97484 0.4951 0.59453 0.0
O617 O 0.97767 0.53473 0.58835 0.0
O618 O 0.00754 0.51311 0.48135 0.0
O619 O 0.04969 0.55107 0.54626 0.0
C620 C 0.01171 0.52874 0.72163 0.0
C621 C 0.04343 0.39752 0.65946 0.0
C622 C 0.0256 0.39315 0.61467 0.0
C623 C 0.97577 0.47924 0.75787 0.0
C624 C 0.96972 0.4943 0.81417 0.0
C625 C 0.98119 0.49177 0.87486 0.0
C626 C 0.95386 0.51239 0.80651 0.0
C627 C 0.94957 0.52778 0.85865 0.0
C628 C 0.97723 0.50722 0.92639 0.0
C629 C 0.96153 0.52513 0.9185 0.0
C630 C 0.05576 0.50778 0.64788 0.0
C631 C 0.01202 0.49398 0.51006 0.0
C632 C 0.04567 0.55231 0.48305 0.0
C633 C 0.06337 0.54289 0.43987 0.0
C634 C 0.07515 0.55774 0.39779 0.0
C635 C 0.06826 0.51924 0.43929 0.0
C636 C 0.08513 0.51039 0.39662 0.0
C637 C 0.09193 0.54913 0.35546 0.0
C638 C 0.09701 0.52569 0.35501 0.0
C639 C 0.96568 0.51553 0.58173 0.0
H640 H 0.99357 0.47806 0.88217 0.0
H641 H 0.94462 0.51434 0.7604 0.0
H642 H 0.98632 0.50529 0.97268 0.0
H643 H 0.95859 0.53678 0.95949 0.0
H644 H 0.07137 0.576 0.39779 0.0
H645 H 0.05891 0.50788 0.47179 0.0
H646 H 0.10119 0.56067 0.32335 0.0
H647 H 0.11069 0.5197 0.32304 0.0
C648 C 0.13445 0.05946 0.24795 0.0
C649 C 0.15427 0.04559 0.25297 0.0
C650 C 0.11586 0.05724 0.29211 0.0
C651 C 0.1166 0.04043 0.34235 0.0
C652 C 0.13626 0.02605 0.34709 0.0
C653 C 0.1548 0.02889 0.30299 0.0
C654 C 0.09549 0.07317 0.2856 0.0
C655 C 0.13781 0.00776 0.39941 0.0
C656 C 0.07823 0.04601 0.49541 0.0
C657 C 0.06003 0.03099 0.48028 0.0
C658 C 0.09646 0.04959 0.45076 0.0
C659 C 0.09676 0.03769 0.38942 0.0
C660 C 0.0782 0.02278 0.37357 0.0
C661 C 0.06007 0.01976 0.4188 0.0
C662 C 0.11553 0.06596 0.46963 0.0
C663 C 0.07779 0.0095 0.30939 0.0
H664 H 0.13336 0.07218 0.20931 0.0
H665 H 0.16999 0.0183 0.30895 0.0
H666 H 0.07954 0.0631 0.27709 0.0
H667 H 0.09316 0.0829 0.33228 0.0
H668 H 0.09754 0.0856 0.24468 0.0
H669 H 0.15385 0.99744 0.39545 0.0
H670 H 0.13721 0.01585 0.44906 0.0
H671 H 0.12284 0.99599 0.39552 0.0
H672 H 0.07831 0.05491 0.54257 0.0
H673 H 0.04629 0.00794 0.40675 0.0
H674 H 0.1168 0.0798 0.43248 0.0
H675 H 0.13226 0.05676 0.47008 0.0
H676 H 0.11277 0.07393 0.51891 0.0
H677 H 0.0788 0.0215 0.2672 0.0
H678 H 0.06202 0.99888 0.30385 0.0
H679 H 0.09303 0.99803 0.30656 0.0
C680 C 0.45565 0.14236 0.27602 0.0
C681 C 0.47346 0.15865 0.27384 0.0
C682 C 0.457 0.12303 0.31747 0.0
C683 C 0.47674 0.11966 0.35748 0.0
C684 C 0.49489 0.13593 0.35494 0.0
C685 C 0.49298 0.15522 0.31357 0.0
C686 C 0.43699 0.10657 0.31973 0.0
C687 C 0.51635 0.13297 0.39613 0.0
C688 C 0.47453 0.08148 0.51021 0.0
C689 C 0.4858 0.06146 0.48831 0.0
C690 C 0.47111 0.10037 0.46811 0.0
C691 C 0.47859 0.09912 0.4017 0.0
C692 C 0.48865 0.07842 0.37822 0.0
C693 C 0.49205 0.05989 0.42159 0.0
C694 C 0.46027 0.12201 0.49548 0.0
C695 C 0.49659 0.07613 0.30766 0.0
H696 H 0.44032 0.14505 0.24651 0.0
H697 H 0.50688 0.16762 0.312 0.0
H698 H 0.42858 0.10789 0.36865 0.0
H699 H 0.42392 0.11027 0.28114 0.0
H700 H 0.443 0.08857 0.31358 0.0
H701 H 0.52893 0.14708 0.3886 0.0
H702 H 0.51179 0.13238 0.44918 0.0
H703 H 0.52479 0.11638 0.38361 0.0
H704 H 0.46881 0.08262 0.56092 0.0
H705 H 0.50028 0.04444 0.40337 0.0
H706 H 0.44546 0.12725 0.46441 0.0
H707 H 0.47296 0.13625 0.4945 0.0
H708 H 0.45428 0.11986 0.54704 0.0
H709 H 0.48219 0.08002 0.27348 0.0
H710 H 0.50323 0.05863 0.29622 0.0
H711 H 0.51044 0.08879 0.29798 0.0
C712 C 0.3723 0.49657 0.30412 0.0
C713 C 0.37326 0.47841 0.25827 0.0
C714 C 0.39078 0.5015 0.34703 0.0
C715 C 0.41096 0.48767 0.34598 0.0
C716 C 0.41219 0.46939 0.29928 0.0
C717 C 0.39342 0.46495 0.25646 0.0
C718 C 0.38792 0.52147 0.39388 0.0
C719 C 0.43361 0.4548 0.29348 0.0
C720 C 0.4665 0.51447 0.41402 0.0
C721 C 0.46992 0.5027 0.4735 0.0
C722 C 0.44758 0.5097 0.37251 0.0
C723 C 0.43116 0.49291 0.39088 0.0
C724 C 0.43434 0.48114 0.45151 0.0
C725 C 0.45397 0.48569 0.49107 0.0
C726 C 0.44526 0.5226 0.3085 0.0
C727 C 0.41694 0.46383 0.47487 0.0
H728 H 0.3568 0.50688 0.30766 0.0
H729 H 0.3947 0.45103 0.22089 0.0
H730 H 0.37674 0.51594 0.43503 0.0
H731 H 0.40445 0.52784 0.41384 0.0
H732 H 0.37905 0.53598 0.36904 0.0
H733 H 0.43256 0.44227 0.252 0.0
H734 H 0.44888 0.46593 0.28605 0.0
H735 H 0.43642 0.44515 0.33979 0.0
H736 H 0.47897 0.5273 0.3993 0.0
H737 H 0.45689 0.47586 0.53551 0.0
H738 H 0.42935 0.53318 0.30944 0.0
H739 H 0.44368 0.51028 0.26669 0.0
H740 H 0.46014 0.53411 0.29927 0.0
H741 H 0.39945 0.47154 0.4741 0.0
H742 H 0.42074 0.45776 0.52557 0.0
H743 H 0.41676 0.44879 0.44113 0.0
C744 C 0.00989 0.37381 0.30472 0.0
C745 C 0.02941 0.37076 0.2648 0.0
C746 C 0.00718 0.39324 0.34606 0.0
C747 C 0.02434 0.41071 0.34806 0.0
C748 C 0.04384 0.40806 0.3063 0.0
C749 C 0.04625 0.38815 0.26638 0.0
C750 C 0.98554 0.39437 0.38681 0.0
C751 C 0.06248 0.42605 0.30233 0.0
C752 C 1.00237 0.46888 0.41342 0.0
C753 C 0.01459 0.47181 0.4727 0.0
C754 C 0.00583 0.44959 0.37211 0.0
C755 C 0.02137 0.43196 0.39112 0.0
C756 C 0.03396 0.43492 0.45093 0.0
C757 C 0.03082 0.45499 0.49002 0.0
C758 C 0.99291 0.44829 0.30752 0.0
C759 C 0.05101 0.41706 0.4735 0.0
H760 H 0.99633 0.36104 0.30352 0.0
H761 H 0.06165 0.38622 0.23682 0.0
H762 H 0.98504 0.37938 0.42041 0.0
H763 H 0.98388 0.41032 0.4162 0.0
H764 H 0.97029 0.39291 0.35394 0.0
H765 H 0.06754 0.42876 0.25017 0.0
H766 H 0.05743 0.44287 0.32388 0.0
H767 H 0.07797 0.41965 0.3285 0.0
H768 H 0.99025 0.48206 0.39847 0.0
H769 H 0.04122 0.45761 0.53382 0.0
H770 H 0.9786 0.43579 0.31178 0.0
H771 H 1.0044 0.44231 0.26723 0.0
H772 H 0.98546 0.46519 0.29357 0.0
H773 H 0.0436 0.39954 0.46846 0.0
H774 H 0.0564 0.41989 0.52548 0.0
H775 H 0.06662 0.41785 0.44235 0.0
C776 C 0.86632 0.99393 0.93256 0.0
C777 C 0.86602 0.97651 0.9804 0.0
C778 C 0.88498 0.99643 0.8887 0.0
C779 C 0.904 0.98115 0.89213 0.0
C780 C 0.90395 0.96371 0.94062 0.0
C781 C 0.88512 0.96164 0.98398 0.0
C782 C 0.88423 0.01531 0.83798 0.0
C783 C 0.92371 0.94699 0.94608 0.0
C784 C 0.9423 0.97553 0.73903 0.0
C785 C 0.96087 0.99 0.75498 0.0
C786 C 0.92397 0.97213 0.78342 0.0
C787 C 0.92398 0.98359 0.84545 0.0
C788 C 0.94298 0.99777 0.86235 0.0
C789 C 0.96117 1.00069 0.81724 0.0
C790 C 0.90439 0.95654 0.76337 0.0
C791 C 0.94385 0.01037 0.9276 0.0
H792 H 0.85165 1.00533 0.92813 0.0
H793 H 0.88542 0.94828 0.02096 0.0
H794 H 0.89954 0.02656 0.84342 0.0
H795 H 0.88481 0.00772 0.78768 0.0
H796 H 0.8685 0.02607 0.8423 0.0
H797 H 0.92145 0.93472 0.98731 0.0
H798 H 0.92524 0.93712 0.8994 0.0
H799 H 0.94013 0.95639 0.95341 0.0
H800 H 0.94197 0.967 0.69135 0.0
H801 H 0.97528 0.01202 0.83008 0.0
H802 H 0.88803 0.96638 0.76276 0.0
H803 H 0.90244 0.94257 0.79989 0.0
H804 H 0.90705 0.9487 0.71387 0.0
H805 H 0.92914 0.02248 0.93119 0.0
H806 H 0.96007 0.02023 0.93422 0.0
H807 H 0.94222 0.998 0.96876 0.0
C808 C 0.53799 0.8888 0.01159 0.0
C809 C 0.55471 0.87225 0.99557 0.0
C810 C 0.53352 0.90757 0.9696 0.0
C811 C 0.54583 0.90976 0.90961 0.0
C812 C 0.56281 0.89312 0.89348 0.0
C813 C 0.56708 0.87475 0.93662 0.0
C814 C 0.51521 0.92476 0.9886 0.0
C815 C 0.57578 0.89369 0.82905 0.0
C816 C 0.51903 0.94074 0.76345 0.0
C817 C 0.53022 0.96209 0.76418 0.0
C818 C 0.5237 0.92386 0.81083 0.0
C819 C 0.53988 0.92838 0.86152 0.0
C820 C 0.55079 0.95025 0.86406 0.0
C821 C 0.54571 0.96688 0.81562 0.0
C822 C 0.51125 0.90111 0.80644 0.0
C823 C 0.56753 0.95648 0.9182 0.0
H824 H 0.5284 0.88708 0.05706 0.0
H825 H 0.57968 0.86182 0.92291 0.0
H826 H 0.52277 0.94226 0.99124 0.0
H827 H 0.50153 0.92508 0.95033 0.0
H828 H 0.50722 0.92077 0.0369 0.0
H829 H 0.59341 0.88655 0.83497 0.0
H830 H 0.56663 0.88276 0.79243 0.0
H831 H 0.57709 0.91126 0.80857 0.0
H832 H 0.50608 0.93734 0.72664 0.0
H833 H 0.55411 0.98352 0.81761 0.0
H834 H 0.50251 0.89742 0.8538 0.0
H835 H 0.52382 0.88708 0.79741 0.0
H836 H 0.49823 0.90076 0.76622 0.0
H837 H 0.55787 0.96424 0.95989 0.0
H838 H 0.58023 0.9694 0.90109 0.0
H839 H 0.57692 0.94127 0.93707 0.0
C840 C 0.62808 0.55075 0.97228 0.0
C841 C 0.64766 0.53646 0.97101 0.0
C842 C 0.60914 0.54686 0.92979 0.0
C843 C 0.60954 0.52826 0.88412 0.0
C844 C 0.62911 0.51359 0.88348 0.0
C845 C 0.64783 0.51795 0.9262 0.0
C846 C 0.58841 0.56241 0.93488 0.0
C847 C 0.63084 0.49355 0.83645 0.0
C848 C 0.55262 0.50378 0.81857 0.0
C849 C 0.54972 0.51513 0.7582 0.0
C850 C 0.57179 0.50796 0.8596 0.0
C851 C 0.58909 0.5236 0.83966 0.0
C852 C 0.58638 0.53505 0.77832 0.0
C853 C 0.56645 0.53121 0.7393 0.0
C854 C 0.57331 0.49584 0.92509 0.0
C855 C 0.60458 0.55133 0.75379 0.0
H856 H 0.62741 0.56492 0.00716 0.0
H857 H 0.66291 0.50702 0.92331 0.0
H858 H 0.58447 0.56999 0.88616 0.0
H859 H 0.57315 0.55223 0.94976 0.0
H860 H 0.59097 0.57656 0.97118 0.0
H861 H 0.64412 0.48095 0.85217 0.0
H862 H 0.61418 0.48446 0.83148 0.0
H863 H 0.63581 0.50017 0.78752 0.0
H864 H 0.53952 0.49177 0.83446 0.0
H865 H 0.56399 0.54073 0.69408 0.0
H866 H 0.57487 0.50868 0.96559 0.0
H867 H 0.58892 0.48487 0.9266 0.0
H868 H 0.55805 0.48486 0.93464 0.0
H869 H 0.6055 0.56664 0.78653 0.0
H870 H 0.60109 0.55714 0.70266 0.0
H871 H 0.62169 0.54284 0.75511 0.0
C872 C 0.97537 0.63158 0.97625 0.0
C873 C 0.99184 0.64933 0.97598 0.0
C874 C 0.97785 0.61159 0.93665 0.0
C875 C 0.99706 0.60921 0.89369 0.0
C876 C 0.0139 0.62696 0.89409 0.0
C877 C 0.0111 0.64651 0.93486 0.0
C878 C 0.95959 0.59325 0.94173 0.0
C879 C 0.03496 0.62615 0.8508 0.0
C880 C 0.0192 0.55164 0.82463 0.0
C881 C 0.00767 0.54967 0.76387 0.0
C882 C 0.01516 0.57025 0.86812 0.0
C883 C 0.99988 0.58818 0.84981 0.0
C884 C 0.98765 0.58595 0.78932 0.0
C885 C 0.99117 0.56645 0.74822 0.0
C886 C 0.02731 0.5707 0.93393 0.0
C887 C 0.97099 0.6043 0.7676 0.0
H888 H 0.96019 0.63333 0.00678 0.0
H889 H 0.02431 0.65964 0.93448 0.0
H890 H 0.94424 0.59855 0.91297 0.0
H891 H 0.96549 0.57632 0.9231 0.0
H892 H 0.95399 0.59127 0.99372 0.0
H893 H 0.0502 0.63289 0.87789 0.0
H894 H 0.03912 0.60869 0.83248 0.0
H895 H 0.03211 0.63756 0.80796 0.0
H896 H 0.03134 0.53837 0.83871 0.0
H897 H 0.98113 0.56443 0.70353 0.0
H898 H 0.01488 0.57467 0.97394 0.0
H899 H 0.04056 0.58443 0.93418 0.0
H900 H 0.03589 0.55408 0.94498 0.0
H901 H 0.95656 0.60554 0.803 0.0
H902 H 0.96376 0.60073 0.71785 0.0
H903 H 0.97971 0.62128 0.7672 0.0
C904 C 0.09239 0.19246 0.37511 0.0
C905 C 0.10963 0.19187 0.32671 0.0
C906 C 0.08593 0.17267 0.40891 0.0
C907 C 0.09699 0.15154 0.39434 0.0
C908 C 0.11619 0.15122 0.35149 0.0
C909 C 0.12226 0.17143 0.31784 0.0
C910 C 0.06546 0.17406 0.45488 0.0
C911 C 0.12927 0.12936 0.33687 0.0
C912 C 0.06852 0.11047 0.50843 0.0
C913 C 0.04913 0.10497 0.47032 0.0
C914 C 0.08698 0.12255 0.48062 0.0
C915 C 0.08526 0.13003 0.41456 0.0
C916 C 0.06723 0.12158 0.37396 0.0
C917 C 0.04942 0.10888 0.4024 0.0
C918 C 0.10692 0.1296 0.52383 0.0
C919 C 0.06496 0.12859 0.30271 0.0
H920 H 0.08225 0.20788 0.38259 0.0
H921 H 0.13605 0.17083 0.28201 0.0
H922 H 0.05088 0.16408 0.43391 0.0
H923 H 0.06981 0.16654 0.50341 0.0
H924 H 0.05957 0.19203 0.46319 0.0
H925 H 0.14782 0.1331 0.32932 0.0
H926 H 0.12753 0.11658 0.37691 0.0
H927 H 0.12263 0.12158 0.29051 0.0
H928 H 0.06854 0.10676 0.56078 0.0
H929 H 0.03453 0.10427 0.37282 0.0
H930 H 0.10392 0.14721 0.54336 0.0
H931 H 0.12318 0.12981 0.49519 0.0
H932 H 0.10892 0.11781 0.56636 0.0
H933 H 0.05906 0.14674 0.30033 0.0
H934 H 0.05237 0.11768 0.2756 0.0
H935 H 0.08179 0.12746 0.27731 0.0
C936 C 0.33359 0.11146 0.43628 0.0
C937 C 0.33749 0.10849 0.36851 0.0
C938 C 0.34786 0.10067 0.4827 0.0
C939 C 0.36583 0.08621 0.46016 0.0
C940 C 0.37186 0.08615 0.39253 0.0
C941 C 0.35777 0.09766 0.34754 0.0
C942 C 0.34174 0.10224 0.55478 0.0
C943 C 0.3907 0.07076 0.36594 0.0
C944 C 0.40563 0.04672 0.55336 0.0
C945 C 0.39425 0.02563 0.54414 0.0
C946 C 0.39553 0.06738 0.53268 0.0
C947 C 0.3738 0.06675 0.50128 0.0
C948 C 0.36133 0.04581 0.49802 0.0
C949 C 0.37172 0.02552 0.51973 0.0
C950 C 0.40892 0.08947 0.53938 0.0
C951 C 0.33795 0.04432 0.46536 0.0
H952 H 0.31815 0.12026 0.45271 0.0
H953 H 0.36095 0.09537 0.29524 0.0
H954 H 0.32958 0.08823 0.56715 0.0
H955 H 0.35719 0.10038 0.58654 0.0
H956 H 0.33318 0.11888 0.5663 0.0
H957 H 0.39549 0.07531 0.31466 0.0
H958 H 0.40629 0.07164 0.3974 0.0
H959 H 0.38463 0.05266 0.36581 0.0
H960 H 0.42289 0.04694 0.57374 0.0
H961 H 0.36283 0.00932 0.51245 0.0
H962 H 0.39739 0.10404 0.55218 0.0
H963 H 0.41718 0.09348 0.49161 0.0
H964 H 0.42264 0.08813 0.57742 0.0
H965 H 0.32613 0.05737 0.48656 0.0
H966 H 0.32997 0.0271 0.47106 0.0
H967 H 0.33963 0.0479 0.41188 0.0
C968 C 0.39154 0.36413 0.31035 0.0
C969 C 0.39881 0.34129 0.31822 0.0
C970 C 0.39976 0.38153 0.35258 0.0
C971 C 0.41633 0.37589 0.40114 0.0
C972 C 0.42062 0.35245 0.41572 0.0
C973 C 0.41145 0.33537 0.37445 0.0
C974 C 0.39288 0.40609 0.33948 0.0
C975 C 0.43777 0.34545 0.46803 0.0
C976 C 0.47305 0.40676 0.40403 0.0
C977 C 0.4745 0.41311 0.4703 0.0
C978 C 0.4531 0.39647 0.37898 0.0
C979 C 0.43395 0.39309 0.42126 0.0
C980 C 0.43445 0.40226 0.48612 0.0
C981 C 0.45504 0.4117 0.51057 0.0
C982 C 0.45349 0.38721 0.30913 0.0
C983 C 0.41394 0.4009 0.53128 0.0
H984 H 0.38128 0.3687 0.26765 0.0
H985 H 0.41689 0.31768 0.38104 0.0
H986 H 0.39611 0.41739 0.3828 0.0
H987 H 0.40276 0.41268 0.29692 0.0
H988 H 0.37436 0.40704 0.32611 0.0
H989 H 0.43794 0.32656 0.47602 0.0
H990 H 0.45532 0.35086 0.45319 0.0
H991 H 0.43375 0.35403 0.51553 0.0
H992 H 0.48823 0.40806 0.37325 0.0
H993 H 0.45619 0.417 0.56174 0.0
H994 H 0.43918 0.39476 0.28023 0.0
H995 H 0.45114 0.36827 0.30924 0.0
H996 H 0.46987 0.39114 0.28341 0.0
H997 H 0.39757 0.3992 0.50337 0.0
H998 H 0.41298 0.41646 0.56327 0.0
H999 H 0.41583 0.38589 0.5643 0.0
C1000 C 0.18257 0.4403 0.39855 0.0
C1001 C 0.18493 0.41911 0.36581 0.0
C1002 C 0.16109 0.44803 0.42016 0.0
C1003 C 0.14145 0.43403 0.40964 0.0
C1004 C 0.14436 0.41109 0.38741 0.0
C1005 C 0.1661 0.40394 0.36468 0.0
C1006 C 0.15916 0.47248 0.44563 0.0
C1007 C 0.12434 0.39471 0.38187 0.0
C1008 C 0.09417 0.47388 0.45778 0.0
C1009 C 0.09185 0.48573 0.39791 0.0
C1010 C 0.10718 0.45353 0.46085 0.0
C1011 C 0.11882 0.44578 0.40372 0.0
C1012 C 0.1131 0.4554 0.34177 0.0
C1013 C 0.09927 0.47504 0.33965 0.0
C1014 C 0.11046 0.44198 0.52647 0.0
C1015 C 0.12388 0.44686 0.27844 0.0
H1016 H 0.19691 0.45218 0.40055 0.0
H1017 H 0.16791 0.38713 0.34187 0.0
H1018 H 0.14913 0.48304 0.41032 0.0
H1019 H 0.15003 0.47284 0.49349 0.0
H1020 H 0.17624 0.48071 0.45282 0.0
H1021 H 0.12957 0.37739 0.39923 0.0
H1022 H 0.10925 0.40059 0.41091 0.0
H1023 H 0.11919 0.39284 0.32941 0.0
H1024 H 0.08767 0.48137 0.50313 0.0
H1025 H 0.09607 0.48326 0.29268 0.0
H1026 H 0.12355 0.45148 0.55572 0.0
H1027 H 0.11619 0.42386 0.52057 0.0
H1028 H 0.09416 0.44234 0.55496 0.0
H1029 H 0.14275 0.44979 0.27979 0.0
H1030 H 0.11675 0.45564 0.23437 0.0
H1031 H 0.12093 0.42814 0.2726 0.0
C1032 C 0.92902 0.82872 0.86088 0.0
C1033 C 0.91176 0.82911 0.90923 0.0
C1034 C 0.93529 0.84859 0.82713 0.0
C1035 C 0.92403 0.86961 0.84182 0.0
C1036 C 0.90481 0.86971 0.88458 0.0
C1037 C 0.89892 0.84941 0.91809 0.0
C1038 C 0.95573 0.84741 0.78105 0.0
C1039 C 0.8915 0.89141 0.89934 0.0
C1040 C 0.97139 0.91245 0.83418 0.0
C1041 C 0.97166 0.91643 0.76628 0.0
C1042 C 0.9536 0.89971 0.86254 0.0
C1043 C 0.9356 0.89124 0.82189 0.0
C1044 C 0.93381 0.89884 0.75597 0.0
C1045 C 0.95223 0.91098 0.72821 0.0
C1046 C 0.95586 0.89267 0.93378 0.0
C1047 C 0.91387 0.89181 0.71277 0.0
H1048 H 0.93933 0.81341 0.85337 0.0
H1049 H 0.88509 0.84986 0.95382 0.0
H1050 H 0.95131 0.85502 0.73268 0.0
H1051 H 0.97027 0.85743 0.80216 0.0
H1052 H 0.96172 0.8295 0.7724 0.0
H1053 H 0.87289 0.88752 0.90472 0.0
H1054 H 0.8975 0.89876 0.94698 0.0
H1055 H 0.89365 0.90457 0.86049 0.0
H1056 H 0.98629 0.91704 0.86375 0.0
H1057 H 0.95219 0.91474 0.6759 0.0
H1058 H 0.96196 0.8746 0.93612 0.0
H1059 H 0.93898 0.89361 0.959 0.0
H1060 H 0.9683 0.90371 0.96105 0.0
H1061 H 0.91702 0.87433 0.6925 0.0
H1062 H 0.9117 0.90379 0.67072 0.0
H1063 H 0.89765 0.89132 0.74157 0.0
C1064 C 0.69239 0.91985 0.82811 0.0
C1065 C 0.68248 0.91518 0.88965 0.0
C1066 C 0.67914 0.92992 0.77794 0.0
C1067 C 0.65614 0.9363 0.79165 0.0
C1068 C 0.64519 0.92736 0.84821 0.0
C1069 C 0.65846 0.91598 0.89556 0.0
C1070 C 0.69075 0.93722 0.7151 0.0
C1071 C 0.62084 0.93378 0.86597 0.0
C1072 C 0.64386 0.99939 0.76552 0.0
C1073 C 0.62635 0.99872 0.71841 0.0
C1074 C 0.65387 0.97913 0.78863 0.0
C1075 C 0.64676 0.95763 0.76189 0.0
C1076 C 0.62969 0.95696 0.71192 0.0
C1077 C 0.61931 0.9776 0.69163 0.0
C1078 C 0.67144 0.98084 0.84367 0.0
C1079 C 0.62245 0.93463 0.67973 0.0
H1080 H 0.71086 0.91851 0.82179 0.0
H1081 H 0.65057 0.91128 0.94199 0.0
H1082 H 0.67842 0.93702 0.67319 0.0
H1083 H 0.69735 0.95502 0.72094 0.0
H1084 H 0.70555 0.92581 0.70328 0.0
H1085 H 0.61304 0.92075 0.89891 0.0
H1086 H 0.62107 0.95048 0.89283 0.0
H1087 H 0.60985 0.93583 0.82174 0.0
H1088 H 0.64902 0.01582 0.78643 0.0
H1089 H 0.60572 0.97728 0.655 0.0
H1090 H 0.68835 0.9744 0.82629 0.0
H1091 H 0.66611 0.97009 0.88598 0.0
H1092 H 0.67377 0.99878 0.86164 0.0
H1093 H 0.6359 0.9293 0.64401 0.0
H1094 H 0.60591 0.93642 0.65265 0.0
H1095 H 0.62073 0.92066 0.71636 0.0
C1096 C 0.62158 0.66088 0.89664 0.0
C1097 C 0.6092 0.6816 0.89192 0.0
C1098 C 0.6126 0.64032 0.87014 0.0
C1099 C 0.59061 0.6406 0.83999 0.0
C1100 C 0.57992 0.66196 0.82627 0.0
C1101 C 0.58945 0.68216 0.852 0.0
C1102 C 0.62558 0.61817 0.88087 0.0
C1103 C 0.55652 0.66336 0.79353 0.0
C1104 C 0.54822 0.59697 0.77846 0.0
C1105 C 0.53382 0.59603 0.8339 0.0
C1106 C 0.56942 0.60855 0.78187 0.0
C1107 C 0.57568 0.6199 0.84122 0.0
C1108 C 0.56282 0.61586 0.89932 0.0
C1109 C 0.5422 0.60364 0.89495 0.0
C1110 C 0.58391 0.6105 0.72059 0.0
C1111 C 0.56922 0.62677 0.96469 0.0
H1112 H 0.63737 0.66034 0.92518 0.0
H1113 H 0.5797 0.69795 0.84724 0.0
H1114 H 0.62367 0.61271 0.93288 0.0
H1115 H 0.61935 0.60411 0.84816 0.0
H1116 H 0.64424 0.62085 0.87203 0.0
H1117 H 0.55144 0.68135 0.78241 0.0
H1118 H 0.55635 0.65342 0.74679 0.0
H1119 H 0.5433 0.65586 0.82644 0.0
H1120 H 0.5422 0.59039 0.73135 0.0
H1121 H 0.53161 0.60177 0.93855 0.0
H1122 H 0.58064 0.59591 0.68617 0.0
H1123 H 0.60249 0.61098 0.73332 0.0
H1124 H 0.57962 0.62661 0.69431 0.0
H1125 H 0.58727 0.6226 0.97755 0.0
H1126 H 0.558 0.62086 1.0055 0.0
H1127 H 0.56775 0.64576 0.9613 0.0
C1128 C 0.85378 0.62115 0.90038 0.0
C1129 C 0.83342 0.60876 0.88937 0.0
C1130 C 0.87461 0.61352 0.87304 0.0
C1131 C 0.87479 0.59289 0.83566 0.0
C1132 C 0.85368 0.58345 0.81334 0.0
C1133 C 0.83303 0.59171 0.84032 0.0
C1134 C 0.89668 0.62508 0.89403 0.0
C1135 C 0.85298 0.5619 0.77156 0.0
C1136 C 0.9294 0.5592 0.79604 0.0
C1137 C 0.93137 0.54547 0.8525 0.0
C1138 C 0.91152 0.5754 0.79003 0.0
C1139 C 0.89506 0.5774 0.84108 0.0
C1140 C 0.89717 0.56356 0.89822 0.0
C1141 C 0.91535 0.54797 0.90324 0.0
C1142 C 0.91059 0.59056 0.72998 0.0
C1143 C 0.88013 0.56494 0.95433 0.0
H1144 H 0.85399 0.63468 0.93742 0.0
H1145 H 0.81722 0.58233 0.83104 0.0
H1146 H 0.90325 0.61681 0.93952 0.0
H1147 H 0.91007 0.62339 0.85538 0.0
H1148 H 0.89381 0.6436 0.90502 0.0
H1149 H 0.83612 0.55995 0.7462 0.0
H1150 H 0.86684 0.56186 0.73409 0.0
H1151 H 0.8556 0.54673 0.80373 0.0
H1152 H 0.94189 0.55736 0.75681 0.0
H1153 H 0.91665 0.53716 0.94647 0.0
H1154 H 0.91609 0.60819 0.74401 0.0
H1155 H 0.89281 0.59188 0.71039 0.0
H1156 H 0.92212 0.58424 0.69017 0.0
H1157 H 0.88124 0.58212 0.97811 0.0
H1158 H 0.88339 0.55177 0.99269 0.0
H1159 H 0.86232 0.5626 0.93569 0.0
C1160 C 0.02635 0.15132 0.91839 0.0
C1161 C 0.02244 0.17269 0.8884 0.0
C1162 C 0.02413 0.1304 0.88324 0.0
C1163 C 0.01801 0.13045 0.81538 0.0
C1164 C 0.01422 0.15205 0.7846 0.0
C1165 C 0.0166 0.17277 0.8211 0.0
C1166 C 0.02899 0.1084 0.91948 0.0
C1167 C 0.00675 0.1533 0.71355 0.0
C1168 C 0.0267 0.07678 0.70421 0.0
C1169 C 1.00517 0.06593 0.70839 0.0
C1170 C 0.03139 0.0974 0.73967 0.0
C1171 C 0.01387 0.10807 0.77818 0.0
C1172 C 0.99206 0.09721 0.78155 0.0
C1173 C 0.9881 0.0764 0.74727 0.0
C1174 C 0.05511 0.10774 0.73595 0.0
C1175 C 0.97275 0.10765 0.82141 0.0
H1176 H 0.03148 0.15088 0.9698 0.0
H1177 H 0.01333 0.18906 0.79719 0.0
H1178 H 0.01866 0.09382 0.90039 0.0
H1179 H 0.04748 0.10428 0.91333 0.0
H1180 H 0.02562 0.1103 0.97314 0.0
H1181 H 0.00644 0.17123 0.69496 0.0
H1182 H 0.01843 0.14295 0.68204 0.0
H1183 H 0.98921 0.14596 0.70869 0.0
H1184 H 0.03979 0.06933 0.67265 0.0
H1185 H 0.97128 0.06841 0.75011 0.0
H1186 H 0.06225 0.10988 0.78644 0.0
H1187 H 0.05416 0.12506 0.71349 0.0
H1188 H 0.06712 0.09694 0.70647 0.0
H1189 H 0.97774 0.10835 0.87424 0.0
H1190 H 0.9565 0.09772 0.81678 0.0
H1191 H 0.96951 0.12557 0.80525 0.0
C1192 C 0.37165 0.04199 0.90956 0.0
C1193 C 0.35034 0.03582 0.88222 0.0
C1194 C 0.3925 0.03695 0.87714 0.0
C1195 C 0.39233 0.02606 0.81433 0.0
C1196 C 0.37071 0.02002 0.78614 0.0
C1197 C 0.35004 0.02468 0.82067 0.0
C1198 C 0.41473 0.04356 0.91022 0.0
C1199 C 0.36942 0.00879 0.71915 0.0
C1200 C 0.4461 0.03 0.7036 0.0
C1201 C 0.45637 0.00837 0.71255 0.0
C1202 C 0.42553 0.03614 0.73675 0.0
C1203 C 0.41467 0.02022 0.77955 0.0
C1204 C 0.42524 0.99848 0.78917 0.0
C1205 C 0.4457 0.99281 0.75535 0.0
C1206 C 0.41519 0.05955 0.72485 0.0
C1207 C 0.41484 0.98105 0.83516 0.0
H1208 H 0.372 0.05067 0.95704 0.0
H1209 H 0.33361 0.02007 0.79893 0.0
H1210 H 0.42699 0.02894 0.90904 0.0
H1211 H 0.42246 0.05808 0.88303 0.0
H1212 H 0.41223 0.04901 0.96232 0.0
H1213 H 0.35142 0.00571 0.70287 0.0
H1214 H 0.37806 0.01985 0.68236 0.0
H1215 H 0.3787 0.99211 0.71998 0.0
H1216 H 0.45385 0.04197 0.66952 0.0
H1217 H 0.45336 0.97598 0.76212 0.0
H1218 H 0.41235 0.06863 0.77238 0.0
H1219 H 0.39815 0.05759 0.70061 0.0
H1220 H 0.42632 0.07043 0.69335 0.0
H1221 H 0.41288 0.98868 0.88513 0.0
H1222 H 0.42547 0.96523 0.83903 0.0
H1223 H 0.39741 0.97618 0.81758 0.0
C1224 C 0.48924 0.35572 0.87633 0.0
C1225 C 0.48665 0.33433 0.8448 0.0
C1226 C 0.49252 0.37598 0.84007 0.0
C1227 C 0.49386 0.37487 0.77035 0.0
C1228 C 0.49176 0.35323 0.73818 0.0
C1229 C 0.48783 0.33326 0.77574 0.0
C1230 C 0.494 0.39868 0.87642 0.0
C1231 C 0.49365 0.3512 0.66417 0.0
C1232 C 0.48025 0.43072 0.68097 0.0
C1233 C 0.50208 0.44081 0.67533 0.0
C1234 C 0.47735 0.40899 0.70972 0.0
C1235 C 0.49686 0.39656 0.73177 0.0
C1236 C 0.5191 0.40595 0.72197 0.0
C1237 C 0.52143 0.42807 0.69478 0.0
C1238 C 0.45325 0.39997 0.71964 0.0
C1239 C 0.54045 0.39294 0.74203 0.0
H1240 H 0.48797 0.35669 0.92961 0.0
H1241 H 0.48583 0.31676 0.7512 0.0
H1242 H 0.51075 0.40705 0.86627 0.0
H1243 H 0.48028 0.41044 0.85869 0.0
H1244 H 0.49218 0.39669 0.9306 0.0
H1245 H 0.51036 0.35833 0.64766 0.0
H1246 H 0.49229 0.3331 0.64675 0.0
H1247 H 0.47989 0.36143 0.64018 0.0
H1248 H 0.4652 0.44011 0.66457 0.0
H1249 H 0.53844 0.43549 0.68977 0.0
H1250 H 0.44921 0.40002 0.7731 0.0
H1251 H 0.45183 0.38196 0.7018 0.0
H1252 H 0.44014 0.41054 0.69378 0.0
H1253 H 0.54155 0.39228 0.7966 0.0
H1254 H 0.55637 0.40109 0.72303 0.0
H1255 H 0.53964 0.37495 0.72357 0.0
C1256 C 0.15915 0.48298 0.89622 0.0
C1257 C 0.18148 0.48742 0.87332 0.0
C1258 C 0.13955 0.4878 0.85749 0.0
C1259 C 0.14216 0.49675 0.793 0.0
C1260 C 0.16472 0.50142 0.76972 0.0
C1261 C 0.18406 0.49696 0.81037 0.0
C1262 C 0.11602 0.48278 0.88524 0.0
C1263 C 0.16846 0.51053 0.70112 0.0
C1264 C 0.09145 0.48516 0.67586 0.0
C1265 C 0.07932 0.50607 0.67767 0.0
C1266 C 0.11216 0.48213 0.71129 0.0
C1267 C 0.12126 0.50048 0.74979 0.0
C1268 C 0.10946 0.5219 0.75003 0.0
C1269 C 0.0888 0.52446 0.71381 0.0
C1270 C 0.12403 0.45905 0.70863 0.0
C1271 C 0.11808 0.54182 0.79117 0.0
H1272 H 0.15702 0.47559 0.94478 0.0
H1273 H 0.20126 0.50022 0.7921 0.0
H1274 H 0.10456 0.49791 0.87948 0.0
H1275 H 0.10813 0.46829 0.85752 0.0
H1276 H 0.11673 0.47813 0.93825 0.0
H1277 H 0.18691 0.5139 0.69081 0.0
H1278 H 0.16191 0.49792 0.66433 0.0
H1279 H 0.15863 0.5267 0.6942 0.0
H1280 H 0.0844 0.47087 0.64783 0.0
H1281 H 0.07951 0.54061 0.71635 0.0
H1282 H 0.12662 0.4523 0.75913 0.0
H1283 H 0.14129 0.46101 0.68603 0.0
H1284 H 0.1141 0.44614 0.67971 0.0
H1285 H 0.11724 0.53729 0.84418 0.0
H1286 H 0.10782 0.55771 0.78322 0.0
H1287 H 0.13635 0.54547 0.77956 0.0
C1288 C 1.00386 0.84807 0.41641 0.0
C1289 C 0.99805 0.84804 0.3491 0.0
C1290 C 0.00625 0.86885 0.45261 0.0
C1291 C 1.00249 0.8904 0.42151 0.0
C1292 C 0.99636 0.89033 0.35365 0.0
C1293 C 0.99414 0.86935 0.31879 0.0
C1294 C 0.01373 0.86771 0.52367 0.0
C1295 C 0.99148 0.91226 0.3171 0.0
C1296 C 0.994 0.9443 0.53184 0.0
C1297 C 0.01556 0.95508 0.5274 0.0
C1298 C 0.98924 0.92363 0.49673 0.0
C1299 C 0.00671 0.91283 0.45832 0.0
C1300 C 0.02854 0.92363 0.45466 0.0
C1301 C 0.03258 0.94449 0.48859 0.0
C1302 C 0.96548 0.91337 0.50071 0.0
C1303 C 0.0478 0.91306 0.41486 0.0
H1304 H 0.0071 0.83181 0.44055 0.0
H1305 H 0.98903 0.8697 0.26736 0.0
H1306 H 0.03131 0.87498 0.52837 0.0
H1307 H 1.00211 0.87819 0.55502 0.0
H1308 H 0.01396 0.84982 0.54258 0.0
H1309 H 0.99491 0.91029 0.2635 0.0
H1310 H 0.97298 0.91634 0.32303 0.0
H1311 H 1.00175 0.92691 0.3361 0.0
H1312 H 0.98095 0.95185 0.56335 0.0
H1313 H 0.04942 0.95242 0.48556 0.0
H1314 H 0.96639 0.8961 0.52349 0.0
H1315 H 0.95832 0.91114 0.45027 0.0
H1316 H 0.95352 0.92427 0.53002 0.0
H1317 H 0.051 0.89517 0.43128 0.0
H1318 H 0.06408 0.92295 0.41927 0.0
H1319 H 0.04278 0.91228 0.36206 0.0
C1320 C 0.65543 0.99567 0.34183 0.0
C1321 C 0.67606 0.99238 0.37662 0.0
C1322 C 0.63432 0.99912 0.37445 0.0
C1323 C 0.63349 0.99968 0.44457 0.0
C1324 C 0.65441 0.99639 0.4801 0.0
C1325 C 0.67523 0.99243 0.4458 0.0
C1326 C 0.61319 1.00195 0.33182 0.0
C1327 C 0.65548 0.99733 0.55439 0.0
C1328 C 0.58089 0.03263 0.50841 0.0
C1329 C 0.56748 0.01537 0.53758 0.0
C1330 C 0.60269 0.02792 0.48136 0.0
C1331 C 0.61116 1.00504 0.47974 0.0
C1332 C 0.59788 0.98753 0.5101 0.0
C1333 C 0.57665 0.99306 0.54063 0.0
C1334 C 0.61661 0.04755 0.45398 0.0
C1335 C 0.60596 0.96289 0.5097 0.0
H1336 H 0.65567 0.99518 0.28836 0.0
H1337 H 0.69102 0.98989 0.47342 0.0
H1338 H 0.61027 0.98581 0.30346 0.0
H1339 H 0.59738 0.00611 0.35966 0.0
H1340 H 0.61618 0.01576 0.29526 0.0
H1341 H 0.67007 0.00833 0.57062 0.0
H1342 H 0.63951 1.00399 0.57709 0.0
H1343 H 0.65882 0.97979 0.57356 0.0
H1344 H 0.57441 0.05012 0.50738 0.0
H1345 H 0.56711 0.97984 0.56617 0.0
H1346 H 0.61619 0.04682 0.39932 0.0
H1347 H 0.63486 0.04618 0.46989 0.0
H1348 H 0.6098 0.06455 0.46998 0.0
H1349 H 0.61011 0.95739 0.45856 0.0
H1350 H 0.59287 0.95103 0.53026 0.0
H1351 H 0.6219 0.9613 0.53944 0.0
C1352 C 0.53344 0.65847 0.33848 0.0
C1353 C 0.53487 0.68051 0.36713 0.0
C1354 C 0.5301 0.63871 0.37704 0.0
C1355 C 0.52804 0.6408 0.44642 0.0
C1356 C 0.52938 0.66297 0.47585 0.0
C1357 C 0.53284 0.68249 0.43601 0.0
C1358 C 0.5291 0.61547 0.34342 0.0
C1359 C 0.52725 0.66602 0.54954 0.0
C1360 C 0.49995 0.58957 0.53206 0.0
C1361 C 0.51918 0.57683 0.55265 0.0
C1362 C 0.50254 0.61083 0.49978 0.0
C1363 C 0.52488 0.61967 0.48768 0.0
C1364 C 0.54428 0.60736 0.51112 0.0
C1365 C 0.54119 0.58624 0.54344 0.0
C1366 C 0.48135 0.62338 0.47622 0.0
C1367 C 0.56844 0.61595 0.49959 0.0
H1368 H 0.53547 0.65655 0.28563 0.0
H1369 H 0.53379 0.69937 0.45881 0.0
H1370 H 0.54323 0.60439 0.36194 0.0
H1371 H 0.51265 0.60677 0.35528 0.0
H1372 H 0.53061 0.61674 0.28897 0.0
H1373 H 0.52832 0.68436 0.56489 0.0
H1374 H 0.51061 0.65889 0.56663 0.0
H1375 H 0.54111 0.65632 0.57487 0.0
H1376 H 0.48286 0.58257 0.53902 0.0
H1377 H 0.55619 0.5768 0.56006 0.0
H1378 H 0.48096 0.6234 0.42152 0.0
H1379 H 0.4818 0.64158 0.49289 0.0
H1380 H 0.46523 0.61534 0.49429 0.0
H1381 H 0.57237 0.61513 0.44611 0.0
H1382 H 0.58151 0.60561 0.52637 0.0
H1383 H 0.57003 0.63418 0.51537 0.0
C1384 C 0.85512 0.54517 0.36241 0.0
C1385 C 0.83491 0.53328 0.37863 0.0
C1386 C 0.87594 0.54136 0.39651 0.0
C1387 C 0.87666 0.52571 0.44986 0.0
C1388 C 0.85618 0.51381 0.46696 0.0
C1389 C 0.83569 0.51745 0.43054 0.0
C1390 C 0.8972 0.55421 0.37537 0.0
C1391 C 0.8558 0.49766 0.52484 0.0
C1392 C 0.93537 0.5015 0.50258 0.0
C1393 C 0.94215 0.51695 0.55235 0.0
C1394 C 0.91414 0.50403 0.46931 0.0
C1395 C 0.8988 0.522 0.48758 0.0
C1396 C 0.9053 0.53712 0.53968 0.0
C1397 C 0.92703 0.53474 0.57025 0.0
C1398 C 0.90857 0.48802 0.41264 0.0
C1399 C 0.88959 0.55624 0.56243 0.0
H1400 H 0.85468 0.55735 0.32215 0.0
H1401 H 0.82012 0.50833 0.44368 0.0
H1402 H 0.90222 0.56665 0.41447 0.0
H1403 H 0.91178 0.54209 0.3684 0.0
H1404 H 0.89448 0.56381 0.32882 0.0
H1405 H 0.83852 0.49001 0.53271 0.0
H1406 H 0.86839 0.48356 0.5172 0.0
H1407 H 0.86102 0.50705 0.57029 0.0
H1408 H 0.94717 0.48802 0.48746 0.0
H1409 H 0.93221 0.54684 0.60842 0.0
H1410 H 0.90676 0.49809 0.36658 0.0
H1411 H 0.8919 0.47931 0.42131 0.0
H1412 H 0.92207 0.47472 0.4051 0.0
H1413 H 0.89115 0.57101 0.5284 0.0
H1414 H 0.89414 0.5623 0.6128 0.0
H1415 H 0.87133 0.55064 0.56241 0.0
loop_
_geom_bond_atom_site_label_1
_geom_bond_atom_site_label_2
_geom_bond_distance
_geom_bond_site_symmetry_2
_ccdc_geom_bond_type
C0 C1 1.386 1_556 S
C0 C2 1.397 1_556 S
C0 H24 0.931 . S
C1 C0 1.386 1_554 S
C1 C5 1.397 . S
C2 C0 1.397 1_554 S
C2 C3 1.384 . S
C2 H25 0.930 . S
C3 C2 1.384 . S
C3 C4 1.377 . S
C3 C6 1.481 . S
C4 C3 1.377 . S
C4 C5 1.389 . S
C4 H26 0.929 . S
C5 C1 1.397 . S
C5 C4 1.389 . S
C5 H27 0.931 . S
C6 C3 1.481 . S
C6 C7 1.387 . S
C6 C11 1.390 . S
C7 C6 1.387 . S
C7 C8 1.401 . S
C7 H28 0.930 . S
C8 C7 1.401 . S
C8 C9 1.376 . S
C8 C17 1.511 . S
C9 C8 1.376 . S
C9 C10 1.392 . S
C9 H30 0.931 . S
C10 C9 1.392 . S
C10 C11 1.361 . S
C10 C12 1.500 . S
C11 C6 1.390 . S
C11 C10 1.361 . S
C11 H29 0.931 . S
C12 C10 1.500 . S
C12 C13 1.371 . S
C12 C14 1.365 . S
C13 C12 1.371 . S
C13 C23 1.386 . S
C13 H31 0.931 . S
C14 C12 1.365 . S
C14 C15 1.409 . S
C14 H32 0.929 . S
C15 C14 1.409 . S
C15 C16 1.380 . S
C15 H33 0.930 . S
C16 C15 1.380 . S
C16 C23 1.357 . S
C17 C8 1.511 . S
C17 C18 1.341 . S
C17 C19 1.371 . S
C18 C17 1.341 . S
C18 C22 1.394 . S
C18 H34 0.930 . S
C19 C17 1.371 . S
C19 C20 1.392 . S
C19 H35 0.931 . S
C20 C19 1.392 . S
C20 C21 1.331 . S
C20 H38 0.932 . S
C21 C20 1.331 . S
C21 C22 1.336 . S
C22 C18 1.394 . S
C22 C21 1.336 . S
C22 H37 0.929 . S
C23 C13 1.386 . S
C23 C16 1.357 . S
C23 H36 0.928 . S
H24 C0 0.931 . S
H25 C2 0.930 . S
H26 C4 0.929 . S
H27 C5 0.931 . S
H28 C7 0.930 . S
H29 C11 0.931 . S
H30 C9 0.931 . S
H31 C13 0.931 . S
H32 C14 0.929 . S
H33 C15 0.930 . S
H34 C18 0.930 . S
H35 C19 0.931 . S
H36 C23 0.928 . S
H37 C22 0.929 . S
H38 C20 0.932 . S
C39 C40 1.386 . S
C39 C41 1.397 . S
C39 H63 0.931 1_554 S
C40 C39 1.386 . S
C40 C44 1.397 . S
C41 C39 1.397 . S
C41 C42 1.384 . S
C41 H64 0.930 . S
C42 C41 1.384 . S
C42 C43 1.377 . S
C42 C45 1.481 . S
C43 C42 1.377 . S
C43 C44 1.389 . S
C43 H65 0.929 . S
C44 C40 1.397 . S
C44 C43 1.389 . S
C44 H66 0.931 . S
C45 C42 1.481 . S
C45 C46 1.387 . S
C45 C50 1.390 . S
C46 C45 1.387 . S
C46 C47 1.401 . S
C46 H67 0.930 . S
C47 C46 1.401 . S
C47 C48 1.376 . S
C47 C56 1.511 . S
C48 C47 1.376 . S
C48 C49 1.392 . S
C48 H69 0.931 . S
C49 C48 1.392 . S
C49 C50 1.361 . S
C49 C51 1.500 . S
C50 C45 1.390 . S
C50 C49 1.361 . S
C50 H68 0.931 . S
C51 C49 1.500 . S
C51 C52 1.371 . S
C51 C53 1.365 . S
C52 C51 1.371 . S
C52 C62 1.386 . S
C52 H70 0.931 . S
C53 C51 1.365 . S
C53 C54 1.409 . S
C53 H71 0.929 . S
C54 C53 1.409 . S
C54 C55 1.380 . S
C54 H72 0.930 . S
C55 C54 1.380 . S
C55 C62 1.357 . S
C56 C47 1.511 . S
C56 C57 1.341 . S
C56 C58 1.371 . S
C57 C56 1.341 . S
C57 C61 1.394 . S
C57 H73 0.930 . S
C58 C56 1.371 . S
C58 C59 1.392 . S
C58 H74 0.931 . S
C59 C58 1.392 . S
C59 C60 1.331 . S
C59 H77 0.932 . S
C60 C59 1.331 . S
C60 C61 1.336 . S
C61 C57 1.394 . S
C61 C60 1.336 . S
C61 H76 0.929 . S
C62 C52 1.386 . S
C62 C55 1.357 . S
C62 H75 0.928 . S
H63 C39 0.931 1_556 S
H64 C41 0.930 . S
H65 C43 0.929 . S
H66 C44 0.931 . S
H67 C46 0.930 . S
H68 C50 0.931 . S
H69 C48 0.931 . S
H70 C52 0.931 . S
H71 C53 0.929 . S
H72 C54 0.930 . S
H73 C57 0.930 . S
H74 C58 0.931 . S
H75 C62 0.928 . S
H76 C61 0.929 . S
H77 C59 0.932 . S
C78 C79 1.386 . S
C78 C80 1.397 . S
C78 H102 0.931 1_554 S
C79 C78 1.386 . S
C79 C83 1.397 . S
C80 C78 1.397 . S
C80 C81 1.384 . S
C80 H103 0.930 . S
C81 C80 1.384 . S
C81 C82 1.377 . S
C81 C84 1.481 . S
C82 C81 1.377 . S
C82 C83 1.389 . S
C82 H104 0.929 . S
C83 C79 1.397 . S
C83 C82 1.389 . S
C83 H105 0.931 . S
C84 C81 1.481 . S
C84 C85 1.387 . S
C84 C89 1.390 . S
C85 C84 1.387 . S
C85 C86 1.401 . S
C85 H106 0.930 . S
C86 C85 1.401 . S
C86 C87 1.376 . S
C86 C95 1.511 . S
C87 C86 1.376 . S
C87 C88 1.392 . S
C87 H108 0.931 . S
C88 C87 1.392 . S
C88 C89 1.361 . S
C88 C90 1.500 . S
C89 C84 1.390 . S
C89 C88 1.361 . S
C89 H107 0.931 . S
C90 C88 1.500 . S
C90 C91 1.371 . S
C90 C92 1.365 . S
C91 C90 1.371 . S
C91 C101 1.386 . S
C91 H109 0.931 . S
C92 C90 1.365 . S
C92 C93 1.409 . S
C92 H110 0.929 . S
C93 C92 1.409 . S
C93 C94 1.380 . S
C93 H111 0.930 . S
C94 C93 1.380 . S
C94 C101 1.357 . S
C95 C86 1.511 . S
C95 C96 1.341 . S
C95 C97 1.371 . S
C96 C95 1.341 . S
C96 C100 1.394 . S
C96 H112 0.930 . S
C97 C95 1.371 . S
C97 C98 1.392 . S
C97 H113 0.931 . S
C98 C97 1.392 . S
C98 C99 1.331 . S
C98 H116 0.932 . S
C99 C98 1.331 . S
C99 C100 1.336 . S
C100 C96 1.394 . S
C100 C99 1.336 . S
C100 H115 0.929 . S
C101 C91 1.386 . S
C101 C94 1.357 . S
C101 H114 0.928 . S
H102 C78 0.931 1_556 S
H103 C80 0.930 . S
H104 C82 0.929 . S
H105 C83 0.931 . S
H106 C85 0.930 . S
H107 C89 0.931 . S
H108 C87 0.931 . S
H109 C91 0.931 . S
H110 C92 0.929 . S
H111 C93 0.930 . S
H112 C96 0.930 . S
H113 C97 0.931 . S
H114 C101 0.928 . S
H115 C100 0.929 . S
H116 C98 0.932 . S
C117 C118 1.386 . S
C117 C119 1.397 . S
C117 H141 0.931 . S
C118 C117 1.386 . S
C118 C122 1.397 . S
C119 C117 1.397 . S
C119 C120 1.384 . S
C119 H142 0.930 . S
C120 C119 1.384 . S
C120 C121 1.377 . S
C120 C123 1.481 . S
C121 C120 1.377 . S
C121 C122 1.389 . S
C121 H143 0.929 . S
C122 C118 1.397 . S
C122 C121 1.389 . S
C122 H144 0.931 . S
C123 C120 1.481 . S
C123 C124 1.387 . S
C123 C128 1.390 . S
C124 C123 1.387 . S
C124 C125 1.401 . S
C124 H145 0.930 . S
C125 C124 1.401 . S
C125 C126 1.376 . S
C125 C134 1.511 . S
C126 C125 1.376 . S
C126 C127 1.392 . S
C126 H147 0.931 . S
C127 C126 1.392 . S
C127 C128 1.361 . S
C127 C129 1.500 . S
C128 C123 1.390 . S
C128 C127 1.361 . S
C128 H146 0.931 . S
C129 C127 1.500 . S
C129 C130 1.371 . S
C129 C131 1.365 . S
C130 C129 1.371 . S
C130 C140 1.386 1_554 S
C130 H148 0.931 . S
C131 C129 1.365 . S
C131 C132 1.409 . S
C131 H149 0.929 . S
C132 C131 1.409 . S
C132 C133 1.380 . S
C132 H150 0.930 . S
C133 C132 1.380 . S
C133 C140 1.357 1_554 S
C134 C125 1.511 . S
C134 C135 1.341 . S
C134 C136 1.371 . S
C135 C134 1.341 . S
C135 C139 1.394 . S
C135 H151 0.930 . S
C136 C134 1.371 . S
C136 C137 1.392 . S
C136 H152 0.931 . S
C137 C136 1.392 . S
C137 C138 1.331 . S
C137 H155 0.932 . S
C138 C137 1.331 . S
C138 C139 1.336 . S
C139 C135 1.394 . S
C139 C138 1.336 . S
C139 H154 0.929 . S
C140 C130 1.386 1_556 S
C140 C133 1.357 1_556 S
C140 H153 0.928 . S
H141 C117 0.931 . S
H142 C119 0.930 . S
H143 C121 0.929 . S
H144 C122 0.931 . S
H145 C124 0.930 . S
H146 C128 0.931 . S
H147 C126 0.931 . S
H148 C130 0.931 . S
H149 C131 0.929 . S
H150 C132 0.930 . S
H151 C135 0.930 . S
H152 C136 0.931 . S
H153 C140 0.928 . S
H154 C139 0.929 . S
H155 C137 0.932 . S
C156 C157 1.386 . S
C156 C158 1.397 . S
C156 H180 0.931 . S
C157 C156 1.386 . S
C157 C161 1.397 . S
C158 C156 1.397 . S
C158 C159 1.384 . S
C158 H181 0.930 . S
C159 C158 1.384 . S
C159 C160 1.377 . S
C159 C162 1.481 . S
C160 C159 1.377 . S
C160 C161 1.389 . S
C160 H182 0.929 . S
C161 C157 1.397 . S
C161 C160 1.389 . S
C161 H183 0.931 . S
C162 C159 1.481 . S
C162 C163 1.387 . S
C162 C167 1.390 . S
C163 C162 1.387 . S
C163 C164 1.401 . S
C163 H184 0.930 . S
C164 C163 1.401 . S
C164 C165 1.376 1_554 S
C164 C173 1.511 . S
C165 C164 1.376 1_556 S
C165 C166 1.392 . S
C165 H186 0.931 . S
C166 C165 1.392 . S
C166 C167 1.361 1_556 S
C166 C168 1.500 . S
C167 C162 1.390 . S
C167 C166 1.361 1_554 S
C167 H185 0.931 1_554 S
C168 C166 1.500 . S
C168 C169 1.371 . S
C168 C170 1.365 . S
C169 C168 1.371 . S
C169 C179 1.386 . S
C169 H187 0.931 . S
C170 C168 1.365 . S
C170 C171 1.409 . S
C170 H188 0.929 . S
C171 C170 1.409 . S
C171 C172 1.380 . S
C171 H189 0.930 . S
C172 C171 1.380 . S
C172 C179 1.357 . S
C173 C164 1.511 . S
C173 C174 1.341 . S
C173 C175 1.371 . S
C174 C173 1.341 . S
C174 C178 1.394 . S
C174 H190 0.930 . S
C175 C173 1.371 . S
C175 C176 1.392 . S
C175 H191 0.931 1_554 S
C176 C175 1.392 . S
C176 C177 1.331 . S
C176 H194 0.932 1_554 S
C177 C176 1.331 . S
C177 C178 1.336 . S
C178 C174 1.394 . S
C178 C177 1.336 . S
C178 H193 0.929 . S
C179 C169 1.386 . S
C179 C172 1.357 . S
C179 H192 0.928 . S
H180 C156 0.931 . S
H181 C158 0.930 . S
H182 C160 0.929 . S
H183 C161 0.931 . S
H184 C163 0.930 . S
H185 C167 0.931 1_556 S
H186 C165 0.931 . S
H187 C169 0.931 . S
H188 C170 0.929 . S
H189 C171 0.930 . S
H190 C174 0.930 . S
H191 C175 0.931 1_556 S
H192 C179 0.928 . S
H193 C178 0.929 . S
H194 C176 0.932 1_556 S
C195 C196 1.386 . S
C195 C197 1.397 . S
C195 H219 0.931 . S
C196 C195 1.386 . S
C196 C200 1.397 . S
C197 C195 1.397 . S
C197 C198 1.384 . S
C197 H220 0.930 . S
C198 C197 1.384 . S
C198 C199 1.377 . S
C198 C201 1.481 . S
C199 C198 1.377 . S
C199 C200 1.389 . S
C199 H221 0.929 . S
C200 C196 1.397 . S
C200 C199 1.389 . S
C200 H222 0.931 . S
C201 C198 1.481 . S
C201 C202 1.387 . S
C201 C206 1.390 . S
C202 C201 1.387 . S
C202 C203 1.401 . S
C202 H223 0.930 . S
C203 C202 1.401 . S
C203 C204 1.376 1_554 S
C203 C212 1.511 . S
C204 C203 1.376 1_556 S
C204 C205 1.392 . S
C204 H225 0.931 . S
C205 C204 1.392 . S
C205 C206 1.361 1_556 S
C205 C207 1.500 . S
C206 C201 1.390 . S
C206 C205 1.361 1_554 S
C206 H224 0.931 1_554 S
C207 C205 1.500 . S
C207 C208 1.371 . S
C207 C209 1.365 . S
C208 C207 1.371 . S
C208 C218 1.386 . S
C208 H226 0.931 . S
C209 C207 1.365 . S
C209 C210 1.409 . S
C209 H227 0.929 . S
C210 C209 1.409 . S
C210 C211 1.380 . S
C210 H228 0.930 . S
C211 C210 1.380 . S
C211 C218 1.357 . S
C212 C203 1.511 . S
C212 C213 1.341 . S
C212 C214 1.371 . S
C213 C212 1.341 . S
C213 C217 1.394 . S
C213 H229 0.930 . S
C214 C212 1.371 . S
C214 C215 1.392 . S
C214 H230 0.931 1_554 S
C215 C214 1.392 . S
C215 C216 1.331 . S
C215 H233 0.932 1_554 S
C216 C215 1.331 . S
C216 C217 1.336 . S
C217 C213 1.394 . S
C217 C216 1.336 . S
C217 H232 0.929 . S
C218 C208 1.386 . S
C218 C211 1.357 . S
C218 H231 0.928 . S
H219 C195 0.931 . S
H220 C197 0.930 . S
H221 C199 0.929 . S
H222 C200 0.931 . S
H223 C202 0.930 . S
H224 C206 0.931 1_556 S
H225 C204 0.931 . S
H226 C208 0.931 . S
H227 C209 0.929 . S
H228 C210 0.930 . S
H229 C213 0.930 . S
H230 C214 0.931 1_556 S
H231 C218 0.928 . S
H232 C217 0.929 . S
H233 C215 0.932 1_556 S
C234 C235 1.386 . S
C234 C236 1.397 . S
C234 H258 0.931 . S
C235 C234 1.386 . S
C235 C239 1.397 . S
C236 C234 1.397 . S
C236 C237 1.384 . S
C236 H259 0.930 . S
C237 C236 1.384 . S
C237 C238 1.377 . S
C237 C240 1.481 . S
C238 C237 1.377 . S
C238 C239 1.389 . S
C238 H260 0.929 . S
C239 C235 1.397 . S
C239 C238 1.389 . S
C239 H261 0.931 . S
C240 C237 1.481 . S
C240 C241 1.387 . S
C240 C245 1.400 . S
C241 C240 1.387 . S
C241 C242 1.401 . S
C241 H262 0.930 . S
C242 C241 1.401 . S
C242 C243 1.376 1_554 S
C242 C251 1.511 . S
C243 C242 1.376 1_556 S
C243 C244 1.392 . S
C243 H264 0.931 . S
C244 C243 1.392 . S
C244 C245 1.353 1_556 S
C244 C246 1.500 . S
C245 C240 1.400 . S
C245 C244 1.353 1_554 S
C245 H263 0.929 1_554 S
C246 C244 1.500 . S
C246 C247 1.371 . S
C246 C248 1.365 . S
C247 C246 1.371 . S
C247 C257 1.386 . S
C247 H265 0.931 . S
C248 C246 1.365 . S
C248 C249 1.409 . S
C248 H266 0.929 . S
C249 C248 1.409 . S
C249 C250 1.380 . S
C249 H267 0.930 . S
C250 C249 1.380 . S
C250 C257 1.357 . S
C251 C242 1.511 . S
C251 C252 1.341 . S
C251 C253 1.371 . S
C252 C251 1.341 . S
C252 C256 1.394 . S
C252 H268 0.930 . S
C253 C251 1.371 . S
C253 C254 1.392 . S
C253 H269 0.931 1_554 S
C254 C253 1.392 . S
C254 C255 1.331 . S
C254 H272 0.932 1_554 S
C255 C254 1.331 . S
C255 C256 1.336 . S
C256 C252 1.394 . S
C256 C255 1.336 . S
C256 H271 0.929 . S
C257 C247 1.386 . S
C257 C250 1.357 . S
C257 H270 0.928 . S
H258 C234 0.931 . S
H259 C236 0.930 . S
H260 C238 0.929 . S
H261 C239 0.931 . S
H262 C241 0.930 . S
H263 C245 0.929 1_556 S
H264 C243 0.931 . S
H265 C247 0.931 . S
H266 C248 0.929 . S
H267 C249 0.930 . S
H268 C252 0.930 . S
H269 C253 0.931 1_556 S
H270 C257 0.928 . S
H271 C256 0.929 . S
H272 C254 0.932 1_556 S
C273 C274 1.386 . S
C273 C275 1.397 . S
C273 H297 0.931 . S
C274 C273 1.386 . S
C274 C278 1.397 . S
C275 C273 1.397 . S
C275 C276 1.384 . S
C275 H298 0.930 . S
C276 C275 1.384 . S
C276 C277 1.377 . S
C276 C279 1.481 . S
C277 C276 1.377 . S
C277 C278 1.389 . S
C277 H299 0.929 . S
C278 C274 1.397 . S
C278 C277 1.389 . S
C278 H300 0.931 . S
C279 C276 1.481 . S
C279 C280 1.387 . S
C279 C284 1.390 1_556 S
C280 C279 1.387 . S
C280 C281 1.401 1_556 S
C280 H301 0.930 . S
C281 C280 1.401 1_554 S
C281 C282 1.376 . S
C281 C290 1.511 . S
C282 C281 1.376 . S
C282 C283 1.392 . S
C282 H303 0.931 . S
C283 C282 1.392 . S
C283 C284 1.361 . S
C283 C285 1.500 . S
C284 C279 1.390 1_554 S
C284 C283 1.361 . S
C284 H302 0.931 1_554 S
C285 C283 1.500 . S
C285 C286 1.371 . S
C285 C287 1.365 . S
C286 C285 1.371 . S
C286 C296 1.386 . S
C286 H304 0.931 . S
C287 C285 1.365 . S
C287 C288 1.409 . S
C287 H305 0.929 . S
C288 C287 1.409 . S
C288 C289 1.380 . S
C288 H306 0.930 . S
C289 C288 1.380 . S
C289 C296 1.357 . S
C290 C281 1.511 . S
C290 C291 1.341 . S
C290 C292 1.371 . S
C291 C290 1.341 . S
C291 C295 1.394 . S
C291 H307 0.930 1_554 S
C292 C290 1.371 . S
C292 C293 1.392 . S
C292 H308 0.931 . S
C293 C292 1.392 . S
C293 C294 1.331 . S
C293 H311 0.932 . S
C294 C293 1.331 . S
C294 C295 1.336 . S
C295 C291 1.394 . S
C295 C294 1.336 . S
C295 H310 0.929 1_554 S
C296 C286 1.386 . S
C296 C289 1.357 . S
C296 H309 0.928 . S
H297 C273 0.931 . S
H298 C275 0.930 . S
H299 C277 0.929 . S
H300 C278 0.931 . S
H301 C280 0.930 . S
H302 C284 0.931 1_556 S
H303 C282 0.931 . S
H304 C286 0.931 . S
H305 C287 0.929 . S
H306 C288 0.930 . S
H307 C291 0.930 1_556 S
H308 C292 0.931 . S
H309 C296 0.928 . S
H310 C295 0.929 1_556 S
H311 C293 0.932 . S
Gd312 N343 2.662 . S
Gd312 N349 2.601 . S
Gd312 O356 2.545 . S
Gd312 O357 2.606 1_655 S
Gd312 O359 2.429 . S
Gd312 O360 2.545 1_655 S
Gd312 O361 2.412 . S
Gd312 O363 2.362 1_545 S
Gd312 O364 2.324 1_655 S
Gd312 C371 2.828 . S
Gd313 N322 2.661 1_565 S
Gd313 N326 2.601 . S
Gd313 O357 2.362 1_565 S
Gd313 O358 2.324 1_455 S
Gd313 O362 2.545 . S
Gd313 O363 2.606 1_455 S
Gd313 O365 2.429 . S
Gd313 O366 2.545 . S
Gd313 O367 2.412 . S
Gd313 C380 2.828 . S
C314 C317 1.417 . S
C314 C319 1.431 . S
C314 C320 1.412 . S
C315 C318 1.437 . S
C315 C319 1.317 . S
C315 H334 0.929 . S
C316 C317 1.426 . S
C316 C318 1.413 . S
C316 N326 1.359 1_545 S
C317 C314 1.417 . S
C317 C316 1.426 . S
C317 N322 1.350 . S
C318 C315 1.437 . S
C318 C316 1.413 . S
C318 C328 1.381 1_545 S
C319 C314 1.431 . S
C319 C315 1.317 . S
C319 H330 0.930 . S
C320 C314 1.412 . S
C320 C321 1.355 . S
C320 H332 0.930 . S
C321 C320 1.355 . S
C321 C323 1.402 . S
C321 H333 0.930 1_455 S
N322 Gd313 2.661 1_545 S
N322 C317 1.350 . S
N322 C323 1.307 . S
C323 C321 1.402 . S
C323 N322 1.307 . S
C323 H324 0.930 1_455 S
H324 C323 0.930 1_655 S
C325 N326 1.334 . S
C325 C327 1.394 . S
C325 H329 0.930 . S
N326 Gd313 2.601 . S
N326 C316 1.359 1_565 S
N326 C325 1.334 . S
C327 C325 1.394 . S
C327 C328 1.371 . S
C327 H339 0.930 . S
C328 C318 1.381 1_565 S
C328 C327 1.371 . S
C328 H340 0.926 1_565 S
H329 C325 0.930 . S
H330 C319 0.930 . S
H331 C348 0.930 . S
H332 C320 0.930 . S
H333 C321 0.930 1_655 S
H334 C315 0.929 . S
H335 C353 0.930 . S
H336 C344 0.930 . S
H337 C345 0.965 . S
H338 C369 0.929 . S
H339 C327 0.930 . S
H340 C328 0.926 1_545 S
H341 C370 0.930 . S
H342 C351 0.930 . S
N343 Gd312 2.662 . S
N343 C347 1.350 1_545 S
N343 C348 1.306 1_645 S
C344 H336 0.930 . S
C344 C345 1.317 1_655 S
C344 C346 1.412 . S
C345 H337 0.965 . S
C345 C344 1.317 1_455 S
C345 C348 1.404 . S
C346 C344 1.412 . S
C346 C347 1.417 . S
C346 C370 1.431 . S
C347 N343 1.350 1_565 S
C347 C346 1.417 . S
C347 C350 1.426 1_565 S
C348 H331 0.930 . S
C348 N343 1.306 1_465 S
C348 C345 1.404 . S
N349 Gd312 2.601 . S
N349 C350 1.359 . S
N349 C353 1.334 . S
C350 C347 1.426 1_545 S
C350 N349 1.359 . S
C350 C354 1.413 . S
C351 H342 0.930 . S
C351 C352 1.359 . S
C351 C353 1.394 . S
C352 C351 1.359 . S
C352 C354 1.391 . S
C352 H355 0.929 . S
C353 H335 0.930 . S
C353 N349 1.334 . S
C353 C351 1.394 . S
C354 C350 1.413 . S
C354 C352 1.391 . S
C354 C369 1.437 1_545 S
H355 C352 0.929 . S
O356 Gd312 2.545 . S
O356 C371 1.258 . S
O357 Gd312 2.606 1_455 S
O357 Gd313 2.362 1_545 S
O357 C368 1.284 . S
O358 Gd313 2.324 1_655 S
O358 C378 1.254 1_565 S
O359 Gd312 2.429 . S
O359 C378 1.268 . S
O360 Gd312 2.545 1_455 S
O360 C368 1.250 . S
O361 Gd312 2.412 . S
O361 C371 1.252 . S
O362 Gd313 2.545 . S
O362 C380 1.258 . S
O363 Gd312 2.362 1_565 S
O363 Gd313 2.606 1_655 S
O363 C379 1.284 . S
O364 Gd312 2.324 1_455 S
O364 C387 1.254 . S
O365 Gd313 2.429 . S
O365 C387 1.268 1_565 S
O366 Gd313 2.545 . S
O366 C379 1.250 1_455 S
O367 Gd313 2.412 . S
O367 C380 1.252 . S
C368 O357 1.284 . S
C368 O360 1.250 . S
C369 H338 0.929 . S
C369 C354 1.437 1_565 S
C369 C370 1.317 . S
C370 H341 0.930 . S
C370 C346 1.431 . S
C370 C369 1.317 . S
C371 Gd312 2.828 . S
C371 O356 1.258 . S
C371 O361 1.252 . S
C371 C372 1.497 . S
C372 C371 1.497 . S
C372 C373 1.395 . S
C372 C374 1.380 . S
C373 C372 1.395 . S
C373 C376 1.398 . S
C373 H388 0.930 . S
C374 C372 1.380 . S
C374 C375 1.391 . S
C374 H389 0.930 1_655 S
C375 C374 1.391 . S
C375 C377 1.387 . S
C376 C373 1.398 . S
C376 C377 1.380 . S
C376 H390 0.930 . S
C377 C375 1.387 . S
C377 C376 1.380 . S
C377 H391 0.930 . S
C378 O358 1.254 1_545 S
C378 O359 1.268 . S
C379 O363 1.284 . S
C379 O366 1.250 1_655 S
C380 Gd313 2.828 . S
C380 O362 1.258 . S
C380 O367 1.252 . S
C380 C381 1.497 . S
C381 C380 1.497 . S
C381 C382 1.395 . S
C381 C383 1.380 . S
C382 C381 1.395 . S
C382 C385 1.398 . S
C382 H392 0.930 . S
C383 C381 1.380 . S
C383 C384 1.391 . S
C383 H393 0.904 1_455 S
C384 C383 1.391 . S
C384 C386 1.387 . S
C385 C382 1.398 . S
C385 C386 1.380 . S
C385 H394 0.930 . S
C386 C384 1.387 . S
C386 C385 1.380 . S
C386 H395 0.930 . S
C387 O364 1.254 . S
C387 O365 1.268 1_545 S
H388 C373 0.930 . S
H389 C374 0.930 1_455 S
H390 C376 0.930 . S
H391 C377 0.930 . S
H392 C382 0.930 . S
H393 C383 0.904 1_655 S
H394 C385 0.930 . S
H395 C386 0.930 . S
Gd396 N427 2.661 . S
Gd396 N433 2.601 . S
Gd396 O440 2.545 . S
Gd396 O441 2.606 1_565 S
Gd396 O443 2.429 . S
Gd396 O444 2.545 1_565 S
Gd396 O445 2.412 . S
Gd396 O447 2.362 . S
Gd396 O448 2.324 1_565 S
Gd396 C455 2.828 . S
Gd397 N406 2.661 . S
Gd397 N410 2.601 . S
Gd397 O441 2.362 . S
Gd397 O442 2.324 1_545 S
Gd397 O446 2.545 . S
Gd397 O447 2.606 1_545 S
Gd397 O449 2.429 . S
Gd397 O450 2.545 . S
Gd397 O451 2.412 . S
Gd397 C464 2.828 . S
C398 C401 1.417 . S
C398 C403 1.431 . S
C398 C404 1.412 . S
C399 C402 1.437 . S
C399 C403 1.317 . S
C399 H418 0.929 . S
C400 C401 1.426 . S
C400 C402 1.413 . S
C400 N410 1.359 . S
C401 C398 1.417 . S
C401 C400 1.426 . S
C401 N406 1.350 . S
C402 C399 1.437 . S
C402 C400 1.413 . S
C402 C412 1.391 . S
C403 C398 1.431 . S
C403 C399 1.317 . S
C403 H414 0.930 . S
C404 C398 1.412 . S
C404 C405 1.355 . S
C404 H416 0.930 . S
C405 C404 1.355 . S
C405 C407 1.402 . S
C405 H417 0.930 1_545 S
N406 Gd397 2.661 . S
N406 C401 1.350 . S
N406 C407 1.307 . S
C407 C405 1.402 . S
C407 N406 1.307 . S
C407 H408 0.930 1_545 S
H408 C407 0.930 1_565 S
C409 N410 1.334 . S
C409 C411 1.394 . S
C409 H413 0.930 . S
N410 Gd397 2.601 . S
N410 C400 1.359 . S
N410 C409 1.334 . S
C411 C409 1.394 . S
C411 C412 1.359 . S
C411 H423 0.930 . S
C412 C402 1.391 . S
C412 C411 1.359 . S
C412 H424 0.929 . S
H413 C409 0.930 . S
H414 C403 0.930 . S
H415 C432 0.930 . S
H416 C404 0.930 . S
H417 C405 0.930 1_565 S
H418 C399 0.929 . S
H419 C437 0.930 . S
H420 C428 0.930 . S
H421 C429 0.930 . S
H422 C453 0.929 . S
H423 C411 0.930 . S
H424 C412 0.929 . S
H425 C454 0.930 . S
H426 C435 0.930 . S
N427 Gd396 2.661 . S
N427 C431 1.350 . S
N427 C432 1.307 1_565 S
C428 H420 0.930 . S
C428 C429 1.355 1_565 S
C428 C430 1.412 . S
C429 H421 0.930 . S
C429 C428 1.355 1_545 S
C429 C432 1.402 . S
C430 C428 1.412 . S
C430 C431 1.417 . S
C430 C454 1.431 . S
C431 N427 1.350 . S
C431 C430 1.417 . S
C431 C434 1.426 . S
C432 H415 0.930 . S
C432 N427 1.307 1_545 S
C432 C429 1.402 . S
N433 Gd396 2.601 . S
N433 C434 1.359 . S
N433 C437 1.334 . S
C434 C431 1.426 . S
C434 N433 1.359 . S
C434 C438 1.413 . S
C435 H426 0.930 . S
C435 C436 1.359 . S
C435 C437 1.394 . S
C436 C435 1.359 . S
C436 C438 1.391 . S
C436 H439 0.929 . S
C437 H419 0.930 . S
C437 N433 1.334 . S
C437 C435 1.394 . S
C438 C434 1.413 . S
C438 C436 1.391 . S
C438 C453 1.437 . S
H439 C436 0.929 . S
O440 Gd396 2.545 . S
O440 C455 1.258 . S
O441 Gd396 2.606 1_545 S
O441 Gd397 2.362 . S
O441 C452 1.284 . S
O442 Gd397 2.324 1_565 S
O442 C462 1.254 . S
O443 Gd396 2.429 . S
O443 C462 1.268 . S
O444 Gd396 2.545 1_545 S
O444 C452 1.250 . S
O445 Gd396 2.412 . S
O445 C455 1.252 . S
O446 Gd397 2.545 . S
O446 C464 1.258 . S
O447 Gd396 2.362 . S
O447 Gd397 2.606 1_565 S
O447 C463 1.284 . S
O448 Gd396 2.324 1_545 S
O448 C471 1.254 . S
O449 Gd397 2.429 . S
O449 C471 1.268 . S
O450 Gd397 2.545 . S
O450 C463 1.250 1_545 S
O451 Gd397 2.412 . S
O451 C464 1.252 . S
C452 O441 1.284 . S
C452 O444 1.250 . S
C453 H422 0.929 . S
C453 C438 1.437 . S
C453 C454 1.317 . S
C454 H425 0.930 . S
C454 C430 1.431 . S
C454 C453 1.317 . S
C455 Gd396 2.828 . S
C455 O440 1.258 . S
C455 O445 1.252 . S
C455 C456 1.497 . S
C456 C455 1.497 . S
C456 C457 1.395 . S
C456 C458 1.380 . S
C457 C456 1.395 . S
C457 C460 1.398 . S
C457 H472 0.930 . S
C458 C456 1.380 . S
C458 C459 1.391 . S
C458 H473 0.930 1_565 S
C459 C458 1.391 . S
C459 C461 1.387 . S
C460 C457 1.398 . S
C460 C461 1.380 . S
C460 H474 0.930 . S
C461 C459 1.387 . S
C461 C460 1.380 . S
C461 H475 0.930 . S
C462 O442 1.254 . S
C462 O443 1.268 . S
C463 O447 1.284 . S
C463 O450 1.250 1_565 S
C464 Gd397 2.828 . S
C464 O446 1.258 . S
C464 O451 1.252 . S
C464 C465 1.497 . S
C465 C464 1.497 . S
C465 C466 1.395 . S
C465 C467 1.380 . S
C466 C465 1.395 . S
C466 C469 1.398 . S
C466 H476 0.930 . S
C467 C465 1.380 . S
C467 C468 1.391 . S
C467 H477 0.930 . S
C468 C467 1.391 . S
C468 C470 1.387 . S
C469 C466 1.398 . S
C469 C470 1.380 . S
C469 H478 0.930 . S
C470 C468 1.387 . S
C470 C469 1.380 . S
C470 H479 0.930 . S
C471 O448 1.254 . S
C471 O449 1.268 . S
H472 C457 0.930 . S
H473 C458 0.930 1_545 S
H474 C460 0.930 . S
H475 C461 0.930 . S
H476 C466 0.930 . S
H477 C467 0.930 . S
H478 C469 0.930 . S
H479 C470 0.930 . S
Gd480 N511 2.661 . S
Gd480 N517 2.601 . S
Gd480 O524 2.545 . S
Gd480 O525 2.606 . S
Gd480 O527 2.429 . S
Gd480 O528 2.545 . S
Gd480 O529 2.412 . S
Gd480 O531 2.362 . S
Gd480 O532 2.324 . S
Gd480 C539 2.828 . S
Gd481 N490 2.661 . S
Gd481 N494 2.601 . S
Gd481 O525 2.362 . S
Gd481 O526 2.324 . S
Gd481 O530 2.545 . S
Gd481 O531 2.606 . S
Gd481 O533 2.429 . S
Gd481 O534 2.545 . S
Gd481 O535 2.412 . S
Gd481 C548 2.828 . S
C482 C485 1.417 . S
C482 C487 1.431 . S
C482 C488 1.412 . S
C483 C486 1.437 . S
C483 C487 1.317 . S
C483 H502 0.929 . S
C484 C485 1.426 . S
C484 C486 1.413 . S
C484 N494 1.359 . S
C485 C482 1.417 . S
C485 C484 1.426 . S
C485 N490 1.350 . S
C486 C483 1.437 . S
C486 C484 1.413 . S
C486 C496 1.391 . S
C487 C482 1.431 . S
C487 C483 1.317 . S
C487 H498 0.930 . S
C488 C482 1.412 . S
C488 C489 1.355 . S
C488 H500 0.930 . S
C489 C488 1.355 . S
C489 C491 1.402 . S
C489 H501 0.930 . S
N490 Gd481 2.661 . S
N490 C485 1.350 . S
N490 C491 1.307 . S
C491 C489 1.402 . S
C491 N490 1.307 . S
C491 H492 0.930 . S
H492 C491 0.930 . S
C493 N494 1.334 . S
C493 C495 1.394 . S
C493 H497 0.930 . S
N494 Gd481 2.601 . S
N494 C484 1.359 . S
N494 C493 1.334 . S
C495 C493 1.394 . S
C495 C496 1.359 . S
C495 H507 0.930 . S
C496 C486 1.391 . S
C496 C495 1.359 . S
C496 H508 0.929 . S
H497 C493 0.930 . S
H498 C487 0.930 . S
H499 C516 0.930 . S
H500 C488 0.930 . S
H501 C489 0.930 . S
H502 C483 0.929 . S
H503 C521 0.930 . S
H504 C512 0.930 . S
H505 C513 0.930 . S
H506 C537 0.929 . S
H507 C495 0.930 . S
H508 C496 0.929 . S
H509 C538 0.930 . S
H510 C519 0.930 . S
N511 Gd480 2.661 . S
N511 C515 1.350 . S
N511 C516 1.307 . S
C512 H504 0.930 . S
C512 C513 1.355 . S
C512 C514 1.412 . S
C513 H505 0.930 . S
C513 C512 1.355 . S
C513 C516 1.402 . S
C514 C512 1.412 . S
C514 C515 1.417 . S
C514 C538 1.431 . S
C515 N511 1.350 . S
C515 C514 1.417 . S
C515 C518 1.426 . S
C516 H499 0.930 . S
C516 N511 1.307 . S
C516 C513 1.402 . S
N517 Gd480 2.601 . S
N517 C518 1.359 . S
N517 C521 1.334 . S
C518 C515 1.426 . S
C518 N517 1.359 . S
C518 C522 1.413 . S
C519 H510 0.930 . S
C519 C520 1.359 . S
C519 C521 1.394 . S
C520 C519 1.359 . S
C520 C522 1.391 . S
C520 H523 0.929 . S
C521 H503 0.930 . S
C521 N517 1.334 . S
C521 C519 1.394 . S
C522 C518 1.413 . S
C522 C520 1.391 . S
C522 C537 1.437 . S
H523 C520 0.929 . S
O524 Gd480 2.545 . S
O524 C539 1.258 . S
O525 Gd480 2.606 . S
O525 Gd481 2.362 . S
O525 C536 1.284 . S
O526 Gd481 2.324 . S
O526 C546 1.254 . S
O527 Gd480 2.429 . S
O527 C546 1.268 . S
O528 Gd480 2.545 . S
O528 C536 1.250 . S
O529 Gd480 2.412 . S
O529 C539 1.252 . S
O530 Gd481 2.545 . S
O530 C548 1.258 . S
O531 Gd480 2.362 . S
O531 Gd481 2.606 . S
O531 C547 1.284 . S
O532 Gd480 2.324 . S
O532 C555 1.254 . S
O533 Gd481 2.429 . S
O533 C555 1.268 . S
O534 Gd481 2.545 . S
O534 C547 1.250 . S
O535 Gd481 2.412 . S
O535 C548 1.252 . S
C536 O525 1.284 . S
C536 O528 1.250 . S
C537 H506 0.929 . S
C537 C522 1.437 . S
C537 C538 1.317 . S
C538 H509 0.930 . S
C538 C514 1.431 . S
C538 C537 1.317 . S
C539 Gd480 2.828 . S
C539 O524 1.258 . S
C539 O529 1.252 . S
C539 C540 1.497 . S
C540 C539 1.497 . S
C540 C541 1.395 . S
C540 C542 1.380 . S
C541 C540 1.395 . S
C541 C544 1.398 . S
C541 H556 0.930 . S
C542 C540 1.380 . S
C542 C543 1.391 . S
C542 H557 0.930 . S
C543 C542 1.391 . S
C543 C545 1.387 . S
C544 C541 1.398 . S
C544 C545 1.380 . S
C544 H558 0.930 . S
C545 C543 1.387 . S
C545 C544 1.380 . S
C545 H559 0.930 . S
C546 O526 1.254 . S
C546 O527 1.268 . S
C547 O531 1.284 . S
C547 O534 1.250 . S
C548 Gd481 2.828 . S
C548 O530 1.258 . S
C548 O535 1.252 . S
C548 C549 1.497 . S
C549 C548 1.497 . S
C549 C550 1.395 . S
C549 C551 1.380 . S
C550 C549 1.395 . S
C550 C553 1.398 . S
C550 H560 0.930 . S
C551 C549 1.380 . S
C551 C552 1.391 . S
C551 H561 0.930 . S
C552 C551 1.391 . S
C552 C554 1.387 . S
C553 C550 1.398 . S
C553 C554 1.380 . S
C553 H562 0.930 . S
C554 C552 1.387 . S
C554 C553 1.380 . S
C554 H563 0.930 . S
C555 O532 1.254 . S
C555 O533 1.268 . S
H556 C541 0.930 . S
H557 C542 0.930 . S
H558 C544 0.930 . S
H559 C545 0.930 . S
H560 C550 0.930 . S
H561 C551 0.930 . S
H562 C553 0.930 . S
H563 C554 0.930 . S
Gd564 N595 2.661 . S
Gd564 N601 2.601 . S
Gd564 O608 2.545 . S
Gd564 O609 2.598 1_655 S
Gd564 O611 2.429 1_655 S
Gd564 O612 2.545 . S
Gd564 O613 2.412 . S
Gd564 O615 2.362 1_655 S
Gd564 O616 2.324 . S
Gd564 C623 2.828 . S
Gd565 N574 2.661 . S
Gd565 N578 2.601 . S
Gd565 O609 2.374 . S
Gd565 O610 2.324 . S
Gd565 O614 2.545 . S
Gd565 O615 2.606 . S
Gd565 O617 2.429 1_455 S
Gd565 O618 2.545 . S
Gd565 O619 2.412 . S
Gd565 C632 2.828 . S
C566 C569 1.417 . S
C566 C571 1.431 . S
C566 C572 1.412 . S
C567 C570 1.437 . S
C567 C571 1.317 . S
C567 H586 0.929 . S
C568 C569 1.426 . S
C568 C570 1.413 . S
C568 N578 1.359 . S
C569 C566 1.417 . S
C569 C568 1.426 . S
C569 N574 1.350 . S
C570 C567 1.437 . S
C570 C568 1.413 . S
C570 C580 1.391 . S
C571 C566 1.431 . S
C571 C567 1.317 . S
C571 H582 0.930 . S
C572 C566 1.412 . S
C572 C573 1.355 . S
C572 H584 0.930 . S
C573 C572 1.355 . S
C573 C575 1.402 . S
C573 H585 0.930 . S
N574 Gd565 2.661 . S
N574 C569 1.350 . S
N574 C575 1.307 . S
C575 C573 1.402 . S
C575 N574 1.307 . S
C575 H576 0.930 . S
H576 C575 0.930 . S
C577 N578 1.334 . S
C577 C579 1.399 . S
C577 H581 0.930 1_455 S
N578 Gd565 2.601 . S
N578 C568 1.359 . S
N578 C577 1.334 . S
C579 C577 1.399 . S
C579 C580 1.380 . S
C579 H591 0.907 1_455 S
C580 C570 1.391 . S
C580 C579 1.380 . S
C580 H592 0.929 . S
H581 C577 0.930 1_655 S
H582 C571 0.930 . S
H583 C600 0.930 . S
H584 C572 0.930 . S
H585 C573 0.930 . S
H586 C567 0.929 . S
H587 C605 0.930 . S
H588 C596 0.930 . S
H589 C597 0.930 . S
H590 C621 0.929 . S
H591 C579 0.907 1_655 S
H592 C580 0.929 . S
H593 C622 0.930 . S
H594 C603 0.930 . S
N595 Gd564 2.661 . S
N595 C599 1.350 . S
N595 C600 1.307 . S
C596 H588 0.930 . S
C596 C597 1.355 . S
C596 C598 1.412 . S
C597 H589 0.930 . S
C597 C596 1.355 . S
C597 C600 1.402 . S
C598 C596 1.412 . S
C598 C599 1.417 . S
C598 C622 1.431 . S
C599 N595 1.350 . S
C599 C598 1.417 . S
C599 C602 1.426 . S
C600 H583 0.930 . S
C600 N595 1.307 . S
C600 C597 1.402 . S
N601 Gd564 2.601 . S
N601 C602 1.359 . S
N601 C605 1.334 1_655 S
C602 C599 1.426 . S
C602 N601 1.359 . S
C602 C606 1.413 . S
C603 H594 0.930 . S
C603 C604 1.359 1_455 S
C603 C605 1.394 . S
C604 C603 1.359 1_655 S
C604 C606 1.391 . S
C604 H607 0.929 . S
C605 H587 0.930 . S
C605 N601 1.334 1_455 S
C605 C603 1.394 . S
C606 C602 1.413 . S
C606 C604 1.391 . S
C606 C621 1.437 . S
H607 C604 0.929 . S
O608 Gd564 2.545 . S
O608 C623 1.258 . S
O609 Gd564 2.598 1_455 S
O609 Gd565 2.374 . S
O609 C620 1.276 1_455 S
O610 Gd565 2.324 . S
O610 C630 1.254 . S
O611 Gd564 2.429 1_455 S
O611 C630 1.268 . S
O612 Gd564 2.545 . S
O612 C620 1.250 . S
O613 Gd564 2.412 . S
O613 C623 1.252 . S
O614 Gd565 2.545 . S
O614 C632 1.258 . S
O615 Gd564 2.362 1_455 S
O615 Gd565 2.606 . S
O615 C631 1.284 . S
O616 Gd564 2.324 . S
O616 C639 1.254 . S
O617 Gd565 2.429 1_655 S
O617 C639 1.268 . S
O618 Gd565 2.545 . S
O618 C631 1.250 . S
O619 Gd565 2.412 . S
O619 C632 1.252 . S
C620 O609 1.276 1_655 S
C620 O612 1.250 . S
C621 H590 0.929 . S
C621 C606 1.437 . S
C621 C622 1.317 . S
C622 H593 0.930 . S
C622 C598 1.431 . S
C622 C621 1.317 . S
C623 Gd564 2.828 . S
C623 O608 1.258 . S
C623 O613 1.252 . S
C623 C624 1.497 . S
C624 C623 1.497 . S
C624 C625 1.395 . S
C624 C626 1.380 . S
C625 C624 1.395 . S
C625 C628 1.398 . S
C625 H640 0.930 . S
C626 C624 1.380 . S
C626 C627 1.391 . S
C626 H641 0.930 . S
C627 C626 1.391 . S
C627 C629 1.387 . S
C628 C625 1.398 . S
C628 C629 1.380 . S
C628 H642 0.930 . S
C629 C627 1.387 . S
C629 C628 1.380 . S
C629 H643 0.930 . S
C630 O610 1.254 . S
C630 O611 1.268 . S
C631 O615 1.284 . S
C631 O618 1.250 . S
C632 Gd565 2.828 . S
C632 O614 1.258 . S
C632 O619 1.252 . S
C632 C633 1.497 . S
C633 C632 1.497 . S
C633 C634 1.395 . S
C633 C635 1.380 . S
C634 C633 1.395 . S
C634 C637 1.398 . S
C634 H644 0.930 . S
C635 C633 1.380 . S
C635 C636 1.391 . S
C635 H645 0.930 . S
C636 C635 1.391 . S
C636 C638 1.387 . S
C637 C634 1.398 . S
C637 C638 1.380 . S
C637 H646 0.930 . S
C638 C636 1.387 . S
C638 C637 1.380 . S
C638 H647 0.930 . S
C639 O616 1.254 . S
C639 O617 1.268 . S
H640 C625 0.930 . S
H641 C626 0.930 . S
H642 C628 0.930 . S
H643 C629 0.930 . S
H644 C634 0.930 . S
H645 C635 0.930 . S
H646 C637 0.930 . S
H647 C638 0.930 . S
C648 C649 1.391 . S
C648 C650 1.394 . S
C648 H664 0.931 . S
C649 C648 1.391 . S
C649 C653 1.376 . S
C650 C648 1.394 . S
C650 C651 1.369 . S
C650 C654 1.531 . S
C651 C650 1.369 . S
C651 C652 1.410 . S
C651 C659 1.503 . S
C652 C651 1.410 . S
C652 C653 1.392 . S
C652 C655 1.511 . S
C653 C649 1.376 . S
C653 C652 1.392 . S
C653 H665 0.929 . S
C654 C650 1.531 . S
C654 H666 0.960 . S
C654 H667 0.962 . S
C654 H668 0.960 . S
C655 C652 1.511 . S
C655 H669 0.961 . S
C655 H670 0.961 . S
C655 H671 0.961 . S
C656 C657 1.370 . S
C656 C658 1.363 . S
C656 H672 0.931 . S
C657 C656 1.370 . S
C657 C661 1.408 . S
C658 C656 1.363 . S
C658 C659 1.370 . S
C658 C662 1.524 . S
C659 C651 1.503 . S
C659 C658 1.370 . S
C659 C660 1.403 . S
C660 C659 1.403 . S
C660 C661 1.404 . S
C660 C663 1.515 1_545 S
C661 C657 1.408 . S
C661 C660 1.404 . S
C661 H673 0.930 1_545 S
C662 C658 1.524 . S
C662 H674 0.956 . S
C662 H675 0.961 . S
C662 H676 0.961 . S
C663 C660 1.515 1_565 S
C663 H677 0.987 . S
C663 H678 0.980 . S
C663 H679 0.939 1_565 S
H664 C648 0.931 . S
H665 C653 0.929 . S
H666 C654 0.960 . S
H667 C654 0.962 . S
H668 C654 0.960 . S
H669 C655 0.961 . S
H670 C655 0.961 . S
H671 C655 0.961 . S
H672 C656 0.931 . S
H673 C661 0.930 1_565 S
H674 C662 0.956 . S
H675 C662 0.961 . S
H676 C662 0.961 . S
H677 C663 0.987 . S
H678 C663 0.980 . S
H679 C663 0.939 1_545 S
C680 C681 1.391 . S
C680 C682 1.394 . S
C680 H696 0.931 . S
C681 C680 1.391 . S
C681 C685 1.376 . S
C682 C680 1.394 . S
C682 C683 1.369 . S
C682 C686 1.531 . S
C683 C682 1.369 . S
C683 C684 1.410 . S
C683 C691 1.503 . S
C684 C683 1.410 . S
C684 C685 1.392 . S
C684 C687 1.511 . S
C685 C681 1.376 . S
C685 C684 1.392 . S
C685 H697 0.929 . S
C686 C682 1.531 . S
C686 H698 0.960 . S
C686 H699 0.962 . S
C686 H700 0.960 . S
C687 C684 1.511 . S
C687 H701 0.961 . S
C687 H702 0.961 . S
C687 H703 0.961 . S
C688 C689 1.370 . S
C688 C690 1.363 . S
C688 H704 0.931 . S
C689 C688 1.370 . S
C689 C693 1.408 . S
C690 C688 1.363 . S
C690 C691 1.370 . S
C690 C694 1.524 . S
C691 C683 1.503 . S
C691 C690 1.370 . S
C691 C692 1.403 . S
C692 C691 1.403 . S
C692 C693 1.404 . S
C692 C695 1.539 . S
C693 C689 1.408 . S
C693 C692 1.404 . S
C693 H705 0.930 . S
C694 C690 1.524 . S
C694 H706 0.956 . S
C694 H707 0.961 . S
C694 H708 0.961 . S
C695 C692 1.539 . S
C695 H709 0.958 . S
C695 H710 0.961 . S
C695 H711 0.960 . S
H696 C680 0.931 . S
H697 C685 0.929 . S
H698 C686 0.960 . S
H699 C686 0.962 . S
H700 C686 0.960 . S
H701 C687 0.961 . S
H702 C687 0.961 . S
H703 C687 0.961 . S
H704 C688 0.931 . S
H705 C693 0.930 . S
H706 C694 0.956 . S
H707 C694 0.961 . S
H708 C694 0.961 . S
H709 C695 0.958 . S
H710 C695 0.961 . S
H711 C695 0.960 . S
C712 C713 1.391 . S
C712 C714 1.394 . S
C712 H728 0.931 . S
C713 C712 1.391 . S
C713 C717 1.376 . S
C714 C712 1.394 . S
C714 C715 1.369 . S
C714 C718 1.531 . S
C715 C714 1.369 . S
C715 C716 1.410 . S
C715 C723 1.503 . S
C716 C715 1.410 . S
C716 C717 1.392 . S
C716 C719 1.511 . S
C717 C713 1.376 . S
C717 C716 1.392 . S
C717 H729 0.929 . S
C718 C714 1.531 . S
C718 H730 0.960 . S
C718 H731 0.962 . S
C718 H732 0.960 . S
C719 C716 1.511 . S
C719 H733 0.961 . S
C719 H734 0.961 . S
C719 H735 0.961 . S
C720 C721 1.370 . S
C720 C722 1.363 . S
C720 H736 0.931 . S
C721 C720 1.370 . S
C721 C725 1.408 . S
C722 C720 1.363 . S
C722 C723 1.370 . S
C722 C726 1.524 . S
C723 C715 1.503 . S
C723 C722 1.370 . S
C723 C724 1.403 . S
C724 C723 1.403 . S
C724 C725 1.404 . S
C724 C727 1.539 . S
C725 C721 1.408 . S
C725 C724 1.404 . S
C725 H737 0.930 . S
C726 C722 1.524 . S
C726 H738 0.956 . S
C726 H739 0.961 . S
C726 H740 0.961 . S
C727 C724 1.539 . S
C727 H741 0.958 . S
C727 H742 0.961 . S
C727 H743 0.960 . S
H728 C712 0.931 . S
H729 C717 0.929 . S
H730 C718 0.960 . S
H731 C718 0.962 . S
H732 C718 0.960 . S
H733 C719 0.961 . S
H734 C719 0.961 . S
H735 C719 0.961 . S
H736 C720 0.931 . S
H737 C725 0.930 . S
H738 C726 0.956 . S
H739 C726 0.961 . S
H740 C726 0.961 . S
H741 C727 0.958 . S
H742 C727 0.961 . S
H743 C727 0.960 . S
C744 C745 1.391 . S
C744 C746 1.394 . S
C744 H760 0.931 . S
C745 C744 1.391 . S
C745 C749 1.376 . S
C746 C744 1.394 . S
C746 C747 1.369 . S
C746 C750 1.531 . S
C747 C746 1.369 . S
C747 C748 1.410 . S
C747 C755 1.503 . S
C748 C747 1.410 . S
C748 C749 1.392 . S
C748 C751 1.511 . S
C749 C745 1.376 . S
C749 C748 1.392 . S
C749 H761 0.929 . S
C750 C746 1.531 . S
C750 H762 0.960 . S
C750 H763 0.962 . S
C750 H764 0.960 . S
C751 C748 1.511 . S
C751 H765 0.961 . S
C751 H766 0.961 . S
C751 H767 0.961 . S
C752 C753 1.370 . S
C752 C754 1.363 . S
C752 H768 0.931 . S
C753 C752 1.370 . S
C753 C757 1.408 . S
C754 C752 1.363 . S
C754 C755 1.370 . S
C754 C758 1.524 . S
C755 C747 1.503 . S
C755 C754 1.370 . S
C755 C756 1.403 . S
C756 C755 1.403 . S
C756 C757 1.404 . S
C756 C759 1.539 . S
C757 C753 1.408 . S
C757 C756 1.404 . S
C757 H769 0.930 . S
C758 C754 1.524 . S
C758 H770 0.956 . S
C758 H771 0.961 . S
C758 H772 0.962 1_455 S
C759 C756 1.539 . S
C759 H773 0.958 . S
C759 H774 0.961 . S
C759 H775 0.960 . S
H760 C744 0.931 . S
H761 C749 0.929 . S
H762 C750 0.960 . S
H763 C750 0.962 . S
H764 C750 0.960 . S
H765 C751 0.961 . S
H766 C751 0.961 . S
H767 C751 0.961 . S
H768 C752 0.931 . S
H769 C757 0.930 . S
H770 C758 0.956 . S
H771 C758 0.961 . S
H772 C758 0.962 1_655 S
H773 C759 0.958 . S
H774 C759 0.961 . S
H775 C759 0.960 . S
C776 C777 1.391 . S
C776 C778 1.394 1_554 S
C776 H792 0.931 . S
C777 C776 1.391 . S
C777 C781 1.376 . S
C778 C776 1.394 1_556 S
C778 C779 1.369 . S
C778 C782 1.531 1_565 S
C779 C778 1.369 . S
C779 C780 1.410 . S
C779 C787 1.503 . S
C780 C779 1.410 . S
C780 C781 1.392 1_556 S
C780 C783 1.511 . S
C781 C777 1.376 . S
C781 C780 1.392 1_554 S
C781 H793 0.929 . S
C782 C778 1.531 1_545 S
C782 H794 0.960 . S
C782 H795 0.965 . S
C782 H796 0.960 . S
C783 C780 1.511 . S
C783 H797 0.961 . S
C783 H798 0.961 . S
C783 H799 0.961 . S
C784 C785 1.370 . S
C784 C786 1.363 . S
C784 H800 0.931 . S
C785 C784 1.370 . S
C785 C789 1.408 . S
C786 C784 1.363 . S
C786 C787 1.370 . S
C786 C790 1.524 . S
C787 C779 1.503 . S
C787 C786 1.370 . S
C787 C788 1.403 . S
C788 C787 1.403 . S
C788 C789 1.404 . S
C788 C791 1.539 . S
C789 C785 1.408 . S
C789 C788 1.404 . S
C789 H801 0.930 1_565 S
C790 C786 1.524 . S
C790 H802 0.956 . S
C790 H803 0.961 . S
C790 H804 0.961 . S
C791 C788 1.539 . S
C791 H805 0.958 1_565 S
C791 H806 0.961 . S
C791 H807 0.960 . S
H792 C776 0.931 . S
H793 C781 0.929 . S
H794 C782 0.960 . S
H795 C782 0.965 . S
H796 C782 0.960 . S
H797 C783 0.961 . S
H798 C783 0.961 . S
H799 C783 0.961 . S
H800 C784 0.931 . S
H801 C789 0.930 1_545 S
H802 C790 0.956 . S
H803 C790 0.961 . S
H804 C790 0.961 . S
H805 C791 0.958 1_545 S
H806 C791 0.961 . S
H807 C791 0.960 . S
C808 C809 1.391 . S
C808 C810 1.394 . S
C808 H824 0.931 . S
C809 C808 1.391 . S
C809 C813 1.376 . S
C810 C808 1.394 . S
C810 C811 1.369 1_554 S
C810 C814 1.531 . S
C811 C810 1.369 1_556 S
C811 C812 1.410 . S
C811 C819 1.503 . S
C812 C811 1.410 . S
C812 C813 1.392 1_556 S
C812 C815 1.511 . S
C813 C809 1.376 . S
C813 C812 1.392 1_554 S
C813 H825 0.929 . S
C814 C810 1.531 . S
C814 H826 0.960 1_554 S
C814 H827 0.962 1_554 S
C814 H828 0.960 . S
C815 C812 1.511 . S
C815 H829 0.961 . S
C815 H830 0.961 . S
C815 H831 0.961 . S
C816 C817 1.370 . S
C816 C818 1.363 . S
C816 H832 0.931 . S
C817 C816 1.370 . S
C817 C821 1.408 . S
C818 C816 1.363 . S
C818 C819 1.370 . S
C818 C822 1.524 . S
C819 C811 1.503 . S
C819 C818 1.370 . S
C819 C820 1.403 . S
C820 C819 1.403 . S
C820 C821 1.404 . S
C820 C823 1.539 . S
C821 C817 1.408 . S
C821 C820 1.404 . S
C821 H833 0.930 . S
C822 C818 1.524 . S
C822 H834 0.956 . S
C822 H835 0.961 . S
C822 H836 0.961 . S
C823 C820 1.539 . S
C823 H837 0.958 . S
C823 H838 0.961 . S
C823 H839 0.960 . S
H824 C808 0.931 . S
H825 C813 0.929 . S
H826 C814 0.960 1_556 S
H827 C814 0.962 1_556 S
H828 C814 0.960 . S
H829 C815 0.961 . S
H830 C815 0.961 . S
H831 C815 0.961 . S
H832 C816 0.931 . S
H833 C821 0.930 . S
H834 C822 0.956 . S
H835 C822 0.961 . S
H836 C822 0.961 . S
H837 C823 0.958 . S
H838 C823 0.961 . S
H839 C823 0.960 . S
C840 C841 1.391 . S
C840 C842 1.394 1_554 S
C840 H856 0.931 . S
C841 C840 1.391 . S
C841 C845 1.376 . S
C842 C840 1.394 1_556 S
C842 C843 1.369 . S
C842 C846 1.531 . S
C843 C842 1.369 . S
C843 C844 1.410 . S
C843 C851 1.503 . S
C844 C843 1.410 . S
C844 C845 1.392 1_556 S
C844 C847 1.511 . S
C845 C841 1.376 . S
C845 C844 1.392 1_554 S
C845 H857 0.929 . S
C846 C842 1.531 . S
C846 H858 0.960 . S
C846 H859 0.962 . S
C846 H860 0.960 . S
C847 C844 1.511 . S
C847 H861 0.961 . S
C847 H862 0.961 . S
C847 H863 0.961 . S
C848 C849 1.370 . S
C848 C850 1.363 . S
C848 H864 0.931 . S
C849 C848 1.370 . S
C849 C853 1.408 . S
C850 C848 1.363 . S
C850 C851 1.370 . S
C850 C854 1.524 . S
C851 C843 1.503 . S
C851 C850 1.370 . S
C851 C852 1.403 . S
C852 C851 1.403 . S
C852 C853 1.404 . S
C852 C855 1.539 . S
C853 C849 1.408 . S
C853 C852 1.404 . S
C853 H865 0.930 . S
C854 C850 1.524 . S
C854 H866 0.956 . S
C854 H867 0.961 . S
C854 H868 0.961 . S
C855 C852 1.539 . S
C855 H869 0.958 . S
C855 H870 0.961 . S
C855 H871 0.960 . S
H856 C840 0.931 . S
H857 C845 0.929 . S
H858 C846 0.960 . S
H859 C846 0.962 . S
H860 C846 0.960 . S
H861 C847 0.961 . S
H862 C847 0.961 . S
H863 C847 0.961 . S
H864 C848 0.931 . S
H865 C853 0.930 . S
H866 C854 0.956 . S
H867 C854 0.961 . S
H868 C854 0.961 . S
H869 C855 0.958 . S
H870 C855 0.961 . S
H871 C855 0.960 . S
C872 C873 1.391 . S
C872 C874 1.394 1_554 S
C872 H888 0.931 . S
C873 C872 1.391 . S
C873 C877 1.376 . S
C874 C872 1.394 1_556 S
C874 C875 1.369 . S
C874 C878 1.531 . S
C875 C874 1.369 . S
C875 C876 1.410 . S
C875 C883 1.503 . S
C876 C875 1.410 . S
C876 C877 1.392 1_556 S
C876 C879 1.511 1_655 S
C877 C873 1.376 . S
C877 C876 1.392 1_554 S
C877 H889 0.929 . S
C878 C874 1.531 . S
C878 H890 0.960 . S
C878 H891 0.962 . S
C878 H892 0.960 . S
C879 C876 1.511 1_455 S
C879 H893 0.961 1_556 S
C879 H894 0.961 . S
C879 H895 0.961 . S
C880 C881 1.370 . S
C880 C882 1.363 . S
C880 H896 0.931 . S
C881 C880 1.370 . S
C881 C885 1.408 . S
C882 C880 1.363 . S
C882 C883 1.370 . S
C882 C886 1.524 . S
C883 C875 1.503 . S
C883 C882 1.370 . S
C883 C884 1.403 . S
C884 C883 1.403 . S
C884 C885 1.404 . S
C884 C887 1.539 . S
C885 C881 1.408 . S
C885 C884 1.404 . S
C885 H897 0.930 . S
C886 C882 1.524 . S
C886 H898 0.956 . S
C886 H899 0.961 . S
C886 H900 0.961 . S
C887 C884 1.539 . S
C887 H901 0.958 . S
C887 H902 0.961 . S
C887 H903 0.960 . S
H888 C872 0.931 . S
H889 C877 0.929 . S
H890 C878 0.960 . S
H891 C878 0.962 . S
H892 C878 0.960 . S
H893 C879 0.961 1_554 S
H894 C879 0.961 . S
H895 C879 0.961 . S
H896 C880 0.931 . S
H897 C885 0.930 . S
H898 C886 0.956 . S
H899 C886 0.961 . S
H900 C886 0.961 . S
H901 C887 0.958 . S
H902 C887 0.961 . S
H903 C887 0.960 . S
C904 C905 1.391 . S
C904 C906 1.394 . S
C904 H920 0.931 . S
C905 C904 1.391 . S
C905 C909 1.376 . S
C906 C904 1.394 . S
C906 C907 1.369 . S
C906 C910 1.531 . S
C907 C906 1.369 . S
C907 C908 1.410 . S
C907 C915 1.503 . S
C908 C907 1.410 . S
C908 C909 1.392 . S
C908 C911 1.511 . S
C909 C905 1.376 . S
C909 C908 1.392 . S
C909 H921 0.929 . S
C910 C906 1.531 . S
C910 H922 0.960 . S
C910 H923 0.962 . S
C910 H924 0.960 . S
C911 C908 1.511 . S
C911 H925 0.961 . S
C911 H926 0.961 . S
C911 H927 0.961 . S
C912 C913 1.370 . S
C912 C914 1.363 . S
C912 H928 0.931 . S
C913 C912 1.370 . S
C913 C917 1.408 . S
C914 C912 1.363 . S
C914 C915 1.370 . S
C914 C918 1.524 . S
C915 C907 1.503 . S
C915 C914 1.370 . S
C915 C916 1.403 . S
C916 C915 1.403 . S
C916 C917 1.404 . S
C916 C919 1.539 . S
C917 C913 1.408 . S
C917 C916 1.404 . S
C917 H929 0.930 . S
C918 C914 1.524 . S
C918 H930 0.956 . S
C918 H931 0.961 . S
C918 H932 0.961 . S
C919 C916 1.539 . S
C919 H933 0.958 . S
C919 H934 0.961 . S
C919 H935 0.960 . S
H920 C904 0.931 . S
H921 C909 0.929 . S
H922 C910 0.960 . S
H923 C910 0.962 . S
H924 C910 0.960 . S
H925 C911 0.961 . S
H926 C911 0.961 . S
H927 C911 0.961 . S
H928 C912 0.931 . S
H929 C917 0.930 . S
H930 C918 0.956 . S
H931 C918 0.961 . S
H932 C918 0.961 . S
H933 C919 0.958 . S
H934 C919 0.961 . S
H935 C919 0.960 . S
C936 C937 1.391 . S
C936 C938 1.394 . S
C936 H952 0.931 . S
C937 C936 1.391 . S
C937 C941 1.376 . S
C938 C936 1.394 . S
C938 C939 1.369 . S
C938 C942 1.531 . S
C939 C938 1.369 . S
C939 C940 1.410 . S
C939 C947 1.503 . S
C940 C939 1.410 . S
C940 C941 1.392 . S
C940 C943 1.511 . S
C941 C937 1.376 . S
C941 C940 1.392 . S
C941 H953 0.929 . S
C942 C938 1.531 . S
C942 H954 0.960 . S
C942 H955 0.962 . S
C942 H956 0.960 . S
C943 C940 1.511 . S
C943 H957 0.961 . S
C943 H958 0.961 . S
C943 H959 0.961 . S
C944 C945 1.370 . S
C944 C946 1.363 . S
C944 H960 0.931 . S
C945 C944 1.370 . S
C945 C949 1.408 1_545 S
C946 C944 1.363 . S
C946 C947 1.370 . S
C946 C950 1.524 . S
C947 C939 1.503 . S
C947 C946 1.370 . S
C947 C948 1.403 . S
C948 C947 1.403 . S
C948 C949 1.404 1_545 S
C948 C951 1.539 1_545 S
C949 C945 1.408 1_565 S
C949 C948 1.404 1_565 S
C949 H961 0.930 . S
C950 C946 1.524 . S
C950 H962 0.956 . S
C950 H963 0.961 . S
C950 H964 0.961 . S
C951 C948 1.539 1_565 S
C951 H965 0.958 . S
C951 H966 0.961 . S
C951 H967 0.960 1_565 S
H952 C936 0.931 . S
H953 C941 0.929 . S
H954 C942 0.960 . S
H955 C942 0.962 . S
H956 C942 0.960 . S
H957 C943 0.961 . S
H958 C943 0.961 . S
H959 C943 0.961 . S
H960 C944 0.931 . S
H961 C949 0.930 . S
H962 C950 0.956 . S
H963 C950 0.961 . S
H964 C950 0.961 . S
H965 C951 0.958 . S
H966 C951 0.961 . S
H967 C951 0.960 1_545 S
C968 C969 1.391 . S
C968 C970 1.394 . S
C968 H984 0.931 . S
C969 C968 1.391 . S
C969 C973 1.376 . S
C970 C968 1.394 . S
C970 C971 1.369 . S
C970 C974 1.531 . S
C971 C970 1.369 . S
C971 C972 1.410 . S
C971 C979 1.503 . S
C972 C971 1.410 . S
C972 C973 1.392 . S
C972 C975 1.511 . S
C973 C969 1.376 . S
C973 C972 1.392 . S
C973 H985 0.929 . S
C974 C970 1.531 . S
C974 H986 0.960 . S
C974 H987 0.962 . S
C974 H988 0.960 . S
C975 C972 1.511 . S
C975 H989 0.961 . S
C975 H990 0.961 . S
C975 H991 0.961 . S
C976 C977 1.370 . S
C976 C978 1.363 . S
C976 H992 0.931 . S
C977 C976 1.370 . S
C977 C981 1.408 . S
C978 C976 1.363 . S
C978 C979 1.370 . S
C978 C982 1.524 . S
C979 C971 1.503 . S
C979 C978 1.370 . S
C979 C980 1.403 . S
C980 C979 1.403 . S
C980 C981 1.404 . S
C980 C983 1.539 . S
C981 C977 1.408 . S
C981 C980 1.404 . S
C981 H993 0.930 . S
C982 C978 1.524 . S
C982 H994 0.956 . S
C982 H995 0.961 . S
C982 H996 0.961 . S
C983 C980 1.539 . S
C983 H997 0.958 . S
C983 H998 0.961 . S
C983 H999 0.960 . S
H984 C968 0.931 . S
H985 C973 0.929 . S
H986 C974 0.960 . S
H987 C974 0.962 . S
H988 C974 0.960 . S
H989 C975 0.961 . S
H990 C975 0.961 . S
H991 C975 0.961 . S
H992 C976 0.931 . S
H993 C981 0.930 . S
H994 C982 0.956 . S
H995 C982 0.961 . S
H996 C982 0.961 . S
H997 C983 0.958 . S
H998 C983 0.961 . S
H999 C983 0.960 . S
C1000 C1001 1.391 . S
C1000 C1002 1.394 . S
C1000 H1016 0.931 . S
C1001 C1000 1.391 . S
C1001 C1005 1.376 . S
C1002 C1000 1.394 . S
C1002 C1003 1.369 . S
C1002 C1006 1.531 . S
C1003 C1002 1.369 . S
C1003 C1004 1.410 . S
C1003 C1011 1.503 . S
C1004 C1003 1.410 . S
C1004 C1005 1.392 . S
C1004 C1007 1.511 . S
C1005 C1001 1.376 . S
C1005 C1004 1.392 . S
C1005 H1017 0.929 . S
C1006 C1002 1.531 . S
C1006 H1018 0.960 . S
C1006 H1019 0.962 . S
C1006 H1020 0.960 . S
C1007 C1004 1.511 . S
C1007 H1021 0.961 . S
C1007 H1022 0.961 . S
C1007 H1023 0.961 . S
C1008 C1009 1.370 . S
C1008 C1010 1.363 . S
C1008 H1024 0.931 . S
C1009 C1008 1.370 . S
C1009 C1013 1.408 . S
C1010 C1008 1.363 . S
C1010 C1011 1.370 . S
C1010 C1014 1.524 . S
C1011 C1003 1.503 . S
C1011 C1010 1.370 . S
C1011 C1012 1.403 . S
C1012 C1011 1.403 . S
C1012 C1013 1.404 . S
C1012 C1015 1.539 . S
C1013 C1009 1.408 . S
C1013 C1012 1.404 . S
C1013 H1025 0.930 . S
C1014 C1010 1.524 . S
C1014 H1026 0.956 . S
C1014 H1027 0.961 . S
C1014 H1028 0.961 . S
C1015 C1012 1.539 . S
C1015 H1029 0.958 . S
C1015 H1030 0.961 . S
C1015 H1031 0.960 . S
H1016 C1000 0.931 . S
H1017 C1005 0.929 . S
H1018 C1006 0.960 . S
H1019 C1006 0.962 . S
H1020 C1006 0.960 . S
H1021 C1007 0.961 . S
H1022 C1007 0.961 . S
H1023 C1007 0.961 . S
H1024 C1008 0.931 . S
H1025 C1013 0.930 . S
H1026 C1014 0.956 . S
H1027 C1014 0.961 . S
H1028 C1014 0.961 . S
H1029 C1015 0.958 . S
H1030 C1015 0.961 . S
H1031 C1015 0.960 . S
C1032 C1033 1.391 1_554 S
C1032 C1034 1.394 1_554 S
C1032 H1048 0.931 . S
C1033 C1032 1.391 1_556 S
C1033 C1037 1.376 . S
C1034 C1032 1.394 1_556 S
C1034 C1035 1.369 . S
C1034 C1038 1.531 1_556 S
C1035 C1034 1.369 . S
C1035 C1036 1.410 . S
C1035 C1043 1.503 . S
C1036 C1035 1.410 . S
C1036 C1037 1.392 . S
C1036 C1039 1.511 . S
C1037 C1033 1.376 . S
C1037 C1036 1.392 . S
C1037 H1049 0.929 . S
C1038 C1034 1.531 1_554 S
C1038 H1050 0.960 1_654 S
C1038 H1051 0.962 . S
C1038 H1052 0.960 . S
C1039 C1036 1.511 . S
C1039 H1053 0.961 . S
C1039 H1054 0.961 . S
C1039 H1055 0.961 . S
C1040 C1041 1.370 1_655 S
C1040 C1042 1.363 . S
C1040 H1056 0.931 . S
C1041 C1040 1.370 1_455 S
C1041 C1045 1.408 . S
C1042 C1040 1.363 . S
C1042 C1043 1.370 . S
C1042 C1046 1.524 . S
C1043 C1035 1.503 . S
C1043 C1042 1.370 . S
C1043 C1044 1.403 . S
C1044 C1043 1.403 . S
C1044 C1045 1.404 1_655 S
C1044 C1047 1.540 . S
C1045 C1041 1.408 . S
C1045 C1044 1.404 1_455 S
C1045 H1057 0.930 . S
C1046 C1042 1.524 . S
C1046 H1058 0.956 1_556 S
C1046 H1059 0.961 . S
C1046 H1060 0.961 . S
C1047 C1044 1.540 . S
C1047 H1061 0.957 1_655 S
C1047 H1062 0.961 1_655 S
C1047 H1063 0.961 . S
H1048 C1032 0.931 . S
H1049 C1037 0.929 . S
H1050 C1038 0.960 1_456 S
H1051 C1038 0.962 . S
H1052 C1038 0.960 . S
H1053 C1039 0.961 . S
H1054 C1039 0.961 . S
H1055 C1039 0.961 . S
H1056 C1040 0.931 . S
H1057 C1045 0.930 . S
H1058 C1046 0.956 1_554 S
H1059 C1046 0.961 . S
H1060 C1046 0.961 . S
H1061 C1047 0.957 1_455 S
H1062 C1047 0.961 1_455 S
H1063 C1047 0.961 . S
C1064 C1065 1.391 . S
C1064 C1066 1.394 . S
C1064 H1080 0.931 . S
C1065 C1064 1.391 . S
C1065 C1069 1.376 1_556 S
C1066 C1064 1.394 . S
C1066 C1067 1.369 . S
C1066 C1070 1.531 . S
C1067 C1066 1.369 . S
C1067 C1068 1.410 . S
C1067 C1075 1.503 . S
C1068 C1067 1.410 . S
C1068 C1069 1.392 1_556 S
C1068 C1071 1.511 1_556 S
C1069 C1065 1.376 1_554 S
C1069 C1068 1.392 1_554 S
C1069 H1081 0.929 . S
C1070 C1066 1.531 . S
C1070 H1082 0.960 . S
C1070 H1083 0.962 . S
C1070 H1084 0.960 . S
C1071 C1068 1.511 1_554 S
C1071 H1085 0.961 . S
C1071 H1086 0.961 . S
C1071 H1087 0.961 . S
C1072 C1073 1.370 . S
C1072 C1074 1.363 . S
C1072 H1088 0.931 . S
C1073 C1072 1.370 . S
C1073 C1077 1.408 1_545 S
C1074 C1072 1.363 . S
C1074 C1075 1.370 1_545 S
C1074 C1078 1.524 . S
C1075 C1067 1.503 . S
C1075 C1074 1.370 1_565 S
C1075 C1076 1.403 . S
C1076 C1075 1.403 . S
C1076 C1077 1.404 . S
C1076 C1079 1.539 . S
C1077 C1073 1.408 1_565 S
C1077 C1076 1.404 . S
C1077 H1089 0.930 . S
C1078 C1074 1.524 . S
C1078 H1090 0.956 . S
C1078 H1091 0.961 . S
C1078 H1092 0.961 . S
C1079 C1076 1.539 . S
C1079 H1093 0.958 . S
C1079 H1094 0.961 . S
C1079 H1095 0.960 . S
H1080 C1064 0.931 . S
H1081 C1069 0.929 . S
H1082 C1070 0.960 . S
H1083 C1070 0.962 . S
H1084 C1070 0.960 . S
H1085 C1071 0.961 . S
H1086 C1071 0.961 . S
H1087 C1071 0.961 . S
H1088 C1072 0.931 . S
H1089 C1077 0.930 . S
H1090 C1078 0.956 . S
H1091 C1078 0.961 . S
H1092 C1078 0.961 . S
H1093 C1079 0.958 . S
H1094 C1079 0.961 . S
H1095 C1079 0.960 . S
C1096 C1097 1.391 . S
C1096 C1098 1.394 . S
C1096 H1112 0.931 . S
C1097 C1096 1.391 . S
C1097 C1101 1.376 . S
C1098 C1096 1.394 . S
C1098 C1099 1.369 . S
C1098 C1102 1.531 . S
C1099 C1098 1.369 . S
C1099 C1100 1.410 . S
C1099 C1107 1.503 . S
C1100 C1099 1.410 . S
C1100 C1101 1.392 . S
C1100 C1103 1.511 . S
C1101 C1097 1.376 . S
C1101 C1100 1.392 . S
C1101 H1113 0.929 . S
C1102 C1098 1.531 . S
C1102 H1114 0.960 . S
C1102 H1115 0.962 . S
C1102 H1116 0.960 . S
C1103 C1100 1.511 . S
C1103 H1117 0.961 . S
C1103 H1118 0.961 . S
C1103 H1119 0.961 . S
C1104 C1105 1.370 . S
C1104 C1106 1.363 . S
C1104 H1120 0.931 . S
C1105 C1104 1.370 . S
C1105 C1109 1.408 . S
C1106 C1104 1.363 . S
C1106 C1107 1.370 . S
C1106 C1110 1.524 . S
C1107 C1099 1.503 . S
C1107 C1106 1.370 . S
C1107 C1108 1.403 . S
C1108 C1107 1.403 . S
C1108 C1109 1.404 . S
C1108 C1111 1.539 1_556 S
C1109 C1105 1.408 . S
C1109 C1108 1.404 . S
C1109 H1121 0.930 . S
C1110 C1106 1.524 . S
C1110 H1122 0.956 . S
C1110 H1123 0.961 . S
C1110 H1124 0.961 . S
C1111 C1108 1.539 1_554 S
C1111 H1125 0.958 . S
C1111 H1126 0.961 . S
C1111 H1127 0.960 . S
H1112 C1096 0.931 . S
H1113 C1101 0.929 . S
H1114 C1102 0.960 . S
H1115 C1102 0.962 . S
H1116 C1102 0.960 . S
H1117 C1103 0.961 . S
H1118 C1103 0.961 . S
H1119 C1103 0.961 . S
H1120 C1104 0.931 . S
H1121 C1109 0.930 . S
H1122 C1110 0.956 . S
H1123 C1110 0.961 . S
H1124 C1110 0.961 . S
H1125 C1111 0.958 . S
H1126 C1111 0.961 . S
H1127 C1111 0.960 . S
C1128 C1129 1.391 1_554 S
C1128 C1130 1.399 . S
C1128 H1144 0.931 . S
C1129 C1128 1.391 1_556 S
C1129 C1133 1.376 . S
C1130 C1128 1.399 . S
C1130 C1131 1.355 1_554 S
C1130 C1134 1.540 . S
C1131 C1130 1.355 1_556 S
C1131 C1132 1.410 . S
C1131 C1139 1.503 . S
C1132 C1131 1.410 . S
C1132 C1133 1.392 . S
C1132 C1135 1.511 . S
C1133 C1129 1.376 . S
C1133 C1132 1.392 . S
C1133 H1145 0.929 . S
C1134 C1130 1.540 . S
C1134 H1146 0.960 . S
C1134 H1147 0.962 . S
C1134 H1148 0.960 . S
C1135 C1132 1.511 . S
C1135 H1149 0.961 . S
C1135 H1150 0.961 . S
C1135 H1151 0.961 . S
C1136 C1137 1.370 . S
C1136 C1138 1.363 . S
C1136 H1152 0.931 . S
C1137 C1136 1.370 . S
C1137 C1141 1.408 . S
C1138 C1136 1.363 . S
C1138 C1139 1.370 . S
C1138 C1142 1.524 . S
C1139 C1131 1.503 . S
C1139 C1138 1.370 . S
C1139 C1140 1.403 . S
C1140 C1139 1.403 . S
C1140 C1141 1.404 . S
C1140 C1143 1.539 . S
C1141 C1137 1.408 . S
C1141 C1140 1.404 . S
C1141 H1153 0.930 . S
C1142 C1138 1.524 . S
C1142 H1154 0.956 . S
C1142 H1155 0.961 . S
C1142 H1156 0.961 . S
C1143 C1140 1.539 . S
C1143 H1157 0.958 1_556 S
C1143 H1158 0.961 . S
C1143 H1159 0.960 . S
H1144 C1128 0.931 . S
H1145 C1133 0.929 . S
H1146 C1134 0.960 . S
H1147 C1134 0.962 . S
H1148 C1134 0.960 . S
H1149 C1135 0.961 . S
H1150 C1135 0.961 . S
H1151 C1135 0.961 . S
H1152 C1136 0.931 . S
H1153 C1141 0.930 . S
H1154 C1142 0.956 . S
H1155 C1142 0.961 . S
H1156 C1142 0.961 . S
H1157 C1143 0.958 1_554 S
H1158 C1143 0.961 . S
H1159 C1143 0.960 . S
C1160 C1161 1.391 . S
C1160 C1162 1.394 . S
C1160 H1176 0.931 . S
C1161 C1160 1.391 . S
C1161 C1165 1.376 . S
C1162 C1160 1.394 . S
C1162 C1163 1.369 . S
C1162 C1166 1.531 . S
C1163 C1162 1.369 . S
C1163 C1164 1.410 . S
C1163 C1171 1.503 . S
C1164 C1163 1.410 . S
C1164 C1165 1.392 . S
C1164 C1167 1.511 . S
C1165 C1161 1.376 . S
C1165 C1164 1.392 . S
C1165 H1177 0.929 . S
C1166 C1162 1.531 . S
C1166 H1178 0.960 . S
C1166 H1179 0.962 . S
C1166 H1180 0.960 . S
C1167 C1164 1.511 . S
C1167 H1181 0.961 . S
C1167 H1182 0.961 . S
C1167 H1183 1.000 . S
C1168 C1169 1.370 . S
C1168 C1170 1.363 . S
C1168 H1184 0.931 . S
C1169 C1168 1.370 . S
C1169 C1173 1.408 . S
C1170 C1168 1.363 . S
C1170 C1171 1.370 . S
C1170 C1174 1.524 . S
C1171 C1163 1.503 . S
C1171 C1170 1.370 . S
C1171 C1172 1.403 . S
C1172 C1171 1.403 . S
C1172 C1173 1.404 . S
C1172 C1175 1.539 . S
C1173 C1169 1.408 . S
C1173 C1172 1.404 . S
C1173 H1185 0.930 . S
C1174 C1170 1.524 . S
C1174 H1186 0.956 . S
C1174 H1187 0.961 . S
C1174 H1188 0.961 . S
C1175 C1172 1.539 . S
C1175 H1189 0.958 . S
C1175 H1190 0.961 . S
C1175 H1191 0.960 . S
H1176 C1160 0.931 . S
H1177 C1165 0.929 . S
H1178 C1166 0.960 . S
H1179 C1166 0.962 . S
H1180 C1166 0.960 . S
H1181 C1167 0.961 . S
H1182 C1167 0.961 . S
H1183 C1167 1.000 . S
H1184 C1168 0.931 . S
H1185 C1173 0.930 . S
H1186 C1174 0.956 . S
H1187 C1174 0.961 . S
H1188 C1174 0.961 . S
H1189 C1175 0.958 . S
H1190 C1175 0.961 . S
H1191 C1175 0.960 . S
C1192 C1193 1.391 . S
C1192 C1194 1.394 . S
C1192 H1208 0.931 . S
C1193 C1192 1.391 . S
C1193 C1197 1.376 . S
C1194 C1192 1.394 . S
C1194 C1195 1.369 . S
C1194 C1198 1.531 . S
C1195 C1194 1.369 . S
C1195 C1196 1.410 . S
C1195 C1203 1.503 . S
C1196 C1195 1.410 . S
C1196 C1197 1.392 . S
C1196 C1199 1.511 . S
C1197 C1193 1.376 . S
C1197 C1196 1.392 . S
C1197 H1209 0.929 . S
C1198 C1194 1.531 . S
C1198 H1210 0.960 . S
C1198 H1211 0.962 . S
C1198 H1212 0.960 . S
C1199 C1196 1.511 . S
C1199 H1213 0.961 . S
C1199 H1214 0.961 . S
C1199 H1215 0.941 1_545 S
C1200 C1201 1.370 . S
C1200 C1202 1.363 . S
C1200 H1216 0.931 . S
C1201 C1200 1.370 . S
C1201 C1205 1.408 . S
C1202 C1200 1.363 . S
C1202 C1203 1.370 . S
C1202 C1206 1.524 . S
C1203 C1195 1.503 . S
C1203 C1202 1.370 . S
C1203 C1204 1.403 . S
C1204 C1203 1.403 . S
C1204 C1205 1.404 . S
C1204 C1207 1.539 . S
C1205 C1201 1.408 . S
C1205 C1204 1.404 . S
C1205 H1217 0.930 . S
C1206 C1202 1.524 . S
C1206 H1218 0.956 . S
C1206 H1219 0.961 . S
C1206 H1220 0.961 . S
C1207 C1204 1.539 . S
C1207 H1221 0.958 . S
C1207 H1222 0.915 1_545 S
C1207 H1223 0.960 . S
H1208 C1192 0.931 . S
H1209 C1197 0.929 . S
H1210 C1198 0.960 . S
H1211 C1198 0.962 . S
H1212 C1198 0.960 . S
H1213 C1199 0.961 . S
H1214 C1199 0.961 . S
H1215 C1199 0.941 1_565 S
H1216 C1200 0.931 . S
H1217 C1205 0.930 . S
H1218 C1206 0.956 . S
H1219 C1206 0.961 . S
H1220 C1206 0.961 . S
H1221 C1207 0.958 . S
H1222 C1207 0.915 1_565 S
H1223 C1207 0.960 . S
C1224 C1225 1.391 . S
C1224 C1226 1.394 . S
C1224 H1240 0.931 . S
C1225 C1224 1.391 . S
C1225 C1229 1.376 . S
C1226 C1224 1.394 . S
C1226 C1227 1.369 . S
C1226 C1230 1.531 . S
C1227 C1226 1.369 . S
C1227 C1228 1.410 . S
C1227 C1235 1.503 . S
C1228 C1227 1.410 . S
C1228 C1229 1.392 . S
C1228 C1231 1.511 . S
C1229 C1225 1.376 . S
C1229 C1228 1.392 . S
C1229 H1241 0.929 . S
C1230 C1226 1.531 . S
C1230 H1242 0.960 . S
C1230 H1243 0.962 . S
C1230 H1244 0.960 . S
C1231 C1228 1.511 . S
C1231 H1245 0.961 . S
C1231 H1246 0.961 . S
C1231 H1247 0.961 . S
C1232 C1233 1.370 . S
C1232 C1234 1.363 . S
C1232 H1248 0.931 . S
C1233 C1232 1.370 . S
C1233 C1237 1.408 . S
C1234 C1232 1.363 . S
C1234 C1235 1.370 . S
C1234 C1238 1.524 . S
C1235 C1227 1.503 . S
C1235 C1234 1.370 . S
C1235 C1236 1.403 . S
C1236 C1235 1.403 . S
C1236 C1237 1.404 . S
C1236 C1239 1.539 . S
C1237 C1233 1.408 . S
C1237 C1236 1.404 . S
C1237 H1249 0.930 . S
C1238 C1234 1.524 . S
C1238 H1250 0.956 . S
C1238 H1251 0.961 . S
C1238 H1252 0.961 . S
C1239 C1236 1.539 . S
C1239 H1253 0.958 . S
C1239 H1254 0.961 . S
C1239 H1255 0.960 . S
H1240 C1224 0.931 . S
H1241 C1229 0.929 . S
H1242 C1230 0.960 . S
H1243 C1230 0.962 . S
H1244 C1230 0.960 . S
H1245 C1231 0.961 . S
H1246 C1231 0.961 . S
H1247 C1231 0.961 . S
H1248 C1232 0.931 . S
H1249 C1237 0.930 . S
H1250 C1238 0.956 . S
H1251 C1238 0.961 . S
H1252 C1238 0.961 . S
H1253 C1239 0.958 . S
H1254 C1239 0.961 . S
H1255 C1239 0.960 . S
C1256 C1257 1.391 . S
C1256 C1258 1.394 . S
C1256 H1272 0.931 . S
C1257 C1256 1.391 . S
C1257 C1261 1.376 . S
C1258 C1256 1.394 . S
C1258 C1259 1.369 . S
C1258 C1262 1.531 . S
C1259 C1258 1.369 . S
C1259 C1260 1.410 . S
C1259 C1267 1.503 . S
C1260 C1259 1.410 . S
C1260 C1261 1.392 . S
C1260 C1263 1.511 . S
C1261 C1257 1.376 . S
C1261 C1260 1.392 . S
C1261 H1273 0.929 . S
C1262 C1258 1.531 . S
C1262 H1274 0.960 . S
C1262 H1275 0.962 . S
C1262 H1276 0.960 . S
C1263 C1260 1.511 . S
C1263 H1277 0.961 . S
C1263 H1278 0.961 . S
C1263 H1279 0.961 . S
C1264 C1265 1.370 . S
C1264 C1266 1.363 . S
C1264 H1280 0.931 . S
C1265 C1264 1.370 . S
C1265 C1269 1.408 . S
C1266 C1264 1.363 . S
C1266 C1267 1.370 . S
C1266 C1270 1.524 . S
C1267 C1259 1.503 . S
C1267 C1266 1.370 . S
C1267 C1268 1.403 . S
C1268 C1267 1.403 . S
C1268 C1269 1.404 . S
C1268 C1271 1.539 . S
C1269 C1265 1.408 . S
C1269 C1268 1.404 . S
C1269 H1281 0.930 . S
C1270 C1266 1.524 . S
C1270 H1282 0.956 . S
C1270 H1283 0.961 . S
C1270 H1284 0.961 . S
C1271 C1268 1.539 . S
C1271 H1285 0.958 . S
C1271 H1286 0.961 . S
C1271 H1287 0.960 . S
H1272 C1256 0.931 . S
H1273 C1261 0.929 . S
H1274 C1262 0.960 . S
H1275 C1262 0.962 . S
H1276 C1262 0.960 . S
H1277 C1263 0.961 . S
H1278 C1263 0.961 . S
H1279 C1263 0.961 . S
H1280 C1264 0.931 . S
H1281 C1269 0.930 . S
H1282 C1270 0.956 . S
H1283 C1270 0.961 . S
H1284 C1270 0.961 . S
H1285 C1271 0.958 . S
H1286 C1271 0.961 . S
H1287 C1271 0.960 . S
C1288 C1289 1.391 . S
C1288 C1290 1.394 . S
C1288 H1304 0.931 . S
C1289 C1288 1.391 . S
C1289 C1293 1.376 . S
C1290 C1288 1.394 . S
C1290 C1291 1.369 . S
C1290 C1294 1.531 . S
C1291 C1290 1.369 . S
C1291 C1292 1.410 . S
C1291 C1299 1.503 . S
C1292 C1291 1.410 . S
C1292 C1293 1.392 . S
C1292 C1295 1.511 . S
C1293 C1289 1.376 . S
C1293 C1292 1.392 . S
C1293 H1305 0.929 . S
C1294 C1290 1.531 . S
C1294 H1306 0.960 . S
C1294 H1307 0.962 . S
C1294 H1308 0.960 . S
C1295 C1292 1.511 . S
C1295 H1309 0.961 . S
C1295 H1310 0.961 . S
C1295 H1311 0.961 1_655 S
C1296 C1297 1.370 . S
C1296 C1298 1.363 . S
C1296 H1312 0.931 . S
C1297 C1296 1.370 . S
C1297 C1301 1.408 . S
C1298 C1296 1.363 . S
C1298 C1299 1.370 . S
C1298 C1302 1.524 . S
C1299 C1291 1.503 . S
C1299 C1298 1.370 . S
C1299 C1300 1.403 . S
C1300 C1299 1.403 . S
C1300 C1301 1.404 . S
C1300 C1303 1.539 . S
C1301 C1297 1.408 . S
C1301 C1300 1.404 . S
C1301 H1313 0.930 . S
C1302 C1298 1.524 . S
C1302 H1314 0.956 . S
C1302 H1315 0.961 . S
C1302 H1316 0.961 . S
C1303 C1300 1.539 . S
C1303 H1317 0.958 . S
C1303 H1318 0.961 1_655 S
C1303 H1319 0.960 . S
H1304 C1288 0.931 . S
H1305 C1293 0.929 . S
H1306 C1294 0.960 . S
H1307 C1294 0.962 . S
H1308 C1294 0.960 . S
H1309 C1295 0.961 . S
H1310 C1295 0.961 . S
H1311 C1295 0.961 1_455 S
H1312 C1296 0.931 . S
H1313 C1301 0.930 . S
H1314 C1302 0.956 . S
H1315 C1302 0.961 . S
H1316 C1302 0.961 . S
H1317 C1303 0.958 . S
H1318 C1303 0.961 1_455 S
H1319 C1303 0.960 . S
C1320 C1321 1.391 . S
C1320 C1322 1.394 . S
C1320 H1336 0.931 . S
C1321 C1320 1.391 . S
C1321 C1325 1.376 . S
C1322 C1320 1.394 . S
C1322 C1323 1.369 . S
C1322 C1326 1.531 . S
C1323 C1322 1.369 . S
C1323 C1324 1.410 . S
C1323 C1331 1.503 . S
C1324 C1323 1.410 . S
C1324 C1325 1.392 . S
C1324 C1327 1.511 . S
C1325 C1321 1.376 . S
C1325 C1324 1.392 . S
C1325 H1337 0.929 . S
C1326 C1322 1.531 . S
C1326 H1338 0.960 . S
C1326 H1339 0.962 1_565 S
C1326 H1340 0.960 . S
C1327 C1324 1.511 . S
C1327 H1341 0.961 . S
C1327 H1342 0.961 . S
C1327 H1343 0.961 . S
C1328 C1329 1.370 . S
C1328 C1330 1.363 . S
C1328 H1344 0.931 . S
C1329 C1328 1.370 . S
C1329 C1333 1.408 . S
C1330 C1328 1.363 . S
C1330 C1331 1.370 . S
C1330 C1334 1.524 . S
C1331 C1323 1.503 . S
C1331 C1330 1.370 . S
C1331 C1332 1.403 . S
C1332 C1331 1.403 . S
C1332 C1333 1.404 . S
C1332 C1335 1.539 . S
C1333 C1329 1.408 . S
C1333 C1332 1.404 . S
C1333 H1345 0.930 . S
C1334 C1330 1.524 . S
C1334 H1346 0.985 . S
C1334 H1347 0.961 . S
C1334 H1348 0.961 . S
C1335 C1332 1.539 . S
C1335 H1349 0.958 . S
C1335 H1350 0.961 . S
C1335 H1351 0.960 . S
H1336 C1320 0.931 . S
H1337 C1325 0.929 . S
H1338 C1326 0.960 . S
H1339 C1326 0.962 1_545 S
H1340 C1326 0.960 . S
H1341 C1327 0.961 . S
H1342 C1327 0.961 . S
H1343 C1327 0.961 . S
H1344 C1328 0.931 . S
H1345 C1333 0.930 . S
H1346 C1334 0.985 . S
H1347 C1334 0.961 . S
H1348 C1334 0.961 . S
H1349 C1335 0.958 . S
H1350 C1335 0.961 . S
H1351 C1335 0.960 . S
C1352 C1353 1.391 . S
C1352 C1354 1.394 . S
C1352 H1368 0.931 . S
C1353 C1352 1.391 . S
C1353 C1357 1.376 . S
C1354 C1352 1.394 . S
C1354 C1355 1.369 . S
C1354 C1358 1.531 . S
C1355 C1354 1.369 . S
C1355 C1356 1.410 . S
C1355 C1363 1.503 . S
C1356 C1355 1.410 . S
C1356 C1357 1.392 . S
C1356 C1359 1.511 . S
C1357 C1353 1.376 . S
C1357 C1356 1.392 . S
C1357 H1369 0.929 . S
C1358 C1354 1.531 . S
C1358 H1370 0.960 . S
C1358 H1371 0.962 . S
C1358 H1372 0.960 . S
C1359 C1356 1.511 . S
C1359 H1373 0.961 . S
C1359 H1374 0.961 . S
C1359 H1375 0.961 . S
C1360 C1361 1.370 . S
C1360 C1362 1.363 . S
C1360 H1376 0.931 . S
C1361 C1360 1.370 . S
C1361 C1365 1.408 . S
C1362 C1360 1.363 . S
C1362 C1363 1.370 . S
C1362 C1366 1.524 . S
C1363 C1355 1.503 . S
C1363 C1362 1.370 . S
C1363 C1364 1.403 . S
C1364 C1363 1.403 . S
C1364 C1365 1.404 . S
C1364 C1367 1.539 . S
C1365 C1361 1.408 . S
C1365 C1364 1.404 . S
C1365 H1377 0.930 . S
C1366 C1362 1.524 . S
C1366 H1378 0.956 . S
C1366 H1379 0.961 . S
C1366 H1380 0.961 . S
C1367 C1364 1.539 . S
C1367 H1381 0.958 . S
C1367 H1382 0.961 . S
C1367 H1383 0.960 . S
H1368 C1352 0.931 . S
H1369 C1357 0.929 . S
H1370 C1358 0.960 . S
H1371 C1358 0.962 . S
H1372 C1358 0.960 . S
H1373 C1359 0.961 . S
H1374 C1359 0.961 . S
H1375 C1359 0.961 . S
H1376 C1360 0.931 . S
H1377 C1365 0.930 . S
H1378 C1366 0.956 . S
H1379 C1366 0.961 . S
H1380 C1366 0.961 . S
H1381 C1367 0.958 . S
H1382 C1367 0.961 . S
H1383 C1367 0.960 . S
C1384 C1385 1.391 . S
C1384 C1386 1.394 . S
C1384 H1400 0.931 . S
C1385 C1384 1.391 . S
C1385 C1389 1.376 . S
C1386 C1384 1.394 . S
C1386 C1387 1.369 . S
C1386 C1390 1.531 . S
C1387 C1386 1.369 . S
C1387 C1388 1.410 . S
C1387 C1395 1.503 . S
C1388 C1387 1.410 . S
C1388 C1389 1.392 . S
C1388 C1391 1.511 . S
C1389 C1385 1.376 . S
C1389 C1388 1.392 . S
C1389 H1401 0.929 . S
C1390 C1386 1.531 . S
C1390 H1402 0.960 . S
C1390 H1403 0.962 . S
C1390 H1404 0.960 . S
C1391 C1388 1.511 . S
C1391 H1405 0.961 . S
C1391 H1406 0.961 . S
C1391 H1407 0.961 . S
C1392 C1393 1.370 . S
C1392 C1394 1.363 . S
C1392 H1408 0.931 . S
C1393 C1392 1.370 . S
C1393 C1397 1.408 . S
C1394 C1392 1.363 . S
C1394 C1395 1.370 . S
C1394 C1398 1.524 . S
C1395 C1387 1.503 . S
C1395 C1394 1.370 . S
C1395 C1396 1.403 . S
C1396 C1395 1.403 . S
C1396 C1397 1.404 . S
C1396 C1399 1.539 . S
C1397 C1393 1.408 . S
C1397 C1396 1.404 . S
C1397 H1409 0.930 . S
C1398 C1394 1.524 . S
C1398 H1410 0.956 . S
C1398 H1411 0.961 . S
C1398 H1412 0.961 . S
C1399 C1396 1.539 . S
C1399 H1413 0.958 . S
C1399 H1414 0.961 . S
C1399 H1415 0.960 . S
H1400 C1384 0.931 . S
H1401 C1389 0.929 . S
H1402 C1390 0.960 . S
H1403 C1390 0.962 . S
H1404 C1390 0.960 . S
H1405 C1391 0.961 . S
H1406 C1391 0.961 . S
H1407 C1391 0.961 . S
H1408 C1392 0.931 . S
H1409 C1397 0.930 . S
H1410 C1398 0.956 . S
H1411 C1398 0.961 . S
H1412 C1398 0.961 . S
H1413 C1399 0.958 . S
H1414 C1399 0.961 . S
H1415 C1399 0.960 . S
C649 C255 2.237 . S
C657 C387 2.349 . S
C689 C471 2.364 . S
C681 C294 2.296 . S
C721 C547 2.257 . S
C713 C177 2.399 . S
C753 C631 2.263 . S
C745 C216 2.363 . S
C785 C378 2.336 1_565 S
C777 C99 2.295 . S
C809 C138 2.288 . S
C817 C462 2.369 . S
C841 C21 2.390 . S
C849 C536 2.272 . S
C873 C60 2.358 . S
C881 C620 2.274 . S
C913 C375 0.644 1_455 S
C905 C196 0.648 . S
C945 C459 0.566 1_545 S
C937 C235 0.530 . S
C977 C552 0.585 . S
C969 C289 0.613 . S
C1001 C157 0.594 . S
C1009 C636 0.589 . S
C1033 C40 0.650 1_556 S
C1041 C384 0.632 . S
C1073 C468 0.604 . S
C1065 C79 0.696 1_556 S
C1105 C543 0.534 . S
C1097 C133 0.524 1_556 S
C1129 C1 0.554 1_556 S
C1137 C627 0.611 . S
C1161 C211 2.725 . S
C1169 C368 2.909 . S
C1193 C250 2.685 . S
C1201 C452 2.866 . S
C1233 C546 2.943 . S
C1225 C274 2.631 . S
C1265 C630 2.969 . S
C1257 C172 2.610 . S
C1289 C55 2.770 . S
C1297 C379 2.898 . S
C1329 C463 2.877 . S
C1321 C94 2.685 . S
C1361 C555 2.947 . S
C1353 C118 2.575 . S
C1385 C16 2.657 . S
C1393 C639 2.973 . S
