# Generated by pormake.
# Topology nom, (4,4)-cn, num edge types: 1
# Building blocks:
#     Node 0, Type 0, BuildingBlock: GIZVER_clean_linker_0, # of connection points: 4
#     Node 1, Type 0, BuildingBlock: GIZVER_clean_linker_0, # of connection points: 4
#     Node 2, Type 0, BuildingBlock: GIZVER_clean_linker_0, # of connection points: 4
#     Node 3, Type 0, BuildingBlock: GIZVER_clean_linker_0, # of connection points: 4
#     Node 4, Type 0, BuildingBlock: GIZVER_clean_linker_0, # of connection points: 4
#     Node 5, Type 0, BuildingBlock: GIZVER_clean_linker_0, # of connection points: 4
#     Node 6, Type 1, BuildingBlock: GALJAG_clean_sbu_0, # of connection points: 4
#     Node 7, Type 1, BuildingBlock: GALJAG_clean_sbu_0, # of connection points: 4
#     Node 8, Type 1, BuildingBlock: GALJAG_clean_sbu_0, # of connection points: 4
#     Node 9, Type 1, BuildingBlock: GALJAG_clean_sbu_0, # of connection points: 4
#     Node 10, Type 1, BuildingBlock: GALJAG_clean_sbu_0, # of connection points: 4
#     Node 11, Type 1, BuildingBlock: GALJAG_clean_sbu_0, # of connection points: 4
#     Edge 12, Type (0, 1), BuildingBlock: MIFKUJ_clean_linker_0, # of connection points: 2
#     Edge 13, Type (0, 1), BuildingBlock: MIFKUJ_clean_linker_0, # of connection points: 2
#     Edge 14, Type (0, 1), BuildingBlock: MIFKUJ_clean_linker_0, # of connection points: 2
#     Edge 15, Type (0, 1), BuildingBlock: MIFKUJ_clean_linker_0, # of connection points: 2
#     Edge 16, Type (0, 1), BuildingBlock: MIFKUJ_clean_linker_0, # of connection points: 2
#     Edge 17, Type (0, 1), BuildingBlock: MIFKUJ_clean_linker_0, # of connection points: 2
#     Edge 18, Type (0, 1), BuildingBlock: MIFKUJ_clean_linker_0, # of connection points: 2
#     Edge 19, Type (0, 1), BuildingBlock: MIFKUJ_clean_linker_0, # of connection points: 2
#     Edge 20, Type (0, 1), BuildingBlock: MIFKUJ_clean_linker_0, # of connection points: 2
#     Edge 21, Type (0, 1), BuildingBlock: MIFKUJ_clean_linker_0, # of connection points: 2
#     Edge 22, Type (0, 1), BuildingBlock: MIFKUJ_clean_linker_0, # of connection points: 2
#     Edge 23, Type (0, 1), BuildingBlock: MIFKUJ_clean_linker_0, # of connection points: 2
#     Edge 24, Type (0, 1), BuildingBlock: MIFKUJ_clean_linker_0, # of connection points: 2
#     Edge 25, Type (0, 1), BuildingBlock: MIFKUJ_clean_linker_0, # of connection points: 2
#     Edge 26, Type (0, 1), BuildingBlock: MIFKUJ_clean_linker_0, # of connection points: 2
#     Edge 27, Type (0, 1), BuildingBlock: MIFKUJ_clean_linker_0, # of connection points: 2
#     Edge 28, Type (0, 1), BuildingBlock: MIFKUJ_clean_linker_0, # of connection points: 2
#     Edge 29, Type (0, 1), BuildingBlock: MIFKUJ_clean_linker_0, # of connection points: 2
#     Edge 30, Type (0, 1), BuildingBlock: MIFKUJ_clean_linker_0, # of connection points: 2
#     Edge 31, Type (0, 1), BuildingBlock: MIFKUJ_clean_linker_0, # of connection points: 2
#     Edge 32, Type (0, 1), BuildingBlock: MIFKUJ_clean_linker_0, # of connection points: 2
#     Edge 33, Type (0, 1), BuildingBlock: MIFKUJ_clean_linker_0, # of connection points: 2
#     Edge 34, Type (0, 1), BuildingBlock: MIFKUJ_clean_linker_0, # of connection points: 2
#     Edge 35, Type (0, 1), BuildingBlock: MIFKUJ_clean_linker_0, # of connection points: 2
# Relax obj value: 0.013
# Max RMSD: 0.088
# Mean RMSD: 0.072
data_MOF--net-nom--node1-GALJAG_clean_sbu_0--node2-GIZVER_clean_linker_0--edge1-MIFKUJ_clean_linker_0
_symmetry_space_group_name_H-M    P1
_symmetry_Int_Tables_number       1
_symmetry_cell_setting            triclinic
loop_
_symmetry_equiv_pos_as_xyz
'x, y, z'
_cell_length_a     59.707155
_cell_length_b     59.722402
_cell_length_c     61.230763
_cell_angle_alpha  89.968956
_cell_angle_beta   90.067023
_cell_angle_gamma 120.0881
loop_
_atom_site_label
_atom_site_type_symbol
_atom_site_fract_x
_atom_site_fract_y
_atom_site_fract_z
_atom_type_partial_charge
H0 H 0.9763 0.56561 0.35287 0.0
H1 H 0.00814 0.55967 0.29141 0.0
H2 H 0.92925 0.50493 0.30786 0.0
H3 H 0.01697 0.60045 0.34141 0.0
H4 H 0.02384 0.60256 0.31296 0.0
H5 H 0.0294 0.57072 0.3646 0.0
H6 H 0.10728 0.58999 0.34987 0.0
H7 H 0.06411 0.60726 0.30333 0.0
C8 C 0.97451 0.55518 0.33789 0.0
C9 C 0.9504 0.53389 0.33219 0.0
C10 C 0.99565 0.56443 0.32334 0.0
C11 C 0.99244 0.55185 0.30314 0.0
C12 C 0.96857 0.53011 0.2976 0.0
C13 C 0.94799 0.52104 0.31244 0.0
C14 C 0.01992 0.5901 0.32761 0.0
C15 C 0.04332 0.58747 0.33266 0.0
C16 C 0.04528 0.57769 0.35307 0.0
C17 C 0.06827 0.57835 0.3591 0.0
C18 C 0.08931 0.58879 0.34475 0.0
C19 C 0.08825 0.59973 0.32478 0.0
C20 C 0.06491 0.59832 0.3185 0.0
H21 H 0.42557 0.97542 0.51716 0.0
H22 H 0.4544 1.00073 0.45186 0.0
H23 H 0.42572 0.92167 0.47078 0.0
H24 H 0.43052 0.01538 0.50383 0.0
H25 H 0.43414 0.02145 0.47525 0.0
H26 H 0.47154 0.02746 0.52651 0.0
H27 H 0.53386 0.10223 0.50774 0.0
H28 H 0.473 0.05724 0.46211 0.0
C29 C 0.43095 0.97165 0.50126 0.0
C30 C 0.42499 0.94638 0.49592 0.0
C31 C 0.44175 0.99152 0.48542 0.0
C32 C 0.44724 0.98592 0.4644 0.0
C33 C 0.44125 0.96065 0.45902 0.0
C34 C 0.43068 0.94128 0.47498 0.0
C35 C 0.44276 0.01699 0.48955 0.0
C36 C 0.46985 0.03926 0.49352 0.0
C37 C 0.48141 0.0422 0.51416 0.0
C38 C 0.50474 0.06479 0.51931 0.0
C39 C 0.51674 0.08414 0.50338 0.0
C40 C 0.50558 0.08171 0.48271 0.0
C41 C 0.48217 0.05904 0.47781 0.0
H42 H 0.4358 0.47309 0.62714 0.0
H43 H 0.46135 0.47961 0.69387 0.0
H44 H 0.4466 0.53726 0.66634 0.0
H45 H 0.43326 0.43595 0.64553 0.0
H46 H 0.43908 0.43723 0.67423 0.0
H47 H 0.47732 0.46679 0.62212 0.0
H48 H 0.53225 0.4427 0.6373 0.0
H49 H 0.47157 0.4274 0.68277 0.0
C50 C 0.4421 0.48389 0.6423 0.0
C51 C 0.4416 0.50705 0.64442 0.0
C52 C 0.44972 0.47411 0.66001 0.0
C53 C 0.45645 0.4876 0.67999 0.0
C54 C 0.4555 0.51054 0.68242 0.0
C55 C 0.44862 0.52031 0.66438 0.0
C56 C 0.44722 0.44765 0.65858 0.0
C57 C 0.47269 0.44888 0.65381 0.0
C58 C 0.48518 0.45876 0.63366 0.0
C59 C 0.50702 0.45702 0.62791 0.0
C60 C 0.51612 0.4451 0.64222 0.0
C61 C 0.50325 0.43398 0.66181 0.0
C62 C 0.48195 0.43653 0.66788 0.0
H63 H 0.97747 0.43041 0.7958 0.0
H64 H 1.00107 0.44502 0.86338 0.0
H65 H 0.92588 0.43085 0.8445 0.0
H66 H 0.01345 0.42569 0.80872 0.0
H67 H 0.02093 0.42807 0.83707 0.0
H68 H 0.03227 0.46487 0.78528 0.0
H69 H 0.10472 0.5275 0.80756 0.0
H70 H 0.05452 0.46842 0.85282 0.0
C71 C 0.97375 0.43351 0.81252 0.0
C72 C 0.94971 0.431 0.81801 0.0
C73 C 0.99261 0.43899 0.82879 0.0
C74 C 0.98718 0.44195 0.85064 0.0
C75 C 0.96302 0.43881 0.85626 0.0
C76 C 0.94476 0.4339 0.83989 0.0
C77 C 0.01672 0.43782 0.82349 0.0
C78 C 0.04007 0.46429 0.81975 0.0
C79 C 0.04543 0.47506 0.79863 0.0
C80 C 0.06865 0.49801 0.79443 0.0
C81 C 0.08624 0.51053 0.81138 0.0
C82 C 0.08151 0.50012 0.83253 0.0
C83 C 0.05815 0.47703 0.83669 0.0
H84 H 0.61381 0.06043 0.01469 0.0
H85 H 0.5761 0.02681 0.95353 0.0
H86 H 0.59663 0.10481 0.96951 0.0
H87 H 0.6089 0.01998 0.00392 0.0
H88 H 0.60448 0.01268 0.97553 0.0
H89 H 0.5696 1.00283 0.02865 0.0
H90 H 0.50753 0.9282 0.00952 0.0
H91 H 0.56529 0.97612 0.96254 0.0
C92 C 0.60473 0.06159 -0.00028 0.0
C93 C 0.60635 0.08515 0.99389 0.0
C94 C 0.59338 0.04021 0.98537 0.0
C95 C 0.5835 0.04262 0.96515 0.0
C96 C 0.58441 0.06586 0.95946 0.0
C97 C 0.59518 0.08661 0.97418 0.0
C98 C 0.59558 0.01648 0.98997 0.0
C99 C 0.56971 0.99272 0.99477 0.0
C100 C 0.55942 0.98853 0.01603 0.0
C101 C 0.53675 0.96538 0.02127 0.0
C102 C 0.52421 0.9466 0.00506 0.0
C103 C 0.53435 0.95007 0.98387 0.0
C104 C 0.55703 0.97338 0.97874 0.0
H105 H 0.60074 0.55929 0.12669 0.0
H106 H 0.58473 0.56102 0.19506 0.0
H107 H 0.58897 0.49666 0.16855 0.0
H108 H 0.61007 0.59956 0.14435 0.0
H109 H 0.60528 0.60063 0.17289 0.0
H110 H 0.57026 0.58032 0.11883 0.0
H111 H 0.51793 0.60651 0.13753 0.0
H112 H 0.56972 0.60465 0.18518 0.0
C113 C 0.59555 0.54987 0.1425 0.0
C114 C 0.59482 0.52616 0.14542 0.0
C115 C 0.59104 0.56217 0.16024 0.0
C116 C 0.58637 0.55074 0.18114 0.0
C117 C 0.58622 0.52734 0.18435 0.0
C118 C 0.58913 0.51473 0.16617 0.0
C119 C 0.59596 0.58948 0.15776 0.0
C120 C 0.57172 0.59071 0.15293 0.0
C121 C 0.56177 0.58644 0.13145 0.0
C122 C 0.54249 0.59236 0.12588 0.0
C123 C 0.53254 0.60157 0.14196 0.0
C124 C 0.54227 0.6062 0.16327 0.0
C125 C 0.56148 0.6002 0.1689 0.0
In126 In 0.63778 0.39577 0.4095 0.0
O127 O 0.67924 0.41322 0.42282 0.0
O128 O 0.67429 0.41388 0.38855 0.0
C129 C 0.62008 0.40846 0.44536 0.0
C130 C 0.62149 0.41419 0.37634 0.0
C131 C 0.61884 0.3438 0.41195 0.0
O132 O 0.64269 0.42266 0.43808 0.0
O133 O 0.60678 0.3877 0.43492 0.0
O134 O 0.60668 0.3535 0.40292 0.0
O135 O 0.64067 0.36024 0.41942 0.0
C136 C 0.68988 0.41965 0.40429 0.0
O137 O 0.62691 0.39647 0.37365 0.0
O138 O 0.62426 0.42251 0.39563 0.0
In139 In 0.25991 0.63591 0.57515 0.0
O140 O 0.26821 0.6026 0.57065 0.0
O141 O 0.30017 0.63985 0.57685 0.0
C142 C 0.22482 0.61469 0.54241 0.0
C143 C 0.23334 0.62309 0.6133 0.0
C144 C 0.28585 0.68829 0.57109 0.0
O145 O 0.24883 0.62839 0.5389 0.0
O146 O 0.21865 0.61136 0.56232 0.0
O147 O 0.28746 0.67705 0.58798 0.0
O148 O 0.27126 0.6732 0.55644 0.0
C149 C 0.29228 0.61619 0.57366 0.0
O150 O 0.24863 0.6152 0.60809 0.0
O151 O 0.23202 0.63815 0.59958 0.0
In152 In 0.63809 0.25549 0.7395 0.0
O153 O 0.68045 0.26921 0.73082 0.0
O154 O 0.67326 0.29155 0.75359 0.0
C155 C 0.61598 0.22092 0.70671 0.0
C156 C 0.62635 0.22262 0.77373 0.0
C157 C 0.61754 0.28641 0.73286 0.0
O158 O 0.6394 0.23875 0.70623 0.0
O159 O 0.60374 0.22084 0.72352 0.0
O160 O 0.61962 0.27886 0.75163 0.0
O161 O 0.62616 0.27871 0.71756 0.0
C162 C 0.68988 0.28863 0.74328 0.0
O163 O 0.61558 0.23595 0.77085 0.0
O164 O 0.6433 0.22634 0.75972 0.0
In165 In 0.39398 0.63634 0.90841 0.0
O166 O 0.35193 0.60875 0.91905 0.0
O167 O 0.35829 0.63387 0.89232 0.0
C168 C 0.41241 0.62217 0.94332 0.0
C169 C 0.40596 0.61942 0.87166 0.0
C170 C 0.41704 0.68848 0.912 0.0
O171 O 0.40533 0.63874 0.94471 0.0
O172 O 0.40974 0.61247 0.92463 0.0
O173 O 0.42877 0.67744 0.90454 0.0
O174 O 0.39384 0.67327 0.91742 0.0
C175 C 0.34206 0.61623 0.90457 0.0
O176 O 0.41659 0.64319 0.87631 0.0
O177 O 0.38918 0.60461 0.8852 0.0
In178 In 0.77751 0.39662 0.07734 0.0
O179 O 0.79522 0.39322 0.10961 0.0
O180 O 0.80566 0.43079 0.09827 0.0
C181 C 0.74881 0.34479 0.07083 0.0
C182 C 0.74416 0.41514 0.07932 0.0
C183 C 0.81302 0.40968 0.04528 0.0
O184 O 0.75524 0.35459 0.08967 0.0
O185 O 0.75652 0.36108 0.05549 0.0
O186 O 0.79222 0.41002 0.04255 0.0
O187 O 0.81574 0.40262 0.06403 0.0
C188 C 0.8086 0.41735 0.11263 0.0
O189 O 0.76531 0.42653 0.06912 0.0
O190 O 0.73969 0.39435 0.08839 0.0
In191 In 0.40011 0.77381 0.24171 0.0
O192 O 0.42578 0.75791 0.2539 0.0
O193 O 0.40169 0.73958 0.22655 0.0
C194 C 0.41528 0.81103 0.27259 0.0
C195 C 0.42187 0.8049 0.20669 0.0
C196 C 0.34817 0.7443 0.24812 0.0
O197 O 0.41555 0.79026 0.27578 0.0
O198 O 0.40719 0.81284 0.25402 0.0
O199 O 0.35804 0.75037 0.22932 0.0
O200 O 0.3644 0.75282 0.26348 0.0
C201 C 0.41851 0.74048 0.23956 0.0
O202 O 0.39797 0.79433 0.21083 0.0
O203 O 0.43456 0.79935 0.21993 0.0
H204 H 0.09706 0.59948 0.28052 0.0
H205 H 0.1386 0.62481 0.26124 0.0
H206 H 0.17563 0.66073 0.32212 0.0
H207 H 0.13457 0.6362 0.3411 0.0
H208 H 0.1916 0.69576 0.29049 0.0
H209 H 0.17947 0.60957 0.30009 0.0
H210 H 0.15649 0.56222 0.29508 0.0
H211 H 0.16262 0.57217 0.22546 0.0
H212 H 0.18538 0.61962 0.23008 0.0
H213 H 0.32328 0.73524 0.28711 0.0
H214 H 0.27672 0.71143 0.29391 0.0
H215 H 0.26229 0.69501 0.22512 0.0
H216 H 0.30916 0.71912 0.21812 0.0
H217 H 0.23209 0.65145 0.25275 0.0
H218 H 0.25109 0.73861 0.24434 0.0
H219 H 0.27523 0.78576 0.25046 0.0
H220 H 0.25675 0.77394 0.31876 0.0
H221 H 0.23281 0.72668 0.31312 0.0
C222 C 0.11408 0.61296 0.28965 0.0
C223 C 0.11265 0.61553 0.31236 0.0
C224 C 0.1378 0.6273 0.27869 0.0
C225 C 0.16034 0.64451 0.29028 0.0
C226 C 0.1586 0.64759 0.3128 0.0
C227 C 0.13511 0.63334 0.32368 0.0
C228 C 0.18609 0.65908 0.27952 0.0
C229 C 0.20042 0.68605 0.28224 0.0
C230 C 0.19743 0.64656 0.26818 0.0
C231 C 0.1838 0.61809 0.26541 0.0
C232 C 0.17572 0.60164 0.28371 0.0
C233 C 0.16277 0.5748 0.28094 0.0
C234 C 0.15801 0.56419 0.25996 0.0
C235 C 0.16626 0.58041 0.2417 0.0
C236 C 0.17919 0.60728 0.24438 0.0
C237 C 0.31025 0.72654 0.2734 0.0
C238 C 0.31989 0.72913 0.25206 0.0
C239 C 0.28363 0.713 0.27731 0.0
C240 C 0.26603 0.70166 0.26 0.0
C241 C 0.27555 0.70368 0.23869 0.0
C242 C 0.30229 0.7175 0.23473 0.0
C243 C 0.23777 0.68793 0.26448 0.0
C244 C 0.22303 0.66121 0.26056 0.0
C245 C 0.22605 0.70063 0.27484 0.0
C246 C 0.24027 0.72907 0.27831 0.0
C247 C 0.25232 0.74605 0.26069 0.0
C248 C 0.26595 0.7728 0.26407 0.0
C249 C 0.26756 0.78284 0.28499 0.0
C250 C 0.25549 0.76614 0.30257 0.0
C251 C 0.24185 0.73936 0.29928 0.0
H252 H 0.27812 0.80356 0.28757 0.0
H253 H 0.148 0.5434 0.25785 0.0
H254 H 0.48059 0.10247 0.46011 0.0
H255 H 0.50036 0.14504 0.44257 0.0
H256 H 0.57624 0.15595 0.45532 0.0
H257 H 0.55663 0.11331 0.47254 0.0
H258 H 0.56991 0.19496 0.47204 0.0
H259 H 0.55479 0.14987 0.40378 0.0
H260 H 0.52851 0.11731 0.37598 0.0
H261 H 0.48001 0.15102 0.3695 0.0
H262 H 0.50579 0.18358 0.39751 0.0
H263 H 0.64373 0.31847 0.42565 0.0
H264 H 0.62494 0.27217 0.43263 0.0
H265 H 0.55006 0.25904 0.41234 0.0
H266 H 0.56902 0.30529 0.40458 0.0
H267 H 0.55569 0.22057 0.39853 0.0
H268 H 0.56737 0.26325 0.4672 0.0
H269 H 0.59114 0.29528 0.4961 0.0
H270 H 0.64281 0.26534 0.50338 0.0
H271 H 0.61954 0.23334 0.47429 0.0
C272 C 0.50145 0.11353 0.4585 0.0
C273 C 0.51704 0.10456 0.46787 0.0
C274 C 0.51274 0.13794 0.44856 0.0
C275 C 0.5398 0.15377 0.44776 0.0
C276 C 0.55533 0.14416 0.45588 0.0
C277 C 0.54409 0.11978 0.4657 0.0
C278 C 0.55195 0.18123 0.44064 0.0
C279 C 0.56718 0.20055 0.45582 0.0
C280 C 0.54756 0.18853 0.41979 0.0
C281 C 0.53208 0.16902 0.4029 0.0
C282 C 0.53839 0.15021 0.39657 0.0
C283 C 0.52361 0.13178 0.38075 0.0
C284 C 0.50256 0.13205 0.37102 0.0
C285 C 0.4963 0.15081 0.37707 0.0
C286 C 0.51101 0.16928 0.3929 0.0
C287 C 0.62331 0.30568 0.4225 0.0
C288 C 0.60782 0.31555 0.41473 0.0
C289 C 0.61254 0.27921 0.42659 0.0
C290 C 0.58592 0.26209 0.42346 0.0
C291 C 0.5706 0.2718 0.41496 0.0
C292 C 0.58145 0.29827 0.41059 0.0
C293 C 0.57394 0.23433 0.42988 0.0
C294 C 0.5586 0.21498 0.41468 0.0
C295 C 0.57786 0.2269 0.45088 0.0
C296 C 0.59188 0.24609 0.46841 0.0
C297 C 0.58392 0.26363 0.47485 0.0
C298 C 0.59728 0.28175 0.49128 0.0
C299 C 0.61852 0.28239 0.50153 0.0
C300 C 0.62639 0.26485 0.4954 0.0
C301 C 0.61311 0.24671 0.47895 0.0
H302 H 0.62884 0.29643 0.51425 0.0
H303 H 0.49115 0.11777 0.35877 0.0
H304 H 0.46336 0.55482 0.62581 0.0
H305 H 0.44051 0.5731 0.60614 0.0
H306 H 0.37083 0.49839 0.60646 0.0
H307 H 0.39387 0.47993 0.6257 0.0
H308 H 0.374 0.52689 0.5696 0.0
H309 H 0.38383 0.53903 0.64756 0.0
H310 H 0.40979 0.5531 0.68133 0.0
H311 H 0.44934 0.63158 0.65844 0.0
H312 H 0.42438 0.61786 0.62408 0.0
H313 H 0.27847 0.56512 0.57259 0.0
H314 H 0.30631 0.54651 0.5784 0.0
H315 H 0.3728 0.62325 0.58359 0.0
H316 H 0.34489 0.64194 0.57835 0.0
H317 H 0.37288 0.59459 0.61579 0.0
H318 H 0.36202 0.58298 0.53831 0.0
H319 H 0.3377 0.56868 0.50369 0.0
H320 H 0.29992 0.48979 0.52563 0.0
H321 H 0.32376 0.50365 0.56051 0.0
C322 C 0.44344 0.54214 0.62093 0.0
C323 C 0.43031 0.51603 0.62734 0.0
C324 C 0.43036 0.55259 0.6098 0.0
C325 C 0.40379 0.53724 0.60532 0.0
C326 C 0.39129 0.51061 0.60983 0.0
C327 C 0.40448 0.50005 0.62077 0.0
C328 C 0.38841 0.54954 0.59893 0.0
C329 C 0.37359 0.54158 0.57972 0.0
C330 C 0.38814 0.56894 0.61206 0.0
C331 C 0.4024 0.57736 0.63312 0.0
C332 C 0.39816 0.55927 0.64965 0.0
C333 C 0.4127 0.56717 0.66891 0.0
C334 C 0.43113 0.59321 0.67207 0.0
C335 C 0.43507 0.61141 0.65597 0.0
C336 C 0.42079 0.60357 0.63656 0.0
C337 C 0.29907 0.57804 0.5747 0.0
C338 C 0.30948 0.60501 0.57502 0.0
C339 C 0.31501 0.56737 0.57792 0.0
C340 C 0.34176 0.58344 0.58124 0.0
C341 C 0.35225 0.61042 0.58107 0.0
C342 C 0.33629 0.62109 0.578 0.0
C343 C 0.35852 0.57218 0.58625 0.0
C344 C 0.37345 0.58015 0.60543 0.0
C345 C 0.35882 0.55279 0.5731 0.0
C346 C 0.34452 0.54439 0.5521 0.0
C347 C 0.34838 0.5626 0.53582 0.0
C348 C 0.33471 0.55457 0.51614 0.0
C349 C 0.31723 0.52835 0.51249 0.0
C350 C 0.31345 0.5101 0.52849 0.0
C351 C 0.32706 0.51802 0.54821 0.0
H352 H 0.30666 0.52218 0.49724 0.0
H353 H 0.44236 0.59926 0.687 0.0
H354 H 0.93215 0.39066 0.78904 0.0
H355 H 0.89013 0.36962 0.77032 0.0
H356 H 0.87569 0.42943 0.7934 0.0
H357 H 0.91771 0.45068 0.81178 0.0
H358 H 0.83851 0.37974 0.80636 0.0
H359 H 0.88233 0.42409 0.74046 0.0
H360 H 0.91497 0.43707 0.7113 0.0
H361 H 0.88413 0.35746 0.69331 0.0
H362 H 0.85151 0.34396 0.72257 0.0
H363 H 0.71446 0.33544 0.76383 0.0
H364 H 0.76074 0.36252 0.77118 0.0
H365 H 0.77529 0.30736 0.73797 0.0
H366 H 0.72901 0.28066 0.72986 0.0
H367 H 0.81311 0.3543 0.72921 0.0
H368 H 0.77171 0.30874 0.7945 0.0
H369 H 0.73974 0.29314 0.82438 0.0
H370 H 0.767 0.37144 0.84472 0.0
H371 H 0.79892 0.38753 0.81477 0.0
C372 C 0.92046 0.39985 0.78939 0.0
C373 C 0.92812 0.4222 0.80204 0.0
C374 C 0.89638 0.38773 0.77879 0.0
C375 C 0.87967 0.39783 0.78066 0.0
C376 C 0.88819 0.42121 0.79187 0.0
C377 C 0.91222 0.43335 0.80233 0.0
C378 C 0.85227 0.3826 0.77342 0.0
C379 C 0.83294 0.37455 0.78942 0.0
C380 C 0.84507 0.3749 0.75149 0.0
C381 C 0.86464 0.383 0.73386 0.0
C382 C 0.88265 0.40933 0.73042 0.0
C383 C 0.90112 0.41679 0.71384 0.0
C384 C 0.90167 0.3981 0.7005 0.0
C385 C 0.8837 0.37191 0.70367 0.0
C386 C 0.8652 0.36435 0.72024 0.0
C387 C 0.72754 0.32919 0.75793 0.0
C388 C 0.71808 0.30582 0.74643 0.0
C389 C 0.75401 0.34464 0.76222 0.0
C390 C 0.77153 0.33675 0.75555 0.0
C391 C 0.76221 0.31385 0.74336 0.0
C392 C 0.73574 0.29856 0.73879 0.0
C393 C 0.79929 0.35183 0.76214 0.0
C394 C 0.81866 0.35963 0.74612 0.0
C395 C 0.80666 0.35894 0.78418 0.0
C396 C 0.78753 0.34934 0.80225 0.0
C397 C 0.77076 0.32264 0.80525 0.0
C398 C 0.75267 0.3137 0.82221 0.0
C399 C 0.75129 0.33129 0.8364 0.0
C400 C 0.76806 0.35784 0.83369 0.0
C401 C 0.78617 0.36688 0.81674 0.0
H402 H 0.73728 0.32434 0.84953 0.0
H403 H 0.91598 0.40391 0.68767 0.0
H404 H 0.55926 0.93111 0.95895 0.0
H405 H 0.53967 0.88872 0.94107 0.0
H406 H 0.46368 0.87529 0.95742 0.0
H407 H 0.48308 0.91771 0.97498 0.0
H408 H 0.47282 0.83757 0.97317 0.0
H409 H 0.48193 0.88156 0.90521 0.0
H410 H 0.50544 0.914 0.87656 0.0
H411 H 0.55512 0.88225 0.86629 0.0
H412 H 0.53214 0.84983 0.89513 0.0
H413 H 0.39453 0.71582 0.92606 0.0
H414 H 0.41531 0.76217 0.93335 0.0
H415 H 0.48867 0.77189 0.91255 0.0
H416 H 0.46779 0.72535 0.90484 0.0
H417 H 0.48255 0.81186 0.89832 0.0
H418 H 0.47536 0.76914 0.96603 0.0
H419 H 0.45354 0.73702 0.99527 0.0
H420 H 0.40269 0.76711 0.00699 0.0
H421 H 0.42397 0.79919 0.97758 0.0
C422 C 0.53836 0.91954 0.95803 0.0
C423 C 0.52272 0.92768 0.96855 0.0
C424 C 0.52718 0.89523 0.9479 0.0
C425 C 0.5002 0.87873 0.94808 0.0
C426 C 0.48454 0.88761 0.95723 0.0
C427 C 0.49566 0.91187 0.96724 0.0
C428 C 0.48841 0.85127 0.94107 0.0
C429 C 0.4746 0.83197 0.95669 0.0
C430 C 0.49162 0.84396 0.91983 0.0
C431 C 0.50548 0.86344 0.9025 0.0
C432 C 0.49803 0.88165 0.897 0.0
C433 C 0.51122 0.9 0.88069 0.0
C434 C 0.53181 0.90023 0.86965 0.0
C435 C 0.5392 0.88207 0.87487 0.0
C436 C 0.52607 0.86369 0.89119 0.0
C437 C 0.41505 0.72781 0.92288 0.0
C438 C 0.42956 0.71687 0.91505 0.0
C439 C 0.42693 0.75433 0.9271 0.0
C440 C 0.45365 0.77049 0.92382 0.0
C441 C 0.46805 0.7598 0.91525 0.0
C442 C 0.45612 0.7332 0.91093 0.0
C443 C 0.46654 0.79823 0.93033 0.0
C444 C 0.48071 0.81751 0.91475 0.0
C445 C 0.46394 0.80565 0.95172 0.0
C446 C 0.4511 0.7864 0.96945 0.0
C447 C 0.45939 0.76877 0.97472 0.0
C448 C 0.44714 0.75059 0.99134 0.0
C449 C 0.4267 0.74998 0.00294 0.0
C450 C 0.4185 0.76759 0.99797 0.0
C451 C 0.43066 0.78578 0.98133 0.0
H452 H 0.41724 0.7359 0.01581 0.0
H453 H 0.542 0.91445 0.85702 0.0
H454 H 0.63886 0.55143 0.12084 0.0
H455 H 0.66097 0.53155 0.1024 0.0
H456 H 0.59554 0.45585 0.11487 0.0
H457 H 0.5731 0.47558 0.13283 0.0
H458 H 0.64258 0.46509 0.13393 0.0
H459 H 0.61038 0.47372 0.06429 0.0
H460 H 0.60292 0.49733 0.03477 0.0
H461 H 0.68493 0.54652 0.02668 0.0
H462 H 0.69291 0.52344 0.05638 0.0
H463 H 0.69446 0.39055 0.09437 0.0
H464 H 0.66613 0.40871 0.09939 0.0
H465 H 0.72593 0.48214 0.07441 0.0
H466 H 0.75399 0.46369 0.06857 0.0
H467 H 0.6811 0.47417 0.06045 0.0
H468 H 0.71474 0.47022 0.13015 0.0
H469 H 0.72499 0.45029 0.16099 0.0
H470 H 0.64399 0.39721 0.17091 0.0
H471 H 0.63327 0.41661 0.13992 0.0
C472 C 0.62868 0.53062 0.11875 0.0
C473 C 0.60432 0.51505 0.12849 0.0
C474 C 0.64143 0.51926 0.10834 0.0
C475 C 0.63001 0.49221 0.10751 0.0
C476 C 0.60476 0.47675 0.11546 0.0
C477 C 0.59195 0.48806 0.12566 0.0
C478 C 0.6456 0.48008 0.10142 0.0
C479 C 0.65059 0.46664 0.11773 0.0
C480 C 0.65699 0.48313 0.0806 0.0
C481 C 0.65224 0.497 0.06271 0.0
C482 C 0.62683 0.48973 0.05636 0.0
C483 C 0.62251 0.50298 0.03956 0.0
C484 C 0.64344 0.52345 0.0289 0.0
C485 C 0.66874 0.53067 0.03497 0.0
C486 C 0.67317 0.5175 0.05177 0.0
C487 C 0.7015 0.41051 0.0898 0.0
C488 C 0.72653 0.42576 0.08126 0.0
C489 C 0.68532 0.42093 0.09275 0.0
C490 C 0.69403 0.447 0.08771 0.0
C491 C 0.71874 0.46202 0.07849 0.0
C492 C 0.73481 0.45148 0.07523 0.0
C493 C 0.67778 0.4588 0.09291 0.0
C494 C 0.67288 0.47238 0.07658 0.0
C495 C 0.66687 0.45642 0.11392 0.0
C496 C 0.67322 0.44469 0.13257 0.0
C497 C 0.69912 0.45417 0.1388 0.0
C498 C 0.70502 0.44299 0.15632 0.0
C499 C 0.68516 0.42245 0.16786 0.0
C500 C 0.65936 0.41309 0.16193 0.0
C501 C 0.65336 0.42418 0.1444 0.0
H502 H 0.68976 0.41382 0.18142 0.0
H503 H 0.64005 0.53368 0.01589 0.0
H504 H 0.37784 0.90541 0.4877 0.0
H505 H 0.35466 0.86531 0.50841 0.0
H506 H 0.41438 0.89633 0.55774 0.0
H507 H 0.43794 0.93684 0.53663 0.0
H508 H 0.40342 0.84847 0.54489 0.0
H509 H 0.35398 0.88512 0.56999 0.0
H510 H 0.32923 0.90791 0.56762 0.0
H511 H 0.27258 0.84736 0.52699 0.0
H512 H 0.29717 0.82435 0.52883 0.0
H513 H 0.32389 0.72486 0.59732 0.0
H514 H 0.34806 0.77195 0.59182 0.0
H515 H 0.3039 0.76297 0.53339 0.0
H516 H 0.27989 0.71611 0.53871 0.0
H517 H 0.30904 0.80312 0.55966 0.0
H518 H 0.3634 0.77152 0.52971 0.0
H519 H 0.38853 0.74906 0.53166 0.0
H520 H 0.43612 0.80091 0.58229 0.0
H521 H 0.41101 0.82348 0.58083 0.0
C522 C 0.38577 0.90386 0.50318 0.0
C523 C 0.40961 0.92415 0.51063 0.0
C524 C 0.37246 0.88097 0.51507 0.0
C525 C 0.3826 0.87781 0.53478 0.0
C526 C 0.40612 0.89838 0.54263 0.0
C527 C 0.41947 0.92152 0.5307 0.0
C528 C 0.36935 0.85218 0.54588 0.0
C529 C 0.38293 0.83881 0.54871 0.0
C530 C 0.34252 0.83937 0.55059 0.0
C531 C 0.32752 0.85305 0.54949 0.0
C532 C 0.33634 0.87673 0.56043 0.0
C533 C 0.32231 0.88968 0.55919 0.0
C534 C 0.29936 0.8791 0.54715 0.0
C535 C 0.29035 0.85552 0.53633 0.0
C536 C 0.30431 0.84249 0.5375 0.0
C537 C 0.3193 0.73298 0.58336 0.0
C538 C 0.30005 0.71679 0.5684 0.0
C539 C 0.33314 0.75985 0.58022 0.0
C540 C 0.32784 0.77097 0.56215 0.0
C541 C 0.30827 0.75484 0.54748 0.0
C542 C 0.29464 0.72804 0.55049 0.0
C543 C 0.34296 0.79929 0.55796 0.0
C544 C 0.32967 0.81307 0.5564 0.0
C545 C 0.37005 0.81249 0.55451 0.0
C546 C 0.38512 0.79895 0.55537 0.0
C547 C 0.37907 0.77798 0.5414 0.0
C548 C 0.39333 0.76526 0.54239 0.0
C549 C 0.41384 0.77349 0.55715 0.0
C550 C 0.42018 0.79452 0.5709 0.0
C551 C 0.40595 0.80728 0.57 0.0
H552 H 0.42487 0.76363 0.55788 0.0
H553 H 0.28854 0.88917 0.54621 0.0
H554 H 0.51624 0.43554 0.70525 0.0
H555 H 0.5324 0.40936 0.7231 0.0
H556 H 0.52262 0.3682 0.66267 0.0
H557 H 0.50579 0.39348 0.64532 0.0
H558 H 0.5088 0.33567 0.69495 0.0
H559 H 0.58196 0.42016 0.67929 0.0
H560 H 0.60776 0.46775 0.68165 0.0
H561 H 0.6128 0.46291 0.7513 0.0
H562 H 0.58671 0.41525 0.74936 0.0
H563 H 0.60178 0.29589 0.69392 0.0
H564 H 0.57943 0.32018 0.68741 0.0
H565 H 0.5829 0.33704 0.75619 0.0
H566 H 0.60498 0.3123 0.76292 0.0
H567 H 0.59733 0.381 0.72646 0.0
H568 H 0.5284 0.29431 0.73961 0.0
H569 H 0.50464 0.24696 0.73468 0.0
H570 H 0.49357 0.25644 0.66673 0.0
H571 H 0.51763 0.30389 0.67117 0.0
C572 C 0.5172 0.42058 0.69601 0.0
C573 C 0.51025 0.41678 0.67383 0.0
C574 C 0.52659 0.40579 0.70612 0.0
C575 C 0.52916 0.38706 0.69414 0.0
C576 C 0.52096 0.38252 0.67229 0.0
C577 C 0.51155 0.39713 0.66231 0.0
C578 C 0.54133 0.37274 0.70366 0.0
C579 C 0.52817 0.34564 0.70182 0.0
C580 C 0.56644 0.38559 0.71302 0.0
C581 C 0.58212 0.41419 0.71421 0.0
C582 C 0.5884 0.42926 0.69512 0.0
C583 C 0.6031 0.45624 0.69638 0.0
C584 C 0.61184 0.46835 0.71662 0.0
C585 C 0.60596 0.4535 0.73564 0.0
C586 C 0.59122 0.42651 0.73447 0.0
C587 C 0.5979 0.30484 0.70766 0.0
C588 C 0.60508 0.30214 0.72894 0.0
C589 C 0.58507 0.31865 0.70393 0.0
C590 C 0.57938 0.33026 0.72134 0.0
C591 C 0.58709 0.32819 0.74255 0.0
C592 C 0.59962 0.31401 0.74636 0.0
C593 C 0.565 0.34415 0.71718 0.0
C594 C 0.57776 0.37107 0.72001 0.0
C595 C 0.53968 0.33121 0.70839 0.0
C596 C 0.52499 0.30267 0.7057 0.0
C597 C 0.52108 0.28631 0.72357 0.0
C598 C 0.50752 0.25945 0.72088 0.0
C599 C 0.49765 0.2487 0.70039 0.0
C600 C 0.50125 0.26479 0.68258 0.0
C601 C 0.51481 0.29167 0.68519 0.0
H602 H 0.48716 0.22789 0.69834 0.0
H603 H 0.62323 0.48924 0.71757 0.0
H604 H 0.09944 0.47543 0.85901 0.0
H605 H 0.14144 0.49535 0.87767 0.0
H606 H 0.15499 0.57102 0.86001 0.0
H607 H 0.11286 0.55137 0.84191 0.0
H608 H 0.19154 0.55782 0.84355 0.0
H609 H 0.14973 0.55662 0.91137 0.0
H610 H 0.11791 0.5357 0.94096 0.0
H611 H 0.14955 0.48671 0.95535 0.0
H612 H 0.18133 0.50709 0.92562 0.0
H613 H 0.31702 0.63731 0.88328 0.0
H614 H 0.27066 0.61762 0.87632 0.0
H615 H 0.25697 0.54892 0.91097 0.0
H616 H 0.30337 0.56924 0.91895 0.0
H617 H 0.2194 0.55648 0.91961 0.0
H618 H 0.25966 0.55454 0.85319 0.0
H619 H 0.28978 0.57069 0.82201 0.0
H620 H 0.25941 0.61939 0.80263 0.0
H621 H 0.22946 0.60394 0.83395 0.0
C622 C 0.11086 0.49634 0.85991 0.0
C623 C 0.10294 0.51182 0.84877 0.0
C624 C 0.13494 0.50769 0.87047 0.0
C625 C 0.1514 0.53464 0.87002 0.0
C626 C 0.14262 0.55018 0.86045 0.0
C627 C 0.11855 0.53891 0.85011 0.0
C628 C 0.17895 0.54646 0.87662 0.0
C629 C 0.19772 0.55797 0.86024 0.0
C630 C 0.18679 0.5454 0.8982 0.0
C631 C 0.16774 0.53321 0.91611 0.0
C632 C 0.14975 0.54122 0.9207 0.0
C633 C 0.13175 0.52949 0.93753 0.0
C634 C 0.13166 0.50984 0.94999 0.0
C635 C 0.14962 0.50191 0.94567 0.0
C636 C 0.16764 0.51357 0.92885 0.0
C637 C 0.30409 0.61807 0.88955 0.0
C638 C 0.31381 0.60472 0.90151 0.0
C639 C 0.27757 0.60674 0.88544 0.0
C640 C 0.26024 0.58144 0.8926 0.0
C641 C 0.26987 0.56838 0.90515 0.0
C642 C 0.2964 0.57997 0.90968 0.0
C643 C 0.23227 0.56855 0.88654 0.0
C644 C 0.21337 0.55656 0.90291 0.0
C645 C 0.22416 0.56859 0.86476 0.0
C646 C 0.24253 0.57832 0.84612 0.0
C647 C 0.25961 0.56892 0.84244 0.0
C648 C 0.27663 0.57792 0.82471 0.0
C649 C 0.27658 0.59613 0.81039 0.0
C650 C 0.25949 0.60536 0.81377 0.0
C651 C 0.24251 0.5965 0.83152 0.0
H652 H 0.28973 0.60303 0.79665 0.0
H653 H 0.11772 0.50078 0.96301 0.0
H654 H 0.64213 0.13184 0.97765 0.0
H655 H 0.66686 0.1726 0.99685 0.0
H656 H 0.63337 0.13465 0.05799 0.0
H657 H 0.60747 0.09334 0.03843 0.0
H658 H 0.63356 0.18002 0.0546 0.0
H659 H 0.69672 0.15486 0.04684 0.0
H660 H 0.72197 0.13812 0.0283 0.0
H661 H 0.75246 0.20213 0.98363 0.0
H662 H 0.72711 0.21908 0.00168 0.0
H663 H 0.72527 0.3055 0.1008 0.0
H664 H 0.70179 0.25871 0.09359 0.0
H665 H 0.71614 0.27368 0.02463 0.0
H666 H 0.73934 0.32019 0.03166 0.0
H667 H 0.72739 0.2365 0.04003 0.0
H668 H 0.65814 0.25679 0.04504 0.0
H669 H 0.63263 0.27307 0.06385 0.0
H670 H 0.6144 0.21751 0.11516 0.0
H671 H 0.64011 0.20113 0.09677 0.0
C672 C 0.63983 0.13206 0.99518 0.0
C673 C 0.62253 0.10937 0.00648 0.0
C674 C 0.65428 0.15541 0.00621 0.0
C675 C 0.65229 0.15673 0.02893 0.0
C676 C 0.6353 0.13407 0.04045 0.0
C677 C 0.62065 0.11049 0.02931 0.0
C678 C 0.66746 0.1822 0.04008 0.0
C679 C 0.65421 0.19213 0.0519 0.0
C680 C 0.6944 0.19817 0.03645 0.0
C681 C 0.7099 0.18819 0.0256 0.0
C682 C 0.70869 0.1653 0.03299 0.0
C683 C 0.72304 0.15578 0.02257 0.0
C684 C 0.73879 0.16904 0.00479 0.0
C685 C 0.74027 0.19189 0.99741 0.0
C686 C 0.72594 0.20149 0.00777 0.0
C687 C 0.72332 0.29877 0.08412 0.0
C688 C 0.73412 0.31652 0.06679 0.0
C689 C 0.70989 0.27206 0.08002 0.0
C690 C 0.7072 0.26271 0.05857 0.0
C691 C 0.71804 0.28045 0.04132 0.0
C692 C 0.73121 0.30704 0.04536 0.0
C693 C 0.6933 0.23452 0.05376 0.0
C694 C 0.70686 0.22414 0.04316 0.0
C695 C 0.66677 0.21814 0.05869 0.0
C696 C 0.65131 0.22797 0.06969 0.0
C697 C 0.64889 0.24821 0.06044 0.0
C698 C 0.63435 0.25742 0.071 0.0
C699 C 0.62198 0.2464 0.09073 0.0
C700 C 0.62405 0.22608 0.09991 0.0
C701 C 0.63859 0.21682 0.08942 0.0
H702 H 0.61072 0.25355 0.09888 0.0
H703 H 0.74987 0.16163 0.99673 0.0
H704 H 0.51903 0.59173 0.20366 0.0
H705 H 0.49976 0.61326 0.22443 0.0
H706 H 0.52793 0.67402 0.1761 0.0
H707 H 0.54736 0.65298 0.15584 0.0
H708 H 0.53167 0.69415 0.21475 0.0
H709 H 0.46652 0.62041 0.17421 0.0
H710 H 0.44099 0.57407 0.16472 0.0
H711 H 0.4128 0.55598 0.23054 0.0
H712 H 0.43852 0.60218 0.24051 0.0
H713 H 0.4089 0.70483 0.20769 0.0
H714 H 0.43088 0.68013 0.20178 0.0
H715 H 0.47577 0.71289 0.26038 0.0
H716 H 0.45422 0.73815 0.2661 0.0
H717 H 0.43614 0.64424 0.2227 0.0
H718 H 0.53678 0.7234 0.25195 0.0
H719 H 0.5619 0.77085 0.25649 0.0
H720 H 0.51802 0.77994 0.20516 0.0
H721 H 0.49291 0.7326 0.20015 0.0
C722 C 0.52158 0.61001 0.1979 0.0
C723 C 0.53447 0.62066 0.17813 0.0
C724 C 0.51045 0.6222 0.20963 0.0
C725 C 0.51209 0.64512 0.20167 0.0
C726 C 0.52637 0.65642 0.18263 0.0
C727 C 0.5374 0.64434 0.171 0.0
C728 C 0.49747 0.6566 0.2118 0.0
C729 C 0.51083 0.68312 0.21684 0.0
C730 C 0.4702 0.64239 0.21418 0.0
C731 C 0.45467 0.61467 0.20816 0.0
C732 C 0.45502 0.60652 0.18668 0.0
C733 C 0.44051 0.58029 0.18121 0.0
C734 C 0.42534 0.5621 0.19702 0.0
C735 C 0.42461 0.57009 0.21832 0.0
C736 C 0.43916 0.59628 0.2239 0.0
C737 C 0.42328 0.7066 0.21944 0.0
C738 C 0.43 0.72363 0.23725 0.0
C739 C 0.43576 0.69237 0.21609 0.0
C740 C 0.45521 0.69484 0.23049 0.0
C741 C 0.46111 0.71094 0.24886 0.0
C742 C 0.44873 0.72532 0.25214 0.0
C743 C 0.47034 0.68186 0.22533 0.0
C744 C 0.45707 0.65511 0.22122 0.0
C745 C 0.49763 0.69599 0.22318 0.0
C746 C 0.51277 0.72448 0.2259 0.0
C747 C 0.53255 0.73555 0.24162 0.0
C748 C 0.54678 0.76242 0.24427 0.0
C749 C 0.54149 0.77839 0.23118 0.0
C750 C 0.52203 0.76755 0.21535 0.0
C751 C 0.50778 0.7407 0.21261 0.0
H752 H 0.5525 0.79918 0.23328 0.0
H753 H 0.4141 0.54181 0.19275 0.0
H754 H 0.94115 0.5231 0.37619 0.0
H755 H 0.89968 0.5077 0.39542 0.0
H756 H 0.86483 0.51344 0.33545 0.0
H757 H 0.90585 0.52912 0.31658 0.0
H758 H 0.84886 0.5303 0.36844 0.0
H759 H 0.85862 0.45559 0.35364 0.0
H760 H 0.88035 0.42983 0.35667 0.0
H761 H 0.87275 0.42823 0.42647 0.0
H762 H 0.85124 0.45427 0.42385 0.0
H763 H 0.71641 0.43999 0.36653 0.0
H764 H 0.76321 0.46303 0.36104 0.0
H765 H 0.77468 0.45312 0.42912 0.0
H766 H 0.72758 0.42998 0.4348 0.0
H767 H 0.80525 0.4422 0.40065 0.0
H768 H 0.78772 0.51066 0.41362 0.0
H769 H 0.76465 0.53494 0.40907 0.0
H770 H 0.78608 0.54749 0.34136 0.0
H771 H 0.80897 0.52295 0.34541 0.0
C772 C 0.92465 0.52136 0.36731 0.0
C773 C 0.92657 0.52691 0.34485 0.0
C774 C 0.90097 0.51244 0.37822 0.0
C775 C 0.879 0.5091 0.36681 0.0
C776 C 0.88139 0.51578 0.34464 0.0
C777 C 0.90483 0.52457 0.33381 0.0
C778 C 0.85304 0.49765 0.37724 0.0
C779 C 0.83936 0.51105 0.37551 0.0
C780 C 0.84078 0.4728 0.38701 0.0
C781 C 0.85365 0.45714 0.38857 0.0
C782 C 0.86178 0.44991 0.36964 0.0
C783 C 0.87402 0.43524 0.37128 0.0
C784 C 0.87801 0.42748 0.39175 0.0
C785 C 0.8697 0.43431 0.41063 0.0
C786 C 0.85748 0.44902 0.40908 0.0
C787 C 0.72884 0.44268 0.38037 0.0
C788 C 0.7183 0.43324 0.40112 0.0
C789 C 0.75561 0.45594 0.37722 0.0
C790 C 0.77245 0.46004 0.39472 0.0
C791 C 0.76202 0.45025 0.41542 0.0
C792 C 0.73515 0.43711 0.41864 0.0
C793 C 0.80089 0.4745 0.39107 0.0
C794 C 0.81497 0.4617 0.39408 0.0
C795 C 0.8135 0.49984 0.3823 0.0
C796 C 0.79995 0.51483 0.37981 0.0
C797 C 0.78737 0.51845 0.39772 0.0
C798 C 0.77435 0.53228 0.39523 0.0
C799 C 0.77387 0.54272 0.37493 0.0
C800 C 0.78647 0.53939 0.35708 0.0
C801 C 0.79951 0.52556 0.35947 0.0
H802 H 0.76377 0.55341 0.37303 0.0
H803 H 0.88748 0.41611 0.39299 0.0
H804 H 0.07134 0.5368 0.37348 0.0
H805 H 0.08987 0.53353 0.40832 0.0
H806 H 0.09788 0.6065 0.42851 0.0
H807 H 0.07797 0.60875 0.39439 0.0
H808 H 0.13528 0.56125 0.42063 0.0
H809 H 0.10555 0.6173 0.48144 0.0
H810 H 0.06689 0.62031 0.49039 0.0
H811 H 0.01796 0.54467 0.46341 0.0
H812 H 0.05628 0.54103 0.45457 0.0
H813 H 0.23214 0.62725 0.49912 0.0
H814 H 0.19923 0.61297 0.47052 0.0
H815 H 0.14047 0.56458 0.51707 0.0
H816 H 0.17324 0.57963 0.54592 0.0
H817 H 0.12267 0.58775 0.49421 0.0
H818 H 0.16243 0.5389 0.47605 0.0
H819 H 0.19787 0.53019 0.46831 0.0
H820 H 0.22023 0.58043 0.41253 0.0
H821 H 0.18514 0.58974 0.4201 0.0
C822 C 0.076 0.55142 0.38588 0.0
C823 C 0.07278 0.57271 0.38161 0.0
C824 C 0.08688 0.54977 0.40566 0.0
C825 C 0.09525 0.56969 0.42126 0.0
C826 C 0.091 0.59046 0.4172 0.0
C827 C 0.07961 0.59179 0.39766 0.0
C828 C 0.11111 0.57046 0.44041 0.0
C829 C 0.13228 0.56677 0.43676 0.0
C830 C 0.10705 0.57708 0.46169 0.0
C831 C 0.08384 0.57898 0.46722 0.0
C832 C 0.08654 0.60124 0.47754 0.0
C833 C 0.06468 0.60307 0.48256 0.0
C834 C 0.03999 0.58272 0.47743 0.0
C835 C 0.0371 0.56045 0.46732 0.0
C836 C 0.05889 0.55851 0.46227 0.0
C837 C 0.21224 0.61338 0.5032 0.0
C838 C 0.20528 0.60452 0.52474 0.0
C839 C 0.19342 0.60511 0.48681 0.0
C840 C 0.16732 0.58738 0.4915 0.0
C841 C 0.16042 0.57825 0.51299 0.0
C842 C 0.17919 0.58679 0.52945 0.0
C843 C 0.14717 0.57932 0.47417 0.0
C844 C 0.12532 0.58176 0.47816 0.0
C845 C 0.15007 0.57067 0.45341 0.0
C846 C 0.17124 0.56515 0.44874 0.0
C847 C 0.17501 0.54824 0.46222 0.0
C848 C 0.19502 0.54317 0.45785 0.0
C849 C 0.21132 0.55479 0.43996 0.0
C850 C 0.2076 0.57146 0.42638 0.0
C851 C 0.18763 0.57661 0.43069 0.0
H852 H 0.2268 0.55083 0.43661 0.0
H853 H 0.02309 0.58419 0.48131 0.0
H854 H 0.47743 0.05719 0.5571 0.0
H855 H 0.495 0.07684 0.59262 0.0
H856 H 0.57256 0.10689 0.56809 0.0
H857 H 0.55509 0.08643 0.53279 0.0
H858 H 0.57057 0.0959 0.61098 0.0
H859 H 0.54309 0.14239 0.5643 0.0
H860 H 0.51211 0.14768 0.54132 0.0
H861 H 0.46171 0.13087 0.59643 0.0
H862 H 0.49224 0.12506 0.61967 0.0
H863 H 0.63949 0.21353 0.67138 0.0
H864 H 0.61918 0.18096 0.64255 0.0
H865 H 0.54488 0.15179 0.67363 0.0
H866 H 0.56504 0.18423 0.70251 0.0
H867 H 0.54337 0.15967 0.6295 0.0
H868 H 0.57512 0.11782 0.67701 0.0
H869 H 0.60807 0.11446 0.6988 0.0
H870 H 0.65295 0.12524 0.64094 0.0
H871 H 0.62044 0.12903 0.61883 0.0
C872 C 0.49819 0.06708 0.55951 0.0
C873 C 0.5149 0.07059 0.54203 0.0
C874 C 0.50822 0.07855 0.57977 0.0
C875 C 0.5351 0.09393 0.58281 0.0
C876 C 0.55177 0.09532 0.56607 0.0
C877 C 0.54176 0.08373 0.54586 0.0
C878 C 0.5458 0.11105 0.60219 0.0
C879 C 0.56471 0.1099 0.615 0.0
C880 C 0.53805 0.12926 0.60752 0.0
C881 C 0.51979 0.133 0.59365 0.0
C882 C 0.52531 0.13964 0.57147 0.0
C883 C 0.50785 0.14275 0.55841 0.0
C884 C 0.48492 0.13955 0.5674 0.0
C885 C 0.47945 0.1333 0.58949 0.0
C886 C 0.49683 0.13009 0.60261 0.0
C887 C 0.61884 0.20014 0.67208 0.0
C888 C 0.60385 0.20143 0.68918 0.0
C889 C 0.60729 0.18146 0.65568 0.0
C890 C 0.58056 0.16379 0.65608 0.0
C891 C 0.56555 0.16517 0.67307 0.0
C892 C 0.5771 0.18371 0.68954 0.0
C893 C 0.5681 0.14449 0.63835 0.0
C894 C 0.54896 0.14539 0.62572 0.0
C895 C 0.57593 0.12635 0.63306 0.0
C896 C 0.59544 0.12393 0.64629 0.0
C897 C 0.59212 0.11968 0.66895 0.0
C898 C 0.6107 0.11766 0.68136 0.0
C899 C 0.63262 0.11969 0.67127 0.0
C900 C 0.63597 0.12369 0.64874 0.0
C901 C 0.61746 0.12575 0.63626 0.0
H902 H 0.64699 0.11812 0.6809 0.0
H903 H 0.47142 0.14197 0.55726 0.0
H904 H 0.4348 0.48602 0.72114 0.0
H905 H 0.43072 0.50558 0.75483 0.0
H906 H 0.47556 0.58151 0.72636 0.0
H907 H 0.48047 0.56214 0.69283 0.0
H908 H 0.48583 0.5815 0.77033 0.0
H909 H 0.41067 0.55083 0.72359 0.0
H910 H 0.37401 0.51809 0.70178 0.0
H911 H 0.34262 0.47043 0.7587 0.0
H912 H 0.37919 0.5027 0.78079 0.0
H913 H 0.43955 0.64684 0.83852 0.0
H914 H 0.45152 0.62937 0.80725 0.0
H915 H 0.40111 0.5518 0.83083 0.0
H916 H 0.38863 0.56904 0.8616 0.0
H917 H 0.39463 0.55334 0.78905 0.0
H918 H 0.46839 0.58317 0.83625 0.0
H919 H 0.50484 0.61489 0.85873 0.0
H920 H 0.53896 0.66289 0.80234 0.0
H921 H 0.50251 0.63161 0.77957 0.0
C922 C 0.44457 0.50692 0.72228 0.0
C923 C 0.45779 0.52251 0.70421 0.0
C924 C 0.44196 0.51806 0.74148 0.0
C925 C 0.45236 0.54495 0.74291 0.0
C926 C 0.46723 0.5607 0.72555 0.0
C927 C 0.46992 0.54959 0.70637 0.0
C928 C 0.44586 0.55642 0.76165 0.0
C929 C 0.46592 0.57556 0.77433 0.0
C930 C 0.41986 0.54837 0.76705 0.0
C931 C 0.39779 0.52906 0.75378 0.0
C932 C 0.39604 0.53328 0.7314 0.0
C933 C 0.37528 0.51484 0.719 0.0
C934 C 0.35608 0.49219 0.72883 0.0
C935 C 0.35754 0.48797 0.7511 0.0
C936 C 0.37825 0.50633 0.76357 0.0
C937 C 0.43101 0.62607 0.83696 0.0
C938 C 0.41313 0.60931 0.85248 0.0
C939 C 0.43799 0.61611 0.81918 0.0
C940 C 0.42746 0.58925 0.8168 0.0
C941 C 0.4095 0.57257 0.83227 0.0
C942 C 0.40239 0.58247 0.84988 0.0
C943 C 0.43457 0.57828 0.79802 0.0
C944 C 0.41458 0.5593 0.78518 0.0
C945 C 0.46062 0.58637 0.79262 0.0
C946 C 0.48258 0.60518 0.80626 0.0
C947 C 0.48356 0.60059 0.82868 0.0
C948 C 0.50424 0.61847 0.84147 0.0
C949 C 0.52416 0.64093 0.83198 0.0
C950 C 0.52349 0.64551 0.80967 0.0
C951 C 0.50284 0.6277 0.79682 0.0
H952 H 0.54016 0.65475 0.84191 0.0
H953 H 0.34004 0.47794 0.7192 0.0
H954 H 0.92373 0.39762 0.87611 0.0
H955 H 0.90477 0.39628 0.91169 0.0
H956 H 0.96457 0.47519 0.92381 0.0
H957 H 0.98354 0.47658 0.88774 0.0
H958 H 0.91906 0.40194 0.95324 0.0
H959 H 0.93441 0.50493 0.94976 0.0
H960 H 0.94256 0.53874 0.92257 0.0
H961 H 0.90381 0.4805 0.87339 0.0
H962 H 0.89514 0.44639 0.90035 0.0
H963 H 0.86164 0.41677 0.04926 0.0
H964 H 0.89323 0.42605 0.02025 0.0
H965 H 0.83975 0.42635 0.97293 0.0
H966 H 0.8084 0.41787 0.00203 0.0
H967 H 0.88685 0.46335 0.96352 0.0
H968 H 0.84693 0.37269 0.98106 0.0
H969 H 0.83369 0.33504 0.00521 0.0
H970 H 0.91325 0.36217 0.02135 0.0
H971 H 0.92693 0.40018 0.99749 0.0
C972 C 0.93308 0.41452 0.88656 0.0
C973 C 0.95492 0.43726 0.87926 0.0
C974 C 0.92232 0.41372 0.90691 0.0
C975 C 0.93306 0.43571 0.92033 0.0
C976 C 0.95583 0.45808 0.9136 0.0
C977 C 0.96673 0.45884 0.89314 0.0
C978 C 0.91891 0.43542 0.94034 0.0
C979 C 0.91235 0.41561 0.95567 0.0
C980 C 0.90964 0.45287 0.94327 0.0
C981 C 0.91447 0.47318 0.92699 0.0
C982 C 0.9276 0.49937 0.93315 0.0
C983 C 0.9323 0.51857 0.91779 0.0
C984 C 0.9238 0.51178 0.89625 0.0
C985 C 0.91048 0.48575 0.89005 0.0
C986 C 0.90569 0.46648 0.90536 0.0
C987 C 0.85669 0.41898 0.03269 0.0
C988 C 0.83248 0.41639 0.02786 0.0
C989 C 0.87474 0.42423 0.01612 0.0
C990 C 0.86875 0.42653 0.99434 0.0
C991 C 0.84484 0.42468 0.9896 0.0
C992 C 0.82688 0.41971 0.00621 0.0
C993 C 0.88682 0.42972 0.97636 0.0
C994 C 0.89408 0.45006 0.96141 0.0
C995 C 0.8961 0.41226 0.97341 0.0
C996 C 0.88792 0.38941 0.98771 0.0
C997 C 0.86158 0.37072 0.98989 0.0
C998 C 0.854 0.3493 0.0035 0.0
C999 C 0.87261 0.34626 0.01486 0.0
C1000 C 0.89885 0.36458 0.01258 0.0
C1001 C 0.90653 0.38606 0.99901 0.0
H1002 H 0.86671 0.32966 0.02538 0.0
H1003 H 0.92748 0.52667 0.88438 0.0
H1004 H 0.48832 0.94862 0.03727 0.0
H1005 H 0.4711 0.92686 0.07229 0.0
H1006 H 0.54737 0.94289 0.09115 0.0
H1007 H 0.56468 0.96489 0.05619 0.0
H1008 H 0.50986 0.89037 0.09174 0.0
H1009 H 0.52076 0.97007 0.11927 0.0
H1010 H 0.51648 0.00903 0.11938 0.0
H1011 H 0.43368 0.96147 0.12068 0.0
H1012 H 0.43744 0.92218 0.12024 0.0
H1013 H 0.47284 0.8299 0.19525 0.0
H1014 H 0.49387 0.86151 0.16601 0.0
H1015 H 0.42036 0.85347 0.14782 0.0
H1016 H 0.3992 0.822 0.17731 0.0
H1017 H 0.45816 0.90386 0.14811 0.0
H1018 H 0.44629 0.82482 0.11781 0.0
H1019 H 0.44916 0.78507 0.11643 0.0
H1020 H 0.53211 0.83051 0.11869 0.0
H1021 H 0.52973 0.87055 0.12039 0.0
C1022 C 0.50151 0.94825 0.04923 0.0
C1023 C 0.52781 0.95849 0.04413 0.0
C1024 C 0.49169 0.93581 0.06919 0.0
C1025 C 0.50796 0.9332 0.08427 0.0
C1026 C 0.53452 0.94475 0.07973 0.0
C1027 C 0.54442 0.9575 0.05987 0.0
C1028 C 0.49669 0.91582 0.10339 0.0
C1029 C 0.49901 0.89359 0.10434 0.0
C1030 C 0.48175 0.91958 0.11931 0.0
C1031 C 0.47939 0.94316 0.11952 0.0
C1032 C 0.50162 0.9679 0.11937 0.0
C1033 C 0.49929 0.99005 0.11954 0.0
C1034 C 0.47482 0.98773 0.11998 0.0
C1035 C 0.45262 0.96324 0.12031 0.0
C1036 C 0.45485 0.94102 0.12012 0.0
C1037 C 0.46112 0.83479 0.18498 0.0
C1038 C 0.43434 0.82335 0.18849 0.0
C1039 C 0.47317 0.85284 0.16826 0.0
C1040 C 0.45867 0.85972 0.15461 0.0
C1041 C 0.43193 0.84847 0.15817 0.0
C1042 C 0.41985 0.83038 0.17492 0.0
C1043 C 0.47141 0.87844 0.13649 0.0
C1044 C 0.46924 0.90079 0.13564 0.0
C1045 C 0.4863 0.8747 0.12047 0.0
C1046 C 0.48782 0.85067 0.11947 0.0
C1047 C 0.46514 0.82633 0.11821 0.0
C1048 C 0.46668 0.80375 0.11733 0.0
C1049 C 0.4908 0.80526 0.11754 0.0
C1050 C 0.51344 0.82937 0.11857 0.0
C1051 C 0.51201 0.85202 0.11947 0.0
H1052 H 0.49195 0.78776 0.11685 0.0
H1053 H 0.47306 0.0049 0.12012 0.0
H1054 H 0.55788 0.5253 0.22089 0.0
H1055 H 0.55795 0.50675 0.25689 0.0
H1056 H 0.61477 0.48808 0.23373 0.0
H1057 H 0.61598 0.50755 0.19865 0.0
H1058 H 0.56412 0.44518 0.25478 0.0
H1059 H 0.63864 0.53363 0.26257 0.0
H1060 H 0.65776 0.58104 0.26361 0.0
H1061 H 0.60554 0.5735 0.31501 0.0
H1062 H 0.58586 0.52597 0.31402 0.0
H1063 H 0.62433 0.40758 0.33256 0.0
H1064 H 0.61235 0.4268 0.30283 0.0
H1065 H 0.58719 0.4636 0.34967 0.0
H1066 H 0.60026 0.44527 0.3795 0.0
H1067 H 0.61229 0.49648 0.3197 0.0
H1068 H 0.54319 0.40992 0.31783 0.0
H1069 H 0.52161 0.36228 0.31752 0.0
H1070 H 0.55798 0.36466 0.25643 0.0
H1071 H 0.58009 0.41234 0.25651 0.0
C1072 C 0.57056 0.51749 0.2236 0.0
C1073 C 0.5864 0.51733 0.20664 0.0
C1074 C 0.57048 0.50681 0.24408 0.0
C1075 C 0.58611 0.49576 0.24774 0.0
C1076 C 0.60229 0.49617 0.23108 0.0
C1077 C 0.60274 0.50713 0.21093 0.0
C1078 C 0.58582 0.48327 0.26868 0.0
C1079 C 0.57454 0.45628 0.26907 0.0
C1080 C 0.59868 0.49779 0.28743 0.0
C1081 C 0.61054 0.52628 0.288 0.0
C1082 C 0.63104 0.54208 0.27391 0.0
C1083 C 0.64203 0.56897 0.27454 0.0
C1084 C 0.6328 0.58028 0.28931 0.0
C1085 C 0.61262 0.56472 0.30354 0.0
C1086 C 0.60155 0.53781 0.30295 0.0
C1087 C 0.61609 0.41964 0.33651 0.0
C1088 C 0.61315 0.42486 0.35833 0.0
C1089 C 0.60907 0.4305 0.3195 0.0
C1090 C 0.59834 0.44629 0.32393 0.0
C1091 C 0.59532 0.45144 0.34577 0.0
C1092 C 0.60274 0.4409 0.36281 0.0
C1093 C 0.59132 0.45817 0.3057 0.0
C1094 C 0.60124 0.48508 0.30575 0.0
C1095 C 0.57674 0.44346 0.28745 0.0
C1096 C 0.56341 0.41474 0.28725 0.0
C1097 C 0.54672 0.4003 0.30439 0.0
C1098 C 0.53438 0.37328 0.30425 0.0
C1099 C 0.53845 0.36046 0.28698 0.0
C1100 C 0.55484 0.37462 0.2698 0.0
C1101 C 0.56725 0.40165 0.26986 0.0
H1102 H 0.52888 0.33954 0.2869 0.0
H1103 H 0.64134 0.6011 0.28978 0.0
H1104 H 0.48306 0.98136 0.43121 0.0
H1105 H 0.48535 0.9647 0.39491 0.0
H1106 H 0.40483 0.90586 0.40007 0.0
H1107 H 0.40246 0.92251 0.43574 0.0
H1108 H 0.47796 0.91735 0.38469 0.0
H1109 H 0.37572 0.89158 0.35214 0.0
H1110 H 0.34712 0.91029 0.35272 0.0
H1111 H 0.41281 0.98606 0.36269 0.0
H1112 H 0.44186 0.9679 0.36185 0.0
H1113 H 0.42421 0.80817 0.31601 0.0
H1114 H 0.43538 0.84151 0.34381 0.0
H1115 H 0.43675 0.89386 0.29448 0.0
H1116 H 0.42459 0.8602 0.26681 0.0
H1117 H 0.41191 0.89626 0.32699 0.0
H1118 H 0.49359 0.90209 0.31996 0.0
H1119 H 0.52487 0.88666 0.31783 0.0
H1120 H 0.50588 0.85751 0.38335 0.0
H1121 H 0.47421 0.87243 0.38578 0.0
C1122 C 0.46583 0.96519 0.42429 0.0
C1123 C 0.44264 0.95309 0.43624 0.0
C1124 C 0.46717 0.95561 0.40369 0.0
C1125 C 0.44521 0.93414 0.39471 0.0
C1126 C 0.42192 0.92266 0.40646 0.0
C1127 C 0.42063 0.93207 0.42692 0.0
C1128 C 0.44646 0.92233 0.37374 0.0
C1129 C 0.46375 0.91298 0.37192 0.0
C1130 C 0.42835 0.9172 0.35682 0.0
C1131 C 0.41097 0.92832 0.35704 0.0
C1132 C 0.3841 0.91226 0.35431 0.0
C1133 C 0.3678 0.92277 0.35472 0.0
C1134 C 0.37813 0.94934 0.35778 0.0
C1135 C 0.40481 0.96547 0.36039 0.0
C1136 C 0.4212 0.95507 0.35997 0.0
C1137 C 0.42708 0.82685 0.31109 0.0
C1138 C 0.42345 0.83156 0.28927 0.0
C1139 C 0.43368 0.846 0.32697 0.0
C1140 C 0.4373 0.87042 0.32125 0.0
C1141 C 0.43409 0.87523 0.29934 0.0
C1142 C 0.42715 0.85598 0.28353 0.0
C1143 C 0.44268 0.89023 0.33834 0.0
C1144 C 0.42654 0.90103 0.33947 0.0
C1145 C 0.46228 0.89719 0.35431 0.0
C1146 C 0.48141 0.88827 0.353 0.0
C1147 C 0.49596 0.89225 0.33387 0.0
C1148 C 0.51378 0.88361 0.33262 0.0
C1149 C 0.51733 0.87108 0.35043 0.0
C1150 C 0.50311 0.86722 0.36956 0.0
C1151 C 0.48525 0.8758 0.3709 0.0
H1152 H 0.53113 0.8644 0.34942 0.0
H1153 H 0.36547 0.95743 0.35811 0.0
H1154 H 0.48183 0.4353 0.59017 0.0
H1155 H 0.5021 0.4332 0.55607 0.0
H1156 H 0.57716 0.48838 0.58165 0.0
H1157 H 0.55697 0.4901 0.61602 0.0
H1158 H 0.5667 0.48948 0.53162 0.0
H1159 H 0.56788 0.43659 0.59169 0.0
H1160 H 0.54773 0.40587 0.62214 0.0
H1161 H 0.49099 0.35019 0.57826 0.0
H1162 H 0.51075 0.38076 0.54755 0.0
H1163 H 0.64469 0.45221 0.47045 0.0
H1164 H 0.62593 0.46563 0.49968 0.0
H1165 H 0.55225 0.39605 0.49025 0.0
H1166 H 0.571 0.38233 0.46143 0.0
H1167 H 0.56272 0.4044 0.53213 0.0
H1168 H 0.56455 0.45583 0.47102 0.0
H1169 H 0.58471 0.48668 0.44065 0.0
H1170 H 0.63536 0.5454 0.48578 0.0
H1171 H 0.61574 0.51477 0.51641 0.0
C1172 C 0.5025 0.4479 0.58811 0.0
C1173 C 0.51789 0.46292 0.60561 0.0
C1174 C 0.51406 0.44658 0.5687 0.0
C1175 C 0.54109 0.46052 0.56648 0.0
C1176 C 0.55626 0.47763 0.58305 0.0
C1177 C 0.54474 0.47863 0.60262 0.0
C1178 C 0.55354 0.45367 0.5489 0.0
C1179 C 0.56612 0.47103 0.53174 0.0
C1180 C 0.55245 0.42948 0.54906 0.0
C1181 C 0.54059 0.41103 0.56741 0.0
C1182 C 0.55096 0.41788 0.58858 0.0
C1183 C 0.53966 0.40048 0.60587 0.0
C1184 C 0.51803 0.37612 0.60215 0.0
C1185 C 0.50772 0.36908 0.58112 0.0
C1186 C 0.51899 0.38642 0.56376 0.0
C1187 C 0.62453 0.43975 0.4747 0.0
C1188 C 0.60931 0.41622 0.46367 0.0
C1189 C 0.61378 0.44752 0.49128 0.0
C1190 C 0.58757 0.43203 0.49695 0.0
C1191 C 0.57249 0.40836 0.48614 0.0
C1192 C 0.58324 0.40053 0.46967 0.0
C1193 C 0.57583 0.44007 0.51444 0.0
C1194 C 0.56338 0.42289 0.53178 0.0
C1195 C 0.57711 0.46444 0.51435 0.0
C1196 C 0.58885 0.48292 0.49598 0.0
C1197 C 0.58012 0.47526 0.47445 0.0
C1198 C 0.59143 0.49272 0.45719 0.0
C1199 C 0.61135 0.51797 0.46127 0.0
C1200 C 0.61995 0.52583 0.48264 0.0
C1201 C 0.60873 0.50843 0.49995 0.0
H1202 H 0.62008 0.53146 0.44789 0.0
H1203 H 0.5093 0.36266 0.61556 0.0
H1204 H 0.096 0.48401 0.7688 0.0
H1205 H 0.12132 0.50715 0.73657 0.0
H1206 H 0.08813 0.55675 0.73825 0.0
H1207 H 0.0631 0.53383 0.77099 0.0
H1208 H 0.09649 0.53851 0.69345 0.0
H1209 H 0.13871 0.58074 0.76043 0.0
H1210 H 0.15477 0.58239 0.79783 0.0
H1211 H 0.20529 0.55596 0.77442 0.0
H1212 H 0.18892 0.55337 0.73693 0.0
H1213 H 0.19568 0.63368 0.62593 0.0
H1214 H 0.16521 0.6142 0.6563 0.0
H1215 H 0.20228 0.57083 0.67471 0.0
H1216 H 0.23291 0.59043 0.64461 0.0
H1217 H 0.19049 0.58919 0.71011 0.0
H1218 H 0.14687 0.54318 0.64481 0.0
H1219 H 0.13034 0.53878 0.60721 0.0
H1220 H 0.08291 0.57041 0.62706 0.0
H1221 H 0.09947 0.57535 0.66475 0.0
C1222 C 0.09343 0.49923 0.76177 0.0
C1223 C 0.07744 0.50701 0.77202 0.0
C1224 C 0.10799 0.51252 0.74352 0.0
C1225 C 0.10668 0.53372 0.73521 0.0
C1226 C 0.08926 0.54035 0.74444 0.0
C1227 C 0.07492 0.52723 0.76298 0.0
C1228 C 0.12556 0.55039 0.71849 0.0
C1229 C 0.11699 0.55002 0.69711 0.0
C1230 C 0.15232 0.5649 0.72332 0.0
C1231 C 0.16232 0.56655 0.74587 0.0
C1232 C 0.15298 0.57494 0.76327 0.0
C1233 C 0.16217 0.57608 0.7845 0.0
C1234 C 0.18099 0.56923 0.7885 0.0
C1235 C 0.19065 0.5612 0.77129 0.0
C1236 C 0.1814 0.55986 0.75005 0.0
C1237 C 0.19752 0.62023 0.63663 0.0
C1238 C 0.21661 0.61348 0.63284 0.0
C1239 C 0.18001 0.60902 0.65389 0.0
C1240 C 0.18123 0.59078 0.66759 0.0
C1241 C 0.20093 0.58481 0.66433 0.0
C1242 C 0.2184 0.596 0.64709 0.0
C1243 C 0.16154 0.57716 0.68487 0.0
C1244 C 0.16997 0.57803 0.70643 0.0
C1245 C 0.13469 0.56295 0.68015 0.0
C1246 C 0.12465 0.55993 0.65753 0.0
C1247 C 0.13309 0.5494 0.64112 0.0
C1248 C 0.12369 0.54678 0.6198 0.0
C1249 C 0.10565 0.55439 0.61473 0.0
C1250 C 0.09693 0.56458 0.631 0.0
C1251 C 0.10631 0.56729 0.65234 0.0
H1252 H 0.09839 0.55234 0.59822 0.0
H1253 H 0.18816 0.57023 0.80492 0.0
H1254 H 0.55478 0.08675 0.94723 0.0
H1255 H 0.55633 0.10679 0.91201 0.0
H1256 H 0.60386 0.07761 0.88595 0.0
H1257 H 0.60257 0.05777 0.92127 0.0
H1258 H 0.62706 0.1298 0.88313 0.0
H1259 H 0.54425 0.05786 0.8648 0.0
H1260 H 0.4982 0.02565 0.87041 0.0
H1261 H 0.47999 0.0865 0.87507 0.0
H1262 H 0.526 0.11913 0.8698 0.0
H1263 H 0.64393 0.18896 0.78015 0.0
H1264 H 0.63177 0.15674 0.80905 0.0
H1265 H 0.58046 0.18058 0.83646 0.0
H1266 H 0.59215 0.21257 0.80716 0.0
H1267 H 0.55816 0.12878 0.83708 0.0
H1268 H 0.63987 0.20039 0.85889 0.0
H1269 H 0.6858 0.23376 0.85462 0.0
H1270 H 0.70584 0.1747 0.84535 0.0
H1271 H 0.65996 0.14095 0.84925 0.0
C1272 C 0.56478 0.08385 0.93374 0.0
C1273 C 0.57863 0.07079 0.93698 0.0
C1274 C 0.56564 0.09529 0.91361 0.0
C1275 C 0.58033 0.09382 0.89636 0.0
C1276 C 0.59244 0.079 0.89905 0.0
C1277 C 0.59148 0.06745 0.91917 0.0
C1278 C 0.58604 0.11067 0.87689 0.0
C1279 C 0.612 0.12916 0.87276 0.0
C1280 C 0.56635 0.11054 0.86391 0.0
C1281 C 0.53864 0.09096 0.86708 0.0
C1282 C 0.53047 0.0644 0.86721 0.0
C1283 C 0.50436 0.04606 0.87029 0.0
C1284 C 0.48619 0.05402 0.87314 0.0
C1285 C 0.49409 0.08036 0.87287 0.0
C1286 C 0.52018 0.09878 0.86981 0.0
C1287 C 0.63008 0.18739 0.79234 0.0
C1288 C 0.61915 0.20345 0.79151 0.0
C1289 C 0.62316 0.16896 0.80887 0.0
C1290 C 0.60543 0.16644 0.8251 0.0
C1291 C 0.59418 0.18219 0.82412 0.0
C1292 C 0.60099 0.20055 0.80747 0.0
C1293 C 0.59917 0.14777 0.84332 0.0
C1294 C 0.57318 0.12914 0.84731 0.0
C1295 C 0.6188 0.1479 0.8564 0.0
C1296 C 0.64644 0.16815 0.85413 0.0
C1297 C 0.65404 0.19452 0.85577 0.0
C1298 C 0.68007 0.2135 0.85344 0.0
C1299 C 0.69871 0.20636 0.84965 0.0
C1300 C 0.69137 0.1802 0.84825 0.0
C1301 C 0.66536 0.16114 0.85053 0.0
H1302 H 0.71886 0.22108 0.84785 0.0
H1303 H 0.46598 0.03979 0.87552 0.0
H1304 H 0.54935 0.63394 0.10321 0.0
H1305 H 0.52757 0.63411 0.06948 0.0
H1306 H 0.49514 0.55162 0.06348 0.0
H1307 H 0.51692 0.55135 0.09771 0.0
H1308 H 0.51454 0.58802 0.02117 0.0
H1309 H 0.45721 0.56211 0.08435 0.0
H1310 H 0.44779 0.56743 0.12259 0.0
H1311 H 0.46211 0.64387 0.10815 0.0
H1312 H 0.47212 0.63919 0.06991 0.0
H1313 H 0.41952 0.5806 0.94668 0.0
H1314 H 0.44124 0.57099 0.97603 0.0
H1315 H 0.45515 0.64017 0.00997 0.0
H1316 H 0.43233 0.6491 0.98114 0.0
H1317 H 0.44305 0.6049 0.0382 0.0
H1318 H 0.50282 0.63508 0.97834 0.0
H1319 H 0.51762 0.63578 0.94062 0.0
H1320 H 0.50421 0.55856 0.94846 0.0
H1321 H 0.489 0.55728 0.98615 0.0
C1322 C 0.53818 0.61595 0.09435 0.0
C1323 C 0.53463 0.5926 0.10301 0.0
C1324 C 0.52576 0.61607 0.07513 0.0
C1325 C 0.5096 0.59286 0.06417 0.0
C1326 C 0.50763 0.56972 0.07176 0.0
C1327 C 0.52006 0.56957 0.0912 0.0
C1328 C 0.49253 0.59283 0.04661 0.0
C1329 C 0.49851 0.59111 0.02478 0.0
C1330 C 0.47228 0.59781 0.05146 0.0
C1331 C 0.46559 0.60035 0.07431 0.0
C1332 C 0.45854 0.58012 0.08937 0.0
C1333 C 0.45308 0.58302 0.11104 0.0
C1334 C 0.45439 0.60599 0.1178 0.0
C1335 C 0.46111 0.62609 0.10289 0.0
C1336 C 0.46666 0.62331 0.08122 0.0
C1337 C 0.42706 0.59363 0.96051 0.0
C1338 C 0.4243 0.61564 0.96163 0.0
C1339 C 0.43966 0.58823 0.97721 0.0
C1340 C 0.45036 0.6051 0.99508 0.0
C1341 C 0.44712 0.62682 0.99638 0.0
C1342 C 0.43409 0.63196 0.97989 0.0
C1343 C 0.46502 0.60031 0.01242 0.0
C1344 C 0.4587 0.60129 0.03435 0.0
C1345 C 0.48533 0.59525 0.0076 0.0
C1346 C 0.49448 0.59597 0.98496 0.0
C1347 C 0.50284 0.61818 0.97195 0.0
C1348 C 0.51133 0.61869 0.9506 0.0
C1349 C 0.51177 0.5972 0.94212 0.0
C1350 C 0.5038 0.57517 0.95503 0.0
C1351 C 0.49526 0.57454 0.97639 0.0
H1352 H 0.51835 0.59763 0.92558 0.0
H1353 H 0.45011 0.60821 0.13455 0.0
H1354 H 0.94532 0.47927 0.28579 0.0
H1355 H 0.92434 0.46095 0.25082 0.0
H1356 H 0.95673 0.53785 0.22406 0.0
H1357 H 0.97746 0.55625 0.25918 0.0
H1358 H 0.90474 0.51119 0.22124 0.0
H1359 H 0.97323 0.495 0.20328 0.0
H1360 H 1.0035 0.47884 0.20918 0.0
H1361 H 0.93959 0.40125 0.21509 0.0
H1362 H 0.9089 0.41698 0.20953 0.0
H1363 H 0.84335 0.46845 0.11883 0.0
H1364 H 0.87576 0.48805 0.14768 0.0
H1365 H 0.84904 0.41273 0.17615 0.0
H1366 H 0.81692 0.39287 0.14687 0.0
H1367 H 0.90062 0.44002 0.17647 0.0
H1368 H 0.83244 0.45565 0.19796 0.0
H1369 H 0.8011 0.47074 0.19337 0.0
H1370 H 0.86342 0.54825 0.18261 0.0
H1371 H 0.89513 0.53354 0.18684 0.0
C1372 C 0.94869 0.4922 0.2722 0.0
C1373 C 0.96295 0.51917 0.2752 0.0
C1374 C 0.93672 0.48172 0.2522 0.0
C1375 C 0.93885 0.49802 0.23482 0.0
C1376 C 0.9548 0.52491 0.23726 0.0
C1377 C 0.96687 0.53541 0.25727 0.0
C1378 C 0.92166 0.48724 0.21546 0.0
C1379 C 0.90426 0.49603 0.21114 0.0
C1380 C 0.92033 0.46676 0.20283 0.0
C1381 C 0.93874 0.45722 0.20616 0.0
C1382 C 0.96561 0.47451 0.20602 0.0
C1383 C 0.98285 0.46542 0.20927 0.0
C1384 C 0.97348 0.43904 0.21256 0.0
C1385 C 0.94683 0.42168 0.21255 0.0
C1386 C 0.9295 0.43067 0.20933 0.0
C1387 C 0.84428 0.45605 0.13128 0.0
C1388 C 0.82745 0.42913 0.13069 0.0
C1389 C 0.86282 0.46729 0.14779 0.0
C1390 C 0.86467 0.45192 0.16427 0.0
C1391 C 0.84799 0.42499 0.16362 0.0
C1392 C 0.82954 0.41368 0.14697 0.0
C1393 C 0.88378 0.46405 0.18228 0.0
C1394 C 0.90137 0.45541 0.18642 0.0
C1395 C 0.88517 0.48452 0.19496 0.0
C1396 C 0.86614 0.49344 0.19249 0.0
C1397 C 0.83945 0.47587 0.19445 0.0
C1398 C 0.82162 0.48436 0.19194 0.0
C1399 C 0.83026 0.51042 0.18765 0.0
C1400 C 0.85675 0.52806 0.18591 0.0
C1401 C 0.87466 0.51966 0.18837 0.0
H1402 H 0.81643 0.51696 0.18571 0.0
H1403 H 0.98686 0.43204 0.21507 0.0
loop_
_geom_bond_atom_site_label_1
_geom_bond_atom_site_label_2
_geom_bond_distance
_geom_bond_site_symmetry_2
_ccdc_geom_bond_type
H0 C8 0.930 . S
H1 C11 0.930 . S
H2 C13 0.930 . S
H3 C14 0.970 . S
H4 C14 0.970 . S
H5 C16 0.930 . S
H6 C18 0.930 . S
H7 C20 0.930 . S
C8 H0 0.930 . S
C8 C9 1.382 . S
C8 C10 1.426 . S
C9 C8 1.382 . S
C9 C13 1.389 . S
C10 C8 1.426 . S
C10 C11 1.375 . S
C10 C14 1.532 1_655 S
C11 H1 0.930 . S
C11 C10 1.375 . S
C11 C12 1.416 . S
C12 C11 1.416 . S
C12 C13 1.371 . S
C13 H2 0.930 . S
C13 C9 1.389 . S
C13 C12 1.371 . S
C14 H3 0.970 . S
C14 H4 0.970 . S
C14 C10 1.532 1_455 S
C14 C15 1.499 . S
C15 C14 1.499 . S
C15 C16 1.370 . S
C15 C20 1.415 . S
C16 H5 0.930 . S
C16 C15 1.370 . S
C16 C17 1.407 . S
C17 C16 1.407 . S
C17 C18 1.365 . S
C18 H6 0.930 . S
C18 C17 1.365 . S
C18 C19 1.393 . S
C19 C18 1.393 . S
C19 C20 1.387 . S
C20 H7 0.930 . S
C20 C15 1.415 . S
C20 C19 1.387 . S
H21 C29 0.930 . S
H22 C32 0.930 . S
H23 C34 0.930 . S
H24 C35 0.970 . S
H25 C35 0.970 . S
H26 C37 0.930 . S
H27 C39 0.930 . S
H28 C41 0.930 . S
C29 H21 0.930 . S
C29 C30 1.382 . S
C29 C31 1.426 . S
C30 C29 1.382 . S
C30 C34 1.389 . S
C31 C29 1.426 . S
C31 C32 1.375 . S
C31 C35 1.532 1_565 S
C32 H22 0.930 . S
C32 C31 1.375 . S
C32 C33 1.416 . S
C33 C32 1.416 . S
C33 C34 1.371 . S
C34 H23 0.930 . S
C34 C30 1.389 . S
C34 C33 1.371 . S
C35 H24 0.970 . S
C35 H25 0.970 . S
C35 C31 1.532 1_545 S
C35 C36 1.499 . S
C36 C35 1.499 . S
C36 C37 1.370 . S
C36 C41 1.415 . S
C37 H26 0.930 . S
C37 C36 1.370 . S
C37 C38 1.407 . S
C38 C37 1.407 . S
C38 C39 1.365 . S
C39 H27 0.930 . S
C39 C38 1.365 . S
C39 C40 1.393 . S
C40 C39 1.393 . S
C40 C41 1.387 . S
C41 H28 0.930 . S
C41 C36 1.415 . S
C41 C40 1.387 . S
H42 C50 0.930 . S
H43 C53 0.930 . S
H44 C55 0.930 . S
H45 C56 0.970 . S
H46 C56 0.970 . S
H47 C58 0.930 . S
H48 C60 0.930 . S
H49 C62 0.930 . S
C50 H42 0.930 . S
C50 C51 1.382 . S
C50 C52 1.426 . S
C51 C50 1.382 . S
C51 C55 1.389 . S
C52 C50 1.426 . S
C52 C53 1.375 . S
C52 C56 1.532 . S
C53 H43 0.930 . S
C53 C52 1.375 . S
C53 C54 1.416 . S
C54 C53 1.416 . S
C54 C55 1.371 . S
C55 H44 0.930 . S
C55 C51 1.389 . S
C55 C54 1.371 . S
C56 H45 0.970 . S
C56 H46 0.970 . S
C56 C52 1.532 . S
C56 C57 1.499 . S
C57 C56 1.499 . S
C57 C58 1.370 . S
C57 C62 1.415 . S
C58 H47 0.930 . S
C58 C57 1.370 . S
C58 C59 1.407 . S
C59 C58 1.407 . S
C59 C60 1.365 . S
C60 H48 0.930 . S
C60 C59 1.365 . S
C60 C61 1.393 . S
C61 C60 1.393 . S
C61 C62 1.387 . S
C62 H49 0.930 . S
C62 C57 1.415 . S
C62 C61 1.387 . S
H63 C71 0.930 . S
H64 C74 0.930 . S
H65 C76 0.930 . S
H66 C77 0.970 . S
H67 C77 0.970 . S
H68 C79 0.930 . S
H69 C81 0.930 . S
H70 C83 0.930 . S
C71 H63 0.930 . S
C71 C72 1.382 . S
C71 C73 1.426 . S
C72 C71 1.382 . S
C72 C76 1.389 . S
C73 C71 1.426 . S
C73 C74 1.375 . S
C73 C77 1.532 1_655 S
C74 H64 0.930 . S
C74 C73 1.375 . S
C74 C75 1.416 . S
C75 C74 1.416 . S
C75 C76 1.371 . S
C76 H65 0.930 . S
C76 C72 1.389 . S
C76 C75 1.371 . S
C77 H66 0.970 . S
C77 H67 0.970 . S
C77 C73 1.532 1_455 S
C77 C78 1.499 . S
C78 C77 1.499 . S
C78 C79 1.370 . S
C78 C83 1.415 . S
C79 H68 0.930 . S
C79 C78 1.370 . S
C79 C80 1.407 . S
C80 C79 1.407 . S
C80 C81 1.365 . S
C81 H69 0.930 . S
C81 C80 1.365 . S
C81 C82 1.393 . S
C82 C81 1.393 . S
C82 C83 1.387 . S
C83 H70 0.930 . S
C83 C78 1.415 . S
C83 C82 1.387 . S
H84 C92 0.930 . S
H85 C95 0.930 . S
H86 C97 0.930 . S
H87 C98 0.970 1_554 S
H88 C98 0.970 . S
H89 C100 0.930 . S
H90 C102 0.930 . S
H91 C104 0.930 . S
C92 H84 0.930 . S
C92 C93 1.382 1_554 S
C92 C94 1.426 1_554 S
C93 C92 1.382 1_556 S
C93 C97 1.389 . S
C94 C92 1.426 1_556 S
C94 C95 1.375 . S
C94 C98 1.532 . S
C95 H85 0.930 . S
C95 C94 1.375 . S
C95 C96 1.416 . S
C96 C95 1.416 . S
C96 C97 1.371 . S
C97 H86 0.930 . S
C97 C93 1.389 . S
C97 C96 1.371 . S
C98 H87 0.970 1_556 S
C98 H88 0.970 . S
C98 C94 1.532 . S
C98 C99 1.499 1_545 S
C99 C98 1.499 1_565 S
C99 C100 1.370 1_556 S
C99 C104 1.415 . S
C100 H89 0.930 . S
C100 C99 1.370 1_554 S
C100 C101 1.407 . S
C101 C100 1.407 . S
C101 C102 1.365 . S
C102 H90 0.930 . S
C102 C101 1.365 . S
C102 C103 1.393 1_554 S
C103 C102 1.393 1_556 S
C103 C104 1.387 . S
C104 H91 0.930 . S
C104 C99 1.415 . S
C104 C103 1.387 . S
H105 C113 0.930 . S
H106 C116 0.930 . S
H107 C118 0.930 . S
H108 C119 0.970 . S
H109 C119 0.970 . S
H110 C121 0.930 . S
H111 C123 0.930 . S
H112 C125 0.930 . S
C113 H105 0.930 . S
C113 C114 1.382 . S
C113 C115 1.426 . S
C114 C113 1.382 . S
C114 C118 1.389 . S
C115 C113 1.426 . S
C115 C116 1.375 . S
C115 C119 1.532 . S
C116 H106 0.930 . S
C116 C115 1.375 . S
C116 C117 1.416 . S
C117 C116 1.416 . S
C117 C118 1.371 . S
C118 H107 0.930 . S
C118 C114 1.389 . S
C118 C117 1.371 . S
C119 H108 0.970 . S
C119 H109 0.970 . S
C119 C115 1.532 . S
C119 C120 1.499 . S
C120 C119 1.499 . S
C120 C121 1.370 . S
C120 C125 1.415 . S
C121 H110 0.930 . S
C121 C120 1.370 . S
C121 C122 1.407 . S
C122 C121 1.407 . S
C122 C123 1.365 . S
C123 H111 0.930 . S
C123 C122 1.365 . S
C123 C124 1.393 . S
C124 C123 1.393 . S
C124 C125 1.387 . S
C125 H112 0.930 . S
C125 C120 1.415 . S
C125 C124 1.387 . S
In126 O127 2.294 . S
In126 O128 2.326 . S
In126 O132 2.266 . S
In126 O133 2.326 . S
In126 O134 2.266 . S
In126 O135 2.326 . S
In126 O137 2.294 . S
In126 O138 2.326 . S
O127 In126 2.294 . S
O127 C136 1.240 . S
O128 In126 2.326 . S
O128 C136 1.252 . S
C129 O132 1.252 . S
C129 O133 1.260 . S
C130 O137 1.240 . S
C130 O138 1.252 . S
C131 O134 1.252 . S
C131 O135 1.260 . S
O132 In126 2.266 . S
O132 C129 1.252 . S
O133 In126 2.326 . S
O133 C129 1.260 . S
O134 In126 2.266 . S
O134 C131 1.252 . S
O135 In126 2.326 . S
O135 C131 1.260 . S
C136 O127 1.240 . S
C136 O128 1.252 . S
O137 In126 2.294 . S
O137 C130 1.240 . S
O138 In126 2.326 . S
O138 C130 1.252 . S
In139 O140 2.294 . S
In139 O141 2.326 . S
In139 O145 2.266 . S
In139 O146 2.326 . S
In139 O147 2.266 . S
In139 O148 2.326 . S
In139 O150 2.294 . S
In139 O151 2.326 . S
O140 In139 2.294 . S
O140 C149 1.240 . S
O141 In139 2.326 . S
O141 C149 1.252 . S
C142 O145 1.252 . S
C142 O146 1.260 . S
C143 O150 1.240 . S
C143 O151 1.252 . S
C144 O147 1.252 . S
C144 O148 1.260 . S
O145 In139 2.266 . S
O145 C142 1.252 . S
O146 In139 2.326 . S
O146 C142 1.260 . S
O147 In139 2.266 . S
O147 C144 1.252 . S
O148 In139 2.326 . S
O148 C144 1.260 . S
C149 O140 1.240 . S
C149 O141 1.252 . S
O150 In139 2.294 . S
O150 C143 1.240 . S
O151 In139 2.326 . S
O151 C143 1.252 . S
In152 O153 2.294 . S
In152 O154 2.326 . S
In152 O158 2.266 . S
In152 O159 2.326 . S
In152 O160 2.266 . S
In152 O161 2.326 . S
In152 O163 2.294 . S
In152 O164 2.326 . S
O153 In152 2.294 . S
O153 C162 1.240 . S
O154 In152 2.326 . S
O154 C162 1.252 . S
C155 O158 1.252 . S
C155 O159 1.260 . S
C156 O163 1.240 . S
C156 O164 1.252 . S
C157 O160 1.252 . S
C157 O161 1.260 . S
O158 In152 2.266 . S
O158 C155 1.252 . S
O159 In152 2.326 . S
O159 C155 1.260 . S
O160 In152 2.266 . S
O160 C157 1.252 . S
O161 In152 2.326 . S
O161 C157 1.260 . S
C162 O153 1.240 . S
C162 O154 1.252 . S
O163 In152 2.294 . S
O163 C156 1.240 . S
O164 In152 2.326 . S
O164 C156 1.252 . S
In165 O166 2.294 . S
In165 O167 2.326 . S
In165 O171 2.266 . S
In165 O172 2.326 . S
In165 O173 2.266 . S
In165 O174 2.326 . S
In165 O176 2.294 . S
In165 O177 2.326 . S
O166 In165 2.294 . S
O166 C175 1.240 . S
O167 In165 2.326 . S
O167 C175 1.252 . S
C168 O171 1.252 . S
C168 O172 1.260 . S
C169 O176 1.240 . S
C169 O177 1.252 . S
C170 O173 1.252 . S
C170 O174 1.260 . S
O171 In165 2.266 . S
O171 C168 1.252 . S
O172 In165 2.326 . S
O172 C168 1.260 . S
O173 In165 2.266 . S
O173 C170 1.252 . S
O174 In165 2.326 . S
O174 C170 1.260 . S
C175 O166 1.240 . S
C175 O167 1.252 . S
O176 In165 2.294 . S
O176 C169 1.240 . S
O177 In165 2.326 . S
O177 C169 1.252 . S
In178 O179 2.294 . S
In178 O180 2.326 . S
In178 O184 2.266 . S
In178 O185 2.326 . S
In178 O186 2.266 . S
In178 O187 2.326 . S
In178 O189 2.294 . S
In178 O190 2.326 . S
O179 In178 2.294 . S
O179 C188 1.240 . S
O180 In178 2.326 . S
O180 C188 1.252 . S
C181 O184 1.252 . S
C181 O185 1.260 . S
C182 O189 1.240 . S
C182 O190 1.252 . S
C183 O186 1.252 . S
C183 O187 1.260 . S
O184 In178 2.266 . S
O184 C181 1.252 . S
O185 In178 2.326 . S
O185 C181 1.260 . S
O186 In178 2.266 . S
O186 C183 1.252 . S
O187 In178 2.326 . S
O187 C183 1.260 . S
C188 O179 1.240 . S
C188 O180 1.252 . S
O189 In178 2.294 . S
O189 C182 1.240 . S
O190 In178 2.326 . S
O190 C182 1.252 . S
In191 O192 2.294 . S
In191 O193 2.326 . S
In191 O197 2.266 . S
In191 O198 2.326 . S
In191 O199 2.266 . S
In191 O200 2.326 . S
In191 O202 2.294 . S
In191 O203 2.326 . S
O192 In191 2.294 . S
O192 C201 1.240 . S
O193 In191 2.326 . S
O193 C201 1.252 . S
C194 O197 1.252 . S
C194 O198 1.260 . S
C195 O202 1.240 . S
C195 O203 1.252 . S
C196 O199 1.252 . S
C196 O200 1.260 . S
O197 In191 2.266 . S
O197 C194 1.252 . S
O198 In191 2.326 . S
O198 C194 1.260 . S
O199 In191 2.266 . S
O199 C196 1.252 . S
O200 In191 2.326 . S
O200 C196 1.260 . S
C201 O192 1.240 . S
C201 O193 1.252 . S
O202 In191 2.294 . S
O202 C195 1.240 . S
O203 In191 2.326 . S
O203 C195 1.252 . S
H204 C222 0.951 . S
H205 C224 0.951 . S
H206 C226 0.950 . S
H207 C227 0.950 . S
H208 C229 0.950 . S
H209 C232 0.950 . S
H210 C233 0.950 . S
H211 C235 0.950 . S
H212 C236 0.950 . S
H213 C237 0.951 . S
H214 C239 0.951 . S
H215 C241 0.950 . S
H216 C242 0.950 . S
H217 C244 0.950 . S
H218 C247 0.950 . S
H219 C248 0.950 . S
H220 C250 0.950 . S
H221 C251 0.950 . S
C222 H204 0.951 . S
C222 C223 1.366 . S
C222 C224 1.388 . S
C223 C222 1.366 . S
C223 C227 1.385 . S
C224 H205 0.951 . S
C224 C222 1.388 . S
C224 C225 1.366 . S
C225 C224 1.366 . S
C225 C226 1.414 . S
C225 C228 1.499 . S
C226 H206 0.950 . S
C226 C225 1.414 . S
C226 C227 1.374 . S
C227 H207 0.950 . S
C227 C223 1.385 . S
C227 C226 1.374 . S
C228 C225 1.499 . S
C228 C229 1.373 . S
C228 C230 1.389 . S
C229 H208 0.950 . S
C229 C228 1.373 . S
C229 C245 1.377 . S
C230 C228 1.389 . S
C230 C231 1.524 . S
C230 C244 1.377 . S
C231 C230 1.524 . S
C231 C232 1.397 . S
C231 C236 1.363 . S
C232 H209 0.950 . S
C232 C231 1.397 . S
C232 C233 1.334 . S
C233 H210 0.950 . S
C233 C232 1.334 . S
C233 C234 1.287 . S
C234 C233 1.287 . S
C234 C235 1.524 . S
C234 H253 0.913 . S
C235 H211 0.950 . S
C235 C234 1.524 . S
C235 C236 1.415 . S
C236 H212 0.950 . S
C236 C231 1.363 . S
C236 C235 1.415 . S
C237 H213 0.951 . S
C237 C238 1.366 . S
C237 C239 1.388 . S
C238 C237 1.366 . S
C238 C242 1.385 . S
C239 H214 0.951 . S
C239 C237 1.388 . S
C239 C240 1.366 . S
C240 C239 1.366 . S
C240 C241 1.414 . S
C240 C243 1.499 . S
C241 H215 0.950 . S
C241 C240 1.414 . S
C241 C242 1.374 . S
C242 H216 0.950 . S
C242 C238 1.385 . S
C242 C241 1.374 . S
C243 C240 1.499 . S
C243 C244 1.373 . S
C243 C245 1.389 . S
C244 H217 0.950 . S
C244 C230 1.377 . S
C244 C243 1.373 . S
C245 C229 1.377 . S
C245 C243 1.389 . S
C245 C246 1.524 . S
C246 C245 1.524 . S
C246 C247 1.397 . S
C246 C251 1.363 . S
C247 H218 0.950 . S
C247 C246 1.397 . S
C247 C248 1.334 . S
C248 H219 0.950 . S
C248 C247 1.334 . S
C248 C249 1.287 . S
C249 C248 1.287 . S
C249 C250 1.524 . S
C249 H252 0.999 . S
C250 H220 0.950 . S
C250 C249 1.524 . S
C250 C251 1.415 . S
C251 H221 0.950 . S
C251 C246 1.363 . S
C251 C250 1.415 . S
H252 C249 0.999 . S
H253 C234 0.913 . S
H254 C272 0.951 . S
H255 C274 0.951 . S
H256 C276 0.950 . S
H257 C277 0.950 . S
H258 C279 0.950 . S
H259 C282 0.950 . S
H260 C283 0.950 . S
H261 C285 0.950 . S
H262 C286 0.950 . S
H263 C287 0.951 . S
H264 C289 0.951 . S
H265 C291 0.950 . S
H266 C292 0.950 . S
H267 C294 0.950 . S
H268 C297 0.950 . S
H269 C298 0.950 . S
H270 C300 0.950 . S
H271 C301 0.950 . S
C272 H254 0.951 . S
C272 C273 1.366 . S
C272 C274 1.388 . S
C273 C272 1.366 . S
C273 C277 1.385 . S
C274 H255 0.951 . S
C274 C272 1.388 . S
C274 C275 1.366 . S
C275 C274 1.366 . S
C275 C276 1.414 . S
C275 C278 1.499 . S
C276 H256 0.950 . S
C276 C275 1.414 . S
C276 C277 1.374 . S
C277 H257 0.950 . S
C277 C273 1.385 . S
C277 C276 1.374 . S
C278 C275 1.499 . S
C278 C279 1.373 . S
C278 C280 1.389 . S
C279 H258 0.950 . S
C279 C278 1.373 . S
C279 C295 1.377 . S
C280 C278 1.389 . S
C280 C281 1.524 . S
C280 C294 1.377 . S
C281 C280 1.524 . S
C281 C282 1.397 . S
C281 C286 1.363 . S
C282 H259 0.950 . S
C282 C281 1.397 . S
C282 C283 1.334 . S
C283 H260 0.950 . S
C283 C282 1.334 . S
C283 C284 1.287 . S
C284 C283 1.287 . S
C284 C285 1.524 . S
C284 H303 0.913 . S
C285 H261 0.950 . S
C285 C284 1.524 . S
C285 C286 1.415 . S
C286 H262 0.950 . S
C286 C281 1.363 . S
C286 C285 1.415 . S
C287 H263 0.951 . S
C287 C288 1.366 . S
C287 C289 1.388 . S
C288 C287 1.366 . S
C288 C292 1.385 . S
C289 H264 0.951 . S
C289 C287 1.388 . S
C289 C290 1.366 . S
C290 C289 1.366 . S
C290 C291 1.414 . S
C290 C293 1.499 . S
C291 H265 0.950 . S
C291 C290 1.414 . S
C291 C292 1.374 . S
C292 H266 0.950 . S
C292 C288 1.385 . S
C292 C291 1.374 . S
C293 C290 1.499 . S
C293 C294 1.373 . S
C293 C295 1.389 . S
C294 H267 0.950 . S
C294 C280 1.377 . S
C294 C293 1.373 . S
C295 C279 1.377 . S
C295 C293 1.389 . S
C295 C296 1.524 . S
C296 C295 1.524 . S
C296 C297 1.397 . S
C296 C301 1.363 . S
C297 H268 0.950 . S
C297 C296 1.397 . S
C297 C298 1.334 . S
C298 H269 0.950 . S
C298 C297 1.334 . S
C298 C299 1.287 . S
C299 C298 1.287 . S
C299 C300 1.524 . S
C299 H302 0.999 . S
C300 H270 0.950 . S
C300 C299 1.524 . S
C300 C301 1.415 . S
C301 H271 0.950 . S
C301 C296 1.363 . S
C301 C300 1.415 . S
H302 C299 0.999 . S
H303 C284 0.913 . S
H304 C322 0.951 . S
H305 C324 0.951 . S
H306 C326 0.950 . S
H307 C327 0.950 . S
H308 C329 0.950 . S
H309 C332 0.950 . S
H310 C333 0.950 . S
H311 C335 0.950 . S
H312 C336 0.950 . S
H313 C337 0.951 . S
H314 C339 0.951 . S
H315 C341 0.950 . S
H316 C342 0.950 . S
H317 C344 0.950 . S
H318 C347 0.950 . S
H319 C348 0.950 . S
H320 C350 0.950 . S
H321 C351 0.950 . S
C322 H304 0.951 . S
C322 C323 1.366 . S
C322 C324 1.388 . S
C323 C322 1.366 . S
C323 C327 1.385 . S
C324 H305 0.951 . S
C324 C322 1.388 . S
C324 C325 1.366 . S
C325 C324 1.366 . S
C325 C326 1.414 . S
C325 C328 1.499 . S
C326 H306 0.950 . S
C326 C325 1.414 . S
C326 C327 1.374 . S
C327 H307 0.950 . S
C327 C323 1.385 . S
C327 C326 1.374 . S
C328 C325 1.499 . S
C328 C329 1.373 . S
C328 C330 1.389 . S
C329 H308 0.950 . S
C329 C328 1.373 . S
C329 C345 1.377 . S
C330 C328 1.389 . S
C330 C331 1.524 . S
C330 C344 1.377 . S
C331 C330 1.524 . S
C331 C332 1.397 . S
C331 C336 1.363 . S
C332 H309 0.950 . S
C332 C331 1.397 . S
C332 C333 1.334 . S
C333 H310 0.950 . S
C333 C332 1.334 . S
C333 C334 1.287 . S
C334 C333 1.287 . S
C334 C335 1.524 . S
C334 H353 0.913 . S
C335 H311 0.950 . S
C335 C334 1.524 . S
C335 C336 1.415 . S
C336 H312 0.950 . S
C336 C331 1.363 . S
C336 C335 1.415 . S
C337 H313 0.951 . S
C337 C338 1.366 . S
C337 C339 1.388 . S
C338 C337 1.366 . S
C338 C342 1.385 . S
C339 H314 0.951 . S
C339 C337 1.388 . S
C339 C340 1.366 . S
C340 C339 1.366 . S
C340 C341 1.414 . S
C340 C343 1.499 . S
C341 H315 0.950 . S
C341 C340 1.414 . S
C341 C342 1.374 . S
C342 H316 0.950 . S
C342 C338 1.385 . S
C342 C341 1.374 . S
C343 C340 1.499 . S
C343 C344 1.373 . S
C343 C345 1.389 . S
C344 H317 0.950 . S
C344 C330 1.377 . S
C344 C343 1.373 . S
C345 C329 1.377 . S
C345 C343 1.389 . S
C345 C346 1.524 . S
C346 C345 1.524 . S
C346 C347 1.397 . S
C346 C351 1.363 . S
C347 H318 0.950 . S
C347 C346 1.397 . S
C347 C348 1.334 . S
C348 H319 0.950 . S
C348 C347 1.334 . S
C348 C349 1.287 . S
C349 C348 1.287 . S
C349 C350 1.524 . S
C349 H352 0.999 . S
C350 H320 0.950 . S
C350 C349 1.524 . S
C350 C351 1.415 . S
C351 H321 0.950 . S
C351 C346 1.363 . S
C351 C350 1.415 . S
H352 C349 0.999 . S
H353 C334 0.913 . S
H354 C372 0.951 . S
H355 C374 0.951 . S
H356 C376 0.950 . S
H357 C377 0.950 . S
H358 C379 0.950 . S
H359 C382 0.950 . S
H360 C383 0.950 . S
H361 C385 0.950 . S
H362 C386 0.950 . S
H363 C387 0.951 . S
H364 C389 0.951 . S
H365 C391 0.950 . S
H366 C392 0.950 . S
H367 C394 0.950 . S
H368 C397 0.950 . S
H369 C398 0.950 . S
H370 C400 0.950 . S
H371 C401 0.950 . S
C372 H354 0.951 . S
C372 C373 1.366 . S
C372 C374 1.388 . S
C373 C372 1.366 . S
C373 C377 1.385 . S
C374 H355 0.951 . S
C374 C372 1.388 . S
C374 C375 1.366 . S
C375 C374 1.366 . S
C375 C376 1.414 . S
C375 C378 1.499 . S
C376 H356 0.950 . S
C376 C375 1.414 . S
C376 C377 1.374 . S
C377 H357 0.950 . S
C377 C373 1.385 . S
C377 C376 1.374 . S
C378 C375 1.499 . S
C378 C379 1.373 . S
C378 C380 1.389 . S
C379 H358 0.950 . S
C379 C378 1.373 . S
C379 C395 1.377 . S
C380 C378 1.389 . S
C380 C381 1.524 . S
C380 C394 1.377 . S
C381 C380 1.524 . S
C381 C382 1.397 . S
C381 C386 1.363 . S
C382 H359 0.950 . S
C382 C381 1.397 . S
C382 C383 1.334 . S
C383 H360 0.950 . S
C383 C382 1.334 . S
C383 C384 1.287 . S
C384 C383 1.287 . S
C384 C385 1.524 . S
C384 H403 0.913 . S
C385 H361 0.950 . S
C385 C384 1.524 . S
C385 C386 1.415 . S
C386 H362 0.950 . S
C386 C381 1.363 . S
C386 C385 1.415 . S
C387 H363 0.951 . S
C387 C388 1.366 . S
C387 C389 1.388 . S
C388 C387 1.366 . S
C388 C392 1.385 . S
C389 H364 0.951 . S
C389 C387 1.388 . S
C389 C390 1.366 . S
C390 C389 1.366 . S
C390 C391 1.414 . S
C390 C393 1.499 . S
C391 H365 0.950 . S
C391 C390 1.414 . S
C391 C392 1.374 . S
C392 H366 0.950 . S
C392 C388 1.385 . S
C392 C391 1.374 . S
C393 C390 1.499 . S
C393 C394 1.373 . S
C393 C395 1.389 . S
C394 H367 0.950 . S
C394 C380 1.377 . S
C394 C393 1.373 . S
C395 C379 1.377 . S
C395 C393 1.389 . S
C395 C396 1.524 . S
C396 C395 1.524 . S
C396 C397 1.397 . S
C396 C401 1.363 . S
C397 H368 0.950 . S
C397 C396 1.397 . S
C397 C398 1.334 . S
C398 H369 0.950 . S
C398 C397 1.334 . S
C398 C399 1.287 . S
C399 C398 1.287 . S
C399 C400 1.524 . S
C399 H402 0.999 . S
C400 H370 0.950 . S
C400 C399 1.524 . S
C400 C401 1.415 . S
C401 H371 0.950 . S
C401 C396 1.363 . S
C401 C400 1.415 . S
H402 C399 0.999 . S
H403 C384 0.913 . S
H404 C422 0.951 . S
H405 C424 0.951 . S
H406 C426 0.950 . S
H407 C427 0.973 . S
H408 C429 0.950 . S
H409 C432 0.950 . S
H410 C433 0.950 . S
H411 C435 0.950 . S
H412 C436 0.950 . S
H413 C437 0.951 . S
H414 C439 0.951 . S
H415 C441 0.950 . S
H416 C442 0.950 . S
H417 C444 0.950 . S
H418 C447 0.950 . S
H419 C448 0.950 . S
H420 C450 0.950 . S
H421 C451 0.950 . S
C422 H404 0.951 . S
C422 C423 1.366 . S
C422 C424 1.388 . S
C423 C422 1.366 . S
C423 C427 1.385 . S
C424 H405 0.951 . S
C424 C422 1.388 . S
C424 C425 1.366 . S
C425 C424 1.366 . S
C425 C426 1.414 . S
C425 C428 1.499 . S
C426 H406 0.950 . S
C426 C425 1.414 . S
C426 C427 1.374 . S
C427 H407 0.973 . S
C427 C423 1.385 . S
C427 C426 1.374 . S
C428 C425 1.499 . S
C428 C429 1.373 . S
C428 C430 1.389 . S
C429 H408 0.950 . S
C429 C428 1.373 . S
C429 C445 1.377 . S
C430 C428 1.389 . S
C430 C431 1.524 . S
C430 C444 1.377 . S
C431 C430 1.524 . S
C431 C432 1.397 . S
C431 C436 1.363 . S
C432 H409 0.950 . S
C432 C431 1.397 . S
C432 C433 1.334 . S
C433 H410 0.950 . S
C433 C432 1.334 . S
C433 C434 1.287 . S
C434 C433 1.287 . S
C434 C435 1.524 . S
C434 H453 0.913 . S
C435 H411 0.950 . S
C435 C434 1.524 . S
C435 C436 1.415 . S
C436 H412 0.950 . S
C436 C431 1.363 . S
C436 C435 1.415 . S
C437 H413 0.951 . S
C437 C438 1.366 . S
C437 C439 1.388 . S
C438 C437 1.366 . S
C438 C442 1.385 . S
C439 H414 0.951 . S
C439 C437 1.388 . S
C439 C440 1.366 . S
C440 C439 1.366 . S
C440 C441 1.414 . S
C440 C443 1.499 . S
C441 H415 0.950 . S
C441 C440 1.414 . S
C441 C442 1.374 . S
C442 H416 0.950 . S
C442 C438 1.385 . S
C442 C441 1.374 . S
C443 C440 1.499 . S
C443 C444 1.373 . S
C443 C445 1.389 . S
C444 H417 0.950 . S
C444 C430 1.377 . S
C444 C443 1.373 . S
C445 C429 1.377 . S
C445 C443 1.389 . S
C445 C446 1.524 . S
C446 C445 1.524 . S
C446 C447 1.397 . S
C446 C451 1.363 1_556 S
C447 H418 0.950 . S
C447 C446 1.397 . S
C447 C448 1.334 . S
C448 H419 0.950 . S
C448 C447 1.334 . S
C448 C449 1.287 1_556 S
C449 C448 1.287 1_554 S
C449 C450 1.524 . S
C449 H452 0.999 . S
C450 H420 0.950 . S
C450 C449 1.524 . S
C450 C451 1.415 . S
C451 H421 0.950 . S
C451 C446 1.363 1_554 S
C451 C450 1.415 . S
H452 C449 0.999 . S
H453 C434 0.913 . S
H454 C472 0.951 . S
H455 C474 0.951 . S
H456 C476 0.950 . S
H457 C477 0.950 . S
H458 C479 0.950 . S
H459 C482 0.950 . S
H460 C483 0.950 . S
H461 C485 0.950 . S
H462 C486 0.950 . S
H463 C487 0.951 . S
H464 C489 0.951 . S
H465 C491 0.950 . S
H466 C492 0.950 . S
H467 C494 0.950 . S
H468 C497 0.950 . S
H469 C498 0.950 . S
H470 C500 0.950 . S
H471 C501 0.950 . S
C472 H454 0.951 . S
C472 C473 1.366 . S
C472 C474 1.388 . S
C473 C472 1.366 . S
C473 C477 1.385 . S
C474 H455 0.951 . S
C474 C472 1.388 . S
C474 C475 1.366 . S
C475 C474 1.366 . S
C475 C476 1.414 . S
C475 C478 1.499 . S
C476 H456 0.950 . S
C476 C475 1.414 . S
C476 C477 1.374 . S
C477 H457 0.950 . S
C477 C473 1.385 . S
C477 C476 1.374 . S
C478 C475 1.499 . S
C478 C479 1.373 . S
C478 C480 1.389 . S
C479 H458 0.950 . S
C479 C478 1.373 . S
C479 C495 1.377 . S
C480 C478 1.389 . S
C480 C481 1.524 . S
C480 C494 1.377 . S
C481 C480 1.524 . S
C481 C482 1.397 . S
C481 C486 1.363 . S
C482 H459 0.950 . S
C482 C481 1.397 . S
C482 C483 1.334 . S
C483 H460 0.950 . S
C483 C482 1.334 . S
C483 C484 1.287 . S
C484 C483 1.287 . S
C484 C485 1.524 . S
C484 H503 0.913 . S
C485 H461 0.950 . S
C485 C484 1.524 . S
C485 C486 1.415 . S
C486 H462 0.950 . S
C486 C481 1.363 . S
C486 C485 1.415 . S
C487 H463 0.951 . S
C487 C488 1.366 . S
C487 C489 1.388 . S
C488 C487 1.366 . S
C488 C492 1.385 . S
C489 H464 0.951 . S
C489 C487 1.388 . S
C489 C490 1.366 . S
C490 C489 1.366 . S
C490 C491 1.414 . S
C490 C493 1.499 . S
C491 H465 0.950 . S
C491 C490 1.414 . S
C491 C492 1.374 . S
C492 H466 0.950 . S
C492 C488 1.385 . S
C492 C491 1.374 . S
C493 C490 1.499 . S
C493 C494 1.373 . S
C493 C495 1.389 . S
C494 H467 0.950 . S
C494 C480 1.377 . S
C494 C493 1.373 . S
C495 C479 1.377 . S
C495 C493 1.389 . S
C495 C496 1.524 . S
C496 C495 1.524 . S
C496 C497 1.397 . S
C496 C501 1.363 . S
C497 H468 0.950 . S
C497 C496 1.397 . S
C497 C498 1.334 . S
C498 H469 0.950 . S
C498 C497 1.334 . S
C498 C499 1.287 . S
C499 C498 1.287 . S
C499 C500 1.524 . S
C499 H502 0.999 . S
C500 H470 0.950 . S
C500 C499 1.524 . S
C500 C501 1.415 . S
C501 H471 0.950 . S
C501 C496 1.363 . S
C501 C500 1.415 . S
H502 C499 0.999 . S
H503 C484 0.913 . S
H504 C522 0.951 . S
H505 C524 0.951 . S
H506 C526 0.950 . S
H507 C527 0.950 . S
H508 C529 0.950 . S
H509 C532 0.950 . S
H510 C533 0.950 . S
H511 C535 0.950 . S
H512 C536 0.950 . S
H513 C537 0.951 . S
H514 C539 0.951 . S
H515 C541 0.950 . S
H516 C542 0.950 . S
H517 C544 0.950 . S
H518 C547 0.950 . S
H519 C548 0.950 . S
H520 C550 0.950 . S
H521 C551 0.950 . S
C522 H504 0.951 . S
C522 C523 1.366 . S
C522 C524 1.388 . S
C523 C522 1.366 . S
C523 C527 1.385 . S
C524 H505 0.951 . S
C524 C522 1.388 . S
C524 C525 1.366 . S
C525 C524 1.366 . S
C525 C526 1.414 . S
C525 C528 1.499 . S
C526 H506 0.950 . S
C526 C525 1.414 . S
C526 C527 1.374 . S
C527 H507 0.950 . S
C527 C523 1.385 . S
C527 C526 1.374 . S
C528 C525 1.499 . S
C528 C529 1.373 . S
C528 C530 1.389 . S
C529 H508 0.950 . S
C529 C528 1.373 . S
C529 C545 1.377 . S
C530 C528 1.389 . S
C530 C531 1.524 . S
C530 C544 1.377 . S
C531 C530 1.524 . S
C531 C532 1.397 . S
C531 C536 1.363 . S
C532 H509 0.950 . S
C532 C531 1.397 . S
C532 C533 1.334 . S
C533 H510 0.950 . S
C533 C532 1.334 . S
C533 C534 1.287 . S
C534 C533 1.287 . S
C534 C535 1.524 . S
C534 H553 0.913 . S
C535 H511 0.950 . S
C535 C534 1.524 . S
C535 C536 1.415 . S
C536 H512 0.950 . S
C536 C531 1.363 . S
C536 C535 1.415 . S
C537 H513 0.951 . S
C537 C538 1.366 . S
C537 C539 1.388 . S
C538 C537 1.366 . S
C538 C542 1.385 . S
C539 H514 0.951 . S
C539 C537 1.388 . S
C539 C540 1.366 . S
C540 C539 1.366 . S
C540 C541 1.414 . S
C540 C543 1.499 . S
C541 H515 0.950 . S
C541 C540 1.414 . S
C541 C542 1.374 . S
C542 H516 0.950 . S
C542 C538 1.385 . S
C542 C541 1.374 . S
C543 C540 1.499 . S
C543 C544 1.373 . S
C543 C545 1.389 . S
C544 H517 0.950 . S
C544 C530 1.377 . S
C544 C543 1.373 . S
C545 C529 1.377 . S
C545 C543 1.389 . S
C545 C546 1.524 . S
C546 C545 1.524 . S
C546 C547 1.397 . S
C546 C551 1.363 . S
C547 H518 0.950 . S
C547 C546 1.397 . S
C547 C548 1.334 . S
C548 H519 0.950 . S
C548 C547 1.334 . S
C548 C549 1.287 . S
C549 C548 1.287 . S
C549 C550 1.524 . S
C549 H552 0.999 . S
C550 H520 0.950 . S
C550 C549 1.524 . S
C550 C551 1.415 . S
C551 H521 0.950 . S
C551 C546 1.363 . S
C551 C550 1.415 . S
H552 C549 0.999 . S
H553 C534 0.913 . S
H554 C572 0.951 . S
H555 C574 0.951 . S
H556 C576 0.950 . S
H557 C577 0.950 . S
H558 C579 0.950 . S
H559 C582 0.950 . S
H560 C583 0.950 . S
H561 C585 0.950 . S
H562 C586 0.950 . S
H563 C587 0.951 . S
H564 C589 0.951 . S
H565 C591 0.950 . S
H566 C592 0.950 . S
H567 C594 0.950 . S
H568 C597 0.950 . S
H569 C598 0.950 . S
H570 C600 0.950 . S
H571 C601 0.950 . S
C572 H554 0.951 . S
C572 C573 1.366 . S
C572 C574 1.388 . S
C573 C572 1.366 . S
C573 C577 1.385 . S
C574 H555 0.951 . S
C574 C572 1.388 . S
C574 C575 1.366 . S
C575 C574 1.366 . S
C575 C576 1.414 . S
C575 C578 1.499 . S
C576 H556 0.950 . S
C576 C575 1.414 . S
C576 C577 1.374 . S
C577 H557 0.950 . S
C577 C573 1.385 . S
C577 C576 1.374 . S
C578 C575 1.499 . S
C578 C579 1.373 . S
C578 C580 1.389 . S
C579 H558 0.950 . S
C579 C578 1.373 . S
C579 C595 1.377 . S
C580 C578 1.389 . S
C580 C581 1.524 . S
C580 C594 1.377 . S
C581 C580 1.524 . S
C581 C582 1.397 . S
C581 C586 1.363 . S
C582 H559 0.950 . S
C582 C581 1.397 . S
C582 C583 1.334 . S
C583 H560 0.950 . S
C583 C582 1.334 . S
C583 C584 1.287 . S
C584 C583 1.287 . S
C584 C585 1.524 . S
C584 H603 0.913 . S
C585 H561 0.950 . S
C585 C584 1.524 . S
C585 C586 1.415 . S
C586 H562 0.950 . S
C586 C581 1.363 . S
C586 C585 1.415 . S
C587 H563 0.951 . S
C587 C588 1.366 . S
C587 C589 1.388 . S
C588 C587 1.366 . S
C588 C592 1.385 . S
C589 H564 0.951 . S
C589 C587 1.388 . S
C589 C590 1.366 . S
C590 C589 1.366 . S
C590 C591 1.414 . S
C590 C593 1.499 . S
C591 H565 0.950 . S
C591 C590 1.414 . S
C591 C592 1.374 . S
C592 H566 0.950 . S
C592 C588 1.385 . S
C592 C591 1.374 . S
C593 C590 1.499 . S
C593 C594 1.373 . S
C593 C595 1.389 . S
C594 H567 0.950 . S
C594 C580 1.377 . S
C594 C593 1.373 . S
C595 C579 1.377 . S
C595 C593 1.389 . S
C595 C596 1.524 . S
C596 C595 1.524 . S
C596 C597 1.397 . S
C596 C601 1.363 . S
C597 H568 0.950 . S
C597 C596 1.397 . S
C597 C598 1.334 . S
C598 H569 0.950 . S
C598 C597 1.334 . S
C598 C599 1.287 . S
C599 C598 1.287 . S
C599 C600 1.524 . S
C599 H602 0.999 . S
C600 H570 0.950 . S
C600 C599 1.524 . S
C600 C601 1.415 . S
C601 H571 0.950 . S
C601 C596 1.363 . S
C601 C600 1.415 . S
H602 C599 0.999 . S
H603 C584 0.913 . S
H604 C622 0.951 . S
H605 C624 0.951 . S
H606 C626 0.950 . S
H607 C627 0.950 . S
H608 C629 0.950 . S
H609 C632 0.950 . S
H610 C633 0.950 . S
H611 C635 0.950 . S
H612 C636 0.950 . S
H613 C637 0.951 . S
H614 C639 0.951 . S
H615 C641 0.950 . S
H616 C642 0.950 . S
H617 C644 0.950 . S
H618 C647 0.950 . S
H619 C648 0.950 . S
H620 C650 0.950 . S
H621 C651 0.950 . S
C622 H604 0.951 . S
C622 C623 1.366 . S
C622 C624 1.388 . S
C623 C622 1.366 . S
C623 C627 1.385 . S
C624 H605 0.951 . S
C624 C622 1.388 . S
C624 C625 1.366 . S
C625 C624 1.366 . S
C625 C626 1.414 . S
C625 C628 1.499 . S
C626 H606 0.950 . S
C626 C625 1.414 . S
C626 C627 1.374 . S
C627 H607 0.950 . S
C627 C623 1.385 . S
C627 C626 1.374 . S
C628 C625 1.499 . S
C628 C629 1.373 . S
C628 C630 1.389 . S
C629 H608 0.950 . S
C629 C628 1.373 . S
C629 C645 1.377 . S
C630 C628 1.389 . S
C630 C631 1.524 . S
C630 C644 1.377 . S
C631 C630 1.524 . S
C631 C632 1.397 . S
C631 C636 1.363 . S
C632 H609 0.950 . S
C632 C631 1.397 . S
C632 C633 1.334 . S
C633 H610 0.950 . S
C633 C632 1.334 . S
C633 C634 1.287 . S
C634 C633 1.287 . S
C634 C635 1.524 . S
C634 H653 0.913 . S
C635 H611 0.950 . S
C635 C634 1.524 . S
C635 C636 1.415 . S
C636 H612 0.950 . S
C636 C631 1.363 . S
C636 C635 1.415 . S
C637 H613 0.951 . S
C637 C638 1.366 . S
C637 C639 1.388 . S
C638 C637 1.366 . S
C638 C642 1.385 . S
C639 H614 0.951 . S
C639 C637 1.388 . S
C639 C640 1.366 . S
C640 C639 1.366 . S
C640 C641 1.414 . S
C640 C643 1.499 . S
C641 H615 0.950 . S
C641 C640 1.414 . S
C641 C642 1.374 . S
C642 H616 0.950 . S
C642 C638 1.385 . S
C642 C641 1.374 . S
C643 C640 1.499 . S
C643 C644 1.373 . S
C643 C645 1.389 . S
C644 H617 0.950 . S
C644 C630 1.377 . S
C644 C643 1.373 . S
C645 C629 1.377 . S
C645 C643 1.389 . S
C645 C646 1.524 . S
C646 C645 1.524 . S
C646 C647 1.397 . S
C646 C651 1.363 . S
C647 H618 0.950 . S
C647 C646 1.397 . S
C647 C648 1.334 . S
C648 H619 0.950 . S
C648 C647 1.334 . S
C648 C649 1.287 . S
C649 C648 1.287 . S
C649 C650 1.524 . S
C649 H652 0.999 . S
C650 H620 0.950 . S
C650 C649 1.524 . S
C650 C651 1.415 . S
C651 H621 0.950 . S
C651 C646 1.363 . S
C651 C650 1.415 . S
H652 C649 0.999 . S
H653 C634 0.913 . S
H654 C672 0.951 . S
H655 C674 0.951 . S
H656 C676 0.950 . S
H657 C677 0.950 . S
H658 C679 0.950 . S
H659 C682 0.950 1_554 S
H660 C683 0.950 . S
H661 C685 0.950 . S
H662 C686 0.950 . S
H663 C687 0.951 . S
H664 C689 0.951 . S
H665 C691 0.950 . S
H666 C692 0.950 . S
H667 C694 0.950 . S
H668 C697 0.950 . S
H669 C698 0.950 . S
H670 C700 0.950 . S
H671 C701 0.950 . S
C672 H654 0.951 . S
C672 C673 1.366 1_556 S
C672 C674 1.388 . S
C673 C672 1.366 1_554 S
C673 C677 1.385 . S
C674 H655 0.951 . S
C674 C672 1.388 . S
C674 C675 1.366 1_556 S
C675 C674 1.366 1_554 S
C675 C676 1.414 . S
C675 C678 1.499 . S
C676 H656 0.950 . S
C676 C675 1.414 . S
C676 C677 1.374 . S
C677 H657 0.950 . S
C677 C673 1.385 . S
C677 C676 1.374 . S
C678 C675 1.499 . S
C678 C679 1.373 . S
C678 C680 1.389 . S
C679 H658 0.950 . S
C679 C678 1.373 . S
C679 C695 1.377 . S
C680 C678 1.389 . S
C680 C681 1.524 1_554 S
C680 C694 1.377 . S
C681 C680 1.524 1_556 S
C681 C682 1.397 . S
C681 C686 1.363 . S
C682 H659 0.950 1_556 S
C682 C681 1.397 . S
C682 C683 1.334 . S
C683 H660 0.950 . S
C683 C682 1.334 . S
C683 C684 1.287 . S
C684 C683 1.287 . S
C684 C685 1.524 . S
C684 H703 0.913 . S
C685 H661 0.950 . S
C685 C684 1.524 . S
C685 C686 1.415 . S
C686 H662 0.950 . S
C686 C681 1.363 . S
C686 C685 1.415 . S
C687 H663 0.951 . S
C687 C688 1.366 . S
C687 C689 1.388 . S
C688 C687 1.366 . S
C688 C692 1.385 . S
C689 H664 0.951 . S
C689 C687 1.388 . S
C689 C690 1.366 . S
C690 C689 1.366 . S
C690 C691 1.414 . S
C690 C693 1.499 . S
C691 H665 0.950 . S
C691 C690 1.414 . S
C691 C692 1.374 . S
C692 H666 0.950 . S
C692 C688 1.385 . S
C692 C691 1.374 . S
C693 C690 1.499 . S
C693 C694 1.373 . S
C693 C695 1.389 . S
C694 H667 0.950 . S
C694 C680 1.377 . S
C694 C693 1.373 . S
C695 C679 1.377 . S
C695 C693 1.389 . S
C695 C696 1.524 . S
C696 C695 1.524 . S
C696 C697 1.397 . S
C696 C701 1.363 . S
C697 H668 0.950 . S
C697 C696 1.397 . S
C697 C698 1.334 . S
C698 H669 0.950 . S
C698 C697 1.334 . S
C698 C699 1.287 . S
C699 C698 1.287 . S
C699 C700 1.524 . S
C699 H702 0.999 . S
C700 H670 0.950 . S
C700 C699 1.524 . S
C700 C701 1.415 . S
C701 H671 0.950 . S
C701 C696 1.363 . S
C701 C700 1.415 . S
H702 C699 0.999 . S
H703 C684 0.913 . S
H704 C722 0.951 . S
H705 C724 0.951 . S
H706 C726 0.950 . S
H707 C727 0.950 . S
H708 C729 0.950 . S
H709 C732 0.950 . S
H710 C733 0.950 . S
H711 C735 0.950 . S
H712 C736 0.950 . S
H713 C737 0.951 . S
H714 C739 0.951 . S
H715 C741 0.950 . S
H716 C742 0.950 . S
H717 C744 0.950 . S
H718 C747 0.950 . S
H719 C748 0.950 . S
H720 C750 0.950 . S
H721 C751 0.950 . S
C722 H704 0.951 . S
C722 C723 1.366 . S
C722 C724 1.388 . S
C723 C722 1.366 . S
C723 C727 1.385 . S
C724 H705 0.951 . S
C724 C722 1.388 . S
C724 C725 1.366 . S
C725 C724 1.366 . S
C725 C726 1.414 . S
C725 C728 1.499 . S
C726 H706 0.950 . S
C726 C725 1.414 . S
C726 C727 1.374 . S
C727 H707 0.950 . S
C727 C723 1.385 . S
C727 C726 1.374 . S
C728 C725 1.499 . S
C728 C729 1.373 . S
C728 C730 1.389 . S
C729 H708 0.950 . S
C729 C728 1.373 . S
C729 C745 1.377 . S
C730 C728 1.389 . S
C730 C731 1.524 . S
C730 C744 1.377 . S
C731 C730 1.524 . S
C731 C732 1.397 . S
C731 C736 1.363 . S
C732 H709 0.950 . S
C732 C731 1.397 . S
C732 C733 1.334 . S
C733 H710 0.950 . S
C733 C732 1.334 . S
C733 C734 1.287 . S
C734 C733 1.287 . S
C734 C735 1.524 . S
C734 H753 0.913 . S
C735 H711 0.950 . S
C735 C734 1.524 . S
C735 C736 1.415 . S
C736 H712 0.950 . S
C736 C731 1.363 . S
C736 C735 1.415 . S
C737 H713 0.951 . S
C737 C738 1.366 . S
C737 C739 1.388 . S
C738 C737 1.366 . S
C738 C742 1.385 . S
C739 H714 0.951 . S
C739 C737 1.388 . S
C739 C740 1.366 . S
C740 C739 1.366 . S
C740 C741 1.414 . S
C740 C743 1.499 . S
C741 H715 0.950 . S
C741 C740 1.414 . S
C741 C742 1.374 . S
C742 H716 0.950 . S
C742 C738 1.385 . S
C742 C741 1.374 . S
C743 C740 1.499 . S
C743 C744 1.373 . S
C743 C745 1.389 . S
C744 H717 0.950 . S
C744 C730 1.377 . S
C744 C743 1.373 . S
C745 C729 1.377 . S
C745 C743 1.389 . S
C745 C746 1.524 . S
C746 C745 1.524 . S
C746 C747 1.397 . S
C746 C751 1.363 . S
C747 H718 0.950 . S
C747 C746 1.397 . S
C747 C748 1.334 . S
C748 H719 0.950 . S
C748 C747 1.334 . S
C748 C749 1.287 . S
C749 C748 1.287 . S
C749 C750 1.524 . S
C749 H752 0.999 . S
C750 H720 0.950 . S
C750 C749 1.524 . S
C750 C751 1.415 . S
C751 H721 0.950 . S
C751 C746 1.363 . S
C751 C750 1.415 . S
H752 C749 0.999 . S
H753 C734 0.913 . S
H754 C772 0.951 . S
H755 C774 0.951 . S
H756 C776 0.950 . S
H757 C777 0.950 . S
H758 C779 0.950 . S
H759 C782 0.950 . S
H760 C783 0.950 . S
H761 C785 0.950 . S
H762 C786 0.950 . S
H763 C787 0.951 . S
H764 C789 0.951 . S
H765 C791 0.950 . S
H766 C792 0.950 . S
H767 C794 0.950 . S
H768 C797 0.950 . S
H769 C798 0.950 . S
H770 C800 0.950 . S
H771 C801 0.950 . S
C772 H754 0.951 . S
C772 C773 1.366 . S
C772 C774 1.388 . S
C773 C772 1.366 . S
C773 C777 1.385 . S
C774 H755 0.951 . S
C774 C772 1.388 . S
C774 C775 1.366 . S
C775 C774 1.366 . S
C775 C776 1.414 . S
C775 C778 1.499 . S
C776 H756 0.950 . S
C776 C775 1.414 . S
C776 C777 1.374 . S
C777 H757 0.950 . S
C777 C773 1.385 . S
C777 C776 1.374 . S
C778 C775 1.499 . S
C778 C779 1.373 . S
C778 C780 1.389 . S
C779 H758 0.950 . S
C779 C778 1.373 . S
C779 C795 1.377 . S
C780 C778 1.389 . S
C780 C781 1.524 . S
C780 C794 1.377 . S
C781 C780 1.524 . S
C781 C782 1.397 . S
C781 C786 1.363 . S
C782 H759 0.950 . S
C782 C781 1.397 . S
C782 C783 1.334 . S
C783 H760 0.950 . S
C783 C782 1.334 . S
C783 C784 1.287 . S
C784 C783 1.287 . S
C784 C785 1.524 . S
C784 H803 0.913 . S
C785 H761 0.950 . S
C785 C784 1.524 . S
C785 C786 1.415 . S
C786 H762 0.950 . S
C786 C781 1.363 . S
C786 C785 1.415 . S
C787 H763 0.951 . S
C787 C788 1.366 . S
C787 C789 1.388 . S
C788 C787 1.366 . S
C788 C792 1.385 . S
C789 H764 0.951 . S
C789 C787 1.388 . S
C789 C790 1.366 . S
C790 C789 1.366 . S
C790 C791 1.414 . S
C790 C793 1.499 . S
C791 H765 0.950 . S
C791 C790 1.414 . S
C791 C792 1.374 . S
C792 H766 0.950 . S
C792 C788 1.385 . S
C792 C791 1.374 . S
C793 C790 1.499 . S
C793 C794 1.373 . S
C793 C795 1.389 . S
C794 H767 0.950 . S
C794 C780 1.377 . S
C794 C793 1.373 . S
C795 C779 1.377 . S
C795 C793 1.389 . S
C795 C796 1.524 . S
C796 C795 1.524 . S
C796 C797 1.397 . S
C796 C801 1.363 . S
C797 H768 0.950 . S
C797 C796 1.397 . S
C797 C798 1.334 . S
C798 H769 0.950 . S
C798 C797 1.334 . S
C798 C799 1.287 . S
C799 C798 1.287 . S
C799 C800 1.524 . S
C799 H802 0.999 . S
C800 H770 0.950 . S
C800 C799 1.524 . S
C800 C801 1.415 . S
C801 H771 0.950 . S
C801 C796 1.363 . S
C801 C800 1.415 . S
H802 C799 0.999 . S
H803 C784 0.913 . S
H804 C822 0.951 . S
H805 C824 0.951 . S
H806 C826 0.950 . S
H807 C827 0.950 . S
H808 C829 0.950 . S
H809 C832 0.950 . S
H810 C833 0.950 . S
H811 C835 0.950 . S
H812 C836 0.950 . S
H813 C837 0.951 . S
H814 C839 0.951 . S
H815 C841 0.950 . S
H816 C842 0.950 . S
H817 C844 0.950 . S
H818 C847 0.950 . S
H819 C848 0.950 . S
H820 C850 0.950 . S
H821 C851 0.950 . S
C822 H804 0.951 . S
C822 C823 1.366 . S
C822 C824 1.388 . S
C823 C822 1.366 . S
C823 C827 1.385 . S
C824 H805 0.951 . S
C824 C822 1.388 . S
C824 C825 1.366 . S
C825 C824 1.366 . S
C825 C826 1.414 . S
C825 C828 1.499 . S
C826 H806 0.950 . S
C826 C825 1.414 . S
C826 C827 1.374 . S
C827 H807 0.950 . S
C827 C823 1.385 . S
C827 C826 1.374 . S
C828 C825 1.499 . S
C828 C829 1.373 . S
C828 C830 1.389 . S
C829 H808 0.950 . S
C829 C828 1.373 . S
C829 C845 1.377 . S
C830 C828 1.389 . S
C830 C831 1.524 . S
C830 C844 1.377 . S
C831 C830 1.524 . S
C831 C832 1.397 . S
C831 C836 1.363 . S
C832 H809 0.950 . S
C832 C831 1.397 . S
C832 C833 1.334 . S
C833 H810 0.950 . S
C833 C832 1.334 . S
C833 C834 1.287 . S
C834 C833 1.287 . S
C834 C835 1.524 . S
C834 H853 0.913 . S
C835 H811 0.950 . S
C835 C834 1.524 . S
C835 C836 1.415 . S
C836 H812 0.950 . S
C836 C831 1.363 . S
C836 C835 1.415 . S
C837 H813 0.951 . S
C837 C838 1.366 . S
C837 C839 1.388 . S
C838 C837 1.366 . S
C838 C842 1.385 . S
C839 H814 0.951 . S
C839 C837 1.388 . S
C839 C840 1.366 . S
C840 C839 1.366 . S
C840 C841 1.414 . S
C840 C843 1.499 . S
C841 H815 0.950 . S
C841 C840 1.414 . S
C841 C842 1.374 . S
C842 H816 0.950 . S
C842 C838 1.385 . S
C842 C841 1.374 . S
C843 C840 1.499 . S
C843 C844 1.373 . S
C843 C845 1.389 . S
C844 H817 0.950 . S
C844 C830 1.377 . S
C844 C843 1.373 . S
C845 C829 1.377 . S
C845 C843 1.389 . S
C845 C846 1.524 . S
C846 C845 1.524 . S
C846 C847 1.397 . S
C846 C851 1.363 . S
C847 H818 0.950 . S
C847 C846 1.397 . S
C847 C848 1.334 . S
C848 H819 0.950 . S
C848 C847 1.334 . S
C848 C849 1.287 . S
C849 C848 1.287 . S
C849 C850 1.524 . S
C849 H852 0.999 . S
C850 H820 0.950 . S
C850 C849 1.524 . S
C850 C851 1.415 . S
C851 H821 0.950 . S
C851 C846 1.363 . S
C851 C850 1.415 . S
H852 C849 0.999 . S
H853 C834 0.913 . S
H854 C872 0.951 . S
H855 C874 0.951 . S
H856 C876 0.950 . S
H857 C877 0.950 . S
H858 C879 0.950 . S
H859 C882 0.950 . S
H860 C883 0.950 . S
H861 C885 0.950 . S
H862 C886 0.950 . S
H863 C887 0.951 . S
H864 C889 0.951 . S
H865 C891 0.950 . S
H866 C892 0.950 . S
H867 C894 0.950 . S
H868 C897 0.950 . S
H869 C898 0.950 . S
H870 C900 0.950 . S
H871 C901 0.950 . S
C872 H854 0.951 . S
C872 C873 1.366 . S
C872 C874 1.388 . S
C873 C872 1.366 . S
C873 C877 1.385 . S
C874 H855 0.951 . S
C874 C872 1.388 . S
C874 C875 1.366 . S
C875 C874 1.366 . S
C875 C876 1.414 . S
C875 C878 1.499 . S
C876 H856 0.950 . S
C876 C875 1.414 . S
C876 C877 1.374 . S
C877 H857 0.950 . S
C877 C873 1.385 . S
C877 C876 1.374 . S
C878 C875 1.499 . S
C878 C879 1.373 . S
C878 C880 1.389 . S
C879 H858 0.950 . S
C879 C878 1.373 . S
C879 C895 1.377 . S
C880 C878 1.389 . S
C880 C881 1.524 . S
C880 C894 1.377 . S
C881 C880 1.524 . S
C881 C882 1.397 . S
C881 C886 1.363 . S
C882 H859 0.950 . S
C882 C881 1.397 . S
C882 C883 1.334 . S
C883 H860 0.950 . S
C883 C882 1.334 . S
C883 C884 1.287 . S
C884 C883 1.287 . S
C884 C885 1.524 . S
C884 H903 0.913 . S
C885 H861 0.950 . S
C885 C884 1.524 . S
C885 C886 1.415 . S
C886 H862 0.950 . S
C886 C881 1.363 . S
C886 C885 1.415 . S
C887 H863 0.951 . S
C887 C888 1.366 . S
C887 C889 1.388 . S
C888 C887 1.366 . S
C888 C892 1.385 . S
C889 H864 0.951 . S
C889 C887 1.388 . S
C889 C890 1.366 . S
C890 C889 1.366 . S
C890 C891 1.414 . S
C890 C893 1.499 . S
C891 H865 0.950 . S
C891 C890 1.414 . S
C891 C892 1.374 . S
C892 H866 0.950 . S
C892 C888 1.385 . S
C892 C891 1.374 . S
C893 C890 1.499 . S
C893 C894 1.373 . S
C893 C895 1.389 . S
C894 H867 0.950 . S
C894 C880 1.377 . S
C894 C893 1.373 . S
C895 C879 1.377 . S
C895 C893 1.389 . S
C895 C896 1.524 . S
C896 C895 1.524 . S
C896 C897 1.397 . S
C896 C901 1.363 . S
C897 H868 0.950 . S
C897 C896 1.397 . S
C897 C898 1.334 . S
C898 H869 0.950 . S
C898 C897 1.334 . S
C898 C899 1.287 . S
C899 C898 1.287 . S
C899 C900 1.524 . S
C899 H902 0.999 . S
C900 H870 0.950 . S
C900 C899 1.524 . S
C900 C901 1.415 . S
C901 H871 0.950 . S
C901 C896 1.363 . S
C901 C900 1.415 . S
H902 C899 0.999 . S
H903 C884 0.913 . S
H904 C922 0.951 . S
H905 C924 0.951 . S
H906 C926 0.950 . S
H907 C927 0.950 . S
H908 C929 0.950 . S
H909 C932 0.950 . S
H910 C933 0.950 . S
H911 C935 0.950 . S
H912 C936 0.950 . S
H913 C937 0.951 . S
H914 C939 0.951 . S
H915 C941 0.950 . S
H916 C942 0.950 . S
H917 C944 0.950 . S
H918 C947 0.950 . S
H919 C948 0.950 . S
H920 C950 0.950 . S
H921 C951 0.950 . S
C922 H904 0.951 . S
C922 C923 1.366 . S
C922 C924 1.388 . S
C923 C922 1.366 . S
C923 C927 1.385 . S
C924 H905 0.951 . S
C924 C922 1.388 . S
C924 C925 1.366 . S
C925 C924 1.366 . S
C925 C926 1.414 . S
C925 C928 1.499 . S
C926 H906 0.950 . S
C926 C925 1.414 . S
C926 C927 1.374 . S
C927 H907 0.950 . S
C927 C923 1.385 . S
C927 C926 1.374 . S
C928 C925 1.499 . S
C928 C929 1.373 . S
C928 C930 1.389 . S
C929 H908 0.950 . S
C929 C928 1.373 . S
C929 C945 1.377 . S
C930 C928 1.389 . S
C930 C931 1.524 . S
C930 C944 1.377 . S
C931 C930 1.524 . S
C931 C932 1.397 . S
C931 C936 1.363 . S
C932 H909 0.950 . S
C932 C931 1.397 . S
C932 C933 1.334 . S
C933 H910 0.950 . S
C933 C932 1.334 . S
C933 C934 1.287 . S
C934 C933 1.287 . S
C934 C935 1.524 . S
C934 H953 0.913 . S
C935 H911 0.950 . S
C935 C934 1.524 . S
C935 C936 1.415 . S
C936 H912 0.950 . S
C936 C931 1.363 . S
C936 C935 1.415 . S
C937 H913 0.951 . S
C937 C938 1.366 . S
C937 C939 1.388 . S
C938 C937 1.366 . S
C938 C942 1.385 . S
C939 H914 0.951 . S
C939 C937 1.388 . S
C939 C940 1.366 . S
C940 C939 1.366 . S
C940 C941 1.414 . S
C940 C943 1.499 . S
C941 H915 0.950 . S
C941 C940 1.414 . S
C941 C942 1.374 . S
C942 H916 0.950 . S
C942 C938 1.385 . S
C942 C941 1.374 . S
C943 C940 1.499 . S
C943 C944 1.373 . S
C943 C945 1.389 . S
C944 H917 0.950 . S
C944 C930 1.377 . S
C944 C943 1.373 . S
C945 C929 1.377 . S
C945 C943 1.389 . S
C945 C946 1.524 . S
C946 C945 1.524 . S
C946 C947 1.397 . S
C946 C951 1.363 . S
C947 H918 0.950 . S
C947 C946 1.397 . S
C947 C948 1.334 . S
C948 H919 0.950 . S
C948 C947 1.334 . S
C948 C949 1.287 . S
C949 C948 1.287 . S
C949 C950 1.524 . S
C949 H952 0.999 . S
C950 H920 0.950 . S
C950 C949 1.524 . S
C950 C951 1.415 . S
C951 H921 0.950 . S
C951 C946 1.363 . S
C951 C950 1.415 . S
H952 C949 0.999 . S
H953 C934 0.913 . S
H954 C972 0.951 . S
H955 C974 0.951 . S
H956 C976 0.950 . S
H957 C977 0.950 . S
H958 C979 0.950 . S
H959 C982 0.950 . S
H960 C983 0.950 . S
H961 C985 0.950 . S
H962 C986 0.950 . S
H963 C987 0.951 . S
H964 C989 0.951 . S
H965 C991 0.950 . S
H966 C992 0.956 . S
H967 C994 0.950 . S
H968 C997 0.950 . S
H969 C998 0.950 . S
H970 C1000 0.950 . S
H971 C1001 0.950 . S
C972 H954 0.951 . S
C972 C973 1.366 . S
C972 C974 1.388 . S
C973 C972 1.366 . S
C973 C977 1.385 . S
C974 H955 0.951 . S
C974 C972 1.388 . S
C974 C975 1.366 . S
C975 C974 1.366 . S
C975 C976 1.414 . S
C975 C978 1.499 . S
C976 H956 0.950 . S
C976 C975 1.414 . S
C976 C977 1.374 . S
C977 H957 0.950 . S
C977 C973 1.385 . S
C977 C976 1.374 . S
C978 C975 1.499 . S
C978 C979 1.373 . S
C978 C980 1.389 . S
C979 H958 0.950 . S
C979 C978 1.373 . S
C979 C995 1.377 . S
C980 C978 1.389 . S
C980 C981 1.524 . S
C980 C994 1.377 . S
C981 C980 1.524 . S
C981 C982 1.397 . S
C981 C986 1.363 . S
C982 H959 0.950 . S
C982 C981 1.397 . S
C982 C983 1.334 . S
C983 H960 0.950 . S
C983 C982 1.334 . S
C983 C984 1.287 . S
C984 C983 1.287 . S
C984 C985 1.524 . S
C984 H1003 0.913 . S
C985 H961 0.950 . S
C985 C984 1.524 . S
C985 C986 1.415 . S
C986 H962 0.950 . S
C986 C981 1.363 . S
C986 C985 1.415 . S
C987 H963 0.951 . S
C987 C988 1.366 . S
C987 C989 1.388 . S
C988 C987 1.366 . S
C988 C992 1.355 1_554 S
C989 H964 0.951 . S
C989 C987 1.388 . S
C989 C990 1.366 1_554 S
C990 C989 1.366 1_556 S
C990 C991 1.414 . S
C990 C993 1.499 . S
C991 H965 0.950 . S
C991 C990 1.414 . S
C991 C992 1.398 . S
C992 H966 0.956 . S
C992 C988 1.355 1_556 S
C992 C991 1.398 . S
C993 C990 1.499 . S
C993 C994 1.373 . S
C993 C995 1.389 . S
C994 H967 0.950 . S
C994 C980 1.377 . S
C994 C993 1.373 . S
C995 C979 1.377 . S
C995 C993 1.389 . S
C995 C996 1.524 . S
C996 C995 1.524 . S
C996 C997 1.397 . S
C996 C1001 1.363 . S
C997 H968 0.950 . S
C997 C996 1.397 . S
C997 C998 1.334 1_556 S
C998 H969 0.950 . S
C998 C997 1.334 1_554 S
C998 C999 1.287 . S
C999 C998 1.287 . S
C999 C1000 1.524 . S
C999 H1002 0.999 . S
C1000 H970 0.950 . S
C1000 C999 1.524 . S
C1000 C1001 1.415 1_554 S
C1001 H971 0.950 . S
C1001 C996 1.363 . S
C1001 C1000 1.415 1_556 S
H1002 C999 0.999 . S
H1003 C984 0.913 . S
H1004 C1022 0.951 . S
H1005 C1024 0.951 . S
H1006 C1026 0.950 . S
H1007 C1027 0.950 . S
H1008 C1029 0.950 . S
H1009 C1032 0.950 . S
H1010 C1033 0.950 . S
H1011 C1035 0.950 . S
H1012 C1036 0.950 . S
H1013 C1037 0.951 . S
H1014 C1039 0.951 . S
H1015 C1041 0.950 . S
H1016 C1042 0.950 . S
H1017 C1044 0.950 . S
H1018 C1047 0.950 . S
H1019 C1048 0.950 . S
H1020 C1050 0.950 . S
H1021 C1051 0.950 . S
C1022 H1004 0.951 . S
C1022 C1023 1.366 . S
C1022 C1024 1.388 . S
C1023 C1022 1.366 . S
C1023 C1027 1.385 . S
C1024 H1005 0.951 . S
C1024 C1022 1.388 . S
C1024 C1025 1.366 . S
C1025 C1024 1.366 . S
C1025 C1026 1.414 . S
C1025 C1028 1.499 . S
C1026 H1006 0.950 . S
C1026 C1025 1.414 . S
C1026 C1027 1.374 . S
C1027 H1007 0.950 . S
C1027 C1023 1.385 . S
C1027 C1026 1.374 . S
C1028 C1025 1.499 . S
C1028 C1029 1.373 . S
C1028 C1030 1.389 . S
C1029 H1008 0.950 . S
C1029 C1028 1.373 . S
C1029 C1045 1.377 . S
C1030 C1028 1.389 . S
C1030 C1031 1.524 . S
C1030 C1044 1.377 . S
C1031 C1030 1.524 . S
C1031 C1032 1.397 . S
C1031 C1036 1.363 . S
C1032 H1009 0.950 . S
C1032 C1031 1.397 . S
C1032 C1033 1.334 . S
C1033 H1010 0.950 . S
C1033 C1032 1.334 . S
C1033 C1034 1.287 . S
C1034 C1033 1.287 . S
C1034 C1035 1.524 . S
C1034 H1053 0.949 . S
C1035 H1011 0.950 . S
C1035 C1034 1.524 . S
C1035 C1036 1.415 . S
C1036 H1012 0.950 . S
C1036 C1031 1.363 . S
C1036 C1035 1.415 . S
C1037 H1013 0.951 . S
C1037 C1038 1.366 . S
C1037 C1039 1.388 . S
C1038 C1037 1.366 . S
C1038 C1042 1.385 . S
C1039 H1014 0.951 . S
C1039 C1037 1.388 . S
C1039 C1040 1.366 . S
C1040 C1039 1.366 . S
C1040 C1041 1.414 . S
C1040 C1043 1.499 . S
C1041 H1015 0.950 . S
C1041 C1040 1.414 . S
C1041 C1042 1.374 . S
C1042 H1016 0.950 . S
C1042 C1038 1.385 . S
C1042 C1041 1.374 . S
C1043 C1040 1.499 . S
C1043 C1044 1.373 . S
C1043 C1045 1.389 . S
C1044 H1017 0.950 . S
C1044 C1030 1.377 . S
C1044 C1043 1.373 . S
C1045 C1029 1.377 . S
C1045 C1043 1.389 . S
C1045 C1046 1.524 . S
C1046 C1045 1.524 . S
C1046 C1047 1.397 . S
C1046 C1051 1.363 . S
C1047 H1018 0.950 . S
C1047 C1046 1.397 . S
C1047 C1048 1.334 . S
C1048 H1019 0.950 . S
C1048 C1047 1.334 . S
C1048 C1049 1.287 . S
C1049 C1048 1.287 . S
C1049 C1050 1.524 . S
C1049 H1052 0.999 . S
C1050 H1020 0.950 . S
C1050 C1049 1.524 . S
C1050 C1051 1.415 . S
C1051 H1021 0.950 . S
C1051 C1046 1.363 . S
C1051 C1050 1.415 . S
H1052 C1049 0.999 . S
H1053 C1034 0.949 . S
H1054 C1072 0.951 . S
H1055 C1074 0.951 . S
H1056 C1076 0.950 . S
H1057 C1077 0.950 . S
H1058 C1079 0.950 . S
H1059 C1082 0.950 . S
H1060 C1083 0.950 . S
H1061 C1085 0.950 . S
H1062 C1086 0.950 . S
H1063 C1087 0.951 . S
H1064 C1089 0.951 . S
H1065 C1091 0.950 . S
H1066 C1092 0.950 . S
H1067 C1094 0.950 . S
H1068 C1097 0.950 . S
H1069 C1098 0.950 . S
H1070 C1100 0.950 . S
H1071 C1101 0.950 . S
C1072 H1054 0.951 . S
C1072 C1073 1.366 . S
C1072 C1074 1.388 . S
C1073 C1072 1.366 . S
C1073 C1077 1.385 . S
C1074 H1055 0.951 . S
C1074 C1072 1.388 . S
C1074 C1075 1.366 . S
C1075 C1074 1.366 . S
C1075 C1076 1.414 . S
C1075 C1078 1.499 . S
C1076 H1056 0.950 . S
C1076 C1075 1.414 . S
C1076 C1077 1.374 . S
C1077 H1057 0.950 . S
C1077 C1073 1.385 . S
C1077 C1076 1.374 . S
C1078 C1075 1.499 . S
C1078 C1079 1.373 . S
C1078 C1080 1.389 . S
C1079 H1058 0.950 . S
C1079 C1078 1.373 . S
C1079 C1095 1.377 . S
C1080 C1078 1.389 . S
C1080 C1081 1.524 . S
C1080 C1094 1.377 . S
C1081 C1080 1.524 . S
C1081 C1082 1.397 . S
C1081 C1086 1.363 . S
C1082 H1059 0.950 . S
C1082 C1081 1.397 . S
C1082 C1083 1.334 . S
C1083 H1060 0.950 . S
C1083 C1082 1.334 . S
C1083 C1084 1.287 . S
C1084 C1083 1.287 . S
C1084 C1085 1.524 . S
C1084 H1103 0.913 . S
C1085 H1061 0.950 . S
C1085 C1084 1.524 . S
C1085 C1086 1.415 . S
C1086 H1062 0.950 . S
C1086 C1081 1.363 . S
C1086 C1085 1.415 . S
C1087 H1063 0.951 . S
C1087 C1088 1.366 . S
C1087 C1089 1.388 . S
C1088 C1087 1.366 . S
C1088 C1092 1.385 . S
C1089 H1064 0.951 . S
C1089 C1087 1.388 . S
C1089 C1090 1.366 . S
C1090 C1089 1.366 . S
C1090 C1091 1.414 . S
C1090 C1093 1.499 . S
C1091 H1065 0.950 . S
C1091 C1090 1.414 . S
C1091 C1092 1.374 . S
C1092 H1066 0.950 . S
C1092 C1088 1.385 . S
C1092 C1091 1.374 . S
C1093 C1090 1.499 . S
C1093 C1094 1.373 . S
C1093 C1095 1.389 . S
C1094 H1067 0.950 . S
C1094 C1080 1.377 . S
C1094 C1093 1.373 . S
C1095 C1079 1.377 . S
C1095 C1093 1.389 . S
C1095 C1096 1.524 . S
C1096 C1095 1.524 . S
C1096 C1097 1.397 . S
C1096 C1101 1.363 . S
C1097 H1068 0.950 . S
C1097 C1096 1.397 . S
C1097 C1098 1.334 . S
C1098 H1069 0.950 . S
C1098 C1097 1.334 . S
C1098 C1099 1.287 . S
C1099 C1098 1.287 . S
C1099 C1100 1.524 . S
C1099 H1102 0.999 . S
C1100 H1070 0.950 . S
C1100 C1099 1.524 . S
C1100 C1101 1.415 . S
C1101 H1071 0.950 . S
C1101 C1096 1.363 . S
C1101 C1100 1.415 . S
H1102 C1099 0.999 . S
H1103 C1084 0.913 . S
H1104 C1122 0.951 . S
H1105 C1124 0.951 . S
H1106 C1126 0.950 . S
H1107 C1127 0.950 . S
H1108 C1129 0.950 . S
H1109 C1132 0.950 . S
H1110 C1133 0.950 . S
H1111 C1135 0.950 . S
H1112 C1136 0.950 . S
H1113 C1137 0.951 . S
H1114 C1139 0.951 . S
H1115 C1141 0.950 . S
H1116 C1142 0.950 . S
H1117 C1144 0.950 . S
H1118 C1147 0.950 . S
H1119 C1148 0.950 . S
H1120 C1150 0.950 . S
H1121 C1151 0.950 . S
C1122 H1104 0.951 . S
C1122 C1123 1.366 . S
C1122 C1124 1.388 . S
C1123 C1122 1.366 . S
C1123 C1127 1.385 . S
C1124 H1105 0.951 . S
C1124 C1122 1.388 . S
C1124 C1125 1.366 . S
C1125 C1124 1.366 . S
C1125 C1126 1.414 . S
C1125 C1128 1.499 . S
C1126 H1106 0.950 . S
C1126 C1125 1.414 . S
C1126 C1127 1.374 . S
C1127 H1107 0.950 . S
C1127 C1123 1.385 . S
C1127 C1126 1.374 . S
C1128 C1125 1.499 . S
C1128 C1129 1.373 . S
C1128 C1130 1.389 . S
C1129 H1108 0.950 . S
C1129 C1128 1.373 . S
C1129 C1145 1.377 . S
C1130 C1128 1.389 . S
C1130 C1131 1.524 . S
C1130 C1144 1.377 . S
C1131 C1130 1.524 . S
C1131 C1132 1.397 . S
C1131 C1136 1.363 . S
C1132 H1109 0.950 . S
C1132 C1131 1.397 . S
C1132 C1133 1.334 . S
C1133 H1110 0.950 . S
C1133 C1132 1.334 . S
C1133 C1134 1.287 . S
C1134 C1133 1.287 . S
C1134 C1135 1.524 . S
C1134 H1153 0.913 . S
C1135 H1111 0.950 . S
C1135 C1134 1.524 . S
C1135 C1136 1.415 . S
C1136 H1112 0.950 . S
C1136 C1131 1.363 . S
C1136 C1135 1.415 . S
C1137 H1113 0.951 . S
C1137 C1138 1.366 . S
C1137 C1139 1.388 . S
C1138 C1137 1.366 . S
C1138 C1142 1.385 . S
C1139 H1114 0.951 . S
C1139 C1137 1.388 . S
C1139 C1140 1.366 . S
C1140 C1139 1.366 . S
C1140 C1141 1.414 . S
C1140 C1143 1.499 . S
C1141 H1115 0.950 . S
C1141 C1140 1.414 . S
C1141 C1142 1.374 . S
C1142 H1116 0.950 . S
C1142 C1138 1.385 . S
C1142 C1141 1.374 . S
C1143 C1140 1.499 . S
C1143 C1144 1.373 . S
C1143 C1145 1.389 . S
C1144 H1117 0.950 . S
C1144 C1130 1.377 . S
C1144 C1143 1.373 . S
C1145 C1129 1.377 . S
C1145 C1143 1.389 . S
C1145 C1146 1.524 . S
C1146 C1145 1.524 . S
C1146 C1147 1.397 . S
C1146 C1151 1.363 . S
C1147 H1118 0.950 . S
C1147 C1146 1.397 . S
C1147 C1148 1.334 . S
C1148 H1119 0.950 . S
C1148 C1147 1.334 . S
C1148 C1149 1.287 . S
C1149 C1148 1.287 . S
C1149 C1150 1.524 . S
C1149 H1152 0.999 . S
C1150 H1120 0.950 . S
C1150 C1149 1.524 . S
C1150 C1151 1.415 . S
C1151 H1121 0.950 . S
C1151 C1146 1.363 . S
C1151 C1150 1.415 . S
H1152 C1149 0.999 . S
H1153 C1134 0.913 . S
H1154 C1172 0.951 . S
H1155 C1174 0.951 . S
H1156 C1176 0.950 . S
H1157 C1177 0.950 . S
H1158 C1179 0.950 . S
H1159 C1182 0.950 . S
H1160 C1183 0.950 . S
H1161 C1185 0.950 . S
H1162 C1186 0.950 . S
H1163 C1187 0.951 . S
H1164 C1189 0.951 . S
H1165 C1191 0.950 . S
H1166 C1192 0.950 . S
H1167 C1194 0.950 . S
H1168 C1197 0.950 . S
H1169 C1198 0.950 . S
H1170 C1200 0.950 . S
H1171 C1201 0.950 . S
C1172 H1154 0.951 . S
C1172 C1173 1.366 . S
C1172 C1174 1.388 . S
C1173 C1172 1.366 . S
C1173 C1177 1.385 . S
C1174 H1155 0.951 . S
C1174 C1172 1.388 . S
C1174 C1175 1.366 . S
C1175 C1174 1.366 . S
C1175 C1176 1.414 . S
C1175 C1178 1.499 . S
C1176 H1156 0.950 . S
C1176 C1175 1.414 . S
C1176 C1177 1.374 . S
C1177 H1157 0.950 . S
C1177 C1173 1.385 . S
C1177 C1176 1.374 . S
C1178 C1175 1.499 . S
C1178 C1179 1.373 . S
C1178 C1180 1.389 . S
C1179 H1158 0.950 . S
C1179 C1178 1.373 . S
C1179 C1195 1.377 . S
C1180 C1178 1.389 . S
C1180 C1181 1.524 . S
C1180 C1194 1.377 . S
C1181 C1180 1.524 . S
C1181 C1182 1.397 . S
C1181 C1186 1.363 . S
C1182 H1159 0.950 . S
C1182 C1181 1.397 . S
C1182 C1183 1.334 . S
C1183 H1160 0.950 . S
C1183 C1182 1.334 . S
C1183 C1184 1.287 . S
C1184 C1183 1.287 . S
C1184 C1185 1.524 . S
C1184 H1203 0.913 . S
C1185 H1161 0.950 . S
C1185 C1184 1.524 . S
C1185 C1186 1.415 . S
C1186 H1162 0.950 . S
C1186 C1181 1.363 . S
C1186 C1185 1.415 . S
C1187 H1163 0.951 . S
C1187 C1188 1.366 . S
C1187 C1189 1.388 . S
C1188 C1187 1.366 . S
C1188 C1192 1.385 . S
C1189 H1164 0.951 . S
C1189 C1187 1.388 . S
C1189 C1190 1.366 . S
C1190 C1189 1.366 . S
C1190 C1191 1.414 . S
C1190 C1193 1.499 . S
C1191 H1165 0.950 . S
C1191 C1190 1.414 . S
C1191 C1192 1.374 . S
C1192 H1166 0.950 . S
C1192 C1188 1.385 . S
C1192 C1191 1.374 . S
C1193 C1190 1.499 . S
C1193 C1194 1.373 . S
C1193 C1195 1.389 . S
C1194 H1167 0.950 . S
C1194 C1180 1.377 . S
C1194 C1193 1.373 . S
C1195 C1179 1.377 . S
C1195 C1193 1.389 . S
C1195 C1196 1.524 . S
C1196 C1195 1.524 . S
C1196 C1197 1.397 . S
C1196 C1201 1.363 . S
C1197 H1168 0.950 . S
C1197 C1196 1.397 . S
C1197 C1198 1.334 . S
C1198 H1169 0.950 . S
C1198 C1197 1.334 . S
C1198 C1199 1.287 . S
C1199 C1198 1.287 . S
C1199 C1200 1.524 . S
C1199 H1202 0.999 . S
C1200 H1170 0.950 . S
C1200 C1199 1.524 . S
C1200 C1201 1.415 . S
C1201 H1171 0.950 . S
C1201 C1196 1.363 . S
C1201 C1200 1.415 . S
H1202 C1199 0.999 . S
H1203 C1184 0.913 . S
H1204 C1222 0.951 . S
H1205 C1224 0.951 . S
H1206 C1226 0.950 . S
H1207 C1227 0.950 . S
H1208 C1229 0.950 . S
H1209 C1232 0.950 . S
H1210 C1233 0.950 . S
H1211 C1235 0.950 . S
H1212 C1236 0.950 . S
H1213 C1237 0.951 . S
H1214 C1239 0.951 . S
H1215 C1241 0.950 . S
H1216 C1242 0.950 . S
H1217 C1244 0.950 . S
H1218 C1247 0.950 . S
H1219 C1248 0.950 . S
H1220 C1250 0.950 . S
H1221 C1251 0.950 . S
C1222 H1204 0.951 . S
C1222 C1223 1.366 . S
C1222 C1224 1.388 . S
C1223 C1222 1.366 . S
C1223 C1227 1.385 . S
C1224 H1205 0.951 . S
C1224 C1222 1.388 . S
C1224 C1225 1.366 . S
C1225 C1224 1.366 . S
C1225 C1226 1.414 . S
C1225 C1228 1.499 . S
C1226 H1206 0.950 . S
C1226 C1225 1.414 . S
C1226 C1227 1.374 . S
C1227 H1207 0.950 . S
C1227 C1223 1.385 . S
C1227 C1226 1.374 . S
C1228 C1225 1.499 . S
C1228 C1229 1.373 . S
C1228 C1230 1.389 . S
C1229 H1208 0.950 . S
C1229 C1228 1.373 . S
C1229 C1245 1.377 . S
C1230 C1228 1.389 . S
C1230 C1231 1.524 . S
C1230 C1244 1.377 . S
C1231 C1230 1.524 . S
C1231 C1232 1.397 . S
C1231 C1236 1.363 . S
C1232 H1209 0.950 . S
C1232 C1231 1.397 . S
C1232 C1233 1.334 . S
C1233 H1210 0.950 . S
C1233 C1232 1.334 . S
C1233 C1234 1.287 . S
C1234 C1233 1.287 . S
C1234 C1235 1.524 . S
C1234 H1253 0.913 . S
C1235 H1211 0.950 . S
C1235 C1234 1.524 . S
C1235 C1236 1.415 . S
C1236 H1212 0.950 . S
C1236 C1231 1.363 . S
C1236 C1235 1.415 . S
C1237 H1213 0.951 . S
C1237 C1238 1.366 . S
C1237 C1239 1.388 . S
C1238 C1237 1.366 . S
C1238 C1242 1.385 . S
C1239 H1214 0.951 . S
C1239 C1237 1.388 . S
C1239 C1240 1.366 . S
C1240 C1239 1.366 . S
C1240 C1241 1.414 . S
C1240 C1243 1.499 . S
C1241 H1215 0.950 . S
C1241 C1240 1.414 . S
C1241 C1242 1.374 . S
C1242 H1216 0.950 . S
C1242 C1238 1.385 . S
C1242 C1241 1.374 . S
C1243 C1240 1.499 . S
C1243 C1244 1.373 . S
C1243 C1245 1.389 . S
C1244 H1217 0.950 . S
C1244 C1230 1.377 . S
C1244 C1243 1.373 . S
C1245 C1229 1.377 . S
C1245 C1243 1.389 . S
C1245 C1246 1.524 . S
C1246 C1245 1.524 . S
C1246 C1247 1.397 . S
C1246 C1251 1.363 . S
C1247 H1218 0.950 . S
C1247 C1246 1.397 . S
C1247 C1248 1.334 . S
C1248 H1219 0.950 . S
C1248 C1247 1.334 . S
C1248 C1249 1.287 . S
C1249 C1248 1.287 . S
C1249 C1250 1.524 . S
C1249 H1252 0.999 . S
C1250 H1220 0.950 . S
C1250 C1249 1.524 . S
C1250 C1251 1.415 . S
C1251 H1221 0.950 . S
C1251 C1246 1.363 . S
C1251 C1250 1.415 . S
H1252 C1249 0.999 . S
H1253 C1234 0.913 . S
H1254 C1272 0.951 . S
H1255 C1274 0.951 . S
H1256 C1276 0.950 . S
H1257 C1277 0.950 . S
H1258 C1279 0.950 . S
H1259 C1282 0.950 . S
H1260 C1283 0.950 . S
H1261 C1285 0.950 . S
H1262 C1286 0.950 . S
H1263 C1287 0.951 . S
H1264 C1289 0.951 . S
H1265 C1291 0.950 . S
H1266 C1292 0.950 . S
H1267 C1294 0.950 . S
H1268 C1297 0.950 . S
H1269 C1298 0.950 . S
H1270 C1300 0.950 . S
H1271 C1301 0.950 . S
C1272 H1254 0.951 . S
C1272 C1273 1.366 . S
C1272 C1274 1.388 . S
C1273 C1272 1.366 . S
C1273 C1277 1.385 . S
C1274 H1255 0.951 . S
C1274 C1272 1.388 . S
C1274 C1275 1.366 . S
C1275 C1274 1.366 . S
C1275 C1276 1.414 . S
C1275 C1278 1.499 . S
C1276 H1256 0.950 . S
C1276 C1275 1.414 . S
C1276 C1277 1.374 . S
C1277 H1257 0.950 . S
C1277 C1273 1.385 . S
C1277 C1276 1.374 . S
C1278 C1275 1.499 . S
C1278 C1279 1.373 . S
C1278 C1280 1.389 . S
C1279 H1258 0.950 . S
C1279 C1278 1.373 . S
C1279 C1295 1.377 . S
C1280 C1278 1.389 . S
C1280 C1281 1.524 . S
C1280 C1294 1.377 . S
C1281 C1280 1.524 . S
C1281 C1282 1.397 . S
C1281 C1286 1.363 . S
C1282 H1259 0.950 . S
C1282 C1281 1.397 . S
C1282 C1283 1.334 . S
C1283 H1260 0.950 . S
C1283 C1282 1.334 . S
C1283 C1284 1.287 . S
C1284 C1283 1.287 . S
C1284 C1285 1.524 . S
C1284 H1303 0.913 . S
C1285 H1261 0.950 . S
C1285 C1284 1.524 . S
C1285 C1286 1.415 . S
C1286 H1262 0.950 . S
C1286 C1281 1.363 . S
C1286 C1285 1.415 . S
C1287 H1263 0.951 . S
C1287 C1288 1.366 . S
C1287 C1289 1.388 . S
C1288 C1287 1.366 . S
C1288 C1292 1.385 . S
C1289 H1264 0.951 . S
C1289 C1287 1.388 . S
C1289 C1290 1.366 . S
C1290 C1289 1.366 . S
C1290 C1291 1.414 . S
C1290 C1293 1.499 . S
C1291 H1265 0.950 . S
C1291 C1290 1.414 . S
C1291 C1292 1.374 . S
C1292 H1266 0.950 . S
C1292 C1288 1.385 . S
C1292 C1291 1.374 . S
C1293 C1290 1.499 . S
C1293 C1294 1.373 . S
C1293 C1295 1.389 . S
C1294 H1267 0.950 . S
C1294 C1280 1.377 . S
C1294 C1293 1.373 . S
C1295 C1279 1.377 . S
C1295 C1293 1.389 . S
C1295 C1296 1.524 . S
C1296 C1295 1.524 . S
C1296 C1297 1.397 . S
C1296 C1301 1.363 . S
C1297 H1268 0.950 . S
C1297 C1296 1.397 . S
C1297 C1298 1.334 . S
C1298 H1269 0.950 . S
C1298 C1297 1.334 . S
C1298 C1299 1.287 . S
C1299 C1298 1.287 . S
C1299 C1300 1.524 . S
C1299 H1302 0.999 . S
C1300 H1270 0.950 . S
C1300 C1299 1.524 . S
C1300 C1301 1.415 . S
C1301 H1271 0.950 . S
C1301 C1296 1.363 . S
C1301 C1300 1.415 . S
H1302 C1299 0.999 . S
H1303 C1284 0.913 . S
H1304 C1322 0.951 . S
H1305 C1324 0.951 . S
H1306 C1326 0.950 . S
H1307 C1327 0.950 . S
H1308 C1329 0.950 . S
H1309 C1332 0.950 . S
H1310 C1333 0.950 . S
H1311 C1335 0.950 . S
H1312 C1336 0.950 . S
H1313 C1337 0.951 . S
H1314 C1339 0.951 . S
H1315 C1341 0.950 1_554 S
H1316 C1342 0.950 . S
H1317 C1344 0.950 . S
H1318 C1347 0.950 . S
H1319 C1348 0.950 . S
H1320 C1350 0.950 . S
H1321 C1351 0.950 . S
C1322 H1304 0.951 . S
C1322 C1323 1.366 . S
C1322 C1324 1.388 . S
C1323 C1322 1.366 . S
C1323 C1327 1.385 . S
C1324 H1305 0.951 . S
C1324 C1322 1.388 . S
C1324 C1325 1.366 . S
C1325 C1324 1.366 . S
C1325 C1326 1.414 . S
C1325 C1328 1.499 . S
C1326 H1306 0.950 . S
C1326 C1325 1.414 . S
C1326 C1327 1.374 . S
C1327 H1307 0.950 . S
C1327 C1323 1.385 . S
C1327 C1326 1.374 . S
C1328 C1325 1.499 . S
C1328 C1329 1.373 . S
C1328 C1330 1.389 . S
C1329 H1308 0.950 . S
C1329 C1328 1.373 . S
C1329 C1345 1.377 . S
C1330 C1328 1.389 . S
C1330 C1331 1.524 . S
C1330 C1344 1.377 . S
C1331 C1330 1.524 . S
C1331 C1332 1.397 . S
C1331 C1336 1.363 . S
C1332 H1309 0.950 . S
C1332 C1331 1.397 . S
C1332 C1333 1.334 . S
C1333 H1310 0.950 . S
C1333 C1332 1.334 . S
C1333 C1334 1.287 . S
C1334 C1333 1.287 . S
C1334 C1335 1.524 . S
C1334 H1353 0.913 . S
C1335 H1311 0.950 . S
C1335 C1334 1.524 . S
C1335 C1336 1.415 . S
C1336 H1312 0.950 . S
C1336 C1331 1.363 . S
C1336 C1335 1.415 . S
C1337 H1313 0.951 . S
C1337 C1338 1.366 . S
C1337 C1339 1.388 . S
C1338 C1337 1.366 . S
C1338 C1342 1.385 . S
C1339 H1314 0.951 . S
C1339 C1337 1.388 . S
C1339 C1340 1.366 . S
C1340 C1339 1.366 . S
C1340 C1341 1.414 . S
C1340 C1343 1.499 1_556 S
C1341 H1315 0.950 1_556 S
C1341 C1340 1.414 . S
C1341 C1342 1.374 . S
C1342 H1316 0.950 . S
C1342 C1338 1.385 . S
C1342 C1341 1.374 . S
C1343 C1340 1.499 1_554 S
C1343 C1344 1.373 . S
C1343 C1345 1.389 . S
C1344 H1317 0.950 . S
C1344 C1330 1.377 . S
C1344 C1343 1.373 . S
C1345 C1329 1.377 . S
C1345 C1343 1.389 . S
C1345 C1346 1.524 1_554 S
C1346 C1345 1.524 1_556 S
C1346 C1347 1.397 . S
C1346 C1351 1.363 . S
C1347 H1318 0.950 . S
C1347 C1346 1.397 . S
C1347 C1348 1.334 . S
C1348 H1319 0.950 . S
C1348 C1347 1.334 . S
C1348 C1349 1.287 . S
C1349 C1348 1.287 . S
C1349 C1350 1.524 . S
C1349 H1352 0.999 . S
C1350 H1320 0.950 . S
C1350 C1349 1.524 . S
C1350 C1351 1.415 . S
C1351 H1321 0.950 . S
C1351 C1346 1.363 . S
C1351 C1350 1.415 . S
H1352 C1349 0.999 . S
H1353 C1334 0.913 . S
H1354 C1372 0.951 . S
H1355 C1374 0.951 . S
H1356 C1376 0.950 . S
H1357 C1377 0.950 . S
H1358 C1379 0.950 . S
H1359 C1382 0.950 . S
H1360 C1383 0.950 . S
H1361 C1385 0.950 . S
H1362 C1386 0.950 . S
H1363 C1387 0.951 . S
H1364 C1389 0.951 . S
H1365 C1391 0.950 . S
H1366 C1392 0.950 . S
H1367 C1394 0.950 . S
H1368 C1397 0.950 . S
H1369 C1398 0.950 . S
H1370 C1400 0.950 . S
H1371 C1401 0.950 . S
C1372 H1354 0.951 . S
C1372 C1373 1.366 . S
C1372 C1374 1.388 . S
C1373 C1372 1.366 . S
C1373 C1377 1.385 . S
C1374 H1355 0.951 . S
C1374 C1372 1.388 . S
C1374 C1375 1.366 . S
C1375 C1374 1.366 . S
C1375 C1376 1.414 . S
C1375 C1378 1.499 . S
C1376 H1356 0.950 . S
C1376 C1375 1.414 . S
C1376 C1377 1.374 . S
C1377 H1357 0.950 . S
C1377 C1373 1.385 . S
C1377 C1376 1.374 . S
C1378 C1375 1.499 . S
C1378 C1379 1.373 . S
C1378 C1380 1.389 . S
C1379 H1358 0.950 . S
C1379 C1378 1.373 . S
C1379 C1395 1.377 . S
C1380 C1378 1.389 . S
C1380 C1381 1.524 . S
C1380 C1394 1.377 . S
C1381 C1380 1.524 . S
C1381 C1382 1.397 . S
C1381 C1386 1.363 . S
C1382 H1359 0.950 . S
C1382 C1381 1.397 . S
C1382 C1383 1.334 . S
C1383 H1360 0.950 . S
C1383 C1382 1.334 . S
C1383 C1384 1.287 . S
C1384 C1383 1.287 . S
C1384 C1385 1.524 . S
C1384 H1403 0.913 . S
C1385 H1361 0.950 . S
C1385 C1384 1.524 . S
C1385 C1386 1.415 . S
C1386 H1362 0.950 . S
C1386 C1381 1.363 . S
C1386 C1385 1.415 . S
C1387 H1363 0.951 . S
C1387 C1388 1.366 . S
C1387 C1389 1.388 . S
C1388 C1387 1.366 . S
C1388 C1392 1.385 . S
C1389 H1364 0.951 . S
C1389 C1387 1.388 . S
C1389 C1390 1.366 . S
C1390 C1389 1.366 . S
C1390 C1391 1.414 . S
C1390 C1393 1.499 . S
C1391 H1365 0.950 . S
C1391 C1390 1.414 . S
C1391 C1392 1.374 . S
C1392 H1366 0.950 . S
C1392 C1388 1.385 . S
C1392 C1391 1.374 . S
C1393 C1390 1.499 . S
C1393 C1394 1.373 . S
C1393 C1395 1.389 . S
C1394 H1367 0.950 . S
C1394 C1380 1.377 . S
C1394 C1393 1.373 . S
C1395 C1379 1.377 . S
C1395 C1393 1.389 . S
C1395 C1396 1.524 . S
C1396 C1395 1.524 . S
C1396 C1397 1.397 . S
C1396 C1401 1.363 . S
C1397 H1368 0.950 . S
C1397 C1396 1.397 . S
C1397 C1398 1.334 . S
C1398 H1369 0.950 . S
C1398 C1397 1.334 . S
C1398 C1399 1.287 . S
C1399 C1398 1.287 . S
C1399 C1400 1.524 . S
C1399 H1402 0.999 . S
C1400 H1370 0.950 . S
C1400 C1399 1.524 . S
C1400 C1401 1.415 . S
C1401 H1371 0.950 . S
C1401 C1396 1.363 . S
C1401 C1400 1.415 . S
H1402 C1399 0.999 . S
H1403 C1384 0.913 . S
C238 C196 1.637 . S
C223 C19 1.565 . S
C273 C40 1.572 . S
C288 C131 1.643 . S
C323 C51 1.566 . S
C338 C149 1.649 . S
C373 C72 1.547 . S
C388 C162 1.630 . S
C438 C170 1.641 . S
C423 C103 1.569 . S
C473 C114 1.556 . S
C488 C182 1.639 . S
C523 C30 1.571 . S
C538 C144 1.655 . S
C573 C61 1.568 . S
C588 C157 1.639 . S
C623 C82 1.563 . S
C638 C175 1.632 . S
C688 C181 1.647 . S
C673 C93 1.563 1_554 S
C738 C201 1.626 . S
C723 C124 1.557 . S
C788 C136 1.639 . S
C773 C9 1.556 . S
C823 C17 1.546 . S
C838 C142 1.621 . S
C873 C38 1.547 . S
C888 C155 1.621 . S
C938 C169 1.614 . S
C923 C54 1.536 . S
C973 C75 1.548 . S
C988 C183 1.627 . S
C1038 C195 1.611 . S
C1023 C101 1.535 . S
C1088 C130 1.613 . S
C1073 C117 1.534 . S
C1138 C194 1.618 . S
C1123 C33 1.541 . S
C1173 C59 1.544 . S
C1188 C129 1.618 . S
C1238 C143 1.620 . S
C1223 C80 1.544 . S
C1273 C96 1.531 . S
C1288 C156 1.610 . S
C1323 C122 1.547 . S
C1338 C168 1.622 . S
C1373 C12 1.541 . S
C1388 C188 1.621 . S
