# Generated by pormake.
# Topology pyr, (3,6)-cn, num edge types: 1
# Building blocks:
#     Node 0, Type 0, BuildingBlock: BELTOD_clean_linker_0, # of connection points: 3
#     Node 1, Type 0, BuildingBlock: BELTOD_clean_linker_0, # of connection points: 3
#     Node 2, Type 0, BuildingBlock: BELTOD_clean_linker_0, # of connection points: 3
#     Node 3, Type 0, BuildingBlock: BELTOD_clean_linker_0, # of connection points: 3
#     Node 4, Type 0, BuildingBlock: BELTOD_clean_linker_0, # of connection points: 3
#     Node 5, Type 0, BuildingBlock: BELTOD_clean_linker_0, # of connection points: 3
#     Node 6, Type 0, BuildingBlock: BELTOD_clean_linker_0, # of connection points: 3
#     Node 7, Type 0, BuildingBlock: BELTOD_clean_linker_0, # of connection points: 3
#     Node 8, Type 1, BuildingBlock: BETGAK_clean_sbu_0, # of connection points: 6
#     Node 9, Type 1, BuildingBlock: BETGAK_clean_sbu_0, # of connection points: 6
#     Node 10, Type 1, BuildingBlock: BETGAK_clean_sbu_0, # of connection points: 6
#     Node 11, Type 1, BuildingBlock: BETGAK_clean_sbu_0, # of connection points: 6
#     Edge 12, Type (0, 1), BuildingBlock: MIFKUJ_clean_linker_0, # of connection points: 2
#     Edge 13, Type (0, 1), BuildingBlock: MIFKUJ_clean_linker_0, # of connection points: 2
#     Edge 14, Type (0, 1), BuildingBlock: MIFKUJ_clean_linker_0, # of connection points: 2
#     Edge 15, Type (0, 1), BuildingBlock: MIFKUJ_clean_linker_0, # of connection points: 2
#     Edge 16, Type (0, 1), BuildingBlock: MIFKUJ_clean_linker_0, # of connection points: 2
#     Edge 17, Type (0, 1), BuildingBlock: MIFKUJ_clean_linker_0, # of connection points: 2
#     Edge 18, Type (0, 1), BuildingBlock: MIFKUJ_clean_linker_0, # of connection points: 2
#     Edge 19, Type (0, 1), BuildingBlock: MIFKUJ_clean_linker_0, # of connection points: 2
#     Edge 20, Type (0, 1), BuildingBlock: MIFKUJ_clean_linker_0, # of connection points: 2
#     Edge 21, Type (0, 1), BuildingBlock: MIFKUJ_clean_linker_0, # of connection points: 2
#     Edge 22, Type (0, 1), BuildingBlock: MIFKUJ_clean_linker_0, # of connection points: 2
#     Edge 23, Type (0, 1), BuildingBlock: MIFKUJ_clean_linker_0, # of connection points: 2
#     Edge 24, Type (0, 1), BuildingBlock: MIFKUJ_clean_linker_0, # of connection points: 2
#     Edge 25, Type (0, 1), BuildingBlock: MIFKUJ_clean_linker_0, # of connection points: 2
#     Edge 26, Type (0, 1), BuildingBlock: MIFKUJ_clean_linker_0, # of connection points: 2
#     Edge 27, Type (0, 1), BuildingBlock: MIFKUJ_clean_linker_0, # of connection points: 2
#     Edge 28, Type (0, 1), BuildingBlock: MIFKUJ_clean_linker_0, # of connection points: 2
#     Edge 29, Type (0, 1), BuildingBlock: MIFKUJ_clean_linker_0, # of connection points: 2
#     Edge 30, Type (0, 1), BuildingBlock: MIFKUJ_clean_linker_0, # of connection points: 2
#     Edge 31, Type (0, 1), BuildingBlock: MIFKUJ_clean_linker_0, # of connection points: 2
#     Edge 32, Type (0, 1), BuildingBlock: MIFKUJ_clean_linker_0, # of connection points: 2
#     Edge 33, Type (0, 1), BuildingBlock: MIFKUJ_clean_linker_0, # of connection points: 2
#     Edge 34, Type (0, 1), BuildingBlock: MIFKUJ_clean_linker_0, # of connection points: 2
#     Edge 35, Type (0, 1), BuildingBlock: MIFKUJ_clean_linker_0, # of connection points: 2
# Relax obj value: 0.077
# Max RMSD: 0.118
# Mean RMSD: 0.054
data_MOF--net-pyr--node1-BETGAK_clean_sbu_0--node2-BELTOD_clean_linker_0--edge1-MIFKUJ_clean_linker_0
_symmetry_space_group_name_H-M    P1
_symmetry_Int_Tables_number       1
_symmetry_cell_setting            triclinic
loop_
_symmetry_equiv_pos_as_xyz
'x, y, z'
_cell_length_a     54.192773
_cell_length_b     57.776807
_cell_length_c     51.980026
_cell_angle_alpha  91.074124
_cell_angle_beta   88.854736
_cell_angle_gamma 99.608109
loop_
_atom_site_label
_atom_site_type_symbol
_atom_site_fract_x
_atom_site_fract_y
_atom_site_fract_z
_atom_type_partial_charge
P0 P 0.33643 0.29103 0.24549 0.0
H1 H 0.38625 0.28846 0.22409 0.0
H2 H 0.40387 0.2571 0.20182 0.0
H3 H 0.33172 0.21216 0.2064 0.0
H4 H 0.3142 0.24369 0.22811 0.0
H5 H 0.32153 0.33658 0.25322 0.0
H6 H 0.2949 0.35809 0.22888 0.0
H7 H 0.29018 0.30529 0.16834 0.0
H8 H 0.31643 0.28366 0.19309 0.0
H9 H 0.34068 0.27664 0.29869 0.0
H10 H 0.28232 0.27531 0.24321 0.0
O11 O 0.35949 0.30838 0.26072 0.0
H12 H 0.30987 0.25747 0.33 0.0
H13 H 0.25168 0.25584 0.27397 0.0
C14 C 0.34906 0.26825 0.22817 0.0
C15 C 0.37425 0.27185 0.22028 0.0
C16 C 0.38431 0.25387 0.20766 0.0
C17 C 0.36925 0.23204 0.20254 0.0
C18 C 0.34381 0.22878 0.2099 0.0
C19 C 0.3338 0.24676 0.22253 0.0
C20 C 0.32126 0.30874 0.22481 0.0
C21 C 0.31525 0.32995 0.23442 0.0
C22 C 0.30002 0.34223 0.22046 0.0
C23 C 0.29036 0.33339 0.19666 0.0
C24 C 0.2971 0.31244 0.18673 0.0
C25 C 0.31234 0.30017 0.20075 0.0
C26 C 0.3137 0.27786 0.26887 0.0
C27 C 0.32122 0.2724 0.29334 0.0
C28 C 0.30363 0.26129 0.31112 0.0
C29 C 0.27826 0.25531 0.30457 0.0
C30 C 0.27093 0.2607 0.27988 0.0
C31 C 0.28849 0.2718 0.26221 0.0
P32 P 0.36409 0.92477 0.56511 0.0
H33 H 0.41 0.94284 0.59284 0.0
H34 H 0.41914 0.94745 0.63886 0.0
H35 H 0.34205 0.91896 0.6572 0.0
H36 H 0.33314 0.91426 0.61144 0.0
H37 H 0.38223 0.90618 0.51679 0.0
H38 H 0.38555 0.86618 0.5021 0.0
H39 H 0.3564 0.83959 0.57572 0.0
H40 H 0.35305 0.87927 0.59013 0.0
H41 H 0.34094 0.96649 0.56936 0.0
H42 H 0.31739 0.89276 0.55261 0.0
O43 O 0.38344 0.94468 0.54831 0.0
H44 H 0.29741 0.97265 0.56773 0.0
H45 H 0.27402 0.89868 0.55152 0.0
C46 C 0.37083 0.92861 0.59878 0.0
C47 C 0.39508 0.93772 0.60681 0.0
C48 C 0.40026 0.94037 0.63305 0.0
C49 C 0.38129 0.93359 0.65159 0.0
C50 C 0.3571 0.92414 0.64338 0.0
C51 C 0.35194 0.92166 0.61721 0.0
C52 C 0.36793 0.89573 0.55473 0.0
C53 C 0.37678 0.89173 0.5298 0.0
C54 C 0.37859 0.86891 0.5214 0.0
C55 C 0.37112 0.8498 0.53773 0.0
C56 C 0.36199 0.85393 0.56259 0.0
C57 C 0.36039 0.87669 0.57099 0.0
C58 C 0.33246 0.9293 0.56073 0.0
C59 C 0.32644 0.9517 0.56506 0.0
C60 C 0.30156 0.95512 0.56445 0.0
C61 C 0.28229 0.93611 0.5596 0.0
C62 C 0.28847 0.91371 0.55502 0.0
C63 C 0.31335 0.91032 0.55565 0.0
P64 P 0.67114 0.34185 0.83952 0.0
H65 H 0.71552 0.32892 0.86234 0.0
H66 H 0.7512 0.3505 0.88502 0.0
H67 H 0.72002 0.41427 0.8788 0.0
H68 H 0.68361 0.39204 0.85678 0.0
H69 H 0.62193 0.3126 0.83029 0.0
H70 H 0.59836 0.27887 0.85261 0.0
H71 H 0.65273 0.28887 0.91327 0.0
H72 H 0.67495 0.32319 0.89173 0.0
H73 H 0.68802 0.36338 0.7907 0.0
H74 H 0.62258 0.3605 0.83968 0.0
O75 O 0.68496 0.32442 0.82003 0.0
H76 H 0.66887 0.38467 0.75859 0.0
H77 H 0.60309 0.38209 0.80735 0.0
C78 C 0.69676 0.35875 0.8577 0.0
C79 C 0.71621 0.34754 0.86595 0.0
C80 C 0.73689 0.36006 0.87878 0.0
C81 C 0.73902 0.38441 0.8836 0.0
C82 C 0.71919 0.39558 0.87569 0.0
C83 C 0.69829 0.38289 0.86294 0.0
C84 C 0.65008 0.32107 0.85938 0.0
C85 C 0.62827 0.30805 0.84887 0.0
C86 C 0.61503 0.28829 0.86153 0.0
C87 C 0.62353 0.28051 0.88489 0.0
C88 C 0.64504 0.29411 0.89566 0.0
C89 C 0.65801 0.31401 0.88315 0.0
C90 C 0.65669 0.35989 0.81757 0.0
C91 C 0.66946 0.36737 0.79463 0.0
C92 C 0.65837 0.37949 0.77609 0.0
C93 C 0.63416 0.3849 0.77998 0.0
C94 C 0.62173 0.37827 0.80355 0.0
C95 C 0.63284 0.36584 0.8221 0.0
P96 P 0.83952 0.692 0.3407 0.0
H97 H 0.87747 0.73167 0.32572 0.0
H98 H 0.89771 0.76685 0.34866 0.0
H99 H 0.86243 0.73973 0.41961 0.0
H100 H 0.84251 0.70439 0.39652 0.0
H101 H 0.82242 0.65204 0.30702 0.0
H102 H 0.84348 0.63029 0.27502 0.0
H103 H 0.91498 0.66841 0.29881 0.0
H104 H 0.89367 0.69011 0.33097 0.0
H105 H 0.78742 0.69815 0.34864 0.0
H106 H 0.83485 0.65099 0.37525 0.0
O107 O 0.82625 0.7063 0.3186 0.0
H108 H 0.75208 0.67682 0.37273 0.0
H109 H 0.79919 0.62942 0.39988 0.0
C110 C 0.85857 0.71516 0.35929 0.0
C111 C 0.87452 0.73301 0.34632 0.0
C112 C 0.88585 0.75334 0.35947 0.0
C113 C 0.88152 0.75644 0.38604 0.0
C114 C 0.86637 0.73801 0.39923 0.0
C115 C 0.85494 0.71767 0.38598 0.0
C116 C 0.85635 0.67261 0.32173 0.0
C117 C 0.84268 0.6554 0.3058 0.0
C118 C 0.85478 0.64314 0.28721 0.0
C119 C 0.881 0.6477 0.28398 0.0
C120 C 0.8948 0.6643 0.30073 0.0
C121 C 0.88259 0.67675 0.31925 0.0
C122 C 0.8138 0.67596 0.35965 0.0
C123 C 0.79027 0.68309 0.35957 0.0
C124 C 0.76994 0.67078 0.37337 0.0
C125 C 0.77259 0.65115 0.38804 0.0
C126 C 0.79643 0.64443 0.38879 0.0
C127 C 0.81682 0.65668 0.37464 0.0
P128 P 0.74761 0.82129 0.86258 0.0
H129 H 0.73188 0.83791 0.91214 0.0
H130 H 0.69453 0.85301 0.92645 0.0
H131 H 0.66006 0.83232 0.85336 0.0
H132 H 0.6981 0.81794 0.83891 0.0
H133 H 0.79477 0.80509 0.86706 0.0
H134 H 0.80616 0.76761 0.87828 0.0
H135 H 0.728 0.73876 0.89037 0.0
H136 H 0.71673 0.77685 0.87938 0.0
H137 H 0.76133 0.86008 0.8275 0.0
H138 H 0.73894 0.78499 0.82177 0.0
O139 O 0.76949 0.84243 0.87432 0.0
H140 H 0.77106 0.86153 0.78157 0.0
H141 H 0.74818 0.78628 0.77549 0.0
C142 C 0.7179 0.82728 0.87435 0.0
C143 C 0.71612 0.83629 0.89936 0.0
C144 C 0.6946 0.84477 0.90757 0.0
C145 C 0.67428 0.84414 0.89097 0.0
C146 C 0.67553 0.83353 0.86646 0.0
C147 C 0.69721 0.82516 0.85821 0.0
C148 C 0.755 0.79382 0.87291 0.0
C149 C 0.78008 0.79079 0.8724 0.0
C150 C 0.78653 0.76924 0.87851 0.0
C151 C 0.76796 0.75013 0.885 0.0
C152 C 0.74272 0.75322 0.8856 0.0
C153 C 0.73627 0.77493 0.87939 0.0
C154 C 0.75011 0.82239 0.82809 0.0
C155 C 0.7581 0.84394 0.81622 0.0
C156 C 0.76342 0.84473 0.78985 0.0
C157 C 0.76062 0.82396 0.77483 0.0
C158 C 0.75094 0.80253 0.78658 0.0
C159 C 0.74563 0.80178 0.81303 0.0
P160 P 0.77633 0.24699 0.40078 0.0
H161 H 0.76444 0.29364 0.41214 0.0
H162 H 0.73815 0.30822 0.44525 0.0
H163 H 0.7243 0.23965 0.47972 0.0
H164 H 0.75039 0.22512 0.44628 0.0
H165 H 0.80032 0.2111 0.37544 0.0
H166 H 0.82718 0.1846 0.39104 0.0
H167 H 0.82661 0.21737 0.46651 0.0
H168 H 0.80078 0.24445 0.45043 0.0
H169 H 0.7547 0.25409 0.35085 0.0
H170 H 0.74734 0.20037 0.40829 0.0
O171 O 0.79211 0.26884 0.38348 0.0
H172 H 0.72388 0.2291 0.32441 0.0
H173 H 0.71582 0.17571 0.38262 0.0
C174 C 0.75954 0.25839 0.42691 0.0
C175 C 0.7561 0.28185 0.42706 0.0
C176 C 0.74116 0.29018 0.4461 0.0
C177 C 0.72927 0.2751 0.46521 0.0
C178 C 0.73311 0.25165 0.4652 0.0
C179 C 0.74806 0.24336 0.44613 0.0
C180 C 0.79792 0.22918 0.412 0.0
C181 C 0.80611 0.21262 0.39531 0.0
C182 C 0.82132 0.19739 0.4043 0.0
C183 C 0.82866 0.19857 0.43015 0.0
C184 C 0.82134 0.21599 0.44648 0.0
C185 C 0.8063 0.23135 0.43738 0.0
C186 C 0.75347 0.22894 0.38133 0.0
C187 C 0.74635 0.23697 0.35781 0.0
C188 C 0.72854 0.22274 0.34286 0.0
C189 C 0.71739 0.20036 0.35139 0.0
C190 C 0.7243 0.19266 0.37528 0.0
C191 C 0.7422 0.20683 0.39008 0.0
P192 P 0.3658 0.69185 0.19882 0.0
H193 H 0.34354 0.68803 0.14802 0.0
H194 H 0.30263 0.67059 0.13168 0.0
H195 H 0.27699 0.65292 0.20918 0.0
H196 H 0.31835 0.67033 0.22538 0.0
H197 H 0.41279 0.72466 0.20608 0.0
H198 H 0.42781 0.76451 0.19119 0.0
H199 H 0.3541 0.76799 0.16293 0.0
H200 H 0.33912 0.72866 0.17885 0.0
H201 H 0.36537 0.64438 0.21651 0.0
H202 H 0.38173 0.71386 0.24998 0.0
O203 O 0.38442 0.68002 0.17828 0.0
H204 H 0.37869 0.62779 0.25574 0.0
H205 H 0.39522 0.69728 0.28966 0.0
C206 C 0.33419 0.68055 0.18795 0.0
C207 C 0.32908 0.68058 0.16158 0.0
C208 C 0.30551 0.67063 0.15224 0.0
C209 C 0.28624 0.66022 0.16901 0.0
C210 C 0.29134 0.66047 0.19557 0.0
C211 C 0.31501 0.6706 0.20494 0.0
C212 C 0.3747 0.72346 0.19396 0.0
C213 C 0.39966 0.73425 0.19737 0.0
C214 C 0.40835 0.75704 0.18835 0.0
C215 C 0.3924 0.76971 0.17531 0.0
C216 C 0.36709 0.75916 0.17294 0.0
C217 C 0.35841 0.7364 0.1821 0.0
C218 C 0.37249 0.68042 0.23008 0.0
C219 C 0.3716 0.65611 0.23245 0.0
C220 C 0.37948 0.64661 0.25493 0.0
C221 C 0.38842 0.66111 0.27597 0.0
C222 C 0.38844 0.68549 0.27397 0.0
C223 C 0.38071 0.69504 0.25121 0.0
P224 P 0.17594 0.3498 0.72573 0.0
H225 H 0.19584 0.31768 0.6905 0.0
H226 H 0.17722 0.28277 0.66628 0.0
H227 H 0.10358 0.2944 0.69065 0.0
H228 H 0.12245 0.32955 0.71482 0.0
H229 H 0.22601 0.37314 0.74014 0.0
H230 H 0.26087 0.39553 0.7163 0.0
H231 H 0.21493 0.39179 0.64883 0.0
H232 H 0.18025 0.36856 0.67285 0.0
H233 H 0.13313 0.33489 0.76049 0.0
H234 H 0.17602 0.40049 0.73577 0.0
O235 O 0.19042 0.33594 0.74724 0.0
H236 H 0.1104 0.35577 0.79167 0.0
H237 H 0.15451 0.42149 0.76791 0.0
C238 C 0.16068 0.32644 0.70456 0.0
C239 C 0.17564 0.31302 0.69029 0.0
C240 C 0.16491 0.29296 0.67637 0.0
C241 C 0.1388 0.28552 0.67647 0.0
C242 C 0.12375 0.29932 0.69036 0.0
C243 C 0.13456 0.31958 0.70417 0.0
C244 C 0.20056 0.3688 0.70824 0.0
C245 C 0.22336 0.37717 0.72023 0.0
C246 C 0.24334 0.39022 0.70652 0.0
C247 C 0.24103 0.39552 0.68041 0.0
C248 C 0.21774 0.38775 0.6687 0.0
C249 C 0.19774 0.37459 0.68248 0.0
C250 C 0.15584 0.36601 0.74502 0.0
C251 C 0.13729 0.35387 0.76131 0.0
C252 C 0.12461 0.36592 0.77966 0.0
C253 C 0.13053 0.39053 0.78279 0.0
C254 C 0.14891 0.40267 0.76605 0.0
C255 C 0.16137 0.39059 0.74749 0.0
La256 La 0.015 0.03039 0.50403 0.0
La257 La 1.00286 1.01265 0.55675 0.0
C258 C 0.02148 0.05461 0.46387 0.0
C259 C 0.0409 0.07393 0.45553 0.0
C260 C 0.06057 0.08291 0.47192 0.0
C261 C 0.07975 0.10048 0.46352 0.0
C262 C 0.07961 0.10929 0.43851 0.0
C263 C 0.0597 0.10041 0.42224 0.0
C264 C 0.04059 0.08271 0.43064 0.0
C265 C 0.0465 1.00507 0.52213 0.0
C266 C 0.03442 0.06257 0.55376 0.0
C267 C 0.9951 0.98792 0.59637 0.0
C268 C 0.97655 0.96707 0.60291 0.0
C269 C 0.96022 0.96844 0.62391 0.0
C270 C 0.94038 0.95025 0.62863 0.0
C271 C 0.93644 0.93026 0.61241 0.0
C272 C 0.95341 0.9284 0.592 0.0
C273 C 0.97333 0.94667 0.5873 0.0
C274 C 0.9713 0.03761 0.53776 0.0
C275 C 0.98406 0.98023 0.50745 0.0
O276 O 0.02913 0.03449 0.4663 0.0
O277 O 1.00727 0.05921 0.48335 0.0
O278 O 0.04056 1.00539 0.49822 0.0
O279 O 0.03662 1.02003 0.53469 0.0
O280 O 0.02965 0.06134 0.52872 0.0
O281 O 0.02858 0.04394 0.56846 0.0
O282 O 0.98572 1.00705 0.5931 0.0
O283 O 0.01216 0.98531 0.57882 0.0
O284 O 0.97749 0.03835 0.56166 0.0
O285 O 0.9815 1.02255 0.52595 0.0
O286 O 0.99017 0.98134 0.53211 0.0
O287 O 0.98818 0.99931 0.49324 0.0
H288 H 0.06135 0.07598 0.49102 0.0
H289 H 0.09479 0.10705 0.47651 0.0
H290 H 0.05929 0.10662 0.40274 0.0
H291 H 0.02566 0.07576 0.41766 0.0
H292 H 0.96241 0.98393 0.63629 0.0
H293 H 0.92797 0.95191 0.64491 0.0
H294 H 0.95086 0.91316 0.57925 0.0
H295 H 0.98584 0.94508 0.57115 0.0
La296 La 0.52591 0.03452 0.04716 0.0
La297 La 0.47664 1.02028 1.01818 0.0
C298 C 0.56366 0.05616 0.06988 0.0
C299 C 0.56927 0.06432 0.09637 0.0
C300 C 0.56055 0.0503 0.11754 0.0
C301 C 0.56662 0.05826 0.14253 0.0
C302 C 0.58114 0.08046 0.14671 0.0
C303 C 0.58933 0.09464 0.1255 0.0
C304 C 0.5835 0.08658 0.10053 0.0
C305 C 0.50027 0.99244 0.05835 0.0
C306 C 0.47624 0.0522 0.06806 0.0
C307 C 0.43786 0.99614 1.00016 0.0
C308 C 0.43178 0.98943 0.97343 0.0
C309 C 0.44984 0.99578 0.95401 0.0
C310 C 0.44432 0.99005 0.92839 0.0
C311 C 0.4206 0.9779 0.92167 0.0
C312 C 0.40263 0.97124 0.94125 0.0
C313 C 0.4082 0.97702 0.96701 0.0
C314 C 0.50416 0.05838 0.99655 0.0
C315 C 0.52709 1.00617 0.99641 0.0
O316 O 0.55955 0.03343 0.0659 0.0
O317 O 0.54773 0.06664 0.05791 0.0
O318 O 0.52441 0.99801 0.05826 0.0
O319 O 0.49112 1.01076 0.05404 0.0
O320 O 0.50053 0.05217 0.0706 0.0
O321 O 0.46279 0.03978 0.05 0.0
O322 O 0.43993 1.01867 1.00539 0.0
O323 O 0.45633 0.98702 1.00948 0.0
O324 O 0.48266 0.04796 0.98835 0.0
O325 O 0.50884 0.0466 1.01539 0.0
O326 O 0.50253 1.00014 0.99895 0.0
O327 O 0.53983 1.02323 1.01046 0.0
H328 H 0.54923 0.03315 0.11478 0.0
H329 H 0.55995 0.04709 0.15859 0.0
H330 H 0.60079 0.11173 0.12819 0.0
H331 H 0.59027 0.09766 0.08443 0.0
H332 H 0.46822 1.00526 0.95869 0.0
H333 H 0.45872 0.99503 0.91384 0.0
H334 H 0.38416 0.96195 0.93661 0.0
H335 H 0.39409 0.97198 0.98184 0.0
La336 La 0.50826 0.50662 0.51607 0.0
La337 La 0.50315 0.54522 0.55141 0.0
C338 C 0.52589 0.47538 0.49086 0.0
C339 C 0.53987 0.45699 0.49862 0.0
C340 C 0.53302 0.43405 0.48905 0.0
C341 C 0.54523 0.41614 0.49733 0.0
C342 C 0.56445 0.42089 0.51545 0.0
C343 C 0.57128 0.44394 0.52497 0.0
C344 C 0.55916 0.46183 0.51659 0.0
C345 C 0.46389 0.50228 0.53928 0.0
C346 C 0.52669 0.50512 0.57488 0.0
C347 C 0.48643 0.57708 0.57644 0.0
C348 C 0.47303 0.59586 0.56853 0.0
C349 C 0.48229 0.61918 0.57556 0.0
C350 C 0.47102 0.63742 0.56654 0.0
C351 C 0.45022 0.63262 0.55038 0.0
C352 C 0.44072 0.60923 0.54367 0.0
C353 C 0.45206 0.591 0.55261 0.0
C354 C 0.54744 0.54908 0.52791 0.0
C355 C 0.48427 0.54656 0.4928 0.0
O356 O 0.50267 0.47287 0.4991 0.0
O357 O 0.53744 0.49706 0.49335 0.0
O358 O 0.4676 0.49624 0.51554 0.0
O359 O 0.48482 0.50962 0.54938 0.0
O360 O 0.52794 0.49749 0.55068 0.0
O361 O 0.51515 0.52303 0.58059 0.0
O362 O 0.50961 0.57901 0.56818 0.0
O363 O 0.4744 0.55555 0.57418 0.0
O364 O 0.54407 0.55484 0.55178 0.0
O365 O 0.52635 0.54223 0.51804 0.0
O366 O 0.48292 0.55412 0.51702 0.0
O367 O 0.49607 0.52883 0.48705 0.0
H368 H 0.51815 0.42998 0.47522 0.0
H369 H 0.53988 0.39866 0.48922 0.0
H370 H 0.58586 0.44813 0.53909 0.0
H371 H 0.56475 0.47939 0.52441 0.0
H372 H 0.49847 0.6233 0.58775 0.0
H373 H 0.47847 0.65528 0.57235 0.0
H374 H 0.42483 0.60505 0.5311 0.0
H375 H 0.44463 0.57317 0.54666 0.0
La376 La 0.01489 0.49768 0.04356 0.0
La377 La 1.00294 0.54725 1.02236 0.0
C378 C 0.03527 0.46193 0.0459 0.0
C379 C 0.0548 0.45428 0.06159 0.0
C380 C 0.04945 0.43324 0.07517 0.0
C381 C 0.0683 0.42487 0.08841 0.0
C382 C 0.09302 0.43723 0.08807 0.0
C383 C 0.09814 0.45863 0.07498 0.0
C384 C 0.07926 0.46712 0.06203 0.0
C385 C 0.99409 0.52297 0.07914 0.0
C386 C 0.05303 0.54596 0.05378 0.0
C387 C 0.98331 0.58335 1.01816 0.0
C388 C 0.96235 0.589 1.0032 0.0
C389 C 0.96432 0.61107 0.9919 0.0
C390 C 0.94426 0.61696 0.97841 0.0
C391 C 0.92182 0.60088 0.97608 0.0
C392 C 0.92005 0.57861 0.98703 0.0
C393 C 0.94018 0.57269 1.00036 0.0
C394 C 0.02385 0.52179 0.98686 0.0
C395 C 0.9644 0.49917 1.01292 0.0
O396 O 0.01368 0.46343 0.05735 0.0
O397 O 0.04292 0.47954 0.0305 0.0
O398 O 1.00122 0.50302 0.08366 0.0
O399 O 0.99899 0.5268 0.05573 0.0
O400 O 0.04848 0.52258 0.05403 0.0
O401 O 0.03759 0.55897 0.04369 0.0
O402 O 1.00332 0.57993 1.00496 0.0
O403 O 0.97731 0.56789 0.03631 0.0
O404 O 0.01855 0.54255 0.98293 0.0
O405 O 0.01729 0.51734 1.00977 0.0
O406 O 0.96864 0.52258 1.0134 0.0
O407 O 0.98047 0.48611 1.02172 0.0
H408 H 0.03074 0.42307 0.07519 0.0
H409 H 0.0635 0.40858 0.09872 0.0
H410 H 0.11693 0.46853 0.07394 0.0
H411 H 0.08407 0.48348 0.05183 0.0
H412 H 0.98126 0.62387 0.99384 0.0
H413 H 0.94603 0.63437 0.97045 0.0
H414 H 0.90307 0.56583 0.9854 0.0
H415 H 0.93823 0.55548 1.00876 0.0
H416 H 0.23027 0.26268 0.31383 0.0
H417 H 0.19828 0.23974 0.34094 0.0
H418 H 0.25185 0.19718 0.36456 0.0
H419 H 0.28372 0.21946 0.3366 0.0
H420 H 0.20991 0.17042 0.35062 0.0
H421 H 0.23069 0.23726 0.40609 0.0
H422 H 0.23842 0.27927 0.4182 0.0
H423 H 0.16257 0.28455 0.40028 0.0
H424 H 0.15448 0.24263 0.3877 0.0
H425 H 0.12945 0.10888 0.44419 0.0
H426 H 0.16458 0.13597 0.42578 0.0
H427 H 0.11305 0.17575 0.39227 0.0
H428 H 0.07772 0.14884 0.41097 0.0
H429 H 0.15527 0.20404 0.41383 0.0
H430 H 0.13593 0.13771 0.35573 0.0
H431 H 0.12839 0.09561 0.34399 0.0
H432 H 0.20248 0.08959 0.3677 0.0
H433 H 0.21033 0.13163 0.37994 0.0
C434 C 0.23527 0.24844 0.3248 0.0
C435 C 0.25952 0.24282 0.32294 0.0
C436 C 0.21703 0.23552 0.34054 0.0
C437 C 0.22272 0.21687 0.35498 0.0
C438 C 0.24707 0.21155 0.35364 0.0
C439 C 0.26532 0.22443 0.33781 0.0
C440 C 0.20283 0.20198 0.37009 0.0
C441 C 0.19831 0.17775 0.3648 0.0
C442 C 0.18727 0.2116 0.38816 0.0
C443 C 0.19205 0.23683 0.39574 0.0
C444 C 0.21571 0.24741 0.40453 0.0
C445 C 0.22015 0.27121 0.41152 0.0
C446 C 0.20102 0.28459 0.40996 0.0
C447 C 0.17738 0.27418 0.40146 0.0
C448 C 0.17285 0.25039 0.39443 0.0
C449 C 0.12561 0.12363 0.43327 0.0
C450 C 0.10085 0.12671 0.4289 0.0
C451 C 0.14568 0.13899 0.42266 0.0
C452 C 0.14136 0.15769 0.40749 0.0
C453 C 0.11673 0.16137 0.4039 0.0
C454 C 0.09661 0.14591 0.41439 0.0
C455 C 0.16248 0.17263 0.39425 0.0
C456 C 0.16712 0.1968 0.39982 0.0
C457 C 0.17824 0.16299 0.3765 0.0
C458 C 0.17361 0.13775 0.36901 0.0
C459 C 0.15054 0.12737 0.35864 0.0
C460 C 0.14622 0.10352 0.35186 0.0
C461 C 0.16492 0.08992 0.35517 0.0
C462 C 0.188 0.10015 0.36519 0.0
C463 C 0.1924 0.12398 0.37204 0.0
H464 H 0.16155 0.07146 0.3499 0.0
H465 H 0.20449 0.30301 0.41538 0.0
H466 H 0.36659 0.90223 0.68984 0.0
H467 H 0.37322 0.9081 0.73607 0.0
H468 H 0.414 0.97767 0.72243 0.0
H469 H 0.4076 0.97181 0.67614 0.0
H470 H 0.43686 0.95578 0.75723 0.0
H471 H 0.35276 0.96882 0.7435 0.0
H472 H 0.30943 0.95876 0.72825 0.0
H473 H 0.29672 0.89879 0.77728 0.0
H474 H 0.34011 0.90832 0.79256 0.0
H475 H 0.43218 1.00676 0.88074 0.0
H476 H 0.42529 0.99721 0.83524 0.0
H477 H 0.38894 0.92741 0.85489 0.0
H478 H 0.39595 0.93682 0.90064 0.0
H479 H 0.36394 0.94707 0.81767 0.0
H480 H 0.44794 0.9355 0.83285 0.0
H481 H 0.49109 0.94643 0.84835 0.0
H482 H 0.50388 1.00446 0.79663 0.0
H483 H 0.46066 0.99409 0.78108 0.0
C484 C 0.37694 0.91879 0.69673 0.0
C485 C 0.38646 0.93663 0.67943 0.0
C486 C 0.3807 0.92211 0.72312 0.0
C487 C 0.39376 0.94345 0.73271 0.0
C488 C 0.40384 0.96107 0.71542 0.0
C489 C 0.40023 0.95769 0.689 0.0
C490 C 0.3967 0.94757 0.76079 0.0
C491 C 0.4209 0.95412 0.77041 0.0
C492 C 0.37589 0.94484 0.77804 0.0
C493 C 0.34976 0.93915 0.76897 0.0
C494 C 0.34078 0.95339 0.75088 0.0
C495 C 0.31621 0.94779 0.74225 0.0
C496 C 0.30036 0.92811 0.75173 0.0
C497 C 0.30903 0.91401 0.76992 0.0
C498 C 0.33361 0.91951 0.77859 0.0
C499 C 0.42282 0.98933 0.87539 0.0
C500 C 0.41486 0.97244 0.89424 0.0
C501 C 0.41886 0.98392 0.8494 0.0
C502 C 0.40699 0.96149 0.84171 0.0
C503 C 0.39823 0.9448 0.86047 0.0
C504 C 0.40217 0.95022 0.88656 0.0
C505 C 0.40407 0.9555 0.81401 0.0
C506 C 0.37989 0.94859 0.80449 0.0
C507 C 0.42489 0.95798 0.79682 0.0
C508 C 0.45098 0.96413 0.80595 0.0
C509 C 0.45989 0.95069 0.82491 0.0
C510 C 0.48437 0.95677 0.83369 0.0
C511 C 0.5002 0.97616 0.82352 0.0
C512 C 0.49159 0.98946 0.8045 0.0
C513 C 0.46711 0.98348 0.79568 0.0
H514 H 0.51914 0.98084 0.83035 0.0
H515 H 0.28133 0.92381 0.74503 0.0
H516 H 0.60618 0.42074 0.78491 0.0
H517 H 0.58815 0.44107 0.75083 0.0
H518 H 0.61629 0.39652 0.69375 0.0
H519 H 0.63489 0.37669 0.72766 0.0
H520 H 0.62298 0.43705 0.67494 0.0
H521 H 0.55111 0.3915 0.71425 0.0
H522 H 0.5219 0.3764 0.74936 0.0
H523 H 0.50755 0.44607 0.76587 0.0
H524 H 0.53694 0.46165 0.73105 0.0
H525 H 0.54891 0.46555 0.57138 0.0
H526 H 0.56645 0.44532 0.60572 0.0
H527 H 0.54683 0.49599 0.66107 0.0
H528 H 0.52906 0.51622 0.62673 0.0
H529 H 0.53573 0.45252 0.68033 0.0
H530 H 0.60893 0.49683 0.63865 0.0
H531 H 0.63569 0.50916 0.60074 0.0
H532 H 0.64484 0.43769 0.58589 0.0
H533 H 0.61798 0.42492 0.62363 0.0
C534 C 0.60838 0.41513 0.76512 0.0
C535 C 0.62211 0.39698 0.75924 0.0
C536 C 0.59794 0.42679 0.7455 0.0
C537 C 0.60039 0.42033 0.71935 0.0
C538 C 0.61405 0.40214 0.71353 0.0
C539 C 0.62475 0.39072 0.73308 0.0
C540 C 0.58908 0.43256 0.69808 0.0
C541 C 0.60378 0.4401 0.67615 0.0
C542 C 0.56406 0.43704 0.69924 0.0
C543 C 0.54644 0.42777 0.72023 0.0
C544 C 0.54187 0.40363 0.7255 0.0
C545 C 0.52526 0.39498 0.74532 0.0
C546 C 0.51293 0.41028 0.75988 0.0
C547 C 0.51715 0.43425 0.75461 0.0
C548 C 0.53377 0.443 0.73482 0.0
C549 C 0.54846 0.47257 0.59077 0.0
C550 C 0.53769 0.49279 0.596 0.0
C551 C 0.55859 0.46092 0.61054 0.0
C552 C 0.55842 0.46917 0.63622 0.0
C553 C 0.54736 0.48916 0.64155 0.0
C554 C 0.53723 0.50083 0.62177 0.0
C555 C 0.56965 0.45699 0.65745 0.0
C556 C 0.55494 0.44947 0.6793 0.0
C557 C 0.59448 0.45215 0.656 0.0
C558 C 0.61134 0.45991 0.63387 0.0
C559 C 0.61663 0.48375 0.62728 0.0
C560 C 0.63181 0.49081 0.60582 0.0
C561 C 0.64193 0.47422 0.5909 0.0
C562 C 0.63701 0.45053 0.59748 0.0
C563 C 0.62185 0.44338 0.61894 0.0
H564 H 0.65361 0.47971 0.57424 0.0
H565 H 0.50007 0.40354 0.77522 0.0
H566 H 0.86597 0.63977 0.234 0.0
H567 H 0.88579 0.62038 0.19906 0.0
H568 H 0.94442 0.60919 0.24995 0.0
H569 H 0.92485 0.62919 0.28495 0.0
H570 H 0.96473 0.62038 0.20536 0.0
H571 H 0.89385 0.56411 0.23115 0.0
H572 H 0.84941 0.54936 0.24123 0.0
H573 H 0.82982 0.56305 0.164 0.0
H574 H 0.87413 0.57818 0.15355 0.0
H575 H 1.00842 0.53068 0.12872 0.0
H576 H 0.99028 0.55325 0.16243 0.0
H577 H 0.93739 0.57092 0.10828 0.0
H578 H 0.95525 0.54783 0.07469 0.0
H579 H 0.91454 0.55692 0.15386 0.0
H580 H 0.98678 0.61185 0.12824 0.0
H581 H 0.03166 0.62491 0.11879 0.0
H582 H 0.04916 0.61186 0.19684 0.0
H583 H 1.0044 0.59836 0.20667 0.0
C584 C 0.88298 0.63304 0.2379 0.0
C585 C 0.89356 0.63588 0.26254 0.0
C586 C 0.89435 0.62185 0.21779 0.0
C587 C 0.91646 0.6127 0.22173 0.0
C588 C 0.92737 0.61593 0.2462 0.0
C589 C 0.91613 0.6274 0.2663 0.0
C590 C 0.92809 0.59983 0.2004 0.0
C591 C 0.95374 0.6063 0.19439 0.0
C592 C 0.91391 0.58165 0.18545 0.0
C593 C 0.88727 0.57249 0.19164 0.0
C594 C 0.88004 0.56412 0.21637 0.0
C595 C 0.85488 0.55568 0.22214 0.0
C596 C 0.8368 0.55533 0.20329 0.0
C597 C 0.84385 0.56337 0.17859 0.0
C598 C 0.86898 0.57186 0.17273 0.0
C599 C 0.99313 0.53965 0.12392 0.0
C600 C 0.98386 0.53815 0.09876 0.0
C601 C 0.98279 0.55263 0.14322 0.0
C602 C 0.96264 0.56424 0.13798 0.0
C603 C 0.95311 0.56246 0.11287 0.0
C604 C 0.96364 0.54961 0.09347 0.0
C605 C 0.95108 0.5775 0.15889 0.0
C606 C 0.92546 0.57105 0.16482 0.0
C607 C 0.96534 0.59551 0.1739 0.0
C608 C 0.99224 0.60389 0.16813 0.0
C609 C 1.00021 0.6116 0.14335 0.0
C610 C 0.02563 0.61911 0.13793 0.0
C611 C 0.04326 0.61916 0.15719 0.0
C612 C 0.03549 0.61178 0.18194 0.0
C613 C 1.01009 0.60422 0.18745 0.0
H614 H 0.06293 0.62496 0.15295 0.0
H615 H 0.81733 0.54878 0.2078 0.0
H616 H 0.41438 0.21871 0.2117 0.0
H617 H 0.4321 0.18665 0.19114 0.0
H618 H 0.36633 0.1691 0.14469 0.0
H619 H 0.34852 0.20123 0.16508 0.0
H620 H 0.38035 0.13014 0.16414 0.0
H621 H 0.42027 0.19891 0.11935 0.0
H622 H 0.4445 0.23885 0.11569 0.0
H623 H 0.50708 0.21658 0.15159 0.0
H624 H 0.48308 0.17655 0.15578 0.0
H625 H 0.42815 0.06094 0.06651 0.0
H626 H 0.40961 0.08953 0.0923 0.0
H627 H 0.47777 0.10673 0.13513 0.0
H628 H 0.49667 0.07847 0.10915 0.0
H629 H 0.46297 0.14535 0.11925 0.0
H630 H 0.42391 0.0761 0.16246 0.0
H631 H 0.39982 0.03611 0.16611 0.0
H632 H 0.33594 0.05893 0.1335 0.0
H633 H 0.35976 0.09901 0.12932 0.0
C634 C 0.40379 0.20819 0.19692 0.0
C635 C 0.38009 0.21262 0.18993 0.0
C636 C 0.41391 0.18981 0.18525 0.0
C637 C 0.40063 0.17561 0.16622 0.0
C638 C 0.37686 0.17981 0.15939 0.0
C639 C 0.36671 0.19816 0.17108 0.0
C640 C 0.41161 0.15649 0.15327 0.0
C641 C 0.39829 0.13348 0.15407 0.0
C642 C 0.4353 0.16077 0.14071 0.0
C643 C 0.44979 0.1848 0.13812 0.0
C644 C 0.43913 0.20257 0.12665 0.0
C645 C 0.45283 0.22522 0.12445 0.0
C646 C 0.47729 0.23026 0.13347 0.0
C647 C 0.48812 0.21265 0.14464 0.0
C648 C 0.47448 0.18998 0.14692 0.0
C649 C 0.4391 0.07052 0.08164 0.0
C650 C 0.46393 0.06742 0.08566 0.0
C651 C 0.42843 0.08684 0.09646 0.0
C652 C 0.44225 0.10021 0.11576 0.0
C653 C 0.46678 0.09665 0.12032 0.0
C654 C 0.47749 0.08041 0.10546 0.0
C655 C 0.43172 0.11893 0.13005 0.0
C656 C 0.44511 0.14192 0.12945 0.0
C657 C 0.40812 0.1146 0.14281 0.0
C658 C 0.39371 0.09052 0.14536 0.0
C659 C 0.40479 0.07256 0.15588 0.0
C660 C 0.39117 0.04988 0.15808 0.0
C661 C 0.36638 0.04497 0.14999 0.0
C662 C 0.35515 0.06275 0.13974 0.0
C663 C 0.36869 0.08546 0.13747 0.0
H664 H 0.35587 0.0274 0.1517 0.0
H665 H 0.48787 0.2478 0.13174 0.0
H666 H 0.25845 0.96266 0.59288 0.0
H667 H 0.21547 0.97023 0.59059 0.0
H668 H 0.2033 0.92467 0.52372 0.0
H669 H 0.24642 0.91758 0.52542 0.0
H670 H 0.18984 0.96653 0.51592 0.0
H671 H 0.17592 0.90811 0.58147 0.0
H672 H 0.18315 0.89004 0.62264 0.0
H673 H 0.16567 0.95049 0.6639 0.0
H674 H 0.15867 0.96908 0.62294 0.0
H675 H 0.06391 0.96865 0.49911 0.0
H676 H 0.10104 0.95244 0.51034 0.0
H677 H 0.11192 0.99917 0.57639 0.0
H678 H 0.07412 1.01498 0.56561 0.0
H679 H 0.1255 0.95624 0.58594 0.0
H680 H 0.14175 1.01548 0.52126 0.0
H681 H 0.13456 0.03426 0.48048 0.0
H682 H 0.14865 0.97312 0.43816 0.0
H683 H 0.15556 0.95384 0.47874 0.0
C684 C 0.2466 0.95428 0.57769 0.0
C685 C 0.25585 0.93965 0.55922 0.0
C686 C 0.22198 0.95838 0.57661 0.0
C687 C 0.20617 0.94785 0.55712 0.0
C688 C 0.21519 0.93288 0.53898 0.0
C689 C 0.23979 0.92876 0.54005 0.0
C690 C 0.18093 0.95392 0.5543 0.0
C691 C 0.17564 0.96389 0.53109 0.0
C692 C 0.16275 0.95122 0.57444 0.0
C693 C 0.16701 0.94009 0.5991 0.0
C694 C 0.17384 0.91765 0.5993 0.0
C695 C 0.17785 0.90729 0.62261 0.0
C696 C 0.17494 0.91913 0.64587 0.0
C697 C 0.16795 0.94135 0.64587 0.0
C698 C 0.16394 0.95179 0.62261 0.0
C699 C 0.07399 0.97516 0.51628 0.0
C700 C 0.06657 0.9933 0.53127 0.0
C701 C 0.09515 0.96591 0.52266 0.0
C702 C 0.10951 0.97502 0.54382 0.0
C703 C 0.10113 0.99202 0.55989 0.0
C704 C 0.07966 1.00108 0.55369 0.0
C705 C 0.13443 0.96848 0.54745 0.0
C706 C 0.13971 0.95867 0.57078 0.0
C707 C 0.15278 0.97146 0.5275 0.0
C708 C 0.14896 0.98314 0.50304 0.0
C709 C 0.14316 1.00599 0.50326 0.0
C710 C 0.13915 1.01673 0.48019 0.0
C711 C 0.14109 1.00487 0.45675 0.0
C712 C 0.14712 0.98227 0.45633 0.0
C713 C 0.15111 0.97144 0.47936 0.0
H714 H 0.13797 1.01321 0.4389 0.0
H715 H 0.17804 0.91108 0.6639 0.0
H716 H 0.78799 0.3772 0.87875 0.0
H717 H 0.82478 0.39716 0.90116 0.0
H718 H 0.78001 0.44271 0.93964 0.0
H719 H 0.74271 0.42237 0.91771 0.0
H720 H 0.8259 0.46725 0.92308 0.0
H721 H 0.79709 0.39792 0.97167 0.0
H722 H 0.78347 0.3555 0.97811 0.0
H723 H 0.85461 0.34184 0.94952 0.0
H724 H 0.86853 0.38418 0.94256 0.0
H725 H 0.91878 0.51358 1.01351 0.0
H726 H 0.88026 0.49499 0.99281 0.0
H727 H 0.91801 0.43969 0.96321 0.0
H728 H 0.95622 0.45768 0.98524 0.0
H729 H 0.87434 0.42064 0.97591 0.0
H730 H 0.90324 0.48954 0.92598 0.0
H731 H 0.91741 0.53191 0.91959 0.0
H732 H 0.84722 0.54657 0.94974 0.0
H733 H 0.8327 0.50427 0.95658 0.0
C734 C 0.78569 0.39124 0.89219 0.0
C735 C 0.76196 0.39776 0.89652 0.0
C736 C 0.80695 0.4028 0.90495 0.0
C737 C 0.80532 0.42134 0.92247 0.0
C738 C 0.7819 0.42847 0.92629 0.0
C739 C 0.76051 0.4168 0.9136 0.0
C740 C 0.82796 0.43281 0.93704 0.0
C741 C 0.83631 0.4571 0.93489 0.0
C742 C 0.84204 0.41965 0.9521 0.0
C743 C 0.83376 0.3942 0.95637 0.0
C744 C 0.80976 0.38585 0.96657 0.0
C745 C 0.802 0.36183 0.97035 0.0
C746 C 0.81814 0.34598 0.96417 0.0
C747 C 0.84211 0.35414 0.95426 0.0
C748 C 0.84996 0.37815 0.95042 0.0
C749 C 0.91887 0.49744 1.00261 0.0
C750 C 0.94067 0.4872 1.001 0.0
C751 C 0.89679 0.48685 0.99053 0.0
C752 C 0.89605 0.4661 0.97566 0.0
C753 C 0.9178 0.45567 0.97439 0.0
C754 C 0.93974 0.46598 0.98704 0.0
C755 C 0.87267 0.45514 0.96174 0.0
C756 C 0.86408 0.43089 0.96405 0.0
C757 C 0.85852 0.46836 0.94668 0.0
C758 C 0.86696 0.49374 0.94196 0.0
C759 C 0.89085 0.5018 0.93131 0.0
C760 C 0.89894 0.5258 0.92761 0.0
C761 C 0.88322 0.54192 0.93427 0.0
C762 C 0.85935 0.53405 0.94457 0.0
C763 C 0.85117 0.51007 0.94833 0.0
H764 H 0.88954 0.56049 0.93144 0.0
H765 H 0.8121 0.32739 0.96711 0.0
H766 H 0.72489 0.63787 0.37055 0.0
H767 H 0.68791 0.61852 0.39399 0.0
H768 H 0.73242 0.61528 0.46128 0.0
H769 H 0.76977 0.63427 0.43755 0.0
H770 H 0.69983 0.57645 0.45819 0.0
H771 H 0.69299 0.65744 0.45452 0.0
H772 H 0.69246 0.69569 0.43447 0.0
H773 H 0.62925 0.66537 0.38947 0.0
H774 H 0.62963 0.62683 0.40899 0.0
H775 H 0.59444 0.5623 0.5468 0.0
H776 H 0.63318 0.57715 0.52288 0.0
H777 H 0.59278 0.56853 0.4518 0.0
H778 H 0.55404 0.55329 0.47564 0.0
H779 H 0.62335 0.61317 0.45778 0.0
H780 H 0.63061 0.53163 0.46435 0.0
H781 H 0.63087 0.49506 0.48796 0.0
H782 H 0.69368 0.52866 0.53159 0.0
H783 H 0.69353 0.56559 0.50853 0.0
C784 C 0.72687 0.63308 0.39036 0.0
C785 C 0.75036 0.63794 0.4022 0.0
C786 C 0.70561 0.62201 0.40383 0.0
C787 C 0.70701 0.61582 0.42975 0.0
C788 C 0.73063 0.61991 0.44139 0.0
C789 C 0.75204 0.63078 0.42777 0.0
C790 C 0.68378 0.6056 0.44465 0.0
C791 C 0.68326 0.5847 0.4583 0.0
C792 C 0.66183 0.61605 0.44481 0.0
C793 C 0.6615 0.63919 0.43303 0.0
C794 C 0.6791 0.65889 0.4402 0.0
C795 C 0.67881 0.68063 0.42896 0.0
C796 C 0.66087 0.68295 0.41066 0.0
C797 C 0.64315 0.66354 0.40362 0.0
C798 C 0.64339 0.64174 0.41478 0.0
C799 C 0.59387 0.56337 0.52604 0.0
C800 C 0.57116 0.55662 0.51313 0.0
C801 C 0.61604 0.57184 0.51237 0.0
C802 C 0.616 0.57398 0.48547 0.0
C803 C 0.59334 0.56709 0.47252 0.0
C804 C 0.57122 0.55828 0.48615 0.0
C805 C 0.6394 0.58401 0.47098 0.0
C806 C 0.63994 0.60493 0.45752 0.0
C807 C 0.66142 0.57379 0.47139 0.0
C808 C 0.66191 0.55145 0.48487 0.0
C809 C 0.64438 0.53128 0.4791 0.0
C810 C 0.64451 0.51047 0.49237 0.0
C811 C 0.66224 0.50955 0.51131 0.0
C812 C 0.67994 0.52941 0.51693 0.0
C813 C 0.67985 0.55028 0.50375 0.0
H814 H 0.6623 0.49344 0.52159 0.0
H815 H 0.66067 0.69979 0.40198 0.0
H816 H 0.24753 0.3128 0.17287 0.0
H817 H 0.21594 0.33204 0.15324 0.0
H818 H 0.25942 0.39979 0.17105 0.0
H819 H 0.29132 0.38062 0.19058 0.0
H820 H 0.2106 0.39771 0.18488 0.0
H821 H 0.25633 0.37892 0.10958 0.0
H822 H 0.27603 0.35322 0.08004 0.0
H823 H 0.20468 0.30975 0.06814 0.0
H824 H 0.1846 0.335 0.0979 0.0
H825 H 0.13416 0.46103 0.11315 0.0
H826 H 0.16919 0.44492 0.13022 0.0
H827 H 0.13324 0.37505 0.10884 0.0
H828 H 0.099 0.39111 0.09015 0.0
H829 H 0.18032 0.38014 0.09607 0.0
H830 H 0.1348 0.3969 0.17278 0.0
H831 H 0.11455 0.4217 0.20292 0.0
H832 H 0.1846 0.46789 0.21278 0.0
H833 H 0.20521 0.44351 0.18245 0.0
C834 C 0.25066 0.33179 0.17217 0.0
C835 C 0.27203 0.34517 0.1832 0.0
C836 C 0.23252 0.34277 0.16102 0.0
C837 C 0.23542 0.36735 0.1605 0.0
C838 C 0.2568 0.38079 0.17128 0.0
C839 C 0.27498 0.36981 0.18246 0.0
C840 C 0.21567 0.37895 0.14948 0.0
C841 C 0.20424 0.39418 0.16531 0.0
C842 C 0.20698 0.3739 0.12418 0.0
C843 C 0.219 0.35876 0.10614 0.0
C844 C 0.24487 0.36378 0.10081 0.0
C845 C 0.2561 0.34931 0.084 0.0
C846 C 0.24163 0.32984 0.07226 0.0
C847 C 0.21588 0.32483 0.07726 0.0
C848 C 0.20455 0.33923 0.09407 0.0
C849 C 0.13374 0.44224 0.11186 0.0
C850 C 0.11361 0.4274 0.10025 0.0
C851 C 0.1537 0.43302 0.12195 0.0
C852 C 0.15375 0.40871 0.12113 0.0
C853 C 0.13362 0.39386 0.10977 0.0
C854 C 0.11384 0.40307 0.09938 0.0
C855 C 0.17496 0.39869 0.13156 0.0
C856 C 0.18672 0.38377 0.1156 0.0
C857 C 0.18382 0.40391 0.15681 0.0
C858 C 0.17149 0.41851 0.17515 0.0
C859 C 0.14585 0.41244 0.18124 0.0
C860 C 0.13431 0.4264 0.19838 0.0
C861 C 0.14826 0.44639 0.2097 0.0
C862 C 0.1738 0.45242 0.20397 0.0
C863 C 0.18543 0.43852 0.18683 0.0
H864 H 0.13929 0.45718 0.22296 0.0
H865 H 0.25036 0.31865 0.05925 0.0
H866 H 0.59797 0.24006 0.86167 0.0
H867 H 0.57842 0.20351 0.88163 0.0
H868 H 0.60165 0.23166 0.9562 0.0
H869 H 0.62024 0.26881 0.93671 0.0
H870 H 0.61133 0.18514 0.94757 0.0
H871 H 0.54243 0.22742 0.94161 0.0
H872 H 0.51428 0.24961 0.91942 0.0
H873 H 0.49181 0.19083 0.86847 0.0
H874 H 0.52012 0.1684 0.89014 0.0
H875 H 0.53948 0.09181 1.02017 0.0
H876 H 0.56012 0.12944 1.00281 0.0
H877 H 0.5225 0.11245 0.93081 0.0
H878 H 0.5011 0.07552 0.94869 0.0
H879 H 0.5207 0.1546 0.9394 0.0
H880 H 0.58965 0.11241 0.94256 0.0
H881 H 0.61847 0.08953 0.96265 0.0
H882 H 0.64192 0.14645 1.01569 0.0
H883 H 0.613 0.16958 0.99611 0.0
C884 C 0.59861 0.23889 0.88238 0.0
C885 C 0.61087 0.25792 0.89733 0.0
C886 C 0.58752 0.21769 0.8938 0.0
C887 C 0.58846 0.21462 0.92052 0.0
C888 C 0.60075 0.23338 0.93554 0.0
C889 C 0.61155 0.25474 0.9242 0.0
C890 C 0.57652 0.19193 0.93272 0.0
C891 C 0.59145 0.1786 0.94606 0.0
C892 C 0.55068 0.18291 0.93033 0.0
C893 C 0.53358 0.19632 0.91734 0.0
C894 C 0.53164 0.2193 0.92554 0.0
C895 C 0.51563 0.2319 0.91308 0.0
C896 C 0.50132 0.22166 0.8925 0.0
C897 C 0.50294 0.19876 0.88439 0.0
C898 C 0.51895 0.18608 0.89677 0.0
C899 C 0.53594 0.09595 1.00055 0.0
C900 C 0.51882 0.08045 0.98579 0.0
C901 C 0.54782 0.11758 0.99049 0.0
C902 C 0.54337 0.12406 0.96513 0.0
C903 C 0.52643 0.10828 0.95038 0.0
C904 C 0.51425 0.08696 0.9606 0.0
C905 C 0.55553 0.14736 0.95408 0.0
C906 C 0.54062 0.16095 0.94096 0.0
C907 C 0.58147 0.15641 0.95634 0.0
C908 C 0.59898 0.14262 0.96804 0.0
C909 C 0.60084 0.11999 0.95862 0.0
C910 C 0.6172 0.10698 0.9699 0.0
C911 C 0.63196 0.11651 0.99048 0.0
C912 C 0.63045 0.13909 0.99977 0.0
C913 C 0.61409 0.15216 0.98858 0.0
H914 H 0.64461 0.10641 0.99919 0.0
H915 H 0.48893 0.23145 0.88288 0.0
H916 H 0.88442 0.80128 0.36819 0.0
H917 H 0.90106 0.83836 0.38961 0.0
H918 H 0.91846 0.80086 0.45601 0.0
H919 H 0.90149 0.76352 0.43467 0.0
H920 H 0.9004 0.83838 0.47177 0.0
H921 H 0.96447 0.82572 0.41124 0.0
H922 H 0.98256 0.81736 0.36885 0.0
H923 H 0.96073 0.8794 0.33852 0.0
H924 H 0.9422 0.88797 0.38065 0.0
H925 H 0.98071 0.93624 0.52758 0.0
H926 H 0.96296 0.89851 0.50821 0.0
H927 H 0.94338 0.93386 0.44113 0.0
H928 H 0.96153 0.97177 0.46039 0.0
H929 H 0.96303 0.89692 0.42666 0.0
H930 H 0.89878 0.90915 0.4884 0.0
H931 H 0.88258 0.91759 0.53165 0.0
H932 H 0.90689 0.85625 0.56077 0.0
H933 H 0.92348 0.84755 0.51772 0.0
C934 C 0.89202 0.8008 0.38725 0.0
C935 C 0.89182 0.7792 0.39948 0.0
C936 C 0.90155 0.82215 0.39956 0.0
C937 C 0.91155 0.82264 0.42438 0.0
C938 C 0.91096 0.80114 0.43687 0.0
C939 C 0.90123 0.77972 0.42461 0.0
C940 C 0.9226 0.84555 0.43709 0.0
C941 C 0.91434 0.85101 0.46198 0.0
C942 C 0.94057 0.86242 0.4244 0.0
C943 C 0.95173 0.85735 0.39904 0.0
C944 C 0.96336 0.83748 0.39548 0.0
C945 C 0.97372 0.83272 0.37151 0.0
C946 C 0.97274 0.8478 0.35099 0.0
C947 C 0.96145 0.86771 0.35442 0.0
C948 C 0.95103 0.87254 0.37835 0.0
C949 C 0.97233 0.93611 0.50888 0.0
C950 C 0.97234 0.95723 0.49579 0.0
C951 C 0.96212 0.91439 0.49775 0.0
C952 C 0.95135 0.91313 0.47326 0.0
C953 C 0.95145 0.9342 0.46005 0.0
C954 C 0.96181 0.95595 0.47115 0.0
C955 C 0.94062 0.88988 0.46115 0.0
C956 C 0.94903 0.88432 0.43641 0.0
C957 C 0.92296 0.87289 0.47408 0.0
C958 C 0.91252 0.87779 0.49986 0.0
C959 C 0.90076 0.89751 0.50405 0.0
C960 C 0.89151 0.90233 0.52852 0.0
C961 C 0.89373 0.88748 0.54894 0.0
C962 C 0.90517 0.86773 0.54492 0.0
C963 C 0.91447 0.86282 0.52048 0.0
H964 H 0.8865 0.89122 0.56784 0.0
H965 H 0.98077 0.84409 0.33244 0.0
H966 H 0.41123 0.83531 0.51372 0.0
H967 H 0.41796 0.79492 0.50649 0.0
H968 H 0.34367 0.76935 0.53622 0.0
H969 H 0.33695 0.80977 0.54369 0.0
H970 H 0.37677 0.75085 0.56093 0.0
H971 H 0.35977 0.75942 0.47303 0.0
H972 H 0.36236 0.77777 0.43043 0.0
H973 H 0.44036 0.77254 0.42416 0.0
H974 H 0.43837 0.75448 0.46692 0.0
H975 H 0.4003 0.63464 0.549 0.0
H976 H 0.38087 0.6683 0.53761 0.0
H977 H 0.45365 0.70799 0.51959 0.0
H978 H 0.47318 0.67431 0.53064 0.0
H979 H 0.4149 0.71569 0.4853 0.0
H980 H 0.43203 0.71392 0.57673 0.0
H981 H 0.42902 0.69529 0.61923 0.0
H982 H 0.34886 0.6876 0.61778 0.0
H983 H 0.35141 0.70589 0.57504 0.0
C984 C 0.3961 0.82108 0.51805 0.0
C985 C 0.37368 0.82563 0.52952 0.0
C986 C 0.39992 0.79799 0.51384 0.0
C987 C 0.38128 0.77909 0.52075 0.0
C988 C 0.35833 0.78366 0.53082 0.0
C989 C 0.35455 0.80673 0.53517 0.0
C990 C 0.38703 0.75491 0.52074 0.0
C991 C 0.38448 0.74295 0.54415 0.0
C992 C 0.39757 0.74476 0.49902 0.0
C993 C 0.39895 0.75574 0.47332 0.0
C994 C 0.37754 0.76237 0.46269 0.0
C995 C 0.37889 0.77268 0.43848 0.0
C996 C 0.40152 0.77636 0.42462 0.0
C997 C 0.42284 0.76969 0.43493 0.0
C998 C 0.42161 0.75938 0.45914 0.0
C999 C 0.4121 0.65036 0.54207 0.0
C1000 C 0.43826 0.65201 0.541 0.0
C1001 C 0.40099 0.66954 0.53561 0.0
C1002 C 0.41589 0.69059 0.52794 0.0
C1003 C 0.44188 0.69185 0.52547 0.0
C1004 C 0.453 0.67273 0.53205 0.0
C1005 C 0.40484 0.71211 0.52545 0.0
C1006 C 0.40658 0.72352 0.50175 0.0
C1007 C 0.39342 0.7218 0.54683 0.0
C1008 C 0.39189 0.71099 0.57258 0.0
C1009 C 0.41376 0.70807 0.58538 0.0
C1010 C 0.41214 0.69761 0.60952 0.0
C1011 C 0.38876 0.69019 0.62116 0.0
C1012 C 0.36696 0.6933 0.60871 0.0
C1013 C 0.36847 0.70372 0.58454 0.0
H1014 H 0.38755 0.6821 0.63986 0.0
H1015 H 0.40252 0.78433 0.40587 0.0
H1016 H 0.75707 0.85658 0.73805 0.0
H1017 H 0.78171 0.86272 0.69834 0.0
H1018 H 0.81084 0.79876 0.71048 0.0
H1019 H 0.78717 0.79313 0.75093 0.0
H1020 H 0.84727 0.83331 0.70576 0.0
H1021 H 0.77626 0.80624 0.6557 0.0
H1022 H 0.73251 0.80192 0.64176 0.0
H1023 H 0.74302 0.87516 0.62371 0.0
H1024 H 0.78673 0.88004 0.63791 0.0
H1025 H 0.93484 0.88253 0.61211 0.0
H1026 H 0.89984 0.85274 0.62644 0.0
H1027 H 0.85399 0.90649 0.63786 0.0
H1028 H 0.88847 0.93605 0.6229 0.0
H1029 H 0.82584 0.86512 0.62265 0.0
H1030 H 0.89044 0.89272 0.68608 0.0
H1031 H 0.93375 0.89851 0.70177 0.0
H1032 H 0.93387 0.8243 0.69557 0.0
H1033 H 0.89063 0.81814 0.67953 0.0
C1034 C 0.76837 0.84359 0.73204 0.0
C1035 C 0.77047 0.8246 0.74791 0.0
C1036 C 0.7822 0.84693 0.70908 0.0
C1037 C 0.79814 0.83116 0.70131 0.0
C1038 C 0.79865 0.81114 0.71605 0.0
C1039 C 0.78495 0.80788 0.73914 0.0
C1040 C 0.81723 0.83785 0.6807 0.0
C1041 C 0.84249 0.83949 0.68721 0.0
C1042 C 0.81113 0.8463 0.65664 0.0
C1043 C 0.78482 0.84351 0.64796 0.0
C1044 C 0.76922 0.82147 0.64891 0.0
C1045 C 0.74442 0.81892 0.64094 0.0
C1046 C 0.73499 0.83825 0.63187 0.0
C1047 C 0.75036 0.86018 0.63072 0.0
C1048 C 0.77518 0.86284 0.63868 0.0
C1049 C 0.91708 0.88785 0.61705 0.0
C1050 C 0.91453 0.91167 0.61707 0.0
C1051 C 0.89713 0.87084 0.62523 0.0
C1052 C 0.87447 0.87748 0.63365 0.0
C1053 C 0.87131 0.90096 0.63155 0.0
C1054 C 0.89114 0.91789 0.62335 0.0
C1055 C 0.85549 0.86121 0.64831 0.0
C1056 C 0.83041 0.85795 0.64075 0.0
C1057 C 0.86162 0.85133 0.67155 0.0
C1058 C 0.8875 0.85501 0.68131 0.0
C1059 C 0.89979 0.87767 0.68792 0.0
C1060 C 0.92429 0.88102 0.69688 0.0
C1061 C 0.93658 0.86179 0.69958 0.0
C1062 C 0.92435 0.83918 0.6934 0.0
C1063 C 0.89986 0.83575 0.68437 0.0
H1064 H 0.95555 0.86441 0.70654 0.0
H1065 H 0.71578 0.83624 0.62571 0.0
H1066 H 0.71332 0.15288 0.34372 0.0
H1067 H 0.68482 0.12773 0.31523 0.0
H1068 H 0.65255 0.18755 0.29282 0.0
H1069 H 0.68016 0.21267 0.32227 0.0
H1070 H 0.617 0.14915 0.2975 0.0
H1071 H 0.69859 0.16848 0.25651 0.0
H1072 H 0.74437 0.17062 0.25319 0.0
H1073 H 0.73571 0.09563 0.25879 0.0
H1074 H 0.68985 0.09309 0.2625 0.0
H1075 H 0.57916 0.12321 0.169 0.0
H1076 H 0.59679 0.1382 0.2102 0.0
H1077 H 0.61835 0.07108 0.2246 0.0
H1078 H 0.60086 0.05604 0.18326 0.0
H1079 H 0.65731 0.10773 0.22809 0.0
H1080 H 0.57457 0.08847 0.26206 0.0
H1081 H 0.52886 0.08707 0.26394 0.0
H1082 H 0.53931 0.16227 0.2701 0.0
H1083 H 0.5851 0.16417 0.26787 0.0
C1084 C 0.69982 0.16063 0.33316 0.0
C1085 C 0.69917 0.18485 0.33511 0.0
C1086 C 0.68367 0.14625 0.31673 0.0
C1087 C 0.66685 0.15584 0.30164 0.0
C1088 C 0.66547 0.17981 0.30425 0.0
C1089 C 0.68148 0.19419 0.32083 0.0
C1090 C 0.65185 0.14132 0.2819 0.0
C1091 C 0.62577 0.14017 0.28223 0.0
C1092 C 0.6633 0.12912 0.2624 0.0
C1093 C 0.69084 0.13062 0.2601 0.0
C1094 C 0.70647 0.15247 0.25724 0.0
C1095 C 0.73242 0.15375 0.25525 0.0
C1096 C 0.74295 0.13328 0.25586 0.0
C1097 C 0.72753 0.11148 0.25838 0.0
C1098 C 0.70156 0.1101 0.26042 0.0
C1099 C 0.58736 0.11159 0.18114 0.0
C1100 C 0.58881 0.08854 0.17295 0.0
C1101 C 0.59721 0.12008 0.20473 0.0
C1102 C 0.60873 0.10568 0.22046 0.0
C1103 C 0.6094 0.08239 0.21275 0.0
C1104 C 0.59935 0.07382 0.18924 0.0
C1105 C 0.62247 0.11586 0.2434 0.0
C1106 C 0.6484 0.11629 0.24362 0.0
C1107 C 0.61087 0.12749 0.26324 0.0
C1108 C 0.58331 0.12646 0.26461 0.0
C1109 C 0.56714 0.10473 0.2636 0.0
C1110 C 0.5412 0.10384 0.26477 0.0
C1111 C 0.53119 0.12456 0.26709 0.0
C1112 C 0.5471 0.14622 0.2683 0.0
C1113 C 0.57305 0.14722 0.26712 0.0
H1114 H 0.5111 0.12384 0.26799 0.0
H1115 H 0.76305 0.13431 0.25431 0.0
H1116 H 0.41818 0.62704 0.27758 0.0
H1117 H 0.43324 0.60903 0.31497 0.0
H1118 H 0.39606 0.65298 0.36526 0.0
H1119 H 0.38142 0.67157 0.32763 0.0
H1120 H 0.438 0.64941 0.38604 0.0
H1121 H 0.37291 0.59177 0.35282 0.0
H1122 H 0.34952 0.56582 0.32024 0.0
H1123 H 0.41276 0.53085 0.30748 0.0
H1124 H 0.43667 0.55681 0.33976 0.0
H1125 H 0.45392 0.58051 0.49663 0.0
H1126 H 0.43643 0.60045 0.46191 0.0
H1127 H 0.47283 0.561 0.40586 0.0
H1128 H 0.48962 0.54053 0.44047 0.0
H1129 H 0.42857 0.5627 0.38974 0.0
H1130 H 0.49339 0.62266 0.42466 0.0
H1131 H 0.51402 0.6485 0.45899 0.0
H1132 H 0.44749 0.67891 0.47066 0.0
H1133 H 0.42631 0.65294 0.43679 0.0
C1134 C 0.41301 0.63284 0.29656 0.0
C1135 C 0.39822 0.65066 0.29936 0.0
C1136 C 0.42164 0.62241 0.3181 0.0
C1137 C 0.41541 0.62904 0.34332 0.0
C1138 C 0.40116 0.64728 0.34621 0.0
C1139 C 0.39275 0.65797 0.32458 0.0
C1140 C 0.42377 0.61692 0.36641 0.0
C1141 C 0.43559 0.63043 0.38691 0.0
C1142 C 0.42098 0.59208 0.36793 0.0
C1143 C 0.40666 0.57639 0.34854 0.0
C1144 C 0.38189 0.57865 0.34294 0.0
C1145 C 0.36854 0.56393 0.32454 0.0
C1146 C 0.37967 0.54673 0.31175 0.0
C1147 C 0.40417 0.54419 0.31738 0.0
C1148 C 0.41763 0.5589 0.33574 0.0
C1149 C 0.45823 0.57605 0.47694 0.0
C1150 C 0.47331 0.55882 0.47158 0.0
C1151 C 0.4483 0.58765 0.45694 0.0
C1152 C 0.4535 0.58271 0.43089 0.0
C1153 C 0.46839 0.56534 0.42559 0.0
C1154 C 0.47809 0.55359 0.44554 0.0
C1155 C 0.44331 0.59517 0.40912 0.0
C1156 C 0.43102 0.58169 0.38886 0.0
C1157 C 0.44534 0.62 0.40808 0.0
C1158 C 0.45819 0.63569 0.42835 0.0
C1159 C 0.4831 0.63473 0.43469 0.0
C1160 C 0.4949 0.6494 0.45409 0.0
C1161 C 0.48205 0.66526 0.46709 0.0
C1162 C 0.4574 0.66654 0.46069 0.0
C1163 C 0.4455 0.65186 0.44139 0.0
H1164 H 0.49122 0.67663 0.48207 0.0
H1165 H 0.3693 0.53535 0.29752 0.0
H1166 H 0.11901 0.43555 0.78302 0.0
H1167 H 0.10117 0.45653 0.81812 0.0
H1168 H 0.09571 0.39566 0.8658 0.0
H1169 H 0.1144 0.37477 0.83127 0.0
H1170 H 0.05251 0.4164 0.86924 0.0
H1171 H 0.14166 0.44072 0.87562 0.0
H1172 H 0.18397 0.45688 0.85936 0.0
H1173 H 0.15939 0.52154 0.84143 0.0
H1174 H 0.11682 0.50563 0.85727 0.0
H1175 H 0.02478 0.47399 0.98656 0.0
H1176 H 0.04357 0.45094 0.95375 0.0
H1177 H 0.06434 0.51325 0.90847 0.0
H1178 H 0.04728 0.53641 0.94209 0.0
H1179 H 0.10033 0.49051 0.90447 0.0
H1180 H 0.01166 0.46749 0.89613 0.0
H1181 H 0.96868 0.45251 0.91143 0.0
H1182 H 0.9906 0.38701 0.93077 0.0
H1183 H 0.03383 0.40174 0.91597 0.0
C1184 C 0.11433 0.42657 0.80099 0.0
C1185 C 0.11841 0.40327 0.80398 0.0
C1186 C 0.10392 0.43864 0.8211 0.0
C1187 C 0.09713 0.42781 0.84481 0.0
C1188 C 0.10062 0.40445 0.84773 0.0
C1189 C 0.11126 0.39243 0.82774 0.0
C1190 C 0.08696 0.44098 0.86669 0.0
C1191 C 0.06309 0.43246 0.87715 0.0
C1192 C 0.10039 0.46226 0.87678 0.0
C1193 C 0.126 0.4719 0.8674 0.0
C1194 C 0.14523 0.45832 0.86803 0.0
C1195 C 0.16927 0.46744 0.85892 0.0
C1196 C 0.17435 0.4902 0.84931 0.0
C1197 C 0.15542 0.5039 0.84885 0.0
C1198 C 0.13134 0.49485 0.85791 0.0
C1199 C 0.03412 0.48287 0.97006 0.0
C1200 C 0.0352 0.50719 0.96741 0.0
C1201 C 0.04439 0.46957 0.95089 0.0
C1202 C 0.05531 0.48014 0.9282 0.0
C1203 C 0.05626 0.50448 0.92565 0.0
C1204 C 0.04635 0.51776 0.94492 0.0
C1205 C 0.06564 0.46614 0.907 0.0
C1206 C 0.08962 0.47447 0.89664 0.0
C1207 C 0.05212 0.44488 0.89676 0.0
C1208 C 0.02604 0.4358 0.90518 0.0
C1209 C 1.00734 0.44993 0.90377 0.0
C1210 C 0.98294 0.44149 0.91236 0.0
C1211 C 0.97693 0.41885 0.92213 0.0
C1212 C 0.99529 0.40456 0.92324 0.0
C1213 C 0.01975 0.41294 0.91475 0.0
H1214 H 0.95804 0.41236 0.9288 0.0
H1215 H 0.19297 0.49723 0.84226 0.0
H1216 H 0.64935 0.87034 0.8603 0.0
H1217 H 0.61973 0.89581 0.87382 0.0
H1218 H 0.62322 0.8733 0.95213 0.0
H1219 H 0.6517 0.84667 0.93852 0.0
H1220 H 0.57784 0.88102 0.94329 0.0
H1221 H 0.66118 0.92313 0.92981 0.0
H1222 H 0.7003 0.93617 0.90527 0.0
H1223 H 0.65954 0.96748 0.84918 0.0
H1224 H 0.62011 0.95433 0.87323 0.0
H1225 H 0.57763 1.00691 0.9932 0.0
H1226 H 0.5994 0.97863 0.97064 0.0
H1227 H 0.52964 0.9445 0.9385 0.0
H1228 H 0.50758 0.97243 0.96143 0.0
H1229 H 0.60677 0.96484 0.92272 0.0
H1230 H 0.52825 0.88536 0.93931 0.0
H1231 H 0.4923 0.87384 0.96893 0.0
H1232 H 0.52924 0.91909 0.02791 0.0
H1233 H 0.56554 0.93058 0.99879 0.0
C1234 C 0.64324 0.87017 0.88026 0.0
C1235 C 0.65325 0.85665 0.89839 0.0
C1236 C 0.62649 0.885 0.88802 0.0
C1237 C 0.61975 0.88693 0.91409 0.0
C1238 C 0.62832 0.87228 0.93193 0.0
C1239 C 0.64483 0.85723 0.92415 0.0
C1240 C 0.60561 0.90553 0.92316 0.0
C1241 C 0.58404 0.89931 0.9386 0.0
C1242 C 0.614 0.9295 0.91758 0.0
C1243 C 0.63768 0.93753 0.90315 0.0
C1244 C 0.66055 0.93266 0.91214 0.0
C1245 C 0.68277 0.94008 0.89834 0.0
C1246 C 0.6824 0.95258 0.87564 0.0
C1247 C 0.65979 0.95775 0.86674 0.0
C1248 C 0.6375 0.95032 0.88045 0.0
C1249 C 0.56694 0.99364 0.981 0.0
C1250 C 0.54082 0.99171 0.97941 0.0
C1251 C 0.57944 0.97749 0.96809 0.0
C1252 C 0.56607 0.95919 0.9533 0.0
C1253 C 0.54024 0.95821 0.95024 0.0
C1254 C 0.52768 0.97424 0.9633 0.0
C1255 C 0.57894 0.94031 0.94264 0.0
C1256 C 0.60031 0.9465 0.92701 0.0
C1257 C 0.57085 0.91643 0.94878 0.0
C1258 C 0.54947 0.90901 0.96675 0.0
C1259 C 0.52875 0.89274 0.95864 0.0
C1260 C 0.5083 0.88623 0.97534 0.0
C1261 C 0.50844 0.89579 1.00025 0.0
C1262 C 0.52911 0.91175 1.00859 0.0
C1263 C 0.54962 0.91827 0.99199 0.0
H1264 H 0.49256 0.8908 1.01311 0.0
H1265 H 0.69962 0.95832 0.86498 0.0
H1266 H 0.82339 0.15156 0.41883 0.0
H1267 H 0.84739 0.12318 0.4356 0.0
H1268 H 0.89006 0.17777 0.48204 0.0
H1269 H 0.86711 0.20653 0.46427 0.0
H1270 H 0.91972 0.15196 0.45959 0.0
H1271 H 0.8421 0.13631 0.50759 0.0
H1272 H 0.79625 0.12675 0.51314 0.0
H1273 H 0.79593 0.0614 0.47229 0.0
H1274 H 0.84176 0.07073 0.4662 0.0
H1275 H 0.96374 0.08052 0.55511 0.0
H1276 H 0.93964 0.10715 0.53432 0.0
H1277 H 0.92065 0.05625 0.47312 0.0
H1278 H 0.94556 0.02993 0.49329 0.0
H1279 H 0.87887 0.07836 0.50094 0.0
H1280 H 0.95761 0.09384 0.45585 0.0
H1281 H 1.00299 0.10477 0.44932 0.0
H1282 H 1.00091 0.17233 0.48422 0.0
H1283 H 0.95562 0.16137 0.49221 0.0
C1284 C 0.83811 0.15761 0.43234 0.0
C1285 C 0.84334 0.18133 0.4402 0.0
C1286 C 0.85157 0.14128 0.44218 0.0
C1287 C 0.87022 0.14829 0.46037 0.0
C1288 C 0.87562 0.17197 0.46811 0.0
C1289 C 0.86235 0.18835 0.4581 0.0
C1290 C 0.88462 0.13113 0.47095 0.0
C1291 C 0.9108 0.13604 0.46899 0.0
C1292 C 0.87287 0.11002 0.48247 0.0
C1293 C 0.84533 0.10433 0.48622 0.0
C1294 C 0.83223 0.11998 0.49962 0.0
C1295 C 0.80625 0.11459 0.50289 0.0
C1296 C 0.79318 0.09351 0.49301 0.0
C1297 C 0.80607 0.07774 0.4799 0.0
C1298 C 0.83205 0.08306 0.47656 0.0
C1299 C 0.95439 0.07507 0.53723 0.0
C1300 C 0.95634 0.05327 0.52574 0.0
C1301 C 0.94076 0.09025 0.52539 0.0
C1302 C 0.92851 0.08357 0.50225 0.0
C1303 C 0.93006 0.06162 0.49098 0.0
C1304 C 0.94425 0.04669 0.50246 0.0
C1305 C 0.9139 0.09954 0.49 0.0
C1306 C 0.88772 0.09434 0.4916 0.0
C1307 C 0.92563 0.12053 0.47838 0.0
C1308 C 0.95321 0.12655 0.47516 0.0
C1309 C 0.9669 0.11075 0.46287 0.0
C1310 C 0.99269 0.11698 0.45887 0.0
C1311 C 1.00503 0.13908 0.46668 0.0
C1312 C 0.99152 0.15504 0.47852 0.0
C1313 C 0.96577 0.14879 0.48292 0.0
H1314 H 0.02499 0.14389 0.46331 0.0
H1315 H 0.77306 0.08937 0.49556 0.0
H1316 H 0.25966 0.67514 0.12964 0.0
H1317 H 0.22024 0.65582 0.11128 0.0
H1318 H 0.21611 0.60038 0.16634 0.0
H1319 H 0.25601 0.61932 0.18438 0.0
H1320 H 0.2039 0.58209 0.11977 0.0
H1321 H 0.17854 0.64345 0.17188 0.0
H1322 H 0.17951 0.68407 0.18774 0.0
H1323 H 0.16258 0.70514 0.1122 0.0
H1324 H 0.16184 0.66469 0.0958 0.0
H1325 H 0.07929 0.52932 0.09176 0.0
H1326 H 0.11728 0.54866 0.11267 0.0
H1327 H 0.11885 0.60891 0.06447 0.0
H1328 H 0.07978 0.59006 0.04458 0.0
H1329 H 0.13249 0.62441 0.1086 0.0
H1330 H 0.15893 0.56281 0.05615 0.0
H1331 H 0.15731 0.52191 0.04084 0.0
H1332 H 0.17208 0.50104 0.1171 0.0
H1333 H 0.17352 0.54178 0.13293 0.0
C1334 C 0.25051 0.65878 0.13785 0.0
C1335 C 0.26127 0.64889 0.1586 0.0
C1336 C 0.22771 0.64781 0.12743 0.0
C1337 C 0.21483 0.62664 0.13747 0.0
C1338 C 0.2255 0.61669 0.15818 0.0
C1339 C 0.2483 0.62771 0.16868 0.0
C1340 C 0.19051 0.61479 0.12614 0.0
C1341 C 0.18819 0.59129 0.11763 0.0
C1342 C 0.16999 0.62675 0.12275 0.0
C1343 C 0.17038 0.65108 0.13256 0.0
C1344 C 0.17521 0.65678 0.15861 0.0
C1345 C 0.17569 0.67977 0.1677 0.0
C1346 C 0.17117 0.69719 0.15098 0.0
C1347 C 0.16611 0.69164 0.12513 0.0
C1348 C 0.16564 0.66868 0.11593 0.0
C1349 C 0.08772 0.54668 0.08552 0.0
C1350 C 0.07648 0.558 0.06625 0.0
C1351 C 0.1097 0.55773 0.09743 0.0
C1352 C 0.12171 0.58015 0.08982 0.0
C1353 C 0.11028 0.59161 0.07077 0.0
C1354 C 0.08789 0.58077 0.05929 0.0
C1355 C 0.14589 0.59171 0.10185 0.0
C1356 C 0.14819 0.61517 0.11058 0.0
C1357 C 0.16642 0.5797 0.10539 0.0
C1358 C 0.16615 0.55532 0.09575 0.0
C1359 C 0.16176 0.54948 0.06966 0.0
C1360 C 0.16087 0.52633 0.0609 0.0
C1361 C 0.16455 0.50889 0.07799 0.0
C1362 C 0.16923 0.51458 0.10388 0.0
C1363 C 0.17012 0.5377 0.11275 0.0
H1364 H 0.16383 0.49097 0.07118 0.0
H1365 H 0.17154 0.71498 0.15806 0.0
H1366 H 0.27793 0.43119 0.69721 0.0
H1367 H 0.31498 0.45029 0.67378 0.0
H1368 H 0.29102 0.40934 0.60587 0.0
H1369 H 0.25456 0.38921 0.6296 0.0
H1370 H 0.33854 0.41013 0.61071 0.0
H1371 H 0.28735 0.47006 0.61354 0.0
H1372 H 0.26147 0.497 0.63354 0.0
H1373 H 0.32402 0.52966 0.67813 0.0
H1374 H 0.35019 0.5027 0.65864 0.0
H1375 H 0.42078 0.47651 0.52105 0.0
H1376 H 0.38294 0.4601 0.54532 0.0
H1377 H 0.41535 0.49245 0.61494 0.0
H1378 H 0.45356 0.50874 0.5907 0.0
H1379 H 0.36421 0.49664 0.60964 0.0
H1380 H 0.4152 0.43621 0.60568 0.0
H1381 H 0.44069 0.40976 0.58411 0.0
H1382 H 0.37736 0.37846 0.53981 0.0
H1383 H 0.35157 0.40499 0.56085 0.0
C1384 C 0.28052 0.42604 0.67734 0.0
C1385 C 0.26301 0.40848 0.66547 0.0
C1386 C 0.30169 0.43729 0.66379 0.0
C1387 C 0.30588 0.4316 0.6378 0.0
C1388 C 0.28836 0.4142 0.62583 0.0
C1389 C 0.26725 0.40283 0.63942 0.0
C1390 C 0.32879 0.44322 0.62335 0.0
C1391 C 0.34384 0.42907 0.61023 0.0
C1392 C 0.33635 0.46797 0.62303 0.0
C1393 C 0.32065 0.48419 0.63482 0.0
C1394 C 0.29553 0.48286 0.62776 0.0
C1395 C 0.28082 0.49816 0.63898 0.0
C1396 C 0.29107 0.51499 0.65715 0.0
C1397 C 0.31609 0.51659 0.66409 0.0
C1398 C 0.33088 0.50132 0.65294 0.0
C1399 C 0.41985 0.48027 0.54151 0.0
C1400 C 0.44027 0.49388 0.55394 0.0
C1401 C 0.39818 0.4708 0.55539 0.0
C1402 C 0.39628 0.4748 0.58206 0.0
C1403 C 0.41632 0.48906 0.59441 0.0
C1404 C 0.43817 0.49836 0.58054 0.0
C1405 C 0.37367 0.46352 0.59699 0.0
C1406 C 0.35877 0.47772 0.61019 0.0
C1407 C 0.36612 0.43883 0.59722 0.0
C1408 C 0.38153 0.42275 0.58466 0.0
C1409 C 0.40676 0.42382 0.59119 0.0
C1410 C 0.42126 0.40879 0.57908 0.0
C1411 C 0.41067 0.39248 0.56056 0.0
C1412 C 0.38554 0.39113 0.55415 0.0
C1413 C 0.37098 0.40614 0.56617 0.0
H1414 H 0.42192 0.38086 0.55121 0.0
H1415 H 0.27965 0.52682 0.6658 0.0
H1416 H 0.80259 0.72826 0.86007 0.0
H1417 H 0.8196 0.69429 0.87411 0.0
H1418 H 0.76674 0.68577 0.93783 0.0
H1419 H 0.75029 0.7206 0.92439 0.0
H1420 H 0.81161 0.68598 0.95444 0.0
H1421 H 0.7645 0.64395 0.88797 0.0
H1422 H 0.74724 0.63585 0.8446 0.0
H1423 H 0.82124 0.63644 0.81327 0.0
H1424 H 0.83902 0.6449 0.85638 0.0
H1425 H 0.87327 0.59403 0.99338 0.0
H1426 H 0.83842 0.61042 0.97583 0.0
H1427 H 0.88615 0.64032 0.91336 0.0
H1428 H 0.92103 0.62383 0.9307 0.0
H1429 H 0.83584 0.62255 0.89864 0.0
H1430 H 0.88183 0.6729 0.96403 0.0
H1431 H 0.89902 0.68114 1.00744 0.0
H1432 H 0.82516 0.6641 0.04067 0.0
H1433 H 0.8076 0.65542 0.99742 0.0
C1434 C 0.79442 0.71905 0.87696 0.0
C1435 C 0.77534 0.72731 0.89134 0.0
C1436 C 0.80393 0.69938 0.88477 0.0
C1437 C 0.79432 0.68728 0.90692 0.0
C1438 C 0.77439 0.69479 0.92063 0.0
C1439 C 0.76491 0.7146 0.91285 0.0
C1440 C 0.80721 0.66876 0.91724 0.0
C1441 C 0.81624 0.6717 0.94242 0.0
C1442 C 0.81368 0.65032 0.90149 0.0
C1443 C 0.80311 0.64518 0.87545 0.0
C1444 C 0.77713 0.64252 0.87182 0.0
C1445 C 0.76724 0.63784 0.84727 0.0
C1446 C 0.78313 0.63566 0.82619 0.0
C1447 C 0.80895 0.63812 0.82962 0.0
C1448 C 0.81894 0.64282 0.85413 0.0
C1449 C 0.87617 0.60362 0.97558 0.0
C1450 C 0.89994 0.60795 0.96357 0.0
C1451 C 0.85627 0.613 0.96562 0.0
C1452 C 0.85982 0.62674 0.94346 0.0
C1453 C 0.88306 0.62976 0.9305 0.0
C1454 C 0.90301 0.62055 0.94054 0.0
C1455 C 0.84046 0.64027 0.93541 0.0
C1456 C 0.83045 0.63643 0.91074 0.0
C1457 C 0.83293 0.65785 0.95161 0.0
C1458 C 0.84346 0.66322 0.97756 0.0
C1459 C 0.86929 0.67072 0.98062 0.0
C1460 C 0.8791 0.6755 1.00518 0.0
C1461 C 0.8632 0.67307 0.02681 0.0
C1462 C 0.83746 0.66592 0.02391 0.0
C1463 C 0.82757 0.66107 0.99938 0.0
H1464 H 0.87082 0.67678 0.04582 0.0
H1465 H 0.77544 0.63204 0.8072 0.0
H1466 H 0.43887 0.78481 0.15292 0.0
H1467 H 0.4549 0.82244 0.13323 0.0
H1468 H 0.38469 0.84583 0.1494 0.0
H1469 H 0.36856 0.80829 0.16969 0.0
H1470 H 0.40173 0.85847 0.10089 0.0
H1471 H 0.43639 0.8658 0.18548 0.0
H1472 H 0.45932 0.85402 0.22223 0.0
H1473 H 0.52553 0.85681 0.17483 0.0
H1474 H 0.50288 0.8683 0.13769 0.0
H1475 H 0.45041 0.98007 0.07325 0.0
H1476 H 0.43023 0.94294 0.09266 0.0
H1477 H 0.49957 0.91589 0.08481 0.0
H1478 H 0.51969 0.95284 0.06609 0.0
H1479 H 0.48114 0.90598 0.13049 0.0
H1480 H 0.44732 0.89733 0.04574 0.0
H1481 H 0.42534 0.90921 1.00837 0.0
H1482 H 0.35871 0.90852 0.05467 0.0
H1483 H 0.38044 0.89698 0.09246 0.0
C1484 C 0.42683 0.79798 0.15277 0.0
C1485 C 0.40233 0.79321 0.16334 0.0
C1486 C 0.43606 0.81961 0.14126 0.0
C1487 C 0.4212 0.83733 0.13991 0.0
C1488 C 0.39663 0.83259 0.15005 0.0
C1489 C 0.38738 0.81094 0.16168 0.0
C1490 C 0.43145 0.86074 0.12818 0.0
C1491 C 0.41891 0.869 0.10764 0.0
C1492 C 0.45418 0.8745 0.13642 0.0
C1493 C 0.46787 0.86771 0.15875 0.0
C1494 C 0.45579 0.86374 0.18285 0.0
C1495 C 0.46874 0.85714 0.20375 0.0
C1496 C 0.49385 0.85462 0.20085 0.0
C1497 C 0.50607 0.85875 0.17704 0.0
C1498 C 0.49319 0.86532 0.15607 0.0
C1499 C 0.46124 0.96611 0.07551 0.0
C1500 C 0.48672 0.96953 0.0682 0.0
C1501 C 0.44968 0.94479 0.08658 0.0
C1502 C 0.46326 0.9263 0.09032 0.0
C1503 C 0.48857 0.92971 0.08247 0.0
C1504 C 0.50008 0.95093 0.07161 0.0
C1505 C 0.45163 0.90365 0.10294 0.0
C1506 C 0.46392 0.89553 0.12372 0.0
C1507 C 0.42882 0.88998 0.09476 0.0
C1508 C 0.41558 0.89653 0.072 0.0
C1509 C 0.42803 0.89986 0.048 0.0
C1510 C 0.41561 0.90652 0.02674 0.0
C1511 C 0.39067 0.90968 0.02916 0.0
C1512 C 0.37805 0.9061 0.05284 0.0
C1513 C 0.3904 0.89949 0.07418 0.0
H1514 H 0.38109 0.91487 1.01268 0.0
H1515 H 0.50384 0.84951 0.21706 0.0
H1516 H 0.09986 0.2516 0.69257 0.0
H1517 H 0.0831 0.21429 0.67128 0.0
H1518 H 0.13595 0.23073 0.60853 0.0
H1519 H 0.15243 0.26828 0.62943 0.0
H1520 H 0.09112 0.21195 0.5903 0.0
H1521 H 0.1448 0.19142 0.65506 0.0
H1522 H 0.16092 0.18994 0.69892 0.0
H1523 H 0.08947 0.15333 0.72477 0.0
H1524 H 0.07282 0.15487 0.68112 0.0
H1525 H 0.06858 0.09781 0.53213 0.0
H1526 H 0.08802 0.13488 0.55211 0.0
H1527 H 0.04536 0.11659 0.62197 0.0
H1528 H 0.0275 0.07878 0.60259 0.0
H1529 H 0.0868 0.13687 0.63616 0.0
H1530 H 0.0326 0.15906 0.57105 0.0
H1531 H 0.01728 0.16058 0.52695 0.0
H1532 H 0.0901 0.19443 0.50154 0.0
H1533 H 0.10593 0.19281 0.54553 0.0
C1534 C 0.10776 0.24746 0.67409 0.0
C1535 C 0.12764 0.2631 0.66286 0.0
C1536 C 0.0983 0.22592 0.66202 0.0
C1537 C 0.10843 0.21935 0.63836 0.0
C1538 C 0.12783 0.23518 0.6268 0.0
C1539 C 0.13738 0.25666 0.63891 0.0
C1540 C 0.09886 0.19606 0.62569 0.0
C1541 C 0.09041 0.19552 0.60027 0.0
C1542 C 0.09752 0.17449 0.63863 0.0
C1543 C 0.1075 0.17347 0.66487 0.0
C1544 C 0.13247 0.18322 0.67014 0.0
C1545 C 0.14172 0.18234 0.69495 0.0
C1546 C 0.12621 0.1716 0.71463 0.0
C1547 C 0.10145 0.16167 0.70952 0.0
C1548 C 0.0921 0.16252 0.68474 0.0
C1549 C 0.06341 0.10169 0.55176 0.0
C1550 C 0.04642 0.0853 0.5657 0.0
C1551 C 0.07438 0.12311 0.5632 0.0
C1552 C 0.06783 0.12923 0.58855 0.0
C1553 C 0.05092 0.11265 0.60246 0.0
C1554 C 0.0406 0.09094 0.59131 0.0
C1555 C 0.07848 0.15263 0.60077 0.0
C1556 C 0.08729 0.15324 0.62614 0.0
C1557 C 0.08011 0.17429 0.58779 0.0
C1558 C 0.07047 0.17563 0.5615 0.0
C1559 C 0.04535 0.16675 0.55603 0.0
C1560 C 0.03659 0.16763 0.53103 0.0
C1561 C 0.05273 0.17757 0.5114 0.0
C1562 C 0.07764 0.18672 0.51675 0.0
C1563 C 0.0865 0.18584 0.54171 0.0
H1564 H 0.04601 0.17827 0.49203 0.0
H1565 H 0.13341 0.17094 0.73383 0.0
H1566 H 0.73471 0.31716 0.49115 0.0
H1567 H 0.70227 0.33378 0.51462 0.0
H1568 H 0.6511 0.26858 0.505 0.0
H1569 H 0.68326 0.25213 0.48059 0.0
H1570 H 0.63202 0.30313 0.4869 0.0
H1571 H 0.66772 0.29027 0.56594 0.0
H1572 H 0.70063 0.28929 0.59774 0.0
H1573 H 0.71957 0.36444 0.59614 0.0
H1574 H 0.68704 0.36589 0.56402 0.0
H1575 H 0.54515 0.37515 0.52646 0.0
H1576 H 0.56861 0.34304 0.53289 0.0
H1577 H 0.6379 0.39207 0.52878 0.0
H1578 H 0.61475 0.42409 0.52212 0.0
H1579 H 0.63999 0.35635 0.56338 0.0
H1580 H 0.61345 0.3657 0.47499 0.0
H1581 H 0.58144 0.36696 0.44218 0.0
H1582 H 0.54605 0.29724 0.46182 0.0
H1583 H 0.5777 0.29573 0.49502 0.0
C1584 C 0.71668 0.30624 0.4944 0.0
C1585 C 0.71142 0.28348 0.48371 0.0
C1586 C 0.69824 0.31563 0.50817 0.0
C1587 C 0.67426 0.30237 0.51172 0.0
C1588 C 0.66951 0.27907 0.50259 0.0
C1589 C 0.68795 0.26967 0.48873 0.0
C1590 C 0.65342 0.31424 0.52081 0.0
C1591 C 0.63335 0.31412 0.50414 0.0
C1592 C 0.65527 0.32884 0.5431 0.0
C1593 C 0.67493 0.32816 0.56246 0.0
C1594 C 0.67901 0.30659 0.57222 0.0
C1595 C 0.69759 0.30595 0.59034 0.0
C1596 C 0.71219 0.32679 0.59895 0.0
C1597 C 0.70822 0.34831 0.58947 0.0
C1598 C 0.68967 0.34905 0.57134 0.0
C1599 C 0.56538 0.3791 0.52722 0.0
C1600 C 0.57813 0.40207 0.52329 0.0
C1601 C 0.57871 0.3608 0.53114 0.0
C1602 C 0.60496 0.36519 0.53101 0.0
C1603 C 0.61762 0.38835 0.52905 0.0
C1604 C 0.60434 0.40663 0.52517 0.0
C1605 C 0.61947 0.34572 0.52893 0.0
C1606 C 0.63827 0.34455 0.54679 0.0
C1607 C 0.61656 0.32987 0.50772 0.0
C1608 C 0.59769 0.33072 0.48767 0.0
C1609 C 0.59873 0.35072 0.47241 0.0
C1610 C 0.58067 0.35147 0.45375 0.0
C1611 C 0.56167 0.33223 0.44998 0.0
C1612 C 0.56073 0.31216 0.46482 0.0
C1613 C 0.57871 0.31135 0.48356 0.0
H1614 H 0.54771 0.33284 0.43552 0.0
H1615 H 0.72657 0.32625 0.61297 0.0
loop_
_geom_bond_atom_site_label_1
_geom_bond_atom_site_label_2
_geom_bond_distance
_geom_bond_site_symmetry_2
_ccdc_geom_bond_type
P0 O11 1.490 . S
P0 C14 1.812 . S
P0 C20 1.803 . S
P0 C26 1.819 . S
H1 C15 0.941 . S
H2 C16 0.939 . S
H3 C18 0.940 . S
H4 C19 0.940 . S
H5 C21 0.939 . S
H6 C22 0.942 . S
H7 C24 0.940 . S
H8 C25 0.939 . S
H9 C27 0.941 . S
H10 C31 0.939 . S
O11 P0 1.490 . S
H12 C28 0.939 . S
H13 C30 0.940 . S
C14 P0 1.812 . S
C14 C15 1.389 . S
C14 C19 1.391 . S
C15 H1 0.941 . S
C15 C14 1.389 . S
C15 C16 1.397 . S
C16 H2 0.939 . S
C16 C15 1.397 . S
C16 C17 1.378 . S
C17 C16 1.378 . S
C17 C18 1.378 . S
C18 H3 0.940 . S
C18 C17 1.378 . S
C18 C19 1.396 . S
C19 H4 0.940 . S
C19 C14 1.391 . S
C19 C18 1.396 . S
C20 P0 1.803 . S
C20 C21 1.378 . S
C20 C25 1.400 . S
C21 H5 0.939 . S
C21 C20 1.378 . S
C21 C22 1.361 . S
C22 H6 0.942 . S
C22 C21 1.361 . S
C22 C23 1.369 . S
C23 C22 1.369 . S
C23 C24 1.404 . S
C24 H7 0.940 . S
C24 C23 1.404 . S
C24 C25 1.389 . S
C25 H8 0.939 . S
C25 C20 1.400 . S
C25 C24 1.389 . S
C26 P0 1.819 . S
C26 C27 1.391 . S
C26 C31 1.391 . S
C27 H9 0.941 . S
C27 C26 1.391 . S
C27 C28 1.396 . S
C28 H12 0.939 . S
C28 C27 1.396 . S
C28 C29 1.397 . S
C29 C28 1.397 . S
C29 C30 1.385 . S
C30 H13 0.940 . S
C30 C29 1.385 . S
C30 C31 1.388 . S
C31 H10 0.939 . S
C31 C26 1.391 . S
C31 C30 1.388 . S
P32 O43 1.490 . S
P32 C46 1.812 . S
P32 C52 1.803 . S
P32 C58 1.819 . S
H33 C47 0.941 . S
H34 C48 0.939 . S
H35 C50 0.940 . S
H36 C51 0.940 . S
H37 C53 0.939 . S
H38 C54 0.942 . S
H39 C56 0.940 . S
H40 C57 0.939 . S
H41 C59 0.941 . S
H42 C63 0.939 . S
O43 P32 1.490 . S
H44 C60 0.939 . S
H45 C62 0.940 . S
C46 P32 1.812 . S
C46 C47 1.389 . S
C46 C51 1.391 . S
C47 H33 0.941 . S
C47 C46 1.389 . S
C47 C48 1.397 . S
C48 H34 0.939 . S
C48 C47 1.397 . S
C48 C49 1.378 . S
C49 C48 1.378 . S
C49 C50 1.378 . S
C50 H35 0.940 . S
C50 C49 1.378 . S
C50 C51 1.396 . S
C51 H36 0.940 . S
C51 C46 1.391 . S
C51 C50 1.396 . S
C52 P32 1.803 . S
C52 C53 1.378 . S
C52 C57 1.400 . S
C53 H37 0.939 . S
C53 C52 1.378 . S
C53 C54 1.361 . S
C54 H38 0.942 . S
C54 C53 1.361 . S
C54 C55 1.369 . S
C55 C54 1.369 . S
C55 C56 1.404 . S
C56 H39 0.940 . S
C56 C55 1.404 . S
C56 C57 1.389 . S
C57 H40 0.939 . S
C57 C52 1.400 . S
C57 C56 1.389 . S
C58 P32 1.819 . S
C58 C59 1.391 . S
C58 C63 1.391 . S
C59 H41 0.941 . S
C59 C58 1.391 . S
C59 C60 1.396 . S
C60 H44 0.939 . S
C60 C59 1.396 . S
C60 C61 1.397 . S
C61 C60 1.397 . S
C61 C62 1.385 . S
C62 H45 0.940 . S
C62 C61 1.385 . S
C62 C63 1.388 . S
C63 H42 0.939 . S
C63 C58 1.391 . S
C63 C62 1.388 . S
P64 O75 1.490 . S
P64 C78 1.812 . S
P64 C84 1.803 . S
P64 C90 1.819 . S
H65 C79 0.941 . S
H66 C80 0.939 . S
H67 C82 0.940 . S
H68 C83 0.940 . S
H69 C85 0.939 . S
H70 C86 0.942 . S
H71 C88 0.940 . S
H72 C89 0.939 . S
H73 C91 0.941 . S
H74 C95 0.939 . S
O75 P64 1.490 . S
H76 C92 0.939 . S
H77 C94 0.940 . S
C78 P64 1.812 . S
C78 C79 1.389 . S
C78 C83 1.391 . S
C79 H65 0.941 . S
C79 C78 1.389 . S
C79 C80 1.397 . S
C80 H66 0.939 . S
C80 C79 1.397 . S
C80 C81 1.378 . S
C81 C80 1.378 . S
C81 C82 1.378 . S
C82 H67 0.940 . S
C82 C81 1.378 . S
C82 C83 1.396 . S
C83 H68 0.940 . S
C83 C78 1.391 . S
C83 C82 1.396 . S
C84 P64 1.803 . S
C84 C85 1.378 . S
C84 C89 1.400 . S
C85 H69 0.939 . S
C85 C84 1.378 . S
C85 C86 1.361 . S
C86 H70 0.942 . S
C86 C85 1.361 . S
C86 C87 1.369 . S
C87 C86 1.369 . S
C87 C88 1.404 . S
C88 H71 0.940 . S
C88 C87 1.404 . S
C88 C89 1.389 . S
C89 H72 0.939 . S
C89 C84 1.400 . S
C89 C88 1.389 . S
C90 P64 1.819 . S
C90 C91 1.391 . S
C90 C95 1.391 . S
C91 H73 0.941 . S
C91 C90 1.391 . S
C91 C92 1.396 . S
C92 H76 0.939 . S
C92 C91 1.396 . S
C92 C93 1.397 . S
C93 C92 1.397 . S
C93 C94 1.385 . S
C94 H77 0.940 . S
C94 C93 1.385 . S
C94 C95 1.388 . S
C95 H74 0.939 . S
C95 C90 1.391 . S
C95 C94 1.388 . S
P96 O107 1.490 . S
P96 C110 1.812 . S
P96 C116 1.803 . S
P96 C122 1.819 . S
H97 C111 0.941 . S
H98 C112 0.939 . S
H99 C114 0.940 . S
H100 C115 0.940 . S
H101 C117 0.939 . S
H102 C118 0.942 . S
H103 C120 0.940 . S
H104 C121 0.939 . S
H105 C123 0.941 . S
H106 C127 0.939 . S
O107 P96 1.490 . S
H108 C124 0.939 . S
H109 C126 0.940 . S
C110 P96 1.812 . S
C110 C111 1.389 . S
C110 C115 1.391 . S
C111 H97 0.941 . S
C111 C110 1.389 . S
C111 C112 1.397 . S
C112 H98 0.939 . S
C112 C111 1.397 . S
C112 C113 1.378 . S
C113 C112 1.378 . S
C113 C114 1.378 . S
C114 H99 0.940 . S
C114 C113 1.378 . S
C114 C115 1.396 . S
C115 H100 0.940 . S
C115 C110 1.391 . S
C115 C114 1.396 . S
C116 P96 1.803 . S
C116 C117 1.378 . S
C116 C121 1.400 . S
C117 H101 0.939 . S
C117 C116 1.378 . S
C117 C118 1.361 . S
C118 H102 0.942 . S
C118 C117 1.361 . S
C118 C119 1.369 . S
C119 C118 1.369 . S
C119 C120 1.404 . S
C120 H103 0.940 . S
C120 C119 1.404 . S
C120 C121 1.389 . S
C121 H104 0.939 . S
C121 C116 1.400 . S
C121 C120 1.389 . S
C122 P96 1.819 . S
C122 C123 1.391 . S
C122 C127 1.391 . S
C123 H105 0.941 . S
C123 C122 1.391 . S
C123 C124 1.396 . S
C124 H108 0.939 . S
C124 C123 1.396 . S
C124 C125 1.397 . S
C125 C124 1.397 . S
C125 C126 1.385 . S
C126 H109 0.940 . S
C126 C125 1.385 . S
C126 C127 1.388 . S
C127 H106 0.939 . S
C127 C122 1.391 . S
C127 C126 1.388 . S
P128 O139 1.490 . S
P128 C142 1.812 . S
P128 C148 1.803 . S
P128 C154 1.819 . S
H129 C143 0.941 . S
H130 C144 0.939 . S
H131 C146 0.940 . S
H132 C147 0.940 . S
H133 C149 0.939 . S
H134 C150 0.942 . S
H135 C152 0.940 . S
H136 C153 0.939 . S
H137 C155 0.941 . S
H138 C159 0.939 . S
O139 P128 1.490 . S
H140 C156 0.939 . S
H141 C158 0.940 . S
C142 P128 1.812 . S
C142 C143 1.389 . S
C142 C147 1.391 . S
C143 H129 0.941 . S
C143 C142 1.389 . S
C143 C144 1.397 . S
C144 H130 0.939 . S
C144 C143 1.397 . S
C144 C145 1.378 . S
C145 C144 1.378 . S
C145 C146 1.378 . S
C146 H131 0.940 . S
C146 C145 1.378 . S
C146 C147 1.396 . S
C147 H132 0.940 . S
C147 C142 1.391 . S
C147 C146 1.396 . S
C148 P128 1.803 . S
C148 C149 1.378 . S
C148 C153 1.400 . S
C149 H133 0.939 . S
C149 C148 1.378 . S
C149 C150 1.361 . S
C150 H134 0.942 . S
C150 C149 1.361 . S
C150 C151 1.369 . S
C151 C150 1.369 . S
C151 C152 1.404 . S
C152 H135 0.940 . S
C152 C151 1.404 . S
C152 C153 1.389 . S
C153 H136 0.939 . S
C153 C148 1.400 . S
C153 C152 1.389 . S
C154 P128 1.819 . S
C154 C155 1.391 . S
C154 C159 1.391 . S
C155 H137 0.941 . S
C155 C154 1.391 . S
C155 C156 1.396 . S
C156 H140 0.939 . S
C156 C155 1.396 . S
C156 C157 1.397 . S
C157 C156 1.397 . S
C157 C158 1.385 . S
C158 H141 0.940 . S
C158 C157 1.385 . S
C158 C159 1.388 . S
C159 H138 0.939 . S
C159 C154 1.391 . S
C159 C158 1.388 . S
P160 O171 1.490 . S
P160 C174 1.812 . S
P160 C180 1.803 . S
P160 C186 1.819 . S
H161 C175 0.941 . S
H162 C176 0.939 . S
H163 C178 0.940 . S
H164 C179 0.940 . S
H165 C181 0.939 . S
H166 C182 0.942 . S
H167 C184 0.940 . S
H168 C185 0.939 . S
H169 C187 0.941 . S
H170 C191 0.939 . S
O171 P160 1.490 . S
H172 C188 0.939 . S
H173 C190 0.940 . S
C174 P160 1.812 . S
C174 C175 1.389 . S
C174 C179 1.391 . S
C175 H161 0.941 . S
C175 C174 1.389 . S
C175 C176 1.397 . S
C176 H162 0.939 . S
C176 C175 1.397 . S
C176 C177 1.378 . S
C177 C176 1.378 . S
C177 C178 1.378 . S
C178 H163 0.940 . S
C178 C177 1.378 . S
C178 C179 1.396 . S
C179 H164 0.940 . S
C179 C174 1.391 . S
C179 C178 1.396 . S
C180 P160 1.803 . S
C180 C181 1.378 . S
C180 C185 1.400 . S
C181 H165 0.939 . S
C181 C180 1.378 . S
C181 C182 1.361 . S
C182 H166 0.942 . S
C182 C181 1.361 . S
C182 C183 1.369 . S
C183 C182 1.369 . S
C183 C184 1.404 . S
C184 H167 0.940 . S
C184 C183 1.404 . S
C184 C185 1.389 . S
C185 H168 0.939 . S
C185 C180 1.400 . S
C185 C184 1.389 . S
C186 P160 1.819 . S
C186 C187 1.391 . S
C186 C191 1.391 . S
C187 H169 0.941 . S
C187 C186 1.391 . S
C187 C188 1.396 . S
C188 H172 0.939 . S
C188 C187 1.396 . S
C188 C189 1.397 . S
C189 C188 1.397 . S
C189 C190 1.385 . S
C190 H173 0.940 . S
C190 C189 1.385 . S
C190 C191 1.388 . S
C191 H170 0.939 . S
C191 C186 1.391 . S
C191 C190 1.388 . S
P192 O203 1.490 . S
P192 C206 1.812 . S
P192 C212 1.803 . S
P192 C218 1.819 . S
H193 C207 0.941 . S
H194 C208 0.939 . S
H195 C210 0.940 . S
H196 C211 0.940 . S
H197 C213 0.939 . S
H198 C214 0.942 . S
H199 C216 0.940 . S
H200 C217 0.939 . S
H201 C219 0.941 . S
H202 C223 0.939 . S
O203 P192 1.490 . S
H204 C220 0.939 . S
H205 C222 0.940 . S
C206 P192 1.812 . S
C206 C207 1.389 . S
C206 C211 1.391 . S
C207 H193 0.941 . S
C207 C206 1.389 . S
C207 C208 1.397 . S
C208 H194 0.939 . S
C208 C207 1.397 . S
C208 C209 1.378 . S
C209 C208 1.378 . S
C209 C210 1.378 . S
C210 H195 0.940 . S
C210 C209 1.378 . S
C210 C211 1.396 . S
C211 H196 0.940 . S
C211 C206 1.391 . S
C211 C210 1.396 . S
C212 P192 1.803 . S
C212 C213 1.378 . S
C212 C217 1.400 . S
C213 H197 0.939 . S
C213 C212 1.378 . S
C213 C214 1.361 . S
C214 H198 0.942 . S
C214 C213 1.361 . S
C214 C215 1.369 . S
C215 C214 1.369 . S
C215 C216 1.404 . S
C216 H199 0.940 . S
C216 C215 1.404 . S
C216 C217 1.389 . S
C217 H200 0.939 . S
C217 C212 1.400 . S
C217 C216 1.389 . S
C218 P192 1.819 . S
C218 C219 1.391 . S
C218 C223 1.391 . S
C219 H201 0.941 . S
C219 C218 1.391 . S
C219 C220 1.396 . S
C220 H204 0.939 . S
C220 C219 1.396 . S
C220 C221 1.397 . S
C221 C220 1.397 . S
C221 C222 1.385 . S
C222 H205 0.940 . S
C222 C221 1.385 . S
C222 C223 1.388 . S
C223 H202 0.939 . S
C223 C218 1.391 . S
C223 C222 1.388 . S
P224 O235 1.490 . S
P224 C238 1.812 . S
P224 C244 1.803 . S
P224 C250 1.819 . S
H225 C239 0.941 . S
H226 C240 0.939 . S
H227 C242 0.940 . S
H228 C243 0.940 . S
H229 C245 0.939 . S
H230 C246 0.942 . S
H231 C248 0.940 . S
H232 C249 0.939 . S
H233 C251 0.941 . S
H234 C255 0.939 . S
O235 P224 1.490 . S
H236 C252 0.939 . S
H237 C254 0.940 . S
C238 P224 1.812 . S
C238 C239 1.389 . S
C238 C243 1.391 . S
C239 H225 0.941 . S
C239 C238 1.389 . S
C239 C240 1.397 . S
C240 H226 0.939 . S
C240 C239 1.397 . S
C240 C241 1.378 . S
C241 C240 1.378 . S
C241 C242 1.378 . S
C242 H227 0.940 . S
C242 C241 1.378 . S
C242 C243 1.396 . S
C243 H228 0.940 . S
C243 C238 1.391 . S
C243 C242 1.396 . S
C244 P224 1.803 . S
C244 C245 1.378 . S
C244 C249 1.400 . S
C245 H229 0.939 . S
C245 C244 1.378 . S
C245 C246 1.361 . S
C246 H230 0.942 . S
C246 C245 1.361 . S
C246 C247 1.369 . S
C247 C246 1.369 . S
C247 C248 1.404 . S
C248 H231 0.940 . S
C248 C247 1.404 . S
C248 C249 1.389 . S
C249 H232 0.939 . S
C249 C244 1.400 . S
C249 C248 1.389 . S
C250 P224 1.819 . S
C250 C251 1.391 . S
C250 C255 1.391 . S
C251 H233 0.941 . S
C251 C250 1.391 . S
C251 C252 1.396 . S
C252 H236 0.939 . S
C252 C251 1.396 . S
C252 C253 1.397 . S
C253 C252 1.397 . S
C253 C254 1.385 . S
C254 H237 0.940 . S
C254 C253 1.385 . S
C254 C255 1.388 . S
C255 H234 0.939 . S
C255 C250 1.391 . S
C255 C254 1.388 . S
La256 C258 2.928 . S
La256 O276 2.521 . S
La256 O277 2.628 . S
La256 O278 2.554 1_545 S
La256 O279 2.757 1_545 S
La256 O280 2.470 . S
La256 O285 2.482 1_455 S
La256 O287 2.503 1_445 S
La257 C267 2.932 1_545 S
La257 O279 2.484 1_645 S
La257 O281 2.499 1_655 S
La257 O282 2.523 1_545 S
La257 O283 2.633 1_545 S
La257 O284 2.551 . S
La257 O285 2.754 . S
La257 O286 2.473 1_545 S
C258 La256 2.928 . S
C258 C259 1.503 . S
C258 O276 1.261 . S
C258 O277 1.243 . S
C259 C258 1.503 . S
C259 C260 1.394 . S
C259 C264 1.373 . S
C260 C259 1.394 . S
C260 C261 1.380 . S
C260 H288 0.930 . S
C261 C260 1.380 . S
C261 C262 1.376 . S
C261 H289 0.930 . S
C262 C261 1.376 . S
C262 C263 1.370 . S
C263 C262 1.370 . S
C263 C264 1.396 . S
C263 H290 0.929 . S
C264 C259 1.373 . S
C264 C263 1.396 . S
C264 H291 0.929 . S
C265 O278 1.240 . S
C265 O279 1.289 . S
C266 O280 1.258 . S
C266 O281 1.256 . S
C267 La257 2.932 1_565 S
C267 C268 1.503 . S
C267 O282 1.261 . S
C267 O283 1.243 . S
C268 C267 1.503 . S
C268 C269 1.394 . S
C268 C273 1.373 . S
C269 C268 1.394 . S
C269 C270 1.380 . S
C269 H292 0.930 . S
C270 C269 1.380 . S
C270 C271 1.376 . S
C270 H293 0.930 . S
C271 C270 1.376 . S
C271 C272 1.370 . S
C272 C271 1.370 . S
C272 C273 1.396 . S
C272 H294 0.929 . S
C273 C268 1.373 . S
C273 C272 1.396 . S
C273 H295 0.929 . S
C274 O284 1.240 . S
C274 O285 1.289 . S
C275 O286 1.258 . S
C275 O287 1.256 . S
O276 La256 2.521 . S
O276 C258 1.261 . S
O277 La256 2.628 . S
O277 C258 1.243 . S
O278 La256 2.554 1_565 S
O278 C265 1.240 . S
O279 La256 2.757 1_565 S
O279 La257 2.484 1_465 S
O279 C265 1.289 . S
O280 La256 2.470 . S
O280 C266 1.258 . S
O281 La257 2.499 1_455 S
O281 C266 1.256 . S
O282 La257 2.523 1_565 S
O282 C267 1.261 . S
O283 La257 2.633 1_565 S
O283 C267 1.243 . S
O284 La257 2.551 . S
O284 C274 1.240 . S
O285 La256 2.482 1_655 S
O285 La257 2.754 . S
O285 C274 1.289 . S
O286 La257 2.473 1_565 S
O286 C275 1.258 . S
O287 La256 2.503 1_665 S
O287 C275 1.256 . S
H288 C260 0.930 . S
H289 C261 0.930 . S
H290 C263 0.929 . S
H291 C264 0.929 . S
H292 C269 0.930 . S
H293 C270 0.930 . S
H294 C272 0.929 . S
H295 C273 0.929 . S
La296 C298 2.928 . S
La296 O316 2.521 . S
La296 O317 2.628 . S
La296 O318 2.554 1_545 S
La296 O319 2.757 1_545 S
La296 O320 2.470 . S
La296 O325 2.482 . S
La296 O327 2.503 1_544 S
La297 C307 2.928 1_545 S
La297 O319 2.482 1_546 S
La297 O321 2.503 1_556 S
La297 O322 2.521 . S
La297 O323 2.628 1_545 S
La297 O324 2.554 . S
La297 O325 2.757 1_556 S
La297 O326 2.470 1_545 S
C298 La296 2.928 . S
C298 C299 1.503 . S
C298 O316 1.261 . S
C298 O317 1.243 . S
C299 C298 1.503 . S
C299 C300 1.394 . S
C299 C304 1.373 . S
C300 C299 1.394 . S
C300 C301 1.380 . S
C300 H328 0.930 . S
C301 C300 1.380 . S
C301 C302 1.376 . S
C301 H329 0.930 . S
C302 C301 1.376 . S
C302 C303 1.370 . S
C303 C302 1.370 . S
C303 C304 1.396 . S
C303 H330 0.929 . S
C304 C299 1.373 . S
C304 C303 1.396 . S
C304 H331 0.929 . S
C305 O318 1.240 . S
C305 O319 1.289 . S
C306 O320 1.258 . S
C306 O321 1.256 . S
C307 La297 2.928 1_565 S
C307 C308 1.503 . S
C307 O322 1.261 1_565 S
C307 O323 1.243 . S
C308 C307 1.503 . S
C308 C309 1.394 . S
C308 C313 1.373 . S
C309 C308 1.394 . S
C309 C310 1.380 . S
C309 H332 0.930 . S
C310 C309 1.380 . S
C310 C311 1.376 . S
C310 H333 0.930 . S
C311 C310 1.376 . S
C311 C312 1.370 . S
C312 C311 1.370 . S
C312 C313 1.396 . S
C312 H334 0.929 . S
C313 C308 1.373 . S
C313 C312 1.396 . S
C313 H335 0.929 . S
C314 O324 1.240 . S
C314 O325 1.289 1_556 S
C315 O326 1.258 . S
C315 O327 1.256 . S
O316 La296 2.521 . S
O316 C298 1.261 . S
O317 La296 2.628 . S
O317 C298 1.243 . S
O318 La296 2.554 1_565 S
O318 C305 1.240 . S
O319 La296 2.757 1_565 S
O319 La297 2.482 1_564 S
O319 C305 1.289 . S
O320 La296 2.470 . S
O320 C306 1.258 . S
O321 La297 2.503 1_554 S
O321 C306 1.256 . S
O322 La297 2.521 . S
O322 C307 1.261 1_545 S
O323 La297 2.628 1_565 S
O323 C307 1.243 . S
O324 La297 2.554 . S
O324 C314 1.240 . S
O325 La296 2.482 . S
O325 La297 2.757 1_554 S
O325 C314 1.289 1_554 S
O326 La297 2.470 1_565 S
O326 C315 1.258 . S
O327 La296 2.503 1_566 S
O327 C315 1.256 . S
H328 C300 0.930 . S
H329 C301 0.930 . S
H330 C303 0.929 . S
H331 C304 0.929 . S
H332 C309 0.930 . S
H333 C310 0.930 . S
H334 C312 0.929 . S
H335 C313 0.929 . S
La336 C338 2.928 . S
La336 O356 2.521 . S
La336 O357 2.628 . S
La336 O358 2.554 . S
La336 O359 2.757 . S
La336 O360 2.470 . S
La336 O365 2.482 . S
La336 O367 2.503 . S
La337 C347 2.928 . S
La337 O359 2.482 . S
La337 O361 2.503 . S
La337 O362 2.521 . S
La337 O363 2.628 . S
La337 O364 2.554 . S
La337 O365 2.757 . S
La337 O366 2.470 . S
C338 La336 2.928 . S
C338 C339 1.503 . S
C338 O356 1.261 . S
C338 O357 1.243 . S
C339 C338 1.503 . S
C339 C340 1.394 . S
C339 C344 1.373 . S
C340 C339 1.394 . S
C340 C341 1.380 . S
C340 H368 0.930 . S
C341 C340 1.380 . S
C341 C342 1.376 . S
C341 H369 0.930 . S
C342 C341 1.376 . S
C342 C343 1.370 . S
C343 C342 1.370 . S
C343 C344 1.396 . S
C343 H370 0.929 . S
C344 C339 1.373 . S
C344 C343 1.396 . S
C344 H371 0.929 . S
C345 O358 1.240 . S
C345 O359 1.289 . S
C346 O360 1.258 . S
C346 O361 1.256 . S
C347 La337 2.928 . S
C347 C348 1.503 . S
C347 O362 1.261 . S
C347 O363 1.243 . S
C348 C347 1.503 . S
C348 C349 1.394 . S
C348 C353 1.373 . S
C349 C348 1.394 . S
C349 C350 1.380 . S
C349 H372 0.930 . S
C350 C349 1.380 . S
C350 C351 1.376 . S
C350 H373 0.930 . S
C351 C350 1.376 . S
C351 C352 1.370 . S
C352 C351 1.370 . S
C352 C353 1.396 . S
C352 H374 0.929 . S
C353 C348 1.373 . S
C353 C352 1.396 . S
C353 H375 0.929 . S
C354 O364 1.240 . S
C354 O365 1.289 . S
C355 O366 1.258 . S
C355 O367 1.256 . S
O356 La336 2.521 . S
O356 C338 1.261 . S
O357 La336 2.628 . S
O357 C338 1.243 . S
O358 La336 2.554 . S
O358 C345 1.240 . S
O359 La336 2.757 . S
O359 La337 2.482 . S
O359 C345 1.289 . S
O360 La336 2.470 . S
O360 C346 1.258 . S
O361 La337 2.503 . S
O361 C346 1.256 . S
O362 La337 2.521 . S
O362 C347 1.261 . S
O363 La337 2.628 . S
O363 C347 1.243 . S
O364 La337 2.554 . S
O364 C354 1.240 . S
O365 La336 2.482 . S
O365 La337 2.757 . S
O365 C354 1.289 . S
O366 La337 2.470 . S
O366 C355 1.258 . S
O367 La336 2.503 . S
O367 C355 1.256 . S
H368 C340 0.930 . S
H369 C341 0.930 . S
H370 C343 0.929 . S
H371 C344 0.929 . S
H372 C349 0.930 . S
H373 C350 0.930 . S
H374 C352 0.929 . S
H375 C353 0.929 . S
La376 C378 2.928 . S
La376 O396 2.521 . S
La376 O397 2.628 . S
La376 O398 2.554 1_455 S
La376 O399 2.757 1_455 S
La376 O400 2.470 . S
La376 O405 2.482 1_554 S
La376 O407 2.477 1_454 S
La377 C387 2.928 . S
La377 O399 2.482 1_556 S
La377 O401 2.503 1_656 S
La377 O402 2.521 . S
La377 O403 2.628 . S
La377 O404 2.554 1_655 S
La377 O405 2.757 1_655 S
La377 O406 2.470 . S
C378 La376 2.928 . S
C378 C379 1.503 . S
C378 O396 1.261 . S
C378 O397 1.243 . S
C379 C378 1.503 . S
C379 C380 1.394 . S
C379 C384 1.373 . S
C380 C379 1.394 . S
C380 C381 1.380 . S
C380 H408 0.930 . S
C381 C380 1.380 . S
C381 C382 1.376 . S
C381 H409 0.930 . S
C382 C381 1.376 . S
C382 C383 1.370 . S
C383 C382 1.370 . S
C383 C384 1.396 . S
C383 H410 0.929 . S
C384 C379 1.373 . S
C384 C383 1.396 . S
C384 H411 0.929 . S
C385 O398 1.240 . S
C385 O399 1.289 . S
C386 O400 1.258 . S
C386 O401 1.256 . S
C387 La377 2.928 . S
C387 C388 1.503 . S
C387 O402 1.261 . S
C387 O403 1.243 . S
C388 C387 1.503 . S
C388 C389 1.394 . S
C388 C393 1.373 . S
C389 C388 1.394 . S
C389 C390 1.380 . S
C389 H412 0.930 . S
C390 C389 1.380 . S
C390 C391 1.376 . S
C390 H413 0.930 . S
C391 C390 1.376 . S
C391 C392 1.370 . S
C392 C391 1.370 . S
C392 C393 1.396 . S
C392 H414 0.929 . S
C393 C388 1.373 . S
C393 C392 1.396 . S
C393 H415 0.929 . S
C394 O404 1.240 . S
C394 O405 1.289 . S
C395 O406 1.258 . S
C395 O407 1.288 . S
O396 La376 2.521 . S
O396 C378 1.261 . S
O397 La376 2.628 . S
O397 C378 1.243 . S
O398 La376 2.554 1_655 S
O398 C385 1.240 . S
O399 La376 2.757 1_655 S
O399 La377 2.482 1_554 S
O399 C385 1.289 . S
O400 La376 2.470 . S
O400 C386 1.258 . S
O401 La377 2.503 1_454 S
O401 C386 1.256 . S
O402 La377 2.521 . S
O402 C387 1.261 . S
O403 La377 2.628 . S
O403 C387 1.243 . S
O404 La377 2.554 1_455 S
O404 C394 1.240 . S
O405 La376 2.482 1_556 S
O405 La377 2.757 1_455 S
O405 C394 1.289 . S
O406 La377 2.470 . S
O406 C395 1.258 . S
O407 La376 2.477 1_656 S
O407 C395 1.288 . S
H408 C380 0.930 . S
H409 C381 0.930 . S
H410 C383 0.929 . S
H411 C384 0.929 . S
H412 C389 0.930 . S
H413 C390 0.930 . S
H414 C392 0.929 . S
H415 C393 0.929 . S
H416 C434 0.951 . S
H417 C436 0.951 . S
H418 C438 0.950 . S
H419 C439 0.950 . S
H420 C441 0.950 . S
H421 C444 0.950 . S
H422 C445 0.950 . S
H423 C447 0.950 . S
H424 C448 0.950 . S
H425 C449 0.951 . S
H426 C451 0.951 . S
H427 C453 0.950 . S
H428 C454 0.950 . S
H429 C456 0.950 . S
H430 C459 0.950 . S
H431 C460 0.950 . S
H432 C462 0.950 . S
H433 C463 0.950 . S
C434 H416 0.951 . S
C434 C435 1.366 . S
C434 C436 1.388 . S
C435 C434 1.366 . S
C435 C439 1.385 . S
C436 H417 0.951 . S
C436 C434 1.388 . S
C436 C437 1.366 . S
C437 C436 1.366 . S
C437 C438 1.414 . S
C437 C440 1.499 . S
C438 H418 0.950 . S
C438 C437 1.414 . S
C438 C439 1.374 . S
C439 H419 0.950 . S
C439 C435 1.385 . S
C439 C438 1.374 . S
C440 C437 1.499 . S
C440 C441 1.373 . S
C440 C442 1.389 . S
C441 H420 0.950 . S
C441 C440 1.373 . S
C441 C457 1.377 . S
C442 C440 1.389 . S
C442 C443 1.524 . S
C442 C456 1.377 . S
C443 C442 1.524 . S
C443 C444 1.397 . S
C443 C448 1.363 . S
C444 H421 0.950 . S
C444 C443 1.397 . S
C444 C445 1.334 . S
C445 H422 0.950 . S
C445 C444 1.334 . S
C445 C446 1.287 . S
C446 C445 1.287 . S
C446 C447 1.524 . S
C446 H465 0.913 . S
C447 H423 0.950 . S
C447 C446 1.524 . S
C447 C448 1.415 . S
C448 H424 0.950 . S
C448 C443 1.363 . S
C448 C447 1.415 . S
C449 H425 0.951 . S
C449 C450 1.366 . S
C449 C451 1.388 . S
C450 C449 1.366 . S
C450 C454 1.385 . S
C451 H426 0.951 . S
C451 C449 1.388 . S
C451 C452 1.366 . S
C452 C451 1.366 . S
C452 C453 1.414 . S
C452 C455 1.499 . S
C453 H427 0.950 . S
C453 C452 1.414 . S
C453 C454 1.374 . S
C454 H428 0.950 . S
C454 C450 1.385 . S
C454 C453 1.374 . S
C455 C452 1.499 . S
C455 C456 1.373 . S
C455 C457 1.389 . S
C456 H429 0.950 . S
C456 C442 1.377 . S
C456 C455 1.373 . S
C457 C441 1.377 . S
C457 C455 1.389 . S
C457 C458 1.524 . S
C458 C457 1.524 . S
C458 C459 1.397 . S
C458 C463 1.363 . S
C459 H430 0.950 . S
C459 C458 1.397 . S
C459 C460 1.334 . S
C460 H431 0.950 . S
C460 C459 1.334 . S
C460 C461 1.287 . S
C461 C460 1.287 . S
C461 C462 1.524 . S
C461 H464 0.999 . S
C462 H432 0.950 . S
C462 C461 1.524 . S
C462 C463 1.415 . S
C463 H433 0.950 . S
C463 C458 1.363 . S
C463 C462 1.415 . S
H464 C461 0.999 . S
H465 C446 0.913 . S
H466 C484 0.951 . S
H467 C486 0.951 . S
H468 C488 0.950 . S
H469 C489 0.950 . S
H470 C491 0.950 . S
H471 C494 0.950 . S
H472 C495 0.950 . S
H473 C497 0.950 . S
H474 C498 0.950 . S
H475 C499 0.951 . S
H476 C501 0.951 . S
H477 C503 0.950 . S
H478 C504 0.950 . S
H479 C506 0.950 . S
H480 C509 0.950 . S
H481 C510 0.950 . S
H482 C512 0.950 . S
H483 C513 0.950 . S
C484 H466 0.951 . S
C484 C485 1.366 . S
C484 C486 1.388 . S
C485 C484 1.366 . S
C485 C489 1.385 . S
C486 H467 0.951 . S
C486 C484 1.388 . S
C486 C487 1.366 . S
C487 C486 1.366 . S
C487 C488 1.414 . S
C487 C490 1.499 . S
C488 H468 0.950 . S
C488 C487 1.414 . S
C488 C489 1.374 . S
C489 H469 0.950 . S
C489 C485 1.385 . S
C489 C488 1.374 . S
C490 C487 1.499 . S
C490 C491 1.373 . S
C490 C492 1.389 . S
C491 H470 0.950 . S
C491 C490 1.373 . S
C491 C507 1.377 . S
C492 C490 1.389 . S
C492 C493 1.524 . S
C492 C506 1.377 . S
C493 C492 1.524 . S
C493 C494 1.397 . S
C493 C498 1.363 . S
C494 H471 0.950 . S
C494 C493 1.397 . S
C494 C495 1.334 . S
C495 H472 0.950 . S
C495 C494 1.334 . S
C495 C496 1.287 . S
C496 C495 1.287 . S
C496 C497 1.524 . S
C496 H515 0.913 . S
C497 H473 0.950 . S
C497 C496 1.524 . S
C497 C498 1.415 . S
C498 H474 0.950 . S
C498 C493 1.363 . S
C498 C497 1.415 . S
C499 H475 0.951 . S
C499 C500 1.366 . S
C499 C501 1.388 . S
C500 C499 1.366 . S
C500 C504 1.385 . S
C501 H476 0.951 . S
C501 C499 1.388 . S
C501 C502 1.366 . S
C502 C501 1.366 . S
C502 C503 1.414 . S
C502 C505 1.499 . S
C503 H477 0.950 . S
C503 C502 1.414 . S
C503 C504 1.374 . S
C504 H478 0.950 . S
C504 C500 1.385 . S
C504 C503 1.374 . S
C505 C502 1.499 . S
C505 C506 1.373 . S
C505 C507 1.389 . S
C506 H479 0.950 . S
C506 C492 1.377 . S
C506 C505 1.373 . S
C507 C491 1.377 . S
C507 C505 1.389 . S
C507 C508 1.524 . S
C508 C507 1.524 . S
C508 C509 1.397 . S
C508 C513 1.363 . S
C509 H480 0.950 . S
C509 C508 1.397 . S
C509 C510 1.334 . S
C510 H481 0.950 . S
C510 C509 1.334 . S
C510 C511 1.287 . S
C511 C510 1.287 . S
C511 C512 1.524 . S
C511 H514 0.999 . S
C512 H482 0.950 . S
C512 C511 1.524 . S
C512 C513 1.415 . S
C513 H483 0.950 . S
C513 C508 1.363 . S
C513 C512 1.415 . S
H514 C511 0.999 . S
H515 C496 0.913 . S
H516 C534 0.951 . S
H517 C536 0.951 . S
H518 C538 0.950 . S
H519 C539 0.950 . S
H520 C541 0.950 . S
H521 C544 0.950 . S
H522 C545 0.950 . S
H523 C547 0.950 . S
H524 C548 0.950 . S
H525 C549 0.951 . S
H526 C551 0.951 . S
H527 C553 0.950 . S
H528 C554 0.950 . S
H529 C556 0.950 . S
H530 C559 0.950 . S
H531 C560 0.950 . S
H532 C562 0.950 . S
H533 C563 0.950 . S
C534 H516 0.951 . S
C534 C535 1.366 . S
C534 C536 1.388 . S
C535 C534 1.366 . S
C535 C539 1.385 . S
C536 H517 0.951 . S
C536 C534 1.388 . S
C536 C537 1.366 . S
C537 C536 1.366 . S
C537 C538 1.414 . S
C537 C540 1.499 . S
C538 H518 0.950 . S
C538 C537 1.414 . S
C538 C539 1.374 . S
C539 H519 0.950 . S
C539 C535 1.385 . S
C539 C538 1.374 . S
C540 C537 1.499 . S
C540 C541 1.373 . S
C540 C542 1.389 . S
C541 H520 0.950 . S
C541 C540 1.373 . S
C541 C557 1.377 . S
C542 C540 1.389 . S
C542 C543 1.524 . S
C542 C556 1.377 . S
C543 C542 1.524 . S
C543 C544 1.397 . S
C543 C548 1.363 . S
C544 H521 0.950 . S
C544 C543 1.397 . S
C544 C545 1.334 . S
C545 H522 0.950 . S
C545 C544 1.334 . S
C545 C546 1.287 . S
C546 C545 1.287 . S
C546 C547 1.524 . S
C546 H565 0.913 . S
C547 H523 0.950 . S
C547 C546 1.524 . S
C547 C548 1.415 . S
C548 H524 0.950 . S
C548 C543 1.363 . S
C548 C547 1.415 . S
C549 H525 0.951 . S
C549 C550 1.366 . S
C549 C551 1.388 . S
C550 C549 1.366 . S
C550 C554 1.385 . S
C551 H526 0.951 . S
C551 C549 1.388 . S
C551 C552 1.366 . S
C552 C551 1.366 . S
C552 C553 1.414 . S
C552 C555 1.499 . S
C553 H527 0.950 . S
C553 C552 1.414 . S
C553 C554 1.374 . S
C554 H528 0.950 . S
C554 C550 1.385 . S
C554 C553 1.374 . S
C555 C552 1.499 . S
C555 C556 1.373 . S
C555 C557 1.389 . S
C556 H529 0.950 . S
C556 C542 1.377 . S
C556 C555 1.373 . S
C557 C541 1.377 . S
C557 C555 1.389 . S
C557 C558 1.524 . S
C558 C557 1.524 . S
C558 C559 1.397 . S
C558 C563 1.363 . S
C559 H530 0.950 . S
C559 C558 1.397 . S
C559 C560 1.334 . S
C560 H531 0.950 . S
C560 C559 1.334 . S
C560 C561 1.287 . S
C561 C560 1.287 . S
C561 C562 1.524 . S
C561 H564 0.999 . S
C562 H532 0.950 . S
C562 C561 1.524 . S
C562 C563 1.415 . S
C563 H533 0.950 . S
C563 C558 1.363 . S
C563 C562 1.415 . S
H564 C561 0.999 . S
H565 C546 0.913 . S
H566 C584 0.951 . S
H567 C586 0.951 . S
H568 C588 0.950 . S
H569 C589 0.950 . S
H570 C591 0.950 . S
H571 C594 0.950 . S
H572 C595 0.950 . S
H573 C597 0.950 . S
H574 C598 0.950 . S
H575 C599 0.951 . S
H576 C601 0.951 . S
H577 C603 0.950 . S
H578 C604 0.950 . S
H579 C606 0.950 . S
H580 C609 0.950 . S
H581 C610 0.952 . S
H582 C612 0.950 . S
H583 C613 0.950 . S
C584 H566 0.951 . S
C584 C585 1.366 . S
C584 C586 1.388 . S
C585 C584 1.366 . S
C585 C589 1.385 . S
C586 H567 0.951 . S
C586 C584 1.388 . S
C586 C587 1.366 . S
C587 C586 1.366 . S
C587 C588 1.414 . S
C587 C590 1.499 . S
C588 H568 0.950 . S
C588 C587 1.414 . S
C588 C589 1.374 . S
C589 H569 0.950 . S
C589 C585 1.385 . S
C589 C588 1.374 . S
C590 C587 1.499 . S
C590 C591 1.373 . S
C590 C592 1.389 . S
C591 H570 0.950 . S
C591 C590 1.373 . S
C591 C607 1.377 . S
C592 C590 1.389 . S
C592 C593 1.524 . S
C592 C606 1.377 . S
C593 C592 1.524 . S
C593 C594 1.397 . S
C593 C598 1.363 . S
C594 H571 0.950 . S
C594 C593 1.397 . S
C594 C595 1.334 . S
C595 H572 0.950 . S
C595 C594 1.334 . S
C595 C596 1.287 . S
C596 C595 1.287 . S
C596 C597 1.524 . S
C596 H615 0.913 . S
C597 H573 0.950 . S
C597 C596 1.524 . S
C597 C598 1.415 . S
C598 H574 0.950 . S
C598 C593 1.363 . S
C598 C597 1.415 . S
C599 H575 0.951 . S
C599 C600 1.366 . S
C599 C601 1.388 . S
C600 C599 1.366 . S
C600 C604 1.385 . S
C601 H576 0.951 . S
C601 C599 1.388 . S
C601 C602 1.366 . S
C602 C601 1.366 . S
C602 C603 1.414 . S
C602 C605 1.499 . S
C603 H577 0.950 . S
C603 C602 1.414 . S
C603 C604 1.374 . S
C604 H578 0.950 . S
C604 C600 1.385 . S
C604 C603 1.374 . S
C605 C602 1.499 . S
C605 C606 1.373 . S
C605 C607 1.389 . S
C606 H579 0.950 . S
C606 C592 1.377 . S
C606 C605 1.373 . S
C607 C591 1.377 . S
C607 C605 1.389 . S
C607 C608 1.524 . S
C608 C607 1.524 . S
C608 C609 1.397 . S
C608 C613 1.363 . S
C609 H580 0.950 . S
C609 C608 1.397 . S
C609 C610 1.334 . S
C610 H581 0.952 . S
C610 C609 1.334 . S
C610 C611 1.287 1_655 S
C611 C610 1.287 1_455 S
C611 C612 1.524 . S
C611 H614 0.999 . S
C612 H582 0.950 . S
C612 C611 1.524 . S
C612 C613 1.415 1_455 S
C613 H583 0.950 . S
C613 C608 1.363 . S
C613 C612 1.415 1_655 S
H614 C611 0.999 . S
H615 C596 0.913 . S
H616 C634 0.951 . S
H617 C636 0.951 . S
H618 C638 0.950 . S
H619 C639 0.950 . S
H620 C641 0.950 . S
H621 C644 0.950 . S
H622 C645 0.950 . S
H623 C647 0.950 . S
H624 C648 0.950 . S
H625 C649 0.951 . S
H626 C651 0.951 . S
H627 C653 0.950 . S
H628 C654 0.950 . S
H629 C656 0.950 . S
H630 C659 0.950 . S
H631 C660 0.950 . S
H632 C662 0.950 . S
H633 C663 0.950 . S
C634 H616 0.951 . S
C634 C635 1.366 . S
C634 C636 1.388 . S
C635 C634 1.366 . S
C635 C639 1.385 . S
C636 H617 0.951 . S
C636 C634 1.388 . S
C636 C637 1.366 . S
C637 C636 1.366 . S
C637 C638 1.414 . S
C637 C640 1.499 . S
C638 H618 0.950 . S
C638 C637 1.414 . S
C638 C639 1.374 . S
C639 H619 0.950 . S
C639 C635 1.385 . S
C639 C638 1.374 . S
C640 C637 1.499 . S
C640 C641 1.373 . S
C640 C642 1.389 . S
C641 H620 0.950 . S
C641 C640 1.373 . S
C641 C657 1.377 . S
C642 C640 1.389 . S
C642 C643 1.524 . S
C642 C656 1.377 . S
C643 C642 1.524 . S
C643 C644 1.397 . S
C643 C648 1.363 . S
C644 H621 0.950 . S
C644 C643 1.397 . S
C644 C645 1.334 . S
C645 H622 0.950 . S
C645 C644 1.334 . S
C645 C646 1.287 . S
C646 C645 1.287 . S
C646 C647 1.524 . S
C646 H665 0.913 . S
C647 H623 0.950 . S
C647 C646 1.524 . S
C647 C648 1.415 . S
C648 H624 0.950 . S
C648 C643 1.363 . S
C648 C647 1.415 . S
C649 H625 0.951 . S
C649 C650 1.366 . S
C649 C651 1.388 . S
C650 C649 1.366 . S
C650 C654 1.385 . S
C651 H626 0.951 . S
C651 C649 1.388 . S
C651 C652 1.366 . S
C652 C651 1.366 . S
C652 C653 1.414 . S
C652 C655 1.499 . S
C653 H627 0.950 . S
C653 C652 1.414 . S
C653 C654 1.374 . S
C654 H628 0.950 . S
C654 C650 1.385 . S
C654 C653 1.374 . S
C655 C652 1.499 . S
C655 C656 1.373 . S
C655 C657 1.389 . S
C656 H629 0.950 . S
C656 C642 1.377 . S
C656 C655 1.373 . S
C657 C641 1.377 . S
C657 C655 1.389 . S
C657 C658 1.524 . S
C658 C657 1.524 . S
C658 C659 1.397 . S
C658 C663 1.363 . S
C659 H630 0.950 . S
C659 C658 1.397 . S
C659 C660 1.334 . S
C660 H631 0.950 . S
C660 C659 1.334 . S
C660 C661 1.287 . S
C661 C660 1.287 . S
C661 C662 1.524 . S
C661 H664 0.999 . S
C662 H632 0.950 . S
C662 C661 1.524 . S
C662 C663 1.415 . S
C663 H633 0.950 . S
C663 C658 1.363 . S
C663 C662 1.415 . S
H664 C661 0.999 . S
H665 C646 0.913 . S
H666 C684 0.951 . S
H667 C686 0.951 . S
H668 C688 0.950 . S
H669 C689 0.950 . S
H670 C691 0.950 . S
H671 C694 0.950 . S
H672 C695 0.950 . S
H673 C697 0.950 . S
H674 C698 0.950 . S
H675 C699 0.951 . S
H676 C701 0.951 . S
H677 C703 0.950 . S
H678 C704 0.950 1_545 S
H679 C706 0.950 . S
H680 C709 0.950 . S
H681 C710 0.950 . S
H682 C712 0.950 . S
H683 C713 0.950 . S
C684 H666 0.951 . S
C684 C685 1.366 . S
C684 C686 1.388 . S
C685 C684 1.366 . S
C685 C689 1.385 . S
C686 H667 0.951 . S
C686 C684 1.388 . S
C686 C687 1.366 . S
C687 C686 1.366 . S
C687 C688 1.414 . S
C687 C690 1.499 . S
C688 H668 0.950 . S
C688 C687 1.414 . S
C688 C689 1.374 . S
C689 H669 0.950 . S
C689 C685 1.385 . S
C689 C688 1.374 . S
C690 C687 1.499 . S
C690 C691 1.373 . S
C690 C692 1.389 . S
C691 H670 0.950 . S
C691 C690 1.373 . S
C691 C707 1.377 . S
C692 C690 1.389 . S
C692 C693 1.524 . S
C692 C706 1.377 . S
C693 C692 1.524 . S
C693 C694 1.397 . S
C693 C698 1.363 . S
C694 H671 0.950 . S
C694 C693 1.397 . S
C694 C695 1.334 . S
C695 H672 0.950 . S
C695 C694 1.334 . S
C695 C696 1.287 . S
C696 C695 1.287 . S
C696 C697 1.524 . S
C696 H715 0.913 . S
C697 H673 0.950 . S
C697 C696 1.524 . S
C697 C698 1.415 . S
C698 H674 0.950 . S
C698 C693 1.363 . S
C698 C697 1.415 . S
C699 H675 0.951 . S
C699 C700 1.366 . S
C699 C701 1.388 . S
C700 C699 1.366 . S
C700 C704 1.385 . S
C701 H676 0.951 . S
C701 C699 1.388 . S
C701 C702 1.366 . S
C702 C701 1.366 . S
C702 C703 1.414 . S
C702 C705 1.499 . S
C703 H677 0.950 . S
C703 C702 1.414 . S
C703 C704 1.374 . S
C704 H678 0.950 1_565 S
C704 C700 1.385 . S
C704 C703 1.374 . S
C705 C702 1.499 . S
C705 C706 1.373 . S
C705 C707 1.389 . S
C706 H679 0.950 . S
C706 C692 1.377 . S
C706 C705 1.373 . S
C707 C691 1.377 . S
C707 C705 1.389 . S
C707 C708 1.524 . S
C708 C707 1.524 . S
C708 C709 1.397 . S
C708 C713 1.363 . S
C709 H680 0.950 . S
C709 C708 1.397 . S
C709 C710 1.334 . S
C710 H681 0.950 . S
C710 C709 1.334 . S
C710 C711 1.287 . S
C711 C710 1.287 . S
C711 C712 1.524 . S
C711 H714 0.999 . S
C712 H682 0.950 . S
C712 C711 1.524 . S
C712 C713 1.415 . S
C713 H683 0.950 . S
C713 C708 1.363 . S
C713 C712 1.415 . S
H714 C711 0.999 . S
H715 C696 0.913 . S
H716 C734 0.951 . S
H717 C736 0.951 . S
H718 C738 0.950 . S
H719 C739 0.950 . S
H720 C741 0.950 . S
H721 C744 0.950 . S
H722 C745 0.950 . S
H723 C747 0.950 . S
H724 C748 0.950 . S
H725 C749 0.908 1_554 S
H726 C751 0.951 . S
H727 C753 0.950 . S
H728 C754 0.950 . S
H729 C756 0.950 . S
H730 C759 0.950 . S
H731 C760 0.950 . S
H732 C762 0.950 . S
H733 C763 0.950 . S
C734 H716 0.951 . S
C734 C735 1.366 . S
C734 C736 1.388 . S
C735 C734 1.366 . S
C735 C739 1.385 . S
C736 H717 0.951 . S
C736 C734 1.388 . S
C736 C737 1.366 . S
C737 C736 1.366 . S
C737 C738 1.414 . S
C737 C740 1.499 . S
C738 H718 0.950 . S
C738 C737 1.414 . S
C738 C739 1.374 . S
C739 H719 0.950 . S
C739 C735 1.385 . S
C739 C738 1.374 . S
C740 C737 1.499 . S
C740 C741 1.373 . S
C740 C742 1.389 . S
C741 H720 0.950 . S
C741 C740 1.373 . S
C741 C757 1.377 . S
C742 C740 1.389 . S
C742 C743 1.524 . S
C742 C756 1.377 . S
C743 C742 1.524 . S
C743 C744 1.397 . S
C743 C748 1.363 . S
C744 H721 0.950 . S
C744 C743 1.397 . S
C744 C745 1.334 . S
C745 H722 0.950 . S
C745 C744 1.334 . S
C745 C746 1.287 . S
C746 C745 1.287 . S
C746 C747 1.524 . S
C746 H765 0.913 . S
C747 H723 0.950 . S
C747 C746 1.524 . S
C747 C748 1.415 . S
C748 H724 0.950 . S
C748 C743 1.363 . S
C748 C747 1.415 . S
C749 H725 0.908 1_556 S
C749 C750 1.366 . S
C749 C751 1.388 . S
C750 C749 1.366 . S
C750 C754 1.385 . S
C751 H726 0.951 . S
C751 C749 1.388 . S
C751 C752 1.366 . S
C752 C751 1.366 . S
C752 C753 1.414 . S
C752 C755 1.499 . S
C753 H727 0.950 . S
C753 C752 1.414 . S
C753 C754 1.374 . S
C754 H728 0.950 . S
C754 C750 1.385 . S
C754 C753 1.374 . S
C755 C752 1.499 . S
C755 C756 1.373 . S
C755 C757 1.389 . S
C756 H729 0.950 . S
C756 C742 1.377 . S
C756 C755 1.373 . S
C757 C741 1.377 . S
C757 C755 1.389 . S
C757 C758 1.524 . S
C758 C757 1.524 . S
C758 C759 1.397 . S
C758 C763 1.363 . S
C759 H730 0.950 . S
C759 C758 1.397 . S
C759 C760 1.334 . S
C760 H731 0.950 . S
C760 C759 1.334 . S
C760 C761 1.287 . S
C761 C760 1.287 . S
C761 C762 1.524 . S
C761 H764 0.999 . S
C762 H732 0.950 . S
C762 C761 1.524 . S
C762 C763 1.415 . S
C763 H733 0.950 . S
C763 C758 1.363 . S
C763 C762 1.415 . S
H764 C761 0.999 . S
H765 C746 0.913 . S
H766 C784 0.951 . S
H767 C786 0.951 . S
H768 C788 0.950 . S
H769 C789 0.950 . S
H770 C791 0.950 . S
H771 C794 0.950 . S
H772 C795 0.950 . S
H773 C797 0.950 . S
H774 C798 0.950 . S
H775 C799 0.951 . S
H776 C801 0.951 . S
H777 C803 0.950 . S
H778 C804 0.950 . S
H779 C806 0.950 . S
H780 C809 0.950 . S
H781 C810 0.950 . S
H782 C812 0.950 . S
H783 C813 0.950 . S
C784 H766 0.951 . S
C784 C785 1.366 . S
C784 C786 1.388 . S
C785 C784 1.366 . S
C785 C789 1.385 . S
C786 H767 0.951 . S
C786 C784 1.388 . S
C786 C787 1.366 . S
C787 C786 1.366 . S
C787 C788 1.414 . S
C787 C790 1.499 . S
C788 H768 0.950 . S
C788 C787 1.414 . S
C788 C789 1.374 . S
C789 H769 0.950 . S
C789 C785 1.385 . S
C789 C788 1.374 . S
C790 C787 1.499 . S
C790 C791 1.373 . S
C790 C792 1.389 . S
C791 H770 0.950 . S
C791 C790 1.373 . S
C791 C807 1.377 . S
C792 C790 1.389 . S
C792 C793 1.524 . S
C792 C806 1.377 . S
C793 C792 1.524 . S
C793 C794 1.397 . S
C793 C798 1.363 . S
C794 H771 0.950 . S
C794 C793 1.397 . S
C794 C795 1.334 . S
C795 H772 0.950 . S
C795 C794 1.334 . S
C795 C796 1.287 . S
C796 C795 1.287 . S
C796 C797 1.524 . S
C796 H815 0.913 . S
C797 H773 0.950 . S
C797 C796 1.524 . S
C797 C798 1.415 . S
C798 H774 0.950 . S
C798 C793 1.363 . S
C798 C797 1.415 . S
C799 H775 0.951 . S
C799 C800 1.366 . S
C799 C801 1.388 . S
C800 C799 1.366 . S
C800 C804 1.385 . S
C801 H776 0.951 . S
C801 C799 1.388 . S
C801 C802 1.366 . S
C802 C801 1.366 . S
C802 C803 1.414 . S
C802 C805 1.499 . S
C803 H777 0.950 . S
C803 C802 1.414 . S
C803 C804 1.374 . S
C804 H778 0.950 . S
C804 C800 1.385 . S
C804 C803 1.374 . S
C805 C802 1.499 . S
C805 C806 1.373 . S
C805 C807 1.389 . S
C806 H779 0.950 . S
C806 C792 1.377 . S
C806 C805 1.373 . S
C807 C791 1.377 . S
C807 C805 1.389 . S
C807 C808 1.524 . S
C808 C807 1.524 . S
C808 C809 1.397 . S
C808 C813 1.363 . S
C809 H780 0.950 . S
C809 C808 1.397 . S
C809 C810 1.334 . S
C810 H781 0.950 . S
C810 C809 1.334 . S
C810 C811 1.287 . S
C811 C810 1.287 . S
C811 C812 1.524 . S
C811 H814 0.999 . S
C812 H782 0.950 . S
C812 C811 1.524 . S
C812 C813 1.415 . S
C813 H783 0.950 . S
C813 C808 1.363 . S
C813 C812 1.415 . S
H814 C811 0.999 . S
H815 C796 0.913 . S
H816 C834 0.951 . S
H817 C836 0.951 . S
H818 C838 0.950 . S
H819 C839 0.950 . S
H820 C841 0.950 . S
H821 C844 0.950 . S
H822 C845 0.950 . S
H823 C847 0.950 . S
H824 C848 0.950 . S
H825 C849 0.951 . S
H826 C851 0.951 . S
H827 C853 0.950 . S
H828 C854 0.950 . S
H829 C856 0.950 . S
H830 C859 0.950 . S
H831 C860 0.950 . S
H832 C862 0.950 . S
H833 C863 0.950 . S
C834 H816 0.951 . S
C834 C835 1.366 . S
C834 C836 1.388 . S
C835 C834 1.366 . S
C835 C839 1.385 . S
C836 H817 0.951 . S
C836 C834 1.388 . S
C836 C837 1.366 . S
C837 C836 1.366 . S
C837 C838 1.414 . S
C837 C840 1.499 . S
C838 H818 0.950 . S
C838 C837 1.414 . S
C838 C839 1.374 . S
C839 H819 0.950 . S
C839 C835 1.385 . S
C839 C838 1.374 . S
C840 C837 1.499 . S
C840 C841 1.373 . S
C840 C842 1.389 . S
C841 H820 0.950 . S
C841 C840 1.373 . S
C841 C857 1.377 . S
C842 C840 1.389 . S
C842 C843 1.524 . S
C842 C856 1.377 . S
C843 C842 1.524 . S
C843 C844 1.397 . S
C843 C848 1.363 . S
C844 H821 0.950 . S
C844 C843 1.397 . S
C844 C845 1.334 . S
C845 H822 0.950 . S
C845 C844 1.334 . S
C845 C846 1.287 . S
C846 C845 1.287 . S
C846 C847 1.524 . S
C846 H865 0.913 . S
C847 H823 0.950 . S
C847 C846 1.524 . S
C847 C848 1.415 . S
C848 H824 0.950 . S
C848 C843 1.363 . S
C848 C847 1.415 . S
C849 H825 0.951 . S
C849 C850 1.366 . S
C849 C851 1.388 . S
C850 C849 1.366 . S
C850 C854 1.385 . S
C851 H826 0.951 . S
C851 C849 1.388 . S
C851 C852 1.366 . S
C852 C851 1.366 . S
C852 C853 1.414 . S
C852 C855 1.499 . S
C853 H827 0.950 . S
C853 C852 1.414 . S
C853 C854 1.374 . S
C854 H828 0.950 . S
C854 C850 1.385 . S
C854 C853 1.374 . S
C855 C852 1.499 . S
C855 C856 1.373 . S
C855 C857 1.389 . S
C856 H829 0.950 . S
C856 C842 1.377 . S
C856 C855 1.373 . S
C857 C841 1.377 . S
C857 C855 1.389 . S
C857 C858 1.524 . S
C858 C857 1.524 . S
C858 C859 1.397 . S
C858 C863 1.363 . S
C859 H830 0.950 . S
C859 C858 1.397 . S
C859 C860 1.334 . S
C860 H831 0.950 . S
C860 C859 1.334 . S
C860 C861 1.287 . S
C861 C860 1.287 . S
C861 C862 1.524 . S
C861 H864 0.999 . S
C862 H832 0.950 . S
C862 C861 1.524 . S
C862 C863 1.415 . S
C863 H833 0.950 . S
C863 C858 1.363 . S
C863 C862 1.415 . S
H864 C861 0.999 . S
H865 C846 0.913 . S
H866 C884 0.951 . S
H867 C886 0.951 . S
H868 C888 0.950 . S
H869 C889 0.950 . S
H870 C891 0.950 . S
H871 C894 0.950 . S
H872 C895 0.950 . S
H873 C897 0.950 . S
H874 C898 0.950 . S
H875 C899 0.951 . S
H876 C901 0.951 . S
H877 C903 0.950 . S
H878 C904 0.950 . S
H879 C906 0.950 . S
H880 C909 0.950 . S
H881 C910 0.950 . S
H882 C912 0.950 . S
H883 C913 0.950 . S
C884 H866 0.951 . S
C884 C885 1.366 . S
C884 C886 1.388 . S
C885 C884 1.366 . S
C885 C889 1.385 . S
C886 H867 0.951 . S
C886 C884 1.388 . S
C886 C887 1.366 . S
C887 C886 1.366 . S
C887 C888 1.414 . S
C887 C890 1.499 . S
C888 H868 0.950 . S
C888 C887 1.414 . S
C888 C889 1.374 . S
C889 H869 0.950 . S
C889 C885 1.385 . S
C889 C888 1.374 . S
C890 C887 1.499 . S
C890 C891 1.373 . S
C890 C892 1.389 . S
C891 H870 0.950 . S
C891 C890 1.373 . S
C891 C907 1.377 . S
C892 C890 1.389 . S
C892 C893 1.524 . S
C892 C906 1.377 . S
C893 C892 1.524 . S
C893 C894 1.397 . S
C893 C898 1.363 . S
C894 H871 0.950 . S
C894 C893 1.397 . S
C894 C895 1.334 . S
C895 H872 0.950 . S
C895 C894 1.334 . S
C895 C896 1.287 . S
C896 C895 1.287 . S
C896 C897 1.524 . S
C896 H915 0.913 . S
C897 H873 0.950 . S
C897 C896 1.524 . S
C897 C898 1.415 . S
C898 H874 0.950 . S
C898 C893 1.363 . S
C898 C897 1.415 . S
C899 H875 0.951 . S
C899 C900 1.366 . S
C899 C901 1.388 . S
C900 C899 1.366 . S
C900 C904 1.385 . S
C901 H876 0.951 . S
C901 C899 1.388 . S
C901 C902 1.366 . S
C902 C901 1.366 . S
C902 C903 1.414 . S
C902 C905 1.499 . S
C903 H877 0.950 . S
C903 C902 1.414 . S
C903 C904 1.374 . S
C904 H878 0.950 . S
C904 C900 1.385 . S
C904 C903 1.374 . S
C905 C902 1.499 . S
C905 C906 1.373 . S
C905 C907 1.389 . S
C906 H879 0.950 . S
C906 C892 1.377 . S
C906 C905 1.373 . S
C907 C891 1.377 . S
C907 C905 1.389 . S
C907 C908 1.524 . S
C908 C907 1.524 . S
C908 C909 1.397 . S
C908 C913 1.363 . S
C909 H880 0.950 . S
C909 C908 1.397 . S
C909 C910 1.334 . S
C910 H881 0.950 . S
C910 C909 1.334 . S
C910 C911 1.287 . S
C911 C910 1.287 . S
C911 C912 1.524 . S
C911 H914 0.999 . S
C912 H882 0.950 . S
C912 C911 1.524 . S
C912 C913 1.415 . S
C913 H883 0.950 . S
C913 C908 1.363 . S
C913 C912 1.415 . S
H914 C911 0.999 . S
H915 C896 0.913 . S
H916 C934 0.951 . S
H917 C936 0.951 . S
H918 C938 0.950 . S
H919 C939 0.950 . S
H920 C941 0.950 . S
H921 C944 0.950 . S
H922 C945 0.950 . S
H923 C947 0.950 . S
H924 C948 0.950 . S
H925 C949 0.951 . S
H926 C951 0.951 . S
H927 C953 0.950 . S
H928 C954 0.950 . S
H929 C956 0.950 . S
H930 C959 0.950 . S
H931 C960 0.950 . S
H932 C962 0.950 . S
H933 C963 0.950 . S
C934 H916 0.951 . S
C934 C935 1.366 . S
C934 C936 1.388 . S
C935 C934 1.366 . S
C935 C939 1.385 . S
C936 H917 0.951 . S
C936 C934 1.388 . S
C936 C937 1.366 . S
C937 C936 1.366 . S
C937 C938 1.414 . S
C937 C940 1.499 . S
C938 H918 0.950 . S
C938 C937 1.414 . S
C938 C939 1.374 . S
C939 H919 0.950 . S
C939 C935 1.385 . S
C939 C938 1.374 . S
C940 C937 1.499 . S
C940 C941 1.373 . S
C940 C942 1.389 . S
C941 H920 0.950 . S
C941 C940 1.373 . S
C941 C957 1.377 . S
C942 C940 1.389 . S
C942 C943 1.524 . S
C942 C956 1.377 . S
C943 C942 1.524 . S
C943 C944 1.397 . S
C943 C948 1.363 . S
C944 H921 0.950 . S
C944 C943 1.397 . S
C944 C945 1.334 . S
C945 H922 0.950 . S
C945 C944 1.334 . S
C945 C946 1.287 . S
C946 C945 1.287 . S
C946 C947 1.524 . S
C946 H965 0.913 . S
C947 H923 0.950 . S
C947 C946 1.524 . S
C947 C948 1.415 . S
C948 H924 0.950 . S
C948 C943 1.363 . S
C948 C947 1.415 . S
C949 H925 0.951 . S
C949 C950 1.366 . S
C949 C951 1.388 . S
C950 C949 1.366 . S
C950 C954 1.385 . S
C951 H926 0.951 . S
C951 C949 1.388 . S
C951 C952 1.366 . S
C952 C951 1.366 . S
C952 C953 1.414 . S
C952 C955 1.499 . S
C953 H927 0.950 . S
C953 C952 1.414 . S
C953 C954 1.374 . S
C954 H928 0.950 . S
C954 C950 1.385 . S
C954 C953 1.374 . S
C955 C952 1.499 . S
C955 C956 1.373 . S
C955 C957 1.389 . S
C956 H929 0.950 . S
C956 C942 1.377 . S
C956 C955 1.373 . S
C957 C941 1.377 . S
C957 C955 1.389 . S
C957 C958 1.524 . S
C958 C957 1.524 . S
C958 C959 1.397 . S
C958 C963 1.363 . S
C959 H930 0.950 . S
C959 C958 1.397 . S
C959 C960 1.334 . S
C960 H931 0.950 . S
C960 C959 1.334 . S
C960 C961 1.287 . S
C961 C960 1.287 . S
C961 C962 1.524 . S
C961 H964 0.999 . S
C962 H932 0.950 . S
C962 C961 1.524 . S
C962 C963 1.415 . S
C963 H933 0.950 . S
C963 C958 1.363 . S
C963 C962 1.415 . S
H964 C961 0.999 . S
H965 C946 0.913 . S
H966 C984 0.951 . S
H967 C986 0.951 . S
H968 C988 0.950 . S
H969 C989 0.950 . S
H970 C991 0.950 . S
H971 C994 0.950 . S
H972 C995 0.950 . S
H973 C997 0.950 . S
H974 C998 0.950 . S
H975 C999 0.951 . S
H976 C1001 0.951 . S
H977 C1003 0.950 . S
H978 C1004 0.950 . S
H979 C1006 0.950 . S
H980 C1009 0.950 . S
H981 C1010 0.950 . S
H982 C1012 0.950 . S
H983 C1013 0.950 . S
C984 H966 0.951 . S
C984 C985 1.366 . S
C984 C986 1.388 . S
C985 C984 1.366 . S
C985 C989 1.385 . S
C986 H967 0.951 . S
C986 C984 1.388 . S
C986 C987 1.366 . S
C987 C986 1.366 . S
C987 C988 1.414 . S
C987 C990 1.499 . S
C988 H968 0.950 . S
C988 C987 1.414 . S
C988 C989 1.374 . S
C989 H969 0.950 . S
C989 C985 1.385 . S
C989 C988 1.374 . S
C990 C987 1.499 . S
C990 C991 1.373 . S
C990 C992 1.389 . S
C991 H970 0.950 . S
C991 C990 1.373 . S
C991 C1007 1.377 . S
C992 C990 1.389 . S
C992 C993 1.524 . S
C992 C1006 1.377 . S
C993 C992 1.524 . S
C993 C994 1.397 . S
C993 C998 1.363 . S
C994 H971 0.950 . S
C994 C993 1.397 . S
C994 C995 1.334 . S
C995 H972 0.950 . S
C995 C994 1.334 . S
C995 C996 1.287 . S
C996 C995 1.287 . S
C996 C997 1.524 . S
C996 H1015 0.913 . S
C997 H973 0.950 . S
C997 C996 1.524 . S
C997 C998 1.415 . S
C998 H974 0.950 . S
C998 C993 1.363 . S
C998 C997 1.415 . S
C999 H975 0.951 . S
C999 C1000 1.366 . S
C999 C1001 1.388 . S
C1000 C999 1.366 . S
C1000 C1004 1.385 . S
C1001 H976 0.951 . S
C1001 C999 1.388 . S
C1001 C1002 1.366 . S
C1002 C1001 1.366 . S
C1002 C1003 1.414 . S
C1002 C1005 1.499 . S
C1003 H977 0.950 . S
C1003 C1002 1.414 . S
C1003 C1004 1.374 . S
C1004 H978 0.950 . S
C1004 C1000 1.385 . S
C1004 C1003 1.374 . S
C1005 C1002 1.499 . S
C1005 C1006 1.373 . S
C1005 C1007 1.389 . S
C1006 H979 0.950 . S
C1006 C992 1.377 . S
C1006 C1005 1.373 . S
C1007 C991 1.377 . S
C1007 C1005 1.389 . S
C1007 C1008 1.524 . S
C1008 C1007 1.524 . S
C1008 C1009 1.397 . S
C1008 C1013 1.363 . S
C1009 H980 0.950 . S
C1009 C1008 1.397 . S
C1009 C1010 1.334 . S
C1010 H981 0.950 . S
C1010 C1009 1.334 . S
C1010 C1011 1.287 . S
C1011 C1010 1.287 . S
C1011 C1012 1.524 . S
C1011 H1014 0.999 . S
C1012 H982 0.950 . S
C1012 C1011 1.524 . S
C1012 C1013 1.415 . S
C1013 H983 0.950 . S
C1013 C1008 1.363 . S
C1013 C1012 1.415 . S
H1014 C1011 0.999 . S
H1015 C996 0.913 . S
H1016 C1034 0.951 . S
H1017 C1036 0.951 . S
H1018 C1038 0.950 . S
H1019 C1039 0.950 . S
H1020 C1041 0.950 . S
H1021 C1044 0.950 . S
H1022 C1045 0.950 . S
H1023 C1047 0.950 . S
H1024 C1048 0.950 . S
H1025 C1049 0.951 . S
H1026 C1051 0.951 . S
H1027 C1053 0.950 . S
H1028 C1054 0.950 . S
H1029 C1056 0.950 . S
H1030 C1059 0.950 . S
H1031 C1060 0.950 . S
H1032 C1062 0.950 . S
H1033 C1063 0.950 . S
C1034 H1016 0.951 . S
C1034 C1035 1.366 . S
C1034 C1036 1.388 . S
C1035 C1034 1.366 . S
C1035 C1039 1.385 . S
C1036 H1017 0.951 . S
C1036 C1034 1.388 . S
C1036 C1037 1.366 . S
C1037 C1036 1.366 . S
C1037 C1038 1.414 . S
C1037 C1040 1.499 . S
C1038 H1018 0.950 . S
C1038 C1037 1.414 . S
C1038 C1039 1.374 . S
C1039 H1019 0.950 . S
C1039 C1035 1.385 . S
C1039 C1038 1.374 . S
C1040 C1037 1.499 . S
C1040 C1041 1.373 . S
C1040 C1042 1.389 . S
C1041 H1020 0.950 . S
C1041 C1040 1.373 . S
C1041 C1057 1.377 . S
C1042 C1040 1.389 . S
C1042 C1043 1.524 . S
C1042 C1056 1.377 . S
C1043 C1042 1.524 . S
C1043 C1044 1.397 . S
C1043 C1048 1.363 . S
C1044 H1021 0.950 . S
C1044 C1043 1.397 . S
C1044 C1045 1.334 . S
C1045 H1022 0.950 . S
C1045 C1044 1.334 . S
C1045 C1046 1.287 . S
C1046 C1045 1.287 . S
C1046 C1047 1.524 . S
C1046 H1065 0.913 . S
C1047 H1023 0.950 . S
C1047 C1046 1.524 . S
C1047 C1048 1.415 . S
C1048 H1024 0.950 . S
C1048 C1043 1.363 . S
C1048 C1047 1.415 . S
C1049 H1025 0.951 . S
C1049 C1050 1.366 . S
C1049 C1051 1.388 . S
C1050 C1049 1.366 . S
C1050 C1054 1.385 . S
C1051 H1026 0.951 . S
C1051 C1049 1.388 . S
C1051 C1052 1.366 . S
C1052 C1051 1.366 . S
C1052 C1053 1.414 . S
C1052 C1055 1.499 . S
C1053 H1027 0.950 . S
C1053 C1052 1.414 . S
C1053 C1054 1.374 . S
C1054 H1028 0.950 . S
C1054 C1050 1.385 . S
C1054 C1053 1.374 . S
C1055 C1052 1.499 . S
C1055 C1056 1.373 . S
C1055 C1057 1.389 . S
C1056 H1029 0.950 . S
C1056 C1042 1.377 . S
C1056 C1055 1.373 . S
C1057 C1041 1.377 . S
C1057 C1055 1.389 . S
C1057 C1058 1.524 . S
C1058 C1057 1.524 . S
C1058 C1059 1.397 . S
C1058 C1063 1.363 . S
C1059 H1030 0.950 . S
C1059 C1058 1.397 . S
C1059 C1060 1.334 . S
C1060 H1031 0.950 . S
C1060 C1059 1.334 . S
C1060 C1061 1.287 . S
C1061 C1060 1.287 . S
C1061 C1062 1.524 . S
C1061 H1064 0.999 . S
C1062 H1032 0.950 . S
C1062 C1061 1.524 . S
C1062 C1063 1.415 . S
C1063 H1033 0.950 . S
C1063 C1058 1.363 . S
C1063 C1062 1.415 . S
H1064 C1061 0.999 . S
H1065 C1046 0.913 . S
H1066 C1084 0.951 . S
H1067 C1086 0.951 . S
H1068 C1088 0.950 . S
H1069 C1089 0.950 . S
H1070 C1091 0.950 . S
H1071 C1094 0.950 . S
H1072 C1095 0.950 . S
H1073 C1097 0.950 . S
H1074 C1098 0.950 . S
H1075 C1099 0.951 . S
H1076 C1101 0.951 . S
H1077 C1103 0.950 . S
H1078 C1104 0.950 . S
H1079 C1106 0.950 . S
H1080 C1109 0.950 . S
H1081 C1110 0.950 . S
H1082 C1112 0.950 . S
H1083 C1113 0.950 . S
C1084 H1066 0.951 . S
C1084 C1085 1.366 . S
C1084 C1086 1.388 . S
C1085 C1084 1.366 . S
C1085 C1089 1.385 . S
C1086 H1067 0.951 . S
C1086 C1084 1.388 . S
C1086 C1087 1.366 . S
C1087 C1086 1.366 . S
C1087 C1088 1.414 . S
C1087 C1090 1.499 . S
C1088 H1068 0.950 . S
C1088 C1087 1.414 . S
C1088 C1089 1.374 . S
C1089 H1069 0.950 . S
C1089 C1085 1.385 . S
C1089 C1088 1.374 . S
C1090 C1087 1.499 . S
C1090 C1091 1.373 . S
C1090 C1092 1.389 . S
C1091 H1070 0.950 . S
C1091 C1090 1.373 . S
C1091 C1107 1.377 . S
C1092 C1090 1.389 . S
C1092 C1093 1.524 . S
C1092 C1106 1.377 . S
C1093 C1092 1.524 . S
C1093 C1094 1.397 . S
C1093 C1098 1.363 . S
C1094 H1071 0.950 . S
C1094 C1093 1.397 . S
C1094 C1095 1.334 . S
C1095 H1072 0.950 . S
C1095 C1094 1.334 . S
C1095 C1096 1.287 . S
C1096 C1095 1.287 . S
C1096 C1097 1.524 . S
C1096 H1115 0.913 . S
C1097 H1073 0.950 . S
C1097 C1096 1.524 . S
C1097 C1098 1.415 . S
C1098 H1074 0.950 . S
C1098 C1093 1.363 . S
C1098 C1097 1.415 . S
C1099 H1075 0.951 . S
C1099 C1100 1.366 . S
C1099 C1101 1.388 . S
C1100 C1099 1.366 . S
C1100 C1104 1.385 . S
C1101 H1076 0.951 . S
C1101 C1099 1.388 . S
C1101 C1102 1.366 . S
C1102 C1101 1.366 . S
C1102 C1103 1.414 . S
C1102 C1105 1.499 . S
C1103 H1077 0.950 . S
C1103 C1102 1.414 . S
C1103 C1104 1.374 . S
C1104 H1078 0.950 . S
C1104 C1100 1.385 . S
C1104 C1103 1.374 . S
C1105 C1102 1.499 . S
C1105 C1106 1.373 . S
C1105 C1107 1.389 . S
C1106 H1079 0.950 . S
C1106 C1092 1.377 . S
C1106 C1105 1.373 . S
C1107 C1091 1.377 . S
C1107 C1105 1.389 . S
C1107 C1108 1.524 . S
C1108 C1107 1.524 . S
C1108 C1109 1.397 . S
C1108 C1113 1.363 . S
C1109 H1080 0.950 . S
C1109 C1108 1.397 . S
C1109 C1110 1.334 . S
C1110 H1081 0.950 . S
C1110 C1109 1.334 . S
C1110 C1111 1.287 . S
C1111 C1110 1.287 . S
C1111 C1112 1.524 . S
C1111 H1114 0.999 . S
C1112 H1082 0.950 . S
C1112 C1111 1.524 . S
C1112 C1113 1.415 . S
C1113 H1083 0.950 . S
C1113 C1108 1.363 . S
C1113 C1112 1.415 . S
H1114 C1111 0.999 . S
H1115 C1096 0.913 . S
H1116 C1134 0.951 . S
H1117 C1136 0.951 . S
H1118 C1138 0.950 . S
H1119 C1139 0.950 . S
H1120 C1141 0.950 . S
H1121 C1144 0.950 . S
H1122 C1145 0.950 . S
H1123 C1147 0.950 . S
H1124 C1148 0.950 . S
H1125 C1149 0.951 . S
H1126 C1151 0.951 . S
H1127 C1153 0.950 . S
H1128 C1154 0.950 . S
H1129 C1156 0.950 . S
H1130 C1159 0.950 . S
H1131 C1160 0.950 . S
H1132 C1162 0.950 . S
H1133 C1163 0.950 . S
C1134 H1116 0.951 . S
C1134 C1135 1.366 . S
C1134 C1136 1.388 . S
C1135 C1134 1.366 . S
C1135 C1139 1.385 . S
C1136 H1117 0.951 . S
C1136 C1134 1.388 . S
C1136 C1137 1.366 . S
C1137 C1136 1.366 . S
C1137 C1138 1.414 . S
C1137 C1140 1.499 . S
C1138 H1118 0.950 . S
C1138 C1137 1.414 . S
C1138 C1139 1.374 . S
C1139 H1119 0.950 . S
C1139 C1135 1.385 . S
C1139 C1138 1.374 . S
C1140 C1137 1.499 . S
C1140 C1141 1.373 . S
C1140 C1142 1.389 . S
C1141 H1120 0.950 . S
C1141 C1140 1.373 . S
C1141 C1157 1.377 . S
C1142 C1140 1.389 . S
C1142 C1143 1.524 . S
C1142 C1156 1.377 . S
C1143 C1142 1.524 . S
C1143 C1144 1.397 . S
C1143 C1148 1.363 . S
C1144 H1121 0.950 . S
C1144 C1143 1.397 . S
C1144 C1145 1.334 . S
C1145 H1122 0.950 . S
C1145 C1144 1.334 . S
C1145 C1146 1.287 . S
C1146 C1145 1.287 . S
C1146 C1147 1.524 . S
C1146 H1165 0.913 . S
C1147 H1123 0.950 . S
C1147 C1146 1.524 . S
C1147 C1148 1.415 . S
C1148 H1124 0.950 . S
C1148 C1143 1.363 . S
C1148 C1147 1.415 . S
C1149 H1125 0.951 . S
C1149 C1150 1.366 . S
C1149 C1151 1.388 . S
C1150 C1149 1.366 . S
C1150 C1154 1.385 . S
C1151 H1126 0.951 . S
C1151 C1149 1.388 . S
C1151 C1152 1.366 . S
C1152 C1151 1.366 . S
C1152 C1153 1.414 . S
C1152 C1155 1.499 . S
C1153 H1127 0.950 . S
C1153 C1152 1.414 . S
C1153 C1154 1.374 . S
C1154 H1128 0.950 . S
C1154 C1150 1.385 . S
C1154 C1153 1.374 . S
C1155 C1152 1.499 . S
C1155 C1156 1.373 . S
C1155 C1157 1.389 . S
C1156 H1129 0.950 . S
C1156 C1142 1.377 . S
C1156 C1155 1.373 . S
C1157 C1141 1.377 . S
C1157 C1155 1.389 . S
C1157 C1158 1.524 . S
C1158 C1157 1.524 . S
C1158 C1159 1.397 . S
C1158 C1163 1.363 . S
C1159 H1130 0.950 . S
C1159 C1158 1.397 . S
C1159 C1160 1.334 . S
C1160 H1131 0.950 . S
C1160 C1159 1.334 . S
C1160 C1161 1.287 . S
C1161 C1160 1.287 . S
C1161 C1162 1.524 . S
C1161 H1164 0.999 . S
C1162 H1132 0.950 . S
C1162 C1161 1.524 . S
C1162 C1163 1.415 . S
C1163 H1133 0.950 . S
C1163 C1158 1.363 . S
C1163 C1162 1.415 . S
H1164 C1161 0.999 . S
H1165 C1146 0.913 . S
H1166 C1184 0.951 . S
H1167 C1186 0.951 . S
H1168 C1188 0.950 . S
H1169 C1189 0.950 . S
H1170 C1191 0.950 . S
H1171 C1194 0.950 . S
H1172 C1195 0.950 . S
H1173 C1197 0.950 . S
H1174 C1198 0.950 . S
H1175 C1199 0.951 . S
H1176 C1201 0.951 . S
H1177 C1203 0.950 . S
H1178 C1204 0.950 . S
H1179 C1206 0.950 . S
H1180 C1209 0.950 . S
H1181 C1210 0.950 1_655 S
H1182 C1212 0.950 . S
H1183 C1213 0.950 . S
C1184 H1166 0.951 . S
C1184 C1185 1.366 . S
C1184 C1186 1.388 . S
C1185 C1184 1.366 . S
C1185 C1189 1.385 . S
C1186 H1167 0.951 . S
C1186 C1184 1.388 . S
C1186 C1187 1.366 . S
C1187 C1186 1.366 . S
C1187 C1188 1.414 . S
C1187 C1190 1.499 . S
C1188 H1168 0.950 . S
C1188 C1187 1.414 . S
C1188 C1189 1.374 . S
C1189 H1169 0.950 . S
C1189 C1185 1.385 . S
C1189 C1188 1.374 . S
C1190 C1187 1.499 . S
C1190 C1191 1.373 . S
C1190 C1192 1.389 . S
C1191 H1170 0.950 . S
C1191 C1190 1.373 . S
C1191 C1207 1.377 . S
C1192 C1190 1.389 . S
C1192 C1193 1.524 . S
C1192 C1206 1.377 . S
C1193 C1192 1.524 . S
C1193 C1194 1.397 . S
C1193 C1198 1.363 . S
C1194 H1171 0.950 . S
C1194 C1193 1.397 . S
C1194 C1195 1.334 . S
C1195 H1172 0.950 . S
C1195 C1194 1.334 . S
C1195 C1196 1.287 . S
C1196 C1195 1.287 . S
C1196 C1197 1.524 . S
C1196 H1215 0.913 . S
C1197 H1173 0.950 . S
C1197 C1196 1.524 . S
C1197 C1198 1.415 . S
C1198 H1174 0.950 . S
C1198 C1193 1.363 . S
C1198 C1197 1.415 . S
C1199 H1175 0.951 . S
C1199 C1200 1.366 . S
C1199 C1201 1.388 . S
C1200 C1199 1.366 . S
C1200 C1204 1.385 . S
C1201 H1176 0.951 . S
C1201 C1199 1.388 . S
C1201 C1202 1.366 . S
C1202 C1201 1.366 . S
C1202 C1203 1.414 . S
C1202 C1205 1.499 . S
C1203 H1177 0.950 . S
C1203 C1202 1.414 . S
C1203 C1204 1.374 . S
C1204 H1178 0.950 . S
C1204 C1200 1.385 . S
C1204 C1203 1.374 . S
C1205 C1202 1.499 . S
C1205 C1206 1.373 . S
C1205 C1207 1.389 . S
C1206 H1179 0.950 . S
C1206 C1192 1.377 . S
C1206 C1205 1.373 . S
C1207 C1191 1.377 . S
C1207 C1205 1.389 . S
C1207 C1208 1.524 . S
C1208 C1207 1.524 . S
C1208 C1209 1.397 . S
C1208 C1213 1.363 . S
C1209 H1180 0.950 . S
C1209 C1208 1.397 . S
C1209 C1210 1.334 . S
C1210 H1181 0.950 1_455 S
C1210 C1209 1.334 . S
C1210 C1211 1.287 . S
C1211 C1210 1.287 . S
C1211 C1212 1.524 . S
C1211 H1214 0.999 1_455 S
C1212 H1182 0.950 . S
C1212 C1211 1.524 . S
C1212 C1213 1.415 . S
C1213 H1183 0.950 . S
C1213 C1208 1.363 . S
C1213 C1212 1.415 . S
H1214 C1211 0.999 1_655 S
H1215 C1196 0.913 . S
H1216 C1234 0.951 . S
H1217 C1236 0.951 . S
H1218 C1238 0.950 . S
H1219 C1239 0.950 . S
H1220 C1241 0.950 . S
H1221 C1244 0.950 . S
H1222 C1245 0.950 . S
H1223 C1247 0.950 . S
H1224 C1248 0.950 . S
H1225 C1249 0.951 . S
H1226 C1251 0.951 . S
H1227 C1253 0.950 . S
H1228 C1254 0.950 . S
H1229 C1256 0.950 . S
H1230 C1259 0.950 . S
H1231 C1260 0.950 . S
H1232 C1262 0.950 . S
H1233 C1263 0.950 . S
C1234 H1216 0.951 . S
C1234 C1235 1.366 . S
C1234 C1236 1.388 . S
C1235 C1234 1.366 . S
C1235 C1239 1.385 . S
C1236 H1217 0.951 . S
C1236 C1234 1.388 . S
C1236 C1237 1.366 . S
C1237 C1236 1.366 . S
C1237 C1238 1.414 . S
C1237 C1240 1.499 . S
C1238 H1218 0.950 . S
C1238 C1237 1.414 . S
C1238 C1239 1.374 . S
C1239 H1219 0.950 . S
C1239 C1235 1.385 . S
C1239 C1238 1.374 . S
C1240 C1237 1.499 . S
C1240 C1241 1.373 . S
C1240 C1242 1.389 . S
C1241 H1220 0.950 . S
C1241 C1240 1.373 . S
C1241 C1257 1.377 . S
C1242 C1240 1.389 . S
C1242 C1243 1.524 . S
C1242 C1256 1.377 . S
C1243 C1242 1.524 . S
C1243 C1244 1.397 . S
C1243 C1248 1.363 . S
C1244 H1221 0.950 . S
C1244 C1243 1.397 . S
C1244 C1245 1.334 . S
C1245 H1222 0.950 . S
C1245 C1244 1.334 . S
C1245 C1246 1.287 . S
C1246 C1245 1.287 . S
C1246 C1247 1.524 . S
C1246 H1265 0.913 . S
C1247 H1223 0.950 . S
C1247 C1246 1.524 . S
C1247 C1248 1.415 . S
C1248 H1224 0.950 . S
C1248 C1243 1.363 . S
C1248 C1247 1.415 . S
C1249 H1225 0.951 . S
C1249 C1250 1.366 . S
C1249 C1251 1.388 . S
C1250 C1249 1.366 . S
C1250 C1254 1.385 . S
C1251 H1226 0.951 . S
C1251 C1249 1.388 . S
C1251 C1252 1.366 . S
C1252 C1251 1.366 . S
C1252 C1253 1.414 . S
C1252 C1255 1.499 . S
C1253 H1227 0.950 . S
C1253 C1252 1.414 . S
C1253 C1254 1.374 . S
C1254 H1228 0.950 . S
C1254 C1250 1.385 . S
C1254 C1253 1.374 . S
C1255 C1252 1.499 . S
C1255 C1256 1.373 . S
C1255 C1257 1.389 . S
C1256 H1229 0.950 . S
C1256 C1242 1.377 . S
C1256 C1255 1.373 . S
C1257 C1241 1.377 . S
C1257 C1255 1.389 . S
C1257 C1258 1.524 . S
C1258 C1257 1.524 . S
C1258 C1259 1.397 . S
C1258 C1263 1.363 . S
C1259 H1230 0.950 . S
C1259 C1258 1.397 . S
C1259 C1260 1.334 . S
C1260 H1231 0.950 . S
C1260 C1259 1.334 . S
C1260 C1261 1.287 . S
C1261 C1260 1.287 . S
C1261 C1262 1.524 . S
C1261 H1264 0.999 . S
C1262 H1232 0.950 . S
C1262 C1261 1.524 . S
C1262 C1263 1.415 . S
C1263 H1233 0.950 . S
C1263 C1258 1.363 . S
C1263 C1262 1.415 . S
H1264 C1261 0.999 . S
H1265 C1246 0.913 . S
H1266 C1284 0.951 . S
H1267 C1286 0.951 . S
H1268 C1288 0.950 . S
H1269 C1289 0.950 . S
H1270 C1291 0.950 . S
H1271 C1294 0.950 . S
H1272 C1295 0.950 . S
H1273 C1297 0.950 . S
H1274 C1298 0.950 . S
H1275 C1299 0.951 . S
H1276 C1301 0.951 . S
H1277 C1303 0.950 . S
H1278 C1304 0.950 . S
H1279 C1306 0.950 . S
H1280 C1309 0.950 . S
H1281 C1310 0.950 . S
H1282 C1312 0.950 . S
H1283 C1313 0.950 . S
C1284 H1266 0.951 . S
C1284 C1285 1.366 . S
C1284 C1286 1.388 . S
C1285 C1284 1.366 . S
C1285 C1289 1.385 . S
C1286 H1267 0.951 . S
C1286 C1284 1.388 . S
C1286 C1287 1.366 . S
C1287 C1286 1.366 . S
C1287 C1288 1.414 . S
C1287 C1290 1.499 . S
C1288 H1268 0.950 . S
C1288 C1287 1.414 . S
C1288 C1289 1.374 . S
C1289 H1269 0.950 . S
C1289 C1285 1.385 . S
C1289 C1288 1.374 . S
C1290 C1287 1.499 . S
C1290 C1291 1.373 . S
C1290 C1292 1.389 . S
C1291 H1270 0.950 . S
C1291 C1290 1.373 . S
C1291 C1307 1.377 . S
C1292 C1290 1.389 . S
C1292 C1293 1.524 . S
C1292 C1306 1.377 . S
C1293 C1292 1.524 . S
C1293 C1294 1.397 . S
C1293 C1298 1.363 . S
C1294 H1271 0.950 . S
C1294 C1293 1.397 . S
C1294 C1295 1.334 . S
C1295 H1272 0.950 . S
C1295 C1294 1.334 . S
C1295 C1296 1.287 . S
C1296 C1295 1.287 . S
C1296 C1297 1.524 . S
C1296 H1315 0.913 . S
C1297 H1273 0.950 . S
C1297 C1296 1.524 . S
C1297 C1298 1.415 . S
C1298 H1274 0.950 . S
C1298 C1293 1.363 . S
C1298 C1297 1.415 . S
C1299 H1275 0.951 . S
C1299 C1300 1.366 . S
C1299 C1301 1.388 . S
C1300 C1299 1.366 . S
C1300 C1304 1.385 . S
C1301 H1276 0.951 . S
C1301 C1299 1.388 . S
C1301 C1302 1.366 . S
C1302 C1301 1.366 . S
C1302 C1303 1.414 . S
C1302 C1305 1.499 . S
C1303 H1277 0.950 . S
C1303 C1302 1.414 . S
C1303 C1304 1.374 . S
C1304 H1278 0.950 . S
C1304 C1300 1.385 . S
C1304 C1303 1.374 . S
C1305 C1302 1.499 . S
C1305 C1306 1.373 . S
C1305 C1307 1.389 . S
C1306 H1279 0.950 . S
C1306 C1292 1.377 . S
C1306 C1305 1.373 . S
C1307 C1291 1.377 . S
C1307 C1305 1.389 . S
C1307 C1308 1.524 . S
C1308 C1307 1.524 . S
C1308 C1309 1.397 . S
C1308 C1313 1.363 . S
C1309 H1280 0.950 . S
C1309 C1308 1.397 . S
C1309 C1310 1.334 . S
C1310 H1281 0.950 . S
C1310 C1309 1.334 . S
C1310 C1311 1.287 . S
C1311 C1310 1.287 . S
C1311 C1312 1.524 . S
C1311 H1314 0.999 . S
C1312 H1282 0.950 . S
C1312 C1311 1.524 . S
C1312 C1313 1.415 . S
C1313 H1283 0.950 . S
C1313 C1308 1.363 . S
C1313 C1312 1.415 . S
H1314 C1311 0.999 . S
H1315 C1296 0.913 . S
H1316 C1334 0.951 . S
H1317 C1336 0.951 . S
H1318 C1338 0.950 . S
H1319 C1339 0.950 . S
H1320 C1341 0.950 . S
H1321 C1344 0.950 . S
H1322 C1345 0.950 . S
H1323 C1347 0.950 . S
H1324 C1348 0.950 . S
H1325 C1349 0.951 . S
H1326 C1351 0.951 . S
H1327 C1353 0.950 . S
H1328 C1354 0.950 . S
H1329 C1356 0.950 . S
H1330 C1359 0.950 . S
H1331 C1360 0.950 . S
H1332 C1362 0.950 . S
H1333 C1363 0.950 . S
C1334 H1316 0.951 . S
C1334 C1335 1.366 . S
C1334 C1336 1.388 . S
C1335 C1334 1.366 . S
C1335 C1339 1.385 . S
C1336 H1317 0.951 . S
C1336 C1334 1.388 . S
C1336 C1337 1.366 . S
C1337 C1336 1.366 . S
C1337 C1338 1.414 . S
C1337 C1340 1.499 . S
C1338 H1318 0.950 . S
C1338 C1337 1.414 . S
C1338 C1339 1.374 . S
C1339 H1319 0.950 . S
C1339 C1335 1.385 . S
C1339 C1338 1.374 . S
C1340 C1337 1.499 . S
C1340 C1341 1.373 . S
C1340 C1342 1.389 . S
C1341 H1320 0.950 . S
C1341 C1340 1.373 . S
C1341 C1357 1.377 . S
C1342 C1340 1.389 . S
C1342 C1343 1.524 . S
C1342 C1356 1.377 . S
C1343 C1342 1.524 . S
C1343 C1344 1.397 . S
C1343 C1348 1.363 . S
C1344 H1321 0.950 . S
C1344 C1343 1.397 . S
C1344 C1345 1.334 . S
C1345 H1322 0.950 . S
C1345 C1344 1.334 . S
C1345 C1346 1.287 . S
C1346 C1345 1.287 . S
C1346 C1347 1.524 . S
C1346 H1365 0.913 . S
C1347 H1323 0.950 . S
C1347 C1346 1.524 . S
C1347 C1348 1.415 . S
C1348 H1324 0.950 . S
C1348 C1343 1.363 . S
C1348 C1347 1.415 . S
C1349 H1325 0.951 . S
C1349 C1350 1.366 . S
C1349 C1351 1.388 . S
C1350 C1349 1.366 . S
C1350 C1354 1.385 . S
C1351 H1326 0.951 . S
C1351 C1349 1.388 . S
C1351 C1352 1.366 . S
C1352 C1351 1.366 . S
C1352 C1353 1.414 . S
C1352 C1355 1.499 . S
C1353 H1327 0.950 . S
C1353 C1352 1.414 . S
C1353 C1354 1.374 . S
C1354 H1328 0.950 . S
C1354 C1350 1.385 . S
C1354 C1353 1.374 . S
C1355 C1352 1.499 . S
C1355 C1356 1.373 . S
C1355 C1357 1.389 . S
C1356 H1329 0.950 . S
C1356 C1342 1.377 . S
C1356 C1355 1.373 . S
C1357 C1341 1.377 . S
C1357 C1355 1.389 . S
C1357 C1358 1.524 . S
C1358 C1357 1.524 . S
C1358 C1359 1.397 . S
C1358 C1363 1.363 . S
C1359 H1330 0.950 . S
C1359 C1358 1.397 . S
C1359 C1360 1.334 . S
C1360 H1331 0.950 . S
C1360 C1359 1.334 . S
C1360 C1361 1.287 . S
C1361 C1360 1.287 . S
C1361 C1362 1.524 . S
C1361 H1364 0.999 . S
C1362 H1332 0.950 . S
C1362 C1361 1.524 . S
C1362 C1363 1.415 . S
C1363 H1333 0.950 . S
C1363 C1358 1.363 . S
C1363 C1362 1.415 . S
H1364 C1361 0.999 . S
H1365 C1346 0.913 . S
H1366 C1384 0.951 . S
H1367 C1386 0.951 . S
H1368 C1388 0.950 . S
H1369 C1389 0.950 . S
H1370 C1391 0.950 . S
H1371 C1394 0.950 . S
H1372 C1395 0.950 . S
H1373 C1397 0.950 . S
H1374 C1398 0.950 . S
H1375 C1399 0.951 . S
H1376 C1401 0.951 . S
H1377 C1403 0.950 . S
H1378 C1404 0.950 . S
H1379 C1406 0.950 . S
H1380 C1409 0.950 . S
H1381 C1410 0.950 . S
H1382 C1412 0.950 . S
H1383 C1413 0.950 . S
C1384 H1366 0.951 . S
C1384 C1385 1.366 . S
C1384 C1386 1.388 . S
C1385 C1384 1.366 . S
C1385 C1389 1.385 . S
C1386 H1367 0.951 . S
C1386 C1384 1.388 . S
C1386 C1387 1.366 . S
C1387 C1386 1.366 . S
C1387 C1388 1.414 . S
C1387 C1390 1.499 . S
C1388 H1368 0.950 . S
C1388 C1387 1.414 . S
C1388 C1389 1.374 . S
C1389 H1369 0.950 . S
C1389 C1385 1.385 . S
C1389 C1388 1.374 . S
C1390 C1387 1.499 . S
C1390 C1391 1.373 . S
C1390 C1392 1.389 . S
C1391 H1370 0.950 . S
C1391 C1390 1.373 . S
C1391 C1407 1.377 . S
C1392 C1390 1.389 . S
C1392 C1393 1.524 . S
C1392 C1406 1.377 . S
C1393 C1392 1.524 . S
C1393 C1394 1.397 . S
C1393 C1398 1.363 . S
C1394 H1371 0.950 . S
C1394 C1393 1.397 . S
C1394 C1395 1.334 . S
C1395 H1372 0.950 . S
C1395 C1394 1.334 . S
C1395 C1396 1.287 . S
C1396 C1395 1.287 . S
C1396 C1397 1.524 . S
C1396 H1415 0.913 . S
C1397 H1373 0.950 . S
C1397 C1396 1.524 . S
C1397 C1398 1.415 . S
C1398 H1374 0.950 . S
C1398 C1393 1.363 . S
C1398 C1397 1.415 . S
C1399 H1375 0.951 . S
C1399 C1400 1.366 . S
C1399 C1401 1.388 . S
C1400 C1399 1.366 . S
C1400 C1404 1.385 . S
C1401 H1376 0.951 . S
C1401 C1399 1.388 . S
C1401 C1402 1.366 . S
C1402 C1401 1.366 . S
C1402 C1403 1.414 . S
C1402 C1405 1.499 . S
C1403 H1377 0.950 . S
C1403 C1402 1.414 . S
C1403 C1404 1.374 . S
C1404 H1378 0.950 . S
C1404 C1400 1.385 . S
C1404 C1403 1.374 . S
C1405 C1402 1.499 . S
C1405 C1406 1.373 . S
C1405 C1407 1.389 . S
C1406 H1379 0.950 . S
C1406 C1392 1.377 . S
C1406 C1405 1.373 . S
C1407 C1391 1.377 . S
C1407 C1405 1.389 . S
C1407 C1408 1.524 . S
C1408 C1407 1.524 . S
C1408 C1409 1.397 . S
C1408 C1413 1.363 . S
C1409 H1380 0.950 . S
C1409 C1408 1.397 . S
C1409 C1410 1.334 . S
C1410 H1381 0.950 . S
C1410 C1409 1.334 . S
C1410 C1411 1.287 . S
C1411 C1410 1.287 . S
C1411 C1412 1.524 . S
C1411 H1414 0.999 . S
C1412 H1382 0.950 . S
C1412 C1411 1.524 . S
C1412 C1413 1.415 . S
C1413 H1383 0.950 . S
C1413 C1408 1.363 . S
C1413 C1412 1.415 . S
H1414 C1411 0.999 . S
H1415 C1396 0.913 . S
H1416 C1434 0.951 . S
H1417 C1436 0.951 . S
H1418 C1438 0.950 . S
H1419 C1439 0.950 . S
H1420 C1441 0.950 . S
H1421 C1444 0.950 . S
H1422 C1445 0.950 . S
H1423 C1447 0.950 . S
H1424 C1448 0.950 . S
H1425 C1449 0.951 . S
H1426 C1451 0.951 . S
H1427 C1453 0.950 . S
H1428 C1454 0.950 . S
H1429 C1456 0.950 . S
H1430 C1459 0.950 . S
H1431 C1460 0.950 . S
H1432 C1462 0.950 . S
H1433 C1463 0.950 . S
C1434 H1416 0.951 . S
C1434 C1435 1.366 . S
C1434 C1436 1.388 . S
C1435 C1434 1.366 . S
C1435 C1439 1.385 . S
C1436 H1417 0.951 . S
C1436 C1434 1.388 . S
C1436 C1437 1.366 . S
C1437 C1436 1.366 . S
C1437 C1438 1.414 . S
C1437 C1440 1.499 . S
C1438 H1418 0.950 . S
C1438 C1437 1.414 . S
C1438 C1439 1.374 . S
C1439 H1419 0.950 . S
C1439 C1435 1.385 . S
C1439 C1438 1.374 . S
C1440 C1437 1.499 . S
C1440 C1441 1.373 . S
C1440 C1442 1.389 . S
C1441 H1420 0.950 . S
C1441 C1440 1.373 . S
C1441 C1457 1.377 . S
C1442 C1440 1.389 . S
C1442 C1443 1.524 . S
C1442 C1456 1.377 . S
C1443 C1442 1.524 . S
C1443 C1444 1.397 . S
C1443 C1448 1.363 . S
C1444 H1421 0.950 . S
C1444 C1443 1.397 . S
C1444 C1445 1.334 . S
C1445 H1422 0.950 . S
C1445 C1444 1.334 . S
C1445 C1446 1.287 . S
C1446 C1445 1.287 . S
C1446 C1447 1.524 . S
C1446 H1465 0.913 . S
C1447 H1423 0.950 . S
C1447 C1446 1.524 . S
C1447 C1448 1.415 . S
C1448 H1424 0.950 . S
C1448 C1443 1.363 . S
C1448 C1447 1.415 . S
C1449 H1425 0.951 . S
C1449 C1450 1.366 . S
C1449 C1451 1.388 . S
C1450 C1449 1.366 . S
C1450 C1454 1.385 . S
C1451 H1426 0.951 . S
C1451 C1449 1.388 . S
C1451 C1452 1.366 . S
C1452 C1451 1.366 . S
C1452 C1453 1.414 . S
C1452 C1455 1.499 . S
C1453 H1427 0.950 . S
C1453 C1452 1.414 . S
C1453 C1454 1.374 . S
C1454 H1428 0.950 . S
C1454 C1450 1.385 . S
C1454 C1453 1.374 . S
C1455 C1452 1.499 . S
C1455 C1456 1.373 . S
C1455 C1457 1.389 . S
C1456 H1429 0.950 . S
C1456 C1442 1.377 . S
C1456 C1455 1.373 . S
C1457 C1441 1.377 . S
C1457 C1455 1.389 . S
C1457 C1458 1.524 . S
C1458 C1457 1.524 . S
C1458 C1459 1.397 . S
C1458 C1463 1.363 . S
C1459 H1430 0.950 . S
C1459 C1458 1.397 . S
C1459 C1460 1.334 . S
C1460 H1431 0.950 . S
C1460 C1459 1.334 . S
C1460 C1461 1.287 . S
C1461 C1460 1.287 . S
C1461 C1462 1.524 . S
C1461 H1464 0.999 . S
C1462 H1432 0.950 . S
C1462 C1461 1.524 . S
C1462 C1463 1.415 . S
C1463 H1433 0.950 . S
C1463 C1458 1.363 . S
C1463 C1462 1.415 . S
H1464 C1461 0.999 . S
H1465 C1446 0.913 . S
H1466 C1484 0.951 . S
H1467 C1486 0.951 . S
H1468 C1488 0.950 . S
H1469 C1489 0.950 . S
H1470 C1491 0.950 . S
H1471 C1494 0.950 . S
H1472 C1495 0.950 . S
H1473 C1497 0.950 . S
H1474 C1498 0.950 . S
H1475 C1499 0.951 . S
H1476 C1501 0.951 . S
H1477 C1503 0.950 . S
H1478 C1504 0.950 . S
H1479 C1506 0.950 . S
H1480 C1509 0.950 . S
H1481 C1510 0.950 . S
H1482 C1512 0.950 . S
H1483 C1513 0.950 . S
C1484 H1466 0.951 . S
C1484 C1485 1.366 . S
C1484 C1486 1.388 . S
C1485 C1484 1.366 . S
C1485 C1489 1.385 . S
C1486 H1467 0.951 . S
C1486 C1484 1.388 . S
C1486 C1487 1.366 . S
C1487 C1486 1.366 . S
C1487 C1488 1.414 . S
C1487 C1490 1.499 . S
C1488 H1468 0.950 . S
C1488 C1487 1.414 . S
C1488 C1489 1.374 . S
C1489 H1469 0.950 . S
C1489 C1485 1.385 . S
C1489 C1488 1.374 . S
C1490 C1487 1.499 . S
C1490 C1491 1.373 . S
C1490 C1492 1.389 . S
C1491 H1470 0.950 . S
C1491 C1490 1.373 . S
C1491 C1507 1.377 . S
C1492 C1490 1.389 . S
C1492 C1493 1.524 . S
C1492 C1506 1.377 . S
C1493 C1492 1.524 . S
C1493 C1494 1.397 . S
C1493 C1498 1.363 . S
C1494 H1471 0.950 . S
C1494 C1493 1.397 . S
C1494 C1495 1.334 . S
C1495 H1472 0.950 . S
C1495 C1494 1.334 . S
C1495 C1496 1.287 . S
C1496 C1495 1.287 . S
C1496 C1497 1.524 . S
C1496 H1515 0.913 . S
C1497 H1473 0.950 . S
C1497 C1496 1.524 . S
C1497 C1498 1.415 . S
C1498 H1474 0.950 . S
C1498 C1493 1.363 . S
C1498 C1497 1.415 . S
C1499 H1475 0.951 . S
C1499 C1500 1.366 . S
C1499 C1501 1.388 . S
C1500 C1499 1.366 . S
C1500 C1504 1.385 . S
C1501 H1476 0.951 . S
C1501 C1499 1.388 . S
C1501 C1502 1.366 . S
C1502 C1501 1.366 . S
C1502 C1503 1.414 . S
C1502 C1505 1.499 . S
C1503 H1477 0.950 . S
C1503 C1502 1.414 . S
C1503 C1504 1.374 . S
C1504 H1478 0.950 . S
C1504 C1500 1.385 . S
C1504 C1503 1.374 . S
C1505 C1502 1.499 . S
C1505 C1506 1.373 . S
C1505 C1507 1.389 . S
C1506 H1479 0.950 . S
C1506 C1492 1.377 . S
C1506 C1505 1.373 . S
C1507 C1491 1.377 . S
C1507 C1505 1.389 . S
C1507 C1508 1.524 . S
C1508 C1507 1.524 . S
C1508 C1509 1.397 . S
C1508 C1513 1.363 . S
C1509 H1480 0.950 . S
C1509 C1508 1.397 . S
C1509 C1510 1.334 . S
C1510 H1481 0.950 . S
C1510 C1509 1.334 . S
C1510 C1511 1.287 . S
C1511 C1510 1.287 . S
C1511 C1512 1.524 . S
C1511 H1514 0.999 . S
C1512 H1482 0.950 . S
C1512 C1511 1.524 . S
C1512 C1513 1.415 . S
C1513 H1483 0.950 . S
C1513 C1508 1.363 . S
C1513 C1512 1.415 . S
H1514 C1511 0.999 . S
H1515 C1496 0.913 . S
H1516 C1534 0.951 . S
H1517 C1536 0.951 . S
H1518 C1538 0.950 . S
H1519 C1539 0.950 . S
H1520 C1541 0.950 . S
H1521 C1544 0.950 . S
H1522 C1545 0.950 . S
H1523 C1547 0.950 . S
H1524 C1548 0.950 . S
H1525 C1549 0.951 . S
H1526 C1551 0.951 . S
H1527 C1553 0.950 . S
H1528 C1554 0.950 . S
H1529 C1556 0.950 . S
H1530 C1559 0.950 . S
H1531 C1560 0.950 . S
H1532 C1562 0.950 . S
H1533 C1563 0.950 . S
C1534 H1516 0.951 . S
C1534 C1535 1.366 . S
C1534 C1536 1.388 . S
C1535 C1534 1.366 . S
C1535 C1539 1.385 . S
C1536 H1517 0.951 . S
C1536 C1534 1.388 . S
C1536 C1537 1.366 . S
C1537 C1536 1.366 . S
C1537 C1538 1.414 . S
C1537 C1540 1.499 . S
C1538 H1518 0.950 . S
C1538 C1537 1.414 . S
C1538 C1539 1.374 . S
C1539 H1519 0.950 . S
C1539 C1535 1.385 . S
C1539 C1538 1.374 . S
C1540 C1537 1.499 . S
C1540 C1541 1.373 . S
C1540 C1542 1.389 . S
C1541 H1520 0.950 . S
C1541 C1540 1.373 . S
C1541 C1557 1.377 . S
C1542 C1540 1.389 . S
C1542 C1543 1.524 . S
C1542 C1556 1.377 . S
C1543 C1542 1.524 . S
C1543 C1544 1.397 . S
C1543 C1548 1.363 . S
C1544 H1521 0.950 . S
C1544 C1543 1.397 . S
C1544 C1545 1.334 . S
C1545 H1522 0.950 . S
C1545 C1544 1.334 . S
C1545 C1546 1.287 . S
C1546 C1545 1.287 . S
C1546 C1547 1.524 . S
C1546 H1565 0.913 . S
C1547 H1523 0.950 . S
C1547 C1546 1.524 . S
C1547 C1548 1.415 . S
C1548 H1524 0.950 . S
C1548 C1543 1.363 . S
C1548 C1547 1.415 . S
C1549 H1525 0.951 . S
C1549 C1550 1.366 . S
C1549 C1551 1.388 . S
C1550 C1549 1.366 . S
C1550 C1554 1.385 . S
C1551 H1526 0.951 . S
C1551 C1549 1.388 . S
C1551 C1552 1.366 . S
C1552 C1551 1.366 . S
C1552 C1553 1.414 . S
C1552 C1555 1.499 . S
C1553 H1527 0.950 . S
C1553 C1552 1.414 . S
C1553 C1554 1.374 . S
C1554 H1528 0.950 . S
C1554 C1550 1.385 . S
C1554 C1553 1.374 . S
C1555 C1552 1.499 . S
C1555 C1556 1.373 . S
C1555 C1557 1.389 . S
C1556 H1529 0.950 . S
C1556 C1542 1.377 . S
C1556 C1555 1.373 . S
C1557 C1541 1.377 . S
C1557 C1555 1.389 . S
C1557 C1558 1.524 . S
C1558 C1557 1.524 . S
C1558 C1559 1.397 . S
C1558 C1563 1.363 . S
C1559 H1530 0.950 . S
C1559 C1558 1.397 . S
C1559 C1560 1.334 . S
C1560 H1531 0.950 . S
C1560 C1559 1.334 . S
C1560 C1561 1.287 . S
C1561 C1560 1.287 . S
C1561 C1562 1.524 . S
C1561 H1564 0.999 . S
C1562 H1532 0.950 . S
C1562 C1561 1.524 . S
C1562 C1563 1.415 . S
C1563 H1533 0.950 . S
C1563 C1558 1.363 . S
C1563 C1562 1.415 . S
H1564 C1561 0.999 . S
H1565 C1546 0.913 . S
H1566 C1584 0.951 . S
H1567 C1586 0.951 . S
H1568 C1588 0.950 . S
H1569 C1589 0.950 . S
H1570 C1591 0.950 . S
H1571 C1594 0.950 . S
H1572 C1595 0.950 . S
H1573 C1597 0.950 . S
H1574 C1598 0.950 . S
H1575 C1599 0.951 . S
H1576 C1601 0.951 . S
H1577 C1603 0.950 . S
H1578 C1604 0.950 . S
H1579 C1606 0.950 . S
H1580 C1609 0.950 . S
H1581 C1610 0.950 . S
H1582 C1612 0.950 . S
H1583 C1613 0.950 . S
C1584 H1566 0.951 . S
C1584 C1585 1.366 . S
C1584 C1586 1.388 . S
C1585 C1584 1.366 . S
C1585 C1589 1.385 . S
C1586 H1567 0.951 . S
C1586 C1584 1.388 . S
C1586 C1587 1.366 . S
C1587 C1586 1.366 . S
C1587 C1588 1.414 . S
C1587 C1590 1.499 . S
C1588 H1568 0.950 . S
C1588 C1587 1.414 . S
C1588 C1589 1.374 . S
C1589 H1569 0.950 . S
C1589 C1585 1.385 . S
C1589 C1588 1.374 . S
C1590 C1587 1.499 . S
C1590 C1591 1.373 . S
C1590 C1592 1.389 . S
C1591 H1570 0.950 . S
C1591 C1590 1.373 . S
C1591 C1607 1.377 . S
C1592 C1590 1.389 . S
C1592 C1593 1.524 . S
C1592 C1606 1.377 . S
C1593 C1592 1.524 . S
C1593 C1594 1.397 . S
C1593 C1598 1.363 . S
C1594 H1571 0.950 . S
C1594 C1593 1.397 . S
C1594 C1595 1.334 . S
C1595 H1572 0.950 . S
C1595 C1594 1.334 . S
C1595 C1596 1.287 . S
C1596 C1595 1.287 . S
C1596 C1597 1.524 . S
C1596 H1615 0.913 . S
C1597 H1573 0.950 . S
C1597 C1596 1.524 . S
C1597 C1598 1.415 . S
C1598 H1574 0.950 . S
C1598 C1593 1.363 . S
C1598 C1597 1.415 . S
C1599 H1575 0.951 . S
C1599 C1600 1.366 . S
C1599 C1601 1.388 . S
C1600 C1599 1.366 . S
C1600 C1604 1.385 . S
C1601 H1576 0.951 . S
C1601 C1599 1.388 . S
C1601 C1602 1.366 . S
C1602 C1601 1.366 . S
C1602 C1603 1.414 . S
C1602 C1605 1.499 . S
C1603 H1577 0.950 . S
C1603 C1602 1.414 . S
C1603 C1604 1.374 . S
C1604 H1578 0.950 . S
C1604 C1600 1.385 . S
C1604 C1603 1.374 . S
C1605 C1602 1.499 . S
C1605 C1606 1.373 . S
C1605 C1607 1.389 . S
C1606 H1579 0.950 . S
C1606 C1592 1.377 . S
C1606 C1605 1.373 . S
C1607 C1591 1.377 . S
C1607 C1605 1.389 . S
C1607 C1608 1.524 . S
C1608 C1607 1.524 . S
C1608 C1609 1.397 . S
C1608 C1613 1.363 . S
C1609 H1580 0.950 . S
C1609 C1608 1.397 . S
C1609 C1610 1.334 . S
C1610 H1581 0.950 . S
C1610 C1609 1.334 . S
C1610 C1611 1.287 . S
C1611 C1610 1.287 . S
C1611 C1612 1.524 . S
C1611 H1614 0.999 . S
C1612 H1582 0.950 . S
C1612 C1611 1.524 . S
C1612 C1613 1.415 . S
C1613 H1583 0.950 . S
C1613 C1608 1.363 . S
C1613 C1612 1.415 . S
H1614 C1611 0.999 . S
H1615 C1596 0.913 . S
C435 C29 1.181 . S
C450 C262 1.181 . S
C485 C49 0.849 . S
C500 C311 0.856 . S
C550 C346 2.498 . S
C535 C93 2.508 . S
C585 C119 2.253 . S
C600 C385 2.241 . S
C650 C306 2.299 . S
C635 C17 2.296 . S
C700 C265 0.889 . S
C685 C61 0.909 . S
C750 C395 1.849 . S
C735 C81 1.878 . S
C800 C354 1.592 . S
C785 C125 1.585 . S
C835 C23 1.608 . S
C850 C382 1.611 . S
C900 C314 2.287 . S
C885 C87 2.334 . S
C935 C113 2.338 . S
C950 C275 2.365 . S
C985 C55 0.720 . S
C1000 C351 0.716 . S
C1050 C271 1.144 . S
C1035 C157 1.044 . S
C1085 C189 0.909 . S
C1100 C302 0.918 . S
C1135 C221 2.459 . S
C1150 C355 2.452 . S
C1185 C253 2.332 . S
C1200 C394 2.333 . S
C1235 C145 2.204 . S
C1250 C315 2.390 . S
C1300 C274 0.829 . S
C1285 C183 0.837 . S
C1350 C386 1.895 . S
C1335 C209 1.906 . S
C1400 C345 1.539 . S
C1385 C247 1.533 . S
C1435 C151 1.500 . S
C1450 C391 1.625 . S
C1500 C305 2.285 . S
C1485 C215 2.327 . S
C1550 C266 2.316 . S
C1535 C241 2.282 . S
C1585 C177 0.713 . S
C1600 C342 0.712 . S
