# Generated by pormake.
# Topology anh, (6,3)-cn, num edge types: 1
# Building blocks:
#     Node 0, Type 0, BuildingBlock: GEDQOX_clean_sbu_0, # of connection points: 6
#     Node 1, Type 0, BuildingBlock: GEDQOX_clean_sbu_0, # of connection points: 6
#     Node 2, Type 0, BuildingBlock: GEDQOX_clean_sbu_0, # of connection points: 6
#     Node 3, Type 1, BuildingBlock: CUQRIR_clean_linker_1, # of connection points: 3
#     Node 4, Type 1, BuildingBlock: CUQRIR_clean_linker_1, # of connection points: 3
#     Node 5, Type 1, BuildingBlock: CUQRIR_clean_linker_1, # of connection points: 3
#     Node 6, Type 1, BuildingBlock: CUQRIR_clean_linker_1, # of connection points: 3
#     Node 7, Type 1, BuildingBlock: CUQRIR_clean_linker_1, # of connection points: 3
#     Node 8, Type 1, BuildingBlock: CUQRIR_clean_linker_1, # of connection points: 3
#     Edge 9, Type (0, 1), BuildingBlock: UVAHIK_clean_linker_0, # of connection points: 2
#     Edge 10, Type (0, 1), BuildingBlock: UVAHIK_clean_linker_0, # of connection points: 2
#     Edge 11, Type (0, 1), BuildingBlock: UVAHIK_clean_linker_0, # of connection points: 2
#     Edge 12, Type (0, 1), BuildingBlock: UVAHIK_clean_linker_0, # of connection points: 2
#     Edge 13, Type (0, 1), BuildingBlock: UVAHIK_clean_linker_0, # of connection points: 2
#     Edge 14, Type (0, 1), BuildingBlock: UVAHIK_clean_linker_0, # of connection points: 2
#     Edge 15, Type (0, 1), BuildingBlock: UVAHIK_clean_linker_0, # of connection points: 2
#     Edge 16, Type (0, 1), BuildingBlock: UVAHIK_clean_linker_0, # of connection points: 2
#     Edge 17, Type (0, 1), BuildingBlock: UVAHIK_clean_linker_0, # of connection points: 2
#     Edge 18, Type (0, 1), BuildingBlock: UVAHIK_clean_linker_0, # of connection points: 2
#     Edge 19, Type (0, 1), BuildingBlock: UVAHIK_clean_linker_0, # of connection points: 2
#     Edge 20, Type (0, 1), BuildingBlock: UVAHIK_clean_linker_0, # of connection points: 2
#     Edge 21, Type (0, 1), BuildingBlock: UVAHIK_clean_linker_0, # of connection points: 2
#     Edge 22, Type (0, 1), BuildingBlock: UVAHIK_clean_linker_0, # of connection points: 2
#     Edge 23, Type (0, 1), BuildingBlock: UVAHIK_clean_linker_0, # of connection points: 2
#     Edge 24, Type (0, 1), BuildingBlock: UVAHIK_clean_linker_0, # of connection points: 2
#     Edge 25, Type (0, 1), BuildingBlock: UVAHIK_clean_linker_0, # of connection points: 2
#     Edge 26, Type (0, 1), BuildingBlock: UVAHIK_clean_linker_0, # of connection points: 2
# Relax obj value: 0.168
# Max RMSD: 0.208
# Mean RMSD: 0.163
data_MOF--net-anh--node1-GEDQOX_clean_sbu_0--node2-CUQRIR_clean_linker_1--edge1-UVAHIK_clean_linker_0
_symmetry_space_group_name_H-M    P1
_symmetry_Int_Tables_number       1
_symmetry_cell_setting            triclinic
loop_
_symmetry_equiv_pos_as_xyz
'x, y, z'
_cell_length_a     37.064706
_cell_length_b     36.327809
_cell_length_c     61.36751
_cell_angle_alpha  87.722323
_cell_angle_beta   90.323011
_cell_angle_gamma 105.22212
loop_
_atom_site_label
_atom_site_type_symbol
_atom_site_fract_x
_atom_site_fract_y
_atom_site_fract_z
_atom_type_partial_charge
Nd0 Nd 1.05146 0.54108 0.1433 0.0
Nd1 Nd 1.03012 0.45673 0.15511 0.0
C2 C 0.08384 0.61077 0.12765 0.0
C3 C 0.12019 0.6375 0.13208 0.0
C4 C 0.13267 0.67156 0.11957 0.0
C5 C 0.16719 0.69703 0.12406 0.0
C6 C 0.18977 0.68877 0.14113 0.0
C7 C 0.17705 0.65433 0.15349 0.0
C8 C 0.14265 0.62897 0.14899 0.0
C9 C 1.03976 0.52373 0.18703 0.0
C10 C 0.1192 0.49656 0.15172 0.0
C11 C 1.002 0.38765 0.17305 0.0
C12 C 0.96607 0.35942 0.17762 0.0
C13 C 0.9336 0.37046 0.18265 0.0
C14 C 0.90018 0.34279 0.18761 0.0
C15 C 0.89869 0.30363 0.18761 0.0
C16 C 0.93124 0.29292 0.18215 0.0
C17 C 0.96454 0.32053 0.17725 0.0
C18 C 1.04437 0.47439 0.11173 0.0
C19 C 0.96279 0.50048 0.14391 0.0
O20 O 0.08524 0.5799 0.1178 0.0
O21 O 1.05996 0.6037 0.14387 0.0
O22 O 1.02957 0.55122 0.17682 0.0
O23 O 1.05707 0.50761 0.17446 0.0
O24 O 0.10919 0.52665 0.14345 0.0
O25 O 0.09379 0.4664 0.15977 0.0
O26 O 1.00956 0.41887 0.18407 0.0
O27 O 1.01238 0.39374 0.15261 0.0
O28 O 1.05399 0.44665 0.12213 0.0
O29 O 1.02599 0.4902 0.12382 0.0
O30 O 0.97233 0.47175 0.15441 0.0
O31 O 0.9888 0.52925 0.13498 0.0
H32 H 0.11572 0.67848 0.10638 0.0
H33 H 0.1763 0.72303 0.11404 0.0
H34 H 0.19334 0.64723 0.16696 0.0
H35 H 0.13341 0.60277 0.15885 0.0
H36 H 0.93416 0.4004 0.18296 0.0
H37 H 0.87574 0.35207 0.19188 0.0
H38 H 0.93099 0.2631 0.18153 0.0
H39 H 0.98926 0.31146 0.17327 0.0
Nd40 Nd 0.56387 0.99528 0.52018 0.0
Nd41 Nd 0.64684 0.01599 0.5108 0.0
C42 C 0.49485 0.96527 0.53463 0.0
C43 C 0.46642 0.92929 0.53132 0.0
C44 C 0.4305 0.92347 0.54011 0.0
C45 C 0.40284 0.88997 0.53615 0.0
C46 C 0.41071 0.86173 0.52331 0.0
C47 C 0.44707 0.86753 0.51483 0.0
C48 C 0.47465 0.90105 0.51877 0.0
C49 C 0.58217 0.00474 0.47669 0.0
C50 C 0.60723 0.92653 0.51696 0.0
C51 C 0.71493 0.04477 0.49457 0.0
C52 C 0.74217 0.08205 0.48979 0.0
C53 C 0.73662 0.10674 0.4726 0.0
C54 C 0.76381 0.14079 0.46758 0.0
C55 C 0.79715 0.15094 0.47963 0.0
C56 C 0.80227 0.12646 0.49705 0.0
C57 C 0.77521 0.09238 0.50198 0.0
C58 C 0.62839 0.00545 0.55427 0.0
C59 C 0.60399 0.08433 0.51629 0.0
O60 O 0.52457 0.96248 0.54546 0.0
O61 O 0.50288 0.98852 0.5175 0.0
O62 O 0.55527 0.01613 0.4852 0.0
O63 O 0.59728 0.98752 0.49076 0.0
O64 O 0.5783 0.93732 0.52432 0.0
O65 O 0.63644 0.95144 0.50807 0.0
O66 O 0.68484 0.03572 0.48253 0.0
O67 O 0.70837 0.03418 0.5151 0.0
O68 O 0.65583 0.99477 0.54577 0.0
O69 O 0.61331 0.02289 0.54029 0.0
O70 O 0.63163 0.07399 0.50683 0.0
O71 O 0.57655 0.05883 0.52634 0.0
H72 H 0.42374 0.945 0.54986 0.0
H73 H 0.37528 0.88618 0.54314 0.0
H74 H 0.45395 0.84662 0.50465 0.0
H75 H 0.50225 0.90522 0.51174 0.0
H76 H 0.71156 0.09956 0.46278 0.0
H77 H 0.75908 0.15868 0.4539 0.0
H78 H 0.82727 0.13362 0.50692 0.0
H79 H 0.78031 0.07386 0.51526 0.0
Nd80 Nd 0.55003 0.55877 0.83013 0.0
Nd81 Nd 0.63062 0.57822 0.84083 0.0
C82 C 0.48531 0.56272 0.81389 0.0
C83 C 0.46522 0.5923 0.81614 0.0
C84 C 0.4487 0.60556 0.79792 0.0
C85 C 0.43094 0.63483 0.79988 0.0
C86 C 0.42917 0.65111 0.82018 0.0
C87 C 0.44687 0.6384 0.83822 0.0
C88 C 0.46493 0.60956 0.83618 0.0
C89 C 0.56402 0.55155 0.87382 0.0
C90 C 0.59534 0.64875 0.83864 0.0
C91 C 0.69713 0.57549 0.85485 0.0
C92 C 0.71879 0.54919 0.84853 0.0
C93 C 0.7529 0.54969 0.85849 0.0
C94 C 0.77375 0.52528 0.85164 0.0
C95 C 0.76063 0.49988 0.8348 0.0
C96 C 0.72593 0.49899 0.82525 0.0
C97 C 0.70531 0.52356 0.83199 0.0
C98 C 0.6164 0.58358 0.79701 0.0
C99 C 0.58468 0.488 0.83239 0.0
O100 O 0.51652 0.57365 0.80276 0.0
O101 O 0.48817 0.54229 0.83157 0.0
O102 O 0.53745 0.52795 0.86368 0.0
O103 O 0.58104 0.57889 0.86127 0.0
O104 O 0.56765 0.62464 0.82889 0.0
O105 O 0.62241 0.63679 0.84817 0.0
O106 O 0.66639 0.55966 0.86575 0.0
O107 O 0.69228 0.59932 0.83929 0.0
O108 O 0.64297 0.60762 0.80679 0.0
O109 O 0.59964 0.55703 0.81002 0.0
O110 O 0.61254 0.51187 0.84225 0.0
O111 O 0.55778 0.50029 0.82295 0.0
H112 H 0.44954 0.59329 0.78219 0.0
H113 H 0.41817 0.64431 0.78556 0.0
H114 H 0.44568 0.64967 0.85419 0.0
H115 H 0.47839 0.60054 0.85038 0.0
H116 H 0.76369 0.56938 0.87123 0.0
H117 H 0.80073 0.52722 0.85907 0.0
H118 H 0.7149 0.47962 0.8124 0.0
H119 H 0.67903 0.52297 0.82403 0.0
C120 C 0.54517 0.98079 0.21375 0.0
N121 N 0.5685 0.9973 0.22979 0.0
N122 N 0.52001 0.94892 0.22162 0.0
C123 C 0.54856 0.99399 0.19014 0.0
C124 C 0.52886 0.94656 0.24296 0.0
N125 N 0.55847 0.97571 0.24787 0.0
C126 C 0.50703 0.91728 0.25931 0.0
H127 H 0.53285 0.01589 0.18744 0.0
H128 H 0.53665 0.96995 0.17941 0.0
H129 H 0.57823 0.00698 0.18558 0.0
H130 H 0.51995 0.89298 0.26066 0.0
H131 H 0.47754 0.90634 0.25415 0.0
H132 H 0.5076 0.92945 0.27565 0.0
C133 C 0.60035 0.50343 0.53762 0.0
N134 N 0.59826 0.52994 0.5522 0.0
N135 N 0.59621 0.46878 0.54784 0.0
C136 C 0.60401 0.5107 0.51336 0.0
C137 C 0.59173 0.47517 0.56911 0.0
N138 N 0.59257 0.51219 0.57174 0.0
C139 C 0.58981 0.44593 0.58747 0.0
H140 H 0.59141 0.48426 0.50462 0.0
H141 H 0.63412 0.52047 0.509 0.0
H142 H 0.59044 0.53331 0.50796 0.0
H143 H 0.60314 0.45957 0.6024 0.0
H144 H 0.60381 0.42384 0.58291 0.0
H145 H 0.56005 0.43172 0.59123 0.0
C146 C 0.10385 0.57265 0.84959 0.0
N147 N 0.11655 0.5823 0.86988 0.0
N148 N 0.07912 0.53778 0.85017 0.0
C149 C 0.11754 0.59586 0.82899 0.0
C150 C 0.07715 0.5266 0.87155 0.0
N151 N 0.10046 0.55332 0.88342 0.0
C152 C 1.04975 0.49145 0.88108 0.0
H153 H 0.11187 0.5779 0.81452 0.0
H154 H 0.14801 0.60946 0.82993 0.0
H155 H 0.10295 0.61881 0.82695 0.0
H156 H 1.02318 0.48506 0.87183 0.0
H157 H 1.0435 0.4948 0.89843 0.0
H158 H 1.06199 0.46678 0.88007 0.0
C159 C 0.10688 0.51482 0.44981 0.0
N160 N 0.08422 0.49726 0.43378 0.0
N161 N 0.1271 0.54992 0.44271 0.0
C162 C 0.10733 0.49898 0.4728 0.0
C163 C 0.11595 0.55312 0.42185 0.0
N164 N 0.08968 0.52128 0.41649 0.0
C165 C 0.13249 0.58629 0.4063 0.0
H166 H 0.11697 0.52221 0.48437 0.0
H167 H 0.12684 0.48046 0.47364 0.0
H168 H 0.07912 0.48145 0.47779 0.0
H169 H 0.13313 0.5766 0.38942 0.0
H170 H 0.16127 0.60141 0.41117 0.0
H171 H 0.11485 0.60668 0.40644 0.0
C172 C 0.58982 0.06773 0.81298 0.0
N173 N 0.58857 0.03949 0.79891 0.0
N174 N 0.58383 0.099 0.8023 0.0
C175 C 0.59429 0.06398 0.83725 0.0
C176 C 0.57908 0.08887 0.78129 0.0
N177 N 0.58147 0.05263 0.77926 0.0
C178 C 0.57521 0.1155 0.76249 0.0
H179 H 0.58154 0.03423 0.84331 0.0
H180 H 0.58133 0.08369 0.84579 0.0
H181 H 0.62454 0.07133 0.84115 0.0
H182 H 0.58802 0.1457 0.76634 0.0
H183 H 0.54507 0.11196 0.75912 0.0
H184 H 0.58863 0.10892 0.74754 0.0
C185 C 0.54237 0.4999 0.13529 0.0
N186 N 0.56948 0.49949 0.12032 0.0
N187 N 0.50913 0.49904 0.12535 0.0
C188 C 0.54782 0.50004 0.15952 0.0
C189 C 0.51696 0.49804 0.10393 0.0
N190 N 0.55311 0.49799 0.10088 0.0
C191 C 0.48938 0.49799 0.08579 0.0
H192 H 0.56821 0.48372 0.16441 0.0
H193 H 0.52087 0.48777 0.16817 0.0
H194 H 0.55901 0.52995 0.16442 0.0
H195 H 0.50306 0.51699 0.07192 0.0
H196 H 0.4648 0.50723 0.09125 0.0
H197 H 0.47943 0.46862 0.07984 0.0
C198 C 0.17176 0.46374 0.15638 0.0
C199 C 0.15998 0.49701 0.1516 0.0
C200 C 0.2099 0.46415 0.15536 0.0
C201 C 0.30289 0.52321 0.13291 0.0
H202 H 0.34309 0.45548 0.17045 0.0
C203 C 0.46241 0.53406 0.13416 0.0
C204 C 0.47322 0.49976 0.13443 0.0
C205 C 0.42501 0.53407 0.1381 0.0
C206 C 0.33239 0.47447 0.1597 0.0
H207 H 0.18006 0.5572 0.14248 0.0
H208 H 0.24589 0.55825 0.14132 0.0
H209 H 0.2773 0.45489 0.17356 0.0
H210 H 0.45332 0.43861 0.13914 0.0
H211 H 0.38816 0.43835 0.14655 0.0
H212 H 0.35803 0.54294 0.11918 0.0
C213 C 0.22579 0.53133 0.14528 0.0
C214 C 0.29433 0.47406 0.16143 0.0
C215 C 0.18771 0.53083 0.14612 0.0
C216 C 0.44595 0.46552 0.13943 0.0
C217 C 0.40853 0.46548 0.14354 0.0
C218 C 0.34092 0.52381 0.13132 0.0
C219 C 0.23773 0.49794 0.14967 0.0
C220 C 0.27874 0.4984 0.14804 0.0
C221 C 0.39717 0.4997 0.14242 0.0
C222 C 0.35644 0.49945 0.14465 0.0
H223 H 0.15142 0.43705 0.16055 0.0
H224 H 0.21735 0.43759 0.15859 0.0
H225 H 0.29236 0.54187 0.12187 0.0
H226 H 0.48267 0.56073 0.12986 0.0
H227 H 0.41779 0.5611 0.13734 0.0
C228 C 0.81757 0.22024 0.46702 0.0
C229 C 0.82683 0.18641 0.47381 0.0
C230 C 0.84559 0.25343 0.46157 0.0
C231 C 0.94521 0.29967 0.47077 0.0
H232 H 0.9358 0.36268 0.41965 0.0
C233 C 0.06582 0.42807 0.44272 0.0
C234 C 1.05618 0.46138 0.43566 0.0
C235 C 1.03815 0.3938 0.44607 0.0
C236 C 0.93871 0.34563 0.43411 0.0
H237 H 0.87303 0.16097 0.47962 0.0
H238 H 0.92173 0.21891 0.47044 0.0
H239 H 0.88653 0.30472 0.42844 0.0
H240 H 1.01067 0.48538 0.4262 0.0
H241 H 0.96197 0.42569 0.43223 0.0
H242 H 0.99697 0.34069 0.47672 0.0
C243 C 0.89279 0.21985 0.46959 0.0
C244 C 0.91046 0.3124 0.43913 0.0
C245 C 0.86482 0.18664 0.47492 0.0
C246 C 1.0186 0.4598 0.43145 0.0
C247 C 0.99085 0.42562 0.43488 0.0
C248 C 0.97332 0.33296 0.46583 0.0
C249 C 0.88352 0.25365 0.46289 0.0
C250 C 0.91342 0.28903 0.45751 0.0
C251 C 1.00021 0.39225 0.44251 0.0
C252 C 0.97049 0.35639 0.44743 0.0
H253 H 0.78865 0.22128 0.46625 0.0
H254 H 0.83756 0.27915 0.45672 0.0
H255 H 0.94806 0.28259 0.48523 0.0
H256 H 0.09477 0.42874 0.44579 0.0
H257 H 1.0465 0.36855 0.45151 0.0
C258 C 0.62659 0.71812 0.84506 0.0
C259 C 0.59556 0.68976 0.83805 0.0
C260 C 0.62696 0.75686 0.84299 0.0
C261 C 0.56401 0.82109 0.83387 0.0
H262 H 0.65395 0.89446 0.81258 0.0
C263 C 0.56188 0.96981 0.79832 0.0
C264 C 0.59088 1.00112 0.80419 0.0
C265 C 0.5635 0.93254 0.80383 0.0
C266 C 0.62873 0.87442 0.81877 0.0
H267 H 0.54018 0.68004 0.82383 0.0
H268 H 0.54105 0.74684 0.82004 0.0
H269 H 0.65483 0.82828 0.82054 0.0
H270 H 0.64461 0.01841 0.81996 0.0
H271 H 0.64765 0.9531 0.82975 0.0
H272 H 0.53772 0.867 0.8317 0.0
C273 C 0.56501 0.73948 0.82737 0.0
C274 C 0.62925 0.83646 0.82341 0.0
C275 C 0.56466 0.70098 0.8294 0.0
C276 C 0.62183 0.99459 0.81544 0.0
C277 C 0.62362 0.95727 0.82086 0.0
C278 C 0.56346 0.85891 0.82915 0.0
C279 C 0.59622 0.76803 0.83396 0.0
C280 C 0.59673 0.80915 0.83073 0.0
C281 C 0.59432 0.92577 0.81525 0.0
C282 C 0.59565 0.88597 0.82127 0.0
H283 H 0.65082 0.71048 0.8518 0.0
H284 H 0.65131 0.77805 0.84846 0.0
H285 H 0.53864 0.80112 0.83992 0.0
H286 H 0.5377 0.97428 0.78971 0.0
H287 H 0.54069 0.90898 0.79898 0.0
C288 C 0.89372 0.47026 0.15155 0.0
C289 C 0.92211 0.5001 0.14193 0.0
C290 C 0.85571 0.47007 0.14978 0.0
C291 C 0.79232 0.53371 0.13593 0.0
H292 H 0.7169 0.43763 0.13175 0.0
C293 C 0.63226 0.52568 0.13707 0.0
C294 C 0.60825 0.49879 0.12406 0.0
C295 C 0.67012 0.52574 0.13979 0.0
C296 C 0.73743 0.46489 0.13272 0.0
H297 H 0.93184 0.5532 0.12272 0.0
H298 H 0.86611 0.55265 0.11939 0.0
H299 H 0.78252 0.43804 0.13473 0.0
H300 H 0.60547 0.45059 0.10398 0.0
H301 H 0.67112 0.45098 0.10825 0.0
H302 H 0.74728 0.56062 0.13335 0.0
C303 C 0.87308 0.52952 0.12867 0.0
C304 C 0.77538 0.46508 0.13474 0.0
C305 C 0.91107 0.52972 0.13046 0.0
C306 C 0.62316 0.47185 0.114 0.0
C307 C 0.66092 0.47187 0.11669 0.0
C308 C 0.75435 0.53352 0.13391 0.0
C309 C 0.84458 0.49971 0.13831 0.0
C310 C 0.80367 0.4995 0.13634 0.0
C311 C 0.68527 0.49888 0.1296 0.0
C312 C 0.72609 0.49911 0.13219 0.0
H313 H 0.9008 0.44695 0.1606 0.0
H314 H 0.83508 0.44679 0.15776 0.0
H315 H 0.81278 0.5609 0.13738 0.0
H316 H 0.6219 0.54713 0.14484 0.0
H317 H 0.68744 0.54681 0.15007 0.0
C318 C 0.34472 0.82975 0.51274 0.0
C319 C 0.38085 0.82699 0.51814 0.0
C320 C 0.31696 0.79746 0.50703 0.0
C321 C 0.30439 0.70092 0.48615 0.0
H322 H 0.20115 0.68843 0.5032 0.0
C323 C 0.18597 0.56942 0.46323 0.0
C324 C 0.15392 0.57792 0.45451 0.0
C325 C 0.2134 0.59767 0.47324 0.0
C326 C 0.22984 0.69162 0.49824 0.0
H327 H 0.41581 0.78785 0.52234 0.0
H328 H 0.36726 0.73139 0.51248 0.0
H329 H 0.24976 0.74168 0.51665 0.0
H330 H 0.12445 0.62158 0.44979 0.0
H331 H 0.17222 0.67118 0.46731 0.0
H332 H 0.28433 0.65096 0.46762 0.0
C333 C 0.36058 0.75869 0.51231 0.0
C334 C 0.2577 0.72217 0.5059 0.0
C335 C 0.38841 0.79104 0.51797 0.0
C336 C 0.1491 0.61465 0.45643 0.0
C337 C 0.17629 0.64281 0.46655 0.0
C338 C 0.27653 0.67026 0.47857 0.0
C339 C 0.32456 0.76154 0.50664 0.0
C340 C 0.29527 0.72754 0.4997 0.0
C341 C 0.20898 0.63479 0.47484 0.0
C342 C 0.23888 0.66557 0.48429 0.0
H343 H 0.33812 0.8571 0.51234 0.0
H344 H 0.28977 0.80089 0.50238 0.0
H345 H 0.33293 0.70444 0.4808 0.0
H346 H 0.19012 0.54121 0.46178 0.0
H347 H 0.23813 0.59056 0.47963 0.0
C348 C 0.55382 0.42032 0.82289 0.0
C349 C 0.58432 0.44708 0.83174 0.0
C350 C 0.55364 0.38178 0.82232 0.0
C351 C 0.61658 0.31795 0.82337 0.0
H352 H 0.52547 0.23885 0.83614 0.0
C353 C 0.61281 0.15785 0.82159 0.0
C354 C 0.58207 0.13487 0.81084 0.0
C355 C 0.61289 0.19497 0.82709 0.0
C356 C 0.55111 0.26056 0.83238 0.0
H357 H 0.63861 0.45412 0.84696 0.0
H358 H 0.63824 0.38704 0.84592 0.0
H359 H 0.52613 0.30573 0.83932 0.0
H360 H 0.52679 0.13146 0.79829 0.0
H361 H 0.52678 0.19618 0.80758 0.0
H362 H 0.64139 0.27291 0.81599 0.0
C363 C 0.61454 0.39587 0.83931 0.0
C364 C 0.55146 0.29894 0.83419 0.0
C365 C 0.61464 0.43436 0.83999 0.0
C366 C 0.55079 0.14885 0.80655 0.0
C367 C 0.55079 0.18582 0.81201 0.0
C368 C 0.61621 0.27957 0.82149 0.0
C369 C 0.58403 0.36907 0.83048 0.0
C370 C 0.58409 0.32815 0.82948 0.0
C371 C 0.58214 0.20971 0.82196 0.0
C372 C 0.58335 0.25036 0.82573 0.0
H373 H 0.53002 0.42909 0.81638 0.0
H374 H 0.5299 0.36201 0.81514 0.0
H375 H 0.64209 0.33971 0.81938 0.0
H376 H 0.63727 0.14759 0.82493 0.0
H377 H 0.63729 0.21235 0.83502 0.0
C378 C 0.57562 0.85895 0.52876 0.0
C379 C 0.60658 0.8855 0.5191 0.0
C380 C 0.57529 0.82052 0.53169 0.0
C381 C 0.61874 0.74676 0.51275 0.0
H382 H 0.58118 0.69505 0.56776 0.0
C383 C 0.62989 0.59389 0.53648 0.0
C384 C 0.59939 0.56946 0.54763 0.0
C385 C 0.63135 0.6325 0.5326 0.0
C386 C 0.59133 0.70885 0.55219 0.0
H387 H 0.66126 0.8921 0.5046 0.0
H388 H 0.66067 0.82488 0.50977 0.0
H389 H 0.58259 0.762 0.56151 0.0
H390 H 0.5463 0.56558 0.56315 0.0
H391 H 0.54837 0.63288 0.55627 0.0
H392 H 0.62726 0.69346 0.50339 0.0
C393 C 0.63656 0.83389 0.51497 0.0
C394 C 0.59218 0.74731 0.54862 0.0
C395 C 0.63696 0.87246 0.51209 0.0
C396 C 0.57023 0.58411 0.55471 0.0
C397 C 0.57158 0.62263 0.55082 0.0
C398 C 0.61778 0.70818 0.5163 0.0
C399 C 0.60585 0.80753 0.525 0.0
C400 C 0.60571 0.76672 0.52882 0.0
C401 C 0.60225 0.64743 0.5398 0.0
C402 C 0.60389 0.68867 0.53604 0.0
H403 H 0.55159 0.86781 0.53426 0.0
H404 H 0.55091 0.8009 0.53913 0.0
H405 H 0.62897 0.76073 0.49723 0.0
H406 H 0.65287 0.58317 0.53114 0.0
H407 H 0.65562 0.6508 0.52434 0.0
C408 C 0.8066 0.46081 0.84048 0.0
C409 C 0.78453 0.47669 0.82623 0.0
C410 C 0.8347 0.44606 0.83235 0.0
C411 C 0.898 0.46953 0.78599 0.0
H412 H 0.95011 0.41468 0.82486 0.0
C413 C 1.03231 0.54053 0.8223 0.0
C414 C 1.05475 0.52018 0.8331 0.0
C415 C 1.00258 0.52164 0.80952 0.0
C416 C 0.93618 0.4293 0.81318 0.0
H417 H 0.77166 0.48541 0.79216 0.0
H418 H 0.82006 0.45864 0.77796 0.0
H419 H 0.88246 0.39817 0.82531 0.0
H420 H 0.06696 0.46534 0.83722 0.0
H421 H 1.01453 0.43171 0.8148 0.0
H422 H 0.95179 0.50148 0.77438 0.0
C423 C 0.81635 0.45852 0.79546 0.0
C424 C 0.89718 0.42012 0.81369 0.0
C425 C 0.78839 0.47365 0.80363 0.0
C426 C 1.04943 0.48132 0.8292 0.0
C427 C 1.01955 0.46222 0.81639 0.0
C428 C 0.93694 0.47808 0.78512 0.0
C429 C 0.84126 0.44659 0.80973 0.0
C430 C 0.87802 0.44294 0.80182 0.0
C431 C 0.99455 0.48182 0.80737 0.0
C432 C 0.95646 0.4609 0.80039 0.0
H433 H 0.8036 0.46177 0.85798 0.0
H434 H 0.85321 0.43738 0.844 0.0
H435 H 0.88438 0.48726 0.77614 0.0
H436 H 1.03582 0.57046 0.82525 0.0
H437 H 0.98387 0.53783 0.80317 0.0
C438 C 0.25705 0.70272 0.1528 0.0
C439 C 0.22609 0.7161 0.1464 0.0
C440 C 0.29045 0.72813 0.15903 0.0
C441 C 0.34416 0.82953 0.15564 0.0
H442 H 0.39081 0.80255 0.20846 0.0
C443 C 0.4622 0.9375 0.19994 0.0
C444 C 0.49009 0.9236 0.21025 0.0
C445 C 0.43141 0.91234 0.19051 0.0
C446 C 0.37859 0.81034 0.19348 0.0
H447 H 0.20641 0.76699 0.14125 0.0
H448 H 0.26488 0.81133 0.1519 0.0
H449 H 0.33481 0.75845 0.19485 0.0
H450 H 0.50894 0.87328 0.21815 0.0
H451 H 0.45568 0.82912 0.20129 0.0
H452 H 0.38803 0.88147 0.15427 0.0
C453 C 0.2633 0.78113 0.15195 0.0
C454 C 0.34637 0.78502 0.1857 0.0
C455 C 0.22978 0.75568 0.14582 0.0
C456 C 0.48744 0.88439 0.21041 0.0
C457 C 0.45686 0.85924 0.20089 0.0
C458 C 0.37658 0.85482 0.16336 0.0
C459 C 0.29385 0.7676 0.15891 0.0
C460 C 0.32869 0.79433 0.16674 0.0
C461 C 0.42808 0.87278 0.19113 0.0
C462 C 0.39416 0.8456 0.18243 0.0
H463 H 0.25549 0.67252 0.15303 0.0
H464 H 0.31369 0.71685 0.16394 0.0
H465 H 0.33141 0.83735 0.14085 0.0
H466 H 0.46371 0.96768 0.19985 0.0
H467 H 0.40966 0.9238 0.18339 0.0
C468 C 0.63437 0.15373 0.50719 0.0
C469 C 0.60406 0.12522 0.51603 0.0
C470 C 0.63424 0.19227 0.50717 0.0
C471 C 0.57064 0.25521 0.51168 0.0
H472 H 0.65915 0.3302 0.53048 0.0
C473 C 0.56554 0.40098 0.5428 0.0
C474 C 0.59587 0.43284 0.53866 0.0
C475 C 0.56682 0.36488 0.53642 0.0
C476 C 0.63438 0.30981 0.52479 0.0
H477 H 0.54975 0.11503 0.53166 0.0
H478 H 0.54964 0.18193 0.5317 0.0
H479 H 0.66127 0.26425 0.52641 0.0
H480 H 0.65075 0.45266 0.52402 0.0
H481 H 0.65309 0.38934 0.51243 0.0
H482 H 0.54354 0.30052 0.51039 0.0
C483 C 0.57336 0.17456 0.52457 0.0
C484 C 0.63559 0.27195 0.52251 0.0
C485 C 0.57357 0.13615 0.5247 0.0
C486 C 0.62701 0.42837 0.52724 0.0
C487 C 0.62842 0.39214 0.52085 0.0
C488 C 0.56945 0.29303 0.51391 0.0
C489 C 0.60368 0.20313 0.51585 0.0
C490 C 0.6035 0.24404 0.51635 0.0
C491 C 0.59856 0.35983 0.52571 0.0
C492 C 0.60108 0.32066 0.52093 0.0
H493 H 0.6583 0.14634 0.50034 0.0
H494 H 0.65792 0.21355 0.50019 0.0
H495 H 0.54563 0.23459 0.50647 0.0
H496 H 0.54128 0.40397 0.55159 0.0
H497 H 0.54351 0.3407 0.54069 0.0
C498 C 0.37048 0.67114 0.813 0.0
C499 C 0.40535 0.67768 0.82335 0.0
C500 C 0.34391 0.68917 0.81982 0.0
C501 C 0.3157 0.71348 0.87164 0.0
H502 H 0.22892 0.71575 0.83672 0.0
C503 C 0.14539 0.65168 0.86823 0.0
C504 C 0.14639 0.61474 0.87525 0.0
C505 C 0.17794 0.68171 0.86831 0.0
C506 C 0.25287 0.71645 0.84704 0.0
H507 H 0.44153 0.71256 0.84686 0.0
H508 H 0.39437 0.74311 0.85932 0.0
H509 H 0.29047 0.73399 0.82002 0.0
H510 H 0.18032 0.58065 0.89004 0.0
H511 H 0.23708 0.63239 0.89022 0.0
H512 H 0.27781 0.69349 0.89831 0.0
C513 C 0.38761 0.72371 0.84605 0.0
C514 C 0.28825 0.72666 0.83734 0.0
C515 C 0.41445 0.70592 0.83903 0.0
C516 C 0.17904 0.60901 0.88464 0.0
C517 C 0.21152 0.63889 0.88479 0.0
C518 C 0.28035 0.70366 0.88141 0.0
C519 C 0.3514 0.71395 0.83729 0.0
C520 C 0.31941 0.72167 0.84904 0.0
C521 C 0.2119 0.67506 0.87543 0.0
C522 C 0.24829 0.70152 0.86866 0.0
H523 H 0.36222 0.64953 0.80097 0.0
H524 H 0.31623 0.68054 0.8128 0.0
H525 H 0.33919 0.70986 0.88127 0.0
H526 H 0.12007 0.65664 0.8613 0.0
H527 H 0.17713 0.70934 0.86134 0.0
C528 C 0.82859 0.27761 0.18625 0.0
C529 C 0.86362 0.2739 0.19344 0.0
C530 C 0.79594 0.24885 0.19116 0.0
C531 C 0.76399 0.14604 0.20586 0.0
H532 H 0.67243 0.16919 0.22366 0.0
C533 C 0.63574 0.027 0.2347 0.0
C534 C 0.60053 0.02984 0.22758 0.0
C535 C 0.6673 0.05775 0.23155 0.0
C536 C 0.69765 0.16224 0.21848 0.0
H537 H 0.89143 0.23763 0.21225 0.0
H538 H 0.83471 0.18753 0.22061 0.0
H539 H 0.72836 0.22118 0.21598 0.0
H540 H 0.57021 0.06714 0.21226 0.0
H541 H 0.62549 0.12083 0.20612 0.0
H542 H 0.73344 0.08728 0.20803 0.0
C543 C 0.83253 0.21236 0.21085 0.0
C544 C 0.7297 0.19205 0.2141 0.0
C545 C 0.86508 0.24109 0.20601 0.0
C546 C 0.59723 0.06426 0.21766 0.0
C547 C 0.62882 0.09504 0.21438 0.0
C548 C 0.73198 0.1163 0.21013 0.0
C549 C 0.79761 0.2157 0.20333 0.0
C550 C 0.76329 0.18426 0.20782 0.0
C551 C 0.66436 0.09202 0.22107 0.0
C552 C 0.6984 0.12396 0.21659 0.0
H553 H 0.82646 0.30229 0.17635 0.0
H554 H 0.7695 0.25213 0.18496 0.0
H555 H 0.78921 0.13907 0.20067 0.0
H556 H 0.63893 1.00061 0.24227 0.0
H557 H 0.69406 0.05457 0.23725 0.0
C558 C 1.04368 0.51697 0.07873 0.0
C559 C 1.05371 0.48563 0.0887 0.0
C560 C 1.05272 0.52734 0.05683 0.0
C561 C 0.07295 0.48671 0.00605 0.0
H562 H 0.11298 0.59201 0.98579 0.0
C563 C 0.11621 0.52194 0.91691 0.0
C564 C 0.10467 0.55202 0.90668 0.0
C565 C 0.11481 0.51699 0.93957 0.0
C566 C 0.10155 0.56251 0.99118 0.0
H567 H 0.08148 0.44098 0.08387 0.0
H568 H 0.09704 0.45889 0.04568 0.0
H569 H 0.09981 0.57699 0.02464 0.0
H570 H 0.08438 0.60159 0.9116 0.0
H571 H 0.08107 0.59279 0.95144 0.0
H572 H 0.07369 0.47202 0.97278 0.0
C573 C 0.08199 0.47528 0.05467 0.0
C574 C 0.09402 0.55394 0.0134 0.0
C575 C 0.07317 0.46509 0.07653 0.0
C576 C 0.09356 0.57835 0.91937 0.0
C577 C 0.09176 0.57326 0.94209 0.0
C578 C 0.08023 0.49524 0.9839 0.0
C579 C 0.07168 0.50636 0.04454 0.0
C580 C 0.07974 0.51591 0.02105 0.0
C581 C 0.10135 0.54183 0.95241 0.0
C582 C 0.09475 0.53321 0.97617 0.0
H583 H 1.02874 0.53334 0.0878 0.0
H584 H 1.04417 0.55123 0.0494 0.0
H585 H 1.0613 0.4572 0.01139 0.0
H586 H 0.1251 0.50159 0.90723 0.0
H587 H 0.12331 0.49306 0.94699 0.0
C588 C 0.61113 0.984 0.44417 0.0
C589 C 0.58982 0.00654 0.45306 0.0
C590 C 0.61577 0.98374 0.42156 0.0
C591 C 0.61051 0.03703 0.36984 0.0
H592 H 0.58076 0.93728 0.34487 0.0
C593 C 0.56862 0.01654 0.27951 0.0
C594 C 0.57335 0.98435 0.2693 0.0
C595 C 0.57785 0.02193 0.3015 0.0
C596 C 0.59008 0.96541 0.35144 0.0
H597 H 0.55812 0.04773 0.44553 0.0
H598 H 0.56671 0.04773 0.40608 0.0
H599 H 0.58467 0.94215 0.38424 0.0
H600 H 0.59324 0.93376 0.27311 0.0
H601 H 0.61118 0.94372 0.31129 0.0
H602 H 0.61603 0.06044 0.3371 0.0
C603 C 0.57964 0.03014 0.41653 0.0
C604 C 0.59214 0.96812 0.37408 0.0
C605 C 0.57453 0.02994 0.43907 0.0
C606 C 0.5893 0.95866 0.2809 0.0
C607 C 0.59914 0.96427 0.30276 0.0
C608 C 0.60899 0.03434 0.34715 0.0
C609 C 0.59974 0.00654 0.40752 0.0
C610 C 0.60167 0.00394 0.38351 0.0
C611 C 0.59247 0.99536 0.31359 0.0
C612 C 0.59801 0.99848 0.33763 0.0
H613 H 0.62332 0.96579 0.45463 0.0
H614 H 0.63156 0.96544 0.41503 0.0
H615 H 0.61828 0.06501 0.37671 0.0
H616 H 0.556 0.03641 0.27074 0.0
H617 H 0.5718 0.04593 0.30921 0.0
C618 C 0.63569 0.61056 0.75953 0.0
C619 C 0.61097 0.58364 0.77319 0.0
C620 C 0.63181 0.60944 0.73689 0.0
C621 C 0.63252 0.58036 0.69102 0.0
H622 H 0.53594 0.56175 0.66276 0.0
C623 C 0.61994 0.56035 0.59859 0.0
C624 C 0.5907 0.52971 0.59219 0.0
C625 C 0.62056 0.57383 0.61966 0.0
C626 C 0.56311 0.56674 0.6704 0.0
H627 H 0.56211 0.53523 0.77403 0.0
H628 H 0.55519 0.53334 0.7344 0.0
H629 H 0.54048 0.57134 0.70195 0.0
H630 H 0.53814 0.49063 0.60195 0.0
H631 H 0.5395 0.51303 0.63897 0.0
H632 H 0.6551 0.57422 0.65985 0.0
C633 C 0.57753 0.55535 0.74119 0.0
C634 C 0.56567 0.57229 0.69284 0.0
C635 C 0.58162 0.55626 0.76385 0.0
C636 C 0.56111 0.51408 0.60673 0.0
C637 C 0.5618 0.52724 0.62782 0.0
C638 C 0.62993 0.57448 0.66865 0.0
C639 C 0.6029 0.58161 0.72747 0.0
C640 C 0.60035 0.57865 0.70343 0.0
C641 C 0.59202 0.55667 0.63477 0.0
C642 C 0.59512 0.56702 0.65808 0.0
H643 H 0.65846 0.6321 0.76633 0.0
H644 H 0.65155 0.63025 0.72672 0.0
H645 H 0.65957 0.58474 0.69877 0.0
H646 H 0.64305 0.57274 0.58758 0.0
H647 H 0.6439 0.59702 0.6243 0.0
C648 C 0.64302 0.99077 0.59297 0.0
C649 C 0.61934 0.00234 0.57777 0.0
C650 C 0.6354 0.98971 0.61532 0.0
C651 C 0.58196 0.02996 0.65476 0.0
H652 H 0.60824 0.95689 0.69551 0.0
C653 C 0.54876 0.03035 0.74541 0.0
C654 C 0.57969 0.0333 0.75911 0.0
C655 C 0.55 0.01939 0.72395 0.0
C656 C 0.60079 0.97744 0.68429 0.0
H657 H 0.56835 0.02034 0.57384 0.0
H658 H 0.55419 0.01721 0.6127 0.0
H659 H 0.61679 0.95182 0.65634 0.0
H660 H 0.63495 0.02451 0.76201 0.0
H661 H 0.63722 0.00474 0.72432 0.0
H662 H 0.5659 0.05548 0.68263 0.0
C663 C 0.57935 0.01011 0.60755 0.0
C664 C 0.60583 0.97471 0.66185 0.0
C665 C 0.58728 0.01167 0.58524 0.0
C666 C 0.61077 0.02217 0.75165 0.0
C667 C 0.61202 0.01098 0.73014 0.0
C668 C 0.57654 0.03238 0.67708 0.0
C669 C 0.60364 0.99975 0.62294 0.0
C670 C 0.59674 1.00115 0.64679 0.0
C671 C 0.58219 0.01097 0.71584 0.0
C672 C 0.58608 0.00633 0.69211 0.0
H673 H 0.66797 0.98343 0.58763 0.0
H674 H 0.65503 0.98209 0.62662 0.0
H675 H 0.57546 0.05143 0.64383 0.0
H676 H 0.52442 0.03851 0.75103 0.0
H677 H 0.52635 0.01899 0.71342 0.0
C678 C 0.5988 0.57557 0.90786 0.0
C679 C 0.57264 0.54688 0.89715 0.0
C680 C 0.60624 0.57087 0.93007 0.0
C681 C 0.5976 0.49729 0.97474 0.0
H682 H 0.59307 0.5787 0.01272 0.0
C683 C 0.55785 0.47118 0.06527 0.0
C684 C 0.57099 0.50023 0.07994 0.0
C685 C 0.56802 0.47685 0.04327 0.0
C686 C 0.59535 0.55593 0.00239 0.0
H687 H 0.53441 0.49055 0.90108 0.0
H688 H 0.54738 0.48231 0.93968 0.0
H689 H 0.59145 0.58932 0.97331 0.0
H690 H 0.60689 0.55685 0.0838 0.0
H691 H 0.62571 0.56687 0.04524 0.0
H692 H 0.60071 0.46359 0.00376 0.0
C693 C 0.56229 0.50836 0.931 0.0
C694 C 0.59427 0.56203 0.97975 0.0
C695 C 0.55461 0.51321 0.90892 0.0
C696 C 0.5967 0.53406 0.07267 0.0
C697 C 0.60698 0.53986 0.0506 0.0
C698 C 0.59892 0.49126 -0.00265 0.0
C699 C 0.58802 0.53718 0.94189 0.0
C700 C 0.59429 0.53242 0.9657 0.0
C701 C 0.59165 0.51182 0.03547 0.0
C702 C 0.5967 0.52013 0.01151 0.0
H703 H 0.61324 0.60175 0.89912 0.0
H704 H 0.62633 0.59351 0.93799 0.0
H705 H 0.59838 0.47413 0.96432 0.0
H706 H 0.53785 0.44496 0.07066 0.0
H707 H 0.55532 0.45471 0.03219 0.0
C708 C 1.05338 0.49021 0.22137 0.0
C709 C 1.03749 0.51727 0.21093 0.0
C710 C 1.05319 0.48618 0.24416 0.0
C711 C 1.04992 0.54191 0.29231 0.0
H712 H 1.03189 0.44473 0.32451 0.0
C713 C 1.05383 0.53744 0.38545 0.0
C714 C 0.07361 0.51331 0.39527 0.0
C715 C 1.04349 0.53379 0.36358 0.0
C716 C 1.03723 0.47209 0.31574 0.0
H717 H 1.00758 0.56013 0.21596 0.0
H718 H 1.00717 0.55309 0.25563 0.0
H719 H 1.0257 0.44609 0.28477 0.0
H720 H 0.0967 0.46544 0.39073 0.0
H721 H 0.07936 0.45919 0.35218 0.0
H722 H 1.06249 0.56812 0.3229 0.0
C723 C 1.02024 0.53536 0.2463 0.0
C724 C 1.03367 0.47285 0.29299 0.0
C725 C 1.02036 0.5393 0.22359 0.0
C726 C 0.0812 0.4841 0.38334 0.0
C727 C 0.0712 0.4806 0.36134 0.0
C728 C 1.05366 0.54117 0.31493 0.0
C729 C 1.03721 0.50925 0.25688 0.0
C730 C 1.04 0.50781 0.28105 0.0
C731 C 1.05321 0.50619 0.35101 0.0
C732 C 1.04738 0.5063 0.32698 0.0
H733 H 0.06668 0.47278 0.21196 0.0
H734 H 0.06669 0.46598 0.25183 0.0
H735 H 1.05576 0.56933 0.28356 0.0
H736 H 1.04757 0.55993 0.39458 0.0
H737 H 1.02883 0.55335 0.35633 0.0
loop_
_geom_bond_atom_site_label_1
_geom_bond_atom_site_label_2
_geom_bond_distance
_geom_bond_site_symmetry_2
_ccdc_geom_bond_type
Nd0 C2 2.836 . S
Nd0 O20 2.500 . S
Nd0 O21 2.492 . S
Nd0 O22 2.487 . S
Nd0 O23 2.682 1_455 S
Nd0 O24 2.410 . S
Nd0 O29 2.414 . S
Nd0 O31 2.424 1_455 S
Nd1 C11 2.836 . S
Nd1 O23 2.414 . S
Nd1 O25 2.424 1_655 S
Nd1 O26 2.500 . S
Nd1 O27 2.492 . S
Nd1 O28 2.487 . S
Nd1 O29 2.682 1_655 S
Nd1 O30 2.410 . S
C2 Nd0 2.836 . S
C2 C3 1.498 . S
C2 O20 1.258 . S
C2 O21 1.239 . S
C3 C2 1.498 . S
C3 C4 1.366 . S
C3 C8 1.407 . S
C4 C3 1.366 . S
C4 C5 1.392 . S
C4 H32 0.930 . S
C5 C4 1.392 . S
C5 C6 1.398 . S
C5 H33 0.929 . S
C6 C5 1.398 . S
C6 C7 1.352 . S
C7 C6 1.352 . S
C7 C8 1.384 . S
C7 H34 0.930 . S
C8 C3 1.407 . S
C8 C7 1.384 . S
C8 H35 0.929 . S
C9 O22 1.241 1_655 S
C9 O23 1.273 . S
C10 O24 1.251 . S
C10 O25 1.268 . S
C11 Nd1 2.836 . S
C11 C12 1.498 . S
C11 O26 1.258 . S
C11 O27 1.239 . S
C12 C11 1.498 . S
C12 C13 1.366 . S
C12 C17 1.407 . S
C13 C12 1.366 . S
C13 C14 1.392 . S
C13 H36 0.930 . S
C14 C13 1.392 . S
C14 C15 1.398 . S
C14 H37 0.929 . S
C15 C14 1.398 . S
C15 C16 1.352 . S
C16 C15 1.352 . S
C16 C17 1.384 . S
C16 H38 0.930 . S
C17 C12 1.407 . S
C17 C16 1.384 . S
C17 H39 0.929 . S
C18 O28 1.241 1_455 S
C18 O29 1.273 . S
C19 O30 1.251 . S
C19 O31 1.268 . S
O20 Nd0 2.500 . S
O20 C2 1.258 . S
O21 Nd0 2.492 . S
O21 C2 1.239 . S
O22 Nd0 2.487 . S
O22 C9 1.241 1_455 S
O23 Nd0 2.682 1_655 S
O23 Nd1 2.414 . S
O23 C9 1.273 . S
O24 Nd0 2.410 . S
O24 C10 1.251 . S
O25 Nd1 2.424 1_455 S
O25 C10 1.268 . S
O26 Nd1 2.500 . S
O26 C11 1.258 . S
O27 Nd1 2.492 . S
O27 C11 1.239 . S
O28 Nd1 2.487 . S
O28 C18 1.241 1_655 S
O29 Nd0 2.414 . S
O29 Nd1 2.682 1_455 S
O29 C18 1.273 . S
O30 Nd1 2.410 . S
O30 C19 1.251 . S
O31 Nd0 2.424 1_655 S
O31 C19 1.268 . S
H32 C4 0.930 . S
H33 C5 0.929 . S
H34 C7 0.930 . S
H35 C8 0.929 . S
H36 C13 0.930 . S
H37 C14 0.929 . S
H38 C16 0.930 . S
H39 C17 0.929 . S
Nd40 C42 2.836 1_545 S
Nd40 O60 2.500 1_545 S
Nd40 O61 2.492 1_545 S
Nd40 O62 2.487 . S
Nd40 O63 2.682 . S
Nd40 O64 2.410 1_545 S
Nd40 O69 2.414 . S
Nd40 O71 2.424 . S
Nd41 C51 2.836 . S
Nd41 O63 2.414 . S
Nd41 O65 2.424 1_545 S
Nd41 O66 2.500 . S
Nd41 O67 2.492 . S
Nd41 O68 2.487 . S
Nd41 O69 2.682 . S
Nd41 O70 2.410 . S
C42 Nd40 2.836 1_565 S
C42 C43 1.498 . S
C42 O60 1.258 . S
C42 O61 1.239 . S
C43 C42 1.498 . S
C43 C44 1.366 . S
C43 C48 1.407 . S
C44 C43 1.366 . S
C44 C45 1.392 . S
C44 H72 0.930 . S
C45 C44 1.392 . S
C45 C46 1.398 . S
C45 H73 0.929 . S
C46 C45 1.398 . S
C46 C47 1.352 . S
C47 C46 1.352 . S
C47 C48 1.384 . S
C47 H74 0.930 . S
C48 C43 1.407 . S
C48 C47 1.384 . S
C48 H75 0.929 . S
C49 O62 1.241 . S
C49 O63 1.273 . S
C50 O64 1.251 . S
C50 O65 1.268 . S
C51 Nd41 2.836 . S
C51 C52 1.498 . S
C51 O66 1.258 . S
C51 O67 1.239 . S
C52 C51 1.498 . S
C52 C53 1.366 . S
C52 C57 1.407 . S
C53 C52 1.366 . S
C53 C54 1.392 . S
C53 H76 0.930 . S
C54 C53 1.392 . S
C54 C55 1.398 . S
C54 H77 0.929 . S
C55 C54 1.398 . S
C55 C56 1.352 . S
C56 C55 1.352 . S
C56 C57 1.384 . S
C56 H78 0.930 . S
C57 C52 1.407 . S
C57 C56 1.384 . S
C57 H79 0.929 . S
C58 O68 1.241 . S
C58 O69 1.273 . S
C59 O70 1.251 . S
C59 O71 1.268 . S
O60 Nd40 2.500 1_565 S
O60 C42 1.258 . S
O61 Nd40 2.492 1_565 S
O61 C42 1.239 . S
O62 Nd40 2.487 . S
O62 C49 1.241 . S
O63 Nd40 2.682 . S
O63 Nd41 2.414 . S
O63 C49 1.273 . S
O64 Nd40 2.410 1_565 S
O64 C50 1.251 . S
O65 Nd41 2.424 1_565 S
O65 C50 1.268 . S
O66 Nd41 2.500 . S
O66 C51 1.258 . S
O67 Nd41 2.492 . S
O67 C51 1.239 . S
O68 Nd41 2.487 . S
O68 C58 1.241 . S
O69 Nd40 2.414 . S
O69 Nd41 2.682 . S
O69 C58 1.273 . S
O70 Nd41 2.410 . S
O70 C59 1.251 . S
O71 Nd40 2.424 . S
O71 C59 1.268 . S
H72 C44 0.930 . S
H73 C45 0.929 . S
H74 C47 0.930 . S
H75 C48 0.929 . S
H76 C53 0.930 . S
H77 C54 0.929 . S
H78 C56 0.930 . S
H79 C57 0.929 . S
Nd80 C82 2.836 . S
Nd80 O100 2.500 . S
Nd80 O101 2.492 . S
Nd80 O102 2.487 . S
Nd80 O103 2.682 . S
Nd80 O104 2.410 . S
Nd80 O109 2.414 . S
Nd80 O111 2.424 . S
Nd81 C91 2.836 . S
Nd81 O103 2.414 . S
Nd81 O105 2.424 . S
Nd81 O106 2.500 . S
Nd81 O107 2.492 . S
Nd81 O108 2.487 . S
Nd81 O109 2.682 . S
Nd81 O110 2.410 . S
C82 Nd80 2.836 . S
C82 C83 1.498 . S
C82 O100 1.258 . S
C82 O101 1.239 . S
C83 C82 1.498 . S
C83 C84 1.366 . S
C83 C88 1.407 . S
C84 C83 1.366 . S
C84 C85 1.392 . S
C84 H112 0.930 . S
C85 C84 1.392 . S
C85 C86 1.398 . S
C85 H113 0.929 . S
C86 C85 1.398 . S
C86 C87 1.352 . S
C87 C86 1.352 . S
C87 C88 1.384 . S
C87 H114 0.930 . S
C88 C83 1.407 . S
C88 C87 1.384 . S
C88 H115 0.929 . S
C89 O102 1.241 . S
C89 O103 1.273 . S
C90 O104 1.251 . S
C90 O105 1.268 . S
C91 Nd81 2.836 . S
C91 C92 1.498 . S
C91 O106 1.258 . S
C91 O107 1.239 . S
C92 C91 1.498 . S
C92 C93 1.366 . S
C92 C97 1.407 . S
C93 C92 1.366 . S
C93 C94 1.392 . S
C93 H116 0.930 . S
C94 C93 1.392 . S
C94 C95 1.398 . S
C94 H117 0.929 . S
C95 C94 1.398 . S
C95 C96 1.352 . S
C96 C95 1.352 . S
C96 C97 1.384 . S
C96 H118 0.930 . S
C97 C92 1.407 . S
C97 C96 1.384 . S
C97 H119 0.929 . S
C98 O108 1.241 . S
C98 O109 1.273 . S
C99 O110 1.251 . S
C99 O111 1.268 . S
O100 Nd80 2.500 . S
O100 C82 1.258 . S
O101 Nd80 2.492 . S
O101 C82 1.239 . S
O102 Nd80 2.487 . S
O102 C89 1.241 . S
O103 Nd80 2.682 . S
O103 Nd81 2.414 . S
O103 C89 1.273 . S
O104 Nd80 2.410 . S
O104 C90 1.251 . S
O105 Nd81 2.424 . S
O105 C90 1.268 . S
O106 Nd81 2.500 . S
O106 C91 1.258 . S
O107 Nd81 2.492 . S
O107 C91 1.239 . S
O108 Nd81 2.487 . S
O108 C98 1.241 . S
O109 Nd80 2.414 . S
O109 Nd81 2.682 . S
O109 C98 1.273 . S
O110 Nd81 2.410 . S
O110 C99 1.251 . S
O111 Nd80 2.424 . S
O111 C99 1.268 . S
H112 C84 0.930 . S
H113 C85 0.929 . S
H114 C87 0.930 . S
H115 C88 0.929 . S
H116 C93 0.930 . S
H117 C94 0.929 . S
H118 C96 0.930 . S
H119 C97 0.929 . S
C120 N121 1.317 1_565 S
C120 N122 1.348 . S
C120 C123 1.485 1_565 S
N121 C120 1.317 1_545 S
N121 N125 1.370 . S
N122 C120 1.348 . S
N122 C124 1.346 . S
C123 C120 1.485 1_545 S
C123 H127 0.960 . S
C123 H128 0.961 1_545 S
C123 H129 0.960 . S
C124 N122 1.346 . S
C124 N125 1.307 1_565 S
C124 C126 1.486 . S
N125 N121 1.370 . S
N125 C124 1.307 1_545 S
C126 C124 1.486 . S
C126 H130 0.960 . S
C126 H131 0.960 . S
C126 H132 0.959 . S
H127 C123 0.960 . S
H128 C123 0.961 1_565 S
H129 C123 0.960 . S
H130 C126 0.960 . S
H131 C126 0.960 . S
H132 C126 0.959 . S
C133 N134 1.317 . S
C133 N135 1.348 . S
C133 C136 1.485 . S
N134 C133 1.317 . S
N134 N138 1.370 . S
N135 C133 1.348 . S
N135 C137 1.346 . S
C136 C133 1.485 . S
C136 H140 0.960 . S
C136 H141 0.961 . S
C136 H142 0.960 . S
C137 N135 1.346 . S
C137 N138 1.307 . S
C137 C139 1.486 . S
N138 N134 1.370 . S
N138 C137 1.307 . S
C139 C137 1.486 . S
C139 H143 0.960 . S
C139 H144 0.960 . S
C139 H145 0.959 . S
H140 C136 0.960 . S
H141 C136 0.961 . S
H142 C136 0.960 . S
H143 C139 0.960 . S
H144 C139 0.960 . S
H145 C139 0.959 . S
C146 N147 1.317 . S
C146 N148 1.348 1_455 S
C146 C149 1.485 . S
N147 C146 1.317 . S
N147 N151 1.370 . S
N148 C146 1.348 1_655 S
N148 C150 1.346 . S
C149 C146 1.485 . S
C149 H153 0.960 . S
C149 H154 0.961 . S
C149 H155 0.960 . S
C150 N148 1.346 . S
C150 N151 1.307 1_655 S
C150 C152 1.486 . S
N151 N147 1.370 . S
N151 C150 1.307 1_455 S
C152 C150 1.486 . S
C152 H156 0.960 . S
C152 H157 0.960 . S
C152 H158 0.959 . S
H153 C149 0.960 . S
H154 C149 0.961 . S
H155 C149 0.960 . S
H156 C152 0.960 . S
H157 C152 0.960 . S
H158 C152 0.959 . S
C159 N160 1.333 . S
C159 N161 1.348 . S
C159 C162 1.485 . S
N160 C159 1.333 . S
N160 N164 1.380 . S
N161 C159 1.348 . S
N161 C163 1.346 . S
C162 C159 1.485 . S
C162 H166 0.960 . S
C162 H167 0.961 . S
C162 H168 0.962 . S
C163 N161 1.346 . S
C163 N164 1.307 . S
C163 C165 1.486 . S
N164 N160 1.380 . S
N164 C163 1.307 . S
C165 C163 1.486 . S
C165 H169 0.960 . S
C165 H170 0.960 . S
C165 H171 0.959 . S
H166 C162 0.960 . S
H167 C162 0.961 . S
H168 C162 0.962 . S
H169 C165 0.960 . S
H170 C165 0.960 . S
H171 C165 0.959 . S
C172 N173 1.317 . S
C172 N174 1.348 . S
C172 C175 1.485 . S
N173 C172 1.317 . S
N173 N177 1.370 . S
N174 C172 1.348 . S
N174 C176 1.346 . S
C175 C172 1.485 . S
C175 H179 0.960 . S
C175 H180 0.961 . S
C175 H181 0.960 . S
C176 N174 1.346 . S
C176 N177 1.307 . S
C176 C178 1.486 . S
N177 N173 1.370 . S
N177 C176 1.307 . S
C178 C176 1.486 . S
C178 H182 0.960 . S
C178 H183 0.960 . S
C178 H184 0.959 . S
H179 C175 0.960 . S
H180 C175 0.961 . S
H181 C175 0.960 . S
H182 C178 0.960 . S
H183 C178 0.960 . S
H184 C178 0.959 . S
C185 N186 1.317 . S
C185 N187 1.348 . S
C185 C188 1.485 . S
N186 C185 1.317 . S
N186 N190 1.370 . S
N187 C185 1.348 . S
N187 C189 1.346 . S
C188 C185 1.485 . S
C188 H192 0.960 . S
C188 H193 0.961 . S
C188 H194 0.960 . S
C189 N187 1.346 . S
C189 N190 1.307 . S
C189 C191 1.486 . S
N190 N186 1.370 . S
N190 C189 1.307 . S
C191 C189 1.486 . S
C191 H195 0.960 . S
C191 H196 0.960 . S
C191 H197 0.959 . S
H192 C188 0.960 . S
H193 C188 0.961 . S
H194 C188 0.960 . S
H195 C191 0.960 . S
H196 C191 0.960 . S
H197 C191 0.959 . S
C198 C199 1.349 . S
C198 C200 1.327 . S
C198 H223 0.950 . S
C199 C198 1.349 . S
C199 C215 1.349 . S
C200 C198 1.327 . S
C200 C219 1.429 . S
C200 H224 0.950 . S
C201 C218 1.574 . S
C201 C220 1.368 . S
C201 H225 0.949 . S
H202 C206 0.949 . S
C203 C204 1.349 . S
C203 C205 1.327 . S
C203 H226 0.950 . S
C204 C203 1.349 . S
C204 C216 1.349 . S
C205 C203 1.327 . S
C205 C221 1.429 . S
C205 H227 0.950 . S
C206 H202 0.949 . S
C206 C214 1.574 . S
C206 C222 1.368 . S
H207 C215 0.950 . S
H208 C213 0.950 . S
H209 C214 0.949 . S
H210 C216 0.950 . S
H211 C217 0.950 . S
H212 C218 0.949 . S
C213 H208 0.950 . S
C213 C215 1.327 . S
C213 C219 1.429 . S
C214 C206 1.574 . S
C214 H209 0.949 . S
C214 C220 1.368 . S
C215 C199 1.349 . S
C215 H207 0.950 . S
C215 C213 1.327 . S
C216 C204 1.349 . S
C216 H210 0.950 . S
C216 C217 1.327 . S
C217 H211 0.950 . S
C217 C216 1.327 . S
C217 C221 1.429 . S
C218 C201 1.574 . S
C218 H212 0.949 . S
C218 C222 1.368 . S
C219 C200 1.429 . S
C219 C213 1.429 . S
C219 C220 1.523 . S
C220 C201 1.368 . S
C220 C214 1.368 . S
C220 C219 1.523 . S
C221 C205 1.429 . S
C221 C217 1.429 . S
C221 C222 1.523 . S
C222 C206 1.368 . S
C222 C218 1.368 . S
C222 C221 1.523 . S
H223 C198 0.950 . S
H224 C200 0.950 . S
H225 C201 0.949 . S
H226 C203 0.950 . S
H227 C205 0.950 . S
C228 C229 1.349 . S
C228 C230 1.327 . S
C228 H253 0.950 . S
C229 C228 1.349 . S
C229 C245 1.349 . S
C230 C228 1.327 . S
C230 C249 1.429 . S
C230 H254 0.950 . S
C231 C248 1.574 . S
C231 C250 1.368 . S
C231 H255 0.949 . S
H232 C236 0.949 . S
C233 C234 1.349 . S
C233 C235 1.327 . S
C233 H256 0.976 . S
C234 C233 1.349 . S
C234 C246 1.349 . S
C235 C233 1.327 . S
C235 C251 1.429 . S
C235 H257 0.950 . S
C236 H232 0.949 . S
C236 C244 1.574 . S
C236 C252 1.368 . S
H237 C245 0.950 . S
H238 C243 0.950 . S
H239 C244 0.949 . S
H240 C246 0.950 . S
H241 C247 0.950 . S
H242 C248 0.949 . S
C243 H238 0.950 . S
C243 C245 1.327 . S
C243 C249 1.429 . S
C244 C236 1.574 . S
C244 H239 0.949 . S
C244 C250 1.368 . S
C245 C229 1.349 . S
C245 H237 0.950 . S
C245 C243 1.327 . S
C246 C234 1.349 . S
C246 H240 0.950 . S
C246 C247 1.327 . S
C247 H241 0.950 . S
C247 C246 1.327 . S
C247 C251 1.429 . S
C248 C231 1.574 . S
C248 H242 0.949 . S
C248 C252 1.368 . S
C249 C230 1.429 . S
C249 C243 1.429 . S
C249 C250 1.523 . S
C250 C231 1.368 . S
C250 C244 1.368 . S
C250 C249 1.523 . S
C251 C235 1.429 . S
C251 C247 1.429 . S
C251 C252 1.523 . S
C252 C236 1.368 . S
C252 C248 1.368 . S
C252 C251 1.523 . S
H253 C228 0.950 . S
H254 C230 0.950 . S
H255 C231 0.949 . S
H256 C233 0.976 . S
H257 C235 0.950 . S
C258 C259 1.349 . S
C258 C260 1.327 . S
C258 H283 0.950 . S
C259 C258 1.349 . S
C259 C275 1.349 . S
C260 C258 1.327 . S
C260 C279 1.429 . S
C260 H284 0.950 . S
C261 C278 1.574 . S
C261 C280 1.368 . S
C261 H285 0.949 . S
H262 C266 0.949 . S
C263 C264 1.349 . S
C263 C265 1.327 . S
C263 H286 0.950 . S
C264 C263 1.349 . S
C264 C276 1.349 . S
C265 C263 1.327 . S
C265 C281 1.429 . S
C265 H287 0.950 . S
C266 H262 0.949 . S
C266 C274 1.574 . S
C266 C282 1.368 . S
H267 C275 0.950 . S
H268 C273 0.950 . S
H269 C274 0.949 . S
H270 C276 0.950 . S
H271 C277 0.950 . S
H272 C278 0.949 . S
C273 H268 0.950 . S
C273 C275 1.327 . S
C273 C279 1.429 . S
C274 C266 1.574 . S
C274 H269 0.949 . S
C274 C280 1.368 . S
C275 C259 1.349 . S
C275 H267 0.950 . S
C275 C273 1.327 . S
C276 C264 1.349 . S
C276 H270 0.950 . S
C276 C277 1.327 . S
C277 H271 0.950 . S
C277 C276 1.327 . S
C277 C281 1.429 . S
C278 C261 1.574 . S
C278 H272 0.949 . S
C278 C282 1.368 . S
C279 C260 1.429 . S
C279 C273 1.429 . S
C279 C280 1.523 . S
C280 C261 1.368 . S
C280 C274 1.368 . S
C280 C279 1.523 . S
C281 C265 1.429 . S
C281 C277 1.429 . S
C281 C282 1.523 . S
C282 C266 1.368 . S
C282 C278 1.368 . S
C282 C281 1.523 . S
H283 C258 0.950 . S
H284 C260 0.950 . S
H285 C261 0.949 . S
H286 C263 0.950 . S
H287 C265 0.950 . S
C288 C289 1.349 . S
C288 C290 1.327 . S
C288 H313 0.950 . S
C289 C288 1.349 . S
C289 C305 1.349 . S
C290 C288 1.327 . S
C290 C309 1.429 . S
C290 H314 0.950 . S
C291 C308 1.574 . S
C291 C310 1.368 . S
C291 H315 0.949 . S
H292 C296 0.949 . S
C293 C294 1.349 . S
C293 C295 1.327 . S
C293 H316 0.950 . S
C294 C293 1.349 . S
C294 C306 1.349 . S
C295 C293 1.327 . S
C295 C311 1.429 . S
C295 H317 0.950 . S
C296 H292 0.949 . S
C296 C304 1.574 . S
C296 C312 1.368 . S
H297 C305 0.950 . S
H298 C303 0.950 . S
H299 C304 0.949 . S
H300 C306 0.950 . S
H301 C307 0.950 . S
H302 C308 0.949 . S
C303 H298 0.950 . S
C303 C305 1.327 . S
C303 C309 1.429 . S
C304 C296 1.574 . S
C304 H299 0.949 . S
C304 C310 1.368 . S
C305 C289 1.349 . S
C305 H297 0.950 . S
C305 C303 1.327 . S
C306 C294 1.349 . S
C306 H300 0.950 . S
C306 C307 1.327 . S
C307 H301 0.950 . S
C307 C306 1.327 . S
C307 C311 1.429 . S
C308 C291 1.574 . S
C308 H302 0.949 . S
C308 C312 1.368 . S
C309 C290 1.429 . S
C309 C303 1.429 . S
C309 C310 1.523 . S
C310 C291 1.368 . S
C310 C304 1.368 . S
C310 C309 1.523 . S
C311 C295 1.429 . S
C311 C307 1.429 . S
C311 C312 1.523 . S
C312 C296 1.368 . S
C312 C308 1.368 . S
C312 C311 1.523 . S
H313 C288 0.950 . S
H314 C290 0.950 . S
H315 C291 0.949 . S
H316 C293 0.950 . S
H317 C295 0.950 . S
C318 C319 1.349 . S
C318 C320 1.327 . S
C318 H343 0.950 . S
C319 C318 1.349 . S
C319 C335 1.349 . S
C320 C318 1.327 . S
C320 C339 1.429 . S
C320 H344 0.950 . S
C321 C338 1.574 . S
C321 C340 1.368 . S
C321 H345 0.949 . S
H322 C326 0.949 . S
C323 C324 1.349 . S
C323 C325 1.327 . S
C323 H346 0.950 . S
C324 C323 1.349 . S
C324 C336 1.349 . S
C325 C323 1.327 . S
C325 C341 1.429 . S
C325 H347 0.950 . S
C326 H322 0.949 . S
C326 C334 1.574 . S
C326 C342 1.368 . S
H327 C335 0.950 . S
H328 C333 0.950 . S
H329 C334 0.949 . S
H330 C336 0.950 . S
H331 C337 0.950 . S
H332 C338 0.949 . S
C333 H328 0.950 . S
C333 C335 1.327 . S
C333 C339 1.429 . S
C334 C326 1.574 . S
C334 H329 0.949 . S
C334 C340 1.368 . S
C335 C319 1.349 . S
C335 H327 0.950 . S
C335 C333 1.327 . S
C336 C324 1.349 . S
C336 H330 0.950 . S
C336 C337 1.327 . S
C337 H331 0.950 . S
C337 C336 1.327 . S
C337 C341 1.429 . S
C338 C321 1.574 . S
C338 H332 0.949 . S
C338 C342 1.368 . S
C339 C320 1.429 . S
C339 C333 1.429 . S
C339 C340 1.523 . S
C340 C321 1.368 . S
C340 C334 1.368 . S
C340 C339 1.523 . S
C341 C325 1.429 . S
C341 C337 1.429 . S
C341 C342 1.523 . S
C342 C326 1.368 . S
C342 C338 1.368 . S
C342 C341 1.523 . S
H343 C318 0.950 . S
H344 C320 0.950 . S
H345 C321 0.949 . S
H346 C323 0.950 . S
H347 C325 0.950 . S
C348 C349 1.349 . S
C348 C350 1.327 . S
C348 H373 0.950 . S
C349 C348 1.349 . S
C349 C365 1.349 . S
C350 C348 1.327 . S
C350 C369 1.429 . S
C350 H374 0.950 . S
C351 C368 1.574 . S
C351 C370 1.368 . S
C351 H375 0.949 . S
H352 C356 0.949 . S
C353 C354 1.349 . S
C353 C355 1.327 . S
C353 H376 0.950 . S
C354 C353 1.349 . S
C354 C366 1.349 . S
C355 C353 1.327 . S
C355 C371 1.429 . S
C355 H377 0.950 . S
C356 H352 0.949 . S
C356 C364 1.574 . S
C356 C372 1.368 . S
H357 C365 0.950 . S
H358 C363 0.950 . S
H359 C364 0.949 . S
H360 C366 0.950 . S
H361 C367 0.950 . S
H362 C368 0.949 . S
C363 H358 0.950 . S
C363 C365 1.327 . S
C363 C369 1.429 . S
C364 C356 1.574 . S
C364 H359 0.949 . S
C364 C370 1.368 . S
C365 C349 1.349 . S
C365 H357 0.950 . S
C365 C363 1.327 . S
C366 C354 1.349 . S
C366 H360 0.950 . S
C366 C367 1.327 . S
C367 H361 0.950 . S
C367 C366 1.327 . S
C367 C371 1.429 . S
C368 C351 1.574 . S
C368 H362 0.949 . S
C368 C372 1.368 . S
C369 C350 1.429 . S
C369 C363 1.429 . S
C369 C370 1.523 . S
C370 C351 1.368 . S
C370 C364 1.368 . S
C370 C369 1.523 . S
C371 C355 1.429 . S
C371 C367 1.429 . S
C371 C372 1.523 . S
C372 C356 1.368 . S
C372 C368 1.368 . S
C372 C371 1.523 . S
H373 C348 0.950 . S
H374 C350 0.950 . S
H375 C351 0.949 . S
H376 C353 0.950 . S
H377 C355 0.950 . S
C378 C379 1.349 . S
C378 C380 1.327 . S
C378 H403 0.950 . S
C379 C378 1.349 . S
C379 C395 1.349 . S
C380 C378 1.327 . S
C380 C399 1.429 . S
C380 H404 0.950 . S
C381 C398 1.574 . S
C381 C400 1.368 . S
C381 H405 0.949 . S
H382 C386 0.949 . S
C383 C384 1.349 . S
C383 C385 1.327 . S
C383 H406 0.950 . S
C384 C383 1.349 . S
C384 C396 1.349 . S
C385 C383 1.327 . S
C385 C401 1.429 . S
C385 H407 0.950 . S
C386 H382 0.949 . S
C386 C394 1.574 . S
C386 C402 1.368 . S
H387 C395 0.950 . S
H388 C393 0.950 . S
H389 C394 0.949 . S
H390 C396 0.950 . S
H391 C397 0.950 . S
H392 C398 0.949 . S
C393 H388 0.950 . S
C393 C395 1.327 . S
C393 C399 1.429 . S
C394 C386 1.574 . S
C394 H389 0.949 . S
C394 C400 1.368 . S
C395 C379 1.349 . S
C395 H387 0.950 . S
C395 C393 1.327 . S
C396 C384 1.349 . S
C396 H390 0.950 . S
C396 C397 1.327 . S
C397 H391 0.950 . S
C397 C396 1.327 . S
C397 C401 1.429 . S
C398 C381 1.574 . S
C398 H392 0.949 . S
C398 C402 1.368 . S
C399 C380 1.429 . S
C399 C393 1.429 . S
C399 C400 1.523 . S
C400 C381 1.368 . S
C400 C394 1.368 . S
C400 C399 1.523 . S
C401 C385 1.429 . S
C401 C397 1.429 . S
C401 C402 1.523 . S
C402 C386 1.368 . S
C402 C398 1.368 . S
C402 C401 1.523 . S
H403 C378 0.950 . S
H404 C380 0.950 . S
H405 C381 0.949 . S
H406 C383 0.950 . S
H407 C385 0.950 . S
C408 C409 1.349 . S
C408 C410 1.327 . S
C408 H433 0.950 . S
C409 C408 1.349 . S
C409 C425 1.349 . S
C410 C408 1.327 . S
C410 C429 1.429 . S
C410 H434 0.950 . S
C411 C428 1.574 . S
C411 C430 1.368 . S
C411 H435 0.949 . S
H412 C416 0.949 . S
C413 C414 1.349 . S
C413 C415 1.327 . S
C413 H436 0.950 . S
C414 C413 1.349 . S
C414 C426 1.349 . S
C415 C413 1.327 . S
C415 C431 1.429 . S
C415 H437 0.950 . S
C416 H412 0.949 . S
C416 C424 1.574 . S
C416 C432 1.368 . S
H417 C425 0.950 . S
H418 C423 0.950 . S
H419 C424 0.949 . S
H420 C426 0.950 . S
H421 C427 0.950 . S
H422 C428 0.949 . S
C423 H418 0.950 . S
C423 C425 1.327 . S
C423 C429 1.429 . S
C424 C416 1.574 . S
C424 H419 0.949 . S
C424 C430 1.368 . S
C425 C409 1.349 . S
C425 H417 0.950 . S
C425 C423 1.327 . S
C426 C414 1.349 . S
C426 H420 0.950 . S
C426 C427 1.327 . S
C427 H421 0.950 . S
C427 C426 1.327 . S
C427 C431 1.429 . S
C428 C411 1.574 . S
C428 H422 0.949 . S
C428 C432 1.368 . S
C429 C410 1.429 . S
C429 C423 1.429 . S
C429 C430 1.523 . S
C430 C411 1.368 . S
C430 C424 1.368 . S
C430 C429 1.523 . S
C431 C415 1.429 . S
C431 C427 1.429 . S
C431 C432 1.523 . S
C432 C416 1.368 . S
C432 C428 1.368 . S
C432 C431 1.523 . S
H433 C408 0.950 . S
H434 C410 0.950 . S
H435 C411 0.949 . S
H436 C413 0.950 . S
H437 C415 0.950 . S
C438 C439 1.349 . S
C438 C440 1.327 . S
C438 H463 0.950 . S
C439 C438 1.349 . S
C439 C455 1.349 . S
C440 C438 1.327 . S
C440 C459 1.429 . S
C440 H464 0.950 . S
C441 C458 1.574 . S
C441 C460 1.368 . S
C441 H465 0.949 . S
H442 C446 0.949 . S
C443 C444 1.349 . S
C443 C445 1.327 . S
C443 H466 0.950 . S
C444 C443 1.349 . S
C444 C456 1.349 . S
C445 C443 1.327 . S
C445 C461 1.429 . S
C445 H467 0.950 . S
C446 H442 0.949 . S
C446 C454 1.574 . S
C446 C462 1.368 . S
H447 C455 0.950 . S
H448 C453 0.950 . S
H449 C454 0.949 . S
H450 C456 0.950 . S
H451 C457 0.950 . S
H452 C458 0.949 . S
C453 H448 0.950 . S
C453 C455 1.327 . S
C453 C459 1.429 . S
C454 C446 1.574 . S
C454 H449 0.949 . S
C454 C460 1.368 . S
C455 C439 1.349 . S
C455 H447 0.950 . S
C455 C453 1.327 . S
C456 C444 1.349 . S
C456 H450 0.950 . S
C456 C457 1.327 . S
C457 H451 0.950 . S
C457 C456 1.327 . S
C457 C461 1.429 . S
C458 C441 1.574 . S
C458 H452 0.949 . S
C458 C462 1.368 . S
C459 C440 1.429 . S
C459 C453 1.429 . S
C459 C460 1.523 . S
C460 C441 1.368 . S
C460 C454 1.368 . S
C460 C459 1.523 . S
C461 C445 1.429 . S
C461 C457 1.429 . S
C461 C462 1.523 . S
C462 C446 1.368 . S
C462 C458 1.368 . S
C462 C461 1.523 . S
H463 C438 0.950 . S
H464 C440 0.950 . S
H465 C441 0.949 . S
H466 C443 0.950 . S
H467 C445 0.950 . S
C468 C469 1.349 . S
C468 C470 1.327 . S
C468 H493 0.950 . S
C469 C468 1.349 . S
C469 C485 1.349 . S
C470 C468 1.327 . S
C470 C489 1.429 . S
C470 H494 0.950 . S
C471 C488 1.574 . S
C471 C490 1.368 . S
C471 H495 0.949 . S
H472 C476 0.949 . S
C473 C474 1.349 . S
C473 C475 1.327 . S
C473 H496 0.950 . S
C474 C473 1.349 . S
C474 C486 1.349 . S
C475 C473 1.327 . S
C475 C491 1.429 . S
C475 H497 0.950 . S
C476 H472 0.949 . S
C476 C484 1.574 . S
C476 C492 1.368 . S
H477 C485 0.950 . S
H478 C483 0.950 . S
H479 C484 0.949 . S
H480 C486 0.950 . S
H481 C487 0.950 . S
H482 C488 0.949 . S
C483 H478 0.950 . S
C483 C485 1.327 . S
C483 C489 1.429 . S
C484 C476 1.574 . S
C484 H479 0.949 . S
C484 C490 1.368 . S
C485 C469 1.349 . S
C485 H477 0.950 . S
C485 C483 1.327 . S
C486 C474 1.349 . S
C486 H480 0.950 . S
C486 C487 1.327 . S
C487 H481 0.950 . S
C487 C486 1.327 . S
C487 C491 1.429 . S
C488 C471 1.574 . S
C488 H482 0.949 . S
C488 C492 1.368 . S
C489 C470 1.429 . S
C489 C483 1.429 . S
C489 C490 1.523 . S
C490 C471 1.368 . S
C490 C484 1.368 . S
C490 C489 1.523 . S
C491 C475 1.429 . S
C491 C487 1.429 . S
C491 C492 1.523 . S
C492 C476 1.368 . S
C492 C488 1.368 . S
C492 C491 1.523 . S
H493 C468 0.950 . S
H494 C470 0.950 . S
H495 C471 0.949 . S
H496 C473 0.950 . S
H497 C475 0.950 . S
C498 C499 1.349 . S
C498 C500 1.327 . S
C498 H523 0.950 . S
C499 C498 1.349 . S
C499 C515 1.349 . S
C500 C498 1.327 . S
C500 C519 1.429 . S
C500 H524 0.950 . S
C501 C518 1.574 . S
C501 C520 1.368 . S
C501 H525 0.949 . S
H502 C506 0.949 . S
C503 C504 1.349 . S
C503 C505 1.327 . S
C503 H526 0.950 . S
C504 C503 1.349 . S
C504 C516 1.349 . S
C505 C503 1.327 . S
C505 C521 1.429 . S
C505 H527 0.950 . S
C506 H502 0.949 . S
C506 C514 1.574 . S
C506 C522 1.368 . S
H507 C515 0.950 . S
H508 C513 0.950 . S
H509 C514 0.949 . S
H510 C516 0.950 . S
H511 C517 0.950 . S
H512 C518 0.949 . S
C513 H508 0.950 . S
C513 C515 1.327 . S
C513 C519 1.429 . S
C514 C506 1.574 . S
C514 H509 0.949 . S
C514 C520 1.368 . S
C515 C499 1.349 . S
C515 H507 0.950 . S
C515 C513 1.327 . S
C516 C504 1.349 . S
C516 H510 0.950 . S
C516 C517 1.327 . S
C517 H511 0.950 . S
C517 C516 1.327 . S
C517 C521 1.429 . S
C518 C501 1.574 . S
C518 H512 0.949 . S
C518 C522 1.368 . S
C519 C500 1.429 . S
C519 C513 1.429 . S
C519 C520 1.523 . S
C520 C501 1.368 . S
C520 C514 1.368 . S
C520 C519 1.523 . S
C521 C505 1.429 . S
C521 C517 1.429 . S
C521 C522 1.523 . S
C522 C506 1.368 . S
C522 C518 1.368 . S
C522 C521 1.523 . S
H523 C498 0.950 . S
H524 C500 0.950 . S
H525 C501 0.949 . S
H526 C503 0.950 . S
H527 C505 0.950 . S
C528 C529 1.349 . S
C528 C530 1.327 . S
C528 H553 0.950 . S
C529 C528 1.349 . S
C529 C545 1.349 . S
C530 C528 1.327 . S
C530 C549 1.429 . S
C530 H554 0.950 . S
C531 C548 1.574 . S
C531 C550 1.368 . S
C531 H555 0.949 . S
H532 C536 0.949 . S
C533 C534 1.349 . S
C533 C535 1.327 . S
C533 H556 0.950 . S
C534 C533 1.349 . S
C534 C546 1.349 . S
C535 C533 1.327 . S
C535 C551 1.429 . S
C535 H557 0.950 . S
C536 H532 0.949 . S
C536 C544 1.574 . S
C536 C552 1.368 . S
H537 C545 0.950 . S
H538 C543 0.950 . S
H539 C544 0.949 . S
H540 C546 0.950 . S
H541 C547 0.950 . S
H542 C548 0.949 . S
C543 H538 0.950 . S
C543 C545 1.327 . S
C543 C549 1.429 . S
C544 C536 1.574 . S
C544 H539 0.949 . S
C544 C550 1.368 . S
C545 C529 1.349 . S
C545 H537 0.950 . S
C545 C543 1.327 . S
C546 C534 1.349 . S
C546 H540 0.950 . S
C546 C547 1.327 . S
C547 H541 0.950 . S
C547 C546 1.327 . S
C547 C551 1.429 . S
C548 C531 1.574 . S
C548 H542 0.949 . S
C548 C552 1.368 . S
C549 C530 1.429 . S
C549 C543 1.429 . S
C549 C550 1.523 . S
C550 C531 1.368 . S
C550 C544 1.368 . S
C550 C549 1.523 . S
C551 C535 1.429 . S
C551 C547 1.429 . S
C551 C552 1.523 . S
C552 C536 1.368 . S
C552 C548 1.368 . S
C552 C551 1.523 . S
H553 C528 0.950 . S
H554 C530 0.950 . S
H555 C531 0.949 . S
H556 C533 0.950 . S
H557 C535 0.950 . S
C558 C559 1.349 . S
C558 C560 1.327 . S
C558 H583 0.950 . S
C559 C558 1.349 . S
C559 C575 1.349 1_455 S
C560 C558 1.327 . S
C560 C579 1.429 . S
C560 H584 0.950 . S
C561 C578 1.574 1_554 S
C561 C580 1.368 1_655 S
C561 H585 0.949 . S
H562 C566 0.950 1_556 S
C563 C564 1.349 1_655 S
C563 C565 1.327 . S
C563 H586 0.950 . S
C564 C563 1.349 1_455 S
C564 C576 1.349 . S
C565 C563 1.327 . S
C565 C581 1.429 1_655 S
C565 H587 0.950 . S
C566 H562 0.950 1_554 S
C566 C574 1.571 . S
C566 C582 1.370 1_554 S
H567 C575 0.950 . S
H568 C573 0.950 . S
H569 C574 0.949 . S
H570 C576 0.950 . S
H571 C577 0.950 . S
H572 C578 0.949 . S
C573 H568 0.950 . S
C573 C575 1.327 . S
C573 C579 1.429 1_655 S
C574 C566 1.571 . S
C574 H569 0.949 . S
C574 C580 1.368 . S
C575 C559 1.349 1_655 S
C575 H567 0.950 . S
C575 C573 1.327 . S
C576 C564 1.349 . S
C576 H570 0.950 . S
C576 C577 1.327 . S
C577 H571 0.950 . S
C577 C576 1.327 . S
C577 C581 1.429 . S
C578 C561 1.574 1_556 S
C578 H572 0.949 . S
C578 C582 1.368 1_655 S
C579 C560 1.429 . S
C579 C573 1.429 1_455 S
C579 C580 1.523 . S
C580 C561 1.368 1_455 S
C580 C574 1.368 . S
C580 C579 1.523 . S
C581 C565 1.429 1_455 S
C581 C577 1.429 . S
C581 C582 1.523 . S
C582 C566 1.370 1_556 S
C582 C578 1.368 1_455 S
C582 C581 1.523 . S
H583 C558 0.950 . S
H584 C560 0.950 . S
H585 C561 0.949 . S
H586 C563 0.950 . S
H587 C565 0.950 . S
C588 C589 1.349 1_565 S
C588 C590 1.327 . S
C588 H613 0.950 . S
C589 C588 1.349 1_545 S
C589 C605 1.349 . S
C590 C588 1.327 . S
C590 C609 1.429 1_565 S
C590 H614 0.950 . S
C591 C608 1.574 . S
C591 C610 1.368 . S
C591 H615 0.949 . S
H592 C596 0.949 . S
C593 C594 1.349 . S
C593 C595 1.327 . S
C593 H616 0.950 . S
C594 C593 1.349 . S
C594 C606 1.349 1_545 S
C595 C593 1.327 . S
C595 C611 1.429 . S
C595 H617 0.950 . S
C596 H592 0.949 . S
C596 C604 1.574 . S
C596 C612 1.368 1_565 S
H597 C605 0.950 . S
H598 C603 0.950 . S
H599 C604 0.949 . S
H600 C606 0.950 . S
H601 C607 0.950 . S
H602 C608 0.949 . S
C603 H598 0.950 . S
C603 C605 1.327 . S
C603 C609 1.429 . S
C604 C596 1.574 . S
C604 H599 0.949 . S
C604 C610 1.368 1_565 S
C605 C589 1.349 . S
C605 H597 0.950 . S
C605 C603 1.327 . S
C606 C594 1.349 1_565 S
C606 H600 0.950 . S
C606 C607 1.327 . S
C607 H601 0.950 . S
C607 C606 1.327 . S
C607 C611 1.429 1_565 S
C608 C591 1.574 . S
C608 H602 0.949 . S
C608 C612 1.368 . S
C609 C590 1.429 1_545 S
C609 C603 1.429 . S
C609 C610 1.523 . S
C610 C591 1.368 . S
C610 C604 1.368 1_545 S
C610 C609 1.523 . S
C611 C595 1.429 . S
C611 C607 1.429 1_545 S
C611 C612 1.523 . S
C612 C596 1.368 1_545 S
C612 C608 1.368 . S
C612 C611 1.523 . S
H613 C588 0.950 . S
H614 C590 0.950 . S
H615 C591 0.949 . S
H616 C593 0.950 . S
H617 C595 0.950 . S
C618 C619 1.349 . S
C618 C620 1.327 . S
C618 H643 0.950 . S
C619 C618 1.349 . S
C619 C635 1.349 . S
C620 C618 1.327 . S
C620 C639 1.429 . S
C620 H644 0.950 . S
C621 C638 1.574 . S
C621 C640 1.368 . S
C621 H645 0.949 . S
H622 C626 0.949 . S
C623 C624 1.349 . S
C623 C625 1.327 . S
C623 H646 0.950 . S
C624 C623 1.349 . S
C624 C636 1.349 . S
C625 C623 1.327 . S
C625 C641 1.429 . S
C625 H647 0.950 . S
C626 H622 0.949 . S
C626 C634 1.574 . S
C626 C642 1.368 . S
H627 C635 0.950 . S
H628 C633 0.950 . S
H629 C634 0.949 . S
H630 C636 0.950 . S
H631 C637 0.950 . S
H632 C638 0.949 . S
C633 H628 0.950 . S
C633 C635 1.327 . S
C633 C639 1.429 . S
C634 C626 1.574 . S
C634 H629 0.949 . S
C634 C640 1.368 . S
C635 C619 1.349 . S
C635 H627 0.950 . S
C635 C633 1.327 . S
C636 C624 1.349 . S
C636 H630 0.950 . S
C636 C637 1.327 . S
C637 H631 0.950 . S
C637 C636 1.327 . S
C637 C641 1.429 . S
C638 C621 1.574 . S
C638 H632 0.949 . S
C638 C642 1.368 . S
C639 C620 1.429 . S
C639 C633 1.429 . S
C639 C640 1.523 . S
C640 C621 1.368 . S
C640 C634 1.368 . S
C640 C639 1.523 . S
C641 C625 1.429 . S
C641 C637 1.429 . S
C641 C642 1.523 . S
C642 C626 1.368 . S
C642 C638 1.368 . S
C642 C641 1.523 . S
H643 C618 0.950 . S
H644 C620 0.950 . S
H645 C621 0.949 . S
H646 C623 0.950 . S
H647 C625 0.950 . S
C648 C649 1.349 1_565 S
C648 C650 1.327 . S
C648 H673 0.950 . S
C649 C648 1.349 1_545 S
C649 C665 1.349 . S
C650 C648 1.327 . S
C650 C669 1.429 1_565 S
C650 H674 0.950 . S
C651 C668 1.574 . S
C651 C670 1.368 . S
C651 H675 0.949 . S
H652 C656 0.949 . S
C653 C654 1.349 . S
C653 C655 1.327 . S
C653 H676 0.950 . S
C654 C653 1.349 . S
C654 C666 1.349 . S
C655 C653 1.327 . S
C655 C671 1.429 . S
C655 H677 0.950 . S
C656 H652 0.949 . S
C656 C664 1.574 . S
C656 C672 1.368 1_565 S
H657 C665 0.950 . S
H658 C663 0.950 . S
H659 C664 0.949 . S
H660 C666 0.950 1_565 S
H661 C667 0.950 1_565 S
H662 C668 0.949 . S
C663 H658 0.950 . S
C663 C665 1.327 . S
C663 C669 1.429 . S
C664 C656 1.574 . S
C664 H659 0.949 . S
C664 C670 1.368 1_565 S
C665 C649 1.349 . S
C665 H657 0.950 . S
C665 C663 1.327 . S
C666 C654 1.349 . S
C666 H660 0.950 1_545 S
C666 C667 1.327 . S
C667 H661 0.950 1_545 S
C667 C666 1.327 . S
C667 C671 1.429 . S
C668 C651 1.574 . S
C668 H662 0.949 . S
C668 C672 1.368 . S
C669 C650 1.429 1_545 S
C669 C663 1.429 . S
C669 C670 1.523 . S
C670 C651 1.368 . S
C670 C664 1.368 1_545 S
C670 C669 1.523 . S
C671 C655 1.429 . S
C671 C667 1.429 . S
C671 C672 1.523 . S
C672 C656 1.368 1_545 S
C672 C668 1.368 . S
C672 C671 1.523 . S
H673 C648 0.950 . S
H674 C650 0.950 . S
H675 C651 0.949 . S
H676 C653 0.950 . S
H677 C655 0.950 . S
C678 C679 1.349 . S
C678 C680 1.327 . S
C678 H703 0.950 . S
C679 C678 1.349 . S
C679 C695 1.349 . S
C680 C678 1.327 . S
C680 C699 1.429 . S
C680 H704 0.950 . S
C681 C698 1.564 1_556 S
C681 C700 1.368 . S
C681 H705 0.949 . S
H682 C686 0.949 . S
C683 C684 1.349 . S
C683 C685 1.327 . S
C683 H706 0.950 . S
C684 C683 1.349 . S
C684 C696 1.349 . S
C685 C683 1.327 . S
C685 C701 1.429 . S
C685 H707 0.950 . S
C686 H682 0.949 . S
C686 C694 1.574 1_554 S
C686 C702 1.368 . S
H687 C695 0.950 . S
H688 C693 0.950 . S
H689 C694 0.949 . S
H690 C696 0.950 . S
H691 C697 0.950 . S
H692 C698 0.953 . S
C693 H688 0.950 . S
C693 C695 1.327 . S
C693 C699 1.429 . S
C694 C686 1.574 1_556 S
C694 H689 0.949 . S
C694 C700 1.368 . S
C695 C679 1.349 . S
C695 H687 0.950 . S
C695 C693 1.327 . S
C696 C684 1.349 . S
C696 H690 0.950 . S
C696 C697 1.327 . S
C697 H691 0.950 . S
C697 C696 1.327 . S
C697 C701 1.429 . S
C698 C681 1.564 1_554 S
C698 H692 0.953 . S
C698 C702 1.373 . S
C699 C680 1.429 . S
C699 C693 1.429 . S
C699 C700 1.523 . S
C700 C681 1.368 . S
C700 C694 1.368 . S
C700 C699 1.523 . S
C701 C685 1.429 . S
C701 C697 1.429 . S
C701 C702 1.523 . S
C702 C686 1.368 . S
C702 C698 1.373 . S
C702 C701 1.523 . S
H703 C678 0.950 . S
H704 C680 0.950 . S
H705 C681 0.949 . S
H706 C683 0.950 . S
H707 C685 0.950 . S
C708 C709 1.349 1_455 S
C708 C710 1.327 . S
C708 H733 0.950 . S
C709 C708 1.349 1_655 S
C709 C725 1.349 . S
C710 C708 1.327 . S
C710 C729 1.429 1_455 S
C710 H734 0.950 . S
C711 C728 1.574 . S
C711 C730 1.368 . S
C711 H735 0.949 . S
H712 C716 0.949 . S
C713 C714 1.349 1_655 S
C713 C715 1.327 . S
C713 H736 0.950 . S
C714 C713 1.349 1_455 S
C714 C726 1.349 . S
C715 C713 1.327 . S
C715 C731 1.429 1_655 S
C715 H737 0.950 . S
C716 H712 0.949 . S
C716 C724 1.574 . S
C716 C732 1.368 . S
H717 C725 0.950 . S
H718 C723 0.950 . S
H719 C724 0.949 . S
H720 C726 0.950 . S
H721 C727 0.950 . S
H722 C728 0.949 . S
C723 H718 0.950 . S
C723 C725 1.327 . S
C723 C729 1.429 . S
C724 C716 1.574 . S
C724 H719 0.949 . S
C724 C730 1.368 1_455 S
C725 C709 1.349 . S
C725 H717 0.950 . S
C725 C723 1.327 . S
C726 C714 1.349 . S
C726 H720 0.950 . S
C726 C727 1.327 . S
C727 H721 0.950 . S
C727 C726 1.327 . S
C727 C731 1.429 . S
C728 C711 1.574 . S
C728 H722 0.949 . S
C728 C732 1.368 1_655 S
C729 C710 1.429 1_655 S
C729 C723 1.429 . S
C729 C730 1.523 . S
C730 C711 1.368 . S
C730 C724 1.368 1_655 S
C730 C729 1.523 . S
C731 C715 1.429 1_455 S
C731 C727 1.429 . S
C731 C732 1.523 . S
C732 C716 1.368 . S
C732 C728 1.368 1_455 S
C732 C731 1.523 . S
H733 C708 0.950 . S
H734 C710 0.950 . S
H735 C711 0.949 . S
H736 C713 0.950 . S
H737 C715 0.950 . S
C199 C10 2.743 . S
C204 N187 2.698 . S
C229 C55 1.033 . S
C234 N160 1.010 1_655 S
C259 C90 1.759 . S
C264 N173 1.769 1_565 S
C289 C19 3.247 . S
C294 N186 3.295 . S
C324 N161 1.381 . S
C319 C46 1.360 . S
C354 N174 2.006 . S
C349 C99 1.991 . S
C379 C50 1.763 . S
C384 N134 1.764 . S
C409 C95 0.272 . S
C414 N148 0.261 . S
C439 C6 1.318 . S
C444 N122 1.324 . S
C474 N135 1.989 . S
C469 C59 1.980 . S
C504 N147 0.618 . S
C499 C86 0.640 . S
C529 C15 1.096 . S
C534 N121 1.095 . S
C564 N151 1.309 . S
C559 C18 1.310 . S
C589 C49 1.478 . S
C594 N125 1.544 . S
C619 C98 1.457 . S
C624 N138 1.485 . S
C654 N177 1.491 . S
C649 C58 1.473 . S
C684 N190 1.727 . S
C679 C89 1.700 . S
C709 C9 1.508 . S
C714 N164 1.589 . S
