# Generated by pormake.
# Topology zzz, (3,6)-cn, num edge types: 1
# Building blocks:
#     Node 0, Type 0, BuildingBlock: BETDAH_clean_linker_0, # of connection points: 3
#     Node 1, Type 0, BuildingBlock: BETDAH_clean_linker_0, # of connection points: 3
#     Node 2, Type 0, BuildingBlock: BETDAH_clean_linker_0, # of connection points: 3
#     Node 3, Type 0, BuildingBlock: BETDAH_clean_linker_0, # of connection points: 3
#     Node 4, Type 0, BuildingBlock: BETDAH_clean_linker_0, # of connection points: 3
#     Node 5, Type 0, BuildingBlock: BETDAH_clean_linker_0, # of connection points: 3
#     Node 6, Type 0, BuildingBlock: BETDAH_clean_linker_0, # of connection points: 3
#     Node 7, Type 0, BuildingBlock: BETDAH_clean_linker_0, # of connection points: 3
#     Node 8, Type 1, BuildingBlock: BETDIP_clean_sbu_0, # of connection points: 6
#     Node 9, Type 1, BuildingBlock: BETDIP_clean_sbu_0, # of connection points: 6
#     Node 10, Type 1, BuildingBlock: BETDIP_clean_sbu_0, # of connection points: 6
#     Node 11, Type 1, BuildingBlock: BETDIP_clean_sbu_0, # of connection points: 6
#     Edge 12, Type (0, 1), BuildingBlock: AJUNOK_clean_linker_0, # of connection points: 2
#     Edge 13, Type (0, 1), BuildingBlock: AJUNOK_clean_linker_0, # of connection points: 2
#     Edge 14, Type (0, 1), BuildingBlock: AJUNOK_clean_linker_0, # of connection points: 2
#     Edge 15, Type (0, 1), BuildingBlock: AJUNOK_clean_linker_0, # of connection points: 2
#     Edge 16, Type (0, 1), BuildingBlock: AJUNOK_clean_linker_0, # of connection points: 2
#     Edge 17, Type (0, 1), BuildingBlock: AJUNOK_clean_linker_0, # of connection points: 2
#     Edge 18, Type (0, 1), BuildingBlock: AJUNOK_clean_linker_0, # of connection points: 2
#     Edge 19, Type (0, 1), BuildingBlock: AJUNOK_clean_linker_0, # of connection points: 2
#     Edge 20, Type (0, 1), BuildingBlock: AJUNOK_clean_linker_0, # of connection points: 2
#     Edge 21, Type (0, 1), BuildingBlock: AJUNOK_clean_linker_0, # of connection points: 2
#     Edge 22, Type (0, 1), BuildingBlock: AJUNOK_clean_linker_0, # of connection points: 2
#     Edge 23, Type (0, 1), BuildingBlock: AJUNOK_clean_linker_0, # of connection points: 2
#     Edge 24, Type (0, 1), BuildingBlock: AJUNOK_clean_linker_0, # of connection points: 2
#     Edge 25, Type (0, 1), BuildingBlock: AJUNOK_clean_linker_0, # of connection points: 2
#     Edge 26, Type (0, 1), BuildingBlock: AJUNOK_clean_linker_0, # of connection points: 2
#     Edge 27, Type (0, 1), BuildingBlock: AJUNOK_clean_linker_0, # of connection points: 2
#     Edge 28, Type (0, 1), BuildingBlock: AJUNOK_clean_linker_0, # of connection points: 2
#     Edge 29, Type (0, 1), BuildingBlock: AJUNOK_clean_linker_0, # of connection points: 2
#     Edge 30, Type (0, 1), BuildingBlock: AJUNOK_clean_linker_0, # of connection points: 2
#     Edge 31, Type (0, 1), BuildingBlock: AJUNOK_clean_linker_0, # of connection points: 2
#     Edge 32, Type (0, 1), BuildingBlock: AJUNOK_clean_linker_0, # of connection points: 2
#     Edge 33, Type (0, 1), BuildingBlock: AJUNOK_clean_linker_0, # of connection points: 2
#     Edge 34, Type (0, 1), BuildingBlock: AJUNOK_clean_linker_0, # of connection points: 2
#     Edge 35, Type (0, 1), BuildingBlock: AJUNOK_clean_linker_0, # of connection points: 2
# Relax obj value: 0.359
# Max RMSD: 0.190
# Mean RMSD: 0.149
data_MOF--net-zzz--node1-BETDIP_clean_sbu_0--node2-BETDAH_clean_linker_0--edge1-AJUNOK_clean_linker_0
_symmetry_space_group_name_H-M    P1
_symmetry_Int_Tables_number       1
_symmetry_cell_setting            triclinic
loop_
_symmetry_equiv_pos_as_xyz
'x, y, z'
_cell_length_a     37.760779
_cell_length_b     37.7654
_cell_length_c     10.406488
_cell_angle_alpha  89.787215
_cell_angle_beta   89.749596
_cell_angle_gamma 90.160193
loop_
_atom_site_label
_atom_site_type_symbol
_atom_site_fract_x
_atom_site_fract_y
_atom_site_fract_z
_atom_type_partial_charge
H0 H 0.84019 0.47785 0.46707 0.0
H1 H 0.7365 0.49553 0.31192 0.0
H2 H 0.78676 0.57552 0.54555 0.0
C3 C 0.81645 0.4939 0.46152 0.0
C4 C 0.81685 0.52722 0.51928 0.0
C5 C 0.78798 0.4826 0.38503 0.0
C6 C 0.75808 0.50423 0.37244 0.0
C7 C 0.75706 0.5378 0.43042 0.0
C8 C 0.78684 0.54936 0.50325 0.0
N9 N 0.72728 0.56076 0.41228 0.0
C10 C 0.6988 0.55447 0.32817 0.0
H11 H 0.10282 0.84967 0.47461 0.0
H12 H 0.08128 0.74673 0.32074 0.0
H13 H 1.00528 0.79765 0.57113 0.0
C14 C 0.08646 0.82605 0.4731 0.0
C15 C 0.0542 0.82672 0.53953 0.0
C16 C 0.09689 0.79718 0.39693 0.0
C17 C 0.07374 0.76838 0.38301 0.0
C18 C 0.04043 0.76827 0.44439 0.0
C19 C 0.03085 0.79753 0.52359 0.0
N20 N 1.01601 0.73963 0.42554 0.0
C21 C 1.01965 0.71266 0.33327 0.0
H22 H 0.71022 0.9814 0.28179 0.0
H23 H 0.82199 0.98888 0.23491 0.0
H24 H 0.77315 1.02387 0.58897 0.0
C25 C 0.7358 0.98683 0.32416 0.0
C26 C 0.73688 1.00114 0.44841 0.0
C27 C 0.76644 0.98199 0.24867 0.0
C28 C 0.79914 0.99189 0.29655 0.0
C29 C 0.80222 1.00772 0.41738 0.0
C30 C 0.7709 1.01205 0.49476 0.0
N31 N 0.83636 1.02033 0.4578 0.0
C32 C 0.86694 1.01975 0.37855 0.0
H33 H 0.46594 0.71991 0.42011 0.0
H34 H 0.48425 0.8207 0.24345 0.0
H35 H 0.56131 0.77677 0.50649 0.0
C36 C 0.48167 0.74394 0.41387 0.0
C37 C 0.51363 0.74552 0.48074 0.0
C38 C 0.47032 0.7713 0.33288 0.0
C39 C 0.49247 0.8005 0.31109 0.0
C40 C 0.52559 0.80275 0.37269 0.0
C41 C 0.53598 0.77517 0.45846 0.0
N42 N 0.54902 0.83188 0.3479 0.0
C43 C 0.54316 0.85864 0.25625 0.0
H44 H 0.21962 0.60589 0.2013 0.0
H45 H 0.32286 0.58529 0.35341 0.0
H46 H 0.27327 0.50998 0.09856 0.0
C47 C 0.24329 0.58963 0.20313 0.0
C48 C 0.24278 0.55723 0.13881 0.0
C49 C 0.27198 0.59989 0.28009 0.0
C50 C 0.30158 0.5778 0.2899 0.0
C51 C 0.30288 0.54557 0.22245 0.0
C52 C 0.2732 0.53538 0.14656 0.0
N53 N 0.33271 0.52237 0.23387 0.0
C54 C 0.36172 0.52692 0.317 0.0
H55 H 0.97216 0.2275 0.24019 0.0
H56 H 0.9933 0.33093 0.39007 0.0
H57 H 0.06547 0.28354 0.11676 0.0
C58 C 0.98806 0.25149 0.2387 0.0
C59 C 1.01914 0.252 0.16521 0.0
C60 C 0.97887 0.27958 0.32029 0.0
C61 C 1.00035 0.30977 0.3249 0.0
C62 C 0.03156 0.31183 0.2509 0.0
C63 C 0.04108 0.28256 0.17177 0.0
N64 N 0.05416 0.3423 0.25831 0.0
C65 C 0.04913 0.37087 0.34294 0.0
H66 H 0.33156 0.97597 0.16686 0.0
H67 H 0.231 1.00038 0.33453 0.0
H68 H 0.28676 0.07893 0.10525 0.0
C69 C 0.30954 0.99416 0.17631 0.0
C70 C 0.31253 1.02774 0.11999 0.0
C71 C 0.27992 0.9838 0.24929 0.0
C72 C 0.25303 1.00824 0.27369 0.0
C73 C 0.25518 0.04286 0.22348 0.0
C74 C 0.28505 0.05249 0.14544 0.0
N75 N 0.22802 0.0682 0.25177 0.0
C76 C 0.19989 0.06275 0.33935 0.0
H77 H 0.5938 0.34473 0.17314 0.0
H78 H 0.57148 0.24073 0.3194 0.0
H79 H 0.50039 0.29047 0.0485 0.0
C80 C 0.57803 0.3207 0.17006 0.0
C81 C 0.54736 0.32077 0.09567 0.0
C82 C 0.5873 0.29193 0.24879 0.0
C83 C 0.56489 0.26231 0.25505 0.0
C84 C 0.53343 0.26134 0.1828 0.0
C85 C 0.52473 0.29081 0.10314 0.0
N86 N 0.50981 0.23167 0.19116 0.0
C87 C 0.51305 0.20308 0.27728 0.0
Tb88 Tb 0.06085 0.03126 0.95334 0.0
Tb89 Tb 1.00876 0.04503 0.7724 0.0
C90 C 0.09891 1.00268 0.12184 0.0
C91 C 0.11309 0.96643 0.13267 0.0
C92 C 0.08999 0.93733 0.13424 0.0
C93 C 0.1032 0.9031 0.13942 0.0
C94 C 0.13994 0.8968 0.14177 0.0
C95 C 0.16325 0.92586 0.13946 0.0
C96 C 0.14988 0.96048 0.13484 0.0
C97 C 0.08951 0.05483 0.73544 0.0
C98 C 0.03457 0.96781 0.76966 0.0
C99 C 0.97007 0.07162 0.60154 0.0
C100 C 0.95193 0.10575 0.58914 0.0
C101 C 0.95224 0.12273 0.46975 0.0
C102 C 0.93931 0.15699 0.45771 0.0
C103 C 0.92659 0.17538 0.56582 0.0
C104 C 0.92511 0.15797 0.68513 0.0
C105 C 0.93761 0.12322 0.69667 0.0
C106 C 0.98091 1.02169 0.9931 0.0
C107 C 0.03649 0.10931 0.94962 0.0
O108 O 0.06455 1.00622 0.1329 0.0
O109 O 0.11164 1.02155 0.02725 0.0
O110 O 0.06406 0.03282 0.74527 0.0
O111 O 0.0985 0.06439 0.84986 0.0
O112 O 0.04945 0.97721 0.87955 0.0
O113 O 1.01921 0.9921 0.69823 0.0
O114 O 1.00462 0.07336 0.59947 0.0
O115 O 0.95834 0.05023 0.69076 0.0
O116 O 1.0057 0.04428 0.98067 0.0
O117 O 0.97229 1.01099 0.87971 0.0
O118 O 1.01933 0.09941 0.84477 0.0
O119 O 0.05281 0.08533 0.01987 0.0
H120 H 0.06154 0.94082 0.13185 0.0
H121 H 0.08435 0.88147 0.14524 0.0
H122 H 0.19162 0.92185 0.14286 0.0
H123 H 0.16821 0.98261 0.13313 0.0
H124 H 0.96417 0.11016 0.38684 0.0
H125 H 0.9419 0.17008 0.36527 0.0
H126 H 0.91612 0.17182 0.77013 0.0
H127 H 0.93772 0.11073 0.79055 0.0
Tb128 Tb 0.53297 0.05092 0.85103 0.0
Tb129 Tb 0.50983 1.00453 0.65735 0.0
C130 C 0.57349 0.072 0.0218 0.0
C131 C 0.6075 0.05338 0.036 0.0
C132 C 0.60829 1.01733 1.00407 0.0
C133 C 0.63946 1.00071 0.9699 0.0
C134 C 0.67185 1.01847 0.97957 0.0
C135 C 0.67157 0.05413 0.02211 0.0
C136 C 0.63956 0.07174 0.04588 0.0
C137 C 0.51063 0.08659 0.64805 0.0
C138 C 0.59014 1.01946 0.64994 0.0
C139 C 0.47741 0.97346 0.47906 0.0
C140 C 0.44509 0.95246 0.46153 0.0
C141 C 0.42944 0.95182 0.34022 0.0
C142 C 0.39691 0.93506 0.32295 0.0
C143 C 0.37935 0.91855 0.42711 0.0
C144 C 0.39669 0.9166 0.54616 0.0
C145 C 0.42934 0.93359 0.56352 0.0
C146 C 0.53224 0.96867 0.86163 0.0
C147 C 0.45237 0.03639 0.86202 0.0
O148 O 0.54537 0.05296 0.04788 0.0
O149 O 0.5702 0.08886 0.91274 0.0
O150 O 0.52881 0.0583 0.64592 0.0
O151 O 0.50484 0.09536 0.76672 0.0
O152 O 0.5834 0.03179 0.76553 0.0
O153 O 0.56332 1.01052 0.57615 0.0
O154 O 0.47349 1.00713 0.50462 0.0
O155 O 0.50204 0.95887 0.54851 0.0
O156 O 0.51425 0.99699 0.86275 0.0
O157 O 0.53764 0.96005 0.74347 0.0
O158 O 0.45905 1.01762 0.75653 0.0
O159 O 0.47851 0.0525 0.9224 0.0
H160 H 0.58427 1.00274 0.98898 0.0
H161 H 0.63774 0.97387 0.93453 0.0
H162 H 0.69584 0.06865 0.03816 0.0
H163 H 0.63983 0.09971 0.06863 0.0
H164 H 0.44156 0.96577 0.26001 0.0
H165 H 0.38426 0.93776 0.23026 0.0
H166 H 0.38387 0.90395 0.62756 0.0
H167 H 0.44152 0.93325 0.65758 0.0
Tb168 Tb 0.50581 0.54179 0.90651 0.0
Tb169 Tb 0.55906 0.53022 0.72244 0.0
C170 C 0.46723 0.5644 0.08648 0.0
C171 C 0.44536 0.59592 0.10908 0.0
C172 C 0.44742 0.61258 0.22856 0.0
C173 C 0.43194 0.64562 0.24675 0.0
C174 C 0.41392 0.66254 0.14584 0.0
C175 C 0.40935 0.64455 0.02936 0.0
C176 C 0.42514 0.61144 0.01064 0.0
C177 C 0.47874 0.52197 0.68108 0.0
C178 C 0.53341 0.60766 0.73092 0.0
C179 C 0.59812 0.50394 0.55178 0.0
C180 C 0.60861 0.46688 0.52973 0.0
C181 C 0.58264 0.44055 0.51644 0.0
C182 C 0.59225 0.40522 0.50624 0.0
C183 C 0.62804 0.39506 0.51019 0.0
C184 C 0.65421 0.42133 0.52271 0.0
C185 C 0.64451 0.45705 0.53255 0.0
C186 C 0.58595 0.55105 0.94601 0.0
C187 C 0.53083 0.46445 0.88962 0.0
O188 O 0.50135 0.57011 0.07897 0.0
O189 O 0.45631 0.54243 0.99866 0.0
O190 O 0.50393 0.54363 0.69894 0.0
O191 O 0.46858 0.51075 0.79264 0.0
O192 O 0.51536 0.59674 0.83394 0.0
O193 O 0.55145 0.58474 0.66186 0.0
O194 O 0.56471 0.51162 0.53387 0.0
O195 O 0.61028 0.51794 0.65704 0.0
O196 O 0.56092 0.52889 0.93062 0.0
O197 O 0.59552 0.56234 0.83367 0.0
O198 O 0.54512 0.47534 0.78008 0.0
O199 O 0.5169 0.48776 0.96859 0.0
H200 H 0.46292 0.60106 0.30547 0.0
H201 H 0.43677 0.65929 0.33636 0.0
H202 H 0.39556 0.65712 0.95059 0.0
H203 H 0.42315 0.59898 0.91735 0.0
H204 H 0.55473 0.44707 0.5149 0.0
H205 H 0.57143 0.38579 0.49283 0.0
H206 H 0.68198 0.41428 0.52488 0.0
H207 H 0.66498 0.47696 0.54372 0.0
Tb208 Tb 1.02075 0.52062 0.92656 0.0
Tb209 Tb 0.03928 0.56648 0.72999 0.0
C210 C 0.99253 0.4871 0.10971 0.0
C211 C 0.96076 0.4651 0.12284 0.0
C212 C 0.94647 0.45938 0.24503 0.0
C213 C 0.91332 0.4435 0.25842 0.0
C214 C 0.89386 0.43298 0.14949 0.0
C215 C 0.90986 0.43588 0.0276 0.0
C216 C 0.94303 0.45214 0.01425 0.0
C217 C 0.04227 0.48525 0.71875 0.0
C218 C 0.95997 0.54533 0.73184 0.0
C219 C 0.06833 0.60032 0.54904 0.0
C220 C 0.10074 0.62157 0.53887 0.0
C221 C 0.11483 0.6289 0.41743 0.0
C222 C 0.1481 0.6446 0.40573 0.0
C223 C 0.1681 0.65312 0.51569 0.0
C224 C 0.15276 0.64779 0.63767 0.0
C225 C 0.11927 0.63207 0.64919 0.0
C226 C 1.01838 0.60189 0.93895 0.0
C227 C 0.09988 0.54133 0.92338 0.0
O228 O 0.98695 0.52071 0.08728 0.0
O229 O 1.01755 0.4743 0.03706 0.0
O230 O 1.02239 0.51222 0.71962 0.0
O231 O 0.05019 0.47783 0.83609 0.0
O232 O 0.96757 0.53324 0.84812 0.0
O233 O 0.9861 0.55582 0.65603 0.0
O234 O 0.07303 0.56653 0.56926 0.0
O235 O 0.04345 0.61326 0.6219 0.0
O236 O 0.03821 0.57487 0.9371 0.0
O237 O 1.00934 0.60861 0.82219 0.0
O238 O 0.09249 0.55219 0.80547 0.0
O239 O 0.07348 0.53253 1.0005 0.0
H240 H 0.95999 0.46905 0.32969 0.0
H241 H 0.9018 0.44224 0.35385 0.0
H242 H 0.89585 0.42763 0.94217 0.0
H243 H 0.95402 0.45613 0.91891 0.0
H244 H 0.10105 0.62061 0.33146 0.0
H245 H 0.15932 0.64704 0.31015 0.0
H246 H 0.16761 0.65359 0.72393 0.0
H247 H 0.10866 0.62648 0.74405 0.0
C248 C 0.17938 0.05116 0.56352 0.0
C249 C 0.17126 0.05899 0.43483 0.0
C250 C 0.15272 0.04932 0.65887 0.0
C251 C 0.11662 0.05467 0.62953 0.0
H252 H 0.20668 0.04698 0.59138 0.0
H253 H 0.16054 0.04374 0.75691 0.0
S254 S 0.08141 0.07724 0.30846 0.0
N255 N 0.12452 0.07329 0.28386 0.0
N256 N 0.07455 0.06867 0.46222 0.0
C257 C 0.10814 0.06202 0.50093 0.0
C258 C 0.13539 0.06452 0.40396 0.0
C259 C 0.48604 0.17001 0.46018 0.0
C260 C 0.51285 0.17293 0.36653 0.0
C261 C 0.4851 0.14143 0.5478 0.0
C262 C 0.51062 0.11424 0.54442 0.0
H263 H 0.46577 0.19018 0.46679 0.0
H264 H 0.4643 0.14079 0.61985 0.0
S265 S 0.58718 0.11027 0.32008 0.0
N266 N 0.56605 0.1467 0.27702 0.0
N267 N 0.56411 0.09286 0.43997 0.0
C268 C 0.53742 0.11674 0.45004 0.0
C269 C 0.53858 0.14611 0.36169 0.0
C270 C 0.41224 0.49592 0.42198 0.0
C271 C 0.39283 0.52724 0.40154 0.0
C272 C 0.44104 0.4948 0.50825 0.0
C273 C 0.4521 0.52513 0.57563 0.0
H274 H 0.40458 0.47181 0.3732 0.0
H275 H 0.45432 0.46979 0.52431 0.0
S276 S 0.40938 0.61336 0.56008 0.0
N277 N 0.38636 0.5891 0.45831 0.0
N278 N 0.44052 0.58719 0.61797 0.0
C279 C 0.4332 0.55672 0.55446 0.0
C280 C 0.40361 0.55773 0.46799 0.0
C281 C 0.03676 0.39381 0.56251 0.0
C282 C 0.04563 0.40041 0.43331 0.0
C283 C 0.0352 0.42149 0.65305 0.0
C284 C 0.04187 0.45706 0.61786 0.0
H285 H 0.03156 0.36695 0.59452 0.0
H286 H 1.02879 0.41491 0.75188 0.0
S287 S 0.06771 0.48817 0.29282 0.0
N288 N 0.06236 0.44498 0.27549 0.0
N289 N 0.05832 0.49693 0.44454 0.0
C290 C 0.05026 0.464 0.48851 0.0
C291 C 0.05245 0.43571 0.39663 0.0
C292 C 0.92022 0.0483 0.27541 0.0
C293 C 0.89752 1.01883 0.28945 0.0
C294 C 0.94849 0.04863 0.18499 0.0
C295 C 0.95467 1.01967 0.10249 0.0
H296 H 0.91542 0.07161 0.33271 0.0
H297 H 0.96458 0.07229 0.17587 0.0
S298 S 0.90348 0.93552 0.10299 0.0
N299 N 0.88441 0.9593 0.21668 0.0
N300 N 0.93584 0.96035 0.04424 0.0
C301 C 0.93234 0.9899 0.11725 0.0
C302 C 0.90421 0.98935 0.21093 0.0
C303 C 0.53451 0.87825 0.02992 0.0
C304 C 0.53891 0.88674 0.16017 0.0
C305 C 0.532 0.90493 0.93514 0.0
C306 C 0.53274 0.94129 0.96687 0.0
H307 H 0.53366 0.85076 1.00054 0.0
H308 H 0.52944 0.89687 0.83583 0.0
S309 S 0.54595 0.97725 0.29377 0.0
N310 N 0.54654 0.93387 0.31519 0.0
N311 N 0.5377 0.98373 0.14012 0.0
C312 C 0.53605 0.9499 0.09773 0.0
C313 C 0.54027 0.92274 0.19346 0.0
C314 C 0.67495 0.53766 0.11368 0.0
C315 C 0.66911 0.55086 0.23812 0.0
C316 C 0.64753 0.53673 0.02184 0.0
C317 C 0.61296 0.54857 0.05083 0.0
H318 H 0.70113 0.52875 0.08591 0.0
H319 H 0.65363 0.52717 0.92626 0.0
S320 S 0.58396 0.58596 0.36251 0.0
N321 N 0.62617 0.57632 0.38533 0.0
N322 N 0.57473 0.57392 0.21383 0.0
C323 C 0.60663 0.56109 0.17585 0.0
C324 C 0.63467 0.56242 0.26908 0.0
C325 C 1.02896 0.64971 0.26357 0.0
C326 C 1.02009 0.68504 0.23412 0.0
C327 C 1.02859 0.62288 0.1686 0.0
C328 C 1.01859 0.63023 0.0407 0.0
H329 H 0.03606 0.64278 0.36092 0.0
H330 H 0.03587 0.59617 0.19587 0.0
S331 S 0.9927 0.71897 0.91552 0.0
N332 N 1.00126 0.72598 0.0688 0.0
N333 N 0.99953 0.67632 0.89175 0.0
C334 C 1.00936 0.66565 0.01124 0.0
C335 C 1.01033 0.69281 0.10738 0.0
C336 C 0.91954 0.25706 0.37986 0.0
C337 C 0.95163 0.27246 0.41952 0.0
C338 C 0.9054 0.22805 0.44708 0.0
C339 C 0.92316 0.21428 0.55479 0.0
H340 H 0.90923 0.26291 0.28512 0.0
H341 H 0.88461 0.21275 0.4019 0.0
S342 S 0.9975 0.25661 0.72743 0.0
N343 N 0.99248 0.28077 0.59633 0.0
N344 N 0.96615 0.22608 0.72241 0.0
C345 C 0.94937 0.23534 0.61215 0.0
C346 C 0.96361 0.26489 0.544 0.0
C347 C 0.29003 0.95234 0.4502 0.0
C348 C 0.28204 0.94968 0.31909 0.0
C349 C 0.31929 0.93422 0.49947 0.0
C350 C 0.34044 0.91321 0.41829 0.0
H351 H 0.27899 0.97368 0.50689 0.0
H352 H 0.32893 0.94231 0.59209 0.0
S353 S 0.31558 0.88188 0.0949 0.0
N354 N 0.28586 0.91244 0.13011 0.0
N355 N 0.34126 0.8784 0.22253 0.0
C356 C 0.32544 0.90211 0.30192 0.0
C357 C 0.29545 0.92032 0.25237 0.0
C358 C 0.60454 0.30147 0.4719 0.0
C359 C 0.61581 0.29785 0.34389 0.0
C360 C 0.61481 0.33122 0.54241 0.0
C361 C 0.63664 0.35738 0.48588 0.0
H362 H 0.58251 0.28585 0.50803 0.0
H363 H 0.60057 0.33675 0.63052 0.0
S364 S 0.6877 0.34799 0.18357 0.0
N365 N 0.66148 0.31291 0.18824 0.0
N366 N 0.67988 0.36992 0.31775 0.0
C367 C 0.65558 0.34828 0.37447 0.0
C368 C 0.6457 0.31745 0.30459 0.0
C369 C 0.25814 0.61877 0.49896 0.0
C370 C 0.26573 0.62903 0.37184 0.0
C371 C 0.22891 0.63319 0.56326 0.0
C372 C 0.20699 0.65791 0.50083 0.0
H373 H 0.27021 0.59521 0.53911 0.0
H374 H 0.2202 0.6204 0.65109 0.0
S375 S 0.22869 0.70648 0.20132 0.0
N376 N 0.259 0.67509 0.21068 0.0
N377 N 0.20409 0.70251 0.33235 0.0
C378 C 0.22073 0.67512 0.39148 0.0
C379 C 0.25047 0.66049 0.32626 0.0
C380 C 0.12108 0.80349 0.17897 0.0
C381 C 0.12815 0.80205 0.31131 0.0
C382 C 0.1333 0.83231 0.10619 0.0
C383 C 0.15203 0.86002 0.16623 0.0
H384 H 0.10052 0.78702 0.13794 0.0
H385 H 0.12176 0.83634 0.01236 0.0
S386 S 0.19529 0.85468 0.48402 0.0
N387 N 0.16954 0.81928 0.47778 0.0
N388 N 0.19077 0.875 0.34418 0.0
C389 C 0.16824 0.85241 0.28424 0.0
C390 C 0.15679 0.82233 0.35637 0.0
C391 C 0.73567 0.95001 0.07895 0.0
C392 C 0.76259 0.97405 0.11039 0.0
C393 C 0.70617 0.96252 0.01242 0.0
C394 C 0.7054 0.99801 0.96791 0.0
H395 H 0.7328 0.9257 0.13375 0.0
H396 H 0.68262 0.94626 0.01731 0.0
S397 S 0.78436 0.05522 0.92643 0.0
N398 N 0.79709 1.02339 0.02523 0.0
N399 N 0.74294 0.04597 0.8882 0.0
C400 C 0.73816 1.01537 0.955 0.0
C401 C 0.76745 1.00294 0.02703 0.0
C402 C 0.4464 0.75384 0.12636 0.0
C403 C 0.43888 0.76398 0.25299 0.0
C404 C 0.43233 0.72228 0.07844 0.0
C405 C 0.40933 0.70135 0.15372 0.0
H406 H 0.46867 0.76559 0.07559 0.0
H407 H 0.44473 0.71138 0.99417 0.0
S408 S 0.36863 0.727 0.46307 0.0
N409 N 0.39745 0.7589 0.43116 0.0
N410 N 0.37039 0.69964 0.33966 0.0
C411 C 0.39466 0.71654 0.26452 0.0
C412 C 0.40914 0.74862 0.31347 0.0
C413 C 0.81254 0.42318 0.3409 0.0
C414 C 0.79495 0.45335 0.29403 0.0
C415 C 0.8425 0.41028 0.27647 0.0
C416 C 0.85505 0.42737 0.16452 0.0
H417 H 0.80763 0.41418 0.43836 0.0
H418 H 0.85913 0.39134 0.32598 0.0
S419 S 0.80558 0.49348 0.97191 0.0
N420 N 0.78233 0.48893 0.10541 0.0
N421 N 0.83898 0.46559 0.98489 0.0
C422 C 0.83168 0.45042 0.10062 0.0
C423 C 0.80101 0.46307 0.16564 0.0
C424 C 1.00238 0.2034 0.01061 0.0
C425 C 1.02806 0.21877 0.0917 0.0
C426 C 1.0061 0.16888 0.9609 0.0
C427 C 0.03524 0.14738 0.99284 0.0
H428 H 0.97833 0.21781 0.98943 0.0
H429 H 0.98504 0.1584 0.90177 0.0
S430 S 0.11086 0.17501 0.19726 0.0
N431 N 0.08447 0.20984 0.19739 0.0
N432 N 0.09143 0.14509 0.1058 0.0
C433 C 0.06169 0.16272 0.07076 0.0
C434 C 0.05814 0.19823 0.11957 0.0
C435 C 0.36945 0.06211 0.06339 0.0
C436 C 0.34515 0.03457 0.03727 0.0
C437 C 0.40365 0.06319 1.00503 0.0
C438 C 0.41512 0.03686 0.91756 0.0
H439 H 0.36274 0.08197 0.13416 0.0
H440 H 0.42153 0.08445 0.03094 0.0
S441 S 0.36217 0.9585 0.82134 0.0
N442 N 0.33531 0.98074 0.91608 0.0
N443 N 0.39894 0.98199 0.8124 0.0
C444 C 0.39068 1.00977 0.8893 0.0
C445 C 0.35605 1.00889 0.94711 0.0
C446 C 0.50901 0.37424 0.04504 0.0
C447 C 0.53965 0.35406 0.02021 0.0
C448 C 0.50587 0.40961 1.00054 0.0
C449 C 0.53301 0.42613 0.9279 0.0
H450 H 0.48823 0.36339 0.10562 0.0
H451 H 0.48231 0.4244 0.02558 0.0
S452 S 0.61907 0.38551 0.84062 0.0
N453 N 0.59761 0.35372 0.91767 0.0
N454 N 0.59174 0.41951 0.8361 0.0
C455 C 0.56321 0.40589 0.89933 0.0
C456 C 0.56647 0.37013 0.94465 0.0
C457 C 0.17778 0.54377 0.15849 0.0
C458 C 0.20813 0.5463 0.07929 0.0
C459 C 0.1434 0.5413 0.10713 0.0
C460 C 0.13734 0.54161 0.97348 0.0
H461 H 0.18058 0.54517 0.26196 0.0
H462 H 0.12127 0.54054 0.17355 0.0
S463 S 0.20778 0.54543 0.72299 0.0
N464 N 0.22985 0.54731 0.85965 0.0
N465 N 0.16542 0.54267 0.76254 0.0
C466 C 0.16755 0.543 0.89275 0.0
C467 C 0.20276 0.54527 0.94558 0.0
C468 C 1.01532 0.87997 0.59364 0.0
C469 C 0.04596 0.85964 0.61696 0.0
C470 C 1.01139 0.91459 0.64458 0.0
C471 C 0.03771 0.93026 0.72239 0.0
H472 H 0.99505 0.86984 0.5302 0.0
H473 H 0.98778 0.92943 0.62098 0.0
S474 S 0.12348 0.88906 0.80864 0.0
N475 N 0.10299 0.85829 0.72465 0.0
N476 N 0.09584 0.92274 0.81643 0.0
C477 C 0.06798 0.90989 0.74861 0.0
C478 C 0.07199 0.87487 0.69727 0.0
C479 C 0.6744 0.97913 0.50144 0.0
C480 C 0.70126 1.00514 0.51857 0.0
C481 C 0.63893 0.98417 0.54164 0.0
C482 C 0.62822 1.01494 0.60649 0.0
H483 H 0.68058 0.95459 0.45284 0.0
H484 H 0.61973 0.9635 0.52255 0.0
S485 S 0.68703 0.09079 0.68558 0.0
N486 N 0.7135 0.0631 0.60904 0.0
N487 N 0.64783 0.07132 0.69251 0.0
C488 C 0.65485 0.04043 0.63123 0.0
C489 C 0.69094 0.03582 0.58631 0.0
C490 C 0.55369 0.69484 0.5513 0.0
C491 C 0.5223 0.71449 0.56703 0.0
C492 C 0.5577 0.66094 0.60839 0.0
C493 C 0.53064 0.64533 0.68436 0.0
H494 H 0.57441 0.7047 0.48831 0.0
H495 H 0.58184 0.64639 0.58959 0.0
S496 S 0.44301 0.68536 0.75103 0.0
N497 N 0.46411 0.71586 0.66693 0.0
N498 N 0.47123 0.65249 0.76943 0.0
C499 C 0.49977 0.66532 0.70431 0.0
C500 C 0.49579 0.69971 0.64728 0.0
C501 C 0.86246 0.51801 0.6925 0.0
C502 C 0.85054 0.53794 0.58635 0.0
C503 C 0.89708 0.52166 0.74177 0.0
C504 C 0.92223 0.54447 0.68394 0.0
H505 H 0.84524 0.4981 0.73411 0.0
H506 H 0.90462 0.50514 0.82237 0.0
S507 S 0.90515 0.60197 0.40015 0.0
N508 N 0.86702 0.58139 0.42466 0.0
N509 N 0.93218 0.58763 0.51332 0.0
C510 C 0.91062 0.56478 0.5778 0.0
C511 C 0.87496 0.56163 0.5299 0.0
loop_
_geom_bond_atom_site_label_1
_geom_bond_atom_site_label_2
_geom_bond_distance
_geom_bond_site_symmetry_2
_ccdc_geom_bond_type
H0 C3 0.929 . S
H1 C6 0.929 . S
H2 C8 0.930 . S
C3 H0 0.929 . S
C3 C4 1.398 . S
C3 C5 1.396 . S
C4 C3 1.398 . S
C4 C8 1.407 . S
C5 C3 1.396 . S
C5 C6 1.394 . S
C6 H1 0.929 . S
C6 C5 1.394 . S
C6 C7 1.382 . S
C7 C6 1.382 . S
C7 C8 1.392 . S
C7 N9 1.420 . S
C8 H2 0.930 . S
C8 C4 1.407 . S
C8 C7 1.392 . S
N9 C7 1.420 . S
N9 C10 1.244 . S
C10 N9 1.244 . S
H11 C14 0.929 . S
H12 C17 0.929 . S
H13 C19 0.930 . S
C14 H11 0.929 . S
C14 C15 1.395 1_655 S
C14 C16 1.394 1_655 S
C15 C14 1.395 1_455 S
C15 C19 1.414 . S
C16 C14 1.394 1_455 S
C16 C17 1.397 . S
C17 H12 0.929 . S
C17 C16 1.397 . S
C17 C18 1.382 . S
C18 C17 1.382 . S
C18 C19 1.392 . S
C18 N20 1.420 . S
C19 H13 0.930 . S
C19 C15 1.414 . S
C19 C18 1.392 . S
N20 C18 1.420 . S
N20 C21 1.232 1_455 S
C21 N20 1.232 1_655 S
H22 C25 0.929 . S
H23 C28 0.929 . S
H24 C30 0.930 . S
C25 H22 0.929 . S
C25 C26 1.395 1_565 S
C25 C27 1.395 1_565 S
C26 C25 1.395 1_545 S
C26 C30 1.414 . S
C27 C25 1.395 1_545 S
C27 C28 1.397 . S
C28 H23 0.929 . S
C28 C27 1.397 . S
C28 C29 1.382 . S
C29 C28 1.382 . S
C29 C30 1.392 . S
C29 N31 1.420 . S
C30 H24 0.930 . S
C30 C26 1.414 . S
C30 C29 1.392 . S
N31 C29 1.420 . S
N31 C32 1.231 1_545 S
C32 N31 1.231 1_565 S
H33 C36 0.929 . S
H34 C39 0.929 . S
H35 C41 0.930 . S
C36 H33 0.929 . S
C36 C37 1.398 . S
C36 C38 1.396 . S
C37 C36 1.398 . S
C37 C41 1.407 . S
C38 C36 1.396 . S
C38 C39 1.394 . S
C39 H34 0.929 . S
C39 C38 1.394 . S
C39 C40 1.382 . S
C40 C39 1.382 . S
C40 C41 1.392 . S
C40 N42 1.420 . S
C41 H35 0.930 . S
C41 C37 1.407 . S
C41 C40 1.392 . S
N42 C40 1.420 . S
N42 C43 1.244 . S
C43 N42 1.244 . S
H44 C47 0.929 . S
H45 C50 0.929 . S
H46 C52 0.930 . S
C47 H44 0.929 . S
C47 C48 1.398 1_554 S
C47 C49 1.396 . S
C48 C47 1.398 1_556 S
C48 C52 1.407 . S
C49 C47 1.396 . S
C49 C50 1.394 . S
C50 H45 0.929 . S
C50 C49 1.394 . S
C50 C51 1.382 . S
C51 C50 1.382 . S
C51 C52 1.392 1_554 S
C51 N53 1.420 . S
C52 H46 0.930 . S
C52 C48 1.407 . S
C52 C51 1.392 1_556 S
N53 C51 1.420 . S
N53 C54 1.244 . S
C54 N53 1.244 . S
H55 C58 0.929 . S
H56 C61 0.929 . S
H57 C63 0.930 . S
C58 H55 0.929 . S
C58 C59 1.398 1_654 S
C58 C60 1.394 1_655 S
C59 C58 1.398 1_456 S
C59 C63 1.407 . S
C60 C58 1.394 1_455 S
C60 C61 1.398 . S
C61 H56 0.929 . S
C61 C60 1.398 . S
C61 C62 1.382 . S
C62 C61 1.382 . S
C62 C63 1.392 1_554 S
C62 N64 1.420 . S
C63 H57 0.930 . S
C63 C59 1.407 . S
C63 C62 1.392 1_556 S
N64 C62 1.420 . S
N64 C65 1.235 1_455 S
C65 N64 1.235 1_655 S
H66 C69 0.929 . S
H67 C72 0.929 . S
H68 C74 0.930 . S
C69 H66 0.929 . S
C69 C70 1.398 1_564 S
C69 C71 1.393 1_565 S
C70 C69 1.398 1_546 S
C70 C74 1.407 . S
C71 C69 1.393 1_545 S
C71 C72 1.398 . S
C72 H67 0.929 . S
C72 C71 1.398 . S
C72 C73 1.382 . S
C73 C72 1.382 . S
C73 C74 1.392 1_554 S
C73 N75 1.420 . S
C74 H68 0.930 . S
C74 C70 1.407 . S
C74 C73 1.392 1_556 S
N75 C73 1.420 . S
N75 C76 1.235 1_545 S
C76 N75 1.235 1_565 S
H77 C80 0.930 . S
H78 C83 0.929 . S
H79 C85 0.930 . S
C80 H77 0.930 . S
C80 C81 1.398 1_554 S
C80 C82 1.396 . S
C81 C80 1.398 1_556 S
C81 C85 1.407 . S
C82 C80 1.396 . S
C82 C83 1.394 . S
C83 H78 0.929 . S
C83 C82 1.394 . S
C83 C84 1.382 . S
C84 C83 1.382 . S
C84 C85 1.392 1_554 S
C84 N86 1.420 . S
C85 H79 0.930 . S
C85 C81 1.407 . S
C85 C84 1.392 1_556 S
N86 C84 1.420 . S
N86 C87 1.244 . S
C87 N86 1.244 . S
Tb88 C90 2.809 1_556 S
Tb88 O108 2.484 1_556 S
Tb88 O109 2.440 1_556 S
Tb88 O110 2.658 1_565 S
Tb88 O111 2.409 . S
Tb88 O112 2.378 . S
Tb88 O116 2.325 1_455 S
Tb88 O119 2.341 1_565 S
Tb89 C99 2.809 . S
Tb89 O110 2.325 1_655 S
Tb89 O113 2.341 1_545 S
Tb89 O114 2.484 . S
Tb89 O115 2.440 . S
Tb89 O116 2.658 1_545 S
Tb89 O117 2.409 . S
Tb89 O118 2.378 . S
C90 Tb88 2.809 1_554 S
C90 C91 1.514 . S
C90 O108 1.248 . S
C90 O109 1.266 . S
C91 C90 1.514 . S
C91 C92 1.359 . S
C91 C96 1.348 . S
C92 C91 1.359 . S
C92 C93 1.380 . S
C92 H120 0.929 1_455 S
C93 C92 1.380 . S
C93 C94 1.347 . S
C93 H121 0.931 1_455 S
C94 C93 1.347 . S
C94 C95 1.369 . S
C95 C94 1.369 . S
C95 C96 1.408 . S
C95 H122 0.930 . S
C96 C91 1.348 . S
C96 C95 1.408 . S
C96 H123 0.930 . S
C97 O110 1.281 1_565 S
C97 O111 1.254 . S
C98 O112 1.236 1_655 S
C98 O113 1.266 . S
C99 Tb89 2.809 . S
C99 C100 1.514 . S
C99 O114 1.248 . S
C99 O115 1.266 . S
C100 C99 1.514 . S
C100 C101 1.359 . S
C100 C105 1.348 . S
C101 C100 1.359 . S
C101 C102 1.380 . S
C101 H124 0.929 1_655 S
C102 C101 1.380 . S
C102 C103 1.347 . S
C102 H125 0.931 1_655 S
C103 C102 1.347 . S
C103 C104 1.369 . S
C104 C103 1.369 . S
C104 C105 1.408 . S
C104 H126 0.930 . S
C105 C100 1.348 . S
C105 C104 1.408 . S
C105 H127 0.930 . S
C106 O116 1.281 1_545 S
C106 O117 1.254 . S
C107 O118 1.236 1_455 S
C107 O119 1.266 . S
O108 Tb88 2.484 1_554 S
O108 C90 1.248 . S
O109 Tb88 2.440 1_554 S
O109 C90 1.266 . S
O110 Tb88 2.658 1_545 S
O110 Tb89 2.325 1_455 S
O110 C97 1.281 1_545 S
O111 Tb88 2.409 . S
O111 C97 1.254 . S
O112 Tb88 2.378 . S
O112 C98 1.236 1_455 S
O113 Tb89 2.341 1_565 S
O113 C98 1.266 . S
O114 Tb89 2.484 . S
O114 C99 1.248 . S
O115 Tb89 2.440 . S
O115 C99 1.266 . S
O116 Tb88 2.325 1_655 S
O116 Tb89 2.658 1_565 S
O116 C106 1.281 1_565 S
O117 Tb89 2.409 . S
O117 C106 1.254 . S
O118 Tb89 2.378 . S
O118 C107 1.236 1_655 S
O119 Tb88 2.341 1_545 S
O119 C107 1.266 . S
H120 C92 0.929 1_655 S
H121 C93 0.931 1_655 S
H122 C95 0.930 . S
H123 C96 0.930 . S
H124 C101 0.929 1_455 S
H125 C102 0.931 1_455 S
H126 C104 0.930 . S
H127 C105 0.930 . S
Tb128 C130 2.809 1_556 S
Tb128 O148 2.484 1_556 S
Tb128 O149 2.440 1_556 S
Tb128 O150 2.658 . S
Tb128 O151 2.409 . S
Tb128 O152 2.378 . S
Tb128 O156 2.325 1_545 S
Tb128 O159 2.341 . S
Tb129 C139 2.809 . S
Tb129 O150 2.325 1_565 S
Tb129 O153 2.341 . S
Tb129 O154 2.484 . S
Tb129 O155 2.440 . S
Tb129 O156 2.658 . S
Tb129 O157 2.409 . S
Tb129 O158 2.378 . S
C130 Tb128 2.809 1_554 S
C130 C131 1.514 . S
C130 O148 1.248 . S
C130 O149 1.266 . S
C131 C130 1.514 . S
C131 C132 1.359 . S
C131 C136 1.348 . S
C132 C131 1.359 . S
C132 C133 1.380 . S
C132 H160 0.929 1_545 S
C133 C132 1.380 . S
C133 C134 1.347 . S
C133 H161 0.931 1_545 S
C134 C133 1.347 . S
C134 C135 1.369 . S
C135 C134 1.369 . S
C135 C136 1.408 . S
C135 H162 0.930 . S
C136 C131 1.348 . S
C136 C135 1.408 . S
C136 H163 0.930 . S
C137 O150 1.281 . S
C137 O151 1.254 . S
C138 O152 1.236 1_565 S
C138 O153 1.266 . S
C139 Tb129 2.809 . S
C139 C140 1.514 . S
C139 O154 1.248 . S
C139 O155 1.266 . S
C140 C139 1.514 . S
C140 C141 1.359 . S
C140 C145 1.348 . S
C141 C140 1.359 . S
C141 C142 1.380 . S
C141 H164 0.929 1_565 S
C142 C141 1.380 . S
C142 C143 1.347 . S
C142 H165 0.931 1_565 S
C143 C142 1.347 . S
C143 C144 1.369 . S
C144 C143 1.369 . S
C144 C145 1.408 . S
C144 H166 0.930 . S
C145 C140 1.348 . S
C145 C144 1.408 . S
C145 H167 0.930 . S
C146 O156 1.281 . S
C146 O157 1.254 . S
C147 O158 1.236 1_545 S
C147 O159 1.266 . S
O148 Tb128 2.484 1_554 S
O148 C130 1.248 . S
O149 Tb128 2.440 1_554 S
O149 C130 1.266 . S
O150 Tb128 2.658 . S
O150 Tb129 2.325 1_545 S
O150 C137 1.281 . S
O151 Tb128 2.409 . S
O151 C137 1.254 . S
O152 Tb128 2.378 . S
O152 C138 1.236 1_545 S
O153 Tb129 2.341 . S
O153 C138 1.266 . S
O154 Tb129 2.484 . S
O154 C139 1.248 . S
O155 Tb129 2.440 . S
O155 C139 1.266 . S
O156 Tb128 2.325 1_565 S
O156 Tb129 2.658 . S
O156 C146 1.281 . S
O157 Tb129 2.409 . S
O157 C146 1.254 . S
O158 Tb129 2.378 . S
O158 C147 1.236 1_565 S
O159 Tb128 2.341 . S
O159 C147 1.266 . S
H160 C132 0.929 1_565 S
H161 C133 0.931 1_565 S
H162 C135 0.930 . S
H163 C136 0.930 . S
H164 C141 0.929 1_545 S
H165 C142 0.931 1_545 S
H166 C144 0.930 . S
H167 C145 0.930 . S
Tb168 C170 2.809 1_556 S
Tb168 O188 2.484 1_556 S
Tb168 O189 2.440 1_556 S
Tb168 O190 2.658 . S
Tb168 O191 2.409 . S
Tb168 O192 2.378 . S
Tb168 O196 2.325 . S
Tb168 O199 2.341 . S
Tb169 C179 2.809 . S
Tb169 O190 2.325 . S
Tb169 O193 2.341 . S
Tb169 O194 2.484 . S
Tb169 O195 2.440 . S
Tb169 O196 2.658 . S
Tb169 O197 2.409 . S
Tb169 O198 2.378 . S
C170 Tb168 2.809 1_554 S
C170 C171 1.514 . S
C170 O188 1.248 . S
C170 O189 1.266 . S
C171 C170 1.514 . S
C171 C172 1.359 . S
C171 C176 1.348 . S
C172 C171 1.359 . S
C172 C173 1.380 . S
C172 H200 0.929 . S
C173 C172 1.380 . S
C173 C174 1.347 . S
C173 H201 0.931 . S
C174 C173 1.347 . S
C174 C175 1.369 . S
C175 C174 1.369 . S
C175 C176 1.408 . S
C175 H202 0.930 . S
C176 C171 1.348 . S
C176 C175 1.408 . S
C176 H203 0.930 . S
C177 O190 1.281 . S
C177 O191 1.254 . S
C178 O192 1.236 . S
C178 O193 1.266 . S
C179 Tb169 2.809 . S
C179 C180 1.514 . S
C179 O194 1.248 . S
C179 O195 1.266 . S
C180 C179 1.514 . S
C180 C181 1.359 . S
C180 C185 1.348 . S
C181 C180 1.359 . S
C181 C182 1.380 . S
C181 H204 0.929 . S
C182 C181 1.380 . S
C182 C183 1.347 . S
C182 H205 0.931 . S
C183 C182 1.347 . S
C183 C184 1.369 . S
C184 C183 1.369 . S
C184 C185 1.408 . S
C184 H206 0.930 . S
C185 C180 1.348 . S
C185 C184 1.408 . S
C185 H207 0.930 . S
C186 O196 1.281 . S
C186 O197 1.254 . S
C187 O198 1.236 . S
C187 O199 1.266 . S
O188 Tb168 2.484 1_554 S
O188 C170 1.248 . S
O189 Tb168 2.440 1_554 S
O189 C170 1.266 . S
O190 Tb168 2.658 . S
O190 Tb169 2.325 . S
O190 C177 1.281 . S
O191 Tb168 2.409 . S
O191 C177 1.254 . S
O192 Tb168 2.378 . S
O192 C178 1.236 . S
O193 Tb169 2.341 . S
O193 C178 1.266 . S
O194 Tb169 2.484 . S
O194 C179 1.248 . S
O195 Tb169 2.440 . S
O195 C179 1.266 . S
O196 Tb168 2.325 . S
O196 Tb169 2.658 . S
O196 C186 1.281 . S
O197 Tb169 2.409 . S
O197 C186 1.254 . S
O198 Tb169 2.378 . S
O198 C187 1.236 . S
O199 Tb168 2.341 . S
O199 C187 1.266 . S
H200 C172 0.929 . S
H201 C173 0.931 . S
H202 C175 0.930 . S
H203 C176 0.930 . S
H204 C181 0.929 . S
H205 C182 0.931 . S
H206 C184 0.930 . S
H207 C185 0.930 . S
Tb208 C210 2.809 1_556 S
Tb208 O228 2.484 1_556 S
Tb208 O229 2.440 1_556 S
Tb208 O230 2.658 1_655 S
Tb208 O231 2.409 . S
Tb208 O232 2.378 . S
Tb208 O236 2.325 . S
Tb208 O239 2.341 1_655 S
Tb209 C219 2.809 . S
Tb209 O230 2.325 . S
Tb209 O233 2.341 1_455 S
Tb209 O234 2.484 . S
Tb209 O235 2.440 . S
Tb209 O236 2.658 1_455 S
Tb209 O237 2.409 . S
Tb209 O238 2.378 . S
C210 Tb208 2.809 1_554 S
C210 C211 1.514 . S
C210 O228 1.248 . S
C210 O229 1.266 . S
C211 C210 1.514 . S
C211 C212 1.359 . S
C211 C216 1.348 . S
C212 C211 1.359 . S
C212 C213 1.380 . S
C212 H240 0.929 . S
C213 C212 1.380 . S
C213 C214 1.347 . S
C213 H241 0.931 . S
C214 C213 1.347 . S
C214 C215 1.369 . S
C215 C214 1.369 . S
C215 C216 1.408 . S
C215 H242 0.930 . S
C216 C211 1.348 . S
C216 C215 1.408 . S
C216 H243 0.930 . S
C217 O230 1.277 1_655 S
C217 O231 1.259 . S
C218 O232 1.236 . S
C218 O233 1.266 . S
C219 Tb209 2.809 . S
C219 C220 1.514 . S
C219 O234 1.248 . S
C219 O235 1.266 . S
C220 C219 1.514 . S
C220 C221 1.359 . S
C220 C225 1.348 . S
C221 C220 1.359 . S
C221 C222 1.380 . S
C221 H244 0.929 . S
C222 C221 1.380 . S
C222 C223 1.347 . S
C222 H245 0.931 . S
C223 C222 1.347 . S
C223 C224 1.369 . S
C224 C223 1.369 . S
C224 C225 1.408 . S
C224 H246 0.930 . S
C225 C220 1.348 . S
C225 C224 1.408 . S
C225 H247 0.930 . S
C226 O236 1.275 1_455 S
C226 O237 1.262 . S
C227 O238 1.236 . S
C227 O239 1.266 . S
O228 Tb208 2.484 1_554 S
O228 C210 1.248 . S
O229 Tb208 2.440 1_554 S
O229 C210 1.266 . S
O230 Tb208 2.658 1_455 S
O230 Tb209 2.325 . S
O230 C217 1.277 1_455 S
O231 Tb208 2.409 . S
O231 C217 1.259 . S
O232 Tb208 2.378 . S
O232 C218 1.236 . S
O233 Tb209 2.341 1_655 S
O233 C218 1.266 . S
O234 Tb209 2.484 . S
O234 C219 1.248 . S
O235 Tb209 2.440 . S
O235 C219 1.266 . S
O236 Tb208 2.325 . S
O236 Tb209 2.658 1_655 S
O236 C226 1.275 1_655 S
O237 Tb209 2.409 . S
O237 C226 1.262 . S
O238 Tb209 2.378 . S
O238 C227 1.236 . S
O239 Tb208 2.341 1_455 S
O239 C227 1.266 . S
H240 C212 0.929 . S
H241 C213 0.931 . S
H242 C215 0.930 . S
H243 C216 0.930 . S
H244 C221 0.929 . S
H245 C222 0.931 . S
H246 C224 0.930 . S
H247 C225 0.930 . S
C248 C249 1.369 1_545 S
C248 C250 1.419 . S
C248 H252 0.930 . S
C249 C248 1.369 1_565 S
C249 C258 1.428 . S
C250 C248 1.419 . S
C250 C251 1.358 1_545 S
C250 H253 0.929 . S
C251 C250 1.358 1_565 S
C251 C257 1.434 . S
H252 C248 0.930 . S
H253 C250 0.929 . S
S254 N255 1.613 . S
S254 N256 1.610 . S
N255 S254 1.613 . S
N255 C258 1.350 . S
N256 S254 1.610 . S
N256 C257 1.351 . S
C257 C251 1.434 . S
C257 N256 1.351 . S
C257 C258 1.434 . S
C258 C249 1.428 . S
C258 N255 1.350 . S
C258 C257 1.434 . S
C259 C260 1.369 . S
C259 C261 1.419 . S
C259 H263 0.930 . S
C260 C259 1.369 . S
C260 C269 1.429 . S
C261 C259 1.419 . S
C261 C262 1.363 . S
C261 H264 0.929 . S
C262 C261 1.363 . S
C262 C268 1.428 . S
H263 C259 0.930 . S
H264 C261 0.929 . S
S265 N266 1.613 . S
S265 N267 1.610 . S
N266 S265 1.613 . S
N266 C269 1.350 . S
N267 S265 1.610 . S
N267 C268 1.351 . S
C268 C262 1.428 . S
C268 N267 1.351 . S
C268 C269 1.434 . S
C269 C260 1.429 . S
C269 N266 1.350 . S
C269 C268 1.434 . S
C270 C271 1.369 . S
C270 C272 1.419 . S
C270 H274 0.930 . S
C271 C270 1.369 . S
C271 C280 1.429 . S
C272 C270 1.419 . S
C272 C273 1.363 . S
C272 H275 0.929 . S
C273 C272 1.363 . S
C273 C279 1.428 . S
H274 C270 0.930 . S
H275 C272 0.929 . S
S276 N277 1.613 . S
S276 N278 1.610 . S
N277 S276 1.613 . S
N277 C280 1.350 . S
N278 S276 1.610 . S
N278 C279 1.351 . S
C279 C273 1.428 . S
C279 N278 1.351 . S
C279 C280 1.434 . S
C280 C271 1.429 . S
C280 N277 1.350 . S
C280 C279 1.434 . S
C281 C282 1.374 . S
C281 C283 1.419 . S
C281 H285 0.930 . S
C282 C281 1.374 . S
C282 C291 1.424 1_455 S
C283 C281 1.419 . S
C283 C284 1.363 . S
C283 H286 0.929 . S
C284 C283 1.363 . S
C284 C290 1.428 1_455 S
H285 C281 0.930 . S
H286 C283 0.929 . S
S287 N288 1.613 . S
S287 N289 1.610 . S
N288 S287 1.613 . S
N288 C291 1.350 . S
N289 S287 1.610 . S
N289 C290 1.351 . S
C290 C284 1.428 1_655 S
C290 N289 1.351 . S
C290 C291 1.434 . S
C291 C282 1.424 1_655 S
C291 N288 1.350 . S
C291 C290 1.434 . S
C292 C293 1.365 1_565 S
C292 C294 1.419 . S
C292 H296 0.930 . S
C293 C292 1.365 1_545 S
C293 C302 1.433 . S
C294 C292 1.419 . S
C294 C295 1.351 1_565 S
C294 H297 0.929 . S
C295 C294 1.351 1_545 S
C295 C301 1.441 . S
H296 C292 0.930 . S
H297 C294 0.929 . S
S298 N299 1.613 . S
S298 N300 1.610 . S
N299 S298 1.613 . S
N299 C302 1.350 . S
N300 S298 1.610 . S
N300 C301 1.351 . S
C301 C295 1.441 . S
C301 N300 1.351 . S
C301 C302 1.434 . S
C302 C293 1.433 . S
C302 N299 1.350 . S
C302 C301 1.434 . S
C303 C304 1.369 . S
C303 C305 1.419 . S
C303 H307 0.930 . S
C304 C303 1.369 . S
C304 C313 1.429 . S
C305 C303 1.419 . S
C305 C306 1.363 . S
C305 H308 0.929 . S
C306 C305 1.363 . S
C306 C312 1.428 . S
H307 C303 0.930 . S
H308 C305 0.929 . S
S309 N310 1.613 . S
S309 N311 1.610 . S
N310 S309 1.613 . S
N310 C313 1.350 . S
N311 S309 1.610 . S
N311 C312 1.351 . S
C312 C306 1.428 . S
C312 N311 1.351 . S
C312 C313 1.434 . S
C313 C304 1.429 . S
C313 N310 1.350 . S
C313 C312 1.434 . S
C314 C315 1.369 . S
C314 C316 1.419 . S
C314 H318 0.930 . S
C315 C314 1.369 . S
C315 C324 1.429 . S
C316 C314 1.419 . S
C316 C317 1.363 . S
C316 H319 0.929 . S
C317 C316 1.363 . S
C317 C323 1.428 . S
H318 C314 0.930 . S
H319 C316 0.929 . S
S320 N321 1.613 . S
S320 N322 1.610 . S
N321 S320 1.613 . S
N321 C324 1.350 . S
N322 S320 1.610 . S
N322 C323 1.351 . S
C323 C317 1.428 . S
C323 N322 1.351 . S
C323 C324 1.434 . S
C324 C315 1.429 . S
C324 N321 1.350 . S
C324 C323 1.434 . S
C325 C326 1.374 . S
C325 C327 1.419 . S
C325 H329 0.930 . S
C326 C325 1.374 . S
C326 C335 1.424 1_655 S
C327 C325 1.419 . S
C327 C328 1.382 . S
C327 H330 0.929 . S
C328 C327 1.382 . S
C328 C334 1.410 1_655 S
H329 C325 0.930 . S
H330 C327 0.929 . S
S331 N332 1.613 . S
S331 N333 1.610 . S
N332 S331 1.613 . S
N332 C335 1.350 . S
N333 S331 1.610 . S
N333 C334 1.351 . S
C334 C328 1.410 1_455 S
C334 N333 1.351 . S
C334 C335 1.434 . S
C335 C326 1.424 1_455 S
C335 N332 1.350 . S
C335 C334 1.434 . S
C336 C337 1.379 . S
C336 C338 1.419 . S
C336 H340 0.930 . S
C337 C336 1.379 . S
C337 C346 1.426 1_655 S
C338 C336 1.419 . S
C338 C339 1.363 . S
C338 H341 0.929 . S
C339 C338 1.363 . S
C339 C345 1.428 . S
H340 C336 0.930 . S
H341 C338 0.929 . S
S342 N343 1.613 . S
S342 N344 1.610 . S
N343 S342 1.613 . S
N343 C346 1.350 . S
N344 S342 1.610 . S
N344 C345 1.351 1_455 S
C345 C339 1.428 . S
C345 N344 1.351 1_655 S
C345 C346 1.434 1_655 S
C346 C337 1.426 1_455 S
C346 N343 1.350 . S
C346 C345 1.434 1_455 S
C347 C348 1.361 1_545 S
C347 C349 1.419 1_545 S
C347 H351 0.930 . S
C348 C347 1.361 1_565 S
C348 C357 1.456 . S
C349 C347 1.419 1_565 S
C349 C350 1.363 . S
C349 H352 0.929 . S
C350 C349 1.363 . S
C350 C356 1.428 . S
H351 C347 0.930 . S
H352 C349 0.929 . S
S353 N354 1.613 . S
S353 N355 1.610 . S
N354 S353 1.613 . S
N354 C357 1.350 . S
N355 S353 1.610 . S
N355 C356 1.351 . S
C356 C350 1.428 . S
C356 N355 1.351 . S
C356 C357 1.434 . S
C357 C348 1.456 . S
C357 N354 1.350 . S
C357 C356 1.434 . S
C358 C359 1.369 . S
C358 C360 1.419 . S
C358 H362 0.930 . S
C359 C358 1.369 . S
C359 C368 1.429 . S
C360 C358 1.419 . S
C360 C361 1.363 . S
C360 H363 0.929 . S
C361 C360 1.363 . S
C361 C367 1.428 . S
H362 C358 0.930 . S
H363 C360 0.929 . S
S364 N365 1.613 . S
S364 N366 1.610 . S
N365 S364 1.613 . S
N365 C368 1.350 . S
N366 S364 1.610 . S
N366 C367 1.351 . S
C367 C361 1.428 . S
C367 N366 1.351 . S
C367 C368 1.434 . S
C368 C359 1.429 . S
C368 N365 1.350 . S
C368 C367 1.434 . S
C369 C370 1.369 . S
C369 C371 1.419 . S
C369 H373 0.930 . S
C370 C369 1.369 . S
C370 C379 1.429 . S
C371 C369 1.419 . S
C371 C372 1.363 . S
C371 H374 0.929 . S
C372 C371 1.363 . S
C372 C378 1.428 . S
H373 C369 0.930 . S
H374 C371 0.929 . S
S375 N376 1.613 . S
S375 N377 1.610 . S
N376 S375 1.613 . S
N376 C379 1.350 . S
N377 S375 1.610 . S
N377 C378 1.351 . S
C378 C372 1.428 . S
C378 N377 1.351 . S
C378 C379 1.434 . S
C379 C370 1.429 . S
C379 N376 1.350 . S
C379 C378 1.434 . S
C380 C381 1.368 1_655 S
C380 C382 1.410 1_655 S
C380 H384 0.940 . S
C381 C380 1.368 1_455 S
C381 C390 1.453 . S
C382 C380 1.410 1_455 S
C382 C383 1.363 . S
C382 H385 0.929 . S
C383 C382 1.363 . S
C383 C389 1.428 . S
H384 C380 0.940 . S
H385 C382 0.929 . S
S386 N387 1.613 . S
S386 N388 1.610 . S
N387 S386 1.613 . S
N387 C390 1.350 . S
N388 S386 1.610 . S
N388 C389 1.351 . S
C389 C383 1.428 . S
C389 N388 1.351 . S
C389 C390 1.434 . S
C390 C381 1.453 . S
C390 N387 1.350 . S
C390 C389 1.434 . S
C391 C392 1.369 1_565 S
C391 C393 1.419 1_565 S
C391 H395 0.930 . S
C392 C391 1.369 1_545 S
C392 C401 1.429 . S
C393 C391 1.419 1_545 S
C393 C394 1.363 . S
C393 H396 0.929 . S
C394 C393 1.363 . S
C394 C400 1.428 . S
H395 C391 0.930 . S
H396 C393 0.929 . S
S397 N398 1.613 . S
S397 N399 1.610 . S
N398 S397 1.613 . S
N398 C401 1.350 . S
N399 S397 1.610 . S
N399 C400 1.351 . S
C400 C394 1.428 . S
C400 N399 1.351 . S
C400 C401 1.434 . S
C401 C392 1.429 . S
C401 N398 1.350 . S
C401 C400 1.434 . S
C402 C403 1.369 . S
C402 C404 1.419 . S
C402 H406 0.930 . S
C403 C402 1.369 . S
C403 C412 1.429 . S
C404 C402 1.419 . S
C404 C405 1.363 . S
C404 H407 0.929 . S
C405 C404 1.363 . S
C405 C411 1.428 . S
H406 C402 0.930 . S
H407 C404 0.929 . S
S408 N409 1.613 . S
S408 N410 1.610 . S
N409 S408 1.613 . S
N409 C412 1.350 . S
N410 S408 1.610 . S
N410 C411 1.351 . S
C411 C405 1.428 . S
C411 N410 1.351 . S
C411 C412 1.434 . S
C412 C403 1.429 . S
C412 N409 1.350 . S
C412 C411 1.434 . S
C413 C414 1.369 . S
C413 C415 1.419 . S
C413 H417 0.930 . S
C414 C413 1.369 . S
C414 C423 1.429 . S
C415 C413 1.419 . S
C415 C416 1.363 . S
C415 H418 0.929 . S
C416 C415 1.363 . S
C416 C422 1.428 . S
H417 C413 0.930 . S
H418 C415 0.929 . S
S419 N420 1.613 . S
S419 N421 1.610 . S
N420 S419 1.613 . S
N420 C423 1.350 . S
N421 S419 1.610 . S
N421 C422 1.351 . S
C422 C416 1.428 . S
C422 N421 1.351 . S
C422 C423 1.434 . S
C423 C414 1.429 . S
C423 N420 1.350 . S
C423 C422 1.434 . S
C424 C425 1.369 1_655 S
C424 C426 1.419 . S
C424 H428 0.930 . S
C425 C424 1.369 1_455 S
C425 C434 1.429 . S
C426 C424 1.419 . S
C426 C427 1.363 1_655 S
C426 H429 0.929 . S
C427 C426 1.363 1_455 S
C427 C433 1.428 . S
H428 C424 0.930 . S
H429 C426 0.929 . S
S430 N431 1.613 . S
S430 N432 1.610 . S
N431 S430 1.613 . S
N431 C434 1.350 . S
N432 S430 1.610 . S
N432 C433 1.351 . S
C433 C427 1.428 . S
C433 N432 1.351 . S
C433 C434 1.434 . S
C434 C425 1.429 . S
C434 N431 1.350 . S
C434 C433 1.434 . S
C435 C436 1.369 . S
C435 C437 1.419 . S
C435 H439 0.930 . S
C436 C435 1.369 . S
C436 C445 1.429 1_545 S
C437 C435 1.419 . S
C437 C438 1.363 . S
C437 H440 0.929 . S
C438 C437 1.363 . S
C438 C444 1.428 1_545 S
H439 C435 0.930 . S
H440 C437 0.929 . S
S441 N442 1.613 . S
S441 N443 1.610 . S
N442 S441 1.613 . S
N442 C445 1.350 1_554 S
N443 S441 1.610 . S
N443 C444 1.351 1_554 S
C444 C438 1.428 1_565 S
C444 N443 1.351 1_556 S
C444 C445 1.434 . S
C445 C436 1.429 1_565 S
C445 N442 1.350 1_556 S
C445 C444 1.434 . S
C446 C447 1.369 . S
C446 C448 1.419 . S
C446 H450 0.930 . S
C447 C446 1.369 . S
C447 C456 1.429 . S
C448 C446 1.419 . S
C448 C449 1.363 . S
C448 H451 0.929 . S
C449 C448 1.363 . S
C449 C455 1.428 . S
H450 C446 0.930 . S
H451 C448 0.929 . S
S452 N453 1.612 1_554 S
S452 N454 1.610 . S
N453 S452 1.612 1_556 S
N453 C456 1.352 . S
N454 S452 1.610 . S
N454 C455 1.351 1_554 S
C455 C449 1.428 . S
C455 N454 1.351 1_556 S
C455 C456 1.434 . S
C456 C447 1.429 . S
C456 N453 1.352 . S
C456 C455 1.434 . S
C457 C458 1.369 . S
C457 C459 1.419 . S
C457 H461 0.930 1_556 S
C458 C457 1.369 . S
C458 C467 1.429 . S
C459 C457 1.419 . S
C459 C460 1.363 . S
C459 H462 0.929 1_556 S
C460 C459 1.363 . S
C460 C466 1.428 . S
H461 C457 0.930 1_554 S
H462 C459 0.929 1_554 S
S463 N464 1.613 . S
S463 N465 1.610 . S
N464 S463 1.613 . S
N464 C467 1.350 . S
N465 S463 1.610 . S
N465 C466 1.351 . S
C466 C460 1.428 . S
C466 N465 1.351 . S
C466 C467 1.434 . S
C467 C458 1.429 . S
C467 N464 1.350 . S
C467 C466 1.434 . S
C468 C469 1.369 . S
C468 C470 1.419 . S
C468 H472 0.930 . S
C469 C468 1.369 . S
C469 C478 1.429 1_655 S
C470 C468 1.419 . S
C470 C471 1.363 . S
C470 H473 0.929 . S
C471 C470 1.363 . S
C471 C477 1.428 1_655 S
H472 C468 0.930 . S
H473 C470 0.929 . S
S474 N475 1.613 1_554 S
S474 N476 1.610 1_554 S
N475 S474 1.613 1_556 S
N475 C478 1.350 . S
N476 S474 1.610 1_556 S
N476 C477 1.351 . S
C477 C471 1.428 1_455 S
C477 N476 1.351 . S
C477 C478 1.434 . S
C478 C469 1.429 1_455 S
C478 N475 1.350 . S
C478 C477 1.434 . S
C479 C480 1.369 . S
C479 C481 1.419 . S
C479 H483 0.930 . S
C480 C479 1.369 . S
C480 C489 1.429 1_565 S
C481 C479 1.419 . S
C481 C482 1.363 . S
C481 H484 0.929 . S
C482 C481 1.363 . S
C482 C488 1.428 1_565 S
H483 C479 0.930 . S
H484 C481 0.929 . S
S485 N486 1.613 . S
S485 N487 1.610 . S
N486 S485 1.613 . S
N486 C489 1.350 . S
N487 S485 1.610 . S
N487 C488 1.351 . S
C488 C482 1.428 1_545 S
C488 N487 1.351 . S
C488 C489 1.434 . S
C489 C480 1.429 1_545 S
C489 N486 1.350 . S
C489 C488 1.434 . S
C490 C491 1.369 . S
C490 C492 1.419 . S
C490 H494 0.930 . S
C491 C490 1.369 . S
C491 C500 1.429 . S
C492 C490 1.419 . S
C492 C493 1.363 . S
C492 H495 0.929 . S
C493 C492 1.363 . S
C493 C499 1.428 . S
H494 C490 0.930 . S
H495 C492 0.929 . S
S496 N497 1.613 . S
S496 N498 1.610 . S
N497 S496 1.613 . S
N497 C500 1.350 . S
N498 S496 1.610 . S
N498 C499 1.351 . S
C499 C493 1.428 . S
C499 N498 1.351 . S
C499 C500 1.434 . S
C500 C491 1.429 . S
C500 N497 1.350 . S
C500 C499 1.434 . S
C501 C502 1.369 . S
C501 C503 1.419 . S
C501 H505 0.930 . S
C502 C501 1.369 . S
C502 C511 1.429 . S
C503 C501 1.419 . S
C503 C504 1.363 . S
C503 H506 0.929 . S
C504 C503 1.363 . S
C504 C510 1.428 . S
H505 C501 0.930 . S
H506 C503 0.929 . S
S507 N508 1.613 . S
S507 N509 1.610 . S
N508 S507 1.613 . S
N508 C511 1.350 . S
N509 S507 1.610 . S
N509 C510 1.351 . S
C510 C504 1.428 . S
C510 N509 1.351 . S
C510 C511 1.434 . S
C511 C502 1.429 . S
C511 N508 1.350 . S
C511 C510 1.434 . S
C249 C76 1.938 . S
C251 C97 2.187 . S
C262 C137 2.210 . S
C260 C87 1.959 . S
C273 C177 2.224 . S
C271 C54 1.979 . S
C284 C217 2.201 1_455 S
C282 C65 1.954 1_455 S
C295 C106 2.189 1_554 S
C293 C32 1.929 1_545 S
C304 C43 1.960 . S
C306 C146 2.212 1_554 S
C315 C10 1.975 . S
C317 C186 2.224 1_554 S
C326 C21 1.943 . S
C328 C226 2.201 1_654 S
C339 C103 0.769 . S
C337 C60 0.784 1_655 S
C350 C143 0.785 . S
C348 C71 0.772 1_565 S
C361 C183 0.764 . S
C359 C82 0.775 . S
C370 C49 0.775 . S
C372 C223 0.759 . S
C381 C16 0.774 . S
C383 C94 0.789 . S
C394 C134 0.785 . S
C392 C27 0.769 . S
C405 C174 0.775 . S
C403 C38 0.755 . S
C414 C5 0.777 . S
C416 C214 0.761 . S
C425 C59 2.248 . S
C427 C107 2.569 . S
C436 C70 2.188 . S
C438 C147 2.520 . S
C449 C187 2.502 . S
C447 C81 2.170 . S
C460 C227 2.554 . S
C458 C48 2.226 . S
C469 C15 2.252 1_655 S
C471 C98 2.575 . S
C482 C138 2.519 . S
C480 C26 2.199 1_565 S
C493 C178 2.501 . S
C491 C37 2.192 . S
C502 C4 2.234 . S
C504 C218 2.559 . S
