# Generated by pormake.
# Topology nom, (4,4)-cn, num edge types: 1
# Building blocks:
#     Node 0, Type 0, BuildingBlock: NAHDIM_clean_linker_0, # of connection points: 4
#     Node 1, Type 0, BuildingBlock: NAHDIM_clean_linker_0, # of connection points: 4
#     Node 2, Type 0, BuildingBlock: NAHDIM_clean_linker_0, # of connection points: 4
#     Node 3, Type 0, BuildingBlock: NAHDIM_clean_linker_0, # of connection points: 4
#     Node 4, Type 0, BuildingBlock: NAHDIM_clean_linker_0, # of connection points: 4
#     Node 5, Type 0, BuildingBlock: NAHDIM_clean_linker_0, # of connection points: 4
#     Node 6, Type 1, BuildingBlock: UXUYUI_clean_sbu_0, # of connection points: 4
#     Node 7, Type 1, BuildingBlock: UXUYUI_clean_sbu_0, # of connection points: 4
#     Node 8, Type 1, BuildingBlock: UXUYUI_clean_sbu_0, # of connection points: 4
#     Node 9, Type 1, BuildingBlock: UXUYUI_clean_sbu_0, # of connection points: 4
#     Node 10, Type 1, BuildingBlock: UXUYUI_clean_sbu_0, # of connection points: 4
#     Node 11, Type 1, BuildingBlock: UXUYUI_clean_sbu_0, # of connection points: 4
#     Edge 12, Type (0, 1), BuildingBlock: KIFKEQ_clean_linker_1, # of connection points: 2
#     Edge 13, Type (0, 1), BuildingBlock: KIFKEQ_clean_linker_1, # of connection points: 2
#     Edge 14, Type (0, 1), BuildingBlock: KIFKEQ_clean_linker_1, # of connection points: 2
#     Edge 15, Type (0, 1), BuildingBlock: KIFKEQ_clean_linker_1, # of connection points: 2
#     Edge 16, Type (0, 1), BuildingBlock: KIFKEQ_clean_linker_1, # of connection points: 2
#     Edge 17, Type (0, 1), BuildingBlock: KIFKEQ_clean_linker_1, # of connection points: 2
#     Edge 18, Type (0, 1), BuildingBlock: KIFKEQ_clean_linker_1, # of connection points: 2
#     Edge 19, Type (0, 1), BuildingBlock: KIFKEQ_clean_linker_1, # of connection points: 2
#     Edge 20, Type (0, 1), BuildingBlock: KIFKEQ_clean_linker_1, # of connection points: 2
#     Edge 21, Type (0, 1), BuildingBlock: KIFKEQ_clean_linker_1, # of connection points: 2
#     Edge 22, Type (0, 1), BuildingBlock: KIFKEQ_clean_linker_1, # of connection points: 2
#     Edge 23, Type (0, 1), BuildingBlock: KIFKEQ_clean_linker_1, # of connection points: 2
#     Edge 24, Type (0, 1), BuildingBlock: KIFKEQ_clean_linker_1, # of connection points: 2
#     Edge 25, Type (0, 1), BuildingBlock: KIFKEQ_clean_linker_1, # of connection points: 2
#     Edge 26, Type (0, 1), BuildingBlock: KIFKEQ_clean_linker_1, # of connection points: 2
#     Edge 27, Type (0, 1), BuildingBlock: KIFKEQ_clean_linker_1, # of connection points: 2
#     Edge 28, Type (0, 1), BuildingBlock: KIFKEQ_clean_linker_1, # of connection points: 2
#     Edge 29, Type (0, 1), BuildingBlock: KIFKEQ_clean_linker_1, # of connection points: 2
#     Edge 30, Type (0, 1), BuildingBlock: KIFKEQ_clean_linker_1, # of connection points: 2
#     Edge 31, Type (0, 1), BuildingBlock: KIFKEQ_clean_linker_1, # of connection points: 2
#     Edge 32, Type (0, 1), BuildingBlock: KIFKEQ_clean_linker_1, # of connection points: 2
#     Edge 33, Type (0, 1), BuildingBlock: KIFKEQ_clean_linker_1, # of connection points: 2
#     Edge 34, Type (0, 1), BuildingBlock: KIFKEQ_clean_linker_1, # of connection points: 2
#     Edge 35, Type (0, 1), BuildingBlock: KIFKEQ_clean_linker_1, # of connection points: 2
# Relax obj value: 0.085
# Max RMSD: 0.155
# Mean RMSD: 0.138
data_MOF--net-nom--node1-UXUYUI_clean_sbu_0--node2-NAHDIM_clean_linker_0--edge1-KIFKEQ_clean_linker_1
_symmetry_space_group_name_H-M    P1
_symmetry_Int_Tables_number       1
_symmetry_cell_setting            triclinic
loop_
_symmetry_equiv_pos_as_xyz
'x, y, z'
_cell_length_a     67.920987
_cell_length_b     67.920131
_cell_length_c     82.99709
_cell_angle_alpha  90.096114
_cell_angle_beta   90.087282
_cell_angle_gamma 120.00581
loop_
_atom_site_label
_atom_site_type_symbol
_atom_site_fract_x
_atom_site_fract_y
_atom_site_fract_z
_atom_type_partial_charge
C0 C 0.14698 0.57364 0.25315 0.0
C1 C 0.15497 0.58511 0.26968 0.0
C2 C 0.1186 0.57612 0.28232 0.0
C3 C 0.11082 0.55293 0.28507 0.0
C4 C 0.08884 0.5385 0.29097 0.0
C5 C 0.07434 0.54737 0.29418 0.0
C6 C 0.08229 0.57077 0.29183 0.0
C7 C 0.10438 0.58485 0.28599 0.0
C8 C 0.08093 0.51363 0.29349 0.0
C9 C 0.06726 0.58078 0.2952 0.0
C10 C 0.94273 0.46094 0.20859 0.0
C11 C 0.96035 0.46799 0.22139 0.0
C12 C 0.96666 0.4783 0.24961 0.0
C13 C 0.96642 0.49525 0.25899 0.0
C14 C 0.98102 0.50462 0.27229 0.0
C15 C 0.99547 0.49603 0.27664 0.0
C16 C 0.99508 0.47819 0.26753 0.0
C17 C 0.98079 0.46964 0.25402 0.0
C18 C 0.98129 0.52395 0.28148 0.0
C19 C 0.00986 0.46826 0.27201 0.0
C20 C 0.91294 0.44219 0.36492 0.0
C21 C 0.92049 0.46478 0.36054 0.0
C22 C 0.94372 0.48015 0.35828 0.0
C23 C 0.95958 0.47253 0.36006 0.0
C24 C 0.95203 0.44999 0.36519 0.0
C25 C 0.92875 0.43519 0.36782 0.0
C26 C 0.95119 0.50433 0.35356 0.0
C27 C 0.96842 0.44129 0.36733 0.0
C28 C 0.12458 0.58025 0.40255 0.0
C29 C 0.11105 0.55819 0.41208 0.0
C30 C 0.07234 0.54268 0.40216 0.0
C31 C 0.05882 0.55206 0.39805 0.0
C32 C 0.04239 0.5424 0.38581 0.0
C33 C 0.03913 0.52256 0.37782 0.0
C34 C 0.052 0.51235 0.38252 0.0
C35 C 0.06854 0.52257 0.39463 0.0
C36 C 0.02886 0.55363 0.38116 0.0
C37 C 0.0484 0.49075 0.37463 0.0
C38 C 0.05044 0.53189 0.29905 0.0
C39 C 0.0343 0.52152 0.28682 0.0
C40 C 0.01155 0.5062 0.29036 0.0
C41 C 0.00458 0.50097 0.30658 0.0
C42 C 0.98197 0.48515 0.31057 0.0
C43 C 0.97514 0.4806 0.32657 0.0
C44 C 0.99068 0.49167 0.33922 0.0
C45 C 0.98375 0.48765 0.35553 0.0
C46 C -0.00017 0.49815 0.3678 0.0
C47 C 0.02276 0.51282 0.36424 0.0
C48 C 0.02986 0.5177 0.348 0.0
C49 C 0.05267 0.53292 0.34399 0.0
C50 C 0.05949 0.53757 0.32797 0.0
C51 C 0.04375 0.52722 0.31536 0.0
C52 C 0.02069 0.51176 0.31912 0.0
C53 C 0.01374 0.50705 0.33546 0.0
C54 C 0.86182 0.39953 0.34887 0.0
C55 C 0.87421 0.42413 0.35488 0.0
O56 O 0.1394 0.59059 0.27598 0.0
O57 O 0.08868 0.55321 0.41357 0.0
O58 O 0.89048 0.42674 0.36611 0.0
O59 O 0.95304 0.47053 0.23644 0.0
H60 H 0.15691 0.57339 0.27802 0.0
H61 H 0.13064 0.55743 0.25423 0.0
H62 H 0.14449 0.58489 0.2447 0.0
H63 H 0.15973 0.56972 0.248 0.0
H64 H 0.12159 0.54582 0.28249 0.0
H65 H 0.11053 0.60276 0.28395 0.0
H66 H 0.06656 0.5032 0.28521 0.0
H67 H 0.09465 0.50957 0.2913 0.0
H68 H 0.07462 0.50865 0.306 0.0
H69 H 0.07618 0.59944 0.29317 0.0
H70 H 0.05201 0.57257 0.2873 0.0
H71 H 0.06126 0.57729 0.30787 0.0
H72 H 0.9696 0.4583 0.22155 0.0
H73 H 0.95583 0.48904 0.19321 0.0
H74 H 0.93939 0.44371 0.20451 0.0
H75 H 0.92589 0.45415 0.21491 0.0
H76 H 0.95526 0.50165 0.25554 0.0
H77 H 0.98046 0.45598 0.24706 0.0
H78 H 0.97432 0.51812 0.29373 0.0
H79 H 0.99901 0.53822 0.28285 0.0
H80 H 0.97101 0.53038 0.27542 0.0
H81 H 0.00521 0.45243 0.26518 0.0
H82 H 0.02788 0.48086 0.2694 0.0
H83 H 0.00851 0.46448 0.2851 0.0
H84 H 0.88243 0.43499 0.34413 0.0
H85 H 0.90819 0.47032 0.3588 0.0
H86 H 0.92267 0.41776 0.37143 0.0
H87 H 0.95553 0.50667 0.34056 0.0
H88 H 0.93764 0.50865 0.35569 0.0
H89 H 0.96663 0.51643 0.36042 0.0
H90 H 0.95962 0.4229 0.37032 0.0
H91 H 0.97844 0.44412 0.35615 0.0
H92 H 0.98057 0.45088 0.37718 0.0
H93 H 0.1119 0.5444 0.40544 0.0
H94 H 0.14257 0.58452 0.4013 0.0
H95 H 0.11722 0.57819 0.39029 0.0
H96 H 0.12406 0.59454 0.40869 0.0
H97 H 0.06167 0.56739 0.40415 0.0
H98 H 0.07828 0.51468 0.3983 0.0
H99 H 0.03121 0.55793 0.36814 0.0
H100 H 0.01049 0.54163 0.38314 0.0
H101 H 0.03393 0.56939 0.3882 0.0
H102 H 0.05828 0.48383 0.38063 0.0
H103 H 0.03008 0.47763 0.37486 0.0
H104 H 0.05366 0.49415 0.36182 0.0
H105 H 0.03955 0.52537 0.27433 0.0
H106 H 0.96925 0.47616 0.30136 0.0
H107 H 0.95749 0.46829 0.32888 0.0
H108 H 0.99447 0.49478 0.38029 0.0
H109 H 0.06552 0.54149 0.35319 0.0
H110 H 0.07725 0.54944 0.3256 0.0
H111 H 0.85343 0.38754 0.359 0.0
H112 H 0.84876 0.39704 0.33975 0.0
H113 H 0.87416 0.39549 0.34315 0.0
C114 C 0.42849 0.85134 0.54164 0.0
C115 C 0.44886 0.87406 0.53902 0.0
C116 C 0.45889 0.91374 0.53529 0.0
C117 C 0.48215 0.92194 0.5325 0.0
C118 C 0.49701 0.94506 0.52932 0.0
C119 C 0.48838 0.96017 0.52861 0.0
C120 C 0.46495 0.9519 0.53118 0.0
C121 C 0.45055 0.92879 0.53459 0.0
C122 C 0.52196 0.95339 0.52683 0.0
C123 C 0.45514 0.9675 0.53041 0.0
C124 C 0.55443 0.10692 0.61144 0.0
C125 C 0.54155 0.09086 0.59812 0.0
C126 C 0.54458 0.06493 0.5792 0.0
C127 C 0.52587 0.06138 0.56973 0.0
C128 C 0.51968 0.04767 0.55589 0.0
C129 C 0.53258 0.03747 0.5513 0.0
C130 C 0.55144 0.04102 0.56075 0.0
C131 C 0.55714 0.05466 0.57463 0.0
C132 C 0.49931 0.04404 0.54618 0.0
C133 C 0.56557 0.03044 0.55613 0.0
C134 C 0.59409 0.13098 0.46794 0.0
C135 C 0.57065 0.12141 0.47043 0.0
C136 C 0.55652 0.09776 0.47171 0.0
C137 C 0.56618 0.08351 0.47076 0.0
C138 C 0.5897 0.09314 0.46765 0.0
C139 C 0.6033 0.11679 0.46603 0.0
C140 C 0.53137 0.08806 0.47435 0.0
C141 C 0.60059 0.07851 0.46646 0.0
C142 C 0.5002 0.92367 0.42037 0.0
C143 C 0.51137 0.94223 0.4075 0.0
C144 C 0.51312 0.97456 0.42226 0.0
C145 C 0.50134 0.98621 0.42508 0.0
C146 C 0.50713 0.00149 0.43803 0.0
C147 C 0.52547 0.00547 0.44823 0.0
C148 C 0.5381 0.99449 0.44506 0.0
C149 C 0.5317 0.97903 0.4322 0.0
C150 C 0.49335 0.01296 0.44105 0.0
C151 C 0.55817 0.9988 0.45542 0.0
C152 C 0.5039 0.98472 0.52549 0.0
C153 C 0.5118 0.99943 0.53873 0.0
C154 C 0.52604 0.02282 0.53672 0.0
C155 C 0.5329 0.03189 0.52108 0.0
C156 C 0.54742 0.05531 0.51864 0.0
C157 C 0.55374 0.06413 0.50318 0.0
C158 C 0.5458 0.04987 0.48955 0.0
C159 C 0.55188 0.05871 0.47376 0.0
C160 C 0.5446 0.04391 0.46054 0.0
C161 C 0.53101 0.02042 0.46261 0.0
C162 C 0.52385 0.01139 0.47824 0.0
C163 C 0.50927 0.98796 0.48069 0.0
C164 C 0.50258 0.97919 0.49612 0.0
C165 C 0.5104 0.99348 0.50973 0.0
C166 C 0.52497 0.01716 0.50753 0.0
C167 C 0.53151 0.02615 0.49176 0.0
C168 C 0.6298 0.18293 0.48619 0.0
C169 C 0.60721 0.16971 0.47717 0.0
O170 O 0.44401 0.8916 0.53875 0.0
O171 O 0.50582 0.95909 0.41002 0.0
O172 O 0.60823 0.1538 0.46724 0.0
O173 O 0.55105 0.07812 0.59271 0.0
H174 H 0.46376 0.87778 0.54678 0.0
H175 H 0.4147 0.8544 0.54639 0.0
H176 H 0.42532 0.83409 0.52002 0.0
H177 H 0.43159 0.84543 0.55356 0.0
H178 H 0.48887 0.91049 0.53291 0.0
H179 H 0.4326 0.9223 0.53671 0.0
H180 H 0.53231 0.96776 0.53515 0.0
H181 H 0.52626 0.9398 0.52884 0.0
H182 H 0.52682 0.95981 0.51434 0.0
H183 H 0.43629 0.95807 0.53124 0.0
H184 H 0.46208 0.97992 0.54049 0.0
H185 H 0.4602 0.97728 0.51898 0.0
H186 H 0.52284 0.0804 0.60014 0.0
H187 H 0.54258 0.10076 0.62207 0.0
H188 H 0.56626 0.10133 0.6165 0.0
H189 H 0.56604 0.13896 0.60107 0.0
H190 H 0.51593 0.06918 0.57307 0.0
H191 H 0.57154 0.05749 0.58196 0.0
H192 H 0.50482 0.05108 0.53389 0.0
H193 H 0.4871 0.02556 0.54488 0.0
H194 H 0.4904 0.05227 0.55178 0.0
H195 H 0.58032 0.03566 0.56433 0.0
H196 H 0.55485 0.01163 0.5564 0.0
H197 H 0.57192 0.03535 0.54362 0.0
H198 H 0.59372 0.16118 0.48646 0.0
H199 H 0.56339 0.1324 0.47129 0.0
H200 H 0.62138 0.1244 0.46384 0.0
H201 H 0.52703 0.08185 0.48692 0.0
H202 H 0.52605 0.10089 0.47229 0.0
H203 H 0.52146 0.07335 0.46618 0.0
H204 H 0.61936 0.08878 0.46519 0.0
H205 H 0.59654 0.06768 0.47735 0.0
H206 H 0.59358 0.06704 0.45587 0.0
H207 H 0.53014 0.94977 0.40802 0.0
H208 H 0.50436 0.91 0.41824 0.0
H209 H 0.50648 0.93082 0.43256 0.0
H210 H 0.48142 0.91614 0.42013 0.0
H211 H 0.48715 0.98283 0.4173 0.0
H212 H 0.54129 0.97049 0.43012 0.0
H213 H 0.48639 0.00921 0.45347 0.0
H214 H 0.50449 0.03167 0.44008 0.0
H215 H 0.47904 0.00738 0.43238 0.0
H216 H 0.56794 0.99123 0.45019 0.0
H217 H 0.56978 0.01736 0.45704 0.0
H218 H 0.55207 0.99133 0.46753 0.0
H219 H 0.50653 0.99261 0.55077 0.0
H220 H 0.55404 0.0671 0.52866 0.0
H221 H 0.56499 0.08229 0.50207 0.0
H222 H 0.5498 0.05074 0.4485 0.0
H223 H 0.50277 0.97613 0.47068 0.0
H224 H 0.49127 0.96104 0.49726 0.0
H225 H 0.64408 0.19197 0.47758 0.0
H226 H 0.62938 0.19553 0.49453 0.0
H227 H 0.63295 0.17101 0.49342 0.0
C228 C 0.58593 0.46295 0.73467 0.0
C229 C 0.59048 0.45518 0.71841 0.0
C230 C 0.5675 0.46561 0.70133 0.0
C231 C 0.58279 0.48916 0.70092 0.0
C232 C 0.57578 0.50422 0.69541 0.0
C233 C 0.55304 0.49558 0.6903 0.0
C234 C 0.53786 0.47182 0.69013 0.0
C235 C 0.54543 0.45714 0.69546 0.0
C236 C 0.5925 0.52943 0.69547 0.0
C237 C 0.51343 0.462 0.68489 0.0
C238 C 0.46987 0.55566 0.77295 0.0
C239 C 0.47394 0.54478 0.75875 0.0
C240 C 0.5036 0.55064 0.7396 0.0
C241 C 0.48889 0.53277 0.72932 0.0
C242 C 0.4971 0.52757 0.71542 0.0
C243 C 0.52045 0.54063 0.71157 0.0
C244 C 0.53527 0.55882 0.72173 0.0
C245 C 0.52663 0.56356 0.73565 0.0
C246 C 0.48082 0.50788 0.70493 0.0
C247 C 0.56024 0.57311 0.7179 0.0
C248 C 0.48961 0.60135 0.6283 0.0
C249 C 0.47548 0.57827 0.63191 0.0
C250 C 0.48437 0.56357 0.63287 0.0
C251 C 0.50798 0.57234 0.63055 0.0
C252 C 0.52201 0.59539 0.62614 0.0
C253 C 0.51251 0.60953 0.62482 0.0
C254 C 0.46861 0.53884 0.6368 0.0
C255 C 0.54717 0.60528 0.62337 0.0
C256 C 0.55346 0.46123 0.58218 0.0
C257 C 0.56733 0.4842 0.57373 0.0
C258 C 0.54895 0.50469 0.58301 0.0
C259 C 0.52637 0.49608 0.58765 0.0
C260 C 0.52084 0.50577 0.60056 0.0
C261 C 0.53835 0.52496 0.60863 0.0
C262 C 0.56112 0.53451 0.60332 0.0
C263 C 0.56621 0.52408 0.59065 0.0
C264 C 0.49638 0.49515 0.60586 0.0
C265 C 0.58011 0.55547 0.61121 0.0
C266 C 0.54462 0.51146 0.68661 0.0
C267 C 0.53807 0.51994 0.69962 0.0
C268 C 0.52936 0.53447 0.69727 0.0
C269 C 0.52748 0.54119 0.6815 0.0
C270 C 0.51937 0.5563 0.67875 0.0
C271 C 0.51675 0.56213 0.66316 0.0
C272 C 0.52183 0.55283 0.64971 0.0
C273 C 0.51818 0.55781 0.6338 0.0
C274 C 0.52385 0.54863 0.62071 0.0
C275 C 0.53297 0.53438 0.62305 0.0
C276 C 0.53638 0.5289 0.63888 0.0
C277 C 0.54511 0.51427 0.64171 0.0
C278 C 0.54821 0.50884 0.65732 0.0
C279 C 0.54231 0.51748 0.67071 0.0
C280 C 0.53364 0.53238 0.66816 0.0
C281 C 0.53072 0.53812 0.65224 0.0
C282 C 0.47774 0.64041 0.64697 0.0
C283 C 0.46694 0.61658 0.63961 0.0
O284 O 0.57309 0.45054 0.70758 0.0
O285 O 0.55382 0.4939 0.57128 0.0
O286 O 0.48168 0.61613 0.62825 0.0
O287 O 0.49624 0.55582 0.75336 0.0
H288 H 0.60691 0.46873 0.71343 0.0
H289 H 0.58563 0.47904 0.73331 0.0
H290 H 0.5693 0.4498 0.73962 0.0
H291 H 0.59957 0.46607 0.74345 0.0
H292 H 0.60009 0.49598 0.70508 0.0
H293 H 0.53384 0.43894 0.69566 0.0
H294 H 0.58762 0.53775 0.70493 0.0
H295 H 0.61017 0.53327 0.69788 0.0
H296 H 0.59205 0.53698 0.68371 0.0
H297 H 0.50365 0.44317 0.68584 0.0
H298 H 0.50501 0.46918 0.69243 0.0
H299 H 0.51277 0.4668 0.67221 0.0
H300 H 0.46657 0.526 0.75977 0.0
H301 H 0.46476 0.54281 0.78292 0.0
H302 H 0.48707 0.56768 0.77828 0.0
H303 H 0.44809 0.56655 0.76393 0.0
H304 H 0.47099 0.52265 0.7321 0.0
H305 H 0.53786 0.57736 0.74358 0.0
H306 H 0.48001 0.5142 0.69276 0.0
H307 H 0.48702 0.49564 0.70347 0.0
H308 H 0.46336 0.49872 0.70999 0.0
H309 H 0.56922 0.58765 0.72637 0.0
H310 H 0.56832 0.5624 0.71854 0.0
H311 H 0.56244 0.57976 0.70542 0.0
H312 H 0.46437 0.60473 0.64971 0.0
H313 H 0.45754 0.57178 0.63403 0.0
H314 H 0.52314 0.62732 0.62176 0.0
H315 H 0.47102 0.53574 0.64959 0.0
H316 H 0.45048 0.53383 0.63503 0.0
H317 H 0.47254 0.52778 0.6292 0.0
H318 H 0.55595 0.62385 0.62096 0.0
H319 H 0.55512 0.60223 0.63406 0.0
H320 H 0.54986 0.59669 0.61292 0.0
H321 H 0.58209 0.49546 0.58155 0.0
H322 H 0.56405 0.45322 0.58424 0.0
H323 H 0.54751 0.46366 0.59408 0.0
H324 H 0.53839 0.44959 0.57479 0.0
H325 H 0.5132 0.4812 0.58151 0.0
H326 H 0.58362 0.53101 0.58668 0.0
H327 H 0.49498 0.49089 0.61887 0.0
H328 H 0.49039 0.50752 0.60422 0.0
H329 H 0.485 0.47947 0.59894 0.0
H330 H 0.59619 0.56258 0.60426 0.0
H331 H 0.57524 0.56875 0.61251 0.0
H332 H 0.58326 0.55113 0.62347 0.0
H333 H 0.53928 0.51472 0.71177 0.0
H334 H 0.51492 0.56374 0.68864 0.0
H335 H 0.51046 0.57387 0.66182 0.0
H336 H 0.521 0.5525 0.60855 0.0
H337 H 0.5496 0.50679 0.63188 0.0
H338 H 0.55503 0.49755 0.65877 0.0
H339 H 0.4812 0.65332 0.63753 0.0
H340 H 0.46631 0.6412 0.6562 0.0
H341 H 0.49408 0.64465 0.65288 0.0
C342 C 0.14545 0.58668 0.90494 0.0
C343 C 0.15242 0.58255 0.88826 0.0
C344 C 0.11551 0.55556 0.87597 0.0
C345 C 0.10821 0.57135 0.87323 0.0
C346 C 0.08641 0.56431 0.8671 0.0
C347 C 0.07155 0.54103 0.86371 0.0
C348 C 0.07895 0.52515 0.86616 0.0
C349 C 0.1009 0.53268 0.8722 0.0
C350 C 0.0791 0.58171 0.86444 0.0
C351 C 0.06353 0.50022 0.86261 0.0
C352 C 0.93519 0.5033 0.94506 0.0
C353 C 0.9511 0.51527 0.93154 0.0
C354 C 0.96277 0.50678 0.90583 0.0
C355 C 0.96152 0.48915 0.89639 0.0
C356 C 0.97659 0.49358 0.88355 0.0
C357 C 0.99273 0.51637 0.87967 0.0
C358 C 0.99374 0.53436 0.88897 0.0
C359 C 0.97897 0.52937 0.90208 0.0
C360 C 0.97542 0.47387 0.87429 0.0
C361 C 0.01057 0.55889 0.88519 0.0
C362 C 0.91407 0.49207 0.78894 0.0
C363 C 0.92065 0.47642 0.79376 0.0
C364 C 0.94356 0.48351 0.79681 0.0
C365 C 0.9601 0.50685 0.79542 0.0
C366 C 0.95356 0.52248 0.78991 0.0
C367 C 0.93059 0.51476 0.78647 0.0
C368 C 0.94997 0.46612 0.80188 0.0
C369 C 0.97069 0.54745 0.78816 0.0
C370 C 0.12505 0.56184 0.75448 0.0
C371 C 0.11156 0.57047 0.74496 0.0
C372 C 0.07296 0.54752 0.75511 0.0
C373 C 0.05886 0.52456 0.75877 0.0
C374 C 0.04244 0.51779 0.77097 0.0
C375 C 0.03979 0.53445 0.77938 0.0
C376 C 0.05335 0.55766 0.7752 0.0
C377 C 0.06985 0.56396 0.76313 0.0
C378 C 0.02817 0.4929 0.77504 0.0
C379 C 0.05041 0.57579 0.78354 0.0
C380 C 0.04791 0.53322 0.85836 0.0
C381 C 0.03145 0.52776 0.87026 0.0
C382 C 0.00906 0.52144 0.86626 0.0
C383 C 0.00277 0.52038 0.84989 0.0
C384 C 0.9806 0.51477 0.84541 0.0
C385 C 0.97442 0.51316 0.82927 0.0
C386 C 0.99022 0.51722 0.81696 0.0
C387 C 0.98394 0.51501 0.8005 0.0
C388 C 0.00037 0.52038 0.78858 0.0
C389 C 0.02299 0.52771 0.79263 0.0
C390 C 0.02939 0.52908 0.809 0.0
C391 C 0.05182 0.5356 0.81349 0.0
C392 C 0.05795 0.53699 0.82964 0.0
C393 C 0.04188 0.53186 0.84192 0.0
C394 C 0.01918 0.5253 0.83768 0.0
C395 C 0.01292 0.52384 0.8212 0.0
C396 C 0.86044 0.4826 0.80168 0.0
C397 C 0.87462 0.47159 0.7973 0.0
O398 O 0.13623 0.56145 0.88234 0.0
O399 O 0.08908 0.55323 0.74359 0.0
O400 O 0.89187 0.48582 0.78694 0.0
O401 O 0.94824 0.50132 0.91847 0.0
H402 H 0.15421 0.59611 0.87988 0.0
H403 H 0.12919 0.58678 0.90419 0.0
H404 H 0.1432 0.57312 0.91348 0.0
H405 H 0.15864 0.60343 0.90977 0.0
H406 H 0.11922 0.58916 0.87595 0.0
H407 H 0.10666 0.52062 0.87427 0.0
H408 H 0.06455 0.57794 0.87243 0.0
H409 H 0.09301 0.59933 0.86691 0.0
H410 H 0.07326 0.58075 0.85181 0.0
H411 H 0.072 0.49009 0.86483 0.0
H412 H 0.04811 0.49346 0.87026 0.0
H413 H 0.05786 0.49793 0.84985 0.0
H414 H 0.95235 0.53171 0.92809 0.0
H415 H 0.95654 0.50441 0.96363 0.0
H416 H 0.92444 0.51159 0.94609 0.0
H417 H 0.92105 0.48688 0.93998 0.0
H418 H 0.94901 0.47179 0.8994 0.0
H419 H 0.9801 0.54323 0.90922 0.0
H420 H 0.96838 0.47313 0.86209 0.0
H421 H 0.99269 0.47618 0.8728 0.0
H422 H 0.96445 0.45735 0.88036 0.0
H423 H 0.0065 0.5708 0.89159 0.0
H424 H 0.02781 0.56273 0.88896 0.0
H425 H 0.01101 0.56204 0.87203 0.0
H426 H 0.88193 0.46971 0.80886 0.0
H427 H 0.90785 0.4587 0.79521 0.0
H428 H 0.92528 0.5266 0.78253 0.0
H429 H 0.95352 0.46772 0.81502 0.0
H430 H 0.93614 0.44847 0.79937 0.0
H431 H 0.96562 0.46905 0.79558 0.0
H432 H 0.96255 0.55765 0.78507 0.0
H433 H 0.98047 0.55415 0.79953 0.0
H434 H 0.98297 0.54977 0.77851 0.0
H435 H 0.11272 0.58529 0.75152 0.0
H436 H 0.14313 0.57544 0.75562 0.0
H437 H 0.11789 0.55679 0.76679 0.0
H438 H 0.12423 0.54685 0.7484 0.0
H439 H 0.06117 0.51199 0.75231 0.0
H440 H 0.07999 0.58168 0.75982 0.0
H441 H 0.02995 0.49029 0.78805 0.0
H442 H 0.00998 0.48712 0.77272 0.0
H443 H 0.03304 0.48215 0.76788 0.0
H444 H 0.06097 0.59281 0.77802 0.0
H445 H 0.03229 0.57131 0.78308 0.0
H446 H 0.05525 0.57679 0.79642 0.0
H447 H 0.03623 0.52873 0.88284 0.0
H448 H 0.96771 0.51145 0.85435 0.0
H449 H 0.95707 0.50867 0.82658 0.0
H450 H 0.99551 0.51898 0.77599 0.0
H451 H 0.06489 0.53965 0.80456 0.0
H452 H 0.07545 0.54207 0.83239 0.0
H453 H 0.85304 0.48579 0.79072 0.0
H454 H 0.84645 0.47145 0.80999 0.0
H455 H 0.87135 0.49911 0.80784 0.0
C456 C 0.45518 0.89801 0.92448 0.0
C457 C 0.45518 0.88818 0.94114 0.0
C458 C 0.48008 0.92375 0.95572 0.0
C459 C 0.46433 0.93139 0.95692 0.0
C460 C 0.47127 0.95367 0.96193 0.0
C461 C 0.49435 0.96855 0.96586 0.0
C462 C 0.51 0.96057 0.96543 0.0
C463 C 0.50258 0.93819 0.96045 0.0
C464 C 0.45409 0.96157 0.96253 0.0
C465 C 0.53473 0.97595 0.96964 0.0
C466 C 0.57781 0.10387 0.87873 0.0
C467 C 0.57267 0.08903 0.8931 0.0
C468 C 0.54363 0.06961 0.91362 0.0
C469 C 0.55779 0.06552 0.92379 0.0
C470 C 0.54946 0.05325 0.93812 0.0
C471 C 0.52646 0.04475 0.94239 0.0
C472 C 0.51219 0.04902 0.93233 0.0
C473 C 0.52102 0.0615 0.91807 0.0
C474 C 0.5652 0.04908 0.9486 0.0
C475 C 0.48762 0.04021 0.9366 0.0
C476 C 0.55508 0.14079 0.02198 0.0
C477 C 0.56965 0.13195 0.01976 0.0
C478 C 0.56112 0.10839 0.01981 0.0
C479 C 0.53748 0.09344 0.02178 0.0
C480 C 0.52298 0.10239 0.02485 0.0
C481 C 0.53209 0.12604 0.02514 0.0
C482 C 0.57727 0.09949 0.01724 0.0
C483 C 0.49775 0.08697 0.02717 0.0
C484 C 0.50659 0.94597 0.07547 0.0
C485 C 0.48868 0.95106 0.0824 0.0
C486 C 0.50191 0.98898 0.07273 0.0
C487 C 0.52412 0.00361 0.06762 0.0
C488 C 0.52838 0.01773 0.05421 0.0
C489 C 0.50993 0.0176 0.04611 0.0
C490 C 0.4875 0.00368 0.05188 0.0
C491 C 0.48371 0.98925 0.06504 0.0
C492 C 0.55252 0.03233 0.04845 0.0
C493 C 0.46751 0.00373 0.04396 0.0
C494 C 0.50252 0.99298 0.96881 0.0
C495 C 0.50878 0.00718 0.95537 0.0
C496 C 0.51732 0.03052 0.95702 0.0
C497 C 0.51909 0.04001 0.97248 0.0
C498 C 0.527 0.06332 0.97451 0.0
C499 C 0.52938 0.07264 0.98981 0.0
C500 C 0.52436 0.05908 0.00369 0.0
C501 C 0.52775 0.06861 0.01932 0.0
C502 C 0.52249 0.05465 0.03285 0.0
C503 C 0.51409 0.03127 0.03124 0.0
C504 C 0.51073 0.02144 0.01569 0.0
C505 C 0.5026 0.99803 0.01359 0.0
C506 C 0.49952 0.98858 0.99825 0.0
C507 C 0.50487 0.00223 0.98443 0.0
C508 C 0.51312 0.02585 0.98626 0.0
C509 C 0.51593 0.03543 0.0019 0.0
C510 C 0.57082 0.1932 0.00247 0.0
C511 C 0.57905 0.17819 0.01025 0.0
O512 O 0.47456 0.90294 0.94974 0.0
O513 O 0.4982 0.97425 0.08487 0.0
O514 O 0.56261 0.16339 0.02091 0.0
O515 O 0.55115 0.08116 0.89949 0.0
H516 H 0.43985 0.88525 0.94794 0.0
H517 H 0.45454 0.91395 0.92565 0.0
H518 H 0.47077 0.9018 0.9177 0.0
H519 H 0.44003 0.88572 0.91744 0.0
H520 H 0.4467 0.92029 0.95369 0.0
H521 H 0.51455 0.93207 0.95968 0.0
H522 H 0.45814 0.9746 0.95309 0.0
H523 H 0.43644 0.94742 0.96058 0.0
H524 H 0.45503 0.96965 0.97437 0.0
H525 H 0.5445 0.96684 0.96945 0.0
H526 H 0.5425 0.99019 0.96091 0.0
H527 H 0.53626 0.98344 0.98179 0.0
H528 H 0.57707 0.07531 0.89183 0.0
H529 H 0.58001 0.09416 0.86855 0.0
H530 H 0.56103 0.1013 0.8742 0.0
H531 H 0.60416 0.13543 0.88672 0.0
H532 H 0.57536 0.07173 0.92062 0.0
H533 H 0.51021 0.06478 0.91022 0.0
H534 H 0.56566 0.05554 0.96097 0.0
H535 H 0.55869 0.03053 0.94949 0.0
H536 H 0.58282 0.0574 0.94384 0.0
H537 H 0.47891 0.0456 0.9278 0.0
H538 H 0.47849 0.02134 0.93704 0.0
H539 H 0.48648 0.04639 0.94877 0.0
H540 H 0.5813 0.1685 0.00026 0.0
H541 H 0.58764 0.14343 0.01787 0.0
H542 H 0.52109 0.13311 0.02711 0.0
H543 H 0.575 0.09245 0.00487 0.0
H544 H 0.59531 0.11304 0.01872 0.0
H545 H 0.57354 0.08554 0.02584 0.0
H546 H 0.48871 0.09663 0.02906 0.0
H547 H 0.49036 0.07579 0.01646 0.0
H548 H 0.49471 0.07584 0.03776 0.0
H549 H 0.47439 0.94509 0.0736 0.0
H550 H 0.49922 0.92739 0.07359 0.0
H551 H 0.51261 0.95446 0.06363 0.0
H552 H 0.5214 0.95224 0.08376 0.0
H553 H 0.53802 0.00328 0.0738 0.0
H554 H 0.46658 0.97806 0.06931 0.0
H555 H 0.55372 0.02906 0.03548 0.0
H556 H 0.55765 0.05054 0.04976 0.0
H557 H 0.56471 0.02916 0.05532 0.0
H558 H 0.45181 0.99468 0.05131 0.0
H559 H 0.47132 0.02145 0.04191 0.0
H560 H 0.46422 0.99522 0.03204 0.0
H561 H 0.50759 5e-05 0.94345 0.0
H562 H 0.53141 0.07462 0.96428 0.0
H563 H 0.53546 0.09069 0.9906 0.0
H564 H 0.52529 0.06212 0.0448 0.0
H565 H 0.49855 0.98673 0.02377 0.0
H566 H 0.49315 0.97048 0.99735 0.0
H567 H 0.58361 0.20508 0.99373 0.0
H568 H 0.55464 0.18241 0.99589 0.0
H569 H 0.5678 0.20319 0.01176 0.0
C570 C 0.61195 0.44274 0.11244 0.0
C571 C 0.59148 0.44466 0.11583 0.0
C572 C 0.58086 0.4738 0.12005 0.0
C573 C 0.55862 0.45859 0.12529 0.0
C574 C 0.54373 0.46644 0.12948 0.0
C575 C 0.55124 0.48994 0.12852 0.0
C576 C 0.57364 0.50529 0.12338 0.0
C577 C 0.58816 0.49698 0.11921 0.0
C578 C 0.51991 0.44964 0.13489 0.0
C579 C 0.58218 0.53046 0.12224 0.0
C580 C 0.45918 0.48058 0.04426 0.0
C581 C 0.46928 0.50466 0.05109 0.0
C582 C 0.47073 0.50614 0.08026 0.0
C583 C 0.49255 0.52463 0.08307 0.0
C584 C 0.50432 0.52607 0.09733 0.0
C585 C 0.49405 0.50854 0.10893 0.0
C586 C 0.47162 0.49036 0.10638 0.0
C587 C 0.46009 0.48963 0.09214 0.0
C588 C 0.52797 0.54598 0.0998 0.0
C589 C 0.46019 0.47123 0.11836 0.0
C590 C 0.45316 0.55935 0.19632 0.0
C591 C 0.47468 0.57363 0.18971 0.0
C592 C 0.48975 0.56554 0.18679 0.0
C593 C 0.48283 0.54254 0.19019 0.0
C594 C 0.46127 0.52829 0.1972 0.0
C595 C 0.44687 0.53707 0.20044 0.0
C596 C 0.51298 0.58153 0.17999 0.0
C597 C 0.45327 0.50371 0.20104 0.0
C598 C 0.59435 0.49227 0.23732 0.0
C599 C 0.57099 0.48236 0.24528 0.0
C600 C 0.55445 0.50441 0.23531 0.0
C601 C 0.56397 0.52692 0.23018 0.0
C602 C 0.55402 0.53273 0.21757 0.0
C603 C 0.53381 0.51561 0.21027 0.0
C604 C 0.52345 0.49301 0.21608 0.0
C605 C 0.53396 0.48764 0.22851 0.0
C606 C 0.56541 0.55698 0.21175 0.0
C607 C 0.50146 0.47446 0.20897 0.0
C608 C 0.53551 0.49843 0.13254 0.0
C609 C 0.52267 0.50015 0.12006 0.0
C610 C 0.50754 0.50807 0.12287 0.0
C611 C 0.50525 0.51473 0.13859 0.0
C612 C 0.49056 0.52322 0.14182 0.0
C613 C 0.48813 0.52931 0.15742 0.0
C614 C 0.50041 0.52727 0.17036 0.0
C615 C 0.498 0.5333 0.18628 0.0
C616 C 0.50962 0.52995 0.19895 0.0
C617 C 0.52387 0.52098 0.19616 0.0
C618 C 0.52737 0.51593 0.18025 0.0
C619 C 0.54246 0.50792 0.17695 0.0
C620 C 0.54537 0.50244 0.16131 0.0
C621 C 0.53309 0.50449 0.14841 0.0
C622 C 0.51794 0.51272 0.15143 0.0
C623 C 0.51533 0.51877 0.16734 0.0
C624 C 0.40771 0.56545 0.18413 0.0
C625 C 0.43314 0.57892 0.18795 0.0
O626 O 0.59574 0.46686 0.11572 0.0
O627 O 0.56532 0.49926 0.24683 0.0
O628 O 0.43818 0.56668 0.19891 0.0
O629 O 0.45981 0.50368 0.06607 0.0
H630 H 0.576 0.43279 0.1088 0.0
H631 H 0.62504 0.45945 0.10707 0.0
H632 H 0.61732 0.43017 0.13399 0.0
H633 H 0.60808 0.43311 0.10072 0.0
H634 H 0.55274 0.44059 0.12608 0.0
H635 H 0.60533 0.50857 0.1152 0.0
H636 H 0.50737 0.45072 0.12688 0.0
H637 H 0.51655 0.43186 0.13482 0.0
H638 H 0.51716 0.45397 0.14728 0.0
H639 H 0.60032 0.54026 0.11859 0.0
H640 H 0.57182 0.53351 0.11331 0.0
H641 H 0.5802 0.53696 0.13406 0.0
H642 H 0.48797 0.51161 0.05213 0.0
H643 H 0.46645 0.48101 0.0322 0.0
H644 H 0.46331 0.47015 0.05239 0.0
H645 H 0.44039 0.4723 0.0432 0.0
H646 H 0.50044 0.53778 0.07401 0.0
H647 H 0.44309 0.4756 0.08988 0.0
H648 H 0.54051 0.54017 0.09833 0.0
H649 H 0.53208 0.55983 0.09102 0.0
H650 H 0.52987 0.55288 0.1122 0.0
H651 H 0.44319 0.45774 0.11416 0.0
H652 H 0.47098 0.46348 0.12059 0.0
H653 H 0.45813 0.478 0.13002 0.0
H654 H 0.44231 0.58101 0.17639 0.0
H655 H 0.47974 0.59112 0.18699 0.0
H656 H 0.43029 0.52633 0.20574 0.0
H657 H 0.51366 0.57697 0.16725 0.0
H658 H 0.51704 0.59953 0.18044 0.0
H659 H 0.52626 0.57997 0.18675 0.0
H660 H 0.43508 0.49426 0.2046 0.0
H661 H 0.45568 0.49512 0.19045 0.0
H662 H 0.46358 0.50283 0.2111 0.0
H663 H 0.55848 0.46834 0.23744 0.0
H664 H 0.59917 0.47895 0.23594 0.0
H665 H 0.59387 0.49881 0.22515 0.0
H666 H 0.60751 0.5065 0.24465 0.0
H667 H 0.57964 0.53978 0.23572 0.0
H668 H 0.52614 0.47037 0.23296 0.0
H669 H 0.56928 0.55758 0.1987 0.0
H670 H 0.55367 0.56378 0.21325 0.0
H671 H 0.58142 0.56817 0.21839 0.0
H672 H 0.49425 0.45849 0.21606 0.0
H673 H 0.48871 0.48013 0.20836 0.0
H674 H 0.50451 0.47076 0.19648 0.0
H675 H 0.52439 0.49511 0.10795 0.0
H676 H 0.48072 0.52517 0.13233 0.0
H677 H 0.4764 0.53552 0.1592 0.0
H678 H 0.5072 0.53398 0.21118 0.0
H679 H 0.55225 0.50585 0.18642 0.0
H680 H 0.55721 0.49636 0.1595 0.0
H681 H 0.39753 0.56283 0.19521 0.0
H682 H 0.40318 0.57458 0.17507 0.0
H683 H 0.40325 0.54856 0.17908 0.0
Li684 Li 0.63621 0.41455 0.42525 0.0
Li685 Li 0.62659 0.37721 0.41237 0.0
Li686 Li 0.66236 0.41132 0.40674 0.0
Li687 Li 0.62837 0.40741 0.3954 0.0
C688 C 0.66994 0.39614 0.43349 0.0
N689 N 0.70919 0.39689 0.44331 0.0
C690 C 0.67293 0.37759 0.43031 0.0
C691 C 0.6869 0.41507 0.44166 0.0
C692 C 0.6929 0.3783 0.43537 0.0
C693 C 0.70662 0.41512 0.44653 0.0
C694 C 0.58668 0.37573 0.41927 0.0
C695 C 0.5488 0.34451 0.41437 0.0
N696 N 0.54479 0.34261 0.4305 0.0
C697 C 0.58212 0.37358 0.43579 0.0
C698 C 0.56984 0.3612 0.40845 0.0
C699 C 0.56086 0.35669 0.44123 0.0
C700 C 0.61636 0.43571 0.44255 0.0
N701 N 0.63103 0.42768 0.44381 0.0
C702 C 0.63551 0.43569 0.47204 0.0
C703 C 0.64062 0.42753 0.45815 0.0
C704 C 0.61995 0.44363 0.47126 0.0
C705 C 0.61048 0.44372 0.45619 0.0
H706 H 0.60872 0.43527 0.43101 0.0
H707 H 0.6519 0.42066 0.45888 0.0
C708 C 0.61755 0.3326 0.40591 0.0
N709 N 0.61384 0.34554 0.41664 0.0
C710 C 0.61246 0.31062 0.40996 0.0
C711 C 0.59924 0.31537 0.4359 0.0
C712 C 0.60477 0.33736 0.43139 0.0
C713 C 0.60363 0.30193 0.42526 0.0
H714 H 0.62568 0.33975 0.39454 0.0
H715 H 0.60307 0.34832 0.44003 0.0
C716 C 0.67245 0.45517 0.40683 0.0
N717 N 0.71213 0.4968 0.40693 0.0
C718 C 0.68454 0.46402 0.39254 0.0
C719 C 0.68047 0.46756 0.42116 0.0
C720 C 0.7046 0.48507 0.39285 0.0
C721 C 0.70058 0.48857 0.42096 0.0
C722 C 0.63445 0.37982 0.37622 0.0
C723 C 0.64944 0.38863 0.36322 0.0
C724 C 0.61183 0.36313 0.37349 0.0
C725 C 0.64146 0.38073 0.34767 0.0
C726 C 0.60451 0.35567 0.35776 0.0
N727 N 0.61934 0.36456 0.34528 0.0
C728 C 0.69551 0.4048 0.39272 0.0
C729 C 0.71223 0.43903 0.40781 0.0
C730 C 0.71682 0.40863 0.3881 0.0
N731 N 0.69348 0.42011 0.4021 0.0
C732 C 0.73402 0.44346 0.40358 0.0
C733 C 0.73643 0.42828 0.39338 0.0
H734 H 0.6805 0.38939 0.3889 0.0
H735 H 0.71039 0.45056 0.41578 0.0
C736 C 0.59437 0.41017 0.37649 0.0
N737 N 0.61627 0.41471 0.3771 0.0
C738 C 0.58623 0.41575 0.36274 0.0
C739 C 0.62333 0.43057 0.35066 0.0
C740 C 0.63079 0.42503 0.36465 0.0
C741 C 0.60078 0.42588 0.34955 0.0
H742 H 0.58327 0.40227 0.38666 0.0
H743 H 0.64819 0.42881 0.36555 0.0
O744 O 0.65077 0.396 0.42824 0.0
O745 O 0.60739 0.39219 0.4137 0.0
O746 O 0.65263 0.43473 0.40676 0.0
O747 O 0.64179 0.38769 0.39152 0.0
H748 H 0.66008 0.36289 0.42388 0.0
H749 H 0.68511 0.4298 0.4439 0.0
H750 H 0.69548 0.3641 0.43294 0.0
H751 H 0.71996 0.42972 0.45277 0.0
H752 H 0.53564 0.3331 0.40613 0.0
H753 H 0.59493 0.38461 0.44436 0.0
H754 H 0.5729 0.36282 0.39562 0.0
H755 H 0.55717 0.35473 0.45399 0.0
H756 H 0.64357 0.43559 0.48327 0.0
H757 H 0.59811 0.44924 0.45497 0.0
H758 H 0.61616 0.30082 0.40144 0.0
H759 H 0.59294 0.30952 0.44795 0.0
H760 H 0.67868 0.45465 0.38137 0.0
H761 H 0.67134 0.46103 0.43232 0.0
H762 H 0.7142 0.49205 0.3819 0.0
H763 H 0.70701 0.4983 0.43196 0.0
H764 H 0.66695 0.40173 0.36506 0.0
H765 H 0.60009 0.35601 0.38341 0.0
H766 H 0.65283 0.38752 0.33749 0.0
H767 H 0.58703 0.3428 0.35549 0.0
H768 H 0.71794 0.39616 0.3806 0.0
H769 H 0.74877 0.4587 0.40804 0.0
H770 H 0.56872 0.41191 0.36233 0.0
H771 H 0.63519 0.43873 0.34086 0.0
Li772 Li 0.2393 0.63135 0.59263 0.0
Li773 Li 0.26784 0.62336 0.58275 0.0
Li774 Li 0.26854 0.65792 0.57483 0.0
Li775 Li 0.23921 0.62191 0.5648 0.0
C776 C 0.27779 0.64591 0.61204 0.0
N777 N 0.28847 0.63984 0.64309 0.0
C778 C 0.26482 0.62504 0.61978 0.0
C779 C 0.29618 0.6637 0.6201 0.0
C780 C 0.27049 0.62231 0.63548 0.0
C781 C 0.30132 0.66029 0.63579 0.0
C782 C 0.22975 0.58094 0.57836 0.0
C783 C 0.23864 0.55728 0.5617 0.0
N784 N 0.2201 0.53849 0.56758 0.0
C785 C 0.21083 0.56137 0.58427 0.0
C786 C 0.24381 0.57888 0.56701 0.0
C787 C 0.20623 0.54007 0.57866 0.0
C788 C 0.20059 0.60758 0.61187 0.0
N789 N 0.22045 0.62761 0.61068 0.0
C790 C 0.21445 0.63944 0.63645 0.0
C791 C 0.22742 0.64359 0.62251 0.0
C792 C 0.19421 0.61852 0.63831 0.0
C793 C 0.18717 0.60263 0.62564 0.0
H794 H 0.19552 0.59516 0.60229 0.0
H795 H 0.2434 0.65931 0.62137 0.0
C796 C 0.3091 0.62465 0.58104 0.0
N797 N 0.28824 0.61277 0.58792 0.0
C798 C 0.32632 0.62013 0.58525 0.0
C799 C 0.30027 0.59114 0.60355 0.0
C800 C 0.28337 0.59596 0.59876 0.0
C801 C 0.32213 0.60351 0.59686 0.0
H802 H 0.31255 0.63818 0.57268 0.0
H803 H 0.26662 0.58678 0.60406 0.0
C804 C 0.23127 0.66381 0.57897 0.0
N805 N 0.22291 0.69753 0.58961 0.0
C806 C 0.21272 0.66509 0.57295 0.0
C807 C 0.24562 0.67975 0.59037 0.0
C808 C 0.20876 0.68224 0.57849 0.0
C809 C 0.24109 0.69664 0.5956 0.0
C810 C 0.27767 0.64488 0.5456 0.0
C811 C 0.26571 0.65424 0.53821 0.0
C812 C 0.29527 0.64434 0.53728 0.0
C813 C 0.27162 0.66295 0.52263 0.0
C814 C 0.30067 0.65324 0.52172 0.0
N815 N 0.28883 0.66229 0.51477 0.0
C816 C 0.31147 0.69527 0.57436 0.0
C817 C 0.28508 0.7018 0.55999 0.0
C818 C 0.32943 0.71609 0.56934 0.0
N819 N 0.28991 0.68844 0.56947 0.0
C820 C 0.3026 0.72283 0.55464 0.0
C821 C 0.3252 0.72996 0.55904 0.0
H822 H 0.31477 0.68412 0.58175 0.0
H823 H 0.26779 0.69577 0.55607 0.0
C824 C 0.20079 0.60814 0.54533 0.0
N825 N 0.22035 0.60741 0.54658 0.0
C826 C 0.18742 0.6001 0.53145 0.0
C827 C 0.21416 0.5899 0.52065 0.0
C828 C 0.22709 0.59828 0.5347 0.0
C829 C 0.19421 0.59112 0.51875 0.0
H830 H 0.19593 0.61558 0.55495 0.0
H831 H 0.24283 0.59807 0.53591 0.0
O832 O 0.27256 0.64915 0.59671 0.0
O833 O 0.23436 0.60187 0.58381 0.0
O834 O 0.23527 0.64706 0.57358 0.0
O835 O 0.27237 0.63636 0.5609 0.0
H836 H 0.2505 0.61108 0.61377 0.0
H837 H 0.30635 0.67998 0.61428 0.0
H838 H 0.26058 0.60624 0.6416 0.0
H839 H 0.3155 0.67391 0.64217 0.0
H840 H 0.24936 0.55547 0.5529 0.0
H841 H 0.1998 0.56262 0.5931 0.0
H842 H 0.25857 0.59372 0.56229 0.0
H843 H 0.19162 0.5248 0.58312 0.0
H844 H 0.2204 0.65235 0.64576 0.0
H845 H 0.1719 0.58617 0.62658 0.0
H846 H 0.34304 0.63026 0.58 0.0
H847 H 0.29643 0.57817 0.61253 0.0
H848 H 0.20148 0.65297 0.56408 0.0
H849 H 0.26013 0.67919 0.59514 0.0
H850 H 0.19445 0.68341 0.57393 0.0
H851 H 0.25205 0.70906 0.60443 0.0
H852 H 0.25203 0.65481 0.54441 0.0
H853 H 0.30466 0.63711 0.5428 0.0
H854 H 0.26251 0.67026 0.51678 0.0
H855 H 0.31427 0.65296 0.51515 0.0
H856 H 0.34653 0.72108 0.57324 0.0
H857 H 0.29861 0.7329 0.5466 0.0
H858 H 0.17238 0.6017 0.53048 0.0
H859 H 0.21991 0.58283 0.51131 0.0
Li860 Li 0.66932 0.26773 0.74642 0.0
Li861 Li 0.63744 0.23666 0.7594 0.0
Li862 Li 0.64141 0.23899 0.72875 0.0
Li863 Li 0.63363 0.26597 0.74456 0.0
C864 C 0.68028 0.23475 0.74551 0.0
N865 N 0.72082 0.23451 0.74613 0.0
C866 C 0.69253 0.23915 0.75989 0.0
C867 C 0.68851 0.23001 0.73148 0.0
C868 C 0.71304 0.23903 0.75994 0.0
C869 C 0.70907 0.23 0.73204 0.0
C870 C 0.64173 0.27192 0.7781 0.0
C871 C 0.60902 0.26641 0.79316 0.0
N872 N 0.62258 0.27661 0.80617 0.0
C873 C 0.65535 0.28235 0.79162 0.0
C874 C 0.61839 0.26386 0.77888 0.0
C875 C 0.64535 0.28456 0.80569 0.0
C876 C 0.70289 0.30724 0.75976 0.0
N877 N 0.70071 0.29042 0.74975 0.0
C878 C 0.7412 0.30872 0.74692 0.0
C879 C 0.71931 0.29105 0.74303 0.0
C880 C 0.74377 0.32572 0.7578 0.0
C881 C 0.72424 0.32497 0.76404 0.0
H882 H 0.68795 0.30702 0.76441 0.0
H883 H 0.71727 0.27797 0.73467 0.0
C884 C 0.60844 0.19694 0.77795 0.0
N885 N 0.62817 0.21724 0.77759 0.0
C886 C 0.60258 0.18329 0.79172 0.0
C887 C 0.63758 0.21163 0.80426 0.0
C888 C 0.64265 0.22471 0.79036 0.0
C889 C 0.61738 0.19056 0.80505 0.0
H890 H 0.59738 0.19128 0.76753 0.0
H891 H 0.65824 0.24089 0.78972 0.0
C892 C 0.67461 0.28719 0.71872 0.0
N893 N 0.71452 0.31754 0.70344 0.0
C894 C 0.68328 0.31059 0.72037 0.0
C895 C 0.68617 0.27923 0.70924 0.0
C896 C 0.70352 0.32565 0.71258 0.0
C897 C 0.70632 0.29484 0.70161 0.0
C898 C 0.592 0.22406 0.73921 0.0
C899 C 0.58515 0.22344 0.72324 0.0
C900 C 0.57574 0.21614 0.75148 0.0
C901 C 0.56216 0.21507 0.71981 0.0
C902 C 0.55293 0.20795 0.74756 0.0
N903 N 0.54667 0.20759 0.73194 0.0
C904 C 0.62844 0.19982 0.70925 0.0
C905 C 0.63299 0.23254 0.69568 0.0
C906 C 0.62052 0.18694 0.69509 0.0
N907 N 0.63414 0.22207 0.70929 0.0
C908 C 0.62503 0.22032 0.68135 0.0
C909 C 0.61825 0.19711 0.68101 0.0
H910 H 0.62937 0.19192 0.72031 0.0
H911 H 0.63744 0.2502 0.69612 0.0
C912 C 0.63627 0.30715 0.74844 0.0
N913 N 0.6211 0.28557 0.74382 0.0
C914 C 0.63091 0.32436 0.74711 0.0
C915 C 0.59385 0.29668 0.73694 0.0
C916 C 0.60004 0.27997 0.73836 0.0
C917 C 0.60954 0.31934 0.74109 0.0
H918 H 0.6529 0.31109 0.75275 0.0
H919 H 0.58816 0.26276 0.7348 0.0
O920 O 0.66009 0.23459 0.74522 0.0
O921 O 0.65131 0.26934 0.76433 0.0
O922 O 0.65516 0.27214 0.72659 0.0
O923 O 0.61439 0.23188 0.74279 0.0
H924 H 0.68639 0.24285 0.77085 0.0
H925 H 0.67912 0.22638 0.72029 0.0
H926 H 0.72279 0.24256 0.77096 0.0
H927 H 0.71569 0.22643 0.72126 0.0
H928 H 0.59097 0.26026 0.7939 0.0
H929 H 0.67344 0.2885 0.79129 0.0
H930 H 0.60761 0.25577 0.76858 0.0
H931 H 0.65568 0.29254 0.81625 0.0
H932 H 0.75589 0.30888 0.74171 0.0
H933 H 0.72545 0.33812 0.77208 0.0
H934 H 0.58694 0.16705 0.79181 0.0
H935 H 0.64931 0.218 0.81433 0.0
H936 H 0.6746 0.31706 0.72767 0.0
H937 H 0.67982 0.26119 0.70794 0.0
H938 H 0.71049 0.3438 0.71382 0.0
H939 H 0.7155 0.28891 0.69431 0.0
H940 H 0.59744 0.22962 0.71361 0.0
H941 H 0.58064 0.21629 0.7639 0.0
H942 H 0.55665 0.2146 0.70751 0.0
H943 H 0.5402 0.20185 0.75694 0.0
H944 H 0.61532 0.16905 0.69533 0.0
H945 H 0.62374 0.22883 0.67071 0.0
H946 H 0.64374 0.34157 0.75023 0.0
H947 H 0.57705 0.29193 0.73249 0.0
Li948 Li 0.41652 0.62446 0.9244 0.0
Li949 Li 0.42127 0.65919 0.91315 0.0
Li950 Li 0.38557 0.6246 0.90987 0.0
Li951 Li 0.41847 0.6299 0.89522 0.0
C952 C 0.38521 0.62997 0.9428 0.0
N953 N 0.3557 0.6089 0.96812 0.0
C954 C 0.38129 0.64289 0.9541 0.0
C955 C 0.3741 0.60632 0.94436 0.0
C956 C 0.36632 0.63192 0.96682 0.0
C957 C 0.35926 0.596 0.95725 0.0
C958 C 0.46111 0.65933 0.92157 0.0
C959 C 0.50078 0.67456 0.92793 0.0
N960 N 0.49778 0.68302 0.94199 0.0
C961 C 0.45842 0.6682 0.93607 0.0
C962 C 0.48245 0.66253 0.91744 0.0
C963 C 0.47716 0.68012 0.94624 0.0
C964 C 0.42717 0.59317 0.93795 0.0
N965 N 0.42433 0.6111 0.94156 0.0
C966 C 0.43233 0.609 0.96935 0.0
C967 C 0.42686 0.6192 0.95687 0.0
C968 C 0.43521 0.59029 0.96604 0.0
C969 C 0.43258 0.58242 0.95006 0.0
H970 H 0.42511 0.58716 0.92565 0.0
H971 H 0.42462 0.63357 0.95941 0.0
C972 C 0.4146 0.69419 0.92037 0.0
N973 N 0.43183 0.6905 0.91631 0.0
C974 C 0.41864 0.7162 0.92257 0.0
C975 C 0.45832 0.73044 0.91648 0.0
C976 C 0.45345 0.70798 0.91431 0.0
C977 C 0.44068 0.7347 0.92051 0.0
H978 H 0.39758 0.67989 0.92176 0.0
H979 H 0.46679 0.70453 0.91087 0.0
C980 C 0.38102 0.58309 0.90056 0.0
N981 N 0.34814 0.54309 0.88656 0.0
C982 C 0.37045 0.58363 0.88624 0.0
C983 C 0.37471 0.56224 0.90785 0.0
C984 C 0.35392 0.56321 0.87932 0.0
C985 C 0.3581 0.54219 0.90057 0.0
C986 C 0.41261 0.66347 0.88128 0.0
C987 C 0.39904 0.6681 0.87108 0.0
C988 C 0.43619 0.67502 0.87912 0.0
C989 C 0.40928 0.68425 0.8589 0.0
C990 C 0.44578 0.69106 0.86681 0.0
N991 N 0.43224 0.6953 0.85704 0.0
C992 C 0.34924 0.62982 0.90252 0.0
C993 C 0.33707 0.59255 0.91197 0.0
C994 C 0.32687 0.62445 0.89988 0.0
N995 N 0.35393 0.61389 0.90823 0.0
C996 C 0.3143 0.58644 0.90959 0.0
C997 C 0.30904 0.60246 0.90326 0.0
H998 H 0.363 0.64677 0.89996 0.0
H999 H 0.34125 0.58022 0.91662 0.0
C1000 C 0.44504 0.6183 0.87504 0.0
N1001 N 0.42764 0.62277 0.87541 0.0
C1002 C 0.45055 0.6114 0.86065 0.0
C1003 C 0.4204 0.61429 0.84736 0.0
C1004 C 0.41561 0.62124 0.8619 0.0
C1005 C 0.43782 0.60892 0.84666 0.0
H1006 H 0.45429 0.61961 0.88599 0.0
H1007 H 0.40192 0.62499 0.86245 0.0
O1008 O 0.39981 0.64059 0.93029 0.0
O1009 O 0.44306 0.64753 0.91138 0.0
O1010 O 0.39676 0.60287 0.90781 0.0
O1011 O 0.40272 0.64767 0.89326 0.0
H1012 H 0.38976 0.66122 0.95305 0.0
H1013 H 0.37691 0.59601 0.93578 0.0
H1014 H 0.36313 0.64172 0.97566 0.0
H1015 H 0.35057 0.57772 0.95861 0.0
H1016 H 0.5174 0.67716 0.92489 0.0
H1017 H 0.44208 0.66601 0.93946 0.0
H1018 H 0.4848 0.65578 0.90624 0.0
H1019 H 0.47531 0.68707 0.9575 0.0
H1020 H 0.43451 0.61586 0.98143 0.0
H1021 H 0.43434 0.56788 0.94697 0.0
H1022 H 0.40463 0.71869 0.92592 0.0
H1023 H 0.47551 0.74428 0.91468 0.0
H1024 H 0.37453 0.59965 0.88078 0.0
H1025 H 0.38246 0.56157 0.91909 0.0
H1026 H 0.34555 0.56338 0.86827 0.0
H1027 H 0.35304 0.52593 0.90608 0.0
H1028 H 0.38076 0.65925 0.87253 0.0
H1029 H 0.44702 0.67168 0.88681 0.0
H1030 H 0.39897 0.68798 0.85092 0.0
H1031 H 0.46399 0.70012 0.86501 0.0
H1032 H 0.32354 0.63744 0.89532 0.0
H1033 H 0.30101 0.5693 0.91236 0.0
H1034 H 0.46405 0.60731 0.8606 0.0
H1035 H 0.41042 0.61292 0.83679 0.0
Li1036 Li 0.77523 0.41187 0.0813 0.0
Li1037 Li 0.80453 0.4048 0.09299 0.0
Li1038 Li 0.80495 0.41346 0.06357 0.0
Li1039 Li 0.7766 0.37657 0.07412 0.0
C1040 C 0.81315 0.45446 0.08643 0.0
N1041 N 0.82225 0.49778 0.09431 0.0
C1042 C 0.81992 0.46284 0.10207 0.0
C1043 C 0.81124 0.46822 0.07476 0.0
C1044 C 0.82438 0.48475 0.10583 0.0
C1045 C 0.81585 0.49005 0.07898 0.0
C1046 C 0.76401 0.37828 0.11044 0.0
C1047 C 0.75655 0.35056 0.13115 0.0
N1048 N 0.74924 0.36156 0.14106 0.0
C1049 C 0.75621 0.38918 0.12077 0.0
C1050 C 0.76398 0.3587 0.1156 0.0
C1051 C 0.7489 0.38051 0.13623 0.0
C1052 C 0.73248 0.40668 0.07981 0.0
N1053 N 0.75353 0.42107 0.08581 0.0
C1054 C 0.73937 0.44197 0.10014 0.0
C1055 C 0.75733 0.43863 0.0957 0.0
C1056 C 0.71729 0.42685 0.09456 0.0
C1057 C 0.71404 0.40928 0.08402 0.0
H1058 H 0.72989 0.39265 0.07219 0.0
H1059 H 0.77397 0.44942 0.10077 0.0
C1060 C 0.84449 0.41272 0.10846 0.0
N1061 N 0.82373 0.41045 0.11121 0.0
C1062 C 0.86055 0.41967 0.12084 0.0
C1063 C 0.8335 0.4216 0.13871 0.0
C1064 C 0.81792 0.41447 0.12601 0.0
C1065 C 0.85527 0.42463 0.13612 0.0
H1066 H 0.84886 0.40991 0.09648 0.0
H1067 H 0.80163 0.41325 0.12781 0.0
C1068 C 0.76823 0.40376 0.04516 0.0
N1069 N 0.76178 0.41729 0.0152 0.0
C1070 C 0.76499 0.39018 0.03164 0.0
C1071 C 0.76784 0.42403 0.0435 0.0
C1072 C 0.76185 0.39736 0.01657 0.0
C1073 C 0.76466 0.43063 0.02824 0.0
C1074 C 0.81457 0.37251 0.07412 0.0
C1075 C 0.82157 0.36654 0.06002 0.0
C1076 C 0.81226 0.36054 0.08833 0.0
C1077 C 0.82578 0.34841 0.06031 0.0
C1078 C 0.81666 0.34253 0.08814 0.0
N1079 N 0.82324 0.33687 0.07424 0.0
C1080 C 0.84056 0.45008 0.04659 0.0
C1081 C 0.82296 0.41479 0.03272 0.0
C1082 C 0.85606 0.46033 0.03405 0.0
N1083 N 0.82441 0.42773 0.04568 0.0
C1084 C 0.83827 0.42429 0.01998 0.0
C1085 C 0.85518 0.44732 0.02061 0.0
H1086 H 0.84186 0.45981 0.05723 0.0
H1087 H 0.81021 0.39696 0.03245 0.0
C1088 C 0.7375 0.33403 0.07728 0.0
N1089 N 0.75712 0.3455 0.06879 0.0
C1090 C 0.72066 0.31243 0.07237 0.0
C1091 C 0.74473 0.31456 0.05024 0.0
C1092 C 0.76111 0.33619 0.05557 0.0
C1093 C 0.72393 0.30259 0.05846 0.0
H1094 H 0.73439 0.34214 0.08739 0.0
H1095 H 0.77651 0.34596 0.04871 0.0
O1096 O 0.80885 0.43308 0.08253 0.0
O1097 O 0.77099 0.38641 0.0952 0.0
O1098 O 0.77149 0.3971 0.05999 0.0
O1099 O 0.81028 0.39016 0.07405 0.0
H1100 H 0.82166 0.45254 0.11124 0.0
H1101 H 0.80641 0.4622 0.06253 0.0
H1102 H 0.82953 0.49139 0.11791 0.0
H1103 H 0.81441 0.50086 0.07007 0.0
H1104 H 0.75648 0.33545 0.13531 0.0
H1105 H 0.75596 0.40426 0.11694 0.0
H1106 H 0.76939 0.34971 0.10763 0.0
H1107 H 0.74295 0.38884 0.14438 0.0
H1108 H 0.74252 0.45553 0.10847 0.0
H1109 H 0.69732 0.39736 0.07935 0.0
H1110 H 0.87726 0.42212 0.11828 0.0
H1111 H 0.82875 0.42518 0.15034 0.0
H1112 H 0.76504 0.37433 0.03276 0.0
H1113 H 0.76985 0.43449 0.0539 0.0
H1114 H 0.75947 0.3871 0.00598 0.0
H1115 H 0.76442 0.44633 0.02677 0.0
H1116 H 0.82364 0.37574 0.04895 0.0
H1117 H 0.80729 0.36521 0.09941 0.0
H1118 H 0.83109 0.34352 0.04946 0.0
H1119 H 0.81489 0.3331 0.09904 0.0
H1120 H 0.86911 0.47804 0.03511 0.0
H1121 H 0.83702 0.41371 0.0098 0.0
H1122 H 0.70474 0.30414 0.07888 0.0
H1123 H 0.74803 0.30761 0.0395 0.0
Li1124 Li 0.42145 0.80656 0.25803 0.0
Li1125 Li 0.38714 0.77869 0.24564 0.0
Li1126 Li 0.42049 0.77694 0.24076 0.0
Li1127 Li 0.41532 0.80736 0.22841 0.0
C1128 C 0.41677 0.76865 0.2733 0.0
N1129 N 0.43971 0.75924 0.29683 0.0
C1130 C 0.4047 0.75286 0.28537 0.0
C1131 C 0.44053 0.77966 0.2732 0.0
C1132 C 0.4166 0.74833 0.29716 0.0
C1133 C 0.4518 0.77466 0.28519 0.0
C1134 C 0.3818 0.81523 0.25103 0.0
C1135 C 0.35471 0.82737 0.24525 0.0
N1136 N 0.34621 0.82133 0.2604 0.0
C1137 C 0.37293 0.80928 0.26658 0.0
C1138 C 0.37274 0.82446 0.24028 0.0
C1139 C 0.35488 0.81243 0.27107 0.0
C1140 C 0.45231 0.8466 0.27479 0.0
N1141 N 0.43429 0.82526 0.2765 0.0
C1142 C 0.43316 0.83082 0.30483 0.0
C1143 C 0.42463 0.81722 0.29111 0.0
C1144 C 0.45168 0.85307 0.30351 0.0
C1145 C 0.46132 0.86088 0.28821 0.0
H1146 H 0.45948 0.85261 0.26297 0.0
H1147 H 0.41016 0.80025 0.29211 0.0
C1148 C 0.35172 0.7377 0.25505 0.0
N1149 N 0.35543 0.75787 0.24905 0.0
C1150 C 0.32969 0.71974 0.25722 0.0
C1151 C 0.31536 0.74353 0.2471 0.0
C1152 C 0.3378 0.76112 0.24508 0.0
C1153 C 0.31112 0.72241 0.25309 0.0
H1154 H 0.36597 0.73538 0.25783 0.0
H1155 H 0.34104 0.77702 0.2399 0.0
C1156 C 0.46005 0.81568 0.22942 0.0
N1157 N 0.49476 0.82661 0.20768 0.0
C1158 C 0.45539 0.80479 0.21444 0.0
C1159 C 0.48234 0.83211 0.23334 0.0
C1160 C 0.47318 0.81056 0.20361 0.0
C1161 C 0.49966 0.83739 0.22219 0.0
C1162 C 0.37788 0.76319 0.21614 0.0
C1163 C 0.368 0.73997 0.21278 0.0
C1164 C 0.36683 0.77489 0.2113 0.0
C1165 C 0.3471 0.72881 0.20476 0.0
C1166 C 0.34599 0.76315 0.20326 0.0
N1167 N 0.33661 0.74053 0.20021 0.0
C1168 C 0.41243 0.73377 0.23698 0.0
C1169 C 0.4519 0.76003 0.23479 0.0
C1170 C 0.41577 0.71584 0.23268 0.0
N1171 N 0.43021 0.7554 0.23737 0.0
C1172 C 0.4561 0.74245 0.23066 0.0
C1173 C 0.43774 0.72017 0.22911 0.0
H1174 H 0.39552 0.73058 0.23963 0.0
H1175 H 0.46586 0.77732 0.23555 0.0
C1176 C 0.43445 0.84959 0.21232 0.0
N1177 N 0.42253 0.82668 0.21017 0.0
C1178 C 0.44136 0.86411 0.199 0.0
C1179 C 0.42321 0.83115 0.18161 0.0
C1180 C 0.41695 0.81732 0.19521 0.0
C1181 C 0.43586 0.85494 0.18334 0.0
H1182 H 0.43899 0.85654 0.22437 0.0
H1183 H 0.40793 0.79905 0.19379 0.0
O1184 O 0.40519 0.77322 0.26175 0.0
O1185 O 0.39942 0.81228 0.24637 0.0
O1186 O 0.44294 0.81053 0.2402 0.0
O1187 O 0.39808 0.7744 0.22434 0.0
H1188 H 0.38632 0.74423 0.28565 0.0
H1189 H 0.45025 0.79196 0.26402 0.0
H1190 H 0.40746 0.73616 0.30658 0.0
H1191 H 0.47017 0.78306 0.28526 0.0
H1192 H 0.34746 0.83442 0.23705 0.0
H1193 H 0.37973 0.80205 0.275 0.0
H1194 H 0.37955 0.82927 0.22823 0.0
H1195 H 0.34772 0.80777 0.28303 0.0
H1196 H 0.42539 0.82388 0.31637 0.0
H1197 H 0.47539 0.87798 0.28654 0.0
H1198 H 0.32724 0.70387 0.26206 0.0
H1199 H 0.30151 0.74619 0.24356 0.0
H1200 H 0.43828 0.79194 0.2112 0.0
H1201 H 0.4862 0.8407 0.24489 0.0
H1202 H 0.46982 0.80227 0.19198 0.0
H1203 H 0.517 0.85008 0.22507 0.0
H1204 H 0.37634 0.73063 0.21625 0.0
H1205 H 0.37411 0.79281 0.21392 0.0
H1206 H 0.33922 0.71084 0.20213 0.0
H1207 H 0.3372 0.77198 0.19954 0.0
H1208 H 0.40127 0.6988 0.23188 0.0
H1209 H 0.47329 0.74632 0.22806 0.0
H1210 H 0.4514 0.88228 0.20099 0.0
H1211 H 0.41821 0.82321 0.16986 0.0
H1212 H 0.19698 0.59066 0.27614 0.0
H1213 H 0.16453 0.62725 0.2586 0.0
H1214 H 0.23418 0.62427 0.27201 0.0
H1215 H 0.20183 0.66089 0.25422 0.0
H1216 H 0.27354 0.72281 0.26476 0.0
H1217 H 0.23549 0.69018 0.26894 0.0
H1218 H 0.25772 0.64564 0.24923 0.0
H1219 H 0.29554 0.67809 0.24507 0.0
C1220 C 0.19784 0.60599 0.27153 0.0
C1221 C 0.17787 0.60648 0.26797 0.0
C1222 C 0.21913 0.62517 0.26902 0.0
C1223 C 0.22095 0.64524 0.26275 0.0
C1224 C 0.20098 0.64579 0.25926 0.0
C1225 C 0.17965 0.62656 0.26175 0.0
C1226 C 0.27019 0.70607 0.26117 0.0
C1227 C 0.28761 0.70299 0.25477 0.0
C1228 C 0.24842 0.68739 0.26358 0.0
C1229 C 0.24368 0.6653 0.25961 0.0
C1230 C 0.26096 0.66237 0.25278 0.0
C1231 C 0.28264 0.68097 0.25038 0.0
H1232 H 0.58607 0.19267 0.48726 0.0
H1233 H 0.61944 0.18438 0.44575 0.0
H1234 H 0.58302 0.22267 0.47344 0.0
H1235 H 0.61547 0.21359 0.43156 0.0
H1236 H 0.63406 0.28733 0.42148 0.0
H1237 H 0.63235 0.25345 0.43258 0.0
H1238 H 0.56612 0.23303 0.45256 0.0
H1239 H 0.56825 0.26749 0.44175 0.0
C1240 C 0.59218 0.19687 0.47499 0.0
C1241 C 0.60267 0.18594 0.46752 0.0
C1242 C 0.59036 0.214 0.46702 0.0
C1243 C 0.599 0.22063 0.45134 0.0
C1244 C 0.6089 0.20918 0.44369 0.0
C1245 C 0.61095 0.19222 0.45175 0.0
C1246 C 0.61895 0.2754 0.428 0.0
C1247 C 0.60128 0.28006 0.43073 0.0
C1248 C 0.61792 0.25589 0.43435 0.0
C1249 C 0.59909 0.2404 0.4435 0.0
C1250 C 0.58106 0.24474 0.44581 0.0
C1251 C 0.58221 0.26442 0.43957 0.0
H1252 H 0.45871 0.63083 0.61064 0.0
H1253 H 0.42432 0.58916 0.65185 0.0
H1254 H 0.42246 0.62436 0.6 0.0
H1255 H 0.38788 0.58204 0.64106 0.0
H1256 H 0.33436 0.60253 0.62798 0.0
H1257 H 0.36834 0.6027 0.63763 0.0
H1258 H 0.38661 0.5977 0.58853 0.0
H1259 H 0.35288 0.59827 0.57892 0.0
C1260 C 0.44328 0.61985 0.61722 0.0
C1261 C 0.44428 0.61031 0.63199 0.0
C1262 C 0.42247 0.61605 0.61112 0.0
C1263 C 0.40217 0.60266 0.61966 0.0
C1264 C 0.40317 0.59266 0.63424 0.0
C1265 C 0.424 0.59654 0.64037 0.0
C1266 C 0.34544 0.60103 0.61929 0.0
C1267 C 0.34106 0.60047 0.60271 0.0
C1268 C 0.36492 0.60109 0.62481 0.0
C1269 C 0.38035 0.60035 0.61385 0.0
C1270 C 0.37536 0.59876 0.59728 0.0
C1271 C 0.356 0.59895 0.59177 0.0
H1272 H 0.8545 0.46157 0.76729 0.0
H1273 H 0.86104 0.42971 0.81032 0.0
H1274 H 0.82594 0.42441 0.75685 0.0
H1275 H 0.83311 0.39251 0.79974 0.0
H1276 H 0.75797 0.341 0.78821 0.0
H1277 H 0.79272 0.37483 0.79649 0.0
H1278 H 0.816 0.38652 0.74714 0.0
H1279 H 0.78055 0.35269 0.73877 0.0
C1280 C 0.85018 0.44653 0.77432 0.0
C1281 C 0.8598 0.4485 0.78966 0.0
C1282 C 0.83396 0.42523 0.76832 0.0
C1283 C 0.82706 0.40548 0.77754 0.0
C1284 C 0.83773 0.40741 0.79246 0.0
C1285 C 0.85382 0.42869 0.79849 0.0
C1286 C 0.7706 0.35068 0.77914 0.0
C1287 C 0.76645 0.34438 0.76283 0.0
C1288 C 0.79066 0.36996 0.7839 0.0
C1289 C 0.80717 0.38347 0.77248 0.0
C1290 C 0.80351 0.3766 0.75621 0.0
C1291 C 0.78335 0.35715 0.75143 0.0
H1292 H 0.41797 0.8455 0.9428 0.0
H1293 H 0.49021 0.88024 0.93382 0.0
H1294 H 0.41574 0.80908 0.93759 0.0
H1295 H 0.48798 0.84376 0.92838 0.0
H1296 H 0.47575 0.77041 0.93652 0.0
H1297 H 0.48026 0.80794 0.94177 0.0
H1298 H 0.41938 0.78927 0.91419 0.0
H1299 H 0.41491 0.75198 0.90899 0.0
C1300 C 0.4334 0.84528 0.93988 0.0
C1301 C 0.45431 0.86564 0.93902 0.0
C1302 C 0.43212 0.82448 0.93674 0.0
C1303 C 0.45169 0.82356 0.93252 0.0
C1304 C 0.47267 0.8439 0.93178 0.0
C1305 C 0.47394 0.86475 0.93489 0.0
C1306 C 0.46354 0.7745 0.93142 0.0
C1307 C 0.44483 0.75818 0.92252 0.0
C1308 C 0.46609 0.79594 0.93444 0.0
C1309 C 0.44997 0.80142 0.9286 0.0
C1310 C 0.43177 0.78537 0.9192 0.0
C1311 C 0.42923 0.76402 0.91619 0.0
H1312 H 0.6249 0.47633 0.14249 0.0
H1313 H 0.57086 0.39471 0.12283 0.0
H1314 H 0.66274 0.47207 0.13094 0.0
H1315 H 0.60977 0.39238 0.11168 0.0
H1316 H 0.67666 0.39226 0.10498 0.0
H1317 H 0.64454 0.39452 0.11558 0.0
H1318 H 0.68097 0.46722 0.10817 0.0
H1319 H 0.71345 0.46495 0.09788 0.0
C1320 C 0.62227 0.46054 0.13737 0.0
C1321 C 0.59358 0.43728 0.1312 0.0
C1322 C 0.6456 0.45806 0.12941 0.0
C1323 C 0.64053 0.43236 0.11916 0.0
C1324 C 0.6123 0.40771 0.11752 0.0
C1325 C 0.58791 0.40856 0.12507 0.0
C1326 C 0.67771 0.4087 0.10544 0.0
C1327 C 0.69753 0.42842 0.10051 0.0
C1328 C 0.65923 0.41001 0.11149 0.0
C1329 C 0.6601 0.43105 0.11267 0.0
C1330 C 0.67988 0.45079 0.10769 0.0
C1331 C 0.69846 0.4495 0.10172 0.0
H1332 H 0.41731 0.87218 0.51093 0.0
H1333 H 0.4711 0.84587 0.5332 0.0
H1334 H 0.3792 0.82933 0.52114 0.0
H1335 H 0.43188 0.80383 0.54289 0.0
H1336 H 0.36561 0.73617 0.54779 0.0
H1337 H 0.39746 0.77067 0.53713 0.0
H1338 H 0.36031 0.80625 0.54432 0.0
H1339 H 0.32819 0.77149 0.55494 0.0
C1340 C 0.4199 0.85911 0.51624 0.0
C1341 C 0.44828 0.86507 0.52366 0.0
C1342 C 0.39634 0.83281 0.52333 0.0
C1343 C 0.40118 0.81234 0.53395 0.0
C1344 C 0.4295 0.81656 0.53683 0.0
C1345 C 0.45412 0.84232 0.5302 0.0
C1346 C 0.3643 0.75141 0.54726 0.0
C1347 C 0.34443 0.75113 0.55238 0.0
C1348 C 0.38261 0.77124 0.54116 0.0
C1349 C 0.38151 0.79126 0.54 0.0
C1350 C 0.36157 0.791 0.54487 0.0
C1351 C 0.34319 0.77111 0.55099 0.0
H1352 H 0.62842 0.4531 0.72625 0.0
H1353 H 0.55652 0.40991 0.71736 0.0
H1354 H 0.63164 0.41957 0.73222 0.0
H1355 H 0.55984 0.37638 0.7231 0.0
H1356 H 0.58565 0.32407 0.71613 0.0
H1357 H 0.57988 0.35614 0.71072 0.0
H1358 H 0.61655 0.3892 0.7542 0.0
H1359 H 0.6217 0.3569 0.76 0.0
C1360 C 0.6134 0.43641 0.72536 0.0
C1361 C 0.59237 0.43412 0.72095 0.0
C1362 C 0.61519 0.41728 0.7289 0.0
C1363 C 0.59598 0.39542 0.72808 0.0
C1364 C 0.57494 0.39304 0.72363 0.0
C1365 C 0.57308 0.41222 0.7203 0.0
C1366 C 0.59206 0.33791 0.72475 0.0
C1367 C 0.60429 0.33792 0.73846 0.0
C1368 C 0.58884 0.35632 0.72158 0.0
C1369 C 0.59799 0.37522 0.73196 0.0
C1370 C 0.60967 0.375 0.74586 0.0
C1371 C 0.61265 0.35651 0.74914 0.0
H1372 H 0.16186 0.54989 0.89939 0.0
H1373 H 0.19431 0.61818 0.88054 0.0
H1374 H 0.19902 0.55262 0.90224 0.0
H1375 H 0.23137 0.62114 0.88365 0.0
H1376 H 0.29235 0.61262 0.87666 0.0
H1377 H 0.25408 0.60612 0.87233 0.0
H1378 H 0.2336 0.57278 0.91855 0.0
H1379 H 0.27199 0.57914 0.9228 0.0
C1380 C 0.17695 0.56539 0.89573 0.0
C1381 C 0.17519 0.58366 0.88942 0.0
C1382 C 0.1982 0.56703 0.89749 0.0
C1383 C 0.21814 0.58703 0.89306 0.0
C1384 C 0.21633 0.60532 0.88686 0.0
C1385 C 0.19512 0.60368 0.88511 0.0
C1386 C 0.27966 0.60387 0.88589 0.0
C1387 C 0.28521 0.5966 0.90015 0.0
C1388 C 0.25775 0.60017 0.88342 0.0
C1389 C 0.24086 0.58918 0.89517 0.0
C1390 C 0.24618 0.58115 0.9092 0.0
C1391 C 0.26815 0.58479 0.91165 0.0
H1392 H 0.62184 0.19123 0.99937 0.0
H1393 H 0.58662 0.19887 0.03999 0.0
H1394 H 0.6583 0.21837 0.01155 0.0
H1395 H 0.623 0.22624 0.05212 0.0
H1396 H 0.6928 0.2646 0.0749 0.0
H1397 H 0.6587 0.23176 0.06407 0.0
H1398 H 0.67769 0.25945 0.01612 0.0
H1399 H 0.71148 0.29224 0.02687 0.0
C1400 C 0.62196 0.19846 0.01103 0.0
C1401 C 0.60145 0.19279 0.01882 0.0
C1402 C 0.64279 0.21409 0.01796 0.0
C1403 C 0.64355 0.22449 0.03278 0.0
C1404 C 0.62303 0.21828 0.0408 0.0
C1405 C 0.6022 0.20267 0.03386 0.0
C1406 C 0.68976 0.2636 0.06203 0.0
C1407 C 0.70486 0.28114 0.05178 0.0
C1408 C 0.67023 0.24479 0.05584 0.0
C1409 C 0.66543 0.24305 0.03925 0.0
C1410 C 0.68103 0.26009 0.02893 0.0
C1411 C 0.70048 0.27891 0.03511 0.0
H1412 H 0.44514 0.61756 0.17098 0.0
H1413 H 0.43371 0.59206 0.2197 0.0
H1414 H 0.44986 0.65365 0.18077 0.0
H1415 H 0.43877 0.62832 0.2295 0.0
H1416 H 0.46573 0.70515 0.24069 0.0
H1417 H 0.4685 0.67238 0.23091 0.0
H1418 H 0.4196 0.66102 0.19354 0.0
H1419 H 0.41665 0.69331 0.20339 0.0
C1420 C 0.44421 0.6199 0.18382 0.0
C1421 C 0.43938 0.60212 0.19458 0.0
C1422 C 0.4468 0.64047 0.1894 0.0
C1423 C 0.44471 0.64374 0.20588 0.0
C1424 C 0.44077 0.62633 0.21676 0.0
C1425 C 0.43786 0.60559 0.21115 0.0
C1426 C 0.4558 0.6957 0.23031 0.0
C1427 C 0.44092 0.70158 0.22281 0.0
C1428 C 0.45729 0.67697 0.22477 0.0
C1429 C 0.44432 0.66427 0.21144 0.0
C1430 C 0.42996 0.67065 0.20372 0.0
C1431 C 0.42816 0.68901 0.20941 0.0
H1432 H 0.85363 0.41243 0.38466 0.0
H1433 H 0.85634 0.44834 0.34112 0.0
H1434 H 0.82257 0.41748 0.3946 0.0
H1435 H 0.82559 0.45376 0.35112 0.0
H1436 H 0.74946 0.4244 0.36315 0.0
H1437 H 0.78513 0.42724 0.35487 0.0
H1438 H 0.81057 0.44476 0.40361 0.0
H1439 H 0.77442 0.44141 0.41199 0.0
C1440 C 0.84794 0.42189 0.37741 0.0
C1441 C 0.85745 0.4301 0.36216 0.0
C1442 C 0.83022 0.42486 0.38311 0.0
C1443 C 0.82155 0.43593 0.37361 0.0
C1444 C 0.83171 0.44492 0.35864 0.0
C1445 C 0.84941 0.44196 0.35296 0.0
C1446 C 0.76271 0.42898 0.37209 0.0
C1447 C 0.7591 0.43249 0.38824 0.0
C1448 C 0.78325 0.43085 0.36731 0.0
C1449 C 0.80069 0.43622 0.37859 0.0
C1450 C 0.79737 0.44042 0.39468 0.0
C1451 C 0.77679 0.43869 0.39945 0.0
H1452 H 0.10379 0.57591 0.43999 0.0
H1453 H 0.14321 0.54733 0.42095 0.0
H1454 H 0.12307 0.58208 0.46596 0.0
H1455 H 0.16254 0.55354 0.4469 0.0
H1456 H 0.21106 0.59734 0.48807 0.0
H1457 H 0.19002 0.58756 0.46279 0.0
H1458 H 0.12692 0.56015 0.48903 0.0
H1459 H 0.1479 0.56943 0.51444 0.0
C1460 C 0.11628 0.57058 0.44146 0.0
C1461 C 0.12165 0.56066 0.42855 0.0
C1462 C 0.12731 0.57411 0.45631 0.0
C1463 C 0.14423 0.5682 0.45847 0.0
C1464 C 0.14963 0.55834 0.44556 0.0
C1465 C 0.13848 0.55464 0.43077 0.0
C1466 C 0.19268 0.58882 0.48851 0.0
C1467 C 0.1812 0.58415 0.50334 0.0
C1468 C 0.18063 0.58328 0.474 0.0
C1469 C 0.15683 0.57312 0.47394 0.0
C1470 C 0.14529 0.56823 0.48872 0.0
C1471 C 0.15733 0.5736 0.50326 0.0
H1472 H 0.58995 0.11895 0.5829 0.0
H1473 H 0.51517 0.11558 0.59894 0.0
H1474 H 0.61052 0.1448 0.61202 0.0
H1475 H 0.53747 0.14137 0.62751 0.0
H1476 H 0.58535 0.19742 0.66254 0.0
H1477 H 0.56776 0.17564 0.63821 0.0
H1478 H 0.6087 0.14352 0.64202 0.0
H1479 H 0.62674 0.16582 0.6664 0.0
C1480 C 0.58057 0.12389 0.59087 0.0
C1481 C 0.5491 0.11106 0.5894 0.0
C1482 C 0.59284 0.13895 0.60942 0.0
C1483 C 0.57597 0.1447 0.62348 0.0
C1484 C 0.54688 0.13707 0.61911 0.0
C1485 C 0.5331 0.12195 0.60095 0.0
C1486 C 0.5907 0.18581 0.65814 0.0
C1487 C 0.60753 0.18343 0.66631 0.0
C1488 C 0.58039 0.17307 0.64431 0.0
C1489 C 0.58676 0.15777 0.63827 0.0
C1490 C 0.6036 0.15534 0.64636 0.0
C1491 C 0.61378 0.16795 0.66036 0.0
H1492 H 0.42306 0.51598 0.75912 0.0
H1493 H 0.49186 0.59437 0.74626 0.0
H1494 H 0.4179 0.5342 0.78916 0.0
H1495 H 0.48498 0.6108 0.7768 0.0
H1496 H 0.47847 0.62102 0.83192 0.0
H1497 H 0.48431 0.60616 0.80651 0.0
H1498 H 0.41175 0.56173 0.80198 0.0
H1499 H 0.40602 0.57609 0.82731 0.0
C1500 C 0.43381 0.5338 0.76201 0.0
C1501 C 0.46053 0.55219 0.75088 0.0
C1502 C 0.43147 0.54507 0.78106 0.0
C1503 C 0.45167 0.57404 0.78681 0.0
C1504 C 0.47395 0.59326 0.77334 0.0
C1505 C 0.4777 0.58356 0.75396 0.0
C1506 C 0.46385 0.60793 0.82551 0.0
C1507 C 0.44179 0.59978 0.83154 0.0
C1508 C 0.46716 0.59958 0.81093 0.0
C1509 C 0.4485 0.58273 0.8023 0.0
C1510 C 0.42652 0.57441 0.80846 0.0
C1511 C 0.4232 0.58286 0.82289 0.0
H1512 H 0.96068 0.47565 0.93794 0.0
H1513 H 0.97239 0.55325 0.95612 0.0
H1514 H 0.9251 0.45418 0.96159 0.0
H1515 H 0.93708 0.53016 0.9797 0.0
H1516 H 0.86982 0.48792 0.00545 0.0
H1517 H 0.89929 0.50548 0.98505 0.0
H1518 H 0.90974 0.44772 0.98688 0.0
H1519 H 0.8796 0.42987 0.00676 0.0
C1520 C 0.9569 0.48572 0.94614 0.0
C1521 C 0.96736 0.51649 0.9426 0.0
C1522 C 0.93411 0.47248 0.96053 0.0
C1523 C 0.92601 0.48951 0.97268 0.0
C1524 C 0.94139 0.5203 0.97172 0.0
C1525 C 0.96433 0.53504 0.95768 0.0
C1526 C 0.87842 0.479 0.00141 0.0
C1527 C 0.87244 0.45756 0.00769 0.0
C1528 C 0.89546 0.48912 0.98979 0.0
C1529 C 0.90715 0.47817 0.98436 0.0
C1530 C 0.90093 0.45656 0.9905 0.0
C1531 C 0.88367 0.44631 0.00198 0.0
H1532 H 0.45443 0.90736 0.08601 0.0
H1533 H 0.50317 0.9652 0.11381 0.0
H1534 H 0.44142 0.88468 0.11061 0.0
H1535 H 0.48981 0.94258 0.13846 0.0
H1536 H 0.43993 0.89712 0.17954 0.0
H1537 H 0.45247 0.92127 0.15562 0.0
H1538 H 0.46118 0.87062 0.1303 0.0
H1539 H 0.44968 0.8469 0.15425 0.0
C1540 C 0.46205 0.91531 0.09743 0.0
C1541 C 0.47947 0.93816 0.098 0.0
C1542 C 0.45473 0.90232 0.11146 0.0
C1543 C 0.46459 0.91192 0.12641 0.0
C1544 C 0.48175 0.93487 0.12709 0.0
C1545 C 0.48934 0.9478 0.113 0.0
C1546 C 0.44481 0.89123 0.16897 0.0
C1547 C 0.44359 0.8699 0.16886 0.0
C1548 C 0.45189 0.90504 0.15526 0.0
C1549 C 0.45757 0.89769 0.1411 0.0
C1550 C 0.4565 0.87652 0.14099 0.0
C1551 C 0.44978 0.86288 0.15472 0.0
H1552 H 0.58491 0.50446 0.27464 0.0
H1553 H 0.55921 0.43857 0.25239 0.0
H1554 H 0.589 0.48905 0.30024 0.0
H1555 H 0.56329 0.42315 0.27795 0.0
H1556 H 0.60701 0.41696 0.3186 0.0
H1557 H 0.597 0.42945 0.29395 0.0
H1558 H 0.56664 0.46078 0.32217 0.0
H1559 H 0.57689 0.44838 0.34695 0.0
C1560 C 0.57967 0.48657 0.27533 0.0
C1561 C 0.57135 0.47259 0.26159 0.0
C1562 C 0.58199 0.47775 0.28997 0.0
C1563 C 0.57642 0.45489 0.29109 0.0
C1564 C 0.56782 0.44086 0.27742 0.0
C1565 C 0.56534 0.44963 0.26283 0.0
C1566 C 0.59809 0.42641 0.31953 0.0
C1567 C 0.59283 0.43181 0.33467 0.0
C1568 C 0.5922 0.4334 0.30542 0.0
C1569 C 0.58106 0.44611 0.30614 0.0
C1570 C 0.57535 0.45113 0.32128 0.0
C1571 C 0.58105 0.4439 0.33543 0.0
H1572 H 0.47366 0.93552 0.39006 0.0
H1573 H 0.53046 0.92377 0.38822 0.0
H1574 H 0.46002 0.91611 0.36425 0.0
H1575 H 0.51639 0.90348 0.36278 0.0
H1576 H 0.49618 0.88361 0.31096 0.0
H1577 H 0.51095 0.90729 0.33494 0.0
H1578 H 0.4426 0.87887 0.35335 0.0
H1579 H 0.42776 0.85631 0.32896 0.0
C1580 C 0.48337 0.92901 0.38403 0.0
C1581 C 0.50347 0.93167 0.39096 0.0
C1582 C 0.47542 0.91763 0.36932 0.0
C1583 C 0.48711 0.90824 0.36136 0.0
C1584 C 0.50719 0.9109 0.36834 0.0
C1585 C 0.51524 0.92245 0.38296 0.0
C1586 C 0.48426 0.88269 0.31999 0.0
C1587 C 0.46076 0.86793 0.31801 0.0
C1588 C 0.49277 0.89608 0.33386 0.0
C1589 C 0.47801 0.89495 0.34617 0.0
C1590 C 0.45449 0.88043 0.34408 0.0
C1591 C 0.44598 0.86718 0.33016 0.0
H1592 H 0.60589 0.48211 0.56884 0.0
H1593 H 0.54835 0.47739 0.54311 0.0
H1594 H 0.61934 0.47343 0.54397 0.0
H1595 H 0.56208 0.46914 0.5182 0.0
H1596 H 0.60953 0.47777 0.47467 0.0
H1597 H 0.59715 0.48873 0.499 0.0
H1598 H 0.60302 0.4377 0.52601 0.0
H1599 H 0.6144 0.42595 0.50172 0.0
C1600 C 0.59636 0.47961 0.5578 0.0
C1601 C 0.57635 0.48091 0.55788 0.0
C1602 C 0.60397 0.47452 0.54363 0.0
C1603 C 0.59178 0.47071 0.52918 0.0
C1604 C 0.57194 0.47231 0.52914 0.0
C1605 C 0.56413 0.47707 0.54339 0.0
C1606 C 0.60795 0.46866 0.48573 0.0
C1607 C 0.61308 0.45097 0.48615 0.0
C1608 C 0.60095 0.47505 0.49966 0.0
C1609 C 0.59926 0.46414 0.51437 0.0
C1610 C 0.60452 0.44662 0.51487 0.0
C1611 C 0.61118 0.44 0.50092 0.0
H1612 H 0.14386 0.61325 0.73585 0.0
H1613 H 0.10362 0.54505 0.71714 0.0
H1614 H 0.16295 0.62585 0.70986 0.0
H1615 H 0.12268 0.55765 0.69112 0.0
H1616 H 0.14784 0.59447 0.64247 0.0
H1617 H 0.12687 0.58329 0.66782 0.0
H1618 H 0.19005 0.61859 0.69424 0.0
H1619 H 0.21107 0.6293 0.66904 0.0
C1620 C 0.13889 0.60105 0.72609 0.0
C1621 C 0.12192 0.5783 0.72842 0.0
C1622 C 0.14991 0.60821 0.71127 0.0
C1623 C 0.14424 0.59275 0.69845 0.0
C1624 C 0.12714 0.57002 0.70071 0.0
C1625 C 0.11624 0.56281 0.71559 0.0
C1626 C 0.15729 0.59976 0.65367 0.0
C1627 C 0.18119 0.61282 0.65366 0.0
C1628 C 0.14525 0.59338 0.66818 0.0
C1629 C 0.15682 0.60009 0.683 0.0
C1630 C 0.18064 0.61345 0.683 0.0
C1631 C 0.19268 0.61966 0.66853 0.0
H1632 H 0.62206 0.10328 0.89047 0.0
H1633 H 0.56376 0.12714 0.90632 0.0
H1634 H 0.6284 0.1264 0.86023 0.0
H1635 H 0.57159 0.1499 0.87553 0.0
H1636 H 0.57687 0.16749 0.8212 0.0
H1637 H 0.56935 0.14572 0.84617 0.0
H1638 H 0.63906 0.16056 0.84694 0.0
H1639 H 0.64629 0.18152 0.82194 0.0
C1640 C 0.61356 0.11284 0.88803 0.0
C1641 C 0.5892 0.10932 0.90034 0.0
C1642 C 0.61651 0.12636 0.86889 0.0
C1643 C 0.59967 0.13944 0.86403 0.0
C1644 C 0.58044 0.14085 0.87847 0.0
C1645 C 0.5763 0.12778 0.89799 0.0
C1646 C 0.59044 0.16577 0.82663 0.0
C1647 C 0.6122 0.1763 0.81967 0.0
C1648 C 0.58621 0.15351 0.84099 0.0
C1649 C 0.60359 0.15139 0.84851 0.0
C1650 C 0.62515 0.16149 0.84135 0.0
C1651 C 0.62941 0.1738 0.8271 0.0
H1652 H 0.49946 0.53845 0.0312 0.0
H1653 H 0.42884 0.50355 0.04518 0.0
H1654 H 0.4919 0.56047 0.0115 0.0
H1655 H 0.42102 0.52508 0.02513 0.0
H1656 H 0.4185 0.58118 0.99684 0.0
H1657 H 0.42758 0.56242 0.01823 0.0
H1658 H 0.47283 0.55411 0.98602 0.0
H1659 H 0.46462 0.5738 0.96492 0.0
C1660 C 0.48234 0.53562 0.03011 0.0
C1661 C 0.46477 0.51942 0.03979 0.0
C1662 C 0.47795 0.54807 0.01873 0.0
C1663 C 0.45583 0.54446 0.01665 0.0
C1664 C 0.43831 0.52851 0.02654 0.0
C1665 C 0.44274 0.51611 0.03798 0.0
C1666 C 0.43064 0.57564 0.9944 0.0
C1667 C 0.44082 0.579 0.97915 0.0
C1668 C 0.43564 0.56464 0.00661 0.0
C1669 C 0.45092 0.55673 0.00386 0.0
C1670 C 0.4612 0.56023 0.98864 0.0
C1671 C 0.45625 0.57125 0.97645 0.0
H1672 H 0.99042 0.47392 0.19284 0.0
H1673 H 0.94728 0.5058 0.22436 0.0
H1674 H 0.95349 0.4544 0.16994 0.0
H1675 H 0.91098 0.48495 0.20104 0.0
H1676 H 0.86535 0.46069 0.15578 0.0
H1677 H 0.89592 0.4785 0.17543 0.0
H1678 H 0.9154 0.42814 0.16521 0.0
H1679 H 0.88518 0.41079 0.14517 0.0
C1680 C 0.97619 0.4768 0.1939 0.0
C1681 C 0.97077 0.48838 0.21262 0.0
C1682 C 0.95247 0.46366 0.18021 0.0
C1683 C 0.92741 0.46614 0.18339 0.0
C1684 C 0.92585 0.48321 0.19962 0.0
C1685 C 0.94876 0.49705 0.21393 0.0
C1686 C 0.87601 0.45328 0.15789 0.0
C1687 C 0.87288 0.43435 0.14892 0.0
C1688 C 0.89356 0.46347 0.16921 0.0
C1689 C 0.90826 0.45485 0.17189 0.0
C1690 C 0.90479 0.4356 0.16319 0.0
C1691 C 0.88736 0.42552 0.15177 0.0
loop_
_geom_bond_atom_site_label_1
_geom_bond_atom_site_label_2
_geom_bond_distance
_geom_bond_site_symmetry_2
_ccdc_geom_bond_type
C0 C1 1.560 . S
C0 H61 0.959 . S
C0 H62 0.959 . S
C0 H63 0.960 . S
C1 C0 1.560 . S
C1 O56 1.426 . S
C1 H60 0.980 . S
C2 C3 1.407 . S
C2 C7 1.418 . S
C2 O56 1.334 . S
C3 C2 1.407 . S
C3 C4 1.360 . S
C3 H64 0.929 . S
C4 C3 1.360 . S
C4 C5 1.401 . S
C4 C8 1.527 . S
C5 C4 1.401 . S
C5 C6 1.405 . S
C5 C38 1.587 . S
C6 C5 1.405 . S
C6 C7 1.332 . S
C6 C9 1.496 . S
C7 C2 1.418 . S
C7 C6 1.332 . S
C7 H65 0.929 . S
C8 C4 1.527 . S
C8 H66 0.959 . S
C8 H67 0.961 . S
C8 H68 0.961 . S
C9 C6 1.496 . S
C9 H69 0.960 . S
C9 H70 0.960 . S
C9 H71 0.961 . S
C10 C11 1.517 . S
C10 H73 0.961 . S
C10 H74 0.960 . S
C10 H75 0.959 . S
C11 C10 1.517 . S
C11 O59 1.468 . S
C11 H72 0.980 . S
C12 C13 1.349 . S
C12 C17 1.367 . S
C12 O59 1.408 . S
C13 C12 1.349 . S
C13 C14 1.407 1_655 S
C13 H76 0.930 . S
C14 C13 1.407 1_455 S
C14 C15 1.449 . S
C14 C18 1.535 . S
C15 C14 1.449 . S
C15 C16 1.384 . S
C15 C40 1.553 . S
C16 C15 1.384 . S
C16 C17 1.364 1_455 S
C16 C19 1.450 . S
C17 C12 1.367 . S
C17 C16 1.364 1_655 S
C17 H77 0.931 . S
C18 C14 1.535 . S
C18 H78 0.959 . S
C18 H79 0.961 . S
C18 H80 0.959 1_455 S
C19 C16 1.450 . S
C19 H81 0.960 . S
C19 H82 0.960 . S
C19 H83 0.960 . S
C20 C21 1.309 . S
C20 C25 1.304 . S
C20 O58 1.435 . S
C21 C20 1.309 . S
C21 C22 1.476 . S
C21 H85 0.930 . S
C22 C21 1.476 . S
C22 C23 1.400 . S
C22 C26 1.567 . S
C23 C22 1.400 . S
C23 C24 1.373 . S
C23 C45 1.432 . S
C24 C23 1.373 . S
C24 C25 1.339 . S
C24 C27 1.530 . S
C25 C20 1.304 . S
C25 C24 1.339 . S
C25 H86 0.930 . S
C26 C22 1.567 . S
C26 H87 0.961 . S
C26 H88 0.960 . S
C26 H89 0.958 . S
C27 C24 1.530 . S
C27 H90 0.961 . S
C27 H91 0.960 . S
C27 H92 0.960 . S
C28 C29 1.530 . S
C28 H94 0.961 . S
C28 H95 0.961 . S
C28 H96 0.959 . S
C29 C28 1.530 . S
C29 O57 1.412 . S
C29 H93 0.980 . S
C30 C31 1.288 . S
C30 C35 1.377 . S
C30 O57 1.393 . S
C31 C30 1.288 . S
C31 C32 1.369 . S
C31 H97 0.932 . S
C32 C31 1.369 . S
C32 C33 1.398 . S
C32 C36 1.527 . S
C33 C32 1.398 . S
C33 C34 1.380 . S
C33 C47 1.497 . S
C34 C33 1.380 . S
C34 C35 1.383 . S
C34 C37 1.603 . S
C35 C30 1.377 . S
C35 C34 1.383 . S
C35 H98 0.929 . S
C36 C32 1.527 . S
C36 H99 0.961 . S
C36 H100 0.959 . S
C36 H101 0.959 . S
C37 C34 1.603 . S
C37 H102 0.960 . S
C37 H103 0.962 . S
C37 H104 0.961 . S
C38 C5 1.587 . S
C38 C39 1.360 . S
C38 C51 1.412 . S
C39 C38 1.360 . S
C39 C40 1.365 . S
C39 H105 0.929 . S
C40 C15 1.553 . S
C40 C39 1.365 . S
C40 C41 1.404 . S
C41 C40 1.404 . S
C41 C42 1.395 1_455 S
C41 C52 1.451 . S
C42 C41 1.395 1_655 S
C42 C43 1.322 . S
C42 H106 0.930 . S
C43 C42 1.322 . S
C43 C44 1.459 . S
C43 H107 0.929 . S
C44 C43 1.459 . S
C44 C45 1.445 . S
C44 C53 1.395 1_655 S
C45 C23 1.432 . S
C45 C44 1.445 . S
C45 C46 1.370 1_655 S
C46 C45 1.370 1_455 S
C46 C47 1.438 . S
C46 H108 0.930 1_455 S
C47 C33 1.497 . S
C47 C46 1.438 . S
C47 C48 1.360 . S
C48 C47 1.360 . S
C48 C49 1.401 . S
C48 C53 1.446 . S
C49 C48 1.401 . S
C49 C50 1.347 . S
C49 H109 0.929 . S
C50 C49 1.347 . S
C50 C51 1.455 . S
C50 H110 0.930 . S
C51 C38 1.412 . S
C51 C50 1.455 . S
C51 C52 1.331 . S
C52 C41 1.451 . S
C52 C51 1.331 . S
C52 C53 1.497 . S
C53 C44 1.395 1_455 S
C53 C48 1.446 . S
C53 C52 1.497 . S
C54 C55 1.582 . S
C54 H111 0.962 . S
C54 H112 0.959 . S
C54 H113 0.958 . S
C55 C54 1.582 . S
C55 O58 1.458 . S
C55 H84 0.980 . S
O56 C1 1.426 . S
O56 C2 1.334 . S
O57 C29 1.412 . S
O57 C30 1.393 . S
O58 C20 1.435 . S
O58 C55 1.458 . S
O59 C11 1.468 . S
O59 C12 1.408 . S
H60 C1 0.980 . S
H61 C0 0.959 . S
H62 C0 0.959 . S
H63 C0 0.960 . S
H64 C3 0.929 . S
H65 C7 0.929 . S
H66 C8 0.959 . S
H67 C8 0.961 . S
H68 C8 0.961 . S
H69 C9 0.960 . S
H70 C9 0.960 . S
H71 C9 0.961 . S
H72 C11 0.980 . S
H73 C10 0.961 . S
H74 C10 0.960 . S
H75 C10 0.959 . S
H76 C13 0.930 . S
H77 C17 0.931 . S
H78 C18 0.959 . S
H79 C18 0.961 . S
H80 C18 0.959 1_655 S
H81 C19 0.960 . S
H82 C19 0.960 . S
H83 C19 0.960 . S
H84 C55 0.980 . S
H85 C21 0.930 . S
H86 C25 0.930 . S
H87 C26 0.961 . S
H88 C26 0.960 . S
H89 C26 0.958 . S
H90 C27 0.961 . S
H91 C27 0.960 . S
H92 C27 0.960 . S
H93 C29 0.980 . S
H94 C28 0.961 . S
H95 C28 0.961 . S
H96 C28 0.959 . S
H97 C31 0.932 . S
H98 C35 0.929 . S
H99 C36 0.961 . S
H100 C36 0.959 . S
H101 C36 0.959 . S
H102 C37 0.960 . S
H103 C37 0.962 . S
H104 C37 0.961 . S
H105 C39 0.929 . S
H106 C42 0.930 . S
H107 C43 0.929 . S
H108 C46 0.930 1_655 S
H109 C49 0.929 . S
H110 C50 0.930 . S
H111 C54 0.962 . S
H112 C54 0.959 . S
H113 C54 0.958 . S
C114 C115 1.560 . S
C114 H175 0.959 . S
C114 H176 0.959 . S
C114 H177 0.960 . S
C115 C114 1.560 . S
C115 O170 1.426 . S
C115 H174 0.980 . S
C116 C117 1.407 . S
C116 C121 1.418 . S
C116 O170 1.334 . S
C117 C116 1.407 . S
C117 C118 1.360 . S
C117 H178 0.929 . S
C118 C117 1.360 . S
C118 C119 1.401 . S
C118 C122 1.527 . S
C119 C118 1.401 . S
C119 C120 1.405 . S
C119 C152 1.587 . S
C120 C119 1.405 . S
C120 C121 1.332 . S
C120 C123 1.496 . S
C121 C116 1.418 . S
C121 C120 1.332 . S
C121 H179 0.929 . S
C122 C118 1.527 . S
C122 H180 0.959 . S
C122 H181 0.961 . S
C122 H182 0.961 . S
C123 C120 1.496 . S
C123 H183 0.960 . S
C123 H184 0.960 . S
C123 H185 0.961 . S
C124 C125 1.517 . S
C124 H187 0.961 . S
C124 H188 0.960 . S
C124 H189 0.959 . S
C125 C124 1.517 . S
C125 O173 1.468 . S
C125 H186 0.980 . S
C126 C127 1.349 . S
C126 C131 1.367 . S
C126 O173 1.408 . S
C127 C126 1.349 . S
C127 C128 1.407 . S
C127 H190 0.930 . S
C128 C127 1.407 . S
C128 C129 1.449 . S
C128 C132 1.535 . S
C129 C128 1.449 . S
C129 C130 1.384 . S
C129 C154 1.553 . S
C130 C129 1.384 . S
C130 C131 1.364 . S
C130 C133 1.450 . S
C131 C126 1.367 . S
C131 C130 1.364 . S
C131 H191 0.931 . S
C132 C128 1.535 . S
C132 H192 0.959 . S
C132 H193 0.961 . S
C132 H194 0.959 . S
C133 C130 1.450 . S
C133 H195 0.960 . S
C133 H196 0.960 . S
C133 H197 0.960 . S
C134 C135 1.309 . S
C134 C139 1.304 . S
C134 O172 1.435 . S
C135 C134 1.309 . S
C135 C136 1.476 . S
C135 H199 0.930 . S
C136 C135 1.476 . S
C136 C137 1.400 . S
C136 C140 1.567 . S
C137 C136 1.400 . S
C137 C138 1.373 . S
C137 C159 1.432 . S
C138 C137 1.373 . S
C138 C139 1.339 . S
C138 C141 1.530 . S
C139 C134 1.304 . S
C139 C138 1.339 . S
C139 H200 0.930 . S
C140 C136 1.567 . S
C140 H201 0.961 . S
C140 H202 0.960 . S
C140 H203 0.958 . S
C141 C138 1.530 . S
C141 H204 0.961 . S
C141 H205 0.960 . S
C141 H206 0.960 . S
C142 C143 1.530 . S
C142 H208 0.961 . S
C142 H209 0.961 . S
C142 H210 0.959 . S
C143 C142 1.530 . S
C143 O171 1.412 . S
C143 H207 0.980 . S
C144 C145 1.288 . S
C144 C149 1.377 . S
C144 O171 1.393 . S
C145 C144 1.288 . S
C145 C146 1.369 1_565 S
C145 H211 0.932 . S
C146 C145 1.369 1_545 S
C146 C147 1.398 . S
C146 C150 1.527 . S
C147 C146 1.398 . S
C147 C148 1.380 1_545 S
C147 C161 1.497 . S
C148 C147 1.380 1_565 S
C148 C149 1.383 . S
C148 C151 1.603 . S
C149 C144 1.377 . S
C149 C148 1.383 . S
C149 H212 0.929 . S
C150 C146 1.527 . S
C150 H213 0.961 . S
C150 H214 0.959 . S
C150 H215 0.959 . S
C151 C148 1.603 . S
C151 H216 0.960 . S
C151 H217 0.962 1_565 S
C151 H218 0.961 . S
C152 C119 1.587 . S
C152 C153 1.360 . S
C152 C165 1.412 . S
C153 C152 1.360 . S
C153 C154 1.365 1_565 S
C153 H219 0.929 . S
C154 C129 1.553 . S
C154 C153 1.365 1_545 S
C154 C155 1.404 . S
C155 C154 1.404 . S
C155 C156 1.395 . S
C155 C166 1.451 . S
C156 C155 1.395 . S
C156 C157 1.322 . S
C156 H220 0.930 . S
C157 C156 1.322 . S
C157 C158 1.459 . S
C157 H221 0.929 . S
C158 C157 1.459 . S
C158 C159 1.445 . S
C158 C167 1.395 . S
C159 C137 1.432 . S
C159 C158 1.445 . S
C159 C160 1.370 . S
C160 C159 1.370 . S
C160 C161 1.438 . S
C160 H222 0.930 . S
C161 C147 1.497 . S
C161 C160 1.438 . S
C161 C162 1.360 . S
C162 C161 1.360 . S
C162 C163 1.401 1_545 S
C162 C167 1.446 . S
C163 C162 1.401 1_565 S
C163 C164 1.347 . S
C163 H223 0.929 . S
C164 C163 1.347 . S
C164 C165 1.455 . S
C164 H224 0.930 . S
C165 C152 1.412 . S
C165 C164 1.455 . S
C165 C166 1.331 1_565 S
C166 C155 1.451 . S
C166 C165 1.331 1_545 S
C166 C167 1.497 . S
C167 C158 1.395 . S
C167 C162 1.446 . S
C167 C166 1.497 . S
C168 C169 1.582 . S
C168 H225 0.962 . S
C168 H226 0.959 . S
C168 H227 0.958 . S
C169 C168 1.582 . S
C169 O172 1.458 . S
C169 H198 0.980 . S
O170 C115 1.426 . S
O170 C116 1.334 . S
O171 C143 1.412 . S
O171 C144 1.393 . S
O172 C134 1.435 . S
O172 C169 1.458 . S
O173 C125 1.468 . S
O173 C126 1.408 . S
H174 C115 0.980 . S
H175 C114 0.959 . S
H176 C114 0.959 . S
H177 C114 0.960 . S
H178 C117 0.929 . S
H179 C121 0.929 . S
H180 C122 0.959 . S
H181 C122 0.961 . S
H182 C122 0.961 . S
H183 C123 0.960 . S
H184 C123 0.960 . S
H185 C123 0.961 . S
H186 C125 0.980 . S
H187 C124 0.961 . S
H188 C124 0.960 . S
H189 C124 0.959 . S
H190 C127 0.930 . S
H191 C131 0.931 . S
H192 C132 0.959 . S
H193 C132 0.961 . S
H194 C132 0.959 . S
H195 C133 0.960 . S
H196 C133 0.960 . S
H197 C133 0.960 . S
H198 C169 0.980 . S
H199 C135 0.930 . S
H200 C139 0.930 . S
H201 C140 0.961 . S
H202 C140 0.960 . S
H203 C140 0.958 . S
H204 C141 0.961 . S
H205 C141 0.960 . S
H206 C141 0.960 . S
H207 C143 0.980 . S
H208 C142 0.961 . S
H209 C142 0.961 . S
H210 C142 0.959 . S
H211 C145 0.932 . S
H212 C149 0.929 . S
H213 C150 0.961 . S
H214 C150 0.959 . S
H215 C150 0.959 . S
H216 C151 0.960 . S
H217 C151 0.962 1_545 S
H218 C151 0.961 . S
H219 C153 0.929 . S
H220 C156 0.930 . S
H221 C157 0.929 . S
H222 C160 0.930 . S
H223 C163 0.929 . S
H224 C164 0.930 . S
H225 C168 0.962 . S
H226 C168 0.959 . S
H227 C168 0.958 . S
C228 C229 1.560 . S
C228 H289 0.959 . S
C228 H290 0.959 . S
C228 H291 0.960 . S
C229 C228 1.560 . S
C229 O284 1.426 . S
C229 H288 0.980 . S
C230 C231 1.407 . S
C230 C235 1.418 . S
C230 O284 1.334 . S
C231 C230 1.407 . S
C231 C232 1.360 . S
C231 H292 0.929 . S
C232 C231 1.360 . S
C232 C233 1.401 . S
C232 C236 1.527 . S
C233 C232 1.401 . S
C233 C234 1.405 . S
C233 C266 1.587 . S
C234 C233 1.405 . S
C234 C235 1.332 . S
C234 C237 1.496 . S
C235 C230 1.418 . S
C235 C234 1.332 . S
C235 H293 0.929 . S
C236 C232 1.527 . S
C236 H294 0.959 . S
C236 H295 0.961 . S
C236 H296 0.961 . S
C237 C234 1.496 . S
C237 H297 0.960 . S
C237 H298 0.960 . S
C237 H299 0.961 . S
C238 C239 1.517 . S
C238 H301 0.961 . S
C238 H302 0.960 . S
C238 H303 0.959 . S
C239 C238 1.517 . S
C239 O287 1.468 . S
C239 H300 0.980 . S
C240 C241 1.349 . S
C240 C245 1.367 . S
C240 O287 1.408 . S
C241 C240 1.349 . S
C241 C242 1.407 . S
C241 H304 0.930 . S
C242 C241 1.407 . S
C242 C243 1.449 . S
C242 C246 1.535 . S
C243 C242 1.449 . S
C243 C244 1.384 . S
C243 C268 1.553 . S
C244 C243 1.384 . S
C244 C245 1.364 . S
C244 C247 1.450 . S
C245 C240 1.367 . S
C245 C244 1.364 . S
C245 H305 0.931 . S
C246 C242 1.535 . S
C246 H306 0.959 . S
C246 H307 0.961 . S
C246 H308 0.959 . S
C247 C244 1.450 . S
C247 H309 0.960 . S
C247 H310 0.960 . S
C247 H311 0.960 . S
C248 C249 1.309 . S
C248 C253 1.304 . S
C248 O286 1.435 . S
C249 C248 1.309 . S
C249 C250 1.476 . S
C249 H313 0.930 . S
C250 C249 1.476 . S
C250 C251 1.400 . S
C250 C254 1.567 . S
C251 C250 1.400 . S
C251 C252 1.373 . S
C251 C273 1.432 . S
C252 C251 1.373 . S
C252 C253 1.339 . S
C252 C255 1.530 . S
C253 C248 1.304 . S
C253 C252 1.339 . S
C253 H314 0.930 . S
C254 C250 1.567 . S
C254 H315 0.961 . S
C254 H316 0.960 . S
C254 H317 0.958 . S
C255 C252 1.530 . S
C255 H318 0.961 . S
C255 H319 0.960 . S
C255 H320 0.960 . S
C256 C257 1.530 . S
C256 H322 0.961 . S
C256 H323 0.961 . S
C256 H324 0.959 . S
C257 C256 1.530 . S
C257 O285 1.412 . S
C257 H321 0.980 . S
C258 C259 1.288 . S
C258 C263 1.377 . S
C258 O285 1.393 . S
C259 C258 1.288 . S
C259 C260 1.369 . S
C259 H325 0.932 . S
C260 C259 1.369 . S
C260 C261 1.398 . S
C260 C264 1.527 . S
C261 C260 1.398 . S
C261 C262 1.380 . S
C261 C275 1.497 . S
C262 C261 1.380 . S
C262 C263 1.383 . S
C262 C265 1.603 . S
C263 C258 1.377 . S
C263 C262 1.383 . S
C263 H326 0.929 . S
C264 C260 1.527 . S
C264 H327 0.961 . S
C264 H328 0.959 . S
C264 H329 0.959 . S
C265 C262 1.603 . S
C265 H330 0.960 . S
C265 H331 0.962 . S
C265 H332 0.961 . S
C266 C233 1.587 . S
C266 C267 1.360 . S
C266 C279 1.412 . S
C267 C266 1.360 . S
C267 C268 1.365 . S
C267 H333 0.929 . S
C268 C243 1.553 . S
C268 C267 1.365 . S
C268 C269 1.404 . S
C269 C268 1.404 . S
C269 C270 1.395 . S
C269 C280 1.451 . S
C270 C269 1.395 . S
C270 C271 1.322 . S
C270 H334 0.930 . S
C271 C270 1.322 . S
C271 C272 1.459 . S
C271 H335 0.929 . S
C272 C271 1.459 . S
C272 C273 1.445 . S
C272 C281 1.395 . S
C273 C251 1.432 . S
C273 C272 1.445 . S
C273 C274 1.370 . S
C274 C273 1.370 . S
C274 C275 1.438 . S
C274 H336 0.930 . S
C275 C261 1.497 . S
C275 C274 1.438 . S
C275 C276 1.360 . S
C276 C275 1.360 . S
C276 C277 1.401 . S
C276 C281 1.446 . S
C277 C276 1.401 . S
C277 C278 1.347 . S
C277 H337 0.929 . S
C278 C277 1.347 . S
C278 C279 1.455 . S
C278 H338 0.930 . S
C279 C266 1.412 . S
C279 C278 1.455 . S
C279 C280 1.331 . S
C280 C269 1.451 . S
C280 C279 1.331 . S
C280 C281 1.497 . S
C281 C272 1.395 . S
C281 C276 1.446 . S
C281 C280 1.497 . S
C282 C283 1.582 . S
C282 H339 0.962 . S
C282 H340 0.959 . S
C282 H341 0.958 . S
C283 C282 1.582 . S
C283 O286 1.458 . S
C283 H312 0.980 . S
O284 C229 1.426 . S
O284 C230 1.334 . S
O285 C257 1.412 . S
O285 C258 1.393 . S
O286 C248 1.435 . S
O286 C283 1.458 . S
O287 C239 1.468 . S
O287 C240 1.408 . S
H288 C229 0.980 . S
H289 C228 0.959 . S
H290 C228 0.959 . S
H291 C228 0.960 . S
H292 C231 0.929 . S
H293 C235 0.929 . S
H294 C236 0.959 . S
H295 C236 0.961 . S
H296 C236 0.961 . S
H297 C237 0.960 . S
H298 C237 0.960 . S
H299 C237 0.961 . S
H300 C239 0.980 . S
H301 C238 0.961 . S
H302 C238 0.960 . S
H303 C238 0.959 . S
H304 C241 0.930 . S
H305 C245 0.931 . S
H306 C246 0.959 . S
H307 C246 0.961 . S
H308 C246 0.959 . S
H309 C247 0.960 . S
H310 C247 0.960 . S
H311 C247 0.960 . S
H312 C283 0.980 . S
H313 C249 0.930 . S
H314 C253 0.930 . S
H315 C254 0.961 . S
H316 C254 0.960 . S
H317 C254 0.958 . S
H318 C255 0.961 . S
H319 C255 0.960 . S
H320 C255 0.960 . S
H321 C257 0.980 . S
H322 C256 0.961 . S
H323 C256 0.961 . S
H324 C256 0.959 . S
H325 C259 0.932 . S
H326 C263 0.929 . S
H327 C264 0.961 . S
H328 C264 0.959 . S
H329 C264 0.959 . S
H330 C265 0.960 . S
H331 C265 0.962 . S
H332 C265 0.961 . S
H333 C267 0.929 . S
H334 C270 0.930 . S
H335 C271 0.929 . S
H336 C274 0.930 . S
H337 C277 0.929 . S
H338 C278 0.930 . S
H339 C282 0.962 . S
H340 C282 0.959 . S
H341 C282 0.958 . S
C342 C343 1.560 . S
C342 H403 0.959 . S
C342 H404 0.959 . S
C342 H405 0.960 . S
C343 C342 1.560 . S
C343 O398 1.426 . S
C343 H402 0.980 . S
C344 C345 1.407 . S
C344 C349 1.418 . S
C344 O398 1.334 . S
C345 C344 1.407 . S
C345 C346 1.360 . S
C345 H406 0.929 . S
C346 C345 1.360 . S
C346 C347 1.401 . S
C346 C350 1.527 . S
C347 C346 1.401 . S
C347 C348 1.405 . S
C347 C380 1.587 . S
C348 C347 1.405 . S
C348 C349 1.332 . S
C348 C351 1.496 . S
C349 C344 1.418 . S
C349 C348 1.332 . S
C349 H407 0.929 . S
C350 C346 1.527 . S
C350 H408 0.959 . S
C350 H409 0.961 . S
C350 H410 0.961 . S
C351 C348 1.496 . S
C351 H411 0.960 . S
C351 H412 0.960 . S
C351 H413 0.961 . S
C352 C353 1.517 . S
C352 H415 0.961 . S
C352 H416 0.960 . S
C352 H417 0.959 . S
C353 C352 1.517 . S
C353 O401 1.468 . S
C353 H414 0.980 . S
C354 C355 1.349 . S
C354 C359 1.367 . S
C354 O401 1.408 . S
C355 C354 1.349 . S
C355 C356 1.407 1_655 S
C355 H418 0.930 . S
C356 C355 1.407 1_455 S
C356 C357 1.449 . S
C356 C360 1.535 . S
C357 C356 1.449 . S
C357 C358 1.384 . S
C357 C382 1.553 . S
C358 C357 1.384 . S
C358 C359 1.364 1_455 S
C358 C361 1.450 . S
C359 C354 1.367 . S
C359 C358 1.364 1_655 S
C359 H419 0.931 . S
C360 C356 1.535 . S
C360 H420 0.959 . S
C360 H421 0.961 . S
C360 H422 0.959 1_455 S
C361 C358 1.450 . S
C361 H423 0.960 . S
C361 H424 0.960 . S
C361 H425 0.960 . S
C362 C363 1.309 . S
C362 C367 1.304 . S
C362 O400 1.435 . S
C363 C362 1.309 . S
C363 C364 1.476 . S
C363 H427 0.930 . S
C364 C363 1.476 . S
C364 C365 1.400 . S
C364 C368 1.567 . S
C365 C364 1.400 . S
C365 C366 1.373 . S
C365 C387 1.432 . S
C366 C365 1.373 . S
C366 C367 1.339 . S
C366 C369 1.530 . S
C367 C362 1.304 . S
C367 C366 1.339 . S
C367 H428 0.930 . S
C368 C364 1.567 . S
C368 H429 0.961 . S
C368 H430 0.960 . S
C368 H431 0.958 . S
C369 C366 1.530 . S
C369 H432 0.961 . S
C369 H433 0.960 . S
C369 H434 0.960 . S
C370 C371 1.530 . S
C370 H436 0.961 . S
C370 H437 0.961 . S
C370 H438 0.959 . S
C371 C370 1.530 . S
C371 O399 1.412 . S
C371 H435 0.980 . S
C372 C373 1.288 . S
C372 C377 1.377 . S
C372 O399 1.393 . S
C373 C372 1.288 . S
C373 C374 1.369 . S
C373 H439 0.932 . S
C374 C373 1.369 . S
C374 C375 1.398 . S
C374 C378 1.527 . S
C375 C374 1.398 . S
C375 C376 1.380 . S
C375 C389 1.497 . S
C376 C375 1.380 . S
C376 C377 1.383 . S
C376 C379 1.603 . S
C377 C372 1.377 . S
C377 C376 1.383 . S
C377 H440 0.929 . S
C378 C374 1.527 . S
C378 H441 0.961 . S
C378 H442 0.959 . S
C378 H443 0.959 . S
C379 C376 1.603 . S
C379 H444 0.960 . S
C379 H445 0.962 . S
C379 H446 0.961 . S
C380 C347 1.587 . S
C380 C381 1.360 . S
C380 C393 1.412 . S
C381 C380 1.360 . S
C381 C382 1.365 . S
C381 H447 0.929 . S
C382 C357 1.553 . S
C382 C381 1.365 . S
C382 C383 1.404 . S
C383 C382 1.404 . S
C383 C384 1.395 1_455 S
C383 C394 1.451 . S
C384 C383 1.395 1_655 S
C384 C385 1.322 . S
C384 H448 0.930 . S
C385 C384 1.322 . S
C385 C386 1.459 . S
C385 H449 0.929 . S
C386 C385 1.459 . S
C386 C387 1.445 . S
C386 C395 1.395 1_655 S
C387 C365 1.432 . S
C387 C386 1.445 . S
C387 C388 1.370 1_655 S
C388 C387 1.370 1_455 S
C388 C389 1.438 . S
C388 H450 0.930 1_455 S
C389 C375 1.497 . S
C389 C388 1.438 . S
C389 C390 1.360 . S
C390 C389 1.360 . S
C390 C391 1.401 . S
C390 C395 1.446 . S
C391 C390 1.401 . S
C391 C392 1.347 . S
C391 H451 0.929 . S
C392 C391 1.347 . S
C392 C393 1.455 . S
C392 H452 0.930 . S
C393 C380 1.412 . S
C393 C392 1.455 . S
C393 C394 1.331 . S
C394 C383 1.451 . S
C394 C393 1.331 . S
C394 C395 1.497 . S
C395 C386 1.395 1_455 S
C395 C390 1.446 . S
C395 C394 1.497 . S
C396 C397 1.582 . S
C396 H453 0.962 . S
C396 H454 0.959 . S
C396 H455 0.958 . S
C397 C396 1.582 . S
C397 O400 1.458 . S
C397 H426 0.980 . S
O398 C343 1.426 . S
O398 C344 1.334 . S
O399 C371 1.412 . S
O399 C372 1.393 . S
O400 C362 1.435 . S
O400 C397 1.458 . S
O401 C353 1.468 . S
O401 C354 1.408 . S
H402 C343 0.980 . S
H403 C342 0.959 . S
H404 C342 0.959 . S
H405 C342 0.960 . S
H406 C345 0.929 . S
H407 C349 0.929 . S
H408 C350 0.959 . S
H409 C350 0.961 . S
H410 C350 0.961 . S
H411 C351 0.960 . S
H412 C351 0.960 . S
H413 C351 0.961 . S
H414 C353 0.980 . S
H415 C352 0.961 . S
H416 C352 0.960 . S
H417 C352 0.959 . S
H418 C355 0.930 . S
H419 C359 0.931 . S
H420 C360 0.959 . S
H421 C360 0.961 . S
H422 C360 0.959 1_655 S
H423 C361 0.960 . S
H424 C361 0.960 . S
H425 C361 0.960 . S
H426 C397 0.980 . S
H427 C363 0.930 . S
H428 C367 0.930 . S
H429 C368 0.961 . S
H430 C368 0.960 . S
H431 C368 0.958 . S
H432 C369 0.961 . S
H433 C369 0.960 . S
H434 C369 0.960 . S
H435 C371 0.980 . S
H436 C370 0.961 . S
H437 C370 0.961 . S
H438 C370 0.959 . S
H439 C373 0.932 . S
H440 C377 0.929 . S
H441 C378 0.961 . S
H442 C378 0.959 . S
H443 C378 0.959 . S
H444 C379 0.960 . S
H445 C379 0.962 . S
H446 C379 0.961 . S
H447 C381 0.929 . S
H448 C384 0.930 . S
H449 C385 0.929 . S
H450 C388 0.930 1_655 S
H451 C391 0.929 . S
H452 C392 0.930 . S
H453 C396 0.962 . S
H454 C396 0.959 . S
H455 C396 0.958 . S
C456 C457 1.560 . S
C456 H517 0.959 . S
C456 H518 0.959 . S
C456 H519 0.960 . S
C457 C456 1.560 . S
C457 O512 1.426 . S
C457 H516 0.980 . S
C458 C459 1.407 . S
C458 C463 1.418 . S
C458 O512 1.334 . S
C459 C458 1.407 . S
C459 C460 1.360 . S
C459 H520 0.929 . S
C460 C459 1.360 . S
C460 C461 1.401 . S
C460 C464 1.527 . S
C461 C460 1.401 . S
C461 C462 1.405 . S
C461 C494 1.587 . S
C462 C461 1.405 . S
C462 C463 1.332 . S
C462 C465 1.496 . S
C463 C458 1.418 . S
C463 C462 1.332 . S
C463 H521 0.929 . S
C464 C460 1.527 . S
C464 H522 0.959 . S
C464 H523 0.961 . S
C464 H524 0.961 . S
C465 C462 1.496 . S
C465 H525 0.960 . S
C465 H526 0.960 . S
C465 H527 0.961 . S
C466 C467 1.517 . S
C466 H529 0.961 . S
C466 H530 0.960 . S
C466 H531 0.959 . S
C467 C466 1.517 . S
C467 O515 1.468 . S
C467 H528 0.980 . S
C468 C469 1.349 . S
C468 C473 1.367 . S
C468 O515 1.408 . S
C469 C468 1.349 . S
C469 C470 1.407 . S
C469 H532 0.930 . S
C470 C469 1.407 . S
C470 C471 1.449 . S
C470 C474 1.535 . S
C471 C470 1.449 . S
C471 C472 1.384 . S
C471 C496 1.553 . S
C472 C471 1.384 . S
C472 C473 1.364 . S
C472 C475 1.450 . S
C473 C468 1.367 . S
C473 C472 1.364 . S
C473 H533 0.931 . S
C474 C470 1.535 . S
C474 H534 0.959 . S
C474 H535 0.961 . S
C474 H536 0.959 . S
C475 C472 1.450 . S
C475 H537 0.960 . S
C475 H538 0.960 . S
C475 H539 0.960 . S
C476 C477 1.309 . S
C476 C481 1.304 . S
C476 O514 1.435 . S
C477 C476 1.309 . S
C477 C478 1.476 . S
C477 H541 0.930 . S
C478 C477 1.476 . S
C478 C479 1.400 . S
C478 C482 1.567 . S
C479 C478 1.400 . S
C479 C480 1.373 . S
C479 C501 1.432 . S
C480 C479 1.373 . S
C480 C481 1.339 . S
C480 C483 1.530 . S
C481 C476 1.304 . S
C481 C480 1.339 . S
C481 H542 0.930 . S
C482 C478 1.567 . S
C482 H543 0.961 . S
C482 H544 0.960 . S
C482 H545 0.958 . S
C483 C480 1.530 . S
C483 H546 0.961 . S
C483 H547 0.960 . S
C483 H548 0.960 . S
C484 C485 1.530 . S
C484 H550 0.961 . S
C484 H551 0.961 . S
C484 H552 0.959 . S
C485 C484 1.530 . S
C485 O513 1.412 . S
C485 H549 0.980 . S
C486 C487 1.288 . S
C486 C491 1.377 . S
C486 O513 1.393 . S
C487 C486 1.288 . S
C487 C488 1.369 1_565 S
C487 H553 0.932 . S
C488 C487 1.369 1_545 S
C488 C489 1.398 . S
C488 C492 1.527 . S
C489 C488 1.398 . S
C489 C490 1.380 1_545 S
C489 C503 1.497 . S
C490 C489 1.380 1_565 S
C490 C491 1.383 . S
C490 C493 1.603 . S
C491 C486 1.377 . S
C491 C490 1.383 . S
C491 H554 0.929 . S
C492 C488 1.527 . S
C492 H555 0.961 . S
C492 H556 0.959 . S
C492 H557 0.959 . S
C493 C490 1.603 . S
C493 H558 0.960 . S
C493 H559 0.962 1_565 S
C493 H560 0.961 . S
C494 C461 1.587 . S
C494 C495 1.360 . S
C494 C507 1.412 . S
C495 C494 1.360 . S
C495 C496 1.365 1_565 S
C495 H561 0.929 . S
C496 C471 1.553 . S
C496 C495 1.365 1_545 S
C496 C497 1.404 . S
C497 C496 1.404 . S
C497 C498 1.395 . S
C497 C508 1.451 . S
C498 C497 1.395 . S
C498 C499 1.322 . S
C498 H562 0.930 . S
C499 C498 1.322 . S
C499 C500 1.448 1_556 S
C499 H563 0.929 . S
C500 C499 1.448 1_554 S
C500 C501 1.457 . S
C500 C509 1.394 1_554 S
C501 C479 1.432 . S
C501 C500 1.457 . S
C501 C502 1.370 . S
C502 C501 1.370 . S
C502 C503 1.438 . S
C502 H564 0.930 . S
C503 C489 1.497 . S
C503 C502 1.438 . S
C503 C504 1.360 . S
C504 C503 1.360 . S
C504 C505 1.401 1_545 S
C504 C509 1.446 1_554 S
C505 C504 1.401 1_565 S
C505 C506 1.347 1_554 S
C505 H565 0.929 . S
C506 C505 1.347 1_556 S
C506 C507 1.455 . S
C506 H566 0.930 . S
C507 C494 1.412 . S
C507 C506 1.455 . S
C507 C508 1.331 1_565 S
C508 C497 1.451 . S
C508 C507 1.331 1_545 S
C508 C509 1.497 . S
C509 C500 1.394 1_556 S
C509 C504 1.446 1_556 S
C509 C508 1.497 . S
C510 C511 1.582 . S
C510 H567 0.962 . S
C510 H568 0.959 . S
C510 H569 0.958 . S
C511 C510 1.582 . S
C511 O514 1.458 . S
C511 H540 0.980 . S
O512 C457 1.426 . S
O512 C458 1.334 . S
O513 C485 1.412 . S
O513 C486 1.393 . S
O514 C476 1.435 . S
O514 C511 1.458 . S
O515 C467 1.468 . S
O515 C468 1.408 . S
H516 C457 0.980 . S
H517 C456 0.959 . S
H518 C456 0.959 . S
H519 C456 0.960 . S
H520 C459 0.929 . S
H521 C463 0.929 . S
H522 C464 0.959 . S
H523 C464 0.961 . S
H524 C464 0.961 . S
H525 C465 0.960 . S
H526 C465 0.960 . S
H527 C465 0.961 . S
H528 C467 0.980 . S
H529 C466 0.961 . S
H530 C466 0.960 . S
H531 C466 0.959 . S
H532 C469 0.930 . S
H533 C473 0.931 . S
H534 C474 0.959 . S
H535 C474 0.961 . S
H536 C474 0.959 . S
H537 C475 0.960 . S
H538 C475 0.960 . S
H539 C475 0.960 . S
H540 C511 0.980 . S
H541 C477 0.930 . S
H542 C481 0.930 . S
H543 C482 0.961 . S
H544 C482 0.960 . S
H545 C482 0.958 . S
H546 C483 0.961 . S
H547 C483 0.960 . S
H548 C483 0.960 . S
H549 C485 0.980 . S
H550 C484 0.961 . S
H551 C484 0.961 . S
H552 C484 0.959 . S
H553 C487 0.932 . S
H554 C491 0.929 . S
H555 C492 0.961 . S
H556 C492 0.959 . S
H557 C492 0.959 . S
H558 C493 0.960 . S
H559 C493 0.962 1_545 S
H560 C493 0.961 . S
H561 C495 0.929 . S
H562 C498 0.930 . S
H563 C499 0.929 . S
H564 C502 0.930 . S
H565 C505 0.929 . S
H566 C506 0.930 . S
H567 C510 0.962 . S
H568 C510 0.959 . S
H569 C510 0.958 . S
C570 C571 1.560 . S
C570 H631 0.959 . S
C570 H632 0.959 . S
C570 H633 0.960 . S
C571 C570 1.560 . S
C571 O626 1.426 . S
C571 H630 0.980 . S
C572 C573 1.407 . S
C572 C577 1.418 . S
C572 O626 1.334 . S
C573 C572 1.407 . S
C573 C574 1.360 . S
C573 H634 0.929 . S
C574 C573 1.360 . S
C574 C575 1.401 . S
C574 C578 1.527 . S
C575 C574 1.401 . S
C575 C576 1.405 . S
C575 C608 1.587 . S
C576 C575 1.405 . S
C576 C577 1.332 . S
C576 C579 1.496 . S
C577 C572 1.418 . S
C577 C576 1.332 . S
C577 H635 0.929 . S
C578 C574 1.527 . S
C578 H636 0.959 . S
C578 H637 0.961 . S
C578 H638 0.961 . S
C579 C576 1.496 . S
C579 H639 0.960 . S
C579 H640 0.960 . S
C579 H641 0.961 . S
C580 C581 1.517 . S
C580 H643 0.961 . S
C580 H644 0.960 . S
C580 H645 0.959 . S
C581 C580 1.517 . S
C581 O629 1.468 . S
C581 H642 0.980 . S
C582 C583 1.349 . S
C582 C587 1.367 . S
C582 O629 1.408 . S
C583 C582 1.349 . S
C583 C584 1.407 . S
C583 H646 0.930 . S
C584 C583 1.407 . S
C584 C585 1.449 . S
C584 C588 1.535 . S
C585 C584 1.449 . S
C585 C586 1.384 . S
C585 C610 1.553 . S
C586 C585 1.384 . S
C586 C587 1.364 . S
C586 C589 1.450 . S
C587 C582 1.367 . S
C587 C586 1.364 . S
C587 H647 0.931 . S
C588 C584 1.535 . S
C588 H648 0.959 . S
C588 H649 0.961 . S
C588 H650 0.959 . S
C589 C586 1.450 . S
C589 H651 0.960 . S
C589 H652 0.960 . S
C589 H653 0.960 . S
C590 C591 1.309 . S
C590 C595 1.304 . S
C590 O628 1.435 . S
C591 C590 1.309 . S
C591 C592 1.476 . S
C591 H655 0.930 . S
C592 C591 1.476 . S
C592 C593 1.400 . S
C592 C596 1.567 . S
C593 C592 1.400 . S
C593 C594 1.373 . S
C593 C615 1.432 . S
C594 C593 1.373 . S
C594 C595 1.339 . S
C594 C597 1.530 . S
C595 C590 1.304 . S
C595 C594 1.339 . S
C595 H656 0.930 . S
C596 C592 1.567 . S
C596 H657 0.961 . S
C596 H658 0.960 . S
C596 H659 0.958 . S
C597 C594 1.530 . S
C597 H660 0.961 . S
C597 H661 0.960 . S
C597 H662 0.960 . S
C598 C599 1.530 . S
C598 H664 0.961 . S
C598 H665 0.961 . S
C598 H666 0.959 . S
C599 C598 1.530 . S
C599 O627 1.412 . S
C599 H663 0.980 . S
C600 C601 1.288 . S
C600 C605 1.377 . S
C600 O627 1.393 . S
C601 C600 1.288 . S
C601 C602 1.369 . S
C601 H667 0.932 . S
C602 C601 1.369 . S
C602 C603 1.398 . S
C602 C606 1.527 . S
C603 C602 1.398 . S
C603 C604 1.380 . S
C603 C617 1.497 . S
C604 C603 1.380 . S
C604 C605 1.383 . S
C604 C607 1.603 . S
C605 C600 1.377 . S
C605 C604 1.383 . S
C605 H668 0.929 . S
C606 C602 1.527 . S
C606 H669 0.961 . S
C606 H670 0.959 . S
C606 H671 0.959 . S
C607 C604 1.603 . S
C607 H672 0.960 . S
C607 H673 0.962 . S
C607 H674 0.961 . S
C608 C575 1.587 . S
C608 C609 1.360 . S
C608 C621 1.412 . S
C609 C608 1.360 . S
C609 C610 1.365 . S
C609 H675 0.929 . S
C610 C585 1.553 . S
C610 C609 1.365 . S
C610 C611 1.404 . S
C611 C610 1.404 . S
C611 C612 1.395 . S
C611 C622 1.451 . S
C612 C611 1.395 . S
C612 C613 1.322 . S
C612 H676 0.930 . S
C613 C612 1.322 . S
C613 C614 1.459 . S
C613 H677 0.929 . S
C614 C613 1.459 . S
C614 C615 1.445 . S
C614 C623 1.395 . S
C615 C593 1.432 . S
C615 C614 1.445 . S
C615 C616 1.370 . S
C616 C615 1.370 . S
C616 C617 1.438 . S
C616 H678 0.930 . S
C617 C603 1.497 . S
C617 C616 1.438 . S
C617 C618 1.360 . S
C618 C617 1.360 . S
C618 C619 1.401 . S
C618 C623 1.446 . S
C619 C618 1.401 . S
C619 C620 1.347 . S
C619 H679 0.929 . S
C620 C619 1.347 . S
C620 C621 1.455 . S
C620 H680 0.930 . S
C621 C608 1.412 . S
C621 C620 1.455 . S
C621 C622 1.331 . S
C622 C611 1.451 . S
C622 C621 1.331 . S
C622 C623 1.497 . S
C623 C614 1.395 . S
C623 C618 1.446 . S
C623 C622 1.497 . S
C624 C625 1.582 . S
C624 H681 0.962 . S
C624 H682 0.959 . S
C624 H683 0.958 . S
C625 C624 1.582 . S
C625 O628 1.458 . S
C625 H654 0.980 . S
O626 C571 1.426 . S
O626 C572 1.334 . S
O627 C599 1.412 . S
O627 C600 1.393 . S
O628 C590 1.435 . S
O628 C625 1.458 . S
O629 C581 1.468 . S
O629 C582 1.408 . S
H630 C571 0.980 . S
H631 C570 0.959 . S
H632 C570 0.959 . S
H633 C570 0.960 . S
H634 C573 0.929 . S
H635 C577 0.929 . S
H636 C578 0.959 . S
H637 C578 0.961 . S
H638 C578 0.961 . S
H639 C579 0.960 . S
H640 C579 0.960 . S
H641 C579 0.961 . S
H642 C581 0.980 . S
H643 C580 0.961 . S
H644 C580 0.960 . S
H645 C580 0.959 . S
H646 C583 0.930 . S
H647 C587 0.931 . S
H648 C588 0.959 . S
H649 C588 0.961 . S
H650 C588 0.959 . S
H651 C589 0.960 . S
H652 C589 0.960 . S
H653 C589 0.960 . S
H654 C625 0.980 . S
H655 C591 0.930 . S
H656 C595 0.930 . S
H657 C596 0.961 . S
H658 C596 0.960 . S
H659 C596 0.958 . S
H660 C597 0.961 . S
H661 C597 0.960 . S
H662 C597 0.960 . S
H663 C599 0.980 . S
H664 C598 0.961 . S
H665 C598 0.961 . S
H666 C598 0.959 . S
H667 C601 0.932 . S
H668 C605 0.929 . S
H669 C606 0.961 . S
H670 C606 0.959 . S
H671 C606 0.959 . S
H672 C607 0.960 . S
H673 C607 0.962 . S
H674 C607 0.961 . S
H675 C609 0.929 . S
H676 C612 0.930 . S
H677 C613 0.929 . S
H678 C616 0.930 . S
H679 C619 0.929 . S
H680 C620 0.930 . S
H681 C624 0.962 . S
H682 C624 0.959 . S
H683 C624 0.958 . S
Li684 N701 1.990 . S
Li684 O744 1.956 . S
Li684 O745 1.970 . S
Li684 O746 1.961 . S
Li685 N709 1.990 . S
Li685 O744 1.970 . S
Li685 O745 1.956 . S
Li685 O747 1.961 . S
Li686 N731 1.990 . S
Li686 O744 1.961 . S
Li686 O746 1.956 . S
Li686 O747 1.970 . S
Li687 N737 1.990 . S
Li687 O745 1.961 . S
Li687 O746 1.970 . S
Li687 O747 1.956 . S
C688 C690 1.348 . S
C688 C691 1.356 . S
C688 O744 1.325 . S
N689 C692 1.314 . S
N689 C693 1.279 . S
C690 C688 1.348 . S
C690 C692 1.353 . S
C690 H748 0.929 . S
C691 C688 1.356 . S
C691 C693 1.358 . S
C691 H749 0.930 . S
C692 N689 1.314 . S
C692 C690 1.353 . S
C692 H750 0.930 . S
C693 N689 1.279 . S
C693 C691 1.358 . S
C693 H751 0.930 . S
C694 C697 1.348 . S
C694 C698 1.356 . S
C694 O745 1.325 . S
C695 N696 1.279 . S
C695 C698 1.358 . S
C695 H752 0.930 . S
N696 C695 1.279 . S
N696 C699 1.314 . S
C697 C694 1.348 . S
C697 C699 1.353 . S
C697 H753 0.929 . S
C698 C694 1.356 . S
C698 C695 1.358 . S
C698 H754 0.930 . S
C699 N696 1.314 . S
C699 C697 1.353 . S
C699 H755 0.930 . S
C700 N701 1.314 . S
C700 C705 1.353 . S
C700 H706 0.930 . S
N701 Li684 1.990 . S
N701 C700 1.314 . S
N701 C703 1.279 . S
C702 C703 1.358 . S
C702 C704 1.356 . S
C702 H756 0.930 . S
C703 N701 1.279 . S
C703 C702 1.358 . S
C703 H707 0.930 . S
C704 C702 1.356 . S
C704 C705 1.348 . S
C705 C700 1.353 . S
C705 C704 1.348 . S
C705 H757 0.929 . S
H706 C700 0.930 . S
H707 C703 0.930 . S
C708 N709 1.314 . S
C708 C710 1.353 . S
C708 H714 0.930 . S
N709 Li685 1.990 . S
N709 C708 1.314 . S
N709 C712 1.279 . S
C710 C708 1.353 . S
C710 C713 1.348 . S
C710 H758 0.929 . S
C711 C712 1.358 . S
C711 C713 1.356 . S
C711 H759 0.930 . S
C712 N709 1.279 . S
C712 C711 1.358 . S
C712 H715 0.930 . S
C713 C710 1.348 . S
C713 C711 1.356 . S
H714 C708 0.930 . S
H715 C712 0.930 . S
C716 C718 1.348 . S
C716 C719 1.356 . S
C716 O746 1.325 . S
N717 C720 1.314 . S
N717 C721 1.279 . S
C718 C716 1.348 . S
C718 C720 1.353 . S
C718 H760 0.929 . S
C719 C716 1.356 . S
C719 C721 1.358 . S
C719 H761 0.930 . S
C720 N717 1.314 . S
C720 C718 1.353 . S
C720 H762 0.930 . S
C721 N717 1.279 . S
C721 C719 1.358 . S
C721 H763 0.930 . S
C722 C723 1.348 . S
C722 C724 1.356 . S
C722 O747 1.325 . S
C723 C722 1.348 . S
C723 C725 1.353 . S
C723 H764 0.929 . S
C724 C722 1.356 . S
C724 C726 1.358 . S
C724 H765 0.930 . S
C725 C723 1.353 . S
C725 N727 1.314 . S
C725 H766 0.930 . S
C726 C724 1.358 . S
C726 N727 1.279 . S
C726 H767 0.930 . S
N727 C725 1.314 . S
N727 C726 1.279 . S
C728 C730 1.353 . S
C728 N731 1.314 . S
C728 H734 0.930 . S
C729 N731 1.279 . S
C729 C732 1.358 . S
C729 H735 0.930 . S
C730 C728 1.353 . S
C730 C733 1.348 . S
C730 H768 0.929 . S
N731 Li686 1.990 . S
N731 C728 1.314 . S
N731 C729 1.279 . S
C732 C729 1.358 . S
C732 C733 1.356 . S
C732 H769 0.930 . S
C733 C730 1.348 . S
C733 C732 1.356 . S
H734 C728 0.930 . S
H735 C729 0.930 . S
C736 N737 1.314 . S
C736 C738 1.353 . S
C736 H742 0.930 . S
N737 Li687 1.990 . S
N737 C736 1.314 . S
N737 C740 1.279 . S
C738 C736 1.353 . S
C738 C741 1.348 . S
C738 H770 0.929 . S
C739 C740 1.358 . S
C739 C741 1.356 . S
C739 H771 0.930 . S
C740 N737 1.279 . S
C740 C739 1.358 . S
C740 H743 0.930 . S
C741 C738 1.348 . S
C741 C739 1.356 . S
H742 C736 0.930 . S
H743 C740 0.930 . S
O744 Li684 1.956 . S
O744 Li685 1.970 . S
O744 Li686 1.961 . S
O744 C688 1.325 . S
O745 Li684 1.970 . S
O745 Li685 1.956 . S
O745 Li687 1.961 . S
O745 C694 1.325 . S
O746 Li684 1.961 . S
O746 Li686 1.956 . S
O746 Li687 1.970 . S
O746 C716 1.325 . S
O747 Li685 1.961 . S
O747 Li686 1.970 . S
O747 Li687 1.956 . S
O747 C722 1.325 . S
H748 C690 0.929 . S
H749 C691 0.930 . S
H750 C692 0.930 . S
H751 C693 0.930 . S
H752 C695 0.930 . S
H753 C697 0.929 . S
H754 C698 0.930 . S
H755 C699 0.930 . S
H756 C702 0.930 . S
H757 C705 0.929 . S
H758 C710 0.929 . S
H759 C711 0.930 . S
H760 C718 0.929 . S
H761 C719 0.930 . S
H762 C720 0.930 . S
H763 C721 0.930 . S
H764 C723 0.929 . S
H765 C724 0.930 . S
H766 C725 0.930 . S
H767 C726 0.930 . S
H768 C730 0.929 . S
H769 C732 0.930 . S
H770 C738 0.929 . S
H771 C739 0.930 . S
Li772 N789 1.990 . S
Li772 O832 1.956 . S
Li772 O833 1.970 . S
Li772 O834 1.961 . S
Li773 N797 1.990 . S
Li773 O832 1.970 . S
Li773 O833 1.956 . S
Li773 O835 1.961 . S
Li774 N819 1.990 . S
Li774 O832 1.961 . S
Li774 O834 1.956 . S
Li774 O835 1.970 . S
Li775 N825 1.990 . S
Li775 O833 1.961 . S
Li775 O834 1.970 . S
Li775 O835 1.956 . S
C776 C778 1.348 . S
C776 C779 1.356 . S
C776 O832 1.325 . S
N777 C780 1.314 . S
N777 C781 1.279 . S
C778 C776 1.348 . S
C778 C780 1.353 . S
C778 H836 0.929 . S
C779 C776 1.356 . S
C779 C781 1.358 . S
C779 H837 0.930 . S
C780 N777 1.314 . S
C780 C778 1.353 . S
C780 H838 0.930 . S
C781 N777 1.279 . S
C781 C779 1.358 . S
C781 H839 0.930 . S
C782 C785 1.348 . S
C782 C786 1.356 . S
C782 O833 1.325 . S
C783 N784 1.279 . S
C783 C786 1.358 . S
C783 H840 0.930 . S
N784 C783 1.279 . S
N784 C787 1.314 . S
C785 C782 1.348 . S
C785 C787 1.353 . S
C785 H841 0.929 . S
C786 C782 1.356 . S
C786 C783 1.358 . S
C786 H842 0.930 . S
C787 N784 1.314 . S
C787 C785 1.353 . S
C787 H843 0.930 . S
C788 N789 1.314 . S
C788 C793 1.353 . S
C788 H794 0.930 . S
N789 Li772 1.990 . S
N789 C788 1.314 . S
N789 C791 1.279 . S
C790 C791 1.358 . S
C790 C792 1.356 . S
C790 H844 0.930 . S
C791 N789 1.279 . S
C791 C790 1.358 . S
C791 H795 0.930 . S
C792 C790 1.356 . S
C792 C793 1.348 . S
C793 C788 1.353 . S
C793 C792 1.348 . S
C793 H845 0.929 . S
H794 C788 0.930 . S
H795 C791 0.930 . S
C796 N797 1.314 . S
C796 C798 1.353 . S
C796 H802 0.930 . S
N797 Li773 1.990 . S
N797 C796 1.314 . S
N797 C800 1.279 . S
C798 C796 1.353 . S
C798 C801 1.348 . S
C798 H846 0.929 . S
C799 C800 1.358 . S
C799 C801 1.356 . S
C799 H847 0.930 . S
C800 N797 1.279 . S
C800 C799 1.358 . S
C800 H803 0.930 . S
C801 C798 1.348 . S
C801 C799 1.356 . S
H802 C796 0.930 . S
H803 C800 0.930 . S
C804 C806 1.348 . S
C804 C807 1.356 . S
C804 O834 1.325 . S
N805 C808 1.314 . S
N805 C809 1.279 . S
C806 C804 1.348 . S
C806 C808 1.353 . S
C806 H848 0.929 . S
C807 C804 1.356 . S
C807 C809 1.358 . S
C807 H849 0.930 . S
C808 N805 1.314 . S
C808 C806 1.353 . S
C808 H850 0.930 . S
C809 N805 1.279 . S
C809 C807 1.358 . S
C809 H851 0.930 . S
C810 C811 1.348 . S
C810 C812 1.356 . S
C810 O835 1.325 . S
C811 C810 1.348 . S
C811 C813 1.353 . S
C811 H852 0.929 . S
C812 C810 1.356 . S
C812 C814 1.358 . S
C812 H853 0.930 . S
C813 C811 1.353 . S
C813 N815 1.314 . S
C813 H854 0.930 . S
C814 C812 1.358 . S
C814 N815 1.279 . S
C814 H855 0.930 . S
N815 C813 1.314 . S
N815 C814 1.279 . S
C816 C818 1.353 . S
C816 N819 1.314 . S
C816 H822 0.930 . S
C817 N819 1.279 . S
C817 C820 1.358 . S
C817 H823 0.930 . S
C818 C816 1.353 . S
C818 C821 1.348 . S
C818 H856 0.929 . S
N819 Li774 1.990 . S
N819 C816 1.314 . S
N819 C817 1.279 . S
C820 C817 1.358 . S
C820 C821 1.356 . S
C820 H857 0.930 . S
C821 C818 1.348 . S
C821 C820 1.356 . S
H822 C816 0.930 . S
H823 C817 0.930 . S
C824 N825 1.314 . S
C824 C826 1.353 . S
C824 H830 0.930 . S
N825 Li775 1.990 . S
N825 C824 1.314 . S
N825 C828 1.279 . S
C826 C824 1.353 . S
C826 C829 1.348 . S
C826 H858 0.929 . S
C827 C828 1.358 . S
C827 C829 1.356 . S
C827 H859 0.930 . S
C828 N825 1.279 . S
C828 C827 1.358 . S
C828 H831 0.930 . S
C829 C826 1.348 . S
C829 C827 1.356 . S
H830 C824 0.930 . S
H831 C828 0.930 . S
O832 Li772 1.956 . S
O832 Li773 1.970 . S
O832 Li774 1.961 . S
O832 C776 1.325 . S
O833 Li772 1.970 . S
O833 Li773 1.956 . S
O833 Li775 1.961 . S
O833 C782 1.325 . S
O834 Li772 1.961 . S
O834 Li774 1.956 . S
O834 Li775 1.970 . S
O834 C804 1.325 . S
O835 Li773 1.961 . S
O835 Li774 1.970 . S
O835 Li775 1.956 . S
O835 C810 1.325 . S
H836 C778 0.929 . S
H837 C779 0.930 . S
H838 C780 0.930 . S
H839 C781 0.930 . S
H840 C783 0.930 . S
H841 C785 0.929 . S
H842 C786 0.930 . S
H843 C787 0.930 . S
H844 C790 0.930 . S
H845 C793 0.929 . S
H846 C798 0.929 . S
H847 C799 0.930 . S
H848 C806 0.929 . S
H849 C807 0.930 . S
H850 C808 0.930 . S
H851 C809 0.930 . S
H852 C811 0.929 . S
H853 C812 0.930 . S
H854 C813 0.930 . S
H855 C814 0.930 . S
H856 C818 0.929 . S
H857 C820 0.930 . S
H858 C826 0.929 . S
H859 C827 0.930 . S
Li860 N877 1.990 . S
Li860 O920 1.956 . S
Li860 O921 1.970 . S
Li860 O922 1.961 . S
Li861 N885 1.990 . S
Li861 O920 1.970 . S
Li861 O921 1.956 . S
Li861 O923 1.961 . S
Li862 N907 1.990 . S
Li862 O920 1.961 . S
Li862 O922 1.956 . S
Li862 O923 1.970 . S
Li863 N913 1.990 . S
Li863 O921 1.961 . S
Li863 O922 1.970 . S
Li863 O923 1.956 . S
C864 C866 1.348 . S
C864 C867 1.356 . S
C864 O920 1.325 . S
N865 C868 1.314 . S
N865 C869 1.279 . S
C866 C864 1.348 . S
C866 C868 1.353 . S
C866 H924 0.929 . S
C867 C864 1.356 . S
C867 C869 1.358 . S
C867 H925 0.930 . S
C868 N865 1.314 . S
C868 C866 1.353 . S
C868 H926 0.930 . S
C869 N865 1.279 . S
C869 C867 1.358 . S
C869 H927 0.930 . S
C870 C873 1.348 . S
C870 C874 1.356 . S
C870 O921 1.325 . S
C871 N872 1.279 . S
C871 C874 1.358 . S
C871 H928 0.930 . S
N872 C871 1.279 . S
N872 C875 1.314 . S
C873 C870 1.348 . S
C873 C875 1.353 . S
C873 H929 0.929 . S
C874 C870 1.356 . S
C874 C871 1.358 . S
C874 H930 0.930 . S
C875 N872 1.314 . S
C875 C873 1.353 . S
C875 H931 0.930 . S
C876 N877 1.314 . S
C876 C881 1.353 . S
C876 H882 0.930 . S
N877 Li860 1.990 . S
N877 C876 1.314 . S
N877 C879 1.279 . S
C878 C879 1.358 . S
C878 C880 1.356 . S
C878 H932 0.930 . S
C879 N877 1.279 . S
C879 C878 1.358 . S
C879 H883 0.930 . S
C880 C878 1.356 . S
C880 C881 1.348 . S
C881 C876 1.353 . S
C881 C880 1.348 . S
C881 H933 0.929 . S
H882 C876 0.930 . S
H883 C879 0.930 . S
C884 N885 1.314 . S
C884 C886 1.353 . S
C884 H890 0.930 . S
N885 Li861 1.990 . S
N885 C884 1.314 . S
N885 C888 1.279 . S
C886 C884 1.353 . S
C886 C889 1.348 . S
C886 H934 0.929 . S
C887 C888 1.358 . S
C887 C889 1.356 . S
C887 H935 0.930 . S
C888 N885 1.279 . S
C888 C887 1.358 . S
C888 H891 0.930 . S
C889 C886 1.348 . S
C889 C887 1.356 . S
H890 C884 0.930 . S
H891 C888 0.930 . S
C892 C894 1.348 . S
C892 C895 1.356 . S
C892 O922 1.325 . S
N893 C896 1.314 . S
N893 C897 1.279 . S
C894 C892 1.348 . S
C894 C896 1.353 . S
C894 H936 0.929 . S
C895 C892 1.356 . S
C895 C897 1.358 . S
C895 H937 0.930 . S
C896 N893 1.314 . S
C896 C894 1.353 . S
C896 H938 0.930 . S
C897 N893 1.279 . S
C897 C895 1.358 . S
C897 H939 0.930 . S
C898 C899 1.348 . S
C898 C900 1.356 . S
C898 O923 1.325 . S
C899 C898 1.348 . S
C899 C901 1.353 . S
C899 H940 0.929 . S
C900 C898 1.356 . S
C900 C902 1.358 . S
C900 H941 0.930 . S
C901 C899 1.353 . S
C901 N903 1.314 . S
C901 H942 0.930 . S
C902 C900 1.358 . S
C902 N903 1.279 . S
C902 H943 0.930 . S
N903 C901 1.314 . S
N903 C902 1.279 . S
C904 C906 1.353 . S
C904 N907 1.314 . S
C904 H910 0.930 . S
C905 N907 1.279 . S
C905 C908 1.358 . S
C905 H911 0.930 . S
C906 C904 1.353 . S
C906 C909 1.348 . S
C906 H944 0.929 . S
N907 Li862 1.990 . S
N907 C904 1.314 . S
N907 C905 1.279 . S
C908 C905 1.358 . S
C908 C909 1.356 . S
C908 H945 0.930 . S
C909 C906 1.348 . S
C909 C908 1.356 . S
H910 C904 0.930 . S
H911 C905 0.930 . S
C912 N913 1.314 . S
C912 C914 1.353 . S
C912 H918 0.930 . S
N913 Li863 1.990 . S
N913 C912 1.314 . S
N913 C916 1.279 . S
C914 C912 1.353 . S
C914 C917 1.348 . S
C914 H946 0.929 . S
C915 C916 1.358 . S
C915 C917 1.356 . S
C915 H947 0.930 . S
C916 N913 1.279 . S
C916 C915 1.358 . S
C916 H919 0.930 . S
C917 C914 1.348 . S
C917 C915 1.356 . S
H918 C912 0.930 . S
H919 C916 0.930 . S
O920 Li860 1.956 . S
O920 Li861 1.970 . S
O920 Li862 1.961 . S
O920 C864 1.325 . S
O921 Li860 1.970 . S
O921 Li861 1.956 . S
O921 Li863 1.961 . S
O921 C870 1.325 . S
O922 Li860 1.961 . S
O922 Li862 1.956 . S
O922 Li863 1.970 . S
O922 C892 1.325 . S
O923 Li861 1.961 . S
O923 Li862 1.970 . S
O923 Li863 1.956 . S
O923 C898 1.325 . S
H924 C866 0.929 . S
H925 C867 0.930 . S
H926 C868 0.930 . S
H927 C869 0.930 . S
H928 C871 0.930 . S
H929 C873 0.929 . S
H930 C874 0.930 . S
H931 C875 0.930 . S
H932 C878 0.930 . S
H933 C881 0.929 . S
H934 C886 0.929 . S
H935 C887 0.930 . S
H936 C894 0.929 . S
H937 C895 0.930 . S
H938 C896 0.930 . S
H939 C897 0.930 . S
H940 C899 0.929 . S
H941 C900 0.930 . S
H942 C901 0.930 . S
H943 C902 0.930 . S
H944 C906 0.929 . S
H945 C908 0.930 . S
H946 C914 0.929 . S
H947 C915 0.930 . S
Li948 N965 1.990 . S
Li948 O1008 1.956 . S
Li948 O1009 1.970 . S
Li948 O1010 1.961 . S
Li949 N973 1.990 . S
Li949 O1008 1.970 . S
Li949 O1009 1.956 . S
Li949 O1011 1.961 . S
Li950 N995 1.990 . S
Li950 O1008 1.961 . S
Li950 O1010 1.956 . S
Li950 O1011 1.970 . S
Li951 N1001 1.990 . S
Li951 O1009 1.961 . S
Li951 O1010 1.970 . S
Li951 O1011 1.956 . S
C952 C954 1.348 . S
C952 C955 1.356 . S
C952 O1008 1.325 . S
N953 C956 1.314 . S
N953 C957 1.279 . S
C954 C952 1.348 . S
C954 C956 1.353 . S
C954 H1012 0.929 . S
C955 C952 1.356 . S
C955 C957 1.358 . S
C955 H1013 0.930 . S
C956 N953 1.314 . S
C956 C954 1.353 . S
C956 H1014 0.930 . S
C957 N953 1.279 . S
C957 C955 1.358 . S
C957 H1015 0.930 . S
C958 C961 1.348 . S
C958 C962 1.356 . S
C958 O1009 1.325 . S
C959 N960 1.279 . S
C959 C962 1.358 . S
C959 H1016 0.930 . S
N960 C959 1.279 . S
N960 C963 1.314 . S
C961 C958 1.348 . S
C961 C963 1.353 . S
C961 H1017 0.929 . S
C962 C958 1.356 . S
C962 C959 1.358 . S
C962 H1018 0.930 . S
C963 N960 1.314 . S
C963 C961 1.353 . S
C963 H1019 0.930 . S
C964 N965 1.314 . S
C964 C969 1.353 . S
C964 H970 0.930 . S
N965 Li948 1.990 . S
N965 C964 1.314 . S
N965 C967 1.279 . S
C966 C967 1.358 . S
C966 C968 1.356 . S
C966 H1020 0.930 . S
C967 N965 1.279 . S
C967 C966 1.358 . S
C967 H971 0.930 . S
C968 C966 1.356 . S
C968 C969 1.348 . S
C969 C964 1.353 . S
C969 C968 1.348 . S
C969 H1021 0.929 . S
H970 C964 0.930 . S
H971 C967 0.930 . S
C972 N973 1.314 . S
C972 C974 1.353 . S
C972 H978 0.930 . S
N973 Li949 1.990 . S
N973 C972 1.314 . S
N973 C976 1.279 . S
C974 C972 1.353 . S
C974 C977 1.348 . S
C974 H1022 0.929 . S
C975 C976 1.358 . S
C975 C977 1.356 . S
C975 H1023 0.930 . S
C976 N973 1.279 . S
C976 C975 1.358 . S
C976 H979 0.930 . S
C977 C974 1.348 . S
C977 C975 1.356 . S
H978 C972 0.930 . S
H979 C976 0.930 . S
C980 C982 1.348 . S
C980 C983 1.356 . S
C980 O1010 1.325 . S
N981 C984 1.314 . S
N981 C985 1.279 . S
C982 C980 1.348 . S
C982 C984 1.353 . S
C982 H1024 0.929 . S
C983 C980 1.356 . S
C983 C985 1.358 . S
C983 H1025 0.930 . S
C984 N981 1.314 . S
C984 C982 1.353 . S
C984 H1026 0.930 . S
C985 N981 1.279 . S
C985 C983 1.358 . S
C985 H1027 0.930 . S
C986 C987 1.348 . S
C986 C988 1.356 . S
C986 O1011 1.325 . S
C987 C986 1.348 . S
C987 C989 1.353 . S
C987 H1028 0.929 . S
C988 C986 1.356 . S
C988 C990 1.358 . S
C988 H1029 0.930 . S
C989 C987 1.353 . S
C989 N991 1.314 . S
C989 H1030 0.930 . S
C990 C988 1.358 . S
C990 N991 1.279 . S
C990 H1031 0.930 . S
N991 C989 1.314 . S
N991 C990 1.279 . S
C992 C994 1.353 . S
C992 N995 1.314 . S
C992 H998 0.930 . S
C993 N995 1.279 . S
C993 C996 1.358 . S
C993 H999 0.930 . S
C994 C992 1.353 . S
C994 C997 1.348 . S
C994 H1032 0.929 . S
N995 Li950 1.990 . S
N995 C992 1.314 . S
N995 C993 1.279 . S
C996 C993 1.358 . S
C996 C997 1.356 . S
C996 H1033 0.930 . S
C997 C994 1.348 . S
C997 C996 1.356 . S
H998 C992 0.930 . S
H999 C993 0.930 . S
C1000 N1001 1.314 . S
C1000 C1002 1.353 . S
C1000 H1006 0.930 . S
N1001 Li951 1.990 . S
N1001 C1000 1.314 . S
N1001 C1004 1.279 . S
C1002 C1000 1.353 . S
C1002 C1005 1.348 . S
C1002 H1034 0.929 . S
C1003 C1004 1.358 . S
C1003 C1005 1.356 . S
C1003 H1035 0.930 . S
C1004 N1001 1.279 . S
C1004 C1003 1.358 . S
C1004 H1007 0.930 . S
C1005 C1002 1.348 . S
C1005 C1003 1.356 . S
H1006 C1000 0.930 . S
H1007 C1004 0.930 . S
O1008 Li948 1.956 . S
O1008 Li949 1.970 . S
O1008 Li950 1.961 . S
O1008 C952 1.325 . S
O1009 Li948 1.970 . S
O1009 Li949 1.956 . S
O1009 Li951 1.961 . S
O1009 C958 1.325 . S
O1010 Li948 1.961 . S
O1010 Li950 1.956 . S
O1010 Li951 1.970 . S
O1010 C980 1.325 . S
O1011 Li949 1.961 . S
O1011 Li950 1.970 . S
O1011 Li951 1.956 . S
O1011 C986 1.325 . S
H1012 C954 0.929 . S
H1013 C955 0.930 . S
H1014 C956 0.930 . S
H1015 C957 0.930 . S
H1016 C959 0.930 . S
H1017 C961 0.929 . S
H1018 C962 0.930 . S
H1019 C963 0.930 . S
H1020 C966 0.930 . S
H1021 C969 0.929 . S
H1022 C974 0.929 . S
H1023 C975 0.930 . S
H1024 C982 0.929 . S
H1025 C983 0.930 . S
H1026 C984 0.930 . S
H1027 C985 0.930 . S
H1028 C987 0.929 . S
H1029 C988 0.930 . S
H1030 C989 0.930 . S
H1031 C990 0.930 . S
H1032 C994 0.929 . S
H1033 C996 0.930 . S
H1034 C1002 0.929 . S
H1035 C1003 0.930 . S
Li1036 N1053 1.990 . S
Li1036 O1096 1.956 . S
Li1036 O1097 1.970 . S
Li1036 O1098 1.961 . S
Li1037 N1061 1.990 . S
Li1037 O1096 1.970 . S
Li1037 O1097 1.956 . S
Li1037 O1099 1.961 . S
Li1038 N1083 1.990 . S
Li1038 O1096 1.961 . S
Li1038 O1098 1.956 . S
Li1038 O1099 1.970 . S
Li1039 N1089 1.990 . S
Li1039 O1097 1.961 . S
Li1039 O1098 1.970 . S
Li1039 O1099 1.956 . S
C1040 C1042 1.348 . S
C1040 C1043 1.356 . S
C1040 O1096 1.325 . S
N1041 C1044 1.314 . S
N1041 C1045 1.279 . S
C1042 C1040 1.348 . S
C1042 C1044 1.353 . S
C1042 H1100 0.929 . S
C1043 C1040 1.356 . S
C1043 C1045 1.358 . S
C1043 H1101 0.930 . S
C1044 N1041 1.314 . S
C1044 C1042 1.353 . S
C1044 H1102 0.930 . S
C1045 N1041 1.279 . S
C1045 C1043 1.358 . S
C1045 H1103 0.930 . S
C1046 C1049 1.348 . S
C1046 C1050 1.356 . S
C1046 O1097 1.325 . S
C1047 N1048 1.279 . S
C1047 C1050 1.358 . S
C1047 H1104 0.930 . S
N1048 C1047 1.279 . S
N1048 C1051 1.314 . S
C1049 C1046 1.348 . S
C1049 C1051 1.353 . S
C1049 H1105 0.929 . S
C1050 C1046 1.356 . S
C1050 C1047 1.358 . S
C1050 H1106 0.930 . S
C1051 N1048 1.314 . S
C1051 C1049 1.353 . S
C1051 H1107 0.930 . S
C1052 N1053 1.314 . S
C1052 C1057 1.353 . S
C1052 H1058 0.930 . S
N1053 Li1036 1.990 . S
N1053 C1052 1.314 . S
N1053 C1055 1.279 . S
C1054 C1055 1.358 . S
C1054 C1056 1.356 . S
C1054 H1108 0.930 . S
C1055 N1053 1.279 . S
C1055 C1054 1.358 . S
C1055 H1059 0.930 . S
C1056 C1054 1.356 . S
C1056 C1057 1.348 . S
C1057 C1052 1.353 . S
C1057 C1056 1.348 . S
C1057 H1109 0.929 . S
H1058 C1052 0.930 . S
H1059 C1055 0.930 . S
C1060 N1061 1.314 . S
C1060 C1062 1.353 . S
C1060 H1066 0.930 . S
N1061 Li1037 1.990 . S
N1061 C1060 1.314 . S
N1061 C1064 1.279 . S
C1062 C1060 1.353 . S
C1062 C1065 1.348 . S
C1062 H1110 0.929 . S
C1063 C1064 1.358 . S
C1063 C1065 1.356 . S
C1063 H1111 0.930 . S
C1064 N1061 1.279 . S
C1064 C1063 1.358 . S
C1064 H1067 0.930 . S
C1065 C1062 1.348 . S
C1065 C1063 1.356 . S
H1066 C1060 0.930 . S
H1067 C1064 0.930 . S
C1068 C1070 1.348 . S
C1068 C1071 1.356 . S
C1068 O1098 1.325 . S
N1069 C1072 1.314 . S
N1069 C1073 1.279 . S
C1070 C1068 1.348 . S
C1070 C1072 1.353 . S
C1070 H1112 0.929 . S
C1071 C1068 1.356 . S
C1071 C1073 1.358 . S
C1071 H1113 0.930 . S
C1072 N1069 1.314 . S
C1072 C1070 1.353 . S
C1072 H1114 0.930 . S
C1073 N1069 1.279 . S
C1073 C1071 1.358 . S
C1073 H1115 0.930 . S
C1074 C1075 1.348 . S
C1074 C1076 1.356 . S
C1074 O1099 1.325 . S
C1075 C1074 1.348 . S
C1075 C1077 1.353 . S
C1075 H1116 0.929 . S
C1076 C1074 1.356 . S
C1076 C1078 1.358 . S
C1076 H1117 0.930 . S
C1077 C1075 1.353 . S
C1077 N1079 1.314 . S
C1077 H1118 0.930 . S
C1078 C1076 1.358 . S
C1078 N1079 1.279 . S
C1078 H1119 0.930 . S
N1079 C1077 1.314 . S
N1079 C1078 1.279 . S
C1080 C1082 1.353 . S
C1080 N1083 1.314 . S
C1080 H1086 0.930 . S
C1081 N1083 1.279 . S
C1081 C1084 1.358 . S
C1081 H1087 0.930 . S
C1082 C1080 1.353 . S
C1082 C1085 1.348 . S
C1082 H1120 0.929 . S
N1083 Li1038 1.990 . S
N1083 C1080 1.314 . S
N1083 C1081 1.279 . S
C1084 C1081 1.358 . S
C1084 C1085 1.356 . S
C1084 H1121 0.930 . S
C1085 C1082 1.348 . S
C1085 C1084 1.356 . S
H1086 C1080 0.930 . S
H1087 C1081 0.930 . S
C1088 N1089 1.314 . S
C1088 C1090 1.353 . S
C1088 H1094 0.930 . S
N1089 Li1039 1.990 . S
N1089 C1088 1.314 . S
N1089 C1092 1.279 . S
C1090 C1088 1.353 . S
C1090 C1093 1.348 . S
C1090 H1122 0.929 . S
C1091 C1092 1.358 . S
C1091 C1093 1.356 . S
C1091 H1123 0.930 . S
C1092 N1089 1.279 . S
C1092 C1091 1.358 . S
C1092 H1095 0.930 . S
C1093 C1090 1.348 . S
C1093 C1091 1.356 . S
H1094 C1088 0.930 . S
H1095 C1092 0.930 . S
O1096 Li1036 1.956 . S
O1096 Li1037 1.970 . S
O1096 Li1038 1.961 . S
O1096 C1040 1.325 . S
O1097 Li1036 1.970 . S
O1097 Li1037 1.956 . S
O1097 Li1039 1.961 . S
O1097 C1046 1.325 . S
O1098 Li1036 1.961 . S
O1098 Li1038 1.956 . S
O1098 Li1039 1.970 . S
O1098 C1068 1.325 . S
O1099 Li1037 1.961 . S
O1099 Li1038 1.970 . S
O1099 Li1039 1.956 . S
O1099 C1074 1.325 . S
H1100 C1042 0.929 . S
H1101 C1043 0.930 . S
H1102 C1044 0.930 . S
H1103 C1045 0.930 . S
H1104 C1047 0.930 . S
H1105 C1049 0.929 . S
H1106 C1050 0.930 . S
H1107 C1051 0.930 . S
H1108 C1054 0.930 . S
H1109 C1057 0.929 . S
H1110 C1062 0.929 . S
H1111 C1063 0.930 . S
H1112 C1070 0.929 . S
H1113 C1071 0.930 . S
H1114 C1072 0.930 . S
H1115 C1073 0.930 . S
H1116 C1075 0.929 . S
H1117 C1076 0.930 . S
H1118 C1077 0.930 . S
H1119 C1078 0.930 . S
H1120 C1082 0.929 . S
H1121 C1084 0.930 . S
H1122 C1090 0.929 . S
H1123 C1091 0.930 . S
Li1124 N1141 1.990 . S
Li1124 O1184 1.956 . S
Li1124 O1185 1.970 . S
Li1124 O1186 1.961 . S
Li1125 N1149 1.990 . S
Li1125 O1184 1.970 . S
Li1125 O1185 1.956 . S
Li1125 O1187 1.961 . S
Li1126 N1171 1.990 . S
Li1126 O1184 1.961 . S
Li1126 O1186 1.956 . S
Li1126 O1187 1.970 . S
Li1127 N1177 1.990 . S
Li1127 O1185 1.961 . S
Li1127 O1186 1.970 . S
Li1127 O1187 1.956 . S
C1128 C1130 1.348 . S
C1128 C1131 1.356 . S
C1128 O1184 1.325 . S
N1129 C1132 1.314 . S
N1129 C1133 1.279 . S
C1130 C1128 1.348 . S
C1130 C1132 1.353 . S
C1130 H1188 0.929 . S
C1131 C1128 1.356 . S
C1131 C1133 1.358 . S
C1131 H1189 0.930 . S
C1132 N1129 1.314 . S
C1132 C1130 1.353 . S
C1132 H1190 0.930 . S
C1133 N1129 1.279 . S
C1133 C1131 1.358 . S
C1133 H1191 0.930 . S
C1134 C1137 1.348 . S
C1134 C1138 1.356 . S
C1134 O1185 1.325 . S
C1135 N1136 1.279 . S
C1135 C1138 1.358 . S
C1135 H1192 0.930 . S
N1136 C1135 1.279 . S
N1136 C1139 1.314 . S
C1137 C1134 1.348 . S
C1137 C1139 1.353 . S
C1137 H1193 0.929 . S
C1138 C1134 1.356 . S
C1138 C1135 1.358 . S
C1138 H1194 0.930 . S
C1139 N1136 1.314 . S
C1139 C1137 1.353 . S
C1139 H1195 0.930 . S
C1140 N1141 1.314 . S
C1140 C1145 1.353 . S
C1140 H1146 0.930 . S
N1141 Li1124 1.990 . S
N1141 C1140 1.314 . S
N1141 C1143 1.279 . S
C1142 C1143 1.358 . S
C1142 C1144 1.356 . S
C1142 H1196 0.930 . S
C1143 N1141 1.279 . S
C1143 C1142 1.358 . S
C1143 H1147 0.930 . S
C1144 C1142 1.356 . S
C1144 C1145 1.348 . S
C1145 C1140 1.353 . S
C1145 C1144 1.348 . S
C1145 H1197 0.929 . S
H1146 C1140 0.930 . S
H1147 C1143 0.930 . S
C1148 N1149 1.314 . S
C1148 C1150 1.353 . S
C1148 H1154 0.930 . S
N1149 Li1125 1.990 . S
N1149 C1148 1.314 . S
N1149 C1152 1.279 . S
C1150 C1148 1.353 . S
C1150 C1153 1.348 . S
C1150 H1198 0.929 . S
C1151 C1152 1.358 . S
C1151 C1153 1.356 . S
C1151 H1199 0.930 . S
C1152 N1149 1.279 . S
C1152 C1151 1.358 . S
C1152 H1155 0.930 . S
C1153 C1150 1.348 . S
C1153 C1151 1.356 . S
H1154 C1148 0.930 . S
H1155 C1152 0.930 . S
C1156 C1158 1.348 . S
C1156 C1159 1.356 . S
C1156 O1186 1.325 . S
N1157 C1160 1.314 . S
N1157 C1161 1.279 . S
C1158 C1156 1.348 . S
C1158 C1160 1.353 . S
C1158 H1200 0.929 . S
C1159 C1156 1.356 . S
C1159 C1161 1.358 . S
C1159 H1201 0.930 . S
C1160 N1157 1.314 . S
C1160 C1158 1.353 . S
C1160 H1202 0.930 . S
C1161 N1157 1.279 . S
C1161 C1159 1.358 . S
C1161 H1203 0.930 . S
C1162 C1163 1.348 . S
C1162 C1164 1.356 . S
C1162 O1187 1.325 . S
C1163 C1162 1.348 . S
C1163 C1165 1.353 . S
C1163 H1204 0.929 . S
C1164 C1162 1.356 . S
C1164 C1166 1.358 . S
C1164 H1205 0.930 . S
C1165 C1163 1.353 . S
C1165 N1167 1.314 . S
C1165 H1206 0.930 . S
C1166 C1164 1.358 . S
C1166 N1167 1.279 . S
C1166 H1207 0.930 . S
N1167 C1165 1.314 . S
N1167 C1166 1.279 . S
C1168 C1170 1.353 . S
C1168 N1171 1.314 . S
C1168 H1174 0.930 . S
C1169 N1171 1.279 . S
C1169 C1172 1.358 . S
C1169 H1175 0.930 . S
C1170 C1168 1.353 . S
C1170 C1173 1.348 . S
C1170 H1208 0.929 . S
N1171 Li1126 1.990 . S
N1171 C1168 1.314 . S
N1171 C1169 1.279 . S
C1172 C1169 1.358 . S
C1172 C1173 1.356 . S
C1172 H1209 0.930 . S
C1173 C1170 1.348 . S
C1173 C1172 1.356 . S
H1174 C1168 0.930 . S
H1175 C1169 0.930 . S
C1176 N1177 1.314 . S
C1176 C1178 1.353 . S
C1176 H1182 0.930 . S
N1177 Li1127 1.990 . S
N1177 C1176 1.314 . S
N1177 C1180 1.279 . S
C1178 C1176 1.353 . S
C1178 C1181 1.348 . S
C1178 H1210 0.929 . S
C1179 C1180 1.358 . S
C1179 C1181 1.356 . S
C1179 H1211 0.930 . S
C1180 N1177 1.279 . S
C1180 C1179 1.358 . S
C1180 H1183 0.930 . S
C1181 C1178 1.348 . S
C1181 C1179 1.356 . S
H1182 C1176 0.930 . S
H1183 C1180 0.930 . S
O1184 Li1124 1.956 . S
O1184 Li1125 1.970 . S
O1184 Li1126 1.961 . S
O1184 C1128 1.325 . S
O1185 Li1124 1.970 . S
O1185 Li1125 1.956 . S
O1185 Li1127 1.961 . S
O1185 C1134 1.325 . S
O1186 Li1124 1.961 . S
O1186 Li1126 1.956 . S
O1186 Li1127 1.970 . S
O1186 C1156 1.325 . S
O1187 Li1125 1.961 . S
O1187 Li1126 1.970 . S
O1187 Li1127 1.956 . S
O1187 C1162 1.325 . S
H1188 C1130 0.929 . S
H1189 C1131 0.930 . S
H1190 C1132 0.930 . S
H1191 C1133 0.930 . S
H1192 C1135 0.930 . S
H1193 C1137 0.929 . S
H1194 C1138 0.930 . S
H1195 C1139 0.930 . S
H1196 C1142 0.930 . S
H1197 C1145 0.929 . S
H1198 C1150 0.929 . S
H1199 C1151 0.930 . S
H1200 C1158 0.929 . S
H1201 C1159 0.930 . S
H1202 C1160 0.930 . S
H1203 C1161 0.930 . S
H1204 C1163 0.929 . S
H1205 C1164 0.930 . S
H1206 C1165 0.930 . S
H1207 C1166 0.930 . S
H1208 C1170 0.929 . S
H1209 C1172 0.930 . S
H1210 C1178 0.929 . S
H1211 C1179 0.930 . S
H1212 C1220 0.950 . S
H1213 C1225 0.950 . S
H1214 C1222 0.950 . S
H1215 C1224 0.950 . S
H1216 C1226 0.950 . S
H1217 C1228 0.950 . S
H1218 C1230 0.950 . S
H1219 C1231 0.950 . S
C1220 H1212 0.950 . S
C1220 C1221 1.386 . S
C1220 C1222 1.391 . S
C1221 C1220 1.386 . S
C1221 C1225 1.393 . S
C1222 H1214 0.950 . S
C1222 C1220 1.391 . S
C1222 C1223 1.400 . S
C1223 C1222 1.400 . S
C1223 C1224 1.398 . S
C1223 C1229 1.491 . S
C1224 H1215 0.950 . S
C1224 C1223 1.398 . S
C1224 C1225 1.391 . S
C1225 H1213 0.950 . S
C1225 C1221 1.393 . S
C1225 C1224 1.391 . S
C1226 H1216 0.950 . S
C1226 C1227 1.386 . S
C1226 C1228 1.391 . S
C1227 C1226 1.386 . S
C1227 C1231 1.393 . S
C1228 H1217 0.950 . S
C1228 C1226 1.391 . S
C1228 C1229 1.400 . S
C1229 C1223 1.491 . S
C1229 C1228 1.400 . S
C1229 C1230 1.398 . S
C1230 H1218 0.950 . S
C1230 C1229 1.398 . S
C1230 C1231 1.391 . S
C1231 H1219 0.950 . S
C1231 C1227 1.393 . S
C1231 C1230 1.391 . S
H1232 C1240 0.950 . S
H1233 C1245 0.950 . S
H1234 C1242 0.950 . S
H1235 C1244 0.950 . S
H1236 C1246 0.950 . S
H1237 C1248 0.950 . S
H1238 C1250 0.950 . S
H1239 C1251 0.950 . S
C1240 H1232 0.950 . S
C1240 C1241 1.386 . S
C1240 C1242 1.391 . S
C1241 C1240 1.386 . S
C1241 C1245 1.393 . S
C1242 H1234 0.950 . S
C1242 C1240 1.391 . S
C1242 C1243 1.400 . S
C1243 C1242 1.400 . S
C1243 C1244 1.398 . S
C1243 C1249 1.491 . S
C1244 H1235 0.950 . S
C1244 C1243 1.398 . S
C1244 C1245 1.391 . S
C1245 H1233 0.950 . S
C1245 C1241 1.393 . S
C1245 C1244 1.391 . S
C1246 H1236 0.950 . S
C1246 C1247 1.386 . S
C1246 C1248 1.391 . S
C1247 C1246 1.386 . S
C1247 C1251 1.393 . S
C1248 H1237 0.950 . S
C1248 C1246 1.391 . S
C1248 C1249 1.400 . S
C1249 C1243 1.491 . S
C1249 C1248 1.400 . S
C1249 C1250 1.398 . S
C1250 H1238 0.950 . S
C1250 C1249 1.398 . S
C1250 C1251 1.391 . S
C1251 H1239 0.950 . S
C1251 C1247 1.393 . S
C1251 C1250 1.391 . S
H1252 C1260 0.950 . S
H1253 C1265 0.950 . S
H1254 C1262 0.950 . S
H1255 C1264 0.950 . S
H1256 C1266 0.950 . S
H1257 C1268 0.950 . S
H1258 C1270 0.950 . S
H1259 C1271 0.950 . S
C1260 H1252 0.950 . S
C1260 C1261 1.386 . S
C1260 C1262 1.391 . S
C1261 C1260 1.386 . S
C1261 C1265 1.393 . S
C1262 H1254 0.950 . S
C1262 C1260 1.391 . S
C1262 C1263 1.400 . S
C1263 C1262 1.400 . S
C1263 C1264 1.398 . S
C1263 C1269 1.491 . S
C1264 H1255 0.950 . S
C1264 C1263 1.398 . S
C1264 C1265 1.391 . S
C1265 H1253 0.950 . S
C1265 C1261 1.393 . S
C1265 C1264 1.391 . S
C1266 H1256 0.950 . S
C1266 C1267 1.386 . S
C1266 C1268 1.391 . S
C1267 C1266 1.386 . S
C1267 C1271 1.393 . S
C1268 H1257 0.950 . S
C1268 C1266 1.391 . S
C1268 C1269 1.400 . S
C1269 C1263 1.491 . S
C1269 C1268 1.400 . S
C1269 C1270 1.398 . S
C1270 H1258 0.950 . S
C1270 C1269 1.398 . S
C1270 C1271 1.391 . S
C1271 H1259 0.950 . S
C1271 C1267 1.393 . S
C1271 C1270 1.391 . S
H1272 C1280 0.950 . S
H1273 C1285 0.950 . S
H1274 C1282 0.950 . S
H1275 C1284 0.950 . S
H1276 C1286 0.950 . S
H1277 C1288 0.950 . S
H1278 C1290 0.950 . S
H1279 C1291 0.950 . S
C1280 H1272 0.950 . S
C1280 C1281 1.386 . S
C1280 C1282 1.391 . S
C1281 C1280 1.386 . S
C1281 C1285 1.393 . S
C1282 H1274 0.950 . S
C1282 C1280 1.391 . S
C1282 C1283 1.400 . S
C1283 C1282 1.400 . S
C1283 C1284 1.398 . S
C1283 C1289 1.491 . S
C1284 H1275 0.950 . S
C1284 C1283 1.398 . S
C1284 C1285 1.391 . S
C1285 H1273 0.950 . S
C1285 C1281 1.393 . S
C1285 C1284 1.391 . S
C1286 H1276 0.950 . S
C1286 C1287 1.386 . S
C1286 C1288 1.391 . S
C1287 C1286 1.386 . S
C1287 C1291 1.393 . S
C1288 H1277 0.950 . S
C1288 C1286 1.391 . S
C1288 C1289 1.400 . S
C1289 C1283 1.491 . S
C1289 C1288 1.400 . S
C1289 C1290 1.398 . S
C1290 H1278 0.950 . S
C1290 C1289 1.398 . S
C1290 C1291 1.391 . S
C1291 H1279 0.950 . S
C1291 C1287 1.393 . S
C1291 C1290 1.391 . S
H1292 C1300 0.950 . S
H1293 C1305 0.950 . S
H1294 C1302 0.950 . S
H1295 C1304 0.950 . S
H1296 C1306 0.950 . S
H1297 C1308 0.950 . S
H1298 C1310 0.950 . S
H1299 C1311 0.950 . S
C1300 H1292 0.950 . S
C1300 C1301 1.386 . S
C1300 C1302 1.391 . S
C1301 C1300 1.386 . S
C1301 C1305 1.393 . S
C1302 H1294 0.950 . S
C1302 C1300 1.391 . S
C1302 C1303 1.400 . S
C1303 C1302 1.400 . S
C1303 C1304 1.398 . S
C1303 C1309 1.491 . S
C1304 H1295 0.950 . S
C1304 C1303 1.398 . S
C1304 C1305 1.391 . S
C1305 H1293 0.950 . S
C1305 C1301 1.393 . S
C1305 C1304 1.391 . S
C1306 H1296 0.950 . S
C1306 C1307 1.386 . S
C1306 C1308 1.391 . S
C1307 C1306 1.386 . S
C1307 C1311 1.393 . S
C1308 H1297 0.950 . S
C1308 C1306 1.391 . S
C1308 C1309 1.400 . S
C1309 C1303 1.491 . S
C1309 C1308 1.400 . S
C1309 C1310 1.398 . S
C1310 H1298 0.950 . S
C1310 C1309 1.398 . S
C1310 C1311 1.391 . S
C1311 H1299 0.950 . S
C1311 C1307 1.393 . S
C1311 C1310 1.391 . S
H1312 C1320 0.950 . S
H1313 C1325 0.950 . S
H1314 C1322 0.950 . S
H1315 C1324 0.950 . S
H1316 C1326 0.950 . S
H1317 C1328 0.950 . S
H1318 C1330 0.950 . S
H1319 C1331 0.950 . S
C1320 H1312 0.950 . S
C1320 C1321 1.386 . S
C1320 C1322 1.391 . S
C1321 C1320 1.386 . S
C1321 C1325 1.393 . S
C1322 H1314 0.950 . S
C1322 C1320 1.391 . S
C1322 C1323 1.400 . S
C1323 C1322 1.400 . S
C1323 C1324 1.398 . S
C1323 C1329 1.491 . S
C1324 H1315 0.950 . S
C1324 C1323 1.398 . S
C1324 C1325 1.391 . S
C1325 H1313 0.950 . S
C1325 C1321 1.393 . S
C1325 C1324 1.391 . S
C1326 H1316 0.950 . S
C1326 C1327 1.386 . S
C1326 C1328 1.391 . S
C1327 C1326 1.386 . S
C1327 C1331 1.393 . S
C1328 H1317 0.950 . S
C1328 C1326 1.391 . S
C1328 C1329 1.400 . S
C1329 C1323 1.491 . S
C1329 C1328 1.400 . S
C1329 C1330 1.398 . S
C1330 H1318 0.950 . S
C1330 C1329 1.398 . S
C1330 C1331 1.391 . S
C1331 H1319 0.950 . S
C1331 C1327 1.393 . S
C1331 C1330 1.391 . S
H1332 C1340 0.950 . S
H1333 C1345 0.950 . S
H1334 C1342 0.950 . S
H1335 C1344 0.950 . S
H1336 C1346 0.950 . S
H1337 C1348 0.950 . S
H1338 C1350 0.950 . S
H1339 C1351 0.950 . S
C1340 H1332 0.950 . S
C1340 C1341 1.386 . S
C1340 C1342 1.391 . S
C1341 C1340 1.386 . S
C1341 C1345 1.393 . S
C1342 H1334 0.950 . S
C1342 C1340 1.391 . S
C1342 C1343 1.400 . S
C1343 C1342 1.400 . S
C1343 C1344 1.398 . S
C1343 C1349 1.491 . S
C1344 H1335 0.950 . S
C1344 C1343 1.398 . S
C1344 C1345 1.391 . S
C1345 H1333 0.950 . S
C1345 C1341 1.393 . S
C1345 C1344 1.391 . S
C1346 H1336 0.950 . S
C1346 C1347 1.386 . S
C1346 C1348 1.391 . S
C1347 C1346 1.386 . S
C1347 C1351 1.393 . S
C1348 H1337 0.950 . S
C1348 C1346 1.391 . S
C1348 C1349 1.400 . S
C1349 C1343 1.491 . S
C1349 C1348 1.400 . S
C1349 C1350 1.398 . S
C1350 H1338 0.950 . S
C1350 C1349 1.398 . S
C1350 C1351 1.391 . S
C1351 H1339 0.950 . S
C1351 C1347 1.393 . S
C1351 C1350 1.391 . S
H1352 C1360 0.950 . S
H1353 C1365 0.950 . S
H1354 C1362 0.950 . S
H1355 C1364 0.950 . S
H1356 C1366 0.950 . S
H1357 C1368 0.950 . S
H1358 C1370 0.950 . S
H1359 C1371 0.950 . S
C1360 H1352 0.950 . S
C1360 C1361 1.386 . S
C1360 C1362 1.391 . S
C1361 C1360 1.386 . S
C1361 C1365 1.393 . S
C1362 H1354 0.950 . S
C1362 C1360 1.391 . S
C1362 C1363 1.400 . S
C1363 C1362 1.400 . S
C1363 C1364 1.398 . S
C1363 C1369 1.491 . S
C1364 H1355 0.950 . S
C1364 C1363 1.398 . S
C1364 C1365 1.391 . S
C1365 H1353 0.950 . S
C1365 C1361 1.393 . S
C1365 C1364 1.391 . S
C1366 H1356 0.950 . S
C1366 C1367 1.386 . S
C1366 C1368 1.391 . S
C1367 C1366 1.386 . S
C1367 C1371 1.393 . S
C1368 H1357 0.950 . S
C1368 C1366 1.391 . S
C1368 C1369 1.400 . S
C1369 C1363 1.491 . S
C1369 C1368 1.400 . S
C1369 C1370 1.398 . S
C1370 H1358 0.950 . S
C1370 C1369 1.398 . S
C1370 C1371 1.391 . S
C1371 H1359 0.950 . S
C1371 C1367 1.393 . S
C1371 C1370 1.391 . S
H1372 C1380 0.950 . S
H1373 C1385 0.950 . S
H1374 C1382 0.950 . S
H1375 C1384 0.950 . S
H1376 C1386 0.950 . S
H1377 C1388 0.950 . S
H1378 C1390 0.950 . S
H1379 C1391 0.950 . S
C1380 H1372 0.950 . S
C1380 C1381 1.386 . S
C1380 C1382 1.391 . S
C1381 C1380 1.386 . S
C1381 C1385 1.393 . S
C1382 H1374 0.950 . S
C1382 C1380 1.391 . S
C1382 C1383 1.400 . S
C1383 C1382 1.400 . S
C1383 C1384 1.398 . S
C1383 C1389 1.491 . S
C1384 H1375 0.950 . S
C1384 C1383 1.398 . S
C1384 C1385 1.391 . S
C1385 H1373 0.950 . S
C1385 C1381 1.393 . S
C1385 C1384 1.391 . S
C1386 H1376 0.950 . S
C1386 C1387 1.386 . S
C1386 C1388 1.391 . S
C1387 C1386 1.386 . S
C1387 C1391 1.393 . S
C1388 H1377 0.950 . S
C1388 C1386 1.391 . S
C1388 C1389 1.400 . S
C1389 C1383 1.491 . S
C1389 C1388 1.400 . S
C1389 C1390 1.398 . S
C1390 H1378 0.950 . S
C1390 C1389 1.398 . S
C1390 C1391 1.391 . S
C1391 H1379 0.950 . S
C1391 C1387 1.393 . S
C1391 C1390 1.391 . S
H1392 C1400 0.950 . S
H1393 C1405 0.950 . S
H1394 C1402 0.950 . S
H1395 C1404 0.950 . S
H1396 C1406 0.950 . S
H1397 C1408 0.950 . S
H1398 C1410 0.950 . S
H1399 C1411 0.950 . S
C1400 H1392 0.950 . S
C1400 C1401 1.386 . S
C1400 C1402 1.391 . S
C1401 C1400 1.386 . S
C1401 C1405 1.393 . S
C1402 H1394 0.950 . S
C1402 C1400 1.391 . S
C1402 C1403 1.400 . S
C1403 C1402 1.400 . S
C1403 C1404 1.398 . S
C1403 C1409 1.491 . S
C1404 H1395 0.950 . S
C1404 C1403 1.398 . S
C1404 C1405 1.391 . S
C1405 H1393 0.950 . S
C1405 C1401 1.393 . S
C1405 C1404 1.391 . S
C1406 H1396 0.950 . S
C1406 C1407 1.386 . S
C1406 C1408 1.391 . S
C1407 C1406 1.386 . S
C1407 C1411 1.393 . S
C1408 H1397 0.950 . S
C1408 C1406 1.391 . S
C1408 C1409 1.400 . S
C1409 C1403 1.491 . S
C1409 C1408 1.400 . S
C1409 C1410 1.398 . S
C1410 H1398 0.950 . S
C1410 C1409 1.398 . S
C1410 C1411 1.391 . S
C1411 H1399 0.950 . S
C1411 C1407 1.393 . S
C1411 C1410 1.391 . S
H1412 C1420 0.950 . S
H1413 C1425 0.950 . S
H1414 C1422 0.950 . S
H1415 C1424 0.950 . S
H1416 C1426 0.950 . S
H1417 C1428 0.950 . S
H1418 C1430 0.950 . S
H1419 C1431 0.950 . S
C1420 H1412 0.950 . S
C1420 C1421 1.386 . S
C1420 C1422 1.391 . S
C1421 C1420 1.386 . S
C1421 C1425 1.393 . S
C1422 H1414 0.950 . S
C1422 C1420 1.391 . S
C1422 C1423 1.400 . S
C1423 C1422 1.400 . S
C1423 C1424 1.398 . S
C1423 C1429 1.491 . S
C1424 H1415 0.950 . S
C1424 C1423 1.398 . S
C1424 C1425 1.391 . S
C1425 H1413 0.950 . S
C1425 C1421 1.393 . S
C1425 C1424 1.391 . S
C1426 H1416 0.950 . S
C1426 C1427 1.386 . S
C1426 C1428 1.391 . S
C1427 C1426 1.386 . S
C1427 C1431 1.393 . S
C1428 H1417 0.950 . S
C1428 C1426 1.391 . S
C1428 C1429 1.400 . S
C1429 C1423 1.491 . S
C1429 C1428 1.400 . S
C1429 C1430 1.398 . S
C1430 H1418 0.950 . S
C1430 C1429 1.398 . S
C1430 C1431 1.391 . S
C1431 H1419 0.950 . S
C1431 C1427 1.393 . S
C1431 C1430 1.391 . S
H1432 C1440 0.950 . S
H1433 C1445 0.950 . S
H1434 C1442 0.950 . S
H1435 C1444 0.950 . S
H1436 C1446 0.950 . S
H1437 C1448 0.950 . S
H1438 C1450 0.950 . S
H1439 C1451 0.950 . S
C1440 H1432 0.950 . S
C1440 C1441 1.386 . S
C1440 C1442 1.391 . S
C1441 C1440 1.386 . S
C1441 C1445 1.393 . S
C1442 H1434 0.950 . S
C1442 C1440 1.391 . S
C1442 C1443 1.400 . S
C1443 C1442 1.400 . S
C1443 C1444 1.398 . S
C1443 C1449 1.491 . S
C1444 H1435 0.950 . S
C1444 C1443 1.398 . S
C1444 C1445 1.391 . S
C1445 H1433 0.950 . S
C1445 C1441 1.393 . S
C1445 C1444 1.391 . S
C1446 H1436 0.950 . S
C1446 C1447 1.386 . S
C1446 C1448 1.391 . S
C1447 C1446 1.386 . S
C1447 C1451 1.393 . S
C1448 H1437 0.950 . S
C1448 C1446 1.391 . S
C1448 C1449 1.400 . S
C1449 C1443 1.491 . S
C1449 C1448 1.400 . S
C1449 C1450 1.398 . S
C1450 H1438 0.950 . S
C1450 C1449 1.398 . S
C1450 C1451 1.391 . S
C1451 H1439 0.950 . S
C1451 C1447 1.393 . S
C1451 C1450 1.391 . S
H1452 C1460 0.950 . S
H1453 C1465 0.950 . S
H1454 C1462 0.950 . S
H1455 C1464 0.950 . S
H1456 C1466 0.950 . S
H1457 C1468 0.950 . S
H1458 C1470 0.950 . S
H1459 C1471 0.950 . S
C1460 H1452 0.950 . S
C1460 C1461 1.386 . S
C1460 C1462 1.391 . S
C1461 C1460 1.386 . S
C1461 C1465 1.393 . S
C1462 H1454 0.950 . S
C1462 C1460 1.391 . S
C1462 C1463 1.400 . S
C1463 C1462 1.400 . S
C1463 C1464 1.398 . S
C1463 C1469 1.491 . S
C1464 H1455 0.950 . S
C1464 C1463 1.398 . S
C1464 C1465 1.391 . S
C1465 H1453 0.950 . S
C1465 C1461 1.393 . S
C1465 C1464 1.391 . S
C1466 H1456 0.950 . S
C1466 C1467 1.386 . S
C1466 C1468 1.391 . S
C1467 C1466 1.386 . S
C1467 C1471 1.393 . S
C1468 H1457 0.950 . S
C1468 C1466 1.391 . S
C1468 C1469 1.400 . S
C1469 C1463 1.491 . S
C1469 C1468 1.400 . S
C1469 C1470 1.398 . S
C1470 H1458 0.950 . S
C1470 C1469 1.398 . S
C1470 C1471 1.391 . S
C1471 H1459 0.950 . S
C1471 C1467 1.393 . S
C1471 C1470 1.391 . S
H1472 C1480 0.950 . S
H1473 C1485 0.950 . S
H1474 C1482 0.950 . S
H1475 C1484 0.950 . S
H1476 C1486 0.950 . S
H1477 C1488 0.950 . S
H1478 C1490 0.950 . S
H1479 C1491 0.950 . S
C1480 H1472 0.950 . S
C1480 C1481 1.386 . S
C1480 C1482 1.391 . S
C1481 C1480 1.386 . S
C1481 C1485 1.393 . S
C1482 H1474 0.950 . S
C1482 C1480 1.391 . S
C1482 C1483 1.400 . S
C1483 C1482 1.400 . S
C1483 C1484 1.398 . S
C1483 C1489 1.491 . S
C1484 H1475 0.950 . S
C1484 C1483 1.398 . S
C1484 C1485 1.391 . S
C1485 H1473 0.950 . S
C1485 C1481 1.393 . S
C1485 C1484 1.391 . S
C1486 H1476 0.950 . S
C1486 C1487 1.386 . S
C1486 C1488 1.391 . S
C1487 C1486 1.386 . S
C1487 C1491 1.393 . S
C1488 H1477 0.950 . S
C1488 C1486 1.391 . S
C1488 C1489 1.400 . S
C1489 C1483 1.491 . S
C1489 C1488 1.400 . S
C1489 C1490 1.398 . S
C1490 H1478 0.950 . S
C1490 C1489 1.398 . S
C1490 C1491 1.391 . S
C1491 H1479 0.950 . S
C1491 C1487 1.393 . S
C1491 C1490 1.391 . S
H1492 C1500 0.950 . S
H1493 C1505 0.950 . S
H1494 C1502 0.950 . S
H1495 C1504 0.950 . S
H1496 C1506 0.950 . S
H1497 C1508 0.950 . S
H1498 C1510 0.950 . S
H1499 C1511 0.950 . S
C1500 H1492 0.950 . S
C1500 C1501 1.386 . S
C1500 C1502 1.391 . S
C1501 C1500 1.386 . S
C1501 C1505 1.393 . S
C1502 H1494 0.950 . S
C1502 C1500 1.391 . S
C1502 C1503 1.400 . S
C1503 C1502 1.400 . S
C1503 C1504 1.398 . S
C1503 C1509 1.491 . S
C1504 H1495 0.950 . S
C1504 C1503 1.398 . S
C1504 C1505 1.391 . S
C1505 H1493 0.950 . S
C1505 C1501 1.393 . S
C1505 C1504 1.391 . S
C1506 H1496 0.950 . S
C1506 C1507 1.386 . S
C1506 C1508 1.391 . S
C1507 C1506 1.386 . S
C1507 C1511 1.393 . S
C1508 H1497 0.950 . S
C1508 C1506 1.391 . S
C1508 C1509 1.400 . S
C1509 C1503 1.491 . S
C1509 C1508 1.400 . S
C1509 C1510 1.398 . S
C1510 H1498 0.950 . S
C1510 C1509 1.398 . S
C1510 C1511 1.391 . S
C1511 H1499 0.950 . S
C1511 C1507 1.393 . S
C1511 C1510 1.391 . S
H1512 C1520 0.950 . S
H1513 C1525 0.950 . S
H1514 C1522 0.950 . S
H1515 C1524 0.950 . S
H1516 C1526 0.950 1_554 S
H1517 C1528 0.950 . S
H1518 C1530 0.950 . S
H1519 C1531 0.950 . S
C1520 H1512 0.950 . S
C1520 C1521 1.386 . S
C1520 C1522 1.391 . S
C1521 C1520 1.386 . S
C1521 C1525 1.393 . S
C1522 H1514 0.950 . S
C1522 C1520 1.391 . S
C1522 C1523 1.400 . S
C1523 C1522 1.400 . S
C1523 C1524 1.398 . S
C1523 C1529 1.491 . S
C1524 H1515 0.950 . S
C1524 C1523 1.398 . S
C1524 C1525 1.391 . S
C1525 H1513 0.950 . S
C1525 C1521 1.393 . S
C1525 C1524 1.391 . S
C1526 H1516 0.950 1_556 S
C1526 C1527 1.386 1_556 S
C1526 C1528 1.391 . S
C1527 C1526 1.386 1_554 S
C1527 C1531 1.398 1_554 S
C1528 H1517 0.950 . S
C1528 C1526 1.391 . S
C1528 C1529 1.400 . S
C1529 C1523 1.491 . S
C1529 C1528 1.400 . S
C1529 C1530 1.398 . S
C1530 H1518 0.950 . S
C1530 C1529 1.398 . S
C1530 C1531 1.391 . S
C1531 H1519 0.950 . S
C1531 C1527 1.398 1_556 S
C1531 C1530 1.391 . S
H1532 C1540 0.950 . S
H1533 C1545 0.950 . S
H1534 C1542 0.950 . S
H1535 C1544 0.950 . S
H1536 C1546 0.950 . S
H1537 C1548 0.950 . S
H1538 C1550 0.950 . S
H1539 C1551 0.950 . S
C1540 H1532 0.950 . S
C1540 C1541 1.386 . S
C1540 C1542 1.391 . S
C1541 C1540 1.386 . S
C1541 C1545 1.393 . S
C1542 H1534 0.950 . S
C1542 C1540 1.391 . S
C1542 C1543 1.400 . S
C1543 C1542 1.400 . S
C1543 C1544 1.398 . S
C1543 C1549 1.491 . S
C1544 H1535 0.950 . S
C1544 C1543 1.398 . S
C1544 C1545 1.391 . S
C1545 H1533 0.950 . S
C1545 C1541 1.393 . S
C1545 C1544 1.391 . S
C1546 H1536 0.950 . S
C1546 C1547 1.386 . S
C1546 C1548 1.391 . S
C1547 C1546 1.386 . S
C1547 C1551 1.393 . S
C1548 H1537 0.950 . S
C1548 C1546 1.391 . S
C1548 C1549 1.400 . S
C1549 C1543 1.491 . S
C1549 C1548 1.400 . S
C1549 C1550 1.398 . S
C1550 H1538 0.950 . S
C1550 C1549 1.398 . S
C1550 C1551 1.391 . S
C1551 H1539 0.950 . S
C1551 C1547 1.393 . S
C1551 C1550 1.391 . S
H1552 C1560 0.950 . S
H1553 C1565 0.950 . S
H1554 C1562 0.950 . S
H1555 C1564 0.950 . S
H1556 C1566 0.950 . S
H1557 C1568 0.950 . S
H1558 C1570 0.950 . S
H1559 C1571 0.950 . S
C1560 H1552 0.950 . S
C1560 C1561 1.386 . S
C1560 C1562 1.391 . S
C1561 C1560 1.386 . S
C1561 C1565 1.393 . S
C1562 H1554 0.950 . S
C1562 C1560 1.391 . S
C1562 C1563 1.400 . S
C1563 C1562 1.400 . S
C1563 C1564 1.398 . S
C1563 C1569 1.491 . S
C1564 H1555 0.950 . S
C1564 C1563 1.398 . S
C1564 C1565 1.391 . S
C1565 H1553 0.950 . S
C1565 C1561 1.393 . S
C1565 C1564 1.391 . S
C1566 H1556 0.950 . S
C1566 C1567 1.386 . S
C1566 C1568 1.391 . S
C1567 C1566 1.386 . S
C1567 C1571 1.393 . S
C1568 H1557 0.950 . S
C1568 C1566 1.391 . S
C1568 C1569 1.400 . S
C1569 C1563 1.491 . S
C1569 C1568 1.400 . S
C1569 C1570 1.398 . S
C1570 H1558 0.950 . S
C1570 C1569 1.398 . S
C1570 C1571 1.391 . S
C1571 H1559 0.950 . S
C1571 C1567 1.393 . S
C1571 C1570 1.391 . S
H1572 C1580 0.950 . S
H1573 C1585 0.950 . S
H1574 C1582 0.950 . S
H1575 C1584 0.950 . S
H1576 C1586 0.950 . S
H1577 C1588 0.950 . S
H1578 C1590 0.950 . S
H1579 C1591 0.950 . S
C1580 H1572 0.950 . S
C1580 C1581 1.386 . S
C1580 C1582 1.391 . S
C1581 C1580 1.386 . S
C1581 C1585 1.393 . S
C1582 H1574 0.950 . S
C1582 C1580 1.391 . S
C1582 C1583 1.400 . S
C1583 C1582 1.400 . S
C1583 C1584 1.398 . S
C1583 C1589 1.491 . S
C1584 H1575 0.950 . S
C1584 C1583 1.398 . S
C1584 C1585 1.391 . S
C1585 H1573 0.950 . S
C1585 C1581 1.393 . S
C1585 C1584 1.391 . S
C1586 H1576 0.950 . S
C1586 C1587 1.386 . S
C1586 C1588 1.391 . S
C1587 C1586 1.386 . S
C1587 C1591 1.393 . S
C1588 H1577 0.950 . S
C1588 C1586 1.391 . S
C1588 C1589 1.400 . S
C1589 C1583 1.491 . S
C1589 C1588 1.400 . S
C1589 C1590 1.398 . S
C1590 H1578 0.950 . S
C1590 C1589 1.398 . S
C1590 C1591 1.391 . S
C1591 H1579 0.950 . S
C1591 C1587 1.393 . S
C1591 C1590 1.391 . S
H1592 C1600 0.950 . S
H1593 C1605 0.950 . S
H1594 C1602 0.950 . S
H1595 C1604 0.950 . S
H1596 C1606 0.950 . S
H1597 C1608 0.950 . S
H1598 C1610 0.950 . S
H1599 C1611 0.950 . S
C1600 H1592 0.950 . S
C1600 C1601 1.386 . S
C1600 C1602 1.391 . S
C1601 C1600 1.386 . S
C1601 C1605 1.393 . S
C1602 H1594 0.950 . S
C1602 C1600 1.391 . S
C1602 C1603 1.400 . S
C1603 C1602 1.400 . S
C1603 C1604 1.398 . S
C1603 C1609 1.491 . S
C1604 H1595 0.950 . S
C1604 C1603 1.398 . S
C1604 C1605 1.391 . S
C1605 H1593 0.950 . S
C1605 C1601 1.393 . S
C1605 C1604 1.391 . S
C1606 H1596 0.950 . S
C1606 C1607 1.386 . S
C1606 C1608 1.391 . S
C1607 C1606 1.386 . S
C1607 C1611 1.393 . S
C1608 H1597 0.950 . S
C1608 C1606 1.391 . S
C1608 C1609 1.400 . S
C1609 C1603 1.491 . S
C1609 C1608 1.400 . S
C1609 C1610 1.398 . S
C1610 H1598 0.950 . S
C1610 C1609 1.398 . S
C1610 C1611 1.391 . S
C1611 H1599 0.950 . S
C1611 C1607 1.393 . S
C1611 C1610 1.391 . S
H1612 C1620 0.950 . S
H1613 C1625 0.950 . S
H1614 C1622 0.950 . S
H1615 C1624 0.950 . S
H1616 C1626 0.950 . S
H1617 C1628 0.950 . S
H1618 C1630 0.950 . S
H1619 C1631 0.950 . S
C1620 H1612 0.950 . S
C1620 C1621 1.386 . S
C1620 C1622 1.391 . S
C1621 C1620 1.386 . S
C1621 C1625 1.393 . S
C1622 H1614 0.950 . S
C1622 C1620 1.391 . S
C1622 C1623 1.400 . S
C1623 C1622 1.400 . S
C1623 C1624 1.398 . S
C1623 C1629 1.491 . S
C1624 H1615 0.950 . S
C1624 C1623 1.398 . S
C1624 C1625 1.391 . S
C1625 H1613 0.950 . S
C1625 C1621 1.393 . S
C1625 C1624 1.391 . S
C1626 H1616 0.950 . S
C1626 C1627 1.386 . S
C1626 C1628 1.391 . S
C1627 C1626 1.386 . S
C1627 C1631 1.393 . S
C1628 H1617 0.950 . S
C1628 C1626 1.391 . S
C1628 C1629 1.400 . S
C1629 C1623 1.491 . S
C1629 C1628 1.400 . S
C1629 C1630 1.398 . S
C1630 H1618 0.950 . S
C1630 C1629 1.398 . S
C1630 C1631 1.391 . S
C1631 H1619 0.950 . S
C1631 C1627 1.393 . S
C1631 C1630 1.391 . S
H1632 C1640 0.950 . S
H1633 C1645 0.950 . S
H1634 C1642 0.950 . S
H1635 C1644 0.950 . S
H1636 C1646 0.950 . S
H1637 C1648 0.950 . S
H1638 C1650 0.950 . S
H1639 C1651 0.950 . S
C1640 H1632 0.950 . S
C1640 C1641 1.386 . S
C1640 C1642 1.391 . S
C1641 C1640 1.386 . S
C1641 C1645 1.393 . S
C1642 H1634 0.950 . S
C1642 C1640 1.391 . S
C1642 C1643 1.400 . S
C1643 C1642 1.400 . S
C1643 C1644 1.398 . S
C1643 C1649 1.491 . S
C1644 H1635 0.950 . S
C1644 C1643 1.398 . S
C1644 C1645 1.391 . S
C1645 H1633 0.950 . S
C1645 C1641 1.393 . S
C1645 C1644 1.391 . S
C1646 H1636 0.950 . S
C1646 C1647 1.386 . S
C1646 C1648 1.391 . S
C1647 C1646 1.386 . S
C1647 C1651 1.393 . S
C1648 H1637 0.950 . S
C1648 C1646 1.391 . S
C1648 C1649 1.400 . S
C1649 C1643 1.491 . S
C1649 C1648 1.400 . S
C1649 C1650 1.398 . S
C1650 H1638 0.950 . S
C1650 C1649 1.398 . S
C1650 C1651 1.391 . S
C1651 H1639 0.950 . S
C1651 C1647 1.393 . S
C1651 C1650 1.391 . S
H1652 C1660 0.950 . S
H1653 C1665 0.950 . S
H1654 C1662 0.950 . S
H1655 C1664 0.950 . S
H1656 C1666 0.950 . S
H1657 C1668 0.950 . S
H1658 C1670 0.953 . S
H1659 C1671 0.950 . S
C1660 H1652 0.950 . S
C1660 C1661 1.386 . S
C1660 C1662 1.391 . S
C1661 C1660 1.386 . S
C1661 C1665 1.393 . S
C1662 H1654 0.950 . S
C1662 C1660 1.391 . S
C1662 C1663 1.400 . S
C1663 C1662 1.400 . S
C1663 C1664 1.398 . S
C1663 C1669 1.491 . S
C1664 H1655 0.950 . S
C1664 C1663 1.398 . S
C1664 C1665 1.391 . S
C1665 H1653 0.950 . S
C1665 C1661 1.393 . S
C1665 C1664 1.391 . S
C1666 H1656 0.950 . S
C1666 C1667 1.386 1_554 S
C1666 C1668 1.391 . S
C1667 C1666 1.386 1_556 S
C1667 C1671 1.393 . S
C1668 H1657 0.950 . S
C1668 C1666 1.391 . S
C1668 C1669 1.400 . S
C1669 C1663 1.491 . S
C1669 C1668 1.400 . S
C1669 C1670 1.398 . S
C1670 H1658 0.953 . S
C1670 C1669 1.398 . S
C1670 C1671 1.391 1_554 S
C1671 H1659 0.950 . S
C1671 C1667 1.393 . S
C1671 C1670 1.391 1_556 S
H1672 C1680 0.950 . S
H1673 C1685 0.950 . S
H1674 C1682 0.950 . S
H1675 C1684 0.950 . S
H1676 C1686 0.950 . S
H1677 C1688 0.950 . S
H1678 C1690 0.950 . S
H1679 C1691 0.950 . S
C1680 H1672 0.950 . S
C1680 C1681 1.386 . S
C1680 C1682 1.391 . S
C1681 C1680 1.386 . S
C1681 C1685 1.393 . S
C1682 H1674 0.950 . S
C1682 C1680 1.391 . S
C1682 C1683 1.400 . S
C1683 C1682 1.400 . S
C1683 C1684 1.398 . S
C1683 C1689 1.491 . S
C1684 H1675 0.950 . S
C1684 C1683 1.398 . S
C1684 C1685 1.391 . S
C1685 H1673 0.950 . S
C1685 C1681 1.393 . S
C1685 C1684 1.391 . S
C1686 H1676 0.950 . S
C1686 C1687 1.386 . S
C1686 C1688 1.391 . S
C1687 C1686 1.386 . S
C1687 C1691 1.393 . S
C1688 H1677 0.950 . S
C1688 C1686 1.391 . S
C1688 C1689 1.400 . S
C1689 C1683 1.491 . S
C1689 C1688 1.400 . S
C1689 C1690 1.398 . S
C1690 H1678 0.950 . S
C1690 C1689 1.398 . S
C1690 C1691 1.391 . S
C1691 H1679 0.950 . S
C1691 C1687 1.393 . S
C1691 C1690 1.391 . S
C1227 C1153 1.770 . S
C1221 C1 1.235 . S
C1241 C169 1.727 . S
C1247 C713 1.932 . S
C1261 C283 1.704 . S
C1267 C801 1.896 . S
C1281 C397 1.562 . S
C1287 C880 1.757 . S
C1307 C977 1.601 . S
C1301 C457 1.104 . S
C1321 C571 1.156 . S
C1327 C1056 1.635 . S
C1341 C115 1.275 . S
C1347 C821 1.777 . S
C1361 C229 1.128 . S
C1367 C917 1.630 . S
C1381 C343 1.158 . S
C1387 C997 1.613 . S
C1407 C1093 1.764 . S
C1401 C511 1.555 . S
C1427 C1173 1.898 . S
C1421 C625 1.718 . S
C1447 C733 1.925 . S
C1441 C55 1.741 . S
C1461 C29 1.136 . S
C1467 C829 1.389 . S
C1481 C125 0.951 . S
C1487 C909 1.490 . S
C1507 C1005 1.417 . S
C1501 C239 0.855 . S
C1521 C353 0.886 . S
C1527 C1085 1.403 . S
C1547 C1181 1.319 . S
C1541 C485 1.056 . S
C1567 C741 1.383 . S
C1561 C599 1.130 . S
C1587 C1144 1.393 . S
C1581 C143 1.140 . S
C1601 C257 1.104 . S
C1607 C704 1.391 . S
C1627 C792 1.320 . S
C1621 C371 1.042 . S
C1641 C467 0.854 . S
C1647 C889 1.404 . S
C1661 C581 0.863 . S
C1667 C968 1.415 . S
C1681 C11 0.919 . S
C1687 C1065 1.485 . S
