# Generated by pormake.
# Topology zzz, (3,6)-cn, num edge types: 1
# Building blocks:
#     Node 0, Type 0, BuildingBlock: BETDAH_clean_linker_0, # of connection points: 3
#     Node 1, Type 0, BuildingBlock: BETDAH_clean_linker_0, # of connection points: 3
#     Node 2, Type 0, BuildingBlock: BETDAH_clean_linker_0, # of connection points: 3
#     Node 3, Type 0, BuildingBlock: BETDAH_clean_linker_0, # of connection points: 3
#     Node 4, Type 0, BuildingBlock: BETDAH_clean_linker_0, # of connection points: 3
#     Node 5, Type 0, BuildingBlock: BETDAH_clean_linker_0, # of connection points: 3
#     Node 6, Type 0, BuildingBlock: BETDAH_clean_linker_0, # of connection points: 3
#     Node 7, Type 0, BuildingBlock: BETDAH_clean_linker_0, # of connection points: 3
#     Node 8, Type 1, BuildingBlock: GEDQOX_clean_sbu_0, # of connection points: 6
#     Node 9, Type 1, BuildingBlock: GEDQOX_clean_sbu_0, # of connection points: 6
#     Node 10, Type 1, BuildingBlock: GEDQOX_clean_sbu_0, # of connection points: 6
#     Node 11, Type 1, BuildingBlock: GEDQOX_clean_sbu_0, # of connection points: 6
#     Edge 12, Type (0, 1), BuildingBlock: TEMPAE_clean_linker_10, # of connection points: 2
#     Edge 13, Type (0, 1), BuildingBlock: TEMPAE_clean_linker_10, # of connection points: 2
#     Edge 14, Type (0, 1), BuildingBlock: TEMPAE_clean_linker_10, # of connection points: 2
#     Edge 15, Type (0, 1), BuildingBlock: TEMPAE_clean_linker_10, # of connection points: 2
#     Edge 16, Type (0, 1), BuildingBlock: TEMPAE_clean_linker_10, # of connection points: 2
#     Edge 17, Type (0, 1), BuildingBlock: TEMPAE_clean_linker_10, # of connection points: 2
#     Edge 18, Type (0, 1), BuildingBlock: TEMPAE_clean_linker_10, # of connection points: 2
#     Edge 19, Type (0, 1), BuildingBlock: TEMPAE_clean_linker_10, # of connection points: 2
#     Edge 20, Type (0, 1), BuildingBlock: TEMPAE_clean_linker_10, # of connection points: 2
#     Edge 21, Type (0, 1), BuildingBlock: TEMPAE_clean_linker_10, # of connection points: 2
#     Edge 22, Type (0, 1), BuildingBlock: TEMPAE_clean_linker_10, # of connection points: 2
#     Edge 23, Type (0, 1), BuildingBlock: TEMPAE_clean_linker_10, # of connection points: 2
#     Edge 24, Type (0, 1), BuildingBlock: TEMPAE_clean_linker_10, # of connection points: 2
#     Edge 25, Type (0, 1), BuildingBlock: TEMPAE_clean_linker_10, # of connection points: 2
#     Edge 26, Type (0, 1), BuildingBlock: TEMPAE_clean_linker_10, # of connection points: 2
#     Edge 27, Type (0, 1), BuildingBlock: TEMPAE_clean_linker_10, # of connection points: 2
#     Edge 28, Type (0, 1), BuildingBlock: TEMPAE_clean_linker_10, # of connection points: 2
#     Edge 29, Type (0, 1), BuildingBlock: TEMPAE_clean_linker_10, # of connection points: 2
#     Edge 30, Type (0, 1), BuildingBlock: TEMPAE_clean_linker_10, # of connection points: 2
#     Edge 31, Type (0, 1), BuildingBlock: TEMPAE_clean_linker_10, # of connection points: 2
#     Edge 32, Type (0, 1), BuildingBlock: TEMPAE_clean_linker_10, # of connection points: 2
#     Edge 33, Type (0, 1), BuildingBlock: TEMPAE_clean_linker_10, # of connection points: 2
#     Edge 34, Type (0, 1), BuildingBlock: TEMPAE_clean_linker_10, # of connection points: 2
#     Edge 35, Type (0, 1), BuildingBlock: TEMPAE_clean_linker_10, # of connection points: 2
# Relax obj value: 0.130
# Max RMSD: 0.181
# Mean RMSD: 0.087
data_MOF--net-zzz--node1-GEDQOX_clean_sbu_0--node2-BETDAH_clean_linker_0--edge1-TEMPAE_clean_linker_10
_symmetry_space_group_name_H-M    P1
_symmetry_Int_Tables_number       1
_symmetry_cell_setting            triclinic
loop_
_symmetry_equiv_pos_as_xyz
'x, y, z'
_cell_length_a     55.0232
_cell_length_b     54.597905
_cell_length_c     17.528478
_cell_angle_alpha  79.525785
_cell_angle_beta   89.13257
_cell_angle_gamma 99.806438
loop_
_atom_site_label
_atom_site_type_symbol
_atom_site_fract_x
_atom_site_fract_y
_atom_site_fract_z
_atom_type_partial_charge
H0 H 0.85551 0.56651 0.14559 0.0
H1 H 0.78562 0.534 0.06679 0.0
H2 H 0.79003 0.55551 0.29153 0.0
C3 C 0.83558 0.56131 0.15326 0.0
C4 C 0.8243 0.56324 0.22328 0.0
C5 C 0.82201 0.55058 0.09655 0.0
C6 C 0.79628 0.5427 0.10934 0.0
C7 C 0.78466 0.54497 0.17945 0.0
C8 C 0.79887 0.55465 0.23662 0.0
N9 N 0.75914 0.53589 0.19745 0.0
C10 C 0.74071 0.53687 0.14419 0.0
H11 H 0.03499 0.83171 0.25718 0.0
H12 H 0.02948 0.76792 0.14246 0.0
H13 H 0.0121 0.75676 0.38932 0.0
C14 C 0.03153 0.81133 0.26055 0.0
C15 C 0.02381 0.79556 0.33162 0.0
C16 C 0.03335 0.80166 0.19255 0.0
C17 C 0.02829 0.77534 0.19539 0.0
C18 C 0.02105 0.75885 0.26711 0.0
C19 C 0.0183 0.76923 0.33458 0.0
N20 N 0.01561 0.73197 0.27403 0.0
C21 C 0.02006 0.71773 0.21799 0.0
H22 H 0.69328 0.97098 0.19275 0.0
H23 H 0.7654 0.99076 0.07754 0.0
H24 H 0.75655 0.95557 0.32013 0.0
C25 C 0.71297 0.97081 0.1939 0.0
C26 C 0.72296 0.9615 0.26373 0.0
C27 C 0.72797 0.98131 0.12662 0.0
C28 C 0.7537 0.98243 0.12916 0.0
C29 C 0.764 0.97267 0.19924 0.0
C30 C 0.74855 0.96258 0.26611 0.0
N31 N 0.7897 0.97281 0.20619 0.0
C32 C 0.808 0.98106 0.14706 0.0
H33 H 0.50865 0.72147 0.45845 0.0
H34 H 0.5231 0.7989 0.34166 0.0
H35 H 0.54641 0.77856 0.57528 0.0
C36 C 0.51543 0.74122 0.46003 0.0
C37 C 0.52706 0.74768 0.52593 0.0
C38 C 0.51376 0.75951 0.39394 0.0
C39 C 0.52403 0.78487 0.39339 0.0
C40 C 0.53569 0.79185 0.45936 0.0
C41 C 0.53727 0.77316 0.525 0.0
N42 N 0.54635 0.81732 0.46124 0.0
C43 C 0.54417 0.83773 0.40298 0.0
H44 H 0.20646 0.49084 0.66704 0.0
H45 H 0.27332 0.52529 0.75853 0.0
H46 H 0.27406 0.50813 0.52832 0.0
C47 C 0.22631 0.49714 0.66217 0.0
C48 C 0.23895 0.4972 0.59234 0.0
C49 C 0.23829 0.50742 0.72237 0.0
C50 C 0.26387 0.51682 0.71339 0.0
C51 C 0.27687 0.51658 0.64361 0.0
C52 C 0.26419 0.50734 0.58295 0.0
N53 N 0.30209 0.52779 0.62931 0.0
C54 C 0.32036 0.52456 0.68224 0.0
H55 H 0.03114 0.2258 0.55795 0.0
H56 H 0.02283 0.28669 0.67577 0.0
H57 H 0.03832 0.30127 0.4271 0.0
C58 C 0.03105 0.2458 0.55591 0.0
C59 C 0.0354 0.26239 0.48486 0.0
C60 C 0.02646 0.25427 0.62442 0.0
C61 C 0.0263 0.28017 0.62255 0.0
C62 C 0.03069 0.29741 0.55091 0.0
C63 C 0.03499 0.28823 0.48221 0.0
N64 N 0.03092 0.32393 0.54451 0.0
C65 C 0.02905 0.33738 0.60459 0.0
H66 H 0.36027 0.07829 0.64764 0.0
H67 H 0.29036 0.05275 0.77599 0.0
H68 H 0.29314 0.07656 0.527 0.0
C69 C 0.34024 0.07526 0.64957 0.0
C70 C 0.32832 0.07926 0.57985 0.0
C71 C 0.32687 0.06554 0.72062 0.0
C72 C 0.30085 0.06053 0.72168 0.0
C73 C 0.28864 0.06503 0.6515 0.0
C74 C 0.30253 0.07385 0.58104 0.0
N75 N 0.26256 0.05992 0.64791 0.0
C76 C 0.24537 0.05654 0.70957 0.0
H77 H 0.55587 0.33449 0.35705 0.0
H78 H 0.54517 0.25719 0.47353 0.0
H79 H 0.52099 0.276 0.24036 0.0
C80 C 0.55004 0.31458 0.35553 0.0
C81 C 0.53871 0.30757 0.28984 0.0
C82 C 0.55263 0.29656 0.42136 0.0
C83 C 0.54358 0.27094 0.4219 0.0
C84 C 0.53237 0.26338 0.35605 0.0
C85 C 0.52983 0.2818 0.29059 0.0
N86 N 0.52323 0.23754 0.35405 0.0
C87 C 0.52559 0.21754 0.41365 0.0
Nd88 Nd 0.01541 0.01851 0.82942 0.0
Nd89 Nd 0.03481 0.03285 0.99169 0.0
C90 C 0.98873 0.99406 0.73344 0.0
C91 C 0.99175 0.97209 0.69773 0.0
C92 C 0.97534 0.96419 0.64296 0.0
C93 C 0.97793 0.94299 0.61061 0.0
C94 C 0.99689 0.92911 0.63285 0.0
C95 C 0.01329 0.93717 0.6879 0.0
C96 C 0.01081 0.95849 0.71955 0.0
C97 C 0.06643 0.03023 0.82361 0.0
C98 C 0.03838 0.9773 0.96064 0.0
C99 C 0.05547 0.05833 0.09601 0.0
C100 C 0.05257 0.08183 0.1246 0.0
C101 C 0.07187 0.10284 0.11206 0.0
C102 C 0.06965 0.1249 0.1401 0.0
C103 C 0.04812 0.12646 0.18207 0.0
C104 C 0.0287 0.10552 0.19383 0.0
C105 C 0.03086 0.08354 0.16541 0.0
C106 C 0.98587 0.01153 0.99092 0.0
C107 C 0.01565 0.07617 0.85554 0.0
O108 O 0.98445 0.98911 0.80903 0.0
O109 O 0.00465 0.01502 0.70962 0.0
O110 O 0.0538 0.02489 0.76495 0.0
O111 O 0.05163 0.02981 0.87924 0.0
O112 O 0.02333 0.98154 0.90336 0.0
O113 O 0.04808 0.99493 0.99974 0.0
O114 O 0.06489 0.06111 0.0252 0.0
O115 O 0.03752 0.03881 0.11332 0.0
O116 O 0.99952 0.00743 0.05031 0.0
O117 O 0.99794 0.02747 0.9363 0.0
O118 O 0.02529 0.06988 0.92358 0.0
O119 O 0.00929 0.05988 0.80845 0.0
H120 H 0.96045 0.97434 0.62541 0.0
H121 H 0.96485 0.93725 0.56893 0.0
H122 H 0.02831 0.92724 0.70565 0.0
H123 H 0.02381 0.96442 0.76113 0.0
H124 H 0.08885 0.10211 0.08109 0.0
H125 H 0.08508 0.14051 0.13058 0.0
H126 H 0.01173 0.10614 0.22497 0.0
H127 H 0.01552 0.06784 0.17589 0.0
Nd128 Nd 0.53003 0.01039 0.86563 0.0
Nd129 Nd 0.5297 0.05062 0.97942 0.0
C130 C 0.52983 0.97246 0.79158 0.0
C131 C 0.54876 0.96772 0.73876 0.0
C132 C 0.54915 0.94328 0.72507 0.0
C133 C 0.56817 0.93888 0.67801 0.0
C134 C 0.58695 0.95893 0.64394 0.0
C135 C 0.58645 0.98333 0.65832 0.0
C136 C 0.56761 0.98765 0.70548 0.0
C137 C 0.53944 0.06061 0.79662 0.0
C138 C 0.58217 0.03679 0.92508 0.0
C139 C 0.52425 0.09134 0.03407 0.0
C140 C 0.50342 0.09704 0.07778 0.0
C141 C 0.47908 0.0918 0.0538 0.0
C142 C 0.45918 0.09411 0.10084 0.0
C143 C 0.4632 0.10143 0.17305 0.0
C144 C 0.48756 0.10746 0.19576 0.0
C145 C 0.50749 0.10536 0.1484 0.0
C146 C 0.52743 1.00228 0.06465 0.0
C147 C 0.47673 0.02085 0.93253 0.0
O148 O 0.53613 0.97144 0.86366 0.0
O149 O 0.51922 0.99193 0.76573 0.0
O150 O 0.54988 0.0435 0.77329 0.0
O151 O 0.52402 0.05062 0.85213 0.0
O152 O 0.57002 0.01688 0.90048 0.0
O153 O 0.57123 0.05413 0.94883 0.0
O154 O 0.52076 0.08923 0.96164 0.0
O155 O 0.53559 0.07386 0.07126 0.0
O156 O 0.52719 0.022 0.09616 0.0
O157 O 0.52825 0.00909 0.99212 0.0
O158 O 0.48835 0.03773 0.9708 0.0
O159 O 0.48829 0.00774 0.89144 0.0
H160 H 0.5349 0.92762 0.75118 0.0
H161 H 0.5681 0.9199 0.66766 0.0
H162 H 0.60089 0.99906 0.63403 0.0
H163 H 0.56794 0.00657 0.71668 0.0
H164 H 0.47531 0.08506 1e-05 0.0
H165 H 0.44059 0.08908 0.0823 0.0
H166 H 0.49117 0.11333 0.25092 0.0
H167 H 0.52606 0.10938 0.16818 0.0
Nd168 Nd 0.51605 0.53125 0.97959 0.0
Nd169 Nd 0.54471 0.52291 0.84086 0.0
C170 C 0.48584 0.54876 0.0655 0.0
C171 C 0.48676 0.57438 0.08149 0.0
C172 C 0.46494 0.58339 0.09424 0.0
C173 C 0.46602 0.60804 0.10783 0.0
C174 C 0.48896 0.62382 0.10921 0.0
C175 C 0.51071 0.61495 0.09428 0.0
C176 C 0.50962 0.59051 0.07998 0.0
C177 C 0.56532 0.53171 0.00183 0.0
C178 C 0.54051 0.5803 0.84227 0.0
C179 C 0.57502 0.50565 0.75458 0.0
C180 C 0.5746 0.48002 0.73943 0.0
C181 C 0.59664 0.47171 0.72459 0.0
C182 C 0.59605 0.44708 0.71147 0.0
C183 C 0.57338 0.43061 0.71271 0.0
C184 C 0.55143 0.43879 0.72985 0.0
C185 C 0.55205 0.46322 0.74362 0.0
C186 C 0.49542 0.52263 0.81898 0.0
C187 C 0.52033 0.47384 0.97799 0.0
O188 O 0.48172 0.54649 0.99362 0.0
O189 O 0.50335 0.53687 0.09453 0.0
O190 O 0.54817 0.52245 0.05611 0.0
O191 O 0.5564 0.54183 0.94063 0.0
O192 O 0.52411 0.57079 0.9005 0.0
O193 O 0.55383 0.56599 0.81298 0.0
O194 O 0.57935 0.5083 0.82605 0.0
O195 O 0.55708 0.51695 0.72599 0.0
O196 O 0.51255 0.53202 0.76472 0.0
O197 O 0.50438 0.51233 0.8798 0.0
O198 O 0.53674 0.4834 0.91984 0.0
O199 O 0.50699 0.4881 0.00743 0.0
H200 H 0.44714 0.57132 0.0942 0.0
H201 H 0.44904 0.61449 0.11967 0.0
H202 H 0.52858 0.62689 0.09447 0.0
H203 H 0.52667 0.58416 0.0682 0.0
H204 H 0.61422 0.48431 0.72251 0.0
H205 H 0.61318 0.44118 0.69781 0.0
H206 H 0.53377 0.42633 0.73166 0.0
H207 H 0.53486 0.46907 0.75696 0.0
Nd208 Nd 0.02801 0.54694 0.83617 0.0
Nd209 Nd 0.02704 0.50957 0.99328 0.0
C210 C 0.02056 0.58687 0.73639 0.0
C211 C 1.00005 0.5908 0.68465 0.0
C212 C 0.97539 0.58476 0.71419 0.0
C213 C 0.95596 0.58612 0.66422 0.0
C214 C 0.96072 0.59336 0.58361 0.0
C215 C 0.98536 0.59997 0.55416 0.0
C216 C 0.00485 0.59877 0.60432 0.0
C217 C 0.02353 0.4983 0.80442 0.0
C218 C 0.97488 0.51518 0.9199 0.0
C219 C 0.03611 0.47502 0.1108 0.0
C220 C 0.05837 0.47089 0.15335 0.0
C221 C 0.0818 0.4762 0.11487 0.0
C222 C 0.10308 0.47557 0.15727 0.0
C223 C 0.10129 0.46973 0.23887 0.0
C224 C 0.07774 0.46339 0.2769 0.0
C225 C 0.05649 0.464 0.23448 0.0
C226 C 0.0216 0.55802 0.00543 0.0
C227 C 0.08087 0.53717 0.90142 0.0
O228 O 0.0152 0.58365 0.81107 0.0
O229 O 0.03468 0.57138 0.71913 0.0
O230 O 0.02455 0.51855 0.75179 0.0
O231 O 0.02478 0.50454 0.87039 0.0
O232 O 0.98679 0.53539 0.8725 0.0
O233 O 0.98641 0.49966 0.96694 0.0
O234 O 0.03583 0.47158 0.03881 0.0
O235 O 0.02754 0.49525 0.11982 0.0
O236 O 0.00919 0.53763 0.04799 0.0
O237 O 0.03673 0.5524 0.95873 0.0
O238 O 0.06868 0.5212 0.96094 0.0
O239 O 0.06971 0.55049 0.84658 0.0
H240 H 0.97098 0.57828 0.77577 0.0
H241 H 0.93718 0.58058 0.68852 0.0
H242 H 0.98954 0.60576 0.49225 0.0
H243 H 0.02367 0.60344 0.5802 0.0
H244 H 0.08376 0.48164 0.05224 0.0
H245 H 0.12093 0.4807 0.12635 0.0
H246 H 0.07576 0.45844 0.33967 0.0
H247 H 0.0386 0.45989 0.26523 0.0
C248 C 0.21228 0.07478 0.7611 0.0
C249 C 0.22306 0.05359 0.75729 0.0
C250 C 0.18757 0.07199 0.78787 0.0
C251 C 0.1734 0.04739 0.81056 0.0
C252 C 0.18504 0.026 0.81326 0.0
C253 C 0.20978 0.02937 0.78602 0.0
C254 C 0.17603 0.09531 0.78434 0.0
C255 C 0.17075 0.99946 0.83755 0.0
C256 C 0.10661 0.03808 0.88969 0.0
C257 C 0.0937 0.03588 0.82223 0.0
C258 C 0.13266 0.04211 0.88727 0.0
C259 C 0.14589 0.04396 0.81577 0.0
C260 C 0.13277 0.04214 0.74753 0.0
C261 C 0.10693 0.03807 0.75174 0.0
C262 C 0.14597 0.04391 0.96118 0.0
C263 C 0.14601 0.04416 0.66984 0.0
H264 H 0.22261 0.09351 0.73802 0.0
H265 H 0.21816 0.01301 0.78223 0.0
H266 H 0.16455 0.09743 0.73283 0.0
H267 H 0.16375 0.09362 0.8365 0.0
H268 H 0.1902 0.11271 0.77954 0.0
H269 H 0.18317 0.9853 0.84955 0.0
H270 H 0.15871 0.99795 0.89012 0.0
H271 H 0.15866 0.99467 0.79034 0.0
H272 H 0.09639 0.03622 0.94438 0.0
H273 H 0.09702 0.03641 0.6994 0.0
H274 H 0.16007 0.06142 0.95295 0.0
H275 H 0.15583 0.02769 0.97615 0.0
H276 H 0.13314 0.04385 0.0108 0.0
H277 H 0.15899 0.06244 0.65509 0.0
H278 H 0.13307 0.04281 0.62213 0.0
H279 H 0.15706 0.02883 0.67271 0.0
C280 C 0.51436 0.17221 0.46859 0.0
C281 C 0.52768 0.19604 0.47315 0.0
C282 C 0.51656 0.15088 0.52467 0.0
C283 C 0.53245 0.15363 0.58666 0.0
C284 C 0.54572 0.17787 0.59172 0.0
C285 C 0.54324 0.19884 0.53449 0.0
C286 C 0.50214 0.12538 0.517 0.0
C287 C 0.56271 0.1816 0.65705 0.0
C288 C 0.5216 0.10019 0.76268 0.0
C289 C 0.53931 0.08574 0.74808 0.0
C290 C 0.51963 0.12278 0.71191 0.0
C291 C 0.53565 0.13097 0.64474 0.0
C292 C 0.55406 0.11683 0.63109 0.0
C293 C 0.55569 0.0944 0.68303 0.0
C294 C 0.49985 0.13738 0.72876 0.0
C295 C 0.5715 0.12491 0.56019 0.0
H296 H 0.50236 0.17021 0.42074 0.0
H297 H 0.5536 0.21735 0.53755 0.0
H298 H 0.51505 0.11224 0.51067 0.0
H299 H 0.4903 0.11704 0.57029 0.0
H300 H 0.49025 0.12655 0.46624 0.0
H301 H 0.57099 0.20179 0.65418 0.0
H302 H 0.55245 0.17436 0.71388 0.0
H303 H 0.57783 0.1706 0.65494 0.0
H304 H 0.50871 0.09343 0.81238 0.0
H305 H 0.56941 0.08327 0.67157 0.0
H306 H 0.48602 0.13688 0.68339 0.0
H307 H 0.50799 0.15752 0.72702 0.0
H308 H 0.49016 0.12955 0.78634 0.0
H309 H 0.56089 0.12446 0.50699 0.0
H310 H 0.58555 0.11251 0.56003 0.0
H311 H 0.58116 0.14466 0.55707 0.0
C312 C 0.35536 0.54161 0.75456 0.0
C313 C 0.34272 0.52175 0.7224 0.0
C314 C 0.3794 0.54108 0.78019 0.0
C315 C 0.39101 0.52032 0.77236 0.0
C316 C 0.37765 0.49963 0.74346 0.0
C317 C 0.35362 0.50064 0.71868 0.0
C318 C 0.3929 0.5634 0.81125 0.0
C319 C 0.38928 0.47717 0.73398 0.0
C320 C 0.46068 0.53269 0.73615 0.0
C321 C 0.46874 0.52226 0.8083 0.0
C322 C 0.43548 0.53234 0.72414 0.0
C323 C 0.41784 0.52143 0.78601 0.0
C324 C 0.42591 0.51116 0.85943 0.0
C325 C 0.45129 0.51161 0.86964 0.0
C326 C 0.42771 0.54343 0.64483 0.0
C327 C 0.40772 0.49957 0.92692 0.0
H328 H 0.34689 0.55804 0.75651 0.0
H329 H 0.3438 0.48544 0.69285 0.0
H330 H 0.40187 0.55689 0.86569 0.0
H331 H 0.40769 0.57417 0.76837 0.0
H332 H 0.38039 0.5764 0.82286 0.0
H333 H 0.37567 0.46159 0.71827 0.0
H334 H 0.40417 0.48313 0.6876 0.0
H335 H 0.39783 0.46981 0.78834 0.0
H336 H 0.47411 0.54101 0.68865 0.0
H337 H 0.45747 0.50358 0.92562 0.0
H338 H 0.41701 0.55863 0.64945 0.0
H339 H 0.41547 0.52862 0.62083 0.0
H340 H 0.44373 0.55143 0.60317 0.0
H341 H 0.39613 0.51343 0.93791 0.0
H342 H 0.41702 0.49329 0.98101 0.0
H343 H 0.39515 0.48302 0.91272 0.0
C344 C 0.00527 0.36156 0.67631 0.0
C345 C 0.02802 0.3565 0.65248 0.0
C346 C 0.00392 0.38282 0.71064 0.0
C347 C 0.02586 0.39961 0.72081 0.0
C348 C 0.04896 0.39381 0.69975 0.0
C349 C 0.04973 0.3724 0.66571 0.0
C350 C 0.9789 0.38808 0.73204 0.0
C351 C 0.07284 0.41102 0.70904 0.0
C352 C 0.02245 0.46959 0.70802 0.0
C353 C 0.02325 0.47256 0.78592 0.0
C354 C 0.02309 0.44606 0.68666 0.0
C355 C 0.02457 0.4246 0.74445 0.0
C356 C 0.02514 0.42737 0.82354 0.0
C357 C 0.02447 0.45129 0.84335 0.0
C358 C 0.02245 0.44429 0.60168 0.0
C359 C 0.02671 0.4051 0.88713 0.0
H360 H 0.98843 0.34947 0.66525 0.0
H361 H 0.06735 0.36871 0.64641 0.0
H362 H 0.97861 0.39234 0.79152 0.0
H363 H 0.97503 0.40496 0.69163 0.0
H364 H 0.9639 0.37189 0.72915 0.0
H365 H 0.08925 0.40254 0.69818 0.0
H366 H 0.07405 0.42918 0.66751 0.0
H367 H 0.07343 0.41543 0.76838 0.0
H368 H 0.0215 0.48585 0.66305 0.0
H369 H 0.02512 0.45336 0.9036 0.0
H370 H 0.00656 0.42987 0.59211 0.0
H371 H 0.03947 0.43815 0.58325 0.0
H372 H 0.02093 0.4626 0.56391 0.0
H373 H 0.01104 0.38953 0.88488 0.0
H374 H 0.02646 0.41011 0.94577 0.0
H375 H 0.04394 0.39777 0.87825 0.0
C376 C 0.84732 0.00972 0.10828 0.0
C377 C 0.83079 0.988 0.10015 0.0
C378 C 0.87176 0.01401 0.07788 0.0
C379 C 0.87976 0.99604 0.0387 0.0
C380 C 0.86251 0.9749 0.02592 0.0
C381 C 0.83818 0.97103 0.05741 0.0
C382 C 0.88948 0.03678 0.09293 0.0
C383 C 0.87016 0.95545 0.98382 0.0
C384 C 0.94409 0.01536 0.93915 0.0
C385 C 0.95858 1.00509 0.99761 0.0
C386 C 0.91822 0.01174 0.95007 0.0
C387 C 0.90669 0.99764 0.02116 0.0
C388 C 0.92123 0.98631 0.07874 0.0
C389 C 0.94694 0.99012 0.06613 0.0
C390 C 0.90336 0.02385 0.88691 0.0
C391 C 0.90976 0.97106 0.15533 0.0
H392 H 0.84155 0.02264 0.14226 0.0
H393 H 0.82534 0.95407 0.05204 0.0
H394 H 0.90293 0.03049 0.13545 0.0
H395 H 0.90011 0.04683 0.03873 0.0
H396 H 0.87984 0.05031 0.11644 0.0
H397 H 0.85396 0.94255 0.96782 0.0
H398 H 0.88156 0.96479 0.93037 0.0
H399 H 0.88161 0.94392 0.02173 0.0
H400 H 0.95301 0.02688 0.88589 0.0
H401 H 0.95804 0.98199 0.11129 0.0
H402 H 0.89599 0.03953 0.9062 0.0
H403 H 0.88732 0.00994 0.87528 0.0
H404 H 0.9146 0.03158 0.83194 0.0
H405 H 0.90132 0.98341 0.18774 0.0
H406 H 0.92347 0.96244 0.19228 0.0
H407 H 0.89482 0.95574 0.14528 0.0
C408 C 0.51846 0.86305 0.3196 0.0
C409 C 0.54174 0.85961 0.34555 0.0
C410 C 0.51552 0.88522 0.26836 0.0
C411 C 0.53642 0.90424 0.24286 0.0
C412 C 0.56014 0.90028 0.26713 0.0
C413 C 0.56249 0.87798 0.31872 0.0
C414 C 0.48995 0.8887 0.24385 0.0
C415 C 0.58292 0.91999 0.24138 0.0
C416 C 0.53203 0.957 0.07116 0.0
C417 C 0.52851 0.97673 0.1088 0.0
C418 C 0.53446 0.93317 0.11383 0.0
C419 C 0.53323 0.92905 0.19608 0.0
C420 C 0.52933 0.94888 0.23427 0.0
C421 C 0.52704 0.97245 0.19016 0.0
C422 C 0.53883 0.91258 0.07102 0.0
C423 C 0.5279 0.94531 0.32183 0.0
H424 H 0.50248 0.84867 0.3408 0.0
H425 H 0.58048 0.87516 0.33934 0.0
H426 H 0.4845 0.90452 0.26795 0.0
H427 H 0.48978 0.89381 0.17967 0.0
H428 H 0.47594 0.8714 0.26411 0.0
H429 H 0.60013 0.91215 0.25307 0.0
H430 H 0.58294 0.9279 0.17843 0.0
H431 H 0.58311 0.93583 0.27316 0.0
H432 H 0.53328 0.9603 0.00851 0.0
H433 H 0.52434 0.98768 0.21962 0.0
H434 H 0.52447 0.89549 0.08949 0.0
H435 H 0.55694 0.90708 0.08575 0.0
H436 H 0.53865 0.9186 0.007 0.0
H437 H 0.51316 0.92912 0.34632 0.0
H438 H 0.52408 0.9624 0.34251 0.0
H439 H 0.54558 0.9408 0.34518 0.0
C440 C 0.70645 0.5174 0.07347 0.0
C441 C 0.71821 0.53813 0.10349 0.0
C442 C 0.68237 0.51666 0.04699 0.0
C443 C 0.66983 0.53701 0.05186 0.0
C444 C 0.68229 0.55853 0.07871 0.0
C445 C 0.70638 0.5588 0.10428 0.0
C446 C 0.66986 0.4935 0.01803 0.0
C447 C 0.66965 0.58059 0.08513 0.0
C448 C 0.6095 0.54301 0.95182 0.0
C449 C 0.59201 0.53255 0.0132 0.0
C450 C 0.63491 0.5441 0.96281 0.0
C451 C 0.64298 0.53474 0.03712 0.0
C452 C 0.62531 0.52394 0.09897 0.0
C453 C 0.60007 0.52288 0.08614 0.0
C454 C 0.65313 0.55552 0.89527 0.0
C455 C 0.63308 0.51384 0.17922 0.0
H456 H 0.71566 0.50133 0.07375 0.0
H457 H 0.71553 0.5747 0.12842 0.0
H458 H 0.65519 0.48262 0.06119 0.0
H459 H 0.66085 0.49904 0.96287 0.0
H460 H 0.68302 0.4809 0.00846 0.0
H461 H 0.68258 0.59681 0.10004 0.0
H462 H 0.66117 0.5871 0.02978 0.0
H463 H 0.65455 0.57452 0.13087 0.0
H464 H 0.60332 0.55044 0.89521 0.0
H465 H 0.58662 0.5147 0.13369 0.0
H466 H 0.66547 0.54203 0.88698 0.0
H467 H 0.66496 0.57279 0.90769 0.0
H468 H 0.64384 0.56063 0.84027 0.0
H469 H 0.64443 0.49904 0.17654 0.0
H470 H 0.61704 0.50564 0.22064 0.0
H471 H 0.64469 0.52929 0.20232 0.0
C472 C 0.03823 0.68048 0.20176 0.0
C473 C 0.02324 0.69814 0.17378 0.0
C474 C 0.03908 0.65923 0.16714 0.0
C475 C 0.02454 0.65542 0.10272 0.0
C476 C 0.01003 0.67382 0.07253 0.0
C477 C 0.00945 0.69488 0.10868 0.0
C478 C 0.05471 0.64022 0.20195 0.0
C479 C 0.9943 0.67072 0.004 0.0
C480 C 0.03885 0.60497 0.98956 0.0
C481 C 0.02158 0.58369 0.02418 0.0
C482 C 0.03967 0.62861 0.01277 0.0
C483 C 0.02286 0.63111 0.0721 0.0
C484 C 0.00497 0.60979 0.10541 0.0
C485 C 0.00454 0.58653 0.08106 0.0
C486 C 0.05891 0.65079 0.97513 0.0
C487 C 0.9866 0.6113 0.16862 0.0
H488 H 0.0487 0.68282 0.25266 0.0
H489 H 0.99763 0.70838 0.08741 0.0
H490 H 0.04259 0.62208 0.22757 0.0
H491 H 0.06687 0.63632 0.15622 0.0
H492 H 0.06636 0.64681 0.24799 0.0
H493 H 0.98618 0.68782 0.98232 0.0
H494 H 0.00539 0.66668 0.95587 0.0
H495 H 0.97906 0.65436 0.02102 0.0
H496 H 0.05206 0.60302 0.94548 0.0
H497 H 0.991 0.5703 0.10796 0.0
H498 H 0.07203 0.6564 0.01892 0.0
H499 H 0.05006 0.66732 0.95291 0.0
H500 H 0.06949 0.64638 0.92639 0.0
H501 H 0.99653 0.61579 0.22037 0.0
H502 H 0.97325 0.59335 0.18647 0.0
H503 H 0.97614 0.62676 0.14868 0.0
C504 C 0.99815 0.2206 0.71223 0.0
C505 C 0.02203 0.2346 0.6954 0.0
C506 C 0.99443 0.1952 0.7506 0.0
C507 C 0.01515 0.1836 0.77138 0.0
C508 C 0.0391 0.19855 0.76205 0.0
C509 C 0.04221 0.22396 0.72453 0.0
C510 C 0.96855 0.18017 0.76152 0.0
C511 C 0.06174 0.18706 0.78342 0.0
C512 C 0.01052 0.11737 0.89094 0.0
C513 C 0.01233 0.1029 0.83307 0.0
C514 C 0.01026 0.14343 0.87189 0.0
C515 C 0.0123 0.1555 0.79298 0.0
C516 C 0.01328 0.14086 0.73413 0.0
C517 C 0.01304 0.11467 0.75493 0.0
C518 C 0.00869 0.15816 0.93631 0.0
C519 C 0.0157 0.15305 0.64915 0.0
H520 H 0.98258 0.22866 0.68826 0.0
H521 H 0.06071 0.23463 0.70992 0.0
H522 H 0.96544 0.16831 0.71627 0.0
H523 H 0.9658 0.1673 0.81893 0.0
H524 H 0.95447 0.19268 0.75666 0.0
H525 H 0.07853 0.20173 0.78176 0.0
H526 H 0.05911 0.17513 0.84228 0.0
H527 H 0.06489 0.17469 0.74187 0.0
H528 H 0.0097 0.10837 0.95162 0.0
H529 H 0.01457 0.10365 0.71006 0.0
H530 H 0.99425 0.17012 0.92511 0.0
H531 H 0.0265 0.17101 0.93847 0.0
H532 H 0.0045 0.14559 0.99405 0.0
H533 H 0.01549 0.13898 0.61054 0.0
H534 H 0.03326 0.16683 0.63713 0.0
H535 H 1.00043 0.16369 0.63415 0.0
C536 C 0.36244 0.07499 0.8027 0.0
C537 C 0.34116 0.05835 0.78983 0.0
C538 C 0.3816 0.06605 0.84476 0.0
C539 C 0.37897 0.03997 0.87729 0.0
C540 C 0.35597 0.02393 0.87479 0.0
C541 C 0.33735 0.03324 0.82999 0.0
C542 C 0.40569 0.08399 0.84607 0.0
C543 C 0.35187 0.99642 0.9132 0.0
C544 C 0.43888 0.016 0.85697 0.0
C545 C 0.44977 0.01957 0.92668 0.0
C546 C 0.41509 0.02112 0.84213 0.0
C547 C 0.40152 0.02915 0.8996 0.0
C548 C 0.41149 0.03027 0.97312 0.0
C549 C 0.43573 0.02598 0.98524 0.0
C550 C 0.40547 0.02015 0.76222 0.0
C551 C 0.39739 0.03762 0.0374 0.0
H552 H 0.36517 0.09455 0.77284 0.0
H553 H 0.32084 0.02032 0.82087 0.0
H554 H 0.41213 0.08265 0.90602 0.0
H555 H 0.42006 0.0787 0.81017 0.0
H556 H 0.4041 0.10397 0.82308 0.0
H557 H 0.33188 0.98836 0.92277 0.0
H558 H 0.36022 0.98548 0.87554 0.0
H559 H 0.36081 0.99394 0.96978 0.0
H560 H 0.44971 0.01125 0.81134 0.0
H561 H 0.44403 0.02861 0.03957 0.0
H562 H 0.40359 0.03947 0.7326 0.0
H563 H 0.38692 0.00815 0.76671 0.0
H564 H 0.41786 0.01258 0.72528 0.0
H565 H 0.40108 0.05849 0.03183 0.0
H566 H 0.40335 0.02937 0.0953 0.0
H567 H 0.37718 0.03138 0.03485 0.0
C568 C 0.58434 0.32401 0.48182 0.0
C569 C 0.56278 0.30572 0.49073 0.0
C570 C 0.58936 0.34024 0.53508 0.0
C571 C 0.57249 0.33779 0.59889 0.0
C572 C 0.553 0.31671 0.6147 0.0
C573 C 0.54819 0.30091 0.55977 0.0
C574 C 0.61065 0.36214 0.51666 0.0
C575 C 0.53537 0.31276 0.68432 0.0
C576 C 0.58625 0.38819 0.7241 0.0
C577 C 0.57225 0.40591 0.68869 0.0
C578 C 0.58565 0.36512 0.69852 0.0
C579 C 0.57139 0.36028 0.63458 0.0
C580 C 0.55698 0.3781 0.59959 0.0
C581 C 0.55743 0.40054 0.62766 0.0
C582 C 0.60081 0.34645 0.73863 0.0
C583 C 0.54172 0.37395 0.53052 0.0
H584 H 0.59587 0.32734 0.42894 0.0
H585 H 0.53164 0.28657 0.56718 0.0
H586 H 0.60347 0.37963 0.49254 0.0
H587 H 0.62033 0.36533 0.56991 0.0
H588 H 0.62419 0.35902 0.47333 0.0
H589 H 0.52531 0.29293 0.69861 0.0
H590 H 0.54532 0.3175 0.7358 0.0
H591 H 0.52158 0.32543 0.67164 0.0
H592 H 0.59759 0.39236 0.77174 0.0
H593 H 0.54678 0.41439 0.6 0.0
H594 H 0.61887 0.34928 0.70638 0.0
H595 H 0.59151 0.32665 0.74027 0.0
H596 H 0.60444 0.34918 0.79897 0.0
H597 H 0.55383 0.37208 0.48146 0.0
H598 H 0.53158 0.38971 0.51042 0.0
H599 H 0.52808 0.35615 0.54558 0.0
C600 C 0.22326 0.53587 0.80244 0.0
C601 C 0.22254 0.51143 0.78711 0.0
C602 C 0.20295 0.54203 0.83997 0.0
C603 C 0.1814 0.52346 0.86059 0.0
C604 C 0.18197 0.49807 0.85427 0.0
C605 C 0.20275 0.49231 0.81887 0.0
C606 C 0.20361 0.56899 0.84992 0.0
C607 C 0.15951 0.47757 0.87536 0.0
C608 C 0.12175 0.53181 0.95738 0.0
C609 C 0.1078 0.53801 0.89247 0.0
C610 C 0.14647 0.52885 0.94844 0.0
C611 C 0.15712 0.53116 0.87283 0.0
C612 C 0.14336 0.5384 0.80725 0.0
C613 C 0.11904 0.54214 0.81798 0.0
C614 C 0.16073 0.52218 0.01989 0.0
C615 C 0.15372 0.54059 0.72543 0.0
H616 H 0.23857 0.55073 0.7787 0.0
H617 H 0.20239 0.47327 0.80845 0.0
H618 H 0.19425 0.57906 0.8014 0.0
H619 H 0.19373 0.56966 0.90498 0.0
H620 H 0.22288 0.57926 0.8496 0.0
H621 H 0.16389 0.45842 0.8758 0.0
H622 H 0.15138 0.47799 0.93322 0.0
H623 H 0.14525 0.48086 0.83234 0.0
H624 H 0.11318 0.52878 0.01522 0.0
H625 H 0.10829 0.54671 0.76767 0.0
H626 H 0.15238 0.52722 0.07176 0.0
H627 H 0.18025 0.53194 0.01107 0.0
H628 H 0.16069 0.50152 0.03214 0.0
H629 H 0.17127 0.55437 0.71531 0.0
H630 H 0.14075 0.54671 0.68086 0.0
H631 H 0.15786 0.52202 0.71709 0.0
C632 C 0.01766 0.83015 0.08741 0.0
C633 C 0.038 0.8206 0.11998 0.0
C634 C 0.02018 0.85536 0.04847 0.0
C635 C 0.0437 0.87114 0.04091 0.0
C636 C 0.06476 0.86049 0.06432 0.0
C637 C 0.06162 0.83533 0.10443 0.0
C638 C 0.99722 0.86584 0.02409 0.0
C639 C 0.09027 0.87635 0.05448 0.0
C640 C 0.0464 0.93741 0.9234 0.0
C641 C 0.04344 0.95126 0.9819 0.0
C642 C 0.04783 0.91158 0.94151 0.0
C643 C 0.04557 0.89915 0.02012 0.0
C644 C 0.04346 0.91331 0.07965 0.0
C645 C 0.04274 0.93931 0.05975 0.0
C646 C 0.05069 0.89751 0.87623 0.0
C647 C 0.0407 0.90073 0.1643 0.0
H648 H 0.99935 0.8189 0.10083 0.0
H649 H 0.0773 0.82807 0.13076 0.0
H650 H 0.99306 0.87827 0.06431 0.0
H651 H 1.00009 0.87751 0.96486 0.0
H652 H 0.98095 0.85062 0.02503 0.0
H653 H 0.10486 0.86443 0.06135 0.0
H654 H 0.09304 0.88891 0.99654 0.0
H655 H 0.0925 0.88855 0.09896 0.0
H656 H 0.04729 0.94674 0.86311 0.0
H657 H 0.04026 0.94997 0.10492 0.0
H658 H 0.03248 0.88669 0.86574 0.0
H659 H 0.0634 0.8838 0.8913 0.0
H660 H 0.05775 0.91063 0.8213 0.0
H661 H 0.02362 0.88622 0.17459 0.0
H662 H 0.03974 0.91445 0.20346 0.0
H663 H 0.05645 0.89087 0.18023 0.0
C664 C 0.69468 0.97743 0.03421 0.0
C665 C 0.71558 0.99228 0.0575 0.0
C666 C 0.67607 0.98861 0.9958 0.0
C667 C 0.67896 0.01533 0.97745 0.0
C668 C 0.70175 0.03024 0.98998 0.0
C669 C 0.71978 0.01853 0.03116 0.0
C670 C 0.65212 0.97183 0.98404 0.0
C671 C 0.70617 0.05866 0.96667 0.0
C672 C 0.62379 0.03485 0.8715 0.0
C673 C 0.60885 0.0378 0.93346 0.0
C674 C 0.64795 0.03024 0.88306 0.0
C675 C 0.65671 0.02712 0.95915 0.0
C676 C 0.64203 0.03145 0.02106 0.0
C677 C 0.61842 0.03724 0.007 0.0
C678 C 0.66329 0.02704 0.81467 0.0
C679 C 0.65027 0.02769 0.10359 0.0
H680 H 0.69159 0.95709 0.05429 0.0
H681 H 0.73597 0.03007 0.04889 0.0
H682 H 0.63732 0.97485 0.02324 0.0
H683 H 0.6464 0.97669 0.92363 0.0
H684 H 0.65353 0.95144 0.9964 0.0
H685 H 0.72621 0.06671 0.96183 0.0
H686 H 0.6979 0.06457 0.91037 0.0
H687 H 0.69736 0.06682 0.01117 0.0
H688 H 0.61627 0.03528 0.81451 0.0
H689 H 0.60664 0.03918 0.05493 0.0
H690 H 0.66039 0.00678 0.80994 0.0
H691 H 0.68327 0.03339 0.82142 0.0
H692 H 0.65781 0.03782 0.75951 0.0
H693 H 0.6519 0.00756 0.12353 0.0
H694 H 0.63717 0.03282 0.14433 0.0
H695 H 0.66872 0.03926 0.10673 0.0
C696 C 0.48106 0.73357 0.33237 0.0
C697 C 0.50344 0.75069 0.32429 0.0
C698 C 0.47551 0.71701 0.28026 0.0
C699 C 0.49269 0.71791 0.21848 0.0
C700 C 0.51323 0.73793 0.20306 0.0
C701 C 0.51851 0.7541 0.25678 0.0
C702 C 0.45316 0.69627 0.29822 0.0
C703 C 0.53134 0.74023 0.13562 0.0
C704 C 0.50467 0.6534 0.19608 0.0
C705 C 0.49052 0.6486 0.13313 0.0
C706 C 0.50577 0.67611 0.22309 0.0
C707 C 0.49276 0.69478 0.18509 0.0
C708 C 0.47906 0.69038 0.11963 0.0
C709 C 0.47776 0.66707 0.09509 0.0
C710 C 0.52037 0.67975 0.29384 0.0
C711 C 0.46534 0.70991 0.07655 0.0
H712 H 0.46922 0.73127 0.38414 0.0
H713 H 0.53573 0.7675 0.25008 0.0
H714 H 0.44389 0.693 0.24436 0.0
H715 H 0.4591 0.67839 0.32549 0.0
H716 H 0.43959 0.70076 0.33886 0.0
H717 H 0.54253 0.75955 0.1208 0.0
H718 H 0.54409 0.72658 0.15119 0.0
H719 H 0.52162 0.73566 0.08359 0.0
H720 H 0.51434 0.63897 0.22573 0.0
H721 H 0.46693 0.66331 0.04601 0.0
H722 H 0.50805 0.68267 0.34085 0.0
H723 H 0.53493 0.69685 0.27948 0.0
H724 H 0.52933 0.6633 0.31649 0.0
H725 H 0.44733 0.70863 0.10764 0.0
H726 H 0.46165 0.70678 0.0166 0.0
H727 H 0.4758 0.72936 0.07347 0.0
C728 C 0.83374 0.51977 0.01908 0.0
C729 C 0.83619 0.54474 0.03131 0.0
C730 C 0.85297 0.51185 0.98136 0.0
C731 C 0.87523 0.52911 0.95821 0.0
C732 C 0.8763 0.55503 0.96106 0.0
C733 C 0.85646 0.5626 0.99592 0.0
C734 C 0.85037 0.48452 0.97323 0.0
C735 C 0.89951 0.57426 0.93638 0.0
C736 C 0.93645 0.50816 0.00234 0.0
C737 C 0.94783 0.51259 0.92811 0.0
C738 C 0.9122 0.51217 0.01261 0.0
C739 C 0.89867 0.51974 0.94666 0.0
C740 C 0.90936 0.52175 0.87126 0.0
C741 C 0.93408 0.51881 0.86289 0.0
C742 C 0.90194 0.51053 0.09423 0.0
C743 C 0.89544 0.52848 0.79914 0.0
H744 H 0.81797 0.50589 0.0452 0.0
H745 H 0.85805 0.58208 0.00354 0.0
H746 H 0.85966 0.48285 0.91819 0.0
H747 H 0.85925 0.47396 0.02197 0.0
H748 H 0.83065 0.47547 0.97455 0.0
H749 H 0.89685 0.59384 0.9387 0.0
H750 H 0.91453 0.56965 0.97512 0.0
H751 H 0.90571 0.57371 0.87639 0.0
H752 H 0.94721 0.5037 0.05271 0.0
H753 H 0.94292 0.52222 0.80527 0.0
H754 H 0.88409 0.49724 0.10465 0.0
H755 H 0.89841 0.52938 0.1019 0.0
H756 H 0.91471 0.5041 0.13903 0.0
H757 H 0.87517 0.52274 0.8102 0.0
H758 H 0.90132 0.51935 0.75196 0.0
H759 H 0.89966 0.54923 0.77794 0.0
C760 C 0.06202 0.24131 0.41165 0.0
C761 C 0.04035 0.25138 0.41592 0.0
C762 C 0.06411 0.22351 0.3642 0.0
C763 C 0.04393 0.2154 0.32012 0.0
C764 C 0.02268 0.22696 0.31984 0.0
C765 C 0.02111 0.24475 0.36805 0.0
C766 C 0.08713 0.21185 0.3665 0.0
C767 C 1.0008 0.21906 0.27351 0.0
C768 C 0.05469 0.17392 0.17302 0.0
C769 C 0.04624 0.14945 0.21573 0.0
C770 C 0.05359 0.19559 0.20531 0.0
C771 C 0.04397 0.19282 0.28247 0.0
C772 C 0.03518 0.16817 0.32554 0.0
C773 C 0.03637 0.1469 0.2917 0.0
C774 C 0.06298 0.22144 0.15718 0.0
C775 C 0.02496 0.16421 0.40823 0.0
H776 H 0.0767 0.246 0.44994 0.0
H777 H 0.0041 0.25202 0.37268 0.0
H778 H 0.08283 0.19205 0.39876 0.0
H779 H 0.0938 0.2113 0.30692 0.0
H780 H 0.10224 0.22236 0.39547 0.0
H781 H 0.98743 0.23231 0.26999 0.0
H782 H 0.00689 0.21799 0.21376 0.0
H783 H 0.99113 0.19991 0.30137 0.0
H784 H 0.06208 0.17615 0.114 0.0
H785 H 0.03008 0.12813 0.32565 0.0
H786 H 0.07894 0.23107 0.18486 0.0
H787 H 0.04843 0.23331 0.1545 0.0
H788 H 0.06885 0.22049 0.09702 0.0
H789 H 0.03944 0.17184 0.44531 0.0
H790 H 0.01825 0.14392 0.43315 0.0
H791 H 0.00945 0.17467 0.41084 0.0
C792 C 0.34206 0.07069 0.45263 0.0
C793 C 0.34347 0.08695 0.50624 0.0
C794 C 0.35998 0.07481 0.39156 0.0
C795 C 0.37945 0.09589 0.38364 0.0
C796 C 0.37978 0.1134 0.43428 0.0
C797 C 0.36191 0.10856 0.49557 0.0
C798 C 0.35913 0.05553 0.33945 0.0
C799 C 0.39993 0.13635 0.42694 0.0
C800 C 0.4418 0.08857 0.30433 0.0
C801 C 0.442 0.10097 0.22691 0.0
C802 C 0.4215 0.08675 0.3556 0.0
C803 C 0.401 0.09791 0.3291 0.0
C804 C 0.40122 0.11079 0.25123 0.0
C805 C 0.42166 0.11197 0.20076 0.0
C806 C 0.4219 0.07258 0.43796 0.0
C807 C 0.37992 0.12333 0.22142 0.0
H808 H 0.32794 0.05383 0.4616 0.0
H809 H 0.36294 0.1211 0.53726 0.0
H810 H 0.36178 0.06499 0.27759 0.0
H811 H 0.37443 0.04477 0.35268 0.0
H812 H 0.34141 0.04191 0.34734 0.0
H813 H 0.39555 0.14991 0.46309 0.0
H814 H 0.4175 0.13032 0.44579 0.0
H815 H 0.40298 0.14626 0.36555 0.0
H816 H 0.45733 0.07971 0.32437 0.0
H817 H 0.42186 0.12167 0.14097 0.0
H818 H 0.40583 0.05689 0.45044 0.0
H819 H 0.42033 0.0854 0.47948 0.0
H820 H 0.43905 0.06457 0.44886 0.0
H821 H 0.36274 0.10905 0.22671 0.0
H822 H 0.38316 0.13301 0.15974 0.0
H823 H 0.3768 0.13743 0.25717 0.0
C824 C 0.55429 0.34872 0.20108 0.0
C825 C 0.53525 0.32786 0.22381 0.0
C826 C 0.55 0.37076 0.1524 0.0
C827 C 0.52621 0.37178 0.12375 0.0
C828 C 0.50751 0.34997 0.14053 0.0
C829 C 0.51219 0.32827 0.19101 0.0
C830 C 0.5705 0.39354 0.13631 0.0
C831 C 0.48217 0.35006 0.10895 0.0
C832 C 0.51078 0.43792 0.09082 0.0
C833 C 0.51801 0.44667 0.01231 0.0
C834 C 0.51224 0.41309 0.12701 0.0
C835 C 0.52058 0.39646 0.08309 0.0
C836 C 0.52623 0.40471 0.00248 0.0
C837 C 0.52519 0.42982 0.96828 0.0
C838 C 0.50642 0.40521 0.21338 0.0
C839 C 0.53455 0.38745 0.95305 0.0
H840 H 0.57232 0.34829 0.22487 0.0
H841 H 0.49738 0.31223 0.20822 0.0
H842 H 0.57334 0.40085 0.07297 0.0
H843 H 0.56531 0.40891 0.16332 0.0
H844 H 0.58827 0.38919 0.15953 0.0
H845 H 0.4712 0.33065 0.11616 0.0
H846 H 0.47203 0.36147 0.14011 0.0
H847 H 0.48356 0.35888 0.04644 0.0
H848 H 0.50532 0.4509 0.1251 0.0
H849 H 0.53054 0.43642 0.90725 0.0
H850 H 0.52352 0.40192 0.24339 0.0
H851 H 0.49304 0.38718 0.22611 0.0
H852 H 0.49867 0.41974 0.23813 0.0
H853 H 0.55371 0.3849 0.96637 0.0
H854 H 0.53421 0.39521 0.88999 0.0
H855 H 0.52268 0.36847 0.96609 0.0
C856 C 0.20768 0.46642 0.54068 0.0
C857 C 0.22461 0.48922 0.52749 0.0
C858 C 0.18984 0.46117 0.48686 0.0
C859 C 0.18882 0.4793 0.41862 0.0
C860 C 0.20712 0.50144 0.40218 0.0
C861 C 0.2249 0.50611 0.45687 0.0
C862 C 0.17088 0.4372 0.50622 0.0
C863 C 0.20666 0.52124 0.33014 0.0
C864 C 0.14462 0.46234 0.26357 0.0
C865 C 0.12384 0.47184 0.28448 0.0
C866 C 0.16603 0.46463 0.30639 0.0
C867 C 0.16667 0.47689 0.37109 0.0
C868 C 0.14581 0.4867 0.39192 0.0
C869 C 0.12468 0.48403 0.34846 0.0
C870 C 0.18785 0.45378 0.28295 0.0
C871 C 0.14577 0.50008 0.46021 0.0
H872 H 0.20757 0.45329 0.59519 0.0
H873 H 0.23786 0.52384 0.44688 0.0
H874 H 0.15298 0.44187 0.52343 0.0
H875 H 0.16789 0.42804 0.45477 0.0
H876 H 0.17643 0.42343 0.55474 0.0
H877 H 0.22408 0.5353 0.32 0.0
H878 H 0.20354 0.51235 0.27823 0.0
H879 H 0.19114 0.53143 0.33646 0.0
H880 H 0.14401 0.4528 0.21434 0.0
H881 H 0.10888 0.49187 0.36395 0.0
H882 H 0.19184 0.43899 0.3311 0.0
H883 H 0.20453 0.46875 0.27172 0.0
H884 H 0.18461 0.44531 0.23015 0.0
H885 H 0.14867 0.48706 0.5144 0.0
H886 H 0.1282 0.50701 0.46778 0.0
H887 H 0.16119 0.51645 0.45239 0.0
C888 C 0.04001 0.82573 0.4177 0.0
C889 C 0.02048 0.80795 0.39924 0.0
C890 C 0.03601 0.84323 0.46421 0.0
C891 C 0.01181 0.84306 0.49336 0.0
C892 C 0.99232 0.82389 0.47982 0.0
C893 C 0.99688 0.80657 0.4328 0.0
C894 C 0.05741 0.86314 0.47701 0.0
C895 C 0.9663 0.82281 0.51027 0.0
C896 C 0.00533 0.88452 0.64415 0.0
C897 C 0.99981 0.9066 0.59798 0.0
C898 C 0.00865 0.86346 0.61153 0.0
C899 C 0.00666 0.86447 0.53053 0.0
C900 C 1.00091 0.88662 0.48378 0.0
C901 C 0.99747 0.90728 0.518 0.0
C902 C 0.01458 0.84024 0.66364 0.0
C903 C 0.99894 0.88876 0.39703 0.0
H904 H 0.05826 0.82698 0.39138 0.0
H905 H 0.98165 0.79317 0.41776 0.0
H906 H 0.05503 0.88182 0.44352 0.0
H907 H 0.05796 0.86472 0.53918 0.0
H908 H 0.07542 0.85899 0.45825 0.0
H909 H 0.95402 0.80494 0.50428 0.0
H910 H 0.9661 0.8246 0.57231 0.0
H911 H 0.95864 0.83892 0.47749 0.0
H912 H 0.00692 0.88364 0.70611 0.0
H913 H 0.99354 0.9243 0.48158 0.0
H914 H 0.03305 0.83691 0.64639 0.0
H915 H 1.00099 0.82333 0.65703 0.0
H916 H 0.01449 0.842 0.72581 0.0
H917 H 0.0169 0.88729 0.37018 0.0
H918 H 0.99363 0.90692 0.36911 0.0
H919 H 0.98505 0.87295 0.3842 0.0
C920 C 0.68364 0.93689 0.3307 0.0
C921 C 0.70628 0.95286 0.33423 0.0
C922 C 0.66479 0.93377 0.38815 0.0
C923 C 0.66875 0.94693 0.4506 0.0
C924 C 0.69237 0.96115 0.45824 0.0
C925 C 0.71092 0.96394 0.39979 0.0
C926 C 0.63996 0.91827 0.37812 0.0
C927 C 0.69737 0.97533 0.52427 0.0
C928 C 0.61409 0.97158 0.52299 0.0
C929 C 0.60711 0.95476 0.59329 0.0
C930 C 0.63398 0.96903 0.47606 0.0
C931 C 0.64732 0.94916 0.50004 0.0
C932 C 0.64012 0.9318 0.57029 0.0
C933 C 0.62 0.93477 0.61612 0.0
C934 C 0.64083 0.98777 0.40097 0.0
C935 C 0.6539 0.91041 0.59755 0.0
H936 H 0.68014 0.92809 0.2803 0.0
H937 H 0.72836 0.97639 0.40248 0.0
H938 H 0.63266 0.90574 0.43367 0.0
H939 H 0.6266 0.93111 0.36059 0.0
H940 H 0.64089 0.90648 0.3331 0.0
H941 H 0.71743 0.98207 0.52883 0.0
H942 H 0.68798 0.992 0.51477 0.0
H943 H 0.68987 0.96322 0.5803 0.0
H944 H 0.60393 0.98683 0.50465 0.0
H945 H 0.61475 0.92186 0.67077 0.0
H946 H 0.6399 0.97767 0.35127 0.0
H947 H 0.6601 0.99782 0.40183 0.0
H948 H 0.62848 1.00204 0.39067 0.0
H949 H 0.65443 0.89876 0.55208 0.0
H950 H 0.6454 0.89798 0.65202 0.0
H951 H 0.6733 0.91819 0.60775 0.0
C952 C 0.50987 0.70679 0.61413 0.0
C953 C 0.52954 0.72709 0.59235 0.0
C954 C 0.51318 0.68454 0.66373 0.0
C955 C 0.53659 0.68275 0.69443 0.0
C956 C 0.5559 0.70402 0.67862 0.0
C957 C 0.55222 0.72592 0.62709 0.0
C958 C 0.49209 0.66232 0.67859 0.0
C959 C 0.58086 0.70313 0.71235 0.0
C960 C 0.53566 0.62444 0.8508 0.0
C961 C 0.54293 0.60744 0.80752 0.0
C962 C 0.53509 0.64962 0.81609 0.0
C963 C 0.5413 0.65776 0.73573 0.0
C964 C 0.54957 0.64092 0.69256 0.0
C965 C 0.55057 0.61604 0.72926 0.0
C966 C 0.52684 0.66714 0.86473 0.0
C967 C 0.55592 0.64867 0.60643 0.0
H968 H 0.49209 0.70782 0.58905 0.0
H969 H 0.56752 0.7415 0.61072 0.0
H970 H 0.49694 0.64672 0.65199 0.0
H971 H 0.48873 0.65502 0.7418 0.0
H972 H 0.47467 0.66729 0.65411 0.0
H973 H 0.59234 0.72228 0.70569 0.0
H974 H 0.57883 0.69435 0.77491 0.0
H975 H 0.59083 0.6913 0.6823 0.0
H976 H 0.52997 0.61793 0.91163 0.0
H977 H 0.55608 0.60294 0.69553 0.0
H978 H 0.50803 0.67042 0.84929 0.0
H979 H 0.53929 0.6858 0.85297 0.0
H980 H 0.52637 0.65921 0.9279 0.0
H981 H 0.53917 0.65259 0.57538 0.0
H982 H 0.56328 0.63382 0.58218 0.0
H983 H 0.56982 0.66633 0.59439 0.0
C984 C 0.84062 0.55573 0.35588 0.0
C985 C 0.84008 0.57185 0.28428 0.0
C986 C 0.85913 0.56112 0.4077 0.0
C987 C 0.87725 0.58332 0.38757 0.0
C988 C 0.87569 0.60052 0.31766 0.0
C989 C 0.85722 0.59446 0.2665 0.0
C990 C 0.86031 0.54218 0.48134 0.0
C991 C 0.89436 0.62459 0.2947 0.0
C992 C 0.91882 0.60225 0.54612 0.0
C993 C 0.93995 0.59245 0.53056 0.0
C994 C 0.89842 0.59995 0.4991 0.0
C995 C 0.89909 0.58724 0.43576 0.0
C996 C 0.92054 0.57767 0.41908 0.0
C997 C 0.94075 0.5805 0.46648 0.0
C998 C 0.87608 0.61085 0.51765 0.0
C999 C 0.92195 0.56387 0.35226 0.0
H1000 H 0.82755 0.53809 0.36911 0.0
H1001 H 0.85674 0.60692 0.211 0.0
H1002 H 0.8768 0.53318 0.47736 0.0
H1003 H 0.86226 0.55175 0.53211 0.0
H1004 H 0.84366 0.52709 0.4919 0.0
H1005 H 0.88864 0.63748 0.24423 0.0
H1006 H 0.89719 0.63476 0.34406 0.0
H1007 H 0.91241 0.6199 0.27901 0.0
H1008 H 0.91825 0.61171 0.59525 0.0
H1009 H 0.95692 0.57261 0.45486 0.0
H1010 H 0.85986 0.59544 0.53296 0.0
H1011 H 0.87153 0.62396 0.46584 0.0
H1012 H 0.87895 0.62123 0.56664 0.0
H1013 H 0.90713 0.54694 0.36028 0.0
H1014 H 0.94003 0.55772 0.34688 0.0
H1015 H 0.91895 0.57625 0.29689 0.0
loop_
_geom_bond_atom_site_label_1
_geom_bond_atom_site_label_2
_geom_bond_distance
_geom_bond_site_symmetry_2
_ccdc_geom_bond_type
H0 C3 0.929 . S
H1 C6 0.929 . S
H2 C8 0.930 . S
C3 H0 0.929 . S
C3 C4 1.398 . S
C3 C5 1.396 1_554 S
C4 C3 1.398 . S
C4 C8 1.407 . S
C5 C3 1.396 1_556 S
C5 C6 1.394 . S
C6 H1 0.929 . S
C6 C5 1.394 . S
C6 C7 1.382 1_556 S
C7 C6 1.382 1_554 S
C7 C8 1.392 . S
C7 N9 1.420 . S
C8 H2 0.930 . S
C8 C4 1.407 . S
C8 C7 1.392 . S
N9 C7 1.420 . S
N9 C10 1.244 1_554 S
C10 N9 1.244 1_556 S
H11 C14 0.929 . S
H12 C17 0.929 . S
H13 C19 0.930 . S
C14 H11 0.929 . S
C14 C15 1.399 . S
C14 C16 1.399 . S
C15 C14 1.399 . S
C15 C19 1.405 1_655 S
C16 C14 1.399 . S
C16 C17 1.387 1_655 S
C17 H12 0.929 . S
C17 C16 1.387 1_455 S
C17 C18 1.382 . S
C18 C17 1.382 . S
C18 C19 1.392 . S
C18 N20 1.420 . S
C19 H13 0.930 . S
C19 C15 1.405 1_455 S
C19 C18 1.392 . S
N20 C18 1.420 . S
N20 C21 1.244 1_455 S
C21 N20 1.244 1_655 S
H22 C25 0.929 . S
H23 C28 0.929 1_556 S
H24 C30 0.930 . S
C25 H22 0.929 . S
C25 C26 1.398 . S
C25 C27 1.396 . S
C26 C25 1.398 . S
C26 C30 1.407 . S
C27 C25 1.396 . S
C27 C28 1.394 . S
C28 H23 0.929 1_554 S
C28 C27 1.394 . S
C28 C29 1.382 . S
C29 C28 1.382 . S
C29 C30 1.392 . S
C29 N31 1.420 . S
C30 H24 0.930 . S
C30 C26 1.407 . S
C30 C29 1.392 . S
N31 C29 1.420 . S
N31 C32 1.244 . S
C32 N31 1.244 . S
H33 C36 0.929 . S
H34 C39 0.929 . S
H35 C41 0.930 . S
C36 H33 0.929 . S
C36 C37 1.398 . S
C36 C38 1.396 . S
C37 C36 1.398 . S
C37 C41 1.407 . S
C38 C36 1.396 . S
C38 C39 1.394 . S
C39 H34 0.929 . S
C39 C38 1.394 . S
C39 C40 1.382 . S
C40 C39 1.382 . S
C40 C41 1.392 . S
C40 N42 1.420 . S
C41 H35 0.930 . S
C41 C37 1.407 . S
C41 C40 1.392 . S
N42 C40 1.420 . S
N42 C43 1.244 . S
C43 N42 1.244 . S
H44 C47 0.929 . S
H45 C50 0.929 . S
H46 C52 0.930 . S
C47 H44 0.929 . S
C47 C48 1.398 . S
C47 C49 1.396 . S
C48 C47 1.398 . S
C48 C52 1.407 . S
C49 C47 1.396 . S
C49 C50 1.394 . S
C50 H45 0.929 . S
C50 C49 1.394 . S
C50 C51 1.382 . S
C51 C50 1.382 . S
C51 C52 1.392 . S
C51 N53 1.420 . S
C52 H46 0.930 . S
C52 C48 1.407 . S
C52 C51 1.392 . S
N53 C51 1.420 . S
N53 C54 1.244 . S
C54 N53 1.244 . S
H55 C58 0.929 . S
H56 C61 0.929 . S
H57 C63 0.930 . S
C58 H55 0.929 . S
C58 C59 1.398 . S
C58 C60 1.396 . S
C59 C58 1.398 . S
C59 C63 1.407 . S
C60 C58 1.396 . S
C60 C61 1.394 . S
C61 H56 0.929 . S
C61 C60 1.394 . S
C61 C62 1.382 . S
C62 C61 1.382 . S
C62 C63 1.392 . S
C62 N64 1.420 . S
C63 H57 0.930 . S
C63 C59 1.407 . S
C63 C62 1.392 . S
N64 C62 1.420 . S
N64 C65 1.244 . S
C65 N64 1.244 . S
H66 C69 0.929 . S
H67 C72 0.929 . S
H68 C74 0.930 . S
C69 H66 0.929 . S
C69 C70 1.398 . S
C69 C71 1.396 . S
C70 C69 1.398 . S
C70 C74 1.407 . S
C71 C69 1.396 . S
C71 C72 1.394 . S
C72 H67 0.929 . S
C72 C71 1.394 . S
C72 C73 1.382 . S
C73 C72 1.382 . S
C73 C74 1.392 . S
C73 N75 1.420 . S
C74 H68 0.930 . S
C74 C70 1.407 . S
C74 C73 1.392 . S
N75 C73 1.420 . S
N75 C76 1.244 . S
C76 N75 1.244 . S
H77 C80 0.929 . S
H78 C83 0.929 . S
H79 C85 0.930 . S
C80 H77 0.929 . S
C80 C81 1.398 . S
C80 C82 1.396 . S
C81 C80 1.398 . S
C81 C85 1.407 . S
C82 C80 1.396 . S
C82 C83 1.394 . S
C83 H78 0.929 . S
C83 C82 1.394 . S
C83 C84 1.382 . S
C84 C83 1.382 . S
C84 C85 1.392 . S
C84 N86 1.420 . S
C85 H79 0.930 . S
C85 C81 1.407 . S
C85 C84 1.392 . S
N86 C84 1.420 . S
N86 C87 1.244 . S
C87 N86 1.244 . S
Nd88 C90 2.836 1_545 S
Nd88 O108 2.484 1_445 S
Nd88 O109 2.492 1_545 S
Nd88 O110 2.487 . S
Nd88 O111 2.682 . S
Nd88 O112 2.410 1_545 S
Nd88 O117 2.414 1_455 S
Nd88 O119 2.424 . S
Nd89 C99 2.836 . S
Nd89 O111 2.414 1_554 S
Nd89 O113 2.424 1_545 S
Nd89 O114 2.500 . S
Nd89 O115 2.492 . S
Nd89 O116 2.487 1_455 S
Nd89 O117 2.682 1_454 S
Nd89 O118 2.410 1_554 S
C90 Nd88 2.836 1_565 S
C90 C91 1.498 . S
C90 O108 1.229 1_455 S
C90 O109 1.239 . S
C91 C90 1.498 . S
C91 C92 1.366 1_455 S
C91 C96 1.407 . S
C92 C91 1.366 1_655 S
C92 C93 1.392 . S
C92 H120 0.930 . S
C93 C92 1.392 . S
C93 C94 1.398 1_655 S
C93 H121 0.929 . S
C94 C93 1.398 1_455 S
C94 C95 1.352 . S
C95 C94 1.352 . S
C95 C96 1.384 . S
C95 H122 0.930 . S
C96 C91 1.407 . S
C96 C95 1.384 . S
C96 H123 0.929 . S
C97 O110 1.241 . S
C97 O111 1.273 . S
C98 O112 1.251 . S
C98 O113 1.268 1_556 S
C99 Nd89 2.836 . S
C99 C100 1.498 . S
C99 O114 1.258 . S
C99 O115 1.239 . S
C100 C99 1.498 . S
C100 C101 1.366 . S
C100 C105 1.407 . S
C101 C100 1.366 . S
C101 C102 1.392 . S
C101 H124 0.930 . S
C102 C101 1.392 . S
C102 C103 1.398 . S
C102 H125 0.929 . S
C103 C102 1.398 . S
C103 C104 1.352 . S
C104 C103 1.352 . S
C104 C105 1.384 . S
C104 H126 0.930 . S
C105 C100 1.407 . S
C105 C104 1.384 . S
C105 H127 0.929 . S
C106 O116 1.241 1_556 S
C106 O117 1.273 . S
C107 O118 1.251 . S
C107 O119 1.268 . S
O108 Nd88 2.484 1_665 S
O108 C90 1.229 1_655 S
O109 Nd88 2.492 1_565 S
O109 C90 1.239 . S
O110 Nd88 2.487 . S
O110 C97 1.241 . S
O111 Nd88 2.682 . S
O111 Nd89 2.414 1_556 S
O111 C97 1.273 . S
O112 Nd88 2.410 1_565 S
O112 C98 1.251 . S
O113 Nd89 2.424 1_565 S
O113 C98 1.268 1_554 S
O114 Nd89 2.500 . S
O114 C99 1.258 . S
O115 Nd89 2.492 . S
O115 C99 1.239 . S
O116 Nd89 2.487 1_655 S
O116 C106 1.241 1_554 S
O117 Nd88 2.414 1_655 S
O117 Nd89 2.682 1_656 S
O117 C106 1.273 . S
O118 Nd89 2.410 1_556 S
O118 C107 1.251 . S
O119 Nd88 2.424 . S
O119 C107 1.268 . S
H120 C92 0.930 . S
H121 C93 0.929 . S
H122 C95 0.930 . S
H123 C96 0.929 . S
H124 C101 0.930 . S
H125 C102 0.929 . S
H126 C104 0.930 . S
H127 C105 0.929 . S
Nd128 C130 2.836 1_545 S
Nd128 O148 2.500 1_545 S
Nd128 O149 2.492 . S
Nd128 O150 2.487 . S
Nd128 O151 2.682 . S
Nd128 O152 2.410 . S
Nd128 O157 2.414 1_545 S
Nd128 O159 2.424 . S
Nd129 C139 2.836 . S
Nd129 O151 2.414 1_554 S
Nd129 O153 2.424 1_554 S
Nd129 O154 2.500 . S
Nd129 O155 2.492 . S
Nd129 O156 2.487 1_545 S
Nd129 O157 2.682 1_544 S
Nd129 O158 2.410 1_554 S
C130 Nd128 2.836 1_565 S
C130 C131 1.498 . S
C130 O148 1.258 . S
C130 O149 1.239 1_565 S
C131 C130 1.498 . S
C131 C132 1.366 . S
C131 C136 1.407 . S
C132 C131 1.366 . S
C132 C133 1.392 . S
C132 H160 0.930 . S
C133 C132 1.392 . S
C133 C134 1.398 . S
C133 H161 0.929 . S
C134 C133 1.398 . S
C134 C135 1.352 . S
C135 C134 1.352 . S
C135 C136 1.384 . S
C135 H162 0.930 . S
C136 C131 1.407 . S
C136 C135 1.384 . S
C136 H163 0.929 1_565 S
C137 O150 1.241 . S
C137 O151 1.273 . S
C138 O152 1.251 . S
C138 O153 1.268 . S
C139 Nd129 2.836 . S
C139 C140 1.498 . S
C139 O154 1.258 . S
C139 O155 1.239 . S
C140 C139 1.498 . S
C140 C141 1.366 . S
C140 C145 1.407 . S
C141 C140 1.366 . S
C141 C142 1.392 . S
C141 H164 0.930 . S
C142 C141 1.392 . S
C142 C143 1.398 . S
C142 H165 0.929 . S
C143 C142 1.398 . S
C143 C144 1.352 . S
C144 C143 1.352 . S
C144 C145 1.384 . S
C144 H166 0.930 . S
C145 C140 1.407 . S
C145 C144 1.384 . S
C145 H167 0.929 . S
C146 O156 1.241 . S
C146 O157 1.273 1_554 S
C147 O158 1.251 . S
C147 O159 1.268 . S
O148 Nd128 2.500 1_565 S
O148 C130 1.258 . S
O149 Nd128 2.492 . S
O149 C130 1.239 1_545 S
O150 Nd128 2.487 . S
O150 C137 1.241 . S
O151 Nd128 2.682 . S
O151 Nd129 2.414 1_556 S
O151 C137 1.273 . S
O152 Nd128 2.410 . S
O152 C138 1.251 . S
O153 Nd129 2.424 1_556 S
O153 C138 1.268 . S
O154 Nd129 2.500 . S
O154 C139 1.258 . S
O155 Nd129 2.492 . S
O155 C139 1.239 . S
O156 Nd129 2.487 1_565 S
O156 C146 1.241 . S
O157 Nd128 2.414 1_565 S
O157 Nd129 2.682 1_566 S
O157 C146 1.273 1_556 S
O158 Nd129 2.410 1_556 S
O158 C147 1.251 . S
O159 Nd128 2.424 . S
O159 C147 1.268 . S
H160 C132 0.930 . S
H161 C133 0.929 . S
H162 C135 0.930 . S
H163 C136 0.929 1_545 S
H164 C141 0.930 . S
H165 C142 0.929 . S
H166 C144 0.930 . S
H167 C145 0.929 . S
Nd168 C170 2.836 . S
Nd168 O188 2.500 . S
Nd168 O189 2.492 . S
Nd168 O190 2.487 1_554 S
Nd168 O191 2.682 1_554 S
Nd168 O192 2.410 1_554 S
Nd168 O197 2.414 1_554 S
Nd168 O199 2.424 . S
Nd169 C179 2.836 . S
Nd169 O191 2.414 . S
Nd169 O193 2.424 . S
Nd169 O194 2.500 . S
Nd169 O195 2.492 . S
Nd169 O196 2.487 . S
Nd169 O197 2.682 . S
Nd169 O198 2.410 . S
C170 Nd168 2.836 . S
C170 C171 1.498 . S
C170 O188 1.258 . S
C170 O189 1.239 . S
C171 C170 1.498 . S
C171 C172 1.366 . S
C171 C176 1.407 . S
C172 C171 1.366 . S
C172 C173 1.392 . S
C172 H200 0.930 . S
C173 C172 1.392 . S
C173 C174 1.398 . S
C173 H201 0.929 . S
C174 C173 1.398 . S
C174 C175 1.352 . S
C175 C174 1.352 . S
C175 C176 1.384 . S
C175 H202 0.930 . S
C176 C171 1.407 . S
C176 C175 1.384 . S
C176 H203 0.929 . S
C177 O190 1.241 . S
C177 O191 1.273 . S
C178 O192 1.251 . S
C178 O193 1.268 . S
C179 Nd169 2.836 . S
C179 C180 1.498 . S
C179 O194 1.258 . S
C179 O195 1.239 . S
C180 C179 1.498 . S
C180 C181 1.366 . S
C180 C185 1.407 . S
C181 C180 1.366 . S
C181 C182 1.392 . S
C181 H204 0.930 . S
C182 C181 1.392 . S
C182 C183 1.398 . S
C182 H205 0.929 . S
C183 C182 1.398 . S
C183 C184 1.352 . S
C184 C183 1.352 . S
C184 C185 1.384 . S
C184 H206 0.930 . S
C185 C180 1.407 . S
C185 C184 1.384 . S
C185 H207 0.929 . S
C186 O196 1.241 . S
C186 O197 1.273 . S
C187 O198 1.251 . S
C187 O199 1.268 1_556 S
O188 Nd168 2.500 . S
O188 C170 1.258 . S
O189 Nd168 2.492 . S
O189 C170 1.239 . S
O190 Nd168 2.487 1_556 S
O190 C177 1.241 . S
O191 Nd168 2.682 1_556 S
O191 Nd169 2.414 . S
O191 C177 1.273 . S
O192 Nd168 2.410 1_556 S
O192 C178 1.251 . S
O193 Nd169 2.424 . S
O193 C178 1.268 . S
O194 Nd169 2.500 . S
O194 C179 1.258 . S
O195 Nd169 2.492 . S
O195 C179 1.239 . S
O196 Nd169 2.487 . S
O196 C186 1.241 . S
O197 Nd168 2.414 1_556 S
O197 Nd169 2.682 . S
O197 C186 1.273 . S
O198 Nd169 2.410 . S
O198 C187 1.251 . S
O199 Nd168 2.424 . S
O199 C187 1.268 1_554 S
H200 C172 0.930 . S
H201 C173 0.929 . S
H202 C175 0.930 . S
H203 C176 0.929 . S
H204 C181 0.930 . S
H205 C182 0.929 . S
H206 C184 0.930 . S
H207 C185 0.929 . S
Nd208 C210 2.836 1_455 S
Nd208 O228 2.500 1_455 S
Nd208 O229 2.492 1_455 S
Nd208 O230 2.487 . S
Nd208 O231 2.682 . S
Nd208 O232 2.410 1_455 S
Nd208 O237 2.414 . S
Nd208 O239 2.424 . S
Nd209 C219 2.836 . S
Nd209 O231 2.414 1_554 S
Nd209 O233 2.424 1_454 S
Nd209 O234 2.500 . S
Nd209 O235 2.492 . S
Nd209 O236 2.487 . S
Nd209 O237 2.682 1_554 S
Nd209 O238 2.410 1_554 S
C210 Nd208 2.836 1_655 S
C210 C211 1.498 . S
C210 O228 1.258 . S
C210 O229 1.239 . S
C211 C210 1.498 . S
C211 C212 1.366 . S
C211 C216 1.407 . S
C212 C211 1.366 . S
C212 C213 1.392 . S
C212 H240 0.930 . S
C213 C212 1.392 . S
C213 C214 1.398 . S
C213 H241 0.929 . S
C214 C213 1.398 . S
C214 C215 1.352 . S
C215 C214 1.352 . S
C215 C216 1.384 . S
C215 H242 0.930 . S
C216 C211 1.407 . S
C216 C215 1.384 . S
C216 H243 0.929 . S
C217 O230 1.241 . S
C217 O231 1.273 . S
C218 O232 1.251 . S
C218 O233 1.268 . S
C219 Nd209 2.836 . S
C219 C220 1.498 . S
C219 O234 1.258 . S
C219 O235 1.239 . S
C220 C219 1.498 . S
C220 C221 1.366 . S
C220 C225 1.407 . S
C221 C220 1.366 . S
C221 C222 1.392 . S
C221 H244 0.930 . S
C222 C221 1.392 . S
C222 C223 1.398 . S
C222 H245 0.929 . S
C223 C222 1.398 . S
C223 C224 1.352 . S
C224 C223 1.352 . S
C224 C225 1.384 . S
C224 H246 0.930 . S
C225 C220 1.407 . S
C225 C224 1.384 . S
C225 H247 0.929 . S
C226 O236 1.241 1_556 S
C226 O237 1.273 . S
C227 O238 1.251 . S
C227 O239 1.268 . S
O228 Nd208 2.500 1_655 S
O228 C210 1.258 . S
O229 Nd208 2.492 1_655 S
O229 C210 1.239 . S
O230 Nd208 2.487 . S
O230 C217 1.241 . S
O231 Nd208 2.682 . S
O231 Nd209 2.414 1_556 S
O231 C217 1.273 . S
O232 Nd208 2.410 1_655 S
O232 C218 1.251 . S
O233 Nd209 2.424 1_656 S
O233 C218 1.268 . S
O234 Nd209 2.500 . S
O234 C219 1.258 . S
O235 Nd209 2.492 . S
O235 C219 1.239 . S
O236 Nd209 2.487 . S
O236 C226 1.241 1_554 S
O237 Nd208 2.414 . S
O237 Nd209 2.682 1_556 S
O237 C226 1.273 . S
O238 Nd209 2.410 1_556 S
O238 C227 1.251 . S
O239 Nd208 2.424 . S
O239 C227 1.268 . S
H240 C212 0.930 . S
H241 C213 0.929 . S
H242 C215 0.930 . S
H243 C216 0.929 . S
H244 C221 0.930 . S
H245 C222 0.929 . S
H246 C224 0.930 . S
H247 C225 0.929 . S
C248 C249 1.391 . S
C248 C250 1.394 . S
C248 H264 0.931 . S
C249 C248 1.391 . S
C249 C253 1.376 . S
C250 C248 1.394 . S
C250 C251 1.369 . S
C250 C254 1.531 . S
C251 C250 1.369 . S
C251 C252 1.410 . S
C251 C259 1.503 . S
C252 C251 1.410 . S
C252 C253 1.392 . S
C252 C255 1.511 . S
C253 C249 1.376 . S
C253 C252 1.392 . S
C253 H265 0.929 . S
C254 C250 1.531 . S
C254 H266 0.960 . S
C254 H267 0.962 . S
C254 H268 0.960 . S
C255 C252 1.511 . S
C255 H269 0.961 . S
C255 H270 0.961 . S
C255 H271 0.961 . S
C256 C257 1.370 . S
C256 C258 1.363 . S
C256 H272 0.931 . S
C257 C256 1.370 . S
C257 C261 1.408 . S
C258 C256 1.363 . S
C258 C259 1.370 . S
C258 C262 1.524 . S
C259 C251 1.503 . S
C259 C258 1.370 . S
C259 C260 1.403 . S
C260 C259 1.403 . S
C260 C261 1.404 . S
C260 C263 1.539 . S
C261 C257 1.408 . S
C261 C260 1.404 . S
C261 H273 0.930 . S
C262 C258 1.524 . S
C262 H274 0.956 . S
C262 H275 0.961 . S
C262 H276 0.961 . S
C263 C260 1.539 . S
C263 H277 0.958 . S
C263 H278 0.961 . S
C263 H279 0.960 . S
H264 C248 0.931 . S
H265 C253 0.929 . S
H266 C254 0.960 . S
H267 C254 0.962 . S
H268 C254 0.960 . S
H269 C255 0.961 . S
H270 C255 0.961 . S
H271 C255 0.961 . S
H272 C256 0.931 . S
H273 C261 0.930 . S
H274 C262 0.956 . S
H275 C262 0.961 . S
H276 C262 0.961 . S
H277 C263 0.958 . S
H278 C263 0.961 . S
H279 C263 0.960 . S
C280 C281 1.391 . S
C280 C282 1.394 . S
C280 H296 0.931 . S
C281 C280 1.391 . S
C281 C285 1.376 . S
C282 C280 1.394 . S
C282 C283 1.369 . S
C282 C286 1.531 . S
C283 C282 1.369 . S
C283 C284 1.410 . S
C283 C291 1.503 . S
C284 C283 1.410 . S
C284 C285 1.392 . S
C284 C287 1.511 . S
C285 C281 1.376 . S
C285 C284 1.392 . S
C285 H297 0.929 . S
C286 C282 1.531 . S
C286 H298 0.960 . S
C286 H299 0.962 . S
C286 H300 0.960 . S
C287 C284 1.511 . S
C287 H301 0.961 . S
C287 H302 0.961 . S
C287 H303 0.961 . S
C288 C289 1.370 . S
C288 C290 1.363 . S
C288 H304 0.931 . S
C289 C288 1.370 . S
C289 C293 1.408 . S
C290 C288 1.363 . S
C290 C291 1.370 . S
C290 C294 1.524 . S
C291 C283 1.503 . S
C291 C290 1.370 . S
C291 C292 1.403 . S
C292 C291 1.403 . S
C292 C293 1.404 . S
C292 C295 1.539 . S
C293 C289 1.408 . S
C293 C292 1.404 . S
C293 H305 0.930 . S
C294 C290 1.524 . S
C294 H306 0.956 . S
C294 H307 0.961 . S
C294 H308 0.961 . S
C295 C292 1.539 . S
C295 H309 0.958 . S
C295 H310 0.961 . S
C295 H311 0.960 . S
H296 C280 0.931 . S
H297 C285 0.929 . S
H298 C286 0.960 . S
H299 C286 0.962 . S
H300 C286 0.960 . S
H301 C287 0.961 . S
H302 C287 0.961 . S
H303 C287 0.961 . S
H304 C288 0.931 . S
H305 C293 0.930 . S
H306 C294 0.956 . S
H307 C294 0.961 . S
H308 C294 0.961 . S
H309 C295 0.958 . S
H310 C295 0.961 . S
H311 C295 0.960 . S
C312 C313 1.391 . S
C312 C314 1.394 . S
C312 H328 0.931 . S
C313 C312 1.391 . S
C313 C317 1.376 . S
C314 C312 1.394 . S
C314 C315 1.369 . S
C314 C318 1.531 . S
C315 C314 1.369 . S
C315 C316 1.410 . S
C315 C323 1.503 . S
C316 C315 1.410 . S
C316 C317 1.392 . S
C316 C319 1.511 . S
C317 C313 1.376 . S
C317 C316 1.392 . S
C317 H329 0.929 . S
C318 C314 1.531 . S
C318 H330 0.960 . S
C318 H331 0.962 . S
C318 H332 0.960 . S
C319 C316 1.511 . S
C319 H333 0.961 . S
C319 H334 0.961 . S
C319 H335 0.961 1_556 S
C320 C321 1.370 . S
C320 C322 1.363 . S
C320 H336 0.931 . S
C321 C320 1.370 . S
C321 C325 1.408 . S
C322 C320 1.363 . S
C322 C323 1.370 . S
C322 C326 1.524 . S
C323 C315 1.503 . S
C323 C322 1.370 . S
C323 C324 1.403 . S
C324 C323 1.403 . S
C324 C325 1.404 . S
C324 C327 1.539 1_556 S
C325 C321 1.408 . S
C325 C324 1.404 . S
C325 H337 0.930 . S
C326 C322 1.524 . S
C326 H338 0.956 . S
C326 H339 0.961 . S
C326 H340 0.961 . S
C327 C324 1.539 1_554 S
C327 H341 0.958 1_554 S
C327 H342 0.961 . S
C327 H343 0.960 . S
H328 C312 0.931 . S
H329 C317 0.929 . S
H330 C318 0.960 . S
H331 C318 0.962 . S
H332 C318 0.960 . S
H333 C319 0.961 . S
H334 C319 0.961 . S
H335 C319 0.961 1_554 S
H336 C320 0.931 . S
H337 C325 0.930 . S
H338 C326 0.956 . S
H339 C326 0.961 . S
H340 C326 0.961 . S
H341 C327 0.958 1_556 S
H342 C327 0.961 . S
H343 C327 0.960 . S
C344 C345 1.391 . S
C344 C346 1.394 . S
C344 H360 0.931 . S
C345 C344 1.391 . S
C345 C349 1.376 . S
C346 C344 1.394 . S
C346 C347 1.369 . S
C346 C350 1.531 . S
C347 C346 1.369 . S
C347 C348 1.410 . S
C347 C355 1.503 . S
C348 C347 1.410 . S
C348 C349 1.392 . S
C348 C351 1.511 . S
C349 C345 1.376 . S
C349 C348 1.392 . S
C349 H361 0.929 . S
C350 C346 1.531 . S
C350 H362 0.960 . S
C350 H363 0.962 . S
C350 H364 0.960 . S
C351 C348 1.511 . S
C351 H365 0.961 . S
C351 H366 0.961 . S
C351 H367 0.961 . S
C352 C353 1.370 . S
C352 C354 1.363 . S
C352 H368 0.927 . S
C353 C352 1.370 . S
C353 C357 1.408 . S
C354 C352 1.363 . S
C354 C355 1.370 . S
C354 C358 1.524 . S
C355 C347 1.503 . S
C355 C354 1.370 . S
C355 C356 1.403 . S
C356 C355 1.403 . S
C356 C357 1.404 . S
C356 C359 1.539 . S
C357 C353 1.408 . S
C357 C356 1.404 . S
C357 H369 0.930 . S
C358 C354 1.524 . S
C358 H370 0.956 1_455 S
C358 H371 0.961 . S
C358 H372 0.961 1_455 S
C359 C356 1.539 . S
C359 H373 0.958 . S
C359 H374 0.961 . S
C359 H375 0.960 . S
H360 C344 0.931 . S
H361 C349 0.929 . S
H362 C350 0.960 . S
H363 C350 0.962 . S
H364 C350 0.960 . S
H365 C351 0.961 . S
H366 C351 0.961 . S
H367 C351 0.961 . S
H368 C352 0.927 . S
H369 C357 0.930 . S
H370 C358 0.956 1_655 S
H371 C358 0.961 . S
H372 C358 0.961 1_655 S
H373 C359 0.958 . S
H374 C359 0.961 . S
H375 C359 0.960 . S
C376 C377 1.391 . S
C376 C378 1.394 . S
C376 H392 0.931 . S
C377 C376 1.391 . S
C377 C381 1.376 . S
C378 C376 1.394 . S
C378 C379 1.369 . S
C378 C382 1.531 1_564 S
C379 C378 1.369 . S
C379 C380 1.410 . S
C379 C387 1.503 1_554 S
C380 C379 1.410 . S
C380 C381 1.392 . S
C380 C383 1.511 . S
C381 C377 1.376 . S
C381 C380 1.392 . S
C381 H393 0.929 . S
C382 C378 1.531 1_546 S
C382 H394 0.960 1_556 S
C382 H395 0.962 . S
C382 H396 0.960 1_556 S
C383 C380 1.511 . S
C383 H397 0.961 . S
C383 H398 0.961 . S
C383 H399 0.961 . S
C384 C385 1.370 . S
C384 C386 1.363 . S
C384 H400 0.931 . S
C385 C384 1.370 . S
C385 C389 1.408 1_556 S
C386 C384 1.363 . S
C386 C387 1.370 . S
C386 C390 1.524 . S
C387 C379 1.503 1_556 S
C387 C386 1.370 . S
C387 C388 1.403 1_556 S
C388 C387 1.403 1_554 S
C388 C389 1.404 . S
C388 C391 1.539 . S
C389 C385 1.408 1_554 S
C389 C388 1.404 . S
C389 H401 0.936 . S
C390 C386 1.524 . S
C390 H402 0.956 . S
C390 H403 0.961 . S
C390 H404 0.961 . S
C391 C388 1.539 . S
C391 H405 0.958 . S
C391 H406 0.961 . S
C391 H407 0.960 . S
H392 C376 0.931 . S
H393 C381 0.929 . S
H394 C382 0.960 1_554 S
H395 C382 0.962 . S
H396 C382 0.960 1_554 S
H397 C383 0.961 . S
H398 C383 0.961 . S
H399 C383 0.961 . S
H400 C384 0.931 . S
H401 C389 0.936 . S
H402 C390 0.956 . S
H403 C390 0.961 . S
H404 C390 0.961 . S
H405 C391 0.958 . S
H406 C391 0.961 . S
H407 C391 0.960 . S
C408 C409 1.391 . S
C408 C410 1.394 . S
C408 H424 0.931 . S
C409 C408 1.391 . S
C409 C413 1.376 . S
C410 C408 1.394 . S
C410 C411 1.369 . S
C410 C414 1.531 . S
C411 C410 1.369 . S
C411 C412 1.410 . S
C411 C419 1.503 . S
C412 C411 1.410 . S
C412 C413 1.392 . S
C412 C415 1.511 . S
C413 C409 1.376 . S
C413 C412 1.392 . S
C413 H425 0.929 . S
C414 C410 1.531 . S
C414 H426 0.960 . S
C414 H427 0.962 . S
C414 H428 0.960 . S
C415 C412 1.511 . S
C415 H429 0.961 . S
C415 H430 0.961 . S
C415 H431 0.961 . S
C416 C417 1.370 . S
C416 C418 1.363 . S
C416 H432 0.931 . S
C417 C416 1.370 . S
C417 C421 1.408 . S
C418 C416 1.363 . S
C418 C419 1.370 . S
C418 C422 1.524 . S
C419 C411 1.503 . S
C419 C418 1.370 . S
C419 C420 1.403 . S
C420 C419 1.403 . S
C420 C421 1.404 . S
C420 C423 1.539 . S
C421 C417 1.408 . S
C421 C420 1.404 . S
C421 H433 0.930 . S
C422 C418 1.524 . S
C422 H434 0.956 . S
C422 H435 0.961 . S
C422 H436 0.961 . S
C423 C420 1.539 . S
C423 H437 0.958 . S
C423 H438 0.961 . S
C423 H439 0.960 . S
H424 C408 0.931 . S
H425 C413 0.929 . S
H426 C414 0.960 . S
H427 C414 0.962 . S
H428 C414 0.960 . S
H429 C415 0.961 . S
H430 C415 0.961 . S
H431 C415 0.961 . S
H432 C416 0.931 . S
H433 C421 0.930 . S
H434 C422 0.956 . S
H435 C422 0.961 . S
H436 C422 0.961 . S
H437 C423 0.958 . S
H438 C423 0.961 . S
H439 C423 0.960 . S
C440 C441 1.391 . S
C440 C442 1.394 . S
C440 H456 0.931 1_556 S
C441 C440 1.391 . S
C441 C445 1.376 . S
C442 C440 1.394 . S
C442 C443 1.369 . S
C442 C446 1.531 1_556 S
C443 C442 1.369 . S
C443 C444 1.410 . S
C443 C451 1.503 . S
C444 C443 1.410 . S
C444 C445 1.392 . S
C444 C447 1.511 . S
C445 C441 1.376 . S
C445 C444 1.392 . S
C445 H457 0.929 . S
C446 C442 1.531 1_554 S
C446 H458 0.960 . S
C446 H459 0.962 1_554 S
C446 H460 0.960 . S
C447 C444 1.511 . S
C447 H461 0.961 . S
C447 H462 0.961 . S
C447 H463 0.961 . S
C448 C449 1.370 . S
C448 C450 1.363 . S
C448 H464 0.931 . S
C449 C448 1.370 . S
C449 C453 1.408 . S
C450 C448 1.363 . S
C450 C451 1.370 . S
C450 C454 1.524 . S
C451 C443 1.503 . S
C451 C450 1.370 . S
C451 C452 1.403 1_556 S
C452 C451 1.403 1_554 S
C452 C453 1.404 1_554 S
C452 C455 1.539 . S
C453 C449 1.408 . S
C453 C452 1.404 1_556 S
C453 H465 0.930 1_556 S
C454 C450 1.524 . S
C454 H466 0.956 . S
C454 H467 0.961 . S
C454 H468 0.961 . S
C455 C452 1.539 . S
C455 H469 0.958 . S
C455 H470 0.961 . S
C455 H471 0.960 . S
H456 C440 0.931 1_554 S
H457 C445 0.929 . S
H458 C446 0.960 . S
H459 C446 0.962 1_556 S
H460 C446 0.960 . S
H461 C447 0.961 . S
H462 C447 0.961 . S
H463 C447 0.961 . S
H464 C448 0.931 . S
H465 C453 0.930 1_554 S
H466 C454 0.956 . S
H467 C454 0.961 . S
H468 C454 0.961 . S
H469 C455 0.958 . S
H470 C455 0.961 . S
H471 C455 0.960 . S
C472 C473 1.406 . S
C472 C474 1.394 . S
C472 H488 0.931 . S
C473 C472 1.406 . S
C473 C477 1.366 1_455 S
C474 C472 1.394 . S
C474 C475 1.369 . S
C474 C478 1.531 . S
C475 C474 1.369 . S
C475 C476 1.410 1_454 S
C475 C483 1.503 . S
C476 C475 1.410 1_656 S
C476 C477 1.392 1_556 S
C476 C479 1.511 . S
C477 C473 1.366 1_655 S
C477 C476 1.392 1_554 S
C477 H489 0.929 1_554 S
C478 C474 1.531 . S
C478 H490 0.960 . S
C478 H491 0.962 . S
C478 H492 0.960 . S
C479 C476 1.511 . S
C479 H493 0.961 . S
C479 H494 0.961 . S
C479 H495 0.961 . S
C480 C481 1.370 . S
C480 C482 1.363 . S
C480 H496 0.931 . S
C481 C480 1.370 . S
C481 C485 1.408 1_556 S
C482 C480 1.363 . S
C482 C483 1.370 1_556 S
C482 C486 1.524 . S
C483 C475 1.503 . S
C483 C482 1.370 1_554 S
C483 C484 1.403 1_455 S
C484 C483 1.403 1_655 S
C484 C485 1.404 1_655 S
C484 C487 1.539 . S
C485 C481 1.408 1_554 S
C485 C484 1.404 1_455 S
C485 H497 0.930 1_455 S
C486 C482 1.524 . S
C486 H498 0.956 . S
C486 H499 0.961 . S
C486 H500 0.961 . S
C487 C484 1.539 . S
C487 H501 0.958 . S
C487 H502 0.961 . S
C487 H503 0.960 . S
H488 C472 0.931 . S
H489 C477 0.929 1_556 S
H490 C478 0.960 . S
H491 C478 0.962 . S
H492 C478 0.960 . S
H493 C479 0.961 . S
H494 C479 0.961 . S
H495 C479 0.961 . S
H496 C480 0.931 . S
H497 C485 0.930 1_655 S
H498 C486 0.956 . S
H499 C486 0.961 . S
H500 C486 0.961 . S
H501 C487 0.958 . S
H502 C487 0.961 . S
H503 C487 0.960 . S
C504 C505 1.391 . S
C504 C506 1.394 . S
C504 H520 0.931 . S
C505 C504 1.391 . S
C505 C509 1.376 . S
C506 C504 1.394 . S
C506 C507 1.369 . S
C506 C510 1.531 . S
C507 C506 1.369 . S
C507 C508 1.410 . S
C507 C515 1.503 . S
C508 C507 1.410 . S
C508 C509 1.392 . S
C508 C511 1.511 . S
C509 C505 1.376 . S
C509 C508 1.392 . S
C509 H521 0.929 . S
C510 C506 1.531 . S
C510 H522 0.960 . S
C510 H523 0.962 . S
C510 H524 0.960 . S
C511 C508 1.511 . S
C511 H525 0.961 . S
C511 H526 0.961 . S
C511 H527 0.961 . S
C512 C513 1.370 . S
C512 C514 1.363 . S
C512 H528 0.931 . S
C513 C512 1.370 . S
C513 C517 1.408 . S
C514 C512 1.363 . S
C514 C515 1.370 . S
C514 C518 1.524 . S
C515 C507 1.503 . S
C515 C514 1.370 . S
C515 C516 1.403 . S
C516 C515 1.403 . S
C516 C517 1.404 . S
C516 C519 1.539 . S
C517 C513 1.408 . S
C517 C516 1.404 . S
C517 H529 0.930 . S
C518 C514 1.524 . S
C518 H530 0.956 1_455 S
C518 H531 0.961 . S
C518 H532 0.961 1_455 S
C519 C516 1.539 . S
C519 H533 0.958 . S
C519 H534 0.961 . S
C519 H535 0.960 . S
H520 C504 0.931 . S
H521 C509 0.929 . S
H522 C510 0.960 . S
H523 C510 0.962 . S
H524 C510 0.960 . S
H525 C511 0.961 . S
H526 C511 0.961 . S
H527 C511 0.961 . S
H528 C512 0.931 . S
H529 C517 0.930 . S
H530 C518 0.956 1_655 S
H531 C518 0.961 . S
H532 C518 0.961 1_655 S
H533 C519 0.958 . S
H534 C519 0.961 . S
H535 C519 0.960 . S
C536 C537 1.391 . S
C536 C538 1.394 . S
C536 H552 0.931 . S
C537 C536 1.391 . S
C537 C541 1.376 . S
C538 C536 1.394 . S
C538 C539 1.369 . S
C538 C542 1.531 . S
C539 C538 1.369 . S
C539 C540 1.410 . S
C539 C547 1.503 . S
C540 C539 1.410 . S
C540 C541 1.392 . S
C540 C543 1.511 . S
C541 C537 1.376 . S
C541 C540 1.392 . S
C541 H553 0.929 . S
C542 C538 1.531 . S
C542 H554 0.960 . S
C542 H555 0.962 . S
C542 H556 0.960 . S
C543 C540 1.511 . S
C543 H557 0.961 . S
C543 H558 0.961 . S
C543 H559 0.961 . S
C544 C545 1.370 . S
C544 C546 1.363 . S
C544 H560 0.931 . S
C545 C544 1.370 . S
C545 C549 1.408 . S
C546 C544 1.363 . S
C546 C547 1.370 . S
C546 C550 1.524 . S
C547 C539 1.503 . S
C547 C546 1.370 . S
C547 C548 1.403 . S
C548 C547 1.403 . S
C548 C549 1.404 . S
C548 C551 1.539 1_556 S
C549 C545 1.408 . S
C549 C548 1.404 . S
C549 H561 0.930 . S
C550 C546 1.524 . S
C550 H562 0.956 . S
C550 H563 0.961 . S
C550 H564 0.961 . S
C551 C548 1.539 1_554 S
C551 H565 0.958 . S
C551 H566 0.961 . S
C551 H567 0.960 1_554 S
H552 C536 0.931 . S
H553 C541 0.929 . S
H554 C542 0.960 . S
H555 C542 0.962 . S
H556 C542 0.960 . S
H557 C543 0.961 . S
H558 C543 0.961 . S
H559 C543 0.961 . S
H560 C544 0.931 . S
H561 C549 0.930 . S
H562 C550 0.956 . S
H563 C550 0.961 . S
H564 C550 0.961 . S
H565 C551 0.958 . S
H566 C551 0.961 . S
H567 C551 0.960 1_556 S
C568 C569 1.391 . S
C568 C570 1.394 . S
C568 H584 0.931 . S
C569 C568 1.391 . S
C569 C573 1.376 . S
C570 C568 1.394 . S
C570 C571 1.369 . S
C570 C574 1.531 . S
C571 C570 1.369 . S
C571 C572 1.410 . S
C571 C579 1.503 . S
C572 C571 1.410 . S
C572 C573 1.392 . S
C572 C575 1.511 . S
C573 C569 1.376 . S
C573 C572 1.392 . S
C573 H585 0.929 . S
C574 C570 1.531 . S
C574 H586 0.960 . S
C574 H587 0.962 . S
C574 H588 0.960 . S
C575 C572 1.511 . S
C575 H589 0.961 . S
C575 H590 0.961 . S
C575 H591 0.961 . S
C576 C577 1.370 . S
C576 C578 1.363 . S
C576 H592 0.931 . S
C577 C576 1.370 . S
C577 C581 1.408 . S
C578 C576 1.363 . S
C578 C579 1.370 . S
C578 C582 1.524 . S
C579 C571 1.503 . S
C579 C578 1.370 . S
C579 C580 1.403 . S
C580 C579 1.403 . S
C580 C581 1.404 . S
C580 C583 1.539 . S
C581 C577 1.408 . S
C581 C580 1.404 . S
C581 H593 0.930 . S
C582 C578 1.524 . S
C582 H594 0.956 . S
C582 H595 0.961 . S
C582 H596 0.961 . S
C583 C580 1.539 . S
C583 H597 0.958 . S
C583 H598 0.961 . S
C583 H599 0.960 . S
H584 C568 0.931 . S
H585 C573 0.929 . S
H586 C574 0.960 . S
H587 C574 0.962 . S
H588 C574 0.960 . S
H589 C575 0.961 . S
H590 C575 0.961 . S
H591 C575 0.961 . S
H592 C576 0.931 . S
H593 C581 0.930 . S
H594 C582 0.956 . S
H595 C582 0.961 . S
H596 C582 0.961 . S
H597 C583 0.958 . S
H598 C583 0.961 . S
H599 C583 0.960 . S
C600 C601 1.391 . S
C600 C602 1.394 . S
C600 H616 0.931 . S
C601 C600 1.391 . S
C601 C605 1.376 . S
C602 C600 1.394 . S
C602 C603 1.369 . S
C602 C606 1.531 1_556 S
C603 C602 1.369 . S
C603 C604 1.410 . S
C603 C611 1.503 . S
C604 C603 1.410 . S
C604 C605 1.392 . S
C604 C607 1.511 . S
C605 C601 1.376 . S
C605 C604 1.392 . S
C605 H617 0.929 . S
C606 C602 1.531 1_554 S
C606 H618 0.960 1_554 S
C606 H619 0.962 . S
C606 H620 0.960 . S
C607 C604 1.511 . S
C607 H621 0.961 . S
C607 H622 0.961 . S
C607 H623 0.961 . S
C608 C609 1.370 . S
C608 C610 1.363 . S
C608 H624 0.931 . S
C609 C608 1.370 . S
C609 C613 1.408 . S
C610 C608 1.363 . S
C610 C611 1.370 . S
C610 C614 1.524 . S
C611 C603 1.503 . S
C611 C610 1.370 . S
C611 C612 1.403 . S
C612 C611 1.403 . S
C612 C613 1.404 . S
C612 C615 1.539 . S
C613 C609 1.408 . S
C613 C612 1.404 . S
C613 H625 0.930 . S
C614 C610 1.524 . S
C614 H626 0.956 . S
C614 H627 0.961 . S
C614 H628 0.961 . S
C615 C612 1.539 . S
C615 H629 0.958 . S
C615 H630 0.961 . S
C615 H631 0.960 . S
H616 C600 0.931 . S
H617 C605 0.929 . S
H618 C606 0.960 1_556 S
H619 C606 0.962 . S
H620 C606 0.960 . S
H621 C607 0.961 . S
H622 C607 0.961 . S
H623 C607 0.961 . S
H624 C608 0.931 . S
H625 C613 0.930 . S
H626 C614 0.956 . S
H627 C614 0.961 . S
H628 C614 0.961 . S
H629 C615 0.958 . S
H630 C615 0.961 . S
H631 C615 0.960 . S
C632 C633 1.391 1_556 S
C632 C634 1.394 . S
C632 H648 0.931 . S
C633 C632 1.391 1_554 S
C633 C637 1.376 1_655 S
C634 C632 1.394 . S
C634 C635 1.369 1_656 S
C634 C638 1.531 . S
C635 C634 1.369 1_454 S
C635 C636 1.410 . S
C635 C643 1.503 1_554 S
C636 C635 1.410 . S
C636 C637 1.392 . S
C636 C639 1.511 . S
C637 C633 1.376 1_455 S
C637 C636 1.392 . S
C637 H649 0.929 . S
C638 C634 1.531 . S
C638 H650 0.960 . S
C638 H651 0.962 1_655 S
C638 H652 0.960 . S
C639 C636 1.511 . S
C639 H653 0.961 . S
C639 H654 0.961 . S
C639 H655 0.961 1_455 S
C640 C641 1.370 . S
C640 C642 1.363 . S
C640 H656 0.931 . S
C641 C640 1.370 . S
C641 C645 1.408 1_455 S
C642 C640 1.363 . S
C642 C643 1.370 . S
C642 C646 1.524 . S
C643 C635 1.503 1_556 S
C643 C642 1.370 . S
C643 C644 1.403 1_456 S
C644 C643 1.403 1_654 S
C644 C645 1.404 1_554 S
C644 C647 1.539 . S
C645 C641 1.408 1_655 S
C645 C644 1.404 1_556 S
C645 H657 0.930 . S
C646 C642 1.524 . S
C646 H658 0.956 . S
C646 H659 0.961 1_556 S
C646 H660 0.961 . S
C647 C644 1.539 . S
C647 H661 0.958 1_554 S
C647 H662 0.961 . S
C647 H663 0.960 . S
H648 C632 0.931 . S
H649 C637 0.929 . S
H650 C638 0.960 . S
H651 C638 0.962 1_455 S
H652 C638 0.960 . S
H653 C639 0.961 . S
H654 C639 0.961 . S
H655 C639 0.961 1_655 S
H656 C640 0.931 . S
H657 C645 0.930 . S
H658 C646 0.956 . S
H659 C646 0.961 1_554 S
H660 C646 0.961 . S
H661 C647 0.958 1_556 S
H662 C647 0.961 . S
H663 C647 0.960 . S
C664 C665 1.391 . S
C664 C666 1.394 . S
C664 H680 0.931 . S
C665 C664 1.391 . S
C665 C669 1.376 . S
C666 C664 1.394 . S
C666 C667 1.369 . S
C666 C670 1.531 . S
C667 C666 1.369 . S
C667 C668 1.410 . S
C667 C675 1.503 1_554 S
C668 C667 1.410 . S
C668 C669 1.392 . S
C668 C671 1.511 1_564 S
C669 C665 1.376 . S
C669 C668 1.392 . S
C669 H681 0.929 . S
C670 C666 1.531 . S
C670 H682 0.960 . S
C670 H683 0.962 1_554 S
C670 H684 0.960 . S
C671 C668 1.511 1_546 S
C671 H685 0.961 . S
C671 H686 0.961 . S
C671 H687 0.961 1_556 S
C672 C673 1.349 1_565 S
C672 C674 1.387 . S
C672 H688 0.930 1_565 S
C673 C672 1.349 1_545 S
C673 C677 1.410 1_556 S
C674 C672 1.387 . S
C674 C675 1.370 . S
C674 C678 1.524 . S
C675 C667 1.503 1_556 S
C675 C674 1.370 . S
C675 C676 1.403 1_556 S
C676 C675 1.403 1_554 S
C676 C677 1.394 1_565 S
C676 C679 1.539 . S
C677 C673 1.410 1_554 S
C677 C676 1.394 1_545 S
C677 H689 0.939 . S
C678 C674 1.524 . S
C678 H690 0.956 . S
C678 H691 0.961 . S
C678 H692 0.961 . S
C679 C676 1.539 . S
C679 H693 0.958 . S
C679 H694 0.961 . S
C679 H695 0.960 . S
H680 C664 0.931 . S
H681 C669 0.929 . S
H682 C670 0.960 . S
H683 C670 0.962 1_556 S
H684 C670 0.960 . S
H685 C671 0.961 . S
H686 C671 0.961 . S
H687 C671 0.961 1_554 S
H688 C672 0.930 1_545 S
H689 C677 0.939 . S
H690 C678 0.956 . S
H691 C678 0.961 . S
H692 C678 0.961 . S
H693 C679 0.958 . S
H694 C679 0.961 . S
H695 C679 0.960 . S
C696 C697 1.391 . S
C696 C698 1.394 . S
C696 H712 0.931 . S
C697 C696 1.391 . S
C697 C701 1.376 . S
C698 C696 1.394 . S
C698 C699 1.369 . S
C698 C702 1.531 . S
C699 C698 1.369 . S
C699 C700 1.410 . S
C699 C707 1.503 . S
C700 C699 1.410 . S
C700 C701 1.392 . S
C700 C703 1.511 . S
C701 C697 1.376 . S
C701 C700 1.392 . S
C701 H713 0.929 . S
C702 C698 1.531 . S
C702 H714 0.960 . S
C702 H715 0.962 . S
C702 H716 0.960 . S
C703 C700 1.511 . S
C703 H717 0.961 . S
C703 H718 0.961 . S
C703 H719 0.961 . S
C704 C705 1.370 . S
C704 C706 1.363 . S
C704 H720 0.931 . S
C705 C704 1.370 . S
C705 C709 1.408 . S
C706 C704 1.363 . S
C706 C707 1.370 . S
C706 C710 1.524 . S
C707 C699 1.503 . S
C707 C706 1.370 . S
C707 C708 1.403 . S
C708 C707 1.403 . S
C708 C709 1.404 . S
C708 C711 1.539 . S
C709 C705 1.408 . S
C709 C708 1.404 . S
C709 H721 0.930 . S
C710 C706 1.524 . S
C710 H722 0.956 . S
C710 H723 0.961 . S
C710 H724 0.961 . S
C711 C708 1.539 . S
C711 H725 0.958 . S
C711 H726 0.961 . S
C711 H727 0.960 . S
H712 C696 0.931 . S
H713 C701 0.929 . S
H714 C702 0.960 . S
H715 C702 0.962 . S
H716 C702 0.960 . S
H717 C703 0.961 . S
H718 C703 0.961 . S
H719 C703 0.961 . S
H720 C704 0.931 . S
H721 C709 0.930 . S
H722 C710 0.956 . S
H723 C710 0.961 . S
H724 C710 0.961 . S
H725 C711 0.958 . S
H726 C711 0.961 . S
H727 C711 0.960 . S
C728 C729 1.391 . S
C728 C730 1.394 . S
C728 H744 0.931 . S
C729 C728 1.391 . S
C729 C733 1.376 . S
C730 C728 1.394 . S
C730 C731 1.369 . S
C730 C734 1.531 . S
C731 C730 1.369 . S
C731 C732 1.410 . S
C731 C739 1.503 . S
C732 C731 1.410 . S
C732 C733 1.392 . S
C732 C735 1.511 . S
C733 C729 1.376 . S
C733 C732 1.392 . S
C733 H745 0.929 . S
C734 C730 1.531 . S
C734 H746 0.960 . S
C734 H747 0.962 1_556 S
C734 H748 0.960 . S
C735 C732 1.511 . S
C735 H749 0.961 . S
C735 H750 0.961 . S
C735 H751 0.961 . S
C736 C737 1.370 . S
C736 C738 1.363 . S
C736 H752 0.931 1_556 S
C737 C736 1.370 . S
C737 C741 1.408 . S
C738 C736 1.363 . S
C738 C739 1.370 . S
C738 C742 1.524 1_556 S
C739 C731 1.503 . S
C739 C738 1.370 . S
C739 C740 1.403 . S
C740 C739 1.403 . S
C740 C741 1.404 . S
C740 C743 1.539 . S
C741 C737 1.408 . S
C741 C740 1.404 . S
C741 H753 0.930 . S
C742 C738 1.524 1_554 S
C742 H754 0.956 . S
C742 H755 0.961 . S
C742 H756 0.961 . S
C743 C740 1.539 . S
C743 H757 0.958 . S
C743 H758 0.961 . S
C743 H759 0.960 . S
H744 C728 0.931 . S
H745 C733 0.929 . S
H746 C734 0.960 . S
H747 C734 0.962 1_554 S
H748 C734 0.960 . S
H749 C735 0.961 . S
H750 C735 0.961 . S
H751 C735 0.961 . S
H752 C736 0.931 1_554 S
H753 C741 0.930 . S
H754 C742 0.956 . S
H755 C742 0.961 . S
H756 C742 0.961 . S
H757 C743 0.958 . S
H758 C743 0.961 . S
H759 C743 0.960 . S
C760 C761 1.391 . S
C760 C762 1.394 . S
C760 H776 0.931 . S
C761 C760 1.391 . S
C761 C765 1.376 . S
C762 C760 1.394 . S
C762 C763 1.369 . S
C762 C766 1.531 . S
C763 C762 1.369 . S
C763 C764 1.410 . S
C763 C771 1.503 . S
C764 C763 1.410 . S
C764 C765 1.392 . S
C764 C767 1.511 . S
C765 C761 1.376 . S
C765 C764 1.392 . S
C765 H777 0.929 . S
C766 C762 1.531 . S
C766 H778 0.960 . S
C766 H779 0.962 . S
C766 H780 0.960 . S
C767 C764 1.511 . S
C767 H781 0.961 . S
C767 H782 0.961 . S
C767 H783 0.961 1_455 S
C768 C769 1.370 . S
C768 C770 1.363 . S
C768 H784 0.931 . S
C769 C768 1.370 . S
C769 C773 1.408 . S
C770 C768 1.363 . S
C770 C771 1.370 . S
C770 C774 1.524 . S
C771 C763 1.503 . S
C771 C770 1.370 . S
C771 C772 1.403 . S
C772 C771 1.403 . S
C772 C773 1.404 . S
C772 C775 1.539 . S
C773 C769 1.408 . S
C773 C772 1.404 . S
C773 H785 0.930 . S
C774 C770 1.524 . S
C774 H786 0.956 . S
C774 H787 0.961 . S
C774 H788 0.961 . S
C775 C772 1.539 . S
C775 H789 0.958 . S
C775 H790 0.961 1_455 S
C775 H791 0.960 . S
H776 C760 0.931 . S
H777 C765 0.929 . S
H778 C766 0.960 . S
H779 C766 0.962 . S
H780 C766 0.960 . S
H781 C767 0.961 . S
H782 C767 0.961 . S
H783 C767 0.961 1_655 S
H784 C768 0.931 . S
H785 C773 0.930 . S
H786 C774 0.956 . S
H787 C774 0.961 . S
H788 C774 0.961 . S
H789 C775 0.958 . S
H790 C775 0.961 1_655 S
H791 C775 0.960 . S
C792 C793 1.391 . S
C792 C794 1.394 . S
C792 H808 0.931 . S
C793 C792 1.391 . S
C793 C797 1.376 . S
C794 C792 1.394 . S
C794 C795 1.369 . S
C794 C798 1.531 . S
C795 C794 1.369 . S
C795 C796 1.410 . S
C795 C803 1.503 . S
C796 C795 1.410 . S
C796 C797 1.392 . S
C796 C799 1.511 . S
C797 C793 1.376 . S
C797 C796 1.392 . S
C797 H809 0.929 . S
C798 C794 1.531 . S
C798 H810 0.960 . S
C798 H811 0.962 . S
C798 H812 0.960 . S
C799 C796 1.511 . S
C799 H813 0.961 . S
C799 H814 0.961 . S
C799 H815 0.961 . S
C800 C801 1.370 . S
C800 C802 1.363 . S
C800 H816 0.931 . S
C801 C800 1.370 . S
C801 C805 1.408 . S
C802 C800 1.363 . S
C802 C803 1.370 . S
C802 C806 1.524 . S
C803 C795 1.503 . S
C803 C802 1.370 . S
C803 C804 1.403 . S
C804 C803 1.403 . S
C804 C805 1.404 . S
C804 C807 1.539 . S
C805 C801 1.408 . S
C805 C804 1.404 . S
C805 H817 0.930 . S
C806 C802 1.524 . S
C806 H818 0.956 . S
C806 H819 0.961 . S
C806 H820 0.961 . S
C807 C804 1.539 . S
C807 H821 0.958 . S
C807 H822 0.961 . S
C807 H823 0.960 . S
H808 C792 0.931 . S
H809 C797 0.929 . S
H810 C798 0.960 . S
H811 C798 0.962 . S
H812 C798 0.960 . S
H813 C799 0.961 . S
H814 C799 0.961 . S
H815 C799 0.961 . S
H816 C800 0.931 . S
H817 C805 0.930 . S
H818 C806 0.956 . S
H819 C806 0.961 . S
H820 C806 0.961 . S
H821 C807 0.958 . S
H822 C807 0.961 . S
H823 C807 0.960 . S
C824 C825 1.391 . S
C824 C826 1.394 . S
C824 H840 0.931 . S
C825 C824 1.391 . S
C825 C829 1.376 . S
C826 C824 1.394 . S
C826 C827 1.369 . S
C826 C830 1.531 . S
C827 C826 1.369 . S
C827 C828 1.410 . S
C827 C835 1.503 . S
C828 C827 1.410 . S
C828 C829 1.392 . S
C828 C831 1.511 . S
C829 C825 1.376 . S
C829 C828 1.392 . S
C829 H841 0.929 . S
C830 C826 1.531 . S
C830 H842 0.960 . S
C830 H843 0.962 . S
C830 H844 0.960 . S
C831 C828 1.511 . S
C831 H845 0.961 . S
C831 H846 0.961 . S
C831 H847 0.961 . S
C832 C833 1.370 . S
C832 C834 1.363 . S
C832 H848 0.931 . S
C833 C832 1.370 . S
C833 C837 1.408 1_554 S
C834 C832 1.363 . S
C834 C835 1.370 . S
C834 C838 1.524 . S
C835 C827 1.503 . S
C835 C834 1.370 . S
C835 C836 1.403 . S
C836 C835 1.403 . S
C836 C837 1.404 1_554 S
C836 C839 1.539 1_554 S
C837 C833 1.408 1_556 S
C837 C836 1.404 1_556 S
C837 H849 0.930 . S
C838 C834 1.524 . S
C838 H850 0.956 . S
C838 H851 0.961 . S
C838 H852 0.961 . S
C839 C836 1.539 1_556 S
C839 H853 0.958 . S
C839 H854 0.961 . S
C839 H855 0.960 1_556 S
H840 C824 0.931 . S
H841 C829 0.929 . S
H842 C830 0.960 . S
H843 C830 0.962 . S
H844 C830 0.960 . S
H845 C831 0.961 . S
H846 C831 0.961 . S
H847 C831 0.961 . S
H848 C832 0.931 . S
H849 C837 0.930 . S
H850 C838 0.956 . S
H851 C838 0.961 . S
H852 C838 0.961 . S
H853 C839 0.958 . S
H854 C839 0.961 . S
H855 C839 0.960 1_554 S
C856 C857 1.391 . S
C856 C858 1.394 . S
C856 H872 0.931 . S
C857 C856 1.391 . S
C857 C861 1.376 . S
C858 C856 1.394 . S
C858 C859 1.369 . S
C858 C862 1.531 . S
C859 C858 1.369 . S
C859 C860 1.410 . S
C859 C867 1.503 . S
C860 C859 1.410 . S
C860 C861 1.392 . S
C860 C863 1.511 . S
C861 C857 1.376 . S
C861 C860 1.392 . S
C861 H873 0.929 . S
C862 C858 1.531 . S
C862 H874 0.960 . S
C862 H875 0.962 . S
C862 H876 0.960 . S
C863 C860 1.511 . S
C863 H877 0.961 . S
C863 H878 0.961 . S
C863 H879 0.961 . S
C864 C865 1.370 . S
C864 C866 1.363 . S
C864 H880 0.931 . S
C865 C864 1.370 . S
C865 C869 1.408 . S
C866 C864 1.363 . S
C866 C867 1.370 . S
C866 C870 1.524 . S
C867 C859 1.503 . S
C867 C866 1.370 . S
C867 C868 1.403 . S
C868 C867 1.403 . S
C868 C869 1.404 . S
C868 C871 1.539 . S
C869 C865 1.408 . S
C869 C868 1.404 . S
C869 H881 0.930 . S
C870 C866 1.524 . S
C870 H882 0.956 . S
C870 H883 0.961 . S
C870 H884 0.961 . S
C871 C868 1.539 . S
C871 H885 0.958 . S
C871 H886 0.961 . S
C871 H887 0.960 . S
H872 C856 0.931 . S
H873 C861 0.929 . S
H874 C862 0.960 . S
H875 C862 0.962 . S
H876 C862 0.960 . S
H877 C863 0.961 . S
H878 C863 0.961 . S
H879 C863 0.961 . S
H880 C864 0.931 . S
H881 C869 0.930 . S
H882 C870 0.956 . S
H883 C870 0.961 . S
H884 C870 0.961 . S
H885 C871 0.958 . S
H886 C871 0.961 . S
H887 C871 0.960 . S
C888 C889 1.391 . S
C888 C890 1.394 . S
C888 H904 0.931 . S
C889 C888 1.391 . S
C889 C893 1.376 . S
C890 C888 1.394 . S
C890 C891 1.369 . S
C890 C894 1.531 . S
C891 C890 1.369 . S
C891 C892 1.410 . S
C891 C899 1.503 . S
C892 C891 1.410 . S
C892 C893 1.392 . S
C892 C895 1.511 . S
C893 C889 1.376 . S
C893 C892 1.392 . S
C893 H905 0.929 . S
C894 C890 1.531 . S
C894 H906 0.960 . S
C894 H907 0.962 1_655 S
C894 H908 0.960 . S
C895 C892 1.511 . S
C895 H909 0.961 1_655 S
C895 H910 0.961 1_655 S
C895 H911 0.961 . S
C896 C897 1.370 . S
C896 C898 1.363 . S
C896 H912 0.931 . S
C897 C896 1.370 . S
C897 C901 1.408 1_455 S
C898 C896 1.363 . S
C898 C899 1.370 1_455 S
C898 C902 1.524 . S
C899 C891 1.503 . S
C899 C898 1.370 1_655 S
C899 C900 1.403 . S
C900 C899 1.403 . S
C900 C901 1.404 . S
C900 C903 1.539 . S
C901 C897 1.408 1_655 S
C901 C900 1.404 . S
C901 H913 0.930 . S
C902 C898 1.524 . S
C902 H914 0.956 . S
C902 H915 0.961 . S
C902 H916 0.961 . S
C903 C900 1.539 . S
C903 H917 0.958 . S
C903 H918 0.961 . S
C903 H919 0.960 . S
H904 C888 0.931 . S
H905 C893 0.929 . S
H906 C894 0.960 . S
H907 C894 0.962 1_455 S
H908 C894 0.960 . S
H909 C895 0.961 1_455 S
H910 C895 0.961 1_455 S
H911 C895 0.961 . S
H912 C896 0.931 . S
H913 C901 0.930 . S
H914 C902 0.956 . S
H915 C902 0.961 . S
H916 C902 0.961 . S
H917 C903 0.958 . S
H918 C903 0.961 . S
H919 C903 0.960 . S
C920 C921 1.391 . S
C920 C922 1.394 . S
C920 H936 0.931 . S
C921 C920 1.391 . S
C921 C925 1.376 . S
C922 C920 1.394 . S
C922 C923 1.369 . S
C922 C926 1.531 . S
C923 C922 1.369 . S
C923 C924 1.410 . S
C923 C931 1.503 . S
C924 C923 1.410 . S
C924 C925 1.392 . S
C924 C927 1.511 . S
C925 C921 1.376 . S
C925 C924 1.392 . S
C925 H937 0.929 . S
C926 C922 1.531 . S
C926 H938 0.960 . S
C926 H939 0.962 . S
C926 H940 0.960 . S
C927 C924 1.511 . S
C927 H941 0.961 . S
C927 H942 0.961 . S
C927 H943 0.961 . S
C928 C929 1.370 . S
C928 C930 1.363 . S
C928 H944 0.931 . S
C929 C928 1.370 . S
C929 C933 1.408 . S
C930 C928 1.363 . S
C930 C931 1.370 . S
C930 C934 1.524 . S
C931 C923 1.503 . S
C931 C930 1.370 . S
C931 C932 1.403 . S
C932 C931 1.403 . S
C932 C933 1.404 . S
C932 C935 1.539 . S
C933 C929 1.408 . S
C933 C932 1.404 . S
C933 H945 0.930 . S
C934 C930 1.524 . S
C934 H946 0.956 . S
C934 H947 0.961 . S
C934 H948 0.976 . S
C935 C932 1.539 . S
C935 H949 0.958 . S
C935 H950 0.961 . S
C935 H951 0.960 . S
H936 C920 0.931 . S
H937 C925 0.929 . S
H938 C926 0.960 . S
H939 C926 0.962 . S
H940 C926 0.960 . S
H941 C927 0.961 . S
H942 C927 0.961 . S
H943 C927 0.961 . S
H944 C928 0.931 . S
H945 C933 0.930 . S
H946 C934 0.956 . S
H947 C934 0.961 . S
H948 C934 0.976 . S
H949 C935 0.958 . S
H950 C935 0.961 . S
H951 C935 0.960 . S
C952 C953 1.391 . S
C952 C954 1.394 . S
C952 H968 0.931 . S
C953 C952 1.391 . S
C953 C957 1.376 . S
C954 C952 1.394 . S
C954 C955 1.369 . S
C954 C958 1.531 . S
C955 C954 1.369 . S
C955 C956 1.410 . S
C955 C963 1.503 . S
C956 C955 1.410 . S
C956 C957 1.392 . S
C956 C959 1.511 . S
C957 C953 1.376 . S
C957 C956 1.392 . S
C957 H969 0.929 . S
C958 C954 1.531 . S
C958 H970 0.960 . S
C958 H971 0.962 . S
C958 H972 0.960 . S
C959 C956 1.511 . S
C959 H973 0.961 . S
C959 H974 0.961 . S
C959 H975 0.961 . S
C960 C961 1.370 . S
C960 C962 1.363 . S
C960 H976 0.931 . S
C961 C960 1.370 . S
C961 C965 1.408 . S
C962 C960 1.363 . S
C962 C963 1.370 . S
C962 C966 1.524 . S
C963 C955 1.503 . S
C963 C962 1.370 . S
C963 C964 1.403 . S
C964 C963 1.403 . S
C964 C965 1.404 . S
C964 C967 1.539 . S
C965 C961 1.408 . S
C965 C964 1.404 . S
C965 H977 0.930 . S
C966 C962 1.524 . S
C966 H978 0.956 . S
C966 H979 0.961 . S
C966 H980 0.961 . S
C967 C964 1.539 . S
C967 H981 0.958 . S
C967 H982 0.961 . S
C967 H983 0.960 . S
H968 C952 0.931 . S
H969 C957 0.929 . S
H970 C958 0.960 . S
H971 C958 0.962 . S
H972 C958 0.960 . S
H973 C959 0.961 . S
H974 C959 0.961 . S
H975 C959 0.961 . S
H976 C960 0.931 . S
H977 C965 0.930 . S
H978 C966 0.956 . S
H979 C966 0.961 . S
H980 C966 0.961 . S
H981 C967 0.958 . S
H982 C967 0.961 . S
H983 C967 0.960 . S
C984 C985 1.391 . S
C984 C986 1.394 . S
C984 H1000 0.931 . S
C985 C984 1.391 . S
C985 C989 1.376 . S
C986 C984 1.394 . S
C986 C987 1.369 . S
C986 C990 1.531 . S
C987 C986 1.369 . S
C987 C988 1.410 . S
C987 C995 1.503 . S
C988 C987 1.410 . S
C988 C989 1.392 . S
C988 C991 1.511 . S
C989 C985 1.376 . S
C989 C988 1.392 . S
C989 H1001 0.929 . S
C990 C986 1.531 . S
C990 H1002 0.960 . S
C990 H1003 0.962 . S
C990 H1004 0.960 . S
C991 C988 1.511 . S
C991 H1005 0.961 . S
C991 H1006 0.961 . S
C991 H1007 0.961 . S
C992 C993 1.370 . S
C992 C994 1.363 . S
C992 H1008 0.931 . S
C993 C992 1.370 . S
C993 C997 1.408 . S
C994 C992 1.363 . S
C994 C995 1.370 . S
C994 C998 1.524 . S
C995 C987 1.503 . S
C995 C994 1.370 . S
C995 C996 1.403 . S
C996 C995 1.403 . S
C996 C997 1.404 . S
C996 C999 1.539 . S
C997 C993 1.408 . S
C997 C996 1.404 . S
C997 H1009 0.930 . S
C998 C994 1.524 . S
C998 H1010 0.956 . S
C998 H1011 0.961 . S
C998 H1012 0.961 . S
C999 C996 1.539 . S
C999 H1013 0.958 . S
C999 H1014 0.961 . S
C999 H1015 0.960 . S
H1000 C984 0.931 . S
H1001 C989 0.929 . S
H1002 C990 0.960 . S
H1003 C990 0.962 . S
H1004 C990 0.960 . S
H1005 C991 0.961 . S
H1006 C991 0.961 . S
H1007 C991 0.961 . S
H1008 C992 0.931 . S
H1009 C997 0.930 . S
H1010 C998 0.956 . S
H1011 C998 0.961 . S
H1012 C998 0.961 . S
H1013 C999 0.958 . S
H1014 C999 0.961 . S
H1015 C999 0.960 . S
C249 C76 1.669 . S
C257 C97 1.666 . S
C289 C137 1.279 . S
C281 C87 1.373 . S
C321 C186 1.338 . S
C313 C54 1.353 . S
C353 C217 1.652 . S
C345 C65 1.721 . S
C385 C106 1.662 1_565 S
C377 C32 1.696 . S
C409 C43 1.352 . S
C417 C146 1.289 . S
C441 C10 1.367 . S
C449 C177 1.310 . S
C473 C21 1.734 1_455 S
C481 C226 1.639 . S
C513 C107 0.938 . S
C505 C60 0.847 . S
C545 C147 1.494 . S
C537 C71 1.372 . S
C577 C183 0.757 . S
C569 C82 0.737 . S
C601 C49 1.002 . S
C609 C227 1.137 . S
C633 C16 0.891 . S
C641 C98 0.939 . S
C673 C138 1.492 . S
C665 C27 1.272 . S
C705 C174 0.783 . S
C697 C38 0.800 . S
C729 C5 1.090 . S
C737 C218 1.134 . S
C761 C59 1.608 . S
C769 C103 1.660 . S
C793 C70 1.426 . S
C801 C143 1.430 . S
C833 C187 1.941 1_554 S
C825 C81 1.809 . S
C865 C223 1.421 . S
C857 C48 1.431 . S
C889 C15 1.628 . S
C897 C94 1.666 . S
C929 C134 1.430 . S
C921 C26 1.434 . S
C961 C178 1.940 . S
C953 C37 1.772 . S
C985 C4 1.416 . S
C993 C214 1.419 . S
