# Generated by pormake.
# Topology nom, (4,4)-cn, num edge types: 1
# Building blocks:
#     Node 0, Type 0, BuildingBlock: NAHDIM_clean_linker_0, # of connection points: 4
#     Node 1, Type 0, BuildingBlock: NAHDIM_clean_linker_0, # of connection points: 4
#     Node 2, Type 0, BuildingBlock: NAHDIM_clean_linker_0, # of connection points: 4
#     Node 3, Type 0, BuildingBlock: NAHDIM_clean_linker_0, # of connection points: 4
#     Node 4, Type 0, BuildingBlock: NAHDIM_clean_linker_0, # of connection points: 4
#     Node 5, Type 0, BuildingBlock: NAHDIM_clean_linker_0, # of connection points: 4
#     Node 6, Type 1, BuildingBlock: QUQFOY_clean_sbu_3, # of connection points: 4
#     Node 7, Type 1, BuildingBlock: QUQFOY_clean_sbu_3, # of connection points: 4
#     Node 8, Type 1, BuildingBlock: QUQFOY_clean_sbu_3, # of connection points: 4
#     Node 9, Type 1, BuildingBlock: QUQFOY_clean_sbu_3, # of connection points: 4
#     Node 10, Type 1, BuildingBlock: QUQFOY_clean_sbu_3, # of connection points: 4
#     Node 11, Type 1, BuildingBlock: QUQFOY_clean_sbu_3, # of connection points: 4
#     Edge 12, Type (0, 1), BuildingBlock: KIFKEQ_clean_linker_1, # of connection points: 2
#     Edge 13, Type (0, 1), BuildingBlock: KIFKEQ_clean_linker_1, # of connection points: 2
#     Edge 14, Type (0, 1), BuildingBlock: KIFKEQ_clean_linker_1, # of connection points: 2
#     Edge 15, Type (0, 1), BuildingBlock: KIFKEQ_clean_linker_1, # of connection points: 2
#     Edge 16, Type (0, 1), BuildingBlock: KIFKEQ_clean_linker_1, # of connection points: 2
#     Edge 17, Type (0, 1), BuildingBlock: KIFKEQ_clean_linker_1, # of connection points: 2
#     Edge 18, Type (0, 1), BuildingBlock: KIFKEQ_clean_linker_1, # of connection points: 2
#     Edge 19, Type (0, 1), BuildingBlock: KIFKEQ_clean_linker_1, # of connection points: 2
#     Edge 20, Type (0, 1), BuildingBlock: KIFKEQ_clean_linker_1, # of connection points: 2
#     Edge 21, Type (0, 1), BuildingBlock: KIFKEQ_clean_linker_1, # of connection points: 2
#     Edge 22, Type (0, 1), BuildingBlock: KIFKEQ_clean_linker_1, # of connection points: 2
#     Edge 23, Type (0, 1), BuildingBlock: KIFKEQ_clean_linker_1, # of connection points: 2
#     Edge 24, Type (0, 1), BuildingBlock: KIFKEQ_clean_linker_1, # of connection points: 2
#     Edge 25, Type (0, 1), BuildingBlock: KIFKEQ_clean_linker_1, # of connection points: 2
#     Edge 26, Type (0, 1), BuildingBlock: KIFKEQ_clean_linker_1, # of connection points: 2
#     Edge 27, Type (0, 1), BuildingBlock: KIFKEQ_clean_linker_1, # of connection points: 2
#     Edge 28, Type (0, 1), BuildingBlock: KIFKEQ_clean_linker_1, # of connection points: 2
#     Edge 29, Type (0, 1), BuildingBlock: KIFKEQ_clean_linker_1, # of connection points: 2
#     Edge 30, Type (0, 1), BuildingBlock: KIFKEQ_clean_linker_1, # of connection points: 2
#     Edge 31, Type (0, 1), BuildingBlock: KIFKEQ_clean_linker_1, # of connection points: 2
#     Edge 32, Type (0, 1), BuildingBlock: KIFKEQ_clean_linker_1, # of connection points: 2
#     Edge 33, Type (0, 1), BuildingBlock: KIFKEQ_clean_linker_1, # of connection points: 2
#     Edge 34, Type (0, 1), BuildingBlock: KIFKEQ_clean_linker_1, # of connection points: 2
#     Edge 35, Type (0, 1), BuildingBlock: KIFKEQ_clean_linker_1, # of connection points: 2
# Relax obj value: 0.048
# Max RMSD: 0.130
# Mean RMSD: 0.099
data_MOF--net-nom--node1-QUQFOY_clean_sbu_3--node2-NAHDIM_clean_linker_0--edge1-KIFKEQ_clean_linker_1
_symmetry_space_group_name_H-M    P1
_symmetry_Int_Tables_number       1
_symmetry_cell_setting            triclinic
loop_
_symmetry_equiv_pos_as_xyz
'x, y, z'
_cell_length_a     58.525245
_cell_length_b     59.900038
_cell_length_c     71.327778
_cell_angle_alpha  90.123626
_cell_angle_beta   90.127634
_cell_angle_gamma 120.0028
loop_
_atom_site_label
_atom_site_type_symbol
_atom_site_fract_x
_atom_site_fract_y
_atom_site_fract_z
_atom_type_partial_charge
C0 C 0.15939 0.59118 0.24477 0.0
C1 C 0.16894 0.60205 0.26456 0.0
C2 C 0.12565 0.58712 0.27919 0.0
C3 C 0.1188 0.56124 0.28175 0.0
C4 C 0.09309 0.54266 0.28695 0.0
C5 C 0.07378 0.55003 0.2894 0.0
C6 C 0.0807 0.57612 0.28698 0.0
C7 C 0.1067 0.59437 0.28222 0.0
C8 C 0.0865 0.51509 0.28967 0.0
C9 C 0.06058 0.5847 0.28914 0.0
C10 C 0.98237 0.45533 0.18903 0.0
C11 C 0.96087 0.45895 0.19835 0.0
C12 C 0.96328 0.45674 0.2321 0.0
C13 C 0.96328 0.47921 0.23766 0.0
C14 C 0.9755 0.4918 0.25445 0.0
C15 C 0.98782 0.48159 0.26589 0.0
C16 C 0.98665 0.4582 0.26076 0.0
C17 C 0.97409 0.44589 0.24395 0.0
C18 C 0.97592 0.51643 0.25971 0.0
C19 C -0.00053 0.44675 0.27272 0.0
C20 C 0.87885 0.43009 0.36418 0.0
C21 C 0.88572 0.45371 0.35566 0.0
C22 C 0.91231 0.47257 0.35328 0.0
C23 C 0.93233 0.46736 0.35912 0.0
C24 C 0.92537 0.44387 0.36828 0.0
C25 C 0.89864 0.42571 0.37096 0.0
C26 C 0.91897 0.49788 0.34427 0.0
C27 C 0.94611 0.43767 0.37482 0.0
C28 C 0.12125 0.62338 0.40811 0.0
C29 C 0.10425 0.59602 0.4157 0.0
C30 C 0.05796 0.57168 0.40701 0.0
C31 C 0.03988 0.57728 0.39857 0.0
C32 C 0.02065 0.55972 0.38612 0.0
C33 C 0.01929 0.53585 0.38246 0.0
C34 C 0.03599 0.52917 0.39235 0.0
C35 C 0.05527 0.54724 0.40451 0.0
C36 C 0.00282 0.56725 0.37605 0.0
C37 C 0.0344 0.5035 0.3893 0.0
C38 C 0.04617 0.53033 0.29394 0.0
C39 C 0.03006 0.51492 0.27932 0.0
C40 C 0.00366 0.49645 0.28238 0.0
C41 C 0.99283 0.49319 0.30053 0.0
C42 C 0.96636 0.47479 0.30411 0.0
C43 C 0.9558 0.4721 0.32198 0.0
C44 C 0.9712 0.48794 0.33691 0.0
C45 C 0.96044 0.48596 0.35501 0.0
C46 C 0.97646 0.50175 0.36958 0.0
C47 C 0.00309 0.51955 0.36658 0.0
C48 C 0.01413 0.52199 0.34855 0.0
C49 C 0.04084 0.53987 0.34505 0.0
C50 C 0.05148 0.54234 0.32727 0.0
C51 C 0.03576 0.52731 0.31221 0.0
C52 C 0.00891 0.50885 0.31547 0.0
C53 C 0.99808 0.50622 0.33367 0.0
C54 C 0.81761 0.37594 0.3507 0.0
C55 C 0.83333 0.40521 0.35323 0.0
O56 O 0.15006 0.60562 0.27363 0.0
O57 O 0.07828 0.59044 0.41697 0.0
O58 O 0.85337 0.41117 0.3661 0.0
O59 O 0.95358 0.44563 0.21516 0.0
H60 H 0.17288 0.58854 0.27275 0.0
H61 H 0.14118 0.57204 0.24544 0.0
H62 H 0.1551 0.60439 0.23652 0.0
H63 H 0.17462 0.58866 0.23734 0.0
H64 H 0.13334 0.55535 0.27973 0.0
H65 H 0.11222 0.6144 0.28031 0.0
H66 H 0.07301 0.50292 0.27829 0.0
H67 H 0.10435 0.51305 0.28948 0.0
H68 H 0.0761 0.5076 0.3032 0.0
H69 H 0.0683 0.60489 0.28444 0.0
H70 H 0.04249 0.57188 0.28096 0.0
H71 H 0.05486 0.58338 0.30409 0.0
H72 H 0.96981 0.48007 0.20078 0.0
H73 H 0.98781 0.46523 0.17524 0.0
H74 H 0.00027 0.46386 0.19807 0.0
H75 H 0.97569 0.43458 0.18696 0.0
H76 H 0.95401 0.48705 0.22875 0.0
H77 H 0.97365 0.42833 0.2396 0.0
H78 H 0.99658 0.53269 0.25963 0.0
H79 H 0.96403 0.52098 0.24993 0.0
H80 H 0.96819 0.51489 0.27414 0.0
H81 H 0.99582 0.42787 0.26723 0.0
H82 H 0.02109 0.46023 0.27332 0.0
H83 H 0.99189 0.44412 0.28728 0.0
H84 H 0.84179 0.41358 0.33927 0.0
H85 H 0.87034 0.45744 0.35094 0.0
H86 H 0.89304 0.40753 0.37778 0.0
H87 H 0.92612 0.4984 0.32979 0.0
H88 H 0.9016 0.50068 0.34353 0.0
H89 H 0.935 0.51423 0.35217 0.0
H90 H 0.93736 0.41772 0.38031 0.0
H91 H 0.95958 0.44004 0.36308 0.0
H92 H 0.95817 0.45134 0.38609 0.0
H93 H 0.10619 0.58308 0.40537 0.0
H94 H 0.14227 0.62845 0.40743 0.0
H95 H 0.11459 0.62453 0.39373 0.0
H96 H 0.1196 0.6377 0.41707 0.0
H97 H 0.04183 0.59604 0.40094 0.0
H98 H 0.06864 0.54255 0.41171 0.0
H99 H 0.00699 0.56875 0.36078 0.0
H100 H 0.98189 0.55211 0.378 0.0
H101 H 0.00549 0.58596 0.38112 0.0
H102 H 0.04594 0.49974 0.39995 0.0
H103 H 0.01354 0.48767 0.38973 0.0
H104 H 0.04226 0.5032 0.3752 0.0
H105 H 0.03813 0.51752 0.26529 0.0
H106 H 0.95352 0.46229 0.29312 0.0
H107 H 0.93532 0.45754 0.3239 0.0
H108 H 0.96812 0.50016 0.38341 0.0
H109 H 0.05389 0.55227 0.35599 0.0
H110 H 0.07216 0.55636 0.32545 0.0
H111 H 0.80847 0.36636 0.36416 0.0
H112 H 0.80184 0.37048 0.33999 0.0
H113 H 0.83091 0.36886 0.34589 0.0
C114 C 0.42114 0.86771 0.57466 0.0
C115 C 0.41563 0.8562 0.55484 0.0
C116 C 0.42855 0.89515 0.53616 0.0
C117 C 0.45579 0.90397 0.53535 0.0
C118 C 0.47361 0.92887 0.52897 0.0
C119 C 0.46416 0.94554 0.52364 0.0
C120 C 0.43675 0.93664 0.52419 0.0
C121 C 0.41929 0.91138 0.53013 0.0
C122 C 0.50264 0.9375 0.52818 0.0
C123 C 0.42596 0.95399 0.5189 0.0
C124 C 0.56974 0.09773 0.62308 0.0
C125 C 0.56509 0.07872 0.60805 0.0
C126 C 0.54631 0.06727 0.57668 0.0
C127 C 0.52593 0.06673 0.56615 0.0
C128 C 0.5148 0.04982 0.55092 0.0
C129 C 0.52521 0.03389 0.54566 0.0
C130 C 0.54634 0.03482 0.55598 0.0
C131 C 0.5565 0.05131 0.57154 0.0
C132 C 0.49178 0.04884 0.54057 0.0
C133 C 0.55826 0.01849 0.5505 0.0
C134 C 0.58144 0.13286 0.44408 0.0
C135 C 0.55577 0.12329 0.45087 0.0
C136 C 0.53912 0.09676 0.4537 0.0
C137 C 0.54862 0.07959 0.45 0.0
C138 C 0.57421 0.08918 0.4425 0.0
C139 C 0.59018 0.11574 0.43936 0.0
C140 C 0.51155 0.08719 0.46094 0.0
C141 C 0.58494 0.07146 0.43827 0.0
C142 C 0.39899 0.88895 0.39777 0.0
C143 C 0.42776 0.90752 0.39254 0.0
C144 C 0.45021 0.95222 0.40356 0.0
C145 C 0.44374 0.96998 0.41082 0.0
C146 C 0.46085 0.98946 0.42316 0.0
C147 C 0.48526 0.99141 0.42793 0.0
C148 C 0.4929 0.97486 0.41932 0.0
C149 C 0.47519 0.95529 0.40723 0.0
C150 C 0.4523 0.00712 0.43182 0.0
C151 C 0.51925 0.97715 0.42358 0.0
C152 C 0.48313 0.97267 0.51851 0.0
C153 C 0.49578 0.99025 0.53309 0.0
C154 C 0.51381 0.01613 0.52945 0.0
C155 C 0.51967 0.02489 0.51075 0.0
C156 C 0.53821 0.05067 0.50661 0.0
C157 C 0.54274 0.05943 0.4882 0.0
C158 C 0.52885 0.04274 0.47323 0.0
C159 C 0.53208 0.05179 0.45456 0.0
C160 C 0.51826 0.03455 0.44 0.0
C161 C 0.50104 0.00845 0.44361 0.0
C162 C 0.49736 0.9991 0.46219 0.0
C163 C 0.47992 0.97296 0.4663 0.0
C164 C 0.47567 0.96413 0.48469 0.0
C165 C 0.48831 0.98116 0.4997 0.0
C166 C 0.50647 0.00743 0.49584 0.0
C167 C 0.51108 0.01639 0.47706 0.0
C168 C 0.63104 0.19025 0.4619 0.0
C169 C 0.60226 0.17699 0.45542 0.0
O170 O 0.41065 0.8714 0.54275 0.0
O171 O 0.43181 0.93238 0.39317 0.0
O172 O 0.59819 0.15851 0.44205 0.0
O173 O 0.55576 0.08353 0.59157 0.0
H174 H 0.43304 0.85511 0.54994 0.0
H175 H 0.43905 0.88714 0.57468 0.0
H176 H 0.40422 0.86953 0.57979 0.0
H177 H 0.42462 0.85531 0.58447 0.0
H178 H 0.46346 0.89168 0.5396 0.0
H179 H 0.39828 0.90441 0.53067 0.0
H180 H 0.51325 0.95216 0.53926 0.0
H181 H 0.50645 0.92128 0.53032 0.0
H182 H 0.51098 0.94662 0.51445 0.0
H183 H 0.40445 0.94488 0.52163 0.0
H184 H 0.43639 0.97237 0.52689 0.0
H185 H 0.42943 0.95877 0.50378 0.0
H186 H 0.58159 0.07474 0.60599 0.0
H187 H 0.54178 0.07586 0.64352 0.0
H188 H 0.59162 0.10782 0.62584 0.0
H189 H 0.57039 0.1149 0.61609 0.0
H190 H 0.51828 0.07918 0.57025 0.0
H191 H 0.57267 0.05199 0.57938 0.0
H192 H 0.49808 0.05691 0.5263 0.0
H193 H 0.4756 0.02856 0.53898 0.0
H194 H 0.48394 0.06 0.54787 0.0
H195 H 0.57637 0.02346 0.5587 0.0
H196 H 0.54364 0.99787 0.55288 0.0
H197 H 0.56322 0.02089 0.53535 0.0
H198 H 0.58994 0.16784 0.46807 0.0
H199 H 0.54878 0.13658 0.45393 0.0
H200 H 0.60995 0.1234 0.43388 0.0
H201 H 0.51047 0.08139 0.47582 0.0
H202 H 0.50574 0.10221 0.46011 0.0
H203 H 0.49706 0.06999 0.45287 0.0
H204 H 0.60581 0.08216 0.43359 0.0
H205 H 0.58357 0.06011 0.45093 0.0
H206 H 0.57285 0.05761 0.42709 0.0
H207 H 0.44028 0.90486 0.40305 0.0
H208 H 0.39502 0.86879 0.39838 0.0
H209 H 0.39479 0.8941 0.41182 0.0
H210 H 0.38541 0.89008 0.38738 0.0
H211 H 0.42463 0.96776 0.40748 0.0
H212 H 0.48076 0.94228 0.40085 0.0
H213 H 0.45083 0.00452 0.44726 0.0
H214 H 0.4673 0.02751 0.429 0.0
H215 H 0.43294 0.00342 0.42631 0.0
H216 H 0.52377 0.96537 0.41386 0.0
H217 H 0.53521 0.9976 0.42267 0.0
H218 H 0.51916 0.97057 0.43813 0.0
H219 H 0.49132 0.98375 0.5475 0.0
H220 H 0.54924 0.06446 0.51757 0.0
H221 H 0.55705 0.07953 0.48588 0.0
H222 H 0.52043 0.04164 0.42575 0.0
H223 H 0.46918 0.95899 0.45539 0.0
H224 H 0.46202 0.94385 0.487 0.0
H225 H 0.64458 0.19973 0.44992 0.0
H226 H 0.63476 0.20497 0.47282 0.0
H227 H 0.63544 0.17576 0.46802 0.0
C228 C 0.58055 0.43757 0.7352 0.0
C229 C 0.57875 0.42672 0.71543 0.0
C230 C 0.54844 0.4385 0.70029 0.0
C231 C 0.56718 0.46438 0.69654 0.0
C232 C 0.55933 0.48162 0.69004 0.0
C233 C 0.53217 0.47304 0.68764 0.0
C234 C 0.51325 0.44698 0.69128 0.0
C235 C 0.52173 0.42997 0.69724 0.0
C236 C 0.58012 0.50915 0.68598 0.0
C237 C 0.48407 0.43721 0.68928 0.0
C238 C 0.56414 0.59942 0.78067 0.0
C239 C 0.53636 0.58357 0.77236 0.0
C240 C 0.52975 0.57752 0.73889 0.0
C241 C 0.50698 0.55315 0.73808 0.0
C242 C 0.50195 0.53698 0.7225 0.0
C243 C 0.52034 0.54528 0.70762 0.0
C244 C 0.54293 0.57026 0.70819 0.0
C245 C 0.54702 0.58629 0.72372 0.0
C246 C 0.47738 0.51075 0.7222 0.0
C247 C 0.56332 0.57963 0.69282 0.0
C248 C 0.46039 0.58984 0.60755 0.0
C249 C 0.44269 0.56663 0.61637 0.0
C250 C 0.44944 0.5475 0.61943 0.0
C251 C 0.47472 0.55209 0.61405 0.0
C252 C 0.49223 0.57517 0.60461 0.0
C253 C 0.48457 0.59356 0.60118 0.0
C254 C 0.42974 0.52261 0.62869 0.0
C255 C 0.51927 0.58074 0.59855 0.0
C256 C 0.50238 0.39813 0.56299 0.0
C257 C 0.51652 0.42597 0.55602 0.0
C258 C 0.49687 0.4512 0.56629 0.0
C259 C 0.47248 0.44483 0.57403 0.0
C260 C 0.47041 0.46081 0.58752 0.0
C261 C 0.49326 0.48399 0.59292 0.0
C262 C 0.51768 0.49134 0.58412 0.0
C263 C 0.51925 0.47473 0.57096 0.0
C264 C 0.44406 0.45251 0.59651 0.0
C265 C 0.54223 0.5164 0.589 0.0
C266 C 0.52361 0.49172 0.68234 0.0
C267 C 0.52431 0.50853 0.69622 0.0
C268 C 0.51719 0.5271 0.69233 0.0
C269 C 0.50841 0.52861 0.67415 0.0
C270 C 0.50039 0.54656 0.66987 0.0
C271 C 0.49232 0.54826 0.65183 0.0
C272 C 0.49163 0.53186 0.63741 0.0
C273 C 0.48333 0.53335 0.61902 0.0
C274 C 0.48371 0.5173 0.60491 0.0
C275 C 0.49209 0.49962 0.60865 0.0
C276 C 0.49978 0.49736 0.62704 0.0
C277 C 0.50779 0.47937 0.63136 0.0
C278 C 0.51568 0.47753 0.64942 0.0
C279 C 0.51569 0.49346 0.66391 0.0
C280 C 0.50781 0.51182 0.65986 0.0
C281 C 0.49964 0.51362 0.64144 0.0
C282 C 0.45521 0.64523 0.61877 0.0
C283 C 0.44123 0.61583 0.61753 0.0
O284 O 0.5551 0.42124 0.707 0.0
O285 O 0.49834 0.43429 0.55442 0.0
O286 O 0.45478 0.60902 0.60499 0.0
O287 O 0.53598 0.59242 0.7545 0.0
H288 H 0.59558 0.44105 0.70693 0.0
H289 H 0.58017 0.45589 0.73453 0.0
H290 H 0.56369 0.42364 0.74389 0.0
H291 H 0.5993 0.44163 0.74209 0.0
H292 H 0.58797 0.47145 0.69861 0.0
H293 H 0.50741 0.40999 0.7001 0.0
H294 H 0.57958 0.52198 0.69701 0.0
H295 H 0.6003 0.51176 0.68567 0.0
H296 H 0.57611 0.51539 0.67231 0.0
H297 H 0.4719 0.41722 0.69459 0.0
H298 H 0.47865 0.45 0.69701 0.0
H299 H 0.47914 0.43747 0.67428 0.0
H300 H 0.53239 0.56331 0.7718 0.0
H301 H 0.56458 0.59327 0.79529 0.0
H302 H 0.57825 0.59635 0.7722 0.0
H303 H 0.57084 0.62034 0.78059 0.0
H304 H 0.49336 0.5467 0.74974 0.0
H305 H 0.56446 0.60525 0.72452 0.0
H306 H 0.46748 0.50704 0.70832 0.0
H307 H 0.4829 0.49573 0.7245 0.0
H308 H 0.46317 0.50882 0.73326 0.0
H309 H 0.58094 0.5985 0.69628 0.0
H310 H 0.56976 0.56532 0.69021 0.0
H311 H 0.55454 0.58175 0.67962 0.0
H312 H 0.44189 0.60869 0.63183 0.0
H313 H 0.42358 0.56342 0.62079 0.0
H314 H 0.49788 0.61142 0.59414 0.0
H315 H 0.43591 0.52252 0.64339 0.0
H316 H 0.4096 0.5201 0.62884 0.0
H317 H 0.42899 0.50588 0.62135 0.0
H318 H 0.53139 0.60058 0.59297 0.0
H319 H 0.52991 0.57824 0.61055 0.0
H320 H 0.51725 0.56683 0.58747 0.0
H321 H 0.53207 0.43777 0.56654 0.0
H322 H 0.5166 0.3911 0.56468 0.0
H323 H 0.49323 0.39707 0.57683 0.0
H324 H 0.48663 0.38532 0.55298 0.0
H325 H 0.45526 0.42677 0.57004 0.0
H326 H 0.53794 0.48 0.56437 0.0
H327 H 0.44557 0.45072 0.61189 0.0
H328 H 0.43837 0.4674 0.59412 0.0
H329 H 0.42822 0.43379 0.59088 0.0
H330 H 0.55872 0.52084 0.57924 0.0
H331 H 0.538 0.53253 0.5887 0.0
H332 H 0.54867 0.51526 0.60344 0.0
H333 H 0.53093 0.50742 0.71024 0.0
H334 H 0.50036 0.55956 0.68043 0.0
H335 H 0.48668 0.56268 0.64936 0.0
H336 H 0.47768 0.51878 0.59078 0.0
H337 H 0.50807 0.46648 0.62082 0.0
H338 H 0.52181 0.46346 0.65188 0.0
H339 H 0.45519 0.65362 0.60488 0.0
H340 H 0.4453 0.65138 0.62915 0.0
H341 H 0.47599 0.65293 0.62334 0.0
C342 C 0.14232 0.54437 0.91059 0.0
C343 C 0.15388 0.54908 0.89076 0.0
C344 C 0.115 0.52311 0.87114 0.0
C345 C 0.10986 0.54263 0.8654 0.0
C346 C 0.08512 0.53647 0.85815 0.0
C347 C 0.06522 0.51034 0.85654 0.0
C348 C 0.07072 0.49063 0.86138 0.0
C349 C 0.09573 0.49733 0.86845 0.0
C350 C 0.07998 0.5579 0.85265 0.0
C351 C 0.04989 0.46256 0.85971 0.0
C352 C 0.98551 0.52062 0.96334 0.0
C353 C 0.96925 0.49862 0.94959 0.0
C354 C 0.96638 0.50364 0.91596 0.0
C355 C 0.96332 0.47984 0.91028 0.0
C356 C 0.97051 0.47663 0.89216 0.0
C357 C 0.98103 0.49767 0.87961 0.0
C358 C 0.98186 0.52089 0.88478 0.0
C359 C 0.97416 0.52344 0.9029 0.0
C360 C 0.96851 0.45132 0.88686 0.0
C361 C 0.99275 0.54365 0.87168 0.0
C362 C 0.87374 0.45304 0.78383 0.0
C363 C 0.88086 0.43441 0.78798 0.0
C364 C 0.90745 0.44099 0.78845 0.0
C365 C 0.92725 0.46675 0.78494 0.0
C366 C 0.92005 0.48513 0.77958 0.0
C367 C 0.89326 0.4779 0.77889 0.0
C368 C 0.91444 0.42067 0.79351 0.0
C369 C 0.94068 0.51267 0.77549 0.0
C370 C 0.11688 0.50456 0.73544 0.0
C371 C 0.09999 0.51424 0.72594 0.0
C372 C 0.054 0.4916 0.73579 0.0
C373 C 0.03623 0.46722 0.74278 0.0
C374 C 0.0167 0.46394 0.75566 0.0
C375 C 0.0148 0.48559 0.76136 0.0
C376 C 0.03139 0.50993 0.75315 0.0
C377 C 0.05081 0.51267 0.74037 0.0
C378 C -0.00099 0.43765 0.76393 0.0
C379 C 0.02936 0.53325 0.75851 0.0
C380 C 0.03798 0.50376 0.85164 0.0
C381 C 0.0219 0.50302 0.86626 0.0
C382 C 0.99599 0.49723 0.86303 0.0
C383 C 0.98556 0.49171 0.84464 0.0
C384 C 0.95945 0.48538 0.84091 0.0
C385 C 0.94947 0.48001 0.8227 0.0
C386 C 0.96526 0.48074 0.80755 0.0
C387 C 0.95523 0.47502 0.78901 0.0
C388 C 0.97163 0.47663 0.77422 0.0
C389 C 0.99793 0.48353 0.7775 0.0
C390 C 0.0081 0.4886 0.796 0.0
C391 C 0.03429 0.49494 0.79982 0.0
C392 C 0.04412 0.49985 0.81804 0.0
C393 C 0.02821 0.49876 0.83311 0.0
C394 C 0.00182 0.49258 0.8296 0.0
C395 C 0.99172 0.48731 0.81103 0.0
C396 C 0.81228 0.44076 0.80408 0.0
C397 C 0.82925 0.4299 0.79663 0.0
O398 O 0.13813 0.52826 0.87928 0.0
O399 O 0.07408 0.4942 0.7248 0.0
O400 O 0.8484 0.44788 0.78488 0.0
O401 O 0.96307 0.50846 0.93404 0.0
H402 H 0.1549 0.56698 0.88555 0.0
H403 H 0.12298 0.54362 0.91026 0.0
H404 H 0.13918 0.5258 0.91628 0.0
H405 H 0.15571 0.56029 0.92013 0.0
H406 H 0.1249 0.56268 0.86645 0.0
H407 H 0.10004 0.48242 0.87261 0.0
H408 H 0.06514 0.55802 0.86226 0.0
H409 H 0.09814 0.57715 0.85323 0.0
H410 H 0.0717 0.55455 0.83823 0.0
H411 H 0.05768 0.44954 0.8632 0.0
H412 H 0.03331 0.45836 0.86931 0.0
H413 H 0.04182 0.45828 0.84522 0.0
H414 H 0.982 0.49048 0.94555 0.0
H415 H 0.99059 0.51314 0.97598 0.0
H416 H 0.00416 0.53507 0.95655 0.0
H417 H 0.97448 0.53039 0.96772 0.0
H418 H 0.95614 0.46406 0.92015 0.0
H419 H 0.97586 0.54153 0.90735 0.0
H420 H 0.96077 0.44573 0.87235 0.0
H421 H 0.98847 0.45347 0.88729 0.0
H422 H 0.95554 0.43559 0.89659 0.0
H423 H 0.99026 0.55963 0.87728 0.0
H424 H 0.0141 0.55097 0.86941 0.0
H425 H 0.98277 0.53764 0.85784 0.0
H426 H 0.83868 0.42664 0.80913 0.0
H427 H 0.86576 0.41485 0.79113 0.0
H428 H 0.88749 0.49199 0.77537 0.0
H429 H 0.92285 0.4244 0.8079 0.0
H430 H 0.89698 0.40094 0.79306 0.0
H431 H 0.92967 0.42153 0.78381 0.0
H432 H 0.93184 0.52448 0.77107 0.0
H433 H 0.95295 0.52155 0.7882 0.0
H434 H 0.95398 0.51314 0.76423 0.0
H435 H 0.10168 0.53026 0.73486 0.0
H436 H 0.13784 0.52021 0.73614 0.0
H437 H 0.10979 0.49833 0.74997 0.0
H438 H 0.11565 0.48786 0.72771 0.0
H439 H 0.0385 0.45097 0.73879 0.0
H440 H 0.06366 0.53133 0.73417 0.0
H441 H 0.00322 0.43808 0.77915 0.0
H442 H 0.97803 0.43245 0.7624 0.0
H443 H 0.00181 0.42247 0.75715 0.0
H444 H 0.04167 0.5501 0.74944 0.0
H445 H 0.00851 0.52869 0.7576 0.0
H446 H 0.03591 0.53863 0.77328 0.0
H447 H 0.02977 0.5072 0.88045 0.0
H448 H 0.94647 0.48449 0.85204 0.0
H449 H 0.92922 0.47532 0.82068 0.0
H450 H 0.96386 0.47242 0.76003 0.0
H451 H 0.04751 0.49609 0.7888 0.0
H452 H 0.06438 0.50457 0.82017 0.0
H453 H 0.79681 0.42668 0.81362 0.0
H454 H 0.82482 0.45878 0.81209 0.0
H455 H 0.80267 0.44523 0.79237 0.0
C456 C 0.46733 0.87645 0.89758 0.0
C457 C 0.45211 0.86204 0.91518 0.0
C458 C 0.47089 0.89825 0.93717 0.0
C459 C 0.45086 0.90463 0.9376 0.0
C460 C 0.45618 0.92906 0.94379 0.0
C461 C 0.48214 0.94756 0.94935 0.0
C462 C 0.50234 0.94109 0.94895 0.0
C463 C 0.49624 0.91626 0.94326 0.0
C464 C 0.43406 0.93511 0.94436 0.0
C465 C 0.53042 0.96041 0.95429 0.0
C466 C 0.5314 0.10658 0.85618 0.0
C467 C 0.51468 0.08929 0.87146 0.0
C468 C 0.52093 0.07196 0.90084 0.0
C469 C 0.54003 0.07179 0.91245 0.0
C470 C 0.53305 0.05357 0.92677 0.0
C471 C 0.50605 0.03563 0.92997 0.0
C472 C 0.48652 0.0358 0.91834 0.0
C473 C 0.49417 0.05384 0.90375 0.0
C474 C 0.55466 0.05353 0.93838 0.0
C475 C 0.45759 0.01703 0.92138 0.0
C476 C 0.54035 0.12898 0.03366 0.0
C477 C 0.55819 0.12265 0.02552 0.0
C478 C 0.5509 0.09687 0.02208 0.0
C479 C 0.52499 0.07709 0.02645 0.0
C480 C 0.50731 0.0834 0.03528 0.0
C481 C 0.51542 0.10933 0.03904 0.0
C482 C 0.57074 0.09086 0.01342 0.0
C483 C 0.47963 0.06283 0.04025 0.0
C484 C 0.51292 0.896 0.06756 0.0
C485 C 0.50108 0.91158 0.07582 0.0
C486 C 0.51778 0.95633 0.06727 0.0
C487 C 0.53988 0.97583 0.05828 0.0
C488 C 0.5378 0.99387 0.047 0.0
C489 C 0.51306 0.99253 0.04509 0.0
C490 C 0.49118 0.97426 0.05553 0.0
C491 C 0.49375 0.95623 0.06652 0.0
C492 C 0.5617 0.01353 0.03638 0.0
C493 C 0.46484 0.973 0.05432 0.0
C494 C 0.48823 0.97382 0.95519 0.0
C495 C 0.49204 0.99157 0.94112 0.0
C496 C 0.49853 0.01683 0.94553 0.0
C497 C 0.50061 0.02452 0.96449 0.0
C498 C 0.5057 0.04934 0.96944 0.0
C499 C 0.50989 0.05746 0.98805 0.0
C500 C 0.50959 0.04121 0.00238 0.0
C501 C 0.51616 0.05 0.02112 0.0
C502 C 0.51614 0.03345 0.03493 0.0
C503 C 0.50954 0.00817 0.03053 0.0
C504 C 0.50228 0.99884 0.01198 0.0
C505 C 0.49492 0.97329 0.00718 0.0
C506 C 0.48927 0.96473 0.98871 0.0
C507 C 0.49165 0.98162 0.97422 0.0
C508 C 0.4981 0.00715 0.97884 0.0
C509 C 0.50299 0.01564 -0.00222 0.0
C510 C 0.54794 0.19006 0.02143 0.0
C511 C 0.56103 0.17361 0.0237 0.0
O512 O 0.46646 0.87493 0.93105 0.0
O513 O 0.52009 0.93748 0.07604 0.0
O514 O 0.54648 0.15382 0.03616 0.0
O515 O 0.52923 0.08979 0.88697 0.0
H516 H 0.43264 0.86106 0.91521 0.0
H517 H 0.47041 0.89631 0.89754 0.0
H518 H 0.4869 0.87766 0.89719 0.0
H519 H 0.45611 0.86652 0.88469 0.0
H520 H 0.43099 0.8905 0.93345 0.0
H521 H 0.5115 0.91104 0.94298 0.0
H522 H 0.43766 0.94998 0.93371 0.0
H523 H 0.41452 0.91784 0.94151 0.0
H524 H 0.4335 0.94312 0.9583 0.0
H525 H 0.54437 0.95369 0.95043 0.0
H526 H 0.53676 0.97919 0.94736 0.0
H527 H 0.53173 0.96372 0.96966 0.0
H528 H 0.49706 0.09091 0.87513 0.0
H529 H 0.52678 0.08113 0.83441 0.0
H530 H 0.52518 0.12152 0.85481 0.0
H531 H 0.55118 0.12032 0.86259 0.0
H532 H 0.56061 0.08578 0.91001 0.0
H533 H 0.4792 0.05388 0.89484 0.0
H534 H 0.55529 0.06184 0.95242 0.0
H535 H 0.55078 0.03356 0.94041 0.0
H536 H 0.57436 0.06514 0.93182 0.0
H537 H 0.44476 0.02148 0.91252 0.0
H538 H 0.45336 0.99723 0.91796 0.0
H539 H 0.45243 0.0172 0.93634 0.0
H540 H 0.56062 0.16551 0.00952 0.0
H541 H 0.57781 0.13783 0.02185 0.0
H542 H 0.50193 0.11447 0.04551 0.0
H543 H 0.56544 0.08526 -0.00148 0.0
H544 H 0.59109 0.10769 0.01394 0.0
H545 H 0.57055 0.07441 0.02072 0.0
H546 H 0.46786 0.07104 0.04617 0.0
H547 H 0.46938 0.0513 0.02758 0.0
H548 H 0.4804 0.04949 0.05068 0.0
H549 H 0.48443 0.90791 0.06628 0.0
H550 H 0.49832 0.87504 0.06807 0.0
H551 H 0.5183 0.9015 0.05267 0.0
H552 H 0.53104 0.89977 0.07524 0.0
H553 H 0.55845 0.97602 0.05932 0.0
H554 H 0.47689 0.94179 0.0742 0.0
H555 H 0.55796 0.01033 0.02107 0.0
H556 H 0.56544 0.03322 0.03961 0.0
H557 H 0.57969 0.01256 0.03988 0.0
H558 H 0.45071 0.95982 0.06495 0.0
H559 H 0.46742 0.99254 0.05627 0.0
H560 H 0.45621 0.96608 0.04017 0.0
H561 H 0.49069 0.98585 0.92653 0.0
H562 H 0.50678 0.06286 0.95894 0.0
H563 H 0.514 0.07686 0.991 0.0
H564 H 0.52211 0.04056 0.04913 0.0
H565 H 0.49356 0.95961 0.01764 0.0
H566 H 0.48373 0.94489 0.98587 0.0
H567 H 0.54663 0.19823 0.03512 0.0
H568 H 0.55934 0.20609 0.01148 0.0
H569 H 0.52765 0.17802 0.01575 0.0
C570 C 0.59746 0.45144 0.06868 0.0
C571 C 0.602 0.44302 0.08797 0.0
C572 C 0.58816 0.46793 0.1075 0.0
C573 C 0.56082 0.45067 0.10702 0.0
C574 C 0.543 0.45845 0.11295 0.0
C575 C 0.5527 0.4841 0.11914 0.0
C576 C 0.58027 0.50146 0.11975 0.0
C577 C 0.59761 0.4929 0.1143 0.0
C578 C 0.51379 0.43931 0.11242 0.0
C579 C 0.59151 0.52919 0.1258 0.0
C580 C 0.48627 0.57716 0.02298 0.0
C581 C 0.49841 0.57096 0.03897 0.0
C582 C 0.48738 0.53971 0.06402 0.0
C583 C 0.51057 0.55523 0.07435 0.0
C584 C 0.5165 0.54589 0.0905 0.0
C585 C 0.49904 0.5204 0.09644 0.0
C586 C 0.47555 0.50475 0.08627 0.0
C587 C 0.46991 0.51473 0.07022 0.0
C588 C 0.54176 0.56316 0.10103 0.0
C589 C 0.45668 0.47746 0.09224 0.0
C590 C 0.44669 0.57021 0.1984 0.0
C591 C 0.47207 0.58434 0.19083 0.0
C592 C 0.48737 0.57267 0.18764 0.0
C593 C 0.47672 0.54616 0.19174 0.0
C594 C 0.45138 0.53211 0.19991 0.0
C595 C 0.43684 0.5445 0.20341 0.0
C596 C 0.51476 0.58863 0.17968 0.0
C597 C 0.43947 0.5039 0.20458 0.0
C598 C 0.62166 0.49431 0.23868 0.0
C599 C 0.59437 0.48681 0.24634 0.0
C600 C 0.57295 0.51112 0.23717 0.0
C601 C 0.58018 0.53497 0.22918 0.0
C602 C 0.56275 0.53799 0.21736 0.0
C603 C 0.53734 0.51666 0.21387 0.0
C604 C 0.52906 0.49315 0.22339 0.0
C605 C 0.54704 0.49058 0.23493 0.0
C606 C 0.57201 0.56353 0.20778 0.0
C607 C 0.50175 0.47038 0.22052 0.0
C608 C 0.53401 0.49314 0.12406 0.0
C609 C 0.52238 0.49927 0.10934 0.0
C610 C 0.5064 0.51002 0.11274 0.0
C611 C 0.50112 0.51414 0.13136 0.0
C612 C 0.48474 0.52448 0.13527 0.0
C613 C 0.48098 0.52993 0.15361 0.0
C614 C 0.49398 0.52582 0.16869 0.0
C615 C 0.49192 0.53308 0.18725 0.0
C616 C 0.50551 0.5291 0.20182 0.0
C617 C 0.52113 0.51795 0.19838 0.0
C618 C 0.52307 0.51018 0.18 0.0
C619 C 0.53845 0.49867 0.17612 0.0
C620 C 0.54128 0.4922 0.1579 0.0
C621 C 0.52947 0.49765 0.14277 0.0
C622 C 0.51316 0.50842 0.14641 0.0
C623 C 0.50981 0.51453 0.16508 0.0
C624 C 0.39733 0.57857 0.18137 0.0
C625 C 0.42632 0.59433 0.18724 0.0
O626 O 0.60606 0.46145 0.10139 0.0
O627 O 0.59157 0.50847 0.24663 0.0
O628 O 0.43135 0.58098 0.20096 0.0
O629 O 0.48142 0.54815 0.04806 0.0
H630 H 0.58458 0.42424 0.09179 0.0
H631 H 0.57939 0.45307 0.06882 0.0
H632 H 0.61451 0.47046 0.06481 0.0
H633 H 0.59481 0.43702 0.05779 0.0
H634 H 0.55318 0.43112 0.10212 0.0
H635 H 0.61874 0.506 0.11471 0.0
H636 H 0.5044 0.44475 0.10116 0.0
H637 H 0.5096 0.41934 0.1097 0.0
H638 H 0.50453 0.43967 0.12591 0.0
H639 H 0.6128 0.54112 0.12237 0.0
H640 H 0.58069 0.53783 0.119 0.0
H641 H 0.58931 0.53004 0.14119 0.0
H642 H 0.51798 0.57278 0.03594 0.0
H643 H 0.4971 0.57629 0.01022 0.0
H644 H 0.46736 0.5589 0.01944 0.0
H645 H 0.48723 0.61105 0.03166 0.0
H646 H 0.52428 0.57465 0.06985 0.0
H647 H 0.45205 0.50289 0.06223 0.0
H648 H 0.53738 0.56465 0.11597 0.0
H649 H 0.5548 0.55465 0.10062 0.0
H650 H 0.55266 0.58288 0.09505 0.0
H651 H 0.43882 0.46801 0.08318 0.0
H652 H 0.4668 0.46597 0.09173 0.0
H653 H 0.45051 0.47734 0.10697 0.0
H654 H 0.4383 0.5968 0.17447 0.0
H655 H 0.47989 0.60451 0.18749 0.0
H656 H 0.4173 0.53391 0.20948 0.0
H657 H 0.51475 0.58318 0.1648 0.0
H658 H 0.52171 0.6096 0.18029 0.0
H659 H 0.52899 0.58489 0.18741 0.0
H660 H 0.41878 0.49527 0.20952 0.0
H661 H 0.43988 0.49306 0.19205 0.0
H662 H 0.45137 0.50156 0.21572 0.0
H663 H 0.57976 0.47182 0.23666 0.0
H664 H 0.62445 0.47727 0.2384 0.0
H665 H 0.62358 0.50163 0.22414 0.0
H666 H 0.63746 0.50968 0.24743 0.0
H667 H 0.60004 0.55086 0.23142 0.0
H668 H 0.54102 0.47242 0.2419 0.0
H669 H 0.57223 0.56103 0.19236 0.0
H670 H 0.55808 0.57058 0.21075 0.0
H671 H 0.59208 0.57843 0.21242 0.0
H672 H 0.49698 0.45499 0.23101 0.0
H673 H 0.48678 0.47657 0.22137 0.0
H674 H 0.50037 0.46218 0.20631 0.0
H675 H 0.52684 0.49679 0.09498 0.0
H676 H 0.47476 0.52859 0.12416 0.0
H677 H 0.46819 0.53792 0.15577 0.0
H678 H 0.50447 0.53535 0.21592 0.0
H679 H 0.54868 0.49466 0.18709 0.0
H680 H 0.55337 0.48342 0.15576 0.0
H681 H 0.3842 0.57529 0.19354 0.0
H682 H 0.39283 0.58872 0.1702 0.0
H683 H 0.39313 0.55955 0.17578 0.0
C684 C 0.68486 0.43 0.39769 0.0
O685 O 0.68624 0.45005 0.40486 0.0
Cd686 Cd 0.64609 0.44958 0.41381 0.0
O687 O 0.66291 0.40902 0.39697 0.0
Cd688 Cd 0.61662 0.38962 0.40677 0.0
C689 C 0.60828 0.42467 0.37374 0.0
O690 O 0.62094 0.4149 0.43493 0.0
O691 O 0.58168 0.39203 0.42319 0.0
O692 O 0.62216 0.35799 0.42366 0.0
C693 C 0.59631 0.40648 0.43632 0.0
O694 O 0.62093 0.44343 0.38506 0.0
C695 C 0.60494 0.33833 0.41482 0.0
O696 O 0.60491 0.40237 0.37727 0.0
O697 O 0.59271 0.34223 0.4016 0.0
C698 C 0.26263 0.58216 0.57539 0.0
O699 O 0.24484 0.56201 0.56733 0.0
Cd700 Cd 0.20397 0.56014 0.5587 0.0
O701 O 0.25987 0.6018 0.57725 0.0
Cd702 Cd 0.22985 0.61778 0.56855 0.0
C703 C 0.18679 0.57754 0.60009 0.0
O704 O 0.2124 0.59562 0.53858 0.0
O705 O 0.19068 0.61169 0.55201 0.0
O706 O 0.26856 0.6542 0.55559 0.0
C707 C 0.1942 0.60125 0.53765 0.0
O708 O 0.18187 0.56021 0.58781 0.0
C709 C 0.26678 0.67156 0.56456 0.0
O710 O 0.20503 0.60073 0.5975 0.0
O711 O 0.24738 0.66403 0.57572 0.0
C712 C 0.6872 0.26245 0.74259 0.0
O713 O 0.68908 0.2428 0.73846 0.0
Cd714 Cd 0.65064 0.20267 0.72897 0.0
O715 O 0.66499 0.26146 0.74176 0.0
Cd716 Cd 0.61817 0.23362 0.734 0.0
C717 C 0.60964 0.18921 0.76711 0.0
O718 O 0.62507 0.21222 0.70743 0.0
O719 O 0.58457 0.19887 0.71536 0.0
O720 O 0.62124 0.27101 0.71875 0.0
C721 C 0.60064 0.19675 0.70464 0.0
O722 O 0.62442 0.18409 0.75706 0.0
C723 C 0.60371 0.2721 0.7285 0.0
O724 O 0.60507 0.20722 0.76258 0.0
O725 O 0.59231 0.25483 0.74093 0.0
C726 C 0.33967 0.57989 0.90007 0.0
O727 O 0.34331 0.56123 0.90398 0.0
Cd728 Cd 0.38563 0.56748 0.91328 0.0
O729 O 0.3589 0.60296 0.90008 0.0
Cd730 Cd 0.4069 0.627 0.90521 0.0
C731 C 0.42212 0.59352 0.87374 0.0
O732 O 0.40465 0.60407 0.93396 0.0
O733 O 0.44373 0.63183 0.92432 0.0
O734 O 0.40374 0.66255 0.91917 0.0
C735 C 0.42934 0.61612 0.93686 0.0
O736 O 0.41185 0.57487 0.88525 0.0
C737 C 0.4177 0.67915 0.90697 0.0
O738 O 0.42151 0.61417 0.87686 0.0
O739 O 0.42664 0.67156 0.89372 0.0
C740 C 0.75892 0.41845 0.06733 0.0
O741 O 0.77979 0.43688 0.0604 0.0
Cd742 Cd 0.81694 0.43281 0.05186 0.0
O743 O 0.75653 0.39623 0.0693 0.0
Cd744 Cd 0.7806 0.37274 0.06246 0.0
C745 C 0.82831 0.40977 0.09349 0.0
O746 O 0.80017 0.39453 0.03362 0.0
O747 O 0.81704 0.37265 0.04497 0.0
O748 O 0.742 0.34075 0.04648 0.0
C749 C 0.81616 0.38629 0.03169 0.0
O750 O 0.83481 0.42734 0.08122 0.0
C751 C 0.73763 0.32168 0.0566 0.0
O752 O 0.80806 0.38752 0.09109 0.0
O753 O 0.75346 0.32602 0.07019 0.0
C754 C 0.33964 0.76649 0.23769 0.0
O755 O 0.33925 0.7856 0.23037 0.0
Cd756 Cd 0.37939 0.82386 0.22224 0.0
O757 O 0.3613 0.76648 0.23939 0.0
Cd758 Cd 0.40855 0.79285 0.23102 0.0
C759 C 0.41492 0.83589 0.26361 0.0
O760 O 0.40384 0.81157 0.20216 0.0
O761 O 0.44314 0.82984 0.21408 0.0
O762 O 0.40366 0.75541 0.21507 0.0
C763 C 0.4282 0.82783 0.20048 0.0
O764 O 0.40207 0.84148 0.25191 0.0
C765 C 0.42116 0.75327 0.22406 0.0
O766 O 0.41969 0.81773 0.2602 0.0
O767 O 0.43329 0.76974 0.23699 0.0
H768 H 0.17698 0.65187 0.26471 0.0
H769 H 0.21849 0.60942 0.2602 0.0
H770 H 0.21822 0.6921 0.26059 0.0
H771 H 0.25962 0.64954 0.2549 0.0
H772 H 0.28928 0.7546 0.22907 0.0
H773 H 0.24848 0.71561 0.23697 0.0
H774 H 0.29281 0.68813 0.26834 0.0
H775 H 0.33369 0.72665 0.25967 0.0
C776 C 0.19497 0.65113 0.263 0.0
C777 C 0.19458 0.62746 0.26318 0.0
C778 C 0.21862 0.67422 0.26038 0.0
C779 C 0.24235 0.67418 0.25737 0.0
C780 C 0.2419 0.65047 0.25756 0.0
C781 C 0.21833 0.62743 0.26049 0.0
C782 C 0.29029 0.74028 0.23772 0.0
C783 C 0.31473 0.74363 0.24361 0.0
C784 C 0.26685 0.71795 0.24238 0.0
C785 C 0.26725 0.69857 0.25327 0.0
C786 C 0.29172 0.70235 0.25962 0.0
C787 C 0.31518 0.72453 0.25475 0.0
H788 H 0.57972 0.2012 0.47367 0.0
H789 H 0.61194 0.19825 0.41995 0.0
H790 H 0.57555 0.23773 0.46304 0.0
H791 H 0.60777 0.23489 0.40928 0.0
H792 H 0.58084 0.29363 0.39391 0.0
H793 H 0.57526 0.25149 0.40264 0.0
H794 H 0.61189 0.28281 0.45624 0.0
H795 H 0.61758 0.32448 0.4476 0.0
C796 C 0.58532 0.208 0.45944 0.0
C797 C 0.5959 0.19673 0.44759 0.0
C798 C 0.58306 0.22896 0.45339 0.0
C799 C 0.59141 0.23917 0.43536 0.0
C800 C 0.60088 0.2272 0.42317 0.0
C801 C 0.6033 0.20629 0.42927 0.0
C802 C 0.58744 0.29134 0.4076 0.0
C803 C 0.59974 0.31234 0.42005 0.0
C804 C 0.58434 0.26732 0.41255 0.0
C805 C 0.59302 0.26388 0.43015 0.0
C806 C 0.60468 0.28476 0.44269 0.0
C807 C 0.60812 0.30871 0.43767 0.0
H808 H 0.41962 0.60448 0.58171 0.0
H809 H 0.3992 0.60482 0.6398 0.0
H810 H 0.37464 0.59244 0.5724 0.0
H811 H 0.35434 0.59319 0.63044 0.0
H812 H 0.29699 0.6156 0.60122 0.0
H813 H 0.33841 0.61959 0.61192 0.0
H814 H 0.32536 0.55593 0.57626 0.0
H815 H 0.28345 0.55164 0.56559 0.0
C816 C 0.40538 0.60143 0.59251 0.0
C817 C 0.4128 0.60524 0.61154 0.0
C818 C 0.37965 0.59452 0.58717 0.0
C819 C 0.36108 0.59189 0.60071 0.0
C820 C 0.36832 0.59516 0.61973 0.0
C821 C 0.39389 0.60169 0.62508 0.0
C822 C 0.30281 0.60231 0.59572 0.0
C823 C 0.287 0.58337 0.58249 0.0
C824 C 0.32644 0.6045 0.60196 0.0
C825 C 0.33503 0.58805 0.59492 0.0
C826 C 0.31917 0.5689 0.58184 0.0
C827 C 0.2952 0.5664 0.5758 0.0
H828 H 0.80698 0.42273 0.76159 0.0
H829 H 0.81278 0.38074 0.80871 0.0
H830 H 0.77556 0.38207 0.74644 0.0
H831 H 0.78125 0.34005 0.79365 0.0
H832 H 0.73545 0.27035 0.75444 0.0
H833 H 0.7731 0.31091 0.76555 0.0
H834 H 0.72929 0.35004 0.7549 0.0
H835 H 0.692 0.30994 0.74387 0.0
C836 C 0.80181 0.40476 0.76854 0.0
C837 C 0.81227 0.40482 0.78629 0.0
C838 C 0.7838 0.38154 0.75994 0.0
C839 C 0.77589 0.35792 0.76892 0.0
C840 C 0.78719 0.35794 0.78632 0.0
C841 C 0.80509 0.38119 0.79498 0.0
C842 C 0.73401 0.28769 0.75433 0.0
C843 C 0.7107 0.28691 0.74839 0.0
C844 C 0.75549 0.31083 0.76075 0.0
C845 C 0.75413 0.33362 0.76103 0.0
C846 C 0.73107 0.33288 0.75462 0.0
C847 C 0.7096 0.30982 0.74845 0.0
H848 H 0.41667 0.82229 0.89335 0.0
H849 H 0.47651 0.83988 0.93556 0.0
H850 H 0.40899 0.77825 0.89105 0.0
H851 H 0.46797 0.79564 0.9337 0.0
H852 H 0.41516 0.70428 0.93806 0.0
H853 H 0.42405 0.74872 0.94032 0.0
H854 H 0.4409 0.75888 0.8811 0.0
H855 H 0.4327 0.71461 0.87886 0.0
C856 C 0.42799 0.81669 0.90222 0.0
C857 C 0.44697 0.83456 0.91474 0.0
C858 C 0.42366 0.79159 0.90085 0.0
C859 C 0.43788 0.78369 0.91222 0.0
C860 C 0.45666 0.80133 0.92488 0.0
C861 C 0.46146 0.82663 0.92596 0.0
C862 C 0.42083 0.71602 0.92553 0.0
C863 C 0.42323 0.70602 0.90827 0.0
C864 C 0.426 0.74141 0.92686 0.0
C865 C 0.43308 0.75706 0.91088 0.0
C866 C 0.43534 0.74707 0.89359 0.0
C867 C 0.43076 0.72185 0.89234 0.0
H868 H 0.60317 0.39979 0.07752 0.0
H869 H 0.65448 0.47846 0.09535 0.0
H870 H 0.64132 0.39405 0.07374 0.0
H871 H 0.69252 0.47244 0.09244 0.0
H872 H 0.75556 0.46193 0.06227 0.0
H873 H 0.71807 0.46776 0.06849 0.0
H874 H 0.67474 0.39032 0.09045 0.0
H875 H 0.712 0.38418 0.08366 0.0
C876 C 0.62259 0.41565 0.08101 0.0
C877 C 0.62574 0.43934 0.08712 0.0
C878 C 0.64444 0.41236 0.07894 0.0
C879 C 0.67 0.43272 0.08292 0.0
C880 C 0.67315 0.45642 0.0891 0.0
C881 C 0.65131 0.45979 0.09098 0.0
C882 C 0.7381 0.44617 0.06851 0.0
C883 C 0.73675 0.42254 0.07236 0.0
C884 C 0.71662 0.44958 0.0722 0.0
C885 C 0.69332 0.42949 0.07994 0.0
C886 C 0.69221 0.40606 0.08421 0.0
C887 C 0.71366 0.40259 0.08042 0.0
H888 H 0.36228 0.8401 0.5551 0.0
H889 H 0.41662 0.81119 0.55651 0.0
H890 H 0.32508 0.79583 0.55681 0.0
H891 H 0.37976 0.76726 0.55853 0.0
H892 H 0.30958 0.69147 0.54175 0.0
H893 H 0.34407 0.73618 0.53859 0.0
H894 H 0.30456 0.75892 0.57898 0.0
H895 H 0.26953 0.71385 0.58197 0.0
C896 C 0.36622 0.82426 0.55561 0.0
C897 C 0.39232 0.82902 0.55518 0.0
C898 C 0.34498 0.79899 0.55676 0.0
C899 C 0.34947 0.77803 0.55761 0.0
C900 C 0.37559 0.78291 0.55747 0.0
C901 C 0.39673 0.80807 0.55634 0.0
C902 C 0.3081 0.70596 0.54992 0.0
C903 C 0.2869 0.69907 0.56223 0.0
C904 C 0.32798 0.7316 0.54817 0.0
C905 C 0.32721 0.75107 0.55868 0.0
C906 C 0.30563 0.74435 0.57062 0.0
C907 C 0.28567 0.71856 0.57241 0.0
H908 H 0.53944 0.37641 0.72203 0.0
H909 H 0.62319 0.42305 0.71238 0.0
H910 H 0.5439 0.33802 0.72449 0.0
H911 H 0.62784 0.38501 0.71534 0.0
H912 H 0.62434 0.30989 0.70219 0.0
H913 H 0.61674 0.34596 0.69841 0.0
H914 H 0.5626 0.31859 0.74506 0.0
H915 H 0.5698 0.28197 0.74859 0.0
C916 C 0.55874 0.37838 0.72028 0.0
C917 C 0.58087 0.40259 0.71646 0.0
C918 C 0.56135 0.35648 0.72188 0.0
C919 C 0.58618 0.3584 0.71991 0.0
C920 C 0.60833 0.38272 0.71647 0.0
C921 C 0.60571 0.40453 0.71482 0.0
C922 C 0.61067 0.31143 0.71158 0.0
C923 C 0.59776 0.29313 0.72576 0.0
C924 C 0.60644 0.33222 0.70949 0.0
C925 C 0.58926 0.33532 0.72155 0.0
C926 C 0.57581 0.31666 0.73545 0.0
C927 C 0.58002 0.29576 0.73753 0.0
H928 H 0.19935 0.59111 0.87853 0.0
H929 H 0.17033 0.5156 0.90256 0.0
H930 H 0.2439 0.59781 0.8785 0.0
H931 H 0.21516 0.5228 0.90361 0.0
H932 H 0.29583 0.53461 0.88988 0.0
H933 H 0.25096 0.52671 0.88582 0.0
H934 H 0.2779 0.60643 0.89973 0.0
H935 H 0.32266 0.61448 0.90282 0.0
C936 C 0.20259 0.57605 0.884 0.0
C937 C 0.18147 0.55306 0.89091 0.0
C938 C 0.22814 0.57993 0.88409 0.0
C939 C 0.23324 0.56099 0.89126 0.0
C940 C 0.21198 0.53773 0.89782 0.0
C941 C 0.18634 0.53372 0.89749 0.0
C942 C 0.2921 0.55044 0.89189 0.0
C943 C 0.31273 0.57514 0.89665 0.0
C944 C 0.26638 0.5459 0.8897 0.0
C945 C 0.26073 0.56591 0.89251 0.0
C946 C 0.28152 0.59066 0.89708 0.0
C947 C 0.30723 0.59527 0.89896 0.0
H948 H 0.60641 0.18833 0.00398 0.0
H949 H 0.579 0.19601 0.05842 0.0
H950 H 0.65156 0.21967 0.01299 0.0
H951 H 0.62418 0.22808 0.06732 0.0
H952 H 0.71191 0.27999 0.08016 0.0
H953 H 0.67086 0.2395 0.0734 0.0
H954 H 0.67099 0.26587 0.01703 0.0
H955 H 0.71149 0.30563 0.02367 0.0
C956 C 0.61014 0.19649 0.01798 0.0
C957 C 0.58922 0.18998 0.03044 0.0
C958 C 0.63596 0.21448 0.02313 0.0
C959 C 0.6414 0.22664 0.04077 0.0
C960 C 0.62068 0.21895 0.05368 0.0
C961 C 0.59482 0.20076 0.04856 0.0
C962 C 0.70329 0.27681 0.06627 0.0
C963 C 0.71473 0.29601 0.05249 0.0
C964 C 0.67978 0.25376 0.06243 0.0
C965 C 0.66769 0.24947 0.04467 0.0
C966 C 0.67991 0.26832 0.03076 0.0
C967 C 0.70305 0.29127 0.03463 0.0
H968 H 0.44652 0.63918 0.16751 0.0
H969 H 0.41825 0.60807 0.22262 0.0
H970 H 0.45018 0.67999 0.17714 0.0
H971 H 0.42192 0.64899 0.23228 0.0
H972 H 0.44742 0.73454 0.24509 0.0
H973 H 0.45368 0.69796 0.23717 0.0
H974 H 0.41351 0.6888 0.18442 0.0
H975 H 0.40719 0.72478 0.19224 0.0
C976 C 0.44169 0.64131 0.18182 0.0
C977 C 0.43237 0.62056 0.19436 0.0
C978 C 0.44367 0.66459 0.1873 0.0
C979 C 0.43626 0.66761 0.20544 0.0
C980 C 0.42806 0.64729 0.21829 0.0
C981 C 0.42592 0.62388 0.21275 0.0
C982 C 0.44017 0.72478 0.23176 0.0
C983 C 0.42672 0.73243 0.21932 0.0
C984 C 0.44367 0.70386 0.22727 0.0
C985 C 0.43421 0.69067 0.21014 0.0
C986 C 0.42136 0.69881 0.1976 0.0
C987 C 0.41756 0.71932 0.20216 0.0
H988 H 0.82281 0.41481 0.3894 0.0
H989 H 0.80191 0.4161 0.33147 0.0
H990 H 0.78917 0.42518 0.39923 0.0
H991 H 0.76788 0.42592 0.34137 0.0
H992 H 0.68657 0.39788 0.37155 0.0
H993 H 0.72508 0.3965 0.36023 0.0
H994 H 0.77546 0.46126 0.3957 0.0
H995 H 0.73672 0.46301 0.40691 0.0
C996 C 0.81146 0.41788 0.37876 0.0
C997 C 0.81521 0.41497 0.35962 0.0
C998 C 0.79224 0.42383 0.38439 0.0
C999 C 0.77601 0.42636 0.37104 0.0
C1000 C 0.78016 0.42406 0.35192 0.0
C1001 C 0.79964 0.41854 0.34628 0.0
C1002 C 0.70586 0.41198 0.37685 0.0
C1003 C 0.70863 0.43049 0.39019 0.0
C1004 C 0.7279 0.41128 0.37026 0.0
C1005 C 0.75318 0.42879 0.37709 0.0
C1006 C 0.75612 0.44753 0.39027 0.0
C1007 C 0.73402 0.44857 0.39662 0.0
H1008 H 0.12437 0.56494 0.42544 0.0
H1009 H 0.1059 0.62059 0.4487 0.0
H1010 H 0.14292 0.56245 0.45548 0.0
H1011 H 0.1257 0.61931 0.47844 0.0
H1012 H 0.14758 0.60082 0.53409 0.0
H1013 H 0.12266 0.59572 0.50544 0.0
H1014 H 0.18092 0.58752 0.47367 0.0
H1015 H 0.20501 0.59134 0.50246 0.0
C1016 C 0.12433 0.57666 0.43701 0.0
C1017 C 0.11404 0.59323 0.43469 0.0
C1018 C 0.13513 0.5754 0.45419 0.0
C1019 C 0.13614 0.5909 0.46939 0.0
C1020 C 0.12505 0.60687 0.46717 0.0
C1021 C 0.11394 0.60785 0.45007 0.0
C1022 C 0.15488 0.59768 0.52098 0.0
C1023 C 0.1783 0.59662 0.52047 0.0
C1024 C 0.14069 0.59492 0.50453 0.0
C1025 C 0.14984 0.59144 0.48715 0.0
C1026 C 0.173 0.58978 0.48678 0.0
C1027 C 0.18696 0.59215 0.50328 0.0
H1028 H 0.51006 0.07486 0.61019 0.0
H1029 H 0.57577 0.05172 0.63979 0.0
H1030 H 0.52733 0.11657 0.63692 0.0
H1031 H 0.59107 0.09368 0.66604 0.0
H1032 H 0.6289 0.17745 0.68773 0.0
H1033 H 0.61237 0.14072 0.6663 0.0
H1034 H 0.53447 0.13169 0.66902 0.0
H1035 H 0.55098 0.16845 0.69038 0.0
C1036 C 0.52417 0.07764 0.62107 0.0
C1037 C 0.54473 0.06192 0.62006 0.0
C1038 C 0.53581 0.10416 0.63733 0.0
C1039 C 0.56208 0.11065 0.65372 0.0
C1040 C 0.57622 0.0899 0.65553 0.0
C1041 C 0.56593 0.06294 0.63987 0.0
C1042 C 0.60831 0.16773 0.68361 0.0
C1043 C 0.5912 0.17574 0.69072 0.0
C1044 C 0.59878 0.14654 0.67152 0.0
C1045 C 0.57211 0.13326 0.66615 0.0
C1046 C 0.55517 0.14168 0.67283 0.0
C1047 C 0.56459 0.16263 0.68513 0.0
H1048 H 0.49211 0.54341 0.78776 0.0
H1049 H 0.53391 0.62642 0.78393 0.0
H1050 H 0.46121 0.54502 0.80971 0.0
H1051 H 0.50414 0.6283 0.80689 0.0
H1052 H 0.43803 0.624 0.84231 0.0
H1053 H 0.462 0.62076 0.81541 0.0
H1054 H 0.46226 0.55563 0.84125 0.0
H1055 H 0.43744 0.55815 0.86744 0.0
C1056 C 0.49473 0.56203 0.79169 0.0
C1057 C 0.51591 0.58482 0.78458 0.0
C1058 C 0.47714 0.563 0.80439 0.0
C1059 C 0.4805 0.58682 0.81051 0.0
C1060 C 0.50084 0.60958 0.80254 0.0
C1061 C 0.51816 0.60856 0.78955 0.0
C1062 C 0.44305 0.60888 0.84211 0.0
C1063 C 0.43583 0.59135 0.85702 0.0
C1064 C 0.45691 0.60708 0.82673 0.0
C1065 C 0.46411 0.5879 0.82607 0.0
C1066 C 0.4566 0.57029 0.84097 0.0
C1067 C 0.4425 0.57186 0.85613 0.0
H1068 H 0.95754 0.45043 0.96139 0.0
H1069 H 0.92532 0.5013 0.95896 0.0
H1070 H 0.91859 0.41874 0.97848 0.0
H1071 H 0.88694 0.47029 0.97653 0.0
H1072 H 0.81281 0.40627 -0.00157 0.0
H1073 H 0.8479 0.42938 0.97578 0.0
H1074 H 0.90029 0.41413 0.00922 0.0
H1075 H 0.8647 0.39004 0.03145 0.0
C1076 C 0.94199 0.45469 0.96441 0.0
C1077 C 0.94432 0.47822 0.95882 0.0
C1078 C 0.91979 0.43667 0.97428 0.0
C1079 C 0.8996 0.44193 0.97888 0.0
C1080 C 0.90181 0.46532 0.97293 0.0
C1081 C 0.92387 0.48321 0.96298 0.0
C1082 C 0.83171 0.40749 0.00074 0.0
C1083 C 0.83618 0.39668 0.01678 0.0
C1084 C 0.85187 0.42087 0.98783 0.0
C1085 C 0.87709 0.42409 0.99086 0.0
C1086 C 0.88108 0.41192 0.00637 0.0
C1087 C 0.86073 0.39819 0.01917 0.0
H1088 H 0.45122 0.89485 0.08907 0.0
H1089 H 0.52815 0.90984 0.10695 0.0
H1090 H 0.43379 0.87864 0.12015 0.0
H1091 H 0.51047 0.89192 0.13761 0.0
H1092 H 0.47603 0.87139 0.19543 0.0
H1093 H 0.49361 0.89542 0.16641 0.0
H1094 H 0.42167 0.84158 0.13752 0.0
H1095 H 0.40379 0.81866 0.16664 0.0
C1096 C 0.46435 0.89448 0.09964 0.0
C1097 C 0.49084 0.90287 0.09543 0.0
C1098 C 0.45435 0.88502 0.11743 0.0
C1099 C 0.47054 0.88341 0.13135 0.0
C1100 C 0.49737 0.89293 0.12734 0.0
C1101 C 0.50747 0.90285 0.10966 0.0
C1102 C 0.46397 0.86493 0.18287 0.0
C1103 C 0.4386 0.84314 0.18325 0.0
C1104 C 0.47406 0.87858 0.1662 0.0
C1105 C 0.45916 0.87044 0.14951 0.0
C1106 C 0.43359 0.84882 0.15009 0.0
C1107 C 0.42337 0.83549 0.16678 0.0
H1108 H 0.61595 0.51309 0.27907 0.0
H1109 H 0.56638 0.43619 0.25735 0.0
H1110 H 0.61433 0.49558 0.31008 0.0
H1111 H 0.56401 0.41846 0.28862 0.0
H1112 H 0.60036 0.39923 0.34033 0.0
H1113 H 0.59265 0.41265 0.30979 0.0
H1114 H 0.58708 0.47468 0.33637 0.0
H1115 H 0.59585 0.46188 0.36668 0.0
C1116 C 0.60427 0.49244 0.28107 0.0
C1117 C 0.59113 0.476 0.26588 0.0
C1118 C 0.60317 0.48236 0.29886 0.0
C1119 C 0.58891 0.45558 0.3019 0.0
C1120 C 0.57534 0.43915 0.28674 0.0
C1121 C 0.57653 0.44928 0.26888 0.0
C1122 C 0.59704 0.41545 0.33963 0.0
C1123 C 0.59914 0.42978 0.3558 0.0
C1124 C 0.59253 0.42312 0.32215 0.0
C1125 C 0.58971 0.44505 0.32058 0.0
C1126 C 0.58991 0.45816 0.337 0.0
C1127 C 0.59479 0.45074 0.35438 0.0
H1128 H 0.43701 0.9348 0.35913 0.0
H1129 H 0.43155 0.86565 0.3822 0.0
H1130 H 0.44083 0.92107 0.3279 0.0
H1131 H 0.43346 0.85093 0.35068 0.0
H1132 H 0.44577 0.83287 0.29156 0.0
H1133 H 0.45562 0.85399 0.32226 0.0
H1134 H 0.41034 0.89044 0.30732 0.0
H1135 H 0.40163 0.87049 0.27675 0.0
C1136 C 0.43676 0.9167 0.3576 0.0
C1137 C 0.43359 0.90109 0.3732 0.0
C1138 C 0.43872 0.90869 0.3396 0.0
C1139 C 0.43683 0.88458 0.33665 0.0
C1140 C 0.43514 0.86966 0.35234 0.0
C1141 C 0.43377 0.87795 0.37041 0.0
C1142 C 0.43826 0.84569 0.29481 0.0
C1143 C 0.42278 0.84986 0.28173 0.0
C1144 C 0.44379 0.8577 0.31243 0.0
C1145 C 0.43377 0.87395 0.31735 0.0
C1146 C 0.41891 0.87855 0.304 0.0
C1147 C 0.41366 0.86683 0.28643 0.0
H1148 H 0.56596 0.43382 0.54986 0.0
H1149 H 0.49572 0.42029 0.52029 0.0
H1150 H 0.58563 0.43152 0.52038 0.0
H1151 H 0.51576 0.41921 0.49064 0.0
H1152 H 0.54461 0.38345 0.44641 0.0
H1153 H 0.52613 0.391 0.47458 0.0
H1154 H 0.6039 0.45132 0.4913 0.0
H1155 H 0.6225 0.44291 0.4634 0.0
C1156 C 0.55503 0.43101 0.53696 0.0
C1157 C 0.52951 0.42764 0.53736 0.0
C1158 C 0.56631 0.4298 0.52004 0.0
C1159 C 0.55232 0.4252 0.50307 0.0
C1160 C 0.52699 0.42244 0.50344 0.0
C1161 C 0.5156 0.42337 0.52041 0.0
C1162 C 0.55774 0.39842 0.45605 0.0
C1163 C 0.58503 0.41244 0.45279 0.0
C1164 C 0.54712 0.40291 0.47216 0.0
C1165 C 0.5635 0.42176 0.48529 0.0
C1166 C 0.59075 0.43633 0.48169 0.0
C1167 C 0.60141 0.43162 0.46566 0.0
H1168 H 0.12372 0.5642 0.71338 0.0
H1169 H 0.09951 0.48682 0.69491 0.0
H1170 H 0.1422 0.58067 0.68247 0.0
H1171 H 0.11897 0.50322 0.66431 0.0
H1172 H 0.13851 0.53554 0.60646 0.0
H1173 H 0.11517 0.52141 0.63611 0.0
H1174 H 0.17859 0.58807 0.6637 0.0
H1175 H 0.20129 0.60275 0.6338 0.0
C1176 C 0.12234 0.55073 0.70266 0.0
C1177 C 0.11022 0.52425 0.70652 0.0
C1178 C 0.1331 0.56016 0.685 0.0
C1179 C 0.13221 0.54333 0.67085 0.0
C1180 C 0.11969 0.51675 0.6747 0.0
C1181 C 0.10872 0.50733 0.69229 0.0
C1182 C 0.14734 0.54728 0.61884 0.0
C1183 C 0.17183 0.57014 0.61784 0.0
C1184 C 0.13404 0.5391 0.63588 0.0
C1185 C 0.14512 0.55338 0.65241 0.0
C1186 C 0.16928 0.5767 0.65126 0.0
C1187 C 0.18239 0.58508 0.63413 0.0
H1188 H 0.5537 0.06897 0.86521 0.0
H1189 H 0.47242 0.07233 0.8414 0.0
H1190 H 0.58549 0.10857 0.83857 0.0
H1191 H 0.5061 0.11147 0.81495 0.0
H1192 H 0.56814 0.18591 0.78719 0.0
H1193 H 0.54276 0.15463 0.81147 0.0
H1194 H 0.59451 0.12282 0.80747 0.0
H1195 H 0.62013 0.15426 0.78363 0.0
C1196 C 0.54477 0.07612 0.8554 0.0
C1197 C 0.51049 0.06996 0.85842 0.0
C1198 C 0.56454 0.10157 0.83927 0.0
C1199 C 0.54974 0.11564 0.82463 0.0
C1200 C 0.51454 0.10362 0.82458 0.0
C1201 C 0.49311 0.07824 0.84026 0.0
C1202 C 0.57434 0.1725 0.79172 0.0
C1203 C 0.59606 0.17249 0.78337 0.0
C1204 C 0.55962 0.15439 0.80549 0.0
C1205 C 0.56647 0.13609 0.81126 0.0
C1206 C 0.58883 0.13679 0.80352 0.0
C1207 C 0.60344 0.15476 0.7897 0.0
H1208 H 0.45022 0.57058 0.05831 0.0
H1209 H 0.54379 0.62386 0.03143 0.0
H1210 H 0.42962 0.57873 0.02374 0.0
H1211 H 0.52126 0.63055 -0.00244 0.0
H1212 H 0.47859 0.64734 0.95098 0.0
H1213 H 0.49661 0.64291 0.9805 0.0
H1214 H 0.424 0.57193 0.99143 0.0
H1215 H 0.40552 0.57719 0.96226 0.0
C1216 C 0.46329 0.58253 0.04732 0.0
C1217 C 0.49899 0.59261 0.04708 0.0
C1218 C 0.45065 0.58668 0.02535 0.0
C1219 C 0.47285 0.60422 0.00629 0.0
C1220 C 0.50835 0.61975 0.00896 0.0
C1221 C 0.5228 0.61668 0.03036 0.0
C1222 C 0.46654 0.63075 0.95968 0.0
C1223 C 0.44067 0.61264 0.95434 0.0
C1224 C 0.47693 0.62806 0.97659 0.0
C1225 C 0.46181 0.607 0.98839 0.0
C1226 C 0.43603 0.58868 0.98291 0.0
C1227 C 0.42549 0.59156 0.9661 0.0
H1228 H 0.92788 0.41001 0.18433 0.0
H1229 H 0.93994 0.48724 0.18401 0.0
H1230 H 0.89342 0.3971 0.16048 0.0
H1231 H 0.9048 0.47417 0.16093 0.0
H1232 H 0.87355 0.45446 0.1014 0.0
H1233 H 0.90216 0.46472 0.12836 0.0
H1234 H 0.84996 0.38952 0.15165 0.0
H1235 H 0.82127 0.37881 0.12406 0.0
C1236 C 0.92289 0.42411 0.17933 0.0
C1237 C 0.93708 0.44981 0.18563 0.0
C1238 C 0.90298 0.41667 0.16581 0.0
C1239 C 0.89667 0.43473 0.15851 0.0
C1240 C 0.90966 0.45995 0.16584 0.0
C1241 C 0.9297 0.46742 0.17916 0.0
C1242 C 0.86795 0.44003 0.11225 0.0
C1243 C 0.84503 0.41576 0.11051 0.0
C1244 C 0.88434 0.44605 0.12786 0.0
C1245 C 0.87827 0.42808 0.14232 0.0
C1246 C 0.85528 0.40377 0.14071 0.0
C1247 C 0.83879 0.39767 0.12494 0.0
loop_
_geom_bond_atom_site_label_1
_geom_bond_atom_site_label_2
_geom_bond_distance
_geom_bond_site_symmetry_2
_ccdc_geom_bond_type
C0 C1 1.560 . S
C0 H61 0.959 . S
C0 H62 0.959 . S
C0 H63 0.960 . S
C1 C0 1.560 . S
C1 O56 1.426 . S
C1 H60 0.980 . S
C2 C3 1.407 . S
C2 C7 1.418 . S
C2 O56 1.334 . S
C3 C2 1.407 . S
C3 C4 1.360 . S
C3 H64 0.929 . S
C4 C3 1.360 . S
C4 C5 1.401 . S
C4 C8 1.527 . S
C5 C4 1.401 . S
C5 C6 1.405 . S
C5 C38 1.587 . S
C6 C5 1.405 . S
C6 C7 1.332 . S
C6 C9 1.496 . S
C7 C2 1.418 . S
C7 C6 1.332 . S
C7 H65 0.929 . S
C8 C4 1.527 . S
C8 H66 0.959 . S
C8 H67 0.961 . S
C8 H68 0.961 . S
C9 C6 1.496 . S
C9 H69 0.960 . S
C9 H70 0.960 . S
C9 H71 0.961 . S
C10 C11 1.517 . S
C10 H73 0.961 . S
C10 H74 0.960 . S
C10 H75 0.959 . S
C11 C10 1.517 . S
C11 O59 1.468 . S
C11 H72 0.980 . S
C12 C13 1.349 . S
C12 C17 1.367 . S
C12 O59 1.408 . S
C13 C12 1.349 . S
C13 C14 1.407 . S
C13 H76 0.930 . S
C14 C13 1.407 . S
C14 C15 1.449 . S
C14 C18 1.535 . S
C15 C14 1.449 . S
C15 C16 1.384 . S
C15 C40 1.553 1_655 S
C16 C15 1.384 . S
C16 C17 1.364 . S
C16 C19 1.450 . S
C17 C12 1.367 . S
C17 C16 1.364 . S
C17 H77 0.931 . S
C18 C14 1.535 . S
C18 H78 0.959 1_655 S
C18 H79 0.961 1_655 S
C18 H80 0.959 . S
C19 C16 1.450 . S
C19 H81 0.960 . S
C19 H82 0.960 1_655 S
C19 H83 0.960 . S
C20 C21 1.309 . S
C20 C25 1.304 . S
C20 O58 1.435 . S
C21 C20 1.309 . S
C21 C22 1.476 . S
C21 H85 0.930 . S
C22 C21 1.476 . S
C22 C23 1.400 . S
C22 C26 1.567 . S
C23 C22 1.400 . S
C23 C24 1.373 . S
C23 C45 1.432 . S
C24 C23 1.373 . S
C24 C25 1.339 . S
C24 C27 1.530 . S
C25 C20 1.304 . S
C25 C24 1.339 . S
C25 H86 0.930 . S
C26 C22 1.567 . S
C26 H87 0.961 . S
C26 H88 0.960 . S
C26 H89 0.958 . S
C27 C24 1.530 . S
C27 H90 0.961 . S
C27 H91 0.960 . S
C27 H92 0.960 . S
C28 C29 1.530 . S
C28 H94 0.961 . S
C28 H95 0.961 . S
C28 H96 0.959 . S
C29 C28 1.530 . S
C29 O57 1.412 . S
C29 H93 0.980 . S
C30 C31 1.288 . S
C30 C35 1.377 . S
C30 O57 1.393 . S
C31 C30 1.288 . S
C31 C32 1.369 . S
C31 H97 0.932 . S
C32 C31 1.369 . S
C32 C33 1.398 . S
C32 C36 1.527 . S
C33 C32 1.398 . S
C33 C34 1.380 . S
C33 C47 1.497 . S
C34 C33 1.380 . S
C34 C35 1.383 . S
C34 C37 1.603 . S
C35 C30 1.377 . S
C35 C34 1.383 . S
C35 H98 0.929 . S
C36 C32 1.527 . S
C36 H99 0.961 . S
C36 H100 0.991 . S
C36 H101 0.959 . S
C37 C34 1.603 . S
C37 H102 0.960 . S
C37 H103 0.962 . S
C37 H104 0.961 . S
C38 C5 1.587 . S
C38 C39 1.360 . S
C38 C51 1.412 . S
C39 C38 1.360 . S
C39 C40 1.365 . S
C39 H105 0.929 . S
C40 C15 1.553 1_455 S
C40 C39 1.365 . S
C40 C41 1.404 . S
C41 C40 1.404 . S
C41 C42 1.395 1_455 S
C41 C52 1.451 . S
C42 C41 1.395 1_655 S
C42 C43 1.322 . S
C42 H106 0.930 . S
C43 C42 1.322 . S
C43 C44 1.459 . S
C43 H107 0.929 . S
C44 C43 1.459 . S
C44 C45 1.445 . S
C44 C53 1.395 1_655 S
C45 C23 1.432 . S
C45 C44 1.445 . S
C45 C46 1.370 . S
C46 C45 1.370 . S
C46 C47 1.438 1_655 S
C46 H108 0.930 . S
C47 C33 1.497 . S
C47 C46 1.438 1_455 S
C47 C48 1.360 . S
C48 C47 1.360 . S
C48 C49 1.401 . S
C48 C53 1.446 . S
C49 C48 1.401 . S
C49 C50 1.347 . S
C49 H109 0.929 . S
C50 C49 1.347 . S
C50 C51 1.455 . S
C50 H110 0.930 . S
C51 C38 1.412 . S
C51 C50 1.455 . S
C51 C52 1.331 . S
C52 C41 1.451 . S
C52 C51 1.331 . S
C52 C53 1.497 . S
C53 C44 1.395 1_455 S
C53 C48 1.446 . S
C53 C52 1.497 . S
C54 C55 1.582 . S
C54 H111 0.962 . S
C54 H112 0.959 . S
C54 H113 0.958 . S
C55 C54 1.582 . S
C55 O58 1.458 . S
C55 H84 0.980 . S
O56 C1 1.426 . S
O56 C2 1.334 . S
O57 C29 1.412 . S
O57 C30 1.393 . S
O58 C20 1.435 . S
O58 C55 1.458 . S
O59 C11 1.468 . S
O59 C12 1.408 . S
H60 C1 0.980 . S
H61 C0 0.959 . S
H62 C0 0.959 . S
H63 C0 0.960 . S
H64 C3 0.929 . S
H65 C7 0.929 . S
H66 C8 0.959 . S
H67 C8 0.961 . S
H68 C8 0.961 . S
H69 C9 0.960 . S
H70 C9 0.960 . S
H71 C9 0.961 . S
H72 C11 0.980 . S
H73 C10 0.961 . S
H74 C10 0.960 . S
H75 C10 0.959 . S
H76 C13 0.930 . S
H77 C17 0.931 . S
H78 C18 0.959 1_455 S
H79 C18 0.961 1_455 S
H80 C18 0.959 . S
H81 C19 0.960 . S
H82 C19 0.960 1_455 S
H83 C19 0.960 . S
H84 C55 0.980 . S
H85 C21 0.930 . S
H86 C25 0.930 . S
H87 C26 0.961 . S
H88 C26 0.960 . S
H89 C26 0.958 . S
H90 C27 0.961 . S
H91 C27 0.960 . S
H92 C27 0.960 . S
H93 C29 0.980 . S
H94 C28 0.961 . S
H95 C28 0.961 . S
H96 C28 0.959 . S
H97 C31 0.932 . S
H98 C35 0.929 . S
H99 C36 0.961 . S
H100 C36 0.991 . S
H101 C36 0.959 . S
H102 C37 0.960 . S
H103 C37 0.962 . S
H104 C37 0.961 . S
H105 C39 0.929 . S
H106 C42 0.930 . S
H107 C43 0.929 . S
H108 C46 0.930 . S
H109 C49 0.929 . S
H110 C50 0.930 . S
H111 C54 0.962 . S
H112 C54 0.959 . S
H113 C54 0.958 . S
C114 C115 1.560 . S
C114 H175 0.959 . S
C114 H176 0.959 . S
C114 H177 0.960 . S
C115 C114 1.560 . S
C115 O170 1.426 . S
C115 H174 0.980 . S
C116 C117 1.407 . S
C116 C121 1.418 . S
C116 O170 1.334 . S
C117 C116 1.407 . S
C117 C118 1.360 . S
C117 H178 0.929 . S
C118 C117 1.360 . S
C118 C119 1.401 . S
C118 C122 1.527 . S
C119 C118 1.401 . S
C119 C120 1.405 . S
C119 C152 1.587 . S
C120 C119 1.405 . S
C120 C121 1.332 . S
C120 C123 1.496 . S
C121 C116 1.418 . S
C121 C120 1.332 . S
C121 H179 0.929 . S
C122 C118 1.527 . S
C122 H180 0.959 . S
C122 H181 0.961 . S
C122 H182 0.961 . S
C123 C120 1.496 . S
C123 H183 0.960 . S
C123 H184 0.960 . S
C123 H185 0.961 . S
C124 C125 1.517 . S
C124 H187 0.961 . S
C124 H188 0.960 . S
C124 H189 0.959 . S
C125 C124 1.517 . S
C125 O173 1.468 . S
C125 H186 0.980 . S
C126 C127 1.349 . S
C126 C131 1.367 . S
C126 O173 1.408 . S
C127 C126 1.349 . S
C127 C128 1.407 . S
C127 H190 0.930 . S
C128 C127 1.407 . S
C128 C129 1.449 . S
C128 C132 1.535 . S
C129 C128 1.449 . S
C129 C130 1.384 . S
C129 C154 1.553 . S
C130 C129 1.384 . S
C130 C131 1.364 . S
C130 C133 1.450 . S
C131 C126 1.367 . S
C131 C130 1.364 . S
C131 H191 0.931 . S
C132 C128 1.535 . S
C132 H192 0.959 . S
C132 H193 0.961 . S
C132 H194 0.959 . S
C133 C130 1.450 . S
C133 H195 0.960 . S
C133 H196 0.960 . S
C133 H197 0.960 . S
C134 C135 1.309 . S
C134 C139 1.304 . S
C134 O172 1.435 . S
C135 C134 1.309 . S
C135 C136 1.476 . S
C135 H199 0.930 . S
C136 C135 1.476 . S
C136 C137 1.400 . S
C136 C140 1.567 . S
C137 C136 1.400 . S
C137 C138 1.373 . S
C137 C159 1.432 . S
C138 C137 1.373 . S
C138 C139 1.339 . S
C138 C141 1.530 . S
C139 C134 1.304 . S
C139 C138 1.339 . S
C139 H200 0.930 . S
C140 C136 1.567 . S
C140 H201 0.961 . S
C140 H202 0.960 . S
C140 H203 0.958 . S
C141 C138 1.530 . S
C141 H204 0.961 . S
C141 H205 0.960 . S
C141 H206 0.960 . S
C142 C143 1.530 . S
C142 H208 0.961 . S
C142 H209 0.961 . S
C142 H210 0.959 . S
C143 C142 1.530 . S
C143 O171 1.412 . S
C143 H207 0.980 . S
C144 C145 1.288 . S
C144 C149 1.377 . S
C144 O171 1.393 . S
C145 C144 1.288 . S
C145 C146 1.369 . S
C145 H211 0.932 . S
C146 C145 1.369 . S
C146 C147 1.398 . S
C146 C150 1.527 1_565 S
C147 C146 1.398 . S
C147 C148 1.380 . S
C147 C161 1.497 1_565 S
C148 C147 1.380 . S
C148 C149 1.383 . S
C148 C151 1.603 . S
C149 C144 1.377 . S
C149 C148 1.383 . S
C149 H212 0.929 . S
C150 C146 1.527 1_545 S
C150 H213 0.961 . S
C150 H214 0.959 . S
C150 H215 0.959 1_545 S
C151 C148 1.603 . S
C151 H216 0.960 . S
C151 H217 0.962 . S
C151 H218 0.961 . S
C152 C119 1.587 . S
C152 C153 1.360 . S
C152 C165 1.412 . S
C153 C152 1.360 . S
C153 C154 1.365 1_565 S
C153 H219 0.929 . S
C154 C129 1.553 . S
C154 C153 1.365 1_545 S
C154 C155 1.404 . S
C155 C154 1.404 . S
C155 C156 1.395 . S
C155 C166 1.451 . S
C156 C155 1.395 . S
C156 C157 1.322 . S
C156 H220 0.930 . S
C157 C156 1.322 . S
C157 C158 1.459 . S
C157 H221 0.929 . S
C158 C157 1.459 . S
C158 C159 1.445 . S
C158 C167 1.395 . S
C159 C137 1.432 . S
C159 C158 1.445 . S
C159 C160 1.370 . S
C160 C159 1.370 . S
C160 C161 1.438 . S
C160 H222 0.930 . S
C161 C147 1.497 1_545 S
C161 C160 1.438 . S
C161 C162 1.360 1_545 S
C162 C161 1.360 1_565 S
C162 C163 1.401 . S
C162 C167 1.446 1_565 S
C163 C162 1.401 . S
C163 C164 1.347 . S
C163 H223 0.929 . S
C164 C163 1.347 . S
C164 C165 1.455 . S
C164 H224 0.930 . S
C165 C152 1.412 . S
C165 C164 1.455 . S
C165 C166 1.331 1_565 S
C166 C155 1.451 . S
C166 C165 1.331 1_545 S
C166 C167 1.497 . S
C167 C158 1.395 . S
C167 C162 1.446 1_545 S
C167 C166 1.497 . S
C168 C169 1.582 . S
C168 H225 0.962 . S
C168 H226 0.959 . S
C168 H227 0.958 . S
C169 C168 1.582 . S
C169 O172 1.458 . S
C169 H198 0.980 . S
O170 C115 1.426 . S
O170 C116 1.334 . S
O171 C143 1.412 . S
O171 C144 1.393 . S
O172 C134 1.435 . S
O172 C169 1.458 . S
O173 C125 1.468 . S
O173 C126 1.408 . S
H174 C115 0.980 . S
H175 C114 0.959 . S
H176 C114 0.959 . S
H177 C114 0.960 . S
H178 C117 0.929 . S
H179 C121 0.929 . S
H180 C122 0.959 . S
H181 C122 0.961 . S
H182 C122 0.961 . S
H183 C123 0.960 . S
H184 C123 0.960 . S
H185 C123 0.961 . S
H186 C125 0.980 . S
H187 C124 0.961 . S
H188 C124 0.960 . S
H189 C124 0.959 . S
H190 C127 0.930 . S
H191 C131 0.931 . S
H192 C132 0.959 . S
H193 C132 0.961 . S
H194 C132 0.959 . S
H195 C133 0.960 . S
H196 C133 0.960 . S
H197 C133 0.960 . S
H198 C169 0.980 . S
H199 C135 0.930 . S
H200 C139 0.930 . S
H201 C140 0.961 . S
H202 C140 0.960 . S
H203 C140 0.958 . S
H204 C141 0.961 . S
H205 C141 0.960 . S
H206 C141 0.960 . S
H207 C143 0.980 . S
H208 C142 0.961 . S
H209 C142 0.961 . S
H210 C142 0.959 . S
H211 C145 0.932 . S
H212 C149 0.929 . S
H213 C150 0.961 . S
H214 C150 0.959 . S
H215 C150 0.959 1_565 S
H216 C151 0.960 . S
H217 C151 0.962 . S
H218 C151 0.961 . S
H219 C153 0.929 . S
H220 C156 0.930 . S
H221 C157 0.929 . S
H222 C160 0.930 . S
H223 C163 0.929 . S
H224 C164 0.930 . S
H225 C168 0.962 . S
H226 C168 0.959 . S
H227 C168 0.958 . S
C228 C229 1.560 . S
C228 H289 0.959 . S
C228 H290 0.959 . S
C228 H291 0.960 . S
C229 C228 1.560 . S
C229 O284 1.426 . S
C229 H288 0.980 . S
C230 C231 1.407 . S
C230 C235 1.418 . S
C230 O284 1.334 . S
C231 C230 1.407 . S
C231 C232 1.360 . S
C231 H292 0.929 . S
C232 C231 1.360 . S
C232 C233 1.401 . S
C232 C236 1.527 . S
C233 C232 1.401 . S
C233 C234 1.405 . S
C233 C266 1.587 . S
C234 C233 1.405 . S
C234 C235 1.332 . S
C234 C237 1.496 . S
C235 C230 1.418 . S
C235 C234 1.332 . S
C235 H293 0.929 . S
C236 C232 1.527 . S
C236 H294 0.959 . S
C236 H295 0.961 . S
C236 H296 0.961 . S
C237 C234 1.496 . S
C237 H297 0.960 . S
C237 H298 0.960 . S
C237 H299 0.961 . S
C238 C239 1.517 . S
C238 H301 0.961 . S
C238 H302 0.960 . S
C238 H303 0.959 . S
C239 C238 1.517 . S
C239 O287 1.468 . S
C239 H300 0.980 . S
C240 C241 1.349 . S
C240 C245 1.367 . S
C240 O287 1.408 . S
C241 C240 1.349 . S
C241 C242 1.407 . S
C241 H304 0.930 . S
C242 C241 1.407 . S
C242 C243 1.449 . S
C242 C246 1.535 . S
C243 C242 1.449 . S
C243 C244 1.384 . S
C243 C268 1.553 . S
C244 C243 1.384 . S
C244 C245 1.364 . S
C244 C247 1.450 . S
C245 C240 1.367 . S
C245 C244 1.364 . S
C245 H305 0.931 . S
C246 C242 1.535 . S
C246 H306 0.959 . S
C246 H307 0.961 . S
C246 H308 0.959 . S
C247 C244 1.450 . S
C247 H309 0.960 . S
C247 H310 0.960 . S
C247 H311 0.960 . S
C248 C249 1.309 . S
C248 C253 1.304 . S
C248 O286 1.435 . S
C249 C248 1.309 . S
C249 C250 1.476 . S
C249 H313 0.930 . S
C250 C249 1.476 . S
C250 C251 1.400 . S
C250 C254 1.567 . S
C251 C250 1.400 . S
C251 C252 1.373 . S
C251 C273 1.432 . S
C252 C251 1.373 . S
C252 C253 1.339 . S
C252 C255 1.530 . S
C253 C248 1.304 . S
C253 C252 1.339 . S
C253 H314 0.930 . S
C254 C250 1.567 . S
C254 H315 0.961 . S
C254 H316 0.960 . S
C254 H317 0.958 . S
C255 C252 1.530 . S
C255 H318 0.961 . S
C255 H319 0.960 . S
C255 H320 0.960 . S
C256 C257 1.530 . S
C256 H322 0.961 . S
C256 H323 0.961 . S
C256 H324 0.959 . S
C257 C256 1.530 . S
C257 O285 1.412 . S
C257 H321 0.980 . S
C258 C259 1.288 . S
C258 C263 1.377 . S
C258 O285 1.393 . S
C259 C258 1.288 . S
C259 C260 1.369 . S
C259 H325 0.932 . S
C260 C259 1.369 . S
C260 C261 1.398 . S
C260 C264 1.527 . S
C261 C260 1.398 . S
C261 C262 1.380 . S
C261 C275 1.497 . S
C262 C261 1.380 . S
C262 C263 1.383 . S
C262 C265 1.603 . S
C263 C258 1.377 . S
C263 C262 1.383 . S
C263 H326 0.929 . S
C264 C260 1.527 . S
C264 H327 0.961 . S
C264 H328 0.959 . S
C264 H329 0.959 . S
C265 C262 1.603 . S
C265 H330 0.960 . S
C265 H331 0.962 . S
C265 H332 0.961 . S
C266 C233 1.587 . S
C266 C267 1.360 . S
C266 C279 1.412 . S
C267 C266 1.360 . S
C267 C268 1.365 . S
C267 H333 0.929 . S
C268 C243 1.553 . S
C268 C267 1.365 . S
C268 C269 1.404 . S
C269 C268 1.404 . S
C269 C270 1.395 . S
C269 C280 1.451 . S
C270 C269 1.395 . S
C270 C271 1.322 . S
C270 H334 0.930 . S
C271 C270 1.322 . S
C271 C272 1.459 . S
C271 H335 0.929 . S
C272 C271 1.459 . S
C272 C273 1.445 . S
C272 C281 1.395 . S
C273 C251 1.432 . S
C273 C272 1.445 . S
C273 C274 1.370 . S
C274 C273 1.370 . S
C274 C275 1.438 . S
C274 H336 0.930 . S
C275 C261 1.497 . S
C275 C274 1.438 . S
C275 C276 1.360 . S
C276 C275 1.360 . S
C276 C277 1.401 . S
C276 C281 1.446 . S
C277 C276 1.401 . S
C277 C278 1.347 . S
C277 H337 0.929 . S
C278 C277 1.347 . S
C278 C279 1.455 . S
C278 H338 0.930 . S
C279 C266 1.412 . S
C279 C278 1.455 . S
C279 C280 1.331 . S
C280 C269 1.451 . S
C280 C279 1.331 . S
C280 C281 1.497 . S
C281 C272 1.395 . S
C281 C276 1.446 . S
C281 C280 1.497 . S
C282 C283 1.582 . S
C282 H339 0.962 . S
C282 H340 0.959 . S
C282 H341 0.958 . S
C283 C282 1.582 . S
C283 O286 1.458 . S
C283 H312 0.980 . S
O284 C229 1.426 . S
O284 C230 1.334 . S
O285 C257 1.412 . S
O285 C258 1.393 . S
O286 C248 1.435 . S
O286 C283 1.458 . S
O287 C239 1.468 . S
O287 C240 1.408 . S
H288 C229 0.980 . S
H289 C228 0.959 . S
H290 C228 0.959 . S
H291 C228 0.960 . S
H292 C231 0.929 . S
H293 C235 0.929 . S
H294 C236 0.959 . S
H295 C236 0.961 . S
H296 C236 0.961 . S
H297 C237 0.960 . S
H298 C237 0.960 . S
H299 C237 0.961 . S
H300 C239 0.980 . S
H301 C238 0.961 . S
H302 C238 0.960 . S
H303 C238 0.959 . S
H304 C241 0.930 . S
H305 C245 0.931 . S
H306 C246 0.959 . S
H307 C246 0.961 . S
H308 C246 0.959 . S
H309 C247 0.960 . S
H310 C247 0.960 . S
H311 C247 0.960 . S
H312 C283 0.980 . S
H313 C249 0.930 . S
H314 C253 0.930 . S
H315 C254 0.961 . S
H316 C254 0.960 . S
H317 C254 0.958 . S
H318 C255 0.961 . S
H319 C255 0.960 . S
H320 C255 0.960 . S
H321 C257 0.980 . S
H322 C256 0.961 . S
H323 C256 0.961 . S
H324 C256 0.959 . S
H325 C259 0.932 . S
H326 C263 0.929 . S
H327 C264 0.961 . S
H328 C264 0.959 . S
H329 C264 0.959 . S
H330 C265 0.960 . S
H331 C265 0.962 . S
H332 C265 0.961 . S
H333 C267 0.929 . S
H334 C270 0.930 . S
H335 C271 0.929 . S
H336 C274 0.930 . S
H337 C277 0.929 . S
H338 C278 0.930 . S
H339 C282 0.962 . S
H340 C282 0.959 . S
H341 C282 0.958 . S
C342 C343 1.560 . S
C342 H403 0.959 . S
C342 H404 0.959 . S
C342 H405 0.960 . S
C343 C342 1.560 . S
C343 O398 1.426 . S
C343 H402 0.980 . S
C344 C345 1.407 . S
C344 C349 1.418 . S
C344 O398 1.334 . S
C345 C344 1.407 . S
C345 C346 1.360 . S
C345 H406 0.929 . S
C346 C345 1.360 . S
C346 C347 1.401 . S
C346 C350 1.527 . S
C347 C346 1.401 . S
C347 C348 1.405 . S
C347 C380 1.587 . S
C348 C347 1.405 . S
C348 C349 1.332 . S
C348 C351 1.496 . S
C349 C344 1.418 . S
C349 C348 1.332 . S
C349 H407 0.929 . S
C350 C346 1.527 . S
C350 H408 0.959 . S
C350 H409 0.961 . S
C350 H410 0.961 . S
C351 C348 1.496 . S
C351 H411 0.960 . S
C351 H412 0.960 . S
C351 H413 0.961 . S
C352 C353 1.517 . S
C352 H415 0.961 . S
C352 H416 0.960 . S
C352 H417 0.959 . S
C353 C352 1.517 . S
C353 O401 1.468 . S
C353 H414 0.980 . S
C354 C355 1.349 . S
C354 C359 1.367 . S
C354 O401 1.408 . S
C355 C354 1.349 . S
C355 C356 1.407 . S
C355 H418 0.930 . S
C356 C355 1.407 . S
C356 C357 1.449 . S
C356 C360 1.535 . S
C357 C356 1.449 . S
C357 C358 1.384 . S
C357 C382 1.553 1_655 S
C358 C357 1.384 . S
C358 C359 1.364 . S
C358 C361 1.450 . S
C359 C354 1.367 . S
C359 C358 1.364 . S
C359 H419 0.931 . S
C360 C356 1.535 . S
C360 H420 0.959 1_655 S
C360 H421 0.961 1_655 S
C360 H422 0.959 . S
C361 C358 1.450 . S
C361 H423 0.960 . S
C361 H424 0.960 1_655 S
C361 H425 0.960 . S
C362 C363 1.309 . S
C362 C367 1.304 . S
C362 O400 1.435 . S
C363 C362 1.309 . S
C363 C364 1.476 . S
C363 H427 0.930 . S
C364 C363 1.476 . S
C364 C365 1.400 . S
C364 C368 1.567 . S
C365 C364 1.400 . S
C365 C366 1.373 . S
C365 C387 1.432 . S
C366 C365 1.373 . S
C366 C367 1.339 . S
C366 C369 1.530 . S
C367 C362 1.304 . S
C367 C366 1.339 . S
C367 H428 0.930 . S
C368 C364 1.567 . S
C368 H429 0.961 . S
C368 H430 0.960 . S
C368 H431 0.958 . S
C369 C366 1.530 . S
C369 H432 0.961 . S
C369 H433 0.960 . S
C369 H434 0.960 . S
C370 C371 1.530 . S
C370 H436 0.961 . S
C370 H437 0.961 . S
C370 H438 0.959 . S
C371 C370 1.530 . S
C371 O399 1.412 . S
C371 H435 0.980 . S
C372 C373 1.288 . S
C372 C377 1.377 . S
C372 O399 1.393 . S
C373 C372 1.288 . S
C373 C374 1.369 . S
C373 H439 0.932 . S
C374 C373 1.369 . S
C374 C375 1.398 . S
C374 C378 1.527 . S
C375 C374 1.398 . S
C375 C376 1.380 . S
C375 C389 1.497 . S
C376 C375 1.380 . S
C376 C377 1.383 . S
C376 C379 1.603 . S
C377 C372 1.377 . S
C377 C376 1.383 . S
C377 H440 0.929 . S
C378 C374 1.527 . S
C378 H441 0.961 . S
C378 H442 0.959 1_455 S
C378 H443 0.959 . S
C379 C376 1.603 . S
C379 H444 0.960 . S
C379 H445 0.962 . S
C379 H446 0.961 . S
C380 C347 1.587 . S
C380 C381 1.360 . S
C380 C393 1.412 . S
C381 C380 1.360 . S
C381 C382 1.365 . S
C381 H447 0.929 . S
C382 C357 1.553 1_455 S
C382 C381 1.365 . S
C382 C383 1.401 1_455 S
C383 C382 1.401 1_655 S
C383 C384 1.404 . S
C383 C394 1.445 1_655 S
C384 C383 1.404 . S
C384 C385 1.322 . S
C384 H448 0.930 . S
C385 C384 1.322 . S
C385 C386 1.459 . S
C385 H449 0.929 . S
C386 C385 1.459 . S
C386 C387 1.445 . S
C386 C395 1.395 1_655 S
C387 C365 1.432 . S
C387 C386 1.445 . S
C387 C388 1.370 . S
C388 C387 1.370 . S
C388 C389 1.438 1_655 S
C388 H450 0.930 . S
C389 C375 1.497 . S
C389 C388 1.438 1_455 S
C389 C390 1.360 . S
C390 C389 1.360 . S
C390 C391 1.401 . S
C390 C395 1.446 . S
C391 C390 1.401 . S
C391 C392 1.347 . S
C391 H451 0.929 . S
C392 C391 1.347 . S
C392 C393 1.455 . S
C392 H452 0.930 . S
C393 C380 1.412 . S
C393 C392 1.455 . S
C393 C394 1.331 . S
C394 C383 1.445 1_455 S
C394 C393 1.331 . S
C394 C395 1.497 . S
C395 C386 1.395 1_455 S
C395 C390 1.446 . S
C395 C394 1.497 . S
C396 C397 1.582 . S
C396 H453 0.962 . S
C396 H454 0.959 . S
C396 H455 0.958 . S
C397 C396 1.582 . S
C397 O400 1.458 . S
C397 H426 0.980 . S
O398 C343 1.426 . S
O398 C344 1.334 . S
O399 C371 1.412 . S
O399 C372 1.393 . S
O400 C362 1.435 . S
O400 C397 1.458 . S
O401 C353 1.468 . S
O401 C354 1.408 . S
H402 C343 0.980 . S
H403 C342 0.959 . S
H404 C342 0.959 . S
H405 C342 0.960 . S
H406 C345 0.929 . S
H407 C349 0.929 . S
H408 C350 0.959 . S
H409 C350 0.961 . S
H410 C350 0.961 . S
H411 C351 0.960 . S
H412 C351 0.960 . S
H413 C351 0.961 . S
H414 C353 0.980 . S
H415 C352 0.961 . S
H416 C352 0.960 . S
H417 C352 0.959 . S
H418 C355 0.930 . S
H419 C359 0.931 . S
H420 C360 0.959 1_455 S
H421 C360 0.961 1_455 S
H422 C360 0.959 . S
H423 C361 0.960 . S
H424 C361 0.960 1_455 S
H425 C361 0.960 . S
H426 C397 0.980 . S
H427 C363 0.930 . S
H428 C367 0.930 . S
H429 C368 0.961 . S
H430 C368 0.960 . S
H431 C368 0.958 . S
H432 C369 0.961 . S
H433 C369 0.960 . S
H434 C369 0.960 . S
H435 C371 0.980 . S
H436 C370 0.961 . S
H437 C370 0.961 . S
H438 C370 0.959 . S
H439 C373 0.932 . S
H440 C377 0.929 . S
H441 C378 0.961 . S
H442 C378 0.959 1_655 S
H443 C378 0.959 . S
H444 C379 0.960 . S
H445 C379 0.962 . S
H446 C379 0.961 . S
H447 C381 0.929 . S
H448 C384 0.930 . S
H449 C385 0.929 . S
H450 C388 0.930 . S
H451 C391 0.929 . S
H452 C392 0.930 . S
H453 C396 0.962 . S
H454 C396 0.959 . S
H455 C396 0.958 . S
C456 C457 1.560 . S
C456 H517 0.959 . S
C456 H518 0.959 . S
C456 H519 0.960 . S
C457 C456 1.560 . S
C457 O512 1.426 . S
C457 H516 0.980 . S
C458 C459 1.407 . S
C458 C463 1.418 . S
C458 O512 1.334 . S
C459 C458 1.407 . S
C459 C460 1.360 . S
C459 H520 0.929 . S
C460 C459 1.360 . S
C460 C461 1.401 . S
C460 C464 1.527 . S
C461 C460 1.401 . S
C461 C462 1.405 . S
C461 C494 1.587 . S
C462 C461 1.405 . S
C462 C463 1.332 . S
C462 C465 1.496 . S
C463 C458 1.418 . S
C463 C462 1.332 . S
C463 H521 0.929 . S
C464 C460 1.527 . S
C464 H522 0.959 . S
C464 H523 0.961 . S
C464 H524 0.961 . S
C465 C462 1.496 . S
C465 H525 0.960 . S
C465 H526 0.960 . S
C465 H527 0.961 . S
C466 C467 1.517 . S
C466 H529 0.961 . S
C466 H530 0.960 . S
C466 H531 0.959 . S
C467 C466 1.517 . S
C467 O515 1.468 . S
C467 H528 0.980 . S
C468 C469 1.349 . S
C468 C473 1.367 . S
C468 O515 1.408 . S
C469 C468 1.349 . S
C469 C470 1.407 . S
C469 H532 0.930 . S
C470 C469 1.407 . S
C470 C471 1.449 . S
C470 C474 1.535 . S
C471 C470 1.449 . S
C471 C472 1.384 . S
C471 C496 1.553 . S
C472 C471 1.384 . S
C472 C473 1.364 . S
C472 C475 1.450 . S
C473 C468 1.367 . S
C473 C472 1.364 . S
C473 H533 0.931 . S
C474 C470 1.535 . S
C474 H534 0.959 . S
C474 H535 0.961 . S
C474 H536 0.959 . S
C475 C472 1.450 . S
C475 H537 0.960 . S
C475 H538 0.960 . S
C475 H539 0.960 . S
C476 C477 1.309 . S
C476 C481 1.304 . S
C476 O514 1.435 . S
C477 C476 1.309 . S
C477 C478 1.476 . S
C477 H541 0.930 . S
C478 C477 1.476 . S
C478 C479 1.400 . S
C478 C482 1.567 . S
C479 C478 1.400 . S
C479 C480 1.373 . S
C479 C501 1.432 . S
C480 C479 1.373 . S
C480 C481 1.339 . S
C480 C483 1.530 . S
C481 C476 1.304 . S
C481 C480 1.339 . S
C481 H542 0.930 . S
C482 C478 1.567 . S
C482 H543 0.961 . S
C482 H544 0.960 . S
C482 H545 0.958 . S
C483 C480 1.530 . S
C483 H546 0.961 . S
C483 H547 0.960 . S
C483 H548 0.960 . S
C484 C485 1.530 . S
C484 H550 0.961 . S
C484 H551 0.961 . S
C484 H552 0.959 . S
C485 C484 1.530 . S
C485 O513 1.412 . S
C485 H549 0.980 . S
C486 C487 1.288 . S
C486 C491 1.377 . S
C486 O513 1.393 . S
C487 C486 1.288 . S
C487 C488 1.369 . S
C487 H553 0.932 . S
C488 C487 1.369 . S
C488 C489 1.398 . S
C488 C492 1.527 1_565 S
C489 C488 1.398 . S
C489 C490 1.380 . S
C489 C503 1.497 1_565 S
C490 C489 1.380 . S
C490 C491 1.383 . S
C490 C493 1.603 . S
C491 C486 1.377 . S
C491 C490 1.383 . S
C491 H554 0.929 . S
C492 C488 1.527 1_545 S
C492 H555 0.961 1_545 S
C492 H556 0.959 . S
C492 H557 0.959 1_545 S
C493 C490 1.603 . S
C493 H558 0.960 . S
C493 H559 0.962 . S
C493 H560 0.961 . S
C494 C461 1.587 . S
C494 C495 1.360 . S
C494 C507 1.412 . S
C495 C494 1.360 . S
C495 C496 1.365 1_565 S
C495 H561 0.929 . S
C496 C471 1.553 . S
C496 C495 1.365 1_545 S
C496 C497 1.404 . S
C497 C496 1.404 . S
C497 C498 1.395 . S
C497 C508 1.424 1_545 S
C498 C497 1.395 . S
C498 C499 1.322 . S
C498 H562 0.930 . S
C499 C498 1.322 . S
C499 C500 1.459 . S
C499 H563 0.929 . S
C500 C499 1.459 . S
C500 C501 1.445 1_556 S
C500 C509 1.395 . S
C501 C479 1.432 . S
C501 C500 1.445 1_554 S
C501 C502 1.370 . S
C502 C501 1.370 . S
C502 C503 1.438 . S
C502 H564 0.930 . S
C503 C489 1.497 1_545 S
C503 C502 1.438 . S
C503 C504 1.360 1_545 S
C504 C503 1.360 1_565 S
C504 C505 1.401 . S
C504 C509 1.446 1_564 S
C505 C504 1.401 . S
C505 C506 1.347 1_554 S
C505 H565 0.929 . S
C506 C505 1.347 1_556 S
C506 C507 1.455 . S
C506 H566 0.930 . S
C507 C494 1.412 . S
C507 C506 1.455 . S
C507 C508 1.369 . S
C508 C497 1.424 1_565 S
C508 C507 1.369 . S
C508 C509 1.483 1_565 S
C509 C500 1.395 . S
C509 C504 1.446 1_546 S
C509 C508 1.483 1_545 S
C510 C511 1.582 . S
C510 H567 0.962 . S
C510 H568 0.959 . S
C510 H569 0.958 . S
C511 C510 1.582 . S
C511 O514 1.458 . S
C511 H540 0.980 . S
O512 C457 1.426 . S
O512 C458 1.334 . S
O513 C485 1.412 . S
O513 C486 1.393 . S
O514 C476 1.435 . S
O514 C511 1.458 . S
O515 C467 1.468 . S
O515 C468 1.408 . S
H516 C457 0.980 . S
H517 C456 0.959 . S
H518 C456 0.959 . S
H519 C456 0.960 . S
H520 C459 0.929 . S
H521 C463 0.929 . S
H522 C464 0.959 . S
H523 C464 0.961 . S
H524 C464 0.961 . S
H525 C465 0.960 . S
H526 C465 0.960 . S
H527 C465 0.961 . S
H528 C467 0.980 . S
H529 C466 0.961 . S
H530 C466 0.960 . S
H531 C466 0.959 . S
H532 C469 0.930 . S
H533 C473 0.931 . S
H534 C474 0.959 . S
H535 C474 0.961 . S
H536 C474 0.959 . S
H537 C475 0.960 . S
H538 C475 0.960 . S
H539 C475 0.960 . S
H540 C511 0.980 . S
H541 C477 0.930 . S
H542 C481 0.930 . S
H543 C482 0.961 . S
H544 C482 0.960 . S
H545 C482 0.958 . S
H546 C483 0.961 . S
H547 C483 0.960 . S
H548 C483 0.960 . S
H549 C485 0.980 . S
H550 C484 0.961 . S
H551 C484 0.961 . S
H552 C484 0.959 . S
H553 C487 0.932 . S
H554 C491 0.929 . S
H555 C492 0.961 1_565 S
H556 C492 0.959 . S
H557 C492 0.959 1_565 S
H558 C493 0.960 . S
H559 C493 0.962 . S
H560 C493 0.961 . S
H561 C495 0.929 . S
H562 C498 0.930 . S
H563 C499 0.929 . S
H564 C502 0.930 . S
H565 C505 0.929 . S
H566 C506 0.930 . S
H567 C510 0.962 . S
H568 C510 0.959 . S
H569 C510 0.958 . S
C570 C571 1.560 . S
C570 H631 0.959 . S
C570 H632 0.959 . S
C570 H633 0.960 . S
C571 C570 1.560 . S
C571 O626 1.426 . S
C571 H630 0.980 . S
C572 C573 1.407 . S
C572 C577 1.418 . S
C572 O626 1.334 . S
C573 C572 1.407 . S
C573 C574 1.360 . S
C573 H634 0.929 . S
C574 C573 1.360 . S
C574 C575 1.401 . S
C574 C578 1.527 . S
C575 C574 1.401 . S
C575 C576 1.405 . S
C575 C608 1.587 . S
C576 C575 1.405 . S
C576 C577 1.332 . S
C576 C579 1.496 . S
C577 C572 1.418 . S
C577 C576 1.332 . S
C577 H635 0.929 . S
C578 C574 1.527 . S
C578 H636 0.959 . S
C578 H637 0.961 . S
C578 H638 0.961 . S
C579 C576 1.496 . S
C579 H639 0.960 . S
C579 H640 0.960 . S
C579 H641 0.961 . S
C580 C581 1.517 . S
C580 H643 0.961 . S
C580 H644 0.960 . S
C580 H645 0.959 . S
C581 C580 1.517 . S
C581 O629 1.468 . S
C581 H642 0.980 . S
C582 C583 1.349 . S
C582 C587 1.367 . S
C582 O629 1.408 . S
C583 C582 1.349 . S
C583 C584 1.407 . S
C583 H646 0.930 . S
C584 C583 1.407 . S
C584 C585 1.449 . S
C584 C588 1.535 . S
C585 C584 1.449 . S
C585 C586 1.384 . S
C585 C610 1.553 . S
C586 C585 1.384 . S
C586 C587 1.364 . S
C586 C589 1.450 . S
C587 C582 1.367 . S
C587 C586 1.364 . S
C587 H647 0.931 . S
C588 C584 1.535 . S
C588 H648 0.959 . S
C588 H649 0.961 . S
C588 H650 0.959 . S
C589 C586 1.450 . S
C589 H651 0.960 . S
C589 H652 0.960 . S
C589 H653 0.960 . S
C590 C591 1.309 . S
C590 C595 1.304 . S
C590 O628 1.435 . S
C591 C590 1.309 . S
C591 C592 1.476 . S
C591 H655 0.930 . S
C592 C591 1.476 . S
C592 C593 1.400 . S
C592 C596 1.567 . S
C593 C592 1.400 . S
C593 C594 1.373 . S
C593 C615 1.432 . S
C594 C593 1.373 . S
C594 C595 1.339 . S
C594 C597 1.530 . S
C595 C590 1.304 . S
C595 C594 1.339 . S
C595 H656 0.930 . S
C596 C592 1.567 . S
C596 H657 0.961 . S
C596 H658 0.960 . S
C596 H659 0.958 . S
C597 C594 1.530 . S
C597 H660 0.961 . S
C597 H661 0.960 . S
C597 H662 0.960 . S
C598 C599 1.530 . S
C598 H664 0.961 . S
C598 H665 0.961 . S
C598 H666 0.959 . S
C599 C598 1.530 . S
C599 O627 1.412 . S
C599 H663 0.980 . S
C600 C601 1.288 . S
C600 C605 1.377 . S
C600 O627 1.393 . S
C601 C600 1.288 . S
C601 C602 1.369 . S
C601 H667 0.932 . S
C602 C601 1.369 . S
C602 C603 1.398 . S
C602 C606 1.527 . S
C603 C602 1.398 . S
C603 C604 1.380 . S
C603 C617 1.497 . S
C604 C603 1.380 . S
C604 C605 1.383 . S
C604 C607 1.603 . S
C605 C600 1.377 . S
C605 C604 1.383 . S
C605 H668 0.929 . S
C606 C602 1.527 . S
C606 H669 0.961 . S
C606 H670 0.959 . S
C606 H671 0.959 . S
C607 C604 1.603 . S
C607 H672 0.960 . S
C607 H673 0.962 . S
C607 H674 0.961 . S
C608 C575 1.587 . S
C608 C609 1.360 . S
C608 C621 1.412 . S
C609 C608 1.360 . S
C609 C610 1.365 . S
C609 H675 0.929 . S
C610 C585 1.553 . S
C610 C609 1.365 . S
C610 C611 1.404 . S
C611 C610 1.404 . S
C611 C612 1.395 . S
C611 C622 1.451 . S
C612 C611 1.395 . S
C612 C613 1.322 . S
C612 H676 0.930 . S
C613 C612 1.322 . S
C613 C614 1.459 . S
C613 H677 0.929 . S
C614 C613 1.459 . S
C614 C615 1.445 . S
C614 C623 1.395 . S
C615 C593 1.432 . S
C615 C614 1.445 . S
C615 C616 1.370 . S
C616 C615 1.370 . S
C616 C617 1.438 . S
C616 H678 0.930 . S
C617 C603 1.497 . S
C617 C616 1.438 . S
C617 C618 1.360 . S
C618 C617 1.360 . S
C618 C619 1.401 . S
C618 C623 1.446 . S
C619 C618 1.401 . S
C619 C620 1.347 . S
C619 H679 0.929 . S
C620 C619 1.347 . S
C620 C621 1.455 . S
C620 H680 0.930 . S
C621 C608 1.412 . S
C621 C620 1.455 . S
C621 C622 1.331 . S
C622 C611 1.451 . S
C622 C621 1.331 . S
C622 C623 1.497 . S
C623 C614 1.395 . S
C623 C618 1.446 . S
C623 C622 1.497 . S
C624 C625 1.582 . S
C624 H681 0.962 . S
C624 H682 0.959 . S
C624 H683 0.958 . S
C625 C624 1.582 . S
C625 O628 1.458 . S
C625 H654 0.980 . S
O626 C571 1.426 . S
O626 C572 1.334 . S
O627 C599 1.412 . S
O627 C600 1.393 . S
O628 C590 1.435 . S
O628 C625 1.458 . S
O629 C581 1.468 . S
O629 C582 1.408 . S
H630 C571 0.980 . S
H631 C570 0.959 . S
H632 C570 0.959 . S
H633 C570 0.960 . S
H634 C573 0.929 . S
H635 C577 0.929 . S
H636 C578 0.959 . S
H637 C578 0.961 . S
H638 C578 0.961 . S
H639 C579 0.960 . S
H640 C579 0.960 . S
H641 C579 0.961 . S
H642 C581 0.980 . S
H643 C580 0.961 . S
H644 C580 0.960 . S
H645 C580 0.959 . S
H646 C583 0.930 . S
H647 C587 0.931 . S
H648 C588 0.959 . S
H649 C588 0.961 . S
H650 C588 0.959 . S
H651 C589 0.960 . S
H652 C589 0.960 . S
H653 C589 0.960 . S
H654 C625 0.980 . S
H655 C591 0.930 . S
H656 C595 0.930 . S
H657 C596 0.961 . S
H658 C596 0.960 . S
H659 C596 0.958 . S
H660 C597 0.961 . S
H661 C597 0.960 . S
H662 C597 0.960 . S
H663 C599 0.980 . S
H664 C598 0.961 . S
H665 C598 0.961 . S
H666 C598 0.959 . S
H667 C601 0.932 . S
H668 C605 0.929 . S
H669 C606 0.961 . S
H670 C606 0.959 . S
H671 C606 0.959 . S
H672 C607 0.960 . S
H673 C607 0.962 . S
H674 C607 0.961 . S
H675 C609 0.929 . S
H676 C612 0.930 . S
H677 C613 0.929 . S
H678 C616 0.930 . S
H679 C619 0.929 . S
H680 C620 0.930 . S
H681 C624 0.962 . S
H682 C624 0.959 . S
H683 C624 0.958 . S
C684 O685 1.306 . S
C684 O687 1.160 . S
O685 C684 1.306 . S
O685 Cd686 2.228 . S
Cd686 O685 2.228 . S
Cd686 O690 2.273 . S
Cd686 O694 2.277 . S
O687 C684 1.160 . S
O687 Cd688 2.203 . S
Cd688 O687 2.203 . S
Cd688 O690 2.411 . S
Cd688 O691 2.333 . S
Cd688 O692 2.352 . S
Cd688 O696 2.277 . S
Cd688 O697 2.356 . S
C689 O694 1.209 . S
C689 O696 1.226 . S
O690 Cd686 2.273 . S
O690 Cd688 2.411 . S
O690 C693 1.320 . S
O691 Cd688 2.333 . S
O691 C693 1.214 . S
O692 Cd688 2.352 . S
O692 C695 1.258 . S
C693 O690 1.320 . S
C693 O691 1.214 . S
O694 Cd686 2.277 . S
O694 C689 1.209 . S
C695 O692 1.258 . S
C695 O697 1.282 . S
O696 Cd688 2.277 . S
O696 C689 1.226 . S
O697 Cd688 2.356 . S
O697 C695 1.282 . S
C698 O699 1.306 . S
C698 O701 1.160 . S
O699 C698 1.306 . S
O699 Cd700 2.228 . S
Cd700 O699 2.228 . S
Cd700 O704 2.273 . S
Cd700 O708 2.277 . S
O701 C698 1.160 . S
O701 Cd702 2.203 . S
Cd702 O701 2.203 . S
Cd702 O704 2.411 . S
Cd702 O705 2.333 . S
Cd702 O706 2.352 . S
Cd702 O710 2.277 . S
Cd702 O711 2.356 . S
C703 O708 1.209 . S
C703 O710 1.226 . S
O704 Cd700 2.273 . S
O704 Cd702 2.411 . S
O704 C707 1.320 . S
O705 Cd702 2.333 . S
O705 C707 1.214 . S
O706 Cd702 2.352 . S
O706 C709 1.258 . S
C707 O704 1.320 . S
C707 O705 1.214 . S
O708 Cd700 2.277 . S
O708 C703 1.209 . S
C709 O706 1.258 . S
C709 O711 1.282 . S
O710 Cd702 2.277 . S
O710 C703 1.226 . S
O711 Cd702 2.356 . S
O711 C709 1.282 . S
C712 O713 1.306 . S
C712 O715 1.160 . S
O713 C712 1.306 . S
O713 Cd714 2.228 . S
Cd714 O713 2.228 . S
Cd714 O718 2.273 . S
Cd714 O722 2.277 . S
O715 C712 1.160 . S
O715 Cd716 2.203 . S
Cd716 O715 2.203 . S
Cd716 O718 2.411 . S
Cd716 O719 2.333 . S
Cd716 O720 2.352 . S
Cd716 O724 2.277 . S
Cd716 O725 2.356 . S
C717 O722 1.209 . S
C717 O724 1.226 . S
O718 Cd714 2.273 . S
O718 Cd716 2.411 . S
O718 C721 1.320 . S
O719 Cd716 2.333 . S
O719 C721 1.214 . S
O720 Cd716 2.352 . S
O720 C723 1.258 . S
C721 O718 1.320 . S
C721 O719 1.214 . S
O722 Cd714 2.277 . S
O722 C717 1.209 . S
C723 O720 1.258 . S
C723 O725 1.282 . S
O724 Cd716 2.277 . S
O724 C717 1.226 . S
O725 Cd716 2.356 . S
O725 C723 1.282 . S
C726 O727 1.306 . S
C726 O729 1.160 . S
O727 C726 1.306 . S
O727 Cd728 2.228 . S
Cd728 O727 2.228 . S
Cd728 O732 2.273 . S
Cd728 O736 2.277 . S
O729 C726 1.160 . S
O729 Cd730 2.203 . S
Cd730 O729 2.203 . S
Cd730 O732 2.411 . S
Cd730 O733 2.333 . S
Cd730 O734 2.352 . S
Cd730 O738 2.277 . S
Cd730 O739 2.356 . S
C731 O736 1.209 . S
C731 O738 1.226 . S
O732 Cd728 2.273 . S
O732 Cd730 2.411 . S
O732 C735 1.320 . S
O733 Cd730 2.333 . S
O733 C735 1.214 . S
O734 Cd730 2.352 . S
O734 C737 1.258 . S
C735 O732 1.320 . S
C735 O733 1.214 . S
O736 Cd728 2.277 . S
O736 C731 1.209 . S
C737 O734 1.258 . S
C737 O739 1.282 . S
O738 Cd730 2.277 . S
O738 C731 1.226 . S
O739 Cd730 2.356 . S
O739 C737 1.282 . S
C740 O741 1.306 . S
C740 O743 1.160 . S
O741 C740 1.306 . S
O741 Cd742 2.228 . S
Cd742 O741 2.228 . S
Cd742 O746 2.273 . S
Cd742 O750 2.277 . S
O743 C740 1.160 . S
O743 Cd744 2.203 . S
Cd744 O743 2.203 . S
Cd744 O746 2.411 . S
Cd744 O747 2.333 . S
Cd744 O748 2.352 . S
Cd744 O752 2.277 . S
Cd744 O753 2.356 . S
C745 O750 1.209 . S
C745 O752 1.226 . S
O746 Cd742 2.273 . S
O746 Cd744 2.411 . S
O746 C749 1.320 . S
O747 Cd744 2.333 . S
O747 C749 1.214 . S
O748 Cd744 2.352 . S
O748 C751 1.258 . S
C749 O746 1.320 . S
C749 O747 1.214 . S
O750 Cd742 2.277 . S
O750 C745 1.209 . S
C751 O748 1.258 . S
C751 O753 1.282 . S
O752 Cd744 2.277 . S
O752 C745 1.226 . S
O753 Cd744 2.356 . S
O753 C751 1.282 . S
C754 O755 1.306 . S
C754 O757 1.160 . S
O755 C754 1.306 . S
O755 Cd756 2.228 . S
Cd756 O755 2.228 . S
Cd756 O760 2.273 . S
Cd756 O764 2.277 . S
O757 C754 1.160 . S
O757 Cd758 2.203 . S
Cd758 O757 2.203 . S
Cd758 O760 2.411 . S
Cd758 O761 2.333 . S
Cd758 O762 2.352 . S
Cd758 O766 2.277 . S
Cd758 O767 2.356 . S
C759 O764 1.209 . S
C759 O766 1.226 . S
O760 Cd756 2.273 . S
O760 Cd758 2.411 . S
O760 C763 1.320 . S
O761 Cd758 2.333 . S
O761 C763 1.214 . S
O762 Cd758 2.352 . S
O762 C765 1.258 . S
C763 O760 1.320 . S
C763 O761 1.214 . S
O764 Cd756 2.277 . S
O764 C759 1.209 . S
C765 O762 1.258 . S
C765 O767 1.282 . S
O766 Cd758 2.277 . S
O766 C759 1.226 . S
O767 Cd758 2.356 . S
O767 C765 1.282 . S
H768 C776 0.950 . S
H769 C781 0.950 . S
H770 C778 0.950 . S
H771 C780 0.950 . S
H772 C782 0.950 . S
H773 C784 0.950 . S
H774 C786 0.950 . S
H775 C787 0.950 . S
C776 H768 0.950 . S
C776 C777 1.386 . S
C776 C778 1.391 . S
C777 C776 1.386 . S
C777 C781 1.393 . S
C778 H770 0.950 . S
C778 C776 1.391 . S
C778 C779 1.400 . S
C779 C778 1.400 . S
C779 C780 1.398 . S
C779 C785 1.491 . S
C780 H771 0.950 . S
C780 C779 1.398 . S
C780 C781 1.391 . S
C781 H769 0.950 . S
C781 C777 1.393 . S
C781 C780 1.391 . S
C782 H772 0.950 . S
C782 C783 1.386 . S
C782 C784 1.391 . S
C783 C782 1.386 . S
C783 C787 1.393 . S
C784 H773 0.950 . S
C784 C782 1.391 . S
C784 C785 1.400 . S
C785 C779 1.491 . S
C785 C784 1.400 . S
C785 C786 1.398 . S
C786 H774 0.950 . S
C786 C785 1.398 . S
C786 C787 1.391 . S
C787 H775 0.950 . S
C787 C783 1.393 . S
C787 C786 1.391 . S
H788 C796 0.950 . S
H789 C801 0.950 . S
H790 C798 0.950 . S
H791 C800 0.950 . S
H792 C802 0.950 . S
H793 C804 0.950 . S
H794 C806 0.950 . S
H795 C807 0.950 . S
C796 H788 0.950 . S
C796 C797 1.386 . S
C796 C798 1.391 . S
C797 C796 1.386 . S
C797 C801 1.393 . S
C798 H790 0.950 . S
C798 C796 1.391 . S
C798 C799 1.400 . S
C799 C798 1.400 . S
C799 C800 1.398 . S
C799 C805 1.491 . S
C800 H791 0.950 . S
C800 C799 1.398 . S
C800 C801 1.391 . S
C801 H789 0.950 . S
C801 C797 1.393 . S
C801 C800 1.391 . S
C802 H792 0.950 . S
C802 C803 1.386 . S
C802 C804 1.391 . S
C803 C802 1.386 . S
C803 C807 1.393 . S
C804 H793 0.950 . S
C804 C802 1.391 . S
C804 C805 1.400 . S
C805 C799 1.491 . S
C805 C804 1.400 . S
C805 C806 1.398 . S
C806 H794 0.950 . S
C806 C805 1.398 . S
C806 C807 1.391 . S
C807 H795 0.950 . S
C807 C803 1.393 . S
C807 C806 1.391 . S
H808 C816 0.950 . S
H809 C821 0.950 . S
H810 C818 0.950 . S
H811 C820 0.950 . S
H812 C822 0.950 . S
H813 C824 0.950 . S
H814 C826 0.950 . S
H815 C827 0.950 . S
C816 H808 0.950 . S
C816 C817 1.386 . S
C816 C818 1.391 . S
C817 C816 1.386 . S
C817 C821 1.393 . S
C818 H810 0.950 . S
C818 C816 1.391 . S
C818 C819 1.400 . S
C819 C818 1.400 . S
C819 C820 1.398 . S
C819 C825 1.491 . S
C820 H811 0.950 . S
C820 C819 1.398 . S
C820 C821 1.391 . S
C821 H809 0.950 . S
C821 C817 1.393 . S
C821 C820 1.391 . S
C822 H812 0.950 . S
C822 C823 1.386 . S
C822 C824 1.391 . S
C823 C822 1.386 . S
C823 C827 1.393 . S
C824 H813 0.950 . S
C824 C822 1.391 . S
C824 C825 1.400 . S
C825 C819 1.491 . S
C825 C824 1.400 . S
C825 C826 1.398 . S
C826 H814 0.950 . S
C826 C825 1.398 . S
C826 C827 1.391 . S
C827 H815 0.950 . S
C827 C823 1.393 . S
C827 C826 1.391 . S
H828 C836 0.950 . S
H829 C841 0.950 . S
H830 C838 0.950 . S
H831 C840 0.950 . S
H832 C842 0.950 . S
H833 C844 0.950 . S
H834 C846 0.950 . S
H835 C847 0.950 . S
C836 H828 0.950 . S
C836 C837 1.386 . S
C836 C838 1.391 . S
C837 C836 1.386 . S
C837 C841 1.393 . S
C838 H830 0.950 . S
C838 C836 1.391 . S
C838 C839 1.400 . S
C839 C838 1.400 . S
C839 C840 1.398 . S
C839 C845 1.491 . S
C840 H831 0.950 . S
C840 C839 1.398 . S
C840 C841 1.391 . S
C841 H829 0.950 . S
C841 C837 1.393 . S
C841 C840 1.391 . S
C842 H832 0.950 . S
C842 C843 1.386 . S
C842 C844 1.391 . S
C843 C842 1.386 . S
C843 C847 1.393 . S
C844 H833 0.950 . S
C844 C842 1.391 . S
C844 C845 1.400 . S
C845 C839 1.491 . S
C845 C844 1.400 . S
C845 C846 1.398 . S
C846 H834 0.950 . S
C846 C845 1.398 . S
C846 C847 1.391 . S
C847 H835 0.950 . S
C847 C843 1.393 . S
C847 C846 1.391 . S
H848 C856 0.950 . S
H849 C861 0.950 . S
H850 C858 0.950 . S
H851 C860 0.950 . S
H852 C862 0.950 . S
H853 C864 0.950 . S
H854 C866 0.950 . S
H855 C867 0.950 . S
C856 H848 0.950 . S
C856 C857 1.386 . S
C856 C858 1.391 . S
C857 C856 1.386 . S
C857 C861 1.393 . S
C858 H850 0.950 . S
C858 C856 1.391 . S
C858 C859 1.400 . S
C859 C858 1.400 . S
C859 C860 1.398 . S
C859 C865 1.491 . S
C860 H851 0.950 . S
C860 C859 1.398 . S
C860 C861 1.391 . S
C861 H849 0.950 . S
C861 C857 1.393 . S
C861 C860 1.391 . S
C862 H852 0.950 . S
C862 C863 1.386 . S
C862 C864 1.391 . S
C863 C862 1.386 . S
C863 C867 1.393 . S
C864 H853 0.950 . S
C864 C862 1.391 . S
C864 C865 1.400 . S
C865 C859 1.491 . S
C865 C864 1.400 . S
C865 C866 1.398 . S
C866 H854 0.950 . S
C866 C865 1.398 . S
C866 C867 1.391 . S
C867 H855 0.950 . S
C867 C863 1.393 . S
C867 C866 1.391 . S
H868 C876 0.950 . S
H869 C881 0.950 . S
H870 C878 0.950 . S
H871 C880 0.950 . S
H872 C882 0.950 . S
H873 C884 0.950 . S
H874 C886 0.950 . S
H875 C887 0.950 . S
C876 H868 0.950 . S
C876 C877 1.386 . S
C876 C878 1.391 . S
C877 C876 1.386 . S
C877 C881 1.393 . S
C878 H870 0.950 . S
C878 C876 1.391 . S
C878 C879 1.400 . S
C879 C878 1.400 . S
C879 C880 1.398 . S
C879 C885 1.491 . S
C880 H871 0.950 . S
C880 C879 1.398 . S
C880 C881 1.391 . S
C881 H869 0.950 . S
C881 C877 1.393 . S
C881 C880 1.391 . S
C882 H872 0.950 . S
C882 C883 1.386 . S
C882 C884 1.391 . S
C883 C882 1.386 . S
C883 C887 1.393 . S
C884 H873 0.950 . S
C884 C882 1.391 . S
C884 C885 1.400 . S
C885 C879 1.491 . S
C885 C884 1.400 . S
C885 C886 1.398 . S
C886 H874 0.950 . S
C886 C885 1.398 . S
C886 C887 1.391 . S
C887 H875 0.950 . S
C887 C883 1.393 . S
C887 C886 1.391 . S
H888 C896 0.950 . S
H889 C901 0.950 . S
H890 C898 0.950 . S
H891 C900 0.950 . S
H892 C902 0.950 . S
H893 C904 0.950 . S
H894 C906 0.950 . S
H895 C907 0.950 . S
C896 H888 0.950 . S
C896 C897 1.386 . S
C896 C898 1.391 . S
C897 C896 1.386 . S
C897 C901 1.393 . S
C898 H890 0.950 . S
C898 C896 1.391 . S
C898 C899 1.400 . S
C899 C898 1.400 . S
C899 C900 1.398 . S
C899 C905 1.491 . S
C900 H891 0.950 . S
C900 C899 1.398 . S
C900 C901 1.391 . S
C901 H889 0.950 . S
C901 C897 1.393 . S
C901 C900 1.391 . S
C902 H892 0.950 . S
C902 C903 1.386 . S
C902 C904 1.391 . S
C903 C902 1.386 . S
C903 C907 1.393 . S
C904 H893 0.950 . S
C904 C902 1.391 . S
C904 C905 1.400 . S
C905 C899 1.491 . S
C905 C904 1.400 . S
C905 C906 1.398 . S
C906 H894 0.950 . S
C906 C905 1.398 . S
C906 C907 1.391 . S
C907 H895 0.950 . S
C907 C903 1.393 . S
C907 C906 1.391 . S
H908 C916 0.950 . S
H909 C921 0.950 . S
H910 C918 0.950 . S
H911 C920 0.950 . S
H912 C922 0.950 . S
H913 C924 0.950 . S
H914 C926 0.950 . S
H915 C927 0.950 . S
C916 H908 0.950 . S
C916 C917 1.386 . S
C916 C918 1.391 . S
C917 C916 1.386 . S
C917 C921 1.393 . S
C918 H910 0.950 . S
C918 C916 1.391 . S
C918 C919 1.400 . S
C919 C918 1.400 . S
C919 C920 1.398 . S
C919 C925 1.491 . S
C920 H911 0.950 . S
C920 C919 1.398 . S
C920 C921 1.391 . S
C921 H909 0.950 . S
C921 C917 1.393 . S
C921 C920 1.391 . S
C922 H912 0.950 . S
C922 C923 1.386 . S
C922 C924 1.391 . S
C923 C922 1.386 . S
C923 C927 1.393 . S
C924 H913 0.950 . S
C924 C922 1.391 . S
C924 C925 1.400 . S
C925 C919 1.491 . S
C925 C924 1.400 . S
C925 C926 1.398 . S
C926 H914 0.950 . S
C926 C925 1.398 . S
C926 C927 1.391 . S
C927 H915 0.950 . S
C927 C923 1.393 . S
C927 C926 1.391 . S
H928 C936 0.950 . S
H929 C941 0.950 . S
H930 C938 0.950 . S
H931 C940 0.950 . S
H932 C942 0.950 . S
H933 C944 0.950 . S
H934 C946 0.950 . S
H935 C947 0.950 . S
C936 H928 0.950 . S
C936 C937 1.386 . S
C936 C938 1.391 . S
C937 C936 1.386 . S
C937 C941 1.393 . S
C938 H930 0.950 . S
C938 C936 1.391 . S
C938 C939 1.400 . S
C939 C938 1.400 . S
C939 C940 1.398 . S
C939 C945 1.491 . S
C940 H931 0.950 . S
C940 C939 1.398 . S
C940 C941 1.391 . S
C941 H929 0.950 . S
C941 C937 1.393 . S
C941 C940 1.391 . S
C942 H932 0.950 . S
C942 C943 1.386 . S
C942 C944 1.391 . S
C943 C942 1.386 . S
C943 C947 1.393 . S
C944 H933 0.950 . S
C944 C942 1.391 . S
C944 C945 1.400 . S
C945 C939 1.491 . S
C945 C944 1.400 . S
C945 C946 1.398 . S
C946 H934 0.950 . S
C946 C945 1.398 . S
C946 C947 1.391 . S
C947 H935 0.950 . S
C947 C943 1.393 . S
C947 C946 1.391 . S
H948 C956 0.950 . S
H949 C961 0.950 . S
H950 C958 0.950 . S
H951 C960 0.950 . S
H952 C962 0.950 . S
H953 C964 0.950 . S
H954 C966 0.950 . S
H955 C967 0.950 . S
C956 H948 0.950 . S
C956 C957 1.386 . S
C956 C958 1.391 . S
C957 C956 1.386 . S
C957 C961 1.393 . S
C958 H950 0.950 . S
C958 C956 1.391 . S
C958 C959 1.400 . S
C959 C958 1.400 . S
C959 C960 1.398 . S
C959 C965 1.491 . S
C960 H951 0.950 . S
C960 C959 1.398 . S
C960 C961 1.391 . S
C961 H949 0.950 . S
C961 C957 1.393 . S
C961 C960 1.391 . S
C962 H952 0.950 . S
C962 C963 1.386 . S
C962 C964 1.391 . S
C963 C962 1.386 . S
C963 C967 1.393 . S
C964 H953 0.950 . S
C964 C962 1.391 . S
C964 C965 1.400 . S
C965 C959 1.491 . S
C965 C964 1.400 . S
C965 C966 1.398 . S
C966 H954 0.950 . S
C966 C965 1.398 . S
C966 C967 1.391 . S
C967 H955 0.950 . S
C967 C963 1.393 . S
C967 C966 1.391 . S
H968 C976 0.950 . S
H969 C981 0.950 . S
H970 C978 0.950 . S
H971 C980 0.950 . S
H972 C982 0.950 . S
H973 C984 0.950 . S
H974 C986 0.950 . S
H975 C987 0.950 . S
C976 H968 0.950 . S
C976 C977 1.386 . S
C976 C978 1.391 . S
C977 C976 1.386 . S
C977 C981 1.393 . S
C978 H970 0.950 . S
C978 C976 1.391 . S
C978 C979 1.400 . S
C979 C978 1.400 . S
C979 C980 1.398 . S
C979 C985 1.491 . S
C980 H971 0.950 . S
C980 C979 1.398 . S
C980 C981 1.391 . S
C981 H969 0.950 . S
C981 C977 1.393 . S
C981 C980 1.391 . S
C982 H972 0.950 . S
C982 C983 1.386 . S
C982 C984 1.391 . S
C983 C982 1.386 . S
C983 C987 1.393 . S
C984 H973 0.950 . S
C984 C982 1.391 . S
C984 C985 1.400 . S
C985 C979 1.491 . S
C985 C984 1.400 . S
C985 C986 1.398 . S
C986 H974 0.950 . S
C986 C985 1.398 . S
C986 C987 1.391 . S
C987 H975 0.950 . S
C987 C983 1.393 . S
C987 C986 1.391 . S
H988 C996 0.950 . S
H989 C1001 0.950 . S
H990 C998 0.950 . S
H991 C1000 0.950 . S
H992 C1002 0.950 . S
H993 C1004 0.950 . S
H994 C1006 0.950 . S
H995 C1007 0.950 . S
C996 H988 0.950 . S
C996 C997 1.386 . S
C996 C998 1.391 . S
C997 C996 1.386 . S
C997 C1001 1.393 . S
C998 H990 0.950 . S
C998 C996 1.391 . S
C998 C999 1.400 . S
C999 C998 1.400 . S
C999 C1000 1.398 . S
C999 C1005 1.491 . S
C1000 H991 0.950 . S
C1000 C999 1.398 . S
C1000 C1001 1.391 . S
C1001 H989 0.950 . S
C1001 C997 1.393 . S
C1001 C1000 1.391 . S
C1002 H992 0.950 . S
C1002 C1003 1.386 . S
C1002 C1004 1.391 . S
C1003 C1002 1.386 . S
C1003 C1007 1.393 . S
C1004 H993 0.950 . S
C1004 C1002 1.391 . S
C1004 C1005 1.400 . S
C1005 C999 1.491 . S
C1005 C1004 1.400 . S
C1005 C1006 1.398 . S
C1006 H994 0.950 . S
C1006 C1005 1.398 . S
C1006 C1007 1.391 . S
C1007 H995 0.950 . S
C1007 C1003 1.393 . S
C1007 C1006 1.391 . S
H1008 C1016 0.950 . S
H1009 C1021 0.950 . S
H1010 C1018 0.950 . S
H1011 C1020 0.950 . S
H1012 C1022 0.950 . S
H1013 C1024 0.950 . S
H1014 C1026 0.950 . S
H1015 C1027 0.950 . S
C1016 H1008 0.950 . S
C1016 C1017 1.386 . S
C1016 C1018 1.391 . S
C1017 C1016 1.386 . S
C1017 C1021 1.393 . S
C1018 H1010 0.950 . S
C1018 C1016 1.391 . S
C1018 C1019 1.400 . S
C1019 C1018 1.400 . S
C1019 C1020 1.398 . S
C1019 C1025 1.491 . S
C1020 H1011 0.950 . S
C1020 C1019 1.398 . S
C1020 C1021 1.391 . S
C1021 H1009 0.950 . S
C1021 C1017 1.393 . S
C1021 C1020 1.391 . S
C1022 H1012 0.950 . S
C1022 C1023 1.386 . S
C1022 C1024 1.391 . S
C1023 C1022 1.386 . S
C1023 C1027 1.393 . S
C1024 H1013 0.950 . S
C1024 C1022 1.391 . S
C1024 C1025 1.400 . S
C1025 C1019 1.491 . S
C1025 C1024 1.400 . S
C1025 C1026 1.398 . S
C1026 H1014 0.950 . S
C1026 C1025 1.398 . S
C1026 C1027 1.391 . S
C1027 H1015 0.950 . S
C1027 C1023 1.393 . S
C1027 C1026 1.391 . S
H1028 C1036 0.950 . S
H1029 C1041 0.950 . S
H1030 C1038 0.950 . S
H1031 C1040 0.950 . S
H1032 C1042 0.950 . S
H1033 C1044 0.950 . S
H1034 C1046 0.950 . S
H1035 C1047 0.950 . S
C1036 H1028 0.950 . S
C1036 C1037 1.386 . S
C1036 C1038 1.391 . S
C1037 C1036 1.386 . S
C1037 C1041 1.393 . S
C1038 H1030 0.950 . S
C1038 C1036 1.391 . S
C1038 C1039 1.400 . S
C1039 C1038 1.400 . S
C1039 C1040 1.398 . S
C1039 C1045 1.491 . S
C1040 H1031 0.950 . S
C1040 C1039 1.398 . S
C1040 C1041 1.391 . S
C1041 H1029 0.950 . S
C1041 C1037 1.393 . S
C1041 C1040 1.391 . S
C1042 H1032 0.950 . S
C1042 C1043 1.386 . S
C1042 C1044 1.391 . S
C1043 C1042 1.386 . S
C1043 C1047 1.393 . S
C1044 H1033 0.950 . S
C1044 C1042 1.391 . S
C1044 C1045 1.400 . S
C1045 C1039 1.491 . S
C1045 C1044 1.400 . S
C1045 C1046 1.398 . S
C1046 H1034 0.950 . S
C1046 C1045 1.398 . S
C1046 C1047 1.391 . S
C1047 H1035 0.950 . S
C1047 C1043 1.393 . S
C1047 C1046 1.391 . S
H1048 C1056 0.950 . S
H1049 C1061 0.950 . S
H1050 C1058 0.950 . S
H1051 C1060 0.950 . S
H1052 C1062 0.950 . S
H1053 C1064 0.950 . S
H1054 C1066 0.950 . S
H1055 C1067 0.950 . S
C1056 H1048 0.950 . S
C1056 C1057 1.386 . S
C1056 C1058 1.391 . S
C1057 C1056 1.386 . S
C1057 C1061 1.393 . S
C1058 H1050 0.950 . S
C1058 C1056 1.391 . S
C1058 C1059 1.400 . S
C1059 C1058 1.400 . S
C1059 C1060 1.398 . S
C1059 C1065 1.491 . S
C1060 H1051 0.950 . S
C1060 C1059 1.398 . S
C1060 C1061 1.391 . S
C1061 H1049 0.950 . S
C1061 C1057 1.393 . S
C1061 C1060 1.391 . S
C1062 H1052 0.950 . S
C1062 C1063 1.386 . S
C1062 C1064 1.391 . S
C1063 C1062 1.386 . S
C1063 C1067 1.393 . S
C1064 H1053 0.950 . S
C1064 C1062 1.391 . S
C1064 C1065 1.400 . S
C1065 C1059 1.491 . S
C1065 C1064 1.400 . S
C1065 C1066 1.398 . S
C1066 H1054 0.950 . S
C1066 C1065 1.398 . S
C1066 C1067 1.391 . S
C1067 H1055 0.950 . S
C1067 C1063 1.393 . S
C1067 C1066 1.391 . S
H1068 C1076 0.950 . S
H1069 C1081 0.950 . S
H1070 C1078 0.950 . S
H1071 C1080 0.950 . S
H1072 C1082 0.950 . S
H1073 C1084 0.950 . S
H1074 C1086 0.950 . S
H1075 C1087 0.950 . S
C1076 H1068 0.950 . S
C1076 C1077 1.386 . S
C1076 C1078 1.391 . S
C1077 C1076 1.386 . S
C1077 C1081 1.393 . S
C1078 H1070 0.950 . S
C1078 C1076 1.391 . S
C1078 C1079 1.400 . S
C1079 C1078 1.400 . S
C1079 C1080 1.398 . S
C1079 C1085 1.491 . S
C1080 H1071 0.950 . S
C1080 C1079 1.398 . S
C1080 C1081 1.391 . S
C1081 H1069 0.950 . S
C1081 C1077 1.393 . S
C1081 C1080 1.391 . S
C1082 H1072 0.950 . S
C1082 C1083 1.386 . S
C1082 C1084 1.391 1_554 S
C1083 C1082 1.386 . S
C1083 C1087 1.393 . S
C1084 H1073 0.950 . S
C1084 C1082 1.391 1_556 S
C1084 C1085 1.400 . S
C1085 C1079 1.491 . S
C1085 C1084 1.400 . S
C1085 C1086 1.398 1_556 S
C1086 H1074 0.950 . S
C1086 C1085 1.398 1_554 S
C1086 C1087 1.391 . S
C1087 H1075 0.950 . S
C1087 C1083 1.393 . S
C1087 C1086 1.391 . S
H1088 C1096 0.950 . S
H1089 C1101 0.950 . S
H1090 C1098 0.950 . S
H1091 C1100 0.950 . S
H1092 C1102 0.950 . S
H1093 C1104 0.950 . S
H1094 C1106 0.950 . S
H1095 C1107 0.950 . S
C1096 H1088 0.950 . S
C1096 C1097 1.386 . S
C1096 C1098 1.391 . S
C1097 C1096 1.386 . S
C1097 C1101 1.393 . S
C1098 H1090 0.950 . S
C1098 C1096 1.391 . S
C1098 C1099 1.400 . S
C1099 C1098 1.400 . S
C1099 C1100 1.398 . S
C1099 C1105 1.491 . S
C1100 H1091 0.950 . S
C1100 C1099 1.398 . S
C1100 C1101 1.391 . S
C1101 H1089 0.950 . S
C1101 C1097 1.393 . S
C1101 C1100 1.391 . S
C1102 H1092 0.950 . S
C1102 C1103 1.386 . S
C1102 C1104 1.391 . S
C1103 C1102 1.386 . S
C1103 C1107 1.393 . S
C1104 H1093 0.950 . S
C1104 C1102 1.391 . S
C1104 C1105 1.400 . S
C1105 C1099 1.491 . S
C1105 C1104 1.400 . S
C1105 C1106 1.398 . S
C1106 H1094 0.950 . S
C1106 C1105 1.398 . S
C1106 C1107 1.391 . S
C1107 H1095 0.950 . S
C1107 C1103 1.393 . S
C1107 C1106 1.391 . S
H1108 C1116 0.950 . S
H1109 C1121 0.950 . S
H1110 C1118 0.950 . S
H1111 C1120 0.950 . S
H1112 C1122 0.950 . S
H1113 C1124 0.950 . S
H1114 C1126 0.950 . S
H1115 C1127 0.950 . S
C1116 H1108 0.950 . S
C1116 C1117 1.386 . S
C1116 C1118 1.391 . S
C1117 C1116 1.386 . S
C1117 C1121 1.393 . S
C1118 H1110 0.950 . S
C1118 C1116 1.391 . S
C1118 C1119 1.400 . S
C1119 C1118 1.400 . S
C1119 C1120 1.398 . S
C1119 C1125 1.491 . S
C1120 H1111 0.950 . S
C1120 C1119 1.398 . S
C1120 C1121 1.391 . S
C1121 H1109 0.950 . S
C1121 C1117 1.393 . S
C1121 C1120 1.391 . S
C1122 H1112 0.950 . S
C1122 C1123 1.386 . S
C1122 C1124 1.391 . S
C1123 C1122 1.386 . S
C1123 C1127 1.393 . S
C1124 H1113 0.950 . S
C1124 C1122 1.391 . S
C1124 C1125 1.400 . S
C1125 C1119 1.491 . S
C1125 C1124 1.400 . S
C1125 C1126 1.398 . S
C1126 H1114 0.950 . S
C1126 C1125 1.398 . S
C1126 C1127 1.391 . S
C1127 H1115 0.950 . S
C1127 C1123 1.393 . S
C1127 C1126 1.391 . S
H1128 C1136 0.950 . S
H1129 C1141 0.950 . S
H1130 C1138 0.950 . S
H1131 C1140 0.950 . S
H1132 C1142 0.950 . S
H1133 C1144 0.950 . S
H1134 C1146 0.950 . S
H1135 C1147 0.950 . S
C1136 H1128 0.950 . S
C1136 C1137 1.386 . S
C1136 C1138 1.391 . S
C1137 C1136 1.386 . S
C1137 C1141 1.393 . S
C1138 H1130 0.950 . S
C1138 C1136 1.391 . S
C1138 C1139 1.400 . S
C1139 C1138 1.400 . S
C1139 C1140 1.398 . S
C1139 C1145 1.491 . S
C1140 H1131 0.950 . S
C1140 C1139 1.398 . S
C1140 C1141 1.391 . S
C1141 H1129 0.950 . S
C1141 C1137 1.393 . S
C1141 C1140 1.391 . S
C1142 H1132 0.950 . S
C1142 C1143 1.386 . S
C1142 C1144 1.391 . S
C1143 C1142 1.386 . S
C1143 C1147 1.393 . S
C1144 H1133 0.950 . S
C1144 C1142 1.391 . S
C1144 C1145 1.400 . S
C1145 C1139 1.491 . S
C1145 C1144 1.400 . S
C1145 C1146 1.398 . S
C1146 H1134 0.950 . S
C1146 C1145 1.398 . S
C1146 C1147 1.391 . S
C1147 H1135 0.950 . S
C1147 C1143 1.393 . S
C1147 C1146 1.391 . S
H1148 C1156 0.950 . S
H1149 C1161 0.950 . S
H1150 C1158 0.950 . S
H1151 C1160 0.950 . S
H1152 C1162 0.950 . S
H1153 C1164 0.950 . S
H1154 C1166 0.950 . S
H1155 C1167 0.950 . S
C1156 H1148 0.950 . S
C1156 C1157 1.386 . S
C1156 C1158 1.391 . S
C1157 C1156 1.386 . S
C1157 C1161 1.393 . S
C1158 H1150 0.950 . S
C1158 C1156 1.391 . S
C1158 C1159 1.400 . S
C1159 C1158 1.400 . S
C1159 C1160 1.398 . S
C1159 C1165 1.491 . S
C1160 H1151 0.950 . S
C1160 C1159 1.398 . S
C1160 C1161 1.391 . S
C1161 H1149 0.950 . S
C1161 C1157 1.393 . S
C1161 C1160 1.391 . S
C1162 H1152 0.950 . S
C1162 C1163 1.386 . S
C1162 C1164 1.391 . S
C1163 C1162 1.386 . S
C1163 C1167 1.393 . S
C1164 H1153 0.950 . S
C1164 C1162 1.391 . S
C1164 C1165 1.400 . S
C1165 C1159 1.491 . S
C1165 C1164 1.400 . S
C1165 C1166 1.398 . S
C1166 H1154 0.950 . S
C1166 C1165 1.398 . S
C1166 C1167 1.391 . S
C1167 H1155 0.950 . S
C1167 C1163 1.393 . S
C1167 C1166 1.391 . S
H1168 C1176 0.950 . S
H1169 C1181 0.950 . S
H1170 C1178 0.950 . S
H1171 C1180 0.950 . S
H1172 C1182 0.950 . S
H1173 C1184 0.950 . S
H1174 C1186 0.950 . S
H1175 C1187 0.950 . S
C1176 H1168 0.950 . S
C1176 C1177 1.386 . S
C1176 C1178 1.391 . S
C1177 C1176 1.386 . S
C1177 C1181 1.393 . S
C1178 H1170 0.950 . S
C1178 C1176 1.391 . S
C1178 C1179 1.400 . S
C1179 C1178 1.400 . S
C1179 C1180 1.398 . S
C1179 C1185 1.491 . S
C1180 H1171 0.950 . S
C1180 C1179 1.398 . S
C1180 C1181 1.391 . S
C1181 H1169 0.950 . S
C1181 C1177 1.393 . S
C1181 C1180 1.391 . S
C1182 H1172 0.950 . S
C1182 C1183 1.386 . S
C1182 C1184 1.391 . S
C1183 C1182 1.386 . S
C1183 C1187 1.393 . S
C1184 H1173 0.950 . S
C1184 C1182 1.391 . S
C1184 C1185 1.400 . S
C1185 C1179 1.491 . S
C1185 C1184 1.400 . S
C1185 C1186 1.398 . S
C1186 H1174 0.950 . S
C1186 C1185 1.398 . S
C1186 C1187 1.391 . S
C1187 H1175 0.950 . S
C1187 C1183 1.393 . S
C1187 C1186 1.391 . S
H1188 C1196 0.950 . S
H1189 C1201 0.950 . S
H1190 C1198 0.950 . S
H1191 C1200 0.950 . S
H1192 C1202 0.950 . S
H1193 C1204 0.950 . S
H1194 C1206 0.950 . S
H1195 C1207 0.950 . S
C1196 H1188 0.950 . S
C1196 C1197 1.386 . S
C1196 C1198 1.391 . S
C1197 C1196 1.386 . S
C1197 C1201 1.393 . S
C1198 H1190 0.950 . S
C1198 C1196 1.391 . S
C1198 C1199 1.400 . S
C1199 C1198 1.400 . S
C1199 C1200 1.398 . S
C1199 C1205 1.491 . S
C1200 H1191 0.950 . S
C1200 C1199 1.398 . S
C1200 C1201 1.391 . S
C1201 H1189 0.950 . S
C1201 C1197 1.393 . S
C1201 C1200 1.391 . S
C1202 H1192 0.950 . S
C1202 C1203 1.386 . S
C1202 C1204 1.391 . S
C1203 C1202 1.386 . S
C1203 C1207 1.393 . S
C1204 H1193 0.950 . S
C1204 C1202 1.391 . S
C1204 C1205 1.400 . S
C1205 C1199 1.491 . S
C1205 C1204 1.400 . S
C1205 C1206 1.398 . S
C1206 H1194 0.950 . S
C1206 C1205 1.398 . S
C1206 C1207 1.391 . S
C1207 H1195 0.950 . S
C1207 C1203 1.393 . S
C1207 C1206 1.391 . S
H1208 C1216 0.950 . S
H1209 C1221 0.950 . S
H1210 C1218 0.950 1_556 S
H1211 C1220 0.950 . S
H1212 C1222 0.950 . S
H1213 C1224 0.950 . S
H1214 C1226 0.950 . S
H1215 C1227 0.950 . S
C1216 H1208 0.950 . S
C1216 C1217 1.386 . S
C1216 C1218 1.391 . S
C1217 C1216 1.386 . S
C1217 C1221 1.393 . S
C1218 H1210 0.950 1_554 S
C1218 C1216 1.391 . S
C1218 C1219 1.400 . S
C1219 C1218 1.400 . S
C1219 C1220 1.398 . S
C1219 C1225 1.491 1_554 S
C1220 H1211 0.950 . S
C1220 C1219 1.398 . S
C1220 C1221 1.391 . S
C1221 H1209 0.950 . S
C1221 C1217 1.393 . S
C1221 C1220 1.391 . S
C1222 H1212 0.950 . S
C1222 C1223 1.386 . S
C1222 C1224 1.391 . S
C1223 C1222 1.386 . S
C1223 C1227 1.393 . S
C1224 H1213 0.950 . S
C1224 C1222 1.391 . S
C1224 C1225 1.400 . S
C1225 C1219 1.491 1_556 S
C1225 C1224 1.400 . S
C1225 C1226 1.398 . S
C1226 H1214 0.950 . S
C1226 C1225 1.398 . S
C1226 C1227 1.391 . S
C1227 H1215 0.950 . S
C1227 C1223 1.393 . S
C1227 C1226 1.391 . S
H1228 C1236 0.950 . S
H1229 C1241 0.950 . S
H1230 C1238 0.950 . S
H1231 C1240 0.950 . S
H1232 C1242 0.950 . S
H1233 C1244 0.950 . S
H1234 C1246 0.950 . S
H1235 C1247 0.950 . S
C1236 H1228 0.950 . S
C1236 C1237 1.386 . S
C1236 C1238 1.391 . S
C1237 C1236 1.386 . S
C1237 C1241 1.393 . S
C1238 H1230 0.950 . S
C1238 C1236 1.391 . S
C1238 C1239 1.400 . S
C1239 C1238 1.400 . S
C1239 C1240 1.398 . S
C1239 C1245 1.491 . S
C1240 H1231 0.950 . S
C1240 C1239 1.398 . S
C1240 C1241 1.391 . S
C1241 H1229 0.950 . S
C1241 C1237 1.393 . S
C1241 C1240 1.391 . S
C1242 H1232 0.950 . S
C1242 C1243 1.386 . S
C1242 C1244 1.391 . S
C1243 C1242 1.386 . S
C1243 C1247 1.393 . S
C1244 H1233 0.950 . S
C1244 C1242 1.391 . S
C1244 C1245 1.400 . S
C1245 C1239 1.491 . S
C1245 C1244 1.400 . S
C1245 C1246 1.398 . S
C1246 H1234 0.950 . S
C1246 C1245 1.398 . S
C1246 C1247 1.391 . S
C1247 H1235 0.950 . S
C1247 C1243 1.393 . S
C1247 C1246 1.391 . S
C783 C754 1.732 . S
C777 C1 1.312 . S
C797 C169 1.466 . S
C803 C695 1.803 . S
C817 C283 1.485 . S
C823 C698 1.824 . S
C837 C397 1.318 . S
C843 C712 1.614 . S
C863 C737 1.601 . S
C857 C457 1.168 . S
C877 C571 1.116 . S
C883 C740 1.516 . S
C897 C115 1.250 . S
C903 C709 1.623 . S
C917 C229 1.195 . S
C923 C723 1.578 . S
C937 C343 1.078 . S
C943 C726 1.450 . S
C963 C751 1.682 . S
C957 C511 1.366 . S
C983 C765 1.732 . S
C977 C625 1.419 . S
C1003 C684 1.807 . S
C997 C55 1.480 . S
C1017 C29 1.125 . S
C1023 C707 1.412 . S
C1037 C125 0.946 . S
C1043 C721 1.523 . S
C1063 C731 1.467 . S
C1057 C239 0.899 . S
C1077 C353 0.839 . S
C1083 C749 1.423 . S
C1103 C763 1.389 . S
C1097 C485 1.065 . S
C1123 C689 1.445 . S
C1117 C599 1.168 . S
C1143 C759 1.480 . S
C1137 C143 1.210 . S
C1157 C257 1.123 . S
C1163 C693 1.454 . S
C1183 C703 1.393 . S
C1177 C371 1.113 . S
C1197 C467 0.949 . S
C1203 C717 1.497 . S
C1217 C581 0.928 . S
C1223 C735 1.468 . S
C1237 C11 0.983 . S
C1243 C745 1.536 . S
