# Generated by pormake.
# Topology sit, (3,6)-cn, num edge types: 1
# Building blocks:
#     Node 0, Type 0, BuildingBlock: PAMTOO_clean_linker_0, # of connection points: 3
#     Node 1, Type 0, BuildingBlock: PAMTOO_clean_linker_0, # of connection points: 3
#     Node 2, Type 0, BuildingBlock: PAMTOO_clean_linker_0, # of connection points: 3
#     Node 3, Type 0, BuildingBlock: PAMTOO_clean_linker_0, # of connection points: 3
#     Node 4, Type 1, BuildingBlock: MIDCAF_clean_sbu_0, # of connection points: 6
#     Node 5, Type 1, BuildingBlock: MIDCAF_clean_sbu_0, # of connection points: 6
#     Edge 6, Type (0, 1), BuildingBlock: FUNLAD_clean_linker_1, # of connection points: 2
#     Edge 7, Type (0, 1), BuildingBlock: FUNLAD_clean_linker_1, # of connection points: 2
#     Edge 8, Type (0, 1), BuildingBlock: FUNLAD_clean_linker_1, # of connection points: 2
#     Edge 9, Type (0, 1), BuildingBlock: FUNLAD_clean_linker_1, # of connection points: 2
#     Edge 10, Type (0, 1), BuildingBlock: FUNLAD_clean_linker_1, # of connection points: 2
#     Edge 11, Type (0, 1), BuildingBlock: FUNLAD_clean_linker_1, # of connection points: 2
#     Edge 12, Type (0, 1), BuildingBlock: FUNLAD_clean_linker_1, # of connection points: 2
#     Edge 13, Type (0, 1), BuildingBlock: FUNLAD_clean_linker_1, # of connection points: 2
#     Edge 14, Type (0, 1), BuildingBlock: FUNLAD_clean_linker_1, # of connection points: 2
#     Edge 15, Type (0, 1), BuildingBlock: FUNLAD_clean_linker_1, # of connection points: 2
#     Edge 16, Type (0, 1), BuildingBlock: FUNLAD_clean_linker_1, # of connection points: 2
#     Edge 17, Type (0, 1), BuildingBlock: FUNLAD_clean_linker_1, # of connection points: 2
# Relax obj value: 0.078
# Max RMSD: 0.181
# Mean RMSD: 0.117
data_MOF--net-sit--node1-MIDCAF_clean_sbu_0--node2-PAMTOO_clean_linker_0--edge1-FUNLAD_clean_linker_1
_symmetry_space_group_name_H-M    P1
_symmetry_Int_Tables_number       1
_symmetry_cell_setting            triclinic
loop_
_symmetry_equiv_pos_as_xyz
'x, y, z'
_cell_length_a     22.187971
_cell_length_b     34.109899
_cell_length_c     38.923842
_cell_angle_alpha  89.386773
_cell_angle_beta   89.297902
_cell_angle_gamma 86.697005
loop_
_atom_site_label
_atom_site_type_symbol
_atom_site_fract_x
_atom_site_fract_y
_atom_site_fract_z
_atom_type_partial_charge
H0 H 0.05346 0.38918 0.96215 0.0
H1 H 0.13788 0.29793 0.02492 0.0
H2 H 0.94522 0.30527 0.01297 0.0
H3 H 0.96937 0.27675 0.07823 0.0
C4 C 0.01921 0.27122 0.07639 0.0
O5 O 0.03628 0.26658 0.04242 0.0
H6 H 0.04055 0.29692 0.0875 0.0
C7 C 0.04962 0.36499 0.98001 0.0
C8 C -0.00738 0.35098 0.98728 0.0
C9 C 0.10226 0.34649 0.99369 0.0
C10 C 0.09768 0.3128 0.01435 0.0
C11 C 0.04098 0.29811 0.0214 0.0
C12 C -0.01121 0.31688 0.00744 0.0
H13 H 0.00875 0.67511 0.95087 0.0
H14 H 0.92646 0.78092 0.99446 0.0
H15 H 0.11683 0.75366 0.00542 0.0
H16 H 0.04277 0.78472 0.0676 0.0
C17 C 0.01755 0.80889 0.05348 0.0
O18 O 0.02758 0.80516 0.01864 0.0
H19 H 0.9684 0.80735 0.05902 0.0
C20 C 0.01161 0.70117 0.96631 0.0
C21 C 0.06807 0.71063 0.9782 0.0
C22 C 0.9598 0.72566 0.97275 0.0
C23 C 0.96559 0.76097 0.99026 0.0
C24 C 0.02205 0.77069 0.00249 0.0
C25 C 0.07316 0.74531 -0.00318 0.0
H26 H 0.55972 0.9049 0.51018 0.0
H27 H 0.67953 0.80289 0.49375 0.0
H28 H 0.49188 0.78921 0.51431 0.0
H29 H 0.66765 0.74136 0.53234 0.0
C30 C 0.6294 0.72669 0.52071 0.0
O31 O 0.59578 0.75252 0.49998 0.0
H32 H 0.64929 0.70278 0.50421 0.0
C33 C 0.568 0.87322 0.51044 0.0
C34 C 0.51913 0.84917 0.51361 0.0
C35 C 0.62574 0.85712 0.5023 0.0
C36 C 0.63536 0.81605 0.5003 0.0
C37 C 0.58757 0.79151 0.5059 0.0
C38 C 0.52946 0.80809 0.51262 0.0
H39 H 0.59204 0.12863 0.48118 0.0
H40 H 0.46179 0.21858 0.51545 0.0
H41 H 0.6495 0.22649 0.5381 0.0
H42 H 0.53891 0.23712 0.59413 0.0
C43 C 0.51855 0.26187 0.57846 0.0
O44 O 0.54091 0.26038 0.54524 0.0
H45 H 0.46882 0.2594 0.57824 0.0
C46 C 0.58049 0.15462 0.49599 0.0
C47 C 0.62724 0.17455 0.51073 0.0
C48 C 0.52041 0.16992 0.49766 0.0
C49 C 0.50766 0.20584 0.51429 0.0
C50 C 0.55392 0.22583 0.52933 0.0
C51 C 0.61371 0.21034 0.5273 0.0
Zn52 Zn 0.07805 0.07823 0.33391 0.0
Zn53 Zn 0.08317 0.92367 0.32268 0.0
Zn54 Zn 0.07786 1.0007 0.32829 0.0
C55 C 0.05694 0.95398 0.25779 0.0
C56 C -0.0113 0.94439 0.36824 0.0
O57 O 0.16449 1.01582 0.35083 0.0
O58 O 0.15658 0.08044 0.35633 0.0
C59 C 0.06729 0.06247 0.26428 0.0
O60 O 0.06544 0.98642 0.27322 0.0
O61 O 0.0589 0.92187 0.27417 0.0
O62 O 0.02025 0.91474 0.35807 0.0
O63 O 0.002 0.97927 0.35899 0.0
O64 O 0.07338 0.09072 0.28441 0.0
O65 O 0.06642 0.02706 0.27608 0.0
O66 O 0.00373 0.02051 0.36348 0.0
O67 O 0.00552 0.08536 0.36373 0.0
C68 C 0.98282 0.05425 0.37424 0.0
O69 O 0.16348 0.97447 0.34958 0.0
O70 O 0.16846 0.91162 0.33548 0.0
C71 C 0.18626 0.0481 0.36045 0.0
C72 C 0.19132 0.94019 0.34971 0.0
Zn73 Zn 0.50693 0.60905 0.81055 0.0
Zn74 Zn 0.5445 0.45448 0.81769 0.0
Zn75 Zn 0.53008 0.53189 0.8147 0.0
C76 C 0.53348 0.47471 0.74841 0.0
C77 C 0.44112 0.47377 0.85529 0.0
O78 O 0.60764 0.55816 0.83758 0.0
O79 O 0.58471 0.6219 0.83163 0.0
C80 C 0.51011 0.5834 0.74378 0.0
O81 O 0.52752 0.50942 0.76124 0.0
O82 O 0.54219 0.44516 0.76791 0.0
O83 O 0.47277 0.4437 0.84607 0.0
O84 O 0.4559 0.50826 0.84579 0.0
O85 O 0.49784 0.6144 0.7605 0.0
O86 O 0.52325 0.55072 0.75973 0.0
O87 O 0.45085 0.54938 0.84756 0.0
O88 O 0.43495 0.61356 0.84047 0.0
C89 C 0.42119 0.58189 0.85481 0.0
O90 O 0.61796 0.51708 0.83919 0.0
O91 O 0.6232 0.45214 0.84057 0.0
C92 C 0.62031 0.59409 0.84195 0.0
C93 C 0.64578 0.48423 0.84744 0.0
H94 H 0.07607 0.23797 0.11469 0.0
C95 C 0.03829 0.23564 0.09744 0.0
H96 H 0.96772 0.20083 0.08205 0.0
H97 H 0.1006 0.054 0.16337 0.0
H98 H 0.11385 0.03159 0.10459 0.0
H99 H 0.08251 0.07462 0.05582 0.0
H100 H 0.03731 0.14039 0.0656 0.0
C101 C 0.00562 0.20366 0.09908 0.0
C102 C 0.01513 0.17481 0.12778 0.0
C103 C 0.04064 0.13644 0.12161 0.0
C104 C 0.05842 0.11151 0.14977 0.0
C105 C 0.08564 0.07384 0.14296 0.0
C106 C 0.09366 0.06071 0.10934 0.0
C107 C 0.07599 0.08495 0.08187 0.0
C108 C 0.05017 0.12256 0.08778 0.0
H109 H 0.02407 0.05486 0.21395 0.0
C110 C 0.05615 0.07153 0.22769 0.0
H111 H 0.11004 0.12011 0.22812 0.0
H112 H 0.95223 0.24227 0.14829 0.0
H113 H 0.93156 0.26264 0.20692 0.0
H114 H 0.96425 0.22023 0.25575 0.0
H115 H 0.01726 0.15715 0.24617 0.0
C116 C 0.0784 0.10385 0.21354 0.0
C117 C 0.05002 0.12513 0.18385 0.0
C118 C 0.01896 0.16196 0.18992 0.0
C119 C 0.00091 0.18663 0.16188 0.0
C120 C 0.96876 0.2229 0.16869 0.0
C121 C 0.95608 0.23482 0.20224 0.0
C122 C 0.97443 0.21094 0.22971 0.0
C123 C 0.00524 0.17487 0.2238 0.0
H124 H 0.07428 0.86144 0.05135 0.0
C125 C 0.03904 0.84732 0.06569 0.0
H126 H -0.01525 0.84719 0.11027 0.0
H127 H 0.18698 0.94209 0.18562 0.0
H128 H 0.25907 0.88785 0.17186 0.0
H129 H 0.2331 0.8369 0.13091 0.0
H130 H 0.13571 0.83991 0.10332 0.0
C131 C 0.02001 0.86158 0.09617 0.0
C132 C 0.04398 0.89686 0.11217 0.0
C133 C 0.10191 0.89472 0.12743 0.0
C134 C 0.11661 0.9236 0.15159 0.0
C135 C 0.17375 0.92054 0.16739 0.0
C136 C 0.21541 0.8897 0.15966 0.0
C137 C 0.2008 0.86105 0.13656 0.0
C138 C 0.14465 0.86321 0.12075 0.0
H139 H 0.01213 0.93049 0.21379 0.0
C140 C 0.0428 0.95266 0.22112 0.0
H141 H 0.11077 0.9889 0.20312 0.0
H142 H 0.93616 0.91487 0.08107 0.0
H143 H 0.86774 0.97184 0.09261 0.0
H144 H 0.89352 0.02108 0.1353 0.0
H145 H -0.01195 1.01352 0.16682 0.0
C146 C 0.07529 0.96977 0.19647 0.0
C147 C 0.07277 0.95333 0.16126 0.0
C148 C 0.01896 0.95866 0.14237 0.0
C149 C 0.00434 0.9303 0.11782 0.0
C150 C 0.94908 0.93554 0.10018 0.0
C151 C 0.9097 0.9681 0.10649 0.0
C152 C 0.92419 0.99584 0.13054 0.0
C153 C 0.97813 0.99119 0.1485 0.0
H154 H 0.55646 0.72892 0.56105 0.0
C155 C 0.59142 0.70999 0.54889 0.0
H156 H 0.64233 0.65584 0.55087 0.0
H157 H 0.55467 0.67478 0.71296 0.0
H158 H 0.61865 0.72978 0.71361 0.0
H159 H 0.66682 0.75298 0.66033 0.0
H160 H 0.65083 0.7215 0.60614 0.0
C161 C 0.60676 0.67456 0.56268 0.0
C162 C 0.57825 0.6603 0.59492 0.0
C163 C 0.58884 0.67886 0.62656 0.0
C164 C 0.5619 0.66504 0.65735 0.0
C165 C 0.57338 0.68412 0.68864 0.0
C166 C 0.61039 0.71568 0.68947 0.0
C167 C 0.63744 0.72876 0.65949 0.0
C168 C 0.62732 0.71056 0.62841 0.0
H169 H 0.54753 0.56481 0.69322 0.0
C170 C 0.51763 0.58646 0.70612 0.0
H171 H 0.46775 0.64073 0.70252 0.0
H172 H 0.55185 0.6168 0.53901 0.0
H173 H 0.49076 0.55997 0.5387 0.0
H174 H 0.44429 0.53588 0.59224 0.0
H175 H 0.4586 0.56847 0.64644 0.0
C176 C 0.49701 0.61903 0.6892 0.0
C177 C 0.52561 0.6321 0.65664 0.0
C178 C 0.5165 0.61282 0.62524 0.0
C179 C 0.54305 0.62689 0.59433 0.0
C180 C 0.53299 0.60725 0.56324 0.0
C181 C 0.49791 0.57466 0.5627 0.0
C182 C 0.47174 0.56109 0.59285 0.0
C183 C 0.48051 0.57996 0.62381 0.0
H184 H 0.55996 0.29774 0.61825 0.0
C185 C 0.5328 0.29963 0.59515 0.0
H186 H 0.47974 0.33646 0.56223 0.0
H187 H 0.42112 0.44876 0.68964 0.0
H188 H 0.32136 0.4332 0.67104 0.0
H189 H 0.30903 0.38915 0.62206 0.0
H190 H 0.39637 0.36031 0.59149 0.0
C191 C 0.50892 0.33472 0.58446 0.0
C192 C 0.51506 0.37019 0.60596 0.0
C193 C 0.46336 0.38812 0.62244 0.0
C194 C 0.47043 0.41363 0.65064 0.0
C195 C 0.4183 0.42935 0.66804 0.0
C196 C 0.36077 0.42068 0.65759 0.0
C197 C 0.35383 0.39588 0.63 0.0
C198 C 0.40436 0.37951 0.61267 0.0
H199 H 0.51408 0.49286 0.69425 0.0
C200 C 0.52829 0.46845 0.71099 0.0
H201 H 0.55444 0.4081 0.71487 0.0
H202 H 0.62138 0.35096 0.57256 0.0
H203 H 0.72099 0.37079 0.58841 0.0
H204 H 0.73326 0.41418 0.63792 0.0
H205 H 0.64585 0.4383 0.67173 0.0
C206 C 0.53835 0.43212 0.69818 0.0
C207 C 0.52909 0.42121 0.66189 0.0
C208 C 0.58001 0.40803 0.6421 0.0
C209 C 0.57302 0.38268 0.61391 0.0
C210 C 0.62471 0.36961 0.5947 0.0
C211 C 0.68187 0.38096 0.60341 0.0
C212 C 0.68878 0.40542 0.63129 0.0
C213 C 0.63854 0.41886 0.65055 0.0
H214 H 0.19863 0.33854 0.97844 0.0
C215 C 0.16209 0.3604 0.98356 0.0
H216 H 0.13441 0.4207 0.98312 0.0
H217 H 0.43032 0.41582 0.94532 0.0
H218 H 0.44614 0.39233 0.00375 0.0
H219 H 0.35977 0.37802 0.04145 0.0
H220 H 0.25701 0.38702 0.02086 0.0
C221 C 0.17029 0.39866 0.97732 0.0
C222 C 0.22243 0.41118 0.95646 0.0
C223 C 0.28202 0.40612 0.969 0.0
C224 C 0.33169 0.4147 0.94734 0.0
C225 C 0.39087 0.40943 0.96054 0.0
C226 C 0.40061 0.39613 0.99409 0.0
C227 C 0.35199 0.38804 0.01531 0.0
C228 C 0.29327 0.39307 0.0031 0.0
H229 H 0.3591 0.49503 0.88403 0.0
C230 C 0.38774 0.46922 0.8776 0.0
H231 H 0.40362 0.40803 0.88474 0.0
H232 H 0.11317 0.42835 0.92557 0.0
H233 H 0.09724 0.45243 0.86762 0.0
H234 H 0.18344 0.46446 0.82915 0.0
H235 H 0.28596 0.4531 0.84872 0.0
C236 C 0.37408 0.43385 0.89001 0.0
C237 C 0.32156 0.42856 0.91329 0.0
C238 C 0.26177 0.43489 0.9011 0.0
C239 C 0.21209 0.42685 0.92296 0.0
C240 C 0.15277 0.43354 0.91017 0.0
C241 C 0.14285 0.4473 0.87681 0.0
C242 C 0.19137 0.45422 0.85521 0.0
C243 C 0.25017 0.4479 0.86697 0.0
H244 H 0.87034 0.73993 0.94953 0.0
C245 C 0.90087 0.716 0.95849 0.0
H246 H 0.9154 0.65447 0.96415 0.0
H247 H 0.62773 0.67132 0.91708 0.0
H248 H 0.60772 0.70297 0.97183 0.0
H249 H 0.69128 0.71855 0.00967 0.0
H250 H 0.79538 0.70266 0.99288 0.0
C251 C 0.88598 0.67862 0.95462 0.0
C252 C 0.83495 0.6685 0.93272 0.0
C253 C 0.77445 0.67791 0.94302 0.0
C254 C 0.72634 0.66858 0.92133 0.0
C255 C 0.66617 0.67799 0.93236 0.0
C256 C 0.65398 0.69604 0.96382 0.0
C257 C 0.70102 0.70483 0.98511 0.0
C258 C 0.76061 0.69578 0.97505 0.0
H259 H 0.70347 0.57894 0.87109 0.0
C260 C 0.67486 0.60307 0.86087 0.0
H261 H 0.65862 0.66468 0.85811 0.0
H262 H 0.94612 0.64516 0.90587 0.0
H263 H 0.96622 0.61325 0.85134 0.0
H264 H 0.88287 0.59878 0.81297 0.0
H265 H 0.77905 0.61587 0.82909 0.0
C266 C 0.68812 0.64027 0.86712 0.0
C267 C 0.73891 0.6495 0.8896 0.0
C268 C 0.79948 0.63993 0.87937 0.0
C269 C 0.84753 0.64898 0.90119 0.0
C270 C 0.9077 0.63895 0.89043 0.0
C271 C 0.91998 0.62071 0.85908 0.0
C272 C 0.87307 0.61252 0.83751 0.0
C273 C 0.81352 0.6222 0.84727 0.0
H274 H 0.89894 0.35248 0.9681 0.0
C275 C 0.93728 0.37029 0.97222 0.0
H276 H 0.9699 0.42746 0.9673 0.0
H277 H 0.81045 0.46017 0.83443 0.0
H278 H 0.91113 0.45432 0.80923 0.0
H279 H -0.00061 0.43522 0.84479 0.0
H280 H -0.01223 0.42216 0.9059 0.0
C281 C 0.93328 0.40847 0.96281 0.0
C282 C 0.88137 0.42493 0.94269 0.0
C283 C 0.88958 0.43376 0.90731 0.0
C284 C 0.83876 0.44469 0.88676 0.0
C285 C 0.84762 0.4519 0.85123 0.0
C286 C 0.90515 0.44866 0.83644 0.0
C287 C 0.95489 0.43797 0.8565 0.0
C288 C 0.94753 0.43052 0.89153 0.0
H289 H 0.72426 0.51058 0.8713 0.0
C290 C 0.70272 0.48341 0.86665 0.0
H291 H 0.70394 0.42223 0.87633 0.0
H292 H 0.85228 0.41709 0.01084 0.0
H293 H 0.75184 0.42507 0.03634 0.0
H294 H 0.66338 0.44327 0.0005 0.0
H295 H 0.67489 0.45384 0.93897 0.0
C296 C 0.7264 0.44938 0.87972 0.0
C297 C 0.78027 0.44693 0.90179 0.0
C298 C 0.7727 0.441 0.93761 0.0
C299 C 0.82345 0.43016 0.95818 0.0
C300 C 0.8149 0.42465 0.99396 0.0
C301 C 0.7576 0.42933 0.00893 0.0
C302 C 0.70779 0.43959 0.98875 0.0
C303 C 0.71497 0.44541 0.95348 0.0
H304 H 0.11893 0.67329 0.94127 0.0
C305 C 0.12108 0.68587 0.96679 0.0
H306 H 0.17355 0.68914 0.0115 0.0
H307 H 0.26821 0.55587 0.89099 0.0
H308 H 0.18178 0.52009 0.90871 0.0
H309 H 0.11453 0.54411 0.95581 0.0
H310 H 0.13297 0.60512 0.98502 0.0
C311 C 0.17015 0.67729 0.98586 0.0
C312 C 0.22225 0.65433 0.96999 0.0
C313 C 0.21349 0.61743 0.95489 0.0
C314 C 0.25383 0.60268 0.92883 0.0
C315 C 0.2406 0.56775 0.91186 0.0
C316 C 0.19085 0.54694 0.92169 0.0
C317 C 0.15286 0.56055 0.94815 0.0
C318 C 0.16367 0.59553 0.96455 0.0
H319 H 0.37615 0.55965 0.90159 0.0
C320 C 0.37574 0.58339 0.88278 0.0
H321 H 0.34079 0.63993 0.869 0.0
H322 H 0.26019 0.72002 0.00108 0.0
H323 H 0.35384 0.75141 0.98931 0.0
H324 H 0.42697 0.72406 0.94635 0.0
H325 H 0.40648 0.66542 0.91461 0.0
C326 C 0.33928 0.61574 0.88737 0.0
C327 C 0.30464 0.624 0.9196 0.0
C328 C 0.31852 0.65728 0.93894 0.0
C329 C 0.27702 0.67263 0.9641 0.0
C330 C 0.29039 0.70706 0.98179 0.0
C331 C 0.34406 0.72528 0.97535 0.0
C332 C 0.38521 0.70991 0.95114 0.0
C333 C 0.37278 0.67637 0.93301 0.0
H334 H 0.66919 0.91408 0.50153 0.0
C335 C 0.67257 0.88426 0.49176 0.0
H336 H 0.71293 0.84697 0.45409 0.0
H337 H 0.80229 0.96276 0.34656 0.0
H338 H 0.71076 0.94352 0.3195 0.0
H339 H 0.63519 0.90768 0.35236 0.0
H340 H 0.65143 0.89017 0.41232 0.0
C341 C 0.71292 0.8752 0.46672 0.0
C342 C 0.75019 0.90515 0.45041 0.0
C343 C 0.73898 0.91632 0.4158 0.0
C344 C 0.78169 0.93785 0.39714 0.0
C345 C 0.77103 0.94678 0.36206 0.0
C346 C 0.71857 0.936 0.34623 0.0
C347 C 0.67605 0.91578 0.36471 0.0
C348 C 0.68602 0.90581 0.39905 0.0
H349 H 0.93985 0.9104 0.40634 0.0
C350 C 0.93763 0.93759 0.3914 0.0
H351 H 0.88155 0.986 0.37509 0.0
H352 H 0.78121 0.89324 0.51799 0.0
H353 H 0.86566 0.9201 0.54683 0.0
H354 H 0.93536 0.96187 0.51535 0.0
H355 H 0.92156 0.97621 0.45453 0.0
C356 C 0.88685 0.96084 0.39232 0.0
C357 C 0.83474 0.94873 0.4135 0.0
C358 C 0.84136 0.94251 0.44938 0.0
C359 C 0.7998 0.91979 0.46778 0.0
C360 C 0.81023 0.91136 0.50296 0.0
C361 C 0.8587 0.92651 0.51982 0.0
C362 C 0.89804 0.94994 0.50209 0.0
C363 C 0.88982 0.95781 0.46722 0.0
H364 H 0.42965 0.16896 0.47506 0.0
C365 C 0.47116 0.15116 0.47954 0.0
H366 H 0.51425 0.09437 0.47248 0.0
H367 H 0.26149 0.02314 0.4424 0.0
H368 H 0.29393 0.98592 0.493 0.0
H369 H 0.38831 0.9999 0.52214 0.0
H370 H 0.45008 0.05187 0.50125 0.0
C371 C 0.47573 0.11436 0.46704 0.0
C372 C 0.42705 0.0998 0.44552 0.0
C373 C 0.3928 0.06851 0.45747 0.0
C374 C 0.33926 0.05973 0.44012 0.0
C375 C 0.30355 0.03014 0.45386 0.0
C376 C 0.3215 1.00871 0.48303 0.0
C377 C 0.37457 1.01666 0.49949 0.0
C378 C 0.40964 0.0465 0.48722 0.0
H379 H 0.27717 0.02268 0.37367 0.0
C380 C 0.24568 0.04783 0.37688 0.0
H381 H 0.22953 0.10403 0.39841 0.0
H382 H 0.49284 0.15322 0.41049 0.0
H383 H 0.46512 0.18662 0.35713 0.0
H384 H 0.37141 0.17221 0.32742 0.0
H385 H 0.30526 0.12403 0.35077 0.0
C386 C 0.2608 0.0785 0.39562 0.0
C387 C 0.3216 0.08152 0.41031 0.0
C388 C 0.35946 0.10985 0.39639 0.0
C389 C 0.41268 0.11871 0.41381 0.0
C390 C 0.45066 0.14641 0.39891 0.0
C391 C 0.43558 0.16552 0.36813 0.0
C392 C 0.38288 0.15737 0.35139 0.0
C393 C 0.34517 0.12981 0.36516 0.0
H394 H 0.44878 0.89702 0.52075 0.0
C395 C 0.45808 0.8682 0.50951 0.0
H396 H 0.4357 0.83045 0.46971 0.0
H397 H 0.18067 0.92742 0.44937 0.0
H398 H 0.14748 0.89117 0.49937 0.0
H399 H 0.2207 0.8523 0.53501 0.0
H400 H 0.32788 0.84948 0.52072 0.0
C401 C 0.42353 0.85724 0.48366 0.0
C402 C 0.3808 0.8859 0.46645 0.0
C403 C 0.31885 0.88785 0.47549 0.0
C404 C 0.27684 0.91046 0.455 0.0
C405 C 0.21478 0.911 0.46408 0.0
C406 C 0.19506 0.89027 0.49274 0.0
C407 C 0.23628 0.86836 0.5128 0.0
C408 C 0.29754 0.86694 0.50432 0.0
H409 H 0.27651 0.90746 0.36241 0.0
C410 C 0.24618 0.93215 0.36994 0.0
H411 H 0.21882 0.97041 0.41001 0.0
H412 H 0.49807 0.89249 0.44483 0.0
H413 H 0.53241 0.93296 0.39781 0.0
H414 H 0.45964 0.97341 0.36311 0.0
H415 H 0.35213 0.97309 0.37511 0.0
C416 C 0.25246 0.94846 0.40083 0.0
C417 C 0.29725 0.93091 0.4255 0.0
C418 C 0.35993 0.93177 0.41837 0.0
C419 C 0.40179 0.90898 0.43872 0.0
C420 C 0.46416 0.90954 0.4305 0.0
C421 C 0.48456 0.93266 0.40353 0.0
C422 C 0.44361 0.95539 0.38399 0.0
C423 C 0.38198 0.95491 0.3911 0.0
H424 H 0.72159 0.18219 0.49503 0.0
C425 C 0.69065 0.16067 0.50415 0.0
H426 H 0.6769 0.10103 0.51368 0.0
H427 H 0.82213 0.05349 0.37869 0.0
H428 H 0.72483 0.02706 0.36986 0.0
H429 H 0.64373 0.03526 0.41342 0.0
H430 H 0.65872 0.07129 0.46538 0.0
C431 C 0.70776 0.12217 0.50387 0.0
C432 C 0.76133 0.10771 0.48329 0.0
C433 C 0.75264 0.08434 0.45396 0.0
C434 C 0.80019 0.07817 0.42944 0.0
C435 C 0.7887 0.05771 0.39891 0.0
C436 C 0.73281 0.04248 0.39337 0.0
C437 C 0.68704 0.04731 0.4178 0.0
C438 C 0.69636 0.06822 0.4476 0.0
H439 H 0.92183 0.0303 0.41346 0.0
C440 C 0.93395 0.05678 0.40019 0.0
H441 H 0.91835 0.11836 0.39644 0.0
H442 H 0.79636 0.14519 0.54076 0.0
H443 H 0.89567 0.16891 0.55128 0.0
H444 H 0.97838 0.1583 0.50883 0.0
H445 H 0.96246 0.1238 0.45575 0.0
C446 C 0.90514 0.09115 0.40836 0.0
C447 C 0.857 0.09387 0.43519 0.0
C448 C 0.86711 0.1142 0.46597 0.0
C449 C 0.81931 0.12085 0.49019 0.0
C450 C 0.83081 0.14049 0.52107 0.0
C451 C 0.88766 0.15391 0.52753 0.0
C452 C 0.93424 0.1479 0.50365 0.0
C453 C 0.92442 0.12819 0.47323 0.0
loop_
_geom_bond_atom_site_label_1
_geom_bond_atom_site_label_2
_geom_bond_distance
_geom_bond_site_symmetry_2
_ccdc_geom_bond_type
H0 C7 0.929 . S
H1 C10 0.930 . S
H2 C12 0.929 1_554 S
H3 C4 0.969 . S
C4 H3 0.969 . S
C4 O5 1.550 . S
C4 H6 0.973 . S
O5 C4 1.550 . S
O5 C11 1.412 . S
H6 C4 0.973 . S
C7 H0 0.929 . S
C7 C8 1.400 . S
C7 C9 1.364 . S
C8 C7 1.400 . S
C8 C12 1.377 . S
C9 C7 1.364 . S
C9 C10 1.374 1_556 S
C10 H1 0.930 . S
C10 C9 1.374 1_554 S
C10 C11 1.383 . S
C11 O5 1.412 . S
C11 C10 1.383 . S
C11 C12 1.394 1_554 S
C12 H2 0.929 1_556 S
C12 C8 1.377 . S
C12 C11 1.394 1_556 S
H13 C20 0.929 . S
H14 C23 0.930 . S
H15 C25 0.938 . S
H16 C17 0.969 . S
C17 H16 0.969 . S
C17 O18 1.550 1_655 S
C17 H19 0.973 . S
O18 C17 1.550 1_455 S
O18 C24 1.412 . S
H19 C17 0.973 . S
C20 H13 0.929 . S
C20 C21 1.400 . S
C20 C22 1.364 1_455 S
C21 C20 1.400 . S
C21 C25 1.353 1_556 S
C22 C20 1.364 1_655 S
C22 C23 1.374 1_556 S
C23 H14 0.930 . S
C23 C22 1.374 1_554 S
C23 C24 1.383 1_655 S
C24 O18 1.412 . S
C24 C23 1.383 1_455 S
C24 C25 1.410 . S
C25 H15 0.938 . S
C25 C21 1.353 1_554 S
C25 C24 1.410 . S
H26 C33 0.929 . S
H27 C36 0.930 . S
H28 C38 0.929 . S
H29 C30 0.969 . S
C30 H29 0.969 . S
C30 O31 1.550 . S
C30 H32 0.973 . S
O31 C30 1.550 . S
O31 C37 1.412 . S
H32 C30 0.973 . S
C33 H26 0.929 . S
C33 C34 1.400 . S
C33 C35 1.364 . S
C34 C33 1.400 . S
C34 C38 1.377 . S
C35 C33 1.364 . S
C35 C36 1.374 . S
C36 H27 0.930 . S
C36 C35 1.374 . S
C36 C37 1.383 . S
C37 O31 1.412 . S
C37 C36 1.383 . S
C37 C38 1.394 . S
C38 H28 0.929 . S
C38 C34 1.377 . S
C38 C37 1.394 . S
H39 C46 0.929 . S
H40 C49 0.930 . S
H41 C51 0.929 . S
H42 C43 0.969 . S
C43 H42 0.969 . S
C43 O44 1.550 . S
C43 H45 0.973 . S
O44 C43 1.550 . S
O44 C50 1.412 . S
H45 C43 0.973 . S
C46 H39 0.929 . S
C46 C47 1.400 . S
C46 C48 1.364 . S
C47 C46 1.400 . S
C47 C51 1.377 . S
C48 C46 1.364 . S
C48 C49 1.374 . S
C49 H40 0.930 . S
C49 C48 1.374 . S
C49 C50 1.383 . S
C50 O44 1.412 . S
C50 C49 1.383 . S
C50 C51 1.394 . S
C51 H41 0.929 . S
C51 C47 1.377 . S
C51 C50 1.394 . S
Zn52 O58 1.920 . S
Zn52 O64 1.898 . S
Zn52 O67 1.905 1_455 S
Zn53 O61 1.905 . S
Zn53 O62 1.898 . S
Zn53 O70 1.920 . S
Zn54 O57 2.080 . S
Zn54 O60 2.114 1_545 S
Zn54 O63 2.120 1_545 S
Zn54 O65 2.120 . S
Zn54 O66 2.114 1_455 S
Zn54 O69 2.080 1_545 S
C55 O60 1.166 . S
C55 O61 1.182 . S
C56 O62 1.167 . S
C56 O63 1.299 . S
O57 Zn54 2.080 . S
O57 C71 1.305 . S
O58 Zn52 1.920 . S
O58 C71 1.234 . S
C59 O64 1.167 . S
C59 O65 1.299 . S
O60 Zn54 2.114 1_565 S
O60 C55 1.166 . S
O61 Zn53 1.905 . S
O61 C55 1.182 . S
O62 Zn53 1.898 . S
O62 C56 1.167 . S
O63 Zn54 2.120 1_565 S
O63 C56 1.299 . S
O64 Zn52 1.898 . S
O64 C59 1.167 . S
O65 Zn54 2.120 . S
O65 C59 1.299 . S
O66 Zn54 2.114 1_655 S
O66 C68 1.166 . S
O67 Zn52 1.905 1_655 S
O67 C68 1.182 . S
C68 O66 1.166 . S
C68 O67 1.182 . S
O69 Zn54 2.080 1_565 S
O69 C72 1.305 . S
O70 Zn53 1.920 . S
O70 C72 1.234 . S
C71 O57 1.305 . S
C71 O58 1.234 . S
C72 O69 1.305 . S
C72 O70 1.234 . S
Zn73 O79 1.920 . S
Zn73 O85 1.898 . S
Zn73 O88 1.905 . S
Zn74 O82 1.905 . S
Zn74 O83 1.898 . S
Zn74 O91 1.920 . S
Zn75 O78 2.080 . S
Zn75 O81 2.114 . S
Zn75 O84 2.120 . S
Zn75 O86 2.120 . S
Zn75 O87 2.114 . S
Zn75 O90 2.080 . S
C76 O81 1.166 . S
C76 O82 1.182 . S
C77 O83 1.167 . S
C77 O84 1.299 . S
O78 Zn75 2.080 . S
O78 C92 1.305 . S
O79 Zn73 1.920 . S
O79 C92 1.234 . S
C80 O85 1.167 . S
C80 O86 1.299 . S
O81 Zn75 2.114 . S
O81 C76 1.166 . S
O82 Zn74 1.905 . S
O82 C76 1.182 . S
O83 Zn74 1.898 . S
O83 C77 1.167 . S
O84 Zn75 2.120 . S
O84 C77 1.299 . S
O85 Zn73 1.898 . S
O85 C80 1.167 . S
O86 Zn75 2.120 . S
O86 C80 1.299 . S
O87 Zn75 2.114 . S
O87 C89 1.166 . S
O88 Zn73 1.905 . S
O88 C89 1.182 . S
C89 O87 1.166 . S
C89 O88 1.182 . S
O90 Zn75 2.080 . S
O90 C93 1.305 . S
O91 Zn74 1.920 . S
O91 C93 1.234 . S
C92 O78 1.305 . S
C92 O79 1.234 . S
C93 O90 1.305 . S
C93 O91 1.234 . S
H94 C95 0.951 . S
C95 H94 0.951 . S
C95 C101 1.265 . S
H96 C101 0.950 . S
H97 C105 0.949 . S
H98 C106 0.950 . S
H99 C107 0.951 1_655 S
H100 C108 0.951 . S
C101 C95 1.265 . S
C101 H96 0.950 . S
C101 C102 1.478 . S
C102 C101 1.478 . S
C102 C103 1.397 . S
C102 C119 1.394 . S
C103 C102 1.397 . S
C103 C104 1.438 . S
C103 C108 1.429 . S
C104 C103 1.438 . S
C104 C105 1.428 . S
C104 C117 1.394 . S
C105 H97 0.949 . S
C105 C104 1.428 . S
C105 C106 1.345 . S
C106 H98 0.950 . S
C106 C105 1.345 . S
C106 C107 1.424 . S
C107 H99 0.951 1_455 S
C107 C106 1.424 . S
C107 C108 1.347 . S
C108 H100 0.951 . S
C108 C103 1.429 . S
C108 C107 1.347 . S
H109 C110 0.951 . S
C110 H109 0.951 . S
C110 C116 1.265 . S
H111 C116 0.950 . S
H112 C120 0.949 . S
H113 C121 0.950 . S
H114 C122 0.951 . S
H115 C123 0.951 . S
C116 C110 1.265 . S
C116 H111 0.950 . S
C116 C117 1.478 . S
C117 C104 1.394 . S
C117 C116 1.478 . S
C117 C118 1.397 . S
C118 C117 1.397 . S
C118 C119 1.438 . S
C118 C123 1.429 . S
C119 C102 1.394 . S
C119 C118 1.438 . S
C119 C120 1.428 . S
C120 H112 0.949 . S
C120 C119 1.428 . S
C120 C121 1.345 . S
C121 H113 0.950 . S
C121 C120 1.345 . S
C121 C122 1.424 . S
C122 H114 0.951 . S
C122 C121 1.424 . S
C122 C123 1.347 . S
C123 H115 0.951 . S
C123 C118 1.429 . S
C123 C122 1.347 . S
H124 C125 0.949 1_455 S
C125 H124 0.949 1_655 S
C125 C131 1.266 . S
H126 C131 0.950 . S
H127 C135 0.949 . S
H128 C136 0.950 . S
H129 C137 0.951 . S
H130 C138 0.951 . S
C131 C125 1.266 . S
C131 H126 0.950 . S
C131 C132 1.483 . S
C132 C131 1.483 . S
C132 C133 1.388 1_655 S
C132 C149 1.398 . S
C133 C132 1.388 1_455 S
C133 C134 1.438 . S
C133 C138 1.429 . S
C134 C133 1.438 . S
C134 C135 1.428 . S
C134 C147 1.394 . S
C135 H127 0.949 . S
C135 C134 1.428 . S
C135 C136 1.345 . S
C136 H128 0.950 . S
C136 C135 1.345 . S
C136 C137 1.424 . S
C137 H129 0.951 . S
C137 C136 1.424 . S
C137 C138 1.347 . S
C138 H130 0.951 . S
C138 C133 1.429 . S
C138 C137 1.347 . S
H139 C140 0.951 . S
C140 H139 0.951 . S
C140 C146 1.265 . S
H141 C146 0.950 . S
H142 C150 0.949 . S
H143 C151 0.950 . S
H144 C152 0.951 . S
H145 C153 0.951 . S
C146 C140 1.265 . S
C146 H141 0.950 . S
C146 C147 1.478 . S
C147 C134 1.394 . S
C147 C146 1.478 . S
C147 C148 1.397 1_455 S
C148 C147 1.397 1_655 S
C148 C149 1.438 . S
C148 C153 1.429 . S
C149 C132 1.398 . S
C149 C148 1.438 . S
C149 C150 1.428 . S
C150 H142 0.949 . S
C150 C149 1.428 . S
C150 C151 1.345 . S
C151 H143 0.950 . S
C151 C150 1.345 . S
C151 C152 1.424 . S
C152 H144 0.951 . S
C152 C151 1.424 . S
C152 C153 1.347 . S
C153 H145 0.951 . S
C153 C148 1.429 . S
C153 C152 1.347 . S
H154 C155 0.951 . S
C155 H154 0.951 . S
C155 C161 1.265 . S
H156 C161 0.950 . S
H157 C165 0.949 . S
H158 C166 0.950 . S
H159 C167 0.951 . S
H160 C168 0.951 . S
C161 C155 1.265 . S
C161 H156 0.950 . S
C161 C162 1.478 . S
C162 C161 1.478 . S
C162 C163 1.397 . S
C162 C179 1.394 . S
C163 C162 1.397 . S
C163 C164 1.438 . S
C163 C168 1.429 . S
C164 C163 1.438 . S
C164 C165 1.428 . S
C164 C177 1.394 . S
C165 H157 0.949 . S
C165 C164 1.428 . S
C165 C166 1.345 . S
C166 H158 0.950 . S
C166 C165 1.345 . S
C166 C167 1.424 . S
C167 H159 0.951 . S
C167 C166 1.424 . S
C167 C168 1.347 . S
C168 H160 0.951 . S
C168 C163 1.429 . S
C168 C167 1.347 . S
H169 C170 0.951 . S
C170 H169 0.951 . S
C170 C176 1.265 . S
H171 C176 0.950 . S
H172 C180 0.949 . S
H173 C181 0.950 . S
H174 C182 0.951 . S
H175 C183 0.951 . S
C176 C170 1.265 . S
C176 H171 0.950 . S
C176 C177 1.478 . S
C177 C164 1.394 . S
C177 C176 1.478 . S
C177 C178 1.397 . S
C178 C177 1.397 . S
C178 C179 1.438 . S
C178 C183 1.429 . S
C179 C162 1.394 . S
C179 C178 1.438 . S
C179 C180 1.428 . S
C180 H172 0.949 . S
C180 C179 1.428 . S
C180 C181 1.345 . S
C181 H173 0.950 . S
C181 C180 1.345 . S
C181 C182 1.424 . S
C182 H174 0.951 . S
C182 C181 1.424 . S
C182 C183 1.347 . S
C183 H175 0.951 . S
C183 C178 1.429 . S
C183 C182 1.347 . S
H184 C185 0.951 . S
C185 H184 0.951 . S
C185 C191 1.265 . S
H186 C191 0.950 . S
H187 C195 0.949 . S
H188 C196 0.950 . S
H189 C197 0.951 . S
H190 C198 0.951 . S
C191 C185 1.265 . S
C191 H186 0.950 . S
C191 C192 1.478 . S
C192 C191 1.478 . S
C192 C193 1.397 . S
C192 C209 1.394 . S
C193 C192 1.397 . S
C193 C194 1.438 . S
C193 C198 1.429 . S
C194 C193 1.438 . S
C194 C195 1.428 . S
C194 C207 1.394 . S
C195 H187 0.949 . S
C195 C194 1.428 . S
C195 C196 1.345 . S
C196 H188 0.950 . S
C196 C195 1.345 . S
C196 C197 1.424 . S
C197 H189 0.951 . S
C197 C196 1.424 . S
C197 C198 1.347 . S
C198 H190 0.951 . S
C198 C193 1.429 . S
C198 C197 1.347 . S
H199 C200 0.951 . S
C200 H199 0.951 . S
C200 C206 1.265 . S
H201 C206 0.950 . S
H202 C210 0.949 . S
H203 C211 0.950 . S
H204 C212 0.951 . S
H205 C213 0.951 . S
C206 C200 1.265 . S
C206 H201 0.950 . S
C206 C207 1.478 . S
C207 C194 1.394 . S
C207 C206 1.478 . S
C207 C208 1.397 . S
C208 C207 1.397 . S
C208 C209 1.438 . S
C208 C213 1.429 . S
C209 C192 1.394 . S
C209 C208 1.438 . S
C209 C210 1.428 . S
C210 H202 0.949 . S
C210 C209 1.428 . S
C210 C211 1.345 . S
C211 H203 0.950 . S
C211 C210 1.345 . S
C211 C212 1.424 . S
C212 H204 0.951 . S
C212 C211 1.424 . S
C212 C213 1.347 . S
C213 H205 0.951 . S
C213 C208 1.429 . S
C213 C212 1.347 . S
H214 C215 0.951 . S
C215 H214 0.951 . S
C215 C221 1.265 . S
H216 C221 0.950 . S
H217 C225 0.949 . S
H218 C226 0.950 . S
H219 C227 0.951 . S
H220 C228 0.951 . S
C221 C215 1.265 . S
C221 H216 0.950 . S
C221 C222 1.478 . S
C222 C221 1.478 . S
C222 C223 1.397 . S
C222 C239 1.394 . S
C223 C222 1.397 . S
C223 C224 1.438 . S
C223 C228 1.429 . S
C224 C223 1.438 . S
C224 C225 1.428 . S
C224 C237 1.394 . S
C225 H217 0.949 . S
C225 C224 1.428 . S
C225 C226 1.345 . S
C226 H218 0.950 . S
C226 C225 1.345 . S
C226 C227 1.424 . S
C227 H219 0.951 . S
C227 C226 1.424 . S
C227 C228 1.347 . S
C228 H220 0.951 . S
C228 C223 1.429 . S
C228 C227 1.347 . S
H229 C230 0.951 . S
C230 H229 0.951 . S
C230 C236 1.265 . S
H231 C236 0.950 . S
H232 C240 0.948 . S
H233 C241 0.950 1_554 S
H234 C242 0.951 . S
H235 C243 0.951 . S
C236 C230 1.265 . S
C236 H231 0.950 . S
C236 C237 1.478 . S
C237 C224 1.394 . S
C237 C236 1.478 . S
C237 C238 1.397 . S
C238 C237 1.397 . S
C238 C239 1.438 . S
C238 C243 1.429 . S
C239 C222 1.394 . S
C239 C238 1.438 . S
C239 C240 1.428 . S
C240 H232 0.948 . S
C240 C239 1.428 . S
C240 C241 1.345 . S
C241 H233 0.950 1_556 S
C241 C240 1.345 . S
C241 C242 1.424 . S
C242 H234 0.951 . S
C242 C241 1.424 . S
C242 C243 1.347 . S
C243 H235 0.951 . S
C243 C238 1.429 . S
C243 C242 1.347 . S
H244 C245 0.951 . S
C245 H244 0.951 . S
C245 C251 1.265 . S
H246 C251 0.921 1_554 S
H247 C255 0.949 . S
H248 C256 0.950 . S
H249 C257 0.951 . S
H250 C258 0.951 . S
C251 C245 1.265 . S
C251 H246 0.921 1_556 S
C251 C252 1.478 . S
C252 C251 1.478 . S
C252 C253 1.397 . S
C252 C269 1.394 . S
C253 C252 1.397 . S
C253 C254 1.438 . S
C253 C258 1.429 . S
C254 C253 1.438 . S
C254 C255 1.428 . S
C254 C267 1.394 . S
C255 H247 0.949 . S
C255 C254 1.428 . S
C255 C256 1.345 . S
C256 H248 0.950 . S
C256 C255 1.345 . S
C256 C257 1.424 . S
C257 H249 0.951 . S
C257 C256 1.424 . S
C257 C258 1.347 . S
C258 H250 0.951 . S
C258 C253 1.429 . S
C258 C257 1.347 . S
H259 C260 0.951 . S
C260 H259 0.951 . S
C260 C266 1.265 . S
H261 C266 0.950 . S
H262 C270 0.949 . S
H263 C271 0.950 . S
H264 C272 0.951 . S
H265 C273 0.951 . S
C266 C260 1.265 . S
C266 H261 0.950 . S
C266 C267 1.478 . S
C267 C254 1.394 . S
C267 C266 1.478 . S
C267 C268 1.397 . S
C268 C267 1.397 . S
C268 C269 1.438 . S
C268 C273 1.429 . S
C269 C252 1.394 . S
C269 C268 1.438 . S
C269 C270 1.428 . S
C270 H262 0.949 . S
C270 C269 1.428 . S
C270 C271 1.345 . S
C271 H263 0.950 . S
C271 C270 1.345 . S
C271 C272 1.424 . S
C272 H264 0.951 . S
C272 C271 1.424 . S
C272 C273 1.347 . S
C273 H265 0.951 . S
C273 C268 1.429 . S
C273 C272 1.347 . S
H274 C275 0.951 1_655 S
C275 H274 0.951 1_455 S
C275 C281 1.265 1_455 S
H276 C281 0.950 1_455 S
H277 C285 0.949 . S
H278 C286 0.950 . S
H279 C287 0.951 . S
H280 C288 0.951 . S
C281 C275 1.265 1_655 S
C281 H276 0.950 1_655 S
C281 C282 1.478 . S
C282 C281 1.478 . S
C282 C283 1.397 . S
C282 C299 1.394 . S
C283 C282 1.397 . S
C283 C284 1.438 . S
C283 C288 1.429 . S
C284 C283 1.438 . S
C284 C285 1.428 . S
C284 C297 1.394 . S
C285 H277 0.949 . S
C285 C284 1.428 . S
C285 C286 1.345 . S
C286 H278 0.950 . S
C286 C285 1.345 . S
C286 C287 1.424 . S
C287 H279 0.951 . S
C287 C286 1.424 . S
C287 C288 1.347 . S
C288 H280 0.951 . S
C288 C283 1.429 . S
C288 C287 1.347 . S
H289 C290 0.951 . S
C290 H289 0.951 . S
C290 C296 1.265 . S
H291 C296 0.950 . S
H292 C300 0.949 . S
H293 C301 0.950 . S
H294 C302 0.951 1_554 S
H295 C303 0.951 . S
C296 C290 1.265 . S
C296 H291 0.950 . S
C296 C297 1.478 . S
C297 C284 1.394 . S
C297 C296 1.478 . S
C297 C298 1.397 . S
C298 C297 1.397 . S
C298 C299 1.438 . S
C298 C303 1.429 . S
C299 C282 1.394 . S
C299 C298 1.438 . S
C299 C300 1.428 . S
C300 H292 0.949 . S
C300 C299 1.428 . S
C300 C301 1.345 1_556 S
C301 H293 0.950 . S
C301 C300 1.345 1_554 S
C301 C302 1.424 1_554 S
C302 H294 0.951 1_556 S
C302 C301 1.424 1_556 S
C302 C303 1.347 . S
C303 H295 0.951 . S
C303 C298 1.429 . S
C303 C302 1.347 . S
H304 C305 0.951 . S
C305 H304 0.951 . S
C305 C311 1.265 . S
H306 C311 0.950 . S
H307 C315 0.949 . S
H308 C316 0.950 . S
H309 C317 0.951 1_554 S
H310 C318 0.951 . S
C311 C305 1.265 . S
C311 H306 0.950 . S
C311 C312 1.478 . S
C312 C311 1.478 . S
C312 C313 1.397 . S
C312 C329 1.394 . S
C313 C312 1.397 . S
C313 C314 1.438 . S
C313 C318 1.429 . S
C314 C313 1.438 . S
C314 C315 1.428 . S
C314 C327 1.394 . S
C315 H307 0.949 . S
C315 C314 1.428 . S
C315 C316 1.345 . S
C316 H308 0.950 . S
C316 C315 1.345 . S
C316 C317 1.424 . S
C317 H309 0.951 1_556 S
C317 C316 1.424 . S
C317 C318 1.347 . S
C318 H310 0.951 . S
C318 C313 1.429 . S
C318 C317 1.347 . S
H319 C320 0.951 . S
C320 H319 0.951 . S
C320 C326 1.265 . S
H321 C326 0.950 . S
H322 C330 0.949 . S
H323 C331 0.950 . S
H324 C332 0.951 . S
H325 C333 0.951 . S
C326 C320 1.265 . S
C326 H321 0.950 . S
C326 C327 1.478 . S
C327 C314 1.394 . S
C327 C326 1.478 . S
C327 C328 1.397 . S
C328 C327 1.397 . S
C328 C329 1.438 . S
C328 C333 1.429 . S
C329 C312 1.394 . S
C329 C328 1.438 . S
C329 C330 1.428 . S
C330 H322 0.949 . S
C330 C329 1.428 . S
C330 C331 1.345 . S
C331 H323 0.950 . S
C331 C330 1.345 . S
C331 C332 1.424 . S
C332 H324 0.951 . S
C332 C331 1.424 . S
C332 C333 1.347 . S
C333 H325 0.951 . S
C333 C328 1.429 . S
C333 C332 1.347 . S
H334 C335 0.951 . S
C335 H334 0.951 . S
C335 C341 1.265 . S
H336 C341 0.950 . S
H337 C345 0.949 . S
H338 C346 0.950 . S
H339 C347 0.951 . S
H340 C348 0.951 . S
C341 C335 1.265 . S
C341 H336 0.950 . S
C341 C342 1.478 . S
C342 C341 1.478 . S
C342 C343 1.397 . S
C342 C359 1.394 . S
C343 C342 1.397 . S
C343 C344 1.438 . S
C343 C348 1.429 . S
C344 C343 1.438 . S
C344 C345 1.428 . S
C344 C357 1.394 . S
C345 H337 0.949 . S
C345 C344 1.428 . S
C345 C346 1.345 . S
C346 H338 0.950 . S
C346 C345 1.345 . S
C346 C347 1.424 . S
C347 H339 0.951 . S
C347 C346 1.424 . S
C347 C348 1.347 . S
C348 H340 0.951 . S
C348 C343 1.429 . S
C348 C347 1.347 . S
H349 C350 0.951 . S
C350 H349 0.951 . S
C350 C356 1.265 . S
H351 C356 0.950 . S
H352 C360 0.949 . S
H353 C361 0.950 . S
H354 C362 0.951 . S
H355 C363 0.951 . S
C356 C350 1.265 . S
C356 H351 0.950 . S
C356 C357 1.478 . S
C357 C344 1.394 . S
C357 C356 1.478 . S
C357 C358 1.397 . S
C358 C357 1.397 . S
C358 C359 1.438 . S
C358 C363 1.429 . S
C359 C342 1.394 . S
C359 C358 1.438 . S
C359 C360 1.428 . S
C360 H352 0.949 . S
C360 C359 1.428 . S
C360 C361 1.345 . S
C361 H353 0.950 . S
C361 C360 1.345 . S
C361 C362 1.424 . S
C362 H354 0.951 . S
C362 C361 1.424 . S
C362 C363 1.347 . S
C363 H355 0.951 . S
C363 C358 1.429 . S
C363 C362 1.347 . S
H364 C365 0.951 . S
C365 H364 0.951 . S
C365 C371 1.265 . S
H366 C371 0.950 . S
H367 C375 0.949 . S
H368 C376 0.950 . S
H369 C377 0.951 . S
H370 C378 0.951 . S
C371 C365 1.265 . S
C371 H366 0.950 . S
C371 C372 1.478 . S
C372 C371 1.478 . S
C372 C373 1.397 . S
C372 C389 1.394 . S
C373 C372 1.397 . S
C373 C374 1.438 . S
C373 C378 1.429 . S
C374 C373 1.438 . S
C374 C375 1.428 . S
C374 C387 1.394 . S
C375 H367 0.949 . S
C375 C374 1.428 . S
C375 C376 1.345 . S
C376 H368 0.950 . S
C376 C375 1.345 . S
C376 C377 1.424 . S
C377 H369 0.951 . S
C377 C376 1.424 . S
C377 C378 1.347 . S
C378 H370 0.951 . S
C378 C373 1.429 . S
C378 C377 1.347 . S
H379 C380 0.951 . S
C380 H379 0.951 . S
C380 C386 1.265 . S
H381 C386 0.950 . S
H382 C390 0.949 . S
H383 C391 0.950 . S
H384 C392 0.951 . S
H385 C393 0.951 . S
C386 C380 1.265 . S
C386 H381 0.950 . S
C386 C387 1.478 . S
C387 C374 1.394 . S
C387 C386 1.478 . S
C387 C388 1.397 . S
C388 C387 1.397 . S
C388 C389 1.438 . S
C388 C393 1.429 . S
C389 C372 1.394 . S
C389 C388 1.438 . S
C389 C390 1.428 . S
C390 H382 0.949 . S
C390 C389 1.428 . S
C390 C391 1.345 . S
C391 H383 0.950 . S
C391 C390 1.345 . S
C391 C392 1.424 . S
C392 H384 0.951 . S
C392 C391 1.424 . S
C392 C393 1.347 . S
C393 H385 0.951 . S
C393 C388 1.429 . S
C393 C392 1.347 . S
H394 C395 0.951 . S
C395 H394 0.951 . S
C395 C401 1.265 . S
H396 C401 0.950 . S
H397 C405 0.949 . S
H398 C406 0.950 . S
H399 C407 0.951 . S
H400 C408 0.951 . S
C401 C395 1.265 . S
C401 H396 0.950 . S
C401 C402 1.478 . S
C402 C401 1.478 . S
C402 C403 1.397 . S
C402 C419 1.394 . S
C403 C402 1.397 . S
C403 C404 1.438 . S
C403 C408 1.429 . S
C404 C403 1.438 . S
C404 C405 1.428 . S
C404 C417 1.394 . S
C405 H397 0.949 . S
C405 C404 1.428 . S
C405 C406 1.345 . S
C406 H398 0.950 . S
C406 C405 1.345 . S
C406 C407 1.424 . S
C407 H399 0.951 . S
C407 C406 1.424 . S
C407 C408 1.347 . S
C408 H400 0.951 . S
C408 C403 1.429 . S
C408 C407 1.347 . S
H409 C410 0.951 . S
C410 H409 0.951 . S
C410 C416 1.265 . S
H411 C416 0.950 . S
H412 C420 0.949 . S
H413 C421 0.950 . S
H414 C422 0.951 . S
H415 C423 0.951 . S
C416 C410 1.265 . S
C416 H411 0.950 . S
C416 C417 1.478 . S
C417 C404 1.394 . S
C417 C416 1.478 . S
C417 C418 1.397 . S
C418 C417 1.397 . S
C418 C419 1.438 . S
C418 C423 1.429 . S
C419 C402 1.394 . S
C419 C418 1.438 . S
C419 C420 1.428 . S
C420 H412 0.949 . S
C420 C419 1.428 . S
C420 C421 1.345 . S
C421 H413 0.950 . S
C421 C420 1.345 . S
C421 C422 1.424 . S
C422 H414 0.951 . S
C422 C421 1.424 . S
C422 C423 1.347 . S
C423 H415 0.951 . S
C423 C418 1.429 . S
C423 C422 1.347 . S
H424 C425 0.951 . S
C425 H424 0.951 . S
C425 C431 1.265 . S
H426 C431 0.950 . S
H427 C435 0.949 . S
H428 C436 0.950 . S
H429 C437 0.951 . S
H430 C438 0.951 . S
C431 C425 1.265 . S
C431 H426 0.950 . S
C431 C432 1.478 . S
C432 C431 1.478 . S
C432 C433 1.397 . S
C432 C449 1.394 . S
C433 C432 1.397 . S
C433 C434 1.438 . S
C433 C438 1.429 . S
C434 C433 1.438 . S
C434 C435 1.428 . S
C434 C447 1.394 . S
C435 H427 0.949 . S
C435 C434 1.428 . S
C435 C436 1.345 . S
C436 H428 0.950 . S
C436 C435 1.345 . S
C436 C437 1.424 . S
C437 H429 0.951 . S
C437 C436 1.424 . S
C437 C438 1.347 . S
C438 H430 0.951 . S
C438 C433 1.429 . S
C438 C437 1.347 . S
H439 C440 0.951 . S
C440 H439 0.951 . S
C440 C446 1.265 . S
H441 C446 0.950 . S
H442 C450 0.949 . S
H443 C451 0.950 . S
H444 C452 0.951 . S
H445 C453 0.951 . S
C446 C440 1.265 . S
C446 H441 0.950 . S
C446 C447 1.478 . S
C447 C434 1.394 . S
C447 C446 1.478 . S
C447 C448 1.397 . S
C448 C447 1.397 . S
C448 C449 1.438 . S
C448 C453 1.429 . S
C449 C432 1.394 . S
C449 C448 1.438 . S
C449 C450 1.428 . S
C450 H442 0.949 . S
C450 C449 1.428 . S
C450 C451 1.345 . S
C451 H443 0.950 . S
C451 C450 1.345 . S
C451 C452 1.424 . S
C452 H444 0.951 . S
C452 C451 1.424 . S
C452 C453 1.347 . S
C453 H445 0.951 . S
C453 C448 1.429 . S
C453 C452 1.347 . S
C110 C59 1.367 . S
C95 C4 1.447 . S
C140 C55 1.362 . S
C125 C17 1.517 . S
C170 C80 1.376 . S
C155 C30 1.507 . S
C185 C43 1.494 . S
C200 C76 1.424 . S
C215 C9 1.183 . S
C230 C77 1.072 . S
C260 C92 1.173 . S
C245 C22 1.231 . S
C275 C8 1.733 . S
C290 C93 1.626 . S
C320 C89 1.553 . S
C305 C21 1.730 . S
C350 C56 1.028 1_655 S
C335 C35 1.177 . S
C365 C48 1.215 . S
C380 C71 1.034 . S
C410 C72 1.513 . S
C395 C34 1.710 . S
C440 C68 1.549 . S
C425 C47 1.729 . S
