# Generated by pormake.
# Topology pyr, (3,6)-cn, num edge types: 1
# Building blocks:
#     Node 0, Type 0, BuildingBlock: QEWDON_clean_linker_0, # of connection points: 3
#     Node 1, Type 0, BuildingBlock: QEWDON_clean_linker_0, # of connection points: 3
#     Node 2, Type 0, BuildingBlock: QEWDON_clean_linker_0, # of connection points: 3
#     Node 3, Type 0, BuildingBlock: QEWDON_clean_linker_0, # of connection points: 3
#     Node 4, Type 0, BuildingBlock: QEWDON_clean_linker_0, # of connection points: 3
#     Node 5, Type 0, BuildingBlock: QEWDON_clean_linker_0, # of connection points: 3
#     Node 6, Type 0, BuildingBlock: QEWDON_clean_linker_0, # of connection points: 3
#     Node 7, Type 0, BuildingBlock: QEWDON_clean_linker_0, # of connection points: 3
#     Node 8, Type 1, BuildingBlock: CIFDUS_clean_sbu_1, # of connection points: 6
#     Node 9, Type 1, BuildingBlock: CIFDUS_clean_sbu_1, # of connection points: 6
#     Node 10, Type 1, BuildingBlock: CIFDUS_clean_sbu_1, # of connection points: 6
#     Node 11, Type 1, BuildingBlock: CIFDUS_clean_sbu_1, # of connection points: 6
#     Edge 12, Type (0, 1), BuildingBlock: XUDNAN_clean_linker_2, # of connection points: 2
#     Edge 13, Type (0, 1), BuildingBlock: XUDNAN_clean_linker_2, # of connection points: 2
#     Edge 14, Type (0, 1), BuildingBlock: XUDNAN_clean_linker_2, # of connection points: 2
#     Edge 15, Type (0, 1), BuildingBlock: XUDNAN_clean_linker_2, # of connection points: 2
#     Edge 16, Type (0, 1), BuildingBlock: XUDNAN_clean_linker_2, # of connection points: 2
#     Edge 17, Type (0, 1), BuildingBlock: XUDNAN_clean_linker_2, # of connection points: 2
#     Edge 18, Type (0, 1), BuildingBlock: XUDNAN_clean_linker_2, # of connection points: 2
#     Edge 19, Type (0, 1), BuildingBlock: XUDNAN_clean_linker_2, # of connection points: 2
#     Edge 20, Type (0, 1), BuildingBlock: XUDNAN_clean_linker_2, # of connection points: 2
#     Edge 21, Type (0, 1), BuildingBlock: XUDNAN_clean_linker_2, # of connection points: 2
#     Edge 22, Type (0, 1), BuildingBlock: XUDNAN_clean_linker_2, # of connection points: 2
#     Edge 23, Type (0, 1), BuildingBlock: XUDNAN_clean_linker_2, # of connection points: 2
#     Edge 24, Type (0, 1), BuildingBlock: XUDNAN_clean_linker_2, # of connection points: 2
#     Edge 25, Type (0, 1), BuildingBlock: XUDNAN_clean_linker_2, # of connection points: 2
#     Edge 26, Type (0, 1), BuildingBlock: XUDNAN_clean_linker_2, # of connection points: 2
#     Edge 27, Type (0, 1), BuildingBlock: XUDNAN_clean_linker_2, # of connection points: 2
#     Edge 28, Type (0, 1), BuildingBlock: XUDNAN_clean_linker_2, # of connection points: 2
#     Edge 29, Type (0, 1), BuildingBlock: XUDNAN_clean_linker_2, # of connection points: 2
#     Edge 30, Type (0, 1), BuildingBlock: XUDNAN_clean_linker_2, # of connection points: 2
#     Edge 31, Type (0, 1), BuildingBlock: XUDNAN_clean_linker_2, # of connection points: 2
#     Edge 32, Type (0, 1), BuildingBlock: XUDNAN_clean_linker_2, # of connection points: 2
#     Edge 33, Type (0, 1), BuildingBlock: XUDNAN_clean_linker_2, # of connection points: 2
#     Edge 34, Type (0, 1), BuildingBlock: XUDNAN_clean_linker_2, # of connection points: 2
#     Edge 35, Type (0, 1), BuildingBlock: XUDNAN_clean_linker_2, # of connection points: 2
# Relax obj value: 0.136
# Max RMSD: 0.252
# Mean RMSD: 0.191
data_MOF--net-pry--node1-CIFDUS_clean_sbu_1--node2-QEWDON_clean_linker_0--edge1-XUDNAN_clean_linker_2
_symmetry_space_group_name_H-M    P1
_symmetry_Int_Tables_number       1
_symmetry_cell_setting            triclinic
loop_
_symmetry_equiv_pos_as_xyz
'x, y, z'
_cell_length_a     36.577298
_cell_length_b     35.518435
_cell_length_c     37.124896
_cell_angle_alpha  91.966565
_cell_angle_beta   91.708389
_cell_angle_gamma 102.44331
loop_
_atom_site_label
_atom_site_type_symbol
_atom_site_fract_x
_atom_site_fract_y
_atom_site_fract_z
_atom_type_partial_charge
H0 H 0.23721 0.22575 0.15697 0.0
C1 C 0.22344 0.21844 0.18201 0.0
C2 C 0.22962 0.18619 0.20053 0.0
C3 C 0.20129 0.24298 0.19605 0.0
H4 H 0.21549 0.15314 0.24799 0.0
C5 C 0.21061 0.17718 0.23278 0.0
C6 C 0.18734 0.2007 0.24705 0.0
C7 C 0.183 0.23363 0.2284 0.0
C8 C 0.20398 0.28173 0.18037 0.0
H9 H 0.1666 0.25283 0.23977 0.0
C10 C 0.17242 0.29636 0.16906 0.0
C11 C 0.17764 0.3336 0.15453 0.0
C12 C 0.24007 0.30475 0.17695 0.0
H13 H 0.26469 0.29461 0.18566 0.0
C14 C 0.24509 0.34113 0.16273 0.0
H15 H 0.14439 0.27915 0.17154 0.0
C16 C 0.21427 0.35544 0.15164 0.0
H17 H 0.21911 0.38383 0.1405 0.0
H18 H 0.2731 0.35839 0.16032 0.0
H19 H 0.33256 0.9347 0.76495 0.0
C20 C 0.35201 0.91893 0.7536 0.0
C21 C 0.38646 0.91896 0.77174 0.0
C22 C 0.34125 0.8978 0.72107 0.0
H23 H 0.4372 0.89698 0.76874 0.0
C24 C 0.4111 0.89853 0.75499 0.0
C25 C 0.40121 0.87815 0.7213 0.0
C26 C 0.36607 0.87825 0.70468 0.0
C27 C 0.30183 0.89163 0.70761 0.0
H28 H 0.35742 0.8623 0.67935 0.0
C29 C 0.29147 0.90961 0.67685 0.0
C30 C 0.25313 0.90642 0.66693 0.0
C31 C 0.27403 0.869 0.72758 0.0
H32 H 0.28152 0.85496 0.7513 0.0
C33 C 0.23638 0.86481 0.71757 0.0
H34 H 0.31327 0.92667 0.66148 0.0
C35 C 0.22592 0.88368 0.68794 0.0
H36 H 0.19628 0.88132 0.68253 0.0
H37 H 0.2151 0.84766 0.73345 0.0
H38 H 0.70414 0.39273 0.85816 0.0
C39 C 0.70219 0.36272 0.86419 0.0
C40 C 0.72892 0.35285 0.88786 0.0
C41 C 0.67166 0.33443 0.85026 0.0
H42 H 0.74614 0.30721 0.91564 0.0
C43 C 0.72555 0.31425 0.89694 0.0
C44 C 0.69409 0.28573 0.88484 0.0
C45 C 0.66792 0.29614 0.86064 0.0
C46 C 0.64088 0.34563 0.82908 0.0
H47 H 0.64303 0.27509 0.85159 0.0
C48 C 0.64831 0.37005 0.79982 0.0
C49 C 0.61889 0.38207 0.78106 0.0
C50 C 0.60369 0.33286 0.83921 0.0
H51 H 0.59719 0.31459 0.86196 0.0
C52 C 0.57455 0.34449 0.82091 0.0
H53 H 0.67693 0.3793 0.79167 0.0
C54 C 0.58198 0.3691 0.79236 0.0
H55 H 0.55866 0.3787 0.77991 0.0
H56 H 0.54607 0.33497 0.82934 0.0
H57 H 0.90918 0.77692 0.37384 0.0
C58 C 0.8889 0.7561 0.38772 0.0
C59 C 0.89357 0.75228 0.42512 0.0
C60 C 0.85599 0.73641 0.36896 0.0
H61 H 0.86858 0.72584 0.47219 0.0
C62 C 0.86555 0.72748 0.44319 0.0
C63 C 0.83205 0.70852 0.42516 0.0
C64 C 0.82791 0.71246 0.38774 0.0
C65 C 0.84684 0.74791 0.33241 0.0
H66 H 0.80188 0.69883 0.37347 0.0
C67 C 0.85785 0.73062 0.30099 0.0
C68 C 0.84793 0.74205 0.26653 0.0
C69 C 0.82586 0.77644 0.32928 0.0
H70 H 0.81702 0.7899 0.35318 0.0
C71 C 0.81599 0.78776 0.29543 0.0
H72 H 0.87422 0.70872 0.30343 0.0
C73 C 0.82687 0.77075 0.26428 0.0
H74 H 0.81834 0.77975 0.23834 0.0
H75 H 0.79968 0.80971 0.29332 0.0
H76 H 0.85025 0.85972 0.91524 0.0
C77 C 0.8617 0.87337 0.89114 0.0
C78 C 0.89672 0.86827 0.8795 0.0
C79 C 0.84065 0.89483 0.87132 0.0
H80 H 0.93708 0.88093 0.83762 0.0
C81 C 0.91064 0.88544 0.84733 0.0
C82 C 0.88918 0.90599 0.82633 0.0
C83 C 0.85441 0.91071 0.83898 0.0
C84 C 0.80115 0.89384 0.8802 0.0
H85 H 0.83728 0.92579 0.82299 0.0
C86 C 0.79057 0.92214 0.90304 0.0
C87 C 0.7522 0.92025 0.90963 0.0
C88 C 0.77343 0.86371 0.86459 0.0
H89 H 0.78099 0.84178 0.84706 0.0
C90 C 0.73581 0.86147 0.87133 0.0
H91 H 0.81188 0.94557 0.91505 0.0
C92 C 0.72525 0.88937 0.89358 0.0
H93 H 0.69577 0.88634 0.89866 0.0
H94 H 0.71469 0.83793 0.85928 0.0
H95 H 0.70321 0.21338 0.49681 0.0
C96 C 0.69643 0.20531 0.46858 0.0
C97 C 0.71956 0.18591 0.44881 0.0
C98 C 0.66308 0.21189 0.45284 0.0
H99 H 0.72592 0.15728 0.3982 0.0
C100 C 0.70864 0.17318 0.41287 0.0
C101 C 0.67553 0.17996 0.39618 0.0
C102 C 0.6533 0.19996 0.41668 0.0
C103 C 0.63463 0.22379 0.47569 0.0
H104 H 0.62761 0.20562 0.40514 0.0
C105 C 0.63417 0.26288 0.48365 0.0
C106 C 0.60474 0.27248 0.50351 0.0
C107 C 0.6062 0.1947 0.48832 0.0
H108 H 0.60606 0.16457 0.4824 0.0
C109 C 0.57757 0.20407 0.50833 0.0
H110 H 0.65584 0.28549 0.47367 0.0
C111 C 0.5767 0.24258 0.51576 0.0
H112 H 0.55411 0.24903 0.53141 0.0
H113 H 0.5558 0.18137 0.51795 0.0
H114 H 0.36695 0.79555 0.29876 0.0
C115 C 0.34728 0.78773 0.27599 0.0
C116 C 0.34427 0.81518 0.24991 0.0
C117 C 0.32626 0.74948 0.27175 0.0
H118 H 0.31739 0.82308 0.19842 0.0
C119 C 0.31912 0.80367 0.21997 0.0
C120 C 0.29743 0.7662 0.21616 0.0
C121 C 0.30069 0.73952 0.24213 0.0
C122 C 0.33277 0.71865 0.29592 0.0
H123 H 0.28354 0.71056 0.23873 0.0
C124 C 0.33892 0.72509 0.33365 0.0
C125 C 0.3432 0.69445 0.35542 0.0
C126 C 0.33268 0.68172 0.28062 0.0
H127 H 0.32953 0.676 0.25173 0.0
C128 C 0.33701 0.65163 0.30221 0.0
H129 H 0.33961 0.75329 0.34608 0.0
C130 C 0.34196 0.65781 0.33935 0.0
H131 H 0.34571 0.63406 0.35562 0.0
H132 H 0.33674 0.62342 0.29005 0.0
H133 H 0.22344 0.43758 0.74942 0.0
C134 C 0.20262 0.4224 0.72959 0.0
C135 C 0.20672 0.42965 0.69273 0.0
C136 C 0.17286 0.39409 0.74102 0.0
H137 H 0.18242 0.41391 0.63903 0.0
C138 C 0.17931 0.40932 0.66758 0.0
C139 C 0.1487 0.38161 0.67878 0.0
C140 C 0.14587 0.37399 0.71564 0.0
C141 C 0.173 0.38209 0.77872 0.0
H142 H 0.12358 0.35124 0.72448 0.0
C143 C 0.16675 0.40666 0.8073 0.0
C144 C 0.16856 0.39552 0.84338 0.0
C145 C 0.18121 0.34632 0.78616 0.0
H146 H 0.18635 0.32717 0.76445 0.0
C147 C 0.18378 0.3354 0.82169 0.0
H148 H 0.15957 0.43383 0.80116 0.0
C149 C 0.1777 0.35979 0.85012 0.0
H150 H 0.18028 0.35061 0.87741 0.0
H151 H 0.19064 0.30796 0.82726 0.0
O152 O 0.973 0.09459 0.52825 0.0
Mn153 Mn 0.02161 0.07156 0.53625 0.0
O154 O 0.94217 0.06305 0.47885 0.0
Mn155 Mn 0.97981 0.03946 0.46417 0.0
O156 O 0.06948 0.0477 0.54305 0.0
O157 O 0.04366 0.11796 0.56898 0.0
Mn158 Mn 0.06677 0.10175 0.60591 0.0
O159 O 0.99647 0.04106 0.58106 0.0
O160 O 0.10548 0.08249 0.58762 0.0
O161 O 0.04771 0.1015 0.49159 0.0
O162 O 0.01913 0.06975 0.44134 0.0
O163 O 0.07315 0.1537 0.61458 0.0
O164 O 0.03161 0.06733 0.63011 0.0
C165 C 0.99065 0.99064 0.49118 0.0
C166 C 0.94443 0.0869 0.50571 0.0
C167 C 0.10041 0.05717 0.56193 0.0
C168 C 0.05435 0.15207 0.58425 0.0
C169 C 1.00399 0.04289 0.61551 0.0
C170 C 0.04498 0.09553 0.45689 0.0
O171 O 0.99973 0.02568 0.5039 0.0
O172 O 0.97287 0.9865 0.46016 0.0
O173 O 0.49185 0.05136 0.0322 0.0
Mn174 Mn 0.51872 0.06451 0.084 0.0
O175 O 0.48243 0.98655 0.023 0.0
Mn176 Mn 0.51047 0.97726 0.06264 0.0
O177 O 0.54608 0.07694 0.13516 0.0
O178 O 0.5363 0.11936 0.07197 0.0
Mn179 Mn 0.52683 0.15146 0.10571 0.0
O180 O 0.46767 0.07662 0.1045 0.0
O181 O 0.54999 0.14029 0.14807 0.0
O182 O 0.5688 0.05336 0.06284 0.0
O183 O 0.56151 0.98879 0.05596 0.0
O184 O 0.55553 0.18102 0.07224 0.0
O185 O 0.47541 0.14136 0.10564 0.0
C186 C 0.48999 0.98061 0.11613 0.0
C187 C 0.47947 0.0198 1.01301 0.0
C188 C 0.55585 0.10741 0.1561 0.0
C189 C 0.55634 0.1481 0.05661 0.0
C190 C 0.45481 0.10786 0.10877 0.0
C191 C 0.58121 0.02292 0.05448 0.0
O192 O 0.50242 0.00963 0.09687 0.0
O193 O 0.49007 0.94764 0.10027 0.0
O194 O 0.57864 0.62331 0.56885 0.0
Mn195 Mn 0.52622 0.59956 0.58898 0.0
O196 O 0.57294 0.60871 0.50884 0.0
Mn197 Mn 0.52466 0.57873 0.50721 0.0
O198 O 0.47398 0.57559 0.60848 0.0
O199 O 0.54999 0.59773 0.63777 0.0
Mn200 Mn 0.52604 0.61624 0.67213 0.0
O201 O 0.51668 0.6554 0.60131 0.0
O202 O 0.47773 0.58522 0.66904 0.0
O203 O 0.53674 0.5443 0.57768 0.0
O204 O 0.52128 0.52801 0.51942 0.0
O205 O 0.56492 0.59859 0.69437 0.0
O206 O 0.52917 0.66714 0.66111 0.0
C207 C 0.48049 0.60876 0.5142 0.0
C208 C 0.59181 0.62443 0.537 0.0
C209 C 0.45967 0.57183 0.63971 0.0
C210 C 0.57132 0.5876 0.66205 0.0
C211 C 0.52103 0.67783 0.63001 0.0
C212 C 0.53216 0.51996 0.55053 0.0
O213 O 0.50159 0.60079 0.54005 0.0
O214 O 0.48699 0.59547 0.4827 0.0
O215 O 0.96084 0.55609 1.01571 0.0
Mn216 Mn 1.01232 0.5915 0.03384 0.0
O217 O 0.96059 0.55525 0.95483 0.0
Mn218 Mn 1.00338 0.59344 0.9508 0.0
O219 O 0.06436 0.62699 0.05072 0.0
O220 O 0.98928 0.59833 0.08264 0.0
Mn221 Mn 0.02406 0.59285 0.11504 0.0
O222 O 0.03069 0.54124 0.05065 0.0
O223 O 0.06428 0.63338 0.11102 0.0
O224 O 0.99471 0.64219 1.01724 0.0
O225 O 0.99767 0.64354 0.9568 0.0
O226 O 0.98587 0.60035 0.14203 0.0
O227 O 0.03419 0.54453 0.11106 0.0
C228 C 0.05497 0.57587 0.95973 0.0
C229 C 0.94606 0.5437 0.98439 0.0
C230 C 0.079 0.6424 0.0811 0.0
C231 C 0.97038 0.60414 0.11087 0.0
C232 C 0.03775 0.52738 0.08125 0.0
C233 C 0.99211 0.65878 0.98703 0.0
O234 O 0.03437 0.58458 0.98523 0.0
O235 O 0.04331 0.58162 0.92754 0.0
H236 H 0.14746 0.13132 0.27005 0.0
H237 H 0.18734 0.25125 0.30491 0.0
H238 H 0.15881 0.23754 0.36405 0.0
H239 H 0.05881 0.11913 0.31137 0.0
H240 H 0.05759 0.0701 0.32321 0.0
H241 H 0.08284 0.08937 0.28469 0.0
H242 H 0.14294 0.07163 0.31131 0.0
H243 H 0.11787 0.05249 0.35002 0.0
H244 H 0.16014 0.08946 0.35606 0.0
H245 H 0.12518 0.20942 0.42091 0.0
H246 H 0.08545 0.17131 0.46598 0.0
H247 H 0.06632 0.07123 0.39205 0.0
C248 C 0.15044 0.15464 0.29023 0.0
C249 C 0.16977 0.19237 0.28274 0.0
C250 C 0.17247 0.22216 0.30981 0.0
C251 C 0.15654 0.21458 0.34364 0.0
C252 C 0.13764 0.17704 0.35014 0.0
C253 C 0.13427 0.14768 0.32394 0.0
C254 C 0.11106 0.11025 0.33678 0.0
C255 C 0.07547 0.09642 0.31258 0.0
C256 C 0.13441 0.07913 0.33865 0.0
C257 C 0.10171 0.12304 0.37417 0.0
C258 C 0.11761 0.16149 0.38181 0.0
C259 C 0.11257 0.17929 0.41503 0.0
C260 C 0.09013 0.15742 0.44062 0.0
C261 C 0.0725 0.11834 0.43261 0.0
C262 C 0.07907 0.10113 0.39905 0.0
H263 H 0.45597 0.95158 0.80648 0.0
H264 H 0.33614 0.92886 0.82352 0.0
H265 H 0.34808 0.9635 0.88198 0.0
H266 H 0.4788 0.9311 0.89717 0.0
H267 H 0.52231 0.96659 0.9004 0.0
H268 H 0.5044 0.94472 0.8572 0.0
H269 H 0.50735 0.01273 0.83274 0.0
H270 H 0.52451 0.03465 0.87625 0.0
H271 H 0.48292 0.04515 0.85535 0.0
H272 H 0.37179 0.99836 0.94025 0.0
H273 H 0.4065 0.01998 0.99817 0.0
H274 H 0.51065 0.01477 0.94789 0.0
C275 C 0.4321 0.95386 0.82227 0.0
C276 C 0.39487 0.93856 0.80877 0.0
C277 C 0.36488 0.94194 0.8314 0.0
C278 C 0.37132 0.96143 0.86521 0.0
C279 C 0.40804 0.97686 0.87711 0.0
C280 C 0.43803 0.97246 0.85682 0.0
C281 C 0.47476 0.98787 0.87803 0.0
C282 C 0.49632 0.95565 0.88354 0.0
C283 C 0.4988 0.02214 0.85947 0.0
C284 C 0.46051 1.00092 0.91344 0.0
C285 C 0.42193 0.99521 0.9119 0.0
C286 C 0.40206 1.0034 0.94168 0.0
C287 C 0.42196 0.01614 0.97437 0.0
C288 C 0.46122 0.02025 0.9771 0.0
C289 C 0.48076 0.01329 0.94604 0.0
H290 H 0.57326 0.38713 0.7217 0.0
H291 H 0.68066 0.44128 0.77345 0.0
H292 H 0.68773 0.49287 0.73025 0.0
H293 H 0.59177 0.42201 0.62847 0.0
H294 H 0.54573 0.43231 0.62261 0.0
H295 H 0.55244 0.39283 0.64944 0.0
H296 H 0.52427 0.41962 0.70482 0.0
H297 H 0.51488 0.45789 0.67832 0.0
H298 H 0.54191 0.46908 0.72024 0.0
H299 H 0.67672 0.54597 0.6938 0.0
H300 H 0.64609 0.59714 0.67314 0.0
H301 H 0.54455 0.51216 0.6462 0.0
C302 C 0.59865 0.40942 0.72372 0.0
C303 C 0.62633 0.40976 0.7513 0.0
C304 C 0.65925 0.43946 0.75232 0.0
C305 C 0.66354 0.46912 0.72775 0.0
C306 C 0.63473 0.46896 0.70221 0.0
C307 C 0.60279 0.43983 0.70016 0.0
C308 C 0.57272 0.44994 0.67571 0.0
C309 C 0.56523 0.4227 0.64201 0.0
C310 C 0.53636 0.44913 0.696 0.0
C311 C 0.59166 0.49062 0.66642 0.0
C312 C 0.62803 0.50044 0.68081 0.0
C313 C 0.64888 0.53832 0.68129 0.0
C314 C 0.63139 0.56728 0.66925 0.0
C315 C 0.59354 0.5582 0.65693 0.0
C316 C 0.57417 0.5193 0.65365 0.0
H317 H 0.84706 0.6656 0.25087 0.0
H318 H 0.87509 0.77889 0.20599 0.0
H319 H 0.89484 0.75023 0.15034 0.0
H320 H 0.92426 0.63465 0.22177 0.0
H321 H 0.90026 0.58516 0.21266 0.0
H322 H 0.88274 0.61436 0.24545 0.0
H323 H 0.81832 0.5988 0.21053 0.0
H324 H 0.83641 0.57052 0.17692 0.0
H325 H 0.81571 0.60984 0.16361 0.0
H326 H 0.92129 0.71121 0.10414 0.0
H327 H 0.95821 0.66766 0.077 0.0
H328 H 0.91012 0.57913 0.14938 0.0
C329 C 0.85692 0.6843 0.22915 0.0
C330 C 0.85926 0.72445 0.23277 0.0
C331 C 0.87243 0.74793 0.20369 0.0
C332 C 0.88357 0.73188 0.17184 0.0
C333 C 0.88091 0.69214 0.1691 0.0
C334 C 0.8679 0.66869 0.19706 0.0
C335 C 0.87186 0.62771 0.1893 0.0
C336 C 0.89625 0.61475 0.21902 0.0
C337 C 0.83327 0.60009 0.18482 0.0
C338 C 0.89126 0.63223 0.15368 0.0
C339 C 0.89538 0.66937 0.14186 0.0
C340 C 0.9173 0.68176 0.11249 0.0
C341 C 0.93777 0.6566 0.09669 0.0
C342 C 0.93635 0.61986 0.11071 0.0
C343 C 0.9106 0.60667 0.13749 0.0
H344 H 0.29556 0.21516 0.16709 0.0
H345 H 0.23023 0.10795 0.20495 0.0
H346 H 0.27879 0.07398 0.18406 0.0
H347 H 0.32552 0.17386 0.08564 0.0
H348 H 0.37076 0.20653 0.08843 0.0
H349 H 0.33075 0.22134 0.10665 0.0
H350 H 0.36611 0.23701 0.16876 0.0
H351 H 0.40618 0.22228 0.15074 0.0
H352 H 0.385 0.20018 0.19022 0.0
H353 H 0.33864 0.05231 0.15887 0.0
H354 H 0.40021 0.04735 0.13428 0.0
H355 H 0.42036 0.16861 0.11022 0.0
C356 C 0.2906 0.18436 0.17042 0.0
C357 C 0.25834 0.16447 0.18749 0.0
C358 C 0.25454 0.12426 0.19223 0.0
C359 C 0.28199 0.10456 0.18017 0.0
C360 C 0.3132 0.12523 0.1631 0.0
C361 C 0.31724 0.16432 0.1582 0.0
C362 C 0.35301 0.1807 0.13954 0.0
C363 C 0.34449 0.19653 0.10289 0.0
C364 C 0.37911 0.21187 0.16377 0.0
C365 C 0.36891 0.14497 0.13481 0.0
C366 C 0.34596 0.11302 0.14849 0.0
C367 C 0.35654 0.07728 0.14794 0.0
C368 C 0.39154 0.07458 0.13371 0.0
C369 C 0.41557 0.10741 0.12009 0.0
C370 C 0.40318 0.14264 0.12027 0.0
H371 H 0.18779 0.88875 0.62382 0.0
H372 H 0.28972 0.97711 0.64323 0.0
H373 H 0.26515 0.01899 0.60222 0.0
H374 H 0.16265 0.91488 0.52933 0.0
H375 H 0.11369 0.90695 0.53922 0.0
H376 H 0.14312 0.87864 0.56037 0.0
H377 H 0.12393 0.89951 0.6234 0.0
H378 H 0.09437 0.92736 0.60241 0.0
H379 H 0.13024 0.95021 0.63533 0.0
H380 H 0.22597 0.0567 0.57103 0.0
H381 H 0.17401 0.08853 0.5571 0.0
H382 H 0.09474 0.97915 0.56108 0.0
C383 C 0.20541 0.91664 0.61919 0.0
C384 C 0.24102 0.92915 0.63717 0.0
C385 C 0.2629 0.96588 0.62949 0.0
C386 C 0.24904 0.99018 0.60613 0.0
C387 C 0.21312 0.97767 0.59054 0.0
C388 C 0.1915 0.94172 0.59679 0.0
C389 C 0.15146 0.93793 0.58246 0.0
C390 C 0.1422 0.90781 0.55097 0.0
C391 C 0.12338 0.92822 0.6127 0.0
C392 C 0.15332 0.97828 0.56941 0.0
C393 C 0.18956 1.00022 0.57308 0.0
C394 C 0.19774 0.0396 0.56711 0.0
C395 C 0.16807 0.05745 0.55911 0.0
C396 C 0.13061 0.03607 0.55733 0.0
C397 C 0.12329 0.99573 0.56091 0.0
H398 H 0.80538 0.36676 0.88466 0.0
H399 H 0.71517 0.40715 0.93566 0.0
H400 H 0.76146 0.45662 0.97145 0.0
H401 H 0.87138 0.38253 0.96194 0.0
H402 H 0.91154 0.39925 0.93519 0.0
H403 H 0.87145 0.36518 0.91573 0.0
H404 H 0.8661 0.41126 0.86407 0.0
H405 H 0.90644 0.44512 0.8831 0.0
H406 H 0.86305 0.4603 0.87506 0.0
H407 H 0.81819 0.50192 1.0017 0.0
H408 H 0.88011 0.54517 1.017 0.0
H409 H 0.93233 0.4777 0.94304 0.0
C410 C 0.79557 0.38604 0.90346 0.0
C411 C 0.75694 0.38339 0.90759 0.0
C412 C 0.74481 0.4091 0.93214 0.0
C413 C 0.77084 0.43697 0.95275 0.0
C414 C 0.80888 0.43889 0.94822 0.0
C415 C 0.82119 0.41449 0.92375 0.0
C416 C 0.86343 0.4244 0.92195 0.0
C417 C 0.88044 0.39084 0.93445 0.0
C418 C 0.87545 0.43597 0.88379 0.0
C419 C 0.87292 0.45851 0.94874 0.0
C420 C 0.84123 0.46591 0.96433 0.0
C421 C 0.8432 0.49636 0.9897 0.0
C422 C 0.87839 0.52058 0.99845 0.0
C423 C 0.9107 0.5145 0.98125 0.0
C424 C 0.90792 0.48272 0.95665 0.0
H425 H 0.75858 0.71283 0.41447 0.0
H426 H 0.83192 0.66507 0.48545 0.0
H427 H 0.77957 0.64469 0.52602 0.0
H428 H 0.70595 0.74771 0.48148 0.0
H429 H 0.66202 0.73429 0.45605 0.0
H430 H 0.70535 0.74577 0.43288 0.0
H431 H 0.68918 0.67931 0.39814 0.0
H432 H 0.64536 0.66814 0.42041 0.0
H433 H 0.6772 0.63593 0.42303 0.0
H434 H 0.71873 0.63107 0.5598 0.0
H435 H 0.65257 0.61567 0.57799 0.0
H436 H 0.6199 0.66954 0.4828 0.0
C437 C 0.76365 0.69728 0.43802 0.0
C438 C 0.79957 0.69071 0.4467 0.0
C439 C 0.80481 0.67094 0.47839 0.0
C440 C 0.77527 0.65932 0.50167 0.0
C441 C 0.74057 0.66738 0.49275 0.0
C442 C 0.73451 0.68517 0.46127 0.0
C443 C 0.69433 0.68909 0.45688 0.0
C444 C 0.69179 0.73176 0.45683 0.0
C445 C 0.6754 0.66677 0.4226 0.0
C446 C 0.67853 0.67041 0.49067 0.0
C447 C 0.70568 0.65869 0.51147 0.0
C448 C 0.69727 0.64016 0.54373 0.0
C449 C 0.6598 0.63193 0.55409 0.0
C450 C 0.63148 0.64177 0.53187 0.0
C451 C 0.64122 0.66209 0.50038 0.0
H452 H 0.16265 0.40117 0.17948 0.0
H453 H 0.12441 0.30832 0.09963 0.0
H454 H 0.08303 0.34676 0.07071 0.0
H455 H 0.0735 0.43261 0.18695 0.0
H456 H 0.09717 0.48262 0.19246 0.0
H457 H 0.11984 0.44555 0.20789 0.0
H458 H 0.17654 0.47243 0.16896 0.0
H459 H 0.15373 0.50902 0.15281 0.0
H460 H 0.1691 0.47658 0.12117 0.0
H461 H 0.04963 0.40089 0.04736 0.0
H462 H 0.02448 0.45971 0.03713 0.0
H463 H 0.08724 0.51506 0.13258 0.0
C464 C 0.14467 0.38841 0.15655 0.0
C465 C 0.14627 0.35148 0.14216 0.0
C466 C 0.12298 0.33617 0.11161 0.0
C467 C 0.09973 0.35807 0.09479 0.0
C468 C 0.09995 0.39517 0.10897 0.0
C469 C 0.12152 0.40974 0.13963 0.0
C470 C 0.11841 0.45062 0.14923 0.0
C471 C 0.10119 0.45297 0.18633 0.0
C472 C 0.15672 0.4788 0.14795 0.0
C473 C 0.09199 0.45723 0.11915 0.0
C474 C 0.08148 0.42525 0.09591 0.0
C475 C 0.05764 0.42585 0.0657 0.0
C476 C 0.04376 0.45955 0.05979 0.0
C477 C 0.05381 0.49218 0.08395 0.0
C478 C 0.07856 0.49062 0.11366 0.0
H479 H 0.70944 0.27117 0.95489 0.0
H480 H 0.6547 0.21465 0.85611 0.0
H481 H 0.62265 0.16021 0.89095 0.0
H482 H 0.71408 0.17602 1.00301 0.0
H483 H 0.70643 0.19922 0.04522 0.0
H484 H 0.73355 0.22678 1.01144 0.0
H485 H 0.68967 0.27506 1.01349 0.0
H486 H 0.66232 0.24772 0.04655 0.0
H487 H 0.63999 0.25743 1.00497 0.0
H488 H 0.5833 0.12274 0.93798 0.0
H489 H 0.54375 0.10762 0.99102 0.0
H490 H 0.62741 0.18601 0.05786 0.0
C491 C 0.69265 0.24649 0.93996 0.0
C492 C 0.68441 0.24785 0.90267 0.0
C493 C 0.661 0.215 0.8848 0.0
C494 C 0.64296 0.18355 0.90435 0.0
C495 C 0.64958 0.18461 0.94162 0.0
C496 C 0.67491 0.21486 0.95901 0.0
C497 C 0.67307 0.21279 0.99952 0.0
C498 C 0.70891 0.20311 1.01574 0.0
C499 C 0.66577 0.25043 1.01708 0.0
C500 C 0.64 0.17934 1.00223 0.0
C501 C 0.6275 0.16229 0.96875 0.0
C502 C 0.59362 0.13492 0.96441 0.0
C503 C 0.5713 0.12636 0.99461 0.0
C504 C 0.58295 0.14567 0.02822 0.0
C505 C 0.61843 0.17061 0.03233 0.0
H506 H 0.88443 0.79432 0.48507 0.0
H507 H 0.96884 0.77438 0.41188 0.0
H508 H 0.01473 0.82816 0.44259 0.0
H509 H 0.89926 0.88609 0.47903 0.0
H510 H 0.89117 0.89903 0.52509 0.0
H511 H 0.87066 0.85178 0.50695 0.0
H512 H 0.90244 0.82252 0.55924 0.0
H513 H 0.92377 0.87035 0.57711 0.0
H514 H 0.95251 0.83631 0.56697 0.0
H515 H 0.04531 0.8918 0.46946 0.0
H516 H 0.0516 0.96179 0.47874 0.0
H517 H 0.94796 0.94255 0.53456 0.0
C518 C 0.91315 0.79993 0.47679 0.0
C519 C 0.92334 0.77971 0.4466 0.0
C520 C 0.96061 0.78924 0.43523 0.0
C521 C 0.98693 0.81944 0.45288 0.0
C522 C 0.9756 0.83978 0.48191 0.0
C523 C 0.93939 0.83025 0.49378 0.0
C524 C 0.93128 0.86122 0.51948 0.0
C525 C 0.8961 0.87537 0.50681 0.0
C526 C 0.92728 0.84672 0.55798 0.0
C527 C 0.96689 0.89182 0.51683 0.0
C528 C 0.99313 0.87795 0.49699 0.0
C529 C 0.02551 0.9026 0.48583 0.0
C530 C 0.0292 0.94247 0.49163 0.0
C531 C 1.00027 0.95707 0.50759 0.0
C532 C 0.97082 0.9316 0.52335 0.0
H533 H 0.38148 0.80697 0.68515 0.0
H534 H 0.47828 0.89676 0.71853 0.0
H535 H 0.51959 0.85864 0.69001 0.0
H536 H 0.42174 0.72815 0.70084 0.0
H537 H 0.39889 0.6993 0.66235 0.0
H538 H 0.37734 0.73509 0.68311 0.0
H539 H 0.3744 0.76659 0.62142 0.0
H540 H 0.39654 0.73111 0.60061 0.0
H541 H 0.41679 0.78178 0.59733 0.0
H542 H 0.55064 0.80792 0.66247 0.0
H543 H 0.56851 0.7475 0.64206 0.0
H544 H 0.45159 0.69276 0.6231 0.0
C545 C 0.41128 0.81921 0.68582 0.0
C546 C 0.42645 0.85525 0.704 0.0
C547 C 0.46583 0.86923 0.70511 0.0
C548 C 0.48953 0.84795 0.68859 0.0
C549 C 0.47353 0.81278 0.67066 0.0
C550 C 0.43526 0.79853 0.66922 0.0
C551 C 0.42517 0.75887 0.65034 0.0
C552 C 0.40459 0.72858 0.67568 0.0
C553 C 0.40184 0.75966 0.61535 0.0
C554 C 0.46381 0.75242 0.64227 0.0
C555 C 0.49136 0.78408 0.65382 0.0
C556 C 0.52931 0.78343 0.65249 0.0
C557 C 0.53927 0.74915 0.6405 0.0
C558 C 0.5115 0.71613 0.62958 0.0
C559 C 0.47338 0.71824 0.62953 0.0
H560 H 0.95778 0.94951 0.80729 0.0
H561 H 0.84732 0.89524 0.76293 0.0
H562 H 0.86478 0.92113 0.70338 0.0
H563 H 0.96624 0.03627 0.75995 0.0
H564 H 0.01565 0.042 0.75295 0.0
H565 H 0.99527 0.01687 0.79126 0.0
H566 H 0.02105 0.9572 0.77153 0.0
H567 H 0.04156 0.98222 0.73314 0.0
H568 H 1.00977 0.93589 0.72671 0.0
H569 H 0.89467 0.95495 0.64764 0.0
H570 H 0.93297 0.99569 0.60341 0.0
H571 H 0.02261 0.02897 0.68512 0.0
C572 C 0.93748 0.94264 0.78491 0.0
C573 C 0.90114 0.92022 0.78995 0.0
C574 C 0.87524 0.9125 0.75994 0.0
C575 C 0.88497 0.92697 0.72587 0.0
C576 C 0.9208 0.94943 0.72189 0.0
C577 C 0.94661 0.95729 0.7507 0.0
C578 C 0.98259 0.98371 0.73982 0.0
C579 C 0.99038 0.02197 0.76233 0.0
C580 C 0.0157 0.96354 0.74299 0.0
C581 C 0.97293 0.98976 0.70064 0.0
C582 C 0.93736 0.96947 0.6905 0.0
C583 C 0.92259 0.97098 0.65543 0.0
C584 C 0.94455 0.99417 0.63037 0.0
C585 C 0.98079 0.016 0.64054 0.0
C586 C 0.99495 0.0131 0.6762 0.0
H587 H 0.60331 0.15946 0.36439 0.0
H588 H 0.72019 0.16656 0.33985 0.0
H589 H 0.70061 0.13952 0.27892 0.0
H590 H 0.56141 0.07446 0.30966 0.0
H591 H 0.52223 0.09369 0.29424 0.0
H592 H 0.54455 0.10896 0.33782 0.0
H593 H 0.55623 0.18043 0.32022 0.0
H594 H 0.53338 0.1654 0.2769 0.0
H595 H 0.58034 0.19458 0.27955 0.0
H596 H 0.66837 0.11229 0.21928 0.0
H597 H 0.62743 0.09826 0.16384 0.0
H598 H 0.5334 0.11747 0.22456 0.0
C599 C 0.62519 0.1559 0.34649 0.0
C600 C 0.66358 0.16479 0.35815 0.0
C601 C 0.69053 0.15885 0.33292 0.0
C602 C 0.6797 0.14363 0.29781 0.0
C603 C 0.64178 0.13508 0.28759 0.0
C604 C 0.61503 0.14185 0.31096 0.0
C605 C 0.57653 0.134 0.2922 0.0
C606 C 0.5496 0.1008 0.30952 0.0
C607 C 0.5607 0.17079 0.29221 0.0
C608 C 0.58589 0.1222 0.2545 0.0
C609 C 0.62353 0.12197 0.25264 0.0
C610 C 0.63885 0.1123 0.22049 0.0
C611 C 0.61539 0.10402 0.18922 0.0
C612 C 0.57729 0.10617 0.19021 0.0
C613 C 0.56232 0.11488 0.22336 0.0
H614 H 0.40698 0.73407 0.38953 0.0
H615 H 0.29885 0.6617 0.40815 0.0
H616 H 0.32113 0.64835 0.46863 0.0
H617 H 0.45677 0.67785 0.41506 0.0
H618 H 0.49557 0.71081 0.438 0.0
H619 H 0.46778 0.72825 0.4048 0.0
H620 H 0.45389 0.77877 0.45139 0.0
H621 H 0.48205 0.76133 0.48504 0.0
H622 H 0.43432 0.76342 0.49382 0.0
H623 H 0.35931 0.62286 0.51213 0.0
H624 H 0.40844 0.59075 0.53399 0.0
H625 H 0.49326 0.68128 0.49332 0.0
C626 C 0.38747 0.71778 0.40761 0.0
C627 C 0.35113 0.69954 0.39477 0.0
C628 C 0.32654 0.67662 0.41802 0.0
C629 C 0.33907 0.66889 0.45245 0.0
C630 C 0.37622 0.6846 0.46344 0.0
C631 C 0.3999 0.70958 0.44206 0.0
C632 C 0.44017 0.71614 0.45633 0.0
C633 C 0.46653 0.70768 0.42681 0.0
C634 C 0.45337 0.75737 0.47262 0.0
C635 C 0.43612 0.68697 0.48567 0.0
C636 C 0.3988 0.67032 0.49053 0.0
C637 C 0.38846 0.63707 0.51025 0.0
C638 C 0.41657 0.61914 0.52326 0.0
C639 C 0.45454 0.63485 0.51713 0.0
C640 C 0.46441 0.6702 0.49999 0.0
H641 H 0.18351 0.47511 0.8506 0.0
H642 H 0.13118 0.37171 0.90448 0.0
H643 H 0.1108 0.41167 0.95184 0.0
H644 H 0.20818 0.54125 0.93427 0.0
H645 H 0.19602 0.58092 0.91117 0.0
H646 H 0.21509 0.54537 0.88657 0.0
H647 H 0.15749 0.53213 0.84183 0.0
H648 H 0.13883 0.56797 0.86587 0.0
H649 H 0.11111 0.51955 0.8592 0.0
H650 H 0.08409 0.45989 0.98495 0.0
H651 H 0.04992 0.51098 0.99703 0.0
H652 H 0.11955 0.58491 0.9247 0.0
C653 C 0.16837 0.46083 0.87269 0.0
C654 C 0.15941 0.42011 0.87377 0.0
C655 C 0.1394 0.40278 0.90326 0.0
C656 C 0.12763 0.42531 0.93045 0.0
C657 C 0.13615 0.46529 0.92809 0.0
C658 C 0.15611 0.48293 0.89993 0.0
C659 C 0.15652 0.52569 0.90048 0.0
C660 C 0.19633 0.54972 0.90862 0.0
C661 C 0.13997 0.53695 0.86476 0.0
C662 C 0.13142 0.52877 0.93174 0.0
C663 C 0.121 0.49385 0.9481 0.0
C664 C 0.09339 0.48789 0.9737 0.0
C665 C 0.07459 0.51755 0.98131 0.0
C666 C 0.08366 0.55279 0.96376 0.0
C667 C 0.11349 0.55892 0.93987 0.0
H668 H 0.69209 0.95357 0.89799 0.0
H669 H 0.78148 0.95068 0.97642 0.0
H670 H 0.75242 0.98851 1.0202 0.0
H671 H 0.67564 0.05107 0.92619 0.0
H672 H 0.62575 0.03491 0.9184 0.0
H673 H 0.65747 0.01463 0.89138 0.0
H674 H 0.62472 0.94591 0.90912 0.0
H675 H 0.593 0.96603 0.93591 0.0
H676 H 0.62059 0.93543 0.95619 0.0
H677 H 0.70706 0.01669 0.05886 0.0
H678 H 0.65087 0.03144 0.08735 0.0
H679 H 0.59183 0.01586 0.98345 0.0
C680 C 0.70611 0.96166 0.92409 0.0
C681 C 0.73918 0.94909 0.93369 0.0
C682 C 0.75649 0.96034 0.96818 0.0
C683 C 0.74005 0.98177 0.99328 0.0
C684 C 0.70653 0.99229 0.98338 0.0
C685 C 0.69006 0.98291 0.94932 0.0
C686 C 0.65225 0.99382 0.94622 0.0
C687 C 0.65284 0.0255 0.91892 0.0
C688 C 0.62081 0.95818 0.93631 0.0
C689 C 0.64906 0.00919 0.9843 0.0
C690 C 0.68087 0.00881 1.00532 0.0
C691 C 0.68254 0.01811 0.04236 0.0
C692 C 0.65065 0.02676 0.05835 0.0
C693 C 0.61763 0.02609 0.03732 0.0
C694 C 0.61732 0.01811 0.99979 0.0
H695 H 0.74456 0.11839 0.44297 0.0
H696 H 0.77321 0.23335 0.49349 0.0
H697 H 0.83203 0.21932 0.51905 0.0
H698 H 0.78324 0.06896 0.51434 0.0
H699 H 0.79965 0.03711 0.48287 0.0
H700 H 0.75883 0.05558 0.47135 0.0
H701 H 0.78965 0.08303 0.41304 0.0
H702 H 0.83039 0.06447 0.42427 0.0
H703 H 0.83526 0.11503 0.41622 0.0
H704 H 0.89115 0.19283 0.53562 0.0
H705 H 0.943 0.15769 0.53948 0.0
H706 H 0.87358 0.06119 0.47776 0.0
C707 C 0.76311 0.14074 0.45939 0.0
C708 C 0.7542 0.17711 0.46597 0.0
C709 C 0.77918 0.20515 0.48822 0.0
C710 C 0.81274 0.19745 0.50281 0.0
C711 C 0.82089 0.1614 0.49524 0.0
C712 C 0.79652 0.13353 0.47411 0.0
C713 C 0.812 0.09769 0.46846 0.0
C714 C 0.78694 0.06278 0.48526 0.0
C715 C 0.81714 0.08961 0.42811 0.0
C716 C 0.8493 0.10987 0.48896 0.0
C717 C 0.85408 0.14651 0.50463 0.0
C718 C 0.88741 0.16397 0.52367 0.0
C719 C 0.9167 0.14376 0.52594 0.0
C720 C 0.91253 0.10666 0.50897 0.0
C721 C 0.87792 0.08951 0.49106 0.0
H722 H 0.22838 0.78061 0.20393 0.0
H723 H 0.30961 0.72246 0.15805 0.0
H724 H 0.26436 0.69516 0.10789 0.0
H725 H 0.15446 0.70518 0.19209 0.0
H726 H 0.1197 0.73277 0.18196 0.0
H727 H 0.16111 0.75468 0.20844 0.0
H728 H 0.17596 0.80941 0.1631 0.0
H729 H 0.13454 0.78725 0.13621 0.0
H730 H 0.17961 0.79741 0.11596 0.0
H731 H 0.20736 0.66641 0.0686 0.0
H732 H 0.14282 0.63349 0.04853 0.0
H733 H 0.09839 0.70872 0.12138 0.0
C734 C 0.23686 0.76324 0.1825 0.0
C735 C 0.27237 0.75403 0.18411 0.0
C736 C 0.28252 0.73013 0.15664 0.0
C737 C 0.25711 0.71478 0.12805 0.0
C738 C 0.22176 0.72369 0.12745 0.0
C739 C 0.21165 0.74738 0.15407 0.0
C740 C 0.17043 0.7477 0.15063 0.0
C741 C 0.15026 0.73425 0.18531 0.0
C742 C 0.16482 0.78783 0.14089 0.0
C743 C 0.1584 0.71873 0.11939 0.0
C744 C 0.18855 0.70619 0.10544 0.0
C745 C 0.18365 0.67664 0.07873 0.0
C746 C 0.14696 0.65825 0.06726 0.0
C747 C 0.11593 0.66904 0.08318 0.0
C748 C 0.12184 0.70061 0.10835 0.0
H749 H 0.27909 0.43897 0.71998 0.0
H750 H 0.21252 0.47943 0.63685 0.0
H751 H 0.27021 0.51917 0.61369 0.0
H752 H 0.34436 0.53104 0.7377 0.0
H753 H 0.38363 0.50892 0.74585 0.0
H754 H 0.33703 0.48356 0.75559 0.0
H755 H 0.34514 0.42576 0.71438 0.0
H756 H 0.3916 0.45107 0.7042 0.0
H757 H 0.35741 0.43362 0.66815 0.0
H758 H 0.3354 0.55261 0.59825 0.0
H759 H 0.40304 0.5812 0.59465 0.0
H760 H 0.42635 0.52198 0.68984 0.0
C761 C 0.27634 0.45673 0.69736 0.0
C762 C 0.24105 0.45588 0.68024 0.0
C763 C 0.23917 0.47902 0.65014 0.0
C764 C 0.27178 0.50187 0.63688 0.0
C765 C 0.30603 0.50161 0.65423 0.0
C766 C 0.30847 0.48004 0.68409 0.0
C767 C 0.34866 0.48512 0.69804 0.0
C768 C 0.35371 0.50325 0.73658 0.0
C769 C 0.36144 0.4466 0.69606 0.0
C770 C 0.36852 0.5128 0.67121 0.0
C771 C 0.34344 0.52168 0.64596 0.0
C772 C 0.35524 0.54589 0.6179 0.0
C773 C 0.39366 0.56163 0.61577 0.0
C774 C 0.4197 0.55335 0.6416 0.0
C775 C 0.40691 0.52877 0.66977 0.0
H776 H 0.86943 0.79475 0.90191 0.0
H777 H 0.97067 0.88451 0.90323 0.0
H778 H 1.00409 0.8434 0.93863 0.0
H779 H 0.88196 0.75925 0.99157 0.0
H780 H 0.86433 0.70941 0.97744 0.0
H781 H 0.84776 0.74692 0.95471 0.0
H782 H 0.86742 0.72195 0.89342 0.0
H783 H 0.88342 0.68406 0.9159 0.0
H784 H 0.91492 0.71642 0.88867 0.0
H785 H 0.0269 0.7909 0.97309 0.0
H786 H 0.03904 0.72953 0.99537 0.0
H787 H 0.92371 0.67326 0.9694 0.0
C788 C 0.89854 0.80594 0.91001 0.0
C789 C 0.91732 0.84315 0.90011 0.0
C790 C 0.95568 0.85623 0.9105 0.0
C791 C 0.97478 0.83313 0.93088 0.0
C792 C 0.95533 0.79672 0.94047 0.0
C793 C 0.91815 0.78302 0.92986 0.0
C794 C 0.90437 0.74176 0.94104 0.0
C795 C 0.87272 0.7392 0.96778 0.0
C796 C 0.89181 0.71444 0.90778 0.0
C797 C 0.93962 0.7341 0.95932 0.0
C798 C 0.96856 0.7664 0.95936 0.0
C799 C 1.00424 0.76568 0.97353 0.0
C800 C 1.01083 0.73082 0.9866 0.0
C801 C 0.98202 0.69701 0.98537 0.0
C802 C 0.94585 0.69904 0.97206 0.0
H803 H 0.33069 0.8828 0.22378 0.0
H804 H 0.41752 0.83588 0.27658 0.0
H805 H 0.46376 0.89418 0.26401 0.0
H806 H 0.37616 0.90249 0.15134 0.0
H807 H 0.3612 0.94608 0.14042 0.0
H808 H 0.33271 0.9116 0.16748 0.0
H809 H 0.33471 0.96492 0.21737 0.0
H810 H 0.36407 0.99956 0.19033 0.0
H811 H 0.3792 0.99205 0.23564 0.0
H812 H 0.50309 0.94439 0.23096 0.0
H813 H 0.53053 0.97385 0.17618 0.0
H814 H 0.42128 0.98514 0.13715 0.0
C815 C 0.35928 0.88512 0.23354 0.0
C816 C 0.37013 0.85417 0.25096 0.0
C817 C 0.40781 0.85903 0.2638 0.0
C818 C 0.43456 0.89236 0.25669 0.0
C819 C 0.42353 0.9207 0.23645 0.0
C820 C 0.38657 0.9174 0.22508 0.0
C821 C 0.38319 0.9458 0.19619 0.0
C822 C 0.36215 0.92524 0.16186 0.0
C823 C 0.36416 0.97746 0.21077 0.0
C824 C 0.42423 0.96217 0.19 0.0
C825 C 0.44696 0.94933 0.21522 0.0
C826 C 0.48568 0.95565 0.21184 0.0
C827 C 0.50117 0.97265 0.18071 0.0
C828 C 0.47794 0.98259 0.15324 0.0
C829 C 0.43953 0.97942 0.15882 0.0
H830 H 0.16564 0.34508 0.61785 0.0
H831 H 0.07206 0.36182 0.68042 0.0
H832 H 0.02938 0.31246 0.64168 0.0
H833 H 0.10874 0.31401 0.52675 0.0
H834 H 0.13696 0.27923 0.51759 0.0
H835 H 0.15751 0.32449 0.54113 0.0
H836 H 0.17963 0.28784 0.59395 0.0
H837 H 0.16002 0.24312 0.57023 0.0
H838 H 0.14576 0.25172 0.61533 0.0
H839 H 1.00105 0.25147 0.60901 0.0
H840 H 0.99337 0.18224 0.59369 0.0
H841 H 0.10339 0.20358 0.54978 0.0
C842 C 0.13586 0.33968 0.62214 0.0
C843 C 0.12205 0.3575 0.65181 0.0
C844 C 0.08316 0.34858 0.6577 0.0
C845 C 0.05866 0.3209 0.63551 0.0
C846 C 0.07336 0.30249 0.6073 0.0
C847 C 0.11118 0.31177 0.60043 0.0
C848 C 0.12146 0.28276 0.57385 0.0
C849 C 0.13177 0.30123 0.53768 0.0
C850 C 0.15352 0.26532 0.58931 0.0
C851 C 0.08458 0.25337 0.57005 0.0
C852 C 0.05659 0.26629 0.58795 0.0
C853 C 0.02224 0.24156 0.59386 0.0
C854 C 0.01775 0.20216 0.58454 0.0
C855 C 0.04765 0.18801 0.57006 0.0
C856 C 0.07978 0.21429 0.5596 0.0
H857 H 0.54389 0.30465 0.49323 0.0
H858 H 0.65948 0.33188 0.53323 0.0
H859 H 0.6524 0.3973 0.55318 0.0
H860 H 0.54286 0.39874 0.45949 0.0
H861 H 0.49526 0.39696 0.47187 0.0
H862 H 0.51015 0.35296 0.46093 0.0
H863 H 0.48804 0.32677 0.52281 0.0
H864 H 0.47362 0.37099 0.5341 0.0
H865 H 0.50628 0.3543 0.5636 0.0
H866 H 0.63114 0.45925 0.57092 0.0
H867 H 0.60023 0.51441 0.57842 0.0
H868 H 0.49942 0.44695 0.52452 0.0
C869 C 0.5678 0.32448 0.50601 0.0
C870 C 0.60226 0.3132 0.51178 0.0
C871 C 0.63297 0.34006 0.5283 0.0
C872 C 0.62905 0.3771 0.53998 0.0
C873 C 0.59436 0.38694 0.53461 0.0
C874 C 0.56447 0.36153 0.51748 0.0
C875 C 0.5304 0.37923 0.51409 0.0
C876 C 0.51901 0.38216 0.47423 0.0
C877 C 0.49765 0.35645 0.53489 0.0
C878 C 0.54565 0.41869 0.53196 0.0
C879 C 0.58246 0.42248 0.54405 0.0
C880 C 0.60236 0.45648 0.56151 0.0
C881 C 0.5844 0.48747 0.56616 0.0
C882 C 0.5472 0.48459 0.55275 0.0
C883 C 0.52763 0.44963 0.53563 0.0
loop_
_geom_bond_atom_site_label_1
_geom_bond_atom_site_label_2
_geom_bond_distance
_geom_bond_site_symmetry_2
_ccdc_geom_bond_type
H0 C1 0.949 . S
C1 H0 0.949 . S
C1 C2 1.395 . S
C1 C3 1.391 . S
C2 C1 1.395 . S
C2 C5 1.390 . S
C3 C1 1.391 . S
C3 C7 1.387 . S
C3 C8 1.491 . S
H4 C5 0.950 . S
C5 C2 1.390 . S
C5 H4 0.950 . S
C5 C6 1.378 . S
C6 C5 1.378 . S
C6 C7 1.409 . S
C7 C3 1.387 . S
C7 C6 1.409 . S
C7 H9 0.951 . S
C8 C3 1.491 . S
C8 C10 1.382 . S
C8 C12 1.404 . S
H9 C7 0.951 . S
C10 C8 1.382 . S
C10 C11 1.390 . S
C10 H15 0.949 . S
C11 C10 1.390 . S
C11 C16 1.399 . S
C12 C8 1.404 . S
C12 H13 0.950 . S
C12 C14 1.375 . S
H13 C12 0.950 . S
C14 C12 1.375 . S
C14 C16 1.382 . S
C14 H18 0.950 . S
H15 C10 0.949 . S
C16 C11 1.399 . S
C16 C14 1.382 . S
C16 H17 0.952 . S
H17 C16 0.952 . S
H18 C14 0.950 . S
H19 C20 0.949 . S
C20 H19 0.949 . S
C20 C21 1.395 . S
C20 C22 1.391 . S
C21 C20 1.395 . S
C21 C24 1.390 . S
C22 C20 1.391 . S
C22 C26 1.387 . S
C22 C27 1.491 . S
H23 C24 0.950 . S
C24 C21 1.390 . S
C24 H23 0.950 . S
C24 C25 1.378 . S
C25 C24 1.378 . S
C25 C26 1.409 . S
C26 C22 1.387 . S
C26 C25 1.409 . S
C26 H28 0.951 . S
C27 C22 1.491 . S
C27 C29 1.382 . S
C27 C31 1.404 . S
H28 C26 0.951 . S
C29 C27 1.382 . S
C29 C30 1.390 . S
C29 H34 0.949 . S
C30 C29 1.390 . S
C30 C35 1.399 . S
C31 C27 1.404 . S
C31 H32 0.950 . S
C31 C33 1.375 . S
H32 C31 0.950 . S
C33 C31 1.375 . S
C33 C35 1.382 . S
C33 H37 0.950 . S
H34 C29 0.949 . S
C35 C30 1.399 . S
C35 C33 1.382 . S
C35 H36 0.952 . S
H36 C35 0.952 . S
H37 C33 0.950 . S
H38 C39 0.949 . S
C39 H38 0.949 . S
C39 C40 1.395 . S
C39 C41 1.391 . S
C40 C39 1.395 . S
C40 C43 1.390 . S
C41 C39 1.391 . S
C41 C45 1.387 . S
C41 C46 1.491 . S
H42 C43 0.950 . S
C43 C40 1.390 . S
C43 H42 0.950 . S
C43 C44 1.378 . S
C44 C43 1.378 . S
C44 C45 1.409 . S
C45 C41 1.387 . S
C45 C44 1.409 . S
C45 H47 0.951 . S
C46 C41 1.491 . S
C46 C48 1.382 . S
C46 C50 1.404 . S
H47 C45 0.951 . S
C48 C46 1.382 . S
C48 C49 1.390 . S
C48 H53 0.949 . S
C49 C48 1.390 . S
C49 C54 1.399 . S
C50 C46 1.404 . S
C50 H51 0.950 . S
C50 C52 1.375 . S
H51 C50 0.950 . S
C52 C50 1.375 . S
C52 C54 1.382 . S
C52 H56 0.950 . S
H53 C48 0.949 . S
C54 C49 1.399 . S
C54 C52 1.382 . S
C54 H55 0.952 . S
H55 C54 0.952 . S
H56 C52 0.950 . S
H57 C58 0.949 . S
C58 H57 0.949 . S
C58 C59 1.395 . S
C58 C60 1.391 . S
C59 C58 1.395 . S
C59 C62 1.390 . S
C60 C58 1.391 . S
C60 C64 1.387 . S
C60 C65 1.491 . S
H61 C62 0.950 . S
C62 C59 1.390 . S
C62 H61 0.950 . S
C62 C63 1.378 . S
C63 C62 1.378 . S
C63 C64 1.409 . S
C64 C60 1.387 . S
C64 C63 1.409 . S
C64 H66 0.951 . S
C65 C60 1.491 . S
C65 C67 1.382 . S
C65 C69 1.404 . S
H66 C64 0.951 . S
C67 C65 1.382 . S
C67 C68 1.390 . S
C67 H72 0.949 . S
C68 C67 1.390 . S
C68 C73 1.399 . S
C69 C65 1.404 . S
C69 H70 0.950 . S
C69 C71 1.375 . S
H70 C69 0.950 . S
C71 C69 1.375 . S
C71 C73 1.382 . S
C71 H75 0.950 . S
H72 C67 0.949 . S
C73 C68 1.399 . S
C73 C71 1.382 . S
C73 H74 0.952 . S
H74 C73 0.952 . S
H75 C71 0.950 . S
H76 C77 0.949 . S
C77 H76 0.949 . S
C77 C78 1.395 . S
C77 C79 1.391 . S
C78 C77 1.395 . S
C78 C81 1.390 . S
C79 C77 1.391 . S
C79 C83 1.387 . S
C79 C84 1.491 . S
H80 C81 0.950 . S
C81 C78 1.390 . S
C81 H80 0.950 . S
C81 C82 1.378 . S
C82 C81 1.378 . S
C82 C83 1.409 . S
C83 C79 1.387 . S
C83 C82 1.409 . S
C83 H85 0.951 . S
C84 C79 1.491 . S
C84 C86 1.382 . S
C84 C88 1.404 . S
H85 C83 0.951 . S
C86 C84 1.382 . S
C86 C87 1.390 . S
C86 H91 0.949 . S
C87 C86 1.390 . S
C87 C92 1.399 . S
C88 C84 1.404 . S
C88 H89 0.950 . S
C88 C90 1.375 . S
H89 C88 0.950 . S
C90 C88 1.375 . S
C90 C92 1.382 . S
C90 H94 0.950 . S
H91 C86 0.949 . S
C92 C87 1.399 . S
C92 C90 1.382 . S
C92 H93 0.952 . S
H93 C92 0.952 . S
H94 C90 0.950 . S
H95 C96 0.949 . S
C96 H95 0.949 . S
C96 C97 1.395 . S
C96 C98 1.391 . S
C97 C96 1.395 . S
C97 C100 1.390 . S
C98 C96 1.391 . S
C98 C102 1.387 . S
C98 C103 1.491 . S
H99 C100 0.950 . S
C100 C97 1.390 . S
C100 H99 0.950 . S
C100 C101 1.378 . S
C101 C100 1.378 . S
C101 C102 1.409 . S
C102 C98 1.387 . S
C102 C101 1.409 . S
C102 H104 0.951 . S
C103 C98 1.491 . S
C103 C105 1.382 . S
C103 C107 1.404 . S
H104 C102 0.951 . S
C105 C103 1.382 . S
C105 C106 1.390 . S
C105 H110 0.949 . S
C106 C105 1.390 . S
C106 C111 1.399 . S
C107 C103 1.404 . S
C107 H108 0.950 . S
C107 C109 1.375 . S
H108 C107 0.950 . S
C109 C107 1.375 . S
C109 C111 1.382 . S
C109 H113 0.950 . S
H110 C105 0.949 . S
C111 C106 1.399 . S
C111 C109 1.382 . S
C111 H112 0.952 . S
H112 C111 0.952 . S
H113 C109 0.950 . S
H114 C115 0.949 . S
C115 H114 0.949 . S
C115 C116 1.395 . S
C115 C117 1.391 . S
C116 C115 1.395 . S
C116 C119 1.390 . S
C117 C115 1.391 . S
C117 C121 1.387 . S
C117 C122 1.491 . S
H118 C119 0.950 . S
C119 C116 1.390 . S
C119 H118 0.950 . S
C119 C120 1.378 . S
C120 C119 1.378 . S
C120 C121 1.409 . S
C121 C117 1.387 . S
C121 C120 1.409 . S
C121 H123 0.951 . S
C122 C117 1.491 . S
C122 C124 1.382 . S
C122 C126 1.404 . S
H123 C121 0.951 . S
C124 C122 1.382 . S
C124 C125 1.390 . S
C124 H129 0.949 . S
C125 C124 1.390 . S
C125 C130 1.399 . S
C126 C122 1.404 . S
C126 H127 0.950 . S
C126 C128 1.375 . S
H127 C126 0.950 . S
C128 C126 1.375 . S
C128 C130 1.382 . S
C128 H132 0.950 . S
H129 C124 0.949 . S
C130 C125 1.399 . S
C130 C128 1.382 . S
C130 H131 0.952 . S
H131 C130 0.952 . S
H132 C128 0.950 . S
H133 C134 0.949 . S
C134 H133 0.949 . S
C134 C135 1.395 . S
C134 C136 1.391 . S
C135 C134 1.395 . S
C135 C138 1.390 . S
C136 C134 1.391 . S
C136 C140 1.387 . S
C136 C141 1.491 . S
H137 C138 0.950 . S
C138 C135 1.390 . S
C138 H137 0.950 . S
C138 C139 1.378 . S
C139 C138 1.378 . S
C139 C140 1.409 . S
C140 C136 1.387 . S
C140 C139 1.409 . S
C140 H142 0.951 . S
C141 C136 1.491 . S
C141 C143 1.382 . S
C141 C145 1.404 . S
H142 C140 0.951 . S
C143 C141 1.382 . S
C143 C144 1.390 . S
C143 H148 0.949 . S
C144 C143 1.390 . S
C144 C149 1.399 . S
C145 C141 1.404 . S
C145 H146 0.950 . S
C145 C147 1.375 . S
H146 C145 0.950 . S
C147 C145 1.375 . S
C147 C149 1.382 . S
C147 H151 0.950 . S
H148 C143 0.949 . S
C149 C144 1.399 . S
C149 C147 1.382 . S
C149 H150 0.952 . S
H150 C149 0.952 . S
H151 C147 0.950 . S
O152 Mn153 2.163 1_655 S
O152 C166 1.244 . S
Mn153 O152 2.163 1_455 S
Mn153 O156 2.160 . S
Mn153 O157 2.221 . S
Mn153 O159 2.163 1_455 S
Mn153 O161 2.160 . S
Mn153 O171 2.221 1_445 S
O154 Mn155 2.087 . S
O154 C166 1.256 . S
Mn155 O154 2.087 . S
Mn155 O162 2.089 . S
Mn155 O171 2.290 1_545 S
Mn155 O172 2.251 1_545 S
O156 Mn153 2.160 . S
O156 C167 1.239 . S
O157 Mn153 2.221 . S
O157 Mn158 2.290 . S
O157 C168 1.278 . S
Mn158 O157 2.290 . S
Mn158 O160 2.089 . S
Mn158 O163 2.251 . S
Mn158 O164 2.087 . S
O159 Mn153 2.163 1_655 S
O159 C169 1.244 . S
O160 Mn158 2.089 . S
O160 C167 1.256 . S
O161 Mn153 2.160 . S
O161 C170 1.239 . S
O162 Mn155 2.089 . S
O162 C170 1.256 1_655 S
O163 Mn158 2.251 . S
O163 C168 1.241 . S
O164 Mn158 2.087 . S
O164 C169 1.256 1_455 S
C165 O171 1.278 . S
C165 O172 1.241 . S
C166 O152 1.244 . S
C166 O154 1.256 . S
C167 O156 1.239 . S
C167 O160 1.256 . S
C168 O157 1.278 . S
C168 O163 1.241 . S
C169 O159 1.244 . S
C169 O164 1.256 1_655 S
C170 O161 1.239 . S
C170 O162 1.256 1_455 S
O171 Mn153 2.221 1_665 S
O171 Mn155 2.290 1_565 S
O171 C165 1.278 . S
O172 Mn155 2.251 1_565 S
O172 C165 1.241 . S
O173 Mn174 2.163 . S
O173 C187 1.244 1_554 S
Mn174 O173 2.163 . S
Mn174 O177 2.160 . S
Mn174 O178 2.221 . S
Mn174 O180 2.163 . S
Mn174 O182 2.160 . S
Mn174 O192 2.221 1_545 S
O175 Mn176 2.087 1_556 S
O175 C187 1.256 1_565 S
Mn176 O175 2.087 1_554 S
Mn176 O183 2.089 . S
Mn176 O192 2.290 . S
Mn176 O193 2.251 . S
O177 Mn174 2.160 . S
O177 C188 1.239 . S
O178 Mn174 2.221 . S
O178 Mn179 2.290 . S
O178 C189 1.278 . S
Mn179 O178 2.290 . S
Mn179 O181 2.089 . S
Mn179 O184 2.251 . S
Mn179 O185 2.087 . S
O180 Mn174 2.163 . S
O180 C190 1.244 . S
O181 Mn179 2.089 . S
O181 C188 1.256 . S
O182 Mn174 2.160 . S
O182 C191 1.239 . S
O183 Mn176 2.089 . S
O183 C191 1.256 1_565 S
O184 Mn179 2.251 . S
O184 C189 1.241 . S
O185 Mn179 2.087 . S
O185 C190 1.256 . S
C186 O192 1.278 . S
C186 O193 1.241 . S
C187 O173 1.244 1_556 S
C187 O175 1.256 1_545 S
C188 O177 1.239 . S
C188 O181 1.256 . S
C189 O178 1.278 . S
C189 O184 1.241 . S
C190 O180 1.244 . S
C190 O185 1.256 . S
C191 O182 1.239 . S
C191 O183 1.256 1_545 S
O192 Mn174 2.221 1_565 S
O192 Mn176 2.290 . S
O192 C186 1.278 . S
O193 Mn176 2.251 . S
O193 C186 1.241 . S
O194 Mn195 2.163 . S
O194 C208 1.244 . S
Mn195 O194 2.163 . S
Mn195 O198 2.160 . S
Mn195 O199 2.221 . S
Mn195 O201 2.163 . S
Mn195 O203 2.160 . S
Mn195 O213 2.221 . S
O196 Mn197 2.087 . S
O196 C208 1.256 . S
Mn197 O196 2.087 . S
Mn197 O204 2.089 . S
Mn197 O213 2.290 . S
Mn197 O214 2.251 . S
O198 Mn195 2.160 . S
O198 C209 1.239 . S
O199 Mn195 2.221 . S
O199 Mn200 2.290 . S
O199 C210 1.278 . S
Mn200 O199 2.290 . S
Mn200 O202 2.089 . S
Mn200 O205 2.251 . S
Mn200 O206 2.087 . S
O201 Mn195 2.163 . S
O201 C211 1.244 . S
O202 Mn200 2.089 . S
O202 C209 1.256 . S
O203 Mn195 2.160 . S
O203 C212 1.239 . S
O204 Mn197 2.089 . S
O204 C212 1.256 . S
O205 Mn200 2.251 . S
O205 C210 1.241 . S
O206 Mn200 2.087 . S
O206 C211 1.256 . S
C207 O213 1.278 . S
C207 O214 1.241 . S
C208 O194 1.244 . S
C208 O196 1.256 . S
C209 O198 1.239 . S
C209 O202 1.256 . S
C210 O199 1.278 . S
C210 O205 1.241 . S
C211 O201 1.244 . S
C211 O206 1.256 . S
C212 O203 1.239 . S
C212 O204 1.256 . S
O213 Mn195 2.221 . S
O213 Mn197 2.290 . S
O213 C207 1.278 . S
O214 Mn197 2.251 . S
O214 C207 1.241 . S
O215 Mn216 2.163 1_655 S
O215 C229 1.244 1_554 S
Mn216 O215 2.163 1_455 S
Mn216 O219 2.160 . S
Mn216 O220 2.221 . S
Mn216 O222 2.163 . S
Mn216 O224 2.160 . S
Mn216 O234 2.221 1_554 S
O217 Mn218 2.087 . S
O217 C229 1.256 . S
Mn218 O217 2.087 . S
Mn218 O225 2.089 . S
Mn218 O234 2.290 1_655 S
Mn218 O235 2.251 1_655 S
O219 Mn216 2.160 . S
O219 C230 1.239 . S
O220 Mn216 2.221 . S
O220 Mn221 2.290 . S
O220 C231 1.278 1_455 S
Mn221 O220 2.290 . S
Mn221 O223 2.089 . S
Mn221 O226 2.251 1_455 S
Mn221 O227 2.087 . S
O222 Mn216 2.163 . S
O222 C232 1.244 . S
O223 Mn221 2.089 . S
O223 C230 1.256 . S
O224 Mn216 2.160 . S
O224 C233 1.239 1_454 S
O225 Mn218 2.089 . S
O225 C233 1.256 . S
O226 Mn221 2.251 1_655 S
O226 C231 1.241 . S
O227 Mn221 2.087 . S
O227 C232 1.256 . S
C228 O234 1.278 . S
C228 O235 1.241 . S
C229 O215 1.244 1_556 S
C229 O217 1.256 . S
C230 O219 1.239 . S
C230 O223 1.256 . S
C231 O220 1.278 1_655 S
C231 O226 1.241 . S
C232 O222 1.244 . S
C232 O227 1.256 . S
C233 O224 1.239 1_656 S
C233 O225 1.256 . S
O234 Mn216 2.221 1_556 S
O234 Mn218 2.290 1_455 S
O234 C228 1.278 . S
O235 Mn218 2.251 1_455 S
O235 C228 1.241 . S
H236 C248 0.930 . S
H237 C250 0.930 . S
H238 C251 0.930 . S
H239 C255 0.959 . S
H240 C255 0.959 . S
H241 C255 0.961 . S
H242 C256 0.960 . S
H243 C256 0.961 . S
H244 C256 0.959 . S
H245 C259 0.929 . S
H246 C260 0.931 . S
H247 C262 0.930 . S
C248 H236 0.930 . S
C248 C249 1.399 . S
C248 C253 1.399 . S
C249 C248 1.399 . S
C249 C250 1.376 . S
C250 H237 0.930 . S
C250 C249 1.376 . S
C250 C251 1.388 . S
C251 H238 0.930 . S
C251 C250 1.388 . S
C251 C252 1.390 . S
C252 C251 1.390 . S
C252 C253 1.394 . S
C252 C258 1.465 . S
C253 C248 1.399 . S
C253 C252 1.394 . S
C253 C254 1.516 . S
C254 C253 1.516 . S
C254 C255 1.502 . S
C254 C256 1.561 . S
C254 C257 1.526 . S
C255 H239 0.959 . S
C255 H240 0.959 . S
C255 H241 0.961 . S
C255 C254 1.502 . S
C256 H242 0.960 . S
C256 H243 0.961 . S
C256 H244 0.959 . S
C256 C254 1.561 . S
C257 C254 1.526 . S
C257 C258 1.396 . S
C257 C262 1.390 . S
C258 C252 1.465 . S
C258 C257 1.396 . S
C258 C259 1.399 . S
C259 H245 0.929 . S
C259 C258 1.399 . S
C259 C260 1.385 . S
C260 H246 0.931 . S
C260 C259 1.385 . S
C260 C261 1.389 . S
C261 C260 1.389 . S
C261 C262 1.387 . S
C262 H247 0.930 . S
C262 C257 1.390 . S
C262 C261 1.387 . S
H263 C275 0.930 1_545 S
H264 C277 0.930 . S
H265 C278 0.930 . S
H266 C282 0.959 . S
H267 C282 0.959 . S
H268 C282 0.961 . S
H269 C283 0.960 . S
H270 C283 0.961 . S
H271 C283 0.959 . S
H272 C286 0.929 . S
H273 C287 0.931 . S
H274 C289 0.930 . S
C275 H263 0.930 1_565 S
C275 C276 1.399 . S
C275 C280 1.399 . S
C276 C275 1.399 . S
C276 C277 1.376 . S
C277 H264 0.930 . S
C277 C276 1.376 . S
C277 C278 1.388 . S
C278 H265 0.930 . S
C278 C277 1.388 . S
C278 C279 1.390 . S
C279 C278 1.390 . S
C279 C280 1.394 . S
C279 C285 1.465 . S
C280 C275 1.399 . S
C280 C279 1.394 . S
C280 C281 1.516 1_565 S
C281 C280 1.516 1_545 S
C281 C282 1.502 . S
C281 C283 1.561 . S
C281 C284 1.526 . S
C282 H266 0.959 . S
C282 H267 0.959 . S
C282 H268 0.961 . S
C282 C281 1.502 . S
C283 H269 0.960 . S
C283 H270 0.961 . S
C283 H271 0.959 . S
C283 C281 1.561 . S
C284 C281 1.526 . S
C284 C285 1.396 1_545 S
C284 C289 1.390 . S
C285 C279 1.465 . S
C285 C284 1.396 1_565 S
C285 C286 1.399 . S
C286 H272 0.929 . S
C286 C285 1.399 . S
C286 C287 1.385 . S
C287 H273 0.931 . S
C287 C286 1.385 . S
C287 C288 1.389 1_565 S
C288 C287 1.389 1_545 S
C288 C289 1.387 . S
C289 H274 0.930 . S
C289 C284 1.390 . S
C289 C288 1.387 . S
H290 C302 0.930 . S
H291 C304 0.930 . S
H292 C305 0.930 . S
H293 C309 0.959 . S
H294 C309 0.959 . S
H295 C309 0.961 . S
H296 C310 0.960 . S
H297 C310 0.961 . S
H298 C310 0.959 . S
H299 C313 0.929 . S
H300 C314 0.931 . S
H301 C316 0.930 . S
C302 H290 0.930 . S
C302 C303 1.399 . S
C302 C307 1.399 . S
C303 C302 1.399 . S
C303 C304 1.376 . S
C304 H291 0.930 . S
C304 C303 1.376 . S
C304 C305 1.388 . S
C305 H292 0.930 . S
C305 C304 1.388 . S
C305 C306 1.390 . S
C306 C305 1.390 . S
C306 C307 1.394 . S
C306 C312 1.465 . S
C307 C302 1.399 . S
C307 C306 1.394 . S
C307 C308 1.516 . S
C308 C307 1.516 . S
C308 C309 1.502 . S
C308 C310 1.561 . S
C308 C311 1.526 . S
C309 H293 0.959 . S
C309 H294 0.959 . S
C309 H295 0.961 . S
C309 C308 1.502 . S
C310 H296 0.960 . S
C310 H297 0.961 . S
C310 H298 0.959 . S
C310 C308 1.561 . S
C311 C308 1.526 . S
C311 C312 1.396 . S
C311 C316 1.390 . S
C312 C306 1.465 . S
C312 C311 1.396 . S
C312 C313 1.399 . S
C313 H299 0.929 . S
C313 C312 1.399 . S
C313 C314 1.385 . S
C314 H300 0.931 . S
C314 C313 1.385 . S
C314 C315 1.389 . S
C315 C314 1.389 . S
C315 C316 1.387 . S
C316 H301 0.930 . S
C316 C311 1.390 . S
C316 C315 1.387 . S
H317 C329 0.930 . S
H318 C331 0.930 . S
H319 C332 0.930 . S
H320 C336 0.951 1_455 S
H321 C336 0.959 . S
H322 C336 0.961 . S
H323 C337 0.960 . S
H324 C337 0.961 . S
H325 C337 0.959 . S
H326 C340 0.929 . S
H327 C341 0.931 . S
H328 C343 0.930 . S
C329 H317 0.930 . S
C329 C330 1.399 . S
C329 C334 1.399 . S
C330 C329 1.399 . S
C330 C331 1.376 . S
C331 H318 0.930 . S
C331 C330 1.376 . S
C331 C332 1.388 . S
C332 H319 0.930 . S
C332 C331 1.388 . S
C332 C333 1.390 . S
C333 C332 1.390 . S
C333 C334 1.394 . S
C333 C339 1.465 . S
C334 C329 1.399 . S
C334 C333 1.394 . S
C334 C335 1.516 . S
C335 C334 1.516 . S
C335 C336 1.502 . S
C335 C337 1.561 . S
C335 C338 1.526 . S
C336 H320 0.951 1_655 S
C336 H321 0.959 . S
C336 H322 0.961 . S
C336 C335 1.502 . S
C337 H323 0.960 . S
C337 H324 0.961 . S
C337 H325 0.959 . S
C337 C335 1.561 . S
C338 C335 1.526 . S
C338 C339 1.396 . S
C338 C343 1.390 . S
C339 C333 1.465 . S
C339 C338 1.396 . S
C339 C340 1.399 . S
C340 H326 0.929 . S
C340 C339 1.399 . S
C340 C341 1.385 . S
C341 H327 0.931 . S
C341 C340 1.385 . S
C341 C342 1.389 . S
C342 C341 1.389 . S
C342 C343 1.387 . S
C343 H328 0.930 . S
C343 C338 1.390 . S
C343 C342 1.387 . S
H344 C356 0.930 . S
H345 C358 0.930 . S
H346 C359 0.930 . S
H347 C363 0.959 . S
H348 C363 0.959 . S
H349 C363 0.961 . S
H350 C364 0.960 . S
H351 C364 0.961 . S
H352 C364 0.959 . S
H353 C367 0.929 . S
H354 C368 0.931 . S
H355 C370 0.930 . S
C356 H344 0.930 . S
C356 C357 1.399 . S
C356 C361 1.399 . S
C357 C356 1.399 . S
C357 C358 1.376 . S
C358 H345 0.930 . S
C358 C357 1.376 . S
C358 C359 1.388 . S
C359 H346 0.930 . S
C359 C358 1.388 . S
C359 C360 1.390 . S
C360 C359 1.390 . S
C360 C361 1.394 . S
C360 C366 1.465 . S
C361 C356 1.399 . S
C361 C360 1.394 . S
C361 C362 1.516 . S
C362 C361 1.516 . S
C362 C363 1.502 . S
C362 C364 1.561 . S
C362 C365 1.526 . S
C363 H347 0.959 . S
C363 H348 0.959 . S
C363 H349 0.961 . S
C363 C362 1.502 . S
C364 H350 0.960 . S
C364 H351 0.961 . S
C364 H352 0.959 . S
C364 C362 1.561 . S
C365 C362 1.526 . S
C365 C366 1.396 . S
C365 C370 1.390 . S
C366 C360 1.465 . S
C366 C365 1.396 . S
C366 C367 1.399 . S
C367 H353 0.929 . S
C367 C366 1.399 . S
C367 C368 1.385 . S
C368 H354 0.931 . S
C368 C367 1.385 . S
C368 C369 1.389 . S
C369 C368 1.389 . S
C369 C370 1.387 . S
C370 H355 0.930 . S
C370 C365 1.390 . S
C370 C369 1.387 . S
H371 C383 0.930 . S
H372 C385 0.930 . S
H373 C386 0.930 . S
H374 C390 0.959 . S
H375 C390 0.959 . S
H376 C390 0.961 . S
H377 C391 0.960 . S
H378 C391 0.961 . S
H379 C391 0.959 . S
H380 C394 0.929 . S
H381 C395 0.931 . S
H382 C397 0.930 . S
C383 H371 0.930 . S
C383 C384 1.399 . S
C383 C388 1.399 . S
C384 C383 1.399 . S
C384 C385 1.376 1_565 S
C385 H372 0.930 . S
C385 C384 1.376 1_545 S
C385 C386 1.388 . S
C386 H373 0.930 . S
C386 C385 1.388 . S
C386 C387 1.390 . S
C387 C386 1.390 . S
C387 C388 1.394 1_545 S
C387 C393 1.465 . S
C388 C383 1.399 . S
C388 C387 1.394 1_565 S
C388 C389 1.516 . S
C389 C388 1.516 . S
C389 C390 1.502 . S
C389 C391 1.561 . S
C389 C392 1.526 . S
C390 H374 0.959 . S
C390 H375 0.959 . S
C390 H376 0.961 . S
C390 C389 1.502 . S
C391 H377 0.960 . S
C391 H378 0.961 . S
C391 H379 0.959 . S
C391 C389 1.561 . S
C392 C389 1.526 . S
C392 C393 1.396 1_565 S
C392 C397 1.390 . S
C393 C387 1.465 . S
C393 C392 1.396 1_545 S
C393 C394 1.399 . S
C394 H380 0.929 . S
C394 C393 1.399 . S
C394 C395 1.385 . S
C395 H381 0.931 . S
C395 C394 1.385 . S
C395 C396 1.389 . S
C396 C395 1.389 . S
C396 C397 1.387 1_545 S
C397 H382 0.930 . S
C397 C392 1.390 . S
C397 C396 1.387 1_565 S
H398 C410 0.930 . S
H399 C412 0.930 . S
H400 C413 0.930 . S
H401 C417 0.959 . S
H402 C417 0.959 . S
H403 C417 0.961 . S
H404 C418 0.960 . S
H405 C418 0.961 . S
H406 C418 0.959 . S
H407 C421 0.929 . S
H408 C422 0.931 . S
H409 C424 0.930 1_554 S
C410 H398 0.930 . S
C410 C411 1.399 . S
C410 C415 1.399 . S
C411 C410 1.399 . S
C411 C412 1.376 . S
C412 H399 0.930 . S
C412 C411 1.376 . S
C412 C413 1.388 . S
C413 H400 0.930 . S
C413 C412 1.388 . S
C413 C414 1.390 . S
C414 C413 1.390 . S
C414 C415 1.394 . S
C414 C420 1.465 . S
C415 C410 1.399 . S
C415 C414 1.394 . S
C415 C416 1.516 . S
C416 C415 1.516 . S
C416 C417 1.502 1_556 S
C416 C418 1.561 . S
C416 C419 1.526 . S
C417 H401 0.959 . S
C417 H402 0.959 . S
C417 H403 0.961 . S
C417 C416 1.502 1_554 S
C418 H404 0.960 . S
C418 H405 0.961 . S
C418 H406 0.959 . S
C418 C416 1.561 . S
C419 C416 1.526 . S
C419 C420 1.396 . S
C419 C424 1.390 . S
C420 C414 1.465 . S
C420 C419 1.396 . S
C420 C421 1.399 . S
C421 H407 0.929 . S
C421 C420 1.399 . S
C421 C422 1.385 . S
C422 H408 0.931 . S
C422 C421 1.385 . S
C422 C423 1.389 . S
C423 C422 1.389 . S
C423 C424 1.387 . S
C424 H409 0.930 1_556 S
C424 C419 1.390 . S
C424 C423 1.387 . S
H425 C437 0.930 . S
H426 C439 0.930 . S
H427 C440 0.930 . S
H428 C444 0.959 . S
H429 C444 0.959 . S
H430 C444 0.961 . S
H431 C445 0.960 . S
H432 C445 0.961 . S
H433 C445 0.959 . S
H434 C448 0.929 . S
H435 C449 0.931 . S
H436 C451 0.930 . S
C437 H425 0.930 . S
C437 C438 1.399 . S
C437 C442 1.399 . S
C438 C437 1.399 . S
C438 C439 1.376 . S
C439 H426 0.930 . S
C439 C438 1.376 . S
C439 C440 1.388 . S
C440 H427 0.930 . S
C440 C439 1.388 . S
C440 C441 1.390 . S
C441 C440 1.390 . S
C441 C442 1.394 . S
C441 C447 1.465 . S
C442 C437 1.399 . S
C442 C441 1.394 . S
C442 C443 1.516 . S
C443 C442 1.516 . S
C443 C444 1.502 . S
C443 C445 1.561 . S
C443 C446 1.526 . S
C444 H428 0.959 . S
C444 H429 0.959 . S
C444 H430 0.961 . S
C444 C443 1.502 . S
C445 H431 0.960 . S
C445 H432 0.961 . S
C445 H433 0.959 . S
C445 C443 1.561 . S
C446 C443 1.526 . S
C446 C447 1.396 . S
C446 C451 1.390 . S
C447 C441 1.465 . S
C447 C446 1.396 . S
C447 C448 1.399 . S
C448 H434 0.929 . S
C448 C447 1.399 . S
C448 C449 1.385 . S
C449 H435 0.931 . S
C449 C448 1.385 . S
C449 C450 1.389 . S
C450 C449 1.389 . S
C450 C451 1.387 . S
C451 H436 0.930 . S
C451 C446 1.390 . S
C451 C450 1.387 . S
H452 C464 0.930 . S
H453 C466 0.930 . S
H454 C467 0.930 . S
H455 C471 0.959 . S
H456 C471 0.959 . S
H457 C471 0.961 . S
H458 C472 0.960 . S
H459 C472 0.961 . S
H460 C472 0.959 . S
H461 C475 0.936 . S
H462 C476 0.931 1_556 S
H463 C478 0.930 . S
C464 H452 0.930 . S
C464 C465 1.399 . S
C464 C469 1.399 . S
C465 C464 1.399 . S
C465 C466 1.376 . S
C466 H453 0.930 . S
C466 C465 1.376 . S
C466 C467 1.388 . S
C467 H454 0.930 . S
C467 C466 1.388 . S
C467 C468 1.390 . S
C468 C467 1.390 . S
C468 C469 1.394 . S
C468 C474 1.465 . S
C469 C464 1.399 . S
C469 C468 1.394 . S
C469 C470 1.516 . S
C470 C469 1.516 . S
C470 C471 1.502 . S
C470 C472 1.561 . S
C470 C473 1.526 . S
C471 H455 0.959 . S
C471 H456 0.959 . S
C471 H457 0.961 . S
C471 C470 1.502 . S
C472 H458 0.960 . S
C472 H459 0.961 . S
C472 H460 0.959 . S
C472 C470 1.561 . S
C473 C470 1.526 . S
C473 C474 1.396 . S
C473 C478 1.390 . S
C474 C468 1.465 . S
C474 C473 1.396 . S
C474 C475 1.399 . S
C475 H461 0.936 . S
C475 C474 1.399 . S
C475 C476 1.385 . S
C476 H462 0.931 1_554 S
C476 C475 1.385 . S
C476 C477 1.389 . S
C477 C476 1.389 . S
C477 C478 1.387 . S
C478 H463 0.930 . S
C478 C473 1.390 . S
C478 C477 1.387 . S
H479 C491 0.930 1_554 S
H480 C493 0.930 . S
H481 C494 0.930 . S
H482 C498 0.959 . S
H483 C498 0.959 . S
H484 C498 0.961 . S
H485 C499 0.960 . S
H486 C499 0.961 . S
H487 C499 0.959 . S
H488 C502 0.929 . S
H489 C503 0.931 . S
H490 C505 0.930 . S
C491 H479 0.930 1_556 S
C491 C492 1.399 . S
C491 C496 1.399 . S
C492 C491 1.399 . S
C492 C493 1.376 . S
C493 H480 0.930 . S
C493 C492 1.376 . S
C493 C494 1.388 . S
C494 H481 0.930 . S
C494 C493 1.388 . S
C494 C495 1.390 . S
C495 C494 1.390 . S
C495 C496 1.394 . S
C495 C501 1.465 . S
C496 C491 1.399 . S
C496 C495 1.394 . S
C496 C497 1.516 1_556 S
C497 C496 1.516 1_554 S
C497 C498 1.502 . S
C497 C499 1.561 . S
C497 C500 1.526 . S
C498 H482 0.959 . S
C498 H483 0.959 . S
C498 H484 0.961 . S
C498 C497 1.502 . S
C499 H485 0.960 . S
C499 H486 0.961 . S
C499 H487 0.959 . S
C499 C497 1.561 . S
C500 C497 1.526 . S
C500 C501 1.396 1_554 S
C500 C505 1.390 . S
C501 C495 1.465 . S
C501 C500 1.396 1_556 S
C501 C502 1.399 . S
C502 H488 0.929 . S
C502 C501 1.399 . S
C502 C503 1.385 . S
C503 H489 0.931 . S
C503 C502 1.385 . S
C503 C504 1.389 1_556 S
C504 C503 1.389 1_554 S
C504 C505 1.387 . S
C505 H490 0.930 . S
C505 C500 1.390 . S
C505 C504 1.387 . S
H506 C518 0.930 . S
H507 C520 0.930 . S
H508 C521 0.930 . S
H509 C525 0.959 . S
H510 C525 0.959 . S
H511 C525 0.961 . S
H512 C526 0.960 . S
H513 C526 0.961 . S
H514 C526 0.959 . S
H515 C529 0.929 . S
H516 C530 0.931 . S
H517 C532 0.930 . S
C518 H506 0.930 . S
C518 C519 1.399 . S
C518 C523 1.399 . S
C519 C518 1.399 . S
C519 C520 1.376 . S
C520 H507 0.930 . S
C520 C519 1.376 . S
C520 C521 1.388 . S
C521 H508 0.930 . S
C521 C520 1.388 . S
C521 C522 1.390 . S
C522 C521 1.390 . S
C522 C523 1.394 . S
C522 C528 1.465 . S
C523 C518 1.399 . S
C523 C522 1.394 . S
C523 C524 1.516 . S
C524 C523 1.516 . S
C524 C525 1.502 . S
C524 C526 1.561 . S
C524 C527 1.526 . S
C525 H509 0.959 . S
C525 H510 0.959 . S
C525 H511 0.961 . S
C525 C524 1.502 . S
C526 H512 0.960 . S
C526 H513 0.961 . S
C526 H514 0.959 . S
C526 C524 1.561 . S
C527 C524 1.526 . S
C527 C528 1.396 . S
C527 C532 1.390 . S
C528 C522 1.465 . S
C528 C527 1.396 . S
C528 C529 1.399 . S
C529 H515 0.929 . S
C529 C528 1.399 . S
C529 C530 1.385 . S
C530 H516 0.931 . S
C530 C529 1.385 . S
C530 C531 1.389 . S
C531 C530 1.389 . S
C531 C532 1.387 . S
C532 H517 0.930 . S
C532 C527 1.390 . S
C532 C531 1.387 . S
H533 C545 0.930 . S
H534 C547 0.930 . S
H535 C548 0.930 . S
H536 C552 0.959 . S
H537 C552 0.959 . S
H538 C552 0.961 . S
H539 C553 0.960 . S
H540 C553 0.961 . S
H541 C553 0.959 . S
H542 C556 0.929 . S
H543 C557 0.931 . S
H544 C559 0.930 . S
C545 H533 0.930 . S
C545 C546 1.399 . S
C545 C550 1.399 . S
C546 C545 1.399 . S
C546 C547 1.376 . S
C547 H534 0.930 . S
C547 C546 1.376 . S
C547 C548 1.388 . S
C548 H535 0.930 . S
C548 C547 1.388 . S
C548 C549 1.390 . S
C549 C548 1.390 . S
C549 C550 1.394 . S
C549 C555 1.465 . S
C550 C545 1.399 . S
C550 C549 1.394 . S
C550 C551 1.516 . S
C551 C550 1.516 . S
C551 C552 1.502 . S
C551 C553 1.561 . S
C551 C554 1.526 . S
C552 H536 0.959 . S
C552 H537 0.959 . S
C552 H538 0.961 . S
C552 C551 1.502 . S
C553 H539 0.960 . S
C553 H540 0.961 . S
C553 H541 0.959 . S
C553 C551 1.561 . S
C554 C551 1.526 . S
C554 C555 1.396 . S
C554 C559 1.390 . S
C555 C549 1.465 . S
C555 C554 1.396 . S
C555 C556 1.399 . S
C556 H542 0.929 . S
C556 C555 1.399 . S
C556 C557 1.385 . S
C557 H543 0.931 . S
C557 C556 1.385 . S
C557 C558 1.389 . S
C558 C557 1.389 . S
C558 C559 1.387 . S
C559 H544 0.930 . S
C559 C554 1.390 . S
C559 C558 1.387 . S
H560 C572 0.930 . S
H561 C574 0.930 1_545 S
H562 C575 0.930 . S
H563 C579 0.959 . S
H564 C579 0.959 . S
H565 C579 0.961 . S
H566 C580 0.960 . S
H567 C580 0.961 . S
H568 C580 0.959 . S
H569 C583 0.929 . S
H570 C584 0.931 . S
H571 C586 0.930 . S
C572 H560 0.930 . S
C572 C573 1.399 . S
C572 C577 1.399 . S
C573 C572 1.399 . S
C573 C574 1.376 . S
C574 H561 0.930 1_565 S
C574 C573 1.376 . S
C574 C575 1.388 1_565 S
C575 H562 0.930 . S
C575 C574 1.388 1_545 S
C575 C576 1.390 1_545 S
C576 C575 1.390 1_565 S
C576 C577 1.394 . S
C576 C582 1.465 . S
C577 C572 1.399 . S
C577 C576 1.394 . S
C577 C578 1.516 . S
C578 C577 1.516 . S
C578 C579 1.502 1_655 S
C578 C580 1.561 . S
C578 C581 1.526 . S
C579 H563 0.959 . S
C579 H564 0.959 . S
C579 H565 0.961 . S
C579 C578 1.502 1_455 S
C580 H566 0.960 . S
C580 H567 0.961 . S
C580 H568 0.959 . S
C580 C578 1.561 . S
C581 C578 1.526 . S
C581 C582 1.396 . S
C581 C586 1.390 . S
C582 C576 1.465 . S
C582 C581 1.396 . S
C582 C583 1.399 1_565 S
C583 H569 0.929 . S
C583 C582 1.399 1_545 S
C583 C584 1.385 . S
C584 H570 0.931 . S
C584 C583 1.385 . S
C584 C585 1.380 1_545 S
C585 C584 1.380 1_565 S
C585 C586 1.396 . S
C586 H571 0.930 . S
C586 C581 1.390 . S
C586 C585 1.396 . S
H587 C599 0.930 . S
H588 C601 0.930 . S
H589 C602 0.930 . S
H590 C606 0.959 . S
H591 C606 0.959 . S
H592 C606 0.961 . S
H593 C607 0.960 . S
H594 C607 0.961 . S
H595 C607 0.959 . S
H596 C610 0.929 . S
H597 C611 0.931 . S
H598 C613 0.930 . S
C599 H587 0.930 . S
C599 C600 1.399 . S
C599 C604 1.399 . S
C600 C599 1.399 . S
C600 C601 1.376 . S
C601 H588 0.930 . S
C601 C600 1.376 . S
C601 C602 1.388 . S
C602 H589 0.930 . S
C602 C601 1.388 . S
C602 C603 1.390 . S
C603 C602 1.390 . S
C603 C604 1.394 . S
C603 C609 1.465 . S
C604 C599 1.399 . S
C604 C603 1.394 . S
C604 C605 1.516 . S
C605 C604 1.516 . S
C605 C606 1.502 . S
C605 C607 1.561 . S
C605 C608 1.526 . S
C606 H590 0.959 . S
C606 H591 0.959 . S
C606 H592 0.961 . S
C606 C605 1.502 . S
C607 H593 0.960 . S
C607 H594 0.961 . S
C607 H595 0.959 . S
C607 C605 1.561 . S
C608 C605 1.526 . S
C608 C609 1.396 . S
C608 C613 1.390 . S
C609 C603 1.465 . S
C609 C608 1.396 . S
C609 C610 1.399 . S
C610 H596 0.929 . S
C610 C609 1.399 . S
C610 C611 1.385 . S
C611 H597 0.931 . S
C611 C610 1.385 . S
C611 C612 1.389 . S
C612 C611 1.389 . S
C612 C613 1.387 . S
C613 H598 0.930 . S
C613 C608 1.390 . S
C613 C612 1.387 . S
H614 C626 0.930 . S
H615 C628 0.930 . S
H616 C629 0.930 . S
H617 C633 0.959 . S
H618 C633 0.959 . S
H619 C633 0.961 . S
H620 C634 0.960 . S
H621 C634 0.961 . S
H622 C634 0.959 . S
H623 C637 0.929 . S
H624 C638 0.931 . S
H625 C640 0.930 . S
C626 H614 0.930 . S
C626 C627 1.399 . S
C626 C631 1.399 . S
C627 C626 1.399 . S
C627 C628 1.376 . S
C628 H615 0.930 . S
C628 C627 1.376 . S
C628 C629 1.388 . S
C629 H616 0.930 . S
C629 C628 1.388 . S
C629 C630 1.390 . S
C630 C629 1.390 . S
C630 C631 1.394 . S
C630 C636 1.465 . S
C631 C626 1.399 . S
C631 C630 1.394 . S
C631 C632 1.516 . S
C632 C631 1.516 . S
C632 C633 1.502 . S
C632 C634 1.561 . S
C632 C635 1.526 . S
C633 H617 0.959 . S
C633 H618 0.959 . S
C633 H619 0.961 . S
C633 C632 1.502 . S
C634 H620 0.960 . S
C634 H621 0.961 . S
C634 H622 0.959 . S
C634 C632 1.561 . S
C635 C632 1.526 . S
C635 C636 1.396 . S
C635 C640 1.390 . S
C636 C630 1.465 . S
C636 C635 1.396 . S
C636 C637 1.399 . S
C637 H623 0.929 . S
C637 C636 1.399 . S
C637 C638 1.385 . S
C638 H624 0.931 . S
C638 C637 1.385 . S
C638 C639 1.389 . S
C639 C638 1.389 . S
C639 C640 1.387 . S
C640 H625 0.930 . S
C640 C635 1.390 . S
C640 C639 1.387 . S
H641 C653 0.930 . S
H642 C655 0.930 . S
H643 C656 0.930 . S
H644 C660 0.959 . S
H645 C660 0.959 . S
H646 C660 0.961 . S
H647 C661 0.960 . S
H648 C661 0.961 . S
H649 C661 0.959 . S
H650 C664 0.929 . S
H651 C665 0.931 . S
H652 C667 0.930 . S
C653 H641 0.930 . S
C653 C654 1.399 . S
C653 C658 1.399 . S
C654 C653 1.399 . S
C654 C655 1.376 . S
C655 H642 0.930 . S
C655 C654 1.376 . S
C655 C656 1.388 . S
C656 H643 0.930 . S
C656 C655 1.388 . S
C656 C657 1.390 . S
C657 C656 1.390 . S
C657 C658 1.394 . S
C657 C663 1.465 . S
C658 C653 1.399 . S
C658 C657 1.394 . S
C658 C659 1.516 . S
C659 C658 1.516 . S
C659 C660 1.502 . S
C659 C661 1.561 . S
C659 C662 1.526 . S
C660 H644 0.959 . S
C660 H645 0.959 . S
C660 H646 0.961 . S
C660 C659 1.502 . S
C661 H647 0.960 . S
C661 H648 0.961 . S
C661 H649 0.959 . S
C661 C659 1.561 . S
C662 C659 1.526 . S
C662 C663 1.396 . S
C662 C667 1.390 . S
C663 C657 1.465 . S
C663 C662 1.396 . S
C663 C664 1.399 . S
C664 H650 0.929 . S
C664 C663 1.399 . S
C664 C665 1.385 . S
C665 H651 0.931 . S
C665 C664 1.385 . S
C665 C666 1.389 . S
C666 C665 1.389 . S
C666 C667 1.387 . S
C667 H652 0.930 . S
C667 C662 1.390 . S
C667 C666 1.387 . S
H668 C680 0.930 . S
H669 C682 0.930 . S
H670 C683 0.930 . S
H671 C687 0.959 . S
H672 C687 0.959 . S
H673 C687 0.961 . S
H674 C688 0.960 . S
H675 C688 0.961 . S
H676 C688 0.959 . S
H677 C691 0.929 . S
H678 C692 0.931 . S
H679 C694 0.930 . S
C680 H668 0.930 . S
C680 C681 1.399 1_545 S
C680 C685 1.399 . S
C681 C680 1.399 1_565 S
C681 C682 1.376 . S
C682 H669 0.930 . S
C682 C681 1.376 . S
C682 C683 1.388 1_556 S
C683 H670 0.930 . S
C683 C682 1.388 1_554 S
C683 C684 1.390 1_554 S
C684 C683 1.390 1_556 S
C684 C685 1.394 1_565 S
C684 C690 1.465 1_556 S
C685 C680 1.399 . S
C685 C684 1.394 1_545 S
C685 C686 1.516 . S
C686 C685 1.516 . S
C686 C687 1.502 . S
C686 C688 1.561 . S
C686 C689 1.526 . S
C687 H671 0.959 . S
C687 H672 0.959 . S
C687 H673 0.961 . S
C687 C686 1.502 . S
C688 H674 0.960 . S
C688 H675 0.961 . S
C688 H676 0.959 . S
C688 C686 1.561 . S
C689 C686 1.526 . S
C689 C690 1.396 1_546 S
C689 C694 1.390 . S
C690 C684 1.465 1_554 S
C690 C689 1.396 1_564 S
C690 C691 1.399 . S
C691 H677 0.929 . S
C691 C690 1.399 . S
C691 C692 1.385 . S
C692 H678 0.931 . S
C692 C691 1.385 . S
C692 C693 1.389 1_565 S
C693 C692 1.389 1_545 S
C693 C694 1.386 1_554 S
C694 H679 0.930 . S
C694 C689 1.390 . S
C694 C693 1.386 1_556 S
H695 C707 0.930 . S
H696 C709 0.930 . S
H697 C710 0.930 . S
H698 C714 0.959 . S
H699 C714 0.959 . S
H700 C714 0.961 . S
H701 C715 0.960 . S
H702 C715 0.961 . S
H703 C715 0.959 . S
H704 C718 0.929 . S
H705 C719 0.931 . S
H706 C721 0.930 . S
C707 H695 0.930 . S
C707 C708 1.399 . S
C707 C712 1.399 . S
C708 C707 1.399 . S
C708 C709 1.376 . S
C709 H696 0.930 . S
C709 C708 1.376 . S
C709 C710 1.388 . S
C710 H697 0.930 . S
C710 C709 1.388 . S
C710 C711 1.390 . S
C711 C710 1.390 . S
C711 C712 1.394 . S
C711 C717 1.465 . S
C712 C707 1.399 . S
C712 C711 1.394 . S
C712 C713 1.516 . S
C713 C712 1.516 . S
C713 C714 1.502 . S
C713 C715 1.561 . S
C713 C716 1.526 . S
C714 H698 0.959 . S
C714 H699 0.959 . S
C714 H700 0.961 . S
C714 C713 1.502 . S
C715 H701 0.960 . S
C715 H702 0.961 . S
C715 H703 0.959 . S
C715 C713 1.561 . S
C716 C713 1.526 . S
C716 C717 1.396 . S
C716 C721 1.390 . S
C717 C711 1.465 . S
C717 C716 1.396 . S
C717 C718 1.399 . S
C718 H704 0.929 . S
C718 C717 1.399 . S
C718 C719 1.385 . S
C719 H705 0.931 . S
C719 C718 1.385 . S
C719 C720 1.389 . S
C720 C719 1.389 . S
C720 C721 1.387 . S
C721 H706 0.930 . S
C721 C716 1.390 . S
C721 C720 1.387 . S
H722 C734 0.930 . S
H723 C736 0.930 . S
H724 C737 0.930 . S
H725 C741 0.959 . S
H726 C741 0.959 . S
H727 C741 0.961 . S
H728 C742 0.960 . S
H729 C742 0.961 . S
H730 C742 0.959 . S
H731 C745 0.929 . S
H732 C746 0.931 . S
H733 C748 0.930 . S
C734 H722 0.930 . S
C734 C735 1.399 . S
C734 C739 1.399 . S
C735 C734 1.399 . S
C735 C736 1.376 . S
C736 H723 0.930 . S
C736 C735 1.376 . S
C736 C737 1.388 . S
C737 H724 0.930 . S
C737 C736 1.388 . S
C737 C738 1.390 . S
C738 C737 1.390 . S
C738 C739 1.394 . S
C738 C744 1.465 . S
C739 C734 1.399 . S
C739 C738 1.394 . S
C739 C740 1.516 . S
C740 C739 1.516 . S
C740 C741 1.502 . S
C740 C742 1.561 . S
C740 C743 1.526 . S
C741 H725 0.959 . S
C741 H726 0.959 . S
C741 H727 0.961 . S
C741 C740 1.502 . S
C742 H728 0.960 . S
C742 H729 0.961 . S
C742 H730 0.959 . S
C742 C740 1.561 . S
C743 C740 1.526 . S
C743 C744 1.396 . S
C743 C748 1.390 . S
C744 C738 1.465 . S
C744 C743 1.396 . S
C744 C745 1.399 . S
C745 H731 0.929 . S
C745 C744 1.399 . S
C745 C746 1.385 . S
C746 H732 0.931 . S
C746 C745 1.385 . S
C746 C747 1.389 . S
C747 C746 1.389 . S
C747 C748 1.387 . S
C748 H733 0.930 . S
C748 C743 1.390 . S
C748 C747 1.387 . S
H749 C761 0.930 . S
H750 C763 0.930 . S
H751 C764 0.930 . S
H752 C768 0.959 . S
H753 C768 0.959 . S
H754 C768 0.961 . S
H755 C769 0.960 . S
H756 C769 0.961 . S
H757 C769 0.959 . S
H758 C772 0.929 . S
H759 C773 0.931 . S
H760 C775 0.930 . S
C761 H749 0.930 . S
C761 C762 1.399 . S
C761 C766 1.399 . S
C762 C761 1.399 . S
C762 C763 1.376 . S
C763 H750 0.930 . S
C763 C762 1.376 . S
C763 C764 1.388 . S
C764 H751 0.930 . S
C764 C763 1.388 . S
C764 C765 1.390 . S
C765 C764 1.390 . S
C765 C766 1.394 . S
C765 C771 1.465 . S
C766 C761 1.399 . S
C766 C765 1.394 . S
C766 C767 1.516 . S
C767 C766 1.516 . S
C767 C768 1.502 . S
C767 C769 1.561 . S
C767 C770 1.526 . S
C768 H752 0.959 . S
C768 H753 0.959 . S
C768 H754 0.961 . S
C768 C767 1.502 . S
C769 H755 0.960 . S
C769 H756 0.961 . S
C769 H757 0.959 . S
C769 C767 1.561 . S
C770 C767 1.526 . S
C770 C771 1.396 . S
C770 C775 1.390 . S
C771 C765 1.465 . S
C771 C770 1.396 . S
C771 C772 1.399 . S
C772 H758 0.929 . S
C772 C771 1.399 . S
C772 C773 1.385 . S
C773 H759 0.931 . S
C773 C772 1.385 . S
C773 C774 1.389 . S
C774 C773 1.389 . S
C774 C775 1.387 . S
C775 H760 0.930 . S
C775 C770 1.390 . S
C775 C774 1.387 . S
H776 C788 0.930 . S
H777 C790 0.930 . S
H778 C791 0.930 . S
H779 C795 0.949 1_455 S
H780 C795 0.959 . S
H781 C795 0.961 . S
H782 C796 0.960 . S
H783 C796 0.961 . S
H784 C796 0.959 1_556 S
H785 C799 0.929 . S
H786 C800 0.931 . S
H787 C802 0.930 1_554 S
C788 H776 0.930 . S
C788 C789 1.399 . S
C788 C793 1.399 . S
C789 C788 1.399 . S
C789 C790 1.376 . S
C790 H777 0.930 . S
C790 C789 1.376 . S
C790 C791 1.388 . S
C791 H778 0.930 . S
C791 C790 1.388 . S
C791 C792 1.390 . S
C792 C791 1.390 . S
C792 C793 1.394 . S
C792 C798 1.465 . S
C793 C788 1.399 . S
C793 C792 1.394 . S
C793 C794 1.516 . S
C794 C793 1.516 . S
C794 C795 1.502 1_556 S
C794 C796 1.561 1_556 S
C794 C797 1.526 . S
C795 H779 0.949 1_655 S
C795 H780 0.959 . S
C795 H781 0.961 . S
C795 C794 1.502 1_554 S
C796 H782 0.960 . S
C796 H783 0.961 . S
C796 H784 0.959 1_554 S
C796 C794 1.561 1_554 S
C797 C794 1.526 . S
C797 C798 1.396 . S
C797 C802 1.390 . S
C798 C792 1.465 . S
C798 C797 1.396 . S
C798 C799 1.399 . S
C799 H785 0.929 . S
C799 C798 1.399 . S
C799 C800 1.385 . S
C800 H786 0.931 . S
C800 C799 1.385 . S
C800 C801 1.389 . S
C801 C800 1.389 . S
C801 C802 1.387 . S
C802 H787 0.930 1_556 S
C802 C797 1.390 . S
C802 C801 1.387 . S
H803 C815 0.930 . S
H804 C817 0.930 . S
H805 C818 0.930 . S
H806 C822 0.959 . S
H807 C822 0.959 . S
H808 C822 0.961 . S
H809 C823 0.960 . S
H810 C823 0.961 . S
H811 C823 0.959 . S
H812 C826 0.929 . S
H813 C827 0.931 . S
H814 C829 0.930 . S
C815 H803 0.930 . S
C815 C816 1.399 . S
C815 C820 1.399 . S
C816 C815 1.399 . S
C816 C817 1.376 . S
C817 H804 0.930 . S
C817 C816 1.376 . S
C817 C818 1.388 . S
C818 H805 0.930 . S
C818 C817 1.388 . S
C818 C819 1.390 . S
C819 C818 1.390 . S
C819 C820 1.394 . S
C819 C825 1.465 . S
C820 C815 1.399 . S
C820 C819 1.394 . S
C820 C821 1.516 . S
C821 C820 1.516 . S
C821 C822 1.502 . S
C821 C823 1.561 . S
C821 C824 1.526 . S
C822 H806 0.959 . S
C822 H807 0.959 . S
C822 H808 0.961 . S
C822 C821 1.502 . S
C823 H809 0.960 . S
C823 H810 0.961 . S
C823 H811 0.959 . S
C823 C821 1.561 . S
C824 C821 1.526 . S
C824 C825 1.396 . S
C824 C829 1.390 . S
C825 C819 1.465 . S
C825 C824 1.396 . S
C825 C826 1.399 . S
C826 H812 0.929 . S
C826 C825 1.399 . S
C826 C827 1.385 . S
C827 H813 0.931 . S
C827 C826 1.385 . S
C827 C828 1.389 . S
C828 C827 1.389 . S
C828 C829 1.387 . S
C829 H814 0.930 . S
C829 C824 1.390 . S
C829 C828 1.387 . S
H830 C842 0.930 . S
H831 C844 0.930 . S
H832 C845 0.930 . S
H833 C849 0.959 . S
H834 C849 0.959 . S
H835 C849 0.961 . S
H836 C850 0.960 . S
H837 C850 0.961 . S
H838 C850 0.959 . S
H839 C853 0.929 . S
H840 C854 0.931 1_655 S
H841 C856 0.930 . S
C842 H830 0.930 . S
C842 C843 1.399 . S
C842 C847 1.399 . S
C843 C842 1.399 . S
C843 C844 1.376 . S
C844 H831 0.930 . S
C844 C843 1.376 . S
C844 C845 1.388 . S
C845 H832 0.930 . S
C845 C844 1.388 . S
C845 C846 1.390 . S
C846 C845 1.390 . S
C846 C847 1.394 . S
C846 C852 1.465 . S
C847 C842 1.399 . S
C847 C846 1.394 . S
C847 C848 1.516 . S
C848 C847 1.516 . S
C848 C849 1.502 . S
C848 C850 1.561 . S
C848 C851 1.526 . S
C849 H833 0.959 . S
C849 H834 0.959 . S
C849 H835 0.961 . S
C849 C848 1.502 . S
C850 H836 0.960 . S
C850 H837 0.961 . S
C850 H838 0.959 . S
C850 C848 1.561 . S
C851 C848 1.526 . S
C851 C852 1.396 . S
C851 C856 1.390 . S
C852 C846 1.465 . S
C852 C851 1.396 . S
C852 C853 1.399 . S
C853 H839 0.929 . S
C853 C852 1.399 . S
C853 C854 1.385 . S
C854 H840 0.931 1_455 S
C854 C853 1.385 . S
C854 C855 1.389 . S
C855 C854 1.389 . S
C855 C856 1.387 . S
C856 H841 0.930 . S
C856 C851 1.390 . S
C856 C855 1.387 . S
H857 C869 0.930 . S
H858 C871 0.930 . S
H859 C872 0.930 . S
H860 C876 0.959 . S
H861 C876 0.959 . S
H862 C876 0.961 . S
H863 C877 0.960 . S
H864 C877 0.961 . S
H865 C877 0.959 . S
H866 C880 0.929 . S
H867 C881 0.931 . S
H868 C883 0.930 . S
C869 H857 0.930 . S
C869 C870 1.399 . S
C869 C874 1.399 . S
C870 C869 1.399 . S
C870 C871 1.376 . S
C871 H858 0.930 . S
C871 C870 1.376 . S
C871 C872 1.388 . S
C872 H859 0.930 . S
C872 C871 1.388 . S
C872 C873 1.390 . S
C873 C872 1.390 . S
C873 C874 1.394 . S
C873 C879 1.465 . S
C874 C869 1.399 . S
C874 C873 1.394 . S
C874 C875 1.516 . S
C875 C874 1.516 . S
C875 C876 1.502 . S
C875 C877 1.561 . S
C875 C878 1.526 . S
C876 H860 0.959 . S
C876 H861 0.959 . S
C876 H862 0.961 . S
C876 C875 1.502 . S
C877 H863 0.960 . S
C877 H864 0.961 . S
C877 H865 0.959 . S
C877 C875 1.561 . S
C878 C875 1.526 . S
C878 C879 1.396 . S
C878 C883 1.390 . S
C879 C873 1.465 . S
C879 C878 1.396 . S
C879 C880 1.399 . S
C880 H866 0.929 . S
C880 C879 1.399 . S
C880 C881 1.385 . S
C881 H867 0.931 . S
C881 C880 1.385 . S
C881 C882 1.389 . S
C882 C881 1.389 . S
C882 C883 1.387 . S
C883 H868 0.930 . S
C883 C878 1.390 . S
C883 C882 1.387 . S
C249 C6 1.849 . S
C261 C170 1.845 . S
C276 C21 1.966 . S
C288 C187 1.927 . S
C315 C210 0.760 . S
C303 C49 0.861 . S
C330 C68 1.349 . S
C342 C231 1.329 . S
C369 C190 2.357 . S
C357 C2 2.449 . S
C396 C167 1.299 . S
C384 C30 1.294 . S
C423 C229 1.087 . S
C411 C40 1.139 . S
C450 C208 1.177 . S
C438 C63 1.284 . S
C465 C11 1.555 . S
C477 C232 1.708 . S
C504 C189 1.465 . S
C492 C44 1.716 . S
C519 C59 1.380 . S
C531 C165 1.175 . S
C546 C25 1.718 . S
C558 C211 1.647 . S
C585 C169 1.963 1_565 S
C573 C82 2.064 . S
C600 C101 1.590 . S
C612 C188 1.577 . S
C627 C125 1.189 . S
C639 C207 1.088 . S
C654 C144 1.010 . S
C666 C228 0.998 . S
C681 C87 1.326 . S
C693 C191 1.424 . S
C720 C166 2.376 . S
C708 C97 2.369 . S
C747 C230 0.994 . S
C735 C120 1.097 . S
C774 C209 1.393 . S
C762 C135 1.354 . S
C789 C78 1.869 . S
C801 C233 1.791 . S
C828 C186 1.011 . S
C816 C116 1.115 . S
C855 C168 1.452 . S
C843 C139 1.585 . S
C870 C106 1.358 . S
C882 C212 1.527 . S
