# Generated by pormake.
# Topology pto, (3,4)-cn, num edge types: 1
# Building blocks:
#     Node 0, Type 0, BuildingBlock: BELTOD_clean_linker_0, # of connection points: 3
#     Node 1, Type 0, BuildingBlock: BELTOD_clean_linker_0, # of connection points: 3
#     Node 2, Type 0, BuildingBlock: BELTOD_clean_linker_0, # of connection points: 3
#     Node 3, Type 0, BuildingBlock: BELTOD_clean_linker_0, # of connection points: 3
#     Node 4, Type 0, BuildingBlock: BELTOD_clean_linker_0, # of connection points: 3
#     Node 5, Type 0, BuildingBlock: BELTOD_clean_linker_0, # of connection points: 3
#     Node 6, Type 0, BuildingBlock: BELTOD_clean_linker_0, # of connection points: 3
#     Node 7, Type 0, BuildingBlock: BELTOD_clean_linker_0, # of connection points: 3
#     Node 8, Type 1, BuildingBlock: NAWXER_clean_sbu_0, # of connection points: 4
#     Node 9, Type 1, BuildingBlock: NAWXER_clean_sbu_0, # of connection points: 4
#     Node 10, Type 1, BuildingBlock: NAWXER_clean_sbu_0, # of connection points: 4
#     Node 11, Type 1, BuildingBlock: NAWXER_clean_sbu_0, # of connection points: 4
#     Node 12, Type 1, BuildingBlock: NAWXER_clean_sbu_0, # of connection points: 4
#     Node 13, Type 1, BuildingBlock: NAWXER_clean_sbu_0, # of connection points: 4
#     Edge 14, Type (0, 1), BuildingBlock: KIFKEQ_clean_linker_1, # of connection points: 2
#     Edge 15, Type (0, 1), BuildingBlock: KIFKEQ_clean_linker_1, # of connection points: 2
#     Edge 16, Type (0, 1), BuildingBlock: KIFKEQ_clean_linker_1, # of connection points: 2
#     Edge 17, Type (0, 1), BuildingBlock: KIFKEQ_clean_linker_1, # of connection points: 2
#     Edge 18, Type (0, 1), BuildingBlock: KIFKEQ_clean_linker_1, # of connection points: 2
#     Edge 19, Type (0, 1), BuildingBlock: KIFKEQ_clean_linker_1, # of connection points: 2
#     Edge 20, Type (0, 1), BuildingBlock: KIFKEQ_clean_linker_1, # of connection points: 2
#     Edge 21, Type (0, 1), BuildingBlock: KIFKEQ_clean_linker_1, # of connection points: 2
#     Edge 22, Type (0, 1), BuildingBlock: KIFKEQ_clean_linker_1, # of connection points: 2
#     Edge 23, Type (0, 1), BuildingBlock: KIFKEQ_clean_linker_1, # of connection points: 2
#     Edge 24, Type (0, 1), BuildingBlock: KIFKEQ_clean_linker_1, # of connection points: 2
#     Edge 25, Type (0, 1), BuildingBlock: KIFKEQ_clean_linker_1, # of connection points: 2
#     Edge 26, Type (0, 1), BuildingBlock: KIFKEQ_clean_linker_1, # of connection points: 2
#     Edge 27, Type (0, 1), BuildingBlock: KIFKEQ_clean_linker_1, # of connection points: 2
#     Edge 28, Type (0, 1), BuildingBlock: KIFKEQ_clean_linker_1, # of connection points: 2
#     Edge 29, Type (0, 1), BuildingBlock: KIFKEQ_clean_linker_1, # of connection points: 2
#     Edge 30, Type (0, 1), BuildingBlock: KIFKEQ_clean_linker_1, # of connection points: 2
#     Edge 31, Type (0, 1), BuildingBlock: KIFKEQ_clean_linker_1, # of connection points: 2
#     Edge 32, Type (0, 1), BuildingBlock: KIFKEQ_clean_linker_1, # of connection points: 2
#     Edge 33, Type (0, 1), BuildingBlock: KIFKEQ_clean_linker_1, # of connection points: 2
#     Edge 34, Type (0, 1), BuildingBlock: KIFKEQ_clean_linker_1, # of connection points: 2
#     Edge 35, Type (0, 1), BuildingBlock: KIFKEQ_clean_linker_1, # of connection points: 2
#     Edge 36, Type (0, 1), BuildingBlock: KIFKEQ_clean_linker_1, # of connection points: 2
#     Edge 37, Type (0, 1), BuildingBlock: KIFKEQ_clean_linker_1, # of connection points: 2
# Relax obj value: 0.000
# Max RMSD: 0.009
# Mean RMSD: 0.006
data_MOF--net-pto--node1-NAWXER_clean_sbu_0--node2-BELTOD_clean_linker_0--edge1-KIFKEQ_clean_linker_1
_symmetry_space_group_name_H-M    P1
_symmetry_Int_Tables_number       1
_symmetry_cell_setting            triclinic
loop_
_symmetry_equiv_pos_as_xyz
'x, y, z'
_cell_length_a     50.380229
_cell_length_b     47.549469
_cell_length_c     44.300414
_cell_angle_alpha  89.18488
_cell_angle_beta   91.540056
_cell_angle_gamma 91.956147
loop_
_atom_site_label
_atom_site_type_symbol
_atom_site_fract_x
_atom_site_fract_y
_atom_site_fract_z
_atom_type_partial_charge
P0 P 0.27768 0.29054 0.2843 0.0
H1 H 0.30425 0.33273 0.24681 0.0
H2 H 0.33204 0.32967 0.20271 0.0
H3 H 0.31592 0.23985 0.20021 0.0
H4 H 0.28741 0.24328 0.24354 0.0
H5 H 0.25558 0.32327 0.33178 0.0
H6 H 0.21944 0.35626 0.33252 0.0
H7 H 0.20654 0.34587 0.23642 0.0
H8 H 0.24295 0.31302 0.23588 0.0
H9 H 0.30289 0.23941 0.30457 0.0
H10 H 0.22286 0.26811 0.29314 0.0
O11 O 0.30102 0.30098 0.30953 0.0
H12 H 0.28577 0.19532 0.32681 0.0
H13 H 0.20569 0.2242 0.31587 0.0
C14 C 0.29386 0.28828 0.24861 0.0
C15 C 0.3063 0.31247 0.23638 0.0
C16 C 0.32241 0.31061 0.21135 0.0
C17 C 0.32662 0.28442 0.19817 0.0
C18 C 0.31308 0.26037 0.20967 0.0
C19 C 0.29684 0.2623 0.23467 0.0
C20 C 0.25231 0.31628 0.28366 0.0
C21 C 0.24518 0.3284 0.31081 0.0
C22 C 0.22436 0.34703 0.31125 0.0
C23 C 0.21018 0.35377 0.28452 0.0
C24 C 0.21737 0.34146 0.25732 0.0
C25 C 0.23816 0.32269 0.25694 0.0
C26 C 0.26424 0.2571 0.29738 0.0
C27 C 0.28163 0.23608 0.30654 0.0
C28 C 0.2718 0.21086 0.3191 0.0
C29 C 0.24438 0.20637 0.32306 0.0
C30 C 0.22691 0.22721 0.31321 0.0
C31 C 0.23676 0.25231 0.30021 0.0
P32 P 0.26801 0.71682 0.70577 0.0
H33 H 0.25441 0.66228 0.67839 0.0
H34 H 0.2143 0.63186 0.67932 0.0
H35 H 0.17943 0.68801 0.74174 0.0
H36 H 0.21988 0.71827 0.74104 0.0
H37 H 0.2939 0.77293 0.70897 0.0
H38 H 0.28025 0.81938 0.69148 0.0
H39 H 0.20437 0.78321 0.66154 0.0
H40 H 0.21839 0.73697 0.67809 0.0
H41 H 0.30795 0.67796 0.727 0.0
H42 H 0.27225 0.75227 0.76006 0.0
O43 O 0.28631 0.7067 0.67728 0.0
H44 H 0.33819 0.67736 0.77117 0.0
H45 H 0.30283 0.75211 0.80406 0.0
C46 C 0.23993 0.69269 0.70938 0.0
C47 C 0.23827 0.66794 0.69251 0.0
C48 C 0.21535 0.65056 0.69304 0.0
C49 C 0.19365 0.65781 0.71027 0.0
C50 C 0.19571 0.6822 0.72787 0.0
C51 C 0.21883 0.69934 0.72769 0.0
C52 C 0.25684 0.75155 0.696 0.0
C53 C 0.27411 0.77512 0.69925 0.0
C54 C 0.26625 0.8017 0.68925 0.0
C55 C 0.24109 0.8051 0.67533 0.0
C56 C 0.22389 0.78137 0.67208 0.0
C57 C 0.23181 0.75487 0.68198 0.0
C58 C 0.28846 0.71566 0.73978 0.0
C59 C 0.30661 0.69414 0.7438 0.0
C60 C 0.32378 0.69372 0.76913 0.0
C61 C 0.32311 0.71489 0.79088 0.0
C62 C 0.3041 0.7358 0.78738 0.0
C63 C 0.28667 0.73595 0.76222 0.0
P64 P 0.77967 0.75036 0.22236 0.0
H65 H 0.82186 0.78919 0.24322 0.0
H66 H 0.8243 0.82537 0.28204 0.0
H67 H 0.74308 0.80464 0.30492 0.0
H68 H 0.74085 0.76835 0.26615 0.0
H69 H 0.80131 0.70328 0.19135 0.0
H70 H 0.828 0.66397 0.20854 0.0
H71 H 0.82046 0.68972 0.30097 0.0
H72 H 0.79351 0.72897 0.28359 0.0
H73 H 0.73766 0.78807 0.20503 0.0
H74 H 0.74898 0.6986 0.20477 0.0
O75 O 0.79748 0.76315 0.19375 0.0
H76 H 0.69516 0.78116 0.17818 0.0
H77 H 0.70688 0.69158 0.17671 0.0
C78 C 0.78093 0.77672 0.25123 0.0
C79 C 0.80454 0.79254 0.25652 0.0
C80 C 0.80599 0.81303 0.27886 0.0
C81 C 0.7838 0.81803 0.29631 0.0
C82 C 0.76035 0.8016 0.29144 0.0
C83 C 0.75902 0.7809 0.26927 0.0
C84 C 0.7956 0.71916 0.2361 0.0
C85 C 0.805 0.70018 0.21535 0.0
C86 C 0.82017 0.67766 0.22524 0.0
C87 C 0.82641 0.67381 0.25614 0.0
C88 C 0.81617 0.69232 0.27702 0.0
C89 C 0.8007 0.71472 0.26708 0.0
C90 C 0.7464 0.74388 0.20732 0.0
C91 C 0.7308 0.76686 0.19961 0.0
C92 C 0.70662 0.76288 0.18386 0.0
C93 C 0.6977 0.73582 0.17486 0.0
C94 C 0.71301 0.71267 0.18345 0.0
C95 C 0.7372 0.71669 0.19945 0.0
P96 P 0.77651 0.2232 0.79637 0.0
H97 H 0.73503 0.18344 0.81548 0.0
H98 H 0.69197 0.18954 0.8383 0.0
H99 H 0.70058 0.27941 0.82362 0.0
H100 H 0.74374 0.27315 0.80142 0.0
H101 H 0.81215 0.17752 0.7858 0.0
H102 H 0.81733 0.14635 0.74313 0.0
H103 H 0.75215 0.18571 0.69569 0.0
H104 H 0.74663 0.21661 0.73896 0.0
H105 H 0.79921 0.26758 0.83438 0.0
H106 H 0.79139 0.25151 0.73892 0.0
O107 O 0.79199 0.20931 0.82655 0.0
H108 H 0.82556 0.31047 0.82377 0.0
H109 H 0.81823 0.29397 0.72817 0.0
C110 C 0.74264 0.22779 0.80685 0.0
C111 C 0.72737 0.20439 0.81666 0.0
C112 C 0.70271 0.20792 0.82966 0.0
C113 C 0.69291 0.23501 0.83315 0.0
C114 C 0.70775 0.2583 0.82183 0.0
C115 C 0.73241 0.25472 0.80888 0.0
C116 C 0.77871 0.19904 0.7657 0.0
C117 C 0.79868 0.17921 0.76645 0.0
C118 C 0.80171 0.16146 0.74204 0.0
C119 C 0.78516 0.16367 0.71617 0.0
C120 C 0.76525 0.18372 0.71534 0.0
C121 C 0.76194 0.20116 0.74006 0.0
C122 C 0.79377 0.25602 0.78756 0.0
C123 C 0.80316 0.27328 0.81113 0.0
C124 C 0.81833 0.29772 0.80502 0.0
C125 C 0.82439 0.30541 0.77512 0.0
C126 C 0.81391 0.28869 0.75143 0.0
C127 C 0.79866 0.26422 0.7576 0.0
P128 P 0.78756 0.79005 0.79844 0.0
H129 H 0.7626 0.82538 0.84184 0.0
H130 H 0.71931 0.82281 0.86546 0.0
H131 H 0.70019 0.74502 0.8193 0.0
H132 H 0.74365 0.74784 0.79551 0.0
H133 H 0.8277 0.773 0.75688 0.0
H134 H 0.85515 0.73186 0.75513 0.0
H135 H 0.81234 0.69437 0.82975 0.0
H136 H 0.78601 0.73633 0.83226 0.0
H137 H 0.78904 0.84904 0.78 0.0
H138 H 0.76731 0.76923 0.73981 0.0
O139 O 0.80829 0.81101 0.8186 0.0
H140 H 0.77564 0.87341 0.73357 0.0
H141 H 0.75331 0.79357 0.6931 0.0
C142 C 0.75665 0.7863 0.81773 0.0
C143 C 0.74927 0.80755 0.83712 0.0
C144 C 0.7244 0.80623 0.85035 0.0
C145 C 0.70641 0.78367 0.84431 0.0
C146 C 0.71381 0.76245 0.8247 0.0
C147 C 0.73863 0.76397 0.8112 0.0
C148 C 0.8042 0.75741 0.79403 0.0
C149 C 0.82389 0.75567 0.77247 0.0
C150 C 0.83959 0.73201 0.7715 0.0
C151 C 0.836 0.70952 0.79222 0.0
C152 C 0.81597 0.71129 0.81363 0.0
C153 C 0.8005 0.73514 0.81476 0.0
C154 C 0.77986 0.8073 0.76302 0.0
C155 C 0.78162 0.83672 0.76101 0.0
C156 C 0.77358 0.85067 0.73455 0.0
C157 C 0.76328 0.83547 0.7096 0.0
C158 C 0.76143 0.80589 0.71176 0.0
C159 C 0.76947 0.79194 0.73837 0.0
P160 P 0.778 0.24941 0.21244 0.0
H161 H 0.82211 0.25992 0.25638 0.0
H162 H 0.85676 0.29736 0.25966 0.0
H163 H 0.82078 0.3395 0.18273 0.0
H164 H 0.78622 0.30245 0.17975 0.0
H165 H 0.76475 0.18999 0.22022 0.0
H166 H 0.75394 0.1605 0.26383 0.0
H167 H 0.76126 0.23335 0.32112 0.0
H168 H 0.77252 0.26282 0.277 0.0
H169 H 0.75818 0.25155 0.14999 0.0
H170 H 0.73171 0.27584 0.23733 0.0
O171 O 0.79208 0.22846 0.18801 0.0
H172 H 0.7177 0.26925 0.12635 0.0
H173 H 0.69102 0.29392 0.21371 0.0
C174 C 0.80103 0.27878 0.21845 0.0
C175 C 0.82125 0.27761 0.24078 0.0
C176 C 0.84112 0.29893 0.24252 0.0
C177 C 0.84146 0.32133 0.22141 0.0
C178 C 0.82111 0.32244 0.19919 0.0
C179 C 0.80115 0.30137 0.19771 0.0
C180 C 0.77024 0.22843 0.24551 0.0
C181 C 0.76422 0.19964 0.24218 0.0
C182 C 0.75767 0.18282 0.26715 0.0
C183 C 0.75673 0.19449 0.29608 0.0
C184 C 0.76216 0.2236 0.29924 0.0
C185 C 0.76866 0.24047 0.27409 0.0
C186 C 0.74766 0.26183 0.19547 0.0
C187 C 0.74357 0.26058 0.16412 0.0
C188 C 0.72054 0.27104 0.15058 0.0
C189 C 0.70116 0.28306 0.16815 0.0
C190 C 0.70546 0.28453 0.19961 0.0
C191 C 0.72865 0.27417 0.21313 0.0
P192 P 0.2654 0.32713 0.71919 0.0
H193 H 0.22337 0.29304 0.6886 0.0
H194 H 0.22316 0.24642 0.66569 0.0
H195 H 0.30411 0.23626 0.6974 0.0
H196 H 0.3042 0.28257 0.72026 0.0
H197 H 0.24482 0.38321 0.72062 0.0
H198 H 0.20449 0.40227 0.74011 0.0
H199 H 0.17898 0.31895 0.76986 0.0
H200 H 0.2196 0.29993 0.7499 0.0
H201 H 0.32153 0.34417 0.71669 0.0
H202 H 0.2658 0.31872 0.7849 0.0
O203 O 0.27378 0.34684 0.68924 0.0
H204 H 0.3571 0.34769 0.75524 0.0
H205 H 0.30132 0.32219 0.82362 0.0
C206 C 0.26352 0.29107 0.7069 0.0
C207 C 0.24082 0.28046 0.69132 0.0
C208 C 0.24076 0.25385 0.67815 0.0
C209 C 0.26365 0.23766 0.67975 0.0
C210 C 0.28624 0.24827 0.69563 0.0
C211 C 0.28618 0.27471 0.709 0.0
C212 C 0.23483 0.34007 0.73303 0.0
C213 C 0.23047 0.36897 0.73111 0.0
C214 C 0.20751 0.37991 0.74263 0.0
C215 C 0.18847 0.36216 0.75661 0.0
C216 C 0.19309 0.33314 0.7589 0.0
C217 C 0.21624 0.32223 0.74744 0.0
C218 C 0.29096 0.33166 0.74803 0.0
C219 C 0.31688 0.33971 0.74003 0.0
C220 C 0.33722 0.34153 0.76204 0.0
C221 C 0.33196 0.33534 0.79246 0.0
C222 C 0.30587 0.32753 0.80043 0.0
C223 C 0.28558 0.32548 0.77833 0.0
P224 P 0.27988 0.74319 0.27795 0.0
H225 H 0.33711 0.74702 0.27153 0.0
H226 H 0.36547 0.75905 0.22909 0.0
H227 H 0.29587 0.77564 0.17337 0.0
H228 H 0.26756 0.7635 0.21612 0.0
H229 H 0.27551 0.74659 0.34324 0.0
H230 H 0.27479 0.78609 0.37782 0.0
H231 H 0.27738 0.84415 0.30193 0.0
H232 H 0.27838 0.80442 0.26745 0.0
H233 H 0.26397 0.70504 0.22921 0.0
H234 H 0.22602 0.74687 0.30135 0.0
O235 O 0.29538 0.71776 0.29701 0.0
H236 H 0.22235 0.67923 0.21695 0.0
H237 H 0.18438 0.72104 0.28929 0.0
C238 C 0.30026 0.75351 0.24664 0.0
C239 C 0.32795 0.75326 0.25018 0.0
C240 C 0.34415 0.76042 0.22598 0.0
C241 C 0.3329 0.76812 0.1978 0.0
C242 C 0.30509 0.76937 0.19467 0.0
C243 C 0.2889 0.76237 0.21903 0.0
C244 C 0.27741 0.77258 0.30285 0.0
C245 C 0.2759 0.76782 0.33404 0.0
C246 C 0.27537 0.79044 0.35378 0.0
C247 C 0.27624 0.81832 0.34266 0.0
C248 C 0.27718 0.82297 0.31125 0.0
C249 C 0.27759 0.80026 0.2915 0.0
C250 C 0.248 0.72837 0.26577 0.0
C251 C 0.2465 0.70925 0.24189 0.0
C252 C 0.22268 0.69448 0.23491 0.0
C253 C 0.20006 0.69808 0.25215 0.0
C254 C 0.20151 0.71769 0.27569 0.0
C255 C 0.22528 0.73264 0.28248 0.0
C256 C 0.98623 0.47383 0.2293 0.0
C257 C 0.04776 0.55617 0.23256 0.0
O258 O 0.99291 0.48178 0.25606 0.0
Zn259 Zn 0.01681 0.51396 0.27795 0.0
O260 O 0.99547 0.48725 0.20659 0.0
Zn261 Zn 0.01707 0.51486 0.22925 0.0
O262 O 0.0462 0.48948 0.25064 0.0
O263 O 0.04318 0.49198 0.30011 0.0
O264 O 0.03907 0.54359 0.20895 0.0
O265 O 0.04069 0.54709 0.25861 0.0
O266 O 0.99007 0.53473 0.2987 0.0
O267 O 0.98692 0.5383 0.24901 0.0
C268 C 0.05439 0.48236 0.27718 0.0
C269 C 0.97834 0.54423 0.27506 0.0
C270 C 0.95264 0.47082 0.74717 0.0
C271 C 0.02609 0.53938 0.73244 0.0
O272 O 0.96326 0.48033 0.77177 0.0
Zn273 Zn 0.99392 0.50965 0.78636 0.0
O274 O 0.96097 0.4801 0.72191 0.0
Zn275 Zn 0.98803 0.50628 0.7382 0.0
O276 O 0.01564 0.47786 0.75868 0.0
O277 O 0.01862 0.48517 0.80781 0.0
O278 O 0.0111 0.52881 0.71167 0.0
O279 O 0.0212 0.53381 0.76012 0.0
O280 O 0.97475 0.53817 0.80739 0.0
O281 O 0.96478 0.53711 0.75864 0.0
C282 C 0.02573 0.47186 0.78477 0.0
C283 C 0.96143 0.54741 0.78478 0.0
C284 C 0.22285 0.98469 0.55941 0.0
C285 C 0.22399 0.0514 0.47419 0.0
O286 O 0.20267 0.99398 0.54508 0.0
Zn287 Zn 0.22195 0.01881 0.51734 0.0
O288 O 0.24619 0.99346 0.5522 0.0
Zn289 Zn 0.26475 0.02109 0.52032 0.0
O290 O 0.28221 0.04965 0.54583 0.0
O291 O 0.2385 0.05118 0.54575 0.0
O292 O 0.24703 0.04561 0.48505 0.0
O293 O 0.20332 0.04061 0.4863 0.0
O294 O 0.24164 0.98908 0.49083 0.0
O295 O 0.28506 0.99498 0.49714 0.0
C296 C 0.26133 0.06098 0.55475 0.0
C297 C 0.2652 0.98189 0.48485 0.0
C298 C 0.53517 0.7283 0.03636 0.0
C299 C 0.46567 0.72686 0.95629 0.0
O300 O 0.52455 0.70651 0.02405 0.0
Zn301 Zn 0.50067 0.72629 0.99597 0.0
O302 O 0.52779 0.75269 0.02766 0.0
Zn303 Zn 0.50095 0.77133 0.9958 0.0
O304 O 0.47795 0.79112 0.02186 0.0
O305 O 0.47327 0.74485 0.02567 0.0
O306 O 0.473 0.75168 0.96471 0.0
O307 O 0.47691 0.70564 0.96809 0.0
O308 O 0.52825 0.74647 0.96609 0.0
O309 O 0.52517 0.79244 0.97 0.0
C310 C 0.46652 0.76944 0.03346 0.0
C311 C 0.53588 0.77148 0.95837 0.0
C312 C 0.7459 0.96493 0.53093 0.0
C313 C 0.74798 0.04434 0.4584 0.0
O314 O 0.72564 0.97724 0.51998 0.0
Zn315 Zn 0.74522 0.00425 0.49461 0.0
O316 O 0.76922 0.97323 0.52308 0.0
Zn317 Zn 0.78809 0.00436 0.4947 0.0
O318 O 0.80833 0.02728 0.52403 0.0
O319 O 0.76485 0.02902 0.52865 0.0
O320 O 0.77087 0.03552 0.46641 0.0
O321 O 0.72728 0.03224 0.46908 0.0
O322 O 0.76186 0.97703 0.46278 0.0
O323 O 0.80563 0.98098 0.46606 0.0
C324 C 0.78844 0.03615 0.53774 0.0
C325 C 0.78467 0.9698 0.45403 0.0
C326 C 0.5384 0.31001 0.03922 0.0
C327 C 0.47225 0.31656 0.95696 0.0
O328 O 0.52792 0.28612 0.03157 0.0
Zn329 Zn 0.4991 0.26948 0.99957 0.0
O330 O 0.53108 0.33228 0.0256 0.0
Zn331 Zn 0.50521 0.31425 0.99831 0.0
O332 O 0.47516 0.29893 0.02817 0.0
O333 O 0.47207 0.25266 0.02552 0.0
O334 O 0.48507 0.33682 0.96971 0.0
O335 O 0.47593 0.29123 0.96605 0.0
O336 O 0.52075 0.24598 0.97505 0.0
O337 O 0.53022 0.29138 0.96969 0.0
C338 C 0.4643 0.27543 0.03656 0.0
C339 C 0.53442 0.26583 0.96283 0.0
H340 H 0.17079 0.35564 0.32588 0.0
H341 H 0.19915 0.39628 0.24453 0.0
H342 H 0.13338 0.38701 0.32582 0.0
H343 H 0.16201 0.42775 0.24459 0.0
H344 H 0.07736 0.45458 0.23216 0.0
H345 H 0.11482 0.42409 0.23543 0.0
H346 H 0.12072 0.43603 0.33191 0.0
H347 H 0.08237 0.46646 0.32873 0.0
C348 C 0.1692 0.37149 0.30818 0.0
C349 C 0.18783 0.37335 0.28507 0.0
C350 C 0.14779 0.3895 0.30819 0.0
C351 C 0.14457 0.40977 0.2851 0.0
C352 C 0.16357 0.41199 0.26239 0.0
C353 C 0.18487 0.39395 0.26232 0.0
C354 C 0.08654 0.45081 0.25417 0.0
C355 C 0.07691 0.46316 0.2802 0.0
C356 C 0.10822 0.4334 0.25598 0.0
C357 C 0.12105 0.42789 0.28385 0.0
C358 C 0.1112 0.43978 0.31008 0.0
C359 C 0.08931 0.45727 0.30827 0.0
H360 H 0.14257 0.67457 0.70216 0.0
H361 H 0.18909 0.60083 0.71724 0.0
H362 H 0.10166 0.64509 0.70341 0.0
H363 H 0.14828 0.57151 0.71866 0.0
H364 H 0.07058 0.54391 0.7675 0.0
H365 H 0.11092 0.57186 0.75851 0.0
H366 H 0.07756 0.60146 0.6736 0.0
H367 H 0.03675 0.57271 0.68236 0.0
C368 C 0.144 0.65207 0.70564 0.0
C369 C 0.16894 0.63996 0.70984 0.0
C370 C 0.12068 0.63524 0.70601 0.0
C371 C 0.1219 0.6061 0.71108 0.0
C372 C 0.14685 0.59395 0.71472 0.0
C373 C 0.17015 0.61069 0.71388 0.0
C374 C 0.07175 0.55631 0.74683 0.0
C375 C 0.05044 0.55625 0.72567 0.0
C376 C 0.09495 0.57214 0.74163 0.0
C377 C 0.09734 0.58868 0.71536 0.0
C378 C 0.0761 0.58882 0.69407 0.0
C379 C 0.05289 0.57238 0.699 0.0
H380 H 0.86873 0.67873 0.296 0.0
H381 H 0.82651 0.61917 0.23802 0.0
H382 H 0.90371 0.64499 0.30513 0.0
H383 H 0.86129 0.58544 0.24729 0.0
H384 H 0.94552 0.55876 0.22841 0.0
H385 H 0.90681 0.58734 0.22904 0.0
H386 H 0.91732 0.59745 0.3254 0.0
H387 H 0.95686 0.56853 0.32482 0.0
C388 C 0.86657 0.65816 0.28587 0.0
C389 C 0.84508 0.65174 0.26591 0.0
C390 C 0.8866 0.63883 0.29113 0.0
C391 C 0.88546 0.61274 0.27655 0.0
C392 C 0.86299 0.60562 0.25835 0.0
C393 C 0.84308 0.62491 0.25303 0.0
C394 C 0.9397 0.56691 0.24987 0.0
C395 C 0.95441 0.56138 0.27659 0.0
C396 C 0.91724 0.58312 0.25024 0.0
C397 C 0.90878 0.5944 0.27731 0.0
C398 C 0.92339 0.58899 0.30418 0.0
C399 C 0.94594 0.57242 0.30387 0.0
H400 H 0.86996 0.32058 0.80606 0.0
H401 H 0.82034 0.34555 0.72994 0.0
H402 H 0.89952 0.36114 0.79734 0.0
H403 H 0.85028 0.38638 0.72107 0.0
H404 H 0.92922 0.43946 0.7011 0.0
H405 H 0.89726 0.39964 0.70613 0.0
H406 H 0.89657 0.41219 0.80245 0.0
H407 H 0.92833 0.4513 0.79764 0.0
C408 C 0.8652 0.3349 0.78762 0.0
C409 C 0.84255 0.33003 0.76899 0.0
C410 C 0.8822 0.35813 0.78257 0.0
C411 C 0.87706 0.37716 0.75873 0.0
C412 C 0.85481 0.37201 0.73954 0.0
C413 C 0.83768 0.34867 0.74465 0.0
C414 C 0.92203 0.4338 0.72327 0.0
C415 C 0.93158 0.44836 0.74899 0.0
C416 C 0.9037 0.41108 0.72613 0.0
C417 C 0.89473 0.40253 0.75476 0.0
C418 C 0.90355 0.41784 0.78018 0.0
C419 C 0.92171 0.44039 0.77735 0.0
H420 H 0.25722 0.15196 0.31381 0.0
H421 H 0.20969 0.20325 0.36939 0.0
H422 H 0.24716 0.11118 0.34606 0.0
H423 H 0.20003 0.16262 0.40211 0.0
H424 H 0.18071 0.07985 0.45168 0.0
H425 H 0.18037 0.11472 0.41021 0.0
H426 H 0.2636 0.10141 0.39659 0.0
H427 H 0.26384 0.06682 0.43705 0.0
C428 C 0.24434 0.15438 0.33273 0.0
C429 C 0.23454 0.18081 0.33936 0.0
C430 C 0.23859 0.13108 0.35122 0.0
C431 C 0.22317 0.13377 0.37697 0.0
C432 C 0.21182 0.15977 0.38237 0.0
C433 C 0.21742 0.18308 0.36368 0.0
C434 C 0.19876 0.08417 0.43945 0.0
C435 C 0.22233 0.07074 0.44779 0.0
C436 C 0.19861 0.10418 0.41584 0.0
C437 C 0.22193 0.11076 0.40001 0.0
C438 C 0.24515 0.09656 0.40786 0.0
C439 C 0.24535 0.07687 0.43138 0.0
H440 H 0.33856 0.67176 0.82844 0.0
H441 H 0.35301 0.76024 0.81014 0.0
H442 H 0.3721 0.67356 0.86934 0.0
H443 H 0.38712 0.762 0.84999 0.0
H444 H 0.42887 0.76512 0.94038 0.0
H445 H 0.39363 0.76125 0.90218 0.0
H446 H 0.41825 0.67776 0.88085 0.0
H447 H 0.45298 0.68127 0.92042 0.0
C448 C 0.34903 0.69156 0.83311 0.0
C449 C 0.34301 0.71591 0.81627 0.0
C450 C 0.36838 0.69259 0.85643 0.0
C451 C 0.38239 0.71795 0.86322 0.0
C452 C 0.37639 0.74222 0.84608 0.0
C453 C 0.35685 0.74124 0.8231 0.0
C454 C 0.42677 0.74587 0.92759 0.0
C455 C 0.44388 0.72357 0.9333 0.0
C456 C 0.4066 0.74371 0.90546 0.0
C457 C 0.40316 0.71934 0.88796 0.0
C458 C 0.42005 0.69677 0.89401 0.0
C459 C 0.44009 0.6988 0.91658 0.0
H460 H 0.82331 0.8299 0.33841 0.0
H461 H 0.74701 0.85751 0.30533 0.0
H462 H 0.82465 0.8669 0.37623 0.0
H463 H 0.74855 0.89481 0.34243 0.0
H464 H 0.74386 0.93635 0.43269 0.0
H465 H 0.74472 0.90002 0.39508 0.0
H466 H 0.82876 0.91705 0.38414 0.0
H467 H 0.82806 0.95318 0.42297 0.0
C468 C 0.80695 0.84406 0.33907 0.0
C469 C 0.78494 0.84066 0.31911 0.0
C470 C 0.80776 0.86534 0.36064 0.0
C471 C 0.78664 0.88379 0.36256 0.0
C472 C 0.7649 0.88063 0.34212 0.0
C473 C 0.764 0.85926 0.32079 0.0
C474 C 0.76259 0.9325 0.42227 0.0
C475 C 0.78589 0.94785 0.43073 0.0
C476 C 0.76303 0.91169 0.40049 0.0
C477 C 0.78673 0.90575 0.38623 0.0
C478 C 0.81018 0.92093 0.39482 0.0
C479 C 0.80977 0.94173 0.41693 0.0
H480 H 0.64605 0.20335 0.83176 0.0
H481 H 0.68447 0.27566 0.87437 0.0
H482 H 0.60662 0.20975 0.8617 0.0
H483 H 0.64533 0.28202 0.90402 0.0
H484 H 0.56326 0.30422 0.93009 0.0
H485 H 0.59995 0.29615 0.89732 0.0
H486 H 0.59133 0.20668 0.91431 0.0
H487 H 0.55393 0.21474 0.947 0.0
C488 C 0.64612 0.22057 0.84751 0.0
C489 C 0.66837 0.23916 0.85041 0.0
C490 C 0.62355 0.22419 0.8647 0.0
C491 C 0.62272 0.2465 0.88513 0.0
C492 C 0.64502 0.26496 0.88805 0.0
C493 C 0.6675 0.26135 0.87095 0.0
C494 C 0.56902 0.28275 0.92683 0.0
C495 C 0.55573 0.26013 0.94144 0.0
C496 C 0.59021 0.27816 0.90809 0.0
C497 C 0.59885 0.25081 0.90345 0.0
C498 C 0.58509 0.22801 0.91729 0.0
C499 C 0.56374 0.23263 0.93612 0.0
H500 H 0.24999 0.85729 0.70004 0.0
H501 H 0.21509 0.81589 0.62161 0.0
H502 H 0.24084 0.903 0.6769 0.0
H503 H 0.20589 0.8614 0.59866 0.0
H504 H 0.18097 0.94717 0.5682 0.0
H505 H 0.18099 0.90501 0.6007 0.0
H506 H 0.25976 0.92879 0.6343 0.0
H507 H 0.25958 0.97071 0.60244 0.0
C508 C 0.24026 0.85792 0.67795 0.0
C509 C 0.23345 0.83291 0.66261 0.0
C510 C 0.23492 0.8841 0.66475 0.0
C511 C 0.22267 0.88586 0.6359 0.0
C512 C 0.21493 0.86083 0.62111 0.0
C513 C 0.22028 0.83469 0.63427 0.0
C514 C 0.19797 0.94368 0.58311 0.0
C515 C 0.22036 0.96209 0.58256 0.0
C516 C 0.19809 0.91945 0.60152 0.0
C517 C 0.22048 0.91342 0.61989 0.0
C518 C 0.2421 0.93285 0.62067 0.0
C519 C 0.24206 0.95683 0.6022 0.0
H520 H 0.68218 0.7694 0.12766 0.0
H521 H 0.65847 0.69382 0.17664 0.0
H522 H 0.64211 0.76524 0.0962 0.0
H523 H 0.61815 0.68947 0.14446 0.0
H524 H 0.5636 0.68202 0.05467 0.0
H525 H 0.60256 0.6817 0.0893 0.0
H526 H 0.59425 0.77031 0.10507 0.0
H527 H 0.55597 0.77078 0.0708 0.0
C528 C 0.66829 0.75201 0.13196 0.0
C529 C 0.67338 0.73226 0.15513 0.0
C530 C 0.64532 0.74957 0.11379 0.0
C531 C 0.62677 0.72724 0.1181 0.0
C532 C 0.63212 0.70688 0.14058 0.0
C533 C 0.65519 0.7094 0.15898 0.0
C534 C 0.56997 0.7013 0.06584 0.0
C535 C 0.55686 0.72649 0.05961 0.0
C536 C 0.59221 0.70111 0.08568 0.0
C537 C 0.60173 0.7261 0.09949 0.0
C538 C 0.5878 0.75085 0.09427 0.0
C539 C 0.56574 0.75105 0.07464 0.0
H540 H 0.78848 0.10669 0.7176 0.0
H541 H 0.78969 0.17828 0.65657 0.0
H542 H 0.79278 0.07522 0.6749 0.0
H543 H 0.79435 0.1467 0.61379 0.0
H544 H 0.82717 0.07668 0.55089 0.0
H545 H 0.82905 0.1081 0.59474 0.0
H546 H 0.75872 0.06595 0.62924 0.0
H547 H 0.75646 0.03532 0.58557 0.0
C548 C 0.78997 0.11567 0.69508 0.0
C549 C 0.7886 0.14485 0.6903 0.0
C550 C 0.79241 0.09771 0.67071 0.0
C551 C 0.79402 0.10862 0.64117 0.0
C552 C 0.79342 0.13786 0.63642 0.0
C553 C 0.79048 0.15583 0.66078 0.0
C554 C 0.81234 0.07408 0.56805 0.0
C555 C 0.79163 0.05371 0.56487 0.0
C556 C 0.81332 0.09206 0.59293 0.0
C557 C 0.79403 0.08932 0.61527 0.0
C558 C 0.77391 0.06836 0.61243 0.0
C559 C 0.77257 0.05095 0.58739 0.0
H560 H 0.32317 0.25136 0.14748 0.0
H561 H 0.37501 0.31164 0.19411 0.0
H562 H 0.35598 0.24776 0.10806 0.0
H563 H 0.40742 0.30822 0.15483 0.0
H564 H 0.4447 0.32093 0.06384 0.0
H565 H 0.41097 0.32199 0.10179 0.0
H566 H 0.40195 0.2314 0.09934 0.0
H567 H 0.43583 0.23027 0.06067 0.0
C568 C 0.34156 0.26374 0.14942 0.0
C569 C 0.34626 0.28207 0.17382 0.0
C570 C 0.36036 0.26164 0.12685 0.0
C571 C 0.38421 0.27788 0.12817 0.0
C572 C 0.38902 0.29585 0.15278 0.0
C573 C 0.37034 0.29789 0.17528 0.0
C574 C 0.43558 0.30114 0.07125 0.0
C575 C 0.44314 0.27547 0.05926 0.0
C576 C 0.41629 0.30178 0.09319 0.0
C577 C 0.40394 0.27678 0.10382 0.0
C578 C 0.41103 0.25105 0.09149 0.0
C579 C 0.43051 0.25039 0.06947 0.0
H580 H 0.85695 0.68422 0.74325 0.0
H581 H 0.85528 0.67867 0.84065 0.0
H582 H 0.88718 0.64567 0.74286 0.0
H583 H 0.88399 0.63857 0.84009 0.0
H584 H 0.9584 0.58603 0.83013 0.0
H585 H 0.92792 0.62484 0.83254 0.0
H586 H 0.88935 0.59716 0.74925 0.0
H587 H 0.92043 0.55953 0.74627 0.0
C588 C 0.86292 0.67476 0.76464 0.0
C589 C 0.85358 0.6848 0.79197 0.0
C590 C 0.88002 0.65222 0.76439 0.0
C591 C 0.88805 0.63869 0.79145 0.0
C592 C 0.87856 0.64856 0.8188 0.0
C593 C 0.86166 0.67136 0.81907 0.0
C594 C 0.94332 0.58828 0.81245 0.0
C595 C 0.94202 0.56988 0.78788 0.0
C596 C 0.92573 0.61046 0.81385 0.0
C597 C 0.90621 0.61448 0.79091 0.0
C598 C 0.90449 0.59537 0.76692 0.0
C599 C 0.92225 0.57357 0.76531 0.0
H600 H 0.862 0.35049 0.26982 0.0
H601 H 0.87034 0.34111 0.17385 0.0
H602 H 0.89745 0.38666 0.27033 0.0
H603 H 0.90652 0.37653 0.17433 0.0
H604 H 0.95203 0.46203 0.18146 0.0
H605 H 0.91718 0.42499 0.17903 0.0
H606 H 0.94334 0.39367 0.26662 0.0
H607 H 0.97707 0.43129 0.26948 0.0
C608 C 0.87167 0.35597 0.2489 0.0
C609 C 0.86338 0.34303 0.22182 0.0
C610 C 0.89211 0.37663 0.24913 0.0
C611 C 0.90509 0.38455 0.22236 0.0
C612 C 0.8968 0.3714 0.19529 0.0
C613 C 0.87611 0.351 0.19502 0.0
C614 C 0.9504 0.44702 0.2 0.0
C615 C 0.96713 0.44969 0.22574 0.0
C616 C 0.93046 0.42572 0.19864 0.0
C617 C 0.92711 0.40642 0.22282 0.0
C618 C 0.94471 0.40853 0.24793 0.0
C619 C 0.96427 0.43 0.24947 0.0
H620 H 0.18304 0.41115 0.78733 0.0
H621 H 0.13759 0.34021 0.75092 0.0
H622 H 0.14202 0.43383 0.7992 0.0
H623 H 0.09651 0.36248 0.76377 0.0
H624 H 0.03614 0.43243 0.74341 0.0
H625 H 0.0742 0.40264 0.74205 0.0
H626 H 0.10159 0.43364 0.82903 0.0
H627 H 0.06329 0.46406 0.8302 0.0
C628 C 0.16428 0.40022 0.78221 0.0
C629 C 0.16361 0.37405 0.76773 0.0
C630 C 0.14074 0.41308 0.78939 0.0
C631 C 0.11593 0.40009 0.78224 0.0
C632 C 0.11529 0.37323 0.76924 0.0
C633 C 0.13885 0.36034 0.76211 0.0
C634 C 0.05003 0.43266 0.76251 0.0
C635 C 0.04678 0.45082 0.78681 0.0
C636 C 0.07181 0.41535 0.76183 0.0
C637 C 0.09105 0.41577 0.78538 0.0
C638 C 0.08724 0.43302 0.81039 0.0
C639 C 0.06522 0.45029 0.81118 0.0
H640 H 0.17484 0.68393 0.19839 0.0
H641 H 0.17088 0.67039 0.29472 0.0
H642 H 0.1359 0.65236 0.19078 0.0
H643 H 0.13277 0.63845 0.28731 0.0
H644 H 0.05304 0.59918 0.27184 0.0
H645 H 0.08759 0.63603 0.27412 0.0
H646 H 0.12131 0.6041 0.19321 0.0
H647 H 0.08563 0.56787 0.19025 0.0
C648 C 0.16564 0.67419 0.21791 0.0
C649 C 0.17577 0.67987 0.24718 0.0
C650 C 0.14339 0.65601 0.21357 0.0
C651 C 0.13093 0.64291 0.23841 0.0
C652 C 0.14125 0.64865 0.26762 0.0
C653 C 0.16322 0.66697 0.27194 0.0
C654 C 0.06763 0.60029 0.25428 0.0
C655 C 0.06679 0.58051 0.23101 0.0
C656 C 0.08762 0.62129 0.25572 0.0
C657 C 0.10773 0.62277 0.23427 0.0
C658 C 0.10615 0.60376 0.21008 0.0
C659 C 0.08574 0.58294 0.20837 0.0
H660 H 0.77203 0.82105 0.65112 0.0
H661 H 0.73598 0.88426 0.70416 0.0
H662 H 0.7627 0.84842 0.6053 0.0
H663 H 0.72755 0.91211 0.65849 0.0
H664 H 0.70411 0.95125 0.56794 0.0
H665 H 0.70365 0.9163 0.6093 0.0
H666 H 0.78243 0.89218 0.58631 0.0
H667 H 0.78273 0.92642 0.54528 0.0
C668 C 0.76177 0.84057 0.65298 0.0
C669 C 0.75509 0.85063 0.68138 0.0
C670 C 0.75662 0.85639 0.62674 0.0
C671 C 0.74463 0.88262 0.62824 0.0
C672 C 0.73666 0.89195 0.65646 0.0
C673 C 0.74184 0.87615 0.6827 0.0
C674 C 0.72106 0.93807 0.57147 0.0
C675 C 0.74352 0.94175 0.5535 0.0
C676 C 0.72089 0.91821 0.59523 0.0
C677 C 0.74304 0.90147 0.60116 0.0
C678 C 0.7649 0.90439 0.58223 0.0
C679 C 0.76515 0.92427 0.5588 0.0
H680 H 0.65036 0.27488 0.18754 0.0
H681 H 0.69561 0.31362 0.11569 0.0
H682 H 0.60917 0.28644 0.16059 0.0
H683 H 0.65446 0.32443 0.08836 0.0
H684 H 0.57479 0.3529 0.0519 0.0
H685 H 0.61303 0.35124 0.0872 0.0
H686 H 0.58847 0.26693 0.11444 0.0
H687 H 0.55047 0.26866 0.0797 0.0
C688 C 0.65151 0.28628 0.16624 0.0
C689 C 0.67623 0.29303 0.15357 0.0
C690 C 0.62793 0.2927 0.1507 0.0
C691 C 0.62855 0.30611 0.12221 0.0
C692 C 0.65328 0.31425 0.11033 0.0
C693 C 0.67685 0.30774 0.12582 0.0
C694 C 0.57737 0.33424 0.06583 0.0
C695 C 0.55975 0.31083 0.06283 0.0
C696 C 0.59931 0.33323 0.0859 0.0
C697 C 0.60381 0.30892 0.10356 0.0
C698 C 0.58545 0.28609 0.10147 0.0
C699 C 0.56375 0.28701 0.08132 0.0
H700 H 0.22612 0.19468 0.67885 0.0
H701 H 0.30286 0.21926 0.64421 0.0
H702 H 0.22669 0.15085 0.65099 0.0
H703 H 0.30321 0.17587 0.61561 0.0
H704 H 0.30502 0.08468 0.58478 0.0
H705 H 0.30638 0.12595 0.61724 0.0
H706 H 0.22214 0.13527 0.60088 0.0
H707 H 0.22066 0.09384 0.56966 0.0
C708 C 0.24306 0.19074 0.66515 0.0
C709 C 0.2644 0.21045 0.66368 0.0
C710 C 0.24339 0.16565 0.64907 0.0
C711 C 0.26493 0.15978 0.63077 0.0
C712 C 0.28647 0.17937 0.62975 0.0
C713 C 0.28624 0.20433 0.64608 0.0
C714 C 0.28682 0.09551 0.5883 0.0
C715 C 0.26275 0.08586 0.57469 0.0
C716 C 0.28759 0.11927 0.60678 0.0
C717 C 0.26433 0.13399 0.61188 0.0
C718 C 0.24035 0.12423 0.59813 0.0
C719 C 0.23955 0.10048 0.57996 0.0
H720 H 0.38018 0.79827 0.1958 0.0
H721 H 0.32483 0.74888 0.14043 0.0
H722 H 0.4111 0.80126 0.15419 0.0
H723 H 0.35545 0.75239 0.09871 0.0
H724 H 0.43296 0.72792 0.05407 0.0
H725 H 0.39908 0.73107 0.09174 0.0
H726 H 0.41797 0.81982 0.10128 0.0
H727 H 0.45226 0.8167 0.06335 0.0
C728 C 0.3745 0.78835 0.17463 0.0
C729 C 0.35017 0.77313 0.17148 0.0
C730 C 0.39209 0.79029 0.15073 0.0
C731 C 0.38578 0.77687 0.12329 0.0
C732 C 0.36097 0.76268 0.11973 0.0
C733 C 0.34333 0.7609 0.14353 0.0
C734 C 0.4299 0.74818 0.06406 0.0
C735 C 0.4454 0.77206 0.05577 0.0
C736 C 0.41029 0.75001 0.08549 0.0
C737 C 0.40576 0.77572 0.09935 0.0
C738 C 0.42111 0.79971 0.09102 0.0
C739 C 0.44065 0.79793 0.06926 0.0
H740 H 0.78096 0.19629 0.35215 0.0
H741 H 0.72025 0.15044 0.30046 0.0
H742 H 0.7757 0.1627 0.39378 0.0
H743 H 0.71576 0.11618 0.34169 0.0
H744 H 0.70362 0.06728 0.43091 0.0
H745 H 0.70268 0.10642 0.39418 0.0
H746 H 0.78831 0.11441 0.40031 0.0
H747 H 0.78926 0.07614 0.43684 0.0
C748 C 0.7662 0.1793 0.3498 0.0
C749 C 0.75126 0.17592 0.32277 0.0
C750 C 0.76338 0.15984 0.37357 0.0
C751 C 0.74558 0.13648 0.37094 0.0
C752 C 0.7296 0.13393 0.34455 0.0
C753 C 0.73242 0.15341 0.32076 0.0
C754 C 0.72218 0.07758 0.42452 0.0
C755 C 0.74649 0.06848 0.43682 0.0
C756 C 0.72166 0.09992 0.40342 0.0
C757 C 0.74542 0.11371 0.39443 0.0
C758 C 0.76959 0.10472 0.40709 0.0
C759 C 0.77012 0.08249 0.42792 0.0
H760 H 0.33239 0.35791 0.84903 0.0
H761 H 0.38086 0.3132 0.78804 0.0
H762 H 0.36771 0.35566 0.88801 0.0
H763 H 0.41613 0.31124 0.82677 0.0
H764 H 0.45189 0.27819 0.91708 0.0
H765 H 0.41914 0.28517 0.8766 0.0
H766 H 0.41599 0.37302 0.89911 0.0
H767 H 0.44912 0.36608 0.93994 0.0
C768 C 0.35064 0.34777 0.84393 0.0
C769 C 0.35385 0.33565 0.81554 0.0
C770 C 0.37091 0.34672 0.8661 0.0
C771 C 0.3946 0.33322 0.8604 0.0
C772 C 0.39799 0.32162 0.83183 0.0
C773 C 0.37788 0.32292 0.8096 0.0
C774 C 0.44434 0.29906 0.91341 0.0
C775 C 0.45307 0.32159 0.93175 0.0
C776 C 0.42569 0.30307 0.89007 0.0
C777 C 0.41509 0.32964 0.88467 0.0
C778 C 0.42379 0.35228 0.90291 0.0
C779 C 0.44281 0.34834 0.92612 0.0
H780 H 0.30603 0.86775 0.34093 0.0
H781 H 0.2459 0.82318 0.39238 0.0
H782 H 0.30482 0.90739 0.37549 0.0
H783 H 0.24526 0.86226 0.42722 0.0
H784 H 0.22597 0.94939 0.45847 0.0
H785 H 0.22998 0.91045 0.42446 0.0
H786 H 0.31545 0.92108 0.42927 0.0
H787 H 0.31147 0.96078 0.46352 0.0
C788 C 0.29256 0.86641 0.35959 0.0
C789 C 0.27596 0.84234 0.36382 0.0
C790 C 0.29212 0.88897 0.37957 0.0
C791 C 0.2749 0.88801 0.40404 0.0
C792 C 0.25855 0.8638 0.4084 0.0
C793 C 0.25908 0.84127 0.38858 0.0
C794 C 0.24571 0.94357 0.4524 0.0
C795 C 0.26843 0.95823 0.4639 0.0
C796 C 0.24798 0.92104 0.43297 0.0
C797 C 0.27302 0.91247 0.42436 0.0
C798 C 0.29585 0.92728 0.43543 0.0
C799 C 0.29359 0.94991 0.45513 0.0
H800 H 0.67137 0.82597 0.84883 0.0
H801 H 0.68203 0.73852 0.87193 0.0
H802 H 0.62848 0.82416 0.87326 0.0
H803 H 0.63963 0.73677 0.89712 0.0
H804 H 0.55363 0.73333 0.91916 0.0
H805 H 0.59321 0.73704 0.88899 0.0
H806 H 0.60935 0.8213 0.92172 0.0
H807 H 0.56898 0.81789 0.95102 0.0
C808 C 0.66457 0.8064 0.85931 0.0
C809 C 0.68003 0.78237 0.85848 0.0
C810 C 0.64003 0.80536 0.87339 0.0
C811 C 0.63048 0.78033 0.88721 0.0
C812 C 0.646 0.75628 0.88621 0.0
C813 C 0.67038 0.75726 0.87187 0.0
C814 C 0.56546 0.75279 0.91964 0.0
C815 C 0.55827 0.77527 0.93761 0.0
C816 C 0.58831 0.75484 0.90251 0.0
C817 C 0.6048 0.77929 0.90322 0.0
C818 C 0.59705 0.80221 0.92037 0.0
C819 C 0.57393 0.80027 0.93725 0.0
loop_
_geom_bond_atom_site_label_1
_geom_bond_atom_site_label_2
_geom_bond_distance
_geom_bond_site_symmetry_2
_ccdc_geom_bond_type
P0 O11 1.490 . S
P0 C14 1.812 . S
P0 C20 1.803 . S
P0 C26 1.819 . S
H1 C15 0.941 . S
H2 C16 0.939 . S
H3 C18 0.940 . S
H4 C19 0.940 . S
H5 C21 0.939 . S
H6 C22 0.942 . S
H7 C24 0.940 . S
H8 C25 0.939 . S
H9 C27 0.941 . S
H10 C31 0.939 . S
O11 P0 1.490 . S
H12 C28 0.939 . S
H13 C30 0.940 . S
C14 P0 1.812 . S
C14 C15 1.389 . S
C14 C19 1.391 . S
C15 H1 0.941 . S
C15 C14 1.389 . S
C15 C16 1.397 . S
C16 H2 0.939 . S
C16 C15 1.397 . S
C16 C17 1.378 . S
C17 C16 1.378 . S
C17 C18 1.378 . S
C18 H3 0.940 . S
C18 C17 1.378 . S
C18 C19 1.396 . S
C19 H4 0.940 . S
C19 C14 1.391 . S
C19 C18 1.396 . S
C20 P0 1.803 . S
C20 C21 1.378 . S
C20 C25 1.400 . S
C21 H5 0.939 . S
C21 C20 1.378 . S
C21 C22 1.361 . S
C22 H6 0.942 . S
C22 C21 1.361 . S
C22 C23 1.369 . S
C23 C22 1.369 . S
C23 C24 1.404 . S
C24 H7 0.940 . S
C24 C23 1.404 . S
C24 C25 1.389 . S
C25 H8 0.939 . S
C25 C20 1.400 . S
C25 C24 1.389 . S
C26 P0 1.819 . S
C26 C27 1.391 . S
C26 C31 1.391 . S
C27 H9 0.941 . S
C27 C26 1.391 . S
C27 C28 1.396 . S
C28 H12 0.939 . S
C28 C27 1.396 . S
C28 C29 1.397 . S
C29 C28 1.397 . S
C29 C30 1.385 . S
C30 H13 0.940 . S
C30 C29 1.385 . S
C30 C31 1.388 . S
C31 H10 0.939 . S
C31 C26 1.391 . S
C31 C30 1.388 . S
P32 O43 1.490 . S
P32 C46 1.812 . S
P32 C52 1.803 . S
P32 C58 1.819 . S
H33 C47 0.941 . S
H34 C48 0.939 . S
H35 C50 0.940 . S
H36 C51 0.940 . S
H37 C53 0.939 . S
H38 C54 0.942 . S
H39 C56 0.940 . S
H40 C57 0.939 . S
H41 C59 0.941 . S
H42 C63 0.939 . S
O43 P32 1.490 . S
H44 C60 0.939 . S
H45 C62 0.940 . S
C46 P32 1.812 . S
C46 C47 1.389 . S
C46 C51 1.391 . S
C47 H33 0.941 . S
C47 C46 1.389 . S
C47 C48 1.397 . S
C48 H34 0.939 . S
C48 C47 1.397 . S
C48 C49 1.378 . S
C49 C48 1.378 . S
C49 C50 1.378 . S
C50 H35 0.940 . S
C50 C49 1.378 . S
C50 C51 1.396 . S
C51 H36 0.940 . S
C51 C46 1.391 . S
C51 C50 1.396 . S
C52 P32 1.803 . S
C52 C53 1.378 . S
C52 C57 1.400 . S
C53 H37 0.939 . S
C53 C52 1.378 . S
C53 C54 1.361 . S
C54 H38 0.942 . S
C54 C53 1.361 . S
C54 C55 1.369 . S
C55 C54 1.369 . S
C55 C56 1.404 . S
C56 H39 0.940 . S
C56 C55 1.404 . S
C56 C57 1.389 . S
C57 H40 0.939 . S
C57 C52 1.400 . S
C57 C56 1.389 . S
C58 P32 1.819 . S
C58 C59 1.391 . S
C58 C63 1.391 . S
C59 H41 0.941 . S
C59 C58 1.391 . S
C59 C60 1.396 . S
C60 H44 0.939 . S
C60 C59 1.396 . S
C60 C61 1.397 . S
C61 C60 1.397 . S
C61 C62 1.385 . S
C62 H45 0.940 . S
C62 C61 1.385 . S
C62 C63 1.388 . S
C63 H42 0.939 . S
C63 C58 1.391 . S
C63 C62 1.388 . S
P64 O75 1.490 . S
P64 C78 1.812 . S
P64 C84 1.803 . S
P64 C90 1.819 . S
H65 C79 0.941 . S
H66 C80 0.939 . S
H67 C82 0.940 . S
H68 C83 0.940 . S
H69 C85 0.939 . S
H70 C86 0.942 . S
H71 C88 0.940 . S
H72 C89 0.939 . S
H73 C91 0.941 . S
H74 C95 0.939 . S
O75 P64 1.490 . S
H76 C92 0.939 . S
H77 C94 0.940 . S
C78 P64 1.812 . S
C78 C79 1.389 . S
C78 C83 1.391 . S
C79 H65 0.941 . S
C79 C78 1.389 . S
C79 C80 1.397 . S
C80 H66 0.939 . S
C80 C79 1.397 . S
C80 C81 1.378 . S
C81 C80 1.378 . S
C81 C82 1.378 . S
C82 H67 0.940 . S
C82 C81 1.378 . S
C82 C83 1.396 . S
C83 H68 0.940 . S
C83 C78 1.391 . S
C83 C82 1.396 . S
C84 P64 1.803 . S
C84 C85 1.378 . S
C84 C89 1.400 . S
C85 H69 0.939 . S
C85 C84 1.378 . S
C85 C86 1.361 . S
C86 H70 0.942 . S
C86 C85 1.361 . S
C86 C87 1.369 . S
C87 C86 1.369 . S
C87 C88 1.404 . S
C88 H71 0.940 . S
C88 C87 1.404 . S
C88 C89 1.389 . S
C89 H72 0.939 . S
C89 C84 1.400 . S
C89 C88 1.389 . S
C90 P64 1.819 . S
C90 C91 1.391 . S
C90 C95 1.391 . S
C91 H73 0.941 . S
C91 C90 1.391 . S
C91 C92 1.396 . S
C92 H76 0.939 . S
C92 C91 1.396 . S
C92 C93 1.397 . S
C93 C92 1.397 . S
C93 C94 1.385 . S
C94 H77 0.940 . S
C94 C93 1.385 . S
C94 C95 1.388 . S
C95 H74 0.939 . S
C95 C90 1.391 . S
C95 C94 1.388 . S
P96 O107 1.490 . S
P96 C110 1.812 . S
P96 C116 1.803 . S
P96 C122 1.819 . S
H97 C111 0.941 . S
H98 C112 0.939 . S
H99 C114 0.940 . S
H100 C115 0.940 . S
H101 C117 0.939 . S
H102 C118 0.942 . S
H103 C120 0.940 . S
H104 C121 0.939 . S
H105 C123 0.941 . S
H106 C127 0.939 . S
O107 P96 1.490 . S
H108 C124 0.939 . S
H109 C126 0.940 . S
C110 P96 1.812 . S
C110 C111 1.389 . S
C110 C115 1.391 . S
C111 H97 0.941 . S
C111 C110 1.389 . S
C111 C112 1.397 . S
C112 H98 0.939 . S
C112 C111 1.397 . S
C112 C113 1.378 . S
C113 C112 1.378 . S
C113 C114 1.378 . S
C114 H99 0.940 . S
C114 C113 1.378 . S
C114 C115 1.396 . S
C115 H100 0.940 . S
C115 C110 1.391 . S
C115 C114 1.396 . S
C116 P96 1.803 . S
C116 C117 1.378 . S
C116 C121 1.400 . S
C117 H101 0.939 . S
C117 C116 1.378 . S
C117 C118 1.361 . S
C118 H102 0.942 . S
C118 C117 1.361 . S
C118 C119 1.369 . S
C119 C118 1.369 . S
C119 C120 1.404 . S
C120 H103 0.940 . S
C120 C119 1.404 . S
C120 C121 1.389 . S
C121 H104 0.939 . S
C121 C116 1.400 . S
C121 C120 1.389 . S
C122 P96 1.819 . S
C122 C123 1.391 . S
C122 C127 1.391 . S
C123 H105 0.941 . S
C123 C122 1.391 . S
C123 C124 1.396 . S
C124 H108 0.939 . S
C124 C123 1.396 . S
C124 C125 1.397 . S
C125 C124 1.397 . S
C125 C126 1.385 . S
C126 H109 0.940 . S
C126 C125 1.385 . S
C126 C127 1.388 . S
C127 H106 0.939 . S
C127 C122 1.391 . S
C127 C126 1.388 . S
P128 O139 1.490 . S
P128 C142 1.812 . S
P128 C148 1.803 . S
P128 C154 1.819 . S
H129 C143 0.941 . S
H130 C144 0.939 . S
H131 C146 0.940 . S
H132 C147 0.940 . S
H133 C149 0.939 . S
H134 C150 0.942 . S
H135 C152 0.940 . S
H136 C153 0.939 . S
H137 C155 0.941 . S
H138 C159 0.939 . S
O139 P128 1.490 . S
H140 C156 0.939 . S
H141 C158 0.940 . S
C142 P128 1.812 . S
C142 C143 1.389 . S
C142 C147 1.391 . S
C143 H129 0.941 . S
C143 C142 1.389 . S
C143 C144 1.397 . S
C144 H130 0.939 . S
C144 C143 1.397 . S
C144 C145 1.378 . S
C145 C144 1.378 . S
C145 C146 1.378 . S
C146 H131 0.940 . S
C146 C145 1.378 . S
C146 C147 1.396 . S
C147 H132 0.940 . S
C147 C142 1.391 . S
C147 C146 1.396 . S
C148 P128 1.803 . S
C148 C149 1.378 . S
C148 C153 1.400 . S
C149 H133 0.939 . S
C149 C148 1.378 . S
C149 C150 1.361 . S
C150 H134 0.942 . S
C150 C149 1.361 . S
C150 C151 1.369 . S
C151 C150 1.369 . S
C151 C152 1.404 . S
C152 H135 0.940 . S
C152 C151 1.404 . S
C152 C153 1.389 . S
C153 H136 0.939 . S
C153 C148 1.400 . S
C153 C152 1.389 . S
C154 P128 1.819 . S
C154 C155 1.391 . S
C154 C159 1.391 . S
C155 H137 0.941 . S
C155 C154 1.391 . S
C155 C156 1.396 . S
C156 H140 0.939 . S
C156 C155 1.396 . S
C156 C157 1.397 . S
C157 C156 1.397 . S
C157 C158 1.385 . S
C158 H141 0.940 . S
C158 C157 1.385 . S
C158 C159 1.388 . S
C159 H138 0.939 . S
C159 C154 1.391 . S
C159 C158 1.388 . S
P160 O171 1.490 . S
P160 C174 1.812 . S
P160 C180 1.803 . S
P160 C186 1.819 . S
H161 C175 0.941 . S
H162 C176 0.939 . S
H163 C178 0.940 . S
H164 C179 0.940 . S
H165 C181 0.939 . S
H166 C182 0.942 . S
H167 C184 0.940 . S
H168 C185 0.939 . S
H169 C187 0.941 . S
H170 C191 0.939 . S
O171 P160 1.490 . S
H172 C188 0.939 . S
H173 C190 0.940 . S
C174 P160 1.812 . S
C174 C175 1.389 . S
C174 C179 1.391 . S
C175 H161 0.941 . S
C175 C174 1.389 . S
C175 C176 1.397 . S
C176 H162 0.939 . S
C176 C175 1.397 . S
C176 C177 1.378 . S
C177 C176 1.378 . S
C177 C178 1.378 . S
C178 H163 0.940 . S
C178 C177 1.378 . S
C178 C179 1.396 . S
C179 H164 0.940 . S
C179 C174 1.391 . S
C179 C178 1.396 . S
C180 P160 1.803 . S
C180 C181 1.378 . S
C180 C185 1.400 . S
C181 H165 0.939 . S
C181 C180 1.378 . S
C181 C182 1.361 . S
C182 H166 0.942 . S
C182 C181 1.361 . S
C182 C183 1.369 . S
C183 C182 1.369 . S
C183 C184 1.404 . S
C184 H167 0.940 . S
C184 C183 1.404 . S
C184 C185 1.389 . S
C185 H168 0.939 . S
C185 C180 1.400 . S
C185 C184 1.389 . S
C186 P160 1.819 . S
C186 C187 1.391 . S
C186 C191 1.391 . S
C187 H169 0.941 . S
C187 C186 1.391 . S
C187 C188 1.396 . S
C188 H172 0.939 . S
C188 C187 1.396 . S
C188 C189 1.397 . S
C189 C188 1.397 . S
C189 C190 1.385 . S
C190 H173 0.940 . S
C190 C189 1.385 . S
C190 C191 1.388 . S
C191 H170 0.939 . S
C191 C186 1.391 . S
C191 C190 1.388 . S
P192 O203 1.490 . S
P192 C206 1.812 . S
P192 C212 1.803 . S
P192 C218 1.819 . S
H193 C207 0.941 . S
H194 C208 0.939 . S
H195 C210 0.940 . S
H196 C211 0.940 . S
H197 C213 0.939 . S
H198 C214 0.942 . S
H199 C216 0.940 . S
H200 C217 0.939 . S
H201 C219 0.941 . S
H202 C223 0.939 . S
O203 P192 1.490 . S
H204 C220 0.939 . S
H205 C222 0.940 . S
C206 P192 1.812 . S
C206 C207 1.389 . S
C206 C211 1.391 . S
C207 H193 0.941 . S
C207 C206 1.389 . S
C207 C208 1.397 . S
C208 H194 0.939 . S
C208 C207 1.397 . S
C208 C209 1.378 . S
C209 C208 1.378 . S
C209 C210 1.378 . S
C210 H195 0.940 . S
C210 C209 1.378 . S
C210 C211 1.396 . S
C211 H196 0.940 . S
C211 C206 1.391 . S
C211 C210 1.396 . S
C212 P192 1.803 . S
C212 C213 1.378 . S
C212 C217 1.400 . S
C213 H197 0.939 . S
C213 C212 1.378 . S
C213 C214 1.361 . S
C214 H198 0.942 . S
C214 C213 1.361 . S
C214 C215 1.369 . S
C215 C214 1.369 . S
C215 C216 1.404 . S
C216 H199 0.940 . S
C216 C215 1.404 . S
C216 C217 1.389 . S
C217 H200 0.939 . S
C217 C212 1.400 . S
C217 C216 1.389 . S
C218 P192 1.819 . S
C218 C219 1.391 . S
C218 C223 1.391 . S
C219 H201 0.941 . S
C219 C218 1.391 . S
C219 C220 1.396 . S
C220 H204 0.939 . S
C220 C219 1.396 . S
C220 C221 1.397 . S
C221 C220 1.397 . S
C221 C222 1.385 . S
C222 H205 0.940 . S
C222 C221 1.385 . S
C222 C223 1.388 . S
C223 H202 0.939 . S
C223 C218 1.391 . S
C223 C222 1.388 . S
P224 O235 1.490 . S
P224 C238 1.812 . S
P224 C244 1.803 . S
P224 C250 1.819 . S
H225 C239 0.941 . S
H226 C240 0.939 . S
H227 C242 0.940 . S
H228 C243 0.940 . S
H229 C245 0.939 . S
H230 C246 0.942 . S
H231 C248 0.940 . S
H232 C249 0.939 . S
H233 C251 0.941 . S
H234 C255 0.939 . S
O235 P224 1.490 . S
H236 C252 0.939 . S
H237 C254 0.940 . S
C238 P224 1.812 . S
C238 C239 1.389 . S
C238 C243 1.391 . S
C239 H225 0.941 . S
C239 C238 1.389 . S
C239 C240 1.397 . S
C240 H226 0.939 . S
C240 C239 1.397 . S
C240 C241 1.378 . S
C241 C240 1.378 . S
C241 C242 1.378 . S
C242 H227 0.940 . S
C242 C241 1.378 . S
C242 C243 1.396 . S
C243 H228 0.940 . S
C243 C238 1.391 . S
C243 C242 1.396 . S
C244 P224 1.803 . S
C244 C245 1.378 . S
C244 C249 1.400 . S
C245 H229 0.939 . S
C245 C244 1.378 . S
C245 C246 1.361 . S
C246 H230 0.942 . S
C246 C245 1.361 . S
C246 C247 1.369 . S
C247 C246 1.369 . S
C247 C248 1.404 . S
C248 H231 0.940 . S
C248 C247 1.404 . S
C248 C249 1.389 . S
C249 H232 0.939 . S
C249 C244 1.400 . S
C249 C248 1.389 . S
C250 P224 1.819 . S
C250 C251 1.391 . S
C250 C255 1.391 . S
C251 H233 0.941 . S
C251 C250 1.391 . S
C251 C252 1.396 . S
C252 H236 0.939 . S
C252 C251 1.396 . S
C252 C253 1.397 . S
C253 C252 1.397 . S
C253 C254 1.385 . S
C254 H237 0.940 . S
C254 C253 1.385 . S
C254 C255 1.388 . S
C255 H234 0.939 . S
C255 C250 1.391 . S
C255 C254 1.388 . S
C256 O258 1.247 . S
C256 O260 1.258 . S
C257 O264 1.247 . S
C257 O265 1.258 . S
O258 C256 1.247 . S
O258 Zn259 2.028 1_655 S
Zn259 O258 2.028 1_455 S
Zn259 O263 2.035 . S
Zn259 O265 2.035 . S
Zn259 O266 2.028 1_455 S
O260 C256 1.258 . S
O260 Zn261 2.035 1_655 S
Zn261 O260 2.035 1_455 S
Zn261 O262 2.028 . S
Zn261 O264 2.028 . S
Zn261 O267 2.035 1_455 S
O262 Zn261 2.028 . S
O262 C268 1.247 . S
O263 Zn259 2.035 . S
O263 C268 1.258 . S
O264 C257 1.247 . S
O264 Zn261 2.028 . S
O265 C257 1.258 . S
O265 Zn259 2.035 . S
O266 Zn259 2.028 1_655 S
O266 C269 1.247 . S
O267 Zn261 2.035 1_655 S
O267 C269 1.258 . S
C268 O262 1.247 . S
C268 O263 1.258 . S
C269 O266 1.247 . S
C269 O267 1.258 . S
C270 O272 1.247 . S
C270 O274 1.258 . S
C271 O278 1.247 . S
C271 O279 1.258 . S
O272 C270 1.247 . S
O272 Zn273 2.028 1_655 S
Zn273 O272 2.028 1_455 S
Zn273 O277 2.035 . S
Zn273 O279 2.035 . S
Zn273 O280 2.028 1_455 S
O274 C270 1.258 . S
O274 Zn275 2.046 . S
Zn275 O274 2.046 . S
Zn275 O276 2.017 1_655 S
Zn275 O278 2.017 1_655 S
Zn275 O281 2.047 . S
O276 Zn275 2.017 1_455 S
O276 C282 1.247 . S
O277 Zn273 2.035 . S
O277 C282 1.258 . S
O278 C271 1.247 . S
O278 Zn275 2.017 1_455 S
O279 C271 1.258 . S
O279 Zn273 2.035 . S
O280 Zn273 2.028 1_655 S
O280 C283 1.247 . S
O281 Zn275 2.047 . S
O281 C283 1.258 . S
C282 O276 1.247 . S
C282 O277 1.258 . S
C283 O280 1.247 . S
C283 O281 1.258 . S
C284 O286 1.247 . S
C284 O288 1.258 . S
C285 O292 1.247 . S
C285 O293 1.258 . S
O286 C284 1.247 . S
O286 Zn287 2.028 1_565 S
Zn287 O286 2.028 1_545 S
Zn287 O291 2.035 . S
Zn287 O293 2.035 . S
Zn287 O294 2.028 1_545 S
O288 C284 1.258 . S
O288 Zn289 2.035 1_565 S
Zn289 O288 2.035 1_545 S
Zn289 O290 2.028 . S
Zn289 O292 2.028 . S
Zn289 O295 2.035 1_545 S
O290 Zn289 2.028 . S
O290 C296 1.247 . S
O291 Zn287 2.035 . S
O291 C296 1.258 . S
O292 C285 1.247 . S
O292 Zn289 2.028 . S
O293 C285 1.258 . S
O293 Zn287 2.035 . S
O294 Zn287 2.028 1_565 S
O294 C297 1.247 . S
O295 Zn289 2.035 1_565 S
O295 C297 1.258 . S
C296 O290 1.247 . S
C296 O291 1.258 . S
C297 O294 1.247 . S
C297 O295 1.258 . S
C298 O300 1.247 . S
C298 O302 1.258 . S
C299 O306 1.247 . S
C299 O307 1.258 . S
O300 C298 1.247 . S
O300 Zn301 2.028 . S
Zn301 O300 2.028 . S
Zn301 O305 2.035 . S
Zn301 O307 2.035 1_554 S
Zn301 O308 2.028 1_554 S
O302 C298 1.258 . S
O302 Zn303 2.035 . S
Zn303 O302 2.035 . S
Zn303 O304 2.028 . S
Zn303 O306 2.028 1_554 S
Zn303 O309 2.035 1_554 S
O304 Zn303 2.028 . S
O304 C310 1.247 . S
O305 Zn301 2.035 . S
O305 C310 1.258 . S
O306 C299 1.247 . S
O306 Zn303 2.028 1_556 S
O307 C299 1.258 . S
O307 Zn301 2.035 1_556 S
O308 Zn301 2.028 1_556 S
O308 C311 1.247 . S
O309 Zn303 2.035 1_556 S
O309 C311 1.258 . S
C310 O304 1.247 . S
C310 O305 1.258 . S
C311 O308 1.247 . S
C311 O309 1.258 . S
C312 O314 1.247 . S
C312 O316 1.258 . S
C313 O320 1.247 . S
C313 O321 1.258 . S
O314 C312 1.247 . S
O314 Zn315 2.058 . S
Zn315 O314 2.058 . S
Zn315 O319 2.005 1_565 S
Zn315 O321 2.005 1_565 S
Zn315 O322 2.058 . S
O316 C312 1.258 . S
O316 Zn317 2.035 1_565 S
Zn317 O316 2.035 1_545 S
Zn317 O318 2.028 . S
Zn317 O320 2.028 . S
Zn317 O323 2.035 1_545 S
O318 Zn317 2.028 . S
O318 C324 1.247 . S
O319 Zn315 2.005 1_545 S
O319 C324 1.258 . S
O320 C313 1.247 . S
O320 Zn317 2.028 . S
O321 C313 1.258 . S
O321 Zn315 2.005 1_545 S
O322 Zn315 2.058 . S
O322 C325 1.247 . S
O323 Zn317 2.035 1_565 S
O323 C325 1.258 . S
C324 O318 1.247 . S
C324 O319 1.258 . S
C325 O322 1.247 . S
C325 O323 1.258 . S
C326 O328 1.247 . S
C326 O330 1.258 . S
C327 O334 1.247 . S
C327 O335 1.258 . S
O328 C326 1.247 . S
O328 Zn329 2.028 . S
Zn329 O328 2.028 . S
Zn329 O333 2.035 . S
Zn329 O335 2.035 1_554 S
Zn329 O336 2.028 1_554 S
O330 C326 1.258 . S
O330 Zn331 2.031 1_554 S
Zn331 O330 2.031 1_556 S
Zn331 O332 2.024 1_556 S
Zn331 O334 2.032 . S
Zn331 O337 2.039 . S
O332 Zn331 2.024 1_554 S
O332 C338 1.247 . S
O333 Zn329 2.035 . S
O333 C338 1.258 . S
O334 C327 1.247 . S
O334 Zn331 2.032 . S
O335 C327 1.258 . S
O335 Zn329 2.035 1_556 S
O336 Zn329 2.028 1_556 S
O336 C339 1.247 . S
O337 Zn331 2.039 . S
O337 C339 1.258 . S
C338 O332 1.247 . S
C338 O333 1.258 . S
C339 O336 1.247 . S
C339 O337 1.258 . S
H340 C348 0.950 . S
H341 C353 0.950 . S
H342 C350 0.950 . S
H343 C352 0.950 . S
H344 C354 0.950 . S
H345 C356 0.950 . S
H346 C358 0.950 . S
H347 C359 0.950 . S
C348 H340 0.950 . S
C348 C349 1.386 . S
C348 C350 1.391 . S
C349 C348 1.386 . S
C349 C353 1.393 . S
C350 H342 0.950 . S
C350 C348 1.391 . S
C350 C351 1.400 . S
C351 C350 1.400 . S
C351 C352 1.398 . S
C351 C357 1.491 . S
C352 H343 0.950 . S
C352 C351 1.398 . S
C352 C353 1.391 . S
C353 H341 0.950 . S
C353 C349 1.393 . S
C353 C352 1.391 . S
C354 H344 0.950 . S
C354 C355 1.386 . S
C354 C356 1.391 . S
C355 C354 1.386 . S
C355 C359 1.393 . S
C356 H345 0.950 . S
C356 C354 1.391 . S
C356 C357 1.400 . S
C357 C351 1.491 . S
C357 C356 1.400 . S
C357 C358 1.398 . S
C358 H346 0.950 . S
C358 C357 1.398 . S
C358 C359 1.391 . S
C359 H347 0.950 . S
C359 C355 1.393 . S
C359 C358 1.391 . S
H360 C368 0.950 . S
H361 C373 0.950 . S
H362 C370 0.950 . S
H363 C372 0.950 . S
H364 C374 0.950 . S
H365 C376 0.950 . S
H366 C378 0.950 . S
H367 C379 0.950 . S
C368 H360 0.950 . S
C368 C369 1.386 . S
C368 C370 1.391 . S
C369 C368 1.386 . S
C369 C373 1.393 . S
C370 H362 0.950 . S
C370 C368 1.391 . S
C370 C371 1.400 . S
C371 C370 1.400 . S
C371 C372 1.398 . S
C371 C377 1.491 . S
C372 H363 0.950 . S
C372 C371 1.398 . S
C372 C373 1.391 . S
C373 H361 0.950 . S
C373 C369 1.393 . S
C373 C372 1.391 . S
C374 H364 0.950 . S
C374 C375 1.386 . S
C374 C376 1.391 . S
C375 C374 1.386 . S
C375 C379 1.393 . S
C376 H365 0.950 . S
C376 C374 1.391 . S
C376 C377 1.400 . S
C377 C371 1.491 . S
C377 C376 1.400 . S
C377 C378 1.398 . S
C378 H366 0.950 . S
C378 C377 1.398 . S
C378 C379 1.391 . S
C379 H367 0.950 . S
C379 C375 1.393 . S
C379 C378 1.391 . S
H380 C388 0.950 . S
H381 C393 0.950 . S
H382 C390 0.950 . S
H383 C392 0.950 . S
H384 C394 0.950 . S
H385 C396 0.950 . S
H386 C398 0.950 . S
H387 C399 0.950 . S
C388 H380 0.950 . S
C388 C389 1.386 . S
C388 C390 1.391 . S
C389 C388 1.386 . S
C389 C393 1.393 . S
C390 H382 0.950 . S
C390 C388 1.391 . S
C390 C391 1.400 . S
C391 C390 1.400 . S
C391 C392 1.398 . S
C391 C397 1.491 . S
C392 H383 0.950 . S
C392 C391 1.398 . S
C392 C393 1.391 . S
C393 H381 0.950 . S
C393 C389 1.393 . S
C393 C392 1.391 . S
C394 H384 0.950 . S
C394 C395 1.386 . S
C394 C396 1.391 . S
C395 C394 1.386 . S
C395 C399 1.393 . S
C396 H385 0.950 . S
C396 C394 1.391 . S
C396 C397 1.400 . S
C397 C391 1.491 . S
C397 C396 1.400 . S
C397 C398 1.398 . S
C398 H386 0.950 . S
C398 C397 1.398 . S
C398 C399 1.391 . S
C399 H387 0.950 . S
C399 C395 1.393 . S
C399 C398 1.391 . S
H400 C408 0.950 . S
H401 C413 0.950 . S
H402 C410 0.950 . S
H403 C412 0.950 . S
H404 C414 0.950 . S
H405 C416 0.950 . S
H406 C418 0.950 . S
H407 C419 0.950 . S
C408 H400 0.950 . S
C408 C409 1.386 . S
C408 C410 1.391 . S
C409 C408 1.386 . S
C409 C413 1.393 . S
C410 H402 0.950 . S
C410 C408 1.391 . S
C410 C411 1.400 . S
C411 C410 1.400 . S
C411 C412 1.398 . S
C411 C417 1.491 . S
C412 H403 0.950 . S
C412 C411 1.398 . S
C412 C413 1.391 . S
C413 H401 0.950 . S
C413 C409 1.393 . S
C413 C412 1.391 . S
C414 H404 0.950 . S
C414 C415 1.386 . S
C414 C416 1.391 . S
C415 C414 1.386 . S
C415 C419 1.393 . S
C416 H405 0.950 . S
C416 C414 1.391 . S
C416 C417 1.400 . S
C417 C411 1.491 . S
C417 C416 1.400 . S
C417 C418 1.398 . S
C418 H406 0.950 . S
C418 C417 1.398 . S
C418 C419 1.391 . S
C419 H407 0.950 . S
C419 C415 1.393 . S
C419 C418 1.391 . S
H420 C428 0.950 . S
H421 C433 0.950 . S
H422 C430 0.950 . S
H423 C432 0.950 . S
H424 C434 0.950 . S
H425 C436 0.950 . S
H426 C438 0.950 . S
H427 C439 0.950 . S
C428 H420 0.950 . S
C428 C429 1.386 . S
C428 C430 1.391 . S
C429 C428 1.386 . S
C429 C433 1.393 . S
C430 H422 0.950 . S
C430 C428 1.391 . S
C430 C431 1.400 . S
C431 C430 1.400 . S
C431 C432 1.398 . S
C431 C437 1.491 . S
C432 H423 0.950 . S
C432 C431 1.398 . S
C432 C433 1.391 . S
C433 H421 0.950 . S
C433 C429 1.393 . S
C433 C432 1.391 . S
C434 H424 0.950 . S
C434 C435 1.386 . S
C434 C436 1.391 . S
C435 C434 1.386 . S
C435 C439 1.393 . S
C436 H425 0.950 . S
C436 C434 1.391 . S
C436 C437 1.400 . S
C437 C431 1.491 . S
C437 C436 1.400 . S
C437 C438 1.398 . S
C438 H426 0.950 . S
C438 C437 1.398 . S
C438 C439 1.391 . S
C439 H427 0.950 . S
C439 C435 1.393 . S
C439 C438 1.391 . S
H440 C448 0.950 . S
H441 C453 0.950 . S
H442 C450 0.950 . S
H443 C452 0.950 . S
H444 C454 0.950 . S
H445 C456 0.950 . S
H446 C458 0.950 . S
H447 C459 0.950 . S
C448 H440 0.950 . S
C448 C449 1.386 . S
C448 C450 1.391 . S
C449 C448 1.386 . S
C449 C453 1.393 . S
C450 H442 0.950 . S
C450 C448 1.391 . S
C450 C451 1.400 . S
C451 C450 1.400 . S
C451 C452 1.398 . S
C451 C457 1.491 . S
C452 H443 0.950 . S
C452 C451 1.398 . S
C452 C453 1.391 . S
C453 H441 0.950 . S
C453 C449 1.393 . S
C453 C452 1.391 . S
C454 H444 0.950 . S
C454 C455 1.386 . S
C454 C456 1.391 . S
C455 C454 1.386 . S
C455 C459 1.393 . S
C456 H445 0.950 . S
C456 C454 1.391 . S
C456 C457 1.400 . S
C457 C451 1.491 . S
C457 C456 1.400 . S
C457 C458 1.398 . S
C458 H446 0.950 . S
C458 C457 1.398 . S
C458 C459 1.391 . S
C459 H447 0.950 . S
C459 C455 1.393 . S
C459 C458 1.391 . S
H460 C468 0.950 . S
H461 C473 0.950 . S
H462 C470 0.950 . S
H463 C472 0.950 . S
H464 C474 0.950 . S
H465 C476 0.950 . S
H466 C478 0.950 . S
H467 C479 0.950 . S
C468 H460 0.950 . S
C468 C469 1.386 . S
C468 C470 1.391 . S
C469 C468 1.386 . S
C469 C473 1.393 . S
C470 H462 0.950 . S
C470 C468 1.391 . S
C470 C471 1.400 . S
C471 C470 1.400 . S
C471 C472 1.398 . S
C471 C477 1.491 . S
C472 H463 0.950 . S
C472 C471 1.398 . S
C472 C473 1.391 . S
C473 H461 0.950 . S
C473 C469 1.393 . S
C473 C472 1.391 . S
C474 H464 0.950 . S
C474 C475 1.386 . S
C474 C476 1.391 . S
C475 C474 1.386 . S
C475 C479 1.393 . S
C476 H465 0.950 . S
C476 C474 1.391 . S
C476 C477 1.400 . S
C477 C471 1.491 . S
C477 C476 1.400 . S
C477 C478 1.398 . S
C478 H466 0.950 . S
C478 C477 1.398 . S
C478 C479 1.391 . S
C479 H467 0.950 . S
C479 C475 1.393 . S
C479 C478 1.391 . S
H480 C488 0.950 . S
H481 C493 0.950 . S
H482 C490 0.950 . S
H483 C492 0.950 . S
H484 C494 0.950 . S
H485 C496 0.950 . S
H486 C498 0.950 . S
H487 C499 0.950 . S
C488 H480 0.950 . S
C488 C489 1.386 . S
C488 C490 1.391 . S
C489 C488 1.386 . S
C489 C493 1.393 . S
C490 H482 0.950 . S
C490 C488 1.391 . S
C490 C491 1.400 . S
C491 C490 1.400 . S
C491 C492 1.398 . S
C491 C497 1.491 . S
C492 H483 0.950 . S
C492 C491 1.398 . S
C492 C493 1.391 . S
C493 H481 0.950 . S
C493 C489 1.393 . S
C493 C492 1.391 . S
C494 H484 0.950 . S
C494 C495 1.386 . S
C494 C496 1.391 . S
C495 C494 1.386 . S
C495 C499 1.393 . S
C496 H485 0.950 . S
C496 C494 1.391 . S
C496 C497 1.400 . S
C497 C491 1.491 . S
C497 C496 1.400 . S
C497 C498 1.398 . S
C498 H486 0.950 . S
C498 C497 1.398 . S
C498 C499 1.391 . S
C499 H487 0.950 . S
C499 C495 1.393 . S
C499 C498 1.391 . S
H500 C508 0.950 . S
H501 C513 0.950 . S
H502 C510 0.950 . S
H503 C512 0.950 . S
H504 C514 0.950 . S
H505 C516 0.950 . S
H506 C518 0.950 . S
H507 C519 0.950 . S
C508 H500 0.950 . S
C508 C509 1.386 . S
C508 C510 1.391 . S
C509 C508 1.386 . S
C509 C513 1.393 . S
C510 H502 0.950 . S
C510 C508 1.391 . S
C510 C511 1.400 . S
C511 C510 1.400 . S
C511 C512 1.398 . S
C511 C517 1.491 . S
C512 H503 0.950 . S
C512 C511 1.398 . S
C512 C513 1.391 . S
C513 H501 0.950 . S
C513 C509 1.393 . S
C513 C512 1.391 . S
C514 H504 0.950 . S
C514 C515 1.386 . S
C514 C516 1.391 . S
C515 C514 1.386 . S
C515 C519 1.393 . S
C516 H505 0.950 . S
C516 C514 1.391 . S
C516 C517 1.400 . S
C517 C511 1.491 . S
C517 C516 1.400 . S
C517 C518 1.398 . S
C518 H506 0.950 . S
C518 C517 1.398 . S
C518 C519 1.391 . S
C519 H507 0.950 . S
C519 C515 1.393 . S
C519 C518 1.391 . S
H520 C528 0.950 . S
H521 C533 0.950 . S
H522 C530 0.950 . S
H523 C532 0.950 . S
H524 C534 0.950 . S
H525 C536 0.950 . S
H526 C538 0.950 . S
H527 C539 0.950 . S
C528 H520 0.950 . S
C528 C529 1.386 . S
C528 C530 1.391 . S
C529 C528 1.386 . S
C529 C533 1.393 . S
C530 H522 0.950 . S
C530 C528 1.391 . S
C530 C531 1.400 . S
C531 C530 1.400 . S
C531 C532 1.398 . S
C531 C537 1.491 . S
C532 H523 0.950 . S
C532 C531 1.398 . S
C532 C533 1.391 . S
C533 H521 0.950 . S
C533 C529 1.393 . S
C533 C532 1.391 . S
C534 H524 0.950 . S
C534 C535 1.386 . S
C534 C536 1.391 . S
C535 C534 1.386 . S
C535 C539 1.393 . S
C536 H525 0.950 . S
C536 C534 1.391 . S
C536 C537 1.400 . S
C537 C531 1.491 . S
C537 C536 1.400 . S
C537 C538 1.398 . S
C538 H526 0.950 . S
C538 C537 1.398 . S
C538 C539 1.391 . S
C539 H527 0.950 . S
C539 C535 1.393 . S
C539 C538 1.391 . S
H540 C548 0.950 . S
H541 C553 0.950 . S
H542 C550 0.950 . S
H543 C552 0.950 . S
H544 C554 0.950 . S
H545 C556 0.950 . S
H546 C558 0.950 . S
H547 C559 0.950 . S
C548 H540 0.950 . S
C548 C549 1.386 . S
C548 C550 1.391 . S
C549 C548 1.386 . S
C549 C553 1.393 . S
C550 H542 0.950 . S
C550 C548 1.391 . S
C550 C551 1.400 . S
C551 C550 1.400 . S
C551 C552 1.398 . S
C551 C557 1.491 . S
C552 H543 0.950 . S
C552 C551 1.398 . S
C552 C553 1.391 . S
C553 H541 0.950 . S
C553 C549 1.393 . S
C553 C552 1.391 . S
C554 H544 0.950 . S
C554 C555 1.386 . S
C554 C556 1.391 . S
C555 C554 1.386 . S
C555 C559 1.393 . S
C556 H545 0.950 . S
C556 C554 1.391 . S
C556 C557 1.400 . S
C557 C551 1.491 . S
C557 C556 1.400 . S
C557 C558 1.398 . S
C558 H546 0.950 . S
C558 C557 1.398 . S
C558 C559 1.391 . S
C559 H547 0.950 . S
C559 C555 1.393 . S
C559 C558 1.391 . S
H560 C568 0.950 . S
H561 C573 0.950 . S
H562 C570 0.950 . S
H563 C572 0.950 . S
H564 C574 0.950 . S
H565 C576 0.950 . S
H566 C578 0.950 . S
H567 C579 0.950 . S
C568 H560 0.950 . S
C568 C569 1.386 . S
C568 C570 1.391 . S
C569 C568 1.386 . S
C569 C573 1.393 . S
C570 H562 0.950 . S
C570 C568 1.391 . S
C570 C571 1.400 . S
C571 C570 1.400 . S
C571 C572 1.398 . S
C571 C577 1.491 . S
C572 H563 0.950 . S
C572 C571 1.398 . S
C572 C573 1.391 . S
C573 H561 0.950 . S
C573 C569 1.393 . S
C573 C572 1.391 . S
C574 H564 0.950 . S
C574 C575 1.386 . S
C574 C576 1.391 . S
C575 C574 1.386 . S
C575 C579 1.393 . S
C576 H565 0.950 . S
C576 C574 1.391 . S
C576 C577 1.400 . S
C577 C571 1.491 . S
C577 C576 1.400 . S
C577 C578 1.398 . S
C578 H566 0.950 . S
C578 C577 1.398 . S
C578 C579 1.391 . S
C579 H567 0.950 . S
C579 C575 1.393 . S
C579 C578 1.391 . S
H580 C588 0.950 . S
H581 C593 0.950 . S
H582 C590 0.950 . S
H583 C592 0.950 . S
H584 C594 0.950 . S
H585 C596 0.950 . S
H586 C598 0.950 . S
H587 C599 0.950 . S
C588 H580 0.950 . S
C588 C589 1.386 . S
C588 C590 1.391 . S
C589 C588 1.386 . S
C589 C593 1.393 . S
C590 H582 0.950 . S
C590 C588 1.391 . S
C590 C591 1.400 . S
C591 C590 1.400 . S
C591 C592 1.398 . S
C591 C597 1.491 . S
C592 H583 0.950 . S
C592 C591 1.398 . S
C592 C593 1.391 . S
C593 H581 0.950 . S
C593 C589 1.393 . S
C593 C592 1.391 . S
C594 H584 0.950 . S
C594 C595 1.386 . S
C594 C596 1.391 . S
C595 C594 1.386 . S
C595 C599 1.393 . S
C596 H585 0.950 . S
C596 C594 1.391 . S
C596 C597 1.400 . S
C597 C591 1.491 . S
C597 C596 1.400 . S
C597 C598 1.398 . S
C598 H586 0.950 . S
C598 C597 1.398 . S
C598 C599 1.391 . S
C599 H587 0.950 . S
C599 C595 1.393 . S
C599 C598 1.391 . S
H600 C608 0.950 . S
H601 C613 0.950 . S
H602 C610 0.950 . S
H603 C612 0.950 . S
H604 C614 0.950 . S
H605 C616 0.950 . S
H606 C618 0.950 . S
H607 C619 0.950 . S
C608 H600 0.950 . S
C608 C609 1.386 . S
C608 C610 1.391 . S
C609 C608 1.386 . S
C609 C613 1.393 . S
C610 H602 0.950 . S
C610 C608 1.391 . S
C610 C611 1.400 . S
C611 C610 1.400 . S
C611 C612 1.398 . S
C611 C617 1.491 . S
C612 H603 0.950 . S
C612 C611 1.398 . S
C612 C613 1.391 . S
C613 H601 0.950 . S
C613 C609 1.393 . S
C613 C612 1.391 . S
C614 H604 0.950 . S
C614 C615 1.386 . S
C614 C616 1.391 . S
C615 C614 1.386 . S
C615 C619 1.393 . S
C616 H605 0.950 . S
C616 C614 1.391 . S
C616 C617 1.400 . S
C617 C611 1.491 . S
C617 C616 1.400 . S
C617 C618 1.398 . S
C618 H606 0.950 . S
C618 C617 1.398 . S
C618 C619 1.391 . S
C619 H607 0.950 . S
C619 C615 1.393 . S
C619 C618 1.391 . S
H620 C628 0.950 . S
H621 C633 0.950 . S
H622 C630 0.950 . S
H623 C632 0.950 . S
H624 C634 0.950 . S
H625 C636 0.950 . S
H626 C638 0.950 . S
H627 C639 0.950 . S
C628 H620 0.950 . S
C628 C629 1.386 . S
C628 C630 1.391 . S
C629 C628 1.386 . S
C629 C633 1.393 . S
C630 H622 0.950 . S
C630 C628 1.391 . S
C630 C631 1.400 . S
C631 C630 1.400 . S
C631 C632 1.398 . S
C631 C637 1.491 . S
C632 H623 0.950 . S
C632 C631 1.398 . S
C632 C633 1.391 . S
C633 H621 0.950 . S
C633 C629 1.393 . S
C633 C632 1.391 . S
C634 H624 0.950 . S
C634 C635 1.386 . S
C634 C636 1.391 . S
C635 C634 1.386 . S
C635 C639 1.393 . S
C636 H625 0.950 . S
C636 C634 1.391 . S
C636 C637 1.400 . S
C637 C631 1.491 . S
C637 C636 1.400 . S
C637 C638 1.398 . S
C638 H626 0.950 . S
C638 C637 1.398 . S
C638 C639 1.391 . S
C639 H627 0.950 . S
C639 C635 1.393 . S
C639 C638 1.391 . S
H640 C648 0.950 . S
H641 C653 0.950 . S
H642 C650 0.950 . S
H643 C652 0.950 . S
H644 C654 0.950 . S
H645 C656 0.950 . S
H646 C658 0.950 . S
H647 C659 0.950 . S
C648 H640 0.950 . S
C648 C649 1.386 . S
C648 C650 1.391 . S
C649 C648 1.386 . S
C649 C653 1.393 . S
C650 H642 0.950 . S
C650 C648 1.391 . S
C650 C651 1.400 . S
C651 C650 1.400 . S
C651 C652 1.398 . S
C651 C657 1.491 . S
C652 H643 0.950 . S
C652 C651 1.398 . S
C652 C653 1.391 . S
C653 H641 0.950 . S
C653 C649 1.393 . S
C653 C652 1.391 . S
C654 H644 0.950 . S
C654 C655 1.386 . S
C654 C656 1.391 . S
C655 C654 1.386 . S
C655 C659 1.393 . S
C656 H645 0.950 . S
C656 C654 1.391 . S
C656 C657 1.400 . S
C657 C651 1.491 . S
C657 C656 1.400 . S
C657 C658 1.398 . S
C658 H646 0.950 . S
C658 C657 1.398 . S
C658 C659 1.391 . S
C659 H647 0.950 . S
C659 C655 1.393 . S
C659 C658 1.391 . S
H660 C668 0.950 . S
H661 C673 0.950 . S
H662 C670 0.950 . S
H663 C672 0.950 . S
H664 C674 0.950 . S
H665 C676 0.950 . S
H666 C678 0.950 . S
H667 C679 0.950 . S
C668 H660 0.950 . S
C668 C669 1.386 . S
C668 C670 1.391 . S
C669 C668 1.386 . S
C669 C673 1.393 . S
C670 H662 0.950 . S
C670 C668 1.391 . S
C670 C671 1.400 . S
C671 C670 1.400 . S
C671 C672 1.398 . S
C671 C677 1.491 . S
C672 H663 0.950 . S
C672 C671 1.398 . S
C672 C673 1.391 . S
C673 H661 0.950 . S
C673 C669 1.393 . S
C673 C672 1.391 . S
C674 H664 0.950 . S
C674 C675 1.386 . S
C674 C676 1.391 . S
C675 C674 1.386 . S
C675 C679 1.393 . S
C676 H665 0.950 . S
C676 C674 1.391 . S
C676 C677 1.400 . S
C677 C671 1.491 . S
C677 C676 1.400 . S
C677 C678 1.398 . S
C678 H666 0.950 . S
C678 C677 1.398 . S
C678 C679 1.391 . S
C679 H667 0.950 . S
C679 C675 1.393 . S
C679 C678 1.391 . S
H680 C688 0.950 . S
H681 C693 0.950 . S
H682 C690 0.950 . S
H683 C692 0.950 . S
H684 C694 0.950 . S
H685 C696 0.950 . S
H686 C698 0.950 . S
H687 C699 0.950 . S
C688 H680 0.950 . S
C688 C689 1.386 . S
C688 C690 1.391 . S
C689 C688 1.386 . S
C689 C693 1.393 . S
C690 H682 0.950 . S
C690 C688 1.391 . S
C690 C691 1.400 . S
C691 C690 1.400 . S
C691 C692 1.398 . S
C691 C697 1.491 . S
C692 H683 0.950 . S
C692 C691 1.398 . S
C692 C693 1.391 . S
C693 H681 0.950 . S
C693 C689 1.393 . S
C693 C692 1.391 . S
C694 H684 0.950 . S
C694 C695 1.386 . S
C694 C696 1.391 . S
C695 C694 1.386 . S
C695 C699 1.393 . S
C696 H685 0.950 . S
C696 C694 1.391 . S
C696 C697 1.400 . S
C697 C691 1.491 . S
C697 C696 1.400 . S
C697 C698 1.398 . S
C698 H686 0.950 . S
C698 C697 1.398 . S
C698 C699 1.391 . S
C699 H687 0.950 . S
C699 C695 1.393 . S
C699 C698 1.391 . S
H700 C708 0.950 . S
H701 C713 0.950 . S
H702 C710 0.950 . S
H703 C712 0.950 . S
H704 C714 0.950 . S
H705 C716 0.950 . S
H706 C718 0.950 . S
H707 C719 0.950 . S
C708 H700 0.950 . S
C708 C709 1.386 . S
C708 C710 1.391 . S
C709 C708 1.386 . S
C709 C713 1.393 . S
C710 H702 0.950 . S
C710 C708 1.391 . S
C710 C711 1.400 . S
C711 C710 1.400 . S
C711 C712 1.398 . S
C711 C717 1.491 . S
C712 H703 0.950 . S
C712 C711 1.398 . S
C712 C713 1.391 . S
C713 H701 0.950 . S
C713 C709 1.393 . S
C713 C712 1.391 . S
C714 H704 0.950 . S
C714 C715 1.386 . S
C714 C716 1.391 . S
C715 C714 1.386 . S
C715 C719 1.393 . S
C716 H705 0.950 . S
C716 C714 1.391 . S
C716 C717 1.400 . S
C717 C711 1.491 . S
C717 C716 1.400 . S
C717 C718 1.398 . S
C718 H706 0.950 . S
C718 C717 1.398 . S
C718 C719 1.391 . S
C719 H707 0.950 . S
C719 C715 1.393 . S
C719 C718 1.391 . S
H720 C728 0.950 . S
H721 C733 0.950 . S
H722 C730 0.950 . S
H723 C732 0.950 . S
H724 C734 0.950 . S
H725 C736 0.950 . S
H726 C738 0.950 . S
H727 C739 0.950 . S
C728 H720 0.950 . S
C728 C729 1.386 . S
C728 C730 1.391 . S
C729 C728 1.386 . S
C729 C733 1.393 . S
C730 H722 0.950 . S
C730 C728 1.391 . S
C730 C731 1.400 . S
C731 C730 1.400 . S
C731 C732 1.398 . S
C731 C737 1.491 . S
C732 H723 0.950 . S
C732 C731 1.398 . S
C732 C733 1.391 . S
C733 H721 0.950 . S
C733 C729 1.393 . S
C733 C732 1.391 . S
C734 H724 0.950 . S
C734 C735 1.386 . S
C734 C736 1.391 . S
C735 C734 1.386 . S
C735 C739 1.393 . S
C736 H725 0.950 . S
C736 C734 1.391 . S
C736 C737 1.400 . S
C737 C731 1.491 . S
C737 C736 1.400 . S
C737 C738 1.398 . S
C738 H726 0.950 . S
C738 C737 1.398 . S
C738 C739 1.391 . S
C739 H727 0.950 . S
C739 C735 1.393 . S
C739 C738 1.391 . S
H740 C748 0.950 . S
H741 C753 0.950 . S
H742 C750 0.950 . S
H743 C752 0.950 . S
H744 C754 0.950 . S
H745 C756 0.950 . S
H746 C758 0.950 . S
H747 C759 0.950 . S
C748 H740 0.950 . S
C748 C749 1.386 . S
C748 C750 1.391 . S
C749 C748 1.386 . S
C749 C753 1.393 . S
C750 H742 0.950 . S
C750 C748 1.391 . S
C750 C751 1.400 . S
C751 C750 1.400 . S
C751 C752 1.398 . S
C751 C757 1.491 . S
C752 H743 0.950 . S
C752 C751 1.398 . S
C752 C753 1.391 . S
C753 H741 0.950 . S
C753 C749 1.393 . S
C753 C752 1.391 . S
C754 H744 0.950 . S
C754 C755 1.386 . S
C754 C756 1.391 . S
C755 C754 1.386 . S
C755 C759 1.393 . S
C756 H745 0.950 . S
C756 C754 1.391 . S
C756 C757 1.400 . S
C757 C751 1.491 . S
C757 C756 1.400 . S
C757 C758 1.398 . S
C758 H746 0.950 . S
C758 C757 1.398 . S
C758 C759 1.391 . S
C759 H747 0.950 . S
C759 C755 1.393 . S
C759 C758 1.391 . S
H760 C768 0.950 . S
H761 C773 0.950 . S
H762 C770 0.950 . S
H763 C772 0.950 . S
H764 C774 0.950 . S
H765 C776 0.950 . S
H766 C778 0.950 . S
H767 C779 0.950 . S
C768 H760 0.950 . S
C768 C769 1.386 . S
C768 C770 1.391 . S
C769 C768 1.386 . S
C769 C773 1.393 . S
C770 H762 0.950 . S
C770 C768 1.391 . S
C770 C771 1.400 . S
C771 C770 1.400 . S
C771 C772 1.398 . S
C771 C777 1.491 . S
C772 H763 0.950 . S
C772 C771 1.398 . S
C772 C773 1.391 . S
C773 H761 0.950 . S
C773 C769 1.393 . S
C773 C772 1.391 . S
C774 H764 0.950 . S
C774 C775 1.386 . S
C774 C776 1.391 . S
C775 C774 1.386 . S
C775 C779 1.393 . S
C776 H765 0.950 . S
C776 C774 1.391 . S
C776 C777 1.400 . S
C777 C771 1.491 . S
C777 C776 1.400 . S
C777 C778 1.398 . S
C778 H766 0.950 . S
C778 C777 1.398 . S
C778 C779 1.391 . S
C779 H767 0.950 . S
C779 C775 1.393 . S
C779 C778 1.391 . S
H780 C788 0.950 . S
H781 C793 0.950 . S
H782 C790 0.950 . S
H783 C792 0.950 . S
H784 C794 0.950 . S
H785 C796 0.950 . S
H786 C798 0.950 . S
H787 C799 0.950 . S
C788 H780 0.950 . S
C788 C789 1.386 . S
C788 C790 1.391 . S
C789 C788 1.386 . S
C789 C793 1.393 . S
C790 H782 0.950 . S
C790 C788 1.391 . S
C790 C791 1.400 . S
C791 C790 1.400 . S
C791 C792 1.398 . S
C791 C797 1.491 . S
C792 H783 0.950 . S
C792 C791 1.398 . S
C792 C793 1.391 . S
C793 H781 0.950 . S
C793 C789 1.393 . S
C793 C792 1.391 . S
C794 H784 0.950 . S
C794 C795 1.386 . S
C794 C796 1.391 . S
C795 C794 1.386 . S
C795 C799 1.393 . S
C796 H785 0.950 . S
C796 C794 1.391 . S
C796 C797 1.400 . S
C797 C791 1.491 . S
C797 C796 1.400 . S
C797 C798 1.398 . S
C798 H786 0.950 . S
C798 C797 1.398 . S
C798 C799 1.391 . S
C799 H787 0.950 . S
C799 C795 1.393 . S
C799 C798 1.391 . S
H800 C808 0.950 . S
H801 C813 0.950 . S
H802 C810 0.950 . S
H803 C812 0.950 . S
H804 C814 0.950 . S
H805 C816 0.950 . S
H806 C818 0.950 . S
H807 C819 0.950 . S
C808 H800 0.950 . S
C808 C809 1.386 . S
C808 C810 1.391 . S
C809 C808 1.386 . S
C809 C813 1.393 . S
C810 H802 0.950 . S
C810 C808 1.391 . S
C810 C811 1.400 . S
C811 C810 1.400 . S
C811 C812 1.398 . S
C811 C817 1.491 . S
C812 H803 0.950 . S
C812 C811 1.398 . S
C812 C813 1.391 . S
C813 H801 0.950 . S
C813 C809 1.393 . S
C813 C812 1.391 . S
C814 H804 0.950 . S
C814 C815 1.386 . S
C814 C816 1.391 . S
C815 C814 1.386 . S
C815 C819 1.393 . S
C816 H805 0.950 . S
C816 C814 1.391 . S
C816 C817 1.400 . S
C817 C811 1.491 . S
C817 C816 1.400 . S
C817 C818 1.398 . S
C818 H806 0.950 . S
C818 C817 1.398 . S
C818 C819 1.391 . S
C819 H807 0.950 . S
C819 C815 1.393 . S
C819 C818 1.391 . S
C355 C268 1.512 . S
C349 C23 1.488 . S
C375 C271 1.501 . S
C369 C49 1.476 . S
C395 C269 1.505 . S
C389 C87 1.482 . S
C415 C270 1.514 . S
C409 C125 1.480 . S
C435 C285 1.508 . S
C429 C29 1.478 . S
C455 C299 1.500 . S
C449 C61 1.464 . S
C469 C81 1.471 . S
C475 C325 1.504 . S
C495 C339 1.503 . S
C489 C113 1.474 . S
C515 C284 1.491 . S
C509 C55 1.465 . S
C529 C93 1.473 . S
C535 C298 1.510 . S
C555 C324 1.497 . S
C549 C119 1.478 . S
C575 C338 1.507 . S
C569 C17 1.493 . S
C589 C151 1.466 . S
C595 C283 1.512 . S
C615 C256 1.499 . S
C609 C177 1.466 . S
C629 C215 1.491 . S
C635 C282 1.504 . S
C649 C253 1.477 . S
C655 C257 1.512 . S
C675 C312 1.508 . S
C669 C157 1.475 . S
C695 C326 1.501 . S
C689 C189 1.478 . S
C715 C296 1.502 . S
C709 C209 1.479 . S
C729 C241 1.474 . S
C735 C310 1.504 . S
C755 C313 1.491 . S
C749 C183 1.467 . S
C775 C327 1.512 . S
C769 C221 1.495 . S
C795 C297 1.498 . S
C789 C247 1.483 . S
C809 C145 1.483 . S
C815 C311 1.512 . S
