# Generated by pormake.
# Topology pyr, (3,6)-cn, num edge types: 1
# Building blocks:
#     Node 0, Type 0, BuildingBlock: CUQRIR_clean_linker_1, # of connection points: 3
#     Node 1, Type 0, BuildingBlock: CUQRIR_clean_linker_1, # of connection points: 3
#     Node 2, Type 0, BuildingBlock: CUQRIR_clean_linker_1, # of connection points: 3
#     Node 3, Type 0, BuildingBlock: CUQRIR_clean_linker_1, # of connection points: 3
#     Node 4, Type 0, BuildingBlock: CUQRIR_clean_linker_1, # of connection points: 3
#     Node 5, Type 0, BuildingBlock: CUQRIR_clean_linker_1, # of connection points: 3
#     Node 6, Type 0, BuildingBlock: CUQRIR_clean_linker_1, # of connection points: 3
#     Node 7, Type 0, BuildingBlock: CUQRIR_clean_linker_1, # of connection points: 3
#     Node 8, Type 1, BuildingBlock: BETDAH_clean_sbu_0, # of connection points: 6
#     Node 9, Type 1, BuildingBlock: BETDAH_clean_sbu_0, # of connection points: 6
#     Node 10, Type 1, BuildingBlock: BETDAH_clean_sbu_0, # of connection points: 6
#     Node 11, Type 1, BuildingBlock: BETDAH_clean_sbu_0, # of connection points: 6
#     Edge 12, Type (0, 1), BuildingBlock: UVAHIK_clean_linker_0, # of connection points: 2
#     Edge 13, Type (0, 1), BuildingBlock: UVAHIK_clean_linker_0, # of connection points: 2
#     Edge 14, Type (0, 1), BuildingBlock: UVAHIK_clean_linker_0, # of connection points: 2
#     Edge 15, Type (0, 1), BuildingBlock: UVAHIK_clean_linker_0, # of connection points: 2
#     Edge 16, Type (0, 1), BuildingBlock: UVAHIK_clean_linker_0, # of connection points: 2
#     Edge 17, Type (0, 1), BuildingBlock: UVAHIK_clean_linker_0, # of connection points: 2
#     Edge 18, Type (0, 1), BuildingBlock: UVAHIK_clean_linker_0, # of connection points: 2
#     Edge 19, Type (0, 1), BuildingBlock: UVAHIK_clean_linker_0, # of connection points: 2
#     Edge 20, Type (0, 1), BuildingBlock: UVAHIK_clean_linker_0, # of connection points: 2
#     Edge 21, Type (0, 1), BuildingBlock: UVAHIK_clean_linker_0, # of connection points: 2
#     Edge 22, Type (0, 1), BuildingBlock: UVAHIK_clean_linker_0, # of connection points: 2
#     Edge 23, Type (0, 1), BuildingBlock: UVAHIK_clean_linker_0, # of connection points: 2
#     Edge 24, Type (0, 1), BuildingBlock: UVAHIK_clean_linker_0, # of connection points: 2
#     Edge 25, Type (0, 1), BuildingBlock: UVAHIK_clean_linker_0, # of connection points: 2
#     Edge 26, Type (0, 1), BuildingBlock: UVAHIK_clean_linker_0, # of connection points: 2
#     Edge 27, Type (0, 1), BuildingBlock: UVAHIK_clean_linker_0, # of connection points: 2
#     Edge 28, Type (0, 1), BuildingBlock: UVAHIK_clean_linker_0, # of connection points: 2
#     Edge 29, Type (0, 1), BuildingBlock: UVAHIK_clean_linker_0, # of connection points: 2
#     Edge 30, Type (0, 1), BuildingBlock: UVAHIK_clean_linker_0, # of connection points: 2
#     Edge 31, Type (0, 1), BuildingBlock: UVAHIK_clean_linker_0, # of connection points: 2
#     Edge 32, Type (0, 1), BuildingBlock: UVAHIK_clean_linker_0, # of connection points: 2
#     Edge 33, Type (0, 1), BuildingBlock: UVAHIK_clean_linker_0, # of connection points: 2
#     Edge 34, Type (0, 1), BuildingBlock: UVAHIK_clean_linker_0, # of connection points: 2
#     Edge 35, Type (0, 1), BuildingBlock: UVAHIK_clean_linker_0, # of connection points: 2
# Relax obj value: 0.156
# Max RMSD: 0.249
# Mean RMSD: 0.166
data_MOF--net-pyr--node1-BETDAH_clean_sbu_0--node2-CUQRIR_clean_linker_1--edge1-UVAHIK_clean_linker_0
_symmetry_space_group_name_H-M    P1
_symmetry_Int_Tables_number       1
_symmetry_cell_setting            triclinic
loop_
_symmetry_equiv_pos_as_xyz
'x, y, z'
_cell_length_a     46.993376
_cell_length_b     48.730522
_cell_length_c     43.702248
_cell_angle_alpha  90.318939
_cell_angle_beta   89.574616
_cell_angle_gamma 102.98944
loop_
_atom_site_label
_atom_site_type_symbol
_atom_site_fract_x
_atom_site_fract_y
_atom_site_fract_z
_atom_type_partial_charge
C0 C 0.3232 0.35497 0.2302 0.0
N1 N 0.33525 0.33258 0.23493 0.0
N2 N 0.33287 0.36798 0.20353 0.0
C3 C 0.29784 0.3607 0.24858 0.0
C4 C 0.35123 0.3526 0.19219 0.0
N5 N 0.35276 0.33117 0.21123 0.0
C6 C 0.36576 0.35733 0.16134 0.0
H7 H 0.27924 0.3421 0.2474 0.0
H8 H 0.29052 0.37945 0.24041 0.0
H9 H 0.3042 0.36411 0.27292 0.0
H10 H 0.38661 0.35023 0.16115 0.0
H11 H 0.36991 0.37995 0.15512 0.0
H12 H 0.35108 0.34509 0.1439 0.0
C13 C 0.2765 0.90422 0.6032 0.0
N14 N 0.27842 0.92115 0.62807 0.0
N15 N 0.29701 0.88883 0.60432 0.0
C16 C 0.25564 0.90373 0.57718 0.0
C17 C 0.31161 0.89703 0.63054 0.0
N18 N 0.30044 0.91695 0.64493 0.0
C19 C 0.33613 0.88489 0.64232 0.0
H20 H 0.2626 0.8936 0.5565 0.0
H21 H 0.25385 0.92546 0.57159 0.0
H22 H 0.23369 0.89167 0.58428 0.0
H23 H 0.35721 0.89812 0.63428 0.0
H24 H 0.33442 0.86317 0.63354 0.0
H25 H 0.33611 0.88464 0.66771 0.0
C26 C 0.625 0.37884 0.85025 0.0
N27 N 0.64319 0.37467 0.87311 0.0
N28 N 0.63582 0.40333 0.83522 0.0
C29 C 0.59667 0.3589 0.84234 0.0
C30 C 0.66126 0.41405 0.84983 0.0
N31 N 0.66588 0.39687 0.87286 0.0
C32 C 0.68176 0.44138 0.84144 0.0
H33 H 0.60113 0.34288 0.82597 0.0
H34 H 0.58144 0.37019 0.83135 0.0
H35 H 0.58621 0.34791 0.86309 0.0
H36 H 0.6702 0.45542 0.82907 0.0
H37 H 0.69921 0.43686 0.82628 0.0
H38 H 0.69222 0.4523 0.8622 0.0
C39 C 0.83432 0.69683 0.34341 0.0
N40 N 0.86003 0.7154 0.33709 0.0
N41 N 0.82045 0.70536 0.36791 0.0
C42 C 0.82319 0.66976 0.32621 0.0
C43 C 0.83875 0.72993 0.3763 0.0
N44 N 0.86282 0.73613 0.35786 0.0
C45 C 0.8328 0.74832 0.4023 0.0
H46 H 0.81025 0.67406 0.30639 0.0
H47 H 0.80895 0.65386 0.34098 0.0
H48 H 0.84145 0.66096 0.31734 0.0
H49 H 0.84335 0.74272 0.42327 0.0
H50 H 0.80901 0.74523 0.40672 0.0
H51 H 0.84196 0.77091 0.39752 0.0
C52 C 0.67572 0.82491 0.88647 0.0
N53 N 0.69769 0.81797 0.87011 0.0
N54 N 0.66765 0.8473 0.87398 0.0
C55 C 0.66271 0.8108 0.91545 0.0
C56 C 0.68546 0.85375 0.84934 0.0
N57 N 0.70354 0.83579 0.84679 0.0
C58 C 0.68843 0.88016 0.83075 0.0
H59 H 0.66468 0.78854 0.9161 0.0
H60 H 0.63936 0.81166 0.9174 0.0
H61 H 0.67433 0.82222 0.93537 0.0
H62 H 0.71026 0.89409 0.83475 0.0
H63 H 0.6713 0.89172 0.83664 0.0
H64 H 0.68692 0.87474 0.80605 0.0
C65 C 0.78265 0.26572 0.50448 0.0
N66 N 0.78639 0.24679 0.48286 0.0
N67 N 0.76431 0.28139 0.49431 0.0
C68 C 0.79742 0.26964 0.53508 0.0
C69 C 0.75684 0.27123 0.46591 0.0
N70 N 0.77048 0.25039 0.45886 0.0
C71 C 0.734 0.27977 0.44641 0.0
H72 H 0.78387 0.25532 0.55188 0.0
H73 H 0.79975 0.2916 0.54337 0.0
H74 H 0.81926 0.26456 0.53372 0.0
H75 H 0.74457 0.29836 0.4326 0.0
H76 H 0.71679 0.28573 0.46083 0.0
H77 H 0.72362 0.26262 0.43058 0.0
C78 C 0.33556 0.71833 0.23152 0.0
N79 N 0.3606 0.73716 0.23915 0.0
N80 N 0.32083 0.72853 0.20922 0.0
C81 C 0.32482 0.69032 0.24693 0.0
C82 C 0.3379 0.75445 0.20356 0.0
N83 N 0.362 0.75989 0.22165 0.0
C84 C 0.33149 0.77423 0.17953 0.0
H85 H 0.33442 0.67431 0.23507 0.0
H86 H 0.30068 0.68356 0.2459 0.0
H87 H 0.33169 0.69127 0.27122 0.0
H88 H 0.31846 0.76246 0.16063 0.0
H89 H 0.35185 0.78743 0.16986 0.0
H90 H 0.31881 0.78846 0.19019 0.0
C91 C 0.1324 0.38524 0.7278 0.0
N92 N 0.1516 0.38071 0.70579 0.0
N93 N 0.14232 0.41019 0.74251 0.0
C94 C 0.10447 0.36462 0.7357 0.0
C95 C 0.16835 0.42073 0.72854 0.0
N96 N 0.1742 0.40299 0.70629 0.0
C97 C 0.18769 0.44892 0.73616 0.0
H98 H 0.08962 0.37465 0.74944 0.0
H99 H 0.10969 0.34718 0.74917 0.0
H100 H 0.09329 0.35543 0.7145 0.0
H101 H 0.20443 0.44587 0.75278 0.0
H102 H 0.17493 0.46315 0.74667 0.0
H103 H 0.19905 0.45897 0.71535 0.0
Ho104 Ho 0.03452 0.06994 0.4973 0.0
Ho105 Ho 0.0197 0.04038 0.55885 0.0
C106 C 0.04811 0.10714 0.55801 0.0
C107 C 0.04011 0.09287 0.44393 0.0
C108 C 0.06315 0.11487 0.43037 0.0
C109 C 0.06296 0.12051 0.39901 0.0
C110 C 0.08658 0.13925 0.38548 0.0
C111 C 0.11082 0.15234 0.40313 0.0
C112 C 0.11051 0.14716 0.43474 0.0
C113 C 0.0868 0.12865 0.44827 0.0
C114 C 0.08053 0.05948 0.52842 0.0
C115 C 1.00085 1.003 0.49716 0.0
C116 C 0.01632 1.00848 0.60667 0.0
C117 C 0.9927 0.98952 0.62335 0.0
C118 C 0.99947 0.97142 0.64552 0.0
C119 C 0.97722 0.95406 0.66243 0.0
C120 C 0.94778 0.95459 0.65747 0.0
C121 C 0.94112 0.97245 0.6347 0.0
C122 C 0.9634 0.98973 0.61774 0.0
C123 C 0.97899 0.06701 0.53906 0.0
O124 O 0.03772 0.10674 0.52984 0.0
O125 O 0.04861 0.08308 0.57209 0.0
O126 O 0.04819 0.06951 0.45016 0.0
O127 O 0.02489 0.10094 0.46612 0.0
O128 O 0.08216 0.08145 0.51153 0.0
O129 O 0.05556 0.04386 0.5263 0.0
O130 O 0.99905 1.00409 0.52749 0.0
O131 O 0.01349 1.02554 0.48096 0.0
O132 O 0.01603 0.03516 0.60789 0.0
O133 O 0.02184 1.00043 0.57918 0.0
O134 O 0.98348 0.06266 0.56761 0.0
O135 O 0.99363 0.05402 0.52251 0.0
H136 H 0.04495 0.10988 0.38488 0.0
H137 H 0.08635 0.14271 0.36103 0.0
H138 H 0.12874 0.15721 0.44892 0.0
H139 H 0.08724 0.12458 0.47257 0.0
H140 H 0.022 0.97091 0.64997 0.0
H141 H 0.98308 0.94025 0.67944 0.0
H142 H 0.91875 0.97366 0.63052 0.0
H143 H 0.95782 1.00359 0.60059 0.0
Ho144 Ho 0.53826 0.08701 0.09132 0.0
Ho145 Ho 0.48128 0.06808 0.05397 0.0
C146 C 0.4816 0.10732 0.11448 0.0
C147 C 0.58925 0.11427 0.1089 0.0
C148 C 0.60765 0.11765 0.13632 0.0
C149 C 0.62246 0.14481 0.14483 0.0
C150 C 0.63997 0.149 0.1708 0.0
C151 C 0.64325 0.12602 0.18872 0.0
C152 C 0.62836 0.09872 0.18008 0.0
C153 C 0.61061 0.09456 0.15412 0.0
C154 C 0.50632 0.03766 0.11595 0.0
C155 C 0.53521 0.04411 0.03436 0.0
C156 C 0.43004 0.04924 0.03119 0.0
C157 C 0.41876 0.04121 1.00041 0.0
C158 C 0.39394 1.01936 0.9969 0.0
C159 C 0.38357 1.01079 0.9677 0.0
C160 C 0.39785 1.02403 0.94149 0.0
C161 C 0.42263 0.04615 0.94521 0.0
C162 C 0.43308 0.05455 0.97439 0.0
C163 C 0.52233 0.11143 0.02901 0.0
O164 O 0.51018 0.11081 0.11697 0.0
O165 O 0.46609 0.08983 0.09438 0.0
O166 O 0.58471 0.09001 0.09464 0.0
O167 O 0.56584 0.12446 0.11078 0.0
O168 O 0.53085 0.052 0.12682 0.0
O169 O 0.5 0.05134 0.09347 0.0
O170 O 0.50652 0.03792 0.03645 0.0
O171 O 0.55139 0.06593 0.04898 0.0
O172 O 0.44142 0.07604 0.03561 0.0
O173 O 0.44556 0.03294 0.04324 0.0
O174 O 0.50531 0.09177 1.01332 0.0
O175 O 0.5157 0.10747 0.05695 0.0
H176 H 0.62029 0.16289 0.13146 0.0
H177 H 0.65052 0.17036 0.17711 0.0
H178 H 0.63055 0.08055 0.19323 0.0
H179 H 0.59926 0.07337 0.14802 0.0
H180 H 0.38278 1.00868 1.01676 0.0
H181 H 0.36473 0.9934 0.96567 0.0
H182 H 0.43392 0.05707 0.92557 0.0
H183 H 0.45242 0.07139 0.9766 0.0
Ho184 Ho 0.49201 0.53589 0.51028 0.0
Ho185 Ho 0.49223 0.58227 0.55095 0.0
C186 C 0.51766 0.53418 0.57998 0.0
C187 C 0.50598 0.49474 0.4809 0.0
C188 C 0.52593 0.47676 0.48952 0.0
C189 C 0.55357 0.48867 0.50171 0.0
C190 C 0.57146 0.47149 0.51214 0.0
C191 C 0.56201 0.44201 0.51098 0.0
C192 C 0.53431 0.43014 0.49876 0.0
C193 C 0.51647 0.44739 0.48806 0.0
C194 C 0.43955 0.53134 0.53931 0.0
C195 C 0.46849 0.58586 0.481 0.0
C196 C 0.4776 0.6229 0.58047 0.0
C197 C 0.45965 0.64233 0.57049 0.0
C198 C 0.43245 0.63202 0.55649 0.0
C199 C 0.41671 0.65058 0.54469 0.0
C200 C 0.428 0.67975 0.54634 0.0
C201 C 0.45516 0.69005 0.56036 0.0
C202 C 0.47082 0.67147 0.57242 0.0
C203 C 0.54471 0.58602 0.52246 0.0
O204 O 0.51871 0.52599 0.55104 0.0
O205 O 0.50505 0.55497 0.58692 0.0
O206 O 0.48239 0.49173 0.49762 0.0
O207 O 0.518 0.52116 0.47552 0.0
O208 O 0.44272 0.5264 0.51042 0.0
O209 O 0.4646 0.53902 0.55128 0.0
O210 O 0.46772 0.59407 0.50987 0.0
O211 O 0.47946 0.56387 0.47414 0.0
O212 O 0.50268 0.62567 0.56642 0.0
O213 O 0.46401 0.59655 0.58366 0.0
O214 O 0.54152 0.59177 0.55114 0.0
O215 O 0.51979 0.57877 0.51021 0.0
H216 H 0.5613 0.5113 0.50354 0.0
H217 H 0.59283 0.48138 0.52088 0.0
H218 H 0.52619 0.40752 0.49787 0.0
H219 H 0.49506 0.4378 0.47919 0.0
H220 H 0.4235 0.60961 0.55414 0.0
H221 H 0.39592 0.64213 0.53382 0.0
H222 H 0.46413 0.7125 0.56233 0.0
H223 H 0.49186 0.67983 0.58285 0.0
Ho224 Ho 0.99806 0.53428 0.05245 0.0
Ho225 Ho 0.99234 0.58918 1.01968 0.0
C226 C 0.04942 0.59122 0.06053 0.0
C227 C 0.01562 0.48834 0.06074 0.0
C228 C 0.03951 0.47973 0.07674 0.0
C229 C 0.05031 0.45747 0.06452 0.0
C230 C 0.07562 0.45119 0.0762 0.0
C231 C 0.09063 0.46694 0.10061 0.0
C232 C 0.07922 0.48888 0.11337 0.0
C233 C 0.05396 0.49536 0.10136 0.0
C234 C 0.9781 0.56871 0.09386 0.0
C235 C 0.9376 0.53324 1.01729 0.0
C236 C 0.97709 0.63312 0.99838 0.0
C237 C 0.95054 0.64099 0.98716 0.0
C238 C 0.92432 0.63526 1.00405 0.0
C239 C 0.89992 0.64416 0.99332 0.0
C240 C 0.90125 0.65868 0.96543 0.0
C241 C 0.92731 0.66377 0.9483 0.0
C242 C 0.95174 0.6551 0.95914 0.0
C243 C 0.02249 0.55619 0.98821 0.0
O244 O 0.04231 0.56329 0.0606 0.0
O245 O 0.03197 0.60629 0.04871 0.0
O246 O 0.9949 0.49527 0.0773 0.0
O247 O 0.0242 0.50556 0.03797 0.0
O248 O 0.9831 0.54421 0.10029 0.0
O249 O 0.98413 0.57289 0.06576 0.0
O250 O 0.94739 0.56059 1.01173 0.0
O251 O 0.95353 0.51831 0.03197 0.0
O252 O 0.98742 0.6155 0.98127 0.0
O253 O 0.97832 0.62792 0.02764 0.0
O254 O 0.0296 0.58353 0.98916 0.0
O255 O 0.99939 0.54787 1.00402 0.0
H256 H 0.03975 0.44558 0.04508 0.0
H257 H 0.08397 0.43462 0.06522 0.0
H258 H 0.08996 0.50127 0.13236 0.0
H259 H 0.04618 0.51298 0.11075 0.0
H260 H 0.92274 0.62418 0.02564 0.0
H261 H 0.88001 0.63974 1.00685 0.0
H262 H 0.9291 0.67519 0.92692 0.0
H263 H 0.97176 0.65975 0.94579 0.0
C264 C 0.32064 0.31308 0.28605 0.0
C265 C 0.32239 0.30924 0.25433 0.0
C266 C 0.3017 0.29309 0.3039 0.0
C267 C 0.23319 0.23997 0.29315 0.0
H268 H 0.24162 0.22515 0.37925 0.0
C269 C 0.13366 0.19068 0.3668 0.0
C270 C 0.13683 0.17039 0.38839 0.0
C271 C 0.1581 0.20678 0.35189 0.0
C272 C 0.23901 0.22884 0.35512 0.0
H273 H 0.3074 0.28091 0.21661 0.0
H274 H 0.27608 0.2451 0.24779 0.0
H275 H 0.28334 0.25202 0.35049 0.0
H276 H 0.168 0.15108 0.41145 0.0
H277 H 0.21069 0.17884 0.38499 0.0
H278 H 0.18922 0.21643 0.2974 0.0
C279 C 0.28844 0.26388 0.25893 0.0
C280 C 0.26286 0.24447 0.33872 0.0
C281 C 0.30689 0.28408 0.24111 0.0
C282 C 0.16497 0.16681 0.39513 0.0
C283 C 0.18942 0.18275 0.38001 0.0
C284 C 0.20952 0.22425 0.30942 0.0
C285 C 0.28446 0.26878 0.29026 0.0
C286 C 0.26015 0.25039 0.30755 0.0
C287 C 0.18624 0.20274 0.35797 0.0
C288 C 0.21197 0.21878 0.34069 0.0
H289 H 0.33244 0.33243 0.29658 0.0
H290 H 0.29918 0.29766 0.32791 0.0
H291 H 0.23 0.24453 0.26936 0.0
H292 H 0.11226 0.19414 0.3615 0.0
H293 H 0.15489 0.22244 0.33557 0.0
C294 C 0.28922 0.93023 0.69733 0.0
C295 C 0.30958 0.93046 0.67366 0.0
C296 C 0.29833 0.94199 0.72583 0.0
C297 C 0.3627 0.95777 0.77479 0.0
H298 H 0.32086 1.00548 0.81951 0.0
C299 C 0.40736 1.01309 0.88668 0.0
C300 C 0.38734 1.01446 0.91039 0.0
C301 C 0.39759 1.0038 0.85753 0.0
C302 C 0.33257 0.9919 0.80749 0.0
H303 H 0.35491 0.94409 0.66031 0.0
H304 H 0.37114 0.96431 0.71035 0.0
H305 H 0.30406 0.98779 0.76885 0.0
H306 H 0.34126 1.00747 0.92183 0.0
H307 H 0.32422 0.99033 0.87123 0.0
H308 H 0.39085 0.96127 0.81344 0.0
C309 C 0.34821 0.95478 0.70706 0.0
C310 C 0.32299 0.98186 0.77846 0.0
C311 C 0.33903 0.94324 0.67855 0.0
C312 C 0.35728 1.00637 0.9042 0.0
C313 C 0.3475 0.99689 0.87506 0.0
C314 C 0.37213 0.96759 0.80386 0.0
C315 C 0.328 0.95399 0.73109 0.0
C316 C 0.33805 0.9648 0.7618 0.0
C317 C 0.36755 0.99542 0.8514 0.0
C318 C 0.35727 0.98487 0.82053 0.0
H319 H 0.26643 0.92027 0.69398 0.0
H320 H 0.28233 0.94091 0.74401 0.0
H321 H 0.37441 0.94424 0.76267 0.0
H322 H 0.43066 1.01881 0.8907 0.0
H323 H 0.41365 1.00331 0.83976 0.0
C324 C 0.60217 0.43062 0.81324 0.0
C325 C 0.62364 0.415 0.80913 0.0
C326 C 0.59095 0.44269 0.78809 0.0
C327 C 0.60567 0.46144 0.7044 0.0
H328 H 0.52614 0.47122 0.70755 0.0
C329 C 0.54794 0.50037 0.59908 0.0
C330 C 0.53048 0.51985 0.60521 0.0
C331 C 0.55958 0.48707 0.62312 0.0
C332 C 0.54851 0.46892 0.70626 0.0
H333 H 0.65024 0.39976 0.77552 0.0
H334 H 0.63029 0.41989 0.73142 0.0
H335 H 0.54523 0.44909 0.75016 0.0
H336 H 0.51171 0.54023 0.64199 0.0
H337 H 0.53156 0.51712 0.68338 0.0
H338 H 0.60851 0.48089 0.66005 0.0
C339 C 0.62229 0.42352 0.75402 0.0
C340 C 0.55964 0.45622 0.73097 0.0
C341 C 0.63364 0.41166 0.77927 0.0
C342 C 0.52501 0.52545 0.63612 0.0
C343 C 0.5363 0.51196 0.66004 0.0
C344 C 0.59439 0.47389 0.6795 0.0
C345 C 0.60072 0.43937 0.75787 0.0
C346 C 0.58856 0.45241 0.73076 0.0
C347 C 0.55379 0.49251 0.65407 0.0
C348 C 0.56568 0.47811 0.6801 0.0
H349 H 0.59432 0.43374 0.83606 0.0
H350 H 0.57494 0.45508 0.79257 0.0
H351 H 0.62813 0.4595 0.70311 0.0
H352 H 0.5527 0.4954 0.57568 0.0
H353 H 0.57274 0.47213 0.61741 0.0
C354 C 0.90073 0.69475 0.31883 0.0
C355 C 0.8804 0.71132 0.31309 0.0
C356 C 0.91369 0.68244 0.29464 0.0
C357 C 0.92669 0.68255 0.20926 0.0
H358 H 0.92838 0.60444 0.22216 0.0
C359 C 0.95676 0.61101 0.10945 0.0
C360 C 0.96888 0.58804 0.11721 0.0
C361 C 0.94698 0.6275 0.13244 0.0
C362 C 0.92882 0.62638 0.21796 0.0
H363 H 0.85815 0.72803 0.27708 0.0
H364 H 0.88154 0.70773 0.2348 0.0
H365 H 0.9121 0.63114 0.26306 0.0
H366 H 0.98096 0.56534 0.15564 0.0
H367 H 0.96558 0.59417 0.19496 0.0
H368 H 0.94384 0.67792 0.16423 0.0
C369 C 0.88774 0.70429 0.25803 0.0
C370 C 0.91922 0.64183 0.24176 0.0
C371 C 0.8745 0.71628 0.2823 0.0
C372 C 0.9715 0.5826 0.14855 0.0
C373 C 0.96224 0.59918 0.17138 0.0
C374 C 0.93673 0.66717 0.18547 0.0
C375 C 0.90685 0.68632 0.26374 0.0
C376 C 0.91797 0.67024 0.238 0.0
C377 C 0.94927 0.62178 0.16403 0.0
C378 C 0.93813 0.63867 0.18928 0.0
H379 H 0.90502 0.6897 0.3422 0.0
H380 H 0.92846 0.66909 0.30025 0.0
H381 H 0.92623 0.70435 0.20525 0.0
H382 H 0.95414 0.61582 0.08563 0.0
H383 H 0.93701 0.64436 0.12528 0.0
C384 C 0.38677 0.30176 0.22576 0.0
C385 C 0.36655 0.30816 0.20508 0.0
C386 C 0.39935 0.27869 0.22042 0.0
C387 C 0.38578 0.21005 0.18348 0.0
H388 H 0.46981 0.22041 0.17665 0.0
C389 C 0.43842 0.12825 0.12426 0.0
C390 C 0.4666 0.12581 0.13252 0.0
C391 C 0.42573 0.14859 0.1379 0.0
C392 C 0.44633 0.21688 0.17917 0.0
H393 H 0.34262 0.29529 0.16343 0.0
H394 H 0.36421 0.25462 0.1542 0.0
H395 H 0.44885 0.26005 0.1915 0.0
H396 H 0.50281 0.14181 0.16299 0.0
H397 H 0.48016 0.17662 0.18771 0.0
H398 H 0.38294 0.16694 0.17168 0.0
C399 C 0.37074 0.26766 0.17422 0.0
C400 C 0.43438 0.2397 0.1875 0.0
C401 C 0.35868 0.291 0.17925 0.0
C402 C 0.48114 0.14324 0.15594 0.0
C403 C 0.46823 0.1634 0.16992 0.0
C404 C 0.39769 0.18712 0.17572 0.0
C405 C 0.39121 0.26131 0.19473 0.0
C406 C 0.40399 0.23662 0.189 0.0
C407 C 0.44063 0.16683 0.16054 0.0
C408 C 0.42812 0.19035 0.17264 0.0
H409 H 0.39278 0.31468 0.24595 0.0
H410 H 0.41499 0.27412 0.2366 0.0
H411 H 0.36226 0.2071 0.18493 0.0
H412 H 0.42661 0.11535 0.10616 0.0
H413 H 0.40471 0.15075 0.12957 0.0
C414 C 0.23187 0.93491 0.63599 0.0
C415 C 0.26229 0.94247 0.63321 0.0
C416 C 0.21566 0.95559 0.63617 0.0
C417 C 0.2191 1.02265 0.60097 0.0
H418 H 0.14462 1.01617 0.64231 0.0
C419 C 0.13025 0.07367 0.55159 0.0
C420 C 0.1034 0.0542 0.54885 0.0
C421 C 0.15211 0.06772 0.57034 0.0
C422 C 0.16549 1.01845 0.63074 0.0
H423 H 0.30013 0.97699 0.63025 0.0
H424 H 0.27171 1.01363 0.63016 0.0
H425 H 0.17996 0.99104 0.66226 0.0
H426 H 0.07794 1.01375 0.56385 0.0
H427 H 0.1158 1.00324 0.59617 0.0
H428 H 0.20391 0.04833 0.56818 0.0
C429 C 0.26037 0.99176 0.63232 0.0
C430 C 0.18569 1.00414 0.6422 0.0
C431 C 0.27658 0.97098 0.63245 0.0
C432 C 0.09838 1.02918 0.56572 0.0
C433 C 0.12003 1.0233 0.58448 0.0
C434 C 0.19884 0.03686 0.58942 0.0
C435 C 0.2297 0.98418 0.63326 0.0
C436 C 0.21208 1.00502 0.62655 0.0
C437 C 0.14729 0.04229 0.58671 0.0
C438 C 0.17125 0.03371 0.60331 0.0
H439 H 0.22068 0.91292 0.63671 0.0
H440 H 0.19205 0.94905 0.63652 0.0
H441 H 0.23919 1.02358 0.58829 0.0
H442 H 0.1345 0.09322 0.53893 0.0
H443 H 0.17289 0.08276 0.57168 0.0
C444 C 0.6913 0.41307 0.92148 0.0
C445 C 0.6918 0.40188 0.89181 0.0
C446 C 0.71747 0.42496 0.9369 0.0
C447 C 0.79482 0.45993 0.92008 0.0
H448 H 0.80683 0.45268 1.00702 0.0
C449 C 0.89314 0.53138 0.98393 0.0
C450 C 0.90821 0.51836 1.00521 0.0
C451 C 0.86654 0.51676 0.97119 0.0
C452 C 0.80394 0.45491 0.98268 0.0
H453 H 0.72017 0.39431 0.8552 0.0
H454 H 0.76578 0.41465 0.88192 0.0
H455 H 0.76159 0.4266 0.98339 0.0
H456 H 0.90619 0.47955 0.03005 0.0
H457 H 0.85985 0.45438 1.00825 0.0
H458 H 0.837 0.48831 0.91929 0.0
C459 C 0.74524 0.41425 0.89351 0.0
C460 C 0.77781 0.44005 0.96913 0.0
C461 C 0.71912 0.40214 0.87832 0.0
C462 C 0.89541 0.49043 1.01379 0.0
C463 C 0.86863 0.47594 1.00134 0.0
C464 C 0.82072 0.47506 0.93367 0.0
C465 C 0.7449 0.42651 0.92277 0.0
C466 C 0.77286 0.44218 0.93754 0.0
C467 C 0.85387 0.48873 0.97955 0.0
C468 C 0.82582 0.47277 0.9652 0.0
H469 H 0.67067 0.41425 0.93195 0.0
H470 H 0.71615 0.43439 0.95921 0.0
H471 H 0.79183 0.46252 0.89581 0.0
H472 H 0.90213 0.5528 0.97663 0.0
H473 H 0.8558 0.52754 0.9548 0.0
C474 C 0.79116 0.68636 0.41397 0.0
C475 C 0.79291 0.69141 0.38227 0.0
C476 C 0.76445 0.67378 0.42814 0.0
C477 C 0.68297 0.65725 0.41586 0.0
H478 H 0.68231 0.60986 0.48687 0.0
C479 C 0.57403 0.59618 0.47313 0.0
C480 C 0.573 0.5954 0.50534 0.0
C481 C 0.60054 0.60668 0.45741 0.0
C482 C 0.68198 0.62323 0.46724 0.0
H483 H 0.76775 0.68688 0.34064 0.0
H484 H 0.72132 0.66421 0.36493 0.0
H485 H 0.72832 0.62995 0.46109 0.0
H486 H 0.59942 0.60466 0.54608 0.0
H487 H 0.64537 0.62269 0.51894 0.0
H488 H 0.63649 0.65027 0.42201 0.0
C489 C 0.74045 0.67044 0.37918 0.0
C490 C 0.70859 0.63492 0.45236 0.0
C491 C 0.7672 0.68316 0.36506 0.0
C492 C 0.59931 0.60488 0.52129 0.0
C493 C 0.6258 0.61514 0.50563 0.0
C494 C 0.65632 0.64541 0.43066 0.0
C495 C 0.73849 0.6656 0.41107 0.0
C496 C 0.7097 0.65236 0.42649 0.0
C497 C 0.62692 0.61647 0.47339 0.0
C498 C 0.65535 0.62835 0.45678 0.0
H499 H 0.81056 0.69225 0.42787 0.0
H500 H 0.76418 0.67096 0.45269 0.0
H501 H 0.68259 0.67082 0.39642 0.0
H502 H 0.55424 0.58905 0.46004 0.0
H503 H 0.60037 0.60695 0.43265 0.0
C504 C 0.29664 0.37085 0.16453 0.0
C505 C 0.31712 0.3844 0.18595 0.0
C506 C 0.27676 0.38485 0.15187 0.0
C507 C 0.24063 0.44278 0.17039 0.0
H508 H 0.20502 0.42232 0.09131 0.0
C509 C 0.14199 0.48307 0.12063 0.0
C510 C 0.11863 0.46104 0.11156 0.0
C511 C 0.16894 0.47752 0.12865 0.0
C512 C 0.21488 0.4283 0.11339 0.0
H513 H 0.33415 0.42327 0.21013 0.0
H514 H 0.29993 0.44854 0.18716 0.0
H515 H 0.24961 0.40756 0.10458 0.0
H516 H 0.10515 0.41569 0.10546 0.0
H517 H 0.15238 0.40635 0.11826 0.0
H518 H 0.20564 0.46363 0.17889 0.0
C519 C 0.29878 0.42689 0.1805 0.0
C520 C 0.24034 0.41977 0.1211 0.0
C521 C 0.31859 0.41269 0.19335 0.0
C522 C 0.12276 0.43331 0.11147 0.0
C523 C 0.14977 0.42788 0.11892 0.0
C524 C 0.21539 0.45173 0.16243 0.0
C525 C 0.27703 0.41285 0.16027 0.0
C526 C 0.25302 0.42606 0.1501 0.0
C527 C 0.17317 0.44994 0.12725 0.0
C528 C 0.20185 0.4438 0.13424 0.0
H529 H 0.29492 0.34883 0.1591 0.0
H530 H 0.2601 0.37307 0.1369 0.0
H531 H 0.2495 0.44779 0.19306 0.0
H532 H 0.13983 0.50472 0.12063 0.0
H533 H 0.18673 0.49485 0.13505 0.0
C534 C 0.63332 0.35009 0.92333 0.0
C535 C 0.63934 0.34942 0.89181 0.0
C536 C 0.62404 0.32491 0.9401 0.0
C537 C 0.61544 0.24544 0.9345 0.0
H538 H 0.55953 0.24435 1.00033 0.0
C539 C 0.54464 0.14065 0.98364 0.0
C540 C 0.53916 0.13856 1.01536 0.0
C541 C 0.55891 0.16632 0.97021 0.0
C542 C 0.57536 0.24422 0.98223 0.0
H543 H 0.64063 0.3217 0.8534 0.0
H544 H 0.62417 0.27813 0.88191 0.0
H545 H 0.58078 0.28855 0.97455 0.0
H546 H 0.54482 0.16224 0.0578 0.0
H547 H 0.56943 0.20709 0.03441 0.0
H548 H 0.60926 0.20091 0.9417 0.0
C549 C 0.62715 0.29783 0.89431 0.0
C550 C 0.58777 0.2698 0.96736 0.0
C551 C 0.63659 0.32294 0.87774 0.0
C552 C 0.54866 0.16297 0.03332 0.0
C553 C 0.56263 0.1888 1.01981 0.0
C554 C 0.60279 0.21986 0.94913 0.0
C555 C 0.62017 0.29819 0.92579 0.0
C556 C 0.60794 0.27096 0.94298 0.0
C557 C 0.56794 0.19097 0.98796 0.0
C558 C 0.58236 0.2187 0.97314 0.0
H559 H 0.63447 0.37006 0.93473 0.0
H560 H 0.61946 0.3265 0.96426 0.0
H561 H 0.6313 0.24508 0.91652 0.0
H562 H 0.5376 0.12239 0.96903 0.0
H563 H 0.56222 0.16697 0.94566 0.0
C564 C 0.88196 0.78704 0.34929 0.0
C565 C 0.88594 0.76139 0.36113 0.0
C566 C 0.8971 0.81312 0.36143 0.0
C567 C 0.93708 0.84346 0.43332 0.0
H568 H 0.94971 0.9133 0.38814 0.0
C569 C 0.97106 0.95232 0.49612 0.0
C570 C 0.98824 0.97564 0.48065 0.0
C571 C 0.95974 0.92665 0.48077 0.0
C572 C 0.94677 0.89411 0.40129 0.0
H573 H 0.90986 0.74334 0.3945 0.0
H574 H 0.93773 0.78836 0.41435 0.0
H575 H 0.93114 0.86886 0.36191 0.0
H576 H 0.00693 0.98947 0.43636 0.0
H577 H 0.98813 0.94499 0.41 0.0
H578 H 0.95361 0.86856 0.47245 0.0
C579 C 0.92231 0.78869 0.39618 0.0
C580 C 0.93556 0.8683 0.38613 0.0
C581 C 0.90691 0.76266 0.3842 0.0
C582 C 0.99368 0.97226 0.44922 0.0
C583 C 0.9826 0.94652 0.43392 0.0
C584 C 0.9485 0.86922 0.44841 0.0
C585 C 0.91689 0.81452 0.38593 0.0
C586 C 0.9303 0.84235 0.40181 0.0
C587 C 0.96536 0.92307 0.44932 0.0
C588 C 0.95345 0.89521 0.43283 0.0
H589 H 0.86516 0.78684 0.33241 0.0
H590 H 0.8917 0.83207 0.35279 0.0
H591 H 0.93308 0.8244 0.44678 0.0
H592 H 0.96616 0.95388 0.52024 0.0
H593 H 0.94621 0.9097 0.49372 0.0
C594 C 0.3255 0.8789 0.56026 0.0
C595 C 0.30348 0.8696 0.58197 0.0
C596 C 0.33524 0.85947 0.54166 0.0
C597 C 0.32192 0.78327 0.52071 0.0
H598 H 0.40584 0.79612 0.53003 0.0
C599 C 0.38134 0.69581 0.54263 0.0
C600 C 0.41095 0.69949 0.53473 0.0
C601 C 0.36616 0.71639 0.53537 0.0
C602 C 0.38253 0.79233 0.52626 0.0
H603 H 0.27306 0.83373 0.60073 0.0
H604 H 0.29036 0.79932 0.5688 0.0
H605 H 0.38169 0.83398 0.5406 0.0
H606 H 0.44722 0.72609 0.51059 0.0
H607 H 0.42058 0.76207 0.49757 0.0
H608 H 0.32282 0.74094 0.50804 0.0
C609 C 0.2998 0.8215 0.5654 0.0
C610 C 0.36861 0.81415 0.53238 0.0
C611 C 0.29 0.84101 0.58383 0.0
C612 C 0.42454 0.7231 0.5175 0.0
C613 C 0.40928 0.7436 0.50999 0.0
C614 C 0.33591 0.76137 0.5145 0.0
C615 C 0.32326 0.83046 0.54488 0.0
C616 C 0.33803 0.80951 0.53102 0.0
C617 C 0.38025 0.74099 0.5199 0.0
C618 C 0.36622 0.76534 0.51861 0.0
H619 H 0.33596 0.90104 0.55875 0.0
H620 H 0.3531 0.86703 0.52584 0.0
H621 H 0.29837 0.77924 0.51895 0.0
H622 H 0.37038 0.67784 0.55603 0.0
H623 H 0.34398 0.71383 0.54376 0.0
C624 C 0.757 0.84857 0.84153 0.0
C625 C 0.72942 0.84043 0.82803 0.0
C626 C 0.78198 0.8567 0.82331 0.0
C627 C 0.81055 0.8565 0.74391 0.0
H628 H 0.86334 0.92553 0.7702 0.0
C629 C 0.89715 0.92432 0.66404 0.0
C630 C 0.92422 0.93747 0.67677 0.0
C631 C 0.87451 0.9096 0.68261 0.0
C632 C 0.84913 0.90599 0.76272 0.0
H633 H 0.70597 0.83326 0.7854 0.0
H634 H 0.74964 0.84786 0.75317 0.0
H635 H 0.8221 0.90416 0.8025 0.0
H636 H 0.94875 0.94506 0.71903 0.0
H637 H 0.9096 0.91885 0.75119 0.0
H638 H 0.8375 0.85868 0.70382 0.0
C639 C 0.75214 0.84766 0.77778 0.0
C640 C 0.82546 0.89371 0.78128 0.0
C641 C 0.72718 0.83949 0.79608 0.0
C642 C 0.92831 0.93498 0.70838 0.0
C643 C 0.90572 0.92023 0.72691 0.0
C644 C 0.83432 0.8688 0.72531 0.0
C645 C 0.77976 0.85699 0.79123 0.0
C646 C 0.80579 0.86892 0.77205 0.0
C647 C 0.87842 0.90768 0.71433 0.0
C648 C 0.85379 0.89379 0.73444 0.0
H649 H 0.75903 0.84966 0.86619 0.0
H650 H 0.80296 0.86339 0.83437 0.0
H651 H 0.79594 0.83725 0.73629 0.0
H652 H 0.89338 0.92554 0.63972 0.0
H653 H 0.85368 0.90038 0.6722 0.0
C654 C 0.77127 0.24219 0.40338 0.0
C655 C 0.76437 0.23181 0.43296 0.0
C656 C 0.76261 0.22489 0.378 0.0
C657 C 0.70391 0.16777 0.35446 0.0
H658 H 0.75179 0.16495 0.28239 0.0
C659 C 0.65247 0.11573 0.24366 0.0
C660 C 0.66152 0.13091 0.21671 0.0
C661 C 0.6682 0.12243 0.27075 0.0
C662 C 0.73806 0.16563 0.30226 0.0
H663 H 0.74395 0.19559 0.45985 0.0
H664 H 0.72815 0.16513 0.41528 0.0
H665 H 0.7742 0.18782 0.32894 0.0
H666 H 0.69536 0.16376 0.19667 0.0
H667 H 0.72185 0.17634 0.24393 0.0
H668 H 0.66748 0.1473 0.32762 0.0
C669 C 0.74045 0.1865 0.41169 0.0
C670 C 0.75096 0.17859 0.32892 0.0
C671 C 0.7495 0.20374 0.43705 0.0
C672 C 0.68739 0.15204 0.21716 0.0
C673 C 0.70291 0.15894 0.24425 0.0
C674 C 0.69093 0.15518 0.32773 0.0
C675 C 0.74653 0.19708 0.38193 0.0
C676 C 0.73388 0.18025 0.35504 0.0
C677 C 0.6932 0.14464 0.27157 0.0
C678 C 0.70772 0.15451 0.30105 0.0
H679 H 0.78268 0.26389 0.40005 0.0
H680 H 0.76728 0.23364 0.3553 0.0
H681 H 0.69019 0.16906 0.37421 0.0
H682 H 0.6326 0.09938 0.24419 0.0
H683 H 0.66036 0.11062 0.29121 0.0
C684 C 0.37913 0.74017 0.29233 0.0
C685 C 0.38128 0.7318 0.26171 0.0
C686 C 0.39121 0.72715 0.31629 0.0
C687 C 0.44006 0.67648 0.33287 0.0
H688 H 0.39491 0.66345 0.40801 0.0
C689 C 0.46095 0.59625 0.42486 0.0
C690 C 0.45813 0.60264 0.4561 0.0
C691 C 0.45263 0.61291 0.40169 0.0
C692 C 0.40811 0.66706 0.3874 0.0
H693 H 0.39815 0.70332 0.23246 0.0
H694 H 0.41955 0.68098 0.27352 0.0
H695 H 0.3805 0.69178 0.36771 0.0
H696 H 0.44402 0.63207 0.48688 0.0
H697 H 0.42958 0.66082 0.4469 0.0
H698 H 0.46741 0.65139 0.35247 0.0
C699 C 0.4091 0.69795 0.27946 0.0
C700 C 0.39983 0.68356 0.36407 0.0
C701 C 0.39706 0.711 0.25564 0.0
C702 C 0.44641 0.62616 0.46325 0.0
C703 C 0.43797 0.64273 0.44012 0.0
C704 C 0.44826 0.65989 0.35615 0.0
C705 C 0.40567 0.7051 0.31042 0.0
C706 C 0.41554 0.68855 0.3362 0.0
C707 C 0.44105 0.63657 0.40881 0.0
C708 C 0.43239 0.6547 0.38387 0.0
H709 H 0.36634 0.75545 0.29791 0.0
H710 H 0.38836 0.73385 0.33954 0.0
H711 H 0.45325 0.67998 0.31225 0.0
H712 H 0.46988 0.57845 0.41821 0.0
H713 H 0.45507 0.607 0.37807 0.0
C714 C 0.10484 0.43475 0.76262 0.0
C715 C 0.12887 0.42262 0.76765 0.0
C716 C 0.09275 0.44806 0.78663 0.0
C717 C 0.0874 0.45282 0.87212 0.0
H718 H 0.06655 0.52394 0.8563 0.0
C719 C 0.02462 0.50975 0.96147 0.0
C720 C 0.03456 0.53917 0.96445 0.0
C721 C 0.03575 0.49462 0.93821 0.0
C722 C 0.07225 0.50411 0.86127 0.0
H723 H 0.15899 0.41498 0.8019 0.0
H724 H 0.13763 0.43755 0.84406 0.0
H725 H 0.08626 0.49962 0.81494 0.0
H726 H 0.06426 0.57544 0.94484 0.0
H727 H 0.08299 0.54946 0.90443 0.0
H728 H 0.07319 0.45733 0.9185 0.0
C729 C 0.12798 0.43683 0.82157 0.0
C730 C 0.0834 0.48996 0.83734 0.0
C731 C 0.14034 0.42392 0.79741 0.0
C732 C 0.05594 0.55286 0.94345 0.0
C733 C 0.06664 0.5379 0.92 0.0
C734 C 0.07575 0.46675 0.89598 0.0
C735 C 0.10407 0.44937 0.81661 0.0
C736 C 0.09141 0.46414 0.8423 0.0
C737 C 0.05675 0.50851 0.91681 0.0
C738 C 0.06819 0.49281 0.89108 0.0
H739 H 0.09567 0.43423 0.73991 0.0
H740 H 0.0743 0.45719 0.78173 0.0
H741 H 0.09303 0.43294 0.877 0.0
H742 H 0.00805 0.4984 0.97695 0.0
H743 H 0.02737 0.47208 0.93656 0.0
C744 C 0.66882 0.88448 0.91208 0.0
C745 C 0.65342 0.86625 0.88997 0.0
C746 C 0.65576 0.90385 0.92704 0.0
C747 C 0.59518 0.94053 0.92018 0.0
H748 H 0.61103 0.95662 1.0062 0.0
C749 C 0.5328 1.00609 0.99515 0.0
C750 C 0.54946 1.02582 1.01534 0.0
C751 C 0.54572 0.98746 0.97863 0.0
C752 C 0.60667 0.95257 0.98209 0.0
H753 H 0.61271 0.85342 0.86581 0.0
H754 H 0.58911 0.88699 0.89253 0.0
H755 H 0.63202 0.92127 0.98046 0.0
H756 H 0.59287 0.04185 0.03354 0.0
H757 H 0.61541 1.00909 1.00473 0.0
H758 H 0.56934 0.97158 0.92215 0.0
C759 C 0.61146 0.88671 0.89806 0.0
C760 C 0.61869 0.93232 0.96731 0.0
C761 C 0.62472 0.8674 0.88296 0.0
C762 C 0.57946 1.02692 1.01816 0.0
C763 C 0.59232 1.00806 1.00185 0.0
C764 C 0.58296 0.96065 0.93506 0.0
C765 C 0.6269 0.90523 0.92025 0.0
C766 C 0.61325 0.92615 0.93612 0.0
C767 C 0.5755 0.98797 0.98215 0.0
C768 C 0.58871 0.96695 0.96613 0.0
H769 H 0.69116 0.88388 0.91738 0.0
H770 H 0.6685 0.91809 0.94351 0.0
H771 H 0.59089 0.93664 0.89605 0.0
H772 H 0.50965 1.00477 0.99235 0.0
H773 H 0.5322 0.97209 0.96377 0.0
C774 C 0.82353 0.22387 0.46095 0.0
C775 C 0.80403 0.22628 0.48471 0.0
C776 C 0.84037 0.20368 0.46231 0.0
C777 C 0.8466 0.13879 0.50393 0.0
H778 H 0.92758 0.16032 0.47768 0.0
C779 C 0.93759 0.08956 0.54953 0.0
C780 C 0.95661 0.08135 0.52825 0.0
C781 C 0.91689 0.10408 0.54 0.0
C782 C 0.90488 0.15389 0.48461 0.0
H783 H 0.78605 0.20926 0.52806 0.0
H784 H 0.81655 0.17501 0.53156 0.0
H785 H 0.89538 0.19244 0.46945 0.0
H786 H 0.96868 0.08124 0.48033 0.0
H787 H 0.93296 0.10789 0.46369 0.0
H788 H 0.85683 0.10093 0.5207 0.0
C789 C 0.8185 0.18816 0.51143 0.0
C790 C 0.88637 0.17222 0.47988 0.0
C791 C 0.80141 0.2081 0.5098 0.0
C792 C 0.95441 0.08761 0.49716 0.0
C793 C 0.93402 0.10272 0.48767 0.0
C794 C 0.86523 0.1207 0.50906 0.0
C795 C 0.83823 0.18571 0.4877 0.0
C796 C 0.85715 0.16513 0.49005 0.0
C797 C 0.91516 0.11107 0.50909 0.0
C798 C 0.89462 0.12834 0.49993 0.0
H799 H 0.82582 0.23776 0.4414 0.0
H800 H 0.85498 0.20215 0.44342 0.0
H801 H 0.82406 0.13232 0.51135 0.0
H802 H 0.93881 0.08495 0.57365 0.0
H803 H 0.90278 0.11058 0.55697 0.0
C804 C 0.28965 0.68746 0.18249 0.0
C805 C 0.29359 0.71486 0.19454 0.0
C806 C 0.26344 0.6743 0.16807 0.0
C807 C 0.18523 0.68009 0.15778 0.0
H808 H 0.18692 0.62701 0.09179 0.0
C809 C 0.08376 0.63496 0.08137 0.0
C810 C 0.07776 0.6059 0.07477 0.0
C811 C 0.10994 0.64841 0.09574 0.0
C812 C 0.18596 0.64162 0.11033 0.0
H813 H 0.27278 0.74978 0.201 0.0
H814 H 0.22768 0.72763 0.17481 0.0
H815 H 0.23224 0.65003 0.11677 0.0
H816 H 0.0952 0.56841 0.0781 0.0
H817 H 0.14079 0.59186 0.10258 0.0
H818 H 0.13891 0.672 0.15066 0.0
C819 C 0.24446 0.71579 0.17701 0.0
C820 C 0.21209 0.65484 0.12489 0.0
C821 C 0.27057 0.72877 0.19173 0.0
C822 C 0.09892 0.5908 0.08268 0.0
C823 C 0.12524 0.60431 0.09666 0.0
C824 C 0.15917 0.66712 0.14295 0.0
C825 C 0.24033 0.68825 0.16488 0.0
C826 C 0.21226 0.67425 0.14902 0.0
C827 C 0.13112 0.6333 0.10359 0.0
C828 C 0.15908 0.64758 0.11908 0.0
H829 H 0.30703 0.67624 0.18405 0.0
H830 H 0.26129 0.653 0.15969 0.0
H831 H 0.18398 0.69437 0.17654 0.0
H832 H 0.06806 0.64735 0.07577 0.0
H833 H 0.11373 0.67078 0.10043 0.0
C834 C 0.19944 0.41362 0.65594 0.0
C835 C 0.20052 0.40805 0.6874 0.0
C836 C 0.22519 0.42515 0.63923 0.0
C837 C 0.30119 0.46793 0.65138 0.0
H838 H 0.31431 0.44849 0.56725 0.0
C839 C 0.41181 0.51513 0.58855 0.0
C840 C 0.41191 0.51894 0.55664 0.0
C841 C 0.38619 0.50141 0.60419 0.0
C842 C 0.311 0.45466 0.5906 0.0
H843 H 0.22967 0.40934 0.7256 0.0
H844 H 0.27439 0.42895 0.69677 0.0
H845 H 0.27009 0.42426 0.59395 0.0
H846 H 0.38457 0.51181 0.51645 0.0
H847 H 0.34002 0.48896 0.54346 0.0
H848 H 0.34162 0.49868 0.64806 0.0
C849 C 0.25375 0.42483 0.68483 0.0
C850 C 0.28545 0.44053 0.60604 0.0
C851 C 0.22812 0.41317 0.70135 0.0
C852 C 0.38545 0.50919 0.54099 0.0
C853 C 0.35981 0.49571 0.5566 0.0
C854 C 0.32658 0.48223 0.63589 0.0
C855 C 0.25276 0.43174 0.65362 0.0
C856 C 0.28011 0.44679 0.63679 0.0
C857 C 0.35964 0.49121 0.58851 0.0
C858 C 0.33213 0.47589 0.60516 0.0
H859 H 0.17852 0.41063 0.64468 0.0
H860 H 0.22327 0.43022 0.61535 0.0
H861 H 0.29783 0.47392 0.6748 0.0
H862 H 0.43175 0.52214 0.60142 0.0
H863 H 0.38753 0.49824 0.62857 0.0
C864 C 0.72663 0.79889 0.90803 0.0
C865 C 0.71485 0.79817 0.87855 0.0
C866 C 0.74383 0.78021 0.9161 0.0
C867 C 0.79276 0.73908 0.88442 0.0
H868 H 0.78059 0.70046 0.96241 0.0
C869 C 0.8676 0.66718 0.92396 0.0
C870 C 0.87608 0.6697 0.9548 0.0
C871 C 0.84524 0.67939 0.91357 0.0
C872 C 0.78446 0.71126 0.94067 0.0
H873 H 0.71237 0.77818 0.83409 0.0
H874 H 0.74318 0.74557 0.84798 0.0
H875 H 0.74675 0.72871 0.94603 0.0
H876 H 0.86768 0.68678 0.99898 0.0
H877 H 0.82913 0.7085 0.98089 0.0
H878 H 0.83108 0.72265 0.87948 0.0
C879 C 0.73867 0.76034 0.86495 0.0
C880 C 0.765 0.72733 0.93126 0.0
C881 C 0.7211 0.77886 0.85701 0.0
C882 C 0.86135 0.68415 0.97517 0.0
C883 C 0.83918 0.69655 0.96476 0.0
C884 C 0.81242 0.72322 0.89395 0.0
C885 C 0.75006 0.76076 0.89465 0.0
C886 C 0.7692 0.74173 0.90326 0.0
C887 C 0.83103 0.69459 0.93376 0.0
C888 C 0.80877 0.70946 0.92243 0.0
H889 H 0.72304 0.81432 0.92464 0.0
H890 H 0.75288 0.78145 0.93892 0.0
H891 H 0.79667 0.75019 0.86285 0.0
H892 H 0.87836 0.65586 0.90782 0.0
H893 H 0.83921 0.67702 0.88968 0.0
C894 C 0.40611 0.78959 0.19788 0.0
C895 C 0.38427 0.78593 0.22066 0.0
C896 C 0.42074 0.81674 0.18827 0.0
C897 C 0.43446 0.89405 0.20781 0.0
H898 H 0.44615 0.90418 0.12031 0.0
C899 C 0.49948 0.99982 0.15592 0.0
C900 C 0.49038 1.00954 0.12815 0.0
C901 C 0.48641 0.97306 0.16749 0.0
C902 C 0.4429 0.90189 0.1448 0.0
H903 H 0.36126 0.80817 0.2515 0.0
H904 H 0.38733 0.8554 0.2359 0.0
H905 H 0.42585 0.85724 0.14088 0.0
H906 H 0.46007 0.99814 0.09075 0.0
H907 H 0.43713 0.95119 0.11085 0.0
H908 H 0.45122 0.93868 0.21175 0.0
C909 C 0.39348 0.83739 0.22541 0.0
C910 C 0.43156 0.87473 0.15674 0.0
C911 C 0.37872 0.81023 0.23477 0.0
C912 C 0.46756 0.99153 0.11227 0.0
C913 C 0.45458 0.96444 0.12376 0.0
C914 C 0.44603 0.92113 0.19591 0.0
C915 C 0.41404 0.84119 0.20119 0.0
C916 C 0.42711 0.87026 0.18849 0.0
C917 C 0.46381 0.9547 0.15164 0.0
C918 C 0.45051 0.92563 0.16417 0.0
H919 H 0.41018 0.77138 0.18581 0.0
H920 H 0.43664 0.81852 0.16992 0.0
H921 H 0.43158 0.89175 0.23234 0.0
H922 H 0.51709 1.01291 0.16878 0.0
H923 H 0.49462 0.96651 0.18869 0.0
C924 C 0.13653 0.35253 0.65856 0.0
C925 C 0.14872 0.35486 0.68801 0.0
C926 C 0.12784 0.32607 0.64389 0.0
C927 C 0.10684 0.24835 0.66156 0.0
H928 H 0.11091 0.23971 0.57363 0.0
C929 C 0.07337 0.13723 0.60239 0.0
C930 C 0.0603 0.13524 0.57327 0.0
C931 C 0.08501 0.16367 0.61615 0.0
C932 C 0.10916 0.24159 0.59822 0.0
H933 H 0.1611 0.33109 0.72514 0.0
H934 H 0.14685 0.28516 0.69963 0.0
H935 H 0.12995 0.28562 0.59702 0.0
H936 H 0.04942 0.16032 0.53616 0.0
H937 H 0.06903 0.20582 0.56002 0.0
H938 H 0.08583 0.20441 0.66279 0.0
C939 C 0.14372 0.30362 0.68763 0.0
C940 C 0.12024 0.2682 0.61176 0.0
C941 C 0.15243 0.33006 0.70217 0.0
C942 C 0.05929 0.16068 0.55851 0.0
C943 C 0.07087 0.18705 0.57224 0.0
C944 C 0.09571 0.22176 0.64803 0.0
C945 C 0.1307 0.30094 0.65839 0.0
C946 C 0.1193 0.27219 0.64373 0.0
C947 C 0.08406 0.18919 0.60134 0.0
C948 C 0.09653 0.21777 0.61603 0.0
H949 H 0.13244 0.37107 0.64748 0.0
H950 H 0.11764 0.32525 0.62168 0.0
H951 H 0.10501 0.25027 0.68615 0.0
H952 H 0.07482 0.1183 0.61457 0.0
H953 H 0.09521 0.16401 0.63832 0.0
C954 C 0.75268 0.3277 0.50005 0.0
C955 C 0.75116 0.30058 0.51131 0.0
C956 C 0.73479 0.34429 0.51239 0.0
C957 C 0.66215 0.33327 0.54386 0.0
H958 H 0.67978 0.41489 0.54704 0.0
C959 C 0.58306 0.39931 0.50535 0.0
C960 C 0.58144 0.42386 0.52164 0.0
C961 C 0.603 0.38345 0.51376 0.0
C962 C 0.67453 0.39208 0.54686 0.0
H963 H 0.73155 0.26987 0.54519 0.0
H964 H 0.69998 0.29891 0.56705 0.0
H965 H 0.71966 0.39016 0.54642 0.0
H966 H 0.59845 0.45008 0.56068 0.0
H967 H 0.63403 0.42271 0.5747 0.0
H968 H 0.61711 0.33523 0.54263 0.0
C969 C 0.71498 0.3074 0.54874 0.0
C970 C 0.69733 0.37797 0.54631 0.0
C971 C 0.73309 0.29092 0.53648 0.0
C972 C 0.59959 0.43163 0.54721 0.0
C973 C 0.6198 0.41591 0.5554 0.0
C974 C 0.6394 0.34738 0.54416 0.0
C975 C 0.7149 0.33383 0.53603 0.0
C976 C 0.69136 0.34848 0.54369 0.0
C977 C 0.62194 0.39189 0.53848 0.0
C978 C 0.64542 0.37692 0.54452 0.0
H979 H 0.76645 0.33529 0.48051 0.0
H980 H 0.73499 0.36441 0.50186 0.0
H981 H 0.65683 0.31055 0.54157 0.0
H982 H 0.56977 0.39291 0.4853 0.0
H983 H 0.60451 0.36527 0.49999 0.0
loop_
_geom_bond_atom_site_label_1
_geom_bond_atom_site_label_2
_geom_bond_distance
_geom_bond_site_symmetry_2
_ccdc_geom_bond_type
C0 N1 1.317 . S
C0 N2 1.348 . S
C0 C3 1.485 . S
N1 C0 1.317 . S
N1 N5 1.370 . S
N2 C0 1.348 . S
N2 C4 1.346 . S
C3 C0 1.485 . S
C3 H7 0.960 . S
C3 H8 0.961 . S
C3 H9 0.960 . S
C4 N2 1.346 . S
C4 N5 1.307 . S
C4 C6 1.486 . S
N5 N1 1.370 . S
N5 C4 1.307 . S
C6 C4 1.486 . S
C6 H10 0.960 . S
C6 H11 0.960 . S
C6 H12 0.959 . S
H7 C3 0.960 . S
H8 C3 0.961 . S
H9 C3 0.960 . S
H10 C6 0.960 . S
H11 C6 0.960 . S
H12 C6 0.959 . S
C13 N14 1.317 . S
C13 N15 1.348 . S
C13 C16 1.485 . S
N14 C13 1.317 . S
N14 N18 1.370 . S
N15 C13 1.348 . S
N15 C17 1.346 . S
C16 C13 1.485 . S
C16 H20 0.960 . S
C16 H21 0.961 . S
C16 H22 0.960 . S
C17 N15 1.346 . S
C17 N18 1.307 . S
C17 C19 1.486 . S
N18 N14 1.370 . S
N18 C17 1.307 . S
C19 C17 1.486 . S
C19 H23 0.960 . S
C19 H24 0.960 . S
C19 H25 0.959 . S
H20 C16 0.960 . S
H21 C16 0.961 . S
H22 C16 0.960 . S
H23 C19 0.960 . S
H24 C19 0.960 . S
H25 C19 0.959 . S
C26 N27 1.317 . S
C26 N28 1.348 . S
C26 C29 1.485 . S
N27 C26 1.317 . S
N27 N31 1.370 . S
N28 C26 1.348 . S
N28 C30 1.346 . S
C29 C26 1.485 . S
C29 H33 0.960 . S
C29 H34 0.961 . S
C29 H35 0.960 . S
C30 N28 1.346 . S
C30 N31 1.307 . S
C30 C32 1.486 . S
N31 N27 1.370 . S
N31 C30 1.307 . S
C32 C30 1.486 . S
C32 H36 0.960 . S
C32 H37 0.960 . S
C32 H38 0.959 . S
H33 C29 0.960 . S
H34 C29 0.961 . S
H35 C29 0.960 . S
H36 C32 0.960 . S
H37 C32 0.960 . S
H38 C32 0.959 . S
C39 N40 1.317 . S
C39 N41 1.348 . S
C39 C42 1.485 . S
N40 C39 1.317 . S
N40 N44 1.370 . S
N41 C39 1.348 . S
N41 C43 1.346 . S
C42 C39 1.485 . S
C42 H46 0.960 . S
C42 H47 0.961 . S
C42 H48 0.960 . S
C43 N41 1.346 . S
C43 N44 1.307 . S
C43 C45 1.486 . S
N44 N40 1.370 . S
N44 C43 1.307 . S
C45 C43 1.486 . S
C45 H49 0.960 . S
C45 H50 0.960 . S
C45 H51 0.959 . S
H46 C42 0.960 . S
H47 C42 0.961 . S
H48 C42 0.960 . S
H49 C45 0.960 . S
H50 C45 0.960 . S
H51 C45 0.959 . S
C52 N53 1.317 . S
C52 N54 1.348 . S
C52 C55 1.485 . S
N53 C52 1.317 . S
N53 N57 1.370 . S
N54 C52 1.348 . S
N54 C56 1.346 . S
C55 C52 1.485 . S
C55 H59 0.960 . S
C55 H60 0.961 . S
C55 H61 0.960 . S
C56 N54 1.346 . S
C56 N57 1.307 . S
C56 C58 1.486 . S
N57 N53 1.370 . S
N57 C56 1.307 . S
C58 C56 1.486 . S
C58 H62 0.960 . S
C58 H63 0.960 . S
C58 H64 0.959 . S
H59 C55 0.960 . S
H60 C55 0.961 . S
H61 C55 0.960 . S
H62 C58 0.960 . S
H63 C58 0.960 . S
H64 C58 0.959 . S
C65 N66 1.317 . S
C65 N67 1.348 . S
C65 C68 1.485 . S
N66 C65 1.317 . S
N66 N70 1.370 . S
N67 C65 1.348 . S
N67 C69 1.346 . S
C68 C65 1.485 . S
C68 H72 0.960 . S
C68 H73 0.961 . S
C68 H74 0.960 . S
C69 N67 1.346 . S
C69 N70 1.307 . S
C69 C71 1.486 . S
N70 N66 1.370 . S
N70 C69 1.307 . S
C71 C69 1.486 . S
C71 H75 0.960 . S
C71 H76 0.960 . S
C71 H77 0.959 . S
H72 C68 0.960 . S
H73 C68 0.961 . S
H74 C68 0.960 . S
H75 C71 0.960 . S
H76 C71 0.960 . S
H77 C71 0.959 . S
C78 N79 1.317 . S
C78 N80 1.348 . S
C78 C81 1.485 . S
N79 C78 1.317 . S
N79 N83 1.370 . S
N80 C78 1.348 . S
N80 C82 1.346 . S
C81 C78 1.485 . S
C81 H85 0.960 . S
C81 H86 0.961 . S
C81 H87 0.960 . S
C82 N80 1.346 . S
C82 N83 1.307 . S
C82 C84 1.486 . S
N83 N79 1.370 . S
N83 C82 1.307 . S
C84 C82 1.486 . S
C84 H88 0.960 . S
C84 H89 0.960 . S
C84 H90 0.959 . S
H85 C81 0.960 . S
H86 C81 0.961 . S
H87 C81 0.960 . S
H88 C84 0.960 . S
H89 C84 0.960 . S
H90 C84 0.959 . S
C91 N92 1.317 . S
C91 N93 1.348 . S
C91 C94 1.485 . S
N92 C91 1.317 . S
N92 N96 1.370 . S
N93 C91 1.348 . S
N93 C95 1.346 . S
C94 C91 1.485 . S
C94 H98 0.960 . S
C94 H99 0.961 . S
C94 H100 0.960 . S
C95 N93 1.346 . S
C95 N96 1.307 . S
C95 C97 1.486 . S
N96 N92 1.370 . S
N96 C95 1.307 . S
C97 C95 1.486 . S
C97 H101 0.960 . S
C97 H102 0.960 . S
C97 H103 0.959 . S
H98 C94 0.960 . S
H99 C94 0.961 . S
H100 C94 0.960 . S
H101 C97 0.960 . S
H102 C97 0.960 . S
H103 C97 0.959 . S
Ho104 C107 2.811 . S
Ho104 O124 2.322 . S
Ho104 O126 2.378 . S
Ho104 O127 2.524 . S
Ho104 O128 2.381 . S
Ho104 O129 2.669 . S
Ho104 O131 2.346 1_545 S
Ho104 O135 2.305 . S
Ho105 C116 2.811 1_445 S
Ho105 O125 2.346 . S
Ho105 O129 2.305 . S
Ho105 O130 2.322 1_445 S
Ho105 O132 2.378 1_445 S
Ho105 O133 2.524 1_545 S
Ho105 O134 2.381 1_455 S
Ho105 O135 2.669 . S
C106 O124 1.259 . S
C106 O125 1.268 . S
C107 Ho104 2.811 . S
C107 C108 1.488 . S
C107 O126 1.215 . S
C107 O127 1.289 . S
C108 C107 1.488 . S
C108 C109 1.348 . S
C108 C113 1.413 . S
C109 C108 1.348 . S
C109 C110 1.442 . S
C109 H136 0.930 . S
C110 C109 1.442 . S
C110 C111 1.381 . S
C110 H137 0.931 . S
C111 C110 1.381 . S
C111 C112 1.321 . S
C112 C111 1.321 . S
C112 C113 1.403 . S
C112 H138 0.934 . S
C113 C108 1.413 . S
C113 C112 1.403 . S
C113 H139 0.930 . S
C114 O128 1.275 1_565 S
C114 O129 1.256 1_565 S
C115 O130 1.259 1_455 S
C115 O131 1.268 . S
C116 Ho105 2.811 1_665 S
C116 C117 1.488 . S
C116 O132 1.215 . S
C116 O133 1.289 1_655 S
C117 C116 1.488 . S
C117 C118 1.348 . S
C117 C122 1.413 . S
C118 C117 1.348 . S
C118 C119 1.442 . S
C118 H140 0.930 . S
C119 C118 1.442 . S
C119 C120 1.381 . S
C119 H141 0.931 . S
C120 C119 1.381 . S
C120 C121 1.321 . S
C121 C120 1.321 . S
C121 C122 1.403 . S
C121 H142 0.934 . S
C122 C117 1.413 . S
C122 C121 1.403 . S
C122 H143 0.930 . S
C123 O134 1.275 . S
C123 O135 1.256 1_655 S
O124 Ho104 2.322 . S
O124 C106 1.259 . S
O125 Ho105 2.346 . S
O125 C106 1.268 . S
O126 Ho104 2.378 . S
O126 C107 1.215 . S
O127 Ho104 2.524 . S
O127 C107 1.289 . S
O128 Ho104 2.381 . S
O128 C114 1.275 1_545 S
O129 Ho104 2.669 . S
O129 Ho105 2.305 . S
O129 C114 1.256 1_545 S
O130 Ho105 2.322 1_665 S
O130 C115 1.259 1_655 S
O131 Ho104 2.346 1_565 S
O131 C115 1.268 . S
O132 Ho105 2.378 1_665 S
O132 C116 1.215 . S
O133 Ho105 2.524 1_565 S
O133 C116 1.289 1_455 S
O134 Ho105 2.381 1_655 S
O134 C123 1.275 . S
O135 Ho104 2.305 . S
O135 Ho105 2.669 . S
O135 C123 1.256 1_455 S
H136 C109 0.930 . S
H137 C110 0.931 . S
H138 C112 0.934 . S
H139 C113 0.930 . S
H140 C118 0.930 . S
H141 C119 0.931 . S
H142 C121 0.934 . S
H143 C122 0.930 . S
Ho144 C147 2.811 . S
Ho144 O164 2.322 . S
Ho144 O166 2.378 . S
Ho144 O167 2.524 . S
Ho144 O168 2.381 1_545 S
Ho144 O169 2.669 . S
Ho144 O171 2.346 . S
Ho144 O175 2.305 . S
Ho145 C156 2.811 1_554 S
Ho145 O165 2.346 . S
Ho145 O169 2.305 . S
Ho145 O170 2.322 1_554 S
Ho145 O172 2.378 1_554 S
Ho145 O173 2.524 1_544 S
Ho145 O174 2.381 1_554 S
Ho145 O175 2.669 . S
C146 O164 1.259 . S
C146 O165 1.268 . S
C147 Ho144 2.811 . S
C147 C148 1.488 . S
C147 O166 1.215 . S
C147 O167 1.289 . S
C148 C147 1.488 . S
C148 C149 1.348 . S
C148 C153 1.413 . S
C149 C148 1.348 . S
C149 C150 1.442 . S
C149 H176 0.930 . S
C150 C149 1.442 . S
C150 C151 1.381 . S
C150 H177 0.931 . S
C151 C150 1.381 . S
C151 C152 1.321 . S
C152 C151 1.321 . S
C152 C153 1.403 . S
C152 H178 0.934 . S
C153 C148 1.413 . S
C153 C152 1.403 . S
C153 H179 0.930 . S
C154 O168 1.275 . S
C154 O169 1.256 1_565 S
C155 O170 1.259 1_554 S
C155 O171 1.268 . S
C156 Ho145 2.811 1_556 S
C156 C157 1.488 1_545 S
C156 O172 1.215 . S
C156 O173 1.289 1_545 S
C157 C156 1.488 1_565 S
C157 C158 1.348 . S
C157 C162 1.408 1_565 S
C158 C157 1.348 . S
C158 C159 1.442 . S
C158 H180 0.930 . S
C159 C158 1.442 . S
C159 C160 1.381 . S
C159 H181 0.931 . S
C160 C159 1.381 . S
C160 C161 1.321 . S
C161 C160 1.321 . S
C161 C162 1.399 1_565 S
C161 H182 0.934 . S
C162 C157 1.408 1_545 S
C162 C161 1.399 1_545 S
C162 H183 0.939 . S
C163 O174 1.275 1_554 S
C163 O175 1.256 . S
O164 Ho144 2.322 . S
O164 C146 1.259 . S
O165 Ho145 2.346 . S
O165 C146 1.268 . S
O166 Ho144 2.378 . S
O166 C147 1.215 . S
O167 Ho144 2.524 . S
O167 C147 1.289 . S
O168 Ho144 2.381 1_565 S
O168 C154 1.275 . S
O169 Ho144 2.669 . S
O169 Ho145 2.305 . S
O169 C154 1.256 1_545 S
O170 Ho145 2.322 1_556 S
O170 C155 1.259 1_556 S
O171 Ho144 2.346 . S
O171 C155 1.268 . S
O172 Ho145 2.378 1_556 S
O172 C156 1.215 . S
O173 Ho145 2.524 1_566 S
O173 C156 1.289 1_565 S
O174 Ho145 2.381 1_556 S
O174 C163 1.275 1_556 S
O175 Ho144 2.305 . S
O175 Ho145 2.669 . S
O175 C163 1.256 . S
H176 C149 0.930 . S
H177 C150 0.931 . S
H178 C152 0.934 . S
H179 C153 0.930 . S
H180 C158 0.930 . S
H181 C159 0.931 . S
H182 C161 0.934 . S
H183 C162 0.939 . S
Ho184 C187 2.811 . S
Ho184 O204 2.322 . S
Ho184 O206 2.378 . S
Ho184 O207 2.524 . S
Ho184 O208 2.381 . S
Ho184 O209 2.669 . S
Ho184 O211 2.346 . S
Ho184 O215 2.305 . S
Ho185 C196 2.811 . S
Ho185 O205 2.346 . S
Ho185 O209 2.305 . S
Ho185 O210 2.322 . S
Ho185 O212 2.378 . S
Ho185 O213 2.524 . S
Ho185 O214 2.381 . S
Ho185 O215 2.669 . S
C186 O204 1.259 . S
C186 O205 1.268 . S
C187 Ho184 2.811 . S
C187 C188 1.488 . S
C187 O206 1.215 . S
C187 O207 1.289 . S
C188 C187 1.488 . S
C188 C189 1.348 . S
C188 C193 1.413 . S
C189 C188 1.348 . S
C189 C190 1.442 . S
C189 H216 0.930 . S
C190 C189 1.442 . S
C190 C191 1.381 . S
C190 H217 0.931 . S
C191 C190 1.381 . S
C191 C192 1.321 . S
C192 C191 1.321 . S
C192 C193 1.403 . S
C192 H218 0.934 . S
C193 C188 1.413 . S
C193 C192 1.403 . S
C193 H219 0.930 . S
C194 O208 1.275 . S
C194 O209 1.256 . S
C195 O210 1.259 . S
C195 O211 1.268 . S
C196 Ho185 2.811 . S
C196 C197 1.488 . S
C196 O212 1.215 . S
C196 O213 1.289 . S
C197 C196 1.488 . S
C197 C198 1.348 . S
C197 C202 1.413 . S
C198 C197 1.348 . S
C198 C199 1.442 . S
C198 H220 0.930 . S
C199 C198 1.442 . S
C199 C200 1.381 . S
C199 H221 0.931 . S
C200 C199 1.381 . S
C200 C201 1.321 . S
C201 C200 1.321 . S
C201 C202 1.403 . S
C201 H222 0.934 . S
C202 C197 1.413 . S
C202 C201 1.403 . S
C202 H223 0.930 . S
C203 O214 1.275 . S
C203 O215 1.256 . S
O204 Ho184 2.322 . S
O204 C186 1.259 . S
O205 Ho185 2.346 . S
O205 C186 1.268 . S
O206 Ho184 2.378 . S
O206 C187 1.215 . S
O207 Ho184 2.524 . S
O207 C187 1.289 . S
O208 Ho184 2.381 . S
O208 C194 1.275 . S
O209 Ho184 2.669 . S
O209 Ho185 2.305 . S
O209 C194 1.256 . S
O210 Ho185 2.322 . S
O210 C195 1.259 . S
O211 Ho184 2.346 . S
O211 C195 1.268 . S
O212 Ho185 2.378 . S
O212 C196 1.215 . S
O213 Ho185 2.524 . S
O213 C196 1.289 . S
O214 Ho185 2.381 . S
O214 C203 1.275 . S
O215 Ho184 2.305 . S
O215 Ho185 2.669 . S
O215 C203 1.256 . S
H216 C189 0.930 . S
H217 C190 0.931 . S
H218 C192 0.934 . S
H219 C193 0.930 . S
H220 C198 0.930 . S
H221 C199 0.931 . S
H222 C201 0.934 . S
H223 C202 0.930 . S
Ho224 C227 2.811 . S
Ho224 O244 2.322 . S
Ho224 O246 2.378 . S
Ho224 O247 2.524 . S
Ho224 O248 2.381 1_455 S
Ho224 O249 2.669 1_455 S
Ho224 O251 2.346 1_455 S
Ho224 O255 2.305 1_554 S
Ho225 C236 2.811 1_455 S
Ho225 O245 2.346 1_556 S
Ho225 O249 2.305 1_456 S
Ho225 O250 2.322 1_455 S
Ho225 O252 2.378 1_455 S
Ho225 O253 2.524 1_455 S
Ho225 O254 2.381 . S
Ho225 O255 2.669 . S
C226 O244 1.259 . S
C226 O245 1.268 . S
C227 Ho224 2.811 . S
C227 C228 1.488 . S
C227 O246 1.215 . S
C227 O247 1.289 . S
C228 C227 1.488 . S
C228 C229 1.348 . S
C228 C233 1.413 . S
C229 C228 1.348 . S
C229 C230 1.442 . S
C229 H256 0.930 . S
C230 C229 1.442 . S
C230 C231 1.381 . S
C230 H257 0.931 . S
C231 C230 1.381 . S
C231 C232 1.321 . S
C232 C231 1.321 . S
C232 C233 1.403 . S
C232 H258 0.934 . S
C233 C228 1.413 . S
C233 C232 1.403 . S
C233 H259 0.930 . S
C234 O248 1.275 . S
C234 O249 1.256 . S
C235 O250 1.259 . S
C235 O251 1.268 1_556 S
C236 Ho225 2.811 1_655 S
C236 C237 1.488 . S
C236 O252 1.215 . S
C236 O253 1.289 . S
C237 C236 1.488 . S
C237 C238 1.348 . S
C237 C242 1.413 . S
C238 C237 1.348 . S
C238 C239 1.442 . S
C238 H260 0.930 . S
C239 C238 1.442 . S
C239 C240 1.381 . S
C239 H261 0.931 . S
C240 C239 1.381 . S
C240 C241 1.321 . S
C241 C240 1.321 . S
C241 C242 1.403 . S
C241 H262 0.934 . S
C242 C237 1.413 . S
C242 C241 1.403 . S
C242 H263 0.930 . S
C243 O254 1.275 . S
C243 O255 1.256 . S
O244 Ho224 2.322 . S
O244 C226 1.259 . S
O245 Ho225 2.346 1_554 S
O245 C226 1.268 . S
O246 Ho224 2.378 . S
O246 C227 1.215 . S
O247 Ho224 2.524 . S
O247 C227 1.289 . S
O248 Ho224 2.381 1_655 S
O248 C234 1.275 . S
O249 Ho224 2.669 1_655 S
O249 Ho225 2.305 1_654 S
O249 C234 1.256 . S
O250 Ho225 2.322 1_655 S
O250 C235 1.259 . S
O251 Ho224 2.346 1_655 S
O251 C235 1.268 1_554 S
O252 Ho225 2.378 1_655 S
O252 C236 1.215 . S
O253 Ho225 2.524 1_655 S
O253 C236 1.289 . S
O254 Ho225 2.381 . S
O254 C243 1.275 . S
O255 Ho224 2.305 1_556 S
O255 Ho225 2.669 . S
O255 C243 1.256 . S
H256 C229 0.930 . S
H257 C230 0.931 . S
H258 C232 0.934 . S
H259 C233 0.930 . S
H260 C238 0.930 . S
H261 C239 0.931 . S
H262 C241 0.934 . S
H263 C242 0.930 . S
C264 C265 1.349 . S
C264 C266 1.327 . S
C264 H289 0.950 . S
C265 C264 1.349 . S
C265 C281 1.349 . S
C266 C264 1.327 . S
C266 C285 1.429 . S
C266 H290 0.950 . S
C267 C284 1.574 . S
C267 C286 1.368 . S
C267 H291 0.949 . S
H268 C272 0.949 . S
C269 C270 1.349 . S
C269 C271 1.327 . S
C269 H292 0.950 . S
C270 C269 1.349 . S
C270 C282 1.349 . S
C271 C269 1.327 . S
C271 C287 1.429 . S
C271 H293 0.950 . S
C272 H268 0.949 . S
C272 C280 1.574 . S
C272 C288 1.368 . S
H273 C281 0.950 . S
H274 C279 0.950 . S
H275 C280 0.949 . S
H276 C282 0.950 . S
H277 C283 0.950 . S
H278 C284 0.949 . S
C279 H274 0.950 . S
C279 C281 1.327 . S
C279 C285 1.429 . S
C280 C272 1.574 . S
C280 H275 0.949 . S
C280 C286 1.368 . S
C281 C265 1.349 . S
C281 H273 0.950 . S
C281 C279 1.327 . S
C282 C270 1.349 . S
C282 H276 0.950 . S
C282 C283 1.327 . S
C283 H277 0.950 . S
C283 C282 1.327 . S
C283 C287 1.429 . S
C284 C267 1.574 . S
C284 H278 0.949 . S
C284 C288 1.368 . S
C285 C266 1.429 . S
C285 C279 1.429 . S
C285 C286 1.523 . S
C286 C267 1.368 . S
C286 C280 1.368 . S
C286 C285 1.523 . S
C287 C271 1.429 . S
C287 C283 1.429 . S
C287 C288 1.523 . S
C288 C272 1.368 . S
C288 C284 1.368 . S
C288 C287 1.523 . S
H289 C264 0.950 . S
H290 C266 0.950 . S
H291 C267 0.949 . S
H292 C269 0.950 . S
H293 C271 0.950 . S
C294 C295 1.349 . S
C294 C296 1.327 . S
C294 H319 0.950 . S
C295 C294 1.349 . S
C295 C311 1.349 . S
C296 C294 1.327 . S
C296 C315 1.429 . S
C296 H320 0.950 . S
C297 C314 1.574 . S
C297 C316 1.368 . S
C297 H321 0.949 . S
H298 C302 0.949 . S
C299 C300 1.349 . S
C299 C301 1.327 . S
C299 H322 0.950 . S
C300 C299 1.349 . S
C300 C312 1.349 . S
C301 C299 1.327 . S
C301 C317 1.429 . S
C301 H323 0.950 . S
C302 H298 0.949 . S
C302 C310 1.574 . S
C302 C318 1.368 . S
H303 C311 0.950 . S
H304 C309 0.950 . S
H305 C310 0.949 . S
H306 C312 0.950 . S
H307 C313 0.950 . S
H308 C314 0.949 . S
C309 H304 0.950 . S
C309 C311 1.327 . S
C309 C315 1.429 . S
C310 C302 1.574 . S
C310 H305 0.949 . S
C310 C316 1.368 . S
C311 C295 1.349 . S
C311 H303 0.950 . S
C311 C309 1.327 . S
C312 C300 1.349 . S
C312 H306 0.950 . S
C312 C313 1.327 . S
C313 H307 0.950 . S
C313 C312 1.327 . S
C313 C317 1.429 . S
C314 C297 1.574 . S
C314 H308 0.949 . S
C314 C318 1.368 . S
C315 C296 1.429 . S
C315 C309 1.429 . S
C315 C316 1.523 . S
C316 C297 1.368 . S
C316 C310 1.368 . S
C316 C315 1.523 . S
C317 C301 1.429 . S
C317 C313 1.429 . S
C317 C318 1.523 . S
C318 C302 1.368 . S
C318 C314 1.368 . S
C318 C317 1.523 . S
H319 C294 0.950 . S
H320 C296 0.950 . S
H321 C297 0.949 . S
H322 C299 0.950 . S
H323 C301 0.950 . S
C324 C325 1.349 . S
C324 C326 1.327 . S
C324 H349 0.950 . S
C325 C324 1.349 . S
C325 C341 1.349 . S
C326 C324 1.327 . S
C326 C345 1.429 . S
C326 H350 0.950 . S
C327 C344 1.574 . S
C327 C346 1.368 . S
C327 H351 0.949 . S
H328 C332 0.949 . S
C329 C330 1.349 . S
C329 C331 1.327 . S
C329 H352 0.950 . S
C330 C329 1.349 . S
C330 C342 1.349 . S
C331 C329 1.327 . S
C331 C347 1.429 . S
C331 H353 0.950 . S
C332 H328 0.949 . S
C332 C340 1.574 . S
C332 C348 1.368 . S
H333 C341 0.950 . S
H334 C339 0.950 . S
H335 C340 0.949 . S
H336 C342 0.950 . S
H337 C343 0.950 . S
H338 C344 0.949 . S
C339 H334 0.950 . S
C339 C341 1.327 . S
C339 C345 1.429 . S
C340 C332 1.574 . S
C340 H335 0.949 . S
C340 C346 1.368 . S
C341 C325 1.349 . S
C341 H333 0.950 . S
C341 C339 1.327 . S
C342 C330 1.349 . S
C342 H336 0.950 . S
C342 C343 1.327 . S
C343 H337 0.950 . S
C343 C342 1.327 . S
C343 C347 1.429 . S
C344 C327 1.574 . S
C344 H338 0.949 . S
C344 C348 1.368 . S
C345 C326 1.429 . S
C345 C339 1.429 . S
C345 C346 1.523 . S
C346 C327 1.368 . S
C346 C340 1.368 . S
C346 C345 1.523 . S
C347 C331 1.429 . S
C347 C343 1.429 . S
C347 C348 1.523 . S
C348 C332 1.368 . S
C348 C344 1.368 . S
C348 C347 1.523 . S
H349 C324 0.950 . S
H350 C326 0.950 . S
H351 C327 0.949 . S
H352 C329 0.950 . S
H353 C331 0.950 . S
C354 C355 1.349 . S
C354 C356 1.327 . S
C354 H379 0.950 . S
C355 C354 1.349 . S
C355 C371 1.349 . S
C356 C354 1.327 . S
C356 C375 1.429 . S
C356 H380 0.950 . S
C357 C374 1.574 . S
C357 C376 1.368 . S
C357 H381 0.949 . S
H358 C362 0.949 . S
C359 C360 1.349 . S
C359 C361 1.327 . S
C359 H382 0.950 . S
C360 C359 1.349 . S
C360 C372 1.349 . S
C361 C359 1.327 . S
C361 C377 1.429 . S
C361 H383 0.950 . S
C362 H358 0.949 . S
C362 C370 1.574 . S
C362 C378 1.368 . S
H363 C371 0.950 . S
H364 C369 0.950 . S
H365 C370 0.949 . S
H366 C372 0.950 . S
H367 C373 0.950 . S
H368 C374 0.949 . S
C369 H364 0.950 . S
C369 C371 1.327 . S
C369 C375 1.429 . S
C370 C362 1.574 . S
C370 H365 0.949 . S
C370 C376 1.368 . S
C371 C355 1.349 . S
C371 H363 0.950 . S
C371 C369 1.327 . S
C372 C360 1.349 . S
C372 H366 0.950 . S
C372 C373 1.327 . S
C373 H367 0.950 . S
C373 C372 1.327 . S
C373 C377 1.429 . S
C374 C357 1.574 . S
C374 H368 0.949 . S
C374 C378 1.368 . S
C375 C356 1.429 . S
C375 C369 1.429 . S
C375 C376 1.523 . S
C376 C357 1.368 . S
C376 C370 1.368 . S
C376 C375 1.523 . S
C377 C361 1.429 . S
C377 C373 1.429 . S
C377 C378 1.523 . S
C378 C362 1.368 . S
C378 C374 1.368 . S
C378 C377 1.523 . S
H379 C354 0.950 . S
H380 C356 0.950 . S
H381 C357 0.949 . S
H382 C359 0.950 . S
H383 C361 0.950 . S
C384 C385 1.349 . S
C384 C386 1.327 . S
C384 H409 0.950 . S
C385 C384 1.349 . S
C385 C401 1.349 . S
C386 C384 1.327 . S
C386 C405 1.429 . S
C386 H410 0.950 . S
C387 C404 1.574 . S
C387 C406 1.368 . S
C387 H411 0.949 . S
H388 C392 0.949 . S
C389 C390 1.349 . S
C389 C391 1.327 . S
C389 H412 0.950 . S
C390 C389 1.349 . S
C390 C402 1.349 . S
C391 C389 1.327 . S
C391 C407 1.429 . S
C391 H413 0.950 . S
C392 H388 0.949 . S
C392 C400 1.574 . S
C392 C408 1.368 . S
H393 C401 0.950 . S
H394 C399 0.950 . S
H395 C400 0.949 . S
H396 C402 0.950 . S
H397 C403 0.950 . S
H398 C404 0.949 . S
C399 H394 0.950 . S
C399 C401 1.327 . S
C399 C405 1.429 . S
C400 C392 1.574 . S
C400 H395 0.949 . S
C400 C406 1.368 . S
C401 C385 1.349 . S
C401 H393 0.950 . S
C401 C399 1.327 . S
C402 C390 1.349 . S
C402 H396 0.950 . S
C402 C403 1.327 . S
C403 H397 0.950 . S
C403 C402 1.327 . S
C403 C407 1.429 . S
C404 C387 1.574 . S
C404 H398 0.949 . S
C404 C408 1.368 . S
C405 C386 1.429 . S
C405 C399 1.429 . S
C405 C406 1.523 . S
C406 C387 1.368 . S
C406 C400 1.368 . S
C406 C405 1.523 . S
C407 C391 1.429 . S
C407 C403 1.429 . S
C407 C408 1.523 . S
C408 C392 1.368 . S
C408 C404 1.368 . S
C408 C407 1.523 . S
H409 C384 0.950 . S
H410 C386 0.950 . S
H411 C387 0.949 . S
H412 C389 0.950 . S
H413 C391 0.950 . S
C414 C415 1.349 . S
C414 C416 1.327 . S
C414 H439 0.950 . S
C415 C414 1.349 . S
C415 C431 1.349 . S
C416 C414 1.327 . S
C416 C435 1.429 . S
C416 H440 0.950 . S
C417 C434 1.574 . S
C417 C436 1.368 . S
C417 H441 0.949 . S
H418 C422 0.949 . S
C419 C420 1.349 . S
C419 C421 1.327 . S
C419 H442 0.950 . S
C420 C419 1.349 . S
C420 C432 1.349 . S
C421 C419 1.327 . S
C421 C437 1.429 . S
C421 H443 0.950 . S
C422 H418 0.949 . S
C422 C430 1.574 . S
C422 C438 1.368 . S
H423 C431 0.950 . S
H424 C429 0.950 . S
H425 C430 0.949 . S
H426 C432 0.950 . S
H427 C433 0.950 . S
H428 C434 0.949 . S
C429 H424 0.950 . S
C429 C431 1.327 . S
C429 C435 1.429 . S
C430 C422 1.574 . S
C430 H425 0.949 . S
C430 C436 1.368 . S
C431 C415 1.349 . S
C431 H423 0.950 . S
C431 C429 1.327 . S
C432 C420 1.349 . S
C432 H426 0.950 . S
C432 C433 1.327 . S
C433 H427 0.950 . S
C433 C432 1.327 . S
C433 C437 1.429 . S
C434 C417 1.574 . S
C434 H428 0.949 . S
C434 C438 1.368 . S
C435 C416 1.429 . S
C435 C429 1.429 . S
C435 C436 1.523 . S
C436 C417 1.368 . S
C436 C430 1.368 . S
C436 C435 1.523 . S
C437 C421 1.429 . S
C437 C433 1.429 . S
C437 C438 1.523 . S
C438 C422 1.368 . S
C438 C434 1.368 . S
C438 C437 1.523 . S
H439 C414 0.950 . S
H440 C416 0.950 . S
H441 C417 0.949 . S
H442 C419 0.950 . S
H443 C421 0.950 . S
C444 C445 1.349 . S
C444 C446 1.327 . S
C444 H469 0.950 . S
C445 C444 1.349 . S
C445 C461 1.349 . S
C446 C444 1.327 . S
C446 C465 1.429 . S
C446 H470 0.950 . S
C447 C464 1.574 . S
C447 C466 1.368 . S
C447 H471 0.949 . S
H448 C452 0.949 . S
C449 C450 1.349 . S
C449 C451 1.327 . S
C449 H472 0.950 . S
C450 C449 1.349 . S
C450 C462 1.349 . S
C451 C449 1.327 . S
C451 C467 1.429 . S
C451 H473 0.950 . S
C452 H448 0.949 . S
C452 C460 1.574 . S
C452 C468 1.368 . S
H453 C461 0.950 . S
H454 C459 0.950 . S
H455 C460 0.949 . S
H456 C462 0.950 1_554 S
H457 C463 0.950 . S
H458 C464 0.949 . S
C459 H454 0.950 . S
C459 C461 1.327 . S
C459 C465 1.429 . S
C460 C452 1.574 . S
C460 H455 0.949 . S
C460 C466 1.368 . S
C461 C445 1.349 . S
C461 H453 0.950 . S
C461 C459 1.327 . S
C462 C450 1.349 . S
C462 H456 0.950 1_556 S
C462 C463 1.327 . S
C463 H457 0.950 . S
C463 C462 1.327 . S
C463 C467 1.429 . S
C464 C447 1.574 . S
C464 H458 0.949 . S
C464 C468 1.368 . S
C465 C446 1.429 . S
C465 C459 1.429 . S
C465 C466 1.523 . S
C466 C447 1.368 . S
C466 C460 1.368 . S
C466 C465 1.523 . S
C467 C451 1.429 . S
C467 C463 1.429 . S
C467 C468 1.523 . S
C468 C452 1.368 . S
C468 C464 1.368 . S
C468 C467 1.523 . S
H469 C444 0.950 . S
H470 C446 0.950 . S
H471 C447 0.949 . S
H472 C449 0.950 . S
H473 C451 0.950 . S
C474 C475 1.349 . S
C474 C476 1.327 . S
C474 H499 0.950 . S
C475 C474 1.349 . S
C475 C491 1.349 . S
C476 C474 1.327 . S
C476 C495 1.429 . S
C476 H500 0.950 . S
C477 C494 1.574 . S
C477 C496 1.368 . S
C477 H501 0.949 . S
H478 C482 0.949 . S
C479 C480 1.349 . S
C479 C481 1.327 . S
C479 H502 0.950 . S
C480 C479 1.349 . S
C480 C492 1.349 . S
C481 C479 1.327 . S
C481 C497 1.429 . S
C481 H503 0.950 . S
C482 H478 0.949 . S
C482 C490 1.574 . S
C482 C498 1.368 . S
H483 C491 0.950 . S
H484 C489 0.950 . S
H485 C490 0.949 . S
H486 C492 0.950 . S
H487 C493 0.950 . S
H488 C494 0.949 . S
C489 H484 0.950 . S
C489 C491 1.327 . S
C489 C495 1.429 . S
C490 C482 1.574 . S
C490 H485 0.949 . S
C490 C496 1.368 . S
C491 C475 1.349 . S
C491 H483 0.950 . S
C491 C489 1.327 . S
C492 C480 1.349 . S
C492 H486 0.950 . S
C492 C493 1.327 . S
C493 H487 0.950 . S
C493 C492 1.327 . S
C493 C497 1.429 . S
C494 C477 1.574 . S
C494 H488 0.949 . S
C494 C498 1.368 . S
C495 C476 1.429 . S
C495 C489 1.429 . S
C495 C496 1.523 . S
C496 C477 1.368 . S
C496 C490 1.368 . S
C496 C495 1.523 . S
C497 C481 1.429 . S
C497 C493 1.429 . S
C497 C498 1.523 . S
C498 C482 1.368 . S
C498 C494 1.368 . S
C498 C497 1.523 . S
H499 C474 0.950 . S
H500 C476 0.950 . S
H501 C477 0.949 . S
H502 C479 0.950 . S
H503 C481 0.950 . S
C504 C505 1.349 . S
C504 C506 1.327 . S
C504 H529 0.950 . S
C505 C504 1.349 . S
C505 C521 1.349 . S
C506 C504 1.327 . S
C506 C525 1.429 . S
C506 H530 0.950 . S
C507 C524 1.574 . S
C507 C526 1.368 . S
C507 H531 0.949 . S
H508 C512 0.949 . S
C509 C510 1.349 . S
C509 C511 1.327 . S
C509 H532 0.950 . S
C510 C509 1.349 . S
C510 C522 1.349 . S
C511 C509 1.327 . S
C511 C527 1.429 . S
C511 H533 0.950 . S
C512 H508 0.949 . S
C512 C520 1.574 . S
C512 C528 1.368 . S
H513 C521 0.950 . S
H514 C519 0.950 . S
H515 C520 0.949 . S
H516 C522 0.950 . S
H517 C523 0.950 . S
H518 C524 0.949 . S
C519 H514 0.950 . S
C519 C521 1.327 . S
C519 C525 1.429 . S
C520 C512 1.574 . S
C520 H515 0.949 . S
C520 C526 1.368 . S
C521 C505 1.349 . S
C521 H513 0.950 . S
C521 C519 1.327 . S
C522 C510 1.349 . S
C522 H516 0.950 . S
C522 C523 1.327 . S
C523 H517 0.950 . S
C523 C522 1.327 . S
C523 C527 1.429 . S
C524 C507 1.574 . S
C524 H518 0.949 . S
C524 C528 1.368 . S
C525 C506 1.429 . S
C525 C519 1.429 . S
C525 C526 1.523 . S
C526 C507 1.368 . S
C526 C520 1.368 . S
C526 C525 1.523 . S
C527 C511 1.429 . S
C527 C523 1.429 . S
C527 C528 1.523 . S
C528 C512 1.368 . S
C528 C524 1.368 . S
C528 C527 1.523 . S
H529 C504 0.950 . S
H530 C506 0.950 . S
H531 C507 0.949 . S
H532 C509 0.950 . S
H533 C511 0.950 . S
C534 C535 1.349 . S
C534 C536 1.327 . S
C534 H559 0.950 . S
C535 C534 1.349 . S
C535 C551 1.349 . S
C536 C534 1.327 . S
C536 C555 1.429 . S
C536 H560 0.950 . S
C537 C554 1.574 . S
C537 C556 1.368 . S
C537 H561 0.949 . S
H538 C542 0.949 . S
C539 C540 1.349 . S
C539 C541 1.327 . S
C539 H562 0.950 . S
C540 C539 1.349 . S
C540 C552 1.349 . S
C541 C539 1.327 . S
C541 C557 1.429 . S
C541 H563 0.950 . S
C542 H538 0.949 . S
C542 C550 1.574 . S
C542 C558 1.368 . S
H543 C551 0.950 . S
H544 C549 0.950 . S
H545 C550 0.949 . S
H546 C552 0.950 1_554 S
H547 C553 0.950 . S
H548 C554 0.949 . S
C549 H544 0.950 . S
C549 C551 1.327 . S
C549 C555 1.429 . S
C550 C542 1.574 . S
C550 H545 0.949 . S
C550 C556 1.368 . S
C551 C535 1.349 . S
C551 H543 0.950 . S
C551 C549 1.327 . S
C552 C540 1.349 . S
C552 H546 0.950 1_556 S
C552 C553 1.327 . S
C553 H547 0.950 . S
C553 C552 1.327 . S
C553 C557 1.429 . S
C554 C537 1.574 . S
C554 H548 0.949 . S
C554 C558 1.368 . S
C555 C536 1.429 . S
C555 C549 1.429 . S
C555 C556 1.523 . S
C556 C537 1.368 . S
C556 C550 1.368 . S
C556 C555 1.523 . S
C557 C541 1.429 . S
C557 C553 1.429 . S
C557 C558 1.523 . S
C558 C542 1.368 . S
C558 C554 1.368 . S
C558 C557 1.523 . S
H559 C534 0.950 . S
H560 C536 0.950 . S
H561 C537 0.949 . S
H562 C539 0.950 . S
H563 C541 0.950 . S
C564 C565 1.349 . S
C564 C566 1.327 . S
C564 H589 0.950 . S
C565 C564 1.349 . S
C565 C581 1.349 . S
C566 C564 1.327 . S
C566 C585 1.429 . S
C566 H590 0.950 . S
C567 C584 1.574 . S
C567 C586 1.368 . S
C567 H591 0.949 . S
H568 C572 0.949 . S
C569 C570 1.349 . S
C569 C571 1.327 . S
C569 H592 0.950 . S
C570 C569 1.349 . S
C570 C582 1.349 . S
C571 C569 1.327 . S
C571 C587 1.429 . S
C571 H593 0.950 . S
C572 H568 0.949 . S
C572 C580 1.574 . S
C572 C588 1.368 . S
H573 C581 0.950 . S
H574 C579 0.950 . S
H575 C580 0.949 . S
H576 C582 0.950 . S
H577 C583 0.950 . S
H578 C584 0.949 . S
C579 H574 0.950 . S
C579 C581 1.327 . S
C579 C585 1.429 . S
C580 C572 1.574 . S
C580 H575 0.949 . S
C580 C586 1.368 . S
C581 C565 1.349 . S
C581 H573 0.950 . S
C581 C579 1.327 . S
C582 C570 1.349 . S
C582 H576 0.950 . S
C582 C583 1.327 . S
C583 H577 0.950 . S
C583 C582 1.327 . S
C583 C587 1.429 . S
C584 C567 1.574 . S
C584 H578 0.949 . S
C584 C588 1.368 . S
C585 C566 1.429 . S
C585 C579 1.429 . S
C585 C586 1.523 . S
C586 C567 1.368 . S
C586 C580 1.368 . S
C586 C585 1.523 . S
C587 C571 1.429 . S
C587 C583 1.429 . S
C587 C588 1.523 . S
C588 C572 1.368 . S
C588 C584 1.368 . S
C588 C587 1.523 . S
H589 C564 0.950 . S
H590 C566 0.950 . S
H591 C567 0.949 . S
H592 C569 0.950 . S
H593 C571 0.950 . S
C594 C595 1.349 . S
C594 C596 1.327 . S
C594 H619 0.950 . S
C595 C594 1.349 . S
C595 C611 1.349 . S
C596 C594 1.327 . S
C596 C615 1.429 . S
C596 H620 0.950 . S
C597 C614 1.574 . S
C597 C616 1.368 . S
C597 H621 0.949 . S
H598 C602 0.949 . S
C599 C600 1.349 . S
C599 C601 1.327 . S
C599 H622 0.950 . S
C600 C599 1.349 . S
C600 C612 1.349 . S
C601 C599 1.327 . S
C601 C617 1.429 . S
C601 H623 0.950 . S
C602 H598 0.949 . S
C602 C610 1.574 . S
C602 C618 1.368 . S
H603 C611 0.950 . S
H604 C609 0.950 . S
H605 C610 0.949 . S
H606 C612 0.950 . S
H607 C613 0.950 . S
H608 C614 0.949 . S
C609 H604 0.950 . S
C609 C611 1.327 . S
C609 C615 1.429 . S
C610 C602 1.574 . S
C610 H605 0.949 . S
C610 C616 1.368 . S
C611 C595 1.349 . S
C611 H603 0.950 . S
C611 C609 1.327 . S
C612 C600 1.349 . S
C612 H606 0.950 . S
C612 C613 1.327 . S
C613 H607 0.950 . S
C613 C612 1.327 . S
C613 C617 1.429 . S
C614 C597 1.574 . S
C614 H608 0.949 . S
C614 C618 1.368 . S
C615 C596 1.429 . S
C615 C609 1.429 . S
C615 C616 1.523 . S
C616 C597 1.368 . S
C616 C610 1.368 . S
C616 C615 1.523 . S
C617 C601 1.429 . S
C617 C613 1.429 . S
C617 C618 1.523 . S
C618 C602 1.368 . S
C618 C614 1.368 . S
C618 C617 1.523 . S
H619 C594 0.950 . S
H620 C596 0.950 . S
H621 C597 0.949 . S
H622 C599 0.950 . S
H623 C601 0.950 . S
C624 C625 1.349 . S
C624 C626 1.327 . S
C624 H649 0.950 . S
C625 C624 1.349 . S
C625 C641 1.349 . S
C626 C624 1.327 . S
C626 C645 1.429 . S
C626 H650 0.950 . S
C627 C644 1.574 . S
C627 C646 1.368 . S
C627 H651 0.949 . S
H628 C632 0.949 . S
C629 C630 1.349 . S
C629 C631 1.327 . S
C629 H652 0.950 . S
C630 C629 1.349 . S
C630 C642 1.349 . S
C631 C629 1.327 . S
C631 C647 1.429 . S
C631 H653 0.950 . S
C632 H628 0.949 . S
C632 C640 1.574 . S
C632 C648 1.368 . S
H633 C641 0.950 . S
H634 C639 0.950 . S
H635 C640 0.949 . S
H636 C642 0.950 . S
H637 C643 0.950 . S
H638 C644 0.949 . S
C639 H634 0.950 . S
C639 C641 1.327 . S
C639 C645 1.429 . S
C640 C632 1.574 . S
C640 H635 0.949 . S
C640 C646 1.368 . S
C641 C625 1.349 . S
C641 H633 0.950 . S
C641 C639 1.327 . S
C642 C630 1.349 . S
C642 H636 0.950 . S
C642 C643 1.327 . S
C643 H637 0.950 . S
C643 C642 1.327 . S
C643 C647 1.429 . S
C644 C627 1.574 . S
C644 H638 0.949 . S
C644 C648 1.368 . S
C645 C626 1.429 . S
C645 C639 1.429 . S
C645 C646 1.523 . S
C646 C627 1.368 . S
C646 C640 1.368 . S
C646 C645 1.523 . S
C647 C631 1.429 . S
C647 C643 1.429 . S
C647 C648 1.523 . S
C648 C632 1.368 . S
C648 C644 1.368 . S
C648 C647 1.523 . S
H649 C624 0.950 . S
H650 C626 0.950 . S
H651 C627 0.949 . S
H652 C629 0.950 . S
H653 C631 0.950 . S
C654 C655 1.349 . S
C654 C656 1.327 . S
C654 H679 0.950 . S
C655 C654 1.349 . S
C655 C671 1.349 . S
C656 C654 1.327 . S
C656 C675 1.429 . S
C656 H680 0.950 . S
C657 C674 1.574 . S
C657 C676 1.368 . S
C657 H681 0.949 . S
H658 C662 0.949 . S
C659 C660 1.349 . S
C659 C661 1.327 . S
C659 H682 0.950 . S
C660 C659 1.349 . S
C660 C672 1.349 . S
C661 C659 1.327 . S
C661 C677 1.429 . S
C661 H683 0.950 . S
C662 H658 0.949 . S
C662 C670 1.574 . S
C662 C678 1.368 . S
H663 C671 0.950 . S
H664 C669 0.950 . S
H665 C670 0.949 . S
H666 C672 0.950 . S
H667 C673 0.950 . S
H668 C674 0.949 . S
C669 H664 0.950 . S
C669 C671 1.327 . S
C669 C675 1.429 . S
C670 C662 1.574 . S
C670 H665 0.949 . S
C670 C676 1.368 . S
C671 C655 1.349 . S
C671 H663 0.950 . S
C671 C669 1.327 . S
C672 C660 1.349 . S
C672 H666 0.950 . S
C672 C673 1.327 . S
C673 H667 0.950 . S
C673 C672 1.327 . S
C673 C677 1.429 . S
C674 C657 1.574 . S
C674 H668 0.949 . S
C674 C678 1.368 . S
C675 C656 1.429 . S
C675 C669 1.429 . S
C675 C676 1.523 . S
C676 C657 1.368 . S
C676 C670 1.368 . S
C676 C675 1.523 . S
C677 C661 1.429 . S
C677 C673 1.429 . S
C677 C678 1.523 . S
C678 C662 1.368 . S
C678 C674 1.368 . S
C678 C677 1.523 . S
H679 C654 0.950 . S
H680 C656 0.950 . S
H681 C657 0.949 . S
H682 C659 0.950 . S
H683 C661 0.950 . S
C684 C685 1.349 . S
C684 C686 1.327 . S
C684 H709 0.950 . S
C685 C684 1.349 . S
C685 C701 1.349 . S
C686 C684 1.327 . S
C686 C705 1.429 . S
C686 H710 0.950 . S
C687 C704 1.574 . S
C687 C706 1.368 . S
C687 H711 0.949 . S
H688 C692 0.949 . S
C689 C690 1.349 . S
C689 C691 1.327 . S
C689 H712 0.950 . S
C690 C689 1.349 . S
C690 C702 1.349 . S
C691 C689 1.327 . S
C691 C707 1.429 . S
C691 H713 0.950 . S
C692 H688 0.949 . S
C692 C700 1.574 . S
C692 C708 1.368 . S
H693 C701 0.950 . S
H694 C699 0.950 . S
H695 C700 0.949 . S
H696 C702 0.950 . S
H697 C703 0.950 . S
H698 C704 0.949 . S
C699 H694 0.950 . S
C699 C701 1.327 . S
C699 C705 1.429 . S
C700 C692 1.574 . S
C700 H695 0.949 . S
C700 C706 1.368 . S
C701 C685 1.349 . S
C701 H693 0.950 . S
C701 C699 1.327 . S
C702 C690 1.349 . S
C702 H696 0.950 . S
C702 C703 1.327 . S
C703 H697 0.950 . S
C703 C702 1.327 . S
C703 C707 1.429 . S
C704 C687 1.574 . S
C704 H698 0.949 . S
C704 C708 1.368 . S
C705 C686 1.429 . S
C705 C699 1.429 . S
C705 C706 1.523 . S
C706 C687 1.368 . S
C706 C700 1.368 . S
C706 C705 1.523 . S
C707 C691 1.429 . S
C707 C703 1.429 . S
C707 C708 1.523 . S
C708 C692 1.368 . S
C708 C704 1.368 . S
C708 C707 1.523 . S
H709 C684 0.950 . S
H710 C686 0.950 . S
H711 C687 0.949 . S
H712 C689 0.950 . S
H713 C691 0.950 . S
C714 C715 1.349 . S
C714 C716 1.327 . S
C714 H739 0.950 . S
C715 C714 1.349 . S
C715 C731 1.349 . S
C716 C714 1.327 . S
C716 C735 1.429 . S
C716 H740 0.950 . S
C717 C734 1.574 . S
C717 C736 1.368 . S
C717 H741 0.949 . S
H718 C722 0.949 . S
C719 C720 1.349 . S
C719 C721 1.327 . S
C719 H742 0.950 . S
C720 C719 1.349 . S
C720 C732 1.349 . S
C721 C719 1.327 . S
C721 C737 1.429 . S
C721 H743 0.950 . S
C722 H718 0.949 . S
C722 C730 1.574 . S
C722 C738 1.368 . S
H723 C731 0.950 . S
H724 C729 0.950 . S
H725 C730 0.949 . S
H726 C732 0.950 . S
H727 C733 0.950 . S
H728 C734 0.949 . S
C729 H724 0.950 . S
C729 C731 1.327 . S
C729 C735 1.429 . S
C730 C722 1.574 . S
C730 H725 0.949 . S
C730 C736 1.368 . S
C731 C715 1.349 . S
C731 H723 0.950 . S
C731 C729 1.327 . S
C732 C720 1.349 . S
C732 H726 0.950 . S
C732 C733 1.327 . S
C733 H727 0.950 . S
C733 C732 1.327 . S
C733 C737 1.429 . S
C734 C717 1.574 . S
C734 H728 0.949 . S
C734 C738 1.368 . S
C735 C716 1.429 . S
C735 C729 1.429 . S
C735 C736 1.523 . S
C736 C717 1.368 . S
C736 C730 1.368 . S
C736 C735 1.523 . S
C737 C721 1.429 . S
C737 C733 1.429 . S
C737 C738 1.523 . S
C738 C722 1.368 . S
C738 C734 1.368 . S
C738 C737 1.523 . S
H739 C714 0.950 . S
H740 C716 0.950 . S
H741 C717 0.949 . S
H742 C719 0.950 . S
H743 C721 0.950 . S
C744 C745 1.349 . S
C744 C746 1.327 . S
C744 H769 0.950 . S
C745 C744 1.349 . S
C745 C761 1.349 . S
C746 C744 1.327 . S
C746 C765 1.429 . S
C746 H770 0.950 . S
C747 C764 1.574 . S
C747 C766 1.368 . S
C747 H771 0.949 . S
H748 C752 0.949 . S
C749 C750 1.349 . S
C749 C751 1.327 . S
C749 H772 0.950 . S
C750 C749 1.349 . S
C750 C762 1.349 . S
C751 C749 1.327 . S
C751 C767 1.429 . S
C751 H773 0.950 . S
C752 H748 0.949 . S
C752 C760 1.574 . S
C752 C768 1.368 . S
H753 C761 0.950 . S
H754 C759 0.950 . S
H755 C760 0.949 . S
H756 C762 0.950 1_554 S
H757 C763 0.950 . S
H758 C764 0.949 . S
C759 H754 0.950 . S
C759 C761 1.327 . S
C759 C765 1.429 . S
C760 C752 1.574 . S
C760 H755 0.949 . S
C760 C766 1.368 . S
C761 C745 1.349 . S
C761 H753 0.950 . S
C761 C759 1.327 . S
C762 C750 1.349 . S
C762 H756 0.950 1_556 S
C762 C763 1.327 . S
C763 H757 0.950 . S
C763 C762 1.327 . S
C763 C767 1.429 . S
C764 C747 1.574 . S
C764 H758 0.949 . S
C764 C768 1.368 . S
C765 C746 1.429 . S
C765 C759 1.429 . S
C765 C766 1.523 . S
C766 C747 1.368 . S
C766 C760 1.368 . S
C766 C765 1.523 . S
C767 C751 1.429 . S
C767 C763 1.429 . S
C767 C768 1.523 . S
C768 C752 1.368 . S
C768 C764 1.368 . S
C768 C767 1.523 . S
H769 C744 0.950 . S
H770 C746 0.950 . S
H771 C747 0.949 . S
H772 C749 0.950 . S
H773 C751 0.950 . S
C774 C775 1.349 . S
C774 C776 1.327 . S
C774 H799 0.950 . S
C775 C774 1.349 . S
C775 C791 1.349 . S
C776 C774 1.327 . S
C776 C795 1.429 . S
C776 H800 0.950 . S
C777 C794 1.574 . S
C777 C796 1.368 . S
C777 H801 0.949 . S
H778 C782 0.949 . S
C779 C780 1.349 . S
C779 C781 1.327 . S
C779 H802 0.950 . S
C780 C779 1.349 . S
C780 C792 1.349 . S
C781 C779 1.327 . S
C781 C797 1.429 . S
C781 H803 0.950 . S
C782 H778 0.949 . S
C782 C790 1.574 . S
C782 C798 1.368 . S
H783 C791 0.950 . S
H784 C789 0.950 . S
H785 C790 0.949 . S
H786 C792 0.950 . S
H787 C793 0.950 . S
H788 C794 0.949 . S
C789 H784 0.950 . S
C789 C791 1.327 . S
C789 C795 1.429 . S
C790 C782 1.574 . S
C790 H785 0.949 . S
C790 C796 1.368 . S
C791 C775 1.349 . S
C791 H783 0.950 . S
C791 C789 1.327 . S
C792 C780 1.349 . S
C792 H786 0.950 . S
C792 C793 1.327 . S
C793 H787 0.950 . S
C793 C792 1.327 . S
C793 C797 1.429 . S
C794 C777 1.574 . S
C794 H788 0.949 . S
C794 C798 1.368 . S
C795 C776 1.429 . S
C795 C789 1.429 . S
C795 C796 1.523 . S
C796 C777 1.368 . S
C796 C790 1.368 . S
C796 C795 1.523 . S
C797 C781 1.429 . S
C797 C793 1.429 . S
C797 C798 1.523 . S
C798 C782 1.368 . S
C798 C794 1.368 . S
C798 C797 1.523 . S
H799 C774 0.950 . S
H800 C776 0.950 . S
H801 C777 0.949 . S
H802 C779 0.950 . S
H803 C781 0.950 . S
C804 C805 1.349 . S
C804 C806 1.327 . S
C804 H829 0.950 . S
C805 C804 1.349 . S
C805 C821 1.349 . S
C806 C804 1.327 . S
C806 C825 1.429 . S
C806 H830 0.950 . S
C807 C824 1.574 . S
C807 C826 1.368 . S
C807 H831 0.949 . S
H808 C812 0.949 . S
C809 C810 1.349 . S
C809 C811 1.327 . S
C809 H832 0.950 . S
C810 C809 1.349 . S
C810 C822 1.349 . S
C811 C809 1.327 . S
C811 C827 1.429 . S
C811 H833 0.950 . S
C812 H808 0.949 . S
C812 C820 1.574 . S
C812 C828 1.368 . S
H813 C821 0.950 . S
H814 C819 0.950 . S
H815 C820 0.949 . S
H816 C822 0.950 . S
H817 C823 0.950 . S
H818 C824 0.949 . S
C819 H814 0.950 . S
C819 C821 1.327 . S
C819 C825 1.429 . S
C820 C812 1.574 . S
C820 H815 0.949 . S
C820 C826 1.368 . S
C821 C805 1.349 . S
C821 H813 0.950 . S
C821 C819 1.327 . S
C822 C810 1.349 . S
C822 H816 0.950 . S
C822 C823 1.327 . S
C823 H817 0.950 . S
C823 C822 1.327 . S
C823 C827 1.429 . S
C824 C807 1.574 . S
C824 H818 0.949 . S
C824 C828 1.368 . S
C825 C806 1.429 . S
C825 C819 1.429 . S
C825 C826 1.523 . S
C826 C807 1.368 . S
C826 C820 1.368 . S
C826 C825 1.523 . S
C827 C811 1.429 . S
C827 C823 1.429 . S
C827 C828 1.523 . S
C828 C812 1.368 . S
C828 C824 1.368 . S
C828 C827 1.523 . S
H829 C804 0.950 . S
H830 C806 0.950 . S
H831 C807 0.949 . S
H832 C809 0.950 . S
H833 C811 0.950 . S
C834 C835 1.349 . S
C834 C836 1.327 . S
C834 H859 0.950 . S
C835 C834 1.349 . S
C835 C851 1.349 . S
C836 C834 1.327 . S
C836 C855 1.429 . S
C836 H860 0.950 . S
C837 C854 1.574 . S
C837 C856 1.368 . S
C837 H861 0.949 . S
H838 C842 0.949 . S
C839 C840 1.349 . S
C839 C841 1.327 . S
C839 H862 0.950 . S
C840 C839 1.349 . S
C840 C852 1.349 . S
C841 C839 1.327 . S
C841 C857 1.429 . S
C841 H863 0.950 . S
C842 H838 0.949 . S
C842 C850 1.574 . S
C842 C858 1.368 . S
H843 C851 0.950 . S
H844 C849 0.950 . S
H845 C850 0.949 . S
H846 C852 0.950 . S
H847 C853 0.950 . S
H848 C854 0.949 . S
C849 H844 0.950 . S
C849 C851 1.327 . S
C849 C855 1.429 . S
C850 C842 1.574 . S
C850 H845 0.949 . S
C850 C856 1.368 . S
C851 C835 1.349 . S
C851 H843 0.950 . S
C851 C849 1.327 . S
C852 C840 1.349 . S
C852 H846 0.950 . S
C852 C853 1.327 . S
C853 H847 0.950 . S
C853 C852 1.327 . S
C853 C857 1.429 . S
C854 C837 1.574 . S
C854 H848 0.949 . S
C854 C858 1.368 . S
C855 C836 1.429 . S
C855 C849 1.429 . S
C855 C856 1.523 . S
C856 C837 1.368 . S
C856 C850 1.368 . S
C856 C855 1.523 . S
C857 C841 1.429 . S
C857 C853 1.429 . S
C857 C858 1.523 . S
C858 C842 1.368 . S
C858 C854 1.368 . S
C858 C857 1.523 . S
H859 C834 0.950 . S
H860 C836 0.950 . S
H861 C837 0.949 . S
H862 C839 0.950 . S
H863 C841 0.950 . S
C864 C865 1.349 . S
C864 C866 1.327 . S
C864 H889 0.950 . S
C865 C864 1.349 . S
C865 C881 1.349 . S
C866 C864 1.327 . S
C866 C885 1.429 . S
C866 H890 0.950 . S
C867 C884 1.574 . S
C867 C886 1.368 . S
C867 H891 0.949 . S
H868 C872 0.949 . S
C869 C870 1.349 . S
C869 C871 1.327 . S
C869 H892 0.950 . S
C870 C869 1.349 . S
C870 C882 1.349 . S
C871 C869 1.327 . S
C871 C887 1.429 . S
C871 H893 0.950 . S
C872 H868 0.949 . S
C872 C880 1.574 . S
C872 C888 1.368 . S
H873 C881 0.950 . S
H874 C879 0.950 . S
H875 C880 0.949 . S
H876 C882 0.950 . S
H877 C883 0.950 . S
H878 C884 0.949 . S
C879 H874 0.950 . S
C879 C881 1.327 . S
C879 C885 1.429 . S
C880 C872 1.574 . S
C880 H875 0.949 . S
C880 C886 1.368 . S
C881 C865 1.349 . S
C881 H873 0.950 . S
C881 C879 1.327 . S
C882 C870 1.349 . S
C882 H876 0.950 . S
C882 C883 1.327 . S
C883 H877 0.950 . S
C883 C882 1.327 . S
C883 C887 1.429 . S
C884 C867 1.574 . S
C884 H878 0.949 . S
C884 C888 1.368 . S
C885 C866 1.429 . S
C885 C879 1.429 . S
C885 C886 1.523 . S
C886 C867 1.368 . S
C886 C880 1.368 . S
C886 C885 1.523 . S
C887 C871 1.429 . S
C887 C883 1.429 . S
C887 C888 1.523 . S
C888 C872 1.368 . S
C888 C884 1.368 . S
C888 C887 1.523 . S
H889 C864 0.950 . S
H890 C866 0.950 . S
H891 C867 0.949 . S
H892 C869 0.950 . S
H893 C871 0.950 . S
C894 C895 1.349 . S
C894 C896 1.327 . S
C894 H919 0.950 . S
C895 C894 1.349 . S
C895 C911 1.349 . S
C896 C894 1.327 . S
C896 C915 1.429 . S
C896 H920 0.950 . S
C897 C914 1.574 . S
C897 C916 1.368 . S
C897 H921 0.949 . S
H898 C902 0.949 . S
C899 C900 1.349 . S
C899 C901 1.327 . S
C899 H922 0.950 . S
C900 C899 1.349 . S
C900 C912 1.349 . S
C901 C899 1.327 . S
C901 C917 1.429 . S
C901 H923 0.950 . S
C902 H898 0.949 . S
C902 C910 1.574 . S
C902 C918 1.368 . S
H903 C911 0.950 . S
H904 C909 0.950 . S
H905 C910 0.949 . S
H906 C912 0.950 . S
H907 C913 0.950 . S
H908 C914 0.949 . S
C909 H904 0.950 . S
C909 C911 1.327 . S
C909 C915 1.429 . S
C910 C902 1.574 . S
C910 H905 0.949 . S
C910 C916 1.368 . S
C911 C895 1.349 . S
C911 H903 0.950 . S
C911 C909 1.327 . S
C912 C900 1.349 . S
C912 H906 0.950 . S
C912 C913 1.327 . S
C913 H907 0.950 . S
C913 C912 1.327 . S
C913 C917 1.429 . S
C914 C897 1.574 . S
C914 H908 0.949 . S
C914 C918 1.368 . S
C915 C896 1.429 . S
C915 C909 1.429 . S
C915 C916 1.523 . S
C916 C897 1.368 . S
C916 C910 1.368 . S
C916 C915 1.523 . S
C917 C901 1.429 . S
C917 C913 1.429 . S
C917 C918 1.523 . S
C918 C902 1.368 . S
C918 C914 1.368 . S
C918 C917 1.523 . S
H919 C894 0.950 . S
H920 C896 0.950 . S
H921 C897 0.949 . S
H922 C899 0.950 . S
H923 C901 0.950 . S
C924 C925 1.349 . S
C924 C926 1.327 . S
C924 H949 0.950 . S
C925 C924 1.349 . S
C925 C941 1.349 . S
C926 C924 1.327 . S
C926 C945 1.429 . S
C926 H950 0.950 . S
C927 C944 1.574 . S
C927 C946 1.368 . S
C927 H951 0.949 . S
H928 C932 0.949 . S
C929 C930 1.349 . S
C929 C931 1.327 . S
C929 H952 0.950 . S
C930 C929 1.349 . S
C930 C942 1.349 . S
C931 C929 1.327 . S
C931 C947 1.429 . S
C931 H953 0.950 . S
C932 H928 0.949 . S
C932 C940 1.574 . S
C932 C948 1.368 . S
H933 C941 0.950 . S
H934 C939 0.950 . S
H935 C940 0.949 . S
H936 C942 0.950 . S
H937 C943 0.950 . S
H938 C944 0.949 . S
C939 H934 0.950 . S
C939 C941 1.327 . S
C939 C945 1.429 . S
C940 C932 1.574 . S
C940 H935 0.949 . S
C940 C946 1.368 . S
C941 C925 1.349 . S
C941 H933 0.950 . S
C941 C939 1.327 . S
C942 C930 1.349 . S
C942 H936 0.950 . S
C942 C943 1.327 . S
C943 H937 0.950 . S
C943 C942 1.327 . S
C943 C947 1.429 . S
C944 C927 1.574 . S
C944 H938 0.949 . S
C944 C948 1.368 . S
C945 C926 1.429 . S
C945 C939 1.429 . S
C945 C946 1.523 . S
C946 C927 1.368 . S
C946 C940 1.368 . S
C946 C945 1.523 . S
C947 C931 1.429 . S
C947 C943 1.429 . S
C947 C948 1.523 . S
C948 C932 1.368 . S
C948 C944 1.368 . S
C948 C947 1.523 . S
H949 C924 0.950 . S
H950 C926 0.950 . S
H951 C927 0.949 . S
H952 C929 0.950 . S
H953 C931 0.950 . S
C954 C955 1.349 . S
C954 C956 1.327 . S
C954 H979 0.950 . S
C955 C954 1.349 . S
C955 C971 1.349 . S
C956 C954 1.327 . S
C956 C975 1.429 . S
C956 H980 0.950 . S
C957 C974 1.574 . S
C957 C976 1.368 . S
C957 H981 0.949 . S
H958 C962 0.949 . S
C959 C960 1.349 . S
C959 C961 1.327 . S
C959 H982 0.950 . S
C960 C959 1.349 . S
C960 C972 1.349 . S
C961 C959 1.327 . S
C961 C977 1.429 . S
C961 H983 0.950 . S
C962 H958 0.949 . S
C962 C970 1.574 . S
C962 C978 1.368 . S
H963 C971 0.950 . S
H964 C969 0.950 . S
H965 C970 0.949 . S
H966 C972 0.950 . S
H967 C973 0.950 . S
H968 C974 0.949 . S
C969 H964 0.950 . S
C969 C971 1.327 . S
C969 C975 1.429 . S
C970 C962 1.574 . S
C970 H965 0.949 . S
C970 C976 1.368 . S
C971 C955 1.349 . S
C971 H963 0.950 . S
C971 C969 1.327 . S
C972 C960 1.349 . S
C972 H966 0.950 . S
C972 C973 1.327 . S
C973 H967 0.950 . S
C973 C972 1.327 . S
C973 C977 1.429 . S
C974 C957 1.574 . S
C974 H968 0.949 . S
C974 C978 1.368 . S
C975 C956 1.429 . S
C975 C969 1.429 . S
C975 C976 1.523 . S
C976 C957 1.368 . S
C976 C970 1.368 . S
C976 C975 1.523 . S
C977 C961 1.429 . S
C977 C973 1.429 . S
C977 C978 1.523 . S
C978 C962 1.368 . S
C978 C974 1.368 . S
C978 C977 1.523 . S
H979 C954 0.950 . S
H980 C956 0.950 . S
H981 C957 0.949 . S
H982 C959 0.950 . S
H983 C961 0.950 . S
C265 N1 0.956 . S
C270 C111 0.977 . S
C295 N18 1.123 . S
C300 C160 1.156 . S
C330 C186 1.965 . S
C325 N28 2.001 . S
C355 N40 2.548 . S
C360 C234 2.540 . S
C390 C146 2.615 . S
C385 N5 2.576 . S
C420 C114 0.828 . S
C415 N14 0.837 . S
C450 C235 1.997 . S
C445 N31 1.997 . S
C480 C203 1.220 . S
C475 N41 1.241 . S
C505 N2 1.390 . S
C510 C231 1.413 . S
C540 C163 2.463 1_556 S
C535 N27 2.517 . S
C565 N44 2.402 . S
C570 C115 2.435 1_655 S
C595 N15 0.532 . S
C600 C200 0.535 . S
C630 C120 1.506 . S
C625 N57 1.516 . S
C655 N70 0.862 . S
C660 C151 0.879 . S
C685 N79 2.224 . S
C690 C195 2.249 . S
C715 N93 2.300 . S
C720 C243 2.276 . S
C745 N54 2.006 . S
C750 C155 2.081 1_566 S
C780 C123 1.626 . S
C775 N66 1.703 . S
C810 C226 1.252 . S
C805 N80 1.282 . S
C840 C194 1.603 . S
C835 N96 1.605 . S
C865 N53 1.487 . S
C870 C240 1.520 . S
C900 C154 2.106 . S
C895 N83 2.098 . S
C930 C106 2.650 . S
C925 N92 2.633 . S
C955 N67 0.709 . S
C960 C191 0.706 . S
