# Generated by pormake.
# Topology pts, (4,4)-cn, num edge types: 1
# Building blocks:
#     Node 0, Type 0, BuildingBlock: KUFVIS_clean_linker_0, # of connection points: 4
#     Node 1, Type 0, BuildingBlock: KUFVIS_clean_linker_0, # of connection points: 4
#     Node 2, Type 1, BuildingBlock: UXUYUI_clean_sbu_0, # of connection points: 4
#     Node 3, Type 1, BuildingBlock: UXUYUI_clean_sbu_0, # of connection points: 4
#     Edge 4, Type (0, 1), BuildingBlock: MIFKUJ_clean_linker_0, # of connection points: 2
#     Edge 5, Type (0, 1), BuildingBlock: MIFKUJ_clean_linker_0, # of connection points: 2
#     Edge 6, Type (0, 1), BuildingBlock: MIFKUJ_clean_linker_0, # of connection points: 2
#     Edge 7, Type (0, 1), BuildingBlock: MIFKUJ_clean_linker_0, # of connection points: 2
#     Edge 8, Type (0, 1), BuildingBlock: MIFKUJ_clean_linker_0, # of connection points: 2
#     Edge 9, Type (0, 1), BuildingBlock: MIFKUJ_clean_linker_0, # of connection points: 2
#     Edge 10, Type (0, 1), BuildingBlock: MIFKUJ_clean_linker_0, # of connection points: 2
#     Edge 11, Type (0, 1), BuildingBlock: MIFKUJ_clean_linker_0, # of connection points: 2
# Relax obj value: 0.008
# Max RMSD: 0.067
# Mean RMSD: 0.060
data_MOF--net-pts--node1-UXUYUI_clean_sbu_0--node2-KUFVIS_clean_linker_0--edge1-MIFKUJ_clean_linker_0
_symmetry_space_group_name_H-M    P1
_symmetry_Int_Tables_number       1
_symmetry_cell_setting            triclinic
loop_
_symmetry_equiv_pos_as_xyz
'x, y, z'
_cell_length_a     39.277633
_cell_length_b     39.273137
_cell_length_c     50.977807
_cell_angle_alpha  90.09876
_cell_angle_beta   89.927856
_cell_angle_gamma 90.178848
loop_
_atom_site_label
_atom_site_type_symbol
_atom_site_fract_x
_atom_site_fract_y
_atom_site_fract_z
_atom_type_partial_charge
H0 H 0.39956 0.02128 0.00558 0.0
H1 H 0.4914 0.03655 0.96206 0.0
H2 H 0.49459 0.99794 0.04189 0.0
H3 H 0.54629 0.01923 0.04203 0.0
H4 H 0.63587 1.007 0.99493 0.0
H5 H 0.53896 1.00868 0.95742 0.0
C6 C 0.42716 0.02045 0.00455 0.0
C7 C 0.44552 1.00955 0.02634 0.0
C8 C 0.4436 0.02965 0.98134 0.0
C9 C 0.47927 0.02831 0.98002 0.0
C10 C 0.49876 0.0171 0.00178 0.0
C11 C 0.48115 1.00768 0.02501 0.0
C12 C 0.537 0.01455 1.00003 0.0
C13 C 0.55759 0.0156 0.02289 0.0
C14 C 0.59315 1.01161 0.02129 0.0
C15 C 0.60836 1.00851 0.99658 0.0
C16 C 0.58886 1.00802 0.97377 0.0
C17 C 0.55337 1.01053 0.97542 0.0
H18 H 0.0369 0.6364 0.49653 0.0
H19 H 0.01857 0.54602 0.54128 0.0
H20 H 0.03556 0.54019 0.45727 0.0
H21 H 1.00369 0.49353 0.46071 0.0
H22 H 0.0172 0.40046 0.50288 0.0
H23 H 0.04233 0.49456 0.54052 0.0
C24 C 0.03464 0.60889 0.4975 0.0
C25 C 0.03664 0.58993 0.47435 0.0
C26 C 0.02897 0.59322 0.52171 0.0
C27 C 0.024 0.55775 0.52254 0.0
C28 C 0.02641 0.53772 0.49944 0.0
C29 C 0.03275 0.55445 0.47531 0.0
C30 C 0.02314 0.49958 0.50055 0.0
C31 C 1.01157 0.48077 0.47848 0.0
C32 C 1.00944 0.44508 0.47933 0.0
C33 C 0.01859 0.42806 0.50225 0.0
C34 C 0.03011 0.44581 0.52425 0.0
C35 C 0.03237 0.48144 0.52348 0.0
Li36 Li 0.01791 0.04932 0.26832 0.0
Li37 Li 0.01678 0.9867 0.26975 0.0
Li38 Li 0.04949 0.01879 0.23535 0.0
Li39 Li 0.98637 0.01636 0.23361 0.0
C40 C 0.07295 0.03303 0.29441 0.0
N41 N 0.10457 0.06529 0.336 0.0
C42 C 0.07078 0.01927 0.31962 0.0
C43 C 0.09144 0.06303 0.2903 0.0
C44 C 0.08692 0.03599 0.3404 0.0
C45 C 0.10716 0.07902 0.3116 0.0
C46 C 0.95073 1.00583 0.28587 0.0
C47 C 0.90058 0.97031 0.28816 0.0
N48 N 0.89587 0.97999 0.31353 0.0
C49 C 0.94511 0.01577 0.31185 0.0
C50 C 0.92805 0.98321 0.27382 0.0
C51 C 0.91736 1.00228 0.32555 0.0
C52 C 0.01664 0.12052 0.27546 0.0
N53 N 0.0161 0.09043 0.2886 0.0
C54 C 1.01231 0.11974 0.32969 0.0
C55 C 0.01393 0.08951 0.31522 0.0
C56 C 1.01285 0.15124 0.31663 0.0
C57 C 0.01514 0.15134 0.28912 0.0
H58 H 0.01796 0.12062 0.25429 0.0
H59 H 1.01363 0.06531 0.32526 0.0
C60 C 0.03277 0.91852 0.2795 0.0
N61 N 0.01765 0.94612 0.29062 0.0
C62 C 0.03324 0.88735 0.29256 0.0
C63 C 1.00496 0.91403 0.32932 0.0
C64 C 1.00427 0.94458 0.31524 0.0
C65 C 0.01911 0.88489 0.31772 0.0
H66 H 0.0443 0.92062 0.26031 0.0
H67 H 0.99332 0.96705 0.32404 0.0
C68 C 0.03029 0.07206 0.20803 0.0
N69 N 0.05856 0.10169 0.16395 0.0
C70 C 0.01583 0.06636 0.18337 0.0
C71 C 0.05897 0.09301 0.21032 0.0
C72 C 0.03053 0.08156 0.16131 0.0
C73 C 0.07295 0.10768 0.18778 0.0
C74 C 1.00848 0.94996 0.21789 0.0
C75 C 0.02244 0.94168 0.19347 0.0
C76 C 0.98342 0.92893 0.2288 0.0
C77 C 1.01081 0.91273 0.18023 0.0
C78 C 0.97249 0.90018 0.21497 0.0
N79 N 0.98627 0.89276 0.19116 0.0
C80 C 0.12072 0.01953 0.22854 0.0
C81 C 0.09018 0.01463 0.18867 0.0
C82 C 0.15169 0.01817 0.21512 0.0
N83 N 0.09078 0.01784 0.21524 0.0
C84 C 0.12059 1.01296 0.17445 0.0
C85 C 0.15192 0.01466 0.1877 0.0
H86 H 0.12063 0.02146 0.24967 0.0
H87 H 0.06609 1.01325 0.17851 0.0
C88 C 0.92384 0.04302 0.21819 0.0
N89 N 0.9457 0.01718 0.21279 0.0
C90 C 0.89251 0.04512 0.20532 0.0
C91 C 0.90669 0.99388 0.18152 0.0
C92 C 0.93796 0.99314 0.1945 0.0
C93 C 0.88325 0.02006 0.18687 0.0
H94 H 0.93069 0.06192 0.23274 0.0
H95 H 0.95566 0.97307 0.1901 0.0
O96 O 0.05697 0.01726 0.27387 0.0
O97 O 0.97773 0.01895 0.27216 0.0
O98 O 0.01653 0.05709 0.2298 0.0
O99 O 0.01962 0.97827 0.23108 0.0
H100 H 0.05667 0.99604 0.32312 0.0
H101 H 0.0933 0.07404 0.27091 0.0
H102 H 0.08534 0.02572 0.36004 0.0
H103 H 0.12134 0.10238 0.30874 0.0
H104 H 0.88293 0.95269 0.27908 0.0
H105 H 0.96213 0.0335 0.32144 0.0
H106 H 0.93139 0.97584 0.25357 0.0
H107 H 0.9129 1.00956 0.34574 0.0
H108 H 1.01098 0.11844 0.35088 0.0
H109 H 0.01513 0.17497 0.27821 0.0
H110 H 0.04492 0.86548 0.28325 0.0
H111 H 0.99416 0.91301 0.34887 0.0
H112 H 0.99368 0.05017 0.18124 0.0
H113 H 0.0705 0.09763 0.22926 0.0
H114 H 0.0197 0.07726 0.14208 0.0
H115 H 0.09527 0.12378 0.18923 0.0
H116 H 0.04202 0.95744 0.18479 0.0
H117 H 0.97273 0.9345 0.24784 0.0
H118 H 0.02133 0.90611 0.16128 0.0
H119 H 0.95312 0.88372 0.2232 0.0
H120 H 0.17522 0.01906 0.22615 0.0
H121 H 0.1196 1.01056 0.15329 0.0
H122 H 0.87584 0.06623 0.2098 0.0
H123 H 0.9008 0.97362 0.16782 0.0
Li124 Li 0.98703 0.0204 0.76797 0.0
Li125 Li 0.04992 0.0182 0.76823 0.0
Li126 Li 0.01834 0.04977 0.73276 0.0
Li127 Li 0.01984 0.98679 0.73405 0.0
C128 C 1.00571 0.0827 0.78748 0.0
N129 N 0.9766 0.1307 0.82018 0.0
C130 C 0.01904 0.08838 0.81251 0.0
C131 C 0.97787 0.10176 0.77895 0.0
C132 C 1.0039 0.11268 0.82879 0.0
C133 C 0.96342 0.12581 0.79579 0.0
C134 C 0.0301 0.96162 0.79301 0.0
C135 C 0.07058 0.92099 0.80963 0.0
N136 N 0.05744 0.92507 0.83413 0.0
C137 C 0.01679 0.96519 0.8183 0.0
C138 C 0.05701 0.93913 0.78856 0.0
C139 C 0.03103 0.94656 0.83884 0.0
C140 C 0.91763 1.0078 0.7755 0.0
N141 N 0.94559 0.0205 0.78784 0.0
C142 C 0.91275 0.03206 0.82639 0.0
C143 C 0.9438 0.03219 0.81294 0.0
C144 C 0.8833 0.0195 0.81399 0.0
C145 C 0.88613 1.00712 0.7882 0.0
H146 H 0.91982 0.998 0.75575 0.0
H147 H 0.96644 0.04147 0.82261 0.0
C148 C 0.12076 0.02114 0.77641 0.0
N149 N 0.09043 0.01913 0.78923 0.0
C150 C 0.15126 0.02242 0.79041 0.0
C151 C 0.1189 0.02031 0.83071 0.0
C152 C 0.08899 0.01878 0.81589 0.0
C153 C 0.15059 0.02215 0.81793 0.0
H154 H 0.12133 0.02224 0.75527 0.0
H155 H 0.06462 0.01761 0.8257 0.0
C156 C 0.95836 0.0286 0.71026 0.0
N157 N 0.91514 0.052 0.67159 0.0
C158 C 0.96031 0.0153 0.68486 0.0
C159 C 0.93405 0.0534 0.71609 0.0
C160 C 0.93834 0.02756 0.66555 0.0
C161 C 0.91254 0.06502 0.69624 0.0
C162 C 0.0789 1.00501 0.71082 0.0
C163 C 0.08082 0.01951 0.68585 0.0
C164 C 0.09792 0.9759 0.71646 0.0
C165 C 0.10141 1.00434 0.66678 0.0
C166 C 0.11817 0.96147 0.69686 0.0
N167 N 0.11946 0.97585 0.67263 0.0
C168 C 0.02749 0.11979 0.72433 0.0
C169 C 1.01273 0.08995 0.68555 0.0
C170 C 0.02845 0.15058 0.71072 0.0
N171 N 0.01925 0.09033 0.71176 0.0
C172 C 0.01384 0.12017 0.67106 0.0
C173 C 0.02156 0.15103 0.68374 0.0
H174 H 0.03365 0.11943 0.74496 0.0
H175 H 1.0071 0.06621 0.67577 0.0
C176 C 1.00922 0.91669 0.72838 0.0
N177 N 0.01891 0.94479 0.7147 0.0
C178 C 1.00801 0.88484 0.7162 0.0
C179 C 0.02641 0.91131 0.67586 0.0
C180 C 0.02704 0.94273 0.6888 0.0
C181 C 0.01687 0.88172 0.68958 0.0
H182 H 1.00223 0.91901 0.74881 0.0
H183 H 0.03409 0.96541 0.67813 0.0
O184 O 0.02007 0.05884 0.77132 0.0
O185 O 0.01672 0.9799 0.7727 0.0
O186 O 0.97969 0.01688 0.72941 0.0
O187 O 0.05877 0.01944 0.72971 0.0
H188 H 0.0408 0.07418 0.81934 0.0
H189 H 0.96767 0.09816 0.75948 0.0
H190 H 0.01385 0.11722 0.84826 0.0
H191 H 0.94178 0.14064 0.78946 0.0
H192 H 0.09152 0.90363 0.80649 0.0
H193 H 0.99588 0.98234 0.82206 0.0
H194 H 0.06729 0.93572 0.76907 0.0
H195 H 0.02112 0.94923 0.85855 0.0
H196 H 0.91181 0.04201 0.8462 0.0
H197 H 0.86434 0.99651 0.77804 0.0
H198 H 0.17508 0.02442 0.77979 0.0
H199 H 0.11727 0.01989 0.85191 0.0
H200 H 0.97877 0.99593 0.68004 0.0
H201 H 0.93159 0.06339 0.73576 0.0
H202 H 0.93975 0.01767 0.64576 0.0
H203 H 0.89369 0.08429 0.70047 0.0
H204 H 0.06658 0.0422 0.68121 0.0
H205 H 0.09699 0.96455 0.73574 0.0
H206 H 0.10303 0.01522 0.64734 0.0
H207 H 0.13287 0.93883 0.70092 0.0
H208 H 0.03519 0.17371 0.72112 0.0
H209 H 1.00847 0.11944 0.65024 0.0
H210 H 0.99978 0.86298 0.72749 0.0
H211 H 0.03375 0.91023 0.6554 0.0
H212 H 0.44315 0.04372 0.07281 0.0
H213 H 0.39733 0.03943 0.10549 0.0
H214 H 0.35653 0.95207 0.06467 0.0
H215 H 0.402 0.95664 0.032 0.0
H216 H 0.31118 1.00348 0.06826 0.0
H217 H 0.38693 0.94489 0.12679 0.0
H218 H 0.4396 0.93715 0.15233 0.0
H219 H 0.41888 0.0288 0.19544 0.0
H220 H 0.3663 0.03736 0.1699 0.0
H221 H 0.16815 0.97063 0.14805 0.0
H222 H 0.22213 0.966 0.12444 0.0
H223 H 0.26374 0.04812 0.17084 0.0
H224 H 0.20985 0.05258 0.19476 0.0
H225 H 0.30978 0.99968 0.16547 0.0
H226 H 0.2367 0.06041 0.10744 0.0
H227 H 0.18539 0.07202 0.08116 0.0
H228 H 0.20261 0.98117 0.03615 0.0
H229 H 0.25372 0.96868 0.06247 0.0
C230 C 0.42525 0.02274 0.0716 0.0
C231 C 0.42606 1.00037 0.05011 0.0
C232 C 0.39898 0.02038 0.09015 0.0
C233 C 0.37336 0.99554 0.08741 0.0
C234 C 0.37594 0.97148 0.06712 0.0
C235 C 0.40204 0.97389 0.04862 0.0
C236 C 0.34154 0.99748 0.1031 0.0
C237 C 0.31081 1.00197 0.08952 0.0
C238 C 0.34126 0.99708 0.13083 0.0
C239 C 0.37283 0.99193 0.14624 0.0
C240 C 0.39375 0.96356 0.14155 0.0
C241 C 0.42356 0.95899 0.15607 0.0
C242 C 0.43263 0.98251 0.17545 0.0
C243 C 0.41185 1.01062 0.1804 0.0
C244 C 0.38202 0.01532 0.16593 0.0
C245 C 0.1887 0.98789 0.15308 0.0
C246 C 0.18465 1.01212 0.17316 0.0
C247 C 0.21959 0.98518 0.1396 0.0
C248 C 0.24693 1.007 0.14562 0.0
C249 C 0.24307 0.03097 0.16587 0.0
C250 C 0.21225 0.0335 0.17951 0.0
C251 C 0.27933 1.00501 0.13057 0.0
C252 C 0.31014 1.00087 0.14422 0.0
C253 C 0.27984 1.00619 0.10281 0.0
C254 C 0.24884 1.0134 0.08715 0.0
C255 C 0.22935 0.04271 0.09213 0.0
C256 C 0.20033 0.04948 0.07719 0.0
C257 C 0.19069 0.02729 0.05705 0.0
C258 C 0.21006 0.99829 0.0518 0.0
C259 C 0.23906 0.99135 0.06672 0.0
H260 H 0.16825 0.03262 0.04547 0.0
H261 H 0.45571 0.97893 0.18666 0.0
H262 H 0.07944 0.39821 0.5278 0.0
H263 H 0.08172 0.35212 0.55992 0.0
H264 H 1.0019 0.40019 0.60465 0.0
H265 H 0.99951 0.44652 0.5723 0.0
H266 H 0.05421 0.36284 0.63546 0.0
H267 H 0.97667 0.34912 0.56285 0.0
H268 H 0.96139 0.34957 0.51597 0.0
H269 H 0.0345 0.27094 0.50067 0.0
H270 H 0.05087 0.27063 0.54743 0.0
H271 H 0.99362 0.21222 0.69723 0.0
H272 H 0.99767 0.26617 0.67348 0.0
H273 H 0.05804 0.21732 0.61354 0.0
H274 H 0.0532 0.16313 0.6369 0.0
H275 H 0.01437 0.25715 0.59142 0.0
H276 H 0.09313 0.27047 0.66273 0.0
H277 H 0.11137 0.27081 0.709 0.0
H278 H 0.03889 0.34937 0.7263 0.0
H279 H 0.01989 0.34917 0.68018 0.0
C280 C 0.06341 0.39964 0.54509 0.0
C281 C 0.03925 0.42572 0.54765 0.0
C282 C 0.0646 0.37327 0.56331 0.0
C283 C 0.04156 0.37252 0.58434 0.0
C284 C 0.01985 0.40037 0.5885 0.0
C285 C 0.01861 0.42687 0.57014 0.0
C286 C 0.03684 0.34058 0.59931 0.0
C287 C 0.04511 0.33978 0.62602 0.0
C288 C 0.02552 0.31044 0.5867 0.0
C289 C 0.01527 0.31012 0.55863 0.0
C290 C 0.98974 0.33215 0.54947 0.0
C291 C 0.98087 0.33237 0.52292 0.0
C292 C 0.99703 0.31037 0.50535 0.0
C293 C 0.02207 0.28804 0.51431 0.0
C294 C 0.03117 0.28784 0.54084 0.0
C295 C 1.0078 0.21306 0.67899 0.0
C296 C 0.0232 0.18351 0.66894 0.0
C297 C 1.01022 0.24393 0.66549 0.0
C298 C 0.0287 0.24605 0.64192 0.0
C299 C 0.04368 0.2164 0.63168 0.0
C300 C 0.04086 0.18542 0.645 0.0
C301 C 0.03217 0.279 0.62775 0.0
C302 C 0.02349 0.28008 0.60105 0.0
C303 C 0.04336 0.30927 0.64036 0.0
C304 C 0.05486 0.30956 0.66806 0.0
C305 C 0.08091 0.28764 0.67644 0.0
C306 C 0.09141 0.28784 0.70264 0.0
C307 C 0.07623 0.31003 0.7206 0.0
C308 C 0.05059 0.33215 0.71238 0.0
C309 C 0.03996 0.33203 0.68621 0.0
H310 H 0.08439 0.31014 0.74087 0.0
H311 H 0.99006 0.31054 0.48482 0.0
H312 H 0.64569 0.96835 0.03039 0.0
H313 H 0.68761 0.971 0.06515 0.0
H314 H 0.63238 0.05327 0.10174 0.0
H315 H 0.59107 0.05215 0.06558 0.0
H316 H 0.69588 0.06898 0.10132 0.0
H317 H 0.63777 0.97079 0.13002 0.0
H318 H 0.60914 0.91496 0.1273 0.0
H319 H 0.7027 0.86848 0.10268 0.0
H320 H 0.73182 0.92411 0.10487 0.0
H321 H 0.82179 0.04271 0.20651 0.0
H322 H 0.76649 0.04322 0.1845 0.0
H323 H 0.81163 0.99794 0.11583 0.0
H324 H 0.86739 0.99929 0.13673 0.0
H325 H 0.74601 0.96578 0.14167 0.0
H326 H 0.79858 0.07022 0.1066 0.0
H327 H 0.82511 0.12675 0.11231 0.0
H328 H 0.73712 0.1613 0.15464 0.0
H329 H 0.71029 0.10474 0.14948 0.0
C330 C 0.64229 0.98702 0.04584 0.0
C331 C 0.61522 1.01035 0.04499 0.0
C332 C 0.66611 0.98816 0.06602 0.0
C333 C 0.66305 1.01199 0.08643 0.0
C334 C 0.63527 0.03455 0.08628 0.0
C335 C 0.61149 0.0337 0.06574 0.0
C336 C 0.69053 0.01466 0.10646 0.0
C337 C 0.70621 0.04645 0.11062 0.0
C338 C 0.70427 0.9854 0.11877 0.0
C339 C 0.68696 0.95173 0.11752 0.0
C340 C 0.65221 0.94872 0.12387 0.0
C341 C 0.6359 0.91708 0.12244 0.0
C342 C 0.65408 0.8882 0.1148 0.0
C343 C 0.68865 0.89088 0.10861 0.0
C344 C 0.70509 0.92245 0.11 0.0
C345 C 0.82028 0.03346 0.18653 0.0
C346 C 0.84939 0.02087 0.17352 0.0
C347 C 0.7885 0.0335 0.17412 0.0
C348 C 0.78509 0.02046 0.14866 0.0
C349 C 0.81382 1.00785 0.13561 0.0
C350 C 0.84568 1.00843 0.14774 0.0
C351 C 0.7516 0.01961 0.13546 0.0
C352 C 0.73495 0.98822 0.13274 0.0
C353 C 0.73657 0.04924 0.12501 0.0
C354 C 0.75266 0.08317 0.12798 0.0
C355 C 0.78507 0.08976 0.11737 0.0
C356 C 0.80011 0.12182 0.12044 0.0
C357 C 0.78287 0.14756 0.13391 0.0
C358 C 0.75048 0.14132 0.14426 0.0
C359 C 0.73535 0.10927 0.14127 0.0
H360 H 0.79455 0.17238 0.13626 0.0
H361 H 0.6414 0.86373 0.11369 0.0
H362 H 0.07381 0.6433 0.53453 0.0
H363 H 0.06917 0.68503 0.56955 0.0
H364 H 0.97945 0.63396 0.59886 0.0
H365 H 0.98313 0.59264 0.56267 0.0
H366 H 0.96814 0.69928 0.59655 0.0
H367 H 0.05623 0.63316 0.63349 0.0
H368 H 0.11 0.60099 0.63482 0.0
H369 H 0.16615 0.69205 0.617 0.0
H370 H 0.11269 0.7247 0.61519 0.0
H371 H 0.03515 0.81963 0.70978 0.0
H372 H 0.0333 0.76415 0.68814 0.0
H373 H 0.99701 0.81164 0.61728 0.0
H374 H 0.997 0.86688 0.63918 0.0
H375 H 0.06662 0.73978 0.649 0.0
H376 H 0.94757 0.75909 0.58238 0.0
H377 H 0.89198 0.78802 0.58437 0.0
H378 H 0.89403 0.78398 0.66852 0.0
H379 H 0.94938 0.7546 0.66704 0.0
C380 C 0.05319 0.64073 0.54853 0.0
C381 C 0.02864 0.61482 0.54569 0.0
C382 C 0.05077 0.66446 0.56876 0.0
C383 C 0.02418 0.66253 0.5871 0.0
C384 C 1.00026 0.63592 0.58498 0.0
C385 C 1.00254 0.61214 0.56447 0.0
C386 C 0.02038 0.68993 0.60709 0.0
C387 C 0.98957 0.70792 0.60823 0.0
C388 C 0.04804 0.70081 0.62285 0.0
C389 C 0.08038 0.68136 0.62411 0.0
C390 C 0.08002 0.6463 0.62971 0.0
C391 C 0.11046 0.62798 0.63056 0.0
C392 C 0.14146 0.64446 0.62597 0.0
C393 C 0.14211 0.67932 0.62057 0.0
C394 C 0.11174 0.69776 0.61968 0.0
C395 C 0.02616 0.81825 0.68974 0.0
C396 C 0.01607 0.84785 0.67631 0.0
C397 C 0.02541 0.78648 0.67731 0.0
C398 C 0.01459 0.78353 0.65117 0.0
C399 C 1.00481 0.81306 0.63763 0.0
C400 C 1.00531 0.84479 0.65009 0.0
C401 C 0.01483 0.7499 0.63765 0.0
C402 C 0.045 0.73081 0.63769 0.0
C403 C 0.9863 0.73753 0.62353 0.0
C404 C 0.95278 0.75485 0.62458 0.0
C405 C 0.93608 0.76421 0.6013 0.0
C406 C 0.90463 0.78072 0.60234 0.0
C407 C 0.88953 0.78791 0.62655 0.0
C408 C 0.90581 0.7785 0.64978 0.0
C409 C 0.93725 0.76195 0.64885 0.0
H410 H 0.86519 0.80072 0.62731 0.0
H411 H 0.165 0.63022 0.62662 0.0
H412 H 0.44235 0.99885 0.93335 0.0
H413 H 0.39609 1.00234 0.90114 0.0
H414 H 0.34943 0.08253 0.94646 0.0
H415 H 0.39535 0.07883 0.97867 0.0
H416 H 0.30723 0.02906 0.93962 0.0
H417 H 0.38057 0.09728 0.88493 0.0
H418 H 0.43312 0.11018 0.86033 0.0
H419 H 0.41775 0.02138 0.81249 0.0
H420 H 0.36532 1.00767 0.83705 0.0
H421 H 0.16384 0.06205 0.86072 0.0
H422 H 0.2171 0.06679 0.88522 0.0
H423 H 0.26335 0.99244 0.83407 0.0
H424 H 0.21022 0.98805 0.8092 0.0
H425 H 0.30687 0.04204 0.8429 0.0
H426 H 0.23589 0.97219 0.89663 0.0
H427 H 0.18482 0.95547 0.92171 0.0
H428 H 0.19739 0.04238 0.97202 0.0
H429 H 0.24822 0.05999 0.94695 0.0
C430 C 0.42291 0.01811 0.9358 0.0
C431 C 0.42227 0.03852 0.95844 0.0
C432 C 0.39641 0.02 0.91748 0.0
C433 C 0.36914 0.04253 0.92152 0.0
C434 C 0.37008 0.06483 0.94305 0.0
C435 C 0.39639 0.06286 0.96133 0.0
C436 C 0.33768 0.04 0.90548 0.0
C437 C 0.30705 0.03253 0.91851 0.0
C438 C 0.33773 0.04299 0.87784 0.0
C439 C 0.36918 0.05128 0.863 0.0
C440 C 0.38854 0.08034 0.86931 0.0
C441 C 0.41828 0.08783 0.85534 0.0
C442 C 0.42881 0.06657 0.8349 0.0
C443 C 0.40958 0.03781 0.82834 0.0
C444 C 0.37983 0.03019 0.84227 0.0
C445 C 0.18527 0.04651 0.85483 0.0
C446 C 0.18277 0.02453 0.83313 0.0
C447 C 0.21574 0.04925 0.86883 0.0
C448 C 0.24418 0.02964 0.86173 0.0
C449 C 0.24182 1.00787 0.83992 0.0
C450 C 0.21144 1.00536 0.82574 0.0
C451 C 0.27626 0.03176 0.87714 0.0
C452 C 0.30701 0.03882 0.86402 0.0
C453 C 0.27649 0.02793 0.90475 0.0
C454 C 0.24567 0.01762 0.91971 0.0
C455 C 0.22758 0.98794 0.91287 0.0
C456 C 0.19869 0.97827 0.92712 0.0
C457 C 0.1878 0.99791 0.94839 0.0
C458 C 0.2058 0.02724 0.95549 0.0
C459 C 0.23465 0.03708 0.94127 0.0
H460 H 0.16547 0.99035 0.95943 0.0
H461 H 0.45184 0.07241 0.82411 0.0
H462 H 0.03939 0.44422 0.43102 0.0
H463 H 0.03513 0.39799 0.39869 0.0
H464 H 0.95517 0.3514 0.44447 0.0
H465 H 0.95953 0.39732 0.47669 0.0
H466 H 1.00862 0.30949 0.43746 0.0
H467 H 0.9399 0.38203 0.38304 0.0
H468 H 0.92682 0.4343 0.35834 0.0
H469 H 0.01495 0.41874 0.30991 0.0
H470 H 0.02883 0.36661 0.33456 0.0
H471 H 0.97198 0.16593 0.35868 0.0
H472 H 0.96826 0.21941 0.38306 0.0
H473 H 0.0446 0.26386 0.33264 0.0
H474 H 0.04845 0.21038 0.30813 0.0
H475 H 0.99439 0.30807 0.34086 0.0
H476 H 0.06346 0.23652 0.39414 0.0
H477 H 0.07981 0.18585 0.41959 0.0
H478 H 0.99491 0.20126 0.47136 0.0
H479 H 0.97761 0.25164 0.44591 0.0
C480 C 0.01995 0.42485 0.43351 0.0
C481 C 0.99982 0.42421 0.45629 0.0
C482 C 0.01764 0.39836 0.41513 0.0
C483 C 0.99499 0.37109 0.41928 0.0
C484 C 0.97292 0.37207 0.44094 0.0
C485 C 0.97526 0.3984 0.45923 0.0
C486 C 0.99728 0.33952 0.40331 0.0
C487 C 1.00479 0.30905 0.41639 0.0
C488 C 0.99395 0.33929 0.3757 0.0
C489 C 0.98558 0.37058 0.36082 0.0
C490 C 0.95666 0.38991 0.36727 0.0
C491 C 0.94906 0.41948 0.35325 0.0
C492 C 0.97009 0.42988 0.33262 0.0
C493 C 0.9987 0.41068 0.32592 0.0
C494 C 1.00642 0.38109 0.33989 0.0
C495 C 0.98822 0.18697 0.35291 0.0
C496 C 1.01065 0.18379 0.33153 0.0
C497 C 0.986 0.21758 0.36683 0.0
C498 C 1.00641 0.24559 0.35986 0.0
C499 C 0.02854 0.24264 0.33834 0.0
C500 C 0.03069 0.21206 0.32434 0.0
C501 C 1.00478 0.27782 0.37517 0.0
C502 C 0.99782 0.30843 0.36197 0.0
C503 C 1.00891 0.27831 0.40276 0.0
C504 C 0.01893 0.24761 0.41784 0.0
C505 C 0.048 0.22886 0.41073 0.0
C506 C 0.05749 0.20023 0.42521 0.0
C507 C 0.03833 0.19025 0.44701 0.0
C508 C 1.00966 0.20893 0.4544 0.0
C509 C 0.99998 0.23752 0.43995 0.0
H510 H 0.04577 0.16812 0.45822 0.0
H511 H 0.96416 0.45279 0.32178 0.0
H512 H 0.62141 0.95329 0.95339 0.0
H513 H 0.66577 0.95473 0.91953 0.0
H514 H 0.644 0.06067 0.90525 0.0
H515 H 0.5993 0.05907 0.93895 0.0
H516 H 0.67513 0.97466 0.8659 0.0
H517 H 0.7226 0.10055 0.91071 0.0
H518 H 0.71668 0.13332 0.95183 0.0
H519 H 0.70008 0.04068 0.99469 0.0
H520 H 0.7066 1.00739 0.95395 0.0
H521 H 0.82008 0.03359 0.79397 0.0
H522 H 0.76521 0.03096 0.81659 0.0
H523 H 0.81591 1.00173 0.88804 0.0
H524 H 0.87082 1.00384 0.86552 0.0
H525 H 0.76867 0.04952 0.89744 0.0
H526 H 0.77466 0.94306 0.85125 0.0
H527 H 0.78168 0.90597 0.81256 0.0
H528 H 0.69464 0.95205 0.77634 0.0
H529 H 0.68738 0.98977 0.81469 0.0
C530 C 0.62511 0.97638 0.94211 0.0
C531 C 0.60694 1.00599 0.94846 0.0
C532 C 0.65044 0.97722 0.92286 0.0
C533 C 0.65835 1.00789 0.91011 0.0
C534 C 0.63825 0.03678 0.91491 0.0
C535 C 0.61264 0.03582 0.93399 0.0
C536 C 0.69069 1.01089 0.89527 0.0
C537 C 0.69547 0.99129 0.87256 0.0
C538 C 0.71753 0.03186 0.90446 0.0
C539 C 0.71465 0.05156 0.92922 0.0
C540 C 0.71786 0.0872 0.92894 0.0
C541 C 0.71441 0.10585 0.95218 0.0
C542 C 0.70789 0.08911 0.97584 0.0
C543 C 0.70503 0.05364 0.97634 0.0
C544 C 0.70859 0.03488 0.95318 0.0
C545 C 0.81957 0.02631 0.81445 0.0
C546 C 0.84992 0.0188 0.82789 0.0
C547 C 0.78816 0.02492 0.82736 0.0
C548 C 0.78641 0.01588 0.85395 0.0
C549 C 0.81666 1.00886 0.86753 0.0
C550 C 0.84807 1.01021 0.85464 0.0
C551 C 0.75311 1.01366 0.8677 0.0
C552 C 0.7482 0.03331 0.8904 0.0
C553 C 0.72646 0.9922 0.85875 0.0
C554 C 0.7307 0.96948 0.83571 0.0
C555 C 0.75719 0.94548 0.83494 0.0
C556 C 0.76118 0.92431 0.81309 0.0
C557 C 0.73868 0.92672 0.79197 0.0
C558 C 0.71208 0.95025 0.79269 0.0
C559 C 0.708 0.97152 0.81449 0.0
H560 H 0.74181 0.9103 0.77507 0.0
H561 H 0.70513 0.1036 0.99379 0.0
H562 H 0.0879 0.63359 0.46249 0.0
H563 H 0.08622 0.67807 0.42907 0.0
H564 H 0.99416 0.63447 0.39741 0.0
H565 H 0.99558 0.58983 0.43116 0.0
H566 H 0.04826 0.67085 0.35948 0.0
H567 H 0.97538 0.68505 0.43703 0.0
H568 H 0.96778 0.68116 0.48498 0.0
H569 H 0.04942 0.75258 0.49648 0.0
H570 H 0.05794 0.75633 0.44857 0.0
H571 H 0.99068 0.82493 0.3023 0.0
H572 H 0.99333 0.7699 0.32473 0.0
H573 H 0.05367 0.81568 0.38627 0.0
H574 H 0.04911 0.87108 0.36455 0.0
H575 H 1.01307 0.77491 0.40777 0.0
H576 H 0.08738 0.7637 0.33351 0.0
H577 H 0.10352 0.76513 0.28675 0.0
H578 H 0.02853 0.68851 0.26956 0.0
H579 H 1.01164 0.68695 0.31619 0.0
C580 C 0.06809 0.63269 0.44773 0.0
C581 C 0.04168 0.60859 0.44946 0.0
C582 C 0.06717 0.65806 0.42867 0.0
C583 C 0.03987 0.65968 0.41105 0.0
C584 C 0.01548 0.63347 0.41083 0.0
C585 C 0.01634 0.60799 0.43004 0.0
C586 C 0.03366 0.6918 0.39677 0.0
C587 C 0.04001 0.69356 0.36979 0.0
C588 C 0.02388 0.72146 0.41056 0.0
C589 C 0.01743 0.72079 0.43925 0.0
C590 C 0.99177 0.69984 0.4498 0.0
C591 C 0.98732 0.69763 0.47696 0.0
C592 C 1.00815 0.71655 0.49377 0.0
C593 C 0.03332 0.73791 0.48343 0.0
C594 C 0.03794 0.74012 0.45628 0.0
C595 C 1.00428 0.8231 0.32072 0.0
C596 C 0.01974 0.85202 0.33177 0.0
C597 C 1.00607 0.79164 0.33342 0.0
C598 C 0.02439 0.78827 0.35696 0.0
C599 C 0.03942 0.81745 0.36815 0.0
C600 C 0.03688 0.84908 0.35577 0.0
C601 C 0.02783 0.75455 0.37007 0.0
C602 C 0.02098 0.75237 0.39708 0.0
C603 C 0.0378 0.72469 0.3563 0.0
C604 C 0.04801 0.72547 0.32828 0.0
C605 C 0.07418 0.74733 0.31972 0.0
C606 C 0.08348 0.74814 0.29325 0.0
C607 C 0.067 0.727 0.27519 0.0
C608 C 0.04124 0.70492 0.28357 0.0
C609 C 0.03181 0.70404 0.31002 0.0
H610 H 0.07423 0.72766 0.2547 0.0
H611 H 1.00478 0.71469 0.5148 0.0
loop_
_geom_bond_atom_site_label_1
_geom_bond_atom_site_label_2
_geom_bond_distance
_geom_bond_site_symmetry_2
_ccdc_geom_bond_type
H0 C6 0.930 . S
H1 C9 0.931 . S
H2 C11 0.928 1_565 S
H3 C13 0.930 . S
H4 C15 0.930 . S
H5 C17 0.931 1_565 S
C6 H0 0.930 . S
C6 C7 1.380 1_545 S
C6 C8 1.394 1_554 S
C7 C6 1.380 1_565 S
C7 C11 1.381 1_565 S
C8 C6 1.394 1_556 S
C8 C9 1.400 . S
C9 H1 0.931 . S
C9 C8 1.400 . S
C9 C10 1.375 1_556 S
C10 C9 1.375 1_554 S
C10 C11 1.420 . S
C10 C12 1.501 . S
C11 H2 0.928 1_545 S
C11 C7 1.381 1_545 S
C11 C10 1.420 . S
C12 C10 1.501 . S
C12 C13 1.384 . S
C12 C17 1.408 1_554 S
C13 H3 0.930 . S
C13 C12 1.384 . S
C13 C14 1.389 . S
C14 C13 1.389 . S
C14 C15 1.405 . S
C15 H4 0.930 . S
C15 C14 1.405 . S
C15 C16 1.368 1_554 S
C16 C15 1.368 1_556 S
C16 C17 1.401 . S
C17 H5 0.931 1_545 S
C17 C12 1.408 1_556 S
C17 C16 1.401 . S
H18 C24 0.930 . S
H19 C27 0.931 . S
H20 C29 0.931 . S
H21 C31 0.931 . S
H22 C33 0.930 . S
H23 C35 0.931 . S
C24 H18 0.930 . S
C24 C25 1.380 . S
C24 C26 1.399 . S
C25 C24 1.380 . S
C25 C29 1.382 . S
C26 C24 1.399 . S
C26 C27 1.398 1_455 S
C27 H19 0.931 . S
C27 C26 1.398 1_655 S
C27 C28 1.375 1_655 S
C28 C27 1.375 1_455 S
C28 C29 1.415 . S
C28 C30 1.501 . S
C29 H20 0.931 . S
C29 C25 1.382 . S
C29 C28 1.415 . S
C30 C28 1.501 . S
C30 C31 1.384 1_455 S
C30 C35 1.408 . S
C31 H21 0.931 . S
C31 C30 1.384 1_655 S
C31 C32 1.389 1_655 S
C32 C31 1.389 1_455 S
C32 C33 1.406 . S
C33 H22 0.930 . S
C33 C32 1.406 . S
C33 C34 1.364 . S
C34 C33 1.364 . S
C34 C35 1.400 . S
C35 H23 0.931 . S
C35 C30 1.408 . S
C35 C34 1.400 . S
Li36 N53 1.990 . S
Li36 O96 1.956 . S
Li36 O97 1.970 1_455 S
Li36 O98 1.961 . S
Li37 N61 1.990 . S
Li37 O96 1.970 1_565 S
Li37 O97 1.956 1_465 S
Li37 O99 1.961 . S
Li38 N83 1.990 . S
Li38 O96 1.961 . S
Li38 O98 1.956 . S
Li38 O99 1.970 1_545 S
Li39 N89 1.990 1_545 S
Li39 O97 1.961 . S
Li39 O98 1.970 1_655 S
Li39 O99 1.956 1_645 S
C40 C42 1.348 1_545 S
C40 C43 1.356 . S
C40 O96 1.325 . S
N41 C44 1.314 1_545 S
N41 C45 1.279 . S
C42 C40 1.348 1_565 S
C42 C44 1.353 . S
C42 H100 0.929 . S
C43 C40 1.356 . S
C43 C45 1.358 . S
C43 H101 0.930 . S
C44 N41 1.314 1_565 S
C44 C42 1.353 . S
C44 H102 0.930 . S
C45 N41 1.279 . S
C45 C43 1.358 . S
C45 H103 0.930 . S
C46 C49 1.348 . S
C46 C50 1.356 1_545 S
C46 O97 1.325 . S
C47 N48 1.279 . S
C47 C50 1.358 . S
C47 H104 0.930 . S
N48 C47 1.279 . S
N48 C51 1.314 1_565 S
C49 C46 1.348 . S
C49 C51 1.353 . S
C49 H105 0.929 . S
C50 C46 1.356 1_565 S
C50 C47 1.358 . S
C50 H106 0.930 . S
C51 N48 1.314 1_545 S
C51 C49 1.353 . S
C51 H107 0.930 . S
C52 N53 1.314 1_655 S
C52 C57 1.353 . S
C52 H58 0.930 . S
N53 Li36 1.990 . S
N53 C52 1.314 1_455 S
N53 C55 1.279 . S
C54 C55 1.358 . S
C54 C56 1.356 . S
C54 H108 0.930 . S
C55 N53 1.279 . S
C55 C54 1.358 . S
C55 H59 0.930 . S
C56 C54 1.356 . S
C56 C57 1.348 1_455 S
C57 C52 1.353 . S
C57 C56 1.348 1_655 S
C57 H109 0.929 . S
H58 C52 0.930 . S
H59 C55 0.930 . S
C60 N61 1.314 . S
C60 C62 1.353 . S
C60 H66 0.930 . S
N61 Li37 1.990 . S
N61 C60 1.314 . S
N61 C64 1.279 1_455 S
C62 C60 1.353 . S
C62 C65 1.348 . S
C62 H110 0.929 . S
C63 C64 1.358 . S
C63 C65 1.356 1_655 S
C63 H111 0.930 . S
C64 N61 1.279 1_655 S
C64 C63 1.358 . S
C64 H67 0.930 . S
C65 C62 1.348 . S
C65 C63 1.356 1_455 S
H66 C60 0.930 . S
H67 C64 0.930 . S
C68 C70 1.348 1_455 S
C68 C71 1.356 . S
C68 O98 1.325 . S
N69 C72 1.314 1_455 S
N69 C73 1.279 . S
C70 C68 1.348 1_655 S
C70 C72 1.353 . S
C70 H112 0.929 . S
C71 C68 1.356 . S
C71 C73 1.358 . S
C71 H113 0.930 . S
C72 N69 1.314 1_655 S
C72 C70 1.353 . S
C72 H114 0.930 . S
C73 N69 1.279 . S
C73 C71 1.358 . S
C73 H115 0.930 . S
C74 C75 1.348 . S
C74 C76 1.356 1_455 S
C74 O99 1.325 . S
C75 C74 1.348 . S
C75 C77 1.353 . S
C75 H116 0.929 . S
C76 C74 1.356 1_655 S
C76 C78 1.358 . S
C76 H117 0.930 . S
C77 C75 1.353 . S
C77 N79 1.314 . S
C77 H118 0.930 . S
C78 C76 1.358 . S
C78 N79 1.279 1_655 S
C78 H119 0.930 . S
N79 C77 1.314 . S
N79 C78 1.279 1_455 S
C80 C82 1.353 . S
C80 N83 1.314 1_565 S
C80 H86 0.930 . S
C81 N83 1.279 . S
C81 C84 1.358 . S
C81 H87 0.930 . S
C82 C80 1.353 . S
C82 C85 1.348 1_565 S
C82 H120 0.929 . S
N83 Li38 1.990 . S
N83 C80 1.314 1_545 S
N83 C81 1.279 . S
C84 C81 1.358 . S
C84 C85 1.356 . S
C84 H121 0.930 . S
C85 C82 1.348 1_545 S
C85 C84 1.356 . S
H86 C80 0.930 . S
H87 C81 0.930 . S
C88 N89 1.314 1_545 S
C88 C90 1.353 . S
C88 H94 0.930 . S
N89 Li39 1.990 1_565 S
N89 C88 1.314 1_565 S
N89 C92 1.279 . S
C90 C88 1.353 . S
C90 C93 1.348 . S
C90 H122 0.929 . S
C91 C92 1.358 . S
C91 C93 1.356 1_565 S
C91 H123 0.930 . S
C92 N89 1.279 . S
C92 C91 1.358 . S
C92 H95 0.930 . S
C93 C90 1.348 . S
C93 C91 1.356 1_545 S
H94 C88 0.930 . S
H95 C92 0.930 . S
O96 Li36 1.956 . S
O96 Li37 1.970 1_545 S
O96 Li38 1.961 . S
O96 C40 1.325 . S
O97 Li36 1.970 1_655 S
O97 Li37 1.956 1_645 S
O97 Li39 1.961 . S
O97 C46 1.325 . S
O98 Li36 1.961 . S
O98 Li38 1.956 . S
O98 Li39 1.970 1_455 S
O98 C68 1.325 . S
O99 Li37 1.961 . S
O99 Li38 1.970 1_565 S
O99 Li39 1.956 1_465 S
O99 C74 1.325 . S
H100 C42 0.929 . S
H101 C43 0.930 . S
H102 C44 0.930 . S
H103 C45 0.930 . S
H104 C47 0.930 . S
H105 C49 0.929 . S
H106 C50 0.930 . S
H107 C51 0.930 . S
H108 C54 0.930 . S
H109 C57 0.929 . S
H110 C62 0.929 . S
H111 C63 0.930 . S
H112 C70 0.929 . S
H113 C71 0.930 . S
H114 C72 0.930 . S
H115 C73 0.930 . S
H116 C75 0.929 . S
H117 C76 0.930 . S
H118 C77 0.930 . S
H119 C78 0.930 . S
H120 C82 0.929 . S
H121 C84 0.930 . S
H122 C90 0.929 . S
H123 C91 0.930 . S
Li124 N141 1.990 . S
Li124 O184 1.956 1_655 S
Li124 O185 1.970 1_645 S
Li124 O186 1.961 . S
Li125 N149 1.990 1_545 S
Li125 O184 1.970 . S
Li125 O185 1.956 1_545 S
Li125 O187 1.961 . S
Li126 N171 1.992 . S
Li126 O184 1.961 . S
Li126 O186 1.956 1_455 S
Li126 O187 1.970 . S
Li127 N177 1.990 . S
Li127 O185 1.961 . S
Li127 O186 1.970 1_465 S
Li127 O187 1.956 1_565 S
C128 C130 1.348 . S
C128 C131 1.356 1_455 S
C128 O184 1.325 . S
N129 C132 1.333 . S
N129 C133 1.262 1_455 S
C130 C128 1.348 . S
C130 C132 1.353 . S
C130 H188 0.929 . S
C131 C128 1.356 1_655 S
C131 C133 1.358 . S
C131 H189 0.930 . S
C132 N129 1.333 . S
C132 C130 1.353 . S
C132 H190 0.930 . S
C133 N129 1.262 1_655 S
C133 C131 1.358 . S
C133 H191 0.930 . S
C134 C137 1.348 1_455 S
C134 C138 1.356 . S
C134 O185 1.325 . S
C135 N136 1.279 . S
C135 C138 1.358 . S
C135 H192 0.930 . S
N136 C135 1.279 . S
N136 C139 1.314 1_455 S
C137 C134 1.348 1_655 S
C137 C139 1.353 . S
C137 H193 0.929 . S
C138 C134 1.356 . S
C138 C135 1.358 . S
C138 H194 0.930 . S
C139 N136 1.314 1_655 S
C139 C137 1.353 . S
C139 H195 0.930 . S
C140 N141 1.314 1_565 S
C140 C145 1.353 . S
C140 H146 0.930 . S
N141 Li124 1.990 . S
N141 C140 1.314 1_545 S
N141 C143 1.279 . S
C142 C143 1.358 . S
C142 C144 1.356 . S
C142 H196 0.930 . S
C143 N141 1.279 . S
C143 C142 1.358 . S
C143 H147 0.930 . S
C144 C142 1.356 . S
C144 C145 1.348 1_545 S
C145 C140 1.353 . S
C145 C144 1.348 1_565 S
C145 H197 0.929 . S
H146 C140 0.930 . S
H147 C143 0.930 . S
C148 N149 1.314 1_545 S
C148 C150 1.353 . S
C148 H154 0.930 . S
N149 Li125 1.990 1_565 S
N149 C148 1.314 1_565 S
N149 C152 1.279 . S
C150 C148 1.353 . S
C150 C153 1.348 . S
C150 H198 0.929 . S
C151 C152 1.358 . S
C151 C153 1.356 1_565 S
C151 H199 0.930 . S
C152 N149 1.279 . S
C152 C151 1.358 . S
C152 H155 0.930 . S
C153 C150 1.348 . S
C153 C151 1.356 1_545 S
H154 C148 0.930 . S
H155 C152 0.930 . S
C156 C158 1.348 1_545 S
C156 C159 1.356 . S
C156 O186 1.325 . S
N157 C160 1.314 1_545 S
N157 C161 1.279 . S
C158 C156 1.348 1_565 S
C158 C160 1.353 . S
C158 H200 0.929 . S
C159 C156 1.356 . S
C159 C161 1.358 . S
C159 H201 0.930 . S
C160 N157 1.314 1_565 S
C160 C158 1.353 . S
C160 H202 0.930 . S
C161 N157 1.279 . S
C161 C159 1.358 . S
C161 H203 0.930 . S
C162 C163 1.348 . S
C162 C164 1.356 1_545 S
C162 O187 1.325 . S
C163 C162 1.348 . S
C163 C165 1.353 . S
C163 H204 0.929 . S
C164 C162 1.356 1_565 S
C164 C166 1.358 . S
C164 H205 0.930 . S
C165 C163 1.353 . S
C165 N167 1.314 1_545 S
C165 H206 0.930 . S
C166 C164 1.358 . S
C166 N167 1.279 . S
C166 H207 0.930 . S
N167 C165 1.314 1_565 S
N167 C166 1.279 . S
C168 C170 1.353 . S
C168 N171 1.334 . S
C168 H174 0.930 . S
C169 N171 1.262 1_655 S
C169 C172 1.358 . S
C169 H175 0.930 . S
C170 C168 1.353 . S
C170 C173 1.348 . S
C170 H208 0.929 . S
N171 Li126 1.992 . S
N171 C168 1.334 . S
N171 C169 1.262 1_455 S
C172 C169 1.358 . S
C172 C173 1.356 1_655 S
C172 H209 0.930 . S
C173 C170 1.348 . S
C173 C172 1.356 1_455 S
H174 C168 0.930 . S
H175 C169 0.930 . S
C176 N177 1.314 1_655 S
C176 C178 1.353 . S
C176 H182 0.930 . S
N177 Li127 1.990 . S
N177 C176 1.314 1_455 S
N177 C180 1.279 . S
C178 C176 1.353 . S
C178 C181 1.348 1_655 S
C178 H210 0.929 . S
C179 C180 1.358 . S
C179 C181 1.356 . S
C179 H211 0.930 . S
C180 N177 1.279 . S
C180 C179 1.358 . S
C180 H183 0.930 . S
C181 C178 1.348 1_455 S
C181 C179 1.356 . S
H182 C176 0.930 . S
H183 C180 0.930 . S
O184 Li124 1.956 1_455 S
O184 Li125 1.970 . S
O184 Li126 1.961 . S
O184 C128 1.325 . S
O185 Li124 1.970 1_465 S
O185 Li125 1.956 1_565 S
O185 Li127 1.961 . S
O185 C134 1.325 . S
O186 Li124 1.961 . S
O186 Li126 1.956 1_655 S
O186 Li127 1.970 1_645 S
O186 C156 1.325 . S
O187 Li125 1.961 . S
O187 Li126 1.970 . S
O187 Li127 1.956 1_545 S
O187 C162 1.325 . S
H188 C130 0.929 . S
H189 C131 0.930 . S
H190 C132 0.930 . S
H191 C133 0.930 . S
H192 C135 0.930 . S
H193 C137 0.929 . S
H194 C138 0.930 . S
H195 C139 0.930 . S
H196 C142 0.930 . S
H197 C145 0.929 . S
H198 C150 0.929 . S
H199 C151 0.930 . S
H200 C158 0.929 . S
H201 C159 0.930 . S
H202 C160 0.930 . S
H203 C161 0.930 . S
H204 C163 0.929 . S
H205 C164 0.930 . S
H206 C165 0.930 . S
H207 C166 0.930 . S
H208 C170 0.929 . S
H209 C172 0.930 . S
H210 C178 0.929 . S
H211 C179 0.930 . S
H212 C230 0.951 . S
H213 C232 0.951 . S
H214 C234 0.950 . S
H215 C235 0.950 . S
H216 C237 0.950 . S
H217 C240 0.950 . S
H218 C241 0.950 . S
H219 C243 0.950 1_545 S
H220 C244 0.950 . S
H221 C245 0.951 . S
H222 C247 0.951 . S
H223 C249 0.950 . S
H224 C250 0.950 . S
H225 C252 0.950 . S
H226 C255 0.950 . S
H227 C256 0.950 . S
H228 C258 0.950 1_565 S
H229 C259 0.950 . S
C230 H212 0.951 . S
C230 C231 1.366 1_545 S
C230 C232 1.388 . S
C231 C230 1.366 1_565 S
C231 C235 1.385 . S
C232 H213 0.951 . S
C232 C230 1.388 . S
C232 C233 1.366 1_545 S
C233 C232 1.366 1_565 S
C233 C234 1.414 . S
C233 C236 1.499 . S
C234 H214 0.950 . S
C234 C233 1.414 . S
C234 C235 1.374 . S
C235 H215 0.950 . S
C235 C231 1.385 . S
C235 C234 1.374 . S
C236 C233 1.499 . S
C236 C237 1.373 1_565 S
C236 C238 1.389 . S
C237 H216 0.950 . S
C237 C236 1.373 1_545 S
C237 C253 1.377 . S
C238 C236 1.389 . S
C238 C239 1.524 . S
C238 C252 1.377 . S
C239 C238 1.524 . S
C239 C240 1.397 . S
C239 C244 1.363 1_565 S
C240 H217 0.950 . S
C240 C239 1.397 . S
C240 C241 1.334 . S
C241 H218 0.950 . S
C241 C240 1.334 . S
C241 C242 1.287 . S
C242 C241 1.287 . S
C242 C243 1.524 . S
C242 H261 0.913 . S
C243 H219 0.950 1_565 S
C243 C242 1.524 . S
C243 C244 1.415 1_565 S
C244 H220 0.950 . S
C244 C239 1.363 1_545 S
C244 C243 1.415 1_545 S
C245 H221 0.951 . S
C245 C246 1.366 1_565 S
C245 C247 1.388 . S
C246 C245 1.366 1_545 S
C246 C250 1.385 . S
C247 H222 0.951 . S
C247 C245 1.388 . S
C247 C248 1.366 1_565 S
C248 C247 1.366 1_545 S
C248 C249 1.414 . S
C248 C251 1.499 . S
C249 H223 0.950 . S
C249 C248 1.414 . S
C249 C250 1.374 . S
C250 H224 0.950 . S
C250 C246 1.385 . S
C250 C249 1.374 . S
C251 C248 1.499 . S
C251 C252 1.373 1_545 S
C251 C253 1.389 . S
C252 H225 0.950 . S
C252 C238 1.377 . S
C252 C251 1.373 1_565 S
C253 C237 1.377 . S
C253 C251 1.389 . S
C253 C254 1.524 . S
C254 C253 1.524 . S
C254 C255 1.397 . S
C254 C259 1.363 1_545 S
C255 H226 0.950 . S
C255 C254 1.397 . S
C255 C256 1.334 . S
C256 H227 0.950 . S
C256 C255 1.334 . S
C256 C257 1.287 . S
C257 C256 1.287 . S
C257 C258 1.524 . S
C257 H260 0.999 . S
C258 H228 0.950 1_545 S
C258 C257 1.524 . S
C258 C259 1.415 1_545 S
C259 H229 0.950 . S
C259 C254 1.363 1_565 S
C259 C258 1.415 1_565 S
H260 C257 0.999 . S
H261 C242 0.913 . S
H262 C280 0.951 . S
H263 C282 0.951 . S
H264 C284 0.950 . S
H265 C285 0.950 . S
H266 C287 0.950 . S
H267 C290 0.950 . S
H268 C291 0.950 . S
H269 C293 0.950 . S
H270 C294 0.950 1_455 S
H271 C295 0.951 . S
H272 C297 0.951 . S
H273 C299 0.950 . S
H274 C300 0.950 . S
H275 C302 0.959 . S
H276 C305 0.950 . S
H277 C306 0.950 . S
H278 C308 0.950 . S
H279 C309 0.950 . S
C280 H262 0.951 . S
C280 C281 1.366 . S
C280 C282 1.388 . S
C281 C280 1.366 . S
C281 C285 1.385 1_455 S
C282 H263 0.951 . S
C282 C280 1.388 . S
C282 C283 1.366 . S
C283 C282 1.366 . S
C283 C284 1.414 1_455 S
C283 C286 1.499 . S
C284 H264 0.950 . S
C284 C283 1.414 1_655 S
C284 C285 1.374 . S
C285 H265 0.950 . S
C285 C281 1.385 1_655 S
C285 C284 1.374 . S
C286 C283 1.499 . S
C286 C287 1.373 . S
C286 C288 1.389 1_455 S
C287 H266 0.950 . S
C287 C286 1.373 . S
C287 C303 1.377 . S
C288 C286 1.389 1_655 S
C288 C289 1.524 . S
C288 C302 1.379 . S
C289 C288 1.524 . S
C289 C290 1.397 . S
C289 C294 1.363 . S
C290 H267 0.950 . S
C290 C289 1.397 . S
C290 C291 1.334 . S
C291 H268 0.950 . S
C291 C290 1.334 . S
C291 C292 1.287 . S
C292 C291 1.287 . S
C292 C293 1.524 . S
C292 H311 0.913 . S
C293 H269 0.950 . S
C293 C292 1.524 . S
C293 C294 1.415 . S
C294 H270 0.950 1_655 S
C294 C289 1.363 . S
C294 C293 1.415 . S
C295 H271 0.951 . S
C295 C296 1.366 1_655 S
C295 C297 1.388 . S
C296 C295 1.366 1_455 S
C296 C300 1.385 . S
C297 H272 0.951 . S
C297 C295 1.388 . S
C297 C298 1.366 1_655 S
C298 C297 1.366 1_455 S
C298 C299 1.414 . S
C298 C301 1.499 . S
C299 H273 0.950 . S
C299 C298 1.414 . S
C299 C300 1.374 . S
C300 H274 0.950 . S
C300 C296 1.385 . S
C300 C299 1.374 . S
C301 C298 1.499 . S
C301 C302 1.363 1_455 S
C301 C303 1.389 . S
C302 H275 0.959 . S
C302 C288 1.379 . S
C302 C301 1.363 1_655 S
C303 C287 1.377 . S
C303 C301 1.389 . S
C303 C304 1.524 . S
C304 C303 1.524 . S
C304 C305 1.397 . S
C304 C309 1.363 . S
C305 H276 0.950 . S
C305 C304 1.397 . S
C305 C306 1.334 . S
C306 H277 0.950 . S
C306 C305 1.334 . S
C306 C307 1.287 . S
C307 C306 1.287 . S
C307 C308 1.524 . S
C307 H310 0.999 . S
C308 H278 0.950 . S
C308 C307 1.524 . S
C308 C309 1.415 . S
C309 H279 0.950 . S
C309 C304 1.363 . S
C309 C308 1.415 . S
H310 C307 0.999 . S
H311 C292 0.913 . S
H312 C330 0.951 . S
H313 C332 0.951 . S
H314 C334 0.950 . S
H315 C335 0.950 . S
H316 C337 0.950 . S
H317 C340 0.950 . S
H318 C341 0.950 . S
H319 C343 0.950 . S
H320 C344 0.950 . S
H321 C345 0.951 . S
H322 C347 0.951 . S
H323 C349 0.950 . S
H324 C350 0.950 . S
H325 C352 0.950 . S
H326 C355 0.950 . S
H327 C356 0.950 . S
H328 C358 0.950 . S
H329 C359 0.950 . S
C330 H312 0.951 . S
C330 C331 1.366 1_565 S
C330 C332 1.388 . S
C331 C330 1.366 1_545 S
C331 C335 1.385 . S
C332 H313 0.951 . S
C332 C330 1.388 . S
C332 C333 1.366 1_565 S
C333 C332 1.366 1_545 S
C333 C334 1.414 . S
C333 C336 1.499 . S
C334 H314 0.950 . S
C334 C333 1.414 . S
C334 C335 1.374 . S
C335 H315 0.950 . S
C335 C331 1.385 . S
C335 C334 1.374 . S
C336 C333 1.499 . S
C336 C337 1.373 . S
C336 C338 1.389 1_545 S
C337 H316 0.950 . S
C337 C336 1.373 . S
C337 C353 1.377 . S
C338 C336 1.389 1_565 S
C338 C339 1.524 . S
C338 C352 1.377 . S
C339 C338 1.524 . S
C339 C340 1.397 . S
C339 C344 1.363 . S
C340 H317 0.950 . S
C340 C339 1.397 . S
C340 C341 1.334 . S
C341 H318 0.950 . S
C341 C340 1.334 . S
C341 C342 1.287 . S
C342 C341 1.287 . S
C342 C343 1.524 . S
C342 H361 0.913 . S
C343 H319 0.950 . S
C343 C342 1.524 . S
C343 C344 1.415 . S
C344 H320 0.950 . S
C344 C339 1.363 . S
C344 C343 1.415 . S
C345 H321 0.951 . S
C345 C346 1.366 . S
C345 C347 1.388 . S
C346 C345 1.366 . S
C346 C350 1.385 1_545 S
C347 H322 0.951 . S
C347 C345 1.388 . S
C347 C348 1.366 . S
C348 C347 1.366 . S
C348 C349 1.414 1_545 S
C348 C351 1.499 . S
C349 H323 0.950 . S
C349 C348 1.414 1_565 S
C349 C350 1.374 . S
C350 H324 0.950 . S
C350 C346 1.385 1_565 S
C350 C349 1.374 . S
C351 C348 1.499 . S
C351 C352 1.373 1_545 S
C351 C353 1.389 . S
C352 H325 0.950 . S
C352 C338 1.377 . S
C352 C351 1.373 1_565 S
C353 C337 1.377 . S
C353 C351 1.389 . S
C353 C354 1.524 . S
C354 C353 1.524 . S
C354 C355 1.397 . S
C354 C359 1.363 . S
C355 H326 0.950 . S
C355 C354 1.397 . S
C355 C356 1.334 . S
C356 H327 0.950 . S
C356 C355 1.334 . S
C356 C357 1.287 . S
C357 C356 1.287 . S
C357 C358 1.524 . S
C357 H360 0.999 . S
C358 H328 0.950 . S
C358 C357 1.524 . S
C358 C359 1.415 . S
C359 H329 0.950 . S
C359 C354 1.363 . S
C359 C358 1.415 . S
H360 C357 0.999 . S
H361 C342 0.913 . S
H362 C380 0.951 . S
H363 C382 0.951 . S
H364 C384 0.950 . S
H365 C385 0.950 . S
H366 C387 0.950 . S
H367 C390 0.950 . S
H368 C391 0.950 . S
H369 C393 0.950 . S
H370 C394 0.950 . S
H371 C395 0.951 . S
H372 C397 0.951 . S
H373 C399 0.950 . S
H374 C400 0.950 . S
H375 C402 0.950 . S
H376 C405 0.950 . S
H377 C406 0.950 . S
H378 C408 0.950 . S
H379 C409 0.950 . S
C380 H362 0.951 . S
C380 C381 1.369 . S
C380 C382 1.388 . S
C381 C380 1.369 . S
C381 C385 1.382 1_455 S
C382 H363 0.951 . S
C382 C380 1.388 . S
C382 C383 1.366 . S
C383 C382 1.366 . S
C383 C384 1.414 1_455 S
C383 C386 1.499 . S
C384 H364 0.950 . S
C384 C383 1.414 1_655 S
C384 C385 1.374 . S
C385 H365 0.950 . S
C385 C381 1.382 1_655 S
C385 C384 1.374 . S
C386 C383 1.499 . S
C386 C387 1.373 1_455 S
C386 C388 1.389 . S
C387 H366 0.950 . S
C387 C386 1.373 1_655 S
C387 C403 1.377 . S
C388 C386 1.389 . S
C388 C389 1.524 . S
C388 C402 1.377 . S
C389 C388 1.524 . S
C389 C390 1.397 . S
C389 C394 1.363 . S
C390 H367 0.950 . S
C390 C389 1.397 . S
C390 C391 1.334 . S
C391 H368 0.950 . S
C391 C390 1.334 . S
C391 C392 1.287 . S
C392 C391 1.287 . S
C392 C393 1.524 . S
C392 H411 0.913 . S
C393 H369 0.950 . S
C393 C392 1.524 . S
C393 C394 1.415 . S
C394 H370 0.950 . S
C394 C389 1.363 . S
C394 C393 1.415 . S
C395 H371 0.951 . S
C395 C396 1.366 1_655 S
C395 C397 1.388 . S
C396 C395 1.366 1_455 S
C396 C400 1.385 . S
C397 H372 0.951 . S
C397 C395 1.388 . S
C397 C398 1.366 1_655 S
C398 C397 1.366 1_455 S
C398 C399 1.414 . S
C398 C401 1.499 . S
C399 H373 0.950 . S
C399 C398 1.414 . S
C399 C400 1.374 . S
C400 H374 0.950 . S
C400 C396 1.385 . S
C400 C399 1.374 . S
C401 C398 1.499 . S
C401 C402 1.401 . S
C401 C403 1.363 1_455 S
C402 H375 0.950 . S
C402 C388 1.377 . S
C402 C401 1.401 . S
C403 C387 1.377 . S
C403 C401 1.363 1_655 S
C403 C404 1.524 . S
C404 C403 1.524 . S
C404 C405 1.397 . S
C404 C409 1.363 . S
C405 H376 0.950 . S
C405 C404 1.397 . S
C405 C406 1.334 . S
C406 H377 0.950 . S
C406 C405 1.334 . S
C406 C407 1.287 . S
C407 C406 1.287 . S
C407 C408 1.524 . S
C407 H410 0.999 . S
C408 H378 0.950 . S
C408 C407 1.524 . S
C408 C409 1.415 . S
C409 H379 0.950 . S
C409 C404 1.363 . S
C409 C408 1.415 . S
H410 C407 0.999 . S
H411 C392 0.913 . S
H412 C430 0.951 . S
H413 C432 0.951 . S
H414 C434 0.950 . S
H415 C435 0.950 . S
H416 C437 0.950 . S
H417 C440 0.950 . S
H418 C441 0.950 . S
H419 C443 0.950 1_565 S
H420 C444 0.950 . S
H421 C445 0.951 . S
H422 C447 0.951 . S
H423 C449 0.950 . S
H424 C450 0.950 . S
H425 C452 0.950 . S
H426 C455 0.950 . S
H427 C456 0.950 . S
H428 C458 0.950 . S
H429 C459 0.950 . S
C430 H412 0.951 . S
C430 C431 1.366 1_565 S
C430 C432 1.388 . S
C431 C430 1.366 1_545 S
C431 C435 1.385 . S
C432 H413 0.951 . S
C432 C430 1.388 . S
C432 C433 1.366 1_565 S
C433 C432 1.366 1_545 S
C433 C434 1.414 . S
C433 C436 1.499 . S
C434 H414 0.950 . S
C434 C433 1.414 . S
C434 C435 1.374 . S
C435 H415 0.950 . S
C435 C431 1.385 . S
C435 C434 1.374 . S
C436 C433 1.499 . S
C436 C437 1.373 . S
C436 C438 1.389 . S
C437 H416 0.950 . S
C437 C436 1.373 . S
C437 C453 1.377 . S
C438 C436 1.389 . S
C438 C439 1.524 . S
C438 C452 1.377 . S
C439 C438 1.524 . S
C439 C440 1.397 . S
C439 C444 1.363 1_545 S
C440 H417 0.950 . S
C440 C439 1.397 . S
C440 C441 1.334 . S
C441 H418 0.950 . S
C441 C440 1.334 . S
C441 C442 1.287 . S
C442 C441 1.287 . S
C442 C443 1.524 . S
C442 H461 0.913 . S
C443 H419 0.950 1_545 S
C443 C442 1.524 . S
C443 C444 1.415 1_545 S
C444 H420 0.950 . S
C444 C439 1.363 1_565 S
C444 C443 1.415 1_565 S
C445 H421 0.951 . S
C445 C446 1.366 . S
C445 C447 1.388 . S
C446 C445 1.366 . S
C446 C450 1.385 1_545 S
C447 H422 0.951 . S
C447 C445 1.388 . S
C447 C448 1.366 . S
C448 C447 1.366 . S
C448 C449 1.414 1_545 S
C448 C451 1.499 . S
C449 H423 0.950 . S
C449 C448 1.414 1_565 S
C449 C450 1.374 . S
C450 H424 0.950 . S
C450 C446 1.385 1_565 S
C450 C449 1.374 . S
C451 C448 1.499 . S
C451 C452 1.373 . S
C451 C453 1.389 . S
C452 H425 0.950 . S
C452 C438 1.377 . S
C452 C451 1.373 . S
C453 C437 1.377 . S
C453 C451 1.389 . S
C453 C454 1.524 1_545 S
C454 C453 1.524 1_565 S
C454 C455 1.397 . S
C454 C459 1.363 1_565 S
C455 H426 0.950 . S
C455 C454 1.397 . S
C455 C456 1.334 . S
C456 H427 0.950 . S
C456 C455 1.334 . S
C456 C457 1.287 . S
C457 C456 1.287 . S
C457 C458 1.524 1_565 S
C457 H460 0.999 . S
C458 H428 0.950 . S
C458 C457 1.524 1_545 S
C458 C459 1.415 . S
C459 H429 0.950 . S
C459 C454 1.363 1_545 S
C459 C458 1.415 . S
H460 C457 0.999 . S
H461 C442 0.913 . S
H462 C480 0.951 . S
H463 C482 0.951 . S
H464 C484 0.950 . S
H465 C485 0.950 . S
H466 C487 0.950 . S
H467 C490 0.950 . S
H468 C491 0.950 . S
H469 C493 0.950 . S
H470 C494 0.950 . S
H471 C495 0.951 . S
H472 C497 0.951 . S
H473 C499 0.950 . S
H474 C500 0.950 . S
H475 C502 0.950 . S
H476 C505 0.950 . S
H477 C506 0.950 . S
H478 C508 0.950 . S
H479 C509 0.950 . S
C480 H462 0.951 . S
C480 C481 1.378 . S
C480 C482 1.388 . S
C481 C480 1.378 . S
C481 C485 1.372 1_455 S
C482 H463 0.951 . S
C482 C480 1.388 . S
C482 C483 1.365 . S
C483 C482 1.365 . S
C483 C484 1.414 1_455 S
C483 C486 1.499 1_455 S
C484 H464 0.950 . S
C484 C483 1.414 1_655 S
C484 C485 1.374 . S
C485 H465 0.950 . S
C485 C481 1.372 1_655 S
C485 C484 1.374 . S
C486 C483 1.499 1_655 S
C486 C487 1.373 1_655 S
C486 C488 1.389 . S
C487 H466 0.950 . S
C487 C486 1.373 1_455 S
C487 C503 1.377 . S
C488 C486 1.389 . S
C488 C489 1.530 . S
C488 C502 1.374 1_655 S
C489 C488 1.530 . S
C489 C490 1.397 . S
C489 C494 1.363 1_655 S
C490 H467 0.950 . S
C490 C489 1.397 . S
C490 C491 1.334 . S
C491 H468 0.950 . S
C491 C490 1.334 . S
C491 C492 1.287 . S
C492 C491 1.287 . S
C492 C493 1.524 1_655 S
C492 H511 0.913 . S
C493 H469 0.950 . S
C493 C492 1.524 1_455 S
C493 C494 1.415 . S
C494 H470 0.950 . S
C494 C489 1.363 1_455 S
C494 C493 1.415 . S
C495 H471 0.951 . S
C495 C496 1.366 1_655 S
C495 C497 1.388 . S
C496 C495 1.366 1_455 S
C496 C500 1.385 . S
C497 H472 0.951 . S
C497 C495 1.388 . S
C497 C498 1.366 1_655 S
C498 C497 1.366 1_455 S
C498 C499 1.414 . S
C498 C501 1.499 . S
C499 H473 0.950 . S
C499 C498 1.414 . S
C499 C500 1.374 . S
C500 H474 0.950 . S
C500 C496 1.385 . S
C500 C499 1.374 . S
C501 C498 1.499 . S
C501 C502 1.373 . S
C501 C503 1.389 . S
C502 H475 0.950 . S
C502 C488 1.374 1_455 S
C502 C501 1.373 . S
C503 C487 1.377 . S
C503 C501 1.389 . S
C503 C504 1.524 . S
C504 C503 1.524 . S
C504 C505 1.397 . S
C504 C509 1.363 1_455 S
C505 H476 0.950 . S
C505 C504 1.397 . S
C505 C506 1.334 . S
C506 H477 0.950 . S
C506 C505 1.334 . S
C506 C507 1.287 . S
C507 C506 1.287 . S
C507 C508 1.524 1_455 S
C507 H510 0.999 . S
C508 H478 0.950 . S
C508 C507 1.524 1_655 S
C508 C509 1.415 . S
C509 H479 0.950 . S
C509 C504 1.363 1_655 S
C509 C508 1.415 . S
H510 C507 0.999 . S
H511 C492 0.913 . S
H512 C530 0.951 . S
H513 C532 0.951 . S
H514 C534 0.950 . S
H515 C535 0.950 . S
H516 C537 0.950 . S
H517 C540 0.950 . S
H518 C541 0.950 . S
H519 C543 0.950 . S
H520 C544 0.950 . S
H521 C545 0.951 . S
H522 C547 0.951 . S
H523 C549 0.950 . S
H524 C550 0.950 . S
H525 C552 0.950 . S
H526 C555 0.950 . S
H527 C556 0.950 . S
H528 C558 0.950 . S
H529 C559 0.950 . S
C530 H512 0.951 . S
C530 C531 1.366 1_545 S
C530 C532 1.388 . S
C531 C530 1.366 1_565 S
C531 C535 1.385 . S
C532 H513 0.951 . S
C532 C530 1.388 . S
C532 C533 1.368 . S
C533 C532 1.368 . S
C533 C534 1.411 1_545 S
C533 C536 1.499 . S
C534 H514 0.950 . S
C534 C533 1.411 1_565 S
C534 C535 1.374 . S
C535 H515 0.950 . S
C535 C531 1.385 . S
C535 C534 1.374 . S
C536 C533 1.499 . S
C536 C537 1.373 1_545 S
C536 C538 1.389 . S
C537 H516 0.950 . S
C537 C536 1.373 1_565 S
C537 C553 1.377 . S
C538 C536 1.389 . S
C538 C539 1.524 . S
C538 C552 1.377 . S
C539 C538 1.524 . S
C539 C540 1.397 . S
C539 C544 1.363 . S
C540 H517 0.950 . S
C540 C539 1.397 . S
C540 C541 1.334 . S
C541 H518 0.950 . S
C541 C540 1.334 . S
C541 C542 1.287 . S
C542 C541 1.287 . S
C542 C543 1.524 . S
C542 H561 0.913 . S
C543 H519 0.950 . S
C543 C542 1.524 . S
C543 C544 1.415 . S
C544 H520 0.950 . S
C544 C539 1.363 . S
C544 C543 1.415 . S
C545 H521 0.951 . S
C545 C546 1.366 1_565 S
C545 C547 1.388 . S
C546 C545 1.366 1_545 S
C546 C550 1.385 . S
C547 H522 0.951 . S
C547 C545 1.388 . S
C547 C548 1.368 . S
C548 C547 1.368 . S
C548 C549 1.410 1_565 S
C548 C551 1.499 . S
C549 H523 0.950 . S
C549 C548 1.410 1_545 S
C549 C550 1.374 . S
C550 H524 0.950 . S
C550 C546 1.385 . S
C550 C549 1.374 . S
C551 C548 1.499 . S
C551 C552 1.373 1_565 S
C551 C553 1.389 . S
C552 H525 0.950 . S
C552 C538 1.377 . S
C552 C551 1.373 1_545 S
C553 C537 1.377 . S
C553 C551 1.389 . S
C553 C554 1.524 . S
C554 C553 1.524 . S
C554 C555 1.397 . S
C554 C559 1.363 . S
C555 H526 0.950 . S
C555 C554 1.397 . S
C555 C556 1.334 . S
C556 H527 0.950 . S
C556 C555 1.334 . S
C556 C557 1.287 . S
C557 C556 1.287 . S
C557 C558 1.524 . S
C557 H560 0.999 . S
C558 H528 0.950 . S
C558 C557 1.524 . S
C558 C559 1.415 . S
C559 H529 0.950 . S
C559 C554 1.363 . S
C559 C558 1.415 . S
H560 C557 0.999 . S
H561 C542 0.913 . S
H562 C580 0.951 . S
H563 C582 0.951 . S
H564 C584 0.950 . S
H565 C585 0.950 . S
H566 C587 0.950 . S
H567 C590 0.950 . S
H568 C591 0.950 . S
H569 C593 0.950 . S
H570 C594 0.950 1_455 S
H571 C595 0.951 . S
H572 C597 0.951 . S
H573 C599 0.950 . S
H574 C600 0.950 . S
H575 C602 0.950 . S
H576 C605 0.950 . S
H577 C606 0.950 . S
H578 C608 0.950 . S
H579 C609 0.948 1_655 S
C580 H562 0.951 . S
C580 C581 1.366 . S
C580 C582 1.388 . S
C581 C580 1.366 . S
C581 C585 1.385 1_455 S
C582 H563 0.951 . S
C582 C580 1.388 . S
C582 C583 1.366 . S
C583 C582 1.366 . S
C583 C584 1.414 1_455 S
C583 C586 1.499 . S
C584 H564 0.950 . S
C584 C583 1.414 1_655 S
C584 C585 1.374 . S
C585 H565 0.950 . S
C585 C581 1.385 1_655 S
C585 C584 1.374 . S
C586 C583 1.499 . S
C586 C587 1.373 . S
C586 C588 1.389 1_455 S
C587 H566 0.950 . S
C587 C586 1.373 . S
C587 C603 1.377 . S
C588 C586 1.389 1_655 S
C588 C589 1.524 . S
C588 C602 1.376 . S
C589 C588 1.524 . S
C589 C590 1.397 . S
C589 C594 1.363 . S
C590 H567 0.950 . S
C590 C589 1.397 . S
C590 C591 1.334 . S
C591 H568 0.950 . S
C591 C590 1.334 . S
C591 C592 1.287 . S
C592 C591 1.287 . S
C592 C593 1.524 . S
C592 H611 0.913 . S
C593 H569 0.950 . S
C593 C592 1.524 . S
C593 C594 1.415 . S
C594 H570 0.950 1_655 S
C594 C589 1.363 . S
C594 C593 1.415 . S
C595 H571 0.951 . S
C595 C596 1.366 1_655 S
C595 C597 1.388 . S
C596 C595 1.366 1_455 S
C596 C600 1.385 . S
C597 H572 0.951 . S
C597 C595 1.388 . S
C597 C598 1.366 1_655 S
C598 C597 1.366 1_455 S
C598 C599 1.414 . S
C598 C601 1.499 . S
C599 H573 0.950 . S
C599 C598 1.414 . S
C599 C600 1.374 . S
C600 H574 0.950 . S
C600 C596 1.385 . S
C600 C599 1.374 . S
C601 C598 1.499 . S
C601 C602 1.374 1_455 S
C601 C603 1.389 . S
C602 H575 0.950 . S
C602 C588 1.376 . S
C602 C601 1.374 1_655 S
C603 C587 1.377 . S
C603 C601 1.389 . S
C603 C604 1.524 . S
C604 C603 1.524 . S
C604 C605 1.397 . S
C604 C609 1.363 . S
C605 H576 0.950 . S
C605 C604 1.397 . S
C605 C606 1.334 . S
C606 H577 0.950 . S
C606 C605 1.334 . S
C606 C607 1.287 . S
C607 C606 1.287 . S
C607 C608 1.524 . S
C607 H610 0.999 . S
C608 H578 0.950 . S
C608 C607 1.524 . S
C608 C609 1.415 . S
C609 H579 0.948 1_455 S
C609 C604 1.363 . S
C609 C608 1.415 . S
H610 C607 0.999 . S
H611 C592 0.913 . S
C246 C85 1.561 . S
C231 C7 1.507 . S
C296 C173 1.557 . S
C281 C34 1.504 . S
C346 C93 1.565 . S
C331 C14 1.515 . S
C396 C181 1.553 . S
C381 C26 1.506 . S
C446 C153 1.553 . S
C431 C8 1.506 . S
C496 C56 1.565 . S
C481 C32 1.515 . S
C546 C144 1.557 . S
C531 C16 1.502 1_565 S
C581 C25 1.508 . S
C596 C65 1.561 . S
