# Generated by pormake.
# Topology eea, (3,6)-cn, num edge types: 1
# Building blocks:
#     Node 0, Type 0, BuildingBlock: VETTIZ_charged_linker_0, # of connection points: 3
#     Node 1, Type 0, BuildingBlock: VETTIZ_charged_linker_0, # of connection points: 3
#     Node 2, Type 0, BuildingBlock: VETTIZ_charged_linker_0, # of connection points: 3
#     Node 3, Type 0, BuildingBlock: VETTIZ_charged_linker_0, # of connection points: 3
#     Node 4, Type 0, BuildingBlock: VETTIZ_charged_linker_0, # of connection points: 3
#     Node 5, Type 0, BuildingBlock: VETTIZ_charged_linker_0, # of connection points: 3
#     Node 6, Type 0, BuildingBlock: VETTIZ_charged_linker_0, # of connection points: 3
#     Node 7, Type 0, BuildingBlock: VETTIZ_charged_linker_0, # of connection points: 3
#     Node 8, Type 0, BuildingBlock: VETTIZ_charged_linker_0, # of connection points: 3
#     Node 9, Type 0, BuildingBlock: VETTIZ_charged_linker_0, # of connection points: 3
#     Node 10, Type 0, BuildingBlock: VETTIZ_charged_linker_0, # of connection points: 3
#     Node 11, Type 0, BuildingBlock: VETTIZ_charged_linker_0, # of connection points: 3
#     Node 12, Type 0, BuildingBlock: VETTIZ_charged_linker_0, # of connection points: 3
#     Node 13, Type 0, BuildingBlock: VETTIZ_charged_linker_0, # of connection points: 3
#     Node 14, Type 0, BuildingBlock: VETTIZ_charged_linker_0, # of connection points: 3
#     Node 15, Type 0, BuildingBlock: VETTIZ_charged_linker_0, # of connection points: 3
#     Node 16, Type 0, BuildingBlock: VETTIZ_charged_linker_0, # of connection points: 3
#     Node 17, Type 0, BuildingBlock: VETTIZ_charged_linker_0, # of connection points: 3
#     Node 18, Type 1, BuildingBlock: LEVNOQ01_clean_sbu_1, # of connection points: 6
#     Node 19, Type 1, BuildingBlock: LEVNOQ01_clean_sbu_1, # of connection points: 6
#     Node 20, Type 1, BuildingBlock: LEVNOQ01_clean_sbu_1, # of connection points: 6
#     Node 21, Type 1, BuildingBlock: LEVNOQ01_clean_sbu_1, # of connection points: 6
#     Node 22, Type 1, BuildingBlock: LEVNOQ01_clean_sbu_1, # of connection points: 6
#     Node 23, Type 1, BuildingBlock: LEVNOQ01_clean_sbu_1, # of connection points: 6
#     Node 24, Type 1, BuildingBlock: LEVNOQ01_clean_sbu_1, # of connection points: 6
#     Node 25, Type 1, BuildingBlock: LEVNOQ01_clean_sbu_1, # of connection points: 6
#     Node 26, Type 1, BuildingBlock: LEVNOQ01_clean_sbu_1, # of connection points: 6
#     Edge 27, Type (0, 1), BuildingBlock: UVAHIK_clean_linker_0, # of connection points: 2
#     Edge 28, Type (0, 1), BuildingBlock: UVAHIK_clean_linker_0, # of connection points: 2
#     Edge 29, Type (0, 1), BuildingBlock: UVAHIK_clean_linker_0, # of connection points: 2
#     Edge 30, Type (0, 1), BuildingBlock: UVAHIK_clean_linker_0, # of connection points: 2
#     Edge 31, Type (0, 1), BuildingBlock: UVAHIK_clean_linker_0, # of connection points: 2
#     Edge 32, Type (0, 1), BuildingBlock: UVAHIK_clean_linker_0, # of connection points: 2
#     Edge 33, Type (0, 1), BuildingBlock: UVAHIK_clean_linker_0, # of connection points: 2
#     Edge 34, Type (0, 1), BuildingBlock: UVAHIK_clean_linker_0, # of connection points: 2
#     Edge 35, Type (0, 1), BuildingBlock: UVAHIK_clean_linker_0, # of connection points: 2
#     Edge 36, Type (0, 1), BuildingBlock: UVAHIK_clean_linker_0, # of connection points: 2
#     Edge 37, Type (0, 1), BuildingBlock: UVAHIK_clean_linker_0, # of connection points: 2
#     Edge 38, Type (0, 1), BuildingBlock: UVAHIK_clean_linker_0, # of connection points: 2
#     Edge 39, Type (0, 1), BuildingBlock: UVAHIK_clean_linker_0, # of connection points: 2
#     Edge 40, Type (0, 1), BuildingBlock: UVAHIK_clean_linker_0, # of connection points: 2
#     Edge 41, Type (0, 1), BuildingBlock: UVAHIK_clean_linker_0, # of connection points: 2
#     Edge 42, Type (0, 1), BuildingBlock: UVAHIK_clean_linker_0, # of connection points: 2
#     Edge 43, Type (0, 1), BuildingBlock: UVAHIK_clean_linker_0, # of connection points: 2
#     Edge 44, Type (0, 1), BuildingBlock: UVAHIK_clean_linker_0, # of connection points: 2
#     Edge 45, Type (0, 1), BuildingBlock: UVAHIK_clean_linker_0, # of connection points: 2
#     Edge 46, Type (0, 1), BuildingBlock: UVAHIK_clean_linker_0, # of connection points: 2
#     Edge 47, Type (0, 1), BuildingBlock: UVAHIK_clean_linker_0, # of connection points: 2
#     Edge 48, Type (0, 1), BuildingBlock: UVAHIK_clean_linker_0, # of connection points: 2
#     Edge 49, Type (0, 1), BuildingBlock: UVAHIK_clean_linker_0, # of connection points: 2
#     Edge 50, Type (0, 1), BuildingBlock: UVAHIK_clean_linker_0, # of connection points: 2
#     Edge 51, Type (0, 1), BuildingBlock: UVAHIK_clean_linker_0, # of connection points: 2
#     Edge 52, Type (0, 1), BuildingBlock: UVAHIK_clean_linker_0, # of connection points: 2
#     Edge 53, Type (0, 1), BuildingBlock: UVAHIK_clean_linker_0, # of connection points: 2
#     Edge 54, Type (0, 1), BuildingBlock: UVAHIK_clean_linker_0, # of connection points: 2
#     Edge 55, Type (0, 1), BuildingBlock: UVAHIK_clean_linker_0, # of connection points: 2
#     Edge 56, Type (0, 1), BuildingBlock: UVAHIK_clean_linker_0, # of connection points: 2
#     Edge 57, Type (0, 1), BuildingBlock: UVAHIK_clean_linker_0, # of connection points: 2
#     Edge 58, Type (0, 1), BuildingBlock: UVAHIK_clean_linker_0, # of connection points: 2
#     Edge 59, Type (0, 1), BuildingBlock: UVAHIK_clean_linker_0, # of connection points: 2
#     Edge 60, Type (0, 1), BuildingBlock: UVAHIK_clean_linker_0, # of connection points: 2
#     Edge 61, Type (0, 1), BuildingBlock: UVAHIK_clean_linker_0, # of connection points: 2
#     Edge 62, Type (0, 1), BuildingBlock: UVAHIK_clean_linker_0, # of connection points: 2
#     Edge 63, Type (0, 1), BuildingBlock: UVAHIK_clean_linker_0, # of connection points: 2
#     Edge 64, Type (0, 1), BuildingBlock: UVAHIK_clean_linker_0, # of connection points: 2
#     Edge 65, Type (0, 1), BuildingBlock: UVAHIK_clean_linker_0, # of connection points: 2
#     Edge 66, Type (0, 1), BuildingBlock: UVAHIK_clean_linker_0, # of connection points: 2
#     Edge 67, Type (0, 1), BuildingBlock: UVAHIK_clean_linker_0, # of connection points: 2
#     Edge 68, Type (0, 1), BuildingBlock: UVAHIK_clean_linker_0, # of connection points: 2
#     Edge 69, Type (0, 1), BuildingBlock: UVAHIK_clean_linker_0, # of connection points: 2
#     Edge 70, Type (0, 1), BuildingBlock: UVAHIK_clean_linker_0, # of connection points: 2
#     Edge 71, Type (0, 1), BuildingBlock: UVAHIK_clean_linker_0, # of connection points: 2
#     Edge 72, Type (0, 1), BuildingBlock: UVAHIK_clean_linker_0, # of connection points: 2
#     Edge 73, Type (0, 1), BuildingBlock: UVAHIK_clean_linker_0, # of connection points: 2
#     Edge 74, Type (0, 1), BuildingBlock: UVAHIK_clean_linker_0, # of connection points: 2
#     Edge 75, Type (0, 1), BuildingBlock: UVAHIK_clean_linker_0, # of connection points: 2
#     Edge 76, Type (0, 1), BuildingBlock: UVAHIK_clean_linker_0, # of connection points: 2
#     Edge 77, Type (0, 1), BuildingBlock: UVAHIK_clean_linker_0, # of connection points: 2
#     Edge 78, Type (0, 1), BuildingBlock: UVAHIK_clean_linker_0, # of connection points: 2
#     Edge 79, Type (0, 1), BuildingBlock: UVAHIK_clean_linker_0, # of connection points: 2
#     Edge 80, Type (0, 1), BuildingBlock: UVAHIK_clean_linker_0, # of connection points: 2
# Relax obj value: 0.096
# Max RMSD: 0.185
# Mean RMSD: 0.093
data_MOF--net-eea--node1-LEVNOQ01_clean_sbu_1--node2-VETTIZ_charged_linker_0--edge1-UVAHIK_clean_linker_0
_symmetry_space_group_name_H-M    P1
_symmetry_Int_Tables_number       1
_symmetry_cell_setting            triclinic
loop_
_symmetry_equiv_pos_as_xyz
'x, y, z'
_cell_length_a     81.408374
_cell_length_b     80.635478
_cell_length_c     83.779047
_cell_angle_alpha  90.36368
_cell_angle_beta   90.352073
_cell_angle_gamma 119.96059
loop_
_atom_site_label
_atom_site_type_symbol
_atom_site_fract_x
_atom_site_fract_y
_atom_site_fract_z
_atom_type_partial_charge
C0 C 0.24932 0.17601 0.37949 0.0
C1 C 0.25174 0.19246 0.38758 0.0
C2 C 0.2637 0.19907 0.40118 0.0
C3 C 0.26792 0.17145 0.39987 0.0
C4 C 0.25741 0.16569 0.38588 0.0
C5 C 0.25435 0.14671 0.37986 0.0
H6 H 0.2558 0.06552 0.3959 0.0
C7 C 0.27218 0.15637 0.40453 0.0
C8 C 0.26446 0.1419 0.39275 0.0
H9 H 0.23192 0.07754 0.35439 0.0
H10 H 0.24501 0.11045 0.36329 0.0
H11 H 0.29449 0.10185 0.39528 0.0
H12 H 0.24452 0.08878 0.42174 0.0
H13 H 0.26427 0.09806 0.43483 0.0
H14 H 0.25799 0.07675 0.42365 0.0
H15 H 0.29043 0.09097 0.4145 0.0
H16 H 0.30289 0.11669 0.41234 0.0
C17 C 0.2642 0.14985 0.36353 0.0
C18 C 0.23269 0.13245 0.37937 0.0
C19 C 0.29756 0.15714 0.46035 0.0
C20 C 0.30183 0.14434 0.46818 0.0
C21 C 0.30172 0.12935 0.45939 0.0
C22 C 0.29615 0.12629 0.44334 0.0
C23 C 0.29047 0.13823 0.43601 0.0
C24 C 0.29219 0.15396 0.44418 0.0
C25 C 0.28673 0.16576 0.43392 0.0
C26 C 0.28051 0.15386 0.41858 0.0
C27 C 0.28222 0.13749 0.42014 0.0
C28 C 0.30457 0.18564 0.43144 0.0
C29 C 0.27007 0.16647 0.44209 0.0
C30 C 0.25322 0.0752 0.38882 0.0
C31 C 0.24243 0.06887 0.37468 0.0
C32 C 0.24004 0.08208 0.36544 0.0
C33 C 0.24755 0.10111 0.37066 0.0
C34 C 0.25742 0.10692 0.38533 0.0
C35 C 0.26055 0.09415 0.39389 0.0
C36 C 0.27167 0.10277 0.40899 0.0
C37 C 0.27425 0.12274 0.40839 0.0
C38 C 0.26563 0.12502 0.39465 0.0
C39 C 0.29082 0.10303 0.40785 0.0
C40 C 0.25911 0.09104 0.42312 0.0
H41 H 0.28035 0.19418 0.41794 0.0
H42 H 0.24058 0.17075 0.3688 0.0
H43 H 0.22558 0.13497 0.38964 0.0
H44 H 0.22899 0.11738 0.3804 0.0
H45 H 0.22615 0.13409 0.36825 0.0
H46 H 0.27772 0.16378 0.3634 0.0
H47 H 0.25505 0.14999 0.35371 0.0
H48 H 0.26827 0.13896 0.36083 0.0
H49 H 0.29797 0.16904 0.46678 0.0
H50 H 0.30503 0.11936 0.46516 0.0
H51 H 0.29576 0.11428 0.43743 0.0
H52 H 0.31784 0.18498 0.43274 0.0
H53 H 0.30528 0.19631 0.44028 0.0
H54 H 0.30518 0.19111 0.41924 0.0
H55 H 0.25941 0.15203 0.44638 0.0
H56 H 0.26223 0.1709 0.43407 0.0
H57 H 0.27516 0.17636 0.45257 0.0
H58 H 0.26586 0.21166 0.4077 0.0
C59 C 0.27192 0.18875 0.40726 0.0
C60 C 0.91563 0.16663 0.36751 0.0
C61 C 0.93015 0.18393 0.37394 0.0
C62 C 0.92674 0.19132 0.38807 0.0
C63 C 0.89567 0.16323 0.3901 0.0
C64 C 0.89853 0.15659 0.37572 0.0
C65 C 0.88211 0.13737 0.37109 0.0
H66 H 0.80528 0.05686 0.39455 0.0
C67 C 0.87733 0.14847 0.39649 0.0
C68 C 0.86913 0.13342 0.38523 0.0
H69 H 0.83436 0.06752 0.34949 0.0
H70 H 0.85324 0.10111 0.35635 0.0
H71 H 0.83849 0.07799 0.41503 0.0
H72 H 0.8025 0.09682 0.39414 0.0
H73 H 0.80883 0.10781 0.41306 0.0
H74 H 0.79587 0.08197 0.41145 0.0
H75 H 0.81552 0.07132 0.42274 0.0
H76 H 0.83657 0.09255 0.42955 0.0
C77 C 0.88956 0.12306 0.36996 0.0
C78 C 0.87319 0.13954 0.35541 0.0
C79 C 0.86032 0.15256 0.45432 0.0
C80 C 0.84537 0.13942 0.46383 0.0
C81 C 0.83048 0.12275 0.45684 0.0
C82 C 0.83072 0.11877 0.44065 0.0
C83 C 0.84627 0.13135 0.43141 0.0
C84 C 0.86053 0.14817 0.43809 0.0
C85 C 0.87593 0.15959 0.42628 0.0
C86 C 0.86862 0.14661 0.41155 0.0
C87 C 0.85141 0.13002 0.41481 0.0
C88 C 0.89464 0.16152 0.43286 0.0
C89 C 0.87666 0.17893 0.42358 0.0
C90 C 0.81529 0.06643 0.38589 0.0
C91 C 0.81859 0.05939 0.37161 0.0
C92 C 0.83191 0.07247 0.3608 0.0
C93 C 0.84286 0.09195 0.3648 0.0
C94 C 0.84064 0.09835 0.37985 0.0
C95 C 0.82642 0.08583 0.38975 0.0
C96 C 0.82618 0.09494 0.40535 0.0
C97 C 0.8431 0.11486 0.40345 0.0
C98 C 0.85167 0.11671 0.38859 0.0
C99 C 0.8292 0.08368 0.41897 0.0
C100 C 0.80736 0.09535 0.40622 0.0
H101 H 0.90796 0.18726 0.40697 0.0
H102 H 0.91772 0.16076 0.35654 0.0
H103 H 0.87488 0.15408 0.35455 0.0
H104 H 0.8577 0.12964 0.35471 0.0
H105 H 0.87999 0.13733 0.34478 0.0
H106 H 0.89971 0.12557 0.37989 0.0
H107 H 0.89708 0.12472 0.35855 0.0
H108 H 0.8784 0.10799 0.37106 0.0
H109 H 0.87187 0.16552 0.45953 0.0
H110 H 0.81876 0.11263 0.46404 0.0
H111 H 0.81912 0.10565 0.43612 0.0
H112 H 0.89215 0.14756 0.43751 0.0
H113 H 0.90046 0.17213 0.44282 0.0
H114 H 0.90571 0.16568 0.4238 0.0
H115 H 0.86249 0.17756 0.42529 0.0
H116 H 0.88059 0.18412 0.41123 0.0
H117 H 0.8867 0.19009 0.43208 0.0
H118 H 0.93771 0.20461 0.39333 0.0
C119 C 0.90954 0.18113 0.3961 0.0
C120 C 0.91394 0.7428 0.37445 0.0
C121 C 0.92778 0.74006 0.38209 0.0
C122 C 0.92336 0.7302 0.39671 0.0
C123 C 0.89267 0.72815 0.39672 0.0
C124 C 0.89657 0.73677 0.38195 0.0
C125 C 0.88092 0.7399 0.37596 0.0
H126 H 0.80454 0.74755 0.3926 0.0
C127 C 0.87412 0.72528 0.40189 0.0
C128 C 0.86704 0.73187 0.38965 0.0
H129 H 0.83624 0.76139 0.3487 0.0
H130 H 0.854 0.74705 0.35864 0.0
H131 H 0.79814 0.70569 0.39451 0.0
H132 H 0.83893 0.75821 0.41749 0.0
H133 H 0.82812 0.73986 0.43176 0.0
H134 H 0.81369 0.74634 0.42022 0.0
H135 H 0.79327 0.71279 0.41339 0.0
H136 H 0.80491 0.69873 0.41208 0.0
C137 C 0.87265 0.72806 0.36036 0.0
C138 C 0.88925 0.76178 0.37408 0.0
C139 C 0.85174 0.70459 0.45877 0.0
C140 C 0.8352 0.70109 0.4668 0.0
C141 C 0.82083 0.70229 0.45836 0.0
C142 C 0.82318 0.70769 0.44234 0.0
C143 C 0.8401 0.712 0.43465 0.0
C144 C 0.85375 0.70973 0.44262 0.0
C145 C 0.87011 0.71355 0.43199 0.0
C146 C 0.86417 0.71897 0.4165 0.0
C147 C 0.84684 0.71856 0.41835 0.0
C148 C 0.87092 0.69482 0.43017 0.0
C149 C 0.88829 0.73053 0.43932 0.0
C150 C 0.81515 0.74732 0.38503 0.0
C151 C 0.8194 0.75625 0.37004 0.0
C152 C 0.83315 0.7553 0.36053 0.0
C153 C 0.84342 0.74689 0.36629 0.0
C154 C 0.84006 0.73944 0.38178 0.0
C155 C 0.82556 0.73894 0.39061 0.0
C156 C 0.82343 0.7295 0.40651 0.0
C157 C 0.83984 0.72553 0.40609 0.0
C158 C 0.84968 0.73172 0.39168 0.0
C159 C 0.80393 0.71076 0.40676 0.0
C160 C 0.8261 0.74413 0.41978 0.0
H161 H 0.90351 0.71716 0.4153 0.0
H162 H 0.91687 0.75037 0.36326 0.0
H163 H 0.89881 0.76972 0.38432 0.0
H164 H 0.87848 0.76622 0.37398 0.0
H165 H 0.89765 0.76695 0.36299 0.0
H166 H 0.87457 0.71534 0.36003 0.0
H167 H 0.87967 0.73676 0.34967 0.0
H168 H 0.85714 0.72208 0.35923 0.0
H169 H 0.86282 0.70336 0.46492 0.0
H170 H 0.80796 0.69958 0.46433 0.0
H171 H 0.81191 0.70871 0.43664 0.0
H172 H 0.85668 0.68196 0.43172 0.0
H173 H 0.8806 0.69413 0.4392 0.0
H174 H 0.87534 0.69309 0.4181 0.0
H175 H 0.88561 0.74223 0.44302 0.0
H176 H 0.90018 0.73705 0.43091 0.0
H177 H 0.89304 0.72597 0.45005 0.0
H178 H 0.9336 0.72746 0.40266 0.0
C179 C 0.90587 0.7242 0.40403 0.0
C180 C 0.17074 0.2615 0.63829 0.0
C181 C 0.18826 0.26445 0.63286 0.0
C182 C 0.19551 0.2741 0.61839 0.0
C183 C 0.16702 0.27585 0.61415 0.0
C184 C 0.16047 0.26749 0.62882 0.0
C185 C 0.14135 0.26505 0.63253 0.0
H186 H 0.06196 0.26279 0.60646 0.0
C187 C 0.15215 0.27853 0.60653 0.0
C188 C 0.13723 0.2726 0.61735 0.0
H189 H 0.07356 0.2476 0.65295 0.0
H190 H 0.10611 0.2596 0.64576 0.0
H191 H 0.10454 0.30406 0.60288 0.0
H192 H 0.08084 0.24534 0.58753 0.0
H193 H 0.09552 0.25953 0.57217 0.0
H194 H 0.07513 0.26148 0.57757 0.0
H195 H 0.08584 0.29288 0.58825 0.0
H196 H 0.11042 0.30367 0.58272 0.0
C197 C 0.14348 0.27772 0.64729 0.0
C198 C 0.12734 0.24339 0.63475 0.0
C199 C 0.158 0.29615 0.54801 0.0
C200 C 0.14532 0.29667 0.53692 0.0
C201 C 0.12764 0.29369 0.5421 0.0
C202 C 0.12258 0.29003 0.55822 0.0
C203 C 0.13515 0.28884 0.56914 0.0
C204 C 0.15256 0.29198 0.56395 0.0
C205 C 0.16369 0.28907 0.5769 0.0
C206 C 0.15023 0.28391 0.59082 0.0
C207 C 0.13351 0.28371 0.58622 0.0
C208 C 0.18238 0.30821 0.57982 0.0
C209 C 0.16644 0.27213 0.57169 0.0
C210 C 0.07156 0.26217 0.61514 0.0
C211 C 0.06507 0.25393 0.63021 0.0
C212 C 0.07814 0.25386 0.64128 0.0
C213 C 0.09701 0.26063 0.637 0.0
C214 C 0.10284 0.2673 0.62145 0.0
C215 C 0.09039 0.26862 0.61098 0.0
C216 C 0.09896 0.27566 0.59483 0.0
C217 C 0.11854 0.2781 0.5973 0.0
C218 C 0.1206 0.27297 0.61286 0.0
C219 C 0.09994 0.29504 0.59185 0.0
C220 C 0.08704 0.25986 0.58226 0.0
H221 H 0.19105 0.28668 0.59794 0.0
H222 H 0.165 0.25434 0.64948 0.0
H223 H 0.1297 0.2348 0.62555 0.0
H224 H 0.11235 0.23942 0.63334 0.0
H225 H 0.12928 0.23859 0.64666 0.0
H226 H 0.15814 0.29012 0.64842 0.0
H227 H 0.14032 0.26945 0.65851 0.0
H228 H 0.13434 0.28423 0.64643 0.0
H229 H 0.17156 0.29815 0.54422 0.0
H230 H 0.11772 0.29407 0.53364 0.0
H231 H 0.10892 0.28783 0.5615 0.0
H232 H 0.18067 0.32071 0.5769 0.0
H233 H 0.19401 0.3091 0.57234 0.0
H234 H 0.18693 0.31042 0.5925 0.0
H235 H 0.15319 0.26044 0.56615 0.0
H236 H 0.16967 0.26536 0.58166 0.0
H237 H 0.17788 0.27676 0.56274 0.0
H238 H 0.20898 0.27646 0.61396 0.0
C239 C 0.18501 0.27986 0.60903 0.0
C240 C 0.74925 0.82516 0.62961 0.0
C241 C 0.74486 0.80746 0.6228 0.0
C242 C 0.73055 0.79906 0.61104 0.0
C243 C 0.7269 0.82707 0.61153 0.0
C244 C 0.73987 0.83457 0.62397 0.0
C245 C 0.74308 0.85375 0.62953 0.0
H246 H 0.73742 0.93206 0.61251 0.0
C247 C 0.72125 0.84125 0.60728 0.0
C248 C 0.73025 0.85671 0.61808 0.0
H249 H 0.76891 0.9247 0.65072 0.0
H250 H 0.75318 0.89062 0.64507 0.0
H251 H 0.7444 0.90921 0.58779 0.0
H252 H 0.69687 0.89179 0.61883 0.0
H253 H 0.68746 0.87905 0.60088 0.0
H254 H 0.6994 0.90492 0.60094 0.0
H255 H 0.72743 0.9171 0.5856 0.0
H256 H 0.72396 0.89557 0.5762 0.0
C257 C 0.76434 0.86858 0.6272 0.0
C258 C 0.73626 0.85186 0.64699 0.0
C259 C 0.6911 0.83685 0.55305 0.0
C260 C 0.68622 0.84918 0.54512 0.0
C261 C 0.68584 0.86393 0.55395 0.0
C262 C 0.69189 0.86746 0.56989 0.0
C263 C 0.69864 0.85631 0.57708 0.0
C264 C 0.69713 0.84061 0.56904 0.0
C265 C 0.70384 0.82968 0.5791 0.0
C266 C 0.7109 0.84233 0.59401 0.0
C267 C 0.70828 0.85817 0.59249 0.0
C268 C 0.72014 0.82906 0.57018 0.0
C269 C 0.68665 0.80964 0.5826 0.0
C270 C 0.74066 0.92299 0.61979 0.0
C271 C 0.75467 0.93096 0.63176 0.0
C272 C 0.75828 0.9188 0.6413 0.0
C273 C 0.74928 0.8991 0.63789 0.0
C274 C 0.73677 0.89165 0.62472 0.0
C275 C 0.73197 0.9034 0.61642 0.0
C276 C 0.71888 0.89333 0.60255 0.0
C277 C 0.7172 0.87375 0.60346 0.0
C278 C 0.72786 0.8729 0.61636 0.0
C279 C 0.72897 0.90427 0.58718 0.0
C280 C 0.69966 0.89227 0.6058 0.0
H281 H 0.71107 0.80201 0.59608 0.0
H282 H 0.75999 0.83167 0.6389 0.0
H283 H 0.72378 0.83745 0.64908 0.0
H284 H 0.73133 0.86202 0.64999 0.0
H285 H 0.74759 0.85388 0.65556 0.0
H286 H 0.7696 0.86569 0.61587 0.0
H287 H 0.77313 0.86797 0.63713 0.0
H288 H 0.76725 0.8834 0.62616 0.0
H289 H 0.69124 0.82517 0.54674 0.0
H290 H 0.68141 0.87317 0.54838 0.0
H291 H 0.69199 0.87935 0.57578 0.0
H292 H 0.73085 0.84365 0.56622 0.0
H293 H 0.71467 0.81963 0.55944 0.0
H294 H 0.72783 0.82387 0.57757 0.0
H295 H 0.6729 0.80916 0.58053 0.0
H296 H 0.68632 0.80562 0.59527 0.0
H297 H 0.68667 0.79841 0.57486 0.0
H298 H 0.7269 0.78529 0.60582 0.0
C299 C 0.72149 0.80878 0.60538 0.0
C300 C 0.08533 0.82866 0.63256 0.0
C301 C 0.07073 0.81093 0.6269 0.0
C302 C 0.07346 0.80295 0.61285 0.0
C303 C 0.10459 0.8308 0.60979 0.0
C304 C 0.10216 0.83821 0.62394 0.0
C305 C 0.11911 0.8572 0.62827 0.0
H306 H 0.20084 0.93371 0.60527 0.0
C307 C 0.12336 0.84464 0.60344 0.0
C308 C 0.13212 0.85996 0.6144 0.0
H309 H 0.17038 0.92683 0.64897 0.0
H310 H 0.14888 0.89348 0.64233 0.0
H311 H 0.20147 0.89558 0.60733 0.0
H312 H 0.16444 0.91012 0.58213 0.0
H313 H 0.17234 0.89848 0.56893 0.0
H314 H 0.18938 0.92018 0.57863 0.0
H315 H 0.20662 0.90451 0.58739 0.0
H316 H 0.19243 0.87918 0.59127 0.0
C317 C 0.12745 0.85512 0.64432 0.0
C318 C 0.11265 0.8723 0.62854 0.0
C319 C 0.14111 0.83744 0.54661 0.0
C320 C 0.15765 0.84853 0.53775 0.0
C321 C 0.17371 0.86349 0.54541 0.0
C322 C 0.173 0.86819 0.56135 0.0
C323 C 0.15602 0.85797 0.56972 0.0
C324 C 0.14074 0.84224 0.5627 0.0
C325 C 0.1246 0.8321 0.5742 0.0
C326 C 0.13239 0.8452 0.58882 0.0
C327 C 0.15058 0.86057 0.58586 0.0
C328 C 0.12179 0.81193 0.57741 0.0
C329 C 0.10691 0.83187 0.56706 0.0
C330 C 0.18955 0.92492 0.61339 0.0
C331 C 0.18695 0.93282 0.62744 0.0
C332 C 0.17249 0.92097 0.63801 0.0
C333 C 0.15997 0.90171 0.63406 0.0
C334 C 0.16195 0.89432 0.61939 0.0
C335 C 0.177 0.9057 0.60964 0.0
C336 C 0.17726 0.89541 0.59474 0.0
C337 C 0.15935 0.87618 0.59679 0.0
C338 C 0.1503 0.87574 0.61111 0.0
C339 C 0.19538 0.89362 0.59507 0.0
C340 C 0.17585 0.90655 0.58027 0.0
H341 H 0.09148 0.80621 0.5935 0.0
H342 H 0.08366 0.83495 0.64346 0.0
H343 H 0.10281 0.86992 0.61837 0.0
H344 H 0.12437 0.8871 0.62719 0.0
H345 H 0.10505 0.87144 0.63974 0.0
H346 H 0.12517 0.84039 0.64567 0.0
H347 H 0.12069 0.858 0.65463 0.0
H348 H 0.143 0.86458 0.64519 0.0
H349 H 0.12873 0.82556 0.54107 0.0
H350 H 0.18661 0.87216 0.53883 0.0
H351 H 0.1855 0.88007 0.56636 0.0
H352 H 0.13495 0.81137 0.57508 0.0
H353 H 0.11039 0.80088 0.56968 0.0
H354 H 0.11851 0.80777 0.59007 0.0
H355 H 0.11064 0.84635 0.56278 0.0
H356 H 0.09546 0.82783 0.57575 0.0
H357 H 0.10109 0.82177 0.55675 0.0
H358 H 0.06233 0.78928 0.6083 0.0
C359 C 0.09032 0.81281 0.60426 0.0
C360 C 0.91211 0.50821 0.7127 0.0
C361 C 0.91474 0.52428 0.72147 0.0
C362 C 0.92679 0.53036 0.73496 0.0
C363 C 0.93119 0.50294 0.73216 0.0
C364 C 0.92032 0.49765 0.71832 0.0
C365 C 0.91692 0.47878 0.71171 0.0
H366 H 0.91733 0.39651 0.72528 0.0
C367 C 0.93528 0.48756 0.73612 0.0
C368 C 0.92701 0.47335 0.72415 0.0
H369 H 0.89408 0.41 0.6842 0.0
H370 H 0.90722 0.44275 0.69391 0.0
H371 H 0.95726 0.43526 0.72494 0.0
H372 H 0.90558 0.41632 0.75061 0.0
H373 H 0.92396 0.42894 0.76446 0.0
H374 H 0.92188 0.40799 0.75475 0.0
H375 H 0.95141 0.42001 0.74195 0.0
H376 H 0.96434 0.4458 0.74397 0.0
C377 C 0.92656 0.48233 0.69525 0.0
C378 C 0.89524 0.46472 0.71126 0.0
C379 C 0.96454 0.48826 0.79014 0.0
C380 C 0.96743 0.47452 0.79794 0.0
C381 C 0.96413 0.45793 0.7896 0.0
C382 C 0.95733 0.45466 0.77388 0.0
C383 C 0.95345 0.46795 0.76651 0.0
C384 C 0.95748 0.48464 0.77445 0.0
C385 C 0.95192 0.49679 0.76479 0.0
C386 C 0.94387 0.48456 0.74977 0.0
C387 C 0.9446 0.46762 0.75102 0.0
C388 C 0.97007 0.51604 0.7613 0.0
C389 C 0.93659 0.49871 0.77422 0.0
C390 C 0.91499 0.40651 0.71842 0.0
C391 C 0.90428 0.4007 0.70426 0.0
C392 C 0.90208 0.41421 0.69531 0.0
C393 C 0.90964 0.43311 0.70099 0.0
C394 C 0.91943 0.4384 0.71573 0.0
C395 C 0.92244 0.42529 0.72386 0.0
C396 C 0.93344 0.43325 0.73908 0.0
C397 C 0.93616 0.45323 0.73907 0.0
C398 C 0.92772 0.45616 0.72552 0.0
C399 C 0.95257 0.43352 0.73757 0.0
C400 C 0.92076 0.42104 0.75303 0.0
H401 H 0.94391 0.52499 0.75081 0.0
H402 H 0.90281 0.50322 0.70232 0.0
H403 H 0.88843 0.46658 0.72207 0.0
H404 H 0.8914 0.44955 0.71128 0.0
H405 H 0.88856 0.46724 0.70065 0.0
H406 H 0.94018 0.49616 0.69526 0.0
H407 H 0.91736 0.48294 0.68569 0.0
H408 H 0.93038 0.47138 0.69205 0.0
H409 H 0.96687 0.5011 0.79635 0.0
H410 H 0.96657 0.44734 0.79534 0.0
H411 H 0.95476 0.44157 0.7683 0.0
H412 H 0.98245 0.51393 0.75957 0.0
H413 H 0.97359 0.52639 0.77132 0.0
H414 H 0.96897 0.52263 0.75011 0.0
H415 H 0.92717 0.48529 0.78071 0.0
H416 H 0.92687 0.50099 0.76654 0.0
H417 H 0.94317 0.5105 0.78319 0.0
H418 H 0.92919 0.5429 0.74171 0.0
C419 C 0.93523 0.51991 0.74024 0.0
C420 C 0.58368 0.49902 0.69999 0.0
C421 C 0.59892 0.51592 0.70628 0.0
C422 C 0.59665 0.52336 0.72085 0.0
C423 C 0.56497 0.49613 0.72337 0.0
C424 C 0.56688 0.48947 0.70865 0.0
C425 C 0.54979 0.47075 0.70403 0.0
H426 H 0.46902 0.39315 0.72659 0.0
C427 C 0.54638 0.48194 0.72988 0.0
C428 C 0.53733 0.46717 0.71845 0.0
H429 H 0.49959 0.4015 0.68263 0.0
H430 H 0.52057 0.43473 0.68972 0.0
H431 H 0.50277 0.41191 0.74775 0.0
H432 H 0.47035 0.43475 0.72651 0.0
H433 H 0.47752 0.44607 0.74526 0.0
H434 H 0.46268 0.42032 0.74406 0.0
H435 H 0.47985 0.40646 0.75476 0.0
H436 H 0.50127 0.42659 0.76241 0.0
C437 C 0.55612 0.45559 0.70219 0.0
C438 C 0.54088 0.47387 0.68877 0.0
C439 C 0.5297 0.48648 0.7878 0.0
C440 C 0.51378 0.47428 0.7969 0.0
C441 C 0.49812 0.45867 0.78954 0.0
C442 C 0.49846 0.45468 0.77337 0.0
C443 C 0.51477 0.46627 0.7645 0.0
C444 C 0.52984 0.48222 0.77152 0.0
C445 C 0.54564 0.49306 0.75984 0.0
C446 C 0.53777 0.48047 0.74494 0.0
C447 C 0.51982 0.4647 0.74794 0.0
C448 C 0.56369 0.49351 0.76636 0.0
C449 C 0.54784 0.51309 0.75742 0.0
C450 C 0.47986 0.40225 0.71824 0.0
C451 C 0.48281 0.39466 0.70414 0.0
C452 C 0.49727 0.40697 0.69372 0.0
C453 C 0.50944 0.42622 0.69788 0.0
C454 C 0.50731 0.43313 0.71273 0.0
C455 C 0.49229 0.42137 0.72234 0.0
C456 C 0.49265 0.43069 0.73799 0.0
C457 C 0.51071 0.44983 0.73641 0.0
C458 C 0.51929 0.45116 0.72166 0.0
C459 C 0.49408 0.41835 0.75152 0.0
C460 C 0.47486 0.43301 0.73865 0.0
H461 H 0.57899 0.51966 0.74063 0.0
H462 H 0.58495 0.4931 0.68873 0.0
H463 H 0.54175 0.48809 0.68915 0.0
H464 H 0.5256 0.46338 0.68744 0.0
H465 H 0.54837 0.47336 0.67791 0.0
H466 H 0.56805 0.45867 0.71049 0.0
H467 H 0.56099 0.4554 0.68987 0.0
H468 H 0.54496 0.441 0.7053 0.0
H469 H 0.54179 0.49872 0.79329 0.0
H470 H 0.48572 0.4493 0.79644 0.0
H471 H 0.48621 0.44233 0.76854 0.0
H472 H 0.56023 0.47914 0.77076 0.0
H473 H 0.56998 0.50384 0.77648 0.0
H474 H 0.57468 0.49724 0.75728 0.0
H475 H 0.53399 0.51258 0.75863 0.0
H476 H 0.55269 0.51867 0.7453 0.0
H477 H 0.55778 0.52356 0.76638 0.0
H478 H 0.60824 0.53638 0.72594 0.0
C479 C 0.57974 0.51357 0.72942 0.0
C480 C 0.58324 0.07374 0.70693 0.0
C481 C 0.59705 0.07163 0.7153 0.0
C482 C 0.59254 0.06255 0.73025 0.0
C483 C 0.56178 0.06032 0.72921 0.0
C484 C 0.56582 0.06812 0.71412 0.0
C485 C 0.55048 0.07142 0.7076 0.0
H486 H 0.469 0.07222 0.71937 0.0
C487 C 0.54348 0.05831 0.73407 0.0
C488 C 0.53671 0.06459 0.72135 0.0
H489 H 0.50476 0.09119 0.67787 0.0
H490 H 0.52535 0.08089 0.68979 0.0
H491 H 0.47119 0.03277 0.72623 0.0
H492 H 0.50093 0.09104 0.74306 0.0
H493 H 0.50059 0.07737 0.75933 0.0
H494 H 0.47849 0.07382 0.75111 0.0
H495 H 0.46086 0.04304 0.73894 0.0
H496 H 0.47392 0.03233 0.74706 0.0
C497 C 0.54191 0.05864 0.69253 0.0
C498 C 0.55913 0.09319 0.70466 0.0
C499 C 0.5204 0.03976 0.79096 0.0
C500 C 0.50495 0.03876 0.79924 0.0
C501 C 0.49168 0.04189 0.79092 0.0
C502 C 0.49388 0.04622 0.77466 0.0
C503 C 0.50965 0.0477 0.76663 0.0
C504 C 0.52252 0.04434 0.77472 0.0
C505 C 0.53874 0.0472 0.76433 0.0
C506 C 0.53347 0.05288 0.74869 0.0
C507 C 0.51646 0.05318 0.75017 0.0
C508 C 0.5384 0.02788 0.76282 0.0
C509 C 0.55727 0.0637 0.77173 0.0
C510 C 0.48104 0.07372 0.71272 0.0
C511 C 0.48523 0.0822 0.69762 0.0
C512 C 0.50131 0.08456 0.6895 0.0
C513 C 0.51321 0.07862 0.69647 0.0
C514 C 0.50918 0.07072 0.71186 0.0
C515 C 0.49325 0.06831 0.71966 0.0
C516 C 0.49183 0.061 0.73632 0.0
C517 C 0.5094 0.05909 0.7372 0.0
C518 C 0.51947 0.06475 0.72286 0.0
C519 C 0.47345 0.0413 0.73736 0.0
C520 C 0.49287 0.07643 0.74815 0.0
H521 H 0.57244 0.05032 0.74875 0.0
H522 H 0.58639 0.08087 0.69551 0.0
H523 H 0.57054 0.1018 0.71353 0.0
H524 H 0.5488 0.09816 0.70614 0.0
H525 H 0.56541 0.09714 0.69259 0.0
H526 H 0.54108 0.04455 0.6941 0.0
H527 H 0.55073 0.06548 0.68188 0.0
H528 H 0.52719 0.05515 0.68999 0.0
H529 H 0.53092 0.03758 0.79709 0.0
H530 H 0.47954 0.04092 0.79702 0.0
H531 H 0.48332 0.04852 0.76903 0.0
H532 H 0.5236 0.01564 0.76285 0.0
H533 H 0.54615 0.0259 0.77292 0.0
H534 H 0.54436 0.02639 0.75144 0.0
H535 H 0.5549 0.07525 0.77646 0.0
H536 H 0.56879 0.07083 0.76305 0.0
H537 H 0.5624 0.05851 0.78179 0.0
H538 H 0.60294 0.06055 0.73679 0.0
C539 C 0.5749 0.05673 0.73719 0.0
C540 C 0.83703 0.58984 0.97032 0.0
C541 C 0.85294 0.58988 0.96399 0.0
C542 C 0.86002 0.59862 0.94915 0.0
C543 C 0.83384 0.60471 0.94632 0.0
C544 C 0.82771 0.59721 0.96131 0.0
C545 C 0.80952 0.59642 0.96574 0.0
H546 H 0.7301 0.59511 0.94252 0.0
C547 C 0.81949 0.6087 0.93929 0.0
C548 C 0.80531 0.604 0.95066 0.0
H549 H 0.74514 0.58331 0.98907 0.0
H550 H 0.77687 0.59456 0.9804 0.0
H551 H 0.77231 0.63614 0.93723 0.0
H552 H 0.74947 0.57723 0.92242 0.0
H553 H 0.76165 0.59195 0.90626 0.0
H554 H 0.74122 0.59224 0.91403 0.0
H555 H 0.75359 0.62484 0.92263 0.0
H556 H 0.77818 0.63558 0.91712 0.0
C557 C 0.81349 0.61 0.98027 0.0
C558 C 0.79455 0.57514 0.9687 0.0
C559 C 0.8246 0.62753 0.88116 0.0
C560 C 0.81199 0.62872 0.8704 0.0
C561 C 0.79454 0.62603 0.87598 0.0
C562 C 0.78967 0.62203 0.89212 0.0
C563 C 0.80221 0.62026 0.90267 0.0
C564 C 0.81938 0.6231 0.89711 0.0
C565 C 0.83035 0.61925 0.90958 0.0
C566 C 0.81724 0.61419 0.92373 0.0
C567 C 0.80076 0.61479 0.91966 0.0
C568 C 0.84937 0.63794 0.91266 0.0
C569 C 0.83245 0.60208 0.90375 0.0
C570 C 0.74027 0.595 0.95084 0.0
C571 C 0.73491 0.58798 0.96645 0.0
C572 C 0.74876 0.58867 0.97703 0.0
C573 C 0.76722 0.595 0.97191 0.0
C574 C 0.77188 0.60035 0.95595 0.0
C575 C 0.75883 0.60113 0.94586 0.0
C576 C 0.7667 0.60766 0.92937 0.0
C577 C 0.78634 0.60993 0.9312 0.0
C578 C 0.789 0.60522 0.94673 0.0
C579 C 0.76769 0.62702 0.92626 0.0
C580 C 0.75414 0.59158 0.91727 0.0
H581 H 0.85625 0.61205 0.92886 0.0
H582 H 0.83151 0.58351 0.98182 0.0
H583 H 0.79577 0.56566 0.95964 0.0
H584 H 0.77979 0.57202 0.96769 0.0
H585 H 0.7966 0.57054 0.98067 0.0
H586 H 0.8287 0.62128 0.98111 0.0
H587 H 0.80978 0.60202 0.99166 0.0
H588 H 0.80576 0.61803 0.97936 0.0
H589 H 0.83791 0.62911 0.87708 0.0
H590 H 0.78463 0.62688 0.8678 0.0
H591 H 0.77616 0.62001 0.89567 0.0
H592 H 0.84718 0.65049 0.91301 0.0
H593 H 0.85966 0.64036 0.90306 0.0
H594 H 0.85589 0.63808 0.9243 0.0
H595 H 0.82061 0.59245 0.89558 0.0
H596 H 0.83176 0.59266 0.91356 0.0
H597 H 0.84589 0.60703 0.89718 0.0
H598 H 0.87233 0.59884 0.94406 0.0
C599 C 0.85057 0.6061 0.9403 0.0
C600 C 0.4139 0.15966 0.96218 0.0
C601 C 0.41251 0.14366 0.95408 0.0
C602 C 0.40242 0.13774 0.93949 0.0
C603 C 0.39683 0.16449 0.94053 0.0
C604 C 0.40596 0.16984 0.95519 0.0
C605 C 0.40719 0.18793 0.96158 0.0
H606 H 0.39968 0.26588 0.94643 0.0
C607 C 0.39139 0.17874 0.93598 0.0
C608 C 0.39714 0.19239 0.94837 0.0
H609 H 0.42526 0.25543 0.98766 0.0
H610 H 0.41348 0.22279 0.97868 0.0
H611 H 0.4137 0.24714 0.92164 0.0
H612 H 0.36094 0.22571 0.94622 0.0
H613 H 0.355 0.21304 0.92799 0.0
H614 H 0.36527 0.23876 0.92803 0.0
H615 H 0.39726 0.25562 0.91875 0.0
H616 H 0.39518 0.2357 0.90757 0.0
C617 C 0.42847 0.20333 0.96314 0.0
C618 C 0.39617 0.18327 0.97743 0.0
C619 C 0.36769 0.17834 0.87958 0.0
C620 C 0.36205 0.19021 0.87196 0.0
C621 C 0.36029 0.20399 0.88104 0.0
C622 C 0.36512 0.20669 0.89726 0.0
C623 C 0.372 0.19567 0.90446 0.0
C624 C 0.37235 0.18117 0.89589 0.0
C625 C 0.37874 0.17003 0.90602 0.0
C626 C 0.38315 0.18102 0.92178 0.0
C627 C 0.37964 0.1963 0.92058 0.0
C628 C 0.39675 0.17162 0.89839 0.0
C629 C 0.36199 0.14923 0.90749 0.0
C630 C 0.40235 0.25646 0.95378 0.0
C631 C 0.41366 0.26335 0.96763 0.0
C632 C 0.41691 0.25059 0.97675 0.0
C633 C 0.41012 0.23168 0.97149 0.0
C634 C 0.40027 0.22559 0.95684 0.0
C635 C 0.39596 0.23772 0.94856 0.0
C636 C 0.386 0.22925 0.93298 0.0
C637 C 0.38558 0.21024 0.93297 0.0
C638 C 0.3941 0.20821 0.94689 0.0
C639 C 0.39851 0.24255 0.91945 0.0
C640 C 0.36579 0.22662 0.9337 0.0
H641 H 0.38722 0.14291 0.92151 0.0
H642 H 0.42161 0.16459 0.97339 0.0
H643 H 0.38299 0.16906 0.97664 0.0
H644 H 0.39138 0.19354 0.98037 0.0
H645 H 0.40486 0.18282 0.98751 0.0
H646 H 0.43689 0.20159 0.95353 0.0
H647 H 0.43449 0.20226 0.97476 0.0
H648 H 0.43117 0.21806 0.96174 0.0
H649 H 0.36867 0.16731 0.87294 0.0
H650 H 0.35588 0.21324 0.87544 0.0
H651 H 0.36398 0.21775 0.90342 0.0
H652 H 0.40672 0.18666 0.89492 0.0
H653 H 0.39307 0.16251 0.88748 0.0
H654 H 0.40485 0.16762 0.90653 0.0
H655 H 0.34808 0.14839 0.90537 0.0
H656 H 0.36094 0.14348 0.91964 0.0
H657 H 0.36316 0.13951 0.8987 0.0
H658 H 0.40077 0.1252 0.93322 0.0
C659 C 0.39449 0.14799 0.93273 0.0
C660 C 0.75049 0.15894 0.96605 0.0
C661 C 0.73486 0.14394 0.95807 0.0
C662 C 0.73744 0.13849 0.94264 0.0
C663 C 0.77016 0.16422 0.94285 0.0
C664 C 0.76779 0.16899 0.9582 0.0
C665 C 0.78483 0.18684 0.96434 0.0
H666 H 0.86623 0.26693 0.94795 0.0
C667 C 0.78932 0.17872 0.9376 0.0
C668 C 0.79793 0.19199 0.95018 0.0
H669 H 0.83141 0.25349 0.99002 0.0
H670 H 0.81251 0.22094 0.98094 0.0
H671 H 0.86592 0.22628 0.94518 0.0
H672 H 0.83276 0.24865 0.92433 0.0
H673 H 0.83805 0.23719 0.90902 0.0
H674 H 0.8571 0.25698 0.9195 0.0
H675 H 0.87394 0.24152 0.92811 0.0
H676 H 0.85943 0.21581 0.92605 0.0
C677 C 0.79286 0.18153 0.97901 0.0
C678 C 0.77884 0.20207 0.96781 0.0
C679 C 0.80974 0.17921 0.88019 0.0
C680 C 0.82618 0.19209 0.87191 0.0
C681 C 0.84154 0.20684 0.88042 0.0
C682 C 0.84029 0.20934 0.89679 0.0
C683 C 0.82335 0.19724 0.9047 0.0
C684 C 0.80864 0.18207 0.89659 0.0
C685 C 0.79187 0.17059 0.90718 0.0
C686 C 0.7989 0.18164 0.92286 0.0
C687 C 0.8172 0.19743 0.92116 0.0
C688 C 0.78883 0.1501 0.90846 0.0
C689 C 0.77467 0.17149 0.90018 0.0
C690 C 0.85455 0.25697 0.95523 0.0
C691 C 0.85012 0.26302 0.96954 0.0
C692 C 0.83521 0.24937 0.97892 0.0
C693 C 0.824 0.23047 0.97351 0.0
C694 C 0.8274 0.22525 0.9584 0.0
C695 C 0.84287 0.23819 0.94978 0.0
C696 C 0.84372 0.23045 0.93362 0.0
C697 C 0.82569 0.21106 0.93373 0.0
C698 C 0.81621 0.20816 0.94824 0.0
C699 C 0.86171 0.22849 0.93306 0.0
C700 C 0.84299 0.24395 0.92086 0.0
H701 H 0.756 0.1439 0.92321 0.0
H702 H 0.74918 0.16334 0.978 0.0
H703 H 0.76536 0.19863 0.96161 0.0
H704 H 0.78919 0.21642 0.96336 0.0
H705 H 0.7767 0.20316 0.98077 0.0
H706 H 0.79271 0.16783 0.97683 0.0
H707 H 0.78423 0.17971 0.98977 0.0
H708 H 0.80781 0.19224 0.98167 0.0
H709 H 0.79776 0.16767 0.87393 0.0
H710 H 0.8545 0.21661 0.87434 0.0
H711 H 0.85235 0.22101 0.90255 0.0
H712 H 0.80266 0.15045 0.90894 0.0
H713 H 0.78074 0.14116 0.89799 0.0
H714 H 0.78149 0.14283 0.9195 0.0
H715 H 0.77921 0.1859 0.89524 0.0
H716 H 0.76395 0.16926 0.90918 0.0
H717 H 0.76772 0.16083 0.89037 0.0
H718 H 0.72567 0.12705 0.93613 0.0
C719 C 0.75504 0.14844 0.93506 0.0
C720 C 0.58061 0.8361 0.04292 0.0
C721 C 0.58295 0.85249 0.05109 0.0
C722 C 0.59604 0.85995 0.06391 0.0
C723 C 0.60138 0.83307 0.06206 0.0
C724 C 0.5898 0.82654 0.04869 0.0
C725 C 0.58681 0.80751 0.04284 0.0
H726 H 0.58726 0.72655 0.06122 0.0
C727 C 0.60622 0.81838 0.06665 0.0
C728 C 0.59788 0.80339 0.05535 0.0
H729 H 0.56332 0.73726 0.01914 0.0
H730 H 0.57801 0.77096 0.02651 0.0
H731 H 0.62802 0.7644 0.05867 0.0
H732 H 0.57786 0.75039 0.08527 0.0
H733 H 0.59737 0.76203 0.09836 0.0
H734 H 0.59261 0.74006 0.08887 0.0
H735 H 0.62307 0.7518 0.07717 0.0
H736 H 0.63614 0.77767 0.07655 0.0
C737 C 0.59575 0.81031 0.02613 0.0
C738 C 0.56524 0.79294 0.0432 0.0
C739 C 0.63535 0.82267 0.12133 0.0
C740 C 0.63862 0.80974 0.13008 0.0
C741 C 0.63664 0.79328 0.12231 0.0
C742 C 0.63032 0.78917 0.10642 0.0
C743 C 0.62558 0.80144 0.0983 0.0
C744 C 0.62878 0.81821 0.10555 0.0
C745 C 0.62275 0.82942 0.09518 0.0
C746 C 0.61524 0.81648 0.08052 0.0
C747 C 0.61656 0.79995 0.0826 0.0
C748 C 0.6405 0.84892 0.09138 0.0
C749 C 0.60687 0.83095 0.10407 0.0
C750 C 0.5853 0.73624 0.05358 0.0
C751 C 0.57384 0.72941 0.03987 0.0
C752 C 0.57194 0.74234 0.0299 0.0
C753 C 0.58036 0.76177 0.03425 0.0
C754 C 0.59057 0.76812 0.04875 0.0
C755 C 0.59357 0.75556 0.05774 0.0
C756 C 0.60508 0.7647 0.07256 0.0
C757 C 0.60801 0.78473 0.07133 0.0
C758 C 0.59914 0.78659 0.05755 0.0
C759 C 0.62403 0.76458 0.07133 0.0
C760 C 0.59278 0.75378 0.0871 0.0
H761 H 0.61469 0.85653 0.07944 0.0
H762 H 0.57109 0.83027 0.03274 0.0
H763 H 0.5588 0.79504 0.05415 0.0
H764 H 0.56184 0.77793 0.04355 0.0
H765 H 0.55787 0.79473 0.03272 0.0
H766 H 0.6089 0.8245 0.02533 0.0
H767 H 0.58581 0.80959 0.01665 0.0
H768 H 0.60026 0.79975 0.02343 0.0
H769 H 0.63717 0.83569 0.12683 0.0
H770 H 0.63907 0.78308 0.12872 0.0
H771 H 0.62851 0.77613 0.10133 0.0
H772 H 0.65356 0.84776 0.09132 0.0
H773 H 0.64265 0.86002 0.10038 0.0
H774 H 0.63979 0.85407 0.07932 0.0
H775 H 0.59722 0.8173 0.11017 0.0
H776 H 0.59753 0.83348 0.09615 0.0
H777 H 0.61295 0.84247 0.11331 0.0
H778 H 0.59824 0.87251 0.07049 0.0
C779 C 0.60544 0.85047 0.06928 0.0
C780 C 0.25056 0.83521 0.03472 0.0
C781 C 0.26479 0.85279 0.04102 0.0
C782 C 0.26131 0.85991 0.05525 0.0
C783 C 0.23076 0.83115 0.05758 0.0
C784 C 0.23367 0.82472 0.04312 0.0
C785 C 0.21755 0.80527 0.03857 0.0
H786 H 0.13954 0.72485 0.06142 0.0
C787 C 0.2126 0.81609 0.06403 0.0
C788 C 0.2046 0.80103 0.05277 0.0
H789 H 0.17069 0.73443 0.01761 0.0
H790 H 0.18998 0.76805 0.02442 0.0
H791 H 0.17325 0.74605 0.08273 0.0
H792 H 0.13763 0.76462 0.06059 0.0
H793 H 0.14404 0.7763 0.07924 0.0
H794 H 0.13073 0.75043 0.0783 0.0
H795 H 0.14964 0.7386 0.08928 0.0
H796 H 0.16985 0.75983 0.09712 0.0
C797 C 0.22548 0.79136 0.03738 0.0
C798 C 0.20832 0.80712 0.02297 0.0
C799 C 0.19518 0.81968 0.12182 0.0
C800 C 0.17959 0.80698 0.13099 0.0
C801 C 0.1644 0.79081 0.12372 0.0
C802 C 0.16499 0.7868 0.10757 0.0
C803 C 0.18106 0.79896 0.09865 0.0
C804 C 0.19554 0.81544 0.10558 0.0
C805 C 0.21103 0.82697 0.09385 0.0
C806 C 0.20374 0.81417 0.07902 0.0
C807 C 0.18639 0.79766 0.0821 0.0
C808 C 0.2297 0.82878 0.10036 0.0
C809 C 0.21186 0.8464 0.09132 0.0
C810 C 0.15012 0.73423 0.05301 0.0
C811 C 0.15372 0.72692 0.03904 0.0
C812 C 0.16788 0.73965 0.02861 0.0
C813 C 0.17906 0.75914 0.03261 0.0
C814 C 0.17626 0.76585 0.04731 0.0
C815 C 0.16154 0.75356 0.05694 0.0
C816 C 0.16104 0.76275 0.07241 0.0
C817 C 0.17823 0.78251 0.07071 0.0
C818 C 0.18716 0.78425 0.05605 0.0
C819 C 0.16343 0.75129 0.08619 0.0
C820 C 0.14238 0.7635 0.07282 0.0
H821 H 0.24274 0.85513 0.07451 0.0
H822 H 0.25275 0.82949 0.02371 0.0
H823 H 0.20834 0.82094 0.02277 0.0
H824 H 0.19324 0.79598 0.02172 0.0
H825 H 0.21615 0.80665 0.01233 0.0
H826 H 0.2368 0.79498 0.0465 0.0
H827 H 0.23172 0.79212 0.02547 0.0
H828 H 0.21481 0.77635 0.03979 0.0
H829 H 0.20686 0.83237 0.12722 0.0
H830 H 0.15224 0.78103 0.13068 0.0
H831 H 0.15315 0.77402 0.10279 0.0
H832 H 0.22727 0.81463 0.10443 0.0
H833 H 0.23523 0.83886 0.11069 0.0
H834 H 0.24095 0.83365 0.09137 0.0
H835 H 0.19795 0.84535 0.09377 0.0
H836 H 0.21497 0.85126 0.07881 0.0
H837 H 0.22256 0.85769 0.09935 0.0
H838 H 0.27209 0.8734 0.06039 0.0
C839 C 0.24436 0.84921 0.06353 0.0
C840 C 0.24907 0.40926 0.04089 0.0
C841 C 0.26296 0.40657 0.04852 0.0
C842 C 0.25855 0.39658 0.06306 0.0
C843 C 0.22799 0.39474 0.06329 0.0
C844 C 0.23176 0.40325 0.04847 0.0
C845 C 0.21614 0.40653 0.04266 0.0
H846 H 0.13863 0.41259 0.05932 0.0
C847 C 0.20969 0.39225 0.06871 0.0
C848 C 0.20252 0.39884 0.05654 0.0
H849 H 0.17119 0.42824 0.01589 0.0
H850 H 0.18981 0.41482 0.02591 0.0
H851 H 0.13404 0.37168 0.06218 0.0
H852 H 0.17401 0.42554 0.08385 0.0
H853 H 0.16442 0.4078 0.09865 0.0
H854 H 0.14889 0.41299 0.08728 0.0
H855 H 0.12885 0.37952 0.08056 0.0
H856 H 0.14094 0.36584 0.08025 0.0
C857 C 0.20746 0.39445 0.02724 0.0
C858 C 0.2246 0.42842 0.04056 0.0
C859 C 0.18892 0.37355 0.12615 0.0
C860 C 0.17262 0.37038 0.13439 0.0
C861 C 0.15805 0.37136 0.12612 0.0
C862 C 0.15995 0.37621 0.10998 0.0
C863 C 0.17661 0.38015 0.10202 0.0
C864 C 0.19046 0.37811 0.10989 0.0
C865 C 0.20643 0.38137 0.099 0.0
C866 C 0.20012 0.38637 0.0835 0.0
C867 C 0.1829 0.38612 0.08554 0.0
C868 C 0.20696 0.36246 0.0975 0.0
C869 C 0.22492 0.39845 0.1058 0.0
C870 C 0.14964 0.41293 0.05192 0.0
C871 C 0.15373 0.42184 0.03695 0.0
C872 C 0.16811 0.42189 0.02763 0.0
C873 C 0.17886 0.41404 0.03345 0.0
C874 C 0.17541 0.40629 0.04885 0.0
C875 C 0.16065 0.4053 0.05762 0.0
C876 C 0.15898 0.39636 0.07368 0.0
C877 C 0.17564 0.39281 0.07327 0.0
C878 C 0.18529 0.39887 0.05877 0.0
C879 C 0.1397 0.37743 0.07434 0.0
C880 C 0.16162 0.41132 0.08664 0.0
H881 H 0.23882 0.38357 0.08171 0.0
H882 H 0.252 0.41691 0.02975 0.0
H883 H 0.23527 0.43656 0.0501 0.0
H884 H 0.21406 0.43311 0.04161 0.0
H885 H 0.23181 0.43318 0.02889 0.0
H886 H 0.20833 0.38111 0.02743 0.0
H887 H 0.21504 0.40256 0.01647 0.0
H888 H 0.19216 0.38944 0.02585 0.0
H889 H 0.20009 0.3724 0.13222 0.0
H890 H 0.14534 0.36881 0.13228 0.0
H891 H 0.14851 0.37703 0.10438 0.0
H892 H 0.19286 0.34976 0.09989 0.0
H893 H 0.21727 0.36219 0.10609 0.0
H894 H 0.21044 0.36001 0.08527 0.0
H895 H 0.22258 0.41049 0.10911 0.0
H896 H 0.23665 0.40437 0.09723 0.0
H897 H 0.22974 0.39424 0.11669 0.0
H898 H 0.26885 0.39387 0.06897 0.0
C899 C 0.24113 0.39061 0.07046 0.0
C900 C 0.50277 0.91822 0.30031 0.0
C901 C 0.51751 0.917 0.29282 0.0
C902 C 0.52408 0.92573 0.27794 0.0
C903 C 0.49985 0.93477 0.27732 0.0
C904 C 0.49402 0.92698 0.29228 0.0
C905 C 0.47638 0.92703 0.29744 0.0
H906 H 0.39943 0.93216 0.27603 0.0
C907 C 0.48628 0.94043 0.27132 0.0
C908 C 0.47255 0.93605 0.28307 0.0
H909 H 0.41052 0.91251 0.32054 0.0
H910 H 0.44296 0.92423 0.31279 0.0
H911 H 0.44111 0.97218 0.27445 0.0
H912 H 0.41883 0.91576 0.25382 0.0
H913 H 0.4304 0.93291 0.23889 0.0
H914 H 0.41028 0.93171 0.24857 0.0
H915 H 0.42555 0.96453 0.25737 0.0
H916 H 0.45091 0.97501 0.25534 0.0
C917 C 0.48124 0.93986 0.31254 0.0
C918 C 0.46062 0.9059 0.29979 0.0
C919 C 0.49062 0.96116 0.21385 0.0
C920 C 0.47926 0.96566 0.20429 0.0
C921 C 0.46405 0.96669 0.21112 0.0
C922 C 0.45972 0.96241 0.22731 0.0
C923 C 0.47069 0.95697 0.23662 0.0
C924 C 0.4862 0.95704 0.22994 0.0
C925 C 0.49645 0.95119 0.24153 0.0
C926 C 0.48444 0.94737 0.25629 0.0
C927 C 0.46918 0.95044 0.25329 0.0
C928 C 0.51673 0.96839 0.24409 0.0
C929 C 0.49563 0.93276 0.23487 0.0
C930 C 0.4089 0.93047 0.28413 0.0
C931 C 0.40229 0.92092 0.29871 0.0
C932 C 0.4152 0.91964 0.30919 0.0
C933 C 0.43397 0.92626 0.30458 0.0
C934 C 0.43976 0.93389 0.28925 0.0
C935 C 0.42758 0.93669 0.27959 0.0
C936 C 0.43612 0.94494 0.26367 0.0
C937 C 0.4551 0.94573 0.26508 0.0
C938 C 0.45702 0.93899 0.28002 0.0
C939 C 0.43848 0.96518 0.26248 0.0
C940 C 0.4233 0.93074 0.25045 0.0
H941 H 0.52084 0.94083 0.25875 0.0
H942 H 0.49735 0.91139 0.31167 0.0
H943 H 0.46195 0.89629 0.29094 0.0
H944 H 0.44617 0.90342 0.29782 0.0
H945 H 0.46151 0.90083 0.31189 0.0
H946 H 0.49592 0.95226 0.31198 0.0
H947 H 0.48027 0.93175 0.3235 0.0
H948 H 0.47209 0.94629 0.31381 0.0
H949 H 0.50247 0.96044 0.20879 0.0
H950 H 0.45523 0.97025 0.20382 0.0
H951 H 0.44771 0.96297 0.23186 0.0
H952 H 0.51666 0.98216 0.24394 0.0
H953 H 0.52638 0.96896 0.23452 0.0
H954 H 0.52291 0.96823 0.25583 0.0
H955 H 0.48244 0.92396 0.22774 0.0
H956 H 0.49514 0.92303 0.2443 0.0
H957 H 0.50784 0.93629 0.22698 0.0
H958 H 0.53556 0.92504 0.27208 0.0
C959 C 0.51548 0.93483 0.27023 0.0
C960 C 0.08042 0.49077 0.29728 0.0
C961 C 0.07865 0.47489 0.28875 0.0
C962 C 0.06693 0.46828 0.27507 0.0
C963 C 0.06095 0.49471 0.27729 0.0
C964 C 0.07151 0.50054 0.29128 0.0
C965 C 0.07365 0.51903 0.29767 0.0
H966 H 0.06782 0.59797 0.28279 0.0
C967 C 0.05559 0.50912 0.27312 0.0
C968 C 0.06273 0.52332 0.28513 0.0
H969 H 0.09505 0.58783 0.323 0.0
H970 H 0.08179 0.55473 0.31464 0.0
H971 H 0.07961 0.57796 0.25781 0.0
H972 H 0.02828 0.55815 0.28429 0.0
H973 H 0.02119 0.54576 0.26595 0.0
H974 H 0.03239 0.57158 0.26634 0.0
H975 H 0.06325 0.58655 0.25501 0.0
H976 H 0.06054 0.56599 0.24436 0.0
C977 C 0.09509 0.53415 0.29798 0.0
C978 C 0.06403 0.51515 0.31416 0.0
C979 C 0.02878 0.50765 0.21785 0.0
C980 C 0.02398 0.52012 0.2101 0.0
C981 C 0.02363 0.53478 0.21907 0.0
C982 C 0.02919 0.5378 0.23515 0.0
C983 C 0.03541 0.52621 0.24233 0.0
C984 C 0.03433 0.5109 0.23396 0.0
C985 C 0.04084 0.49968 0.24384 0.0
C986 C 0.04669 0.51131 0.2593 0.0
C987 C 0.04391 0.52706 0.25814 0.0
C988 C 0.05797 0.50027 0.23532 0.0
C989 C 0.02375 0.47926 0.2462 0.0
C990 C 0.07055 0.58855 0.29009 0.0
C991 C 0.0827 0.59561 0.30345 0.0
C992 C 0.08603 0.58284 0.31246 0.0
C993 C 0.07838 0.56367 0.30756 0.0
C994 C 0.06763 0.55734 0.29334 0.0
C995 C 0.06333 0.56956 0.28521 0.0
C996 C 0.05236 0.56084 0.27007 0.0
C997 C 0.05115 0.54147 0.27019 0.0
C998 C 0.06029 0.53952 0.28374 0.0
C999 C 0.06437 0.57341 0.256 0.0
C1000 C 0.03255 0.55906 0.27159 0.0
H1001 H 0.0495 0.4725 0.25873 0.0
H1002 H 0.08944 0.49614 0.3078 0.0
H1003 H 0.05072 0.50102 0.31416 0.0
H1004 H 0.05968 0.52569 0.31739 0.0
H1005 H 0.07348 0.51497 0.32369 0.0
H1006 H 0.10244 0.53208 0.28765 0.0
H1007 H 0.10205 0.53305 0.30905 0.0
H1008 H 0.09797 0.54896 0.29686 0.0
H1009 H 0.02909 0.49614 0.21137 0.0
H1010 H 0.01938 0.5442 0.21357 0.0
H1011 H 0.02912 0.54952 0.24119 0.0
H1012 H 0.06777 0.51492 0.23086 0.0
H1013 H 0.05322 0.49028 0.22491 0.0
H1014 H 0.06673 0.49682 0.24316 0.0
H1015 H 0.01001 0.47905 0.24514 0.0
H1016 H 0.02359 0.47372 0.25829 0.0
H1017 H 0.0236 0.46906 0.23716 0.0
H1018 H 0.06523 0.4559 0.26849 0.0
C1019 C 0.05788 0.47797 0.26941 0.0
C1020 C 0.41824 0.49076 0.29723 0.0
C1021 C 0.40324 0.47428 0.29016 0.0
C1022 C 0.40586 0.46833 0.27496 0.0
C1023 C 0.43745 0.49591 0.2737 0.0
C1024 C 0.43507 0.50132 0.28881 0.0
C1025 C 0.45165 0.52002 0.29416 0.0
H1026 H 0.53128 0.60087 0.27527 0.0
C1027 C 0.45611 0.51076 0.26782 0.0
C1028 C 0.46449 0.52486 0.27983 0.0
H1029 H 0.4974 0.58808 0.31786 0.0
H1030 H 0.47853 0.55536 0.30936 0.0
H1031 H 0.53347 0.56303 0.27406 0.0
H1032 H 0.49584 0.57831 0.25073 0.0
H1033 H 0.50507 0.56883 0.23661 0.0
H1034 H 0.52101 0.58979 0.24777 0.0
H1035 H 0.53918 0.57456 0.25506 0.0
H1036 H 0.52563 0.54878 0.25663 0.0
C1037 C 0.46057 0.51633 0.30914 0.0
C1038 C 0.44461 0.53456 0.2968 0.0
C1039 C 0.47585 0.50897 0.21047 0.0
C1040 C 0.49255 0.52101 0.20212 0.0
C1041 C 0.50803 0.53596 0.2104 0.0
C1042 C 0.50662 0.53955 0.22653 0.0
C1043 C 0.48952 0.52819 0.23447 0.0
C1044 C 0.47479 0.51264 0.22673 0.0
C1045 C 0.45838 0.50129 0.23772 0.0
C1046 C 0.46547 0.51316 0.25303 0.0
C1047 C 0.48352 0.52918 0.25083 0.0
C1048 C 0.45603 0.48113 0.2397 0.0
C1049 C 0.44068 0.50119 0.23073 0.0
C1050 C 0.51974 0.591 0.28272 0.0
C1051 C 0.51569 0.59723 0.29714 0.0
C1052 C 0.50095 0.58376 0.30674 0.0
C1053 C 0.4898 0.56475 0.30168 0.0
C1054 C 0.49311 0.55913 0.28672 0.0
C1055 C 0.50821 0.57198 0.2777 0.0
C1056 C 0.50932 0.56345 0.26199 0.0
C1057 C 0.49177 0.54367 0.26279 0.0
C1058 C 0.48236 0.54136 0.27727 0.0
C1059 C 0.52787 0.56246 0.2618 0.0
C1060 C 0.50781 0.57568 0.24848 0.0
H1061 H 0.42388 0.47396 0.2551 0.0
H1062 H 0.41679 0.49565 0.30893 0.0
H1063 H 0.43115 0.53027 0.29019 0.0
H1064 H 0.45457 0.54896 0.29221 0.0
H1065 H 0.44195 0.5358 0.30962 0.0
H1066 H 0.4607 0.50265 0.30785 0.0
H1067 H 0.45237 0.51529 0.32001 0.0
H1068 H 0.47555 0.52743 0.31111 0.0
H1069 H 0.4639 0.49712 0.20445 0.0
H1070 H 0.52103 0.54537 0.20422 0.0
H1071 H 0.51872 0.55137 0.23209 0.0
H1072 H 0.46996 0.48171 0.23899 0.0
H1073 H 0.44668 0.47113 0.2302 0.0
H1074 H 0.45043 0.47491 0.2515 0.0
H1075 H 0.44448 0.51565 0.22631 0.0
H1076 H 0.42947 0.49762 0.23958 0.0
H1077 H 0.43458 0.49096 0.22053 0.0
H1078 H 0.39447 0.45579 0.26912 0.0
C1079 C 0.4229 0.479 0.26674 0.0
O1080 O 0.51074 0.98496 0.96145 0.0
Mg1081 Mg 0.52734 0.98206 0.97937 0.0
O1082 O 0.49716 -0.00188 0.97591 0.0
Mg1083 Mg 0.5025 0.99489 0.00303 0.0
O1084 O 0.50979 0.9721 0.99797 0.0
O1085 O 0.52159 0.95518 0.98768 0.0
O1086 O 0.50913 0.9884 0.02966 0.0
O1087 O 0.47157 0.97094 0.00454 0.0
Mg1088 Mg 0.49344 0.00578 0.02591 0.0
O1089 O 0.49378 0.01952 0.00569 0.0
O1090 O 0.51895 0.01681 0.03917 0.0
O1091 O 0.46991 0.97745 0.02968 0.0
O1092 O 0.48363 0.02377 0.02944 0.0
C1093 C 0.54961 0.02094 0.99666 0.0
C1094 C 0.50044 0.99265 0.96251 0.0
C1095 C 0.51151 0.95713 0.9985 0.0
C1096 C 0.51791 0.00082 0.04062 0.0
C1097 C 0.46269 0.96647 0.01764 0.0
C1098 C 0.4869 0.02793 0.01456 0.0
O1099 O 0.55042 0.0079 0.98867 0.0
O1100 O 0.53396 0.01908 0.0016 0.0
O1101 O 0.0156 0.53011 0.96441 0.0
Mg1102 Mg 0.01108 0.54366 0.98401 0.0
O1103 O 0.00095 0.50109 0.9751 0.0
Mg1104 Mg 1e-05 0.5037 0.00286 0.0
O1105 O 0.02011 0.53521 0.0032 0.0
O1106 O 0.03383 0.56566 0.9967 0.0
O1107 O -0.00027 0.50604 0.03031 0.0
O1108 O 0.02886 0.50283 0.0038 0.0
Mg1109 Mg -0.00064 0.47313 0.01132 0.0
O1110 O 0.97535 0.47103 0.00207 0.0
O1111 O 0.00744 0.48398 0.03499 0.0
O1112 O 0.01868 0.47416 0.99437 0.0
O1113 O 0.97731 0.44654 0.01291 0.0
C1114 C 0.97004 0.52024 0.99568 0.0
C1115 C 0.00847 0.51211 0.96319 0.0
C1116 C 0.03305 0.55261 0.00597 0.0
C1117 C 0.0045 0.4971 0.04005 0.0
C1118 C 0.03231 0.4907 0.99712 0.0
C1119 C 0.96765 0.45306 0.00581 0.0
O1120 O 0.98226 0.53504 0.98841 0.0
O1121 O 0.97396 0.50807 0.00161 0.0
O1122 O 0.50616 0.49049 0.04006 0.0
Mg1123 Mg 0.48221 0.46995 0.02746 0.0
O1124 O 0.50719 0.51272 0.0241 0.0
Mg1125 Mg 0.49827 0.49928 0.99807 0.0
O1126 O 0.49071 0.46941 0.0051 0.0
O1127 O 0.48046 0.4442 0.02068 0.0
O1128 O 0.48898 0.486 0.9721 0.0
O1129 O 0.5288 0.5056 0.99421 0.0
Mg1130 Mg 0.51778 0.53038 0.96926 0.0
O1131 O 0.50601 0.52903 0.99067 0.0
O1132 O 0.49596 0.50957 0.95502 0.0
O1133 O 0.54118 0.52598 0.97405 0.0
O1134 O 0.51717 0.55504 0.97605 0.0
C1135 C 0.45599 0.48429 0.01352 0.0
C1136 C 0.51118 0.5078 0.03741 0.0
C1137 C 0.48696 0.45206 0.00709 0.0
C1138 C 0.48775 0.4919 0.95824 0.0
C1139 C 0.54239 0.51547 0.98475 0.0
C1140 C 0.50933 0.54628 0.98905 0.0
O1141 O 0.45919 0.47544 0.02456 0.0
O1142 O 0.46775 0.49284 0.00235 0.0
O1143 O 0.15766 0.3153 0.29459 0.0
Mg1144 Mg 0.17755 0.31156 0.30779 0.0
O1145 O 0.15849 0.33729 0.31125 0.0
Mg1146 Mg 0.16658 0.33194 0.33702 0.0
O1147 O 0.16745 0.30552 0.32995 0.0
O1148 O 0.17143 0.28457 0.31606 0.0
O1149 O 0.1751 0.32691 0.36311 0.0
O1150 O 0.13507 0.31178 0.34115 0.0
Mg1151 Mg 0.1544 0.34702 0.36622 0.0
O1152 O 0.16575 0.35865 0.3445 0.0
O1153 O 0.17838 0.3508 0.37853 0.0
O1154 O 0.13076 0.31824 0.36591 0.0
O1155 O 0.14673 0.36615 0.35741 0.0
C1156 C 0.20996 0.35031 0.32184 0.0
C1157 C 0.15422 0.32867 0.2977 0.0
C1158 C 0.16712 0.28943 0.32938 0.0
C1159 C 0.18099 0.33677 0.3761 0.0
C1160 C 0.12497 0.30761 0.35355 0.0
C1161 C 0.15512 0.3663 0.3444 0.0
O1162 O 0.20469 0.33652 0.31185 0.0
O1163 O 0.19841 0.35115 0.33164 0.0
O1164 O 0.66894 0.86356 0.30107 0.0
Mg1165 Mg 0.67255 0.87738 0.32353 0.0
O1166 O 0.66399 0.83532 0.30967 0.0
Mg1167 Mg 0.66606 0.83632 0.3374 0.0
O1168 O 0.68614 0.86784 0.33776 0.0
O1169 O 0.69866 0.89859 0.33274 0.0
O1170 O 0.66842 0.83788 0.36503 0.0
O1171 O 0.69485 0.83558 0.33515 0.0
Mg1172 Mg 0.66633 0.80464 0.34551 0.0
O1173 O 0.64247 0.80354 0.33655 0.0
O1174 O 0.6748 0.81477 0.36918 0.0
O1175 O 0.68581 0.806 0.32873 0.0
O1176 O 0.6438 0.77829 0.34642 0.0
C1177 C 0.63516 0.85316 0.33956 0.0
C1178 C 0.66537 0.84653 0.2984 0.0
C1179 C 0.69964 0.8851 0.34006 0.0
C1180 C 0.6729 0.82844 0.37448 0.0
C1181 C 0.69882 0.82319 0.32973 0.0
C1182 C 0.63446 0.78537 0.33964 0.0
O1183 O 0.64713 0.87008 0.33545 0.0
O1184 O 0.63917 0.83971 0.33951 0.0
O1185 O 0.16712 0.81713 0.37496 0.0
Mg1186 Mg 0.1449 0.79712 0.36044 0.0
O1187 O 0.17031 0.84073 0.35946 0.0
Mg1188 Mg 0.16357 0.82913 0.3329 0.0
O1189 O 0.15594 0.799 0.33871 0.0
O1190 O 0.14468 0.77239 0.35258 0.0
O1191 O 0.15611 0.81461 0.30673 0.0
O1192 O 0.19431 0.83598 0.33083 0.0
Mg1193 Mg 0.17307 0.8488 0.30854 0.0
O1194 O 0.1722 0.86193 0.32898 0.0
O1195 O 0.14726 0.83318 0.29591 0.0
O1196 O 0.19629 0.84347 0.30552 0.0
O1197 O 0.18266 0.87678 0.30553 0.0
C1198 C 0.1196 0.81206 0.34561 0.0
C1199 C 0.17287 0.83471 0.37282 0.0
C1200 C 0.15245 0.78163 0.33975 0.0
C1201 C 0.14764 0.81781 0.29535 0.0
C1202 C 0.20321 0.8399 0.31775 0.0
C1203 C 0.17898 0.87735 0.32039 0.0
O1204 O 0.12186 0.80223 0.35634 0.0
O1205 O 0.13244 0.82191 0.33551 0.0
O1206 O 0.83628 0.66027 0.62702 0.0
Mg1207 Mg 0.85463 0.65576 0.64177 0.0
O1208 O 0.82592 0.67297 0.64541 0.0
Mg1209 Mg 0.83382 0.66695 0.67102 0.0
O1210 O 0.83977 0.6444 0.66175 0.0
O1211 O 0.84946 0.62814 0.64731 0.0
O1212 O 0.84201 0.66009 0.69637 0.0
O1213 O 0.80266 0.64322 0.67397 0.0
Mg1214 Mg 0.81717 0.67759 0.70099 0.0
O1215 O 0.82752 0.69005 0.67969 0.0
O1216 O 0.83926 0.67856 0.7145 0.0
O1217 O 0.79265 0.6502 0.69632 0.0
O1218 O 0.8172 0.70293 0.69771 0.0
C1219 C 0.87979 0.69305 0.66077 0.0
C1220 C 0.82706 0.66851 0.63092 0.0
C1221 C 0.84125 0.62937 0.65998 0.0
C1222 C 0.84508 0.66728 0.71046 0.0
C1223 C 0.78992 0.63916 0.68444 0.0
C1224 C 0.82425 0.70359 0.68383 0.0
O1225 O 0.87906 0.681 0.65049 0.0
O1226 O 0.86526 0.69061 0.66843 0.0
O1227 O 0.34565 0.17315 0.6278 0.0
Mg1228 Mg 0.34724 0.19689 0.63979 0.0
O1229 O 0.32558 0.15209 0.64515 0.0
Mg1230 Mg 0.33083 0.16697 0.67043 0.0
O1231 O 0.35468 0.19455 0.66211 0.0
O1232 O 0.37343 0.21978 0.64803 0.0
O1233 O 0.33736 0.18323 0.69526 0.0
O1234 O 0.35222 0.15764 0.67648 0.0
Mg1235 Mg 0.31621 0.14272 0.70095 0.0
O1236 O 0.30638 0.13791 0.6782 0.0
O1237 O 0.31341 0.16518 0.71067 0.0
O1238 O 0.3436 0.1445 0.70044 0.0
O1239 O 0.2915 0.11699 0.69748 0.0
C1240 C 0.30785 0.18706 0.65364 0.0
C1241 C 0.33351 0.15613 0.63147 0.0
C1242 C 0.36998 0.21076 0.66132 0.0
C1243 C 0.32779 0.18117 0.70783 0.0
C1244 C 0.35514 0.15027 0.68881 0.0
C1245 C 0.2926 0.12152 0.68264 0.0
O1246 O 0.32052 0.1957 0.64311 0.0
O1247 O 0.30942 0.17676 0.66439 0.0
O1248 O 0.81807 0.14023 0.70742 0.0
Mg1249 Mg 0.79939 0.12331 0.689 0.0
O1250 O 0.83417 0.16737 0.69388 0.0
Mg1251 Mg 0.82883 0.16 0.66652 0.0
O1252 O 0.8164 0.12857 0.67021 0.0
O1253 O 0.79962 0.09934 0.67947 0.0
O1254 O 0.82162 0.14809 0.63943 0.0
O1255 O 0.85804 0.16232 0.66576 0.0
Mg1256 Mg 0.84193 0.18084 0.64451 0.0
O1257 O 0.84233 0.1943 0.6651 0.0
O1258 O 0.81737 0.17063 0.63016 0.0
O1259 O 0.86196 0.17131 0.64083 0.0
O1260 O 0.85646 0.20931 0.64246 0.0
C1261 C 0.78299 0.14611 0.67286 0.0
C1262 C 0.83004 0.15802 0.70693 0.0
C1263 C 0.81144 0.11078 0.66915 0.0
C1264 C 0.81526 0.15419 0.62838 0.0
C1265 C 0.8673 0.16578 0.6529 0.0
C1266 C 0.852 0.21002 0.65707 0.0
O1267 O 0.77978 0.13158 0.68103 0.0
O1268 O 0.79934 0.15778 0.66742 0.0
C1269 C 0.29359 0.88284 0.03234 0.0
C1270 C 0.28383 0.86285 0.03377 0.0
C1271 C 0.31262 0.89257 0.02793 0.0
C1272 C 0.35226 0.88699 0.01228 0.0
H1273 H 0.38219 0.93086 0.03992 0.0
C1274 C 0.4346 0.94366 0.03339 0.0
C1275 C 0.44327 0.94994 0.01851 0.0
C1276 C 0.41528 0.93046 0.03427 0.0
C1277 C 0.37409 0.91851 0.03222 0.0
H1278 H 0.28597 0.83725 0.03087 0.0
H1279 H 0.31928 0.85427 0.02337 0.0
H1280 H 0.34796 0.91374 0.04194 0.0
H1281 H 0.43887 0.94612 0.99287 0.0
H1282 H 0.40494 0.9233 0.99444 0.0
H1283 H 0.3787 0.89174 0.0028 0.0
C1284 C 0.3122 0.86242 0.02544 0.0
C1285 C 0.35441 0.9089 0.03317 0.0
C1286 C 0.29312 0.85267 0.02975 0.0
C1287 C 0.43254 0.94163 0.00452 0.0
C1288 C 0.41312 0.9285 0.00541 0.0
C1289 C 0.37208 0.8967 0.0113 0.0
C1290 C 0.32232 0.88252 0.02502 0.0
C1291 C 0.34323 0.89304 0.02323 0.0
C1292 C 0.40417 0.9234 0.0203 0.0
C1293 C 0.38318 0.9125 0.02135 0.0
H1294 H 0.28667 0.89099 0.0351 0.0
H1295 H 0.31992 0.90804 0.02733 0.0
H1296 H 0.34401 0.87483 0.00443 0.0
H1297 H 0.44258 0.94954 0.04438 0.0
H1298 H 0.40887 0.92638 0.04593 0.0
C1299 C 0.15378 0.44995 0.02437 0.0
C1300 C 0.14366 0.43178 0.03135 0.0
C1301 C 0.14441 0.45952 0.01927 0.0
C1302 C 0.09743 0.45031 0.00659 0.0
H1303 H 0.11715 0.50435 0.01538 0.0
C1304 C 0.06393 0.5016 0.00961 0.0
C1305 C 0.05157 0.49355 0.99647 0.0
C1306 C 0.0791 0.49825 0.01163 0.0
C1307 C 0.11155 0.48928 0.01278 0.0
H1308 H 0.11581 0.40945 0.03855 0.0
H1309 H 0.09943 0.42621 0.02975 0.0
H1310 H 0.13485 0.48888 0.02449 0.0
H1311 H 0.04669 0.47818 0.97408 0.0
H1312 H 0.07365 0.47312 0.97718 0.0
H1313 H 0.07385 0.45032 0.99546 0.0
C1314 C 0.1146 0.43298 0.0281 0.0
C1315 C 0.1217 0.48046 0.01792 0.0
C1316 C 0.12399 0.42344 0.03325 0.0
C1317 C 0.05596 0.48432 0.9844 0.0
C1318 C 0.07127 0.48129 0.98626 0.0
C1319 C 0.08736 0.45909 0.00144 0.0
C1320 C 0.12471 0.45107 0.02098 0.0
C1321 C 0.11457 0.46082 0.01505 0.0
C1322 C 0.08216 0.48703 0.00041 0.0
C1323 C 0.0942 0.47863 0.00456 0.0
H1324 H 0.16901 0.45686 0.02299 0.0
H1325 H 0.15253 0.47339 0.01375 0.0
H1326 H 0.0917 0.43522 0.00403 0.0
H1327 H 0.06075 0.50873 0.0191 0.0
H1328 H 0.08726 0.50293 0.02264 0.0
C1329 C 0.55054 0.69656 0.04854 0.0
C1330 C 0.56302 0.70862 0.03686 0.0
C1331 C 0.54151 0.67672 0.04666 0.0
C1332 C 0.54837 0.6399 0.0286 0.0
H1333 H 0.49388 0.60661 0.03125 0.0
C1334 C 0.49713 0.56713 0.99814 0.0
C1335 C 0.50632 0.55685 0.00184 0.0
C1336 C 0.5 0.58258 0.00769 0.0
C1337 C 0.50913 0.61573 0.03082 0.0
H1338 H 0.57563 0.70972 0.01396 0.0
H1339 H 0.56002 0.67476 0.01074 0.0
H1340 H 0.50785 0.64118 0.03592 0.0
H1341 H 0.52421 0.55322 0.019 0.0
H1342 H 0.5297 0.58071 0.0356 0.0
H1343 H 0.54973 0.61471 0.02309 0.0
C1344 C 0.55722 0.68073 0.02131 0.0
C1345 C 0.51709 0.63544 0.03339 0.0
C1346 C 0.56601 0.70062 0.02306 0.0
C1347 C 0.51681 0.56087 0.01609 0.0
C1348 C 0.52005 0.57663 0.02549 0.0
C1349 C 0.54048 0.62023 0.02632 0.0
C1350 C 0.54509 0.66866 0.0332 0.0
C1351 C 0.53671 0.6477 0.03181 0.0
C1352 C 0.51251 0.58822 0.02081 0.0
C1353 C 0.52075 0.60803 0.02698 0.0
H1354 H 0.54805 0.70253 0.05926 0.0
H1355 H 0.53224 0.66769 0.05597 0.0
H1356 H 0.56357 0.64908 0.02754 0.0
H1357 H 0.4891 0.56428 0.9871 0.0
H1358 H 0.49411 0.59132 0.00377 0.0
C1359 C 0.86292 0.28982 0.98982 0.0
C1360 C 0.85958 0.28369 0.9738 0.0
C1361 C 0.87053 0.30915 0.99374 0.0
C1362 C 0.88053 0.35603 0.97682 0.0
H1363 H 0.9173 0.37608 0.01148 0.0
C1364 C 0.94247 0.43351 0.98602 0.0
C1365 C 0.94784 0.43946 0.00189 0.0
C1366 C 0.92635 0.41578 0.98275 0.0
C1367 C 0.90675 0.37066 0.00198 0.0
H1368 H 0.8615 0.29324 0.94932 0.0
H1369 H 0.87592 0.32694 0.95609 0.0
H1370 H 0.90102 0.34216 0.00552 0.0
H1371 H 0.9398 0.43324 0.02663 0.0
H1372 H 0.91138 0.40258 0.02093 0.0
H1373 H 0.88747 0.38511 0.97278 0.0
C1374 C 0.87214 0.31678 0.96569 0.0
C1375 C 0.89738 0.35115 0.99855 0.0
C1376 C 0.86425 0.29742 0.96179 0.0
C1377 C 0.9358 0.42883 0.0143 0.0
C1378 C 0.91964 0.41129 0.01104 0.0
C1379 C 0.89018 0.37572 0.98013 0.0
C1380 C 0.8753 0.32289 0.98172 0.0
C1381 C 0.88427 0.34357 0.98585 0.0
C1382 C 0.91559 0.40401 0.99536 0.0
C1383 C 0.90345 0.38318 0.9927 0.0
H1384 H 0.85963 0.27969 -0.00062 0.0
H1385 H 0.87254 0.31327 0.00623 0.0
H1386 H 0.87029 0.35064 0.9671 0.0
H1387 H 0.95177 0.4415 0.97633 0.0
H1388 H 0.92353 0.41047 0.97055 0.0
C1389 C 0.70971 0.57957 0.98711 0.0
C1390 C 0.71473 0.57819 0.97132 0.0
C1391 C 0.69093 0.56865 0.99205 0.0
C1392 C 0.64458 0.5267 0.97963 0.0
H1393 H 0.62345 0.55137 0.00552 0.0
C1394 C 0.5707 0.51649 0.97283 0.0
C1395 C 0.56024 0.51526 0.98645 0.0
C1396 C 0.58872 0.51867 0.97436 0.0
C1397 C 0.62924 0.54409 0.99863 0.0
H1398 H 0.70382 0.5643 0.94833 0.0
H1399 H 0.67107 0.54623 0.95664 0.0
H1400 H 0.65755 0.56735 0.00149 0.0
H1401 H 0.5598 0.51434 0.0123 0.0
H1402 H 0.59198 0.51915 0.01499 0.0
H1403 H 0.61593 0.5042 0.97572 0.0
C1404 C 0.6817 0.55524 0.96539 0.0
C1405 C 0.64878 0.55324 0.99628 0.0
C1406 C 0.70046 0.56599 0.96051 0.0
C1407 C 0.56767 0.51529 0.00163 0.0
C1408 C 0.58598 0.518 0.00318 0.0
C1409 C 0.62501 0.5177 0.98178 0.0
C1410 C 0.67672 0.55624 0.98127 0.0
C1411 C 0.65658 0.54503 0.98619 0.0
C1412 C 0.59675 0.52011 0.98954 0.0
C1413 C 0.61717 0.5267 0.99078 0.0
H1414 H 0.72032 0.58898 0.99572 0.0
H1415 H 0.68761 0.56978 0.00437 0.0
H1416 H 0.65019 0.51968 0.97221 0.0
H1417 H 0.56515 0.51632 0.961 0.0
H1418 H 0.59685 0.52046 0.96367 0.0
C1419 C 0.43221 0.12813 0.95016 0.0
C1420 C 0.422 0.13344 0.96043 0.0
C1421 C 0.44064 0.1179 0.95588 0.0
C1422 C 0.43631 0.08548 0.98813 0.0
H1423 H 0.4861 0.09601 0.97462 0.0
C1424 C 0.47384 0.04983 0.01775 0.0
C1425 C 0.48189 0.04174 0.00778 0.0
C1426 C 0.46764 0.06173 0.01155 0.0
C1427 C 0.47211 0.09281 0.97833 0.0
H1428 H 0.41296 0.13261 0.98483 0.0
H1429 H 0.42782 0.1148 0.99491 0.0
H1430 H 0.47344 0.1161 0.96509 0.0
H1431 H 0.4903 0.04036 0.98352 0.0
H1432 H 0.47944 0.06148 0.97262 0.0
H1433 H 0.43495 0.06229 0.00139 0.0
C1434 C 0.42913 0.11839 0.98237 0.0
C1435 C 0.46487 0.1043 0.97292 0.0
C1436 C 0.42076 0.12871 0.97665 0.0
C1437 C 0.48414 0.04636 0.99149 0.0
C1438 C 0.47798 0.05845 0.98527 0.0
C1439 C 0.44354 0.07407 0.99354 0.0
C1440 C 0.43899 0.11271 0.972 0.0
C1441 C 0.44692 0.10079 0.97784 0.0
C1442 C 0.46935 0.06594 0.99524 0.0
C1443 C 0.46155 0.07768 0.98879 0.0
H1444 H 0.43366 0.13186 0.93764 0.0
H1445 H 0.44803 0.11364 0.94758 0.0
H1446 H 0.42227 0.08214 0.99184 0.0
H1447 H 0.47198 0.04673 0.03038 0.0
H1448 H 0.46137 0.06758 0.01957 0.0
C1449 C 0.70278 0.11536 0.96319 0.0
C1450 C 0.71576 0.13498 0.9654 0.0
C1451 C 0.68461 0.10725 0.96956 0.0
C1452 C 0.65642 0.1044 0.00071 0.0
H1453 H 0.61452 0.08979 0.97101 0.0
C1454 C 0.56917 0.05655 0.99597 0.0
C1455 C 0.56742 0.03882 -0.00023 0.0
C1456 C 0.58713 0.07297 0.99557 0.0
C1457 C 0.62605 0.09421 0.97954 0.0
H1458 H 0.71961 0.16141 0.976 0.0
H1459 H 0.68801 0.14686 0.9876 0.0
H1460 H 0.64714 0.10927 0.96182 0.0
H1461 H 0.5824 0.0244 0.00758 0.0
H1462 H 0.61364 0.0531 0.00738 0.0
H1463 H 0.63537 0.08807 0.01815 0.0
C1464 C 0.69207 0.13797 0.98087 0.0
C1465 C 0.64464 0.10518 0.97424 0.0
C1466 C 0.71017 0.14618 0.97433 0.0
C1467 C 0.58351 0.03797 0.00456 0.0
C1468 C 0.60132 0.0544 0.00456 0.0
C1469 C 0.6378 0.09316 0.00598 0.0
C1470 C 0.67918 0.11852 0.97839 0.0
C1471 C 0.65987 0.10984 0.98468 0.0
C1472 C 0.60339 0.07185 -0.00063 0.0
C1473 C 0.6225 0.08749 0.99528 0.0
H1474 H 0.70665 0.10626 0.95658 0.0
H1475 H 0.67475 0.09213 0.96762 0.0
H1476 H 0.66809 0.10791 0.00889 0.0
H1477 H 0.55689 0.05744 0.99218 0.0
H1478 H 0.58842 0.08629 0.9915 0.0
C1479 C 0.84889 0.56065 0.97763 0.0
C1480 C 0.861 0.57933 0.97219 0.0
C1481 C 0.85633 0.55008 0.98453 0.0
C1482 C 0.89916 0.55408 0.00321 0.0
H1483 H 0.88433 0.50553 0.98219 0.0
C1484 C 0.94321 0.51765 0.01168 0.0
C1485 C 0.95082 0.51723 0.99682 0.0
C1486 C 0.92701 0.51948 0.01242 0.0
C1487 C 0.8883 0.51884 0.98843 0.0
H1488 H 0.89026 0.60179 0.97006 0.0
H1489 H 0.90335 0.5833 0.98221 0.0
H1490 H 0.86662 0.52204 0.97672 0.0
H1491 H 0.94703 0.51668 0.97121 0.0
H1492 H 0.91852 0.5193 0.97243 0.0
H1493 H 0.92153 0.55146 0.01418 0.0
C1494 C 0.8881 0.57691 0.98121 0.0
C1495 C 0.87819 0.52827 0.98532 0.0
C1496 C 0.88066 0.58742 0.97412 0.0
C1497 C 0.94127 0.51694 0.98277 0.0
C1498 C 0.92491 0.51832 0.9835 0.0
C1499 C 0.90913 0.54454 0.00646 0.0
C1500 C 0.876 0.55807 0.98628 0.0
C1501 C 0.88409 0.54638 0.99213 0.0
C1502 C 0.91814 0.52049 0.99829 0.0
C1503 C 0.90432 0.52728 0.99853 0.0
H1504 H 0.83366 0.554 0.97611 0.0
H1505 H 0.84674 0.53557 0.98832 0.0
H1506 H 0.90382 0.56793 0.00875 0.0
H1507 H 0.95055 0.51803 0.02262 0.0
H1508 H 0.92204 0.52117 0.02394 0.0
C1509 C 0.41503 0.29514 0.96846 0.0
C1510 C 0.42385 0.28421 0.97118 0.0
C1511 C 0.42551 0.3151 0.9692 0.0
C1512 C 0.46858 0.35526 0.98602 0.0
H1513 H 0.46082 0.3844 0.95313 0.0
C1514 C 0.50159 0.43453 0.99539 0.0
C1515 C 0.48815 0.44047 0.99419 0.0
C1516 C 0.49848 0.41787 0.98757 0.0
C1517 C 0.46319 0.37649 0.96238 0.0
H1518 H 0.45051 0.28572 0.9773 0.0
H1519 H 0.46866 0.32055 0.97906 0.0
H1520 H 0.44466 0.3495 0.95102 0.0
H1521 H 0.46204 0.43517 0.98285 0.0
H1522 H 0.45615 0.40576 0.96956 0.0
H1523 H 0.48619 0.38184 0.9979 0.0
C1524 C 0.45365 0.31363 0.97624 0.0
C1525 C 0.45389 0.35652 0.9612 0.0
C1526 C 0.4432 0.29367 0.97539 0.0
C1527 C 0.47267 0.43086 0.98373 0.0
C1528 C 0.46933 0.41397 0.97614 0.0
C1529 C 0.47773 0.37515 0.98728 0.0
C1530 C 0.445 0.32454 0.97281 0.0
C1531 C 0.45616 0.34572 0.97322 0.0
C1532 C 0.48155 0.4066 0.9789 0.0
C1533 C 0.4748 0.38602 0.97569 0.0
H1534 H 0.40008 0.28828 0.96542 0.0
H1535 H 0.41838 0.32316 0.96689 0.0
H1536 H 0.47049 0.3473 0.99551 0.0
H1537 H 0.51359 0.44179 0.0035 0.0
H1538 H 0.50848 0.41291 0.98952 0.0
C1539 C 0.12522 0.69421 0.04102 0.0
C1540 C 0.14425 0.70589 0.03664 0.0
C1541 C 0.11727 0.67441 0.04166 0.0
C1542 C 0.11968 0.63421 0.02558 0.0
H1543 H 0.08898 0.60829 0.06234 0.0
C1544 C 0.06382 0.55878 0.01668 0.0
C1545 C 0.04655 0.55818 0.01922 0.0
C1546 C 0.08014 0.57233 0.02483 0.0
C1547 C 0.0977 0.61526 0.05209 0.0
H1548 H 0.16955 0.70579 0.02873 0.0
H1549 H 0.15525 0.67095 0.02919 0.0
H1550 H 0.10912 0.64308 0.06283 0.0
H1551 H 0.03179 0.56873 0.03369 0.0
H1552 H 0.05991 0.59225 0.04788 0.0
H1553 H 0.10717 0.60685 0.0142 0.0
C1554 C 0.14672 0.6773 0.03244 0.0
C1555 C 0.10914 0.63516 0.05235 0.0
C1556 C 0.15479 0.6972 0.03199 0.0
C1557 C 0.04506 0.56899 0.03165 0.0
C1558 C 0.06129 0.58251 0.03979 0.0
C1559 C 0.10807 0.61434 0.02523 0.0
C1560 C 0.12807 0.66582 0.03774 0.0
C1561 C 0.11945 0.64483 0.03879 0.0
C1562 C 0.07924 0.58551 0.03538 0.0
C1563 C 0.0961 0.60475 0.03814 0.0
H1564 H 0.1166 0.70042 0.04436 0.0
H1565 H 0.10264 0.66578 0.0453 0.0
H1566 H 0.12758 0.64135 0.01501 0.0
H1567 H 0.06518 0.55051 0.00706 0.0
H1568 H 0.09369 0.57394 0.02151 0.0
C1569 C 0.28609 0.41626 0.02581 0.0
C1570 C 0.28253 0.41585 0.04228 0.0
C1571 C 0.30474 0.42562 0.02022 0.0
C1572 C 0.35237 0.43931 0.03404 0.0
H1573 H 0.37148 0.47679 0.00018 0.0
C1574 C 0.4305 0.48558 0.02827 0.0
C1575 C 0.43773 0.48379 0.01364 0.0
C1576 C 0.41156 0.4806 0.02944 0.0
C1577 C 0.36622 0.46625 0.00957 0.0
H1578 H 0.29565 0.42583 0.06562 0.0
H1579 H 0.32793 0.44174 0.05594 0.0
H1580 H 0.33739 0.45997 0.0065 0.0
H1581 H 0.43166 0.47733 0.98843 0.0
H1582 H 0.39799 0.46791 0.99061 0.0
H1583 H 0.38085 0.4455 0.03737 0.0
C1584 C 0.31639 0.43456 0.04738 0.0
C1585 C 0.34681 0.45662 0.01313 0.0
C1586 C 0.2979 0.42531 0.05294 0.0
C1587 C 0.42626 0.47874 -0.00016 0.0
C1588 C 0.40709 0.47342 0.00107 0.0
C1589 C 0.37155 0.44887 0.03056 0.0
C1590 C 0.32003 0.43462 0.03102 0.0
C1591 C 0.33988 0.44342 0.02569 0.0
C1592 C 0.39944 0.47334 0.01608 0.0
C1593 C 0.37876 0.46278 0.01861 0.0
H1594 H 0.2745 0.40913 0.01731 0.0
H1595 H 0.30722 0.42543 0.00755 0.0
H1596 H 0.34733 0.42887 0.04351 0.0
H1597 H 0.43922 0.48977 0.03899 0.0
H1598 H 0.40604 0.48104 0.04108 0.0
C1599 C 0.57699 0.88022 0.04944 0.0
C1600 C 0.57039 0.86053 0.04752 0.0
C1601 C 0.56457 0.88735 0.04788 0.0
C1602 C 0.52189 0.87907 0.02792 0.0
H1603 H 0.52162 0.91416 0.05966 0.0
C1604 C 0.49195 0.92468 0.00914 0.0
C1605 C 0.50509 0.94402 0.01194 0.0
C1606 C 0.49221 0.91066 0.01867 0.0
C1607 C 0.52146 0.90437 0.05068 0.0
H1608 H 0.54543 0.83298 0.0422 0.0
H1609 H 0.52409 0.8457 0.03868 0.0
H1610 H 0.53945 0.89773 0.06482 0.0
H1611 H 0.52716 0.96428 0.02775 0.0
H1612 H 0.5283 0.94015 0.04397 0.0
H1613 H 0.50544 0.88666 0.01314 0.0
C1614 C 0.53884 0.85547 0.04165 0.0
C1615 C 0.53167 0.89498 0.05367 0.0
C1616 C 0.55117 0.84826 0.04347 0.0
C1617 C 0.51676 0.94937 0.02554 0.0
C1618 C 0.51739 0.9354 0.03483 0.0
C1619 C 0.51201 0.8887 0.0248 0.0
C1620 C 0.54537 0.875 0.04411 0.0
C1621 C 0.53245 0.88275 0.04207 0.0
C1622 C 0.50621 0.91588 0.03064 0.0
C1623 C 0.51225 0.90208 0.03588 0.0
H1624 H 0.59174 0.89016 0.05224 0.0
H1625 H 0.57002 0.90257 0.04945 0.0
H1626 H 0.5223 0.86971 0.0188 0.0
H1627 H 0.48286 0.92032 0.99863 0.0
H1628 H 0.48282 0.89577 0.01553 0.0
C1629 C 0.95798 0.18285 0.36242 0.0
C1630 C 0.94932 0.19353 0.36689 0.0
C1631 C 0.97717 0.19213 0.35836 0.0
C1632 C 0.01791 0.22173 0.34384 0.0
H1633 H 0.04672 0.2533 0.38007 0.0
C1634 C 0.09455 0.28498 0.33979 0.0
C1635 C 0.10617 0.29028 0.35349 0.0
C1636 C 0.07602 0.26953 0.34022 0.0
C1637 C 0.03905 0.24432 0.36992 0.0
H1638 H 0.95347 0.22217 0.36926 0.0
H1639 H 0.98704 0.23831 0.36248 0.0
H1640 H 0.01258 0.23345 0.38187 0.0
H1641 H 0.10842 0.28274 0.37782 0.0
H1642 H 0.07638 0.25522 0.37841 0.0
H1643 H 0.04446 0.23297 0.33173 0.0
C1644 C 0.97897 0.22281 0.36221 0.0
C1645 C 0.01945 0.23312 0.37093 0.0
C1646 C 0.95984 0.21358 0.36616 0.0
C1647 C 0.09951 0.27916 0.36725 0.0
C1648 C 0.08118 0.26344 0.36756 0.0
C1649 C 0.03767 0.23308 0.34277 0.0
C1650 C 0.98789 0.21216 0.3588 0.0
C1651 C 0.00871 0.22214 0.3578 0.0
C1652 C 0.06895 0.25889 0.35427 0.0
C1653 C 0.04841 0.24481 0.35573 0.0
H1654 H 0.95026 0.16737 0.36299 0.0
H1655 H 0.98388 0.1837 0.35585 0.0
H1656 H 0.00979 0.21323 0.33361 0.0
H1657 H 0.09947 0.29336 0.32901 0.0
H1658 H 0.06698 0.26659 0.32982 0.0
C1659 C 0.79133 0.7613 0.36817 0.0
C1660 C 0.81038 0.76742 0.36469 0.0
C1661 C 0.78324 0.77234 0.36373 0.0
C1662 C 0.78676 0.80748 0.33489 0.0
H1663 H 0.75543 0.81568 0.36498 0.0
C1664 C 0.72285 0.81579 0.31911 0.0
C1665 C 0.71854 0.82722 0.32896 0.0
C1666 C 0.73923 0.81477 0.32188 0.0
C1667 C 0.76446 0.81389 0.35652 0.0
H1668 H 0.83588 0.79015 0.35394 0.0
H1669 H 0.82148 0.809 0.34574 0.0
H1670 H 0.77304 0.80017 0.3738 0.0
H1671 H 0.72883 0.84809 0.34829 0.0
H1672 H 0.7574 0.84602 0.35333 0.0
H1673 H 0.77737 0.82035 0.31741 0.0
C1674 C 0.81289 0.79566 0.35191 0.0
C1675 C 0.77431 0.80478 0.36153 0.0
C1676 C 0.82106 0.78475 0.35652 0.0
C1677 C 0.73186 0.83919 0.34051 0.0
C1678 C 0.74812 0.8379 0.34347 0.0
C1679 C 0.77668 0.81637 0.32982 0.0
C1680 C 0.79395 0.78962 0.35557 0.0
C1681 C 0.78518 0.80108 0.35067 0.0
C1682 C 0.75141 0.82494 0.33469 0.0
C1683 C 0.7651 0.81927 0.34051 0.0
H1684 H 0.78261 0.74792 0.37423 0.0
H1685 H 0.76849 0.76721 0.36646 0.0
H1686 H 0.79505 0.80477 0.32628 0.0
H1687 H 0.7128 0.80648 0.31011 0.0
H1688 H 0.74137 0.80463 0.31495 0.0
C1689 C 0.22441 0.03402 0.38119 0.0
C1690 C 0.23368 0.0485 0.36985 0.0
C1691 C 0.21735 0.01483 0.37703 0.0
C1692 C 0.22527 0.98538 0.34812 0.0
H1693 H 0.17584 0.94435 0.36078 0.0
C1694 C 0.19118 0.9123 0.31797 0.0
C1695 C 0.18336 0.89593 0.32757 0.0
C1696 C 0.19668 0.9302 0.32456 0.0
C1697 C 0.18977 0.95566 0.35739 0.0
H1698 H 0.24233 0.05425 0.34517 0.0
H1699 H 0.22988 0.02066 0.33782 0.0
H1700 H 0.18631 0.97738 0.36921 0.0
H1701 H 0.17465 0.88546 0.3516 0.0
H1702 H 0.18424 0.91712 0.36318 0.0
H1703 H 0.2287 0.96385 0.33614 0.0
C1704 C 0.22827 0.0242 0.34999 0.0
C1705 C 0.19574 0.97452 0.36215 0.0
C1706 C 0.23522 0.04338 0.35413 0.0
C1707 C 0.18065 0.89782 0.3439 0.0
C1708 C 0.1861 0.91588 0.35052 0.0
C1709 C 0.21933 0.96662 0.34338 0.0
C1710 C 0.21953 0.00976 0.36146 0.0
C1711 C 0.2134 0.9896 0.35726 0.0
C1712 C 0.19448 0.93225 0.34091 0.0
C1713 C 0.20137 0.95165 0.34765 0.0
H1714 H 0.22281 0.03757 0.39336 0.0
H1715 H 0.21071 0.00403 0.38612 0.0
H1716 H 0.23915 0.99662 0.34455 0.0
H1717 H 0.19337 0.91141 0.30533 0.0
H1718 H 0.20277 0.94254 0.31683 0.0
C1719 C 0.53026 0.63188 0.28997 0.0
C1720 C 0.52576 0.61782 0.30164 0.0
C1721 C 0.53866 0.65119 0.29429 0.0
C1722 C 0.5656 0.68442 0.32738 0.0
H1723 H 0.55416 0.71943 0.30483 0.0
C1724 C 0.60257 0.76049 0.34737 0.0
C1725 C 0.61465 0.77219 0.3354 0.0
C1726 C 0.58653 0.74316 0.34336 0.0
C1727 C 0.55731 0.70972 0.31127 0.0
H1728 H 0.52681 0.61313 0.32701 0.0
H1729 H 0.54067 0.64658 0.33461 0.0
H1730 H 0.53715 0.68527 0.29769 0.0
H1731 H 0.61865 0.77642 0.30994 0.0
H1732 H 0.5906 0.74575 0.30283 0.0
H1733 H 0.58572 0.70868 0.34088 0.0
C1734 C 0.53807 0.64279 0.32206 0.0
C1735 C 0.54776 0.69025 0.30712 0.0
C1736 C 0.52991 0.62354 0.31772 0.0
C1737 C 0.60934 0.76759 0.31932 0.0
C1738 C 0.59333 0.75006 0.31528 0.0
C1739 C 0.57487 0.70369 0.33164 0.0
C1740 C 0.54259 0.65687 0.3104 0.0
C1741 C 0.55195 0.67741 0.31506 0.0
C1742 C 0.58264 0.73718 0.32733 0.0
C1743 C 0.57092 0.71655 0.3236 0.0
H1744 H 0.52697 0.62797 0.27749 0.0
H1745 H 0.54221 0.66166 0.28498 0.0
H1746 H 0.5696 0.67514 0.33347 0.0
H1747 H 0.60651 0.76387 0.35985 0.0
H1748 H 0.57832 0.73357 0.35285 0.0
C1749 C 0.36883 0.89988 0.2897 0.0
C1750 C 0.38168 0.91051 0.30202 0.0
C1751 C 0.34942 0.88987 0.29245 0.0
C1752 C 0.31283 0.86884 0.32306 0.0
H1753 H 0.28259 0.8768 0.29139 0.0
C1754 C 0.2337 0.84695 0.33093 0.0
C1755 C 0.22233 0.84219 0.31708 0.0
C1756 C 0.25288 0.85242 0.32984 0.0
C1757 C 0.29071 0.87406 0.3002 0.0
H1758 H 0.38424 0.91843 0.32707 0.0
H1759 H 0.34997 0.90084 0.33189 0.0
H1760 H 0.31667 0.89249 0.28844 0.0
H1761 H 0.22147 0.83747 0.29153 0.0
H1762 H 0.25469 0.84628 0.28968 0.0
H1763 H 0.28667 0.85034 0.33483 0.0
C1764 C 0.35511 0.90031 0.32011 0.0
C1765 C 0.31029 0.88318 0.29854 0.0
C1766 C 0.37466 0.91042 0.31734 0.0
C1767 C 0.23003 0.84145 0.30235 0.0
C1768 C 0.24908 0.8466 0.3013 0.0
C1769 C 0.29309 0.85956 0.32469 0.0
C1770 C 0.34232 0.89017 0.3076 0.0
C1771 C 0.32156 0.88063 0.30989 0.0
C1772 C 0.26093 0.85299 0.31491 0.0
C1773 C 0.28181 0.86202 0.3132 0.0
H1774 H 0.37379 0.89912 0.27789 0.0
H1775 H 0.33991 0.88184 0.28267 0.0
H1776 H 0.32122 0.86657 0.33194 0.0
H1777 H 0.22809 0.84758 0.34247 0.0
H1778 H 0.26159 0.85727 0.34056 0.0
C1779 C 0.10259 0.46562 0.28164 0.0
C1780 C 0.09035 0.46629 0.29302 0.0
C1781 C 0.11348 0.45717 0.28527 0.0
C1782 C 0.13127 0.44083 0.31897 0.0
H1783 H 0.13458 0.40781 0.28679 0.0
C1784 C 0.16811 0.39905 0.33431 0.0
C1785 C 0.15626 0.37933 0.33185 0.0
C1786 C 0.16445 0.41203 0.32635 0.0
C1787 C 0.13389 0.41709 0.29584 0.0
H1788 H 0.07993 0.45899 0.31711 0.0
H1789 H 0.09855 0.44357 0.32341 0.0
H1790 H 0.11846 0.42564 0.28045 0.0
H1791 H 0.13239 0.35755 0.3184 0.0
H1792 H 0.12597 0.38018 0.30432 0.0
H1793 H 0.14586 0.43159 0.3346 0.0
C1794 C 0.10008 0.44995 0.31178 0.0
C1795 C 0.12476 0.4274 0.2922 0.0
C1796 C 0.08934 0.45864 0.30819 0.0
C1797 C 0.14187 0.37276 0.32022 0.0
C1798 C 0.13819 0.38575 0.31223 0.0
C1799 C 0.1404 0.43056 0.32259 0.0
C1800 C 0.11219 0.44902 0.3003 0.0
C1801 C 0.12305 0.43913 0.30382 0.0
C1802 C 0.14876 0.40542 0.31595 0.0
C1803 C 0.14154 0.41832 0.31116 0.0
H1804 H 0.10379 0.47173 0.26994 0.0
H1805 H 0.12293 0.45706 0.27628 0.0
H1806 H 0.13044 0.44993 0.32811 0.0
H1807 H 0.17912 0.40432 0.34343 0.0
H1808 H 0.17303 0.42713 0.32923 0.0
C1809 C 0.37689 0.47435 0.30561 0.0
C1810 C 0.38452 0.46406 0.29804 0.0
C1811 C 0.35831 0.46484 0.31127 0.0
C1812 C 0.31416 0.42699 0.29936 0.0
H1813 H 0.29477 0.41724 0.34254 0.0
C1814 C 0.2431 0.36334 0.3126 0.0
C1815 C 0.23005 0.36571 0.3218 0.0
C1816 C 0.26183 0.37795 0.31161 0.0
C1817 C 0.3 0.42022 0.33044 0.0
H1818 H 0.37913 0.43566 0.29162 0.0
H1819 H 0.34651 0.41919 0.30109 0.0
H1820 H 0.32896 0.43857 0.33806 0.0
H1821 H 0.22667 0.38512 0.33774 0.0
H1822 H 0.25984 0.41096 0.33591 0.0
H1823 H 0.28563 0.40847 0.2916 0.0
C1824 C 0.355 0.43459 0.30259 0.0
C1825 C 0.31945 0.4323 0.3279 0.0
C1826 C 0.37356 0.44402 0.29706 0.0
C1827 C 0.23638 0.3829 0.33048 0.0
C1828 C 0.25531 0.39765 0.32948 0.0
C1829 C 0.29488 0.41513 0.30185 0.0
C1830 C 0.34712 0.44497 0.30935 0.0
C1831 C 0.32664 0.43512 0.31236 0.0
C1832 C 0.26804 0.39537 0.31974 0.0
C1833 C 0.28772 0.41098 0.31741 0.0
H1834 H 0.38491 0.48983 0.30642 0.0
H1835 H 0.35237 0.47307 0.31634 0.0
H1836 H 0.31946 0.42926 0.28727 0.0
H1837 H 0.23886 0.3502 0.30598 0.0
H1838 H 0.27149 0.37567 0.30432 0.0
C1839 C 0.52372 0.88984 0.29073 0.0
C1840 C 0.52471 0.90505 0.29972 0.0
C1841 C 0.53012 0.87815 0.29718 0.0
C1842 C 0.54636 0.86673 0.33542 0.0
H1843 H 0.57428 0.85236 0.30654 0.0
C1844 C 0.6125 0.86237 0.35015 0.0
C1845 C 0.61561 0.84895 0.342 0.0
C1846 C 0.59549 0.86236 0.34807 0.0
C1847 C 0.56611 0.85578 0.31471 0.0
H1848 H 0.53287 0.91999 0.32244 0.0
H1849 H 0.54514 0.90032 0.33352 0.0
H1850 H 0.55688 0.86703 0.29599 0.0
H1851 H 0.60295 0.82391 0.32655 0.0
H1852 H 0.57324 0.8242 0.32254 0.0
H1853 H 0.55721 0.85687 0.35428 0.0
C1854 C 0.53882 0.89688 0.32169 0.0
C1855 C 0.5561 0.86426 0.30867 0.0
C1856 C 0.53203 0.90832 0.31532 0.0
C1857 C 0.60077 0.8343 0.33305 0.0
C1858 C 0.58386 0.83453 0.33069 0.0
C1859 C 0.55669 0.85854 0.34149 0.0
C1860 C 0.53804 0.88167 0.31267 0.0
C1861 C 0.54652 0.87036 0.31898 0.0
C1862 C 0.58152 0.84918 0.33753 0.0
C1863 C 0.56705 0.85346 0.33122 0.0
H1864 H 0.51776 0.88686 0.27875 0.0
H1865 H 0.52886 0.86637 0.28998 0.0
H1866 H 0.53876 0.87076 0.34368 0.0
H1867 H 0.62382 0.87383 0.35706 0.0
H1868 H 0.59413 0.87389 0.35341 0.0
C1869 C 0.08491 0.62776 0.30404 0.0
C1870 C 0.0935 0.61657 0.30652 0.0
C1871 C 0.09579 0.64769 0.30405 0.0
C1872 C 0.13974 0.68809 0.31875 0.0
H1873 H 0.13069 0.71568 0.28525 0.0
C1874 C 0.16952 0.76676 0.32767 0.0
C1875 C 0.15518 0.77147 0.32648 0.0
C1876 C 0.16761 0.75066 0.31965 0.0
C1877 C 0.13346 0.70822 0.29465 0.0
H1878 H 0.12018 0.61762 0.31162 0.0
H1879 H 0.13906 0.65252 0.31223 0.0
H1880 H 0.1148 0.68076 0.28409 0.0
H1881 H 0.12883 0.76482 0.31479 0.0
H1882 H 0.12504 0.73643 0.30117 0.0
H1883 H 0.15731 0.71514 0.32996 0.0
C1884 C 0.12393 0.64577 0.31006 0.0
C1885 C 0.12432 0.68824 0.294 0.0
C1886 C 0.11307 0.6258 0.30989 0.0
C1887 C 0.14013 0.76144 0.31571 0.0
C1888 C 0.138 0.74512 0.30791 0.0
C1889 C 0.14869 0.70801 0.31951 0.0
C1890 C 0.11546 0.65687 0.30674 0.0
C1891 C 0.12694 0.678 0.30631 0.0
C1892 C 0.151 0.73874 0.31079 0.0
C1893 C 0.14518 0.71832 0.30776 0.0
H1894 H 0.06982 0.6211 0.30169 0.0
H1895 H 0.08883 0.65595 0.30189 0.0
H1896 H 0.14197 0.68054 0.32841 0.0
H1897 H 0.18121 0.77437 0.33602 0.0
H1898 H 0.17821 0.74651 0.32168 0.0
C1899 C 0.79143 0.02588 0.37453 0.0
C1900 C 0.80987 0.0384 0.36914 0.0
C1901 C 0.7844 0.00618 0.37464 0.0
C1902 C 0.78694 0.96796 0.35502 0.0
H1903 H 0.76175 0.93942 0.39293 0.0
C1904 C 0.73236 0.89239 0.34556 0.0
C1905 C 0.71525 0.89016 0.35127 0.0
C1906 C 0.7495 0.90597 0.35266 0.0
C1907 C 0.76884 0.94712 0.38227 0.0
H1908 H 0.83508 0.03985 0.35906 0.0
H1909 H 0.82227 0.00525 0.3585 0.0
H1910 H 0.78026 0.97433 0.39418 0.0
H1911 H 0.70203 0.89763 0.37007 0.0
H1912 H 0.73151 0.92142 0.38223 0.0
H1913 H 0.77425 0.94129 0.34261 0.0
C1914 C 0.81354 0.01088 0.36296 0.0
C1915 C 0.77941 0.96709 0.38301 0.0
C1916 C 0.82073 0.03065 0.36309 0.0
C1917 C 0.71518 0.89921 0.36553 0.0
C1918 C 0.73223 0.91292 0.3725 0.0
C1919 C 0.77609 0.94804 0.35419 0.0
C1920 C 0.79552 -0.00145 0.36911 0.0
C1921 C 0.78779 0.97765 0.3692 0.0
C1922 C 0.74958 0.91774 0.36519 0.0
C1923 C 0.76601 0.93742 0.36759 0.0
H1924 H 0.78254 0.03132 0.37896 0.0
H1925 H 0.77021 0.99687 0.37901 0.0
H1926 H 0.79336 0.97583 0.34424 0.0
H1927 H 0.73263 0.88543 0.33453 0.0
H1928 H 0.76262 0.90877 0.34713 0.0
C1929 C 0.96291 0.7578 0.38595 0.0
C1930 C 0.94722 0.74877 0.37555 0.0
C1931 C 0.98127 0.76636 0.38006 0.0
C1932 C 0.01117 0.78733 0.34532 0.0
H1933 H 0.04442 0.77431 0.36863 0.0
C1934 C 0.09002 0.8064 0.33152 0.0
C1935 C 0.10151 0.81191 0.34532 0.0
C1936 C 0.07092 0.80144 0.33262 0.0
C1937 C 0.03532 0.77814 0.36205 0.0
H1938 H 0.93853 0.74205 0.35069 0.0
H1939 H 0.97095 0.75719 0.34037 0.0
H1940 H 0.01107 0.75888 0.37538 0.0
H1941 H 0.10313 0.81885 0.37048 0.0
H1942 H 0.07008 0.81071 0.37232 0.0
H1943 H 0.03589 0.80682 0.33205 0.0
C1944 C 0.96884 0.75759 0.35309 0.0
C1945 C 0.01625 0.76931 0.36589 0.0
C1946 C 0.95035 0.7489 0.35901 0.0
C1947 C 0.09439 0.81439 0.35975 0.0
C1948 C 0.07554 0.80974 0.36079 0.0
C1949 C 0.03046 0.79623 0.3414 0.0
C1950 C 0.98443 0.76615 0.36363 0.0
C1951 C 0.00408 0.77416 0.35791 0.0
C1952 C 0.06338 0.80216 0.34749 0.0
C1953 C 0.04272 0.79205 0.3501 0.0
H1954 H 0.96105 0.75851 0.39867 0.0
H1955 H 0.99306 0.77319 0.38842 0.0
H1956 H 0.002 0.79124 0.33897 0.0
H1957 H 0.09534 0.8044 0.32027 0.0
H1958 H 0.06176 0.79563 0.32221 0.0
C1959 C 0.22119 0.18985 0.37836 0.0
C1960 C 0.24029 0.20142 0.38302 0.0
C1961 C 0.20975 0.19789 0.37555 0.0
C1962 C 0.20492 0.23968 0.38524 0.0
H1963 H 0.1749 0.22608 0.3463 0.0
C1964 C 0.1799 0.28681 0.35532 0.0
C1965 C 0.16559 0.2784 0.34364 0.0
C1966 C 0.1844 0.27533 0.3647 0.0
C1967 C 0.18268 0.22969 0.35751 0.0
H1968 H 0.26246 0.23066 0.38786 0.0
H1969 H 0.24233 0.24468 0.38308 0.0
H1970 H 0.1931 0.21062 0.3524 0.0
H1971 H 0.14289 0.25174 0.33409 0.0
H1972 H 0.14976 0.23158 0.35123 0.0
H1973 H 0.19467 0.25899 0.39026 0.0
C1974 C 0.23623 0.22933 0.38184 0.0
C1975 C 0.1933 0.2209 0.36089 0.0
C1976 C 0.24775 0.2213 0.38452 0.0
C1977 C 0.15401 0.25847 0.34306 0.0
C1978 C 0.15819 0.24698 0.3527 0.0
C1979 C 0.1941 0.24837 0.38195 0.0
C1980 C 0.21708 0.21766 0.37747 0.0
C1981 C 0.20484 0.2261 0.3746 0.0
C1982 C 0.17445 0.2553 0.36258 0.0
C1983 C 0.18316 0.24379 0.36784 0.0
H1984 H 0.21483 0.17445 0.3774 0.0
H1985 H 0.19501 0.18856 0.37226 0.0
H1986 H 0.21349 0.24371 0.39604 0.0
H1987 H 0.18916 0.3022 0.3558 0.0
H1988 H 0.19695 0.28232 0.37223 0.0
C1989 C 0.62547 0.51378 0.69343 0.0
C1990 C 0.61755 0.52498 0.6983 0.0
C1991 C 0.64384 0.52242 0.68737 0.0
C1992 C 0.68243 0.5672 0.67084 0.0
H1993 H 0.7159 0.55565 0.69551 0.0
C1994 C 0.76401 0.61343 0.66763 0.0
C1995 C 0.77145 0.62139 0.68276 0.0
C1996 C 0.74562 0.59775 0.66613 0.0
C1997 C 0.70668 0.55877 0.68831 0.0
H1998 H 0.62217 0.55382 0.6999 0.0
H1999 H 0.65427 0.56896 0.68922 0.0
H2000 H 0.68157 0.53562 0.6982 0.0
H2001 H 0.76612 0.61846 0.7082 0.0
H2002 H 0.73428 0.59094 0.7056 0.0
H2003 H 0.70761 0.59094 0.66157 0.0
C2004 C 0.64626 0.5535 0.69007 0.0
C2005 C 0.68707 0.54729 0.68979 0.0
C2006 C 0.628 0.54489 0.69633 0.0
C2007 C 0.76066 0.61274 0.69638 0.0
C2008 C 0.74252 0.59688 0.69491 0.0
C2009 C 0.70206 0.57853 0.66919 0.0
C2010 C 0.6545 0.54239 0.68586 0.0
C2011 C 0.6748 0.55191 0.68159 0.0
C2012 C 0.73464 0.58954 0.67977 0.0
C2013 C 0.71434 0.57489 0.67845 0.0
H2014 H 0.61776 0.4984 0.69492 0.0
H2015 H 0.64987 0.51355 0.68421 0.0
H2016 H 0.67324 0.57093 0.66428 0.0
H2017 H 0.77207 0.61982 0.65694 0.0
H2018 H 0.73981 0.59232 0.65434 0.0
C2019 C 0.48185 0.10969 0.68847 0.0
C2020 C 0.47358 0.09 0.69133 0.0
C2021 C 0.47039 0.11787 0.68625 0.0
C2022 C 0.42317 0.10816 0.69812 0.0
H2023 H 0.43326 0.15101 0.67112 0.0
C2024 C 0.38099 0.14791 0.67498 0.0
C2025 C 0.3718 0.14761 0.68922 0.0
C2026 C 0.39552 0.14351 0.67505 0.0
C2027 C 0.43023 0.139 0.67869 0.0
H2028 H 0.4472 0.06313 0.69271 0.0
H2029 H 0.42715 0.07722 0.68823 0.0
H2030 H 0.45355 0.13671 0.66948 0.0
H2031 H 0.37162 0.14403 0.71485 0.0
H2032 H 0.39738 0.13687 0.71506 0.0
H2033 H 0.39958 0.10984 0.70697 0.0
C2034 C 0.4424 0.08649 0.68823 0.0
C2035 C 0.44192 0.13091 0.67782 0.0
C2036 C 0.45382 0.07838 0.69063 0.0
C2037 C 0.37819 0.14398 0.70365 0.0
C2038 C 0.39291 0.13983 0.70375 0.0
C2039 C 0.41149 0.11614 0.69893 0.0
C2040 C 0.45054 0.10642 0.68677 0.0
C2041 C 0.43835 0.11524 0.68741 0.0
C2042 C 0.40132 0.13894 0.68939 0.0
C2043 C 0.41478 0.13158 0.68918 0.0
H2044 H 0.4971 0.11891 0.6891 0.0
H2045 H 0.47709 0.13327 0.68518 0.0
H2046 H 0.42029 0.09641 0.70597 0.0
H2047 H 0.37642 0.15073 0.66365 0.0
H2048 H 0.40156 0.1428 0.66376 0.0
C2049 C 0.8992 0.37549 0.68418 0.0
C2050 C 0.89548 0.38046 0.69924 0.0
C2051 C 0.89342 0.3564 0.68056 0.0
C2052 C 0.86164 0.30643 0.69209 0.0
H2053 H 0.90126 0.29855 0.67464 0.0
C2054 C 0.85137 0.2308 0.67938 0.0
C2055 C 0.85764 0.22893 0.66422 0.0
C2056 C 0.85613 0.24894 0.68538 0.0
C2057 C 0.89001 0.30051 0.67945 0.0
H2058 H 0.88179 0.36952 0.72192 0.0
H2059 H 0.87149 0.3361 0.71552 0.0
H2060 H 0.90784 0.33092 0.68051 0.0
H2061 H 0.87416 0.24465 0.6437 0.0
H2062 H 0.88215 0.27583 0.65401 0.0
H2063 H 0.84367 0.27596 0.69066 0.0
C2064 C 0.87896 0.34689 0.70658 0.0
C2065 C 0.89377 0.31904 0.68273 0.0
C2066 C 0.88491 0.36597 0.71025 0.0
C2067 C 0.86905 0.2455 0.65541 0.0
C2068 C 0.87379 0.26347 0.66138 0.0
C2069 C 0.85782 0.28783 0.68867 0.0
C2070 C 0.88366 0.34201 0.69189 0.0
C2071 C 0.87954 0.32221 0.6888 0.0
C2072 C 0.86734 0.26544 0.67637 0.0
C2073 C 0.87188 0.28473 0.68201 0.0
H2074 H 0.90738 0.38644 0.67554 0.0
H2075 H 0.89698 0.35292 0.66905 0.0
H2076 H 0.85045 0.30852 0.69684 0.0
H2077 H 0.84258 0.21829 0.68646 0.0
H2078 H 0.85105 0.25008 0.69703 0.0
C2079 C 0.19885 0.96627 0.61855 0.0
C2080 C 0.19829 0.95365 0.6303 0.0
C2081 C 0.20911 0.98601 0.62119 0.0
C2082 C 0.24913 0.02355 0.64263 0.0
H2083 H 0.2224 0.05215 0.64173 0.0
C2084 C 0.26144 0.09342 0.67567 0.0
C2085 C 0.27989 0.1069 0.67105 0.0
C2086 C 0.25081 0.0767 0.66672 0.0
C2087 C 0.23006 0.04437 0.64172 0.0
H2088 H 0.20806 0.95155 0.65389 0.0
H2089 H 0.22658 0.98634 0.65838 0.0
H2090 H 0.20557 0.01802 0.63442 0.0
H2091 H 0.30135 0.11419 0.65304 0.0
H2092 H 0.28284 0.08451 0.63754 0.0
H2093 H 0.27353 0.04976 0.65017 0.0
C2094 C 0.21893 0.98086 0.6472 0.0
C2095 C 0.22048 0.02493 0.6376 0.0
C2096 C 0.20832 0.96106 0.64469 0.0
C2097 C 0.28707 0.10409 0.65672 0.0
C2098 C 0.27657 0.0871 0.64795 0.0
C2099 C 0.25881 0.04306 0.64641 0.0
C2100 C 0.21927 0.99345 0.6355 0.0
C2101 C 0.22984 0.0143 0.63842 0.0
C2102 C 0.25863 0.07303 0.65321 0.0
C2103 C 0.24924 0.05351 0.64633 0.0
H2104 H 0.19108 0.96082 0.60741 0.0
H2105 H 0.20921 0.99548 0.61203 0.0
H2106 H 0.25661 0.0156 0.64324 0.0
H2107 H 0.25567 0.0953 0.68671 0.0
H2108 H 0.23707 0.06599 0.67107 0.0
C2109 C 0.03151 0.2321 0.62171 0.0
C2110 C 0.04449 0.24356 0.63367 0.0
C2111 C 0.01222 0.22148 0.62489 0.0
C2112 C 0.97748 0.19943 0.65664 0.0
H2113 H 0.94351 0.20215 0.62548 0.0
C2114 C 0.89745 0.1723 0.6662 0.0
C2115 C 0.88574 0.16659 0.65253 0.0
C2116 C 0.91674 0.17831 0.66486 0.0
C2117 C 0.95273 0.20087 0.63415 0.0
H2118 H 0.04733 0.25276 0.65843 0.0
H2119 H 0.01334 0.23397 0.66401 0.0
H2120 H 0.97746 0.22067 0.62155 0.0
H2121 H 0.8842 0.16018 0.62725 0.0
H2122 H 0.91761 0.16984 0.62501 0.0
H2123 H 0.95254 0.1796 0.66928 0.0
C2124 C 0.01829 0.23324 0.65219 0.0
C2125 C 0.97221 0.21162 0.63194 0.0
C2126 C 0.03769 0.24401 0.64898 0.0
C2127 C 0.89304 0.16486 0.6379 0.0
C2128 C 0.91219 0.17053 0.63662 0.0
C2129 C 0.95785 0.18853 0.65884 0.0
C2130 C 0.0054 0.22195 0.64013 0.0
C2131 C 0.98478 0.21095 0.64308 0.0
C2132 C 0.92446 0.17843 0.64987 0.0
C2133 C 0.94528 0.18905 0.64753 0.0
H2134 H 0.03628 0.23095 0.60993 0.0
H2135 H 0.00262 0.21265 0.61544 0.0
H2136 H 0.98691 0.1986 0.66536 0.0
H2137 H 0.89212 0.17373 0.67764 0.0
H2138 H 0.92579 0.18425 0.67531 0.0
C2139 C 0.77528 0.80719 0.62349 0.0
C2140 C 0.75595 0.79831 0.62724 0.0
C2141 C 0.78586 0.79846 0.6274 0.0
C2142 C 0.78894 0.76797 0.65671 0.0
H2143 H 0.81688 0.7557 0.62593 0.0
C2144 C 0.83281 0.73707 0.67906 0.0
C2145 C 0.82655 0.71867 0.67284 0.0
C2146 C 0.82911 0.74983 0.67088 0.0
C2147 C 0.80925 0.75922 0.63462 0.0
H2148 H 0.73239 0.77358 0.6379 0.0
H2149 H 0.75113 0.75855 0.64538 0.0
H2150 H 0.79908 0.77134 0.61704 0.0
H2151 H 0.81344 0.69976 0.6525 0.0
H2152 H 0.8066 0.72209 0.63817 0.0
H2153 H 0.79881 0.7559 0.67428 0.0
C2154 C 0.75797 0.77209 0.63919 0.0
C2155 C 0.79914 0.76813 0.62956 0.0
C2156 C 0.7473 0.78062 0.63496 0.0
C2157 C 0.81849 0.71396 0.65745 0.0
C2158 C 0.81455 0.72671 0.64929 0.0
C2159 C 0.79925 0.75943 0.66178 0.0
C2160 C 0.77732 0.78094 0.63542 0.0
C2161 C 0.7887 0.7723 0.64058 0.0
C2162 C 0.81878 0.74425 0.65646 0.0
C2163 C 0.8094 0.75484 0.6508 0.0
H2164 H 0.78212 0.82082 0.61743 0.0
H2165 H 0.80079 0.80557 0.62451 0.0
H2166 H 0.78108 0.77116 0.6654 0.0
H2167 H 0.83919 0.74101 0.69087 0.0
H2168 H 0.83287 0.76343 0.67648 0.0
C2169 C 0.04427 0.78166 0.63907 0.0
C2170 C 0.05241 0.80106 0.63525 0.0
C2171 C 0.02628 0.77193 0.6458 0.0
C2172 C 0.9877 0.77819 0.66374 0.0
H2173 H 0.95643 0.72675 0.64677 0.0
C2174 C 0.90446 0.72719 0.6574 0.0
C2175 C 0.89841 0.70944 0.66462 0.0
C2176 C 0.92368 0.74121 0.65786 0.0
C2177 C 0.96508 0.74106 0.65168 0.0
H2178 H 0.04854 0.82575 0.63583 0.0
H2179 H 0.01673 0.8086 0.64698 0.0
H2180 H 0.98947 0.74511 0.63922 0.0
H2181 H 0.90689 0.69267 0.67889 0.0
H2182 H 0.94053 0.71714 0.67961 0.0
H2183 H 0.9625 0.77402 0.67556 0.0
C2184 C 0.02436 0.80095 0.64522 0.0
C2185 C 0.98406 0.75155 0.64749 0.0
C2186 C 0.04253 0.81076 0.63874 0.0
C2187 C 0.91136 0.70636 0.67334 0.0
C2188 C 0.9305 0.72031 0.67379 0.0
C2189 C 0.96847 0.76769 0.66775 0.0
C2190 C 0.01584 0.7813 0.6485 0.0
C2191 C 0.9957 0.77021 0.65352 0.0
C2192 C 0.93687 0.73747 0.66549 0.0
C2193 C 0.95714 0.74902 0.66178 0.0
H2194 H 0.05177 0.77397 0.63672 0.0
H2195 H 0.02042 0.75694 0.64859 0.0
H2196 H 0.99627 0.79246 0.66869 0.0
H2197 H 0.89461 0.72964 0.65046 0.0
H2198 H 0.92843 0.75426 0.65117 0.0
C2199 C 0.18882 0.23648 0.6449 0.0
C2200 C 0.19833 0.25608 0.6413 0.0
C2201 C 0.19905 0.22762 0.64962 0.0
C2202 C 0.24583 0.23422 0.64212 0.0
H2203 H 0.23158 0.19189 0.67103 0.0
C2204 C 0.28428 0.1923 0.63898 0.0
C2205 C 0.29118 0.18961 0.65352 0.0
C2206 C 0.27022 0.19731 0.63877 0.0
C2207 C 0.23571 0.20374 0.66295 0.0
H2208 H 0.22556 0.28219 0.64139 0.0
H2209 H 0.24342 0.26687 0.64998 0.0
H2210 H 0.21312 0.20843 0.67038 0.0
H2211 H 0.288 0.18868 0.67922 0.0
H2212 H 0.2638 0.19829 0.67891 0.0
H2213 H 0.26843 0.22996 0.63477 0.0
C2214 C 0.22815 0.25821 0.64872 0.0
C2215 C 0.22515 0.21313 0.66255 0.0
C2216 C 0.21797 0.267 0.64387 0.0
C2217 C 0.28292 0.19079 0.66785 0.0
C2218 C 0.26903 0.19618 0.66766 0.0
C2219 C 0.25627 0.2249 0.6425 0.0
C2220 C 0.21892 0.23829 0.65087 0.0
C2221 C 0.2302 0.22854 0.65215 0.0
C2222 C 0.26308 0.20019 0.65312 0.0
C2223 C 0.25132 0.20949 0.65282 0.0
H2224 H 0.17366 0.22775 0.64295 0.0
H2225 H 0.19156 0.21224 0.65115 0.0
H2226 H 0.24987 0.24575 0.63373 0.0
H2227 H 0.29013 0.19103 0.62776 0.0
H2228 H 0.26549 0.19974 0.62736 0.0
C2229 C 0.77565 0.96219 0.6189 0.0
C2230 C 0.76694 0.95195 0.63277 0.0
C2231 C 0.78697 0.98206 0.61942 0.0
C2232 C 0.81139 0.0236 0.6474 0.0
H2233 H 0.8035 0.05101 0.61308 0.0
C2234 C 0.83302 0.1004 0.6584 0.0
C2235 C 0.8173 0.10284 0.65615 0.0
C2236 C 0.83394 0.08567 0.65032 0.0
C2237 C 0.80603 0.04362 0.6227 0.0
H2238 H 0.76347 0.95423 0.65812 0.0
H2239 H 0.7827 0.98917 0.65903 0.0
H2240 H 0.78986 0.01653 0.61096 0.0
H2241 H 0.79154 0.09383 0.64255 0.0
H2242 H 0.79285 0.06811 0.62861 0.0
H2243 H 0.82608 0.05034 0.65978 0.0
C2244 C 0.78121 0.98184 0.64778 0.0
C2245 C 0.79832 0.02382 0.62144 0.0
C2246 C 0.77006 0.96187 0.64729 0.0
C2247 C 0.80387 0.09221 0.6443 0.0
C2248 C 0.80468 0.07742 0.63632 0.0
C2249 C 0.8189 0.04335 0.64874 0.0
C2250 C 0.78967 0.99219 0.6338 0.0
C2251 C 0.80029 0.01348 0.63406 0.0
C2252 C 0.81894 0.07305 0.64018 0.0
C2253 C 0.81565 0.0535 0.63669 0.0
H2254 H 0.77373 0.95477 0.60761 0.0
H2255 H 0.79354 0.98947 0.60851 0.0
H2256 H 0.81362 0.01617 0.65715 0.0
H2257 H 0.84346 0.10846 0.66761 0.0
H2258 H 0.84542 0.08303 0.65321 0.0
C2259 C 0.48252 0.36437 0.69711 0.0
C2260 C 0.47251 0.37366 0.70158 0.0
C2261 C 0.47352 0.34442 0.69675 0.0
C2262 C 0.43179 0.30102 0.71207 0.0
H2263 H 0.43884 0.27684 0.67471 0.0
C2264 C 0.37637 0.22892 0.6865 0.0
C2265 C 0.38222 0.22017 0.67515 0.0
C2266 C 0.38989 0.24468 0.69531 0.0
C2267 C 0.43706 0.28316 0.68553 0.0
H2268 H 0.4451 0.36936 0.70868 0.0
H2269 H 0.42928 0.33445 0.70782 0.0
H2270 H 0.45733 0.31118 0.67781 0.0
H2271 H 0.40607 0.21863 0.66573 0.0
H2272 H 0.42968 0.24529 0.68188 0.0
H2273 H 0.41096 0.2729 0.71948 0.0
C2274 C 0.4442 0.34262 0.70496 0.0
C2275 C 0.44763 0.30298 0.68721 0.0
C2276 C 0.4532 0.36258 0.70531 0.0
C2277 C 0.40136 0.22532 0.67442 0.0
C2278 C 0.41483 0.24073 0.68353 0.0
C2279 C 0.42124 0.28108 0.71043 0.0
C2280 C 0.45433 0.33335 0.70086 0.0
C2281 C 0.4447 0.31217 0.70023 0.0
C2282 C 0.40937 0.25165 0.69292 0.0
C2283 C 0.42332 0.27196 0.69687 0.0
H2284 H 0.49751 0.37249 0.69449 0.0
H2285 H 0.48171 0.33767 0.69361 0.0
H2286 H 0.42953 0.30774 0.72241 0.0
H2287 H 0.36162 0.22516 0.68712 0.0
H2288 H 0.38507 0.25259 0.70249 0.0
C2289 C 0.62056 0.07985 0.69329 0.0
C2290 C 0.61672 0.08114 0.70943 0.0
C2291 C 0.63906 0.09051 0.68759 0.0
C2292 C 0.68896 0.11711 0.70182 0.0
H2293 H 0.69875 0.13845 0.65925 0.0
C2294 C 0.76415 0.16021 0.68242 0.0
C2295 C 0.76724 0.14967 0.67067 0.0
C2296 C 0.74597 0.1574 0.68465 0.0
C2297 C 0.69614 0.13274 0.67122 0.0
H2298 H 0.62901 0.09475 0.73219 0.0
H2299 H 0.66106 0.11354 0.7223 0.0
H2300 H 0.66607 0.12072 0.66892 0.0
H2301 H 0.75478 0.12969 0.65093 0.0
H2302 H 0.72295 0.12499 0.6546 0.0
H2303 H 0.71889 0.12905 0.70415 0.0
C2304 C 0.65003 0.10395 0.71407 0.0
C2305 C 0.67748 0.1224 0.6767 0.0
C2306 C 0.63165 0.09314 0.71977 0.0
C2307 C 0.75262 0.13812 0.65992 0.0
C2308 C 0.73446 0.13545 0.66203 0.0
C2309 C 0.7075 0.12768 0.69648 0.0
C2310 C 0.65399 0.10282 0.69791 0.0
C2311 C 0.67369 0.11429 0.69203 0.0
C2312 C 0.73078 0.14402 0.67512 0.0
C2313 C 0.71126 0.13545 0.68111 0.0
H2314 H 0.60925 0.07068 0.68508 0.0
H2315 H 0.64165 0.08903 0.67515 0.0
H2316 H 0.68662 0.11069 0.71351 0.0
H2317 H 0.77525 0.16898 0.69095 0.0
H2318 H 0.74341 0.16418 0.69478 0.0
C2319 C 0.90275 0.53928 0.702 0.0
C2320 C 0.90338 0.53339 0.71758 0.0
C2321 C 0.89121 0.54702 0.69832 0.0
C2322 C 0.86476 0.56855 0.71701 0.0
H2323 H 0.84369 0.5608 0.67426 0.0
C2324 C 0.84757 0.6211 0.68667 0.0
C2325 C 0.83667 0.61534 0.67261 0.0
C2326 C 0.84951 0.60769 0.69574 0.0
C2327 C 0.84893 0.56279 0.68642 0.0
H2328 H 0.89228 0.53051 0.74146 0.0
H2329 H 0.87168 0.54343 0.73498 0.0
H2330 H 0.85991 0.54403 0.68235 0.0
H2331 H 0.81722 0.59115 0.65801 0.0
H2332 H 0.81933 0.56744 0.67448 0.0
H2333 H 0.85336 0.58701 0.72117 0.0
C2334 C 0.88047 0.5427 0.72568 0.0
C2335 C 0.8587 0.55345 0.69094 0.0
C2336 C 0.89225 0.53528 0.7294 0.0
C2337 C 0.82572 0.59582 0.66886 0.0
C2338 C 0.82722 0.58233 0.67816 0.0
C2339 C 0.85466 0.57766 0.71257 0.0
C2340 C 0.87976 0.54865 0.71008 0.0
C2341 C 0.86738 0.55677 0.70607 0.0
C2342 C 0.84035 0.58829 0.69093 0.0
C2343 C 0.84722 0.57548 0.69701 0.0
H2344 H 0.91127 0.53801 0.69272 0.0
H2345 H 0.89143 0.55188 0.68626 0.0
H2346 H 0.87121 0.57146 0.72878 0.0
H2347 H 0.85638 0.63616 0.6896 0.0
H2348 H 0.85974 0.61297 0.70546 0.0
C2349 C 0.4922 0.98644 0.18043 0.0
C2350 C 0.48286 0.96812 0.18705 0.0
C2351 C 0.4977 0.98876 0.16444 0.0
C2352 C 0.4878 0.96394 0.12585 0.0
H2353 H 0.53958 0.00216 0.11604 0.0
C2354 C 0.51197 0.97594 0.06103 0.0
C2355 C 0.52122 0.99527 0.05657 0.0
C2356 C 0.51034 0.97104 0.07716 0.0
C2357 C 0.52505 0.99148 0.11855 0.0
H2358 H 0.47148 0.93788 0.18248 0.0
H2359 H 0.48065 0.94184 0.15436 0.0
H2360 H 0.52899 0.99747 0.14368 0.0
H2361 H 0.53791 0.02448 0.06532 0.0
H2362 H 0.53476 0.01606 0.09326 0.0
H2363 H 0.48347 0.95844 0.10078 0.0
C2364 C 0.4838 0.95439 0.16145 0.0
C2365 C 0.519 0.98884 0.13437 0.0
C2366 C 0.47856 0.95211 0.17747 0.0
C2367 C 0.53052 0.00946 0.06839 0.0
C2368 C 0.52878 0.00459 0.08447 0.0
C2369 C 0.49376 0.96673 0.11001 0.0
C2370 C 0.49373 0.97276 0.15486 0.0
C2371 C 0.50026 0.97521 0.13814 0.0
C2372 C 0.51785 0.98537 0.0891 0.0
C2373 C 0.5124 0.98071 0.10612 0.0
H2374 H 0.49574 -0.00106 0.18773 0.0
H2375 H 0.50516 0.00306 0.15957 0.0
H2376 H 0.47324 0.95339 0.12844 0.0
H2377 H 0.50467 0.96466 0.05221 0.0
H2378 H 0.50228 0.95606 0.08029 0.0
C2379 C 0.02769 0.53529 0.18335 0.0
C2380 C 0.02047 0.51863 0.19259 0.0
C2381 C 0.02507 0.53406 0.16682 0.0
C2382 C 0.99605 0.50046 0.13433 0.0
H2383 H 0.03753 0.53547 0.10755 0.0
C2384 C 0.00201 0.48631 0.06807 0.0
C2385 C 0.00567 0.50104 0.05733 0.0
C2386 C 0.00289 0.48959 0.08446 0.0
C2387 C 0.02577 0.5258 0.11491 0.0
H2388 H 0.00473 0.4876 0.19165 0.0
H2389 H 0.0007 0.48543 0.16275 0.0
H2390 H 0.04103 0.53867 0.13656 0.0
H2391 H 0.01331 0.53081 0.05524 0.0
H2392 H 0.01544 0.53676 0.08422 0.0
H2393 H 0.98117 0.48711 0.11259 0.0
C2394 C 0.00805 0.49948 0.16833 0.0
C2395 C 0.02772 0.52761 0.13152 0.0
C2396 C 0.01056 0.50071 0.18489 0.0
C2397 C 0.01035 0.51921 0.0633 0.0
C2398 C 0.01163 0.52262 0.0798 0.0
C2399 C 0.99422 0.49851 0.11775 0.0
C2400 C 0.0153 0.51615 0.15908 0.0
C2401 C 0.01295 0.51482 0.14143 0.0
C2402 C 0.00777 0.50777 0.09048 0.0
C2403 C 0.00912 0.51103 0.10792 0.0
H2404 H 0.0357 0.54934 0.18884 0.0
H2405 H 0.03069 0.54719 0.16011 0.0
H2406 H 0.98425 0.49063 0.14157 0.0
H2407 H -0.00174 0.47213 0.06379 0.0
H2408 H 2e-05 0.47797 0.09247 0.0
C2409 C 0.48013 0.51925 0.1744 0.0
C2410 C 0.49378 0.51912 0.18464 0.0
C2411 C 0.48295 0.52081 0.15789 0.0
C2412 C 0.52194 0.53688 0.12844 0.0
H2413 H 0.48072 0.51167 0.09775 0.0
C2414 C 0.5288 0.51953 0.06295 0.0
C2415 C 0.51654 0.52038 0.05155 0.0
C2416 C 0.52829 0.52454 0.07885 0.0
C2417 C 0.49233 0.51911 0.1062 0.0
H2418 H 0.52038 0.51919 0.18571 0.0
H2419 H 0.52498 0.52107 0.15691 0.0
H2420 H 0.47399 0.50741 0.12621 0.0
H2421 H 0.49539 0.52871 0.0474 0.0
H2422 H 0.4943 0.53727 0.07533 0.0
H2423 H 0.54035 0.54774 0.10829 0.0
C2424 C 0.51246 0.52077 0.16157 0.0
C2425 C 0.48849 0.51662 0.12253 0.0
C2426 C 0.50975 0.51947 0.17805 0.0
C2427 C 0.50517 0.5282 0.05594 0.0
C2428 C 0.50435 0.53282 0.07194 0.0
C2429 C 0.5258 0.53915 0.11211 0.0
C2430 C 0.49941 0.52206 0.15129 0.0
C2431 C 0.50328 0.52525 0.13388 0.0
C2432 C 0.51524 0.53012 0.08364 0.0
C2433 C 0.51106 0.53012 0.10083 0.0
H2434 H 0.46777 0.51918 0.17922 0.0
H2435 H 0.47262 0.52184 0.15041 0.0
H2436 H 0.53366 0.54417 0.13679 0.0
H2437 H 0.53751 0.51333 0.05986 0.0
H2438 H 0.5368 0.52228 0.08761 0.0
C2439 C 0.988 0.49419 0.82077 0.0
C2440 C 0.97289 0.47689 0.81499 0.0
C2441 C 0.99296 0.49637 0.83693 0.0
C2442 C 0.98672 0.4691 0.87415 0.0
H2443 H 0.00137 0.51818 0.89398 0.0
C2444 C 0.99256 0.48606 0.94259 0.0
C2445 C 0.00769 0.50407 0.94719 0.0
C2446 C 0.98968 0.48061 0.92646 0.0
C2447 C -0.00248 0.50446 0.88856 0.0
H2448 H 0.95086 0.44841 0.82146 0.0
H2449 H 0.95918 0.45235 0.84979 0.0
H2450 H 0.99302 0.5133 0.86582 0.0
H2451 H 0.03286 0.52945 0.93901 0.0
H2452 H 0.02796 0.51983 0.91102 0.0
H2453 H 0.99075 0.46024 0.89728 0.0
C2454 C 0.96758 0.46405 0.84182 0.0
C2455 C 0.99278 0.50167 0.87241 0.0
C2456 C 0.96277 0.46181 0.82563 0.0
C2457 C 0.02087 0.51566 0.93572 0.0
C2458 C 0.01806 0.51019 0.91972 0.0
C2459 C 0.99132 0.47186 0.89044 0.0
C2460 C 0.98271 0.48137 0.84767 0.0
C2461 C 0.9875 0.48404 0.86495 0.0
C2462 C 0.00196 0.49308 0.91485 0.0
C2463 C -0.00303 0.48966 0.89771 0.0
H2464 H 0.9961 0.50595 0.81275 0.0
H2465 H 0.0049 0.50979 0.84099 0.0
H2466 H 0.98282 0.45538 0.86873 0.0
H2467 H 0.98223 0.47686 0.95124 0.0
H2468 H 0.97718 0.46731 0.92297 0.0
C2469 C 0.50507 0.48747 0.8201 0.0
C2470 C 0.51319 0.47696 0.81419 0.0
C2471 C 0.50083 0.48678 0.83629 0.0
C2472 C 0.49097 0.45592 0.87165 0.0
H2473 H 0.49535 0.50025 0.8939 0.0
C2474 C 0.48783 0.46741 0.94029 0.0
C2475 C 0.47987 0.47875 0.94451 0.0
C2476 C 0.48803 0.46251 0.92424 0.0
C2477 C 0.49378 0.48766 0.88776 0.0
H2478 H 0.52365 0.45784 0.82023 0.0
H2479 H 0.51684 0.45708 0.84873 0.0
H2480 H 0.50635 0.50342 0.86661 0.0
H2481 H 0.46336 0.49126 0.93603 0.0
H2482 H 0.46321 0.48226 0.90819 0.0
H2483 H 0.47893 0.44041 0.89326 0.0
C2484 C 0.51346 0.46562 0.84091 0.0
C2485 C 0.50012 0.48949 0.87212 0.0
C2486 C 0.51764 0.46628 0.8247 0.0
C2487 C 0.46961 0.48253 0.93301 0.0
C2488 C 0.46972 0.47758 0.91707 0.0
C2489 C 0.4848 0.45415 0.88745 0.0
C2490 C 0.5046 0.47552 0.84684 0.0
C2491 C 0.49866 0.47363 0.8638 0.0
C2492 C 0.48017 0.46885 0.91241 0.0
C2493 C 0.48594 0.46997 0.89556 0.0
H2494 H 0.50119 0.49545 0.81206 0.0
H2495 H 0.4938 0.4944 0.84037 0.0
H2496 H 0.48941 0.44334 0.86553 0.0
H2497 H 0.49596 0.46448 0.94896 0.0
H2498 H 0.49609 0.45566 0.92094 0.0
C2499 C 0.49867 0.04583 0.82698 0.0
C2500 C 0.50277 0.03471 0.81653 0.0
C2501 C 0.49682 0.04213 0.84334 0.0
C2502 C 0.50927 0.01766 0.87437 0.0
H2503 H 0.4705 0.02025 0.89924 0.0
C2504 C 0.48955 0.9833 0.93462 0.0
C2505 C 0.49338 0.99612 0.9474 0.0
C2506 C 0.48795 0.98844 0.91914 0.0
C2507 C 0.48145 0.01964 0.89241 0.0
H2508 H 0.50774 0.01076 0.81488 0.0
H2509 H 0.50411 0.00396 0.84332 0.0
H2510 H 0.47401 0.02864 0.87086 0.0
H2511 H 0.49669 0.02357 0.9543 0.0
H2512 H 0.49377 0.03264 0.92685 0.0
H2513 H 0.51632 0.00812 0.89572 0.0
C2514 C 0.50281 0.01589 0.83901 0.0
C2515 C 0.48353 0.02448 0.87622 0.0
C2516 C 0.50483 0.01972 0.8227 0.0
C2517 C 0.49369 0.01344 0.94463 0.0
C2518 C 0.49209 0.01864 0.92898 0.0
C2519 C 0.50705 0.01265 0.8904 0.0
C2520 C 0.49893 0.02714 0.84956 0.0
C2521 C 0.49728 0.02321 0.86696 0.0
C2522 C 0.49014 0.0065 0.9161 0.0
C2523 C 0.49294 0.01328 0.89948 0.0
H2524 H 0.49722 0.05763 0.82253 0.0
H2525 H 0.49409 0.05122 0.85114 0.0
H2526 H 0.52036 0.01706 0.86777 0.0
H2527 H 0.48901 0.96974 0.93648 0.0
H2528 H 0.48613 0.97874 0.90939 0.0
C2529 C 0.16639 0.31577 0.51467 0.0
C2530 C 0.15025 0.29917 0.51986 0.0
C2531 C 0.17186 0.31752 0.49872 0.0
C2532 C 0.15387 0.29661 0.45833 0.0
H2533 H 0.20726 0.32554 0.44788 0.0
C2534 C 0.17571 0.30947 0.3933 0.0
C2535 C 0.18585 0.32919 0.39023 0.0
C2536 C 0.17469 0.30289 0.40888 0.0
C2537 C 0.19232 0.31728 0.45064 0.0
H2538 H 0.12729 0.27129 0.51276 0.0
H2539 H 0.13712 0.27393 0.48498 0.0
H2540 H 0.19776 0.32007 0.4758 0.0
H2541 H 0.20479 0.35719 0.40045 0.0
H2542 H 0.20325 0.34574 0.4275 0.0
H2543 H 0.14844 0.29404 0.43319 0.0
C2544 C 0.14529 0.28591 0.493 0.0
C2545 C 0.18683 0.3143 0.46663 0.0
C2546 C 0.13963 0.28434 0.5089 0.0
C2547 C 0.19685 0.34191 0.40253 0.0
C2548 C 0.19596 0.33533 0.41804 0.0
C2549 C 0.15937 0.2994 0.44238 0.0
C2550 C 0.16153 0.30251 0.48769 0.0
C2551 C 0.1675 0.30432 0.4707 0.0
C2552 C 0.18394 0.31592 0.42153 0.0
C2553 C 0.17862 0.31012 0.43834 0.0
H2554 H 0.17475 0.32737 0.52299 0.0
H2555 H 0.18415 0.33071 0.49504 0.0
H2556 H 0.13887 0.2891 0.46092 0.0
H2557 H 0.16699 0.29936 0.38408 0.0
H2558 H 0.16555 0.2878 0.41122 0.0
C2559 C 0.69034 0.86448 0.51837 0.0
C2560 C 0.68313 0.84776 0.52754 0.0
C2561 C 0.68856 0.8634 0.50177 0.0
C2562 C 0.66233 0.82971 0.46839 0.0
H2563 H 0.70458 0.86653 0.44321 0.0
C2564 C 0.67192 0.81775 0.40241 0.0
C2565 C 0.67465 0.83234 0.39182 0.0
C2566 C 0.6726 0.82075 0.41884 0.0
C2567 C 0.69262 0.85632 0.45012 0.0
H2568 H 0.66813 0.81673 0.52633 0.0
H2569 H 0.66565 0.81483 0.49734 0.0
H2570 H 0.70631 0.8692 0.47231 0.0
H2571 H 0.68076 0.8617 0.3901 0.0
H2572 H 0.68252 0.86714 0.41913 0.0
H2573 H 0.64906 0.8164 0.44613 0.0
C2574 C 0.67234 0.82882 0.50302 0.0
C2575 C 0.69354 0.85784 0.46678 0.0
C2576 C 0.67397 0.8299 0.51966 0.0
C2577 C 0.67851 0.85019 0.39801 0.0
C2578 C 0.67957 0.85331 0.41455 0.0
C2579 C 0.66155 0.82806 0.45178 0.0
C2580 C 0.6797 0.84557 0.49386 0.0
C2581 C 0.67846 0.84444 0.47613 0.0
C2582 C 0.67635 0.8385 0.42506 0.0
C2583 C 0.67674 0.84124 0.44253 0.0
H2584 H 0.69782 0.87851 0.52398 0.0
H2585 H 0.69419 0.87659 0.49515 0.0
H2586 H 0.65029 0.8194 0.47516 0.0
H2587 H 0.66885 0.80382 0.39801 0.0
H2588 H 0.67027 0.80919 0.42673 0.0
C2589 C 0.14453 0.84681 0.5104 0.0
C2590 C 0.15806 0.84597 0.52031 0.0
C2591 C 0.147 0.84834 0.49386 0.0
C2592 C 0.18528 0.86349 0.46397 0.0
H2593 H 0.14352 0.83949 0.43365 0.0
C2594 C 0.1903 0.84529 0.3985 0.0
C2595 C 0.17834 0.84682 0.38722 0.0
C2596 C 0.19022 0.8505 0.4144 0.0
C2597 C 0.15528 0.84661 0.442 0.0
H2598 H 0.18398 0.84468 0.52078 0.0
H2599 H 0.18793 0.8465 0.49191 0.0
H2600 H 0.13714 0.83519 0.46216 0.0
H2601 H 0.15805 0.85631 0.38323 0.0
H2602 H 0.15765 0.86517 0.41121 0.0
H2603 H 0.20346 0.87403 0.44366 0.0
C2604 C 0.1758 0.84676 0.49685 0.0
C2605 C 0.15164 0.84409 0.45835 0.0
C2606 C 0.17344 0.84547 0.51337 0.0
C2607 C 0.16761 0.8553 0.39171 0.0
C2608 C 0.16721 0.86013 0.40771 0.0
C2609 C 0.18892 0.8658 0.44762 0.0
C2610 C 0.16297 0.84887 0.48693 0.0
C2611 C 0.16663 0.85222 0.46954 0.0
C2612 C 0.17785 0.85692 0.41929 0.0
C2613 C 0.17398 0.85717 0.43649 0.0
H2614 H 0.13266 0.84744 0.5155 0.0
H2615 H 0.13687 0.85 0.48662 0.0
H2616 H 0.19714 0.87041 0.47224 0.0
H2617 H 0.19851 0.83857 0.3953 0.0
H2618 H 0.19851 0.84781 0.42308 0.0
C2619 C 0.65532 0.80825 0.15501 0.0
C2620 C 0.64241 0.81258 0.14752 0.0
C2621 C 0.65835 0.8106 0.17154 0.0
C2622 C 0.6551 0.83808 0.20488 0.0
H2623 H 0.65307 0.7985 0.23228 0.0
C2624 C 0.65082 0.84443 0.27196 0.0
C2625 C 0.66168 0.83953 0.28181 0.0
C2626 C 0.64836 0.83946 0.25585 0.0
C2627 C 0.65393 0.80977 0.22476 0.0
H2628 H 0.622 0.82197 0.15163 0.0
H2629 H 0.62761 0.82645 0.18025 0.0
H2630 H 0.64974 0.79339 0.20326 0.0
H2631 H 0.67792 0.82497 0.28287 0.0
H2632 H 0.67433 0.81687 0.25425 0.0
H2633 H 0.65952 0.85464 0.22603 0.0
C2634 C 0.63556 0.8215 0.17334 0.0
C2635 C 0.65201 0.80683 0.20819 0.0
C2636 C 0.63246 0.81905 0.15692 0.0
C2637 C 0.6695 0.8289 0.27542 0.0
C2638 C 0.66738 0.82424 0.2591 0.0
C2639 C 0.65719 0.84108 0.22132 0.0
C2640 C 0.64861 0.81743 0.1808 0.0
C2641 C 0.65219 0.82084 0.19817 0.0
C2642 C 0.65714 0.8299 0.24907 0.0
C2643 C 0.65619 0.82682 0.23151 0.0
H2644 H 0.66325 0.80329 0.14808 0.0
H2645 H 0.66856 0.80746 0.17703 0.0
H2646 H 0.65568 0.84926 0.1974 0.0
H2647 H 0.64432 0.85228 0.27673 0.0
H2648 H 0.63982 0.84343 0.24863 0.0
C2649 C 0.16901 0.81833 0.15426 0.0
C2650 C 0.17903 0.80976 0.14829 0.0
C2651 C 0.16559 0.81801 0.1706 0.0
C2652 C 0.16155 0.79023 0.20675 0.0
H2653 H 0.16113 0.83278 0.22811 0.0
C2654 C 0.15495 0.79922 0.2754 0.0
C2655 C 0.14451 0.80814 0.27967 0.0
C2656 C 0.15725 0.7962 0.25927 0.0
C2657 C 0.16097 0.82069 0.22224 0.0
H2658 H 0.19362 0.79439 0.15434 0.0
H2659 H 0.18802 0.79412 0.18307 0.0
H2660 H 0.17134 0.83605 0.20052 0.0
H2661 H 0.12617 0.81837 0.27069 0.0
H2662 H 0.13002 0.81291 0.24269 0.0
H2663 H 0.15147 0.77506 0.22877 0.0
C2664 C 0.18264 0.80095 0.1752 0.0
C2665 C 0.16685 0.82257 0.20644 0.0
C2666 C 0.18607 0.80131 0.15884 0.0
C2667 C 0.13453 0.81174 0.26774 0.0
C2668 C 0.13685 0.80876 0.2517 0.0
C2669 C 0.1558 0.7884 0.22267 0.0
C2670 C 0.17204 0.80898 0.18124 0.0
C2671 C 0.16699 0.80731 0.19841 0.0
C2672 C 0.1491 0.80202 0.24729 0.0
C2673 C 0.15518 0.80354 0.23047 0.0
H2674 H 0.1632 0.82461 0.14621 0.0
H2675 H 0.15718 0.82412 0.17479 0.0
H2676 H 0.16128 0.7781 0.20086 0.0
H2677 H 0.16276 0.79623 0.28434 0.0
H2678 H 0.16666 0.79083 0.25618 0.0
C2679 C 0.15486 0.3498 0.15729 0.0
C2680 C 0.17069 0.36637 0.15164 0.0
C2681 C 0.15198 0.34678 0.17365 0.0
C2682 C 0.16202 0.37193 0.21197 0.0
H2683 H 0.1487 0.32246 0.22948 0.0
C2684 C 0.16059 0.35533 0.27952 0.0
C2685 C 0.14875 0.33626 0.28405 0.0
C2686 C 0.16079 0.36063 0.2636 0.0
C2687 C 0.15198 0.33624 0.22477 0.0
H2688 H 0.196 0.39275 0.15844 0.0
H2689 H 0.19082 0.38757 0.18728 0.0
H2690 H 0.15555 0.32818 0.20124 0.0
H2691 H 0.12604 0.3085 0.27636 0.0
H2692 H 0.1255 0.31795 0.2489 0.0
H2693 H 0.15839 0.37996 0.2356 0.0
C2694 C 0.18071 0.37692 0.17901 0.0
C2695 C 0.15607 0.33954 0.20859 0.0
C2696 C 0.18377 0.37979 0.16259 0.0
C2697 C 0.13534 0.32328 0.27309 0.0
C2698 C 0.13528 0.32864 0.25731 0.0
C2699 C 0.15777 0.36858 0.22822 0.0
C2700 C 0.16471 0.36043 0.18468 0.0
C2701 C 0.16108 0.35737 0.20201 0.0
C2702 C 0.14894 0.34694 0.25214 0.0
C2703 C 0.15258 0.35063 0.23479 0.0
H2704 H 0.1446 0.33931 0.14901 0.0
H2705 H 0.13949 0.33398 0.1777 0.0
H2706 H 0.16571 0.38578 0.20714 0.0
H2707 H 0.17118 0.36553 0.28777 0.0
H2708 H 0.17141 0.37489 0.26006 0.0
C2709 C 0.83398 0.64669 0.8482 0.0
C2710 C 0.81665 0.63139 0.85324 0.0
C2711 C 0.83918 0.64824 0.83217 0.0
C2712 C 0.81941 0.62963 0.79149 0.0
H2713 H 0.87264 0.65274 0.78082 0.0
C2714 C 0.84064 0.63971 0.72654 0.0
C2715 C 0.85112 0.65942 0.72356 0.0
C2716 C 0.83976 0.633 0.74206 0.0
C2717 C 0.85772 0.64604 0.78366 0.0
H2718 H 0.79116 0.60566 0.84568 0.0
H2719 H 0.8004 0.60786 0.81781 0.0
H2720 H 0.8632 0.64793 0.80879 0.0
H2721 H 0.87089 0.68719 0.73365 0.0
H2722 H 0.86993 0.67545 0.76055 0.0
H2723 H 0.814 0.62781 0.76636 0.0
C2724 C 0.80982 0.61906 0.82602 0.0
C2725 C 0.85228 0.64351 0.79968 0.0
C2726 C 0.80449 0.61775 0.842 0.0
C2727 C 0.8628 0.67191 0.73569 0.0
C2728 C 0.86219 0.66518 0.75111 0.0
C2729 C 0.82483 0.63185 0.77552 0.0
C2730 C 0.82731 0.63427 0.82088 0.0
C2731 C 0.83307 0.63567 0.80383 0.0
C2732 C 0.84963 0.6459 0.75464 0.0
C2733 C 0.84405 0.64042 0.77144 0.0
H2734 H 0.84356 0.65742 0.8567 0.0
H2735 H 0.8525 0.66044 0.82867 0.0
H2736 H 0.80454 0.62388 0.7941 0.0
H2737 H 0.83135 0.62984 0.71742 0.0
H2738 H 0.83012 0.61803 0.74448 0.0
C2739 C 0.37284 0.19 0.84409 0.0
C2740 C 0.35899 0.18921 0.85449 0.0
C2741 C 0.37107 0.19152 0.82762 0.0
C2742 C 0.33607 0.18328 0.79613 0.0
H2743 H 0.37896 0.22181 0.77257 0.0
C2744 C 0.32423 0.19608 0.73239 0.0
C2745 C 0.33629 0.1941 0.72164 0.0
C2746 C 0.32942 0.20024 0.74843 0.0
C2747 C 0.36689 0.21099 0.779 0.0
H2748 H 0.33214 0.18859 0.85589 0.0
H2749 H 0.32891 0.19103 0.82717 0.0
H2750 H 0.38268 0.21703 0.80096 0.0
H2751 H 0.3642 0.19746 0.7186 0.0
H2752 H 0.37321 0.20448 0.74674 0.0
H2753 H 0.3203 0.17693 0.77436 0.0
C2754 C 0.34117 0.19056 0.83169 0.0
C2755 C 0.36904 0.20817 0.7952 0.0
C2756 C 0.34303 0.18924 0.84812 0.0
C2757 C 0.35468 0.199 0.72668 0.0
C2758 C 0.35978 0.20289 0.74284 0.0
C2759 C 0.33393 0.18607 0.78004 0.0
C2760 C 0.3553 0.19203 0.82129 0.0
C2761 C 0.35357 0.19439 0.80393 0.0
C2762 C 0.34662 0.20216 0.75401 0.0
C2763 C 0.34922 0.2001 0.77131 0.0
H2764 H 0.38537 0.19017 0.84875 0.0
H2765 H 0.38207 0.19241 0.81986 0.0
H2766 H 0.324 0.17229 0.80246 0.0
H2767 H 0.31002 0.19244 0.72874 0.0
H2768 H 0.31924 0.20024 0.7567 0.0
C2769 C 0.8338 0.20716 0.845 0.0
C2770 C 0.82726 0.1907 0.85439 0.0
C2771 C 0.8354 0.20611 0.82849 0.0
C2772 C 0.81946 0.17133 0.79481 0.0
H2773 H 0.86345 0.21135 0.77333 0.0
C2774 C 0.84031 0.15754 0.73463 0.0
C2775 C 0.83777 0.16781 0.72232 0.0
C2776 C 0.84205 0.16372 0.75039 0.0
C2777 C 0.85106 0.20022 0.77922 0.0
H2778 H 0.8172 0.16027 0.85396 0.0
H2779 H 0.82038 0.15842 0.82518 0.0
H2780 H 0.85907 0.21465 0.8019 0.0
H2781 H 0.83705 0.19359 0.71654 0.0
H2782 H 0.84021 0.20455 0.74447 0.0
H2783 H 0.81187 0.15662 0.77231 0.0
C2784 C 0.8239 0.1721 0.83047 0.0
C2785 C 0.84847 0.20208 0.79551 0.0
C2786 C 0.82213 0.17313 0.84696 0.0
C2787 C 0.83905 0.18548 0.72585 0.0
C2788 C 0.84079 0.1917 0.74177 0.0
C2789 C 0.82217 0.1694 0.77868 0.0
C2790 C 0.8306 0.18859 0.82104 0.0
C2791 C 0.83279 0.18746 0.80354 0.0
C2792 C 0.84132 0.18029 0.75413 0.0
C2793 C 0.83813 0.18365 0.77083 0.0
H2794 H 0.83757 0.22085 0.85044 0.0
H2795 H 0.84026 0.219 0.82157 0.0
H2796 H 0.80697 0.16007 0.80048 0.0
H2797 H 0.83958 0.14397 0.73217 0.0
H2798 H 0.84269 0.15486 0.75977 0.0
C2799 C 0.29107 0.14552 0.49578 0.0
C2800 C 0.30462 0.14523 0.48568 0.0
C2801 C 0.29187 0.14314 0.51223 0.0
C2802 C 0.3128 0.12436 0.54168 0.0
H2803 H 0.29865 0.15107 0.57235 0.0
C2804 C 0.33816 0.14214 0.60681 0.0
C2805 C 0.32566 0.14243 0.61811 0.0
C2806 C 0.33211 0.13641 0.5911 0.0
C2807 C 0.30224 0.14318 0.56391 0.0
H2808 H 0.33023 0.1434 0.48481 0.0
H2809 H 0.33219 0.14009 0.51357 0.0
H2810 H 0.29653 0.15595 0.54394 0.0
H2811 H 0.29664 0.13514 0.62245 0.0
H2812 H 0.28606 0.12536 0.59482 0.0
H2813 H 0.31956 0.11251 0.56184 0.0
C2814 C 0.32049 0.14138 0.50881 0.0
C2815 C 0.3011 0.14603 0.5476 0.0
C2816 C 0.31953 0.1435 0.49237 0.0
C2817 C 0.30647 0.1348 0.61397 0.0
C2818 C 0.30049 0.12946 0.59814 0.0
C2819 C 0.31419 0.12173 0.558 0.0
C2820 C 0.30638 0.14063 0.51891 0.0
C2821 C 0.30667 0.1369 0.53627 0.0
C2822 C 0.31355 0.13125 0.58642 0.0
C2823 C 0.30915 0.1313 0.56926 0.0
H2824 H 0.27929 0.14659 0.49088 0.0
H2825 H 0.28069 0.14252 0.51958 0.0
H2826 H 0.31674 0.11669 0.53331 0.0
H2827 H 0.35307 0.14816 0.60973 0.0
H2828 H 0.34248 0.13797 0.58231 0.0
C2829 C 0.84143 0.15604 0.48743 0.0
C2830 C 0.84527 0.1422 0.48118 0.0
C2831 C 0.83807 0.15635 0.50374 0.0
C2832 C 0.82287 0.12426 0.53879 0.0
H2833 H 0.8359 0.17116 0.56178 0.0
C2834 C 0.81791 0.1332 0.60762 0.0
C2835 C 0.81145 0.14577 0.61214 0.0
C2836 C 0.81988 0.13015 0.59145 0.0
C2837 C 0.83203 0.15793 0.55543 0.0
H2838 H 0.84966 0.11855 0.48681 0.0
H2839 H 0.84467 0.11958 0.51543 0.0
H2840 H 0.84632 0.17278 0.53437 0.0
H2841 H 0.79966 0.16295 0.60339 0.0
H2842 H 0.80308 0.15758 0.57529 0.0
H2843 H 0.80901 0.10955 0.5602 0.0
C2844 C 0.8436 0.12979 0.5078 0.0
C2845 C 0.83798 0.15885 0.53973 0.0
C2846 C 0.84668 0.12933 0.49149 0.0
C2847 C 0.80497 0.15343 0.60027 0.0
C2848 C 0.80704 0.15047 0.58419 0.0
C2849 C 0.81714 0.12338 0.55461 0.0
C2850 C 0.83869 0.14293 0.51408 0.0
C2851 C 0.8333 0.14203 0.53112 0.0
C2852 C 0.81541 0.13964 0.57967 0.0
C2853 C 0.82145 0.1402 0.56298 0.0
H2854 H 0.84008 0.16593 0.47958 0.0
H2855 H 0.83414 0.16656 0.50809 0.0
H2856 H 0.81873 0.11097 0.53247 0.0
H2857 H 0.82295 0.12703 0.61651 0.0
H2858 H 0.82626 0.1216 0.58821 0.0
C2859 C 0.84676 0.70975 0.495 0.0
C2860 C 0.83303 0.697 0.48408 0.0
C2861 C 0.84367 0.70711 0.51143 0.0
C2862 C 0.81761 0.67113 0.54155 0.0
H2863 H 0.82414 0.71386 0.5678 0.0
C2864 C 0.80498 0.66028 0.60813 0.0
C2865 C 0.81939 0.67445 0.6177 0.0
C2866 C 0.80289 0.664 0.59222 0.0
C2867 C 0.82234 0.70181 0.56068 0.0
H2868 H 0.80572 0.67116 0.48161 0.0
H2869 H 0.80056 0.6662 0.51037 0.0
H2870 H 0.82981 0.71806 0.5391 0.0
H2871 H 0.84192 0.70395 0.61878 0.0
H2872 H 0.83866 0.71048 0.59095 0.0
H2873 H 0.81103 0.65503 0.56297 0.0
C2874 C 0.81356 0.67836 0.50624 0.0
C2875 C 0.82562 0.70424 0.54425 0.0
C2876 C 0.81649 0.68119 0.48983 0.0
C2877 C 0.83046 0.69293 0.61165 0.0
C2878 C 0.82862 0.69659 0.59564 0.0
C2879 C 0.8146 0.66876 0.55796 0.0
C2880 C 0.82696 0.69149 0.51719 0.0
C2881 C 0.82337 0.68894 0.53456 0.0
C2882 C 0.81555 0.68181 0.58548 0.0
C2883 C 0.81698 0.68407 0.5678 0.0
H2884 H 0.85957 0.72212 0.49083 0.0
H2885 H 0.85431 0.71731 0.51964 0.0
H2886 H 0.81596 0.65916 0.53437 0.0
H2887 H 0.79646 0.64584 0.61254 0.0
H2888 H 0.79224 0.65246 0.58491 0.0
loop_
_geom_bond_atom_site_label_1
_geom_bond_atom_site_label_2
_geom_bond_distance
_geom_bond_site_symmetry_2
_ccdc_geom_bond_type
C0 C1 1.391 . S
C0 C4 1.391 . S
C0 H42 0.948 . S
C1 C0 1.391 . S
C1 C2 1.391 . S
C2 C1 1.391 . S
C2 H58 0.947 . S
C2 C59 1.392 . S
C3 C4 1.391 . S
C3 C7 1.397 . S
C3 C59 1.419 . S
C4 C0 1.391 . S
C4 C3 1.391 . S
C4 C5 1.399 . S
C5 C4 1.399 . S
C5 C8 1.396 . S
C5 C17 1.453 . S
C5 C18 1.684 . S
H6 C30 0.948 . S
C7 C3 1.397 . S
C7 C8 1.394 . S
C7 C26 1.723 . S
C8 C5 1.396 . S
C8 C7 1.394 . S
C8 C38 1.723 . S
H9 C32 0.947 . S
H10 C33 0.948 . S
H11 C39 0.982 . S
H12 C40 0.979 . S
H13 C40 0.980 . S
H14 C40 0.983 . S
H15 C39 0.979 . S
H16 C39 0.977 . S
C17 C5 1.453 . S
C17 H46 0.982 . S
C17 H47 0.979 . S
C17 H48 0.977 . S
C18 C5 1.684 . S
C18 H43 0.979 . S
C18 H44 0.980 . S
C18 H45 0.983 . S
C19 C20 1.391 . S
C19 C24 1.391 . S
C19 H49 0.948 . S
C20 C19 1.391 . S
C20 C21 1.391 . S
C21 C20 1.391 . S
C21 C22 1.392 . S
C21 H50 0.947 . S
C22 C21 1.392 . S
C22 C23 1.419 . S
C22 H51 0.948 . S
C23 C22 1.419 . S
C23 C24 1.391 . S
C23 C27 1.397 . S
C24 C19 1.391 . S
C24 C23 1.391 . S
C24 C25 1.399 . S
C25 C24 1.399 . S
C25 C26 1.396 . S
C25 C28 1.453 . S
C25 C29 1.684 . S
C26 C7 1.723 . S
C26 C25 1.396 . S
C26 C27 1.394 . S
C27 C23 1.397 . S
C27 C26 1.394 . S
C27 C37 1.723 . S
C28 C25 1.453 . S
C28 H52 0.982 . S
C28 H53 0.979 . S
C28 H54 0.977 . S
C29 C25 1.684 . S
C29 H55 0.979 . S
C29 H56 0.980 . S
C29 H57 0.983 . S
C30 H6 0.948 . S
C30 C31 1.391 . S
C30 C35 1.391 . S
C31 C30 1.391 . S
C31 C32 1.391 . S
C32 H9 0.947 . S
C32 C31 1.391 . S
C32 C33 1.392 . S
C33 H10 0.948 . S
C33 C32 1.392 . S
C33 C34 1.419 . S
C34 C33 1.419 . S
C34 C35 1.391 . S
C34 C38 1.397 . S
C35 C30 1.391 . S
C35 C34 1.391 . S
C35 C36 1.399 . S
C36 C35 1.399 . S
C36 C37 1.396 . S
C36 C39 1.453 . S
C36 C40 1.684 . S
C37 C27 1.723 . S
C37 C36 1.396 . S
C37 C38 1.394 . S
C38 C8 1.723 . S
C38 C34 1.397 . S
C38 C37 1.394 . S
C39 H11 0.982 . S
C39 H15 0.979 . S
C39 H16 0.977 . S
C39 C36 1.453 . S
C40 H12 0.979 . S
C40 H13 0.980 . S
C40 H14 0.983 . S
C40 C36 1.684 . S
H41 C59 0.948 . S
H42 C0 0.948 . S
H43 C18 0.979 . S
H44 C18 0.980 . S
H45 C18 0.983 . S
H46 C17 0.982 . S
H47 C17 0.979 . S
H48 C17 0.977 . S
H49 C19 0.948 . S
H50 C21 0.947 . S
H51 C22 0.948 . S
H52 C28 0.982 . S
H53 C28 0.979 . S
H54 C28 0.977 . S
H55 C29 0.979 . S
H56 C29 0.980 . S
H57 C29 0.983 . S
H58 C2 0.947 . S
C59 C2 1.392 . S
C59 C3 1.419 . S
C59 H41 0.948 . S
C60 C61 1.391 . S
C60 C64 1.391 . S
C60 H102 0.948 . S
C61 C60 1.391 . S
C61 C62 1.391 . S
C62 C61 1.391 . S
C62 H118 0.947 . S
C62 C119 1.392 . S
C63 C64 1.391 . S
C63 C67 1.397 . S
C63 C119 1.419 . S
C64 C60 1.391 . S
C64 C63 1.391 . S
C64 C65 1.399 . S
C65 C64 1.399 . S
C65 C68 1.396 . S
C65 C77 1.453 . S
C65 C78 1.684 . S
H66 C90 0.948 . S
C67 C63 1.397 . S
C67 C68 1.394 . S
C67 C86 1.723 . S
C68 C65 1.396 . S
C68 C67 1.394 . S
C68 C98 1.723 . S
H69 C92 0.947 . S
H70 C93 0.948 . S
H71 C99 0.982 . S
H72 C100 0.979 . S
H73 C100 0.980 . S
H74 C100 0.983 . S
H75 C99 0.979 . S
H76 C99 0.977 . S
C77 C65 1.453 . S
C77 H106 0.982 . S
C77 H107 0.979 . S
C77 H108 0.977 . S
C78 C65 1.684 . S
C78 H103 0.979 . S
C78 H104 0.980 . S
C78 H105 0.983 . S
C79 C80 1.391 . S
C79 C84 1.391 . S
C79 H109 0.948 . S
C80 C79 1.391 . S
C80 C81 1.391 . S
C81 C80 1.391 . S
C81 C82 1.392 . S
C81 H110 0.947 . S
C82 C81 1.392 . S
C82 C83 1.419 . S
C82 H111 0.948 . S
C83 C82 1.419 . S
C83 C84 1.391 . S
C83 C87 1.397 . S
C84 C79 1.391 . S
C84 C83 1.391 . S
C84 C85 1.399 . S
C85 C84 1.399 . S
C85 C86 1.396 . S
C85 C88 1.453 . S
C85 C89 1.684 . S
C86 C67 1.723 . S
C86 C85 1.396 . S
C86 C87 1.394 . S
C87 C83 1.397 . S
C87 C86 1.394 . S
C87 C97 1.723 . S
C88 C85 1.453 . S
C88 H112 0.982 . S
C88 H113 0.979 . S
C88 H114 0.977 . S
C89 C85 1.684 . S
C89 H115 0.979 . S
C89 H116 0.980 . S
C89 H117 0.983 . S
C90 H66 0.948 . S
C90 C91 1.391 . S
C90 C95 1.391 . S
C91 C90 1.391 . S
C91 C92 1.391 . S
C92 H69 0.947 . S
C92 C91 1.391 . S
C92 C93 1.392 . S
C93 H70 0.948 . S
C93 C92 1.392 . S
C93 C94 1.419 . S
C94 C93 1.419 . S
C94 C95 1.391 . S
C94 C98 1.397 . S
C95 C90 1.391 . S
C95 C94 1.391 . S
C95 C96 1.399 . S
C96 C95 1.399 . S
C96 C97 1.396 . S
C96 C99 1.453 . S
C96 C100 1.684 . S
C97 C87 1.723 . S
C97 C96 1.396 . S
C97 C98 1.394 . S
C98 C68 1.723 . S
C98 C94 1.397 . S
C98 C97 1.394 . S
C99 H71 0.982 . S
C99 H75 0.979 . S
C99 H76 0.977 . S
C99 C96 1.453 . S
C100 H72 0.979 . S
C100 H73 0.980 . S
C100 H74 0.983 . S
C100 C96 1.684 . S
H101 C119 0.948 . S
H102 C60 0.948 . S
H103 C78 0.979 . S
H104 C78 0.980 . S
H105 C78 0.983 . S
H106 C77 0.982 . S
H107 C77 0.979 . S
H108 C77 0.977 . S
H109 C79 0.948 . S
H110 C81 0.947 . S
H111 C82 0.948 . S
H112 C88 0.982 . S
H113 C88 0.979 . S
H114 C88 0.977 . S
H115 C89 0.979 . S
H116 C89 0.980 . S
H117 C89 0.983 . S
H118 C62 0.947 . S
C119 C62 1.392 . S
C119 C63 1.419 . S
C119 H101 0.948 . S
C120 C121 1.391 . S
C120 C124 1.391 . S
C120 H162 0.948 . S
C121 C120 1.391 . S
C121 C122 1.391 . S
C122 C121 1.391 . S
C122 H178 0.947 . S
C122 C179 1.392 . S
C123 C124 1.391 . S
C123 C127 1.397 . S
C123 C179 1.419 . S
C124 C120 1.391 . S
C124 C123 1.391 . S
C124 C125 1.399 . S
C125 C124 1.399 . S
C125 C128 1.396 . S
C125 C137 1.453 . S
C125 C138 1.684 . S
H126 C150 0.948 . S
C127 C123 1.397 . S
C127 C128 1.394 . S
C127 C146 1.723 . S
C128 C125 1.396 . S
C128 C127 1.394 . S
C128 C158 1.723 . S
H129 C152 0.947 . S
H130 C153 0.948 . S
H131 C159 0.982 . S
H132 C160 0.979 . S
H133 C160 0.980 . S
H134 C160 0.983 . S
H135 C159 0.979 . S
H136 C159 0.977 . S
C137 C125 1.453 . S
C137 H166 0.982 . S
C137 H167 0.979 . S
C137 H168 0.977 . S
C138 C125 1.684 . S
C138 H163 0.979 . S
C138 H164 0.980 . S
C138 H165 0.983 . S
C139 C140 1.391 . S
C139 C144 1.391 . S
C139 H169 0.948 . S
C140 C139 1.391 . S
C140 C141 1.391 . S
C141 C140 1.391 . S
C141 C142 1.392 . S
C141 H170 0.947 . S
C142 C141 1.392 . S
C142 C143 1.419 . S
C142 H171 0.948 . S
C143 C142 1.419 . S
C143 C144 1.391 . S
C143 C147 1.397 . S
C144 C139 1.391 . S
C144 C143 1.391 . S
C144 C145 1.399 . S
C145 C144 1.399 . S
C145 C146 1.396 . S
C145 C148 1.453 . S
C145 C149 1.684 . S
C146 C127 1.723 . S
C146 C145 1.396 . S
C146 C147 1.394 . S
C147 C143 1.397 . S
C147 C146 1.394 . S
C147 C157 1.723 . S
C148 C145 1.453 . S
C148 H172 0.982 . S
C148 H173 0.979 . S
C148 H174 0.977 . S
C149 C145 1.684 . S
C149 H175 0.979 . S
C149 H176 0.980 . S
C149 H177 0.983 . S
C150 H126 0.948 . S
C150 C151 1.391 . S
C150 C155 1.391 . S
C151 C150 1.391 . S
C151 C152 1.391 . S
C152 H129 0.947 . S
C152 C151 1.391 . S
C152 C153 1.392 . S
C153 H130 0.948 . S
C153 C152 1.392 . S
C153 C154 1.419 . S
C154 C153 1.419 . S
C154 C155 1.391 . S
C154 C158 1.397 . S
C155 C150 1.391 . S
C155 C154 1.391 . S
C155 C156 1.399 . S
C156 C155 1.399 . S
C156 C157 1.396 . S
C156 C159 1.453 . S
C156 C160 1.684 . S
C157 C147 1.723 . S
C157 C156 1.396 . S
C157 C158 1.394 . S
C158 C128 1.723 . S
C158 C154 1.397 . S
C158 C157 1.394 . S
C159 H131 0.982 . S
C159 H135 0.979 . S
C159 H136 0.977 . S
C159 C156 1.453 . S
C160 H132 0.979 . S
C160 H133 0.980 . S
C160 H134 0.983 . S
C160 C156 1.684 . S
H161 C179 0.948 . S
H162 C120 0.948 . S
H163 C138 0.979 . S
H164 C138 0.980 . S
H165 C138 0.983 . S
H166 C137 0.982 . S
H167 C137 0.979 . S
H168 C137 0.977 . S
H169 C139 0.948 . S
H170 C141 0.947 . S
H171 C142 0.948 . S
H172 C148 0.982 . S
H173 C148 0.979 . S
H174 C148 0.977 . S
H175 C149 0.979 . S
H176 C149 0.980 . S
H177 C149 0.983 . S
H178 C122 0.947 . S
C179 C122 1.392 . S
C179 C123 1.419 . S
C179 H161 0.948 . S
C180 C181 1.391 . S
C180 C184 1.391 . S
C180 H222 0.948 . S
C181 C180 1.391 . S
C181 C182 1.391 . S
C182 C181 1.391 . S
C182 H238 0.947 . S
C182 C239 1.392 . S
C183 C184 1.391 . S
C183 C187 1.397 . S
C183 C239 1.419 . S
C184 C180 1.391 . S
C184 C183 1.391 . S
C184 C185 1.399 . S
C185 C184 1.399 . S
C185 C188 1.396 . S
C185 C197 1.453 . S
C185 C198 1.684 . S
H186 C210 0.948 . S
C187 C183 1.397 . S
C187 C188 1.394 . S
C187 C206 1.723 . S
C188 C185 1.396 . S
C188 C187 1.394 . S
C188 C218 1.723 . S
H189 C212 0.947 . S
H190 C213 0.948 . S
H191 C219 0.982 . S
H192 C220 0.979 . S
H193 C220 0.980 . S
H194 C220 0.983 . S
H195 C219 0.979 . S
H196 C219 0.977 . S
C197 C185 1.453 . S
C197 H226 0.982 . S
C197 H227 0.979 . S
C197 H228 0.977 . S
C198 C185 1.684 . S
C198 H223 0.979 . S
C198 H224 0.980 . S
C198 H225 0.983 . S
C199 C200 1.391 . S
C199 C204 1.391 . S
C199 H229 0.948 . S
C200 C199 1.391 . S
C200 C201 1.391 . S
C201 C200 1.391 . S
C201 C202 1.392 . S
C201 H230 0.947 . S
C202 C201 1.392 . S
C202 C203 1.419 . S
C202 H231 0.948 . S
C203 C202 1.419 . S
C203 C204 1.391 . S
C203 C207 1.397 . S
C204 C199 1.391 . S
C204 C203 1.391 . S
C204 C205 1.399 . S
C205 C204 1.399 . S
C205 C206 1.396 . S
C205 C208 1.453 . S
C205 C209 1.684 . S
C206 C187 1.723 . S
C206 C205 1.396 . S
C206 C207 1.394 . S
C207 C203 1.397 . S
C207 C206 1.394 . S
C207 C217 1.723 . S
C208 C205 1.453 . S
C208 H232 0.982 . S
C208 H233 0.979 . S
C208 H234 0.977 . S
C209 C205 1.684 . S
C209 H235 0.979 . S
C209 H236 0.980 . S
C209 H237 0.983 . S
C210 H186 0.948 . S
C210 C211 1.391 . S
C210 C215 1.391 . S
C211 C210 1.391 . S
C211 C212 1.391 . S
C212 H189 0.947 . S
C212 C211 1.391 . S
C212 C213 1.392 . S
C213 H190 0.948 . S
C213 C212 1.392 . S
C213 C214 1.419 . S
C214 C213 1.419 . S
C214 C215 1.391 . S
C214 C218 1.397 . S
C215 C210 1.391 . S
C215 C214 1.391 . S
C215 C216 1.399 . S
C216 C215 1.399 . S
C216 C217 1.396 . S
C216 C219 1.453 . S
C216 C220 1.684 . S
C217 C207 1.723 . S
C217 C216 1.396 . S
C217 C218 1.394 . S
C218 C188 1.723 . S
C218 C214 1.397 . S
C218 C217 1.394 . S
C219 H191 0.982 . S
C219 H195 0.979 . S
C219 H196 0.977 . S
C219 C216 1.453 . S
C220 H192 0.979 . S
C220 H193 0.980 . S
C220 H194 0.983 . S
C220 C216 1.684 . S
H221 C239 0.948 . S
H222 C180 0.948 . S
H223 C198 0.979 . S
H224 C198 0.980 . S
H225 C198 0.983 . S
H226 C197 0.982 . S
H227 C197 0.979 . S
H228 C197 0.977 . S
H229 C199 0.948 . S
H230 C201 0.947 . S
H231 C202 0.948 . S
H232 C208 0.982 . S
H233 C208 0.979 . S
H234 C208 0.977 . S
H235 C209 0.979 . S
H236 C209 0.980 . S
H237 C209 0.983 . S
H238 C182 0.947 . S
C239 C182 1.392 . S
C239 C183 1.419 . S
C239 H221 0.948 . S
C240 C241 1.391 . S
C240 C244 1.391 . S
C240 H282 0.948 . S
C241 C240 1.391 . S
C241 C242 1.391 . S
C242 C241 1.391 . S
C242 H298 0.947 . S
C242 C299 1.392 . S
C243 C244 1.391 . S
C243 C247 1.397 . S
C243 C299 1.419 . S
C244 C240 1.391 . S
C244 C243 1.391 . S
C244 C245 1.399 . S
C245 C244 1.399 . S
C245 C248 1.396 . S
C245 C257 1.453 . S
C245 C258 1.684 . S
H246 C270 0.948 . S
C247 C243 1.397 . S
C247 C248 1.394 . S
C247 C266 1.723 . S
C248 C245 1.396 . S
C248 C247 1.394 . S
C248 C278 1.723 . S
H249 C272 0.947 . S
H250 C273 0.948 . S
H251 C279 0.982 . S
H252 C280 0.979 . S
H253 C280 0.980 . S
H254 C280 0.983 . S
H255 C279 0.979 . S
H256 C279 0.977 . S
C257 C245 1.453 . S
C257 H286 0.982 . S
C257 H287 0.979 . S
C257 H288 0.977 . S
C258 C245 1.684 . S
C258 H283 0.979 . S
C258 H284 0.980 . S
C258 H285 0.983 . S
C259 C260 1.391 . S
C259 C264 1.391 . S
C259 H289 0.948 . S
C260 C259 1.391 . S
C260 C261 1.391 . S
C261 C260 1.391 . S
C261 C262 1.392 . S
C261 H290 0.947 . S
C262 C261 1.392 . S
C262 C263 1.419 . S
C262 H291 0.948 . S
C263 C262 1.419 . S
C263 C264 1.391 . S
C263 C267 1.397 . S
C264 C259 1.391 . S
C264 C263 1.391 . S
C264 C265 1.399 . S
C265 C264 1.399 . S
C265 C266 1.396 . S
C265 C268 1.453 . S
C265 C269 1.684 . S
C266 C247 1.723 . S
C266 C265 1.396 . S
C266 C267 1.394 . S
C267 C263 1.397 . S
C267 C266 1.394 . S
C267 C277 1.723 . S
C268 C265 1.453 . S
C268 H292 0.982 . S
C268 H293 0.979 . S
C268 H294 0.977 . S
C269 C265 1.684 . S
C269 H295 0.979 . S
C269 H296 0.980 . S
C269 H297 0.983 . S
C270 H246 0.948 . S
C270 C271 1.391 . S
C270 C275 1.391 . S
C271 C270 1.391 . S
C271 C272 1.391 . S
C272 H249 0.947 . S
C272 C271 1.391 . S
C272 C273 1.392 . S
C273 H250 0.948 . S
C273 C272 1.392 . S
C273 C274 1.419 . S
C274 C273 1.419 . S
C274 C275 1.391 . S
C274 C278 1.397 . S
C275 C270 1.391 . S
C275 C274 1.391 . S
C275 C276 1.399 . S
C276 C275 1.399 . S
C276 C277 1.396 . S
C276 C279 1.453 . S
C276 C280 1.684 . S
C277 C267 1.723 . S
C277 C276 1.396 . S
C277 C278 1.394 . S
C278 C248 1.723 . S
C278 C274 1.397 . S
C278 C277 1.394 . S
C279 H251 0.982 . S
C279 H255 0.979 . S
C279 H256 0.977 . S
C279 C276 1.453 . S
C280 H252 0.979 . S
C280 H253 0.980 . S
C280 H254 0.983 . S
C280 C276 1.684 . S
H281 C299 0.948 . S
H282 C240 0.948 . S
H283 C258 0.979 . S
H284 C258 0.980 . S
H285 C258 0.983 . S
H286 C257 0.982 . S
H287 C257 0.979 . S
H288 C257 0.977 . S
H289 C259 0.948 . S
H290 C261 0.947 . S
H291 C262 0.948 . S
H292 C268 0.982 . S
H293 C268 0.979 . S
H294 C268 0.977 . S
H295 C269 0.979 . S
H296 C269 0.980 . S
H297 C269 0.983 . S
H298 C242 0.947 . S
C299 C242 1.392 . S
C299 C243 1.419 . S
C299 H281 0.948 . S
C300 C301 1.391 . S
C300 C304 1.391 . S
C300 H342 0.948 . S
C301 C300 1.391 . S
C301 C302 1.391 . S
C302 C301 1.391 . S
C302 H358 0.947 . S
C302 C359 1.392 . S
C303 C304 1.391 . S
C303 C307 1.397 . S
C303 C359 1.419 . S
C304 C300 1.391 . S
C304 C303 1.391 . S
C304 C305 1.399 . S
C305 C304 1.399 . S
C305 C308 1.396 . S
C305 C317 1.453 . S
C305 C318 1.684 . S
H306 C330 0.948 . S
C307 C303 1.397 . S
C307 C308 1.394 . S
C307 C326 1.723 . S
C308 C305 1.396 . S
C308 C307 1.394 . S
C308 C338 1.723 . S
H309 C332 0.947 . S
H310 C333 0.948 . S
H311 C339 0.982 . S
H312 C340 0.979 . S
H313 C340 0.980 . S
H314 C340 0.983 . S
H315 C339 0.979 . S
H316 C339 0.977 . S
C317 C305 1.453 . S
C317 H346 0.982 . S
C317 H347 0.979 . S
C317 H348 0.977 . S
C318 C305 1.684 . S
C318 H343 0.979 . S
C318 H344 0.980 . S
C318 H345 0.983 . S
C319 C320 1.391 . S
C319 C324 1.391 . S
C319 H349 0.948 . S
C320 C319 1.391 . S
C320 C321 1.391 . S
C321 C320 1.391 . S
C321 C322 1.392 . S
C321 H350 0.947 . S
C322 C321 1.392 . S
C322 C323 1.419 . S
C322 H351 0.948 . S
C323 C322 1.419 . S
C323 C324 1.391 . S
C323 C327 1.397 . S
C324 C319 1.391 . S
C324 C323 1.391 . S
C324 C325 1.399 . S
C325 C324 1.399 . S
C325 C326 1.396 . S
C325 C328 1.453 . S
C325 C329 1.684 . S
C326 C307 1.723 . S
C326 C325 1.396 . S
C326 C327 1.394 . S
C327 C323 1.397 . S
C327 C326 1.394 . S
C327 C337 1.723 . S
C328 C325 1.453 . S
C328 H352 0.982 . S
C328 H353 0.979 . S
C328 H354 0.977 . S
C329 C325 1.684 . S
C329 H355 0.979 . S
C329 H356 0.980 . S
C329 H357 0.983 . S
C330 H306 0.948 . S
C330 C331 1.391 . S
C330 C335 1.391 . S
C331 C330 1.391 . S
C331 C332 1.391 . S
C332 H309 0.947 . S
C332 C331 1.391 . S
C332 C333 1.392 . S
C333 H310 0.948 . S
C333 C332 1.392 . S
C333 C334 1.419 . S
C334 C333 1.419 . S
C334 C335 1.391 . S
C334 C338 1.397 . S
C335 C330 1.391 . S
C335 C334 1.391 . S
C335 C336 1.399 . S
C336 C335 1.399 . S
C336 C337 1.396 . S
C336 C339 1.453 . S
C336 C340 1.684 . S
C337 C327 1.723 . S
C337 C336 1.396 . S
C337 C338 1.394 . S
C338 C308 1.723 . S
C338 C334 1.397 . S
C338 C337 1.394 . S
C339 H311 0.982 . S
C339 H315 0.979 . S
C339 H316 0.977 . S
C339 C336 1.453 . S
C340 H312 0.979 . S
C340 H313 0.980 . S
C340 H314 0.983 . S
C340 C336 1.684 . S
H341 C359 0.948 . S
H342 C300 0.948 . S
H343 C318 0.979 . S
H344 C318 0.980 . S
H345 C318 0.983 . S
H346 C317 0.982 . S
H347 C317 0.979 . S
H348 C317 0.977 . S
H349 C319 0.948 . S
H350 C321 0.947 . S
H351 C322 0.948 . S
H352 C328 0.982 . S
H353 C328 0.979 . S
H354 C328 0.977 . S
H355 C329 0.979 . S
H356 C329 0.980 . S
H357 C329 0.983 . S
H358 C302 0.947 . S
C359 C302 1.392 . S
C359 C303 1.419 . S
C359 H341 0.948 . S
C360 C361 1.391 . S
C360 C364 1.391 . S
C360 H402 0.948 . S
C361 C360 1.391 . S
C361 C362 1.391 . S
C362 C361 1.391 . S
C362 H418 0.947 . S
C362 C419 1.392 . S
C363 C364 1.391 . S
C363 C367 1.397 . S
C363 C419 1.419 . S
C364 C360 1.391 . S
C364 C363 1.391 . S
C364 C365 1.399 . S
C365 C364 1.399 . S
C365 C368 1.396 . S
C365 C377 1.453 . S
C365 C378 1.684 . S
H366 C390 0.948 . S
C367 C363 1.397 . S
C367 C368 1.394 . S
C367 C386 1.723 . S
C368 C365 1.396 . S
C368 C367 1.394 . S
C368 C398 1.723 . S
H369 C392 0.947 . S
H370 C393 0.948 . S
H371 C399 0.982 . S
H372 C400 0.979 . S
H373 C400 0.980 . S
H374 C400 0.983 . S
H375 C399 0.979 . S
H376 C399 0.977 . S
C377 C365 1.453 . S
C377 H406 0.982 . S
C377 H407 0.979 . S
C377 H408 0.977 . S
C378 C365 1.684 . S
C378 H403 0.979 . S
C378 H404 0.980 . S
C378 H405 0.983 . S
C379 C380 1.391 . S
C379 C384 1.391 . S
C379 H409 0.948 . S
C380 C379 1.391 . S
C380 C381 1.391 . S
C381 C380 1.391 . S
C381 C382 1.392 . S
C381 H410 0.947 . S
C382 C381 1.392 . S
C382 C383 1.419 . S
C382 H411 0.948 . S
C383 C382 1.419 . S
C383 C384 1.391 . S
C383 C387 1.397 . S
C384 C379 1.391 . S
C384 C383 1.391 . S
C384 C385 1.399 . S
C385 C384 1.399 . S
C385 C386 1.396 . S
C385 C388 1.453 . S
C385 C389 1.684 . S
C386 C367 1.723 . S
C386 C385 1.396 . S
C386 C387 1.394 . S
C387 C383 1.397 . S
C387 C386 1.394 . S
C387 C397 1.723 . S
C388 C385 1.453 . S
C388 H412 0.982 . S
C388 H413 0.979 . S
C388 H414 0.977 . S
C389 C385 1.684 . S
C389 H415 0.979 . S
C389 H416 0.980 . S
C389 H417 0.983 . S
C390 H366 0.948 . S
C390 C391 1.391 . S
C390 C395 1.391 . S
C391 C390 1.391 . S
C391 C392 1.391 . S
C392 H369 0.947 . S
C392 C391 1.391 . S
C392 C393 1.392 . S
C393 H370 0.948 . S
C393 C392 1.392 . S
C393 C394 1.419 . S
C394 C393 1.419 . S
C394 C395 1.391 . S
C394 C398 1.397 . S
C395 C390 1.391 . S
C395 C394 1.391 . S
C395 C396 1.399 . S
C396 C395 1.399 . S
C396 C397 1.396 . S
C396 C399 1.453 . S
C396 C400 1.684 . S
C397 C387 1.723 . S
C397 C396 1.396 . S
C397 C398 1.394 . S
C398 C368 1.723 . S
C398 C394 1.397 . S
C398 C397 1.394 . S
C399 H371 0.982 . S
C399 H375 0.979 . S
C399 H376 0.977 . S
C399 C396 1.453 . S
C400 H372 0.979 . S
C400 H373 0.980 . S
C400 H374 0.983 . S
C400 C396 1.684 . S
H401 C419 0.948 . S
H402 C360 0.948 . S
H403 C378 0.979 . S
H404 C378 0.980 . S
H405 C378 0.983 . S
H406 C377 0.982 . S
H407 C377 0.979 . S
H408 C377 0.977 . S
H409 C379 0.948 . S
H410 C381 0.947 . S
H411 C382 0.948 . S
H412 C388 0.982 . S
H413 C388 0.979 . S
H414 C388 0.977 . S
H415 C389 0.979 . S
H416 C389 0.980 . S
H417 C389 0.983 . S
H418 C362 0.947 . S
C419 C362 1.392 . S
C419 C363 1.419 . S
C419 H401 0.948 . S
C420 C421 1.391 . S
C420 C424 1.391 . S
C420 H462 0.948 . S
C421 C420 1.391 . S
C421 C422 1.391 . S
C422 C421 1.391 . S
C422 H478 0.947 . S
C422 C479 1.392 . S
C423 C424 1.391 . S
C423 C427 1.397 . S
C423 C479 1.419 . S
C424 C420 1.391 . S
C424 C423 1.391 . S
C424 C425 1.399 . S
C425 C424 1.399 . S
C425 C428 1.396 . S
C425 C437 1.453 . S
C425 C438 1.684 . S
H426 C450 0.948 . S
C427 C423 1.397 . S
C427 C428 1.394 . S
C427 C446 1.723 . S
C428 C425 1.396 . S
C428 C427 1.394 . S
C428 C458 1.723 . S
H429 C452 0.947 . S
H430 C453 0.948 . S
H431 C459 0.982 . S
H432 C460 0.979 . S
H433 C460 0.980 . S
H434 C460 0.983 . S
H435 C459 0.979 . S
H436 C459 0.977 . S
C437 C425 1.453 . S
C437 H466 0.982 . S
C437 H467 0.979 . S
C437 H468 0.977 . S
C438 C425 1.684 . S
C438 H463 0.979 . S
C438 H464 0.980 . S
C438 H465 0.983 . S
C439 C440 1.391 . S
C439 C444 1.391 . S
C439 H469 0.948 . S
C440 C439 1.391 . S
C440 C441 1.391 . S
C441 C440 1.391 . S
C441 C442 1.392 . S
C441 H470 0.947 . S
C442 C441 1.392 . S
C442 C443 1.419 . S
C442 H471 0.948 . S
C443 C442 1.419 . S
C443 C444 1.391 . S
C443 C447 1.397 . S
C444 C439 1.391 . S
C444 C443 1.391 . S
C444 C445 1.399 . S
C445 C444 1.399 . S
C445 C446 1.396 . S
C445 C448 1.453 . S
C445 C449 1.684 . S
C446 C427 1.723 . S
C446 C445 1.396 . S
C446 C447 1.394 . S
C447 C443 1.397 . S
C447 C446 1.394 . S
C447 C457 1.723 . S
C448 C445 1.453 . S
C448 H472 0.982 . S
C448 H473 0.979 . S
C448 H474 0.977 . S
C449 C445 1.684 . S
C449 H475 0.979 . S
C449 H476 0.980 . S
C449 H477 0.983 . S
C450 H426 0.948 . S
C450 C451 1.391 . S
C450 C455 1.391 . S
C451 C450 1.391 . S
C451 C452 1.391 . S
C452 H429 0.947 . S
C452 C451 1.391 . S
C452 C453 1.392 . S
C453 H430 0.948 . S
C453 C452 1.392 . S
C453 C454 1.419 . S
C454 C453 1.419 . S
C454 C455 1.391 . S
C454 C458 1.397 . S
C455 C450 1.391 . S
C455 C454 1.391 . S
C455 C456 1.399 . S
C456 C455 1.399 . S
C456 C457 1.396 . S
C456 C459 1.453 . S
C456 C460 1.684 . S
C457 C447 1.723 . S
C457 C456 1.396 . S
C457 C458 1.394 . S
C458 C428 1.723 . S
C458 C454 1.397 . S
C458 C457 1.394 . S
C459 H431 0.982 . S
C459 H435 0.979 . S
C459 H436 0.977 . S
C459 C456 1.453 . S
C460 H432 0.979 . S
C460 H433 0.980 . S
C460 H434 0.983 . S
C460 C456 1.684 . S
H461 C479 0.948 . S
H462 C420 0.948 . S
H463 C438 0.979 . S
H464 C438 0.980 . S
H465 C438 0.983 . S
H466 C437 0.982 . S
H467 C437 0.979 . S
H468 C437 0.977 . S
H469 C439 0.948 . S
H470 C441 0.947 . S
H471 C442 0.948 . S
H472 C448 0.982 . S
H473 C448 0.979 . S
H474 C448 0.977 . S
H475 C449 0.979 . S
H476 C449 0.980 . S
H477 C449 0.983 . S
H478 C422 0.947 . S
C479 C422 1.392 . S
C479 C423 1.419 . S
C479 H461 0.948 . S
C480 C481 1.391 . S
C480 C484 1.391 . S
C480 H522 0.948 . S
C481 C480 1.391 . S
C481 C482 1.391 . S
C482 C481 1.391 . S
C482 H538 0.947 . S
C482 C539 1.392 . S
C483 C484 1.391 . S
C483 C487 1.397 . S
C483 C539 1.419 . S
C484 C480 1.391 . S
C484 C483 1.391 . S
C484 C485 1.399 . S
C485 C484 1.399 . S
C485 C488 1.396 . S
C485 C497 1.453 . S
C485 C498 1.684 . S
H486 C510 0.948 . S
C487 C483 1.397 . S
C487 C488 1.394 . S
C487 C506 1.723 . S
C488 C485 1.396 . S
C488 C487 1.394 . S
C488 C518 1.723 . S
H489 C512 0.947 . S
H490 C513 0.948 . S
H491 C519 0.982 . S
H492 C520 0.979 . S
H493 C520 0.980 . S
H494 C520 0.983 . S
H495 C519 0.979 . S
H496 C519 0.977 . S
C497 C485 1.453 . S
C497 H526 0.982 . S
C497 H527 0.979 . S
C497 H528 0.977 . S
C498 C485 1.684 . S
C498 H523 0.979 . S
C498 H524 0.980 . S
C498 H525 0.983 . S
C499 C500 1.391 . S
C499 C504 1.391 . S
C499 H529 0.948 . S
C500 C499 1.391 . S
C500 C501 1.391 . S
C501 C500 1.391 . S
C501 C502 1.392 . S
C501 H530 0.947 . S
C502 C501 1.392 . S
C502 C503 1.419 . S
C502 H531 0.948 . S
C503 C502 1.419 . S
C503 C504 1.391 . S
C503 C507 1.397 . S
C504 C499 1.391 . S
C504 C503 1.391 . S
C504 C505 1.399 . S
C505 C504 1.399 . S
C505 C506 1.396 . S
C505 C508 1.453 . S
C505 C509 1.684 . S
C506 C487 1.723 . S
C506 C505 1.396 . S
C506 C507 1.394 . S
C507 C503 1.397 . S
C507 C506 1.394 . S
C507 C517 1.723 . S
C508 C505 1.453 . S
C508 H532 0.982 . S
C508 H533 0.979 . S
C508 H534 0.977 . S
C509 C505 1.684 . S
C509 H535 0.979 . S
C509 H536 0.980 . S
C509 H537 0.983 . S
C510 H486 0.948 . S
C510 C511 1.391 . S
C510 C515 1.391 . S
C511 C510 1.391 . S
C511 C512 1.391 . S
C512 H489 0.947 . S
C512 C511 1.391 . S
C512 C513 1.392 . S
C513 H490 0.948 . S
C513 C512 1.392 . S
C513 C514 1.419 . S
C514 C513 1.419 . S
C514 C515 1.391 . S
C514 C518 1.397 . S
C515 C510 1.391 . S
C515 C514 1.391 . S
C515 C516 1.399 . S
C516 C515 1.399 . S
C516 C517 1.396 . S
C516 C519 1.453 . S
C516 C520 1.684 . S
C517 C507 1.723 . S
C517 C516 1.396 . S
C517 C518 1.394 . S
C518 C488 1.723 . S
C518 C514 1.397 . S
C518 C517 1.394 . S
C519 H491 0.982 . S
C519 H495 0.979 . S
C519 H496 0.977 . S
C519 C516 1.453 . S
C520 H492 0.979 . S
C520 H493 0.980 . S
C520 H494 0.983 . S
C520 C516 1.684 . S
H521 C539 0.948 . S
H522 C480 0.948 . S
H523 C498 0.979 . S
H524 C498 0.980 . S
H525 C498 0.983 . S
H526 C497 0.982 . S
H527 C497 0.979 . S
H528 C497 0.977 . S
H529 C499 0.948 . S
H530 C501 0.947 . S
H531 C502 0.948 . S
H532 C508 0.982 . S
H533 C508 0.979 . S
H534 C508 0.977 . S
H535 C509 0.979 . S
H536 C509 0.980 . S
H537 C509 0.983 . S
H538 C482 0.947 . S
C539 C482 1.392 . S
C539 C483 1.419 . S
C539 H521 0.948 . S
C540 C541 1.391 . S
C540 C544 1.391 . S
C540 H582 0.948 . S
C541 C540 1.391 . S
C541 C542 1.391 . S
C542 C541 1.391 . S
C542 H598 0.947 . S
C542 C599 1.392 . S
C543 C544 1.391 . S
C543 C547 1.397 . S
C543 C599 1.419 . S
C544 C540 1.391 . S
C544 C543 1.391 . S
C544 C545 1.399 . S
C545 C544 1.399 . S
C545 C548 1.396 . S
C545 C557 1.453 . S
C545 C558 1.684 . S
H546 C570 0.948 . S
C547 C543 1.397 . S
C547 C548 1.394 . S
C547 C566 1.723 . S
C548 C545 1.396 . S
C548 C547 1.394 . S
C548 C578 1.723 . S
H549 C572 0.947 . S
H550 C573 0.948 . S
H551 C579 0.982 . S
H552 C580 0.979 . S
H553 C580 0.980 . S
H554 C580 0.983 . S
H555 C579 0.979 . S
H556 C579 0.977 . S
C557 C545 1.453 . S
C557 H586 0.982 . S
C557 H587 0.979 . S
C557 H588 0.977 . S
C558 C545 1.684 . S
C558 H583 0.979 . S
C558 H584 0.980 . S
C558 H585 0.983 . S
C559 C560 1.391 . S
C559 C564 1.391 . S
C559 H589 0.948 . S
C560 C559 1.391 . S
C560 C561 1.391 . S
C561 C560 1.391 . S
C561 C562 1.392 . S
C561 H590 0.947 . S
C562 C561 1.392 . S
C562 C563 1.419 . S
C562 H591 0.948 . S
C563 C562 1.419 . S
C563 C564 1.391 . S
C563 C567 1.397 . S
C564 C559 1.391 . S
C564 C563 1.391 . S
C564 C565 1.399 . S
C565 C564 1.399 . S
C565 C566 1.396 . S
C565 C568 1.453 . S
C565 C569 1.684 . S
C566 C547 1.723 . S
C566 C565 1.396 . S
C566 C567 1.394 . S
C567 C563 1.397 . S
C567 C566 1.394 . S
C567 C577 1.723 . S
C568 C565 1.453 . S
C568 H592 0.982 . S
C568 H593 0.979 . S
C568 H594 0.977 . S
C569 C565 1.684 . S
C569 H595 0.979 . S
C569 H596 0.980 . S
C569 H597 0.983 . S
C570 H546 0.948 . S
C570 C571 1.391 . S
C570 C575 1.391 . S
C571 C570 1.391 . S
C571 C572 1.391 . S
C572 H549 0.947 . S
C572 C571 1.391 . S
C572 C573 1.392 . S
C573 H550 0.948 . S
C573 C572 1.392 . S
C573 C574 1.419 . S
C574 C573 1.419 . S
C574 C575 1.391 . S
C574 C578 1.397 . S
C575 C570 1.391 . S
C575 C574 1.391 . S
C575 C576 1.399 . S
C576 C575 1.399 . S
C576 C577 1.396 . S
C576 C579 1.453 . S
C576 C580 1.684 . S
C577 C567 1.723 . S
C577 C576 1.396 . S
C577 C578 1.394 . S
C578 C548 1.723 . S
C578 C574 1.397 . S
C578 C577 1.394 . S
C579 H551 0.982 . S
C579 H555 0.979 . S
C579 H556 0.977 . S
C579 C576 1.453 . S
C580 H552 0.979 . S
C580 H553 0.980 . S
C580 H554 0.983 . S
C580 C576 1.684 . S
H581 C599 0.948 . S
H582 C540 0.948 . S
H583 C558 0.979 . S
H584 C558 0.980 . S
H585 C558 0.983 . S
H586 C557 0.982 . S
H587 C557 0.979 . S
H588 C557 0.977 . S
H589 C559 0.948 . S
H590 C561 0.947 . S
H591 C562 0.948 . S
H592 C568 0.982 . S
H593 C568 0.979 . S
H594 C568 0.977 . S
H595 C569 0.979 . S
H596 C569 0.980 . S
H597 C569 0.983 . S
H598 C542 0.947 . S
C599 C542 1.392 . S
C599 C543 1.419 . S
C599 H581 0.948 . S
C600 C601 1.391 . S
C600 C604 1.391 . S
C600 H642 0.948 . S
C601 C600 1.391 . S
C601 C602 1.391 . S
C602 C601 1.391 . S
C602 H658 0.947 . S
C602 C659 1.392 . S
C603 C604 1.391 . S
C603 C607 1.397 . S
C603 C659 1.419 . S
C604 C600 1.391 . S
C604 C603 1.391 . S
C604 C605 1.399 . S
C605 C604 1.399 . S
C605 C608 1.396 . S
C605 C617 1.453 . S
C605 C618 1.684 . S
H606 C630 0.948 . S
C607 C603 1.397 . S
C607 C608 1.394 . S
C607 C626 1.723 . S
C608 C605 1.396 . S
C608 C607 1.394 . S
C608 C638 1.723 . S
H609 C632 0.947 . S
H610 C633 0.948 . S
H611 C639 0.982 . S
H612 C640 0.979 . S
H613 C640 0.980 . S
H614 C640 0.983 . S
H615 C639 0.979 . S
H616 C639 0.977 . S
C617 C605 1.453 . S
C617 H646 0.982 . S
C617 H647 0.979 . S
C617 H648 0.977 . S
C618 C605 1.684 . S
C618 H643 0.979 . S
C618 H644 0.980 . S
C618 H645 0.983 . S
C619 C620 1.391 . S
C619 C624 1.391 . S
C619 H649 0.948 . S
C620 C619 1.391 . S
C620 C621 1.391 . S
C621 C620 1.391 . S
C621 C622 1.392 . S
C621 H650 0.947 . S
C622 C621 1.392 . S
C622 C623 1.419 . S
C622 H651 0.948 . S
C623 C622 1.419 . S
C623 C624 1.391 . S
C623 C627 1.397 . S
C624 C619 1.391 . S
C624 C623 1.391 . S
C624 C625 1.399 . S
C625 C624 1.399 . S
C625 C626 1.396 . S
C625 C628 1.453 . S
C625 C629 1.684 . S
C626 C607 1.723 . S
C626 C625 1.396 . S
C626 C627 1.394 . S
C627 C623 1.397 . S
C627 C626 1.394 . S
C627 C637 1.723 . S
C628 C625 1.453 . S
C628 H652 0.982 . S
C628 H653 0.979 . S
C628 H654 0.977 . S
C629 C625 1.684 . S
C629 H655 0.979 . S
C629 H656 0.980 . S
C629 H657 0.983 . S
C630 H606 0.948 . S
C630 C631 1.391 . S
C630 C635 1.391 . S
C631 C630 1.391 . S
C631 C632 1.391 . S
C632 H609 0.947 . S
C632 C631 1.391 . S
C632 C633 1.392 . S
C633 H610 0.948 . S
C633 C632 1.392 . S
C633 C634 1.419 . S
C634 C633 1.419 . S
C634 C635 1.391 . S
C634 C638 1.397 . S
C635 C630 1.391 . S
C635 C634 1.391 . S
C635 C636 1.399 . S
C636 C635 1.399 . S
C636 C637 1.396 . S
C636 C639 1.453 . S
C636 C640 1.684 . S
C637 C627 1.723 . S
C637 C636 1.396 . S
C637 C638 1.394 . S
C638 C608 1.723 . S
C638 C634 1.397 . S
C638 C637 1.394 . S
C639 H611 0.982 . S
C639 H615 0.979 . S
C639 H616 0.977 . S
C639 C636 1.453 . S
C640 H612 0.979 . S
C640 H613 0.980 . S
C640 H614 0.983 . S
C640 C636 1.684 . S
H641 C659 0.948 . S
H642 C600 0.948 . S
H643 C618 0.979 . S
H644 C618 0.980 . S
H645 C618 0.983 . S
H646 C617 0.982 . S
H647 C617 0.979 . S
H648 C617 0.977 . S
H649 C619 0.948 . S
H650 C621 0.947 . S
H651 C622 0.948 . S
H652 C628 0.982 . S
H653 C628 0.979 . S
H654 C628 0.977 . S
H655 C629 0.979 . S
H656 C629 0.980 . S
H657 C629 0.983 . S
H658 C602 0.947 . S
C659 C602 1.392 . S
C659 C603 1.419 . S
C659 H641 0.948 . S
C660 C661 1.391 . S
C660 C664 1.391 . S
C660 H702 0.948 . S
C661 C660 1.391 . S
C661 C662 1.391 . S
C662 C661 1.391 . S
C662 H718 0.947 . S
C662 C719 1.392 . S
C663 C664 1.391 . S
C663 C667 1.397 . S
C663 C719 1.419 . S
C664 C660 1.391 . S
C664 C663 1.391 . S
C664 C665 1.399 . S
C665 C664 1.399 . S
C665 C668 1.396 . S
C665 C677 1.453 . S
C665 C678 1.684 . S
H666 C690 0.948 . S
C667 C663 1.397 . S
C667 C668 1.394 . S
C667 C686 1.723 . S
C668 C665 1.396 . S
C668 C667 1.394 . S
C668 C698 1.723 . S
H669 C692 0.947 . S
H670 C693 0.948 . S
H671 C699 0.982 . S
H672 C700 0.979 . S
H673 C700 0.980 . S
H674 C700 0.983 . S
H675 C699 0.979 . S
H676 C699 0.977 . S
C677 C665 1.453 . S
C677 H706 0.982 . S
C677 H707 0.979 . S
C677 H708 0.977 . S
C678 C665 1.684 . S
C678 H703 0.979 . S
C678 H704 0.980 . S
C678 H705 0.983 . S
C679 C680 1.391 . S
C679 C684 1.391 . S
C679 H709 0.948 . S
C680 C679 1.391 . S
C680 C681 1.391 . S
C681 C680 1.391 . S
C681 C682 1.392 . S
C681 H710 0.947 . S
C682 C681 1.392 . S
C682 C683 1.419 . S
C682 H711 0.948 . S
C683 C682 1.419 . S
C683 C684 1.391 . S
C683 C687 1.397 . S
C684 C679 1.391 . S
C684 C683 1.391 . S
C684 C685 1.399 . S
C685 C684 1.399 . S
C685 C686 1.396 . S
C685 C688 1.453 . S
C685 C689 1.684 . S
C686 C667 1.723 . S
C686 C685 1.396 . S
C686 C687 1.394 . S
C687 C683 1.397 . S
C687 C686 1.394 . S
C687 C697 1.723 . S
C688 C685 1.453 . S
C688 H712 0.982 . S
C688 H713 0.979 . S
C688 H714 0.977 . S
C689 C685 1.684 . S
C689 H715 0.979 . S
C689 H716 0.980 . S
C689 H717 0.983 . S
C690 H666 0.948 . S
C690 C691 1.391 . S
C690 C695 1.391 . S
C691 C690 1.391 . S
C691 C692 1.391 . S
C692 H669 0.947 . S
C692 C691 1.391 . S
C692 C693 1.392 . S
C693 H670 0.948 . S
C693 C692 1.392 . S
C693 C694 1.419 . S
C694 C693 1.419 . S
C694 C695 1.391 . S
C694 C698 1.397 . S
C695 C690 1.391 . S
C695 C694 1.391 . S
C695 C696 1.399 . S
C696 C695 1.399 . S
C696 C697 1.396 . S
C696 C699 1.453 . S
C696 C700 1.684 . S
C697 C687 1.723 . S
C697 C696 1.396 . S
C697 C698 1.394 . S
C698 C668 1.723 . S
C698 C694 1.397 . S
C698 C697 1.394 . S
C699 H671 0.982 . S
C699 H675 0.979 . S
C699 H676 0.977 . S
C699 C696 1.453 . S
C700 H672 0.979 . S
C700 H673 0.980 . S
C700 H674 0.983 . S
C700 C696 1.684 . S
H701 C719 0.948 . S
H702 C660 0.948 . S
H703 C678 0.979 . S
H704 C678 0.980 . S
H705 C678 0.983 . S
H706 C677 0.982 . S
H707 C677 0.979 . S
H708 C677 0.977 . S
H709 C679 0.948 . S
H710 C681 0.947 . S
H711 C682 0.948 . S
H712 C688 0.982 . S
H713 C688 0.979 . S
H714 C688 0.977 . S
H715 C689 0.979 . S
H716 C689 0.980 . S
H717 C689 0.983 . S
H718 C662 0.947 . S
C719 C662 1.392 . S
C719 C663 1.419 . S
C719 H701 0.948 . S
C720 C721 1.391 . S
C720 C724 1.391 . S
C720 H762 0.948 . S
C721 C720 1.391 . S
C721 C722 1.391 . S
C722 C721 1.391 . S
C722 H778 0.947 . S
C722 C779 1.392 . S
C723 C724 1.391 . S
C723 C727 1.397 . S
C723 C779 1.419 . S
C724 C720 1.391 . S
C724 C723 1.391 . S
C724 C725 1.399 . S
C725 C724 1.399 . S
C725 C728 1.396 . S
C725 C737 1.453 . S
C725 C738 1.684 . S
H726 C750 0.948 . S
C727 C723 1.397 . S
C727 C728 1.394 . S
C727 C746 1.723 . S
C728 C725 1.396 . S
C728 C727 1.394 . S
C728 C758 1.723 . S
H729 C752 0.947 . S
H730 C753 0.948 . S
H731 C759 0.982 . S
H732 C760 0.979 . S
H733 C760 0.980 . S
H734 C760 0.983 . S
H735 C759 0.979 . S
H736 C759 0.977 . S
C737 C725 1.453 . S
C737 H766 0.982 . S
C737 H767 0.979 . S
C737 H768 0.977 . S
C738 C725 1.684 . S
C738 H763 0.979 . S
C738 H764 0.980 . S
C738 H765 0.983 . S
C739 C740 1.391 . S
C739 C744 1.391 . S
C739 H769 0.948 . S
C740 C739 1.391 . S
C740 C741 1.391 . S
C741 C740 1.391 . S
C741 C742 1.392 . S
C741 H770 0.947 . S
C742 C741 1.392 . S
C742 C743 1.419 . S
C742 H771 0.948 . S
C743 C742 1.419 . S
C743 C744 1.391 . S
C743 C747 1.397 . S
C744 C739 1.391 . S
C744 C743 1.391 . S
C744 C745 1.399 . S
C745 C744 1.399 . S
C745 C746 1.396 . S
C745 C748 1.453 . S
C745 C749 1.684 . S
C746 C727 1.723 . S
C746 C745 1.396 . S
C746 C747 1.394 . S
C747 C743 1.397 . S
C747 C746 1.394 . S
C747 C757 1.723 . S
C748 C745 1.453 . S
C748 H772 0.982 . S
C748 H773 0.979 . S
C748 H774 0.977 . S
C749 C745 1.684 . S
C749 H775 0.979 . S
C749 H776 0.980 . S
C749 H777 0.983 . S
C750 H726 0.948 . S
C750 C751 1.391 . S
C750 C755 1.391 . S
C751 C750 1.391 . S
C751 C752 1.391 . S
C752 H729 0.947 . S
C752 C751 1.391 . S
C752 C753 1.392 . S
C753 H730 0.948 . S
C753 C752 1.392 . S
C753 C754 1.419 . S
C754 C753 1.419 . S
C754 C755 1.391 . S
C754 C758 1.397 . S
C755 C750 1.391 . S
C755 C754 1.391 . S
C755 C756 1.399 . S
C756 C755 1.399 . S
C756 C757 1.396 . S
C756 C759 1.453 . S
C756 C760 1.684 . S
C757 C747 1.723 . S
C757 C756 1.396 . S
C757 C758 1.394 . S
C758 C728 1.723 . S
C758 C754 1.397 . S
C758 C757 1.394 . S
C759 H731 0.982 . S
C759 H735 0.979 . S
C759 H736 0.977 . S
C759 C756 1.453 . S
C760 H732 0.979 . S
C760 H733 0.980 . S
C760 H734 0.983 . S
C760 C756 1.684 . S
H761 C779 0.948 . S
H762 C720 0.948 . S
H763 C738 0.979 . S
H764 C738 0.980 . S
H765 C738 0.983 . S
H766 C737 0.982 . S
H767 C737 0.979 . S
H768 C737 0.977 . S
H769 C739 0.948 . S
H770 C741 0.947 . S
H771 C742 0.948 . S
H772 C748 0.982 . S
H773 C748 0.979 . S
H774 C748 0.977 . S
H775 C749 0.979 . S
H776 C749 0.980 . S
H777 C749 0.983 . S
H778 C722 0.947 . S
C779 C722 1.392 . S
C779 C723 1.419 . S
C779 H761 0.948 . S
C780 C781 1.391 . S
C780 C784 1.391 . S
C780 H822 0.948 . S
C781 C780 1.391 . S
C781 C782 1.391 . S
C782 C781 1.391 . S
C782 H838 0.947 . S
C782 C839 1.392 . S
C783 C784 1.391 . S
C783 C787 1.397 . S
C783 C839 1.419 . S
C784 C780 1.391 . S
C784 C783 1.391 . S
C784 C785 1.399 . S
C785 C784 1.399 . S
C785 C788 1.396 . S
C785 C797 1.453 . S
C785 C798 1.684 . S
H786 C810 0.948 . S
C787 C783 1.397 . S
C787 C788 1.394 . S
C787 C806 1.723 . S
C788 C785 1.396 . S
C788 C787 1.394 . S
C788 C818 1.723 . S
H789 C812 0.947 . S
H790 C813 0.948 . S
H791 C819 0.982 . S
H792 C820 0.979 . S
H793 C820 0.980 . S
H794 C820 0.983 . S
H795 C819 0.979 . S
H796 C819 0.977 . S
C797 C785 1.453 . S
C797 H826 0.982 . S
C797 H827 0.979 . S
C797 H828 0.977 . S
C798 C785 1.684 . S
C798 H823 0.979 . S
C798 H824 0.980 . S
C798 H825 0.983 . S
C799 C800 1.391 . S
C799 C804 1.391 . S
C799 H829 0.948 . S
C800 C799 1.391 . S
C800 C801 1.391 . S
C801 C800 1.391 . S
C801 C802 1.392 . S
C801 H830 0.947 . S
C802 C801 1.392 . S
C802 C803 1.419 . S
C802 H831 0.948 . S
C803 C802 1.419 . S
C803 C804 1.391 . S
C803 C807 1.397 . S
C804 C799 1.391 . S
C804 C803 1.391 . S
C804 C805 1.399 . S
C805 C804 1.399 . S
C805 C806 1.396 . S
C805 C808 1.453 . S
C805 C809 1.684 . S
C806 C787 1.723 . S
C806 C805 1.396 . S
C806 C807 1.394 . S
C807 C803 1.397 . S
C807 C806 1.394 . S
C807 C817 1.723 . S
C808 C805 1.453 . S
C808 H832 0.982 . S
C808 H833 0.979 . S
C808 H834 0.977 . S
C809 C805 1.684 . S
C809 H835 0.979 . S
C809 H836 0.980 . S
C809 H837 0.983 . S
C810 H786 0.948 . S
C810 C811 1.391 . S
C810 C815 1.391 . S
C811 C810 1.391 . S
C811 C812 1.391 . S
C812 H789 0.947 . S
C812 C811 1.391 . S
C812 C813 1.392 . S
C813 H790 0.948 . S
C813 C812 1.392 . S
C813 C814 1.419 . S
C814 C813 1.419 . S
C814 C815 1.391 . S
C814 C818 1.397 . S
C815 C810 1.391 . S
C815 C814 1.391 . S
C815 C816 1.399 . S
C816 C815 1.399 . S
C816 C817 1.396 . S
C816 C819 1.453 . S
C816 C820 1.684 . S
C817 C807 1.723 . S
C817 C816 1.396 . S
C817 C818 1.394 . S
C818 C788 1.723 . S
C818 C814 1.397 . S
C818 C817 1.394 . S
C819 H791 0.982 . S
C819 H795 0.979 . S
C819 H796 0.977 . S
C819 C816 1.453 . S
C820 H792 0.979 . S
C820 H793 0.980 . S
C820 H794 0.983 . S
C820 C816 1.684 . S
H821 C839 0.948 . S
H822 C780 0.948 . S
H823 C798 0.979 . S
H824 C798 0.980 . S
H825 C798 0.983 . S
H826 C797 0.982 . S
H827 C797 0.979 . S
H828 C797 0.977 . S
H829 C799 0.948 . S
H830 C801 0.947 . S
H831 C802 0.948 . S
H832 C808 0.982 . S
H833 C808 0.979 . S
H834 C808 0.977 . S
H835 C809 0.979 . S
H836 C809 0.980 . S
H837 C809 0.983 . S
H838 C782 0.947 . S
C839 C782 1.392 . S
C839 C783 1.419 . S
C839 H821 0.948 . S
C840 C841 1.391 . S
C840 C844 1.391 . S
C840 H882 0.948 . S
C841 C840 1.391 . S
C841 C842 1.391 . S
C842 C841 1.391 . S
C842 H898 0.947 . S
C842 C899 1.392 . S
C843 C844 1.391 . S
C843 C847 1.397 . S
C843 C899 1.419 . S
C844 C840 1.391 . S
C844 C843 1.391 . S
C844 C845 1.399 . S
C845 C844 1.399 . S
C845 C848 1.396 . S
C845 C857 1.453 . S
C845 C858 1.684 . S
H846 C870 0.948 . S
C847 C843 1.397 . S
C847 C848 1.394 . S
C847 C866 1.723 . S
C848 C845 1.396 . S
C848 C847 1.394 . S
C848 C878 1.723 . S
H849 C872 0.947 . S
H850 C873 0.948 . S
H851 C879 0.982 . S
H852 C880 0.979 . S
H853 C880 0.980 . S
H854 C880 0.983 . S
H855 C879 0.979 . S
H856 C879 0.977 . S
C857 C845 1.453 . S
C857 H886 0.982 . S
C857 H887 0.979 . S
C857 H888 0.977 . S
C858 C845 1.684 . S
C858 H883 0.979 . S
C858 H884 0.980 . S
C858 H885 0.983 . S
C859 C860 1.391 . S
C859 C864 1.391 . S
C859 H889 0.948 . S
C860 C859 1.391 . S
C860 C861 1.391 . S
C861 C860 1.391 . S
C861 C862 1.392 . S
C861 H890 0.947 . S
C862 C861 1.392 . S
C862 C863 1.419 . S
C862 H891 0.948 . S
C863 C862 1.419 . S
C863 C864 1.391 . S
C863 C867 1.397 . S
C864 C859 1.391 . S
C864 C863 1.391 . S
C864 C865 1.399 . S
C865 C864 1.399 . S
C865 C866 1.396 . S
C865 C868 1.453 . S
C865 C869 1.684 . S
C866 C847 1.723 . S
C866 C865 1.396 . S
C866 C867 1.394 . S
C867 C863 1.397 . S
C867 C866 1.394 . S
C867 C877 1.723 . S
C868 C865 1.453 . S
C868 H892 0.982 . S
C868 H893 0.979 . S
C868 H894 0.977 . S
C869 C865 1.684 . S
C869 H895 0.979 . S
C869 H896 0.980 . S
C869 H897 0.983 . S
C870 H846 0.948 . S
C870 C871 1.391 . S
C870 C875 1.391 . S
C871 C870 1.391 . S
C871 C872 1.391 . S
C872 H849 0.947 . S
C872 C871 1.391 . S
C872 C873 1.392 . S
C873 H850 0.948 . S
C873 C872 1.392 . S
C873 C874 1.419 . S
C874 C873 1.419 . S
C874 C875 1.391 . S
C874 C878 1.397 . S
C875 C870 1.391 . S
C875 C874 1.391 . S
C875 C876 1.399 . S
C876 C875 1.399 . S
C876 C877 1.396 . S
C876 C879 1.453 . S
C876 C880 1.684 . S
C877 C867 1.723 . S
C877 C876 1.396 . S
C877 C878 1.394 . S
C878 C848 1.723 . S
C878 C874 1.397 . S
C878 C877 1.394 . S
C879 H851 0.982 . S
C879 H855 0.979 . S
C879 H856 0.977 . S
C879 C876 1.453 . S
C880 H852 0.979 . S
C880 H853 0.980 . S
C880 H854 0.983 . S
C880 C876 1.684 . S
H881 C899 0.948 . S
H882 C840 0.948 . S
H883 C858 0.979 . S
H884 C858 0.980 . S
H885 C858 0.983 . S
H886 C857 0.982 . S
H887 C857 0.979 . S
H888 C857 0.977 . S
H889 C859 0.948 . S
H890 C861 0.947 . S
H891 C862 0.948 . S
H892 C868 0.982 . S
H893 C868 0.979 . S
H894 C868 0.977 . S
H895 C869 0.979 . S
H896 C869 0.980 . S
H897 C869 0.983 . S
H898 C842 0.947 . S
C899 C842 1.392 . S
C899 C843 1.419 . S
C899 H881 0.948 . S
C900 C901 1.391 . S
C900 C904 1.391 . S
C900 H942 0.948 . S
C901 C900 1.391 . S
C901 C902 1.391 . S
C902 C901 1.391 . S
C902 H958 0.947 . S
C902 C959 1.392 . S
C903 C904 1.391 . S
C903 C907 1.397 . S
C903 C959 1.419 . S
C904 C900 1.391 . S
C904 C903 1.391 . S
C904 C905 1.399 . S
C905 C904 1.399 . S
C905 C908 1.396 . S
C905 C917 1.453 . S
C905 C918 1.684 . S
H906 C930 0.948 . S
C907 C903 1.397 . S
C907 C908 1.394 . S
C907 C926 1.723 . S
C908 C905 1.396 . S
C908 C907 1.394 . S
C908 C938 1.723 . S
H909 C932 0.947 . S
H910 C933 0.948 . S
H911 C939 0.982 . S
H912 C940 0.979 . S
H913 C940 0.980 . S
H914 C940 0.983 . S
H915 C939 0.979 . S
H916 C939 0.977 . S
C917 C905 1.453 . S
C917 H946 0.982 . S
C917 H947 0.979 . S
C917 H948 0.977 . S
C918 C905 1.684 . S
C918 H943 0.979 . S
C918 H944 0.980 . S
C918 H945 0.983 . S
C919 C920 1.391 . S
C919 C924 1.391 . S
C919 H949 0.948 . S
C920 C919 1.391 . S
C920 C921 1.391 . S
C921 C920 1.391 . S
C921 C922 1.392 . S
C921 H950 0.947 . S
C922 C921 1.392 . S
C922 C923 1.419 . S
C922 H951 0.948 . S
C923 C922 1.419 . S
C923 C924 1.391 . S
C923 C927 1.397 . S
C924 C919 1.391 . S
C924 C923 1.391 . S
C924 C925 1.399 . S
C925 C924 1.399 . S
C925 C926 1.396 . S
C925 C928 1.453 . S
C925 C929 1.684 . S
C926 C907 1.723 . S
C926 C925 1.396 . S
C926 C927 1.394 . S
C927 C923 1.397 . S
C927 C926 1.394 . S
C927 C937 1.723 . S
C928 C925 1.453 . S
C928 H952 0.982 . S
C928 H953 0.979 . S
C928 H954 0.977 . S
C929 C925 1.684 . S
C929 H955 0.979 . S
C929 H956 0.980 . S
C929 H957 0.983 . S
C930 H906 0.948 . S
C930 C931 1.391 . S
C930 C935 1.391 . S
C931 C930 1.391 . S
C931 C932 1.391 . S
C932 H909 0.947 . S
C932 C931 1.391 . S
C932 C933 1.392 . S
C933 H910 0.948 . S
C933 C932 1.392 . S
C933 C934 1.419 . S
C934 C933 1.419 . S
C934 C935 1.391 . S
C934 C938 1.397 . S
C935 C930 1.391 . S
C935 C934 1.391 . S
C935 C936 1.399 . S
C936 C935 1.399 . S
C936 C937 1.396 . S
C936 C939 1.453 . S
C936 C940 1.684 . S
C937 C927 1.723 . S
C937 C936 1.396 . S
C937 C938 1.394 . S
C938 C908 1.723 . S
C938 C934 1.397 . S
C938 C937 1.394 . S
C939 H911 0.982 . S
C939 H915 0.979 . S
C939 H916 0.977 . S
C939 C936 1.453 . S
C940 H912 0.979 . S
C940 H913 0.980 . S
C940 H914 0.983 . S
C940 C936 1.684 . S
H941 C959 0.948 . S
H942 C900 0.948 . S
H943 C918 0.979 . S
H944 C918 0.980 . S
H945 C918 0.983 . S
H946 C917 0.982 . S
H947 C917 0.979 . S
H948 C917 0.977 . S
H949 C919 0.948 . S
H950 C921 0.947 . S
H951 C922 0.948 . S
H952 C928 0.982 . S
H953 C928 0.979 . S
H954 C928 0.977 . S
H955 C929 0.979 . S
H956 C929 0.980 . S
H957 C929 0.983 . S
H958 C902 0.947 . S
C959 C902 1.392 . S
C959 C903 1.419 . S
C959 H941 0.948 . S
C960 C961 1.391 . S
C960 C964 1.391 . S
C960 H1002 0.948 . S
C961 C960 1.391 . S
C961 C962 1.391 . S
C962 C961 1.391 . S
C962 H1018 0.947 . S
C962 C1019 1.392 . S
C963 C964 1.391 . S
C963 C967 1.397 . S
C963 C1019 1.419 . S
C964 C960 1.391 . S
C964 C963 1.391 . S
C964 C965 1.399 . S
C965 C964 1.399 . S
C965 C968 1.396 . S
C965 C977 1.453 . S
C965 C978 1.684 . S
H966 C990 0.948 . S
C967 C963 1.397 . S
C967 C968 1.394 . S
C967 C986 1.723 . S
C968 C965 1.396 . S
C968 C967 1.394 . S
C968 C998 1.723 . S
H969 C992 0.947 . S
H970 C993 0.948 . S
H971 C999 0.982 . S
H972 C1000 0.979 . S
H973 C1000 0.980 . S
H974 C1000 0.983 . S
H975 C999 0.979 . S
H976 C999 0.977 . S
C977 C965 1.453 . S
C977 H1006 0.982 . S
C977 H1007 0.979 . S
C977 H1008 0.977 . S
C978 C965 1.684 . S
C978 H1003 0.979 . S
C978 H1004 0.980 . S
C978 H1005 0.983 . S
C979 C980 1.391 . S
C979 C984 1.391 . S
C979 H1009 0.948 . S
C980 C979 1.391 . S
C980 C981 1.391 . S
C981 C980 1.391 . S
C981 C982 1.392 . S
C981 H1010 0.947 . S
C982 C981 1.392 . S
C982 C983 1.419 . S
C982 H1011 0.948 . S
C983 C982 1.419 . S
C983 C984 1.391 . S
C983 C987 1.397 . S
C984 C979 1.391 . S
C984 C983 1.391 . S
C984 C985 1.399 . S
C985 C984 1.399 . S
C985 C986 1.396 . S
C985 C988 1.453 . S
C985 C989 1.684 . S
C986 C967 1.723 . S
C986 C985 1.396 . S
C986 C987 1.394 . S
C987 C983 1.397 . S
C987 C986 1.394 . S
C987 C997 1.723 . S
C988 C985 1.453 . S
C988 H1012 0.982 . S
C988 H1013 0.979 . S
C988 H1014 0.977 . S
C989 C985 1.684 . S
C989 H1015 0.979 . S
C989 H1016 0.980 . S
C989 H1017 0.983 . S
C990 H966 0.948 . S
C990 C991 1.391 . S
C990 C995 1.391 . S
C991 C990 1.391 . S
C991 C992 1.391 . S
C992 H969 0.947 . S
C992 C991 1.391 . S
C992 C993 1.392 . S
C993 H970 0.948 . S
C993 C992 1.392 . S
C993 C994 1.419 . S
C994 C993 1.419 . S
C994 C995 1.391 . S
C994 C998 1.397 . S
C995 C990 1.391 . S
C995 C994 1.391 . S
C995 C996 1.399 . S
C996 C995 1.399 . S
C996 C997 1.396 . S
C996 C999 1.453 . S
C996 C1000 1.684 . S
C997 C987 1.723 . S
C997 C996 1.396 . S
C997 C998 1.394 . S
C998 C968 1.723 . S
C998 C994 1.397 . S
C998 C997 1.394 . S
C999 H971 0.982 . S
C999 H975 0.979 . S
C999 H976 0.977 . S
C999 C996 1.453 . S
C1000 H972 0.979 . S
C1000 H973 0.980 . S
C1000 H974 0.983 . S
C1000 C996 1.684 . S
H1001 C1019 0.948 . S
H1002 C960 0.948 . S
H1003 C978 0.979 . S
H1004 C978 0.980 . S
H1005 C978 0.983 . S
H1006 C977 0.982 . S
H1007 C977 0.979 . S
H1008 C977 0.977 . S
H1009 C979 0.948 . S
H1010 C981 0.947 . S
H1011 C982 0.948 . S
H1012 C988 0.982 . S
H1013 C988 0.979 . S
H1014 C988 0.977 . S
H1015 C989 0.979 . S
H1016 C989 0.980 . S
H1017 C989 0.983 . S
H1018 C962 0.947 . S
C1019 C962 1.392 . S
C1019 C963 1.419 . S
C1019 H1001 0.948 . S
C1020 C1021 1.391 . S
C1020 C1024 1.391 . S
C1020 H1062 0.948 . S
C1021 C1020 1.391 . S
C1021 C1022 1.391 . S
C1022 C1021 1.391 . S
C1022 H1078 0.947 . S
C1022 C1079 1.392 . S
C1023 C1024 1.391 . S
C1023 C1027 1.397 . S
C1023 C1079 1.419 . S
C1024 C1020 1.391 . S
C1024 C1023 1.391 . S
C1024 C1025 1.399 . S
C1025 C1024 1.399 . S
C1025 C1028 1.396 . S
C1025 C1037 1.453 . S
C1025 C1038 1.684 . S
H1026 C1050 0.948 . S
C1027 C1023 1.397 . S
C1027 C1028 1.394 . S
C1027 C1046 1.723 . S
C1028 C1025 1.396 . S
C1028 C1027 1.394 . S
C1028 C1058 1.723 . S
H1029 C1052 0.947 . S
H1030 C1053 0.948 . S
H1031 C1059 0.982 . S
H1032 C1060 0.979 . S
H1033 C1060 0.980 . S
H1034 C1060 0.983 . S
H1035 C1059 0.979 . S
H1036 C1059 0.977 . S
C1037 C1025 1.453 . S
C1037 H1066 0.982 . S
C1037 H1067 0.979 . S
C1037 H1068 0.977 . S
C1038 C1025 1.684 . S
C1038 H1063 0.979 . S
C1038 H1064 0.980 . S
C1038 H1065 0.983 . S
C1039 C1040 1.391 . S
C1039 C1044 1.391 . S
C1039 H1069 0.948 . S
C1040 C1039 1.391 . S
C1040 C1041 1.391 . S
C1041 C1040 1.391 . S
C1041 C1042 1.392 . S
C1041 H1070 0.947 . S
C1042 C1041 1.392 . S
C1042 C1043 1.419 . S
C1042 H1071 0.948 . S
C1043 C1042 1.419 . S
C1043 C1044 1.391 . S
C1043 C1047 1.397 . S
C1044 C1039 1.391 . S
C1044 C1043 1.391 . S
C1044 C1045 1.399 . S
C1045 C1044 1.399 . S
C1045 C1046 1.396 . S
C1045 C1048 1.453 . S
C1045 C1049 1.684 . S
C1046 C1027 1.723 . S
C1046 C1045 1.396 . S
C1046 C1047 1.394 . S
C1047 C1043 1.397 . S
C1047 C1046 1.394 . S
C1047 C1057 1.723 . S
C1048 C1045 1.453 . S
C1048 H1072 0.982 . S
C1048 H1073 0.979 . S
C1048 H1074 0.977 . S
C1049 C1045 1.684 . S
C1049 H1075 0.979 . S
C1049 H1076 0.980 . S
C1049 H1077 0.983 . S
C1050 H1026 0.948 . S
C1050 C1051 1.391 . S
C1050 C1055 1.391 . S
C1051 C1050 1.391 . S
C1051 C1052 1.391 . S
C1052 H1029 0.947 . S
C1052 C1051 1.391 . S
C1052 C1053 1.392 . S
C1053 H1030 0.948 . S
C1053 C1052 1.392 . S
C1053 C1054 1.419 . S
C1054 C1053 1.419 . S
C1054 C1055 1.391 . S
C1054 C1058 1.397 . S
C1055 C1050 1.391 . S
C1055 C1054 1.391 . S
C1055 C1056 1.399 . S
C1056 C1055 1.399 . S
C1056 C1057 1.396 . S
C1056 C1059 1.453 . S
C1056 C1060 1.684 . S
C1057 C1047 1.723 . S
C1057 C1056 1.396 . S
C1057 C1058 1.394 . S
C1058 C1028 1.723 . S
C1058 C1054 1.397 . S
C1058 C1057 1.394 . S
C1059 H1031 0.982 . S
C1059 H1035 0.979 . S
C1059 H1036 0.977 . S
C1059 C1056 1.453 . S
C1060 H1032 0.979 . S
C1060 H1033 0.980 . S
C1060 H1034 0.983 . S
C1060 C1056 1.684 . S
H1061 C1079 0.948 . S
H1062 C1020 0.948 . S
H1063 C1038 0.979 . S
H1064 C1038 0.980 . S
H1065 C1038 0.983 . S
H1066 C1037 0.982 . S
H1067 C1037 0.979 . S
H1068 C1037 0.977 . S
H1069 C1039 0.948 . S
H1070 C1041 0.947 . S
H1071 C1042 0.948 . S
H1072 C1048 0.982 . S
H1073 C1048 0.979 . S
H1074 C1048 0.977 . S
H1075 C1049 0.979 . S
H1076 C1049 0.980 . S
H1077 C1049 0.983 . S
H1078 C1022 0.947 . S
C1079 C1022 1.392 . S
C1079 C1023 1.419 . S
C1079 H1061 0.948 . S
O1080 Mg1081 1.990 . S
O1080 C1094 1.205 1_565 S
Mg1081 O1080 1.990 . S
Mg1081 O1084 2.180 1_556 S
Mg1081 O1085 2.117 . S
Mg1081 O1099 2.030 1_565 S
O1082 Mg1083 2.072 1_556 S
O1082 C1094 1.286 . S
Mg1083 O1082 2.072 1_554 S
Mg1083 O1084 2.099 1_545 S
Mg1083 O1086 2.079 . S
Mg1083 O1087 2.072 1_545 S
Mg1083 O1089 2.099 . S
Mg1083 O1100 2.079 . S
O1084 Mg1081 2.180 1_554 S
O1084 Mg1083 2.099 1_565 S
O1084 C1095 1.279 . S
O1085 Mg1081 2.117 . S
O1085 C1095 1.250 1_556 S
O1086 Mg1083 2.079 . S
O1086 C1096 1.264 . S
O1087 Mg1083 2.072 1_565 S
O1087 C1097 1.260 . S
Mg1088 O1089 2.180 . S
Mg1088 O1090 2.030 . S
Mg1088 O1091 1.990 1_545 S
Mg1088 O1092 2.117 . S
O1089 Mg1083 2.099 . S
O1089 Mg1088 2.180 . S
O1089 C1098 1.279 . S
O1090 Mg1088 2.030 . S
O1090 C1096 1.248 . S
O1091 Mg1088 1.990 1_565 S
O1091 C1097 1.253 . S
O1092 Mg1088 2.117 . S
O1092 C1098 1.250 . S
C1093 O1099 1.248 . S
C1093 O1100 1.264 1_556 S
C1094 O1080 1.205 1_545 S
C1094 O1082 1.286 . S
C1095 O1084 1.279 . S
C1095 O1085 1.250 1_554 S
C1096 O1086 1.264 . S
C1096 O1090 1.248 . S
C1097 O1087 1.260 . S
C1097 O1091 1.253 . S
C1098 O1089 1.279 . S
C1098 O1092 1.250 . S
O1099 Mg1081 2.030 1_545 S
O1099 C1093 1.248 . S
O1100 Mg1083 2.079 . S
O1100 C1093 1.264 1_554 S
O1101 Mg1102 1.990 . S
O1101 C1115 1.253 . S
Mg1102 O1101 1.990 . S
Mg1102 O1105 2.180 1_556 S
Mg1102 O1106 2.117 . S
Mg1102 O1120 2.030 1_455 S
O1103 Mg1104 2.071 1_556 S
O1103 C1115 1.260 1_655 S
Mg1104 O1103 2.071 1_554 S
Mg1104 O1105 2.096 1_655 S
Mg1104 O1107 2.081 . S
Mg1104 O1108 2.045 1_655 S
Mg1104 O1110 2.102 . S
Mg1104 O1121 2.105 . S
O1105 Mg1102 2.180 1_554 S
O1105 Mg1104 2.096 1_455 S
O1105 C1116 1.279 . S
O1106 Mg1102 2.117 . S
O1106 C1116 1.250 1_556 S
O1107 Mg1104 2.081 . S
O1107 C1117 1.264 1_655 S
O1108 Mg1104 2.045 1_455 S
O1108 C1118 1.260 . S
Mg1109 O1110 2.180 . S
Mg1109 O1111 2.030 1_655 S
Mg1109 O1112 1.990 1_655 S
Mg1109 O1113 2.117 . S
O1110 Mg1104 2.102 . S
O1110 Mg1109 2.180 . S
O1110 C1119 1.279 . S
O1111 Mg1109 2.030 1_455 S
O1111 C1117 1.248 . S
O1112 Mg1109 1.990 1_455 S
O1112 C1118 1.253 . S
O1113 Mg1109 2.117 . S
O1113 C1119 1.250 . S
C1114 O1120 1.248 . S
C1114 O1121 1.264 1_556 S
C1115 O1101 1.253 . S
C1115 O1103 1.260 1_455 S
C1116 O1105 1.279 . S
C1116 O1106 1.250 1_554 S
C1117 O1107 1.264 1_455 S
C1117 O1111 1.248 . S
C1118 O1108 1.260 . S
C1118 O1112 1.253 . S
C1119 O1110 1.279 . S
C1119 O1113 1.250 . S
O1120 Mg1102 2.030 1_655 S
O1120 C1114 1.248 . S
O1121 Mg1104 2.105 . S
O1121 C1114 1.264 1_554 S
O1122 Mg1123 1.990 . S
O1122 C1136 1.253 . S
Mg1123 O1122 1.990 . S
Mg1123 O1126 2.180 . S
Mg1123 O1127 2.117 . S
Mg1123 O1141 2.030 . S
O1124 Mg1125 2.077 . S
O1124 C1136 1.260 . S
Mg1125 O1124 2.077 . S
Mg1125 O1126 2.099 . S
Mg1125 O1128 2.074 1_554 S
Mg1125 O1129 2.072 1_554 S
Mg1125 O1131 2.098 1_554 S
Mg1125 O1142 2.079 . S
O1126 Mg1123 2.180 . S
O1126 Mg1125 2.099 . S
O1126 C1137 1.279 . S
O1127 Mg1123 2.117 . S
O1127 C1137 1.250 . S
O1128 Mg1125 2.074 1_556 S
O1128 C1138 1.264 . S
O1129 Mg1125 2.072 1_556 S
O1129 C1139 1.260 . S
Mg1130 O1131 2.180 . S
Mg1130 O1132 2.030 . S
Mg1130 O1133 1.990 . S
Mg1130 O1134 2.114 1_556 S
O1131 Mg1125 2.098 1_556 S
O1131 Mg1130 2.180 . S
O1131 C1140 1.279 1_556 S
O1132 Mg1130 2.030 . S
O1132 C1138 1.248 . S
O1133 Mg1130 1.990 . S
O1133 C1139 1.253 . S
O1134 Mg1130 2.114 1_554 S
O1134 C1140 1.251 . S
C1135 O1141 1.248 . S
C1135 O1142 1.264 . S
C1136 O1122 1.253 . S
C1136 O1124 1.260 . S
C1137 O1126 1.279 . S
C1137 O1127 1.250 . S
C1138 O1128 1.264 . S
C1138 O1132 1.248 . S
C1139 O1129 1.260 . S
C1139 O1133 1.253 . S
C1140 O1131 1.279 1_554 S
C1140 O1134 1.251 . S
O1141 Mg1123 2.030 . S
O1141 C1135 1.248 . S
O1142 Mg1125 2.079 . S
O1142 C1135 1.264 . S
O1143 Mg1144 1.990 . S
O1143 C1157 1.253 . S
Mg1144 O1143 1.990 . S
Mg1144 O1147 2.180 . S
Mg1144 O1148 2.117 . S
Mg1144 O1162 2.030 . S
O1145 Mg1146 2.072 . S
O1145 C1157 1.260 . S
Mg1146 O1145 2.072 . S
Mg1146 O1147 2.099 . S
Mg1146 O1149 2.079 . S
Mg1146 O1150 2.072 . S
Mg1146 O1152 2.099 . S
Mg1146 O1163 2.079 . S
O1147 Mg1144 2.180 . S
O1147 Mg1146 2.099 . S
O1147 C1158 1.279 . S
O1148 Mg1144 2.117 . S
O1148 C1158 1.250 . S
O1149 Mg1146 2.079 . S
O1149 C1159 1.264 . S
O1150 Mg1146 2.072 . S
O1150 C1160 1.260 . S
Mg1151 O1152 2.180 . S
Mg1151 O1153 2.030 . S
Mg1151 O1154 1.990 . S
Mg1151 O1155 2.117 . S
O1152 Mg1146 2.099 . S
O1152 Mg1151 2.180 . S
O1152 C1161 1.279 . S
O1153 Mg1151 2.030 . S
O1153 C1159 1.248 . S
O1154 Mg1151 1.990 . S
O1154 C1160 1.253 . S
O1155 Mg1151 2.117 . S
O1155 C1161 1.250 . S
C1156 O1162 1.248 . S
C1156 O1163 1.264 . S
C1157 O1143 1.253 . S
C1157 O1145 1.260 . S
C1158 O1147 1.279 . S
C1158 O1148 1.250 . S
C1159 O1149 1.264 . S
C1159 O1153 1.248 . S
C1160 O1150 1.260 . S
C1160 O1154 1.253 . S
C1161 O1152 1.279 . S
C1161 O1155 1.250 . S
O1162 Mg1144 2.030 . S
O1162 C1156 1.248 . S
O1163 Mg1146 2.079 . S
O1163 C1156 1.264 . S
O1164 Mg1165 1.990 . S
O1164 C1178 1.253 . S
Mg1165 O1164 1.990 . S
Mg1165 O1168 2.180 . S
Mg1165 O1169 2.117 . S
Mg1165 O1183 2.030 . S
O1166 Mg1167 2.072 . S
O1166 C1178 1.260 . S
Mg1167 O1166 2.072 . S
Mg1167 O1168 2.099 . S
Mg1167 O1170 2.079 . S
Mg1167 O1171 2.072 . S
Mg1167 O1173 2.099 . S
Mg1167 O1184 2.079 . S
O1168 Mg1165 2.180 . S
O1168 Mg1167 2.099 . S
O1168 C1179 1.279 . S
O1169 Mg1165 2.117 . S
O1169 C1179 1.250 . S
O1170 Mg1167 2.079 . S
O1170 C1180 1.264 . S
O1171 Mg1167 2.072 . S
O1171 C1181 1.260 . S
Mg1172 O1173 2.180 . S
Mg1172 O1174 2.030 . S
Mg1172 O1175 1.990 . S
Mg1172 O1176 2.117 . S
O1173 Mg1167 2.099 . S
O1173 Mg1172 2.180 . S
O1173 C1182 1.279 . S
O1174 Mg1172 2.030 . S
O1174 C1180 1.248 . S
O1175 Mg1172 1.990 . S
O1175 C1181 1.253 . S
O1176 Mg1172 2.117 . S
O1176 C1182 1.250 . S
C1177 O1183 1.248 . S
C1177 O1184 1.264 . S
C1178 O1164 1.253 . S
C1178 O1166 1.260 . S
C1179 O1168 1.279 . S
C1179 O1169 1.250 . S
C1180 O1170 1.264 . S
C1180 O1174 1.248 . S
C1181 O1171 1.260 . S
C1181 O1175 1.253 . S
C1182 O1173 1.279 . S
C1182 O1176 1.250 . S
O1183 Mg1165 2.030 . S
O1183 C1177 1.248 . S
O1184 Mg1167 2.079 . S
O1184 C1177 1.264 . S
O1185 Mg1186 1.990 . S
O1185 C1199 1.253 . S
Mg1186 O1185 1.990 . S
Mg1186 O1189 2.180 . S
Mg1186 O1190 2.117 . S
Mg1186 O1204 2.030 . S
O1187 Mg1188 2.072 . S
O1187 C1199 1.260 . S
Mg1188 O1187 2.072 . S
Mg1188 O1189 2.099 . S
Mg1188 O1191 2.079 . S
Mg1188 O1192 2.072 . S
Mg1188 O1194 2.099 . S
Mg1188 O1205 2.079 . S
O1189 Mg1186 2.180 . S
O1189 Mg1188 2.099 . S
O1189 C1200 1.279 . S
O1190 Mg1186 2.117 . S
O1190 C1200 1.250 . S
O1191 Mg1188 2.079 . S
O1191 C1201 1.264 . S
O1192 Mg1188 2.072 . S
O1192 C1202 1.260 . S
Mg1193 O1194 2.180 . S
Mg1193 O1195 2.030 . S
Mg1193 O1196 1.990 . S
Mg1193 O1197 2.117 . S
O1194 Mg1188 2.099 . S
O1194 Mg1193 2.180 . S
O1194 C1203 1.279 . S
O1195 Mg1193 2.030 . S
O1195 C1201 1.248 . S
O1196 Mg1193 1.990 . S
O1196 C1202 1.253 . S
O1197 Mg1193 2.117 . S
O1197 C1203 1.250 . S
C1198 O1204 1.248 . S
C1198 O1205 1.264 . S
C1199 O1185 1.253 . S
C1199 O1187 1.260 . S
C1200 O1189 1.279 . S
C1200 O1190 1.250 . S
C1201 O1191 1.264 . S
C1201 O1195 1.248 . S
C1202 O1192 1.260 . S
C1202 O1196 1.253 . S
C1203 O1194 1.279 . S
C1203 O1197 1.250 . S
O1204 Mg1186 2.030 . S
O1204 C1198 1.248 . S
O1205 Mg1188 2.079 . S
O1205 C1198 1.264 . S
O1206 Mg1207 1.990 . S
O1206 C1220 1.253 . S
Mg1207 O1206 1.990 . S
Mg1207 O1210 2.180 . S
Mg1207 O1211 2.117 . S
Mg1207 O1225 2.030 . S
O1208 Mg1209 2.072 . S
O1208 C1220 1.260 . S
Mg1209 O1208 2.072 . S
Mg1209 O1210 2.099 . S
Mg1209 O1212 2.079 . S
Mg1209 O1213 2.072 . S
Mg1209 O1215 2.099 . S
Mg1209 O1226 2.079 . S
O1210 Mg1207 2.180 . S
O1210 Mg1209 2.099 . S
O1210 C1221 1.279 . S
O1211 Mg1207 2.117 . S
O1211 C1221 1.250 . S
O1212 Mg1209 2.079 . S
O1212 C1222 1.264 . S
O1213 Mg1209 2.072 . S
O1213 C1223 1.260 . S
Mg1214 O1215 2.180 . S
Mg1214 O1216 2.030 . S
Mg1214 O1217 1.990 . S
Mg1214 O1218 2.117 . S
O1215 Mg1209 2.099 . S
O1215 Mg1214 2.180 . S
O1215 C1224 1.279 . S
O1216 Mg1214 2.030 . S
O1216 C1222 1.248 . S
O1217 Mg1214 1.990 . S
O1217 C1223 1.253 . S
O1218 Mg1214 2.117 . S
O1218 C1224 1.250 . S
C1219 O1225 1.248 . S
C1219 O1226 1.264 . S
C1220 O1206 1.253 . S
C1220 O1208 1.260 . S
C1221 O1210 1.279 . S
C1221 O1211 1.250 . S
C1222 O1212 1.264 . S
C1222 O1216 1.248 . S
C1223 O1213 1.260 . S
C1223 O1217 1.253 . S
C1224 O1215 1.279 . S
C1224 O1218 1.250 . S
O1225 Mg1207 2.030 . S
O1225 C1219 1.248 . S
O1226 Mg1209 2.079 . S
O1226 C1219 1.264 . S
O1227 Mg1228 1.990 . S
O1227 C1241 1.253 . S
Mg1228 O1227 1.990 . S
Mg1228 O1231 2.180 . S
Mg1228 O1232 2.117 . S
Mg1228 O1246 2.030 . S
O1229 Mg1230 2.072 . S
O1229 C1241 1.260 . S
Mg1230 O1229 2.072 . S
Mg1230 O1231 2.099 . S
Mg1230 O1233 2.079 . S
Mg1230 O1234 2.072 . S
Mg1230 O1236 2.099 . S
Mg1230 O1247 2.079 . S
O1231 Mg1228 2.180 . S
O1231 Mg1230 2.099 . S
O1231 C1242 1.279 . S
O1232 Mg1228 2.117 . S
O1232 C1242 1.250 . S
O1233 Mg1230 2.079 . S
O1233 C1243 1.264 . S
O1234 Mg1230 2.072 . S
O1234 C1244 1.260 . S
Mg1235 O1236 2.180 . S
Mg1235 O1237 2.030 . S
Mg1235 O1238 1.990 . S
Mg1235 O1239 2.117 . S
O1236 Mg1230 2.099 . S
O1236 Mg1235 2.180 . S
O1236 C1245 1.279 . S
O1237 Mg1235 2.030 . S
O1237 C1243 1.248 . S
O1238 Mg1235 1.990 . S
O1238 C1244 1.253 . S
O1239 Mg1235 2.117 . S
O1239 C1245 1.250 . S
C1240 O1246 1.248 . S
C1240 O1247 1.264 . S
C1241 O1227 1.253 . S
C1241 O1229 1.260 . S
C1242 O1231 1.279 . S
C1242 O1232 1.250 . S
C1243 O1233 1.264 . S
C1243 O1237 1.248 . S
C1244 O1234 1.260 . S
C1244 O1238 1.253 . S
C1245 O1236 1.279 . S
C1245 O1239 1.250 . S
O1246 Mg1228 2.030 . S
O1246 C1240 1.248 . S
O1247 Mg1230 2.079 . S
O1247 C1240 1.264 . S
O1248 Mg1249 1.990 . S
O1248 C1262 1.253 . S
Mg1249 O1248 1.990 . S
Mg1249 O1252 2.180 . S
Mg1249 O1253 2.117 . S
Mg1249 O1267 2.030 . S
O1250 Mg1251 2.072 . S
O1250 C1262 1.260 . S
Mg1251 O1250 2.072 . S
Mg1251 O1252 2.099 . S
Mg1251 O1254 2.079 . S
Mg1251 O1255 2.072 . S
Mg1251 O1257 2.099 . S
Mg1251 O1268 2.079 . S
O1252 Mg1249 2.180 . S
O1252 Mg1251 2.099 . S
O1252 C1263 1.279 . S
O1253 Mg1249 2.117 . S
O1253 C1263 1.250 . S
O1254 Mg1251 2.079 . S
O1254 C1264 1.264 . S
O1255 Mg1251 2.072 . S
O1255 C1265 1.260 . S
Mg1256 O1257 2.180 . S
Mg1256 O1258 2.030 . S
Mg1256 O1259 1.990 . S
Mg1256 O1260 2.117 . S
O1257 Mg1251 2.099 . S
O1257 Mg1256 2.180 . S
O1257 C1266 1.279 . S
O1258 Mg1256 2.030 . S
O1258 C1264 1.248 . S
O1259 Mg1256 1.990 . S
O1259 C1265 1.253 . S
O1260 Mg1256 2.117 . S
O1260 C1266 1.250 . S
C1261 O1267 1.248 . S
C1261 O1268 1.264 . S
C1262 O1248 1.253 . S
C1262 O1250 1.260 . S
C1263 O1252 1.279 . S
C1263 O1253 1.250 . S
C1264 O1254 1.264 . S
C1264 O1258 1.248 . S
C1265 O1255 1.260 . S
C1265 O1259 1.253 . S
C1266 O1257 1.279 . S
C1266 O1260 1.250 . S
O1267 Mg1249 2.030 . S
O1267 C1261 1.248 . S
O1268 Mg1251 2.079 . S
O1268 C1261 1.264 . S
C1269 C1270 1.349 . S
C1269 C1271 1.327 . S
C1269 H1294 0.950 . S
C1270 C1269 1.349 . S
C1270 C1286 1.349 . S
C1271 C1269 1.327 . S
C1271 C1290 1.429 . S
C1271 H1295 0.950 . S
C1272 C1289 1.574 . S
C1272 C1291 1.368 . S
C1272 H1296 0.949 . S
H1273 C1277 0.949 . S
C1274 C1275 1.349 . S
C1274 C1276 1.327 . S
C1274 H1297 0.950 . S
C1275 C1274 1.349 . S
C1275 C1287 1.349 . S
C1276 C1274 1.327 . S
C1276 C1292 1.429 . S
C1276 H1298 0.950 . S
C1277 H1273 0.949 . S
C1277 C1285 1.574 . S
C1277 C1293 1.368 . S
H1278 C1286 0.950 . S
H1279 C1284 0.950 . S
H1280 C1285 0.949 . S
H1281 C1287 0.950 . S
H1282 C1288 0.950 . S
H1283 C1289 0.949 . S
C1284 H1279 0.950 . S
C1284 C1286 1.327 . S
C1284 C1290 1.429 . S
C1285 C1277 1.574 . S
C1285 H1280 0.949 . S
C1285 C1291 1.368 . S
C1286 C1270 1.349 . S
C1286 H1278 0.950 . S
C1286 C1284 1.327 . S
C1287 C1275 1.349 . S
C1287 H1281 0.950 . S
C1287 C1288 1.327 . S
C1288 H1282 0.950 . S
C1288 C1287 1.327 . S
C1288 C1292 1.429 . S
C1289 C1272 1.574 . S
C1289 H1283 0.949 . S
C1289 C1293 1.368 . S
C1290 C1271 1.429 . S
C1290 C1284 1.429 . S
C1290 C1291 1.523 . S
C1291 C1272 1.368 . S
C1291 C1285 1.368 . S
C1291 C1290 1.523 . S
C1292 C1276 1.429 . S
C1292 C1288 1.429 . S
C1292 C1293 1.523 . S
C1293 C1277 1.368 . S
C1293 C1289 1.368 . S
C1293 C1292 1.523 . S
H1294 C1269 0.950 . S
H1295 C1271 0.950 . S
H1296 C1272 0.949 . S
H1297 C1274 0.950 . S
H1298 C1276 0.950 . S
C1299 C1300 1.349 . S
C1299 C1301 1.327 . S
C1299 H1324 0.950 . S
C1300 C1299 1.349 . S
C1300 C1316 1.349 . S
C1301 C1299 1.327 . S
C1301 C1320 1.429 . S
C1301 H1325 0.950 . S
C1302 C1319 1.574 . S
C1302 C1321 1.368 . S
C1302 H1326 0.949 . S
H1303 C1307 0.949 . S
C1304 C1305 1.349 . S
C1304 C1306 1.327 . S
C1304 H1327 0.950 . S
C1305 C1304 1.349 . S
C1305 C1317 1.349 . S
C1306 C1304 1.327 . S
C1306 C1322 1.429 . S
C1306 H1328 0.950 . S
C1307 H1303 0.949 . S
C1307 C1315 1.574 . S
C1307 C1323 1.368 . S
H1308 C1316 0.950 . S
H1309 C1314 0.950 . S
H1310 C1315 0.949 . S
H1311 C1317 0.950 . S
H1312 C1318 0.950 . S
H1313 C1319 0.949 . S
C1314 H1309 0.950 . S
C1314 C1316 1.327 . S
C1314 C1320 1.429 . S
C1315 C1307 1.574 . S
C1315 H1310 0.949 . S
C1315 C1321 1.368 . S
C1316 C1300 1.349 . S
C1316 H1308 0.950 . S
C1316 C1314 1.327 . S
C1317 C1305 1.349 . S
C1317 H1311 0.950 . S
C1317 C1318 1.327 . S
C1318 H1312 0.950 . S
C1318 C1317 1.327 . S
C1318 C1322 1.429 . S
C1319 C1302 1.574 . S
C1319 H1313 0.949 . S
C1319 C1323 1.368 . S
C1320 C1301 1.429 . S
C1320 C1314 1.429 . S
C1320 C1321 1.523 . S
C1321 C1302 1.368 . S
C1321 C1315 1.368 . S
C1321 C1320 1.523 . S
C1322 C1306 1.429 . S
C1322 C1318 1.429 . S
C1322 C1323 1.523 . S
C1323 C1307 1.368 . S
C1323 C1319 1.368 . S
C1323 C1322 1.523 . S
H1324 C1299 0.950 . S
H1325 C1301 0.950 . S
H1326 C1302 0.949 . S
H1327 C1304 0.950 . S
H1328 C1306 0.950 . S
C1329 C1330 1.349 . S
C1329 C1331 1.327 . S
C1329 H1354 0.950 . S
C1330 C1329 1.349 . S
C1330 C1346 1.349 . S
C1331 C1329 1.327 . S
C1331 C1350 1.429 . S
C1331 H1355 0.950 . S
C1332 C1349 1.574 . S
C1332 C1351 1.368 . S
C1332 H1356 0.949 . S
H1333 C1337 0.949 . S
C1334 C1335 1.349 . S
C1334 C1336 1.327 . S
C1334 H1357 0.950 1_554 S
C1335 C1334 1.349 . S
C1335 C1347 1.349 . S
C1336 C1334 1.327 . S
C1336 C1352 1.429 . S
C1336 H1358 0.950 1_554 S
C1337 H1333 0.949 . S
C1337 C1345 1.574 . S
C1337 C1353 1.368 . S
H1338 C1346 0.950 . S
H1339 C1344 0.950 . S
H1340 C1345 0.949 . S
H1341 C1347 0.950 . S
H1342 C1348 0.950 . S
H1343 C1349 0.945 . S
C1344 H1339 0.950 . S
C1344 C1346 1.327 . S
C1344 C1350 1.429 . S
C1345 C1337 1.574 . S
C1345 H1340 0.949 . S
C1345 C1351 1.368 . S
C1346 C1330 1.349 . S
C1346 H1338 0.950 . S
C1346 C1344 1.327 . S
C1347 C1335 1.349 . S
C1347 H1341 0.950 . S
C1347 C1348 1.327 . S
C1348 H1342 0.950 . S
C1348 C1347 1.327 . S
C1348 C1352 1.429 . S
C1349 C1332 1.574 . S
C1349 H1343 0.945 . S
C1349 C1353 1.368 . S
C1350 C1331 1.429 . S
C1350 C1344 1.429 . S
C1350 C1351 1.523 . S
C1351 C1332 1.368 . S
C1351 C1345 1.368 . S
C1351 C1350 1.523 . S
C1352 C1336 1.429 . S
C1352 C1348 1.429 . S
C1352 C1353 1.523 . S
C1353 C1337 1.368 . S
C1353 C1349 1.368 . S
C1353 C1352 1.523 . S
H1354 C1329 0.950 . S
H1355 C1331 0.950 . S
H1356 C1332 0.949 . S
H1357 C1334 0.950 1_556 S
H1358 C1336 0.950 1_556 S
C1359 C1360 1.349 . S
C1359 C1361 1.327 . S
C1359 H1384 0.950 . S
C1360 C1359 1.349 . S
C1360 C1376 1.349 . S
C1361 C1359 1.327 . S
C1361 C1380 1.429 . S
C1361 H1385 0.950 . S
C1362 C1379 1.574 . S
C1362 C1381 1.368 . S
C1362 H1386 0.949 . S
H1363 C1367 0.949 1_554 S
C1364 C1365 1.349 . S
C1364 C1366 1.327 . S
C1364 H1387 0.950 . S
C1365 C1364 1.349 . S
C1365 C1377 1.349 1_556 S
C1366 C1364 1.327 . S
C1366 C1382 1.429 . S
C1366 H1388 0.950 . S
C1367 H1363 0.949 1_556 S
C1367 C1375 1.574 . S
C1367 C1383 1.368 . S
H1368 C1376 0.950 . S
H1369 C1374 0.950 . S
H1370 C1375 0.949 . S
H1371 C1377 0.950 . S
H1372 C1378 0.950 . S
H1373 C1379 0.949 . S
C1374 H1369 0.950 . S
C1374 C1376 1.327 . S
C1374 C1380 1.429 . S
C1375 C1367 1.574 . S
C1375 H1370 0.949 . S
C1375 C1381 1.368 . S
C1376 C1360 1.349 . S
C1376 H1368 0.950 . S
C1376 C1374 1.327 . S
C1377 C1365 1.349 1_554 S
C1377 H1371 0.950 . S
C1377 C1378 1.327 . S
C1378 H1372 0.950 . S
C1378 C1377 1.327 . S
C1378 C1382 1.429 1_554 S
C1379 C1362 1.574 . S
C1379 H1373 0.949 . S
C1379 C1383 1.368 . S
C1380 C1361 1.429 . S
C1380 C1374 1.429 . S
C1380 C1381 1.523 . S
C1381 C1362 1.368 . S
C1381 C1375 1.368 . S
C1381 C1380 1.523 . S
C1382 C1366 1.429 . S
C1382 C1378 1.429 1_556 S
C1382 C1383 1.523 . S
C1383 C1367 1.368 . S
C1383 C1379 1.368 . S
C1383 C1382 1.523 . S
H1384 C1359 0.950 . S
H1385 C1361 0.950 . S
H1386 C1362 0.949 . S
H1387 C1364 0.950 . S
H1388 C1366 0.950 . S
C1389 C1390 1.349 . S
C1389 C1391 1.327 . S
C1389 H1414 0.950 . S
C1390 C1389 1.349 . S
C1390 C1406 1.349 . S
C1391 C1389 1.327 . S
C1391 C1410 1.429 . S
C1391 H1415 0.950 . S
C1392 C1409 1.574 . S
C1392 C1411 1.368 . S
C1392 H1416 0.949 . S
H1393 C1397 0.949 . S
C1394 C1395 1.349 . S
C1394 C1396 1.327 . S
C1394 H1417 0.950 . S
C1395 C1394 1.349 . S
C1395 C1407 1.349 . S
C1396 C1394 1.327 . S
C1396 C1412 1.429 . S
C1396 H1418 0.950 . S
C1397 H1393 0.949 . S
C1397 C1405 1.574 . S
C1397 C1413 1.368 . S
H1398 C1406 0.950 . S
H1399 C1404 0.950 . S
H1400 C1405 0.949 . S
H1401 C1407 0.950 1_554 S
H1402 C1408 0.975 . S
H1403 C1409 0.949 . S
C1404 H1399 0.950 . S
C1404 C1406 1.327 . S
C1404 C1410 1.429 . S
C1405 C1397 1.574 . S
C1405 H1400 0.949 . S
C1405 C1411 1.368 . S
C1406 C1390 1.349 . S
C1406 H1398 0.950 . S
C1406 C1404 1.327 . S
C1407 C1395 1.349 . S
C1407 H1401 0.950 1_556 S
C1407 C1408 1.327 . S
C1408 H1402 0.975 . S
C1408 C1407 1.327 . S
C1408 C1412 1.429 . S
C1409 C1392 1.574 . S
C1409 H1403 0.949 . S
C1409 C1413 1.368 . S
C1410 C1391 1.429 . S
C1410 C1404 1.429 . S
C1410 C1411 1.523 . S
C1411 C1392 1.368 . S
C1411 C1405 1.368 . S
C1411 C1410 1.523 . S
C1412 C1396 1.429 . S
C1412 C1408 1.429 . S
C1412 C1413 1.523 . S
C1413 C1397 1.368 . S
C1413 C1409 1.368 . S
C1413 C1412 1.523 . S
H1414 C1389 0.950 . S
H1415 C1391 0.950 . S
H1416 C1392 0.949 . S
H1417 C1394 0.950 . S
H1418 C1396 0.950 . S
C1419 C1420 1.349 . S
C1419 C1421 1.327 . S
C1419 H1444 0.950 . S
C1420 C1419 1.349 . S
C1420 C1436 1.349 . S
C1421 C1419 1.327 . S
C1421 C1440 1.429 . S
C1421 H1445 0.950 . S
C1422 C1439 1.574 . S
C1422 C1441 1.368 . S
C1422 H1446 0.949 . S
H1423 C1427 0.949 . S
C1424 C1425 1.349 1_554 S
C1424 C1426 1.322 1_554 S
C1424 H1447 0.950 . S
C1425 C1424 1.349 1_556 S
C1425 C1437 1.349 . S
C1426 C1424 1.322 1_556 S
C1426 C1442 1.450 . S
C1426 H1448 0.934 1_556 S
C1427 H1423 0.949 . S
C1427 C1435 1.574 . S
C1427 C1443 1.368 . S
H1428 C1436 0.950 . S
H1429 C1434 0.950 . S
H1430 C1435 0.949 . S
H1431 C1437 0.950 . S
H1432 C1438 0.950 . S
H1433 C1439 0.949 1_554 S
C1434 H1429 0.950 . S
C1434 C1436 1.327 . S
C1434 C1440 1.429 . S
C1435 C1427 1.574 . S
C1435 H1430 0.949 . S
C1435 C1441 1.368 . S
C1436 C1420 1.349 . S
C1436 H1428 0.950 . S
C1436 C1434 1.327 . S
C1437 C1425 1.349 . S
C1437 H1431 0.950 . S
C1437 C1438 1.327 . S
C1438 H1432 0.950 . S
C1438 C1437 1.327 . S
C1438 C1442 1.429 . S
C1439 C1422 1.574 . S
C1439 H1433 0.949 1_556 S
C1439 C1443 1.368 . S
C1440 C1421 1.429 . S
C1440 C1434 1.429 . S
C1440 C1441 1.523 . S
C1441 C1422 1.368 . S
C1441 C1435 1.368 . S
C1441 C1440 1.523 . S
C1442 C1426 1.450 . S
C1442 C1438 1.429 . S
C1442 C1443 1.523 . S
C1443 C1427 1.368 . S
C1443 C1439 1.368 . S
C1443 C1442 1.523 . S
H1444 C1419 0.950 . S
H1445 C1421 0.950 . S
H1446 C1422 0.949 . S
H1447 C1424 0.950 . S
H1448 C1426 0.934 1_554 S
C1449 C1450 1.349 . S
C1449 C1451 1.327 . S
C1449 H1474 0.950 . S
C1450 C1449 1.349 . S
C1450 C1466 1.349 . S
C1451 C1449 1.327 . S
C1451 C1470 1.429 . S
C1451 H1475 0.950 . S
C1452 C1469 1.574 . S
C1452 C1471 1.368 . S
C1452 H1476 0.949 . S
H1453 C1457 0.949 . S
C1454 C1455 1.337 1_554 S
C1454 C1456 1.318 1_554 S
C1454 H1477 0.973 . S
C1455 C1454 1.337 1_556 S
C1455 C1467 1.349 . S
C1456 C1454 1.318 1_556 S
C1456 C1472 1.429 . S
C1456 H1478 0.931 1_556 S
C1457 H1453 0.949 . S
C1457 C1465 1.574 . S
C1457 C1473 1.368 . S
H1458 C1466 0.950 . S
H1459 C1464 0.950 . S
H1460 C1465 0.949 . S
H1461 C1467 0.950 . S
H1462 C1468 0.950 . S
H1463 C1469 0.949 . S
C1464 H1459 0.950 . S
C1464 C1466 1.327 . S
C1464 C1470 1.429 . S
C1465 C1457 1.574 . S
C1465 H1460 0.949 . S
C1465 C1471 1.368 . S
C1466 C1450 1.349 . S
C1466 H1458 0.950 . S
C1466 C1464 1.327 . S
C1467 C1455 1.349 . S
C1467 H1461 0.950 . S
C1467 C1468 1.327 . S
C1468 H1462 0.950 . S
C1468 C1467 1.327 . S
C1468 C1472 1.429 . S
C1469 C1452 1.574 . S
C1469 H1463 0.949 . S
C1469 C1473 1.368 . S
C1470 C1451 1.429 . S
C1470 C1464 1.429 . S
C1470 C1471 1.523 . S
C1471 C1452 1.368 . S
C1471 C1465 1.368 . S
C1471 C1470 1.523 . S
C1472 C1456 1.429 . S
C1472 C1468 1.429 . S
C1472 C1473 1.523 . S
C1473 C1457 1.368 . S
C1473 C1469 1.368 . S
C1473 C1472 1.523 . S
H1474 C1449 0.950 . S
H1475 C1451 0.950 . S
H1476 C1452 0.949 . S
H1477 C1454 0.973 . S
H1478 C1456 0.931 1_554 S
C1479 C1480 1.349 . S
C1479 C1481 1.327 . S
C1479 H1504 0.950 . S
C1480 C1479 1.349 . S
C1480 C1496 1.349 . S
C1481 C1479 1.327 . S
C1481 C1500 1.429 . S
C1481 H1505 0.950 . S
C1482 C1499 1.574 . S
C1482 C1501 1.368 . S
C1482 H1506 0.949 . S
H1483 C1487 0.949 . S
C1484 C1485 1.349 . S
C1484 C1486 1.327 . S
C1484 H1507 0.950 1_556 S
C1485 C1484 1.349 . S
C1485 C1497 1.349 . S
C1486 C1484 1.327 . S
C1486 C1502 1.429 . S
C1486 H1508 0.950 . S
C1487 H1483 0.949 . S
C1487 C1495 1.574 . S
C1487 C1503 1.368 . S
H1488 C1496 0.950 . S
H1489 C1494 0.950 . S
H1490 C1495 0.949 . S
H1491 C1497 0.950 . S
H1492 C1498 0.950 . S
H1493 C1499 0.949 . S
C1494 H1489 0.950 . S
C1494 C1496 1.327 . S
C1494 C1500 1.429 . S
C1495 C1487 1.574 . S
C1495 H1490 0.949 . S
C1495 C1501 1.368 . S
C1496 C1480 1.349 . S
C1496 H1488 0.950 . S
C1496 C1494 1.327 . S
C1497 C1485 1.349 . S
C1497 H1491 0.950 . S
C1497 C1498 1.327 . S
C1498 H1492 0.950 . S
C1498 C1497 1.327 . S
C1498 C1502 1.429 . S
C1499 C1482 1.574 . S
C1499 H1493 0.949 . S
C1499 C1503 1.368 . S
C1500 C1481 1.429 . S
C1500 C1494 1.429 . S
C1500 C1501 1.523 . S
C1501 C1482 1.368 . S
C1501 C1495 1.368 . S
C1501 C1500 1.523 . S
C1502 C1486 1.429 . S
C1502 C1498 1.429 . S
C1502 C1503 1.523 . S
C1503 C1487 1.368 . S
C1503 C1499 1.368 . S
C1503 C1502 1.523 . S
H1504 C1479 0.950 . S
H1505 C1481 0.950 . S
H1506 C1482 0.949 . S
H1507 C1484 0.950 1_554 S
H1508 C1486 0.950 . S
C1509 C1510 1.349 . S
C1509 C1511 1.327 . S
C1509 H1534 0.950 . S
C1510 C1509 1.349 . S
C1510 C1526 1.349 . S
C1511 C1509 1.327 . S
C1511 C1530 1.429 . S
C1511 H1535 0.950 . S
C1512 C1529 1.574 . S
C1512 C1531 1.368 . S
C1512 H1536 0.966 . S
H1513 C1517 0.949 . S
C1514 C1515 1.349 1_554 S
C1514 C1516 1.327 . S
C1514 H1537 0.950 . S
C1515 C1514 1.349 1_556 S
C1515 C1527 1.349 . S
C1516 C1514 1.327 . S
C1516 C1532 1.429 1_554 S
C1516 H1538 0.950 . S
C1517 H1513 0.949 . S
C1517 C1525 1.574 . S
C1517 C1533 1.368 . S
H1518 C1526 0.950 . S
H1519 C1524 0.950 . S
H1520 C1525 0.949 . S
H1521 C1527 0.950 . S
H1522 C1528 0.950 . S
H1523 C1529 0.949 1_554 S
C1524 H1519 0.950 . S
C1524 C1526 1.327 . S
C1524 C1530 1.429 . S
C1525 C1517 1.574 . S
C1525 H1520 0.949 . S
C1525 C1531 1.368 . S
C1526 C1510 1.349 . S
C1526 H1518 0.950 . S
C1526 C1524 1.327 . S
C1527 C1515 1.349 . S
C1527 H1521 0.950 . S
C1527 C1528 1.327 . S
C1528 H1522 0.950 . S
C1528 C1527 1.327 . S
C1528 C1532 1.429 . S
C1529 C1512 1.574 . S
C1529 H1523 0.949 1_556 S
C1529 C1533 1.368 . S
C1530 C1511 1.429 . S
C1530 C1524 1.429 . S
C1530 C1531 1.523 . S
C1531 C1512 1.368 . S
C1531 C1525 1.368 . S
C1531 C1530 1.523 . S
C1532 C1516 1.429 1_556 S
C1532 C1528 1.429 . S
C1532 C1533 1.523 . S
C1533 C1517 1.368 . S
C1533 C1529 1.368 . S
C1533 C1532 1.523 . S
H1534 C1509 0.950 . S
H1535 C1511 0.950 . S
H1536 C1512 0.966 . S
H1537 C1514 0.950 . S
H1538 C1516 0.950 . S
C1539 C1540 1.349 . S
C1539 C1541 1.327 . S
C1539 H1564 0.950 . S
C1540 C1539 1.349 . S
C1540 C1556 1.349 . S
C1541 C1539 1.327 . S
C1541 C1560 1.429 . S
C1541 H1565 0.950 . S
C1542 C1559 1.574 . S
C1542 C1561 1.368 . S
C1542 H1566 0.949 . S
H1543 C1547 0.949 . S
C1544 C1545 1.335 1_556 S
C1544 C1546 1.324 1_556 S
C1544 H1567 0.967 . S
C1545 C1544 1.335 1_554 S
C1545 C1557 1.349 . S
C1546 C1544 1.324 1_554 S
C1546 C1562 1.429 . S
C1546 H1568 0.950 1_554 S
C1547 H1543 0.949 . S
C1547 C1555 1.574 . S
C1547 C1563 1.368 . S
H1548 C1556 0.950 . S
H1549 C1554 0.950 . S
H1550 C1555 0.949 . S
H1551 C1557 0.950 . S
H1552 C1558 0.950 . S
H1553 C1559 0.949 1_556 S
C1554 H1549 0.950 . S
C1554 C1556 1.327 . S
C1554 C1560 1.429 . S
C1555 C1547 1.574 . S
C1555 H1550 0.949 . S
C1555 C1561 1.368 . S
C1556 C1540 1.349 . S
C1556 H1548 0.950 . S
C1556 C1554 1.327 . S
C1557 C1545 1.349 . S
C1557 H1551 0.950 . S
C1557 C1558 1.327 . S
C1558 H1552 0.950 . S
C1558 C1557 1.327 . S
C1558 C1562 1.429 . S
C1559 C1542 1.574 . S
C1559 H1553 0.949 1_554 S
C1559 C1563 1.368 . S
C1560 C1541 1.429 . S
C1560 C1554 1.429 . S
C1560 C1561 1.523 . S
C1561 C1542 1.368 . S
C1561 C1555 1.368 . S
C1561 C1560 1.523 . S
C1562 C1546 1.429 . S
C1562 C1558 1.429 . S
C1562 C1563 1.523 . S
C1563 C1547 1.368 . S
C1563 C1559 1.368 . S
C1563 C1562 1.523 . S
H1564 C1539 0.950 . S
H1565 C1541 0.950 . S
H1566 C1542 0.949 . S
H1567 C1544 0.967 . S
H1568 C1546 0.950 1_556 S
C1569 C1570 1.349 . S
C1569 C1571 1.327 . S
C1569 H1594 0.950 . S
C1570 C1569 1.349 . S
C1570 C1586 1.349 . S
C1571 C1569 1.327 . S
C1571 C1590 1.429 . S
C1571 H1595 0.950 . S
C1572 C1589 1.574 . S
C1572 C1591 1.368 . S
C1572 H1596 0.949 . S
H1573 C1577 0.949 1_556 S
C1574 C1575 1.349 . S
C1574 C1576 1.327 . S
C1574 H1597 0.950 . S
C1575 C1574 1.349 . S
C1575 C1587 1.302 1_554 S
C1576 C1574 1.327 . S
C1576 C1592 1.429 . S
C1576 H1598 0.950 . S
C1577 H1573 0.949 1_554 S
C1577 C1585 1.574 . S
C1577 C1593 1.368 . S
H1578 C1586 0.950 . S
H1579 C1584 0.950 . S
H1580 C1585 0.949 . S
H1581 C1587 1.013 . S
H1582 C1588 0.950 1_556 S
H1583 C1589 0.949 . S
C1584 H1579 0.950 . S
C1584 C1586 1.327 . S
C1584 C1590 1.429 . S
C1585 C1577 1.574 . S
C1585 H1580 0.949 . S
C1585 C1591 1.368 . S
C1586 C1570 1.349 . S
C1586 H1578 0.950 . S
C1586 C1584 1.327 . S
C1587 C1575 1.302 1_556 S
C1587 H1581 1.013 . S
C1587 C1588 1.315 1_556 S
C1588 H1582 0.950 1_554 S
C1588 C1587 1.315 1_554 S
C1588 C1592 1.429 . S
C1589 C1572 1.574 . S
C1589 H1583 0.949 . S
C1589 C1593 1.368 . S
C1590 C1571 1.429 . S
C1590 C1584 1.429 . S
C1590 C1591 1.523 . S
C1591 C1572 1.368 . S
C1591 C1585 1.368 . S
C1591 C1590 1.523 . S
C1592 C1576 1.429 . S
C1592 C1588 1.429 . S
C1592 C1593 1.523 . S
C1593 C1577 1.368 . S
C1593 C1589 1.368 . S
C1593 C1592 1.523 . S
H1594 C1569 0.950 . S
H1595 C1571 0.950 . S
H1596 C1572 0.949 . S
H1597 C1574 0.950 . S
H1598 C1576 0.950 . S
C1599 C1600 1.349 . S
C1599 C1601 1.327 . S
C1599 H1624 0.950 . S
C1600 C1599 1.349 . S
C1600 C1616 1.349 . S
C1601 C1599 1.327 . S
C1601 C1620 1.429 . S
C1601 H1625 0.950 . S
C1602 C1619 1.574 . S
C1602 C1621 1.368 . S
C1602 H1626 0.949 . S
H1603 C1607 0.949 . S
C1604 C1605 1.356 . S
C1604 C1606 1.329 . S
C1604 H1627 0.940 1_554 S
C1605 C1604 1.356 . S
C1605 C1617 1.349 . S
C1606 C1604 1.329 . S
C1606 C1622 1.429 . S
C1606 H1628 0.950 1_554 S
C1607 H1603 0.949 . S
C1607 C1615 1.574 . S
C1607 C1623 1.368 . S
H1608 C1616 0.950 . S
H1609 C1614 0.950 . S
H1610 C1615 0.949 . S
H1611 C1617 0.950 . S
H1612 C1618 0.950 . S
H1613 C1619 0.983 . S
C1614 H1609 0.950 . S
C1614 C1616 1.327 . S
C1614 C1620 1.429 . S
C1615 C1607 1.574 . S
C1615 H1610 0.949 . S
C1615 C1621 1.368 . S
C1616 C1600 1.349 . S
C1616 H1608 0.950 . S
C1616 C1614 1.327 . S
C1617 C1605 1.349 . S
C1617 H1611 0.950 . S
C1617 C1618 1.327 . S
C1618 H1612 0.950 . S
C1618 C1617 1.327 . S
C1618 C1622 1.429 . S
C1619 C1602 1.574 . S
C1619 H1613 0.983 . S
C1619 C1623 1.368 . S
C1620 C1601 1.429 . S
C1620 C1614 1.429 . S
C1620 C1621 1.523 . S
C1621 C1602 1.368 . S
C1621 C1615 1.368 . S
C1621 C1620 1.523 . S
C1622 C1606 1.429 . S
C1622 C1618 1.429 . S
C1622 C1623 1.523 . S
C1623 C1607 1.368 . S
C1623 C1619 1.368 . S
C1623 C1622 1.523 . S
H1624 C1599 0.950 . S
H1625 C1601 0.950 . S
H1626 C1602 0.949 . S
H1627 C1604 0.940 1_556 S
H1628 C1606 0.950 1_556 S
C1629 C1630 1.349 . S
C1629 C1631 1.327 . S
C1629 H1654 0.950 . S
C1630 C1629 1.349 . S
C1630 C1646 1.349 . S
C1631 C1629 1.327 . S
C1631 C1650 1.429 . S
C1631 H1655 1.008 . S
C1632 C1649 1.574 . S
C1632 C1651 1.368 . S
C1632 H1656 0.949 . S
H1633 C1637 0.949 . S
C1634 C1635 1.349 . S
C1634 C1636 1.327 . S
C1634 H1657 0.950 . S
C1635 C1634 1.349 . S
C1635 C1647 1.349 . S
C1636 C1634 1.327 . S
C1636 C1652 1.429 . S
C1636 H1658 0.950 . S
C1637 H1633 0.949 . S
C1637 C1645 1.574 . S
C1637 C1653 1.368 . S
H1638 C1646 0.950 . S
H1639 C1644 0.950 . S
H1640 C1645 0.949 . S
H1641 C1647 0.950 . S
H1642 C1648 0.950 . S
H1643 C1649 0.949 . S
C1644 H1639 0.950 . S
C1644 C1646 1.327 . S
C1644 C1650 1.429 . S
C1645 C1637 1.574 . S
C1645 H1640 0.949 . S
C1645 C1651 1.368 . S
C1646 C1630 1.349 . S
C1646 H1638 0.950 . S
C1646 C1644 1.327 . S
C1647 C1635 1.349 . S
C1647 H1641 0.950 . S
C1647 C1648 1.327 . S
C1648 H1642 0.950 . S
C1648 C1647 1.327 . S
C1648 C1652 1.429 . S
C1649 C1632 1.574 . S
C1649 H1643 0.949 . S
C1649 C1653 1.368 . S
C1650 C1631 1.429 . S
C1650 C1644 1.429 . S
C1650 C1651 1.523 1_655 S
C1651 C1632 1.368 . S
C1651 C1645 1.368 . S
C1651 C1650 1.523 1_455 S
C1652 C1636 1.429 . S
C1652 C1648 1.429 . S
C1652 C1653 1.523 . S
C1653 C1637 1.368 . S
C1653 C1649 1.368 . S
C1653 C1652 1.523 . S
H1654 C1629 0.950 . S
H1655 C1631 1.008 . S
H1656 C1632 0.949 . S
H1657 C1634 0.950 . S
H1658 C1636 0.950 . S
C1659 C1660 1.349 . S
C1659 C1661 1.327 . S
C1659 H1684 0.950 . S
C1660 C1659 1.349 . S
C1660 C1676 1.349 . S
C1661 C1659 1.327 . S
C1661 C1680 1.429 . S
C1661 H1685 0.950 . S
C1662 C1679 1.574 . S
C1662 C1681 1.368 . S
C1662 H1686 0.949 . S
H1663 C1667 0.949 . S
C1664 C1665 1.349 . S
C1664 C1666 1.327 . S
C1664 H1687 0.950 . S
C1665 C1664 1.349 . S
C1665 C1677 1.349 . S
C1666 C1664 1.327 . S
C1666 C1682 1.429 . S
C1666 H1688 0.950 . S
C1667 H1663 0.949 . S
C1667 C1675 1.574 . S
C1667 C1683 1.368 . S
H1668 C1676 0.950 . S
H1669 C1674 0.950 . S
H1670 C1675 0.949 . S
H1671 C1677 0.950 . S
H1672 C1678 0.950 . S
H1673 C1679 0.949 . S
C1674 H1669 0.950 . S
C1674 C1676 1.327 . S
C1674 C1680 1.429 . S
C1675 C1667 1.574 . S
C1675 H1670 0.949 . S
C1675 C1681 1.368 . S
C1676 C1660 1.349 . S
C1676 H1668 0.950 . S
C1676 C1674 1.327 . S
C1677 C1665 1.349 . S
C1677 H1671 0.950 . S
C1677 C1678 1.327 . S
C1678 H1672 0.950 . S
C1678 C1677 1.327 . S
C1678 C1682 1.429 . S
C1679 C1662 1.574 . S
C1679 H1673 0.949 . S
C1679 C1683 1.368 . S
C1680 C1661 1.429 . S
C1680 C1674 1.429 . S
C1680 C1681 1.523 . S
C1681 C1662 1.368 . S
C1681 C1675 1.368 . S
C1681 C1680 1.523 . S
C1682 C1666 1.429 . S
C1682 C1678 1.429 . S
C1682 C1683 1.523 . S
C1683 C1667 1.368 . S
C1683 C1679 1.368 . S
C1683 C1682 1.523 . S
H1684 C1659 0.950 . S
H1685 C1661 0.950 . S
H1686 C1662 0.949 . S
H1687 C1664 0.950 . S
H1688 C1666 0.950 . S
C1689 C1690 1.349 . S
C1689 C1691 1.327 . S
C1689 H1714 0.950 . S
C1690 C1689 1.349 . S
C1690 C1706 1.349 . S
C1691 C1689 1.327 . S
C1691 C1710 1.429 . S
C1691 H1715 0.950 . S
C1692 C1709 1.574 . S
C1692 C1711 1.368 . S
C1692 H1716 0.949 . S
H1693 C1697 0.949 . S
C1694 C1695 1.349 . S
C1694 C1696 1.327 . S
C1694 H1717 0.950 . S
C1695 C1694 1.349 . S
C1695 C1707 1.349 . S
C1696 C1694 1.327 . S
C1696 C1712 1.429 . S
C1696 H1718 0.950 . S
C1697 H1693 0.949 . S
C1697 C1705 1.574 . S
C1697 C1713 1.368 . S
H1698 C1706 0.950 . S
H1699 C1704 0.950 . S
H1700 C1705 0.949 . S
H1701 C1707 0.950 . S
H1702 C1708 0.950 . S
H1703 C1709 0.949 . S
C1704 H1699 0.950 . S
C1704 C1706 1.327 . S
C1704 C1710 1.429 . S
C1705 C1697 1.574 . S
C1705 H1700 0.949 . S
C1705 C1711 1.368 . S
C1706 C1690 1.349 . S
C1706 H1698 0.950 . S
C1706 C1704 1.327 . S
C1707 C1695 1.349 . S
C1707 H1701 0.950 . S
C1707 C1708 1.327 . S
C1708 H1702 0.950 . S
C1708 C1707 1.327 . S
C1708 C1712 1.429 . S
C1709 C1692 1.574 . S
C1709 H1703 0.949 . S
C1709 C1713 1.368 . S
C1710 C1691 1.429 . S
C1710 C1704 1.429 . S
C1710 C1711 1.523 1_545 S
C1711 C1692 1.368 . S
C1711 C1705 1.368 . S
C1711 C1710 1.523 1_565 S
C1712 C1696 1.429 . S
C1712 C1708 1.429 . S
C1712 C1713 1.523 . S
C1713 C1697 1.368 . S
C1713 C1709 1.368 . S
C1713 C1712 1.523 . S
H1714 C1689 0.950 . S
H1715 C1691 0.950 . S
H1716 C1692 0.949 . S
H1717 C1694 0.950 . S
H1718 C1696 0.950 . S
C1719 C1720 1.349 . S
C1719 C1721 1.327 . S
C1719 H1744 0.950 . S
C1720 C1719 1.349 . S
C1720 C1736 1.349 . S
C1721 C1719 1.327 . S
C1721 C1740 1.429 . S
C1721 H1745 0.950 . S
C1722 C1739 1.574 . S
C1722 C1741 1.368 . S
C1722 H1746 0.949 . S
H1723 C1727 0.949 . S
C1724 C1725 1.349 . S
C1724 C1726 1.327 . S
C1724 H1747 0.950 . S
C1725 C1724 1.349 . S
C1725 C1737 1.349 . S
C1726 C1724 1.327 . S
C1726 C1742 1.429 . S
C1726 H1748 0.950 . S
C1727 H1723 0.949 . S
C1727 C1735 1.574 . S
C1727 C1743 1.368 . S
H1728 C1736 0.950 . S
H1729 C1734 0.950 . S
H1730 C1735 0.949 . S
H1731 C1737 0.950 . S
H1732 C1738 0.950 . S
H1733 C1739 0.949 . S
C1734 H1729 0.950 . S
C1734 C1736 1.327 . S
C1734 C1740 1.429 . S
C1735 C1727 1.574 . S
C1735 H1730 0.949 . S
C1735 C1741 1.368 . S
C1736 C1720 1.349 . S
C1736 H1728 0.950 . S
C1736 C1734 1.327 . S
C1737 C1725 1.349 . S
C1737 H1731 0.950 . S
C1737 C1738 1.327 . S
C1738 H1732 0.950 . S
C1738 C1737 1.327 . S
C1738 C1742 1.429 . S
C1739 C1722 1.574 . S
C1739 H1733 0.949 . S
C1739 C1743 1.368 . S
C1740 C1721 1.429 . S
C1740 C1734 1.429 . S
C1740 C1741 1.523 . S
C1741 C1722 1.368 . S
C1741 C1735 1.368 . S
C1741 C1740 1.523 . S
C1742 C1726 1.429 . S
C1742 C1738 1.429 . S
C1742 C1743 1.523 . S
C1743 C1727 1.368 . S
C1743 C1739 1.368 . S
C1743 C1742 1.523 . S
H1744 C1719 0.950 . S
H1745 C1721 0.950 . S
H1746 C1722 0.949 . S
H1747 C1724 0.950 . S
H1748 C1726 0.950 . S
C1749 C1750 1.349 . S
C1749 C1751 1.327 . S
C1749 H1774 0.950 . S
C1750 C1749 1.349 . S
C1750 C1766 1.349 . S
C1751 C1749 1.327 . S
C1751 C1770 1.429 . S
C1751 H1775 0.950 . S
C1752 C1769 1.574 . S
C1752 C1771 1.368 . S
C1752 H1776 0.949 . S
H1753 C1757 0.949 . S
C1754 C1755 1.349 . S
C1754 C1756 1.327 . S
C1754 H1777 0.950 . S
C1755 C1754 1.349 . S
C1755 C1767 1.349 . S
C1756 C1754 1.327 . S
C1756 C1772 1.429 . S
C1756 H1778 0.950 . S
C1757 H1753 0.949 . S
C1757 C1765 1.574 . S
C1757 C1773 1.368 . S
H1758 C1766 0.950 . S
H1759 C1764 0.950 . S
H1760 C1765 0.949 . S
H1761 C1767 0.950 . S
H1762 C1768 0.950 . S
H1763 C1769 0.949 . S
C1764 H1759 0.950 . S
C1764 C1766 1.327 . S
C1764 C1770 1.429 . S
C1765 C1757 1.574 . S
C1765 H1760 0.949 . S
C1765 C1771 1.368 . S
C1766 C1750 1.349 . S
C1766 H1758 0.950 . S
C1766 C1764 1.327 . S
C1767 C1755 1.349 . S
C1767 H1761 0.950 . S
C1767 C1768 1.327 . S
C1768 H1762 0.950 . S
C1768 C1767 1.327 . S
C1768 C1772 1.429 . S
C1769 C1752 1.574 . S
C1769 H1763 0.949 . S
C1769 C1773 1.368 . S
C1770 C1751 1.429 . S
C1770 C1764 1.429 . S
C1770 C1771 1.523 . S
C1771 C1752 1.368 . S
C1771 C1765 1.368 . S
C1771 C1770 1.523 . S
C1772 C1756 1.429 . S
C1772 C1768 1.429 . S
C1772 C1773 1.523 . S
C1773 C1757 1.368 . S
C1773 C1769 1.368 . S
C1773 C1772 1.523 . S
H1774 C1749 0.950 . S
H1775 C1751 0.950 . S
H1776 C1752 0.949 . S
H1777 C1754 0.950 . S
H1778 C1756 0.950 . S
C1779 C1780 1.349 . S
C1779 C1781 1.327 . S
C1779 H1804 0.950 . S
C1780 C1779 1.349 . S
C1780 C1796 1.349 . S
C1781 C1779 1.327 . S
C1781 C1800 1.429 . S
C1781 H1805 0.950 . S
C1782 C1799 1.574 . S
C1782 C1801 1.368 . S
C1782 H1806 0.949 . S
H1783 C1787 0.949 . S
C1784 C1785 1.349 . S
C1784 C1786 1.327 . S
C1784 H1807 0.950 . S
C1785 C1784 1.349 . S
C1785 C1797 1.349 . S
C1786 C1784 1.327 . S
C1786 C1802 1.429 . S
C1786 H1808 0.950 . S
C1787 H1783 0.949 . S
C1787 C1795 1.574 . S
C1787 C1803 1.368 . S
H1788 C1796 0.950 . S
H1789 C1794 0.950 . S
H1790 C1795 0.949 . S
H1791 C1797 0.950 . S
H1792 C1798 0.950 . S
H1793 C1799 0.949 . S
C1794 H1789 0.950 . S
C1794 C1796 1.327 . S
C1794 C1800 1.429 . S
C1795 C1787 1.574 . S
C1795 H1790 0.949 . S
C1795 C1801 1.368 . S
C1796 C1780 1.349 . S
C1796 H1788 0.950 . S
C1796 C1794 1.327 . S
C1797 C1785 1.349 . S
C1797 H1791 0.950 . S
C1797 C1798 1.327 . S
C1798 H1792 0.950 . S
C1798 C1797 1.327 . S
C1798 C1802 1.429 . S
C1799 C1782 1.574 . S
C1799 H1793 0.949 . S
C1799 C1803 1.368 . S
C1800 C1781 1.429 . S
C1800 C1794 1.429 . S
C1800 C1801 1.523 . S
C1801 C1782 1.368 . S
C1801 C1795 1.368 . S
C1801 C1800 1.523 . S
C1802 C1786 1.429 . S
C1802 C1798 1.429 . S
C1802 C1803 1.523 . S
C1803 C1787 1.368 . S
C1803 C1799 1.368 . S
C1803 C1802 1.523 . S
H1804 C1779 0.950 . S
H1805 C1781 0.950 . S
H1806 C1782 0.949 . S
H1807 C1784 0.950 . S
H1808 C1786 0.950 . S
C1809 C1810 1.349 . S
C1809 C1811 1.327 . S
C1809 H1834 0.950 . S
C1810 C1809 1.349 . S
C1810 C1826 1.349 . S
C1811 C1809 1.327 . S
C1811 C1830 1.429 . S
C1811 H1835 0.950 . S
C1812 C1829 1.574 . S
C1812 C1831 1.368 . S
C1812 H1836 0.949 . S
H1813 C1817 0.949 . S
C1814 C1815 1.349 . S
C1814 C1816 1.327 . S
C1814 H1837 0.950 . S
C1815 C1814 1.349 . S
C1815 C1827 1.349 . S
C1816 C1814 1.327 . S
C1816 C1832 1.429 . S
C1816 H1838 0.950 . S
C1817 H1813 0.949 . S
C1817 C1825 1.574 . S
C1817 C1833 1.368 . S
H1818 C1826 0.950 . S
H1819 C1824 0.950 . S
H1820 C1825 0.949 . S
H1821 C1827 0.950 . S
H1822 C1828 0.950 . S
H1823 C1829 0.949 . S
C1824 H1819 0.950 . S
C1824 C1826 1.327 . S
C1824 C1830 1.429 . S
C1825 C1817 1.574 . S
C1825 H1820 0.949 . S
C1825 C1831 1.368 . S
C1826 C1810 1.349 . S
C1826 H1818 0.950 . S
C1826 C1824 1.327 . S
C1827 C1815 1.349 . S
C1827 H1821 0.950 . S
C1827 C1828 1.327 . S
C1828 H1822 0.950 . S
C1828 C1827 1.327 . S
C1828 C1832 1.429 . S
C1829 C1812 1.574 . S
C1829 H1823 0.949 . S
C1829 C1833 1.368 . S
C1830 C1811 1.429 . S
C1830 C1824 1.429 . S
C1830 C1831 1.523 . S
C1831 C1812 1.368 . S
C1831 C1825 1.368 . S
C1831 C1830 1.523 . S
C1832 C1816 1.429 . S
C1832 C1828 1.429 . S
C1832 C1833 1.523 . S
C1833 C1817 1.368 . S
C1833 C1829 1.368 . S
C1833 C1832 1.523 . S
H1834 C1809 0.950 . S
H1835 C1811 0.950 . S
H1836 C1812 0.949 . S
H1837 C1814 0.950 . S
H1838 C1816 0.950 . S
C1839 C1840 1.349 . S
C1839 C1841 1.327 . S
C1839 H1864 0.950 . S
C1840 C1839 1.349 . S
C1840 C1856 1.349 . S
C1841 C1839 1.327 . S
C1841 C1860 1.429 . S
C1841 H1865 0.950 . S
C1842 C1859 1.574 . S
C1842 C1861 1.368 . S
C1842 H1866 0.949 . S
H1843 C1847 0.949 . S
C1844 C1845 1.349 . S
C1844 C1846 1.327 . S
C1844 H1867 0.950 . S
C1845 C1844 1.349 . S
C1845 C1857 1.349 . S
C1846 C1844 1.327 . S
C1846 C1862 1.429 . S
C1846 H1868 0.950 . S
C1847 H1843 0.949 . S
C1847 C1855 1.574 . S
C1847 C1863 1.368 . S
H1848 C1856 0.950 . S
H1849 C1854 0.950 . S
H1850 C1855 0.949 . S
H1851 C1857 0.950 . S
H1852 C1858 0.950 . S
H1853 C1859 0.949 . S
C1854 H1849 0.950 . S
C1854 C1856 1.327 . S
C1854 C1860 1.429 . S
C1855 C1847 1.574 . S
C1855 H1850 0.949 . S
C1855 C1861 1.368 . S
C1856 C1840 1.349 . S
C1856 H1848 0.950 . S
C1856 C1854 1.327 . S
C1857 C1845 1.349 . S
C1857 H1851 0.950 . S
C1857 C1858 1.327 . S
C1858 H1852 0.950 . S
C1858 C1857 1.327 . S
C1858 C1862 1.429 . S
C1859 C1842 1.574 . S
C1859 H1853 0.949 . S
C1859 C1863 1.368 . S
C1860 C1841 1.429 . S
C1860 C1854 1.429 . S
C1860 C1861 1.523 . S
C1861 C1842 1.368 . S
C1861 C1855 1.368 . S
C1861 C1860 1.523 . S
C1862 C1846 1.429 . S
C1862 C1858 1.429 . S
C1862 C1863 1.523 . S
C1863 C1847 1.368 . S
C1863 C1859 1.368 . S
C1863 C1862 1.523 . S
H1864 C1839 0.950 . S
H1865 C1841 0.950 . S
H1866 C1842 0.949 . S
H1867 C1844 0.950 . S
H1868 C1846 0.950 . S
C1869 C1870 1.349 . S
C1869 C1871 1.327 . S
C1869 H1894 0.950 . S
C1870 C1869 1.349 . S
C1870 C1886 1.349 . S
C1871 C1869 1.327 . S
C1871 C1890 1.429 . S
C1871 H1895 0.950 . S
C1872 C1889 1.574 . S
C1872 C1891 1.368 . S
C1872 H1896 0.949 . S
H1873 C1877 0.949 . S
C1874 C1875 1.349 . S
C1874 C1876 1.327 . S
C1874 H1897 0.950 . S
C1875 C1874 1.349 . S
C1875 C1887 1.349 . S
C1876 C1874 1.327 . S
C1876 C1892 1.429 . S
C1876 H1898 0.950 . S
C1877 H1873 0.949 . S
C1877 C1885 1.574 . S
C1877 C1893 1.368 . S
H1878 C1886 0.950 . S
H1879 C1884 0.950 . S
H1880 C1885 0.949 . S
H1881 C1887 0.950 . S
H1882 C1888 0.950 . S
H1883 C1889 0.949 . S
C1884 H1879 0.950 . S
C1884 C1886 1.327 . S
C1884 C1890 1.429 . S
C1885 C1877 1.574 . S
C1885 H1880 0.949 . S
C1885 C1891 1.368 . S
C1886 C1870 1.349 . S
C1886 H1878 0.950 . S
C1886 C1884 1.327 . S
C1887 C1875 1.349 . S
C1887 H1881 0.950 . S
C1887 C1888 1.327 . S
C1888 H1882 0.950 . S
C1888 C1887 1.327 . S
C1888 C1892 1.429 . S
C1889 C1872 1.574 . S
C1889 H1883 0.949 . S
C1889 C1893 1.368 . S
C1890 C1871 1.429 . S
C1890 C1884 1.429 . S
C1890 C1891 1.523 . S
C1891 C1872 1.368 . S
C1891 C1885 1.368 . S
C1891 C1890 1.523 . S
C1892 C1876 1.429 . S
C1892 C1888 1.429 . S
C1892 C1893 1.523 . S
C1893 C1877 1.368 . S
C1893 C1889 1.368 . S
C1893 C1892 1.523 . S
H1894 C1869 0.950 . S
H1895 C1871 0.950 . S
H1896 C1872 0.949 . S
H1897 C1874 0.950 . S
H1898 C1876 0.950 . S
C1899 C1900 1.349 . S
C1899 C1901 1.327 . S
C1899 H1924 0.950 . S
C1900 C1899 1.349 . S
C1900 C1916 1.349 . S
C1901 C1899 1.327 . S
C1901 C1920 1.429 . S
C1901 H1925 0.950 . S
C1902 C1919 1.574 . S
C1902 C1921 1.368 . S
C1902 H1926 0.949 . S
H1903 C1907 0.949 . S
C1904 C1905 1.349 . S
C1904 C1906 1.327 . S
C1904 H1927 0.950 . S
C1905 C1904 1.349 . S
C1905 C1917 1.349 . S
C1906 C1904 1.327 . S
C1906 C1922 1.429 . S
C1906 H1928 0.950 . S
C1907 H1903 0.949 . S
C1907 C1915 1.574 . S
C1907 C1923 1.368 . S
H1908 C1916 0.950 . S
H1909 C1914 0.950 . S
H1910 C1915 0.949 . S
H1911 C1917 0.950 . S
H1912 C1918 0.950 . S
H1913 C1919 0.949 . S
C1914 H1909 0.950 . S
C1914 C1916 1.327 . S
C1914 C1920 1.429 . S
C1915 C1907 1.574 . S
C1915 H1910 0.949 . S
C1915 C1921 1.368 . S
C1916 C1900 1.349 . S
C1916 H1908 0.950 . S
C1916 C1914 1.327 . S
C1917 C1905 1.349 . S
C1917 H1911 0.950 . S
C1917 C1918 1.327 . S
C1918 H1912 0.950 . S
C1918 C1917 1.327 . S
C1918 C1922 1.429 . S
C1919 C1902 1.574 . S
C1919 H1913 0.949 . S
C1919 C1923 1.368 . S
C1920 C1901 1.429 . S
C1920 C1914 1.429 . S
C1920 C1921 1.523 1_545 S
C1921 C1902 1.368 . S
C1921 C1915 1.368 . S
C1921 C1920 1.523 1_565 S
C1922 C1906 1.429 . S
C1922 C1918 1.429 . S
C1922 C1923 1.523 . S
C1923 C1907 1.368 . S
C1923 C1919 1.368 . S
C1923 C1922 1.523 . S
H1924 C1899 0.950 . S
H1925 C1901 0.950 . S
H1926 C1902 0.949 . S
H1927 C1904 0.950 . S
H1928 C1906 0.950 . S
C1929 C1930 1.349 . S
C1929 C1931 1.327 . S
C1929 H1954 0.950 . S
C1930 C1929 1.349 . S
C1930 C1946 1.349 . S
C1931 C1929 1.327 . S
C1931 C1950 1.429 . S
C1931 H1955 0.950 . S
C1932 C1949 1.574 . S
C1932 C1951 1.368 . S
C1932 H1956 0.949 . S
H1933 C1937 0.949 . S
C1934 C1935 1.349 . S
C1934 C1936 1.327 . S
C1934 H1957 0.950 . S
C1935 C1934 1.349 . S
C1935 C1947 1.349 . S
C1936 C1934 1.327 . S
C1936 C1952 1.429 . S
C1936 H1958 0.950 . S
C1937 H1933 0.949 . S
C1937 C1945 1.574 . S
C1937 C1953 1.368 . S
H1938 C1946 0.950 . S
H1939 C1944 0.950 . S
H1940 C1945 0.949 . S
H1941 C1947 0.950 . S
H1942 C1948 0.950 . S
H1943 C1949 0.949 . S
C1944 H1939 0.950 . S
C1944 C1946 1.327 . S
C1944 C1950 1.429 . S
C1945 C1937 1.574 . S
C1945 H1940 0.949 . S
C1945 C1951 1.368 . S
C1946 C1930 1.349 . S
C1946 H1938 0.950 . S
C1946 C1944 1.327 . S
C1947 C1935 1.349 . S
C1947 H1941 0.950 . S
C1947 C1948 1.327 . S
C1948 H1942 0.950 . S
C1948 C1947 1.327 . S
C1948 C1952 1.429 . S
C1949 C1932 1.574 . S
C1949 H1943 0.949 . S
C1949 C1953 1.368 . S
C1950 C1931 1.429 . S
C1950 C1944 1.429 . S
C1950 C1951 1.523 1_655 S
C1951 C1932 1.368 . S
C1951 C1945 1.368 . S
C1951 C1950 1.523 1_455 S
C1952 C1936 1.429 . S
C1952 C1948 1.429 . S
C1952 C1953 1.523 . S
C1953 C1937 1.368 . S
C1953 C1949 1.368 . S
C1953 C1952 1.523 . S
H1954 C1929 0.950 . S
H1955 C1931 0.950 . S
H1956 C1932 0.949 . S
H1957 C1934 0.950 . S
H1958 C1936 0.950 . S
C1959 C1960 1.349 . S
C1959 C1961 1.327 . S
C1959 H1984 0.950 . S
C1960 C1959 1.349 . S
C1960 C1976 1.349 . S
C1961 C1959 1.327 . S
C1961 C1980 1.429 . S
C1961 H1985 0.950 . S
C1962 C1979 1.574 . S
C1962 C1981 1.368 . S
C1962 H1986 0.949 . S
H1963 C1967 0.949 . S
C1964 C1965 1.349 . S
C1964 C1966 1.327 . S
C1964 H1987 0.950 . S
C1965 C1964 1.349 . S
C1965 C1977 1.349 . S
C1966 C1964 1.327 . S
C1966 C1982 1.429 . S
C1966 H1988 0.950 . S
C1967 H1963 0.949 . S
C1967 C1975 1.574 . S
C1967 C1983 1.368 . S
H1968 C1976 0.950 . S
H1969 C1974 0.950 . S
H1970 C1975 0.949 . S
H1971 C1977 0.950 . S
H1972 C1978 0.950 . S
H1973 C1979 0.949 . S
C1974 H1969 0.950 . S
C1974 C1976 1.327 . S
C1974 C1980 1.429 . S
C1975 C1967 1.574 . S
C1975 H1970 0.949 . S
C1975 C1981 1.368 . S
C1976 C1960 1.349 . S
C1976 H1968 0.950 . S
C1976 C1974 1.327 . S
C1977 C1965 1.349 . S
C1977 H1971 0.950 . S
C1977 C1978 1.327 . S
C1978 H1972 0.950 . S
C1978 C1977 1.327 . S
C1978 C1982 1.429 . S
C1979 C1962 1.574 . S
C1979 H1973 0.949 . S
C1979 C1983 1.368 . S
C1980 C1961 1.429 . S
C1980 C1974 1.429 . S
C1980 C1981 1.523 . S
C1981 C1962 1.368 . S
C1981 C1975 1.368 . S
C1981 C1980 1.523 . S
C1982 C1966 1.429 . S
C1982 C1978 1.429 . S
C1982 C1983 1.523 . S
C1983 C1967 1.368 . S
C1983 C1979 1.368 . S
C1983 C1982 1.523 . S
H1984 C1959 0.950 . S
H1985 C1961 0.950 . S
H1986 C1962 0.949 . S
H1987 C1964 0.950 . S
H1988 C1966 0.950 . S
C1989 C1990 1.349 . S
C1989 C1991 1.327 . S
C1989 H2014 0.950 . S
C1990 C1989 1.349 . S
C1990 C2006 1.349 . S
C1991 C1989 1.327 . S
C1991 C2010 1.429 . S
C1991 H2015 0.950 . S
C1992 C2009 1.574 . S
C1992 C2011 1.368 . S
C1992 H2016 0.949 . S
H1993 C1997 0.949 . S
C1994 C1995 1.349 . S
C1994 C1996 1.327 . S
C1994 H2017 0.950 . S
C1995 C1994 1.349 . S
C1995 C2007 1.349 . S
C1996 C1994 1.327 . S
C1996 C2012 1.429 . S
C1996 H2018 0.950 . S
C1997 H1993 0.949 . S
C1997 C2005 1.574 . S
C1997 C2013 1.368 . S
H1998 C2006 0.950 . S
H1999 C2004 0.950 . S
H2000 C2005 0.949 . S
H2001 C2007 0.950 . S
H2002 C2008 0.950 . S
H2003 C2009 0.949 . S
C2004 H1999 0.950 . S
C2004 C2006 1.327 . S
C2004 C2010 1.429 . S
C2005 C1997 1.574 . S
C2005 H2000 0.949 . S
C2005 C2011 1.368 . S
C2006 C1990 1.349 . S
C2006 H1998 0.950 . S
C2006 C2004 1.327 . S
C2007 C1995 1.349 . S
C2007 H2001 0.950 . S
C2007 C2008 1.327 . S
C2008 H2002 0.950 . S
C2008 C2007 1.327 . S
C2008 C2012 1.429 . S
C2009 C1992 1.574 . S
C2009 H2003 0.949 . S
C2009 C2013 1.368 . S
C2010 C1991 1.429 . S
C2010 C2004 1.429 . S
C2010 C2011 1.523 . S
C2011 C1992 1.368 . S
C2011 C2005 1.368 . S
C2011 C2010 1.523 . S
C2012 C1996 1.429 . S
C2012 C2008 1.429 . S
C2012 C2013 1.523 . S
C2013 C1997 1.368 . S
C2013 C2009 1.368 . S
C2013 C2012 1.523 . S
H2014 C1989 0.950 . S
H2015 C1991 0.950 . S
H2016 C1992 0.949 . S
H2017 C1994 0.950 . S
H2018 C1996 0.950 . S
C2019 C2020 1.349 . S
C2019 C2021 1.327 . S
C2019 H2044 0.950 . S
C2020 C2019 1.349 . S
C2020 C2036 1.349 . S
C2021 C2019 1.327 . S
C2021 C2040 1.429 . S
C2021 H2045 0.950 . S
C2022 C2039 1.574 . S
C2022 C2041 1.368 . S
C2022 H2046 0.949 . S
H2023 C2027 0.949 . S
C2024 C2025 1.349 . S
C2024 C2026 1.327 . S
C2024 H2047 0.950 . S
C2025 C2024 1.349 . S
C2025 C2037 1.349 . S
C2026 C2024 1.327 . S
C2026 C2042 1.429 . S
C2026 H2048 0.950 . S
C2027 H2023 0.949 . S
C2027 C2035 1.574 . S
C2027 C2043 1.368 . S
H2028 C2036 0.950 . S
H2029 C2034 0.950 . S
H2030 C2035 0.949 . S
H2031 C2037 0.950 . S
H2032 C2038 0.950 . S
H2033 C2039 0.949 . S
C2034 H2029 0.950 . S
C2034 C2036 1.327 . S
C2034 C2040 1.429 . S
C2035 C2027 1.574 . S
C2035 H2030 0.949 . S
C2035 C2041 1.368 . S
C2036 C2020 1.349 . S
C2036 H2028 0.950 . S
C2036 C2034 1.327 . S
C2037 C2025 1.349 . S
C2037 H2031 0.950 . S
C2037 C2038 1.327 . S
C2038 H2032 0.950 . S
C2038 C2037 1.327 . S
C2038 C2042 1.429 . S
C2039 C2022 1.574 . S
C2039 H2033 0.949 . S
C2039 C2043 1.368 . S
C2040 C2021 1.429 . S
C2040 C2034 1.429 . S
C2040 C2041 1.523 . S
C2041 C2022 1.368 . S
C2041 C2035 1.368 . S
C2041 C2040 1.523 . S
C2042 C2026 1.429 . S
C2042 C2038 1.429 . S
C2042 C2043 1.523 . S
C2043 C2027 1.368 . S
C2043 C2039 1.368 . S
C2043 C2042 1.523 . S
H2044 C2019 0.950 . S
H2045 C2021 0.950 . S
H2046 C2022 0.949 . S
H2047 C2024 0.950 . S
H2048 C2026 0.950 . S
C2049 C2050 1.349 . S
C2049 C2051 1.327 . S
C2049 H2074 0.950 . S
C2050 C2049 1.349 . S
C2050 C2066 1.349 . S
C2051 C2049 1.327 . S
C2051 C2070 1.429 . S
C2051 H2075 0.950 . S
C2052 C2069 1.574 . S
C2052 C2071 1.368 . S
C2052 H2076 0.949 . S
H2053 C2057 0.949 . S
C2054 C2055 1.349 . S
C2054 C2056 1.327 . S
C2054 H2077 0.950 . S
C2055 C2054 1.349 . S
C2055 C2067 1.349 . S
C2056 C2054 1.327 . S
C2056 C2072 1.429 . S
C2056 H2078 0.950 . S
C2057 H2053 0.949 . S
C2057 C2065 1.574 . S
C2057 C2073 1.368 . S
H2058 C2066 0.950 . S
H2059 C2064 0.950 . S
H2060 C2065 0.949 . S
H2061 C2067 0.950 . S
H2062 C2068 0.950 . S
H2063 C2069 0.949 . S
C2064 H2059 0.950 . S
C2064 C2066 1.327 . S
C2064 C2070 1.429 . S
C2065 C2057 1.574 . S
C2065 H2060 0.949 . S
C2065 C2071 1.368 . S
C2066 C2050 1.349 . S
C2066 H2058 0.950 . S
C2066 C2064 1.327 . S
C2067 C2055 1.349 . S
C2067 H2061 0.950 . S
C2067 C2068 1.327 . S
C2068 H2062 0.950 . S
C2068 C2067 1.327 . S
C2068 C2072 1.429 . S
C2069 C2052 1.574 . S
C2069 H2063 0.949 . S
C2069 C2073 1.368 . S
C2070 C2051 1.429 . S
C2070 C2064 1.429 . S
C2070 C2071 1.523 . S
C2071 C2052 1.368 . S
C2071 C2065 1.368 . S
C2071 C2070 1.523 . S
C2072 C2056 1.429 . S
C2072 C2068 1.429 . S
C2072 C2073 1.523 . S
C2073 C2057 1.368 . S
C2073 C2069 1.368 . S
C2073 C2072 1.523 . S
H2074 C2049 0.950 . S
H2075 C2051 0.950 . S
H2076 C2052 0.949 . S
H2077 C2054 0.950 . S
H2078 C2056 0.950 . S
C2079 C2080 1.349 . S
C2079 C2081 1.327 . S
C2079 H2104 0.950 . S
C2080 C2079 1.349 . S
C2080 C2096 1.349 . S
C2081 C2079 1.327 . S
C2081 C2100 1.429 . S
C2081 H2105 0.950 . S
C2082 C2099 1.574 . S
C2082 C2101 1.368 . S
C2082 H2106 0.949 . S
H2083 C2087 0.949 . S
C2084 C2085 1.349 . S
C2084 C2086 1.327 . S
C2084 H2107 0.950 . S
C2085 C2084 1.349 . S
C2085 C2097 1.349 . S
C2086 C2084 1.327 . S
C2086 C2102 1.429 . S
C2086 H2108 0.950 . S
C2087 H2083 0.949 . S
C2087 C2095 1.574 . S
C2087 C2103 1.368 . S
H2088 C2096 0.950 . S
H2089 C2094 0.950 . S
H2090 C2095 0.949 . S
H2091 C2097 0.950 . S
H2092 C2098 0.950 . S
H2093 C2099 0.949 . S
C2094 H2089 0.950 . S
C2094 C2096 1.327 . S
C2094 C2100 1.429 . S
C2095 C2087 1.574 . S
C2095 H2090 0.949 . S
C2095 C2101 1.368 . S
C2096 C2080 1.349 . S
C2096 H2088 0.950 . S
C2096 C2094 1.327 . S
C2097 C2085 1.349 . S
C2097 H2091 0.950 . S
C2097 C2098 1.327 . S
C2098 H2092 0.950 . S
C2098 C2097 1.327 . S
C2098 C2102 1.429 . S
C2099 C2082 1.574 . S
C2099 H2093 0.949 . S
C2099 C2103 1.368 . S
C2100 C2081 1.429 . S
C2100 C2094 1.429 . S
C2100 C2101 1.523 1_565 S
C2101 C2082 1.368 . S
C2101 C2095 1.368 . S
C2101 C2100 1.523 1_545 S
C2102 C2086 1.429 . S
C2102 C2098 1.429 . S
C2102 C2103 1.523 . S
C2103 C2087 1.368 . S
C2103 C2099 1.368 . S
C2103 C2102 1.523 . S
H2104 C2079 0.950 . S
H2105 C2081 0.950 . S
H2106 C2082 0.949 . S
H2107 C2084 0.950 . S
H2108 C2086 0.950 . S
C2109 C2110 1.349 . S
C2109 C2111 1.327 . S
C2109 H2134 0.950 . S
C2110 C2109 1.349 . S
C2110 C2126 1.349 . S
C2111 C2109 1.327 . S
C2111 C2130 1.429 . S
C2111 H2135 0.950 . S
C2112 C2129 1.574 . S
C2112 C2131 1.368 . S
C2112 H2136 0.949 . S
H2113 C2117 0.949 . S
C2114 C2115 1.349 . S
C2114 C2116 1.327 . S
C2114 H2137 0.950 . S
C2115 C2114 1.349 . S
C2115 C2127 1.349 . S
C2116 C2114 1.327 . S
C2116 C2132 1.429 . S
C2116 H2138 0.950 . S
C2117 H2113 0.949 . S
C2117 C2125 1.574 . S
C2117 C2133 1.368 . S
H2118 C2126 0.950 . S
H2119 C2124 0.950 . S
H2120 C2125 0.949 . S
H2121 C2127 0.950 . S
H2122 C2128 0.950 . S
H2123 C2129 0.949 . S
C2124 H2119 0.950 . S
C2124 C2126 1.327 . S
C2124 C2130 1.429 . S
C2125 C2117 1.574 . S
C2125 H2120 0.949 . S
C2125 C2131 1.368 . S
C2126 C2110 1.349 . S
C2126 H2118 0.950 . S
C2126 C2124 1.327 . S
C2127 C2115 1.349 . S
C2127 H2121 0.950 . S
C2127 C2128 1.327 . S
C2128 H2122 0.950 . S
C2128 C2127 1.327 . S
C2128 C2132 1.429 . S
C2129 C2112 1.574 . S
C2129 H2123 0.949 . S
C2129 C2133 1.368 . S
C2130 C2111 1.429 . S
C2130 C2124 1.429 . S
C2130 C2131 1.523 1_455 S
C2131 C2112 1.368 . S
C2131 C2125 1.368 . S
C2131 C2130 1.523 1_655 S
C2132 C2116 1.429 . S
C2132 C2128 1.429 . S
C2132 C2133 1.523 . S
C2133 C2117 1.368 . S
C2133 C2129 1.368 . S
C2133 C2132 1.523 . S
H2134 C2109 0.950 . S
H2135 C2111 0.950 . S
H2136 C2112 0.949 . S
H2137 C2114 0.950 . S
H2138 C2116 0.950 . S
C2139 C2140 1.349 . S
C2139 C2141 1.327 . S
C2139 H2164 0.950 . S
C2140 C2139 1.349 . S
C2140 C2156 1.349 . S
C2141 C2139 1.327 . S
C2141 C2160 1.429 . S
C2141 H2165 0.950 . S
C2142 C2159 1.574 . S
C2142 C2161 1.368 . S
C2142 H2166 0.949 . S
H2143 C2147 0.949 . S
C2144 C2145 1.349 . S
C2144 C2146 1.327 . S
C2144 H2167 0.950 . S
C2145 C2144 1.349 . S
C2145 C2157 1.349 . S
C2146 C2144 1.327 . S
C2146 C2162 1.429 . S
C2146 H2168 0.950 . S
C2147 H2143 0.949 . S
C2147 C2155 1.574 . S
C2147 C2163 1.368 . S
H2148 C2156 0.950 . S
H2149 C2154 0.950 . S
H2150 C2155 0.949 . S
H2151 C2157 0.950 . S
H2152 C2158 0.950 . S
H2153 C2159 0.949 . S
C2154 H2149 0.950 . S
C2154 C2156 1.327 . S
C2154 C2160 1.429 . S
C2155 C2147 1.574 . S
C2155 H2150 0.949 . S
C2155 C2161 1.368 . S
C2156 C2140 1.349 . S
C2156 H2148 0.950 . S
C2156 C2154 1.327 . S
C2157 C2145 1.349 . S
C2157 H2151 0.950 . S
C2157 C2158 1.327 . S
C2158 H2152 0.950 . S
C2158 C2157 1.327 . S
C2158 C2162 1.429 . S
C2159 C2142 1.574 . S
C2159 H2153 0.949 . S
C2159 C2163 1.368 . S
C2160 C2141 1.429 . S
C2160 C2154 1.429 . S
C2160 C2161 1.523 . S
C2161 C2142 1.368 . S
C2161 C2155 1.368 . S
C2161 C2160 1.523 . S
C2162 C2146 1.429 . S
C2162 C2158 1.429 . S
C2162 C2163 1.523 . S
C2163 C2147 1.368 . S
C2163 C2159 1.368 . S
C2163 C2162 1.523 . S
H2164 C2139 0.950 . S
H2165 C2141 0.950 . S
H2166 C2142 0.949 . S
H2167 C2144 0.950 . S
H2168 C2146 0.950 . S
C2169 C2170 1.349 . S
C2169 C2171 1.327 . S
C2169 H2194 0.950 . S
C2170 C2169 1.349 . S
C2170 C2186 1.349 . S
C2171 C2169 1.327 . S
C2171 C2190 1.429 . S
C2171 H2195 0.950 . S
C2172 C2189 1.574 . S
C2172 C2191 1.368 . S
C2172 H2196 0.949 . S
H2173 C2177 0.949 . S
C2174 C2175 1.349 . S
C2174 C2176 1.327 . S
C2174 H2197 0.950 . S
C2175 C2174 1.349 . S
C2175 C2187 1.349 . S
C2176 C2174 1.327 . S
C2176 C2192 1.429 . S
C2176 H2198 0.950 . S
C2177 H2173 0.949 . S
C2177 C2185 1.574 . S
C2177 C2193 1.368 . S
H2178 C2186 0.950 . S
H2179 C2184 0.950 . S
H2180 C2185 0.949 . S
H2181 C2187 0.950 . S
H2182 C2188 0.950 . S
H2183 C2189 0.949 . S
C2184 H2179 0.950 . S
C2184 C2186 1.327 . S
C2184 C2190 1.429 . S
C2185 C2177 1.574 . S
C2185 H2180 0.949 . S
C2185 C2191 1.368 . S
C2186 C2170 1.349 . S
C2186 H2178 0.950 . S
C2186 C2184 1.327 . S
C2187 C2175 1.349 . S
C2187 H2181 0.950 . S
C2187 C2188 1.327 . S
C2188 H2182 0.950 . S
C2188 C2187 1.327 . S
C2188 C2192 1.429 . S
C2189 C2172 1.574 . S
C2189 H2183 0.949 . S
C2189 C2193 1.368 . S
C2190 C2171 1.429 . S
C2190 C2184 1.429 . S
C2190 C2191 1.523 1_455 S
C2191 C2172 1.368 . S
C2191 C2185 1.368 . S
C2191 C2190 1.523 1_655 S
C2192 C2176 1.429 . S
C2192 C2188 1.429 . S
C2192 C2193 1.523 . S
C2193 C2177 1.368 . S
C2193 C2189 1.368 . S
C2193 C2192 1.523 . S
H2194 C2169 0.950 . S
H2195 C2171 0.950 . S
H2196 C2172 0.949 . S
H2197 C2174 0.950 . S
H2198 C2176 0.950 . S
C2199 C2200 1.349 . S
C2199 C2201 1.327 . S
C2199 H2224 0.950 . S
C2200 C2199 1.349 . S
C2200 C2216 1.349 . S
C2201 C2199 1.327 . S
C2201 C2220 1.429 . S
C2201 H2225 0.950 . S
C2202 C2219 1.574 . S
C2202 C2221 1.368 . S
C2202 H2226 0.949 . S
H2203 C2207 0.949 . S
C2204 C2205 1.349 . S
C2204 C2206 1.327 . S
C2204 H2227 0.950 . S
C2205 C2204 1.349 . S
C2205 C2217 1.349 . S
C2206 C2204 1.327 . S
C2206 C2222 1.429 . S
C2206 H2228 0.950 . S
C2207 H2203 0.949 . S
C2207 C2215 1.574 . S
C2207 C2223 1.368 . S
H2208 C2216 0.950 . S
H2209 C2214 0.950 . S
H2210 C2215 0.949 . S
H2211 C2217 0.950 . S
H2212 C2218 0.950 . S
H2213 C2219 0.949 . S
C2214 H2209 0.950 . S
C2214 C2216 1.327 . S
C2214 C2220 1.429 . S
C2215 C2207 1.574 . S
C2215 H2210 0.949 . S
C2215 C2221 1.368 . S
C2216 C2200 1.349 . S
C2216 H2208 0.950 . S
C2216 C2214 1.327 . S
C2217 C2205 1.349 . S
C2217 H2211 0.950 . S
C2217 C2218 1.327 . S
C2218 H2212 0.950 . S
C2218 C2217 1.327 . S
C2218 C2222 1.429 . S
C2219 C2202 1.574 . S
C2219 H2213 0.949 . S
C2219 C2223 1.368 . S
C2220 C2201 1.429 . S
C2220 C2214 1.429 . S
C2220 C2221 1.523 . S
C2221 C2202 1.368 . S
C2221 C2215 1.368 . S
C2221 C2220 1.523 . S
C2222 C2206 1.429 . S
C2222 C2218 1.429 . S
C2222 C2223 1.523 . S
C2223 C2207 1.368 . S
C2223 C2219 1.368 . S
C2223 C2222 1.523 . S
H2224 C2199 0.950 . S
H2225 C2201 0.950 . S
H2226 C2202 0.949 . S
H2227 C2204 0.950 . S
H2228 C2206 0.950 . S
C2229 C2230 1.349 . S
C2229 C2231 1.327 . S
C2229 H2254 0.950 . S
C2230 C2229 1.349 . S
C2230 C2246 1.349 . S
C2231 C2229 1.327 . S
C2231 C2250 1.429 . S
C2231 H2255 0.950 . S
C2232 C2249 1.574 . S
C2232 C2251 1.368 . S
C2232 H2256 0.949 . S
H2233 C2237 0.949 . S
C2234 C2235 1.349 . S
C2234 C2236 1.327 . S
C2234 H2257 0.950 . S
C2235 C2234 1.349 . S
C2235 C2247 1.349 . S
C2236 C2234 1.327 . S
C2236 C2252 1.429 . S
C2236 H2258 0.950 . S
C2237 H2233 0.949 . S
C2237 C2245 1.574 . S
C2237 C2253 1.368 . S
H2238 C2246 0.950 . S
H2239 C2244 0.950 . S
H2240 C2245 0.949 . S
H2241 C2247 0.950 . S
H2242 C2248 0.950 . S
H2243 C2249 0.949 . S
C2244 H2239 0.950 . S
C2244 C2246 1.327 . S
C2244 C2250 1.429 . S
C2245 C2237 1.574 . S
C2245 H2240 0.949 . S
C2245 C2251 1.368 . S
C2246 C2230 1.349 . S
C2246 H2238 0.950 . S
C2246 C2244 1.327 . S
C2247 C2235 1.349 . S
C2247 H2241 0.950 . S
C2247 C2248 1.327 . S
C2248 H2242 0.950 . S
C2248 C2247 1.327 . S
C2248 C2252 1.429 . S
C2249 C2232 1.574 . S
C2249 H2243 0.949 . S
C2249 C2253 1.368 . S
C2250 C2231 1.429 . S
C2250 C2244 1.429 . S
C2250 C2251 1.523 1_565 S
C2251 C2232 1.368 . S
C2251 C2245 1.368 . S
C2251 C2250 1.523 1_545 S
C2252 C2236 1.429 . S
C2252 C2248 1.429 . S
C2252 C2253 1.523 . S
C2253 C2237 1.368 . S
C2253 C2249 1.368 . S
C2253 C2252 1.523 . S
H2254 C2229 0.950 . S
H2255 C2231 0.950 . S
H2256 C2232 0.949 . S
H2257 C2234 0.950 . S
H2258 C2236 0.950 . S
C2259 C2260 1.349 . S
C2259 C2261 1.327 . S
C2259 H2284 0.950 . S
C2260 C2259 1.349 . S
C2260 C2276 1.349 . S
C2261 C2259 1.327 . S
C2261 C2280 1.429 . S
C2261 H2285 0.950 . S
C2262 C2279 1.574 . S
C2262 C2281 1.368 . S
C2262 H2286 0.949 . S
H2263 C2267 0.949 . S
C2264 C2265 1.349 . S
C2264 C2266 1.327 . S
C2264 H2287 0.950 . S
C2265 C2264 1.349 . S
C2265 C2277 1.349 . S
C2266 C2264 1.327 . S
C2266 C2282 1.429 . S
C2266 H2288 0.950 . S
C2267 H2263 0.949 . S
C2267 C2275 1.574 . S
C2267 C2283 1.368 . S
H2268 C2276 0.950 . S
H2269 C2274 0.950 . S
H2270 C2275 0.949 . S
H2271 C2277 0.950 . S
H2272 C2278 0.950 . S
H2273 C2279 0.949 . S
C2274 H2269 0.950 . S
C2274 C2276 1.327 . S
C2274 C2280 1.429 . S
C2275 C2267 1.574 . S
C2275 H2270 0.949 . S
C2275 C2281 1.368 . S
C2276 C2260 1.349 . S
C2276 H2268 0.950 . S
C2276 C2274 1.327 . S
C2277 C2265 1.349 . S
C2277 H2271 0.950 . S
C2277 C2278 1.327 . S
C2278 H2272 0.950 . S
C2278 C2277 1.327 . S
C2278 C2282 1.429 . S
C2279 C2262 1.574 . S
C2279 H2273 0.949 . S
C2279 C2283 1.368 . S
C2280 C2261 1.429 . S
C2280 C2274 1.429 . S
C2280 C2281 1.523 . S
C2281 C2262 1.368 . S
C2281 C2275 1.368 . S
C2281 C2280 1.523 . S
C2282 C2266 1.429 . S
C2282 C2278 1.429 . S
C2282 C2283 1.523 . S
C2283 C2267 1.368 . S
C2283 C2279 1.368 . S
C2283 C2282 1.523 . S
H2284 C2259 0.950 . S
H2285 C2261 0.950 . S
H2286 C2262 0.949 . S
H2287 C2264 0.950 . S
H2288 C2266 0.950 . S
C2289 C2290 1.349 . S
C2289 C2291 1.327 . S
C2289 H2314 0.950 . S
C2290 C2289 1.349 . S
C2290 C2306 1.349 . S
C2291 C2289 1.327 . S
C2291 C2310 1.429 . S
C2291 H2315 0.950 . S
C2292 C2309 1.574 . S
C2292 C2311 1.368 . S
C2292 H2316 0.949 . S
H2293 C2297 0.949 . S
C2294 C2295 1.349 . S
C2294 C2296 1.327 . S
C2294 H2317 0.950 . S
C2295 C2294 1.349 . S
C2295 C2307 1.349 . S
C2296 C2294 1.327 . S
C2296 C2312 1.429 . S
C2296 H2318 0.950 . S
C2297 H2293 0.949 . S
C2297 C2305 1.574 . S
C2297 C2313 1.368 . S
H2298 C2306 0.950 . S
H2299 C2304 0.950 . S
H2300 C2305 0.949 . S
H2301 C2307 0.950 . S
H2302 C2308 0.950 . S
H2303 C2309 0.949 . S
C2304 H2299 0.950 . S
C2304 C2306 1.327 . S
C2304 C2310 1.429 . S
C2305 C2297 1.574 . S
C2305 H2300 0.949 . S
C2305 C2311 1.368 . S
C2306 C2290 1.349 . S
C2306 H2298 0.950 . S
C2306 C2304 1.327 . S
C2307 C2295 1.349 . S
C2307 H2301 0.950 . S
C2307 C2308 1.327 . S
C2308 H2302 0.950 . S
C2308 C2307 1.327 . S
C2308 C2312 1.429 . S
C2309 C2292 1.574 . S
C2309 H2303 0.949 . S
C2309 C2313 1.368 . S
C2310 C2291 1.429 . S
C2310 C2304 1.429 . S
C2310 C2311 1.523 . S
C2311 C2292 1.368 . S
C2311 C2305 1.368 . S
C2311 C2310 1.523 . S
C2312 C2296 1.429 . S
C2312 C2308 1.429 . S
C2312 C2313 1.523 . S
C2313 C2297 1.368 . S
C2313 C2309 1.368 . S
C2313 C2312 1.523 . S
H2314 C2289 0.950 . S
H2315 C2291 0.950 . S
H2316 C2292 0.949 . S
H2317 C2294 0.950 . S
H2318 C2296 0.950 . S
C2319 C2320 1.349 . S
C2319 C2321 1.327 . S
C2319 H2344 0.950 . S
C2320 C2319 1.349 . S
C2320 C2336 1.349 . S
C2321 C2319 1.327 . S
C2321 C2340 1.429 . S
C2321 H2345 0.950 . S
C2322 C2339 1.574 . S
C2322 C2341 1.368 . S
C2322 H2346 0.949 . S
H2323 C2327 0.949 . S
C2324 C2325 1.349 . S
C2324 C2326 1.327 . S
C2324 H2347 0.950 . S
C2325 C2324 1.349 . S
C2325 C2337 1.349 . S
C2326 C2324 1.327 . S
C2326 C2342 1.429 . S
C2326 H2348 0.950 . S
C2327 H2323 0.949 . S
C2327 C2335 1.574 . S
C2327 C2343 1.368 . S
H2328 C2336 0.950 . S
H2329 C2334 0.950 . S
H2330 C2335 0.949 . S
H2331 C2337 0.950 . S
H2332 C2338 0.950 . S
H2333 C2339 0.949 . S
C2334 H2329 0.950 . S
C2334 C2336 1.327 . S
C2334 C2340 1.429 . S
C2335 C2327 1.574 . S
C2335 H2330 0.949 . S
C2335 C2341 1.368 . S
C2336 C2320 1.349 . S
C2336 H2328 0.950 . S
C2336 C2334 1.327 . S
C2337 C2325 1.349 . S
C2337 H2331 0.950 . S
C2337 C2338 1.327 . S
C2338 H2332 0.950 . S
C2338 C2337 1.327 . S
C2338 C2342 1.429 . S
C2339 C2322 1.574 . S
C2339 H2333 0.949 . S
C2339 C2343 1.368 . S
C2340 C2321 1.429 . S
C2340 C2334 1.429 . S
C2340 C2341 1.523 . S
C2341 C2322 1.368 . S
C2341 C2335 1.368 . S
C2341 C2340 1.523 . S
C2342 C2326 1.429 . S
C2342 C2338 1.429 . S
C2342 C2343 1.523 . S
C2343 C2327 1.368 . S
C2343 C2339 1.368 . S
C2343 C2342 1.523 . S
H2344 C2319 0.950 . S
H2345 C2321 0.950 . S
H2346 C2322 0.949 . S
H2347 C2324 0.950 . S
H2348 C2326 0.950 . S
C2349 C2350 1.349 . S
C2349 C2351 1.327 . S
C2349 H2374 0.950 . S
C2350 C2349 1.349 . S
C2350 C2366 1.349 . S
C2351 C2349 1.327 . S
C2351 C2370 1.429 . S
C2351 H2375 0.950 1_565 S
C2352 C2369 1.574 . S
C2352 C2371 1.368 . S
C2352 H2376 0.949 . S
H2353 C2357 0.949 . S
C2354 C2355 1.358 . S
C2354 C2356 1.327 . S
C2354 H2377 0.950 . S
C2355 C2354 1.358 . S
C2355 C2367 1.342 1_565 S
C2356 C2354 1.327 . S
C2356 C2372 1.429 . S
C2356 H2378 0.950 . S
C2357 H2353 0.949 . S
C2357 C2365 1.574 1_545 S
C2357 C2373 1.368 1_545 S
H2358 C2366 0.950 . S
H2359 C2364 0.950 . S
H2360 C2365 0.949 1_545 S
H2361 C2367 0.950 . S
H2362 C2368 0.950 . S
H2363 C2369 0.949 . S
C2364 H2359 0.950 . S
C2364 C2366 1.327 . S
C2364 C2370 1.429 . S
C2365 C2357 1.574 1_565 S
C2365 H2360 0.949 1_565 S
C2365 C2371 1.368 . S
C2366 C2350 1.349 . S
C2366 H2358 0.950 . S
C2366 C2364 1.327 . S
C2367 C2355 1.342 1_545 S
C2367 H2361 0.950 . S
C2367 C2368 1.327 . S
C2368 H2362 0.950 . S
C2368 C2367 1.327 . S
C2368 C2372 1.429 1_545 S
C2369 C2352 1.574 . S
C2369 H2363 0.949 . S
C2369 C2373 1.368 . S
C2370 C2351 1.429 . S
C2370 C2364 1.429 . S
C2370 C2371 1.523 . S
C2371 C2352 1.368 . S
C2371 C2365 1.368 . S
C2371 C2370 1.523 . S
C2372 C2356 1.429 . S
C2372 C2368 1.429 1_565 S
C2372 C2373 1.523 . S
C2373 C2357 1.368 1_565 S
C2373 C2369 1.368 . S
C2373 C2372 1.523 . S
H2374 C2349 0.950 . S
H2375 C2351 0.950 1_545 S
H2376 C2352 0.949 . S
H2377 C2354 0.950 . S
H2378 C2356 0.950 . S
C2379 C2380 1.349 . S
C2379 C2381 1.327 . S
C2379 H2404 0.950 . S
C2380 C2379 1.349 . S
C2380 C2396 1.349 . S
C2381 C2379 1.327 . S
C2381 C2400 1.429 . S
C2381 H2405 0.950 . S
C2382 C2399 1.582 . S
C2382 C2401 1.368 . S
C2382 H2406 0.949 1_455 S
H2383 C2387 0.949 . S
C2384 C2385 1.349 1_655 S
C2384 C2386 1.327 . S
C2384 H2407 0.950 . S
C2385 C2384 1.349 1_455 S
C2385 C2397 1.349 . S
C2386 C2384 1.327 . S
C2386 C2402 1.429 1_655 S
C2386 H2408 0.950 . S
C2387 H2383 0.949 . S
C2387 C2395 1.574 . S
C2387 C2403 1.368 . S
H2388 C2396 0.950 . S
H2389 C2394 0.950 . S
H2390 C2395 0.949 . S
H2391 C2397 0.950 . S
H2392 C2398 0.950 . S
H2393 C2399 0.923 1_655 S
C2394 H2389 0.950 . S
C2394 C2396 1.327 . S
C2394 C2400 1.429 . S
C2395 C2387 1.574 . S
C2395 H2390 0.949 . S
C2395 C2401 1.368 . S
C2396 C2380 1.349 . S
C2396 H2388 0.950 . S
C2396 C2394 1.327 . S
C2397 C2385 1.349 . S
C2397 H2391 0.950 . S
C2397 C2398 1.327 . S
C2398 H2392 0.950 . S
C2398 C2397 1.327 . S
C2398 C2402 1.429 . S
C2399 C2382 1.582 . S
C2399 H2393 0.923 1_455 S
C2399 C2403 1.392 . S
C2400 C2381 1.429 . S
C2400 C2394 1.429 . S
C2400 C2401 1.523 . S
C2401 C2382 1.368 . S
C2401 C2395 1.368 . S
C2401 C2400 1.523 . S
C2402 C2386 1.429 1_455 S
C2402 C2398 1.429 . S
C2402 C2403 1.523 . S
C2403 C2387 1.368 . S
C2403 C2399 1.392 . S
C2403 C2402 1.523 . S
H2404 C2379 0.950 . S
H2405 C2381 0.950 . S
H2406 C2382 0.949 1_655 S
H2407 C2384 0.950 . S
H2408 C2386 0.950 . S
C2409 C2410 1.349 . S
C2409 C2411 1.327 . S
C2409 H2434 0.950 . S
C2410 C2409 1.349 . S
C2410 C2426 1.349 . S
C2411 C2409 1.327 . S
C2411 C2430 1.429 . S
C2411 H2435 0.950 . S
C2412 C2429 1.574 . S
C2412 C2431 1.368 . S
C2412 H2436 0.949 . S
H2413 C2417 0.949 . S
C2414 C2415 1.349 . S
C2414 C2416 1.327 . S
C2414 H2437 0.950 . S
C2415 C2414 1.349 . S
C2415 C2427 1.349 . S
C2416 C2414 1.327 . S
C2416 C2432 1.429 . S
C2416 H2438 0.950 . S
C2417 H2413 0.949 . S
C2417 C2425 1.574 . S
C2417 C2433 1.368 . S
H2418 C2426 0.950 . S
H2419 C2424 0.950 . S
H2420 C2425 0.949 . S
H2421 C2427 0.950 . S
H2422 C2428 0.950 . S
H2423 C2429 0.949 . S
C2424 H2419 0.950 . S
C2424 C2426 1.327 . S
C2424 C2430 1.429 . S
C2425 C2417 1.574 . S
C2425 H2420 0.949 . S
C2425 C2431 1.368 . S
C2426 C2410 1.349 . S
C2426 H2418 0.950 . S
C2426 C2424 1.327 . S
C2427 C2415 1.349 . S
C2427 H2421 0.950 . S
C2427 C2428 1.327 . S
C2428 H2422 0.950 . S
C2428 C2427 1.327 . S
C2428 C2432 1.429 . S
C2429 C2412 1.574 . S
C2429 H2423 0.949 . S
C2429 C2433 1.368 . S
C2430 C2411 1.429 . S
C2430 C2424 1.429 . S
C2430 C2431 1.523 . S
C2431 C2412 1.368 . S
C2431 C2425 1.368 . S
C2431 C2430 1.523 . S
C2432 C2416 1.429 . S
C2432 C2428 1.429 . S
C2432 C2433 1.523 . S
C2433 C2417 1.368 . S
C2433 C2429 1.368 . S
C2433 C2432 1.523 . S
H2434 C2409 0.950 . S
H2435 C2411 0.950 . S
H2436 C2412 0.949 . S
H2437 C2414 0.950 . S
H2438 C2416 0.950 . S
C2439 C2440 1.349 . S
C2439 C2441 1.327 . S
C2439 H2464 0.950 . S
C2440 C2439 1.349 . S
C2440 C2456 1.349 . S
C2441 C2439 1.327 . S
C2441 C2460 1.429 . S
C2441 H2465 0.955 . S
C2442 C2459 1.574 . S
C2442 C2461 1.368 . S
C2442 H2466 0.949 . S
H2443 C2447 0.950 . S
C2444 C2445 1.349 . S
C2444 C2446 1.327 . S
C2444 H2467 0.950 . S
C2445 C2444 1.349 . S
C2445 C2457 1.349 1_655 S
C2446 C2444 1.327 . S
C2446 C2462 1.429 . S
C2446 H2468 0.950 . S
C2447 H2443 0.950 . S
C2447 C2455 1.574 1_455 S
C2447 C2463 1.368 1_455 S
H2448 C2456 0.950 . S
H2449 C2454 0.950 . S
H2450 C2455 0.949 1_455 S
H2451 C2457 0.950 . S
H2452 C2458 0.950 . S
H2453 C2459 0.949 . S
C2454 H2449 0.950 . S
C2454 C2456 1.327 . S
C2454 C2460 1.429 . S
C2455 C2447 1.574 1_655 S
C2455 H2450 0.949 1_655 S
C2455 C2461 1.368 . S
C2456 C2440 1.349 . S
C2456 H2448 0.950 . S
C2456 C2454 1.327 . S
C2457 C2445 1.349 1_455 S
C2457 H2451 0.950 . S
C2457 C2458 1.327 . S
C2458 H2452 0.950 . S
C2458 C2457 1.327 . S
C2458 C2462 1.429 1_455 S
C2459 C2442 1.574 . S
C2459 H2453 0.949 . S
C2459 C2463 1.368 . S
C2460 C2441 1.429 . S
C2460 C2454 1.429 . S
C2460 C2461 1.523 . S
C2461 C2442 1.368 . S
C2461 C2455 1.368 . S
C2461 C2460 1.523 . S
C2462 C2446 1.429 . S
C2462 C2458 1.429 1_655 S
C2462 C2463 1.523 . S
C2463 C2447 1.368 1_655 S
C2463 C2459 1.368 . S
C2463 C2462 1.523 . S
H2464 C2439 0.950 . S
H2465 C2441 0.955 . S
H2466 C2442 0.949 . S
H2467 C2444 0.950 . S
H2468 C2446 0.950 . S
C2469 C2470 1.349 . S
C2469 C2471 1.327 . S
C2469 H2494 0.950 . S
C2470 C2469 1.349 . S
C2470 C2486 1.349 . S
C2471 C2469 1.327 . S
C2471 C2490 1.429 . S
C2471 H2495 0.950 . S
C2472 C2489 1.574 . S
C2472 C2491 1.368 . S
C2472 H2496 0.949 . S
H2473 C2477 0.949 . S
C2474 C2475 1.349 . S
C2474 C2476 1.327 . S
C2474 H2497 0.950 . S
C2475 C2474 1.349 . S
C2475 C2487 1.349 . S
C2476 C2474 1.327 . S
C2476 C2492 1.429 . S
C2476 H2498 0.950 . S
C2477 H2473 0.949 . S
C2477 C2485 1.574 . S
C2477 C2493 1.368 . S
H2478 C2486 0.950 . S
H2479 C2484 0.950 . S
H2480 C2485 0.949 . S
H2481 C2487 0.950 . S
H2482 C2488 0.950 . S
H2483 C2489 0.949 . S
C2484 H2479 0.950 . S
C2484 C2486 1.327 . S
C2484 C2490 1.429 . S
C2485 C2477 1.574 . S
C2485 H2480 0.949 . S
C2485 C2491 1.368 . S
C2486 C2470 1.349 . S
C2486 H2478 0.950 . S
C2486 C2484 1.327 . S
C2487 C2475 1.349 . S
C2487 H2481 0.950 . S
C2487 C2488 1.327 . S
C2488 H2482 0.950 . S
C2488 C2487 1.327 . S
C2488 C2492 1.429 . S
C2489 C2472 1.574 . S
C2489 H2483 0.949 . S
C2489 C2493 1.368 . S
C2490 C2471 1.429 . S
C2490 C2484 1.429 . S
C2490 C2491 1.523 . S
C2491 C2472 1.368 . S
C2491 C2485 1.368 . S
C2491 C2490 1.523 . S
C2492 C2476 1.429 . S
C2492 C2488 1.429 . S
C2492 C2493 1.523 . S
C2493 C2477 1.368 . S
C2493 C2489 1.368 . S
C2493 C2492 1.523 . S
H2494 C2469 0.950 . S
H2495 C2471 0.950 . S
H2496 C2472 0.949 . S
H2497 C2474 0.950 . S
H2498 C2476 0.950 . S
C2499 C2500 1.349 . S
C2499 C2501 1.327 . S
C2499 H2524 0.950 . S
C2500 C2499 1.349 . S
C2500 C2516 1.349 . S
C2501 C2499 1.327 . S
C2501 C2520 1.429 . S
C2501 H2525 0.950 . S
C2502 C2519 1.574 . S
C2502 C2521 1.368 . S
C2502 H2526 0.949 . S
H2503 C2507 0.949 . S
C2504 C2505 1.349 1_565 S
C2504 C2506 1.334 . S
C2504 H2527 0.950 . S
C2505 C2504 1.349 1_545 S
C2505 C2517 1.349 . S
C2506 C2504 1.334 . S
C2506 C2522 1.390 1_565 S
C2506 H2528 0.983 . S
C2507 H2503 0.949 . S
C2507 C2515 1.574 . S
C2507 C2523 1.368 . S
H2508 C2516 0.950 . S
H2509 C2514 0.950 . S
H2510 C2515 0.949 . S
H2511 C2517 0.950 . S
H2512 C2518 0.950 . S
H2513 C2519 0.949 1_565 S
C2514 H2509 0.950 . S
C2514 C2516 1.327 . S
C2514 C2520 1.429 . S
C2515 C2507 1.574 . S
C2515 H2510 0.949 . S
C2515 C2521 1.368 . S
C2516 C2500 1.349 . S
C2516 H2508 0.950 . S
C2516 C2514 1.327 . S
C2517 C2505 1.349 . S
C2517 H2511 0.950 . S
C2517 C2518 1.327 . S
C2518 H2512 0.950 . S
C2518 C2517 1.327 . S
C2518 C2522 1.429 . S
C2519 C2502 1.574 . S
C2519 H2513 0.949 1_545 S
C2519 C2523 1.368 . S
C2520 C2501 1.429 . S
C2520 C2514 1.429 . S
C2520 C2521 1.523 . S
C2521 C2502 1.368 . S
C2521 C2515 1.368 . S
C2521 C2520 1.523 . S
C2522 C2506 1.390 1_545 S
C2522 C2518 1.429 . S
C2522 C2523 1.523 . S
C2523 C2507 1.368 . S
C2523 C2519 1.368 . S
C2523 C2522 1.523 . S
H2524 C2499 0.950 . S
H2525 C2501 0.950 . S
H2526 C2502 0.949 . S
H2527 C2504 0.950 . S
H2528 C2506 0.983 . S
C2529 C2530 1.349 . S
C2529 C2531 1.327 . S
C2529 H2554 0.950 . S
C2530 C2529 1.349 . S
C2530 C2546 1.349 . S
C2531 C2529 1.327 . S
C2531 C2550 1.429 . S
C2531 H2555 0.950 . S
C2532 C2549 1.574 . S
C2532 C2551 1.368 . S
C2532 H2556 0.949 . S
H2533 C2537 0.949 . S
C2534 C2535 1.349 . S
C2534 C2536 1.327 . S
C2534 H2557 0.950 . S
C2535 C2534 1.349 . S
C2535 C2547 1.349 . S
C2536 C2534 1.327 . S
C2536 C2552 1.429 . S
C2536 H2558 0.950 . S
C2537 H2533 0.949 . S
C2537 C2545 1.574 . S
C2537 C2553 1.368 . S
H2538 C2546 0.950 . S
H2539 C2544 0.950 . S
H2540 C2545 0.949 . S
H2541 C2547 0.950 . S
H2542 C2548 0.950 . S
H2543 C2549 0.949 . S
C2544 H2539 0.950 . S
C2544 C2546 1.327 . S
C2544 C2550 1.429 . S
C2545 C2537 1.574 . S
C2545 H2540 0.949 . S
C2545 C2551 1.368 . S
C2546 C2530 1.349 . S
C2546 H2538 0.950 . S
C2546 C2544 1.327 . S
C2547 C2535 1.349 . S
C2547 H2541 0.950 . S
C2547 C2548 1.327 . S
C2548 H2542 0.950 . S
C2548 C2547 1.327 . S
C2548 C2552 1.429 . S
C2549 C2532 1.574 . S
C2549 H2543 0.949 . S
C2549 C2553 1.368 . S
C2550 C2531 1.429 . S
C2550 C2544 1.429 . S
C2550 C2551 1.523 . S
C2551 C2532 1.368 . S
C2551 C2545 1.368 . S
C2551 C2550 1.523 . S
C2552 C2536 1.429 . S
C2552 C2548 1.429 . S
C2552 C2553 1.523 . S
C2553 C2537 1.368 . S
C2553 C2549 1.368 . S
C2553 C2552 1.523 . S
H2554 C2529 0.950 . S
H2555 C2531 0.950 . S
H2556 C2532 0.949 . S
H2557 C2534 0.950 . S
H2558 C2536 0.950 . S
C2559 C2560 1.349 . S
C2559 C2561 1.327 . S
C2559 H2584 0.950 . S
C2560 C2559 1.349 . S
C2560 C2576 1.349 . S
C2561 C2559 1.327 . S
C2561 C2580 1.429 . S
C2561 H2585 0.950 . S
C2562 C2579 1.574 . S
C2562 C2581 1.368 . S
C2562 H2586 0.949 . S
H2563 C2567 0.949 . S
C2564 C2565 1.349 . S
C2564 C2566 1.327 . S
C2564 H2587 0.950 . S
C2565 C2564 1.349 . S
C2565 C2577 1.349 . S
C2566 C2564 1.327 . S
C2566 C2582 1.429 . S
C2566 H2588 0.950 . S
C2567 H2563 0.949 . S
C2567 C2575 1.574 . S
C2567 C2583 1.368 . S
H2568 C2576 0.950 . S
H2569 C2574 0.950 . S
H2570 C2575 0.949 . S
H2571 C2577 0.950 . S
H2572 C2578 0.950 . S
H2573 C2579 0.949 . S
C2574 H2569 0.950 . S
C2574 C2576 1.327 . S
C2574 C2580 1.429 . S
C2575 C2567 1.574 . S
C2575 H2570 0.949 . S
C2575 C2581 1.368 . S
C2576 C2560 1.349 . S
C2576 H2568 0.950 . S
C2576 C2574 1.327 . S
C2577 C2565 1.349 . S
C2577 H2571 0.950 . S
C2577 C2578 1.327 . S
C2578 H2572 0.950 . S
C2578 C2577 1.327 . S
C2578 C2582 1.429 . S
C2579 C2562 1.574 . S
C2579 H2573 0.949 . S
C2579 C2583 1.368 . S
C2580 C2561 1.429 . S
C2580 C2574 1.429 . S
C2580 C2581 1.523 . S
C2581 C2562 1.368 . S
C2581 C2575 1.368 . S
C2581 C2580 1.523 . S
C2582 C2566 1.429 . S
C2582 C2578 1.429 . S
C2582 C2583 1.523 . S
C2583 C2567 1.368 . S
C2583 C2579 1.368 . S
C2583 C2582 1.523 . S
H2584 C2559 0.950 . S
H2585 C2561 0.950 . S
H2586 C2562 0.949 . S
H2587 C2564 0.950 . S
H2588 C2566 0.950 . S
C2589 C2590 1.349 . S
C2589 C2591 1.327 . S
C2589 H2614 0.950 . S
C2590 C2589 1.349 . S
C2590 C2606 1.349 . S
C2591 C2589 1.327 . S
C2591 C2610 1.429 . S
C2591 H2615 0.950 . S
C2592 C2609 1.574 . S
C2592 C2611 1.368 . S
C2592 H2616 0.949 . S
H2593 C2597 0.949 . S
C2594 C2595 1.349 . S
C2594 C2596 1.327 . S
C2594 H2617 0.950 . S
C2595 C2594 1.349 . S
C2595 C2607 1.349 . S
C2596 C2594 1.327 . S
C2596 C2612 1.429 . S
C2596 H2618 0.950 . S
C2597 H2593 0.949 . S
C2597 C2605 1.574 . S
C2597 C2613 1.368 . S
H2598 C2606 0.950 . S
H2599 C2604 0.950 . S
H2600 C2605 0.949 . S
H2601 C2607 0.950 . S
H2602 C2608 0.950 . S
H2603 C2609 0.949 . S
C2604 H2599 0.950 . S
C2604 C2606 1.327 . S
C2604 C2610 1.429 . S
C2605 C2597 1.574 . S
C2605 H2600 0.949 . S
C2605 C2611 1.368 . S
C2606 C2590 1.349 . S
C2606 H2598 0.950 . S
C2606 C2604 1.327 . S
C2607 C2595 1.349 . S
C2607 H2601 0.950 . S
C2607 C2608 1.327 . S
C2608 H2602 0.950 . S
C2608 C2607 1.327 . S
C2608 C2612 1.429 . S
C2609 C2592 1.574 . S
C2609 H2603 0.949 . S
C2609 C2613 1.368 . S
C2610 C2591 1.429 . S
C2610 C2604 1.429 . S
C2610 C2611 1.523 . S
C2611 C2592 1.368 . S
C2611 C2605 1.368 . S
C2611 C2610 1.523 . S
C2612 C2596 1.429 . S
C2612 C2608 1.429 . S
C2612 C2613 1.523 . S
C2613 C2597 1.368 . S
C2613 C2609 1.368 . S
C2613 C2612 1.523 . S
H2614 C2589 0.950 . S
H2615 C2591 0.950 . S
H2616 C2592 0.949 . S
H2617 C2594 0.950 . S
H2618 C2596 0.950 . S
C2619 C2620 1.349 . S
C2619 C2621 1.327 . S
C2619 H2644 0.950 . S
C2620 C2619 1.349 . S
C2620 C2636 1.349 . S
C2621 C2619 1.327 . S
C2621 C2640 1.429 . S
C2621 H2645 0.950 . S
C2622 C2639 1.574 . S
C2622 C2641 1.368 . S
C2622 H2646 0.949 . S
H2623 C2627 0.949 . S
C2624 C2625 1.349 . S
C2624 C2626 1.327 . S
C2624 H2647 0.950 . S
C2625 C2624 1.349 . S
C2625 C2637 1.349 . S
C2626 C2624 1.327 . S
C2626 C2642 1.429 . S
C2626 H2648 0.950 . S
C2627 H2623 0.949 . S
C2627 C2635 1.574 . S
C2627 C2643 1.368 . S
H2628 C2636 0.950 . S
H2629 C2634 0.950 . S
H2630 C2635 0.949 . S
H2631 C2637 0.950 . S
H2632 C2638 0.950 . S
H2633 C2639 0.949 . S
C2634 H2629 0.950 . S
C2634 C2636 1.327 . S
C2634 C2640 1.429 . S
C2635 C2627 1.574 . S
C2635 H2630 0.949 . S
C2635 C2641 1.368 . S
C2636 C2620 1.349 . S
C2636 H2628 0.950 . S
C2636 C2634 1.327 . S
C2637 C2625 1.349 . S
C2637 H2631 0.950 . S
C2637 C2638 1.327 . S
C2638 H2632 0.950 . S
C2638 C2637 1.327 . S
C2638 C2642 1.429 . S
C2639 C2622 1.574 . S
C2639 H2633 0.949 . S
C2639 C2643 1.368 . S
C2640 C2621 1.429 . S
C2640 C2634 1.429 . S
C2640 C2641 1.523 . S
C2641 C2622 1.368 . S
C2641 C2635 1.368 . S
C2641 C2640 1.523 . S
C2642 C2626 1.429 . S
C2642 C2638 1.429 . S
C2642 C2643 1.523 . S
C2643 C2627 1.368 . S
C2643 C2639 1.368 . S
C2643 C2642 1.523 . S
H2644 C2619 0.950 . S
H2645 C2621 0.950 . S
H2646 C2622 0.949 . S
H2647 C2624 0.950 . S
H2648 C2626 0.950 . S
C2649 C2650 1.349 . S
C2649 C2651 1.327 . S
C2649 H2674 0.950 . S
C2650 C2649 1.349 . S
C2650 C2666 1.349 . S
C2651 C2649 1.327 . S
C2651 C2670 1.429 . S
C2651 H2675 0.950 . S
C2652 C2669 1.574 . S
C2652 C2671 1.368 . S
C2652 H2676 0.949 . S
H2653 C2657 0.949 . S
C2654 C2655 1.349 . S
C2654 C2656 1.327 . S
C2654 H2677 0.950 . S
C2655 C2654 1.349 . S
C2655 C2667 1.349 . S
C2656 C2654 1.327 . S
C2656 C2672 1.429 . S
C2656 H2678 0.950 . S
C2657 H2653 0.949 . S
C2657 C2665 1.574 . S
C2657 C2673 1.368 . S
H2658 C2666 0.950 . S
H2659 C2664 0.950 . S
H2660 C2665 0.949 . S
H2661 C2667 0.950 . S
H2662 C2668 0.950 . S
H2663 C2669 0.949 . S
C2664 H2659 0.950 . S
C2664 C2666 1.327 . S
C2664 C2670 1.429 . S
C2665 C2657 1.574 . S
C2665 H2660 0.949 . S
C2665 C2671 1.368 . S
C2666 C2650 1.349 . S
C2666 H2658 0.950 . S
C2666 C2664 1.327 . S
C2667 C2655 1.349 . S
C2667 H2661 0.950 . S
C2667 C2668 1.327 . S
C2668 H2662 0.950 . S
C2668 C2667 1.327 . S
C2668 C2672 1.429 . S
C2669 C2652 1.574 . S
C2669 H2663 0.949 . S
C2669 C2673 1.368 . S
C2670 C2651 1.429 . S
C2670 C2664 1.429 . S
C2670 C2671 1.523 . S
C2671 C2652 1.368 . S
C2671 C2665 1.368 . S
C2671 C2670 1.523 . S
C2672 C2656 1.429 . S
C2672 C2668 1.429 . S
C2672 C2673 1.523 . S
C2673 C2657 1.368 . S
C2673 C2669 1.368 . S
C2673 C2672 1.523 . S
H2674 C2649 0.950 . S
H2675 C2651 0.950 . S
H2676 C2652 0.949 . S
H2677 C2654 0.950 . S
H2678 C2656 0.950 . S
C2679 C2680 1.349 . S
C2679 C2681 1.327 . S
C2679 H2704 0.950 . S
C2680 C2679 1.349 . S
C2680 C2696 1.349 . S
C2681 C2679 1.327 . S
C2681 C2700 1.429 . S
C2681 H2705 0.950 . S
C2682 C2699 1.574 . S
C2682 C2701 1.368 . S
C2682 H2706 0.949 . S
H2683 C2687 0.949 . S
C2684 C2685 1.349 . S
C2684 C2686 1.327 . S
C2684 H2707 0.950 . S
C2685 C2684 1.349 . S
C2685 C2697 1.349 . S
C2686 C2684 1.327 . S
C2686 C2702 1.429 . S
C2686 H2708 0.950 . S
C2687 H2683 0.949 . S
C2687 C2695 1.574 . S
C2687 C2703 1.368 . S
H2688 C2696 0.950 . S
H2689 C2694 0.950 . S
H2690 C2695 0.949 . S
H2691 C2697 0.950 . S
H2692 C2698 0.950 . S
H2693 C2699 0.949 . S
C2694 H2689 0.950 . S
C2694 C2696 1.327 . S
C2694 C2700 1.429 . S
C2695 C2687 1.574 . S
C2695 H2690 0.949 . S
C2695 C2701 1.368 . S
C2696 C2680 1.349 . S
C2696 H2688 0.950 . S
C2696 C2694 1.327 . S
C2697 C2685 1.349 . S
C2697 H2691 0.950 . S
C2697 C2698 1.327 . S
C2698 H2692 0.950 . S
C2698 C2697 1.327 . S
C2698 C2702 1.429 . S
C2699 C2682 1.574 . S
C2699 H2693 0.949 . S
C2699 C2703 1.368 . S
C2700 C2681 1.429 . S
C2700 C2694 1.429 . S
C2700 C2701 1.523 . S
C2701 C2682 1.368 . S
C2701 C2695 1.368 . S
C2701 C2700 1.523 . S
C2702 C2686 1.429 . S
C2702 C2698 1.429 . S
C2702 C2703 1.523 . S
C2703 C2687 1.368 . S
C2703 C2699 1.368 . S
C2703 C2702 1.523 . S
H2704 C2679 0.950 . S
H2705 C2681 0.950 . S
H2706 C2682 0.949 . S
H2707 C2684 0.950 . S
H2708 C2686 0.950 . S
C2709 C2710 1.349 . S
C2709 C2711 1.327 . S
C2709 H2734 0.950 . S
C2710 C2709 1.349 . S
C2710 C2726 1.349 . S
C2711 C2709 1.327 . S
C2711 C2730 1.429 . S
C2711 H2735 0.950 . S
C2712 C2729 1.574 . S
C2712 C2731 1.368 . S
C2712 H2736 0.949 . S
H2713 C2717 0.949 . S
C2714 C2715 1.349 . S
C2714 C2716 1.327 . S
C2714 H2737 0.950 . S
C2715 C2714 1.349 . S
C2715 C2727 1.349 . S
C2716 C2714 1.327 . S
C2716 C2732 1.429 . S
C2716 H2738 0.950 . S
C2717 H2713 0.949 . S
C2717 C2725 1.574 . S
C2717 C2733 1.368 . S
H2718 C2726 0.950 . S
H2719 C2724 0.950 . S
H2720 C2725 0.949 . S
H2721 C2727 0.950 . S
H2722 C2728 0.950 . S
H2723 C2729 0.949 . S
C2724 H2719 0.950 . S
C2724 C2726 1.327 . S
C2724 C2730 1.429 . S
C2725 C2717 1.574 . S
C2725 H2720 0.949 . S
C2725 C2731 1.368 . S
C2726 C2710 1.349 . S
C2726 H2718 0.950 . S
C2726 C2724 1.327 . S
C2727 C2715 1.349 . S
C2727 H2721 0.950 . S
C2727 C2728 1.327 . S
C2728 H2722 0.950 . S
C2728 C2727 1.327 . S
C2728 C2732 1.429 . S
C2729 C2712 1.574 . S
C2729 H2723 0.949 . S
C2729 C2733 1.368 . S
C2730 C2711 1.429 . S
C2730 C2724 1.429 . S
C2730 C2731 1.523 . S
C2731 C2712 1.368 . S
C2731 C2725 1.368 . S
C2731 C2730 1.523 . S
C2732 C2716 1.429 . S
C2732 C2728 1.429 . S
C2732 C2733 1.523 . S
C2733 C2717 1.368 . S
C2733 C2729 1.368 . S
C2733 C2732 1.523 . S
H2734 C2709 0.950 . S
H2735 C2711 0.950 . S
H2736 C2712 0.949 . S
H2737 C2714 0.950 . S
H2738 C2716 0.950 . S
C2739 C2740 1.349 . S
C2739 C2741 1.327 . S
C2739 H2764 0.950 . S
C2740 C2739 1.349 . S
C2740 C2756 1.349 . S
C2741 C2739 1.327 . S
C2741 C2760 1.429 . S
C2741 H2765 0.950 . S
C2742 C2759 1.574 . S
C2742 C2761 1.368 . S
C2742 H2766 0.949 . S
H2743 C2747 0.949 . S
C2744 C2745 1.349 . S
C2744 C2746 1.327 . S
C2744 H2767 0.950 . S
C2745 C2744 1.349 . S
C2745 C2757 1.349 . S
C2746 C2744 1.327 . S
C2746 C2762 1.429 . S
C2746 H2768 0.950 . S
C2747 H2743 0.949 . S
C2747 C2755 1.574 . S
C2747 C2763 1.368 . S
H2748 C2756 0.950 . S
H2749 C2754 0.950 . S
H2750 C2755 0.949 . S
H2751 C2757 0.950 . S
H2752 C2758 0.950 . S
H2753 C2759 0.949 . S
C2754 H2749 0.950 . S
C2754 C2756 1.327 . S
C2754 C2760 1.429 . S
C2755 C2747 1.574 . S
C2755 H2750 0.949 . S
C2755 C2761 1.368 . S
C2756 C2740 1.349 . S
C2756 H2748 0.950 . S
C2756 C2754 1.327 . S
C2757 C2745 1.349 . S
C2757 H2751 0.950 . S
C2757 C2758 1.327 . S
C2758 H2752 0.950 . S
C2758 C2757 1.327 . S
C2758 C2762 1.429 . S
C2759 C2742 1.574 . S
C2759 H2753 0.949 . S
C2759 C2763 1.368 . S
C2760 C2741 1.429 . S
C2760 C2754 1.429 . S
C2760 C2761 1.523 . S
C2761 C2742 1.368 . S
C2761 C2755 1.368 . S
C2761 C2760 1.523 . S
C2762 C2746 1.429 . S
C2762 C2758 1.429 . S
C2762 C2763 1.523 . S
C2763 C2747 1.368 . S
C2763 C2759 1.368 . S
C2763 C2762 1.523 . S
H2764 C2739 0.950 . S
H2765 C2741 0.950 . S
H2766 C2742 0.949 . S
H2767 C2744 0.950 . S
H2768 C2746 0.950 . S
C2769 C2770 1.349 . S
C2769 C2771 1.327 . S
C2769 H2794 0.950 . S
C2770 C2769 1.349 . S
C2770 C2786 1.349 . S
C2771 C2769 1.327 . S
C2771 C2790 1.429 . S
C2771 H2795 0.950 . S
C2772 C2789 1.574 . S
C2772 C2791 1.368 . S
C2772 H2796 0.949 . S
H2773 C2777 0.949 . S
C2774 C2775 1.349 . S
C2774 C2776 1.327 . S
C2774 H2797 0.950 . S
C2775 C2774 1.349 . S
C2775 C2787 1.349 . S
C2776 C2774 1.327 . S
C2776 C2792 1.429 . S
C2776 H2798 0.950 . S
C2777 H2773 0.949 . S
C2777 C2785 1.574 . S
C2777 C2793 1.368 . S
H2778 C2786 0.950 . S
H2779 C2784 0.950 . S
H2780 C2785 0.949 . S
H2781 C2787 0.950 . S
H2782 C2788 0.950 . S
H2783 C2789 0.949 . S
C2784 H2779 0.950 . S
C2784 C2786 1.327 . S
C2784 C2790 1.429 . S
C2785 C2777 1.574 . S
C2785 H2780 0.949 . S
C2785 C2791 1.368 . S
C2786 C2770 1.349 . S
C2786 H2778 0.950 . S
C2786 C2784 1.327 . S
C2787 C2775 1.349 . S
C2787 H2781 0.950 . S
C2787 C2788 1.327 . S
C2788 H2782 0.950 . S
C2788 C2787 1.327 . S
C2788 C2792 1.429 . S
C2789 C2772 1.574 . S
C2789 H2783 0.949 . S
C2789 C2793 1.368 . S
C2790 C2771 1.429 . S
C2790 C2784 1.429 . S
C2790 C2791 1.523 . S
C2791 C2772 1.368 . S
C2791 C2785 1.368 . S
C2791 C2790 1.523 . S
C2792 C2776 1.429 . S
C2792 C2788 1.429 . S
C2792 C2793 1.523 . S
C2793 C2777 1.368 . S
C2793 C2789 1.368 . S
C2793 C2792 1.523 . S
H2794 C2769 0.950 . S
H2795 C2771 0.950 . S
H2796 C2772 0.949 . S
H2797 C2774 0.950 . S
H2798 C2776 0.950 . S
C2799 C2800 1.349 . S
C2799 C2801 1.327 . S
C2799 H2824 0.950 . S
C2800 C2799 1.349 . S
C2800 C2816 1.349 . S
C2801 C2799 1.327 . S
C2801 C2820 1.429 . S
C2801 H2825 0.950 . S
C2802 C2819 1.574 . S
C2802 C2821 1.368 . S
C2802 H2826 0.949 . S
H2803 C2807 0.949 . S
C2804 C2805 1.349 . S
C2804 C2806 1.327 . S
C2804 H2827 0.950 . S
C2805 C2804 1.349 . S
C2805 C2817 1.349 . S
C2806 C2804 1.327 . S
C2806 C2822 1.429 . S
C2806 H2828 0.950 . S
C2807 H2803 0.949 . S
C2807 C2815 1.574 . S
C2807 C2823 1.368 . S
H2808 C2816 0.950 . S
H2809 C2814 0.950 . S
H2810 C2815 0.949 . S
H2811 C2817 0.950 . S
H2812 C2818 0.950 . S
H2813 C2819 0.949 . S
C2814 H2809 0.950 . S
C2814 C2816 1.327 . S
C2814 C2820 1.429 . S
C2815 C2807 1.574 . S
C2815 H2810 0.949 . S
C2815 C2821 1.368 . S
C2816 C2800 1.349 . S
C2816 H2808 0.950 . S
C2816 C2814 1.327 . S
C2817 C2805 1.349 . S
C2817 H2811 0.950 . S
C2817 C2818 1.327 . S
C2818 H2812 0.950 . S
C2818 C2817 1.327 . S
C2818 C2822 1.429 . S
C2819 C2802 1.574 . S
C2819 H2813 0.949 . S
C2819 C2823 1.368 . S
C2820 C2801 1.429 . S
C2820 C2814 1.429 . S
C2820 C2821 1.523 . S
C2821 C2802 1.368 . S
C2821 C2815 1.368 . S
C2821 C2820 1.523 . S
C2822 C2806 1.429 . S
C2822 C2818 1.429 . S
C2822 C2823 1.523 . S
C2823 C2807 1.368 . S
C2823 C2819 1.368 . S
C2823 C2822 1.523 . S
H2824 C2799 0.950 . S
H2825 C2801 0.950 . S
H2826 C2802 0.949 . S
H2827 C2804 0.950 . S
H2828 C2806 0.950 . S
C2829 C2830 1.349 . S
C2829 C2831 1.327 . S
C2829 H2854 0.950 . S
C2830 C2829 1.349 . S
C2830 C2846 1.349 . S
C2831 C2829 1.327 . S
C2831 C2850 1.429 . S
C2831 H2855 0.950 . S
C2832 C2849 1.574 . S
C2832 C2851 1.368 . S
C2832 H2856 0.949 . S
H2833 C2837 0.949 . S
C2834 C2835 1.349 . S
C2834 C2836 1.327 . S
C2834 H2857 0.950 . S
C2835 C2834 1.349 . S
C2835 C2847 1.349 . S
C2836 C2834 1.327 . S
C2836 C2852 1.429 . S
C2836 H2858 0.950 . S
C2837 H2833 0.949 . S
C2837 C2845 1.574 . S
C2837 C2853 1.368 . S
H2838 C2846 0.950 . S
H2839 C2844 0.950 . S
H2840 C2845 0.949 . S
H2841 C2847 0.950 . S
H2842 C2848 0.950 . S
H2843 C2849 0.949 . S
C2844 H2839 0.950 . S
C2844 C2846 1.327 . S
C2844 C2850 1.429 . S
C2845 C2837 1.574 . S
C2845 H2840 0.949 . S
C2845 C2851 1.368 . S
C2846 C2830 1.349 . S
C2846 H2838 0.950 . S
C2846 C2844 1.327 . S
C2847 C2835 1.349 . S
C2847 H2841 0.950 . S
C2847 C2848 1.327 . S
C2848 H2842 0.950 . S
C2848 C2847 1.327 . S
C2848 C2852 1.429 . S
C2849 C2832 1.574 . S
C2849 H2843 0.949 . S
C2849 C2853 1.368 . S
C2850 C2831 1.429 . S
C2850 C2844 1.429 . S
C2850 C2851 1.523 . S
C2851 C2832 1.368 . S
C2851 C2845 1.368 . S
C2851 C2850 1.523 . S
C2852 C2836 1.429 . S
C2852 C2848 1.429 . S
C2852 C2853 1.523 . S
C2853 C2837 1.368 . S
C2853 C2849 1.368 . S
C2853 C2852 1.523 . S
H2854 C2829 0.950 . S
H2855 C2831 0.950 . S
H2856 C2832 0.949 . S
H2857 C2834 0.950 . S
H2858 C2836 0.950 . S
C2859 C2860 1.349 . S
C2859 C2861 1.327 . S
C2859 H2884 0.950 . S
C2860 C2859 1.349 . S
C2860 C2876 1.349 . S
C2861 C2859 1.327 . S
C2861 C2880 1.429 . S
C2861 H2885 0.950 . S
C2862 C2879 1.574 . S
C2862 C2881 1.368 . S
C2862 H2886 0.949 . S
H2863 C2867 0.949 . S
C2864 C2865 1.349 . S
C2864 C2866 1.327 . S
C2864 H2887 0.950 . S
C2865 C2864 1.349 . S
C2865 C2877 1.349 . S
C2866 C2864 1.327 . S
C2866 C2882 1.429 . S
C2866 H2888 0.950 . S
C2867 H2863 0.949 . S
C2867 C2875 1.574 . S
C2867 C2883 1.368 . S
H2868 C2876 0.950 . S
H2869 C2874 0.950 . S
H2870 C2875 0.949 . S
H2871 C2877 0.950 . S
H2872 C2878 0.950 . S
H2873 C2879 0.949 . S
C2874 H2869 0.950 . S
C2874 C2876 1.327 . S
C2874 C2880 1.429 . S
C2875 C2867 1.574 . S
C2875 H2870 0.949 . S
C2875 C2881 1.368 . S
C2876 C2860 1.349 . S
C2876 H2868 0.950 . S
C2876 C2874 1.327 . S
C2877 C2865 1.349 . S
C2877 H2871 0.950 . S
C2877 C2878 1.327 . S
C2878 H2872 0.950 . S
C2878 C2877 1.327 . S
C2878 C2882 1.429 . S
C2879 C2862 1.574 . S
C2879 H2873 0.949 . S
C2879 C2883 1.368 . S
C2880 C2861 1.429 . S
C2880 C2874 1.429 . S
C2880 C2881 1.523 . S
C2881 C2862 1.368 . S
C2881 C2875 1.368 . S
C2881 C2880 1.523 . S
C2882 C2866 1.429 . S
C2882 C2878 1.429 . S
C2882 C2883 1.523 . S
C2883 C2867 1.368 . S
C2883 C2879 1.368 . S
C2883 C2882 1.523 . S
H2884 C2859 0.950 . S
H2885 C2861 0.950 . S
H2886 C2862 0.949 . S
H2887 C2864 0.950 . S
H2888 C2866 0.950 . S
C1270 C781 1.351 . S
C1275 C1097 1.300 . S
C1300 C871 1.358 . S
C1305 C1118 1.303 . S
C1330 C751 1.302 . S
C1335 C1140 1.130 . S
C1360 C691 1.313 . S
C1365 C1119 1.137 1_556 S
C1395 C1139 1.309 . S
C1390 C571 1.366 . S
C1420 C601 1.311 . S
C1425 C1098 1.134 1_556 S
C1455 C1093 1.260 . S
C1450 C661 1.280 . S
C1485 C1114 1.254 . S
C1480 C541 1.263 . S
C1510 C631 1.398 . S
C1515 C1137 1.172 1_556 S
C1540 C811 1.337 . S
C1545 C1116 1.132 . S
C1570 C841 1.224 . S
C1575 C1135 1.209 . S
C1605 C1095 1.145 . S
C1600 C721 1.285 . S
C1635 C1160 1.300 . S
C1630 C61 1.351 . S
C1660 C151 1.358 . S
C1665 C1181 1.303 . S
C1690 C31 1.302 . S
C1695 C1203 1.130 . S
C1720 C1051 1.313 . S
C1725 C1182 1.137 . S
C1750 C931 1.366 . S
C1755 C1202 1.309 . S
C1780 C961 1.311 . S
C1785 C1161 1.134 . S
C1810 C1021 1.280 . S
C1815 C1156 1.260 . S
C1840 C901 1.263 . S
C1845 C1177 1.254 . S
C1875 C1200 1.172 . S
C1870 C991 1.398 . S
C1900 C91 1.337 . S
C1905 C1179 1.132 . S
C1935 C1198 1.209 . S
C1930 C121 1.225 . S
C1960 C1 1.285 . S
C1965 C1158 1.145 . S
C1995 C1223 1.300 . S
C1990 C421 1.351 . S
C2020 C511 1.358 . S
C2025 C1244 1.303 . S
C2055 C1266 1.130 . S
C2050 C391 1.302 . S
C2085 C1245 1.137 . S
C2080 C331 1.313 . S
C2115 C1265 1.309 . S
C2110 C211 1.366 . S
C2140 C241 1.311 . S
C2145 C1224 1.134 . S
C2170 C301 1.280 . S
C2175 C1219 1.260 . S
C2200 C181 1.263 . S
C2205 C1240 1.254 . S
C2235 C1263 1.172 . S
C2230 C271 1.398 . S
C2260 C451 1.337 . S
C2265 C1242 1.132 . S
C2290 C481 1.225 . S
C2295 C1261 1.209 . S
C2320 C361 1.285 . S
C2325 C1221 1.145 . S
C2350 C920 1.329 . S
C2355 C1096 1.320 1_565 S
C2385 C1117 1.388 . S
C2380 C980 1.415 . S
C2410 C1040 1.438 . S
C2415 C1136 1.447 . S
C2440 C380 1.500 . S
C2445 C1115 1.507 1_655 S
C2470 C440 1.416 . S
C2475 C1138 1.386 . S
C2505 C1094 1.463 . S
C2500 C500 1.436 . S
C2530 C200 1.329 . S
C2535 C1159 1.323 . S
C2560 C260 1.415 . S
C2565 C1180 1.388 . S
C2590 C320 1.438 . S
C2595 C1199 1.447 . S
C2620 C740 1.500 . S
C2625 C1178 1.507 . S
C2655 C1201 1.386 . S
C2650 C800 1.416 . S
C2680 C860 1.436 . S
C2685 C1157 1.444 . S
C2710 C560 1.329 . S
C2715 C1222 1.323 . S
C2740 C620 1.415 . S
C2745 C1243 1.388 . S
C2775 C1262 1.447 . S
C2770 C680 1.438 . S
C2800 C20 1.500 . S
C2805 C1241 1.507 . S
C2830 C80 1.416 . S
C2835 C1264 1.386 . S
C2860 C140 1.436 . S
C2865 C1220 1.444 . S
