# Generated by pormake.
# Topology zzz, (3,6)-cn, num edge types: 1
# Building blocks:
#     Node 0, Type 0, BuildingBlock: QEWDON_clean_linker_0, # of connection points: 3
#     Node 1, Type 0, BuildingBlock: QEWDON_clean_linker_0, # of connection points: 3
#     Node 2, Type 0, BuildingBlock: QEWDON_clean_linker_0, # of connection points: 3
#     Node 3, Type 0, BuildingBlock: QEWDON_clean_linker_0, # of connection points: 3
#     Node 4, Type 0, BuildingBlock: QEWDON_clean_linker_0, # of connection points: 3
#     Node 5, Type 0, BuildingBlock: QEWDON_clean_linker_0, # of connection points: 3
#     Node 6, Type 0, BuildingBlock: QEWDON_clean_linker_0, # of connection points: 3
#     Node 7, Type 0, BuildingBlock: QEWDON_clean_linker_0, # of connection points: 3
#     Node 8, Type 1, BuildingBlock: BETDEL_clean_sbu_0, # of connection points: 6
#     Node 9, Type 1, BuildingBlock: BETDEL_clean_sbu_0, # of connection points: 6
#     Node 10, Type 1, BuildingBlock: BETDEL_clean_sbu_0, # of connection points: 6
#     Node 11, Type 1, BuildingBlock: BETDEL_clean_sbu_0, # of connection points: 6
#     Edge 12, Type (0, 1), BuildingBlock: KIFKEQ_clean_linker_1, # of connection points: 2
#     Edge 13, Type (0, 1), BuildingBlock: KIFKEQ_clean_linker_1, # of connection points: 2
#     Edge 14, Type (0, 1), BuildingBlock: KIFKEQ_clean_linker_1, # of connection points: 2
#     Edge 15, Type (0, 1), BuildingBlock: KIFKEQ_clean_linker_1, # of connection points: 2
#     Edge 16, Type (0, 1), BuildingBlock: KIFKEQ_clean_linker_1, # of connection points: 2
#     Edge 17, Type (0, 1), BuildingBlock: KIFKEQ_clean_linker_1, # of connection points: 2
#     Edge 18, Type (0, 1), BuildingBlock: KIFKEQ_clean_linker_1, # of connection points: 2
#     Edge 19, Type (0, 1), BuildingBlock: KIFKEQ_clean_linker_1, # of connection points: 2
#     Edge 20, Type (0, 1), BuildingBlock: KIFKEQ_clean_linker_1, # of connection points: 2
#     Edge 21, Type (0, 1), BuildingBlock: KIFKEQ_clean_linker_1, # of connection points: 2
#     Edge 22, Type (0, 1), BuildingBlock: KIFKEQ_clean_linker_1, # of connection points: 2
#     Edge 23, Type (0, 1), BuildingBlock: KIFKEQ_clean_linker_1, # of connection points: 2
#     Edge 24, Type (0, 1), BuildingBlock: KIFKEQ_clean_linker_1, # of connection points: 2
#     Edge 25, Type (0, 1), BuildingBlock: KIFKEQ_clean_linker_1, # of connection points: 2
#     Edge 26, Type (0, 1), BuildingBlock: KIFKEQ_clean_linker_1, # of connection points: 2
#     Edge 27, Type (0, 1), BuildingBlock: KIFKEQ_clean_linker_1, # of connection points: 2
#     Edge 28, Type (0, 1), BuildingBlock: KIFKEQ_clean_linker_1, # of connection points: 2
#     Edge 29, Type (0, 1), BuildingBlock: KIFKEQ_clean_linker_1, # of connection points: 2
#     Edge 30, Type (0, 1), BuildingBlock: KIFKEQ_clean_linker_1, # of connection points: 2
#     Edge 31, Type (0, 1), BuildingBlock: KIFKEQ_clean_linker_1, # of connection points: 2
#     Edge 32, Type (0, 1), BuildingBlock: KIFKEQ_clean_linker_1, # of connection points: 2
#     Edge 33, Type (0, 1), BuildingBlock: KIFKEQ_clean_linker_1, # of connection points: 2
#     Edge 34, Type (0, 1), BuildingBlock: KIFKEQ_clean_linker_1, # of connection points: 2
#     Edge 35, Type (0, 1), BuildingBlock: KIFKEQ_clean_linker_1, # of connection points: 2
# Relax obj value: 0.092
# Max RMSD: 0.192
# Mean RMSD: 0.071
data_MOF--net-zzz--node1-BETDEL_clean_sbu_0--node2-QEWDON_clean_linker_0--edge1-KIFKEQ_clean_linker_1
_symmetry_space_group_name_H-M    P1
_symmetry_Int_Tables_number       1
_symmetry_cell_setting            triclinic
loop_
_symmetry_equiv_pos_as_xyz
'x, y, z'
_cell_length_a     53.999525
_cell_length_b     54.993956
_cell_length_c     14.779937
_cell_angle_alpha  91.443791
_cell_angle_beta   88.39242
_cell_angle_gamma 94.464129
loop_
_atom_site_label
_atom_site_type_symbol
_atom_site_fract_x
_atom_site_fract_y
_atom_site_fract_z
_atom_type_partial_charge
H0 H 0.76594 0.51564 0.97124 0.0
C1 C 0.77552 0.51634 0.03467 0.0
C2 C 0.79855 0.50624 0.03706 0.0
C3 C 0.76565 0.52807 0.11258 0.0
H4 H 0.83072 0.50178 0.11552 0.0
C5 C 0.81229 0.50845 0.11571 0.0
C6 C 0.80407 0.52125 0.19145 0.0
C7 C 0.78052 0.53057 0.19121 0.0
C8 C 0.74067 0.53865 0.10997 0.0
H9 H 0.77419 0.53977 0.25205 0.0
C10 C 0.72202 0.52958 0.04879 0.0
C11 C 0.69882 0.53982 0.04756 0.0
C12 C 0.73531 0.5584 0.1682 0.0
H13 H 0.74901 0.56688 0.21333 0.0
C14 C 0.71221 0.56812 0.16812 0.0
H15 H 0.72514 0.51442 0.00293 0.0
C16 C 0.69406 0.55887 0.10871 0.0
H17 H 0.67642 0.56703 0.1089 0.0
H18 H 0.70848 0.5832 0.21367 0.0
H19 H 1.00471 0.76439 0.94195 0.0
C20 C 1.00326 0.77498 0.00437 0.0
C21 C 0.01438 0.79894 0.00814 0.0
C22 C 0.98929 0.76534 0.0796 0.0
H23 H 0.0186 0.83235 0.08705 0.0
C24 C 1.01119 0.81339 0.08598 0.0
C25 C 0.99641 0.80494 0.15872 0.0
C26 C 0.98593 0.78077 0.15696 0.0
C27 C 0.97676 0.74 0.07501 0.0
H28 H 0.97487 0.77435 0.21502 0.0
C29 C 0.98744 0.72078 0.02566 0.0
C30 C 0.97533 0.69703 0.02239 0.0
C31 C 0.95357 0.73492 0.11939 0.0
H32 H 0.94418 0.74912 0.15504 0.0
C33 C 0.94172 0.71148 0.11692 0.0
H34 H 1.0053 0.72408 0.99117 0.0
C35 C 0.95248 0.69268 0.0692 0.0
H36 H 0.94256 0.67479 0.06705 0.0
H37 H 0.92389 0.70795 0.15137 0.0
H38 H 0.76396 0.01173 0.97 0.0
C39 C 0.75213 0.01278 0.02999 0.0
C40 C 0.72976 0.02375 0.02302 0.0
C41 C 0.75862 1.00275 0.11252 0.0
H42 H 0.69514 0.03106 0.08815 0.0
C43 C 0.71305 0.02379 0.09656 0.0
C44 C 0.71796 0.0129 0.17769 0.0
C45 C 0.74095 1.0027 0.18628 0.0
C46 C 0.78332 0.99187 0.11991 0.0
H47 H 0.74484 0.99511 0.25063 0.0
C48 C 0.80395 0.99889 0.06172 0.0
C49 C 0.82683 0.98835 0.06822 0.0
C50 C 0.7865 0.97398 0.18443 0.0
H51 H 0.77133 0.96711 0.22827 0.0
C52 C 0.80934 0.96405 0.19249 0.0
H53 H 0.80267 0.01277 0.0119 0.0
C54 C 0.82938 0.9712 0.13517 0.0
H55 H 0.84673 0.96279 0.14146 0.0
H56 H 0.81139 0.95039 0.24265 0.0
H57 H 0.51559 0.75519 0.96986 0.0
C58 C 0.51513 0.74541 0.03267 0.0
C59 C 0.50279 0.72204 0.0358 0.0
C60 C 0.52814 0.75536 0.10832 0.0
H61 H 0.49524 0.68987 0.11407 0.0
C62 C 0.50344 0.70853 0.11437 0.0
C63 C 0.51714 0.71715 0.1887 0.0
C64 C 0.52929 0.74075 0.18616 0.0
C65 C 0.54221 0.77997 0.10263 0.0
H66 H 0.53969 0.74747 0.2444 0.0
C67 C 0.53358 0.79906 0.05168 0.0
C68 C 0.5474 0.82195 0.04594 0.0
C69 C 0.56503 0.78426 0.14626 0.0
H70 H 0.57283 0.77005 0.18315 0.0
C71 C 0.57863 0.80679 0.14097 0.0
H72 H 0.516 0.79637 0.01799 0.0
C73 C 0.56996 0.82545 0.09151 0.0
H74 H 0.58124 0.84258 0.08748 0.0
H75 H 0.5962 0.80972 0.17463 0.0
H76 H 0.26479 0.5273 0.15725 0.0
C77 C 0.25331 0.52145 0.10069 0.0
C78 C 0.22745 0.52063 0.1128 0.0
C79 C 0.26402 0.51584 0.0148 0.0
H80 H 0.19207 0.51435 0.05024 0.0
C81 C 0.21211 0.51441 0.04029 0.0
C82 C 0.22183 0.50992 0.95415 0.0
C83 C 0.24778 0.50999 0.9413 0.0
C84 C 0.29188 0.51804 0.00072 0.0
H85 H 0.25503 0.50592 0.87413 0.0
C86 C 0.30837 0.51473 0.07221 0.0
C87 C 0.33445 0.51863 0.05884 0.0
C88 C 0.30229 0.52478 0.91563 0.0
H89 H 0.29076 0.52845 0.85971 0.0
C90 C 0.32794 0.52767 0.90137 0.0
H91 H 0.30108 0.50959 0.13853 0.0
C92 C 0.34386 0.52466 0.97194 0.0
H93 H 0.3637 0.52718 0.95834 0.0
H94 H 0.33555 0.5327 0.8353 0.0
H95 H 1.00839 0.25725 0.19497 0.0
C96 C 0.0131 0.24633 0.13588 0.0
C97 C 0.01866 0.22212 0.1472 0.0
C98 C 0.01287 0.25597 0.04795 0.0
H99 H 0.02687 0.18838 0.08069 0.0
C100 C 0.02352 0.2074 0.07163 0.0
C101 C 0.02248 0.21601 0.98445 0.0
C102 C 0.01758 0.24039 0.97207 0.0
C103 C 1.00634 0.28165 0.03507 0.0
H104 H 0.01717 0.24694 0.90371 0.0
C105 C 0.01315 0.3007 0.09818 0.0
C106 C 1.00678 0.32478 0.08481 0.0
C107 C 0.99273 0.28723 0.95938 0.0
H108 H 0.98636 0.27318 0.91102 0.0
C109 C 0.98657 0.31098 0.94573 0.0
H110 H 0.02378 0.29699 0.15665 0.0
C111 C 0.99354 0.32961 0.00758 0.0
H112 H 0.98803 0.34777 -0.00404 0.0
H113 H 0.97605 0.31491 0.88728 0.0
H114 H 0.2665 0.9949 0.16124 0.0
C115 C 0.28043 0.99954 0.10919 0.0
C116 C 0.30504 0.99499 0.12484 0.0
C117 C 0.27395 1.00917 0.02597 0.0
H118 H 0.34242 0.99618 0.07157 0.0
C119 C 0.32336 0.9997 0.05805 0.0
C120 C 0.31782 1.00906 0.97487 0.0
C121 C 0.29317 0.01438 0.95938 0.0
C122 C 0.24708 0.01216 0.00733 0.0
H123 H 0.28911 0.02206 0.89528 0.0
C124 C 0.22943 0.01627 0.07822 0.0
C125 C 0.20382 0.0168 0.06075 0.0
C126 C 0.23849 1.00929 0.91833 0.0
H127 H 0.25092 1.00537 0.86211 0.0
C128 C 0.21341 1.01046 0.90038 0.0
H129 H 0.23547 0.0192 0.14706 0.0
C130 C 0.19621 0.01399 0.97062 0.0
H131 H 0.17678 0.0138 0.95423 0.0
H132 H 0.20715 1.00799 0.83158 0.0
H133 H 0.51683 0.26642 0.15319 0.0
C134 C 0.51219 0.27644 0.09466 0.0
C135 C 0.50554 0.3004 0.10758 0.0
C136 C 0.51394 0.26602 0.0064 0.0
H137 H 0.49714 0.33329 0.04345 0.0
C138 C 0.5011 0.31433 0.03304 0.0
C139 C 0.50405 0.30528 0.94515 0.0
C140 C 0.50998 0.28094 0.93127 0.0
C141 C 0.52196 0.24053 0.99344 0.0
H142 H 0.51187 0.27402 0.86246 0.0
C143 C 0.51658 0.22238 0.05963 0.0
C144 C 0.52622 0.19923 0.05008 0.0
C145 C 0.53644 0.23453 0.91651 0.0
H146 H 0.54173 0.24782 0.8654 0.0
C147 C 0.5452 0.21143 0.90547 0.0
H148 H 0.50545 0.2263 0.11951 0.0
C149 C 0.5403 0.19399 0.97165 0.0
H150 H 0.54768 0.17633 0.96164 0.0
H151 H 0.55632 0.20717 0.84591 0.0
Dy152 Dy 0.02769 0.99656 0.65563 0.0
C153 C 1.0114 0.06119 0.38612 0.0
C154 C 0.03279 0.95963 0.77243 0.0
Dy155 Dy 1.00991 0.02325 0.5021 0.0
O156 O 0.05094 0.97186 0.7305 0.0
O157 O 1.01209 0.96895 0.75579 0.0
O158 O 0.06682 0.01063 0.62085 0.0
O159 O 0.04184 1.00207 0.51628 0.0
C160 C 0.06364 0.01057 0.53408 0.0
C161 C 0.97324 1.00984 0.6213 0.0
O162 O 1.00699 0.98644 0.43228 0.0
O163 O 1.00856 0.96716 0.56872 0.0
O164 O 0.99122 0.04858 0.41244 0.0
O165 O 0.03049 0.05147 0.41674 0.0
O166 O 0.97015 0.01161 0.53483 0.0
O167 O 0.99525 0.0174 0.64085 0.0
O168 O 0.02844 0.03278 0.72889 0.0
O169 O 0.02706 0.05283 0.59403 0.0
C170 C 1.00459 0.96635 0.48076 0.0
C171 C 0.03045 0.05316 0.6823 0.0
Dy172 Dy 0.49779 0.99951 0.51139 0.0
C173 C 0.58451 0.03698 0.69192 0.0
C174 C 0.45089 0.9883 0.45349 0.0
Dy175 Dy 0.53744 0.0268 0.63446 0.0
O176 O 0.47023 0.97732 0.4241 0.0
O177 O 0.45748 1.0056 0.51092 0.0
O178 O 0.52794 0.98215 0.42797 0.0
O179 O 0.535 0.01622 0.4929 0.0
C180 C 0.54495 0.99934 0.44977 0.0
C181 C 0.49025 0.02678 0.69633 0.0
O182 O 0.53217 0.05676 0.53814 0.0
O183 O 0.49774 0.03862 0.46366 0.0
O184 O 0.56556 0.04862 0.72089 0.0
O185 O 0.57742 0.01969 0.63522 0.0
O186 O 0.50723 0.04398 0.71839 0.0
O187 O 0.5003 1.01 0.65302 0.0
O188 O 0.50359 0.96917 0.60675 0.0
O189 O 0.53797 0.98783 0.67992 0.0
C190 C 0.51381 0.05779 0.48052 0.0
C191 C 0.52224 0.96844 0.6634 0.0
Dy192 Dy 0.50262 0.52516 0.65018 0.0
C193 C 0.52037 0.46249 0.36323 0.0
C194 C 0.49534 0.56095 0.77731 0.0
Dy195 Dy 0.52188 0.49953 0.48925 0.0
O196 O 0.47786 0.54767 0.73708 0.0
O197 O 0.51671 0.55329 0.75296 0.0
O198 O 0.46377 0.51084 0.61455 0.0
O199 O 0.48972 0.52041 0.51131 0.0
C200 C 0.46779 0.5117 0.52764 0.0
C201 C 0.55769 0.51322 0.6065 0.0
O202 O 0.52389 0.53644 0.42709 0.0
O203 O 0.52158 0.55563 0.56755 0.0
O204 O 0.54069 0.47372 0.39345 0.0
O205 O 0.50144 0.47326 0.39554 0.0
O206 O 0.56127 0.51202 0.51905 0.0
O207 O 0.5357 0.5051 0.62734 0.0
O208 O 0.50234 0.48861 0.71515 0.0
O209 O 0.50473 0.46909 0.57574 0.0
C210 C 0.52568 0.55655 0.47884 0.0
C211 C 0.50102 0.46833 0.66444 0.0
Dy212 Dy 0.99873 0.499 0.65578 0.0
C213 C 0.06176 0.52237 0.34769 0.0
C214 C 0.9613 0.48814 0.77895 0.0
Dy215 Dy 0.02697 0.521 0.48425 0.0
O216 O 0.96817 0.47379 0.71365 0.0
O217 O 0.97624 0.50789 0.781 0.0
O218 O 0.01402 0.46325 0.61934 0.0
O219 O 1.00567 0.48671 0.51591 0.0
C220 C 0.0146 0.46672 0.53251 0.0
C221 C 0.02116 0.5565 0.6112 0.0
O222 O 0.98825 0.52151 0.43262 0.0
O223 O 0.96887 0.5134 0.57298 0.0
O224 O 0.04863 0.54041 0.37211 0.0
O225 O 0.05415 0.50314 0.39287 0.0
O226 O 0.03191 0.56047 0.5327 0.0
O227 O 0.01451 0.53408 0.61464 0.0
O228 O 0.0367 0.50445 0.714 0.0
O229 O 0.05663 0.50831 0.57261 0.0
C230 C 0.96803 0.51934 0.48652 0.0
C231 C 0.05714 0.50542 0.66145 0.0
H232 H 0.16156 0.0418 0.06164 0.0
H233 H 0.2023 0.99661 0.22981 0.0
H234 H 0.12814 0.04159 0.17591 0.0
H235 H 0.16898 0.99684 0.34491 0.0
H236 H 0.11312 0.01966 0.56554 0.0
H237 H 0.14761 0.0231 0.4548 0.0
H238 H 0.09566 0.01213 0.23798 0.0
H239 H 0.06115 1.00875 0.34906 0.0
C240 C 0.16347 0.03181 0.12295 0.0
C241 C 0.18469 0.01902 0.1356 0.0
C242 C 0.14422 0.03171 0.1886 0.0
C243 C 0.14568 0.01902 0.26945 0.0
C244 C 0.16727 1.00698 0.28382 0.0
C245 C 0.18648 1.00693 0.21777 0.0
C246 C 0.10905 0.01809 0.49419 0.0
C247 C 0.08438 0.01386 0.4661 0.0
C248 C 0.12885 0.01992 0.43068 0.0
C249 C 0.12451 0.01781 0.33728 0.0
C250 C 0.09973 0.01407 0.30924 0.0
C251 C 0.07993 0.01202 0.37287 0.0
H252 H 0.48311 0.18204 0.14014 0.0
H253 H 0.56196 0.17409 0.12275 0.0
H254 H 0.47818 0.14909 0.25034 0.0
H255 H 0.55712 0.14138 0.23118 0.0
H256 H 0.54567 0.09901 0.48694 0.0
H257 H 0.54695 0.13441 0.39126 0.0
H258 H 0.48186 0.10359 0.25434 0.0
H259 H 0.48039 0.06793 0.35101 0.0
C260 C 0.49938 0.17345 0.16052 0.0
C261 C 0.52291 0.18064 0.12241 0.0
C262 C 0.49655 0.15444 0.22297 0.0
C263 C 0.51725 0.14252 0.24982 0.0
C264 C 0.54079 0.15023 0.21308 0.0
C265 C 0.54355 0.16891 0.15026 0.0
C266 C 0.53143 0.09972 0.43711 0.0
C267 C 0.51303 0.08035 0.42658 0.0
C268 C 0.53227 0.12008 0.38177 0.0
C269 C 0.51467 0.12182 0.31428 0.0
C270 C 0.49564 0.10294 0.30588 0.0
C271 C 0.49488 0.08241 0.36111 0.0
H272 H 0.37498 0.54983 0.09501 0.0
H273 H 0.33444 0.48472 0.19436 0.0
H274 H 0.40633 0.54653 0.20767 0.0
H275 H 0.3661 0.48143 0.30855 0.0
H276 H 0.4179 0.49976 0.55545 0.0
H277 H 0.38474 0.5007 0.44601 0.0
H278 H 0.4395 0.52099 0.2373 0.0
H279 H 0.47241 0.52038 0.34672 0.0
C280 C 0.37279 0.53467 0.1407 0.0
C281 C 0.35227 0.51732 0.13431 0.0
C282 C 0.39089 0.53275 0.20544 0.0
C283 C 0.38911 0.51346 0.26652 0.0
C284 C 0.36811 0.49655 0.26273 0.0
C285 C 0.34991 0.49845 0.19737 0.0
C286 C 0.42282 0.50425 0.48598 0.0
C287 C 0.44779 0.51018 0.45998 0.0
C288 C 0.40381 0.5047 0.4231 0.0
C289 C 0.40931 0.5112 0.33277 0.0
C290 C 0.43443 0.51639 0.30654 0.0
C291 C 0.45338 0.51587 0.36918 0.0
H292 H 1.0011 0.3242 0.26975 0.0
H293 H 0.02598 0.37129 0.05086 0.0
H294 H 1.0059 0.35875 0.37646 0.0
H295 H 0.03131 0.40576 0.15731 0.0
H296 H 1.00526 0.46632 0.35126 0.0
H297 H 1.00638 0.43189 0.24407 0.0
H298 H 0.03321 0.38786 0.45312 0.0
H299 H 0.03132 0.42212 0.56056 0.0
C300 C 1.00813 0.34182 0.24474 0.0
C301 C 0.01296 0.34499 0.15169 0.0
C302 C 1.0109 0.36171 0.30593 0.0
C303 C 0.01877 0.38526 0.27573 0.0
C304 C 0.02465 0.38811 0.18306 0.0
C305 C 0.02173 0.36829 0.12196 0.0
C306 C 1.01163 0.44935 0.37391 0.0
C307 C 0.01802 0.44688 0.46448 0.0
C308 C 1.0124 0.42957 0.31236 0.0
C309 C 0.01972 0.40687 0.33973 0.0
C310 C 0.027 0.40481 0.42977 0.0
C311 C 0.02611 0.42454 0.49131 0.0
H312 H 0.82682 0.9829 0.8846 0.0
H313 H 0.8744 1.00582 0.10487 0.0
H314 H 0.86204 0.98757 0.77849 0.0
H315 H 0.90958 0.01236 -0.00125 0.0
H316 H 0.97417 1.00005 0.80236 0.0
H317 H 0.93898 0.99531 0.90951 0.0
H318 H 0.88957 0.01179 0.69761 0.0
H319 H 0.92443 0.0145 0.59049 0.0
C320 C 0.8448 0.98957 0.90982 0.0
C321 C 0.84784 0.99411 0.00281 0.0
C322 C 0.86514 0.99239 0.84888 0.0
C323 C 0.88909 1.00042 0.87887 0.0
C324 C 0.89181 1.0056 0.97226 0.0
C325 C 0.87154 1.00218 0.03339 0.0
C326 C 0.9557 1.00243 0.77899 0.0
C327 C 0.95208 1.00742 0.68784 0.0
C328 C 0.93542 1.0 0.84068 0.0
C329 C 0.911 1.00309 0.81333 0.0
C330 C 0.9077 1.00856 0.72194 0.0
C331 C 0.92785 1.01036 0.6601 0.0
H332 H 0.52916 0.82028 0.87317 0.0
H333 H 0.54724 0.87006 0.09611 0.0
H334 H 0.52172 0.85492 0.7787 0.0
H335 H 0.53971 0.90442 0.00285 0.0
H336 H 0.55743 0.96054 0.78683 0.0
H337 H 0.56092 0.92481 0.87739 0.0
H338 H 0.49606 0.8892 0.75221 0.0
H339 H 0.49269 0.9251 0.65984 0.0
C340 C 0.53108 0.83855 0.90255 0.0
C341 C 0.53913 0.84238 0.99191 0.0
C342 C 0.52687 0.85844 0.84835 0.0
C343 C 0.5306 0.8826 0.88236 0.0
C344 C 0.53734 0.8862 0.97328 0.0
C345 C 0.54155 0.86644 0.02706 0.0
C346 C 0.54386 0.94515 0.77809 0.0
C347 C 0.52469 0.94591 0.71592 0.0
C348 C 0.54578 0.92462 0.83081 0.0
C349 C 0.52859 0.90411 0.82329 0.0
C350 C 0.50969 0.90458 0.75975 0.0
C351 C 0.50771 0.92524 0.70692 0.0
H352 H 0.70082 0.5463 0.86548 0.0
H353 H 0.65296 0.51682 0.08023 0.0
H354 H 0.66694 0.53991 0.75986 0.0
H355 H 0.61928 0.50869 0.97422 0.0
H356 H 0.55512 0.5206 0.79072 0.0
H357 H 0.58941 0.52564 0.89535 0.0
H358 H 0.6414 0.51514 0.67221 0.0
H359 H 0.60724 0.5119 0.56815 0.0
C360 C 0.68317 0.53771 0.88921 0.0
C361 C 0.67958 0.53183 0.98066 0.0
C362 C 0.6636 0.53395 0.82862 0.0
C363 C 0.63993 0.5238 0.85749 0.0
C364 C 0.63682 0.51708 0.94891 0.0
C365 C 0.65626 0.52134 0.00977 0.0
C366 C 0.57394 0.51954 0.76434 0.0
C367 C 0.57843 0.51602 0.67109 0.0
C368 C 0.59373 0.52216 0.82451 0.0
C369 C 0.61859 0.5208 0.79334 0.0
C370 C 0.62283 0.51691 0.69968 0.0
C371 C 0.60312 0.51484 0.63956 0.0
H372 H 0.97934 0.64996 0.07304 0.0
H373 H 0.99399 0.69798 0.84824 0.0
H374 H 0.99199 0.61566 0.97962 0.0
H375 H 1.00595 0.66366 0.75359 0.0
H376 H 0.0439 0.60197 0.61871 0.0
H377 H 0.03552 0.63553 0.7224 0.0
H378 H 0.97868 0.58915 0.85906 0.0
H379 H 0.98798 0.55522 0.75642 0.0
C380 C 0.98533 0.65318 0.00352 0.0
C381 C 0.98565 0.67673 0.96807 0.0
C382 C 0.99242 0.63345 0.94962 0.0
C383 C 0.99986 0.63664 0.85839 0.0
C384 C 1.00073 0.66038 0.82373 0.0
C385 C 0.99386 0.68016 0.87799 0.0
C386 C 0.02975 0.59888 0.6715 0.0
C387 C 0.0166 0.57594 0.67954 0.0
C388 C 0.02477 0.61824 0.73066 0.0
C389 C 1.0062 0.61535 0.79905 0.0
C390 C 0.99334 0.59213 0.80818 0.0
C391 C 0.99858 0.57261 0.74928 0.0
H392 H 0.05679 0.20782 0.24089 0.0
H393 H 0.97696 0.20638 0.24159 0.0
H394 H 0.05424 0.16914 0.31538 0.0
H395 H 0.97396 0.16807 0.32238 0.0
H396 H 0.97762 0.08489 0.29321 0.0
H397 H 0.97832 0.1287 0.26844 0.0
H398 H 0.04608 0.1399 0.419 0.0
H399 H 0.04634 0.09627 0.43567 0.0
C400 C 0.03867 0.20001 0.26329 0.0
C401 C 0.0171 0.20985 0.2347 0.0
C402 C 0.03708 0.1775 0.30527 0.0
C403 C 0.0138 0.16474 0.32177 0.0
C404 C 0.99222 0.17679 0.30707 0.0
C405 C 0.99387 0.19916 0.26336 0.0
C406 C 0.99284 0.09683 0.31911 0.0
C407 C 1.01227 0.08719 0.36375 0.0
C408 C 0.99304 0.12203 0.30692 0.0
C409 C 1.01228 0.13816 0.34188 0.0
C410 C 0.03127 0.12828 0.38894 0.0
C411 C 0.03148 0.10314 0.39833 0.0
H412 H 0.3169 0.94945 0.16253 0.0
H413 H 0.31397 0.02209 0.27611 0.0
H414 H 0.34862 0.94114 0.26977 0.0
H415 H 0.34617 0.0145 0.38063 0.0
H416 H 0.40975 1.00212 0.5427 0.0
H417 H 0.36688 0.99619 0.49529 0.0
H418 H 0.39097 0.95614 0.25721 0.0
H419 H 0.43368 0.961 0.3081 0.0
C420 C 0.32212 0.96314 0.21396 0.0
C421 C 0.31317 0.98638 0.21161 0.0
C422 C 0.34062 0.95861 0.27413 0.0
C423 C 0.3506 0.97741 0.33171 0.0
C424 C 0.33904 0.99952 0.33746 0.0
C425 C 0.32039 1.00392 0.27792 0.0
C426 C 0.40574 0.99162 0.48116 0.0
C427 C 0.42497 0.98231 0.42809 0.0
C428 C 0.38118 0.98826 0.45392 0.0
C429 C 0.37538 0.97595 0.37189 0.0
C430 C 0.39458 0.96543 0.32149 0.0
C431 C 0.41914 0.96843 0.34981 0.0
H432 H 0.46742 0.31832 0.20248 0.0
H433 H 0.54671 0.31397 0.20271 0.0
H434 H 0.47174 0.35715 0.28233 0.0
H435 H 0.55134 0.35245 0.28861 0.0
H436 H 0.55363 0.43615 0.26655 0.0
H437 H 0.55042 0.39205 0.23782 0.0
H438 H 0.48071 0.38598 0.39074 0.0
H439 H 0.48295 0.42982 0.411 0.0
C440 C 0.48565 0.32495 0.22564 0.0
C441 C 0.50674 0.31348 0.1955 0.0
C442 C 0.48828 0.34749 0.27086 0.0
C443 C 0.51208 0.35861 0.28885 0.0
C444 C 0.53282 0.34496 0.27232 0.0
C445 C 0.53016 0.32253 0.22549 0.0
C446 C 0.53746 0.42527 0.29199 0.0
C447 C 0.51821 0.43639 0.3382 0.0
C448 C 0.5358 0.39993 0.2776 0.0
C449 C 0.51524 0.3852 0.31201 0.0
C450 C 0.49648 0.39654 0.361 0.0
C451 C 0.49774 0.4218 0.37239 0.0
H452 H 0.21105 0.56462 0.15344 0.0
H453 H 0.21289 0.49202 0.25419 0.0
H454 H 0.1699 0.56749 0.22041 0.0
H455 H 0.17223 0.49523 0.32732 0.0
H456 H 0.08977 0.48747 0.27676 0.0
H457 H 0.13458 0.49084 0.25112 0.0
H458 H 0.13695 0.56763 0.32483 0.0
H459 H 0.09188 0.56434 0.34501 0.0
C460 C 0.20339 0.55 0.19617 0.0
C461 C 0.21478 0.52792 0.19725 0.0
C462 C 0.17951 0.55145 0.23357 0.0
C463 C 0.16715 0.53104 0.27518 0.0
C464 C 0.18075 0.51082 0.29164 0.0
C465 C 0.20441 0.50922 0.25238 0.0
C466 C 0.09987 0.50518 0.28488 0.0
C467 C 0.08739 0.52568 0.31146 0.0
C468 C 0.12565 0.50705 0.27263 0.0
C469 C 0.13963 0.52939 0.28867 0.0
C470 C 0.12691 0.55013 0.31193 0.0
C471 C 0.10102 0.54832 0.32249 0.0
H472 H 0.06119 0.8202 0.98525 0.0
H473 H 0.99044 0.80885 0.85676 0.0
H474 H 0.06878 0.85942 0.91291 0.0
H475 H 0.99823 0.84776 0.78161 0.0
H476 H 0.99499 0.92965 0.84096 0.0
H477 H 0.99503 0.8861 0.86612 0.0
H478 H 0.07313 0.88866 0.79147 0.0
H479 H 0.07313 0.93256 0.768 0.0
C480 C 0.04806 0.82534 0.93637 0.0
C481 C 0.02501 0.81183 0.92799 0.0
C482 C 0.05224 0.84802 0.89574 0.0
C483 C 0.03356 0.85716 0.84495 0.0
C484 C 0.01256 0.84154 0.82331 0.0
C485 C 1.00833 0.81895 0.86449 0.0
C486 C 1.01225 0.92099 0.83132 0.0
C487 C 0.03407 0.93449 0.80327 0.0
C488 C 1.01219 0.89592 0.84383 0.0
C489 C 0.03395 0.88374 0.82826 0.0
C490 C 0.05604 0.89745 0.8033 0.0
C491 C 0.05608 0.92261 0.7908 0.0
H492 H 0.71819 0.99629 0.8742 0.0
H493 H 0.71977 0.06982 0.98295 0.0
H494 H 0.68654 1.00534 0.76943 0.0
H495 H 0.68857 0.07946 0.87573 0.0
H496 H 0.60271 0.0639 0.83695 0.0
H497 H 0.64537 0.06662 0.88896 0.0
H498 H 0.66769 0.02497 0.65234 0.0
H499 H 0.62491 0.02124 0.60374 0.0
C500 C 0.71284 0.01485 0.87154 0.0
C501 C 0.72113 0.03231 0.93666 0.0
C502 C 0.69453 0.0201 0.81179 0.0
C503 C 0.68443 0.04298 0.81607 0.0
C504 C 0.69545 0.06147 0.87255 0.0
C505 C 0.71361 0.05612 0.9328 0.0
C506 C 0.61688 0.05571 0.79572 0.0
C507 C 0.61054 0.04201 0.71752 0.0
C508 C 0.64141 0.05745 0.82472 0.0
C509 C 0.66002 0.0458 0.77511 0.0
C510 C 0.65381 0.03375 0.69305 0.0
C511 C 0.62929 0.03166 0.66511 0.0
H512 H 0.45704 0.69901 0.0084 0.0
H513 H 0.52973 0.71263 0.88349 0.0
H514 H 0.45229 0.65946 0.93104 0.0
H515 H 0.52468 0.67351 0.80258 0.0
H516 H 0.53094 0.59251 0.84944 0.0
H517 H 0.52846 0.6359 0.88077 0.0
H518 H 0.45111 0.62951 0.80914 0.0
H519 H 0.45352 0.58578 0.78024 0.0
C520 C 0.47127 0.69423 0.9594 0.0
C521 C 0.49404 0.70844 0.95389 0.0
C522 C 0.46869 0.67139 0.91575 0.0
C523 C 0.48867 0.66287 0.86437 0.0
C524 C 0.5094 0.67922 0.845 0.0
C525 C 0.51207 0.70192 0.88954 0.0
C526 C 0.51331 0.60031 0.842 0.0
C527 C 0.49241 0.5858 0.81312 0.0
C528 C 0.51198 0.62527 0.85794 0.0
C529 C 0.48975 0.63635 0.84473 0.0
C530 C 0.46854 0.6216 0.81922 0.0
C531 C 0.46986 0.59653 0.80364 0.0
H532 H 0.81637 0.5328 0.89538 0.0
H533 H 0.81239 0.46045 0.00301 0.0
H534 H 0.85584 0.52551 0.81896 0.0
H535 H 0.85198 0.45314 0.92785 0.0
H536 H 0.92607 0.45026 0.76194 0.0
H537 H 0.88147 0.45127 0.79439 0.0
H538 H 0.89428 0.52397 0.90972 0.0
H539 H 0.93869 0.52303 0.87672 0.0
C540 C 0.82316 0.5148 0.89788 0.0
C541 C 0.81162 0.49727 0.95565 0.0
C542 C 0.84602 0.5108 0.85596 0.0
C543 C 0.85738 0.48914 0.87074 0.0
C544 C 0.8438 0.47011 0.91612 0.0
C545 C 0.82094 0.47414 0.95812 0.0
C546 C 0.91936 0.46624 0.79588 0.0
C547 C 0.93579 0.48655 0.81718 0.0
C548 C 0.89384 0.4669 0.81348 0.0
C549 C 0.88436 0.48795 0.85199 0.0
C550 C 0.90099 0.50778 0.87723 0.0
C551 C 0.92647 0.50707 0.86014 0.0
H552 H 0.98484 0.18579 0.92274 0.0
H553 H 0.06375 0.203 0.89044 0.0
H554 H 0.98895 0.14593 0.84895 0.0
H555 H 0.06791 0.16321 0.81436 0.0
H556 H 0.05371 0.09439 0.61319 0.0
H557 H 0.05238 0.13616 0.67291 0.0
H558 H 1.01166 0.10909 0.90969 0.0
H559 H 0.01329 0.06712 0.85042 0.0
C560 C 1.00287 0.18148 0.89563 0.0
C561 C 0.02389 0.19765 0.91015 0.0
C562 C 1.00531 0.1585 0.85523 0.0
C563 C 0.02881 0.15134 0.82758 0.0
C564 C 0.04959 0.16828 0.83526 0.0
C565 C 0.04719 0.19117 0.8773 0.0
C566 C 0.04493 0.09732 0.67896 0.0
C567 C 0.03367 0.07749 0.72743 0.0
C568 C 0.04414 0.12123 0.71287 0.0
C569 C 0.03162 0.12587 0.79515 0.0
C570 C 0.02116 0.106 0.84538 0.0
C571 C 0.02237 0.08199 0.8122 0.0
H572 H 0.3458 0.97388 0.90893 0.0
H573 H 0.33782 0.05097 0.89294 0.0
H574 H 0.38641 0.97898 0.83663 0.0
H575 H 0.37839 0.05627 0.81365 0.0
H576 H 0.46443 0.06143 0.78787 0.0
H577 H 0.42086 0.05786 0.83935 0.0
H578 H 0.41233 0.98546 0.71722 0.0
H579 H 0.45599 0.98834 0.67459 0.0
C580 C 0.35244 0.99188 0.88629 0.0
C581 C 0.33858 0.01199 0.90649 0.0
C582 C 0.3759 0.9949 0.84424 0.0
C583 C 0.38623 0.01815 0.81904 0.0
C584 C 0.3715 0.03813 0.83354 0.0
C585 C 0.34796 0.03509 0.87725 0.0
C586 C 0.45315 0.04475 0.77275 0.0
C587 C 0.46366 0.02525 0.72652 0.0
C588 C 0.428 0.04276 0.80117 0.0
C589 C 0.41263 0.02131 0.78304 0.0
C590 C 0.42332 1.00209 0.73501 0.0
C591 C 0.44846 1.00387 0.70894 0.0
H592 H 0.4646 0.3187 0.85128 0.0
H593 H 0.54304 0.335 0.88795 0.0
H594 H 0.46227 0.35832 0.77984 0.0
H595 H 0.5407 0.37475 0.81915 0.0
H596 H 0.51652 0.4543 0.82942 0.0
H597 H 0.51752 0.41243 0.8824 0.0
H598 H 0.48039 0.38484 0.64191 0.0
H599 H 0.47978 0.4265 0.58828 0.0
C600 C 0.48153 0.33026 0.84007 0.0
C601 C 0.50414 0.32347 0.87268 0.0
C602 C 0.48015 0.3531 0.80067 0.0
C603 C 0.50122 0.36982 0.79551 0.0
C604 C 0.52409 0.36239 0.82326 0.0
C605 C 0.52555 0.33944 0.86082 0.0
C606 C 0.50817 0.43934 0.78879 0.0
C607 C 0.498 0.44375 0.70488 0.0
C608 C 0.50901 0.41536 0.81847 0.0
C609 C 0.49927 0.39532 0.76574 0.0
C610 C 0.48806 0.39984 0.68394 0.0
C611 C 0.48769 0.42373 0.65343 0.0
H612 H 0.19994 0.54713 0.88349 0.0
H613 H 0.20072 0.46883 0.86887 0.0
H614 H 0.1597 0.54437 0.81046 0.0
H615 H 0.16061 0.46608 0.79228 0.0
H616 H 0.09716 0.48578 0.58053 0.0
H617 H 0.13932 0.48553 0.63736 0.0
H618 H 0.11594 0.5211 0.88507 0.0
H619 H 0.07343 0.52073 0.82949 0.0
C620 C 0.19207 0.5294 0.86037 0.0
C621 C 0.20374 0.50823 0.88004 0.0
C622 C 0.16884 0.5278 0.82015 0.0
C623 C 0.15691 0.50501 0.79707 0.0
C624 C 0.16944 0.48388 0.80964 0.0
C625 C 0.19255 0.48546 0.85197 0.0
C626 C 0.10091 0.49327 0.6477 0.0
C627 C 0.08192 0.50328 0.70067 0.0
C628 C 0.12505 0.49307 0.68006 0.0
C629 C 0.13091 0.50344 0.76517 0.0
C630 C 0.1119 0.5131 0.81888 0.0
C631 C 0.08756 0.51275 0.78743 0.0
H632 H 0.02062 0.8173 0.31424 0.0
H633 H 0.96018 0.83582 0.15153 0.0
H634 H 0.01943 0.85635 0.39701 0.0
H635 H 0.95898 0.87502 0.23333 0.0
H636 H 0.99561 0.95393 0.30127 0.0
H637 H 0.98908 0.91267 0.23461 0.0
H638 H 0.99409 0.88204 0.49887 0.0
H639 H 1.00053 0.92269 0.56519 0.0
C640 C 1.00632 0.82927 0.29929 0.0
C641 C 0.99006 0.82334 0.2284 0.0
C642 C 1.00579 0.85176 0.34572 0.0
C643 C 0.98929 0.86893 0.32088 0.0
C644 C 0.97208 0.86233 0.25332 0.0
C645 C 0.97242 0.83973 0.2078 0.0
C646 C 0.99506 0.9384 0.34511 0.0
C647 C 0.99875 0.94178 0.43846 0.0
C648 C 0.9912 0.91476 0.3071 0.0
C649 C 0.99117 0.89406 0.36158 0.0
C650 C 0.99428 0.89753 0.45494 0.0
C651 C 0.99791 0.92099 0.49285 0.0
H652 H 0.69699 0.97205 0.26258 0.0
H653 H 0.69153 0.04955 0.24554 0.0
H654 H 0.65636 0.968 0.34091 0.0
H655 H 0.65068 0.04562 0.31641 0.0
H656 H 0.57946 0.03761 0.47125 0.0
H657 H 0.6233 0.03989 0.43139 0.0
H658 H 0.61444 0.96712 0.31237 0.0
H659 H 0.57069 0.96421 0.36103 0.0
C660 C 0.6874 0.98831 0.27783 0.0
C661 C 0.69748 0.01111 0.24775 0.0
C662 C 0.66378 0.98597 0.32088 0.0
C663 C 0.64957 1.00636 0.33398 0.0
C664 C 0.66069 0.02937 0.30933 0.0
C665 C 0.68431 0.03171 0.26805 0.0
C666 C 0.58695 0.02189 0.43804 0.0
C667 C 0.57161 1.00058 0.42068 0.0
C668 C 0.61222 0.02331 0.41361 0.0
C669 C 0.6229 1.00377 0.3676 0.0
C670 C 0.60735 0.98245 0.3493 0.0
C671 C 0.58207 0.98084 0.37604 0.0
H672 H 0.48143 0.68944 0.28112 0.0
H673 H 0.561 0.70291 0.25162 0.0
H674 H 0.4868 0.65074 0.3531 0.0
H675 H 0.56632 0.66432 0.32716 0.0
H676 H 0.54568 0.59867 0.55838 0.0
H677 H 0.54612 0.64025 0.50163 0.0
H678 H 0.51315 0.61188 0.25463 0.0
H679 H 0.51326 0.57018 0.30994 0.0
C680 C 0.5001 0.68459 0.29336 0.0
C681 C 0.52079 0.69924 0.26042 0.0
C682 C 0.50313 0.66232 0.3336 0.0
C683 C 0.52693 0.65441 0.34392 0.0
C684 C 0.54776 0.67002 0.31933 0.0
C685 C 0.54472 0.69225 0.27739 0.0
C686 C 0.53902 0.60124 0.49109 0.0
C687 C 0.5295 0.58109 0.43845 0.0
C688 C 0.53929 0.62504 0.45885 0.0
C689 C 0.52957 0.6292 0.37415 0.0
C690 C 0.52075 0.60908 0.3203 0.0
C691 C 0.52096 0.58523 0.35167 0.0
H692 H 0.81512 0.49189 0.32776 0.0
H693 H 0.83658 0.56101 0.20661 0.0
H694 H 0.85466 0.49371 0.40548 0.0
H695 H 0.8763 0.56295 0.28362 0.0
H696 H 0.95565 0.53522 0.31842 0.0
H697 H 0.9139 0.53917 0.26204 0.0
H698 H 0.88181 0.51522 0.51841 0.0
H699 H 0.92305 0.51119 0.57453 0.0
C700 C 0.82781 0.50805 0.32149 0.0
C701 C 0.82246 0.52664 0.26336 0.0
C702 C 0.85064 0.509 0.36497 0.0
C703 C 0.86886 0.52835 0.34989 0.0
C704 C 0.86286 0.54765 0.29588 0.0
C705 C 0.83989 0.54682 0.25336 0.0
C706 C 0.93971 0.53093 0.36287 0.0
C707 C 0.94292 0.52281 0.45095 0.0
C708 C 0.91575 0.53335 0.33082 0.0
C709 C 0.89443 0.52751 0.38575 0.0
C710 C 0.89772 0.51969 0.47397 0.0
C711 C 0.92154 0.51747 0.50617 0.0
loop_
_geom_bond_atom_site_label_1
_geom_bond_atom_site_label_2
_geom_bond_distance
_geom_bond_site_symmetry_2
_ccdc_geom_bond_type
H0 C1 0.949 1_556 S
C1 H0 0.949 1_554 S
C1 C2 1.395 . S
C1 C3 1.391 . S
C2 C1 1.395 . S
C2 C5 1.390 . S
C3 C1 1.391 . S
C3 C7 1.387 . S
C3 C8 1.491 . S
H4 C5 0.950 . S
C5 C2 1.390 . S
C5 H4 0.950 . S
C5 C6 1.378 . S
C6 C5 1.378 . S
C6 C7 1.409 . S
C7 C3 1.387 . S
C7 C6 1.409 . S
C7 H9 0.951 . S
C8 C3 1.491 . S
C8 C10 1.382 . S
C8 C12 1.404 . S
H9 C7 0.951 . S
C10 C8 1.382 . S
C10 C11 1.390 . S
C10 H15 0.949 1_554 S
C11 C10 1.390 . S
C11 C16 1.399 . S
C12 C8 1.404 . S
C12 H13 0.950 . S
C12 C14 1.375 . S
H13 C12 0.950 . S
C14 C12 1.375 . S
C14 C16 1.382 . S
C14 H18 0.950 . S
H15 C10 0.949 1_556 S
C16 C11 1.399 . S
C16 C14 1.382 . S
C16 H17 0.952 . S
H17 C16 0.952 . S
H18 C14 0.950 . S
H19 C20 0.949 . S
C20 H19 0.949 . S
C20 C21 1.395 . S
C20 C22 1.391 1_556 S
C21 C20 1.395 . S
C21 C24 1.390 1_656 S
C22 C20 1.391 1_554 S
C22 C26 1.387 . S
C22 C27 1.491 . S
H23 C24 0.950 . S
C24 C21 1.390 1_454 S
C24 H23 0.950 . S
C24 C25 1.378 1_455 S
C25 C24 1.378 1_655 S
C25 C26 1.409 . S
C26 C22 1.387 . S
C26 C25 1.409 . S
C26 H28 0.951 . S
C27 C22 1.491 . S
C27 C29 1.382 1_554 S
C27 C31 1.404 . S
H28 C26 0.951 . S
C29 C27 1.382 1_556 S
C29 C30 1.390 . S
C29 H34 0.949 1_655 S
C30 C29 1.390 . S
C30 C35 1.399 1_556 S
C31 C27 1.404 . S
C31 H32 0.950 . S
C31 C33 1.375 . S
H32 C31 0.950 . S
C33 C31 1.375 . S
C33 C35 1.382 . S
C33 H37 0.950 . S
H34 C29 0.949 1_455 S
C35 C30 1.399 1_554 S
C35 C33 1.382 . S
C35 H36 0.952 . S
H36 C35 0.952 . S
H37 C33 0.950 . S
H38 C39 0.949 . S
C39 H38 0.949 . S
C39 C40 1.395 . S
C39 C41 1.391 1_556 S
C40 C39 1.395 . S
C40 C43 1.390 1_556 S
C41 C39 1.391 1_554 S
C41 C45 1.387 . S
C41 C46 1.491 . S
H42 C43 0.950 . S
C43 C40 1.390 1_554 S
C43 H42 0.950 . S
C43 C44 1.378 . S
C44 C43 1.378 . S
C44 C45 1.409 . S
C45 C41 1.387 . S
C45 C44 1.409 . S
C45 H47 0.951 . S
C46 C41 1.491 . S
C46 C48 1.382 1_554 S
C46 C50 1.404 . S
H47 C45 0.951 . S
C48 C46 1.382 1_556 S
C48 C49 1.390 . S
C48 H53 0.949 . S
C49 C48 1.390 . S
C49 C54 1.399 1_556 S
C50 C46 1.404 . S
C50 H51 0.950 . S
C50 C52 1.375 . S
H51 C50 0.950 . S
C52 C50 1.375 . S
C52 C54 1.382 . S
C52 H56 0.950 . S
H53 C48 0.949 . S
C54 C49 1.399 1_554 S
C54 C52 1.382 . S
C54 H55 0.952 . S
H55 C54 0.952 . S
H56 C52 0.950 . S
H57 C58 0.949 1_556 S
C58 H57 0.949 1_554 S
C58 C59 1.395 . S
C58 C60 1.391 . S
C59 C58 1.395 . S
C59 C62 1.390 . S
C60 C58 1.391 . S
C60 C64 1.387 . S
C60 C65 1.491 . S
H61 C62 0.950 . S
C62 C59 1.390 . S
C62 H61 0.950 . S
C62 C63 1.378 . S
C63 C62 1.378 . S
C63 C64 1.409 . S
C64 C60 1.387 . S
C64 C63 1.409 . S
C64 H66 0.951 . S
C65 C60 1.491 . S
C65 C67 1.382 . S
C65 C69 1.404 . S
H66 C64 0.951 . S
C67 C65 1.382 . S
C67 C68 1.390 . S
C67 H72 0.949 . S
C68 C67 1.390 . S
C68 C73 1.399 . S
C69 C65 1.404 . S
C69 H70 0.950 . S
C69 C71 1.375 . S
H70 C69 0.950 . S
C71 C69 1.375 . S
C71 C73 1.382 . S
C71 H75 0.950 . S
H72 C67 0.949 . S
C73 C68 1.399 . S
C73 C71 1.382 . S
C73 H74 0.952 . S
H74 C73 0.952 . S
H75 C71 0.950 . S
H76 C77 0.949 . S
C77 H76 0.949 . S
C77 C78 1.395 . S
C77 C79 1.391 . S
C78 C77 1.395 . S
C78 C81 1.390 . S
C79 C77 1.391 . S
C79 C83 1.387 1_554 S
C79 C84 1.491 . S
H80 C81 0.950 . S
C81 C78 1.390 . S
C81 H80 0.950 . S
C81 C82 1.378 1_554 S
C82 C81 1.378 1_556 S
C82 C83 1.409 . S
C83 C79 1.387 1_556 S
C83 C82 1.409 . S
C83 H85 0.951 . S
C84 C79 1.491 . S
C84 C86 1.382 . S
C84 C88 1.404 . S
H85 C83 0.951 . S
C86 C84 1.382 . S
C86 C87 1.390 . S
C86 H91 0.949 . S
C87 C86 1.390 . S
C87 C92 1.399 . S
C88 C84 1.404 . S
C88 H89 0.950 1_554 S
C88 C90 1.375 . S
H89 C88 0.950 1_556 S
C90 C88 1.375 . S
C90 C92 1.382 . S
C90 H94 0.950 1_554 S
H91 C86 0.949 . S
C92 C87 1.399 . S
C92 C90 1.382 . S
C92 H93 0.952 . S
H93 C92 0.952 . S
H94 C90 0.950 1_556 S
H95 C96 0.949 . S
C96 H95 0.949 . S
C96 C97 1.395 . S
C96 C98 1.384 1_455 S
C97 C96 1.395 . S
C97 C100 1.390 . S
C98 C96 1.384 1_655 S
C98 C102 1.384 1_655 S
C98 C103 1.503 . S
H99 C100 0.950 . S
C100 C97 1.390 . S
C100 H99 0.950 . S
C100 C101 1.378 1_554 S
C101 C100 1.378 1_556 S
C101 C102 1.409 1_556 S
C102 C98 1.384 1_455 S
C102 C101 1.409 1_554 S
C102 H104 0.949 1_454 S
C103 C98 1.503 . S
C103 C105 1.382 1_655 S
C103 C107 1.404 . S
H104 C102 0.949 1_656 S
C105 C103 1.382 1_455 S
C105 C106 1.379 1_455 S
C105 H110 0.949 . S
C106 C105 1.379 1_655 S
C106 C111 1.426 . S
C107 C103 1.404 . S
C107 H108 0.950 1_554 S
C107 C109 1.375 . S
H108 C107 0.950 1_556 S
C109 C107 1.375 . S
C109 C111 1.382 . S
C109 H113 0.949 1_554 S
H110 C105 0.949 . S
C111 C106 1.426 . S
C111 C109 1.382 . S
C111 H112 0.952 . S
H112 C111 0.952 . S
H113 C109 0.949 1_556 S
H114 C115 0.949 . S
C115 H114 0.949 . S
C115 C116 1.395 . S
C115 C117 1.391 . S
C116 C115 1.395 . S
C116 C119 1.390 . S
C117 C115 1.391 . S
C117 C121 1.387 . S
C117 C122 1.491 . S
H118 C119 0.950 . S
C119 C116 1.390 . S
C119 H118 0.950 . S
C119 C120 1.378 . S
C120 C119 1.378 . S
C120 C121 1.409 . S
C121 C117 1.387 . S
C121 C120 1.409 . S
C121 H123 0.951 1_554 S
C122 C117 1.491 . S
C122 C124 1.382 . S
C122 C126 1.404 . S
H123 C121 0.951 1_556 S
C124 C122 1.382 . S
C124 C125 1.390 . S
C124 H129 0.949 . S
C125 C124 1.390 . S
C125 C130 1.399 . S
C126 C122 1.404 . S
C126 H127 0.950 1_554 S
C126 C128 1.375 . S
H127 C126 0.950 1_556 S
C128 C126 1.375 . S
C128 C130 1.382 . S
C128 H132 0.950 1_545 S
H129 C124 0.949 . S
C130 C125 1.399 . S
C130 C128 1.382 . S
C130 H131 0.952 . S
H131 C130 0.952 . S
H132 C128 0.950 1_565 S
H133 C134 0.949 . S
C134 H133 0.949 . S
C134 C135 1.395 . S
C134 C136 1.391 . S
C135 C134 1.395 . S
C135 C138 1.390 . S
C136 C134 1.391 . S
C136 C140 1.387 1_554 S
C136 C141 1.491 . S
H137 C138 0.950 . S
C138 C135 1.390 . S
C138 H137 0.950 . S
C138 C139 1.378 1_554 S
C139 C138 1.378 1_556 S
C139 C140 1.409 . S
C140 C136 1.387 1_556 S
C140 C139 1.409 . S
C140 H142 0.951 . S
C141 C136 1.491 . S
C141 C143 1.382 . S
C141 C145 1.404 1_554 S
H142 C140 0.951 . S
C143 C141 1.382 . S
C143 C144 1.390 . S
C143 H148 0.949 . S
C144 C143 1.390 . S
C144 C149 1.399 . S
C145 C141 1.404 1_556 S
C145 H146 0.950 . S
C145 C147 1.375 . S
H146 C145 0.950 . S
C147 C145 1.375 . S
C147 C149 1.382 1_556 S
C147 H151 0.950 . S
H148 C143 0.949 . S
C149 C144 1.399 . S
C149 C147 1.382 1_554 S
C149 H150 0.952 . S
H150 C149 0.952 . S
H151 C147 0.950 . S
Dy152 O156 2.398 . S
Dy152 O157 2.491 1_455 S
Dy152 O158 2.403 . S
Dy152 O159 2.664 1_565 S
Dy152 O163 2.326 . S
Dy152 O167 2.310 1_455 S
Dy152 O168 2.351 1_565 S
C153 O164 1.185 . S
C153 O165 1.355 1_655 S
C154 O156 1.185 . S
C154 O157 1.355 1_455 S
Dy155 O159 2.310 1_655 S
Dy155 O162 2.351 1_545 S
Dy155 O164 2.398 . S
Dy155 O165 2.491 1_655 S
Dy155 O166 2.403 . S
Dy155 O167 2.664 1_545 S
Dy155 O169 2.326 . S
O156 Dy152 2.398 . S
O156 C154 1.185 . S
O157 Dy152 2.491 1_655 S
O157 C154 1.355 1_655 S
O158 Dy152 2.403 . S
O158 C160 1.254 1_565 S
O159 Dy152 2.664 1_545 S
O159 Dy155 2.310 1_455 S
O159 C160 1.268 . S
C160 O158 1.254 1_545 S
C160 O159 1.268 . S
C161 O166 1.254 1_565 S
C161 O167 1.268 . S
O162 Dy155 2.351 1_565 S
O162 C170 1.249 . S
O163 Dy152 2.326 . S
O163 C170 1.267 1_455 S
O164 C153 1.185 . S
O164 Dy155 2.398 . S
O165 C153 1.355 1_455 S
O165 Dy155 2.491 1_455 S
O166 Dy155 2.403 . S
O166 C161 1.254 1_545 S
O167 Dy152 2.310 1_655 S
O167 Dy155 2.664 1_565 S
O167 C161 1.268 . S
O168 Dy152 2.351 1_545 S
O168 C171 1.249 . S
O169 Dy155 2.326 . S
O169 C171 1.267 1_655 S
C170 O162 1.249 . S
C170 O163 1.267 1_655 S
C171 O168 1.249 . S
C171 O169 1.267 1_455 S
Dy172 O176 2.398 . S
Dy172 O177 2.491 1_565 S
Dy172 O178 2.403 . S
Dy172 O179 2.664 . S
Dy172 O183 2.326 1_565 S
Dy172 O187 2.310 1_565 S
Dy172 O188 2.351 . S
C173 O184 1.186 1_565 S
C173 O185 1.355 . S
C174 O176 1.185 1_545 S
C174 O177 1.355 . S
Dy175 O179 2.310 1_545 S
Dy175 O182 2.351 . S
Dy175 O184 2.398 . S
Dy175 O185 2.491 1_545 S
Dy175 O186 2.403 . S
Dy175 O187 2.664 . S
Dy175 O189 2.326 1_545 S
O176 Dy172 2.398 . S
O176 C174 1.185 1_565 S
O177 Dy172 2.491 1_545 S
O177 C174 1.355 . S
O178 Dy172 2.403 . S
O178 C180 1.254 . S
O179 Dy172 2.664 . S
O179 Dy175 2.310 1_565 S
O179 C180 1.268 . S
C180 O178 1.254 . S
C180 O179 1.268 . S
C181 O186 1.254 . S
C181 O187 1.268 . S
O182 Dy175 2.351 . S
O182 C190 1.249 . S
O183 Dy172 2.326 1_545 S
O183 C190 1.267 . S
O184 C173 1.186 1_545 S
O184 Dy175 2.398 . S
O185 C173 1.355 . S
O185 Dy175 2.491 1_565 S
O186 Dy175 2.403 . S
O186 C181 1.254 . S
O187 Dy172 2.310 1_545 S
O187 Dy175 2.664 . S
O187 C181 1.268 . S
O188 Dy172 2.351 . S
O188 C191 1.249 . S
O189 Dy175 2.326 1_565 S
O189 C191 1.267 . S
C190 O182 1.249 . S
C190 O183 1.267 . S
C191 O188 1.249 . S
C191 O189 1.267 . S
Dy192 O196 2.398 . S
Dy192 O197 2.491 . S
Dy192 O198 2.403 . S
Dy192 O199 2.664 . S
Dy192 O203 2.326 . S
Dy192 O207 2.310 . S
Dy192 O208 2.351 . S
C193 O204 1.185 . S
C193 O205 1.355 . S
C194 O196 1.185 . S
C194 O197 1.355 . S
Dy195 O199 2.310 . S
Dy195 O202 2.351 . S
Dy195 O204 2.398 . S
Dy195 O205 2.491 . S
Dy195 O206 2.403 . S
Dy195 O207 2.664 . S
Dy195 O209 2.326 . S
O196 Dy192 2.398 . S
O196 C194 1.185 . S
O197 Dy192 2.491 . S
O197 C194 1.355 . S
O198 Dy192 2.403 . S
O198 C200 1.254 . S
O199 Dy192 2.664 . S
O199 Dy195 2.310 . S
O199 C200 1.268 . S
C200 O198 1.254 . S
C200 O199 1.268 . S
C201 O206 1.254 . S
C201 O207 1.268 . S
O202 Dy195 2.351 . S
O202 C210 1.249 . S
O203 Dy192 2.326 . S
O203 C210 1.267 . S
O204 C193 1.185 . S
O204 Dy195 2.398 . S
O205 C193 1.355 . S
O205 Dy195 2.491 . S
O206 Dy195 2.403 . S
O206 C201 1.254 . S
O207 Dy192 2.310 . S
O207 Dy195 2.664 . S
O207 C201 1.268 . S
O208 Dy192 2.351 . S
O208 C211 1.249 . S
O209 Dy195 2.326 . S
O209 C211 1.267 . S
C210 O202 1.249 . S
C210 O203 1.267 . S
C211 O208 1.249 . S
C211 O209 1.267 . S
Dy212 O216 2.398 . S
Dy212 O217 2.491 . S
Dy212 O218 2.403 . S
Dy212 O219 2.664 1_655 S
Dy212 O223 2.326 . S
Dy212 O227 2.310 . S
Dy212 O228 2.351 1_655 S
C213 O224 1.185 . S
C213 O225 1.355 . S
C214 O216 1.185 . S
C214 O217 1.355 . S
Dy215 O219 2.310 . S
Dy215 O222 2.351 1_455 S
Dy215 O224 2.398 . S
Dy215 O225 2.491 . S
Dy215 O226 2.403 . S
Dy215 O227 2.664 1_455 S
Dy215 O229 2.326 . S
O216 Dy212 2.398 . S
O216 C214 1.185 . S
O217 Dy212 2.491 . S
O217 C214 1.355 . S
O218 Dy212 2.403 . S
O218 C220 1.254 . S
O219 Dy212 2.664 1_455 S
O219 Dy215 2.310 . S
O219 C220 1.268 1_455 S
C220 O218 1.254 . S
C220 O219 1.268 1_655 S
C221 O226 1.254 . S
C221 O227 1.268 1_455 S
O222 Dy215 2.351 1_655 S
O222 C230 1.249 . S
O223 Dy212 2.326 . S
O223 C230 1.267 . S
O224 C213 1.185 . S
O224 Dy215 2.398 . S
O225 C213 1.355 . S
O225 Dy215 2.491 . S
O226 Dy215 2.403 . S
O226 C221 1.254 . S
O227 Dy212 2.310 . S
O227 Dy215 2.664 1_655 S
O227 C221 1.268 1_655 S
O228 Dy212 2.351 1_455 S
O228 C231 1.249 . S
O229 Dy215 2.326 . S
O229 C231 1.267 . S
C230 O222 1.249 . S
C230 O223 1.267 . S
C231 O228 1.249 . S
C231 O229 1.267 . S
H232 C240 0.950 . S
H233 C245 0.950 . S
H234 C242 0.950 . S
H235 C244 0.950 . S
H236 C246 0.950 1_565 S
H237 C248 0.950 . S
H238 C250 0.950 . S
H239 C251 0.950 . S
C240 H232 0.950 . S
C240 C241 1.386 . S
C240 C242 1.391 . S
C241 C240 1.386 . S
C241 C245 1.393 . S
C242 H234 0.950 . S
C242 C240 1.391 . S
C242 C243 1.400 . S
C243 C242 1.400 . S
C243 C244 1.398 . S
C243 C249 1.491 . S
C244 H235 0.950 . S
C244 C243 1.398 . S
C244 C245 1.391 . S
C245 H233 0.950 . S
C245 C241 1.393 . S
C245 C244 1.391 . S
C246 H236 0.950 1_545 S
C246 C247 1.386 . S
C246 C248 1.391 . S
C247 C246 1.386 . S
C247 C251 1.393 . S
C248 H237 0.950 . S
C248 C246 1.391 . S
C248 C249 1.400 . S
C249 C243 1.491 . S
C249 C248 1.400 . S
C249 C250 1.398 . S
C250 H238 0.950 . S
C250 C249 1.398 . S
C250 C251 1.391 . S
C251 H239 0.950 . S
C251 C247 1.393 . S
C251 C250 1.391 . S
H252 C260 0.950 . S
H253 C265 0.950 . S
H254 C262 0.950 . S
H255 C264 0.950 . S
H256 C266 0.950 . S
H257 C268 0.950 . S
H258 C270 0.950 . S
H259 C271 0.950 . S
C260 H252 0.950 . S
C260 C261 1.386 . S
C260 C262 1.391 . S
C261 C260 1.386 . S
C261 C265 1.393 . S
C262 H254 0.950 . S
C262 C260 1.391 . S
C262 C263 1.400 . S
C263 C262 1.400 . S
C263 C264 1.398 . S
C263 C269 1.491 . S
C264 H255 0.950 . S
C264 C263 1.398 . S
C264 C265 1.391 . S
C265 H253 0.950 . S
C265 C261 1.393 . S
C265 C264 1.391 . S
C266 H256 0.950 . S
C266 C267 1.386 . S
C266 C268 1.391 . S
C267 C266 1.386 . S
C267 C271 1.393 . S
C268 H257 0.950 . S
C268 C266 1.391 . S
C268 C269 1.400 . S
C269 C263 1.491 . S
C269 C268 1.400 . S
C269 C270 1.398 . S
C270 H258 0.950 . S
C270 C269 1.398 . S
C270 C271 1.391 . S
C271 H259 0.950 . S
C271 C267 1.393 . S
C271 C270 1.391 . S
H272 C280 0.950 . S
H273 C285 0.950 . S
H274 C282 0.950 . S
H275 C284 0.950 . S
H276 C286 0.950 . S
H277 C288 0.950 . S
H278 C290 0.950 . S
H279 C291 0.950 . S
C280 H272 0.950 . S
C280 C281 1.386 . S
C280 C282 1.391 . S
C281 C280 1.386 . S
C281 C285 1.393 . S
C282 H274 0.950 . S
C282 C280 1.391 . S
C282 C283 1.400 . S
C283 C282 1.400 . S
C283 C284 1.398 . S
C283 C289 1.491 . S
C284 H275 0.950 . S
C284 C283 1.398 . S
C284 C285 1.391 . S
C285 H273 0.950 . S
C285 C281 1.393 . S
C285 C284 1.391 . S
C286 H276 0.950 . S
C286 C287 1.386 . S
C286 C288 1.391 . S
C287 C286 1.386 . S
C287 C291 1.393 . S
C288 H277 0.950 . S
C288 C286 1.391 . S
C288 C289 1.400 . S
C289 C283 1.491 . S
C289 C288 1.400 . S
C289 C290 1.398 . S
C290 H278 0.950 . S
C290 C289 1.398 . S
C290 C291 1.391 . S
C291 H279 0.950 . S
C291 C287 1.393 . S
C291 C290 1.391 . S
H292 C300 0.950 . S
H293 C305 0.950 . S
H294 C302 0.950 . S
H295 C304 0.950 . S
H296 C306 0.952 . S
H297 C308 0.947 1_655 S
H298 C310 0.950 . S
H299 C311 0.950 . S
C300 H292 0.950 . S
C300 C301 1.386 . S
C300 C302 1.391 . S
C301 C300 1.386 . S
C301 C305 1.393 . S
C302 H294 0.950 . S
C302 C300 1.391 . S
C302 C303 1.400 . S
C303 C302 1.400 . S
C303 C304 1.398 . S
C303 C309 1.491 . S
C304 H295 0.950 . S
C304 C303 1.398 . S
C304 C305 1.391 . S
C305 H293 0.950 . S
C305 C301 1.393 . S
C305 C304 1.391 . S
C306 H296 0.952 . S
C306 C307 1.385 1_655 S
C306 C308 1.388 1_655 S
C307 C306 1.385 1_455 S
C307 C311 1.393 . S
C308 H297 0.947 1_455 S
C308 C306 1.388 1_455 S
C308 C309 1.405 . S
C309 C303 1.491 . S
C309 C308 1.405 . S
C309 C310 1.398 . S
C310 H298 0.950 . S
C310 C309 1.398 . S
C310 C311 1.391 . S
C311 H299 0.950 . S
C311 C307 1.393 . S
C311 C310 1.391 . S
H312 C320 0.950 . S
H313 C325 0.950 1_554 S
H314 C322 0.950 . S
H315 C324 0.950 . S
H316 C326 0.950 . S
H317 C328 0.950 . S
H318 C330 0.950 . S
H319 C331 0.950 . S
C320 H312 0.950 . S
C320 C321 1.386 . S
C320 C322 1.391 . S
C321 C320 1.386 . S
C321 C325 1.393 . S
C322 H314 0.950 . S
C322 C320 1.391 . S
C322 C323 1.400 . S
C323 C322 1.400 . S
C323 C324 1.398 . S
C323 C329 1.491 . S
C324 H315 0.950 . S
C324 C323 1.398 . S
C324 C325 1.391 . S
C325 H313 0.950 1_556 S
C325 C321 1.393 . S
C325 C324 1.391 . S
C326 H316 0.950 . S
C326 C327 1.386 . S
C326 C328 1.391 . S
C327 C326 1.386 . S
C327 C331 1.393 . S
C328 H317 0.950 . S
C328 C326 1.391 . S
C328 C329 1.400 . S
C329 C323 1.491 . S
C329 C328 1.400 . S
C329 C330 1.398 . S
C330 H318 0.950 . S
C330 C329 1.398 . S
C330 C331 1.391 . S
C331 H319 0.950 . S
C331 C327 1.393 . S
C331 C330 1.391 . S
H332 C340 0.950 . S
H333 C345 0.950 . S
H334 C342 0.950 . S
H335 C344 0.950 . S
H336 C346 0.950 . S
H337 C348 0.950 . S
H338 C350 0.950 . S
H339 C351 0.950 . S
C340 H332 0.950 . S
C340 C341 1.386 . S
C340 C342 1.391 . S
C341 C340 1.386 . S
C341 C345 1.393 1_556 S
C342 H334 0.950 . S
C342 C340 1.391 . S
C342 C343 1.400 . S
C343 C342 1.400 . S
C343 C344 1.398 . S
C343 C349 1.491 . S
C344 H335 0.950 . S
C344 C343 1.398 . S
C344 C345 1.391 1_556 S
C345 H333 0.950 . S
C345 C341 1.393 1_554 S
C345 C344 1.391 1_554 S
C346 H336 0.950 . S
C346 C347 1.386 . S
C346 C348 1.391 . S
C347 C346 1.386 . S
C347 C351 1.393 . S
C348 H337 0.950 . S
C348 C346 1.391 . S
C348 C349 1.400 . S
C349 C343 1.491 . S
C349 C348 1.400 . S
C349 C350 1.398 . S
C350 H338 0.950 . S
C350 C349 1.398 . S
C350 C351 1.391 . S
C351 H339 0.950 . S
C351 C347 1.393 . S
C351 C350 1.391 . S
H352 C360 0.950 . S
H353 C365 0.950 1_554 S
H354 C362 0.950 . S
H355 C364 0.950 . S
H356 C366 0.950 . S
H357 C368 0.950 . S
H358 C370 0.950 . S
H359 C371 0.950 . S
C360 H352 0.950 . S
C360 C361 1.386 . S
C360 C362 1.391 . S
C361 C360 1.386 . S
C361 C365 1.393 . S
C362 H354 0.950 . S
C362 C360 1.391 . S
C362 C363 1.400 . S
C363 C362 1.400 . S
C363 C364 1.398 . S
C363 C369 1.491 . S
C364 H355 0.950 . S
C364 C363 1.398 . S
C364 C365 1.391 . S
C365 H353 0.950 1_556 S
C365 C361 1.393 . S
C365 C364 1.391 . S
C366 H356 0.950 . S
C366 C367 1.386 . S
C366 C368 1.391 . S
C367 C366 1.386 . S
C367 C371 1.393 . S
C368 H357 0.950 . S
C368 C366 1.391 . S
C368 C369 1.400 . S
C369 C363 1.491 . S
C369 C368 1.400 . S
C369 C370 1.398 . S
C370 H358 0.950 . S
C370 C369 1.398 . S
C370 C371 1.391 . S
C371 H359 0.950 . S
C371 C367 1.393 . S
C371 C370 1.391 . S
H372 C380 0.950 1_554 S
H373 C385 0.950 . S
H374 C382 0.950 . S
H375 C384 0.950 . S
H376 C386 0.950 . S
H377 C388 0.950 . S
H378 C390 0.950 . S
H379 C391 0.950 . S
C380 H372 0.950 1_556 S
C380 C381 1.386 . S
C380 C382 1.391 . S
C381 C380 1.386 . S
C381 C385 1.393 1_655 S
C382 H374 0.950 . S
C382 C380 1.391 . S
C382 C383 1.402 . S
C383 C382 1.402 . S
C383 C384 1.397 1_655 S
C383 C389 1.490 1_655 S
C384 H375 0.950 . S
C384 C383 1.397 1_455 S
C384 C385 1.391 . S
C385 H373 0.950 . S
C385 C381 1.393 1_455 S
C385 C384 1.391 . S
C386 H376 0.950 . S
C386 C387 1.386 . S
C386 C388 1.391 . S
C387 C386 1.386 . S
C387 C391 1.393 1_455 S
C388 H377 0.950 . S
C388 C386 1.391 . S
C388 C389 1.400 . S
C389 C383 1.490 1_455 S
C389 C388 1.400 . S
C389 C390 1.398 1_455 S
C390 H378 0.950 . S
C390 C389 1.398 1_655 S
C390 C391 1.391 . S
C391 H379 0.950 . S
C391 C387 1.393 1_655 S
C391 C390 1.391 . S
H392 C400 0.950 . S
H393 C405 0.950 . S
H394 C402 0.950 . S
H395 C404 0.950 . S
H396 C406 0.950 . S
H397 C408 0.950 . S
H398 C410 0.950 . S
H399 C411 0.950 . S
C400 H392 0.950 . S
C400 C401 1.386 . S
C400 C402 1.391 . S
C401 C400 1.386 . S
C401 C405 1.393 1_455 S
C402 H394 0.950 . S
C402 C400 1.391 . S
C402 C403 1.398 1_455 S
C403 C402 1.398 1_655 S
C403 C404 1.401 . S
C403 C409 1.490 . S
C404 H395 0.950 . S
C404 C403 1.401 . S
C404 C405 1.391 . S
C405 H393 0.950 . S
C405 C401 1.393 1_655 S
C405 C404 1.391 . S
C406 H396 0.950 . S
C406 C407 1.386 . S
C406 C408 1.391 . S
C407 C406 1.386 . S
C407 C411 1.393 1_655 S
C408 H397 0.950 . S
C408 C406 1.391 . S
C408 C409 1.400 . S
C409 C403 1.490 . S
C409 C408 1.400 . S
C409 C410 1.398 1_655 S
C410 H398 0.950 . S
C410 C409 1.398 1_455 S
C410 C411 1.391 . S
C411 H399 0.950 . S
C411 C407 1.393 1_455 S
C411 C410 1.391 . S
H412 C420 0.950 . S
H413 C425 0.950 . S
H414 C422 0.950 . S
H415 C424 0.950 . S
H416 C426 0.950 . S
H417 C428 0.950 . S
H418 C430 0.950 1_565 S
H419 C431 0.950 . S
C420 H412 0.950 . S
C420 C421 1.386 . S
C420 C422 1.391 . S
C421 C420 1.386 . S
C421 C425 1.393 . S
C422 H414 0.950 . S
C422 C420 1.391 . S
C422 C423 1.400 . S
C423 C422 1.400 . S
C423 C424 1.398 . S
C423 C429 1.491 . S
C424 H415 0.950 . S
C424 C423 1.398 . S
C424 C425 1.391 . S
C425 H413 0.950 . S
C425 C421 1.393 . S
C425 C424 1.391 . S
C426 H416 0.950 . S
C426 C427 1.386 . S
C426 C428 1.391 . S
C427 C426 1.386 . S
C427 C431 1.393 1_545 S
C428 H417 0.950 . S
C428 C426 1.391 . S
C428 C429 1.400 . S
C429 C423 1.491 . S
C429 C428 1.400 . S
C429 C430 1.398 . S
C430 H418 0.950 1_545 S
C430 C429 1.398 . S
C430 C431 1.391 1_545 S
C431 H419 0.950 . S
C431 C427 1.393 1_565 S
C431 C430 1.391 1_565 S
H432 C440 0.950 . S
H433 C445 0.950 . S
H434 C442 0.950 . S
H435 C444 0.950 . S
H436 C446 0.950 . S
H437 C448 0.950 . S
H438 C450 0.950 . S
H439 C451 0.950 . S
C440 H432 0.950 . S
C440 C441 1.386 . S
C440 C442 1.391 . S
C441 C440 1.386 . S
C441 C445 1.393 . S
C442 H434 0.950 . S
C442 C440 1.391 . S
C442 C443 1.400 . S
C443 C442 1.400 . S
C443 C444 1.398 . S
C443 C449 1.491 . S
C444 H435 0.950 . S
C444 C443 1.398 . S
C444 C445 1.391 . S
C445 H433 0.950 . S
C445 C441 1.393 . S
C445 C444 1.391 . S
C446 H436 0.950 . S
C446 C447 1.386 . S
C446 C448 1.391 . S
C447 C446 1.386 . S
C447 C451 1.393 . S
C448 H437 0.950 . S
C448 C446 1.391 . S
C448 C449 1.400 . S
C449 C443 1.491 . S
C449 C448 1.400 . S
C449 C450 1.398 . S
C450 H438 0.950 . S
C450 C449 1.398 . S
C450 C451 1.391 . S
C451 H439 0.950 . S
C451 C447 1.393 . S
C451 C450 1.391 . S
H452 C460 0.950 . S
H453 C465 0.950 . S
H454 C462 0.950 . S
H455 C464 0.950 . S
H456 C466 0.950 . S
H457 C468 0.950 . S
H458 C470 0.950 . S
H459 C471 0.950 . S
C460 H452 0.950 . S
C460 C461 1.386 . S
C460 C462 1.391 . S
C461 C460 1.386 . S
C461 C465 1.393 . S
C462 H454 0.950 . S
C462 C460 1.391 . S
C462 C463 1.400 . S
C463 C462 1.400 . S
C463 C464 1.398 . S
C463 C469 1.491 . S
C464 H455 0.950 . S
C464 C463 1.398 . S
C464 C465 1.391 . S
C465 H453 0.950 . S
C465 C461 1.393 . S
C465 C464 1.391 . S
C466 H456 0.950 . S
C466 C467 1.386 . S
C466 C468 1.391 . S
C467 C466 1.386 . S
C467 C471 1.393 . S
C468 H457 0.950 . S
C468 C466 1.391 . S
C468 C469 1.400 . S
C469 C463 1.491 . S
C469 C468 1.400 . S
C469 C470 1.398 . S
C470 H458 0.950 . S
C470 C469 1.398 . S
C470 C471 1.391 . S
C471 H459 0.950 . S
C471 C467 1.393 . S
C471 C470 1.391 . S
H472 C480 0.951 . S
H473 C485 0.950 1_554 S
H474 C482 0.950 . S
H475 C484 0.949 . S
H476 C486 0.950 . S
H477 C488 0.950 . S
H478 C490 0.950 . S
H479 C491 0.950 . S
C480 H472 0.951 . S
C480 C481 1.386 . S
C480 C482 1.391 1_655 S
C481 C480 1.386 . S
C481 C485 1.393 . S
C482 H474 0.950 . S
C482 C480 1.391 1_455 S
C482 C483 1.400 . S
C483 C482 1.400 . S
C483 C484 1.401 . S
C483 C489 1.491 . S
C484 H475 0.949 . S
C484 C483 1.401 . S
C484 C485 1.391 1_455 S
C485 H473 0.950 1_556 S
C485 C481 1.393 . S
C485 C484 1.391 1_655 S
C486 H476 0.950 . S
C486 C487 1.386 . S
C486 C488 1.391 . S
C487 C486 1.386 . S
C487 C491 1.393 . S
C488 H477 0.950 . S
C488 C486 1.391 . S
C488 C489 1.400 . S
C489 C483 1.491 . S
C489 C488 1.400 . S
C489 C490 1.398 . S
C490 H478 0.950 . S
C490 C489 1.398 . S
C490 C491 1.391 . S
C491 H479 0.950 . S
C491 C487 1.393 . S
C491 C490 1.391 . S
H492 C500 0.950 . S
H493 C505 0.950 . S
H494 C502 0.950 . S
H495 C504 0.950 1_545 S
H496 C506 0.950 . S
H497 C508 0.950 . S
H498 C510 0.950 . S
H499 C511 0.950 . S
C500 H492 0.950 . S
C500 C501 1.386 . S
C500 C502 1.391 . S
C501 C500 1.386 . S
C501 C505 1.393 . S
C502 H494 0.950 . S
C502 C500 1.391 . S
C502 C503 1.400 . S
C503 C502 1.400 . S
C503 C504 1.398 . S
C503 C509 1.491 . S
C504 H495 0.950 1_565 S
C504 C503 1.398 . S
C504 C505 1.391 . S
C505 H493 0.950 . S
C505 C501 1.393 . S
C505 C504 1.391 . S
C506 H496 0.950 . S
C506 C507 1.386 1_545 S
C506 C508 1.391 . S
C507 C506 1.386 1_565 S
C507 C511 1.393 . S
C508 H497 0.950 . S
C508 C506 1.391 . S
C508 C509 1.400 1_545 S
C509 C503 1.491 . S
C509 C508 1.400 1_565 S
C509 C510 1.398 . S
C510 H498 0.950 . S
C510 C509 1.398 . S
C510 C511 1.391 . S
C511 H499 0.950 . S
C511 C507 1.393 . S
C511 C510 1.391 . S
H512 C520 0.950 . S
H513 C525 0.950 . S
H514 C522 0.950 . S
H515 C524 0.950 . S
H516 C526 0.950 . S
H517 C528 0.950 . S
H518 C530 0.950 . S
H519 C531 0.950 . S
C520 H512 0.950 . S
C520 C521 1.386 . S
C520 C522 1.391 . S
C521 C520 1.386 . S
C521 C525 1.393 . S
C522 H514 0.950 . S
C522 C520 1.391 . S
C522 C523 1.400 . S
C523 C522 1.400 . S
C523 C524 1.398 . S
C523 C529 1.491 . S
C524 H515 0.950 . S
C524 C523 1.398 . S
C524 C525 1.391 . S
C525 H513 0.950 . S
C525 C521 1.393 . S
C525 C524 1.391 . S
C526 H516 0.950 . S
C526 C527 1.386 . S
C526 C528 1.391 . S
C527 C526 1.386 . S
C527 C531 1.393 . S
C528 H517 0.950 . S
C528 C526 1.391 . S
C528 C529 1.400 . S
C529 C523 1.491 . S
C529 C528 1.400 . S
C529 C530 1.398 . S
C530 H518 0.950 . S
C530 C529 1.398 . S
C530 C531 1.391 . S
C531 H519 0.950 . S
C531 C527 1.393 . S
C531 C530 1.391 . S
H532 C540 0.950 . S
H533 C545 0.950 . S
H534 C542 0.950 . S
H535 C544 0.950 . S
H536 C546 0.950 . S
H537 C548 0.950 . S
H538 C550 0.950 . S
H539 C551 0.950 . S
C540 H532 0.950 . S
C540 C541 1.386 1_554 S
C540 C542 1.391 1_554 S
C541 C540 1.386 1_556 S
C541 C545 1.393 . S
C542 H534 0.950 . S
C542 C540 1.391 1_556 S
C542 C543 1.400 . S
C543 C542 1.400 . S
C543 C544 1.398 . S
C543 C549 1.491 . S
C544 H535 0.950 . S
C544 C543 1.398 . S
C544 C545 1.391 . S
C545 H533 0.950 . S
C545 C541 1.393 . S
C545 C544 1.391 . S
C546 H536 0.950 . S
C546 C547 1.386 . S
C546 C548 1.391 . S
C547 C546 1.386 . S
C547 C551 1.393 . S
C548 H537 0.950 . S
C548 C546 1.391 . S
C548 C549 1.400 . S
C549 C543 1.491 . S
C549 C548 1.400 . S
C549 C550 1.398 . S
C550 H538 0.950 . S
C550 C549 1.398 . S
C550 C551 1.391 . S
C551 H539 0.950 . S
C551 C547 1.393 . S
C551 C550 1.391 . S
H552 C560 0.950 . S
H553 C565 0.950 . S
H554 C562 0.950 . S
H555 C564 0.950 . S
H556 C566 0.950 . S
H557 C568 0.950 . S
H558 C570 0.950 . S
H559 C571 0.950 . S
C560 H552 0.950 . S
C560 C561 1.386 1_655 S
C560 C562 1.391 . S
C561 C560 1.386 1_455 S
C561 C565 1.393 . S
C562 H554 0.950 . S
C562 C560 1.391 . S
C562 C563 1.400 1_655 S
C563 C562 1.400 1_455 S
C563 C564 1.398 . S
C563 C569 1.491 . S
C564 H555 0.950 . S
C564 C563 1.398 . S
C564 C565 1.391 . S
C565 H553 0.950 . S
C565 C561 1.393 . S
C565 C564 1.391 . S
C566 H556 0.950 . S
C566 C567 1.386 . S
C566 C568 1.391 . S
C567 C566 1.386 . S
C567 C571 1.393 1_455 S
C568 H557 0.950 . S
C568 C566 1.391 . S
C568 C569 1.400 . S
C569 C563 1.491 . S
C569 C568 1.400 . S
C569 C570 1.398 1_455 S
C570 H558 0.950 . S
C570 C569 1.398 1_655 S
C570 C571 1.391 . S
C571 H559 0.950 . S
C571 C567 1.393 1_655 S
C571 C570 1.391 . S
H572 C580 0.950 . S
H573 C585 0.950 1_554 S
H574 C582 0.950 . S
H575 C584 0.950 . S
H576 C586 0.950 . S
H577 C588 0.950 . S
H578 C590 0.950 . S
H579 C591 0.950 . S
C580 H572 0.950 . S
C580 C581 1.386 . S
C580 C582 1.391 . S
C581 C580 1.386 . S
C581 C585 1.393 . S
C582 H574 0.950 . S
C582 C580 1.391 . S
C582 C583 1.400 . S
C583 C582 1.400 . S
C583 C584 1.398 . S
C583 C589 1.491 . S
C584 H575 0.950 . S
C584 C583 1.398 . S
C584 C585 1.391 . S
C585 H573 0.950 1_556 S
C585 C581 1.393 . S
C585 C584 1.391 . S
C586 H576 0.950 . S
C586 C587 1.386 . S
C586 C588 1.391 . S
C587 C586 1.386 . S
C587 C591 1.393 . S
C588 H577 0.950 . S
C588 C586 1.391 . S
C588 C589 1.400 . S
C589 C583 1.491 . S
C589 C588 1.400 . S
C589 C590 1.398 . S
C590 H578 0.950 . S
C590 C589 1.398 . S
C590 C591 1.391 . S
C591 H579 0.950 . S
C591 C587 1.393 . S
C591 C590 1.391 . S
H592 C600 0.950 . S
H593 C605 0.950 . S
H594 C602 0.950 . S
H595 C604 0.950 . S
H596 C606 0.950 . S
H597 C608 0.950 . S
H598 C610 0.950 . S
H599 C611 0.950 . S
C600 H592 0.950 . S
C600 C601 1.386 . S
C600 C602 1.391 . S
C601 C600 1.386 . S
C601 C605 1.393 . S
C602 H594 0.950 . S
C602 C600 1.391 . S
C602 C603 1.400 . S
C603 C602 1.400 . S
C603 C604 1.398 . S
C603 C609 1.491 . S
C604 H595 0.950 . S
C604 C603 1.398 . S
C604 C605 1.391 . S
C605 H593 0.950 . S
C605 C601 1.393 . S
C605 C604 1.391 . S
C606 H596 0.950 . S
C606 C607 1.386 . S
C606 C608 1.391 . S
C607 C606 1.386 . S
C607 C611 1.393 . S
C608 H597 0.950 . S
C608 C606 1.391 . S
C608 C609 1.400 . S
C609 C603 1.491 . S
C609 C608 1.400 . S
C609 C610 1.398 . S
C610 H598 0.950 . S
C610 C609 1.398 . S
C610 C611 1.391 . S
C611 H599 0.950 . S
C611 C607 1.393 . S
C611 C610 1.391 . S
H612 C620 0.950 . S
H613 C625 0.950 . S
H614 C622 0.950 . S
H615 C624 0.950 . S
H616 C626 0.950 . S
H617 C628 0.950 . S
H618 C630 0.950 . S
H619 C631 0.950 . S
C620 H612 0.950 . S
C620 C621 1.386 . S
C620 C622 1.391 . S
C621 C620 1.386 . S
C621 C625 1.393 . S
C622 H614 0.950 . S
C622 C620 1.391 . S
C622 C623 1.400 . S
C623 C622 1.400 . S
C623 C624 1.398 . S
C623 C629 1.491 . S
C624 H615 0.950 . S
C624 C623 1.398 . S
C624 C625 1.391 . S
C625 H613 0.950 . S
C625 C621 1.393 . S
C625 C624 1.391 . S
C626 H616 0.950 . S
C626 C627 1.386 . S
C626 C628 1.391 . S
C627 C626 1.386 . S
C627 C631 1.393 . S
C628 H617 0.950 . S
C628 C626 1.391 . S
C628 C629 1.400 . S
C629 C623 1.491 . S
C629 C628 1.400 . S
C629 C630 1.398 . S
C630 H618 0.950 . S
C630 C629 1.398 . S
C630 C631 1.391 . S
C631 H619 0.950 . S
C631 C627 1.393 . S
C631 C630 1.391 . S
H632 C640 0.950 . S
H633 C645 0.950 . S
H634 C642 0.948 . S
H635 C644 0.950 . S
H636 C646 0.950 . S
H637 C648 0.950 . S
H638 C650 0.950 . S
H639 C651 0.950 . S
C640 H632 0.950 . S
C640 C641 1.383 1_455 S
C640 C642 1.387 1_455 S
C641 C640 1.383 1_655 S
C641 C645 1.400 . S
C642 H634 0.948 . S
C642 C640 1.387 1_655 S
C642 C643 1.407 . S
C643 C642 1.407 . S
C643 C644 1.398 . S
C643 C649 1.491 . S
C644 H635 0.950 . S
C644 C643 1.398 . S
C644 C645 1.391 . S
C645 H633 0.950 . S
C645 C641 1.400 . S
C645 C644 1.391 . S
C646 H636 0.950 . S
C646 C647 1.386 . S
C646 C648 1.391 . S
C647 C646 1.386 . S
C647 C651 1.393 . S
C648 H637 0.950 . S
C648 C646 1.391 . S
C648 C649 1.400 . S
C649 C643 1.491 . S
C649 C648 1.400 . S
C649 C650 1.398 . S
C650 H638 0.950 . S
C650 C649 1.398 . S
C650 C651 1.391 . S
C651 H639 0.950 . S
C651 C647 1.393 . S
C651 C650 1.391 . S
H652 C660 0.950 . S
H653 C665 0.953 . S
H654 C662 0.950 . S
H655 C664 0.950 1_545 S
H656 C666 0.950 . S
H657 C668 0.986 . S
H658 C670 0.950 . S
H659 C671 0.950 . S
C660 H652 0.950 . S
C660 C661 1.386 . S
C660 C662 1.391 . S
C661 C660 1.386 . S
C661 C665 1.393 . S
C662 H654 0.950 . S
C662 C660 1.391 . S
C662 C663 1.400 . S
C663 C662 1.400 . S
C663 C664 1.398 . S
C663 C669 1.491 . S
C664 H655 0.950 1_565 S
C664 C663 1.398 . S
C664 C665 1.391 . S
C665 H653 0.953 . S
C665 C661 1.393 . S
C665 C664 1.391 . S
C666 H656 0.950 . S
C666 C667 1.386 1_545 S
C666 C668 1.404 . S
C667 C666 1.386 1_565 S
C667 C671 1.393 . S
C668 H657 0.986 . S
C668 C666 1.404 . S
C668 C669 1.354 1_545 S
C669 C663 1.491 . S
C669 C668 1.354 1_565 S
C669 C670 1.398 . S
C670 H658 0.950 . S
C670 C669 1.398 . S
C670 C671 1.391 . S
C671 H659 0.950 . S
C671 C667 1.393 . S
C671 C670 1.391 . S
H672 C680 0.950 . S
H673 C685 0.950 . S
H674 C682 0.950 . S
H675 C684 0.950 . S
H676 C686 0.950 . S
H677 C688 0.950 . S
H678 C690 0.950 . S
H679 C691 0.950 . S
C680 H672 0.950 . S
C680 C681 1.386 . S
C680 C682 1.391 . S
C681 C680 1.386 . S
C681 C685 1.393 . S
C682 H674 0.950 . S
C682 C680 1.391 . S
C682 C683 1.400 . S
C683 C682 1.400 . S
C683 C684 1.398 . S
C683 C689 1.491 . S
C684 H675 0.950 . S
C684 C683 1.398 . S
C684 C685 1.391 . S
C685 H673 0.950 . S
C685 C681 1.393 . S
C685 C684 1.391 . S
C686 H676 0.950 . S
C686 C687 1.386 . S
C686 C688 1.391 . S
C687 C686 1.386 . S
C687 C691 1.393 . S
C688 H677 0.950 . S
C688 C686 1.391 . S
C688 C689 1.400 . S
C689 C683 1.491 . S
C689 C688 1.400 . S
C689 C690 1.398 . S
C690 H678 0.950 . S
C690 C689 1.398 . S
C690 C691 1.391 . S
C691 H679 0.950 . S
C691 C687 1.393 . S
C691 C690 1.391 . S
H692 C700 0.950 . S
H693 C705 0.950 . S
H694 C702 0.950 . S
H695 C704 0.950 . S
H696 C706 0.950 . S
H697 C708 0.950 . S
H698 C710 0.950 . S
H699 C711 0.950 . S
C700 H692 0.950 . S
C700 C701 1.386 . S
C700 C702 1.391 . S
C701 C700 1.386 . S
C701 C705 1.393 . S
C702 H694 0.950 . S
C702 C700 1.391 . S
C702 C703 1.400 . S
C703 C702 1.400 . S
C703 C704 1.398 . S
C703 C709 1.491 . S
C704 H695 0.950 . S
C704 C703 1.398 . S
C704 C705 1.391 . S
C705 H693 0.950 . S
C705 C701 1.393 . S
C705 C704 1.391 . S
C706 H696 0.950 . S
C706 C707 1.386 . S
C706 C708 1.391 . S
C707 C706 1.386 . S
C707 C711 1.393 . S
C708 H697 0.950 . S
C708 C706 1.391 . S
C708 C709 1.400 . S
C709 C703 1.491 . S
C709 C708 1.400 . S
C709 C710 1.398 . S
C710 H698 0.950 . S
C710 C709 1.398 . S
C710 C711 1.391 . S
C711 H699 0.950 . S
C711 C707 1.393 . S
C711 C710 1.391 . S
C241 C125 1.594 . S
C247 C160 1.720 . S
C267 C190 1.829 . S
C261 C144 1.737 . S
C287 C200 1.531 . S
C281 C87 1.474 . S
C307 C220 1.395 1_455 S
C301 C106 1.355 1_455 S
C327 C161 1.721 . S
C321 C49 1.697 . S
C341 C68 1.829 1_556 S
C347 C191 1.825 . S
C361 C11 1.495 1_556 S
C367 C201 1.530 . S
C381 C30 1.353 . S
C387 C221 1.398 . S
C407 C153 0.906 . S
C401 C97 0.894 . S
C427 C174 0.627 . S
C421 C116 0.660 . S
C447 C193 1.070 . S
C441 C135 1.067 . S
C461 C78 0.761 . S
C467 C213 0.798 . S
C481 C21 0.893 . S
C487 C154 0.913 . S
C507 C173 0.626 . S
C501 C40 0.633 . S
C527 C194 1.072 . S
C521 C59 1.070 1_556 S
C541 C2 0.772 1_556 S
C547 C214 0.791 . S
C561 C101 1.533 . S
C567 C171 1.584 . S
C581 C120 1.408 1_556 S
C587 C181 1.488 . S
C607 C211 1.790 . S
C601 C139 1.683 . S
C627 C231 1.785 . S
C621 C82 1.716 . S
C641 C25 1.516 . S
C647 C170 1.590 . S
C667 C180 1.482 . S
C661 C44 1.420 . S
C687 C210 1.792 . S
C681 C63 1.684 . S
C701 C6 1.691 . S
C707 C230 1.784 . S
