# Generated by pormake.
# Topology ssa, (4,4)-cn, num edge types: 1
# Building blocks:
#     Node 0, Type 0, BuildingBlock: KOZSID_clean_sbu_0, # of connection points: 4
#     Node 1, Type 0, BuildingBlock: KOZSID_clean_sbu_0, # of connection points: 4
#     Node 2, Type 0, BuildingBlock: KOZSID_clean_sbu_0, # of connection points: 4
#     Node 3, Type 0, BuildingBlock: KOZSID_clean_sbu_0, # of connection points: 4
#     Node 4, Type 0, BuildingBlock: KOZSID_clean_sbu_0, # of connection points: 4
#     Node 5, Type 0, BuildingBlock: KOZSID_clean_sbu_0, # of connection points: 4
#     Node 6, Type 1, BuildingBlock: KUFVIS_clean_linker_0, # of connection points: 4
#     Node 7, Type 1, BuildingBlock: KUFVIS_clean_linker_0, # of connection points: 4
#     Node 8, Type 1, BuildingBlock: KUFVIS_clean_linker_0, # of connection points: 4
#     Node 9, Type 1, BuildingBlock: KUFVIS_clean_linker_0, # of connection points: 4
#     Node 10, Type 1, BuildingBlock: KUFVIS_clean_linker_0, # of connection points: 4
#     Node 11, Type 1, BuildingBlock: KUFVIS_clean_linker_0, # of connection points: 4
#     Edge 12, Type (0, 1), BuildingBlock: CIFDUS_clean_linker_0, # of connection points: 2
#     Edge 13, Type (0, 1), BuildingBlock: CIFDUS_clean_linker_0, # of connection points: 2
#     Edge 14, Type (0, 1), BuildingBlock: CIFDUS_clean_linker_0, # of connection points: 2
#     Edge 15, Type (0, 1), BuildingBlock: CIFDUS_clean_linker_0, # of connection points: 2
#     Edge 16, Type (0, 1), BuildingBlock: CIFDUS_clean_linker_0, # of connection points: 2
#     Edge 17, Type (0, 1), BuildingBlock: CIFDUS_clean_linker_0, # of connection points: 2
#     Edge 18, Type (0, 1), BuildingBlock: CIFDUS_clean_linker_0, # of connection points: 2
#     Edge 19, Type (0, 1), BuildingBlock: CIFDUS_clean_linker_0, # of connection points: 2
#     Edge 20, Type (0, 1), BuildingBlock: CIFDUS_clean_linker_0, # of connection points: 2
#     Edge 21, Type (0, 1), BuildingBlock: CIFDUS_clean_linker_0, # of connection points: 2
#     Edge 22, Type (0, 1), BuildingBlock: CIFDUS_clean_linker_0, # of connection points: 2
#     Edge 23, Type (0, 1), BuildingBlock: CIFDUS_clean_linker_0, # of connection points: 2
#     Edge 24, Type (0, 1), BuildingBlock: CIFDUS_clean_linker_0, # of connection points: 2
#     Edge 25, Type (0, 1), BuildingBlock: CIFDUS_clean_linker_0, # of connection points: 2
#     Edge 26, Type (0, 1), BuildingBlock: CIFDUS_clean_linker_0, # of connection points: 2
#     Edge 27, Type (0, 1), BuildingBlock: CIFDUS_clean_linker_0, # of connection points: 2
#     Edge 28, Type (0, 1), BuildingBlock: CIFDUS_clean_linker_0, # of connection points: 2
#     Edge 29, Type (0, 1), BuildingBlock: CIFDUS_clean_linker_0, # of connection points: 2
#     Edge 30, Type (0, 1), BuildingBlock: CIFDUS_clean_linker_0, # of connection points: 2
#     Edge 31, Type (0, 1), BuildingBlock: CIFDUS_clean_linker_0, # of connection points: 2
#     Edge 32, Type (0, 1), BuildingBlock: CIFDUS_clean_linker_0, # of connection points: 2
#     Edge 33, Type (0, 1), BuildingBlock: CIFDUS_clean_linker_0, # of connection points: 2
#     Edge 34, Type (0, 1), BuildingBlock: CIFDUS_clean_linker_0, # of connection points: 2
#     Edge 35, Type (0, 1), BuildingBlock: CIFDUS_clean_linker_0, # of connection points: 2
# Relax obj value: 0.005
# Max RMSD: 0.054
# Mean RMSD: 0.030
data_MOF--net-ssa--node1-KOZSID_clean_sbu_0--node2-KUFVIS_clean_linker_0--edge1-CIFDUS_clean_linker_0
_symmetry_space_group_name_H-M    P1
_symmetry_Int_Tables_number       1
_symmetry_cell_setting            triclinic
loop_
_symmetry_equiv_pos_as_xyz
'x, y, z'
_cell_length_a     51.934576
_cell_length_b     53.339652
_cell_length_c     29.195211
_cell_angle_alpha  86.594702
_cell_angle_beta   90.100509
_cell_angle_gamma 122.50639
loop_
_atom_site_label
_atom_site_type_symbol
_atom_site_fract_x
_atom_site_fract_y
_atom_site_fract_z
_atom_type_partial_charge
C0 C 0.94901 0.50277 0.02226 0.0
C1 C 0.92688 0.49581 0.05593 0.0
C2 C 0.9317 0.48154 0.09202 0.0
C3 C 0.95647 0.4807 0.07854 0.0
N4 N 0.96806 0.49392 0.03615 0.0
Co5 Co 1.00365 0.497 0.00286 0.0
N6 N 0.00988 0.47492 0.05523 0.0
C7 C 0.99267 0.46283 0.09455 0.0
C8 C 1.00364 0.45054 0.12512 0.0
C9 C 0.02976 0.45561 0.10449 0.0
C10 C 0.03319 0.47075 0.0624 0.0
N11 N 0.03926 0.50012 0.96976 0.0
C12 C 0.05975 0.49359 0.98533 0.0
C13 C 0.08222 0.50074 0.95227 0.0
C14 C 0.07614 0.51289 0.91461 0.0
C15 C 0.05041 0.51244 0.92691 0.0
N16 N 0.99749 0.5191 0.95046 0.0
C17 C 0.01397 0.52985 0.91031 0.0
C18 C 1.0036 0.54271 0.87987 0.0
C19 C 0.97884 0.53983 0.9016 0.0
C20 C 0.97558 0.52546 0.94449 0.0
N21 N 0.0324 0.53531 0.03068 0.0
C22 C 0.07418 0.58851 0.07202 0.0
C23 C 0.07758 0.58555 0.02557 0.0
C24 C 0.05633 0.55906 0.00557 0.0
C25 C 0.04965 0.56443 0.09731 0.0
C26 C 0.02942 0.53827 0.07633 0.0
N27 N 0.97479 0.45855 0.97503 0.0
C28 C 0.95569 0.42937 0.90837 0.0
C29 C 0.93023 0.40641 0.93373 0.0
C30 C 0.92807 0.40946 0.98045 0.0
C31 C 0.9506 0.43523 0.00033 0.0
C32 C 0.97739 0.45506 0.92942 0.0
H33 H 0.94757 0.43587 0.0361 0.0
H34 H 0.99567 0.47201 0.90775 0.0
H35 H 0.0597 0.55825 0.96977 0.0
H36 H 0.01162 0.52065 0.09788 0.0
C37 C 0.9685 0.46645 0.10389 0.0
C38 C 0.95056 0.51727 0.97742 0.0
C39 C 0.06014 0.48279 0.03208 0.0
C40 C 0.03803 0.52609 0.9011 0.0
H41 H 0.90883 0.50022 0.05429 0.0
H42 H 0.91836 0.47234 0.12394 0.0
H43 H 0.99456 0.44041 0.15926 0.0
H44 H 0.04517 0.44985 0.11938 0.0
H45 H 0.10158 0.49836 0.95575 0.0
H46 H 0.08967 0.52222 0.88287 0.0
H47 H 0.01247 0.55231 0.84544 0.0
H48 H 0.96444 0.54693 0.88692 0.0
H49 H 0.09613 0.60378 0.00458 0.0
H50 H 0.04623 0.56565 0.13352 0.0
H51 H 0.9583 0.42804 0.87194 0.0
H52 H 0.90895 0.39203 0.00163 0.0
C53 C 0.55239 0.03241 0.56904 0.0
C54 C 0.55836 0.02824 0.61422 0.0
C55 C 0.5328 1.00274 0.63223 0.0
C56 C 0.51276 0.99286 0.59714 0.0
N57 N 0.52429 0.01006 0.55743 0.0
Co58 Co 0.50205 0.00559 0.4993 0.0
N59 N 0.46322 0.96981 0.52691 0.0
C60 C 0.45882 0.95709 0.57002 0.0
C61 C 0.43097 0.93096 0.57752 0.0
C62 C 0.41709 0.92617 0.53634 0.0
C63 C 0.43732 0.94983 0.5061 0.0
N64 N 0.47958 1.00166 0.44166 0.0
C65 C 0.45163 0.97925 0.4298 0.0
C66 C 0.44489 0.98455 0.3857 0.0
C67 C 0.46991 0.01086 0.36854 0.0
C68 C 0.49037 0.02013 0.40311 0.0
N69 N 0.54107 0.04066 0.47104 0.0
C70 C 0.54573 0.05253 0.4273 0.0
C71 C 0.57444 0.07736 0.41853 0.0
C72 C 0.58876 0.082 0.45931 0.0
C73 C 0.56786 0.05966 0.49071 0.0
N74 N 0.51322 0.97795 0.47728 0.0
C75 C 0.51452 0.93076 0.44157 0.0
C76 C 0.5199 0.95521 0.41308 0.0
C77 C 0.51957 0.97856 0.43157 0.0
C78 C 0.51144 0.93165 0.4888 0.0
C79 C 0.51098 0.95542 0.50588 0.0
N80 N 0.49054 0.03308 0.52131 0.0
C81 C 0.49148 0.0791 0.51207 0.0
C82 C 0.47733 0.07365 0.55529 0.0
C83 C 0.46966 0.04745 0.58098 0.0
C84 C 0.47648 0.02774 0.5636 0.0
C85 C 0.49754 0.05855 0.49569 0.0
H86 H 0.4705 0.00854 0.58538 0.0
H87 H 0.50814 0.06396 0.46233 0.0
H88 H 0.52311 0.99621 0.40791 0.0
H89 H 0.50745 0.95442 0.54206 0.0
C90 C 0.48244 0.96868 0.60109 0.0
C91 C 0.57325 0.05907 0.53967 0.0
C92 C 0.43229 0.95118 0.45708 0.0
C93 C 0.52133 0.04277 0.39777 0.0
H94 H 0.57873 0.04272 0.63258 0.0
H95 H 0.52886 0.99319 0.66721 0.0
H96 H 0.42244 0.91631 0.60853 0.0
H97 H 0.39516 0.90686 0.52892 0.0
H98 H 0.42464 0.97004 0.36713 0.0
H99 H 0.47355 0.02091 0.33393 0.0
H100 H 0.58326 0.0915 0.38703 0.0
H101 H 0.61146 0.10051 0.46579 0.0
H102 H 0.52335 0.95585 0.37633 0.0
H103 H 0.50779 0.9134 0.5122 0.0
H104 H 0.49761 0.09899 0.49075 0.0
H105 H 0.459 0.0424 0.61497 0.0
C106 C 0.56705 0.54005 0.94517 0.0
C107 C 0.57851 0.55552 0.90261 0.0
C108 C 0.55609 0.55823 0.88346 0.0
C109 C 0.53214 0.54413 0.91492 0.0
N110 N 0.53795 0.53278 0.95336 0.0
Co111 Co 0.50829 0.50839 0.00594 0.0
N112 N 0.47427 0.5097 0.97527 0.0
C113 C 0.47556 0.52234 0.93308 0.0
C114 C 0.44901 0.52047 0.92156 0.0
C115 C 0.4297 0.50624 0.95894 0.0
C116 C 0.44574 0.50043 0.99138 0.0
N117 N 0.47872 0.48443 0.05882 0.0
C118 C 0.45003 0.47814 0.06766 0.0
C119 C 0.43878 0.4633 0.11067 0.0
C120 C 0.46094 0.46007 0.12953 0.0
C121 C 0.48455 0.47329 0.09748 0.0
N122 N 0.54216 0.50671 0.03639 0.0
C123 C 0.54045 0.49294 0.07774 0.0
C124 C 0.56692 0.49469 0.08923 0.0
C125 C 0.58665 0.51001 0.05264 0.0
C126 C 0.57092 0.51658 0.02067 0.0
N127 N 0.52028 0.54553 0.03578 0.0
C128 C 0.53738 0.59804 0.07868 0.0
C129 C 0.53725 0.57447 0.10244 0.0
C130 C 0.52853 0.54862 0.08065 0.0
C131 C 0.52855 0.59486 0.03317 0.0
C132 C 0.52042 0.5687 0.01238 0.0
N133 N 0.49692 0.47143 0.97584 0.0
C134 C 0.49732 0.42615 0.97718 0.0
C135 C 0.49899 0.42784 0.9293 0.0
C136 C 0.49598 0.44952 0.90537 0.0
C137 C 0.49444 0.4706 0.92918 0.0
C138 C 0.49606 0.44799 -0.00031 0.0
H139 H 0.49279 0.48686 0.90888 0.0
H140 H 0.49587 0.44626 0.03625 0.0
H141 H 0.52853 0.5314 0.10094 0.0
H142 H 0.51435 0.56777 0.97738 0.0
C143 C 0.50295 0.53837 0.90709 0.0
C144 C 0.58403 0.53141 0.97539 0.0
C145 C 0.43323 0.48707 0.03753 0.0
C146 C 0.51333 0.47783 0.1044 0.0
H147 H 0.60037 0.56323 0.88608 0.0
H148 H 0.5567 0.56811 0.84967 0.0
H149 H 0.44462 0.52939 0.89038 0.0
H150 H 0.40669 0.50139 0.96242 0.0
H151 H 0.41723 0.45633 0.1276 0.0
H152 H 0.46039 0.45036 0.16343 0.0
H153 H 0.57119 0.48544 0.12016 0.0
H154 H 0.60985 0.5153 0.04954 0.0
H155 H 0.54344 0.57577 0.13808 0.0
H156 H 0.52839 0.61264 0.01347 0.0
H157 H 0.49875 0.40917 0.99709 0.0
H158 H 0.49595 0.45089 0.86818 0.0
C159 C 0.94603 0.45144 0.48315 0.0
C160 C 0.9234 0.43661 0.4519 0.0
C161 C 0.93076 0.45613 0.41444 0.0
C162 C 0.95729 0.48166 0.42506 0.0
N163 N 0.96779 0.47938 0.46655 0.0
Co164 Co 1.00392 0.51189 0.49779 0.0
N165 N 0.01195 0.54199 0.44624 0.0
C166 C 0.9958 0.53736 0.4078 0.0
C167 C 0.00775 0.56205 0.37768 0.0
C168 C 0.03339 0.58357 0.39761 0.0
C169 C 0.03557 0.57068 0.43895 0.0
N170 N 0.03977 0.54434 0.5293 0.0
C171 C 0.06067 0.57277 0.51381 0.0
C172 C 0.08286 0.58777 0.54558 0.0
C173 C 0.07613 0.56784 0.58224 0.0
C174 C 0.0503 0.54197 0.57073 0.0
N175 N 0.99593 0.48177 0.54919 0.0
C176 C 0.01267 0.48602 0.58682 0.0
C177 C 1.00056 0.46132 0.617 0.0
C178 C 0.97415 0.44028 0.598 0.0
C179 C 0.97169 0.45348 0.55727 0.0
N180 N 0.0318 0.50278 0.46623 0.0
C181 C 0.07209 0.49155 0.4201 0.0
C182 C 0.07583 0.49808 0.46612 0.0
C183 C 0.05537 0.50324 0.4885 0.0
C184 C 0.04806 0.49095 0.39752 0.0
C185 C 0.02858 0.49681 0.42082 0.0
N186 N 0.97615 0.52098 0.52927 0.0
C187 C 0.95748 0.52958 0.59879 0.0
C188 C 0.93376 0.52917 0.57549 0.0
C189 C 0.93202 0.52531 0.52849 0.0
C190 C 0.95352 0.5217 0.50613 0.0
C191 C 0.9781 0.52525 0.57531 0.0
H192 H 0.95105 0.51908 0.47022 0.0
H193 H 0.99504 0.52483 0.59534 0.0
H194 H 0.05915 0.50756 0.52379 0.0
H195 H 0.01121 0.49654 0.40117 0.0
C196 C 0.97094 0.50904 0.39939 0.0
C197 C 0.94462 0.43924 0.52964 0.0
C198 C 0.06188 0.58565 0.46796 0.0
C199 C 0.03728 0.51438 0.59563 0.0
H200 H 0.90307 0.41445 0.45649 0.0
H201 H 0.91747 0.45267 0.38417 0.0
H202 H 0.99947 0.56386 0.34436 0.0
H203 H 0.04927 0.60587 0.38269 0.0
H204 H 0.10248 0.61043 0.54175 0.0
H205 H 0.08929 0.57139 0.61269 0.0
H206 H 0.00903 0.45935 0.65006 0.0
H207 H 0.95783 0.41816 0.61325 0.0
H208 H 0.09404 0.49858 0.48505 0.0
H209 H 0.04447 0.48628 0.36164 0.0
H210 H 0.95954 0.53224 0.63538 0.0
H211 H 0.91413 0.52509 0.50902 0.0
C212 C 0.46031 0.97467 0.07023 0.0
C213 C 0.45389 0.97805 0.11474 0.0
C214 C 0.47916 1.00342 0.12827 0.0
C215 C 0.49941 0.01406 0.09136 0.0
N216 N 0.48836 0.99733 0.05473 0.0
Co217 Co 0.51031 1.00375 0.99469 0.0
N218 N 0.5486 0.03947 0.01597 0.0
C219 C 0.5533 0.05051 0.05783 0.0
C220 C 0.58112 0.0765 0.061 0.0
C221 C 0.5947 0.08288 0.01828 0.0
C222 C 0.5743 0.06023 0.99156 0.0
N223 N 0.53226 0.01024 0.9346 0.0
C224 C 0.55969 0.03367 0.91848 0.0
C225 C 0.56627 0.0304 0.87401 0.0
C226 C 0.5416 0.00433 0.86105 0.0
C227 C 0.52154 0.9932 0.89825 0.0
N228 N 0.47201 0.96808 0.97324 0.0
C229 C 0.46756 0.95672 0.93162 0.0
C230 C 0.43938 0.93123 0.92798 0.0
C231 C 0.42519 0.9256 0.97005 0.0
C232 C 0.44563 0.94812 0.99691 0.0
N233 N 0.49665 0.03028 0.97043 0.0
C234 C 0.47882 0.06874 0.93382 0.0
C235 C 0.47566 0.04566 0.90909 0.0
C236 C 0.4847 0.02698 0.92774 0.0
C237 C 0.49114 0.0723 0.9773 0.0
C238 C 0.49963 0.05282 0.99497 0.0
N239 N 0.5238 0.977 0.01908 0.0
C240 C 0.52503 0.93249 0.01338 0.0
C241 C 0.53517 0.93419 0.05805 0.0
C242 C 0.54101 0.95852 0.08209 0.0
C243 C 0.53515 0.97944 0.06218 0.0
C244 C 0.51991 0.9541 0.99457 0.0
H245 H 0.53915 0.9969 0.08286 0.0
H246 H 0.51206 0.9513 0.96051 0.0
H247 H 0.48212 0.01025 0.90665 0.0
H248 H 0.50873 0.05654 0.0284 0.0
C249 C 0.52969 0.03816 0.09132 0.0
C250 C 0.44009 0.94833 0.04565 0.0
C251 C 0.57883 0.06066 0.94229 0.0
C252 C 0.4913 0.96893 0.89825 0.0
H253 H 0.43346 0.96309 0.13572 0.0
H254 H 0.48278 0.01239 0.16165 0.0
H255 H 0.58974 0.09012 0.09009 0.0
H256 H 0.61651 0.10261 0.00754 0.0
H257 H 0.58625 0.04597 0.85258 0.0
H258 H 0.53805 0.99538 0.82766 0.0
H259 H 0.43071 0.91763 0.89887 0.0
H260 H 0.40279 0.90654 0.98034 0.0
H261 H 0.46681 0.04232 0.87485 0.0
H262 H 0.49397 0.08984 0.9978 0.0
H263 H 0.52066 0.91429 0.99314 0.0
H264 H 0.54882 0.96076 0.11692 0.0
C265 C 0.52946 0.57112 0.50833 0.0
C266 C 0.52494 0.58715 0.53958 0.0
C267 C 0.50888 0.56779 0.57636 0.0
C268 C 0.50466 0.54119 0.56571 0.0
N269 N 0.51767 0.54249 0.52476 0.0
Co270 Co 0.5157 0.50846 0.49525 0.0
N271 N 0.49112 0.4798 0.54864 0.0
C272 C 0.48142 0.48581 0.58698 0.0
C273 C 0.46731 0.46222 0.6193 0.0
C274 C 0.46889 0.44006 0.60108 0.0
C275 C 0.48385 0.45151 0.55854 0.0
N276 N 0.51291 0.4742 0.46525 0.0
C277 C 0.50308 0.4463 0.48311 0.0
C278 C 0.50663 0.42975 0.45184 0.0
C279 C 0.51995 0.44813 0.41302 0.0
C280 C 0.52369 0.47471 0.42288 0.0
N281 N 0.54113 0.53728 0.44241 0.0
C282 C 0.55106 0.53096 0.40456 0.0
C283 C 0.56659 0.55468 0.37291 0.0
C284 C 0.56635 0.57747 0.39129 0.0
C285 C 0.55081 0.56643 0.43365 0.0
N286 N 0.55351 0.51648 0.52547 0.0
C287 C 0.60362 0.52154 0.57165 0.0
C288 C 0.59886 0.51421 0.52605 0.0
C289 C 0.57415 0.51232 0.50351 0.0
C290 C 0.58356 0.52729 0.59333 0.0
C291 C 0.55873 0.52446 0.56992 0.0
N292 N 0.47781 0.50047 0.46497 0.0
C293 C 0.45235 0.4994 0.39507 0.0
C294 C 0.42934 0.49934 0.41964 0.0
C295 C 0.42963 0.49768 0.46744 0.0
C296 C 0.45398 0.49827 0.48933 0.0
C297 C 0.4759 0.49952 0.41822 0.0
H298 H 0.45348 0.49788 0.52581 0.0
H299 H 0.49279 0.49985 0.3973 0.0
H300 H 0.5719 0.50692 0.46858 0.0
H301 H 0.54369 0.52817 0.58882 0.0
C302 C 0.4883 0.51452 0.59312 0.0
C303 C 0.54411 0.58384 0.46292 0.0
C304 C 0.49313 0.43571 0.5307 0.0
C305 C 0.54187 0.50168 0.39684 0.0
H306 H 0.53205 0.61034 0.53583 0.0
H307 H 0.5008 0.57244 0.60689 0.0
H308 H 0.4583 0.46167 0.65301 0.0
H309 H 0.46107 0.41837 0.61784 0.0
H310 H 0.5015 0.40724 0.45747 0.0
H311 H 0.52788 0.44332 0.38249 0.0
H312 H 0.57558 0.55496 0.33933 0.0
H313 H 0.57558 0.59931 0.37422 0.0
H314 H 0.61413 0.50992 0.50786 0.0
H315 H 0.58642 0.53297 0.62879 0.0
H316 H 0.45259 0.50013 0.35788 0.0
H317 H 0.41196 0.49733 0.48769 0.0
H318 H 0.33809 0.48894 0.21596 0.0
H319 H 0.26354 0.4818 0.28967 0.0
H320 H 0.27116 0.49515 0.14023 0.0
H321 H 0.22418 0.48202 0.14196 0.0
H322 H 0.15774 0.48874 0.21627 0.0
H323 H 0.23195 0.49498 0.28868 0.0
C324 C 0.31693 0.4885 0.21561 0.0
C325 C 0.30537 0.49097 0.17375 0.0
C326 C 0.30241 0.48633 0.25704 0.0
C327 C 0.27465 0.48494 0.25678 0.0
C328 C 0.26224 0.4882 0.21492 0.0
C329 C 0.27858 0.49165 0.1732 0.0
C330 C 0.233 0.48849 0.21518 0.0
C331 C 0.21673 0.4853 0.17428 0.0
C332 C 0.19027 0.48646 0.17464 0.0
C333 C 0.17863 0.4887 0.21605 0.0
C334 C 0.193 0.49066 0.25717 0.0
C335 C 0.2207 0.49179 0.25652 0.0
H336 H 0.66528 0.1521 0.72998 0.0
H337 H 0.73962 0.22347 0.79619 0.0
H338 H 0.74383 0.21813 0.64857 0.0
H339 H 0.77605 0.26688 0.64762 0.0
H340 H 0.85704 0.32925 0.71467 0.0
H341 H 0.78901 0.24983 0.7908 0.0
C342 C 0.68751 0.17281 0.72754 0.0
C343 C 0.70236 0.18439 0.6846 0.0
C344 C 0.70118 0.18645 0.7676 0.0
C345 C 0.73026 0.21278 0.76473 0.0
C346 C 0.74645 0.22526 0.72193 0.0
C347 C 0.73217 0.21016 0.68186 0.0
C348 C 0.7777 0.25392 0.7195 0.0
C349 C 0.78927 0.2726 0.67824 0.0
C350 C 0.81783 0.29968 0.67664 0.0
C351 C 0.83501 0.30832 0.71599 0.0
C352 C 0.82448 0.29068 0.75704 0.0
C353 C 0.79609 0.26345 0.75883 0.0
H354 H 0.54475 0.68133 0.28011 0.0
H355 H 0.53975 0.74939 0.20419 0.0
H356 H 0.54502 0.74855 0.353 0.0
H357 H 0.52678 0.77714 0.34765 0.0
H358 H 0.54498 0.85659 0.27223 0.0
H359 H 0.56064 0.79691 0.20536 0.0
C360 C 0.54484 0.70175 0.27949 0.0
C361 C 0.54445 0.71328 0.32086 0.0
C362 C 0.54375 0.71505 0.23756 0.0
C363 C 0.54207 0.74046 0.23702 0.0
C364 C 0.54334 0.75392 0.27827 0.0
C365 C 0.54422 0.73956 0.32045 0.0
C366 C 0.54377 0.78259 0.27689 0.0
C367 C 0.53489 0.79119 0.3161 0.0
C368 C 0.53538 0.81785 0.31436 0.0
C369 C 0.54463 0.83601 0.27366 0.0
C370 C 0.55298 0.82813 0.23445 0.0
C371 C 0.55297 0.80177 0.23601 0.0
H372 H 0.86499 0.53705 0.80502 0.0
H373 H 0.78349 0.51708 0.87572 0.0
H374 H 0.80107 0.5486 0.73102 0.0
H375 H 0.75479 0.53457 0.72762 0.0
H376 H 0.68535 0.53774 0.79901 0.0
H377 H 0.74994 0.52891 0.87729 0.0
C378 C 0.8436 0.53616 0.80467 0.0
C379 C 0.83426 0.54298 0.76371 0.0
C380 C 0.82563 0.52734 0.84492 0.0
C381 C 0.79726 0.52496 0.84426 0.0
C382 C 0.78731 0.53281 0.80339 0.0
C383 C 0.80657 0.54176 0.76309 0.0
C384 C 0.75776 0.5325 0.80264 0.0
C385 C 0.74522 0.53473 0.76027 0.0
C386 C 0.71989 0.53759 0.75919 0.0
C387 C 0.70545 0.53633 0.80011 0.0
C388 C 0.71572 0.53236 0.84235 0.0
C389 C 0.742 0.53085 0.84388 0.0
H390 H 0.15864 0.6794 0.26997 0.0
H391 H 0.23688 0.74788 0.19178 0.0
H392 H 0.22724 0.75346 0.33861 0.0
H393 H 0.27395 0.78763 0.33812 0.0
H394 H 0.34824 0.85997 0.25808 0.0
H395 H 0.27219 0.79328 0.18873 0.0
C396 C 0.18037 0.70065 0.26829 0.0
C397 C 0.19215 0.7149 0.30854 0.0
C398 C 0.19592 0.71303 0.22608 0.0
C399 C 0.22481 0.73987 0.22465 0.0
C400 C 0.23728 0.75572 0.26499 0.0
C401 C 0.21982 0.7427 0.30684 0.0
C402 C 0.26811 0.78521 0.2636 0.0
C403 C 0.28351 0.7982 0.30451 0.0
C404 C 0.31233 0.8252 0.30267 0.0
C405 C 0.32628 0.83897 0.25992 0.0
C406 C 0.31204 0.82702 0.21928 0.0
C407 C 0.28282 0.80089 0.22104 0.0
H408 H 0.4976 0.34581 0.73054 0.0
H409 H 0.49613 0.27468 0.80762 0.0
H410 H 0.48066 0.27074 0.66073 0.0
H411 H 0.49028 0.23651 0.6618 0.0
H412 H 0.47412 0.15907 0.74017 0.0
H413 H 0.47847 0.22871 0.81086 0.0
C414 C 0.49573 0.32451 0.73153 0.0
C415 C 0.49073 0.3103 0.69094 0.0
C416 C 0.49694 0.31136 0.77353 0.0
C417 C 0.49375 0.28345 0.77477 0.0
C418 C 0.48816 0.26783 0.73431 0.0
C419 C 0.486 0.28169 0.69243 0.0
C420 C 0.48437 0.23742 0.73593 0.0
C421 C 0.48554 0.22465 0.69506 0.0
C422 C 0.48062 0.19597 0.69662 0.0
C423 C 0.47628 0.18051 0.739 0.0
C424 C 0.47631 0.19266 0.77994 0.0
C425 C 0.47979 0.22071 0.77844 0.0
H426 H 0.08237 0.44664 0.04199 0.0
H427 H 0.10328 0.53456 0.06541 0.0
H428 H 0.14988 0.5458 0.10402 0.0
H429 H 0.18087 0.52837 0.13927 0.0
H430 H 0.15906 0.43966 0.12037 0.0
H431 H 0.11737 0.43112 0.07037 0.0
C432 C 0.09749 0.46831 0.05511 0.0
C433 C 0.08956 0.48974 0.0515 0.0
C434 C 0.12413 0.47447 0.07762 0.0
C435 C 0.10908 0.51782 0.06825 0.0
C436 C 0.13566 0.52421 0.09018 0.0
C437 C 0.16762 0.50757 0.12279 0.0
C438 C 0.17306 0.48473 0.1331 0.0
C439 C 0.14299 0.50247 0.09603 0.0
C440 C 0.15558 0.45769 0.11225 0.0
C441 C 0.13143 0.45268 0.08436 0.0
H442 H 0.63543 0.08617 0.54279 0.0
H443 H 0.56082 0.09405 0.58525 0.0
H444 H 0.59571 0.13731 0.62782 0.0
H445 H 0.64608 0.16931 0.65949 0.0
H446 H 0.72082 0.16063 0.62116 0.0
H447 H 0.6878 0.12212 0.56917 0.0
C448 C 0.62709 0.09776 0.56088 0.0
C449 C 0.59569 0.08706 0.56122 0.0
C450 C 0.64736 0.12252 0.58573 0.0
C451 C 0.58491 0.10199 0.58478 0.0
C452 C 0.60484 0.12668 0.60902 0.0
C453 C 0.65532 0.15949 0.63882 0.0
C454 C 0.68583 0.16777 0.64415 0.0
C455 C 0.63593 0.13671 0.61057 0.0
C456 C 0.69755 0.15488 0.61729 0.0
C457 C 0.67851 0.13255 0.5881 0.0
H458 H 0.50736 0.6271 0.08161 0.0
H459 H 0.58781 0.63017 0.1283 0.0
H460 H 0.59972 0.67089 0.17601 0.0
H461 H 0.5838 0.70088 0.2118 0.0
H462 H 0.50186 0.69624 0.1699 0.0
H463 H 0.49447 0.66171 0.11177 0.0
C464 C 0.52781 0.63717 0.10153 0.0
C465 C 0.54649 0.62544 0.102 0.0
C466 C 0.5342 0.66026 0.12969 0.0
C467 C 0.57286 0.63854 0.12804 0.0
C468 C 0.57972 0.66185 0.1552 0.0
C469 C 0.56469 0.69277 0.18919 0.0
C470 C 0.54325 0.70078 0.19522 0.0
C471 C 0.56004 0.67219 0.15739 0.0
C472 C 0.51871 0.69043 0.16565 0.0
C473 C 0.51432 0.67043 0.13285 0.0
H474 H 0.94314 0.57104 0.63359 0.0
H475 H 0.87182 0.4921 0.57395 0.0
H476 H 0.8333 0.49216 0.62213 0.0
H477 H 0.82079 0.51123 0.68828 0.0
H478 H 0.89251 0.58968 0.74828 0.0
H479 H 0.92983 0.59379 0.69241 0.0
C480 C 0.91911 0.55408 0.63085 0.0
C481 C 0.91033 0.53143 0.6007 0.0
C482 C 0.89714 0.55428 0.65864 0.0
C483 C 0.87911 0.50979 0.59692 0.0
C484 C 0.8571 0.50976 0.62457 0.0
C485 C 0.84439 0.52979 0.68787 0.0
C486 C 0.85395 0.55024 0.72204 0.0
C487 C 0.8659 0.53149 0.65638 0.0
C488 C 0.88469 0.57389 0.72194 0.0
C489 C 0.90606 0.57602 0.69037 0.0
H490 H 0.37845 0.92197 0.05366 0.0
H491 H 0.45243 0.91299 0.09796 0.0
H492 H 0.41756 0.87073 0.1513 0.0
H493 H 0.3677 0.84073 0.19166 0.0
H494 H 0.29368 0.85045 0.15049 0.0
H495 H 0.3264 0.8874 0.08854 0.0
C496 C 0.38657 0.91023 0.07445 0.0
C497 C 0.41773 0.92031 0.0724 0.0
C498 C 0.36642 0.88621 0.10541 0.0
C499 C 0.42842 0.90536 0.09937 0.0
C500 C 0.40855 0.88133 0.12977 0.0
C501 C 0.3586 0.85046 0.16831 0.0
C502 C 0.32852 0.84314 0.17547 0.0
C503 C 0.37774 0.87214 0.13397 0.0
C504 C 0.31676 0.8557 0.14524 0.0
C505 C 0.33557 0.87703 0.11025 0.0
H506 H 0.45453 0.37528 0.54317 0.0
H507 H 0.54529 0.44789 0.56987 0.0
H508 H 0.55463 0.4138 0.61577 0.0
H509 H 0.53475 0.36476 0.65565 0.0
H510 H 0.44328 0.29209 0.63278 0.0
H511 H 0.43657 0.32424 0.57686 0.0
C512 C 0.47644 0.38332 0.55853 0.0
C513 C 0.49922 0.41389 0.55362 0.0
C514 C 0.48146 0.36355 0.58532 0.0
C515 C 0.52755 0.42439 0.57349 0.0
C516 C 0.53283 0.40493 0.59967 0.0
C517 C 0.51367 0.35578 0.63736 0.0
C518 C 0.48953 0.32616 0.64819 0.0
C519 C 0.5097 0.37465 0.60676 0.0
C520 C 0.46227 0.31472 0.62458 0.0
C521 C 0.45831 0.33324 0.59314 0.0
H522 H 0.54242 0.90029 0.46294 0.0
H523 H 0.47633 0.90107 0.37428 0.0
H524 H 0.47126 0.85997 0.33433 0.0
H525 H 0.49111 0.82926 0.31689 0.0
H526 H 0.56149 0.83167 0.39824 0.0
H527 H 0.55867 0.86493 0.44989 0.0
C528 C 0.52661 0.89104 0.43536 0.0
C529 C 0.51 0.90389 0.42119 0.0
C530 C 0.52454 0.86785 0.41137 0.0
C531 C 0.48959 0.8918 0.3854 0.0
C532 C 0.48662 0.86823 0.36262 0.0
C533 C 0.50507 0.83631 0.3469 0.0
C534 C 0.52648 0.82818 0.35385 0.0
C535 C 0.50468 0.85678 0.3743 0.0
C536 C 0.54463 0.83746 0.39255 0.0
C537 C 0.54337 0.85688 0.42154 0.0
H538 H 0.59874 0.49042 0.96141 0.0
H539 H 0.63706 0.58501 0.95509 0.0
H540 H 0.6846 0.59434 0.9203 0.0
H541 H 0.71224 0.575 0.88217 0.0
H542 H 0.67454 0.48058 0.88985 0.0
H543 H 0.63031 0.47166 0.93505 0.0
C544 C 0.61777 0.51306 0.9531 0.0
C545 C 0.61422 0.53701 0.95957 0.0
C546 C 0.64521 0.51823 0.93376 0.0
C547 C 0.6391 0.56626 0.94938 0.0
C548 C 0.66629 0.57158 0.92969 0.0
C549 C 0.69499 0.55264 0.89564 0.0
C550 C 0.69681 0.52849 0.88338 0.0
C551 C 0.66928 0.5477 0.92054 0.0
C552 C 0.67395 0.49951 0.89983 0.0
C553 C 0.6484 0.4944 0.92495 0.0
H554 H 0.08431 0.64491 0.45325 0.0
H555 H 0.10573 0.57847 0.43506 0.0
H556 H 0.15237 0.61519 0.39063 0.0
H557 H 0.1827 0.66396 0.34824 0.0
H558 H 0.16043 0.73012 0.36241 0.0
H559 H 0.119 0.69632 0.41826 0.0
C560 C 0.09963 0.63886 0.44014 0.0
C561 C 0.09182 0.60924 0.44673 0.0
C562 C 0.12615 0.66003 0.41413 0.0
C563 C 0.11153 0.60125 0.42997 0.0
C564 C 0.13806 0.62218 0.40463 0.0
C565 C 0.16938 0.67125 0.36491 0.0
C566 C 0.1745 0.69937 0.35174 0.0
C567 C 0.14508 0.65135 0.39537 0.0
C568 C 0.15703 0.70867 0.37273 0.0
C569 C 0.13312 0.68919 0.40407 0.0
H570 H 0.51043 0.12966 0.93249 0.0
H571 H 0.427 0.0534 0.8886 0.0
H572 H 0.41573 0.08613 0.84353 0.0
H573 H 0.43334 0.13565 0.80756 0.0
H574 H 0.51767 0.21206 0.84783 0.0
H575 H 0.52425 0.18037 0.90467 0.0
C576 C 0.48943 0.12027 0.91396 0.0
C577 C 0.46987 0.08908 0.9132 0.0
C578 C 0.48325 0.13931 0.88747 0.0
C579 C 0.44277 0.07728 0.88892 0.0
C580 C 0.43623 0.09599 0.86327 0.0
C581 C 0.45265 0.14545 0.82988 0.0
C582 C 0.47507 0.17606 0.82345 0.0
C583 C 0.45684 0.12694 0.86097 0.0
C584 C 0.5 0.18859 0.85244 0.0
C585 C 0.50397 0.17037 0.88444 0.0
H586 H 0.36716 0.4615 0.41935 0.0
H587 H 0.44207 0.54672 0.36358 0.0
H588 H 0.40757 0.55239 0.31356 0.0
H589 H 0.35789 0.5305 0.27892 0.0
H590 H 0.28297 0.44389 0.3291 0.0
H591 H 0.31517 0.44148 0.38891 0.0
C592 C 0.37562 0.48146 0.39677 0.0
C593 C 0.40704 0.50359 0.39464 0.0
C594 C 0.35565 0.48422 0.36716 0.0
C595 C 0.41798 0.52936 0.36529 0.0
C596 C 0.39829 0.5326 0.33677 0.0
C597 C 0.34846 0.51142 0.30374 0.0
C598 C 0.31828 0.48737 0.29977 0.0
C599 C 0.36735 0.50982 0.33645 0.0
C600 C 0.30613 0.46272 0.33186 0.0
C601 C 0.32465 0.46125 0.36563 0.0
H602 H 0.9355 0.37067 0.87665 0.0
H603 H 0.86913 0.38392 0.93975 0.0
H604 H 0.82865 0.3449 0.89599 0.0
H605 H 0.81345 0.31143 0.83239 0.0
H606 H 0.8801 0.29882 0.76897 0.0
H607 H 0.91887 0.33239 0.82077 0.0
C608 C 0.91209 0.36473 0.88113 0.0
C609 C 0.90537 0.38037 0.911 0.0
C610 C 0.88891 0.34219 0.85591 0.0
C611 C 0.87488 0.37219 0.91699 0.0
C612 C 0.85173 0.34992 0.89186 0.0
C613 C 0.83614 0.31517 0.83129 0.0
C614 C 0.84389 0.30248 0.79735 0.0
C615 C 0.85858 0.33524 0.86039 0.0
C616 C 0.87358 0.30805 0.79534 0.0
C617 C 0.89584 0.32755 0.82452 0.0
H618 H 0.89087 0.47742 0.96009 0.0
H619 H 0.95704 0.57135 0.96629 0.0
H620 H 0.92057 0.58278 0.93425 0.0
H621 H 0.87312 0.56618 0.89345 0.0
H622 H 0.80744 0.4725 0.88432 0.0
H623 H 0.8397 0.46058 0.92991 0.0
C624 C 0.89692 0.5003 0.95524 0.0
C625 C 0.92664 0.5236 0.96472 0.0
C626 C 0.87583 0.50665 0.93651 0.0
C627 C 0.93435 0.55318 0.95868 0.0
C628 C 0.91352 0.55967 0.9404 0.0
C629 C 0.86531 0.54317 0.90333 0.0
C630 C 0.83782 0.52021 0.88617 0.0
C631 C 0.88458 0.53664 0.9278 0.0
C632 C 0.82819 0.49047 0.89803 0.0
C633 C 0.84693 0.48371 0.92335 0.0
H634 H 0.3696 0.91631 0.45664 0.0
H635 H 0.45118 0.92472 0.40276 0.0
H636 H 0.42057 0.88261 0.35551 0.0
H637 H 0.37131 0.84719 0.32358 0.0
H638 H 0.28937 0.83981 0.37364 0.0
H639 H 0.31896 0.87673 0.42957 0.0
C640 C 0.38046 0.90843 0.43514 0.0
C641 C 0.41256 0.92341 0.43304 0.0
C642 C 0.3626 0.88435 0.40759 0.0
C643 C 0.42652 0.91335 0.40481 0.0
C644 C 0.40904 0.88936 0.37786 0.0
C645 C 0.35983 0.85321 0.34744 0.0
C646 C 0.32819 0.8409 0.34425 0.0
C647 C 0.37714 0.87516 0.37817 0.0
C648 C 0.31361 0.84875 0.37558 0.0
C649 C 0.33063 0.87019 0.40713 0.0
H650 H 0.46987 0.36692 0.93569 0.0
H651 H 0.54471 0.44687 0.86611 0.0
H652 H 0.55456 0.41715 0.81731 0.0
H653 H 0.53803 0.36904 0.78801 0.0
H654 H 0.46087 0.28872 0.85229 0.0
H655 H 0.4565 0.31762 0.91065 0.0
C656 C 0.48856 0.37768 0.91026 0.0
C657 C 0.5062 0.40899 0.90383 0.0
C658 C 0.49374 0.36036 0.88152 0.0
C659 C 0.53045 0.42278 0.87095 0.0
C660 C 0.53619 0.40583 0.84321 0.0
C661 C 0.52066 0.35781 0.81542 0.0
C662 C 0.49961 0.32689 0.81561 0.0
C663 C 0.51742 0.37468 0.84724 0.0
C664 C 0.47743 0.3125 0.85154 0.0
C665 C 0.47467 0.3291 0.88451 0.0
H666 H 0.13476 0.52399 0.4126 0.0
H667 H 0.05449 0.44329 0.37211 0.0
H668 H 0.08605 0.43343 0.32411 0.0
H669 H 0.13531 0.4504 0.28693 0.0
H670 H 0.21578 0.53265 0.32149 0.0
H671 H 0.18574 0.53887 0.37957 0.0
C672 C 0.12436 0.50403 0.39382 0.0
C673 C 0.09229 0.48452 0.39549 0.0
C674 C 0.14273 0.4988 0.3653 0.0
C675 C 0.07904 0.45881 0.37086 0.0
C676 C 0.09708 0.45312 0.34352 0.0
C677 C 0.14639 0.46938 0.30792 0.0
C678 C 0.17765 0.49111 0.29987 0.0
C679 C 0.12878 0.47334 0.33952 0.0
C680 C 0.19181 0.51553 0.32731 0.0
C681 C 0.17451 0.51924 0.36007 0.0
H682 H 0.64105 0.09377 0.93655 0.0
H683 H 0.56134 0.09042 0.8861 0.0
H684 H 0.59337 0.13338 0.83204 0.0
H685 H 0.6431 0.16742 0.79282 0.0
H686 H 0.72291 0.16993 0.84069 0.0
H687 H 0.69221 0.1327 0.90337 0.0
C688 C 0.63096 0.10301 0.91435 0.0
C689 C 0.59907 0.08917 0.91488 0.0
C690 C 0.64954 0.12755 0.88313 0.0
C691 C 0.58592 0.10089 0.8859 0.0
C692 C 0.60419 0.12537 0.85511 0.0
C693 C 0.65384 0.16032 0.81777 0.0
C694 C 0.68508 0.17113 0.8121 0.0
C695 C 0.6359 0.13829 0.85253 0.0
C696 C 0.69892 0.16201 0.84461 0.0
C697 C 0.68128 0.14044 0.88003 0.0
H698 H 0.5031 0.60013 0.44863 0.0
H699 H 0.59944 0.63454 0.43936 0.0
H700 H 0.60924 0.68113 0.4009 0.0
H701 H 0.58916 0.7088 0.3603 0.0
H702 H 0.49315 0.6752 0.37211 0.0
H703 H 0.48444 0.63209 0.42066 0.0
C704 C 0.52628 0.61811 0.43892 0.0
C705 C 0.55045 0.61366 0.4454 0.0
C706 C 0.53176 0.64504 0.41767 0.0
C707 C 0.58043 0.63724 0.4335 0.0
C708 C 0.58603 0.66389 0.41173 0.0
C709 C 0.56662 0.69272 0.37537 0.0
C710 C 0.54187 0.6953 0.36328 0.0
C711 C 0.56176 0.66768 0.4024 0.0
C712 C 0.5126 0.67397 0.38188 0.0
C713 C 0.50756 0.64906 0.40894 0.0
H714 H 0.51526 0.13431 0.55545 0.0
H715 H 0.42473 0.06097 0.59789 0.0
H716 H 0.41574 0.09442 0.6384 0.0
H717 H 0.43594 0.14269 0.67032 0.0
H718 H 0.52724 0.21576 0.63262 0.0
H719 H 0.53328 0.18474 0.58025 0.0
C720 C 0.49335 0.12583 0.57275 0.0
C721 C 0.47085 0.09508 0.57425 0.0
C722 C 0.48848 0.14521 0.59669 0.0
C723 C 0.44262 0.0844 0.59699 0.0
C724 C 0.43741 0.10354 0.61999 0.0
C725 C 0.4568 0.15204 0.64948 0.0
C726 C 0.48112 0.18137 0.65521 0.0
C727 C 0.46049 0.13373 0.62127 0.0
C728 C 0.50812 0.19333 0.62836 0.0
C729 C 0.51169 0.17543 0.59898 0.0
H730 H 0.42023 0.52939 0.05112 0.0
H731 H 0.37951 0.43439 0.05926 0.0
H732 H 0.33289 0.42666 0.09495 0.0
H733 H 0.30683 0.44745 0.13351 0.0
H734 H 0.34721 0.54231 0.12538 0.0
H735 H 0.39028 0.5497 0.07875 0.0
C736 C 0.40089 0.50702 0.06008 0.0
C737 C 0.40353 0.48249 0.0538 0.0
C738 C 0.37402 0.50278 0.08025 0.0
C739 C 0.3782 0.45359 0.06479 0.0
C740 C 0.35154 0.44919 0.08503 0.0
C741 C 0.32439 0.4696 0.11966 0.0
C742 C 0.32359 0.49428 0.13209 0.0
C743 C 0.34952 0.47365 0.09414 0.0
C744 C 0.34694 0.52297 0.11523 0.0
C745 C 0.37185 0.52719 0.08929 0.0
H746 H 0.91236 0.37949 0.51898 0.0
H747 H 0.91126 0.44713 0.59089 0.0
H748 H 0.86645 0.40884 0.63723 0.0
H749 H 0.83288 0.35642 0.66473 0.0
H750 H 0.83535 0.28835 0.5965 0.0
H751 H 0.87339 0.32614 0.53999 0.0
C752 C 0.90173 0.38564 0.54413 0.0
C753 C 0.91488 0.41585 0.55195 0.0
C754 C 0.87622 0.36342 0.57106 0.0
C755 C 0.90134 0.42389 0.58466 0.0
C756 C 0.87581 0.40205 0.61106 0.0
C757 C 0.84097 0.34985 0.63639 0.0
C758 C 0.83142 0.31978 0.63453 0.0
C759 C 0.86369 0.37177 0.60554 0.0
C760 C 0.84216 0.31136 0.59814 0.0
C761 C 0.86426 0.33303 0.56635 0.0
H762 H 0.58187 0.93879 0.10802 0.0
H763 H 0.49328 0.87452 0.05886 0.0
H764 H 0.49371 0.8343 0.10272 0.0
H765 H 0.51613 0.81843 0.16343 0.0
H766 H 0.60379 0.88278 0.21448 0.0
H767 H 0.60738 0.92172 0.16089 0.0
C768 C 0.56286 0.91592 0.10656 0.0
C769 C 0.53747 0.9097 0.08056 0.0
C770 C 0.56322 0.89286 0.13204 0.0
C771 C 0.51315 0.87991 0.07847 0.0
C772 C 0.51332 0.85689 0.10369 0.0
C773 C 0.53656 0.8407 0.16125 0.0
C774 C 0.55991 0.84772 0.19217 0.0
C775 C 0.53787 0.86317 0.13152 0.0
C776 C 0.58589 0.87684 0.19023 0.0
C777 C 0.58768 0.89916 0.16013 0.0
H778 H 0.64757 0.5667 0.6182 0.0
H779 H 0.61503 0.47736 0.58283 0.0
H780 H 0.65205 0.47578 0.63315 0.0
H781 H 0.68943 0.49791 0.69458 0.0
H782 H 0.72113 0.58707 0.72982 0.0
H783 H 0.68937 0.59104 0.67164 0.0
C784 C 0.64895 0.54708 0.62114 0.0
C785 C 0.62854 0.5221 0.59734 0.0
C786 C 0.67024 0.54639 0.65003 0.0
C787 C 0.63062 0.49687 0.60088 0.0
C788 C 0.65169 0.49593 0.62974 0.0
C789 C 0.69008 0.51849 0.68822 0.0
C790 C 0.70763 0.54226 0.716 0.0
C791 C 0.67113 0.52031 0.65538 0.0
C792 C 0.70795 0.56867 0.70835 0.0
C793 C 0.68957 0.57081 0.67548 0.0
H794 H 0.13675 0.61917 0.07573 0.0
H795 H 0.05821 0.62052 0.11919 0.0
H796 H 0.0904 0.66281 0.16479 0.0
H797 H 0.13936 0.69543 0.1993 0.0
H798 H 0.21796 0.69284 0.16154 0.0
H799 H 0.18777 0.65583 0.10578 0.0
C800 C 0.12691 0.62917 0.09456 0.0
C801 C 0.09508 0.61659 0.09443 0.0
C802 C 0.14561 0.65324 0.12175 0.0
C803 C 0.08254 0.62959 0.11918 0.0
C804 C 0.10095 0.6538 0.1452 0.0
C805 C 0.15004 0.68719 0.17814 0.0
C806 C 0.18078 0.69672 0.18465 0.0
C807 C 0.13229 0.66523 0.14775 0.0
C808 C 0.19441 0.68602 0.15692 0.0
C809 C 0.17701 0.66459 0.12548 0.0
loop_
_geom_bond_atom_site_label_1
_geom_bond_atom_site_label_2
_geom_bond_distance
_geom_bond_site_symmetry_2
_ccdc_geom_bond_type
C0 C1 1.443 1_556 S
C0 N4 1.376 1_556 S
C0 C38 1.389 . S
C1 C0 1.443 1_554 S
C1 C2 1.340 . S
C1 H41 0.951 . S
C2 C1 1.340 . S
C2 C3 1.439 . S
C2 H42 0.950 . S
C3 C2 1.439 . S
C3 N4 1.374 . S
C3 C37 1.395 . S
N4 C0 1.376 1_554 S
N4 C3 1.374 . S
N4 Co5 2.011 1_655 S
Co5 N4 2.011 1_455 S
Co5 N6 2.003 . S
Co5 N11 2.005 1_554 S
Co5 N16 1.986 1_554 S
Co5 N21 2.288 . S
Co5 N27 2.276 1_454 S
N6 Co5 2.003 . S
N6 C7 1.376 1_455 S
N6 C10 1.383 . S
C7 N6 1.376 1_655 S
C7 C8 1.446 . S
C7 C37 1.391 . S
C8 C7 1.446 . S
C8 C9 1.339 1_655 S
C8 H43 0.949 . S
C9 C8 1.339 1_455 S
C9 C10 1.439 . S
C9 H44 0.950 . S
C10 N6 1.383 . S
C10 C9 1.439 . S
C10 C39 1.392 . S
N11 Co5 2.005 1_556 S
N11 C12 1.376 1_556 S
N11 C15 1.374 . S
C12 N11 1.376 1_554 S
C12 C13 1.443 1_554 S
C12 C39 1.389 . S
C13 C12 1.443 1_556 S
C13 C14 1.340 . S
C13 H45 0.951 . S
C14 C13 1.340 . S
C14 C15 1.439 . S
C14 H46 0.950 . S
C15 N11 1.374 . S
C15 C14 1.439 . S
C15 C40 1.395 . S
N16 Co5 1.986 1_556 S
N16 C17 1.376 . S
N16 C20 1.383 1_455 S
C17 N16 1.376 . S
C17 C18 1.446 . S
C17 C40 1.391 . S
C18 C17 1.446 . S
C18 C19 1.339 1_455 S
C18 H47 0.949 . S
C19 C18 1.339 1_655 S
C19 C20 1.439 . S
C19 H48 0.950 . S
C20 N16 1.383 1_655 S
C20 C19 1.439 . S
C20 C38 1.392 . S
N21 Co5 2.288 . S
N21 C24 1.332 . S
N21 C26 1.332 . S
C22 C23 1.386 . S
C22 C25 1.388 . S
C23 C22 1.386 . S
C23 C24 1.382 . S
C23 H49 0.950 . S
C24 N21 1.332 . S
C24 C23 1.382 . S
C24 H35 0.952 1_554 S
C25 C22 1.388 . S
C25 C26 1.382 . S
C25 H50 0.950 . S
C26 N21 1.332 . S
C26 C25 1.382 . S
C26 H36 0.948 . S
N27 Co5 2.276 1_656 S
N27 C31 1.332 . S
N27 C32 1.332 . S
C28 C29 1.388 . S
C28 C32 1.382 . S
C28 H51 0.950 . S
C29 C28 1.388 . S
C29 C30 1.386 . S
C30 C29 1.386 . S
C30 C31 1.382 . S
C30 H52 0.950 . S
C31 N27 1.332 . S
C31 C30 1.382 . S
C31 H33 0.952 1_556 S
C32 N27 1.332 . S
C32 C28 1.382 . S
C32 H34 0.948 . S
H33 C31 0.952 1_554 S
H34 C32 0.948 . S
H35 C24 0.952 1_556 S
H36 C26 0.948 . S
C37 C3 1.395 . S
C37 C7 1.391 . S
C38 C0 1.389 . S
C38 C20 1.392 . S
C39 C10 1.392 . S
C39 C12 1.389 . S
C40 C15 1.395 . S
C40 C17 1.391 . S
H41 C1 0.951 . S
H42 C2 0.950 . S
H43 C8 0.949 . S
H44 C9 0.950 . S
H45 C13 0.951 . S
H46 C14 0.950 . S
H47 C18 0.949 . S
H48 C19 0.950 . S
H49 C23 0.950 . S
H50 C25 0.950 . S
H51 C28 0.950 . S
H52 C30 0.950 . S
C53 C54 1.443 . S
C53 N57 1.376 . S
C53 C91 1.389 . S
C54 C53 1.443 . S
C54 C55 1.340 1_545 S
C54 H94 0.951 . S
C55 C54 1.340 1_565 S
C55 C56 1.439 . S
C55 H95 0.950 . S
C56 C55 1.439 . S
C56 N57 1.374 1_565 S
C56 C90 1.395 . S
N57 C53 1.376 . S
N57 C56 1.374 1_545 S
N57 Co58 2.008 . S
Co58 N57 2.008 . S
Co58 N59 1.995 1_545 S
Co58 N64 2.008 . S
Co58 N69 1.995 . S
Co58 N74 2.282 1_545 S
Co58 N80 2.282 . S
N59 Co58 1.995 1_565 S
N59 C60 1.376 . S
N59 C63 1.383 . S
C60 N59 1.376 . S
C60 C61 1.446 . S
C60 C90 1.391 . S
C61 C60 1.446 . S
C61 C62 1.339 . S
C61 H96 0.949 . S
C62 C61 1.339 . S
C62 C63 1.439 . S
C62 H97 0.950 . S
C63 N59 1.383 . S
C63 C62 1.439 . S
C63 C92 1.392 . S
N64 Co58 2.008 . S
N64 C65 1.376 1_545 S
N64 C68 1.374 . S
C65 N64 1.376 1_565 S
C65 C66 1.443 . S
C65 C92 1.389 . S
C66 C65 1.443 . S
C66 C67 1.340 1_565 S
C66 H98 0.951 . S
C67 C66 1.340 1_545 S
C67 C68 1.439 . S
C67 H99 0.950 . S
C68 N64 1.374 . S
C68 C67 1.439 . S
C68 C93 1.395 . S
N69 Co58 1.995 . S
N69 C70 1.376 . S
N69 C73 1.383 . S
C70 N69 1.376 . S
C70 C71 1.446 . S
C70 C93 1.391 . S
C71 C70 1.446 . S
C71 C72 1.339 . S
C71 H100 0.949 . S
C72 C71 1.339 . S
C72 C73 1.439 . S
C72 H101 0.950 . S
C73 N69 1.383 . S
C73 C72 1.439 . S
C73 C91 1.392 . S
N74 Co58 2.282 1_565 S
N74 C77 1.332 . S
N74 C79 1.332 . S
C75 C76 1.386 . S
C75 C78 1.388 . S
C76 C75 1.386 . S
C76 C77 1.382 . S
C76 H102 0.950 . S
C77 N74 1.332 . S
C77 C76 1.382 . S
C77 H88 0.952 1_565 S
C78 C75 1.388 . S
C78 C79 1.382 . S
C78 H103 0.950 . S
C79 N74 1.332 . S
C79 C78 1.382 . S
C79 H89 0.948 . S
N80 Co58 2.282 . S
N80 C84 1.332 . S
N80 C85 1.332 . S
C81 C82 1.388 . S
C81 C85 1.382 . S
C81 H104 0.950 . S
C82 C81 1.388 . S
C82 C83 1.386 . S
C83 C82 1.386 . S
C83 C84 1.382 . S
C83 H105 0.950 . S
C84 N80 1.332 . S
C84 C83 1.382 . S
C84 H86 0.952 . S
C85 N80 1.332 . S
C85 C81 1.382 . S
C85 H87 0.948 . S
H86 C84 0.952 . S
H87 C85 0.948 . S
H88 C77 0.952 1_545 S
H89 C79 0.948 . S
C90 C56 1.395 . S
C90 C60 1.391 . S
C91 C53 1.389 . S
C91 C73 1.392 . S
C92 C63 1.392 . S
C92 C65 1.389 . S
C93 C68 1.395 . S
C93 C70 1.391 . S
H94 C54 0.951 . S
H95 C55 0.950 . S
H96 C61 0.949 . S
H97 C62 0.950 . S
H98 C66 0.951 . S
H99 C67 0.950 . S
H100 C71 0.949 . S
H101 C72 0.950 . S
H102 C76 0.950 . S
H103 C78 0.950 . S
H104 C81 0.950 . S
H105 C83 0.950 . S
C106 C107 1.443 . S
C106 N110 1.376 . S
C106 C144 1.389 . S
C107 C106 1.443 . S
C107 C108 1.340 . S
C107 H147 0.951 . S
C108 C107 1.340 . S
C108 C109 1.439 . S
C108 H148 0.950 . S
C109 C108 1.439 . S
C109 N110 1.374 . S
C109 C143 1.395 . S
N110 C106 1.376 . S
N110 C109 1.374 . S
N110 Co111 1.996 1_556 S
Co111 N110 1.996 1_554 S
Co111 N112 1.990 1_554 S
Co111 N117 2.021 . S
Co111 N122 2.000 . S
Co111 N127 2.289 . S
Co111 N133 2.276 1_554 S
N112 Co111 1.990 1_556 S
N112 C113 1.376 . S
N112 C116 1.383 1_556 S
C113 N112 1.376 . S
C113 C114 1.446 . S
C113 C143 1.391 . S
C114 C113 1.446 . S
C114 C115 1.339 . S
C114 H149 0.949 . S
C115 C114 1.339 . S
C115 C116 1.439 1_556 S
C115 H150 0.950 . S
C116 N112 1.383 1_554 S
C116 C115 1.439 1_554 S
C116 C145 1.392 . S
N117 Co111 2.021 . S
N117 C118 1.376 . S
N117 C121 1.374 . S
C118 N117 1.376 . S
C118 C119 1.443 . S
C118 C145 1.389 . S
C119 C118 1.443 . S
C119 C120 1.340 . S
C119 H151 0.951 . S
C120 C119 1.340 . S
C120 C121 1.439 . S
C120 H152 0.950 . S
C121 N117 1.374 . S
C121 C120 1.439 . S
C121 C146 1.395 . S
N122 Co111 2.000 . S
N122 C123 1.376 . S
N122 C126 1.383 1_554 S
C123 N122 1.376 . S
C123 C124 1.446 . S
C123 C146 1.391 . S
C124 C123 1.446 . S
C124 C125 1.339 . S
C124 H153 0.949 . S
C125 C124 1.339 . S
C125 C126 1.439 1_554 S
C125 H154 0.950 . S
C126 N122 1.383 1_556 S
C126 C125 1.439 1_556 S
C126 C144 1.392 . S
N127 Co111 2.289 . S
N127 C130 1.332 . S
N127 C132 1.332 . S
C128 C129 1.386 . S
C128 C131 1.388 . S
C129 C128 1.386 . S
C129 C130 1.382 . S
C129 H155 0.950 . S
C130 N127 1.332 . S
C130 C129 1.382 . S
C130 H141 0.952 . S
C131 C128 1.388 . S
C131 C132 1.382 . S
C131 H156 0.950 . S
C132 N127 1.332 . S
C132 C131 1.382 . S
C132 H142 0.948 1_554 S
N133 Co111 2.276 1_556 S
N133 C137 1.332 . S
N133 C138 1.332 . S
C134 C135 1.388 . S
C134 C138 1.382 . S
C134 H157 0.950 . S
C135 C134 1.388 . S
C135 C136 1.386 . S
C136 C135 1.386 . S
C136 C137 1.382 . S
C136 H158 0.950 . S
C137 N133 1.332 . S
C137 C136 1.382 . S
C137 H139 0.952 . S
C138 N133 1.332 . S
C138 C134 1.382 . S
C138 H140 0.948 1_556 S
H139 C137 0.952 . S
H140 C138 0.948 1_554 S
H141 C130 0.952 . S
H142 C132 0.948 1_556 S
C143 C109 1.395 . S
C143 C113 1.391 . S
C144 C106 1.389 . S
C144 C126 1.392 . S
C145 C116 1.392 . S
C145 C118 1.389 . S
C146 C121 1.395 . S
C146 C123 1.391 . S
H147 C107 0.951 . S
H148 C108 0.950 . S
H149 C114 0.949 . S
H150 C115 0.950 . S
H151 C119 0.951 . S
H152 C120 0.950 . S
H153 C124 0.949 . S
H154 C125 0.950 . S
H155 C129 0.950 . S
H156 C131 0.950 . S
H157 C134 0.950 . S
H158 C136 0.950 . S
C159 C160 1.443 . S
C159 N163 1.376 . S
C159 C197 1.389 . S
C160 C159 1.443 . S
C160 C161 1.340 . S
C160 H200 0.951 . S
C161 C160 1.340 . S
C161 C162 1.439 . S
C161 H201 0.950 . S
C162 C161 1.439 . S
C162 N163 1.374 . S
C162 C196 1.395 . S
N163 C159 1.376 . S
N163 C162 1.374 . S
N163 Co164 2.008 1_655 S
Co164 N163 2.008 1_455 S
Co164 N165 1.995 . S
Co164 N170 2.008 . S
Co164 N175 1.995 . S
Co164 N180 2.282 . S
Co164 N186 2.282 1_455 S
N165 Co164 1.995 . S
N165 C166 1.376 1_455 S
N165 C169 1.383 . S
C166 N165 1.376 1_655 S
C166 C167 1.446 . S
C166 C196 1.391 . S
C167 C166 1.446 . S
C167 C168 1.339 1_655 S
C167 H202 0.949 . S
C168 C167 1.339 1_455 S
C168 C169 1.439 . S
C168 H203 0.950 . S
C169 N165 1.383 . S
C169 C168 1.439 . S
C169 C198 1.392 . S
N170 Co164 2.008 . S
N170 C171 1.376 . S
N170 C174 1.374 . S
C171 N170 1.376 . S
C171 C172 1.443 . S
C171 C198 1.389 . S
C172 C171 1.443 . S
C172 C173 1.340 . S
C172 H204 0.951 . S
C173 C172 1.340 . S
C173 C174 1.439 . S
C173 H205 0.950 . S
C174 N170 1.374 . S
C174 C173 1.439 . S
C174 C199 1.395 . S
N175 Co164 1.995 . S
N175 C176 1.375 . S
N175 C179 1.384 1_455 S
C176 N175 1.375 . S
C176 C177 1.446 . S
C176 C199 1.391 . S
C177 C176 1.446 . S
C177 C178 1.339 1_455 S
C177 H206 0.949 . S
C178 C177 1.339 1_655 S
C178 C179 1.439 . S
C178 H207 0.950 . S
C179 N175 1.384 1_655 S
C179 C178 1.439 . S
C179 C197 1.392 . S
N180 Co164 2.282 . S
N180 C183 1.332 . S
N180 C185 1.332 . S
C181 C182 1.386 . S
C181 C184 1.388 . S
C182 C181 1.386 . S
C182 C183 1.382 . S
C182 H208 0.950 . S
C183 N180 1.332 . S
C183 C182 1.382 . S
C183 H194 0.952 . S
C184 C181 1.388 . S
C184 C185 1.382 . S
C184 H209 0.950 . S
C185 N180 1.332 . S
C185 C184 1.382 . S
C185 H195 0.948 . S
N186 Co164 2.282 1_655 S
N186 C190 1.332 . S
N186 C191 1.332 . S
C187 C188 1.388 . S
C187 C191 1.382 . S
C187 H210 0.950 . S
C188 C187 1.388 . S
C188 C189 1.386 . S
C189 C188 1.386 . S
C189 C190 1.382 . S
C189 H211 0.950 . S
C190 N186 1.332 . S
C190 C189 1.382 . S
C190 H192 0.952 . S
C191 N186 1.332 . S
C191 C187 1.382 . S
C191 H193 0.948 . S
H192 C190 0.952 . S
H193 C191 0.948 . S
H194 C183 0.952 . S
H195 C185 0.948 . S
C196 C162 1.395 . S
C196 C166 1.391 . S
C197 C159 1.389 . S
C197 C179 1.392 . S
C198 C169 1.392 . S
C198 C171 1.389 . S
C199 C174 1.395 . S
C199 C176 1.391 . S
H200 C160 0.951 . S
H201 C161 0.950 . S
H202 C167 0.949 . S
H203 C168 0.950 . S
H204 C172 0.951 . S
H205 C173 0.950 . S
H206 C177 0.949 . S
H207 C178 0.950 . S
H208 C182 0.950 . S
H209 C184 0.950 . S
H210 C187 0.950 . S
H211 C189 0.950 . S
C212 C213 1.443 . S
C212 N216 1.376 1_565 S
C212 C250 1.389 . S
C213 C212 1.443 . S
C213 C214 1.340 1_565 S
C213 H253 0.951 . S
C214 C213 1.340 1_545 S
C214 C215 1.439 . S
C214 H254 0.950 . S
C215 C214 1.439 . S
C215 N216 1.374 . S
C215 C249 1.395 . S
N216 C212 1.376 1_545 S
N216 C215 1.374 . S
N216 Co217 2.008 . S
Co217 N216 2.008 . S
Co217 N218 1.995 . S
Co217 N223 2.008 1_554 S
Co217 N228 1.995 1_544 S
Co217 N233 2.282 1_554 S
Co217 N239 2.282 1_545 S
N218 Co217 1.995 . S
N218 C219 1.376 . S
N218 C222 1.383 1_554 S
C219 N218 1.376 . S
C219 C220 1.446 . S
C219 C249 1.391 . S
C220 C219 1.446 . S
C220 C221 1.339 . S
C220 H255 0.949 . S
C221 C220 1.339 . S
C221 C222 1.439 1_554 S
C221 H256 0.950 1_554 S
C222 N218 1.383 1_556 S
C222 C221 1.439 1_556 S
C222 C251 1.392 . S
N223 Co217 2.008 1_556 S
N223 C224 1.376 . S
N223 C227 1.374 1_545 S
C224 N223 1.376 . S
C224 C225 1.443 . S
C224 C251 1.389 . S
C225 C224 1.443 . S
C225 C226 1.354 . S
C225 H257 0.951 . S
C226 C225 1.354 . S
C226 C227 1.437 1_545 S
C226 H258 0.940 1_545 S
C227 N223 1.374 1_565 S
C227 C226 1.437 1_565 S
C227 C252 1.395 . S
N228 Co217 1.995 1_566 S
N228 C229 1.376 . S
N228 C232 1.383 1_556 S
C229 N228 1.376 . S
C229 C230 1.446 . S
C229 C252 1.391 . S
C230 C229 1.446 . S
C230 C231 1.339 . S
C230 H259 0.949 . S
C231 C230 1.339 . S
C231 C232 1.439 1_556 S
C231 H260 0.950 1_556 S
C232 N228 1.383 1_554 S
C232 C231 1.439 1_554 S
C232 C250 1.392 . S
N233 Co217 2.282 1_556 S
N233 C236 1.332 . S
N233 C238 1.332 . S
C234 C235 1.386 . S
C234 C237 1.388 . S
C235 C234 1.386 . S
C235 C236 1.382 . S
C235 H261 0.950 . S
C236 N233 1.332 . S
C236 C235 1.382 . S
C236 H247 0.952 . S
C237 C234 1.388 . S
C237 C238 1.382 . S
C237 H262 0.950 . S
C238 N233 1.332 . S
C238 C237 1.382 . S
C238 H248 0.948 1_556 S
N239 Co217 2.282 1_565 S
N239 C243 1.332 . S
N239 C244 1.332 . S
C240 C241 1.388 . S
C240 C244 1.382 . S
C240 H263 0.950 . S
C241 C240 1.388 . S
C241 C242 1.386 . S
C242 C241 1.386 . S
C242 C243 1.382 . S
C242 H264 0.950 . S
C243 N239 1.332 . S
C243 C242 1.382 . S
C243 H245 0.952 1_565 S
C244 N239 1.332 . S
C244 C240 1.382 . S
C244 H246 0.948 1_554 S
H245 C243 0.952 1_545 S
H246 C244 0.948 1_556 S
H247 C236 0.952 . S
H248 C238 0.948 1_554 S
C249 C215 1.395 . S
C249 C219 1.391 . S
C250 C212 1.389 . S
C250 C232 1.392 . S
C251 C222 1.392 . S
C251 C224 1.389 . S
C252 C227 1.395 . S
C252 C229 1.391 . S
H253 C213 0.951 . S
H254 C214 0.950 . S
H255 C220 0.949 . S
H256 C221 0.950 1_556 S
H257 C225 0.951 . S
H258 C226 0.940 1_565 S
H259 C230 0.949 . S
H260 C231 0.950 1_554 S
H261 C235 0.950 . S
H262 C237 0.950 . S
H263 C240 0.950 . S
H264 C242 0.950 . S
C265 C266 1.443 . S
C265 N269 1.376 . S
C265 C303 1.389 . S
C266 C265 1.443 . S
C266 C267 1.340 . S
C266 H306 0.951 . S
C267 C266 1.340 . S
C267 C268 1.439 . S
C267 H307 0.950 . S
C268 C267 1.439 . S
C268 N269 1.374 . S
C268 C302 1.395 . S
N269 C265 1.376 . S
N269 C268 1.374 . S
N269 Co270 2.008 . S
Co270 N269 2.008 . S
Co270 N271 1.995 . S
Co270 N276 2.008 . S
Co270 N281 1.995 . S
Co270 N286 2.282 . S
Co270 N292 2.282 . S
N271 Co270 1.995 . S
N271 C272 1.376 . S
N271 C275 1.383 . S
C272 N271 1.376 . S
C272 C273 1.446 . S
C272 C302 1.391 . S
C273 C272 1.446 . S
C273 C274 1.339 . S
C273 H308 0.949 . S
C274 C273 1.339 . S
C274 C275 1.439 . S
C274 H309 0.950 . S
C275 N271 1.383 . S
C275 C274 1.439 . S
C275 C304 1.392 . S
N276 Co270 2.008 . S
N276 C277 1.376 . S
N276 C280 1.374 . S
C277 N276 1.376 . S
C277 C278 1.443 . S
C277 C304 1.389 . S
C278 C277 1.443 . S
C278 C279 1.340 . S
C278 H310 0.951 . S
C279 C278 1.340 . S
C279 C280 1.439 . S
C279 H311 0.950 . S
C280 N276 1.374 . S
C280 C279 1.439 . S
C280 C305 1.395 . S
N281 Co270 1.995 . S
N281 C282 1.376 . S
N281 C285 1.383 . S
C282 N281 1.376 . S
C282 C283 1.446 . S
C282 C305 1.391 . S
C283 C282 1.446 . S
C283 C284 1.339 . S
C283 H312 0.949 . S
C284 C283 1.339 . S
C284 C285 1.439 . S
C284 H313 0.950 . S
C285 N281 1.383 . S
C285 C284 1.439 . S
C285 C303 1.392 . S
N286 Co270 2.282 . S
N286 C289 1.332 . S
N286 C291 1.332 . S
C287 C288 1.386 . S
C287 C290 1.388 . S
C288 C287 1.386 . S
C288 C289 1.382 . S
C288 H314 0.950 . S
C289 N286 1.332 . S
C289 C288 1.382 . S
C289 H300 0.952 . S
C290 C287 1.388 . S
C290 C291 1.382 . S
C290 H315 0.950 . S
C291 N286 1.332 . S
C291 C290 1.382 . S
C291 H301 0.948 . S
N292 Co270 2.282 . S
N292 C296 1.332 . S
N292 C297 1.332 . S
C293 C294 1.388 . S
C293 C297 1.382 . S
C293 H316 0.950 . S
C294 C293 1.388 . S
C294 C295 1.386 . S
C295 C294 1.386 . S
C295 C296 1.382 . S
C295 H317 0.950 . S
C296 N292 1.332 . S
C296 C295 1.382 . S
C296 H298 0.952 . S
C297 N292 1.332 . S
C297 C293 1.382 . S
C297 H299 0.948 . S
H298 C296 0.952 . S
H299 C297 0.948 . S
H300 C289 0.952 . S
H301 C291 0.948 . S
C302 C268 1.395 . S
C302 C272 1.391 . S
C303 C265 1.389 . S
C303 C285 1.392 . S
C304 C275 1.392 . S
C304 C277 1.389 . S
C305 C280 1.395 . S
C305 C282 1.391 . S
H306 C266 0.951 . S
H307 C267 0.950 . S
H308 C273 0.949 . S
H309 C274 0.950 . S
H310 C278 0.951 . S
H311 C279 0.950 . S
H312 C283 0.949 . S
H313 C284 0.950 . S
H314 C288 0.950 . S
H315 C290 0.950 . S
H316 C293 0.950 . S
H317 C295 0.950 . S
H318 C324 0.930 . S
H319 C327 0.931 . S
H320 C329 0.931 . S
H321 C331 0.930 . S
H322 C333 0.930 . S
H323 C335 0.931 . S
C324 H318 0.930 . S
C324 C325 1.380 . S
C324 C326 1.394 . S
C325 C324 1.380 . S
C325 C329 1.382 . S
C326 C324 1.394 . S
C326 C327 1.400 . S
C327 H319 0.931 . S
C327 C326 1.400 . S
C327 C328 1.375 . S
C328 C327 1.375 . S
C328 C329 1.415 . S
C328 C330 1.501 . S
C329 H320 0.931 . S
C329 C325 1.382 . S
C329 C328 1.415 . S
C330 C328 1.501 . S
C330 C331 1.384 . S
C330 C335 1.408 . S
C331 H321 0.930 . S
C331 C330 1.384 . S
C331 C332 1.389 . S
C332 C331 1.389 . S
C332 C333 1.405 . S
C333 H322 0.930 . S
C333 C332 1.405 . S
C333 C334 1.364 . S
C334 C333 1.364 . S
C334 C335 1.400 . S
C335 H323 0.931 . S
C335 C330 1.408 . S
C335 C334 1.400 . S
H336 C342 0.930 . S
H337 C345 0.931 . S
H338 C347 0.931 . S
H339 C349 0.930 . S
H340 C351 0.930 . S
H341 C353 0.931 . S
C342 H336 0.930 . S
C342 C343 1.380 . S
C342 C344 1.394 . S
C343 C342 1.380 . S
C343 C347 1.382 . S
C344 C342 1.394 . S
C344 C345 1.400 . S
C345 H337 0.931 . S
C345 C344 1.400 . S
C345 C346 1.375 . S
C346 C345 1.375 . S
C346 C347 1.415 . S
C346 C348 1.501 . S
C347 H338 0.931 . S
C347 C343 1.382 . S
C347 C346 1.415 . S
C348 C346 1.501 . S
C348 C349 1.384 . S
C348 C353 1.408 . S
C349 H339 0.930 . S
C349 C348 1.384 . S
C349 C350 1.389 . S
C350 C349 1.389 . S
C350 C351 1.405 . S
C351 H340 0.930 . S
C351 C350 1.405 . S
C351 C352 1.364 . S
C352 C351 1.364 . S
C352 C353 1.400 . S
C353 H341 0.931 . S
C353 C348 1.408 . S
C353 C352 1.400 . S
H354 C360 0.930 . S
H355 C363 0.931 . S
H356 C365 0.931 . S
H357 C367 0.930 . S
H358 C369 0.930 . S
H359 C371 0.931 . S
C360 H354 0.930 . S
C360 C361 1.380 . S
C360 C362 1.394 . S
C361 C360 1.380 . S
C361 C365 1.382 . S
C362 C360 1.394 . S
C362 C363 1.400 . S
C363 H355 0.931 . S
C363 C362 1.400 . S
C363 C364 1.375 . S
C364 C363 1.375 . S
C364 C365 1.415 . S
C364 C366 1.501 . S
C365 H356 0.931 . S
C365 C361 1.382 . S
C365 C364 1.415 . S
C366 C364 1.501 . S
C366 C367 1.384 . S
C366 C371 1.408 . S
C367 H357 0.930 . S
C367 C366 1.384 . S
C367 C368 1.389 . S
C368 C367 1.389 . S
C368 C369 1.405 . S
C369 H358 0.930 . S
C369 C368 1.405 . S
C369 C370 1.364 . S
C370 C369 1.364 . S
C370 C371 1.400 . S
C371 H359 0.931 . S
C371 C366 1.408 . S
C371 C370 1.400 . S
H372 C378 0.930 . S
H373 C381 0.931 . S
H374 C383 0.931 . S
H375 C385 0.930 . S
H376 C387 0.930 . S
H377 C389 0.931 . S
C378 H372 0.930 . S
C378 C379 1.380 . S
C378 C380 1.394 . S
C379 C378 1.380 . S
C379 C383 1.382 . S
C380 C378 1.394 . S
C380 C381 1.400 . S
C381 H373 0.931 . S
C381 C380 1.400 . S
C381 C382 1.375 . S
C382 C381 1.375 . S
C382 C383 1.415 . S
C382 C384 1.501 . S
C383 H374 0.931 . S
C383 C379 1.382 . S
C383 C382 1.415 . S
C384 C382 1.501 . S
C384 C385 1.384 . S
C384 C389 1.408 . S
C385 H375 0.930 . S
C385 C384 1.384 . S
C385 C386 1.389 . S
C386 C385 1.389 . S
C386 C387 1.405 . S
C387 H376 0.930 . S
C387 C386 1.405 . S
C387 C388 1.364 . S
C388 C387 1.364 . S
C388 C389 1.400 . S
C389 H377 0.931 . S
C389 C384 1.408 . S
C389 C388 1.400 . S
H390 C396 0.930 . S
H391 C399 0.931 . S
H392 C401 0.931 . S
H393 C403 0.930 . S
H394 C405 0.930 . S
H395 C407 0.931 . S
C396 H390 0.930 . S
C396 C397 1.380 . S
C396 C398 1.394 . S
C397 C396 1.380 . S
C397 C401 1.382 . S
C398 C396 1.394 . S
C398 C399 1.400 . S
C399 H391 0.931 . S
C399 C398 1.400 . S
C399 C400 1.375 . S
C400 C399 1.375 . S
C400 C401 1.415 . S
C400 C402 1.501 . S
C401 H392 0.931 . S
C401 C397 1.382 . S
C401 C400 1.415 . S
C402 C400 1.501 . S
C402 C403 1.384 . S
C402 C407 1.408 . S
C403 H393 0.930 . S
C403 C402 1.384 . S
C403 C404 1.389 . S
C404 C403 1.389 . S
C404 C405 1.405 . S
C405 H394 0.930 . S
C405 C404 1.405 . S
C405 C406 1.364 . S
C406 C405 1.364 . S
C406 C407 1.400 . S
C407 H395 0.931 . S
C407 C402 1.408 . S
C407 C406 1.400 . S
H408 C414 0.930 . S
H409 C417 0.931 . S
H410 C419 0.931 . S
H411 C421 0.930 . S
H412 C423 0.930 . S
H413 C425 0.931 . S
C414 H408 0.930 . S
C414 C415 1.380 . S
C414 C416 1.394 . S
C415 C414 1.380 . S
C415 C419 1.382 . S
C416 C414 1.394 . S
C416 C417 1.400 . S
C417 H409 0.931 . S
C417 C416 1.400 . S
C417 C418 1.375 . S
C418 C417 1.375 . S
C418 C419 1.415 . S
C418 C420 1.501 . S
C419 H410 0.931 . S
C419 C415 1.382 . S
C419 C418 1.415 . S
C420 C418 1.501 . S
C420 C421 1.384 . S
C420 C425 1.408 . S
C421 H411 0.930 . S
C421 C420 1.384 . S
C421 C422 1.389 . S
C422 C421 1.389 . S
C422 C423 1.405 . S
C423 H412 0.930 . S
C423 C422 1.405 . S
C423 C424 1.364 . S
C424 C423 1.364 . S
C424 C425 1.400 . S
C425 H413 0.931 . S
C425 C420 1.408 . S
C425 C424 1.400 . S
H426 C432 0.930 . S
H427 C435 0.930 . S
H428 C436 0.930 . S
H429 C437 0.930 . S
H430 C440 0.930 . S
H431 C441 0.930 . S
C432 H426 0.930 . S
C432 C433 1.355 . S
C432 C434 1.415 . S
C433 C432 1.355 . S
C433 C435 1.419 . S
C434 C432 1.415 . S
C434 C439 1.425 . S
C434 C441 1.409 . S
C435 H427 0.930 . S
C435 C433 1.419 . S
C435 C436 1.362 . S
C436 H428 0.930 . S
C436 C435 1.362 . S
C436 C439 1.409 . S
C437 H429 0.930 . S
C437 C438 1.355 . S
C437 C439 1.415 . S
C438 C437 1.355 . S
C438 C440 1.419 . S
C439 C434 1.425 . S
C439 C436 1.409 . S
C439 C437 1.415 . S
C440 H430 0.930 . S
C440 C438 1.419 . S
C440 C441 1.362 . S
C441 H431 0.930 . S
C441 C434 1.409 . S
C441 C440 1.362 . S
H442 C448 0.930 . S
H443 C451 0.930 . S
H444 C452 0.930 . S
H445 C453 0.930 . S
H446 C456 0.930 . S
H447 C457 0.930 . S
C448 H442 0.930 . S
C448 C449 1.355 . S
C448 C450 1.415 . S
C449 C448 1.355 . S
C449 C451 1.419 . S
C450 C448 1.415 . S
C450 C455 1.425 . S
C450 C457 1.409 . S
C451 H443 0.930 . S
C451 C449 1.419 . S
C451 C452 1.362 . S
C452 H444 0.930 . S
C452 C451 1.362 . S
C452 C455 1.409 . S
C453 H445 0.930 . S
C453 C454 1.355 . S
C453 C455 1.415 . S
C454 C453 1.355 . S
C454 C456 1.419 . S
C455 C450 1.425 . S
C455 C452 1.409 . S
C455 C453 1.415 . S
C456 H446 0.930 . S
C456 C454 1.419 . S
C456 C457 1.362 . S
C457 H447 0.930 . S
C457 C450 1.409 . S
C457 C456 1.362 . S
H458 C464 0.930 . S
H459 C467 0.930 . S
H460 C468 0.930 . S
H461 C469 0.930 . S
H462 C472 0.930 . S
H463 C473 0.930 . S
C464 H458 0.930 . S
C464 C465 1.355 . S
C464 C466 1.415 . S
C465 C464 1.355 . S
C465 C467 1.419 . S
C466 C464 1.415 . S
C466 C471 1.425 . S
C466 C473 1.409 . S
C467 H459 0.930 . S
C467 C465 1.419 . S
C467 C468 1.362 . S
C468 H460 0.930 . S
C468 C467 1.362 . S
C468 C471 1.409 . S
C469 H461 0.930 . S
C469 C470 1.355 . S
C469 C471 1.415 . S
C470 C469 1.355 . S
C470 C472 1.419 . S
C471 C466 1.425 . S
C471 C468 1.409 . S
C471 C469 1.415 . S
C472 H462 0.930 . S
C472 C470 1.419 . S
C472 C473 1.362 . S
C473 H463 0.930 . S
C473 C466 1.409 . S
C473 C472 1.362 . S
H474 C480 0.930 . S
H475 C483 0.930 . S
H476 C484 0.930 . S
H477 C485 0.930 . S
H478 C488 0.930 . S
H479 C489 0.930 . S
C480 H474 0.930 . S
C480 C481 1.355 . S
C480 C482 1.415 . S
C481 C480 1.355 . S
C481 C483 1.419 . S
C482 C480 1.415 . S
C482 C487 1.425 . S
C482 C489 1.409 . S
C483 H475 0.930 . S
C483 C481 1.419 . S
C483 C484 1.362 . S
C484 H476 0.930 . S
C484 C483 1.362 . S
C484 C487 1.409 . S
C485 H477 0.930 . S
C485 C486 1.355 . S
C485 C487 1.415 . S
C486 C485 1.355 . S
C486 C488 1.419 . S
C487 C482 1.425 . S
C487 C484 1.409 . S
C487 C485 1.415 . S
C488 H478 0.930 . S
C488 C486 1.419 . S
C488 C489 1.362 . S
C489 H479 0.930 . S
C489 C482 1.409 . S
C489 C488 1.362 . S
H490 C496 0.930 . S
H491 C499 0.930 . S
H492 C500 0.930 . S
H493 C501 0.930 . S
H494 C504 0.930 . S
H495 C505 0.930 . S
C496 H490 0.930 . S
C496 C497 1.355 . S
C496 C498 1.415 . S
C497 C496 1.355 . S
C497 C499 1.419 . S
C498 C496 1.415 . S
C498 C503 1.425 . S
C498 C505 1.409 . S
C499 H491 0.930 . S
C499 C497 1.419 . S
C499 C500 1.362 . S
C500 H492 0.930 . S
C500 C499 1.362 . S
C500 C503 1.409 . S
C501 H493 0.930 . S
C501 C502 1.355 . S
C501 C503 1.415 . S
C502 C501 1.355 . S
C502 C504 1.419 . S
C503 C498 1.425 . S
C503 C500 1.409 . S
C503 C501 1.415 . S
C504 H494 0.930 . S
C504 C502 1.419 . S
C504 C505 1.362 . S
C505 H495 0.930 . S
C505 C498 1.409 . S
C505 C504 1.362 . S
H506 C512 0.930 . S
H507 C515 0.930 . S
H508 C516 0.930 . S
H509 C517 0.930 . S
H510 C520 0.930 . S
H511 C521 0.930 . S
C512 H506 0.930 . S
C512 C513 1.355 . S
C512 C514 1.415 . S
C513 C512 1.355 . S
C513 C515 1.419 . S
C514 C512 1.415 . S
C514 C519 1.425 . S
C514 C521 1.409 . S
C515 H507 0.930 . S
C515 C513 1.419 . S
C515 C516 1.362 . S
C516 H508 0.930 . S
C516 C515 1.362 . S
C516 C519 1.409 . S
C517 H509 0.930 . S
C517 C518 1.355 . S
C517 C519 1.415 . S
C518 C517 1.355 . S
C518 C520 1.419 . S
C519 C514 1.425 . S
C519 C516 1.409 . S
C519 C517 1.415 . S
C520 H510 0.930 . S
C520 C518 1.419 . S
C520 C521 1.362 . S
C521 H511 0.930 . S
C521 C514 1.409 . S
C521 C520 1.362 . S
H522 C528 0.930 . S
H523 C531 0.930 . S
H524 C532 0.930 . S
H525 C533 0.930 . S
H526 C536 0.930 . S
H527 C537 0.930 . S
C528 H522 0.930 . S
C528 C529 1.355 . S
C528 C530 1.415 . S
C529 C528 1.355 . S
C529 C531 1.419 . S
C530 C528 1.415 . S
C530 C535 1.425 . S
C530 C537 1.409 . S
C531 H523 0.930 . S
C531 C529 1.419 . S
C531 C532 1.362 . S
C532 H524 0.930 . S
C532 C531 1.362 . S
C532 C535 1.409 . S
C533 H525 0.930 . S
C533 C534 1.355 . S
C533 C535 1.415 . S
C534 C533 1.355 . S
C534 C536 1.419 . S
C535 C530 1.425 . S
C535 C532 1.409 . S
C535 C533 1.415 . S
C536 H526 0.930 . S
C536 C534 1.419 . S
C536 C537 1.362 . S
C537 H527 0.930 . S
C537 C530 1.409 . S
C537 C536 1.362 . S
H538 C544 0.930 . S
H539 C547 0.930 . S
H540 C548 0.930 . S
H541 C549 0.930 . S
H542 C552 0.930 . S
H543 C553 0.930 . S
C544 H538 0.930 . S
C544 C545 1.355 . S
C544 C546 1.415 . S
C545 C544 1.355 . S
C545 C547 1.419 . S
C546 C544 1.415 . S
C546 C551 1.425 . S
C546 C553 1.409 . S
C547 H539 0.930 . S
C547 C545 1.419 . S
C547 C548 1.362 . S
C548 H540 0.930 . S
C548 C547 1.362 . S
C548 C551 1.409 . S
C549 H541 0.930 . S
C549 C550 1.355 . S
C549 C551 1.415 . S
C550 C549 1.355 . S
C550 C552 1.419 . S
C551 C546 1.425 . S
C551 C548 1.409 . S
C551 C549 1.415 . S
C552 H542 0.930 . S
C552 C550 1.419 . S
C552 C553 1.362 . S
C553 H543 0.930 . S
C553 C546 1.409 . S
C553 C552 1.362 . S
H554 C560 0.930 . S
H555 C563 0.930 . S
H556 C564 0.930 . S
H557 C565 0.930 . S
H558 C568 0.930 . S
H559 C569 0.930 . S
C560 H554 0.930 . S
C560 C561 1.355 . S
C560 C562 1.415 . S
C561 C560 1.355 . S
C561 C563 1.419 . S
C562 C560 1.415 . S
C562 C567 1.425 . S
C562 C569 1.409 . S
C563 H555 0.930 . S
C563 C561 1.419 . S
C563 C564 1.362 . S
C564 H556 0.930 . S
C564 C563 1.362 . S
C564 C567 1.409 . S
C565 H557 0.930 . S
C565 C566 1.355 . S
C565 C567 1.415 . S
C566 C565 1.355 . S
C566 C568 1.419 . S
C567 C562 1.425 . S
C567 C564 1.409 . S
C567 C565 1.415 . S
C568 H558 0.930 . S
C568 C566 1.419 . S
C568 C569 1.362 . S
C569 H559 0.930 . S
C569 C562 1.409 . S
C569 C568 1.362 . S
H570 C576 0.930 . S
H571 C579 0.930 . S
H572 C580 0.930 . S
H573 C581 0.930 . S
H574 C584 0.930 . S
H575 C585 0.930 . S
C576 H570 0.930 . S
C576 C577 1.355 . S
C576 C578 1.415 . S
C577 C576 1.355 . S
C577 C579 1.419 . S
C578 C576 1.415 . S
C578 C583 1.425 . S
C578 C585 1.409 . S
C579 H571 0.930 . S
C579 C577 1.419 . S
C579 C580 1.362 . S
C580 H572 0.930 . S
C580 C579 1.362 . S
C580 C583 1.409 . S
C581 H573 0.930 . S
C581 C582 1.355 . S
C581 C583 1.415 . S
C582 C581 1.355 . S
C582 C584 1.419 . S
C583 C578 1.425 . S
C583 C580 1.409 . S
C583 C581 1.415 . S
C584 H574 0.930 . S
C584 C582 1.419 . S
C584 C585 1.362 . S
C585 H575 0.930 . S
C585 C578 1.409 . S
C585 C584 1.362 . S
H586 C592 0.930 . S
H587 C595 0.930 . S
H588 C596 0.930 . S
H589 C597 0.930 . S
H590 C600 0.930 . S
H591 C601 0.930 . S
C592 H586 0.930 . S
C592 C593 1.355 . S
C592 C594 1.415 . S
C593 C592 1.355 . S
C593 C595 1.419 . S
C594 C592 1.415 . S
C594 C599 1.425 . S
C594 C601 1.409 . S
C595 H587 0.930 . S
C595 C593 1.419 . S
C595 C596 1.362 . S
C596 H588 0.930 . S
C596 C595 1.362 . S
C596 C599 1.409 . S
C597 H589 0.930 . S
C597 C598 1.355 . S
C597 C599 1.415 . S
C598 C597 1.355 . S
C598 C600 1.419 . S
C599 C594 1.425 . S
C599 C596 1.409 . S
C599 C597 1.415 . S
C600 H590 0.930 . S
C600 C598 1.419 . S
C600 C601 1.362 . S
C601 H591 0.930 . S
C601 C594 1.409 . S
C601 C600 1.362 . S
H602 C608 0.930 . S
H603 C611 0.930 . S
H604 C612 0.930 . S
H605 C613 0.930 . S
H606 C616 0.930 . S
H607 C617 0.930 . S
C608 H602 0.930 . S
C608 C609 1.355 . S
C608 C610 1.415 . S
C609 C608 1.355 . S
C609 C611 1.419 . S
C610 C608 1.415 . S
C610 C615 1.425 . S
C610 C617 1.409 . S
C611 H603 0.930 . S
C611 C609 1.419 . S
C611 C612 1.362 . S
C612 H604 0.930 . S
C612 C611 1.362 . S
C612 C615 1.409 . S
C613 H605 0.930 . S
C613 C614 1.355 . S
C613 C615 1.415 . S
C614 C613 1.355 . S
C614 C616 1.419 . S
C615 C610 1.425 . S
C615 C612 1.409 . S
C615 C613 1.415 . S
C616 H606 0.930 . S
C616 C614 1.419 . S
C616 C617 1.362 . S
C617 H607 0.930 . S
C617 C610 1.409 . S
C617 C616 1.362 . S
H618 C624 0.930 . S
H619 C627 0.930 . S
H620 C628 0.930 . S
H621 C629 0.930 . S
H622 C632 0.930 . S
H623 C633 0.930 . S
C624 H618 0.930 . S
C624 C625 1.355 . S
C624 C626 1.415 . S
C625 C624 1.355 . S
C625 C627 1.419 . S
C626 C624 1.415 . S
C626 C631 1.425 . S
C626 C633 1.409 . S
C627 H619 0.930 . S
C627 C625 1.419 . S
C627 C628 1.362 . S
C628 H620 0.930 . S
C628 C627 1.362 . S
C628 C631 1.409 . S
C629 H621 0.930 . S
C629 C630 1.355 . S
C629 C631 1.415 . S
C630 C629 1.355 . S
C630 C632 1.419 . S
C631 C626 1.425 . S
C631 C628 1.409 . S
C631 C629 1.415 . S
C632 H622 0.930 . S
C632 C630 1.419 . S
C632 C633 1.362 . S
C633 H623 0.930 . S
C633 C626 1.409 . S
C633 C632 1.362 . S
H634 C640 0.930 . S
H635 C643 0.930 . S
H636 C644 0.930 . S
H637 C645 0.930 . S
H638 C648 0.930 . S
H639 C649 0.930 . S
C640 H634 0.930 . S
C640 C641 1.355 . S
C640 C642 1.415 . S
C641 C640 1.355 . S
C641 C643 1.419 . S
C642 C640 1.415 . S
C642 C647 1.425 . S
C642 C649 1.409 . S
C643 H635 0.930 . S
C643 C641 1.419 . S
C643 C644 1.362 . S
C644 H636 0.930 . S
C644 C643 1.362 . S
C644 C647 1.409 . S
C645 H637 0.930 . S
C645 C646 1.355 . S
C645 C647 1.415 . S
C646 C645 1.355 . S
C646 C648 1.419 . S
C647 C642 1.425 . S
C647 C644 1.409 . S
C647 C645 1.415 . S
C648 H638 0.930 . S
C648 C646 1.419 . S
C648 C649 1.362 . S
C649 H639 0.930 . S
C649 C642 1.409 . S
C649 C648 1.362 . S
H650 C656 0.930 . S
H651 C659 0.930 . S
H652 C660 0.930 . S
H653 C661 0.930 . S
H654 C664 0.930 . S
H655 C665 0.930 . S
C656 H650 0.930 . S
C656 C657 1.355 . S
C656 C658 1.415 . S
C657 C656 1.355 . S
C657 C659 1.419 . S
C658 C656 1.415 . S
C658 C663 1.425 . S
C658 C665 1.409 . S
C659 H651 0.930 . S
C659 C657 1.419 . S
C659 C660 1.362 . S
C660 H652 0.930 . S
C660 C659 1.362 . S
C660 C663 1.409 . S
C661 H653 0.930 . S
C661 C662 1.355 . S
C661 C663 1.415 . S
C662 C661 1.355 . S
C662 C664 1.419 . S
C663 C658 1.425 . S
C663 C660 1.409 . S
C663 C661 1.415 . S
C664 H654 0.930 . S
C664 C662 1.419 . S
C664 C665 1.362 . S
C665 H655 0.930 . S
C665 C658 1.409 . S
C665 C664 1.362 . S
H666 C672 0.930 . S
H667 C675 0.930 . S
H668 C676 0.930 . S
H669 C677 0.930 . S
H670 C680 0.930 . S
H671 C681 0.930 . S
C672 H666 0.930 . S
C672 C673 1.355 . S
C672 C674 1.415 . S
C673 C672 1.355 . S
C673 C675 1.419 . S
C674 C672 1.415 . S
C674 C679 1.425 . S
C674 C681 1.409 . S
C675 H667 0.930 . S
C675 C673 1.419 . S
C675 C676 1.362 . S
C676 H668 0.930 . S
C676 C675 1.362 . S
C676 C679 1.409 . S
C677 H669 0.930 . S
C677 C678 1.355 . S
C677 C679 1.415 . S
C678 C677 1.355 . S
C678 C680 1.419 . S
C679 C674 1.425 . S
C679 C676 1.409 . S
C679 C677 1.415 . S
C680 H670 0.930 . S
C680 C678 1.419 . S
C680 C681 1.362 . S
C681 H671 0.930 . S
C681 C674 1.409 . S
C681 C680 1.362 . S
H682 C688 0.930 . S
H683 C691 0.930 . S
H684 C692 0.930 . S
H685 C693 0.930 . S
H686 C696 0.930 . S
H687 C697 0.930 . S
C688 H682 0.930 . S
C688 C689 1.355 . S
C688 C690 1.415 . S
C689 C688 1.355 . S
C689 C691 1.419 . S
C690 C688 1.415 . S
C690 C695 1.425 . S
C690 C697 1.409 . S
C691 H683 0.930 . S
C691 C689 1.419 . S
C691 C692 1.362 . S
C692 H684 0.930 . S
C692 C691 1.362 . S
C692 C695 1.409 . S
C693 H685 0.930 . S
C693 C694 1.355 . S
C693 C695 1.415 . S
C694 C693 1.355 . S
C694 C696 1.419 . S
C695 C690 1.425 . S
C695 C692 1.409 . S
C695 C693 1.415 . S
C696 H686 0.930 . S
C696 C694 1.419 . S
C696 C697 1.362 . S
C697 H687 0.930 . S
C697 C690 1.409 . S
C697 C696 1.362 . S
H698 C704 0.930 . S
H699 C707 0.930 . S
H700 C708 0.930 . S
H701 C709 0.930 . S
H702 C712 0.930 . S
H703 C713 0.930 . S
C704 H698 0.930 . S
C704 C705 1.355 . S
C704 C706 1.415 . S
C705 C704 1.355 . S
C705 C707 1.419 . S
C706 C704 1.415 . S
C706 C711 1.425 . S
C706 C713 1.409 . S
C707 H699 0.930 . S
C707 C705 1.419 . S
C707 C708 1.362 . S
C708 H700 0.930 . S
C708 C707 1.362 . S
C708 C711 1.409 . S
C709 H701 0.930 . S
C709 C710 1.355 . S
C709 C711 1.415 . S
C710 C709 1.355 . S
C710 C712 1.419 . S
C711 C706 1.425 . S
C711 C708 1.409 . S
C711 C709 1.415 . S
C712 H702 0.930 . S
C712 C710 1.419 . S
C712 C713 1.362 . S
C713 H703 0.930 . S
C713 C706 1.409 . S
C713 C712 1.362 . S
H714 C720 0.930 . S
H715 C723 0.930 . S
H716 C724 0.930 . S
H717 C725 0.930 . S
H718 C728 0.930 . S
H719 C729 0.930 . S
C720 H714 0.930 . S
C720 C721 1.355 . S
C720 C722 1.415 . S
C721 C720 1.355 . S
C721 C723 1.419 . S
C722 C720 1.415 . S
C722 C727 1.425 . S
C722 C729 1.409 . S
C723 H715 0.930 . S
C723 C721 1.419 . S
C723 C724 1.362 . S
C724 H716 0.930 . S
C724 C723 1.362 . S
C724 C727 1.409 . S
C725 H717 0.930 . S
C725 C726 1.355 . S
C725 C727 1.415 . S
C726 C725 1.355 . S
C726 C728 1.419 . S
C727 C722 1.425 . S
C727 C724 1.409 . S
C727 C725 1.415 . S
C728 H718 0.930 . S
C728 C726 1.419 . S
C728 C729 1.362 . S
C729 H719 0.930 . S
C729 C722 1.409 . S
C729 C728 1.362 . S
H730 C736 0.930 . S
H731 C739 0.930 . S
H732 C740 0.930 . S
H733 C741 0.930 . S
H734 C744 0.930 . S
H735 C745 0.930 . S
C736 H730 0.930 . S
C736 C737 1.355 . S
C736 C738 1.415 . S
C737 C736 1.355 . S
C737 C739 1.419 . S
C738 C736 1.415 . S
C738 C743 1.425 . S
C738 C745 1.409 . S
C739 H731 0.930 . S
C739 C737 1.419 . S
C739 C740 1.362 . S
C740 H732 0.930 . S
C740 C739 1.362 . S
C740 C743 1.409 . S
C741 H733 0.930 . S
C741 C742 1.355 . S
C741 C743 1.415 . S
C742 C741 1.355 . S
C742 C744 1.419 . S
C743 C738 1.425 . S
C743 C740 1.409 . S
C743 C741 1.415 . S
C744 H734 0.930 . S
C744 C742 1.419 . S
C744 C745 1.362 . S
C745 H735 0.930 . S
C745 C738 1.409 . S
C745 C744 1.362 . S
H746 C752 0.930 . S
H747 C755 0.930 . S
H748 C756 0.930 . S
H749 C757 0.930 . S
H750 C760 0.930 . S
H751 C761 0.930 . S
C752 H746 0.930 . S
C752 C753 1.355 . S
C752 C754 1.415 . S
C753 C752 1.355 . S
C753 C755 1.419 . S
C754 C752 1.415 . S
C754 C759 1.425 . S
C754 C761 1.409 . S
C755 H747 0.930 . S
C755 C753 1.419 . S
C755 C756 1.362 . S
C756 H748 0.930 . S
C756 C755 1.362 . S
C756 C759 1.409 . S
C757 H749 0.930 . S
C757 C758 1.355 . S
C757 C759 1.415 . S
C758 C757 1.355 . S
C758 C760 1.419 . S
C759 C754 1.425 . S
C759 C756 1.409 . S
C759 C757 1.415 . S
C760 H750 0.930 . S
C760 C758 1.419 . S
C760 C761 1.362 . S
C761 H751 0.930 . S
C761 C754 1.409 . S
C761 C760 1.362 . S
H762 C768 0.930 . S
H763 C771 0.930 . S
H764 C772 0.930 . S
H765 C773 0.930 . S
H766 C776 0.930 . S
H767 C777 0.930 . S
C768 H762 0.930 . S
C768 C769 1.355 . S
C768 C770 1.415 . S
C769 C768 1.355 . S
C769 C771 1.419 . S
C770 C768 1.415 . S
C770 C775 1.425 . S
C770 C777 1.409 . S
C771 H763 0.930 . S
C771 C769 1.419 . S
C771 C772 1.362 . S
C772 H764 0.930 . S
C772 C771 1.362 . S
C772 C775 1.409 . S
C773 H765 0.930 . S
C773 C774 1.355 . S
C773 C775 1.415 . S
C774 C773 1.355 . S
C774 C776 1.419 . S
C775 C770 1.425 . S
C775 C772 1.409 . S
C775 C773 1.415 . S
C776 H766 0.930 . S
C776 C774 1.419 . S
C776 C777 1.362 . S
C777 H767 0.930 . S
C777 C770 1.409 . S
C777 C776 1.362 . S
H778 C784 0.930 . S
H779 C787 0.930 . S
H780 C788 0.930 . S
H781 C789 0.930 . S
H782 C792 0.930 . S
H783 C793 0.930 . S
C784 H778 0.930 . S
C784 C785 1.355 . S
C784 C786 1.415 . S
C785 C784 1.355 . S
C785 C787 1.419 . S
C786 C784 1.415 . S
C786 C791 1.425 . S
C786 C793 1.409 . S
C787 H779 0.930 . S
C787 C785 1.419 . S
C787 C788 1.362 . S
C788 H780 0.930 . S
C788 C787 1.362 . S
C788 C791 1.409 . S
C789 H781 0.930 . S
C789 C790 1.355 . S
C789 C791 1.415 . S
C790 C789 1.355 . S
C790 C792 1.419 . S
C791 C786 1.425 . S
C791 C788 1.409 . S
C791 C789 1.415 . S
C792 H782 0.930 . S
C792 C790 1.419 . S
C792 C793 1.362 . S
C793 H783 0.930 . S
C793 C786 1.409 . S
C793 C792 1.362 . S
H794 C800 0.930 . S
H795 C803 0.930 . S
H796 C804 0.930 . S
H797 C805 0.930 . S
H798 C808 0.930 . S
H799 C809 0.930 . S
C800 H794 0.930 . S
C800 C801 1.355 . S
C800 C802 1.415 . S
C801 C800 1.355 . S
C801 C803 1.419 . S
C802 C800 1.415 . S
C802 C807 1.425 . S
C802 C809 1.409 . S
C803 H795 0.930 . S
C803 C801 1.419 . S
C803 C804 1.362 . S
C804 H796 0.930 . S
C804 C803 1.362 . S
C804 C807 1.409 . S
C805 H797 0.930 . S
C805 C806 1.355 . S
C805 C807 1.415 . S
C806 C805 1.355 . S
C806 C808 1.419 . S
C807 C802 1.425 . S
C807 C804 1.409 . S
C807 C805 1.415 . S
C808 H798 0.930 . S
C808 C806 1.419 . S
C808 C809 1.362 . S
C809 H799 0.930 . S
C809 C802 1.409 . S
C809 C808 1.362 . S
C433 C39 1.673 . S
C438 C332 1.602 . S
C449 C91 1.631 . S
C454 C343 1.538 . S
C470 C362 1.397 . S
C465 C128 1.480 . S
C486 C379 1.405 . S
C481 C188 1.452 . S
C502 C406 1.509 . S
C497 C250 1.532 . S
C518 C415 1.548 . S
C513 C304 1.637 . S
C529 C75 1.568 . S
C534 C368 1.516 . S
C545 C144 1.663 . S
C550 C388 1.540 . S
C566 C397 1.566 . S
C561 C198 1.610 . S
C582 C424 1.385 . S
C577 C234 1.467 . S
C593 C294 1.429 . S
C598 C326 1.421 . S
C614 C352 1.414 . S
C609 C29 1.476 . S
C630 C380 1.628 . S
C625 C38 1.714 . S
C641 C92 1.673 . S
C646 C404 1.630 . S
C662 C416 1.502 . S
C657 C135 1.536 . S
C673 C181 1.482 . S
C678 C334 1.383 . S
C689 C251 1.580 . S
C694 C344 1.548 . S
C705 C303 1.676 . S
C710 C361 1.546 . S
C721 C82 1.605 . S
C726 C422 1.475 . S
C742 C325 1.626 . S
C737 C145 1.712 . S
C753 C197 1.655 . S
C758 C350 1.546 . S
C769 C241 1.532 . S
C774 C370 1.461 . S
C785 C287 1.475 . S
C790 C386 1.398 . S
C801 C22 1.502 . S
C806 C398 1.416 . S
